# Generated by pormake.
# Topology vab, (3)-cn, num edge types: 1
# Building blocks:
#     Node 0, Type 0, BuildingBlock: OLANEW_clean_sbu_2, # of connection points: 3
#     Node 1, Type 0, BuildingBlock: OLANEW_clean_sbu_2, # of connection points: 3
#     Node 2, Type 0, BuildingBlock: OLANEW_clean_sbu_2, # of connection points: 3
#     Node 3, Type 0, BuildingBlock: OLANEW_clean_sbu_2, # of connection points: 3
#     Node 4, Type 0, BuildingBlock: OLANEW_clean_sbu_2, # of connection points: 3
#     Node 5, Type 0, BuildingBlock: OLANEW_clean_sbu_2, # of connection points: 3
#     Node 6, Type 0, BuildingBlock: OLANEW_clean_sbu_2, # of connection points: 3
#     Node 7, Type 0, BuildingBlock: OLANEW_clean_sbu_2, # of connection points: 3
#     Node 8, Type 0, BuildingBlock: OLANEW_clean_sbu_2, # of connection points: 3
#     Node 9, Type 0, BuildingBlock: OLANEW_clean_sbu_2, # of connection points: 3
#     Node 10, Type 0, BuildingBlock: OLANEW_clean_sbu_2, # of connection points: 3
#     Node 11, Type 0, BuildingBlock: OLANEW_clean_sbu_2, # of connection points: 3
#     Node 12, Type 0, BuildingBlock: OLANEW_clean_sbu_2, # of connection points: 3
#     Node 13, Type 0, BuildingBlock: OLANEW_clean_sbu_2, # of connection points: 3
#     Node 14, Type 0, BuildingBlock: OLANEW_clean_sbu_2, # of connection points: 3
#     Node 15, Type 0, BuildingBlock: OLANEW_clean_sbu_2, # of connection points: 3
#     Node 16, Type 0, BuildingBlock: OLANEW_clean_sbu_2, # of connection points: 3
#     Node 17, Type 0, BuildingBlock: OLANEW_clean_sbu_2, # of connection points: 3
#     Node 18, Type 0, BuildingBlock: OLANEW_clean_sbu_2, # of connection points: 3
#     Node 19, Type 0, BuildingBlock: OLANEW_clean_sbu_2, # of connection points: 3
#     Node 20, Type 0, BuildingBlock: OLANEW_clean_sbu_2, # of connection points: 3
#     Node 21, Type 0, BuildingBlock: OLANEW_clean_sbu_2, # of connection points: 3
#     Node 22, Type 0, BuildingBlock: OLANEW_clean_sbu_2, # of connection points: 3
#     Node 23, Type 0, BuildingBlock: OLANEW_clean_sbu_2, # of connection points: 3
#     Node 24, Type 0, BuildingBlock: OLANEW_clean_sbu_2, # of connection points: 3
#     Node 25, Type 0, BuildingBlock: OLANEW_clean_sbu_2, # of connection points: 3
#     Node 26, Type 0, BuildingBlock: OLANEW_clean_sbu_2, # of connection points: 3
#     Node 27, Type 0, BuildingBlock: OLANEW_clean_sbu_2, # of connection points: 3
#     Node 28, Type 0, BuildingBlock: OLANEW_clean_sbu_2, # of connection points: 3
#     Node 29, Type 0, BuildingBlock: OLANEW_clean_sbu_2, # of connection points: 3
#     Node 30, Type 0, BuildingBlock: OLANEW_clean_sbu_2, # of connection points: 3
#     Node 31, Type 0, BuildingBlock: OLANEW_clean_sbu_2, # of connection points: 3
#     Node 32, Type 0, BuildingBlock: OLANEW_clean_sbu_2, # of connection points: 3
#     Node 33, Type 0, BuildingBlock: OLANEW_clean_sbu_2, # of connection points: 3
#     Node 34, Type 0, BuildingBlock: OLANEW_clean_sbu_2, # of connection points: 3
#     Node 35, Type 0, BuildingBlock: OLANEW_clean_sbu_2, # of connection points: 3
#     Node 36, Type 0, BuildingBlock: OLANEW_clean_sbu_2, # of connection points: 3
#     Node 37, Type 0, BuildingBlock: OLANEW_clean_sbu_2, # of connection points: 3
#     Node 38, Type 0, BuildingBlock: OLANEW_clean_sbu_2, # of connection points: 3
#     Node 39, Type 0, BuildingBlock: OLANEW_clean_sbu_2, # of connection points: 3
#     Node 40, Type 0, BuildingBlock: OLANEW_clean_sbu_2, # of connection points: 3
#     Node 41, Type 0, BuildingBlock: OLANEW_clean_sbu_2, # of connection points: 3
#     Node 42, Type 0, BuildingBlock: OLANEW_clean_sbu_2, # of connection points: 3
#     Node 43, Type 0, BuildingBlock: OLANEW_clean_sbu_2, # of connection points: 3
#     Node 44, Type 0, BuildingBlock: OLANEW_clean_sbu_2, # of connection points: 3
#     Node 45, Type 0, BuildingBlock: OLANEW_clean_sbu_2, # of connection points: 3
#     Node 46, Type 0, BuildingBlock: OLANEW_clean_sbu_2, # of connection points: 3
#     Node 47, Type 0, BuildingBlock: OLANEW_clean_sbu_2, # of connection points: 3
#     Edge 48, Type (0, 0), BuildingBlock: KIFKEQ_clean_linker_1, # of connection points: 2
#     Edge 49, Type (0, 0), BuildingBlock: KIFKEQ_clean_linker_1, # of connection points: 2
#     Edge 50, Type (0, 0), BuildingBlock: KIFKEQ_clean_linker_1, # of connection points: 2
#     Edge 51, Type (0, 0), BuildingBlock: KIFKEQ_clean_linker_1, # of connection points: 2
#     Edge 52, Type (0, 0), BuildingBlock: KIFKEQ_clean_linker_1, # of connection points: 2
#     Edge 53, Type (0, 0), BuildingBlock: KIFKEQ_clean_linker_1, # of connection points: 2
#     Edge 54, Type (0, 0), BuildingBlock: KIFKEQ_clean_linker_1, # of connection points: 2
#     Edge 55, Type (0, 0), BuildingBlock: KIFKEQ_clean_linker_1, # of connection points: 2
#     Edge 56, Type (0, 0), BuildingBlock: KIFKEQ_clean_linker_1, # of connection points: 2
#     Edge 57, Type (0, 0), BuildingBlock: KIFKEQ_clean_linker_1, # of connection points: 2
#     Edge 58, Type (0, 0), BuildingBlock: KIFKEQ_clean_linker_1, # of connection points: 2
#     Edge 59, Type (0, 0), BuildingBlock: KIFKEQ_clean_linker_1, # of connection points: 2
#     Edge 60, Type (0, 0), BuildingBlock: KIFKEQ_clean_linker_1, # of connection points: 2
#     Edge 61, Type (0, 0), BuildingBlock: KIFKEQ_clean_linker_1, # of connection points: 2
#     Edge 62, Type (0, 0), BuildingBlock: KIFKEQ_clean_linker_1, # of connection points: 2
#     Edge 63, Type (0, 0), BuildingBlock: KIFKEQ_clean_linker_1, # of connection points: 2
#     Edge 64, Type (0, 0), BuildingBlock: KIFKEQ_clean_linker_1, # of connection points: 2
#     Edge 65, Type (0, 0), BuildingBlock: KIFKEQ_clean_linker_1, # of connection points: 2
#     Edge 66, Type (0, 0), BuildingBlock: KIFKEQ_clean_linker_1, # of connection points: 2
#     Edge 67, Type (0, 0), BuildingBlock: KIFKEQ_clean_linker_1, # of connection points: 2
#     Edge 68, Type (0, 0), BuildingBlock: KIFKEQ_clean_linker_1, # of connection points: 2
#     Edge 69, Type (0, 0), BuildingBlock: KIFKEQ_clean_linker_1, # of connection points: 2
#     Edge 70, Type (0, 0), BuildingBlock: KIFKEQ_clean_linker_1, # of connection points: 2
#     Edge 71, Type (0, 0), BuildingBlock: KIFKEQ_clean_linker_1, # of connection points: 2
#     Edge 72, Type (0, 0), BuildingBlock: KIFKEQ_clean_linker_1, # of connection points: 2
#     Edge 73, Type (0, 0), BuildingBlock: KIFKEQ_clean_linker_1, # of connection points: 2
#     Edge 74, Type (0, 0), BuildingBlock: KIFKEQ_clean_linker_1, # of connection points: 2
#     Edge 75, Type (0, 0), BuildingBlock: KIFKEQ_clean_linker_1, # of connection points: 2
#     Edge 76, Type (0, 0), BuildingBlock: KIFKEQ_clean_linker_1, # of connection points: 2
#     Edge 77, Type (0, 0), BuildingBlock: KIFKEQ_clean_linker_1, # of connection points: 2
#     Edge 78, Type (0, 0), BuildingBlock: KIFKEQ_clean_linker_1, # of connection points: 2
#     Edge 79, Type (0, 0), BuildingBlock: KIFKEQ_clean_linker_1, # of connection points: 2
#     Edge 80, Type (0, 0), BuildingBlock: KIFKEQ_clean_linker_1, # of connection points: 2
#     Edge 81, Type (0, 0), BuildingBlock: KIFKEQ_clean_linker_1, # of connection points: 2
#     Edge 82, Type (0, 0), BuildingBlock: KIFKEQ_clean_linker_1, # of connection points: 2
#     Edge 83, Type (0, 0), BuildingBlock: KIFKEQ_clean_linker_1, # of connection points: 2
#     Edge 84, Type (0, 0), BuildingBlock: KIFKEQ_clean_linker_1, # of connection points: 2
#     Edge 85, Type (0, 0), BuildingBlock: KIFKEQ_clean_linker_1, # of connection points: 2
#     Edge 86, Type (0, 0), BuildingBlock: KIFKEQ_clean_linker_1, # of connection points: 2
#     Edge 87, Type (0, 0), BuildingBlock: KIFKEQ_clean_linker_1, # of connection points: 2
#     Edge 88, Type (0, 0), BuildingBlock: KIFKEQ_clean_linker_1, # of connection points: 2
#     Edge 89, Type (0, 0), BuildingBlock: KIFKEQ_clean_linker_1, # of connection points: 2
#     Edge 90, Type (0, 0), BuildingBlock: KIFKEQ_clean_linker_1, # of connection points: 2
#     Edge 91, Type (0, 0), BuildingBlock: KIFKEQ_clean_linker_1, # of connection points: 2
#     Edge 92, Type (0, 0), BuildingBlock: KIFKEQ_clean_linker_1, # of connection points: 2
#     Edge 93, Type (0, 0), BuildingBlock: KIFKEQ_clean_linker_1, # of connection points: 2
#     Edge 94, Type (0, 0), BuildingBlock: KIFKEQ_clean_linker_1, # of connection points: 2
#     Edge 95, Type (0, 0), BuildingBlock: KIFKEQ_clean_linker_1, # of connection points: 2
#     Edge 96, Type (0, 0), BuildingBlock: KIFKEQ_clean_linker_1, # of connection points: 2
#     Edge 97, Type (0, 0), BuildingBlock: KIFKEQ_clean_linker_1, # of connection points: 2
#     Edge 98, Type (0, 0), BuildingBlock: KIFKEQ_clean_linker_1, # of connection points: 2
#     Edge 99, Type (0, 0), BuildingBlock: KIFKEQ_clean_linker_1, # of connection points: 2
#     Edge 100, Type (0, 0), BuildingBlock: KIFKEQ_clean_linker_1, # of connection points: 2
#     Edge 101, Type (0, 0), BuildingBlock: KIFKEQ_clean_linker_1, # of connection points: 2
#     Edge 102, Type (0, 0), BuildingBlock: KIFKEQ_clean_linker_1, # of connection points: 2
#     Edge 103, Type (0, 0), BuildingBlock: KIFKEQ_clean_linker_1, # of connection points: 2
#     Edge 104, Type (0, 0), BuildingBlock: KIFKEQ_clean_linker_1, # of connection points: 2
#     Edge 105, Type (0, 0), BuildingBlock: KIFKEQ_clean_linker_1, # of connection points: 2
#     Edge 106, Type (0, 0), BuildingBlock: KIFKEQ_clean_linker_1, # of connection points: 2
#     Edge 107, Type (0, 0), BuildingBlock: KIFKEQ_clean_linker_1, # of connection points: 2
#     Edge 108, Type (0, 0), BuildingBlock: KIFKEQ_clean_linker_1, # of connection points: 2
#     Edge 109, Type (0, 0), BuildingBlock: KIFKEQ_clean_linker_1, # of connection points: 2
#     Edge 110, Type (0, 0), BuildingBlock: KIFKEQ_clean_linker_1, # of connection points: 2
#     Edge 111, Type (0, 0), BuildingBlock: KIFKEQ_clean_linker_1, # of connection points: 2
#     Edge 112, Type (0, 0), BuildingBlock: KIFKEQ_clean_linker_1, # of connection points: 2
#     Edge 113, Type (0, 0), BuildingBlock: KIFKEQ_clean_linker_1, # of connection points: 2
#     Edge 114, Type (0, 0), BuildingBlock: KIFKEQ_clean_linker_1, # of connection points: 2
#     Edge 115, Type (0, 0), BuildingBlock: KIFKEQ_clean_linker_1, # of connection points: 2
#     Edge 116, Type (0, 0), BuildingBlock: KIFKEQ_clean_linker_1, # of connection points: 2
#     Edge 117, Type (0, 0), BuildingBlock: KIFKEQ_clean_linker_1, # of connection points: 2
#     Edge 118, Type (0, 0), BuildingBlock: KIFKEQ_clean_linker_1, # of connection points: 2
#     Edge 119, Type (0, 0), BuildingBlock: KIFKEQ_clean_linker_1, # of connection points: 2
# Relax obj value: 0.061
# Max RMSD: 0.129
# Mean RMSD: 0.045
data_MOF--net-vab--node1-OLANEW_clean_sbu_2--edge1-KIFKEQ_clean_linker_1
_symmetry_space_group_name_H-M    P1
_symmetry_Int_Tables_number       1
_symmetry_cell_setting            triclinic
loop_
_symmetry_equiv_pos_as_xyz
'x, y, z'
_cell_length_a     63.892492
_cell_length_b     64.523166
_cell_length_c     64.470175
_cell_angle_alpha  98.814947
_cell_angle_beta   106.51358
_cell_angle_gamma 106.61246
loop_
_atom_site_label
_atom_site_type_symbol
_atom_site_fract_x
_atom_site_fract_y
_atom_site_fract_z
_atom_type_partial_charge
O0 O 0.95832 0.04819 0.31548 0.0
Cd1 Cd 0.99546 0.07134 0.31423 0.0
O2 O 0.94443 0.02817 0.28053 0.0
Cd3 Cd 0.97228 0.05152 0.27356 0.0
O4 O 0.99353 0.08546 0.27555 0.0
C5 C 0.98407 0.09656 0.26371 0.0
O6 O 0.96267 0.08656 0.2495 0.0
C7 C 0.9425 0.03216 0.29972 0.0
C8 C 0.0268 0.04836 0.31821 0.0
O9 O 0.02575 0.06013 0.33556 0.0
O10 O 0.01315 0.04761 0.29899 0.0
O11 O 0.40339 0.78347 0.68255 0.0
Cd12 Cd 0.43666 0.81814 0.70137 0.0
O13 O 0.3872 0.79762 0.65604 0.0
Cd14 Cd 0.40936 0.83163 0.6755 0.0
O15 O 0.4182 0.86025 0.70337 0.0
C16 C 0.41499 0.87828 0.70037 0.0
O17 O 0.40769 0.88042 0.67987 0.0
C18 C 0.38761 0.78088 0.66412 0.0
C19 C 0.4703 0.81875 0.68152 0.0
O20 O 0.47043 0.81056 0.69843 0.0
O21 O 0.45454 0.8271 0.67428 0.0
O22 O 0.5389 0.09197 0.69593 0.0
Cd23 Cd 0.51221 0.11072 0.68024 0.0
O24 O 0.51061 0.06092 0.69154 0.0
Cd25 Cd 0.49845 0.02848 0.69876 0.0
O26 O 0.49176 0.00222 0.7162 0.0
C27 C 0.50701 0.00481 0.73496 0.0
O28 O 0.52605 0.02259 0.74243 0.0
C29 C 0.53226 0.07211 0.69799 0.0
C30 C 0.52632 0.15386 0.70727 0.0
O31 O 0.51046 0.13771 0.70929 0.0
O32 O 0.53522 0.14965 0.69235 0.0
O33 O 0.50899 0.47564 0.22895 0.0
Cd34 Cd 0.52289 0.44817 0.24533 0.0
O35 O 0.47441 0.4505 0.21991 0.0
Cd36 Cd 0.43675 0.43497 0.20276 0.0
O37 O 0.39992 0.41466 0.18646 0.0
C38 C 0.3945 0.39355 0.18088 0.0
O39 O 0.41116 0.38501 0.18498 0.0
C40 C 0.48704 0.46965 0.2197 0.0
C41 C 0.57114 0.46002 0.26315 0.0
O42 O 0.55998 0.4506 0.24229 0.0
O43 O 0.55953 0.4643 0.27549 0.0
O44 O 0.46194 0.15204 0.04136 0.0
Cd45 Cd 0.44433 0.17332 0.01798 0.0
O46 O 0.44505 0.16062 0.06497 0.0
Cd47 Cd 0.43485 0.15733 0.09426 0.0
O48 O 0.42286 0.15057 0.12184 0.0
C49 C 0.42914 0.1373 0.13283 0.0
O50 O 0.44321 0.12781 0.12754 0.0
C51 C 0.45819 0.15094 0.05955 0.0
C52 C 0.41362 0.14676 0.97585 0.0
O53 O 0.43533 0.15623 0.97933 0.0
O54 O 0.40646 0.14978 0.99235 0.0
O55 O 0.31768 0.99518 0.27684 0.0
Cd56 Cd 0.28113 0.99305 0.28244 0.0
O57 O 0.32523 0.03121 0.28065 0.0
Cd58 Cd 0.34536 0.06358 0.27753 0.0
O59 O 0.36606 0.08407 0.26152 0.0
C60 C 0.35533 0.0899 0.2449 0.0
O61 O 0.33279 0.08536 0.23964 0.0
C62 C 0.33118 0.01413 0.27725 0.0
C63 C 0.28851 0.02249 0.32236 0.0
O64 O 0.28682 0.00207 0.32151 0.0
O65 O 0.28683 0.02899 0.30434 0.0
O66 O 0.28339 0.19737 0.54969 0.0
Cd67 Cd 0.24742 0.17326 0.55219 0.0
O68 O 0.27882 0.17177 0.52065 0.0
Cd69 Cd 0.28666 0.15615 0.4926 0.0
O70 O 0.28847 0.13722 0.46249 0.0
C71 C 0.30026 0.12429 0.46379 0.0
O72 O 0.31183 0.12285 0.48361 0.0
C73 C 0.29023 0.19111 0.53393 0.0
C74 C 0.25313 0.14331 0.57834 0.0
O75 O 0.24987 0.13796 0.55739 0.0
O76 O 0.25414 0.163 0.58699 0.0
O77 O 0.21385 0.00115 0.71322 0.0
Cd78 Cd 0.24113 0.99753 0.69412 0.0
O79 O 0.2438 0.02138 0.74317 0.0
Cd80 Cd 0.26189 0.03969 0.77842 0.0
O81 O 0.2838 0.05816 0.81287 0.0
C82 C 0.30322 0.05567 0.82118 0.0
O83 O 0.30932 0.04192 0.80886 0.0
C84 C 0.22184 0.01257 0.73343 0.0
C85 C 0.24682 0.02873 0.6688 0.0
O86 O 0.23113 0.00924 0.66027 0.0
O87 O 0.25993 0.03343 0.6893 0.0
O88 O 0.15665 0.26648 0.06565 0.0
Cd89 Cd 0.18148 0.25938 0.09826 0.0
O90 O 0.14483 0.28563 0.08803 0.0
Cd91 Cd 0.12338 0.30343 0.0981 0.0
O92 O 0.10372 0.31718 0.11562 0.0
C93 C 0.08246 0.31438 0.10578 0.0
O94 O 0.07246 0.30362 0.08451 0.0
C95 C 0.14397 0.27794 0.06829 0.0
C96 C 0.22697 0.28972 0.11422 0.0
O97 O 0.2209 0.27149 0.09926 0.0
O98 O 0.21146 0.29365 0.12155 0.0
O99 O 0.85052 0.46489 0.37679 0.0
Cd100 Cd 0.87406 0.49319 0.36351 0.0
O101 O 0.8189 0.46787 0.35492 0.0
Cd102 Cd 0.78162 0.46174 0.3404 0.0
O103 O 0.74631 0.46112 0.32423 0.0
C104 C 0.73918 0.47577 0.33252 0.0
O105 O 0.75314 0.49091 0.35115 0.0
C106 C 0.82843 0.45852 0.36896 0.0
C107 C 0.88253 0.47204 0.32727 0.0
O108 O 0.89659 0.47633 0.34732 0.0
O109 O 0.86472 0.47815 0.32436 0.0
O110 O 0.99966 0.35273 0.35303 0.0
Cd111 Cd 0.96385 0.3375 0.32039 0.0
O112 O 0.01005 0.32454 0.34264 0.0
Cd113 Cd 0.03041 0.30255 0.34143 0.0
O114 O 0.0353 0.27071 0.33223 0.0
C115 C 0.03202 0.26254 0.31184 0.0
O116 O 0.02726 0.27422 0.29728 0.0
C117 C 0.01448 0.34291 0.35645 0.0
C118 C 0.9675 0.36374 0.29019 0.0
O119 O 0.95979 0.36863 0.3059 0.0
O120 O 0.973 0.34611 0.28843 0.0
O121 O 0.34954 0.95174 0.86653 0.0
Cd122 Cd 0.37543 0.98409 0.85986 0.0
O123 O 0.32021 0.96285 0.85372 0.0
Cd124 Cd 0.28422 0.96192 0.84164 0.0
O125 O 0.2503 0.96559 0.82895 0.0
C126 C 0.23517 0.95942 0.83806 0.0
O127 O 0.24015 0.95064 0.85512 0.0
C128 C 0.32794 0.94852 0.8616 0.0
C129 C 0.39071 0.96956 0.82576 0.0
O130 O 0.40226 0.97187 0.84631 0.0
O131 O 0.37217 0.97455 0.82138 0.0
O132 O 0.65881 0.76261 0.55702 0.0
Cd133 Cd 0.68549 0.75514 0.58801 0.0
O134 O 0.64477 0.7768 0.58067 0.0
Cd135 Cd 0.62072 0.79004 0.59177 0.0
O136 O 0.59881 0.79985 0.60903 0.0
C137 C 0.57793 0.79777 0.59847 0.0
O138 O 0.56952 0.79002 0.5766 0.0
C139 C 0.64459 0.77173 0.56074 0.0
C140 C 0.72858 0.78961 0.6066 0.0
O141 O 0.72472 0.77321 0.59034 0.0
O142 O 0.712 0.78973 0.61401 0.0
O143 O 0.1912 0.87971 0.33929 0.0
Cd144 Cd 0.18378 0.8551 0.36363 0.0
O145 O 0.16975 0.89739 0.34959 0.0
Cd146 Cd 0.15128 0.92122 0.34779 0.0
O147 O 0.13124 0.94359 0.34593 0.0
C148 C 0.13024 0.95489 0.3314 0.0
O149 O 0.14162 0.95309 0.31754 0.0
C150 C 0.18243 0.89503 0.338 0.0
C151 C 0.16114 0.81081 0.33859 0.0
O152 O 0.18342 0.81934 0.34647 0.0
O153 O 0.14956 0.82318 0.34277 0.0
O154 O 0.63782 0.36933 0.79897 0.0
Cd155 Cd 0.60966 0.35853 0.81769 0.0
O156 O 0.65909 0.40281 0.82121 0.0
Cd157 Cd 0.63226 0.40372 0.83568 0.0
O158 O 0.60557 0.41908 0.83309 0.0
C159 C 0.59964 0.42657 0.84907 0.0
O160 O 0.60915 0.42431 0.86914 0.0
C161 C 0.65566 0.38694 0.80489 0.0
C162 C 0.58698 0.31252 0.8001 0.0
O163 O 0.57803 0.32633 0.79225 0.0
O164 O 0.6061 0.32045 0.81683 0.0
O165 O 0.11976 0.03362 0.83712 0.0
Cd166 Cd 0.09592 0.03279 0.86101 0.0
O167 O 0.09114 0.00901 0.80823 0.0
Cd168 Cd 0.07309 0.99714 0.83048 0.0
O169 O 0.08286 0.97374 0.84904 0.0
C170 C 0.10404 0.98039 0.86176 0.0
O171 O 0.11723 0.00117 0.86485 0.0
C172 C 0.11189 0.02287 0.81664 0.0
C173 C 0.08872 0.07315 0.8718 0.0
O174 O 0.10632 0.06958 0.8841 0.0
O175 O 0.07459 0.05766 0.85434 0.0
O176 O 0.05873 0.57903 0.67429 0.0
Cd177 Cd 0.08513 0.56747 0.7019 0.0
O178 O 0.0292 0.56465 0.6848 0.0
Cd179 Cd 0.99391 0.55597 0.68644 0.0
O180 O 0.95785 0.54228 0.68519 0.0
C181 C 0.94117 0.53714 0.66674 0.0
O182 O 0.94593 0.54062 0.64878 0.0
C183 C 0.0374 0.57503 0.67196 0.0
C184 C 0.11164 0.54892 0.68236 0.0
O185 O 0.09246 0.53657 0.68337 0.0
O186 O 0.11845 0.57003 0.69086 0.0
O187 O 0.49755 0.01532 0.27716 0.0
Cd188 Cd 0.53816 0.01757 0.28979 0.0
O189 O 0.50283 0.04861 0.27062 0.0
Cd190 Cd 0.54078 0.05968 0.28228 0.0
O191 O 0.57417 0.08639 0.301 0.0
C192 C 0.57488 0.09864 0.31881 0.0
O193 O 0.55642 0.09373 0.32483 0.0
C194 C 0.48927 0.02991 0.27076 0.0
C195 C 0.541 0.98422 0.31234 0.0
O196 O 0.54429 0.00405 0.32291 0.0
O197 O 0.53704 0.98036 0.29123 0.0
O198 O 0.89242 0.85552 0.08854 0.0
Cd199 Cd 0.90281 0.89612 0.09597 0.0
O200 O 0.90744 0.85352 0.06187 0.0
Cd201 Cd 0.90334 0.88502 0.05715 0.0
O202 O 0.86838 0.88624 0.04462 0.0
C203 C 0.85434 0.86837 0.03004 0.0
O204 O 0.8627 0.85324 0.02328 0.0
C205 C 0.89861 0.84424 0.07495 0.0
C206 C 0.95115 0.91508 0.11547 0.0
O207 O 0.93835 0.91097 0.12752 0.0
O208 O 0.94104 0.91085 0.09429 0.0
O209 O 0.79566 0.11572 0.10661 0.0
Cd210 Cd 0.77056 0.0766 0.09024 0.0
O211 O 0.81499 0.11624 0.08326 0.0
Cd212 Cd 0.79388 0.0825 0.06244 0.0
O213 O 0.77545 0.05793 0.03016 0.0
C214 C 0.78729 0.05172 0.01926 0.0
O215 O 0.81009 0.05908 0.02853 0.0
C216 C 0.81168 0.12609 0.10005 0.0
C217 C 0.77078 0.05456 0.12423 0.0
O218 O 0.78503 0.05471 0.11365 0.0
O219 O 0.75615 0.0645 0.11844 0.0
O220 O 0.65192 0.99089 0.76936 0.0
Cd221 Cd 0.68171 0.97583 0.78698 0.0
O222 O 0.67455 0.02585 0.78607 0.0
Cd223 Cd 0.70012 0.01699 0.80996 0.0
O224 O 0.72086 0.01547 0.84263 0.0
C225 C 0.7109 0.00342 0.85332 0.0
O226 O 0.68873 0.99114 0.84372 0.0
C227 C 0.65554 0.01172 0.77201 0.0
C228 C 0.71585 0.98134 0.76701 0.0
O229 O 0.69736 0.96391 0.75938 0.0
O230 O 0.71827 0.99603 0.78414 0.0
O231 O 0.90878 0.06041 0.62964 0.0
Cd232 Cd 0.88559 0.0782 0.60654 0.0
O233 O 0.88015 0.0503 0.64239 0.0
Cd234 Cd 0.86223 0.03645 0.66416 0.0
O235 O 0.84014 0.02881 0.68436 0.0
C236 C 0.83162 0.0092 0.68644 0.0
O237 O 0.83656 0.99283 0.67647 0.0
C238 C 0.89999 0.05025 0.64223 0.0
C239 C 0.8625 0.05179 0.56273 0.0
O240 O 0.88223 0.06743 0.56815 0.0
O241 O 0.85367 0.04869 0.57802 0.0
O242 O 0.80204 0.94079 0.34551 0.0
Cd243 Cd 0.77112 0.92873 0.36086 0.0
O244 O 0.77979 0.95375 0.32228 0.0
Cd245 Cd 0.77318 0.96996 0.29485 0.0
O246 O 0.76829 0.98348 0.26544 0.0
C247 C 0.78534 0.99014 0.25875 0.0
O248 O 0.80545 0.98883 0.2698 0.0
C249 C 0.79925 0.95123 0.33035 0.0
C250 C 0.78647 0.95416 0.40489 0.0
O251 O 0.78838 0.93486 0.40053 0.0
O252 O 0.77684 0.96119 0.38846 0.0
O253 O 0.24875 0.00503 0.24557 0.0
Cd254 Cd 0.26167 0.03108 0.22423 0.0
O255 O 0.21298 0.99679 0.22308 0.0
Cd256 Cd 0.17519 0.98205 0.21302 0.0
O257 O 0.13736 0.97207 0.20064 0.0
C258 C 0.12578 0.95919 0.18118 0.0
O259 O 0.13692 0.95178 0.16919 0.0
C260 C 0.22712 0.9943 0.24004 0.0
C261 C 0.30024 0.02884 0.21313 0.0
O262 O 0.30252 0.03935 0.23265 0.0
O263 O 0.27958 0.01879 0.19892 0.0
O264 O 0.61116 0.7989 0.98213 0.0
Cd265 Cd 0.63989 0.7868 0.00593 0.0
O266 O 0.61253 0.82213 0.01145 0.0
Cd267 Cd 0.60254 0.84642 0.03044 0.0
O268 O 0.59621 0.87197 0.0517 0.0
C269 C 0.60144 0.89181 0.04939 0.0
O270 O 0.61029 0.89648 0.03387 0.0
C271 C 0.60433 0.8138 0.99037 0.0
C272 C 0.68455 0.8101 0.00745 0.0
O273 O 0.67123 0.79251 0.99175 0.0
O274 O 0.67674 0.8167 0.02252 0.0
O275 O 0.24357 0.79335 0.89167 0.0
Cd276 Cd 0.22887 0.76128 0.90606 0.0
O277 O 0.21755 0.8068 0.8982 0.0
Cd278 Cd 0.19914 0.83069 0.89733 0.0
O279 O 0.17975 0.85365 0.89425 0.0
C280 C 0.18917 0.87292 0.89188 0.0
O281 O 0.21049 0.8786 0.89149 0.0
C282 C 0.2349 0.80879 0.89172 0.0
C283 C 0.18795 0.72772 0.87679 0.0
O284 O 0.18735 0.7444 0.88997 0.0
O285 O 0.20793 0.72717 0.8771 0.0
O286 O 0.15884 0.41181 0.51286 0.0
Cd287 Cd 0.18994 0.43198 0.54874 0.0
O288 O 0.16213 0.44267 0.50155 0.0
Cd289 Cd 0.18178 0.46433 0.53533 0.0
O290 O 0.18143 0.48508 0.56534 0.0
C291 C 0.18009 0.47748 0.58217 0.0
O292 O 0.1808 0.45734 0.58219 0.0
C293 C 0.15333 0.42149 0.49747 0.0
C294 C 0.23099 0.42501 0.54853 0.0
O295 O 0.21698 0.41264 0.55616 0.0
O296 O 0.22576 0.44095 0.54129 0.0
O297 O 0.72262 0.43629 0.68165 0.0
Cd298 Cd 0.7268 0.44693 0.6479 0.0
O299 O 0.71362 0.40021 0.66834 0.0
Cd300 Cd 0.70391 0.40413 0.63427 0.0
O301 O 0.67135 0.4037 0.61082 0.0
C302 C 0.66224 0.41696 0.61824 0.0
O303 O 0.67378 0.43089 0.63813 0.0
C304 C 0.71865 0.41673 0.68467 0.0
C305 C 0.77377 0.46424 0.6529 0.0
O306 O 0.76392 0.47621 0.66144 0.0
O307 O 0.76142 0.44403 0.64175 0.0
O308 O 0.03172 0.31623 0.9306 0.0
Cd309 Cd 0.00381 0.31693 0.89593 0.0
O310 O 0.03351 0.28638 0.91093 0.0
Cd311 Cd 0.04301 0.25644 0.90565 0.0
O312 O 0.05084 0.22599 0.89753 0.0
C313 C 0.0593 0.21724 0.91273 0.0
O314 O 0.06351 0.22681 0.93372 0.0
C315 C 0.03985 0.30043 0.92966 0.0
C316 C 0.01448 0.357 0.88313 0.0
O317 O 0.00219 0.35356 0.89573 0.0
O318 O 0.02219 0.34168 0.87702 0.0
O319 O 0.52673 0.81362 0.43076 0.0
Cd320 Cd 0.49845 0.81648 0.39761 0.0
O321 O 0.52987 0.78589 0.40903 0.0
Cd322 Cd 0.54143 0.7575 0.4023 0.0
O323 O 0.55331 0.72931 0.39622 0.0
C324 C 0.53898 0.70939 0.39049 0.0
O325 O 0.51712 0.70614 0.38831 0.0
C326 C 0.53569 0.79858 0.42842 0.0
C327 C 0.51397 0.85489 0.38329 0.0
O328 O 0.50322 0.85465 0.39734 0.0
O329 O 0.51773 0.83708 0.37631 0.0
O330 O 0.4318 0.52912 0.81203 0.0
Cd331 Cd 0.47147 0.54883 0.81418 0.0
O332 O 0.41522 0.53755 0.78118 0.0
Cd333 Cd 0.44755 0.56272 0.78351 0.0
O334 O 0.46702 0.59854 0.79226 0.0
C335 C 0.47296 0.60924 0.81249 0.0
O336 O 0.46882 0.59801 0.82713 0.0
C337 C 0.41354 0.52717 0.79621 0.0
C338 C 0.49834 0.52165 0.82239 0.0
O339 O 0.4861 0.52057 0.80242 0.0
O340 O 0.49809 0.5358 0.83854 0.0
O341 O 0.91717 0.29646 0.1933 0.0
Cd342 Cd 0.94422 0.33499 0.21012 0.0
O343 O 0.9013 0.30395 0.16161 0.0
Cd344 Cd 0.91488 0.3396 0.17776 0.0
O345 O 0.9158 0.36852 0.20091 0.0
C346 C 0.89641 0.36771 0.203 0.0
O347 O 0.87772 0.3504 0.19078 0.0
C348 C 0.90366 0.28977 0.17297 0.0
C349 C 0.97946 0.34035 0.19172 0.0
O350 O 0.98123 0.33371 0.20968 0.0
O351 O 0.96141 0.34524 0.18292 0.0
O352 O 0.07674 0.58664 0.21858 0.0
Cd353 Cd 0.05653 0.61229 0.20771 0.0
O354 O 0.04342 0.55879 0.20298 0.0
Cd355 Cd 0.02248 0.52383 0.19756 0.0
O356 O 0.00536 0.49302 0.20522 0.0
C357 C 0.01454 0.47801 0.20681 0.0
O358 O 0.03394 0.48069 0.20257 0.0
C359 C 0.06524 0.56584 0.2135 0.0
C360 C 0.0791 0.65488 0.2368 0.0
O361 O 0.06288 0.64026 0.24018 0.0
O362 O 0.08457 0.64933 0.21965 0.0
O363 O 0.00808 0.96937 0.73452 0.0
Cd364 Cd 0.02277 0.9418 0.74983 0.0
O365 O 0.97429 0.94507 0.73015 0.0
Cd366 Cd 0.93629 0.93037 0.71678 0.0
O367 O 0.89936 0.91029 0.70119 0.0
C368 C 0.88989 0.90518 0.68003 0.0
O369 O 0.90249 0.91271 0.66804 0.0
C370 C 0.98604 0.96363 0.72792 0.0
C371 C 0.07092 0.95428 0.76942 0.0
O372 O 0.06067 0.94563 0.74831 0.0
O373 O 0.05845 0.95766 0.78114 0.0
O374 O 0.95268 0.64437 0.54466 0.0
Cd375 Cd 0.93085 0.66078 0.51838 0.0
O376 O 0.92038 0.6249 0.54857 0.0
Cd377 Cd 0.90186 0.60463 0.56637 0.0
O378 O 0.88303 0.59098 0.58744 0.0
C379 C 0.89286 0.58556 0.6048 0.0
O380 O 0.91492 0.58761 0.60996 0.0
C381 C 0.94233 0.63061 0.55376 0.0
C382 C 0.90119 0.6311 0.47729 0.0
O383 O 0.92244 0.64214 0.48029 0.0
O384 O 0.89408 0.63379 0.49388 0.0
O385 O 0.78174 0.4622 0.76853 0.0
Cd386 Cd 0.7467 0.4596 0.77751 0.0
O387 O 0.78049 0.49213 0.75673 0.0
Cd388 Cd 0.79576 0.52118 0.74535 0.0
O389 O 0.81456 0.53976 0.72676 0.0
C390 C 0.80385 0.53679 0.70607 0.0
O391 O 0.7818 0.52395 0.69736 0.0
C392 C 0.79047 0.47791 0.76044 0.0
C393 C 0.75772 0.48975 0.81811 0.0
O394 O 0.75805 0.46988 0.8174 0.0
O395 O 0.75186 0.4952 0.79956 0.0
O396 O 0.81655 0.66729 0.03207 0.0
Cd397 Cd 0.7952 0.6273 0.01529 0.0
O398 O 0.85005 0.66516 0.03115 0.0
Cd399 Cd 0.83414 0.63016 0.01237 0.0
O400 O 0.81802 0.60191 0.98285 0.0
C401 C 0.8195 0.6066 0.96477 0.0
O402 O 0.83041 0.62742 0.96532 0.0
C403 C 0.83828 0.67667 0.03639 0.0
C404 C 0.78508 0.6048 0.04683 0.0
O405 O 0.80431 0.60758 0.04323 0.0
O406 O 0.77063 0.61267 0.03549 0.0
O407 O 0.7162 0.50041 0.20643 0.0
Cd408 Cd 0.73964 0.49001 0.18541 0.0
O409 O 0.74677 0.51236 0.23712 0.0
Cd410 Cd 0.76675 0.52906 0.27252 0.0
O411 O 0.79022 0.54763 0.30649 0.0
C412 C 0.78904 0.53995 0.3233 0.0
O413 O 0.77316 0.52048 0.32019 0.0
C414 C 0.72528 0.5089 0.22744 0.0
C415 C 0.74838 0.51697 0.15668 0.0
O416 O 0.72999 0.49952 0.15026 0.0
O417 O 0.76253 0.52179 0.17678 0.0
O418 O 0.48038 0.87369 0.88841 0.0
Cd419 Cd 0.44936 0.88129 0.86208 0.0
O420 O 0.47406 0.84368 0.863 0.0
Cd421 Cd 0.478 0.81179 0.85113 0.0
O422 O 0.48019 0.77885 0.8406 0.0
C423 C 0.49452 0.77219 0.8535 0.0
O424 O 0.50826 0.7855 0.87323 0.0
C425 C 0.48541 0.85656 0.88255 0.0
C426 C 0.46585 0.90668 0.83506 0.0
O427 O 0.46585 0.91602 0.85409 0.0
O428 O 0.45807 0.88525 0.82878 0.0
O429 O 0.62883 0.54184 0.33322 0.0
Cd430 Cd 0.60554 0.54026 0.35766 0.0
O431 O 0.60008 0.51684 0.30472 0.0
Cd432 Cd 0.58286 0.5046 0.3274 0.0
O433 O 0.59318 0.48243 0.34747 0.0
C434 C 0.61475 0.48916 0.35897 0.0
O435 O 0.62804 0.50913 0.35956 0.0
C436 C 0.6207 0.53099 0.31276 0.0
C437 C 0.59174 0.57736 0.36376 0.0
O438 O 0.61098 0.57726 0.37691 0.0
O439 O 0.57909 0.55994 0.34762 0.0
O440 O 0.55575 0.0677 0.158 0.0
Cd441 Cd 0.57636 0.04775 0.18054 0.0
O442 O 0.52759 0.05798 0.17143 0.0
Cd443 Cd 0.49361 0.05362 0.17498 0.0
O444 O 0.46164 0.04708 0.1829 0.0
C445 C 0.44497 0.05273 0.17239 0.0
O446 O 0.44708 0.06278 0.15645 0.0
C447 C 0.53613 0.06801 0.15859 0.0
C448 C 0.58217 0.01363 0.15303 0.0
O449 O 0.56411 0.01004 0.15882 0.0
O450 O 0.59758 0.03332 0.16044 0.0
O451 O 0.96681 0.50581 0.77244 0.0
Cd452 Cd 0.00909 0.51574 0.7868 0.0
O453 O 0.96491 0.53629 0.76186 0.0
Cd454 Cd 0.00269 0.55288 0.7735 0.0
O455 O 0.03726 0.57878 0.78877 0.0
C456 C 0.03865 0.59874 0.78828 0.0
O457 O 0.01962 0.60255 0.7783 0.0
C458 C 0.95479 0.51699 0.7638 0.0
C459 C 0.01891 0.48498 0.81073 0.0
O460 O 0.01806 0.50341 0.82053 0.0
O461 O 0.0158 0.48142 0.78977 0.0
O462 O 0.421 0.33727 0.53479 0.0
Cd463 Cd 0.44176 0.37653 0.53781 0.0
O464 O 0.39135 0.33557 0.5062 0.0
Cd465 Cd 0.4001 0.37169 0.51185 0.0
O466 O 0.37879 0.3903 0.52069 0.0
C467 C 0.36036 0.37735 0.52216 0.0
O468 O 0.35688 0.35582 0.51848 0.0
C469 C 0.40164 0.32592 0.51933 0.0
C470 C 0.49003 0.38718 0.55336 0.0
O471 O 0.47901 0.38915 0.56692 0.0
O472 O 0.4782 0.38015 0.53236 0.0
O473 O 0.26393 0.61263 0.5874 0.0
Cd474 Cd 0.23357 0.57569 0.5708 0.0
O475 O 0.24125 0.62999 0.57152 0.0
Cd476 Cd 0.21569 0.59912 0.54779 0.0
O477 O 0.20196 0.57634 0.51447 0.0
C478 C 0.21681 0.57675 0.50481 0.0
O479 O 0.23857 0.58978 0.51569 0.0
C480 C 0.26048 0.63074 0.58506 0.0
C481 C 0.22896 0.55392 0.60437 0.0
O482 O 0.24173 0.55044 0.59304 0.0
O483 O 0.21807 0.5674 0.59958 0.0
O484 O 0.15203 0.44741 0.22982 0.0
Cd485 Cd 0.17723 0.42494 0.2331 0.0
O486 O 0.17003 0.46449 0.26542 0.0
Cd487 Cd 0.17523 0.48749 0.29663 0.0
O488 O 0.18192 0.50602 0.33057 0.0
C489 C 0.17216 0.49642 0.3429 0.0
O490 O 0.15782 0.4756 0.33471 0.0
C491 C 0.15471 0.46216 0.24679 0.0
C492 C 0.21457 0.44312 0.21924 0.0
O493 O 0.19539 0.42858 0.20538 0.0
O494 O 0.21615 0.44895 0.23971 0.0
O495 O 0.42797 0.57609 0.12284 0.0
Cd496 Cd 0.41222 0.59732 0.09813 0.0
O497 O 0.39377 0.56098 0.12546 0.0
Cd498 Cd 0.36879 0.54103 0.1383 0.0
O499 O 0.34121 0.52304 0.14942 0.0
C500 C 0.34581 0.51662 0.16734 0.0
O501 O 0.36766 0.52072 0.17928 0.0
C502 C 0.41509 0.56284 0.13053 0.0
C503 C 0.37908 0.56962 0.05751 0.0
O504 O 0.40087 0.57604 0.06042 0.0
O505 O 0.37291 0.57626 0.07385 0.0
O506 O 0.266 0.46009 0.83977 0.0
Cd507 Cd 0.23926 0.45429 0.86061 0.0
O508 O 0.24485 0.47135 0.81366 0.0
Cd509 Cd 0.23771 0.48325 0.78316 0.0
O510 O 0.23416 0.49726 0.75403 0.0
C511 C 0.2274 0.48471 0.73442 0.0
O512 O 0.22229 0.46303 0.73178 0.0
C513 C 0.26341 0.46747 0.82238 0.0
C514 C 0.26498 0.4768 0.90539 0.0
O515 O 0.26328 0.45664 0.89762 0.0
O516 O 0.25398 0.48612 0.89215 0.0
O517 O 0.7584 0.31032 0.41916 0.0
Cd518 Cd 0.74433 0.28032 0.43623 0.0
O519 O 0.72854 0.32081 0.41846 0.0
Cd520 Cd 0.70828 0.3431 0.41488 0.0
O521 O 0.68853 0.36545 0.40841 0.0
C522 C 0.69867 0.38441 0.40585 0.0
O523 O 0.72067 0.39 0.40761 0.0
C524 C 0.74759 0.32376 0.41475 0.0
C525 C 0.70833 0.24216 0.40701 0.0
O526 O 0.70409 0.25869 0.41649 0.0
O527 O 0.72968 0.24389 0.41096 0.0
H528 H 0.02254 0.23919 0.26913 0.0
H529 H 0.03786 0.23285 0.33712 0.0
H530 H 0.01514 0.19941 0.25588 0.0
H531 H 0.03004 0.19306 0.32383 0.0
H532 H 0.02584 0.12344 0.29568 0.0
H533 H 0.04185 0.16425 0.30623 0.0
H534 H 0.98379 0.16579 0.25286 0.0
H535 H 0.96805 0.12514 0.24208 0.0
C536 C 0.02459 0.22938 0.28128 0.0
C537 C 0.03053 0.23915 0.30416 0.0
C538 C 0.02024 0.20656 0.27367 0.0
C539 C 0.02178 0.19301 0.28876 0.0
C540 C 0.0289 0.20303 0.31176 0.0
C541 C 0.03324 0.22585 0.31937 0.0
C542 C 0.01671 0.13249 0.28595 0.0
C543 C 0.99553 0.12103 0.26817 0.0
C544 C 0.02582 0.15587 0.29209 0.0
C545 C 0.014 0.16829 0.28052 0.0
C546 C 0.99348 0.15678 0.26201 0.0
C547 C 0.98435 0.13342 0.25591 0.0
H548 H 0.40823 0.91833 0.70011 0.0
H549 H 0.42432 0.87631 0.74393 0.0
H550 H 0.40572 0.94379 0.73077 0.0
H551 H 0.421 0.90121 0.77416 0.0
H552 H 0.42853 0.95657 0.82969 0.0
H553 H 0.43802 0.93782 0.79972 0.0
H554 H 0.37837 0.9422 0.75076 0.0
H555 H 0.369 0.96129 0.78064 0.0
C556 C 0.41142 0.91461 0.7163 0.0
C557 C 0.41628 0.89518 0.7195 0.0
C558 C 0.40982 0.92912 0.73382 0.0
C559 C 0.41304 0.92448 0.75489 0.0
C560 C 0.41877 0.90549 0.75826 0.0
C561 C 0.42051 0.8911 0.74084 0.0
C562 C 0.4176 0.95381 0.81253 0.0
C563 C 0.39787 0.96025 0.80756 0.0
C564 C 0.42303 0.943 0.79537 0.0
C565 C 0.40892 0.93839 0.77288 0.0
C566 C 0.38976 0.94569 0.76788 0.0
C567 C 0.38429 0.9565 0.78504 0.0
H568 H 0.48615 0.95206 0.84507 0.0
H569 H 0.46407 0.89209 0.79221 0.0
H570 H 0.49743 0.97473 0.82047 0.0
H571 H 0.47566 0.91485 0.76767 0.0
H572 H 0.47002 0.96592 0.72433 0.0
H573 H 0.46186 0.94139 0.74852 0.0
H574 H 0.52604 0.98338 0.80137 0.0
H575 H 0.53424 0.00796 0.77731 0.0
C576 C 0.48394 0.9437 0.82829 0.0
C577 C 0.47411 0.92028 0.82056 0.0
C578 C 0.49052 0.95669 0.81422 0.0
C579 C 0.4874 0.94657 0.79212 0.0
C580 C 0.47806 0.92313 0.78455 0.0
C581 C 0.47155 0.9101 0.79865 0.0
C582 C 0.48248 0.96984 0.74105 0.0
C583 C 0.50271 0.98899 0.74894 0.0
C584 C 0.47783 0.95572 0.75486 0.0
C585 C 0.4932 0.96056 0.7769 0.0
C586 C 0.5137 0.9794 0.78458 0.0
C587 C 0.51844 0.99342 0.77073 0.0
H588 H 0.7181 0.50388 0.34645 0.0
H589 H 0.70639 0.44733 0.29356 0.0
H590 H 0.67832 0.50256 0.32897 0.0
H591 H 0.66661 0.44576 0.27638 0.0
H592 H 0.60155 0.45861 0.24093 0.0
H593 H 0.64302 0.46494 0.25705 0.0
H594 H 0.63935 0.47828 0.32344 0.0
H595 H 0.59804 0.47227 0.30729 0.0
C596 C 0.70706 0.49118 0.3311 0.0
C597 C 0.71536 0.47558 0.32151 0.0
C598 C 0.68424 0.49038 0.32114 0.0
C599 C 0.66924 0.47399 0.30134 0.0
C600 C 0.67776 0.45877 0.29148 0.0
C601 C 0.70054 0.45955 0.30144 0.0
C602 C 0.60963 0.46298 0.25896 0.0
C603 C 0.59652 0.46495 0.27286 0.0
C604 C 0.63337 0.46651 0.2682 0.0
C605 C 0.64449 0.472 0.29153 0.0
C606 C 0.63144 0.47439 0.30542 0.0
C607 C 0.60772 0.47085 0.29617 0.0
H608 H 0.05743 0.04617 0.35656 0.0
H609 H 0.03275 0.02189 0.28457 0.0
H610 H 0.0834 0.02459 0.35998 0.0
H611 H 0.05841 1e-05 0.28804 0.0
H612 H 0.12352 0.9806 0.30179 0.0
H613 H 0.09955 0.00418 0.29893 0.0
H614 H 0.08048 0.9855 0.35436 0.0
H615 H 0.10472 0.96226 0.3575 0.0
C616 C 0.05754 0.03624 0.34147 0.0
C617 C 0.04299 0.03572 0.3203 0.0
C618 C 0.07233 0.02377 0.34344 0.0
C619 C 0.07293 0.01053 0.32429 0.0
C620 C 0.05857 0.01024 0.30311 0.0
C621 C 0.04376 0.02268 0.30113 0.0
C622 C 0.11428 0.98158 0.31342 0.0
C623 C 0.11602 0.96952 0.32986 0.0
C624 C 0.10044 0.995 0.3117 0.0
C625 C 0.08809 0.9967 0.3264 0.0
C626 C 0.09001 0.98479 0.34296 0.0
C627 C 0.1038 0.97135 0.34466 0.0
H628 H 0.58976 0.81324 0.64367 0.0
H629 H 0.53221 0.79399 0.58131 0.0
H630 H 0.56472 0.82021 0.66416 0.0
H631 H 0.50707 0.80059 0.60187 0.0
H632 H 0.47355 0.83336 0.6445 0.0
H633 H 0.50039 0.83013 0.62481 0.0
H634 H 0.53195 0.7983 0.67291 0.0
H635 H 0.50544 0.80187 0.69279 0.0
C636 C 0.57178 0.81053 0.63431 0.0
C637 C 0.56297 0.80297 0.61084 0.0
C638 C 0.55739 0.81442 0.64608 0.0
C639 C 0.53387 0.81086 0.63467 0.0
C640 C 0.52518 0.80373 0.61116 0.0
C641 C 0.53956 0.79982 0.59938 0.0
C642 C 0.48633 0.82582 0.65096 0.0
C643 C 0.48733 0.81784 0.6702 0.0
C644 C 0.50161 0.82384 0.6396 0.0
C645 C 0.51827 0.81389 0.64724 0.0
C646 C 0.51952 0.80629 0.66672 0.0
C647 C 0.50423 0.80823 0.67806 0.0
H648 H 0.56692 0.18781 0.71564 0.0
H649 H 0.50412 0.17137 0.73206 0.0
H650 H 0.58071 0.22543 0.74006 0.0
H651 H 0.51785 0.20931 0.75623 0.0
H652 H 0.54302 0.28929 0.77011 0.0
H653 H 0.52752 0.25003 0.74891 0.0
H654 H 0.59218 0.24206 0.78337 0.0
H655 H 0.6076 0.2811 0.80484 0.0
C656 C 0.55604 0.19226 0.72441 0.0
C657 C 0.53444 0.17666 0.72193 0.0
C658 C 0.564 0.21372 0.73848 0.0
C659 C 0.55035 0.22017 0.75005 0.0
C660 C 0.52865 0.2047 0.74744 0.0
C661 C 0.52086 0.18304 0.73368 0.0
C662 C 0.55379 0.27906 0.77339 0.0
C663 C 0.57655 0.28829 0.78908 0.0
C664 C 0.54489 0.25662 0.76132 0.0
C665 C 0.55875 0.24316 0.76444 0.0
C666 C 0.58124 0.25219 0.78056 0.0
C667 C 0.58998 0.27448 0.79291 0.0
H668 H 0.35575 0.4056 0.16998 0.0
H669 H 0.3774 0.34791 0.16783 0.0
H670 H 0.31513 0.38097 0.1529 0.0
H671 H 0.33685 0.32336 0.15121 0.0
H672 H 0.26348 0.28624 0.10164 0.0
H673 H 0.30371 0.31183 0.1168 0.0
H674 H 0.2858 0.3544 0.16224 0.0
H675 H 0.24545 0.32904 0.14676 0.0
C676 C 0.35185 0.38768 0.1659 0.0
C677 C 0.36982 0.37872 0.17028 0.0
C678 C 0.32856 0.37357 0.15622 0.0
C679 C 0.32274 0.3502 0.15069 0.0
C680 C 0.34074 0.34128 0.15497 0.0
C681 C 0.364 0.35537 0.16463 0.0
C682 C 0.26809 0.3011 0.11481 0.0
C683 C 0.25127 0.30557 0.12303 0.0
C684 C 0.29119 0.31571 0.12358 0.0
C685 C 0.298 0.33511 0.1408 0.0
C686 C 0.28109 0.33973 0.14881 0.0
C687 C 0.25798 0.32512 0.14003 0.0
H688 H 0.39809 0.15239 0.14626 0.0
H689 H 0.43942 0.1102 0.16 0.0
H690 H 0.38164 0.14245 0.17458 0.0
H691 H 0.42281 0.10015 0.18828 0.0
H692 H 0.33602 0.0988 0.20534 0.0
H693 H 0.35484 0.11078 0.17923 0.0
H694 H 0.42056 0.11283 0.22414 0.0
H695 H 0.40148 0.1001 0.25003 0.0
C696 C 0.40368 0.14099 0.15533 0.0
C697 C 0.41992 0.13194 0.15073 0.0
C698 C 0.39412 0.13517 0.17148 0.0
C699 C 0.40058 0.12018 0.18345 0.0
C700 C 0.41738 0.11167 0.17933 0.0
C701 C 0.42686 0.1174 0.16306 0.0
C702 C 0.35453 0.102 0.20978 0.0
C703 C 0.36729 0.09873 0.22988 0.0
C704 C 0.36536 0.10897 0.19482 0.0
C705 C 0.38928 0.11298 0.19964 0.0
C706 C 0.40208 0.10975 0.2198 0.0
C707 C 0.39119 0.10266 0.23475 0.0
H708 H 0.32323 0.09474 0.46057 0.0
H709 H 0.27678 0.12217 0.42041 0.0
H710 H 0.32183 0.07085 0.42663 0.0
H711 H 0.27502 0.09799 0.38657 0.0
H712 H 0.29405 0.06687 0.32966 0.0
H713 H 0.29846 0.0922 0.36406 0.0
H714 H 0.29419 0.03835 0.3969 0.0
H715 H 0.29028 0.01313 0.36263 0.0
C716 C 0.31273 0.09569 0.44452 0.0
C717 C 0.30009 0.11034 0.44321 0.0
C718 C 0.31183 0.08191 0.42507 0.0
C719 C 0.29827 0.08247 0.40389 0.0
C720 C 0.28587 0.09734 0.4026 0.0
C721 C 0.28678 0.11112 0.42203 0.0
C722 C 0.29416 0.06046 0.34424 0.0
C723 C 0.29178 0.03798 0.34341 0.0
C724 C 0.29656 0.07495 0.36393 0.0
C725 C 0.29662 0.06729 0.38321 0.0
C726 C 0.29452 0.04486 0.38243 0.0
C727 C 0.29214 0.03037 0.36275 0.0
H728 H 0.25905 0.14941 0.62282 0.0
H729 H 0.25062 0.10013 0.56466 0.0
H730 H 0.2589 0.1217 0.64461 0.0
H731 H 0.25089 0.07253 0.5866 0.0
H732 H 0.2218 0.0236 0.62507 0.0
H733 H 0.22507 0.05148 0.60348 0.0
H734 H 0.28127 0.09945 0.66059 0.0
H735 H 0.27773 0.07166 0.68235 0.0
C736 C 0.25741 0.13273 0.61474 0.0
C737 C 0.25472 0.12695 0.59197 0.0
C738 C 0.25745 0.11688 0.62727 0.0
C739 C 0.25479 0.09488 0.61732 0.0
C740 C 0.25264 0.08924 0.59467 0.0
C741 C 0.25262 0.10511 0.58214 0.0
C742 C 0.23492 0.04007 0.63301 0.0
C743 C 0.24945 0.04543 0.65546 0.0
C744 C 0.23689 0.05601 0.62058 0.0
C745 C 0.25344 0.0777 0.63031 0.0
C746 C 0.26817 0.08298 0.65269 0.0
C747 C 0.26621 0.06702 0.66512 0.0
H748 H 0.29611 0.08555 0.85109 0.0
H749 H 0.34613 0.05466 0.84334 0.0
H750 H 0.32269 0.10726 0.88855 0.0
H751 H 0.37249 0.07607 0.8809 0.0
H752 H 0.4237 0.137 0.93785 0.0
H753 H 0.39679 0.11476 0.90074 0.0
H754 H 0.33974 0.1027 0.92593 0.0
H755 H 0.3666 0.12527 0.96301 0.0
C756 C 0.31271 0.08329 0.85741 0.0
C757 C 0.31902 0.06841 0.84418 0.0
C758 C 0.32789 0.09565 0.87893 0.0
C759 C 0.34973 0.09343 0.8877 0.0
C760 C 0.35593 0.07841 0.87453 0.0
C761 C 0.34075 0.06603 0.85303 0.0
C762 C 0.40543 0.12959 0.9355 0.0
C763 C 0.3973 0.13292 0.9534 0.0
C764 C 0.39001 0.11673 0.91424 0.0
C765 C 0.36611 0.10693 0.91038 0.0
C766 C 0.358 0.11023 0.9283 0.0
C767 C 0.37342 0.12306 0.94957 0.0
H768 H 0.93185 0.40427 0.23263 0.0
H769 H 0.85761 0.37038 0.21139 0.0
H770 H 0.92975 0.43178 0.26191 0.0
H771 H 0.85544 0.39755 0.24061 0.0
H772 H 0.85535 0.45978 0.28309 0.0
H773 H 0.85968 0.43674 0.252 0.0
H774 H 0.92193 0.43244 0.29714 0.0
H775 H 0.91785 0.45582 0.32819 0.0
C776 C 0.91512 0.40278 0.2342 0.0
C777 C 0.89498 0.38514 0.21982 0.0
C778 C 0.91389 0.41845 0.25098 0.0
C779 C 0.89242 0.41684 0.2536 0.0
C780 C 0.87221 0.39945 0.23886 0.0
C781 C 0.87348 0.38378 0.22218 0.0
C782 C 0.87009 0.45411 0.28636 0.0
C783 C 0.88617 0.45951 0.30815 0.0
C784 C 0.8725 0.4408 0.26856 0.0
C785 C 0.89104 0.43261 0.27212 0.0
C786 C 0.90756 0.43864 0.29379 0.0
C787 C 0.90514 0.45194 0.31161 0.0
H788 H 0.9782 0.3557 0.25225 0.0
H789 H 0.96522 0.40568 0.29463 0.0
H790 H 0.98685 0.3815 0.22929 0.0
H791 H 0.97484 0.43172 0.27238 0.0
H792 H 0.97589 0.46872 0.21895 0.0
H793 H 0.96203 0.43959 0.23669 0.0
H794 H 0.01758 0.41531 0.23274 0.0
H795 H 0.03128 0.44433 0.21471 0.0
C796 C 0.97715 0.37217 0.25663 0.0
C797 C 0.9711 0.37868 0.27529 0.0
C798 C 0.98225 0.387 0.24357 0.0
C799 C 0.98167 0.40873 0.24905 0.0
C800 C 0.97519 0.41504 0.26749 0.0
C801 C 0.96976 0.40012 0.28033 0.0
C802 C 0.98499 0.45702 0.22162 0.0
C803 C 0.00479 0.45895 0.21554 0.0
C804 C 0.97709 0.44034 0.23189 0.0
C805 C 0.98874 0.42515 0.23627 0.0
C806 C 0.00803 0.42658 0.22942 0.0
C807 C 0.01597 0.4433 0.21918 0.0
H808 H 0.10248 0.95157 0.74895 0.0
H809 H 0.09635 0.96727 0.814 0.0
H810 H 0.14305 0.95555 0.76667 0.0
H811 H 0.13714 0.9719 0.83181 0.0
H812 H 0.19769 0.94435 0.85105 0.0
H813 H 0.15906 0.94644 0.8355 0.0
H814 H 0.18181 0.98186 0.78968 0.0
H815 H 0.22038 0.97953 0.80509 0.0
C816 C 0.10987 0.95617 0.76705 0.0
C817 C 0.09615 0.95895 0.78011 0.0
C818 C 0.1332 0.95864 0.77721 0.0
C819 C 0.1433 0.96394 0.80065 0.0
C820 C 0.12979 0.9675 0.81371 0.0
C821 C 0.10646 0.965 0.80353 0.0
C822 C 0.1945 0.95276 0.83782 0.0
C823 C 0.21206 0.96166 0.82925 0.0
C824 C 0.1724 0.95408 0.82896 0.0
C825 C 0.16734 0.96428 0.81128 0.0
C826 C 0.18507 0.97364 0.80307 0.0
C827 C 0.20718 0.97234 0.81195 0.0
H828 H 0.11433 0.78729 0.32134 0.0
H829 H 0.18085 0.78164 0.32427 0.0
H830 H 0.09457 0.74936 0.2972 0.0
H831 H 0.16107 0.74366 0.30032 0.0
H832 H 0.11604 0.68828 0.23567 0.0
H833 H 0.13582 0.72564 0.2609 0.0
H834 H 0.08949 0.71001 0.29822 0.0
H835 H 0.06949 0.67265 0.27284 0.0
C836 C 0.12474 0.77792 0.31694 0.0
C837 C 0.14916 0.7875 0.32467 0.0
C838 C 0.11342 0.75615 0.30321 0.0
C839 C 0.12627 0.74356 0.29681 0.0
C840 C 0.15069 0.75306 0.30474 0.0
C841 C 0.16201 0.77477 0.31856 0.0
C842 C 0.11006 0.69279 0.24925 0.0
C843 C 0.09118 0.6775 0.25224 0.0
C844 C 0.12149 0.71415 0.26379 0.0
C845 C 0.11424 0.72074 0.28157 0.0
C846 C 0.09533 0.70547 0.28455 0.0
C847 C 0.08397 0.68404 0.27007 0.0
H848 H 0.53135 0.52432 0.86157 0.0
H849 H 0.49664 0.48559 0.79281 0.0
H850 H 0.55494 0.50061 0.86814 0.0
H851 H 0.5195 0.46137 0.79955 0.0
H852 H 0.58265 0.43963 0.81142 0.0
H853 H 0.55791 0.46209 0.80547 0.0
H854 H 0.55449 0.46421 0.87174 0.0
H855 H 0.58011 0.44229 0.87801 0.0
C856 C 0.52862 0.51062 0.84791 0.0
C857 C 0.51225 0.50694 0.82663 0.0
C858 C 0.54202 0.4969 0.85172 0.0
C859 C 0.53921 0.47906 0.83437 0.0
C860 C 0.52249 0.47519 0.8132 0.0
C861 C 0.50928 0.48902 0.80935 0.0
C862 C 0.57655 0.44477 0.82472 0.0
C863 C 0.5834 0.43917 0.84522 0.0
C864 C 0.5622 0.45758 0.82125 0.0
C865 C 0.5541 0.46497 0.83809 0.0
C866 C 0.56067 0.45909 0.85851 0.0
C867 C 0.57523 0.44639 0.86206 0.0
H868 H 0.14726 0.98983 0.89197 0.0
H869 H 0.08566 0.93462 0.84863 0.0
H870 H 0.16733 0.9638 0.90111 0.0
H871 H 0.10597 0.90856 0.85733 0.0
H872 H 0.14447 0.86607 0.8907 0.0
H873 H 0.12314 0.89193 0.88586 0.0
H874 H 0.18325 0.941 0.88205 0.0
H875 H 0.20462 0.91535 0.88708 0.0
C876 C 0.13792 0.9721 0.88456 0.0
C877 C 0.11488 0.96429 0.86957 0.0
C878 C 0.1495 0.95718 0.88965 0.0
C879 C 0.13836 0.9341 0.87975 0.0
C880 C 0.11499 0.92621 0.86542 0.0
C881 C 0.10335 0.94115 0.86041 0.0
C882 C 0.15314 0.88241 0.88887 0.0
C883 C 0.17625 0.88864 0.88926 0.0
C884 C 0.14087 0.89718 0.88599 0.0
C885 C 0.15147 0.91853 0.88352 0.0
C886 C 0.17464 0.92478 0.88412 0.0
C887 C 0.18687 0.91001 0.88691 0.0
H888 H 0.17569 0.46604 0.62028 0.0
H889 H 0.17153 0.51676 0.58417 0.0
H890 H 0.16218 0.48423 0.64731 0.0
H891 H 0.15771 0.53464 0.61094 0.0
H892 H 0.14943 0.57108 0.67235 0.0
H893 H 0.16944 0.55494 0.65083 0.0
H894 H 0.12398 0.48863 0.64488 0.0
H895 H 0.10403 0.50468 0.66642 0.0
C896 C 0.17205 0.48113 0.61818 0.0
C897 C 0.17449 0.48983 0.59995 0.0
C898 C 0.1642 0.49147 0.63359 0.0
C899 C 0.15868 0.51073 0.63112 0.0
C900 C 0.16194 0.51989 0.61337 0.0
C901 C 0.16978 0.50957 0.59797 0.0
C902 C 0.14387 0.55305 0.66665 0.0
C903 C 0.12502 0.53916 0.67094 0.0
C904 C 0.15527 0.54383 0.65427 0.0
C905 C 0.14821 0.52053 0.6461 0.0
C906 C 0.12996 0.50663 0.65112 0.0
C907 C 0.11843 0.51585 0.66333 0.0
H908 H 0.66159 0.23384 0.39522 0.0
H909 H 0.71162 0.20337 0.38651 0.0
H910 H 0.62995 0.19902 0.37345 0.0
H911 H 0.6799 0.16832 0.36507 0.0
H912 H 0.61463 0.11596 0.30934 0.0
H913 H 0.64712 0.15083 0.32977 0.0
H914 H 0.61398 0.16189 0.37816 0.0
H915 H 0.58144 0.12743 0.35763 0.0
C916 C 0.66585 0.21972 0.38863 0.0
C917 C 0.68913 0.22137 0.39268 0.0
C918 C 0.64771 0.1997 0.37627 0.0
C919 C 0.6524 0.18081 0.3677 0.0
C920 C 0.67568 0.1826 0.3713 0.0
C921 C 0.69386 0.20266 0.38367 0.0
C922 C 0.61435 0.1258 0.3244 0.0
C923 C 0.59538 0.11896 0.33179 0.0
C924 C 0.633 0.14574 0.33614 0.0
C925 C 0.63304 0.15925 0.35548 0.0
C926 C 0.61428 0.15212 0.36308 0.0
C927 C 0.59569 0.13225 0.35138 0.0
H928 H 0.82055 0.82996 0.00226 0.0
H929 H 0.83043 0.89439 0.04251 0.0
H930 H 0.77908 0.81853 0.99505 0.0
H931 H 0.78846 0.88319 0.03455 0.0
H932 H 0.72001 0.84172 0.04267 0.0
H933 H 0.76042 0.85842 0.04561 0.0
H934 H 0.74332 0.82264 0.97715 0.0
H935 H 0.70315 0.80527 0.97459 0.0
C936 C 0.8138 0.84189 0.00921 0.0
C937 C 0.82885 0.86301 0.02316 0.0
C938 C 0.7899 0.83538 0.00492 0.0
C939 C 0.78034 0.84988 0.01429 0.0
C940 C 0.79527 0.87145 0.02737 0.0
C941 C 0.8193 0.87794 0.0318 0.0
C942 C 0.72486 0.83759 0.0282 0.0
C943 C 0.70849 0.82194 0.00851 0.0
C944 C 0.74801 0.8473 0.02981 0.0
C945 C 0.75523 0.84176 0.01167 0.0
C946 C 0.73851 0.82693 0.99161 0.0
C947 C 0.71545 0.81703 0.9901 0.0
H948 H 0.05253 0.08519 0.84967 0.0
H949 H 0.11581 0.10929 0.90733 0.0
H950 H 0.04559 0.11997 0.85972 0.0
H951 H 0.10912 0.14428 0.91712 0.0
H952 H 0.076 0.1934 0.94087 0.0
H953 H 0.08311 0.15866 0.93096 0.0
H954 H 0.06091 0.15933 0.86128 0.0
H955 H 0.05333 0.19377 0.87111 0.0
C956 C 0.06503 0.09795 0.86443 0.0
C957 C 0.08472 0.09445 0.87771 0.0
C958 C 0.06112 0.11795 0.87013 0.0
C959 C 0.07681 0.13494 0.88922 0.0
C960 C 0.09653 0.13144 0.90247 0.0
C961 C 0.10044 0.11143 0.89677 0.0
C962 C 0.07265 0.18614 0.92344 0.0
C963 C 0.06405 0.19635 0.90679 0.0
C964 C 0.07685 0.16629 0.91776 0.0
C965 C 0.07257 0.15618 0.89531 0.0
C966 C 0.06409 0.16648 0.87869 0.0
C967 C 0.05987 0.18631 0.88436 0.0
H968 H 0.90196 0.52333 0.62964 0.0
H969 H 0.92506 0.52696 0.70039 0.0
H970 H 0.86184 0.50529 0.62681 0.0
H971 H 0.88491 0.50838 0.69742 0.0
H972 H 0.80804 0.4966 0.6877 0.0
H973 H 0.84854 0.51458 0.69124 0.0
H974 H 0.83632 0.47006 0.62831 0.0
H975 H 0.79556 0.45273 0.62452 0.0
C976 C 0.89851 0.52017 0.64458 0.0
C977 C 0.91675 0.52655 0.66523 0.0
C978 C 0.87549 0.50966 0.64291 0.0
C979 C 0.87015 0.50521 0.66184 0.0
C980 C 0.88838 0.51175 0.68255 0.0
C981 C 0.91142 0.52231 0.68423 0.0
C982 C 0.81402 0.49091 0.67455 0.0
C983 C 0.79862 0.47371 0.65564 0.0
C984 C 0.83726 0.50097 0.67669 0.0
C985 C 0.84564 0.49393 0.65996 0.0
C986 C 0.83032 0.47619 0.6413 0.0
C987 C 0.80706 0.46611 0.63922 0.0
H988 H 0.53128 0.94 0.2939 0.0
H989 H 0.54944 0.98726 0.35696 0.0
H990 H 0.52705 0.90956 0.31228 0.0
H991 H 0.54578 0.95684 0.37549 0.0
H992 H 0.50581 0.89399 0.39279 0.0
H993 H 0.51481 0.92572 0.37664 0.0
H994 H 0.54742 0.89297 0.33855 0.0
H995 H 0.53789 0.86094 0.3543 0.0
C996 C 0.5347 0.94394 0.31176 0.0
C997 C 0.54056 0.96605 0.32393 0.0
C998 C 0.5324 0.92648 0.32234 0.0
C999 C 0.53597 0.93072 0.34537 0.0
C1000 C 0.54253 0.95294 0.35767 0.0
C1001 C 0.54478 0.9704 0.34707 0.0
C1002 C 0.51505 0.89361 0.38109 0.0
C1003 C 0.52101 0.87487 0.37474 0.0
C1004 C 0.52035 0.91189 0.37192 0.0
C1005 C 0.5318 0.9119 0.35623 0.0
C1006 C 0.53829 0.89338 0.35033 0.0
C1007 C 0.53293 0.87506 0.35946 0.0
H1008 H 0.97766 0.92248 0.15926 0.0
H1009 H 0.98275 0.92632 0.09444 0.0
H1010 H 0.01986 0.93348 0.17528 0.0
H1011 H 0.02498 0.93784 0.11057 0.0
H1012 H 0.09585 0.93107 0.14081 0.0
H1013 H 0.0538 0.92142 0.12532 0.0
H1014 H 0.05582 0.96451 0.18474 0.0
H1015 H 0.09783 0.97375 0.20049 0.0
C1016 C 0.9878 0.92593 0.14849 0.0
C1017 C 0.97684 0.92344 0.12556 0.0
C1018 C 0.01201 0.93233 0.15769 0.0
C1019 C 0.0258 0.93642 0.14419 0.0
C1020 C 0.01484 0.93443 0.12136 0.0
C1021 C 0.99064 0.92799 0.11215 0.0
C1022 C 0.08733 0.93846 0.1506 0.0
C1023 C 0.1002 0.95316 0.17189 0.0
C1024 C 0.06323 0.93306 0.14164 0.0
C1025 C 0.05145 0.94227 0.15374 0.0
C1026 C 0.06432 0.95693 0.17508 0.0
C1027 C 0.08842 0.9623 0.18407 0.0
H1028 H 0.80782 0.03802 0.99051 0.0
H1029 H 0.74101 0.03707 0.99402 0.0
H1030 H 0.78988 0.02181 0.95021 0.0
H1031 H 0.72322 0.02131 0.95375 0.0
H1032 H 0.69372 0.98255 0.88192 0.0
H1033 H 0.71247 0.98961 0.92223 0.0
H1034 H 0.77443 0.03648 0.91903 0.0
H1035 H 0.75592 0.02913 0.87878 0.0
C1036 C 0.78926 0.03412 0.98275 0.0
C1037 C 0.77589 0.03908 0.99545 0.0
C1038 C 0.77901 0.02493 0.95963 0.0
C1039 C 0.75517 0.02048 0.94872 0.0
C1040 C 0.74159 0.02434 0.96162 0.0
C1041 C 0.75183 0.03352 0.98473 0.0
C1042 C 0.71147 0.9941 0.88977 0.0
C1043 C 0.72323 0.00546 0.87717 0.0
C1044 C 0.72217 0.99822 0.91289 0.0
C1045 C 0.74486 0.01375 0.92389 0.0
C1046 C 0.75702 0.02425 0.91109 0.0
C1047 C 0.74633 0.02014 0.88799 0.0
H1048 H 0.81696 0.03914 0.70783 0.0
H1049 H 0.81003 0.96934 0.6941 0.0
H1050 H 0.78963 0.03185 0.72777 0.0
H1051 H 0.78298 0.96214 0.71453 0.0
H1052 H 0.71492 0.95428 0.7294 0.0
H1053 H 0.74356 0.96072 0.71069 0.0
H1054 H 0.78601 0.02219 0.76166 0.0
H1055 H 0.75716 0.016 0.78007 0.0
C1056 C 0.80975 0.02226 0.70921 0.0
C1057 C 0.81566 0.00481 0.69931 0.0
C1058 C 0.79416 0.01811 0.72078 0.0
C1059 C 0.78411 0.99641 0.72278 0.0
C1060 C 0.79019 0.97899 0.71306 0.0
C1061 C 0.8058 0.98315 0.70146 0.0
C1062 C 0.7304 0.96912 0.73665 0.0
C1063 C 0.7337 0.98468 0.75617 0.0
C1064 C 0.7469 0.97275 0.726 0.0
C1065 C 0.76706 0.99201 0.73463 0.0
C1066 C 0.77051 0.00736 0.75437 0.0
C1067 C 0.75402 0.00374 0.76499 0.0
H1068 H 0.87184 0.05922 0.52518 0.0
H1069 H 0.82578 0.01232 0.54789 0.0
H1070 H 0.85213 0.03555 0.48697 0.0
H1071 H 0.80623 0.9886 0.50966 0.0
H1072 H 0.80046 0.94155 0.44363 0.0
H1073 H 0.81789 0.96532 0.48188 0.0
H1074 H 0.8116 0.02242 0.45687 0.0
H1075 H 0.79401 0.99868 0.41862 0.0
C1076 C 0.85751 0.04388 0.52202 0.0
C1077 C 0.85037 0.03762 0.53954 0.0
C1078 C 0.84616 0.03041 0.50014 0.0
C1079 C 0.82766 0.01027 0.49539 0.0
C1080 C 0.82053 0.00398 0.5129 0.0
C1081 C 0.83166 0.01761 0.53474 0.0
C1082 C 0.80266 0.95914 0.4463 0.0
C1083 C 0.79589 0.96825 0.42811 0.0
C1084 C 0.81253 0.9727 0.46819 0.0
C1085 C 0.81614 0.9957 0.47229 0.0
C1086 C 0.80918 0.00477 0.45414 0.0
C1087 C 0.799 0.99115 0.43228 0.0
H1088 H 0.74658 0.0557 0.15294 0.0
H1089 H 0.79717 0.02929 0.13812 0.0
H1090 H 0.74978 0.03987 0.18519 0.0
H1091 H 0.79985 0.01287 0.16995 0.0
H1092 H 0.8193 0.00948 0.24274 0.0
H1093 H 0.81507 0.02441 0.20994 0.0
H1094 H 0.74094 0.00542 0.19618 0.0
H1095 H 0.7453 0.99108 0.22943 0.0
C1096 C 0.7582 0.0463 0.15642 0.0
C1097 C 0.7717 0.04383 0.14302 0.0
C1098 C 0.75995 0.03712 0.17486 0.0
C1099 C 0.77515 0.02515 0.18025 0.0
C1100 C 0.78829 0.02232 0.16654 0.0
C1101 C 0.78663 0.03161 0.14819 0.0
C1102 C 0.80209 0.00848 0.23273 0.0
C1103 C 0.78264 0.9991 0.23871 0.0
C1104 C 0.79964 0.01691 0.21381 0.0
C1105 C 0.77765 0.01605 0.20033 0.0
C1106 C 0.75818 0.00663 0.20632 0.0
C1107 C 0.76065 0.9983 0.22533 0.0
H1108 H 0.55226 0.97052 0.13411 0.0
H1109 H 0.61846 0.01609 0.13791 0.0
H1110 H 0.55657 0.94113 0.10879 0.0
H1111 H 0.62297 0.98656 0.11294 0.0
H1112 H 0.61108 0.93584 0.04905 0.0
H1113 H 0.60619 0.96512 0.07397 0.0
H1114 H 0.58001 0.91731 0.1088 0.0
H1115 H 0.58448 0.88793 0.08363 0.0
C1116 C 0.56779 0.97424 0.12964 0.0
C1117 C 0.58501 0.99565 0.13802 0.0
C1118 C 0.57031 0.95735 0.11521 0.0
C1119 C 0.59011 0.9615 0.10882 0.0
C1120 C 0.60736 0.98291 0.11728 0.0
C1121 C 0.60484 0.99979 0.13171 0.0
C1122 C 0.60423 0.93155 0.06198 0.0
C1123 C 0.59817 0.90954 0.06434 0.0
C1124 C 0.60156 0.94837 0.07636 0.0
C1125 C 0.59276 0.94357 0.09341 0.0
C1126 C 0.58658 0.92152 0.09568 0.0
C1127 C 0.58926 0.9047 0.08131 0.0
H1128 H 0.18358 0.68907 0.84878 0.0
H1129 H 0.14318 0.72455 0.87202 0.0
H1130 H 0.14782 0.65801 0.82608 0.0
H1131 H 0.10754 0.6934 0.84963 0.0
H1132 H 0.04676 0.64313 0.79092 0.0
H1133 H 0.08301 0.67442 0.81084 0.0
H1134 H 0.11738 0.62851 0.83165 0.0
H1135 H 0.08115 0.5971 0.8114 0.0
C1136 C 0.16708 0.69028 0.84899 0.0
C1137 C 0.16624 0.70929 0.86222 0.0
C1138 C 0.14661 0.67241 0.8361 0.0
C1139 C 0.12483 0.6732 0.83607 0.0
C1140 C 0.124 0.69236 0.84905 0.0
C1141 C 0.14445 0.71018 0.86198 0.0
C1142 C 0.06206 0.63966 0.79964 0.0
C1143 C 0.06102 0.6176 0.79963 0.0
C1144 C 0.08282 0.65763 0.81117 0.0
C1145 C 0.10306 0.65398 0.82294 0.0
C1146 C 0.10215 0.63188 0.82257 0.0
C1147 C 0.08135 0.61388 0.81106 0.0
H1148 H 0.24892 0.39544 0.56633 0.0
H1149 H 0.26069 0.44409 0.52786 0.0
H1150 H 0.28184 0.38576 0.56203 0.0
H1151 H 0.29328 0.43392 0.52298 0.0
H1152 H 0.36198 0.42092 0.53234 0.0
H1153 H 0.33241 0.43422 0.54099 0.0
H1154 H 0.28935 0.36599 0.53203 0.0
H1155 H 0.31887 0.35288 0.52404 0.0
C1156 C 0.25857 0.40411 0.55699 0.0
C1157 C 0.25206 0.4204 0.54728 0.0
C1158 C 0.27739 0.39848 0.55441 0.0
C1159 C 0.29005 0.40886 0.54191 0.0
C1160 C 0.28404 0.42572 0.53285 0.0
C1161 C 0.26527 0.43145 0.53555 0.0
C1162 C 0.34622 0.40883 0.53233 0.0
C1163 C 0.34281 0.38586 0.52754 0.0
C1164 C 0.32924 0.41642 0.53719 0.0
C1165 C 0.30854 0.40119 0.53734 0.0
C1166 C 0.30525 0.37825 0.53253 0.0
C1167 C 0.32216 0.37071 0.52776 0.0
H1168 H 0.01871 0.44336 0.79389 0.0
H1169 H 0.02609 0.48759 0.85512 0.0
H1170 H 0.02027 0.41383 0.81303 0.0
H1171 H 0.02823 0.45816 0.87445 0.0
H1172 H 0.99795 0.39102 0.89082 0.0
H1173 H 0.00182 0.42304 0.87468 0.0
H1174 H 0.0446 0.40173 0.84103 0.0
H1175 H 0.04025 0.36936 0.85677 0.0
C1176 C 0.02102 0.4469 0.81153 0.0
C1177 C 0.02213 0.4678 0.82293 0.0
C1178 C 0.02205 0.42999 0.82256 0.0
C1179 C 0.02428 0.43357 0.84529 0.0
C1180 C 0.02614 0.45472 0.85686 0.0
C1181 C 0.02506 0.47164 0.84581 0.0
C1182 C 0.00835 0.39326 0.88014 0.0
C1183 C 0.01865 0.37754 0.87497 0.0
C1184 C 0.0107 0.41172 0.87098 0.0
C1185 C 0.02344 0.41494 0.85646 0.0
C1186 C 0.03436 0.39958 0.85186 0.0
C1187 C 0.03197 0.38108 0.86099 0.0
H1188 H 0.51277 0.66488 0.3779 0.0
H1189 H 0.58288 0.71029 0.39366 0.0
H1190 H 0.52566 0.63316 0.37134 0.0
H1191 H 0.59566 0.67855 0.38668 0.0
H1192 H 0.61448 0.61638 0.39669 0.0
H1193 H 0.60171 0.64821 0.40302 0.0
H1194 H 0.53941 0.61458 0.34495 0.0
H1195 H 0.55197 0.58255 0.33885 0.0
C1196 C 0.53092 0.66811 0.37988 0.0
C1197 C 0.5468 0.69013 0.38633 0.0
C1198 C 0.53827 0.64992 0.37598 0.0
C1199 C 0.56169 0.65331 0.37846 0.0
C1200 C 0.57756 0.67534 0.38489 0.0
C1201 C 0.5702 0.69354 0.38877 0.0
C1202 C 0.59807 0.61578 0.38525 0.0
C1203 C 0.58423 0.59691 0.36728 0.0
C1204 C 0.59081 0.63409 0.38881 0.0
C1205 C 0.56953 0.63395 0.37449 0.0
C1206 C 0.55575 0.61511 0.35646 0.0
C1207 C 0.56302 0.5968 0.35289 0.0
H1208 H 0.48532 0.63685 0.85386 0.0
H1209 H 0.47896 0.63769 0.78547 0.0
H1210 H 0.49355 0.67701 0.86337 0.0
H1211 H 0.48766 0.67804 0.79513 0.0
H1212 H 0.46785 0.74026 0.81434 0.0
H1213 H 0.4664 0.7018 0.80451 0.0
H1214 H 0.52077 0.71384 0.86759 0.0
H1215 H 0.52194 0.75228 0.87765 0.0
C1216 C 0.48608 0.64566 0.84093 0.0
C1217 C 0.48123 0.634 0.81885 0.0
C1218 C 0.49094 0.66874 0.84642 0.0
C1219 C 0.49106 0.68072 0.82996 0.0
C1220 C 0.48731 0.66923 0.80811 0.0
C1221 C 0.48247 0.64613 0.80261 0.0
C1222 C 0.47963 0.73478 0.82606 0.0
C1223 C 0.49487 0.74931 0.84686 0.0
C1224 C 0.47893 0.71275 0.82034 0.0
C1225 C 0.49345 0.70472 0.83528 0.0
C1226 C 0.50916 0.71943 0.85582 0.0
C1227 C 0.50988 0.74149 0.86154 0.0
H1228 H 0.9797 0.35229 0.15284 0.0
H1229 H 0.01843 0.32917 0.20527 0.0
H1230 H 0.00604 0.3492 0.13254 0.0
H1231 H 0.04445 0.32568 0.18478 0.0
H1232 H 0.09756 0.33607 0.15012 0.0
H1233 H 0.07436 0.34583 0.17162 0.0
H1234 H 0.01303 0.31854 0.11194 0.0
H1235 H 0.03626 0.30919 0.09036 0.0
C1236 C 0.99395 0.34674 0.16014 0.0
C1237 C 0.99688 0.34084 0.18061 0.0
C1238 C 0.00896 0.34483 0.14842 0.0
C1239 C 0.02724 0.33701 0.15693 0.0
C1240 C 0.03069 0.33196 0.17783 0.0
C1241 C 0.01569 0.33386 0.18954 0.0
C1242 C 0.07916 0.33233 0.14154 0.0
C1243 C 0.06874 0.32172 0.11853 0.0
C1244 C 0.06585 0.33783 0.15389 0.0
C1245 C 0.04182 0.33288 0.14354 0.0
C1246 C 0.03155 0.32285 0.1204 0.0
C1247 C 0.04485 0.31734 0.10805 0.0
H1248 H 0.76693 0.79401 0.59441 0.0
H1249 H 0.74237 0.82608 0.64169 0.0
H1250 H 0.80526 0.82303 0.61187 0.0
H1251 H 0.78065 0.85533 0.65891 0.0
H1252 H 0.85938 0.88609 0.69987 0.0
H1253 H 0.81998 0.8591 0.68164 0.0
H1254 H 0.8255 0.8628 0.61697 0.0
H1255 H 0.86509 0.88953 0.63517 0.0
C1256 C 0.76966 0.80734 0.60843 0.0
C1257 C 0.75162 0.80769 0.61671 0.0
C1258 C 0.7916 0.82406 0.61835 0.0
C1259 C 0.79601 0.8415 0.63679 0.0
C1260 C 0.77789 0.84198 0.6449 0.0
C1261 C 0.75592 0.82527 0.63496 0.0
C1262 C 0.85216 0.88125 0.68176 0.0
C1263 C 0.86544 0.88988 0.66898 0.0
C1264 C 0.82951 0.86587 0.67131 0.0
C1265 C 0.81963 0.85874 0.64785 0.0
C1266 C 0.83274 0.86772 0.63507 0.0
C1267 C 0.85538 0.88313 0.64552 0.0
H1268 H 0.84816 0.58229 0.60017 0.0
H1269 H 0.90798 0.57184 0.64278 0.0
H1270 H 0.82696 0.57127 0.62486 0.0
H1271 H 0.88647 0.56025 0.6673 0.0
H1272 H 0.84963 0.56321 0.7184 0.0
H1273 H 0.87121 0.57472 0.69395 0.0
H1274 H 0.80891 0.53951 0.63619 0.0
H1275 H 0.78723 0.52871 0.6606 0.0
C1276 C 0.85674 0.57746 0.61472 0.0
C1277 C 0.87978 0.57797 0.61949 0.0
C1278 C 0.84451 0.571 0.62884 0.0
C1279 C 0.85496 0.5648 0.64806 0.0
C1280 C 0.87799 0.5652 0.65279 0.0
C1281 C 0.89027 0.5717 0.63866 0.0
C1282 C 0.84048 0.55819 0.70049 0.0
C1283 C 0.81666 0.5452 0.69146 0.0
C1284 C 0.85292 0.56456 0.68646 0.0
C1285 C 0.84182 0.55805 0.66308 0.0
C1286 C 0.81795 0.54518 0.65411 0.0
C1287 C 0.80549 0.53896 0.66813 0.0
H1288 H 0.75639 0.53211 0.8249 0.0
H1289 H 0.77482 0.48453 0.8602 0.0
H1290 H 0.76968 0.55983 0.86041 0.0
H1291 H 0.7887 0.51246 0.89571 0.0
H1292 H 0.7935 0.5624 0.95692 0.0
H1293 H 0.77672 0.53376 0.92149 0.0
H1294 H 0.80618 0.58258 0.88912 0.0
H1295 H 0.82237 0.61121 0.92425 0.0
C1296 C 0.76326 0.52755 0.84025 0.0
C1297 C 0.76465 0.50615 0.83973 0.0
C1298 C 0.77101 0.54349 0.8606 0.0
C1299 C 0.78044 0.53844 0.88091 0.0
C1300 C 0.78133 0.51685 0.8804 0.0
C1301 C 0.77348 0.50087 0.86003 0.0
C1302 C 0.79633 0.567 0.94221 0.0
C1303 C 0.80927 0.58908 0.94341 0.0
C1304 C 0.78681 0.55057 0.92193 0.0
C1305 C 0.79005 0.55588 0.90244 0.0
C1306 C 0.80298 0.57798 0.9037 0.0
C1307 C 0.81242 0.59438 0.92391 0.0
H1308 H 0.78759 0.55258 0.16408 0.0
H1309 H 0.72049 0.51265 0.11415 0.0
H1310 H 0.79632 0.57458 0.13803 0.0
H1311 H 0.72934 0.53454 0.08809 0.0
H1312 H 0.74448 0.59313 0.0557 0.0
H1313 H 0.73547 0.5728 0.08284 0.0
H1314 H 0.80435 0.56865 0.10261 0.0
H1315 H 0.81346 0.58913 0.07564 0.0
C1316 C 0.77468 0.54853 0.14758 0.0
C1317 C 0.75336 0.53083 0.14117 0.0
C1318 C 0.77974 0.56106 0.13262 0.0
C1319 C 0.76355 0.55626 0.11099 0.0
C1320 C 0.74208 0.53879 0.10471 0.0
C1321 C 0.73707 0.52617 0.11962 0.0
C1322 C 0.75772 0.58793 0.06587 0.0
C1323 C 0.77968 0.59272 0.06349 0.0
C1324 C 0.75251 0.57619 0.08134 0.0
C1325 C 0.76919 0.56911 0.09485 0.0
C1326 C 0.79122 0.57409 0.09261 0.0
C1327 C 0.79638 0.58571 0.07706 0.0
H1328 H 0.79166 0.52836 0.36284 0.0
H1329 H 0.82395 0.58047 0.33528 0.0
H1330 H 0.81909 0.54934 0.40021 0.0
H1331 H 0.85111 0.60155 0.37262 0.0
H1332 H 0.91093 0.6227 0.43888 0.0
H1333 H 0.88408 0.59989 0.40193 0.0
H1334 H 0.82811 0.58372 0.42839 0.0
H1335 H 0.85505 0.60623 0.46545 0.0
C1336 C 0.80453 0.54431 0.36474 0.0
C1337 C 0.80557 0.55272 0.34605 0.0
C1338 C 0.82021 0.55637 0.38618 0.0
C1339 C 0.83733 0.5771 0.3894 0.0
C1340 C 0.83836 0.58549 0.37069 0.0
C1341 C 0.82268 0.57346 0.34929 0.0
C1342 C 0.89293 0.61417 0.43686 0.0
C1343 C 0.88513 0.61634 0.45511 0.0
C1344 C 0.8775 0.60122 0.41564 0.0
C1345 C 0.85392 0.59009 0.41217 0.0
C1346 C 0.84621 0.5919 0.43053 0.0
C1347 C 0.86164 0.60489 0.45176 0.0
H1348 H 0.71396 0.42368 0.39472 0.0
H1349 H 0.65431 0.37991 0.40458 0.0
H1350 H 0.69281 0.4487 0.38494 0.0
H1351 H 0.63329 0.40538 0.39539 0.0
H1352 H 0.59552 0.4437 0.35149 0.0
H1353 H 0.61544 0.41831 0.36395 0.0
H1354 H 0.67833 0.47488 0.40125 0.0
H1355 H 0.65867 0.50009 0.38832 0.0
C1356 C 0.69639 0.4195 0.39501 0.0
C1357 C 0.68584 0.39981 0.40045 0.0
C1358 C 0.68429 0.43394 0.38954 0.0
C1359 C 0.66138 0.42915 0.38953 0.0
C1360 C 0.65083 0.40947 0.39503 0.0
C1361 C 0.66292 0.39493 0.4004 0.0
C1362 C 0.6135 0.4507 0.36262 0.0
C1363 C 0.62556 0.47389 0.36883 0.0
C1364 C 0.62492 0.43616 0.36979 0.0
C1365 C 0.64858 0.44454 0.38341 0.0
C1366 C 0.66026 0.46781 0.39038 0.0
C1367 C 0.64893 0.48229 0.3831 0.0
H1368 H 0.43558 0.03326 0.20513 0.0
H1369 H 0.40565 0.06149 0.15249 0.0
H1370 H 0.40013 0.02542 0.21433 0.0
H1371 H 0.37063 0.05452 0.16238 0.0
H1372 H 0.3023 0.01909 0.1711 0.0
H1373 H 0.3371 0.02372 0.16098 0.0
H1374 H 0.37976 0.04558 0.23104 0.0
H1375 H 0.34491 0.0403 0.24098 0.0
C1376 C 0.4215 0.03789 0.19557 0.0
C1377 C 0.42347 0.04802 0.17806 0.0
C1378 C 0.40125 0.03355 0.20099 0.0
C1379 C 0.38257 0.03936 0.18912 0.0
C1380 C 0.38454 0.04947 0.1716 0.0
C1381 C 0.4047 0.05363 0.16605 0.0
C1382 C 0.31909 0.02457 0.18432 0.0
C1383 C 0.32094 0.0295 0.20689 0.0
C1384 C 0.33905 0.02746 0.17852 0.0
C1385 C 0.36124 0.0352 0.1952 0.0
C1386 C 0.36295 0.03938 0.21776 0.0
C1387 C 0.34301 0.0365 0.2235 0.0
H1388 H 0.5195 0.40211 0.59678 0.0
H1389 H 0.51846 0.38482 0.52895 0.0
H1390 H 0.5614 0.41061 0.61078 0.0
H1391 H 0.56061 0.39378 0.543 0.0
H1392 H 0.6307 0.38549 0.58017 0.0
H1393 H 0.58933 0.37936 0.5635 0.0
H1394 H 0.59741 0.43759 0.61243 0.0
H1395 H 0.63856 0.44344 0.62935 0.0
C1396 C 0.52823 0.40027 0.58483 0.0
C1397 C 0.51561 0.39276 0.56174 0.0
C1398 C 0.55232 0.4053 0.59286 0.0
C1399 C 0.56441 0.40299 0.57801 0.0
C1400 C 0.5518 0.39555 0.55489 0.0
C1401 C 0.52767 0.39052 0.54684 0.0
C1402 C 0.62371 0.39714 0.58719 0.0
C1403 C 0.6379 0.41482 0.60623 0.0
C1404 C 0.59999 0.39367 0.57759 0.0
C1405 C 0.58998 0.40783 0.5868 0.0
C1406 C 0.60444 0.42609 0.60521 0.0
C1407 C 0.6281 0.42953 0.61482 0.0
H1408 H 0.15502 0.48041 0.3739 0.0
H1409 H 0.20171 0.53906 0.3652 0.0
H1410 H 0.16538 0.49925 0.41311 0.0
H1411 H 0.21173 0.55797 0.40424 0.0
H1412 H 0.24464 0.57488 0.47995 0.0
H1413 H 0.23318 0.55525 0.44094 0.0
H1414 H 0.16149 0.5303 0.43717 0.0
H1415 H 0.17303 0.54971 0.47648 0.0
C1416 C 0.16737 0.49737 0.38029 0.0
C1417 C 0.17762 0.50819 0.36643 0.0
C1418 C 0.17321 0.5082 0.40275 0.0
C1419 C 0.18948 0.53006 0.41184 0.0
C1420 C 0.19943 0.54099 0.39786 0.0
C1421 C 0.19358 0.53019 0.37543 0.0
C1422 C 0.22643 0.56515 0.47087 0.0
C1423 C 0.20974 0.56393 0.48133 0.0
C1424 C 0.21984 0.55402 0.44843 0.0
C1425 C 0.19639 0.54137 0.43588 0.0
C1426 C 0.17972 0.53979 0.44642 0.0
C1427 C 0.18632 0.55097 0.46892 0.0
H1428 H 0.29898 0.50564 0.14646 0.0
H1429 H 0.3495 0.50153 0.20521 0.0
H1430 H 0.26767 0.48747 0.15915 0.0
H1431 H 0.31807 0.48298 0.21771 0.0
H1432 H 0.25725 0.4744 0.24453 0.0
H1433 H 0.28907 0.4916 0.23194 0.0
H1434 H 0.24822 0.45135 0.16452 0.0
H1435 H 0.21625 0.43443 0.17701 0.0
C1436 C 0.30342 0.50075 0.16203 0.0
C1437 C 0.32677 0.50508 0.17484 0.0
C1438 C 0.28543 0.49021 0.16924 0.0
C1439 C 0.29036 0.48375 0.18943 0.0
C1440 C 0.31371 0.48798 0.2022 0.0
C1441 C 0.33171 0.49851 0.19497 0.0
C1442 C 0.25507 0.46918 0.22703 0.0
C1443 C 0.23418 0.45308 0.21176 0.0
C1444 C 0.27337 0.47895 0.21984 0.0
C1445 C 0.27118 0.47288 0.19722 0.0
C1446 C 0.25036 0.45663 0.18201 0.0
C1447 C 0.23207 0.44683 0.18919 0.0
H1448 H 0.26744 0.5171 0.92874 0.0
H1449 H 0.2969 0.46482 0.93455 0.0
H1450 H 0.29432 0.53878 0.96622 0.0
H1451 H 0.32379 0.48659 0.97194 0.0
H1452 H 0.38672 0.54664 0.02285 0.0
H1453 H 0.35804 0.5233 0.98679 0.0
H1454 H 0.30324 0.53661 0.00692 0.0
H1455 H 0.33192 0.55991 0.04313 0.0
C1456 C 0.27952 0.51017 0.93806 0.0
C1457 C 0.28008 0.48927 0.92866 0.0
C1458 C 0.29482 0.52254 0.95955 0.0
C1459 C 0.31119 0.51439 0.97192 0.0
C1460 C 0.31149 0.49335 0.96267 0.0
C1461 C 0.296 0.48085 0.94132 0.0
C1462 C 0.36856 0.54455 0.01963 0.0
C1463 C 0.36159 0.55514 0.03583 0.0
C1464 C 0.35213 0.53108 0.99903 0.0
C1465 C 0.32842 0.52814 0.99409 0.0
C1466 C 0.32143 0.53871 0.01026 0.0
C1467 C 0.33783 0.55196 0.031 0.0
H1468 H 0.21438 0.46272 0.69045 0.0
H1469 H 0.23717 0.5288 0.73418 0.0
H1470 H 0.21326 0.47891 0.65855 0.0
H1471 H 0.2364 0.54497 0.70234 0.0
H1472 H 0.21194 0.56485 0.63723 0.0
H1473 H 0.21003 0.54762 0.6681 0.0
H1474 H 0.24057 0.50153 0.64414 0.0
H1475 H 0.24221 0.51858 0.61312 0.0
C1476 C 0.21914 0.48069 0.69327 0.0
C1477 C 0.22596 0.49446 0.7149 0.0
C1478 C 0.2186 0.48998 0.67498 0.0
C1479 C 0.22483 0.51325 0.67789 0.0
C1480 C 0.23125 0.52697 0.69946 0.0
C1481 C 0.23183 0.51769 0.71775 0.0
C1482 C 0.21821 0.55102 0.63854 0.0
C1483 C 0.2273 0.54312 0.62278 0.0
C1484 C 0.21726 0.54124 0.65631 0.0
C1485 C 0.22523 0.52326 0.65865 0.0
C1486 C 0.23406 0.5152 0.64271 0.0
C1487 C 0.23517 0.52509 0.62503 0.0
H1488 H 0.91031 0.99117 0.27457 0.0
H1489 H 0.92711 0.0435 0.33356 0.0
H1490 H 0.87489 0.97032 0.28072 0.0
H1491 H 0.89168 0.02286 0.33934 0.0
H1492 H 0.81261 0.99282 0.3239 0.0
H1493 H 0.84721 0.0115 0.31559 0.0
H1494 H 0.86544 0.95195 0.31346 0.0
H1495 H 0.83084 0.93328 0.32217 0.0
C1496 C 0.90647 0.99819 0.28882 0.0
C1497 C 0.92149 0.01898 0.30358 0.0
C1498 C 0.88629 0.98624 0.29235 0.0
C1499 C 0.88059 0.9951 0.31042 0.0
C1500 C 0.89563 0.01579 0.32519 0.0
C1501 C 0.91596 0.02751 0.32192 0.0
C1502 C 0.82376 0.98358 0.32122 0.0
C1503 C 0.81895 0.96154 0.32332 0.0
C1504 C 0.84364 0.99433 0.31672 0.0
C1505 C 0.85889 0.98311 0.31388 0.0
C1506 C 0.8538 0.96085 0.31541 0.0
C1507 C 0.83412 0.95024 0.32042 0.0
H1508 H 0.30549 0.63864 0.61096 0.0
H1509 H 0.25749 0.67238 0.58706 0.0
H1510 H 0.33646 0.67468 0.62977 0.0
H1511 H 0.28825 0.70839 0.60642 0.0
H1512 H 0.35384 0.7685 0.62281 0.0
H1513 H 0.32345 0.73214 0.60401 0.0
H1514 H 0.34933 0.70674 0.66059 0.0
H1515 H 0.38015 0.7429 0.6791 0.0
C1516 C 0.30148 0.65374 0.6099 0.0
C1517 C 0.27902 0.65261 0.59744 0.0
C1518 C 0.31922 0.67443 0.62078 0.0
C1519 C 0.3149 0.69447 0.61956 0.0
C1520 C 0.29232 0.6933 0.60738 0.0
C1521 C 0.27463 0.67263 0.5964 0.0
C1522 C 0.3531 0.75514 0.63121 0.0
C1523 C 0.36943 0.75863 0.65246 0.0
C1524 C 0.33556 0.73432 0.6205 0.0
C1525 C 0.33384 0.71651 0.63082 0.0
C1526 C 0.35029 0.71998 0.65202 0.0
C1527 C 0.36792 0.74077 0.66268 0.0
H1528 H 0.53196 0.02956 0.68598 0.0
H1529 H 0.5722 0.09352 0.73348 0.0
H1530 H 0.56164 0.01439 0.70283 0.0
H1531 H 0.60153 0.07834 0.75098 0.0
H1532 H 0.66129 0.0529 0.76412 0.0
H1533 H 0.63142 0.06683 0.74544 0.0
H1534 H 0.57862 0.00281 0.73434 0.0
H1535 H 0.60879 0.98858 0.75206 0.0
C1536 C 0.54697 0.04022 0.70034 0.0
C1537 C 0.54972 0.06262 0.70862 0.0
C1538 C 0.56402 0.03156 0.71002 0.0
C1539 C 0.58411 0.0451 0.7283 0.0
C1540 C 0.5866 0.06749 0.73665 0.0
C1541 C 0.56973 0.0762 0.72676 0.0
C1542 C 0.64331 0.04176 0.75754 0.0
C1543 C 0.63739 0.01966 0.75959 0.0
C1544 C 0.62611 0.0498 0.74699 0.0
C1545 C 0.60248 0.03607 0.73856 0.0
C1546 C 0.59662 0.01381 0.74034 0.0
C1547 C 0.61391 0.00565 0.75058 0.0
H1548 H 0.39381 0.52076 0.13389 0.0
H1549 H 0.45947 0.5756 0.15943 0.0
H1550 H 0.41119 0.49921 0.15684 0.0
H1551 H 0.47696 0.55409 0.18244 0.0
H1552 H 0.50619 0.49882 0.19825 0.0
H1553 H 0.48864 0.5219 0.17767 0.0
H1554 H 0.42724 0.49724 0.19514 0.0
H1555 H 0.44488 0.47419 0.21569 0.0
C1556 C 0.41177 0.52846 0.14489 0.0
C1557 C 0.42514 0.55005 0.14522 0.0
C1558 C 0.42181 0.51604 0.15795 0.0
C1559 C 0.44548 0.52491 0.17152 0.0
C1560 C 0.45877 0.54662 0.17196 0.0
C1561 C 0.44873 0.55899 0.15887 0.0
C1562 C 0.48898 0.49841 0.19773 0.0
C1563 C 0.47665 0.48427 0.20807 0.0
C1564 C 0.47894 0.5117 0.18603 0.0
C1565 C 0.45643 0.51131 0.1846 0.0
C1566 C 0.44437 0.49755 0.19546 0.0
C1567 C 0.45441 0.48422 0.20711 0.0
H1568 H 0.53976 0.0748 0.11908 0.0
H1569 H 0.505 0.08786 0.16542 0.0
H1570 H 0.52051 0.0945 0.09516 0.0
H1571 H 0.48474 0.10658 0.14091 0.0
H1572 H 0.4758 0.16168 0.10515 0.0
H1573 H 0.49361 0.14095 0.12896 0.0
H1574 H 0.4829 0.09119 0.07017 0.0
H1575 H 0.4653 0.11218 0.04641 0.0
C1576 C 0.52775 0.08162 0.12401 0.0
C1577 C 0.52354 0.07934 0.14393 0.0
C1578 C 0.51655 0.09275 0.1102 0.0
C1579 C 0.50092 0.10197 0.116 0.0
C1580 C 0.49673 0.09972 0.13597 0.0
C1581 C 0.50799 0.0886 0.14983 0.0
C1582 C 0.47683 0.14608 0.09735 0.0
C1583 C 0.46873 0.13826 0.07396 0.0
C1584 C 0.48711 0.13423 0.11098 0.0
C1585 C 0.48951 0.1143 0.1015 0.0
C1586 C 0.48149 0.10657 0.07804 0.0
C1587 C 0.47135 0.11852 0.06442 0.0
H1588 H 0.45511 0.99175 0.26853 0.0
H1589 H 0.46653 0.05941 0.2619 0.0
H1590 H 0.4154 0.98751 0.2666 0.0
H1591 H 0.42674 0.05502 0.25989 0.0
H1592 H 0.37273 0.04847 0.29669 0.0
H1593 H 0.40901 0.05183 0.28992 0.0
H1594 H 0.37621 0.98668 0.2431 0.0
H1595 H 0.33952 0.98362 0.24946 0.0
C1596 C 0.44904 0.00558 0.26625 0.0
C1597 C 0.46414 0.02605 0.26574 0.0
C1598 C 0.42624 0.00309 0.26503 0.0
C1599 C 0.41811 0.02105 0.26342 0.0
C1600 C 0.43272 0.04105 0.26155 0.0
C1601 C 0.45546 0.04349 0.26258 0.0
C1602 C 0.37305 0.03517 0.28445 0.0
C1603 C 0.35318 0.01603 0.27321 0.0
C1604 C 0.39386 0.03704 0.28064 0.0
C1605 C 0.39538 0.0196 0.26582 0.0
C1606 C 0.37553 0.00035 0.25465 0.0
C1607 C 0.35461 0.99858 0.25833 0.0
H1608 H 0.35999 0.29754 0.48878 0.0
H1609 H 0.41521 0.30096 0.54791 0.0
H1610 H 0.33618 0.26193 0.49129 0.0
H1611 H 0.39147 0.2648 0.55007 0.0
H1612 H 0.32719 0.22413 0.56595 0.0
H1613 H 0.35735 0.25356 0.56059 0.0
H1614 H 0.32894 0.22317 0.4894 0.0
H1615 H 0.29803 0.19455 0.49469 0.0
C1616 C 0.36731 0.29043 0.50201 0.0
C1617 C 0.3894 0.3023 0.51834 0.0
C1618 C 0.35366 0.26985 0.50337 0.0
C1619 C 0.36178 0.26056 0.52104 0.0
C1620 C 0.38453 0.27168 0.53648 0.0
C1621 C 0.39821 0.29234 0.53514 0.0
C1622 C 0.32763 0.22354 0.5492 0.0
C1623 C 0.3104 0.20678 0.53079 0.0
C1624 C 0.34507 0.24031 0.54613 0.0
C1625 C 0.34562 0.24076 0.52454 0.0
C1626 C 0.32896 0.2234 0.50624 0.0
C1627 C 0.31146 0.20669 0.50931 0.0
H1628 H 0.22732 0.04853 0.76571 0.0
H1629 H 0.17922 0.98277 0.72695 0.0
H1630 H 0.20053 0.05254 0.78512 0.0
H1631 H 0.15229 0.9867 0.74626 0.0
H1632 H 0.10022 0.00766 0.77139 0.0
H1633 H 0.12654 0.00621 0.75066 0.0
H1634 H 0.18551 0.03823 0.812 0.0
H1635 H 0.15929 0.04035 0.8325 0.0
C1636 C 0.21126 0.03472 0.76171 0.0
C1637 C 0.20566 0.01509 0.74528 0.0
C1638 C 0.19578 0.03707 0.77269 0.0
C1639 C 0.1743 0.01987 0.76741 0.0
C1640 C 0.16856 0.00038 0.75063 0.0
C1641 C 0.18405 0.99806 0.73965 0.0
C1642 C 0.11882 0.01474 0.78035 0.0
C1643 C 0.12766 0.02426 0.80356 0.0
C1644 C 0.13392 0.01371 0.76852 0.0
C1645 C 0.15818 0.02204 0.77966 0.0
C1646 C 0.16697 0.03199 0.8028 0.0
C1647 C 0.1519 0.03319 0.81457 0.0
H1648 H 0.12403 0.25058 0.02627 0.0
H1649 H 0.129 0.3136 0.0653 0.0
H1650 H 0.09885 0.25632 0.99308 0.0
H1651 H 0.10388 0.31948 0.03207 0.0
H1652 H 0.03962 0.31125 0.97206 0.0
H1653 H 0.06441 0.30591 0.0059 0.0
H1654 H 0.10086 0.27962 0.96749 0.0
H1655 H 0.07606 0.28496 0.93381 0.0
C1656 C 0.11968 0.26566 0.02776 0.0
C1657 C 0.12816 0.28145 0.04849 0.0
C1658 C 0.10535 0.26902 0.00871 0.0
C1659 C 0.09934 0.28839 0.00987 0.0
C1660 C 0.10781 0.30419 0.03065 0.0
C1661 C 0.12211 0.30076 0.04976 0.0
C1662 C 0.05298 0.30437 0.97092 0.0
C1663 C 0.05552 0.29796 0.9502 0.0
C1664 C 0.06724 0.30138 0.9903 0.0
C1665 C 0.08448 0.2921 0.9894 0.0
C1666 C 0.08736 0.28625 0.96871 0.0
C1667 C 0.07306 0.28918 0.94935 0.0
H1668 H 0.79359 0.34546 0.42403 0.0
H1669 H 0.72573 0.34567 0.38721 0.0
H1670 H 0.81183 0.37823 0.41273 0.0
H1671 H 0.74395 0.37936 0.37691 0.0
H1672 H 0.78641 0.42592 0.34396 0.0
H1673 H 0.76588 0.39341 0.35452 0.0
H1674 H 0.81894 0.4171 0.42031 0.0
H1675 H 0.83962 0.44918 0.40945 0.0
C1676 C 0.78255 0.35265 0.41368 0.0
C1677 C 0.75821 0.34335 0.40709 0.0
C1678 C 0.79301 0.37163 0.4074 0.0
C1679 C 0.77941 0.38184 0.39432 0.0
C1680 C 0.755 0.37208 0.38711 0.0
C1681 C 0.74452 0.35299 0.39337 0.0
C1682 C 0.79334 0.42443 0.36083 0.0
C1683 C 0.81449 0.4402 0.37596 0.0
C1684 C 0.78164 0.40572 0.36688 0.0
C1685 C 0.79083 0.40245 0.38822 0.0
C1686 C 0.81159 0.41873 0.40356 0.0
C1687 C 0.82337 0.43725 0.39743 0.0
H1688 H 0.14239 0.43564 0.45929 0.0
H1689 H 0.12399 0.37797 0.48559 0.0
H1690 H 0.11075 0.41562 0.42402 0.0
H1691 H 0.09179 0.35817 0.45053 0.0
H1692 H 0.04357 0.32289 0.37889 0.0
H1693 H 0.07939 0.34097 0.41118 0.0
H1694 H 0.06945 0.40452 0.41165 0.0
H1695 H 0.03456 0.38671 0.3788 0.0
C1696 C 0.13164 0.41864 0.45752 0.0
C1697 C 0.13559 0.40848 0.47534 0.0
C1698 C 0.11339 0.4072 0.43732 0.0
C1699 C 0.09847 0.38538 0.4345 0.0
C1700 C 0.10302 0.37488 0.45202 0.0
C1701 C 0.12143 0.38628 0.47219 0.0
C1702 C 0.04939 0.34079 0.38545 0.0
C1703 C 0.03643 0.35339 0.37592 0.0
C1704 C 0.06975 0.35113 0.40424 0.0
C1705 C 0.07746 0.37427 0.41395 0.0
C1706 C 0.06439 0.38678 0.40437 0.0
C1707 C 0.04419 0.37649 0.38563 0.0
H1708 H 0.2405 0.85202 0.90968 0.0
H1709 H 0.25444 0.81119 0.85938 0.0
H1710 H 0.26117 0.88561 0.9008 0.0
H1711 H 0.27486 0.84474 0.85016 0.0
H1712 H 0.33505 0.90903 0.86146 0.0
H1713 H 0.3109 0.87532 0.86723 0.0
H1714 H 0.26143 0.90743 0.87364 0.0
H1715 H 0.28636 0.94165 0.86908 0.0
C1716 C 0.24734 0.8502 0.89622 0.0
C1717 C 0.24551 0.82898 0.88494 0.0
C1718 C 0.2593 0.86947 0.89118 0.0
C1719 C 0.26971 0.86794 0.87476 0.0
C1720 C 0.26736 0.8466 0.86314 0.0
C1721 C 0.25556 0.82736 0.8683 0.0
C1722 C 0.31899 0.90891 0.86405 0.0
C1723 C 0.31243 0.92793 0.86435 0.0
C1724 C 0.30499 0.88946 0.86712 0.0
C1725 C 0.28404 0.88851 0.87064 0.0
C1726 C 0.27745 0.90757 0.87098 0.0
C1727 C 0.29155 0.92709 0.86795 0.0
H1728 H 0.57393 0.78684 0.4308 0.0
H1729 H 0.53458 0.80417 0.47076 0.0
H1730 H 0.59985 0.78039 0.46302 0.0
H1731 H 0.56044 0.79763 0.50313 0.0
H1732 H 0.62622 0.80531 0.56126 0.0
H1733 H 0.59981 0.81217 0.52963 0.0
H1734 H 0.59971 0.75426 0.48581 0.0
H1735 H 0.62618 0.74755 0.51743 0.0
C1736 C 0.57056 0.78884 0.44638 0.0
C1737 C 0.55189 0.79542 0.44814 0.0
C1738 C 0.58548 0.78525 0.4649 0.0
C1739 C 0.58208 0.78822 0.48563 0.0
C1740 C 0.56367 0.79533 0.48748 0.0
C1741 C 0.54881 0.799 0.46894 0.0
C1742 C 0.62013 0.79377 0.54498 0.0
C1743 C 0.62795 0.77566 0.5419 0.0
C1744 C 0.6051 0.79777 0.5268 0.0
C1745 C 0.59764 0.78378 0.50514 0.0
C1746 C 0.60539 0.76559 0.50217 0.0
C1747 C 0.62046 0.76166 0.52031 0.0
H1748 H 0.243 0.00294 0.28519 0.0
H1749 H 0.19229 0.9535 0.22595 0.0
H1750 H 0.23081 0.97889 0.30849 0.0
H1751 H 0.17949 0.92952 0.24924 0.0
H1752 H 0.18751 0.88342 0.29788 0.0
H1753 H 0.19665 0.90757 0.27357 0.0
H1754 H 0.19685 0.96355 0.32005 0.0
H1755 H 0.18834 0.93952 0.3446 0.0
C1756 C 0.22925 0.98689 0.27722 0.0
C1757 C 0.2187 0.98001 0.25386 0.0
C1758 C 0.22204 0.97325 0.29053 0.0
C1759 C 0.20416 0.95232 0.28069 0.0
C1760 C 0.19341 0.94551 0.25727 0.0
C1761 C 0.20055 0.95929 0.24397 0.0
C1762 C 0.18937 0.90086 0.3028 0.0
C1763 C 0.18681 0.90951 0.32292 0.0
C1764 C 0.19442 0.91463 0.28882 0.0
C1765 C 0.19735 0.93742 0.29485 0.0
C1766 C 0.19472 0.94605 0.31498 0.0
C1767 C 0.1895 0.93223 0.32887 0.0
H1768 H 0.71622 0.44596 0.71839 0.0
H1769 H 0.71615 0.37873 0.69945 0.0
H1770 H 0.70542 0.43771 0.75013 0.0
H1771 H 0.70666 0.37085 0.73222 0.0
H1772 H 0.65104 0.35772 0.76706 0.0
H1773 H 0.67176 0.36486 0.74119 0.0
H1774 H 0.71604 0.42953 0.78604 0.0
H1775 H 0.69479 0.42265 0.81172 0.0
C1776 C 0.71465 0.42962 0.7214 0.0
C1777 C 0.71679 0.41292 0.70623 0.0
C1778 C 0.70864 0.42493 0.73979 0.0
C1779 C 0.70522 0.40362 0.74381 0.0
C1780 C 0.70887 0.38735 0.72944 0.0
C1781 C 0.71445 0.3919 0.71075 0.0
C1782 C 0.66545 0.37333 0.77163 0.0
C1783 C 0.67098 0.38977 0.79129 0.0
C1784 C 0.67748 0.37736 0.75682 0.0
C1785 C 0.69542 0.39789 0.76139 0.0
C1786 C 0.70201 0.41371 0.78181 0.0
C1787 C 0.6899 0.40972 0.79659 0.0
H1788 H 0.93181 0.5882 0.55903 0.0
H1789 H 0.98346 0.65441 0.58711 0.0
H1790 H 0.95459 0.57444 0.58719 0.0
H1791 H 0.0057 0.64124 0.61621 0.0
H1792 H 0.05262 0.60816 0.6526 0.0
H1793 H 0.02979 0.62089 0.62372 0.0
H1794 H 0.96661 0.57311 0.6239 0.0
H1795 H 0.98981 0.55878 0.65083 0.0
C1796 C 0.9479 0.59986 0.57153 0.0
C1797 C 0.95588 0.62234 0.57102 0.0
C1798 C 0.96096 0.59204 0.58779 0.0
C1799 C 0.98212 0.60666 0.60419 0.0
C1800 C 0.98985 0.62928 0.60367 0.0
C1801 C 0.97704 0.63694 0.5871 0.0
C1802 C 0.03384 0.60032 0.64643 0.0
C1803 C 0.023 0.58295 0.65474 0.0
C1804 C 0.02065 0.60784 0.62999 0.0
C1805 C 0.99618 0.59839 0.62158 0.0
C1806 C 0.98537 0.58084 0.6298 0.0
C1807 C 0.99866 0.573 0.64588 0.0
H1808 H 0.87771 0.81885 0.09863 0.0
H1809 H 0.90794 0.81474 0.04673 0.0
H1810 H 0.86553 0.77835 0.09254 0.0
H1811 H 0.89545 0.77421 0.04048 0.0
H1812 H 0.88336 0.7026 0.04442 0.0
H1813 H 0.90071 0.74328 0.05694 0.0
H1814 H 0.83585 0.74684 0.0622 0.0
H1815 H 0.81858 0.70621 0.04999 0.0
C1816 C 0.88198 0.80936 0.08609 0.0
C1817 C 0.89366 0.82003 0.07305 0.0
C1818 C 0.87487 0.78613 0.08254 0.0
C1819 C 0.87935 0.77307 0.06592 0.0
C1820 C 0.89191 0.78383 0.05356 0.0
C1821 C 0.89898 0.80706 0.05706 0.0
C1822 C 0.87288 0.71203 0.04851 0.0
C1823 C 0.84952 0.70114 0.04607 0.0
C1824 C 0.88281 0.73535 0.05557 0.0
C1825 C 0.86964 0.74827 0.06045 0.0
C1826 C 0.84656 0.73734 0.0588 0.0
C1827 C 0.8366 0.71405 0.05167 0.0
H1828 H 0.8428 0.15478 0.08677 0.0
H1829 H 0.81303 0.1511 0.1391 0.0
H1830 H 0.86549 0.19416 0.10479 0.0
H1831 H 0.83576 0.19059 0.15706 0.0
H1832 H 0.89937 0.25555 0.19365 0.0
H1833 H 0.87767 0.21574 0.17644 0.0
H1834 H 0.8568 0.22958 0.11172 0.0
H1835 H 0.87849 0.26933 0.12881 0.0
C1836 C 0.84115 0.16233 0.10216 0.0
C1837 C 0.82606 0.14979 0.11147 0.0
C1838 C 0.85406 0.18493 0.11239 0.0
C1839 C 0.85232 0.19545 0.13227 0.0
C1840 C 0.83756 0.18286 0.14182 0.0
C1841 C 0.82447 0.16028 0.13148 0.0
C1842 C 0.89019 0.2501 0.17574 0.0
C1843 C 0.89066 0.26561 0.1626 0.0
C1844 C 0.87767 0.22733 0.16593 0.0
C1845 C 0.86559 0.21958 0.14275 0.0
C1846 C 0.86616 0.23506 0.1296 0.0
C1847 C 0.87848 0.25783 0.13942 0.0
H1848 H 0.94683 0.97068 0.73103 0.0
H1849 H 0.99908 0.98876 0.70045 0.0
H1850 H 0.92643 0.99259 0.71158 0.0
H1851 H 0.97847 0.01029 0.68047 0.0
H1852 H 0.94691 0.06232 0.66176 0.0
H1853 H 0.96835 0.04277 0.68402 0.0
H1854 H 0.9033 0.99179 0.67535 0.0
H1855 H 0.88205 0.01171 0.65363 0.0
C1856 C 0.95374 0.97909 0.71985 0.0
C1857 C 0.97425 0.97768 0.71688 0.0
C1858 C 0.94208 0.99169 0.70872 0.0
C1859 C 0.95063 0.00309 0.69424 0.0
C1860 C 0.97149 0.002 0.69167 0.0
C1861 C 0.98326 0.98958 0.70302 0.0
C1862 C 0.93726 0.04702 0.66481 0.0
C1863 C 0.91282 0.03875 0.65634 0.0
C1864 C 0.94952 0.03572 0.67743 0.0
C1865 C 0.93761 0.01567 0.68156 0.0
C1866 C 0.9131 0.00743 0.673 0.0
C1867 C 0.90085 0.01888 0.66058 0.0
H1868 H 0.49682 0.86548 0.9278 0.0
H1869 H 0.51587 0.83717 0.87387 0.0
H1870 H 0.52601 0.85587 0.9545 0.0
H1871 H 0.54472 0.82727 0.90042 0.0
H1872 H 0.59841 0.85463 0.99571 0.0
H1873 H 0.5697 0.86562 0.9702 0.0
H1874 H 0.54342 0.80017 0.92451 0.0
H1875 H 0.5716 0.78896 0.95031 0.0
C1876 C 0.50723 0.85717 0.92166 0.0
C1877 C 0.50355 0.85138 0.89867 0.0
C1878 C 0.52395 0.85174 0.93693 0.0
C1879 C 0.53735 0.84049 0.92946 0.0
C1880 C 0.53418 0.83538 0.90655 0.0
C1881 C 0.51752 0.84086 0.89132 0.0
C1882 C 0.58602 0.84235 0.98062 0.0
C1883 C 0.58683 0.82071 0.97536 0.0
C1884 C 0.56977 0.84874 0.96587 0.0
C1885 C 0.55432 0.83374 0.9454 0.0
C1886 C 0.55526 0.81217 0.94008 0.0
C1887 C 0.57134 0.80573 0.95489 0.0
H1888 H 0.37085 0.52162 0.76646 0.0
H1889 H 0.40356 0.50368 0.82615 0.0
H1890 H 0.33275 0.50384 0.76895 0.0
H1891 H 0.36558 0.48632 0.82882 0.0
H1892 H 0.29331 0.44492 0.82185 0.0
H1893 H 0.32832 0.45588 0.81189 0.0
H1894 H 0.31275 0.51313 0.7943 0.0
H1895 H 0.27798 0.50224 0.80437 0.0
C1896 C 0.36992 0.51369 0.77998 0.0
C1897 C 0.39029 0.51424 0.79622 0.0
C1898 C 0.34808 0.50361 0.78145 0.0
C1899 C 0.34613 0.4938 0.79915 0.0
C1900 C 0.36642 0.49351 0.81483 0.0
C1901 C 0.38824 0.5036 0.81338 0.0
C1902 C 0.29719 0.45961 0.81545 0.0
C1903 C 0.28265 0.47247 0.81344 0.0
C1904 C 0.31727 0.46594 0.80985 0.0
C1905 C 0.32334 0.48538 0.80231 0.0
C1906 C 0.30834 0.49781 0.79961 0.0
C1907 C 0.28826 0.49147 0.80521 0.0
H1908 H 0.1087 0.45018 0.22274 0.0
H1909 H 0.16903 0.5069 0.26508 0.0
H1910 H 0.08579 0.47454 0.2167 0.0
H1911 H 0.14677 0.53162 0.25811 0.0
H1912 H 0.09804 0.57065 0.25335 0.0
H1913 H 0.11818 0.54477 0.26355 0.0
H1914 H 0.08063 0.50072 0.19703 0.0
H1915 H 0.05958 0.52595 0.18765 0.0
C1916 C 0.117 0.46791 0.23077 0.0
C1917 C 0.14051 0.47667 0.24452 0.0
C1918 C 0.10398 0.48196 0.22716 0.0
C1919 C 0.11438 0.50522 0.2367 0.0
C1920 C 0.13792 0.51383 0.25078 0.0
C1921 C 0.15076 0.49967 0.25479 0.0
C1922 C 0.09402 0.55527 0.24109 0.0
C1923 C 0.07713 0.55009 0.21984 0.0
C1924 C 0.10566 0.54048 0.24682 0.0
C1925 C 0.10111 0.52049 0.23117 0.0
C1926 C 0.08425 0.51556 0.2098 0.0
C1927 C 0.07223 0.53007 0.20431 0.0
H1928 H 0.82687 0.46926 0.78635 0.0
H1929 H 0.80448 0.49148 0.72672 0.0
H1930 H 0.86526 0.47626 0.78332 0.0
H1931 H 0.84317 0.49891 0.72383 0.0
H1932 H 0.92359 0.5375 0.74798 0.0
H1933 H 0.88248 0.52544 0.74381 0.0
H1934 H 0.8867 0.46447 0.76154 0.0
H1935 H 0.92784 0.4767 0.7662 0.0
C1936 C 0.83014 0.47549 0.77247 0.0
C1937 C 0.81295 0.48049 0.75717 0.0
C1938 C 0.85211 0.47942 0.77066 0.0
C1939 C 0.85735 0.48828 0.75336 0.0
C1940 C 0.83981 0.49246 0.73753 0.0
C1941 C 0.81776 0.48844 0.73933 0.0
C1942 C 0.91569 0.5214 0.75073 0.0
C1943 C 0.92914 0.50827 0.75785 0.0
C1944 C 0.89206 0.51443 0.74822 0.0
C1945 C 0.88139 0.49416 0.75274 0.0
C1946 C 0.89452 0.48041 0.75845 0.0
C1947 C 0.9181 0.48739 0.761 0.0
H1948 H 0.72865 0.5069 0.27029 0.0
H1949 H 0.68845 0.52258 0.21266 0.0
H1950 H 0.70393 0.51521 0.29055 0.0
H1951 H 0.66356 0.53084 0.2329 0.0
H1952 H 0.60845 0.51464 0.26763 0.0
H1953 H 0.63431 0.51101 0.24696 0.0
H1954 H 0.69394 0.54587 0.30718 0.0
H1955 H 0.66811 0.54927 0.32791 0.0
C1956 C 0.71494 0.51273 0.26218 0.0
C1957 C 0.71086 0.51465 0.2401 0.0
C1958 C 0.70064 0.51734 0.27373 0.0
C1959 C 0.68186 0.52387 0.26341 0.0
C1960 C 0.67777 0.52572 0.24128 0.0
C1961 C 0.69207 0.52107 0.22972 0.0
C1962 C 0.62708 0.5219 0.27636 0.0
C1963 C 0.6362 0.53221 0.29941 0.0
C1964 C 0.64193 0.51988 0.2645 0.0
C1965 C 0.6662 0.52797 0.27547 0.0
C1966 C 0.67532 0.53914 0.29832 0.0
C1967 C 0.66049 0.54132 0.31013 0.0
loop_
_geom_bond_atom_site_label_1
_geom_bond_atom_site_label_2
_geom_bond_distance
_geom_bond_site_symmetry_2
_ccdc_geom_bond_type
O0 Cd1 2.283 1_655 S
O0 C7 1.275 . S
Cd1 O0 2.283 1_455 S
Cd1 O9 2.392 . S
Cd1 O10 2.399 . S
O2 Cd3 2.385 . S
O2 C7 1.255 . S
Cd3 O2 2.385 . S
Cd3 O4 2.317 1_655 S
O4 Cd3 2.317 1_455 S
O4 C5 1.215 1_455 S
C5 O4 1.215 1_655 S
C5 O6 1.241 . S
O6 C5 1.241 . S
C7 O0 1.275 . S
C7 O2 1.255 . S
C8 O9 1.258 . S
C8 O10 1.256 . S
O9 Cd1 2.392 . S
O9 C8 1.258 . S
O10 Cd1 2.399 . S
O10 C8 1.256 . S
O11 Cd12 2.300 . S
O11 C18 1.275 . S
Cd12 O11 2.300 . S
Cd12 O20 2.381 . S
Cd12 O21 2.378 . S
O13 Cd14 2.385 . S
O13 C18 1.255 . S
Cd14 O13 2.385 . S
Cd14 O15 2.317 . S
O15 Cd14 2.317 . S
O15 C16 1.232 . S
C16 O15 1.232 . S
C16 O17 1.218 . S
O17 C16 1.218 . S
C18 O11 1.275 . S
C18 O13 1.255 . S
C19 O20 1.258 . S
C19 O21 1.256 . S
O20 Cd12 2.381 . S
O20 C19 1.258 . S
O21 Cd12 2.378 . S
O21 C19 1.256 . S
O22 Cd23 2.300 . S
O22 C29 1.275 . S
Cd23 O22 2.300 . S
Cd23 O31 2.381 . S
Cd23 O32 2.378 . S
O24 Cd25 2.385 . S
O24 C29 1.255 . S
Cd25 O24 2.385 . S
Cd25 O26 2.317 . S
O26 Cd25 2.317 . S
O26 C27 1.232 . S
C27 O26 1.232 . S
C27 O28 1.196 1_545 S
O28 C27 1.196 1_565 S
C29 O22 1.275 . S
C29 O24 1.255 . S
C30 O31 1.258 . S
C30 O32 1.256 . S
O31 Cd23 2.381 . S
O31 C30 1.258 . S
O32 Cd23 2.378 . S
O32 C30 1.256 . S
O33 Cd34 2.300 . S
O33 C40 1.275 . S
Cd34 O33 2.300 . S
Cd34 O42 2.381 . S
Cd34 O43 2.378 . S
O35 Cd36 2.385 . S
O35 C40 1.255 . S
Cd36 O35 2.385 . S
Cd36 O37 2.317 . S
O37 Cd36 2.317 . S
O37 C38 1.232 . S
C38 O37 1.232 . S
C38 O39 1.218 . S
O39 C38 1.218 . S
C40 O33 1.275 . S
C40 O35 1.255 . S
C41 O42 1.258 . S
C41 O43 1.256 . S
O42 Cd34 2.381 . S
O42 C41 1.258 . S
O43 Cd34 2.378 . S
O43 C41 1.256 . S
O44 Cd45 2.300 . S
O44 C51 1.275 . S
Cd45 O44 2.300 . S
Cd45 O53 2.381 . S
Cd45 O54 2.378 . S
O46 Cd47 2.385 . S
O46 C51 1.255 . S
Cd47 O46 2.385 . S
Cd47 O48 2.317 . S
O48 Cd47 2.317 . S
O48 C49 1.232 . S
C49 O48 1.232 . S
C49 O50 1.218 . S
O50 C49 1.218 . S
C51 O44 1.275 . S
C51 O46 1.255 . S
C52 O53 1.258 1_556 S
C52 O54 1.256 1_556 S
O53 Cd45 2.381 . S
O53 C52 1.258 1_554 S
O54 Cd45 2.378 . S
O54 C52 1.256 1_554 S
O55 Cd56 2.300 . S
O55 C62 1.275 . S
Cd56 O55 2.300 . S
Cd56 O64 2.381 . S
Cd56 O65 2.378 . S
O57 Cd58 2.385 . S
O57 C62 1.255 . S
Cd58 O57 2.385 . S
Cd58 O59 2.317 . S
O59 Cd58 2.317 . S
O59 C60 1.232 . S
C60 O59 1.232 . S
C60 O61 1.218 . S
O61 C60 1.218 . S
C62 O55 1.275 . S
C62 O57 1.255 . S
C63 O64 1.258 . S
C63 O65 1.256 . S
O64 Cd56 2.381 . S
O64 C63 1.258 . S
O65 Cd56 2.378 . S
O65 C63 1.256 . S
O66 Cd67 2.300 . S
O66 C73 1.275 . S
Cd67 O66 2.300 . S
Cd67 O75 2.381 . S
Cd67 O76 2.378 . S
O68 Cd69 2.385 . S
O68 C73 1.255 . S
Cd69 O68 2.385 . S
Cd69 O70 2.317 . S
O70 Cd69 2.317 . S
O70 C71 1.232 . S
C71 O70 1.232 . S
C71 O72 1.218 . S
O72 C71 1.218 . S
C73 O66 1.275 . S
C73 O68 1.255 . S
C74 O75 1.258 . S
C74 O76 1.256 . S
O75 Cd67 2.381 . S
O75 C74 1.258 . S
O76 Cd67 2.378 . S
O76 C74 1.256 . S
O77 Cd78 2.300 . S
O77 C84 1.275 . S
Cd78 O77 2.300 . S
Cd78 O86 2.381 . S
Cd78 O87 2.378 . S
O79 Cd80 2.385 . S
O79 C84 1.255 . S
Cd80 O79 2.385 . S
Cd80 O81 2.317 . S
O81 Cd80 2.317 . S
O81 C82 1.232 . S
C82 O81 1.232 . S
C82 O83 1.218 . S
O83 C82 1.218 . S
C84 O77 1.275 . S
C84 O79 1.255 . S
C85 O86 1.258 . S
C85 O87 1.256 . S
O86 Cd78 2.381 . S
O86 C85 1.258 . S
O87 Cd78 2.378 . S
O87 C85 1.256 . S
O88 Cd89 2.300 . S
O88 C95 1.275 . S
Cd89 O88 2.300 . S
Cd89 O97 2.381 . S
Cd89 O98 2.378 . S
O90 Cd91 2.385 . S
O90 C95 1.255 . S
Cd91 O90 2.385 . S
Cd91 O92 2.317 . S
O92 Cd91 2.317 . S
O92 C93 1.232 . S
C93 O92 1.232 . S
C93 O94 1.218 . S
O94 C93 1.218 . S
C95 O88 1.275 . S
C95 O90 1.255 . S
C96 O97 1.258 . S
C96 O98 1.256 . S
O97 Cd89 2.381 . S
O97 C96 1.258 . S
O98 Cd89 2.378 . S
O98 C96 1.256 . S
O99 Cd100 2.300 . S
O99 C106 1.275 . S
Cd100 O99 2.300 . S
Cd100 O108 2.381 . S
Cd100 O109 2.378 . S
O101 Cd102 2.385 . S
O101 C106 1.255 . S
Cd102 O101 2.385 . S
Cd102 O103 2.317 . S
O103 Cd102 2.317 . S
O103 C104 1.232 . S
C104 O103 1.232 . S
C104 O105 1.218 . S
O105 C104 1.218 . S
C106 O99 1.275 . S
C106 O101 1.255 . S
C107 O108 1.258 . S
C107 O109 1.256 . S
O108 Cd100 2.381 . S
O108 C107 1.258 . S
O109 Cd100 2.378 . S
O109 C107 1.256 . S
O110 Cd111 2.300 . S
O110 C117 1.275 . S
Cd111 O110 2.300 . S
Cd111 O119 2.381 1_455 S
Cd111 O120 2.378 . S
O112 Cd113 2.385 . S
O112 C117 1.255 . S
Cd113 O112 2.385 . S
Cd113 O114 2.317 . S
O114 Cd113 2.317 . S
O114 C115 1.230 1_455 S
C115 O114 1.230 1_655 S
C115 O116 1.205 1_655 S
O116 C115 1.205 1_455 S
C117 O110 1.275 . S
C117 O112 1.255 . S
C118 O119 1.258 . S
C118 O120 1.256 1_655 S
O119 Cd111 2.381 1_655 S
O119 C118 1.258 . S
O120 Cd111 2.378 . S
O120 C118 1.256 1_455 S
O121 Cd122 2.300 . S
O121 C128 1.275 . S
Cd122 O121 2.300 . S
Cd122 O130 2.381 . S
Cd122 O131 2.378 . S
O123 Cd124 2.385 . S
O123 C128 1.255 . S
Cd124 O123 2.385 . S
Cd124 O125 2.317 . S
O125 Cd124 2.317 . S
O125 C126 1.232 . S
C126 O125 1.232 . S
C126 O127 1.218 . S
O127 C126 1.218 . S
C128 O121 1.275 . S
C128 O123 1.255 . S
C129 O130 1.258 . S
C129 O131 1.256 . S
O130 Cd122 2.381 . S
O130 C129 1.258 . S
O131 Cd122 2.378 . S
O131 C129 1.256 . S
O132 Cd133 2.300 . S
O132 C139 1.275 . S
Cd133 O132 2.300 . S
Cd133 O141 2.381 . S
Cd133 O142 2.378 . S
O134 Cd135 2.385 . S
O134 C139 1.255 . S
Cd135 O134 2.385 . S
Cd135 O136 2.317 . S
O136 Cd135 2.317 . S
O136 C137 1.232 . S
C137 O136 1.232 . S
C137 O138 1.218 . S
O138 C137 1.218 . S
C139 O132 1.275 . S
C139 O134 1.255 . S
C140 O141 1.258 . S
C140 O142 1.256 . S
O141 Cd133 2.381 . S
O141 C140 1.258 . S
O142 Cd133 2.378 . S
O142 C140 1.256 . S
O143 Cd144 2.300 . S
O143 C150 1.275 . S
Cd144 O143 2.300 . S
Cd144 O152 2.381 . S
Cd144 O153 2.378 . S
O145 Cd146 2.385 . S
O145 C150 1.255 . S
Cd146 O145 2.385 . S
Cd146 O147 2.317 . S
O147 Cd146 2.317 . S
O147 C148 1.232 . S
C148 O147 1.232 . S
C148 O149 1.218 . S
O149 C148 1.218 . S
C150 O143 1.275 . S
C150 O145 1.255 . S
C151 O152 1.258 . S
C151 O153 1.256 . S
O152 Cd144 2.381 . S
O152 C151 1.258 . S
O153 Cd144 2.378 . S
O153 C151 1.256 . S
O154 Cd155 2.300 . S
O154 C161 1.275 . S
Cd155 O154 2.300 . S
Cd155 O163 2.381 . S
Cd155 O164 2.378 . S
O156 Cd157 2.385 . S
O156 C161 1.255 . S
Cd157 O156 2.385 . S
Cd157 O158 2.317 . S
O158 Cd157 2.317 . S
O158 C159 1.232 . S
C159 O158 1.232 . S
C159 O160 1.218 . S
O160 C159 1.218 . S
C161 O154 1.275 . S
C161 O156 1.255 . S
C162 O163 1.258 . S
C162 O164 1.256 . S
O163 Cd155 2.381 . S
O163 C162 1.258 . S
O164 Cd155 2.378 . S
O164 C162 1.256 . S
O165 Cd166 2.300 . S
O165 C172 1.275 . S
Cd166 O165 2.300 . S
Cd166 O174 2.381 . S
Cd166 O175 2.378 . S
O167 Cd168 2.370 1_545 S
O167 C172 1.267 . S
Cd168 O167 2.370 1_565 S
Cd168 O169 2.317 . S
O169 Cd168 2.317 . S
O169 C170 1.232 . S
C170 O169 1.232 . S
C170 O171 1.218 . S
O171 C170 1.218 . S
C172 O165 1.275 . S
C172 O167 1.267 . S
C173 O174 1.258 . S
C173 O175 1.256 . S
O174 Cd166 2.381 . S
O174 C173 1.258 . S
O175 Cd166 2.378 . S
O175 C173 1.256 . S
O176 Cd177 2.300 . S
O176 C183 1.275 1_455 S
Cd177 O176 2.300 . S
Cd177 O185 2.381 . S
Cd177 O186 2.378 . S
O178 Cd179 2.385 . S
O178 C183 1.255 . S
Cd179 O178 2.385 . S
Cd179 O180 2.317 . S
O180 Cd179 2.317 . S
O180 C181 1.232 . S
C181 O180 1.232 . S
C181 O182 1.218 . S
O182 C181 1.218 . S
C183 O176 1.275 1_655 S
C183 O178 1.255 . S
C184 O185 1.258 . S
C184 O186 1.256 . S
O185 Cd177 2.381 . S
O185 C184 1.258 . S
O186 Cd177 2.378 . S
O186 C184 1.256 . S
O187 Cd188 2.320 . S
O187 C194 1.236 1_565 S
Cd188 O187 2.320 . S
Cd188 O196 2.381 . S
Cd188 O197 2.378 . S
O189 Cd190 2.385 . S
O189 C194 1.255 . S
Cd190 O189 2.385 . S
Cd190 O191 2.317 . S
O191 Cd190 2.317 . S
O191 C192 1.232 . S
C192 O191 1.232 . S
C192 O193 1.218 . S
O193 C192 1.218 . S
C194 O187 1.236 1_545 S
C194 O189 1.255 . S
C195 O196 1.258 . S
C195 O197 1.256 . S
O196 Cd188 2.381 . S
O196 C195 1.258 . S
O197 Cd188 2.378 . S
O197 C195 1.256 . S
O198 Cd199 2.300 . S
O198 C205 1.275 . S
Cd199 O198 2.300 . S
Cd199 O207 2.381 . S
Cd199 O208 2.378 . S
O200 Cd201 2.385 1_554 S
O200 C205 1.255 . S
Cd201 O200 2.385 1_556 S
Cd201 O202 2.317 1_556 S
O202 Cd201 2.317 1_554 S
O202 C203 1.232 . S
C203 O202 1.232 . S
C203 O204 1.218 . S
O204 C203 1.218 . S
C205 O198 1.275 . S
C205 O200 1.255 . S
C206 O207 1.258 . S
C206 O208 1.256 . S
O207 Cd199 2.381 . S
O207 C206 1.258 . S
O208 Cd199 2.378 . S
O208 C206 1.256 . S
O209 Cd210 2.300 . S
O209 C216 1.275 . S
Cd210 O209 2.300 . S
Cd210 O218 2.381 . S
Cd210 O219 2.378 . S
O211 Cd212 2.385 . S
O211 C216 1.255 . S
Cd212 O211 2.385 . S
Cd212 O213 2.317 . S
O213 Cd212 2.317 . S
O213 C214 1.232 . S
C214 O213 1.232 . S
C214 O215 1.218 . S
O215 C214 1.218 . S
C216 O209 1.275 . S
C216 O211 1.255 . S
C217 O218 1.258 . S
C217 O219 1.256 . S
O218 Cd210 2.381 . S
O218 C217 1.258 . S
O219 Cd210 2.378 . S
O219 C217 1.256 . S
O220 Cd221 2.300 . S
O220 C227 1.275 . S
Cd221 O220 2.300 . S
Cd221 O229 2.381 . S
Cd221 O230 2.378 . S
O222 Cd223 2.385 . S
O222 C227 1.255 . S
Cd223 O222 2.385 . S
Cd223 O224 2.317 . S
O224 Cd223 2.317 . S
O224 C225 1.232 . S
C225 O224 1.232 . S
C225 O226 1.218 . S
O226 C225 1.218 . S
C227 O220 1.275 . S
C227 O222 1.255 . S
C228 O229 1.258 . S
C228 O230 1.256 . S
O229 Cd221 2.381 . S
O229 C228 1.258 . S
O230 Cd221 2.378 . S
O230 C228 1.256 . S
O231 Cd232 2.300 . S
O231 C238 1.275 . S
Cd232 O231 2.300 . S
Cd232 O240 2.381 . S
Cd232 O241 2.378 . S
O233 Cd234 2.385 . S
O233 C238 1.255 . S
Cd234 O233 2.385 . S
Cd234 O235 2.317 . S
O235 Cd234 2.317 . S
O235 C236 1.232 . S
C236 O235 1.232 . S
C236 O237 1.218 . S
O237 C236 1.218 . S
C238 O231 1.275 . S
C238 O233 1.255 . S
C239 O240 1.258 . S
C239 O241 1.256 . S
O240 Cd232 2.381 . S
O240 C239 1.258 . S
O241 Cd232 2.378 . S
O241 C239 1.256 . S
O242 Cd243 2.300 . S
O242 C249 1.275 . S
Cd243 O242 2.300 . S
Cd243 O251 2.377 1_545 S
Cd243 O252 2.378 . S
O244 Cd245 2.385 . S
O244 C249 1.255 . S
Cd245 O244 2.385 . S
Cd245 O246 2.317 . S
O246 Cd245 2.317 . S
O246 C247 1.232 . S
C247 O246 1.232 . S
C247 O248 1.218 . S
O248 C247 1.218 . S
C249 O242 1.275 . S
C249 O244 1.255 . S
C250 O251 1.254 1_545 S
C250 O252 1.256 . S
O251 Cd243 2.377 1_565 S
O251 C250 1.254 1_565 S
O252 Cd243 2.378 . S
O252 C250 1.256 . S
O253 Cd254 2.300 . S
O253 C260 1.275 . S
Cd254 O253 2.300 . S
Cd254 O262 2.381 . S
Cd254 O263 2.378 . S
O255 Cd256 2.385 . S
O255 C260 1.255 . S
Cd256 O255 2.385 . S
Cd256 O257 2.317 . S
O257 Cd256 2.317 . S
O257 C258 1.232 . S
C258 O257 1.232 . S
C258 O259 1.218 . S
O259 C258 1.218 . S
C260 O253 1.275 . S
C260 O255 1.255 . S
C261 O262 1.258 . S
C261 O263 1.256 . S
O262 Cd254 2.381 . S
O262 C261 1.258 . S
O263 Cd254 2.378 . S
O263 C261 1.256 . S
O264 Cd265 2.300 . S
O264 C271 1.275 . S
Cd265 O264 2.300 . S
Cd265 O273 2.381 . S
Cd265 O274 2.378 . S
O266 Cd267 2.385 . S
O266 C271 1.255 . S
Cd267 O266 2.385 . S
Cd267 O268 2.317 . S
O268 Cd267 2.317 . S
O268 C269 1.232 . S
C269 O268 1.232 . S
C269 O270 1.218 . S
O270 C269 1.218 . S
C271 O264 1.275 . S
C271 O266 1.255 . S
C272 O273 1.258 . S
C272 O274 1.256 . S
O273 Cd265 2.381 . S
O273 C272 1.258 . S
O274 Cd265 2.378 . S
O274 C272 1.256 . S
O275 Cd276 2.300 . S
O275 C282 1.275 . S
Cd276 O275 2.300 . S
Cd276 O284 2.381 . S
Cd276 O285 2.378 . S
O277 Cd278 2.385 . S
O277 C282 1.255 . S
Cd278 O277 2.385 . S
Cd278 O279 2.317 . S
O279 Cd278 2.317 . S
O279 C280 1.232 . S
C280 O279 1.232 . S
C280 O281 1.218 . S
O281 C280 1.218 . S
C282 O275 1.275 . S
C282 O277 1.255 . S
C283 O284 1.258 . S
C283 O285 1.256 . S
O284 Cd276 2.381 . S
O284 C283 1.258 . S
O285 Cd276 2.378 . S
O285 C283 1.256 . S
O286 Cd287 2.300 . S
O286 C293 1.275 . S
Cd287 O286 2.300 . S
Cd287 O295 2.381 . S
Cd287 O296 2.378 . S
O288 Cd289 2.385 . S
O288 C293 1.255 . S
Cd289 O288 2.385 . S
Cd289 O290 2.317 . S
O290 Cd289 2.317 . S
O290 C291 1.232 . S
C291 O290 1.232 . S
C291 O292 1.218 . S
O292 C291 1.218 . S
C293 O286 1.275 . S
C293 O288 1.255 . S
C294 O295 1.258 . S
C294 O296 1.256 . S
O295 Cd287 2.381 . S
O295 C294 1.258 . S
O296 Cd287 2.378 . S
O296 C294 1.256 . S
O297 Cd298 2.300 . S
O297 C304 1.275 . S
Cd298 O297 2.300 . S
Cd298 O306 2.381 . S
Cd298 O307 2.378 . S
O299 Cd300 2.385 . S
O299 C304 1.255 . S
Cd300 O299 2.385 . S
Cd300 O301 2.317 . S
O301 Cd300 2.317 . S
O301 C302 1.232 . S
C302 O301 1.232 . S
C302 O303 1.218 . S
O303 C302 1.218 . S
C304 O297 1.275 . S
C304 O299 1.255 . S
C305 O306 1.258 . S
C305 O307 1.256 . S
O306 Cd298 2.381 . S
O306 C305 1.258 . S
O307 Cd298 2.378 . S
O307 C305 1.256 . S
O308 Cd309 2.300 . S
O308 C315 1.275 . S
Cd309 O308 2.300 . S
Cd309 O317 2.381 . S
Cd309 O318 2.378 . S
O310 Cd311 2.385 . S
O310 C315 1.255 . S
Cd311 O310 2.385 . S
Cd311 O312 2.317 . S
O312 Cd311 2.317 . S
O312 C313 1.232 . S
C313 O312 1.232 . S
C313 O314 1.218 . S
O314 C313 1.218 . S
C315 O308 1.275 . S
C315 O310 1.255 . S
C316 O317 1.258 . S
C316 O318 1.256 . S
O317 Cd309 2.381 . S
O317 C316 1.258 . S
O318 Cd309 2.378 . S
O318 C316 1.256 . S
O319 Cd320 2.300 . S
O319 C326 1.275 . S
Cd320 O319 2.300 . S
Cd320 O328 2.381 . S
Cd320 O329 2.378 . S
O321 Cd322 2.385 . S
O321 C326 1.255 . S
Cd322 O321 2.385 . S
Cd322 O323 2.317 . S
O323 Cd322 2.317 . S
O323 C324 1.232 . S
C324 O323 1.232 . S
C324 O325 1.218 . S
O325 C324 1.218 . S
C326 O319 1.275 . S
C326 O321 1.255 . S
C327 O328 1.258 . S
C327 O329 1.256 . S
O328 Cd320 2.381 . S
O328 C327 1.258 . S
O329 Cd320 2.378 . S
O329 C327 1.256 . S
O330 Cd331 2.300 . S
O330 C337 1.275 . S
Cd331 O330 2.300 . S
Cd331 O339 2.381 . S
Cd331 O340 2.378 . S
O332 Cd333 2.385 . S
O332 C337 1.255 . S
Cd333 O332 2.385 . S
Cd333 O334 2.317 . S
O334 Cd333 2.317 . S
O334 C335 1.232 . S
C335 O334 1.232 . S
C335 O336 1.218 . S
O336 C335 1.218 . S
C337 O330 1.275 . S
C337 O332 1.255 . S
C338 O339 1.258 . S
C338 O340 1.256 . S
O339 Cd331 2.381 . S
O339 C338 1.258 . S
O340 Cd331 2.378 . S
O340 C338 1.256 . S
O341 Cd342 2.300 . S
O341 C348 1.275 . S
Cd342 O341 2.300 . S
Cd342 O350 2.381 . S
Cd342 O351 2.378 . S
O343 Cd344 2.385 . S
O343 C348 1.255 . S
Cd344 O343 2.385 . S
Cd344 O345 2.317 . S
O345 Cd344 2.317 . S
O345 C346 1.232 . S
C346 O345 1.232 . S
C346 O347 1.218 . S
O347 C346 1.218 . S
C348 O341 1.275 . S
C348 O343 1.255 . S
C349 O350 1.258 . S
C349 O351 1.256 . S
O350 Cd342 2.381 . S
O350 C349 1.258 . S
O351 Cd342 2.378 . S
O351 C349 1.256 . S
O352 Cd353 2.300 . S
O352 C359 1.275 . S
Cd353 O352 2.300 . S
Cd353 O361 2.381 . S
Cd353 O362 2.378 . S
O354 Cd355 2.385 . S
O354 C359 1.255 . S
Cd355 O354 2.385 . S
Cd355 O356 2.317 . S
O356 Cd355 2.317 . S
O356 C357 1.232 . S
C357 O356 1.232 . S
C357 O358 1.218 . S
O358 C357 1.218 . S
C359 O352 1.275 . S
C359 O354 1.255 . S
C360 O361 1.258 . S
C360 O362 1.256 . S
O361 Cd353 2.381 . S
O361 C360 1.258 . S
O362 Cd353 2.378 . S
O362 C360 1.256 . S
O363 Cd364 2.300 . S
O363 C370 1.275 . S
Cd364 O363 2.300 . S
Cd364 O372 2.381 1_655 S
Cd364 O373 2.378 1_655 S
O365 Cd366 2.385 . S
O365 C370 1.255 . S
Cd366 O365 2.385 . S
Cd366 O367 2.317 . S
O367 Cd366 2.317 . S
O367 C368 1.232 . S
C368 O367 1.232 . S
C368 O369 1.218 . S
O369 C368 1.218 . S
C370 O363 1.275 . S
C370 O365 1.255 . S
C371 O372 1.258 . S
C371 O373 1.256 . S
O372 Cd364 2.381 1_455 S
O372 C371 1.258 . S
O373 Cd364 2.378 1_455 S
O373 C371 1.256 . S
O374 Cd375 2.300 . S
O374 C381 1.275 . S
Cd375 O374 2.300 . S
Cd375 O383 2.381 . S
Cd375 O384 2.378 . S
O376 Cd377 2.385 . S
O376 C381 1.255 . S
Cd377 O376 2.385 . S
Cd377 O378 2.317 . S
O378 Cd377 2.317 . S
O378 C379 1.232 . S
C379 O378 1.232 . S
C379 O380 1.218 . S
O380 C379 1.218 . S
C381 O374 1.275 . S
C381 O376 1.255 . S
C382 O383 1.258 . S
C382 O384 1.256 . S
O383 Cd375 2.381 . S
O383 C382 1.258 . S
O384 Cd375 2.378 . S
O384 C382 1.256 . S
O385 Cd386 2.300 . S
O385 C392 1.275 . S
Cd386 O385 2.300 . S
Cd386 O394 2.381 . S
Cd386 O395 2.378 . S
O387 Cd388 2.385 . S
O387 C392 1.255 . S
Cd388 O387 2.385 . S
Cd388 O389 2.317 . S
O389 Cd388 2.317 . S
O389 C390 1.232 . S
C390 O389 1.232 . S
C390 O391 1.218 . S
O391 C390 1.218 . S
C392 O385 1.275 . S
C392 O387 1.255 . S
C393 O394 1.258 . S
C393 O395 1.256 . S
O394 Cd386 2.381 . S
O394 C393 1.258 . S
O395 Cd386 2.378 . S
O395 C393 1.256 . S
O396 Cd397 2.300 . S
O396 C403 1.275 . S
Cd397 O396 2.300 . S
Cd397 O405 2.381 . S
Cd397 O406 2.378 . S
O398 Cd399 2.385 1_554 S
O398 C403 1.255 . S
Cd399 O398 2.385 1_556 S
Cd399 O400 2.317 . S
O400 Cd399 2.317 . S
O400 C401 1.232 . S
C401 O400 1.232 . S
C401 O402 1.218 . S
O402 C401 1.218 . S
C403 O396 1.275 . S
C403 O398 1.255 . S
C404 O405 1.258 . S
C404 O406 1.256 . S
O405 Cd397 2.381 . S
O405 C404 1.258 . S
O406 Cd397 2.378 . S
O406 C404 1.256 . S
O407 Cd408 2.300 . S
O407 C414 1.275 . S
Cd408 O407 2.300 . S
Cd408 O416 2.381 . S
Cd408 O417 2.378 . S
O409 Cd410 2.385 . S
O409 C414 1.255 . S
Cd410 O409 2.385 . S
Cd410 O411 2.317 . S
O411 Cd410 2.317 . S
O411 C412 1.232 . S
C412 O411 1.232 . S
C412 O413 1.218 . S
O413 C412 1.218 . S
C414 O407 1.275 . S
C414 O409 1.255 . S
C415 O416 1.258 . S
C415 O417 1.256 . S
O416 Cd408 2.381 . S
O416 C415 1.258 . S
O417 Cd408 2.378 . S
O417 C415 1.256 . S
O418 Cd419 2.300 . S
O418 C425 1.275 . S
Cd419 O418 2.300 . S
Cd419 O427 2.381 . S
Cd419 O428 2.378 . S
O420 Cd421 2.385 . S
O420 C425 1.255 . S
Cd421 O420 2.385 . S
Cd421 O422 2.317 . S
O422 Cd421 2.317 . S
O422 C423 1.232 . S
C423 O422 1.232 . S
C423 O424 1.218 . S
O424 C423 1.218 . S
C425 O418 1.275 . S
C425 O420 1.255 . S
C426 O427 1.258 . S
C426 O428 1.256 . S
O427 Cd419 2.381 . S
O427 C426 1.258 . S
O428 Cd419 2.378 . S
O428 C426 1.256 . S
O429 Cd430 2.300 . S
O429 C436 1.275 . S
Cd430 O429 2.300 . S
Cd430 O438 2.381 . S
Cd430 O439 2.378 . S
O431 Cd432 2.385 . S
O431 C436 1.255 . S
Cd432 O431 2.385 . S
Cd432 O433 2.317 . S
O433 Cd432 2.317 . S
O433 C434 1.232 . S
C434 O433 1.232 . S
C434 O435 1.218 . S
O435 C434 1.218 . S
C436 O429 1.275 . S
C436 O431 1.255 . S
C437 O438 1.258 . S
C437 O439 1.256 . S
O438 Cd430 2.381 . S
O438 C437 1.258 . S
O439 Cd430 2.378 . S
O439 C437 1.256 . S
O440 Cd441 2.300 . S
O440 C447 1.275 . S
Cd441 O440 2.300 . S
Cd441 O449 2.381 1_545 S
Cd441 O450 2.378 1_545 S
O442 Cd443 2.385 . S
O442 C447 1.255 . S
Cd443 O442 2.385 . S
Cd443 O444 2.317 1_545 S
O444 Cd443 2.317 1_565 S
O444 C445 1.232 . S
C445 O444 1.232 . S
C445 O446 1.218 1_565 S
O446 C445 1.218 1_545 S
C447 O440 1.275 . S
C447 O442 1.255 . S
C448 O449 1.258 . S
C448 O450 1.256 . S
O449 Cd441 2.381 1_565 S
O449 C448 1.258 . S
O450 Cd441 2.378 1_565 S
O450 C448 1.256 . S
O451 Cd452 2.300 1_655 S
O451 C458 1.275 . S
Cd452 O451 2.300 1_455 S
Cd452 O460 2.381 . S
Cd452 O461 2.378 . S
O453 Cd454 2.385 . S
O453 C458 1.255 1_455 S
Cd454 O453 2.385 . S
Cd454 O455 2.317 . S
O455 Cd454 2.317 . S
O455 C456 1.232 . S
C456 O455 1.232 . S
C456 O457 1.218 . S
O457 C456 1.218 . S
C458 O451 1.275 . S
C458 O453 1.255 1_655 S
C459 O460 1.258 . S
C459 O461 1.256 . S
O460 Cd452 2.381 . S
O460 C459 1.258 . S
O461 Cd452 2.378 . S
O461 C459 1.256 . S
O462 Cd463 2.300 . S
O462 C469 1.275 . S
Cd463 O462 2.300 . S
Cd463 O471 2.381 . S
Cd463 O472 2.378 . S
O464 Cd465 2.385 . S
O464 C469 1.255 . S
Cd465 O464 2.385 . S
Cd465 O466 2.317 . S
O466 Cd465 2.317 . S
O466 C467 1.232 . S
C467 O466 1.232 . S
C467 O468 1.218 . S
O468 C467 1.218 . S
C469 O462 1.275 . S
C469 O464 1.255 . S
C470 O471 1.258 . S
C470 O472 1.256 . S
O471 Cd463 2.381 . S
O471 C470 1.258 . S
O472 Cd463 2.378 . S
O472 C470 1.256 . S
O473 Cd474 2.300 . S
O473 C480 1.275 . S
Cd474 O473 2.300 . S
Cd474 O482 2.381 . S
Cd474 O483 2.378 . S
O475 Cd476 2.385 . S
O475 C480 1.255 . S
Cd476 O475 2.385 . S
Cd476 O477 2.317 . S
O477 Cd476 2.317 . S
O477 C478 1.232 . S
C478 O477 1.232 . S
C478 O479 1.218 . S
O479 C478 1.218 . S
C480 O473 1.275 . S
C480 O475 1.255 . S
C481 O482 1.258 . S
C481 O483 1.256 . S
O482 Cd474 2.381 . S
O482 C481 1.258 . S
O483 Cd474 2.378 . S
O483 C481 1.256 . S
O484 Cd485 2.300 . S
O484 C491 1.275 . S
Cd485 O484 2.300 . S
Cd485 O493 2.381 . S
Cd485 O494 2.378 . S
O486 Cd487 2.385 . S
O486 C491 1.255 . S
Cd487 O486 2.385 . S
Cd487 O488 2.317 . S
O488 Cd487 2.317 . S
O488 C489 1.232 . S
C489 O488 1.232 . S
C489 O490 1.218 . S
O490 C489 1.218 . S
C491 O484 1.275 . S
C491 O486 1.255 . S
C492 O493 1.258 . S
C492 O494 1.256 . S
O493 Cd485 2.381 . S
O493 C492 1.258 . S
O494 Cd485 2.378 . S
O494 C492 1.256 . S
O495 Cd496 2.300 . S
O495 C502 1.275 . S
Cd496 O495 2.300 . S
Cd496 O504 2.381 . S
Cd496 O505 2.378 . S
O497 Cd498 2.385 . S
O497 C502 1.255 . S
Cd498 O497 2.385 . S
Cd498 O499 2.317 . S
O499 Cd498 2.317 . S
O499 C500 1.232 . S
C500 O499 1.232 . S
C500 O501 1.218 . S
O501 C500 1.218 . S
C502 O495 1.275 . S
C502 O497 1.255 . S
C503 O504 1.258 . S
C503 O505 1.256 . S
O504 Cd496 2.381 . S
O504 C503 1.258 . S
O505 Cd496 2.378 . S
O505 C503 1.256 . S
O506 Cd507 2.300 . S
O506 C513 1.275 . S
Cd507 O506 2.300 . S
Cd507 O515 2.381 . S
Cd507 O516 2.378 . S
O508 Cd509 2.385 . S
O508 C513 1.255 . S
Cd509 O508 2.385 . S
Cd509 O510 2.317 . S
O510 Cd509 2.317 . S
O510 C511 1.232 . S
C511 O510 1.232 . S
C511 O512 1.218 . S
O512 C511 1.218 . S
C513 O506 1.275 . S
C513 O508 1.255 . S
C514 O515 1.258 . S
C514 O516 1.256 . S
O515 Cd507 2.381 . S
O515 C514 1.258 . S
O516 Cd507 2.378 . S
O516 C514 1.256 . S
O517 Cd518 2.300 . S
O517 C524 1.275 . S
Cd518 O517 2.300 . S
Cd518 O526 2.381 . S
Cd518 O527 2.378 . S
O519 Cd520 2.385 . S
O519 C524 1.255 . S
Cd520 O519 2.385 . S
Cd520 O521 2.317 . S
O521 Cd520 2.317 . S
O521 C522 1.232 . S
C522 O521 1.232 . S
C522 O523 1.218 . S
O523 C522 1.218 . S
C524 O517 1.275 . S
C524 O519 1.255 . S
C525 O526 1.258 . S
C525 O527 1.256 . S
O526 Cd518 2.381 . S
O526 C525 1.258 . S
O527 Cd518 2.378 . S
O527 C525 1.256 . S
H528 C536 0.950 . S
H529 C541 0.950 . S
H530 C538 0.950 . S
H531 C540 0.950 . S
H532 C542 0.950 . S
H533 C544 0.950 . S
H534 C546 0.950 . S
H535 C547 0.950 . S
C536 H528 0.950 . S
C536 C537 1.386 . S
C536 C538 1.391 . S
C537 C536 1.386 . S
C537 C541 1.393 1_655 S
C538 H530 0.950 . S
C538 C536 1.391 . S
C538 C539 1.400 . S
C539 C538 1.400 . S
C539 C540 1.398 1_655 S
C539 C545 1.491 . S
C540 H531 0.950 . S
C540 C539 1.398 1_455 S
C540 C541 1.391 . S
C541 H529 0.950 . S
C541 C537 1.393 1_455 S
C541 C540 1.391 . S
C542 H532 0.950 . S
C542 C543 1.386 . S
C542 C544 1.391 . S
C543 C542 1.386 . S
C543 C547 1.393 1_455 S
C544 H533 0.950 . S
C544 C542 1.391 . S
C544 C545 1.400 1_455 S
C545 C539 1.491 . S
C545 C544 1.400 1_655 S
C545 C546 1.398 . S
C546 H534 0.950 . S
C546 C545 1.398 . S
C546 C547 1.391 . S
C547 H535 0.950 . S
C547 C543 1.393 1_655 S
C547 C546 1.391 . S
H548 C556 0.950 . S
H549 C561 0.950 . S
H550 C558 0.950 . S
H551 C560 0.950 . S
H552 C562 0.950 . S
H553 C564 0.950 . S
H554 C566 0.950 . S
H555 C567 0.950 . S
C556 H548 0.950 . S
C556 C557 1.386 . S
C556 C558 1.391 . S
C557 C556 1.386 . S
C557 C561 1.393 . S
C558 H550 0.950 . S
C558 C556 1.391 . S
C558 C559 1.400 . S
C559 C558 1.400 . S
C559 C560 1.398 . S
C559 C565 1.491 . S
C560 H551 0.950 . S
C560 C559 1.398 . S
C560 C561 1.391 . S
C561 H549 0.950 . S
C561 C557 1.393 . S
C561 C560 1.391 . S
C562 H552 0.950 . S
C562 C563 1.386 . S
C562 C564 1.391 . S
C563 C562 1.386 . S
C563 C567 1.393 . S
C564 H553 0.950 . S
C564 C562 1.391 . S
C564 C565 1.400 . S
C565 C559 1.491 . S
C565 C564 1.400 . S
C565 C566 1.398 . S
C566 H554 0.950 . S
C566 C565 1.398 . S
C566 C567 1.391 . S
C567 H555 0.950 . S
C567 C563 1.393 . S
C567 C566 1.391 . S
H568 C576 0.950 . S
H569 C581 0.950 . S
H570 C578 0.950 . S
H571 C580 0.950 . S
H572 C582 0.950 . S
H573 C584 0.950 . S
H574 C586 0.950 . S
H575 C587 0.976 . S
C576 H568 0.950 . S
C576 C577 1.386 . S
C576 C578 1.391 . S
C577 C576 1.386 . S
C577 C581 1.393 . S
C578 H570 0.950 . S
C578 C576 1.391 . S
C578 C579 1.400 . S
C579 C578 1.400 . S
C579 C580 1.398 . S
C579 C585 1.491 . S
C580 H571 0.950 . S
C580 C579 1.398 . S
C580 C581 1.391 . S
C581 H569 0.950 . S
C581 C577 1.393 . S
C581 C580 1.391 . S
C582 H572 0.950 . S
C582 C583 1.388 . S
C582 C584 1.391 . S
C583 C582 1.388 . S
C583 C587 1.406 1_565 S
C584 H573 0.950 . S
C584 C582 1.391 . S
C584 C585 1.400 . S
C585 C579 1.491 . S
C585 C584 1.400 . S
C585 C586 1.398 . S
C586 H574 0.950 . S
C586 C585 1.398 . S
C586 C587 1.354 1_565 S
C587 H575 0.976 . S
C587 C583 1.406 1_545 S
C587 C586 1.354 1_545 S
H588 C596 0.950 . S
H589 C601 0.950 . S
H590 C598 0.950 . S
H591 C600 0.950 . S
H592 C602 0.950 . S
H593 C604 0.950 . S
H594 C606 0.950 . S
H595 C607 0.950 . S
C596 H588 0.950 . S
C596 C597 1.386 . S
C596 C598 1.391 . S
C597 C596 1.386 . S
C597 C601 1.393 . S
C598 H590 0.950 . S
C598 C596 1.391 . S
C598 C599 1.400 . S
C599 C598 1.400 . S
C599 C600 1.398 . S
C599 C605 1.491 . S
C600 H591 0.950 . S
C600 C599 1.398 . S
C600 C601 1.391 . S
C601 H589 0.950 . S
C601 C597 1.393 . S
C601 C600 1.391 . S
C602 H592 0.950 . S
C602 C603 1.386 . S
C602 C604 1.391 . S
C603 C602 1.386 . S
C603 C607 1.393 . S
C604 H593 0.950 . S
C604 C602 1.391 . S
C604 C605 1.400 . S
C605 C599 1.491 . S
C605 C604 1.400 . S
C605 C606 1.398 . S
C606 H594 0.950 . S
C606 C605 1.398 . S
C606 C607 1.391 . S
C607 H595 0.950 . S
C607 C603 1.393 . S
C607 C606 1.391 . S
H608 C616 0.950 . S
H609 C621 0.950 . S
H610 C618 0.954 1_545 S
H611 C620 0.950 . S
H612 C622 0.950 . S
H613 C624 0.950 . S
H614 C626 0.950 . S
H615 C627 0.950 . S
C616 H608 0.950 . S
C616 C617 1.386 . S
C616 C618 1.354 1_545 S
C617 C616 1.386 . S
C617 C621 1.393 1_545 S
C618 H610 0.954 1_565 S
C618 C616 1.354 1_565 S
C618 C619 1.435 . S
C619 C618 1.435 . S
C619 C620 1.398 . S
C619 C625 1.491 . S
C620 H611 0.950 . S
C620 C619 1.398 . S
C620 C621 1.391 . S
C621 H609 0.950 . S
C621 C617 1.393 1_565 S
C621 C620 1.391 . S
C622 H612 0.950 . S
C622 C623 1.386 . S
C622 C624 1.391 . S
C623 C622 1.386 . S
C623 C627 1.393 . S
C624 H613 0.950 . S
C624 C622 1.391 . S
C624 C625 1.400 . S
C625 C619 1.491 . S
C625 C624 1.400 . S
C625 C626 1.398 . S
C626 H614 0.950 . S
C626 C625 1.398 . S
C626 C627 1.391 . S
C627 H615 0.950 . S
C627 C623 1.393 . S
C627 C626 1.391 . S
H628 C636 0.950 . S
H629 C641 0.950 . S
H630 C638 0.950 . S
H631 C640 0.950 . S
H632 C642 0.950 . S
H633 C644 0.950 . S
H634 C646 0.950 . S
H635 C647 0.950 . S
C636 H628 0.950 . S
C636 C637 1.386 . S
C636 C638 1.391 . S
C637 C636 1.386 . S
C637 C641 1.393 . S
C638 H630 0.950 . S
C638 C636 1.391 . S
C638 C639 1.400 . S
C639 C638 1.400 . S
C639 C640 1.398 . S
C639 C645 1.491 . S
C640 H631 0.950 . S
C640 C639 1.398 . S
C640 C641 1.391 . S
C641 H629 0.950 . S
C641 C637 1.393 . S
C641 C640 1.391 . S
C642 H632 0.950 . S
C642 C643 1.386 . S
C642 C644 1.391 . S
C643 C642 1.386 . S
C643 C647 1.393 . S
C644 H633 0.950 . S
C644 C642 1.391 . S
C644 C645 1.400 . S
C645 C639 1.491 . S
C645 C644 1.400 . S
C645 C646 1.398 . S
C646 H634 0.950 . S
C646 C645 1.398 . S
C646 C647 1.391 . S
C647 H635 0.950 . S
C647 C643 1.393 . S
C647 C646 1.391 . S
H648 C656 0.950 . S
H649 C661 0.950 . S
H650 C658 0.950 . S
H651 C660 0.950 . S
H652 C662 0.950 . S
H653 C664 0.950 . S
H654 C666 0.950 . S
H655 C667 0.950 . S
C656 H648 0.950 . S
C656 C657 1.386 . S
C656 C658 1.391 . S
C657 C656 1.386 . S
C657 C661 1.393 . S
C658 H650 0.950 . S
C658 C656 1.391 . S
C658 C659 1.400 . S
C659 C658 1.400 . S
C659 C660 1.398 . S
C659 C665 1.491 . S
C660 H651 0.950 . S
C660 C659 1.398 . S
C660 C661 1.391 . S
C661 H649 0.950 . S
C661 C657 1.393 . S
C661 C660 1.391 . S
C662 H652 0.950 . S
C662 C663 1.386 . S
C662 C664 1.391 . S
C663 C662 1.386 . S
C663 C667 1.393 . S
C664 H653 0.950 . S
C664 C662 1.391 . S
C664 C665 1.400 . S
C665 C659 1.491 . S
C665 C664 1.400 . S
C665 C666 1.398 . S
C666 H654 0.950 . S
C666 C665 1.398 . S
C666 C667 1.391 . S
C667 H655 0.950 . S
C667 C663 1.393 . S
C667 C666 1.391 . S
H668 C676 0.950 . S
H669 C681 0.950 . S
H670 C678 0.950 . S
H671 C680 0.950 . S
H672 C682 0.950 . S
H673 C684 0.950 . S
H674 C686 0.950 . S
H675 C687 0.950 . S
C676 H668 0.950 . S
C676 C677 1.386 . S
C676 C678 1.391 . S
C677 C676 1.386 . S
C677 C681 1.393 . S
C678 H670 0.950 . S
C678 C676 1.391 . S
C678 C679 1.400 . S
C679 C678 1.400 . S
C679 C680 1.398 . S
C679 C685 1.491 . S
C680 H671 0.950 . S
C680 C679 1.398 . S
C680 C681 1.391 . S
C681 H669 0.950 . S
C681 C677 1.393 . S
C681 C680 1.391 . S
C682 H672 0.950 . S
C682 C683 1.386 . S
C682 C684 1.391 . S
C683 C682 1.386 . S
C683 C687 1.393 . S
C684 H673 0.950 . S
C684 C682 1.391 . S
C684 C685 1.400 . S
C685 C679 1.491 . S
C685 C684 1.400 . S
C685 C686 1.398 . S
C686 H674 0.950 . S
C686 C685 1.398 . S
C686 C687 1.391 . S
C687 H675 0.950 . S
C687 C683 1.393 . S
C687 C686 1.391 . S
H688 C696 0.950 . S
H689 C701 0.950 . S
H690 C698 0.950 . S
H691 C700 0.950 . S
H692 C702 0.950 . S
H693 C704 0.950 . S
H694 C706 0.950 . S
H695 C707 0.950 . S
C696 H688 0.950 . S
C696 C697 1.386 . S
C696 C698 1.391 . S
C697 C696 1.386 . S
C697 C701 1.393 . S
C698 H690 0.950 . S
C698 C696 1.391 . S
C698 C699 1.400 . S
C699 C698 1.400 . S
C699 C700 1.398 . S
C699 C705 1.491 . S
C700 H691 0.950 . S
C700 C699 1.398 . S
C700 C701 1.391 . S
C701 H689 0.950 . S
C701 C697 1.393 . S
C701 C700 1.391 . S
C702 H692 0.950 . S
C702 C703 1.386 . S
C702 C704 1.391 . S
C703 C702 1.386 . S
C703 C707 1.393 . S
C704 H693 0.950 . S
C704 C702 1.391 . S
C704 C705 1.400 . S
C705 C699 1.491 . S
C705 C704 1.400 . S
C705 C706 1.398 . S
C706 H694 0.950 . S
C706 C705 1.398 . S
C706 C707 1.391 . S
C707 H695 0.950 . S
C707 C703 1.393 . S
C707 C706 1.391 . S
H708 C716 0.950 . S
H709 C721 0.950 . S
H710 C718 0.950 . S
H711 C720 0.950 . S
H712 C722 0.950 . S
H713 C724 0.950 . S
H714 C726 0.950 . S
H715 C727 0.950 . S
C716 H708 0.950 . S
C716 C717 1.386 . S
C716 C718 1.391 . S
C717 C716 1.386 . S
C717 C721 1.393 . S
C718 H710 0.950 . S
C718 C716 1.391 . S
C718 C719 1.400 . S
C719 C718 1.400 . S
C719 C720 1.398 . S
C719 C725 1.491 . S
C720 H711 0.950 . S
C720 C719 1.398 . S
C720 C721 1.391 . S
C721 H709 0.950 . S
C721 C717 1.393 . S
C721 C720 1.391 . S
C722 H712 0.950 . S
C722 C723 1.386 . S
C722 C724 1.391 . S
C723 C722 1.386 . S
C723 C727 1.393 . S
C724 H713 0.950 . S
C724 C722 1.391 . S
C724 C725 1.400 . S
C725 C719 1.491 . S
C725 C724 1.400 . S
C725 C726 1.398 . S
C726 H714 0.950 . S
C726 C725 1.398 . S
C726 C727 1.391 . S
C727 H715 0.950 . S
C727 C723 1.393 . S
C727 C726 1.391 . S
H728 C736 0.950 . S
H729 C741 0.950 . S
H730 C738 0.950 . S
H731 C740 0.950 . S
H732 C742 0.950 . S
H733 C744 0.950 . S
H734 C746 0.950 . S
H735 C747 0.950 . S
C736 H728 0.950 . S
C736 C737 1.386 . S
C736 C738 1.391 . S
C737 C736 1.386 . S
C737 C741 1.393 . S
C738 H730 0.950 . S
C738 C736 1.391 . S
C738 C739 1.400 . S
C739 C738 1.400 . S
C739 C740 1.398 . S
C739 C745 1.491 . S
C740 H731 0.950 . S
C740 C739 1.398 . S
C740 C741 1.391 . S
C741 H729 0.950 . S
C741 C737 1.393 . S
C741 C740 1.391 . S
C742 H732 0.950 . S
C742 C743 1.386 . S
C742 C744 1.391 . S
C743 C742 1.386 . S
C743 C747 1.393 . S
C744 H733 0.950 . S
C744 C742 1.391 . S
C744 C745 1.400 . S
C745 C739 1.491 . S
C745 C744 1.400 . S
C745 C746 1.398 . S
C746 H734 0.950 . S
C746 C745 1.398 . S
C746 C747 1.391 . S
C747 H735 0.950 . S
C747 C743 1.393 . S
C747 C746 1.391 . S
H748 C756 0.950 . S
H749 C761 0.950 . S
H750 C758 0.950 . S
H751 C760 0.950 . S
H752 C762 0.950 . S
H753 C764 0.950 . S
H754 C766 0.950 . S
H755 C767 0.950 . S
C756 H748 0.950 . S
C756 C757 1.386 . S
C756 C758 1.391 . S
C757 C756 1.386 . S
C757 C761 1.393 . S
C758 H750 0.950 . S
C758 C756 1.391 . S
C758 C759 1.400 . S
C759 C758 1.400 . S
C759 C760 1.398 . S
C759 C765 1.491 . S
C760 H751 0.950 . S
C760 C759 1.398 . S
C760 C761 1.391 . S
C761 H749 0.950 . S
C761 C757 1.393 . S
C761 C760 1.391 . S
C762 H752 0.950 . S
C762 C763 1.386 . S
C762 C764 1.391 . S
C763 C762 1.386 . S
C763 C767 1.393 . S
C764 H753 0.950 . S
C764 C762 1.391 . S
C764 C765 1.400 . S
C765 C759 1.491 . S
C765 C764 1.400 . S
C765 C766 1.398 . S
C766 H754 0.950 . S
C766 C765 1.398 . S
C766 C767 1.391 . S
C767 H755 0.950 . S
C767 C763 1.393 . S
C767 C766 1.391 . S
H768 C776 0.950 . S
H769 C781 0.950 . S
H770 C778 0.950 . S
H771 C780 0.950 . S
H772 C782 0.950 . S
H773 C784 0.950 . S
H774 C786 0.950 . S
H775 C787 0.950 . S
C776 H768 0.950 . S
C776 C777 1.386 . S
C776 C778 1.391 . S
C777 C776 1.386 . S
C777 C781 1.393 . S
C778 H770 0.950 . S
C778 C776 1.391 . S
C778 C779 1.400 . S
C779 C778 1.400 . S
C779 C780 1.398 . S
C779 C785 1.491 . S
C780 H771 0.950 . S
C780 C779 1.398 . S
C780 C781 1.391 . S
C781 H769 0.950 . S
C781 C777 1.393 . S
C781 C780 1.391 . S
C782 H772 0.950 . S
C782 C783 1.386 . S
C782 C784 1.391 . S
C783 C782 1.386 . S
C783 C787 1.393 . S
C784 H773 0.950 . S
C784 C782 1.391 . S
C784 C785 1.400 . S
C785 C779 1.491 . S
C785 C784 1.400 . S
C785 C786 1.398 . S
C786 H774 0.950 . S
C786 C785 1.398 . S
C786 C787 1.391 . S
C787 H775 0.950 . S
C787 C783 1.393 . S
C787 C786 1.391 . S
H788 C796 0.950 . S
H789 C801 0.950 . S
H790 C798 0.950 . S
H791 C800 0.950 . S
H792 C802 0.950 . S
H793 C804 0.950 . S
H794 C806 0.950 . S
H795 C807 0.950 . S
C796 H788 0.950 . S
C796 C797 1.386 1_455 S
C796 C798 1.391 . S
C797 C796 1.386 1_655 S
C797 C801 1.393 . S
C798 H790 0.950 . S
C798 C796 1.391 . S
C798 C799 1.399 1_455 S
C799 C798 1.399 1_655 S
C799 C800 1.400 . S
C799 C805 1.491 1_655 S
C800 H791 0.950 . S
C800 C799 1.400 . S
C800 C801 1.391 . S
C801 H789 0.950 . S
C801 C797 1.393 . S
C801 C800 1.391 . S
C802 H792 0.950 . S
C802 C803 1.386 1_655 S
C802 C804 1.391 . S
C803 C802 1.386 1_455 S
C803 C807 1.393 . S
C804 H793 0.950 . S
C804 C802 1.391 . S
C804 C805 1.400 1_655 S
C805 C799 1.491 1_455 S
C805 C804 1.400 1_455 S
C805 C806 1.398 . S
C806 H794 0.950 . S
C806 C805 1.398 . S
C806 C807 1.391 . S
C807 H795 0.950 . S
C807 C803 1.393 . S
C807 C806 1.391 . S
H808 C816 0.950 . S
H809 C821 0.950 . S
H810 C818 0.950 . S
H811 C820 0.950 . S
H812 C822 0.950 . S
H813 C824 0.950 . S
H814 C826 0.950 . S
H815 C827 0.950 . S
C816 H808 0.950 . S
C816 C817 1.386 . S
C816 C818 1.391 . S
C817 C816 1.386 . S
C817 C821 1.393 . S
C818 H810 0.950 . S
C818 C816 1.391 . S
C818 C819 1.400 . S
C819 C818 1.400 . S
C819 C820 1.398 . S
C819 C825 1.491 . S
C820 H811 0.950 . S
C820 C819 1.398 . S
C820 C821 1.391 . S
C821 H809 0.950 . S
C821 C817 1.393 . S
C821 C820 1.391 . S
C822 H812 0.950 . S
C822 C823 1.386 . S
C822 C824 1.391 . S
C823 C822 1.386 . S
C823 C827 1.393 . S
C824 H813 0.950 . S
C824 C822 1.391 . S
C824 C825 1.400 . S
C825 C819 1.491 . S
C825 C824 1.400 . S
C825 C826 1.398 . S
C826 H814 0.950 . S
C826 C825 1.398 . S
C826 C827 1.391 . S
C827 H815 0.950 . S
C827 C823 1.393 . S
C827 C826 1.391 . S
H828 C836 0.950 . S
H829 C841 0.950 . S
H830 C838 0.950 . S
H831 C840 0.950 . S
H832 C842 0.950 . S
H833 C844 0.950 . S
H834 C846 0.950 . S
H835 C847 0.950 . S
C836 H828 0.950 . S
C836 C837 1.386 . S
C836 C838 1.391 . S
C837 C836 1.386 . S
C837 C841 1.393 . S
C838 H830 0.950 . S
C838 C836 1.391 . S
C838 C839 1.400 . S
C839 C838 1.400 . S
C839 C840 1.398 . S
C839 C845 1.491 . S
C840 H831 0.950 . S
C840 C839 1.398 . S
C840 C841 1.391 . S
C841 H829 0.950 . S
C841 C837 1.393 . S
C841 C840 1.391 . S
C842 H832 0.950 . S
C842 C843 1.386 . S
C842 C844 1.391 . S
C843 C842 1.386 . S
C843 C847 1.393 . S
C844 H833 0.950 . S
C844 C842 1.391 . S
C844 C845 1.400 . S
C845 C839 1.491 . S
C845 C844 1.400 . S
C845 C846 1.398 . S
C846 H834 0.950 . S
C846 C845 1.398 . S
C846 C847 1.391 . S
C847 H835 0.950 . S
C847 C843 1.393 . S
C847 C846 1.391 . S
H848 C856 0.950 . S
H849 C861 0.950 . S
H850 C858 0.950 . S
H851 C860 0.950 . S
H852 C862 0.950 . S
H853 C864 0.950 . S
H854 C866 0.950 . S
H855 C867 0.950 . S
C856 H848 0.950 . S
C856 C857 1.386 . S
C856 C858 1.391 . S
C857 C856 1.386 . S
C857 C861 1.393 . S
C858 H850 0.950 . S
C858 C856 1.391 . S
C858 C859 1.400 . S
C859 C858 1.400 . S
C859 C860 1.398 . S
C859 C865 1.491 . S
C860 H851 0.950 . S
C860 C859 1.398 . S
C860 C861 1.391 . S
C861 H849 0.950 . S
C861 C857 1.393 . S
C861 C860 1.391 . S
C862 H852 0.950 . S
C862 C863 1.386 . S
C862 C864 1.391 . S
C863 C862 1.386 . S
C863 C867 1.393 . S
C864 H853 0.950 . S
C864 C862 1.391 . S
C864 C865 1.400 . S
C865 C859 1.491 . S
C865 C864 1.400 . S
C865 C866 1.398 . S
C866 H854 0.950 . S
C866 C865 1.398 . S
C866 C867 1.391 . S
C867 H855 0.950 . S
C867 C863 1.393 . S
C867 C866 1.391 . S
H868 C876 0.950 . S
H869 C881 0.950 . S
H870 C878 0.950 . S
H871 C880 0.950 . S
H872 C882 0.950 . S
H873 C884 0.950 . S
H874 C886 0.950 . S
H875 C887 0.950 . S
C876 H868 0.950 . S
C876 C877 1.386 . S
C876 C878 1.391 . S
C877 C876 1.386 . S
C877 C881 1.393 . S
C878 H870 0.950 . S
C878 C876 1.391 . S
C878 C879 1.400 . S
C879 C878 1.400 . S
C879 C880 1.398 . S
C879 C885 1.491 . S
C880 H871 0.950 . S
C880 C879 1.398 . S
C880 C881 1.391 . S
C881 H869 0.950 . S
C881 C877 1.393 . S
C881 C880 1.391 . S
C882 H872 0.950 . S
C882 C883 1.386 . S
C882 C884 1.391 . S
C883 C882 1.386 . S
C883 C887 1.393 . S
C884 H873 0.950 . S
C884 C882 1.391 . S
C884 C885 1.400 . S
C885 C879 1.491 . S
C885 C884 1.400 . S
C885 C886 1.398 . S
C886 H874 0.950 . S
C886 C885 1.398 . S
C886 C887 1.391 . S
C887 H875 0.950 . S
C887 C883 1.393 . S
C887 C886 1.391 . S
H888 C896 0.950 . S
H889 C901 0.950 . S
H890 C898 0.950 . S
H891 C900 0.950 . S
H892 C902 0.950 . S
H893 C904 0.950 . S
H894 C906 0.950 . S
H895 C907 0.950 . S
C896 H888 0.950 . S
C896 C897 1.386 . S
C896 C898 1.391 . S
C897 C896 1.386 . S
C897 C901 1.393 . S
C898 H890 0.950 . S
C898 C896 1.391 . S
C898 C899 1.400 . S
C899 C898 1.400 . S
C899 C900 1.398 . S
C899 C905 1.491 . S
C900 H891 0.950 . S
C900 C899 1.398 . S
C900 C901 1.391 . S
C901 H889 0.950 . S
C901 C897 1.393 . S
C901 C900 1.391 . S
C902 H892 0.950 . S
C902 C903 1.386 . S
C902 C904 1.391 . S
C903 C902 1.386 . S
C903 C907 1.393 . S
C904 H893 0.950 . S
C904 C902 1.391 . S
C904 C905 1.400 . S
C905 C899 1.491 . S
C905 C904 1.400 . S
C905 C906 1.398 . S
C906 H894 0.950 . S
C906 C905 1.398 . S
C906 C907 1.391 . S
C907 H895 0.950 . S
C907 C903 1.393 . S
C907 C906 1.391 . S
H908 C916 0.950 . S
H909 C921 0.950 . S
H910 C918 0.950 . S
H911 C920 0.950 . S
H912 C922 0.950 . S
H913 C924 0.950 . S
H914 C926 0.950 . S
H915 C927 0.950 . S
C916 H908 0.950 . S
C916 C917 1.386 . S
C916 C918 1.391 . S
C917 C916 1.386 . S
C917 C921 1.393 . S
C918 H910 0.950 . S
C918 C916 1.391 . S
C918 C919 1.400 . S
C919 C918 1.400 . S
C919 C920 1.398 . S
C919 C925 1.491 . S
C920 H911 0.950 . S
C920 C919 1.398 . S
C920 C921 1.391 . S
C921 H909 0.950 . S
C921 C917 1.393 . S
C921 C920 1.391 . S
C922 H912 0.950 . S
C922 C923 1.386 . S
C922 C924 1.391 . S
C923 C922 1.386 . S
C923 C927 1.393 . S
C924 H913 0.950 . S
C924 C922 1.391 . S
C924 C925 1.400 . S
C925 C919 1.491 . S
C925 C924 1.400 . S
C925 C926 1.398 . S
C926 H914 0.950 . S
C926 C925 1.398 . S
C926 C927 1.391 . S
C927 H915 0.950 . S
C927 C923 1.393 . S
C927 C926 1.391 . S
H928 C936 0.950 . S
H929 C941 0.950 . S
H930 C938 0.950 . S
H931 C940 0.950 . S
H932 C942 0.950 . S
H933 C944 0.950 . S
H934 C946 0.950 . S
H935 C947 0.950 . S
C936 H928 0.950 . S
C936 C937 1.386 . S
C936 C938 1.391 . S
C937 C936 1.386 . S
C937 C941 1.393 . S
C938 H930 0.950 . S
C938 C936 1.391 . S
C938 C939 1.400 . S
C939 C938 1.400 . S
C939 C940 1.398 . S
C939 C945 1.491 . S
C940 H931 0.950 . S
C940 C939 1.398 . S
C940 C941 1.391 . S
C941 H929 0.950 . S
C941 C937 1.393 . S
C941 C940 1.391 . S
C942 H932 0.950 . S
C942 C943 1.386 . S
C942 C944 1.391 . S
C943 C942 1.386 . S
C943 C947 1.393 . S
C944 H933 0.950 . S
C944 C942 1.391 . S
C944 C945 1.400 . S
C945 C939 1.491 . S
C945 C944 1.400 . S
C945 C946 1.398 . S
C946 H934 0.950 . S
C946 C945 1.398 . S
C946 C947 1.391 . S
C947 H935 0.950 . S
C947 C943 1.393 . S
C947 C946 1.391 . S
H948 C956 0.950 . S
H949 C961 0.950 . S
H950 C958 0.950 . S
H951 C960 0.950 . S
H952 C962 0.950 . S
H953 C964 0.950 . S
H954 C966 0.950 . S
H955 C967 0.950 . S
C956 H948 0.950 . S
C956 C957 1.386 . S
C956 C958 1.391 . S
C957 C956 1.386 . S
C957 C961 1.393 . S
C958 H950 0.950 . S
C958 C956 1.391 . S
C958 C959 1.400 . S
C959 C958 1.400 . S
C959 C960 1.398 . S
C959 C965 1.491 . S
C960 H951 0.950 . S
C960 C959 1.398 . S
C960 C961 1.391 . S
C961 H949 0.950 . S
C961 C957 1.393 . S
C961 C960 1.391 . S
C962 H952 0.950 . S
C962 C963 1.386 . S
C962 C964 1.391 . S
C963 C962 1.386 . S
C963 C967 1.393 . S
C964 H953 0.950 . S
C964 C962 1.391 . S
C964 C965 1.400 . S
C965 C959 1.491 . S
C965 C964 1.400 . S
C965 C966 1.398 . S
C966 H954 0.950 . S
C966 C965 1.398 . S
C966 C967 1.391 . S
C967 H955 0.950 . S
C967 C963 1.393 . S
C967 C966 1.391 . S
H968 C976 0.950 . S
H969 C981 0.950 . S
H970 C978 0.950 . S
H971 C980 0.950 . S
H972 C982 0.950 . S
H973 C984 0.950 . S
H974 C986 0.950 . S
H975 C987 0.950 . S
C976 H968 0.950 . S
C976 C977 1.386 . S
C976 C978 1.391 . S
C977 C976 1.386 . S
C977 C981 1.393 . S
C978 H970 0.950 . S
C978 C976 1.391 . S
C978 C979 1.400 . S
C979 C978 1.400 . S
C979 C980 1.398 . S
C979 C985 1.491 . S
C980 H971 0.950 . S
C980 C979 1.398 . S
C980 C981 1.391 . S
C981 H969 0.950 . S
C981 C977 1.393 . S
C981 C980 1.391 . S
C982 H972 0.950 . S
C982 C983 1.386 . S
C982 C984 1.391 . S
C983 C982 1.386 . S
C983 C987 1.393 . S
C984 H973 0.950 . S
C984 C982 1.391 . S
C984 C985 1.400 . S
C985 C979 1.491 . S
C985 C984 1.400 . S
C985 C986 1.398 . S
C986 H974 0.950 . S
C986 C985 1.398 . S
C986 C987 1.391 . S
C987 H975 0.950 . S
C987 C983 1.393 . S
C987 C986 1.391 . S
H988 C996 0.950 . S
H989 C1001 0.950 . S
H990 C998 0.950 . S
H991 C1000 0.950 . S
H992 C1002 0.950 . S
H993 C1004 0.950 . S
H994 C1006 0.950 . S
H995 C1007 0.950 . S
C996 H988 0.950 . S
C996 C997 1.386 . S
C996 C998 1.391 . S
C997 C996 1.386 . S
C997 C1001 1.393 . S
C998 H990 0.950 . S
C998 C996 1.391 . S
C998 C999 1.400 . S
C999 C998 1.400 . S
C999 C1000 1.398 . S
C999 C1005 1.491 . S
C1000 H991 0.950 . S
C1000 C999 1.398 . S
C1000 C1001 1.391 . S
C1001 H989 0.950 . S
C1001 C997 1.393 . S
C1001 C1000 1.391 . S
C1002 H992 0.950 . S
C1002 C1003 1.386 . S
C1002 C1004 1.391 . S
C1003 C1002 1.386 . S
C1003 C1007 1.393 . S
C1004 H993 0.950 . S
C1004 C1002 1.391 . S
C1004 C1005 1.400 . S
C1005 C999 1.491 . S
C1005 C1004 1.400 . S
C1005 C1006 1.398 . S
C1006 H994 0.950 . S
C1006 C1005 1.398 . S
C1006 C1007 1.391 . S
C1007 H995 0.950 . S
C1007 C1003 1.393 . S
C1007 C1006 1.391 . S
H1008 C1016 0.950 . S
H1009 C1021 0.950 . S
H1010 C1018 0.950 . S
H1011 C1020 0.950 . S
H1012 C1022 0.950 . S
H1013 C1024 0.950 . S
H1014 C1026 0.950 . S
H1015 C1027 0.950 . S
C1016 H1008 0.950 . S
C1016 C1017 1.386 . S
C1016 C1018 1.391 . S
C1017 C1016 1.386 . S
C1017 C1021 1.393 . S
C1018 H1010 0.950 . S
C1018 C1016 1.391 . S
C1018 C1019 1.400 . S
C1019 C1018 1.400 . S
C1019 C1020 1.398 . S
C1019 C1025 1.491 . S
C1020 H1011 0.950 . S
C1020 C1019 1.398 . S
C1020 C1021 1.391 . S
C1021 H1009 0.950 . S
C1021 C1017 1.393 . S
C1021 C1020 1.391 . S
C1022 H1012 0.950 . S
C1022 C1023 1.386 . S
C1022 C1024 1.391 . S
C1023 C1022 1.386 . S
C1023 C1027 1.393 . S
C1024 H1013 0.950 . S
C1024 C1022 1.391 . S
C1024 C1025 1.400 . S
C1025 C1019 1.491 . S
C1025 C1024 1.400 . S
C1025 C1026 1.398 . S
C1026 H1014 0.950 . S
C1026 C1025 1.398 . S
C1026 C1027 1.391 . S
C1027 H1015 0.950 . S
C1027 C1023 1.393 . S
C1027 C1026 1.391 . S
H1028 C1036 0.950 . S
H1029 C1041 0.950 . S
H1030 C1038 0.950 . S
H1031 C1040 0.950 . S
H1032 C1042 0.950 . S
H1033 C1044 0.950 . S
H1034 C1046 0.950 . S
H1035 C1047 0.950 . S
C1036 H1028 0.950 . S
C1036 C1037 1.386 . S
C1036 C1038 1.391 1_554 S
C1037 C1036 1.386 . S
C1037 C1041 1.393 1_554 S
C1038 H1030 0.950 . S
C1038 C1036 1.391 1_556 S
C1038 C1039 1.400 . S
C1039 C1038 1.400 . S
C1039 C1040 1.398 . S
C1039 C1045 1.491 . S
C1040 H1031 0.950 . S
C1040 C1039 1.398 . S
C1040 C1041 1.391 . S
C1041 H1029 0.950 . S
C1041 C1037 1.393 1_556 S
C1041 C1040 1.391 . S
C1042 H1032 0.950 . S
C1042 C1043 1.386 . S
C1042 C1044 1.391 . S
C1043 C1042 1.386 . S
C1043 C1047 1.393 . S
C1044 H1033 0.950 . S
C1044 C1042 1.391 . S
C1044 C1045 1.400 . S
C1045 C1039 1.491 . S
C1045 C1044 1.400 . S
C1045 C1046 1.398 . S
C1046 H1034 0.950 . S
C1046 C1045 1.398 . S
C1046 C1047 1.391 . S
C1047 H1035 0.950 . S
C1047 C1043 1.393 . S
C1047 C1046 1.391 . S
H1048 C1056 0.950 . S
H1049 C1061 0.950 . S
H1050 C1058 0.950 . S
H1051 C1060 0.950 . S
H1052 C1062 0.950 . S
H1053 C1064 0.950 . S
H1054 C1066 0.950 . S
H1055 C1067 0.950 . S
C1056 H1048 0.950 . S
C1056 C1057 1.386 . S
C1056 C1058 1.391 . S
C1057 C1056 1.386 . S
C1057 C1061 1.393 . S
C1058 H1050 0.950 . S
C1058 C1056 1.391 . S
C1058 C1059 1.400 . S
C1059 C1058 1.400 . S
C1059 C1060 1.398 . S
C1059 C1065 1.491 . S
C1060 H1051 0.950 . S
C1060 C1059 1.398 . S
C1060 C1061 1.391 . S
C1061 H1049 0.950 . S
C1061 C1057 1.393 . S
C1061 C1060 1.391 . S
C1062 H1052 0.950 . S
C1062 C1063 1.386 . S
C1062 C1064 1.391 . S
C1063 C1062 1.386 . S
C1063 C1067 1.393 . S
C1064 H1053 0.950 . S
C1064 C1062 1.391 . S
C1064 C1065 1.400 . S
C1065 C1059 1.491 . S
C1065 C1064 1.400 . S
C1065 C1066 1.398 . S
C1066 H1054 0.950 . S
C1066 C1065 1.398 . S
C1066 C1067 1.391 . S
C1067 H1055 0.950 . S
C1067 C1063 1.393 . S
C1067 C1066 1.391 . S
H1068 C1076 0.950 . S
H1069 C1081 0.950 . S
H1070 C1078 0.950 . S
H1071 C1080 0.950 . S
H1072 C1082 0.950 1_565 S
H1073 C1084 0.950 . S
H1074 C1086 0.950 . S
H1075 C1087 0.950 . S
C1076 H1068 0.950 . S
C1076 C1077 1.386 . S
C1076 C1078 1.391 . S
C1077 C1076 1.386 . S
C1077 C1081 1.393 . S
C1078 H1070 0.950 . S
C1078 C1076 1.391 . S
C1078 C1079 1.400 . S
C1079 C1078 1.400 . S
C1079 C1080 1.398 . S
C1079 C1085 1.491 . S
C1080 H1071 0.950 . S
C1080 C1079 1.398 . S
C1080 C1081 1.391 . S
C1081 H1069 0.950 . S
C1081 C1077 1.393 . S
C1081 C1080 1.391 . S
C1082 H1072 0.950 1_545 S
C1082 C1083 1.386 . S
C1082 C1084 1.391 . S
C1083 C1082 1.386 . S
C1083 C1087 1.393 . S
C1084 H1073 0.950 . S
C1084 C1082 1.391 . S
C1084 C1085 1.400 . S
C1085 C1079 1.491 . S
C1085 C1084 1.400 . S
C1085 C1086 1.398 . S
C1086 H1074 0.950 . S
C1086 C1085 1.398 . S
C1086 C1087 1.391 . S
C1087 H1075 0.950 . S
C1087 C1083 1.393 . S
C1087 C1086 1.391 . S
H1088 C1096 0.950 . S
H1089 C1101 0.950 . S
H1090 C1098 0.950 . S
H1091 C1100 0.950 . S
H1092 C1102 0.950 1_565 S
H1093 C1104 0.966 . S
H1094 C1106 0.950 . S
H1095 C1107 0.950 . S
C1096 H1088 0.950 . S
C1096 C1097 1.386 . S
C1096 C1098 1.391 . S
C1097 C1096 1.386 . S
C1097 C1101 1.393 . S
C1098 H1090 0.950 . S
C1098 C1096 1.391 . S
C1098 C1099 1.400 . S
C1099 C1098 1.400 . S
C1099 C1100 1.398 . S
C1099 C1105 1.491 . S
C1100 H1091 0.950 . S
C1100 C1099 1.398 . S
C1100 C1101 1.391 . S
C1101 H1089 0.950 . S
C1101 C1097 1.393 . S
C1101 C1100 1.391 . S
C1102 H1092 0.950 1_545 S
C1102 C1103 1.386 . S
C1102 C1104 1.391 . S
C1103 C1102 1.386 . S
C1103 C1107 1.393 . S
C1104 H1093 0.966 . S
C1104 C1102 1.391 . S
C1104 C1105 1.400 . S
C1105 C1099 1.491 . S
C1105 C1104 1.400 . S
C1105 C1106 1.398 . S
C1106 H1094 0.950 . S
C1106 C1105 1.398 . S
C1106 C1107 1.391 . S
C1107 H1095 0.950 . S
C1107 C1103 1.393 . S
C1107 C1106 1.391 . S
H1108 C1116 0.950 . S
H1109 C1121 0.950 . S
H1110 C1118 0.950 . S
H1111 C1120 0.950 . S
H1112 C1122 0.950 . S
H1113 C1124 0.950 . S
H1114 C1126 0.950 . S
H1115 C1127 0.950 . S
C1116 H1108 0.950 . S
C1116 C1117 1.386 . S
C1116 C1118 1.391 . S
C1117 C1116 1.386 . S
C1117 C1121 1.393 . S
C1118 H1110 0.950 . S
C1118 C1116 1.391 . S
C1118 C1119 1.400 . S
C1119 C1118 1.400 . S
C1119 C1120 1.398 . S
C1119 C1125 1.491 . S
C1120 H1111 0.950 . S
C1120 C1119 1.398 . S
C1120 C1121 1.391 . S
C1121 H1109 0.950 . S
C1121 C1117 1.393 . S
C1121 C1120 1.391 . S
C1122 H1112 0.950 . S
C1122 C1123 1.386 . S
C1122 C1124 1.391 . S
C1123 C1122 1.386 . S
C1123 C1127 1.393 . S
C1124 H1113 0.950 . S
C1124 C1122 1.391 . S
C1124 C1125 1.400 . S
C1125 C1119 1.491 . S
C1125 C1124 1.400 . S
C1125 C1126 1.398 . S
C1126 H1114 0.950 . S
C1126 C1125 1.398 . S
C1126 C1127 1.391 . S
C1127 H1115 0.950 . S
C1127 C1123 1.393 . S
C1127 C1126 1.391 . S
H1128 C1136 0.950 . S
H1129 C1141 0.950 . S
H1130 C1138 0.950 . S
H1131 C1140 0.950 . S
H1132 C1142 0.950 . S
H1133 C1144 0.950 . S
H1134 C1146 0.950 . S
H1135 C1147 0.950 . S
C1136 H1128 0.950 . S
C1136 C1137 1.386 . S
C1136 C1138 1.391 . S
C1137 C1136 1.386 . S
C1137 C1141 1.393 . S
C1138 H1130 0.950 . S
C1138 C1136 1.391 . S
C1138 C1139 1.400 . S
C1139 C1138 1.400 . S
C1139 C1140 1.398 . S
C1139 C1145 1.491 . S
C1140 H1131 0.950 . S
C1140 C1139 1.398 . S
C1140 C1141 1.391 . S
C1141 H1129 0.950 . S
C1141 C1137 1.393 . S
C1141 C1140 1.391 . S
C1142 H1132 0.950 . S
C1142 C1143 1.386 . S
C1142 C1144 1.391 . S
C1143 C1142 1.386 . S
C1143 C1147 1.393 . S
C1144 H1133 0.950 . S
C1144 C1142 1.391 . S
C1144 C1145 1.400 . S
C1145 C1139 1.491 . S
C1145 C1144 1.400 . S
C1145 C1146 1.398 . S
C1146 H1134 0.950 . S
C1146 C1145 1.398 . S
C1146 C1147 1.391 . S
C1147 H1135 0.950 . S
C1147 C1143 1.393 . S
C1147 C1146 1.391 . S
H1148 C1156 0.950 . S
H1149 C1161 0.950 . S
H1150 C1158 0.950 . S
H1151 C1160 0.950 . S
H1152 C1162 0.950 . S
H1153 C1164 0.950 . S
H1154 C1166 0.950 . S
H1155 C1167 0.950 . S
C1156 H1148 0.950 . S
C1156 C1157 1.386 . S
C1156 C1158 1.391 . S
C1157 C1156 1.386 . S
C1157 C1161 1.393 . S
C1158 H1150 0.950 . S
C1158 C1156 1.391 . S
C1158 C1159 1.400 . S
C1159 C1158 1.400 . S
C1159 C1160 1.398 . S
C1159 C1165 1.491 . S
C1160 H1151 0.950 . S
C1160 C1159 1.398 . S
C1160 C1161 1.391 . S
C1161 H1149 0.950 . S
C1161 C1157 1.393 . S
C1161 C1160 1.391 . S
C1162 H1152 0.950 . S
C1162 C1163 1.386 . S
C1162 C1164 1.391 . S
C1163 C1162 1.386 . S
C1163 C1167 1.393 . S
C1164 H1153 0.950 . S
C1164 C1162 1.391 . S
C1164 C1165 1.400 . S
C1165 C1159 1.491 . S
C1165 C1164 1.400 . S
C1165 C1166 1.398 . S
C1166 H1154 0.950 . S
C1166 C1165 1.398 . S
C1166 C1167 1.391 . S
C1167 H1155 0.950 . S
C1167 C1163 1.393 . S
C1167 C1166 1.391 . S
H1168 C1176 0.950 . S
H1169 C1181 0.950 . S
H1170 C1178 0.950 . S
H1171 C1180 0.950 . S
H1172 C1182 0.950 1_655 S
H1173 C1184 0.950 . S
H1174 C1186 0.950 . S
H1175 C1187 0.950 . S
C1176 H1168 0.950 . S
C1176 C1177 1.386 . S
C1176 C1178 1.391 . S
C1177 C1176 1.386 . S
C1177 C1181 1.393 . S
C1178 H1170 0.950 . S
C1178 C1176 1.391 . S
C1178 C1179 1.400 . S
C1179 C1178 1.400 . S
C1179 C1180 1.398 . S
C1179 C1185 1.491 . S
C1180 H1171 0.950 . S
C1180 C1179 1.398 . S
C1180 C1181 1.391 . S
C1181 H1169 0.950 . S
C1181 C1177 1.393 . S
C1181 C1180 1.391 . S
C1182 H1172 0.950 1_455 S
C1182 C1183 1.386 . S
C1182 C1184 1.391 . S
C1183 C1182 1.386 . S
C1183 C1187 1.393 . S
C1184 H1173 0.950 . S
C1184 C1182 1.391 . S
C1184 C1185 1.400 . S
C1185 C1179 1.491 . S
C1185 C1184 1.400 . S
C1185 C1186 1.398 . S
C1186 H1174 0.950 . S
C1186 C1185 1.398 . S
C1186 C1187 1.391 . S
C1187 H1175 0.950 . S
C1187 C1183 1.393 . S
C1187 C1186 1.391 . S
H1188 C1196 0.950 . S
H1189 C1201 0.950 . S
H1190 C1198 0.950 . S
H1191 C1200 0.950 . S
H1192 C1202 0.950 . S
H1193 C1204 0.950 . S
H1194 C1206 0.950 . S
H1195 C1207 0.950 . S
C1196 H1188 0.950 . S
C1196 C1197 1.386 . S
C1196 C1198 1.391 . S
C1197 C1196 1.386 . S
C1197 C1201 1.393 . S
C1198 H1190 0.950 . S
C1198 C1196 1.391 . S
C1198 C1199 1.400 . S
C1199 C1198 1.400 . S
C1199 C1200 1.398 . S
C1199 C1205 1.491 . S
C1200 H1191 0.950 . S
C1200 C1199 1.398 . S
C1200 C1201 1.391 . S
C1201 H1189 0.950 . S
C1201 C1197 1.393 . S
C1201 C1200 1.391 . S
C1202 H1192 0.950 . S
C1202 C1203 1.386 . S
C1202 C1204 1.391 . S
C1203 C1202 1.386 . S
C1203 C1207 1.393 . S
C1204 H1193 0.950 . S
C1204 C1202 1.391 . S
C1204 C1205 1.400 . S
C1205 C1199 1.491 . S
C1205 C1204 1.400 . S
C1205 C1206 1.398 . S
C1206 H1194 0.950 . S
C1206 C1205 1.398 . S
C1206 C1207 1.391 . S
C1207 H1195 0.950 . S
C1207 C1203 1.393 . S
C1207 C1206 1.391 . S
H1208 C1216 0.950 . S
H1209 C1221 0.950 . S
H1210 C1218 0.950 . S
H1211 C1220 0.950 . S
H1212 C1222 0.950 . S
H1213 C1224 0.950 . S
H1214 C1226 0.950 . S
H1215 C1227 0.950 . S
C1216 H1208 0.950 . S
C1216 C1217 1.386 . S
C1216 C1218 1.391 . S
C1217 C1216 1.386 . S
C1217 C1221 1.393 . S
C1218 H1210 0.950 . S
C1218 C1216 1.391 . S
C1218 C1219 1.400 . S
C1219 C1218 1.400 . S
C1219 C1220 1.398 . S
C1219 C1225 1.491 . S
C1220 H1211 0.950 . S
C1220 C1219 1.398 . S
C1220 C1221 1.391 . S
C1221 H1209 0.950 . S
C1221 C1217 1.393 . S
C1221 C1220 1.391 . S
C1222 H1212 0.950 . S
C1222 C1223 1.386 . S
C1222 C1224 1.391 . S
C1223 C1222 1.386 . S
C1223 C1227 1.393 . S
C1224 H1213 0.950 . S
C1224 C1222 1.391 . S
C1224 C1225 1.400 . S
C1225 C1219 1.491 . S
C1225 C1224 1.400 . S
C1225 C1226 1.398 . S
C1226 H1214 0.950 . S
C1226 C1225 1.398 . S
C1226 C1227 1.391 . S
C1227 H1215 0.950 . S
C1227 C1223 1.393 . S
C1227 C1226 1.391 . S
H1228 C1236 0.950 1_655 S
H1229 C1241 0.950 . S
H1230 C1238 0.950 . S
H1231 C1240 0.950 . S
H1232 C1242 0.950 . S
H1233 C1244 0.950 . S
H1234 C1246 0.950 . S
H1235 C1247 0.950 . S
C1236 H1228 0.950 1_455 S
C1236 C1237 1.386 . S
C1236 C1238 1.391 . S
C1237 C1236 1.386 . S
C1237 C1241 1.393 . S
C1238 H1230 0.950 . S
C1238 C1236 1.391 . S
C1238 C1239 1.400 . S
C1239 C1238 1.400 . S
C1239 C1240 1.398 . S
C1239 C1245 1.491 . S
C1240 H1231 0.950 . S
C1240 C1239 1.398 . S
C1240 C1241 1.391 . S
C1241 H1229 0.950 . S
C1241 C1237 1.393 . S
C1241 C1240 1.391 . S
C1242 H1232 0.950 . S
C1242 C1243 1.386 . S
C1242 C1244 1.391 . S
C1243 C1242 1.386 . S
C1243 C1247 1.393 . S
C1244 H1233 0.950 . S
C1244 C1242 1.391 . S
C1244 C1245 1.400 . S
C1245 C1239 1.491 . S
C1245 C1244 1.400 . S
C1245 C1246 1.398 . S
C1246 H1234 0.950 . S
C1246 C1245 1.398 . S
C1246 C1247 1.391 . S
C1247 H1235 0.950 . S
C1247 C1243 1.393 . S
C1247 C1246 1.391 . S
H1248 C1256 0.950 . S
H1249 C1261 0.950 . S
H1250 C1258 0.950 . S
H1251 C1260 0.950 . S
H1252 C1262 0.950 . S
H1253 C1264 0.950 . S
H1254 C1266 0.950 . S
H1255 C1267 0.950 . S
C1256 H1248 0.950 . S
C1256 C1257 1.386 . S
C1256 C1258 1.391 . S
C1257 C1256 1.386 . S
C1257 C1261 1.393 . S
C1258 H1250 0.950 . S
C1258 C1256 1.391 . S
C1258 C1259 1.400 . S
C1259 C1258 1.400 . S
C1259 C1260 1.398 . S
C1259 C1265 1.491 . S
C1260 H1251 0.950 . S
C1260 C1259 1.398 . S
C1260 C1261 1.391 . S
C1261 H1249 0.950 . S
C1261 C1257 1.393 . S
C1261 C1260 1.391 . S
C1262 H1252 0.950 . S
C1262 C1263 1.386 . S
C1262 C1264 1.391 . S
C1263 C1262 1.386 . S
C1263 C1267 1.393 . S
C1264 H1253 0.950 . S
C1264 C1262 1.391 . S
C1264 C1265 1.400 . S
C1265 C1259 1.491 . S
C1265 C1264 1.400 . S
C1265 C1266 1.398 . S
C1266 H1254 0.950 . S
C1266 C1265 1.398 . S
C1266 C1267 1.391 . S
C1267 H1255 0.950 . S
C1267 C1263 1.393 . S
C1267 C1266 1.391 . S
H1268 C1276 0.950 . S
H1269 C1281 0.950 . S
H1270 C1278 0.950 . S
H1271 C1280 0.950 . S
H1272 C1282 0.950 . S
H1273 C1284 0.950 . S
H1274 C1286 0.950 . S
H1275 C1287 0.950 . S
C1276 H1268 0.950 . S
C1276 C1277 1.386 . S
C1276 C1278 1.391 . S
C1277 C1276 1.386 . S
C1277 C1281 1.393 . S
C1278 H1270 0.950 . S
C1278 C1276 1.391 . S
C1278 C1279 1.400 . S
C1279 C1278 1.400 . S
C1279 C1280 1.398 . S
C1279 C1285 1.491 . S
C1280 H1271 0.950 . S
C1280 C1279 1.398 . S
C1280 C1281 1.391 . S
C1281 H1269 0.950 . S
C1281 C1277 1.393 . S
C1281 C1280 1.391 . S
C1282 H1272 0.950 . S
C1282 C1283 1.386 . S
C1282 C1284 1.391 . S
C1283 C1282 1.386 . S
C1283 C1287 1.393 . S
C1284 H1273 0.950 . S
C1284 C1282 1.391 . S
C1284 C1285 1.400 . S
C1285 C1279 1.491 . S
C1285 C1284 1.400 . S
C1285 C1286 1.398 . S
C1286 H1274 0.950 . S
C1286 C1285 1.398 . S
C1286 C1287 1.391 . S
C1287 H1275 0.950 . S
C1287 C1283 1.393 . S
C1287 C1286 1.391 . S
H1288 C1296 0.950 . S
H1289 C1301 0.950 . S
H1290 C1298 0.950 . S
H1291 C1300 0.950 . S
H1292 C1302 0.950 . S
H1293 C1304 0.950 . S
H1294 C1306 0.950 . S
H1295 C1307 0.950 . S
C1296 H1288 0.950 . S
C1296 C1297 1.386 . S
C1296 C1298 1.391 . S
C1297 C1296 1.386 . S
C1297 C1301 1.393 . S
C1298 H1290 0.950 . S
C1298 C1296 1.391 . S
C1298 C1299 1.400 . S
C1299 C1298 1.400 . S
C1299 C1300 1.398 . S
C1299 C1305 1.491 . S
C1300 H1291 0.950 . S
C1300 C1299 1.398 . S
C1300 C1301 1.391 . S
C1301 H1289 0.950 . S
C1301 C1297 1.393 . S
C1301 C1300 1.391 . S
C1302 H1292 0.950 . S
C1302 C1303 1.386 . S
C1302 C1304 1.391 . S
C1303 C1302 1.386 . S
C1303 C1307 1.393 . S
C1304 H1293 0.950 . S
C1304 C1302 1.391 . S
C1304 C1305 1.400 . S
C1305 C1299 1.491 . S
C1305 C1304 1.400 . S
C1305 C1306 1.398 . S
C1306 H1294 0.950 . S
C1306 C1305 1.398 . S
C1306 C1307 1.391 . S
C1307 H1295 0.950 . S
C1307 C1303 1.393 . S
C1307 C1306 1.391 . S
H1308 C1316 0.950 . S
H1309 C1321 0.950 . S
H1310 C1318 0.950 . S
H1311 C1320 0.950 . S
H1312 C1322 0.950 . S
H1313 C1324 0.950 . S
H1314 C1326 0.950 . S
H1315 C1327 0.950 . S
C1316 H1308 0.950 . S
C1316 C1317 1.386 . S
C1316 C1318 1.391 . S
C1317 C1316 1.386 . S
C1317 C1321 1.393 . S
C1318 H1310 0.950 . S
C1318 C1316 1.391 . S
C1318 C1319 1.400 . S
C1319 C1318 1.400 . S
C1319 C1320 1.398 . S
C1319 C1325 1.491 . S
C1320 H1311 0.950 . S
C1320 C1319 1.398 . S
C1320 C1321 1.391 . S
C1321 H1309 0.950 . S
C1321 C1317 1.393 . S
C1321 C1320 1.391 . S
C1322 H1312 0.950 . S
C1322 C1323 1.386 . S
C1322 C1324 1.391 . S
C1323 C1322 1.386 . S
C1323 C1327 1.393 . S
C1324 H1313 0.950 . S
C1324 C1322 1.391 . S
C1324 C1325 1.400 . S
C1325 C1319 1.491 . S
C1325 C1324 1.400 . S
C1325 C1326 1.398 . S
C1326 H1314 0.950 . S
C1326 C1325 1.398 . S
C1326 C1327 1.391 . S
C1327 H1315 0.950 . S
C1327 C1323 1.393 . S
C1327 C1326 1.391 . S
H1328 C1336 0.950 . S
H1329 C1341 0.950 . S
H1330 C1338 0.950 . S
H1331 C1340 0.950 . S
H1332 C1342 0.950 . S
H1333 C1344 0.950 . S
H1334 C1346 0.950 . S
H1335 C1347 0.950 . S
C1336 H1328 0.950 . S
C1336 C1337 1.386 . S
C1336 C1338 1.391 . S
C1337 C1336 1.386 . S
C1337 C1341 1.393 . S
C1338 H1330 0.950 . S
C1338 C1336 1.391 . S
C1338 C1339 1.400 . S
C1339 C1338 1.400 . S
C1339 C1340 1.398 . S
C1339 C1345 1.491 . S
C1340 H1331 0.950 . S
C1340 C1339 1.398 . S
C1340 C1341 1.391 . S
C1341 H1329 0.950 . S
C1341 C1337 1.393 . S
C1341 C1340 1.391 . S
C1342 H1332 0.950 . S
C1342 C1343 1.386 . S
C1342 C1344 1.391 . S
C1343 C1342 1.386 . S
C1343 C1347 1.393 . S
C1344 H1333 0.950 . S
C1344 C1342 1.391 . S
C1344 C1345 1.400 . S
C1345 C1339 1.491 . S
C1345 C1344 1.400 . S
C1345 C1346 1.398 . S
C1346 H1334 0.950 . S
C1346 C1345 1.398 . S
C1346 C1347 1.391 . S
C1347 H1335 0.950 . S
C1347 C1343 1.393 . S
C1347 C1346 1.391 . S
H1348 C1356 0.950 . S
H1349 C1361 0.950 . S
H1350 C1358 0.950 . S
H1351 C1360 0.950 . S
H1352 C1362 0.950 . S
H1353 C1364 0.950 . S
H1354 C1366 0.950 . S
H1355 C1367 0.950 . S
C1356 H1348 0.950 . S
C1356 C1357 1.386 . S
C1356 C1358 1.391 . S
C1357 C1356 1.386 . S
C1357 C1361 1.393 . S
C1358 H1350 0.950 . S
C1358 C1356 1.391 . S
C1358 C1359 1.400 . S
C1359 C1358 1.400 . S
C1359 C1360 1.398 . S
C1359 C1365 1.491 . S
C1360 H1351 0.950 . S
C1360 C1359 1.398 . S
C1360 C1361 1.391 . S
C1361 H1349 0.950 . S
C1361 C1357 1.393 . S
C1361 C1360 1.391 . S
C1362 H1352 0.950 . S
C1362 C1363 1.386 . S
C1362 C1364 1.391 . S
C1363 C1362 1.386 . S
C1363 C1367 1.393 . S
C1364 H1353 0.950 . S
C1364 C1362 1.391 . S
C1364 C1365 1.400 . S
C1365 C1359 1.491 . S
C1365 C1364 1.400 . S
C1365 C1366 1.398 . S
C1366 H1354 0.950 . S
C1366 C1365 1.398 . S
C1366 C1367 1.391 . S
C1367 H1355 0.950 . S
C1367 C1363 1.393 . S
C1367 C1366 1.391 . S
H1368 C1376 0.950 . S
H1369 C1381 0.950 . S
H1370 C1378 0.950 . S
H1371 C1380 0.950 . S
H1372 C1382 0.950 . S
H1373 C1384 0.950 . S
H1374 C1386 0.950 . S
H1375 C1387 0.950 . S
C1376 H1368 0.950 . S
C1376 C1377 1.386 . S
C1376 C1378 1.391 . S
C1377 C1376 1.386 . S
C1377 C1381 1.393 . S
C1378 H1370 0.950 . S
C1378 C1376 1.391 . S
C1378 C1379 1.400 . S
C1379 C1378 1.400 . S
C1379 C1380 1.398 . S
C1379 C1385 1.491 . S
C1380 H1371 0.950 . S
C1380 C1379 1.398 . S
C1380 C1381 1.391 . S
C1381 H1369 0.950 . S
C1381 C1377 1.393 . S
C1381 C1380 1.391 . S
C1382 H1372 0.950 . S
C1382 C1383 1.386 . S
C1382 C1384 1.391 . S
C1383 C1382 1.386 . S
C1383 C1387 1.393 . S
C1384 H1373 0.950 . S
C1384 C1382 1.391 . S
C1384 C1385 1.400 . S
C1385 C1379 1.491 . S
C1385 C1384 1.400 . S
C1385 C1386 1.398 . S
C1386 H1374 0.950 . S
C1386 C1385 1.398 . S
C1386 C1387 1.391 . S
C1387 H1375 0.950 . S
C1387 C1383 1.393 . S
C1387 C1386 1.391 . S
H1388 C1396 0.950 . S
H1389 C1401 0.950 . S
H1390 C1398 0.950 . S
H1391 C1400 0.950 . S
H1392 C1402 0.950 . S
H1393 C1404 0.950 . S
H1394 C1406 0.950 . S
H1395 C1407 0.950 . S
C1396 H1388 0.950 . S
C1396 C1397 1.386 . S
C1396 C1398 1.391 . S
C1397 C1396 1.386 . S
C1397 C1401 1.393 . S
C1398 H1390 0.950 . S
C1398 C1396 1.391 . S
C1398 C1399 1.400 . S
C1399 C1398 1.400 . S
C1399 C1400 1.398 . S
C1399 C1405 1.491 . S
C1400 H1391 0.950 . S
C1400 C1399 1.398 . S
C1400 C1401 1.391 . S
C1401 H1389 0.950 . S
C1401 C1397 1.393 . S
C1401 C1400 1.391 . S
C1402 H1392 0.950 . S
C1402 C1403 1.386 . S
C1402 C1404 1.391 . S
C1403 C1402 1.386 . S
C1403 C1407 1.393 . S
C1404 H1393 0.950 . S
C1404 C1402 1.391 . S
C1404 C1405 1.400 . S
C1405 C1399 1.491 . S
C1405 C1404 1.400 . S
C1405 C1406 1.398 . S
C1406 H1394 0.950 . S
C1406 C1405 1.398 . S
C1406 C1407 1.391 . S
C1407 H1395 0.950 . S
C1407 C1403 1.393 . S
C1407 C1406 1.391 . S
H1408 C1416 0.950 . S
H1409 C1421 0.950 . S
H1410 C1418 0.950 . S
H1411 C1420 0.950 . S
H1412 C1422 0.950 . S
H1413 C1424 0.950 . S
H1414 C1426 0.950 . S
H1415 C1427 0.950 . S
C1416 H1408 0.950 . S
C1416 C1417 1.386 . S
C1416 C1418 1.391 . S
C1417 C1416 1.386 . S
C1417 C1421 1.393 . S
C1418 H1410 0.950 . S
C1418 C1416 1.391 . S
C1418 C1419 1.400 . S
C1419 C1418 1.400 . S
C1419 C1420 1.398 . S
C1419 C1425 1.491 . S
C1420 H1411 0.950 . S
C1420 C1419 1.398 . S
C1420 C1421 1.391 . S
C1421 H1409 0.950 . S
C1421 C1417 1.393 . S
C1421 C1420 1.391 . S
C1422 H1412 0.950 . S
C1422 C1423 1.386 . S
C1422 C1424 1.391 . S
C1423 C1422 1.386 . S
C1423 C1427 1.393 . S
C1424 H1413 0.950 . S
C1424 C1422 1.391 . S
C1424 C1425 1.400 . S
C1425 C1419 1.491 . S
C1425 C1424 1.400 . S
C1425 C1426 1.398 . S
C1426 H1414 0.950 . S
C1426 C1425 1.398 . S
C1426 C1427 1.391 . S
C1427 H1415 0.950 . S
C1427 C1423 1.393 . S
C1427 C1426 1.391 . S
H1428 C1436 0.950 . S
H1429 C1441 0.950 . S
H1430 C1438 0.950 . S
H1431 C1440 0.950 . S
H1432 C1442 0.950 . S
H1433 C1444 0.950 . S
H1434 C1446 0.950 . S
H1435 C1447 0.950 . S
C1436 H1428 0.950 . S
C1436 C1437 1.386 . S
C1436 C1438 1.391 . S
C1437 C1436 1.386 . S
C1437 C1441 1.393 . S
C1438 H1430 0.950 . S
C1438 C1436 1.391 . S
C1438 C1439 1.400 . S
C1439 C1438 1.400 . S
C1439 C1440 1.398 . S
C1439 C1445 1.491 . S
C1440 H1431 0.950 . S
C1440 C1439 1.398 . S
C1440 C1441 1.391 . S
C1441 H1429 0.950 . S
C1441 C1437 1.393 . S
C1441 C1440 1.391 . S
C1442 H1432 0.950 . S
C1442 C1443 1.386 . S
C1442 C1444 1.391 . S
C1443 C1442 1.386 . S
C1443 C1447 1.393 . S
C1444 H1433 0.950 . S
C1444 C1442 1.391 . S
C1444 C1445 1.400 . S
C1445 C1439 1.491 . S
C1445 C1444 1.400 . S
C1445 C1446 1.398 . S
C1446 H1434 0.950 . S
C1446 C1445 1.398 . S
C1446 C1447 1.391 . S
C1447 H1435 0.950 . S
C1447 C1443 1.393 . S
C1447 C1446 1.391 . S
H1448 C1456 0.950 . S
H1449 C1461 0.950 . S
H1450 C1458 0.950 . S
H1451 C1460 0.950 . S
H1452 C1462 0.950 . S
H1453 C1464 0.950 . S
H1454 C1466 0.950 1_556 S
H1455 C1467 0.950 . S
C1456 H1448 0.950 . S
C1456 C1457 1.386 . S
C1456 C1458 1.391 . S
C1457 C1456 1.386 . S
C1457 C1461 1.393 . S
C1458 H1450 0.950 . S
C1458 C1456 1.391 . S
C1458 C1459 1.400 . S
C1459 C1458 1.400 . S
C1459 C1460 1.398 . S
C1459 C1465 1.491 . S
C1460 H1451 0.950 . S
C1460 C1459 1.398 . S
C1460 C1461 1.391 . S
C1461 H1449 0.950 . S
C1461 C1457 1.393 . S
C1461 C1460 1.391 . S
C1462 H1452 0.950 . S
C1462 C1463 1.386 . S
C1462 C1464 1.391 1_554 S
C1463 C1462 1.386 . S
C1463 C1467 1.393 . S
C1464 H1453 0.950 . S
C1464 C1462 1.391 1_556 S
C1464 C1465 1.400 . S
C1465 C1459 1.491 . S
C1465 C1464 1.400 . S
C1465 C1466 1.398 1_556 S
C1466 H1454 0.950 1_554 S
C1466 C1465 1.398 1_554 S
C1466 C1467 1.391 . S
C1467 H1455 0.950 . S
C1467 C1463 1.393 . S
C1467 C1466 1.391 . S
H1468 C1476 0.950 . S
H1469 C1481 0.950 . S
H1470 C1478 0.950 . S
H1471 C1480 0.950 . S
H1472 C1482 0.950 . S
H1473 C1484 0.950 . S
H1474 C1486 0.950 . S
H1475 C1487 0.950 . S
C1476 H1468 0.950 . S
C1476 C1477 1.386 . S
C1476 C1478 1.391 . S
C1477 C1476 1.386 . S
C1477 C1481 1.393 . S
C1478 H1470 0.950 . S
C1478 C1476 1.391 . S
C1478 C1479 1.400 . S
C1479 C1478 1.400 . S
C1479 C1480 1.398 . S
C1479 C1485 1.491 . S
C1480 H1471 0.950 . S
C1480 C1479 1.398 . S
C1480 C1481 1.391 . S
C1481 H1469 0.950 . S
C1481 C1477 1.393 . S
C1481 C1480 1.391 . S
C1482 H1472 0.950 . S
C1482 C1483 1.386 . S
C1482 C1484 1.391 . S
C1483 C1482 1.386 . S
C1483 C1487 1.393 . S
C1484 H1473 0.950 . S
C1484 C1482 1.391 . S
C1484 C1485 1.400 . S
C1485 C1479 1.491 . S
C1485 C1484 1.400 . S
C1485 C1486 1.398 . S
C1486 H1474 0.950 . S
C1486 C1485 1.398 . S
C1486 C1487 1.391 . S
C1487 H1475 0.950 . S
C1487 C1483 1.393 . S
C1487 C1486 1.391 . S
H1488 C1496 0.950 . S
H1489 C1501 0.950 . S
H1490 C1498 0.950 . S
H1491 C1500 0.950 . S
H1492 C1502 0.950 . S
H1493 C1504 0.950 . S
H1494 C1506 0.950 . S
H1495 C1507 0.950 1_565 S
C1496 H1488 0.950 . S
C1496 C1497 1.386 . S
C1496 C1498 1.391 . S
C1497 C1496 1.386 . S
C1497 C1501 1.393 . S
C1498 H1490 0.950 . S
C1498 C1496 1.391 . S
C1498 C1499 1.400 . S
C1499 C1498 1.400 . S
C1499 C1500 1.398 . S
C1499 C1505 1.491 . S
C1500 H1491 0.950 . S
C1500 C1499 1.398 . S
C1500 C1501 1.391 . S
C1501 H1489 0.950 . S
C1501 C1497 1.393 . S
C1501 C1500 1.391 . S
C1502 H1492 0.950 . S
C1502 C1503 1.386 . S
C1502 C1504 1.391 . S
C1503 C1502 1.386 . S
C1503 C1507 1.393 . S
C1504 H1493 0.950 . S
C1504 C1502 1.391 . S
C1504 C1505 1.400 . S
C1505 C1499 1.491 . S
C1505 C1504 1.400 . S
C1505 C1506 1.398 . S
C1506 H1494 0.950 . S
C1506 C1505 1.398 . S
C1506 C1507 1.391 . S
C1507 H1495 0.950 1_545 S
C1507 C1503 1.393 . S
C1507 C1506 1.391 . S
H1508 C1516 0.950 . S
H1509 C1521 0.950 . S
H1510 C1518 0.950 . S
H1511 C1520 0.950 . S
H1512 C1522 0.950 . S
H1513 C1524 0.950 . S
H1514 C1526 0.950 . S
H1515 C1527 0.950 . S
C1516 H1508 0.950 . S
C1516 C1517 1.386 . S
C1516 C1518 1.391 . S
C1517 C1516 1.386 . S
C1517 C1521 1.393 . S
C1518 H1510 0.950 . S
C1518 C1516 1.391 . S
C1518 C1519 1.400 . S
C1519 C1518 1.400 . S
C1519 C1520 1.398 . S
C1519 C1525 1.491 . S
C1520 H1511 0.950 . S
C1520 C1519 1.398 . S
C1520 C1521 1.391 . S
C1521 H1509 0.950 . S
C1521 C1517 1.393 . S
C1521 C1520 1.391 . S
C1522 H1512 0.950 . S
C1522 C1523 1.386 . S
C1522 C1524 1.391 . S
C1523 C1522 1.386 . S
C1523 C1527 1.393 . S
C1524 H1513 0.950 . S
C1524 C1522 1.391 . S
C1524 C1525 1.400 . S
C1525 C1519 1.491 . S
C1525 C1524 1.400 . S
C1525 C1526 1.398 . S
C1526 H1514 0.950 . S
C1526 C1525 1.398 . S
C1526 C1527 1.391 . S
C1527 H1515 0.950 . S
C1527 C1523 1.393 . S
C1527 C1526 1.391 . S
H1528 C1536 0.950 . S
H1529 C1541 0.950 . S
H1530 C1538 0.950 . S
H1531 C1540 0.950 . S
H1532 C1542 0.950 . S
H1533 C1544 0.950 . S
H1534 C1546 0.950 . S
H1535 C1547 0.950 . S
C1536 H1528 0.950 . S
C1536 C1537 1.386 . S
C1536 C1538 1.391 . S
C1537 C1536 1.386 . S
C1537 C1541 1.393 . S
C1538 H1530 0.950 . S
C1538 C1536 1.391 . S
C1538 C1539 1.400 . S
C1539 C1538 1.400 . S
C1539 C1540 1.398 . S
C1539 C1545 1.491 . S
C1540 H1531 0.950 . S
C1540 C1539 1.398 . S
C1540 C1541 1.391 . S
C1541 H1529 0.950 . S
C1541 C1537 1.393 . S
C1541 C1540 1.391 . S
C1542 H1532 0.950 . S
C1542 C1543 1.386 . S
C1542 C1544 1.391 . S
C1543 C1542 1.386 . S
C1543 C1547 1.393 . S
C1544 H1533 0.950 . S
C1544 C1542 1.391 . S
C1544 C1545 1.400 . S
C1545 C1539 1.491 . S
C1545 C1544 1.400 . S
C1545 C1546 1.398 . S
C1546 H1534 0.950 . S
C1546 C1545 1.398 . S
C1546 C1547 1.391 . S
C1547 H1535 0.950 . S
C1547 C1543 1.393 . S
C1547 C1546 1.391 . S
H1548 C1556 0.950 . S
H1549 C1561 0.950 . S
H1550 C1558 0.950 . S
H1551 C1560 0.950 . S
H1552 C1562 0.950 . S
H1553 C1564 0.950 . S
H1554 C1566 0.950 . S
H1555 C1567 0.950 . S
C1556 H1548 0.950 . S
C1556 C1557 1.386 . S
C1556 C1558 1.391 . S
C1557 C1556 1.386 . S
C1557 C1561 1.393 . S
C1558 H1550 0.950 . S
C1558 C1556 1.391 . S
C1558 C1559 1.400 . S
C1559 C1558 1.400 . S
C1559 C1560 1.398 . S
C1559 C1565 1.491 . S
C1560 H1551 0.950 . S
C1560 C1559 1.398 . S
C1560 C1561 1.391 . S
C1561 H1549 0.950 . S
C1561 C1557 1.393 . S
C1561 C1560 1.391 . S
C1562 H1552 0.950 . S
C1562 C1563 1.386 . S
C1562 C1564 1.391 . S
C1563 C1562 1.386 . S
C1563 C1567 1.393 . S
C1564 H1553 0.950 . S
C1564 C1562 1.391 . S
C1564 C1565 1.400 . S
C1565 C1559 1.491 . S
C1565 C1564 1.400 . S
C1565 C1566 1.398 . S
C1566 H1554 0.950 . S
C1566 C1565 1.398 . S
C1566 C1567 1.391 . S
C1567 H1555 0.950 . S
C1567 C1563 1.393 . S
C1567 C1566 1.391 . S
H1568 C1576 0.950 . S
H1569 C1581 0.950 . S
H1570 C1578 0.950 . S
H1571 C1580 0.950 . S
H1572 C1582 0.950 . S
H1573 C1584 0.950 . S
H1574 C1586 0.950 . S
H1575 C1587 0.950 . S
C1576 H1568 0.950 . S
C1576 C1577 1.386 . S
C1576 C1578 1.391 . S
C1577 C1576 1.386 . S
C1577 C1581 1.393 . S
C1578 H1570 0.950 . S
C1578 C1576 1.391 . S
C1578 C1579 1.400 . S
C1579 C1578 1.400 . S
C1579 C1580 1.398 . S
C1579 C1585 1.491 . S
C1580 H1571 0.950 . S
C1580 C1579 1.398 . S
C1580 C1581 1.391 . S
C1581 H1569 0.950 . S
C1581 C1577 1.393 . S
C1581 C1580 1.391 . S
C1582 H1572 0.950 . S
C1582 C1583 1.386 . S
C1582 C1584 1.391 . S
C1583 C1582 1.386 . S
C1583 C1587 1.393 . S
C1584 H1573 0.950 . S
C1584 C1582 1.391 . S
C1584 C1585 1.400 . S
C1585 C1579 1.491 . S
C1585 C1584 1.400 . S
C1585 C1586 1.398 . S
C1586 H1574 0.950 . S
C1586 C1585 1.398 . S
C1586 C1587 1.391 . S
C1587 H1575 0.950 . S
C1587 C1583 1.393 . S
C1587 C1586 1.391 . S
H1588 C1596 0.947 1_565 S
H1589 C1601 0.950 . S
H1590 C1598 0.950 . S
H1591 C1600 0.950 . S
H1592 C1602 0.950 . S
H1593 C1604 0.950 . S
H1594 C1606 0.950 . S
H1595 C1607 0.950 . S
C1596 H1588 0.947 1_545 S
C1596 C1597 1.386 . S
C1596 C1598 1.391 . S
C1597 C1596 1.386 . S
C1597 C1601 1.393 . S
C1598 H1590 0.950 . S
C1598 C1596 1.391 . S
C1598 C1599 1.400 . S
C1599 C1598 1.400 . S
C1599 C1600 1.398 . S
C1599 C1605 1.491 . S
C1600 H1591 0.950 . S
C1600 C1599 1.398 . S
C1600 C1601 1.391 . S
C1601 H1589 0.950 . S
C1601 C1597 1.393 . S
C1601 C1600 1.391 . S
C1602 H1592 0.950 . S
C1602 C1603 1.386 . S
C1602 C1604 1.391 . S
C1603 C1602 1.386 . S
C1603 C1607 1.393 . S
C1604 H1593 0.950 . S
C1604 C1602 1.391 . S
C1604 C1605 1.400 . S
C1605 C1599 1.491 . S
C1605 C1604 1.400 . S
C1605 C1606 1.398 . S
C1606 H1594 0.950 . S
C1606 C1605 1.398 . S
C1606 C1607 1.391 . S
C1607 H1595 0.950 . S
C1607 C1603 1.393 . S
C1607 C1606 1.391 . S
H1608 C1616 0.950 . S
H1609 C1621 0.950 . S
H1610 C1618 0.950 . S
H1611 C1620 0.950 . S
H1612 C1622 0.950 . S
H1613 C1624 0.950 . S
H1614 C1626 0.950 . S
H1615 C1627 0.950 . S
C1616 H1608 0.950 . S
C1616 C1617 1.386 . S
C1616 C1618 1.391 . S
C1617 C1616 1.386 . S
C1617 C1621 1.393 . S
C1618 H1610 0.950 . S
C1618 C1616 1.391 . S
C1618 C1619 1.400 . S
C1619 C1618 1.400 . S
C1619 C1620 1.398 . S
C1619 C1625 1.491 . S
C1620 H1611 0.950 . S
C1620 C1619 1.398 . S
C1620 C1621 1.391 . S
C1621 H1609 0.950 . S
C1621 C1617 1.393 . S
C1621 C1620 1.391 . S
C1622 H1612 0.950 . S
C1622 C1623 1.386 . S
C1622 C1624 1.391 . S
C1623 C1622 1.386 . S
C1623 C1627 1.393 . S
C1624 H1613 0.950 . S
C1624 C1622 1.391 . S
C1624 C1625 1.400 . S
C1625 C1619 1.491 . S
C1625 C1624 1.400 . S
C1625 C1626 1.398 . S
C1626 H1614 0.950 . S
C1626 C1625 1.398 . S
C1626 C1627 1.391 . S
C1627 H1615 0.950 . S
C1627 C1623 1.393 . S
C1627 C1626 1.391 . S
H1628 C1636 0.950 . S
H1629 C1641 0.950 . S
H1630 C1638 0.950 . S
H1631 C1640 0.950 . S
H1632 C1642 0.950 1_565 S
H1633 C1644 0.950 1_565 S
H1634 C1646 0.950 . S
H1635 C1647 0.950 . S
C1636 H1628 0.950 . S
C1636 C1637 1.386 . S
C1636 C1638 1.391 . S
C1637 C1636 1.386 . S
C1637 C1641 1.393 . S
C1638 H1630 0.950 . S
C1638 C1636 1.391 . S
C1638 C1639 1.400 . S
C1639 C1638 1.400 . S
C1639 C1640 1.398 . S
C1639 C1645 1.491 . S
C1640 H1631 0.950 . S
C1640 C1639 1.398 . S
C1640 C1641 1.391 . S
C1641 H1629 0.950 . S
C1641 C1637 1.393 . S
C1641 C1640 1.391 . S
C1642 H1632 0.950 1_545 S
C1642 C1643 1.386 . S
C1642 C1644 1.391 . S
C1643 C1642 1.386 . S
C1643 C1647 1.393 . S
C1644 H1633 0.950 1_545 S
C1644 C1642 1.391 . S
C1644 C1645 1.400 . S
C1645 C1639 1.491 . S
C1645 C1644 1.400 . S
C1645 C1646 1.398 . S
C1646 H1634 0.950 . S
C1646 C1645 1.398 . S
C1646 C1647 1.391 . S
C1647 H1635 0.950 . S
C1647 C1643 1.393 . S
C1647 C1646 1.391 . S
H1648 C1656 0.950 . S
H1649 C1661 0.950 . S
H1650 C1658 0.950 . S
H1651 C1660 0.950 . S
H1652 C1662 0.950 . S
H1653 C1664 0.944 1_554 S
H1654 C1666 0.950 . S
H1655 C1667 0.950 . S
C1656 H1648 0.950 . S
C1656 C1657 1.386 . S
C1656 C1658 1.391 . S
C1657 C1656 1.386 . S
C1657 C1661 1.393 . S
C1658 H1650 0.950 . S
C1658 C1656 1.391 . S
C1658 C1659 1.400 . S
C1659 C1658 1.400 . S
C1659 C1660 1.398 . S
C1659 C1665 1.491 . S
C1660 H1651 0.950 . S
C1660 C1659 1.398 . S
C1660 C1661 1.391 . S
C1661 H1649 0.950 . S
C1661 C1657 1.393 . S
C1661 C1660 1.391 . S
C1662 H1652 0.950 . S
C1662 C1663 1.386 . S
C1662 C1664 1.399 . S
C1663 C1662 1.386 . S
C1663 C1667 1.393 . S
C1664 H1653 0.944 1_556 S
C1664 C1662 1.399 . S
C1664 C1665 1.398 1_556 S
C1665 C1659 1.491 . S
C1665 C1664 1.398 1_554 S
C1665 C1666 1.398 1_554 S
C1666 H1654 0.950 . S
C1666 C1665 1.398 1_556 S
C1666 C1667 1.391 . S
C1667 H1655 0.950 . S
C1667 C1663 1.393 . S
C1667 C1666 1.391 . S
H1668 C1676 0.950 . S
H1669 C1681 0.950 . S
H1670 C1678 0.950 . S
H1671 C1680 0.950 . S
H1672 C1682 0.950 . S
H1673 C1684 0.950 . S
H1674 C1686 0.950 . S
H1675 C1687 0.950 . S
C1676 H1668 0.950 . S
C1676 C1677 1.386 . S
C1676 C1678 1.391 . S
C1677 C1676 1.386 . S
C1677 C1681 1.393 . S
C1678 H1670 0.950 . S
C1678 C1676 1.391 . S
C1678 C1679 1.400 . S
C1679 C1678 1.400 . S
C1679 C1680 1.398 . S
C1679 C1685 1.491 . S
C1680 H1671 0.950 . S
C1680 C1679 1.398 . S
C1680 C1681 1.391 . S
C1681 H1669 0.950 . S
C1681 C1677 1.393 . S
C1681 C1680 1.391 . S
C1682 H1672 0.950 . S
C1682 C1683 1.386 . S
C1682 C1684 1.391 . S
C1683 C1682 1.386 . S
C1683 C1687 1.393 . S
C1684 H1673 0.950 . S
C1684 C1682 1.391 . S
C1684 C1685 1.400 . S
C1685 C1679 1.491 . S
C1685 C1684 1.400 . S
C1685 C1686 1.398 . S
C1686 H1674 0.950 . S
C1686 C1685 1.398 . S
C1686 C1687 1.391 . S
C1687 H1675 0.950 . S
C1687 C1683 1.393 . S
C1687 C1686 1.391 . S
H1688 C1696 0.950 . S
H1689 C1701 0.950 . S
H1690 C1698 0.950 . S
H1691 C1700 0.950 . S
H1692 C1702 0.950 . S
H1693 C1704 0.950 . S
H1694 C1706 0.950 . S
H1695 C1707 0.950 . S
C1696 H1688 0.950 . S
C1696 C1697 1.386 . S
C1696 C1698 1.391 . S
C1697 C1696 1.386 . S
C1697 C1701 1.393 . S
C1698 H1690 0.950 . S
C1698 C1696 1.391 . S
C1698 C1699 1.400 . S
C1699 C1698 1.400 . S
C1699 C1700 1.398 . S
C1699 C1705 1.491 . S
C1700 H1691 0.950 . S
C1700 C1699 1.398 . S
C1700 C1701 1.391 . S
C1701 H1689 0.950 . S
C1701 C1697 1.393 . S
C1701 C1700 1.391 . S
C1702 H1692 0.950 . S
C1702 C1703 1.386 . S
C1702 C1704 1.391 . S
C1703 C1702 1.386 . S
C1703 C1707 1.393 . S
C1704 H1693 0.950 . S
C1704 C1702 1.391 . S
C1704 C1705 1.400 . S
C1705 C1699 1.491 . S
C1705 C1704 1.400 . S
C1705 C1706 1.398 . S
C1706 H1694 0.950 . S
C1706 C1705 1.398 . S
C1706 C1707 1.391 . S
C1707 H1695 0.950 . S
C1707 C1703 1.393 . S
C1707 C1706 1.391 . S
H1708 C1716 0.950 . S
H1709 C1721 0.950 . S
H1710 C1718 0.950 . S
H1711 C1720 0.950 . S
H1712 C1722 0.950 . S
H1713 C1724 0.950 . S
H1714 C1726 0.950 . S
H1715 C1727 0.950 . S
C1716 H1708 0.950 . S
C1716 C1717 1.386 . S
C1716 C1718 1.391 . S
C1717 C1716 1.386 . S
C1717 C1721 1.393 . S
C1718 H1710 0.950 . S
C1718 C1716 1.391 . S
C1718 C1719 1.400 . S
C1719 C1718 1.400 . S
C1719 C1720 1.398 . S
C1719 C1725 1.491 . S
C1720 H1711 0.950 . S
C1720 C1719 1.398 . S
C1720 C1721 1.391 . S
C1721 H1709 0.950 . S
C1721 C1717 1.393 . S
C1721 C1720 1.391 . S
C1722 H1712 0.950 . S
C1722 C1723 1.386 . S
C1722 C1724 1.391 . S
C1723 C1722 1.386 . S
C1723 C1727 1.393 . S
C1724 H1713 0.950 . S
C1724 C1722 1.391 . S
C1724 C1725 1.400 . S
C1725 C1719 1.491 . S
C1725 C1724 1.400 . S
C1725 C1726 1.398 . S
C1726 H1714 0.950 . S
C1726 C1725 1.398 . S
C1726 C1727 1.391 . S
C1727 H1715 0.950 . S
C1727 C1723 1.393 . S
C1727 C1726 1.391 . S
H1728 C1736 0.950 . S
H1729 C1741 0.950 . S
H1730 C1738 0.950 . S
H1731 C1740 0.950 . S
H1732 C1742 0.950 . S
H1733 C1744 0.950 . S
H1734 C1746 0.950 . S
H1735 C1747 0.950 . S
C1736 H1728 0.950 . S
C1736 C1737 1.386 . S
C1736 C1738 1.391 . S
C1737 C1736 1.386 . S
C1737 C1741 1.393 . S
C1738 H1730 0.950 . S
C1738 C1736 1.391 . S
C1738 C1739 1.400 . S
C1739 C1738 1.400 . S
C1739 C1740 1.398 . S
C1739 C1745 1.491 . S
C1740 H1731 0.950 . S
C1740 C1739 1.398 . S
C1740 C1741 1.391 . S
C1741 H1729 0.950 . S
C1741 C1737 1.393 . S
C1741 C1740 1.391 . S
C1742 H1732 0.950 . S
C1742 C1743 1.386 . S
C1742 C1744 1.391 . S
C1743 C1742 1.386 . S
C1743 C1747 1.393 . S
C1744 H1733 0.950 . S
C1744 C1742 1.391 . S
C1744 C1745 1.400 . S
C1745 C1739 1.491 . S
C1745 C1744 1.400 . S
C1745 C1746 1.398 . S
C1746 H1734 0.950 . S
C1746 C1745 1.398 . S
C1746 C1747 1.391 . S
C1747 H1735 0.950 . S
C1747 C1743 1.393 . S
C1747 C1746 1.391 . S
H1748 C1756 0.950 . S
H1749 C1761 0.950 . S
H1750 C1758 0.950 . S
H1751 C1760 0.950 . S
H1752 C1762 0.950 . S
H1753 C1764 0.950 . S
H1754 C1766 0.950 . S
H1755 C1767 0.950 . S
C1756 H1748 0.950 . S
C1756 C1757 1.386 . S
C1756 C1758 1.391 . S
C1757 C1756 1.386 . S
C1757 C1761 1.393 . S
C1758 H1750 0.950 . S
C1758 C1756 1.391 . S
C1758 C1759 1.400 . S
C1759 C1758 1.400 . S
C1759 C1760 1.398 . S
C1759 C1765 1.491 . S
C1760 H1751 0.950 . S
C1760 C1759 1.398 . S
C1760 C1761 1.391 . S
C1761 H1749 0.950 . S
C1761 C1757 1.393 . S
C1761 C1760 1.391 . S
C1762 H1752 0.950 . S
C1762 C1763 1.386 . S
C1762 C1764 1.391 . S
C1763 C1762 1.386 . S
C1763 C1767 1.393 . S
C1764 H1753 0.950 . S
C1764 C1762 1.391 . S
C1764 C1765 1.400 . S
C1765 C1759 1.491 . S
C1765 C1764 1.400 . S
C1765 C1766 1.398 . S
C1766 H1754 0.950 . S
C1766 C1765 1.398 . S
C1766 C1767 1.391 . S
C1767 H1755 0.950 . S
C1767 C1763 1.393 . S
C1767 C1766 1.391 . S
H1768 C1776 0.950 . S
H1769 C1781 0.950 . S
H1770 C1778 0.950 . S
H1771 C1780 0.950 . S
H1772 C1782 0.950 . S
H1773 C1784 0.950 . S
H1774 C1786 0.950 . S
H1775 C1787 0.950 . S
C1776 H1768 0.950 . S
C1776 C1777 1.386 . S
C1776 C1778 1.391 . S
C1777 C1776 1.386 . S
C1777 C1781 1.393 . S
C1778 H1770 0.950 . S
C1778 C1776 1.391 . S
C1778 C1779 1.400 . S
C1779 C1778 1.400 . S
C1779 C1780 1.398 . S
C1779 C1785 1.491 . S
C1780 H1771 0.950 . S
C1780 C1779 1.398 . S
C1780 C1781 1.391 . S
C1781 H1769 0.950 . S
C1781 C1777 1.393 . S
C1781 C1780 1.391 . S
C1782 H1772 0.950 . S
C1782 C1783 1.386 . S
C1782 C1784 1.391 . S
C1783 C1782 1.386 . S
C1783 C1787 1.393 . S
C1784 H1773 0.950 . S
C1784 C1782 1.391 . S
C1784 C1785 1.400 . S
C1785 C1779 1.491 . S
C1785 C1784 1.400 . S
C1785 C1786 1.398 . S
C1786 H1774 0.950 . S
C1786 C1785 1.398 . S
C1786 C1787 1.391 . S
C1787 H1775 0.950 . S
C1787 C1783 1.393 . S
C1787 C1786 1.391 . S
H1788 C1796 0.950 . S
H1789 C1801 0.950 . S
H1790 C1798 0.950 . S
H1791 C1800 0.950 . S
H1792 C1802 0.950 1_455 S
H1793 C1804 0.950 . S
H1794 C1806 0.950 . S
H1795 C1807 0.950 . S
C1796 H1788 0.950 . S
C1796 C1797 1.386 . S
C1796 C1798 1.391 . S
C1797 C1796 1.386 . S
C1797 C1801 1.393 . S
C1798 H1790 0.950 . S
C1798 C1796 1.391 . S
C1798 C1799 1.400 . S
C1799 C1798 1.400 . S
C1799 C1800 1.398 . S
C1799 C1805 1.491 . S
C1800 H1791 0.950 . S
C1800 C1799 1.398 . S
C1800 C1801 1.391 . S
C1801 H1789 0.950 . S
C1801 C1797 1.393 . S
C1801 C1800 1.391 . S
C1802 H1792 0.950 1_655 S
C1802 C1803 1.386 . S
C1802 C1804 1.391 . S
C1803 C1802 1.386 . S
C1803 C1807 1.393 . S
C1804 H1793 0.950 . S
C1804 C1802 1.391 . S
C1804 C1805 1.400 . S
C1805 C1799 1.491 . S
C1805 C1804 1.400 . S
C1805 C1806 1.398 . S
C1806 H1794 0.950 . S
C1806 C1805 1.398 . S
C1806 C1807 1.391 . S
C1807 H1795 0.950 . S
C1807 C1803 1.393 . S
C1807 C1806 1.391 . S
H1808 C1816 0.950 . S
H1809 C1821 0.950 1_556 S
H1810 C1818 0.950 . S
H1811 C1820 0.950 1_556 S
H1812 C1822 0.950 1_556 S
H1813 C1824 0.950 1_556 S
H1814 C1826 0.950 . S
H1815 C1827 0.950 . S
C1816 H1808 0.950 . S
C1816 C1817 1.386 . S
C1816 C1818 1.391 . S
C1817 C1816 1.386 . S
C1817 C1821 1.393 . S
C1818 H1810 0.950 . S
C1818 C1816 1.391 . S
C1818 C1819 1.400 . S
C1819 C1818 1.400 . S
C1819 C1820 1.398 . S
C1819 C1825 1.491 . S
C1820 H1811 0.950 1_554 S
C1820 C1819 1.398 . S
C1820 C1821 1.391 . S
C1821 H1809 0.950 1_554 S
C1821 C1817 1.393 . S
C1821 C1820 1.391 . S
C1822 H1812 0.950 1_554 S
C1822 C1823 1.386 . S
C1822 C1824 1.391 . S
C1823 C1822 1.386 . S
C1823 C1827 1.393 . S
C1824 H1813 0.950 1_554 S
C1824 C1822 1.391 . S
C1824 C1825 1.400 . S
C1825 C1819 1.491 . S
C1825 C1824 1.400 . S
C1825 C1826 1.398 . S
C1826 H1814 0.950 . S
C1826 C1825 1.398 . S
C1826 C1827 1.391 . S
C1827 H1815 0.950 . S
C1827 C1823 1.393 . S
C1827 C1826 1.391 . S
H1828 C1836 0.950 . S
H1829 C1841 0.950 . S
H1830 C1838 0.950 . S
H1831 C1840 0.950 . S
H1832 C1842 0.950 . S
H1833 C1844 0.950 . S
H1834 C1846 0.950 . S
H1835 C1847 0.950 . S
C1836 H1828 0.950 . S
C1836 C1837 1.386 . S
C1836 C1838 1.391 . S
C1837 C1836 1.386 . S
C1837 C1841 1.393 . S
C1838 H1830 0.950 . S
C1838 C1836 1.391 . S
C1838 C1839 1.400 . S
C1839 C1838 1.400 . S
C1839 C1840 1.398 . S
C1839 C1845 1.491 . S
C1840 H1831 0.950 . S
C1840 C1839 1.398 . S
C1840 C1841 1.391 . S
C1841 H1829 0.950 . S
C1841 C1837 1.393 . S
C1841 C1840 1.391 . S
C1842 H1832 0.950 . S
C1842 C1843 1.386 . S
C1842 C1844 1.391 . S
C1843 C1842 1.386 . S
C1843 C1847 1.393 . S
C1844 H1833 0.950 . S
C1844 C1842 1.391 . S
C1844 C1845 1.400 . S
C1845 C1839 1.491 . S
C1845 C1844 1.400 . S
C1845 C1846 1.398 . S
C1846 H1834 0.950 . S
C1846 C1845 1.398 . S
C1846 C1847 1.391 . S
C1847 H1835 0.950 . S
C1847 C1843 1.393 . S
C1847 C1846 1.391 . S
H1848 C1856 0.950 . S
H1849 C1861 0.950 . S
H1850 C1858 0.950 . S
H1851 C1860 0.938 1_545 S
H1852 C1862 0.950 . S
H1853 C1864 0.950 . S
H1854 C1866 0.950 1_565 S
H1855 C1867 0.950 . S
C1856 H1848 0.950 . S
C1856 C1857 1.386 . S
C1856 C1858 1.391 . S
C1857 C1856 1.386 . S
C1857 C1861 1.393 . S
C1858 H1850 0.950 . S
C1858 C1856 1.391 . S
C1858 C1859 1.400 . S
C1859 C1858 1.400 . S
C1859 C1860 1.395 . S
C1859 C1865 1.491 1_565 S
C1860 H1851 0.938 1_565 S
C1860 C1859 1.395 . S
C1860 C1861 1.406 . S
C1861 H1849 0.950 . S
C1861 C1857 1.393 . S
C1861 C1860 1.406 . S
C1862 H1852 0.950 . S
C1862 C1863 1.386 . S
C1862 C1864 1.391 . S
C1863 C1862 1.386 . S
C1863 C1867 1.393 . S
C1864 H1853 0.950 . S
C1864 C1862 1.391 . S
C1864 C1865 1.400 . S
C1865 C1859 1.491 1_545 S
C1865 C1864 1.400 . S
C1865 C1866 1.398 . S
C1866 H1854 0.950 1_545 S
C1866 C1865 1.398 . S
C1866 C1867 1.391 . S
C1867 H1855 0.950 . S
C1867 C1863 1.393 . S
C1867 C1866 1.391 . S
H1868 C1876 0.950 . S
H1869 C1881 0.950 . S
H1870 C1878 0.950 . S
H1871 C1880 0.950 . S
H1872 C1882 0.950 . S
H1873 C1884 0.950 . S
H1874 C1886 0.950 . S
H1875 C1887 0.950 . S
C1876 H1868 0.950 . S
C1876 C1877 1.386 . S
C1876 C1878 1.391 . S
C1877 C1876 1.386 . S
C1877 C1881 1.393 . S
C1878 H1870 0.950 . S
C1878 C1876 1.391 . S
C1878 C1879 1.400 . S
C1879 C1878 1.400 . S
C1879 C1880 1.398 . S
C1879 C1885 1.491 . S
C1880 H1871 0.950 . S
C1880 C1879 1.398 . S
C1880 C1881 1.391 . S
C1881 H1869 0.950 . S
C1881 C1877 1.393 . S
C1881 C1880 1.391 . S
C1882 H1872 0.950 . S
C1882 C1883 1.386 1_556 S
C1882 C1884 1.391 . S
C1883 C1882 1.386 1_554 S
C1883 C1887 1.393 . S
C1884 H1873 0.950 . S
C1884 C1882 1.391 . S
C1884 C1885 1.400 . S
C1885 C1879 1.491 . S
C1885 C1884 1.400 . S
C1885 C1886 1.398 . S
C1886 H1874 0.950 . S
C1886 C1885 1.398 . S
C1886 C1887 1.391 1_556 S
C1887 H1875 0.950 . S
C1887 C1883 1.393 . S
C1887 C1886 1.391 1_554 S
H1888 C1896 0.950 . S
H1889 C1901 0.950 . S
H1890 C1898 0.950 . S
H1891 C1900 0.950 . S
H1892 C1902 0.950 . S
H1893 C1904 0.950 . S
H1894 C1906 0.950 . S
H1895 C1907 0.950 . S
C1896 H1888 0.950 . S
C1896 C1897 1.386 . S
C1896 C1898 1.391 . S
C1897 C1896 1.386 . S
C1897 C1901 1.393 . S
C1898 H1890 0.950 . S
C1898 C1896 1.391 . S
C1898 C1899 1.400 . S
C1899 C1898 1.400 . S
C1899 C1900 1.398 . S
C1899 C1905 1.491 . S
C1900 H1891 0.950 . S
C1900 C1899 1.398 . S
C1900 C1901 1.391 . S
C1901 H1889 0.950 . S
C1901 C1897 1.393 . S
C1901 C1900 1.391 . S
C1902 H1892 0.950 . S
C1902 C1903 1.386 . S
C1902 C1904 1.391 . S
C1903 C1902 1.386 . S
C1903 C1907 1.393 . S
C1904 H1893 0.950 . S
C1904 C1902 1.391 . S
C1904 C1905 1.400 . S
C1905 C1899 1.491 . S
C1905 C1904 1.400 . S
C1905 C1906 1.398 . S
C1906 H1894 0.950 . S
C1906 C1905 1.398 . S
C1906 C1907 1.391 . S
C1907 H1895 0.950 . S
C1907 C1903 1.393 . S
C1907 C1906 1.391 . S
H1908 C1916 0.950 . S
H1909 C1921 0.950 . S
H1910 C1918 0.950 . S
H1911 C1920 0.950 . S
H1912 C1922 0.950 . S
H1913 C1924 0.950 . S
H1914 C1926 0.950 . S
H1915 C1927 0.950 . S
C1916 H1908 0.950 . S
C1916 C1917 1.386 . S
C1916 C1918 1.391 . S
C1917 C1916 1.386 . S
C1917 C1921 1.393 . S
C1918 H1910 0.950 . S
C1918 C1916 1.391 . S
C1918 C1919 1.400 . S
C1919 C1918 1.400 . S
C1919 C1920 1.398 . S
C1919 C1925 1.491 . S
C1920 H1911 0.950 . S
C1920 C1919 1.398 . S
C1920 C1921 1.391 . S
C1921 H1909 0.950 . S
C1921 C1917 1.393 . S
C1921 C1920 1.391 . S
C1922 H1912 0.950 . S
C1922 C1923 1.386 . S
C1922 C1924 1.391 . S
C1923 C1922 1.386 . S
C1923 C1927 1.393 . S
C1924 H1913 0.950 . S
C1924 C1922 1.391 . S
C1924 C1925 1.400 . S
C1925 C1919 1.491 . S
C1925 C1924 1.400 . S
C1925 C1926 1.398 . S
C1926 H1914 0.950 . S
C1926 C1925 1.398 . S
C1926 C1927 1.391 . S
C1927 H1915 0.950 . S
C1927 C1923 1.393 . S
C1927 C1926 1.391 . S
H1928 C1936 0.950 . S
H1929 C1941 0.950 . S
H1930 C1938 0.950 . S
H1931 C1940 0.950 . S
H1932 C1942 0.950 . S
H1933 C1944 0.950 . S
H1934 C1946 0.950 . S
H1935 C1947 0.950 . S
C1936 H1928 0.950 . S
C1936 C1937 1.386 . S
C1936 C1938 1.391 . S
C1937 C1936 1.386 . S
C1937 C1941 1.393 . S
C1938 H1930 0.950 . S
C1938 C1936 1.391 . S
C1938 C1939 1.400 . S
C1939 C1938 1.400 . S
C1939 C1940 1.398 . S
C1939 C1945 1.491 . S
C1940 H1931 0.950 . S
C1940 C1939 1.398 . S
C1940 C1941 1.391 . S
C1941 H1929 0.950 . S
C1941 C1937 1.393 . S
C1941 C1940 1.391 . S
C1942 H1932 0.950 . S
C1942 C1943 1.386 . S
C1942 C1944 1.391 . S
C1943 C1942 1.386 . S
C1943 C1947 1.393 . S
C1944 H1933 0.950 . S
C1944 C1942 1.391 . S
C1944 C1945 1.400 . S
C1945 C1939 1.491 . S
C1945 C1944 1.400 . S
C1945 C1946 1.398 . S
C1946 H1934 0.950 . S
C1946 C1945 1.398 . S
C1946 C1947 1.391 . S
C1947 H1935 0.950 . S
C1947 C1943 1.393 . S
C1947 C1946 1.391 . S
H1948 C1956 0.950 . S
H1949 C1961 0.950 . S
H1950 C1958 0.950 . S
H1951 C1960 0.950 . S
H1952 C1962 0.950 . S
H1953 C1964 0.950 . S
H1954 C1966 0.950 . S
H1955 C1967 0.950 . S
C1956 H1948 0.950 . S
C1956 C1957 1.386 . S
C1956 C1958 1.391 . S
C1957 C1956 1.386 . S
C1957 C1961 1.393 . S
C1958 H1950 0.950 . S
C1958 C1956 1.391 . S
C1958 C1959 1.400 . S
C1959 C1958 1.400 . S
C1959 C1960 1.398 . S
C1959 C1965 1.491 . S
C1960 H1951 0.950 . S
C1960 C1959 1.398 . S
C1960 C1961 1.391 . S
C1961 H1949 0.950 . S
C1961 C1957 1.393 . S
C1961 C1960 1.391 . S
C1962 H1952 0.950 . S
C1962 C1963 1.386 . S
C1962 C1964 1.391 . S
C1963 C1962 1.386 . S
C1963 C1967 1.393 . S
C1964 H1953 0.950 . S
C1964 C1962 1.391 . S
C1964 C1965 1.400 . S
C1965 C1959 1.491 . S
C1965 C1964 1.400 . S
C1965 C1966 1.398 . S
C1966 H1954 0.950 . S
C1966 C1965 1.398 . S
C1966 C1967 1.391 . S
C1967 H1955 0.950 . S
C1967 C1963 1.393 . S
C1967 C1966 1.391 . S
C537 C115 1.307 . S
C543 C5 1.513 1_455 S
C557 C16 1.328 . S
C563 C129 1.435 . S
C577 C426 1.547 . S
C583 C27 1.420 1_565 S
C597 C104 1.255 . S
C603 C41 1.602 . S
C617 C8 1.705 . S
C623 C148 1.587 . S
C637 C137 1.115 . S
C643 C19 1.561 . S
C657 C30 1.943 . S
C663 C162 1.975 . S
C677 C38 1.350 . S
C683 C96 1.514 . S
C697 C49 1.262 . S
C703 C60 1.346 . S
C717 C71 1.437 . S
C723 C63 1.546 . S
C737 C74 1.680 . S
C743 C85 1.628 . S
C757 C82 1.436 . S
C763 C52 1.749 . S
C777 C346 1.292 . S
C783 C107 1.435 . S
C797 C118 1.551 . S
C803 C357 1.427 . S
C817 C371 1.596 . S
C823 C126 1.210 . S
C837 C151 1.966 . S
C843 C360 1.927 . S
C857 C338 1.708 . S
C863 C159 1.601 . S
C877 C170 1.785 . S
C883 C280 1.782 . S
C897 C291 1.236 . S
C903 C184 1.474 . S
C917 C525 1.830 . S
C923 C192 1.750 . S
C937 C203 1.473 . S
C943 C272 1.503 . S
C957 C173 1.617 . S
C963 C313 1.365 . S
C977 C181 1.450 . S
C983 C305 1.588 . S
C997 C195 1.675 . S
C1003 C327 1.642 . S
C1017 C206 1.541 1_455 S
C1023 C258 1.329 . S
C1037 C214 1.621 . S
C1043 C225 1.358 . S
C1057 C236 1.222 . S
C1063 C228 1.648 . S
C1077 C239 1.875 . S
C1083 C250 1.853 . S
C1097 C217 1.585 . S
C1103 C247 1.163 . S
C1117 C448 1.476 . S
C1123 C269 1.215 . S
C1137 C283 1.841 . S
C1143 C456 1.726 . S
C1157 C294 1.514 . S
C1163 C467 1.480 . S
C1177 C459 1.669 . S
C1183 C316 1.629 . S
C1197 C324 1.405 . S
C1203 C437 1.610 . S
C1217 C335 1.525 . S
C1223 C423 1.350 . S
C1237 C349 1.574 1_455 S
C1243 C93 1.176 . S
C1257 C140 1.490 . S
C1263 C368 1.346 . S
C1277 C379 1.286 . S
C1283 C390 1.394 . S
C1297 C393 1.566 . S
C1303 C401 1.442 . S
C1317 C415 1.637 . S
C1323 C404 1.677 . S
C1337 C412 1.463 . S
C1343 C382 1.744 . S
C1357 C522 1.787 . S
C1363 C434 1.781 . S
C1377 C445 1.426 . S
C1383 C261 1.571 . S
C1397 C470 1.538 . S
C1403 C302 1.344 . S
C1417 C489 1.408 . S
C1423 C478 1.596 . S
C1437 C500 1.236 . S
C1443 C492 1.646 . S
C1457 C514 1.850 . S
C1463 C503 1.882 . S
C1477 C511 1.214 . S
C1483 C481 1.580 . S
C1497 C7 1.041 . S
C1503 C249 0.995 . S
C1517 C480 1.351 . S
C1523 C18 1.351 . S
C1537 C29 1.060 . S
C1543 C227 1.040 . S
C1557 C502 1.032 . S
C1563 C40 1.111 . S
C1577 C447 1.037 . S
C1583 C51 0.999 . S
C1597 C194 1.400 . S
C1603 C62 1.333 . S
C1617 C469 1.446 . S
C1623 C73 1.435 . S
C1637 C84 1.334 . S
C1643 C172 1.395 . S
C1657 C95 1.377 . S
C1663 C315 1.372 . S
C1677 C524 1.041 . S
C1683 C106 1.020 . S
C1697 C293 1.305 . S
C1703 C117 1.292 . S
C1717 C282 1.050 . S
C1723 C128 0.986 . S
C1737 C326 1.370 . S
C1743 C139 1.379 . S
C1757 C260 1.125 . S
C1763 C150 1.114 . S
C1777 C304 1.124 . S
C1783 C161 1.113 . S
C1797 C381 0.989 . S
C1803 C183 1.045 . S
C1817 C205 1.450 . S
C1823 C403 1.445 . S
C1837 C216 1.340 . S
C1843 C348 1.341 . S
C1857 C370 1.111 . S
C1863 C238 1.032 . S
C1877 C425 1.267 . S
C1883 C271 1.322 . S
C1897 C337 1.042 . S
C1903 C513 0.979 . S
C1917 C491 1.049 . S
C1923 C359 1.060 . S
C1937 C392 1.331 . S
C1943 C458 1.398 . S
C1957 C414 1.319 . S
C1963 C436 1.402 . S
