# Generated by pormake.
# Topology gme, (4)-cn, num edge types: 1
# Building blocks:
#     Node 0, Type 0, BuildingBlock: AZAVOO_clean_sbu_0, # of connection points: 4
#     Node 1, Type 0, BuildingBlock: AZAVOO_clean_sbu_0, # of connection points: 4
#     Node 2, Type 0, BuildingBlock: AZAVOO_clean_sbu_0, # of connection points: 4
#     Node 3, Type 0, BuildingBlock: AZAVOO_clean_sbu_0, # of connection points: 4
#     Node 4, Type 0, BuildingBlock: AZAVOO_clean_sbu_0, # of connection points: 4
#     Node 5, Type 0, BuildingBlock: AZAVOO_clean_sbu_0, # of connection points: 4
#     Node 6, Type 0, BuildingBlock: AZAVOO_clean_sbu_0, # of connection points: 4
#     Node 7, Type 0, BuildingBlock: AZAVOO_clean_sbu_0, # of connection points: 4
#     Node 8, Type 0, BuildingBlock: AZAVOO_clean_sbu_0, # of connection points: 4
#     Node 9, Type 0, BuildingBlock: AZAVOO_clean_sbu_0, # of connection points: 4
#     Node 10, Type 0, BuildingBlock: AZAVOO_clean_sbu_0, # of connection points: 4
#     Node 11, Type 0, BuildingBlock: AZAVOO_clean_sbu_0, # of connection points: 4
#     Node 12, Type 0, BuildingBlock: AZAVOO_clean_sbu_0, # of connection points: 4
#     Node 13, Type 0, BuildingBlock: AZAVOO_clean_sbu_0, # of connection points: 4
#     Node 14, Type 0, BuildingBlock: AZAVOO_clean_sbu_0, # of connection points: 4
#     Node 15, Type 0, BuildingBlock: AZAVOO_clean_sbu_0, # of connection points: 4
#     Node 16, Type 0, BuildingBlock: AZAVOO_clean_sbu_0, # of connection points: 4
#     Node 17, Type 0, BuildingBlock: AZAVOO_clean_sbu_0, # of connection points: 4
#     Node 18, Type 0, BuildingBlock: AZAVOO_clean_sbu_0, # of connection points: 4
#     Node 19, Type 0, BuildingBlock: AZAVOO_clean_sbu_0, # of connection points: 4
#     Node 20, Type 0, BuildingBlock: AZAVOO_clean_sbu_0, # of connection points: 4
#     Node 21, Type 0, BuildingBlock: AZAVOO_clean_sbu_0, # of connection points: 4
#     Node 22, Type 0, BuildingBlock: AZAVOO_clean_sbu_0, # of connection points: 4
#     Node 23, Type 0, BuildingBlock: AZAVOO_clean_sbu_0, # of connection points: 4
#     Edge 24, Type (0, 0), BuildingBlock: EZIPEK_clean_linker_0, # of connection points: 2
#     Edge 25, Type (0, 0), BuildingBlock: EZIPEK_clean_linker_0, # of connection points: 2
#     Edge 26, Type (0, 0), BuildingBlock: EZIPEK_clean_linker_0, # of connection points: 2
#     Edge 27, Type (0, 0), BuildingBlock: EZIPEK_clean_linker_0, # of connection points: 2
#     Edge 28, Type (0, 0), BuildingBlock: EZIPEK_clean_linker_0, # of connection points: 2
#     Edge 29, Type (0, 0), BuildingBlock: EZIPEK_clean_linker_0, # of connection points: 2
#     Edge 30, Type (0, 0), BuildingBlock: EZIPEK_clean_linker_0, # of connection points: 2
#     Edge 31, Type (0, 0), BuildingBlock: EZIPEK_clean_linker_0, # of connection points: 2
#     Edge 32, Type (0, 0), BuildingBlock: EZIPEK_clean_linker_0, # of connection points: 2
#     Edge 33, Type (0, 0), BuildingBlock: EZIPEK_clean_linker_0, # of connection points: 2
#     Edge 34, Type (0, 0), BuildingBlock: EZIPEK_clean_linker_0, # of connection points: 2
#     Edge 35, Type (0, 0), BuildingBlock: EZIPEK_clean_linker_0, # of connection points: 2
#     Edge 36, Type (0, 0), BuildingBlock: EZIPEK_clean_linker_0, # of connection points: 2
#     Edge 37, Type (0, 0), BuildingBlock: EZIPEK_clean_linker_0, # of connection points: 2
#     Edge 38, Type (0, 0), BuildingBlock: EZIPEK_clean_linker_0, # of connection points: 2
#     Edge 39, Type (0, 0), BuildingBlock: EZIPEK_clean_linker_0, # of connection points: 2
#     Edge 40, Type (0, 0), BuildingBlock: EZIPEK_clean_linker_0, # of connection points: 2
#     Edge 41, Type (0, 0), BuildingBlock: EZIPEK_clean_linker_0, # of connection points: 2
#     Edge 42, Type (0, 0), BuildingBlock: EZIPEK_clean_linker_0, # of connection points: 2
#     Edge 43, Type (0, 0), BuildingBlock: EZIPEK_clean_linker_0, # of connection points: 2
#     Edge 44, Type (0, 0), BuildingBlock: EZIPEK_clean_linker_0, # of connection points: 2
#     Edge 45, Type (0, 0), BuildingBlock: EZIPEK_clean_linker_0, # of connection points: 2
#     Edge 46, Type (0, 0), BuildingBlock: EZIPEK_clean_linker_0, # of connection points: 2
#     Edge 47, Type (0, 0), BuildingBlock: EZIPEK_clean_linker_0, # of connection points: 2
#     Edge 48, Type (0, 0), BuildingBlock: EZIPEK_clean_linker_0, # of connection points: 2
#     Edge 49, Type (0, 0), BuildingBlock: EZIPEK_clean_linker_0, # of connection points: 2
#     Edge 50, Type (0, 0), BuildingBlock: EZIPEK_clean_linker_0, # of connection points: 2
#     Edge 51, Type (0, 0), BuildingBlock: EZIPEK_clean_linker_0, # of connection points: 2
#     Edge 52, Type (0, 0), BuildingBlock: EZIPEK_clean_linker_0, # of connection points: 2
#     Edge 53, Type (0, 0), BuildingBlock: EZIPEK_clean_linker_0, # of connection points: 2
#     Edge 54, Type (0, 0), BuildingBlock: EZIPEK_clean_linker_0, # of connection points: 2
#     Edge 55, Type (0, 0), BuildingBlock: EZIPEK_clean_linker_0, # of connection points: 2
#     Edge 56, Type (0, 0), BuildingBlock: EZIPEK_clean_linker_0, # of connection points: 2
#     Edge 57, Type (0, 0), BuildingBlock: EZIPEK_clean_linker_0, # of connection points: 2
#     Edge 58, Type (0, 0), BuildingBlock: EZIPEK_clean_linker_0, # of connection points: 2
#     Edge 59, Type (0, 0), BuildingBlock: EZIPEK_clean_linker_0, # of connection points: 2
#     Edge 60, Type (0, 0), BuildingBlock: EZIPEK_clean_linker_0, # of connection points: 2
#     Edge 61, Type (0, 0), BuildingBlock: EZIPEK_clean_linker_0, # of connection points: 2
#     Edge 62, Type (0, 0), BuildingBlock: EZIPEK_clean_linker_0, # of connection points: 2
#     Edge 63, Type (0, 0), BuildingBlock: EZIPEK_clean_linker_0, # of connection points: 2
#     Edge 64, Type (0, 0), BuildingBlock: EZIPEK_clean_linker_0, # of connection points: 2
#     Edge 65, Type (0, 0), BuildingBlock: EZIPEK_clean_linker_0, # of connection points: 2
#     Edge 66, Type (0, 0), BuildingBlock: EZIPEK_clean_linker_0, # of connection points: 2
#     Edge 67, Type (0, 0), BuildingBlock: EZIPEK_clean_linker_0, # of connection points: 2
#     Edge 68, Type (0, 0), BuildingBlock: EZIPEK_clean_linker_0, # of connection points: 2
#     Edge 69, Type (0, 0), BuildingBlock: EZIPEK_clean_linker_0, # of connection points: 2
#     Edge 70, Type (0, 0), BuildingBlock: EZIPEK_clean_linker_0, # of connection points: 2
#     Edge 71, Type (0, 0), BuildingBlock: EZIPEK_clean_linker_0, # of connection points: 2
# Relax obj value: 0.170
# Max RMSD: 0.160
# Mean RMSD: 0.160
data_MOF--net-gme--node1-AZAVOO_clean_sbu_0--edge1-EZIPEK_clean_linker_0
_symmetry_space_group_name_H-M    P1
_symmetry_Int_Tables_number       1
_symmetry_cell_setting            triclinic
loop_
_symmetry_equiv_pos_as_xyz
'x, y, z'
_cell_length_a     47.853231
_cell_length_b     48.067982
_cell_length_c     35.567759
_cell_angle_alpha  90.02907
_cell_angle_beta   89.968317
_cell_angle_gamma 119.92382
loop_
_atom_site_label
_atom_site_type_symbol
_atom_site_fract_x
_atom_site_fract_y
_atom_site_fract_z
_atom_type_partial_charge
Mg0 Mg 0.40308 0.09575 0.07948 0.0
O1 O 0.4535 0.1015 0.07589 0.0
O2 O 0.47933 0.12686 0.12851 0.0
Mg3 Mg 0.44598 0.13652 0.1656 0.0
C4 C 0.47826 0.11342 0.09714 0.0
C5 C 0.3976 0.06623 -0.00434 0.0
O6 O 0.394 0.06749 0.95923 0.0
O7 O 0.42338 0.14885 0.0674 0.0
O8 O 0.44549 0.17193 0.12242 0.0
O9 O 0.38474 0.0486 0.11078 0.0
O10 O 0.40504 0.09618 0.1376 0.0
C11 C 0.43722 0.17343 0.08867 0.0
C12 C 0.39362 0.06589 0.14103 0.0
O13 O 0.39632 0.08694 0.01657 0.0
Mg14 Mg 0.2997 0.4057 0.61001 0.0
O15 O 0.34239 0.45702 0.6098 0.0
O16 O 0.33599 0.48427 0.65671 0.0
Mg17 Mg 0.28741 0.4512 0.68483 0.0
C18 C 0.3522 0.48251 0.62923 0.0
C19 C 0.32872 0.37693 0.55619 0.0
O20 O 0.32744 0.36253 0.58802 0.0
O21 O 0.26801 0.42302 0.58131 0.0
O22 O 0.26053 0.44803 0.63015 0.0
O23 O 0.32321 0.39102 0.65458 0.0
O24 O 0.28972 0.40899 0.66648 0.0
C25 C 0.25521 0.43829 0.59607 0.0
C26 C 0.30827 0.39894 0.67883 0.0
O27 O 0.31818 0.39654 0.55481 0.0
Mg28 Mg 0.89017 0.29807 0.08295 0.0
O29 O 0.89274 0.34698 0.08257 0.0
O30 O 0.8652 0.34783 0.13313 0.0
Mg31 Mg 0.84643 0.30103 0.1659 0.0
C32 C 0.88186 0.36091 0.10365 0.0
C33 C 0.92756 0.32509 0.00321 0.0
O34 O 0.92893 0.32226 0.96664 0.0
O35 O 0.83785 0.27457 0.06466 0.0
O36 O 0.81196 0.27463 0.11664 0.0
O37 O 0.9349 0.31763 0.11929 0.0
O38 O 0.88499 0.2953 0.1406 0.0
C39 C 0.81187 0.26767 0.08191 0.0
C40 C 0.9153 0.30967 0.14755 0.0
O41 O 0.90394 0.30317 0.02119 0.0
Mg42 Mg 0.55775 0.87552 0.58616 0.0
O43 O 0.5082 0.87172 0.59106 0.0
O44 O 0.47951 0.83438 0.63404 0.0
Mg45 Mg 0.50903 0.81127 0.65264 0.0
C46 C 0.48282 0.85609 0.61088 0.0
C47 C 0.59695 0.93572 0.54112 0.0
O48 O 0.61599 0.93808 0.56902 0.0
O49 O 0.53663 0.83074 0.54882 0.0
O50 O 0.50942 0.79356 0.59266 0.0
O51 O 0.57564 0.90842 0.63565 0.0
O52 O 0.55371 0.85563 0.63941 0.0
C53 C 0.5191 0.80144 0.55876 0.0
C54 C 0.56603 0.88298 0.656 0.0
O55 O 0.56962 0.91041 0.53792 0.0
Mg56 Mg 0.68645 0.56688 0.09205 0.0
O57 O 0.64295 0.5166 0.10054 0.0
O58 O 0.65302 0.49396 0.14952 0.0
Mg59 Mg 0.70571 0.52674 0.1665 0.0
C60 C 0.6341 0.49372 0.12407 0.0
C61 C 0.66351 0.59956 0.03982 0.0
O62 O 0.67972 0.6208 0.06607 0.0
O63 O 0.71202 0.54516 0.05968 0.0
O64 O 0.72444 0.52338 0.10783 0.0
O65 O 0.66822 0.58609 0.13712 0.0
O66 O 0.70178 0.56774 0.14716 0.0
C67 C 0.72566 0.53026 0.0729 0.0
C68 C 0.68392 0.5784 0.16049 0.0
O69 O 0.66249 0.57266 0.04036 0.0
Mg70 Mg 0.07798 0.67065 0.63497 0.0
O71 O 0.09149 0.63124 0.63302 0.0
O72 O 0.12499 0.63904 0.68073 0.0
Mg73 Mg 0.13525 0.68526 0.71134 0.0
C74 C 0.10829 0.62275 0.65258 0.0
C75 C 0.02301 0.63883 0.57656 0.0
O76 O 0.0068 0.63454 0.60786 0.0
O77 O 0.12703 0.70711 0.60921 0.0
O78 O 0.15913 0.71639 0.65904 0.0
O79 O 0.03852 0.64203 0.67718 0.0
O80 O 0.08838 0.67793 0.69265 0.0
C81 C 0.1546 0.72226 0.62524 0.0
C82 C 0.05989 0.65669 0.70304 0.0
O83 O 0.05368 0.65374 0.57746 0.0
Mg84 Mg 0.90149 0.55857 0.37758 0.0
O85 O 0.89115 0.50677 0.36683 0.0
O86 O 0.85221 0.48601 0.32304 0.0
Mg87 Mg 0.84078 0.52424 0.3029 0.0
C88 C 0.87166 0.48362 0.3456 0.0
C89 C 0.95036 0.59329 0.43827 0.0
O90 O 0.95494 0.61524 0.41321 0.0
O91 O 0.85326 0.5394 0.40897 0.0
O92 O 0.81874 0.52254 0.36063 0.0
O93 O 0.94005 0.57683 0.3334 0.0
O94 O 0.88869 0.56044 0.32236 0.0
C95 C 0.82479 0.52778 0.3957 0.0
C96 C 0.91716 0.56991 0.30941 0.0
O97 O 0.92873 0.5643 0.43233 0.0
Mg98 Mg 0.35148 0.91485 0.90829 0.0
O99 O 0.39035 0.9001 0.90581 0.0
O100 O 0.37892 0.86814 0.8555 0.0
Mg101 Mg 0.33342 0.86168 0.82673 0.0
C102 C 0.39662 0.88297 0.8837 0.0
C103 C 0.39623 0.9576 0.97341 0.0
O104 O 0.41783 0.9624 0.94759 0.0
O105 O 0.31516 0.86551 0.93147 0.0
O106 O 0.30302 0.83624 0.87874 0.0
O107 O 0.3797 0.95634 0.86868 0.0
O108 O 0.34349 0.90729 0.85105 0.0
C109 C 0.29858 0.83919 0.91361 0.0
C110 C 0.36451 0.93607 0.84196 0.0
O111 O 0.36705 0.93672 0.96667 0.0
Mg112 Mg 0.41115 0.3365 0.35946 0.0
O113 O 0.46618 0.37182 0.35637 0.0
O114 O 0.48371 0.35683 0.30603 0.0
Mg115 Mg 0.44103 0.31519 0.27603 0.0
C116 C 0.48884 0.37506 0.33442 0.0
C117 C 0.3784 0.34743 0.42336 0.0
O118 O 0.35744 0.33513 0.3958 0.0
O119 O 0.41957 0.29583 0.38014 0.0
O120 O 0.43381 0.2821 0.32626 0.0
O121 O 0.40154 0.36924 0.32367 0.0
O122 O 0.40934 0.33066 0.30161 0.0
C123 C 0.42682 0.27767 0.36122 0.0
C124 C 0.40476 0.35443 0.2951 0.0
O125 O 0.40658 0.35156 0.41872 0.0
Mg126 Mg 0.08994 0.43186 0.9327 0.0
O127 O 0.1007 0.48407 0.93512 0.0
O128 O 0.13677 0.51096 0.8899 0.0
Mg129 Mg 0.149 0.47669 0.85898 0.0
C130 C 0.11837 0.50973 0.91662 0.0
C131 C 0.04219 0.42869 0.99515 0.0
O132 O 0.04035 0.44849 0.97117 0.0
O133 O 0.13832 0.44565 0.96072 0.0
O134 O 0.17168 0.46952 0.91242 0.0
O135 O 0.05103 0.4195 0.8897 0.0
O136 O 0.102 0.43655 0.8756 0.0
C137 C 0.16649 0.45907 0.94622 0.0
C138 C 0.07322 0.42771 0.86443 0.0
O139 O 0.06268 0.41977 0.98853 0.0
Mg140 Mg 0.65022 0.09181 0.38547 0.0
O141 O 0.60922 0.10366 0.38745 0.0
O142 O 0.61734 0.13615 0.33863 0.0
Mg143 Mg 0.664 0.14731 0.30824 0.0
C144 C 0.60053 0.11964 0.36662 0.0
C145 C 0.64398 0.04452 0.44114 0.0
O146 O 0.66295 0.04503 0.41409 0.0
O147 O 0.68615 0.14055 0.41112 0.0
O148 O 0.69616 0.17113 0.35993 0.0
O149 O 0.62165 0.05149 0.34562 0.0
O150 O 0.65653 0.10116 0.32812 0.0
C151 C 0.70218 0.16734 0.39397 0.0
C152 C 0.63535 0.0723 0.31908 0.0
O153 O 0.63492 0.06529 0.44085 0.0
Mg154 Mg 0.5541 0.65133 0.88922 0.0
O155 O 0.50185 0.60906 0.88531 0.0
O156 O 0.47464 0.62662 0.85069 0.0
Mg157 Mg 0.50934 0.67674 0.82845 0.0
C158 C 0.4758 0.60492 0.87017 0.0
C159 C 0.59633 0.63748 0.93625 0.0
O160 O 0.61481 0.65831 0.9107 0.0
O161 O 0.53925 0.67892 0.92912 0.0
O162 O 0.51637 0.69682 0.88826 0.0
O163 O 0.56813 0.63369 0.83897 0.0
O164 O 0.54907 0.66723 0.83713 0.0
C165 C 0.52623 0.69579 0.92134 0.0
C166 C 0.55858 0.65008 0.81942 0.0
O167 O 0.56642 0.62829 0.93669 0.0
Mg168 Mg 0.58088 0.88024 0.88751 0.0
O169 O 0.53237 0.87858 0.8914 0.0
O170 O 0.49765 0.83969 0.85337 0.0
Mg171 Mg 0.523 0.81432 0.82828 0.0
C172 C 0.50465 0.86273 0.87624 0.0
C173 C 0.61939 0.94439 0.92814 0.0
O174 O 0.63224 0.95173 0.89443 0.0
O175 O 0.56216 0.83701 0.92688 0.0
O176 O 0.52917 0.79842 0.88722 0.0
O177 O 0.5938 0.9114 0.83649 0.0
O178 O 0.56944 0.8584 0.8346 0.0
C179 C 0.54275 0.80752 0.91935 0.0
C180 C 0.5803 0.8852 0.81705 0.0
O181 O 0.59804 0.91566 0.93556 0.0
Mg182 Mg 0.67128 0.55228 0.38845 0.0
O183 O 0.62649 0.50366 0.37363 0.0
O184 O 0.64165 0.48002 0.33034 0.0
Mg185 Mg 0.6939 0.51481 0.3136 0.0
C186 C 0.62033 0.48015 0.35179 0.0
C187 C 0.64987 0.58563 0.44159 0.0
O188 O 0.66977 0.60762 0.41796 0.0
O189 O 0.69576 0.52867 0.42065 0.0
O190 O 0.71228 0.51139 0.37168 0.0
O191 O 0.65815 0.57648 0.34409 0.0
O192 O 0.68916 0.5551 0.33465 0.0
C193 C 0.71162 0.51609 0.40693 0.0
C194 C 0.67425 0.5689 0.32115 0.0
O195 O 0.64557 0.55737 0.4393 0.0
Mg196 Mg 0.10064 0.68549 0.92188 0.0
O197 O 0.10678 0.64133 0.92756 0.0
O198 O 0.1328 0.63979 0.87596 0.0
Mg199 Mg 0.1421 0.68164 0.83719 0.0
C200 C 0.11919 0.62824 0.90752 0.0
C201 C 0.06927 0.66374 0.00493 0.0
O202 O 0.07006 0.66843 0.04137 0.0
O203 O 0.1537 0.71862 0.93403 0.0
O204 O 0.17744 0.71871 0.87976 0.0
O205 O 0.05342 0.65629 0.89069 0.0
O206 O 0.10125 0.68274 0.86378 0.0
C207 C 0.17856 0.72908 0.91313 0.0
C208 C 0.07075 0.66417 0.86041 0.0
O209 O 0.09161 0.68475 0.98463 0.0
Mg210 Mg 0.39956 0.08448 0.36374 0.0
O211 O 0.45246 0.09703 0.36864 0.0
O212 O 0.47994 0.13036 0.32152 0.0
Mg213 Mg 0.44444 0.13784 0.28548 0.0
C214 C 0.47864 0.11427 0.35067 0.0
C215 C 0.36294 0.03533 0.42541 0.0
O216 O 0.34232 0.02552 0.39737 0.0
O217 O 0.41203 0.13478 0.38552 0.0
O218 O 0.43548 0.16402 0.33391 0.0
O219 O 0.38844 0.04303 0.32517 0.0
O220 O 0.40409 0.09229 0.30574 0.0
C221 C 0.42453 0.1613 0.36729 0.0
C222 C 0.39584 0.06312 0.2977 0.0
O223 O 0.38971 0.06129 0.42186 0.0
Mg224 Mg 0.30999 0.40991 0.90901 0.0
O225 O 0.35118 0.46109 0.89642 0.0
O226 O 0.33318 0.4825 0.8535 0.0
Mg227 Mg 0.28205 0.44475 0.83656 0.0
C228 C 0.35515 0.48438 0.87547 0.0
C229 C 0.34666 0.42016 0.99031 0.0
O230 O 0.33629 0.43928 0.0022 0.0
O231 O 0.28321 0.43005 0.94327 0.0
O232 O 0.26468 0.44707 0.89586 0.0
O233 O 0.32703 0.39043 0.86284 0.0
O234 O 0.29208 0.40722 0.85497 0.0
C235 C 0.26641 0.44203 0.93081 0.0
C236 C 0.31002 0.39714 0.84035 0.0
O237 O 0.33849 0.40694 0.95823 0.0
Mg238 Mg 0.9 0.31687 0.37339 0.0
O239 O 0.89005 0.3582 0.36242 0.0
O240 O 0.85491 0.34331 0.31473 0.0
Mg241 Mg 0.84438 0.29401 0.29358 0.0
C242 C 0.87238 0.36342 0.33994 0.0
C243 C 0.94918 0.33785 0.43689 0.0
O244 O 0.95935 0.32412 0.4128 0.0
O245 O 0.84987 0.28713 0.40051 0.0
O246 O 0.81863 0.27158 0.34916 0.0
O247 O 0.94082 0.33728 0.33141 0.0
O248 O 0.89017 0.30251 0.31751 0.0
C249 C 0.82235 0.27094 0.38465 0.0
C250 C 0.9193 0.32073 0.30629 0.0
O251 O 0.92392 0.3392 0.42933 0.0
Mg252 Mg 0.07507 0.42398 0.63316 0.0
O253 O 0.08789 0.47679 0.63078 0.0
O254 O 0.1275 0.50371 0.6723 0.0
Mg255 Mg 0.14088 0.46884 0.69989 0.0
C256 C 0.10742 0.50265 0.64789 0.0
C257 C 0.02514 0.3841 0.57264 0.0
O258 O 0.02234 0.36182 0.59622 0.0
O259 O 0.1202 0.43518 0.59937 0.0
O260 O 0.15806 0.45866 0.64374 0.0
O261 O 0.0406 0.41453 0.68101 0.0
O262 O 0.09204 0.42951 0.68835 0.0
C263 C 0.14928 0.44716 0.61067 0.0
C264 C 0.06488 0.42261 0.70321 0.0
O265 O 0.04511 0.41336 0.57979 0.0
Mg266 Mg 0.64979 0.0885 0.09405 0.0
O267 O 0.60528 0.0943 0.08726 0.0
O268 O 0.60947 0.12921 0.13175 0.0
Mg269 Mg 0.65463 0.14416 0.16701 0.0
C270 C 0.59472 0.11069 0.10411 0.0
C271 C 0.64888 0.04156 0.04031 0.0
O272 O 0.66295 0.03919 0.07087 0.0
O273 O 0.68102 0.13753 0.06759 0.0
O274 O 0.68592 0.16962 0.11543 0.0
O275 O 0.62402 0.04835 0.13484 0.0
O276 O 0.65307 0.09973 0.15032 0.0
C277 C 0.69293 0.16545 0.08195 0.0
C278 C 0.63478 0.07042 0.16042 0.0
O279 O 0.64027 0.06261 0.03875 0.0
Mg280 Mg 0.54789 0.65093 0.5876 0.0
O281 O 0.4962 0.60813 0.59158 0.0
O282 O 0.47036 0.62167 0.63375 0.0
Mg283 Mg 0.5038 0.6729 0.65425 0.0
C284 C 0.47122 0.60152 0.61107 0.0
C285 C 0.58722 0.63186 0.5413 0.0
O286 O 0.60576 0.64922 0.56915 0.0
O287 O 0.53084 0.67865 0.55051 0.0
O288 O 0.5075 0.69323 0.59488 0.0
O289 O 0.56261 0.63228 0.63674 0.0
O290 O 0.54491 0.66679 0.64116 0.0
C291 C 0.51679 0.69404 0.56098 0.0
C292 C 0.55455 0.64925 0.65748 0.0
O293 O 0.55889 0.6277 0.53865 0.0
Mg294 Mg 0.90414 0.55475 0.07879 0.0
O295 O 0.8998 0.50504 0.08136 0.0
O296 O 0.86334 0.47663 0.12563 0.0
Mg297 Mg 0.84519 0.5079 0.15217 0.0
C298 C 0.88356 0.47942 0.10042 0.0
C299 C 0.95482 0.55916 0.01959 0.0
O300 O 0.95754 0.54105 0.0453 0.0
O301 O 0.85565 0.53352 0.04823 0.0
O302 O 0.82196 0.50868 0.09604 0.0
O303 O 0.94188 0.57427 0.12428 0.0
O304 O 0.88949 0.55072 0.13449 0.0
C305 C 0.82712 0.51741 0.06158 0.0
C306 C 0.91821 0.5641 0.14791 0.0
O307 O 0.93332 0.56704 0.02436 0.0
Mg308 Mg 0.3289 0.9096 0.61955 0.0
O309 O 0.36677 0.89401 0.61002 0.0
O310 O 0.36004 0.85955 0.65621 0.0
Mg311 Mg 0.32011 0.85465 0.6959 0.0
C312 C 0.37451 0.8753 0.62673 0.0
C313 C 0.32967 0.9533 0.55689 0.0
O314 O 0.31305 0.95722 0.5837 0.0
O315 O 0.28782 0.86047 0.59898 0.0
O316 O 0.28206 0.83025 0.64957 0.0
O317 O 0.36333 0.95029 0.65645 0.0
O318 O 0.32868 0.90177 0.67729 0.0
C319 C 0.27303 0.83393 0.61706 0.0
C320 C 0.35157 0.93042 0.68428 0.0
O321 O 0.33898 0.93294 0.56155 0.0
Mg322 Mg 0.43582 0.35495 0.07999 0.0
O323 O 0.48668 0.3851 0.10239 0.0
O324 O 0.49246 0.36686 0.15795 0.0
Mg325 Mg 0.44251 0.32406 0.17197 0.0
C326 C 0.50379 0.38642 0.13043 0.0
C327 C 0.44705 0.39531 0.00398 0.0
O328 O 0.4625 0.40813 0.9725 0.0
O329 O 0.44567 0.31426 0.06535 0.0
O330 O 0.44641 0.29546 0.12284 0.0
O331 O 0.42 0.38548 0.112 0.0
O332 O 0.41854 0.34191 0.13407 0.0
C333 C 0.44759 0.29411 0.08706 0.0
C334 C 0.41428 0.36587 0.13969 0.0
O335 O 0.45539 0.37852 0.0234 0.0
C336 C 0.42212 0.06189 0.23719 0.0
C337 C 0.39362 0.05313 0.25792 0.0
C338 C 0.3624 0.04072 0.19958 0.0
C339 C 0.39146 0.05242 0.17899 0.0
N340 N 0.44609 0.06359 0.17635 0.0
N341 N 0.33561 0.02572 0.26035 0.0
C342 C 0.42042 0.05943 0.19736 0.0
C343 C 0.36331 0.03938 0.23952 0.0
N344 N 0.45083 0.07356 0.2556 0.0
N345 N 0.33445 0.03289 0.18096 0.0
H346 H 0.33569 0.02488 0.28965 0.0
H347 H 0.31261 0.013 0.24879 0.0
H348 H 0.33302 0.03236 0.15167 0.0
H349 H 0.31307 0.02793 0.19422 0.0
H350 H 0.47313 0.08391 0.24221 0.0
H351 H 0.45222 0.07366 0.28482 0.0
H352 H 0.4676 0.06687 0.18759 0.0
H353 H 0.44433 0.06055 0.14726 0.0
C354 C 0.33975 0.4151 0.73924 0.0
C355 C 0.31068 0.39517 0.71972 0.0
C356 C 0.28216 0.37394 0.77931 0.0
C357 C 0.31123 0.39401 0.799 0.0
N358 N 0.3693 0.42778 0.79785 0.0
N359 N 0.25655 0.35014 0.71985 0.0
C360 C 0.34061 0.4125 0.77902 0.0
C361 C 0.28255 0.37294 0.73941 0.0
N362 N 0.36594 0.43796 0.72008 0.0
N363 N 0.25412 0.35586 0.79877 0.0
H364 H 0.25624 0.34838 0.69059 0.0
H365 H 0.23645 0.33116 0.73245 0.0
H366 H 0.25327 0.35325 0.82793 0.0
H367 H 0.23144 0.34436 0.78625 0.0
H368 H 0.3865 0.45598 0.73316 0.0
H369 H 0.36623 0.44042 0.69095 0.0
H370 H 0.3916 0.43816 0.78441 0.0
H371 H 0.37116 0.42874 0.82702 0.0
C372 C 0.9393 0.34585 0.20353 0.0
C373 C 0.92621 0.31492 0.18719 0.0
C374 C 0.92038 0.29106 0.24957 0.0
C375 C 0.92745 0.32072 0.26602 0.0
N376 N 0.94693 0.37741 0.26009 0.0
N377 N 0.90639 0.25821 0.19338 0.0
C378 C 0.93858 0.34867 0.24346 0.0
C379 C 0.91784 0.28763 0.2099 0.0
N380 N 0.95174 0.37221 0.1807 0.0
N381 N 0.91682 0.26644 0.2721 0.0
H382 H 0.90651 0.25525 0.16432 0.0
H383 H 0.89572 0.23666 0.20817 0.0
H384 H 0.91937 0.26861 0.30127 0.0
H385 H 0.91444 0.24504 0.26197 0.0
H386 H 0.96349 0.39578 0.19029 0.0
H387 H 0.95243 0.37046 0.15155 0.0
H388 H 0.95246 0.39825 0.24544 0.0
H389 H 0.94716 0.3803 0.28914 0.0
C390 C 0.55038 0.89192 0.72019 0.0
C391 C 0.57036 0.88509 0.69712 0.0
C392 C 0.59597 0.87736 0.75267 0.0
C393 C 0.57715 0.88577 0.77579 0.0
N394 N 0.53882 0.90412 0.78247 0.0
N395 N 0.61565 0.87657 0.69007 0.0
C396 C 0.55516 0.89414 0.75978 0.0
C397 C 0.59408 0.87917 0.71299 0.0
N398 N 0.52598 0.89489 0.70431 0.0
N399 N 0.6155 0.86741 0.76865 0.0
H400 H 0.61507 0.87779 0.66082 0.0
H401 H 0.63577 0.87584 0.69986 0.0
H402 H 0.6193 0.86776 0.79756 0.0
H403 H 0.62658 0.85701 0.75354 0.0
H404 H 0.5082 0.8963 0.71962 0.0
H405 H 0.52216 0.89379 0.67539 0.0
H406 H 0.52525 0.91405 0.77261 0.0
H407 H 0.54029 0.90409 0.81163 0.0
C408 C 0.70607 0.59506 0.26328 0.0
C409 C 0.67559 0.57545 0.28049 0.0
C410 C 0.64971 0.56015 0.21883 0.0
C411 C 0.68016 0.57969 0.20157 0.0
N412 N 0.73565 0.6215 0.2066 0.0
N413 N 0.61747 0.54547 0.27549 0.0
C414 C 0.70789 0.59887 0.22362 0.0
C415 C 0.64707 0.56023 0.25856 0.0
N416 N 0.7333 0.6099 0.28489 0.0
N417 N 0.62374 0.53974 0.19753 0.0
H418 H 0.61417 0.54269 0.30446 0.0
H419 H 0.59598 0.53758 0.26082 0.0
H420 H 0.62465 0.53906 0.16842 0.0
H421 H 0.6021 0.52176 0.20872 0.0
H422 H 0.75656 0.62079 0.27393 0.0
H423 H 0.73275 0.61032 0.3142 0.0
H424 H 0.75585 0.63848 0.2212 0.0
H425 H 0.73756 0.6253 0.17761 0.0
C426 C 0.061 0.62997 0.76317 0.0
C427 C 0.05229 0.65018 0.74358 0.0
C428 C 0.04484 0.67135 0.80311 0.0
C429 C 0.05676 0.65361 0.82244 0.0
N430 N 0.06773 0.61009 0.8235 0.0
N431 N 0.0272 0.68281 0.74389 0.0
C432 C 0.06198 0.63082 0.80318 0.0
C433 C 0.04108 0.66832 0.76336 0.0
N434 N 0.06902 0.61067 0.74327 0.0
N435 N 0.03907 0.6925 0.82259 0.0
H436 H 0.02439 0.68101 0.71475 0.0
H437 H 0.01612 0.69433 0.75655 0.0
H438 H 0.04031 0.69419 0.85185 0.0
H439 H 0.03413 0.70911 0.80999 0.0
H440 H 0.07897 0.59776 0.75501 0.0
H441 H 0.06583 0.60789 0.71426 0.0
H442 H 0.07025 0.5916 0.81191 0.0
H443 H 0.06743 0.60999 0.85281 0.0
C444 C 0.91214 0.58852 0.20714 0.0
C445 C 0.92339 0.56962 0.18898 0.0
C446 C 0.93525 0.55424 0.25022 0.0
C447 C 0.92293 0.57232 0.26826 0.0
N448 N 0.90851 0.61361 0.26468 0.0
N449 N 0.95163 0.53988 0.192 0.0
C450 C 0.91394 0.59148 0.24689 0.0
C451 C 0.93719 0.55446 0.21017 0.0
N452 N 0.8995 0.60353 0.18629 0.0
N453 N 0.94337 0.53547 0.27118 0.0
H454 H 0.9522 0.53837 0.16285 0.0
H455 H 0.96509 0.53125 0.20542 0.0
H456 H 0.94176 0.53408 0.30038 0.0
H457 H 0.94944 0.51925 0.25981 0.0
H458 H 0.88659 0.61362 0.19783 0.0
H459 H 0.9008 0.60493 0.15703 0.0
H460 H 0.90503 0.63064 0.25068 0.0
H461 H 0.91064 0.61715 0.29372 0.0
C462 C 0.35261 0.95758 0.78413 0.0
C463 C 0.37033 0.94487 0.80183 0.0
C464 C 0.38254 0.92983 0.74095 0.0
C465 C 0.36282 0.94032 0.72335 0.0
N466 N 0.33616 0.97159 0.72585 0.0
N467 N 0.40959 0.92789 0.7979 0.0
C468 C 0.35041 0.95693 0.74422 0.0
C469 C 0.38782 0.93397 0.78035 0.0
N470 N 0.33641 0.96851 0.80567 0.0
N471 N 0.39544 0.91522 0.72001 0.0
H472 H 0.4143 0.93191 0.82661 0.0
H473 H 0.42493 0.92182 0.78396 0.0
H474 H 0.39376 0.91411 0.69086 0.0
H475 H 0.40688 0.90354 0.7313 0.0
H476 H 0.31974 0.97437 0.79506 0.0
H477 H 0.3388 0.97058 0.83485 0.0
H478 H 0.32915 0.9865 0.73897 0.0
H479 H 0.33355 0.97091 0.6967 0.0
C480 C 0.37589 0.33882 0.2339 0.0
C481 C 0.40109 0.36265 0.25598 0.0
C482 C 0.42356 0.39659 0.2001 0.0
C483 C 0.40356 0.36956 0.17759 0.0
N484 N 0.35603 0.31778 0.17143 0.0
N485 N 0.44618 0.41639 0.26209 0.0
C486 C 0.3778 0.34176 0.19416 0.0
C487 C 0.4237 0.39258 0.23982 0.0
N488 N 0.35014 0.31369 0.2512 0.0
N489 N 0.44221 0.42576 0.18351 0.0
H490 H 0.44656 0.41439 0.29123 0.0
H491 H 0.46544 0.43754 0.25179 0.0
H492 H 0.44154 0.42926 0.15471 0.0
H493 H 0.45591 0.44701 0.1983 0.0
H494 H 0.32978 0.2964 0.23716 0.0
H495 H 0.34795 0.31155 0.2804 0.0
H496 H 0.33883 0.29513 0.18086 0.0
H497 H 0.35565 0.32071 0.14237 0.0
C498 C 0.06902 0.45167 0.7634 0.0
C499 C 0.0617 0.42279 0.74461 0.0
C500 C 0.05448 0.39562 0.8052 0.0
C501 C 0.06573 0.42546 0.82375 0.0
N502 N 0.08268 0.48169 0.82192 0.0
N503 N 0.04823 0.36736 0.74643 0.0
C504 C 0.07248 0.45342 0.80322 0.0
C505 C 0.05424 0.39465 0.76521 0.0
N506 N 0.07221 0.47718 0.74305 0.0
N507 N 0.04386 0.3682 0.82594 0.0
H508 H 0.0465 0.36535 0.7172 0.0
H509 H 0.04658 0.34721 0.75942 0.0
H510 H 0.04433 0.36815 0.85526 0.0
H511 H 0.03229 0.34522 0.81448 0.0
H512 H 0.07489 0.49821 0.75474 0.0
H513 H 0.06987 0.47635 0.71395 0.0
H514 H 0.09177 0.50392 0.80891 0.0
H515 H 0.08279 0.48292 0.85112 0.0
C516 C 0.60638 0.06939 0.25945 0.0
C517 C 0.62841 0.06324 0.27923 0.0
C518 C 0.64876 0.05381 0.22044 0.0
C519 C 0.62853 0.06244 0.20055 0.0
N520 N 0.58324 0.07109 0.19919 0.0
N521 N 0.66386 0.04122 0.28054 0.0
C522 C 0.60564 0.0678 0.21954 0.0
C523 C 0.64731 0.05251 0.26028 0.0
N524 N 0.58674 0.07725 0.27903 0.0
N525 N 0.67057 0.04867 0.20126 0.0
H526 H 0.66337 0.04027 0.30985 0.0
H527 H 0.67585 0.03034 0.26857 0.0
H528 H 0.67147 0.04825 0.17197 0.0
H529 H 0.68878 0.04626 0.2141 0.0
H530 H 0.57244 0.08545 0.26683 0.0
H531 H 0.58505 0.07571 0.30822 0.0
H532 H 0.56454 0.07333 0.21089 0.0
H533 H 0.58205 0.06924 0.16996 0.0
C534 C 0.53565 0.62048 0.71906 0.0
C535 C 0.55637 0.64881 0.69885 0.0
C536 C 0.5781 0.6781 0.75777 0.0
C537 C 0.55855 0.64926 0.77796 0.0
N538 N 0.52275 0.59178 0.77814 0.0
N539 N 0.60135 0.70291 0.69785 0.0
C540 C 0.53874 0.62001 0.7587 0.0
C541 C 0.57866 0.67723 0.71789 0.0
N542 N 0.51172 0.59464 0.70061 0.0
N543 N 0.59633 0.70631 0.77669 0.0
H544 H 0.60274 0.70309 0.66858 0.0
H545 H 0.62055 0.72304 0.7101 0.0
H546 H 0.59921 0.70768 0.8058 0.0
H547 H 0.60748 0.72871 0.76373 0.0
H548 H 0.4934 0.57462 0.71413 0.0
H549 H 0.50848 0.59451 0.67169 0.0
H550 H 0.51134 0.56935 0.7652 0.0
H551 H 0.52221 0.59043 0.80739 0.0
C552 C 0.47268 0.23206 0.07615 0.0
C553 C 0.44144 0.20453 0.07546 0.0
C554 C 0.41807 0.23869 0.06209 0.0
C555 C 0.44796 0.26586 0.07137 0.0
N556 N 0.50473 0.29006 0.08278 0.0
N557 N 0.38367 0.18131 0.06854 0.0
C558 C 0.47576 0.26305 0.07638 0.0
C559 C 0.41395 0.2076 0.06753 0.0
N560 N 0.49917 0.22834 0.07662 0.0
N561 N 0.39341 0.24272 0.0493 0.0
H562 H 0.37912 0.15802 0.073 0.0
H563 H 0.36267 0.18274 0.06772 0.0
H564 H 0.39584 0.26534 0.04556 0.0
H565 H 0.37188 0.22404 0.0388 0.0
H566 H 0.52275 0.24726 0.07449 0.0
H567 H 0.49725 0.20577 0.07593 0.0
H568 H 0.52546 0.28986 0.09116 0.0
H569 H 0.50758 0.31297 0.08028 0.0
C570 C 0.20358 0.47421 0.58103 0.0
C571 C 0.17388 0.44555 0.58675 0.0
C572 C 0.19974 0.4142 0.57014 0.0
C573 C 0.23001 0.44197 0.57603 0.0
N574 N 0.26203 0.49923 0.57671 0.0
N575 N 0.1423 0.38768 0.58209 0.0
C576 C 0.23223 0.47242 0.57713 0.0
C577 C 0.17126 0.41535 0.57861 0.0
N578 N 0.20408 0.50286 0.58061 0.0
N579 N 0.1984 0.38675 0.55753 0.0
H580 H 0.12068 0.38735 0.58682 0.0
H581 H 0.13979 0.36489 0.58166 0.0
H582 H 0.21909 0.38594 0.55028 0.0
H583 H 0.17704 0.36616 0.55014 0.0
H584 H 0.22457 0.52486 0.57518 0.0
H585 H 0.18295 0.50406 0.58304 0.0
H586 H 0.2663 0.52243 0.5811 0.0
H587 H 0.28274 0.49768 0.57189 0.0
C588 C 0.75343 0.25132 0.07506 0.0
C589 C 0.77998 0.24823 0.06297 0.0
C590 C 0.74342 0.19355 0.04136 0.0
C591 C 0.71829 0.19435 0.06187 0.0
N592 N 0.69509 0.22668 0.07928 0.0
N593 N 0.79713 0.22453 0.01486 0.0
C594 C 0.72191 0.22444 0.07202 0.0
C595 C 0.77414 0.22193 0.03962 0.0
N596 N 0.75867 0.27952 0.09051 0.0
N597 N 0.73847 0.16595 0.02453 0.0
H598 H 0.81807 0.24623 0.00964 0.0
H599 H 0.79349 0.20671 -0.0044 0.0
H600 H 0.7156 0.14673 0.0189 0.0
H601 H 0.75716 0.1625 0.0152 0.0
H602 H 0.74093 0.28244 0.10382 0.0
H603 H 0.78138 0.30011 0.09017 0.0
H604 H 0.69555 0.24815 0.08494 0.0
H605 H 0.67196 0.20694 0.07607 0.0
C606 C 0.4838 0.71616 0.53573 0.0
C607 C 0.51365 0.71674 0.53535 0.0
C608 C 0.54086 0.77381 0.51923 0.0
C609 C 0.51364 0.77473 0.5331 0.0
N610 N 0.45651 0.74728 0.54223 0.0
N611 N 0.56973 0.74425 0.51728 0.0
C612 C 0.48388 0.74577 0.5361 0.0
C613 C 0.54179 0.74479 0.52285 0.0
N614 N 0.45599 0.68729 0.53799 0.0
N615 N 0.56564 0.80065 0.50344 0.0
H616 H 0.57056 0.72302 0.51689 0.0
H617 H 0.59205 0.76479 0.51327 0.0
H618 H 0.56422 0.82134 0.49897 0.0
H619 H 0.58559 0.80121 0.49095 0.0
H620 H 0.43301 0.68453 0.53756 0.0
H621 H 0.45641 0.66576 0.53764 0.0
H622 H 0.43405 0.72747 0.54793 0.0
H623 H 0.45686 0.76919 0.54155 0.0
C624 C 0.74115 0.49074 0.05123 0.0
C625 C 0.74583 0.52219 0.04856 0.0
C626 C 0.80012 0.54091 0.02407 0.0
C627 C 0.79879 0.5133 0.03972 0.0
N628 N 0.76658 0.45779 0.05581 0.0
N629 N 0.77829 0.57672 0.02596 0.0
C630 C 0.76838 0.48645 0.04818 0.0
C631 C 0.77447 0.54695 0.03177 0.0
N632 N 0.71096 0.46571 0.05828 0.0
N633 N 0.82586 0.56123 0.00251 0.0
H634 H 0.75974 0.58186 0.02939 0.0
H635 H 0.80027 0.59665 0.01871 0.0
H636 H 0.84367 0.55581 0.99496 0.0
H637 H 0.82734 0.5809 0.98839 0.0
H638 H 0.70525 0.44183 0.05955 0.0
H639 H 0.69103 0.46905 0.06015 0.0
H640 H 0.74596 0.43753 0.0655 0.0
H641 H 0.7866 0.45478 0.05231 0.0
C642 C 0.24121 0.77668 0.59713 0.0
C643 C 0.24259 0.80656 0.60237 0.0
C644 C 0.18341 0.77911 0.60219 0.0
C645 C 0.18258 0.74933 0.60604 0.0
N646 N 0.20942 0.71851 0.60187 0.0
N647 N 0.21524 0.83709 0.60754 0.0
C648 C 0.21115 0.74774 0.6011 0.0
C649 C 0.21372 0.80813 0.60301 0.0
N650 N 0.26891 0.77636 0.58884 0.0
N651 N 0.15525 0.77964 0.59884 0.0
H652 H 0.23683 0.85888 0.60707 0.0
H653 H 0.19531 0.83961 0.61345 0.0
H654 H 0.13274 0.75887 0.59862 0.0
H655 H 0.15421 0.80027 0.59263 0.0
H656 H 0.2698 0.7557 0.58237 0.0
H657 H 0.29085 0.79755 0.58528 0.0
H658 H 0.22942 0.7154 0.60274 0.0
H659 H 0.18739 0.69706 0.60242 0.0
C660 C 0.79373 0.54589 0.43612 0.0
C661 C 0.79702 0.52049 0.42051 0.0
C662 C 0.73857 0.4851 0.42244 0.0
C663 C 0.73538 0.51226 0.42996 0.0
N664 N 0.75739 0.56238 0.46287 0.0
N665 N 0.77474 0.46376 0.4125 0.0
C666 C 0.76222 0.54052 0.44378 0.0
C667 C 0.76999 0.48909 0.41899 0.0
N668 N 0.82023 0.57554 0.44067 0.0
N669 N 0.71141 0.45644 0.41553 0.0
H670 H 0.7979 0.46688 0.41008 0.0
H671 H 0.75637 0.43991 0.41217 0.0
H672 H 0.6885 0.45379 0.41882 0.0
H673 H 0.71142 0.43586 0.40648 0.0
H674 H 0.819 0.59598 0.44744 0.0
H675 H 0.84363 0.57987 0.43658 0.0
H676 H 0.77587 0.58283 0.47553 0.0
H677 H 0.73429 0.5579 0.46957 0.0
C678 C 0.23719 0.75293 0.92794 0.0
C679 C 0.20945 0.75635 0.92636 0.0
C680 C 0.24298 0.81381 0.93958 0.0
C681 C 0.27067 0.81144 0.93159 0.0
N682 N 0.29564 0.77918 0.92471 0.0
N683 N 0.18563 0.79046 0.92993 0.0
C684 C 0.26818 0.78092 0.92853 0.0
C685 C 0.21207 0.78674 0.93303 0.0
N686 N 0.23368 0.72295 0.92878 0.0
N687 N 0.24619 0.84201 0.95249 0.0
H688 H 0.16248 0.77162 0.92452 0.0
H689 H 0.18698 0.81277 0.92978 0.0
H690 H 0.26852 0.86204 0.95824 0.0
H691 H 0.22681 0.84434 0.96178 0.0
H692 H 0.25266 0.7185 0.9325 0.0
H693 H 0.21107 0.70228 0.92881 0.0
H694 H 0.29603 0.75833 0.91782 0.0
H695 H 0.31838 0.7994 0.92807 0.0
C696 C 0.4543 0.21877 0.38636 0.0
C697 C 0.42438 0.18996 0.38284 0.0
C698 C 0.39629 0.221 0.38446 0.0
C699 C 0.42629 0.24945 0.37902 0.0
N700 N 0.4842 0.27684 0.37931 0.0
N701 N 0.36629 0.16279 0.38129 0.0
C702 C 0.45548 0.24879 0.38211 0.0
C703 C 0.3951 0.19076 0.3839 0.0
N704 N 0.48143 0.21701 0.39328 0.0
N705 N 0.36896 0.22291 0.38905 0.0
H706 H 0.36441 0.14025 0.38213 0.0
H707 H 0.34432 0.16178 0.37679 0.0
H708 H 0.36915 0.24469 0.38891 0.0
H709 H 0.3467 0.20345 0.39636 0.0
H710 H 0.504 0.23684 0.3985 0.0
H711 H 0.48046 0.19502 0.39715 0.0
H712 H 0.50646 0.27804 0.37708 0.0
H713 H 0.48553 0.29918 0.37825 0.0
C714 C 0.21666 0.42366 0.96973 0.0
C715 C 0.24632 0.4492 0.9563 0.0
C716 C 0.22516 0.48604 0.96047 0.0
C717 C 0.19401 0.45922 0.96604 0.0
N718 N 0.1636 0.40744 -0.00462 0.0
N719 N 0.28261 0.50584 0.95171 0.0
C720 C 0.19096 0.42964 0.97756 0.0
C721 C 0.25192 0.48101 0.95671 0.0
N722 N 0.21232 0.39341 0.97208 0.0
N723 N 0.22826 0.51571 0.95656 0.0
H724 H 0.30212 0.5019 0.94916 0.0
H725 H 0.28909 0.52995 0.95246 0.0
H726 H 0.20868 0.5193 0.96075 0.0
H727 H 0.24961 0.53636 0.94946 0.0
H728 H 0.19003 0.37303 0.97689 0.0
H729 H 0.23109 0.38863 0.96798 0.0
H730 H 0.16066 0.38606 0.00637 0.0
H731 H 0.14552 0.41231 0.00335 0.0
C732 C 0.73452 0.22548 0.40878 0.0
C733 C 0.73129 0.19461 0.4113 0.0
C734 C 0.78987 0.21965 0.4198 0.0
C735 C 0.79318 0.24893 0.40664 0.0
N736 N 0.76981 0.28219 0.39529 0.0
N737 N 0.7557 0.16194 0.42379 0.0
C738 C 0.76575 0.25275 0.40414 0.0
C739 C 0.75879 0.1916 0.41951 0.0
N740 N 0.70744 0.22818 0.40977 0.0
N741 N 0.81648 0.21856 0.43147 0.0
H742 H 0.73357 0.14091 0.42595 0.0
H743 H 0.77516 0.15794 0.42408 0.0
H744 H 0.8394 0.23881 0.43195 0.0
H745 H 0.81545 0.19862 0.44434 0.0
H746 H 0.70776 0.24998 0.41017 0.0
H747 H 0.68455 0.20816 0.41343 0.0
H748 H 0.75097 0.28633 0.38891 0.0
H749 H 0.79266 0.30259 0.39365 0.0
C750 C 0.50011 0.72411 0.94933 0.0
C751 C 0.527 0.71946 0.94867 0.0
C752 C 0.56357 0.77694 0.9558 0.0
C753 C 0.53748 0.78174 0.94627 0.0
N754 N 0.48089 0.76245 0.95152 0.0
N755 N 0.58055 0.73833 0.97189 0.0
C756 C 0.50554 0.75596 0.94989 0.0
C757 C 0.55753 0.74493 0.95945 0.0
N758 N 0.46997 0.69807 0.94603 0.0
N759 N 0.59405 0.80255 0.95855 0.0
H760 H 0.57558 0.7148 0.97597 0.0
H761 H 0.603 0.7557 0.98192 0.0
H762 H 0.59869 0.82614 0.95902 0.0
H763 H 0.61462 0.80045 0.96044 0.0
H764 H 0.44906 0.69943 0.94292 0.0
H765 H 0.46641 0.67477 0.9462 0.0
H766 H 0.45679 0.74506 0.95506 0.0
H767 H 0.48551 0.7861 0.95219 0.0
C768 C 0.37709 0.98288 0.02104 0.0
C769 C 0.40309 0.98331 0.00163 0.0
C770 C 0.43243 0.04176 0.00252 0.0
C771 C 0.40294 0.04068 0.01079 0.0
N772 N 0.34909 0.01201 0.03584 0.0
N773 N 0.46064 0.01157 -0.00425 0.0
C774 C 0.37611 0.01188 0.02384 0.0
C775 C 0.43275 0.01242 -0.00013 0.0
N776 N 0.35371 0.95479 0.03621 0.0
N777 N 0.45924 0.07057 0.99498 0.0
H778 H 0.46059 0.98981 -0.00416 0.0
H779 H 0.48349 0.03185 -0.00384 0.0
H780 H 0.45939 0.09225 -0.00186 0.0
H781 H 0.48086 0.07299 0.98525 0.0
H782 H 0.33474 0.95286 0.05248 0.0
H783 H 0.35554 0.93402 0.03537 0.0
H784 H 0.32738 0.99132 0.04185 0.0
H785 H 0.34842 0.03325 0.03906 0.0
C786 C 0.3819 0.38745 0.47144 0.0
C787 C 0.36824 0.35511 0.45934 0.0
C788 C 0.32712 0.33783 0.50862 0.0
C789 C 0.34203 0.36978 0.52235 0.0
N790 N 0.3871 0.42392 0.52162 0.0
N791 N 0.33246 0.29877 0.47089 0.0
C792 C 0.37044 0.39434 0.50512 0.0
C793 C 0.3422 0.33006 0.47931 0.0
N794 N 0.40483 0.41169 0.44997 0.0
N795 N 0.29782 0.31518 0.52246 0.0
H796 H 0.34336 0.29219 0.44997 0.0
H797 H 0.31585 0.27946 0.48698 0.0
H798 H 0.28563 0.32004 0.54346 0.0
H799 H 0.28415 0.29241 0.51075 0.0
H800 H 0.41293 0.43588 0.45501 0.0
H801 H 0.41409 0.40764 0.42534 0.0
H802 H 0.4098 0.44167 0.51266 0.0
H803 H 0.37955 0.42989 0.54634 0.0
C804 C 0.0112 0.38055 0.03666 0.0
C805 C 0.01412 0.40867 0.02027 0.0
C806 C 0.95566 0.38365 0.01665 0.0
C807 C 0.95374 0.35354 0.02196 0.0
N808 N 0.97737 0.32291 0.04505 0.0
N809 N 0.98986 0.44184 0.01736 0.0
C810 C 0.98067 0.35195 0.03576 0.0
C811 C 0.98639 0.41191 0.01806 0.0
N812 N 0.03757 0.38162 0.05276 0.0
N813 N 0.92849 0.38478 0.00777 0.0
H814 H 0.01249 0.46235 0.02038 0.0
H815 H 0.9706 0.44616 0.01782 0.0
H816 H 0.90572 0.3642 0.00766 0.0
H817 H 0.92853 0.40565 -8e-05 0.0
H818 H 0.03703 0.36242 0.06696 0.0
H819 H 0.05939 0.40319 0.055 0.0
H820 H -0.00336 0.31945 0.05143 0.0
H821 H 0.95491 0.30197 0.04563 0.0
C822 C 0.63153 0.02148 0.5066 0.0
C823 C 0.62928 0.01681 0.46715 0.0
C824 C 0.60641 0.95892 0.476 0.0
C825 C 0.60662 0.96327 0.51543 0.0
N826 N 0.61127 -0.00243 0.5676 0.0
N827 N 0.60573 0.98031 0.41478 0.0
C828 C 0.6168 -0.00575 0.5306 0.0
C829 C 0.61404 0.98527 0.45196 0.0
N830 N 0.64878 0.05171 0.52125 0.0
N831 N 0.60045 0.93015 0.46141 0.0
H832 H 0.60946 -0.00118 0.39651 0.0
H833 H 0.59185 0.95753 0.40314 0.0
H834 H 0.59561 0.91037 0.478 0.0
H835 H 0.60345 0.92691 0.43303 0.0
H836 H 0.65413 0.05615 0.54977 0.0
H837 H 0.66014 0.07228 0.50462 0.0
H838 H 0.61539 0.01921 0.57919 0.0
H839 H 0.59931 0.97809 0.58578 0.0
C840 C 0.62114 0.61412 0.0271 0.0
C841 C 0.64371 0.60573 0.01299 0.0
C842 C 0.62871 0.61074 0.94873 0.0
C843 C 0.61042 0.62433 0.96291 0.0
N844 N 0.59285 0.64323 0.01591 0.0
N845 N 0.67194 0.5995 0.96028 0.0
C846 C 0.60735 0.62698 0.00221 0.0
C847 C 0.64817 0.60471 0.97374 0.0
N848 N 0.6121 0.60887 0.06406 0.0
N849 N 0.62671 0.60269 0.91156 0.0
H850 H 0.68698 0.59529 0.97766 0.0
H851 H 0.67856 0.6021 0.93203 0.0
H852 H 0.61185 0.60577 0.8926 0.0
H853 H 0.63709 0.5899 0.90044 0.0
H854 H 0.59342 0.61165 0.07494 0.0
H855 H 0.62082 0.5984 0.08294 0.0
H856 H 0.59322 0.64884 0.04427 0.0
H857 H 0.58302 0.65374 -0.00124 0.0
C858 C 0.00644 0.60279 0.51974 0.0
C859 C 0.0053 0.62743 0.54055 0.0
C860 C 0.9645 0.62556 0.49743 0.0
C861 C 0.968 0.60333 0.47448 0.0
N862 N -0.00462 0.57386 0.46067 0.0
N863 N 0.98786 0.66649 0.54558 0.0
C864 C 0.98976 0.59267 0.48481 0.0
C865 C 0.98558 0.63998 0.5284 0.0
N866 N 0.02246 0.58823 0.534 0.0
N867 N 0.94017 0.63198 0.49048 0.0
H868 H 0.00344 0.67812 0.568 0.0
H869 H 0.97669 0.67881 0.53536 0.0
H870 H 0.92366 0.62128 0.46862 0.0
H871 H 0.93432 0.64537 0.50857 0.0
H872 H 0.02118 0.56778 0.52225 0.0
H873 H 0.03502 0.59502 0.5594 0.0
H874 H 0.01359 0.56829 0.46467 0.0
H875 H 0.98343 0.56577 0.43503 0.0
C876 C 0.65934 0.98948 0.96835 0.0
C877 C 0.62715 0.97008 0.9558 0.0
C878 C 0.60894 -0.00259 -0.00103 0.0
C879 C 0.64146 0.01841 0.00947 0.0
N880 N 0.6982 0.03892 -0.00123 0.0
N881 N 0.57265 0.96062 0.9522 0.0
C882 C 0.66688 0.01577 0.99255 0.0
C883 C 0.60229 0.9755 0.96905 0.0
N884 N 0.68244 0.98202 0.9584 0.0
N885 N 0.58428 -0.00282 0.0187 0.0
H886 H 0.56693 0.94487 0.9296 0.0
H887 H 0.55478 0.96634 0.95814 0.0
H888 H 0.58791 0.01238 0.04136 0.0
H889 H 0.56017 0.97986 0.01482 0.0
H890 H 0.70549 -0.0068 0.97 0.0
H891 H 0.67777 0.9627 0.941 0.0
H892 H 0.71763 0.04001 0.98424 0.0
H893 H 0.70459 0.05887 0.01584 0.0
C894 C 0.61215 0.60672 0.45156 0.0
C895 C 0.63006 0.59319 0.46701 0.0
C896 C 0.61192 0.59742 0.52995 0.0
C897 C 0.59909 0.61613 0.51507 0.0
N898 N 0.59049 0.64205 0.46169 0.0
N899 N 0.64985 0.57849 0.52154 0.0
C900 C 0.59983 0.6215 0.4758 0.0
C901 C 0.63051 0.58898 0.50639 0.0
N902 N 0.60614 0.60465 0.41379 0.0
N903 N 0.60559 0.58695 0.56635 0.0
H904 H 0.66409 0.57231 0.50532 0.0
H905 H 0.65385 0.57848 0.55033 0.0
H906 H 0.59111 0.59174 0.58408 0.0
H907 H 0.61175 0.57074 0.57763 0.0
H908 H 0.59063 0.61138 0.40153 0.0
H909 H 0.61378 0.59295 0.39527 0.0
H910 H 0.59403 0.64954 0.43374 0.0
H911 H 0.58186 0.65395 0.47841 0.0
C912 C 0.01061 0.57598 -0.00324 0.0
C913 C 0.98257 0.57861 0.99386 0.0
C914 C 0.01502 0.63462 0.97496 0.0
C915 C 0.04247 0.63411 0.98896 0.0
N916 N 0.06877 0.60425 0.00524 0.0
N917 N 0.95802 0.60343 0.95892 0.0
C918 C 0.04115 0.60452 -0.00362 0.0
C919 C 0.98476 0.60574 0.97558 0.0
N920 N 0.00763 0.54632 -0.00032 0.0
N921 N 0.01759 0.66301 0.96391 0.0
H922 H 0.93643 0.58156 0.95759 0.0
H923 H 0.95811 0.62177 0.94329 0.0
H924 H 0.03981 0.68415 0.9621 0.0
H925 H -0.00208 0.66576 0.95736 0.0
H926 H 0.02708 0.5423 3e-05 0.0
H927 H 0.98512 0.52548 -0.00222 0.0
H928 H 0.06928 0.58398 0.01452 0.0
H929 H 0.0914 0.62495 0.00376 0.0
C930 C 0.33406 0.96093 0.48653 0.0
C931 C 0.33955 0.97435 0.52314 0.0
C932 C 0.35861 0.02774 0.49578 0.0
C933 C 0.35595 0.01476 0.45927 0.0
N934 N 0.34935 0.97029 0.42097 0.0
N935 N 0.3653 0.02186 0.56214 0.0
C936 C 0.34604 0.9817 0.45491 0.0
C937 C 0.35422 0.00817 0.52768 0.0
N938 N 0.31625 0.92843 0.48165 0.0
N939 N 0.364 0.05827 0.50019 0.0
H940 H 0.36411 0.00865 0.58593 0.0
H941 H 0.37893 0.0466 0.56617 0.0
H942 H 0.36651 0.07319 0.47763 0.0
H943 H 0.36276 0.06762 0.52618 0.0
H944 H 0.30877 0.91772 0.45532 0.0
H945 H 0.30619 0.91233 0.50391 0.0
H946 H 0.34541 0.9471 0.4173 0.0
H947 H 0.35952 0.98494 0.3975 0.0
C948 C 0.42859 0.43424 0.01785 0.0
C949 C 0.42125 0.40184 0.01624 0.0
C950 C 0.36377 0.38442 0.01965 0.0
C951 C 0.37118 0.41612 0.0111 0.0
N952 N 0.41069 0.47225 0.00432 0.0
N953 N 0.38167 0.34533 0.01824 0.0
C954 C 0.4036 0.44156 0.012 0.0
C955 C 0.38879 0.37661 0.01909 0.0
N956 N 0.45958 0.45785 0.02459 0.0
N957 N 0.33256 0.3618 0.0272 0.0
H958 H 0.39923 0.33858 0.01812 0.0
H959 H 0.35833 0.326 0.0157 0.0
H960 H 0.31413 0.36746 0.02756 0.0
H961 H 0.32558 0.33872 0.03655 0.0
H962 H 0.4662 0.48177 0.02914 0.0
H963 H 0.47808 0.45275 0.02944 0.0
H964 H 0.43402 0.49105 -0.00042 0.0
H965 H 0.39306 0.47873 0.00104 0.0
C966 C 0.97132 0.35579 0.54059 0.0
C967 C 0.00538 0.37485 0.5379 0.0
C968 C 0.00108 0.37513 0.46927 0.0
C969 C 0.96774 0.35221 0.47184 0.0
N970 N 0.92173 0.31713 0.51011 0.0
N971 N 0.05334 0.39866 0.49925 0.0
C972 C 0.95289 0.34169 0.50756 0.0
C973 C 0.02049 0.38367 0.50213 0.0
N974 N 0.95645 0.35189 0.57458 0.0
N975 N 0.01406 0.38944 0.43557 0.0
H976 H 0.06858 0.40468 0.52246 0.0
H977 H 0.06535 0.40239 0.4737 0.0
H978 H 0.00041 0.38442 0.41105 0.0
H979 H 0.03748 0.40864 0.4328 0.0
H980 H 0.93153 0.34097 0.57762 0.0
H981 H 0.96909 0.36245 0.59927 0.0
H982 H 0.91095 0.30613 0.53544 0.0
H983 H 0.90746 0.30572 0.48671 0.0
C984 C 0.50546 0.08077 0.08882 0.0
C985 C 0.5068 0.11088 0.0864 0.0
C986 C 0.56554 0.13787 0.08034 0.0
C987 C 0.5645 0.10902 0.09124 0.0
N988 N 0.53364 0.05241 0.10553 0.0
N989 N 0.53725 0.16787 0.07601 0.0
C990 C 0.53452 0.08007 0.09447 0.0
C991 C 0.53665 0.13936 0.08051 0.0
N992 N 0.47652 0.05296 0.08621 0.0
N993 N 0.5942 0.16358 0.06938 0.0
H994 H 0.51622 0.16913 0.07308 0.0
H995 H 0.55826 0.19015 0.07631 0.0
H996 H 0.61548 0.16261 0.06808 0.0
H997 H 0.59642 0.18463 0.05829 0.0
H998 H 0.47437 0.03038 0.08395 0.0
H999 H 0.45472 0.05252 0.08257 0.0
H1000 H 0.51255 0.03169 0.1133 0.0
H1001 H 0.55424 0.05055 0.10919 0.0
C1002 C 0.41204 0.56833 0.5998 0.0
C1003 C 0.44166 0.56952 0.60761 0.0
C1004 C 0.41252 0.51149 0.62038 0.0
C1005 C 0.3829 0.51165 0.61871 0.0
N1006 N 0.35386 0.53967 0.60561 0.0
N1007 N 0.47077 0.54223 0.62449 0.0
C1008 C 0.38251 0.53992 0.60789 0.0
C1009 C 0.44216 0.54098 0.61689 0.0
N1010 N 0.41236 0.59418 0.58329 0.0
N1011 N 0.41244 0.48325 0.62553 0.0
H1012 H 0.49317 0.56234 0.61953 0.0
H1013 H 0.47252 0.52369 0.63728 0.0
H1014 H 0.39169 0.46143 0.63084 0.0
H1015 H 0.43273 0.48084 0.62201 0.0
H1016 H 0.39184 0.5941 0.57348 0.0
H1017 H 0.4337 0.6149 0.57591 0.0
H1018 H 0.3521 0.5603 0.6029 0.0
H1019 H 0.33153 0.51881 0.60807 0.0
C1020 C 0.85828 0.39323 0.07913 0.0
C1021 C 0.88571 0.39214 0.09207 0.0
C1022 C 0.91504 0.45029 0.10143 0.0
C1023 C 0.88656 0.45094 0.09181 0.0
N1024 N 0.83491 0.426 0.06107 0.0
N1025 N 0.94279 0.41953 0.10361 0.0
C1026 C 0.85934 0.42324 0.07723 0.0
C1027 C 0.91508 0.42075 0.09914 0.0
N1028 N 0.8311 0.36534 0.06943 0.0
N1029 N 0.9413 0.47741 0.11469 0.0
H1030 H 0.94328 0.39815 0.10148 0.0
H1031 H 0.96559 0.43976 0.1057 0.0
H1032 H 0.94248 0.49963 0.11547 0.0
H1033 H 0.96136 0.47773 0.12649 0.0
H1034 H 0.80886 0.36352 0.06417 0.0
H1035 H 0.83079 0.34353 0.06736 0.0
H1036 H 0.81532 0.40736 0.04735 0.0
H1037 H 0.83561 0.44798 0.0586 0.0
C1038 C 0.39799 0.84337 0.59999 0.0
C1039 C 0.40281 0.87315 0.61355 0.0
C1040 C 0.46137 0.89448 0.61561 0.0
C1041 C 0.45604 0.86321 0.60731 0.0
N1042 N 0.42039 0.80867 0.58752 0.0
N1043 N 0.43847 0.92791 0.63245 0.0
C1044 C 0.42462 0.83792 0.59803 0.0
C1045 C 0.43441 0.89919 0.61997 0.0
N1046 N 0.36791 0.8207 0.58821 0.0
N1047 N 0.49209 0.91966 0.6198 0.0
H1048 H 0.41986 0.9332 0.63322 0.0
H1049 H 0.45992 0.94631 0.64338 0.0
H1050 H 0.51253 0.91728 0.62006 0.0
H1051 H 0.49787 0.94357 0.62092 0.0
H1052 H 0.36248 0.79907 0.57559 0.0
H1053 H 0.34842 0.82474 0.58851 0.0
H1054 H 0.39804 0.78801 0.58459 0.0
H1055 H 0.4396 0.80476 0.5822 0.0
C1056 C 0.57372 0.47114 0.12555 0.0
C1057 C 0.60054 0.46601 0.12269 0.0
C1058 C 0.56344 0.40754 0.12509 0.0
C1059 C 0.53747 0.4132 0.13151 0.0
N1060 N 0.51856 0.44982 0.1461 0.0
N1061 N 0.62118 0.42931 0.11893 0.0
C1062 C 0.54286 0.44485 0.13407 0.0
C1063 C 0.59543 0.43413 0.12244 0.0
N1064 N 0.57709 0.50073 0.11922 0.0
N1065 N 0.55728 0.37677 0.12007 0.0
H1066 H 0.64428 0.4476 0.11194 0.0
H1067 H 0.61995 0.40737 0.12366 0.0
H1068 H 0.53437 0.35683 0.12345 0.0
H1069 H 0.57429 0.37084 0.11085 0.0
H1070 H 0.55754 0.50448 0.11663 0.0
H1071 H 0.59871 0.5212 0.11271 0.0
H1072 H 0.52191 0.47236 0.153 0.0
H1073 H 0.49573 0.43103 0.15307 0.0
C1074 C 0.07678 0.53283 0.64879 0.0
C1075 C 0.10576 0.53235 0.64131 0.0
C1076 C 0.1355 0.59114 0.63593 0.0
C1077 C 0.10674 0.59169 0.64423 0.0
N1078 N 0.0485 0.56277 0.64993 0.0
N1079 N 0.1602 0.55953 0.61795 0.0
C1080 C 0.07689 0.56246 0.64751 0.0
C1081 C 0.1344 0.56113 0.6319 0.0
N1082 N 0.04956 0.50543 0.6598 0.0
N1083 N 0.16396 0.61938 0.63222 0.0
H1084 H 0.15969 0.53779 0.61371 0.0
H1085 H 0.18086 0.57917 0.60725 0.0
H1086 H 0.1653 0.64171 0.6318 0.0
H1087 H 0.1864 0.62088 0.63108 0.0
H1088 H 0.02954 0.50527 0.67153 0.0
H1089 H 0.04728 0.48277 0.65966 0.0
H1090 H 0.02598 0.54229 0.64675 0.0
H1091 H 0.04694 0.5835 0.65243 0.0
C1092 C 0.86473 0.43378 0.37761 0.0
C1093 C 0.87284 0.45332 0.34493 0.0
C1094 C 0.88349 0.41525 0.31048 0.0
C1095 C 0.87298 0.39454 0.34211 0.0
N1096 N 0.84908 0.38136 0.40388 0.0
N1097 N 0.88603 0.4608 0.27858 0.0
C1098 C 0.86264 0.40317 0.37534 0.0
C1099 C 0.881 0.44347 0.31088 0.0
N1100 N 0.85855 0.44422 0.41068 0.0
N1101 N 0.8972 0.40867 0.28052 0.0
H1102 H 0.88677 0.48279 0.27755 0.0
H1103 H 0.88749 0.45246 0.25204 0.0
H1104 H 0.89904 0.38803 0.27873 0.0
H1105 H 0.90922 0.42483 0.25882 0.0
H1106 H 0.85653 0.43314 0.43648 0.0
H1107 H 0.85711 0.4651 0.4129 0.0
H1108 H 0.83776 0.38462 0.42707 0.0
H1109 H 0.84671 0.35859 0.40305 0.0
C1110 C 0.44867 0.84476 0.89827 0.0
C1111 C 0.47896 0.87021 0.88627 0.0
C1112 C 0.45678 0.90661 0.88557 0.0
C1113 C 0.42543 0.87974 0.89045 0.0
N1114 N 0.39102 0.82328 0.90279 0.0
N1115 N 0.5125 0.926 0.86872 0.0
C1116 C 0.42129 0.84885 0.89749 0.0
C1117 C 0.48344 0.90151 0.88078 0.0
N1118 N 0.44641 0.81703 0.91157 0.0
N1119 N 0.46114 0.93697 0.88511 0.0
H1120 H 0.53323 0.92426 0.86664 0.0
H1121 H 0.51585 0.94781 0.85875 0.0
H1122 H 0.44228 0.94182 0.88674 0.0
H1123 H 0.4837 0.95764 0.88625 0.0
H1124 H 0.42577 0.79866 0.92411 0.0
H1125 H 0.4663 0.81373 0.91355 0.0
H1126 H 0.38581 0.7995 0.903 0.0
H1127 H 0.37072 0.82581 0.90534 0.0
C1128 C 0.5371 0.42493 0.31031 0.0
C1129 C 0.5221 0.40247 0.33995 0.0
C1130 C 0.57058 0.43272 0.37898 0.0
C1131 C 0.58646 0.45347 0.34812 0.0
N1132 N 0.58613 0.46719 0.28269 0.0
N1133 N 0.52586 0.38196 0.40042 0.0
C1134 C 0.57012 0.44885 0.31327 0.0
C1135 C 0.53908 0.40569 0.37391 0.0
N1136 N 0.51933 0.42436 0.27988 0.0
N1137 N 0.58572 0.43865 0.41305 0.0
H1138 H 0.50316 0.36162 0.39747 0.0
H1139 H 0.5383 0.38095 0.4239 0.0
H1140 H 0.60954 0.4567 0.41723 0.0
H1141 H 0.57416 0.42693 0.43774 0.0
H1142 H 0.5276 0.44243 0.2597 0.0
H1143 H 0.49515 0.40723 0.27629 0.0
H1144 H 0.577 0.46196 0.25544 0.0
H1145 H 0.60951 0.48662 0.28377 0.0
C1146 C 0.08717 0.53923 0.91782 0.0
C1147 C 0.11638 0.539 0.92437 0.0
C1148 C 0.14607 0.59767 0.92874 0.0
C1149 C 0.11726 0.59799 0.92033 0.0
N1150 N 0.05911 0.56956 0.91802 0.0
N1151 N 0.17112 0.56638 0.94661 0.0
C1152 C 0.08733 0.5689 0.91891 0.0
C1153 C 0.14507 0.56781 0.93328 0.0
N1154 N 0.0598 0.51161 0.90777 0.0
N1155 N 0.17445 0.62602 0.93158 0.0
H1156 H 0.17065 0.54467 0.95088 0.0
H1157 H 0.19201 0.58618 0.95663 0.0
H1158 H 0.17537 0.64813 0.93132 0.0
H1159 H 0.19699 0.62774 0.93295 0.0
H1160 H 0.03914 0.51107 0.89762 0.0
H1161 H 0.05815 0.48919 0.90707 0.0
H1162 H 0.0365 0.54919 0.92107 0.0
H1163 H 0.05819 0.59075 0.9178 0.0
C1164 C 0.56646 0.14532 0.3761 0.0
C1165 C 0.56841 0.11692 0.37218 0.0
C1166 C 0.51014 0.08571 0.35986 0.0
C1167 C 0.50845 0.11432 0.3625 0.0
N1168 N 0.53252 0.16951 0.38174 0.0
N1169 N 0.54078 0.05877 0.3697 0.0
C1170 C 0.53593 0.14361 0.37331 0.0
C1171 C 0.53981 0.08668 0.36746 0.0
N1172 N 0.59401 0.17403 0.38196 0.0
N1173 N 0.48402 0.05796 0.34746 0.0
H1174 H 0.56182 0.05771 0.37279 0.0
H1175 H 0.52022 0.0362 0.37153 0.0
H1176 H 0.46145 0.05555 0.34272 0.0
H1177 H 0.48509 0.0377 0.33932 0.0
H1178 H 0.59523 0.19621 0.38026 0.0
H1179 H 0.61623 0.17571 0.38751 0.0
H1180 H 0.55077 0.19085 0.39304 0.0
H1181 H 0.51037 0.16871 0.38033 0.0
C1182 C 0.43245 0.5555 0.8387 0.0
C1183 C 0.44613 0.57299 0.87241 0.0
C1184 C 0.39984 0.53242 0.90848 0.0
C1185 C 0.38698 0.51431 0.875 0.0
N1186 N 0.3938 0.50533 0.80968 0.0
N1187 N 0.44537 0.57653 0.94006 0.0
C1188 C 0.40404 0.52498 0.84051 0.0
C1189 C 0.43073 0.56078 0.90757 0.0
N1190 N 0.44639 0.56818 0.8047 0.0
N1191 N 0.38167 0.5236 0.9406 0.0
H1192 H 0.4667 0.59858 0.94052 0.0
H1193 H 0.43748 0.56688 0.96674 0.0
H1194 H 0.35876 0.5034 0.94229 0.0
H1195 H 0.38799 0.53758 0.96484 0.0
H1196 H 0.43519 0.5589 0.77898 0.0
H1197 H 0.46847 0.5892 0.80182 0.0
H1198 H 0.40735 0.50974 0.78524 0.0
H1199 H 0.3728 0.48306 0.80939 0.0
loop_
_geom_bond_atom_site_label_1
_geom_bond_atom_site_label_2
_geom_bond_distance
_geom_bond_site_symmetry_2
_ccdc_geom_bond_type
Mg0 O1 2.028 . S
Mg0 O7 1.986 . S
Mg0 O9 2.114 . S
Mg0 O10 2.251 . S
Mg0 O13 2.010 . S
O1 Mg0 2.028 . S
O1 C4 1.250 . S
O2 Mg3 2.028 . S
O2 C4 1.248 . S
Mg3 O2 2.028 . S
Mg3 O8 2.032 . S
Mg3 O10 2.079 . S
C4 O1 1.250 . S
C4 O2 1.248 . S
C5 O6 1.264 . S
C5 O13 1.249 . S
O6 C5 1.264 . S
O7 Mg0 1.986 . S
O7 C11 1.246 . S
O8 Mg3 2.032 . S
O8 C11 1.259 . S
O9 Mg0 2.114 . S
O9 C12 1.252 . S
O10 Mg0 2.251 . S
O10 Mg3 2.079 . S
O10 C12 1.273 . S
C11 O7 1.246 . S
C11 O8 1.259 . S
C12 O9 1.252 . S
C12 O10 1.273 . S
O13 Mg0 2.010 . S
O13 C5 1.249 . S
Mg14 O15 2.028 . S
Mg14 O21 1.986 . S
Mg14 O23 2.114 . S
Mg14 O24 2.251 . S
Mg14 O27 2.010 . S
O15 Mg14 2.028 . S
O15 C18 1.250 . S
O16 Mg17 2.028 . S
O16 C18 1.248 . S
Mg17 O16 2.028 . S
Mg17 O22 2.032 . S
Mg17 O24 2.079 . S
C18 O15 1.250 . S
C18 O16 1.248 . S
C19 O20 1.264 . S
C19 O27 1.249 . S
O20 C19 1.264 . S
O21 Mg14 1.986 . S
O21 C25 1.246 . S
O22 Mg17 2.032 . S
O22 C25 1.259 . S
O23 Mg14 2.114 . S
O23 C26 1.252 . S
O24 Mg14 2.251 . S
O24 Mg17 2.079 . S
O24 C26 1.273 . S
C25 O21 1.246 . S
C25 O22 1.259 . S
C26 O23 1.252 . S
C26 O24 1.273 . S
O27 Mg14 2.010 . S
O27 C19 1.249 . S
Mg28 O29 2.028 . S
Mg28 O35 1.986 . S
Mg28 O37 2.114 . S
Mg28 O38 2.251 . S
Mg28 O41 2.010 . S
O29 Mg28 2.028 . S
O29 C32 1.250 . S
O30 Mg31 2.028 . S
O30 C32 1.248 . S
Mg31 O30 2.028 . S
Mg31 O36 2.032 . S
Mg31 O38 2.079 . S
C32 O29 1.250 . S
C32 O30 1.248 . S
C33 O34 1.264 . S
C33 O41 1.249 . S
O34 C33 1.264 . S
O35 Mg28 1.986 . S
O35 C39 1.246 . S
O36 Mg31 2.032 . S
O36 C39 1.259 . S
O37 Mg28 2.114 . S
O37 C40 1.252 . S
O38 Mg28 2.251 . S
O38 Mg31 2.079 . S
O38 C40 1.273 . S
C39 O35 1.246 . S
C39 O36 1.259 . S
C40 O37 1.252 . S
C40 O38 1.273 . S
O41 Mg28 2.010 . S
O41 C33 1.249 . S
Mg42 O43 2.028 . S
Mg42 O49 1.986 . S
Mg42 O51 2.114 . S
Mg42 O52 2.251 . S
Mg42 O55 2.010 . S
O43 Mg42 2.028 . S
O43 C46 1.250 . S
O44 Mg45 2.028 . S
O44 C46 1.248 . S
Mg45 O44 2.028 . S
Mg45 O50 2.032 . S
Mg45 O52 2.079 . S
C46 O43 1.250 . S
C46 O44 1.248 . S
C47 O48 1.264 . S
C47 O55 1.249 . S
O48 C47 1.264 . S
O49 Mg42 1.986 . S
O49 C53 1.246 . S
O50 Mg45 2.032 . S
O50 C53 1.259 . S
O51 Mg42 2.114 . S
O51 C54 1.252 . S
O52 Mg42 2.251 . S
O52 Mg45 2.079 . S
O52 C54 1.273 . S
C53 O49 1.246 . S
C53 O50 1.259 . S
C54 O51 1.252 . S
C54 O52 1.273 . S
O55 Mg42 2.010 . S
O55 C47 1.249 . S
Mg56 O57 2.028 . S
Mg56 O63 1.986 . S
Mg56 O65 2.114 . S
Mg56 O66 2.251 . S
Mg56 O69 2.010 . S
O57 Mg56 2.028 . S
O57 C60 1.250 . S
O58 Mg59 2.028 . S
O58 C60 1.248 . S
Mg59 O58 2.028 . S
Mg59 O64 2.032 . S
Mg59 O66 2.079 . S
C60 O57 1.250 . S
C60 O58 1.248 . S
C61 O62 1.264 . S
C61 O69 1.249 . S
O62 C61 1.264 . S
O63 Mg56 1.986 . S
O63 C67 1.246 . S
O64 Mg59 2.032 . S
O64 C67 1.259 . S
O65 Mg56 2.114 . S
O65 C68 1.252 . S
O66 Mg56 2.251 . S
O66 Mg59 2.079 . S
O66 C68 1.273 . S
C67 O63 1.246 . S
C67 O64 1.259 . S
C68 O65 1.252 . S
C68 O66 1.273 . S
O69 Mg56 2.010 . S
O69 C61 1.249 . S
Mg70 O71 2.028 . S
Mg70 O77 1.986 . S
Mg70 O79 2.114 . S
Mg70 O80 2.251 . S
Mg70 O83 2.010 . S
O71 Mg70 2.028 . S
O71 C74 1.250 . S
O72 Mg73 2.028 . S
O72 C74 1.248 . S
Mg73 O72 2.028 . S
Mg73 O78 2.032 . S
Mg73 O80 2.079 . S
C74 O71 1.250 . S
C74 O72 1.248 . S
C75 O76 1.264 . S
C75 O83 1.249 . S
O76 C75 1.264 . S
O77 Mg70 1.986 . S
O77 C81 1.246 . S
O78 Mg73 2.032 . S
O78 C81 1.259 . S
O79 Mg70 2.114 . S
O79 C82 1.252 . S
O80 Mg70 2.251 . S
O80 Mg73 2.079 . S
O80 C82 1.273 . S
C81 O77 1.246 . S
C81 O78 1.259 . S
C82 O79 1.252 . S
C82 O80 1.273 . S
O83 Mg70 2.010 . S
O83 C75 1.249 . S
Mg84 O85 2.028 . S
Mg84 O91 1.986 . S
Mg84 O93 2.114 . S
Mg84 O94 2.251 . S
Mg84 O97 2.010 . S
O85 Mg84 2.028 . S
O85 C88 1.250 . S
O86 Mg87 2.028 . S
O86 C88 1.248 . S
Mg87 O86 2.028 . S
Mg87 O92 2.032 . S
Mg87 O94 2.079 . S
C88 O85 1.250 . S
C88 O86 1.248 . S
C89 O90 1.264 . S
C89 O97 1.249 . S
O90 C89 1.264 . S
O91 Mg84 1.986 . S
O91 C95 1.246 . S
O92 Mg87 2.032 . S
O92 C95 1.259 . S
O93 Mg84 2.114 . S
O93 C96 1.252 . S
O94 Mg84 2.251 . S
O94 Mg87 2.079 . S
O94 C96 1.273 . S
C95 O91 1.246 . S
C95 O92 1.259 . S
C96 O93 1.252 . S
C96 O94 1.273 . S
O97 Mg84 2.010 . S
O97 C89 1.249 . S
Mg98 O99 2.028 . S
Mg98 O105 1.986 . S
Mg98 O107 2.114 . S
Mg98 O108 2.251 . S
Mg98 O111 2.010 . S
O99 Mg98 2.028 . S
O99 C102 1.250 . S
O100 Mg101 2.028 . S
O100 C102 1.248 . S
Mg101 O100 2.028 . S
Mg101 O106 2.032 . S
Mg101 O108 2.079 . S
C102 O99 1.250 . S
C102 O100 1.248 . S
C103 O104 1.264 . S
C103 O111 1.249 . S
O104 C103 1.264 . S
O105 Mg98 1.986 . S
O105 C109 1.246 . S
O106 Mg101 2.032 . S
O106 C109 1.259 . S
O107 Mg98 2.114 . S
O107 C110 1.252 . S
O108 Mg98 2.251 . S
O108 Mg101 2.079 . S
O108 C110 1.273 . S
C109 O105 1.246 . S
C109 O106 1.259 . S
C110 O107 1.252 . S
C110 O108 1.273 . S
O111 Mg98 2.010 . S
O111 C103 1.249 . S
Mg112 O113 2.028 . S
Mg112 O119 1.986 . S
Mg112 O121 2.114 . S
Mg112 O122 2.251 . S
Mg112 O125 2.010 . S
O113 Mg112 2.028 . S
O113 C116 1.250 . S
O114 Mg115 2.028 . S
O114 C116 1.248 . S
Mg115 O114 2.028 . S
Mg115 O120 2.032 . S
Mg115 O122 2.079 . S
C116 O113 1.250 . S
C116 O114 1.248 . S
C117 O118 1.264 . S
C117 O125 1.249 . S
O118 C117 1.264 . S
O119 Mg112 1.986 . S
O119 C123 1.246 . S
O120 Mg115 2.032 . S
O120 C123 1.259 . S
O121 Mg112 2.114 . S
O121 C124 1.252 . S
O122 Mg112 2.251 . S
O122 Mg115 2.079 . S
O122 C124 1.273 . S
C123 O119 1.246 . S
C123 O120 1.259 . S
C124 O121 1.252 . S
C124 O122 1.273 . S
O125 Mg112 2.010 . S
O125 C117 1.249 . S
Mg126 O127 2.028 . S
Mg126 O133 1.986 . S
Mg126 O135 2.114 . S
Mg126 O136 2.251 . S
Mg126 O139 2.010 . S
O127 Mg126 2.028 . S
O127 C130 1.250 . S
O128 Mg129 2.028 . S
O128 C130 1.248 . S
Mg129 O128 2.028 . S
Mg129 O134 2.032 . S
Mg129 O136 2.079 . S
C130 O127 1.250 . S
C130 O128 1.248 . S
C131 O132 1.264 . S
C131 O139 1.249 . S
O132 C131 1.264 . S
O133 Mg126 1.986 . S
O133 C137 1.246 . S
O134 Mg129 2.032 . S
O134 C137 1.259 . S
O135 Mg126 2.114 . S
O135 C138 1.252 . S
O136 Mg126 2.251 . S
O136 Mg129 2.079 . S
O136 C138 1.273 . S
C137 O133 1.246 . S
C137 O134 1.259 . S
C138 O135 1.252 . S
C138 O136 1.273 . S
O139 Mg126 2.010 . S
O139 C131 1.249 . S
Mg140 O141 2.028 . S
Mg140 O147 1.986 . S
Mg140 O149 2.114 . S
Mg140 O150 2.251 . S
Mg140 O153 2.010 . S
O141 Mg140 2.028 . S
O141 C144 1.250 . S
O142 Mg143 2.028 . S
O142 C144 1.248 . S
Mg143 O142 2.028 . S
Mg143 O148 2.032 . S
Mg143 O150 2.079 . S
C144 O141 1.250 . S
C144 O142 1.248 . S
C145 O146 1.264 . S
C145 O153 1.249 . S
O146 C145 1.264 . S
O147 Mg140 1.986 . S
O147 C151 1.246 . S
O148 Mg143 2.032 . S
O148 C151 1.259 . S
O149 Mg140 2.114 . S
O149 C152 1.252 . S
O150 Mg140 2.251 . S
O150 Mg143 2.079 . S
O150 C152 1.273 . S
C151 O147 1.246 . S
C151 O148 1.259 . S
C152 O149 1.252 . S
C152 O150 1.273 . S
O153 Mg140 2.010 . S
O153 C145 1.249 . S
Mg154 O155 2.028 . S
Mg154 O161 1.986 . S
Mg154 O163 2.114 . S
Mg154 O164 2.251 . S
Mg154 O167 2.010 . S
O155 Mg154 2.028 . S
O155 C158 1.250 . S
O156 Mg157 2.028 . S
O156 C158 1.248 . S
Mg157 O156 2.028 . S
Mg157 O162 2.032 . S
Mg157 O164 2.079 . S
C158 O155 1.250 . S
C158 O156 1.248 . S
C159 O160 1.264 . S
C159 O167 1.249 . S
O160 C159 1.264 . S
O161 Mg154 1.986 . S
O161 C165 1.246 . S
O162 Mg157 2.032 . S
O162 C165 1.259 . S
O163 Mg154 2.114 . S
O163 C166 1.252 . S
O164 Mg154 2.251 . S
O164 Mg157 2.079 . S
O164 C166 1.273 . S
C165 O161 1.246 . S
C165 O162 1.259 . S
C166 O163 1.252 . S
C166 O164 1.273 . S
O167 Mg154 2.010 . S
O167 C159 1.249 . S
Mg168 O169 2.028 . S
Mg168 O175 1.986 . S
Mg168 O177 2.114 . S
Mg168 O178 2.251 . S
Mg168 O181 2.010 . S
O169 Mg168 2.028 . S
O169 C172 1.250 . S
O170 Mg171 2.028 . S
O170 C172 1.248 . S
Mg171 O170 2.028 . S
Mg171 O176 2.032 . S
Mg171 O178 2.079 . S
C172 O169 1.250 . S
C172 O170 1.248 . S
C173 O174 1.264 . S
C173 O181 1.249 . S
O174 C173 1.264 . S
O175 Mg168 1.986 . S
O175 C179 1.246 . S
O176 Mg171 2.032 . S
O176 C179 1.259 . S
O177 Mg168 2.114 . S
O177 C180 1.252 . S
O178 Mg168 2.251 . S
O178 Mg171 2.079 . S
O178 C180 1.273 . S
C179 O175 1.246 . S
C179 O176 1.259 . S
C180 O177 1.252 . S
C180 O178 1.273 . S
O181 Mg168 2.010 . S
O181 C173 1.249 . S
Mg182 O183 2.028 . S
Mg182 O189 1.986 . S
Mg182 O191 2.114 . S
Mg182 O192 2.251 . S
Mg182 O195 2.010 . S
O183 Mg182 2.028 . S
O183 C186 1.250 . S
O184 Mg185 2.028 . S
O184 C186 1.248 . S
Mg185 O184 2.028 . S
Mg185 O190 2.032 . S
Mg185 O192 2.079 . S
C186 O183 1.250 . S
C186 O184 1.248 . S
C187 O188 1.264 . S
C187 O195 1.249 . S
O188 C187 1.264 . S
O189 Mg182 1.986 . S
O189 C193 1.246 . S
O190 Mg185 2.032 . S
O190 C193 1.259 . S
O191 Mg182 2.114 . S
O191 C194 1.252 . S
O192 Mg182 2.251 . S
O192 Mg185 2.079 . S
O192 C194 1.273 . S
C193 O189 1.246 . S
C193 O190 1.259 . S
C194 O191 1.252 . S
C194 O192 1.273 . S
O195 Mg182 2.010 . S
O195 C187 1.249 . S
Mg196 O197 2.028 . S
Mg196 O203 1.986 . S
Mg196 O205 2.114 . S
Mg196 O206 2.251 . S
Mg196 O209 2.010 . S
O197 Mg196 2.028 . S
O197 C200 1.250 . S
O198 Mg199 2.028 . S
O198 C200 1.248 . S
Mg199 O198 2.028 . S
Mg199 O204 2.032 . S
Mg199 O206 2.079 . S
C200 O197 1.250 . S
C200 O198 1.248 . S
C201 O202 1.264 . S
C201 O209 1.249 . S
O202 C201 1.264 . S
O203 Mg196 1.986 . S
O203 C207 1.246 . S
O204 Mg199 2.032 . S
O204 C207 1.259 . S
O205 Mg196 2.114 . S
O205 C208 1.252 . S
O206 Mg196 2.251 . S
O206 Mg199 2.079 . S
O206 C208 1.273 . S
C207 O203 1.246 . S
C207 O204 1.259 . S
C208 O205 1.252 . S
C208 O206 1.273 . S
O209 Mg196 2.010 . S
O209 C201 1.249 . S
Mg210 O211 2.028 . S
Mg210 O217 1.986 . S
Mg210 O219 2.114 . S
Mg210 O220 2.251 . S
Mg210 O223 2.010 . S
O211 Mg210 2.028 . S
O211 C214 1.250 . S
O212 Mg213 2.028 . S
O212 C214 1.248 . S
Mg213 O212 2.028 . S
Mg213 O218 2.032 . S
Mg213 O220 2.079 . S
C214 O211 1.250 . S
C214 O212 1.248 . S
C215 O216 1.264 . S
C215 O223 1.249 . S
O216 C215 1.264 . S
O217 Mg210 1.986 . S
O217 C221 1.246 . S
O218 Mg213 2.032 . S
O218 C221 1.259 . S
O219 Mg210 2.114 . S
O219 C222 1.252 . S
O220 Mg210 2.251 . S
O220 Mg213 2.079 . S
O220 C222 1.273 . S
C221 O217 1.246 . S
C221 O218 1.259 . S
C222 O219 1.252 . S
C222 O220 1.273 . S
O223 Mg210 2.010 . S
O223 C215 1.249 . S
Mg224 O225 2.028 . S
Mg224 O231 1.986 . S
Mg224 O233 2.114 . S
Mg224 O234 2.251 . S
Mg224 O237 2.010 . S
O225 Mg224 2.028 . S
O225 C228 1.250 . S
O226 Mg227 2.028 . S
O226 C228 1.248 . S
Mg227 O226 2.028 . S
Mg227 O232 2.032 . S
Mg227 O234 2.079 . S
C228 O225 1.250 . S
C228 O226 1.248 . S
C229 O230 1.264 . S
C229 O237 1.249 . S
O230 C229 1.264 . S
O231 Mg224 1.986 . S
O231 C235 1.246 . S
O232 Mg227 2.032 . S
O232 C235 1.259 . S
O233 Mg224 2.114 . S
O233 C236 1.252 . S
O234 Mg224 2.251 . S
O234 Mg227 2.079 . S
O234 C236 1.273 . S
C235 O231 1.246 . S
C235 O232 1.259 . S
C236 O233 1.252 . S
C236 O234 1.273 . S
O237 Mg224 2.010 . S
O237 C229 1.249 . S
Mg238 O239 2.028 . S
Mg238 O245 1.986 . S
Mg238 O247 2.114 . S
Mg238 O248 2.251 . S
Mg238 O251 2.010 . S
O239 Mg238 2.028 . S
O239 C242 1.250 . S
O240 Mg241 2.028 . S
O240 C242 1.248 . S
Mg241 O240 2.028 . S
Mg241 O246 2.032 . S
Mg241 O248 2.079 . S
C242 O239 1.250 . S
C242 O240 1.248 . S
C243 O244 1.264 . S
C243 O251 1.249 . S
O244 C243 1.264 . S
O245 Mg238 1.986 . S
O245 C249 1.246 . S
O246 Mg241 2.032 . S
O246 C249 1.259 . S
O247 Mg238 2.114 . S
O247 C250 1.252 . S
O248 Mg238 2.251 . S
O248 Mg241 2.079 . S
O248 C250 1.273 . S
C249 O245 1.246 . S
C249 O246 1.259 . S
C250 O247 1.252 . S
C250 O248 1.273 . S
O251 Mg238 2.010 . S
O251 C243 1.249 . S
Mg252 O253 2.028 . S
Mg252 O259 1.986 . S
Mg252 O261 2.114 . S
Mg252 O262 2.251 . S
Mg252 O265 2.010 . S
O253 Mg252 2.028 . S
O253 C256 1.250 . S
O254 Mg255 2.028 . S
O254 C256 1.248 . S
Mg255 O254 2.028 . S
Mg255 O260 2.032 . S
Mg255 O262 2.079 . S
C256 O253 1.250 . S
C256 O254 1.248 . S
C257 O258 1.264 . S
C257 O265 1.249 . S
O258 C257 1.264 . S
O259 Mg252 1.986 . S
O259 C263 1.246 . S
O260 Mg255 2.032 . S
O260 C263 1.259 . S
O261 Mg252 2.114 . S
O261 C264 1.252 . S
O262 Mg252 2.251 . S
O262 Mg255 2.079 . S
O262 C264 1.273 . S
C263 O259 1.246 . S
C263 O260 1.259 . S
C264 O261 1.252 . S
C264 O262 1.273 . S
O265 Mg252 2.010 . S
O265 C257 1.249 . S
Mg266 O267 2.028 . S
Mg266 O273 1.986 . S
Mg266 O275 2.114 . S
Mg266 O276 2.251 . S
Mg266 O279 2.010 . S
O267 Mg266 2.028 . S
O267 C270 1.250 . S
O268 Mg269 2.028 . S
O268 C270 1.248 . S
Mg269 O268 2.028 . S
Mg269 O274 2.032 . S
Mg269 O276 2.079 . S
C270 O267 1.250 . S
C270 O268 1.248 . S
C271 O272 1.264 . S
C271 O279 1.249 . S
O272 C271 1.264 . S
O273 Mg266 1.986 . S
O273 C277 1.246 . S
O274 Mg269 2.032 . S
O274 C277 1.259 . S
O275 Mg266 2.114 . S
O275 C278 1.252 . S
O276 Mg266 2.251 . S
O276 Mg269 2.079 . S
O276 C278 1.273 . S
C277 O273 1.246 . S
C277 O274 1.259 . S
C278 O275 1.252 . S
C278 O276 1.273 . S
O279 Mg266 2.010 . S
O279 C271 1.249 . S
Mg280 O281 2.028 . S
Mg280 O287 1.986 . S
Mg280 O289 2.114 . S
Mg280 O290 2.251 . S
Mg280 O293 2.010 . S
O281 Mg280 2.028 . S
O281 C284 1.250 . S
O282 Mg283 2.028 . S
O282 C284 1.248 . S
Mg283 O282 2.028 . S
Mg283 O288 2.032 . S
Mg283 O290 2.079 . S
C284 O281 1.250 . S
C284 O282 1.248 . S
C285 O286 1.264 . S
C285 O293 1.249 . S
O286 C285 1.264 . S
O287 Mg280 1.986 . S
O287 C291 1.246 . S
O288 Mg283 2.032 . S
O288 C291 1.259 . S
O289 Mg280 2.114 . S
O289 C292 1.252 . S
O290 Mg280 2.251 . S
O290 Mg283 2.079 . S
O290 C292 1.273 . S
C291 O287 1.246 . S
C291 O288 1.259 . S
C292 O289 1.252 . S
C292 O290 1.273 . S
O293 Mg280 2.010 . S
O293 C285 1.249 . S
Mg294 O295 2.028 . S
Mg294 O301 1.986 . S
Mg294 O303 2.114 . S
Mg294 O304 2.251 . S
Mg294 O307 2.010 . S
O295 Mg294 2.028 . S
O295 C298 1.250 . S
O296 Mg297 2.028 . S
O296 C298 1.248 . S
Mg297 O296 2.028 . S
Mg297 O302 2.032 . S
Mg297 O304 2.079 . S
C298 O295 1.250 . S
C298 O296 1.248 . S
C299 O300 1.264 . S
C299 O307 1.249 . S
O300 C299 1.264 . S
O301 Mg294 1.986 . S
O301 C305 1.246 . S
O302 Mg297 2.032 . S
O302 C305 1.259 . S
O303 Mg294 2.114 . S
O303 C306 1.252 . S
O304 Mg294 2.251 . S
O304 Mg297 2.079 . S
O304 C306 1.273 . S
C305 O301 1.246 . S
C305 O302 1.259 . S
C306 O303 1.252 . S
C306 O304 1.273 . S
O307 Mg294 2.010 . S
O307 C299 1.249 . S
Mg308 O309 2.028 . S
Mg308 O315 1.986 . S
Mg308 O317 2.114 . S
Mg308 O318 2.251 . S
Mg308 O321 2.010 . S
O309 Mg308 2.028 . S
O309 C312 1.250 . S
O310 Mg311 2.028 . S
O310 C312 1.248 . S
Mg311 O310 2.028 . S
Mg311 O316 2.032 . S
Mg311 O318 2.079 . S
C312 O309 1.250 . S
C312 O310 1.248 . S
C313 O314 1.264 . S
C313 O321 1.249 . S
O314 C313 1.264 . S
O315 Mg308 1.986 . S
O315 C319 1.246 . S
O316 Mg311 2.032 . S
O316 C319 1.259 . S
O317 Mg308 2.114 . S
O317 C320 1.252 . S
O318 Mg308 2.251 . S
O318 Mg311 2.079 . S
O318 C320 1.273 . S
C319 O315 1.246 . S
C319 O316 1.259 . S
C320 O317 1.252 . S
C320 O318 1.273 . S
O321 Mg308 2.010 . S
O321 C313 1.249 . S
Mg322 O323 2.028 . S
Mg322 O329 1.986 . S
Mg322 O331 2.114 . S
Mg322 O332 2.251 . S
Mg322 O335 2.010 . S
O323 Mg322 2.028 . S
O323 C326 1.250 . S
O324 Mg325 2.028 . S
O324 C326 1.248 . S
Mg325 O324 2.028 . S
Mg325 O330 2.032 . S
Mg325 O332 2.079 . S
C326 O323 1.250 . S
C326 O324 1.248 . S
C327 O328 1.264 . S
C327 O335 1.249 . S
O328 C327 1.264 . S
O329 Mg322 1.986 . S
O329 C333 1.246 . S
O330 Mg325 2.032 . S
O330 C333 1.259 . S
O331 Mg322 2.114 . S
O331 C334 1.252 . S
O332 Mg322 2.251 . S
O332 Mg325 2.079 . S
O332 C334 1.273 . S
C333 O329 1.246 . S
C333 O330 1.259 . S
C334 O331 1.252 . S
C334 O332 1.273 . S
O335 Mg322 2.010 . S
O335 C327 1.249 . S
C336 C337 1.363 . S
C336 C342 1.379 . S
C336 N344 1.356 . S
C337 C336 1.363 . S
C337 C343 1.363 . S
C338 C339 1.363 . S
C338 C343 1.379 . S
C338 N345 1.356 . S
C339 C338 1.363 . S
C339 C342 1.363 . S
N340 C342 1.356 . S
N340 H352 0.984 . S
N340 H353 0.985 . S
N341 C343 1.356 . S
N341 H346 0.984 . S
N341 H347 0.985 . S
C342 C336 1.379 . S
C342 C339 1.363 . S
C342 N340 1.356 . S
C343 C337 1.363 . S
C343 C338 1.379 . S
C343 N341 1.356 . S
N344 C336 1.356 . S
N344 H350 0.984 . S
N344 H351 0.984 . S
N345 C338 1.356 . S
N345 H348 0.984 . S
N345 H349 0.985 . S
H346 N341 0.984 . S
H347 N341 0.985 . S
H348 N345 0.984 . S
H349 N345 0.985 . S
H350 N344 0.984 . S
H351 N344 0.984 . S
H352 N340 0.984 . S
H353 N340 0.985 . S
C354 C355 1.363 . S
C354 C360 1.379 . S
C354 N362 1.356 . S
C355 C354 1.363 . S
C355 C361 1.363 . S
C356 C357 1.363 . S
C356 C361 1.379 . S
C356 N363 1.356 . S
C357 C356 1.363 . S
C357 C360 1.363 . S
N358 C360 1.356 . S
N358 H370 0.984 . S
N358 H371 0.985 . S
N359 C361 1.356 . S
N359 H364 0.984 . S
N359 H365 0.985 . S
C360 C354 1.379 . S
C360 C357 1.363 . S
C360 N358 1.356 . S
C361 C355 1.363 . S
C361 C356 1.379 . S
C361 N359 1.356 . S
N362 C354 1.356 . S
N362 H368 0.984 . S
N362 H369 0.984 . S
N363 C356 1.356 . S
N363 H366 0.984 . S
N363 H367 0.985 . S
H364 N359 0.984 . S
H365 N359 0.985 . S
H366 N363 0.984 . S
H367 N363 0.985 . S
H368 N362 0.984 . S
H369 N362 0.984 . S
H370 N358 0.984 . S
H371 N358 0.985 . S
C372 C373 1.363 . S
C372 C378 1.379 . S
C372 N380 1.356 . S
C373 C372 1.363 . S
C373 C379 1.363 . S
C374 C375 1.363 . S
C374 C379 1.379 . S
C374 N381 1.356 . S
C375 C374 1.363 . S
C375 C378 1.363 . S
N376 C378 1.356 . S
N376 H388 0.984 . S
N376 H389 0.985 . S
N377 C379 1.356 . S
N377 H382 0.984 . S
N377 H383 0.985 . S
C378 C372 1.379 . S
C378 C375 1.363 . S
C378 N376 1.356 . S
C379 C373 1.363 . S
C379 C374 1.379 . S
C379 N377 1.356 . S
N380 C372 1.356 . S
N380 H386 0.984 . S
N380 H387 0.984 . S
N381 C374 1.356 . S
N381 H384 0.984 . S
N381 H385 0.985 . S
H382 N377 0.984 . S
H383 N377 0.985 . S
H384 N381 0.984 . S
H385 N381 0.985 . S
H386 N380 0.984 . S
H387 N380 0.984 . S
H388 N376 0.984 . S
H389 N376 0.985 . S
C390 C391 1.363 . S
C390 C396 1.379 . S
C390 N398 1.356 . S
C391 C390 1.363 . S
C391 C397 1.363 . S
C392 C393 1.363 . S
C392 C397 1.379 . S
C392 N399 1.356 . S
C393 C392 1.363 . S
C393 C396 1.363 . S
N394 C396 1.356 . S
N394 H406 0.984 . S
N394 H407 0.985 . S
N395 C397 1.356 . S
N395 H400 0.984 . S
N395 H401 0.985 . S
C396 C390 1.379 . S
C396 C393 1.363 . S
C396 N394 1.356 . S
C397 C391 1.363 . S
C397 C392 1.379 . S
C397 N395 1.356 . S
N398 C390 1.356 . S
N398 H404 0.984 . S
N398 H405 0.984 . S
N399 C392 1.356 . S
N399 H402 0.984 . S
N399 H403 0.985 . S
H400 N395 0.984 . S
H401 N395 0.985 . S
H402 N399 0.984 . S
H403 N399 0.985 . S
H404 N398 0.984 . S
H405 N398 0.984 . S
H406 N394 0.984 . S
H407 N394 0.985 . S
C408 C409 1.363 . S
C408 C414 1.379 . S
C408 N416 1.356 . S
C409 C408 1.363 . S
C409 C415 1.363 . S
C410 C411 1.363 . S
C410 C415 1.379 . S
C410 N417 1.356 . S
C411 C410 1.363 . S
C411 C414 1.363 . S
N412 C414 1.356 . S
N412 H424 0.984 . S
N412 H425 0.985 . S
N413 C415 1.356 . S
N413 H418 0.984 . S
N413 H419 0.985 . S
C414 C408 1.379 . S
C414 C411 1.363 . S
C414 N412 1.356 . S
C415 C409 1.363 . S
C415 C410 1.379 . S
C415 N413 1.356 . S
N416 C408 1.356 . S
N416 H422 0.984 . S
N416 H423 0.984 . S
N417 C410 1.356 . S
N417 H420 0.984 . S
N417 H421 0.985 . S
H418 N413 0.984 . S
H419 N413 0.985 . S
H420 N417 0.984 . S
H421 N417 0.985 . S
H422 N416 0.984 . S
H423 N416 0.984 . S
H424 N412 0.984 . S
H425 N412 0.985 . S
C426 C427 1.363 . S
C426 C432 1.379 . S
C426 N434 1.356 . S
C427 C426 1.363 . S
C427 C433 1.363 . S
C428 C429 1.363 . S
C428 C433 1.379 . S
C428 N435 1.356 . S
C429 C428 1.363 . S
C429 C432 1.363 . S
N430 C432 1.356 . S
N430 H442 0.984 . S
N430 H443 0.985 . S
N431 C433 1.356 . S
N431 H436 0.984 . S
N431 H437 0.985 . S
C432 C426 1.379 . S
C432 C429 1.363 . S
C432 N430 1.356 . S
C433 C427 1.363 . S
C433 C428 1.379 . S
C433 N431 1.356 . S
N434 C426 1.356 . S
N434 H440 0.984 . S
N434 H441 0.984 . S
N435 C428 1.356 . S
N435 H438 0.984 . S
N435 H439 0.985 . S
H436 N431 0.984 . S
H437 N431 0.985 . S
H438 N435 0.984 . S
H439 N435 0.985 . S
H440 N434 0.984 . S
H441 N434 0.984 . S
H442 N430 0.984 . S
H443 N430 0.985 . S
C444 C445 1.363 . S
C444 C450 1.379 . S
C444 N452 1.356 . S
C445 C444 1.363 . S
C445 C451 1.363 . S
C446 C447 1.363 . S
C446 C451 1.379 . S
C446 N453 1.356 . S
C447 C446 1.363 . S
C447 C450 1.363 . S
N448 C450 1.356 . S
N448 H460 0.984 . S
N448 H461 0.985 . S
N449 C451 1.356 . S
N449 H454 0.984 . S
N449 H455 0.985 . S
C450 C444 1.379 . S
C450 C447 1.363 . S
C450 N448 1.356 . S
C451 C445 1.363 . S
C451 C446 1.379 . S
C451 N449 1.356 . S
N452 C444 1.356 . S
N452 H458 0.984 . S
N452 H459 0.984 . S
N453 C446 1.356 . S
N453 H456 0.984 . S
N453 H457 0.985 . S
H454 N449 0.984 . S
H455 N449 0.985 . S
H456 N453 0.984 . S
H457 N453 0.985 . S
H458 N452 0.984 . S
H459 N452 0.984 . S
H460 N448 0.984 . S
H461 N448 0.985 . S
C462 C463 1.363 . S
C462 C468 1.379 . S
C462 N470 1.356 . S
C463 C462 1.363 . S
C463 C469 1.363 . S
C464 C465 1.363 . S
C464 C469 1.379 . S
C464 N471 1.356 . S
C465 C464 1.363 . S
C465 C468 1.363 . S
N466 C468 1.356 . S
N466 H478 0.984 . S
N466 H479 0.985 . S
N467 C469 1.356 . S
N467 H472 0.984 . S
N467 H473 0.985 . S
C468 C462 1.379 . S
C468 C465 1.363 . S
C468 N466 1.356 . S
C469 C463 1.363 . S
C469 C464 1.379 . S
C469 N467 1.356 . S
N470 C462 1.356 . S
N470 H476 0.984 . S
N470 H477 0.984 . S
N471 C464 1.356 . S
N471 H474 0.984 . S
N471 H475 0.985 . S
H472 N467 0.984 . S
H473 N467 0.985 . S
H474 N471 0.984 . S
H475 N471 0.985 . S
H476 N470 0.984 . S
H477 N470 0.984 . S
H478 N466 0.984 . S
H479 N466 0.985 . S
C480 C481 1.363 . S
C480 C486 1.379 . S
C480 N488 1.356 . S
C481 C480 1.363 . S
C481 C487 1.363 . S
C482 C483 1.363 . S
C482 C487 1.379 . S
C482 N489 1.356 . S
C483 C482 1.363 . S
C483 C486 1.363 . S
N484 C486 1.356 . S
N484 H496 0.984 . S
N484 H497 0.985 . S
N485 C487 1.356 . S
N485 H490 0.984 . S
N485 H491 0.985 . S
C486 C480 1.379 . S
C486 C483 1.363 . S
C486 N484 1.356 . S
C487 C481 1.363 . S
C487 C482 1.379 . S
C487 N485 1.356 . S
N488 C480 1.356 . S
N488 H494 0.984 . S
N488 H495 0.984 . S
N489 C482 1.356 . S
N489 H492 0.984 . S
N489 H493 0.985 . S
H490 N485 0.984 . S
H491 N485 0.985 . S
H492 N489 0.984 . S
H493 N489 0.985 . S
H494 N488 0.984 . S
H495 N488 0.984 . S
H496 N484 0.984 . S
H497 N484 0.985 . S
C498 C499 1.363 . S
C498 C504 1.379 . S
C498 N506 1.356 . S
C499 C498 1.363 . S
C499 C505 1.363 . S
C500 C501 1.363 . S
C500 C505 1.379 . S
C500 N507 1.356 . S
C501 C500 1.363 . S
C501 C504 1.363 . S
N502 C504 1.356 . S
N502 H514 0.984 . S
N502 H515 0.985 . S
N503 C505 1.356 . S
N503 H508 0.984 . S
N503 H509 0.985 . S
C504 C498 1.379 . S
C504 C501 1.363 . S
C504 N502 1.356 . S
C505 C499 1.363 . S
C505 C500 1.379 . S
C505 N503 1.356 . S
N506 C498 1.356 . S
N506 H512 0.984 . S
N506 H513 0.984 . S
N507 C500 1.356 . S
N507 H510 0.984 . S
N507 H511 0.985 . S
H508 N503 0.984 . S
H509 N503 0.985 . S
H510 N507 0.984 . S
H511 N507 0.985 . S
H512 N506 0.984 . S
H513 N506 0.984 . S
H514 N502 0.984 . S
H515 N502 0.985 . S
C516 C517 1.363 . S
C516 C522 1.379 . S
C516 N524 1.356 . S
C517 C516 1.363 . S
C517 C523 1.363 . S
C518 C519 1.363 . S
C518 C523 1.379 . S
C518 N525 1.356 . S
C519 C518 1.363 . S
C519 C522 1.363 . S
N520 C522 1.356 . S
N520 H532 0.984 . S
N520 H533 0.985 . S
N521 C523 1.356 . S
N521 H526 0.984 . S
N521 H527 0.985 . S
C522 C516 1.379 . S
C522 C519 1.363 . S
C522 N520 1.356 . S
C523 C517 1.363 . S
C523 C518 1.379 . S
C523 N521 1.356 . S
N524 C516 1.356 . S
N524 H530 0.984 . S
N524 H531 0.984 . S
N525 C518 1.356 . S
N525 H528 0.984 . S
N525 H529 0.985 . S
H526 N521 0.984 . S
H527 N521 0.985 . S
H528 N525 0.984 . S
H529 N525 0.985 . S
H530 N524 0.984 . S
H531 N524 0.984 . S
H532 N520 0.984 . S
H533 N520 0.985 . S
C534 C535 1.363 . S
C534 C540 1.379 . S
C534 N542 1.356 . S
C535 C534 1.363 . S
C535 C541 1.363 . S
C536 C537 1.363 . S
C536 C541 1.379 . S
C536 N543 1.356 . S
C537 C536 1.363 . S
C537 C540 1.363 . S
N538 C540 1.356 . S
N538 H550 0.984 . S
N538 H551 0.985 . S
N539 C541 1.356 . S
N539 H544 0.984 . S
N539 H545 0.985 . S
C540 C534 1.379 . S
C540 C537 1.363 . S
C540 N538 1.356 . S
C541 C535 1.363 . S
C541 C536 1.379 . S
C541 N539 1.356 . S
N542 C534 1.356 . S
N542 H548 0.984 . S
N542 H549 0.984 . S
N543 C536 1.356 . S
N543 H546 0.984 . S
N543 H547 0.985 . S
H544 N539 0.984 . S
H545 N539 0.985 . S
H546 N543 0.984 . S
H547 N543 0.985 . S
H548 N542 0.984 . S
H549 N542 0.984 . S
H550 N538 0.984 . S
H551 N538 0.985 . S
C552 C553 1.363 . S
C552 C558 1.379 . S
C552 N560 1.356 . S
C553 C552 1.363 . S
C553 C559 1.363 . S
C554 C555 1.363 . S
C554 C559 1.379 . S
C554 N561 1.356 . S
C555 C554 1.363 . S
C555 C558 1.363 . S
N556 C558 1.356 . S
N556 H568 0.981 1_554 S
N556 H569 0.985 . S
N557 C559 1.356 . S
N557 H562 0.984 . S
N557 H563 0.985 . S
C558 C552 1.379 . S
C558 C555 1.363 . S
C558 N556 1.356 . S
C559 C553 1.363 . S
C559 C554 1.379 . S
C559 N557 1.356 . S
N560 C552 1.356 . S
N560 H566 0.981 1_554 S
N560 H567 0.984 . S
N561 C554 1.356 . S
N561 H564 0.984 . S
N561 H565 0.985 . S
H562 N557 0.984 . S
H563 N557 0.985 . S
H564 N561 0.984 . S
H565 N561 0.985 . S
H566 N560 0.981 1_556 S
H567 N560 0.984 . S
H568 N556 0.981 1_556 S
H569 N556 0.985 . S
C570 C571 1.363 . S
C570 C576 1.379 . S
C570 N578 1.356 . S
C571 C570 1.363 . S
C571 C577 1.363 . S
C572 C573 1.363 . S
C572 C577 1.379 . S
C572 N579 1.356 . S
C573 C572 1.363 . S
C573 C576 1.363 . S
N574 C576 1.356 . S
N574 H586 0.984 . S
N574 H587 0.985 . S
N575 C577 1.356 . S
N575 H580 0.984 . S
N575 H581 0.985 . S
C576 C570 1.379 . S
C576 C573 1.363 . S
C576 N574 1.356 . S
C577 C571 1.363 . S
C577 C572 1.379 . S
C577 N575 1.356 . S
N578 C570 1.356 . S
N578 H584 0.984 . S
N578 H585 0.984 . S
N579 C572 1.356 . S
N579 H582 0.984 . S
N579 H583 0.985 . S
H580 N575 0.984 . S
H581 N575 0.985 . S
H582 N579 0.984 . S
H583 N579 0.985 . S
H584 N578 0.984 . S
H585 N578 0.984 . S
H586 N574 0.984 . S
H587 N574 0.985 . S
C588 C589 1.363 . S
C588 C594 1.379 . S
C588 N596 1.356 . S
C589 C588 1.363 . S
C589 C595 1.363 . S
C590 C591 1.363 . S
C590 C595 1.379 . S
C590 N597 1.356 . S
C591 C590 1.363 . S
C591 C594 1.363 . S
N592 C594 1.356 . S
N592 H604 0.981 1_554 S
N592 H605 0.985 . S
N593 C595 1.356 . S
N593 H598 0.984 . S
N593 H599 0.985 . S
C594 C588 1.379 . S
C594 C591 1.363 . S
C594 N592 1.356 . S
C595 C589 1.363 . S
C595 C590 1.379 . S
C595 N593 1.356 . S
N596 C588 1.356 . S
N596 H602 0.981 1_554 S
N596 H603 0.984 . S
N597 C590 1.356 . S
N597 H600 0.984 . S
N597 H601 0.985 . S
H598 N593 0.984 . S
H599 N593 0.985 . S
H600 N597 0.984 . S
H601 N597 0.985 . S
H602 N596 0.981 1_556 S
H603 N596 0.984 . S
H604 N592 0.981 1_556 S
H605 N592 0.985 . S
C606 C607 1.363 . S
C606 C612 1.379 . S
C606 N614 1.356 . S
C607 C606 1.363 . S
C607 C613 1.363 . S
C608 C609 1.363 . S
C608 C613 1.379 . S
C608 N615 1.356 . S
C609 C608 1.363 . S
C609 C612 1.363 . S
N610 C612 1.356 . S
N610 H622 0.984 . S
N610 H623 0.985 . S
N611 C613 1.356 . S
N611 H616 0.984 . S
N611 H617 0.985 . S
C612 C606 1.379 . S
C612 C609 1.363 . S
C612 N610 1.356 . S
C613 C607 1.363 . S
C613 C608 1.379 . S
C613 N611 1.356 . S
N614 C606 1.356 . S
N614 H620 0.984 . S
N614 H621 0.984 . S
N615 C608 1.356 . S
N615 H618 0.984 . S
N615 H619 0.985 . S
H616 N611 0.984 . S
H617 N611 0.985 . S
H618 N615 0.984 . S
H619 N615 0.985 . S
H620 N614 0.984 . S
H621 N614 0.984 . S
H622 N610 0.984 . S
H623 N610 0.985 . S
C624 C625 1.363 . S
C624 C630 1.379 . S
C624 N632 1.356 . S
C625 C624 1.363 . S
C625 C631 1.363 . S
C626 C627 1.363 . S
C626 C631 1.379 . S
C626 N633 1.356 . S
C627 C626 1.363 . S
C627 C630 1.363 . S
N628 C630 1.356 . S
N628 H640 0.984 1_554 S
N628 H641 0.985 . S
N629 C631 1.356 . S
N629 H634 0.984 . S
N629 H635 0.985 . S
C630 C624 1.379 . S
C630 C627 1.363 . S
C630 N628 1.356 . S
C631 C625 1.363 . S
C631 C626 1.379 . S
C631 N629 1.356 . S
N632 C624 1.356 . S
N632 H638 0.984 1_554 S
N632 H639 0.984 . S
N633 C626 1.356 . S
N633 H636 0.984 . S
N633 H637 0.985 . S
H634 N629 0.984 . S
H635 N629 0.985 . S
H636 N633 0.984 . S
H637 N633 0.985 . S
H638 N632 0.984 1_556 S
H639 N632 0.984 . S
H640 N628 0.984 1_556 S
H641 N628 0.985 . S
C642 C643 1.363 . S
C642 C648 1.379 . S
C642 N650 1.356 . S
C643 C642 1.363 . S
C643 C649 1.363 . S
C644 C645 1.363 . S
C644 C649 1.379 . S
C644 N651 1.356 . S
C645 C644 1.363 . S
C645 C648 1.363 . S
N646 C648 1.356 . S
N646 H658 0.984 . S
N646 H659 0.985 . S
N647 C649 1.356 . S
N647 H652 0.984 . S
N647 H653 0.985 . S
C648 C642 1.379 . S
C648 C645 1.363 . S
C648 N646 1.356 . S
C649 C643 1.363 . S
C649 C644 1.379 . S
C649 N647 1.356 . S
N650 C642 1.356 . S
N650 H656 0.984 . S
N650 H657 0.984 . S
N651 C644 1.356 . S
N651 H654 0.984 . S
N651 H655 0.985 . S
H652 N647 0.984 . S
H653 N647 0.985 . S
H654 N651 0.984 . S
H655 N651 0.985 . S
H656 N650 0.984 . S
H657 N650 0.984 . S
H658 N646 0.984 . S
H659 N646 0.985 . S
C660 C661 1.363 . S
C660 C666 1.379 . S
C660 N668 1.356 . S
C661 C660 1.363 . S
C661 C667 1.363 . S
C662 C663 1.363 . S
C662 C667 1.379 . S
C662 N669 1.356 . S
C663 C662 1.363 . S
C663 C666 1.363 . S
N664 C666 1.356 . S
N664 H676 0.984 . S
N664 H677 0.985 . S
N665 C667 1.356 . S
N665 H670 0.984 . S
N665 H671 0.985 . S
C666 C660 1.379 . S
C666 C663 1.363 . S
C666 N664 1.356 . S
C667 C661 1.363 . S
C667 C662 1.379 . S
C667 N665 1.356 . S
N668 C660 1.356 . S
N668 H674 0.984 . S
N668 H675 0.984 . S
N669 C662 1.356 . S
N669 H672 0.984 . S
N669 H673 0.985 . S
H670 N665 0.984 . S
H671 N665 0.985 . S
H672 N669 0.984 . S
H673 N669 0.985 . S
H674 N668 0.984 . S
H675 N668 0.984 . S
H676 N664 0.984 . S
H677 N664 0.985 . S
C678 C679 1.363 . S
C678 C684 1.379 . S
C678 N686 1.356 . S
C679 C678 1.363 . S
C679 C685 1.363 . S
C680 C681 1.363 . S
C680 C685 1.379 . S
C680 N687 1.356 . S
C681 C680 1.363 . S
C681 C684 1.363 . S
N682 C684 1.356 . S
N682 H694 0.981 1_556 S
N682 H695 0.985 . S
N683 C685 1.356 . S
N683 H688 0.984 . S
N683 H689 0.985 . S
C684 C678 1.379 . S
C684 C681 1.363 . S
C684 N682 1.356 . S
C685 C679 1.363 . S
C685 C680 1.379 . S
C685 N683 1.356 . S
N686 C678 1.356 . S
N686 H692 0.981 1_556 S
N686 H693 0.984 . S
N687 C680 1.356 . S
N687 H690 0.984 . S
N687 H691 0.985 . S
H688 N683 0.984 . S
H689 N683 0.985 . S
H690 N687 0.984 . S
H691 N687 0.985 . S
H692 N686 0.981 1_554 S
H693 N686 0.984 . S
H694 N682 0.981 1_554 S
H695 N682 0.985 . S
C696 C697 1.363 . S
C696 C702 1.379 . S
C696 N704 1.356 . S
C697 C696 1.363 . S
C697 C703 1.363 . S
C698 C699 1.363 . S
C698 C703 1.379 . S
C698 N705 1.356 . S
C699 C698 1.363 . S
C699 C702 1.363 . S
N700 C702 1.356 . S
N700 H712 0.984 . S
N700 H713 0.985 . S
N701 C703 1.356 . S
N701 H706 0.984 . S
N701 H707 0.985 . S
C702 C696 1.379 . S
C702 C699 1.363 . S
C702 N700 1.356 . S
C703 C697 1.363 . S
C703 C698 1.379 . S
C703 N701 1.356 . S
N704 C696 1.356 . S
N704 H710 0.984 . S
N704 H711 0.984 . S
N705 C698 1.356 . S
N705 H708 0.984 . S
N705 H709 0.985 . S
H706 N701 0.984 . S
H707 N701 0.985 . S
H708 N705 0.984 . S
H709 N705 0.985 . S
H710 N704 0.984 . S
H711 N704 0.984 . S
H712 N700 0.984 . S
H713 N700 0.985 . S
C714 C715 1.363 . S
C714 C720 1.379 . S
C714 N722 1.356 . S
C715 C714 1.363 . S
C715 C721 1.363 . S
C716 C717 1.363 . S
C716 C721 1.379 . S
C716 N723 1.356 . S
C717 C716 1.363 . S
C717 C720 1.363 . S
N718 C720 1.356 . S
N718 H730 0.984 . S
N718 H731 0.985 . S
N719 C721 1.356 . S
N719 H724 0.984 . S
N719 H725 0.985 . S
C720 C714 1.379 . S
C720 C717 1.363 . S
C720 N718 1.356 . S
C721 C715 1.363 . S
C721 C716 1.379 . S
C721 N719 1.356 . S
N722 C714 1.356 . S
N722 H728 0.984 . S
N722 H729 0.984 . S
N723 C716 1.356 . S
N723 H726 0.984 . S
N723 H727 0.985 . S
H724 N719 0.984 . S
H725 N719 0.985 . S
H726 N723 0.984 . S
H727 N723 0.985 . S
H728 N722 0.984 . S
H729 N722 0.984 . S
H730 N718 0.984 . S
H731 N718 0.985 . S
C732 C733 1.363 . S
C732 C738 1.379 . S
C732 N740 1.356 . S
C733 C732 1.363 . S
C733 C739 1.363 . S
C734 C735 1.363 . S
C734 C739 1.379 . S
C734 N741 1.356 . S
C735 C734 1.363 . S
C735 C738 1.363 . S
N736 C738 1.356 . S
N736 H748 0.984 . S
N736 H749 0.985 . S
N737 C739 1.356 . S
N737 H742 0.984 . S
N737 H743 0.985 . S
C738 C732 1.379 . S
C738 C735 1.363 . S
C738 N736 1.356 . S
C739 C733 1.363 . S
C739 C734 1.379 . S
C739 N737 1.356 . S
N740 C732 1.356 . S
N740 H746 0.984 . S
N740 H747 0.984 . S
N741 C734 1.356 . S
N741 H744 0.984 . S
N741 H745 0.985 . S
H742 N737 0.984 . S
H743 N737 0.985 . S
H744 N741 0.984 . S
H745 N741 0.985 . S
H746 N740 0.984 . S
H747 N740 0.984 . S
H748 N736 0.984 . S
H749 N736 0.985 . S
C750 C751 1.363 . S
C750 C756 1.379 . S
C750 N758 1.356 . S
C751 C750 1.363 . S
C751 C757 1.363 . S
C752 C753 1.363 . S
C752 C757 1.379 . S
C752 N759 1.356 . S
C753 C752 1.363 . S
C753 C756 1.363 . S
N754 C756 1.356 . S
N754 H766 0.981 1_556 S
N754 H767 0.985 . S
N755 C757 1.356 . S
N755 H760 0.984 . S
N755 H761 0.985 . S
C756 C750 1.379 . S
C756 C753 1.363 . S
C756 N754 1.356 . S
C757 C751 1.363 . S
C757 C752 1.379 . S
C757 N755 1.356 . S
N758 C750 1.356 . S
N758 H764 0.981 1_556 S
N758 H765 0.984 . S
N759 C752 1.356 . S
N759 H762 0.984 . S
N759 H763 0.985 . S
H760 N755 0.984 . S
H761 N755 0.985 . S
H762 N759 0.984 . S
H763 N759 0.985 . S
H764 N758 0.981 1_554 S
H765 N758 0.984 . S
H766 N754 0.981 1_554 S
H767 N754 0.985 . S
C768 C769 1.363 1_554 S
C768 C774 1.379 1_565 S
C768 N776 1.356 . S
C769 C768 1.363 1_556 S
C769 C775 1.363 . S
C770 C771 1.363 1_556 S
C770 C775 1.379 1_545 S
C770 N777 1.356 . S
C771 C770 1.363 1_554 S
C771 C774 1.363 . S
N772 C774 1.356 . S
N772 H784 0.982 1_545 S
N772 H785 0.985 . S
N773 C775 1.356 . S
N773 H778 0.984 . S
N773 H779 0.982 1_565 S
C774 C768 1.379 1_545 S
C774 C771 1.363 . S
C774 N772 1.356 . S
C775 C769 1.363 . S
C775 C770 1.379 1_565 S
C775 N773 1.356 . S
N776 C768 1.356 . S
N776 H782 0.984 . S
N776 H783 0.984 1_554 S
N777 C770 1.356 . S
N777 H780 0.984 1_556 S
N777 H781 0.985 . S
H778 N773 0.984 . S
H779 N773 0.982 1_545 S
H780 N777 0.984 1_554 S
H781 N777 0.985 . S
H782 N776 0.984 . S
H783 N776 0.984 1_556 S
H784 N772 0.982 1_565 S
H785 N772 0.985 . S
C786 C787 1.363 . S
C786 C792 1.379 . S
C786 N794 1.356 . S
C787 C786 1.363 . S
C787 C793 1.363 . S
C788 C789 1.363 . S
C788 C793 1.379 . S
C788 N795 1.356 . S
C789 C788 1.363 . S
C789 C792 1.363 . S
N790 C792 1.356 . S
N790 H802 0.984 . S
N790 H803 0.985 . S
N791 C793 1.356 . S
N791 H796 0.984 . S
N791 H797 0.985 . S
C792 C786 1.379 . S
C792 C789 1.363 . S
C792 N790 1.356 . S
C793 C787 1.363 . S
C793 C788 1.379 . S
C793 N791 1.356 . S
N794 C786 1.356 . S
N794 H800 0.984 . S
N794 H801 0.984 . S
N795 C788 1.356 . S
N795 H798 0.984 . S
N795 H799 0.985 . S
H796 N791 0.984 . S
H797 N791 0.985 . S
H798 N795 0.984 . S
H799 N795 0.985 . S
H800 N794 0.984 . S
H801 N794 0.984 . S
H802 N790 0.984 . S
H803 N790 0.985 . S
C804 C805 1.363 1_554 S
C804 C810 1.379 . S
C804 N812 1.356 . S
C805 C804 1.363 1_556 S
C805 C811 1.363 1_455 S
C806 C807 1.363 1_556 S
C806 C811 1.379 . S
C806 N813 1.356 . S
C807 C806 1.363 1_554 S
C807 C810 1.363 1_655 S
N808 C810 1.356 1_655 S
N808 H820 0.984 1_655 S
N808 H821 0.985 . S
N809 C811 1.356 1_455 S
N809 H814 0.984 . S
N809 H815 0.985 1_455 S
C810 C804 1.379 . S
C810 C807 1.363 1_455 S
C810 N808 1.356 1_455 S
C811 C805 1.363 1_655 S
C811 C806 1.379 . S
C811 N809 1.356 1_655 S
N812 C804 1.356 . S
N812 H818 0.984 . S
N812 H819 0.984 1_554 S
N813 C806 1.356 . S
N813 H816 0.984 1_556 S
N813 H817 0.985 . S
H814 N809 0.984 . S
H815 N809 0.985 1_655 S
H816 N813 0.984 1_554 S
H817 N813 0.985 . S
H818 N812 0.984 . S
H819 N812 0.984 1_556 S
H820 N808 0.984 1_455 S
H821 N808 0.985 . S
C822 C823 1.363 . S
C822 C828 1.379 1_545 S
C822 N830 1.356 . S
C823 C822 1.363 . S
C823 C829 1.363 . S
C824 C825 1.363 . S
C824 C829 1.379 1_565 S
C824 N831 1.356 . S
C825 C824 1.363 . S
C825 C828 1.363 . S
N826 C828 1.356 . S
N826 H838 0.968 1_565 S
N826 H839 0.985 . S
N827 C829 1.356 . S
N827 H832 0.984 . S
N827 H833 0.968 1_545 S
C828 C822 1.379 1_565 S
C828 C825 1.363 . S
C828 N826 1.356 . S
C829 C823 1.363 . S
C829 C824 1.379 1_545 S
C829 N827 1.356 . S
N830 C822 1.356 . S
N830 H836 0.984 . S
N830 H837 0.984 . S
N831 C824 1.356 . S
N831 H834 0.984 . S
N831 H835 0.985 . S
H832 N827 0.984 . S
H833 N827 0.968 1_565 S
H834 N831 0.984 . S
H835 N831 0.985 . S
H836 N830 0.984 . S
H837 N830 0.984 . S
H838 N826 0.968 1_545 S
H839 N826 0.985 . S
C840 C841 1.363 . S
C840 C846 1.379 . S
C840 N848 1.356 . S
C841 C840 1.363 . S
C841 C847 1.363 1_554 S
C842 C843 1.363 . S
C842 C847 1.379 . S
C842 N849 1.356 . S
C843 C842 1.363 . S
C843 C846 1.363 1_556 S
N844 C846 1.356 . S
N844 H856 0.984 . S
N844 H857 0.985 1_554 S
N845 C847 1.356 . S
N845 H850 0.984 1_556 S
N845 H851 0.985 . S
C846 C840 1.379 . S
C846 C843 1.363 1_554 S
C846 N844 1.356 . S
C847 C841 1.363 1_556 S
C847 C842 1.379 . S
C847 N845 1.356 . S
N848 C840 1.356 . S
N848 H854 0.984 . S
N848 H855 0.984 . S
N849 C842 1.356 . S
N849 H852 0.984 . S
N849 H853 0.985 . S
H850 N845 0.984 1_554 S
H851 N845 0.985 . S
H852 N849 0.984 . S
H853 N849 0.985 . S
H854 N848 0.984 . S
H855 N848 0.984 . S
H856 N844 0.984 . S
H857 N844 0.985 1_556 S
C858 C859 1.363 . S
C858 C864 1.379 1_455 S
C858 N866 1.356 . S
C859 C858 1.363 . S
C859 C865 1.363 . S
C860 C861 1.363 . S
C860 C865 1.379 1_655 S
C860 N867 1.356 . S
C861 C860 1.363 . S
C861 C864 1.363 . S
N862 C864 1.356 . S
N862 H874 0.984 . S
N862 H875 0.985 . S
N863 C865 1.356 . S
N863 H868 0.984 . S
N863 H869 0.985 . S
C864 C858 1.379 1_655 S
C864 C861 1.363 . S
C864 N862 1.356 . S
C865 C859 1.363 . S
C865 C860 1.379 1_455 S
C865 N863 1.356 . S
N866 C858 1.356 . S
N866 H872 0.984 . S
N866 H873 0.984 . S
N867 C860 1.356 . S
N867 H870 0.984 . S
N867 H871 0.985 . S
H868 N863 0.984 . S
H869 N863 0.985 . S
H870 N867 0.984 . S
H871 N867 0.985 . S
H872 N866 0.984 . S
H873 N866 0.984 . S
H874 N862 0.984 . S
H875 N862 0.985 . S
C876 C877 1.363 . S
C876 C882 1.379 1_566 S
C876 N884 1.356 . S
C877 C876 1.363 . S
C877 C883 1.363 . S
C878 C879 1.363 . S
C878 C883 1.379 1_544 S
C878 N885 1.356 . S
C879 C878 1.363 . S
C879 C882 1.363 . S
N880 C882 1.356 . S
N880 H892 0.984 . S
N880 H893 0.985 . S
N881 C883 1.356 . S
N881 H886 0.984 . S
N881 H887 0.985 . S
C882 C876 1.379 1_544 S
C882 C879 1.363 . S
C882 N880 1.356 . S
C883 C877 1.363 . S
C883 C878 1.379 1_566 S
C883 N881 1.356 . S
N884 C876 1.356 . S
N884 H890 0.984 . S
N884 H891 0.984 . S
N885 C878 1.356 . S
N885 H888 0.984 . S
N885 H889 0.985 . S
H886 N881 0.984 . S
H887 N881 0.985 . S
H888 N885 0.984 . S
H889 N885 0.985 . S
H890 N884 0.984 . S
H891 N884 0.984 . S
H892 N880 0.984 . S
H893 N880 0.985 . S
C894 C895 1.363 . S
C894 C900 1.379 . S
C894 N902 1.356 . S
C895 C894 1.363 . S
C895 C901 1.363 . S
C896 C897 1.363 . S
C896 C901 1.379 . S
C896 N903 1.356 . S
C897 C896 1.363 . S
C897 C900 1.363 . S
N898 C900 1.356 . S
N898 H910 0.984 . S
N898 H911 0.985 . S
N899 C901 1.356 . S
N899 H904 0.984 . S
N899 H905 0.985 . S
C900 C894 1.379 . S
C900 C897 1.363 . S
C900 N898 1.356 . S
C901 C895 1.363 . S
C901 C896 1.379 . S
C901 N899 1.356 . S
N902 C894 1.356 . S
N902 H908 0.984 . S
N902 H909 0.984 . S
N903 C896 1.356 . S
N903 H906 0.984 . S
N903 H907 0.985 . S
H904 N899 0.984 . S
H905 N899 0.985 . S
H906 N903 0.984 . S
H907 N903 0.985 . S
H908 N902 0.984 . S
H909 N902 0.984 . S
H910 N898 0.984 . S
H911 N898 0.985 . S
C912 C913 1.363 1_455 S
C912 C918 1.379 . S
C912 N920 1.356 1_455 S
C913 C912 1.363 1_655 S
C913 C919 1.363 1_554 S
C914 C915 1.363 1_655 S
C914 C919 1.379 . S
C914 N921 1.356 1_655 S
C915 C914 1.363 1_455 S
C915 C918 1.363 1_556 S
N916 C918 1.356 . S
N916 H928 0.984 . S
N916 H929 0.985 1_554 S
N917 C919 1.356 . S
N917 H922 0.984 1_556 S
N917 H923 0.985 . S
C918 C912 1.379 . S
C918 C915 1.363 1_554 S
C918 N916 1.356 . S
C919 C913 1.363 1_556 S
C919 C914 1.379 . S
C919 N917 1.356 . S
N920 C912 1.356 1_655 S
N920 H926 0.984 1_655 S
N920 H927 0.984 . S
N921 C914 1.356 1_455 S
N921 H924 0.984 . S
N921 H925 0.985 1_455 S
H922 N917 0.984 1_554 S
H923 N917 0.985 . S
H924 N921 0.984 . S
H925 N921 0.985 1_655 S
H926 N920 0.984 1_455 S
H927 N920 0.984 . S
H928 N916 0.984 . S
H929 N916 0.985 1_556 S
C930 C931 1.363 . S
C930 C936 1.379 1_565 S
C930 N938 1.356 . S
C931 C930 1.363 . S
C931 C937 1.363 . S
C932 C933 1.363 . S
C932 C937 1.379 1_545 S
C932 N939 1.356 . S
C933 C932 1.363 . S
C933 C936 1.363 . S
N934 C936 1.356 . S
N934 H946 0.984 . S
N934 H947 0.985 . S
N935 C937 1.356 . S
N935 H940 0.984 . S
N935 H941 0.985 . S
C936 C930 1.379 1_545 S
C936 C933 1.363 . S
C936 N934 1.356 . S
C937 C931 1.363 . S
C937 C932 1.379 1_565 S
C937 N935 1.356 . S
N938 C930 1.356 . S
N938 H944 0.984 . S
N938 H945 0.984 . S
N939 C932 1.356 . S
N939 H942 0.984 . S
N939 H943 0.985 . S
H940 N935 0.984 . S
H941 N935 0.985 . S
H942 N939 0.984 . S
H943 N939 0.985 . S
H944 N938 0.984 . S
H945 N938 0.984 . S
H946 N934 0.984 . S
H947 N934 0.985 . S
C948 C949 1.363 1_556 S
C948 C954 1.379 . S
C948 N956 1.356 . S
C949 C948 1.363 1_554 S
C949 C955 1.363 . S
C950 C951 1.363 1_554 S
C950 C955 1.379 . S
C950 N957 1.356 . S
C951 C950 1.363 1_556 S
C951 C954 1.363 . S
N952 C954 1.356 . S
N952 H964 0.984 . S
N952 H965 0.985 . S
N953 C955 1.356 . S
N953 H958 0.984 . S
N953 H959 0.985 . S
C954 C948 1.379 . S
C954 C951 1.363 . S
C954 N952 1.356 . S
C955 C949 1.363 . S
C955 C950 1.379 . S
C955 N953 1.356 . S
N956 C948 1.356 . S
N956 H962 0.984 . S
N956 H963 0.984 1_556 S
N957 C950 1.356 . S
N957 H960 0.984 1_554 S
N957 H961 0.985 . S
H958 N953 0.984 . S
H959 N953 0.985 . S
H960 N957 0.984 1_556 S
H961 N957 0.985 . S
H962 N956 0.984 . S
H963 N956 0.984 1_554 S
H964 N952 0.984 . S
H965 N952 0.985 . S
C966 C967 1.363 . S
C966 C972 1.379 1_455 S
C966 N974 1.356 . S
C967 C966 1.363 . S
C967 C973 1.363 . S
C968 C969 1.363 . S
C968 C973 1.379 1_655 S
C968 N975 1.356 . S
C969 C968 1.363 . S
C969 C972 1.363 . S
N970 C972 1.356 . S
N970 H982 0.984 . S
N970 H983 0.985 . S
N971 C973 1.356 . S
N971 H976 0.984 . S
N971 H977 0.985 . S
C972 C966 1.379 1_655 S
C972 C969 1.363 . S
C972 N970 1.356 . S
C973 C967 1.363 . S
C973 C968 1.379 1_455 S
C973 N971 1.356 . S
N974 C966 1.356 . S
N974 H980 0.984 1_455 S
N974 H981 0.984 . S
N975 C968 1.356 . S
N975 H978 0.984 . S
N975 H979 0.985 1_655 S
H976 N971 0.984 . S
H977 N971 0.985 . S
H978 N975 0.984 . S
H979 N975 0.985 1_455 S
H980 N974 0.984 1_655 S
H981 N974 0.984 . S
H982 N970 0.984 . S
H983 N970 0.985 . S
C984 C985 1.363 . S
C984 C990 1.379 . S
C984 N992 1.356 . S
C985 C984 1.363 . S
C985 C991 1.363 . S
C986 C987 1.363 . S
C986 C991 1.379 . S
C986 N993 1.356 . S
C987 C986 1.363 . S
C987 C990 1.363 . S
N988 C990 1.356 . S
N988 H1000 0.984 . S
N988 H1001 0.985 . S
N989 C991 1.356 . S
N989 H994 0.984 . S
N989 H995 0.985 . S
C990 C984 1.379 . S
C990 C987 1.363 . S
C990 N988 1.356 . S
C991 C985 1.363 . S
C991 C986 1.379 . S
C991 N989 1.356 . S
N992 C984 1.356 . S
N992 H998 0.984 . S
N992 H999 0.984 . S
N993 C986 1.356 . S
N993 H996 0.984 . S
N993 H997 0.985 . S
H994 N989 0.984 . S
H995 N989 0.985 . S
H996 N993 0.984 . S
H997 N993 0.985 . S
H998 N992 0.984 . S
H999 N992 0.984 . S
H1000 N988 0.984 . S
H1001 N988 0.985 . S
C1002 C1003 1.363 . S
C1002 C1008 1.379 . S
C1002 N1010 1.356 . S
C1003 C1002 1.363 . S
C1003 C1009 1.363 . S
C1004 C1005 1.363 . S
C1004 C1009 1.379 . S
C1004 N1011 1.356 . S
C1005 C1004 1.363 . S
C1005 C1008 1.363 . S
N1006 C1008 1.356 . S
N1006 H1018 0.984 . S
N1006 H1019 0.985 . S
N1007 C1009 1.356 . S
N1007 H1012 0.984 . S
N1007 H1013 0.985 . S
C1008 C1002 1.379 . S
C1008 C1005 1.363 . S
C1008 N1006 1.356 . S
C1009 C1003 1.363 . S
C1009 C1004 1.379 . S
C1009 N1007 1.356 . S
N1010 C1002 1.356 . S
N1010 H1016 0.984 . S
N1010 H1017 0.984 . S
N1011 C1004 1.356 . S
N1011 H1014 0.984 . S
N1011 H1015 0.985 . S
H1012 N1007 0.984 . S
H1013 N1007 0.985 . S
H1014 N1011 0.984 . S
H1015 N1011 0.985 . S
H1016 N1010 0.984 . S
H1017 N1010 0.984 . S
H1018 N1006 0.984 . S
H1019 N1006 0.985 . S
C1020 C1021 1.363 . S
C1020 C1026 1.379 . S
C1020 N1028 1.356 . S
C1021 C1020 1.363 . S
C1021 C1027 1.363 . S
C1022 C1023 1.363 . S
C1022 C1027 1.379 . S
C1022 N1029 1.356 . S
C1023 C1022 1.363 . S
C1023 C1026 1.363 . S
N1024 C1026 1.356 . S
N1024 H1036 0.984 . S
N1024 H1037 0.985 . S
N1025 C1027 1.356 . S
N1025 H1030 0.984 . S
N1025 H1031 0.985 . S
C1026 C1020 1.379 . S
C1026 C1023 1.363 . S
C1026 N1024 1.356 . S
C1027 C1021 1.363 . S
C1027 C1022 1.379 . S
C1027 N1025 1.356 . S
N1028 C1020 1.356 . S
N1028 H1034 0.984 . S
N1028 H1035 0.984 . S
N1029 C1022 1.356 . S
N1029 H1032 0.984 . S
N1029 H1033 0.985 . S
H1030 N1025 0.984 . S
H1031 N1025 0.985 . S
H1032 N1029 0.984 . S
H1033 N1029 0.985 . S
H1034 N1028 0.984 . S
H1035 N1028 0.984 . S
H1036 N1024 0.984 . S
H1037 N1024 0.985 . S
C1038 C1039 1.363 . S
C1038 C1044 1.379 . S
C1038 N1046 1.356 . S
C1039 C1038 1.363 . S
C1039 C1045 1.363 . S
C1040 C1041 1.363 . S
C1040 C1045 1.379 . S
C1040 N1047 1.356 . S
C1041 C1040 1.363 . S
C1041 C1044 1.363 . S
N1042 C1044 1.356 . S
N1042 H1054 0.984 . S
N1042 H1055 0.985 . S
N1043 C1045 1.356 . S
N1043 H1048 0.984 . S
N1043 H1049 0.985 . S
C1044 C1038 1.379 . S
C1044 C1041 1.363 . S
C1044 N1042 1.356 . S
C1045 C1039 1.363 . S
C1045 C1040 1.379 . S
C1045 N1043 1.356 . S
N1046 C1038 1.356 . S
N1046 H1052 0.984 . S
N1046 H1053 0.984 . S
N1047 C1040 1.356 . S
N1047 H1050 0.984 . S
N1047 H1051 0.985 . S
H1048 N1043 0.984 . S
H1049 N1043 0.985 . S
H1050 N1047 0.984 . S
H1051 N1047 0.985 . S
H1052 N1046 0.984 . S
H1053 N1046 0.984 . S
H1054 N1042 0.984 . S
H1055 N1042 0.985 . S
C1056 C1057 1.363 . S
C1056 C1062 1.379 . S
C1056 N1064 1.356 . S
C1057 C1056 1.363 . S
C1057 C1063 1.363 . S
C1058 C1059 1.363 . S
C1058 C1063 1.379 . S
C1058 N1065 1.356 . S
C1059 C1058 1.363 . S
C1059 C1062 1.363 . S
N1060 C1062 1.356 . S
N1060 H1072 0.984 . S
N1060 H1073 0.985 . S
N1061 C1063 1.356 . S
N1061 H1066 0.984 . S
N1061 H1067 0.985 . S
C1062 C1056 1.379 . S
C1062 C1059 1.363 . S
C1062 N1060 1.356 . S
C1063 C1057 1.363 . S
C1063 C1058 1.379 . S
C1063 N1061 1.356 . S
N1064 C1056 1.356 . S
N1064 H1070 0.984 . S
N1064 H1071 0.984 . S
N1065 C1058 1.356 . S
N1065 H1068 0.984 . S
N1065 H1069 0.985 . S
H1066 N1061 0.984 . S
H1067 N1061 0.985 . S
H1068 N1065 0.984 . S
H1069 N1065 0.985 . S
H1070 N1064 0.984 . S
H1071 N1064 0.984 . S
H1072 N1060 0.984 . S
H1073 N1060 0.985 . S
C1074 C1075 1.363 . S
C1074 C1080 1.379 . S
C1074 N1082 1.356 . S
C1075 C1074 1.363 . S
C1075 C1081 1.363 . S
C1076 C1077 1.363 . S
C1076 C1081 1.379 . S
C1076 N1083 1.356 . S
C1077 C1076 1.363 . S
C1077 C1080 1.363 . S
N1078 C1080 1.356 . S
N1078 H1090 0.984 . S
N1078 H1091 0.985 . S
N1079 C1081 1.356 . S
N1079 H1084 0.984 . S
N1079 H1085 0.985 . S
C1080 C1074 1.379 . S
C1080 C1077 1.363 . S
C1080 N1078 1.356 . S
C1081 C1075 1.363 . S
C1081 C1076 1.379 . S
C1081 N1079 1.356 . S
N1082 C1074 1.356 . S
N1082 H1088 0.984 . S
N1082 H1089 0.984 . S
N1083 C1076 1.356 . S
N1083 H1086 0.984 . S
N1083 H1087 0.985 . S
H1084 N1079 0.984 . S
H1085 N1079 0.985 . S
H1086 N1083 0.984 . S
H1087 N1083 0.985 . S
H1088 N1082 0.984 . S
H1089 N1082 0.984 . S
H1090 N1078 0.984 . S
H1091 N1078 0.985 . S
C1092 C1093 1.363 . S
C1092 C1098 1.379 . S
C1092 N1100 1.356 . S
C1093 C1092 1.363 . S
C1093 C1099 1.363 . S
C1094 C1095 1.363 . S
C1094 C1099 1.379 . S
C1094 N1101 1.356 . S
C1095 C1094 1.363 . S
C1095 C1098 1.363 . S
N1096 C1098 1.356 . S
N1096 H1108 0.984 . S
N1096 H1109 0.985 . S
N1097 C1099 1.356 . S
N1097 H1102 0.984 . S
N1097 H1103 0.985 . S
C1098 C1092 1.379 . S
C1098 C1095 1.363 . S
C1098 N1096 1.356 . S
C1099 C1093 1.363 . S
C1099 C1094 1.379 . S
C1099 N1097 1.356 . S
N1100 C1092 1.356 . S
N1100 H1106 0.984 . S
N1100 H1107 0.984 . S
N1101 C1094 1.356 . S
N1101 H1104 0.984 . S
N1101 H1105 0.985 . S
H1102 N1097 0.984 . S
H1103 N1097 0.985 . S
H1104 N1101 0.984 . S
H1105 N1101 0.985 . S
H1106 N1100 0.984 . S
H1107 N1100 0.984 . S
H1108 N1096 0.984 . S
H1109 N1096 0.985 . S
C1110 C1111 1.363 . S
C1110 C1116 1.379 . S
C1110 N1118 1.356 . S
C1111 C1110 1.363 . S
C1111 C1117 1.363 . S
C1112 C1113 1.363 . S
C1112 C1117 1.379 . S
C1112 N1119 1.356 . S
C1113 C1112 1.363 . S
C1113 C1116 1.363 . S
N1114 C1116 1.356 . S
N1114 H1126 0.984 . S
N1114 H1127 0.985 . S
N1115 C1117 1.356 . S
N1115 H1120 0.984 . S
N1115 H1121 0.985 . S
C1116 C1110 1.379 . S
C1116 C1113 1.363 . S
C1116 N1114 1.356 . S
C1117 C1111 1.363 . S
C1117 C1112 1.379 . S
C1117 N1115 1.356 . S
N1118 C1110 1.356 . S
N1118 H1124 0.984 . S
N1118 H1125 0.984 . S
N1119 C1112 1.356 . S
N1119 H1122 0.984 . S
N1119 H1123 0.985 . S
H1120 N1115 0.984 . S
H1121 N1115 0.985 . S
H1122 N1119 0.984 . S
H1123 N1119 0.985 . S
H1124 N1118 0.984 . S
H1125 N1118 0.984 . S
H1126 N1114 0.984 . S
H1127 N1114 0.985 . S
C1128 C1129 1.363 . S
C1128 C1134 1.379 . S
C1128 N1136 1.356 . S
C1129 C1128 1.363 . S
C1129 C1135 1.363 . S
C1130 C1131 1.363 . S
C1130 C1135 1.379 . S
C1130 N1137 1.356 . S
C1131 C1130 1.363 . S
C1131 C1134 1.363 . S
N1132 C1134 1.356 . S
N1132 H1144 0.984 . S
N1132 H1145 0.985 . S
N1133 C1135 1.356 . S
N1133 H1138 0.984 . S
N1133 H1139 0.985 . S
C1134 C1128 1.379 . S
C1134 C1131 1.363 . S
C1134 N1132 1.356 . S
C1135 C1129 1.363 . S
C1135 C1130 1.379 . S
C1135 N1133 1.356 . S
N1136 C1128 1.356 . S
N1136 H1142 0.984 . S
N1136 H1143 0.984 . S
N1137 C1130 1.356 . S
N1137 H1140 0.984 . S
N1137 H1141 0.985 . S
H1138 N1133 0.984 . S
H1139 N1133 0.985 . S
H1140 N1137 0.984 . S
H1141 N1137 0.985 . S
H1142 N1136 0.984 . S
H1143 N1136 0.984 . S
H1144 N1132 0.984 . S
H1145 N1132 0.985 . S
C1146 C1147 1.363 . S
C1146 C1152 1.379 . S
C1146 N1154 1.356 . S
C1147 C1146 1.363 . S
C1147 C1153 1.363 . S
C1148 C1149 1.363 . S
C1148 C1153 1.379 . S
C1148 N1155 1.356 . S
C1149 C1148 1.363 . S
C1149 C1152 1.363 . S
N1150 C1152 1.356 . S
N1150 H1162 0.984 . S
N1150 H1163 0.985 . S
N1151 C1153 1.356 . S
N1151 H1156 0.984 . S
N1151 H1157 0.985 . S
C1152 C1146 1.379 . S
C1152 C1149 1.363 . S
C1152 N1150 1.356 . S
C1153 C1147 1.363 . S
C1153 C1148 1.379 . S
C1153 N1151 1.356 . S
N1154 C1146 1.356 . S
N1154 H1160 0.984 . S
N1154 H1161 0.984 . S
N1155 C1148 1.356 . S
N1155 H1158 0.984 . S
N1155 H1159 0.985 . S
H1156 N1151 0.984 . S
H1157 N1151 0.985 . S
H1158 N1155 0.984 . S
H1159 N1155 0.985 . S
H1160 N1154 0.984 . S
H1161 N1154 0.984 . S
H1162 N1150 0.984 . S
H1163 N1150 0.985 . S
C1164 C1165 1.363 . S
C1164 C1170 1.379 . S
C1164 N1172 1.356 . S
C1165 C1164 1.363 . S
C1165 C1171 1.363 . S
C1166 C1167 1.363 . S
C1166 C1171 1.379 . S
C1166 N1173 1.356 . S
C1167 C1166 1.363 . S
C1167 C1170 1.363 . S
N1168 C1170 1.356 . S
N1168 H1180 0.984 . S
N1168 H1181 0.985 . S
N1169 C1171 1.356 . S
N1169 H1174 0.984 . S
N1169 H1175 0.985 . S
C1170 C1164 1.379 . S
C1170 C1167 1.363 . S
C1170 N1168 1.356 . S
C1171 C1165 1.363 . S
C1171 C1166 1.379 . S
C1171 N1169 1.356 . S
N1172 C1164 1.356 . S
N1172 H1178 0.984 . S
N1172 H1179 0.984 . S
N1173 C1166 1.356 . S
N1173 H1176 0.984 . S
N1173 H1177 0.985 . S
H1174 N1169 0.984 . S
H1175 N1169 0.985 . S
H1176 N1173 0.984 . S
H1177 N1173 0.985 . S
H1178 N1172 0.984 . S
H1179 N1172 0.984 . S
H1180 N1168 0.984 . S
H1181 N1168 0.985 . S
C1182 C1183 1.363 . S
C1182 C1188 1.379 . S
C1182 N1190 1.356 . S
C1183 C1182 1.363 . S
C1183 C1189 1.363 . S
C1184 C1185 1.363 . S
C1184 C1189 1.379 . S
C1184 N1191 1.356 . S
C1185 C1184 1.363 . S
C1185 C1188 1.363 . S
N1186 C1188 1.356 . S
N1186 H1198 0.984 . S
N1186 H1199 0.985 . S
N1187 C1189 1.356 . S
N1187 H1192 0.984 . S
N1187 H1193 0.985 . S
C1188 C1182 1.379 . S
C1188 C1185 1.363 . S
C1188 N1186 1.356 . S
C1189 C1183 1.363 . S
C1189 C1184 1.379 . S
C1189 N1187 1.356 . S
N1190 C1182 1.356 . S
N1190 H1196 0.984 . S
N1190 H1197 0.984 . S
N1191 C1184 1.356 . S
N1191 H1194 0.984 . S
N1191 H1195 0.985 . S
H1192 N1187 0.984 . S
H1193 N1187 0.985 . S
H1194 N1191 0.984 . S
H1195 N1191 0.985 . S
H1196 N1190 0.984 . S
H1197 N1190 0.984 . S
H1198 N1186 0.984 . S
H1199 N1186 0.985 . S
C337 C222 1.443 . S
C339 C12 1.443 . S
C355 C26 1.443 . S
C357 C236 1.443 . S
C373 C40 1.443 . S
C375 C250 1.443 . S
C391 C54 1.443 . S
C393 C180 1.443 . S
C409 C194 1.443 . S
C411 C68 1.443 . S
C427 C82 1.443 . S
C429 C208 1.443 . S
C445 C306 1.443 . S
C447 C96 1.443 . S
C463 C110 1.443 . S
C465 C320 1.443 . S
C481 C124 1.443 . S
C483 C334 1.443 . S
C499 C264 1.443 . S
C501 C138 1.443 . S
C517 C152 1.443 . S
C519 C278 1.443 . S
C535 C292 1.443 . S
C537 C166 1.443 . S
C553 C11 1.239 . S
C555 C333 1.239 . S
C571 C263 1.239 . S
C573 C25 1.239 . S
C589 C39 1.239 . S
C591 C277 1.239 . S
C607 C291 1.239 . S
C609 C53 1.239 . S
C625 C67 1.239 . S
C627 C305 1.239 . S
C643 C319 1.239 . S
C645 C81 1.239 . S
C661 C95 1.239 . S
C663 C193 1.239 . S
C679 C207 1.239 . S
C681 C109 1.239 . S
C697 C221 1.239 . S
C699 C123 1.239 . S
C715 C235 1.239 . S
C717 C137 1.239 . S
C733 C151 1.239 . S
C735 C249 1.239 . S
C751 C165 1.239 . S
C753 C179 1.239 . S
C769 C103 1.146 . S
C771 C5 1.146 . S
C787 C117 1.146 . S
C789 C19 1.146 . S
C805 C131 1.146 . S
C807 C33 1.146 . S
C823 C145 1.146 . S
C825 C47 1.146 . S
C841 C61 1.146 . S
C843 C159 1.146 . S
C859 C75 1.146 . S
C861 C89 1.146 . S
C877 C173 1.146 . S
C879 C271 1.146 . S
C895 C187 1.146 . S
C897 C285 1.146 . S
C913 C299 1.146 . S
C915 C201 1.146 . S
C931 C313 1.146 . S
C933 C215 1.146 . S
C949 C327 1.146 . S
C951 C229 1.146 . S
C967 C257 1.146 . S
C969 C243 1.146 . S
C985 C4 1.397 . S
C987 C270 1.397 . S
C1003 C284 1.397 . S
C1005 C18 1.397 . S
C1021 C32 1.397 . S
C1023 C298 1.397 . S
C1039 C312 1.397 . S
C1041 C46 1.397 . S
C1057 C60 1.397 . S
C1059 C326 1.397 . S
C1075 C256 1.397 . S
C1077 C74 1.397 . S
C1093 C88 1.397 . S
C1095 C242 1.397 . S
C1111 C172 1.397 . S
C1113 C102 1.397 . S
C1129 C116 1.397 . S
C1131 C186 1.397 . S
C1147 C130 1.397 . S
C1149 C200 1.397 . S
C1165 C144 1.397 . S
C1167 C214 1.397 . S
C1183 C158 1.397 . S
C1185 C228 1.397 . S
