# Generated by pormake.
# Topology smk, (6)-cn, num edge types: 1
# Building blocks:
#     Node 0, Type 0, BuildingBlock: VOLQOD_clean_sbu_1, # of connection points: 6
#     Node 1, Type 0, BuildingBlock: VOLQOD_clean_sbu_1, # of connection points: 6
#     Node 2, Type 0, BuildingBlock: VOLQOD_clean_sbu_1, # of connection points: 6
#     Node 3, Type 0, BuildingBlock: VOLQOD_clean_sbu_1, # of connection points: 6
#     Node 4, Type 0, BuildingBlock: VOLQOD_clean_sbu_1, # of connection points: 6
#     Node 5, Type 0, BuildingBlock: VOLQOD_clean_sbu_1, # of connection points: 6
#     Edge 6, Type (0, 0), BuildingBlock: XUDNAN_clean_linker_2, # of connection points: 2
#     Edge 7, Type (0, 0), BuildingBlock: XUDNAN_clean_linker_2, # of connection points: 2
#     Edge 8, Type (0, 0), BuildingBlock: XUDNAN_clean_linker_2, # of connection points: 2
#     Edge 9, Type (0, 0), BuildingBlock: XUDNAN_clean_linker_2, # of connection points: 2
#     Edge 10, Type (0, 0), BuildingBlock: XUDNAN_clean_linker_2, # of connection points: 2
#     Edge 11, Type (0, 0), BuildingBlock: XUDNAN_clean_linker_2, # of connection points: 2
#     Edge 12, Type (0, 0), BuildingBlock: XUDNAN_clean_linker_2, # of connection points: 2
#     Edge 13, Type (0, 0), BuildingBlock: XUDNAN_clean_linker_2, # of connection points: 2
#     Edge 14, Type (0, 0), BuildingBlock: XUDNAN_clean_linker_2, # of connection points: 2
#     Edge 15, Type (0, 0), BuildingBlock: XUDNAN_clean_linker_2, # of connection points: 2
#     Edge 16, Type (0, 0), BuildingBlock: XUDNAN_clean_linker_2, # of connection points: 2
#     Edge 17, Type (0, 0), BuildingBlock: XUDNAN_clean_linker_2, # of connection points: 2
#     Edge 18, Type (0, 0), BuildingBlock: XUDNAN_clean_linker_2, # of connection points: 2
#     Edge 19, Type (0, 0), BuildingBlock: XUDNAN_clean_linker_2, # of connection points: 2
#     Edge 20, Type (0, 0), BuildingBlock: XUDNAN_clean_linker_2, # of connection points: 2
#     Edge 21, Type (0, 0), BuildingBlock: XUDNAN_clean_linker_2, # of connection points: 2
#     Edge 22, Type (0, 0), BuildingBlock: XUDNAN_clean_linker_2, # of connection points: 2
#     Edge 23, Type (0, 0), BuildingBlock: XUDNAN_clean_linker_2, # of connection points: 2
# Relax obj value: 0.161
# Max RMSD: 0.171
# Mean RMSD: 0.170
data_MOF--net-smk--node1-VOLQOD_clean_sbu_1--edge1-XUDNAN_clean_linker_2
_symmetry_space_group_name_H-M    P1
_symmetry_Int_Tables_number       1
_symmetry_cell_setting            triclinic
loop_
_symmetry_equiv_pos_as_xyz
'x, y, z'
_cell_length_a     44.035758
_cell_length_b     44.081721
_cell_length_c     16.916539
_cell_angle_alpha  89.977502
_cell_angle_beta   89.879555
_cell_angle_gamma 119.97709
loop_
_atom_site_label
_atom_site_type_symbol
_atom_site_fract_x
_atom_site_fract_y
_atom_site_fract_z
_atom_type_partial_charge
O0 O 0.44297 0.24296 0.77812 0.0
Zn1 Zn 0.43422 0.25034 0.66488 0.0
O2 O 0.42713 0.21079 0.6024 0.0
Zn3 Zn 0.46918 0.22403 0.54403 0.0
Zn4 Zn 0.41927 0.17256 0.66974 0.0
Zn5 Zn 0.38773 0.19628 0.53082 0.0
O6 O 0.45628 0.20694 0.43413 0.0
O7 O 0.40647 0.20805 0.41923 0.0
O8 O 0.4737 0.29627 0.62046 0.0
O9 O 0.49747 0.27597 0.53495 0.0
O10 O 0.49933 0.20672 0.59406 0.0
O11 O 0.46036 0.16468 0.67134 0.0
O12 O 0.3766 0.12817 0.63845 0.0
O13 O 0.38968 0.25164 0.66433 0.0
O14 O 0.35646 0.14313 0.53384 0.0
O15 O 0.35816 0.2184 0.56336 0.0
C16 C 0.43123 0.21415 0.81562 0.0
C17 C 0.43259 0.20663 0.3905 0.0
C18 C 0.49113 0.18171 0.64262 0.0
C19 C 0.49651 0.30147 0.56753 0.0
C20 C 0.35493 0.12006 0.58179 0.0
C21 C 0.36239 0.23876 0.62123 0.0
O22 O 0.41682 0.18463 0.78102 0.0
O23 O 0.20704 0.46366 0.87243 0.0
Zn24 Zn 0.19313 0.45154 0.75743 0.0
O25 O 0.22112 0.43429 0.70725 0.0
Zn26 Zn 0.25247 0.46746 0.63054 0.0
Zn27 Zn 0.24762 0.42661 0.78552 0.0
Zn28 Zn 0.19153 0.39113 0.65177 0.0
O29 O 0.24782 0.44426 0.52426 0.0
O30 O 0.19152 0.40375 0.53741 0.0
O31 O 0.19255 0.49037 0.69119 0.0
O32 O 0.23462 0.49967 0.60518 0.0
O33 O 0.30227 0.496 0.67351 0.0
O34 O 0.29769 0.46453 0.78015 0.0
O35 O 0.24511 0.38037 0.76862 0.0
O36 O 0.14458 0.41105 0.76834 0.0
O37 O 0.21186 0.35874 0.66135 0.0
O38 O 0.1422 0.36694 0.6993 0.0
C39 C 0.21878 0.44915 0.91924 0.0
C40 C 0.21785 0.42362 0.4941 0.0
C41 C 0.31569 0.49059 0.735 0.0
C42 C 0.21109 0.50595 0.63032 0.0
C43 C 0.23159 0.35727 0.71457 0.0
C44 C 0.12811 0.37934 0.74541 0.0
O45 O 0.23162 0.43074 0.89362 0.0
O46 O 0.75252 0.19618 0.09409 0.0
Zn47 Zn 0.7504 0.18523 0.97832 0.0
O48 O 0.79214 0.22064 0.92648 0.0
Zn49 Zn 0.78015 0.25172 0.87136 0.0
Zn50 Zn 0.82647 0.24561 0.00691 0.0
Zn51 Zn 0.81092 0.19975 0.85474 0.0
O52 O 0.7936 0.25474 0.75729 0.0
O53 O 0.80064 0.2082 0.74367 0.0
O54 O 0.70637 0.1807 0.93037 0.0
O55 O 0.72798 0.23055 0.86384 0.0
O56 O 0.80001 0.29875 0.9265 0.0
O57 O 0.83226 0.29339 0.02034 0.0
O58 O 0.87345 0.25197 0.97776 0.0
O59 O 0.74834 0.13919 0.96758 0.0
O60 O 0.86387 0.22331 0.86434 0.0
O61 O 0.78909 0.14753 0.87863 0.0
C62 C 0.77894 0.20809 0.13987 0.0
C63 C 0.79674 0.2327 0.71422 0.0
C64 C 0.82032 0.31096 0.98608 0.0
C65 C 0.702 0.20173 0.88668 0.0
C66 C 0.88468 0.24278 0.91819 0.0
C67 C 0.76461 0.12763 0.92633 0.0
O68 O 0.81015 0.22266 0.11305 0.0
O69 O 0.55155 0.74841 0.21048 0.0
Zn70 Zn 0.56297 0.74317 0.09857 0.0
O71 O 0.57687 0.78534 0.04007 0.0
Zn72 Zn 0.54238 0.77747 0.96108 0.0
Zn73 Zn 0.58108 0.82114 0.11132 0.0
Zn74 Zn 0.62102 0.79932 0.98801 0.0
O75 O 0.56578 0.79453 0.8553 0.0
O76 O 0.61125 0.78618 0.87317 0.0
O77 O 0.52464 0.70072 0.04264 0.0
O78 O 0.51046 0.72557 0.94625 0.0
O79 O 0.51249 0.79839 -0.00579 0.0
O80 O 0.5378 0.82548 0.10618 0.0
O81 O 0.62338 0.86752 0.08071 0.0
O82 O 0.6044 0.73719 0.11396 0.0
O83 O 0.65062 0.85185 -0.00728 0.0
O84 O 0.64746 0.77768 0.04043 0.0
C85 C 0.56694 0.77591 0.25296 0.0
C86 C 0.59032 0.79013 0.82791 0.0
C87 C 0.51331 0.81564 0.05556 0.0
C88 C 0.50653 0.69833 0.98171 0.0
C89 C 0.64836 0.87539 0.0317 0.0
C90 C 0.63605 0.75268 0.0904 0.0
O91 O 0.58342 0.8065 0.22262 0.0
O92 O 0.80487 0.55219 0.45582 0.0
Zn93 Zn 0.81914 0.56369 0.34256 0.0
O94 O 0.78617 0.57248 0.28869 0.0
Zn95 Zn 0.75482 0.53056 0.232 0.0
Zn96 Zn 0.76131 0.58264 0.36801 0.0
Zn97 Zn 0.81014 0.6123 0.21835 0.0
O98 O 0.75334 0.54249 0.119 0.0
O99 O 0.8029 0.59396 0.107 0.0
O100 O 0.82428 0.52514 0.29111 0.0
O101 O 0.77472 0.4985 0.22329 0.0
O102 O 0.70714 0.50456 0.28474 0.0
O103 O 0.71242 0.54174 0.37956 0.0
O104 O 0.75767 0.62476 0.33804 0.0
O105 O 0.86506 0.60785 0.34267 0.0
O106 O 0.78784 0.64279 0.2257 0.0
O107 O 0.86198 0.64169 0.24881 0.0
C108 C 0.79489 0.56847 0.50156 0.0
C109 C 0.77718 0.56669 0.07683 0.0
C110 C 0.69457 0.51266 0.34385 0.0
C111 C 0.8032 0.5005 0.2459 0.0
C112 C 0.76833 0.64512 0.27829 0.0
C113 C 0.87886 0.63614 0.30284 0.0
O114 O 0.78331 0.58776 0.47467 0.0
O115 O 0.26537 0.80819 0.52592 0.0
Zn116 Zn 0.26575 0.82001 0.40944 0.0
O117 O 0.22075 0.7889 0.36052 0.0
Zn118 Zn 0.22487 0.76034 0.28019 0.0
Zn119 Zn 0.18871 0.75887 0.4397 0.0
Zn120 Zn 0.20247 0.81542 0.3081 0.0
O121 O 0.20517 0.76413 0.1752 0.0
O122 O 0.21401 0.81795 0.19188 0.0
O123 O 0.30649 0.82236 0.34456 0.0
O124 O 0.27552 0.78116 0.25569 0.0
O125 O 0.20665 0.71052 0.31796 0.0
O126 O 0.18326 0.71095 0.43401 0.0
O127 O 0.14203 0.7557 0.42526 0.0
O128 O 0.27046 0.86748 0.41726 0.0
O129 O 0.14961 0.7909 0.32331 0.0
O130 O 0.22431 0.86423 0.35548 0.0
C131 C 0.23909 0.79351 0.57277 0.0
C132 C 0.21039 0.79317 0.14678 0.0
C133 C 0.19157 0.69536 0.38239 0.0
C134 C 0.30474 0.80489 0.28272 0.0
C135 C 0.13002 0.76874 0.37541 0.0
C136 C 0.25199 0.881 0.39686 0.0
O137 O 0.20778 0.77653 0.54718 0.0
H138 H 0.40736 0.23199 0.27568 0.0
H139 H 0.46697 0.179 0.31247 0.0
H140 H 0.47578 0.17859 0.16877 0.0
H141 H 0.36385 0.18739 0.09886 0.0
H142 H 0.36672 0.22554 0.05231 0.0
H143 H 0.36528 0.22199 0.15844 0.0
H144 H 0.42318 0.28146 0.16746 0.0
H145 H 0.42497 0.28505 0.06123 0.0
H146 H 0.46142 0.28739 0.11482 0.0
H147 H 0.47551 0.1807 0.02386 0.0
H148 H 0.4669 0.18622 0.88159 0.0
H149 H 0.41084 0.24118 0.93667 0.0
C150 C 0.42208 0.22016 0.25324 0.0
C151 C 0.43639 0.20539 0.30468 0.0
C152 C 0.4559 0.19052 0.27373 0.0
C153 C 0.46109 0.1902 0.19241 0.0
C154 C 0.44699 0.20529 0.1433 0.0
C155 C 0.42803 0.22013 0.17215 0.0
C156 C 0.41579 0.23453 0.10592 0.0
C157 C 0.37552 0.21626 0.10377 0.0
C158 C 0.43234 0.27448 0.11279 0.0
C159 C 0.43018 0.22466 0.03535 0.0
C160 C 0.44811 0.20784 0.05863 0.0
C161 C 0.46199 0.19423 0.00467 0.0
C162 C 0.45696 0.19742 0.92442 0.0
C163 C 0.43864 0.21442 0.89947 0.0
C164 C 0.42555 0.22874 0.95513 0.0
H165 H 0.26347 0.43685 0.37041 0.0
H166 H 0.15946 0.41836 0.42733 0.0
H167 H 0.15053 0.42815 0.28771 0.0
H168 H 0.2854 0.50336 0.22081 0.0
H169 H 0.30707 0.48727 0.15708 0.0
H170 H 0.30638 0.48086 0.26243 0.0
H171 H 0.27844 0.41389 0.24207 0.0
H172 H 0.27951 0.42017 0.13674 0.0
H173 H 0.23869 0.39075 0.18525 0.0
H174 H 0.15341 0.44145 0.14271 0.0
H175 H 0.16417 0.44793 -0.00166 0.0
H176 H 0.26408 0.45291 0.0337 0.0
C177 C 0.23885 0.43484 0.35321 0.0
C178 C 0.21214 0.42685 0.40937 0.0
C179 C 0.18012 0.42412 0.3849 0.0
C180 C 0.17494 0.42999 0.30597 0.0
C181 C 0.20184 0.43806 0.25201 0.0
C182 C 0.23289 0.43978 0.27415 0.0
C183 C 0.25653 0.44645 0.20335 0.0
C184 C 0.29088 0.48158 0.21143 0.0
C185 C 0.26369 0.416 0.19114 0.0
C186 C 0.2338 0.44792 0.13807 0.0
C187 C 0.20272 0.44386 0.16764 0.0
C188 C 0.17761 0.44456 0.11874 0.0
C189 C 0.18402 0.44851 0.03705 0.0
C190 C 0.21491 0.45094 0.00535 0.0
C191 C 0.24025 0.4511 0.05667 0.0
H192 H 0.81656 0.20027 0.25826 0.0
H193 H 0.73043 0.21913 0.2132 0.0
H194 H 0.72668 0.22887 0.35588 0.0
H195 H 0.78024 0.15265 0.44485 0.0
H196 H 0.82288 0.17004 0.48944 0.0
H197 H 0.81809 0.16388 0.38398 0.0
H198 H 0.86477 0.22919 0.36341 0.0
H199 H 0.86926 0.23572 0.46874 0.0
H200 H 0.85836 0.26265 0.40847 0.0
H201 H 0.73635 0.24238 0.49995 0.0
H202 H 0.75163 0.24864 0.64164 0.0
H203 H 0.82787 0.21579 0.59527 0.0
C204 C 0.79665 0.20599 0.27884 0.0
C205 C 0.77381 0.20907 0.22535 0.0
C206 C 0.74793 0.2164 0.25377 0.0
C207 C 0.74579 0.22223 0.3344 0.0
C208 C 0.76924 0.21982 0.38554 0.0
C209 C 0.79354 0.21096 0.35935 0.0
C210 C 0.81495 0.20909 0.4271 0.0
C211 C 0.80865 0.17169 0.43692 0.0
C212 C 0.85415 0.23576 0.41624 0.0
C213 C 0.79941 0.21909 0.49519 0.0
C214 C 0.77343 0.22565 0.46966 0.0
C215 C 0.75631 0.23688 0.52094 0.0
C216 C 0.76539 0.24069 0.60099 0.0
C217 C 0.79088 0.23268 0.62883 0.0
C218 C 0.80819 0.22191 0.57522 0.0
H219 H 0.56351 0.8161 0.37203 0.0
H220 H 0.57742 0.72706 0.32493 0.0
H221 H 0.58813 0.72319 0.46687 0.0
H222 H 0.62753 0.85566 0.52449 0.0
H223 H 0.60151 0.86788 0.5846 0.0
H224 H 0.5957 0.86441 0.47897 0.0
H225 H 0.52946 0.8201 0.49713 0.0
H226 H 0.53498 0.82382 0.60279 0.0
H227 H 0.51602 0.78142 0.55644 0.0
H228 H 0.60107 0.73141 0.61128 0.0
H229 H 0.6055 0.74462 0.75416 0.0
H230 H 0.57755 0.82453 0.70974 0.0
C231 C 0.5686 0.79571 0.39203 0.0
C232 C 0.56974 0.77189 0.33823 0.0
C233 C 0.57619 0.74533 0.36583 0.0
C234 C 0.58259 0.74312 0.446 0.0
C235 C 0.58173 0.76726 0.49762 0.0
C236 C 0.57409 0.79252 0.47223 0.0
C237 C 0.57293 0.81399 0.54074 0.0
C238 C 0.6011 0.85278 0.53162 0.0
C239 C 0.53616 0.80955 0.54981 0.0
C240 C 0.58138 0.79699 0.60842 0.0
C241 C 0.58706 0.77058 0.58195 0.0
C242 C 0.59636 0.75179 0.63298 0.0
C243 C 0.59907 0.75964 0.71372 0.0
C244 C 0.59176 0.78546 0.74237 0.0
C245 C 0.58308 0.80454 0.68902 0.0
H246 H 0.80532 0.61513 0.61893 0.0
H247 H 0.78168 0.50848 0.57598 0.0
H248 H 0.77424 0.4965 0.7195 0.0
H249 H 0.85574 0.62668 0.79983 0.0
H250 H 0.84042 0.65334 0.84645 0.0
H251 H 0.84444 0.65355 0.74042 0.0
H252 H 0.77922 0.63664 0.72681 0.0
H253 H 0.77487 0.63595 0.83275 0.0
H254 H 0.74588 0.59781 0.77568 0.0
H255 H 0.76399 0.49459 0.86448 0.0
H256 H 0.75993 0.50511 0.00641 0.0
H257 H 0.79526 0.61439 0.95694 0.0
C258 C 0.79887 0.58939 0.64006 0.0
C259 C 0.79387 0.56262 0.58704 0.0
C260 C 0.78577 0.52931 0.61617 0.0
C261 C 0.78132 0.52223 0.69729 0.0
C262 C 0.78581 0.54901 0.74805 0.0
C263 C 0.79518 0.58214 0.72094 0.0
C264 C 0.7992 0.60642 0.78835 0.0
C265 C 0.83721 0.63679 0.79409 0.0
C266 C 0.77324 0.61999 0.78039 0.0
C267 C 0.78982 0.58149 0.8574 0.0
C268 C 0.78179 0.54842 0.83261 0.0
C269 C 0.77062 0.52045 0.88487 0.0
C270 C 0.76811 0.52659 0.96502 0.0
C271 C 0.77731 0.56052 -0.00816 0.0
C272 C 0.78833 0.58831 0.93751 0.0
H273 H 0.18432 0.74605 0.02441 0.0
H274 H 0.25449 0.85579 0.07724 0.0
H275 H 0.27302 0.86678 0.93735 0.0
H276 H 0.23801 0.73556 0.87998 0.0
H277 H 0.20208 0.70792 0.8158 0.0
H278 H 0.19479 0.70816 0.92058 0.0
H279 H 0.14631 0.72398 0.89501 0.0
H280 H 0.15302 0.72313 0.79021 0.0
H281 H 0.15619 0.76168 0.83515 0.0
H282 H 0.28617 0.86523 0.79291 0.0
H283 H 0.28513 0.85341 0.64951 0.0
H284 H 0.20318 0.746 0.68899 0.0
C285 C 0.20339 0.77241 0.00627 0.0
C286 C 0.21798 0.80008 0.0615 0.0
C287 C 0.24272 0.83428 0.03566 0.0
C288 C 0.25369 0.84072 0.95654 0.0
C289 C 0.23927 0.81277 0.90378 0.0
C290 C 0.21405 0.77947 0.92711 0.0
C291 C 0.20126 0.7545 0.85766 0.0
C292 C 0.20954 0.72478 0.86923 0.0
C293 C 0.16186 0.73998 0.84368 0.0
C294 C 0.2232 0.77898 0.79176 0.0
C295 C 0.24553 0.81229 0.81985 0.0
C296 C 0.26868 0.83928 0.77011 0.0
C297 C 0.26817 0.83229 0.68902 0.0
C298 C 0.24418 0.79883 0.65872 0.0
C299 C 0.22182 0.77179 0.71095 0.0
H300 H 0.32709 0.08622 0.44112 0.0
H301 H 0.32738 0.06918 0.69372 0.0
H302 H 0.29398 0.00546 0.67264 0.0
H303 H 0.23809 0.00673 0.40001 0.0
H304 H 0.25301 0.9984 0.30756 0.0
H305 H 0.27112 0.04269 0.34291 0.0
H306 H 0.33355 0.05112 0.33255 0.0
H307 H 0.31571 0.00685 0.2982 0.0
H308 H 0.34349 0.02136 0.38422 0.0
H309 H 0.27057 0.9455 0.62516 0.0
H310 H 0.25452 0.89095 0.55321 0.0
H311 H 0.2671 0.94432 0.32988 0.0
C312 C 0.31889 0.06901 0.49206 0.0
C313 C 0.32954 0.08257 0.56916 0.0
C314 C 0.31938 0.05931 0.63425 0.0
C315 C 0.30031 0.02308 0.6229 0.0
C316 C 0.29143 0.01045 0.54607 0.0
C317 C 0.29993 0.03255 0.48162 0.0
C318 C 0.29024 0.01192 0.40486 0.0
C319 C 0.26139 0.01513 0.36126 0.0
C320 C 0.32268 0.02351 0.35188 0.0
C321 C 0.2765 0.97506 0.43633 0.0
C322 C 0.27715 0.97498 0.51811 0.0
C323 C 0.26907 0.945 0.56129 0.0
C324 C 0.26021 0.91425 0.52 0.0
C325 C 0.25925 0.91359 0.43646 0.0
C326 C 0.26695 0.94418 0.39389 0.0
H327 H 0.32423 0.25907 0.52773 0.0
H328 H 0.33893 0.2361 0.76923 0.0
H329 H 0.29833 0.2553 0.81635 0.0
H330 H 0.32734 0.33681 0.5697 0.0
H331 H 0.29463 0.33265 0.49981 0.0
H332 H 0.31898 0.31054 0.48206 0.0
H333 H 0.261 0.25131 0.47125 0.0
H334 H 0.23641 0.27333 0.48881 0.0
H335 H 0.22957 0.2372 0.55092 0.0
H336 H 0.26513 0.2852 0.84058 0.0
H337 H 0.2406 0.32468 0.84049 0.0
H338 H 0.24576 0.32914 0.58443 0.0
C339 C 0.31779 0.257 0.59004 0.0
C340 C 0.33428 0.2458 0.64495 0.0
C341 C 0.32635 0.24449 0.72639 0.0
C342 C 0.30319 0.25514 0.75366 0.0
C343 C 0.28813 0.26713 0.69875 0.0
C344 C 0.29487 0.26805 0.61856 0.0
C345 C 0.27849 0.28617 0.57382 0.0
C346 C 0.30654 0.31845 0.52874 0.0
C347 C 0.24965 0.26046 0.51789 0.0
C348 C 0.26304 0.29662 0.6418 0.0
C349 C 0.26844 0.28475 0.7131 0.0
C350 C 0.25992 0.29395 0.7851 0.0
C351 C 0.24614 0.31647 0.78454 0.0
C352 C 0.24086 0.32944 0.7125 0.0
C353 C 0.24861 0.3187 0.64013 0.0
H354 H 0.92189 0.24734 0.78278 0.0
H355 H 0.93427 0.27333 0.03267 0.0
H356 H 0.99828 0.30604 0.01575 0.0
H357 H 0.00325 0.24032 0.76246 0.0
H358 H 0.01273 0.2599 0.66544 0.0
H359 H 0.96792 0.23416 0.69852 0.0
H360 H 0.95818 0.28636 0.66977 0.0
H361 H 0.00295 0.31237 0.63745 0.0
H362 H 0.98646 0.32814 0.71538 0.0
H363 H 0.05893 0.34249 0.97066 0.0
H364 H 0.11475 0.3783 0.90051 0.0
H365 H 0.0657 0.32837 0.67912 0.0
C366 C 0.93813 0.25903 0.83432 0.0
C367 C 0.92301 0.25767 0.90918 0.0
C368 C 0.94517 0.27398 0.97481 0.0
C369 C 0.98161 0.29257 0.96587 0.0
C370 C 0.99563 0.29443 0.89104 0.0
C371 C 0.97478 0.27781 0.82641 0.0
C372 C 0.99674 0.28631 0.75155 0.0
C373 C 0.99506 0.2532 0.71749 0.0
C374 C 0.9854 0.30437 0.68994 0.0
C375 C 0.03295 0.31134 0.78397 0.0
C376 C 0.03149 0.31533 0.86476 0.0
C377 C 0.06061 0.33909 0.90776 0.0
C378 C 0.0921 0.35947 0.86729 0.0
C379 C 0.09444 0.35587 0.78469 0.0
C380 C 0.06463 0.3311 0.74252 0.0
H381 H 0.64696 0.93319 0.08708 0.0
H382 H 0.70648 0.90213 0.93572 0.0
H383 H 0.74485 0.96382 0.89647 0.0
H384 H 0.64711 0.99521 0.95799 0.0
H385 H 0.65131 0.02565 0.03413 0.0
H386 H 0.63069 0.97963 0.05617 0.0
H387 H 0.67464 0.99248 0.17041 0.0
H388 H 0.69524 0.03864 0.14916 0.0
H389 H 0.72106 0.01729 0.15062 0.0
H390 H 0.77414 0.02882 0.86622 0.0
H391 H 0.79255 0.09156 0.85095 0.0
H392 H 0.71325 0.07887 0.02185 0.0
C393 C 0.66844 0.93933 0.04684 0.0
C394 C 0.6737 0.91273 0.01477 0.0
C395 C 0.70191 0.92201 0.96137 0.0
C396 C 0.72389 0.95701 0.93865 0.0
C397 C 0.71742 0.98246 0.97002 0.0
C398 C 0.69053 0.97404 0.02341 0.0
C399 C 0.68796 0.00591 0.0456 0.0
C400 C 0.65215 1.00131 0.02203 0.0
C401 C 0.69517 0.01406 0.1342 0.0
C402 C 0.71722 0.03345 -0.0046 0.0
C403 C 0.73409 0.01958 0.95247 0.0
C404 C 0.7613 0.04003 0.90012 0.0
C405 C 0.77152 0.07561 0.89165 0.0
C406 C 0.75443 0.09026 0.93515 0.0
C407 C 0.72703 0.06869 0.98777 0.0
H408 H 0.76502 0.67637 0.14016 0.0
H409 H 0.74013 0.66811 0.39055 0.0
H410 H 0.70981 0.70159 0.3698 0.0
H411 H 0.77542 0.76587 0.10957 0.0
H412 H 0.75515 0.75412 0.01353 0.0
H413 H 0.78007 0.73467 0.04945 0.0
H414 H 0.72646 0.67293 0.02729 0.0
H415 H 0.70128 0.69209 -0.00789 0.0
H416 H 0.68521 0.66164 0.07363 0.0
H417 H 0.67495 0.72698 0.32113 0.0
H418 H 0.63906 0.74576 0.24733 0.0
H419 H 0.68651 0.73972 0.02732 0.0
C420 C 0.75419 0.68263 0.19097 0.0
C421 C 0.7551 0.66978 0.26712 0.0
C422 C 0.73981 0.67771 0.33178 0.0
C423 C 0.72264 0.69684 0.32064 0.0
C424 C 0.72114 0.70807 0.24456 0.0
C425 C 0.73675 0.70166 0.18079 0.0
C426 C 0.72834 0.7139 0.10419 0.0
C427 C 0.76174 0.74393 0.06699 0.0
C428 C 0.70918 0.68331 0.04591 0.0
C429 C 0.70434 0.72678 0.13466 0.0
C430 C 0.70098 0.72345 0.21603 0.0
C431 C 0.67793 0.73046 0.25771 0.0
C432 C 0.65752 0.74087 0.21524 0.0
C433 C 0.66034 0.74438 0.13197 0.0
C434 C 0.68451 0.7379 0.09115 0.0
H435 H 0.93565 0.67765 0.20697 0.0
H436 H 0.90193 0.6549 0.4515 0.0
H437 H 0.96239 0.6942 0.49578 0.0
H438 H 0.01147 0.67433 0.23098 0.0
H439 H 0.03866 0.70943 0.1641 0.0
H440 H 0.99196 0.68518 0.15015 0.0
H441 H 0.9897 0.74274 0.15549 0.0
H442 H 0.03656 0.76726 0.16908 0.0
H443 H 0.00805 0.77149 0.23927 0.0
H444 H 0.02576 0.72704 0.5146 0.0
H445 H 0.08989 0.75321 0.50697 0.0
H446 H 0.08512 0.75649 0.25122 0.0
C447 C 0.94101 0.68204 0.26963 0.0
C448 C 0.91427 0.66362 0.32601 0.0
C449 C 0.92217 0.66893 0.40759 0.0
C450 C 0.95636 0.69133 0.43331 0.0
C451 C 0.98247 0.70827 0.37669 0.0
C452 C 0.97538 0.70419 0.29651 0.0
C453 C 0.00911 0.72242 0.24872 0.0
C454 C 0.01301 0.69627 0.19538 0.0
C455 C 0.01096 0.75279 0.20028 0.0
C456 C 0.03608 0.73589 0.31464 0.0
C457 C 0.01994 0.72781 0.38788 0.0
C458 C 0.03882 0.73429 0.45777 0.0
C459 C 0.07518 0.74897 0.45287 0.0
C460 C 0.09233 0.75717 0.37867 0.0
C461 C 0.07263 0.75125 0.30873 0.0
H462 H 0.54281 0.32012 0.44467 0.0
H463 H 0.50834 0.36429 0.62998 0.0
H464 H 0.55228 0.42392 0.58525 0.0
H465 H 0.63289 0.38034 0.45927 0.0
H466 H 0.64104 0.38169 0.3545 0.0
H467 H 0.60546 0.34302 0.39829 0.0
H468 H 0.56203 0.34652 0.30057 0.0
H469 H 0.59752 0.38539 0.25667 0.0
H470 H 0.55967 0.38614 0.29496 0.0
H471 H 0.60282 0.47855 0.5249 0.0
H472 H 0.656 0.52338 0.45642 0.0
H473 H 0.65592 0.44258 0.30956 0.0
C474 C 0.54423 0.34224 0.47587 0.0
C475 C 0.52212 0.33747 0.54112 0.0
C476 C 0.52496 0.36726 0.57988 0.0
C477 C 0.54977 0.40121 0.55472 0.0
C478 C 0.57122 0.40484 0.49034 0.0
C479 C 0.56856 0.3761 0.4514 0.0
C480 C 0.59546 0.3868 0.38586 0.0
C481 C 0.62017 0.3721 0.4004 0.0
C482 C 0.57759 0.37554 0.30471 0.0
C483 C 0.61436 0.42617 0.395 0.0
C484 C 0.59985 0.43612 0.45513 0.0
C485 C 0.61412 0.47106 0.47718 0.0
C486 C 0.64436 0.49633 0.43787 0.0
C487 C 0.66008 0.48657 0.37718 0.0
C488 C 0.64431 0.45104 0.35471 0.0
H489 H 0.18854 0.55208 0.67557 0.0
H490 H 0.21603 0.51099 0.47143 0.0
H491 H 0.20683 0.55023 0.38425 0.0
H492 H 0.12201 0.56714 0.57433 0.0
H493 H 0.1353 0.60756 0.62622 0.0
H494 H 0.13962 0.57313 0.67287 0.0
H495 H 0.20573 0.61624 0.69593 0.0
H496 H 0.20153 0.65071 0.64971 0.0
H497 H 0.23331 0.63976 0.613 0.0
H498 H 0.20047 0.59702 0.31987 0.0
H499 H 0.19914 0.65047 0.28307 0.0
H500 H 0.17598 0.6625 0.52699 0.0
C501 C 0.19192 0.55099 0.61241 0.0
C502 C 0.20307 0.52857 0.58033 0.0
C503 C 0.20782 0.52821 0.49745 0.0
C504 C 0.20238 0.55019 0.4472 0.0
C505 C 0.19216 0.57252 0.48043 0.0
C506 C 0.18697 0.57323 0.56101 0.0
C507 C 0.17892 0.602 0.58142 0.0
C508 C 0.14174 0.58652 0.61574 0.0
C509 C 0.20652 0.62876 0.63835 0.0
C510 C 0.18148 0.61781 0.50019 0.0
C511 C 0.1886 0.60002 0.44273 0.0
C512 C 0.1944 0.61095 0.36406 0.0
C513 C 0.19363 0.64138 0.3437 0.0
C514 C 0.18724 0.66062 0.40184 0.0
C515 C 0.18034 0.64811 0.48077 0.0
H516 H 0.68447 0.23732 0.78019 0.0
H517 H 0.63934 0.14315 0.92453 0.0
H518 H 0.58087 0.12545 0.86947 0.0
H519 H 0.61394 0.25449 0.79977 0.0
H520 H 0.61748 0.26998 0.69967 0.0
H521 H 0.65561 0.27446 0.74929 0.0
H522 H 0.66531 0.241 0.63498 0.0
H523 H 0.62693 0.2361 0.58542 0.0
H524 H 0.63047 0.19802 0.6081 0.0
H525 H 0.52714 0.11902 0.80158 0.0
H526 H 0.48178 0.12567 0.73124 0.0
H527 H 0.56254 0.22352 0.62947 0.0
C528 C 0.66235 0.21299 0.80058 0.0
C529 C 0.66655 0.19167 0.85699 0.0
C530 C 0.63682 0.15997 0.88157 0.0
C531 C 0.60353 0.14961 0.85035 0.0
C532 C 0.60045 0.17111 0.79429 0.0
C533 C 0.62905 0.20219 0.76984 0.0
C534 C 0.61865 0.22101 0.71034 0.0
C535 C 0.6269 0.25711 0.74167 0.0
C536 C 0.6364 0.22421 0.62995 0.0
C537 C 0.57954 0.19595 0.70606 0.0
C538 C 0.56961 0.16721 0.75448 0.0
C539 C 0.53464 0.14127 0.76305 0.0
C540 C 0.50906 0.14527 0.7227 0.0
C541 C 0.51857 0.17501 0.67438 0.0
C542 C 0.5544 0.20021 0.66483 0.0
H543 H 0.4594 0.68283 0.86076 0.0
H544 H 0.49756 0.63461 0.02739 0.0
H545 H 0.45759 0.57671 0.96959 0.0
H546 H 0.37041 0.61622 0.86836 0.0
H547 H 0.36221 0.6192 0.7651 0.0
H548 H 0.39568 0.65697 0.81586 0.0
H549 H 0.44124 0.66238 0.71125 0.0
H550 H 0.40791 0.62426 0.66073 0.0
H551 H 0.44752 0.62558 0.69316 0.0
H552 H 0.41163 0.52399 0.89919 0.0
H553 H 0.35923 0.47943 0.82903 0.0
H554 H 0.35076 0.56152 0.7072 0.0
C555 C 0.45957 0.66016 0.88489 0.0
C556 C 0.48175 0.66336 0.94866 0.0
C557 C 0.48082 0.63291 0.97876 0.0
C558 C 0.45839 0.59991 0.94588 0.0
C559 C 0.43709 0.59776 0.88281 0.0
C560 C 0.43728 0.62701 0.85294 0.0
C561 C 0.41017 0.61723 0.78825 0.0
C562 C 0.38301 0.62803 0.81078 0.0
C563 C 0.42777 0.63332 0.70863 0.0
C564 C 0.3941 0.57776 0.78768 0.0
C565 C 0.41041 0.56719 0.84195 0.0
C566 C 0.39889 0.53196 0.85594 0.0
C567 C 0.36914 0.50684 0.81566 0.0
C568 C 0.35112 0.517 0.7621 0.0
C569 C 0.36448 0.55295 0.74625 0.0
H570 H 0.77019 0.45226 0.12847 0.0
H571 H 0.85802 0.4913 0.29091 0.0
H572 H 0.87465 0.44991 0.23444 0.0
H573 H 0.74691 0.36261 0.13581 0.0
H574 H 0.73557 0.35481 0.03259 0.0
H575 H 0.73144 0.38817 0.08464 0.0
H576 H 0.77153 0.43408 0.9806 0.0
H577 H 0.77603 0.40086 0.9286 0.0
H578 H 0.8145 0.44015 0.96131 0.0
H579 H 0.88014 0.40265 0.16403 0.0
H580 H 0.87315 0.35179 0.08809 0.0
H581 H 0.78264 0.34486 0.96909 0.0
C582 C 0.7929 0.45212 0.15251 0.0
C583 C 0.81273 0.47497 0.2145 0.0
C584 C 0.84239 0.47404 0.24359 0.0
C585 C 0.85212 0.45071 0.21168 0.0
C586 C 0.8321 0.42876 0.15027 0.0
C587 C 0.80311 0.42927 0.12103 0.0
C588 C 0.78558 0.40252 0.05592 0.0
C589 C 0.74764 0.37542 0.07864 0.0
C590 C 0.78701 0.42048 0.97694 0.0
C591 C 0.80885 0.38632 0.05408 0.0
C592 C 0.83566 0.40199 0.10864 0.0
C593 C 0.85946 0.39039 0.12064 0.0
C594 C 0.85527 0.36149 0.07715 0.0
C595 C 0.82751 0.34449 0.02218 0.0
C596 C 0.80451 0.35766 0.0095 0.0
H597 H 0.49486 0.83185 0.19789 0.0
H598 H 0.46358 0.81089 0.95166 0.0
H599 H 0.41003 0.8132 0.98264 0.0
H600 H 0.41271 0.77773 0.27685 0.0
H601 H 0.41668 0.80524 0.35955 0.0
H602 H 0.4553 0.80771 0.31688 0.0
H603 H 0.48189 0.87431 0.29388 0.0
H604 H 0.44338 0.87215 0.33707 0.0
H605 H 0.45736 0.89 0.23921 0.0
H606 H 0.35738 0.81046 0.04126 0.0
H607 H 0.30804 0.80276 0.12385 0.0
H608 H 0.37209 0.82528 0.33413 0.0
C609 C 0.47726 0.82877 0.15001 0.0
C610 C 0.48358 0.82149 0.07206 0.0
C611 C 0.4594 0.81666 0.01161 0.0
C612 C 0.42897 0.81805 0.02862 0.0
C613 C 0.42309 0.82435 0.10634 0.0
C614 C 0.44657 0.82982 0.16613 0.0
C615 C 0.4323 0.83279 0.24586 0.0
C616 C 0.42905 0.80415 0.30312 0.0
C617 C 0.45509 0.8695 0.28107 0.0
C618 C 0.39658 0.82689 0.22184 0.0
C619 C 0.39217 0.82257 0.14083 0.0
C620 C 0.36069 0.8143 0.10451 0.0
C621 C 0.33276 0.80978 0.15211 0.0
C622 C 0.3363 0.81348 0.23537 0.0
C623 C 0.36889 0.82288 0.27058 0.0
loop_
_geom_bond_atom_site_label_1
_geom_bond_atom_site_label_2
_geom_bond_distance
_geom_bond_site_symmetry_2
_ccdc_geom_bond_type
O0 Zn1 1.953 . S
O0 C16 1.225 . S
Zn1 O0 1.953 . S
Zn1 O2 1.949 . S
Zn1 O8 1.919 . S
Zn1 O13 1.924 . S
O2 Zn1 1.949 . S
O2 Zn3 1.923 . S
O2 Zn4 1.950 . S
O2 Zn5 1.945 . S
Zn3 O2 1.923 . S
Zn3 O6 1.933 . S
Zn3 O9 1.941 . S
Zn3 O10 1.965 . S
Zn4 O2 1.950 . S
Zn4 O11 1.938 . S
Zn4 O12 1.906 . S
Zn4 O22 1.953 . S
Zn5 O2 1.945 . S
Zn5 O7 1.932 . S
Zn5 O14 1.977 . S
Zn5 O15 1.910 . S
O6 Zn3 1.933 . S
O6 C17 1.226 . S
O7 Zn5 1.932 . S
O7 C17 1.307 . S
O8 Zn1 1.919 . S
O8 C19 1.253 . S
O9 Zn3 1.941 . S
O9 C19 1.283 . S
O10 Zn3 1.965 . S
O10 C18 1.303 . S
O11 Zn4 1.938 . S
O11 C18 1.247 . S
O12 Zn4 1.906 . S
O12 C20 1.304 . S
O13 Zn1 1.924 . S
O13 C21 1.311 . S
O14 Zn5 1.977 . S
O14 C20 1.272 . S
O15 Zn5 1.910 . S
O15 C21 1.231 . S
C16 O0 1.225 . S
C16 O22 1.298 . S
C17 O6 1.226 . S
C17 O7 1.307 . S
C18 O10 1.303 . S
C18 O11 1.247 . S
C19 O8 1.253 . S
C19 O9 1.283 . S
C20 O12 1.304 . S
C20 O14 1.272 . S
C21 O13 1.311 . S
C21 O15 1.231 . S
O22 Zn4 1.953 . S
O22 C16 1.298 . S
O23 Zn24 1.953 . S
O23 C39 1.225 . S
Zn24 O23 1.953 . S
Zn24 O25 1.949 . S
Zn24 O31 1.919 . S
Zn24 O36 1.924 . S
O25 Zn24 1.949 . S
O25 Zn26 1.923 . S
O25 Zn27 1.950 . S
O25 Zn28 1.945 . S
Zn26 O25 1.923 . S
Zn26 O29 1.933 . S
Zn26 O32 1.941 . S
Zn26 O33 1.965 . S
Zn27 O25 1.950 . S
Zn27 O34 1.938 . S
Zn27 O35 1.906 . S
Zn27 O45 1.953 . S
Zn28 O25 1.945 . S
Zn28 O30 1.932 . S
Zn28 O37 1.977 . S
Zn28 O38 1.910 . S
O29 Zn26 1.933 . S
O29 C40 1.226 . S
O30 Zn28 1.932 . S
O30 C40 1.307 . S
O31 Zn24 1.919 . S
O31 C42 1.253 . S
O32 Zn26 1.941 . S
O32 C42 1.283 . S
O33 Zn26 1.965 . S
O33 C41 1.303 . S
O34 Zn27 1.938 . S
O34 C41 1.247 . S
O35 Zn27 1.906 . S
O35 C43 1.304 . S
O36 Zn24 1.924 . S
O36 C44 1.311 . S
O37 Zn28 1.977 . S
O37 C43 1.272 . S
O38 Zn28 1.910 . S
O38 C44 1.231 . S
C39 O23 1.225 . S
C39 O45 1.298 . S
C40 O29 1.226 . S
C40 O30 1.307 . S
C41 O33 1.303 . S
C41 O34 1.247 . S
C42 O31 1.253 . S
C42 O32 1.283 . S
C43 O35 1.304 . S
C43 O37 1.272 . S
C44 O36 1.311 . S
C44 O38 1.231 . S
O45 Zn27 1.953 . S
O45 C39 1.298 . S
O46 Zn47 1.953 1_554 S
O46 C62 1.225 . S
Zn47 O46 1.953 1_556 S
Zn47 O48 1.949 . S
Zn47 O54 1.919 . S
Zn47 O59 1.924 . S
O48 Zn47 1.949 . S
O48 Zn49 1.923 . S
O48 Zn50 1.950 . S
O48 Zn51 1.945 . S
Zn49 O48 1.923 . S
Zn49 O52 1.933 . S
Zn49 O55 1.941 . S
Zn49 O56 1.965 . S
Zn50 O48 1.950 . S
Zn50 O57 1.939 . S
Zn50 O58 1.906 . S
Zn50 O68 1.953 1_556 S
Zn51 O48 1.945 . S
Zn51 O53 1.932 . S
Zn51 O60 1.977 . S
Zn51 O61 1.910 . S
O52 Zn49 1.933 . S
O52 C63 1.226 . S
O53 Zn51 1.932 . S
O53 C63 1.307 . S
O54 Zn47 1.919 . S
O54 C65 1.253 . S
O55 Zn49 1.941 . S
O55 C65 1.283 . S
O56 Zn49 1.965 . S
O56 C64 1.303 . S
O57 Zn50 1.939 . S
O57 C64 1.251 . S
O58 Zn50 1.906 . S
O58 C66 1.304 . S
O59 Zn47 1.924 . S
O59 C67 1.311 . S
O60 Zn51 1.977 . S
O60 C66 1.272 . S
O61 Zn51 1.910 . S
O61 C67 1.231 . S
C62 O46 1.225 . S
C62 O68 1.298 . S
C63 O52 1.226 . S
C63 O53 1.307 . S
C64 O56 1.303 . S
C64 O57 1.251 . S
C65 O54 1.253 . S
C65 O55 1.283 . S
C66 O58 1.304 . S
C66 O60 1.272 . S
C67 O59 1.311 . S
C67 O61 1.231 . S
O68 Zn50 1.953 1_554 S
O68 C62 1.298 . S
O69 Zn70 1.953 . S
O69 C85 1.225 . S
Zn70 O69 1.953 . S
Zn70 O71 1.949 . S
Zn70 O77 1.919 . S
Zn70 O82 1.924 . S
O71 Zn70 1.949 . S
O71 Zn72 1.923 . S
O71 Zn73 1.950 . S
O71 Zn74 1.945 . S
Zn72 O71 1.923 . S
Zn72 O75 1.933 1_554 S
Zn72 O78 1.941 . S
Zn72 O79 1.965 . S
Zn73 O71 1.950 . S
Zn73 O80 1.938 . S
Zn73 O81 1.906 . S
Zn73 O91 1.953 . S
Zn74 O71 1.945 . S
Zn74 O76 1.932 1_554 S
Zn74 O83 1.977 . S
Zn74 O84 1.910 . S
O75 Zn72 1.933 1_556 S
O75 C86 1.226 . S
O76 Zn74 1.932 1_556 S
O76 C86 1.307 . S
O77 Zn70 1.919 . S
O77 C88 1.253 . S
O78 Zn72 1.941 . S
O78 C88 1.283 . S
O79 Zn72 1.965 . S
O79 C87 1.303 . S
O80 Zn73 1.938 . S
O80 C87 1.247 . S
O81 Zn73 1.906 . S
O81 C89 1.304 . S
O82 Zn70 1.924 . S
O82 C90 1.311 . S
O83 Zn74 1.977 . S
O83 C89 1.272 . S
O84 Zn74 1.910 . S
O84 C90 1.231 . S
C85 O69 1.225 . S
C85 O91 1.298 . S
C86 O75 1.226 . S
C86 O76 1.307 . S
C87 O79 1.303 . S
C87 O80 1.247 . S
C88 O77 1.253 . S
C88 O78 1.283 . S
C89 O81 1.304 . S
C89 O83 1.272 . S
C90 O82 1.311 . S
C90 O84 1.231 . S
O91 Zn73 1.953 . S
O91 C85 1.298 . S
O92 Zn93 1.953 . S
O92 C108 1.225 . S
Zn93 O92 1.953 . S
Zn93 O94 1.949 . S
Zn93 O100 1.919 . S
Zn93 O105 1.924 . S
O94 Zn93 1.949 . S
O94 Zn95 1.923 . S
O94 Zn96 1.950 . S
O94 Zn97 1.945 . S
Zn95 O94 1.923 . S
Zn95 O98 1.933 . S
Zn95 O101 1.941 . S
Zn95 O102 1.965 . S
Zn96 O94 1.950 . S
Zn96 O103 1.938 . S
Zn96 O104 1.906 . S
Zn96 O114 1.953 . S
Zn97 O94 1.945 . S
Zn97 O99 1.932 . S
Zn97 O106 1.977 . S
Zn97 O107 1.910 . S
O98 Zn95 1.933 . S
O98 C109 1.226 . S
O99 Zn97 1.932 . S
O99 C109 1.307 . S
O100 Zn93 1.919 . S
O100 C111 1.253 . S
O101 Zn95 1.941 . S
O101 C111 1.283 . S
O102 Zn95 1.965 . S
O102 C110 1.303 . S
O103 Zn96 1.938 . S
O103 C110 1.247 . S
O104 Zn96 1.906 . S
O104 C112 1.304 . S
O105 Zn93 1.924 . S
O105 C113 1.311 . S
O106 Zn97 1.977 . S
O106 C112 1.272 . S
O107 Zn97 1.910 . S
O107 C113 1.231 . S
C108 O92 1.225 . S
C108 O114 1.298 . S
C109 O98 1.226 . S
C109 O99 1.307 . S
C110 O102 1.303 . S
C110 O103 1.247 . S
C111 O100 1.253 . S
C111 O101 1.283 . S
C112 O104 1.304 . S
C112 O106 1.272 . S
C113 O105 1.311 . S
C113 O107 1.231 . S
O114 Zn96 1.953 . S
O114 C108 1.298 . S
O115 Zn116 1.953 . S
O115 C131 1.225 . S
Zn116 O115 1.953 . S
Zn116 O117 1.949 . S
Zn116 O123 1.919 . S
Zn116 O128 1.924 . S
O117 Zn116 1.949 . S
O117 Zn118 1.923 . S
O117 Zn119 1.950 . S
O117 Zn120 1.945 . S
Zn118 O117 1.923 . S
Zn118 O121 1.933 . S
Zn118 O124 1.941 . S
Zn118 O125 1.965 . S
Zn119 O117 1.950 . S
Zn119 O126 1.938 . S
Zn119 O127 1.906 . S
Zn119 O137 1.953 . S
Zn120 O117 1.945 . S
Zn120 O122 1.932 . S
Zn120 O129 1.977 . S
Zn120 O130 1.910 . S
O121 Zn118 1.933 . S
O121 C132 1.226 . S
O122 Zn120 1.932 . S
O122 C132 1.307 . S
O123 Zn116 1.919 . S
O123 C134 1.253 . S
O124 Zn118 1.941 . S
O124 C134 1.283 . S
O125 Zn118 1.965 . S
O125 C133 1.303 . S
O126 Zn119 1.938 . S
O126 C133 1.247 . S
O127 Zn119 1.906 . S
O127 C135 1.304 . S
O128 Zn116 1.924 . S
O128 C136 1.311 . S
O129 Zn120 1.977 . S
O129 C135 1.272 . S
O130 Zn120 1.910 . S
O130 C136 1.231 . S
C131 O115 1.225 . S
C131 O137 1.298 . S
C132 O121 1.226 . S
C132 O122 1.307 . S
C133 O125 1.303 . S
C133 O126 1.247 . S
C134 O123 1.253 . S
C134 O124 1.283 . S
C135 O127 1.304 . S
C135 O129 1.272 . S
C136 O128 1.311 . S
C136 O130 1.231 . S
O137 Zn119 1.953 . S
O137 C131 1.298 . S
H138 C150 0.930 . S
H139 C152 0.930 . S
H140 C153 0.930 . S
H141 C157 0.959 . S
H142 C157 0.959 . S
H143 C157 0.961 . S
H144 C158 0.960 . S
H145 C158 0.961 . S
H146 C158 0.959 . S
H147 C161 0.929 . S
H148 C162 0.931 . S
H149 C164 0.930 . S
C150 H138 0.930 . S
C150 C151 1.399 . S
C150 C155 1.399 . S
C151 C150 1.399 . S
C151 C152 1.376 . S
C152 H139 0.930 . S
C152 C151 1.376 . S
C152 C153 1.388 . S
C153 H140 0.930 . S
C153 C152 1.388 . S
C153 C154 1.390 . S
C154 C153 1.390 . S
C154 C155 1.394 . S
C154 C160 1.465 . S
C155 C150 1.399 . S
C155 C154 1.394 . S
C155 C156 1.516 . S
C156 C155 1.516 . S
C156 C157 1.502 . S
C156 C158 1.561 . S
C156 C159 1.526 . S
C157 H141 0.959 . S
C157 H142 0.959 . S
C157 H143 0.961 . S
C157 C156 1.502 . S
C158 H144 0.960 . S
C158 H145 0.961 . S
C158 H146 0.959 . S
C158 C156 1.561 . S
C159 C156 1.526 . S
C159 C160 1.396 . S
C159 C164 1.390 1_554 S
C160 C154 1.465 . S
C160 C159 1.396 . S
C160 C161 1.399 1_554 S
C161 H147 0.929 . S
C161 C160 1.399 1_556 S
C161 C162 1.385 . S
C162 H148 0.931 . S
C162 C161 1.385 . S
C162 C163 1.389 . S
C163 C162 1.389 . S
C163 C164 1.387 . S
C164 H149 0.930 . S
C164 C159 1.390 1_556 S
C164 C163 1.387 . S
H165 C177 0.930 . S
H166 C179 0.930 . S
H167 C180 0.930 . S
H168 C184 0.959 . S
H169 C184 0.959 . S
H170 C184 0.961 . S
H171 C185 0.960 . S
H172 C185 0.961 . S
H173 C185 0.959 . S
H174 C188 0.929 . S
H175 C189 0.931 . S
H176 C191 0.930 . S
C177 H165 0.930 . S
C177 C178 1.399 . S
C177 C182 1.399 . S
C178 C177 1.399 . S
C178 C179 1.376 . S
C179 H166 0.930 . S
C179 C178 1.376 . S
C179 C180 1.388 . S
C180 H167 0.930 . S
C180 C179 1.388 . S
C180 C181 1.390 . S
C181 C180 1.390 . S
C181 C182 1.394 . S
C181 C187 1.465 . S
C182 C177 1.399 . S
C182 C181 1.394 . S
C182 C183 1.516 . S
C183 C182 1.516 . S
C183 C184 1.502 . S
C183 C185 1.561 . S
C183 C186 1.526 . S
C184 H168 0.959 . S
C184 H169 0.959 . S
C184 H170 0.961 . S
C184 C183 1.502 . S
C185 H171 0.960 . S
C185 H172 0.961 . S
C185 H173 0.959 . S
C185 C183 1.561 . S
C186 C183 1.526 . S
C186 C187 1.396 . S
C186 C191 1.390 . S
C187 C181 1.465 . S
C187 C186 1.396 . S
C187 C188 1.399 . S
C188 H174 0.929 . S
C188 C187 1.399 . S
C188 C189 1.385 . S
C189 H175 0.931 . S
C189 C188 1.385 . S
C189 C190 1.389 . S
C190 C189 1.389 . S
C190 C191 1.387 . S
C191 H176 0.930 . S
C191 C186 1.390 . S
C191 C190 1.387 . S
H192 C204 0.930 . S
H193 C206 0.930 . S
H194 C207 0.930 . S
H195 C211 0.959 . S
H196 C211 0.959 . S
H197 C211 0.961 . S
H198 C212 0.960 . S
H199 C212 0.961 . S
H200 C212 0.959 . S
H201 C215 0.929 . S
H202 C216 0.931 . S
H203 C218 0.930 . S
C204 H192 0.930 . S
C204 C205 1.399 . S
C204 C209 1.399 . S
C205 C204 1.399 . S
C205 C206 1.376 . S
C206 H193 0.930 . S
C206 C205 1.376 . S
C206 C207 1.388 . S
C207 H194 0.930 . S
C207 C206 1.388 . S
C207 C208 1.390 . S
C208 C207 1.390 . S
C208 C209 1.394 . S
C208 C214 1.465 . S
C209 C204 1.399 . S
C209 C208 1.394 . S
C209 C210 1.516 . S
C210 C209 1.516 . S
C210 C211 1.502 . S
C210 C212 1.561 . S
C210 C213 1.526 . S
C211 H195 0.959 . S
C211 H196 0.959 . S
C211 H197 0.961 . S
C211 C210 1.502 . S
C212 H198 0.960 . S
C212 H199 0.961 . S
C212 H200 0.959 . S
C212 C210 1.561 . S
C213 C210 1.526 . S
C213 C214 1.396 . S
C213 C218 1.390 . S
C214 C208 1.465 . S
C214 C213 1.396 . S
C214 C215 1.399 . S
C215 H201 0.929 . S
C215 C214 1.399 . S
C215 C216 1.385 . S
C216 H202 0.931 . S
C216 C215 1.385 . S
C216 C217 1.389 . S
C217 C216 1.389 . S
C217 C218 1.387 . S
C218 H203 0.930 . S
C218 C213 1.390 . S
C218 C217 1.387 . S
H219 C231 0.930 . S
H220 C233 0.930 . S
H221 C234 0.930 . S
H222 C238 0.959 . S
H223 C238 0.959 . S
H224 C238 0.961 . S
H225 C239 0.960 . S
H226 C239 0.961 . S
H227 C239 0.959 . S
H228 C242 0.929 . S
H229 C243 0.931 . S
H230 C245 0.930 . S
C231 H219 0.930 . S
C231 C232 1.399 . S
C231 C236 1.399 . S
C232 C231 1.399 . S
C232 C233 1.376 . S
C233 H220 0.930 . S
C233 C232 1.376 . S
C233 C234 1.388 . S
C234 H221 0.930 . S
C234 C233 1.388 . S
C234 C235 1.390 . S
C235 C234 1.390 . S
C235 C236 1.394 . S
C235 C241 1.465 . S
C236 C231 1.399 . S
C236 C235 1.394 . S
C236 C237 1.516 . S
C237 C236 1.516 . S
C237 C238 1.502 . S
C237 C239 1.561 . S
C237 C240 1.526 . S
C238 H222 0.959 . S
C238 H223 0.959 . S
C238 H224 0.961 . S
C238 C237 1.502 . S
C239 H225 0.960 . S
C239 H226 0.961 . S
C239 H227 0.959 . S
C239 C237 1.561 . S
C240 C237 1.526 . S
C240 C241 1.396 . S
C240 C245 1.390 . S
C241 C235 1.465 . S
C241 C240 1.396 . S
C241 C242 1.399 . S
C242 H228 0.929 . S
C242 C241 1.399 . S
C242 C243 1.385 . S
C243 H229 0.931 . S
C243 C242 1.385 . S
C243 C244 1.389 . S
C244 C243 1.389 . S
C244 C245 1.387 . S
C245 H230 0.930 . S
C245 C240 1.390 . S
C245 C244 1.387 . S
H246 C258 0.930 . S
H247 C260 0.930 . S
H248 C261 0.930 . S
H249 C265 0.959 . S
H250 C265 0.959 . S
H251 C265 0.961 . S
H252 C266 0.960 . S
H253 C266 0.961 . S
H254 C266 0.959 . S
H255 C269 0.929 . S
H256 C270 0.931 . S
H257 C272 0.930 . S
C258 H246 0.930 . S
C258 C259 1.399 . S
C258 C263 1.399 . S
C259 C258 1.399 . S
C259 C260 1.376 . S
C260 H247 0.930 . S
C260 C259 1.376 . S
C260 C261 1.388 . S
C261 H248 0.930 . S
C261 C260 1.388 . S
C261 C262 1.390 . S
C262 C261 1.390 . S
C262 C263 1.394 . S
C262 C268 1.465 . S
C263 C258 1.399 . S
C263 C262 1.394 . S
C263 C264 1.516 . S
C264 C263 1.516 . S
C264 C265 1.502 . S
C264 C266 1.561 . S
C264 C267 1.526 . S
C265 H249 0.959 . S
C265 H250 0.959 . S
C265 H251 0.961 . S
C265 C264 1.502 . S
C266 H252 0.960 . S
C266 H253 0.961 . S
C266 H254 0.959 . S
C266 C264 1.561 . S
C267 C264 1.526 . S
C267 C268 1.396 . S
C267 C272 1.390 . S
C268 C262 1.465 . S
C268 C267 1.396 . S
C268 C269 1.399 . S
C269 H255 0.929 . S
C269 C268 1.399 . S
C269 C270 1.385 . S
C270 H256 0.931 . S
C270 C269 1.385 . S
C270 C271 1.389 . S
C271 C270 1.389 . S
C271 C272 1.387 . S
C272 H257 0.930 . S
C272 C267 1.390 . S
C272 C271 1.387 . S
H273 C285 0.930 . S
H274 C287 0.930 . S
H275 C288 0.930 . S
H276 C292 0.959 . S
H277 C292 0.959 . S
H278 C292 0.961 . S
H279 C293 0.960 . S
H280 C293 0.961 . S
H281 C293 0.959 . S
H282 C296 0.929 . S
H283 C297 0.931 . S
H284 C299 0.930 . S
C285 H273 0.930 . S
C285 C286 1.399 . S
C285 C290 1.399 1_554 S
C286 C285 1.399 . S
C286 C287 1.376 . S
C287 H274 0.930 . S
C287 C286 1.376 . S
C287 C288 1.388 . S
C288 H275 0.930 . S
C288 C287 1.388 . S
C288 C289 1.390 1_554 S
C289 C288 1.390 1_556 S
C289 C290 1.394 . S
C289 C295 1.465 . S
C290 C285 1.399 1_556 S
C290 C289 1.394 . S
C290 C291 1.516 . S
C291 C290 1.516 . S
C291 C292 1.502 . S
C291 C293 1.561 . S
C291 C294 1.526 . S
C292 H276 0.959 . S
C292 H277 0.959 . S
C292 H278 0.961 . S
C292 C291 1.502 . S
C293 H279 0.960 . S
C293 H280 0.961 . S
C293 H281 0.959 . S
C293 C291 1.561 . S
C294 C291 1.526 . S
C294 C295 1.396 . S
C294 C299 1.390 . S
C295 C289 1.465 . S
C295 C294 1.396 . S
C295 C296 1.399 . S
C296 H282 0.929 . S
C296 C295 1.399 . S
C296 C297 1.385 . S
C297 H283 0.931 . S
C297 C296 1.385 . S
C297 C298 1.389 . S
C298 C297 1.389 . S
C298 C299 1.387 . S
C299 H284 0.930 . S
C299 C294 1.390 . S
C299 C298 1.387 . S
H300 C312 0.930 . S
H301 C314 0.930 . S
H302 C315 0.930 . S
H303 C319 0.959 . S
H304 C319 0.959 1_565 S
H305 C319 0.961 . S
H306 C320 0.960 . S
H307 C320 0.959 . S
H308 C320 0.959 . S
H309 C323 0.929 . S
H310 C324 0.931 . S
H311 C326 0.930 . S
C312 H300 0.930 . S
C312 C313 1.399 . S
C312 C317 1.399 . S
C313 C312 1.399 . S
C313 C314 1.376 . S
C314 H301 0.930 . S
C314 C313 1.376 . S
C314 C315 1.388 . S
C315 H302 0.930 . S
C315 C314 1.388 . S
C315 C316 1.390 . S
C316 C315 1.390 . S
C316 C317 1.394 . S
C316 C322 1.465 1_545 S
C317 C312 1.399 . S
C317 C316 1.394 . S
C317 C318 1.516 . S
C318 C317 1.516 . S
C318 C319 1.502 . S
C318 C320 1.561 . S
C318 C321 1.526 1_545 S
C319 H303 0.959 . S
C319 H304 0.959 1_545 S
C319 H305 0.961 . S
C319 C318 1.502 . S
C320 H306 0.960 . S
C320 H307 0.959 . S
C320 H308 0.959 . S
C320 C318 1.561 . S
C321 C318 1.526 1_565 S
C321 C322 1.396 . S
C321 C326 1.390 . S
C322 C316 1.465 1_565 S
C322 C321 1.396 . S
C322 C323 1.399 . S
C323 H309 0.929 . S
C323 C322 1.399 . S
C323 C324 1.385 . S
C324 H310 0.931 . S
C324 C323 1.385 . S
C324 C325 1.389 . S
C325 C324 1.389 . S
C325 C326 1.387 . S
C326 H311 0.930 . S
C326 C321 1.390 . S
C326 C325 1.387 . S
H327 C339 0.930 . S
H328 C341 0.930 . S
H329 C342 0.930 . S
H330 C346 0.959 . S
H331 C346 0.959 . S
H332 C346 0.961 . S
H333 C347 0.960 . S
H334 C347 0.961 . S
H335 C347 0.959 . S
H336 C350 0.929 . S
H337 C351 0.931 . S
H338 C353 0.930 . S
C339 H327 0.930 . S
C339 C340 1.399 . S
C339 C344 1.399 . S
C340 C339 1.399 . S
C340 C341 1.376 . S
C341 H328 0.930 . S
C341 C340 1.376 . S
C341 C342 1.388 . S
C342 H329 0.930 . S
C342 C341 1.388 . S
C342 C343 1.390 . S
C343 C342 1.390 . S
C343 C344 1.394 . S
C343 C349 1.465 . S
C344 C339 1.399 . S
C344 C343 1.394 . S
C344 C345 1.516 . S
C345 C344 1.516 . S
C345 C346 1.502 . S
C345 C347 1.561 . S
C345 C348 1.526 . S
C346 H330 0.959 . S
C346 H331 0.959 . S
C346 H332 0.961 . S
C346 C345 1.502 . S
C347 H333 0.960 . S
C347 H334 0.961 . S
C347 H335 0.959 . S
C347 C345 1.561 . S
C348 C345 1.526 . S
C348 C349 1.396 . S
C348 C353 1.390 . S
C349 C343 1.465 . S
C349 C348 1.396 . S
C349 C350 1.399 . S
C350 H336 0.929 . S
C350 C349 1.399 . S
C350 C351 1.385 . S
C351 H337 0.931 . S
C351 C350 1.385 . S
C351 C352 1.389 . S
C352 C351 1.389 . S
C352 C353 1.387 . S
C353 H338 0.930 . S
C353 C348 1.390 . S
C353 C352 1.387 . S
H354 C366 0.930 . S
H355 C368 0.930 . S
H356 C369 0.930 . S
H357 C373 0.959 . S
H358 C373 0.959 1_455 S
H359 C373 0.961 . S
H360 C374 0.960 . S
H361 C374 0.962 . S
H362 C374 0.959 . S
H363 C377 0.929 . S
H364 C378 0.931 . S
H365 C380 0.930 . S
C366 H354 0.930 . S
C366 C367 1.399 . S
C366 C371 1.399 . S
C367 C366 1.399 . S
C367 C368 1.376 . S
C368 H355 0.930 . S
C368 C367 1.376 . S
C368 C369 1.388 . S
C369 H356 0.930 . S
C369 C368 1.388 . S
C369 C370 1.390 . S
C370 C369 1.390 . S
C370 C371 1.394 . S
C370 C376 1.465 1_655 S
C371 C366 1.399 . S
C371 C370 1.394 . S
C371 C372 1.516 . S
C372 C371 1.516 . S
C372 C373 1.502 . S
C372 C374 1.561 . S
C372 C375 1.526 1_655 S
C373 H357 0.959 . S
C373 H358 0.959 1_655 S
C373 H359 0.961 . S
C373 C372 1.502 . S
C374 H360 0.960 . S
C374 H361 0.962 . S
C374 H362 0.959 . S
C374 C372 1.561 . S
C375 C372 1.526 1_455 S
C375 C376 1.396 . S
C375 C380 1.390 . S
C376 C370 1.465 1_455 S
C376 C375 1.396 . S
C376 C377 1.399 . S
C377 H363 0.929 . S
C377 C376 1.399 . S
C377 C378 1.385 . S
C378 H364 0.931 . S
C378 C377 1.385 . S
C378 C379 1.389 . S
C379 C378 1.389 . S
C379 C380 1.387 . S
C380 H365 0.930 . S
C380 C375 1.390 . S
C380 C379 1.387 . S
H381 C393 0.930 . S
H382 C395 0.930 . S
H383 C396 0.930 . S
H384 C400 0.959 . S
H385 C400 0.959 . S
H386 C400 0.961 1_565 S
H387 C401 0.960 1_565 S
H388 C401 0.961 . S
H389 C401 0.959 . S
H390 C404 0.929 . S
H391 C405 0.931 . S
H392 C407 0.930 . S
C393 H381 0.930 . S
C393 C394 1.399 . S
C393 C398 1.399 . S
C394 C393 1.399 . S
C394 C395 1.376 1_554 S
C395 H382 0.930 . S
C395 C394 1.376 1_556 S
C395 C396 1.388 . S
C396 H383 0.930 . S
C396 C395 1.388 . S
C396 C397 1.390 . S
C397 C396 1.390 . S
C397 C398 1.394 1_556 S
C397 C403 1.465 1_565 S
C398 C393 1.399 . S
C398 C397 1.394 1_554 S
C398 C399 1.516 1_565 S
C399 C398 1.516 1_545 S
C399 C400 1.502 . S
C399 C401 1.561 . S
C399 C402 1.526 . S
C400 H384 0.959 . S
C400 H385 0.959 . S
C400 H386 0.961 1_545 S
C400 C399 1.502 . S
C401 H387 0.960 1_545 S
C401 H388 0.961 . S
C401 H389 0.959 . S
C401 C399 1.561 . S
C402 C399 1.526 . S
C402 C403 1.396 1_554 S
C402 C407 1.390 . S
C403 C397 1.465 1_545 S
C403 C402 1.396 1_556 S
C403 C404 1.399 . S
C404 H390 0.929 . S
C404 C403 1.399 . S
C404 C405 1.385 . S
C405 H391 0.931 . S
C405 C404 1.385 . S
C405 C406 1.389 . S
C406 C405 1.389 . S
C406 C407 1.387 1_556 S
C407 H392 0.930 . S
C407 C402 1.390 . S
C407 C406 1.387 1_554 S
H408 C420 0.930 . S
H409 C422 0.930 . S
H410 C423 0.930 . S
H411 C427 0.959 . S
H412 C427 0.959 . S
H413 C427 0.961 . S
H414 C428 0.960 1_556 S
H415 C428 0.961 1_556 S
H416 C428 0.959 . S
H417 C431 0.929 . S
H418 C432 0.931 . S
H419 C434 0.930 . S
C420 H408 0.930 . S
C420 C421 1.399 . S
C420 C425 1.399 . S
C421 C420 1.399 . S
C421 C422 1.376 . S
C422 H409 0.930 . S
C422 C421 1.376 . S
C422 C423 1.388 . S
C423 H410 0.930 . S
C423 C422 1.388 . S
C423 C424 1.390 . S
C424 C423 1.390 . S
C424 C425 1.394 . S
C424 C430 1.465 . S
C425 C420 1.399 . S
C425 C424 1.394 . S
C425 C426 1.516 . S
C426 C425 1.516 . S
C426 C427 1.502 . S
C426 C428 1.561 . S
C426 C429 1.526 . S
C427 H411 0.959 . S
C427 H412 0.959 . S
C427 H413 0.961 . S
C427 C426 1.502 . S
C428 H414 0.960 1_554 S
C428 H415 0.961 1_554 S
C428 H416 0.959 . S
C428 C426 1.561 . S
C429 C426 1.526 . S
C429 C430 1.396 . S
C429 C434 1.390 . S
C430 C424 1.465 . S
C430 C429 1.396 . S
C430 C431 1.399 . S
C431 H417 0.929 . S
C431 C430 1.399 . S
C431 C432 1.385 . S
C432 H418 0.931 . S
C432 C431 1.385 . S
C432 C433 1.389 . S
C433 C432 1.389 . S
C433 C434 1.387 . S
C434 H419 0.930 . S
C434 C429 1.390 . S
C434 C433 1.387 . S
H435 C447 0.930 . S
H436 C449 0.930 . S
H437 C450 0.930 . S
H438 C454 0.959 . S
H439 C454 0.959 . S
H440 C454 0.961 1_655 S
H441 C455 0.960 1_655 S
H442 C455 0.961 . S
H443 C455 0.959 . S
H444 C458 0.929 . S
H445 C459 0.931 . S
H446 C461 0.930 . S
C447 H435 0.930 . S
C447 C448 1.399 . S
C447 C452 1.399 . S
C448 C447 1.399 . S
C448 C449 1.376 . S
C449 H436 0.930 . S
C449 C448 1.376 . S
C449 C450 1.388 . S
C450 H437 0.930 . S
C450 C449 1.388 . S
C450 C451 1.390 . S
C451 C450 1.390 . S
C451 C452 1.394 . S
C451 C457 1.465 1_655 S
C452 C447 1.399 . S
C452 C451 1.394 . S
C452 C453 1.516 1_655 S
C453 C452 1.516 1_455 S
C453 C454 1.502 . S
C453 C455 1.561 . S
C453 C456 1.526 . S
C454 H438 0.959 . S
C454 H439 0.959 . S
C454 H440 0.961 1_455 S
C454 C453 1.502 . S
C455 H441 0.960 1_455 S
C455 H442 0.961 . S
C455 H443 0.959 . S
C455 C453 1.561 . S
C456 C453 1.526 . S
C456 C457 1.396 . S
C456 C461 1.390 . S
C457 C451 1.465 1_455 S
C457 C456 1.396 . S
C457 C458 1.399 . S
C458 H444 0.929 . S
C458 C457 1.399 . S
C458 C459 1.385 . S
C459 H445 0.931 . S
C459 C458 1.385 . S
C459 C460 1.389 . S
C460 C459 1.389 . S
C460 C461 1.387 . S
C461 H446 0.930 . S
C461 C456 1.390 . S
C461 C460 1.387 . S
H462 C474 0.930 . S
H463 C476 0.930 . S
H464 C477 0.930 . S
H465 C481 0.959 . S
H466 C481 0.959 . S
H467 C481 0.961 . S
H468 C482 0.960 . S
H469 C482 0.961 . S
H470 C482 0.959 . S
H471 C485 0.929 . S
H472 C486 0.931 . S
H473 C488 0.930 . S
C474 H462 0.930 . S
C474 C475 1.399 . S
C474 C479 1.399 . S
C475 C474 1.399 . S
C475 C476 1.376 . S
C476 H463 0.930 . S
C476 C475 1.376 . S
C476 C477 1.388 . S
C477 H464 0.930 . S
C477 C476 1.388 . S
C477 C478 1.390 . S
C478 C477 1.390 . S
C478 C479 1.394 . S
C478 C484 1.465 . S
C479 C474 1.399 . S
C479 C478 1.394 . S
C479 C480 1.516 . S
C480 C479 1.516 . S
C480 C481 1.502 . S
C480 C482 1.561 . S
C480 C483 1.526 . S
C481 H465 0.959 . S
C481 H466 0.959 . S
C481 H467 0.961 . S
C481 C480 1.502 . S
C482 H468 0.960 . S
C482 H469 0.961 . S
C482 H470 0.959 . S
C482 C480 1.561 . S
C483 C480 1.526 . S
C483 C484 1.396 . S
C483 C488 1.390 . S
C484 C478 1.465 . S
C484 C483 1.396 . S
C484 C485 1.399 . S
C485 H471 0.929 . S
C485 C484 1.399 . S
C485 C486 1.385 . S
C486 H472 0.931 . S
C486 C485 1.385 . S
C486 C487 1.389 . S
C487 C486 1.389 . S
C487 C488 1.387 . S
C488 H473 0.930 . S
C488 C483 1.390 . S
C488 C487 1.387 . S
H489 C501 0.930 . S
H490 C503 0.930 . S
H491 C504 0.930 . S
H492 C508 0.959 . S
H493 C508 0.959 . S
H494 C508 0.961 . S
H495 C509 0.960 . S
H496 C509 0.961 . S
H497 C509 0.959 . S
H498 C512 0.929 . S
H499 C513 0.931 . S
H500 C515 0.930 . S
C501 H489 0.930 . S
C501 C502 1.399 . S
C501 C506 1.399 . S
C502 C501 1.399 . S
C502 C503 1.376 . S
C503 H490 0.930 . S
C503 C502 1.376 . S
C503 C504 1.388 . S
C504 H491 0.930 . S
C504 C503 1.388 . S
C504 C505 1.390 . S
C505 C504 1.390 . S
C505 C506 1.394 . S
C505 C511 1.465 . S
C506 C501 1.399 . S
C506 C505 1.394 . S
C506 C507 1.516 . S
C507 C506 1.516 . S
C507 C508 1.502 . S
C507 C509 1.561 . S
C507 C510 1.526 . S
C508 H492 0.959 . S
C508 H493 0.959 . S
C508 H494 0.961 . S
C508 C507 1.502 . S
C509 H495 0.960 . S
C509 H496 0.961 . S
C509 H497 0.959 . S
C509 C507 1.561 . S
C510 C507 1.526 . S
C510 C511 1.396 . S
C510 C515 1.390 . S
C511 C505 1.465 . S
C511 C510 1.396 . S
C511 C512 1.399 . S
C512 H498 0.929 . S
C512 C511 1.399 . S
C512 C513 1.385 . S
C513 H499 0.931 . S
C513 C512 1.385 . S
C513 C514 1.389 . S
C514 C513 1.389 . S
C514 C515 1.387 . S
C515 H500 0.930 . S
C515 C510 1.390 . S
C515 C514 1.387 . S
H516 C528 0.930 . S
H517 C530 0.930 . S
H518 C531 0.930 . S
H519 C535 0.959 . S
H520 C535 0.959 . S
H521 C535 0.961 . S
H522 C536 0.960 . S
H523 C536 0.961 . S
H524 C536 0.959 . S
H525 C539 0.929 . S
H526 C540 0.931 . S
H527 C542 0.930 . S
C528 H516 0.930 . S
C528 C529 1.399 . S
C528 C533 1.399 . S
C529 C528 1.399 . S
C529 C530 1.376 . S
C530 H517 0.930 . S
C530 C529 1.376 . S
C530 C531 1.388 . S
C531 H518 0.930 . S
C531 C530 1.388 . S
C531 C532 1.390 . S
C532 C531 1.390 . S
C532 C533 1.394 . S
C532 C538 1.465 . S
C533 C528 1.399 . S
C533 C532 1.394 . S
C533 C534 1.516 . S
C534 C533 1.516 . S
C534 C535 1.502 . S
C534 C536 1.561 . S
C534 C537 1.526 . S
C535 H519 0.959 . S
C535 H520 0.959 . S
C535 H521 0.961 . S
C535 C534 1.502 . S
C536 H522 0.960 . S
C536 H523 0.961 . S
C536 H524 0.959 . S
C536 C534 1.561 . S
C537 C534 1.526 . S
C537 C538 1.396 . S
C537 C542 1.390 . S
C538 C532 1.465 . S
C538 C537 1.396 . S
C538 C539 1.399 . S
C539 H525 0.929 . S
C539 C538 1.399 . S
C539 C540 1.385 . S
C540 H526 0.931 . S
C540 C539 1.385 . S
C540 C541 1.389 . S
C541 C540 1.389 . S
C541 C542 1.387 . S
C542 H527 0.930 . S
C542 C537 1.390 . S
C542 C541 1.387 . S
H543 C555 0.930 . S
H544 C557 0.930 . S
H545 C558 0.930 . S
H546 C562 0.959 . S
H547 C562 0.959 . S
H548 C562 0.961 . S
H549 C563 0.960 . S
H550 C563 0.961 . S
H551 C563 0.959 . S
H552 C566 0.929 1_554 S
H553 C567 0.931 . S
H554 C569 0.930 . S
C555 H543 0.930 . S
C555 C556 1.399 1_556 S
C555 C560 1.399 . S
C556 C555 1.399 1_554 S
C556 C557 1.376 . S
C557 H544 0.930 . S
C557 C556 1.376 . S
C557 C558 1.388 . S
C558 H545 0.930 . S
C558 C557 1.388 . S
C558 C559 1.390 1_554 S
C559 C558 1.390 1_556 S
C559 C560 1.394 . S
C559 C565 1.465 . S
C560 C555 1.399 . S
C560 C559 1.394 . S
C560 C561 1.516 . S
C561 C560 1.516 . S
C561 C562 1.502 . S
C561 C563 1.561 . S
C561 C564 1.526 . S
C562 H546 0.959 . S
C562 H547 0.959 . S
C562 H548 0.961 . S
C562 C561 1.502 . S
C563 H549 0.960 . S
C563 H550 0.961 . S
C563 H551 0.959 . S
C563 C561 1.561 . S
C564 C561 1.526 . S
C564 C565 1.396 . S
C564 C569 1.390 . S
C565 C559 1.465 . S
C565 C564 1.396 . S
C565 C566 1.399 . S
C566 H552 0.929 1_556 S
C566 C565 1.399 . S
C566 C567 1.385 . S
C567 H553 0.931 . S
C567 C566 1.385 . S
C567 C568 1.389 . S
C568 C567 1.389 . S
C568 C569 1.387 . S
C569 H554 0.930 . S
C569 C564 1.390 . S
C569 C568 1.387 . S
H570 C582 0.930 . S
H571 C584 0.930 . S
H572 C585 0.930 . S
H573 C589 0.959 . S
H574 C589 0.959 . S
H575 C589 0.961 . S
H576 C590 0.960 . S
H577 C590 0.961 . S
H578 C590 0.959 . S
H579 C593 0.929 . S
H580 C594 0.931 . S
H581 C596 0.930 . S
C582 H570 0.930 . S
C582 C583 1.399 . S
C582 C587 1.399 . S
C583 C582 1.399 . S
C583 C584 1.376 . S
C584 H571 0.930 . S
C584 C583 1.376 . S
C584 C585 1.388 . S
C585 H572 0.930 . S
C585 C584 1.388 . S
C585 C586 1.390 . S
C586 C585 1.390 . S
C586 C587 1.394 . S
C586 C592 1.465 . S
C587 C582 1.399 . S
C587 C586 1.394 . S
C587 C588 1.516 1_554 S
C588 C587 1.516 1_556 S
C588 C589 1.502 . S
C588 C590 1.561 . S
C588 C591 1.526 1_556 S
C589 H573 0.959 . S
C589 H574 0.959 . S
C589 H575 0.961 . S
C589 C588 1.502 . S
C590 H576 0.960 . S
C590 H577 0.961 . S
C590 H578 0.959 . S
C590 C588 1.561 . S
C591 C588 1.526 1_554 S
C591 C592 1.396 . S
C591 C596 1.390 1_554 S
C592 C586 1.465 . S
C592 C591 1.396 . S
C592 C593 1.399 . S
C593 H579 0.929 . S
C593 C592 1.399 . S
C593 C594 1.385 . S
C594 H580 0.931 . S
C594 C593 1.385 . S
C594 C595 1.389 . S
C595 C594 1.389 . S
C595 C596 1.387 1_554 S
C596 H581 0.930 . S
C596 C591 1.390 1_556 S
C596 C595 1.387 1_556 S
H597 C609 0.930 . S
H598 C611 0.930 . S
H599 C612 0.930 . S
H600 C616 0.959 . S
H601 C616 0.959 . S
H602 C616 0.961 . S
H603 C617 0.960 . S
H604 C617 0.961 . S
H605 C617 0.959 . S
H606 C620 0.929 . S
H607 C621 0.931 . S
H608 C623 0.930 . S
C609 H597 0.930 . S
C609 C610 1.399 . S
C609 C614 1.399 . S
C610 C609 1.399 . S
C610 C611 1.376 . S
C611 H598 0.930 . S
C611 C610 1.376 . S
C611 C612 1.388 . S
C612 H599 0.930 . S
C612 C611 1.388 . S
C612 C613 1.390 . S
C613 C612 1.390 . S
C613 C614 1.394 . S
C613 C619 1.465 . S
C614 C609 1.399 . S
C614 C613 1.394 . S
C614 C615 1.516 . S
C615 C614 1.516 . S
C615 C616 1.502 . S
C615 C617 1.561 . S
C615 C618 1.526 . S
C616 H600 0.959 . S
C616 H601 0.959 . S
C616 H602 0.961 . S
C616 C615 1.502 . S
C617 H603 0.960 . S
C617 H604 0.961 . S
C617 H605 0.959 . S
C617 C615 1.561 . S
C618 C615 1.526 . S
C618 C619 1.396 . S
C618 C623 1.390 . S
C619 C613 1.465 . S
C619 C618 1.396 . S
C619 C620 1.399 . S
C620 H606 0.929 . S
C620 C619 1.399 . S
C620 C621 1.385 . S
C621 H607 0.931 . S
C621 C620 1.385 . S
C621 C622 1.389 . S
C622 C621 1.389 . S
C622 C623 1.387 . S
C623 H608 0.930 . S
C623 C618 1.390 . S
C623 C622 1.387 . S
C151 C17 1.282 . S
C163 C16 1.260 . S
C178 C40 1.277 . S
C190 C39 1.275 1_554 S
C205 C62 1.261 . S
C217 C63 1.283 . S
C232 C85 1.274 . S
C244 C86 1.268 . S
C259 C108 1.263 . S
C271 C109 1.277 1_556 S
C286 C132 1.274 . S
C298 C131 1.279 . S
C313 C20 1.482 . S
C325 C136 1.459 . S
C340 C21 1.471 . S
C352 C43 1.483 . S
C367 C66 1.482 . S
C379 C44 1.457 . S
C394 C89 1.492 . S
C406 C67 1.476 . S
C421 C112 1.482 . S
C433 C90 1.457 . S
C448 C113 1.484 . S
C460 C135 1.485 . S
C475 C19 1.650 . S
C487 C110 1.646 . S
C502 C42 1.621 . S
C514 C133 1.656 . S
C529 C65 1.648 . S
C541 C18 1.647 . S
C556 C88 1.634 . S
C568 C41 1.650 . S
C583 C111 1.635 . S
C595 C64 1.650 1_554 S
C610 C87 1.655 . S
C622 C134 1.621 . S
