# Generated by pormake.
# Topology sxg, (6)-cn, num edge types: 1
# Building blocks:
#     Node 0, Type 0, BuildingBlock: PAMTUU_clean_sbu_0, # of connection points: 6
#     Node 1, Type 0, BuildingBlock: PAMTUU_clean_sbu_0, # of connection points: 6
#     Node 2, Type 0, BuildingBlock: PAMTUU_clean_sbu_0, # of connection points: 6
#     Node 3, Type 0, BuildingBlock: PAMTUU_clean_sbu_0, # of connection points: 6
#     Node 4, Type 0, BuildingBlock: PAMTUU_clean_sbu_0, # of connection points: 6
#     Node 5, Type 0, BuildingBlock: PAMTUU_clean_sbu_0, # of connection points: 6
#     Node 6, Type 0, BuildingBlock: PAMTUU_clean_sbu_0, # of connection points: 6
#     Node 7, Type 0, BuildingBlock: PAMTUU_clean_sbu_0, # of connection points: 6
#     Node 8, Type 0, BuildingBlock: PAMTUU_clean_sbu_0, # of connection points: 6
#     Node 9, Type 0, BuildingBlock: PAMTUU_clean_sbu_0, # of connection points: 6
#     Node 10, Type 0, BuildingBlock: PAMTUU_clean_sbu_0, # of connection points: 6
#     Node 11, Type 0, BuildingBlock: PAMTUU_clean_sbu_0, # of connection points: 6
#     Node 12, Type 0, BuildingBlock: PAMTUU_clean_sbu_0, # of connection points: 6
#     Node 13, Type 0, BuildingBlock: PAMTUU_clean_sbu_0, # of connection points: 6
#     Node 14, Type 0, BuildingBlock: PAMTUU_clean_sbu_0, # of connection points: 6
#     Node 15, Type 0, BuildingBlock: PAMTUU_clean_sbu_0, # of connection points: 6
#     Node 16, Type 0, BuildingBlock: PAMTUU_clean_sbu_0, # of connection points: 6
#     Node 17, Type 0, BuildingBlock: PAMTUU_clean_sbu_0, # of connection points: 6
#     Node 18, Type 0, BuildingBlock: PAMTUU_clean_sbu_0, # of connection points: 6
#     Node 19, Type 0, BuildingBlock: PAMTUU_clean_sbu_0, # of connection points: 6
#     Node 20, Type 0, BuildingBlock: PAMTUU_clean_sbu_0, # of connection points: 6
#     Node 21, Type 0, BuildingBlock: PAMTUU_clean_sbu_0, # of connection points: 6
#     Node 22, Type 0, BuildingBlock: PAMTUU_clean_sbu_0, # of connection points: 6
#     Node 23, Type 0, BuildingBlock: PAMTUU_clean_sbu_0, # of connection points: 6
#     Edge 24, Type (0, 0), BuildingBlock: XUDNAN_clean_linker_2, # of connection points: 2
#     Edge 25, Type (0, 0), BuildingBlock: XUDNAN_clean_linker_2, # of connection points: 2
#     Edge 26, Type (0, 0), BuildingBlock: XUDNAN_clean_linker_2, # of connection points: 2
#     Edge 27, Type (0, 0), BuildingBlock: XUDNAN_clean_linker_2, # of connection points: 2
#     Edge 28, Type (0, 0), BuildingBlock: XUDNAN_clean_linker_2, # of connection points: 2
#     Edge 29, Type (0, 0), BuildingBlock: XUDNAN_clean_linker_2, # of connection points: 2
#     Edge 30, Type (0, 0), BuildingBlock: XUDNAN_clean_linker_2, # of connection points: 2
#     Edge 31, Type (0, 0), BuildingBlock: XUDNAN_clean_linker_2, # of connection points: 2
#     Edge 32, Type (0, 0), BuildingBlock: XUDNAN_clean_linker_2, # of connection points: 2
#     Edge 33, Type (0, 0), BuildingBlock: XUDNAN_clean_linker_2, # of connection points: 2
#     Edge 34, Type (0, 0), BuildingBlock: XUDNAN_clean_linker_2, # of connection points: 2
#     Edge 35, Type (0, 0), BuildingBlock: XUDNAN_clean_linker_2, # of connection points: 2
#     Edge 36, Type (0, 0), BuildingBlock: XUDNAN_clean_linker_2, # of connection points: 2
#     Edge 37, Type (0, 0), BuildingBlock: XUDNAN_clean_linker_2, # of connection points: 2
#     Edge 38, Type (0, 0), BuildingBlock: XUDNAN_clean_linker_2, # of connection points: 2
#     Edge 39, Type (0, 0), BuildingBlock: XUDNAN_clean_linker_2, # of connection points: 2
#     Edge 40, Type (0, 0), BuildingBlock: XUDNAN_clean_linker_2, # of connection points: 2
#     Edge 41, Type (0, 0), BuildingBlock: XUDNAN_clean_linker_2, # of connection points: 2
#     Edge 42, Type (0, 0), BuildingBlock: XUDNAN_clean_linker_2, # of connection points: 2
#     Edge 43, Type (0, 0), BuildingBlock: XUDNAN_clean_linker_2, # of connection points: 2
#     Edge 44, Type (0, 0), BuildingBlock: XUDNAN_clean_linker_2, # of connection points: 2
#     Edge 45, Type (0, 0), BuildingBlock: XUDNAN_clean_linker_2, # of connection points: 2
#     Edge 46, Type (0, 0), BuildingBlock: XUDNAN_clean_linker_2, # of connection points: 2
#     Edge 47, Type (0, 0), BuildingBlock: XUDNAN_clean_linker_2, # of connection points: 2
#     Edge 48, Type (0, 0), BuildingBlock: XUDNAN_clean_linker_2, # of connection points: 2
#     Edge 49, Type (0, 0), BuildingBlock: XUDNAN_clean_linker_2, # of connection points: 2
#     Edge 50, Type (0, 0), BuildingBlock: XUDNAN_clean_linker_2, # of connection points: 2
#     Edge 51, Type (0, 0), BuildingBlock: XUDNAN_clean_linker_2, # of connection points: 2
#     Edge 52, Type (0, 0), BuildingBlock: XUDNAN_clean_linker_2, # of connection points: 2
#     Edge 53, Type (0, 0), BuildingBlock: XUDNAN_clean_linker_2, # of connection points: 2
#     Edge 54, Type (0, 0), BuildingBlock: XUDNAN_clean_linker_2, # of connection points: 2
#     Edge 55, Type (0, 0), BuildingBlock: XUDNAN_clean_linker_2, # of connection points: 2
#     Edge 56, Type (0, 0), BuildingBlock: XUDNAN_clean_linker_2, # of connection points: 2
#     Edge 57, Type (0, 0), BuildingBlock: XUDNAN_clean_linker_2, # of connection points: 2
#     Edge 58, Type (0, 0), BuildingBlock: XUDNAN_clean_linker_2, # of connection points: 2
#     Edge 59, Type (0, 0), BuildingBlock: XUDNAN_clean_linker_2, # of connection points: 2
#     Edge 60, Type (0, 0), BuildingBlock: XUDNAN_clean_linker_2, # of connection points: 2
#     Edge 61, Type (0, 0), BuildingBlock: XUDNAN_clean_linker_2, # of connection points: 2
#     Edge 62, Type (0, 0), BuildingBlock: XUDNAN_clean_linker_2, # of connection points: 2
#     Edge 63, Type (0, 0), BuildingBlock: XUDNAN_clean_linker_2, # of connection points: 2
#     Edge 64, Type (0, 0), BuildingBlock: XUDNAN_clean_linker_2, # of connection points: 2
#     Edge 65, Type (0, 0), BuildingBlock: XUDNAN_clean_linker_2, # of connection points: 2
#     Edge 66, Type (0, 0), BuildingBlock: XUDNAN_clean_linker_2, # of connection points: 2
#     Edge 67, Type (0, 0), BuildingBlock: XUDNAN_clean_linker_2, # of connection points: 2
#     Edge 68, Type (0, 0), BuildingBlock: XUDNAN_clean_linker_2, # of connection points: 2
#     Edge 69, Type (0, 0), BuildingBlock: XUDNAN_clean_linker_2, # of connection points: 2
#     Edge 70, Type (0, 0), BuildingBlock: XUDNAN_clean_linker_2, # of connection points: 2
#     Edge 71, Type (0, 0), BuildingBlock: XUDNAN_clean_linker_2, # of connection points: 2
#     Edge 72, Type (0, 0), BuildingBlock: XUDNAN_clean_linker_2, # of connection points: 2
#     Edge 73, Type (0, 0), BuildingBlock: XUDNAN_clean_linker_2, # of connection points: 2
#     Edge 74, Type (0, 0), BuildingBlock: XUDNAN_clean_linker_2, # of connection points: 2
#     Edge 75, Type (0, 0), BuildingBlock: XUDNAN_clean_linker_2, # of connection points: 2
#     Edge 76, Type (0, 0), BuildingBlock: XUDNAN_clean_linker_2, # of connection points: 2
#     Edge 77, Type (0, 0), BuildingBlock: XUDNAN_clean_linker_2, # of connection points: 2
#     Edge 78, Type (0, 0), BuildingBlock: XUDNAN_clean_linker_2, # of connection points: 2
#     Edge 79, Type (0, 0), BuildingBlock: XUDNAN_clean_linker_2, # of connection points: 2
#     Edge 80, Type (0, 0), BuildingBlock: XUDNAN_clean_linker_2, # of connection points: 2
#     Edge 81, Type (0, 0), BuildingBlock: XUDNAN_clean_linker_2, # of connection points: 2
#     Edge 82, Type (0, 0), BuildingBlock: XUDNAN_clean_linker_2, # of connection points: 2
#     Edge 83, Type (0, 0), BuildingBlock: XUDNAN_clean_linker_2, # of connection points: 2
#     Edge 84, Type (0, 0), BuildingBlock: XUDNAN_clean_linker_2, # of connection points: 2
#     Edge 85, Type (0, 0), BuildingBlock: XUDNAN_clean_linker_2, # of connection points: 2
#     Edge 86, Type (0, 0), BuildingBlock: XUDNAN_clean_linker_2, # of connection points: 2
#     Edge 87, Type (0, 0), BuildingBlock: XUDNAN_clean_linker_2, # of connection points: 2
#     Edge 88, Type (0, 0), BuildingBlock: XUDNAN_clean_linker_2, # of connection points: 2
#     Edge 89, Type (0, 0), BuildingBlock: XUDNAN_clean_linker_2, # of connection points: 2
#     Edge 90, Type (0, 0), BuildingBlock: XUDNAN_clean_linker_2, # of connection points: 2
#     Edge 91, Type (0, 0), BuildingBlock: XUDNAN_clean_linker_2, # of connection points: 2
#     Edge 92, Type (0, 0), BuildingBlock: XUDNAN_clean_linker_2, # of connection points: 2
#     Edge 93, Type (0, 0), BuildingBlock: XUDNAN_clean_linker_2, # of connection points: 2
#     Edge 94, Type (0, 0), BuildingBlock: XUDNAN_clean_linker_2, # of connection points: 2
#     Edge 95, Type (0, 0), BuildingBlock: XUDNAN_clean_linker_2, # of connection points: 2
# Relax obj value: 0.210
# Max RMSD: 0.270
# Mean RMSD: 0.244
data_MOF--net-sxg--node1-PAMTUU_clean_sbu_0--edge1-XUDNAN_clean_linker_2
_symmetry_space_group_name_H-M    P1
_symmetry_Int_Tables_number       1
_symmetry_cell_setting            triclinic
loop_
_symmetry_equiv_pos_as_xyz
'x, y, z'
_cell_length_a     50.347577
_cell_length_b     56.06263
_cell_length_c     50.821154
_cell_angle_alpha  86.575411
_cell_angle_beta   98.313935
_cell_angle_gamma 85.923013
loop_
_atom_site_label
_atom_site_type_symbol
_atom_site_fract_x
_atom_site_fract_y
_atom_site_fract_z
_atom_type_partial_charge
Tb0 Tb 1.01283 0.25795 0.23319 0.0
Tb1 Tb 1.0041 0.31612 0.22668 0.0
C2 C 0.97964 0.28509 0.18223 0.0
C3 C 0.04547 0.19708 0.25577 0.0
C4 C 0.08732 0.1658 0.28561 0.0
C5 C 0.06328 0.15703 0.27361 0.0
C6 C 0.04263 0.17249 0.25901 0.0
C7 C 0.06952 0.20607 0.2673 0.0
C8 C 0.09028 0.19057 0.28206 0.0
C9 C 1.02291 0.21293 0.24075 0.0
O10 O 0.04314 0.26965 0.20936 0.0
O11 O 0.04382 0.31031 0.21421 0.0
O12 O 0.02625 0.30726 0.26597 0.0
O13 O 0.04658 0.27113 0.25799 0.0
O14 O 0.97894 0.34422 0.20574 0.0
O15 O 1.01219 0.35134 0.23549 0.0
O16 O 0.9719 0.30392 0.24785 0.0
O17 O 0.99234 0.26824 0.26686 0.0
O18 O 0.97917 0.26696 0.19995 0.0
O19 O 0.99579 0.30186 0.18801 0.0
C20 C 0.05429 0.29014 0.20648 0.0
O21 O 1.00853 0.22567 0.25492 0.0
O22 O 0.02803 0.22554 0.22002 0.0
C23 C 0.04583 0.29025 0.27155 0.0
C24 C 0.97169 0.37702 0.23095 0.0
C25 C 0.93411 0.40786 0.25094 0.0
C26 C 0.95866 0.39992 0.26686 0.0
C27 C 0.97732 0.38447 0.25698 0.0
C28 C 0.9473 0.38536 0.21501 0.0
C29 C 0.92867 0.4005 0.22492 0.0
C30 C 0.99041 0.36034 0.21991 0.0
C31 C 0.97494 0.28681 0.26724 0.0
H32 H 0.06039 0.13808 0.27533 0.0
H33 H 0.02431 0.16518 0.25025 0.0
H34 H 0.07216 0.22505 0.26508 0.0
H35 H 0.10837 0.19805 0.29112 0.0
H36 H 0.96322 0.40539 0.287 0.0
H37 H 0.99599 0.37832 0.26973 0.0
H38 H 0.94253 0.38004 0.19482 0.0
H39 H 0.91007 0.40671 0.21206 0.0
Tb40 Tb 0.42151 0.72875 0.77957 0.0
Tb41 Tb 0.44913 0.68501 0.75078 0.0
C42 C 0.45991 0.73626 0.73653 0.0
C43 C 0.39462 0.78914 0.80434 0.0
C44 C 0.37781 0.83639 0.81657 0.0
C45 C 0.40485 0.82999 0.8141 0.0
C46 C 0.41313 0.80677 0.80816 0.0
C47 C 0.3673 0.79587 0.80525 0.0
C48 C 0.35897 0.81921 0.81112 0.0
C49 C 0.40447 0.76328 0.80473 0.0
O50 O 0.39166 0.72792 0.74481 0.0
O51 O 0.41207 0.69814 0.72322 0.0
O52 O 0.41712 0.66829 0.76608 0.0
O53 O 0.41194 0.69373 0.79903 0.0
O54 O 0.46285 0.67559 0.71556 0.0
O55 O 0.46683 0.65015 0.75004 0.0
O56 O 0.47449 0.68501 0.79015 0.0
O57 O 0.46339 0.7239 0.79807 0.0
O58 O 0.43648 0.74372 0.74328 0.0
O59 O 0.47165 0.71584 0.74702 0.0
C60 C 0.39197 0.7144 0.72468 0.0
O61 O 0.38896 0.7479 0.79353 0.0
O62 O 0.42951 0.75824 0.80204 0.0
C63 C 0.40831 0.67278 0.78831 0.0
C64 C 0.5031 0.65089 0.72516 0.0
C65 C 0.55839 0.64625 0.7222 0.0
C66 C 0.54907 0.63956 0.74605 0.0
C67 C 0.52162 0.64192 0.74757 0.0
C68 C 0.51251 0.65724 0.70122 0.0
C69 C 0.53996 0.65487 0.69974 0.0
C70 C 0.47425 0.65514 0.72685 0.0
C71 C 0.47964 0.70434 0.80293 0.0
H72 H 0.41989 0.84279 0.81749 0.0
H73 H 0.43438 0.80237 0.80786 0.0
H74 H 0.35253 0.78273 0.80277 0.0
H75 H 0.33798 0.82336 0.81282 0.0
H76 H 0.56304 0.63276 0.76358 0.0
H77 H 0.51504 0.63698 0.76638 0.0
H78 H 0.49864 0.66429 0.68371 0.0
H79 H 0.54679 0.65966 0.681 0.0
Tb80 Tb 0.59712 0.20719 0.77249 0.0
Tb81 Tb 0.57919 0.16692 0.81099 0.0
C82 C 0.56003 0.21788 0.81514 0.0
C83 C 0.62624 0.26035 0.74262 0.0
C84 C 0.65562 0.2992 0.73177 0.0
C85 C 0.62762 0.30259 0.73114 0.0
C86 C 0.61304 0.28327 0.73653 0.0
C87 C 0.65445 0.25725 0.74529 0.0
C88 C 0.66906 0.27663 0.73988 0.0
C89 C 0.61001 0.2398 0.7421 0.0
O90 O 0.63238 0.20027 0.80241 0.0
O91 O 0.61131 0.18515 0.83605 0.0
O92 O 0.61299 0.1506 0.7949 0.0
O93 O 0.60499 0.17262 0.75526 0.0
O94 O 0.56143 0.15784 0.84499 0.0
O95 O 0.57483 0.13069 0.82032 0.0
O96 O 0.55087 0.16647 0.77307 0.0
O97 O 0.55688 0.20315 0.75361 0.0
O98 O 0.58236 0.22381 0.80673 0.0
O99 O 0.55089 0.19773 0.80834 0.0
C100 C 0.63196 0.19558 0.82787 0.0
O101 O 0.62274 0.21853 0.7463 0.0
O102 O 0.58866 0.24169 0.75382 0.0
C103 C 0.61513 0.15286 0.76955 0.0
C104 C 0.53271 0.12682 0.83494 0.0
C105 C 0.48111 0.10917 0.82834 0.0
C106 C 0.49707 0.10824 0.80786 0.0
C107 C 0.52251 0.11694 0.81108 0.0
C108 C 0.51641 0.12864 0.85505 0.0
C109 C 0.49082 0.11992 0.85179 0.0
C110 C 0.55993 0.13573 0.83855 0.0
C111 C 0.54339 0.1842 0.75447 0.0
H112 H 0.61669 0.31977 0.72464 0.0
H113 H 0.59128 0.28598 0.73428 0.0
H114 H 0.66511 0.23972 0.75012 0.0
H115 H 0.69069 0.27374 0.74078 0.0
H116 H 0.48991 0.10071 0.78924 0.0
H117 H 0.53419 0.11579 0.79483 0.0
H118 H 0.52359 0.13659 0.8734 0.0
H119 H 0.479 0.12098 0.86793 0.0
Tb120 Tb 0.99777 0.7794 0.28644 0.0
Tb121 Tb 0.02624 0.83099 0.29838 0.0
C122 C 0.03814 0.78571 0.33992 0.0
C123 C 0.95551 0.72412 0.27021 0.0
C124 C 0.91896 0.6876 0.26077 0.0
C125 C 0.93951 0.68562 0.28305 0.0
C126 C 0.95728 0.70355 0.28772 0.0
C127 C 0.93516 0.72625 0.24777 0.0
C128 C 0.91706 0.7083 0.24318 0.0
C129 C 0.9778 0.74053 0.2732 0.0
O130 O 0.97608 0.79364 0.31599 0.0
O131 O 0.98984 0.83233 0.31832 0.0
O132 O 0.99702 0.83847 0.26243 0.0
O133 O 0.96818 0.80943 0.26944 0.0
O134 O 0.0588 0.84623 0.31934 0.0
O135 O 0.02703 0.86881 0.29474 0.0
O136 O 0.05253 0.81329 0.27291 0.0
O137 O 0.02677 0.78282 0.2591 0.0
O138 O 0.02965 0.77103 0.32151 0.0
O139 O 0.03455 0.80897 0.33533 0.0
C140 C 0.97432 0.81526 0.32454 0.0
O141 O 0.97644 0.7598 0.25725 0.0
O142 O 0.99038 0.74367 0.29689 0.0
C143 C 0.97287 0.83059 0.25895 0.0
C144 C 0.07088 0.88393 0.30302 0.0
C145 C 0.11122 0.91634 0.29936 0.0
C146 C 0.08387 0.9247 0.29706 0.0
C147 C 0.06401 0.90869 0.29889 0.0
C148 C 0.09809 0.87541 0.30443 0.0
C149 C 0.11799 0.89143 0.3026 0.0
C150 C 0.0503 0.86801 0.31008 0.0
C151 C 0.0474 0.79561 0.25744 0.0
H152 H 0.9425 0.6698 0.29676 0.0
H153 H 0.97316 0.70082 0.30469 0.0
H154 H 0.93356 0.74154 0.23339 0.0
H155 H 0.90159 0.7107 0.22587 0.0
H156 H 0.07783 0.94372 0.29497 0.0
H157 H 0.04331 0.91579 0.29821 0.0
H158 H 0.10419 0.85643 0.30784 0.0
H159 H 0.13875 0.88426 0.30405 0.0
Tb160 Tb 0.30319 0.0569 0.34494 0.0
Tb161 Tb 0.28919 0.0191 0.39405 0.0
C162 C 0.26583 0.01358 0.33595 0.0
C163 C 0.31869 0.09978 0.28452 0.0
C164 C 0.32691 0.13165 0.24157 0.0
C165 C 0.31305 0.11092 0.23704 0.0
C166 C 0.30866 0.09542 0.25825 0.0
C167 C 0.33345 0.11983 0.28926 0.0
C168 C 0.33734 0.13573 0.26804 0.0
C169 C 0.31294 0.0839 0.30687 0.0
O170 O 0.27067 0.07557 0.36045 0.0
O171 O 0.25279 0.04319 0.37928 0.0
O172 O 0.30593 0.04951 0.41422 0.0
O173 O 0.31768 0.07503 0.38107 0.0
O174 O 0.25886 1.00181 0.41026 0.0
O175 O 0.30018 0.99714 0.42967 0.0
O176 O 0.3234 0.99953 0.38016 0.0
O177 O 0.33125 0.02536 0.34534 0.0
O178 O 0.26957 0.03602 0.32907 0.0
O179 O 0.27987 1.00238 0.35725 0.0
C180 C 0.25036 0.06548 0.36857 0.0
O181 O 0.32989 0.07906 0.3288 0.0
O182 O 0.29073 0.07319 0.30614 0.0
C183 C 0.31539 0.06975 0.4063 0.0
C184 C 0.27231 0.96448 0.43549 0.0
C185 C 0.26509 0.91652 0.45381 0.0
C186 C 0.29065 0.92337 0.44938 0.0
C187 C 0.29424 0.94701 0.44051 0.0
C188 C 0.24665 0.95749 0.43875 0.0
C189 C 0.24307 0.93395 0.44779 0.0
C190 C 0.27582 0.99037 0.42947 0.0
C191 C 0.336 1.00476 0.35975 0.0
H192 H 0.30548 0.10652 0.21704 0.0
H193 H 0.29746 0.07993 0.25406 0.0
H194 H 0.34131 0.12358 0.30945 0.0
H195 H 0.3479 0.15149 0.27254 0.0
H196 H 0.30809 0.91053 0.45301 0.0
H197 H 0.31431 0.95167 0.43814 0.0
H198 H 0.22934 0.97053 0.43518 0.0
H199 H 0.22308 0.92981 0.45105 0.0
Tb200 Tb 0.24782 0.02919 0.82433 0.0
Tb201 Tb 0.27843 0.0428 0.88022 0.0
C202 C 0.29923 0.05708 0.82928 0.0
C203 C 0.22037 0.99124 0.77734 0.0
C204 C 0.2279 0.94203 0.77214 0.0
C205 C 0.22647 0.95841 0.74977 0.0
C206 C 0.22293 0.98293 0.75242 0.0
C207 C 0.22049 0.97484 0.79943 0.0
C208 C 0.22415 0.95039 0.79683 0.0
C209 C 0.22381 0.01624 0.78191 0.0
O210 O 0.27157 0.99622 0.839 0.0
O211 O 0.30317 1.01147 0.86941 0.0
O212 O 0.26084 1.01053 0.89027 0.0
O213 O 0.22665 0.01354 0.85517 0.0
O214 O 0.31282 0.05499 0.90217 0.0
O215 O 0.27782 0.04731 0.9206 0.0
O216 O 0.23999 0.06542 0.87175 0.0
O217 O 0.23552 0.06649 0.8265 0.0
O218 O 0.28764 0.03912 0.81852 0.0
O219 O 0.29034 0.06626 0.8496 0.0
C220 C 0.29501 0.99403 0.8544 0.0
O221 O 0.21115 0.02487 0.80035 0.0
O222 O 0.24889 0.02122 0.78475 0.0
C223 C 0.23798 1.00393 0.87871 0.0
C224 C 0.30033 0.08073 0.93371 0.0
C225 C 0.29956 0.1252 0.95593 0.0
C226 C 0.27607 0.11798 0.94129 0.0
C227 C 0.27647 0.09593 0.93011 0.0
C228 C 0.32399 0.08824 0.94751 0.0
C229 C 0.32365 0.11039 0.95855 0.0
C230 C 0.30071 0.05711 0.92304 0.0
C231 C 0.22882 0.07512 0.8481 0.0
H232 H 0.22876 0.9523 0.73034 0.0
H233 H 0.22352 0.99539 0.73541 0.0
H234 H 0.21927 0.98092 0.81907 0.0
H235 H 0.22528 0.93814 0.81434 0.0
H236 H 0.2574 0.12932 0.9386 0.0
H237 H 0.25805 0.09066 0.919 0.0
H238 H 0.34261 0.07682 0.95007 0.0
H239 H 0.34202 0.11562 0.96979 0.0
Tb240 Tb 0.78893 0.56535 0.683 0.0
Tb241 Tb 0.73663 0.54355 0.65361 0.0
C242 C 0.79343 0.52324 0.64846 0.0
C243 C 0.84273 0.60527 0.6993 0.0
C244 C 0.86831 0.64763 0.69488 0.0
C245 C 0.87438 0.62855 0.67958 0.0
C246 C 0.86185 0.60745 0.68194 0.0
C247 C 0.83549 0.62487 0.71343 0.0
C248 C 0.84825 0.64593 0.71125 0.0
C249 C 0.83117 0.58234 0.70304 0.0
O250 O 0.78006 0.58278 0.64285 0.0
O251 O 0.73456 0.58017 0.63582 0.0
O252 O 0.72503 0.56251 0.68623 0.0
O253 O 0.75563 0.59069 0.6875 0.0
O254 O 0.7165 0.53112 0.61859 0.0
O255 O 0.69827 0.53155 0.65449 0.0
O256 O 0.75434 0.51609 0.68519 0.0
O257 O 0.77548 0.54196 0.71291 0.0
O258 O 0.80157 0.5303 0.67198 0.0
O259 O 0.77084 0.53265 0.63472 0.0
C260 C 0.75591 0.59075 0.6308 0.0
O261 O 0.80945 0.58253 0.71433 0.0
O262 O 0.8297 0.56921 0.68263 0.0
C263 C 0.73261 0.58349 0.69254 0.0
C264 C 0.69561 0.49725 0.63156 0.0
C265 C 0.6938 0.44841 0.64516 0.0
C266 C 0.67007 0.46381 0.64127 0.0
C267 C 0.67101 0.48815 0.63456 0.0
C268 C 0.71914 0.48167 0.6342 0.0
C269 C 0.7182 0.45737 0.64083 0.0
C270 C 0.69782 0.52305 0.63118 0.0
C271 C 0.7656 0.52123 0.709 0.0
H272 H 0.88977 0.62954 0.66678 0.0
H273 H 0.86774 0.5926 0.67075 0.0
H274 H 0.82073 0.62369 0.7269 0.0
H275 H 0.84358 0.66027 0.72363 0.0
H276 H 0.651 0.45717 0.64443 0.0
H277 H 0.65285 0.50004 0.63318 0.0
H278 H 0.73853 0.48847 0.63271 0.0
H279 H 0.7368 0.4459 0.64416 0.0
Tb280 Tb 0.7314 0.55364 0.22644 0.0
Tb281 Tb 0.76139 0.52348 0.18029 0.0
C282 C 0.77735 0.51286 0.24076 0.0
C283 C 0.71052 0.59346 0.28283 0.0
C284 C 0.70246 0.62413 0.32508 0.0
C285 C 0.70427 0.59888 0.32922 0.0
C286 C 0.70807 0.58392 0.30855 0.0
C287 C 0.71004 0.61867 0.27887 0.0
C288 C 0.70624 0.63373 0.29966 0.0
C289 C 0.70865 0.57741 0.25984 0.0
O290 O 0.76642 0.57283 0.22113 0.0
O291 O 0.79107 0.54873 0.1958 0.0
O292 O 0.74632 0.55838 0.16132 0.0
O293 O 0.71198 0.5664 0.18566 0.0
O294 O 0.79357 0.50072 0.17067 0.0
O295 O 0.75832 0.51127 0.14171 0.0
O296 O 0.7227 0.50848 0.18342 0.0
O297 O 0.71418 0.51829 0.22492 0.0
O298 O 0.76929 0.53465 0.24612 0.0
O299 O 0.76756 0.5038 0.21863 0.0
C300 C 0.78812 0.56759 0.21016 0.0
O301 O 0.712 0.58598 0.23624 0.0
O302 O 0.71769 0.5549 0.26394 0.0
C303 C 0.72426 0.57096 0.1647 0.0
C304 C 0.78248 0.4739 0.13587 0.0
C305 C 0.78335 0.43054 0.1085 0.0
C306 C 0.76122 0.43805 0.12119 0.0
C307 C 0.7607 0.45944 0.13442 0.0
C308 C 0.80506 0.46598 0.1244 0.0
C309 C 0.80552 0.44473 0.11092 0.0
C310 C 0.78127 0.49823 0.14664 0.0
C311 C 0.71209 0.50368 0.2053 0.0
H312 H 0.7022 0.59049 0.34848 0.0
H313 H 0.70799 0.56473 0.31251 0.0
H314 H 0.71147 0.6269 0.25935 0.0
H315 H 0.70498 0.65296 0.29535 0.0
H316 H 0.74394 0.42756 0.12071 0.0
H317 H 0.74298 0.46495 0.14297 0.0
H318 H 0.82214 0.47677 0.12504 0.0
H319 H 0.82292 0.44004 0.10148 0.0
Tb320 Tb 0.34321 0.30602 0.08965 0.0
Tb321 Tb 0.39466 0.27915 0.06257 0.0
C322 C 0.33595 0.27083 0.04489 0.0
C323 C 0.27723 0.31627 0.11806 0.0
C324 C 0.22774 0.30585 0.13616 0.0
C325 C 0.23654 0.29456 0.11442 0.0
C326 C 0.26092 0.29959 0.1056 0.0
C327 C 0.26862 0.32751 0.13972 0.0
C328 C 0.2443 0.32239 0.14867 0.0
C329 C 0.30195 0.32374 0.10763 0.0
O330 O 0.35446 0.27246 0.11357 0.0
O331 O 0.38254 0.2511 0.08915 0.0
O332 O 0.41169 0.2884 0.10185 0.0
O333 O 0.38093 0.31907 0.10921 0.0
O334 O 0.40812 0.2509 0.04084 0.0
O335 O 0.43398 0.27862 0.05322 0.0
O336 O 0.38917 0.31597 0.04556 0.0
O337 O 0.34636 0.32827 0.05314 0.0
O338 O 0.32947 0.27596 0.06804 0.0
O339 O 0.35685 0.27952 0.03644 0.0
C340 C 0.36843 0.25278 0.10901 0.0
O341 O 0.3253 0.31806 0.12227 0.0
O342 O 0.30326 0.32133 0.08249 0.0
C343 C 0.40489 0.30689 0.11488 0.0
C344 C 0.44149 0.25991 1.01349 0.0
C345 C 0.46824 0.25771 0.96795 0.0
C346 C 0.46317 0.27969 0.97918 0.0
C347 C 0.45009 0.28077 1.0017 0.0
C348 C 0.4453 0.23819 1.00159 0.0
C349 C 0.45851 0.23706 0.97917 0.0
C350 C 0.43121 0.25975 0.03951 0.0
C351 C 0.367 0.33041 0.04005 0.0
H352 H 0.22437 0.28204 0.10377 0.0
H353 H 0.26674 0.2907 0.08872 0.0
H354 H 0.28063 0.34056 0.14962 0.0
H355 H 0.23868 0.33128 0.16561 0.0
H356 H 0.46962 0.29612 0.9708 0.0
H357 H 0.44734 0.29786 1.01023 0.0
H358 H 0.43894 0.22182 1.01027 0.0
H359 H 0.46205 0.21975 0.97139 0.0
Tb360 Tb 0.83931 0.24872 0.97254 0.0
Tb361 Tb 0.83745 0.30169 0.94363 0.0
C362 C 0.87519 0.26096 0.92932 0.0
C363 C 0.84114 0.19249 1.01959 0.0
C364 C 0.845 0.15823 0.06317 0.0
C365 C 0.86718 0.17122 0.05911 0.0
C366 C 0.86532 0.18818 0.0374 0.0
C367 C 0.81878 0.18025 1.02427 0.0
C368 C 0.82066 0.16329 0.04569 0.0
C369 C 0.8391 0.20715 0.99428 0.0
O370 O 0.87346 0.26303 0.99527 0.0
O371 O 0.86394 0.30332 0.98268 0.0
O372 O 0.80707 0.30675 0.96886 0.0
O373 O 0.8236 0.27525 0.99922 0.0
O374 O 0.84366 0.31817 0.90718 0.0
O375 O 0.83625 0.33945 0.94002 0.0
O376 O 0.80327 0.28475 0.92078 0.0
O377 O 0.80197 0.24948 0.94572 0.0
O378 O 0.85842 0.24538 0.93572 0.0
O379 O 0.87468 0.28111 0.94074 0.0
C380 C 0.87704 0.28557 0.9992 0.0
O381 O 0.81781 0.22214 0.98814 0.0
O382 O 0.86065 0.21581 0.98726 0.0
C383 C 0.80981 0.29648 0.99299 0.0
C384 C 0.82569 0.35873 0.89596 0.0
C385 C 0.80515 0.39669 0.85734 0.0
C386 C 0.81832 0.40132 0.88271 0.0
C387 C 0.82826 0.38264 0.90172 0.0
C388 C 0.81241 0.35384 0.87074 0.0
C389 C 0.80217 0.37265 0.85164 0.0
C390 C 0.8404 0.33972 0.91521 0.0
C391 C 0.79181 0.26468 0.92581 0.0
H392 H 0.8861 0.16802 0.07243 0.0
H393 H 0.88291 0.19737 0.0342 0.0
H394 H 0.80001 0.18306 1.0106 0.0
H395 H 0.80328 0.1534 0.04775 0.0
H396 H 0.82174 0.41944 0.88777 0.0
H397 H 0.8389 0.38691 0.92074 0.0
H398 H 0.8104 0.33553 0.86555 0.0
H399 H 0.79199 0.36835 0.83246 0.0
Tb400 Tb 0.71037 0.78756 0.48055 0.0
Tb401 Tb 0.65564 0.774 0.50691 0.0
C402 C 0.7108 0.74663 0.52743 0.0
C403 C 0.77236 0.80079 0.44514 0.0
C404 C 0.81516 0.80988 0.41617 0.0
C405 C 0.81568 0.78832 0.43202 0.0
C406 C 0.79456 0.78386 0.44632 0.0
C407 C 0.7712 0.82179 0.42833 0.0
C408 C 0.79223 0.8262 0.4139 0.0
C409 C 0.75389 0.79886 0.46532 0.0
O410 O 0.69427 0.76171 0.45392 0.0
O411 O 0.66374 0.74578 0.47889 0.0
O412 O 0.64004 0.78877 0.46687 0.0
O413 O 0.67648 0.8055 0.45237 0.0
O414 O 0.63519 0.74936 0.52799 0.0
O415 O 0.61596 0.78412 0.51277 0.0
O416 O 0.66714 0.80764 0.52509 0.0
O417 O 0.70991 0.80949 0.51454 0.0
O418 O 0.7203 0.75413 0.50586 0.0
O419 O 0.68932 0.75735 0.53463 0.0
C420 C 0.67794 0.74517 0.45861 0.0
O421 O 0.73206 0.81328 0.46285 0.0
O422 O 0.75058 0.77784 0.47613 0.0
C423 C 0.65064 0.80163 0.44926 0.0
C424 C 0.59747 0.76446 0.5481 0.0
C425 C 0.56396 0.76493 0.58869 0.0
C426 C 0.5923 0.76421 0.59522 0.0
C427 C 0.60893 0.76397 0.57509 0.0
C428 C 0.56943 0.76493 0.5417 0.0
C429 C 0.55297 0.76499 0.56158 0.0
C430 C 0.61342 0.76386 0.52575 0.0
C431 C 0.6905 0.81735 0.52728 0.0
H432 H 0.83303 0.77537 0.43455 0.0
H433 H 0.79638 0.7677 0.45948 0.0
H434 H 0.75461 0.8354 0.42721 0.0
H435 H 0.79075 0.84274 0.40147 0.0
H436 H 0.60163 0.76421 0.6158 0.0
H437 H 0.63058 0.7635 0.58058 0.0
H438 H 0.56012 0.76505 0.52107 0.0
H439 H 0.53148 0.76479 0.55553 0.0
Tb440 Tb 0.17836 0.7308 0.56754 0.0
Tb441 Tb 0.16866 0.78641 0.57201 0.0
C442 C 0.14527 0.7507 0.6127 0.0
C443 C 0.19117 0.66985 0.54087 0.0
C444 C 0.20025 0.63034 0.51104 0.0
C445 C 0.17899 0.6313 0.5261 0.0
C446 C 0.17458 0.65083 0.54095 0.0
C447 C 0.21119 0.66982 0.52421 0.0
C448 C 0.21566 0.65014 0.5093 0.0
C449 C 0.18958 0.68728 0.56116 0.0
O450 O 0.14585 0.74072 0.53476 0.0
O451 O 0.13565 0.78078 0.53965 0.0
O452 O 0.17643 0.78309 0.53246 0.0
O453 O 0.20637 0.75187 0.54608 0.0
O454 O 0.14859 0.8171 0.58399 0.0
O455 O 0.18535 0.81922 0.56682 0.0
O456 O 0.21009 0.77335 0.59245 0.0
O457 O 0.20122 0.73595 0.60539 0.0
O458 O 0.15425 0.73175 0.6012 0.0
O459 O 0.14897 0.77246 0.60394 0.0
C460 C 0.13139 0.76104 0.52705 0.0
O461 O 0.20737 0.70313 0.56348 0.0
O462 O 0.16561 0.69623 0.56394 0.0
C463 C 0.19872 0.77135 0.52992 0.0
C464 C 0.18381 0.83527 0.6081 0.0
C465 C 0.2084 0.83287 0.66146 0.0
C466 C 0.22374 0.82751 0.64141 0.0
C467 C 0.21165 0.82887 0.61498 0.0
C468 C 0.16872 0.84167 0.62808 0.0
C469 C 0.18092 0.8405 0.65456 0.0
C470 C 0.16982 0.82895 0.58238 0.0
C471 C 0.21713 0.75318 0.60743 0.0
H472 H 0.16655 0.6164 0.52738 0.0
H473 H 0.15906 0.65044 0.55366 0.0
H474 H 0.22428 0.68431 0.52376 0.0
H475 H 0.23219 0.64977 0.4978 0.0
H476 H 0.24504 0.82196 0.64621 0.0
H477 H 0.22398 0.82356 0.6002 0.0
H478 H 0.14722 0.84635 0.62339 0.0
H479 H 0.16885 0.84563 0.66962 0.0
Tb480 Tb 0.05135 0.71019 0.82851 0.0
Tb481 Tb 0.02971 0.76722 0.82476 0.0
C482 C 1.00476 0.73205 0.78383 0.0
C483 C 0.08735 0.65106 0.82039 0.0
C484 C 0.12064 0.61925 0.79671 0.0
C485 C 0.09432 0.62621 0.78408 0.0
C486 C 0.07773 0.64215 0.79581 0.0
C487 C 0.11357 0.64394 0.83294 0.0
C488 C 0.13007 0.62826 0.82122 0.0
C489 C 0.07066 0.66731 0.83395 0.0
O490 O 0.07585 0.72621 0.80059 0.0
O491 O 0.05041 0.76202 0.78995 0.0
O492 O 0.06126 0.76319 0.85952 0.0
O493 O 0.06404 0.7224 0.86772 0.0
O494 O 0.03476 0.80239 0.81026 0.0
O495 O 1.00349 0.79529 0.83371 0.0
O496 O 1.0011 0.75012 0.84691 0.0
O497 O 1.01292 0.70992 0.84374 0.0
O498 O 0.0251 0.71586 0.79083 0.0
O499 O 1.00124 0.75141 0.79654 0.0
C500 C 0.06872 0.74568 0.78456 0.0
O501 O 0.08289 0.68505 0.84429 0.0
O502 O 0.04613 0.67392 0.8225 0.0
C503 C 0.06917 0.74369 0.87515 0.0
C504 C 0.99359 0.82643 0.79971 0.0
C505 C 0.95469 0.85719 0.76572 0.0
C506 C 0.97764 0.86617 0.77968 0.0
C507 C 0.99689 0.85093 0.79641 0.0
C508 C 0.971 0.81716 0.7855 0.0
C509 C 0.95169 0.83242 0.76866 0.0
C510 C 1.01329 0.81118 0.81895 0.0
C511 C 0.99665 0.72733 0.85034 0.0
H512 H 0.08668 0.61938 0.7652 0.0
H513 H 0.05749 0.64734 0.78578 0.0
H514 H 0.12129 0.65037 0.85203 0.0
H515 H 0.15006 0.62275 0.83172 0.0
H516 H 0.98045 0.88515 0.77828 0.0
H517 H 1.01414 0.8584 0.80725 0.0
H518 H 0.96812 0.79822 0.7877 0.0
H519 H 0.93446 0.82482 0.75797 0.0
Tb520 Tb 0.60131 0.33861 0.30385 0.0
Tb521 Tb 0.62047 0.29507 0.26932 0.0
C522 C 0.63861 0.35005 0.26075 0.0
C523 C 0.54865 0.37498 0.32825 0.0
C524 C 0.49262 0.38437 0.32473 0.0
C525 C 0.50827 0.40182 0.31532 0.0
C526 C 0.53609 0.39719 0.31719 0.0
C527 C 0.53289 0.35743 0.33744 0.0
C528 C 0.50513 0.3622 0.33595 0.0
C529 C 0.57765 0.36966 0.32778 0.0
O530 O 0.56635 0.33093 0.27433 0.0
O531 O 0.58446 0.30907 0.24334 0.0
O532 O 0.58752 0.28493 0.29186 0.0
O533 O 0.60229 0.30527 0.32686 0.0
O534 O 0.63388 0.27658 0.2371 0.0
O535 O 0.63016 0.25826 0.27542 0.0
O536 O 0.65156 0.29591 0.30311 0.0
O537 O 0.64416 0.33211 0.32112 0.0
O538 O 0.62434 0.3574 0.27862 0.0
O539 O 0.64015 0.32719 0.25439 0.0
C540 C 0.56416 0.32139 0.25092 0.0
O541 O 0.58858 0.34919 0.33928 0.0
O542 O 0.58535 0.37409 0.30473 0.0
C543 C 0.58748 0.28902 0.31713 0.0
C544 C 0.64408 0.23216 0.24305 0.0
C545 C 0.66237 0.18471 0.23305 0.0
C546 C 0.64106 0.18895 0.24783 0.0
C547 C 0.63231 0.21221 0.25299 0.0
C548 C 0.66438 0.22829 0.2271 0.0
C549 C 0.67351 0.20482 0.2222 0.0
C550 C 0.63684 0.25634 0.2518 0.0
C551 C 0.65954 0.31242 0.31896 0.0
H552 H 0.49902 0.41912 0.30675 0.0
H553 H 0.54776 0.41084 0.30959 0.0
H554 H 0.54186 0.33988 0.34533 0.0
H555 H 0.49334 0.34841 0.34305 0.0
H556 H 0.63121 0.17421 0.25586 0.0
H557 H 0.61654 0.21456 0.26526 0.0
H558 H 0.67398 0.24334 0.21937 0.0
H559 H 0.68997 0.20246 0.21082 0.0
Tb560 Tb 0.46758 0.85764 0.24193 0.0
Tb561 Tb 0.44962 0.81588 0.27907 0.0
C562 C 0.4311 0.87039 0.28321 0.0
C563 C 0.51575 0.89382 0.21598 0.0
C564 C 0.57048 0.90298 0.21957 0.0
C565 C 0.55013 0.92019 0.20706 0.0
C566 C 0.52296 0.91563 0.20532 0.0
C567 C 0.53597 0.87682 0.22894 0.0
C568 C 0.56303 0.88133 0.2307 0.0
C569 C 0.48727 0.88911 0.21503 0.0
O570 O 0.49597 0.8566 0.2798 0.0
O571 O 0.49018 0.81922 0.29746 0.0
O572 O 0.46379 0.80023 0.24398 0.0
O573 O 0.49509 0.82661 0.24204 0.0
O574 O 0.42348 0.8033 0.30417 0.0
O575 O 0.45926 0.78163 0.29809 0.0
O576 O 0.41461 0.82187 0.24902 0.0
O577 O 0.43405 0.84152 0.21662 0.0
O578 O 0.43369 0.87358 0.25805 0.0
O579 O 0.44111 0.85022 0.29689 0.0
C580 C 0.50362 0.83822 0.29744 0.0
O581 O 0.48077 0.86862 0.20608 0.0
O582 O 0.47726 0.89325 0.23675 0.0
C583 C 0.48563 0.80667 0.23489 0.0
C584 C 0.42244 0.76108 0.30796 0.0
C585 C 0.39503 0.72075 0.31827 0.0
C586 C 0.42324 0.71878 0.32056 0.0
C587 C 0.43683 0.73884 0.31544 0.0
C588 C 0.39416 0.76269 0.30347 0.0
C589 C 0.38053 0.74258 0.30862 0.0
C590 C 0.43731 0.78252 0.3089 0.0
C591 C 0.41419 0.8294 0.2241 0.0
H592 H 0.5552 0.93699 0.19817 0.0
H593 H 0.50759 0.92909 0.19562 0.0
H594 H 0.53083 0.86006 0.23784 0.0
H595 H 0.57812 0.8679 0.24098 0.0
H596 H 0.43497 0.70224 0.32825 0.0
H597 H 0.45866 0.73726 0.31905 0.0
H598 H 0.38259 0.77966 0.29746 0.0
H599 H 0.35874 0.74437 0.30641 0.0
Tb600 Tb 1.01787 0.19421 0.75262 0.0
Tb601 Tb 0.04584 0.24622 0.76532 0.0
C602 C 0.07441 0.19471 0.78948 0.0
C603 C 0.97439 0.14008 0.743 0.0
C604 C 0.93241 0.109 0.74315 0.0
C605 C 0.92807 0.1333 0.74841 0.0
C606 C 0.94901 0.14874 0.74849 0.0
C607 C 0.97836 0.11615 0.73703 0.0
C608 C 0.95771 0.10084 0.73705 0.0
C609 C 0.99778 0.15466 0.74411 0.0
O610 O 1.0005 0.20782 0.78684 0.0
O611 O 1.00691 0.24755 0.77954 0.0
O612 O 1.02274 0.25091 0.72469 0.0
O613 O 0.99343 0.22114 0.72524 0.0
O614 O 0.05734 0.27061 0.79405 0.0
O615 O 0.06054 0.27886 0.75274 0.0
O616 O 0.07378 0.22842 0.74356 0.0
O617 O 0.04993 0.19707 0.72714 0.0
O618 O 0.05776 0.18334 0.77338 0.0
O619 O 0.0706 0.21801 0.79238 0.0
C620 C 0.99577 0.2304 0.79179 0.0
O621 O 0.99771 0.17188 0.7257 0.0
O622 O 1.0089 0.16036 0.76741 0.0
C623 C 1.00214 0.23986 0.7133 0.0
C624 C 0.08905 0.29953 0.78517 0.0
C625 C 0.12719 0.33307 0.80249 0.0
C626 C 0.11792 0.33144 0.77516 0.0
C627 C 0.09902 0.31501 0.76666 0.0
C628 C 0.09944 0.30032 0.81232 0.0
C629 C 0.11821 0.3167 0.82079 0.0
C630 C 0.06484 0.286 0.77683 0.0
C631 C 0.07048 0.21077 0.72788 0.0
H632 H 0.90882 0.14015 0.7532 0.0
H633 H 0.94554 0.16719 0.75319 0.0
H634 H 0.99773 0.10913 0.73265 0.0
H635 H 0.96165 0.08244 0.73238 0.0
H636 H 0.12416 0.34369 0.76038 0.0
H637 H 0.09127 0.31524 0.74561 0.0
H638 H 0.09222 0.28895 0.82729 0.0
H639 H 0.12521 0.3169 0.84194 0.0
Tb640 Tb 0.75438 1.00346 0.65702 0.0
Tb641 Tb 0.74115 0.96631 0.70706 0.0
C642 C 0.72799 0.95256 0.64601 0.0
C643 C 0.77289 0.05612 0.6142 0.0
C644 C 0.78688 0.1032 0.60104 0.0
C645 C 0.78476 0.08591 0.58196 0.0
C646 C 0.77775 0.06281 0.58844 0.0
C647 C 0.77462 0.07319 0.63341 0.0
C648 C 0.78139 0.09652 0.62685 0.0
C649 C 0.76828 0.03077 0.62066 0.0
O650 O 0.71998 0.02331 0.67011 0.0
O651 O 0.71502 0.99885 0.70693 0.0
O652 O 0.77504 0.98745 0.72193 0.0
O653 O 0.76492 0.02086 0.69323 0.0
O654 O 0.71209 0.9506 0.72656 0.0
O655 O 0.75401 0.94779 0.74482 0.0
O656 O 0.7727 0.9468 0.69113 0.0
O657 O 0.7904 0.97908 0.67178 0.0
O658 O 0.73752 0.97267 0.63777 0.0
O659 O 0.72566 0.94765 0.67139 0.0
C660 C 0.70887 0.01876 0.69163 0.0
O661 O 0.78496 0.01939 0.6401 0.0
O662 O 0.74356 0.0253 0.62118 0.0
C663 C 0.77887 1.00983 0.71469 0.0
C664 C 0.7248 0.92103 0.76333 0.0
C665 C 0.71029 0.884 0.79778 0.0
C666 C 0.72988 0.89939 0.80713 0.0
C667 C 0.737 0.91766 0.7901 0.0
C668 C 0.70546 0.90553 0.75379 0.0
C669 C 0.69832 0.88724 0.77081 0.0
C670 C 0.72953 0.94295 0.74746 0.0
C671 C 0.79277 0.95675 0.68227 0.0
H672 H 0.78928 0.08989 0.56206 0.0
H673 H 0.77681 0.04988 0.57338 0.0
H674 H 0.77107 0.0684 0.65351 0.0
H675 H 0.78229 0.10931 0.64203 0.0
H676 H 0.73976 0.89733 0.82762 0.0
H677 H 0.75159 0.92966 0.7981 0.0
H678 H 0.69529 0.90793 0.73341 0.0
H679 H 0.68285 0.87601 0.76293 0.0
Tb680 Tb 0.77062 0.9844 0.16745 0.0
Tb681 Tb 0.79565 0.99228 0.22658 0.0
C682 C 0.80986 0.02272 0.17707 0.0
C683 C 0.75351 0.95028 0.11016 0.0
C684 C 0.75535 0.90575 0.08813 0.0
C685 C 0.74579 0.92676 0.07201 0.0
C686 C 0.7448 0.94889 0.08301 0.0
C687 C 0.76345 0.92948 0.12635 0.0
C688 C 0.76429 0.90729 0.11541 0.0
C689 C 0.75297 0.97348 0.12151 0.0
O690 O 0.81043 0.96381 0.17725 0.0
O691 O 0.80781 0.95545 0.22072 0.0
O692 O 0.75691 0.97783 0.22903 0.0
O693 O 0.75798 0.95641 0.1926 0.0
O694 O 0.83023 0.98606 0.25516 0.0
O695 O 0.79374 1.00416 0.26466 0.0
O696 O 0.77225 0.02597 0.21428 0.0
O697 O 0.74306 0.01262 0.18033 0.0
O698 O 0.78717 0.01816 0.16334 0.0
O699 O 0.81979 1.01011 0.19944 0.0
C700 C 0.81849 0.95047 0.19964 0.0
O701 O 0.73801 0.97565 0.1403 0.0
O702 O 0.77661 0.98141 0.12788 0.0
C703 C 0.74814 0.96079 0.21435 0.0
C704 C 0.83362 0.02192 0.27595 0.0
C705 C 0.84878 0.06883 0.27766 0.0
C706 C 0.83582 0.0588 0.29795 0.0
C707 C 0.82811 0.03549 0.29697 0.0
C708 C 0.8478 0.03158 0.25643 0.0
C709 C 0.85522 0.0549 0.25723 0.0
C710 C 0.8198 1.00029 0.27102 0.0
C711 C 0.74967 0.02878 0.19759 0.0
H712 H 0.73911 0.92612 0.05085 0.0
H713 H 0.73733 0.96489 0.07035 0.0
H714 H 0.77042 0.93042 0.14744 0.0
H715 H 0.7714 0.89137 0.12834 0.0
H716 H 0.83121 0.06913 0.3143 0.0
H717 H 0.81679 0.02847 0.31187 0.0
H718 H 0.85211 0.02158 0.23978 0.0
H719 H 0.86512 0.06228 0.24137 0.0
Tb720 Tb 0.31905 0.47892 0.40473 0.0
Tb721 Tb 0.26444 0.46318 0.37146 0.0
C722 C 0.32027 0.44296 0.3605 0.0
C723 C 0.3605 0.52377 0.42748 0.0
C724 C 0.3617 0.5722 0.41078 0.0
C725 C 0.38553 0.55689 0.41515 0.0
C726 C 0.38489 0.53277 0.42336 0.0
C727 C 0.33693 0.53937 0.42443 0.0
C728 C 0.33755 0.56338 0.4162 0.0
C729 C 0.35816 0.49788 0.4287 0.0
O730 O 0.30173 0.50981 0.37769 0.0
O731 O 0.27833 0.48987 0.34518 0.0
O732 O 0.25475 0.49553 0.39066 0.0
O733 O 0.28597 0.48498 0.42678 0.0
O734 O 0.24155 0.45315 0.33675 0.0
O735 O 0.22375 0.45879 0.3725 0.0
O736 O 0.27331 0.43936 0.40784 0.0
O737 O 0.31903 0.44146 0.41874 0.0
O738 O 0.33082 0.46136 0.37128 0.0
O739 O 0.2956 0.43774 0.36214 0.0
C740 C 0.28957 0.50909 0.35305 0.0
O741 O 0.33872 0.49038 0.44058 0.0
O742 O 0.35867 0.48861 0.40589 0.0
C743 C 0.26372 0.49707 0.4158 0.0
C744 C 0.20747 0.42924 0.34584 0.0
C745 C 0.18125 0.38714 0.34136 0.0
C746 C 0.16843 0.40908 0.32952 0.0
C747 C 0.18146 0.43 0.33187 0.0
C748 C 0.22063 0.40744 0.35753 0.0
C749 C 0.20754 0.38638 0.35523 0.0
C750 C 0.2203 0.45149 0.34846 0.0
C751 C 0.29698 0.43061 0.42065 0.0
H752 H 0.40447 0.56336 0.41131 0.0
H753 H 0.40308 0.52089 0.42498 0.0
H754 H 0.31764 0.53271 0.4267 0.0
H755 H 0.3188 0.57464 0.41252 0.0
H756 H 0.14836 0.41006 0.31822 0.0
H757 H 0.17121 0.44679 0.3228 0.0
H758 H 0.24083 0.40679 0.36851 0.0
H759 H 0.21773 0.36967 0.36454 0.0
Tb760 Tb 0.28724 0.49985 0.87065 0.0
Tb761 Tb 0.31522 0.46822 0.82473 0.0
C762 C 0.32369 0.45233 0.8866 0.0
C763 C 0.26723 0.55023 0.91496 0.0
C764 C 0.25958 0.5944 0.93973 0.0
C765 C 0.27844 0.57576 0.95194 0.0
C766 C 0.2821 0.55407 0.93983 0.0
C767 C 0.24869 0.56892 0.90247 0.0
C768 C 0.24494 0.5906 0.91462 0.0
C769 C 0.26864 0.5258 0.90435 0.0
O770 O 0.32617 0.51358 0.86654 0.0
O771 O 0.3319 0.504 0.82436 0.0
O772 O 0.27713 0.48627 0.80527 0.0
O773 O 0.27847 0.51821 0.8315 0.0
O774 O 0.33342 0.43526 0.81521 0.0
O775 O 0.32958 0.46642 0.78766 0.0
O776 O 0.27936 0.44984 0.83043 0.0
O777 O 0.25808 0.47339 0.85887 0.0
O778 O 0.30176 0.46505 0.88999 0.0
O779 O 0.33566 0.45656 0.86541 0.0
C780 C 0.33531 0.51858 0.84395 0.0
O781 O 0.25565 0.52276 0.88073 0.0
O782 O 0.29165 0.51282 0.90901 0.0
C783 C 0.26899 0.5082 0.80983 0.0
C784 C 0.33554 0.42777 0.7688 0.0
C785 C 0.34343 0.39741 0.72637 0.0
C786 C 0.34042 0.42265 0.72206 0.0
C787 C 0.33672 0.43749 0.74284 0.0
C788 C 0.33716 0.40253 0.77294 0.0
C789 C 0.34091 0.38761 0.75207 0.0
C790 C 0.33764 0.44369 0.79183 0.0
C791 C 0.2592 0.45486 0.8438 0.0
H792 H 0.29049 0.57783 0.97099 0.0
H793 H 0.29624 0.54001 0.95033 0.0
H794 H 0.23644 0.56661 0.88359 0.0
H795 H 0.22987 0.60411 0.90455 0.0
H796 H 0.34148 0.43115 0.70259 0.0
H797 H 0.33588 0.45673 0.73874 0.0
H798 H 0.33675 0.39422 0.79265 0.0
H799 H 0.34315 0.36838 0.75651 0.0
Tb800 Tb 0.64822 0.74331 0.98644 0.0
Tb801 Tb 0.70365 0.7194 0.96375 0.0
C802 C 0.64253 0.7137 0.93617 0.0
C803 C 0.59655 0.76014 0.0321 0.0
C804 C 0.57202 0.76384 0.07907 0.0
C805 C 0.56026 0.75173 0.05738 0.0
C806 C 0.57239 0.74981 0.03447 0.0
C807 C 0.60853 0.77248 0.05353 0.0
C808 C 0.59642 0.77425 0.07679 0.0
C809 C 0.60725 0.75876 1.00631 0.0
O810 O 0.67077 0.71815 1.01731 0.0
O811 O 0.69254 0.69229 0.99258 0.0
O812 O 0.71869 0.74353 0.99363 0.0
O813 O 0.67961 0.76494 1.00091 0.0
O814 O 0.72191 0.70676 0.93166 0.0
O815 O 0.74462 0.70631 0.97096 0.0
O816 O 0.6974 0.7564 0.94779 0.0
O817 O 0.65166 0.76371 0.94867 0.0
O818 O 0.63363 0.71756 0.95862 0.0
O819 O 0.66796 0.71613 0.93336 0.0
C820 C 0.68297 0.69707 1.01473 0.0
O821 O 0.62658 0.77189 1.0015 0.0
O822 O 0.61049 0.73751 0.99766 0.0
C823 C 0.70585 0.76145 1.00338 0.0
C824 C 0.77 0.70804 0.93405 0.0
C825 C 0.82012 0.71141 0.91426 0.0
C826 C 0.81376 0.72516 0.93523 0.0
C827 C 0.78905 0.72338 0.94515 0.0
C828 C 0.77586 0.69545 0.91226 0.0
C829 C 0.80039 0.69709 0.90255 0.0
C830 C 0.74551 0.70231 0.94612 0.0
C831 C 0.67423 0.76881 0.93969 0.0
H832 H 0.54118 0.74404 0.05769 0.0
H833 H 0.56246 0.74051 1.0182 0.0
H834 H 0.62711 0.78083 0.05232 0.0
H835 H 0.60631 0.7836 0.093 0.0
H836 H 0.82839 0.73638 0.94478 0.0
H837 H 0.78527 0.73335 0.96202 0.0
H838 H 0.76176 0.68347 0.90328 0.0
H839 H 0.80422 0.68652 0.88613 0.0
Tb840 Tb 0.21057 0.72272 0.11135 0.0
Tb841 Tb 0.20683 0.77464 0.08072 0.0
C842 C 0.23207 0.727 0.05767 0.0
C843 C 0.22365 0.66721 0.16153 0.0
C844 C 0.24578 0.63575 0.2063 0.0
C845 C 0.22122 0.63172 0.19072 0.0
C846 C 0.21046 0.64716 0.16859 0.0
C847 C 0.24828 0.67138 0.1766 0.0
C848 C 0.25936 0.65568 0.19866 0.0
C849 C 0.20968 0.68423 0.13991 0.0
O850 O 0.24232 0.74333 0.13384 0.0
O851 O 0.24809 0.76795 0.09849 0.0
O852 O 0.18962 0.77802 0.11854 0.0
O853 O 0.17305 0.74211 0.11542 0.0
O854 O 0.22757 0.80281 0.06712 0.0
O855 O 0.18447 0.80709 0.06599 0.0
O856 O 0.17297 0.75997 0.05865 0.0
O857 O 0.18024 0.72015 0.0747 0.0
O858 O 0.23728 0.71738 0.08223 0.0
O859 O 0.21876 0.74852 0.05223 0.0
C860 C 0.25674 0.75883 0.12257 0.0
O861 O 0.20208 0.70546 0.14654 0.0
O862 O 0.21834 0.68508 0.11692 0.0
C863 C 0.17205 0.76316 0.12487 0.0
C864 C 0.20317 0.8311 0.03408 0.0
C865 C 0.20152 0.86548 0.99095 0.0
C866 C 0.17903 0.86346 1.00415 0.0
C867 C 0.17988 0.84646 1.02553 0.0
C868 C 0.22521 0.83232 1.02006 0.0
C869 C 0.22436 0.84932 0.99868 0.0
C870 C 0.20568 0.81683 0.05981 0.0
C871 C 0.16728 0.73759 0.05761 0.0
H872 H 0.20969 0.61708 0.19603 0.0
H873 H 0.19123 0.64383 0.1574 0.0
H874 H 0.25868 0.6869 0.17157 0.0
H875 H 0.27849 0.65928 0.20975 0.0
H876 H 0.16125 0.87581 0.99888 0.0
H877 H 0.16276 0.84613 0.0362 0.0
H878 H 0.24355 0.82084 0.02622 0.0
H879 H 0.24186 0.85021 0.98862 0.0
Tb880 Tb 0.38982 0.24749 0.54494 0.0
Tb881 Tb 0.33546 0.2343 0.57196 0.0
C882 C 0.39565 0.21982 0.60269 0.0
C883 C 0.44328 0.25881 0.49973 0.0
C884 C 0.46913 0.26072 0.45355 0.0
C885 C 0.48358 0.26298 0.47905 0.0
C886 C 0.4708 0.26211 0.50173 0.0
C887 C 0.42858 0.25634 0.4745 0.0
C888 C 0.44138 0.25733 0.45162 0.0
C889 C 0.43092 0.25827 0.52447 0.0
O890 O 0.37808 0.21391 0.52689 0.0
O891 O 0.33563 0.21201 0.53827 0.0
O892 O 0.32583 0.26782 0.54669 0.0
O893 O 0.35555 0.26272 0.51711 0.0
O894 O 0.31363 0.20892 0.59009 0.0
O895 O 0.29536 0.24438 0.57641 0.0
O896 O 0.35215 0.25979 0.59855 0.0
O897 O 0.38198 0.27581 0.57287 0.0
O898 O 0.4063 0.23193 0.58448 0.0
O899 O 0.3696 0.21669 0.60025 0.0
C900 C 0.35476 0.20419 0.52515 0.0
O901 O 0.41004 0.27319 0.52531 0.0
O902 O 0.4284 0.23731 0.53596 0.0
C903 C 0.33484 0.27444 0.52455 0.0
C904 C 0.27323 0.22178 0.60748 0.0
C905 C 0.22942 0.21393 0.63549 0.0
C906 C 0.23136 0.23638 0.62223 0.0
C907 C 0.25297 0.24023 0.60834 0.0
C908 C 0.27201 0.1998 0.62189 0.0
C909 C 0.2505 0.19597 0.63582 0.0
C910 C 0.29189 0.22349 0.58746 0.0
C911 C 0.36826 0.27637 0.59347 0.0
H912 H 0.50499 0.26508 0.48171 0.0
H913 H 0.48256 0.26398 0.52101 0.0
H914 H 0.40728 0.25378 0.47247 0.0
H915 H 0.42939 0.25578 0.43242 0.0
H916 H 0.21548 0.25061 0.62135 0.0
H917 H 0.25297 0.25725 0.59706 0.0
H918 H 0.28701 0.18507 0.62135 0.0
H919 H 0.25005 0.17863 0.64627 0.0
Tb920 Tb 0.88229 0.24076 0.4736 0.0
Tb921 Tb 0.86574 0.29305 0.48684 0.0
C922 C 0.8429 0.24791 0.51274 0.0
C923 C 0.89311 0.19547 0.43107 0.0
C924 C 0.89126 0.19093 0.37644 0.0
C925 C 0.87221 0.20642 0.38564 0.0
C926 C 0.87279 0.20821 0.41269 0.0
C927 C 0.91311 0.18096 0.42201 0.0
C928 C 0.912 0.17843 0.39476 0.0
C929 C 0.89515 0.20044 0.45902 0.0
O930 O 0.85145 0.2562 0.44001 0.0
O931 O 0.82998 0.28359 0.4625 0.0
O932 O 0.87947 0.29641 0.44711 0.0
O933 O 0.90722 0.26237 0.45202 0.0
O934 O 0.83627 0.31849 0.49503 0.0
O935 O 0.87652 0.3282 0.49123 0.0
O936 O 0.9041 0.28352 0.51224 0.0
O937 O 0.9018 0.24309 0.51509 0.0
O938 O 0.84597 0.23843 0.49056 0.0
O939 O 0.85362 0.26826 0.51811 0.0
C940 C 0.83019 0.27091 0.4419 0.0
O941 O 0.91277 0.2156 0.46624 0.0
O942 O 0.87225 0.20569 0.46724 0.0
C943 C 0.89845 0.28267 0.43865 0.0
C944 C 0.85125 0.35088 0.51847 0.0
C945 C 0.84687 0.38501 0.55595 0.0
C946 C 0.82384 0.37889 0.53953 0.0
C947 C 0.82607 0.36211 0.52083 0.0
C948 C 0.87424 0.3561 0.53561 0.0
C949 C 0.87205 0.37316 0.55424 0.0
C950 C 0.85278 0.33536 0.49658 0.0
C951 C 0.91127 0.26249 0.52499 0.0
H952 H 0.8561 0.2163 0.37197 0.0
H953 H 0.85703 0.2194 0.41914 0.0
H954 H 0.92929 0.1715 0.43595 0.0
H955 H 0.92669 0.16597 0.38817 0.0
H956 H 0.80408 0.38733 0.54081 0.0
H957 H 0.80812 0.35829 0.50774 0.0
H958 H 0.89391 0.34757 0.53414 0.0
H959 H 0.89014 0.37766 0.56659 0.0
H960 H 0.04893 0.32492 0.30639 0.0
H961 H 0.09661 0.26786 0.27655 0.0
H962 H 0.13809 0.28301 0.29923 0.0
H963 H 0.08775 0.36839 0.2924 0.0
H964 H 0.08401 0.3853 0.32088 0.0
H965 H 0.05815 0.36671 0.30839 0.0
H966 H 0.06212 0.34383 0.35485 0.0
H967 H 0.08787 0.36262 0.36771 0.0
H968 H 0.09445 0.33047 0.37099 0.0
H969 H 0.17381 0.309 0.31667 0.0
H970 H 0.20061 0.34317 0.32836 0.0
H971 H 0.12927 0.3825 0.34727 0.0
C972 C 0.06801 0.31501 0.30552 0.0
C973 C 0.06964 0.29516 0.28999 0.0
C974 C 0.09496 0.28291 0.28879 0.0
C975 C 0.11861 0.29141 0.30154 0.0
C976 C 0.11637 0.31186 0.3156 0.0
C977 C 0.09164 0.32331 0.31791 0.0
C978 C 0.0945 0.34675 0.33068 0.0
C979 C 0.08028 0.36801 0.31197 0.0
C980 C 0.08413 0.34585 0.35767 0.0
C981 C 0.12467 0.34723 0.33418 0.0
C982 C 0.13705 0.32686 0.32575 0.0
C983 C 0.16451 0.32471 0.32412 0.0
C984 C 0.17956 0.34413 0.33081 0.0
C985 C 0.16689 0.3653 0.33874 0.0
C986 C 0.13939 0.36644 0.34131 0.0
H987 H 0.35589 0.5393 0.79965 0.0
H988 H 0.34085 0.55341 0.87949 0.0
H989 H 0.35641 0.59372 0.87394 0.0
H990 H 0.41703 0.57127 0.80234 0.0
H991 H 0.40979 0.58301 0.76805 0.0
H992 H 0.3974 0.555 0.77798 0.0
H993 H 0.34883 0.57163 0.75847 0.0
H994 H 0.36114 0.59968 0.74856 0.0
H995 H 0.33518 0.59926 0.76952 0.0
H996 H 0.37319 0.63404 0.85966 0.0
H997 H 0.39149 0.66902 0.83823 0.0
H998 H 0.39662 0.62925 0.76819 0.0
C999 C 0.35615 0.55071 0.81611 0.0
C1000 C 0.34723 0.54254 0.84024 0.0
C1001 C 0.34772 0.55862 0.86091 0.0
C1002 C 0.35647 0.58184 0.85792 0.0
C1003 C 0.365 0.58932 0.83408 0.0
C1004 C 0.36509 0.57417 0.81353 0.0
C1005 C 0.37554 0.58675 0.79004 0.0
C1006 C 0.40148 0.5732 0.78427 0.0
C1007 C 0.35388 0.58949 0.76518 0.0
C1008 C 0.3812 0.61115 0.80063 0.0
C1009 C 0.37487 0.61235 0.82603 0.0
C1010 C 0.37827 0.63319 0.83975 0.0
C1011 C 0.38863 0.65313 0.82738 0.0
C1012 C 0.39565 0.65234 0.80144 0.0
C1013 C 0.3916 0.63085 0.78805 0.0
H1014 H 0.64962 0.14857 0.73087 0.0
H1015 H 0.60362 0.10768 0.78089 0.0
H1016 H 0.62073 0.07031 0.7641 0.0
H1017 H 0.64265 0.11028 0.67415 0.0
H1018 H 0.67672 0.1124 0.66772 0.0
H1019 H 0.6598 0.13665 0.68219 0.0
H1020 H 0.69866 0.13397 0.72183 0.0
H1021 H 0.71568 0.10972 0.70749 0.0
H1022 H 0.7081 0.10577 0.74099 0.0
H1023 H 0.64274 0.0374 0.74383 0.0
H1024 H 0.67041 1.0094 0.72187 0.0
H1025 H 0.7051 0.0692 0.68474 0.0
C1026 C 0.64293 0.13173 0.73791 0.0
C1027 C 0.62507 0.13112 0.75716 0.0
C1028 C 0.61725 0.10868 0.76626 0.0
C1029 C 0.62682 0.08729 0.75677 0.0
C1030 C 0.64455 0.08834 0.7382 0.0
C1031 C 0.65279 0.10984 0.72886 0.0
C1032 C 0.67319 0.10521 0.70981 0.0
C1033 C 0.66245 0.11683 0.6818 0.0
C1034 C 0.70053 0.1142 0.72068 0.0
C1035 C 0.6749 0.07785 0.70998 0.0
C1036 C 0.65797 0.06876 0.7265 0.0
C1037 C 0.65597 0.04426 0.73071 0.0
C1038 C 0.67183 0.02845 0.71801 0.0
C1039 C 0.68979 0.03689 0.70116 0.0
C1040 C 0.69114 0.0621 0.69693 0.0
H1041 H 0.9228 0.84256 0.27328 0.0
H1042 H 0.97285 0.85729 0.2126 0.0
H1043 H 0.9378 0.88769 0.18973 0.0
H1044 H 0.85686 0.8521 0.23053 0.0
H1045 H 0.84075 0.86714 0.2551 0.0
H1046 H 0.86849 0.84488 0.26554 0.0
H1047 H 0.89393 0.87563 0.29331 0.0
H1048 H 0.86631 0.89798 0.28295 0.0
H1049 H 0.89982 0.90395 0.27733 0.0
H1050 H 0.89755 0.9168 0.17331 0.0
H1051 H 0.85675 0.94503 0.16668 0.0
H1052 H 0.83365 0.91428 0.23961 0.0
C1053 C 0.92599 0.85178 0.25479 0.0
C1054 C 0.95029 0.84704 0.24422 0.0
C1055 C 0.95423 0.86027 0.22071 0.0
C1056 C 0.93442 0.87761 0.2076 0.0
C1057 C 0.9108 0.882 0.21848 0.0
C1058 C 0.90656 0.86968 0.24172 0.0
C1059 C 0.88023 0.87931 0.25019 0.0
C1060 C 0.86041 0.85968 0.25034 0.0
C1061 C 0.88539 0.88984 0.27757 0.0
C1062 C 0.87041 0.89884 0.22804 0.0
C1063 C 0.88821 0.89982 0.20979 0.0
C1064 C 0.88347 0.91619 0.18748 0.0
C1065 C 0.86012 0.93212 0.18378 0.0
C1066 C 0.84182 0.93195 0.20246 0.0
C1067 C 0.84715 0.91492 0.22486 0.0
H1068 H 0.36422 0.19249 0.47329 0.0
H1069 H 0.33225 0.16535 0.54304 0.0
H1070 H 0.32023 0.12915 0.52057 0.0
H1071 H 0.31163 0.1707 0.4253 0.0
H1072 H 0.33361 0.16297 0.40155 0.0
H1073 H 0.3412 0.18665 0.42325 0.0
H1074 H 0.38827 0.16518 0.44019 0.0
H1075 H 0.3808 0.14146 0.4185 0.0
H1076 H 0.39094 0.13451 0.45378 0.0
H1077 H 0.31186 0.09549 0.49184 0.0
H1078 H 0.30502 0.06689 0.45748 0.0
H1079 H 0.33917 0.11438 0.40284 0.0
C1080 C 0.35506 0.17874 0.48391 0.0
C1081 C 0.34964 0.18188 0.51037 0.0
C1082 C 0.33689 0.16357 0.52304 0.0
C1083 C 0.32992 0.14281 0.51038 0.0
C1084 C 0.33531 0.14027 0.48451 0.0
C1085 C 0.34734 0.15774 0.47116 0.0
C1086 C 0.34953 0.15046 0.44284 0.0
C1087 C 0.33301 0.16879 0.422 0.0
C1088 C 0.37915 0.14775 0.43857 0.0
C1089 C 0.33725 0.12614 0.44268 0.0
C1090 C 0.3294 0.1208 0.46716 0.0
C1091 C 0.31792 0.09951 0.47258 0.0
C1092 C 0.3142 0.08318 0.45271 0.0
C1093 C 0.32163 0.08781 0.42708 0.0
C1094 C 0.33332 0.1099 0.4221 0.0
H1095 H 0.26344 0.97388 0.92004 0.0
H1096 H 0.18776 0.98732 0.86637 0.0
H1097 H 0.17015 0.95262 0.88888 0.0
H1098 H 0.26566 0.90953 0.92195 0.0
H1099 H 0.28068 0.90578 0.9565 0.0
H1100 H 0.28703 0.93146 0.936 0.0
H1101 H 0.26995 0.95964 0.96964 0.0
H1102 H 0.2635 0.93409 0.99023 0.0
H1103 H 0.23683 0.95709 0.97855 0.0
H1104 H 0.16074 0.91716 0.91836 0.0
H1105 H 0.1606 0.88284 0.95123 0.0
H1106 H 0.24289 0.89342 0.98478 0.0
C1107 C 0.24304 0.96974 0.91302 0.0
C1108 C 0.22673 0.98354 0.8917 0.0
C1109 C 0.20044 0.97711 0.88284 0.0
C1110 C 0.19034 0.95745 0.89546 0.0
C1111 C 0.20697 0.94438 0.91658 0.0
C1112 C 0.23284 0.9502 0.92512 0.0
C1113 C 0.24685 0.9333 0.94802 0.0
C1114 C 0.2715 0.91919 0.94013 0.0
C1115 C 0.25473 0.94684 0.97309 0.0
C1116 C 0.2246 0.91722 0.95142 0.0
C1117 C 0.20179 0.92382 0.9331 0.0
C1118 C 0.17852 0.91175 0.93271 0.0
C1119 C 0.17859 0.89238 0.95151 0.0
C1120 C 0.20179 0.88533 0.97041 0.0
C1121 C 0.22503 0.89801 0.97025 0.0
H1122 H 0.81589 0.42723 0.54501 0.0
H1123 H 0.87247 0.38676 0.60719 0.0
H1124 H 0.86715 0.41932 0.63722 0.0
H1125 H 0.83495 0.48612 0.55969 0.0
H1126 H 0.80085 0.49956 0.55292 0.0
H1127 H 0.81051 0.47386 0.53578 0.0
H1128 H 0.77221 0.4511 0.55237 0.0
H1129 H 0.76242 0.47677 0.56943 0.0
H1130 H 0.77051 0.44796 0.5876 0.0
H1131 H 0.85418 0.45551 0.66073 0.0
H1132 H 0.83357 0.49232 0.67647 0.0
H1133 H 0.78452 0.50743 0.59884 0.0
C1134 C 0.82707 0.42508 0.56499 0.0
C1135 C 0.84452 0.40448 0.57389 0.0
C1136 C 0.85921 0.40257 0.59996 0.0
C1137 C 0.85623 0.42086 0.61714 0.0
C1138 C 0.83853 0.44077 0.6078 0.0
C1139 C 0.82415 0.44293 0.58237 0.0
C1140 C 0.80564 0.46561 0.57742 0.0
C1141 C 0.81347 0.48226 0.55513 0.0
C1142 C 0.77595 0.46001 0.57136 0.0
C1143 C 0.8117 0.47579 0.60417 0.0
C1144 C 0.83085 0.46137 0.62139 0.0
C1145 C 0.8393 0.46705 0.6474 0.0
C1146 C 0.82759 0.48799 0.65609 0.0
C1147 C 0.80762 0.50268 0.63874 0.0
C1148 C 0.79983 0.49657 0.61246 0.0
H1149 H 0.74276 0.58306 0.11721 0.0
H1150 H 0.68164 0.60455 0.16519 0.0
H1151 H 0.66487 0.63808 0.13178 0.0
H1152 H 0.75681 0.64272 0.09539 0.0
H1153 H 0.76151 0.63504 0.06234 0.0
H1154 H 0.76866 0.6126 0.08984 0.0
H1155 H 0.73593 0.58533 0.06453 0.0
H1156 H 0.72863 0.6077 0.03695 0.0
H1157 H 0.70161 0.59673 0.05276 0.0
H1158 H 0.65498 0.66946 0.0939 0.0
H1159 H 0.65191 0.69696 0.05404 0.0
H1160 H 0.71905 0.65586 0.02882 0.0
C1161 C 0.72572 0.59471 0.12071 0.0
C1162 C 0.71339 0.59085 0.144 0.0
C1163 C 0.69131 0.60679 0.14762 0.0
C1164 C 0.68169 0.62598 0.12871 0.0
C1165 C 0.69425 0.62915 0.10609 0.0
C1166 C 0.71579 0.61397 0.10195 0.0
C1167 C 0.72564 0.62154 0.07589 0.0
C1168 C 0.75489 0.62839 0.08119 0.0
C1169 C 0.72278 0.60164 0.05637 0.0
C1170 C 0.7062 0.64341 0.06596 0.0
C1171 C 0.68839 0.64736 0.0839 0.0
C1172 C 0.66878 0.6665 0.07974 0.0
C1173 C 0.66727 0.68211 0.05689 0.0
C1174 C 0.68515 0.67878 0.03798 0.0
C1175 C 0.70485 0.6589 0.0426 0.0
H1176 H 0.45899 0.29246 0.12471 0.0
H1177 H 0.39728 0.33558 0.15594 0.0
H1178 H 0.43107 0.34413 0.19404 0.0
H1179 H 0.49387 0.26617 0.18693 0.0
H1180 H 0.52684 0.2672 0.17725 0.0
H1181 H 0.49798 0.26488 0.15238 0.0
H1182 H 0.50935 0.3029 0.12621 0.0
H1183 H 0.53833 0.30533 0.15093 0.0
H1184 H 0.5132 0.33023 0.14285 0.0
H1185 H 0.4721 0.34708 0.22969 0.0
H1186 H 0.51631 0.34523 0.25855 0.0
H1187 H 0.551 0.30054 0.2033 0.0
C1188 C 0.45247 0.3038 0.13947 0.0
C1189 C 0.42529 0.3134 0.13718 0.0
C1190 C 0.41789 0.32818 0.15702 0.0
C1191 C 0.43698 0.33303 0.17882 0.0
C1192 C 0.46352 0.32315 0.18049 0.0
C1193 C 0.47126 0.30896 0.16119 0.0
C1194 C 0.50101 0.3006 0.1674 0.0
C1195 C 0.50515 0.27308 0.17123 0.0
C1196 C 0.51637 0.31035 0.14555 0.0
C1197 C 0.50883 0.31209 0.19342 0.0
C1198 C 0.48696 0.32504 0.20067 0.0
C1199 C 0.48933 0.33708 0.22407 0.0
C1200 C 0.51461 0.33594 0.24038 0.0
C1201 C 0.53741 0.3229 0.23331 0.0
C1202 C 0.5342 0.31083 0.2094 0.0
H1203 H 0.89133 0.22021 0.90169 0.0
H1204 H 0.9018 0.29606 0.90903 0.0
H1205 H 0.93194 0.29531 0.87588 0.0
H1206 H 0.96156 0.20387 0.89249 0.0
H1207 H 0.95324 0.18263 0.86793 0.0
H1208 H 0.93165 0.18802 0.8927 0.0
H1209 H 0.89113 0.19847 0.85536 0.0
H1210 H 0.91264 0.19318 0.8305 0.0
H1211 H 0.89321 0.22156 0.82965 0.0
H1212 H 0.96042 0.2884 0.84219 0.0
H1213 H 0.98783 0.27479 0.80929 0.0
H1214 H 0.96288 0.20264 0.82066 0.0
C1215 C 0.89999 0.2366 0.89629 0.0
C1216 C 0.89378 0.25822 0.90853 0.0
C1217 C 0.90586 0.27914 0.90059 0.0
C1218 C 0.9232 0.27902 0.88149 0.0
C1219 C 0.92891 0.2578 0.86996 0.0
C1220 C 0.91796 0.23684 0.87692 0.0
C1221 C 0.92838 0.21669 0.86091 0.0
C1222 C 0.94467 0.19661 0.87963 0.0
C1223 C 0.90494 0.20689 0.84304 0.0
C1224 C 0.94659 0.22987 0.84411 0.0
C1225 C 0.94625 0.2536 0.84991 0.0
C1226 C 0.9609 0.26983 0.83744 0.0
C1227 C 0.9765 0.26181 0.81855 0.0
C1228 C 0.9778 0.23756 0.8119 0.0
C1229 C 0.96248 0.22131 0.82506 0.0
H1230 H 0.51515 0.8101 0.34413 0.0
H1231 H 0.54796 0.86483 0.29719 0.0
H1232 H 0.58956 0.86144 0.33058 0.0
H1233 H 0.54109 0.82922 0.40845 0.0
H1234 H 0.54753 0.79913 0.42379 0.0
H1235 H 0.52085 0.80585 0.39612 0.0
H1236 H 0.54177 0.7726 0.37041 0.0
H1237 H 0.56848 0.76577 0.39802 0.0
H1238 H 0.57639 0.77314 0.36518 0.0
H1239 H 0.62875 0.85046 0.36921 0.0
H1240 H 0.65985 0.8352 0.41007 0.0
H1241 H 0.59973 0.7889 0.43162 0.0
C1242 C 0.531 0.8215 0.34078 0.0
C1243 C 0.52817 0.83785 0.31793 0.0
C1244 C 0.54947 0.8524 0.31459 0.0
C1245 C 0.57324 0.85045 0.3334 0.0
C1246 C 0.57536 0.83402 0.3556 0.0
C1247 C 0.5546 0.81995 0.3594 0.0
C1248 C 0.56139 0.80397 0.38502 0.0
C1249 C 0.54154 0.80991 0.4045 0.0
C1250 C 0.56205 0.7773 0.3793 0.0
C1251 C 0.58933 0.81114 0.39513 0.0
C1252 C 0.59721 0.82833 0.37787 0.0
C1253 C 0.6226 0.83715 0.38292 0.0
C1254 C 0.6402 0.82836 0.4062 0.0
C1255 C 0.63232 0.81104 0.42439 0.0
C1256 C 0.60646 0.80238 0.41848 0.0
H1257 H 0.14975 0.71734 0.65869 0.0
H1258 H 0.10487 0.78217 0.61994 0.0
H1259 H 0.08252 0.78723 0.65901 0.0
H1260 H 0.09293 0.69702 0.69264 0.0
H1261 H 0.11436 0.68549 0.7229 0.0
H1262 H 0.1271 0.68559 0.69151 0.0
H1263 H 0.16645 0.70955 0.71093 0.0
H1264 H 0.15376 0.70963 0.74233 0.0
H1265 H 0.15927 0.73754 0.72522 0.0
H1266 H 0.06664 0.78806 0.70207 0.0
H1267 H 0.05427 0.78245 0.74662 0.0
H1268 H 0.10581 0.71596 0.76094 0.0
C1269 C 0.13471 0.73221 0.65822 0.0
C1270 C 0.12924 0.74937 0.63571 0.0
C1271 C 0.10971 0.76877 0.63654 0.0
C1272 C 0.0968 0.77189 0.65883 0.0
C1273 C 0.10301 0.75535 0.68072 0.0
C1274 C 0.12109 0.73561 0.68073 0.0
C1275 C 0.12347 0.72085 0.70759 0.0
C1276 C 0.1139 0.69574 0.70341 0.0
C1277 C 0.15247 0.7193 0.72239 0.0
C1278 C 0.10426 0.7357 0.72241 0.0
C1279 C 0.09296 0.75554 0.70623 0.0
C1280 C 0.0752 0.77248 0.71489 0.0
C1281 C 0.06836 0.76911 0.74057 0.0
C1282 C 0.07896 0.74882 0.75797 0.0
C1283 C 0.09733 0.73181 0.74852 0.0
H1284 H 1.00372 0.69311 0.75457 0.0
H1285 H 0.95838 0.75995 0.76471 0.0
H1286 H 0.92014 0.74835 0.73366 0.0
H1287 H 0.97328 0.68596 0.68314 0.0
H1288 H 0.97323 0.65405 0.6901 0.0
H1289 H 0.99935 0.67025 0.70734 0.0
H1290 H 0.98784 0.65365 0.75269 0.0
H1291 H 0.96181 0.63755 0.73574 0.0
H1292 H 0.95383 0.65836 0.75968 0.0
H1293 H 0.88444 0.72643 0.71041 0.0
H1294 H 0.85385 0.69553 0.69619 0.0
H1295 H 0.92251 0.6432 0.70189 0.0
C1296 C 0.98615 0.70574 0.74951 0.0
C1297 C 0.984 0.72742 0.76191 0.0
C1298 C 0.96049 0.74327 0.75524 0.0
C1299 C 0.93872 0.73692 0.73751 0.0
C1300 C 0.94105 0.71488 0.7265 0.0
C1301 C 0.96428 0.6996 0.73208 0.0
C1302 C 0.96035 0.67545 0.72128 0.0
C1303 C 0.97757 0.67119 0.69914 0.0
C1304 C 0.96628 0.65509 0.74368 0.0
C1305 C 0.93081 0.67906 0.71018 0.0
C1306 C 0.92015 0.70207 0.71279 0.0
C1307 C 0.89259 0.7086 0.70733 0.0
C1308 C 0.8754 0.69099 0.69946 0.0
C1309 C 0.886 0.66726 0.69744 0.0
C1310 C 0.91403 0.66147 0.70216 0.0
H1311 H 0.64969 0.39367 0.28018 0.0
H1312 H 0.65925 0.35193 0.21247 0.0
H1313 H 0.67812 0.38669 0.19102 0.0
H1314 H 0.62936 0.45019 0.24398 0.0
H1315 H 0.64732 0.46742 0.26851 0.0
H1316 H 0.63537 0.43926 0.27858 0.0
H1317 H 0.68358 0.42388 0.30042 0.0
H1318 H 0.69575 0.45201 0.29053 0.0
H1319 H 0.71073 0.42432 0.28088 0.0
H1320 H 0.69416 0.42751 0.17615 0.0
H1321 H 0.7085 0.46829 0.17023 0.0
H1322 H 0.68975 0.48342 0.24851 0.0
C1323 C 0.65585 0.39157 0.26084 0.0
C1324 C 0.65283 0.36965 0.24808 0.0
C1325 C 0.66143 0.36814 0.22287 0.0
C1326 C 0.67202 0.38797 0.21048 0.0
C1327 C 0.67417 0.40932 0.22351 0.0
C1328 C 0.66652 0.41108 0.24832 0.0
C1329 C 0.67094 0.43587 0.25835 0.0
C1330 C 0.64415 0.44895 0.2626 0.0
C1331 C 0.69148 0.4339 0.28406 0.0
C1332 C 0.6822 0.44808 0.2352 0.0
C1333 C 0.68374 0.43245 0.21527 0.0
C1334 C 0.69305 0.4397 0.19175 0.0
C1335 C 0.70116 0.46316 0.18854 0.0
C1336 C 0.70035 0.47962 0.2087 0.0
C1337 C 0.69056 0.4717 0.23243 0.0
H1338 H 0.39344 0.87479 0.31895 0.0
H1339 H 0.44637 0.91493 0.27621 0.0
H1340 H 0.42955 0.9522 0.29346 0.0
H1341 H 0.33742 0.9199 0.30641 0.0
H1342 H 0.32668 0.91524 0.33853 0.0
H1343 H 0.34402 0.89096 0.32455 0.0
H1344 H 0.37974 0.88555 0.3669 0.0
H1345 H 0.36251 0.90984 0.38102 0.0
H1346 H 0.39763 0.91078 0.37783 0.0
H1347 H 0.40662 0.98534 0.3129 0.0
H1348 H 0.37765 0.01363 0.3333 0.0
H1349 H 0.33728 0.9544 0.36409 0.0
C1350 C 0.40174 0.89141 0.3137 0.0
C1351 C 0.4215 0.89185 0.29634 0.0
C1352 C 0.43135 0.91406 0.28944 0.0
C1353 C 0.42193 0.93539 0.29918 0.0
C1354 C 0.40231 0.93456 0.31582 0.0
C1355 C 0.39213 0.91327 0.32307 0.0
C1356 C 0.37005 0.91814 0.34027 0.0
C1357 C 0.34293 0.91061 0.32662 0.0
C1358 C 0.37796 0.90531 0.36817 0.0
C1359 C 0.36959 0.94539 0.34144 0.0
C1360 C 0.38855 0.95423 0.32716 0.0
C1361 C 0.39183 0.97865 0.32433 0.0
C1362 C 0.37522 0.99464 0.33609 0.0
C1363 C 0.35534 0.98646 0.35075 0.0
C1364 C 0.35268 0.96131 0.35362 0.0
H1365 H 0.18569 0.08327 0.80853 0.0
H1366 H 0.22334 0.11237 0.88051 0.0
H1367 H 0.18862 0.14684 0.87324 0.0
H1368 H 0.16592 0.13844 0.76933 0.0
H1369 H 0.1341 0.12898 0.75426 0.0
H1370 H 0.16213 0.10711 0.76499 0.0
H1371 H 0.13328 0.0838 0.79431 0.0
H1372 H 0.10512 0.10554 0.78358 0.0
H1373 H 0.11714 0.09918 0.81864 0.0
H1374 H 0.1503 0.17965 0.85606 0.0
H1375 H 0.1097 0.20478 0.83382 0.0
H1376 H 0.09618 0.15211 0.77514 0.0
C1377 C 0.18667 0.09692 0.82279 0.0
C1378 C 0.20739 0.09525 0.84503 0.0
C1379 C 0.20765 0.11325 0.86341 0.0
C1380 C 0.18807 0.13295 0.85932 0.0
C1381 C 0.16803 0.13415 0.83704 0.0
C1382 C 0.167 0.11633 0.81933 0.0
C1383 C 0.14288 0.12115 0.79755 0.0
C1384 C 0.1518 0.1241 0.7699 0.0
C1385 C 0.12346 0.10124 0.7986 0.0
C1386 C 0.13063 0.14467 0.80551 0.0
C1387 C 0.14549 0.15209 0.82814 0.0
C1388 C 0.13835 0.17379 0.83854 0.0
C1389 C 0.11528 0.18801 0.82576 0.0
C1390 C 0.09934 0.18036 0.80302 0.0
C1391 C 0.10747 0.15841 0.79282 0.0
H1392 H 0.70447 0.90765 0.64942 0.0
H1393 H 0.73853 0.95527 0.59484 0.0
H1394 H 0.73215 0.92659 0.56058 0.0
H1395 H 0.73269 0.85161 0.62734 0.0
H1396 H 0.70331 0.83543 0.62941 0.0
H1397 H 0.71046 0.85937 0.65086 0.0
H1398 H 0.66329 0.88049 0.63361 0.0
H1399 H 0.65599 0.85662 0.61209 0.0
H1400 H 0.65322 0.88722 0.59828 0.0
H1401 H 0.7243 0.89274 0.53185 0.0
H1402 H 0.71277 0.85636 0.50946 0.0
H1403 H 0.68057 0.82916 0.57904 0.0
C1404 C 0.71038 0.91214 0.6302 0.0
C1405 C 0.72192 0.93432 0.62528 0.0
C1406 C 0.72945 0.93894 0.59965 0.0
C1407 C 0.72601 0.92255 0.57979 0.0
C1408 C 0.71468 0.90118 0.58518 0.0
C1409 C 0.70672 0.89584 0.60961 0.0
C1410 C 0.69466 0.87139 0.60939 0.0
C1411 C 0.71127 0.85338 0.63052 0.0
C1412 C 0.66502 0.87409 0.61361 0.0
C1413 C 0.69712 0.86407 0.58114 0.0
C1414 C 0.70907 0.88161 0.56783 0.0
C1415 C 0.71466 0.87903 0.54202 0.0
C1416 C 0.70798 0.85816 0.5294 0.0
C1417 C 0.69531 0.83977 0.54203 0.0
C1418 C 0.68968 0.84295 0.56843 0.0
H1419 H 0.80652 0.14583 0.09346 0.0
H1420 H 0.88829 0.12552 0.08067 0.0
H1421 H 0.89029 0.09072 0.11325 0.0
H1422 H 0.81612 0.12725 0.16279 0.0
H1423 H 0.78471 0.1143 0.16359 0.0
H1424 H 0.78667 0.13949 0.14024 0.0
H1425 H 0.77024 0.11801 0.09866 0.0
H1426 H 0.76351 0.09344 0.12044 0.0
H1427 H 0.78432 0.08814 0.09499 0.0
H1428 H 0.88205 0.05636 0.14526 0.0
H1429 H 0.86289 0.02426 0.17081 0.0
H1430 H 0.78599 0.06625 0.15931 0.0
C1431 C 0.82492 0.13414 0.09743 0.0
C1432 C 0.84729 0.13855 0.08451 0.0
C1433 C 0.87106 0.12288 0.0907 0.0
C1434 C 0.87234 0.10295 0.10906 0.0
C1435 C 0.84967 0.09891 0.12097 0.0
C1436 C 0.82638 0.11404 0.11523 0.0
C1437 C 0.80429 0.10518 0.12949 0.0
C1438 C 0.7975 0.12264 0.15019 0.0
C1439 C 0.77912 0.10093 0.10971 0.0
C1440 C 0.81827 0.08199 0.14297 0.0
C1441 C 0.84471 0.07896 0.1386 0.0
C1442 C 0.86142 0.0586 0.14897 0.0
C1443 C 0.85053 0.04059 0.16356 0.0
C1444 C 0.82317 0.04303 0.16698 0.0
C1445 C 0.80708 0.06414 0.15701 0.0
H1446 H 0.21305 0.62368 0.46095 0.0
H1447 H 0.20561 0.586 0.53639 0.0
H1448 H 0.21835 0.54766 0.5187 0.0
H1449 H 0.18673 0.57845 0.41872 0.0
H1450 H 0.20994 0.58238 0.39521 0.0
H1451 H 0.19985 0.60718 0.41351 0.0
H1452 H 0.24991 0.61246 0.43111 0.0
H1453 H 0.26011 0.58779 0.4127 0.0
H1454 H 0.27105 0.58725 0.44811 0.0
H1455 H 0.23391 0.5142 0.49477 0.0
H1456 H 0.25157 0.48621 0.46457 0.0
H1457 H 0.24741 0.54437 0.40353 0.0
C1458 C 0.21411 0.60732 0.47364 0.0
C1459 C 0.20796 0.60767 0.49985 0.0
C1460 C 0.20965 0.58599 0.51603 0.0
C1461 C 0.217 0.56417 0.50625 0.0
C1462 C 0.22257 0.56435 0.48027 0.0
C1463 C 0.2213 0.58524 0.46411 0.0
C1464 C 0.2287 0.58017 0.43701 0.0
C1465 C 0.20488 0.58747 0.4148 0.0
C1466 C 0.25394 0.59265 0.43195 0.0
C1467 C 0.23441 0.55318 0.44068 0.0
C1468 C 0.23082 0.54456 0.46588 0.0
C1469 C 0.23641 0.52055 0.47482 0.0
C1470 C 0.24634 0.50484 0.45763 0.0
C1471 C 0.25009 0.51323 0.43182 0.0
C1472 C 0.24378 0.53757 0.423 0.0
H1473 H 0.32539 0.3656 1.0198 0.0
H1474 H 0.40411 0.336 1.00644 0.0
H1475 H 0.40127 0.36324 0.96641 0.0
H1476 H 0.29566 0.37381 0.95049 0.0
H1477 H 0.27709 0.40193 0.9536 0.0
H1478 H 0.2848 0.38024 0.98179 0.0
H1479 H 0.30789 0.41198 1.01002 0.0
H1480 H 0.30013 0.43379 0.98194 0.0
H1481 H 0.33445 0.42743 0.99799 0.0
H1482 H 0.39007 0.39279 0.92667 0.0
H1483 H 0.37168 0.42434 0.89132 0.0
H1484 H 0.30086 0.4362 0.93 0.0
C1485 C 0.34214 0.365 1.00861 0.0
C1486 C 0.36511 0.34855 1.01673 0.0
C1487 C 0.38636 0.34839 1.00113 0.0
C1488 C 0.38495 0.3638 0.97812 0.0
C1489 C 0.36218 0.37963 0.97064 0.0
C1490 C 0.34118 0.38054 0.98545 0.0
C1491 C 0.31914 0.39953 0.97278 0.0
C1492 C 0.2926 0.38819 0.96416 0.0
C1493 C 0.31518 0.41936 0.99182 0.0
C1494 C 0.33114 0.40895 0.9487 0.0
C1495 C 0.35591 0.3971 0.94779 0.0
C1496 C 0.37074 0.40234 0.92726 0.0
C1497 C 0.36014 0.42033 0.90721 0.0
C1498 C 0.33496 0.43308 0.90781 0.0
C1499 C 0.32033 0.42708 0.92892 0.0
H1500 H 0.50885 0.67434 0.84525 0.0
H1501 H 0.51088 0.7407 0.79737 0.0
H1502 H 0.55359 0.74847 0.82442 0.0
H1503 H 0.53367 0.698 0.90754 0.0
H1504 H 0.55353 0.67101 0.92158 0.0
H1505 H 0.52409 0.66922 0.89722 0.0
H1506 H 0.55296 0.64565 0.86766 0.0
H1507 H 0.58251 0.64738 0.89196 0.0
H1508 H 0.58227 0.65832 0.85783 0.0
H1509 H 0.5948 0.75048 0.85721 0.0
H1510 H 0.6311 0.74743 0.89541 0.0
H1511 H 0.60429 0.68055 0.92434 0.0
C1512 C 0.51864 0.69021 0.84023 0.0
C1513 C 0.5066 0.70675 0.81885 0.0
C1514 C 0.51969 0.72769 0.81345 0.0
C1515 C 0.54405 0.73228 0.82871 0.0
C1516 C 0.55528 0.71589 0.84973 0.0
C1517 C 0.54304 0.69536 0.85574 0.0
C1518 C 0.5589 0.68168 0.88064 0.0
C1519 C 0.54151 0.67987 0.90307 0.0
C1520 C 0.5698 0.65677 0.87413 0.0
C1521 C 0.58178 0.69774 0.88757 0.0
C1522 C 0.57929 0.71722 0.86915 0.0
C1523 C 0.59731 0.73498 0.87135 0.0
C1524 C 0.61839 0.73285 0.89286 0.0
C1525 C 0.62179 0.71311 0.91203 0.0
C1526 C 0.60288 0.69544 0.9095 0.0
H1527 H 0.09446 0.81543 0.24331 0.0
H1528 H 0.03895 0.76104 0.22266 0.0
H1529 H 0.06364 0.74974 0.18702 0.0
H1530 H 0.10424 0.83241 0.17472 0.0
H1531 H 0.13976 0.83589 0.1827 0.0
H1532 H 0.11786 0.8409 0.2073 0.0
H1533 H 0.14759 0.80966 0.24038 0.0
H1534 H 0.16967 0.80462 0.21598 0.0
H1535 H 0.15449 0.77979 0.23041 0.0
H1536 H 0.09229 0.74362 0.15341 0.0
H1537 H 0.12653 0.74078 0.12422 0.0
H1538 H 0.16754 0.7974 0.164 0.0
C1539 C 0.08756 0.80114 0.23129 0.0
C1540 C 0.06437 0.78932 0.23624 0.0
C1541 C 0.05634 0.77065 0.21981 0.0
C1542 C 0.07029 0.76399 0.1992 0.0
C1543 C 0.09264 0.77593 0.19477 0.0
C1544 C 0.10159 0.79397 0.21028 0.0
C1545 C 0.12691 0.8031 0.20084 0.0
C1546 C 0.12189 0.82966 0.1908 0.0
C1547 C 0.1511 0.79905 0.22324 0.0
C1548 C 0.13059 0.78722 0.17784 0.0
C1549 C 0.11019 0.77194 0.1749 0.0
C1550 C 0.10845 0.75543 0.15554 0.0
C1551 C 0.12824 0.75399 0.13895 0.0
C1552 C 0.15018 0.76871 0.14154 0.0
C1553 C 0.15108 0.78596 0.16118 0.0
H1554 H 0.53275 0.20997 0.70616 0.0
H1555 H 0.49808 0.15902 0.75626 0.0
H1556 H 0.45624 0.16246 0.72315 0.0
H1557 H 0.47319 0.2484 0.68364 0.0
H1558 H 0.48097 0.25368 0.65037 0.0
H1559 H 0.50777 0.24699 0.67792 0.0
H1560 H 0.52657 0.21151 0.65389 0.0
H1561 H 0.49979 0.21811 0.62628 0.0
H1562 H 0.50491 0.18858 0.64317 0.0
H1563 H 0.41685 0.17346 0.68455 0.0
H1564 H 0.38574 0.18831 0.64356 0.0
H1565 H 0.44779 0.23066 0.61868 0.0
C1566 C 0.51646 0.19936 0.71023 0.0
C1567 C 0.51884 0.18411 0.73395 0.0
C1568 C 0.49695 0.17059 0.73822 0.0
C1569 C 0.47302 0.17259 0.71956 0.0
C1570 C 0.47134 0.18799 0.69654 0.0
C1571 C 0.4927 0.20094 0.69177 0.0
C1572 C 0.48629 0.21592 0.66539 0.0
C1573 C 0.4871 0.24284 0.6696 0.0
C1574 C 0.50553 0.20805 0.64604 0.0
C1575 C 0.4578 0.2096 0.65605 0.0
C1576 C 0.44938 0.19361 0.67428 0.0
C1577 C 0.42344 0.18579 0.67009 0.0
C1578 C 0.40583 0.19435 0.6467 0.0
C1579 C 0.41419 0.21046 0.62753 0.0
C1580 C 0.44064 0.2181 0.63256 0.0
H1581 H 0.93067 0.25359 0.41165 0.0
H1582 H 0.88729 0.3239 0.40488 0.0
H1583 H 0.90142 0.33204 0.3607 0.0
H1584 H 0.98722 0.27063 0.38037 0.0
H1585 H 0.9901 0.24339 0.36348 0.0
H1586 H 0.97664 0.24323 0.39445 0.0
H1587 H 0.93372 0.22591 0.37192 0.0
H1588 H 0.94671 0.22615 0.34069 0.0
H1589 H 0.91437 0.24145 0.34249 0.0
H1590 H 0.92055 0.33255 0.31667 0.0
H1591 H 0.94279 0.32584 0.27731 0.0
H1592 H 0.97417 0.25499 0.31198 0.0
C1593 C 0.92431 0.27086 0.40108 0.0
C1594 C 0.90802 0.28826 0.41227 0.0
C1595 C 0.89989 0.31034 0.39719 0.0
C1596 C 0.90781 0.31509 0.37193 0.0
C1597 C 0.92381 0.29757 0.36159 0.0
C1598 C 0.93195 0.27586 0.37574 0.0
C1599 C 0.94891 0.25997 0.36004 0.0
C1600 C 0.97741 0.25396 0.3755 0.0
C1601 C 0.93509 0.23702 0.35338 0.0
C1602 C 0.94935 0.2762 0.3349 0.0
C1603 C 0.9346 0.29776 0.33622 0.0
C1604 C 0.93201 0.31567 0.3155 0.0
C1605 C 0.94473 0.31161 0.29301 0.0
C1606 C 0.96016 0.28976 0.29095 0.0
C1607 C 0.9624 0.27184 0.31248 0.0
H1608 H 0.23724 0.10832 0.33879 0.0
H1609 H 0.2019 0.05194 0.38108 0.0
H1610 H 0.15662 0.07226 0.3656 0.0
H1611 H 0.19121 0.15798 0.35044 0.0
H1612 H 0.19033 0.17243 0.31764 0.0
H1613 H 0.21997 0.15419 0.33325 0.0
H1614 H 0.21735 0.12845 0.29246 0.0
H1615 H 0.1877 0.14655 0.27671 0.0
H1616 H 0.1868 0.11453 0.28175 0.0
H1617 H 0.11519 0.09832 0.3447 0.0
H1618 H 0.08051 0.12746 0.31949 0.0
H1619 H 0.14285 0.16599 0.28909 0.0
C1620 C 0.2201 0.10038 0.3453 0.0
C1621 C 0.22328 0.07864 0.36163 0.0
C1622 C 0.2001 0.0687 0.36897 0.0
C1623 C 0.17428 0.0801 0.36019 0.0
C1624 C 0.17193 0.10137 0.34397 0.0
C1625 C 0.19423 0.11138 0.33655 0.0
C1626 C 0.18618 0.1338 0.31803 0.0
C1627 C 0.1976 0.15591 0.3306 0.0
C1628 C 0.19503 0.13063 0.29062 0.0
C1629 C 0.15579 0.13491 0.31621 0.0
C1630 C 0.14804 0.11606 0.33138 0.0
C1631 C 0.12105 0.1131 0.33271 0.0
C1632 C 0.10145 0.12971 0.31808 0.0
C1633 C 0.10875 0.14903 0.30198 0.0
C1634 C 0.13644 0.15165 0.30132 0.0
H1635 H 0.28387 0.95664 0.82348 0.0
H1636 H 0.3448 0.97912 0.88434 0.0
H1637 H 0.37251 0.94102 0.88198 0.0
H1638 H 0.28984 0.89306 0.84353 0.0
H1639 H 0.28416 0.88551 0.80929 0.0
H1640 H 0.27004 0.91366 0.81862 0.0
H1641 H 0.29436 0.93552 0.78258 0.0
H1642 H 0.30915 0.90695 0.77479 0.0
H1643 H 0.33031 0.9303 0.78482 0.0
H1644 H 0.39366 0.89984 0.87182 0.0
H1645 H 0.40616 0.86065 0.85543 0.0
H1646 H 0.33124 0.86641 0.80033 0.0
C1647 C 0.30292 0.95365 0.83661 0.0
C1648 C 0.31202 0.97105 0.85422 0.0
C1649 C 0.33728 0.96618 0.87071 0.0
C1650 C 0.35314 0.94454 0.8695 0.0
C1651 C 0.34349 0.92791 0.85171 0.0
C1652 C 0.3189 0.93233 0.83565 0.0
C1653 C 0.31337 0.91232 0.81735 0.0
C1654 C 0.28784 0.90042 0.82247 0.0
C1655 C 0.31164 0.92183 0.78813 0.0
C1656 C 0.33834 0.89545 0.82587 0.0
C1657 C 0.35563 0.90479 0.84562 0.0
C1658 C 0.38021 0.8925 0.85633 0.0
C1659 C 0.38723 0.87025 0.84667 0.0
C1660 C 0.36986 0.86028 0.82635 0.0
C1661 C 0.34499 0.87323 0.81598 0.0
H1662 H 0.6695 0.43371 0.68682 0.0
H1663 H 0.71813 0.40775 0.62899 0.0
H1664 H 0.71807 0.36632 0.64876 0.0
H1665 H 0.69988 0.3921 0.74254 0.0
H1666 H 0.66826 0.38883 0.75456 0.0
H1667 H 0.67398 0.41654 0.73719 0.0
H1668 H 0.63086 0.41327 0.70317 0.0
H1669 H 0.62494 0.38571 0.72052 0.0
H1670 H 0.62732 0.3865 0.68544 0.0
H1671 H 0.70952 0.32802 0.67227 0.0
H1672 H 0.69182 0.29501 0.697 0.0
H1673 H 0.65 0.34666 0.74012 0.0
C1674 C 0.68003 0.41929 0.67823 0.0
C1675 C 0.6936 0.42369 0.6563 0.0
C1676 C 0.70765 0.40455 0.64587 0.0
C1677 C 0.70778 0.38109 0.65697 0.0
C1678 C 0.69404 0.37737 0.67856 0.0
C1679 C 0.68044 0.39593 0.68908 0.0
C1680 C 0.66611 0.38711 0.7114 0.0
C1681 C 0.67776 0.39672 0.73799 0.0
C1682 C 0.6355 0.39351 0.70472 0.0
C1683 C 0.67315 0.36056 0.71129 0.0
C1684 C 0.68952 0.35529 0.69245 0.0
C1685 C 0.69715 0.33186 0.68747 0.0
C1686 C 0.68721 0.31328 0.70176 0.0
C1687 C 0.66988 0.31842 0.72065 0.0
C1688 C 0.66338 0.34231 0.72591 0.0
H1689 H 0.81845 0.59831 0.18243 0.0
H1690 H 0.8084 0.56969 0.2612 0.0
H1691 H 0.84139 0.59577 0.28158 0.0
H1692 H 0.89173 0.60796 0.19875 0.0
H1693 H 0.88871 0.63601 0.17888 0.0
H1694 H 0.86643 0.61312 0.16961 0.0
H1695 H 0.82535 0.64345 0.17028 0.0
H1696 H 0.84751 0.66634 0.17981 0.0
H1697 H 0.82232 0.65875 0.20004 0.0
H1698 H 0.87103 0.62705 0.29436 0.0
H1699 H 0.89963 0.66043 0.29928 0.0
H1700 H 0.89342 0.67077 0.21303 0.0
C1701 C 0.824 0.59704 0.20388 0.0
C1702 C 0.81157 0.58108 0.22023 0.0
C1703 C 0.81843 0.58085 0.24827 0.0
C1704 C 0.83692 0.59592 0.26009 0.0
C1705 C 0.8484 0.6117 0.24374 0.0
C1706 C 0.84252 0.61242 0.21625 0.0
C1707 C 0.85711 0.63228 0.20387 0.0
C1708 C 0.87719 0.62171 0.18676 0.0
C1709 C 0.83686 0.65133 0.18753 0.0
C1710 C 0.87172 0.64248 0.22873 0.0
C1711 C 0.86614 0.63021 0.25137 0.0
C1712 C 0.87606 0.6365 0.27678 0.0
C1713 C 0.8926 0.65553 0.27934 0.0
C1714 C 0.89973 0.66818 0.25669 0.0
C1715 C 0.88868 0.6616 0.23091 0.0
H1716 H 0.36859 0.16095 0.23562 0.0
H1717 H 0.29103 0.14273 0.19567 0.0
H1718 H 0.29645 0.16844 0.15647 0.0
H1719 H 0.35827 0.22391 0.21109 0.0
H1720 H 0.39321 0.22628 0.20798 0.0
H1721 H 0.38413 0.20531 0.23276 0.0
H1722 H 0.41072 0.17102 0.21333 0.0
H1723 H 0.41941 0.19181 0.18811 0.0
H1724 H 0.4025 0.16567 0.17858 0.0
H1725 H 0.31002 0.19482 0.12102 0.0
H1726 H 0.32768 0.22624 0.09382 0.0
H1727 H 0.39418 0.23134 0.15714 0.0
C1728 C 0.35258 0.16245 0.21879 0.0
C1729 C 0.32975 0.14892 0.21869 0.0
C1730 C 0.30933 0.15181 0.19608 0.0
C1731 C 0.31207 0.16661 0.17366 0.0
C1732 C 0.33506 0.17899 0.17415 0.0
C1733 C 0.35467 0.17765 0.1963 0.0
C1734 C 0.37656 0.19417 0.19192 0.0
C1735 C 0.37812 0.21357 0.21214 0.0
C1736 C 0.40392 0.17981 0.19305 0.0
C1737 C 0.36608 0.20489 0.16385 0.0
C1738 C 0.34234 0.19545 0.15391 0.0
C1739 C 0.32858 0.20237 0.12853 0.0
C1740 C 0.33884 0.22005 0.11316 0.0
C1741 C 0.36239 0.23076 0.1233 0.0
C1742 C 0.37642 0.22295 0.14883 0.0
H1743 H 0.26485 0.92207 0.74509 0.0
H1744 H 0.20359 0.90468 0.7929 0.0
H1745 H 0.20759 0.863 0.78077 0.0
H1746 H 0.2423 0.90156 0.69404 0.0
H1747 H 0.27192 0.88827 0.68263 0.0
H1748 H 0.27521 0.91136 0.70508 0.0
H1749 H 0.3096 0.88358 0.7372 0.0
H1750 H 0.30577 0.85931 0.71569 0.0
H1751 H 0.30065 0.85503 0.74999 0.0
H1752 H 0.2035 0.83181 0.75115 0.0
H1753 H 0.19048 0.81672 0.70715 0.0
H1754 H 0.25475 0.85213 0.67731 0.0
C1755 C 0.25327 0.90905 0.75388 0.0
C1756 C 0.23389 0.91634 0.76965 0.0
C1757 C 0.21876 0.89926 0.78088 0.0
C1758 C 0.2212 0.87546 0.77432 0.0
C1759 C 0.2391 0.86906 0.75687 0.0
C1760 C 0.25557 0.88534 0.74735 0.0
C1761 C 0.26778 0.87644 0.72394 0.0
C1762 C 0.26396 0.89551 0.70005 0.0
C1763 C 0.29771 0.86809 0.73225 0.0
C1764 C 0.25147 0.85522 0.71854 0.0
C1765 C 0.23661 0.8501 0.73887 0.0
C1766 C 0.2157 0.83497 0.73562 0.0
C1767 C 0.20821 0.82665 0.71049 0.0
C1768 C 0.22159 0.83363 0.68908 0.0
C1769 C 0.24473 0.84626 0.69372 0.0
H1770 H 0.7783 0.47195 0.71411 0.0
H1771 H 0.7566 0.53299 0.7575 0.0
H1772 H 0.76193 0.50706 0.79898 0.0
H1773 H 0.74673 0.42664 0.75252 0.0
H1774 H 0.77366 0.40368 0.75253 0.0
H1775 H 0.76599 0.42636 0.72526 0.0
H1776 H 0.8154 0.43763 0.73289 0.0
H1777 H 0.82322 0.41501 0.76014 0.0
H1778 H 0.82992 0.44566 0.76539 0.0
H1779 H 0.76974 0.47581 0.8355 0.0
H1780 H 0.78291 0.4407 0.86692 0.0
H1781 H 0.80361 0.39918 0.80211 0.0
C1782 C 0.77409 0.47959 0.73229 0.0
C1783 C 0.76655 0.50438 0.73261 0.0
C1784 C 0.76211 0.51401 0.75685 0.0
C1785 C 0.76505 0.49944 0.7805 0.0
C1786 C 0.77271 0.4752 0.77973 0.0
C1787 C 0.7774 0.46523 0.75643 0.0
C1788 C 0.78723 0.43885 0.76198 0.0
C1789 C 0.76721 0.42294 0.74719 0.0
C1790 C 0.81563 0.43401 0.75466 0.0
C1791 C 0.78749 0.43582 0.792 0.0
C1792 C 0.77866 0.45704 0.80155 0.0
C1793 C 0.77691 0.45909 0.82837 0.0
C1794 C 0.78473 0.439 0.84615 0.0
C1795 C 0.79483 0.4171 0.8373 0.0
C1796 C 0.79585 0.4155 0.80965 0.0
H1797 H 0.71934 0.66942 0.33799 0.0
H1798 H 0.6681 0.61533 0.36151 0.0
H1799 H 0.65617 0.63976 0.39733 0.0
H1800 H 0.74394 0.68533 0.40433 0.0
H1801 H 0.74371 0.71691 0.39516 0.0
H1802 H 0.74833 0.69536 0.37097 0.0
H1803 H 0.70773 0.71651 0.33887 0.0
H1804 H 0.70308 0.73815 0.36297 0.0
H1805 H 0.67561 0.72108 0.35033 0.0
H1806 H 0.64936 0.67065 0.43165 0.0
H1807 H 0.64935 0.70462 0.46076 0.0
H1808 H 0.70432 0.73891 0.41503 0.0
C1809 C 0.70547 0.6627 0.3505 0.0
C1810 C 0.6951 0.63994 0.34672 0.0
C1811 C 0.67707 0.63218 0.36399 0.0
C1812 C 0.66988 0.64613 0.38444 0.0
C1813 C 0.68061 0.6682 0.38773 0.0
C1814 C 0.69802 0.67649 0.37119 0.0
C1815 C 0.70689 0.7008 0.37924 0.0
C1816 C 0.73754 0.69952 0.38794 0.0
C1817 C 0.69778 0.72028 0.35649 0.0
C1818 C 0.69183 0.70481 0.40277 0.0
C1819 C 0.67669 0.68585 0.40736 0.0
C1820 C 0.66117 0.68559 0.42812 0.0
C1821 C 0.66122 0.70506 0.44462 0.0
C1822 C 0.67672 0.72474 0.44047 0.0
C1823 C 0.6921 0.72437 0.41902 0.0
H1824 H 0.19065 0.3354 0.15849 0.0
H1825 H 0.20595 0.26231 0.13695 0.0
H1826 H 0.16365 0.25186 0.15148 0.0
H1827 H 0.16206 0.31859 0.21861 0.0
H1828 H 0.13719 0.34382 0.21436 0.0
H1829 H 0.16866 0.34631 0.20181 0.0
H1830 H 0.14272 0.35916 0.15478 0.0
H1831 H 0.11121 0.35665 0.16723 0.0
H1832 H 0.11841 0.34021 0.13932 0.0
H1833 H 0.12038 0.24847 0.16776 0.0
H1834 H 0.07818 0.25182 0.1862 0.0
H1835 H 0.08904 0.32661 0.19974 0.0
C1836 C 0.18527 0.31713 0.15698 0.0
C1837 C 0.20189 0.29984 0.14597 0.0
C1838 C 0.19363 0.27621 0.14442 0.0
C1839 C 0.1696 0.26996 0.1529 0.0
C1840 C 0.15376 0.28736 0.16329 0.0
C1841 C 0.16118 0.31044 0.1656 0.0
C1842 C 0.14022 0.32539 0.17797 0.0
C1843 C 0.15278 0.33404 0.20478 0.0
C1844 C 0.12738 0.34661 0.15867 0.0
C1845 C 0.11987 0.30703 0.18194 0.0
C1846 C 0.12836 0.28528 0.17327 0.0
C1847 C 0.11351 0.26539 0.17465 0.0
C1848 C 0.08937 0.26756 0.18523 0.0
C1849 C 0.07988 0.28948 0.19452 0.0
C1850 C 0.09548 0.30959 0.19275 0.0
H1851 H 0.77137 0.22007 0.92068 0.0
H1852 H 0.75315 0.29514 0.89378 0.0
H1853 H 0.70947 0.28538 0.86936 0.0
H1854 H 0.74263 0.19663 0.8587 0.0
H1855 H 0.72989 0.17115 0.87462 0.0
H1856 H 0.75925 0.18394 0.8908 0.0
H1857 H 0.73608 0.18947 0.93245 0.0
H1858 H 0.70655 0.17684 0.91634 0.0
H1859 H 0.70363 0.20612 0.92898 0.0
H1860 H 0.66709 0.26771 0.84849 0.0
H1861 H 0.63178 0.24335 0.82826 0.0
H1862 H 0.67725 0.17867 0.86594 0.0
C1863 C 0.75825 0.23453 0.9096 0.0
C1864 C 0.76601 0.25859 0.90931 0.0
C1865 C 0.74807 0.27669 0.89433 0.0
C1866 C 0.72303 0.27127 0.88051 0.0
C1867 C 0.716 0.24753 0.88145 0.0
C1868 C 0.73327 0.22934 0.89529 0.0
C1869 C 0.72124 0.20515 0.89202 0.0
C1870 C 0.73933 0.18821 0.87821 0.0
C1871 C 0.71661 0.19372 0.91906 0.0
C1872 C 0.69444 0.21254 0.87418 0.0
C1873 C 0.69182 0.23717 0.86872 0.0
C1874 C 0.66903 0.24847 0.85275 0.0
C1875 C 0.64886 0.23441 0.84149 0.0
C1876 C 0.65114 0.20906 0.84587 0.0
C1877 C 0.67433 0.198 0.86274 0.0
H1878 H 0.84964 0.7793 0.39373 0.0
H1879 H 0.83505 0.85403 0.4095 0.0
H1880 H 0.87424 0.86397 0.38821 0.0
H1881 H 0.92226 0.77723 0.40768 0.0
H1882 H 0.92695 0.75743 0.38177 0.0
H1883 H 0.89751 0.75643 0.39801 0.0
H1884 H 0.86712 0.76364 0.35203 0.0
H1885 H 0.89652 0.76479 0.33575 0.0
H1886 H 0.87094 0.78948 0.33043 0.0
H1887 H 0.91569 0.86577 0.36461 0.0
H1888 H 0.95508 0.85869 0.34096 0.0
H1889 H 0.94263 0.78273 0.34328 0.0
C1890 C 0.85472 0.79775 0.393 0.0
C1891 C 0.8389 0.81586 0.40317 0.0
C1892 C 0.84633 0.83982 0.40136 0.0
C1893 C 0.86877 0.84566 0.38951 0.0
C1894 C 0.88386 0.82735 0.37973 0.0
C1895 C 0.87716 0.80386 0.38146 0.0
C1896 C 0.89656 0.78747 0.36943 0.0
C1897 C 0.91171 0.76853 0.39049 0.0
C1898 C 0.88191 0.77566 0.34549 0.0
C1899 C 0.91519 0.80541 0.36071 0.0
C1900 C 0.90766 0.82835 0.36669 0.0
C1901 C 0.92187 0.84781 0.35998 0.0
C1902 C 0.94428 0.84365 0.34667 0.0
C1903 C 0.95217 0.8202 0.34031 0.0
C1904 C 0.93738 0.80096 0.34776 0.0
H1905 H 0.35144 0.75132 0.71581 0.0
H1906 H 0.37812 0.68474 0.68462 0.0
H1907 H 0.33751 0.68884 0.65047 0.0
H1908 H 0.28114 0.74286 0.70716 0.0
H1909 H 0.27026 0.77384 0.69722 0.0
H1910 H 0.30176 0.76622 0.71878 0.0
H1911 H 0.32659 0.78957 0.68562 0.0
H1912 H 0.29514 0.79719 0.66391 0.0
H1913 H 0.32306 0.78217 0.65131 0.0
H1914 H 0.29298 0.6988 0.62141 0.0
H1915 H 0.24818 0.71426 0.59834 0.0
H1916 H 0.24983 0.7755 0.64656 0.0
C1917 C 0.34889 0.73764 0.70169 0.0
C1918 C 0.36822 0.71763 0.703 0.0
C1919 C 0.3639 0.70026 0.68405 0.0
C1920 C 0.3408 0.70244 0.66458 0.0
C1921 C 0.32217 0.72225 0.66398 0.0
C1922 C 0.32601 0.73967 0.68191 0.0
C1923 C 0.30266 0.75908 0.67697 0.0
C1924 C 0.2881 0.76057 0.70149 0.0
C1925 C 0.31245 0.78345 0.66898 0.0
C1926 C 0.28485 0.74967 0.65369 0.0
C1927 C 0.29663 0.72838 0.64664 0.0
C1928 C 0.28378 0.71558 0.62659 0.0
C1929 C 0.25824 0.72456 0.61357 0.0
C1930 C 0.2455 0.74631 0.62028 0.0
C1931 C 0.25922 0.75918 0.64051 0.0
H1932 H 0.80578 0.91309 0.70988 0.0
H1933 H 0.84111 0.97128 0.67057 0.0
H1934 H 0.88647 0.95114 0.68605 0.0
H1935 H 0.85468 0.90638 0.76745 0.0
H1936 H 0.8542 0.87426 0.77157 0.0
H1937 H 0.8246 0.89226 0.75553 0.0
H1938 H 0.82357 0.86746 0.71402 0.0
H1939 H 0.85315 0.84931 0.72994 0.0
H1940 H 0.85296 0.8645 0.69763 0.0
H1941 H 0.92798 0.92527 0.70738 0.0
H1942 H 0.96249 0.89617 0.73316 0.0
H1943 H 0.89953 0.85612 0.76011 0.0
C1944 C 0.82293 0.92146 0.70397 0.0
C1945 C 0.81978 0.94364 0.68858 0.0
C1946 C 0.84294 0.95413 0.68195 0.0
C1947 C 0.86879 0.94287 0.69074 0.0
C1948 C 0.8711 0.92119 0.70618 0.0
C1949 C 0.84877 0.91062 0.71274 0.0
C1950 C 0.85664 0.88798 0.73076 0.0
C1951 C 0.84696 0.89038 0.75793 0.0
C1952 C 0.84595 0.86601 0.71727 0.0
C1953 C 0.887 0.88737 0.73334 0.0
C1954 C 0.89494 0.90663 0.71895 0.0
C1955 C 0.92199 0.91012 0.71868 0.0
C1956 C 0.94145 0.89355 0.73356 0.0
C1957 C 0.93382 0.87381 0.74876 0.0
C1958 C 0.90613 0.87073 0.7484 0.0
H1959 H 0.73385 0.07256 0.16805 0.0
H1960 H 0.72401 0.03032 0.23977 0.0
H1961 H 0.70021 0.06526 0.25568 0.0
H1962 H 0.7466 0.12562 0.19617 0.0
H1963 H 0.7265 0.14676 0.1718 0.0
H1964 H 0.73918 0.11846 0.16179 0.0
H1965 H 0.69295 0.10674 0.1429 0.0
H1966 H 0.67897 0.13564 0.15032 0.0
H1967 H 0.66601 0.10869 0.16269 0.0
H1968 H 0.68278 0.10488 0.26674 0.0
H1969 H 0.66703 0.1467 0.27038 0.0
H1970 H 0.68419 0.16496 0.19053 0.0
C1971 C 0.72569 0.07055 0.18657 0.0
C1972 C 0.73019 0.04852 0.20251 0.0
C1973 C 0.72024 0.04682 0.2271 0.0
C1974 C 0.70687 0.06664 0.23638 0.0
C1975 C 0.7033 0.08821 0.22076 0.0
C1976 C 0.71177 0.09033 0.19609 0.0
C1977 C 0.70538 0.11604 0.18386 0.0
C1978 C 0.731 0.1274 0.17814 0.0
C1979 C 0.68459 0.11682 0.15843 0.0
C1980 C 0.69329 0.12803 0.20606 0.0
C1981 C 0.69224 0.11145 0.227 0.0
C1982 C 0.68285 0.11794 0.2502 0.0
C1983 C 0.67369 0.14189 0.25195 0.0
C1984 C 0.67347 0.1594 0.23051 0.0
C1985 C 0.68383 0.15223 0.20731 0.0
H1986 H 0.40434 0.6729 0.31287 0.0
H1987 H 0.35665 0.72448 0.35074 0.0
H1988 H 0.34015 0.69148 0.3765 0.0
H1989 H 0.35733 0.62481 0.31123 0.0
H1990 H 0.38462 0.60169 0.31865 0.0
H1991 H 0.38922 0.62918 0.30021 0.0
H1992 H 0.43075 0.63556 0.33494 0.0
H1993 H 0.42606 0.60835 0.35372 0.0
H1994 H 0.42702 0.63622 0.36965 0.0
H1995 H 0.33354 0.65377 0.40201 0.0
H1996 H 0.33507 0.61307 0.42396 0.0
H1997 H 0.38743 0.5864 0.36958 0.0
C1998 C 0.38991 0.67718 0.3261 0.0
C1999 C 0.38146 0.70111 0.32962 0.0
C2000 C 0.3628 0.70617 0.34729 0.0
C2001 C 0.35351 0.68759 0.36216 0.0
C2002 C 0.36306 0.66421 0.35896 0.0
C2003 C 0.3806 0.65892 0.34118 0.0
C2004 C 0.38937 0.6325 0.34294 0.0
C2005 C 0.37953 0.62139 0.3167 0.0
C2006 C 0.42011 0.62791 0.35078 0.0
C2007 C 0.37465 0.6239 0.36509 0.0
C2008 C 0.35943 0.64241 0.37391 0.0
C2009 C 0.34503 0.63901 0.39505 0.0
C2010 C 0.34606 0.61591 0.40738 0.0
C2011 C 0.36147 0.5967 0.39852 0.0
C2012 C 0.37581 0.60082 0.37704 0.0
H2013 H 0.16989 0.35225 0.78087 0.0
H2014 H 0.1236 0.35894 0.84618 0.0
H2015 H 0.15146 0.39061 0.86322 0.0
H2016 H 0.23429 0.3612 0.81824 0.0
H2017 H 0.2457 0.37855 0.79165 0.0
H2018 H 0.22182 0.3566 0.78399 0.0
H2019 H 0.18887 0.38921 0.75584 0.0
H2020 H 0.2127 0.41124 0.76343 0.0
H2021 H 0.17888 0.41612 0.77084 0.0
H2022 H 0.18422 0.42236 0.87335 0.0
H2023 H 0.22047 0.45007 0.87649 0.0
H2024 H 0.2464 0.42283 0.80538 0.0
C2025 C 0.16548 0.36044 0.79867 0.0
C2026 C 0.1445 0.35264 0.81225 0.0
C2027 C 0.13975 0.36398 0.83559 0.0
C2028 C 0.15539 0.38225 0.84537 0.0
C2029 C 0.17593 0.38932 0.83172 0.0
C2030 C 0.18108 0.37876 0.80887 0.0
C2031 C 0.20472 0.38956 0.79829 0.0
C2032 C 0.22801 0.37033 0.79804 0.0
C2033 C 0.19575 0.40228 0.77045 0.0
C2034 C 0.21217 0.40755 0.81889 0.0
C2035 C 0.1951 0.40732 0.83783 0.0
C2036 C 0.19774 0.42262 0.85862 0.0
C2037 C 0.21841 0.4384 0.86022 0.0
C2038 C 0.23656 0.43872 0.84133 0.0
C2039 C 0.23313 0.42302 0.82035 0.0
H2040 H 0.67928 0.8178 0.93463 0.0
H2041 H 0.67322 0.75412 0.8907 0.0
H2042 H 0.67805 0.77746 0.84952 0.0
H2043 H 0.64782 0.86292 0.88051 0.0
H2044 H 0.67217 0.88434 0.889 0.0
H2045 H 0.66374 0.86376 0.91456 0.0
H2046 H 0.71409 0.84919 0.92749 0.0
H2047 H 0.72269 0.8695 0.9018 0.0
H2048 H 0.73262 0.83792 0.90241 0.0
H2049 H 0.68651 0.806 0.81395 0.0
H2050 H 0.69966 0.83857 0.78528 0.0
H2051 H 0.70411 0.88462 0.85136 0.0
C2052 C 0.67783 0.80919 0.91602 0.0
C2053 C 0.67343 0.78454 0.91523 0.0
C2054 C 0.67399 0.77333 0.89113 0.0
C2055 C 0.67736 0.78637 0.86775 0.0
C2056 C 0.6814 0.81057 0.86892 0.0
C2057 C 0.682 0.82197 0.89238 0.0
C2058 C 0.68971 0.84757 0.88831 0.0
C2059 C 0.667 0.86572 0.89339 0.0
C2060 C 0.71636 0.85125 0.90606 0.0
C2061 C 0.69304 0.84862 0.85894 0.0
C2062 C 0.68803 0.82702 0.84831 0.0
C2063 C 0.69024 0.82313 0.8219 0.0
C2064 C 0.69758 0.84185 0.80568 0.0
C2065 C 0.70267 0.86437 0.81578 0.0
C2066 C 0.70046 0.86766 0.84294 0.0
H2067 H 0.81735 0.10698 0.28855 0.0
H2068 H 0.89612 0.08617 0.26866 0.0
H2069 H 0.91064 0.12602 0.27832 0.0
H2070 H 0.81765 0.17636 0.27322 0.0
H2071 H 0.80199 0.18114 0.30241 0.0
H2072 H 0.79367 0.15628 0.28266 0.0
H2073 H 0.80631 0.12713 0.32489 0.0
H2074 H 0.81451 0.1517 0.34444 0.0
H2075 H 0.83936 0.12695 0.34415 0.0
H2076 H 0.92156 0.1598 0.3032 0.0
H2077 H 0.92837 0.18303 0.34283 0.0
H2078 H 0.84358 0.18203 0.34924 0.0
C2079 C 0.83731 0.11129 0.28533 0.0
C2080 C 0.85568 0.09377 0.27802 0.0
C2081 C 0.88166 0.09962 0.27394 0.0
C2082 C 0.88999 0.12228 0.27922 0.0
C2083 C 0.87206 0.13876 0.28841 0.0
C2084 C 0.84604 0.1336 0.29122 0.0
C2085 C 0.83307 0.15127 0.30772 0.0
C2086 C 0.81025 0.16722 0.29046 0.0
C2087 C 0.8228 0.1385 0.33171 0.0
C2088 C 0.85689 0.16541 0.31624 0.0
C2089 C 0.87875 0.15879 0.30383 0.0
C2090 C 0.90441 0.1659 0.31232 0.0
C2091 C 0.90819 0.17891 0.33494 0.0
C2092 C 0.88644 0.18437 0.34878 0.0
C2093 C 0.86032 0.1788 0.33838 0.0
H2094 H 0.24055 0.58713 0.21551 0.0
H2095 H 0.27475 0.64785 0.25336 0.0
H2096 H 0.29087 0.62186 0.29412 0.0
H2097 H 0.21578 0.56301 0.27358 0.0
H2098 H 0.22262 0.53225 0.2665 0.0
H2099 H 0.21519 0.55524 0.2396 0.0
H2100 H 0.25996 0.54247 0.22293 0.0
H2101 H 0.26754 0.51944 0.24979 0.0
H2102 H 0.29121 0.5415 0.24549 0.0
H2103 H 0.30252 0.58941 0.33149 0.0
H2104 H 0.30816 0.55312 0.36244 0.0
H2105 H 0.26413 0.51435 0.30107 0.0
C2106 C 0.2512 0.59519 0.23233 0.0
C2107 C 0.2564 0.61975 0.23082 0.0
C2108 C 0.27092 0.6291 0.25347 0.0
C2109 C 0.27998 0.6145 0.27693 0.0
C2110 C 0.27417 0.59056 0.27772 0.0
C2111 C 0.26001 0.58099 0.25605 0.0
C2112 C 0.25573 0.55487 0.26231 0.0
C2113 C 0.22554 0.55114 0.26039 0.0
C2114 C 0.26944 0.53861 0.24404 0.0
C2115 C 0.26979 0.55125 0.29089 0.0
C2116 C 0.28036 0.57203 0.29939 0.0
C2117 C 0.29429 0.57304 0.32504 0.0
C2118 C 0.29744 0.55231 0.3425 0.0
C2119 C 0.2867 0.5308 0.33427 0.0
C2120 C 0.2727 0.53042 0.30805 0.0
H2121 H 0.32848 0.35134 0.71484 0.0
H2122 H 0.37563 0.40751 0.68824 0.0
H2123 H 0.38734 0.38322 0.65222 0.0
H2124 H 0.37408 0.30131 0.70174 0.0
H2125 H 0.34733 0.2829 0.69057 0.0
H2126 H 0.34253 0.30462 0.71455 0.0
H2127 H 0.30001 0.32385 0.68364 0.0
H2128 H 0.30477 0.30222 0.65957 0.0
H2129 H 0.30252 0.33381 0.64975 0.0
H2130 H 0.39431 0.35226 0.61805 0.0
H2131 H 0.39478 0.31796 0.5894 0.0
H2132 H 0.34393 0.28177 0.63836 0.0
C2133 C 0.34143 0.35856 0.70162 0.0
C2134 C 0.35068 0.38181 0.70458 0.0
C2135 C 0.3675 0.39023 0.6864 0.0
C2136 C 0.37457 0.37638 0.66584 0.0
C2137 C 0.36496 0.35378 0.6634 0.0
C2138 C 0.34877 0.34489 0.68086 0.0
C2139 C 0.34095 0.32007 0.67366 0.0
C2140 C 0.35187 0.30111 0.6965 0.0
C2141 C 0.31024 0.31999 0.66621 0.0
C2142 C 0.35514 0.31651 0.6495 0.0
C2143 C 0.36899 0.3361 0.6439 0.0
C2144 C 0.38353 0.33682 0.62238 0.0
C2145 C 0.38377 0.31717 0.60618 0.0
C2146 C 0.36952 0.29689 0.61139 0.0
C2147 C 0.35517 0.29679 0.63357 0.0
H2148 H 0.9558 0.75733 0.86578 0.0
H2149 H 0.97997 0.68235 0.85852 0.0
H2150 H 0.9384 0.6709 0.87429 0.0
H2151 H 0.92585 0.74795 0.92605 0.0
H2152 H 0.8985 0.77072 0.91621 0.0
H2153 H 0.93018 0.77341 0.90415 0.0
H2154 H 0.90576 0.77689 0.85551 0.0
H2155 H 0.87397 0.77429 0.86735 0.0
H2156 H 0.88455 0.75385 0.84411 0.0
H2157 H 0.89408 0.66711 0.89005 0.0
H2158 H 0.85001 0.67103 0.90553 0.0
H2159 H 0.85309 0.74828 0.90393 0.0
C2160 C 0.95247 0.73848 0.86766 0.0
C2161 C 0.97159 0.72078 0.86097 0.0
C2162 C 0.96604 0.69635 0.86358 0.0
C2163 C 0.94233 0.68961 0.87251 0.0
C2164 C 0.92404 0.70741 0.87892 0.0
C2165 C 0.92877 0.73135 0.8767 0.0
C2166 C 0.9056 0.74677 0.88502 0.0
C2167 C 0.91563 0.76053 0.9093 0.0
C2168 C 0.89165 0.76397 0.8616 0.0
C2169 C 0.88714 0.72773 0.89224 0.0
C2170 C 0.8983 0.70519 0.8884 0.0
C2171 C 0.88516 0.68467 0.89311 0.0
C2172 C 0.85995 0.68713 0.9018 0.0
C2173 C 0.84769 0.70995 0.90584 0.0
C2174 C 0.86181 0.73055 0.90122 0.0
H2175 H 0.27902 0.76209 0.17725 0.0
H2176 H 0.29501 0.776 0.09621 0.0
H2177 H 0.33499 0.79603 0.11273 0.0
H2178 H 0.30047 0.81758 0.20171 0.0
H2179 H 0.31687 0.80484 0.23386 0.0
H2180 H 0.28928 0.79064 0.21624 0.0
H2181 H 0.31936 0.75085 0.21915 0.0
H2182 H 0.34695 0.76495 0.23693 0.0
H2183 H 0.35118 0.75063 0.20681 0.0
H2184 H 0.37295 0.8168 0.13716 0.0
H2185 H 0.40779 0.83348 0.16885 0.0
H2186 H 0.36975 0.80596 0.23456 0.0
C2187 C 0.29125 0.76886 0.16306 0.0
C2188 C 0.28332 0.7672 0.1352 0.0
C2189 C 0.30007 0.77686 0.11757 0.0
C2190 C 0.32307 0.78845 0.12674 0.0
C2191 C 0.32995 0.79034 0.15395 0.0
C2192 C 0.31486 0.78054 0.172 0.0
C2193 C 0.32725 0.78526 0.20028 0.0
C2194 C 0.30727 0.80048 0.21382 0.0
C2195 C 0.33675 0.76151 0.21677 0.0
C2196 C 0.35118 0.79931 0.19505 0.0
C2197 C 0.35227 0.8021 0.16813 0.0
C2198 C 0.37234 0.81463 0.15836 0.0
C2199 C 0.39205 0.82424 0.17652 0.0
C2200 C 0.39179 0.82136 0.20435 0.0
C2201 C 0.37076 0.80875 0.21348 0.0
H2202 H 0.19904 0.24396 0.66288 0.0
H2203 H 0.20388 0.17217 0.6353 0.0
H2204 H 0.16361 0.16331 0.65535 0.0
H2205 H 0.17766 0.22823 0.72509 0.0
H2206 H 0.15511 0.25482 0.7242 0.0
H2207 H 0.18428 0.25556 0.70753 0.0
H2208 H 0.15384 0.27051 0.66318 0.0
H2209 H 0.12462 0.26991 0.67981 0.0
H2210 H 0.12626 0.2535 0.65058 0.0
H2211 H 0.12202 0.16229 0.67857 0.0
H2212 H 0.08378 0.16945 0.70376 0.0
H2213 H 0.10639 0.24188 0.71488 0.0
C2214 C 0.19156 0.22643 0.66082 0.0
C2215 C 0.20495 0.20873 0.64766 0.0
C2216 C 0.19446 0.18593 0.64575 0.0
C2217 C 0.17139 0.18076 0.65687 0.0
C2218 C 0.15878 0.19858 0.66975 0.0
C2219 C 0.16851 0.22097 0.67173 0.0
C2220 C 0.15145 0.23692 0.68682 0.0
C2221 C 0.16812 0.24431 0.71243 0.0
C2222 C 0.13827 0.25901 0.66903 0.0
C2223 C 0.13069 0.22 0.69302 0.0
C2224 C 0.13509 0.19797 0.683 0.0
C2225 C 0.11833 0.17954 0.68644 0.0
C2226 C 0.09658 0.18376 0.70063 0.0
C2227 C 0.09199 0.20618 0.71127 0.0
C2228 C 0.1093 0.22445 0.70715 0.0
H2229 H 0.68253 0.32529 0.36972 0.0
H2230 H 0.69998 0.28703 0.30152 0.0
H2231 H 0.74428 0.27242 0.32549 0.0
H2232 H 0.75198 0.34266 0.38825 0.0
H2233 H 0.75125 0.33876 0.42359 0.0
H2234 H 0.72054 0.34716 0.401 0.0
H2235 H 0.69892 0.3106 0.41989 0.0
H2236 H 0.72957 0.30203 0.44246 0.0
H2237 H 0.71547 0.281 0.41994 0.0
H2238 H 0.78586 0.25981 0.35649 0.0
H2239 H 0.82427 0.25227 0.39285 0.0
H2240 H 0.78249 0.29881 0.44165 0.0
C2241 C 0.69593 0.31427 0.35973 0.0
C2242 C 0.68748 0.30734 0.33363 0.0
C2243 C 0.70564 0.29254 0.3215 0.0
C2244 C 0.73102 0.28407 0.33494 0.0
C2245 C 0.73854 0.2906 0.36067 0.0
C2246 C 0.72182 0.30556 0.37299 0.0
C2247 C 0.73542 0.30948 0.40099 0.0
C2248 C 0.74008 0.3361 0.40361 0.0
C2249 C 0.71885 0.30022 0.42206 0.0
C2250 C 0.76199 0.29419 0.40228 0.0
C2251 C 0.7632 0.28346 0.37875 0.0
C2252 C 0.78531 0.2682 0.37505 0.0
C2253 C 0.80704 0.2639 0.39588 0.0
C2254 C 0.80661 0.27479 0.4202 0.0
C2255 C 0.78361 0.29013 0.42333 0.0
H2256 H 0.95806 0.25094 0.14786 0.0
H2257 H 0.9617 0.32743 0.15533 0.0
H2258 H 0.93704 0.33572 0.11014 0.0
H2259 H 0.9675 0.25205 0.07889 0.0
H2260 H 0.94416 0.22996 0.06974 0.0
H2261 H 0.96126 0.22942 0.10349 0.0
H2262 H 0.91538 0.23149 0.12093 0.0
H2263 H 0.89821 0.23188 0.08722 0.0
H2264 H 0.89015 0.25541 0.10812 0.0
H2265 H 0.91302 0.33657 0.06317 0.0
H2266 H 0.88977 0.32917 1.01839 0.0
H2267 H 0.90104 0.25258 0.03987 0.0
C2268 C 0.95326 0.26939 0.14012 0.0
C2269 C 0.96199 0.28848 0.15553 0.0
C2270 C 0.95552 0.31237 0.14421 0.0
C2271 C 0.94142 0.31737 0.11838 0.0
C2272 C 0.93365 0.29837 0.10352 0.0
C2273 C 0.93912 0.27482 0.11391 0.0
C2274 C 0.92863 0.2579 0.09312 0.0
C2275 C 0.95177 0.24136 0.08589 0.0
C2276 C 0.90679 0.24331 0.10293 0.0
C2277 C 0.91675 0.27565 0.06968 0.0
C2278 C 0.91984 0.2989 0.07615 0.0
C2279 C 0.91052 0.31838 0.05783 0.0
C2280 C 0.89742 0.31403 0.03231 0.0
C2281 C 0.89358 0.29036 1.02516 0.0
C2282 C 0.90371 0.27099 0.0443 0.0
H2283 H 0.57185 0.74294 0.64021 0.0
H2284 H 0.5139 0.78921 0.58473 0.0
H2285 H 0.48185 0.7886 0.61689 0.0
H2286 H 0.52526 0.70669 0.66665 0.0
H2287 H 0.5433 0.70501 0.70016 0.0
H2288 H 0.56106 0.70938 0.67214 0.0
H2289 H 0.57928 0.74731 0.69302 0.0
H2290 H 0.56045 0.74304 0.72029 0.0
H2291 H 0.55577 0.771 0.70012 0.0
H2292 H 0.45475 0.78181 0.65496 0.0
H2293 H 0.43559 0.76867 0.6953 0.0
H2294 H 0.51162 0.7285 0.72646 0.0
C2295 C 0.55263 0.75328 0.63491 0.0
C2296 C 0.54553 0.76585 0.60952 0.0
C2297 C 0.51985 0.77889 0.6036 0.0
C2298 C 0.50146 0.77888 0.62192 0.0
C2299 C 0.50894 0.7661 0.64652 0.0
C2300 C 0.534 0.75368 0.65312 0.0
C2301 C 0.53691 0.74119 0.68082 0.0
C2302 C 0.54191 0.71394 0.67985 0.0
C2303 C 0.55944 0.75124 0.69967 0.0
C2304 C 0.5094 0.74802 0.68843 0.0
C2305 C 0.49358 0.76259 0.66851 0.0
C2306 C 0.4671 0.77061 0.67084 0.0
C2307 C 0.45639 0.76323 0.69393 0.0
C2308 C 0.47205 0.74783 0.71433 0.0
C2309 C 0.49906 0.74051 0.71146 0.0
H2310 H 0.46313 0.22802 0.92595 0.0
H2311 H 0.51118 0.28345 0.9592 0.0
H2312 H 0.53843 0.2809 0.9228 0.0
H2313 H 0.51875 0.19212 0.90682 0.0
H2314 H 0.4992 0.18338 0.87689 0.0
H2315 H 0.48297 0.19014 0.90519 0.0
H2316 H 0.44998 0.22174 0.87552 0.0
H2317 H 0.46625 0.21518 0.84717 0.0
H2318 H 0.46316 0.24549 0.85704 0.0
H2319 H 0.56161 0.27158 0.8828 0.0
H2320 H 0.57869 0.25553 0.8434 0.0
H2321 H 0.51584 0.20611 0.83717 0.0
C2322 C 0.47946 0.23956 0.92581 0.0
C2323 C 0.4846 0.25617 0.94554 0.0
C2324 C 0.50617 0.27099 0.94413 0.0
C2325 C 0.52202 0.26954 0.92359 0.0
C2326 C 0.51634 0.25304 0.90453 0.0
C2327 C 0.49564 0.23822 0.90555 0.0
C2328 C 0.49395 0.22175 0.88288 0.0
C2329 C 0.49903 0.19529 0.89359 0.0
C2330 C 0.46672 0.22633 0.86457 0.0
C2331 C 0.51685 0.2297 0.86892 0.0
C2332 C 0.52958 0.24774 0.88165 0.0
C2333 C 0.55167 0.25754 0.87256 0.0
C2334 C 0.56116 0.24844 0.85007 0.0
C2335 C 0.54852 0.22978 0.83688 0.0
C2336 C 0.5259 0.22058 0.84648 0.0
H2337 H 0.11722 0.79897 0.48797 0.0
H2338 H 0.10621 0.72394 0.50554 0.0
H2339 H 0.08207 0.72182 0.46011 0.0
H2340 H 0.05198 0.81403 0.44556 0.0
H2341 H 0.0654 0.83367 0.42229 0.0
H2342 H 0.08105 0.82985 0.45663 0.0
H2343 H 0.12672 0.81737 0.44173 0.0
H2344 H 0.1112 0.82107 0.40736 0.0
H2345 H 0.12902 0.79289 0.42051 0.0
H2346 H 0.05996 0.72705 0.41183 0.0
H2347 H 0.04044 0.74012 0.36511 0.0
H2348 H 0.06553 0.81152 0.37815 0.0
C2349 C 0.10905 0.7823 0.48249 0.0
C2350 C 0.1132 0.76172 0.50081 0.0
C2351 C 0.10303 0.74005 0.49224 0.0
C2352 C 0.08935 0.73861 0.46632 0.0
C2353 C 0.08589 0.75896 0.44869 0.0
C2354 C 0.09534 0.78047 0.45638 0.0
C2355 C 0.08941 0.79944 0.4331 0.0
C2356 C 0.07085 0.82049 0.4398 0.0
C2357 C 0.11565 0.8082 0.42522 0.0
C2358 C 0.07506 0.78523 0.4114 0.0
C2359 C 0.07335 0.76188 0.42075 0.0
C2360 C 0.06118 0.74534 0.40428 0.0
C2361 C 0.05023 0.75286 0.37765 0.0
C2362 C 0.05138 0.77679 0.36757 0.0
C2363 C 0.06416 0.79303 0.38494 0.0
H2364 H 0.252 0.9685 0.34846 0.0
H2365 H 0.22535 0.03224 0.29584 0.0
H2366 H 0.18333 0.01373 0.27954 0.0
H2367 H 0.22429 0.92458 0.30527 0.0
H2368 H 0.21478 0.9065 0.33239 0.0
H2369 H 0.24329 0.92416 0.33823 0.0
H2370 H 0.22214 0.9449 0.37533 0.0
H2371 H 0.19354 0.92737 0.36962 0.0
H2372 H 0.18865 0.95962 0.36774 0.0
H2373 H 0.14336 0.98847 0.27048 0.0
H2374 H 0.10906 0.95907 0.26915 0.0
H2375 H 0.16167 0.91305 0.3297 0.0
C2376 C 0.23767 0.97852 0.3331 0.0
C2377 C 0.24228 1.00177 0.32311 0.0
C2378 C 0.22257 0.01427 0.30344 0.0
C2379 C 0.19857 1.00394 0.2942 0.0
C2380 C 0.19457 0.98116 0.30491 0.0
C2381 C 0.21365 0.96864 0.32394 0.0
C2382 C 0.20416 0.94497 0.33331 0.0
C2383 C 0.22273 0.9238 0.32691 0.0
C2384 C 0.20199 0.94419 0.36326 0.0
C2385 C 0.17667 0.94598 0.31645 0.0
C2386 C 0.17151 0.96695 0.30018 0.0
C2387 C 0.14724 0.97199 0.28312 0.0
C2388 C 0.12778 0.95521 0.28265 0.0
C2389 C 0.13251 0.93362 0.29927 0.0
C2390 C 0.15744 0.92908 0.31634 0.0
H2391 H 0.43323 0.12612 0.84377 0.0
H2392 H 0.46992 0.06688 0.80671 0.0
H2393 H 0.42659 0.04866 0.80051 0.0
H2394 H 0.39219 0.09042 0.88012 0.0
H2395 H 0.36404 0.11275 0.87577 0.0
H2396 H 0.39772 0.12178 0.87637 0.0
H2397 H 0.38328 0.14513 0.83031 0.0
H2398 H 0.34958 0.13602 0.82954 0.0
H2399 H 0.36808 0.12967 0.8026 0.0
H2400 H 0.3797 0.03681 0.79802 0.0
H2401 H 0.33267 0.03033 0.80277 0.0
H2402 H 0.32657 0.09614 0.84324 0.0
C2403 C 0.4322 0.10927 0.83448 0.0
C2404 C 0.45495 0.09813 0.82537 0.0
C2405 C 0.45266 0.07609 0.81325 0.0
C2406 C 0.42816 0.06551 0.80974 0.0
C2407 C 0.40611 0.0771 0.81859 0.0
C2408 C 0.40788 0.09835 0.83093 0.0
C2409 C 0.38121 0.10665 0.83927 0.0
C2410 C 0.38396 0.10797 0.86969 0.0
C2411 C 0.36988 0.1308 0.82455 0.0
C2412 C 0.36436 0.08658 0.82992 0.0
C2413 C 0.37905 0.0699 0.81774 0.0
C2414 C 0.36791 0.04977 0.80744 0.0
C2415 C 0.34112 0.04635 0.81004 0.0
C2416 C 0.32588 0.06286 0.82312 0.0
C2417 C 0.33766 0.08333 0.83295 0.0
H2418 H 0.69547 0.57022 0.7221 0.0
H2419 H 0.72431 0.63216 0.68319 0.0
H2420 H 0.68382 0.65694 0.69104 0.0
H2421 H 0.63009 0.58046 0.6929 0.0
H2422 H 0.61553 0.56989 0.72137 0.0
H2423 H 0.64877 0.55842 0.71718 0.0
H2424 H 0.66785 0.57127 0.76388 0.0
H2425 H 0.63454 0.58263 0.76842 0.0
H2426 H 0.66182 0.60192 0.77179 0.0
H2427 H 0.63726 0.6727 0.69676 0.0
H2428 H 0.58938 0.67916 0.70257 0.0
H2429 H 0.59181 0.60628 0.737 0.0
C2430 C 0.69371 0.58922 0.7161 0.0
C2431 C 0.71292 0.59955 0.70245 0.0
C2432 C 0.70994 0.62424 0.69431 0.0
C2433 C 0.68699 0.63831 0.6985 0.0
C2434 C 0.66774 0.62727 0.71107 0.0
C2435 C 0.67109 0.60332 0.72003 0.0
C2436 C 0.64656 0.59499 0.73053 0.0
C2437 C 0.63455 0.57477 0.71453 0.0
C2438 C 0.65308 0.58726 0.76044 0.0
C2439 C 0.62848 0.61787 0.72551 0.0
C2440 C 0.64102 0.63632 0.71438 0.0
C2441 C 0.62741 0.65857 0.70597 0.0
C2442 C 0.60027 0.66201 0.7091 0.0
C2443 C 0.58725 0.64325 0.72042 0.0
C2444 C 0.60161 0.62105 0.72892 0.0
H2445 H 0.88048 0.40338 0.24702 0.0
H2446 H 0.94249 0.4493 0.27574 0.0
H2447 H 0.90745 0.47949 0.2853 0.0
H2448 H 0.83826 0.4479 0.21155 0.0
H2449 H 0.80748 0.43558 0.21776 0.0
H2450 H 0.83745 0.41607 0.21852 0.0
H2451 H 0.83321 0.39971 0.2665 0.0
H2452 H 0.80318 0.4194 0.26589 0.0
H2453 H 0.83116 0.42028 0.29222 0.0
H2454 H 0.86549 0.50724 0.28392 0.0
H2455 H 0.82108 0.5298 0.2708 0.0
H2456 H 0.78724 0.46501 0.24402 0.0
C2457 C 0.88669 0.41952 0.25601 0.0
C2458 C 0.91404 0.42408 0.26083 0.0
C2459 C 0.92155 0.44541 0.27235 0.0
C2460 C 0.90181 0.46262 0.27779 0.0
C2461 C 0.87484 0.45793 0.27192 0.0
C2462 C 0.86734 0.43676 0.26144 0.0
C2463 C 0.83725 0.43707 0.2537 0.0
C2464 C 0.82969 0.434 0.22362 0.0
C2465 C 0.82552 0.41798 0.2706 0.0
C2466 C 0.82895 0.46201 0.26068 0.0
C2467 C 0.85075 0.47377 0.27144 0.0
C2468 C 0.84816 0.49802 0.27624 0.0
C2469 C 0.82283 0.51072 0.26889 0.0
C2470 C 0.80077 0.49909 0.25663 0.0
C2471 C 0.8037 0.47424 0.25379 0.0
H2472 H 0.35563 0.24517 1.00716 0.0
H2473 H 0.28911 0.25147 0.05271 0.0
H2474 H 0.27121 0.21554 0.03301 0.0
H2475 H 0.31907 0.2237 0.94744 0.0
H2476 H 0.34695 0.20332 0.94245 0.0
H2477 H 0.35315 0.23062 0.95846 0.0
H2478 H 0.38132 0.20606 0.99917 0.0
H2479 H 0.37513 0.17869 0.98338 0.0
H2480 H 0.3664 0.18245 1.01613 0.0
H2481 H 0.26173 0.17834 1.00981 0.0
H2482 H 0.26204 0.14136 0.98571 0.0
H2483 H 0.33549 0.15938 0.9565 0.0
C2484 C 0.33693 0.2394 1.01254 0.0
C2485 C 0.32342 0.25131 0.03105 0.0
C2486 C 0.29949 0.24274 0.03822 0.0
C2487 C 0.28924 0.22237 0.02722 0.0
C2488 C 0.30329 0.21089 1.00927 0.0
C2489 C 0.32664 0.21904 1.00205 0.0
C2490 C 0.33885 0.20269 0.98366 0.0
C2491 C 0.33953 0.21587 0.95638 0.0
C2492 C 0.36708 0.19183 0.99636 0.0
C2493 C 0.31869 0.18397 0.98172 0.0
C2494 C 0.29824 0.1891 0.99646 0.0
C2495 C 0.27751 0.17418 0.99804 0.0
C2496 C 0.27779 0.15335 0.98423 0.0
C2497 C 0.29874 0.14772 0.96927 0.0
C2498 C 0.31933 0.16328 0.96793 0.0
H2499 H 0.84097 0.31847 0.03252 0.0
H2500 H 0.75846 0.31162 0.99765 0.0
H2501 H 0.74309 0.34384 1.02447 0.0
H2502 H 0.82796 0.33344 0.09991 0.0
H2503 H 0.85269 0.35522 0.10316 0.0
H2504 H 0.85722 0.33005 0.08335 0.0
H2505 H 0.86136 0.35912 0.04299 0.0
H2506 H 0.85663 0.38433 0.06262 0.0
H2507 H 0.83479 0.38226 0.03159 0.0
H2508 H 0.73667 0.37884 0.052 0.0
H2509 H 0.73902 0.41334 0.07942 0.0
H2510 H 0.82591 0.39864 0.098 0.0
C2511 C 0.81962 0.32314 0.03137 0.0
C2512 C 0.80074 0.3117 1.01373 0.0
C2513 C 0.77312 0.31939 1.01168 0.0
C2514 C 0.76426 0.33788 0.02668 0.0
C2515 C 0.78328 0.34903 0.04351 0.0
C2516 C 0.81044 0.34195 0.04607 0.0
C2517 C 0.82667 0.35803 0.06448 0.0
C2518 C 0.84204 0.34331 0.0892 0.0
C2519 C 0.846 0.37174 0.04952 0.0
C2520 C 0.80433 0.37512 0.07188 0.0
C2521 C 0.77954 0.36954 0.05942 0.0
C2522 C 0.75595 0.3831 0.06221 0.0
C2523 C 0.75753 0.40271 0.07822 0.0
C2524 C 0.78255 0.40893 0.09176 0.0
C2525 C 0.80631 0.39473 0.08823 0.0
H2526 H 0.68706 0.7163 0.55995 0.0
H2527 H 0.76127 0.72475 0.52749 0.0
H2528 H 0.78026 0.68562 0.54987 0.0
H2529 H 0.71695 0.68717 0.6238 0.0
H2530 H 0.69078 0.667 0.62516 0.0
H2531 H 0.68325 0.69596 0.60724 0.0
H2532 H 0.66475 0.67571 0.56463 0.0
H2533 H 0.67222 0.64669 0.58242 0.0
H2534 H 0.68579 0.65301 0.55205 0.0
H2535 H 0.79159 0.64617 0.57637 0.0
H2536 H 0.79418 0.60816 0.60398 0.0
H2537 H 0.71183 0.62387 0.61769 0.0
C2538 C 0.70747 0.71011 0.55787 0.0
C2539 C 0.72289 0.72388 0.54233 0.0
C2540 C 0.7492 0.71473 0.53951 0.0
C2541 C 0.76013 0.69248 0.5521 0.0
C2542 C 0.74437 0.67937 0.56716 0.0
C2543 C 0.71855 0.68775 0.56999 0.0
C2544 C 0.70566 0.66977 0.58673 0.0
C2545 C 0.69876 0.68062 0.61225 0.0
C2546 C 0.68063 0.66076 0.57048 0.0
C2547 C 0.72837 0.65002 0.593 0.0
C2548 C 0.75053 0.65606 0.5816 0.0
C2549 C 0.7743 0.64116 0.58519 0.0
C2550 C 0.77556 0.61958 0.60091 0.0
C2551 C 0.75314 0.61285 0.61271 0.0
C2552 C 0.72914 0.62827 0.6085 0.0
H2553 H 0.18406 0.80319 0.48733 0.0
H2554 H 0.25365 0.77452 0.54352 0.0
H2555 H 0.27939 0.80765 0.52838 0.0
H2556 H 0.21955 0.82648 0.43396 0.0
H2557 H 0.19616 0.8527 0.42646 0.0
H2558 H 0.18501 0.82505 0.43921 0.0
H2559 H 0.16796 0.84696 0.47766 0.0
H2560 H 0.17932 0.87462 0.46535 0.0
H2561 H 0.19096 0.86302 0.49921 0.0
H2562 H 0.29545 0.84722 0.51029 0.0
H2563 H 0.30132 0.88712 0.48998 0.0
H2564 H 0.22058 0.88954 0.44552 0.0
C2565 C 0.2051 0.80326 0.49573 0.0
C2566 C 0.21708 0.78573 0.51611 0.0
C2567 C 0.24432 0.7871 0.52724 0.0
C2568 C 0.25892 0.80614 0.51902 0.0
C2569 C 0.24599 0.82368 0.49968 0.0
C2570 C 0.2197 0.82218 0.48803 0.0
C2571 C 0.20954 0.84397 0.46911 0.0
C2572 C 0.20214 0.83661 0.44048 0.0
C2573 C 0.18554 0.85796 0.4784 0.0
C2574 C 0.23421 0.85816 0.47181 0.0
C2575 C 0.25503 0.84623 0.48955 0.0
C2576 C 0.27938 0.85642 0.49605 0.0
C2577 C 0.28259 0.87918 0.48414 0.0
C2578 C 0.26162 0.89179 0.46566 0.0
C2579 C 0.23713 0.8808 0.45953 0.0
H2580 H 0.11474 0.71869 0.90377 0.0
H2581 H 0.04999 0.77211 0.91066 0.0
H2582 H 0.06555 0.7718 0.95914 0.0
H2583 H 0.11763 0.68502 0.96688 0.0
H2584 H 0.15388 0.68124 0.97384 0.0
H2585 H 0.13717 0.68456 0.93983 0.0
H2586 H 0.16455 0.72054 0.93019 0.0
H2587 H 0.18144 0.71706 0.96406 0.0
H2588 H 0.16424 0.7455 0.95099 0.0
H2589 H 0.08642 0.7645 1.00682 0.0
H2590 H 0.11667 0.75757 0.04964 0.0
H2591 H 0.1716 0.71186 1.01282 0.0
C2592 C 0.10405 0.73046 0.91554 0.0
C2593 C 0.08114 0.74554 0.90344 0.0
C2594 C 0.06772 0.76071 0.91942 0.0
C2595 C 0.07625 0.76041 0.94704 0.0
C2596 C 0.09863 0.74517 0.95845 0.0
C2597 C 0.11288 0.73097 0.94316 0.0
C2598 C 0.13762 0.71786 0.9603 0.0
C2599 C 0.13649 0.69054 0.96019 0.0
C2600 C 0.1635 0.72573 0.95081 0.0
C2601 C 0.13472 0.72652 0.98774 0.0
C2602 C 0.11171 0.74191 0.98607 0.0
C2603 C 0.10443 0.75244 1.00837 0.0
C2604 C 0.12158 0.74809 0.03278 0.0
C2605 C 0.14608 0.73352 0.03503 0.0
C2606 C 0.15249 0.72222 1.01216 0.0
H2607 H 0.58029 0.30171 0.36678 0.0
H2608 H 0.54871 0.25661 0.30506 0.0
H2609 H 0.51454 0.24432 0.33293 0.0
H2610 H 0.5722 0.26352 0.42314 0.0
H2611 H 0.56272 0.28793 0.44229 0.0
H2612 H 0.58448 0.29256 0.4176 0.0
H2613 H 0.55154 0.3277 0.39448 0.0
H2614 H 0.52978 0.32318 0.41915 0.0
H2615 H 0.51663 0.3227 0.38432 0.0
H2616 H 0.48355 0.23724 0.36883 0.0
H2617 H 0.45955 0.23597 0.40795 0.0
H2618 H 0.51099 0.28785 0.44397 0.0
C2619 C 0.5664 0.28909 0.35895 0.0
C2620 C 0.56749 0.27995 0.33363 0.0
C2621 C 0.54853 0.2637 0.32439 0.0
C2622 C 0.52899 0.25672 0.34009 0.0
C2623 C 0.52849 0.26632 0.36486 0.0
C2624 C 0.54674 0.28227 0.37407 0.0
C2625 C 0.54209 0.29044 0.40107 0.0
C2626 C 0.56684 0.28316 0.42227 0.0
C2627 C 0.53456 0.31762 0.39963 0.0
C2628 C 0.51841 0.27648 0.4059 0.0
C2629 C 0.51076 0.26265 0.3849 0.0
C2630 C 0.48938 0.24815 0.38524 0.0
C2631 C 0.47567 0.24771 0.40756 0.0
C2632 C 0.48318 0.26178 0.42936 0.0
C2633 C 0.50481 0.27647 0.42811 0.0
H2634 H 0.57079 0.80075 0.11356 0.0
H2635 H 0.5426 0.73023 0.10091 0.0
H2636 H 0.5173 0.73354 0.13852 0.0
H2637 H 0.58048 0.79265 0.18624 0.0
H2638 H 0.56991 0.82345 0.19029 0.0
H2639 H 0.58552 0.81591 0.16181 0.0
H2640 H 0.54433 0.83694 0.13041 0.0
H2641 H 0.52863 0.84441 0.15883 0.0
H2642 H 0.51112 0.82796 0.13322 0.0
H2643 H 0.49312 0.74498 0.17692 0.0
H2644 H 0.47492 0.76299 0.21476 0.0
H2645 H 0.52165 0.82417 0.2046 0.0
C2646 C 0.55966 0.78581 0.11882 0.0
C2647 C 0.5585 0.7654 0.10356 0.0
C2648 C 0.54335 0.74645 0.11142 0.0
C2649 C 0.52899 0.74802 0.13304 0.0
C2650 C 0.53021 0.76845 0.14726 0.0
C2651 C 0.54545 0.78689 0.14071 0.0
C2652 C 0.54372 0.80669 0.15967 0.0
C2653 C 0.57156 0.80985 0.17544 0.0
C2654 C 0.5312 0.83039 0.14463 0.0
C2655 C 0.52505 0.79649 0.17766 0.0
C2656 C 0.51729 0.77451 0.1701 0.0
C2657 C 0.49932 0.76209 0.18325 0.0
C2658 C 0.48909 0.7724 0.20474 0.0
C2659 C 0.49706 0.79478 0.21306 0.0
C2660 C 0.51537 0.80681 0.19921 0.0
H2661 H 0.91664 0.22739 0.56743 0.0
H2662 H 0.94362 0.2963 0.54409 0.0
H2663 H 0.9688 0.29797 0.58909 0.0
H2664 H 0.90723 0.24174 0.63379 0.0
H2665 H 0.91903 0.21242 0.64932 0.0
H2666 H 0.90383 0.21569 0.61481 0.0
H2667 H 0.94626 0.19375 0.60143 0.0
H2668 H 0.96159 0.19033 0.63588 0.0
H2669 H 0.97879 0.20468 0.61131 0.0
H2670 H 0.99115 0.29283 0.63666 0.0
H2671 H 1.00906 0.28106 0.68379 0.0
H2672 H 0.96738 0.21593 0.67824 0.0
C2673 C 0.92827 0.2426 0.57168 0.0
C2674 C 0.92832 0.26161 0.55185 0.0
C2675 C 0.94328 0.28144 0.55863 0.0
C2676 C 0.95769 0.28259 0.58427 0.0
C2677 C 0.95702 0.26384 0.60336 0.0
C2678 C 0.94274 0.24417 0.5975 0.0
C2679 C 0.94495 0.22686 0.6222 0.0
C2680 C 0.9171 0.22401 0.63051 0.0
C2681 C 0.95872 0.20246 0.61741 0.0
C2682 C 0.96272 0.2399 0.64267 0.0
C2683 C 0.96945 0.26117 0.63125 0.0
C2684 C 0.98592 0.27625 0.64586 0.0
C2685 C 0.99598 0.26942 0.67275 0.0
C2686 C 0.9895 0.24771 0.68517 0.0
C2687 C 0.97247 0.23285 0.6697 0.0
H2688 H 0.78826 0.05717 0.70835 0.0
H2689 H 0.82411 0.98903 0.74726 0.0
H2690 H 0.86661 1.00776 0.76074 0.0
H2691 H 0.84492 0.07376 0.68136 0.0
H2692 H 0.83971 0.10528 0.68608 0.0
H2693 H 0.81147 0.08723 0.68201 0.0
H2694 H 0.79778 0.10011 0.72637 0.0
H2695 H 0.82589 0.11841 0.73076 0.0
H2696 H 0.82201 0.09583 0.7564 0.0
H2697 H 0.90618 0.03321 0.76681 0.0
H2698 H 0.93942 0.0634 0.76655 0.0
H2699 H 0.87792 0.11506 0.72312 0.0
C2700 C 0.80481 0.04625 0.72028 0.0
C2701 C 0.80263 0.02164 0.72712 0.0
C2702 C 0.825 1.00799 0.74231 0.0
C2703 C 0.84931 0.01846 0.74985 0.0
C2704 C 0.85088 0.04262 0.74221 0.0
C2705 C 0.82912 0.05639 0.72796 0.0
C2706 C 0.83632 0.08167 0.72122 0.0
C2707 C 0.83294 0.0873 0.69086 0.0
C2708 C 0.8195 0.10009 0.73448 0.0
C2709 C 0.86572 0.07995 0.73358 0.0
C2710 C 0.87366 0.05727 0.74563 0.0
C2711 C 0.90009 0.05104 0.7576 0.0
C2712 C 0.91888 0.06832 0.7572 0.0
C2713 C 0.91138 0.09166 0.74477 0.0
C2714 C 0.88426 0.09754 0.73308 0.0
H2715 H 0.70063 0.97836 0.2287 0.0
H2716 H 0.74465 0.91333 0.21126 0.0
H2717 H 0.7043 0.89113 0.21315 0.0
H2718 H 0.65768 0.94996 0.27314 0.0
H2719 H 0.62847 0.96986 0.25995 0.0
H2720 H 0.66169 0.98007 0.26065 0.0
H2721 H 0.65129 0.99148 0.20992 0.0
H2722 H 0.61818 0.98109 0.20893 0.0
H2723 H 0.64064 0.96906 0.18755 0.0
H2724 H 0.65923 0.87684 0.21305 0.0
H2725 H 0.61121 0.87056 0.21176 0.0
H2726 H 0.59515 0.94486 0.2286 0.0
C2727 C 0.7019 0.95926 0.22631 0.0
C2728 C 0.72575 0.94724 0.22054 0.0
C2729 C 0.72658 0.92256 0.21622 0.0
C2730 C 0.70379 0.90989 0.21715 0.0
C2731 C 0.68031 0.92227 0.22216 0.0
C2732 C 0.6791 0.94637 0.22674 0.0
C2733 C 0.65066 0.95564 0.22955 0.0
C2734 C 0.64957 0.96439 0.25749 0.0
C2735 C 0.63955 0.97549 0.20768 0.0
C2736 C 0.63618 0.933 0.22561 0.0
C2737 C 0.65378 0.91402 0.22152 0.0
C2738 C 0.64524 0.89144 0.21661 0.0
C2739 C 0.61793 0.88804 0.21604 0.0
C2740 C 0.5994 0.90712 0.22038 0.0
C2741 C 0.60876 0.92992 0.22516 0.0
H2742 H 0.46284 0.37832 0.36487 0.0
H2743 H 0.45696 0.40283 0.28153 0.0
H2744 H 0.40837 0.41413 0.28 0.0
H2745 H 0.39438 0.35606 0.36172 0.0
H2746 H 0.39015 0.36698 0.39362 0.0
H2747 H 0.42327 0.35718 0.38698 0.0
H2748 H 0.44009 0.39838 0.39914 0.0
H2749 H 0.40714 0.40811 0.4059 0.0
H2750 H 0.42265 0.42541 0.38212 0.0
H2751 H 0.36243 0.42663 0.28855 0.0
H2752 H 0.3232 0.44307 0.30792 0.0
H2753 H 0.35912 0.41103 0.38563 0.0
C2754 C 0.45108 0.38541 0.34614 0.0
C2755 C 0.46334 0.38948 0.32322 0.0
C2756 C 0.44772 0.39955 0.29924 0.0
C2757 C 0.42016 0.40579 0.29813 0.0
C2758 C 0.40865 0.40173 0.32115 0.0
C2759 C 0.42363 0.39191 0.34477 0.0
C2760 C 0.40726 0.39219 0.36747 0.0
C2761 C 0.40355 0.36657 0.37806 0.0
C2762 C 0.42004 0.40691 0.38996 0.0
C2763 C 0.38101 0.40443 0.35307 0.0
C2764 C 0.382 0.40927 0.32624 0.0
C2765 C 0.36103 0.42238 0.30933 0.0
C2766 C 0.33879 0.43144 0.32034 0.0
C2767 C 0.33805 0.42738 0.34784 0.0
C2768 C 0.35898 0.41332 0.36428 0.0
H2769 H 0.26243 0.55576 0.79949 0.0
H2770 H 0.22358 0.49034 0.78505 0.0
H2771 H 0.18014 0.51416 0.77009 0.0
H2772 H 0.21553 0.5799 0.83099 0.0
H2773 H 0.21721 0.61071 0.81946 0.0
H2774 H 0.24606 0.58976 0.82086 0.0
H2775 H 0.24772 0.59961 0.77062 0.0
H2776 H 0.21901 0.62106 0.76912 0.0
H2777 H 0.21812 0.59743 0.74653 0.0
H2778 H 0.14026 0.54377 0.76786 0.0
H2779 H 0.10797 0.57638 0.77722 0.0
H2780 H 0.17332 0.62232 0.79282 0.0
C2781 C 0.24503 0.54659 0.79174 0.0
C2782 C 0.24619 0.52142 0.7928 0.0
C2783 C 0.22306 0.50973 0.78352 0.0
C2784 C 0.19833 0.52312 0.77521 0.0
C2785 C 0.19748 0.54802 0.77604 0.0
C2786 C 0.2204 0.55964 0.78374 0.0
C2787 C 0.21384 0.58576 0.78754 0.0
C2788 C 0.22373 0.59185 0.8164 0.0
C2789 C 0.22535 0.60192 0.76723 0.0
C2790 C 0.18356 0.58692 0.78179 0.0
C2791 C 0.17439 0.56512 0.77486 0.0
C2792 C 0.14713 0.56114 0.77232 0.0
C2793 C 0.12893 0.57974 0.77757 0.0
C2794 C 0.13828 0.6018 0.78547 0.0
C2795 C 0.16571 0.60565 0.78653 0.0
H2796 H 0.68796 0.80785 1.00213 0.0
H2797 H 0.75721 0.75794 0.03164 0.0
H2798 H 0.77931 0.79051 0.05535 0.0
H2799 H 0.72473 0.86065 0.99299 0.0
H2800 H 0.69875 0.88019 1.00329 0.0
H2801 H 0.69011 0.85354 0.98698 0.0
H2802 H 0.66667 0.83962 0.02682 0.0
H2803 H 0.67536 0.86609 0.0433 0.0
H2804 H 0.68541 0.8369 0.06003 0.0
H2805 H 0.79133 0.82796 0.07882 0.0
H2806 H 0.79368 0.8675 0.09793 0.0
H2807 H 0.71526 0.89088 0.05286 0.0
C2808 C 0.70787 0.8037 1.01347 0.0
C2809 C 0.72085 0.78041 1.01556 0.0
C2810 C 0.74704 0.77577 0.03001 0.0
C2811 C 0.75962 0.79408 0.04348 0.0
C2812 C 0.74573 0.81672 0.04171 0.0
C2813 C 0.72054 0.82156 0.02676 0.0
C2814 C 0.70915 0.84688 0.02864 0.0
C2815 C 0.70549 0.86115 1.00136 0.0
C2816 C 0.6826 0.84738 0.04041 0.0
C2817 C 0.73159 0.85549 0.04766 0.0
C2818 C 0.75263 0.83803 0.05489 0.0
C2819 C 0.77513 0.84185 0.07308 0.0
C2820 C 0.77618 0.86423 0.08395 0.0
C2821 C 0.75476 0.88226 0.07661 0.0
C2822 C 0.73225 0.87767 0.05833 0.0
H2823 H 0.26269 0.60159 0.99402 0.0
H2824 H 0.24617 0.64023 0.91599 0.0
H2825 H 0.23789 0.67783 0.93727 0.0
H2826 H 0.21336 0.63523 1.02414 0.0
H2827 H 0.23419 0.63488 0.05617 0.0
H2828 H 0.23869 0.61087 0.03482 0.0
H2829 H 0.28906 0.61836 0.03688 0.0
H2830 H 0.28474 0.64235 0.05831 0.0
H2831 H 0.29825 0.64789 0.02775 0.0
H2832 H 0.23154 0.71203 0.96738 0.0
H2833 H 0.22613 0.73899 1.00346 0.0
H2834 H 0.24864 0.67861 0.0619 0.0
C2835 C 0.25769 0.61793 0.98127 0.0
C2836 C 0.25507 0.61751 0.95304 0.0
C2837 C 0.24792 0.63958 0.9375 0.0
C2838 C 0.24337 0.66124 0.94947 0.0
C2839 C 0.24618 0.66093 0.9772 0.0
C2840 C 0.25321 0.63982 0.99291 0.0
C2841 C 0.25474 0.64436 1.0223 0.0
C2842 C 0.23401 0.63052 0.03511 0.0
C2843 C 0.2834 0.63786 0.03718 0.0
C2844 C 0.24751 0.67132 1.02064 0.0
C2845 C 0.24265 0.68055 0.99445 0.0
C2846 C 0.23534 0.70495 0.98797 0.0
C2847 C 0.2325 0.72023 1.00866 0.0
C2848 C 0.23741 0.71129 0.03573 0.0
C2849 C 0.24515 0.68638 0.04156 0.0
H2850 H 0.36029 0.30382 0.49279 0.0
H2851 H 0.28479 0.29759 0.52344 0.0
H2852 H 0.26723 0.33685 0.50027 0.0
H2853 H 0.36301 0.3671 0.50045 0.0
H2854 H 0.37773 0.37275 0.47062 0.0
H2855 H 0.38395 0.34381 0.48873 0.0
H2856 H 0.36613 0.32359 0.44589 0.0
H2857 H 0.35977 0.3525 0.42769 0.0
H2858 H 0.33293 0.33294 0.42836 0.0
H2859 H 0.25742 0.37603 0.47272 0.0
H2860 H 0.25676 0.41383 0.44512 0.0
H2861 H 0.33975 0.39626 0.43461 0.0
C2862 C 0.3399 0.31053 0.49431 0.0
C2863 C 0.32365 0.29735 0.50948 0.0
C2864 C 0.29743 0.30717 0.51165 0.0
C2865 C 0.28733 0.32948 0.4986 0.0
C2866 C 0.30386 0.34197 0.48383 0.0
C2867 C 0.32969 0.33299 0.48183 0.0
C2868 C 0.34362 0.35045 0.46546 0.0
C2869 C 0.36855 0.35903 0.48233 0.0
C2870 C 0.35104 0.33919 0.44036 0.0
C2871 C 0.3215 0.37061 0.45841 0.0
C2872 C 0.29867 0.3652 0.46903 0.0
C2873 C 0.27524 0.38055 0.46452 0.0
C2874 C 0.27506 0.40198 0.44876 0.0
C2875 C 0.29825 0.40814 0.43793 0.0
C2876 C 0.32184 0.39224 0.44298 0.0
H2877 H 0.80728 0.21443 0.50212 0.0
H2878 H 0.85617 0.24409 0.56764 0.0
H2879 H 0.84559 0.21114 0.59842 0.0
H2880 H 0.7554 0.19271 0.53906 0.0
H2881 H 0.7526 0.16615 0.52085 0.0
H2882 H 0.76196 0.19329 0.50509 0.0
H2883 H 0.80505 0.17028 0.49422 0.0
H2884 H 0.796 0.14314 0.51017 0.0
H2885 H 0.82823 0.15426 0.52085 0.0
H2886 H 0.83268 0.17194 0.62095 0.0
H2887 H 0.81747 0.13243 0.6333 0.0
H2888 H 0.77617 0.1298 0.55246 0.0
C2889 C 0.81513 0.21448 0.52312 0.0
C2890 C 0.83208 0.23222 0.53261 0.0
C2891 C 0.84247 0.2312 0.56008 0.0
C2892 C 0.83682 0.21233 0.57761 0.0
C2893 C 0.82064 0.19474 0.56734 0.0
C2894 C 0.80975 0.19589 0.5407 0.0
C2895 C 0.7941 0.17434 0.53408 0.0
C2896 C 0.76424 0.18209 0.5242 0.0
C2897 C 0.8066 0.15965 0.51363 0.0
C2898 C 0.79786 0.1607 0.56114 0.0
C2899 C 0.81327 0.1726 0.58011 0.0
C2900 C 0.82026 0.16273 0.60627 0.0
C2901 C 0.81131 0.14024 0.61315 0.0
C2902 C 0.79537 0.1277 0.59401 0.0
C2903 C 0.78851 0.13846 0.56771 0.0
loop_
_geom_bond_atom_site_label_1
_geom_bond_atom_site_label_2
_geom_bond_distance
_geom_bond_site_symmetry_2
_ccdc_geom_bond_type
Tb0 C9 2.764 . S
Tb0 O10 2.325 . S
Tb0 O13 2.303 . S
Tb0 O17 2.322 1_455 S
Tb0 O18 2.349 1_455 S
Tb0 O21 2.415 . S
Tb0 O22 2.399 . S
Tb1 O11 2.322 1_655 S
Tb1 O12 2.349 1_655 S
Tb1 O14 2.415 . S
Tb1 O15 2.399 . S
Tb1 O16 2.325 . S
Tb1 O19 2.303 . S
Tb1 C30 2.764 . S
C2 O18 1.261 . S
C2 O19 1.257 . S
C3 C6 1.358 . S
C3 C7 1.332 . S
C3 C9 1.504 . S
C4 C5 1.373 . S
C4 C8 1.308 . S
C5 C4 1.373 . S
C5 C6 1.429 . S
C5 H32 0.932 . S
C6 C3 1.358 . S
C6 C5 1.429 . S
C6 H33 0.930 . S
C7 C3 1.332 . S
C7 C8 1.394 . S
C7 H34 0.932 . S
C8 C4 1.308 . S
C8 C7 1.394 . S
C8 H35 0.929 . S
C9 Tb0 2.764 . S
C9 C3 1.504 . S
C9 O21 1.239 . S
C9 O22 1.263 . S
O10 Tb0 2.325 . S
O10 C20 1.236 . S
O11 Tb1 2.322 1_455 S
O11 C20 1.257 . S
O12 Tb1 2.349 1_455 S
O12 C23 1.261 . S
O13 Tb0 2.303 . S
O13 C23 1.257 . S
O14 Tb1 2.415 . S
O14 C30 1.239 . S
O15 Tb1 2.399 . S
O15 C30 1.263 . S
O16 Tb1 2.325 . S
O16 C31 1.236 . S
O17 Tb0 2.322 1_655 S
O17 C31 1.257 . S
O18 Tb0 2.349 1_655 S
O18 C2 1.261 . S
O19 Tb1 2.303 . S
O19 C2 1.257 . S
C20 O10 1.236 . S
C20 O11 1.257 . S
O21 Tb0 2.415 . S
O21 C9 1.239 . S
O22 Tb0 2.399 . S
O22 C9 1.263 . S
C23 O12 1.261 . S
C23 O13 1.257 . S
C24 C27 1.358 . S
C24 C28 1.332 . S
C24 C30 1.504 . S
C25 C26 1.373 . S
C25 C29 1.308 . S
C26 C25 1.373 . S
C26 C27 1.429 . S
C26 H36 0.932 . S
C27 C24 1.358 . S
C27 C26 1.429 . S
C27 H37 0.930 . S
C28 C24 1.332 . S
C28 C29 1.394 . S
C28 H38 0.932 . S
C29 C25 1.308 . S
C29 C28 1.394 . S
C29 H39 0.929 . S
C30 Tb1 2.764 . S
C30 O14 1.239 . S
C30 O15 1.263 . S
C30 C24 1.504 . S
C31 O16 1.236 . S
C31 O17 1.257 . S
H32 C5 0.932 . S
H33 C6 0.930 . S
H34 C7 0.932 . S
H35 C8 0.929 . S
H36 C26 0.932 . S
H37 C27 0.930 . S
H38 C28 0.932 . S
H39 C29 0.929 . S
Tb40 C49 2.764 . S
Tb40 O50 2.325 . S
Tb40 O53 2.303 . S
Tb40 O57 2.322 . S
Tb40 O58 2.349 . S
Tb40 O61 2.415 . S
Tb40 O62 2.399 . S
Tb41 O51 2.322 . S
Tb41 O52 2.349 . S
Tb41 O54 2.415 . S
Tb41 O55 2.399 . S
Tb41 O56 2.325 . S
Tb41 O59 2.303 . S
Tb41 C70 2.764 . S
C42 O58 1.261 . S
C42 O59 1.257 . S
C43 C46 1.358 . S
C43 C47 1.332 . S
C43 C49 1.504 . S
C44 C45 1.373 . S
C44 C48 1.308 . S
C45 C44 1.373 . S
C45 C46 1.429 . S
C45 H72 0.932 . S
C46 C43 1.358 . S
C46 C45 1.429 . S
C46 H73 0.930 . S
C47 C43 1.332 . S
C47 C48 1.394 . S
C47 H74 0.932 . S
C48 C44 1.308 . S
C48 C47 1.394 . S
C48 H75 0.929 . S
C49 Tb40 2.764 . S
C49 C43 1.504 . S
C49 O61 1.239 . S
C49 O62 1.263 . S
O50 Tb40 2.325 . S
O50 C60 1.236 . S
O51 Tb41 2.322 . S
O51 C60 1.257 . S
O52 Tb41 2.349 . S
O52 C63 1.261 . S
O53 Tb40 2.303 . S
O53 C63 1.257 . S
O54 Tb41 2.415 . S
O54 C70 1.239 . S
O55 Tb41 2.399 . S
O55 C70 1.263 . S
O56 Tb41 2.325 . S
O56 C71 1.236 . S
O57 Tb40 2.322 . S
O57 C71 1.257 . S
O58 Tb40 2.349 . S
O58 C42 1.261 . S
O59 Tb41 2.303 . S
O59 C42 1.257 . S
C60 O50 1.236 . S
C60 O51 1.257 . S
O61 Tb40 2.415 . S
O61 C49 1.239 . S
O62 Tb40 2.399 . S
O62 C49 1.263 . S
C63 O52 1.261 . S
C63 O53 1.257 . S
C64 C67 1.358 . S
C64 C68 1.332 . S
C64 C70 1.504 . S
C65 C66 1.373 . S
C65 C69 1.308 . S
C66 C65 1.373 . S
C66 C67 1.429 . S
C66 H76 0.932 . S
C67 C64 1.358 . S
C67 C66 1.429 . S
C67 H77 0.930 . S
C68 C64 1.332 . S
C68 C69 1.394 . S
C68 H78 0.932 . S
C69 C65 1.308 . S
C69 C68 1.394 . S
C69 H79 0.929 . S
C70 Tb41 2.764 . S
C70 O54 1.239 . S
C70 O55 1.263 . S
C70 C64 1.504 . S
C71 O56 1.236 . S
C71 O57 1.257 . S
H72 C45 0.932 . S
H73 C46 0.930 . S
H74 C47 0.932 . S
H75 C48 0.929 . S
H76 C66 0.932 . S
H77 C67 0.930 . S
H78 C68 0.932 . S
H79 C69 0.929 . S
Tb80 C89 2.764 . S
Tb80 O90 2.325 . S
Tb80 O93 2.303 . S
Tb80 O97 2.322 . S
Tb80 O98 2.349 . S
Tb80 O101 2.415 . S
Tb80 O102 2.399 . S
Tb81 O91 2.322 . S
Tb81 O92 2.349 . S
Tb81 O94 2.415 . S
Tb81 O95 2.399 . S
Tb81 O96 2.325 . S
Tb81 O99 2.303 . S
Tb81 C110 2.764 . S
C82 O98 1.261 . S
C82 O99 1.257 . S
C83 C86 1.358 . S
C83 C87 1.332 . S
C83 C89 1.504 . S
C84 C85 1.373 . S
C84 C88 1.308 . S
C85 C84 1.373 . S
C85 C86 1.429 . S
C85 H112 0.932 . S
C86 C83 1.358 . S
C86 C85 1.429 . S
C86 H113 0.930 . S
C87 C83 1.332 . S
C87 C88 1.394 . S
C87 H114 0.932 . S
C88 C84 1.308 . S
C88 C87 1.394 . S
C88 H115 0.929 . S
C89 Tb80 2.764 . S
C89 C83 1.504 . S
C89 O101 1.239 . S
C89 O102 1.263 . S
O90 Tb80 2.325 . S
O90 C100 1.236 . S
O91 Tb81 2.322 . S
O91 C100 1.257 . S
O92 Tb81 2.349 . S
O92 C103 1.261 . S
O93 Tb80 2.303 . S
O93 C103 1.257 . S
O94 Tb81 2.415 . S
O94 C110 1.239 . S
O95 Tb81 2.399 . S
O95 C110 1.263 . S
O96 Tb81 2.325 . S
O96 C111 1.236 . S
O97 Tb80 2.322 . S
O97 C111 1.257 . S
O98 Tb80 2.349 . S
O98 C82 1.261 . S
O99 Tb81 2.303 . S
O99 C82 1.257 . S
C100 O90 1.236 . S
C100 O91 1.257 . S
O101 Tb80 2.415 . S
O101 C89 1.239 . S
O102 Tb80 2.399 . S
O102 C89 1.263 . S
C103 O92 1.261 . S
C103 O93 1.257 . S
C104 C107 1.358 . S
C104 C108 1.332 . S
C104 C110 1.504 . S
C105 C106 1.373 . S
C105 C109 1.308 . S
C106 C105 1.373 . S
C106 C107 1.429 . S
C106 H116 0.932 . S
C107 C104 1.358 . S
C107 C106 1.429 . S
C107 H117 0.930 . S
C108 C104 1.332 . S
C108 C109 1.394 . S
C108 H118 0.932 . S
C109 C105 1.308 . S
C109 C108 1.394 . S
C109 H119 0.929 . S
C110 Tb81 2.764 . S
C110 O94 1.239 . S
C110 O95 1.263 . S
C110 C104 1.504 . S
C111 O96 1.236 . S
C111 O97 1.257 . S
H112 C85 0.932 . S
H113 C86 0.930 . S
H114 C87 0.932 . S
H115 C88 0.929 . S
H116 C106 0.932 . S
H117 C107 0.930 . S
H118 C108 0.932 . S
H119 C109 0.929 . S
Tb120 C129 2.764 . S
Tb120 O130 2.325 . S
Tb120 O133 2.303 . S
Tb120 O137 2.322 1_655 S
Tb120 O138 2.349 1_655 S
Tb120 O141 2.415 . S
Tb120 O142 2.399 . S
Tb121 O131 2.322 1_455 S
Tb121 O132 2.349 1_455 S
Tb121 O134 2.415 . S
Tb121 O135 2.399 . S
Tb121 O136 2.325 . S
Tb121 O139 2.303 . S
Tb121 C150 2.764 . S
C122 O138 1.261 . S
C122 O139 1.257 . S
C123 C126 1.358 . S
C123 C127 1.332 . S
C123 C129 1.504 . S
C124 C125 1.373 . S
C124 C128 1.308 . S
C125 C124 1.373 . S
C125 C126 1.429 . S
C125 H152 0.932 . S
C126 C123 1.358 . S
C126 C125 1.429 . S
C126 H153 0.930 . S
C127 C123 1.332 . S
C127 C128 1.394 . S
C127 H154 0.932 . S
C128 C124 1.308 . S
C128 C127 1.394 . S
C128 H155 0.929 . S
C129 Tb120 2.764 . S
C129 C123 1.504 . S
C129 O141 1.239 . S
C129 O142 1.263 . S
O130 Tb120 2.325 . S
O130 C140 1.236 . S
O131 Tb121 2.322 1_655 S
O131 C140 1.257 . S
O132 Tb121 2.349 1_655 S
O132 C143 1.261 . S
O133 Tb120 2.303 . S
O133 C143 1.257 . S
O134 Tb121 2.415 . S
O134 C150 1.239 . S
O135 Tb121 2.399 . S
O135 C150 1.263 . S
O136 Tb121 2.325 . S
O136 C151 1.236 . S
O137 Tb120 2.322 1_455 S
O137 C151 1.257 . S
O138 Tb120 2.349 1_455 S
O138 C122 1.261 . S
O139 Tb121 2.303 . S
O139 C122 1.257 . S
C140 O130 1.236 . S
C140 O131 1.257 . S
O141 Tb120 2.415 . S
O141 C129 1.239 . S
O142 Tb120 2.399 . S
O142 C129 1.263 . S
C143 O132 1.261 . S
C143 O133 1.257 . S
C144 C147 1.358 . S
C144 C148 1.332 . S
C144 C150 1.504 . S
C145 C146 1.373 . S
C145 C149 1.308 . S
C146 C145 1.373 . S
C146 C147 1.429 . S
C146 H156 0.932 . S
C147 C144 1.358 . S
C147 C146 1.429 . S
C147 H157 0.930 . S
C148 C144 1.332 . S
C148 C149 1.394 . S
C148 H158 0.932 . S
C149 C145 1.308 . S
C149 C148 1.394 . S
C149 H159 0.929 . S
C150 Tb121 2.764 . S
C150 O134 1.239 . S
C150 O135 1.263 . S
C150 C144 1.504 . S
C151 O136 1.236 . S
C151 O137 1.257 . S
H152 C125 0.932 . S
H153 C126 0.930 . S
H154 C127 0.932 . S
H155 C128 0.929 . S
H156 C146 0.932 . S
H157 C147 0.930 . S
H158 C148 0.932 . S
H159 C149 0.929 . S
Tb160 C169 2.764 . S
Tb160 O170 2.325 . S
Tb160 O173 2.303 . S
Tb160 O177 2.322 1_545 S
Tb160 O178 2.349 1_545 S
Tb160 O181 2.415 . S
Tb160 O182 2.399 . S
Tb161 O171 2.322 1_565 S
Tb161 O172 2.349 1_565 S
Tb161 O174 2.415 . S
Tb161 O175 2.399 . S
Tb161 O176 2.325 . S
Tb161 O179 2.303 . S
Tb161 C190 2.764 . S
C162 O178 1.261 . S
C162 O179 1.257 . S
C163 C166 1.358 . S
C163 C167 1.332 . S
C163 C169 1.504 . S
C164 C165 1.373 . S
C164 C168 1.308 . S
C165 C164 1.373 . S
C165 C166 1.429 . S
C165 H192 0.932 . S
C166 C163 1.358 . S
C166 C165 1.429 . S
C166 H193 0.930 . S
C167 C163 1.332 . S
C167 C168 1.394 . S
C167 H194 0.932 . S
C168 C164 1.308 . S
C168 C167 1.394 . S
C168 H195 0.929 . S
C169 Tb160 2.764 . S
C169 C163 1.504 . S
C169 O181 1.239 . S
C169 O182 1.263 . S
O170 Tb160 2.325 . S
O170 C180 1.236 . S
O171 Tb161 2.322 1_545 S
O171 C180 1.257 . S
O172 Tb161 2.349 1_545 S
O172 C183 1.261 . S
O173 Tb160 2.303 . S
O173 C183 1.257 . S
O174 Tb161 2.415 . S
O174 C190 1.239 . S
O175 Tb161 2.399 . S
O175 C190 1.263 . S
O176 Tb161 2.325 . S
O176 C191 1.236 . S
O177 Tb160 2.322 1_565 S
O177 C191 1.257 . S
O178 Tb160 2.349 1_565 S
O178 C162 1.261 . S
O179 Tb161 2.303 . S
O179 C162 1.257 . S
C180 O170 1.236 . S
C180 O171 1.257 . S
O181 Tb160 2.415 . S
O181 C169 1.239 . S
O182 Tb160 2.399 . S
O182 C169 1.263 . S
C183 O172 1.261 . S
C183 O173 1.257 . S
C184 C187 1.358 . S
C184 C188 1.332 . S
C184 C190 1.504 . S
C185 C186 1.373 . S
C185 C189 1.308 . S
C186 C185 1.373 . S
C186 C187 1.429 . S
C186 H196 0.932 . S
C187 C184 1.358 . S
C187 C186 1.429 . S
C187 H197 0.930 . S
C188 C184 1.332 . S
C188 C189 1.394 . S
C188 H198 0.932 . S
C189 C185 1.308 . S
C189 C188 1.394 . S
C189 H199 0.929 . S
C190 Tb161 2.764 . S
C190 O174 1.239 . S
C190 O175 1.263 . S
C190 C184 1.504 . S
C191 O176 1.236 . S
C191 O177 1.257 . S
H192 C165 0.932 . S
H193 C166 0.930 . S
H194 C167 0.932 . S
H195 C168 0.929 . S
H196 C186 0.932 . S
H197 C187 0.930 . S
H198 C188 0.932 . S
H199 C189 0.929 . S
Tb200 C209 2.764 . S
Tb200 O210 2.325 . S
Tb200 O213 2.303 . S
Tb200 O217 2.322 1_565 S
Tb200 O218 2.349 1_565 S
Tb200 O221 2.415 . S
Tb200 O222 2.399 . S
Tb201 O211 2.322 1_545 S
Tb201 O212 2.349 1_545 S
Tb201 O214 2.415 . S
Tb201 O215 2.399 . S
Tb201 O216 2.325 . S
Tb201 O219 2.303 . S
Tb201 C230 2.764 . S
C202 O218 1.261 . S
C202 O219 1.257 . S
C203 C206 1.358 . S
C203 C207 1.332 . S
C203 C209 1.504 . S
C204 C205 1.373 . S
C204 C208 1.308 . S
C205 C204 1.373 . S
C205 C206 1.429 . S
C205 H232 0.932 . S
C206 C203 1.358 . S
C206 C205 1.429 . S
C206 H233 0.930 . S
C207 C203 1.332 . S
C207 C208 1.394 . S
C207 H234 0.932 . S
C208 C204 1.308 . S
C208 C207 1.394 . S
C208 H235 0.929 . S
C209 Tb200 2.764 . S
C209 C203 1.504 . S
C209 O221 1.239 . S
C209 O222 1.263 . S
O210 Tb200 2.325 . S
O210 C220 1.236 . S
O211 Tb201 2.322 1_565 S
O211 C220 1.257 . S
O212 Tb201 2.349 1_565 S
O212 C223 1.261 . S
O213 Tb200 2.303 . S
O213 C223 1.257 . S
O214 Tb201 2.415 . S
O214 C230 1.239 . S
O215 Tb201 2.399 . S
O215 C230 1.263 . S
O216 Tb201 2.325 . S
O216 C231 1.236 . S
O217 Tb200 2.322 1_545 S
O217 C231 1.257 . S
O218 Tb200 2.349 1_545 S
O218 C202 1.261 . S
O219 Tb201 2.303 . S
O219 C202 1.257 . S
C220 O210 1.236 . S
C220 O211 1.257 . S
O221 Tb200 2.415 . S
O221 C209 1.239 . S
O222 Tb200 2.399 . S
O222 C209 1.263 . S
C223 O212 1.261 . S
C223 O213 1.257 . S
C224 C227 1.358 . S
C224 C228 1.332 . S
C224 C230 1.504 . S
C225 C226 1.373 . S
C225 C229 1.308 . S
C226 C225 1.373 . S
C226 C227 1.429 . S
C226 H236 0.932 . S
C227 C224 1.358 . S
C227 C226 1.429 . S
C227 H237 0.930 . S
C228 C224 1.332 . S
C228 C229 1.394 . S
C228 H238 0.932 . S
C229 C225 1.308 . S
C229 C228 1.394 . S
C229 H239 0.929 . S
C230 Tb201 2.764 . S
C230 O214 1.239 . S
C230 O215 1.263 . S
C230 C224 1.504 . S
C231 O216 1.236 . S
C231 O217 1.257 . S
H232 C205 0.932 . S
H233 C206 0.930 . S
H234 C207 0.932 . S
H235 C208 0.929 . S
H236 C226 0.932 . S
H237 C227 0.930 . S
H238 C228 0.932 . S
H239 C229 0.929 . S
Tb240 C249 2.764 . S
Tb240 O250 2.325 . S
Tb240 O253 2.303 . S
Tb240 O257 2.322 . S
Tb240 O258 2.349 . S
Tb240 O261 2.415 . S
Tb240 O262 2.399 . S
Tb241 O251 2.322 . S
Tb241 O252 2.349 . S
Tb241 O254 2.415 . S
Tb241 O255 2.399 . S
Tb241 O256 2.325 . S
Tb241 O259 2.303 . S
Tb241 C270 2.764 . S
C242 O258 1.261 . S
C242 O259 1.257 . S
C243 C246 1.358 . S
C243 C247 1.332 . S
C243 C249 1.504 . S
C244 C245 1.373 . S
C244 C248 1.308 . S
C245 C244 1.373 . S
C245 C246 1.429 . S
C245 H272 0.932 . S
C246 C243 1.358 . S
C246 C245 1.429 . S
C246 H273 0.930 . S
C247 C243 1.332 . S
C247 C248 1.394 . S
C247 H274 0.932 . S
C248 C244 1.308 . S
C248 C247 1.394 . S
C248 H275 0.929 . S
C249 Tb240 2.764 . S
C249 C243 1.504 . S
C249 O261 1.239 . S
C249 O262 1.263 . S
O250 Tb240 2.325 . S
O250 C260 1.236 . S
O251 Tb241 2.322 . S
O251 C260 1.257 . S
O252 Tb241 2.349 . S
O252 C263 1.261 . S
O253 Tb240 2.303 . S
O253 C263 1.257 . S
O254 Tb241 2.415 . S
O254 C270 1.239 . S
O255 Tb241 2.399 . S
O255 C270 1.263 . S
O256 Tb241 2.325 . S
O256 C271 1.236 . S
O257 Tb240 2.322 . S
O257 C271 1.257 . S
O258 Tb240 2.349 . S
O258 C242 1.261 . S
O259 Tb241 2.303 . S
O259 C242 1.257 . S
C260 O250 1.236 . S
C260 O251 1.257 . S
O261 Tb240 2.415 . S
O261 C249 1.239 . S
O262 Tb240 2.399 . S
O262 C249 1.263 . S
C263 O252 1.261 . S
C263 O253 1.257 . S
C264 C267 1.358 . S
C264 C268 1.332 . S
C264 C270 1.504 . S
C265 C266 1.373 . S
C265 C269 1.308 . S
C266 C265 1.373 . S
C266 C267 1.429 . S
C266 H276 0.932 . S
C267 C264 1.358 . S
C267 C266 1.429 . S
C267 H277 0.930 . S
C268 C264 1.332 . S
C268 C269 1.394 . S
C268 H278 0.932 . S
C269 C265 1.308 . S
C269 C268 1.394 . S
C269 H279 0.929 . S
C270 Tb241 2.764 . S
C270 O254 1.239 . S
C270 O255 1.263 . S
C270 C264 1.504 . S
C271 O256 1.236 . S
C271 O257 1.257 . S
H272 C245 0.932 . S
H273 C246 0.930 . S
H274 C247 0.932 . S
H275 C248 0.929 . S
H276 C266 0.932 . S
H277 C267 0.930 . S
H278 C268 0.932 . S
H279 C269 0.929 . S
Tb280 C289 2.764 . S
Tb280 O290 2.325 . S
Tb280 O293 2.303 . S
Tb280 O297 2.322 . S
Tb280 O298 2.349 . S
Tb280 O301 2.415 . S
Tb280 O302 2.399 . S
Tb281 O291 2.322 . S
Tb281 O292 2.349 . S
Tb281 O294 2.415 . S
Tb281 O295 2.399 . S
Tb281 O296 2.325 . S
Tb281 O299 2.303 . S
Tb281 C310 2.764 . S
C282 O298 1.261 . S
C282 O299 1.257 . S
C283 C286 1.358 . S
C283 C287 1.332 . S
C283 C289 1.504 . S
C284 C285 1.373 . S
C284 C288 1.308 . S
C285 C284 1.373 . S
C285 C286 1.429 . S
C285 H312 0.932 . S
C286 C283 1.358 . S
C286 C285 1.429 . S
C286 H313 0.930 . S
C287 C283 1.332 . S
C287 C288 1.394 . S
C287 H314 0.932 . S
C288 C284 1.308 . S
C288 C287 1.394 . S
C288 H315 0.929 . S
C289 Tb280 2.764 . S
C289 C283 1.504 . S
C289 O301 1.239 . S
C289 O302 1.263 . S
O290 Tb280 2.325 . S
O290 C300 1.236 . S
O291 Tb281 2.322 . S
O291 C300 1.257 . S
O292 Tb281 2.349 . S
O292 C303 1.261 . S
O293 Tb280 2.303 . S
O293 C303 1.257 . S
O294 Tb281 2.415 . S
O294 C310 1.239 . S
O295 Tb281 2.399 . S
O295 C310 1.263 . S
O296 Tb281 2.325 . S
O296 C311 1.236 . S
O297 Tb280 2.322 . S
O297 C311 1.257 . S
O298 Tb280 2.349 . S
O298 C282 1.261 . S
O299 Tb281 2.303 . S
O299 C282 1.257 . S
C300 O290 1.236 . S
C300 O291 1.257 . S
O301 Tb280 2.415 . S
O301 C289 1.239 . S
O302 Tb280 2.399 . S
O302 C289 1.263 . S
C303 O292 1.261 . S
C303 O293 1.257 . S
C304 C307 1.358 . S
C304 C308 1.332 . S
C304 C310 1.504 . S
C305 C306 1.373 . S
C305 C309 1.308 . S
C306 C305 1.373 . S
C306 C307 1.429 . S
C306 H316 0.932 . S
C307 C304 1.358 . S
C307 C306 1.429 . S
C307 H317 0.930 . S
C308 C304 1.332 . S
C308 C309 1.394 . S
C308 H318 0.932 . S
C309 C305 1.308 . S
C309 C308 1.394 . S
C309 H319 0.929 . S
C310 Tb281 2.764 . S
C310 O294 1.239 . S
C310 O295 1.263 . S
C310 C304 1.504 . S
C311 O296 1.236 . S
C311 O297 1.257 . S
H312 C285 0.932 . S
H313 C286 0.930 . S
H314 C287 0.932 . S
H315 C288 0.929 . S
H316 C306 0.932 . S
H317 C307 0.930 . S
H318 C308 0.932 . S
H319 C309 0.929 . S
Tb320 C329 2.764 . S
Tb320 O330 2.325 . S
Tb320 O333 2.303 . S
Tb320 O337 2.322 . S
Tb320 O338 2.349 . S
Tb320 O341 2.415 . S
Tb320 O342 2.399 . S
Tb321 O331 2.322 . S
Tb321 O332 2.349 . S
Tb321 O334 2.415 1_554 S
Tb321 O335 2.399 . S
Tb321 O336 2.325 . S
Tb321 O339 2.303 . S
Tb321 C350 2.764 1_554 S
C322 O338 1.261 . S
C322 O339 1.257 . S
C323 C326 1.358 . S
C323 C327 1.332 . S
C323 C329 1.504 . S
C324 C325 1.373 . S
C324 C328 1.308 . S
C325 C324 1.373 . S
C325 C326 1.429 . S
C325 H352 0.932 . S
C326 C323 1.358 . S
C326 C325 1.429 . S
C326 H353 0.930 . S
C327 C323 1.332 . S
C327 C328 1.394 . S
C327 H354 0.932 . S
C328 C324 1.308 . S
C328 C327 1.394 . S
C328 H355 0.929 . S
C329 Tb320 2.764 . S
C329 C323 1.504 . S
C329 O341 1.239 . S
C329 O342 1.263 . S
O330 Tb320 2.325 . S
O330 C340 1.236 . S
O331 Tb321 2.322 . S
O331 C340 1.257 . S
O332 Tb321 2.349 . S
O332 C343 1.261 . S
O333 Tb320 2.303 . S
O333 C343 1.257 . S
O334 Tb321 2.415 1_556 S
O334 C350 1.239 . S
O335 Tb321 2.399 . S
O335 C350 1.263 1_554 S
O336 Tb321 2.325 . S
O336 C351 1.230 1_554 S
O337 Tb320 2.322 . S
O337 C351 1.232 1_554 S
O338 Tb320 2.349 . S
O338 C322 1.261 . S
O339 Tb321 2.303 . S
O339 C322 1.257 . S
C340 O330 1.236 . S
C340 O331 1.257 . S
O341 Tb320 2.415 . S
O341 C329 1.239 . S
O342 Tb320 2.399 . S
O342 C329 1.263 . S
C343 O332 1.261 . S
C343 O333 1.257 . S
C344 C347 1.358 . S
C344 C348 1.332 . S
C344 C350 1.504 . S
C345 C346 1.373 . S
C345 C349 1.308 . S
C346 C345 1.373 . S
C346 C347 1.429 . S
C346 H356 0.932 . S
C347 C344 1.358 . S
C347 C346 1.429 . S
C347 H357 0.930 . S
C348 C344 1.332 . S
C348 C349 1.394 . S
C348 H358 0.932 . S
C349 C345 1.308 . S
C349 C348 1.394 . S
C349 H359 0.929 . S
C350 Tb321 2.764 1_556 S
C350 O334 1.239 . S
C350 O335 1.263 1_556 S
C350 C344 1.504 . S
C351 O336 1.230 1_556 S
C351 O337 1.232 1_556 S
H352 C325 0.932 . S
H353 C326 0.930 . S
H354 C327 0.932 . S
H355 C328 0.929 . S
H356 C346 0.932 . S
H357 C347 0.930 . S
H358 C348 0.932 . S
H359 C349 0.929 . S
Tb360 C369 2.764 . S
Tb360 O370 2.325 . S
Tb360 O373 2.303 . S
Tb360 O377 2.322 . S
Tb360 O378 2.349 . S
Tb360 O381 2.415 . S
Tb360 O382 2.399 . S
Tb361 O371 2.322 . S
Tb361 O372 2.349 . S
Tb361 O374 2.415 . S
Tb361 O375 2.399 . S
Tb361 O376 2.325 . S
Tb361 O379 2.303 . S
Tb361 C390 2.764 . S
C362 O378 1.261 . S
C362 O379 1.257 . S
C363 C366 1.358 . S
C363 C367 1.332 . S
C363 C369 1.504 1_554 S
C364 C365 1.373 . S
C364 C368 1.308 . S
C365 C364 1.373 . S
C365 C366 1.429 . S
C365 H392 0.932 . S
C366 C363 1.358 . S
C366 C365 1.429 . S
C366 H393 0.930 . S
C367 C363 1.332 . S
C367 C368 1.394 . S
C367 H394 0.932 . S
C368 C364 1.308 . S
C368 C367 1.394 . S
C368 H395 0.929 . S
C369 Tb360 2.764 . S
C369 C363 1.504 1_556 S
C369 O381 1.239 . S
C369 O382 1.263 . S
O370 Tb360 2.325 . S
O370 C380 1.236 . S
O371 Tb361 2.322 . S
O371 C380 1.257 . S
O372 Tb361 2.349 . S
O372 C383 1.261 . S
O373 Tb360 2.303 . S
O373 C383 1.257 . S
O374 Tb361 2.415 . S
O374 C390 1.239 . S
O375 Tb361 2.399 . S
O375 C390 1.263 . S
O376 Tb361 2.325 . S
O376 C391 1.236 . S
O377 Tb360 2.322 . S
O377 C391 1.257 . S
O378 Tb360 2.349 . S
O378 C362 1.261 . S
O379 Tb361 2.303 . S
O379 C362 1.257 . S
C380 O370 1.236 . S
C380 O371 1.257 . S
O381 Tb360 2.415 . S
O381 C369 1.239 . S
O382 Tb360 2.399 . S
O382 C369 1.263 . S
C383 O372 1.261 . S
C383 O373 1.257 . S
C384 C387 1.358 . S
C384 C388 1.332 . S
C384 C390 1.504 . S
C385 C386 1.373 . S
C385 C389 1.308 . S
C386 C385 1.373 . S
C386 C387 1.429 . S
C386 H396 0.932 . S
C387 C384 1.358 . S
C387 C386 1.429 . S
C387 H397 0.930 . S
C388 C384 1.332 . S
C388 C389 1.394 . S
C388 H398 0.932 . S
C389 C385 1.308 . S
C389 C388 1.394 . S
C389 H399 0.929 . S
C390 Tb361 2.764 . S
C390 O374 1.239 . S
C390 O375 1.263 . S
C390 C384 1.504 . S
C391 O376 1.236 . S
C391 O377 1.257 . S
H392 C365 0.932 . S
H393 C366 0.930 . S
H394 C367 0.932 . S
H395 C368 0.929 . S
H396 C386 0.932 . S
H397 C387 0.930 . S
H398 C388 0.932 . S
H399 C389 0.929 . S
Tb400 C409 2.764 . S
Tb400 O410 2.325 . S
Tb400 O413 2.303 . S
Tb400 O417 2.322 . S
Tb400 O418 2.349 . S
Tb400 O421 2.415 . S
Tb400 O422 2.399 . S
Tb401 O411 2.322 . S
Tb401 O412 2.349 . S
Tb401 O414 2.415 . S
Tb401 O415 2.399 . S
Tb401 O416 2.325 . S
Tb401 O419 2.303 . S
Tb401 C430 2.764 . S
C402 O418 1.261 . S
C402 O419 1.257 . S
C403 C406 1.358 . S
C403 C407 1.332 . S
C403 C409 1.504 . S
C404 C405 1.373 . S
C404 C408 1.308 . S
C405 C404 1.373 . S
C405 C406 1.429 . S
C405 H432 0.932 . S
C406 C403 1.358 . S
C406 C405 1.429 . S
C406 H433 0.930 . S
C407 C403 1.332 . S
C407 C408 1.394 . S
C407 H434 0.932 . S
C408 C404 1.308 . S
C408 C407 1.394 . S
C408 H435 0.929 . S
C409 Tb400 2.764 . S
C409 C403 1.504 . S
C409 O421 1.239 . S
C409 O422 1.263 . S
O410 Tb400 2.325 . S
O410 C420 1.236 . S
O411 Tb401 2.322 . S
O411 C420 1.257 . S
O412 Tb401 2.349 . S
O412 C423 1.261 . S
O413 Tb400 2.303 . S
O413 C423 1.257 . S
O414 Tb401 2.415 . S
O414 C430 1.239 . S
O415 Tb401 2.399 . S
O415 C430 1.263 . S
O416 Tb401 2.325 . S
O416 C431 1.236 . S
O417 Tb400 2.322 . S
O417 C431 1.257 . S
O418 Tb400 2.349 . S
O418 C402 1.261 . S
O419 Tb401 2.303 . S
O419 C402 1.257 . S
C420 O410 1.236 . S
C420 O411 1.257 . S
O421 Tb400 2.415 . S
O421 C409 1.239 . S
O422 Tb400 2.399 . S
O422 C409 1.263 . S
C423 O412 1.261 . S
C423 O413 1.257 . S
C424 C427 1.358 . S
C424 C428 1.332 . S
C424 C430 1.504 . S
C425 C426 1.373 . S
C425 C429 1.308 . S
C426 C425 1.373 . S
C426 C427 1.429 . S
C426 H436 0.932 . S
C427 C424 1.358 . S
C427 C426 1.429 . S
C427 H437 0.930 . S
C428 C424 1.332 . S
C428 C429 1.394 . S
C428 H438 0.932 . S
C429 C425 1.308 . S
C429 C428 1.394 . S
C429 H439 0.929 . S
C430 Tb401 2.764 . S
C430 O414 1.239 . S
C430 O415 1.263 . S
C430 C424 1.504 . S
C431 O416 1.236 . S
C431 O417 1.257 . S
H432 C405 0.932 . S
H433 C406 0.930 . S
H434 C407 0.932 . S
H435 C408 0.929 . S
H436 C426 0.932 . S
H437 C427 0.930 . S
H438 C428 0.932 . S
H439 C429 0.929 . S
Tb440 C449 2.764 . S
Tb440 O450 2.325 . S
Tb440 O453 2.303 . S
Tb440 O457 2.322 . S
Tb440 O458 2.349 . S
Tb440 O461 2.415 . S
Tb440 O462 2.399 . S
Tb441 O451 2.322 . S
Tb441 O452 2.349 . S
Tb441 O454 2.415 . S
Tb441 O455 2.399 . S
Tb441 O456 2.325 . S
Tb441 O459 2.303 . S
Tb441 C470 2.764 . S
C442 O458 1.261 . S
C442 O459 1.257 . S
C443 C446 1.358 . S
C443 C447 1.332 . S
C443 C449 1.504 . S
C444 C445 1.373 . S
C444 C448 1.308 . S
C445 C444 1.373 . S
C445 C446 1.429 . S
C445 H472 0.932 . S
C446 C443 1.358 . S
C446 C445 1.429 . S
C446 H473 0.930 . S
C447 C443 1.332 . S
C447 C448 1.394 . S
C447 H474 0.932 . S
C448 C444 1.308 . S
C448 C447 1.394 . S
C448 H475 0.929 . S
C449 Tb440 2.764 . S
C449 C443 1.504 . S
C449 O461 1.239 . S
C449 O462 1.263 . S
O450 Tb440 2.325 . S
O450 C460 1.236 . S
O451 Tb441 2.322 . S
O451 C460 1.257 . S
O452 Tb441 2.349 . S
O452 C463 1.261 . S
O453 Tb440 2.303 . S
O453 C463 1.257 . S
O454 Tb441 2.415 . S
O454 C470 1.239 . S
O455 Tb441 2.399 . S
O455 C470 1.263 . S
O456 Tb441 2.325 . S
O456 C471 1.236 . S
O457 Tb440 2.322 . S
O457 C471 1.257 . S
O458 Tb440 2.349 . S
O458 C442 1.261 . S
O459 Tb441 2.303 . S
O459 C442 1.257 . S
C460 O450 1.236 . S
C460 O451 1.257 . S
O461 Tb440 2.415 . S
O461 C449 1.239 . S
O462 Tb440 2.399 . S
O462 C449 1.263 . S
C463 O452 1.261 . S
C463 O453 1.257 . S
C464 C467 1.358 . S
C464 C468 1.332 . S
C464 C470 1.504 . S
C465 C466 1.373 . S
C465 C469 1.308 . S
C466 C465 1.373 . S
C466 C467 1.429 . S
C466 H476 0.932 . S
C467 C464 1.358 . S
C467 C466 1.429 . S
C467 H477 0.930 . S
C468 C464 1.332 . S
C468 C469 1.394 . S
C468 H478 0.932 . S
C469 C465 1.308 . S
C469 C468 1.394 . S
C469 H479 0.929 . S
C470 Tb441 2.764 . S
C470 O454 1.239 . S
C470 O455 1.263 . S
C470 C464 1.504 . S
C471 O456 1.236 . S
C471 O457 1.257 . S
H472 C445 0.932 . S
H473 C446 0.930 . S
H474 C447 0.932 . S
H475 C448 0.929 . S
H476 C466 0.932 . S
H477 C467 0.930 . S
H478 C468 0.932 . S
H479 C469 0.929 . S
Tb480 C489 2.764 . S
Tb480 O490 2.325 . S
Tb480 O493 2.303 . S
Tb480 O497 2.322 1_455 S
Tb480 O498 2.349 1_455 S
Tb480 O501 2.415 . S
Tb480 O502 2.399 . S
Tb481 O491 2.322 1_655 S
Tb481 O492 2.349 1_655 S
Tb481 O494 2.415 . S
Tb481 O495 2.399 . S
Tb481 O496 2.325 . S
Tb481 O499 2.303 . S
Tb481 C510 2.764 . S
C482 O498 1.261 . S
C482 O499 1.257 . S
C483 C486 1.358 . S
C483 C487 1.332 . S
C483 C489 1.504 . S
C484 C485 1.373 . S
C484 C488 1.308 . S
C485 C484 1.373 . S
C485 C486 1.429 . S
C485 H512 0.932 . S
C486 C483 1.358 . S
C486 C485 1.429 . S
C486 H513 0.930 . S
C487 C483 1.332 . S
C487 C488 1.394 . S
C487 H514 0.932 . S
C488 C484 1.308 . S
C488 C487 1.394 . S
C488 H515 0.929 . S
C489 Tb480 2.764 . S
C489 C483 1.504 . S
C489 O501 1.239 . S
C489 O502 1.263 . S
O490 Tb480 2.325 . S
O490 C500 1.236 . S
O491 Tb481 2.322 1_455 S
O491 C500 1.257 . S
O492 Tb481 2.349 1_455 S
O492 C503 1.261 . S
O493 Tb480 2.303 . S
O493 C503 1.257 . S
O494 Tb481 2.415 . S
O494 C510 1.239 . S
O495 Tb481 2.399 . S
O495 C510 1.263 . S
O496 Tb481 2.325 . S
O496 C511 1.236 . S
O497 Tb480 2.322 1_655 S
O497 C511 1.257 . S
O498 Tb480 2.349 1_655 S
O498 C482 1.261 . S
O499 Tb481 2.303 . S
O499 C482 1.257 . S
C500 O490 1.236 . S
C500 O491 1.257 . S
O501 Tb480 2.415 . S
O501 C489 1.239 . S
O502 Tb480 2.399 . S
O502 C489 1.263 . S
C503 O492 1.261 . S
C503 O493 1.257 . S
C504 C507 1.358 . S
C504 C508 1.332 . S
C504 C510 1.504 . S
C505 C506 1.373 . S
C505 C509 1.308 . S
C506 C505 1.373 . S
C506 C507 1.429 . S
C506 H516 0.932 . S
C507 C504 1.358 . S
C507 C506 1.429 . S
C507 H517 0.930 . S
C508 C504 1.332 . S
C508 C509 1.394 . S
C508 H518 0.932 . S
C509 C505 1.308 . S
C509 C508 1.394 . S
C509 H519 0.929 . S
C510 Tb481 2.764 . S
C510 O494 1.239 . S
C510 O495 1.263 . S
C510 C504 1.504 . S
C511 O496 1.236 . S
C511 O497 1.257 . S
H512 C485 0.932 . S
H513 C486 0.930 . S
H514 C487 0.932 . S
H515 C488 0.929 . S
H516 C506 0.932 . S
H517 C507 0.930 . S
H518 C508 0.932 . S
H519 C509 0.929 . S
Tb520 C529 2.764 . S
Tb520 O530 2.325 . S
Tb520 O533 2.303 . S
Tb520 O537 2.322 . S
Tb520 O538 2.349 . S
Tb520 O541 2.415 . S
Tb520 O542 2.399 . S
Tb521 O531 2.322 . S
Tb521 O532 2.349 . S
Tb521 O534 2.415 . S
Tb521 O535 2.399 . S
Tb521 O536 2.325 . S
Tb521 O539 2.303 . S
Tb521 C550 2.764 . S
C522 O538 1.261 . S
C522 O539 1.257 . S
C523 C526 1.358 . S
C523 C527 1.332 . S
C523 C529 1.504 . S
C524 C525 1.373 . S
C524 C528 1.308 . S
C525 C524 1.373 . S
C525 C526 1.429 . S
C525 H552 0.932 . S
C526 C523 1.358 . S
C526 C525 1.429 . S
C526 H553 0.930 . S
C527 C523 1.332 . S
C527 C528 1.394 . S
C527 H554 0.932 . S
C528 C524 1.308 . S
C528 C527 1.394 . S
C528 H555 0.929 . S
C529 Tb520 2.764 . S
C529 C523 1.504 . S
C529 O541 1.239 . S
C529 O542 1.263 . S
O530 Tb520 2.325 . S
O530 C540 1.236 . S
O531 Tb521 2.322 . S
O531 C540 1.257 . S
O532 Tb521 2.349 . S
O532 C543 1.261 . S
O533 Tb520 2.303 . S
O533 C543 1.257 . S
O534 Tb521 2.415 . S
O534 C550 1.239 . S
O535 Tb521 2.399 . S
O535 C550 1.263 . S
O536 Tb521 2.325 . S
O536 C551 1.236 . S
O537 Tb520 2.322 . S
O537 C551 1.257 . S
O538 Tb520 2.349 . S
O538 C522 1.261 . S
O539 Tb521 2.303 . S
O539 C522 1.257 . S
C540 O530 1.236 . S
C540 O531 1.257 . S
O541 Tb520 2.415 . S
O541 C529 1.239 . S
O542 Tb520 2.399 . S
O542 C529 1.263 . S
C543 O532 1.261 . S
C543 O533 1.257 . S
C544 C547 1.358 . S
C544 C548 1.332 . S
C544 C550 1.504 . S
C545 C546 1.373 . S
C545 C549 1.308 . S
C546 C545 1.373 . S
C546 C547 1.429 . S
C546 H556 0.932 . S
C547 C544 1.358 . S
C547 C546 1.429 . S
C547 H557 0.930 . S
C548 C544 1.332 . S
C548 C549 1.394 . S
C548 H558 0.932 . S
C549 C545 1.308 . S
C549 C548 1.394 . S
C549 H559 0.929 . S
C550 Tb521 2.764 . S
C550 O534 1.239 . S
C550 O535 1.263 . S
C550 C544 1.504 . S
C551 O536 1.236 . S
C551 O537 1.257 . S
H552 C525 0.932 . S
H553 C526 0.930 . S
H554 C527 0.932 . S
H555 C528 0.929 . S
H556 C546 0.932 . S
H557 C547 0.930 . S
H558 C548 0.932 . S
H559 C549 0.929 . S
Tb560 C569 2.764 . S
Tb560 O570 2.325 . S
Tb560 O573 2.303 . S
Tb560 O577 2.322 . S
Tb560 O578 2.349 . S
Tb560 O581 2.415 . S
Tb560 O582 2.399 . S
Tb561 O571 2.322 . S
Tb561 O572 2.349 . S
Tb561 O574 2.415 . S
Tb561 O575 2.399 . S
Tb561 O576 2.325 . S
Tb561 O579 2.303 . S
Tb561 C590 2.764 . S
C562 O578 1.261 . S
C562 O579 1.257 . S
C563 C566 1.358 . S
C563 C567 1.332 . S
C563 C569 1.504 . S
C564 C565 1.373 . S
C564 C568 1.308 . S
C565 C564 1.373 . S
C565 C566 1.429 . S
C565 H592 0.932 . S
C566 C563 1.358 . S
C566 C565 1.429 . S
C566 H593 0.930 . S
C567 C563 1.332 . S
C567 C568 1.394 . S
C567 H594 0.932 . S
C568 C564 1.308 . S
C568 C567 1.394 . S
C568 H595 0.929 . S
C569 Tb560 2.764 . S
C569 C563 1.504 . S
C569 O581 1.239 . S
C569 O582 1.263 . S
O570 Tb560 2.325 . S
O570 C580 1.236 . S
O571 Tb561 2.322 . S
O571 C580 1.257 . S
O572 Tb561 2.349 . S
O572 C583 1.261 . S
O573 Tb560 2.303 . S
O573 C583 1.257 . S
O574 Tb561 2.415 . S
O574 C590 1.239 . S
O575 Tb561 2.399 . S
O575 C590 1.263 . S
O576 Tb561 2.325 . S
O576 C591 1.236 . S
O577 Tb560 2.322 . S
O577 C591 1.257 . S
O578 Tb560 2.349 . S
O578 C562 1.261 . S
O579 Tb561 2.303 . S
O579 C562 1.257 . S
C580 O570 1.236 . S
C580 O571 1.257 . S
O581 Tb560 2.415 . S
O581 C569 1.239 . S
O582 Tb560 2.399 . S
O582 C569 1.263 . S
C583 O572 1.261 . S
C583 O573 1.257 . S
C584 C587 1.358 . S
C584 C588 1.332 . S
C584 C590 1.504 . S
C585 C586 1.373 . S
C585 C589 1.308 . S
C586 C585 1.373 . S
C586 C587 1.429 . S
C586 H596 0.932 . S
C587 C584 1.358 . S
C587 C586 1.429 . S
C587 H597 0.930 . S
C588 C584 1.332 . S
C588 C589 1.394 . S
C588 H598 0.932 . S
C589 C585 1.308 . S
C589 C588 1.394 . S
C589 H599 0.929 . S
C590 Tb561 2.764 . S
C590 O574 1.239 . S
C590 O575 1.263 . S
C590 C584 1.504 . S
C591 O576 1.236 . S
C591 O577 1.257 . S
H592 C565 0.932 . S
H593 C566 0.930 . S
H594 C567 0.932 . S
H595 C568 0.929 . S
H596 C586 0.932 . S
H597 C587 0.930 . S
H598 C588 0.932 . S
H599 C589 0.929 . S
Tb600 C609 2.764 . S
Tb600 O610 2.325 . S
Tb600 O613 2.303 . S
Tb600 O617 2.322 1_655 S
Tb600 O618 2.349 1_655 S
Tb600 O621 2.415 . S
Tb600 O622 2.399 . S
Tb601 O611 2.322 1_455 S
Tb601 O612 2.349 1_455 S
Tb601 O614 2.415 . S
Tb601 O615 2.399 . S
Tb601 O616 2.325 . S
Tb601 O619 2.303 . S
Tb601 C630 2.764 . S
C602 O618 1.261 . S
C602 O619 1.257 . S
C603 C606 1.358 . S
C603 C607 1.332 . S
C603 C609 1.504 . S
C604 C605 1.373 . S
C604 C608 1.308 . S
C605 C604 1.373 . S
C605 C606 1.429 . S
C605 H632 0.932 . S
C606 C603 1.358 . S
C606 C605 1.429 . S
C606 H633 0.930 . S
C607 C603 1.332 . S
C607 C608 1.394 . S
C607 H634 0.932 . S
C608 C604 1.308 . S
C608 C607 1.394 . S
C608 H635 0.929 . S
C609 Tb600 2.764 . S
C609 C603 1.504 . S
C609 O621 1.239 . S
C609 O622 1.263 . S
O610 Tb600 2.325 . S
O610 C620 1.236 . S
O611 Tb601 2.322 1_655 S
O611 C620 1.257 . S
O612 Tb601 2.349 1_655 S
O612 C623 1.261 . S
O613 Tb600 2.303 . S
O613 C623 1.257 . S
O614 Tb601 2.415 . S
O614 C630 1.239 . S
O615 Tb601 2.399 . S
O615 C630 1.263 . S
O616 Tb601 2.325 . S
O616 C631 1.236 . S
O617 Tb600 2.322 1_455 S
O617 C631 1.257 . S
O618 Tb600 2.349 1_455 S
O618 C602 1.261 . S
O619 Tb601 2.303 . S
O619 C602 1.257 . S
C620 O610 1.236 . S
C620 O611 1.257 . S
O621 Tb600 2.415 . S
O621 C609 1.239 . S
O622 Tb600 2.399 . S
O622 C609 1.263 . S
C623 O612 1.261 . S
C623 O613 1.257 . S
C624 C627 1.358 . S
C624 C628 1.332 . S
C624 C630 1.504 . S
C625 C626 1.373 . S
C625 C629 1.308 . S
C626 C625 1.373 . S
C626 C627 1.429 . S
C626 H636 0.932 . S
C627 C624 1.358 . S
C627 C626 1.429 . S
C627 H637 0.930 . S
C628 C624 1.332 . S
C628 C629 1.394 . S
C628 H638 0.932 . S
C629 C625 1.308 . S
C629 C628 1.394 . S
C629 H639 0.929 . S
C630 Tb601 2.764 . S
C630 O614 1.239 . S
C630 O615 1.263 . S
C630 C624 1.504 . S
C631 O616 1.236 . S
C631 O617 1.257 . S
H632 C605 0.932 . S
H633 C606 0.930 . S
H634 C607 0.932 . S
H635 C608 0.929 . S
H636 C626 0.932 . S
H637 C627 0.930 . S
H638 C628 0.932 . S
H639 C629 0.929 . S
Tb640 C649 2.764 . S
Tb640 O650 2.325 . S
Tb640 O653 2.303 . S
Tb640 O657 2.322 1_545 S
Tb640 O658 2.349 1_545 S
Tb640 O661 2.415 . S
Tb640 O662 2.399 . S
Tb641 O651 2.322 1_565 S
Tb641 O652 2.349 1_565 S
Tb641 O654 2.415 . S
Tb641 O655 2.399 . S
Tb641 O656 2.325 . S
Tb641 O659 2.303 . S
Tb641 C670 2.764 . S
C642 O658 1.261 . S
C642 O659 1.257 . S
C643 C646 1.358 . S
C643 C647 1.332 . S
C643 C649 1.504 . S
C644 C645 1.373 . S
C644 C648 1.308 . S
C645 C644 1.373 . S
C645 C646 1.429 . S
C645 H672 0.932 . S
C646 C643 1.358 . S
C646 C645 1.429 . S
C646 H673 0.930 . S
C647 C643 1.332 . S
C647 C648 1.394 . S
C647 H674 0.932 . S
C648 C644 1.308 . S
C648 C647 1.394 . S
C648 H675 0.929 . S
C649 Tb640 2.764 . S
C649 C643 1.504 . S
C649 O661 1.239 . S
C649 O662 1.263 . S
O650 Tb640 2.325 . S
O650 C660 1.236 . S
O651 Tb641 2.322 1_545 S
O651 C660 1.257 . S
O652 Tb641 2.349 1_545 S
O652 C663 1.261 . S
O653 Tb640 2.303 . S
O653 C663 1.257 . S
O654 Tb641 2.415 . S
O654 C670 1.239 . S
O655 Tb641 2.399 . S
O655 C670 1.263 . S
O656 Tb641 2.325 . S
O656 C671 1.236 . S
O657 Tb640 2.322 1_565 S
O657 C671 1.257 . S
O658 Tb640 2.349 1_565 S
O658 C642 1.261 . S
O659 Tb641 2.303 . S
O659 C642 1.257 . S
C660 O650 1.236 . S
C660 O651 1.257 . S
O661 Tb640 2.415 . S
O661 C649 1.239 . S
O662 Tb640 2.399 . S
O662 C649 1.263 . S
C663 O652 1.261 . S
C663 O653 1.257 . S
C664 C667 1.358 . S
C664 C668 1.332 . S
C664 C670 1.504 . S
C665 C666 1.373 . S
C665 C669 1.308 . S
C666 C665 1.373 . S
C666 C667 1.429 . S
C666 H676 0.932 . S
C667 C664 1.358 . S
C667 C666 1.429 . S
C667 H677 0.930 . S
C668 C664 1.332 . S
C668 C669 1.394 . S
C668 H678 0.932 . S
C669 C665 1.308 . S
C669 C668 1.394 . S
C669 H679 0.929 . S
C670 Tb641 2.764 . S
C670 O654 1.239 . S
C670 O655 1.263 . S
C670 C664 1.504 . S
C671 O656 1.236 . S
C671 O657 1.257 . S
H672 C645 0.932 . S
H673 C646 0.930 . S
H674 C647 0.932 . S
H675 C648 0.929 . S
H676 C666 0.932 . S
H677 C667 0.930 . S
H678 C668 0.932 . S
H679 C669 0.929 . S
Tb680 C689 2.764 . S
Tb680 O690 2.325 . S
Tb680 O693 2.303 . S
Tb680 O697 2.322 1_565 S
Tb680 O698 2.349 1_565 S
Tb680 O701 2.415 . S
Tb680 O702 2.399 . S
Tb681 O691 2.322 1_545 S
Tb681 O692 2.349 1_545 S
Tb681 O694 2.415 . S
Tb681 O695 2.399 . S
Tb681 O696 2.325 . S
Tb681 O699 2.303 . S
Tb681 C710 2.764 . S
C682 O698 1.261 . S
C682 O699 1.257 . S
C683 C686 1.358 . S
C683 C687 1.332 . S
C683 C689 1.504 . S
C684 C685 1.373 . S
C684 C688 1.308 . S
C685 C684 1.373 . S
C685 C686 1.429 . S
C685 H712 0.932 . S
C686 C683 1.358 . S
C686 C685 1.429 . S
C686 H713 0.930 . S
C687 C683 1.332 . S
C687 C688 1.394 . S
C687 H714 0.932 . S
C688 C684 1.308 . S
C688 C687 1.394 . S
C688 H715 0.929 . S
C689 Tb680 2.764 . S
C689 C683 1.504 . S
C689 O701 1.239 . S
C689 O702 1.263 . S
O690 Tb680 2.325 . S
O690 C700 1.236 . S
O691 Tb681 2.322 1_565 S
O691 C700 1.257 . S
O692 Tb681 2.349 1_565 S
O692 C703 1.261 . S
O693 Tb680 2.303 . S
O693 C703 1.257 . S
O694 Tb681 2.415 . S
O694 C710 1.239 . S
O695 Tb681 2.399 . S
O695 C710 1.263 . S
O696 Tb681 2.325 . S
O696 C711 1.236 . S
O697 Tb680 2.322 1_545 S
O697 C711 1.257 . S
O698 Tb680 2.349 1_545 S
O698 C682 1.261 . S
O699 Tb681 2.303 . S
O699 C682 1.257 . S
C700 O690 1.236 . S
C700 O691 1.257 . S
O701 Tb680 2.415 . S
O701 C689 1.239 . S
O702 Tb680 2.399 . S
O702 C689 1.263 . S
C703 O692 1.261 . S
C703 O693 1.257 . S
C704 C707 1.358 . S
C704 C708 1.332 . S
C704 C710 1.504 . S
C705 C706 1.373 . S
C705 C709 1.308 . S
C706 C705 1.373 . S
C706 C707 1.429 . S
C706 H716 0.932 . S
C707 C704 1.358 . S
C707 C706 1.429 . S
C707 H717 0.930 . S
C708 C704 1.332 . S
C708 C709 1.394 . S
C708 H718 0.932 . S
C709 C705 1.308 . S
C709 C708 1.394 . S
C709 H719 0.929 . S
C710 Tb681 2.764 . S
C710 O694 1.239 . S
C710 O695 1.263 . S
C710 C704 1.504 . S
C711 O696 1.236 . S
C711 O697 1.257 . S
H712 C685 0.932 . S
H713 C686 0.930 . S
H714 C687 0.932 . S
H715 C688 0.929 . S
H716 C706 0.932 . S
H717 C707 0.930 . S
H718 C708 0.932 . S
H719 C709 0.929 . S
Tb720 C729 2.764 . S
Tb720 O730 2.325 . S
Tb720 O733 2.303 . S
Tb720 O737 2.322 . S
Tb720 O738 2.349 . S
Tb720 O741 2.415 . S
Tb720 O742 2.399 . S
Tb721 O731 2.322 . S
Tb721 O732 2.349 . S
Tb721 O734 2.415 . S
Tb721 O735 2.399 . S
Tb721 O736 2.325 . S
Tb721 O739 2.303 . S
Tb721 C750 2.764 . S
C722 O738 1.261 . S
C722 O739 1.257 . S
C723 C726 1.358 . S
C723 C727 1.332 . S
C723 C729 1.504 . S
C724 C725 1.373 . S
C724 C728 1.308 . S
C725 C724 1.373 . S
C725 C726 1.429 . S
C725 H752 0.932 . S
C726 C723 1.358 . S
C726 C725 1.429 . S
C726 H753 0.930 . S
C727 C723 1.332 . S
C727 C728 1.394 . S
C727 H754 0.932 . S
C728 C724 1.308 . S
C728 C727 1.394 . S
C728 H755 0.929 . S
C729 Tb720 2.764 . S
C729 C723 1.504 . S
C729 O741 1.239 . S
C729 O742 1.263 . S
O730 Tb720 2.325 . S
O730 C740 1.236 . S
O731 Tb721 2.322 . S
O731 C740 1.257 . S
O732 Tb721 2.349 . S
O732 C743 1.261 . S
O733 Tb720 2.303 . S
O733 C743 1.257 . S
O734 Tb721 2.415 . S
O734 C750 1.239 . S
O735 Tb721 2.399 . S
O735 C750 1.263 . S
O736 Tb721 2.325 . S
O736 C751 1.236 . S
O737 Tb720 2.322 . S
O737 C751 1.257 . S
O738 Tb720 2.349 . S
O738 C722 1.261 . S
O739 Tb721 2.303 . S
O739 C722 1.257 . S
C740 O730 1.236 . S
C740 O731 1.257 . S
O741 Tb720 2.415 . S
O741 C729 1.239 . S
O742 Tb720 2.399 . S
O742 C729 1.263 . S
C743 O732 1.261 . S
C743 O733 1.257 . S
C744 C747 1.358 . S
C744 C748 1.332 . S
C744 C750 1.504 . S
C745 C746 1.373 . S
C745 C749 1.308 . S
C746 C745 1.373 . S
C746 C747 1.429 . S
C746 H756 0.932 . S
C747 C744 1.358 . S
C747 C746 1.429 . S
C747 H757 0.930 . S
C748 C744 1.332 . S
C748 C749 1.394 . S
C748 H758 0.932 . S
C749 C745 1.308 . S
C749 C748 1.394 . S
C749 H759 0.929 . S
C750 Tb721 2.764 . S
C750 O734 1.239 . S
C750 O735 1.263 . S
C750 C744 1.504 . S
C751 O736 1.236 . S
C751 O737 1.257 . S
H752 C725 0.932 . S
H753 C726 0.930 . S
H754 C727 0.932 . S
H755 C728 0.929 . S
H756 C746 0.932 . S
H757 C747 0.930 . S
H758 C748 0.932 . S
H759 C749 0.929 . S
Tb760 C769 2.764 . S
Tb760 O770 2.325 . S
Tb760 O773 2.303 . S
Tb760 O777 2.322 . S
Tb760 O778 2.349 . S
Tb760 O781 2.415 . S
Tb760 O782 2.399 . S
Tb761 O771 2.322 . S
Tb761 O772 2.349 . S
Tb761 O774 2.415 . S
Tb761 O775 2.399 . S
Tb761 O776 2.325 . S
Tb761 O779 2.303 . S
Tb761 C790 2.764 . S
C762 O778 1.261 . S
C762 O779 1.257 . S
C763 C766 1.358 . S
C763 C767 1.332 . S
C763 C769 1.504 . S
C764 C765 1.373 . S
C764 C768 1.308 . S
C765 C764 1.373 . S
C765 C766 1.429 . S
C765 H792 0.932 . S
C766 C763 1.358 . S
C766 C765 1.429 . S
C766 H793 0.930 . S
C767 C763 1.332 . S
C767 C768 1.394 . S
C767 H794 0.932 . S
C768 C764 1.308 . S
C768 C767 1.394 . S
C768 H795 0.929 . S
C769 Tb760 2.764 . S
C769 C763 1.504 . S
C769 O781 1.239 . S
C769 O782 1.263 . S
O770 Tb760 2.325 . S
O770 C780 1.236 . S
O771 Tb761 2.322 . S
O771 C780 1.257 . S
O772 Tb761 2.349 . S
O772 C783 1.261 . S
O773 Tb760 2.303 . S
O773 C783 1.257 . S
O774 Tb761 2.415 . S
O774 C790 1.239 . S
O775 Tb761 2.399 . S
O775 C790 1.263 . S
O776 Tb761 2.325 . S
O776 C791 1.236 . S
O777 Tb760 2.322 . S
O777 C791 1.257 . S
O778 Tb760 2.349 . S
O778 C762 1.261 . S
O779 Tb761 2.303 . S
O779 C762 1.257 . S
C780 O770 1.236 . S
C780 O771 1.257 . S
O781 Tb760 2.415 . S
O781 C769 1.239 . S
O782 Tb760 2.399 . S
O782 C769 1.263 . S
C783 O772 1.261 . S
C783 O773 1.257 . S
C784 C787 1.358 . S
C784 C788 1.332 . S
C784 C790 1.504 . S
C785 C786 1.373 . S
C785 C789 1.308 . S
C786 C785 1.373 . S
C786 C787 1.429 . S
C786 H796 0.932 . S
C787 C784 1.358 . S
C787 C786 1.429 . S
C787 H797 0.930 . S
C788 C784 1.332 . S
C788 C789 1.394 . S
C788 H798 0.932 . S
C789 C785 1.308 . S
C789 C788 1.394 . S
C789 H799 0.929 . S
C790 Tb761 2.764 . S
C790 O774 1.239 . S
C790 O775 1.263 . S
C790 C784 1.504 . S
C791 O776 1.236 . S
C791 O777 1.257 . S
H792 C765 0.932 . S
H793 C766 0.930 . S
H794 C767 0.932 . S
H795 C768 0.929 . S
H796 C786 0.932 . S
H797 C787 0.930 . S
H798 C788 0.932 . S
H799 C789 0.929 . S
Tb800 C809 2.764 1_556 S
Tb800 O810 2.325 . S
Tb800 O813 2.303 . S
Tb800 O817 2.322 . S
Tb800 O818 2.349 . S
Tb800 O821 2.415 1_556 S
Tb800 O822 2.399 . S
Tb801 O811 2.322 . S
Tb801 O812 2.349 . S
Tb801 O814 2.415 . S
Tb801 O815 2.399 . S
Tb801 O816 2.325 . S
Tb801 O819 2.303 . S
Tb801 C830 2.764 . S
C802 O818 1.261 . S
C802 O819 1.257 . S
C803 C806 1.358 . S
C803 C807 1.332 . S
C803 C809 1.504 . S
C804 C805 1.373 . S
C804 C808 1.308 . S
C805 C804 1.373 . S
C805 C806 1.429 . S
C805 H832 0.932 . S
C806 C803 1.358 . S
C806 C805 1.429 . S
C806 H833 0.930 . S
C807 C803 1.332 . S
C807 C808 1.394 . S
C807 H834 0.932 . S
C808 C804 1.308 . S
C808 C807 1.394 . S
C808 H835 0.929 . S
C809 Tb800 2.764 1_554 S
C809 C803 1.504 . S
C809 O821 1.239 . S
C809 O822 1.263 1_554 S
O810 Tb800 2.325 . S
O810 C820 1.230 1_556 S
O811 Tb801 2.322 . S
O811 C820 1.232 1_556 S
O812 Tb801 2.349 . S
O812 C823 1.261 . S
O813 Tb800 2.303 . S
O813 C823 1.257 . S
O814 Tb801 2.415 . S
O814 C830 1.239 . S
O815 Tb801 2.399 . S
O815 C830 1.263 . S
O816 Tb801 2.325 . S
O816 C831 1.236 . S
O817 Tb800 2.322 . S
O817 C831 1.257 . S
O818 Tb800 2.349 . S
O818 C802 1.261 . S
O819 Tb801 2.303 . S
O819 C802 1.257 . S
C820 O810 1.230 1_554 S
C820 O811 1.232 1_554 S
O821 Tb800 2.415 1_554 S
O821 C809 1.239 . S
O822 Tb800 2.399 . S
O822 C809 1.263 1_556 S
C823 O812 1.261 . S
C823 O813 1.257 . S
C824 C827 1.358 . S
C824 C828 1.332 . S
C824 C830 1.504 . S
C825 C826 1.373 . S
C825 C829 1.308 . S
C826 C825 1.373 . S
C826 C827 1.429 . S
C826 H836 0.932 . S
C827 C824 1.358 . S
C827 C826 1.429 . S
C827 H837 0.930 . S
C828 C824 1.332 . S
C828 C829 1.394 . S
C828 H838 0.932 . S
C829 C825 1.308 . S
C829 C828 1.394 . S
C829 H839 0.929 . S
C830 Tb801 2.764 . S
C830 O814 1.239 . S
C830 O815 1.263 . S
C830 C824 1.504 . S
C831 O816 1.236 . S
C831 O817 1.257 . S
H832 C805 0.932 . S
H833 C806 0.930 . S
H834 C807 0.932 . S
H835 C808 0.929 . S
H836 C826 0.932 . S
H837 C827 0.930 . S
H838 C828 0.932 . S
H839 C829 0.929 . S
Tb840 C849 2.764 . S
Tb840 O850 2.325 . S
Tb840 O853 2.303 . S
Tb840 O857 2.322 . S
Tb840 O858 2.349 . S
Tb840 O861 2.415 . S
Tb840 O862 2.399 . S
Tb841 O851 2.322 . S
Tb841 O852 2.349 . S
Tb841 O854 2.415 . S
Tb841 O855 2.399 . S
Tb841 O856 2.325 . S
Tb841 O859 2.303 . S
Tb841 C870 2.764 . S
C842 O858 1.261 . S
C842 O859 1.257 . S
C843 C846 1.358 . S
C843 C847 1.332 . S
C843 C849 1.504 . S
C844 C845 1.373 . S
C844 C848 1.308 . S
C845 C844 1.373 . S
C845 C846 1.429 . S
C845 H872 0.932 . S
C846 C843 1.358 . S
C846 C845 1.429 . S
C846 H873 0.930 . S
C847 C843 1.332 . S
C847 C848 1.394 . S
C847 H874 0.932 . S
C848 C844 1.308 . S
C848 C847 1.394 . S
C848 H875 0.929 . S
C849 Tb840 2.764 . S
C849 C843 1.504 . S
C849 O861 1.239 . S
C849 O862 1.263 . S
O850 Tb840 2.325 . S
O850 C860 1.236 . S
O851 Tb841 2.322 . S
O851 C860 1.257 . S
O852 Tb841 2.349 . S
O852 C863 1.261 . S
O853 Tb840 2.303 . S
O853 C863 1.257 . S
O854 Tb841 2.415 . S
O854 C870 1.239 . S
O855 Tb841 2.399 . S
O855 C870 1.263 . S
O856 Tb841 2.325 . S
O856 C871 1.236 . S
O857 Tb840 2.322 . S
O857 C871 1.257 . S
O858 Tb840 2.349 . S
O858 C842 1.261 . S
O859 Tb841 2.303 . S
O859 C842 1.257 . S
C860 O850 1.236 . S
C860 O851 1.257 . S
O861 Tb840 2.415 . S
O861 C849 1.239 . S
O862 Tb840 2.399 . S
O862 C849 1.263 . S
C863 O852 1.261 . S
C863 O853 1.257 . S
C864 C867 1.358 . S
C864 C868 1.332 . S
C864 C870 1.504 1_556 S
C865 C866 1.373 . S
C865 C869 1.308 . S
C866 C865 1.373 . S
C866 C867 1.429 . S
C866 H876 0.932 . S
C867 C864 1.358 . S
C867 C866 1.429 . S
C867 H877 0.930 . S
C868 C864 1.332 . S
C868 C869 1.394 . S
C868 H878 0.932 . S
C869 C865 1.308 . S
C869 C868 1.394 . S
C869 H879 0.929 . S
C870 Tb841 2.764 . S
C870 O854 1.239 . S
C870 O855 1.263 . S
C870 C864 1.504 1_554 S
C871 O856 1.236 . S
C871 O857 1.257 . S
H872 C845 0.932 . S
H873 C846 0.930 . S
H874 C847 0.932 . S
H875 C848 0.929 . S
H876 C866 0.932 . S
H877 C867 0.930 . S
H878 C868 0.932 . S
H879 C869 0.929 . S
Tb880 C889 2.764 . S
Tb880 O890 2.325 . S
Tb880 O893 2.303 . S
Tb880 O897 2.322 . S
Tb880 O898 2.349 . S
Tb880 O901 2.415 . S
Tb880 O902 2.399 . S
Tb881 O891 2.322 . S
Tb881 O892 2.349 . S
Tb881 O894 2.415 . S
Tb881 O895 2.399 . S
Tb881 O896 2.325 . S
Tb881 O899 2.303 . S
Tb881 C910 2.764 . S
C882 O898 1.261 . S
C882 O899 1.257 . S
C883 C886 1.358 . S
C883 C887 1.332 . S
C883 C889 1.504 . S
C884 C885 1.373 . S
C884 C888 1.308 . S
C885 C884 1.373 . S
C885 C886 1.429 . S
C885 H912 0.932 . S
C886 C883 1.358 . S
C886 C885 1.429 . S
C886 H913 0.930 . S
C887 C883 1.332 . S
C887 C888 1.394 . S
C887 H914 0.932 . S
C888 C884 1.308 . S
C888 C887 1.394 . S
C888 H915 0.929 . S
C889 Tb880 2.764 . S
C889 C883 1.504 . S
C889 O901 1.239 . S
C889 O902 1.263 . S
O890 Tb880 2.325 . S
O890 C900 1.236 . S
O891 Tb881 2.322 . S
O891 C900 1.257 . S
O892 Tb881 2.349 . S
O892 C903 1.261 . S
O893 Tb880 2.303 . S
O893 C903 1.257 . S
O894 Tb881 2.415 . S
O894 C910 1.239 . S
O895 Tb881 2.399 . S
O895 C910 1.263 . S
O896 Tb881 2.325 . S
O896 C911 1.236 . S
O897 Tb880 2.322 . S
O897 C911 1.257 . S
O898 Tb880 2.349 . S
O898 C882 1.261 . S
O899 Tb881 2.303 . S
O899 C882 1.257 . S
C900 O890 1.236 . S
C900 O891 1.257 . S
O901 Tb880 2.415 . S
O901 C889 1.239 . S
O902 Tb880 2.399 . S
O902 C889 1.263 . S
C903 O892 1.261 . S
C903 O893 1.257 . S
C904 C907 1.358 . S
C904 C908 1.332 . S
C904 C910 1.504 . S
C905 C906 1.373 . S
C905 C909 1.308 . S
C906 C905 1.373 . S
C906 C907 1.429 . S
C906 H916 0.932 . S
C907 C904 1.358 . S
C907 C906 1.429 . S
C907 H917 0.930 . S
C908 C904 1.332 . S
C908 C909 1.394 . S
C908 H918 0.932 . S
C909 C905 1.308 . S
C909 C908 1.394 . S
C909 H919 0.929 . S
C910 Tb881 2.764 . S
C910 O894 1.239 . S
C910 O895 1.263 . S
C910 C904 1.504 . S
C911 O896 1.236 . S
C911 O897 1.257 . S
H912 C885 0.932 . S
H913 C886 0.930 . S
H914 C887 0.932 . S
H915 C888 0.929 . S
H916 C906 0.932 . S
H917 C907 0.930 . S
H918 C908 0.932 . S
H919 C909 0.929 . S
Tb920 C929 2.764 . S
Tb920 O930 2.325 . S
Tb920 O933 2.303 . S
Tb920 O937 2.322 . S
Tb920 O938 2.349 . S
Tb920 O941 2.415 . S
Tb920 O942 2.399 . S
Tb921 O931 2.322 . S
Tb921 O932 2.349 . S
Tb921 O934 2.415 . S
Tb921 O935 2.399 . S
Tb921 O936 2.325 . S
Tb921 O939 2.303 . S
Tb921 C950 2.764 . S
C922 O938 1.261 . S
C922 O939 1.257 . S
C923 C926 1.358 . S
C923 C927 1.332 . S
C923 C929 1.504 . S
C924 C925 1.373 . S
C924 C928 1.308 . S
C925 C924 1.373 . S
C925 C926 1.429 . S
C925 H952 0.932 . S
C926 C923 1.358 . S
C926 C925 1.429 . S
C926 H953 0.930 . S
C927 C923 1.332 . S
C927 C928 1.394 . S
C927 H954 0.932 . S
C928 C924 1.308 . S
C928 C927 1.394 . S
C928 H955 0.929 . S
C929 Tb920 2.764 . S
C929 C923 1.504 . S
C929 O941 1.239 . S
C929 O942 1.263 . S
O930 Tb920 2.325 . S
O930 C940 1.236 . S
O931 Tb921 2.322 . S
O931 C940 1.257 . S
O932 Tb921 2.349 . S
O932 C943 1.261 . S
O933 Tb920 2.303 . S
O933 C943 1.257 . S
O934 Tb921 2.415 . S
O934 C950 1.239 . S
O935 Tb921 2.399 . S
O935 C950 1.263 . S
O936 Tb921 2.325 . S
O936 C951 1.236 . S
O937 Tb920 2.322 . S
O937 C951 1.257 . S
O938 Tb920 2.349 . S
O938 C922 1.261 . S
O939 Tb921 2.303 . S
O939 C922 1.257 . S
C940 O930 1.236 . S
C940 O931 1.257 . S
O941 Tb920 2.415 . S
O941 C929 1.239 . S
O942 Tb920 2.399 . S
O942 C929 1.263 . S
C943 O932 1.261 . S
C943 O933 1.257 . S
C944 C947 1.358 . S
C944 C948 1.332 . S
C944 C950 1.504 . S
C945 C946 1.373 . S
C945 C949 1.308 . S
C946 C945 1.373 . S
C946 C947 1.429 . S
C946 H956 0.932 . S
C947 C944 1.358 . S
C947 C946 1.429 . S
C947 H957 0.930 . S
C948 C944 1.332 . S
C948 C949 1.394 . S
C948 H958 0.932 . S
C949 C945 1.308 . S
C949 C948 1.394 . S
C949 H959 0.929 . S
C950 Tb921 2.764 . S
C950 O934 1.239 . S
C950 O935 1.263 . S
C950 C944 1.504 . S
C951 O936 1.236 . S
C951 O937 1.257 . S
H952 C925 0.932 . S
H953 C926 0.930 . S
H954 C927 0.932 . S
H955 C928 0.929 . S
H956 C946 0.932 . S
H957 C947 0.930 . S
H958 C948 0.932 . S
H959 C949 0.929 . S
H960 C972 0.930 . S
H961 C974 0.930 . S
H962 C975 0.930 . S
H963 C979 0.959 . S
H964 C979 0.959 . S
H965 C979 0.961 . S
H966 C980 0.960 . S
H967 C980 0.961 . S
H968 C980 0.959 . S
H969 C983 0.929 . S
H970 C984 0.931 . S
H971 C986 0.930 . S
C972 H960 0.930 . S
C972 C973 1.399 . S
C972 C977 1.399 . S
C973 C972 1.399 . S
C973 C974 1.376 . S
C974 H961 0.930 . S
C974 C973 1.376 . S
C974 C975 1.388 . S
C975 H962 0.930 . S
C975 C974 1.388 . S
C975 C976 1.390 . S
C976 C975 1.390 . S
C976 C977 1.394 . S
C976 C982 1.465 . S
C977 C972 1.399 . S
C977 C976 1.394 . S
C977 C978 1.516 . S
C978 C977 1.516 . S
C978 C979 1.502 . S
C978 C980 1.561 . S
C978 C981 1.526 . S
C979 H963 0.959 . S
C979 H964 0.959 . S
C979 H965 0.961 . S
C979 C978 1.502 . S
C980 H966 0.960 . S
C980 H967 0.961 . S
C980 H968 0.959 . S
C980 C978 1.561 . S
C981 C978 1.526 . S
C981 C982 1.396 . S
C981 C986 1.390 . S
C982 C976 1.465 . S
C982 C981 1.396 . S
C982 C983 1.399 . S
C983 H969 0.929 . S
C983 C982 1.399 . S
C983 C984 1.385 . S
C984 H970 0.931 . S
C984 C983 1.385 . S
C984 C985 1.389 . S
C985 C984 1.389 . S
C985 C986 1.387 . S
C986 H971 0.930 . S
C986 C981 1.390 . S
C986 C985 1.387 . S
H987 C999 0.930 . S
H988 C1001 0.930 . S
H989 C1002 0.930 . S
H990 C1006 0.959 . S
H991 C1006 0.959 . S
H992 C1006 0.961 . S
H993 C1007 0.960 . S
H994 C1007 0.961 . S
H995 C1007 0.959 . S
H996 C1010 0.929 . S
H997 C1011 0.931 . S
H998 C1013 0.930 . S
C999 H987 0.930 . S
C999 C1000 1.399 . S
C999 C1004 1.399 . S
C1000 C999 1.399 . S
C1000 C1001 1.376 . S
C1001 H988 0.930 . S
C1001 C1000 1.376 . S
C1001 C1002 1.388 . S
C1002 H989 0.930 . S
C1002 C1001 1.388 . S
C1002 C1003 1.390 . S
C1003 C1002 1.390 . S
C1003 C1004 1.394 . S
C1003 C1009 1.465 . S
C1004 C999 1.399 . S
C1004 C1003 1.394 . S
C1004 C1005 1.516 . S
C1005 C1004 1.516 . S
C1005 C1006 1.502 . S
C1005 C1007 1.561 . S
C1005 C1008 1.526 . S
C1006 H990 0.959 . S
C1006 H991 0.959 . S
C1006 H992 0.961 . S
C1006 C1005 1.502 . S
C1007 H993 0.960 . S
C1007 H994 0.961 . S
C1007 H995 0.959 . S
C1007 C1005 1.561 . S
C1008 C1005 1.526 . S
C1008 C1009 1.396 . S
C1008 C1013 1.390 . S
C1009 C1003 1.465 . S
C1009 C1008 1.396 . S
C1009 C1010 1.399 . S
C1010 H996 0.929 . S
C1010 C1009 1.399 . S
C1010 C1011 1.385 . S
C1011 H997 0.931 . S
C1011 C1010 1.385 . S
C1011 C1012 1.389 . S
C1012 C1011 1.389 . S
C1012 C1013 1.387 . S
C1013 H998 0.930 . S
C1013 C1008 1.390 . S
C1013 C1012 1.387 . S
H1014 C1026 0.930 . S
H1015 C1028 0.930 . S
H1016 C1029 0.930 . S
H1017 C1033 0.959 . S
H1018 C1033 0.959 . S
H1019 C1033 0.961 . S
H1020 C1034 0.960 . S
H1021 C1034 0.961 . S
H1022 C1034 0.959 . S
H1023 C1037 0.929 . S
H1024 C1038 0.931 . S
H1025 C1040 0.930 . S
C1026 H1014 0.930 . S
C1026 C1027 1.399 . S
C1026 C1031 1.399 . S
C1027 C1026 1.399 . S
C1027 C1028 1.376 . S
C1028 H1015 0.930 . S
C1028 C1027 1.376 . S
C1028 C1029 1.388 . S
C1029 H1016 0.930 . S
C1029 C1028 1.388 . S
C1029 C1030 1.390 . S
C1030 C1029 1.390 . S
C1030 C1031 1.394 . S
C1030 C1036 1.465 . S
C1031 C1026 1.399 . S
C1031 C1030 1.394 . S
C1031 C1032 1.516 . S
C1032 C1031 1.516 . S
C1032 C1033 1.502 . S
C1032 C1034 1.561 . S
C1032 C1035 1.526 . S
C1033 H1017 0.959 . S
C1033 H1018 0.959 . S
C1033 H1019 0.961 . S
C1033 C1032 1.502 . S
C1034 H1020 0.960 . S
C1034 H1021 0.961 . S
C1034 H1022 0.959 . S
C1034 C1032 1.561 . S
C1035 C1032 1.526 . S
C1035 C1036 1.396 . S
C1035 C1040 1.390 . S
C1036 C1030 1.465 . S
C1036 C1035 1.396 . S
C1036 C1037 1.399 . S
C1037 H1023 0.929 . S
C1037 C1036 1.399 . S
C1037 C1038 1.385 . S
C1038 H1024 0.931 . S
C1038 C1037 1.385 . S
C1038 C1039 1.389 . S
C1039 C1038 1.389 . S
C1039 C1040 1.387 . S
C1040 H1025 0.930 . S
C1040 C1035 1.390 . S
C1040 C1039 1.387 . S
H1041 C1053 0.930 . S
H1042 C1055 0.930 . S
H1043 C1056 0.930 . S
H1044 C1060 0.959 . S
H1045 C1060 0.959 . S
H1046 C1060 0.961 . S
H1047 C1061 0.960 . S
H1048 C1061 0.961 . S
H1049 C1061 0.959 . S
H1050 C1064 0.929 . S
H1051 C1065 0.931 . S
H1052 C1067 0.930 . S
C1053 H1041 0.930 . S
C1053 C1054 1.399 . S
C1053 C1058 1.399 . S
C1054 C1053 1.399 . S
C1054 C1055 1.376 . S
C1055 H1042 0.930 . S
C1055 C1054 1.376 . S
C1055 C1056 1.388 . S
C1056 H1043 0.930 . S
C1056 C1055 1.388 . S
C1056 C1057 1.390 . S
C1057 C1056 1.390 . S
C1057 C1058 1.394 . S
C1057 C1063 1.465 . S
C1058 C1053 1.399 . S
C1058 C1057 1.394 . S
C1058 C1059 1.516 . S
C1059 C1058 1.516 . S
C1059 C1060 1.502 . S
C1059 C1061 1.561 . S
C1059 C1062 1.526 . S
C1060 H1044 0.959 . S
C1060 H1045 0.959 . S
C1060 H1046 0.961 . S
C1060 C1059 1.502 . S
C1061 H1047 0.960 . S
C1061 H1048 0.961 . S
C1061 H1049 0.959 . S
C1061 C1059 1.561 . S
C1062 C1059 1.526 . S
C1062 C1063 1.396 . S
C1062 C1067 1.390 . S
C1063 C1057 1.465 . S
C1063 C1062 1.396 . S
C1063 C1064 1.399 . S
C1064 H1050 0.929 . S
C1064 C1063 1.399 . S
C1064 C1065 1.385 . S
C1065 H1051 0.931 . S
C1065 C1064 1.385 . S
C1065 C1066 1.389 . S
C1066 C1065 1.389 . S
C1066 C1067 1.387 . S
C1067 H1052 0.930 . S
C1067 C1062 1.390 . S
C1067 C1066 1.387 . S
H1068 C1080 0.930 . S
H1069 C1082 0.930 . S
H1070 C1083 0.930 . S
H1071 C1087 0.959 . S
H1072 C1087 0.959 . S
H1073 C1087 0.961 . S
H1074 C1088 0.960 . S
H1075 C1088 0.961 . S
H1076 C1088 0.959 . S
H1077 C1091 0.929 . S
H1078 C1092 0.931 . S
H1079 C1094 0.930 . S
C1080 H1068 0.930 . S
C1080 C1081 1.399 . S
C1080 C1085 1.399 . S
C1081 C1080 1.399 . S
C1081 C1082 1.376 . S
C1082 H1069 0.930 . S
C1082 C1081 1.376 . S
C1082 C1083 1.388 . S
C1083 H1070 0.930 . S
C1083 C1082 1.388 . S
C1083 C1084 1.390 . S
C1084 C1083 1.390 . S
C1084 C1085 1.394 . S
C1084 C1090 1.465 . S
C1085 C1080 1.399 . S
C1085 C1084 1.394 . S
C1085 C1086 1.516 . S
C1086 C1085 1.516 . S
C1086 C1087 1.502 . S
C1086 C1088 1.561 . S
C1086 C1089 1.526 . S
C1087 H1071 0.959 . S
C1087 H1072 0.959 . S
C1087 H1073 0.961 . S
C1087 C1086 1.502 . S
C1088 H1074 0.960 . S
C1088 H1075 0.961 . S
C1088 H1076 0.959 . S
C1088 C1086 1.561 . S
C1089 C1086 1.526 . S
C1089 C1090 1.396 . S
C1089 C1094 1.390 . S
C1090 C1084 1.465 . S
C1090 C1089 1.396 . S
C1090 C1091 1.399 . S
C1091 H1077 0.929 . S
C1091 C1090 1.399 . S
C1091 C1092 1.385 . S
C1092 H1078 0.931 . S
C1092 C1091 1.385 . S
C1092 C1093 1.389 . S
C1093 C1092 1.389 . S
C1093 C1094 1.387 . S
C1094 H1079 0.930 . S
C1094 C1089 1.390 . S
C1094 C1093 1.387 . S
H1095 C1107 0.930 . S
H1096 C1109 0.930 . S
H1097 C1110 0.930 . S
H1098 C1114 0.959 . S
H1099 C1114 0.959 . S
H1100 C1114 0.961 . S
H1101 C1115 0.960 . S
H1102 C1115 0.961 . S
H1103 C1115 0.959 . S
H1104 C1118 0.929 . S
H1105 C1119 0.931 . S
H1106 C1121 0.930 . S
C1107 H1095 0.930 . S
C1107 C1108 1.399 . S
C1107 C1112 1.399 . S
C1108 C1107 1.399 . S
C1108 C1109 1.376 . S
C1109 H1096 0.930 . S
C1109 C1108 1.376 . S
C1109 C1110 1.388 . S
C1110 H1097 0.930 . S
C1110 C1109 1.388 . S
C1110 C1111 1.390 . S
C1111 C1110 1.390 . S
C1111 C1112 1.394 . S
C1111 C1117 1.465 . S
C1112 C1107 1.399 . S
C1112 C1111 1.394 . S
C1112 C1113 1.516 . S
C1113 C1112 1.516 . S
C1113 C1114 1.502 . S
C1113 C1115 1.561 . S
C1113 C1116 1.526 . S
C1114 H1098 0.959 . S
C1114 H1099 0.959 . S
C1114 H1100 0.961 . S
C1114 C1113 1.502 . S
C1115 H1101 0.960 . S
C1115 H1102 0.961 . S
C1115 H1103 0.959 . S
C1115 C1113 1.561 . S
C1116 C1113 1.526 . S
C1116 C1117 1.396 . S
C1116 C1121 1.390 . S
C1117 C1111 1.465 . S
C1117 C1116 1.396 . S
C1117 C1118 1.399 . S
C1118 H1104 0.929 . S
C1118 C1117 1.399 . S
C1118 C1119 1.385 . S
C1119 H1105 0.931 . S
C1119 C1118 1.385 . S
C1119 C1120 1.389 . S
C1120 C1119 1.389 . S
C1120 C1121 1.387 . S
C1121 H1106 0.930 . S
C1121 C1116 1.390 . S
C1121 C1120 1.387 . S
H1122 C1134 0.930 . S
H1123 C1136 0.930 . S
H1124 C1137 0.930 . S
H1125 C1141 0.959 . S
H1126 C1141 0.959 . S
H1127 C1141 0.961 . S
H1128 C1142 0.960 . S
H1129 C1142 0.961 . S
H1130 C1142 0.959 . S
H1131 C1145 0.929 . S
H1132 C1146 0.931 . S
H1133 C1148 0.930 . S
C1134 H1122 0.930 . S
C1134 C1135 1.399 . S
C1134 C1139 1.399 . S
C1135 C1134 1.399 . S
C1135 C1136 1.376 . S
C1136 H1123 0.930 . S
C1136 C1135 1.376 . S
C1136 C1137 1.388 . S
C1137 H1124 0.930 . S
C1137 C1136 1.388 . S
C1137 C1138 1.390 . S
C1138 C1137 1.390 . S
C1138 C1139 1.394 . S
C1138 C1144 1.465 . S
C1139 C1134 1.399 . S
C1139 C1138 1.394 . S
C1139 C1140 1.516 . S
C1140 C1139 1.516 . S
C1140 C1141 1.502 . S
C1140 C1142 1.561 . S
C1140 C1143 1.526 . S
C1141 H1125 0.959 . S
C1141 H1126 0.959 . S
C1141 H1127 0.961 . S
C1141 C1140 1.502 . S
C1142 H1128 0.960 . S
C1142 H1129 0.961 . S
C1142 H1130 0.959 . S
C1142 C1140 1.561 . S
C1143 C1140 1.526 . S
C1143 C1144 1.396 . S
C1143 C1148 1.390 . S
C1144 C1138 1.465 . S
C1144 C1143 1.396 . S
C1144 C1145 1.399 . S
C1145 H1131 0.929 . S
C1145 C1144 1.399 . S
C1145 C1146 1.385 . S
C1146 H1132 0.931 . S
C1146 C1145 1.385 . S
C1146 C1147 1.389 . S
C1147 C1146 1.389 . S
C1147 C1148 1.387 . S
C1148 H1133 0.930 . S
C1148 C1143 1.390 . S
C1148 C1147 1.387 . S
H1149 C1161 0.930 . S
H1150 C1163 0.930 . S
H1151 C1164 0.930 . S
H1152 C1168 0.959 . S
H1153 C1168 0.959 . S
H1154 C1168 0.961 . S
H1155 C1169 0.960 . S
H1156 C1169 0.961 . S
H1157 C1169 0.959 . S
H1158 C1172 0.929 . S
H1159 C1173 0.931 . S
H1160 C1175 0.930 . S
C1161 H1149 0.930 . S
C1161 C1162 1.399 . S
C1161 C1166 1.399 . S
C1162 C1161 1.399 . S
C1162 C1163 1.376 . S
C1163 H1150 0.930 . S
C1163 C1162 1.376 . S
C1163 C1164 1.388 . S
C1164 H1151 0.930 . S
C1164 C1163 1.388 . S
C1164 C1165 1.390 . S
C1165 C1164 1.390 . S
C1165 C1166 1.394 . S
C1165 C1171 1.465 . S
C1166 C1161 1.399 . S
C1166 C1165 1.394 . S
C1166 C1167 1.516 . S
C1167 C1166 1.516 . S
C1167 C1168 1.502 . S
C1167 C1169 1.561 . S
C1167 C1170 1.526 . S
C1168 H1152 0.959 . S
C1168 H1153 0.959 . S
C1168 H1154 0.961 . S
C1168 C1167 1.502 . S
C1169 H1155 0.960 . S
C1169 H1156 0.961 . S
C1169 H1157 0.959 . S
C1169 C1167 1.561 . S
C1170 C1167 1.526 . S
C1170 C1171 1.396 . S
C1170 C1175 1.390 . S
C1171 C1165 1.465 . S
C1171 C1170 1.396 . S
C1171 C1172 1.399 . S
C1172 H1158 0.929 . S
C1172 C1171 1.399 . S
C1172 C1173 1.385 . S
C1173 H1159 0.931 . S
C1173 C1172 1.385 . S
C1173 C1174 1.389 . S
C1174 C1173 1.389 . S
C1174 C1175 1.387 . S
C1175 H1160 0.930 . S
C1175 C1170 1.390 . S
C1175 C1174 1.387 . S
H1176 C1188 0.930 . S
H1177 C1190 0.930 . S
H1178 C1191 0.930 . S
H1179 C1195 0.959 . S
H1180 C1195 0.959 . S
H1181 C1195 0.961 . S
H1182 C1196 0.960 . S
H1183 C1196 0.961 . S
H1184 C1196 0.959 . S
H1185 C1199 0.929 . S
H1186 C1200 0.931 . S
H1187 C1202 0.930 . S
C1188 H1176 0.930 . S
C1188 C1189 1.399 . S
C1188 C1193 1.399 . S
C1189 C1188 1.399 . S
C1189 C1190 1.376 . S
C1190 H1177 0.930 . S
C1190 C1189 1.376 . S
C1190 C1191 1.388 . S
C1191 H1178 0.930 . S
C1191 C1190 1.388 . S
C1191 C1192 1.390 . S
C1192 C1191 1.390 . S
C1192 C1193 1.394 . S
C1192 C1198 1.465 . S
C1193 C1188 1.399 . S
C1193 C1192 1.394 . S
C1193 C1194 1.516 . S
C1194 C1193 1.516 . S
C1194 C1195 1.502 . S
C1194 C1196 1.561 . S
C1194 C1197 1.526 . S
C1195 H1179 0.959 . S
C1195 H1180 0.959 . S
C1195 H1181 0.961 . S
C1195 C1194 1.502 . S
C1196 H1182 0.960 . S
C1196 H1183 0.961 . S
C1196 H1184 0.959 . S
C1196 C1194 1.561 . S
C1197 C1194 1.526 . S
C1197 C1198 1.396 . S
C1197 C1202 1.390 . S
C1198 C1192 1.465 . S
C1198 C1197 1.396 . S
C1198 C1199 1.399 . S
C1199 H1185 0.929 . S
C1199 C1198 1.399 . S
C1199 C1200 1.385 . S
C1200 H1186 0.931 . S
C1200 C1199 1.385 . S
C1200 C1201 1.389 . S
C1201 C1200 1.389 . S
C1201 C1202 1.387 . S
C1202 H1187 0.930 . S
C1202 C1197 1.390 . S
C1202 C1201 1.387 . S
H1203 C1215 0.930 . S
H1204 C1217 0.930 . S
H1205 C1218 0.930 . S
H1206 C1222 0.959 . S
H1207 C1222 0.959 . S
H1208 C1222 0.961 . S
H1209 C1223 0.960 . S
H1210 C1223 0.961 . S
H1211 C1223 0.959 . S
H1212 C1226 0.929 . S
H1213 C1227 0.931 . S
H1214 C1229 0.930 . S
C1215 H1203 0.930 . S
C1215 C1216 1.399 . S
C1215 C1220 1.399 . S
C1216 C1215 1.399 . S
C1216 C1217 1.376 . S
C1217 H1204 0.930 . S
C1217 C1216 1.376 . S
C1217 C1218 1.388 . S
C1218 H1205 0.930 . S
C1218 C1217 1.388 . S
C1218 C1219 1.390 . S
C1219 C1218 1.390 . S
C1219 C1220 1.394 . S
C1219 C1225 1.465 . S
C1220 C1215 1.399 . S
C1220 C1219 1.394 . S
C1220 C1221 1.516 . S
C1221 C1220 1.516 . S
C1221 C1222 1.502 . S
C1221 C1223 1.561 . S
C1221 C1224 1.526 . S
C1222 H1206 0.959 . S
C1222 H1207 0.959 . S
C1222 H1208 0.961 . S
C1222 C1221 1.502 . S
C1223 H1209 0.960 . S
C1223 H1210 0.961 . S
C1223 H1211 0.959 . S
C1223 C1221 1.561 . S
C1224 C1221 1.526 . S
C1224 C1225 1.396 . S
C1224 C1229 1.390 . S
C1225 C1219 1.465 . S
C1225 C1224 1.396 . S
C1225 C1226 1.399 . S
C1226 H1212 0.929 . S
C1226 C1225 1.399 . S
C1226 C1227 1.385 . S
C1227 H1213 0.931 . S
C1227 C1226 1.385 . S
C1227 C1228 1.389 . S
C1228 C1227 1.389 . S
C1228 C1229 1.387 . S
C1229 H1214 0.930 . S
C1229 C1224 1.390 . S
C1229 C1228 1.387 . S
H1230 C1242 0.930 . S
H1231 C1244 0.930 . S
H1232 C1245 0.930 . S
H1233 C1249 0.959 . S
H1234 C1249 0.959 . S
H1235 C1249 0.961 . S
H1236 C1250 0.960 . S
H1237 C1250 0.961 . S
H1238 C1250 0.959 . S
H1239 C1253 0.929 . S
H1240 C1254 0.931 . S
H1241 C1256 0.930 . S
C1242 H1230 0.930 . S
C1242 C1243 1.399 . S
C1242 C1247 1.399 . S
C1243 C1242 1.399 . S
C1243 C1244 1.376 . S
C1244 H1231 0.930 . S
C1244 C1243 1.376 . S
C1244 C1245 1.388 . S
C1245 H1232 0.930 . S
C1245 C1244 1.388 . S
C1245 C1246 1.390 . S
C1246 C1245 1.390 . S
C1246 C1247 1.394 . S
C1246 C1252 1.465 . S
C1247 C1242 1.399 . S
C1247 C1246 1.394 . S
C1247 C1248 1.516 . S
C1248 C1247 1.516 . S
C1248 C1249 1.502 . S
C1248 C1250 1.561 . S
C1248 C1251 1.526 . S
C1249 H1233 0.959 . S
C1249 H1234 0.959 . S
C1249 H1235 0.961 . S
C1249 C1248 1.502 . S
C1250 H1236 0.960 . S
C1250 H1237 0.961 . S
C1250 H1238 0.959 . S
C1250 C1248 1.561 . S
C1251 C1248 1.526 . S
C1251 C1252 1.396 . S
C1251 C1256 1.390 . S
C1252 C1246 1.465 . S
C1252 C1251 1.396 . S
C1252 C1253 1.399 . S
C1253 H1239 0.929 . S
C1253 C1252 1.399 . S
C1253 C1254 1.385 . S
C1254 H1240 0.931 . S
C1254 C1253 1.385 . S
C1254 C1255 1.389 . S
C1255 C1254 1.389 . S
C1255 C1256 1.387 . S
C1256 H1241 0.930 . S
C1256 C1251 1.390 . S
C1256 C1255 1.387 . S
H1257 C1269 0.930 . S
H1258 C1271 0.930 . S
H1259 C1272 0.930 . S
H1260 C1276 0.959 . S
H1261 C1276 0.959 . S
H1262 C1276 0.961 . S
H1263 C1277 0.960 . S
H1264 C1277 0.961 . S
H1265 C1277 0.959 . S
H1266 C1280 0.929 . S
H1267 C1281 0.931 . S
H1268 C1283 0.930 . S
C1269 H1257 0.930 . S
C1269 C1270 1.399 . S
C1269 C1274 1.399 . S
C1270 C1269 1.399 . S
C1270 C1271 1.376 . S
C1271 H1258 0.930 . S
C1271 C1270 1.376 . S
C1271 C1272 1.388 . S
C1272 H1259 0.930 . S
C1272 C1271 1.388 . S
C1272 C1273 1.390 . S
C1273 C1272 1.390 . S
C1273 C1274 1.394 . S
C1273 C1279 1.465 . S
C1274 C1269 1.399 . S
C1274 C1273 1.394 . S
C1274 C1275 1.516 . S
C1275 C1274 1.516 . S
C1275 C1276 1.502 . S
C1275 C1277 1.561 . S
C1275 C1278 1.526 . S
C1276 H1260 0.959 . S
C1276 H1261 0.959 . S
C1276 H1262 0.961 . S
C1276 C1275 1.502 . S
C1277 H1263 0.960 . S
C1277 H1264 0.961 . S
C1277 H1265 0.959 . S
C1277 C1275 1.561 . S
C1278 C1275 1.526 . S
C1278 C1279 1.396 . S
C1278 C1283 1.390 . S
C1279 C1273 1.465 . S
C1279 C1278 1.396 . S
C1279 C1280 1.399 . S
C1280 H1266 0.929 . S
C1280 C1279 1.399 . S
C1280 C1281 1.385 . S
C1281 H1267 0.931 . S
C1281 C1280 1.385 . S
C1281 C1282 1.389 . S
C1282 C1281 1.389 . S
C1282 C1283 1.387 . S
C1283 H1268 0.930 . S
C1283 C1278 1.390 . S
C1283 C1282 1.387 . S
H1284 C1296 0.930 . S
H1285 C1298 0.930 . S
H1286 C1299 0.930 . S
H1287 C1303 0.959 . S
H1288 C1303 0.959 . S
H1289 C1303 0.961 . S
H1290 C1304 0.960 . S
H1291 C1304 0.961 . S
H1292 C1304 0.959 . S
H1293 C1307 0.929 . S
H1294 C1308 0.931 . S
H1295 C1310 0.930 . S
C1296 H1284 0.930 . S
C1296 C1297 1.399 . S
C1296 C1301 1.399 . S
C1297 C1296 1.399 . S
C1297 C1298 1.376 . S
C1298 H1285 0.930 . S
C1298 C1297 1.376 . S
C1298 C1299 1.388 . S
C1299 H1286 0.930 . S
C1299 C1298 1.388 . S
C1299 C1300 1.390 . S
C1300 C1299 1.390 . S
C1300 C1301 1.394 . S
C1300 C1306 1.465 . S
C1301 C1296 1.399 . S
C1301 C1300 1.394 . S
C1301 C1302 1.516 . S
C1302 C1301 1.516 . S
C1302 C1303 1.502 . S
C1302 C1304 1.561 . S
C1302 C1305 1.526 . S
C1303 H1287 0.959 . S
C1303 H1288 0.959 . S
C1303 H1289 0.961 . S
C1303 C1302 1.502 . S
C1304 H1290 0.960 . S
C1304 H1291 0.961 . S
C1304 H1292 0.959 . S
C1304 C1302 1.561 . S
C1305 C1302 1.526 . S
C1305 C1306 1.396 . S
C1305 C1310 1.390 . S
C1306 C1300 1.465 . S
C1306 C1305 1.396 . S
C1306 C1307 1.399 . S
C1307 H1293 0.929 . S
C1307 C1306 1.399 . S
C1307 C1308 1.385 . S
C1308 H1294 0.931 . S
C1308 C1307 1.385 . S
C1308 C1309 1.389 . S
C1309 C1308 1.389 . S
C1309 C1310 1.387 . S
C1310 H1295 0.930 . S
C1310 C1305 1.390 . S
C1310 C1309 1.387 . S
H1311 C1323 0.930 . S
H1312 C1325 0.930 . S
H1313 C1326 0.930 . S
H1314 C1330 0.959 . S
H1315 C1330 0.959 . S
H1316 C1330 0.961 . S
H1317 C1331 0.960 . S
H1318 C1331 0.961 . S
H1319 C1331 0.959 . S
H1320 C1334 0.929 . S
H1321 C1335 0.931 . S
H1322 C1337 0.930 . S
C1323 H1311 0.930 . S
C1323 C1324 1.399 . S
C1323 C1328 1.399 . S
C1324 C1323 1.399 . S
C1324 C1325 1.376 . S
C1325 H1312 0.930 . S
C1325 C1324 1.376 . S
C1325 C1326 1.388 . S
C1326 H1313 0.930 . S
C1326 C1325 1.388 . S
C1326 C1327 1.390 . S
C1327 C1326 1.390 . S
C1327 C1328 1.394 . S
C1327 C1333 1.465 . S
C1328 C1323 1.399 . S
C1328 C1327 1.394 . S
C1328 C1329 1.516 . S
C1329 C1328 1.516 . S
C1329 C1330 1.502 . S
C1329 C1331 1.561 . S
C1329 C1332 1.526 . S
C1330 H1314 0.959 . S
C1330 H1315 0.959 . S
C1330 H1316 0.961 . S
C1330 C1329 1.502 . S
C1331 H1317 0.960 . S
C1331 H1318 0.961 . S
C1331 H1319 0.959 . S
C1331 C1329 1.561 . S
C1332 C1329 1.526 . S
C1332 C1333 1.396 . S
C1332 C1337 1.390 . S
C1333 C1327 1.465 . S
C1333 C1332 1.396 . S
C1333 C1334 1.399 . S
C1334 H1320 0.929 . S
C1334 C1333 1.399 . S
C1334 C1335 1.385 . S
C1335 H1321 0.931 . S
C1335 C1334 1.385 . S
C1335 C1336 1.389 . S
C1336 C1335 1.389 . S
C1336 C1337 1.387 . S
C1337 H1322 0.930 . S
C1337 C1332 1.390 . S
C1337 C1336 1.387 . S
H1338 C1350 0.930 . S
H1339 C1352 0.930 . S
H1340 C1353 0.930 . S
H1341 C1357 0.959 . S
H1342 C1357 0.959 . S
H1343 C1357 0.961 . S
H1344 C1358 0.960 . S
H1345 C1358 0.961 . S
H1346 C1358 0.959 . S
H1347 C1361 0.929 . S
H1348 C1362 0.931 . S
H1349 C1364 0.930 . S
C1350 H1338 0.930 . S
C1350 C1351 1.399 . S
C1350 C1355 1.399 . S
C1351 C1350 1.399 . S
C1351 C1352 1.376 . S
C1352 H1339 0.930 . S
C1352 C1351 1.376 . S
C1352 C1353 1.388 . S
C1353 H1340 0.930 . S
C1353 C1352 1.388 . S
C1353 C1354 1.390 . S
C1354 C1353 1.390 . S
C1354 C1355 1.394 . S
C1354 C1360 1.465 . S
C1355 C1350 1.399 . S
C1355 C1354 1.394 . S
C1355 C1356 1.516 . S
C1356 C1355 1.516 . S
C1356 C1357 1.502 . S
C1356 C1358 1.561 . S
C1356 C1359 1.526 . S
C1357 H1341 0.959 . S
C1357 H1342 0.959 . S
C1357 H1343 0.961 . S
C1357 C1356 1.502 . S
C1358 H1344 0.960 . S
C1358 H1345 0.961 . S
C1358 H1346 0.959 . S
C1358 C1356 1.561 . S
C1359 C1356 1.526 . S
C1359 C1360 1.396 . S
C1359 C1364 1.390 . S
C1360 C1354 1.465 . S
C1360 C1359 1.396 . S
C1360 C1361 1.399 . S
C1361 H1347 0.929 . S
C1361 C1360 1.399 . S
C1361 C1362 1.385 . S
C1362 H1348 0.931 . S
C1362 C1361 1.385 . S
C1362 C1363 1.389 . S
C1363 C1362 1.389 . S
C1363 C1364 1.387 . S
C1364 H1349 0.930 . S
C1364 C1359 1.390 . S
C1364 C1363 1.387 . S
H1365 C1377 0.930 . S
H1366 C1379 0.930 . S
H1367 C1380 0.930 . S
H1368 C1384 0.959 . S
H1369 C1384 0.959 . S
H1370 C1384 0.961 . S
H1371 C1385 0.960 . S
H1372 C1385 0.961 . S
H1373 C1385 0.959 . S
H1374 C1388 0.929 . S
H1375 C1389 0.931 . S
H1376 C1391 0.930 . S
C1377 H1365 0.930 . S
C1377 C1378 1.399 . S
C1377 C1382 1.399 . S
C1378 C1377 1.399 . S
C1378 C1379 1.376 . S
C1379 H1366 0.930 . S
C1379 C1378 1.376 . S
C1379 C1380 1.388 . S
C1380 H1367 0.930 . S
C1380 C1379 1.388 . S
C1380 C1381 1.390 . S
C1381 C1380 1.390 . S
C1381 C1382 1.394 . S
C1381 C1387 1.465 . S
C1382 C1377 1.399 . S
C1382 C1381 1.394 . S
C1382 C1383 1.516 . S
C1383 C1382 1.516 . S
C1383 C1384 1.502 . S
C1383 C1385 1.561 . S
C1383 C1386 1.526 . S
C1384 H1368 0.959 . S
C1384 H1369 0.959 . S
C1384 H1370 0.961 . S
C1384 C1383 1.502 . S
C1385 H1371 0.960 . S
C1385 H1372 0.961 . S
C1385 H1373 0.959 . S
C1385 C1383 1.561 . S
C1386 C1383 1.526 . S
C1386 C1387 1.396 . S
C1386 C1391 1.390 . S
C1387 C1381 1.465 . S
C1387 C1386 1.396 . S
C1387 C1388 1.399 . S
C1388 H1374 0.929 . S
C1388 C1387 1.399 . S
C1388 C1389 1.385 . S
C1389 H1375 0.931 . S
C1389 C1388 1.385 . S
C1389 C1390 1.389 . S
C1390 C1389 1.389 . S
C1390 C1391 1.387 . S
C1391 H1376 0.930 . S
C1391 C1386 1.390 . S
C1391 C1390 1.387 . S
H1392 C1404 0.930 . S
H1393 C1406 0.930 . S
H1394 C1407 0.930 . S
H1395 C1411 0.959 . S
H1396 C1411 0.959 . S
H1397 C1411 0.961 . S
H1398 C1412 0.960 . S
H1399 C1412 0.961 . S
H1400 C1412 0.959 . S
H1401 C1415 0.929 . S
H1402 C1416 0.931 . S
H1403 C1418 0.930 . S
C1404 H1392 0.930 . S
C1404 C1405 1.399 . S
C1404 C1409 1.399 . S
C1405 C1404 1.399 . S
C1405 C1406 1.376 . S
C1406 H1393 0.930 . S
C1406 C1405 1.376 . S
C1406 C1407 1.388 . S
C1407 H1394 0.930 . S
C1407 C1406 1.388 . S
C1407 C1408 1.390 . S
C1408 C1407 1.390 . S
C1408 C1409 1.394 . S
C1408 C1414 1.465 . S
C1409 C1404 1.399 . S
C1409 C1408 1.394 . S
C1409 C1410 1.516 . S
C1410 C1409 1.516 . S
C1410 C1411 1.502 . S
C1410 C1412 1.561 . S
C1410 C1413 1.526 . S
C1411 H1395 0.959 . S
C1411 H1396 0.959 . S
C1411 H1397 0.961 . S
C1411 C1410 1.502 . S
C1412 H1398 0.960 . S
C1412 H1399 0.961 . S
C1412 H1400 0.959 . S
C1412 C1410 1.561 . S
C1413 C1410 1.526 . S
C1413 C1414 1.396 . S
C1413 C1418 1.390 . S
C1414 C1408 1.465 . S
C1414 C1413 1.396 . S
C1414 C1415 1.399 . S
C1415 H1401 0.929 . S
C1415 C1414 1.399 . S
C1415 C1416 1.385 . S
C1416 H1402 0.931 . S
C1416 C1415 1.385 . S
C1416 C1417 1.389 . S
C1417 C1416 1.389 . S
C1417 C1418 1.387 . S
C1418 H1403 0.930 . S
C1418 C1413 1.390 . S
C1418 C1417 1.387 . S
H1419 C1431 0.930 . S
H1420 C1433 0.930 . S
H1421 C1434 0.930 . S
H1422 C1438 0.959 . S
H1423 C1438 0.959 . S
H1424 C1438 0.961 . S
H1425 C1439 0.960 . S
H1426 C1439 0.961 . S
H1427 C1439 0.959 . S
H1428 C1442 0.929 . S
H1429 C1443 0.931 . S
H1430 C1445 0.930 . S
C1431 H1419 0.930 . S
C1431 C1432 1.399 . S
C1431 C1436 1.399 . S
C1432 C1431 1.399 . S
C1432 C1433 1.376 . S
C1433 H1420 0.930 . S
C1433 C1432 1.376 . S
C1433 C1434 1.388 . S
C1434 H1421 0.930 . S
C1434 C1433 1.388 . S
C1434 C1435 1.390 . S
C1435 C1434 1.390 . S
C1435 C1436 1.394 . S
C1435 C1441 1.465 . S
C1436 C1431 1.399 . S
C1436 C1435 1.394 . S
C1436 C1437 1.516 . S
C1437 C1436 1.516 . S
C1437 C1438 1.502 . S
C1437 C1439 1.561 . S
C1437 C1440 1.526 . S
C1438 H1422 0.959 . S
C1438 H1423 0.959 . S
C1438 H1424 0.961 . S
C1438 C1437 1.502 . S
C1439 H1425 0.960 . S
C1439 H1426 0.961 . S
C1439 H1427 0.959 . S
C1439 C1437 1.561 . S
C1440 C1437 1.526 . S
C1440 C1441 1.396 . S
C1440 C1445 1.390 . S
C1441 C1435 1.465 . S
C1441 C1440 1.396 . S
C1441 C1442 1.399 . S
C1442 H1428 0.929 . S
C1442 C1441 1.399 . S
C1442 C1443 1.385 . S
C1443 H1429 0.931 . S
C1443 C1442 1.385 . S
C1443 C1444 1.389 . S
C1444 C1443 1.389 . S
C1444 C1445 1.387 . S
C1445 H1430 0.930 . S
C1445 C1440 1.390 . S
C1445 C1444 1.387 . S
H1446 C1458 0.930 . S
H1447 C1460 0.930 . S
H1448 C1461 0.930 . S
H1449 C1465 0.959 . S
H1450 C1465 0.959 . S
H1451 C1465 0.961 . S
H1452 C1466 0.960 . S
H1453 C1466 0.961 . S
H1454 C1466 0.959 . S
H1455 C1469 0.929 . S
H1456 C1470 0.931 . S
H1457 C1472 0.930 . S
C1458 H1446 0.930 . S
C1458 C1459 1.399 . S
C1458 C1463 1.399 . S
C1459 C1458 1.399 . S
C1459 C1460 1.376 . S
C1460 H1447 0.930 . S
C1460 C1459 1.376 . S
C1460 C1461 1.388 . S
C1461 H1448 0.930 . S
C1461 C1460 1.388 . S
C1461 C1462 1.390 . S
C1462 C1461 1.390 . S
C1462 C1463 1.394 . S
C1462 C1468 1.465 . S
C1463 C1458 1.399 . S
C1463 C1462 1.394 . S
C1463 C1464 1.516 . S
C1464 C1463 1.516 . S
C1464 C1465 1.502 . S
C1464 C1466 1.561 . S
C1464 C1467 1.526 . S
C1465 H1449 0.959 . S
C1465 H1450 0.959 . S
C1465 H1451 0.961 . S
C1465 C1464 1.502 . S
C1466 H1452 0.960 . S
C1466 H1453 0.961 . S
C1466 H1454 0.959 . S
C1466 C1464 1.561 . S
C1467 C1464 1.526 . S
C1467 C1468 1.396 . S
C1467 C1472 1.390 . S
C1468 C1462 1.465 . S
C1468 C1467 1.396 . S
C1468 C1469 1.399 . S
C1469 H1455 0.929 . S
C1469 C1468 1.399 . S
C1469 C1470 1.385 . S
C1470 H1456 0.931 . S
C1470 C1469 1.385 . S
C1470 C1471 1.389 . S
C1471 C1470 1.389 . S
C1471 C1472 1.387 . S
C1472 H1457 0.930 . S
C1472 C1467 1.390 . S
C1472 C1471 1.387 . S
H1473 C1485 0.930 . S
H1474 C1487 0.930 . S
H1475 C1488 0.930 . S
H1476 C1492 0.959 . S
H1477 C1492 0.959 . S
H1478 C1492 0.961 . S
H1479 C1493 0.960 . S
H1480 C1493 0.961 . S
H1481 C1493 0.959 . S
H1482 C1496 0.929 . S
H1483 C1497 0.931 . S
H1484 C1499 0.930 . S
C1485 H1473 0.930 . S
C1485 C1486 1.399 . S
C1485 C1490 1.399 . S
C1486 C1485 1.399 . S
C1486 C1487 1.376 . S
C1487 H1474 0.930 . S
C1487 C1486 1.376 . S
C1487 C1488 1.388 . S
C1488 H1475 0.930 . S
C1488 C1487 1.388 . S
C1488 C1489 1.390 . S
C1489 C1488 1.390 . S
C1489 C1490 1.394 . S
C1489 C1495 1.465 . S
C1490 C1485 1.399 . S
C1490 C1489 1.394 . S
C1490 C1491 1.516 . S
C1491 C1490 1.516 . S
C1491 C1492 1.502 . S
C1491 C1493 1.561 . S
C1491 C1494 1.526 . S
C1492 H1476 0.959 . S
C1492 H1477 0.959 . S
C1492 H1478 0.961 . S
C1492 C1491 1.502 . S
C1493 H1479 0.960 . S
C1493 H1480 0.961 . S
C1493 H1481 0.959 . S
C1493 C1491 1.561 . S
C1494 C1491 1.526 . S
C1494 C1495 1.396 . S
C1494 C1499 1.390 . S
C1495 C1489 1.465 . S
C1495 C1494 1.396 . S
C1495 C1496 1.399 . S
C1496 H1482 0.929 . S
C1496 C1495 1.399 . S
C1496 C1497 1.385 . S
C1497 H1483 0.931 . S
C1497 C1496 1.385 . S
C1497 C1498 1.389 . S
C1498 C1497 1.389 . S
C1498 C1499 1.387 . S
C1499 H1484 0.930 . S
C1499 C1494 1.390 . S
C1499 C1498 1.387 . S
H1500 C1512 0.930 . S
H1501 C1514 0.930 . S
H1502 C1515 0.930 . S
H1503 C1519 0.959 . S
H1504 C1519 0.959 . S
H1505 C1519 0.961 . S
H1506 C1520 0.960 . S
H1507 C1520 0.961 . S
H1508 C1520 0.959 . S
H1509 C1523 0.929 . S
H1510 C1524 0.931 . S
H1511 C1526 0.930 . S
C1512 H1500 0.930 . S
C1512 C1513 1.399 . S
C1512 C1517 1.399 . S
C1513 C1512 1.399 . S
C1513 C1514 1.376 . S
C1514 H1501 0.930 . S
C1514 C1513 1.376 . S
C1514 C1515 1.388 . S
C1515 H1502 0.930 . S
C1515 C1514 1.388 . S
C1515 C1516 1.390 . S
C1516 C1515 1.390 . S
C1516 C1517 1.394 . S
C1516 C1522 1.465 . S
C1517 C1512 1.399 . S
C1517 C1516 1.394 . S
C1517 C1518 1.516 . S
C1518 C1517 1.516 . S
C1518 C1519 1.502 . S
C1518 C1520 1.561 . S
C1518 C1521 1.526 . S
C1519 H1503 0.959 . S
C1519 H1504 0.959 . S
C1519 H1505 0.961 . S
C1519 C1518 1.502 . S
C1520 H1506 0.960 . S
C1520 H1507 0.961 . S
C1520 H1508 0.959 . S
C1520 C1518 1.561 . S
C1521 C1518 1.526 . S
C1521 C1522 1.396 . S
C1521 C1526 1.390 . S
C1522 C1516 1.465 . S
C1522 C1521 1.396 . S
C1522 C1523 1.399 . S
C1523 H1509 0.929 . S
C1523 C1522 1.399 . S
C1523 C1524 1.385 . S
C1524 H1510 0.931 . S
C1524 C1523 1.385 . S
C1524 C1525 1.389 . S
C1525 C1524 1.389 . S
C1525 C1526 1.387 . S
C1526 H1511 0.930 . S
C1526 C1521 1.390 . S
C1526 C1525 1.387 . S
H1527 C1539 0.930 . S
H1528 C1541 0.930 . S
H1529 C1542 0.930 . S
H1530 C1546 0.959 . S
H1531 C1546 0.959 . S
H1532 C1546 0.961 . S
H1533 C1547 0.960 . S
H1534 C1547 0.961 . S
H1535 C1547 0.959 . S
H1536 C1550 0.929 . S
H1537 C1551 0.931 . S
H1538 C1553 0.930 . S
C1539 H1527 0.930 . S
C1539 C1540 1.399 . S
C1539 C1544 1.399 . S
C1540 C1539 1.399 . S
C1540 C1541 1.376 . S
C1541 H1528 0.930 . S
C1541 C1540 1.376 . S
C1541 C1542 1.388 . S
C1542 H1529 0.930 . S
C1542 C1541 1.388 . S
C1542 C1543 1.390 . S
C1543 C1542 1.390 . S
C1543 C1544 1.394 . S
C1543 C1549 1.465 . S
C1544 C1539 1.399 . S
C1544 C1543 1.394 . S
C1544 C1545 1.516 . S
C1545 C1544 1.516 . S
C1545 C1546 1.502 . S
C1545 C1547 1.561 . S
C1545 C1548 1.526 . S
C1546 H1530 0.959 . S
C1546 H1531 0.959 . S
C1546 H1532 0.961 . S
C1546 C1545 1.502 . S
C1547 H1533 0.960 . S
C1547 H1534 0.961 . S
C1547 H1535 0.959 . S
C1547 C1545 1.561 . S
C1548 C1545 1.526 . S
C1548 C1549 1.396 . S
C1548 C1553 1.390 . S
C1549 C1543 1.465 . S
C1549 C1548 1.396 . S
C1549 C1550 1.399 . S
C1550 H1536 0.929 . S
C1550 C1549 1.399 . S
C1550 C1551 1.385 . S
C1551 H1537 0.931 . S
C1551 C1550 1.385 . S
C1551 C1552 1.389 . S
C1552 C1551 1.389 . S
C1552 C1553 1.387 . S
C1553 H1538 0.930 . S
C1553 C1548 1.390 . S
C1553 C1552 1.387 . S
H1554 C1566 0.930 . S
H1555 C1568 0.930 . S
H1556 C1569 0.930 . S
H1557 C1573 0.959 . S
H1558 C1573 0.959 . S
H1559 C1573 0.961 . S
H1560 C1574 0.960 . S
H1561 C1574 0.961 . S
H1562 C1574 0.959 . S
H1563 C1577 0.929 . S
H1564 C1578 0.931 . S
H1565 C1580 0.930 . S
C1566 H1554 0.930 . S
C1566 C1567 1.399 . S
C1566 C1571 1.399 . S
C1567 C1566 1.399 . S
C1567 C1568 1.376 . S
C1568 H1555 0.930 . S
C1568 C1567 1.376 . S
C1568 C1569 1.388 . S
C1569 H1556 0.930 . S
C1569 C1568 1.388 . S
C1569 C1570 1.390 . S
C1570 C1569 1.390 . S
C1570 C1571 1.394 . S
C1570 C1576 1.465 . S
C1571 C1566 1.399 . S
C1571 C1570 1.394 . S
C1571 C1572 1.516 . S
C1572 C1571 1.516 . S
C1572 C1573 1.502 . S
C1572 C1574 1.561 . S
C1572 C1575 1.526 . S
C1573 H1557 0.959 . S
C1573 H1558 0.959 . S
C1573 H1559 0.961 . S
C1573 C1572 1.502 . S
C1574 H1560 0.960 . S
C1574 H1561 0.961 . S
C1574 H1562 0.959 . S
C1574 C1572 1.561 . S
C1575 C1572 1.526 . S
C1575 C1576 1.396 . S
C1575 C1580 1.390 . S
C1576 C1570 1.465 . S
C1576 C1575 1.396 . S
C1576 C1577 1.399 . S
C1577 H1563 0.929 . S
C1577 C1576 1.399 . S
C1577 C1578 1.385 . S
C1578 H1564 0.931 . S
C1578 C1577 1.385 . S
C1578 C1579 1.389 . S
C1579 C1578 1.389 . S
C1579 C1580 1.387 . S
C1580 H1565 0.930 . S
C1580 C1575 1.390 . S
C1580 C1579 1.387 . S
H1581 C1593 0.930 . S
H1582 C1595 0.930 . S
H1583 C1596 0.930 . S
H1584 C1600 0.959 . S
H1585 C1600 0.959 . S
H1586 C1600 0.961 . S
H1587 C1601 0.960 . S
H1588 C1601 0.961 . S
H1589 C1601 0.959 . S
H1590 C1604 0.929 . S
H1591 C1605 0.931 . S
H1592 C1607 0.930 . S
C1593 H1581 0.930 . S
C1593 C1594 1.399 . S
C1593 C1598 1.399 . S
C1594 C1593 1.399 . S
C1594 C1595 1.376 . S
C1595 H1582 0.930 . S
C1595 C1594 1.376 . S
C1595 C1596 1.388 . S
C1596 H1583 0.930 . S
C1596 C1595 1.388 . S
C1596 C1597 1.390 . S
C1597 C1596 1.390 . S
C1597 C1598 1.394 . S
C1597 C1603 1.465 . S
C1598 C1593 1.399 . S
C1598 C1597 1.394 . S
C1598 C1599 1.516 . S
C1599 C1598 1.516 . S
C1599 C1600 1.502 . S
C1599 C1601 1.561 . S
C1599 C1602 1.526 . S
C1600 H1584 0.959 . S
C1600 H1585 0.959 . S
C1600 H1586 0.961 . S
C1600 C1599 1.502 . S
C1601 H1587 0.960 . S
C1601 H1588 0.961 . S
C1601 H1589 0.959 . S
C1601 C1599 1.561 . S
C1602 C1599 1.526 . S
C1602 C1603 1.396 . S
C1602 C1607 1.390 . S
C1603 C1597 1.465 . S
C1603 C1602 1.396 . S
C1603 C1604 1.399 . S
C1604 H1590 0.929 . S
C1604 C1603 1.399 . S
C1604 C1605 1.385 . S
C1605 H1591 0.931 . S
C1605 C1604 1.385 . S
C1605 C1606 1.389 . S
C1606 C1605 1.389 . S
C1606 C1607 1.387 . S
C1607 H1592 0.930 . S
C1607 C1602 1.390 . S
C1607 C1606 1.387 . S
H1608 C1620 0.930 . S
H1609 C1622 0.930 . S
H1610 C1623 0.930 . S
H1611 C1627 0.959 . S
H1612 C1627 0.959 . S
H1613 C1627 0.961 . S
H1614 C1628 0.960 . S
H1615 C1628 0.961 . S
H1616 C1628 0.959 . S
H1617 C1631 0.929 . S
H1618 C1632 0.931 . S
H1619 C1634 0.930 . S
C1620 H1608 0.930 . S
C1620 C1621 1.399 . S
C1620 C1625 1.399 . S
C1621 C1620 1.399 . S
C1621 C1622 1.376 . S
C1622 H1609 0.930 . S
C1622 C1621 1.376 . S
C1622 C1623 1.388 . S
C1623 H1610 0.930 . S
C1623 C1622 1.388 . S
C1623 C1624 1.390 . S
C1624 C1623 1.390 . S
C1624 C1625 1.394 . S
C1624 C1630 1.465 . S
C1625 C1620 1.399 . S
C1625 C1624 1.394 . S
C1625 C1626 1.516 . S
C1626 C1625 1.516 . S
C1626 C1627 1.502 . S
C1626 C1628 1.561 . S
C1626 C1629 1.526 . S
C1627 H1611 0.959 . S
C1627 H1612 0.959 . S
C1627 H1613 0.961 . S
C1627 C1626 1.502 . S
C1628 H1614 0.960 . S
C1628 H1615 0.961 . S
C1628 H1616 0.959 . S
C1628 C1626 1.561 . S
C1629 C1626 1.526 . S
C1629 C1630 1.396 . S
C1629 C1634 1.390 . S
C1630 C1624 1.465 . S
C1630 C1629 1.396 . S
C1630 C1631 1.399 . S
C1631 H1617 0.929 . S
C1631 C1630 1.399 . S
C1631 C1632 1.385 . S
C1632 H1618 0.931 . S
C1632 C1631 1.385 . S
C1632 C1633 1.389 . S
C1633 C1632 1.389 . S
C1633 C1634 1.387 . S
C1634 H1619 0.930 . S
C1634 C1629 1.390 . S
C1634 C1633 1.387 . S
H1635 C1647 0.930 . S
H1636 C1649 0.930 . S
H1637 C1650 0.930 . S
H1638 C1654 0.959 . S
H1639 C1654 0.959 . S
H1640 C1654 0.961 . S
H1641 C1655 0.960 . S
H1642 C1655 0.961 . S
H1643 C1655 0.959 . S
H1644 C1658 0.929 . S
H1645 C1659 0.931 . S
H1646 C1661 0.930 . S
C1647 H1635 0.930 . S
C1647 C1648 1.399 . S
C1647 C1652 1.399 . S
C1648 C1647 1.399 . S
C1648 C1649 1.376 . S
C1649 H1636 0.930 . S
C1649 C1648 1.376 . S
C1649 C1650 1.388 . S
C1650 H1637 0.930 . S
C1650 C1649 1.388 . S
C1650 C1651 1.390 . S
C1651 C1650 1.390 . S
C1651 C1652 1.394 . S
C1651 C1657 1.465 . S
C1652 C1647 1.399 . S
C1652 C1651 1.394 . S
C1652 C1653 1.516 . S
C1653 C1652 1.516 . S
C1653 C1654 1.502 . S
C1653 C1655 1.561 . S
C1653 C1656 1.526 . S
C1654 H1638 0.959 . S
C1654 H1639 0.959 . S
C1654 H1640 0.961 . S
C1654 C1653 1.502 . S
C1655 H1641 0.960 . S
C1655 H1642 0.961 . S
C1655 H1643 0.959 . S
C1655 C1653 1.561 . S
C1656 C1653 1.526 . S
C1656 C1657 1.396 . S
C1656 C1661 1.390 . S
C1657 C1651 1.465 . S
C1657 C1656 1.396 . S
C1657 C1658 1.399 . S
C1658 H1644 0.929 . S
C1658 C1657 1.399 . S
C1658 C1659 1.385 . S
C1659 H1645 0.931 . S
C1659 C1658 1.385 . S
C1659 C1660 1.389 . S
C1660 C1659 1.389 . S
C1660 C1661 1.387 . S
C1661 H1646 0.930 . S
C1661 C1656 1.390 . S
C1661 C1660 1.387 . S
H1662 C1674 0.930 . S
H1663 C1676 0.930 . S
H1664 C1677 0.930 . S
H1665 C1681 0.959 . S
H1666 C1681 0.959 . S
H1667 C1681 0.961 . S
H1668 C1682 0.960 . S
H1669 C1682 0.961 . S
H1670 C1682 0.959 . S
H1671 C1685 0.929 . S
H1672 C1686 0.931 . S
H1673 C1688 0.930 . S
C1674 H1662 0.930 . S
C1674 C1675 1.399 . S
C1674 C1679 1.399 . S
C1675 C1674 1.399 . S
C1675 C1676 1.376 . S
C1676 H1663 0.930 . S
C1676 C1675 1.376 . S
C1676 C1677 1.388 . S
C1677 H1664 0.930 . S
C1677 C1676 1.388 . S
C1677 C1678 1.390 . S
C1678 C1677 1.390 . S
C1678 C1679 1.394 . S
C1678 C1684 1.465 . S
C1679 C1674 1.399 . S
C1679 C1678 1.394 . S
C1679 C1680 1.516 . S
C1680 C1679 1.516 . S
C1680 C1681 1.502 . S
C1680 C1682 1.561 . S
C1680 C1683 1.526 . S
C1681 H1665 0.959 . S
C1681 H1666 0.959 . S
C1681 H1667 0.961 . S
C1681 C1680 1.502 . S
C1682 H1668 0.960 . S
C1682 H1669 0.961 . S
C1682 H1670 0.959 . S
C1682 C1680 1.561 . S
C1683 C1680 1.526 . S
C1683 C1684 1.396 . S
C1683 C1688 1.390 . S
C1684 C1678 1.465 . S
C1684 C1683 1.396 . S
C1684 C1685 1.399 . S
C1685 H1671 0.929 . S
C1685 C1684 1.399 . S
C1685 C1686 1.385 . S
C1686 H1672 0.931 . S
C1686 C1685 1.385 . S
C1686 C1687 1.389 . S
C1687 C1686 1.389 . S
C1687 C1688 1.387 . S
C1688 H1673 0.930 . S
C1688 C1683 1.390 . S
C1688 C1687 1.387 . S
H1689 C1701 0.930 . S
H1690 C1703 0.930 . S
H1691 C1704 0.930 . S
H1692 C1708 0.959 . S
H1693 C1708 0.959 . S
H1694 C1708 0.961 . S
H1695 C1709 0.960 . S
H1696 C1709 0.961 . S
H1697 C1709 0.959 . S
H1698 C1712 0.929 . S
H1699 C1713 0.931 . S
H1700 C1715 0.930 . S
C1701 H1689 0.930 . S
C1701 C1702 1.399 . S
C1701 C1706 1.399 . S
C1702 C1701 1.399 . S
C1702 C1703 1.376 . S
C1703 H1690 0.930 . S
C1703 C1702 1.376 . S
C1703 C1704 1.388 . S
C1704 H1691 0.930 . S
C1704 C1703 1.388 . S
C1704 C1705 1.390 . S
C1705 C1704 1.390 . S
C1705 C1706 1.394 . S
C1705 C1711 1.465 . S
C1706 C1701 1.399 . S
C1706 C1705 1.394 . S
C1706 C1707 1.516 . S
C1707 C1706 1.516 . S
C1707 C1708 1.502 . S
C1707 C1709 1.561 . S
C1707 C1710 1.526 . S
C1708 H1692 0.959 . S
C1708 H1693 0.959 . S
C1708 H1694 0.961 . S
C1708 C1707 1.502 . S
C1709 H1695 0.960 . S
C1709 H1696 0.961 . S
C1709 H1697 0.959 . S
C1709 C1707 1.561 . S
C1710 C1707 1.526 . S
C1710 C1711 1.396 . S
C1710 C1715 1.390 . S
C1711 C1705 1.465 . S
C1711 C1710 1.396 . S
C1711 C1712 1.399 . S
C1712 H1698 0.929 . S
C1712 C1711 1.399 . S
C1712 C1713 1.385 . S
C1713 H1699 0.931 . S
C1713 C1712 1.385 . S
C1713 C1714 1.389 . S
C1714 C1713 1.389 . S
C1714 C1715 1.387 . S
C1715 H1700 0.930 . S
C1715 C1710 1.390 . S
C1715 C1714 1.387 . S
H1716 C1728 0.930 . S
H1717 C1730 0.930 . S
H1718 C1731 0.930 . S
H1719 C1735 0.959 . S
H1720 C1735 0.959 . S
H1721 C1735 0.961 . S
H1722 C1736 0.960 . S
H1723 C1736 0.961 . S
H1724 C1736 0.959 . S
H1725 C1739 0.929 . S
H1726 C1740 0.931 . S
H1727 C1742 0.930 . S
C1728 H1716 0.930 . S
C1728 C1729 1.399 . S
C1728 C1733 1.399 . S
C1729 C1728 1.399 . S
C1729 C1730 1.376 . S
C1730 H1717 0.930 . S
C1730 C1729 1.376 . S
C1730 C1731 1.388 . S
C1731 H1718 0.930 . S
C1731 C1730 1.388 . S
C1731 C1732 1.390 . S
C1732 C1731 1.390 . S
C1732 C1733 1.394 . S
C1732 C1738 1.465 . S
C1733 C1728 1.399 . S
C1733 C1732 1.394 . S
C1733 C1734 1.516 . S
C1734 C1733 1.516 . S
C1734 C1735 1.502 . S
C1734 C1736 1.561 . S
C1734 C1737 1.526 . S
C1735 H1719 0.959 . S
C1735 H1720 0.959 . S
C1735 H1721 0.961 . S
C1735 C1734 1.502 . S
C1736 H1722 0.960 . S
C1736 H1723 0.961 . S
C1736 H1724 0.959 . S
C1736 C1734 1.561 . S
C1737 C1734 1.526 . S
C1737 C1738 1.396 . S
C1737 C1742 1.390 . S
C1738 C1732 1.465 . S
C1738 C1737 1.396 . S
C1738 C1739 1.399 . S
C1739 H1725 0.929 . S
C1739 C1738 1.399 . S
C1739 C1740 1.385 . S
C1740 H1726 0.931 . S
C1740 C1739 1.385 . S
C1740 C1741 1.389 . S
C1741 C1740 1.389 . S
C1741 C1742 1.387 . S
C1742 H1727 0.930 . S
C1742 C1737 1.390 . S
C1742 C1741 1.387 . S
H1743 C1755 0.930 . S
H1744 C1757 0.930 . S
H1745 C1758 0.930 . S
H1746 C1762 0.959 . S
H1747 C1762 0.959 . S
H1748 C1762 0.961 . S
H1749 C1763 0.960 . S
H1750 C1763 0.961 . S
H1751 C1763 0.959 . S
H1752 C1766 0.929 . S
H1753 C1767 0.931 . S
H1754 C1769 0.930 . S
C1755 H1743 0.930 . S
C1755 C1756 1.399 . S
C1755 C1760 1.399 . S
C1756 C1755 1.399 . S
C1756 C1757 1.376 . S
C1757 H1744 0.930 . S
C1757 C1756 1.376 . S
C1757 C1758 1.388 . S
C1758 H1745 0.930 . S
C1758 C1757 1.388 . S
C1758 C1759 1.390 . S
C1759 C1758 1.390 . S
C1759 C1760 1.394 . S
C1759 C1765 1.465 . S
C1760 C1755 1.399 . S
C1760 C1759 1.394 . S
C1760 C1761 1.516 . S
C1761 C1760 1.516 . S
C1761 C1762 1.502 . S
C1761 C1763 1.561 . S
C1761 C1764 1.526 . S
C1762 H1746 0.959 . S
C1762 H1747 0.959 . S
C1762 H1748 0.961 . S
C1762 C1761 1.502 . S
C1763 H1749 0.960 . S
C1763 H1750 0.961 . S
C1763 H1751 0.959 . S
C1763 C1761 1.561 . S
C1764 C1761 1.526 . S
C1764 C1765 1.396 . S
C1764 C1769 1.390 . S
C1765 C1759 1.465 . S
C1765 C1764 1.396 . S
C1765 C1766 1.399 . S
C1766 H1752 0.929 . S
C1766 C1765 1.399 . S
C1766 C1767 1.385 . S
C1767 H1753 0.931 . S
C1767 C1766 1.385 . S
C1767 C1768 1.389 . S
C1768 C1767 1.389 . S
C1768 C1769 1.387 . S
C1769 H1754 0.930 . S
C1769 C1764 1.390 . S
C1769 C1768 1.387 . S
H1770 C1782 0.930 . S
H1771 C1784 0.930 . S
H1772 C1785 0.930 . S
H1773 C1789 0.959 . S
H1774 C1789 0.959 . S
H1775 C1789 0.961 . S
H1776 C1790 0.960 . S
H1777 C1790 0.961 . S
H1778 C1790 0.959 . S
H1779 C1793 0.929 . S
H1780 C1794 0.931 . S
H1781 C1796 0.930 . S
C1782 H1770 0.930 . S
C1782 C1783 1.399 . S
C1782 C1787 1.399 . S
C1783 C1782 1.399 . S
C1783 C1784 1.376 . S
C1784 H1771 0.930 . S
C1784 C1783 1.376 . S
C1784 C1785 1.388 . S
C1785 H1772 0.930 . S
C1785 C1784 1.388 . S
C1785 C1786 1.390 . S
C1786 C1785 1.390 . S
C1786 C1787 1.394 . S
C1786 C1792 1.465 . S
C1787 C1782 1.399 . S
C1787 C1786 1.394 . S
C1787 C1788 1.516 . S
C1788 C1787 1.516 . S
C1788 C1789 1.502 . S
C1788 C1790 1.561 . S
C1788 C1791 1.526 . S
C1789 H1773 0.959 . S
C1789 H1774 0.959 . S
C1789 H1775 0.961 . S
C1789 C1788 1.502 . S
C1790 H1776 0.960 . S
C1790 H1777 0.961 . S
C1790 H1778 0.959 . S
C1790 C1788 1.561 . S
C1791 C1788 1.526 . S
C1791 C1792 1.396 . S
C1791 C1796 1.390 . S
C1792 C1786 1.465 . S
C1792 C1791 1.396 . S
C1792 C1793 1.399 . S
C1793 H1779 0.929 . S
C1793 C1792 1.399 . S
C1793 C1794 1.385 . S
C1794 H1780 0.931 . S
C1794 C1793 1.385 . S
C1794 C1795 1.389 . S
C1795 C1794 1.389 . S
C1795 C1796 1.387 . S
C1796 H1781 0.930 . S
C1796 C1791 1.390 . S
C1796 C1795 1.387 . S
H1797 C1809 0.930 . S
H1798 C1811 0.930 . S
H1799 C1812 0.930 . S
H1800 C1816 0.959 . S
H1801 C1816 0.959 . S
H1802 C1816 0.961 . S
H1803 C1817 0.960 . S
H1804 C1817 0.961 . S
H1805 C1817 0.959 . S
H1806 C1820 0.929 . S
H1807 C1821 0.931 . S
H1808 C1823 0.930 . S
C1809 H1797 0.930 . S
C1809 C1810 1.399 . S
C1809 C1814 1.399 . S
C1810 C1809 1.399 . S
C1810 C1811 1.376 . S
C1811 H1798 0.930 . S
C1811 C1810 1.376 . S
C1811 C1812 1.388 . S
C1812 H1799 0.930 . S
C1812 C1811 1.388 . S
C1812 C1813 1.390 . S
C1813 C1812 1.390 . S
C1813 C1814 1.394 . S
C1813 C1819 1.465 . S
C1814 C1809 1.399 . S
C1814 C1813 1.394 . S
C1814 C1815 1.516 . S
C1815 C1814 1.516 . S
C1815 C1816 1.502 . S
C1815 C1817 1.561 . S
C1815 C1818 1.526 . S
C1816 H1800 0.959 . S
C1816 H1801 0.959 . S
C1816 H1802 0.961 . S
C1816 C1815 1.502 . S
C1817 H1803 0.960 . S
C1817 H1804 0.961 . S
C1817 H1805 0.959 . S
C1817 C1815 1.561 . S
C1818 C1815 1.526 . S
C1818 C1819 1.396 . S
C1818 C1823 1.390 . S
C1819 C1813 1.465 . S
C1819 C1818 1.396 . S
C1819 C1820 1.399 . S
C1820 H1806 0.929 . S
C1820 C1819 1.399 . S
C1820 C1821 1.385 . S
C1821 H1807 0.931 . S
C1821 C1820 1.385 . S
C1821 C1822 1.389 . S
C1822 C1821 1.389 . S
C1822 C1823 1.387 . S
C1823 H1808 0.930 . S
C1823 C1818 1.390 . S
C1823 C1822 1.387 . S
H1824 C1836 0.930 . S
H1825 C1838 0.930 . S
H1826 C1839 0.930 . S
H1827 C1843 0.959 . S
H1828 C1843 0.959 . S
H1829 C1843 0.961 . S
H1830 C1844 0.960 . S
H1831 C1844 0.961 . S
H1832 C1844 0.959 . S
H1833 C1847 0.929 . S
H1834 C1848 0.931 . S
H1835 C1850 0.930 . S
C1836 H1824 0.930 . S
C1836 C1837 1.399 . S
C1836 C1841 1.399 . S
C1837 C1836 1.399 . S
C1837 C1838 1.376 . S
C1838 H1825 0.930 . S
C1838 C1837 1.376 . S
C1838 C1839 1.388 . S
C1839 H1826 0.930 . S
C1839 C1838 1.388 . S
C1839 C1840 1.390 . S
C1840 C1839 1.390 . S
C1840 C1841 1.394 . S
C1840 C1846 1.465 . S
C1841 C1836 1.399 . S
C1841 C1840 1.394 . S
C1841 C1842 1.516 . S
C1842 C1841 1.516 . S
C1842 C1843 1.502 . S
C1842 C1844 1.561 . S
C1842 C1845 1.526 . S
C1843 H1827 0.959 . S
C1843 H1828 0.959 . S
C1843 H1829 0.961 . S
C1843 C1842 1.502 . S
C1844 H1830 0.960 . S
C1844 H1831 0.961 . S
C1844 H1832 0.959 . S
C1844 C1842 1.561 . S
C1845 C1842 1.526 . S
C1845 C1846 1.396 . S
C1845 C1850 1.390 . S
C1846 C1840 1.465 . S
C1846 C1845 1.396 . S
C1846 C1847 1.399 . S
C1847 H1833 0.929 . S
C1847 C1846 1.399 . S
C1847 C1848 1.385 . S
C1848 H1834 0.931 . S
C1848 C1847 1.385 . S
C1848 C1849 1.389 . S
C1849 C1848 1.389 . S
C1849 C1850 1.387 . S
C1850 H1835 0.930 . S
C1850 C1845 1.390 . S
C1850 C1849 1.387 . S
H1851 C1863 0.930 . S
H1852 C1865 0.930 . S
H1853 C1866 0.930 . S
H1854 C1870 0.959 . S
H1855 C1870 0.959 . S
H1856 C1870 0.961 . S
H1857 C1871 0.960 . S
H1858 C1871 0.961 . S
H1859 C1871 0.959 . S
H1860 C1874 0.929 . S
H1861 C1875 0.931 . S
H1862 C1877 0.930 . S
C1863 H1851 0.930 . S
C1863 C1864 1.399 . S
C1863 C1868 1.399 . S
C1864 C1863 1.399 . S
C1864 C1865 1.376 . S
C1865 H1852 0.930 . S
C1865 C1864 1.376 . S
C1865 C1866 1.388 . S
C1866 H1853 0.930 . S
C1866 C1865 1.388 . S
C1866 C1867 1.390 . S
C1867 C1866 1.390 . S
C1867 C1868 1.394 . S
C1867 C1873 1.465 . S
C1868 C1863 1.399 . S
C1868 C1867 1.394 . S
C1868 C1869 1.516 . S
C1869 C1868 1.516 . S
C1869 C1870 1.502 . S
C1869 C1871 1.561 . S
C1869 C1872 1.526 . S
C1870 H1854 0.959 . S
C1870 H1855 0.959 . S
C1870 H1856 0.961 . S
C1870 C1869 1.502 . S
C1871 H1857 0.960 . S
C1871 H1858 0.961 . S
C1871 H1859 0.959 . S
C1871 C1869 1.561 . S
C1872 C1869 1.526 . S
C1872 C1873 1.396 . S
C1872 C1877 1.390 . S
C1873 C1867 1.465 . S
C1873 C1872 1.396 . S
C1873 C1874 1.399 . S
C1874 H1860 0.929 . S
C1874 C1873 1.399 . S
C1874 C1875 1.385 . S
C1875 H1861 0.931 . S
C1875 C1874 1.385 . S
C1875 C1876 1.389 . S
C1876 C1875 1.389 . S
C1876 C1877 1.387 . S
C1877 H1862 0.930 . S
C1877 C1872 1.390 . S
C1877 C1876 1.387 . S
H1878 C1890 0.930 . S
H1879 C1892 0.930 . S
H1880 C1893 0.930 . S
H1881 C1897 0.959 . S
H1882 C1897 0.959 . S
H1883 C1897 0.961 . S
H1884 C1898 0.960 . S
H1885 C1898 0.961 . S
H1886 C1898 0.959 . S
H1887 C1901 0.929 . S
H1888 C1902 0.931 . S
H1889 C1904 0.930 . S
C1890 H1878 0.930 . S
C1890 C1891 1.399 . S
C1890 C1895 1.399 . S
C1891 C1890 1.399 . S
C1891 C1892 1.376 . S
C1892 H1879 0.930 . S
C1892 C1891 1.376 . S
C1892 C1893 1.388 . S
C1893 H1880 0.930 . S
C1893 C1892 1.388 . S
C1893 C1894 1.390 . S
C1894 C1893 1.390 . S
C1894 C1895 1.394 . S
C1894 C1900 1.465 . S
C1895 C1890 1.399 . S
C1895 C1894 1.394 . S
C1895 C1896 1.516 . S
C1896 C1895 1.516 . S
C1896 C1897 1.502 . S
C1896 C1898 1.561 . S
C1896 C1899 1.526 . S
C1897 H1881 0.959 . S
C1897 H1882 0.959 . S
C1897 H1883 0.961 . S
C1897 C1896 1.502 . S
C1898 H1884 0.960 . S
C1898 H1885 0.961 . S
C1898 H1886 0.959 . S
C1898 C1896 1.561 . S
C1899 C1896 1.526 . S
C1899 C1900 1.396 . S
C1899 C1904 1.390 . S
C1900 C1894 1.465 . S
C1900 C1899 1.396 . S
C1900 C1901 1.399 . S
C1901 H1887 0.929 . S
C1901 C1900 1.399 . S
C1901 C1902 1.385 . S
C1902 H1888 0.931 . S
C1902 C1901 1.385 . S
C1902 C1903 1.389 . S
C1903 C1902 1.389 . S
C1903 C1904 1.387 . S
C1904 H1889 0.930 . S
C1904 C1899 1.390 . S
C1904 C1903 1.387 . S
H1905 C1917 0.930 . S
H1906 C1919 0.930 . S
H1907 C1920 0.930 . S
H1908 C1924 0.959 . S
H1909 C1924 0.959 . S
H1910 C1924 0.961 . S
H1911 C1925 0.960 . S
H1912 C1925 0.961 . S
H1913 C1925 0.959 . S
H1914 C1928 0.929 . S
H1915 C1929 0.931 . S
H1916 C1931 0.930 . S
C1917 H1905 0.930 . S
C1917 C1918 1.399 . S
C1917 C1922 1.399 . S
C1918 C1917 1.399 . S
C1918 C1919 1.376 . S
C1919 H1906 0.930 . S
C1919 C1918 1.376 . S
C1919 C1920 1.388 . S
C1920 H1907 0.930 . S
C1920 C1919 1.388 . S
C1920 C1921 1.390 . S
C1921 C1920 1.390 . S
C1921 C1922 1.394 . S
C1921 C1927 1.465 . S
C1922 C1917 1.399 . S
C1922 C1921 1.394 . S
C1922 C1923 1.516 . S
C1923 C1922 1.516 . S
C1923 C1924 1.502 . S
C1923 C1925 1.561 . S
C1923 C1926 1.526 . S
C1924 H1908 0.959 . S
C1924 H1909 0.959 . S
C1924 H1910 0.961 . S
C1924 C1923 1.502 . S
C1925 H1911 0.960 . S
C1925 H1912 0.961 . S
C1925 H1913 0.959 . S
C1925 C1923 1.561 . S
C1926 C1923 1.526 . S
C1926 C1927 1.396 . S
C1926 C1931 1.390 . S
C1927 C1921 1.465 . S
C1927 C1926 1.396 . S
C1927 C1928 1.399 . S
C1928 H1914 0.929 . S
C1928 C1927 1.399 . S
C1928 C1929 1.385 . S
C1929 H1915 0.931 . S
C1929 C1928 1.385 . S
C1929 C1930 1.389 . S
C1930 C1929 1.389 . S
C1930 C1931 1.387 . S
C1931 H1916 0.930 . S
C1931 C1926 1.390 . S
C1931 C1930 1.387 . S
H1932 C1944 0.930 . S
H1933 C1946 0.930 . S
H1934 C1947 0.930 . S
H1935 C1951 0.959 . S
H1936 C1951 0.959 . S
H1937 C1951 0.961 . S
H1938 C1952 0.960 . S
H1939 C1952 0.961 . S
H1940 C1952 0.959 . S
H1941 C1955 0.929 . S
H1942 C1956 0.931 . S
H1943 C1958 0.930 . S
C1944 H1932 0.930 . S
C1944 C1945 1.399 . S
C1944 C1949 1.399 . S
C1945 C1944 1.399 . S
C1945 C1946 1.376 . S
C1946 H1933 0.930 . S
C1946 C1945 1.376 . S
C1946 C1947 1.388 . S
C1947 H1934 0.930 . S
C1947 C1946 1.388 . S
C1947 C1948 1.390 . S
C1948 C1947 1.390 . S
C1948 C1949 1.394 . S
C1948 C1954 1.465 . S
C1949 C1944 1.399 . S
C1949 C1948 1.394 . S
C1949 C1950 1.516 . S
C1950 C1949 1.516 . S
C1950 C1951 1.502 . S
C1950 C1952 1.561 . S
C1950 C1953 1.526 . S
C1951 H1935 0.959 . S
C1951 H1936 0.959 . S
C1951 H1937 0.961 . S
C1951 C1950 1.502 . S
C1952 H1938 0.960 . S
C1952 H1939 0.961 . S
C1952 H1940 0.959 . S
C1952 C1950 1.561 . S
C1953 C1950 1.526 . S
C1953 C1954 1.396 . S
C1953 C1958 1.390 . S
C1954 C1948 1.465 . S
C1954 C1953 1.396 . S
C1954 C1955 1.399 . S
C1955 H1941 0.929 . S
C1955 C1954 1.399 . S
C1955 C1956 1.385 . S
C1956 H1942 0.931 . S
C1956 C1955 1.385 . S
C1956 C1957 1.389 . S
C1957 C1956 1.389 . S
C1957 C1958 1.387 . S
C1958 H1943 0.930 . S
C1958 C1953 1.390 . S
C1958 C1957 1.387 . S
H1959 C1971 0.930 . S
H1960 C1973 0.930 . S
H1961 C1974 0.930 . S
H1962 C1978 0.959 . S
H1963 C1978 0.959 . S
H1964 C1978 0.961 . S
H1965 C1979 0.960 . S
H1966 C1979 0.961 . S
H1967 C1979 0.959 . S
H1968 C1982 0.929 . S
H1969 C1983 0.931 . S
H1970 C1985 0.930 . S
C1971 H1959 0.930 . S
C1971 C1972 1.399 . S
C1971 C1976 1.399 . S
C1972 C1971 1.399 . S
C1972 C1973 1.376 . S
C1973 H1960 0.930 . S
C1973 C1972 1.376 . S
C1973 C1974 1.388 . S
C1974 H1961 0.930 . S
C1974 C1973 1.388 . S
C1974 C1975 1.390 . S
C1975 C1974 1.390 . S
C1975 C1976 1.394 . S
C1975 C1981 1.465 . S
C1976 C1971 1.399 . S
C1976 C1975 1.394 . S
C1976 C1977 1.516 . S
C1977 C1976 1.516 . S
C1977 C1978 1.502 . S
C1977 C1979 1.561 . S
C1977 C1980 1.526 . S
C1978 H1962 0.959 . S
C1978 H1963 0.959 . S
C1978 H1964 0.961 . S
C1978 C1977 1.502 . S
C1979 H1965 0.960 . S
C1979 H1966 0.961 . S
C1979 H1967 0.959 . S
C1979 C1977 1.561 . S
C1980 C1977 1.526 . S
C1980 C1981 1.396 . S
C1980 C1985 1.390 . S
C1981 C1975 1.465 . S
C1981 C1980 1.396 . S
C1981 C1982 1.399 . S
C1982 H1968 0.929 . S
C1982 C1981 1.399 . S
C1982 C1983 1.385 . S
C1983 H1969 0.931 . S
C1983 C1982 1.385 . S
C1983 C1984 1.389 . S
C1984 C1983 1.389 . S
C1984 C1985 1.387 . S
C1985 H1970 0.930 . S
C1985 C1980 1.390 . S
C1985 C1984 1.387 . S
H1986 C1998 0.930 . S
H1987 C2000 0.930 . S
H1988 C2001 0.930 . S
H1989 C2005 0.959 . S
H1990 C2005 0.959 . S
H1991 C2005 0.961 . S
H1992 C2006 0.960 . S
H1993 C2006 0.961 . S
H1994 C2006 0.959 . S
H1995 C2009 0.929 . S
H1996 C2010 0.931 . S
H1997 C2012 0.930 . S
C1998 H1986 0.930 . S
C1998 C1999 1.399 . S
C1998 C2003 1.399 . S
C1999 C1998 1.399 . S
C1999 C2000 1.376 . S
C2000 H1987 0.930 . S
C2000 C1999 1.376 . S
C2000 C2001 1.388 . S
C2001 H1988 0.930 . S
C2001 C2000 1.388 . S
C2001 C2002 1.390 . S
C2002 C2001 1.390 . S
C2002 C2003 1.394 . S
C2002 C2008 1.465 . S
C2003 C1998 1.399 . S
C2003 C2002 1.394 . S
C2003 C2004 1.516 . S
C2004 C2003 1.516 . S
C2004 C2005 1.502 . S
C2004 C2006 1.561 . S
C2004 C2007 1.526 . S
C2005 H1989 0.959 . S
C2005 H1990 0.959 . S
C2005 H1991 0.961 . S
C2005 C2004 1.502 . S
C2006 H1992 0.960 . S
C2006 H1993 0.961 . S
C2006 H1994 0.959 . S
C2006 C2004 1.561 . S
C2007 C2004 1.526 . S
C2007 C2008 1.396 . S
C2007 C2012 1.390 . S
C2008 C2002 1.465 . S
C2008 C2007 1.396 . S
C2008 C2009 1.399 . S
C2009 H1995 0.929 . S
C2009 C2008 1.399 . S
C2009 C2010 1.385 . S
C2010 H1996 0.931 . S
C2010 C2009 1.385 . S
C2010 C2011 1.389 . S
C2011 C2010 1.389 . S
C2011 C2012 1.387 . S
C2012 H1997 0.930 . S
C2012 C2007 1.390 . S
C2012 C2011 1.387 . S
H2013 C2025 0.930 . S
H2014 C2027 0.930 . S
H2015 C2028 0.930 . S
H2016 C2032 0.959 . S
H2017 C2032 0.959 . S
H2018 C2032 0.961 . S
H2019 C2033 0.960 . S
H2020 C2033 0.961 . S
H2021 C2033 0.959 . S
H2022 C2036 0.929 . S
H2023 C2037 0.931 . S
H2024 C2039 0.930 . S
C2025 H2013 0.930 . S
C2025 C2026 1.399 . S
C2025 C2030 1.399 . S
C2026 C2025 1.399 . S
C2026 C2027 1.376 . S
C2027 H2014 0.930 . S
C2027 C2026 1.376 . S
C2027 C2028 1.388 . S
C2028 H2015 0.930 . S
C2028 C2027 1.388 . S
C2028 C2029 1.390 . S
C2029 C2028 1.390 . S
C2029 C2030 1.394 . S
C2029 C2035 1.465 . S
C2030 C2025 1.399 . S
C2030 C2029 1.394 . S
C2030 C2031 1.516 . S
C2031 C2030 1.516 . S
C2031 C2032 1.502 . S
C2031 C2033 1.561 . S
C2031 C2034 1.526 . S
C2032 H2016 0.959 . S
C2032 H2017 0.959 . S
C2032 H2018 0.961 . S
C2032 C2031 1.502 . S
C2033 H2019 0.960 . S
C2033 H2020 0.961 . S
C2033 H2021 0.959 . S
C2033 C2031 1.561 . S
C2034 C2031 1.526 . S
C2034 C2035 1.396 . S
C2034 C2039 1.390 . S
C2035 C2029 1.465 . S
C2035 C2034 1.396 . S
C2035 C2036 1.399 . S
C2036 H2022 0.929 . S
C2036 C2035 1.399 . S
C2036 C2037 1.385 . S
C2037 H2023 0.931 . S
C2037 C2036 1.385 . S
C2037 C2038 1.389 . S
C2038 C2037 1.389 . S
C2038 C2039 1.387 . S
C2039 H2024 0.930 . S
C2039 C2034 1.390 . S
C2039 C2038 1.387 . S
H2040 C2052 0.930 . S
H2041 C2054 0.930 . S
H2042 C2055 0.930 . S
H2043 C2059 0.959 . S
H2044 C2059 0.959 . S
H2045 C2059 0.961 . S
H2046 C2060 0.960 . S
H2047 C2060 0.961 . S
H2048 C2060 0.959 . S
H2049 C2063 0.929 . S
H2050 C2064 0.931 . S
H2051 C2066 0.930 . S
C2052 H2040 0.930 . S
C2052 C2053 1.399 . S
C2052 C2057 1.399 . S
C2053 C2052 1.399 . S
C2053 C2054 1.376 . S
C2054 H2041 0.930 . S
C2054 C2053 1.376 . S
C2054 C2055 1.388 . S
C2055 H2042 0.930 . S
C2055 C2054 1.388 . S
C2055 C2056 1.390 . S
C2056 C2055 1.390 . S
C2056 C2057 1.394 . S
C2056 C2062 1.465 . S
C2057 C2052 1.399 . S
C2057 C2056 1.394 . S
C2057 C2058 1.516 . S
C2058 C2057 1.516 . S
C2058 C2059 1.502 . S
C2058 C2060 1.561 . S
C2058 C2061 1.526 . S
C2059 H2043 0.959 . S
C2059 H2044 0.959 . S
C2059 H2045 0.961 . S
C2059 C2058 1.502 . S
C2060 H2046 0.960 . S
C2060 H2047 0.961 . S
C2060 H2048 0.959 . S
C2060 C2058 1.561 . S
C2061 C2058 1.526 . S
C2061 C2062 1.396 . S
C2061 C2066 1.390 . S
C2062 C2056 1.465 . S
C2062 C2061 1.396 . S
C2062 C2063 1.399 . S
C2063 H2049 0.929 . S
C2063 C2062 1.399 . S
C2063 C2064 1.385 . S
C2064 H2050 0.931 . S
C2064 C2063 1.385 . S
C2064 C2065 1.389 . S
C2065 C2064 1.389 . S
C2065 C2066 1.387 . S
C2066 H2051 0.930 . S
C2066 C2061 1.390 . S
C2066 C2065 1.387 . S
H2067 C2079 0.930 . S
H2068 C2081 0.930 . S
H2069 C2082 0.930 . S
H2070 C2086 0.959 . S
H2071 C2086 0.959 . S
H2072 C2086 0.961 . S
H2073 C2087 0.960 . S
H2074 C2087 0.961 . S
H2075 C2087 0.959 . S
H2076 C2090 0.929 . S
H2077 C2091 0.931 . S
H2078 C2093 0.930 . S
C2079 H2067 0.930 . S
C2079 C2080 1.399 . S
C2079 C2084 1.399 . S
C2080 C2079 1.399 . S
C2080 C2081 1.376 . S
C2081 H2068 0.930 . S
C2081 C2080 1.376 . S
C2081 C2082 1.388 . S
C2082 H2069 0.930 . S
C2082 C2081 1.388 . S
C2082 C2083 1.390 . S
C2083 C2082 1.390 . S
C2083 C2084 1.394 . S
C2083 C2089 1.465 . S
C2084 C2079 1.399 . S
C2084 C2083 1.394 . S
C2084 C2085 1.516 . S
C2085 C2084 1.516 . S
C2085 C2086 1.502 . S
C2085 C2087 1.561 . S
C2085 C2088 1.526 . S
C2086 H2070 0.959 . S
C2086 H2071 0.959 . S
C2086 H2072 0.961 . S
C2086 C2085 1.502 . S
C2087 H2073 0.960 . S
C2087 H2074 0.961 . S
C2087 H2075 0.959 . S
C2087 C2085 1.561 . S
C2088 C2085 1.526 . S
C2088 C2089 1.396 . S
C2088 C2093 1.390 . S
C2089 C2083 1.465 . S
C2089 C2088 1.396 . S
C2089 C2090 1.399 . S
C2090 H2076 0.929 . S
C2090 C2089 1.399 . S
C2090 C2091 1.385 . S
C2091 H2077 0.931 . S
C2091 C2090 1.385 . S
C2091 C2092 1.389 . S
C2092 C2091 1.389 . S
C2092 C2093 1.387 . S
C2093 H2078 0.930 . S
C2093 C2088 1.390 . S
C2093 C2092 1.387 . S
H2094 C2106 0.930 . S
H2095 C2108 0.930 . S
H2096 C2109 0.930 . S
H2097 C2113 0.959 . S
H2098 C2113 0.959 . S
H2099 C2113 0.961 . S
H2100 C2114 0.960 . S
H2101 C2114 0.961 . S
H2102 C2114 0.959 . S
H2103 C2117 0.929 . S
H2104 C2118 0.931 . S
H2105 C2120 0.930 . S
C2106 H2094 0.930 . S
C2106 C2107 1.399 . S
C2106 C2111 1.399 . S
C2107 C2106 1.399 . S
C2107 C2108 1.376 . S
C2108 H2095 0.930 . S
C2108 C2107 1.376 . S
C2108 C2109 1.388 . S
C2109 H2096 0.930 . S
C2109 C2108 1.388 . S
C2109 C2110 1.390 . S
C2110 C2109 1.390 . S
C2110 C2111 1.394 . S
C2110 C2116 1.465 . S
C2111 C2106 1.399 . S
C2111 C2110 1.394 . S
C2111 C2112 1.516 . S
C2112 C2111 1.516 . S
C2112 C2113 1.502 . S
C2112 C2114 1.561 . S
C2112 C2115 1.526 . S
C2113 H2097 0.959 . S
C2113 H2098 0.959 . S
C2113 H2099 0.961 . S
C2113 C2112 1.502 . S
C2114 H2100 0.960 . S
C2114 H2101 0.961 . S
C2114 H2102 0.959 . S
C2114 C2112 1.561 . S
C2115 C2112 1.526 . S
C2115 C2116 1.396 . S
C2115 C2120 1.390 . S
C2116 C2110 1.465 . S
C2116 C2115 1.396 . S
C2116 C2117 1.399 . S
C2117 H2103 0.929 . S
C2117 C2116 1.399 . S
C2117 C2118 1.385 . S
C2118 H2104 0.931 . S
C2118 C2117 1.385 . S
C2118 C2119 1.389 . S
C2119 C2118 1.389 . S
C2119 C2120 1.387 . S
C2120 H2105 0.930 . S
C2120 C2115 1.390 . S
C2120 C2119 1.387 . S
H2121 C2133 0.930 . S
H2122 C2135 0.930 . S
H2123 C2136 0.930 . S
H2124 C2140 0.959 . S
H2125 C2140 0.959 . S
H2126 C2140 0.961 . S
H2127 C2141 0.960 . S
H2128 C2141 0.961 . S
H2129 C2141 0.959 . S
H2130 C2144 0.929 . S
H2131 C2145 0.931 . S
H2132 C2147 0.930 . S
C2133 H2121 0.930 . S
C2133 C2134 1.399 . S
C2133 C2138 1.399 . S
C2134 C2133 1.399 . S
C2134 C2135 1.376 . S
C2135 H2122 0.930 . S
C2135 C2134 1.376 . S
C2135 C2136 1.388 . S
C2136 H2123 0.930 . S
C2136 C2135 1.388 . S
C2136 C2137 1.390 . S
C2137 C2136 1.390 . S
C2137 C2138 1.394 . S
C2137 C2143 1.465 . S
C2138 C2133 1.399 . S
C2138 C2137 1.394 . S
C2138 C2139 1.516 . S
C2139 C2138 1.516 . S
C2139 C2140 1.502 . S
C2139 C2141 1.561 . S
C2139 C2142 1.526 . S
C2140 H2124 0.959 . S
C2140 H2125 0.959 . S
C2140 H2126 0.961 . S
C2140 C2139 1.502 . S
C2141 H2127 0.960 . S
C2141 H2128 0.961 . S
C2141 H2129 0.959 . S
C2141 C2139 1.561 . S
C2142 C2139 1.526 . S
C2142 C2143 1.396 . S
C2142 C2147 1.390 . S
C2143 C2137 1.465 . S
C2143 C2142 1.396 . S
C2143 C2144 1.399 . S
C2144 H2130 0.929 . S
C2144 C2143 1.399 . S
C2144 C2145 1.385 . S
C2145 H2131 0.931 . S
C2145 C2144 1.385 . S
C2145 C2146 1.389 . S
C2146 C2145 1.389 . S
C2146 C2147 1.387 . S
C2147 H2132 0.930 . S
C2147 C2142 1.390 . S
C2147 C2146 1.387 . S
H2148 C2160 0.930 . S
H2149 C2162 0.930 . S
H2150 C2163 0.930 . S
H2151 C2167 0.959 . S
H2152 C2167 0.959 . S
H2153 C2167 0.961 . S
H2154 C2168 0.960 . S
H2155 C2168 0.961 . S
H2156 C2168 0.959 . S
H2157 C2171 0.929 . S
H2158 C2172 0.931 . S
H2159 C2174 0.930 . S
C2160 H2148 0.930 . S
C2160 C2161 1.399 . S
C2160 C2165 1.399 . S
C2161 C2160 1.399 . S
C2161 C2162 1.376 . S
C2162 H2149 0.930 . S
C2162 C2161 1.376 . S
C2162 C2163 1.388 . S
C2163 H2150 0.930 . S
C2163 C2162 1.388 . S
C2163 C2164 1.390 . S
C2164 C2163 1.390 . S
C2164 C2165 1.394 . S
C2164 C2170 1.465 . S
C2165 C2160 1.399 . S
C2165 C2164 1.394 . S
C2165 C2166 1.516 . S
C2166 C2165 1.516 . S
C2166 C2167 1.502 . S
C2166 C2168 1.561 . S
C2166 C2169 1.526 . S
C2167 H2151 0.959 . S
C2167 H2152 0.959 . S
C2167 H2153 0.961 . S
C2167 C2166 1.502 . S
C2168 H2154 0.960 . S
C2168 H2155 0.961 . S
C2168 H2156 0.959 . S
C2168 C2166 1.561 . S
C2169 C2166 1.526 . S
C2169 C2170 1.396 . S
C2169 C2174 1.390 . S
C2170 C2164 1.465 . S
C2170 C2169 1.396 . S
C2170 C2171 1.399 . S
C2171 H2157 0.929 . S
C2171 C2170 1.399 . S
C2171 C2172 1.385 . S
C2172 H2158 0.931 . S
C2172 C2171 1.385 . S
C2172 C2173 1.389 . S
C2173 C2172 1.389 . S
C2173 C2174 1.387 . S
C2174 H2159 0.930 . S
C2174 C2169 1.390 . S
C2174 C2173 1.387 . S
H2175 C2187 0.930 . S
H2176 C2189 0.930 . S
H2177 C2190 0.930 . S
H2178 C2194 0.959 . S
H2179 C2194 0.959 . S
H2180 C2194 0.961 . S
H2181 C2195 0.960 . S
H2182 C2195 0.961 . S
H2183 C2195 0.959 . S
H2184 C2198 0.929 . S
H2185 C2199 0.931 . S
H2186 C2201 0.930 . S
C2187 H2175 0.930 . S
C2187 C2188 1.399 . S
C2187 C2192 1.399 . S
C2188 C2187 1.399 . S
C2188 C2189 1.376 . S
C2189 H2176 0.930 . S
C2189 C2188 1.376 . S
C2189 C2190 1.388 . S
C2190 H2177 0.930 . S
C2190 C2189 1.388 . S
C2190 C2191 1.390 . S
C2191 C2190 1.390 . S
C2191 C2192 1.394 . S
C2191 C2197 1.465 . S
C2192 C2187 1.399 . S
C2192 C2191 1.394 . S
C2192 C2193 1.516 . S
C2193 C2192 1.516 . S
C2193 C2194 1.502 . S
C2193 C2195 1.561 . S
C2193 C2196 1.526 . S
C2194 H2178 0.959 . S
C2194 H2179 0.959 . S
C2194 H2180 0.961 . S
C2194 C2193 1.502 . S
C2195 H2181 0.960 . S
C2195 H2182 0.961 . S
C2195 H2183 0.959 . S
C2195 C2193 1.561 . S
C2196 C2193 1.526 . S
C2196 C2197 1.396 . S
C2196 C2201 1.390 . S
C2197 C2191 1.465 . S
C2197 C2196 1.396 . S
C2197 C2198 1.399 . S
C2198 H2184 0.929 . S
C2198 C2197 1.399 . S
C2198 C2199 1.385 . S
C2199 H2185 0.931 . S
C2199 C2198 1.385 . S
C2199 C2200 1.389 . S
C2200 C2199 1.389 . S
C2200 C2201 1.387 . S
C2201 H2186 0.930 . S
C2201 C2196 1.390 . S
C2201 C2200 1.387 . S
H2202 C2214 0.930 . S
H2203 C2216 0.930 . S
H2204 C2217 0.930 . S
H2205 C2221 0.959 . S
H2206 C2221 0.959 . S
H2207 C2221 0.961 . S
H2208 C2222 0.960 . S
H2209 C2222 0.961 . S
H2210 C2222 0.959 . S
H2211 C2225 0.929 . S
H2212 C2226 0.931 . S
H2213 C2228 0.930 . S
C2214 H2202 0.930 . S
C2214 C2215 1.399 . S
C2214 C2219 1.399 . S
C2215 C2214 1.399 . S
C2215 C2216 1.376 . S
C2216 H2203 0.930 . S
C2216 C2215 1.376 . S
C2216 C2217 1.388 . S
C2217 H2204 0.930 . S
C2217 C2216 1.388 . S
C2217 C2218 1.390 . S
C2218 C2217 1.390 . S
C2218 C2219 1.394 . S
C2218 C2224 1.465 . S
C2219 C2214 1.399 . S
C2219 C2218 1.394 . S
C2219 C2220 1.516 . S
C2220 C2219 1.516 . S
C2220 C2221 1.502 . S
C2220 C2222 1.561 . S
C2220 C2223 1.526 . S
C2221 H2205 0.959 . S
C2221 H2206 0.959 . S
C2221 H2207 0.961 . S
C2221 C2220 1.502 . S
C2222 H2208 0.960 . S
C2222 H2209 0.961 . S
C2222 H2210 0.959 . S
C2222 C2220 1.561 . S
C2223 C2220 1.526 . S
C2223 C2224 1.396 . S
C2223 C2228 1.390 . S
C2224 C2218 1.465 . S
C2224 C2223 1.396 . S
C2224 C2225 1.399 . S
C2225 H2211 0.929 . S
C2225 C2224 1.399 . S
C2225 C2226 1.385 . S
C2226 H2212 0.931 . S
C2226 C2225 1.385 . S
C2226 C2227 1.389 . S
C2227 C2226 1.389 . S
C2227 C2228 1.387 . S
C2228 H2213 0.930 . S
C2228 C2223 1.390 . S
C2228 C2227 1.387 . S
H2229 C2241 0.930 . S
H2230 C2243 0.930 . S
H2231 C2244 0.930 . S
H2232 C2248 0.959 . S
H2233 C2248 0.959 . S
H2234 C2248 0.961 . S
H2235 C2249 0.960 . S
H2236 C2249 0.961 . S
H2237 C2249 0.959 . S
H2238 C2252 0.929 . S
H2239 C2253 0.931 . S
H2240 C2255 0.930 . S
C2241 H2229 0.930 . S
C2241 C2242 1.399 . S
C2241 C2246 1.399 . S
C2242 C2241 1.399 . S
C2242 C2243 1.376 . S
C2243 H2230 0.930 . S
C2243 C2242 1.376 . S
C2243 C2244 1.388 . S
C2244 H2231 0.930 . S
C2244 C2243 1.388 . S
C2244 C2245 1.390 . S
C2245 C2244 1.390 . S
C2245 C2246 1.394 . S
C2245 C2251 1.465 . S
C2246 C2241 1.399 . S
C2246 C2245 1.394 . S
C2246 C2247 1.516 . S
C2247 C2246 1.516 . S
C2247 C2248 1.502 . S
C2247 C2249 1.561 . S
C2247 C2250 1.526 . S
C2248 H2232 0.959 . S
C2248 H2233 0.959 . S
C2248 H2234 0.961 . S
C2248 C2247 1.502 . S
C2249 H2235 0.960 . S
C2249 H2236 0.961 . S
C2249 H2237 0.959 . S
C2249 C2247 1.561 . S
C2250 C2247 1.526 . S
C2250 C2251 1.396 . S
C2250 C2255 1.390 . S
C2251 C2245 1.465 . S
C2251 C2250 1.396 . S
C2251 C2252 1.399 . S
C2252 H2238 0.929 . S
C2252 C2251 1.399 . S
C2252 C2253 1.385 . S
C2253 H2239 0.931 . S
C2253 C2252 1.385 . S
C2253 C2254 1.389 . S
C2254 C2253 1.389 . S
C2254 C2255 1.387 . S
C2255 H2240 0.930 . S
C2255 C2250 1.390 . S
C2255 C2254 1.387 . S
H2256 C2268 0.930 . S
H2257 C2270 0.930 . S
H2258 C2271 0.930 . S
H2259 C2275 0.959 . S
H2260 C2275 0.959 . S
H2261 C2275 0.961 . S
H2262 C2276 0.960 . S
H2263 C2276 0.961 . S
H2264 C2276 0.959 . S
H2265 C2279 0.929 . S
H2266 C2280 0.931 . S
H2267 C2282 0.930 . S
C2268 H2256 0.930 . S
C2268 C2269 1.399 . S
C2268 C2273 1.399 . S
C2269 C2268 1.399 . S
C2269 C2270 1.376 . S
C2270 H2257 0.930 . S
C2270 C2269 1.376 . S
C2270 C2271 1.388 . S
C2271 H2258 0.930 . S
C2271 C2270 1.388 . S
C2271 C2272 1.390 . S
C2272 C2271 1.390 . S
C2272 C2273 1.394 . S
C2272 C2278 1.465 . S
C2273 C2268 1.399 . S
C2273 C2272 1.394 . S
C2273 C2274 1.516 . S
C2274 C2273 1.516 . S
C2274 C2275 1.502 . S
C2274 C2276 1.561 . S
C2274 C2277 1.526 . S
C2275 H2259 0.959 . S
C2275 H2260 0.959 . S
C2275 H2261 0.961 . S
C2275 C2274 1.502 . S
C2276 H2262 0.960 . S
C2276 H2263 0.961 . S
C2276 H2264 0.959 . S
C2276 C2274 1.561 . S
C2277 C2274 1.526 . S
C2277 C2278 1.396 . S
C2277 C2282 1.390 . S
C2278 C2272 1.465 . S
C2278 C2277 1.396 . S
C2278 C2279 1.399 . S
C2279 H2265 0.929 . S
C2279 C2278 1.399 . S
C2279 C2280 1.385 . S
C2280 H2266 0.931 . S
C2280 C2279 1.385 . S
C2280 C2281 1.389 . S
C2281 C2280 1.389 . S
C2281 C2282 1.387 . S
C2282 H2267 0.930 . S
C2282 C2277 1.390 . S
C2282 C2281 1.387 . S
H2283 C2295 0.930 . S
H2284 C2297 0.930 . S
H2285 C2298 0.930 . S
H2286 C2302 0.959 . S
H2287 C2302 0.959 . S
H2288 C2302 0.961 . S
H2289 C2303 0.960 . S
H2290 C2303 0.961 . S
H2291 C2303 0.959 . S
H2292 C2306 0.929 . S
H2293 C2307 0.931 . S
H2294 C2309 0.930 . S
C2295 H2283 0.930 . S
C2295 C2296 1.399 . S
C2295 C2300 1.399 . S
C2296 C2295 1.399 . S
C2296 C2297 1.376 . S
C2297 H2284 0.930 . S
C2297 C2296 1.376 . S
C2297 C2298 1.388 . S
C2298 H2285 0.930 . S
C2298 C2297 1.388 . S
C2298 C2299 1.390 . S
C2299 C2298 1.390 . S
C2299 C2300 1.394 . S
C2299 C2305 1.465 . S
C2300 C2295 1.399 . S
C2300 C2299 1.394 . S
C2300 C2301 1.516 . S
C2301 C2300 1.516 . S
C2301 C2302 1.502 . S
C2301 C2303 1.561 . S
C2301 C2304 1.526 . S
C2302 H2286 0.959 . S
C2302 H2287 0.959 . S
C2302 H2288 0.961 . S
C2302 C2301 1.502 . S
C2303 H2289 0.960 . S
C2303 H2290 0.961 . S
C2303 H2291 0.959 . S
C2303 C2301 1.561 . S
C2304 C2301 1.526 . S
C2304 C2305 1.396 . S
C2304 C2309 1.390 . S
C2305 C2299 1.465 . S
C2305 C2304 1.396 . S
C2305 C2306 1.399 . S
C2306 H2292 0.929 . S
C2306 C2305 1.399 . S
C2306 C2307 1.385 . S
C2307 H2293 0.931 . S
C2307 C2306 1.385 . S
C2307 C2308 1.389 . S
C2308 C2307 1.389 . S
C2308 C2309 1.387 . S
C2309 H2294 0.930 . S
C2309 C2304 1.390 . S
C2309 C2308 1.387 . S
H2310 C2322 0.930 . S
H2311 C2324 0.930 . S
H2312 C2325 0.930 . S
H2313 C2329 0.959 . S
H2314 C2329 0.959 . S
H2315 C2329 0.961 . S
H2316 C2330 0.960 . S
H2317 C2330 0.961 . S
H2318 C2330 0.959 . S
H2319 C2333 0.929 . S
H2320 C2334 0.931 . S
H2321 C2336 0.930 . S
C2322 H2310 0.930 . S
C2322 C2323 1.399 . S
C2322 C2327 1.399 . S
C2323 C2322 1.399 . S
C2323 C2324 1.376 . S
C2324 H2311 0.930 . S
C2324 C2323 1.376 . S
C2324 C2325 1.388 . S
C2325 H2312 0.930 . S
C2325 C2324 1.388 . S
C2325 C2326 1.390 . S
C2326 C2325 1.390 . S
C2326 C2327 1.394 . S
C2326 C2332 1.465 . S
C2327 C2322 1.399 . S
C2327 C2326 1.394 . S
C2327 C2328 1.516 . S
C2328 C2327 1.516 . S
C2328 C2329 1.502 . S
C2328 C2330 1.561 . S
C2328 C2331 1.526 . S
C2329 H2313 0.959 . S
C2329 H2314 0.959 . S
C2329 H2315 0.961 . S
C2329 C2328 1.502 . S
C2330 H2316 0.960 . S
C2330 H2317 0.961 . S
C2330 H2318 0.959 . S
C2330 C2328 1.561 . S
C2331 C2328 1.526 . S
C2331 C2332 1.396 . S
C2331 C2336 1.390 . S
C2332 C2326 1.465 . S
C2332 C2331 1.396 . S
C2332 C2333 1.399 . S
C2333 H2319 0.929 . S
C2333 C2332 1.399 . S
C2333 C2334 1.385 . S
C2334 H2320 0.931 . S
C2334 C2333 1.385 . S
C2334 C2335 1.389 . S
C2335 C2334 1.389 . S
C2335 C2336 1.387 . S
C2336 H2321 0.930 . S
C2336 C2331 1.390 . S
C2336 C2335 1.387 . S
H2337 C2349 0.930 . S
H2338 C2351 0.930 . S
H2339 C2352 0.930 . S
H2340 C2356 0.959 . S
H2341 C2356 0.959 . S
H2342 C2356 0.961 . S
H2343 C2357 0.960 . S
H2344 C2357 0.961 . S
H2345 C2357 0.959 . S
H2346 C2360 0.929 . S
H2347 C2361 0.931 . S
H2348 C2363 0.930 . S
C2349 H2337 0.930 . S
C2349 C2350 1.399 . S
C2349 C2354 1.399 . S
C2350 C2349 1.399 . S
C2350 C2351 1.376 . S
C2351 H2338 0.930 . S
C2351 C2350 1.376 . S
C2351 C2352 1.388 . S
C2352 H2339 0.930 . S
C2352 C2351 1.388 . S
C2352 C2353 1.390 . S
C2353 C2352 1.390 . S
C2353 C2354 1.394 . S
C2353 C2359 1.465 . S
C2354 C2349 1.399 . S
C2354 C2353 1.394 . S
C2354 C2355 1.516 . S
C2355 C2354 1.516 . S
C2355 C2356 1.502 . S
C2355 C2357 1.561 . S
C2355 C2358 1.526 . S
C2356 H2340 0.959 . S
C2356 H2341 0.959 . S
C2356 H2342 0.961 . S
C2356 C2355 1.502 . S
C2357 H2343 0.960 . S
C2357 H2344 0.961 . S
C2357 H2345 0.959 . S
C2357 C2355 1.561 . S
C2358 C2355 1.526 . S
C2358 C2359 1.396 . S
C2358 C2363 1.390 . S
C2359 C2353 1.465 . S
C2359 C2358 1.396 . S
C2359 C2360 1.399 . S
C2360 H2346 0.929 . S
C2360 C2359 1.399 . S
C2360 C2361 1.385 . S
C2361 H2347 0.931 . S
C2361 C2360 1.385 . S
C2361 C2362 1.389 . S
C2362 C2361 1.389 . S
C2362 C2363 1.387 . S
C2363 H2348 0.930 . S
C2363 C2358 1.390 . S
C2363 C2362 1.387 . S
H2364 C2376 0.930 . S
H2365 C2378 0.930 . S
H2366 C2379 0.930 . S
H2367 C2383 0.959 . S
H2368 C2383 0.959 . S
H2369 C2383 0.961 . S
H2370 C2384 0.960 . S
H2371 C2384 0.961 . S
H2372 C2384 0.959 . S
H2373 C2387 0.929 . S
H2374 C2388 0.931 . S
H2375 C2390 0.930 . S
C2376 H2364 0.930 . S
C2376 C2377 1.399 . S
C2376 C2381 1.399 . S
C2377 C2376 1.399 . S
C2377 C2378 1.376 . S
C2378 H2365 0.930 . S
C2378 C2377 1.376 . S
C2378 C2379 1.388 . S
C2379 H2366 0.930 . S
C2379 C2378 1.388 . S
C2379 C2380 1.390 . S
C2380 C2379 1.390 . S
C2380 C2381 1.394 . S
C2380 C2386 1.465 . S
C2381 C2376 1.399 . S
C2381 C2380 1.394 . S
C2381 C2382 1.516 . S
C2382 C2381 1.516 . S
C2382 C2383 1.502 . S
C2382 C2384 1.561 . S
C2382 C2385 1.526 . S
C2383 H2367 0.959 . S
C2383 H2368 0.959 . S
C2383 H2369 0.961 . S
C2383 C2382 1.502 . S
C2384 H2370 0.960 . S
C2384 H2371 0.961 . S
C2384 H2372 0.959 . S
C2384 C2382 1.561 . S
C2385 C2382 1.526 . S
C2385 C2386 1.396 . S
C2385 C2390 1.390 . S
C2386 C2380 1.465 . S
C2386 C2385 1.396 . S
C2386 C2387 1.399 . S
C2387 H2373 0.929 . S
C2387 C2386 1.399 . S
C2387 C2388 1.385 . S
C2388 H2374 0.931 . S
C2388 C2387 1.385 . S
C2388 C2389 1.389 . S
C2389 C2388 1.389 . S
C2389 C2390 1.387 . S
C2390 H2375 0.930 . S
C2390 C2385 1.390 . S
C2390 C2389 1.387 . S
H2391 C2403 0.930 . S
H2392 C2405 0.930 . S
H2393 C2406 0.930 . S
H2394 C2410 0.959 . S
H2395 C2410 0.959 . S
H2396 C2410 0.961 . S
H2397 C2411 0.960 . S
H2398 C2411 0.961 . S
H2399 C2411 0.959 . S
H2400 C2414 0.929 . S
H2401 C2415 0.931 . S
H2402 C2417 0.930 . S
C2403 H2391 0.930 . S
C2403 C2404 1.399 . S
C2403 C2408 1.399 . S
C2404 C2403 1.399 . S
C2404 C2405 1.376 . S
C2405 H2392 0.930 . S
C2405 C2404 1.376 . S
C2405 C2406 1.388 . S
C2406 H2393 0.930 . S
C2406 C2405 1.388 . S
C2406 C2407 1.390 . S
C2407 C2406 1.390 . S
C2407 C2408 1.394 . S
C2407 C2413 1.465 . S
C2408 C2403 1.399 . S
C2408 C2407 1.394 . S
C2408 C2409 1.516 . S
C2409 C2408 1.516 . S
C2409 C2410 1.502 . S
C2409 C2411 1.561 . S
C2409 C2412 1.526 . S
C2410 H2394 0.959 . S
C2410 H2395 0.959 . S
C2410 H2396 0.961 . S
C2410 C2409 1.502 . S
C2411 H2397 0.960 . S
C2411 H2398 0.961 . S
C2411 H2399 0.959 . S
C2411 C2409 1.561 . S
C2412 C2409 1.526 . S
C2412 C2413 1.396 . S
C2412 C2417 1.390 . S
C2413 C2407 1.465 . S
C2413 C2412 1.396 . S
C2413 C2414 1.399 . S
C2414 H2400 0.929 . S
C2414 C2413 1.399 . S
C2414 C2415 1.385 . S
C2415 H2401 0.931 . S
C2415 C2414 1.385 . S
C2415 C2416 1.389 . S
C2416 C2415 1.389 . S
C2416 C2417 1.387 . S
C2417 H2402 0.930 . S
C2417 C2412 1.390 . S
C2417 C2416 1.387 . S
H2418 C2430 0.930 . S
H2419 C2432 0.930 . S
H2420 C2433 0.930 . S
H2421 C2437 0.959 . S
H2422 C2437 0.959 . S
H2423 C2437 0.961 . S
H2424 C2438 0.960 . S
H2425 C2438 0.961 . S
H2426 C2438 0.959 . S
H2427 C2441 0.929 . S
H2428 C2442 0.931 . S
H2429 C2444 0.930 . S
C2430 H2418 0.930 . S
C2430 C2431 1.399 . S
C2430 C2435 1.399 . S
C2431 C2430 1.399 . S
C2431 C2432 1.376 . S
C2432 H2419 0.930 . S
C2432 C2431 1.376 . S
C2432 C2433 1.388 . S
C2433 H2420 0.930 . S
C2433 C2432 1.388 . S
C2433 C2434 1.390 . S
C2434 C2433 1.390 . S
C2434 C2435 1.394 . S
C2434 C2440 1.465 . S
C2435 C2430 1.399 . S
C2435 C2434 1.394 . S
C2435 C2436 1.516 . S
C2436 C2435 1.516 . S
C2436 C2437 1.502 . S
C2436 C2438 1.561 . S
C2436 C2439 1.526 . S
C2437 H2421 0.959 . S
C2437 H2422 0.959 . S
C2437 H2423 0.961 . S
C2437 C2436 1.502 . S
C2438 H2424 0.960 . S
C2438 H2425 0.961 . S
C2438 H2426 0.959 . S
C2438 C2436 1.561 . S
C2439 C2436 1.526 . S
C2439 C2440 1.396 . S
C2439 C2444 1.390 . S
C2440 C2434 1.465 . S
C2440 C2439 1.396 . S
C2440 C2441 1.399 . S
C2441 H2427 0.929 . S
C2441 C2440 1.399 . S
C2441 C2442 1.385 . S
C2442 H2428 0.931 . S
C2442 C2441 1.385 . S
C2442 C2443 1.389 . S
C2443 C2442 1.389 . S
C2443 C2444 1.387 . S
C2444 H2429 0.930 . S
C2444 C2439 1.390 . S
C2444 C2443 1.387 . S
H2445 C2457 0.930 . S
H2446 C2459 0.930 . S
H2447 C2460 0.930 . S
H2448 C2464 0.959 . S
H2449 C2464 0.959 . S
H2450 C2464 0.961 . S
H2451 C2465 0.960 . S
H2452 C2465 0.961 . S
H2453 C2465 0.959 . S
H2454 C2468 0.929 . S
H2455 C2469 0.931 . S
H2456 C2471 0.930 . S
C2457 H2445 0.930 . S
C2457 C2458 1.399 . S
C2457 C2462 1.399 . S
C2458 C2457 1.399 . S
C2458 C2459 1.376 . S
C2459 H2446 0.930 . S
C2459 C2458 1.376 . S
C2459 C2460 1.388 . S
C2460 H2447 0.930 . S
C2460 C2459 1.388 . S
C2460 C2461 1.390 . S
C2461 C2460 1.390 . S
C2461 C2462 1.394 . S
C2461 C2467 1.465 . S
C2462 C2457 1.399 . S
C2462 C2461 1.394 . S
C2462 C2463 1.516 . S
C2463 C2462 1.516 . S
C2463 C2464 1.502 . S
C2463 C2465 1.561 . S
C2463 C2466 1.526 . S
C2464 H2448 0.959 . S
C2464 H2449 0.959 . S
C2464 H2450 0.961 . S
C2464 C2463 1.502 . S
C2465 H2451 0.960 . S
C2465 H2452 0.961 . S
C2465 H2453 0.959 . S
C2465 C2463 1.561 . S
C2466 C2463 1.526 . S
C2466 C2467 1.396 . S
C2466 C2471 1.390 . S
C2467 C2461 1.465 . S
C2467 C2466 1.396 . S
C2467 C2468 1.399 . S
C2468 H2454 0.929 . S
C2468 C2467 1.399 . S
C2468 C2469 1.385 . S
C2469 H2455 0.931 . S
C2469 C2468 1.385 . S
C2469 C2470 1.389 . S
C2470 C2469 1.389 . S
C2470 C2471 1.387 . S
C2471 H2456 0.930 . S
C2471 C2466 1.390 . S
C2471 C2470 1.387 . S
H2472 C2484 0.930 . S
H2473 C2486 0.930 . S
H2474 C2487 0.930 . S
H2475 C2491 0.959 . S
H2476 C2491 0.959 . S
H2477 C2491 0.961 . S
H2478 C2492 0.960 . S
H2479 C2492 0.961 . S
H2480 C2492 0.959 . S
H2481 C2495 0.929 1_554 S
H2482 C2496 0.931 . S
H2483 C2498 0.930 . S
C2484 H2472 0.930 . S
C2484 C2485 1.399 . S
C2484 C2489 1.399 . S
C2485 C2484 1.399 . S
C2485 C2486 1.376 1_556 S
C2486 H2473 0.930 . S
C2486 C2485 1.376 1_554 S
C2486 C2487 1.388 . S
C2487 H2474 0.930 . S
C2487 C2486 1.388 . S
C2487 C2488 1.390 1_554 S
C2488 C2487 1.390 1_556 S
C2488 C2489 1.394 . S
C2488 C2494 1.465 . S
C2489 C2484 1.399 . S
C2489 C2488 1.394 . S
C2489 C2490 1.516 . S
C2490 C2489 1.516 . S
C2490 C2491 1.502 . S
C2490 C2492 1.561 . S
C2490 C2493 1.526 . S
C2491 H2475 0.959 . S
C2491 H2476 0.959 . S
C2491 H2477 0.961 . S
C2491 C2490 1.502 . S
C2492 H2478 0.960 . S
C2492 H2479 0.961 . S
C2492 H2480 0.959 . S
C2492 C2490 1.561 . S
C2493 C2490 1.526 . S
C2493 C2494 1.396 . S
C2493 C2498 1.390 . S
C2494 C2488 1.465 . S
C2494 C2493 1.396 . S
C2494 C2495 1.399 . S
C2495 H2481 0.929 1_556 S
C2495 C2494 1.399 . S
C2495 C2496 1.385 . S
C2496 H2482 0.931 . S
C2496 C2495 1.385 . S
C2496 C2497 1.389 . S
C2497 C2496 1.389 . S
C2497 C2498 1.387 . S
C2498 H2483 0.930 . S
C2498 C2493 1.390 . S
C2498 C2497 1.387 . S
H2499 C2511 0.930 . S
H2500 C2513 0.930 . S
H2501 C2514 0.930 . S
H2502 C2518 0.959 . S
H2503 C2518 0.959 . S
H2504 C2518 0.961 . S
H2505 C2519 0.960 . S
H2506 C2519 0.961 . S
H2507 C2519 0.959 . S
H2508 C2522 0.929 1_556 S
H2509 C2523 0.931 . S
H2510 C2525 0.930 . S
C2511 H2499 0.930 . S
C2511 C2512 1.399 1_554 S
C2511 C2516 1.399 . S
C2512 C2511 1.399 1_556 S
C2512 C2513 1.376 . S
C2513 H2500 0.930 . S
C2513 C2512 1.376 . S
C2513 C2514 1.388 . S
C2514 H2501 0.930 . S
C2514 C2513 1.388 . S
C2514 C2515 1.390 . S
C2515 C2514 1.390 . S
C2515 C2516 1.393 1_556 S
C2515 C2521 1.465 1_556 S
C2516 C2511 1.399 . S
C2516 C2515 1.393 1_554 S
C2516 C2517 1.516 . S
C2517 C2516 1.516 . S
C2517 C2518 1.502 . S
C2517 C2519 1.561 . S
C2517 C2520 1.526 . S
C2518 H2502 0.959 . S
C2518 H2503 0.959 . S
C2518 H2504 0.961 . S
C2518 C2517 1.502 . S
C2519 H2505 0.960 . S
C2519 H2506 0.961 . S
C2519 H2507 0.959 . S
C2519 C2517 1.561 . S
C2520 C2517 1.526 . S
C2520 C2521 1.396 . S
C2520 C2525 1.390 . S
C2521 C2515 1.465 1_554 S
C2521 C2520 1.396 . S
C2521 C2522 1.399 . S
C2522 H2508 0.929 1_554 S
C2522 C2521 1.399 . S
C2522 C2523 1.385 . S
C2523 H2509 0.931 . S
C2523 C2522 1.385 . S
C2523 C2524 1.389 . S
C2524 C2523 1.389 . S
C2524 C2525 1.387 . S
C2525 H2510 0.930 . S
C2525 C2520 1.390 . S
C2525 C2524 1.387 . S
H2526 C2538 0.930 . S
H2527 C2540 0.930 . S
H2528 C2541 0.930 . S
H2529 C2545 0.959 . S
H2530 C2545 0.959 . S
H2531 C2545 0.961 . S
H2532 C2546 0.960 . S
H2533 C2546 0.961 . S
H2534 C2546 0.959 . S
H2535 C2549 0.929 . S
H2536 C2550 0.931 . S
H2537 C2552 0.930 . S
C2538 H2526 0.930 . S
C2538 C2539 1.399 . S
C2538 C2543 1.399 . S
C2539 C2538 1.399 . S
C2539 C2540 1.376 . S
C2540 H2527 0.930 . S
C2540 C2539 1.376 . S
C2540 C2541 1.388 . S
C2541 H2528 0.930 . S
C2541 C2540 1.388 . S
C2541 C2542 1.390 . S
C2542 C2541 1.390 . S
C2542 C2543 1.394 . S
C2542 C2548 1.465 . S
C2543 C2538 1.399 . S
C2543 C2542 1.394 . S
C2543 C2544 1.516 . S
C2544 C2543 1.516 . S
C2544 C2545 1.502 . S
C2544 C2546 1.561 . S
C2544 C2547 1.526 . S
C2545 H2529 0.959 . S
C2545 H2530 0.959 . S
C2545 H2531 0.961 . S
C2545 C2544 1.502 . S
C2546 H2532 0.960 . S
C2546 H2533 0.961 . S
C2546 H2534 0.959 . S
C2546 C2544 1.561 . S
C2547 C2544 1.526 . S
C2547 C2548 1.396 . S
C2547 C2552 1.390 . S
C2548 C2542 1.465 . S
C2548 C2547 1.396 . S
C2548 C2549 1.399 . S
C2549 H2535 0.929 . S
C2549 C2548 1.399 . S
C2549 C2550 1.385 . S
C2550 H2536 0.931 . S
C2550 C2549 1.385 . S
C2550 C2551 1.389 . S
C2551 C2550 1.389 . S
C2551 C2552 1.387 . S
C2552 H2537 0.930 . S
C2552 C2547 1.390 . S
C2552 C2551 1.387 . S
H2553 C2565 0.930 . S
H2554 C2567 0.930 . S
H2555 C2568 0.930 . S
H2556 C2572 0.959 . S
H2557 C2572 0.959 . S
H2558 C2572 0.961 . S
H2559 C2573 0.960 . S
H2560 C2573 0.961 . S
H2561 C2573 0.959 . S
H2562 C2576 0.929 . S
H2563 C2577 0.931 . S
H2564 C2579 0.930 . S
C2565 H2553 0.930 . S
C2565 C2566 1.399 . S
C2565 C2570 1.399 . S
C2566 C2565 1.399 . S
C2566 C2567 1.376 . S
C2567 H2554 0.930 . S
C2567 C2566 1.376 . S
C2567 C2568 1.388 . S
C2568 H2555 0.930 . S
C2568 C2567 1.388 . S
C2568 C2569 1.390 . S
C2569 C2568 1.390 . S
C2569 C2570 1.394 . S
C2569 C2575 1.465 . S
C2570 C2565 1.399 . S
C2570 C2569 1.394 . S
C2570 C2571 1.516 . S
C2571 C2570 1.516 . S
C2571 C2572 1.502 . S
C2571 C2573 1.561 . S
C2571 C2574 1.526 . S
C2572 H2556 0.959 . S
C2572 H2557 0.959 . S
C2572 H2558 0.961 . S
C2572 C2571 1.502 . S
C2573 H2559 0.960 . S
C2573 H2560 0.961 . S
C2573 H2561 0.959 . S
C2573 C2571 1.561 . S
C2574 C2571 1.526 . S
C2574 C2575 1.396 . S
C2574 C2579 1.390 . S
C2575 C2569 1.465 . S
C2575 C2574 1.396 . S
C2575 C2576 1.399 . S
C2576 H2562 0.929 . S
C2576 C2575 1.399 . S
C2576 C2577 1.385 . S
C2577 H2563 0.931 . S
C2577 C2576 1.385 . S
C2577 C2578 1.389 . S
C2578 C2577 1.389 . S
C2578 C2579 1.387 . S
C2579 H2564 0.930 . S
C2579 C2574 1.390 . S
C2579 C2578 1.387 . S
H2580 C2592 0.930 . S
H2581 C2594 0.930 . S
H2582 C2595 0.930 . S
H2583 C2599 0.959 . S
H2584 C2599 0.959 . S
H2585 C2599 0.961 . S
H2586 C2600 0.960 . S
H2587 C2600 0.961 . S
H2588 C2600 0.959 . S
H2589 C2603 0.929 . S
H2590 C2604 0.931 . S
H2591 C2606 0.930 . S
C2592 H2580 0.930 . S
C2592 C2593 1.399 . S
C2592 C2597 1.399 . S
C2593 C2592 1.399 . S
C2593 C2594 1.376 . S
C2594 H2581 0.930 . S
C2594 C2593 1.376 . S
C2594 C2595 1.388 . S
C2595 H2582 0.930 . S
C2595 C2594 1.388 . S
C2595 C2596 1.390 . S
C2596 C2595 1.390 . S
C2596 C2597 1.394 . S
C2596 C2602 1.465 . S
C2597 C2592 1.399 . S
C2597 C2596 1.394 . S
C2597 C2598 1.516 . S
C2598 C2597 1.516 . S
C2598 C2599 1.502 . S
C2598 C2600 1.561 . S
C2598 C2601 1.526 . S
C2599 H2583 0.959 . S
C2599 H2584 0.959 . S
C2599 H2585 0.961 . S
C2599 C2598 1.502 . S
C2600 H2586 0.960 . S
C2600 H2587 0.961 . S
C2600 H2588 0.959 . S
C2600 C2598 1.561 . S
C2601 C2598 1.526 . S
C2601 C2602 1.396 . S
C2601 C2606 1.390 . S
C2602 C2596 1.465 . S
C2602 C2601 1.396 . S
C2602 C2603 1.399 . S
C2603 H2589 0.929 . S
C2603 C2602 1.399 . S
C2603 C2604 1.385 . S
C2604 H2590 0.931 . S
C2604 C2603 1.385 . S
C2604 C2605 1.389 . S
C2605 C2604 1.389 . S
C2605 C2606 1.387 . S
C2606 H2591 0.930 . S
C2606 C2601 1.390 . S
C2606 C2605 1.387 . S
H2607 C2619 0.930 . S
H2608 C2621 0.930 . S
H2609 C2622 0.930 . S
H2610 C2626 0.959 . S
H2611 C2626 0.959 . S
H2612 C2626 0.961 . S
H2613 C2627 0.960 . S
H2614 C2627 0.961 . S
H2615 C2627 0.959 . S
H2616 C2630 0.929 . S
H2617 C2631 0.931 . S
H2618 C2633 0.930 . S
C2619 H2607 0.930 . S
C2619 C2620 1.399 . S
C2619 C2624 1.399 . S
C2620 C2619 1.399 . S
C2620 C2621 1.376 . S
C2621 H2608 0.930 . S
C2621 C2620 1.376 . S
C2621 C2622 1.388 . S
C2622 H2609 0.930 . S
C2622 C2621 1.388 . S
C2622 C2623 1.390 . S
C2623 C2622 1.390 . S
C2623 C2624 1.394 . S
C2623 C2629 1.465 . S
C2624 C2619 1.399 . S
C2624 C2623 1.394 . S
C2624 C2625 1.516 . S
C2625 C2624 1.516 . S
C2625 C2626 1.502 . S
C2625 C2627 1.561 . S
C2625 C2628 1.526 . S
C2626 H2610 0.959 . S
C2626 H2611 0.959 . S
C2626 H2612 0.961 . S
C2626 C2625 1.502 . S
C2627 H2613 0.960 . S
C2627 H2614 0.961 . S
C2627 H2615 0.959 . S
C2627 C2625 1.561 . S
C2628 C2625 1.526 . S
C2628 C2629 1.396 . S
C2628 C2633 1.390 . S
C2629 C2623 1.465 . S
C2629 C2628 1.396 . S
C2629 C2630 1.399 . S
C2630 H2616 0.929 . S
C2630 C2629 1.399 . S
C2630 C2631 1.385 . S
C2631 H2617 0.931 . S
C2631 C2630 1.385 . S
C2631 C2632 1.389 . S
C2632 C2631 1.389 . S
C2632 C2633 1.387 . S
C2633 H2618 0.930 . S
C2633 C2628 1.390 . S
C2633 C2632 1.387 . S
H2634 C2646 0.930 . S
H2635 C2648 0.930 . S
H2636 C2649 0.930 . S
H2637 C2653 0.959 . S
H2638 C2653 0.959 . S
H2639 C2653 0.961 . S
H2640 C2654 0.960 . S
H2641 C2654 0.961 . S
H2642 C2654 0.959 . S
H2643 C2657 0.929 . S
H2644 C2658 0.931 . S
H2645 C2660 0.930 . S
C2646 H2634 0.930 . S
C2646 C2647 1.399 . S
C2646 C2651 1.399 . S
C2647 C2646 1.399 . S
C2647 C2648 1.376 . S
C2648 H2635 0.930 . S
C2648 C2647 1.376 . S
C2648 C2649 1.388 . S
C2649 H2636 0.930 . S
C2649 C2648 1.388 . S
C2649 C2650 1.390 . S
C2650 C2649 1.390 . S
C2650 C2651 1.394 . S
C2650 C2656 1.465 . S
C2651 C2646 1.399 . S
C2651 C2650 1.394 . S
C2651 C2652 1.516 . S
C2652 C2651 1.516 . S
C2652 C2653 1.502 . S
C2652 C2654 1.561 . S
C2652 C2655 1.526 . S
C2653 H2637 0.959 . S
C2653 H2638 0.959 . S
C2653 H2639 0.961 . S
C2653 C2652 1.502 . S
C2654 H2640 0.960 . S
C2654 H2641 0.961 . S
C2654 H2642 0.959 . S
C2654 C2652 1.561 . S
C2655 C2652 1.526 . S
C2655 C2656 1.396 . S
C2655 C2660 1.390 . S
C2656 C2650 1.465 . S
C2656 C2655 1.396 . S
C2656 C2657 1.399 . S
C2657 H2643 0.929 . S
C2657 C2656 1.399 . S
C2657 C2658 1.385 . S
C2658 H2644 0.931 . S
C2658 C2657 1.385 . S
C2658 C2659 1.389 . S
C2659 C2658 1.389 . S
C2659 C2660 1.387 . S
C2660 H2645 0.930 . S
C2660 C2655 1.390 . S
C2660 C2659 1.387 . S
H2661 C2673 0.930 . S
H2662 C2675 0.930 . S
H2663 C2676 0.930 . S
H2664 C2680 0.959 . S
H2665 C2680 0.959 . S
H2666 C2680 0.961 . S
H2667 C2681 0.960 . S
H2668 C2681 0.961 . S
H2669 C2681 0.959 . S
H2670 C2684 0.929 . S
H2671 C2685 0.931 . S
H2672 C2687 0.930 . S
C2673 H2661 0.930 . S
C2673 C2674 1.399 . S
C2673 C2678 1.399 . S
C2674 C2673 1.399 . S
C2674 C2675 1.376 . S
C2675 H2662 0.930 . S
C2675 C2674 1.376 . S
C2675 C2676 1.388 . S
C2676 H2663 0.930 . S
C2676 C2675 1.388 . S
C2676 C2677 1.390 . S
C2677 C2676 1.390 . S
C2677 C2678 1.394 . S
C2677 C2683 1.465 . S
C2678 C2673 1.399 . S
C2678 C2677 1.394 . S
C2678 C2679 1.516 . S
C2679 C2678 1.516 . S
C2679 C2680 1.502 . S
C2679 C2681 1.561 . S
C2679 C2682 1.526 . S
C2680 H2664 0.959 . S
C2680 H2665 0.959 . S
C2680 H2666 0.961 . S
C2680 C2679 1.502 . S
C2681 H2667 0.960 . S
C2681 H2668 0.961 . S
C2681 H2669 0.959 . S
C2681 C2679 1.561 . S
C2682 C2679 1.526 . S
C2682 C2683 1.396 . S
C2682 C2687 1.390 . S
C2683 C2677 1.465 . S
C2683 C2682 1.396 . S
C2683 C2684 1.399 . S
C2684 H2670 0.929 . S
C2684 C2683 1.399 . S
C2684 C2685 1.385 . S
C2685 H2671 0.931 . S
C2685 C2684 1.385 . S
C2685 C2686 1.389 . S
C2686 C2685 1.389 . S
C2686 C2687 1.387 . S
C2687 H2672 0.930 . S
C2687 C2682 1.390 . S
C2687 C2686 1.387 . S
H2688 C2700 0.930 . S
H2689 C2702 0.930 . S
H2690 C2703 0.930 . S
H2691 C2707 0.959 . S
H2692 C2707 0.959 . S
H2693 C2707 0.961 . S
H2694 C2708 0.960 . S
H2695 C2708 0.961 . S
H2696 C2708 0.959 . S
H2697 C2711 0.929 . S
H2698 C2712 0.931 . S
H2699 C2714 0.930 . S
C2700 H2688 0.930 . S
C2700 C2701 1.399 . S
C2700 C2705 1.399 . S
C2701 C2700 1.399 . S
C2701 C2702 1.376 . S
C2702 H2689 0.930 . S
C2702 C2701 1.376 . S
C2702 C2703 1.388 . S
C2703 H2690 0.930 . S
C2703 C2702 1.388 . S
C2703 C2704 1.390 . S
C2704 C2703 1.390 . S
C2704 C2705 1.394 . S
C2704 C2710 1.465 . S
C2705 C2700 1.399 . S
C2705 C2704 1.394 . S
C2705 C2706 1.516 . S
C2706 C2705 1.516 . S
C2706 C2707 1.502 . S
C2706 C2708 1.561 . S
C2706 C2709 1.526 . S
C2707 H2691 0.959 . S
C2707 H2692 0.959 . S
C2707 H2693 0.961 . S
C2707 C2706 1.502 . S
C2708 H2694 0.960 . S
C2708 H2695 0.961 . S
C2708 H2696 0.959 . S
C2708 C2706 1.561 . S
C2709 C2706 1.526 . S
C2709 C2710 1.396 . S
C2709 C2714 1.390 . S
C2710 C2704 1.465 . S
C2710 C2709 1.396 . S
C2710 C2711 1.399 . S
C2711 H2697 0.929 . S
C2711 C2710 1.399 . S
C2711 C2712 1.385 . S
C2712 H2698 0.931 . S
C2712 C2711 1.385 . S
C2712 C2713 1.389 . S
C2713 C2712 1.389 . S
C2713 C2714 1.387 . S
C2714 H2699 0.930 . S
C2714 C2709 1.390 . S
C2714 C2713 1.387 . S
H2715 C2727 0.930 . S
H2716 C2729 0.930 . S
H2717 C2730 0.930 . S
H2718 C2734 0.959 . S
H2719 C2734 0.959 . S
H2720 C2734 0.961 . S
H2721 C2735 0.960 1_545 S
H2722 C2735 0.961 . S
H2723 C2735 0.959 . S
H2724 C2738 0.929 . S
H2725 C2739 0.931 . S
H2726 C2741 0.930 . S
C2727 H2715 0.930 . S
C2727 C2728 1.399 . S
C2727 C2732 1.399 . S
C2728 C2727 1.399 . S
C2728 C2729 1.376 . S
C2729 H2716 0.930 . S
C2729 C2728 1.376 . S
C2729 C2730 1.388 . S
C2730 H2717 0.930 . S
C2730 C2729 1.388 . S
C2730 C2731 1.390 . S
C2731 C2730 1.390 . S
C2731 C2732 1.394 . S
C2731 C2737 1.465 . S
C2732 C2727 1.399 . S
C2732 C2731 1.394 . S
C2732 C2733 1.516 . S
C2733 C2732 1.516 . S
C2733 C2734 1.502 . S
C2733 C2735 1.561 . S
C2733 C2736 1.526 . S
C2734 H2718 0.959 . S
C2734 H2719 0.959 . S
C2734 H2720 0.961 . S
C2734 C2733 1.502 . S
C2735 H2721 0.960 1_565 S
C2735 H2722 0.961 . S
C2735 H2723 0.959 . S
C2735 C2733 1.561 . S
C2736 C2733 1.526 . S
C2736 C2737 1.396 . S
C2736 C2741 1.390 . S
C2737 C2731 1.465 . S
C2737 C2736 1.396 . S
C2737 C2738 1.399 . S
C2738 H2724 0.929 . S
C2738 C2737 1.399 . S
C2738 C2739 1.385 . S
C2739 H2725 0.931 . S
C2739 C2738 1.385 . S
C2739 C2740 1.389 . S
C2740 C2739 1.389 . S
C2740 C2741 1.387 . S
C2741 H2726 0.930 . S
C2741 C2736 1.390 . S
C2741 C2740 1.387 . S
H2742 C2754 0.930 . S
H2743 C2756 0.930 . S
H2744 C2757 0.930 . S
H2745 C2761 0.959 . S
H2746 C2761 0.959 . S
H2747 C2761 0.961 . S
H2748 C2762 0.960 . S
H2749 C2762 0.961 . S
H2750 C2762 0.959 . S
H2751 C2765 0.929 . S
H2752 C2766 0.931 . S
H2753 C2768 0.930 . S
C2754 H2742 0.930 . S
C2754 C2755 1.399 . S
C2754 C2759 1.399 . S
C2755 C2754 1.399 . S
C2755 C2756 1.376 . S
C2756 H2743 0.930 . S
C2756 C2755 1.376 . S
C2756 C2757 1.388 . S
C2757 H2744 0.930 . S
C2757 C2756 1.388 . S
C2757 C2758 1.390 . S
C2758 C2757 1.390 . S
C2758 C2759 1.394 . S
C2758 C2764 1.465 . S
C2759 C2754 1.399 . S
C2759 C2758 1.394 . S
C2759 C2760 1.516 . S
C2760 C2759 1.516 . S
C2760 C2761 1.502 . S
C2760 C2762 1.561 . S
C2760 C2763 1.526 . S
C2761 H2745 0.959 . S
C2761 H2746 0.959 . S
C2761 H2747 0.961 . S
C2761 C2760 1.502 . S
C2762 H2748 0.960 . S
C2762 H2749 0.961 . S
C2762 H2750 0.959 . S
C2762 C2760 1.561 . S
C2763 C2760 1.526 . S
C2763 C2764 1.396 . S
C2763 C2768 1.390 . S
C2764 C2758 1.465 . S
C2764 C2763 1.396 . S
C2764 C2765 1.399 . S
C2765 H2751 0.929 . S
C2765 C2764 1.399 . S
C2765 C2766 1.385 . S
C2766 H2752 0.931 . S
C2766 C2765 1.385 . S
C2766 C2767 1.389 . S
C2767 C2766 1.389 . S
C2767 C2768 1.387 . S
C2768 H2753 0.930 . S
C2768 C2763 1.390 . S
C2768 C2767 1.387 . S
H2769 C2781 0.930 . S
H2770 C2783 0.930 . S
H2771 C2784 0.930 . S
H2772 C2788 0.959 . S
H2773 C2788 0.959 . S
H2774 C2788 0.961 . S
H2775 C2789 0.960 . S
H2776 C2789 0.961 . S
H2777 C2789 0.959 . S
H2778 C2792 0.929 . S
H2779 C2793 0.931 . S
H2780 C2795 0.930 . S
C2781 H2769 0.930 . S
C2781 C2782 1.399 . S
C2781 C2786 1.399 . S
C2782 C2781 1.399 . S
C2782 C2783 1.376 . S
C2783 H2770 0.930 . S
C2783 C2782 1.376 . S
C2783 C2784 1.388 . S
C2784 H2771 0.930 . S
C2784 C2783 1.388 . S
C2784 C2785 1.390 . S
C2785 C2784 1.390 . S
C2785 C2786 1.394 . S
C2785 C2791 1.465 . S
C2786 C2781 1.399 . S
C2786 C2785 1.394 . S
C2786 C2787 1.516 . S
C2787 C2786 1.516 . S
C2787 C2788 1.502 . S
C2787 C2789 1.561 . S
C2787 C2790 1.526 . S
C2788 H2772 0.959 . S
C2788 H2773 0.959 . S
C2788 H2774 0.961 . S
C2788 C2787 1.502 . S
C2789 H2775 0.960 . S
C2789 H2776 0.961 . S
C2789 H2777 0.959 . S
C2789 C2787 1.561 . S
C2790 C2787 1.526 . S
C2790 C2791 1.396 . S
C2790 C2795 1.390 . S
C2791 C2785 1.465 . S
C2791 C2790 1.396 . S
C2791 C2792 1.399 . S
C2792 H2778 0.929 . S
C2792 C2791 1.399 . S
C2792 C2793 1.385 . S
C2793 H2779 0.931 . S
C2793 C2792 1.385 . S
C2793 C2794 1.389 . S
C2794 C2793 1.389 . S
C2794 C2795 1.387 . S
C2795 H2780 0.930 . S
C2795 C2790 1.390 . S
C2795 C2794 1.387 . S
H2796 C2808 0.935 . S
H2797 C2810 0.930 . S
H2798 C2811 0.930 . S
H2799 C2815 0.959 . S
H2800 C2815 0.959 . S
H2801 C2815 0.961 . S
H2802 C2816 0.960 . S
H2803 C2816 0.961 . S
H2804 C2816 0.959 1_554 S
H2805 C2819 0.929 . S
H2806 C2820 0.931 . S
H2807 C2822 0.930 . S
C2808 H2796 0.935 . S
C2808 C2809 1.396 1_556 S
C2808 C2813 1.396 1_556 S
C2809 C2808 1.396 1_554 S
C2809 C2810 1.376 . S
C2810 H2797 0.930 . S
C2810 C2809 1.376 . S
C2810 C2811 1.388 . S
C2811 H2798 0.930 . S
C2811 C2810 1.388 . S
C2811 C2812 1.390 . S
C2812 C2811 1.390 . S
C2812 C2813 1.394 . S
C2812 C2818 1.465 . S
C2813 C2808 1.396 1_554 S
C2813 C2812 1.394 . S
C2813 C2814 1.516 . S
C2814 C2813 1.516 . S
C2814 C2815 1.502 1_554 S
C2814 C2816 1.561 1_554 S
C2814 C2817 1.526 . S
C2815 H2799 0.959 . S
C2815 H2800 0.959 . S
C2815 H2801 0.961 . S
C2815 C2814 1.502 1_556 S
C2816 H2802 0.960 . S
C2816 H2803 0.961 . S
C2816 H2804 0.959 1_556 S
C2816 C2814 1.561 1_556 S
C2817 C2814 1.526 . S
C2817 C2818 1.396 . S
C2817 C2822 1.390 . S
C2818 C2812 1.465 . S
C2818 C2817 1.396 . S
C2818 C2819 1.399 . S
C2819 H2805 0.929 . S
C2819 C2818 1.399 . S
C2819 C2820 1.385 . S
C2820 H2806 0.931 . S
C2820 C2819 1.385 . S
C2820 C2821 1.389 . S
C2821 C2820 1.389 . S
C2821 C2822 1.387 . S
C2822 H2807 0.930 . S
C2822 C2817 1.390 . S
C2822 C2821 1.387 . S
H2823 C2835 0.930 . S
H2824 C2837 0.930 . S
H2825 C2838 0.930 . S
H2826 C2842 0.959 . S
H2827 C2842 0.959 . S
H2828 C2842 0.961 . S
H2829 C2843 0.960 . S
H2830 C2843 0.961 . S
H2831 C2843 0.959 . S
H2832 C2846 0.929 . S
H2833 C2847 0.931 . S
H2834 C2849 0.930 . S
C2835 H2823 0.930 . S
C2835 C2836 1.399 . S
C2835 C2840 1.399 . S
C2836 C2835 1.399 . S
C2836 C2837 1.376 . S
C2837 H2824 0.930 . S
C2837 C2836 1.376 . S
C2837 C2838 1.388 . S
C2838 H2825 0.930 . S
C2838 C2837 1.388 . S
C2838 C2839 1.390 . S
C2839 C2838 1.390 . S
C2839 C2840 1.394 . S
C2839 C2845 1.465 . S
C2840 C2835 1.399 . S
C2840 C2839 1.394 . S
C2840 C2841 1.516 1_556 S
C2841 C2840 1.516 1_554 S
C2841 C2842 1.502 . S
C2841 C2843 1.561 . S
C2841 C2844 1.526 . S
C2842 H2826 0.959 . S
C2842 H2827 0.959 . S
C2842 H2828 0.961 . S
C2842 C2841 1.502 . S
C2843 H2829 0.960 . S
C2843 H2830 0.961 . S
C2843 H2831 0.959 . S
C2843 C2841 1.561 . S
C2844 C2841 1.526 . S
C2844 C2845 1.396 1_554 S
C2844 C2849 1.390 . S
C2845 C2839 1.465 . S
C2845 C2844 1.396 1_556 S
C2845 C2846 1.399 . S
C2846 H2832 0.929 . S
C2846 C2845 1.399 . S
C2846 C2847 1.385 . S
C2847 H2833 0.931 . S
C2847 C2846 1.385 . S
C2847 C2848 1.389 1_556 S
C2848 C2847 1.389 1_554 S
C2848 C2849 1.387 . S
C2849 H2834 0.930 . S
C2849 C2844 1.390 . S
C2849 C2848 1.387 . S
H2850 C2862 0.930 . S
H2851 C2864 0.930 . S
H2852 C2865 0.930 . S
H2853 C2869 0.959 . S
H2854 C2869 0.959 . S
H2855 C2869 0.961 . S
H2856 C2870 0.960 . S
H2857 C2870 0.961 . S
H2858 C2870 0.959 . S
H2859 C2873 0.929 . S
H2860 C2874 0.931 . S
H2861 C2876 0.930 . S
C2862 H2850 0.930 . S
C2862 C2863 1.399 . S
C2862 C2867 1.399 . S
C2863 C2862 1.399 . S
C2863 C2864 1.376 . S
C2864 H2851 0.930 . S
C2864 C2863 1.376 . S
C2864 C2865 1.388 . S
C2865 H2852 0.930 . S
C2865 C2864 1.388 . S
C2865 C2866 1.390 . S
C2866 C2865 1.390 . S
C2866 C2867 1.394 . S
C2866 C2872 1.465 . S
C2867 C2862 1.399 . S
C2867 C2866 1.394 . S
C2867 C2868 1.516 . S
C2868 C2867 1.516 . S
C2868 C2869 1.502 . S
C2868 C2870 1.561 . S
C2868 C2871 1.526 . S
C2869 H2853 0.959 . S
C2869 H2854 0.959 . S
C2869 H2855 0.961 . S
C2869 C2868 1.502 . S
C2870 H2856 0.960 . S
C2870 H2857 0.961 . S
C2870 H2858 0.959 . S
C2870 C2868 1.561 . S
C2871 C2868 1.526 . S
C2871 C2872 1.396 . S
C2871 C2876 1.390 . S
C2872 C2866 1.465 . S
C2872 C2871 1.396 . S
C2872 C2873 1.399 . S
C2873 H2859 0.929 . S
C2873 C2872 1.399 . S
C2873 C2874 1.385 . S
C2874 H2860 0.931 . S
C2874 C2873 1.385 . S
C2874 C2875 1.389 . S
C2875 C2874 1.389 . S
C2875 C2876 1.387 . S
C2876 H2861 0.930 . S
C2876 C2871 1.390 . S
C2876 C2875 1.387 . S
H2877 C2889 0.930 . S
H2878 C2891 0.930 . S
H2879 C2892 0.930 . S
H2880 C2896 0.959 . S
H2881 C2896 0.959 . S
H2882 C2896 0.961 . S
H2883 C2897 0.960 . S
H2884 C2897 0.961 . S
H2885 C2897 0.959 . S
H2886 C2900 0.929 . S
H2887 C2901 0.931 . S
H2888 C2903 0.930 . S
C2889 H2877 0.930 . S
C2889 C2890 1.399 . S
C2889 C2894 1.399 . S
C2890 C2889 1.399 . S
C2890 C2891 1.376 . S
C2891 H2878 0.930 . S
C2891 C2890 1.376 . S
C2891 C2892 1.388 . S
C2892 H2879 0.930 . S
C2892 C2891 1.388 . S
C2892 C2893 1.390 . S
C2893 C2892 1.390 . S
C2893 C2894 1.394 . S
C2893 C2899 1.465 . S
C2894 C2889 1.399 . S
C2894 C2893 1.394 . S
C2894 C2895 1.516 . S
C2895 C2894 1.516 . S
C2895 C2896 1.502 . S
C2895 C2897 1.561 . S
C2895 C2898 1.526 . S
C2896 H2880 0.959 . S
C2896 H2881 0.959 . S
C2896 H2882 0.961 . S
C2896 C2895 1.502 . S
C2897 H2883 0.960 . S
C2897 H2884 0.961 . S
C2897 H2885 0.959 . S
C2897 C2895 1.561 . S
C2898 C2895 1.526 . S
C2898 C2899 1.396 . S
C2898 C2903 1.390 . S
C2899 C2893 1.465 . S
C2899 C2898 1.396 . S
C2899 C2900 1.399 . S
C2900 H2886 0.929 . S
C2900 C2899 1.399 . S
C2900 C2901 1.385 . S
C2901 H2887 0.931 . S
C2901 C2900 1.385 . S
C2901 C2902 1.389 . S
C2902 C2901 1.389 . S
C2902 C2903 1.387 . S
C2903 H2888 0.930 . S
C2903 C2898 1.390 . S
C2903 C2902 1.387 . S
C973 C23 0.335 . S
C985 C745 0.124 . S
C1000 C780 2.733 . S
C1012 C63 2.575 . S
C1027 C103 1.878 . S
C1039 C660 2.003 . S
C1054 C143 1.966 . S
C1066 C700 2.164 . S
C1081 C900 3.000 . S
C1093 C183 2.857 . S
C1108 C223 0.668 . S
C1120 C865 0.649 . S
C1135 C945 0.829 . S
C1147 C242 0.854 . S
C1162 C303 2.067 . S
C1174 C820 2.278 . S
C1189 C343 1.694 . S
C1201 C540 1.856 . S
C1216 C362 2.218 . S
C1228 C620 2.219 . S
C1243 C580 1.366 . S
C1255 C423 1.305 . S
C1270 C442 2.363 . S
C1282 C500 2.366 . S
C1297 C482 0.533 . S
C1309 C244 0.369 . S
C1324 C522 2.572 . S
C1336 C311 2.737 . S
C1351 C562 1.874 . S
C1363 C191 2.008 . S
C1378 C231 2.167 . S
C1390 C602 1.999 . S
C1405 C642 2.839 . S
C1417 C431 2.998 . S
C1432 C364 0.633 . S
C1444 C682 0.607 . S
C1459 C444 0.818 . S
C1471 C743 0.859 . S
C1486 C351 2.268 . S
C1498 C762 2.062 . S
C1513 C71 1.859 . S
C1525 C802 1.684 . S
C1540 C151 2.221 . S
C1552 C863 2.216 . S
C1567 C111 1.358 . S
C1579 C882 1.206 . S
C1594 C943 2.378 . S
C1606 C31 2.354 . S
C1621 C180 1.048 . S
C1633 C4 1.081 . S
C1648 C220 1.647 . S
C1660 C44 1.588 . S
C1675 C265 0.675 . S
C1687 C84 0.470 . S
C1702 C300 1.805 . S
C1714 C124 1.826 . S
C1729 C164 1.490 . S
C1741 C340 1.450 . S
C1756 C204 0.534 . S
C1768 C465 0.567 . S
C1783 C271 1.100 . S
C1795 C385 1.080 . S
C1810 C284 1.947 . S
C1822 C420 1.950 . S
C1837 C324 1.541 . S
C1849 C20 1.593 . S
C1864 C391 2.962 . S
C1876 C100 2.974 . S
C1891 C404 1.540 . S
C1903 C140 1.547 . S
C1918 C60 2.491 . S
C1930 C471 2.477 . S
C1945 C671 1.075 . S
C1957 C505 1.073 . S
C1972 C711 1.595 . S
C1984 C545 1.646 . S
C1999 C585 0.491 . S
C2011 C724 0.623 . S
C2026 C625 1.816 . S
C2038 C791 1.823 . S
C2053 C831 1.468 . S
C2065 C665 1.484 . S
C2080 C705 0.549 . S
C2092 C924 0.572 . S
C2107 C844 1.108 . S
C2119 C740 1.093 . S
C2134 C785 1.949 . S
C2146 C911 1.940 . S
C2161 C511 1.572 . S
C2173 C825 1.586 . S
C2188 C860 2.941 . S
C2200 C591 2.987 . S
C2215 C905 1.532 . S
C2227 C631 1.547 . S
C2242 C551 2.489 . S
C2254 C940 2.460 . S
C2269 C2 3.222 . S
C2281 C380 3.272 1_554 S
C2296 C425 1.694 . S
C2308 C42 1.680 . S
C2323 C345 1.822 . S
C2335 C82 1.782 . S
C2350 C460 2.850 . S
C2362 C122 2.811 . S
C2377 C162 1.372 . S
C2389 C145 1.417 . S
C2404 C105 1.655 . S
C2416 C202 1.617 . S
C2431 C263 1.153 . S
C2443 C65 1.129 . S
C2458 C25 1.141 . S
C2470 C282 1.083 . S
C2485 C322 1.265 1_556 S
C2497 C225 1.378 . S
C2512 C383 1.573 . S
C2524 C305 1.794 . S
C2539 C402 2.443 . S
C2551 C260 2.495 . S
C2566 C463 1.569 . S
C2578 C185 1.796 . S
C2593 C503 3.200 . S
C2605 C871 3.280 1_556 S
C2620 C543 1.704 . S
C2632 C884 1.680 . S
C2647 C804 1.815 . S
C2659 C583 1.790 . S
C2674 C951 2.862 . S
C2686 C623 2.795 . S
C2701 C663 1.372 . S
C2713 C604 1.417 . S
C2728 C703 1.643 . S
C2740 C564 1.611 . S
C2755 C524 1.230 . S
C2767 C722 1.006 . S
C2782 C783 1.076 . S
C2794 C484 1.144 . S
C2809 C823 1.357 1_554 S
C2821 C684 1.304 . S
C2836 C764 1.759 . S
C2848 C842 1.671 . S
C2863 C903 2.431 . S
C2875 C751 2.501 . S
C2890 C922 1.562 . S
C2902 C644 1.795 . S
