# Generated by pormake.
# Topology upc, (4)-cn, num edge types: 1
# Building blocks:
#     Node 0, Type 0, BuildingBlock: GALJAG_clean_sbu_0, # of connection points: 4
#     Node 1, Type 0, BuildingBlock: GALJAG_clean_sbu_0, # of connection points: 4
#     Node 2, Type 0, BuildingBlock: GALJAG_clean_sbu_0, # of connection points: 4
#     Node 3, Type 0, BuildingBlock: GALJAG_clean_sbu_0, # of connection points: 4
#     Node 4, Type 0, BuildingBlock: GALJAG_clean_sbu_0, # of connection points: 4
#     Node 5, Type 0, BuildingBlock: GALJAG_clean_sbu_0, # of connection points: 4
#     Node 6, Type 0, BuildingBlock: GALJAG_clean_sbu_0, # of connection points: 4
#     Node 7, Type 0, BuildingBlock: GALJAG_clean_sbu_0, # of connection points: 4
#     Node 8, Type 0, BuildingBlock: GALJAG_clean_sbu_0, # of connection points: 4
#     Node 9, Type 0, BuildingBlock: GALJAG_clean_sbu_0, # of connection points: 4
#     Node 10, Type 0, BuildingBlock: GALJAG_clean_sbu_0, # of connection points: 4
#     Node 11, Type 0, BuildingBlock: GALJAG_clean_sbu_0, # of connection points: 4
#     Node 12, Type 0, BuildingBlock: GALJAG_clean_sbu_0, # of connection points: 4
#     Node 13, Type 0, BuildingBlock: GALJAG_clean_sbu_0, # of connection points: 4
#     Node 14, Type 0, BuildingBlock: GALJAG_clean_sbu_0, # of connection points: 4
#     Node 15, Type 0, BuildingBlock: GALJAG_clean_sbu_0, # of connection points: 4
#     Edge 16, Type (0, 0), BuildingBlock: KIFKEQ_clean_linker_1, # of connection points: 2
#     Edge 17, Type (0, 0), BuildingBlock: KIFKEQ_clean_linker_1, # of connection points: 2
#     Edge 18, Type (0, 0), BuildingBlock: KIFKEQ_clean_linker_1, # of connection points: 2
#     Edge 19, Type (0, 0), BuildingBlock: KIFKEQ_clean_linker_1, # of connection points: 2
#     Edge 20, Type (0, 0), BuildingBlock: KIFKEQ_clean_linker_1, # of connection points: 2
#     Edge 21, Type (0, 0), BuildingBlock: KIFKEQ_clean_linker_1, # of connection points: 2
#     Edge 22, Type (0, 0), BuildingBlock: KIFKEQ_clean_linker_1, # of connection points: 2
#     Edge 23, Type (0, 0), BuildingBlock: KIFKEQ_clean_linker_1, # of connection points: 2
#     Edge 24, Type (0, 0), BuildingBlock: KIFKEQ_clean_linker_1, # of connection points: 2
#     Edge 25, Type (0, 0), BuildingBlock: KIFKEQ_clean_linker_1, # of connection points: 2
#     Edge 26, Type (0, 0), BuildingBlock: KIFKEQ_clean_linker_1, # of connection points: 2
#     Edge 27, Type (0, 0), BuildingBlock: KIFKEQ_clean_linker_1, # of connection points: 2
#     Edge 28, Type (0, 0), BuildingBlock: KIFKEQ_clean_linker_1, # of connection points: 2
#     Edge 29, Type (0, 0), BuildingBlock: KIFKEQ_clean_linker_1, # of connection points: 2
#     Edge 30, Type (0, 0), BuildingBlock: KIFKEQ_clean_linker_1, # of connection points: 2
#     Edge 31, Type (0, 0), BuildingBlock: KIFKEQ_clean_linker_1, # of connection points: 2
#     Edge 32, Type (0, 0), BuildingBlock: KIFKEQ_clean_linker_1, # of connection points: 2
#     Edge 33, Type (0, 0), BuildingBlock: KIFKEQ_clean_linker_1, # of connection points: 2
#     Edge 34, Type (0, 0), BuildingBlock: KIFKEQ_clean_linker_1, # of connection points: 2
#     Edge 35, Type (0, 0), BuildingBlock: KIFKEQ_clean_linker_1, # of connection points: 2
#     Edge 36, Type (0, 0), BuildingBlock: KIFKEQ_clean_linker_1, # of connection points: 2
#     Edge 37, Type (0, 0), BuildingBlock: KIFKEQ_clean_linker_1, # of connection points: 2
#     Edge 38, Type (0, 0), BuildingBlock: KIFKEQ_clean_linker_1, # of connection points: 2
#     Edge 39, Type (0, 0), BuildingBlock: KIFKEQ_clean_linker_1, # of connection points: 2
#     Edge 40, Type (0, 0), BuildingBlock: KIFKEQ_clean_linker_1, # of connection points: 2
#     Edge 41, Type (0, 0), BuildingBlock: KIFKEQ_clean_linker_1, # of connection points: 2
#     Edge 42, Type (0, 0), BuildingBlock: KIFKEQ_clean_linker_1, # of connection points: 2
#     Edge 43, Type (0, 0), BuildingBlock: KIFKEQ_clean_linker_1, # of connection points: 2
#     Edge 44, Type (0, 0), BuildingBlock: KIFKEQ_clean_linker_1, # of connection points: 2
#     Edge 45, Type (0, 0), BuildingBlock: KIFKEQ_clean_linker_1, # of connection points: 2
#     Edge 46, Type (0, 0), BuildingBlock: KIFKEQ_clean_linker_1, # of connection points: 2
#     Edge 47, Type (0, 0), BuildingBlock: KIFKEQ_clean_linker_1, # of connection points: 2
# Relax obj value: 0.220
# Max RMSD: 0.228
# Mean RMSD: 0.228
data_MOF--net-upc--node1-GALJAG_clean_sbu_0--edge1-KIFKEQ_clean_linker_1
_symmetry_space_group_name_H-M    P1
_symmetry_Int_Tables_number       1
_symmetry_cell_setting            triclinic
loop_
_symmetry_equiv_pos_as_xyz
'x, y, z'
_cell_length_a     36.024441
_cell_length_b     36.063635
_cell_length_c     41.484044
_cell_angle_alpha  90.055109
_cell_angle_beta   90.123787
_cell_angle_gamma 90.049834
loop_
_atom_site_label
_atom_site_type_symbol
_atom_site_fract_x
_atom_site_fract_y
_atom_site_fract_z
_atom_type_partial_charge
In0 In 0.09636 0.60671 0.11665 0.0
O1 O 0.1242 0.55905 0.14494 0.0
O2 O 0.06632 0.55623 0.13499 0.0
C3 C 0.15852 0.64718 0.10584 0.0
C4 C 0.06553 0.58032 0.0625 0.0
C5 C 0.05823 0.65496 0.1537 0.0
O6 O 0.15539 0.62526 0.12937 0.0
O7 O 0.13132 0.64687 0.08667 0.0
O8 O 0.05923 0.6576 0.12344 0.0
O9 O 0.07606 0.62795 0.16505 0.0
C10 C 0.09418 0.5411 0.14774 0.0
O11 O 0.04874 0.60172 0.08163 0.0
O12 O 0.09909 0.57386 0.06965 0.0
In13 In 0.89811 0.09567 0.13205 0.0
O14 O 0.89915 0.05278 0.0924 0.0
O15 O 0.93038 0.10228 0.08512 0.0
C16 C 0.84806 0.04955 0.15884 0.0
C17 C 0.96288 0.09403 0.16524 0.0
C18 C 0.85795 0.15913 0.13153 0.0
O19 O 0.84257 0.06545 0.1322 0.0
O20 O 0.87924 0.05603 0.17147 0.0
O21 O 0.8658 0.14161 0.15692 0.0
O22 O 0.87253 0.1461 0.10627 0.0
C23 C 0.92167 0.07038 0.07486 0.0
O24 O 0.94192 0.12209 0.16601 0.0
O25 O 0.95118 0.06793 0.14789 0.0
In26 In 0.40879 0.89265 0.12779 0.0
O27 O 0.39299 0.91995 0.1756 0.0
O28 O 0.40577 0.95521 0.13632 0.0
C29 C 0.34566 0.85449 0.11424 0.0
C30 C 0.44704 0.92124 0.07817 0.0
C31 C 0.45293 0.84252 0.15728 0.0
O32 O 0.35024 0.87242 0.14004 0.0
O33 O 0.37184 0.85782 0.09435 0.0
O34 O 0.4335 0.83485 0.13288 0.0
O35 O 0.45109 0.87586 0.16621 0.0
C36 C 0.39785 0.9527 0.1658 0.0
O37 O 0.46235 0.90308 0.10054 0.0
O38 O 0.41211 0.92383 0.08023 0.0
In39 In 0.6101 0.41178 0.12425 0.0
O40 O 0.56349 0.38809 0.15631 0.0
O41 O 0.56099 0.44461 0.14184 0.0
C42 C 0.65094 0.34858 0.12513 0.0
C43 C 0.58247 0.43083 0.06651 0.0
C44 C 0.65975 0.4584 0.15149 0.0
O45 O 0.6384 0.36369 0.15023 0.0
O46 O 0.6408 0.36384 0.09922 0.0
O47 O 0.63125 0.4468 0.1658 0.0
O48 O 0.66274 0.44752 0.12269 0.0
C49 C 0.54612 0.41857 0.15738 0.0
O50 O 0.60778 0.44914 0.08044 0.0
O51 O 0.57265 0.40152 0.08089 0.0
In52 In 0.09119 0.89408 0.35408 0.0
O53 O 0.04144 0.89753 0.38705 0.0
O54 O 0.09241 0.92049 0.404 0.0
C55 C 0.05601 0.8553 0.30766 0.0
C56 C 0.09333 0.96128 0.32545 0.0
C57 C 0.14762 0.84769 0.36951 0.0
O58 O 0.04669 0.85339 0.3369 0.0
O59 O 0.08268 0.87693 0.30199 0.0
O60 O 0.15329 0.88089 0.36105 0.0
O61 O 0.11389 0.83882 0.37137 0.0
C62 C 0.05816 0.91526 0.40896 0.0
O63 O 0.12001 0.93866 0.32302 0.0
O64 O 0.0668 0.95013 0.3426 0.0
In65 In 0.61155 0.09075 0.35376 0.0
O66 O 0.60825 0.05196 0.3966 0.0
O67 O 0.5773 0.10219 0.3988 0.0
C68 C 0.65421 0.04894 0.31492 0.0
C69 C 0.54654 0.08121 0.32283 0.0
C70 C 0.65657 0.15038 0.36145 0.0
O71 O 0.65698 0.04754 0.34522 0.0
O72 O 0.63019 0.07125 0.30443 0.0
O73 O 0.62594 0.15265 0.3466 0.0
O74 O 0.66329 0.11887 0.37309 0.0
C75 C 0.58544 0.07169 0.41203 0.0
O76 O 0.5636 0.11198 0.32183 0.0
O77 O 0.56227 0.05639 0.33934 0.0
In78 In 0.40971 0.61089 0.35633 0.0
O79 O 0.38477 0.57025 0.31941 0.0
O80 O 0.43672 0.55725 0.34134 0.0
C81 C 0.35027 0.65498 0.36818 0.0
C82 C 0.43259 0.58073 0.41204 0.0
C83 C 0.45293 0.65397 0.31868 0.0
O84 O 0.34734 0.6249 0.35273 0.0
O85 O 0.38251 0.66182 0.37828 0.0
O86 O 0.45197 0.65781 0.34886 0.0
O87 O 0.43233 0.62875 0.30774 0.0
C88 C 0.41177 0.54786 0.32156 0.0
O89 O 0.45198 0.60366 0.39641 0.0
O90 O 0.40071 0.57458 0.40044 0.0
In91 In 0.90292 0.40423 0.34039 0.0
O92 O 0.94733 0.37736 0.30806 0.0
O93 O 0.95611 0.4322 0.32558 0.0
C94 C 0.85452 0.34879 0.35368 0.0
C95 C 0.92909 0.42824 0.39733 0.0
C96 C 0.86441 0.44298 0.29613 0.0
O97 O 0.88687 0.34248 0.34326 0.0
O98 O 0.84747 0.38256 0.35842 0.0
O99 O 0.86608 0.45306 0.32528 0.0
O100 O 0.88205 0.41374 0.2897 0.0
C101 C 0.96813 0.40569 0.30878 0.0
O102 O 0.90637 0.44683 0.38066 0.0
O103 O 0.93679 0.39655 0.38616 0.0
In104 In 0.91011 0.3985 0.84095 0.0
O105 O 0.95103 0.40121 0.88246 0.0
O106 O 0.90065 0.43173 0.88679 0.0
C107 C 0.95243 0.36155 0.79846 0.0
C108 C 0.91172 0.46406 0.80987 0.0
C109 C 0.85561 0.3482 0.85206 0.0
O110 O 0.96023 0.3627 0.82813 0.0
O111 O 0.92357 0.37909 0.79048 0.0
O112 O 0.84845 0.38088 0.84289 0.0
O113 O 0.88958 0.34178 0.85643 0.0
C114 C 0.93189 0.4237 0.89879 0.0
O115 O 0.88374 0.44282 0.80805 0.0
O116 O 0.93772 0.45224 0.82743 0.0
In117 In 0.11579 0.91998 0.85792 0.0
O118 O 0.10921 0.96175 0.89853 0.0
O119 O 0.07931 0.91092 0.90183 0.0
C120 C 0.15842 0.96183 0.81893 0.0
C121 C 0.05243 0.92345 0.82359 0.0
C122 C 0.16058 0.86104 0.86964 0.0
O123 O 0.16187 0.96281 0.84918 0.0
O124 O 0.13381 0.94003 0.80866 0.0
O125 O 0.12964 0.85755 0.8555 0.0
O126 O 0.16788 0.8936 0.87859 0.0
C127 C 0.0858 0.94251 0.91377 0.0
O128 O 0.07346 0.89531 0.82225 0.0
O129 O 0.06339 0.94885 0.84227 0.0
In130 In 0.59943 0.10447 0.85774 0.0
O131 O 0.56376 0.10193 0.90243 0.0
O132 O 0.61056 0.0659 0.90016 0.0
C133 C 0.55999 0.15259 0.82222 0.0
C134 C 0.58255 0.04262 0.82439 0.0
C135 C 0.66087 0.14695 0.86521 0.0
O136 O 0.55586 0.15005 0.85235 0.0
O137 O 0.58366 0.13083 0.8103 0.0
O138 O 0.66101 0.11811 0.84778 0.0
O139 O 0.63079 0.15268 0.8798 0.0
C140 C 0.58205 0.07613 0.9155 0.0
O141 O 0.61561 0.05472 0.82563 0.0
O142 O 0.55915 0.06168 0.83973 0.0
In143 In 0.39588 0.59902 0.85233 0.0
O144 O 0.42737 0.62178 0.80845 0.0
O145 O 0.45811 0.59345 0.84441 0.0
C146 C 0.3524 0.65755 0.86914 0.0
C147 C 0.42394 0.56154 0.90282 0.0
C148 C 0.35168 0.55713 0.81422 0.0
O149 O 0.38413 0.66184 0.85684 0.0
O150 O 0.34379 0.62429 0.87423 0.0
O151 O 0.34901 0.55709 0.8445 0.0
O152 O 0.37713 0.57751 0.80335 0.0
C153 C 0.45846 0.60911 0.8173 0.0
O154 O 0.40985 0.54572 0.87855 0.0
O155 O 0.42273 0.59661 0.9022 0.0
In156 In 0.90794 0.11317 0.62122 0.0
O157 O 0.94548 0.10643 0.57797 0.0
O158 O 0.89624 0.07373 0.57946 0.0
C159 C 0.95158 0.15835 0.65639 0.0
C160 C 0.91649 0.0519 0.65752 0.0
C161 C 0.84857 0.1579 0.61108 0.0
O162 O 0.95466 0.15588 0.62617 0.0
O163 O 0.92673 0.13815 0.66854 0.0
O164 O 0.84581 0.1275 0.62606 0.0
O165 O 0.88052 0.16454 0.60029 0.0
C166 C 0.9262 0.08122 0.56504 0.0
O167 O 0.88677 0.07067 0.65829 0.0
O168 O 0.94092 0.06403 0.63853 0.0
In169 In 0.39268 0.90753 0.62466 0.0
O170 O 0.40715 0.96027 0.59748 0.0
O171 O 0.42522 0.90903 0.57756 0.0
C172 C 0.34381 0.95245 0.65493 0.0
C173 C 0.44952 0.89518 0.66586 0.0
C174 C 0.35284 0.84629 0.60842 0.0
O175 O 0.37734 0.95016 0.66326 0.0
O176 O 0.33524 0.93296 0.63084 0.0
O177 O 0.37695 0.846 0.63056 0.0
O178 O 0.35047 0.87661 0.59354 0.0
C179 C 0.42491 0.94398 0.57547 0.0
O180 O 0.41596 0.89097 0.67387 0.0
O181 O 0.45434 0.90277 0.63649 0.0
In182 In 0.59062 0.39901 0.63164 0.0
O183 O 0.54401 0.40073 0.59522 0.0
O184 O 0.59487 0.42724 0.58264 0.0
C185 C 0.55563 0.35864 0.67676 0.0
C186 C 0.58618 0.46614 0.66007 0.0
C187 C 0.64774 0.35295 0.61773 0.0
O188 O 0.54589 0.35826 0.64753 0.0
O189 O 0.58283 0.37946 0.68311 0.0
O190 O 0.6531 0.3854 0.62845 0.0
O191 O 0.61414 0.3448 0.61309 0.0
C192 C 0.56154 0.42024 0.5751 0.0
O193 O 0.61603 0.44758 0.66081 0.0
O194 O 0.55989 0.45087 0.64505 0.0
In195 In 0.10852 0.59231 0.61824 0.0
O196 O 0.0662 0.62148 0.6515 0.0
O197 O 0.05197 0.56958 0.63062 0.0
C198 C 0.15612 0.64769 0.60248 0.0
C199 C 0.08473 0.5598 0.56369 0.0
C200 C 0.14863 0.55574 0.66296 0.0
O201 O 0.12295 0.65415 0.61072 0.0
O202 O 0.16421 0.61379 0.60092 0.0
O203 O 0.14951 0.54722 0.63347 0.0
O204 O 0.12717 0.58217 0.66977 0.0
C205 C 0.04249 0.59571 0.64895 0.0
O206 O 0.10201 0.54259 0.58553 0.0
O207 O 0.08118 0.59428 0.56849 0.0
H208 H 0.17182 0.69637 0.05701 0.0
H209 H 0.21285 0.66141 0.15004 0.0
H210 H 0.21609 0.74789 0.05708 0.0
H211 H 0.25694 0.71282 0.15009 0.0
H212 H 0.2941 0.83323 0.15852 0.0
H213 H 0.25009 0.782 0.15436 0.0
H214 H 0.28509 0.7619 0.05643 0.0
H215 H 0.32935 0.81326 0.06058 0.0
C216 C 0.19068 0.69934 0.07722 0.0
C217 C 0.1888 0.67487 0.10355 0.0
C218 C 0.21599 0.72885 0.07726 0.0
C219 C 0.2396 0.73471 0.1038 0.0
C220 C 0.23862 0.70941 0.12955 0.0
C221 C 0.21362 0.67973 0.12937 0.0
C222 C 0.29205 0.81828 0.13592 0.0
C223 C 0.31524 0.82727 0.10989 0.0
C224 C 0.2671 0.78867 0.13366 0.0
C225 C 0.26452 0.76758 0.10523 0.0
C226 C 0.28646 0.77764 0.07865 0.0
C227 C 0.31175 0.80707 0.08102 0.0
H228 H 0.84082 0.20696 0.08228 0.0
H229 H 0.8106 0.17794 0.17966 0.0
H230 H 0.79071 0.25257 0.08082 0.0
H231 H 0.7595 0.22156 0.17777 0.0
H232 H 0.69092 0.32623 0.1772 0.0
H233 H 0.74241 0.28296 0.17865 0.0
H234 H 0.72628 0.25962 0.07726 0.0
H235 H 0.6759 0.30486 0.07563 0.0
C236 C 0.82353 0.21044 0.10339 0.0
C237 C 0.82987 0.18911 0.13115 0.0
C238 C 0.79445 0.23625 0.10247 0.0
C239 C 0.77065 0.24086 0.12912 0.0
C240 C 0.77744 0.21957 0.15695 0.0
C241 C 0.80681 0.19434 0.15803 0.0
C242 C 0.69812 0.31158 0.15528 0.0
C243 C 0.67921 0.31882 0.12633 0.0
C244 C 0.72772 0.28657 0.15609 0.0
C245 C 0.73884 0.26752 0.12807 0.0
C246 C 0.71919 0.27419 0.09922 0.0
C247 C 0.68993 0.29977 0.09832 0.0
H248 H 0.22272 0.85803 0.3637 0.0
H249 H 0.14016 0.77466 0.3848 0.0
H250 H 0.27117 0.81065 0.36581 0.0
H251 H 0.18849 0.72749 0.38728 0.0
H252 H 0.2787 0.64913 0.34615 0.0
H253 H 0.22979 0.69596 0.34925 0.0
H254 H 0.30355 0.76819 0.40241 0.0
H255 H 0.35244 0.72168 0.39896 0.0
C256 C 0.215 0.82971 0.36923 0.0
C257 C 0.17763 0.8201 0.37401 0.0
C258 C 0.24274 0.80255 0.37052 0.0
C259 C 0.23367 0.76519 0.37651 0.0
C260 C 0.19637 0.75586 0.38213 0.0
C261 C 0.16871 0.78299 0.38095 0.0
C262 C 0.2843 0.67486 0.35875 0.0
C263 C 0.31943 0.68171 0.37225 0.0
C264 C 0.25627 0.70167 0.36063 0.0
C265 C 0.26282 0.73593 0.37597 0.0
C266 C 0.29775 0.74236 0.39003 0.0
C267 C 0.32568 0.71556 0.38824 0.0
H268 H 0.86197 0.27377 0.34526 0.0
H269 H 0.78211 0.35802 0.37079 0.0
H270 H 0.81333 0.22659 0.34857 0.0
H271 H 0.73364 0.31093 0.37428 0.0
H272 H 0.65058 0.22127 0.33781 0.0
H273 H 0.69859 0.26941 0.33751 0.0
H274 H 0.77294 0.196 0.38848 0.0
H275 H 0.7253 0.14807 0.3886 0.0
C276 C 0.83415 0.28215 0.35188 0.0
C277 C 0.82593 0.3196 0.3578 0.0
C278 C 0.80627 0.25514 0.35385 0.0
C279 C 0.76954 0.26503 0.36159 0.0
C280 C 0.7615 0.30245 0.36787 0.0
C281 C 0.78938 0.32938 0.36611 0.0
C282 C 0.67706 0.21561 0.34918 0.0
C283 C 0.68412 0.18088 0.3632 0.0
C284 C 0.70454 0.24317 0.34909 0.0
C285 C 0.7397 0.23645 0.36281 0.0
C286 C 0.7464 0.20191 0.3773 0.0
C287 C 0.71894 0.17453 0.37757 0.0
H288 H 0.86743 0.27486 0.86348 0.0
H289 H 0.77977 0.35471 0.84866 0.0
H290 H 0.82154 0.22539 0.86783 0.0
H291 H 0.73369 0.30499 0.85302 0.0
H292 H 0.66199 0.21299 0.89689 0.0
H293 H 0.70909 0.26139 0.89452 0.0
H294 H 0.77591 0.19233 0.83249 0.0
H295 H 0.72853 0.14361 0.83485 0.0
C296 C 0.8383 0.2819 0.86128 0.0
C297 C 0.8272 0.31877 0.85581 0.0
C298 C 0.81205 0.25346 0.86355 0.0
C299 C 0.774 0.26121 0.86072 0.0
C300 C 0.76282 0.29817 0.85559 0.0
C301 C 0.78917 0.32663 0.853 0.0
C302 C 0.68687 0.2079 0.88296 0.0
C303 C 0.69154 0.17439 0.86606 0.0
C304 C 0.71371 0.23583 0.8814 0.0
C305 C 0.74608 0.23087 0.86311 0.0
C306 C 0.75132 0.19692 0.84693 0.0
C307 C 0.72423 0.16901 0.84827 0.0
H308 H 0.2815 0.65237 0.89132 0.0
H309 H 0.36225 0.73169 0.85727 0.0
H310 H 0.23483 0.70116 0.89412 0.0
H311 H 0.31535 0.78061 0.85987 0.0
H312 H 0.23019 0.86515 0.8951 0.0
H313 H 0.2769 0.8164 0.89806 0.0
H314 H 0.19954 0.73916 0.85512 0.0
H315 H 0.15258 0.78803 0.85235 0.0
C316 C 0.28941 0.68034 0.88473 0.0
C317 C 0.3256 0.68818 0.87404 0.0
C318 C 0.26254 0.70823 0.8861 0.0
C319 C 0.27124 0.74471 0.87699 0.0
C320 C 0.3078 0.75283 0.86729 0.0
C321 C 0.33468 0.72482 0.86575 0.0
C322 C 0.22299 0.83768 0.88653 0.0
C323 C 0.18765 0.83044 0.87347 0.0
C324 C 0.24989 0.80982 0.88803 0.0
C325 C 0.24205 0.77394 0.8767 0.0
C326 C 0.20638 0.76644 0.86433 0.0
C327 C 0.17949 0.79443 0.86265 0.0
H328 H 0.6402 0.281 0.59903 0.0
H329 H 0.72277 0.36196 0.6267 0.0
H330 H 0.68814 0.23362 0.59527 0.0
H331 H 0.77093 0.31426 0.62313 0.0
H332 H 0.85147 0.22675 0.58425 0.0
H333 H 0.80326 0.27417 0.58372 0.0
H334 H 0.72879 0.19914 0.63261 0.0
H335 H 0.77708 0.1515 0.63295 0.0
C336 C 0.66867 0.28877 0.60411 0.0
C337 C 0.67769 0.32528 0.61319 0.0
C338 C 0.69611 0.26149 0.60218 0.0
C339 C 0.73333 0.27005 0.60909 0.0
C340 C 0.74254 0.30681 0.61741 0.0
C341 C 0.71498 0.33413 0.61954 0.0
C342 C 0.8247 0.22022 0.59464 0.0
C343 C 0.81806 0.18531 0.60862 0.0
C344 C 0.79717 0.24753 0.59455 0.0
C345 C 0.76224 0.24055 0.60825 0.0
C346 C 0.75531 0.20532 0.62159 0.0
C347 C 0.78297 0.17803 0.62186 0.0
H348 H 0.14706 0.72333 0.6038 0.0
H349 H 0.22997 0.63797 0.59199 0.0
H350 H 0.19587 0.77066 0.60194 0.0
H351 H 0.27847 0.68506 0.59023 0.0
H352 H 0.35344 0.77707 0.63544 0.0
H353 H 0.30584 0.72899 0.63063 0.0
H354 H 0.24403 0.79829 0.56488 0.0
H355 H 0.29164 0.8463 0.56958 0.0
C356 C 0.17559 0.71472 0.60041 0.0
C357 C 0.18463 0.67692 0.59811 0.0
C358 C 0.20353 0.74179 0.59927 0.0
C359 C 0.24107 0.73155 0.59617 0.0
C360 C 0.2499 0.69381 0.59305 0.0
C361 C 0.22202 0.66685 0.59385 0.0
C362 C 0.32997 0.7818 0.61961 0.0
C363 C 0.32636 0.81544 0.60287 0.0
C364 C 0.30272 0.75427 0.61681 0.0
C365 C 0.27106 0.75993 0.59748 0.0
C366 C 0.26788 0.79327 0.58021 0.0
C367 C 0.29532 0.82062 0.58273 0.0
H368 H 0.02309 0.4562 0.31633 0.0
H369 H 0.98694 0.36695 0.25434 0.0
H370 H 0.06658 0.47664 0.2755 0.0
H371 H 0.03123 0.38713 0.21323 0.0
H372 H 0.13684 0.51778 0.19867 0.0
H373 H 0.11898 0.47105 0.23866 0.0
H374 H 0.02318 0.44269 0.18073 0.0
H375 H 0.04117 0.48869 0.14117 0.0
C376 C 0.02541 0.44015 0.29433 0.0
C377 C 1.00111 0.41051 0.28817 0.0
C378 C 0.05067 0.45167 0.27096 0.0
C379 C 0.05199 0.43391 0.24082 0.0
C380 C 0.03045 0.40172 0.23605 0.0
C381 C 0.00523 0.39004 0.25961 0.0
C382 C 0.11278 0.50052 0.19406 0.0
C383 C 0.08997 0.50719 0.16722 0.0
C384 C 0.10243 0.47392 0.21697 0.0
C385 C 0.06936 0.45346 0.21314 0.0
C386 C 0.04892 0.45763 0.18447 0.0
C387 C 0.05904 0.48431 0.16187 0.0
H388 H 0.01693 0.04279 0.15795 0.0
H389 H 0.98331 0.13366 0.21903 0.0
H390 H 0.06165 0.02323 0.19801 0.0
H391 H 0.02923 0.11459 0.25936 0.0
H392 H 0.04425 0.01716 0.33427 0.0
H393 H 0.02495 0.06228 0.29448 0.0
H394 H 0.11473 0.02799 0.23224 0.0
H395 H 0.13341 0.98167 0.27215 0.0
C396 C 0.02 0.05933 0.17962 0.0
C397 C 0.99607 0.0892 0.18574 0.0
C398 C 0.04604 0.04833 0.20256 0.0
C399 C 0.04874 0.06693 0.23227 0.0
C400 C 0.0274 0.09925 0.23696 0.0
C401 C 1.00124 0.11032 0.21383 0.0
C402 C 0.06058 0.01998 0.3125 0.0
C403 C 0.08972 0.99529 0.30591 0.0
C404 C 0.04971 0.0462 0.2897 0.0
C405 C 0.06776 0.0483 0.25975 0.0
C406 C 0.09973 0.02652 0.25479 0.0
C407 C 0.11061 1.00015 0.27772 0.0
H408 H 0.51377 0.12225 0.27455 0.0
H409 H 0.50311 0.0205 0.32849 0.0
H410 H 0.46424 0.10156 0.23809 0.0
H411 H 0.45542 0.99932 0.29204 0.0
H412 H 0.3729 0.95848 0.2277 0.0
H413 H 0.39675 1.00063 0.26882 0.0
H414 H 0.46135 0.05737 0.19623 0.0
H415 H 0.4356 0.01684 0.15516 0.0
C416 C 0.50038 0.09584 0.27895 0.0
C417 C 0.51266 0.07274 0.30404 0.0
C418 C 0.47219 0.08383 0.25799 0.0
C419 C 0.45587 0.04854 0.26178 0.0
C420 C 0.46663 0.02684 0.28836 0.0
C421 C 0.4945 0.03883 0.3092 0.0
C422 C 0.39109 0.9809 0.22046 0.0
C423 C 0.40297 0.98395 0.1884 0.0
C424 C 0.4051 0.00487 0.24404 0.0
C425 C 0.4321 0.03165 0.23614 0.0
C426 C 0.44071 0.03719 0.20342 0.0
C427 C 0.42602 0.01375 0.17975 0.0
H428 H 0.52145 0.37806 0.20907 0.0
H429 H 0.49718 0.475 0.15185 0.0
H430 H 0.47588 0.39829 0.24919 0.0
H431 H 0.45249 0.4954 0.19167 0.0
H432 H 0.46124 0.49185 0.32845 0.0
H433 H 0.48225 0.44954 0.28686 0.0
H434 H 0.39617 0.4895 0.22304 0.0
H435 H 0.37553 0.53269 0.26487 0.0
C436 C 0.50563 0.40307 0.20464 0.0
C437 C 0.51326 0.42533 0.17772 0.0
C438 C 0.47968 0.41476 0.22763 0.0
C439 C 0.46084 0.44872 0.22387 0.0
C440 C 0.46614 0.469 0.19534 0.0
C441 C 0.49211 0.45748 0.17259 0.0
C442 C 0.44611 0.49091 0.30585 0.0
C443 C 0.41727 0.51609 0.29962 0.0
C444 C 0.45796 0.46633 0.28204 0.0
C445 C 0.44128 0.4665 0.25138 0.0
C446 C 0.40997 0.48914 0.24626 0.0
C447 C 0.39801 0.51374 0.27024 0.0
H448 H 0.98478 0.54856 0.64053 0.0
H449 H 0.0255 0.63438 0.70402 0.0
H450 H 0.94079 0.52908 0.68109 0.0
H451 H 0.9802 0.61566 0.74475 0.0
H452 H 0.96422 0.51709 0.8174 0.0
H453 H 0.98383 0.5622 0.77786 0.0
H454 H 0.89024 0.53295 0.7175 0.0
H455 H 0.87125 0.48647 0.75717 0.0
C456 C 0.98337 0.56416 0.66283 0.0
C457 C 0.00919 0.59236 0.66946 0.0
C458 C 0.95777 0.55319 0.68611 0.0
C459 C 0.95739 0.57021 0.71661 0.0
C460 C 0.98034 0.60136 0.72178 0.0
C461 C 0.00612 0.61232 0.69839 0.0
C462 C 0.94724 0.5209 0.79607 0.0
C463 C 0.91675 0.49763 0.78997 0.0
C464 C 0.95828 0.54719 0.77342 0.0
C465 C 0.93905 0.55088 0.74406 0.0
C466 C 0.90615 0.53029 0.73955 0.0
C467 C 0.8951 0.50382 0.76233 0.0
H468 H 0.03422 0.88558 0.76841 0.0
H469 H 0.99852 0.97523 0.82999 0.0
H470 H 0.98986 0.90559 0.72715 0.0
H471 H 0.95508 0.99559 0.78894 0.0
H472 H 0.87952 0.03166 0.71256 0.0
H473 H 0.90173 0.98848 0.75386 0.0
H474 H 0.99473 0.95981 0.69311 0.0
H475 H 0.97226 1.00204 0.65206 0.0
C476 C 0.01618 0.90887 0.77347 0.0
C477 C 0.02025 0.92928 0.80209 0.0
C478 C 0.99094 0.92047 0.74982 0.0
C479 C 0.96931 0.95256 0.75451 0.0
C480 C 0.97102 0.97067 0.78449 0.0
C481 C 0.99624 0.95918 0.80797 0.0
C482 C 0.90406 0.01524 0.70776 0.0
C483 C 0.92454 0.02064 0.6794 0.0
C484 C 0.91688 0.99065 0.73143 0.0
C485 C 0.95028 0.971 0.72699 0.0
C486 C 0.96878 0.97414 0.69733 0.0
C487 C 0.95609 0.99871 0.67386 0.0
H488 H 0.5154 0.00929 0.82584 0.0
H489 H 0.62244 0.00263 0.77958 0.0
H490 H 0.49131 0.96236 0.78997 0.0
H491 H 0.59844 0.95406 0.74366 0.0
H492 H 0.51742 0.92681 0.657 0.0
H493 H 0.55684 0.95301 0.69878 0.0
H494 H 0.48893 0.90081 0.7716 0.0
H495 H 0.44831 0.87623 0.7296 0.0
C496 C 0.53409 0.99716 0.80834 0.0
C497 C 0.57069 0.01005 0.80525 0.0
C498 C 0.52035 0.96974 0.7879 0.0
C499 C 0.54284 0.95419 0.76376 0.0
C500 C 0.5802 0.96567 0.76175 0.0
C501 C 0.59404 0.99334 0.78238 0.0
C502 C 0.51155 0.91997 0.68189 0.0
C503 C 0.47929 0.90018 0.69008 0.0
C504 C 0.53432 0.93494 0.70596 0.0
C505 C 0.52552 0.92997 0.7387 0.0
C506 C 0.49584 0.90623 0.74666 0.0
C507 C 0.47272 0.89181 0.7226 0.0
H508 H 0.62827 0.49647 0.70896 0.0
H509 H 0.52938 0.51401 0.65208 0.0
H510 H 0.60884 0.54591 0.74578 0.0
H511 H 0.50926 0.56162 0.6889 0.0
H512 H 0.52158 0.56945 0.82716 0.0
H513 H 0.56331 0.54677 0.78602 0.0
H514 H 0.51033 0.61798 0.71585 0.0
H515 H 0.46689 0.63901 0.75703 0.0
C516 C 0.60289 0.51148 0.70391 0.0
C517 C 0.57996 0.50093 0.67808 0.0
C518 C 0.59154 0.53961 0.72511 0.0
C519 C 0.55705 0.55748 0.72083 0.0
C520 C 0.53609 0.54902 0.69313 0.0
C521 C 0.54745 0.52122 0.67206 0.0
C522 C 0.51944 0.58107 0.80315 0.0
C523 C 0.49027 0.60519 0.79509 0.0
C524 C 0.5437 0.56821 0.77944 0.0
C525 C 0.53963 0.57962 0.7472 0.0
C526 C 0.51348 0.60756 0.74017 0.0
C527 C 0.48874 0.61992 0.76382 0.0
H528 H 0.02844 0.72149 0.13576 0.0
H529 H 0.05061 0.65265 0.21875 0.0
H530 H 0.01257 0.77308 0.17143 0.0
H531 H 0.03548 0.70402 0.2542 0.0
H532 H 0.00727 0.79793 0.31545 0.0
H533 H 0.99241 0.75 0.27576 0.0
H534 H 0.05576 0.80949 0.2041 0.0
H535 H 0.06994 0.85739 0.2434 0.0
C536 C 0.02906 0.71714 0.16159 0.0
C537 C 0.04142 0.68338 0.17456 0.0
C538 C 0.02006 0.74665 0.18198 0.0
C539 C 0.0232 0.74276 0.21559 0.0
C540 C 0.03244 0.70791 0.22844 0.0
C541 C 0.04149 0.67852 0.20811 0.0
C542 C 0.01709 0.8012 0.29096 0.0
C543 C 0.04038 0.8309 0.2826 0.0
C544 C 0.00867 0.77376 0.26829 0.0
C545 C 0.02334 0.77571 0.23695 0.0
C546 C 0.04378 0.80724 0.22794 0.0
C547 C 0.05223 0.83456 0.25057 0.0
H548 H 0.85466 0.00328 0.21058 0.0
H549 H 0.7741 0.05438 0.14763 0.0
H550 H 0.80513 0.98514 0.24733 0.0
H551 H 0.72516 0.03894 0.18491 0.0
H552 H 0.6396 0.02253 0.25495 0.0
H553 H 0.685 0.00406 0.21455 0.0
H554 H 0.77269 0.01838 0.28508 0.0
H555 H 0.72682 0.03365 0.32565 0.0
C556 C 0.82623 0.01001 0.20436 0.0
C557 C 0.81818 0.03078 0.17664 0.0
C558 C 0.79784 0.99996 0.22554 0.0
C559 C 0.76106 0.01144 0.21979 0.0
C560 C 0.75286 0.02921 0.19038 0.0
C561 C 0.78109 0.03842 0.1689 0.0
C562 C 0.66855 0.02043 0.26186 0.0
C563 C 0.67999 0.02999 0.29309 0.0
C564 C 0.69466 0.0102 0.2387 0.0
C565 C 0.73284 0.01084 0.24604 0.0
C566 C 0.74371 0.01726 0.27825 0.0
C567 C 0.71743 0.02633 0.30164 0.0
H568 H 0.46551 0.72738 0.32828 0.0
H569 H 0.48287 0.63857 0.26029 0.0
H570 H 0.48087 0.77251 0.28697 0.0
H571 H 0.50105 0.68336 0.2193 0.0
H572 H 0.448 0.76804 0.14934 0.0
H573 H 0.46348 0.72112 0.18857 0.0
H574 H 0.51568 0.8044 0.24873 0.0
H575 H 0.49808 0.85192 0.20975 0.0
C576 C 0.47423 0.71754 0.3048 0.0
C577 C 0.47228 0.67976 0.2971 0.0
C578 C 0.4833 0.74339 0.28103 0.0
C579 C 0.49131 0.73174 0.24935 0.0
C580 C 0.49374 0.69346 0.24303 0.0
C581 C 0.48364 0.66775 0.26654 0.0
C582 C 0.46359 0.77623 0.17056 0.0
C583 C 0.47109 0.81368 0.17686 0.0
C584 C 0.47284 0.74917 0.19311 0.0
C585 C 0.49034 0.7589 0.22233 0.0
C586 C 0.50131 0.796 0.22697 0.0
C587 C 0.4915 0.82321 0.20454 0.0
H588 H 0.72804 0.47854 0.1286 0.0
H589 H 0.66043 0.4791 0.21444 0.0
H590 H 0.78291 0.49169 0.1613 0.0
H591 H 0.71499 0.49067 0.24711 0.0
H592 H 0.81547 0.50026 0.30497 0.0
H593 H 0.76888 0.52203 0.2664 0.0
H594 H 0.81361 0.44763 0.19448 0.0
H595 H 0.86031 0.42708 0.23239 0.0
C596 C 0.72474 0.48251 0.15432 0.0
C597 C 0.69021 0.47681 0.16911 0.0
C598 C 0.75619 0.48983 0.1731 0.0
C599 C 0.75358 0.49116 0.20694 0.0
C600 C 0.71822 0.48985 0.22118 0.0
C601 C 0.68683 0.48288 0.20241 0.0
C602 C 0.81583 0.4894 0.28061 0.0
C603 C 0.84094 0.46143 0.27183 0.0
C604 C 0.78913 0.50177 0.25856 0.0
C605 C 0.78711 0.48626 0.22744 0.0
C606 C 0.81439 0.46059 0.21803 0.0
C607 C 0.841 0.44838 0.23996 0.0
H608 H 0.98948 0.21941 0.63542 0.0
H609 H 0.9589 0.15931 0.72135 0.0
H610 H 0.00895 0.2721 0.66863 0.0
H611 H 0.97789 0.21157 0.75433 0.0
H612 H 0.00305 0.30722 0.81167 0.0
H613 H 0.02224 0.25777 0.77496 0.0
H614 H 0.96441 0.31235 0.69694 0.0
H615 H 0.94578 0.36159 0.73333 0.0
C616 C 0.98806 0.21703 0.66142 0.0
C617 C 0.97191 0.18578 0.67588 0.0
C618 C 0.99915 0.24715 0.68039 0.0
C619 C 0.99446 0.24619 0.71404 0.0
C620 C 0.98213 0.21321 0.72853 0.0
C621 C 0.97082 0.18334 0.7096 0.0
C622 C 0.99559 0.30921 0.78642 0.0
C623 C 0.97214 0.3376 0.77543 0.0
C624 C 0.00654 0.28093 0.76544 0.0
C625 C 0.9943 0.28084 0.73323 0.0
C626 C 0.97448 0.3116 0.72155 0.0
C627 C 0.96342 0.33967 0.74251 0.0
H628 H 0.35532 0.99867 0.7063 0.0
H629 H 0.26899 0.94844 0.64856 0.0
H630 H 0.30901 0.01862 0.74551 0.0
H631 H 0.22324 0.96622 0.68808 0.0
H632 H 0.14248 0.99012 0.76005 0.0
H633 H 0.18695 0.00578 0.71802 0.0
H634 H 0.27694 0.98649 0.78527 0.0
H635 H 0.23215 0.97374 0.82755 0.0
C636 C 0.32635 0.99251 0.70173 0.0
C637 C 0.31575 0.97147 0.67473 0.0
C638 C 0.29982 0.00368 0.72429 0.0
C639 C 0.26234 0.99345 0.72049 0.0
C640 C 0.25161 0.97511 0.69195 0.0
C641 C 0.27799 0.96451 0.66924 0.0
C642 C 0.1718 0.99063 0.76595 0.0
C643 C 0.18412 0.98026 0.79671 0.0
C644 C 0.19733 0.99924 0.74186 0.0
C645 C 0.23569 0.99621 0.7478 0.0
C646 C 0.24774 0.98931 0.7796 0.0
C647 C 0.22209 0.98178 0.80394 0.0
H648 H 0.55328 0.15383 0.75722 0.0
H649 H 0.52672 0.21631 0.84298 0.0
H650 H 0.53651 0.20666 0.72402 0.0
H651 H 0.50971 0.2696 0.80954 0.0
H652 H 0.56956 0.35779 0.74116 0.0
H653 H 0.55465 0.30828 0.7787 0.0
H654 H 0.49071 0.25292 0.70469 0.0
H655 H 0.506 0.30251 0.66686 0.0
C656 C 0.54284 0.1786 0.7689 0.0
C657 C 0.54191 0.18133 0.8026 0.0
C658 C 0.53286 0.20878 0.74986 0.0
C659 C 0.5221 0.24238 0.76422 0.0
C660 C 0.5182 0.24408 0.79791 0.0
C661 C 0.52784 0.21363 0.81699 0.0
C662 C 0.55151 0.33555 0.73314 0.0
C663 C 0.53963 0.33347 0.70095 0.0
C664 C 0.54263 0.30736 0.75476 0.0
C665 C 0.52187 0.27652 0.74448 0.0
C666 C 0.50711 0.27621 0.71309 0.0
C667 C 0.51586 0.30456 0.69149 0.0
H668 H 0.35368 0.55188 0.74889 0.0
H669 H 0.28691 0.52325 0.83159 0.0
H670 H 0.30211 0.53678 0.71339 0.0
H671 H 0.23518 0.50755 0.79589 0.0
H672 H 0.14803 0.56684 0.72771 0.0
H673 H 0.19729 0.55204 0.76561 0.0
H674 H 0.25635 0.49356 0.69062 0.0
H675 H 0.20696 0.50891 0.65238 0.0
C676 C 0.3283 0.54126 0.75941 0.0
C677 C 0.324 0.53944 0.79298 0.0
C678 C 0.29879 0.53229 0.73904 0.0
C679 C 0.26438 0.52143 0.75188 0.0
C680 C 0.26123 0.51634 0.78536 0.0
C681 C 0.29086 0.52521 0.80577 0.0
C682 C 0.17107 0.55003 0.7195 0.0
C683 C 0.17407 0.53964 0.687 0.0
C684 C 0.19919 0.54122 0.74131 0.0
C685 C 0.23093 0.52195 0.73101 0.0
C686 C 0.2324 0.50884 0.69911 0.0
C687 C 0.20412 0.51753 0.67727 0.0
H688 H 0.99103 0.57703 0.05333 0.0
H689 H 0.09481 0.53692 0.01482 0.0
H690 H 0.95707 0.53725 0.01644 0.0
H691 H 0.0608 0.49833 0.97644 0.0
H692 H 0.99293 0.40542 0.93424 0.0
H693 H 0.0246 0.44391 0.97406 0.0
H694 H 0.9399 0.52793 0.96289 0.0
H695 H 0.90747 0.48855 0.92449 0.0
C696 C 0.0066 0.56028 0.03641 0.0
C697 C 0.04558 0.56009 0.03689 0.0
C698 C 0.98709 0.53745 0.01517 0.0
C699 C 0.00609 0.51428 -0.00648 0.0
C700 C 0.0452 0.51512 -0.00672 0.0
C701 C 0.06475 0.53759 0.01493 0.0
C702 C 0.98078 0.4318 0.94088 0.0
C703 C 0.94774 0.44398 0.9264 0.0
C704 C 0.99917 0.45413 0.96334 0.0
C705 C 0.9852 0.48937 0.97137 0.0
C706 C 0.95136 0.50086 0.95763 0.0
C707 C 0.93269 0.47826 0.93559 0.0
H708 H 0.10135 0.00282 0.95111 0.0
H709 H 0.01813 0.91891 0.9338 0.0
H710 H 0.05994 0.03366 -0.01099 0.0
H711 H 0.97582 0.95068 0.96998 0.0
H712 H 0.92161 0.99711 0.06012 0.0
H713 H 0.96213 0.96505 0.02284 0.0
H714 H 0.0065 0.07036 -0.00895 0.0
H715 H 0.96723 0.10228 0.03007 0.0
C716 C 0.07424 0.9909 0.95561 0.0
C717 C 0.06302 0.95837 0.93977 0.0
C718 C 0.05023 0.00884 0.97693 0.0
C719 C 0.0142 0.99504 0.98234 0.0
C720 C 0.00344 0.96195 0.96689 0.0
C721 C 0.02772 0.94365 0.9461 0.0
C722 C 0.93963 0.01347 0.04483 0.0
C723 C 0.94132 0.0522 0.04802 0.0
C724 C 0.96292 0.99505 0.02333 0.0
C725 C 0.98801 0.01496 0.00402 0.0
C726 C 0.98829 0.05397 0.00611 0.0
C727 C 0.96541 0.07237 0.02811 0.0
H728 H 0.5224 0.92534 0.07284 0.0
H729 H 0.42057 0.9631 0.02858 0.0
H730 H 0.55811 0.96419 0.03603 0.0
H731 H 0.45622 1.00123 -0.00866 0.0
H732 H 0.52423 0.09566 0.9539 0.0
H733 H 0.49337 0.05732 -0.00597 0.0
H734 H 0.57506 0.97127 0.97945 0.0
H735 H 0.60649 0.01012 0.93977 0.0
C736 C 0.50769 0.94155 0.05493 0.0
C737 C 0.46869 0.94133 0.05362 0.0
C738 C 0.52815 0.96376 0.03386 0.0
C739 C 0.50998 0.98617 0.01108 0.0
C740 C 0.47101 0.98494 0.00913 0.0
C741 C 0.45058 0.96281 0.03022 0.0
C742 C 0.53599 0.06883 0.9597 0.0
C743 C 0.56762 0.05577 0.94361 0.0
C744 C 0.51809 0.04671 0.98243 0.0
C745 C 0.53133 0.01095 -0.01058 0.0
C746 C 0.5642 0.9987 0.97462 0.0
C747 C 0.58223 0.02096 0.95194 0.0
H748 H 0.46026 0.58916 0.95544 0.0
H749 H 0.4349 0.48687 0.90575 0.0
H750 H 0.4996 0.55522 -0.00685 0.0
H751 H 0.47488 0.45305 0.94297 0.0
H752 H 0.51972 0.40293 0.0385 0.0
H753 H 0.48009 0.43358 -0.0011 0.0
H754 H 0.55913 0.52343 -0.00784 0.0
H755 H 0.59829 0.49319 0.03222 0.0
C756 C 0.46289 0.5594 0.95273 0.0
C757 C 0.44452 0.54068 0.92768 0.0
C758 C 0.48574 0.54 0.97408 0.0
C759 C 0.49076 0.50149 0.97078 0.0
C760 C 0.47147 0.48264 0.94627 0.0
C761 C 0.44858 0.50204 0.92494 0.0
C762 C 0.52891 0.42891 0.02812 0.0
C763 C 0.56199 0.44578 0.03857 0.0
C764 C 0.5062 0.44649 0.00546 0.0
C765 C 0.51617 0.48124 -0.0072 0.0
C766 C 0.55023 0.49711 0.00205 0.0
C767 C 0.57287 0.47959 0.02472 0.0
H768 H 0.08686 0.95691 0.45801 0.0
H769 H 0.98336 0.91733 0.41792 0.0
H770 H 0.05261 0.99654 0.49515 0.0
H771 H 0.94915 0.95782 0.45418 0.0
H772 H 0.90056 0.01397 0.54466 0.0
H773 H 0.93209 0.97061 0.50884 0.0
H774 H 0.01712 0.05263 0.49078 0.0
H775 H 0.98622 0.09538 0.52738 0.0
C776 C 0.0568 0.95634 0.45743 0.0
C777 C 0.0378 0.93416 0.43502 0.0
C778 C 0.03715 0.97939 0.47839 0.0
C779 C 0.99813 0.98092 0.47718 0.0
C780 C 0.97914 0.95727 0.45584 0.0
C781 C 0.99878 0.93404 0.43504 0.0
C782 C 0.92562 0.02291 0.53255 0.0
C783 C 0.94103 0.05797 0.53884 0.0
C784 C 0.94377 0.99804 0.5121 0.0
C785 C 0.97751 0.00789 0.49741 0.0
C786 C 0.99175 0.04376 0.50243 0.0
C787 C 0.97379 0.06847 0.52304 0.0
H788 H 0.60115 0.00956 0.44663 0.0
H789 H 0.52376 0.10069 0.44052 0.0
H790 H 0.56238 0.98019 0.48734 0.0
H791 H 0.48429 0.0708 0.48048 0.0
H792 H 0.4365 0.01857 0.57216 0.0
H793 H 0.47765 0.05175 0.53558 0.0
H794 H 0.50372 0.94864 0.48748 0.0
H795 H 0.46348 0.9154 0.52474 0.0
C796 C 0.57605 0.02351 0.45429 0.0
C797 C 0.56539 0.05732 0.44034 0.0
C798 C 0.55361 0.0065 0.47734 0.0
C799 C 0.51986 0.02278 0.48673 0.0
C800 C 0.51016 0.05756 0.47391 0.0
C801 C 0.53279 0.07472 0.45102 0.0
C802 C 0.45083 0.00306 0.5536 0.0
C803 C 0.44684 0.96439 0.55129 0.0
C804 C 0.47439 0.02209 0.53262 0.0
C805 C 0.4943 0.00284 0.5088 0.0
C806 C 0.48947 0.96423 0.50602 0.0
C807 C 0.46609 0.9452 0.52712 0.0
H808 H 0.59257 0.46078 0.52648 0.0
H809 H 0.48735 0.4227 0.56366 0.0
H810 H 0.56005 0.49898 0.48701 0.0
H811 H 0.45484 0.4621 0.52557 0.0
H812 H 0.40703 0.51489 0.43492 0.0
H813 H 0.43856 0.47302 0.47186 0.0
H814 H 0.52545 0.55443 0.48563 0.0
H815 H 0.49469 0.5954 0.44733 0.0
C816 C 0.5625 0.46034 0.52599 0.0
C817 C 0.5425 0.4388 0.5481 0.0
C818 C 0.54382 0.4826 0.50369 0.0
C819 C 0.50475 0.48417 0.50341 0.0
C820 C 0.48487 0.46142 0.5248 0.0
C821 C 0.50354 0.4388 0.54672 0.0
C822 C 0.4326 0.52399 0.44624 0.0
C823 C 0.44844 0.55836 0.43834 0.0
C824 C 0.45074 0.49997 0.46741 0.0
C825 C 0.48485 0.51008 0.48152 0.0
C826 C 0.49979 0.54525 0.47457 0.0
C827 C 0.48192 0.56899 0.453 0.0
H828 H 0.99177 0.40186 0.42588 0.0
H829 H 0.91359 0.49247 0.42938 0.0
H830 H 0.03129 0.43369 0.46461 0.0
H831 H 0.95226 0.52373 0.46937 0.0
H832 H 0.04727 0.5895 0.51242 0.0
H833 H 0.00922 0.55642 0.47301 0.0
H834 H 0.03799 0.4524 0.5184 0.0
H835 H 0.07716 0.48529 0.55659 0.0
C836 C 0.98259 0.42821 0.43557 0.0
C837 C 0.94961 0.4447 0.42463 0.0
C838 C 0.00527 0.44651 0.45781 0.0
C839 C 0.99523 0.48154 0.46995 0.0
C840 C 0.96136 0.49725 0.45996 0.0
C841 C 0.93892 0.47913 0.43738 0.0
C842 C 0.04589 0.55953 0.51355 0.0
C843 C 0.06528 0.53999 0.53748 0.0
C844 C 0.0237 0.54056 0.49126 0.0
C845 C 0.02012 0.50169 0.49269 0.0
C846 C 0.04035 0.48222 0.51624 0.0
C847 C 0.06282 0.50113 0.53821 0.0
loop_
_geom_bond_atom_site_label_1
_geom_bond_atom_site_label_2
_geom_bond_distance
_geom_bond_site_symmetry_2
_ccdc_geom_bond_type
In0 O1 2.294 . S
In0 O2 2.326 . S
In0 O6 2.266 . S
In0 O7 2.326 . S
In0 O8 2.266 . S
In0 O9 2.326 . S
In0 O11 2.294 . S
In0 O12 2.326 . S
O1 In0 2.294 . S
O1 C10 1.240 . S
O2 In0 2.326 . S
O2 C10 1.252 . S
C3 O6 1.252 . S
C3 O7 1.260 . S
C4 O11 1.240 . S
C4 O12 1.252 . S
C5 O8 1.252 . S
C5 O9 1.260 . S
O6 In0 2.266 . S
O6 C3 1.252 . S
O7 In0 2.326 . S
O7 C3 1.260 . S
O8 In0 2.266 . S
O8 C5 1.252 . S
O9 In0 2.326 . S
O9 C5 1.260 . S
C10 O1 1.240 . S
C10 O2 1.252 . S
O11 In0 2.294 . S
O11 C4 1.240 . S
O12 In0 2.326 . S
O12 C4 1.252 . S
In13 O14 2.294 . S
In13 O15 2.326 . S
In13 O19 2.266 . S
In13 O20 2.326 . S
In13 O21 2.266 . S
In13 O22 2.326 . S
In13 O24 2.294 . S
In13 O25 2.326 . S
O14 In13 2.294 . S
O14 C23 1.240 . S
O15 In13 2.326 . S
O15 C23 1.252 . S
C16 O19 1.252 . S
C16 O20 1.260 . S
C17 O24 1.240 . S
C17 O25 1.252 . S
C18 O21 1.252 . S
C18 O22 1.260 . S
O19 In13 2.266 . S
O19 C16 1.252 . S
O20 In13 2.326 . S
O20 C16 1.260 . S
O21 In13 2.266 . S
O21 C18 1.252 . S
O22 In13 2.326 . S
O22 C18 1.260 . S
C23 O14 1.240 . S
C23 O15 1.252 . S
O24 In13 2.294 . S
O24 C17 1.240 . S
O25 In13 2.326 . S
O25 C17 1.252 . S
In26 O27 2.294 . S
In26 O28 2.326 . S
In26 O32 2.266 . S
In26 O33 2.326 . S
In26 O34 2.266 . S
In26 O35 2.326 . S
In26 O37 2.294 . S
In26 O38 2.326 . S
O27 In26 2.294 . S
O27 C36 1.240 . S
O28 In26 2.326 . S
O28 C36 1.252 . S
C29 O32 1.252 . S
C29 O33 1.260 . S
C30 O37 1.240 . S
C30 O38 1.252 . S
C31 O34 1.252 . S
C31 O35 1.260 . S
O32 In26 2.266 . S
O32 C29 1.252 . S
O33 In26 2.326 . S
O33 C29 1.260 . S
O34 In26 2.266 . S
O34 C31 1.252 . S
O35 In26 2.326 . S
O35 C31 1.260 . S
C36 O27 1.240 . S
C36 O28 1.252 . S
O37 In26 2.294 . S
O37 C30 1.240 . S
O38 In26 2.326 . S
O38 C30 1.252 . S
In39 O40 2.294 . S
In39 O41 2.326 . S
In39 O45 2.266 . S
In39 O46 2.326 . S
In39 O47 2.266 . S
In39 O48 2.326 . S
In39 O50 2.294 . S
In39 O51 2.326 . S
O40 In39 2.294 . S
O40 C49 1.240 . S
O41 In39 2.326 . S
O41 C49 1.252 . S
C42 O45 1.252 . S
C42 O46 1.260 . S
C43 O50 1.240 . S
C43 O51 1.252 . S
C44 O47 1.252 . S
C44 O48 1.260 . S
O45 In39 2.266 . S
O45 C42 1.252 . S
O46 In39 2.326 . S
O46 C42 1.260 . S
O47 In39 2.266 . S
O47 C44 1.252 . S
O48 In39 2.326 . S
O48 C44 1.260 . S
C49 O40 1.240 . S
C49 O41 1.252 . S
O50 In39 2.294 . S
O50 C43 1.240 . S
O51 In39 2.326 . S
O51 C43 1.252 . S
In52 O53 2.294 . S
In52 O54 2.326 . S
In52 O58 2.266 . S
In52 O59 2.326 . S
In52 O60 2.266 . S
In52 O61 2.326 . S
In52 O63 2.294 . S
In52 O64 2.326 . S
O53 In52 2.294 . S
O53 C62 1.240 . S
O54 In52 2.326 . S
O54 C62 1.252 . S
C55 O58 1.252 . S
C55 O59 1.260 . S
C56 O63 1.240 . S
C56 O64 1.252 . S
C57 O60 1.252 . S
C57 O61 1.260 . S
O58 In52 2.266 . S
O58 C55 1.252 . S
O59 In52 2.326 . S
O59 C55 1.260 . S
O60 In52 2.266 . S
O60 C57 1.252 . S
O61 In52 2.326 . S
O61 C57 1.260 . S
C62 O53 1.240 . S
C62 O54 1.252 . S
O63 In52 2.294 . S
O63 C56 1.240 . S
O64 In52 2.326 . S
O64 C56 1.252 . S
In65 O66 2.294 . S
In65 O67 2.326 . S
In65 O71 2.266 . S
In65 O72 2.326 . S
In65 O73 2.266 . S
In65 O74 2.326 . S
In65 O76 2.294 . S
In65 O77 2.326 . S
O66 In65 2.294 . S
O66 C75 1.240 . S
O67 In65 2.326 . S
O67 C75 1.252 . S
C68 O71 1.252 . S
C68 O72 1.260 . S
C69 O76 1.240 . S
C69 O77 1.252 . S
C70 O73 1.252 . S
C70 O74 1.260 . S
O71 In65 2.266 . S
O71 C68 1.252 . S
O72 In65 2.326 . S
O72 C68 1.260 . S
O73 In65 2.266 . S
O73 C70 1.252 . S
O74 In65 2.326 . S
O74 C70 1.260 . S
C75 O66 1.240 . S
C75 O67 1.252 . S
O76 In65 2.294 . S
O76 C69 1.240 . S
O77 In65 2.326 . S
O77 C69 1.252 . S
In78 O79 2.294 . S
In78 O80 2.326 . S
In78 O84 2.266 . S
In78 O85 2.326 . S
In78 O86 2.266 . S
In78 O87 2.326 . S
In78 O89 2.294 . S
In78 O90 2.326 . S
O79 In78 2.294 . S
O79 C88 1.240 . S
O80 In78 2.326 . S
O80 C88 1.252 . S
C81 O84 1.252 . S
C81 O85 1.260 . S
C82 O89 1.240 . S
C82 O90 1.252 . S
C83 O86 1.252 . S
C83 O87 1.260 . S
O84 In78 2.266 . S
O84 C81 1.252 . S
O85 In78 2.326 . S
O85 C81 1.260 . S
O86 In78 2.266 . S
O86 C83 1.252 . S
O87 In78 2.326 . S
O87 C83 1.260 . S
C88 O79 1.240 . S
C88 O80 1.252 . S
O89 In78 2.294 . S
O89 C82 1.240 . S
O90 In78 2.326 . S
O90 C82 1.252 . S
In91 O92 2.294 . S
In91 O93 2.326 . S
In91 O97 2.266 . S
In91 O98 2.326 . S
In91 O99 2.266 . S
In91 O100 2.326 . S
In91 O102 2.294 . S
In91 O103 2.326 . S
O92 In91 2.294 . S
O92 C101 1.240 . S
O93 In91 2.326 . S
O93 C101 1.252 . S
C94 O97 1.252 . S
C94 O98 1.260 . S
C95 O102 1.240 . S
C95 O103 1.252 . S
C96 O99 1.252 . S
C96 O100 1.260 . S
O97 In91 2.266 . S
O97 C94 1.252 . S
O98 In91 2.326 . S
O98 C94 1.260 . S
O99 In91 2.266 . S
O99 C96 1.252 . S
O100 In91 2.326 . S
O100 C96 1.260 . S
C101 O92 1.240 . S
C101 O93 1.252 . S
O102 In91 2.294 . S
O102 C95 1.240 . S
O103 In91 2.326 . S
O103 C95 1.252 . S
In104 O105 2.294 . S
In104 O106 2.326 . S
In104 O110 2.266 . S
In104 O111 2.326 . S
In104 O112 2.266 . S
In104 O113 2.326 . S
In104 O115 2.294 . S
In104 O116 2.326 . S
O105 In104 2.294 . S
O105 C114 1.240 . S
O106 In104 2.326 . S
O106 C114 1.252 . S
C107 O110 1.252 . S
C107 O111 1.260 . S
C108 O115 1.240 . S
C108 O116 1.252 . S
C109 O112 1.252 . S
C109 O113 1.260 . S
O110 In104 2.266 . S
O110 C107 1.252 . S
O111 In104 2.326 . S
O111 C107 1.260 . S
O112 In104 2.266 . S
O112 C109 1.252 . S
O113 In104 2.326 . S
O113 C109 1.260 . S
C114 O105 1.240 . S
C114 O106 1.252 . S
O115 In104 2.294 . S
O115 C108 1.240 . S
O116 In104 2.326 . S
O116 C108 1.252 . S
In117 O118 2.294 . S
In117 O119 2.326 . S
In117 O123 2.266 . S
In117 O124 2.326 . S
In117 O125 2.266 . S
In117 O126 2.326 . S
In117 O128 2.294 . S
In117 O129 2.326 . S
O118 In117 2.294 . S
O118 C127 1.240 . S
O119 In117 2.326 . S
O119 C127 1.252 . S
C120 O123 1.252 . S
C120 O124 1.260 . S
C121 O128 1.240 . S
C121 O129 1.252 . S
C122 O125 1.252 . S
C122 O126 1.260 . S
O123 In117 2.266 . S
O123 C120 1.252 . S
O124 In117 2.326 . S
O124 C120 1.260 . S
O125 In117 2.266 . S
O125 C122 1.252 . S
O126 In117 2.326 . S
O126 C122 1.260 . S
C127 O118 1.240 . S
C127 O119 1.252 . S
O128 In117 2.294 . S
O128 C121 1.240 . S
O129 In117 2.326 . S
O129 C121 1.252 . S
In130 O131 2.294 . S
In130 O132 2.326 . S
In130 O136 2.266 . S
In130 O137 2.326 . S
In130 O138 2.266 . S
In130 O139 2.326 . S
In130 O141 2.294 . S
In130 O142 2.326 . S
O131 In130 2.294 . S
O131 C140 1.240 . S
O132 In130 2.326 . S
O132 C140 1.252 . S
C133 O136 1.252 . S
C133 O137 1.260 . S
C134 O141 1.240 . S
C134 O142 1.252 . S
C135 O138 1.252 . S
C135 O139 1.260 . S
O136 In130 2.266 . S
O136 C133 1.252 . S
O137 In130 2.326 . S
O137 C133 1.260 . S
O138 In130 2.266 . S
O138 C135 1.252 . S
O139 In130 2.326 . S
O139 C135 1.260 . S
C140 O131 1.240 . S
C140 O132 1.252 . S
O141 In130 2.294 . S
O141 C134 1.240 . S
O142 In130 2.326 . S
O142 C134 1.252 . S
In143 O144 2.294 . S
In143 O145 2.326 . S
In143 O149 2.266 . S
In143 O150 2.326 . S
In143 O151 2.266 . S
In143 O152 2.326 . S
In143 O154 2.294 . S
In143 O155 2.326 . S
O144 In143 2.294 . S
O144 C153 1.240 . S
O145 In143 2.326 . S
O145 C153 1.252 . S
C146 O149 1.252 . S
C146 O150 1.260 . S
C147 O154 1.240 . S
C147 O155 1.252 . S
C148 O151 1.252 . S
C148 O152 1.260 . S
O149 In143 2.266 . S
O149 C146 1.252 . S
O150 In143 2.326 . S
O150 C146 1.260 . S
O151 In143 2.266 . S
O151 C148 1.252 . S
O152 In143 2.326 . S
O152 C148 1.260 . S
C153 O144 1.240 . S
C153 O145 1.252 . S
O154 In143 2.294 . S
O154 C147 1.240 . S
O155 In143 2.326 . S
O155 C147 1.252 . S
In156 O157 2.294 . S
In156 O158 2.326 . S
In156 O162 2.266 . S
In156 O163 2.326 . S
In156 O164 2.266 . S
In156 O165 2.326 . S
In156 O167 2.294 . S
In156 O168 2.326 . S
O157 In156 2.294 . S
O157 C166 1.240 . S
O158 In156 2.326 . S
O158 C166 1.252 . S
C159 O162 1.252 . S
C159 O163 1.260 . S
C160 O167 1.240 . S
C160 O168 1.252 . S
C161 O164 1.252 . S
C161 O165 1.260 . S
O162 In156 2.266 . S
O162 C159 1.252 . S
O163 In156 2.326 . S
O163 C159 1.260 . S
O164 In156 2.266 . S
O164 C161 1.252 . S
O165 In156 2.326 . S
O165 C161 1.260 . S
C166 O157 1.240 . S
C166 O158 1.252 . S
O167 In156 2.294 . S
O167 C160 1.240 . S
O168 In156 2.326 . S
O168 C160 1.252 . S
In169 O170 2.294 . S
In169 O171 2.326 . S
In169 O175 2.266 . S
In169 O176 2.326 . S
In169 O177 2.266 . S
In169 O178 2.326 . S
In169 O180 2.294 . S
In169 O181 2.326 . S
O170 In169 2.294 . S
O170 C179 1.240 . S
O171 In169 2.326 . S
O171 C179 1.252 . S
C172 O175 1.252 . S
C172 O176 1.260 . S
C173 O180 1.240 . S
C173 O181 1.252 . S
C174 O177 1.252 . S
C174 O178 1.260 . S
O175 In169 2.266 . S
O175 C172 1.252 . S
O176 In169 2.326 . S
O176 C172 1.260 . S
O177 In169 2.266 . S
O177 C174 1.252 . S
O178 In169 2.326 . S
O178 C174 1.260 . S
C179 O170 1.240 . S
C179 O171 1.252 . S
O180 In169 2.294 . S
O180 C173 1.240 . S
O181 In169 2.326 . S
O181 C173 1.252 . S
In182 O183 2.294 . S
In182 O184 2.326 . S
In182 O188 2.266 . S
In182 O189 2.326 . S
In182 O190 2.266 . S
In182 O191 2.326 . S
In182 O193 2.294 . S
In182 O194 2.326 . S
O183 In182 2.294 . S
O183 C192 1.240 . S
O184 In182 2.326 . S
O184 C192 1.252 . S
C185 O188 1.252 . S
C185 O189 1.260 . S
C186 O193 1.240 . S
C186 O194 1.252 . S
C187 O190 1.252 . S
C187 O191 1.260 . S
O188 In182 2.266 . S
O188 C185 1.252 . S
O189 In182 2.326 . S
O189 C185 1.260 . S
O190 In182 2.266 . S
O190 C187 1.252 . S
O191 In182 2.326 . S
O191 C187 1.260 . S
C192 O183 1.240 . S
C192 O184 1.252 . S
O193 In182 2.294 . S
O193 C186 1.240 . S
O194 In182 2.326 . S
O194 C186 1.252 . S
In195 O196 2.294 . S
In195 O197 2.326 . S
In195 O201 2.266 . S
In195 O202 2.326 . S
In195 O203 2.266 . S
In195 O204 2.326 . S
In195 O206 2.294 . S
In195 O207 2.326 . S
O196 In195 2.294 . S
O196 C205 1.240 . S
O197 In195 2.326 . S
O197 C205 1.252 . S
C198 O201 1.252 . S
C198 O202 1.260 . S
C199 O206 1.240 . S
C199 O207 1.252 . S
C200 O203 1.252 . S
C200 O204 1.260 . S
O201 In195 2.266 . S
O201 C198 1.252 . S
O202 In195 2.326 . S
O202 C198 1.260 . S
O203 In195 2.266 . S
O203 C200 1.252 . S
O204 In195 2.326 . S
O204 C200 1.260 . S
C205 O196 1.240 . S
C205 O197 1.252 . S
O206 In195 2.294 . S
O206 C199 1.240 . S
O207 In195 2.326 . S
O207 C199 1.252 . S
H208 C216 0.950 . S
H209 C221 0.950 . S
H210 C218 0.950 . S
H211 C220 0.950 . S
H212 C222 0.950 . S
H213 C224 0.950 . S
H214 C226 0.950 . S
H215 C227 0.950 . S
C216 H208 0.950 . S
C216 C217 1.386 . S
C216 C218 1.391 . S
C217 C216 1.386 . S
C217 C221 1.393 . S
C218 H210 0.950 . S
C218 C216 1.391 . S
C218 C219 1.400 . S
C219 C218 1.400 . S
C219 C220 1.398 . S
C219 C225 1.491 . S
C220 H211 0.950 . S
C220 C219 1.398 . S
C220 C221 1.391 . S
C221 H209 0.950 . S
C221 C217 1.393 . S
C221 C220 1.391 . S
C222 H212 0.950 . S
C222 C223 1.386 . S
C222 C224 1.391 . S
C223 C222 1.386 . S
C223 C227 1.393 . S
C224 H213 0.950 . S
C224 C222 1.391 . S
C224 C225 1.400 . S
C225 C219 1.491 . S
C225 C224 1.400 . S
C225 C226 1.398 . S
C226 H214 0.950 . S
C226 C225 1.398 . S
C226 C227 1.391 . S
C227 H215 0.950 . S
C227 C223 1.393 . S
C227 C226 1.391 . S
H228 C236 0.950 . S
H229 C241 0.950 . S
H230 C238 0.950 . S
H231 C240 0.950 . S
H232 C242 0.950 . S
H233 C244 0.950 . S
H234 C246 0.950 . S
H235 C247 0.950 . S
C236 H228 0.950 . S
C236 C237 1.386 . S
C236 C238 1.391 . S
C237 C236 1.386 . S
C237 C241 1.393 . S
C238 H230 0.950 . S
C238 C236 1.391 . S
C238 C239 1.400 . S
C239 C238 1.400 . S
C239 C240 1.398 . S
C239 C245 1.491 . S
C240 H231 0.950 . S
C240 C239 1.398 . S
C240 C241 1.391 . S
C241 H229 0.950 . S
C241 C237 1.393 . S
C241 C240 1.391 . S
C242 H232 0.950 . S
C242 C243 1.386 . S
C242 C244 1.391 . S
C243 C242 1.386 . S
C243 C247 1.393 . S
C244 H233 0.950 . S
C244 C242 1.391 . S
C244 C245 1.400 . S
C245 C239 1.491 . S
C245 C244 1.400 . S
C245 C246 1.398 . S
C246 H234 0.950 . S
C246 C245 1.398 . S
C246 C247 1.391 . S
C247 H235 0.950 . S
C247 C243 1.393 . S
C247 C246 1.391 . S
H248 C256 0.950 . S
H249 C261 0.950 . S
H250 C258 0.950 . S
H251 C260 0.950 . S
H252 C262 0.950 . S
H253 C264 0.950 . S
H254 C266 0.950 . S
H255 C267 0.950 . S
C256 H248 0.950 . S
C256 C257 1.386 . S
C256 C258 1.391 . S
C257 C256 1.386 . S
C257 C261 1.393 . S
C258 H250 0.950 . S
C258 C256 1.391 . S
C258 C259 1.400 . S
C259 C258 1.400 . S
C259 C260 1.398 . S
C259 C265 1.491 . S
C260 H251 0.950 . S
C260 C259 1.398 . S
C260 C261 1.391 . S
C261 H249 0.950 . S
C261 C257 1.393 . S
C261 C260 1.391 . S
C262 H252 0.950 . S
C262 C263 1.386 . S
C262 C264 1.391 . S
C263 C262 1.386 . S
C263 C267 1.393 . S
C264 H253 0.950 . S
C264 C262 1.391 . S
C264 C265 1.400 . S
C265 C259 1.491 . S
C265 C264 1.400 . S
C265 C266 1.398 . S
C266 H254 0.950 . S
C266 C265 1.398 . S
C266 C267 1.391 . S
C267 H255 0.950 . S
C267 C263 1.393 . S
C267 C266 1.391 . S
H268 C276 0.950 . S
H269 C281 0.950 . S
H270 C278 0.950 . S
H271 C280 0.950 . S
H272 C282 0.950 . S
H273 C284 0.950 . S
H274 C286 0.950 . S
H275 C287 0.950 . S
C276 H268 0.950 . S
C276 C277 1.386 . S
C276 C278 1.391 . S
C277 C276 1.386 . S
C277 C281 1.393 . S
C278 H270 0.950 . S
C278 C276 1.391 . S
C278 C279 1.400 . S
C279 C278 1.400 . S
C279 C280 1.398 . S
C279 C285 1.491 . S
C280 H271 0.950 . S
C280 C279 1.398 . S
C280 C281 1.391 . S
C281 H269 0.950 . S
C281 C277 1.393 . S
C281 C280 1.391 . S
C282 H272 0.950 . S
C282 C283 1.386 . S
C282 C284 1.391 . S
C283 C282 1.386 . S
C283 C287 1.393 . S
C284 H273 0.950 . S
C284 C282 1.391 . S
C284 C285 1.400 . S
C285 C279 1.491 . S
C285 C284 1.400 . S
C285 C286 1.398 . S
C286 H274 0.950 . S
C286 C285 1.398 . S
C286 C287 1.391 . S
C287 H275 0.950 . S
C287 C283 1.393 . S
C287 C286 1.391 . S
H288 C296 0.950 . S
H289 C301 0.950 . S
H290 C298 0.950 . S
H291 C300 0.950 . S
H292 C302 0.950 . S
H293 C304 0.950 . S
H294 C306 0.950 . S
H295 C307 0.950 . S
C296 H288 0.950 . S
C296 C297 1.386 . S
C296 C298 1.391 . S
C297 C296 1.386 . S
C297 C301 1.393 . S
C298 H290 0.950 . S
C298 C296 1.391 . S
C298 C299 1.400 . S
C299 C298 1.400 . S
C299 C300 1.398 . S
C299 C305 1.491 . S
C300 H291 0.950 . S
C300 C299 1.398 . S
C300 C301 1.391 . S
C301 H289 0.950 . S
C301 C297 1.393 . S
C301 C300 1.391 . S
C302 H292 0.950 . S
C302 C303 1.386 . S
C302 C304 1.391 . S
C303 C302 1.386 . S
C303 C307 1.393 . S
C304 H293 0.950 . S
C304 C302 1.391 . S
C304 C305 1.400 . S
C305 C299 1.491 . S
C305 C304 1.400 . S
C305 C306 1.398 . S
C306 H294 0.950 . S
C306 C305 1.398 . S
C306 C307 1.391 . S
C307 H295 0.950 . S
C307 C303 1.393 . S
C307 C306 1.391 . S
H308 C316 0.950 . S
H309 C321 0.950 . S
H310 C318 0.950 . S
H311 C320 0.950 . S
H312 C322 0.950 . S
H313 C324 0.950 . S
H314 C326 0.950 . S
H315 C327 0.950 . S
C316 H308 0.950 . S
C316 C317 1.386 . S
C316 C318 1.391 . S
C317 C316 1.386 . S
C317 C321 1.393 . S
C318 H310 0.950 . S
C318 C316 1.391 . S
C318 C319 1.400 . S
C319 C318 1.400 . S
C319 C320 1.398 . S
C319 C325 1.491 . S
C320 H311 0.950 . S
C320 C319 1.398 . S
C320 C321 1.391 . S
C321 H309 0.950 . S
C321 C317 1.393 . S
C321 C320 1.391 . S
C322 H312 0.950 . S
C322 C323 1.386 . S
C322 C324 1.391 . S
C323 C322 1.386 . S
C323 C327 1.393 . S
C324 H313 0.950 . S
C324 C322 1.391 . S
C324 C325 1.400 . S
C325 C319 1.491 . S
C325 C324 1.400 . S
C325 C326 1.398 . S
C326 H314 0.950 . S
C326 C325 1.398 . S
C326 C327 1.391 . S
C327 H315 0.950 . S
C327 C323 1.393 . S
C327 C326 1.391 . S
H328 C336 0.950 . S
H329 C341 0.950 . S
H330 C338 0.950 . S
H331 C340 0.950 . S
H332 C342 0.950 . S
H333 C344 0.950 . S
H334 C346 0.950 . S
H335 C347 0.950 . S
C336 H328 0.950 . S
C336 C337 1.386 . S
C336 C338 1.391 . S
C337 C336 1.386 . S
C337 C341 1.393 . S
C338 H330 0.950 . S
C338 C336 1.391 . S
C338 C339 1.400 . S
C339 C338 1.400 . S
C339 C340 1.398 . S
C339 C345 1.491 . S
C340 H331 0.950 . S
C340 C339 1.398 . S
C340 C341 1.391 . S
C341 H329 0.950 . S
C341 C337 1.393 . S
C341 C340 1.391 . S
C342 H332 0.950 . S
C342 C343 1.386 . S
C342 C344 1.391 . S
C343 C342 1.386 . S
C343 C347 1.393 . S
C344 H333 0.950 . S
C344 C342 1.391 . S
C344 C345 1.400 . S
C345 C339 1.491 . S
C345 C344 1.400 . S
C345 C346 1.398 . S
C346 H334 0.950 . S
C346 C345 1.398 . S
C346 C347 1.391 . S
C347 H335 0.950 . S
C347 C343 1.393 . S
C347 C346 1.391 . S
H348 C356 0.950 . S
H349 C361 0.950 . S
H350 C358 0.950 . S
H351 C360 0.950 . S
H352 C362 0.950 . S
H353 C364 0.950 . S
H354 C366 0.950 . S
H355 C367 0.950 . S
C356 H348 0.950 . S
C356 C357 1.386 . S
C356 C358 1.391 . S
C357 C356 1.386 . S
C357 C361 1.393 . S
C358 H350 0.950 . S
C358 C356 1.391 . S
C358 C359 1.400 . S
C359 C358 1.400 . S
C359 C360 1.398 . S
C359 C365 1.491 . S
C360 H351 0.950 . S
C360 C359 1.398 . S
C360 C361 1.391 . S
C361 H349 0.950 . S
C361 C357 1.393 . S
C361 C360 1.391 . S
C362 H352 0.950 . S
C362 C363 1.386 . S
C362 C364 1.391 . S
C363 C362 1.386 . S
C363 C367 1.393 . S
C364 H353 0.950 . S
C364 C362 1.391 . S
C364 C365 1.400 . S
C365 C359 1.491 . S
C365 C364 1.400 . S
C365 C366 1.398 . S
C366 H354 0.950 . S
C366 C365 1.398 . S
C366 C367 1.391 . S
C367 H355 0.950 . S
C367 C363 1.393 . S
C367 C366 1.391 . S
H368 C376 0.950 . S
H369 C381 0.950 1_455 S
H370 C378 0.950 . S
H371 C380 0.950 . S
H372 C382 0.950 . S
H373 C384 0.950 . S
H374 C386 0.950 . S
H375 C387 0.950 1_655 S
C376 H368 0.950 . S
C376 C377 1.386 . S
C376 C378 1.391 . S
C377 C376 1.386 . S
C377 C381 1.393 . S
C378 H370 0.950 . S
C378 C376 1.391 . S
C378 C379 1.400 . S
C379 C378 1.400 . S
C379 C380 1.398 1_655 S
C379 C385 1.491 1_655 S
C380 H371 0.950 . S
C380 C379 1.398 1_455 S
C380 C381 1.391 1_455 S
C381 H369 0.950 1_655 S
C381 C377 1.393 . S
C381 C380 1.391 1_655 S
C382 H372 0.950 . S
C382 C383 1.386 . S
C382 C384 1.391 . S
C383 C382 1.386 . S
C383 C387 1.393 . S
C384 H373 0.950 . S
C384 C382 1.391 . S
C384 C385 1.400 . S
C385 C379 1.491 1_455 S
C385 C384 1.400 . S
C385 C386 1.398 1_455 S
C386 H374 0.950 . S
C386 C385 1.398 1_655 S
C386 C387 1.391 1_655 S
C387 H375 0.950 1_455 S
C387 C383 1.393 . S
C387 C386 1.391 1_455 S
H388 C396 0.950 . S
H389 C401 0.950 . S
H390 C398 0.947 1_565 S
H391 C400 0.950 . S
H392 C402 0.950 . S
H393 C404 0.950 1_545 S
H394 C406 0.950 . S
H395 C407 0.950 . S
C396 H388 0.950 . S
C396 C397 1.386 . S
C396 C398 1.391 1_655 S
C397 C396 1.386 . S
C397 C401 1.393 . S
C398 H390 0.947 1_545 S
C398 C396 1.391 1_455 S
C398 C399 1.400 1_455 S
C399 C398 1.400 1_655 S
C399 C400 1.398 . S
C399 C405 1.491 1_645 S
C400 H391 0.950 . S
C400 C399 1.398 . S
C400 C401 1.391 . S
C401 H389 0.950 . S
C401 C397 1.393 . S
C401 C400 1.391 . S
C402 H392 0.950 . S
C402 C403 1.386 . S
C402 C404 1.391 1_455 S
C403 C402 1.386 . S
C403 C407 1.393 . S
C404 H393 0.950 1_565 S
C404 C402 1.391 1_655 S
C404 C405 1.400 1_655 S
C405 C399 1.491 1_465 S
C405 C404 1.400 1_455 S
C405 C406 1.398 . S
C406 H394 0.950 . S
C406 C405 1.398 . S
C406 C407 1.391 . S
C407 H395 0.950 . S
C407 C403 1.393 . S
C407 C406 1.391 . S
H408 C416 0.950 . S
H409 C421 0.950 . S
H410 C418 0.950 . S
H411 C420 0.950 . S
H412 C422 0.950 . S
H413 C424 0.950 . S
H414 C426 0.950 . S
H415 C427 0.950 . S
C416 H408 0.950 . S
C416 C417 1.386 . S
C416 C418 1.391 . S
C417 C416 1.386 . S
C417 C421 1.393 . S
C418 H410 0.950 . S
C418 C416 1.391 . S
C418 C419 1.400 . S
C419 C418 1.400 . S
C419 C420 1.398 . S
C419 C425 1.491 1_545 S
C420 H411 0.950 . S
C420 C419 1.398 . S
C420 C421 1.391 . S
C421 H409 0.950 . S
C421 C417 1.393 . S
C421 C420 1.391 . S
C422 H412 0.950 . S
C422 C423 1.386 . S
C422 C424 1.391 . S
C423 C422 1.386 . S
C423 C427 1.393 . S
C424 H413 0.950 . S
C424 C422 1.391 . S
C424 C425 1.400 . S
C425 C419 1.491 1_565 S
C425 C424 1.400 . S
C425 C426 1.398 . S
C426 H414 0.950 . S
C426 C425 1.398 . S
C426 C427 1.391 . S
C427 H415 0.950 . S
C427 C423 1.393 . S
C427 C426 1.391 . S
H428 C436 0.950 . S
H429 C441 0.950 . S
H430 C438 0.950 . S
H431 C440 0.950 . S
H432 C442 0.950 . S
H433 C444 0.950 . S
H434 C446 0.950 . S
H435 C447 0.950 . S
C436 H428 0.950 . S
C436 C437 1.386 . S
C436 C438 1.391 . S
C437 C436 1.386 . S
C437 C441 1.393 . S
C438 H430 0.950 . S
C438 C436 1.391 . S
C438 C439 1.400 . S
C439 C438 1.400 . S
C439 C440 1.398 . S
C439 C445 1.491 . S
C440 H431 0.950 . S
C440 C439 1.398 . S
C440 C441 1.391 . S
C441 H429 0.950 . S
C441 C437 1.393 . S
C441 C440 1.391 . S
C442 H432 0.950 . S
C442 C443 1.386 . S
C442 C444 1.391 . S
C443 C442 1.386 . S
C443 C447 1.393 . S
C444 H433 0.950 . S
C444 C442 1.391 . S
C444 C445 1.400 . S
C445 C439 1.491 . S
C445 C444 1.400 . S
C445 C446 1.398 . S
C446 H434 0.950 . S
C446 C445 1.398 . S
C446 C447 1.391 . S
C447 H435 0.950 . S
C447 C443 1.393 . S
C447 C446 1.391 . S
H448 C456 0.950 . S
H449 C461 0.950 . S
H450 C458 0.950 . S
H451 C460 0.950 . S
H452 C462 0.950 . S
H453 C464 0.950 . S
H454 C466 0.950 . S
H455 C467 0.950 . S
C456 H448 0.950 . S
C456 C457 1.386 . S
C456 C458 1.391 . S
C457 C456 1.386 . S
C457 C461 1.393 . S
C458 H450 0.950 . S
C458 C456 1.391 . S
C458 C459 1.400 . S
C459 C458 1.400 . S
C459 C460 1.398 . S
C459 C465 1.491 1_455 S
C460 H451 0.950 . S
C460 C459 1.398 . S
C460 C461 1.391 . S
C461 H449 0.950 . S
C461 C457 1.393 . S
C461 C460 1.391 . S
C462 H452 0.950 . S
C462 C463 1.386 . S
C462 C464 1.391 . S
C463 C462 1.386 . S
C463 C467 1.393 . S
C464 H453 0.950 . S
C464 C462 1.391 . S
C464 C465 1.400 . S
C465 C459 1.491 1_655 S
C465 C464 1.400 . S
C465 C466 1.398 . S
C466 H454 0.950 . S
C466 C465 1.398 . S
C466 C467 1.391 . S
C467 H455 0.950 . S
C467 C463 1.393 . S
C467 C466 1.391 . S
H468 C476 0.950 . S
H469 C481 0.950 . S
H470 C478 0.950 . S
H471 C480 0.938 1_645 S
H472 C482 0.950 . S
H473 C484 0.950 . S
H474 C486 0.962 1_455 S
H475 C487 0.950 . S
C476 H468 0.950 . S
C476 C477 1.386 . S
C476 C478 1.391 . S
C477 C476 1.386 . S
C477 C481 1.393 . S
C478 H470 0.950 . S
C478 C476 1.391 . S
C478 C479 1.400 . S
C479 C478 1.400 . S
C479 C480 1.401 . S
C479 C485 1.491 1_465 S
C480 H471 0.938 1_465 S
C480 C479 1.401 . S
C480 C481 1.400 . S
C481 H469 0.950 . S
C481 C477 1.393 . S
C481 C480 1.400 . S
C482 H472 0.950 . S
C482 C483 1.386 . S
C482 C484 1.391 . S
C483 C482 1.386 . S
C483 C487 1.393 . S
C484 H473 0.950 . S
C484 C482 1.391 . S
C484 C485 1.400 . S
C485 C479 1.491 1_645 S
C485 C484 1.400 . S
C485 C486 1.395 1_545 S
C486 H474 0.962 1_655 S
C486 C485 1.395 1_565 S
C486 C487 1.383 1_565 S
C487 H475 0.950 . S
C487 C483 1.393 . S
C487 C486 1.383 1_545 S
H488 C496 0.950 . S
H489 C501 0.950 . S
H490 C498 0.950 . S
H491 C500 0.950 . S
H492 C502 0.950 . S
H493 C504 0.950 . S
H494 C506 0.950 . S
H495 C507 0.950 . S
C496 H488 0.950 . S
C496 C497 1.386 . S
C496 C498 1.391 . S
C497 C496 1.386 . S
C497 C501 1.393 . S
C498 H490 0.950 . S
C498 C496 1.391 . S
C498 C499 1.400 . S
C499 C498 1.400 . S
C499 C500 1.398 . S
C499 C505 1.491 1_545 S
C500 H491 0.950 . S
C500 C499 1.398 . S
C500 C501 1.391 . S
C501 H489 0.950 . S
C501 C497 1.393 . S
C501 C500 1.391 . S
C502 H492 0.950 . S
C502 C503 1.386 . S
C502 C504 1.391 . S
C503 C502 1.386 . S
C503 C507 1.393 . S
C504 H493 0.950 . S
C504 C502 1.391 . S
C504 C505 1.400 . S
C505 C499 1.491 1_565 S
C505 C504 1.400 . S
C505 C506 1.398 . S
C506 H494 0.950 . S
C506 C505 1.398 . S
C506 C507 1.391 . S
C507 H495 0.950 . S
C507 C503 1.393 . S
C507 C506 1.391 . S
H508 C516 0.950 . S
H509 C521 0.950 . S
H510 C518 0.950 . S
H511 C520 0.950 . S
H512 C522 0.950 . S
H513 C524 0.950 . S
H514 C526 0.950 . S
H515 C527 0.950 . S
C516 H508 0.950 . S
C516 C517 1.386 . S
C516 C518 1.391 . S
C517 C516 1.386 . S
C517 C521 1.393 . S
C518 H510 0.950 . S
C518 C516 1.391 . S
C518 C519 1.400 . S
C519 C518 1.400 . S
C519 C520 1.398 . S
C519 C525 1.491 . S
C520 H511 0.950 . S
C520 C519 1.398 . S
C520 C521 1.391 . S
C521 H509 0.950 . S
C521 C517 1.393 . S
C521 C520 1.391 . S
C522 H512 0.950 . S
C522 C523 1.386 . S
C522 C524 1.391 . S
C523 C522 1.386 . S
C523 C527 1.393 . S
C524 H513 0.950 . S
C524 C522 1.391 . S
C524 C525 1.400 . S
C525 C519 1.491 . S
C525 C524 1.400 . S
C525 C526 1.398 . S
C526 H514 0.950 . S
C526 C525 1.398 . S
C526 C527 1.391 . S
C527 H515 0.950 . S
C527 C523 1.393 . S
C527 C526 1.391 . S
H528 C536 0.950 . S
H529 C541 0.950 . S
H530 C538 0.950 . S
H531 C540 0.950 . S
H532 C542 0.950 . S
H533 C544 0.950 . S
H534 C546 0.950 . S
H535 C547 0.950 . S
C536 H528 0.950 . S
C536 C537 1.386 . S
C536 C538 1.391 . S
C537 C536 1.386 . S
C537 C541 1.393 . S
C538 H530 0.950 . S
C538 C536 1.391 . S
C538 C539 1.400 . S
C539 C538 1.400 . S
C539 C540 1.398 . S
C539 C545 1.491 . S
C540 H531 0.950 . S
C540 C539 1.398 . S
C540 C541 1.391 . S
C541 H529 0.950 . S
C541 C537 1.393 . S
C541 C540 1.391 . S
C542 H532 0.950 . S
C542 C543 1.386 . S
C542 C544 1.391 . S
C543 C542 1.386 . S
C543 C547 1.393 . S
C544 H533 0.950 . S
C544 C542 1.391 . S
C544 C545 1.400 . S
C545 C539 1.491 . S
C545 C544 1.400 . S
C545 C546 1.398 . S
C546 H534 0.950 . S
C546 C545 1.398 . S
C546 C547 1.391 . S
C547 H535 0.950 . S
C547 C543 1.393 . S
C547 C546 1.391 . S
H548 C556 0.950 . S
H549 C561 0.950 . S
H550 C558 0.950 . S
H551 C560 0.950 . S
H552 C562 0.950 . S
H553 C564 0.950 . S
H554 C566 0.950 . S
H555 C567 0.950 . S
C556 H548 0.950 . S
C556 C557 1.386 . S
C556 C558 1.391 . S
C557 C556 1.386 . S
C557 C561 1.393 . S
C558 H550 0.950 . S
C558 C556 1.391 . S
C558 C559 1.400 . S
C559 C558 1.400 . S
C559 C560 1.398 . S
C559 C565 1.491 . S
C560 H551 0.950 . S
C560 C559 1.398 . S
C560 C561 1.391 . S
C561 H549 0.950 . S
C561 C557 1.393 . S
C561 C560 1.391 . S
C562 H552 0.950 . S
C562 C563 1.386 . S
C562 C564 1.391 . S
C563 C562 1.386 . S
C563 C567 1.393 . S
C564 H553 0.950 . S
C564 C562 1.391 . S
C564 C565 1.400 . S
C565 C559 1.491 . S
C565 C564 1.400 . S
C565 C566 1.398 . S
C566 H554 0.950 . S
C566 C565 1.398 . S
C566 C567 1.391 . S
C567 H555 0.950 . S
C567 C563 1.393 . S
C567 C566 1.391 . S
H568 C576 0.950 . S
H569 C581 0.950 . S
H570 C578 0.950 . S
H571 C580 0.950 . S
H572 C582 0.950 . S
H573 C584 0.950 . S
H574 C586 0.950 . S
H575 C587 0.950 . S
C576 H568 0.950 . S
C576 C577 1.386 . S
C576 C578 1.391 . S
C577 C576 1.386 . S
C577 C581 1.393 . S
C578 H570 0.950 . S
C578 C576 1.391 . S
C578 C579 1.400 . S
C579 C578 1.400 . S
C579 C580 1.398 . S
C579 C585 1.491 . S
C580 H571 0.950 . S
C580 C579 1.398 . S
C580 C581 1.391 . S
C581 H569 0.950 . S
C581 C577 1.393 . S
C581 C580 1.391 . S
C582 H572 0.950 . S
C582 C583 1.386 . S
C582 C584 1.391 . S
C583 C582 1.386 . S
C583 C587 1.393 . S
C584 H573 0.950 . S
C584 C582 1.391 . S
C584 C585 1.400 . S
C585 C579 1.491 . S
C585 C584 1.400 . S
C585 C586 1.398 . S
C586 H574 0.950 . S
C586 C585 1.398 . S
C586 C587 1.391 . S
C587 H575 0.950 . S
C587 C583 1.393 . S
C587 C586 1.391 . S
H588 C596 0.950 . S
H589 C601 0.950 . S
H590 C598 0.950 . S
H591 C600 0.950 . S
H592 C602 0.950 . S
H593 C604 0.950 . S
H594 C606 0.950 . S
H595 C607 0.950 . S
C596 H588 0.950 . S
C596 C597 1.386 . S
C596 C598 1.391 . S
C597 C596 1.386 . S
C597 C601 1.393 . S
C598 H590 0.950 . S
C598 C596 1.391 . S
C598 C599 1.400 . S
C599 C598 1.400 . S
C599 C600 1.398 . S
C599 C605 1.491 . S
C600 H591 0.950 . S
C600 C599 1.398 . S
C600 C601 1.391 . S
C601 H589 0.950 . S
C601 C597 1.393 . S
C601 C600 1.391 . S
C602 H592 0.950 . S
C602 C603 1.386 . S
C602 C604 1.391 . S
C603 C602 1.386 . S
C603 C607 1.393 . S
C604 H593 0.950 . S
C604 C602 1.391 . S
C604 C605 1.400 . S
C605 C599 1.491 . S
C605 C604 1.400 . S
C605 C606 1.398 . S
C606 H594 0.950 . S
C606 C605 1.398 . S
C606 C607 1.391 . S
C607 H595 0.950 . S
C607 C603 1.393 . S
C607 C606 1.391 . S
H608 C616 0.950 . S
H609 C621 0.950 . S
H610 C618 0.950 . S
H611 C620 0.950 . S
H612 C622 0.950 . S
H613 C624 0.950 . S
H614 C626 0.950 . S
H615 C627 0.950 . S
C616 H608 0.950 . S
C616 C617 1.386 . S
C616 C618 1.391 . S
C617 C616 1.386 . S
C617 C621 1.393 . S
C618 H610 0.950 . S
C618 C616 1.391 . S
C618 C619 1.400 . S
C619 C618 1.400 . S
C619 C620 1.398 . S
C619 C625 1.491 . S
C620 H611 0.950 . S
C620 C619 1.398 . S
C620 C621 1.391 . S
C621 H609 0.950 . S
C621 C617 1.393 . S
C621 C620 1.391 . S
C622 H612 0.950 . S
C622 C623 1.386 . S
C622 C624 1.391 . S
C623 C622 1.386 . S
C623 C627 1.393 . S
C624 H613 0.950 . S
C624 C622 1.391 . S
C624 C625 1.400 . S
C625 C619 1.491 . S
C625 C624 1.400 . S
C625 C626 1.398 . S
C626 H614 0.950 . S
C626 C625 1.398 . S
C626 C627 1.391 . S
C627 H615 0.950 . S
C627 C623 1.393 . S
C627 C626 1.391 . S
H628 C636 0.950 . S
H629 C641 0.950 . S
H630 C638 0.950 . S
H631 C640 0.950 . S
H632 C642 0.950 . S
H633 C644 0.950 . S
H634 C646 0.950 . S
H635 C647 0.950 . S
C636 H628 0.950 . S
C636 C637 1.386 . S
C636 C638 1.391 . S
C637 C636 1.386 . S
C637 C641 1.393 . S
C638 H630 0.950 . S
C638 C636 1.391 . S
C638 C639 1.400 . S
C639 C638 1.400 . S
C639 C640 1.398 . S
C639 C645 1.491 . S
C640 H631 0.950 . S
C640 C639 1.398 . S
C640 C641 1.391 . S
C641 H629 0.950 . S
C641 C637 1.393 . S
C641 C640 1.391 . S
C642 H632 0.950 . S
C642 C643 1.386 . S
C642 C644 1.391 . S
C643 C642 1.386 . S
C643 C647 1.393 . S
C644 H633 0.950 . S
C644 C642 1.391 . S
C644 C645 1.400 . S
C645 C639 1.491 . S
C645 C644 1.400 . S
C645 C646 1.398 . S
C646 H634 0.950 . S
C646 C645 1.398 . S
C646 C647 1.391 . S
C647 H635 0.950 . S
C647 C643 1.393 . S
C647 C646 1.391 . S
H648 C656 0.950 . S
H649 C661 0.950 . S
H650 C658 0.950 . S
H651 C660 0.950 . S
H652 C662 0.950 . S
H653 C664 0.950 . S
H654 C666 0.950 . S
H655 C667 0.950 . S
C656 H648 0.950 . S
C656 C657 1.386 . S
C656 C658 1.391 . S
C657 C656 1.386 . S
C657 C661 1.393 . S
C658 H650 0.950 . S
C658 C656 1.391 . S
C658 C659 1.400 . S
C659 C658 1.400 . S
C659 C660 1.398 . S
C659 C665 1.491 . S
C660 H651 0.950 . S
C660 C659 1.398 . S
C660 C661 1.391 . S
C661 H649 0.950 . S
C661 C657 1.393 . S
C661 C660 1.391 . S
C662 H652 0.950 . S
C662 C663 1.386 . S
C662 C664 1.391 . S
C663 C662 1.386 . S
C663 C667 1.393 . S
C664 H653 0.950 . S
C664 C662 1.391 . S
C664 C665 1.400 . S
C665 C659 1.491 . S
C665 C664 1.400 . S
C665 C666 1.398 . S
C666 H654 0.950 . S
C666 C665 1.398 . S
C666 C667 1.391 . S
C667 H655 0.950 . S
C667 C663 1.393 . S
C667 C666 1.391 . S
H668 C676 0.950 . S
H669 C681 0.950 . S
H670 C678 0.950 . S
H671 C680 0.950 . S
H672 C682 0.950 . S
H673 C684 0.950 . S
H674 C686 0.950 . S
H675 C687 0.950 . S
C676 H668 0.950 . S
C676 C677 1.386 . S
C676 C678 1.391 . S
C677 C676 1.386 . S
C677 C681 1.393 . S
C678 H670 0.950 . S
C678 C676 1.391 . S
C678 C679 1.400 . S
C679 C678 1.400 . S
C679 C680 1.398 . S
C679 C685 1.491 . S
C680 H671 0.950 . S
C680 C679 1.398 . S
C680 C681 1.391 . S
C681 H669 0.950 . S
C681 C677 1.393 . S
C681 C680 1.391 . S
C682 H672 0.950 . S
C682 C683 1.386 . S
C682 C684 1.391 . S
C683 C682 1.386 . S
C683 C687 1.393 . S
C684 H673 0.950 . S
C684 C682 1.391 . S
C684 C685 1.400 . S
C685 C679 1.491 . S
C685 C684 1.400 . S
C685 C686 1.398 . S
C686 H674 0.950 . S
C686 C685 1.398 . S
C686 C687 1.391 . S
C687 H675 0.950 . S
C687 C683 1.393 . S
C687 C686 1.391 . S
H688 C696 0.950 . S
H689 C701 0.950 . S
H690 C698 0.950 1_655 S
H691 C700 0.950 . S
H692 C702 0.950 . S
H693 C704 0.950 1_455 S
H694 C706 0.950 . S
H695 C707 0.950 . S
C696 H688 0.950 . S
C696 C697 1.386 . S
C696 C698 1.391 . S
C697 C696 1.386 . S
C697 C701 1.393 . S
C698 H690 0.950 1_455 S
C698 C696 1.391 . S
C698 C699 1.400 . S
C699 C698 1.400 . S
C699 C700 1.398 1_554 S
C699 C705 1.491 1_454 S
C700 H691 0.950 . S
C700 C699 1.398 1_556 S
C700 C701 1.391 1_556 S
C701 H689 0.950 . S
C701 C697 1.393 . S
C701 C700 1.391 1_554 S
C702 H692 0.950 . S
C702 C703 1.386 . S
C702 C704 1.391 . S
C703 C702 1.386 . S
C703 C707 1.393 . S
C704 H693 0.950 1_655 S
C704 C702 1.391 . S
C704 C705 1.400 . S
C705 C699 1.491 1_656 S
C705 C704 1.400 . S
C705 C706 1.398 1_556 S
C706 H694 0.950 . S
C706 C705 1.398 1_554 S
C706 C707 1.391 1_554 S
C707 H695 0.950 . S
C707 C703 1.393 . S
C707 C706 1.391 1_556 S
H708 C716 0.941 1_545 S
H709 C721 0.950 . S
H710 C718 0.950 . S
H711 C720 0.950 1_655 S
H712 C722 0.941 1_565 S
H713 C724 0.950 . S
H714 C726 0.950 1_455 S
H715 C727 0.950 . S
C716 H708 0.941 1_565 S
C716 C717 1.386 . S
C716 C718 1.391 1_565 S
C717 C716 1.386 . S
C717 C721 1.393 . S
C718 H710 0.950 . S
C718 C716 1.391 1_545 S
C718 C719 1.400 1_545 S
C719 C718 1.400 1_565 S
C719 C720 1.398 . S
C719 C725 1.491 1_466 S
C720 H711 0.950 1_455 S
C720 C719 1.398 . S
C720 C721 1.391 . S
C721 H709 0.950 . S
C721 C717 1.393 . S
C721 C720 1.391 . S
C722 H712 0.941 1_545 S
C722 C723 1.386 . S
C722 C724 1.391 1_545 S
C723 C722 1.386 . S
C723 C727 1.393 . S
C724 H713 0.950 . S
C724 C722 1.391 1_565 S
C724 C725 1.400 1_565 S
C725 C719 1.491 1_644 S
C725 C724 1.400 1_545 S
C725 C726 1.398 . S
C726 H714 0.950 1_655 S
C726 C725 1.398 . S
C726 C727 1.391 . S
C727 H715 0.950 . S
C727 C723 1.393 . S
C727 C726 1.391 . S
H728 C736 0.950 . S
H729 C741 0.950 . S
H730 C738 0.950 . S
H731 C740 0.945 1_546 S
H732 C742 0.950 . S
H733 C744 0.950 . S
H734 C746 0.945 1_564 S
H735 C747 0.950 . S
C736 H728 0.950 . S
C736 C737 1.386 . S
C736 C738 1.391 . S
C737 C736 1.386 . S
C737 C741 1.393 . S
C738 H730 0.950 . S
C738 C736 1.391 . S
C738 C739 1.400 . S
C739 C738 1.400 . S
C739 C740 1.398 . S
C739 C745 1.491 1_564 S
C740 H731 0.945 1_564 S
C740 C739 1.398 . S
C740 C741 1.391 . S
C741 H729 0.950 . S
C741 C737 1.393 . S
C741 C740 1.391 . S
C742 H732 0.950 . S
C742 C743 1.386 . S
C742 C744 1.391 . S
C743 C742 1.386 . S
C743 C747 1.393 . S
C744 H733 0.950 . S
C744 C742 1.391 . S
C744 C745 1.400 . S
C745 C739 1.491 1_546 S
C745 C744 1.400 . S
C745 C746 1.398 . S
C746 H734 0.945 1_546 S
C746 C745 1.398 . S
C746 C747 1.391 . S
C747 H735 0.950 . S
C747 C743 1.393 . S
C747 C746 1.391 . S
H748 C756 0.950 . S
H749 C761 0.950 . S
H750 C758 0.924 1_554 S
H751 C760 0.950 . S
H752 C762 0.950 . S
H753 C764 0.924 1_556 S
H754 C766 0.950 . S
H755 C767 0.950 . S
C756 H748 0.950 . S
C756 C757 1.386 . S
C756 C758 1.408 . S
C757 C756 1.386 . S
C757 C761 1.393 . S
C758 H750 0.924 1_556 S
C758 C756 1.408 . S
C758 C759 1.409 . S
C759 C758 1.409 . S
C759 C760 1.398 . S
C759 C765 1.491 1_556 S
C760 H751 0.950 . S
C760 C759 1.398 . S
C760 C761 1.391 . S
C761 H749 0.950 . S
C761 C757 1.393 . S
C761 C760 1.391 . S
C762 H752 0.950 . S
C762 C763 1.386 . S
C762 C764 1.408 . S
C763 C762 1.386 . S
C763 C767 1.393 . S
C764 H753 0.924 1_554 S
C764 C762 1.408 . S
C764 C765 1.409 . S
C765 C759 1.491 1_554 S
C765 C764 1.409 . S
C765 C766 1.398 . S
C766 H754 0.950 . S
C766 C765 1.398 . S
C766 C767 1.391 . S
C767 H755 0.950 . S
C767 C763 1.393 . S
C767 C766 1.391 . S
H768 C776 0.950 . S
H769 C781 0.950 1_655 S
H770 C778 0.950 1_545 S
H771 C780 0.950 . S
H772 C782 0.950 . S
H773 C784 0.950 1_565 S
H774 C786 0.950 . S
H775 C787 0.950 1_455 S
C776 H768 0.950 . S
C776 C777 1.386 . S
C776 C778 1.391 . S
C777 C776 1.386 . S
C777 C781 1.393 . S
C778 H770 0.950 1_565 S
C778 C776 1.391 . S
C778 C779 1.400 . S
C779 C778 1.400 . S
C779 C780 1.398 1_455 S
C779 C785 1.491 1_465 S
C780 H771 0.950 . S
C780 C779 1.398 1_655 S
C780 C781 1.391 1_655 S
C781 H769 0.950 1_455 S
C781 C777 1.393 . S
C781 C780 1.391 1_455 S
C782 H772 0.950 . S
C782 C783 1.386 . S
C782 C784 1.391 . S
C783 C782 1.386 . S
C783 C787 1.393 . S
C784 H773 0.950 1_545 S
C784 C782 1.391 . S
C784 C785 1.400 . S
C785 C779 1.491 1_645 S
C785 C784 1.400 . S
C785 C786 1.398 1_655 S
C786 H774 0.950 . S
C786 C785 1.398 1_455 S
C786 C787 1.391 1_455 S
C787 H775 0.950 1_655 S
C787 C783 1.393 . S
C787 C786 1.391 1_655 S
H788 C796 0.950 1_565 S
H789 C801 0.950 . S
H790 C798 0.950 . S
H791 C800 0.950 . S
H792 C802 0.950 1_545 S
H793 C804 0.950 . S
H794 C806 0.950 . S
H795 C807 0.950 . S
C796 H788 0.950 1_545 S
C796 C797 1.386 . S
C796 C798 1.391 1_545 S
C797 C796 1.386 . S
C797 C801 1.393 . S
C798 H790 0.950 . S
C798 C796 1.391 1_565 S
C798 C799 1.400 1_565 S
C799 C798 1.400 1_545 S
C799 C800 1.398 . S
C799 C805 1.491 1_545 S
C800 H791 0.950 . S
C800 C799 1.398 . S
C800 C801 1.391 . S
C801 H789 0.950 . S
C801 C797 1.393 . S
C801 C800 1.391 . S
C802 H792 0.950 1_565 S
C802 C803 1.386 . S
C802 C804 1.391 1_565 S
C803 C802 1.386 . S
C803 C807 1.393 . S
C804 H793 0.950 . S
C804 C802 1.391 1_545 S
C804 C805 1.400 1_545 S
C805 C799 1.491 1_565 S
C805 C804 1.400 1_565 S
C805 C806 1.398 . S
C806 H794 0.950 . S
C806 C805 1.398 . S
C806 C807 1.391 . S
C807 H795 0.950 . S
C807 C803 1.393 . S
C807 C806 1.391 . S
H808 C816 0.950 . S
H809 C821 0.950 . S
H810 C818 0.950 . S
H811 C820 0.950 . S
H812 C822 0.950 . S
H813 C824 0.950 . S
H814 C826 0.950 . S
H815 C827 0.950 . S
C816 H808 0.950 . S
C816 C817 1.386 . S
C816 C818 1.391 . S
C817 C816 1.386 . S
C817 C821 1.393 . S
C818 H810 0.950 . S
C818 C816 1.391 . S
C818 C819 1.400 . S
C819 C818 1.400 . S
C819 C820 1.398 . S
C819 C825 1.491 . S
C820 H811 0.950 . S
C820 C819 1.398 . S
C820 C821 1.391 . S
C821 H809 0.950 . S
C821 C817 1.393 . S
C821 C820 1.391 . S
C822 H812 0.950 . S
C822 C823 1.386 . S
C822 C824 1.391 . S
C823 C822 1.386 . S
C823 C827 1.393 . S
C824 H813 0.950 . S
C824 C822 1.391 . S
C824 C825 1.400 . S
C825 C819 1.491 . S
C825 C824 1.400 . S
C825 C826 1.398 . S
C826 H814 0.950 . S
C826 C825 1.398 . S
C826 C827 1.391 . S
C827 H815 0.950 . S
C827 C823 1.393 . S
C827 C826 1.391 . S
H828 C836 0.950 . S
H829 C841 0.950 . S
H830 C838 0.950 1_455 S
H831 C840 0.950 . S
H832 C842 0.950 . S
H833 C844 0.950 1_655 S
H834 C846 0.950 . S
H835 C847 0.950 . S
C836 H828 0.950 . S
C836 C837 1.386 . S
C836 C838 1.391 . S
C837 C836 1.386 . S
C837 C841 1.393 . S
C838 H830 0.950 1_655 S
C838 C836 1.391 . S
C838 C839 1.400 . S
C839 C838 1.400 . S
C839 C840 1.398 . S
C839 C845 1.491 1_655 S
C840 H831 0.950 . S
C840 C839 1.398 . S
C840 C841 1.391 . S
C841 H829 0.950 . S
C841 C837 1.393 . S
C841 C840 1.391 . S
C842 H832 0.950 . S
C842 C843 1.386 . S
C842 C844 1.391 . S
C843 C842 1.386 . S
C843 C847 1.393 . S
C844 H833 0.950 1_455 S
C844 C842 1.391 . S
C844 C845 1.400 . S
C845 C839 1.491 1_455 S
C845 C844 1.400 . S
C845 C846 1.398 . S
C846 H834 0.950 . S
C846 C845 1.398 . S
C846 C847 1.391 . S
C847 H835 0.950 . S
C847 C843 1.393 . S
C847 C846 1.391 . S
C217 C3 1.495 . S
C223 C29 1.491 . S
C237 C18 1.495 . S
C243 C42 1.491 . S
C257 C57 1.508 . S
C263 C81 1.498 . S
C277 C94 1.510 . S
C283 C70 1.500 . S
C297 C109 1.505 . S
C303 C135 1.496 . S
C317 C146 1.510 . S
C323 C122 1.500 . S
C337 C187 1.512 . S
C343 C161 1.501 . S
C357 C198 1.505 . S
C363 C174 1.515 . S
C377 C101 1.134 . S
C383 C10 1.138 . S
C397 C17 1.136 . S
C403 C56 1.120 . S
C417 C69 1.127 . S
C423 C36 1.140 . S
C437 C49 1.121 . S
C443 C88 1.129 . S
C457 C205 1.120 . S
C463 C108 1.134 . S
C477 C121 1.140 . S
C483 C160 1.123 . S
C497 C134 1.120 . S
C503 C173 1.131 . S
C517 C186 1.132 . S
C523 C153 1.139 . S
C537 C5 0.647 . S
C543 C55 0.637 . S
C557 C16 0.667 . S
C563 C68 0.685 . S
C577 C83 0.669 . S
C583 C31 0.649 . S
C597 C44 0.692 . S
C603 C96 0.682 . S
C617 C159 0.637 . S
C623 C107 0.647 . S
C637 C172 0.686 . S
C643 C120 0.668 . S
C657 C133 0.692 . S
C663 C185 0.679 . S
C677 C148 0.691 . S
C683 C200 0.677 . S
C697 C4 1.571 . S
C703 C114 1.571 . S
C717 C127 1.557 . S
C723 C23 1.557 . S
C737 C30 1.575 . S
C743 C140 1.575 . S
C757 C147 1.572 . S
C763 C43 1.572 . S
C777 C62 1.558 . S
C783 C166 1.558 . S
C797 C75 1.575 . S
C803 C179 1.575 . S
C817 C192 1.574 . S
C823 C82 1.574 . S
C837 C95 1.560 . S
C843 C199 1.560 . S
