# Generated by pormake.
# Topology wnd, (6)-cn, num edge types: 1
# Building blocks:
#     Node 0, Type 0, BuildingBlock: KUMBOL_clean_sbu_1, # of connection points: 6
#     Node 1, Type 0, BuildingBlock: KUMBOL_clean_sbu_1, # of connection points: 6
#     Node 2, Type 0, BuildingBlock: KUMBOL_clean_sbu_1, # of connection points: 6
#     Node 3, Type 0, BuildingBlock: KUMBOL_clean_sbu_1, # of connection points: 6
#     Node 4, Type 0, BuildingBlock: KUMBOL_clean_sbu_1, # of connection points: 6
#     Node 5, Type 0, BuildingBlock: KUMBOL_clean_sbu_1, # of connection points: 6
#     Node 6, Type 0, BuildingBlock: KUMBOL_clean_sbu_1, # of connection points: 6
#     Node 7, Type 0, BuildingBlock: KUMBOL_clean_sbu_1, # of connection points: 6
#     Node 8, Type 0, BuildingBlock: KUMBOL_clean_sbu_1, # of connection points: 6
#     Node 9, Type 0, BuildingBlock: KUMBOL_clean_sbu_1, # of connection points: 6
#     Node 10, Type 0, BuildingBlock: KUMBOL_clean_sbu_1, # of connection points: 6
#     Node 11, Type 0, BuildingBlock: KUMBOL_clean_sbu_1, # of connection points: 6
#     Node 12, Type 0, BuildingBlock: KUMBOL_clean_sbu_1, # of connection points: 6
#     Node 13, Type 0, BuildingBlock: KUMBOL_clean_sbu_1, # of connection points: 6
#     Node 14, Type 0, BuildingBlock: KUMBOL_clean_sbu_1, # of connection points: 6
#     Node 15, Type 0, BuildingBlock: KUMBOL_clean_sbu_1, # of connection points: 6
#     Node 16, Type 0, BuildingBlock: KUMBOL_clean_sbu_1, # of connection points: 6
#     Node 17, Type 0, BuildingBlock: KUMBOL_clean_sbu_1, # of connection points: 6
#     Node 18, Type 0, BuildingBlock: KUMBOL_clean_sbu_1, # of connection points: 6
#     Node 19, Type 0, BuildingBlock: KUMBOL_clean_sbu_1, # of connection points: 6
#     Node 20, Type 0, BuildingBlock: KUMBOL_clean_sbu_1, # of connection points: 6
#     Node 21, Type 0, BuildingBlock: KUMBOL_clean_sbu_1, # of connection points: 6
#     Node 22, Type 0, BuildingBlock: KUMBOL_clean_sbu_1, # of connection points: 6
#     Node 23, Type 0, BuildingBlock: KUMBOL_clean_sbu_1, # of connection points: 6
#     Node 24, Type 0, BuildingBlock: KUMBOL_clean_sbu_1, # of connection points: 6
#     Node 25, Type 0, BuildingBlock: KUMBOL_clean_sbu_1, # of connection points: 6
#     Node 26, Type 0, BuildingBlock: KUMBOL_clean_sbu_1, # of connection points: 6
#     Node 27, Type 0, BuildingBlock: KUMBOL_clean_sbu_1, # of connection points: 6
#     Node 28, Type 0, BuildingBlock: KUMBOL_clean_sbu_1, # of connection points: 6
#     Node 29, Type 0, BuildingBlock: KUMBOL_clean_sbu_1, # of connection points: 6
#     Node 30, Type 0, BuildingBlock: KUMBOL_clean_sbu_1, # of connection points: 6
#     Node 31, Type 0, BuildingBlock: KUMBOL_clean_sbu_1, # of connection points: 6
#     Node 32, Type 0, BuildingBlock: KUMBOL_clean_sbu_1, # of connection points: 6
#     Node 33, Type 0, BuildingBlock: KUMBOL_clean_sbu_1, # of connection points: 6
#     Node 34, Type 0, BuildingBlock: KUMBOL_clean_sbu_1, # of connection points: 6
#     Node 35, Type 0, BuildingBlock: KUMBOL_clean_sbu_1, # of connection points: 6
#     Edge 36, Type (0, 0), BuildingBlock: KIFKEQ_clean_linker_1, # of connection points: 2
#     Edge 37, Type (0, 0), BuildingBlock: KIFKEQ_clean_linker_1, # of connection points: 2
#     Edge 38, Type (0, 0), BuildingBlock: KIFKEQ_clean_linker_1, # of connection points: 2
#     Edge 39, Type (0, 0), BuildingBlock: KIFKEQ_clean_linker_1, # of connection points: 2
#     Edge 40, Type (0, 0), BuildingBlock: KIFKEQ_clean_linker_1, # of connection points: 2
#     Edge 41, Type (0, 0), BuildingBlock: KIFKEQ_clean_linker_1, # of connection points: 2
#     Edge 42, Type (0, 0), BuildingBlock: KIFKEQ_clean_linker_1, # of connection points: 2
#     Edge 43, Type (0, 0), BuildingBlock: KIFKEQ_clean_linker_1, # of connection points: 2
#     Edge 44, Type (0, 0), BuildingBlock: KIFKEQ_clean_linker_1, # of connection points: 2
#     Edge 45, Type (0, 0), BuildingBlock: KIFKEQ_clean_linker_1, # of connection points: 2
#     Edge 46, Type (0, 0), BuildingBlock: KIFKEQ_clean_linker_1, # of connection points: 2
#     Edge 47, Type (0, 0), BuildingBlock: KIFKEQ_clean_linker_1, # of connection points: 2
#     Edge 48, Type (0, 0), BuildingBlock: KIFKEQ_clean_linker_1, # of connection points: 2
#     Edge 49, Type (0, 0), BuildingBlock: KIFKEQ_clean_linker_1, # of connection points: 2
#     Edge 50, Type (0, 0), BuildingBlock: KIFKEQ_clean_linker_1, # of connection points: 2
#     Edge 51, Type (0, 0), BuildingBlock: KIFKEQ_clean_linker_1, # of connection points: 2
#     Edge 52, Type (0, 0), BuildingBlock: KIFKEQ_clean_linker_1, # of connection points: 2
#     Edge 53, Type (0, 0), BuildingBlock: KIFKEQ_clean_linker_1, # of connection points: 2
#     Edge 54, Type (0, 0), BuildingBlock: KIFKEQ_clean_linker_1, # of connection points: 2
#     Edge 55, Type (0, 0), BuildingBlock: KIFKEQ_clean_linker_1, # of connection points: 2
#     Edge 56, Type (0, 0), BuildingBlock: KIFKEQ_clean_linker_1, # of connection points: 2
#     Edge 57, Type (0, 0), BuildingBlock: KIFKEQ_clean_linker_1, # of connection points: 2
#     Edge 58, Type (0, 0), BuildingBlock: KIFKEQ_clean_linker_1, # of connection points: 2
#     Edge 59, Type (0, 0), BuildingBlock: KIFKEQ_clean_linker_1, # of connection points: 2
#     Edge 60, Type (0, 0), BuildingBlock: KIFKEQ_clean_linker_1, # of connection points: 2
#     Edge 61, Type (0, 0), BuildingBlock: KIFKEQ_clean_linker_1, # of connection points: 2
#     Edge 62, Type (0, 0), BuildingBlock: KIFKEQ_clean_linker_1, # of connection points: 2
#     Edge 63, Type (0, 0), BuildingBlock: KIFKEQ_clean_linker_1, # of connection points: 2
#     Edge 64, Type (0, 0), BuildingBlock: KIFKEQ_clean_linker_1, # of connection points: 2
#     Edge 65, Type (0, 0), BuildingBlock: KIFKEQ_clean_linker_1, # of connection points: 2
#     Edge 66, Type (0, 0), BuildingBlock: KIFKEQ_clean_linker_1, # of connection points: 2
#     Edge 67, Type (0, 0), BuildingBlock: KIFKEQ_clean_linker_1, # of connection points: 2
#     Edge 68, Type (0, 0), BuildingBlock: KIFKEQ_clean_linker_1, # of connection points: 2
#     Edge 69, Type (0, 0), BuildingBlock: KIFKEQ_clean_linker_1, # of connection points: 2
#     Edge 70, Type (0, 0), BuildingBlock: KIFKEQ_clean_linker_1, # of connection points: 2
#     Edge 71, Type (0, 0), BuildingBlock: KIFKEQ_clean_linker_1, # of connection points: 2
#     Edge 72, Type (0, 0), BuildingBlock: KIFKEQ_clean_linker_1, # of connection points: 2
#     Edge 73, Type (0, 0), BuildingBlock: KIFKEQ_clean_linker_1, # of connection points: 2
#     Edge 74, Type (0, 0), BuildingBlock: KIFKEQ_clean_linker_1, # of connection points: 2
#     Edge 75, Type (0, 0), BuildingBlock: KIFKEQ_clean_linker_1, # of connection points: 2
#     Edge 76, Type (0, 0), BuildingBlock: KIFKEQ_clean_linker_1, # of connection points: 2
#     Edge 77, Type (0, 0), BuildingBlock: KIFKEQ_clean_linker_1, # of connection points: 2
#     Edge 78, Type (0, 0), BuildingBlock: KIFKEQ_clean_linker_1, # of connection points: 2
#     Edge 79, Type (0, 0), BuildingBlock: KIFKEQ_clean_linker_1, # of connection points: 2
#     Edge 80, Type (0, 0), BuildingBlock: KIFKEQ_clean_linker_1, # of connection points: 2
#     Edge 81, Type (0, 0), BuildingBlock: KIFKEQ_clean_linker_1, # of connection points: 2
#     Edge 82, Type (0, 0), BuildingBlock: KIFKEQ_clean_linker_1, # of connection points: 2
#     Edge 83, Type (0, 0), BuildingBlock: KIFKEQ_clean_linker_1, # of connection points: 2
#     Edge 84, Type (0, 0), BuildingBlock: KIFKEQ_clean_linker_1, # of connection points: 2
#     Edge 85, Type (0, 0), BuildingBlock: KIFKEQ_clean_linker_1, # of connection points: 2
#     Edge 86, Type (0, 0), BuildingBlock: KIFKEQ_clean_linker_1, # of connection points: 2
#     Edge 87, Type (0, 0), BuildingBlock: KIFKEQ_clean_linker_1, # of connection points: 2
#     Edge 88, Type (0, 0), BuildingBlock: KIFKEQ_clean_linker_1, # of connection points: 2
#     Edge 89, Type (0, 0), BuildingBlock: KIFKEQ_clean_linker_1, # of connection points: 2
#     Edge 90, Type (0, 0), BuildingBlock: KIFKEQ_clean_linker_1, # of connection points: 2
#     Edge 91, Type (0, 0), BuildingBlock: KIFKEQ_clean_linker_1, # of connection points: 2
#     Edge 92, Type (0, 0), BuildingBlock: KIFKEQ_clean_linker_1, # of connection points: 2
#     Edge 93, Type (0, 0), BuildingBlock: KIFKEQ_clean_linker_1, # of connection points: 2
#     Edge 94, Type (0, 0), BuildingBlock: KIFKEQ_clean_linker_1, # of connection points: 2
#     Edge 95, Type (0, 0), BuildingBlock: KIFKEQ_clean_linker_1, # of connection points: 2
#     Edge 96, Type (0, 0), BuildingBlock: KIFKEQ_clean_linker_1, # of connection points: 2
#     Edge 97, Type (0, 0), BuildingBlock: KIFKEQ_clean_linker_1, # of connection points: 2
#     Edge 98, Type (0, 0), BuildingBlock: KIFKEQ_clean_linker_1, # of connection points: 2
#     Edge 99, Type (0, 0), BuildingBlock: KIFKEQ_clean_linker_1, # of connection points: 2
#     Edge 100, Type (0, 0), BuildingBlock: KIFKEQ_clean_linker_1, # of connection points: 2
#     Edge 101, Type (0, 0), BuildingBlock: KIFKEQ_clean_linker_1, # of connection points: 2
#     Edge 102, Type (0, 0), BuildingBlock: KIFKEQ_clean_linker_1, # of connection points: 2
#     Edge 103, Type (0, 0), BuildingBlock: KIFKEQ_clean_linker_1, # of connection points: 2
#     Edge 104, Type (0, 0), BuildingBlock: KIFKEQ_clean_linker_1, # of connection points: 2
#     Edge 105, Type (0, 0), BuildingBlock: KIFKEQ_clean_linker_1, # of connection points: 2
#     Edge 106, Type (0, 0), BuildingBlock: KIFKEQ_clean_linker_1, # of connection points: 2
#     Edge 107, Type (0, 0), BuildingBlock: KIFKEQ_clean_linker_1, # of connection points: 2
#     Edge 108, Type (0, 0), BuildingBlock: KIFKEQ_clean_linker_1, # of connection points: 2
#     Edge 109, Type (0, 0), BuildingBlock: KIFKEQ_clean_linker_1, # of connection points: 2
#     Edge 110, Type (0, 0), BuildingBlock: KIFKEQ_clean_linker_1, # of connection points: 2
#     Edge 111, Type (0, 0), BuildingBlock: KIFKEQ_clean_linker_1, # of connection points: 2
#     Edge 112, Type (0, 0), BuildingBlock: KIFKEQ_clean_linker_1, # of connection points: 2
#     Edge 113, Type (0, 0), BuildingBlock: KIFKEQ_clean_linker_1, # of connection points: 2
#     Edge 114, Type (0, 0), BuildingBlock: KIFKEQ_clean_linker_1, # of connection points: 2
#     Edge 115, Type (0, 0), BuildingBlock: KIFKEQ_clean_linker_1, # of connection points: 2
#     Edge 116, Type (0, 0), BuildingBlock: KIFKEQ_clean_linker_1, # of connection points: 2
#     Edge 117, Type (0, 0), BuildingBlock: KIFKEQ_clean_linker_1, # of connection points: 2
#     Edge 118, Type (0, 0), BuildingBlock: KIFKEQ_clean_linker_1, # of connection points: 2
#     Edge 119, Type (0, 0), BuildingBlock: KIFKEQ_clean_linker_1, # of connection points: 2
#     Edge 120, Type (0, 0), BuildingBlock: KIFKEQ_clean_linker_1, # of connection points: 2
#     Edge 121, Type (0, 0), BuildingBlock: KIFKEQ_clean_linker_1, # of connection points: 2
#     Edge 122, Type (0, 0), BuildingBlock: KIFKEQ_clean_linker_1, # of connection points: 2
#     Edge 123, Type (0, 0), BuildingBlock: KIFKEQ_clean_linker_1, # of connection points: 2
#     Edge 124, Type (0, 0), BuildingBlock: KIFKEQ_clean_linker_1, # of connection points: 2
#     Edge 125, Type (0, 0), BuildingBlock: KIFKEQ_clean_linker_1, # of connection points: 2
#     Edge 126, Type (0, 0), BuildingBlock: KIFKEQ_clean_linker_1, # of connection points: 2
#     Edge 127, Type (0, 0), BuildingBlock: KIFKEQ_clean_linker_1, # of connection points: 2
#     Edge 128, Type (0, 0), BuildingBlock: KIFKEQ_clean_linker_1, # of connection points: 2
#     Edge 129, Type (0, 0), BuildingBlock: KIFKEQ_clean_linker_1, # of connection points: 2
#     Edge 130, Type (0, 0), BuildingBlock: KIFKEQ_clean_linker_1, # of connection points: 2
#     Edge 131, Type (0, 0), BuildingBlock: KIFKEQ_clean_linker_1, # of connection points: 2
#     Edge 132, Type (0, 0), BuildingBlock: KIFKEQ_clean_linker_1, # of connection points: 2
#     Edge 133, Type (0, 0), BuildingBlock: KIFKEQ_clean_linker_1, # of connection points: 2
#     Edge 134, Type (0, 0), BuildingBlock: KIFKEQ_clean_linker_1, # of connection points: 2
#     Edge 135, Type (0, 0), BuildingBlock: KIFKEQ_clean_linker_1, # of connection points: 2
#     Edge 136, Type (0, 0), BuildingBlock: KIFKEQ_clean_linker_1, # of connection points: 2
#     Edge 137, Type (0, 0), BuildingBlock: KIFKEQ_clean_linker_1, # of connection points: 2
#     Edge 138, Type (0, 0), BuildingBlock: KIFKEQ_clean_linker_1, # of connection points: 2
#     Edge 139, Type (0, 0), BuildingBlock: KIFKEQ_clean_linker_1, # of connection points: 2
#     Edge 140, Type (0, 0), BuildingBlock: KIFKEQ_clean_linker_1, # of connection points: 2
#     Edge 141, Type (0, 0), BuildingBlock: KIFKEQ_clean_linker_1, # of connection points: 2
#     Edge 142, Type (0, 0), BuildingBlock: KIFKEQ_clean_linker_1, # of connection points: 2
#     Edge 143, Type (0, 0), BuildingBlock: KIFKEQ_clean_linker_1, # of connection points: 2
# Relax obj value: 0.054
# Max RMSD: 0.163
# Mean RMSD: 0.163
data_MOF--net-wnd--node1-KUMBOL_clean_sbu_1--edge1-KIFKEQ_clean_linker_1
_symmetry_space_group_name_H-M    P1
_symmetry_Int_Tables_number       1
_symmetry_cell_setting            triclinic
loop_
_symmetry_equiv_pos_as_xyz
'x, y, z'
_cell_length_a     40.054122
_cell_length_b     40.032425
_cell_length_c     164.2069
_cell_angle_alpha  89.992145
_cell_angle_beta   90.013888
_cell_angle_gamma 119.98552
loop_
_atom_site_label
_atom_site_type_symbol
_atom_site_fract_x
_atom_site_fract_y
_atom_site_fract_z
_atom_type_partial_charge
C0 C 0.41519 0.04326 0.03866 0.0
C1 C 0.36329 0.02262 0.0485 0.0
C2 C 0.40291 0.03984 0.0467 0.0
C3 C 0.33624 0.00796 0.04214 0.0
C4 C 0.38821 0.02983 0.03225 0.0
C5 C 0.34867 0.01174 0.03404 0.0
N6 N 0.45358 0.06006 0.03712 0.0
C7 C 0.46708 0.06605 0.02932 0.0
C8 C 0.40181 0.03534 0.02423 0.0
C9 C 0.44145 0.05388 0.02276 0.0
Gd10 Gd 0.53318 0.01421 0.05821 0.0
Gd11 Gd 0.49405 0.0804 0.0485 0.0
N12 N 0.42978 0.05423 0.05273 0.0
C13 C 0.35213 0.02167 0.05661 0.0
C14 C 0.41922 0.05708 0.06046 0.0
C15 C 0.38032 0.03981 0.06259 0.0
H16 H 0.44052 0.07425 0.06487 0.0
H17 H 0.37217 0.04143 0.0688 0.0
H18 H 0.5854 0.01843 0.04166 0.0
H19 H 0.49774 0.08081 0.02816 0.0
H20 H 0.65282 0.04002 0.03826 0.0
H21 H 0.32198 0.00864 0.05825 0.0
H22 H 0.30567 0.9944 0.04341 0.0
H23 H 0.53127 0.02614 0.07843 0.0
H24 H 0.382 0.02579 0.01913 0.0
H25 H 0.45228 0.0588 0.01658 0.0
H26 H 0.72007 0.08556 0.06361 0.0
H27 H 0.32748 1.00096 0.02919 0.0
H28 H 0.64651 0.07559 0.08741 0.0
H29 H 0.57718 0.05124 0.08985 0.0
N30 N 0.57436 0.03806 0.0695 0.0
C31 C 0.61222 0.05057 0.06804 0.0
C32 C 0.56156 0.03776 0.07722 0.0
C33 C 0.62654 0.06509 0.08234 0.0
C34 C 0.58745 0.0515 0.08374 0.0
C35 C 0.63937 0.06457 0.07443 0.0
H36 H 0.69956 0.08828 0.07759 0.0
N37 N 0.5971 0.03689 0.05401 0.0
C38 C 0.62387 0.04975 0.06009 0.0
C39 C 0.67336 0.05892 0.05046 0.0
C40 C 0.66286 0.06185 0.05844 0.0
C41 C 0.60691 0.03208 0.04632 0.0
C42 C 0.64517 0.04351 0.0444 0.0
O43 O 0.45617 0.01442 0.0471 0.0
O44 O 0.47112 0.9967 0.05901 0.0
O45 O 0.5273 0.95928 0.05365 0.0
O46 O 0.52633 0.96999 0.06664 0.0
O47 O 0.50932 0.08775 0.06192 0.0
O48 O 0.49533 0.02796 0.06673 0.0
O49 O 0.57204 0.07851 0.0595 0.0
O50 O 0.55809 0.1026 0.04812 0.0
O51 O 0.49737 0.1337 0.05329 0.0
O52 O 0.50502 0.12632 0.04034 0.0
O53 O 0.52271 0.01068 0.04417 0.0
O54 O 0.53394 0.07116 0.04045 0.0
C55 C 0.44935 0.98776 0.05259 0.0
C56 C 0.49822 0.06228 0.06783 0.0
C57 C 0.52112 0.90868 0.06327 0.0
C58 C 0.53044 0.85301 0.06113 0.0
C59 C 0.50229 0.85942 0.07372 0.0
C60 C 0.50536 0.89367 0.07096 0.0
C61 C 0.51467 0.83928 0.06887 0.0
C62 C 0.53392 0.88816 0.0583 0.0
C63 C 0.52625 0.94703 0.06105 0.0
C64 C 0.68998 0.07595 0.06479 0.0
C65 C 0.67829 0.07742 0.07276 0.0
H66 H 0.70297 0.06775 0.04895 0.0
C67 C 0.58028 0.10642 0.05433 0.0
C68 C 0.53038 0.03771 0.03858 0.0
C69 C 0.50933 0.18641 0.04381 0.0
C70 C 0.52826 0.2528 0.04707 0.0
C71 C 0.5143 0.23052 0.03309 0.0
C72 C 0.50636 0.19407 0.03556 0.0
C73 C 0.52537 0.2598 0.03879 0.0
C74 C 0.51986 0.21588 0.04963 0.0
C75 C 0.50413 0.14846 0.04598 0.0
H76 H 0.49036 0.84848 0.07969 0.0
H77 H 0.4956 0.90867 0.07493 0.0
H78 H 0.5121 0.81276 0.07121 0.0
H79 H 0.54662 0.89944 0.0524 0.0
H80 H 0.51216 0.23617 0.02672 0.0
H81 H 0.49829 0.17194 0.03096 0.0
H82 H 0.53163 0.28811 0.03675 0.0
H83 H 0.52258 0.21056 0.056 0.0
C84 C 0.04986 0.41716 0.03722 0.0
C85 C 0.06926 0.38219 0.04636 0.0
C86 C 0.05272 0.40565 0.04508 0.0
C87 C 0.08339 0.37104 0.03969 0.0
C88 C 0.06356 0.40558 0.03051 0.0
C89 C 0.08053 0.38267 0.0318 0.0
N90 N 0.03357 0.43956 0.03615 0.0
C91 C 0.02861 0.45007 0.02854 0.0
C92 C 0.05951 0.41713 0.0227 0.0
C93 C 0.0417 0.43925 0.0217 0.0
Gd94 Gd 0.07493 0.55932 0.05815 0.0
Gd95 Gd 0.0121 0.45542 0.04796 0.0
N96 N 0.03917 0.41724 0.05144 0.0
C97 C 0.07059 0.37015 0.0543 0.0
C98 C 0.03827 0.40361 0.05909 0.0
C99 C 0.05457 0.38052 0.06067 0.0
H100 H 0.02397 0.40924 0.06394 0.0
H101 H 0.05414 0.37019 0.06679 0.0
H102 H 0.06034 0.59994 0.04125 0.0
H103 H 0.01364 0.466 0.02772 0.0
H104 H 0.02887 0.6368 0.03768 0.0
H105 H 0.083 0.35204 0.05553 0.0
H106 H 0.09626 0.35307 0.04057 0.0
H107 H 0.06889 0.55029 0.07842 0.0
H108 H 0.06958 0.40872 0.01738 0.0
H109 H 0.03779 0.44772 0.01568 0.0
H110 H 0.98887 0.66214 0.06331 0.0
H111 H 0.09128 0.37354 0.02671 0.0
H112 H 0.01543 0.61241 0.08747 0.0
H113 H 0.0451 0.57199 0.08996 0.0
N114 N 0.05212 0.57748 0.06946 0.0
C115 C 0.03636 0.60006 0.06795 0.0
C116 C 0.0554 0.56737 0.07724 0.0
C117 C 0.02569 0.60285 0.08237 0.0
C118 C 0.04228 0.57991 0.0838 0.0
C119 C 0.02244 0.61311 0.07438 0.0
H120 H 0.9945 0.64583 0.07749 0.0
N121 N 0.04598 0.59525 0.05383 0.0
C122 C 0.03297 0.609 0.05992 0.0
C123 C 0.01357 0.64083 0.05005 0.0
C124 C 0.01592 0.63167 0.05817 0.0
C125 C 0.04608 0.60646 0.04598 0.0
C126 C 0.02916 0.62856 0.04394 0.0
O127 O 0.07828 0.48376 0.0472 0.0
O128 O 0.09461 0.51649 0.05915 0.0
O129 O 0.12729 0.61224 0.05364 0.0
O130 O 0.11967 0.59592 0.06643 0.0
O131 O 1.00372 0.45908 0.06144 0.0
O132 O 0.06107 0.50774 0.06679 0.0
O133 O 1.01071 0.53023 0.06003 0.0
O134 O 0.99064 0.49785 0.04802 0.0
O135 O 0.9582 0.40572 0.05255 0.0
O136 O 0.96735 0.42019 0.03957 0.0
O137 O 0.08107 0.55335 0.04412 0.0
O138 O 0.02013 0.50596 0.04066 0.0
C139 C 0.10409 0.50331 0.05286 0.0
C140 C 0.02776 0.47465 0.06757 0.0
C141 C 0.17683 0.65677 0.06358 0.0
C142 C 0.23296 0.72115 0.06119 0.0
C143 C 0.21763 0.69474 0.07487 0.0
C144 C 0.18602 0.66135 0.07193 0.0
C145 C 0.24088 0.72435 0.06957 0.0
C146 C 0.20061 0.68716 0.05815 0.0
C147 C 0.14042 0.62167 0.06104 0.0
C148 C 1.00208 0.64476 0.06455 0.0
C149 C 1.00537 0.63555 0.07263 0.0
H150 H 1.0007 0.65818 0.04846 0.0
C151 C 0.98389 0.51228 0.05456 0.0
C152 C 0.054 0.53416 0.03854 0.0
C153 C 0.90635 0.36508 0.0429 0.0
C154 C 0.84015 0.31691 0.0461 0.0
C155 C 0.86213 0.32712 0.03208 0.0
C156 C 0.89854 0.35548 0.0346 0.0
C157 C 0.83303 0.30803 0.03778 0.0
C158 C 0.877 0.34532 0.0487 0.0
C159 C 0.94429 0.39762 0.04516 0.0
H160 H 0.22402 0.69778 0.08132 0.0
H161 H 0.16835 0.63923 0.0763 0.0
H162 H 0.2653 0.75012 0.07203 0.0
H163 H 0.1939 0.68464 0.05171 0.0
H164 H 0.85639 0.32011 0.02569 0.0
H165 H 0.92052 0.37023 0.03001 0.0
H166 H 0.80477 0.28606 0.03571 0.0
H167 H 0.8824 0.35252 0.05511 0.0
C168 C 0.67665 0.67856 0.03895 0.0
C169 C 0.71164 0.72997 0.04873 0.0
C170 C 0.68838 0.69043 0.04695 0.0
C171 C 0.72157 0.75731 0.04249 0.0
C172 C 0.68717 0.70586 0.03265 0.0
C173 C 0.70937 0.7453 0.03447 0.0
N174 N 0.65445 0.64021 0.03737 0.0
C175 C 0.64401 0.62709 0.02961 0.0
C176 C 0.67523 0.69265 0.02469 0.0
C177 C 0.65387 0.65305 0.02316 0.0
Gd178 Gd 0.53404 0.56402 0.05772 0.0
Gd179 Gd 0.63973 0.59943 0.04859 0.0
N180 N 0.67789 0.66334 0.05292 0.0
C181 C 0.72505 0.7408 0.05671 0.0
C182 C 0.69382 0.67354 0.06048 0.0
C183 C 0.71674 0.71239 0.06257 0.0
H184 H 0.69051 0.6519 0.06477 0.0
H185 H 0.72872 0.72034 0.06864 0.0
H186 H 0.48629 0.50854 0.04144 0.0
H187 H 0.62908 0.59663 0.02838 0.0
H188 H 0.43913 0.44098 0.03854 0.0
H189 H 0.74308 0.77089 0.05833 0.0
H190 H 0.73921 0.78784 0.04376 0.0
H191 H 0.54369 0.5702 0.07807 0.0
H192 H 0.68285 0.71274 0.01967 0.0
H193 H 0.64532 0.64251 0.017 0.0
H194 H 0.40994 0.37971 0.06472 0.0
H195 H 0.71763 0.76675 0.02972 0.0
H196 H 0.47282 0.45765 0.08809 0.0
H197 H 0.51973 0.52699 0.08995 0.0
N198 N 0.51222 0.52551 0.06947 0.0
C199 C 0.48552 0.4877 0.06833 0.0
C200 C 0.52402 0.53986 0.07712 0.0
C201 C 0.48351 0.47642 0.08283 0.0
C202 C 0.5101 0.51552 0.0839 0.0
C203 C 0.47066 0.46208 0.07498 0.0
H204 H 0.43196 0.40295 0.07864 0.0
N205 N 0.4894 0.49972 0.05415 0.0
C206 C 0.47342 0.47452 0.06046 0.0
C207 C 0.43364 0.4233 0.05108 0.0
C208 C 0.44564 0.43549 0.05908 0.0
C209 C 0.47644 0.48826 0.04639 0.0
C210 C 0.44887 0.44991 0.04473 0.0
O211 O 0.60859 0.63362 0.04629 0.0
O212 O 0.57982 0.6259 0.0585 0.0
O213 O 0.48595 0.56822 0.05236 0.0
O214 O 0.50188 0.58373 0.06487 0.0
O215 O 0.63224 0.58629 0.06203 0.0
O216 O 0.58536 0.59969 0.06647 0.0
O217 O 0.55343 0.52024 0.05923 0.0
O218 O 0.60516 0.5352 0.05054 0.0
O219 O 0.6936 0.60256 0.05249 0.0
O220 O 0.67356 0.58916 0.03981 0.0
O221 O 0.54359 0.57011 0.0437 0.0
O222 O 0.5904 0.55393 0.04152 0.0
C223 C 0.5944 0.64608 0.05195 0.0
C224 C 0.6166 0.59679 0.06777 0.0
C225 C 0.43528 0.55535 0.06184 0.0
C226 C 0.36751 0.5384 0.06038 0.0
C227 C 0.38778 0.5157 0.07205 0.0
C228 C 0.42545 0.53402 0.06914 0.0
C229 C 0.35906 0.51787 0.06773 0.0
C230 C 0.4059 0.55747 0.05744 0.0
C231 C 0.47647 0.57725 0.05926 0.0
C232 C 0.43099 0.40985 0.06568 0.0
C233 C 0.44353 0.42308 0.07361 0.0
H234 H 0.41241 0.39358 0.04977 0.0
C235 C 0.57763 0.51208 0.05556 0.0
C236 C 0.56122 0.55695 0.0389 0.0
C237 C 0.73403 0.59286 0.04276 0.0
C238 C 0.78271 0.57519 0.04546 0.0
C239 C 0.78141 0.60303 0.03242 0.0
C240 C 0.74945 0.60534 0.03494 0.0
C241 C 0.79794 0.58792 0.03764 0.0
C242 C 0.75087 0.57794 0.04807 0.0
C243 C 0.69979 0.59461 0.04514 0.0
H244 H 0.38086 0.49995 0.07774 0.0
H245 H 0.44701 0.53203 0.07273 0.0
H246 H 0.33002 0.50365 0.07016 0.0
H247 H 0.41284 0.57396 0.05184 0.0
H248 H 0.79323 0.6127 0.02639 0.0
H249 H 0.73679 0.61696 0.03079 0.0
H250 H 0.82253 0.58586 0.03556 0.0
H251 H 0.73884 0.56776 0.05409 0.0
C252 C 0.04213 0.41412 0.47946 0.0
C253 C 0.01473 0.35626 0.47108 0.0
C254 C 0.03396 0.39677 0.47178 0.0
C255 C 1.00436 0.33349 0.47814 0.0
C256 C 0.03115 0.39118 0.48655 0.0
C257 C 0.01244 0.35086 0.48584 0.0
N258 N 0.06074 0.45327 0.48002 0.0
C259 C 0.06986 0.47128 0.48741 0.0
C260 C 0.03947 0.40945 0.49416 0.0
C261 C 0.05891 0.44967 0.49458 0.0
Gd262 Gd 0.02124 0.53181 0.4575 0.0
Gd263 Gd 0.0798 0.48572 0.4676 0.0
N264 N 0.04358 0.41942 0.46501 0.0
C265 C 1.00614 0.33975 0.4633 0.0
C266 C 0.03494 0.40341 0.45744 0.0
C267 C 0.01612 0.36345 0.45646 0.0
H268 H 0.04163 0.42107 0.45215 0.0
H269 H 1.00927 0.35097 0.45042 0.0
H270 H 0.03757 0.5879 0.47426 0.0
H271 H 0.08685 0.5023 0.48778 0.0
H272 H 0.06806 0.65645 0.47757 0.0
H273 H 0.99148 0.30874 0.46252 0.0
H274 H 0.98978 0.30233 0.47771 0.0
H275 H 0.02261 0.52675 0.43716 0.0
H276 H 0.03138 0.39278 0.49974 0.0
H277 H 0.06606 0.46404 0.50043 0.0
H278 H 0.10548 0.71978 0.45169 0.0
H279 H 1.00403 0.33281 0.49122 0.0
H280 H 0.07663 0.64173 0.42777 0.0
H281 H 0.04571 0.57139 0.42546 0.0
N282 N 0.04245 0.57144 0.446 0.0
C283 C 0.05897 0.60994 0.44742 0.0
C284 C 0.0374 0.55743 0.43824 0.0
C285 C 0.06718 0.62229 0.43293 0.0
C286 C 0.04986 0.58262 0.4316 0.0
C287 C 0.07178 0.63641 0.4409 0.0
H288 H 0.09865 0.69677 0.43758 0.0
N289 N 0.05117 0.59677 0.46163 0.0
C290 C 0.06333 0.62295 0.45543 0.0
C291 C 0.08248 0.67486 0.46512 0.0
C292 C 0.07988 0.66274 0.45704 0.0
C293 C 0.05133 0.60837 0.46945 0.0
C294 C 0.06768 0.64749 0.47134 0.0
O295 O 0.01316 0.45109 0.46772 0.0
O296 O 0.99804 0.46918 0.45577 0.0
O297 O 0.96756 0.52473 0.46296 0.0
O298 O 0.97875 0.53565 0.45007 0.0
O299 O 0.09017 0.50094 0.45432 0.0
O300 O 0.03457 0.49436 0.44857 0.0
O301 O 0.08573 0.56628 0.45635 0.0
O302 O 0.10887 0.55106 0.46778 0.0
O303 O 0.12876 0.48493 0.46201 0.0
O304 O 0.12247 0.48208 0.47505 0.0
O305 O 0.01725 0.52059 0.47152 0.0
O306 O 0.07721 0.53082 0.47503 0.0
C307 C 0.98795 0.44585 0.46197 0.0
C308 C 0.06662 0.49184 0.44812 0.0
C309 C 0.91511 0.51842 0.4543 0.0
C310 C 0.85854 0.527 0.45534 0.0
C311 C 0.85995 0.48272 0.4454 0.0
C312 C 0.89663 0.4916 0.44802 0.0
C313 C 0.84112 0.50032 0.449 0.0
C314 C 0.89578 0.53611 0.458 0.0
C315 C 0.95633 0.53231 0.4561 0.0
C316 C 0.09268 0.68913 0.45056 0.0
C317 C 0.08871 0.67603 0.44252 0.0
H318 H 0.09484 0.70514 0.4666 0.0
C319 C 0.11319 0.57411 0.46163 0.0
C320 C 0.04467 0.52877 0.47702 0.0
C321 C 0.18566 0.5146 0.46994 0.0
C322 C 0.25343 0.53551 0.46771 0.0
C323 C 0.23544 0.57479 0.47581 0.0
C324 C 0.19658 0.54802 0.47458 0.0
C325 C 0.26376 0.56862 0.47239 0.0
C326 C 0.21428 0.50837 0.46651 0.0
C327 C 0.14463 0.48555 0.46897 0.0
H328 H 0.84627 0.46254 0.44045 0.0
H329 H 0.91104 0.47834 0.44496 0.0
H330 H 0.81292 0.49341 0.44676 0.0
H331 H 0.91009 0.55766 0.4627 0.0
H332 H 0.24364 0.60022 0.47947 0.0
H333 H 0.17504 0.55317 0.47736 0.0
H334 H 0.29384 0.58943 0.47349 0.0
H335 H 0.20618 0.4825 0.46299 0.0
C336 C 0.67908 0.67309 0.47653 0.0
C337 C 0.73066 0.70786 0.46678 0.0
C338 C 0.69112 0.68466 0.46855 0.0
C339 C 0.75786 0.71831 0.47307 0.0
C340 C 0.70622 0.68406 0.48287 0.0
C341 C 0.74568 0.70649 0.48109 0.0
N342 N 0.64076 0.65058 0.47805 0.0
C343 C 0.62747 0.63991 0.4858 0.0
C344 C 0.69285 0.67219 0.49083 0.0
C345 C 0.65325 0.6503 0.4923 0.0
Gd346 Gd 0.56418 0.52946 0.45719 0.0
Gd347 Gd 0.60011 0.63359 0.46673 0.0
N348 N 0.66413 0.67353 0.46256 0.0
C349 C 0.74162 0.72046 0.45876 0.0
C350 C 0.67446 0.68857 0.45493 0.0
C351 C 0.71332 0.71138 0.45284 0.0
H352 H 0.65299 0.68447 0.45053 0.0
H353 H 0.72135 0.72258 0.44672 0.0
H354 H 0.50788 0.48769 0.4739 0.0
H355 H 0.59692 0.62419 0.48698 0.0
H356 H 0.4392 0.45063 0.47723 0.0
H357 H 0.77172 0.73834 0.45715 0.0
H358 H 0.78839 0.73596 0.47181 0.0
H359 H 0.5693 0.53308 0.43695 0.0
H360 H 0.7128 0.68015 0.49588 0.0
H361 H 0.64257 0.64161 0.49844 0.0
H362 H 0.37595 0.42315 0.45129 0.0
H363 H 0.76701 0.71508 0.48588 0.0
H364 H 0.45465 0.47028 0.42737 0.0
H365 H 0.52501 0.50997 0.42516 0.0
N366 N 0.5244 0.50673 0.4457 0.0
C367 C 0.48594 0.48423 0.44704 0.0
C368 C 0.53862 0.51583 0.43797 0.0
C369 C 0.47395 0.48015 0.43256 0.0
C370 C 0.51365 0.50265 0.43129 0.0
C371 C 0.4596 0.4707 0.44051 0.0
H372 H 0.39922 0.43824 0.43716 0.0
N373 N 0.49909 0.49036 0.46118 0.0
C374 C 0.47286 0.47586 0.45502 0.0
C375 C 0.42085 0.44518 0.46474 0.0
C376 C 0.43302 0.45347 0.45664 0.0
C377 C 0.4874 0.48006 0.46905 0.0
C378 C 0.44822 0.45804 0.47096 0.0
O379 O 0.63824 0.60576 0.46819 0.0
O380 O 0.62586 0.57501 0.45609 0.0
O381 O 0.56543 0.47942 0.46232 0.0
O382 O 0.58342 0.49707 0.44996 0.0
O383 O 0.58685 0.62729 0.45327 0.0
O384 O 0.59945 0.58051 0.44834 0.0
O385 O 0.5257 0.55506 0.45502 0.0
O386 O 0.5361 0.59061 0.46664 0.0
O387 O 0.59469 0.68313 0.46246 0.0
O388 O 0.58971 0.66733 0.47536 0.0
O389 O 0.57472 0.53777 0.47121 0.0
O390 O 0.55807 0.5835 0.47413 0.0
C391 C 0.64801 0.58963 0.4624 0.0
C392 C 0.59727 0.6124 0.44734 0.0
C393 C 0.55566 0.43012 0.45273 0.0
C394 C 0.54116 0.36307 0.45414 0.0
C395 C 0.52052 0.3831 0.4421 0.0
C396 C 0.53649 0.4204 0.44518 0.0
C397 C 0.52291 0.35469 0.44652 0.0
C398 C 0.5578 0.40104 0.45725 0.0
C399 C 0.57605 0.47103 0.45549 0.0
C400 C 0.40666 0.44014 0.45015 0.0
C401 C 0.41991 0.44869 0.44211 0.0
H402 H 0.39051 0.42818 0.46625 0.0
C403 C 0.51413 0.57094 0.46047 0.0
C404 C 0.56411 0.55585 0.4765 0.0
C405 C 0.58053 0.72084 0.47237 0.0
C406 C 0.56972 0.77417 0.46933 0.0
C407 C 0.56212 0.75012 0.48315 0.0
C408 C 0.5718 0.72294 0.4806 0.0
C409 C 0.56104 0.77559 0.47755 0.0
C410 C 0.57945 0.7467 0.46669 0.0
C411 C 0.58821 0.68994 0.4699 0.0
H412 H 0.50647 0.37623 0.43622 0.0
H413 H 0.53445 0.44182 0.44153 0.0
H414 H 0.51053 0.32595 0.44397 0.0
H415 H 0.57269 0.40797 0.46305 0.0
H416 H 0.5553 0.75136 0.48948 0.0
H417 H 0.57198 0.70323 0.48509 0.0
H418 H 0.55346 0.79663 0.47965 0.0
H419 H 0.58581 0.74537 0.46032 0.0
C420 C 0.41854 0.04388 0.47852 0.0
C421 C 0.38456 0.06573 0.46969 0.0
C422 C 0.40762 0.04858 0.47073 0.0
C423 C 0.37265 0.07802 0.47655 0.0
C424 C 0.40651 0.05611 0.48541 0.0
C425 C 0.38354 0.07318 0.48437 0.0
N426 N 0.44129 0.02781 0.47936 0.0
C427 C 0.45188 0.02185 0.48687 0.0
C428 C 0.41794 0.05081 0.49314 0.0
C429 C 0.44058 0.03344 0.49387 0.0
Gd430 Gd 0.55993 0.07444 0.45703 0.0
Gd431 Gd 0.45723 0.00823 0.46729 0.0
N432 N 0.42022 0.03711 0.46418 0.0
C433 C 0.37404 0.06994 0.4618 0.0
C434 C 0.40859 0.03962 0.45652 0.0
C435 C 0.38587 0.05653 0.45519 0.0
H436 H 0.4159 0.02801 0.45142 0.0
H437 H 0.37711 0.05876 0.44907 0.0
H438 H 0.60459 0.06337 0.4737 0.0
H439 H 0.46812 1.00712 0.48749 0.0
H440 H 0.64265 0.03296 0.47711 0.0
H441 H 0.35634 0.08297 0.46075 0.0
H442 H 0.35491 0.09124 0.47586 0.0
H443 H 0.55598 0.07505 0.43679 0.0
H444 H 0.40919 0.05974 0.49857 0.0
H445 H 0.44909 0.02869 0.49982 0.0
H446 H 0.66754 0.99366 0.45132 0.0
H447 H 0.37403 0.08276 0.48959 0.0
H448 H 0.61906 0.02324 0.42734 0.0
H449 H 0.57913 0.05363 0.42506 0.0
N450 N 0.58248 0.05685 0.44559 0.0
C451 C 0.60491 0.04084 0.44698 0.0
C452 C 0.57327 0.06167 0.43785 0.0
C453 C 0.60907 0.03266 0.43251 0.0
C454 C 0.58646 0.04974 0.43119 0.0
C455 C 0.61855 0.02799 0.44047 0.0
H456 H 0.65154 1.00052 0.43718 0.0
N457 N 0.59963 0.04914 0.46109 0.0
C458 C 0.61365 0.03674 0.45496 0.0
C459 C 0.64629 0.01774 0.4647 0.0
C460 C 0.63675 0.02007 0.45662 0.0
C461 C 0.61139 0.04953 0.46892 0.0
C462 C 0.63411 0.03317 0.47086 0.0
O463 O 0.48469 0.07416 0.46854 0.0
O464 O 0.51261 0.08771 0.45627 0.0
O465 O 0.60898 0.12704 0.46196 0.0
O466 O 0.59143 0.12539 0.44952 0.0
O467 O 0.46051 0.99939 0.45379 0.0
O468 O 0.50807 0.05659 0.44814 0.0
O469 O 0.53375 0.01057 0.4549 0.0
O470 O 0.49973 0.98639 0.46675 0.0
O471 O 0.40527 0.95645 0.46261 0.0
O472 O 0.42289 0.96211 0.47543 0.0
O473 O 0.5534 0.07748 0.47117 0.0
O474 O 0.50782 0.01543 0.47435 0.0
C475 C 0.50249 0.09918 0.46269 0.0
C476 C 0.47527 0.02278 0.44752 0.0
C477 C 0.65829 0.16528 0.45232 0.0
C478 C 0.7255 0.21735 0.45377 0.0
C479 C 0.70595 0.17495 0.44201 0.0
C480 C 0.66837 0.15454 0.44497 0.0
C481 C 0.73427 0.20611 0.44636 0.0
C482 C 0.68726 0.19697 0.45676 0.0
C483 C 0.61731 0.14506 0.45501 0.0
C484 C 0.64999 1.00676 0.45016 0.0
C485 C 0.64095 0.01075 0.44211 0.0
H486 H 0.66393 1.00512 0.46623 0.0
C487 C 0.51716 0.98299 0.46028 0.0
C488 C 0.53569 0.04921 0.47659 0.0
C489 C 0.36392 0.90515 0.47226 0.0
C490 C 0.31495 0.83888 0.46958 0.0
C491 C 0.31835 0.86704 0.48284 0.0
C492 C 0.34962 0.90159 0.48022 0.0
C493 C 0.3011 0.83577 0.47755 0.0
C494 C 0.34636 0.87368 0.46689 0.0
C495 C 0.3982 0.94124 0.46988 0.0
H496 H 0.71312 0.16672 0.43628 0.0
H497 H 0.64709 0.13069 0.44139 0.0
H498 H 0.76324 0.22172 0.4439 0.0
H499 H 0.68007 0.20588 0.46241 0.0
H500 H 0.30763 0.86441 0.48899 0.0
H501 H 0.3628 0.92553 0.48446 0.0
H502 H 0.27698 0.80891 0.47969 0.0
H503 H 0.35742 0.87595 0.46076 0.0
C504 C 0.48106 0.03809 0.94748 0.0
C505 C 0.43071 0.02577 0.95724 0.0
C506 C 0.46969 0.0383 0.95548 0.0
C507 C 0.40335 0.01192 0.95093 0.0
C508 C 0.45368 0.02417 0.94113 0.0
C509 C 0.41478 0.011 0.94291 0.0
N510 N 0.51886 0.05057 0.94594 0.0
C511 C 0.53138 0.05079 0.9382 0.0
C512 C 0.46623 0.02379 0.93319 0.0
C513 C 0.50525 0.03724 0.93172 0.0
Gd514 Gd 0.59488 1.00381 0.96677 0.0
Gd515 Gd 0.56053 0.07404 0.95714 0.0
N516 N 0.49671 0.05085 0.96152 0.0
C517 C 0.42041 0.02797 0.96528 0.0
C518 C 0.48708 0.05506 0.96927 0.0
C519 C 0.44881 0.04315 0.97129 0.0
H520 H 0.50872 0.06868 0.9739 0.0
H521 H 0.44134 0.04614 0.97748 0.0
H522 H 0.65026 1.00739 0.95105 0.0
H523 H 0.5616 0.06202 0.93697 0.0
H524 H 0.71925 0.03509 0.94795 0.0
H525 H 0.3908 0.01877 0.96687 0.0
H526 H 0.37326 1.00198 0.95218 0.0
H527 H 0.58539 0.99814 0.987 0.0
H528 H 0.44607 0.01333 0.92815 0.0
H529 H 0.51528 0.03742 0.92559 0.0
H530 H 0.78023 0.07549 0.9741 0.0
H531 H 0.39332 1.0002 0.93811 0.0
H532 H 0.69815 0.04617 0.99745 0.0
H533 H 0.6275 0.01625 0.99913 0.0
N534 N 0.63184 0.018 0.97862 0.0
C535 C 0.67036 0.03309 0.97755 0.0
C536 C 0.61622 0.01134 0.98622 0.0
C537 C 0.67981 0.03827 0.99211 0.0
C538 C 0.63995 0.0214 0.99309 0.0
C539 C 0.6955 0.0441 0.98427 0.0
H540 H 0.75511 0.06907 0.98804 0.0
N541 N 0.65927 0.02497 0.96337 0.0
C542 C 0.68453 0.03677 0.96969 0.0
C543 C 0.73695 0.05221 0.96037 0.0
C544 C 0.7242 0.05141 0.96835 0.0
C545 C 0.67099 0.02218 0.95575 0.0
C546 C 0.71005 0.03666 0.95407 0.0
O547 O 0.52241 0.01007 0.95497 0.0
O548 O 0.53283 0.9888 0.96693 0.0
O549 O 0.58538 0.95054 0.96113 0.0
O550 O 0.57573 0.95263 0.97407 0.0
O551 O 0.57191 0.07791 0.97117 0.0
O552 O 0.55677 0.01618 0.97468 0.0
O553 O 0.63713 0.06931 0.96815 0.0
O554 O 0.62264 0.09124 0.95666 0.0
O555 O 0.56432 0.12804 0.96159 0.0
O556 O 0.56999 0.11921 0.94868 0.0
O557 O 0.58453 1.00074 0.95314 0.0
O558 O 0.59945 0.06145 0.94869 0.0
C559 C 0.51291 0.98248 0.96026 0.0
C560 C 0.56397 0.05075 0.97674 0.0
C561 C 0.59171 0.90651 0.96967 0.0
C562 C 0.58821 0.84481 0.96761 0.0
C563 C 0.63339 0.89053 0.9774 0.0
C564 C 0.62091 0.91645 0.97548 0.0
C565 C 0.61722 0.85489 0.97348 0.0
C566 C 0.5753 0.8706 0.96575 0.0
C567 C 0.57602 0.93185 0.96802 0.0
C568 C 0.74958 0.06378 0.97501 0.0
C569 C 0.73526 0.06007 0.98295 0.0
H570 H 0.7672 0.06321 0.95908 0.0
C571 C 0.64424 0.09762 0.96305 0.0
C572 C 0.59755 0.02762 0.9475 0.0
C573 C 0.57341 0.17977 0.95206 0.0
C574 C 0.56307 0.23465 0.95423 0.0
C575 C 0.59514 0.23101 0.942 0.0
C576 C 0.59135 0.19623 0.94461 0.0
C577 C 0.58117 0.25008 0.94675 0.0
C578 C 0.55906 0.19917 0.95692 0.0
C579 C 0.56801 0.14132 0.95421 0.0
H580 H 0.65544 0.89794 0.98198 0.0
H581 H 0.63357 0.94387 0.97863 0.0
H582 H 0.6269 0.83488 0.9751 0.0
H583 H 0.55241 0.86264 0.96133 0.0
H584 H 0.6088 0.24316 0.93622 0.0
H585 H 0.60234 0.18203 0.94073 0.0
H586 H 0.58422 0.27699 0.94455 0.0
H587 H 0.54458 0.18668 0.96263 0.0
C588 C 0.05292 0.48332 0.94732 0.0
C589 C 0.07235 0.45054 0.95703 0.0
C590 C 0.0567 0.47453 0.95535 0.0
C591 C 0.08429 0.43589 0.95059 0.0
C592 C 0.06521 0.46892 0.94085 0.0
C593 C 0.0807 0.44502 0.94253 0.0
N594 N 0.03881 0.50736 0.94587 0.0
C595 C 0.03588 0.51792 0.93811 0.0
C596 C 0.06218 0.47952 0.93287 0.0
C597 C 0.04751 0.50417 0.93151 0.0
Gd598 Gd 0.08293 0.63151 0.96701 0.0
Gd599 Gd 0.0176 0.5267 0.95725 0.0
N600 N 0.04554 0.48975 0.9615 0.0
C601 C 0.0753 0.4417 0.96514 0.0
C602 C 0.04609 0.479 0.96937 0.0
C603 C 0.06172 0.45565 0.97132 0.0
H604 H 0.03325 0.48675 0.97418 0.0
H605 H 0.06249 0.44774 0.97759 0.0
H606 H 0.07693 0.68182 0.95122 0.0
H607 H 0.02375 0.53625 0.93698 0.0
H608 H 0.04802 0.72203 0.9482 0.0
H609 H 0.08714 0.42337 0.96668 0.0
H610 H 0.09635 0.41744 0.95178 0.0
H611 H 0.08014 0.62058 0.98726 0.0
H612 H 0.07128 0.46901 0.92774 0.0
H613 H 0.04496 0.51244 0.92536 0.0
H614 H 1.00072 0.73582 0.9741 0.0
H615 H 0.09025 0.43366 0.93763 0.0
H616 H 0.02323 0.67732 0.99737 0.0
H617 H 0.05455 0.63792 0.9992 0.0
N618 N 0.06096 0.64732 0.97876 0.0
C619 C 0.04528 0.67023 0.97763 0.0
C620 C 0.06513 0.63638 0.98638 0.0
C621 C 0.03383 0.66919 0.9921 0.0
C622 C 0.05133 0.64682 0.99316 0.0
C623 C 0.03092 0.68148 0.98427 0.0
H624 H 1.00317 0.71366 0.98795 0.0
N625 N 0.05792 0.67131 0.96348 0.0
C626 C 0.04369 0.68256 0.96977 0.0
C627 C 0.02856 0.72005 0.96052 0.0
C628 C 0.02802 0.70672 0.96843 0.0
C629 C 0.0612 0.68659 0.95591 0.0
C630 C 0.04584 0.71046 0.95426 0.0
O631 O 0.08152 0.55466 0.95492 0.0
O632 O 0.10429 0.58894 0.96667 0.0
O633 O 0.13721 0.68095 0.96253 0.0
O634 O 0.12771 0.66602 0.97548 0.0
O635 O 0.01349 0.53378 0.97129 0.0
O636 O 0.07525 0.58082 0.97418 0.0
O637 O 0.01674 0.60379 0.96813 0.0
O638 O 0.99824 0.5698 0.95634 0.0
O639 O 0.9649 0.47498 0.96192 0.0
O640 O 0.97217 0.48985 0.94905 0.0
O641 O 0.08938 0.62708 0.95347 0.0
O642 O 0.03062 0.57825 0.94866 0.0
C643 C 0.10964 0.57367 0.96009 0.0
C644 C 0.04162 0.55337 0.97663 0.0
C645 C 0.18903 0.72096 0.97222 0.0
C646 C 0.25508 0.76953 0.96902 0.0
C647 C 0.2333 0.75873 0.98304 0.0
C648 C 0.19691 0.7303 0.98053 0.0
C649 C 0.26229 0.77815 0.97734 0.0
C650 C 0.21827 0.74104 0.96641 0.0
C651 C 0.15095 0.68873 0.96993 0.0
C652 C 0.01304 0.7174 0.97503 0.0
C653 C 0.01449 0.70483 0.98292 0.0
H654 H 0.01689 0.73876 0.95924 0.0
C655 C 0.98991 0.58372 0.96268 0.0
C656 C 0.06389 0.61112 0.9476 0.0
C657 C 0.91354 0.43075 0.95233 0.0
C658 C 0.85885 0.36542 0.95469 0.0
C659 C 0.86695 0.39648 0.94156 0.0
C660 C 0.89997 0.429 0.94435 0.0
C661 C 0.8466 0.36499 0.94667 0.0
C662 C 0.89262 0.39854 0.95757 0.0
C663 C 0.95122 0.46502 0.95457 0.0
H664 H 0.23908 0.76561 0.98945 0.0
H665 H 0.17499 0.71537 0.98512 0.0
H666 H 0.2905 0.80025 0.97941 0.0
H667 H 0.21276 0.73416 0.95999 0.0
H668 H 0.85718 0.3956 0.93538 0.0
H669 H 0.91525 0.45275 0.94014 0.0
H670 H 0.821 0.33996 0.94434 0.0
H671 H 0.90269 0.39895 0.96372 0.0
C672 C 0.60477 0.60421 0.94741 0.0
C673 C 0.6349 0.65727 0.95699 0.0
C674 C 0.61287 0.61735 0.95538 0.0
C675 C 0.64772 0.68364 0.9505 0.0
C676 C 0.61777 0.63056 0.94087 0.0
C677 C 0.63915 0.67032 0.94246 0.0
N678 N 0.58294 0.56564 0.94606 0.0
C679 C 0.5741 0.55137 0.93834 0.0
C680 C 0.60837 0.61615 0.93292 0.0
C681 C 0.58661 0.57637 0.93166 0.0
Gd682 Gd 0.4552 0.48785 0.96702 0.0
Gd683 Gd 0.5603 0.52581 0.95757 0.0
N684 N 0.5988 0.59111 0.96155 0.0
C685 C 0.64355 0.6695 0.96508 0.0
C686 C 0.60954 0.60291 0.9694 0.0
C687 C 0.63137 0.64214 0.9713 0.0
H688 H 0.6026 0.58251 0.97424 0.0
H689 H 0.6392 0.65122 0.97755 0.0
H690 H 0.40591 0.4352 0.95058 0.0
H691 H 0.55738 0.52063 0.93731 0.0
H692 H 0.37016 0.36711 0.94651 0.0
H693 H 0.66043 0.69987 0.96658 0.0
H694 H 0.66438 0.71439 0.95163 0.0
H695 H 0.46438 0.48965 0.98722 0.0
H696 H 0.61773 0.63546 0.92774 0.0
H697 H 0.57933 0.56496 0.92553 0.0
H698 H 0.35743 0.29887 0.97139 0.0
H699 H 0.64917 0.69102 0.93752 0.0
H700 H 0.40999 0.37315 0.99574 0.0
H701 H 0.44715 0.44328 0.99854 0.0
N702 N 0.43896 0.44635 0.97816 0.0
C703 C 0.41733 0.40806 0.9765 0.0
C704 C 0.44917 0.45918 0.98595 0.0
C705 C 0.4178 0.39343 0.99076 0.0
C706 C 0.43892 0.43297 0.99237 0.0
C707 C 0.40663 0.38051 0.98275 0.0
H708 H 0.37687 0.31948 0.98555 0.0
N709 N 0.41736 0.42387 0.96255 0.0
C710 C 0.40661 0.39649 0.96846 0.0
C711 C 0.37254 0.34637 0.95849 0.0
C712 C 0.38447 0.35697 0.96655 0.0
C713 C 0.40265 0.41374 0.95489 0.0
C714 C 0.38102 0.37493 0.95267 0.0
O715 O 0.53379 0.56331 0.95514 0.0
O716 O 0.49707 0.55177 0.96661 0.0
O717 O 0.40457 0.49097 0.96288 0.0
O718 O 0.42084 0.49718 0.97577 0.0
O719 O 0.55212 0.51694 0.97165 0.0
O720 O 0.50478 0.53175 0.97428 0.0
O721 O 0.48554 0.45286 0.96901 0.0
O722 O 0.51526 0.46356 0.95681 0.0
O723 O 0.61186 0.52675 0.96254 0.0
O724 O 0.59163 0.5049 0.9505 0.0
O725 O 0.4611 0.50049 0.95355 0.0
O726 O 0.50966 0.49045 0.94862 0.0
C727 C 0.51496 0.57306 0.96025 0.0
C728 C 0.53326 0.52729 0.9768 0.0
C729 C 0.36431 0.50123 0.97268 0.0
C730 C 0.31493 0.5176 0.96957 0.0
C731 C 0.32379 0.50309 0.98347 0.0
C732 C 0.35351 0.49709 0.98093 0.0
C733 C 0.30461 0.51337 0.97783 0.0
C734 C 0.34476 0.5114 0.96695 0.0
C735 C 0.39715 0.49666 0.97032 0.0
C736 C 0.37427 0.32938 0.97275 0.0
C737 C 0.38525 0.34112 0.98083 0.0
H738 H 0.35551 0.3163 0.95676 0.0
C739 C 0.50149 0.44261 0.96331 0.0
C740 C 0.47727 0.4917 0.94759 0.0
C741 C 0.65897 0.53112 0.95278 0.0
C742 C 0.72616 0.54574 0.95429 0.0
C743 C 0.70286 0.55388 0.94121 0.0
C744 C 0.66666 0.54205 0.94454 0.0
C745 C 0.73231 0.55566 0.94602 0.0
C746 C 0.68918 0.53312 0.95769 0.0
C747 C 0.6186 0.51355 0.95587 0.0
H748 H 0.31577 0.50001 0.98983 0.0
H749 H 0.3682 0.48938 0.98545 0.0
H750 H 0.28172 0.51826 0.97991 0.0
H751 H 0.35306 0.51518 0.96059 0.0
H752 H 0.70803 0.56138 0.93482 0.0
H753 H 0.64439 0.54056 0.94056 0.0
H754 H 0.7601 0.56463 0.94326 0.0
H755 H 0.68383 0.52436 0.96402 0.0
C756 C 0.03278 0.47741 0.56744 0.0
C757 C 0.01734 0.42687 0.55751 0.0
C758 C 0.03245 0.46623 0.5594 0.0
C759 C 1.00178 0.39909 0.56372 0.0
C760 C 0.01752 0.44962 0.5737 0.0
C761 C 1.00191 0.41044 0.57179 0.0
N762 N 0.04776 0.5155 0.56912 0.0
C763 C 0.04908 0.52787 0.57693 0.0
C764 C 0.01851 0.46207 0.58171 0.0
C765 C 0.03444 0.50137 0.58333 0.0
Gd766 Gd 1.01014 0.59887 0.54841 0.0
Gd767 Gd 0.0737 0.55796 0.55809 0.0
N768 N 0.04755 0.4938 0.55349 0.0
C769 C 0.01907 0.41658 0.54945 0.0
C770 C 0.05195 0.48399 0.54576 0.0
C771 C 0.03696 0.44533 0.54358 0.0
H772 H 0.06824 0.50561 0.54126 0.0
H773 H 0.04 0.4378 0.5374 0.0
H774 H 0.0209 0.65792 0.56392 0.0
H775 H 0.06219 0.55825 0.57826 0.0
H776 H 0.05327 0.72766 0.5666 0.0
H777 H 1.0078 0.38668 0.54775 0.0
H778 H 0.98998 0.36876 0.56236 0.0
H779 H 1.01016 0.58794 0.52817 0.0
H780 H 1.00726 0.44162 0.5867 0.0
H781 H 0.03569 0.5113 0.58951 0.0
H782 H 0.10224 0.78475 0.54044 0.0
H783 H 0.99007 0.38868 0.57653 0.0
H784 H 0.07433 0.70023 0.51759 0.0
H785 H 0.0383 0.6292 0.51606 0.0
N786 N 0.03347 0.63481 0.53648 0.0
C787 C 0.0518 0.67374 0.53745 0.0
C788 C 0.02758 0.61872 0.52892 0.0
C789 C 0.06288 0.68216 0.52294 0.0
C790 C 0.0427 0.64209 0.52205 0.0
C791 C 0.06716 0.69848 0.53069 0.0
H792 H 0.09782 0.75806 0.52673 0.0
N793 N 0.03989 0.66429 0.55169 0.0
C794 C 0.05485 0.68888 0.54525 0.0
C795 C 0.07303 0.7431 0.55423 0.0
C796 C 0.07258 0.72904 0.54639 0.0
C797 C 0.0375 0.67761 0.55917 0.0
C798 C 0.05479 0.7172 0.56061 0.0
O799 O 1.00937 0.52494 0.56039 0.0
O800 O 0.9837 0.53387 0.54863 0.0
O801 O 0.95828 0.59574 0.55351 0.0
O802 O 0.96811 0.60084 0.54051 0.0
O803 O 0.07552 0.56768 0.54406 0.0
O804 O 0.01377 0.55384 0.54109 0.0
O805 O 0.07628 0.63381 0.54724 0.0
O806 O 0.09892 0.62179 0.55902 0.0
O807 O 0.12741 0.56027 0.55365 0.0
O808 O 0.11633 0.56193 0.56658 0.0
O809 O 1.00498 0.58916 0.56198 0.0
O810 O 0.06349 0.59804 0.56664 0.0
C811 C 0.9818 0.51287 0.55497 0.0
C812 C 0.0465 0.55681 0.53883 0.0
C813 C 0.90347 0.5687 0.54485 0.0
C814 C 0.83602 0.54938 0.54687 0.0
C815 C 0.85365 0.51543 0.53708 0.0
C816 C 0.89244 0.53924 0.53903 0.0
C817 C 0.82554 0.52044 0.54098 0.0
C818 C 0.87506 0.57366 0.54878 0.0
C819 C 0.94441 0.59633 0.54636 0.0
C820 C 0.08838 0.75378 0.53968 0.0
C821 C 0.08579 0.73857 0.53186 0.0
H822 H 0.08616 0.77378 0.55535 0.0
C823 C 0.10303 0.64415 0.55288 0.0
C824 C 0.03092 0.59873 0.56774 0.0
C825 C 0.17641 0.56411 0.56355 0.0
C826 C 0.23168 0.55418 0.56152 0.0
C827 C 0.2225 0.57752 0.57449 0.0
C828 C 0.18939 0.57636 0.57154 0.0
C829 C 0.24343 0.5665 0.56954 0.0
C830 C 0.19794 0.55301 0.55846 0.0
C831 C 0.13915 0.5611 0.56109 0.0
H832 H 0.84536 0.49329 0.53249 0.0
H833 H 0.91382 0.53506 0.53587 0.0
H834 H 0.79556 0.50204 0.53932 0.0
H835 H 0.88327 0.59658 0.5532 0.0
H836 H 0.23184 0.58675 0.58068 0.0
H837 H 0.1737 0.58486 0.57562 0.0
H838 H 0.26894 0.56733 0.57201 0.0
H839 H 0.18823 0.54287 0.55232 0.0
C840 C 0.61228 0.59565 0.56724 0.0
C841 C 0.66523 0.62709 0.55766 0.0
C842 C 0.62529 0.60564 0.55926 0.0
C843 C 0.69165 0.63794 0.56412 0.0
C844 C 0.63875 0.6072 0.57375 0.0
C845 C 0.67845 0.62814 0.57214 0.0
N846 N 0.57373 0.57463 0.56864 0.0
C847 C 0.55963 0.56663 0.57639 0.0
C848 C 0.62451 0.59762 0.58171 0.0
C849 C 0.58477 0.57759 0.58303 0.0
Gd850 Gd 0.48745 0.44838 0.54953 0.0
Gd851 Gd 0.53388 0.55854 0.5572 0.0
N852 N 0.59902 0.59463 0.55311 0.0
C853 C 0.67753 0.63737 0.54962 0.0
C854 C 0.611 0.60648 0.54531 0.0
C855 C 0.65029 0.62738 0.54344 0.0
H856 H 0.59076 0.60096 0.54048 0.0
H857 H 0.65954 0.63622 0.53723 0.0
H858 H 0.43278 0.39934 0.56514 0.0
H859 H 0.52902 0.55235 0.57752 0.0
H860 H 0.36343 0.35843 0.56829 0.0
H861 H 0.70794 0.65372 0.54814 0.0
H862 H 0.7224 0.65429 0.56299 0.0
H863 H 0.49378 0.45548 0.52894 0.0
H864 H 0.64392 0.60611 0.58687 0.0
H865 H 0.57347 0.57087 0.58917 0.0
H866 H 0.30063 0.35185 0.54291 0.0
H867 H 0.6992 0.63711 0.57706 0.0
H868 H 0.38018 0.41148 0.51958 0.0
H869 H 0.45061 0.44388 0.51735 0.0
N870 N 0.44958 0.43696 0.53784 0.0
C871 C 0.41083 0.41628 0.53914 0.0
C872 C 0.46375 0.4448 0.5301 0.0
C873 C 0.39933 0.41833 0.52475 0.0
C874 C 0.43905 0.43682 0.52347 0.0
C875 C 0.38468 0.40663 0.53262 0.0
H876 H 0.32442 0.37675 0.52916 0.0
N877 N 0.42295 0.41133 0.55309 0.0
C878 C 0.39721 0.40213 0.54692 0.0
C879 C 0.34521 0.36304 0.55618 0.0
C880 C 0.35745 0.37813 0.54834 0.0
C881 C 0.41159 0.39475 0.56058 0.0
C882 C 0.37247 0.371 0.5623 0.0
O883 O 0.56335 0.52438 0.55988 0.0
O884 O 0.55227 0.48717 0.5485 0.0
O885 O 0.50047 0.40663 0.55512 0.0
O886 O 0.47457 0.39626 0.54318 0.0
O887 O 0.52787 0.55013 0.54317 0.0
O888 O 0.52788 0.49294 0.54054 0.0
O889 O 0.44834 0.47133 0.55391 0.0
O890 O 0.48268 0.53189 0.54897 0.0
O891 O 0.55241 0.62019 0.55559 0.0
O892 O 0.50617 0.58403 0.56409 0.0
O893 O 0.5035 0.45965 0.56265 0.0
O894 O 0.49373 0.50986 0.56639 0.0
C895 C 0.57543 0.50976 0.55426 0.0
C896 C 0.53246 0.52648 0.53817 0.0
C897 C 0.51435 0.37005 0.54577 0.0
C898 C 0.53959 0.32645 0.54733 0.0
C899 C 0.55248 0.36418 0.53497 0.0
C900 C 0.53182 0.38087 0.53805 0.0
C901 C 0.5564 0.33712 0.53957 0.0
C902 C 0.51829 0.34275 0.5504 0.0
C903 C 0.48928 0.38441 0.54873 0.0
C904 C 0.33134 0.36986 0.54192 0.0
C905 C 0.34491 0.38419 0.53409 0.0
H906 H 0.31489 0.34451 0.55752 0.0
C907 C 0.45002 0.50348 0.55152 0.0
C908 C 0.49259 0.47651 0.568 0.0
C909 C 0.52373 0.65178 0.56362 0.0
C910 C 0.53379 0.71739 0.56199 0.0
C911 C 0.50298 0.68012 0.57416 0.0
C912 C 0.50645 0.64942 0.5712 0.0
C913 C 0.51635 0.71369 0.56959 0.0
C914 C 0.53796 0.68636 0.559 0.0
C915 C 0.52793 0.6184 0.56102 0.0
H916 H 0.56514 0.37192 0.52895 0.0
H917 H 0.52886 0.4016 0.53434 0.0
H918 H 0.57199 0.32393 0.53702 0.0
H919 H 0.50447 0.33389 0.55631 0.0
H920 H 0.48982 0.67789 0.58004 0.0
H921 H 0.49597 0.62383 0.57495 0.0
H922 H 0.51315 0.73709 0.57204 0.0
H923 H 0.55165 0.68895 0.55316 0.0
C924 C 0.49055 0.05198 0.56759 0.0
C925 C 0.45477 0.067 0.55776 0.0
C926 C 0.47969 0.05259 0.55957 0.0
C927 C 0.4421 0.08183 0.56403 0.0
C928 C 0.47765 0.06658 0.57392 0.0
C929 C 0.45354 0.08166 0.57209 0.0
N930 N 0.5142 0.03754 0.56919 0.0
C931 C 0.52529 0.03598 0.57698 0.0
C932 C 0.48934 0.06554 0.58191 0.0
C933 C 0.51316 0.05005 0.58344 0.0
Gd934 Gd 0.63477 0.07924 0.54747 0.0
Gd935 Gd 0.53245 0.01381 0.55804 0.0
N936 N 0.49296 0.03859 0.55359 0.0
C937 C 0.44266 0.06538 0.54971 0.0
C938 C 0.47883 0.03439 0.54586 0.0
C939 C 0.45425 0.04842 0.54376 0.0
H940 H 0.48494 0.01899 0.5413 0.0
H941 H 0.44371 0.04552 0.53759 0.0
H942 H 0.67298 0.05398 0.56319 0.0
H943 H 0.54287 0.02316 0.57824 0.0
H944 H 0.71322 0.0249 0.56525 0.0
H945 H 0.42346 0.07604 0.54807 0.0
H946 H 0.42311 0.09315 0.56273 0.0
H947 H 0.62413 0.08208 0.52731 0.0
H948 H 0.47996 0.07639 0.58693 0.0
H949 H 0.522 0.04871 0.5896 0.0
H950 H 0.74016 1.00007 0.53821 0.0
H951 H 0.44336 0.09302 0.57686 0.0
H952 H 0.68613 0.03368 0.5158 0.0
H953 H 0.645 0.06344 0.51481 0.0
N954 N 0.65159 0.06137 0.53527 0.0
C955 C 0.6748 0.04577 0.53597 0.0
C956 C 0.64112 0.06806 0.52781 0.0
C957 C 0.67666 0.04138 0.52131 0.0
C958 C 0.65335 0.05804 0.52072 0.0
C959 C 0.68778 0.03514 0.52899 0.0
H960 H 0.72171 0.01045 0.52457 0.0
N961 N 0.67204 0.05014 0.55034 0.0
C962 C 0.68545 0.04013 0.5437 0.0
C963 C 0.71888 0.01772 0.55243 0.0
C964 C 0.70902 0.02341 0.54458 0.0
C965 C 0.68234 0.04533 0.55797 0.0
C966 C 0.70556 0.02888 0.55915 0.0
O967 O 0.56017 0.07794 0.55992 0.0
O968 O 0.59148 0.09981 0.54779 0.0
O969 O 0.68543 0.13206 0.55225 0.0
O970 O 0.669 0.12584 0.5394 0.0
O971 O 0.53829 0.00864 0.54396 0.0
O972 O 0.58347 0.07035 0.54037 0.0
O973 O 0.60758 0.01326 0.54667 0.0
O974 O 0.57479 0.99295 0.55874 0.0
O975 O 0.48074 0.96056 0.55376 0.0
O976 O 0.49694 0.96886 0.56658 0.0
O977 O 0.63162 0.08806 0.56091 0.0
O978 O 0.58502 0.03058 0.56658 0.0
C979 C 0.57646 0.10491 0.55442 0.0
C980 C 0.5555 0.03616 0.53837 0.0
C981 C 0.72464 0.18618 0.54288 0.0
C982 C 0.77659 0.25042 0.54641 0.0
C983 C 0.75884 0.23357 0.53226 0.0
C984 C 0.73057 0.1968 0.5346 0.0
C985 C 0.78167 0.26027 0.53812 0.0
C986 C 0.74798 0.21324 0.54883 0.0
C987 C 0.69252 0.14763 0.54502 0.0
C988 C 0.72197 0.01285 0.53763 0.0
C989 C 0.71143 0.01874 0.52986 0.0
H990 H 0.73687 1.00493 0.55336 0.0
C991 C 0.59034 0.98677 0.55236 0.0
C992 C 0.61786 0.06431 0.56711 0.0
C993 C 0.43821 0.90914 0.56339 0.0
C994 C 0.37251 0.85456 0.56135 0.0
C995 C 0.40826 0.85862 0.57361 0.0
C996 C 0.43947 0.89302 0.57091 0.0
C997 C 0.37514 0.83956 0.56889 0.0
C998 C 0.40427 0.8897 0.55856 0.0
C999 C 0.47182 0.94722 0.56115 0.0
H1000 H 0.76296 0.24144 0.52588 0.0
H1001 H 0.71309 0.17676 0.52988 0.0
H1002 H 0.80356 0.28884 0.53618 0.0
H1003 H 0.74374 0.20571 0.55524 0.0
H1004 H 0.4097 0.84675 0.57944 0.0
H1005 H 0.4647 0.90717 0.57478 0.0
H1006 H 0.35116 0.81293 0.57116 0.0
H1007 H 0.40239 0.90186 0.5528 0.0
C1008 C 0.08701 0.37541 0.37011 0.0
C1009 C 0.03181 0.35547 0.37902 0.0
C1010 C 0.07194 0.37229 0.3779 0.0
C1011 C 1.00714 0.34165 0.37226 0.0
C1012 C 0.06229 0.3617 0.36331 0.0
C1013 C 0.02232 0.34473 0.36443 0.0
N1014 N 0.12578 0.39158 0.36919 0.0
C1015 C 0.14183 0.39652 0.36165 0.0
C1016 C 0.07851 0.36557 0.35556 0.0
C1017 C 0.11848 0.38329 0.35473 0.0
Gd1018 Gd 0.20211 0.3495 0.3916 0.0
Gd1019 Gd 0.16212 0.41326 0.38113 0.0
N1020 N 0.09645 0.38511 0.38438 0.0
C1021 C 0.01762 0.35309 0.38692 0.0
C1022 C 0.08283 0.38442 0.39201 0.0
C1023 C 0.04332 0.36798 0.39343 0.0
H1024 H 0.10208 0.3973 0.397 0.0
H1025 H 0.03277 0.36726 0.39953 0.0
H1026 H 0.25482 0.35623 0.37475 0.0
H1027 H 0.17274 0.41172 0.36096 0.0
H1028 H 0.32259 0.38356 0.371 0.0
H1029 H 0.98699 0.34041 0.38803 0.0
H1030 H 0.97624 0.32859 0.37301 0.0
H1031 H 0.20113 0.35958 0.41178 0.0
H1032 H 0.06047 0.35542 0.35019 0.0
H1033 H 0.13136 0.38713 0.34876 0.0
H1034 H 0.39086 0.43106 0.39615 0.0
H1035 H 1.00288 0.33401 0.35927 0.0
H1036 H 0.31737 0.41323 0.4204 0.0
H1037 H 0.24768 0.38523 0.42312 0.0
N1038 N 0.24414 0.37407 0.40271 0.0
C1039 C 0.28222 0.38884 0.40108 0.0
C1040 C 0.23153 0.37249 0.4105 0.0
C1041 C 0.29709 0.40232 0.41539 0.0
C1042 C 0.25779 0.38664 0.41695 0.0
C1043 C 0.30977 0.40356 0.40739 0.0
H1044 H 0.37054 0.4304 0.4103 0.0
N1045 N 0.26632 0.37554 0.38707 0.0
C1046 C 0.29365 0.3897 0.39304 0.0
C1047 C 0.34347 0.40325 0.38313 0.0
C1048 C 0.33299 0.40454 0.3912 0.0
C1049 C 0.27629 0.3717 0.37931 0.0
C1050 C 0.31493 0.38621 0.3772 0.0
O1051 O 0.12425 0.34705 0.38035 0.0
O1052 O 0.13943 0.32964 0.39236 0.0
O1053 O 0.20066 0.29605 0.38732 0.0
O1054 O 0.19438 0.30537 0.40015 0.0
O1055 O 0.17436 0.42203 0.39454 0.0
O1056 O 0.16517 0.36488 0.40012 0.0
O1057 O 0.23741 0.41378 0.39351 0.0
O1058 O 0.22649 0.43592 0.38154 0.0
O1059 O 0.16387 0.46618 0.38559 0.0
O1060 O 0.17228 0.45821 0.3727 0.0
O1061 O 0.19067 0.34429 0.37758 0.0
O1062 O 0.20603 0.40591 0.37429 0.0
C1063 C 0.11739 0.32081 0.38596 0.0
C1064 C 0.16551 0.39836 0.40073 0.0
C1065 C 0.19483 0.24619 0.39719 0.0
C1066 C 0.20532 0.19112 0.39508 0.0
C1067 C 0.18454 0.20154 0.40826 0.0
C1068 C 0.18445 0.23403 0.40529 0.0
C1069 C 0.19489 0.18033 0.40322 0.0
C1070 C 0.20532 0.22436 0.39201 0.0
C1071 C 0.19784 0.28358 0.39476 0.0
C1072 C 0.36053 0.41944 0.39747 0.0
C1073 C 0.34896 0.41897 0.40553 0.0
H1074 H 0.37336 0.41426 0.38148 0.0
C1075 C 0.24704 0.44111 0.38813 0.0
C1076 C 0.20048 0.37216 0.37212 0.0
C1077 C 0.17524 0.51807 0.37595 0.0
C1078 C 0.19273 0.58428 0.37907 0.0
C1079 C 0.17917 0.56131 0.36513 0.0
C1080 C 0.17205 0.52521 0.36768 0.0
C1081 C 0.18964 0.59076 0.37077 0.0
C1082 C 0.18519 0.54772 0.38171 0.0
C1083 C 0.17076 0.4805 0.37824 0.0
H1084 H 0.1768 0.1929 0.41453 0.0
H1085 H 0.17672 0.25004 0.40946 0.0
H1086 H 0.19489 0.15523 0.4057 0.0
H1087 H 0.214 0.23339 0.38578 0.0
H1088 H 0.17682 0.56654 0.35875 0.0
H1089 H 0.16441 0.50293 0.36313 0.0
H1090 H 0.19517 0.61875 0.36868 0.0
H1091 H 0.18796 0.54279 0.3881 0.0
C1092 C 0.72043 0.74986 0.37243 0.0
C1093 C 0.73704 0.71562 0.38237 0.0
C1094 C 0.72035 0.73838 0.38045 0.0
C1095 C 0.7548 0.70565 0.37621 0.0
C1096 C 0.73743 0.73917 0.36621 0.0
C1097 C 0.75492 0.71732 0.36815 0.0
N1098 N 0.7039 0.77158 0.37074 0.0
C1099 C 0.70148 0.78181 0.36295 0.0
C1100 C 0.73606 0.75055 0.3582 0.0
C1101 C 0.71769 0.77168 0.35656 0.0
Gd1102 Gd 0.74296 0.89225 0.39129 0.0
Gd1103 Gd 0.67783 0.7871 0.38183 0.0
N1104 N 0.70306 0.74859 0.3863 0.0
C1105 C 0.73447 0.70269 0.39039 0.0
C1106 C 0.69723 0.73293 0.39389 0.0
C1107 C 0.71377 0.71075 0.39614 0.0
H1108 H 0.67849 0.73594 0.39811 0.0
H1109 H 0.70974 0.6991 0.40224 0.0
H1110 H 0.73814 0.94009 0.37466 0.0
H1111 H 0.68604 0.79677 0.36164 0.0
H1112 H 0.71639 0.98571 0.3713 0.0
H1113 H 0.74693 0.68514 0.39212 0.0
H1114 H 0.76793 0.68832 0.37759 0.0
H1115 H 0.73076 0.87826 0.41152 0.0
H1116 H 0.74861 0.74271 0.35324 0.0
H1117 H 0.71572 0.77991 0.35037 0.0
H1118 H 0.67277 0.00887 0.39671 0.0
H1119 H 0.76827 0.70894 0.36345 0.0
H1120 H 0.6829 0.94544 0.42052 0.0
H1121 H 0.7065 0.89981 0.42295 0.0
N1122 N 0.719 0.90955 0.40257 0.0
C1123 C 0.70688 0.93524 0.40112 0.0
C1124 C 0.71937 0.89712 0.41031 0.0
C1125 C 0.69299 0.9356 0.41544 0.0
C1126 C 0.70614 0.90973 0.41683 0.0
C1127 C 0.69339 0.94883 0.40753 0.0
H1128 H 0.67049 0.986 0.41071 0.0
N1129 N 0.72001 0.93333 0.38706 0.0
C1130 C 0.70755 0.94757 0.39316 0.0
C1131 C 0.69821 0.98786 0.38353 0.0
C1132 C 0.69569 0.9747 0.39152 0.0
C1133 C 0.72458 0.94787 0.37935 0.0
C1134 C 0.71313 0.97472 0.37745 0.0
O1135 O 0.74385 0.81819 0.38034 0.0
O1136 O 0.7644 0.85069 0.39236 0.0
O1137 O 0.79748 0.9424 0.38673 0.0
O1138 O 0.78628 0.93045 0.39969 0.0
O1139 O 0.671 0.79372 0.39522 0.0
O1140 O 0.73046 0.84109 0.39987 0.0
O1141 O 0.67888 0.8658 0.39323 0.0
O1142 O 0.65268 0.8264 0.38211 0.0
O1143 O 0.62421 0.73638 0.386 0.0
O1144 O 0.63456 0.75213 0.37307 0.0
O1145 O 0.74433 0.88471 0.37719 0.0
O1146 O 0.68268 0.83636 0.37459 0.0
C1147 C 0.7698 0.83364 0.38616 0.0
C1148 C 0.69671 0.80911 0.40105 0.0
C1149 C 0.84609 0.98847 0.39659 0.0
C1150 C 0.9016 0.0533 0.39426 0.0
C1151 C 0.88886 0.0249 0.40777 0.0
C1152 C 0.85685 0.99182 0.40484 0.0
C1153 C 0.911 0.05535 0.40255 0.0
C1154 C 0.86881 0.01965 0.39123 0.0
C1155 C 0.80896 0.95399 0.39416 0.0
C1156 C 0.68215 0.98819 0.39788 0.0
C1157 C 0.68091 0.97523 0.40586 0.0
H1158 H 0.68949 0.00874 0.38202 0.0
C1159 C 0.64983 0.84493 0.3884 0.0
C1160 C 0.71505 0.86555 0.37206 0.0
C1161 C 0.57334 0.69637 0.37621 0.0
C1162 C 0.50829 0.64595 0.37953 0.0
C1163 C 0.52784 0.66066 0.36541 0.0
C1164 C 0.56436 0.68904 0.36788 0.0
C1165 C 0.49988 0.63927 0.37119 0.0
C1166 C 0.54511 0.67448 0.38207 0.0
C1167 C 0.61101 0.729 0.37855 0.0
H1168 H 0.89643 0.02703 0.41415 0.0
H1169 H 0.84009 0.96896 0.40915 0.0
H1170 H 0.93576 0.08085 0.405 0.0
H1171 H 0.86086 0.01806 0.38488 0.0
H1172 H 0.52112 0.6554 0.35899 0.0
H1173 H 0.58542 0.70564 0.36324 0.0
H1174 H 0.47152 0.61732 0.36917 0.0
H1175 H 0.55138 0.67997 0.38852 0.0
C1176 C 0.34191 1.00339 0.37191 0.0
C1177 C 0.3849 0.05534 0.38091 0.0
C1178 C 0.35842 0.01607 0.37951 0.0
C1179 C 0.39387 0.08194 0.37454 0.0
C1180 C 0.35215 0.0297 0.36541 0.0
C1181 C 0.37757 0.06914 0.36681 0.0
N1182 N 0.3174 0.96507 0.37078 0.0
C1183 C 0.30581 0.95075 0.36313 0.0
C1184 C 0.3375 0.01538 0.35765 0.0
C1185 C 0.31488 0.97561 0.35648 0.0
Gd1186 Gd 0.19415 0.88893 0.3911 0.0
Gd1187 Gd 0.30213 0.92628 0.38246 0.0
N1188 N 0.34864 0.98971 0.38556 0.0
C1189 C 0.40176 0.06651 0.38864 0.0
C1190 C 0.3664 0.99991 0.39295 0.0
C1191 C 0.39284 0.03856 0.39465 0.0
H1192 H 0.36031 0.97817 0.3975 0.0
H1193 H 0.40643 0.04671 0.40058 0.0
H1194 H 0.14543 0.83353 0.37471 0.0
H1195 H 0.29078 0.9202 0.36208 0.0
H1196 H 0.10128 0.76528 0.37176 0.0
H1197 H 0.42223 0.09644 0.38996 0.0
H1198 H 0.41389 0.11234 0.3755 0.0
H1199 H 0.20834 0.89402 0.41125 0.0
H1200 H 0.34476 0.03459 0.35248 0.0
H1201 H 0.30498 0.96402 0.35044 0.0
H1202 H 0.08279 0.70211 0.39752 0.0
H1203 H 0.38545 0.08986 0.36191 0.0
H1204 H 0.14594 0.7797 0.42091 0.0
H1205 H 0.18912 0.84974 0.42296 0.0
N1206 N 0.17831 0.84931 0.40257 0.0
C1207 C 0.15324 0.81114 0.40134 0.0
C1208 C 0.19041 0.86345 0.41023 0.0
C1209 C 0.15463 0.79897 0.41572 0.0
C1210 C 0.17915 0.83847 0.4169 0.0
C1211 C 0.14112 0.78487 0.40789 0.0
H1212 H 0.10635 0.72488 0.41138 0.0
N1213 N 0.15291 0.82433 0.38722 0.0
C1214 C 0.14032 0.7983 0.39345 0.0
C1215 C 0.10074 0.74689 0.3841 0.0
C1216 C 0.11435 0.75882 0.39202 0.0
C1217 C 0.1383 0.81296 0.37955 0.0
C1218 C 0.11244 0.77413 0.37787 0.0
O1219 O 0.28631 0.97227 0.38604 0.0
O1220 O 0.22319 0.93907 0.38258 0.0
O1221 O 0.13459 0.87549 0.38929 0.0
O1222 O 0.17062 0.91738 0.39854 0.0
O1223 O 0.29166 0.91407 0.39583 0.0
O1224 O 0.24571 0.93025 0.39947 0.0
O1225 O 0.22253 0.8536 0.39405 0.0
O1226 O 0.256 0.86375 0.38234 0.0
O1227 O 0.34576 0.91494 0.38775 0.0
O1228 O 0.3354 0.9112 0.37471 0.0
O1229 O 0.20053 0.89474 0.37705 0.0
O1230 O 0.25292 0.88703 0.37427 0.0
C1231 C 0.2536 0.97149 0.38459 0.0
C1232 C 0.27824 0.92965 0.40095 0.0
C1233 C 0.10412 0.90447 0.39729 0.0
C1234 C 0.03801 0.89221 0.39547 0.0
C1235 C 0.07752 0.93215 0.40665 0.0
C1236 C 0.10792 0.92708 0.40414 0.0
C1237 C 0.04289 0.91491 0.40236 0.0
C1238 C 0.06875 0.88682 0.39292 0.0
C1239 C 0.13688 0.89881 0.39503 0.0
C1240 C 0.10252 0.73254 0.39853 0.0
C1241 C 0.11589 0.74551 0.40643 0.0
H1242 H 0.08074 0.71684 0.38277 0.0
C1243 C 0.24089 0.8436 0.38892 0.0
C1244 C 0.22184 0.88755 0.37192 0.0
C1245 C 0.39542 0.91998 0.37883 0.0
C1246 C 0.44994 0.91076 0.38123 0.0
C1247 C 0.44878 0.94565 0.36927 0.0
C1248 C 0.41316 0.94054 0.37167 0.0
C1249 C 0.46711 0.93076 0.37401 0.0
C1250 C 0.41404 0.90522 0.38363 0.0
C1251 C 0.35519 0.90797 0.38061 0.0
H1252 H 0.08078 0.94942 0.41198 0.0
H1253 H 0.13438 0.94064 0.40764 0.0
H1254 H 0.01959 0.9191 0.40446 0.0
H1255 H 0.06503 0.86896 0.38766 0.0
H1256 H 0.46193 0.96067 0.36366 0.0
H1257 H 0.39899 0.95154 0.36778 0.0
H1258 H 0.49458 0.93452 0.37203 0.0
H1259 H 0.40025 0.8886 0.38906 0.0
C1260 C 0.70821 0.74401 0.81177 0.0
C1261 C 0.6852 0.68876 0.8027 0.0
C1262 C 0.70341 0.72893 0.80389 0.0
C1263 C 0.67181 0.664 0.80946 0.0
C1264 C 0.69465 0.71917 0.81855 0.0
C1265 C 0.67647 0.67913 0.81735 0.0
N1266 N 0.7257 0.78289 0.81279 0.0
C1267 C 0.73178 0.79888 0.82036 0.0
C1268 C 0.69984 0.73531 0.82634 0.0
C1269 C 0.71862 0.77535 0.82725 0.0
Gd1270 Gd 0.68374 0.86017 0.79101 0.0
Gd1271 Gd 0.74771 0.81885 0.80086 0.0
N1272 N 0.71577 0.7535 0.79741 0.0
C1273 C 0.68108 0.67463 0.79475 0.0
C1274 C 0.71314 0.73999 0.78968 0.0
C1275 C 0.69536 0.70038 0.78822 0.0
H1276 H 0.72533 0.75941 0.78465 0.0
H1277 H 0.69309 0.68977 0.78206 0.0
H1278 H 0.6996 0.91714 0.80758 0.0
H1279 H 0.74798 0.82978 0.8211 0.0
H1280 H 0.73011 0.98594 0.81077 0.0
H1281 H 0.66736 0.64393 0.79358 0.0
H1282 H 0.65778 0.63304 0.80866 0.0
H1283 H 0.67885 0.85381 0.77075 0.0
H1284 H 0.68983 0.71713 0.8317 0.0
H1285 H 0.7234 0.78811 0.83325 0.0
H1286 H 0.76331 0.04799 0.78468 0.0
H1287 H 0.66594 0.65958 0.82249 0.0
H1288 H 0.73022 0.96802 0.76093 0.0
H1289 H 0.69905 0.89748 0.75887 0.0
N1290 N 0.69904 0.89924 0.77942 0.0
C1291 C 0.71536 0.93779 0.78068 0.0
C1292 C 0.69269 0.88457 0.77172 0.0
C1293 C 0.72141 0.949 0.76616 0.0
C1294 C 0.70389 0.9092 0.76498 0.0
C1295 C 0.72721 0.96378 0.77408 0.0
H1296 H 0.75419 0.02398 0.7706 0.0
N1297 N 0.71004 0.92545 0.79484 0.0
C1298 C 0.72097 0.95132 0.78863 0.0
C1299 C 0.74202 1.00376 0.79824 0.0
C1300 C 0.73793 0.99122 0.79016 0.0
C1301 C 0.71183 0.93745 0.80269 0.0
C1302 C 0.72836 0.97668 0.80452 0.0
O1303 O 0.6817 0.78312 0.80196 0.0
O1304 O 0.66958 0.7995 0.78979 0.0
O1305 O 0.63292 0.86064 0.79604 0.0
O1306 O 0.63073 0.83717 0.78415 0.0
O1307 O 0.75697 0.83207 0.78746 0.0
O1308 O 0.70181 0.82773 0.78178 0.0
O1309 O 0.74781 0.89794 0.78926 0.0
O1310 O 0.77404 0.88394 0.8004 0.0
O1311 O 0.7978 0.81823 0.79584 0.0
O1312 O 0.79059 0.8192 0.80887 0.0
O1313 O 0.6823 0.85001 0.80507 0.0
O1314 O 0.74396 0.86384 0.80812 0.0
C1315 C 0.65732 0.77711 0.79606 0.0
C1316 C 0.73477 0.82709 0.78115 0.0
C1317 C 0.58859 0.86235 0.78626 0.0
C1318 C 0.5355 0.87636 0.78769 0.0
C1319 C 0.56482 0.88121 0.77448 0.0
C1320 C 0.59018 0.87087 0.7779 0.0
C1321 C 0.53771 0.88386 0.77931 0.0
C1322 C 0.56092 0.86526 0.79119 0.0
C1323 C 0.61246 0.84611 0.78947 0.0
C1324 C 0.75 0.01724 0.78361 0.0
C1325 C 0.74472 1.00356 0.77559 0.0
H1326 H 0.7548 0.03413 0.79968 0.0
C1327 C 0.77663 0.90629 0.79424 0.0
C1328 C 0.71107 0.86047 0.81035 0.0
C1329 C 0.85404 0.85037 0.80393 0.0
C1330 C 0.92143 0.871 0.80152 0.0
C1331 C 0.90419 0.90965 0.81001 0.0
C1332 C 0.86524 0.88326 0.80877 0.0
C1333 C 0.93221 0.9036 0.8064 0.0
C1334 C 0.8823 0.8443 0.8003 0.0
C1335 C 0.81319 0.8212 0.80299 0.0
H1336 H 0.56594 0.88686 0.76801 0.0
H1337 H 0.61044 0.8686 0.7739 0.0
H1338 H 0.51811 0.89166 0.77648 0.0
H1339 H 0.55873 0.85834 0.79762 0.0
H1340 H 0.91268 0.93462 0.81384 0.0
H1341 H 0.84392 0.88826 0.81171 0.0
H1342 H 0.96237 0.92401 0.80752 0.0
H1343 H 0.87394 0.81878 0.79663 0.0
C1344 C 0.34226 1.00558 0.81146 0.0
C1345 C 0.39714 0.03886 0.80238 0.0
C1346 C 0.35707 0.01579 0.8036 0.0
C1347 C 0.42204 0.05135 0.80912 0.0
C1348 C 0.36718 0.01847 0.81823 0.0
C1349 C 0.4071 0.04128 0.81702 0.0
N1350 N 0.30356 0.98304 0.81247 0.0
C1351 C 0.28774 0.97344 0.82007 0.0
C1352 C 0.35121 0.0082 0.82605 0.0
C1353 C 0.31129 0.98577 0.82696 0.0
Gd1354 Gd 0.22682 0.86175 0.79044 0.0
Gd1355 Gd 0.2668 0.96574 0.80055 0.0
N1356 N 0.33231 1.00286 0.79716 0.0
C1357 C 0.41102 0.04898 0.79441 0.0
C1358 C 0.34559 0.01458 0.78946 0.0
C1359 C 0.38506 0.03711 0.78793 0.0
H1360 H 0.32609 0.00777 0.7845 0.0
H1361 H 0.39535 0.04585 0.78177 0.0
H1362 H 0.17217 0.81933 0.80729 0.0
H1363 H 0.25683 0.95707 0.82082 0.0
H1364 H 0.10385 0.78256 0.81093 0.0
H1365 H 0.44161 0.06663 0.79322 0.0
H1366 H 0.4529 0.06906 0.80828 0.0
H1367 H 0.22936 0.87133 0.77018 0.0
H1368 H 0.3694 0.01772 0.83141 0.0
H1369 H 0.29863 0.97814 0.83298 0.0
H1370 H 0.03788 0.75924 0.78541 0.0
H1371 H 0.42669 0.0514 0.82215 0.0
H1372 H 0.1136 0.81028 0.76123 0.0
H1373 H 0.18363 0.85049 0.75869 0.0
N1374 N 0.18562 0.84377 0.77915 0.0
C1375 C 0.14733 0.82117 0.78068 0.0
C1376 C 0.19882 0.85427 0.77138 0.0
C1377 C 0.13353 0.81943 0.7663 0.0
C1378 C 0.17302 0.84224 0.76485 0.0
C1379 C 0.1202 0.8087 0.77429 0.0
H1380 H 0.05949 0.77649 0.77123 0.0
N1381 N 0.16211 0.82462 0.79476 0.0
C1382 C 0.1352 0.81149 0.78871 0.0
C1383 C 0.08422 0.77934 0.79861 0.0
C1384 C 0.09553 0.78892 0.79049 0.0
C1385 C 0.15122 0.81299 0.8026 0.0
C1386 C 0.11223 0.79103 0.80467 0.0
O1387 O 0.30523 0.93797 0.80144 0.0
O1388 O 0.28938 0.90468 0.78955 0.0
O1389 O 0.22856 0.81021 0.79495 0.0
O1390 O 0.2346 0.82492 0.78205 0.0
O1391 O 0.25279 0.96034 0.78715 0.0
O1392 O 0.2641 0.91351 0.78182 0.0
O1393 O 0.19148 0.89077 0.78879 0.0
O1394 O 0.20257 0.92368 0.80078 0.0
O1395 O 0.26496 0.01655 0.79571 0.0
O1396 O 0.25644 1.0013 0.80865 0.0
O1397 O 0.23844 0.86789 0.80448 0.0
O1398 O 0.22536 0.91565 0.80809 0.0
C1399 C 0.31159 0.91789 0.79592 0.0
C1400 C 0.26275 0.946 0.78104 0.0
C1401 C 0.23598 0.76662 0.78525 0.0
C1402 C 0.22651 0.70157 0.7874 0.0
C1403 C 0.2534 0.73547 0.77469 0.0
C1404 C 0.25087 0.76689 0.77748 0.0
C1405 C 0.24137 0.70316 0.77958 0.0
C1406 C 0.22354 0.73348 0.79027 0.0
C1407 C 0.23189 0.80041 0.78755 0.0
C1408 C 0.06844 0.77652 0.78414 0.0
C1409 C 0.08074 0.78629 0.77606 0.0
H1410 H 0.05404 0.76219 0.80023 0.0
C1411 C 0.18041 0.90572 0.79452 0.0
C1412 C 0.23067 0.88706 0.81009 0.0
C1413 C 0.25415 0.05821 0.80522 0.0
C1414 C 0.23868 0.10831 0.80203 0.0
C1415 C 0.25237 0.09907 0.81596 0.0
C1416 C 0.25814 0.06916 0.81346 0.0
C1417 C 0.24262 0.1185 0.81029 0.0
C1418 C 0.24452 0.07809 0.79944 0.0
C1419 C 0.25824 0.02476 0.80301 0.0
H1420 H 0.26471 0.73615 0.76867 0.0
H1421 H 0.26045 0.7915 0.77347 0.0
H1422 H 0.24361 0.67905 0.77723 0.0
H1423 H 0.21166 0.73245 0.79625 0.0
H1424 H 0.25527 0.10707 0.82233 0.0
H1425 H 0.2655 0.0544 0.81804 0.0
H1426 H 0.23799 0.1416 0.81235 0.0
H1427 H 0.24095 0.0698 0.79308 0.0
C1428 C 0.08311 0.37571 0.81106 0.0
C1429 C 0.04713 0.39301 0.80173 0.0
C1430 C 0.07139 0.37753 0.80316 0.0
C1431 C 0.03583 0.40766 0.80828 0.0
C1432 C 0.07121 0.38968 0.81766 0.0
C1433 C 0.0478 0.40597 0.81622 0.0
N1434 N 0.10635 0.36044 0.81226 0.0
C1435 C 0.11698 0.35628 0.81991 0.0
C1436 C 0.08304 0.38664 0.82553 0.0
C1437 C 0.10574 0.36955 0.82666 0.0
Gd1438 Gd 0.22735 0.40963 0.79111 0.0
Gd1439 Gd 0.12355 0.33927 0.80058 0.0
N1440 N 0.08328 0.36365 0.7969 0.0
C1441 C 0.03427 0.39253 0.79378 0.0
C1442 C 0.06808 0.36001 0.78932 0.0
C1443 C 0.04421 0.37526 0.78757 0.0
H1444 H 0.0728 0.34393 0.7847 0.0
H1445 H 0.03283 0.37292 0.78149 0.0
H1446 H 0.26895 0.39368 0.80767 0.0
H1447 H 0.13331 0.34183 0.82084 0.0
H1448 H 0.30902 0.36505 0.8107 0.0
H1449 H 0.01556 0.40411 0.79242 0.0
H1450 H 0.01737 0.41987 0.80729 0.0
H1451 H 0.22178 0.41083 0.77086 0.0
H1452 H 0.07437 0.39692 0.83077 0.0
H1453 H 0.11439 0.36635 0.83272 0.0
H1454 H 0.34119 0.33676 0.78446 0.0
H1455 H 0.03848 0.41701 0.82122 0.0
H1456 H 0.29064 0.36657 0.76086 0.0
H1457 H 0.24713 0.39311 0.75892 0.0
N1458 N 0.25025 0.39395 0.77945 0.0
C1459 C 0.27465 0.38006 0.78067 0.0
C1460 C 0.24041 0.39886 0.77178 0.0
C1461 C 0.27964 0.37432 0.76612 0.0
C1462 C 0.25495 0.38914 0.765 0.0
C1463 C 0.28973 0.36951 0.77402 0.0
H1464 H 0.3255 0.34552 0.77043 0.0
N1465 N 0.26732 0.38435 0.79488 0.0
C1466 C 0.28329 0.37492 0.7886 0.0
C1467 C 0.3161 0.35501 0.79811 0.0
C1468 C 0.30759 0.35941 0.79006 0.0
C1469 C 0.27767 0.38238 0.80271 0.0
C1470 C 0.30147 0.36702 0.80445 0.0
O1471 O 0.15015 0.40462 0.80235 0.0
O1472 O 0.18234 0.42689 0.7904 0.0
O1473 O 0.27785 0.46056 0.79617 0.0
O1474 O 0.25911 0.46161 0.78395 0.0
O1475 O 0.12939 0.33415 0.78702 0.0
O1476 O 0.17603 0.39441 0.78243 0.0
O1477 O 0.20317 0.3459 0.78857 0.0
O1478 O 0.16731 0.31957 0.80007 0.0
O1479 O 0.07371 0.2854 0.79603 0.0
O1480 O 0.08992 0.29367 0.80893 0.0
O1481 O 0.219 0.41069 0.80516 0.0
O1482 O 0.17421 0.34769 0.80787 0.0
C1483 C 0.16645 0.43187 0.79683 0.0
C1484 C 0.14446 0.36035 0.78125 0.0
C1485 C 0.32629 0.4996 0.78644 0.0
C1486 C 0.39346 0.55187 0.78746 0.0
C1487 C 0.37233 0.50926 0.77574 0.0
C1488 C 0.33524 0.48881 0.77895 0.0
C1489 C 0.4012 0.54062 0.77993 0.0
C1490 C 0.35583 0.53132 0.79073 0.0
C1491 C 0.28576 0.47981 0.78938 0.0
C1492 C 0.32265 0.34887 0.78345 0.0
C1493 C 0.31378 0.35394 0.77546 0.0
H1494 H 0.3346 0.34319 0.79948 0.0
C1495 C 0.18472 0.3167 0.79357 0.0
C1496 C 0.20111 0.3816 0.81036 0.0
C1497 C 0.03343 0.23382 0.80572 0.0
C1498 C 0.98356 0.1683 0.80261 0.0
C1499 C 0.99071 0.1926 0.81639 0.0
C1500 C 0.02128 0.22786 0.81389 0.0
C1501 C 0.97193 0.16293 0.81079 0.0
C1502 C 0.01435 0.20385 0.80003 0.0
C1503 C 0.06618 0.27135 0.80339 0.0
H1504 H 0.37862 0.50098 0.76991 0.0
H1505 H 0.31343 0.46504 0.77546 0.0
H1506 H 0.42975 0.55636 0.77728 0.0
H1507 H 0.34947 0.54032 0.79647 0.0
H1508 H 0.98159 0.18825 0.8227 0.0
H1509 H 0.0354 0.25056 0.81838 0.0
H1510 H 0.94826 0.13554 0.81284 0.0
H1511 H 0.0235 0.20794 0.79372 0.0
C1512 C 0.14848 0.37292 0.28084 0.0
C1513 C 0.09634 0.36068 0.29012 0.0
C1514 C 0.13564 0.37317 0.28873 0.0
C1515 C 0.07023 0.34716 0.28358 0.0
C1516 C 0.12233 0.35973 0.27426 0.0
C1517 C 0.08316 0.34663 0.27569 0.0
N1518 N 0.18649 0.38511 0.27963 0.0
C1519 C 0.20061 0.38749 0.27195 0.0
C1520 C 0.13637 0.36037 0.26643 0.0
C1521 C 0.17573 0.37465 0.26526 0.0
Gd1522 Gd 0.26291 0.3371 0.29945 0.0
Gd1523 Gd 0.22594 0.40812 0.29117 0.0
N1524 N 0.16146 0.38563 0.295 0.0
C1525 C 0.0844 0.3623 0.29804 0.0
C1526 C 0.15006 0.38854 0.30269 0.0
C1527 C 0.11143 0.37659 0.30433 0.0
H1528 H 0.17049 0.40098 0.30759 0.0
H1529 H 0.10256 0.3787 0.31044 0.0
H1530 H 0.31844 0.33806 0.2843 0.0
H1531 H 0.23111 0.39997 0.2709 0.0
H1532 H 0.38781 0.36541 0.28135 0.0
H1533 H 0.0545 0.35302 0.29935 0.0
H1534 H 0.03993 0.33723 0.28456 0.0
H1535 H 0.25475 0.33612 0.31989 0.0
H1536 H 0.1172 0.35054 0.26122 0.0
H1537 H 0.18701 0.3762 0.2592 0.0
H1538 H 0.44947 0.41971 0.30695 0.0
H1539 H 0.06265 0.3363 0.27071 0.0
H1540 H 0.36789 0.39942 0.33001 0.0
H1541 H 0.29703 0.36432 0.3318 0.0
N1542 N 0.30056 0.3593 0.31133 0.0
C1543 C 0.33926 0.37571 0.31029 0.0
C1544 C 0.28534 0.35342 0.31897 0.0
C1545 C 0.34931 0.38809 0.32473 0.0
C1546 C 0.30936 0.36847 0.32577 0.0
C1547 C 0.36476 0.39108 0.31694 0.0
H1548 H 0.4247 0.41996 0.32067 0.0
N1549 N 0.32764 0.35855 0.29645 0.0
C1550 C 0.35325 0.37498 0.30263 0.0
C1551 C 0.40559 0.38765 0.29351 0.0
C1552 C 0.39302 0.39042 0.30131 0.0
C1553 C 0.33935 0.35363 0.28898 0.0
C1554 C 0.37854 0.36867 0.28734 0.0
O1555 O 0.18831 0.34434 0.28872 0.0
O1556 O 0.19988 0.31897 0.30009 0.0
O1557 O 0.25547 0.2843 0.29373 0.0
O1558 O 0.24777 0.28717 0.30673 0.0
O1559 O 0.23164 0.40708 0.30528 0.0
O1560 O 0.22495 0.34723 0.30801 0.0
O1561 O 0.30738 0.39862 0.29538 0.0
O1562 O 0.27626 0.4295 0.29965 0.0
O1563 O 0.21162 0.45395 0.29287 0.0
O1564 O 0.2545 0.46027 0.28383 0.0
O1565 O 0.24615 0.33401 0.28638 0.0
O1566 O 0.26539 0.39603 0.28246 0.0
C1567 C 0.17832 0.31595 0.29385 0.0
C1568 C 0.22484 0.3785 0.31038 0.0
C1569 C 0.26241 0.24026 0.30242 0.0
C1570 C 0.25591 0.17713 0.30069 0.0
C1571 C 0.29654 0.21952 0.31145 0.0
C1572 C 0.28769 0.24752 0.30899 0.0
C1573 C 0.28075 0.18445 0.30732 0.0
C1574 C 0.24655 0.20498 0.29828 0.0
C1575 C 0.24747 0.26617 0.30068 0.0
C1576 C 0.41873 0.40743 0.30784 0.0
C1577 C 0.40462 0.40767 0.31564 0.0
H1578 H 0.43594 0.39921 0.29224 0.0
C1579 C 0.30817 0.43061 0.29757 0.0
C1580 C 0.26273 0.36183 0.28105 0.0
C1581 C 0.23958 0.51251 0.28447 0.0
C1582 C 0.22704 0.56647 0.28593 0.0
C1583 C 0.25626 0.55934 0.27357 0.0
C1584 C 0.255 0.52641 0.27671 0.0
C1585 C 0.24242 0.57918 0.27813 0.0
C1586 C 0.22541 0.53278 0.28912 0.0
C1587 C 0.2344 0.47455 0.28701 0.0
H1588 H 0.31523 0.22478 0.31663 0.0
H1589 H 0.29959 0.27428 0.31238 0.0
H1590 H 0.28745 0.16273 0.30938 0.0
H1591 H 0.22636 0.19885 0.29332 0.0
H1592 H 0.26771 0.56935 0.26753 0.0
H1593 H 0.26509 0.51109 0.27293 0.0
H1594 H 0.24364 0.60468 0.27553 0.0
H1595 H 0.21281 0.52225 0.29507 0.0
C1596 C 0.72383 0.82061 0.28077 0.0
C1597 C 0.74428 0.78917 0.2906 0.0
C1598 C 0.72716 0.81176 0.28882 0.0
C1599 C 0.75834 0.77618 0.28423 0.0
C1600 C 0.73798 0.80765 0.27437 0.0
C1601 C 0.75516 0.78535 0.27615 0.0
N1602 N 0.70807 0.84316 0.27923 0.0
C1603 C 0.70498 0.85329 0.27144 0.0
C1604 C 0.73492 0.81794 0.26637 0.0
C1605 C 0.71832 0.84083 0.26491 0.0
Gd1606 Gd 0.74894 0.96677 0.30015 0.0
Gd1607 Gd 0.68518 0.86152 0.29052 0.0
N1608 N 0.71391 0.8254 0.29488 0.0
C1609 C 0.74643 0.77993 0.29872 0.0
C1610 C 0.71355 0.81401 0.30274 0.0
C1611 C 0.73053 0.79198 0.3048 0.0
H1612 H 0.69903 0.8203 0.30747 0.0
H1613 H 0.73061 0.78362 0.31106 0.0
H1614 H 0.74475 0.01626 0.28385 0.0
H1615 H 0.69149 0.87034 0.27023 0.0
H1616 H 0.71285 0.05272 0.28003 0.0
H1617 H 0.75934 0.76265 0.30033 0.0
H1618 H 0.77164 0.7589 0.2855 0.0
H1619 H 0.74257 0.95718 0.32037 0.0
H1620 H 0.74537 0.80847 0.26129 0.0
H1621 H 0.71567 0.84879 0.25874 0.0
H1622 H 0.65852 0.06494 0.30511 0.0
H1623 H 0.76622 0.77517 0.27131 0.0
H1624 H 0.68072 0.01123 0.32923 0.0
H1625 H 0.71389 0.97409 0.33182 0.0
N1626 N 0.72385 0.98234 0.31141 0.0
C1627 C 0.70701 1.00389 0.30986 0.0
C1628 C 0.72699 0.97213 0.31917 0.0
C1629 C 0.6928 1.00336 0.32418 0.0
C1630 C 0.71135 0.98228 0.32567 0.0
C1631 C 0.69061 0.01462 0.3162 0.0
H1632 H 0.65996 0.04479 0.3192 0.0
N1633 N 0.72273 1.0048 0.29589 0.0
C1634 C 0.70615 0.01518 0.30187 0.0
C1635 C 0.69027 0.05009 0.29207 0.0
C1636 C 0.689 0.03767 0.30009 0.0
C1637 C 0.72699 0.0197 0.28825 0.0
C1638 C 0.70998 0.04163 0.28616 0.0
O1639 O 0.74926 0.89094 0.28826 0.0
O1640 O 0.7718 0.92559 0.29998 0.0
O1641 O 0.80304 0.01669 0.29586 0.0
O1642 O 0.79241 1.00214 0.30883 0.0
O1643 O 0.68195 0.86886 0.3046 0.0
O1644 O 0.74331 0.91726 0.30742 0.0
O1645 O 0.68301 0.93601 0.30143 0.0
O1646 O 0.66324 0.90279 0.28946 0.0
O1647 O 0.63215 0.80976 0.29519 0.0
O1648 O 0.64081 0.82345 0.28227 0.0
O1649 O 0.75597 0.96142 0.28671 0.0
O1650 O 0.69773 0.91244 0.28179 0.0
C1651 C 0.77707 0.90977 0.2935 0.0
C1652 C 0.7104 0.88864 0.30988 0.0
C1653 C 0.85377 0.05742 0.30563 0.0
C1654 C 0.92036 0.10474 0.30253 0.0
C1655 C 0.89749 0.09572 0.31647 0.0
C1656 C 0.86109 0.06748 0.31391 0.0
C1657 C 0.92705 0.11414 0.31083 0.0
C1658 C 0.88352 0.07657 0.29989 0.0
C1659 C 0.8161 0.02471 0.30331 0.0
C1660 C 0.67196 0.04778 0.30638 0.0
C1661 C 0.67283 0.03636 0.31441 0.0
H1662 H 0.67741 0.0674 0.29045 0.0
C1663 C 0.65716 0.91953 0.29564 0.0
C1664 C 0.73099 0.94528 0.28077 0.0
C1665 C 0.58124 0.76533 0.28546 0.0
C1666 C 0.52639 0.69943 0.28726 0.0
C1667 C 0.53258 0.73517 0.27487 0.0
C1668 C 0.56625 0.76648 0.27778 0.0
C1669 C 0.51289 0.70199 0.27954 0.0
C1670 C 0.56097 0.73135 0.29028 0.0
C1671 C 0.61909 0.79925 0.28781 0.0
H1672 H 0.9029 0.10313 0.32286 0.0
H1673 H 0.83876 0.05313 0.31846 0.0
H1674 H 0.95529 0.136 0.31293 0.0
H1675 H 0.87848 0.06897 0.29349 0.0
H1676 H 0.52168 0.73661 0.26892 0.0
H1677 H 0.5808 0.79175 0.27393 0.0
H1678 H 0.48666 0.67804 0.2771 0.0
H1679 H 0.57194 0.72965 0.2962 0.0
C1680 C 0.27362 0.94184 0.28067 0.0
C1681 C 0.3055 0.99534 0.29011 0.0
C1682 C 0.28301 0.95535 0.28864 0.0
C1683 C 0.31772 0.02132 0.28355 0.0
C1684 C 0.28627 0.96785 0.27407 0.0
C1685 C 0.3081 0.00763 0.27556 0.0
N1686 N 0.25069 0.90334 0.2794 0.0
C1687 C 0.24152 0.88862 0.27171 0.0
C1688 C 0.27616 0.95307 0.26616 0.0
C1689 C 0.25397 0.91326 0.26497 0.0
Gd1690 Gd 0.12369 0.82589 0.29934 0.0
Gd1691 Gd 0.2322 0.86423 0.29095 0.0
N1692 N 0.2698 0.92952 0.29491 0.0
C1693 C 0.31502 0.00814 0.29815 0.0
C1694 C 0.2806 0.94195 0.30273 0.0
C1695 C 0.30279 0.9813 0.30447 0.0
H1696 H 0.27338 0.92204 0.30769 0.0
H1697 H 0.31085 0.9909 0.31069 0.0
H1698 H 0.06795 0.77268 0.28411 0.0
H1699 H 0.22491 0.85786 0.27075 0.0
H1700 H 0.0235 0.70381 0.28104 0.0
H1701 H 0.33229 0.0386 0.29953 0.0
H1702 H 0.3347 0.05213 0.2846 0.0
H1703 H 0.13295 0.83297 0.31975 0.0
H1704 H 0.2855 0.97211 0.26092 0.0
H1705 H 0.2465 0.90154 0.25888 0.0
H1706 H 0.01411 0.63969 0.30644 0.0
H1707 H 0.31763 0.02807 0.27057 0.0
H1708 H 0.07932 0.71895 0.32957 0.0
H1709 H 0.1179 0.78967 0.33152 0.0
N1710 N 0.10778 0.78761 0.3111 0.0
C1711 C 0.084 0.74914 0.30999 0.0
C1712 C 0.11832 0.80234 0.31876 0.0
C1713 C 0.0869 0.73793 0.32435 0.0
C1714 C 0.10883 0.77779 0.32547 0.0
C1715 C 0.07338 0.72315 0.31656 0.0
H1716 H 0.04056 0.66306 0.32014 0.0
N1717 N 0.07858 0.76201 0.29621 0.0
C1718 C 0.06854 0.73596 0.30233 0.0
C1719 C 0.02709 0.68478 0.29314 0.0
C1720 C 0.04283 0.6965 0.30094 0.0
C1721 C 0.06177 0.75125 0.28874 0.0
C1722 C 0.03624 0.71239 0.28703 0.0
O1723 O 0.20285 0.89797 0.28759 0.0
O1724 O 0.17091 0.88778 0.29943 0.0
O1725 O 0.08081 0.83724 0.29375 0.0
O1726 O 0.08925 0.84078 0.30684 0.0
O1727 O 0.22501 0.85758 0.30501 0.0
O1728 O 0.17233 0.86501 0.30771 0.0
O1729 O 0.14 0.78055 0.2956 0.0
O1730 O 0.20241 0.81415 0.29941 0.0
O1731 O 0.29238 0.87938 0.29271 0.0
O1732 O 0.25564 0.83433 0.28403 0.0
O1733 O 0.13426 0.83823 0.286 0.0
O1734 O 0.18136 0.82369 0.28228 0.0
C1735 C 0.18489 0.90799 0.29282 0.0
C1736 C 0.20297 0.86383 0.31014 0.0
C1737 C 0.02852 0.82721 0.30222 0.0
C1738 C 0.97161 0.83296 0.3004 0.0
C1739 C 0.97101 0.78708 0.31014 0.0
C1740 C 1.00892 0.79823 0.30807 0.0
C1741 C 0.95235 0.80432 0.30632 0.0
C1742 C 1.00978 0.84453 0.29839 0.0
C1743 C 0.06969 0.84322 0.30079 0.0
C1744 C 0.03353 0.67024 0.30738 0.0
C1745 C 0.04872 0.68354 0.31518 0.0
H1746 H 1.0073 0.65468 0.29181 0.0
C1747 C 0.17276 0.78172 0.29716 0.0
C1748 C 0.14845 0.82364 0.28082 0.0
C1749 C 0.32247 0.8486 0.28511 0.0
C1750 C 0.38867 0.86114 0.28687 0.0
C1751 C 0.3487 0.82012 0.27587 0.0
C1752 C 0.3184 0.82536 0.27836 0.0
C1753 C 0.38352 0.83781 0.28008 0.0
C1754 C 0.35804 0.86674 0.2894 0.0
C1755 C 0.28979 0.8545 0.2873 0.0
H1756 H 0.95622 0.7654 0.31478 0.0
H1757 H 0.02321 0.785 0.3112 0.0
H1758 H 0.92308 0.7958 0.30807 0.0
H1759 H 0.02504 0.86742 0.29398 0.0
H1760 H 0.34524 0.80239 0.27061 0.0
H1761 H 0.29181 0.81148 0.2749 0.0
H1762 H 0.40674 0.83345 0.278 0.0
H1763 H 0.36197 0.8851 0.29458 0.0
C1764 C 0.70587 0.81102 0.90157 0.0
C1765 C 0.68687 0.75889 0.89185 0.0
C1766 C 0.70258 0.79853 0.89354 0.0
C1767 C 0.67435 0.7322 0.89828 0.0
C1768 C 0.69317 0.78424 0.90803 0.0
C1769 C 0.67754 0.74483 0.90634 0.0
N1770 N 0.72015 0.84919 0.90303 0.0
C1771 C 0.72298 0.86262 0.91079 0.0
C1772 C 0.69605 0.7978 0.91601 0.0
C1773 C 0.71101 0.83716 0.91738 0.0
Gd1774 Gd 0.67749 0.92934 0.88144 0.0
Gd1775 Gd 0.74173 0.88986 0.89166 0.0
N1776 N 0.71441 0.82503 0.88741 0.0
C1777 C 0.68451 0.74721 0.88375 0.0
C1778 C 0.71458 0.81384 0.87956 0.0
C1779 C 0.69885 0.77486 0.87759 0.0
H1780 H 0.72811 0.83452 0.87479 0.0
H1781 H 0.6986 0.76627 0.87133 0.0
H1782 H 0.69376 0.98945 0.89726 0.0
H1783 H 0.73532 0.8931 0.91193 0.0
H1784 H 0.72287 0.05888 0.8997 0.0
H1785 H 0.67262 0.71705 0.8822 0.0
H1786 H 0.66222 0.70168 0.89708 0.0
H1787 H 0.67754 0.91785 0.86124 0.0
H1788 H 0.68669 0.77814 0.92113 0.0
H1789 H 0.71351 0.84794 0.92353 0.0
H1790 H 0.7582 0.11459 0.87303 0.0
H1791 H 0.66766 0.72386 0.91123 0.0
H1792 H 0.73083 0.02973 0.85028 0.0
H1793 H 0.70015 0.95885 0.84896 0.0
N1794 N 0.69779 0.96515 0.86942 0.0
C1795 C 0.7134 1.00389 0.87029 0.0
C1796 C 0.69228 0.94881 0.86189 0.0
C1797 C 0.72156 0.01189 0.8557 0.0
C1798 C 0.70441 0.97192 0.85492 0.0
C1799 C 0.72595 0.02835 0.86343 0.0
H1800 H 0.75208 0.08754 0.8593 0.0
N1801 N 0.7053 0.99498 0.8846 0.0
C1802 C 0.71696 0.0192 0.87807 0.0
C1803 C 0.73577 0.07368 0.88703 0.0
C1804 C 0.733 0.05929 0.87914 0.0
C1805 C 0.70616 0.00869 0.89224 0.0
C1806 C 0.72194 0.04819 0.89359 0.0
O1807 O 0.67758 0.85348 0.89356 0.0
O1808 O 0.65473 0.86508 0.88176 0.0
O1809 O 0.62549 0.92891 0.88615 0.0
O1810 O 0.6319 0.91889 0.87324 0.0
O1811 O 0.74668 0.90117 0.87764 0.0
O1812 O 0.68517 0.88625 0.87431 0.0
O1813 O 0.74336 0.96771 0.8805 0.0
O1814 O 0.76153 0.95255 0.89241 0.0
O1815 O 0.79457 0.89076 0.88713 0.0
O1816 O 0.787 0.899 0.89996 0.0
O1817 O 0.6693 0.91679 0.89488 0.0
O1818 O 0.72705 0.92714 0.90027 0.0
C1819 C 0.64983 0.84406 0.88827 0.0
C1820 C 0.71905 0.89212 0.87215 0.0
C1821 C 0.57456 0.92017 0.8765 0.0
C1822 C 0.50879 0.90414 0.87936 0.0
C1823 C 0.53609 0.92747 0.86598 0.0
C1824 C 0.57059 0.93039 0.86852 0.0
C1825 C 0.50528 0.91433 0.87136 0.0
C1826 C 0.54355 0.90716 0.88198 0.0
C1827 C 0.6108 0.92208 0.87883 0.0
C1828 C 0.74571 0.08371 0.87232 0.0
C1829 C 0.74224 0.0683 0.8645 0.0
H1830 H 0.74791 0.10429 0.8881 0.0
C1831 C 0.76992 0.97448 0.88601 0.0
C1832 C 0.69349 0.92642 0.901 0.0
C1833 C 0.84603 0.89916 0.89681 0.0
C1834 C 0.90159 0.88975 0.89465 0.0
C1835 C 0.89389 0.91532 0.90749 0.0
C1836 C 0.8602 0.91322 0.90466 0.0
C1837 C 0.91436 0.90369 0.90255 0.0
C1838 C 0.86697 0.88719 0.89175 0.0
C1839 C 0.80819 0.8951 0.8945 0.0
H1840 H 0.53317 0.93521 0.85981 0.0
H1841 H 0.59418 0.94057 0.86421 0.0
H1842 H 0.47847 0.9119 0.86928 0.0
H1843 H 0.54614 0.89885 0.88813 0.0
H1844 H 0.90416 0.92596 0.91356 0.0
H1845 H 0.84499 0.9224 0.90871 0.0
H1846 H 0.94052 0.90562 0.90493 0.0
H1847 H 0.85651 0.87598 0.88571 0.0
C1848 C 0.27856 0.93336 0.90136 0.0
C1849 C 0.33067 0.96637 0.89164 0.0
C1850 C 0.29101 0.94282 0.89334 0.0
C1851 C 0.35743 0.9799 0.89806 0.0
C1852 C 0.30541 0.94682 0.90782 0.0
C1853 C 0.34484 0.9702 0.90612 0.0
N1854 N 0.24034 0.90969 0.90283 0.0
C1855 C 0.22695 0.89901 0.91058 0.0
C1856 C 0.29187 0.9359 0.91578 0.0
C1857 C 0.25248 0.91193 0.91717 0.0
Gd1858 Gd 0.16151 0.78777 0.88152 0.0
Gd1859 Gd 0.19964 0.89149 0.89145 0.0
N1860 N 0.26446 0.92862 0.88721 0.0
C1861 C 0.34231 0.97592 0.88354 0.0
C1862 C 0.27563 0.94012 0.87937 0.0
C1863 C 0.31461 0.96311 0.8774 0.0
H1864 H 0.25487 0.93315 0.87461 0.0
H1865 H 0.3232 0.97159 0.87114 0.0
H1866 H 0.10469 0.73993 0.89755 0.0
H1867 H 0.19646 0.88121 0.91174 0.0
H1868 H 0.03578 0.70083 0.90063 0.0
H1869 H 0.37248 0.99393 0.88199 0.0
H1870 H 0.38797 0.99796 0.89686 0.0
H1871 H 0.16931 0.79688 0.86126 0.0
H1872 H 0.31159 0.94573 0.9209 0.0
H1873 H 0.24172 0.90352 0.92331 0.0
H1874 H 0.97485 0.68202 0.87457 0.0
H1875 H 0.36586 0.98078 0.911 0.0
H1876 H 0.05574 0.73614 0.85115 0.0
H1877 H 0.12632 0.7762 0.84929 0.0
N1878 N 0.12345 0.77036 0.86979 0.0
C1879 C 0.08491 0.74742 0.87096 0.0
C1880 C 0.13849 0.78036 0.86214 0.0
C1881 C 0.07446 0.74554 0.85643 0.0
C1882 C 0.11426 0.76824 0.85535 0.0
C1883 C 0.05931 0.73471 0.8643 0.0
H1884 H 0.99945 0.70143 0.86063 0.0
N1885 N 0.09654 0.7486 0.88516 0.0
C1886 C 0.07103 0.73637 0.87885 0.0
C1887 C 0.01837 0.70053 0.88821 0.0
C1888 C 0.03119 0.71239 0.88023 0.0
C1889 C 0.08441 0.73463 0.89281 0.0
C1890 C 0.0452 0.71124 0.8945 0.0
O1891 O 0.23588 0.86341 0.89348 0.0
O1892 O 0.22507 0.83081 0.88153 0.0
O1893 O 0.16575 0.73811 0.88614 0.0
O1894 O 0.17246 0.75341 0.87319 0.0
O1895 O 0.18816 0.88503 0.87742 0.0
O1896 O 0.20295 0.83828 0.87407 0.0
O1897 O 0.12323 0.8151 0.88037 0.0
O1898 O 0.13596 0.8511 0.89203 0.0
O1899 O 0.20132 0.94487 0.88703 0.0
O1900 O 0.19105 0.92783 0.89979 0.0
O1901 O 0.17363 0.79305 0.895 0.0
O1902 O 0.16157 0.83996 0.90001 0.0
C1903 C 0.24596 0.84617 0.88806 0.0
C1904 C 0.19662 0.86605 0.8719 0.0
C1905 C 0.17741 0.69786 0.87649 0.0
C1906 C 0.19361 0.64851 0.87973 0.0
C1907 C 0.18166 0.6585 0.86572 0.0
C1908 C 0.17485 0.68776 0.86821 0.0
C1909 C 0.19107 0.63899 0.87144 0.0
C1910 C 0.18667 0.67793 0.8823 0.0
C1911 C 0.17199 0.7303 0.87877 0.0
C1912 C 1.00556 0.70036 0.87362 0.0
C1913 C 0.01957 0.71138 0.86568 0.0
H1914 H 0.98799 0.68214 0.88952 0.0
C1915 C 0.11402 0.83341 0.88578 0.0
C1916 C 0.16303 0.80765 0.90096 0.0
C1917 C 0.19449 0.98861 0.8968 0.0
C1918 C 0.20456 0.05362 0.8944 0.0
C1919 C 0.18558 0.0243 0.90778 0.0
C1920 C 0.18521 0.9914 0.90494 0.0
C1921 C 0.19517 0.05514 0.90257 0.0
C1922 C 0.2043 0.02016 0.89147 0.0
C1923 C 0.19666 0.95385 0.89441 0.0
H1924 H 0.1798 0.65106 0.85934 0.0
H1925 H 0.16777 0.70264 0.86361 0.0
H1926 H 0.19648 0.61637 0.86941 0.0
H1927 H 0.18906 0.68555 0.88869 0.0
H1928 H 0.17857 0.02598 0.91408 0.0
H1929 H 0.17802 0.96819 0.90923 0.0
H1930 H 0.19531 0.08049 0.90493 0.0
H1931 H 0.21201 0.01895 0.8852 0.0
C1932 C 0.15312 0.38056 0.90154 0.0
C1933 C 0.11796 0.39731 0.89188 0.0
C1934 C 0.14339 0.38333 0.89353 0.0
C1935 C 0.10283 0.40863 0.89834 0.0
C1936 C 0.13829 0.39232 0.90803 0.0
C1937 C 0.11296 0.40615 0.90639 0.0
N1938 N 0.17835 0.36788 0.90297 0.0
C1939 C 0.18968 0.36586 0.91071 0.0
C1940 C 0.14981 0.39037 0.91598 0.0
C1941 C 0.17566 0.37715 0.91732 0.0
Gd1942 Gd 0.30194 0.41267 0.88175 0.0
Gd1943 Gd 0.19752 0.3466 0.89157 0.0
N1944 N 0.15897 0.3727 0.88737 0.0
C1945 C 0.10814 0.39917 0.88379 0.0
C1946 C 0.14745 0.37224 0.87952 0.0
C1947 C 0.12267 0.38622 0.8776 0.0
H1948 H 0.15569 0.35974 0.87472 0.0
H1949 H 0.11409 0.38617 0.87134 0.0
H1950 H 0.34988 0.40466 0.89782 0.0
H1951 H 0.20878 0.35464 0.91183 0.0
H1952 H 0.38951 0.37541 0.90101 0.0
H1953 H 0.08867 0.40967 0.88228 0.0
H1954 H 0.08324 0.41936 0.89717 0.0
H1955 H 0.29341 0.4115 0.86148 0.0
H1956 H 0.13903 0.39913 0.92113 0.0
H1957 H 0.18459 0.37536 0.92345 0.0
H1958 H 0.40877 0.33278 0.87505 0.0
H1959 H 0.10121 0.41521 0.9113 0.0
H1960 H 0.35434 0.35849 0.85152 0.0
H1961 H 0.31432 0.38902 0.84956 0.0
N1962 N 0.31961 0.39204 0.87007 0.0
C1963 C 0.34277 0.37669 0.87129 0.0
C1964 C 0.3099 0.39716 0.8624 0.0
C1965 C 0.34485 0.36789 0.85677 0.0
C1966 C 0.32216 0.38498 0.85564 0.0
C1967 C 0.35565 0.36378 0.86466 0.0
H1968 H 0.38922 0.33736 0.86108 0.0
N1969 N 0.34115 0.3871 0.88548 0.0
C1970 C 0.35379 0.37408 0.8792 0.0
C1971 C 0.38989 0.35788 0.88862 0.0
C1972 C 0.37805 0.35857 0.88063 0.0
C1973 C 0.35524 0.38943 0.89313 0.0
C1974 C 0.37895 0.37401 0.89488 0.0
O1975 O 0.22415 0.41058 0.89359 0.0
O1976 O 0.2595 0.4342 0.88194 0.0
O1977 O 0.35237 0.46583 0.88641 0.0
O1978 O 0.33646 0.45821 0.87348 0.0
O1979 O 0.20462 0.3426 0.87756 0.0
O1980 O 0.2517 0.40422 0.87425 0.0
O1981 O 0.2749 0.34684 0.88049 0.0
O1982 O 0.241 0.32759 0.8923 0.0
O1983 O 0.14618 0.29342 0.88699 0.0
O1984 O 0.16136 0.3014 0.89987 0.0
O1985 O 0.29609 0.41954 0.89524 0.0
O1986 O 0.24914 0.36017 0.90008 0.0
C1987 C 0.24305 0.43876 0.88842 0.0
C1988 C 0.22355 0.3703 0.8721 0.0
C1989 C 0.39357 0.51724 0.87675 0.0
C1990 C 0.44338 0.58272 0.87986 0.0
C1991 C 0.43682 0.55815 0.86612 0.0
C1992 C 0.40609 0.52297 0.86861 0.0
C1993 C 0.45538 0.58794 0.87171 0.0
C1994 C 0.41246 0.54727 0.88243 0.0
C1995 C 0.36027 0.48008 0.87905 0.0
C1996 C 0.39027 0.34494 0.87406 0.0
C1997 C 0.37916 0.34759 0.8661 0.0
H1998 H 0.40854 0.34622 0.88998 0.0
C1999 C 0.25497 0.31978 0.88589 0.0
C2000 C 0.2811 0.3941 0.90114 0.0
C2001 C 0.10264 0.24239 0.89667 0.0
C2002 C 0.03749 0.18769 0.89438 0.0
C2003 C 0.0687 0.19599 0.90748 0.0
C2004 C 0.10112 0.22902 0.90466 0.0
C2005 C 0.03715 0.17553 0.9024 0.0
C2006 C 0.07043 0.22139 0.89146 0.0
C2007 C 0.13651 0.2801 0.89438 0.0
H2008 H 0.44617 0.56237 0.85983 0.0
H2009 H 0.39206 0.50021 0.86413 0.0
H2010 H 0.47913 0.61528 0.86966 0.0
H2011 H 0.40295 0.54338 0.88872 0.0
H2012 H 0.06794 0.18634 0.91367 0.0
H2013 H 0.12493 0.24445 0.90884 0.0
H2014 H 0.01217 0.14994 0.90475 0.0
H2015 H 0.07068 0.23138 0.88532 0.0
C2016 C 0.75094 0.70813 0.70392 0.0
C2017 C 0.69704 0.69117 0.71304 0.0
C2018 C 0.73685 0.70665 0.71175 0.0
C2019 C 0.67155 0.67624 0.70642 0.0
C2020 C 0.72551 0.69383 0.69725 0.0
C2021 C 0.68574 0.67756 0.69855 0.0
N2022 N 0.78954 0.72368 0.70285 0.0
C2023 C 0.80481 0.72793 0.69524 0.0
C2024 C 0.74089 0.69668 0.68944 0.0
C2025 C 0.78076 0.71415 0.68843 0.0
Gd2026 Gd 0.86272 0.67791 0.72434 0.0
Gd2027 Gd 0.82703 0.74559 0.71465 0.0
N2028 N 0.76216 0.72078 0.71808 0.0
C2029 C 0.68412 0.69191 0.72093 0.0
C2030 C 0.75008 0.7243 0.72561 0.0
C2031 C 0.71086 0.70917 0.72721 0.0
H2032 H 0.77055 0.74007 0.73031 0.0
H2033 H 0.70139 0.71153 0.73325 0.0
H2034 H 0.91929 0.692 0.70769 0.0
H2035 H 0.83562 0.74303 0.69439 0.0
H2036 H 0.98801 0.7249 0.70435 0.0
H2037 H 0.65375 0.68041 0.72217 0.0
H2038 H 0.64082 0.66407 0.7073 0.0
H2039 H 0.85756 0.6764 0.74457 0.0
H2040 H 0.72229 0.68611 0.68415 0.0
H2041 H 0.79301 0.71739 0.68241 0.0
H2042 H 0.05119 0.76277 0.73027 0.0
H2043 H 0.66572 0.66629 0.69349 0.0
H2044 H 0.97225 0.72988 0.75418 0.0
H2045 H 0.9018 0.69814 0.75637 0.0
N2046 N 0.90258 0.69552 0.73584 0.0
C2047 C 0.9411 0.71214 0.7345 0.0
C2048 C 0.88828 0.69023 0.74356 0.0
C2049 C 0.95298 0.72019 0.74899 0.0
C2050 C 0.91323 0.70237 0.75025 0.0
C2051 C 0.96741 0.72538 0.74104 0.0
H2052 H 0.02782 0.75429 0.7444 0.0
N2053 N 0.92795 0.70462 0.72037 0.0
C2054 C 0.95421 0.71701 0.72653 0.0
C2055 C 1.00631 0.73883 0.71682 0.0
C2056 C 0.9941 0.73505 0.72491 0.0
C2057 C 0.93972 0.70568 0.71252 0.0
C2058 C 0.97894 0.72348 0.71061 0.0
O2059 O 0.78797 0.67963 0.71345 0.0
O2060 O 0.80112 0.66142 0.7255 0.0
O2061 O 0.86192 0.62667 0.71934 0.0
O2062 O 0.84363 0.62653 0.73166 0.0
O2063 O 0.83771 0.75232 0.72824 0.0
O2064 O 0.82686 0.69329 0.73312 0.0
O2065 O 0.89959 0.74176 0.72682 0.0
O2066 O 0.89101 0.76689 0.71502 0.0
O2067 O 0.83105 0.79942 0.71915 0.0
O2068 O 0.83695 0.79029 0.70618 0.0
O2069 O 0.85232 0.67541 0.71029 0.0
O2070 O 0.86987 0.73799 0.70745 0.0
C2071 C 0.77856 0.65392 0.71927 0.0
C2072 C 0.82806 0.72693 0.73414 0.0
C2073 C 0.87198 0.58781 0.72902 0.0
C2074 C 0.88712 0.53572 0.72775 0.0
C2075 C 0.90799 0.57718 0.73966 0.0
C2076 C 0.89149 0.59796 0.73654 0.0
C2077 C 0.90578 0.54627 0.73531 0.0
C2078 C 0.86995 0.55645 0.7246 0.0
C2079 C 0.85129 0.60786 0.72619 0.0
C2080 C 0.02045 0.74861 0.73141 0.0
C2081 C 1.00715 0.74372 0.73945 0.0
H2082 H 0.03668 0.75263 0.71532 0.0
C2083 C 0.91188 0.76932 0.7214 0.0
C2084 C 0.86346 0.70426 0.70502 0.0
C2085 C 0.84057 0.85026 0.70945 0.0
C2086 C 0.85701 0.91591 0.7126 0.0
C2087 C 0.83848 0.89149 0.69886 0.0
C2088 C 0.83375 0.85615 0.70132 0.0
C2089 C 0.85011 0.92129 0.70446 0.0
C2090 C 0.85213 0.8803 0.71514 0.0
C2091 C 0.83629 0.81292 0.71175 0.0
H2092 H 0.92232 0.58488 0.74551 0.0
H2093 H 0.89341 0.62152 0.74012 0.0
H2094 H 0.91854 0.53031 0.73789 0.0
H2095 H 0.85476 0.54795 0.71883 0.0
H2096 H 0.83327 0.89583 0.69258 0.0
H2097 H 0.82474 0.83338 0.69684 0.0
H2098 H 0.85394 0.94878 0.70244 0.0
H2099 H 0.85783 0.8763 0.72142 0.0
C2100 C 0.38336 0.08321 0.70396 0.0
C2101 C 0.40421 0.04839 0.71281 0.0
C2102 C 0.38733 0.07165 0.71175 0.0
C2103 C 0.41839 0.03816 0.70601 0.0
C2104 C 0.39696 0.07239 0.69712 0.0
C2105 C 0.41494 0.05026 0.6982 0.0
N2106 N 0.36533 0.10415 0.70307 0.0
C2107 C 0.35799 0.11326 0.69552 0.0
C2108 C 0.39142 0.08351 0.68937 0.0
C2109 C 0.37151 0.10371 0.68857 0.0
Gd2110 Gd 0.40515 0.22441 0.72432 0.0
Gd2111 Gd 0.34449 0.1184 0.71516 0.0
N2112 N 0.37425 0.08277 0.71827 0.0
C2113 C 0.40572 0.03556 0.72067 0.0
C2114 C 0.37309 0.06812 0.72581 0.0
C2115 C 0.38949 0.04495 0.72717 0.0
H2116 H 0.35811 0.07281 0.73068 0.0
H2117 H 0.38886 0.03371 0.7332 0.0
H2118 H 0.38894 0.26327 0.70741 0.0
H2119 H 0.34074 0.12686 0.69483 0.0
H2120 H 0.35554 0.29836 0.70381 0.0
H2121 H 0.41824 0.01741 0.72173 0.0
H2122 H 0.43169 0.02049 0.70671 0.0
H2123 H 0.40134 0.2172 0.74468 0.0
H2124 H 0.40153 0.0758 0.68396 0.0
H2125 H 0.36604 0.11139 0.6826 0.0
H2126 H 0.31183 0.31993 0.72936 0.0
H2127 H 0.42567 0.04175 0.69301 0.0
H2128 H 0.34197 0.27372 0.75359 0.0
H2129 H 0.37561 0.23711 0.75617 0.0
N2130 N 0.38108 0.24094 0.73565 0.0
C2131 C 0.36305 0.26138 0.73408 0.0
C2132 C 0.38581 0.23226 0.74346 0.0
C2133 C 0.35279 0.26464 0.7485 0.0
C2134 C 0.37167 0.24389 0.74999 0.0
C2135 C 0.34831 0.27369 0.74049 0.0
H2136 H 0.31823 0.30438 0.74355 0.0
N2137 N 0.37332 0.25724 0.71994 0.0
C2138 C 0.3591 0.2698 0.72602 0.0
C2139 C 0.3387 0.30073 0.71614 0.0
C2140 C 0.34087 0.29136 0.72425 0.0
C2141 C 0.37368 0.26877 0.7121 0.0
C2142 C 0.35565 0.28985 0.71006 0.0
O2143 O 0.41103 0.14829 0.71464 0.0
O2144 O 0.43209 0.18791 0.72581 0.0
O2145 O 0.4568 0.27293 0.71886 0.0
O2146 O 0.44661 0.27162 0.73178 0.0
O2147 O 0.34003 0.12452 0.72871 0.0
O2148 O 0.39766 0.17606 0.73327 0.0
O2149 O 0.34097 0.19048 0.72648 0.0
O2150 O 0.31722 0.15616 0.71471 0.0
O2151 O 0.29293 0.07201 0.72088 0.0
O2152 O 0.30197 0.07133 0.70792 0.0
O2153 O 0.40805 0.21546 0.71035 0.0
O2154 O 0.3476 0.16537 0.70729 0.0
C2155 C 0.43852 0.17037 0.71983 0.0
C2156 C 0.36603 0.14185 0.73443 0.0
C2157 C 0.51012 0.31671 0.72735 0.0
C2158 C 0.56866 0.38023 0.72628 0.0
C2159 C 0.56726 0.33088 0.73514 0.0
C2160 C 0.52905 0.30549 0.73297 0.0
C2161 C 0.5869 0.36796 0.73184 0.0
C2162 C 0.53011 0.35438 0.72401 0.0
C2163 C 0.46841 0.29146 0.72574 0.0
C2164 C 0.32599 0.30346 0.73062 0.0
C2165 C 0.3297 0.29466 0.73871 0.0
H2166 H 0.32496 0.31727 0.71454 0.0
C2167 C 0.31409 0.17498 0.72094 0.0
C2168 C 0.38012 0.19533 0.70501 0.0
C2169 C 0.23778 0.04197 0.7124 0.0
C2170 C 0.17017 0.99428 0.71431 0.0
C2171 C 0.18851 0.04687 0.70475 0.0
C2172 C 0.22723 0.06125 0.70669 0.0
C2173 C 0.16007 0.01356 0.70854 0.0
C2174 C 0.2091 0.00843 0.71621 0.0
C2175 C 0.27853 0.05481 0.71397 0.0
H2176 H 0.5815 0.32205 0.73953 0.0
H2177 H 0.514 0.27744 0.73585 0.0
H2178 H 0.61629 0.38746 0.73375 0.0
H2179 H 0.51545 0.36389 0.71987 0.0
H2180 H 0.18054 0.06137 0.70024 0.0
H2181 H 0.24893 0.08699 0.70364 0.0
H2182 H 0.13016 1.00242 0.70688 0.0
H2183 H 0.21702 0.99312 0.72054 0.0
C2184 C 1.00527 0.33972 0.70392 0.0
C2185 C 0.04066 0.39481 0.7129 0.0
C2186 C 0.01687 0.35478 0.71177 0.0
C2187 C 0.05195 0.41952 0.70613 0.0
C2188 C 0.01678 0.36453 0.69713 0.0
C2189 C 0.03996 0.40446 0.69829 0.0
N2190 N 0.98334 0.30087 0.70292 0.0
C2191 C 0.9732 0.28489 0.69534 0.0
C2192 C 1.00518 0.34841 0.68935 0.0
C2193 C 0.98346 0.30841 0.68845 0.0
Gd2194 Gd 0.86622 0.22221 0.72487 0.0
Gd2195 Gd 0.9706 0.26508 0.71486 0.0
N2196 N 1.00522 0.33029 0.71827 0.0
C2197 C 0.05311 0.40881 0.72079 0.0
C2198 C 0.01891 0.34356 0.72588 0.0
C2199 C 0.04251 0.38301 0.72729 0.0
H2200 H 0.01307 0.32396 0.73082 0.0
H2201 H 0.05315 0.3934 0.73336 0.0
H2202 H 0.82473 0.16712 0.70802 0.0
H2203 H 0.95865 0.25401 0.69459 0.0
H2204 H 0.78571 0.09887 0.70454 0.0
H2205 H 0.07169 0.43937 0.72189 0.0
H2206 H 0.07027 0.45037 0.70689 0.0
H2207 H 0.87558 0.22532 0.74519 0.0
H2208 H 0.0135 0.36656 0.68398 0.0
H2209 H 0.97526 0.29564 0.68245 0.0
H2210 H 0.75783 0.034 0.73026 0.0
H2211 H 0.04919 0.42396 0.69313 0.0
H2212 H 0.80947 0.11031 0.75434 0.0
H2213 H 0.8521 0.18012 0.75676 0.0
N2214 N 0.8475 0.18144 0.73624 0.0
C2215 C 0.82381 0.14326 0.73477 0.0
C2216 C 0.85776 0.19483 0.74402 0.0
C2217 C 0.81996 0.12998 0.74921 0.0
C2218 C 0.84414 0.16935 0.75061 0.0
C2219 C 0.80958 0.11645 0.74123 0.0
H2220 H 0.77456 0.05608 0.74442 0.0
N2221 N 0.829 0.1574 0.72063 0.0
C2222 C 0.81454 0.13084 0.72675 0.0
C2223 C 0.78096 0.07965 0.71695 0.0
C2224 C 0.7905 0.09124 0.72505 0.0
C2225 C 0.81753 0.14633 0.71279 0.0
C2226 C 0.79419 0.10738 0.7108 0.0
O2227 O 0.94043 0.3012 0.71426 0.0
O2228 O 0.90827 0.28457 0.72623 0.0
O2229 O 0.81503 0.22459 0.72023 0.0
O2230 O 0.82861 0.22888 0.73315 0.0
O2231 O 0.96635 0.25156 0.72823 0.0
O2232 O 0.91741 0.25949 0.7336 0.0
O2233 O 0.89498 0.18661 0.72641 0.0
O2234 O 0.93241 0.20006 0.71488 0.0
O2235 O 0.02016 0.26222 0.71973 0.0
O2236 O 0.01456 0.26877 0.70682 0.0
O2237 O 0.87326 0.23356 0.71084 0.0
O2238 O 0.92168 0.22094 0.70749 0.0
C2239 C 0.92129 0.30745 0.71999 0.0
C2240 C 0.95049 0.25935 0.73439 0.0
C2241 C 0.77021 0.22978 0.73005 0.0
C2242 C 0.70543 0.22061 0.7278 0.0
C2243 C 0.73554 0.23974 0.7411 0.0
C2244 C 0.76802 0.23955 0.73819 0.0
C2245 C 0.70452 0.23034 0.73597 0.0
C2246 C 0.73847 0.22023 0.72479 0.0
C2247 C 0.80445 0.22665 0.72764 0.0
C2248 C 0.77631 0.0645 0.73147 0.0
C2249 C 0.78577 0.07707 0.73953 0.0
H2250 H 0.76259 0.04953 0.71539 0.0
C2251 C 0.91383 0.17773 0.72112 0.0
C2252 C 0.89214 0.22457 0.70538 0.0
C2253 C 0.05286 0.24168 0.71048 0.0
C2254 C 0.10396 0.22683 0.71292 0.0
C2255 C 0.06753 0.20662 0.70033 0.0
C2256 C 0.04554 0.22276 0.7029 0.0
C2257 C 0.09673 0.20881 0.70528 0.0
C2258 C 0.08204 0.2433 0.71553 0.0
C2259 C 0.03487 0.26499 0.7125 0.0
H2260 H 0.73432 0.24703 0.7474 0.0
H2261 H 0.7914 0.24667 0.74242 0.0
H2262 H 0.67949 0.2306 0.7384 0.0
H2263 H 0.73919 0.21215 0.71852 0.0
H2264 H 0.06239 0.19302 0.69441 0.0
H2265 H 0.02373 0.22154 0.69882 0.0
H2266 H 0.11405 0.19673 0.70313 0.0
H2267 H 0.0886 0.25844 0.72131 0.0
C2268 C 0.37594 0.07896 0.1436 0.0
C2269 C 0.35762 0.02615 0.13408 0.0
C2270 C 0.37421 0.06593 0.13565 0.0
C2271 C 0.34201 0.99972 0.14053 0.0
C2272 C 0.36073 0.05252 0.1501 0.0
C2273 C 0.34355 0.01286 0.14851 0.0
N2274 N 0.3923 0.11748 0.14496 0.0
C2275 C 0.39625 0.13161 0.15267 0.0
C2276 C 0.36344 0.06678 0.15801 0.0
C2277 C 0.38156 0.10654 0.1593 0.0
Gd2278 Gd 0.35191 0.19741 0.12393 0.0
Gd2279 Gd 0.41638 0.15674 0.13347 0.0
N2280 N 0.38903 0.09214 0.12948 0.0
C2281 C 0.35783 0.01414 0.12608 0.0
C2282 C 0.39191 0.08076 0.12183 0.0
C2283 C 0.37563 0.04164 0.11995 0.0
H2284 H 0.40811 0.10158 0.11724 0.0
H2285 H 0.37756 0.03279 0.11383 0.0
H2286 H 0.36593 0.25332 0.14071 0.0
H2287 H 0.41196 0.16222 0.15372 0.0
H2288 H 0.39229 0.32144 0.14393 0.0
H2289 H 0.34547 0.98383 0.12463 0.0
H2290 H 0.32903 0.96904 0.13943 0.0
H2291 H 0.35679 0.19308 0.10361 0.0
H2292 H 0.35218 0.04739 0.16316 0.0
H2293 H 0.38467 0.11792 0.16541 0.0
H2294 H 0.42387 0.38428 0.11796 0.0
H2295 H 0.33163 0.9921 0.15343 0.0
H2296 H 0.40144 0.30704 0.09413 0.0
H2297 H 0.37685 0.23748 0.09191 0.0
N2298 N 0.37124 0.23725 0.11242 0.0
C2299 C 0.38438 0.2753 0.11378 0.0
C2300 C 0.36837 0.2235 0.10469 0.0
C2301 C 0.39299 0.28772 0.0993 0.0
C2302 C 0.37927 0.24851 0.09803 0.0
C2303 C 0.39573 0.3016 0.10724 0.0
H2304 H 0.41866 0.36147 0.10387 0.0
N2305 N 0.37766 0.26227 0.12798 0.0
C2306 C 0.38782 0.2882 0.12178 0.0
C2307 C 0.40438 0.33977 0.13143 0.0
C2308 C 0.40197 0.3277 0.12336 0.0
C2309 C 0.37784 0.27375 0.13583 0.0
C2310 C 0.39188 0.3126 0.13768 0.0
O2311 O 0.35024 0.12051 0.1348 0.0
O2312 O 0.3334 0.13528 0.12278 0.0
O2313 O 0.2979 0.19159 0.12912 0.0
O2314 O 0.30583 0.18983 0.11602 0.0
O2315 O 0.42462 0.17096 0.12011 0.0
O2316 O 0.36604 0.1602 0.11516 0.0
O2317 O 0.41582 0.2352 0.12196 0.0
O2318 O 0.44158 0.22152 0.13311 0.0
O2319 O 0.46841 0.15695 0.12903 0.0
O2320 O 0.46043 0.16468 0.14198 0.0
O2321 O 0.35036 0.18815 0.13805 0.0
O2322 O 0.41182 0.20109 0.14077 0.0
C2323 C 0.32409 0.11327 0.12916 0.0
C2324 C 0.39988 0.16181 0.11412 0.0
C2325 C 0.24461 0.18259 0.11996 0.0
C2326 C 0.19025 0.19408 0.12182 0.0
C2327 C 0.19044 0.15483 0.11056 0.0
C2328 C 0.22599 0.16021 0.11306 0.0
C2329 C 0.17274 0.17161 0.11488 0.0
C2330 C 0.2265 0.19963 0.1244 0.0
C2331 C 0.28395 0.18973 0.12185 0.0
C2332 C 0.41295 0.35387 0.11685 0.0
C2333 C 0.40988 0.34088 0.10882 0.0
H2334 H 0.415 0.36982 0.13289 0.0
C2335 C 0.44467 0.24362 0.12689 0.0
C2336 C 0.37925 0.19754 0.14326 0.0
C2337 C 0.51865 0.16452 0.13867 0.0
C2338 C 0.58431 0.18041 0.13564 0.0
C2339 C 0.55804 0.15842 0.14915 0.0
C2340 C 0.52333 0.15523 0.14668 0.0
C2341 C 0.58843 0.17101 0.14366 0.0
C2342 C 0.54929 0.17705 0.13309 0.0
C2343 C 0.48217 0.16233 0.13641 0.0
H2344 H 0.17667 0.13779 0.10519 0.0
H2345 H 0.23918 0.14705 0.10952 0.0
H2346 H 0.14525 0.16732 0.11275 0.0
H2347 H 0.24069 0.21757 0.12965 0.0
H2348 H 0.56147 0.15136 0.15534 0.0
H2349 H 0.50012 0.14555 0.15107 0.0
H2350 H 0.61543 0.17373 0.1457 0.0
H2351 H 0.54626 0.1848 0.12692 0.0
C2352 C 0.01106 0.33569 0.14389 0.0
C2353 C 0.06401 0.37145 0.1345 0.0
C2354 C 0.02423 0.34813 0.13601 0.0
C2355 C 0.09032 0.38086 0.14094 0.0
C2356 C 0.03731 0.34568 0.15039 0.0
C2357 C 0.07702 0.36798 0.14885 0.0
N2358 N 0.97249 0.31393 0.1452 0.0
C2359 C 0.95815 0.30321 0.15288 0.0
C2360 C 0.02283 0.33329 0.15826 0.0
C2361 C 0.98303 0.31227 0.15951 0.0
Gd2362 Gd 0.89357 0.19535 0.12405 0.0
Gd2363 Gd 0.93344 0.29974 0.13369 0.0
N2364 N 0.99809 0.33826 0.12987 0.0
C2365 C 0.07609 0.38545 0.1266 0.0
C2366 C 1.0095 0.35456 0.12236 0.0
C2367 C 0.04864 0.37755 0.12054 0.0
H2368 H 0.98864 0.35139 0.11788 0.0
H2369 H 0.05755 0.38986 0.11452 0.0
H2370 H 0.83806 0.15255 0.14087 0.0
H2371 H 0.92754 0.2888 0.15391 0.0
H2372 H 0.76977 0.11468 0.14431 0.0
H2373 H 0.10641 0.40357 0.12519 0.0
H2374 H 0.12101 0.39861 0.13988 0.0
H2375 H 0.89683 0.20547 0.10379 0.0
H2376 H 0.04208 0.34044 0.16342 0.0
H2377 H 0.97148 0.30345 0.16559 0.0
H2378 H 0.70513 0.08959 0.11861 0.0
H2379 H 0.09766 0.37588 0.15377 0.0
H2380 H 0.78172 0.14141 0.09458 0.0
H2381 H 0.85164 0.18338 0.0922 0.0
N2382 N 0.85285 0.17695 0.11268 0.0
C2383 C 0.81461 0.15352 0.11413 0.0
C2384 C 0.86631 0.1877 0.10493 0.0
C2385 C 0.80141 0.1511 0.09971 0.0
C2386 C 0.84084 0.17494 0.09833 0.0
C2387 C 0.7878 0.14022 0.10767 0.0
H2388 H 0.72733 0.10667 0.10447 0.0
N2389 N 0.82867 0.15812 0.12828 0.0
C2390 C 0.80212 0.1442 0.12215 0.0
C2391 C 0.75073 0.11111 0.13193 0.0
C2392 C 0.76243 0.12081 0.12384 0.0
C2393 C 0.81742 0.1462 0.13611 0.0
C2394 C 0.7784 0.12343 0.13807 0.0
O2395 O 0.96898 0.26924 0.13507 0.0
O2396 O 0.957 0.23608 0.12312 0.0
O2397 O 0.89546 0.144 0.12874 0.0
O2398 O 0.90013 0.15743 0.11581 0.0
O2399 O 0.92257 0.29509 0.12015 0.0
O2400 O 0.93296 0.24643 0.1155 0.0
O2401 O 0.85831 0.22424 0.12163 0.0
O2402 O 0.86919 0.25939 0.13328 0.0
O2403 O 0.93072 0.3504 0.12931 0.0
O2404 O 0.92579 0.33569 0.14229 0.0
O2405 O 0.90312 0.20247 0.13815 0.0
O2406 O 0.88896 0.25014 0.14085 0.0
C2407 C 0.97932 0.25326 0.12933 0.0
C2408 C 0.93274 0.27929 0.11437 0.0
C2409 C 0.90227 0.09973 0.11906 0.0
C2410 C 0.89301 0.03474 0.12116 0.0
C2411 C 0.92017 0.06895 0.1085 0.0
C2412 C 0.91739 0.10021 0.1113 0.0
C2413 C 0.90814 0.03655 0.11336 0.0
C2414 C 0.88983 0.06651 0.12405 0.0
C2415 C 0.89811 0.13351 0.12137 0.0
C2416 C 0.73569 0.10748 0.11741 0.0
C2417 C 0.74834 0.1171 0.10936 0.0
H2418 H 0.72053 0.09323 0.13347 0.0
C2419 C 0.84828 0.24248 0.12681 0.0
C2420 C 0.89332 0.2216 0.14336 0.0
C2421 C 0.92314 0.39281 0.13905 0.0
C2422 C 0.90754 0.44284 0.13598 0.0
C2423 C 0.92689 0.43685 0.14965 0.0
C2424 C 0.93078 0.40577 0.14716 0.0
C2425 C 0.91527 0.45528 0.1441 0.0
C2426 C 0.91158 0.41157 0.13341 0.0
C2427 C 0.92636 0.35906 0.13675 0.0
H2428 H 0.93167 0.0698 0.10249 0.0
H2429 H 0.927 0.12488 0.10731 0.0
H2430 H 0.91053 0.01254 0.11101 0.0
H2431 H 0.87772 0.06527 0.13002 0.0
H2432 H 0.93273 0.44657 0.15591 0.0
H2433 H 0.93976 0.39182 0.1516 0.0
H2434 H 0.91212 0.47929 0.14616 0.0
H2435 H 0.90522 0.40169 0.12716 0.0
C2436 C 0.7544 0.71255 0.14485 0.0
C2437 C 0.71897 0.73116 0.13567 0.0
C2438 C 0.74232 0.71454 0.137 0.0
C2439 C 0.70862 0.74635 0.14228 0.0
C2440 C 0.74374 0.72741 0.1515 0.0
C2441 C 0.72096 0.74448 0.15017 0.0
N2442 N 0.77703 0.69652 0.14596 0.0
C2443 C 0.78829 0.69257 0.15357 0.0
C2444 C 0.75626 0.7246 0.15931 0.0
C2445 C 0.77839 0.70683 0.16035 0.0
Gd2446 Gd 0.89547 0.74192 0.12414 0.0
Gd2447 Gd 0.79229 0.67398 0.13423 0.0
N2448 N 0.7534 0.70025 0.13067 0.0
C2449 C 0.70626 0.73156 0.12775 0.0
C2450 C 0.73887 0.69819 0.12307 0.0
C2451 C 0.71579 0.71445 0.12144 0.0
H2452 H 0.7437 0.68294 0.1183 0.0
H2453 H 0.70484 0.7132 0.11536 0.0
H2454 H 0.93903 0.72832 0.14071 0.0
H2455 H 0.80405 0.6775 0.15442 0.0
H2456 H 0.9764 0.69692 0.1439 0.0
H2457 H 0.68824 0.74402 0.12648 0.0
H2458 H 0.6908 0.75934 0.14136 0.0
H2459 H 0.89147 0.74394 0.1039 0.0
H2460 H 0.74862 0.73564 0.16458 0.0
H2461 H 0.78759 0.70384 0.16637 0.0
H2462 H 1.00245 0.66088 0.11786 0.0
H2463 H 0.71254 0.75614 0.1552 0.0
H2464 H 0.95403 0.6922 0.09411 0.0
H2465 H 0.91407 0.72271 0.09204 0.0
N2466 N 0.91831 0.72551 0.11256 0.0
C2467 C 0.94091 0.70958 0.11383 0.0
C2468 C 0.9089 0.73064 0.10486 0.0
C2469 C 0.94441 0.70167 0.09933 0.0
C2470 C 0.92177 0.71879 0.09814 0.0
C2471 C 0.95428 0.69687 0.10725 0.0
H2472 H 0.98671 0.66904 0.10378 0.0
N2473 N 0.93497 0.7161 0.12801 0.0
C2474 C 0.94939 0.70459 0.12179 0.0
C2475 C 0.98092 0.68364 0.13139 0.0
C2476 C 0.97206 0.68733 0.12332 0.0
C2477 C 0.94603 0.7151 0.13583 0.0
C2478 C 0.96838 0.69819 0.13766 0.0
O2479 O 0.82051 0.73947 0.13578 0.0
O2480 O 0.84999 0.75865 0.12352 0.0
O2481 O 0.94689 0.79298 0.12897 0.0
O2482 O 0.92578 0.79404 0.11699 0.0
O2483 O 0.79606 0.66682 0.12071 0.0
O2484 O 0.84382 0.7248 0.11534 0.0
O2485 O 0.86996 0.67786 0.12182 0.0
O2486 O 0.83518 0.65321 0.13352 0.0
O2487 O 0.74142 0.62049 0.13 0.0
O2488 O 0.75901 0.62918 0.14282 0.0
O2489 O 0.88827 0.74394 0.13819 0.0
O2490 O 0.84339 0.68136 0.14117 0.0
C2491 C 0.83618 0.76563 0.13005 0.0
C2492 C 0.81119 0.69108 0.1146 0.0
C2493 C 0.99311 0.836 0.11913 0.0
C2494 C 0.06015 0.88881 0.12063 0.0
C2495 C 0.03642 0.85847 0.10746 0.0
C2496 C 1.00044 0.83358 0.11083 0.0
C2497 C 0.06597 0.88586 0.1123 0.0
C2498 C 0.02343 0.86391 0.12406 0.0
C2499 C 0.95296 0.81272 0.1223 0.0
C2500 C 0.98528 0.67447 0.11678 0.0
C2501 C 0.9764 0.67921 0.10877 0.0
H2502 H 0.99824 0.67055 0.13283 0.0
C2503 C 0.85163 0.64928 0.12696 0.0
C2504 C 0.87105 0.71516 0.14349 0.0
C2505 C 0.70216 0.56909 0.13976 0.0
C2506 C 0.6518 0.5039 0.13658 0.0
C2507 C 0.6624 0.52623 0.15057 0.0
C2508 C 0.69219 0.56194 0.14805 0.0
C2509 C 0.6423 0.49729 0.14488 0.0
C2510 C 0.68173 0.53988 0.13399 0.0
C2511 C 0.73469 0.60667 0.13739 0.0
H2512 H 0.04132 0.85677 0.10103 0.0
H2513 H 0.97806 0.81305 0.10684 0.0
H2514 H 0.09358 0.90512 0.10951 0.0
H2515 H 0.01834 0.86669 0.13044 0.0
H2516 H 0.65499 0.52092 0.15696 0.0
H2517 H 0.70749 0.58397 0.1526 0.0
H2518 H 0.61931 0.46952 0.14694 0.0
H2519 H 0.68929 0.54483 0.12758 0.0
C2520 C 0.81407 0.70319 0.61403 0.0
C2521 C 0.76363 0.69233 0.62366 0.0
C2522 C 0.80252 0.70403 0.622 0.0
C2523 C 0.73652 0.67875 0.61731 0.0
C2524 C 0.78692 0.68964 0.60764 0.0
C2525 C 0.74811 0.67731 0.60933 0.0
N2526 N 0.85183 0.71527 0.61256 0.0
C2527 C 0.8645 0.71538 0.60483 0.0
C2528 C 0.7996 0.68904 0.59973 0.0
C2529 C 0.83858 0.70206 0.59832 0.0
Gd2530 Gd 0.93194 0.67409 0.63397 0.0
Gd2531 Gd 0.89316 0.73932 0.62381 0.0
N2532 N 0.82928 0.71649 0.62808 0.0
C2533 C 0.75316 0.69506 0.63165 0.0
C2534 C 0.8195 0.72116 0.63579 0.0
C2535 C 0.78131 0.70994 0.63772 0.0
H2536 H 0.84095 0.73469 0.64046 0.0
H2537 H 0.77372 0.71331 0.64387 0.0
H2538 H 0.99004 0.68744 0.61792 0.0
H2539 H 0.89472 0.72663 0.60361 0.0
H2540 H 0.05919 0.71748 0.61505 0.0
H2541 H 0.72362 0.68649 0.63317 0.0
H2542 H 0.70652 0.6695 0.61849 0.0
H2543 H 0.92293 0.67451 0.65422 0.0
H2544 H 0.77962 0.67889 0.59466 0.0
H2545 H 0.84875 0.70223 0.59221 0.0
H2546 H 0.11825 0.75571 0.64137 0.0
H2547 H 0.72685 0.66684 0.60449 0.0
H2548 H 0.03599 0.72742 0.66461 0.0
H2549 H 0.96531 0.69654 0.6663 0.0
N2550 N 0.96926 0.69436 0.6458 0.0
C2551 C 1.00788 0.7101 0.64473 0.0
C2552 C 0.95381 0.68892 0.65342 0.0
C2553 C 0.01755 0.71817 0.65928 0.0
C2554 C 0.97768 0.70088 0.66027 0.0
C2555 C 0.03312 0.72281 0.65145 0.0
H2556 H 0.0928 0.74946 0.65526 0.0
N2557 N 0.99718 0.70098 0.63048 0.0
C2558 C 0.02225 0.7135 0.63686 0.0
C2559 C 0.07562 0.73212 0.62761 0.0
C2560 C 0.06222 0.72984 0.63557 0.0
C2561 C 1.00993 0.70097 0.62279 0.0
C2562 C 0.04928 0.71716 0.6212 0.0
O2563 O 0.85435 0.67502 0.62252 0.0
O2564 O 0.86772 0.65116 0.63401 0.0
O2565 O 0.9297 0.62106 0.62933 0.0
O2566 O 0.92098 0.62859 0.64223 0.0
O2567 O 0.9044 0.74405 0.63781 0.0
O2568 O 0.89001 0.68272 0.64137 0.0
O2569 O 0.97051 0.74013 0.63492 0.0
O2570 O 0.95546 0.75774 0.62295 0.0
O2571 O 0.89755 0.79388 0.6282 0.0
O2572 O 0.90008 0.78309 0.61527 0.0
O2573 O 0.91754 0.66568 0.62058 0.0
O2574 O 0.93033 0.72438 0.61533 0.0
C2575 C 0.84607 0.64705 0.62768 0.0
C2576 C 0.89491 0.7165 0.64335 0.0
C2577 C 0.91628 0.56818 0.63892 0.0
C2578 C 0.90348 0.50377 0.63552 0.0
C2579 C 0.90412 0.52157 0.64964 0.0
C2580 C 0.91248 0.55821 0.64723 0.0
C2581 C 0.89955 0.49443 0.64383 0.0
C2582 C 0.91191 0.54075 0.63302 0.0
C2583 C 0.92217 0.60631 0.63666 0.0
C2584 C 0.08745 0.743 0.64225 0.0
C2585 C 0.07295 0.73944 0.65017 0.0
H2586 H 0.10611 0.74447 0.62636 0.0
C2587 C 0.97752 0.76648 0.62933 0.0
C2588 C 0.92809 0.69019 0.6145 0.0
C2589 C 0.90225 0.84327 0.61838 0.0
C2590 C 0.89261 0.89859 0.6207 0.0
C2591 C 0.91194 0.88798 0.60738 0.0
C2592 C 0.912 0.85535 0.61026 0.0
C2593 C 0.90231 0.90937 0.61253 0.0
C2594 C 0.89247 0.86522 0.62367 0.0
C2595 C 0.89865 0.80568 0.62075 0.0
H2596 H 0.90102 0.51414 0.65604 0.0
H2597 H 0.91554 0.57863 0.65191 0.0
H2598 H 0.89299 0.46595 0.64581 0.0
H2599 H 0.91447 0.54779 0.62659 0.0
H2600 H 0.91917 0.8966 0.60108 0.0
H2601 H 0.91916 0.83915 0.60602 0.0
H2602 H 0.90238 0.93463 0.61012 0.0
H2603 H 0.88431 0.85622 0.62992 0.0
C2604 C 0.39246 0.155 0.61412 0.0
C2605 C 0.41088 0.12221 0.62404 0.0
C2606 C 0.39421 0.14511 0.62217 0.0
C2607 C 0.42622 0.11007 0.61777 0.0
C2608 C 0.40768 0.14272 0.60781 0.0
C2609 C 0.42456 0.12023 0.60968 0.0
N2610 N 0.3767 0.17748 0.61249 0.0
C2611 C 0.37453 0.1881 0.60469 0.0
C2612 C 0.40563 0.15357 0.5998 0.0
C2613 C 0.38892 0.1763 0.59824 0.0
Gd2614 Gd 0.41568 0.29766 0.63381 0.0
Gd2615 Gd 0.35168 0.19439 0.62361 0.0
N2616 N 0.37961 0.15782 0.62815 0.0
C2617 C 0.41118 0.11169 0.63214 0.0
C2618 C 0.37727 0.14505 0.63595 0.0
C2619 C 0.3938 0.1227 0.6381 0.0
H2620 H 0.36152 0.15049 0.64053 0.0
H2621 H 0.39242 0.11333 0.64434 0.0
H2622 H 0.4082 0.34752 0.61802 0.0
H2623 H 0.36101 0.20507 0.60342 0.0
H2624 H 0.37922 0.38761 0.61512 0.0
H2625 H 0.42374 0.09418 0.63383 0.0
H2626 H 0.4392 0.09256 0.6191 0.0
H2627 H 0.41342 0.28656 0.65404 0.0
H2628 H 0.41683 0.14454 0.59478 0.0
H2629 H 0.38699 0.18462 0.59206 0.0
H2630 H 0.33528 0.4035 0.64123 0.0
H2631 H 0.4364 0.11053 0.60491 0.0
H2632 H 0.35895 0.34531 0.66437 0.0
H2633 H 0.38951 0.30517 0.66608 0.0
N2634 N 0.39442 0.31383 0.64562 0.0
C2635 C 0.37905 0.33706 0.64455 0.0
C2636 C 0.39892 0.30294 0.65322 0.0
C2637 C 0.36889 0.33674 0.65906 0.0
C2638 C 0.38599 0.31397 0.66005 0.0
C2639 C 0.36551 0.34884 0.65125 0.0
H2640 H 0.33874 0.38178 0.65505 0.0
N2641 N 0.39055 0.33759 0.63036 0.0
C2642 C 0.37708 0.34931 0.63671 0.0
C2643 C 0.3613 0.38658 0.62753 0.0
C2644 C 0.36159 0.3737 0.63544 0.0
C2645 C 0.39304 0.3525 0.62278 0.0
C2646 C 0.37767 0.3764 0.62119 0.0
O2647 O 0.41593 0.22477 0.6215 0.0
O2648 O 0.43726 0.25513 0.63369 0.0
O2649 O 0.4699 0.34681 0.62921 0.0
O2650 O 0.46043 0.33273 0.64221 0.0
O2651 O 0.3458 0.20043 0.63761 0.0
O2652 O 0.40713 0.24683 0.64108 0.0
O2653 O 0.3496 0.27058 0.63469 0.0
O2654 O 0.33005 0.23584 0.62291 0.0
O2655 O 0.29926 0.14146 0.62791 0.0
O2656 O 0.30788 0.15755 0.6151 0.0
O2657 O 0.42249 0.29373 0.62026 0.0
O2658 O 0.36418 0.24595 0.61511 0.0
C2659 C 0.44247 0.2398 0.62711 0.0
C2660 C 0.37309 0.21883 0.64317 0.0
C2661 C 0.52144 0.38771 0.63887 0.0
C2662 C 0.58753 0.4359 0.63567 0.0
C2663 C 0.56509 0.427 0.64964 0.0
C2664 C 0.52888 0.39815 0.64714 0.0
C2665 C 0.59434 0.4457 0.64394 0.0
C2666 C 0.55089 0.40704 0.63308 0.0
C2667 C 0.48355 0.3552 0.63661 0.0
C2668 C 0.34743 0.3849 0.6421 0.0
C2669 C 0.34942 0.37254 0.64997 0.0
H2670 H 0.34965 0.40534 0.6263 0.0
C2671 C 0.32259 0.25058 0.62925 0.0
C2672 C 0.39743 0.279 0.61428 0.0
C2673 C 0.2501 0.09694 0.61801 0.0
C2674 C 0.19452 0.03233 0.62045 0.0
C2675 C 0.20765 0.05984 0.60685 0.0
C2676 C 0.23964 0.09307 0.60974 0.0
C2677 C 0.18531 0.02975 0.61214 0.0
C2678 C 0.22723 0.06612 0.62343 0.0
C2679 C 0.2867 0.13192 0.62048 0.0
H2680 H 0.57057 0.43472 0.65601 0.0
H2681 H 0.50673 0.38378 0.65172 0.0
H2682 H 0.62245 0.46807 0.646 0.0
H2683 H 0.54572 0.39923 0.62669 0.0
H2684 H 0.20025 0.05731 0.60046 0.0
H2685 H 0.25657 0.11565 0.60539 0.0
H2686 H 0.16055 1.00413 0.60973 0.0
H2687 H 0.2349 0.06817 0.62981 0.0
C2688 C 0.93577 0.27814 0.61442 0.0
C2689 C 0.9697 0.3292 0.6243 0.0
C2690 C 0.94581 0.28973 0.62246 0.0
C2691 C 0.98229 0.35667 0.61802 0.0
C2692 C 0.94861 0.30561 0.60809 0.0
C2693 C 0.97178 0.34491 0.60994 0.0
N2694 N 0.91303 0.23995 0.6128 0.0
C2695 C 0.90263 0.22717 0.605 0.0
C2696 C 0.9378 0.29274 0.60008 0.0
C2697 C 0.91477 0.25333 0.59853 0.0
Gd2698 Gd 0.79247 0.15849 0.63465 0.0
Gd2699 Gd 0.89514 0.19798 0.62393 0.0
N2700 N 0.93279 0.26243 0.62844 0.0
C2701 C 0.98094 0.3399 0.63238 0.0
C2702 C 0.94626 0.27268 0.63621 0.0
C2703 C 0.96966 0.31145 0.63834 0.0
H2704 H 0.94065 0.25138 0.64079 0.0
H2705 H 0.97964 0.31928 0.64454 0.0
H2706 H 0.75549 0.09453 0.619 0.0
H2707 H 0.88563 0.1967 0.60373 0.0
H2708 H 0.7148 0.02511 0.61705 0.0
H2709 H 0.99931 0.36989 0.63404 0.0
H2710 H 1.00053 0.38709 0.61934 0.0
H2711 H 0.80495 0.17252 0.65478 0.0
H2712 H 0.94721 0.31294 0.59505 0.0
H2713 H 0.90657 0.24306 0.59235 0.0
H2714 H 0.68785 0.97427 0.64418 0.0
H2715 H 0.98193 0.36643 0.60516 0.0
H2716 H 0.7443 0.06239 0.66643 0.0
H2717 H 0.78571 0.13328 0.66732 0.0
N2718 N 0.77681 0.12419 0.64689 0.0
C2719 C 0.75341 0.08538 0.64625 0.0
C2720 C 0.7881 0.1415 0.65432 0.0
C2721 C 0.75318 0.07944 0.6609 0.0
C2722 C 0.77668 0.11942 0.66143 0.0
C2723 C 0.7411 0.06193 0.65326 0.0
H2724 H 0.70749 1.00343 0.65777 0.0
N2725 N 0.75555 0.09208 0.63187 0.0
C2726 C 0.74216 0.0689 0.63855 0.0
C2727 C 0.70865 0.01279 0.6299 0.0
C2728 C 0.71855 0.02859 0.63772 0.0
C2729 C 0.74565 0.0767 0.62425 0.0
C2730 C 0.7223 0.03699 0.62314 0.0
O2731 O 0.86564 0.23262 0.62195 0.0
O2732 O 0.83531 0.22261 0.63418 0.0
O2733 O 0.74187 0.16118 0.62998 0.0
O2734 O 0.75819 0.16991 0.64285 0.0
O2735 O 0.88988 0.18638 0.63797 0.0
O2736 O 0.84409 0.20194 0.64148 0.0
O2737 O 0.81981 0.11973 0.63532 0.0
O2738 O 0.85234 0.13526 0.62329 0.0
O2739 O 0.94767 0.19768 0.62814 0.0
O2740 O 0.93071 0.18892 0.61538 0.0
O2741 O 0.79426 0.16933 0.62118 0.0
O2742 O 0.84272 0.16161 0.61535 0.0
C2743 C 0.849 0.24269 0.62748 0.0
C2744 C 0.87194 0.19575 0.64356 0.0
C2745 C 0.70364 0.17659 0.63955 0.0
C2746 C 0.6505 0.18716 0.63619 0.0
C2747 C 0.67355 0.19531 0.65009 0.0
C2748 C 0.7009 0.18557 0.64773 0.0
C2749 C 0.64851 0.19618 0.64436 0.0
C2750 C 0.67815 0.17736 0.63373 0.0
C2751 C 0.73501 0.16928 0.63727 0.0
C2752 C 0.70603 1.00527 0.6447 0.0
C2753 C 0.71727 0.02187 0.65244 0.0
H2754 H 0.69063 0.98197 0.62902 0.0
C2755 C 0.83947 0.11326 0.6297 0.0
C2756 C 0.80901 0.16092 0.6149 0.0
C2757 C 0.99082 0.19045 0.61835 0.0
C2758 C 0.05583 0.20021 0.62066 0.0
C2759 C 0.02548 0.17989 0.6074 0.0
C2760 C 0.99292 0.18012 0.61025 0.0
C2761 C 0.05664 0.18985 0.61254 0.0
C2762 C 0.02271 0.20061 0.62361 0.0
C2763 C 0.95653 0.19352 0.62073 0.0
H2764 H 0.67187 0.20236 0.65639 0.0
H2765 H 0.72026 0.18557 0.65233 0.0
H2766 H 0.62735 0.20385 0.64631 0.0
H2767 H 0.67997 0.17083 0.62739 0.0
H2768 H 0.02666 0.17212 0.60114 0.0
H2769 H 0.96945 0.17262 0.60603 0.0
H2770 H 0.08169 0.1895 0.61015 0.0
H2771 H 0.02201 0.20911 0.62985 0.0
C2772 C 0.37887 0.14985 0.23482 0.0
C2773 C 0.35577 0.09691 0.2252 0.0
C2774 C 0.37371 0.1368 0.22684 0.0
C2775 C 0.34256 0.07048 0.23168 0.0
C2776 C 0.36589 0.12345 0.24135 0.0
C2777 C 0.34764 0.08371 0.23973 0.0
N2778 N 0.39544 0.18837 0.23618 0.0
C2779 C 0.40091 0.20258 0.24391 0.0
C2780 C 0.37119 0.13779 0.2493 0.0
C2781 C 0.38894 0.17755 0.25059 0.0
Gd2782 Gd 0.34468 0.26491 0.21522 0.0
Gd2783 Gd 0.41249 0.22836 0.22472 0.0
N2784 N 0.38567 0.16312 0.22069 0.0
C2785 C 0.35169 0.08476 0.2171 0.0
C2786 C 0.38429 0.15141 0.21282 0.0
C2787 C 0.36661 0.11219 0.21089 0.0
H2788 H 0.39765 0.17187 0.20799 0.0
H2789 H 0.36498 0.10318 0.20462 0.0
H2790 H 0.34708 0.31917 0.23116 0.0
H2791 H 0.4147 0.2333 0.24494 0.0
H2792 H 0.37639 0.38792 0.2346 0.0
H2793 H 0.33798 0.05439 0.21558 0.0
H2794 H 0.32847 0.03974 0.23053 0.0
H2795 H 0.34961 0.25963 0.19496 0.0
H2796 H 0.36164 0.11845 0.25449 0.0
H2797 H 0.39326 0.18891 0.25672 0.0
H2798 H 0.42915 0.45255 0.20924 0.0
H2799 H 0.33727 0.06297 0.24467 0.0
H2800 H 0.40949 0.37461 0.18557 0.0
H2801 H 0.37762 0.30409 0.18332 0.0
N2802 N 0.36788 0.30436 0.20372 0.0
C2803 C 0.38364 0.34282 0.20506 0.0
C2804 C 0.36478 0.29028 0.19602 0.0
C2805 C 0.39774 0.35516 0.19071 0.0
C2806 C 0.37995 0.31541 0.18941 0.0
C2807 C 0.39946 0.36932 0.19859 0.0
H2808 H 0.4287 0.4298 0.1953 0.0
N2809 N 0.36862 0.32927 0.21908 0.0
C2810 C 0.38416 0.35565 0.21297 0.0
C2811 C 0.39836 0.40705 0.22249 0.0
C2812 C 0.40011 0.39534 0.21454 0.0
C2813 C 0.36399 0.34028 0.22665 0.0
C2814 C 0.37956 0.37932 0.22853 0.0
O2815 O 0.34876 0.19128 0.22726 0.0
O2816 O 0.32385 0.20102 0.21557 0.0
O2817 O 0.28986 0.25927 0.21954 0.0
O2818 O 0.30037 0.25445 0.20661 0.0
O2819 O 0.41397 0.2384 0.21064 0.0
O2820 O 0.35156 0.22186 0.20791 0.0
O2821 O 0.41069 0.30326 0.21383 0.0
O2822 O 0.42839 0.2898 0.22588 0.0
O2823 O 0.46347 0.22915 0.21953 0.0
O2824 O 0.46442 0.24751 0.23186 0.0
O2825 O 0.33823 0.25353 0.22878 0.0
O2826 O 0.39716 0.26418 0.23366 0.0
C2827 C 0.32108 0.17966 0.22188 0.0
C2828 C 0.38491 0.22747 0.20542 0.0
C2829 C 0.23791 0.24553 0.20973 0.0
C2830 C 0.17348 0.23284 0.21303 0.0
C2831 C 0.1904 0.22945 0.19901 0.0
C2832 C 0.22735 0.23899 0.20146 0.0
C2833 C 0.16354 0.22631 0.20476 0.0
C2834 C 0.21074 0.2425 0.21556 0.0
C2835 C 0.27642 0.25289 0.21211 0.0
C2836 C 0.41655 0.42191 0.20813 0.0
C2837 C 0.41623 0.40895 0.20019 0.0
H2838 H 0.41022 0.43729 0.22395 0.0
C2839 C 0.43649 0.31232 0.21962 0.0
C2840 C 0.3637 0.26348 0.23468 0.0
C2841 C 0.50346 0.21946 0.22905 0.0
C2842 C 0.5554 0.20391 0.22752 0.0
C2843 C 0.51591 0.18496 0.23974 0.0
C2844 C 0.49463 0.20102 0.23668 0.0
C2845 C 0.54602 0.18642 0.23522 0.0
C2846 C 0.53416 0.22079 0.22444 0.0
C2847 C 0.48281 0.23988 0.22632 0.0
H2848 H 0.18252 0.22433 0.19264 0.0
H2849 H 0.24753 0.2408 0.19685 0.0
H2850 H 0.13486 0.2189 0.20275 0.0
H2851 H 0.21825 0.2472 0.22196 0.0
H2852 H 0.5092 0.17152 0.24569 0.0
H2853 H 0.47169 0.19962 0.24041 0.0
H2854 H 0.56231 0.17396 0.23778 0.0
H2855 H 0.5417 0.23514 0.21857 0.0
C2856 C 0.94912 0.26826 0.23439 0.0
C2857 C 0.99985 0.30164 0.22442 0.0
C2858 C 0.96042 0.27809 0.22633 0.0
C2859 C 0.02751 0.31424 0.23066 0.0
C2860 C 0.97679 0.28092 0.24067 0.0
C2861 C 0.01602 0.30393 0.23876 0.0
N2862 N 0.91104 0.24524 0.23605 0.0
C2863 C 0.89853 0.23434 0.24385 0.0
C2864 C 0.9642 0.26981 0.24869 0.0
C2865 C 0.92489 0.24646 0.25028 0.0
Gd2866 Gd 0.83162 0.12365 0.21502 0.0
Gd2867 Gd 0.86866 0.22702 0.22499 0.0
N2868 N 0.93295 0.26482 0.22038 0.0
C2869 C 1.01032 0.31235 0.21631 0.0
C2870 C 0.943 0.27778 0.21257 0.0
C2871 C 0.98172 0.30085 0.21039 0.0
H2872 H 0.92162 0.27193 0.208 0.0
H2873 H 0.98941 0.31039 0.20415 0.0
H2874 H 0.77596 0.06975 0.23065 0.0
H2875 H 0.86813 0.21673 0.24514 0.0
H2876 H 0.70704 0.02867 0.23367 0.0
H2877 H 0.04027 0.33041 0.2146 0.0
H2878 H 0.05789 0.33221 0.22929 0.0
H2879 H 0.83971 0.13322 0.19482 0.0
H2880 H 0.98457 0.27907 0.25369 0.0
H2881 H 0.91486 0.23786 0.25646 0.0
H2882 H 0.64525 0.01674 0.20792 0.0
H2883 H 0.0377 0.31393 0.24351 0.0
H2884 H 0.72603 0.07666 0.18468 0.0
H2885 H 0.79674 0.11617 0.18287 0.0
N2886 N 0.79382 0.10569 0.20327 0.0
C2887 C 0.75526 0.08275 0.20439 0.0
C2888 C 0.80892 0.11695 0.19567 0.0
C2889 C 0.74478 0.08446 0.18994 0.0
C2890 C 0.78466 0.10684 0.18889 0.0
C2891 C 0.72962 0.07177 0.19775 0.0
H2892 H 0.66964 0.03982 0.1941 0.0
N2893 N 0.76707 0.0812 0.21847 0.0
C2894 C 0.74147 0.07012 0.21221 0.0
C2895 C 0.68916 0.03159 0.22144 0.0
C2896 C 0.70172 0.04562 0.21356 0.0
C2897 C 0.75534 0.06514 0.22599 0.0
C2898 C 0.71621 0.0408 0.22765 0.0
O2899 O 0.90297 0.19767 0.22768 0.0
O2900 O 0.89474 0.16866 0.21547 0.0
O2901 O 0.8402 0.07798 0.21992 0.0
O2902 O 0.84723 0.09109 0.20698 0.0
O2903 O 0.85762 0.22051 0.2109 0.0
O2904 O 0.87394 0.1748 0.20791 0.0
O2905 O 0.79161 0.1499 0.21383 0.0
O2906 O 0.80648 0.18318 0.22569 0.0
O2907 O 0.86579 0.2781 0.22068 0.0
O2908 O 0.8601 0.26274 0.23354 0.0
O2909 O 0.84026 0.12727 0.22865 0.0
O2910 O 0.82949 0.17549 0.23348 0.0
C2911 C 0.9141 0.18167 0.22224 0.0
C2912 C 0.86718 0.2019 0.20551 0.0
C2913 C 0.8335 0.02877 0.21091 0.0
C2914 C 0.83836 0.97127 0.21293 0.0
C2915 C 0.7962 0.97251 0.20245 0.0
C2916 C 0.80683 0.01024 0.20461 0.0
C2917 C 0.81179 0.95304 0.20659 0.0
C2918 C 0.84931 0.00925 0.21505 0.0
C2919 C 0.84817 0.06945 0.21278 0.0
C2920 C 0.67595 0.0353 0.20699 0.0
C2921 C 0.68985 0.04838 0.19911 0.0
H2922 H 0.65886 0.01258 0.22273 0.0
C2923 C 0.78437 0.16949 0.21934 0.0
C2924 C 0.82976 0.14253 0.23448 0.0
C2925 C 0.85748 0.32041 0.2305 0.0
C2926 C 0.86596 0.38491 0.22841 0.0
C2927 C 0.83972 0.35089 0.24113 0.0
C2928 C 0.84266 0.31977 0.23829 0.0
C2929 C 0.85126 0.38316 0.23625 0.0
C2930 C 0.86936 0.35341 0.2255 0.0
C2931 C 0.86223 0.28725 0.22811 0.0
H2932 H 0.77616 0.95846 0.1975 0.0
H2933 H 0.7948 0.0251 0.20127 0.0
H2934 H 0.8037 0.92397 0.20475 0.0
H2935 H 0.87045 0.02371 0.21983 0.0
H2936 H 0.8285 0.35002 0.24717 0.0
H2937 H 0.8335 0.29514 0.24228 0.0
H2938 H 0.84874 0.40707 0.23863 0.0
H2939 H 0.88115 0.35466 0.2195 0.0
C2940 C 0.82791 0.72336 0.23473 0.0
C2941 C 0.79674 0.74539 0.22516 0.0
C2942 C 0.8196 0.72836 0.22673 0.0
C2943 C 0.78304 0.75788 0.23168 0.0
C2944 C 0.81418 0.73596 0.24128 0.0
C2945 C 0.79177 0.75323 0.23971 0.0
N2946 N 0.84982 0.70669 0.23612 0.0
C2947 C 0.85864 0.70132 0.24386 0.0
C2948 C 0.82347 0.73092 0.24924 0.0
C2949 C 0.84576 0.71352 0.25053 0.0
Gd2950 Gd 0.97396 0.74637 0.21538 0.0
Gd2951 Gd 0.86791 0.68557 0.22452 0.0
N2952 N 0.83386 0.71666 0.22049 0.0
C2953 C 0.78784 0.74892 0.21708 0.0
C2954 C 0.82301 0.71775 0.21266 0.0
C2955 C 0.80063 0.73459 0.21082 0.0
H2956 H 0.82995 0.7044 0.2078 0.0
H2957 H 0.79255 0.73573 0.20458 0.0
H2958 H 0.01732 0.73113 0.23121 0.0
H2959 H 0.87472 0.68672 0.24495 0.0
H2960 H 0.05459 0.69871 0.23397 0.0
H2961 H 0.77026 0.7617 0.21564 0.0
H2962 H 0.76551 0.77105 0.23057 0.0
H2963 H 0.96591 0.74856 0.19506 0.0
H2964 H 0.81344 0.74021 0.25442 0.0
H2965 H 0.85273 0.70914 0.25666 0.0
H2966 H 0.06648 0.65286 0.20773 0.0
H2967 H 0.78095 0.76302 0.24466 0.0
H2968 H 0.0138 0.68393 0.18465 0.0
H2969 H 0.98007 0.72112 0.18299 0.0
N2970 N 0.98713 0.72336 0.20347 0.0
C2971 C 1.00695 0.70429 0.20453 0.0
C2972 C 0.97845 0.73045 0.19587 0.0
C2973 C 1.00653 0.69492 0.18998 0.0
C2974 C 0.98736 0.71576 0.18902 0.0
C2975 C 0.01715 0.68951 0.19779 0.0
H2976 H 0.04625 0.65891 0.19392 0.0
N2977 N 1.0076 0.71478 0.21881 0.0
C2978 C 0.01788 0.7003 0.21239 0.0
C2979 C 0.05246 0.68087 0.2215 0.0
C2980 C 0.03996 0.68223 0.2136 0.0
C2981 C 0.02169 0.7157 0.2264 0.0
C2982 C 0.04378 0.69823 0.2279 0.0
O2983 O 0.89816 0.75034 0.22607 0.0
O2984 O 0.93803 0.77543 0.21493 0.0
O2985 O 0.0229 0.7962 0.22096 0.0
O2986 O 0.01999 0.78864 0.20789 0.0
O2987 O 0.87698 0.68414 0.21051 0.0
O2988 O 0.92776 0.74446 0.20753 0.0
O2989 O 0.94163 0.68028 0.21464 0.0
O2990 O 0.90381 0.65774 0.22609 0.0
O2991 O 0.82079 0.63397 0.21868 0.0
O2992 O 0.81952 0.64334 0.23159 0.0
O2993 O 0.96488 0.7528 0.22864 0.0
O2994 O 0.9168 0.69476 0.23356 0.0
C2995 C 0.91783 0.77846 0.22091 0.0
C2996 C 0.89706 0.71256 0.20526 0.0
C2997 C 0.04991 0.85215 0.21275 0.0
C2998 C 0.09684 0.91987 0.21475 0.0
C2999 C 0.04053 0.90149 0.20632 0.0
C3000 C 0.02796 0.86269 0.20781 0.0
C3001 C 0.07484 0.93001 0.20976 0.0
C3002 C 0.0844 0.88089 0.21623 0.0
C3003 C 0.03816 0.81141 0.21395 0.0
C3004 C 0.04965 0.66698 0.2069 0.0
C3005 C 0.03816 0.67047 0.19903 0.0
H3006 H 0.06972 0.66748 0.22268 0.0
C3007 C 0.92324 0.65349 0.22019 0.0
C3008 C 0.95048 0.72723 0.23449 0.0
C3009 C 0.7755 0.58011 0.2269 0.0
C3010 C 0.71123 0.52226 0.22615 0.0
C3011 C 0.76136 0.52277 0.23461 0.0
C3012 C 0.78716 0.56066 0.23228 0.0
C3013 C 0.7237 0.50376 0.2316 0.0
C3014 C 0.73732 0.56066 0.2238 0.0
C3015 C 0.8009 0.6219 0.2254 0.0
H3016 H 0.02385 0.90946 0.20242 0.0
H3017 H 1.00145 0.84093 0.20501 0.0
H3018 H 0.08459 0.96003 0.20845 0.0
H3019 H 0.1017 0.87301 0.21997 0.0
H3020 H 0.77041 0.50822 0.23887 0.0
H3021 H 0.81593 0.57516 0.23484 0.0
H3022 H 0.70403 0.47457 0.23361 0.0
H3023 H 0.72765 0.57567 0.2198 0.0
H3024 H 0.47242 0.18882 0.10859 0.0
H3025 H 0.35484 0.10603 0.10244 0.0
H3026 H 0.49556 0.16191 0.09842 0.0
H3027 H 0.37834 0.0796 0.09172 0.0
H3028 H 0.43617 0.01796 0.07816 0.0
H3029 H 0.40993 0.0421 0.08876 0.0
H3030 H 0.50502 0.15739 0.08484 0.0
H3031 H 0.53104 0.13326 0.07462 0.0
C3032 C 0.45125 0.16542 0.10487 0.0
C3033 C 0.41155 0.15012 0.10636 0.0
C3034 C 0.4647 0.1498 0.09896 0.0
C3035 C 0.43917 0.1183 0.09409 0.0
C3036 C 0.39919 0.10354 0.09535 0.0
C3037 C 0.38556 0.11926 0.10139 0.0
C3038 C 0.45211 0.04818 0.07982 0.0
C3039 C 0.48626 0.07345 0.0756 0.0
C3040 C 0.43658 0.0623 0.08578 0.0
C3041 C 0.45503 0.10201 0.08777 0.0
C3042 C 0.48985 0.12666 0.0837 0.0
C3043 C 0.50505 0.1127 0.07778 0.0
H3044 H 0.89594 0.31051 0.10644 0.0
H3045 H 0.999 0.30242 0.1051 0.0
H3046 H 0.92071 0.35995 0.09603 0.0
H3047 H 0.02418 0.35207 0.09435 0.0
H3048 H 0.07278 0.469 0.08006 0.0
H3049 H 0.05044 0.41989 0.09094 0.0
H3050 H 0.93335 0.37378 0.08255 0.0
H3051 H 0.95505 0.423 0.07225 0.0
C3052 C 0.92355 0.31845 0.1037 0.0
C3053 C 0.94488 0.30155 0.10651 0.0
C3054 C 0.93805 0.3472 0.09769 0.0
C3055 C 0.97476 0.36061 0.09418 0.0
C3056 C 0.99595 0.34302 0.09686 0.0
C3057 C 0.98113 0.31375 0.10291 0.0
C3058 C 0.0422 0.44906 0.08073 0.0
C3059 C 0.01588 0.4506 0.07526 0.0
C3060 C 0.02932 0.42026 0.08689 0.0
C3061 C 0.98977 0.39221 0.08774 0.0
C3062 C 0.96381 0.39475 0.08234 0.0
C3063 C 0.97648 0.42332 0.07632 0.0
H3064 H 0.64058 0.6634 0.07691 0.0
H3065 H 0.64624 0.55887 0.07588 0.0
H3066 H 0.69023 0.68831 0.08765 0.0
H3067 H 0.69549 0.58327 0.08634 0.0
H3068 H 0.75798 0.61823 0.11021 0.0
H3069 H 0.70894 0.59675 0.09989 0.0
H3070 H 0.75824 0.7133 0.09089 0.0
H3071 H 0.80717 0.7356 0.1018 0.0
C3072 C 0.65134 0.64515 0.07919 0.0
C3073 C 0.6386 0.60864 0.07565 0.0
C3074 C 0.6806 0.6598 0.08522 0.0
C3075 C 0.69745 0.63809 0.08798 0.0
C3076 C 0.68335 0.60103 0.08459 0.0
C3077 C 0.6547 0.58675 0.07856 0.0
C3078 C 0.75905 0.63961 0.10601 0.0
C3079 C 0.7871 0.67891 0.10693 0.0
C3080 C 0.73057 0.62704 0.09998 0.0
C3081 C 0.72899 0.65295 0.09441 0.0
C3082 C 0.75786 0.6923 0.09509 0.0
C3083 C 0.78652 0.70511 0.10127 0.0
H3084 H 0.04879 0.48977 0.4314 0.0
H3085 H 0.11046 0.4574 0.44825 0.0
H3086 H 0.07204 0.46592 0.42011 0.0
H3087 H 0.13213 0.43334 0.43727 0.0
H3088 H 0.13362 0.35888 0.41539 0.0
H3089 H 0.10666 0.3794 0.42656 0.0
H3090 H 0.13931 0.48572 0.41392 0.0
H3091 H 0.16754 0.46686 0.40316 0.0
C3092 C 0.06668 0.47733 0.43277 0.0
C3093 C 0.07742 0.47584 0.44087 0.0
C3094 C 0.08014 0.46367 0.4263 0.0
C3095 C 0.10367 0.44712 0.42779 0.0
C3096 C 0.11369 0.44518 0.43585 0.0
C3097 C 0.10136 0.45965 0.4422 0.0
C3098 C 0.13553 0.3868 0.41505 0.0
C3099 C 0.15267 0.4107 0.40824 0.0
C3100 C 0.11974 0.39849 0.42141 0.0
C3101 C 0.11981 0.43389 0.42104 0.0
C3102 C 0.13768 0.45793 0.41435 0.0
C3103 C 0.15432 0.44694 0.40817 0.0
H3104 H 0.65652 0.62648 0.43647 0.0
H3105 H 0.56718 0.65407 0.44113 0.0
H3106 H 0.68301 0.67637 0.42578 0.0
H3107 H 0.59406 0.70436 0.43101 0.0
H3108 H 0.62567 0.7703 0.40762 0.0
H3109 H 0.60161 0.72009 0.41775 0.0
H3110 H 0.7176 0.74374 0.42245 0.0
H3111 H 0.74159 0.79349 0.41172 0.0
C3112 C 0.6419 0.64237 0.43507 0.0
C3113 C 0.60918 0.63556 0.43959 0.0
C3114 C 0.65762 0.67175 0.42906 0.0
C3115 C 0.64101 0.69507 0.4274 0.0
C3116 C 0.60768 0.68709 0.43183 0.0
C3117 C 0.59204 0.65791 0.43772 0.0
C3118 C 0.64639 0.76557 0.41092 0.0
C3119 C 0.68577 0.78665 0.40888 0.0
C3120 C 0.63246 0.73642 0.41681 0.0
C3121 C 0.65732 0.72724 0.4211 0.0
C3122 C 0.69719 0.74933 0.41929 0.0
C3123 C 0.71124 0.77867 0.41326 0.0
H3124 H 0.31374 1.00263 0.40796 0.0
H3125 H 0.29708 0.88855 0.41104 0.0
H3126 H 0.36361 0.02681 0.41865 0.0
H3127 H 0.34678 0.91203 0.42137 0.0
H3128 H 0.41356 0.95191 0.44449 0.0
H3129 H 0.36459 0.9321 0.43428 0.0
H3130 H 0.42786 0.04363 0.42272 0.0
H3131 H 0.47687 0.06491 0.43359 0.0
C3132 C 0.31961 0.98241 0.41114 0.0
C3133 C 0.30028 0.94329 0.4088 0.0
C3134 C 0.34905 0.99644 0.41714 0.0
C3135 C 0.35984 0.97169 0.42105 0.0
C3136 C 0.33943 0.93238 0.41878 0.0
C3137 C 0.31044 0.9186 0.41282 0.0
C3138 C 0.41772 0.97262 0.43978 0.0
C3139 C 0.44982 0.01039 0.44001 0.0
C3140 C 0.38921 0.96087 0.43378 0.0
C3141 C 0.39153 0.98581 0.42748 0.0
C3142 C 0.4243 0.02343 0.42748 0.0
C3143 C 0.45296 0.03558 0.43366 0.0
H3144 H 0.55943 0.9614 0.93894 0.0
H3145 H 0.66655 0.06924 0.93905 0.0
H3146 H 0.58425 0.93648 0.92856 0.0
H3147 H 0.69201 0.04438 0.92844 0.0
H3148 H 0.73709 0.97202 0.9143 0.0
H3149 H 0.71484 0.99897 0.92518 0.0
H3150 H 0.60008 0.93899 0.91504 0.0
H3151 H 0.62121 0.91107 0.90477 0.0
C3152 C 0.58806 0.98032 0.93654 0.0
C3153 C 0.61047 0.01772 0.93973 0.0
C3154 C 0.60259 0.96591 0.93057 0.0
C3155 C 0.64046 0.98815 0.92752 0.0
C3156 C 0.66284 0.02608 0.9306 0.0
C3157 C 0.64792 0.04079 0.93655 0.0
C3158 C 0.70696 0.96389 0.91455 0.0
C3159 C 0.6812 0.93899 0.90859 0.0
C3160 C 0.69421 0.9799 0.92072 0.0
C3161 C 0.65537 0.97147 0.92109 0.0
C3162 C 0.62991 0.94598 0.9152 0.0
C3163 C 0.64235 0.92991 0.90918 0.0
H3164 H 0.10985 0.79951 0.91308 0.0
H3165 H 0.18759 0.75933 0.90614 0.0
H3166 H 0.08368 0.75031 0.92394 0.0
H3167 H 0.16068 0.70991 0.9164 0.0
H3168 H 0.13303 0.64509 0.94008 0.0
H3169 H 0.15749 0.69503 0.9298 0.0
H3170 H 0.04445 0.68264 0.92734 0.0
H3171 H 0.0202 0.63261 0.93801 0.0
C3172 C 0.12194 0.78087 0.91395 0.0
C3173 C 0.15127 0.78403 0.90871 0.0
C3174 C 0.10637 0.75197 0.92009 0.0
C3175 C 0.11967 0.7254 0.92117 0.0
C3176 C 0.14971 0.72968 0.91602 0.0
C3177 C 0.16528 0.75838 0.91003 0.0
C3178 C 0.11299 0.65217 0.93721 0.0
C3179 C 0.07433 0.63387 0.93979 0.0
C3180 C 0.12712 0.68121 0.93126 0.0
C3181 C 0.10326 0.6935 0.92756 0.0
C3182 C 0.0641 0.67453 0.93001 0.0
C3183 C 0.0498 0.64502 0.936 0.0
H3184 H 0.46458 0.43395 0.93638 0.0
H3185 H 0.43565 0.52204 0.94148 0.0
H3186 H 0.41514 0.40814 0.92559 0.0
H3187 H 0.38588 0.49581 0.93124 0.0
H3188 H 0.32072 0.46539 0.90766 0.0
H3189 H 0.3709 0.48925 0.91783 0.0
H3190 H 0.34724 0.37312 0.92239 0.0
H3191 H 0.29722 0.34929 0.91172 0.0
C3192 C 0.44854 0.44848 0.93506 0.0
C3193 C 0.45482 0.48061 0.93975 0.0
C3194 C 0.41941 0.43313 0.92899 0.0
C3195 C 0.39583 0.44954 0.92742 0.0
C3196 C 0.40335 0.48238 0.932 0.0
C3197 C 0.43225 0.49764 0.93795 0.0
C3198 C 0.32546 0.44462 0.91094 0.0
C3199 C 0.30418 0.40522 0.9089 0.0
C3200 C 0.35459 0.45842 0.91684 0.0
C3201 C 0.36376 0.43344 0.9211 0.0
C3202 C 0.34163 0.3936 0.91925 0.0
C3203 C 0.31217 0.37966 0.91326 0.0
H3204 H 0.91135 0.6177 0.61046 0.0
H3205 H 0.97503 0.73459 0.60152 0.0
H3206 H 0.93971 0.59695 0.60018 0.0
H3207 H 1.00235 0.7129 0.59065 0.0
H3208 H 0.07231 0.66629 0.57659 0.0
H3209 H 0.04695 0.69029 0.58738 0.0
H3210 H 0.93918 0.58236 0.5867 0.0
H3211 H 0.96476 0.55892 0.57618 0.0
C3212 C 0.93084 0.63911 0.60616 0.0
C3213 C 0.94062 0.6781 0.60691 0.0
C3214 C 0.94718 0.62694 0.60015 0.0
C3215 C 0.9736 0.65291 0.59444 0.0
C3216 C 0.98261 0.69189 0.59497 0.0
C3217 C 0.96637 0.70433 0.60113 0.0
C3218 C 0.0438 0.64729 0.57902 0.0
C3219 C 0.02094 0.61025 0.57565 0.0
C3220 C 0.02879 0.66136 0.58507 0.0
C3221 C 0.99071 0.63854 0.58802 0.0
C3222 C 0.96871 0.60097 0.5848 0.0
C3223 C 0.98348 0.58725 0.57874 0.0
H3224 H 0.53013 0.44734 0.57622 0.0
H3225 H 0.42636 0.45418 0.57736 0.0
H3226 H 0.50505 0.39693 0.58627 0.0
H3227 H 0.40134 0.40447 0.58809 0.0
H3228 H 0.35182 0.28894 0.6026 0.0
H3229 H 0.37439 0.33913 0.59197 0.0
H3230 H 0.49208 0.37756 0.59905 0.0
H3231 H 0.46985 0.32678 0.60894 0.0
C3232 C 0.50238 0.4392 0.57892 0.0
C3233 C 0.48086 0.45584 0.57605 0.0
C3234 C 0.48767 0.4098 0.58477 0.0
C3235 C 0.4508 0.39587 0.58823 0.0
C3236 C 0.42965 0.41369 0.58561 0.0
C3237 C 0.44443 0.44317 0.5796 0.0
C3238 C 0.38249 0.30728 0.60163 0.0
C3239 C 0.40884 0.30312 0.60661 0.0
C3240 C 0.39561 0.33686 0.59564 0.0
C3241 C 0.43547 0.36326 0.59449 0.0
C3242 C 0.46134 0.358 0.59941 0.0
C3243 C 0.4484 0.3285 0.60522 0.0
H3244 H 0.82227 0.14382 0.59894 0.0
H3245 H 0.73443 0.1453 0.61399 0.0
H3246 H 0.77562 0.11879 0.58758 0.0
H3247 H 0.68873 0.11901 0.60299 0.0
H3248 H 0.6058 0.03257 0.58293 0.0
H3249 H 0.65254 0.0547 0.59428 0.0
H3250 H 0.73714 0.14551 0.57916 0.0
H3251 H 0.69114 0.12564 0.5682 0.0
C3252 C 0.7934 0.13882 0.59989 0.0
C3253 C 0.7828 0.14682 0.60751 0.0
C3254 C 0.76648 0.12422 0.59339 0.0
C3255 C 0.72798 0.11603 0.59442 0.0
C3256 C 0.71764 0.12408 0.60199 0.0
C3257 C 0.74451 0.13971 0.60832 0.0
C3258 C 0.63416 0.05739 0.58204 0.0
C3259 C 0.64404 0.07686 0.57452 0.0
C3260 C 0.66115 0.06998 0.58853 0.0
C3261 C 0.69908 0.10147 0.58757 0.0
C3262 C 0.70871 0.12077 0.5801 0.0
C3263 C 0.68168 0.10926 0.57379 0.0
H3264 H 0.86697 0.79384 0.74248 0.0
H3265 H 0.76029 0.6856 0.7429 0.0
H3266 H 0.84311 0.81895 0.75305 0.0
H3267 H 0.73577 0.71069 0.75365 0.0
H3268 H 0.69119 0.78292 0.7678 0.0
H3269 H 0.71314 0.75642 0.75679 0.0
H3270 H 0.82824 0.81618 0.76676 0.0
H3271 H 0.80717 0.84344 0.77726 0.0
C3272 C 0.83867 0.77494 0.74502 0.0
C3273 C 0.81605 0.73735 0.74195 0.0
C3274 C 0.82471 0.78943 0.7511 0.0
C3275 C 0.7872 0.76712 0.75432 0.0
C3276 C 0.76465 0.72904 0.75135 0.0
C3277 C 0.77903 0.71423 0.74531 0.0
C3278 C 0.72134 0.79115 0.76748 0.0
C3279 C 0.74724 0.81569 0.77346 0.0
C3280 C 0.7339 0.77538 0.76124 0.0
C3281 C 0.7727 0.78381 0.7608 0.0
C3282 C 0.7984 0.80916 0.76669 0.0
C3283 C 0.78606 0.82487 0.77281 0.0
H3284 H 0.24662 1.00231 0.77711 0.0
H3285 H 0.30917 0.94843 0.7679 0.0
H3286 H 0.27511 0.05171 0.76691 0.0
H3287 H 0.33665 0.99783 0.75709 0.0
H3288 H 0.40723 0.11485 0.74312 0.0
H3289 H 0.38163 0.06495 0.7538 0.0
H3290 H 0.27486 0.06708 0.75354 0.0
H3291 H 0.30068 0.11659 0.74312 0.0
C3292 C 0.26589 1.0003 0.77277 0.0
C3293 C 0.27529 0.97077 0.77344 0.0
C3294 C 0.28232 0.02902 0.76679 0.0
C3295 C 0.30851 0.02946 0.76102 0.0
C3296 C 0.31712 0.99916 0.76146 0.0
C3297 C 0.30077 0.97024 0.76758 0.0
C3298 C 0.37895 0.10574 0.74563 0.0
C3299 C 0.35649 0.1207 0.7424 0.0
C3300 C 0.36375 0.07629 0.75162 0.0
C3301 C 0.32585 0.06134 0.75466 0.0
C3302 C 0.30427 0.07769 0.75158 0.0
C3303 C 0.31922 0.10655 0.74559 0.0
H3304 H 1.00424 0.24058 0.73873 0.0
H3305 H 0.95372 0.30748 0.74719 0.0
H3306 H 0.05303 0.26828 0.74911 0.0
H3307 H 1.00252 0.33438 0.75813 0.0
H3308 H 0.12039 0.40278 0.77208 0.0
H3309 H 0.07089 0.37796 0.7613 0.0
H3310 H 0.06536 0.26756 0.76276 0.0
H3311 H 0.11449 0.2925 0.77325 0.0
C3312 C 1.00287 0.26068 0.74295 0.0
C3313 C 0.9745 0.27147 0.74205 0.0
C3314 C 0.03118 0.27664 0.749 0.0
C3315 C 0.03229 0.30382 0.75459 0.0
C3316 C 1.00318 0.31395 0.75391 0.0
C3317 C 0.97462 0.29796 0.74772 0.0
C3318 C 0.10956 0.37371 0.76984 0.0
C3319 C 0.12221 0.34996 0.77342 0.0
C3320 C 0.08042 0.35908 0.76379 0.0
C3321 C 0.06359 0.32049 0.76106 0.0
C3322 C 0.07753 0.29749 0.7645 0.0
C3323 C 0.10607 0.31189 0.77055 0.0
H3324 H 0.23609 0.29011 0.27502 0.0
H3325 H 0.32274 0.40793 0.27004 0.0
H3326 H 0.26368 0.26744 0.26507 0.0
H3327 H 0.34945 0.38486 0.25927 0.0
H3328 H 0.40834 0.32734 0.24461 0.0
H3329 H 0.38487 0.35383 0.25529 0.0
H3330 H 0.2699 0.25704 0.25199 0.0
H3331 H 0.29364 0.23063 0.24182 0.0
C3332 C 0.26066 0.31162 0.27162 0.0
C3333 C 0.27678 0.35121 0.27344 0.0
C3334 C 0.2766 0.29833 0.26575 0.0
C3335 C 0.30903 0.32386 0.26111 0.0
C3336 C 0.32476 0.36385 0.2627 0.0
C3337 C 0.30895 0.37733 0.26879 0.0
C3338 C 0.37841 0.31107 0.24645 0.0
C3339 C 0.35318 0.27615 0.24246 0.0
C3340 C 0.36458 0.32675 0.25246 0.0
C3341 C 0.32513 0.30791 0.2547 0.0
C3342 C 0.30052 0.27257 0.25076 0.0
C3343 C 0.31423 0.25711 0.24484 0.0
H3344 H 0.80329 0.99009 0.27513 0.0
H3345 H 0.68563 0.95524 0.26905 0.0
H3346 H 0.82628 0.04002 0.265 0.0
H3347 H 0.70893 1.00458 0.25822 0.0
H3348 H 0.76478 0.12167 0.24407 0.0
H3349 H 0.73848 0.07129 0.25466 0.0
H3350 H 0.83768 0.05657 0.25187 0.0
H3351 H 0.86392 0.10724 0.24181 0.0
C3352 C 0.78206 0.99221 0.27141 0.0
C3353 C 0.74241 0.968 0.27294 0.0
C3354 C 0.79543 0.0212 0.26549 0.0
C3355 C 0.76986 0.02702 0.2606 0.0
C3356 C 0.72987 1.00172 0.26187 0.0
C3357 C 0.71632 0.97265 0.26797 0.0
C3358 C 0.78155 0.10867 0.24601 0.0
C3359 C 0.81707 0.11941 0.24222 0.0
C3360 C 0.76603 0.07896 0.25196 0.0
C3361 C 0.78565 0.05923 0.25428 0.0
C3362 C 0.82159 0.07102 0.25054 0.0
C3363 C 0.83692 0.10045 0.2447 0.0
H3364 H 1.00187 0.79961 0.23931 0.0
H3365 H 0.95649 0.68156 0.24689 0.0
H3366 H 0.05195 0.82094 0.24924 0.0
H3367 H 1.00602 0.70376 0.25768 0.0
H3368 H 0.12082 0.75367 0.27256 0.0
H3369 H 0.0707 0.72808 0.2619 0.0
H3370 H 0.07099 0.83623 0.26195 0.0
H3371 H 0.12166 0.86156 0.27193 0.0
C3372 C 1.00176 0.77796 0.24329 0.0
C3373 C 0.97446 0.73856 0.24219 0.0
C3374 C 0.03088 0.79051 0.24916 0.0
C3375 C 0.03381 0.76458 0.25452 0.0
C3376 C 1.00554 0.72499 0.25368 0.0
C3377 C 0.97639 0.71214 0.24758 0.0
C3378 C 0.11135 0.77239 0.26995 0.0
C3379 C 0.12639 0.81022 0.27296 0.0
C3380 C 0.08169 0.75739 0.26398 0.0
C3381 C 0.06609 0.77973 0.26085 0.0
C3382 C 0.08215 0.81781 0.26383 0.0
C3383 C 0.11168 0.83267 0.26965 0.0
H3384 H 0.59772 0.06819 0.03007 0.0
H3385 H 0.47518 0.99817 0.02709 0.0
H3386 H 0.60631 0.07351 0.01551 0.0
H3387 H 0.48216 1.00459 0.01252 0.0
H3388 H 0.49706 0.02001 0.98533 0.0
H3389 H 0.48868 0.01422 0.99985 0.0
H3390 H 0.61284 0.0832 1.00282 0.0
H3391 H 0.6197 0.08955 0.98822 0.0
C3392 C 0.57249 0.0531 0.02622 0.0
C3393 C 0.53585 0.03205 0.02978 0.0
C3394 C 0.57715 0.05674 0.0177 0.0
C3395 C 0.54511 0.04061 0.01231 0.0
C3396 C 0.50836 0.01827 0.01603 0.0
C3397 C 0.50398 0.01384 0.02456 0.0
C3398 C 0.52236 0.03508 0.98916 0.0
C3399 C 0.55892 0.05631 0.98557 0.0
C3400 C 0.51782 0.03117 0.99767 0.0
C3401 C 0.5499 0.0473 1.00304 0.0
C3402 C 0.58662 0.06965 0.9993 0.0
C3403 C 0.59092 0.07415 0.99077 0.0
H3404 H 0.98484 0.54036 0.9879 0.0
H3405 H 0.09451 0.54617 0.9855 0.0
H3406 H 0.98927 0.5381 1.00263 0.0
H3407 H 0.10094 0.54631 1.00003 0.0
H3408 H 0.10611 0.53627 0.02739 0.0
H3409 H 0.10056 0.53555 0.01272 0.0
H3410 H 1.00426 0.55588 0.01507 0.0
H3411 H 1.0086 0.553 0.02969 0.0
C3412 C 1.00949 0.54009 0.99054 0.0
C3413 C 0.03892 0.54276 0.98547 0.0
C3414 C 0.01287 0.5399 0.99912 0.0
C3415 C 0.0461 0.54279 1.00297 0.0
C3416 C 0.0746 0.54383 0.99772 0.0
C3417 C 0.07098 0.54368 0.98921 0.0
C3418 C 0.0846 0.54177 0.02471 0.0
C3419 C 0.05843 0.54554 0.02975 0.0
C3420 C 0.08086 0.54104 0.01615 0.0
C3421 C 0.05134 0.54514 0.01226 0.0
C3422 C 0.02674 0.55129 0.01746 0.0
C3423 C 0.02977 0.5507 0.02599 0.0
H3424 H 0.57844 0.51324 0.029 0.0
H3425 H 0.52429 0.5829 0.02853 0.0
H3426 H 0.57557 0.50838 0.01452 0.0
H3427 H 0.51904 0.57691 0.0139 0.0
H3428 H 0.52003 0.57374 0.98668 0.0
H3429 H 0.5243 0.57952 1.00114 0.0
H3430 H 0.5722 0.50322 1.00176 0.0
H3431 H 0.56758 0.49822 0.9871 0.0
C3432 C 0.56517 0.52716 0.02575 0.0
C3433 C 0.55201 0.5489 0.03001 0.0
C3434 C 0.56353 0.52451 0.01723 0.0
C3435 C 0.54787 0.54287 0.0125 0.0
C3436 C 0.53255 0.56284 0.01691 0.0
C3437 C 0.5348 0.56595 0.02548 0.0
C3438 C 0.53189 0.55845 0.98992 0.0
C3439 C 0.54314 0.53516 0.98566 0.0
C3440 C 0.53403 0.56138 0.99843 0.0
C3441 C 0.54761 0.54112 1.00316 0.0
C3442 C 0.56083 0.51929 0.99874 0.0
C3443 C 0.55867 0.51646 0.99016 0.0
H3444 H 0.10845 0.59313 0.52825 0.0
H3445 H 0.98959 0.50342 0.5294 0.0
H3446 H 0.10718 0.58707 0.51354 0.0
H3447 H 0.98643 0.49873 0.51486 0.0
H3448 H 0.98563 0.48462 0.48757 0.0
H3449 H 0.98759 0.48806 0.50226 0.0
H3450 H 0.09824 0.5938 0.50094 0.0
H3451 H 0.0965 0.58772 0.48633 0.0
C3452 C 0.08218 0.57157 0.52534 0.0
C3453 C 0.04926 0.54869 0.53004 0.0
C3454 C 0.08082 0.56853 0.51676 0.0
C3455 C 0.04625 0.54284 0.51256 0.0
C3456 C 0.01397 0.51894 0.51746 0.0
C3457 C 0.01563 0.52158 0.52597 0.0
C3458 C 1.00979 0.50902 0.49048 0.0
C3459 C 0.04057 0.5361 0.48576 0.0
C3460 C 0.0114 0.51117 0.49906 0.0
C3461 C 0.04357 0.54111 0.50324 0.0
C3462 C 0.07327 0.56937 0.49833 0.0
C3463 C 0.07201 0.56653 0.4898 0.0
H3464 H 0.51141 0.55915 0.48631 0.0
H3465 H 0.60294 0.53223 0.48682 0.0
H3466 H 0.5067 0.55503 0.50101 0.0
H3467 H 0.59995 0.52986 0.50167 0.0
H3468 H 0.56837 0.49973 0.52826 0.0
H3469 H 0.57394 0.50328 0.51364 0.0
H3470 H 0.52933 0.58192 0.51328 0.0
H3471 H 0.52034 0.57503 0.52804 0.0
C3472 C 0.5304 0.55188 0.4896 0.0
C3473 C 0.55744 0.54574 0.48535 0.0
C3474 C 0.52823 0.55025 0.49812 0.0
C3475 C 0.55336 0.54283 0.50278 0.0
C3476 C 0.57959 0.53531 0.49846 0.0
C3477 C 0.58137 0.53645 0.48987 0.0
C3478 C 0.55975 0.51793 0.52508 0.0
C3479 C 0.54303 0.53639 0.52938 0.0
C3480 C 0.56331 0.52028 0.51659 0.0
C3481 C 0.55164 0.54243 0.51202 0.0
C3482 C 0.53749 0.56331 0.51641 0.0
C3483 C 0.53299 0.5601 0.52496 0.0
H3484 H 0.52972 0.07632 0.52965 0.0
H3485 H 0.56016 0.98803 0.52713 0.0
H3486 H 0.52689 0.08102 0.51501 0.0
H3487 H 0.56127 0.99455 0.51248 0.0
H3488 H 0.54878 0.99966 0.48527 0.0
H3489 H 0.54886 0.99268 0.49979 0.0
H3490 H 0.54638 0.09912 0.50268 0.0
H3491 H 0.54398 0.10398 0.48795 0.0
C3492 C 0.53503 0.05719 0.5259 0.0
C3493 C 0.54396 0.03092 0.52959 0.0
C3494 C 0.53454 0.06058 0.51737 0.0
C3495 C 0.54463 0.03894 0.51212 0.0
C3496 C 0.55253 0.01175 0.51595 0.0
C3497 C 0.55163 0.00747 0.5245 0.0
C3498 C 0.5491 0.02203 0.48904 0.0
C3499 C 0.54704 0.05272 0.48538 0.0
C3500 C 0.54903 0.01807 0.49753 0.0
C3501 C 0.54708 0.04483 0.50285 0.0
C3502 C 0.54699 0.07685 0.4991 0.0
C3503 C 0.54676 0.08057 0.49053 0.0
H3504 H 0.17971 0.31683 0.31988 0.0
H3505 H 0.24994 0.44061 0.32102 0.0
H3506 H 0.17638 0.31304 0.33449 0.0
H3507 H 0.24352 0.43759 0.33587 0.0
H3508 H 0.25894 0.4234 0.36262 0.0
H3509 H 0.26256 0.42587 0.34787 0.0
H3510 H 0.15589 0.31654 0.34678 0.0
H3511 H 0.15424 0.31352 0.3616 0.0
C3512 C 0.19357 0.3436 0.32328 0.0
C3513 C 0.21555 0.37906 0.31921 0.0
C3514 C 0.19143 0.34144 0.33179 0.0
C3515 C 0.20997 0.37484 0.33664 0.0
C3516 C 0.22972 0.41079 0.33251 0.0
C3517 C 0.23275 0.41282 0.32392 0.0
C3518 C 0.23697 0.39925 0.3592 0.0
C3519 C 0.20668 0.36784 0.36331 0.0
C3520 C 0.23848 0.40107 0.35066 0.0
C3521 C 0.20925 0.37184 0.34587 0.0
C3522 C 0.17958 0.33964 0.35006 0.0
C3523 C 0.17856 0.33752 0.35864 0.0
H3524 H 0.77792 0.90353 0.36156 0.0
H3525 H 0.65401 0.84743 0.36222 0.0
H3526 H 0.77623 0.90802 0.34684 0.0
H3527 H 0.65123 0.84828 0.34775 0.0
H3528 H 0.64777 0.85836 0.32039 0.0
H3529 H 0.64928 0.85621 0.33509 0.0
H3530 H 0.77178 0.89563 0.33414 0.0
H3531 H 0.76947 0.89867 0.3196 0.0
C3532 C 0.75029 0.89238 0.35856 0.0
C3533 C 0.71626 0.87492 0.36316 0.0
C3534 C 0.7489 0.89402 0.34996 0.0
C3535 C 0.71331 0.87753 0.34562 0.0
C3536 C 0.67958 0.86157 0.35042 0.0
C3537 C 0.68111 0.86092 0.35893 0.0
C3538 C 0.67474 0.86585 0.32337 0.0
C3539 C 0.70834 0.87879 0.31875 0.0
C3540 C 0.67607 0.865 0.33197 0.0
C3541 C 0.7111 0.87666 0.33628 0.0
C3542 C 0.74416 0.88747 0.33146 0.0
C3543 C 0.74279 0.88864 0.32294 0.0
H3544 H 0.23386 0.83236 0.32049 0.0
H3545 H 0.19198 0.91253 0.31975 0.0
H3546 H 0.23505 0.83488 0.33513 0.0
H3547 H 0.19346 0.91648 0.33429 0.0
H3548 H 0.18573 0.91421 0.36159 0.0
H3549 H 0.18251 0.9096 0.34691 0.0
H3550 H 0.23653 0.83871 0.34784 0.0
H3551 H 0.23651 0.84155 0.3623 0.0
C3552 C 0.22577 0.85133 0.32351 0.0
C3553 C 0.21262 0.87193 0.31894 0.0
C3554 C 0.22586 0.85269 0.33207 0.0
C3555 C 0.21302 0.87504 0.33639 0.0
C3556 C 0.2024 0.89763 0.33162 0.0
C3557 C 0.20214 0.89601 0.3231 0.0
C3558 C 0.1958 0.89681 0.35858 0.0
C3559 C 0.21167 0.87864 0.36314 0.0
C3560 C 0.19498 0.89471 0.35 0.0
C3561 C 0.21071 0.87488 0.34569 0.0
C3562 C 0.2244 0.8549 0.35047 0.0
C3563 C 0.2243 0.8563 0.35897 0.0
H3564 H 0.76473 0.91952 0.81929 0.0
H3565 H 0.65268 0.8184 0.82138 0.0
H3566 H 0.76979 0.92599 0.83383 0.0
H3567 H 0.65575 0.82533 0.83609 0.0
H3568 H 0.67243 0.82882 0.8632 0.0
H3569 H 0.66914 0.82174 0.84858 0.0
H3570 H 0.76847 0.93676 0.84647 0.0
H3571 H 0.77279 0.94136 0.86115 0.0
C3572 C 0.74046 0.89914 0.82293 0.0
C3573 C 0.70815 0.86867 0.81913 0.0
C3574 C 0.74325 0.90273 0.83144 0.0
C3575 C 0.71361 0.87602 0.83659 0.0
C3576 C 0.68018 0.84644 0.83266 0.0
C3577 C 0.67763 0.84276 0.82409 0.0
C3578 C 0.69437 0.85195 0.85955 0.0
C3579 C 0.72348 0.88525 0.86337 0.0
C3580 C 0.69201 0.84844 0.85102 0.0
C3581 C 0.71789 0.87881 0.84589 0.0
C3582 C 0.7478 0.91189 0.84985 0.0
C3583 C 0.75079 0.91476 0.85842 0.0
H3584 H 0.14547 0.86434 0.86051 0.0
H3585 H 0.2622 0.88884 0.8633 0.0
H3586 H 0.15209 0.86565 0.84587 0.0
H3587 H 0.27029 0.89103 0.8488 0.0
H3588 H 0.28273 0.89116 0.82146 0.0
H3589 H 0.27646 0.89072 0.83607 0.0
H3590 H 0.15638 0.85909 0.83322 0.0
H3591 H 0.16454 0.86183 0.81868 0.0
C3592 C 0.17321 0.87158 0.85794 0.0
C3593 C 0.20352 0.8774 0.86311 0.0
C3594 C 0.17716 0.87156 0.84939 0.0
C3595 C 0.21183 0.87768 0.84563 0.0
C3596 C 0.24266 0.88554 0.85099 0.0
C3597 C 0.23838 0.88493 0.8595 0.0
C3598 C 0.25472 0.88281 0.82403 0.0
C3599 C 0.22393 0.87548 0.81886 0.0
C3600 C 0.25087 0.88312 0.83257 0.0
C3601 C 0.21574 0.87551 0.83634 0.0
C3602 C 0.18444 0.86608 0.831 0.0
C3603 C 0.18871 0.86674 0.82248 0.0
H3604 H 0.21331 0.33147 0.81907 0.0
H3605 H 0.20942 0.43635 0.82168 0.0
H3606 H 0.21443 0.32526 0.83361 0.0
H3607 H 0.21283 0.43221 0.83641 0.0
H3608 H 0.19709 0.4101 0.86338 0.0
H3609 H 0.19285 0.41375 0.84874 0.0
H3610 H 0.23015 0.32952 0.84618 0.0
H3611 H 0.22961 0.32331 0.86083 0.0
C3612 C 0.21388 0.35401 0.82282 0.0
C3613 C 0.21179 0.38465 0.81917 0.0
C3614 C 0.21455 0.35057 0.83132 0.0
C3615 C 0.21329 0.37782 0.8366 0.0
C3616 C 0.21296 0.40966 0.83283 0.0
C3617 C 0.21208 0.4129 0.82428 0.0
C3618 C 0.20276 0.39123 0.85963 0.0
C3619 C 0.21256 0.36557 0.8633 0.0
C3620 C 0.20144 0.39403 0.85111 0.0
C3621 C 0.21183 0.37263 0.84586 0.0
C3622 C 0.22096 0.3463 0.84967 0.0
C3623 C 0.22055 0.34234 0.85821 0.0
H3624 H 0.82022 0.64708 0.69376 0.0
H3625 H 0.9236 0.75726 0.69624 0.0
H3626 H 0.82751 0.6517 0.67897 0.0
H3627 H 0.92993 0.76388 0.68168 0.0
H3628 H 0.94823 0.76424 0.65448 0.0
H3629 H 0.94337 0.75772 0.66917 0.0
H3630 H 0.82224 0.67246 0.66687 0.0
H3631 H 0.82913 0.6767 0.65215 0.0
C3632 C 0.8451 0.67184 0.69114 0.0
C3633 C 0.8716 0.70146 0.69622 0.0
C3634 C 0.84892 0.67527 0.68257 0.0
C3635 C 0.87919 0.70868 0.67879 0.0
C3636 C 0.90639 0.73734 0.68403 0.0
C3637 C 0.90277 0.73364 0.69252 0.0
C3638 C 0.92034 0.74505 0.65716 0.0
C3639 C 0.88892 0.72168 0.65213 0.0
C3640 C 0.91731 0.74089 0.6657 0.0
C3641 C 0.88225 0.7141 0.66955 0.0
C3642 C 0.85023 0.69254 0.6644 0.0
C3643 C 0.85377 0.69569 0.65587 0.0
H3644 H 0.41694 0.19846 0.65217 0.0
H3645 H 0.32107 0.21802 0.65415 0.0
H3646 H 0.41976 0.19449 0.66683 0.0
H3647 H 0.32552 0.21807 0.66886 0.0
H3648 H 0.32654 0.20078 0.69601 0.0
H3649 H 0.32159 0.20212 0.68144 0.0
H3650 H 0.43525 0.21473 0.67923 0.0
H3651 H 0.43824 0.2109 0.69398 0.0
C3652 C 0.39588 0.20126 0.6558 0.0
C3653 C 0.36806 0.20745 0.65196 0.0
C3654 C 0.39806 0.20005 0.66434 0.0
C3655 C 0.37347 0.20665 0.66944 0.0
C3656 C 0.34492 0.21198 0.66547 0.0
C3657 C 0.34192 0.21174 0.6569 0.0
C3658 C 0.35075 0.2045 0.69239 0.0
C3659 C 0.38296 0.2062 0.69621 0.0
C3660 C 0.34805 0.20531 0.68387 0.0
C3661 C 0.37766 0.20806 0.67874 0.0
C3662 C 0.41091 0.2116 0.68268 0.0
C3663 C 0.41339 0.21049 0.69125 0.0
H3664 H 0.88958 0.25917 0.65256 0.0
H3665 H 0.87534 0.14573 0.65452 0.0
H3666 H 0.89183 0.26541 0.66718 0.0
H3667 H 0.87442 0.14965 0.66919 0.0
H3668 H 0.88458 0.16475 0.69642 0.0
H3669 H 0.88409 0.15894 0.68189 0.0
H3670 H 0.87448 0.26185 0.67965 0.0
H3671 H 0.8773 0.26798 0.69438 0.0
C3672 C 0.88774 0.2357 0.65619 0.0
C3673 C 0.88335 0.20235 0.65233 0.0
C3674 C 0.88799 0.23873 0.66472 0.0
C3675 C 0.88247 0.20789 0.66983 0.0
C3676 C 0.87931 0.17485 0.66584 0.0
C3677 C 0.88021 0.17239 0.65728 0.0
C3678 C 0.88159 0.18571 0.69279 0.0
C3679 C 0.88057 0.21658 0.69662 0.0
C3680 C 0.88142 0.18257 0.68428 0.0
C3681 C 0.87998 0.21015 0.67913 0.0
C3682 C 0.87669 0.24005 0.68308 0.0
C3683 C 0.87719 0.24328 0.69166 0.0
H3684 H 0.32778 0.17388 0.1959 0.0
H3685 H 0.44615 0.2647 0.19472 0.0
H3686 H 0.3251 0.16782 0.18133 0.0
H3687 H 0.44393 0.26068 0.18001 0.0
H3688 H 0.43944 0.24466 0.15291 0.0
H3689 H 0.44278 0.24908 0.1674 0.0
H3690 H 0.31855 0.17554 0.16863 0.0
H3691 H 0.31656 0.16883 0.1539 0.0
C3692 C 0.35366 0.19245 0.19247 0.0
C3693 C 0.38732 0.21973 0.19655 0.0
C3694 C 0.35199 0.18952 0.18394 0.0
C3695 C 0.38384 0.21419 0.17902 0.0
C3696 C 0.41818 0.24055 0.18323 0.0
C3697 C 0.41992 0.24299 0.19182 0.0
C3698 C 0.41264 0.22949 0.15627 0.0
C3699 C 0.37772 0.206 0.15214 0.0
C3700 C 0.41447 0.23212 0.16479 0.0
C3701 C 0.38118 0.21232 0.16968 0.0
C3702 C 0.34561 0.19064 0.16543 0.0
C3703 C 0.344 0.18729 0.15683 0.0
H3704 H 0.92647 0.19272 0.15412 0.0
H3705 H 0.84274 0.22999 0.15284 0.0
H3706 H 0.92061 0.18924 0.16886 0.0
H3707 H 0.83864 0.2299 0.16736 0.0
H3708 H 0.82551 0.22038 0.19478 0.0
H3709 H 0.82852 0.22067 0.18006 0.0
H3710 H 0.92826 0.20535 0.18144 0.0
H3711 H 0.92324 0.20335 0.19603 0.0
C3712 C 0.90634 0.19963 0.157 0.0
C3713 C 0.88516 0.21158 0.15223 0.0
C3714 C 0.90345 0.19869 0.16559 0.0
C3715 C 0.8797 0.21031 0.16976 0.0
C3716 C 0.85738 0.22053 0.1648 0.0
C3717 C 0.85972 0.22067 0.15628 0.0
C3718 C 0.84852 0.218 0.19188 0.0
C3719 C 0.87413 0.21208 0.19664 0.0
C3720 C 0.85037 0.21778 0.18328 0.0
C3721 C 0.87838 0.2122 0.17909 0.0
C3722 C 0.90527 0.20852 0.18403 0.0
C3723 C 0.90296 0.20816 0.19257 0.0
H3724 H 0.88508 0.77402 0.15408 0.0
H3725 H 0.87757 0.6631 0.1529 0.0
H3726 H 0.88586 0.77174 0.16883 0.0
H3727 H 0.88154 0.66144 0.16757 0.0
H3728 H 0.86458 0.64972 0.19476 0.0
H3729 H 0.85905 0.65126 0.17999 0.0
H3730 H 0.90562 0.77494 0.18117 0.0
H3731 H 0.90728 0.77199 0.19573 0.0
C3732 C 0.88523 0.74983 0.157 0.0
C3733 C 0.88166 0.71903 0.15229 0.0
C3734 C 0.8855 0.74815 0.16557 0.0
C3735 C 0.88333 0.71601 0.16975 0.0
C3736 C 0.88197 0.68627 0.16488 0.0
C3737 C 0.88061 0.68755 0.15635 0.0
C3738 C 0.87229 0.67685 0.19182 0.0
C3739 C 0.88632 0.71063 0.19646 0.0
C3740 C 0.87015 0.67819 0.18324 0.0
C3741 C 0.88263 0.71353 0.17903 0.0
C3742 C 0.89513 0.74684 0.18386 0.0
C3743 C 0.89636 0.74527 0.19236 0.0
H3744 H 0.60382 0.86873 0.05745 0.0
H3745 H 0.48434 0.78177 0.05497 0.0
H3746 H 0.62287 0.82157 0.05349 0.0
H3747 H 0.50266 0.73426 0.05138 0.0
H3748 H 0.54127 0.65295 0.0429 0.0
H3749 H 0.52837 0.70659 0.04297 0.0
H3750 H 0.62451 0.76926 0.05938 0.0
H3751 H 0.63744 0.71581 0.05906 0.0
C3752 C 0.58168 0.83986 0.05578 0.0
C3753 C 0.54258 0.82911 0.05639 0.0
C3754 C 0.59248 0.81247 0.05367 0.0
C3755 C 0.56443 0.77356 0.05219 0.0
C3756 C 0.52537 0.76373 0.05233 0.0
C3757 C 0.5147 0.79108 0.05438 0.0
C3758 C 0.56028 0.67884 0.04629 0.0
C3759 C 0.59091 0.6808 0.0508 0.0
C3760 C 0.55261 0.70946 0.04645 0.0
C3761 C 0.57528 0.74274 0.0512 0.0
C3762 C 0.60673 0.7448 0.05552 0.0
C3763 C 0.61423 0.71412 0.05536 0.0
H3764 H 0.30459 0.73902 0.05646 0.0
H3765 H 0.22378 0.78011 0.05532 0.0
H3766 H 0.35684 0.80284 0.05269 0.0
H3767 H 0.27625 0.84464 0.05165 0.0
H3768 H 0.38398 0.95787 0.0428 0.0
H3769 H 0.32974 0.89108 0.04264 0.0
H3770 H 0.38757 0.86018 0.06081 0.0
H3771 H 0.44079 0.92564 0.06094 0.0
C3772 C 0.29777 0.76137 0.05504 0.0
C3773 C 0.25999 0.75436 0.05605 0.0
C3774 C 0.32783 0.79823 0.05302 0.0
C3775 C 0.32104 0.8293 0.05202 0.0
C3776 C 0.28263 0.8215 0.05234 0.0
C3777 C 0.25244 0.78442 0.05438 0.0
C3778 C 0.38508 0.93665 0.04669 0.0
C3779 C 0.41676 0.94733 0.0519 0.0
C3780 C 0.35396 0.89839 0.04663 0.0
C3781 C 0.35427 0.86991 0.05165 0.0
C3782 C 0.38638 0.88081 0.05673 0.0
C3783 C 0.41696 0.91874 0.05685 0.0
H3784 H 0.162 0.54484 0.06357 0.0
H3785 H 0.13774 0.47782 0.0415 0.0
H3786 H 0.22719 0.55661 0.06359 0.0
H3787 H 0.20449 0.49068 0.0414 0.0
H3788 H 0.3098 0.48129 0.05161 0.0
H3789 H 0.24705 0.47466 0.04856 0.0
H3790 H 0.28821 0.59057 0.05733 0.0
H3791 H 0.35057 0.59642 0.06054 0.0
C3792 C 0.1706 0.53272 0.05865 0.0
C3793 C 0.14426 0.51016 0.05253 0.0
C3794 C 0.2085 0.53999 0.05862 0.0
C3795 C 0.22171 0.52516 0.05244 0.0
C3796 C 0.19544 0.50256 0.04628 0.0
C3797 C 0.15715 0.49521 0.04631 0.0
C3798 C 0.30575 0.50579 0.05259 0.0
C3799 C 0.33519 0.53954 0.0562 0.0
C3800 C 0.26969 0.50199 0.05087 0.0
C3801 C 0.26205 0.53178 0.05281 0.0
C3802 C 0.29261 0.56664 0.05589 0.0
C3803 C 0.32867 0.57039 0.05761 0.0
H3804 H 0.86099 0.59227 0.44986 0.0
H3805 H 0.80591 0.50209 0.46772 0.0
H3806 H 0.8142 0.61324 0.45262 0.0
H3807 H 0.75873 0.52281 0.4705 0.0
H3808 H 0.68827 0.58513 0.47567 0.0
H3809 H 0.74441 0.57535 0.47536 0.0
H3810 H 0.74505 0.5807 0.4491 0.0
H3811 H 0.68965 0.58999 0.44942 0.0
C3812 C 0.83966 0.57782 0.45459 0.0
C3813 C 0.83745 0.54592 0.45866 0.0
C3814 C 0.81252 0.58949 0.45611 0.0
C3815 C 0.78234 0.5695 0.46173 0.0
C3816 C 0.78169 0.53911 0.46619 0.0
C3817 C 0.80878 0.52729 0.46462 0.0
C3818 C 0.70097 0.58485 0.46987 0.0
C3819 C 0.68458 0.58847 0.46258 0.0
C3820 C 0.73289 0.57895 0.46967 0.0
C3821 C 0.74958 0.57755 0.4622 0.0
C3822 C 0.73358 0.58226 0.45497 0.0
C3823 C 0.70155 0.5874 0.45516 0.0
H3824 H 0.54211 0.15509 0.45149 0.0
H3825 H 0.48183 0.13569 0.47436 0.0
H3826 H 0.55554 0.22085 0.45128 0.0
H3827 H 0.49615 0.20301 0.47422 0.0
H3828 H 0.48588 0.30776 0.46372 0.0
H3829 H 0.47906 0.24514 0.46711 0.0
H3830 H 0.59208 0.28272 0.45705 0.0
H3831 H 0.59802 0.34478 0.4535 0.0
C3832 C 0.53201 0.16496 0.45656 0.0
C3833 C 0.51088 0.13986 0.46297 0.0
C3834 C 0.54015 0.20315 0.45647 0.0
C3835 C 0.52752 0.21784 0.46279 0.0
C3836 C 0.50636 0.1928 0.46924 0.0
C3837 C 0.49822 0.15423 0.46934 0.0
C3838 C 0.50977 0.30298 0.46253 0.0
C3839 C 0.54267 0.33124 0.45845 0.0
C3840 C 0.50587 0.26701 0.46444 0.0
C3841 C 0.53469 0.25835 0.46224 0.0
C3842 C 0.56887 0.28789 0.4587 0.0
C3843 C 0.57268 0.32378 0.45678 0.0
H3844 H 0.93137 0.4291 0.45087 0.0
H3845 H 0.95288 0.38751 0.47343 0.0
H3846 H 0.8661 0.3758 0.45067 0.0
H3847 H 0.88615 0.33382 0.47335 0.0
H3848 H 0.78177 0.21854 0.46321 0.0
H3849 H 0.84416 0.27488 0.46641 0.0
H3850 H 0.80452 0.34896 0.45647 0.0
H3851 H 0.74267 0.29223 0.45308 0.0
C3852 C 0.92212 0.40868 0.45585 0.0
C3853 C 0.94772 0.4127 0.46215 0.0
C3854 C 0.88419 0.37811 0.45579 0.0
C3855 C 0.87024 0.35042 0.46205 0.0
C3856 C 0.89577 0.3544 0.4684 0.0
C3857 C 0.93407 0.38524 0.46846 0.0
C3858 C 0.78607 0.24702 0.46199 0.0
C3859 C 0.75728 0.25108 0.458 0.0
C3860 C 0.82192 0.27942 0.4638 0.0
C3861 C 0.82994 0.31669 0.46157 0.0
C3862 C 0.79988 0.32076 0.45812 0.0
C3863 C 0.7641 0.28833 0.4563 0.0
H3864 H 0.53742 0.42304 0.97491 0.0
H3865 H 0.47138 0.38283 0.95276 0.0
H3866 H 0.54859 0.36803 0.97461 0.0
H3867 H 0.48206 0.32787 0.95242 0.0
H3868 H 0.48919 0.22083 0.95502 0.0
H3869 H 0.46941 0.26781 0.95865 0.0
H3870 H 0.58575 0.34771 0.96639 0.0
H3871 H 0.60496 0.30044 0.96286 0.0
C3872 C 0.52446 0.40177 0.97011 0.0
C3873 C 0.50316 0.4067 0.96392 0.0
C3874 C 0.53114 0.3705 0.96987 0.0
C3875 C 0.51609 0.34321 0.96351 0.0
C3876 C 0.49359 0.34775 0.95749 0.0
C3877 C 0.48755 0.3793 0.95765 0.0
C3878 C 0.51 0.24779 0.95784 0.0
C3879 C 0.54842 0.25672 0.95881 0.0
C3880 C 0.49891 0.27503 0.95979 0.0
C3881 C 0.52604 0.31187 0.96274 0.0
C3882 C 0.56389 0.31963 0.96422 0.0
C3883 C 0.57494 0.29246 0.96225 0.0
H3884 H 0.86862 0.30328 0.95723 0.0
H3885 H 0.79218 0.34707 0.9624 0.0
H3886 H 0.81763 0.23806 0.9609 0.0
H3887 H 0.74147 0.28247 0.9662 0.0
H3888 H 0.64861 0.16319 0.95759 0.0
H3889 H 0.70277 0.22815 0.95769 0.0
H3890 H 0.77081 0.18901 0.97062 0.0
H3891 H 0.71543 0.1227 0.9705 0.0
C3892 C 0.84153 0.29924 0.95955 0.0
C3893 C 0.83463 0.33043 0.95968 0.0
C3894 C 0.81213 0.26178 0.9616 0.0
C3895 C 0.77506 0.25466 0.96374 0.0
C3896 C 0.76935 0.28656 0.96446 0.0
C3897 C 0.79864 0.32382 0.96243 0.0
C3898 C 0.67489 0.16823 0.96055 0.0
C3899 C 0.67753 0.13751 0.96403 0.0
C3900 C 0.70608 0.20583 0.96066 0.0
C3901 C 0.74137 0.21428 0.96423 0.0
C3902 C 0.74411 0.18365 0.96782 0.0
C3903 C 0.71235 0.14568 0.9678 0.0
H3904 H 0.7413 0.48786 0.95759 0.0
H3905 H 0.78726 0.60994 0.96063 0.0
H3906 H 0.80387 0.49535 0.96128 0.0
H3907 H 0.85021 0.61799 0.96415 0.0
H3908 H 0.96049 0.61949 0.97254 0.0
H3909 H 0.89424 0.60817 0.97263 0.0
H3910 H 0.86278 0.52086 0.95409 0.0
H3911 H 0.92765 0.5316 0.9541 0.0
C3912 C 0.76445 0.51609 0.95936 0.0
C3913 C 0.75921 0.54821 0.95896 0.0
C3914 C 0.80061 0.52062 0.96134 0.0
C3915 C 0.83263 0.55748 0.96289 0.0
C3916 C 0.82646 0.58916 0.96306 0.0
C3917 C 0.79027 0.58458 0.96107 0.0
C3918 C 0.93926 0.59771 0.96855 0.0
C3919 C 0.94971 0.57673 0.96329 0.0
C3920 C 0.90125 0.59125 0.96857 0.0
C3921 C 0.8727 0.5633 0.96341 0.0
C3922 C 0.88333 0.54201 0.95829 0.0
C3923 C 0.92101 0.5486 0.95823 0.0
H3924 H 0.37358 0.44883 0.5533 0.0
H3925 H 0.44928 0.57142 0.55135 0.0
H3926 H 0.3183 0.45752 0.55318 0.0
H3927 H 0.3948 0.58139 0.5524 0.0
H3928 H 0.29372 0.59817 0.55187 0.0
H3929 H 0.34454 0.58452 0.54829 0.0
H3930 H 0.27711 0.47043 0.55881 0.0
H3931 H 0.22581 0.48383 0.56165 0.0
C3932 C 0.37845 0.47772 0.55286 0.0
C3933 C 0.41596 0.50909 0.55211 0.0
C3934 C 0.34643 0.4831 0.55297 0.0
C3935 C 0.35086 0.52042 0.55276 0.0
C3936 C 0.38893 0.55196 0.55228 0.0
C3937 C 0.42074 0.54633 0.5518 0.0
C3938 C 0.28925 0.56955 0.553 0.0
C3939 C 0.25544 0.54178 0.55686 0.0
C3940 C 0.31904 0.56187 0.55119 0.0
C3941 C 0.31649 0.52654 0.55345 0.0
C3942 C 0.2812 0.49797 0.55685 0.0
C3943 C 0.25118 0.50545 0.55847 0.0
H3944 H 0.48847 0.74067 0.55456 0.0
H3945 H 0.60715 0.77842 0.56014 0.0
H3946 H 0.50566 0.80652 0.55102 0.0
H3947 H 0.62495 0.84467 0.55643 0.0
H3948 H 0.62665 0.95991 0.56205 0.0
H3949 H 0.61661 0.89451 0.5626 0.0
H3950 H 0.53727 0.86196 0.54238 0.0
H3951 H 0.54793 0.92785 0.54186 0.0
C3952 C 0.51857 0.76292 0.55469 0.0
C3953 C 0.54653 0.75419 0.55748 0.0
C3954 C 0.52851 0.80086 0.55269 0.0
C3955 C 0.56676 0.83136 0.55348 0.0
C3956 C 0.59513 0.82217 0.55584 0.0
C3957 C 0.58511 0.78407 0.55783 0.0
C3958 C 0.60794 0.93897 0.55759 0.0
C3959 C 0.58877 0.94909 0.55179 0.0
C3960 C 0.60211 0.90138 0.55789 0.0
C3961 C 0.57617 0.87258 0.55252 0.0
C3962 C 0.5574 0.88312 0.54663 0.0
C3963 C 0.56379 0.92098 0.54626 0.0
H3964 H 0.34865 0.78894 0.55263 0.0
H3965 H 0.31177 0.8675 0.56083 0.0
H3966 H 0.28212 0.74109 0.54931 0.0
H3967 H 0.24496 0.81999 0.55739 0.0
H3968 H 0.13241 0.70458 0.5633 0.0
H3969 H 0.19779 0.76 0.56354 0.0
H3970 H 0.22404 0.71958 0.54137 0.0
H3971 H 0.1582 0.66414 0.5412 0.0
C3972 C 0.32643 0.79661 0.55336 0.0
C3973 C 0.33557 0.83229 0.55682 0.0
C3974 C 0.28813 0.76906 0.5515 0.0
C3975 C 0.2578 0.77632 0.55314 0.0
C3976 C 0.26736 0.81307 0.55614 0.0
C3977 C 0.30576 0.84067 0.55797 0.0
C3978 C 0.15199 0.70818 0.55839 0.0
C3979 C 0.14022 0.68055 0.55217 0.0
C3980 C 0.18949 0.73999 0.55849 0.0
C3981 C 0.21651 0.74461 0.55245 0.0
C3982 C 0.20423 0.7171 0.54613 0.0
C3983 C 0.16642 0.68556 0.54596 0.0
H3984 H 0.30791 0.04822 0.38181 0.0
H3985 H 0.18954 0.97412 0.3888 0.0
H3986 H 0.29817 0.1039 0.38227 0.0
H3987 H 0.18043 0.02898 0.39004 0.0
H3988 H 0.15697 0.12418 0.38735 0.0
H3989 H 0.17036 0.07309 0.38375 0.0
H3990 H 0.29054 0.14821 0.38976 0.0
H3991 H 0.27681 0.19974 0.39291 0.0
C3992 C 0.28005 0.04387 0.38361 0.0
C3993 C 0.24963 1.00655 0.38532 0.0
C3994 C 0.27432 0.0759 0.3839 0.0
C3995 C 0.23821 0.07158 0.38611 0.0
C3996 C 0.20831 0.03411 0.38802 0.0
C3997 C 0.21374 1.00228 0.38747 0.0
C3998 C 0.18654 0.13025 0.38752 0.0
C3999 C 0.21593 0.16628 0.39025 0.0
C4000 C 0.19424 0.10053 0.38567 0.0
C4001 C 0.23152 0.10553 0.38669 0.0
C4002 C 0.26146 0.14269 0.38886 0.0
C4003 C 0.25372 0.17259 0.39062 0.0
H4004 H 0.10914 0.25804 0.39402 0.0
H4005 H 0.0509 0.29183 0.37656 0.0
H4006 H 0.05552 0.19261 0.39386 0.0
H4007 H 0.99621 0.22536 0.37644 0.0
H4008 H 0.8916 0.11322 0.3894 0.0
H4009 H 0.9436 0.17828 0.38588 0.0
H4010 H 0.02399 0.13624 0.38514 0.0
H4011 H 0.97222 0.0718 0.38871 0.0
C4012 C 0.08485 0.25154 0.39011 0.0
C4013 C 0.08439 0.28054 0.38534 0.0
C4014 C 0.05407 0.21369 0.38996 0.0
C4015 C 0.02147 0.20335 0.38508 0.0
C4016 C 0.02083 0.23226 0.38028 0.0
C4017 C 0.05219 0.27036 0.38033 0.0
C4018 C 0.92003 0.11763 0.38809 0.0
C4019 C 0.92772 0.08726 0.38919 0.0
C4020 C 0.94995 0.155 0.38614 0.0
C4021 C 0.98823 0.16278 0.38537 0.0
C4022 C 0.99507 0.13156 0.38582 0.0
C4023 C 0.96527 0.0944 0.38772 0.0
H4024 H 0.80583 0.82402 0.39904 0.0
H4025 H 0.81694 0.84289 0.37308 0.0
H4026 H 0.87009 0.83212 0.39964 0.0
H4027 H 0.88234 0.85151 0.37367 0.0
H4028 H 0.01405 0.92228 0.38341 0.0
H4029 H 0.94697 0.90171 0.37985 0.0
H4030 H 0.90833 0.80218 0.39541 0.0
H4031 H 0.97528 0.82303 0.39896 0.0
C4032 C 0.82189 0.82926 0.39342 0.0
C4033 C 0.8063 0.83263 0.38601 0.0
C4034 C 0.85875 0.83375 0.39375 0.0
C4035 C 0.88146 0.84226 0.38669 0.0
C4036 C 0.8656 0.84492 0.37921 0.0
C4037 C 0.82811 0.83966 0.37886 0.0
C4038 C 0.99121 0.89518 0.38578 0.0
C4039 C 0.99983 0.87392 0.39136 0.0
C4040 C 0.95276 0.88344 0.38377 0.0
C4041 C 0.92216 0.85047 0.38741 0.0
C4042 C 0.93113 0.82791 0.39256 0.0
C4043 C 0.96948 0.83953 0.39452 0.0
H4044 H 0.32033 0.86417 0.7876 0.0
H4045 H 0.37748 0.9542 0.80551 0.0
H4046 H 0.37413 0.85269 0.78761 0.0
H4047 H 0.43208 0.94241 0.80558 0.0
H4048 H 0.53944 0.94173 0.79356 0.0
H4049 H 0.48502 0.95077 0.79696 0.0
H4050 H 0.40803 0.82786 0.79497 0.0
H4051 H 0.46264 0.81934 0.7914 0.0
C4052 C 0.34439 0.88151 0.7916 0.0
C4053 C 0.34454 0.91045 0.7965 0.0
C4054 C 0.37529 0.87455 0.79167 0.0
C4055 C 0.40771 0.89634 0.79664 0.0
C4056 C 0.40778 0.92509 0.80165 0.0
C4057 C 0.37641 0.93184 0.80163 0.0
C4058 C 0.51106 0.91656 0.79418 0.0
C4059 C 0.50543 0.87977 0.79236 0.0
C4060 C 0.47971 0.9217 0.79609 0.0
C4061 C 0.44178 0.89017 0.79614 0.0
C4062 C 0.43662 0.853 0.79486 0.0
C4063 C 0.46801 0.84791 0.79295 0.0
H4064 H 0.27372 0.67749 0.79336 0.0
H4065 H 0.15371 0.64356 0.7914 0.0
H4066 H 0.25656 0.61206 0.79692 0.0
H4067 H 0.13575 0.57772 0.79542 0.0
H4068 H 0.1204 0.45688 0.7904 0.0
H4069 H 0.13263 0.52302 0.78996 0.0
H4070 H 0.23355 0.55926 0.80508 0.0
H4071 H 0.22161 0.49319 0.80514 0.0
C4072 C 0.2435 0.6562 0.79407 0.0
C4073 C 0.21514 0.66586 0.79221 0.0
C4074 C 0.23345 0.61835 0.79611 0.0
C4075 C 0.19454 0.58877 0.79642 0.0
C4076 C 0.16604 0.59918 0.7951 0.0
C4077 C 0.17622 0.6372 0.79297 0.0
C4078 C 0.1446 0.47901 0.79378 0.0
C4079 C 0.16959 0.46995 0.79794 0.0
C4080 C 0.15173 0.5171 0.79356 0.0
C4081 C 0.18428 0.54724 0.79747 0.0
C4082 C 0.20851 0.53744 0.80187 0.0
C4083 C 0.20141 0.49938 0.80204 0.0
H4084 H 0.61871 0.72226 0.80799 0.0
H4085 H 0.60411 0.75829 0.78409 0.0
H4086 H 0.55144 0.66954 0.80765 0.0
H4087 H 0.53828 0.70605 0.78368 0.0
H4088 H 0.4136 0.62699 0.78558 0.0
H4089 H 0.47577 0.68322 0.78896 0.0
H4090 H 0.51005 0.60894 0.80096 0.0
H4091 H 0.44723 0.55306 0.79774 0.0
C4092 C 0.60122 0.71903 0.80269 0.0
C4093 C 0.61682 0.74473 0.79611 0.0
C4094 C 0.56269 0.68878 0.80248 0.0
C4095 C 0.53899 0.68368 0.79568 0.0
C4096 C 0.55497 0.70947 0.78912 0.0
C4097 C 0.59313 0.73944 0.78934 0.0
C4098 C 0.43391 0.62303 0.78923 0.0
C4099 C 0.4255 0.58587 0.79151 0.0
C4100 C 0.46984 0.65511 0.79106 0.0
C4101 C 0.49845 0.65069 0.79512 0.0
C4102 C 0.48885 0.61365 0.79788 0.0
C4103 C 0.4528 0.58157 0.79607 0.0
H4104 H 0.15635 0.56046 0.28499 0.0
H4105 H 0.26802 0.62709 0.29608 0.0
H4106 H 0.14099 0.61054 0.28836 0.0
H4107 H 0.25247 0.6765 0.29993 0.0
H4108 H 0.23985 0.78068 0.29582 0.0
H4109 H 0.24962 0.7263 0.29436 0.0
H4110 H 0.12646 0.6489 0.29607 0.0
H4111 H 0.11685 0.70446 0.2968 0.0
C4112 C 0.17696 0.58518 0.28848 0.0
C4113 C 0.21317 0.58962 0.29037 0.0
C4114 C 0.16829 0.61422 0.29041 0.0
C4115 C 0.19568 0.64862 0.29428 0.0
C4116 C 0.23084 0.65138 0.29671 0.0
C4117 C 0.23959 0.62254 0.29469 0.0
C4118 C 0.21471 0.75211 0.29582 0.0
C4119 C 0.17746 0.74715 0.29638 0.0
C4120 C 0.22037 0.72048 0.29512 0.0
C4121 C 0.189 0.6824 0.29521 0.0
C4122 C 0.15157 0.67745 0.29586 0.0
C4123 C 0.14589 0.7094 0.29634 0.0
H4124 H 0.37655 0.45273 0.28937 0.0
H4125 H 0.32174 0.49562 0.30555 0.0
H4126 H 0.4324 0.51776 0.2883 0.0
H4127 H 0.37774 0.55932 0.305 0.0
H4128 H 0.45824 0.6778 0.29451 0.0
H4129 H 0.40794 0.61271 0.2975 0.0
H4130 H 0.48748 0.57145 0.29281 0.0
H4131 H 0.53726 0.63732 0.28929 0.0
C4132 C 0.37671 0.47589 0.29281 0.0
C4133 C 0.34438 0.46891 0.29746 0.0
C4134 C 0.40897 0.51338 0.29226 0.0
C4135 C 0.41007 0.5448 0.29646 0.0
C4136 C 0.37816 0.53689 0.30141 0.0
C4137 C 0.34585 0.49988 0.30181 0.0
C4138 C 0.46536 0.655 0.29442 0.0
C4139 C 0.50203 0.66297 0.29185 0.0
C4140 C 0.43629 0.6172 0.29612 0.0
C4141 C 0.4429 0.5858 0.29541 0.0
C4142 C 0.48057 0.59427 0.29331 0.0
C4143 C 0.50961 0.63229 0.29148 0.0
H4144 H 0.41304 0.83187 0.29899 0.0
H4145 H 0.4513 0.92991 0.2831 0.0
H4146 H 0.48026 0.85218 0.30234 0.0
H4147 H 0.51842 0.95047 0.28643 0.0
H4148 H 0.6198 0.92673 0.28267 0.0
H4149 H 0.55559 0.91894 0.28219 0.0
H4150 H 0.54551 0.90314 0.30827 0.0
H4151 H 0.61083 0.91157 0.30874 0.0
C4152 C 0.43583 0.85871 0.29651 0.0
C4153 C 0.42701 0.8797 0.2909 0.0
C4154 C 0.47434 0.87027 0.29839 0.0
C4155 C 0.50479 0.90277 0.29459 0.0
C4156 C 0.4957 0.92511 0.2894 0.0
C4157 C 0.45727 0.91368 0.28757 0.0
C4158 C 0.60418 0.92226 0.28833 0.0
C4159 C 0.62035 0.91989 0.29575 0.0
C4160 C 0.56739 0.91797 0.28806 0.0
C4161 C 0.54536 0.91064 0.29519 0.0
C4162 C 0.56176 0.90884 0.30267 0.0
C4163 C 0.59917 0.91395 0.30296 0.0
H4164 H 0.04103 0.78431 0.89104 0.0
H4165 H 0.10986 0.89177 0.8785 0.0
H4166 H 0.98669 0.79573 0.89127 0.0
H4167 H 0.05536 0.90275 0.87816 0.0
H4168 H 0.97281 0.93817 0.88894 0.0
H4169 H 0.022 0.92238 0.88557 0.0
H4170 H 0.93659 0.80085 0.88634 0.0
H4171 H 0.88788 0.81758 0.89032 0.0
C4172 C 0.04396 0.80983 0.8881 0.0
C4173 C 0.07929 0.83688 0.88465 0.0
C4174 C 0.01271 0.81652 0.88818 0.0
C4175 C 0.01595 0.8505 0.88479 0.0
C4176 C 0.05132 0.87668 0.88104 0.0
C4177 C 0.08262 0.87019 0.88108 0.0
C4178 C 0.96436 0.90811 0.88811 0.0
C4179 C 0.92639 0.87921 0.8898 0.0
C4180 C 0.99275 0.89879 0.88617 0.0
C4181 C 0.98407 0.86005 0.88572 0.0
C4182 C 0.94512 0.83103 0.8868 0.0
C4183 C 0.91673 0.84051 0.88889 0.0
H4184 H 0.29757 0.29338 0.87755 0.0
H4185 H 0.19616 0.25522 0.89246 0.0
H4186 H 0.28676 0.22726 0.87743 0.0
H4187 H 0.1852 0.19004 0.89228 0.0
H4188 H 0.15404 0.07067 0.8873 0.0
H4189 H 0.16663 0.1349 0.88349 0.0
H4190 H 0.28842 0.18009 0.88732 0.0
H4191 H 0.27549 0.11533 0.89104 0.0
C4192 C 0.27287 0.27097 0.88073 0.0
C4193 C 0.24796 0.27976 0.88506 0.0
C4194 C 0.26669 0.23308 0.88068 0.0
C4195 C 0.2349 0.20309 0.88479 0.0
C4196 C 0.2096 0.21201 0.88892 0.0
C4197 C 0.21612 0.24967 0.88909 0.0
C4198 C 0.18364 0.09399 0.88694 0.0
C4199 C 0.21382 0.08785 0.88931 0.0
C4200 C 0.19088 0.13098 0.8849 0.0
C4201 C 0.22852 0.16293 0.88522 0.0
C4202 C 0.25913 0.15621 0.88695 0.0
C4203 C 0.25181 0.11905 0.88902 0.0
H4204 H 0.79647 0.04447 0.87812 0.0
H4205 H 0.83448 0.97874 0.89223 0.0
H4206 H 0.86259 0.09947 0.87808 0.0
H4207 H 0.89997 0.03265 0.89204 0.0
H4208 H 0.01929 0.12116 0.88665 0.0
H4209 H 0.95451 0.07024 0.88296 0.0
H4210 H 0.91032 0.14657 0.88828 0.0
H4211 H 0.97557 0.19764 0.8919 0.0
C4212 C 0.81885 0.04159 0.88114 0.0
C4213 C 0.81001 1.00731 0.88525 0.0
C4214 C 0.85676 0.07311 0.88113 0.0
C4215 C 0.88679 0.07051 0.88501 0.0
C4216 C 0.87788 0.03569 0.88889 0.0
C4217 C 0.84011 1.00475 0.88905 0.0
C4218 C 0.99602 0.12758 0.88665 0.0
C4219 C 1.00258 0.16356 0.88941 0.0
C4220 C 0.95875 0.09823 0.88467 0.0
C4221 C 0.92701 0.10405 0.88544 0.0
C4222 C 0.93406 0.14112 0.88756 0.0
C4223 C 0.97149 0.17053 0.88958 0.0
H4224 H 0.88194 0.32501 0.73103 0.0
H4225 H 0.94465 0.36519 0.70839 0.0
H4226 H 0.87018 0.37848 0.73106 0.0
H4227 H 0.9318 0.41909 0.70832 0.0
H4228 H 0.94293 0.53488 0.71851 0.0
H4229 H 0.94915 0.47855 0.71535 0.0
H4230 H 0.83479 0.4043 0.72492 0.0
H4231 H 0.82942 0.46095 0.72825 0.0
C4232 C 0.89308 0.34516 0.72599 0.0
C4233 C 0.91444 0.3407 0.71971 0.0
C4234 C 0.88583 0.37579 0.72597 0.0
C4235 C 0.89944 0.40306 0.71963 0.0
C4236 C 0.92087 0.39873 0.71331 0.0
C4237 C 0.92822 0.36781 0.71334 0.0
C4238 C 0.91867 0.50637 0.71965 0.0
C4239 C 0.88555 0.50218 0.72353 0.0
C4240 C 0.92222 0.47401 0.71786 0.0
C4241 C 0.8928 0.43672 0.72 0.0
C4242 C 0.85843 0.43255 0.72333 0.0
C4243 C 0.85496 0.46492 0.72512 0.0
H4244 H 0.5693 0.44247 0.73303 0.0
H4245 H 0.61875 0.40961 0.7135 0.0
H4246 H 0.61556 0.51053 0.73043 0.0
H4247 H 0.66546 0.4778 0.71088 0.0
H4248 H 0.73482 0.61024 0.7062 0.0
H4249 H 0.67868 0.54441 0.70674 0.0
H4250 H 0.68486 0.54747 0.733 0.0
H4251 H 0.73994 0.61213 0.73247 0.0
C4252 C 0.58935 0.44996 0.72801 0.0
C4253 C 0.59016 0.42087 0.7234 0.0
C4254 C 0.61615 0.48891 0.72657 0.0
C4255 C 0.64455 0.49976 0.72048 0.0
C4256 C 0.64384 0.47062 0.71555 0.0
C4257 C 0.61709 0.43157 0.71704 0.0
C4258 C 0.72358 0.59693 0.71207 0.0
C4259 C 0.74181 0.61643 0.71928 0.0
C4260 C 0.69169 0.55917 0.71238 0.0
C4261 C 0.67699 0.54061 0.71992 0.0
C4262 C 0.69477 0.56087 0.72709 0.0
C4263 C 0.72665 0.59802 0.72677 0.0
H4264 H 0.46507 0.12792 0.71135 0.0
H4265 H 0.50311 0.22804 0.72663 0.0
H4266 H 0.53103 0.13862 0.71117 0.0
H4267 H 0.56813 0.23901 0.72641 0.0
H4268 H 0.68747 0.27138 0.72116 0.0
H4269 H 0.62299 0.25862 0.7176 0.0
H4270 H 0.5789 0.13655 0.72076 0.0
H4271 H 0.64396 0.14968 0.72423 0.0
C4272 C 0.48729 0.15213 0.71466 0.0
C4273 C 0.47842 0.17669 0.71912 0.0
C4274 C 0.52518 0.15834 0.71455 0.0
C4275 C 0.55517 0.18987 0.71873 0.0
C4276 C 0.54619 0.21478 0.72301 0.0
C4277 C 0.50857 0.20822 0.72321 0.0
C4278 C 0.66434 0.24172 0.72071 0.0
C4279 C 0.67092 0.21151 0.72282 0.0
C4280 C 0.62718 0.23437 0.71881 0.0
C4281 C 0.59546 0.19655 0.71903 0.0
C4282 C 0.60258 0.16598 0.72048 0.0
C4283 C 0.63993 0.17342 0.72241 0.0
H4284 H 0.1321 0.16119 0.13289 0.0
H4285 H 0.19896 0.26491 0.11895 0.0
H4286 H 0.08459 0.18106 0.13587 0.0
H4287 H 0.1517 0.28508 0.12191 0.0
H4288 H 0.02899 0.26704 0.11695 0.0
H4289 H 0.0852 0.25859 0.11677 0.0
H4290 H 0.06845 0.22863 0.14229 0.0
H4291 H 0.01208 0.23786 0.14246 0.0
C4292 C 0.13751 0.18912 0.13079 0.0
C4293 C 0.16969 0.21192 0.12585 0.0
C4294 C 0.11015 0.20043 0.13244 0.0
C4295 C 0.11405 0.23457 0.12908 0.0
C4296 C 0.14755 0.25846 0.12455 0.0
C4297 C 0.175 0.24726 0.12295 0.0
C4298 C 0.03779 0.25941 0.12256 0.0
C4299 C 0.01639 0.25341 0.12973 0.0
C4300 C 0.07013 0.25468 0.12248 0.0
C4301 C 0.08164 0.24309 0.12953 0.0
C4302 C 0.06048 0.23763 0.13676 0.0
C4303 C 0.02845 0.24323 0.13688 0.0
H4304 H 0.93988 0.01188 0.1279 0.0
H4305 H 0.82003 0.97499 0.12409 0.0
H4306 H 0.92326 0.94616 0.13125 0.0
H4307 H 0.80267 0.90888 0.12774 0.0
H4308 H 0.79536 0.79195 0.12178 0.0
H4309 H 0.80623 0.85768 0.1215 0.0
H4310 H 0.89607 0.8914 0.13956 0.0
H4311 H 0.88512 0.82549 0.13967 0.0
C4312 C 0.90971 0.98987 0.12817 0.0
C4313 C 0.88124 0.99878 0.12588 0.0
C4314 C 0.90005 0.95194 0.13006 0.0
C4315 C 0.86151 0.92163 0.12972 0.0
C4316 C 0.83273 0.93112 0.12795 0.0
C4317 C 0.8425 0.9692 0.12602 0.0
C4318 C 0.81682 0.81338 0.1258 0.0
C4319 C 0.83896 0.80368 0.13084 0.0
C4320 C 0.82306 0.85112 0.12568 0.0
C4321 C 0.85207 0.88034 0.13053 0.0
C4322 C 0.87367 0.87006 0.1357 0.0
C4323 C 0.86715 0.83218 0.13585 0.0
H4324 H 0.29389 0.04849 0.13909 0.0
H4325 H 0.2622 0.10396 0.12054 0.0
H4326 H 0.22763 0.99383 0.13911 0.0
H4327 H 0.19695 0.05013 0.12053 0.0
H4328 H 0.07515 0.96158 0.12412 0.0
H4329 H 0.13777 0.0166 0.12783 0.0
H4330 H 0.18429 0.94032 0.13038 0.0
H4331 H 0.12136 0.88549 0.12682 0.0
C4332 C 0.27288 0.04922 0.13507 0.0
C4333 C 0.28365 0.0806 0.12978 0.0
C4334 C 0.23484 0.01782 0.13506 0.0
C4335 C 0.20655 0.01742 0.12985 0.0
C4336 C 0.2174 0.0494 0.12474 0.0
C4337 C 0.25522 0.08032 0.12469 0.0
C4338 C 0.09836 0.95648 0.12582 0.0
C4339 C 0.09321 0.91917 0.12532 0.0
C4340 C 0.13451 0.98807 0.12781 0.0
C4341 C 0.16654 0.98319 0.12929 0.0
C4342 C 0.16047 0.94537 0.12935 0.0
C4343 C 0.12431 0.91382 0.12735 0.0
H4344 H 0.94321 0.96781 0.62714 0.0
H4345 H 0.82156 0.88826 0.62463 0.0
H4346 H 0.9299 0.019 0.63089 0.0
H4347 H 0.80787 0.93968 0.62832 0.0
H4348 H 0.79922 0.04457 0.6383 0.0
H4349 H 0.81076 0.98969 0.63817 0.0
H4350 H 0.90812 0.05335 0.6222 0.0
H4351 H 0.89646 0.10714 0.62226 0.0
C4352 C 0.91349 0.96089 0.62775 0.0
C4353 C 0.88344 0.92387 0.62573 0.0
C4354 C 0.9058 0.99038 0.62976 0.0
C4355 C 0.8678 0.98376 0.62977 0.0
C4356 C 0.83745 0.94585 0.62841 0.0
C4357 C 0.84523 0.91624 0.62636 0.0
C4358 C 0.82312 0.04677 0.6348 0.0
C4359 C 0.84668 0.08022 0.63025 0.0
C4360 C 0.82971 0.01531 0.63471 0.0
C4361 C 0.86062 0.01708 0.63023 0.0
C4362 C 0.88446 0.05096 0.62583 0.0
C4363 C 0.87752 0.08185 0.62581 0.0
H4364 H 0.12446 0.01513 0.62614 0.0
H4365 H 0.20379 0.97213 0.62537 0.0
H4366 H 0.07237 0.95122 0.62995 0.0
H4367 H 0.15147 0.9076 0.62909 0.0
H4368 H 0.04444 0.79497 0.63857 0.0
H4369 H 0.09945 0.8613 0.63859 0.0
H4370 H 0.03954 0.89457 0.62145 0.0
H4371 H 0.9856 0.82937 0.62139 0.0
C4372 C 0.13108 0.99231 0.62716 0.0
C4373 C 0.16832 0.9988 0.6256 0.0
C4374 C 0.10109 0.95545 0.6292 0.0
C4375 C 0.10745 0.92393 0.62968 0.0
C4376 C 0.14548 0.93113 0.62881 0.0
C4377 C 0.17559 0.96818 0.62674 0.0
C4378 C 0.04307 0.81657 0.63485 0.0
C4379 C 1.01062 0.80664 0.62994 0.0
C4380 C 0.07462 0.85457 0.63485 0.0
C4381 C 0.07392 0.88356 0.63008 0.0
C4382 C 0.04105 0.87345 0.62532 0.0
C4383 C 1.01007 0.83572 0.62523 0.0
H4384 H 0.29626 0.29387 0.63741 0.0
H4385 H 0.2579 0.19174 0.62271 0.0
H4386 H 0.23024 0.28331 0.63744 0.0
H4387 H 0.19289 0.18109 0.62279 0.0
H4388 H 0.07347 0.15 0.62773 0.0
H4389 H 0.13778 0.16279 0.63149 0.0
H4390 H 0.18265 0.28454 0.6276 0.0
H4391 H 0.11776 0.2714 0.62393 0.0
C4392 C 0.27386 0.26912 0.63425 0.0
C4393 C 0.28262 0.24394 0.63 0.0
C4394 C 0.23601 0.26307 0.63424 0.0
C4395 C 0.20596 0.23114 0.63017 0.0
C4396 C 0.21486 0.20562 0.62612 0.0
C4397 C 0.25246 0.21198 0.62601 0.0
C4398 C 0.09674 0.17964 0.62806 0.0
C4399 C 0.0904 0.20972 0.62569 0.0
C4400 C 0.13381 0.187 0.63007 0.0
C4401 C 0.16572 0.22469 0.62972 0.0
C4402 C 0.15884 0.25521 0.62799 0.0
C4403 C 0.12159 0.24776 0.62594 0.0
H4404 H 0.55497 0.14545 0.21899 0.0
H4405 H 0.63028 0.26199 0.227 0.0
H4406 H 0.6108 0.13863 0.21566 0.0
H4407 H 0.68636 0.25597 0.22349 0.0
H4408 H 0.76881 0.21305 0.2296 0.0
H4409 H 0.71501 0.22392 0.22973 0.0
H4410 H 0.66866 0.15309 0.20825 0.0
H4411 H 0.72324 0.14101 0.20825 0.0
C4412 C 0.58359 0.17017 0.21971 0.0
C4413 C 0.58824 0.20442 0.22314 0.0
C4414 C 0.61571 0.16626 0.21782 0.0
C4415 C 0.65341 0.19643 0.21942 0.0
C4416 C 0.65791 0.2317 0.22232 0.0
C4417 C 0.62577 0.23553 0.2242 0.0
C4418 C 0.74739 0.19961 0.22485 0.0
C4419 C 0.75063 0.17589 0.21891 0.0
C4420 C 0.71645 0.20639 0.22487 0.0
C4421 C 0.68735 0.19 0.21894 0.0
C4422 C 0.69041 0.16625 0.21294 0.0
C4423 C 0.72177 0.15937 0.21292 0.0
H4424 H 0.86639 0.59228 0.21225 0.0
H4425 H 0.96962 0.62804 0.22624 0.0
H4426 H 0.85539 0.52667 0.21167 0.0
H4427 H 0.95836 0.56235 0.22609 0.0
H4428 H 0.93822 0.44303 0.22419 0.0
H4429 H 0.95524 0.50875 0.22031 0.0
H4430 H 0.83392 0.47308 0.21929 0.0
H4431 H 0.81777 0.40782 0.2226 0.0
C4432 C 0.88703 0.58598 0.2151 0.0
C4433 C 0.91918 0.6151 0.21916 0.0
C4434 C 0.88057 0.54822 0.21489 0.0
C4435 C 0.90575 0.53843 0.21889 0.0
C4436 C 0.93854 0.56829 0.22279 0.0
C4437 C 0.9451 0.60613 0.22292 0.0
C4438 C 0.91541 0.44913 0.22273 0.0
C4439 C 0.87666 0.42028 0.22359 0.0
C4440 C 0.92505 0.48705 0.2207 0.0
C4441 C 0.89611 0.49705 0.21961 0.0
C4442 C 0.85735 0.46716 0.21993 0.0
C4443 C 0.84787 0.42941 0.22183 0.0
H4444 H 0.48162 0.34729 0.2327 0.0
H4445 H 0.4783 0.35892 0.20661 0.0
H4446 H 0.5462 0.40214 0.23314 0.0
H4447 H 0.54424 0.41505 0.20707 0.0
H4448 H 0.68071 0.47598 0.21279 0.0
H4449 H 0.61242 0.42901 0.21031 0.0
H4450 H 0.58127 0.47199 0.23138 0.0
H4451 H 0.64935 0.51834 0.23384 0.0
C4452 C 0.49455 0.36187 0.22703 0.0
C4453 C 0.47458 0.34858 0.21961 0.0
C4454 C 0.53173 0.39369 0.2273 0.0
C4455 C 0.55054 0.41346 0.22016 0.0
C4456 C 0.5306 0.40051 0.2127 0.0
C4457 C 0.49278 0.36859 0.21243 0.0
C4458 C 0.65904 0.47611 0.21671 0.0
C4459 C 0.67024 0.50107 0.22345 0.0
C4460 C 0.61992 0.44918 0.2153 0.0
C4461 C 0.59123 0.44636 0.22068 0.0
C4462 C 0.60253 0.47296 0.22716 0.0
C4463 C 0.6415 0.49985 0.22854 0.0
H4464 H 0.62974 0.49227 0.06087 0.0
H4465 H 0.51347 0.44475 0.05218 0.0
H4466 H 0.62009 0.42699 0.06223 0.0
H4467 H 0.50317 0.37998 0.05349 0.0
H4468 H 0.48257 0.26532 0.0573 0.0
H4469 H 0.49634 0.32891 0.062 0.0
H4470 H 0.61338 0.37778 0.05323 0.0
H4471 H 0.59961 0.31411 0.04887 0.0
C4472 C 0.60191 0.4677 0.05938 0.0
C4473 C 0.57178 0.47313 0.05667 0.0
C4474 C 0.59631 0.43041 0.06016 0.0
C4475 C 0.56059 0.39803 0.05812 0.0
C4476 C 0.53056 0.40391 0.05543 0.0
C4477 C 0.53624 0.44105 0.05469 0.0
C4478 C 0.51172 0.28942 0.05682 0.0
C4479 C 0.54008 0.28519 0.05274 0.0
C4480 C 0.51951 0.32594 0.05937 0.0
C4481 C 0.55566 0.35868 0.05777 0.0
C4482 C 0.58526 0.35338 0.05457 0.0
C4483 C 0.57748 0.31687 0.05208 0.0
H4484 H 0.78036 0.32845 0.04907 0.0
H4485 H 0.82645 0.25458 0.05502 0.0
H4486 H 0.71613 0.27783 0.0531 0.0
H4487 H 0.76231 0.20385 0.05921 0.0
H4488 H 0.64516 0.11315 0.0479 0.0
H4489 H 0.71066 0.16686 0.04927 0.0
H4490 H 0.66775 0.23064 0.06266 0.0
H4491 H 0.60188 0.17538 0.0615 0.0
C4492 C 0.77697 0.30208 0.05169 0.0
C4493 C 0.80801 0.29515 0.05175 0.0
C4494 C 0.7402 0.273 0.05396 0.0
C4495 C 0.73408 0.23657 0.05628 0.0
C4496 C 0.76613 0.23145 0.05729 0.0
C4497 C 0.8029 0.26058 0.05503 0.0
C4498 C 0.64997 0.13824 0.05129 0.0
C4499 C 0.61902 0.14011 0.05472 0.0
C4500 C 0.68741 0.16903 0.05211 0.0
C4501 C 0.69452 0.20276 0.05623 0.0
C4502 C 0.6632 0.20488 0.05953 0.0
C4503 C 0.62566 0.17355 0.05883 0.0
H4504 H 0.93081 0.49559 0.04261 0.0
H4505 H 0.9578 0.53628 0.06745 0.0
H4506 H 0.87525 0.50454 0.04292 0.0
H4507 H 0.90198 0.54556 0.06772 0.0
H4508 H 0.83945 0.61142 0.05662 0.0
H4509 H 0.88459 0.59018 0.06072 0.0
H4510 H 0.81161 0.47971 0.04932 0.0
H4511 H 0.76713 0.50151 0.04512 0.0
C4512 C 0.92461 0.50597 0.04817 0.0
C4513 C 0.94886 0.51549 0.05498 0.0
C4514 C 0.89257 0.51083 0.04838 0.0
C4515 C 0.88397 0.52523 0.05539 0.0
C4516 C 0.9079 0.53433 0.06225 0.0
C4517 C 0.93992 0.5292 0.06206 0.0
C4518 C 0.83237 0.58204 0.05535 0.0
C4519 C 0.80024 0.55802 0.05055 0.0
C4520 C 0.85815 0.56987 0.05767 0.0
C4521 C 0.85198 0.53364 0.05515 0.0
C4522 C 0.81736 0.50806 0.05119 0.0
C4523 C 0.79172 0.52027 0.04887 0.0
H4524 H 0.46418 0.55019 0.44758 0.0
H4525 H 0.47133 0.5669 0.47365 0.0
H4526 H 0.39606 0.53299 0.44795 0.0
H4527 H 0.40373 0.54936 0.47401 0.0
H4528 H 0.2754 0.48618 0.47357 0.0
H4529 H 0.33663 0.48833 0.4708 0.0
H4530 H 0.36294 0.57447 0.45226 0.0
H4531 H 0.30196 0.57264 0.45515 0.0
C4532 C 0.45117 0.55001 0.45337 0.0
C4533 C 0.4731 0.56024 0.46057 0.0
C4534 C 0.41232 0.54014 0.45358 0.0
C4535 C 0.39469 0.53954 0.46102 0.0
C4536 C 0.4165 0.54906 0.46821 0.0
C4537 C 0.45532 0.55956 0.46799 0.0
C4538 C 0.29374 0.50452 0.46872 0.0
C4539 C 0.28428 0.52922 0.46455 0.0
C4540 C 0.32875 0.50594 0.46717 0.0
C4541 C 0.35451 0.53178 0.46137 0.0
C4542 C 0.34346 0.55413 0.45672 0.0
C4543 C 0.30871 0.55313 0.45837 0.0
H4544 H 0.50911 0.76568 0.46036 0.0
H4545 H 0.62666 0.84711 0.46682 0.0
H4546 H 0.49911 0.81897 0.45629 0.0
H4547 H 0.61672 0.90041 0.46284 0.0
H4548 H 0.54947 0.96237 0.47227 0.0
H4549 H 0.56818 0.91289 0.47171 0.0
H4550 H 0.52438 0.88425 0.44715 0.0
H4551 H 0.50728 0.93538 0.4476 0.0
C4552 C 0.53333 0.79488 0.46047 0.0
C4553 C 0.56871 0.80257 0.46383 0.0
C4554 C 0.52758 0.82532 0.45821 0.0
C4555 C 0.55704 0.86363 0.45938 0.0
C4556 C 0.59357 0.87104 0.46194 0.0
C4557 C 0.59939 0.84066 0.46412 0.0
C4558 C 0.54389 0.94547 0.46677 0.0
C4559 C 0.52667 0.95211 0.46001 0.0
C4560 C 0.55494 0.91756 0.4664 0.0
C4561 C 0.54795 0.89511 0.45935 0.0
C4562 C 0.53027 0.90145 0.45261 0.0
C4563 C 0.52038 0.93038 0.45289 0.0
H4564 H 0.25296 0.81707 0.45989 0.0
H4565 H 0.33308 0.78262 0.4684 0.0
H4566 H 0.20733 0.75041 0.45612 0.0
H4567 H 0.28783 0.71586 0.46456 0.0
H4568 H 0.17117 0.60952 0.4728 0.0
H4569 H 0.22675 0.67426 0.47207 0.0
H4570 H 0.18985 0.6902 0.44838 0.0
H4571 H 0.13517 0.62493 0.44895 0.0
C4572 C 0.26149 0.79543 0.46054 0.0
C4573 C 0.29622 0.80453 0.4644 0.0
C4574 C 0.23541 0.7573 0.45843 0.0
C4575 C 0.24382 0.72794 0.46022 0.0
C4576 C 0.28046 0.73793 0.46325 0.0
C4577 C 0.30651 0.77606 0.46534 0.0
C4578 C 0.17533 0.62644 0.46736 0.0
C4579 C 0.14847 0.61217 0.46099 0.0
C4580 C 0.20724 0.66352 0.46692 0.0
C4581 C 0.2127 0.68717 0.46013 0.0
C4582 C 0.18631 0.67263 0.45368 0.0
C4583 C 0.1548 0.63533 0.45406 0.0
H4584 H 0.49677 0.60984 0.97183 0.0
H4585 H 0.54362 0.62432 0.94753 0.0
H4586 H 0.5082 0.67519 0.97155 0.0
H4587 H 0.55514 0.69033 0.94726 0.0
H4588 H 0.62372 0.81716 0.95803 0.0
H4589 H 0.59992 0.74976 0.95449 0.0
H4590 H 0.48963 0.71887 0.96523 0.0
H4591 H 0.51395 0.78656 0.96882 0.0
C4592 C 0.50903 0.62678 0.96637 0.0
C4593 C 0.51971 0.612 0.95973 0.0
C4594 C 0.51526 0.66422 0.96618 0.0
C4595 C 0.53225 0.68781 0.95935 0.0
C4596 C 0.54208 0.6728 0.95261 0.0
C4597 C 0.53569 0.63513 0.95279 0.0
C4598 C 0.5941 0.79596 0.95941 0.0
C4599 C 0.57075 0.80654 0.96378 0.0
C4600 C 0.58035 0.75748 0.95736 0.0
C4601 C 0.54313 0.72898 0.95971 0.0
C4602 C 0.51866 0.74021 0.96346 0.0
C4603 C 0.53238 0.77883 0.96546 0.0
H4604 H 0.31569 0.7595 0.96581 0.0
H4605 H 0.26725 0.83178 0.96028 0.0
H4606 H 0.37924 0.8109 0.96153 0.0
H4607 H 0.33075 0.88335 0.95595 0.0
H4608 H 0.44885 0.97324 0.96763 0.0
H4609 H 0.38346 0.91894 0.96641 0.0
H4610 H 0.42522 0.85983 0.9511 0.0
H4611 H 0.49081 0.91594 0.952 0.0
C4612 C 0.31838 0.78567 0.96324 0.0
C4613 C 0.2869 0.79193 0.96333 0.0
C4614 C 0.35472 0.81515 0.96083 0.0
C4615 C 0.35994 0.85129 0.95857 0.0
C4616 C 0.32748 0.85585 0.95777 0.0
C4617 C 0.29113 0.82629 0.96014 0.0
C4618 C 0.44375 0.94913 0.96384 0.0
C4619 C 0.47421 0.94886 0.95975 0.0
C4620 C 0.40643 0.91805 0.96312 0.0
C4621 C 0.39913 0.88549 0.95851 0.0
C4622 C 0.42999 0.88483 0.95458 0.0
C4623 C 0.46732 0.91663 0.95512 0.0
H4624 H 0.12904 0.53976 0.94786 0.0
H4625 H 0.17099 0.60246 0.97046 0.0
H4626 H 0.18368 0.52879 0.94751 0.0
H4627 H 0.22638 0.59302 0.9699 0.0
H4628 H 0.33223 0.59039 0.96612 0.0
H4629 H 0.28567 0.60911 0.9616 0.0
H4630 H 0.20278 0.48961 0.95677 0.0
H4631 H 0.24961 0.47119 0.96125 0.0
C4632 C 0.14981 0.55119 0.95275 0.0
C4633 C 0.14494 0.57089 0.95933 0.0
C4634 C 0.18133 0.54529 0.95249 0.0
C4635 C 0.2093 0.56022 0.95865 0.0
C4636 C 0.20549 0.58163 0.965 0.0
C4637 C 0.17358 0.58678 0.96535 0.0
C4638 C 0.30473 0.56851 0.96369 0.0
C4639 C 0.29425 0.52949 0.96397 0.0
C4640 C 0.278 0.57909 0.9612 0.0
C4641 C 0.2405 0.55071 0.95899 0.0
C4642 C 0.23156 0.51207 0.95841 0.0
C4643 C 0.25831 0.50151 0.96093 0.0
H4644 H 0.62101 0.52018 0.56739 0.0
H4645 H 0.62202 0.52525 0.54113 0.0
H4646 H 0.68947 0.53891 0.56737 0.0
H4647 H 0.69048 0.54478 0.54111 0.0
H4648 H 0.81822 0.60484 0.54338 0.0
H4649 H 0.7568 0.60192 0.54641 0.0
H4650 H 0.72321 0.50145 0.5614 0.0
H4651 H 0.78429 0.50416 0.55826 0.0
C4652 C 0.636 0.52543 0.56163 0.0
C4653 C 0.61634 0.52066 0.55425 0.0
C4654 C 0.67503 0.5363 0.56163 0.0
C4655 C 0.69515 0.54351 0.55425 0.0
C4656 C 0.67566 0.53978 0.54688 0.0
C4657 C 0.63647 0.52806 0.54688 0.0
C4658 C 0.7982 0.58308 0.54755 0.0
C4659 C 0.80555 0.55463 0.55059 0.0
C4660 C 0.76312 0.58125 0.54924 0.0
C4661 C 0.73527 0.55119 0.55405 0.0
C4662 C 0.7443 0.52498 0.55771 0.0
C4663 C 0.77912 0.52649 0.55592 0.0
H4664 H 0.53023 0.11875 0.54479 0.0
H4665 H 0.60743 0.1633 0.56531 0.0
H4666 H 0.5165 0.17159 0.54599 0.0
H4667 H 0.59553 0.2178 0.56627 0.0
H4668 H 0.60508 0.32852 0.5522 0.0
H4669 H 0.61162 0.27312 0.55603 0.0
H4670 H 0.48769 0.20082 0.55605 0.0
H4671 H 0.48125 0.25662 0.55225 0.0
C4672 C 0.54412 0.13997 0.54955 0.0
C4673 C 0.56975 0.13742 0.55496 0.0
C4674 C 0.53608 0.1699 0.5503 0.0
C4675 C 0.55464 0.1984 0.5563 0.0
C4676 C 0.58057 0.19588 0.56167 0.0
C4677 C 0.58758 0.16511 0.56109 0.0
C4678 C 0.57931 0.30104 0.55331 0.0
C4679 C 0.54275 0.29642 0.55185 0.0
C4680 C 0.583 0.26944 0.55553 0.0
C4681 C 0.55014 0.23276 0.5562 0.0
C4682 C 0.5134 0.22887 0.55548 0.0
C4683 C 0.50971 0.26068 0.55336 0.0
H4684 H 0.92908 0.47877 0.56704 0.0
H4685 H 0.966 0.45667 0.544 0.0
H4686 H 0.87786 0.41064 0.56783 0.0
H4687 H 0.91664 0.38851 0.54499 0.0
H4688 H 0.84758 0.26591 0.55091 0.0
H4689 H 0.89955 0.32983 0.55491 0.0
H4690 H 0.81684 0.36797 0.55801 0.0
H4691 H 0.76496 0.30402 0.55393 0.0
C4692 C 0.92626 0.45914 0.5622 0.0
C4693 C 0.95085 0.47256 0.55542 0.0
C4694 C 0.89731 0.42037 0.56267 0.0
C4695 C 0.89376 0.39438 0.55653 0.0
C4696 C 0.91908 0.4079 0.54985 0.0
C4697 C 0.94698 0.44681 0.54924 0.0
C4698 C 0.84037 0.28736 0.55289 0.0
C4699 C 0.80247 0.28023 0.55219 0.0
C4700 C 0.87006 0.32398 0.55508 0.0
C4701 C 0.86212 0.35381 0.55663 0.0
C4702 C 0.82361 0.34535 0.55687 0.0
C4703 C 0.79392 0.30875 0.55461 0.0
H4704 H 0.26392 0.64521 0.38173 0.0
H4705 H 0.14439 0.59723 0.38825 0.0
H4706 H 0.27717 0.70891 0.38624 0.0
H4707 H 0.15742 0.66085 0.39281 0.0
H4708 H 0.18469 0.77983 0.38173 0.0
H4709 H 0.17329 0.71426 0.38257 0.0
H4710 H 0.27636 0.75471 0.39709 0.0
H4711 H 0.28598 0.82051 0.39666 0.0
C4712 C 0.24099 0.64805 0.38454 0.0
C4713 C 0.20322 0.6166 0.3847 0.0
C4714 C 0.24848 0.68447 0.38709 0.0
C4715 C 0.21815 0.68986 0.38974 0.0
C4716 C 0.1812 0.65747 0.3907 0.0
C4717 C 0.1738 0.62105 0.3882 0.0
C4718 C 0.20387 0.77436 0.38537 0.0
C4719 C 0.23508 0.80452 0.38941 0.0
C4720 C 0.1976 0.73693 0.38582 0.0
C4721 C 0.22344 0.72919 0.39008 0.0
C4722 C 0.25561 0.75978 0.39391 0.0
C4723 C 0.26115 0.79722 0.39365 0.0
H4724 H 0.45309 0.65938 0.3855 0.0
H4725 H 0.4929 0.5773 0.38565 0.0
H4726 H 0.38893 0.60869 0.38976 0.0
H4727 H 0.4288 0.52648 0.38985 0.0
H4728 H 0.30506 0.45502 0.37789 0.0
H4729 H 0.37257 0.50555 0.37907 0.0
H4730 H 0.34478 0.55122 0.40021 0.0
H4731 H 0.27725 0.4987 0.39928 0.0
C4732 C 0.44857 0.63096 0.3869 0.0
C4733 C 0.47757 0.62194 0.38529 0.0
C4734 C 0.41193 0.60197 0.38929 0.0
C4735 C 0.40403 0.56374 0.38998 0.0
C4736 C 0.43431 0.55578 0.38928 0.0
C4737 C 0.47095 0.5848 0.38697 0.0
C4738 C 0.31357 0.47572 0.38281 0.0
C4739 C 0.28651 0.47337 0.3885 0.0
C4740 C 0.35207 0.50433 0.38354 0.0
C4741 C 0.36378 0.53181 0.38981 0.0
C4742 C 0.3364 0.53 0.3954 0.0
C4743 C 0.29801 0.50037 0.39483 0.0
H4744 H 0.51126 0.95078 0.39095 0.0
H4745 H 0.4344 0.83656 0.38177 0.0
H4746 H 0.55723 0.93068 0.39502 0.0
H4747 H 0.48071 0.81634 0.3857 0.0
H4748 H 0.57994 0.79721 0.39522 0.0
H4749 H 0.52525 0.80905 0.3963 0.0
H4750 H 0.59225 0.91742 0.38367 0.0
H4751 H 0.6448 0.90414 0.38221 0.0
C4752 C 0.50368 0.92095 0.39013 0.0
C4753 C 0.46991 0.89521 0.38601 0.0
C4754 C 0.52988 0.90948 0.39241 0.0
C4755 C 0.52272 0.87227 0.3905 0.0
C4756 C 0.4868 0.84516 0.38724 0.0
C4757 C 0.46041 0.85667 0.38499 0.0
C4758 C 0.58256 0.82348 0.39273 0.0
C4759 C 0.61669 0.85063 0.38888 0.0
C4760 C 0.55163 0.83031 0.39338 0.0
C4761 C 0.55513 0.8647 0.39031 0.0
C4762 C 0.58928 0.89134 0.38636 0.0
C4763 C 0.61948 0.88399 0.38555 0.0
H4764 H 0.13603 0.89714 0.80775 0.0
H4765 H 0.13305 0.89066 0.78147 0.0
H4766 H 0.06807 0.87887 0.8079 0.0
H4767 H 0.06484 0.87249 0.78164 0.0
H4768 H 0.97125 0.91063 0.78937 0.0
H4769 H 0.03189 0.912 0.78646 0.0
H4770 H 1.00143 0.81991 0.80376 0.0
H4771 H 0.94048 0.81831 0.80656 0.0
C4772 C 0.12085 0.89195 0.80202 0.0
C4773 C 0.13976 0.89571 0.7946 0.0
C4774 C 0.08189 0.88093 0.8021 0.0
C4775 C 0.06132 0.87395 0.79478 0.0
C4776 C 0.08016 0.87762 0.78736 0.0
C4777 C 0.11906 0.88812 0.78727 0.0
C4778 C 0.97704 0.88979 0.79229 0.0
C4779 C 0.95171 0.8645 0.79819 0.0
C4780 C 0.01156 0.8905 0.79064 0.0
C4781 C 0.02133 0.86639 0.79498 0.0
C4782 C 0.99449 0.83895 0.8004 0.0
C4783 C 0.9597 0.83786 0.80196 0.0
H4784 H 0.16657 0.09266 0.79832 0.0
H4785 H 0.28652 0.17432 0.79406 0.0
H4786 H 0.14942 0.14075 0.7941 0.0
H4787 H 0.26975 0.22277 0.78993 0.0
H4788 H 0.22358 0.30107 0.78169 0.0
H4789 H 0.23429 0.24617 0.78105 0.0
H4790 H 0.16346 0.19786 0.80245 0.0
H4791 H 0.15376 0.25291 0.80324 0.0
C4792 C 0.18899 0.12031 0.79608 0.0
C4793 C 0.22776 0.12991 0.79643 0.0
C4794 C 0.17932 0.148 0.79378 0.0
C4795 C 0.20833 0.18573 0.79185 0.0
C4796 C 0.24675 0.19393 0.79135 0.0
C4797 C 0.25639 0.16618 0.79366 0.0
C4798 C 0.21056 0.27893 0.78629 0.0
C4799 C 0.18868 0.28202 0.79264 0.0
C4800 C 0.21641 0.2473 0.78587 0.0
C4801 C 0.19951 0.21757 0.79166 0.0
C4802 C 0.17637 0.21995 0.79781 0.0
C4803 C 0.17111 0.25178 0.7983 0.0
H4804 H 1.00009 0.11195 0.79953 0.0
H4805 H 0.91891 0.1497 0.79407 0.0
H4806 H 0.95272 0.04636 0.79537 0.0
H4807 H 0.87122 0.08417 0.78999 0.0
H4808 H 0.79426 0.95979 0.78213 0.0
H4809 H 0.84947 0.02491 0.78144 0.0
H4810 H 0.89431 1.0042 0.80361 0.0
H4811 H 0.83864 0.93976 0.80447 0.0
C4812 C 0.97275 0.10647 0.79704 0.0
C4813 C 0.9629 0.13549 0.79707 0.0
C4814 C 0.94549 0.06896 0.79478 0.0
C4815 C 0.90808 0.06008 0.79254 0.0
C4816 C 0.89985 0.09018 0.79167 0.0
C4817 C 0.92713 0.1277 0.79395 0.0
C4818 C 0.81575 0.96912 0.78688 0.0
C4819 C 0.81163 0.94467 0.79344 0.0
C4820 C 0.84755 1.00634 0.78643 0.0
C4821 C 0.87636 0.0195 0.79242 0.0
C4822 C 0.87294 0.9946 0.79881 0.0
C4823 C 0.84087 0.95767 0.79933 0.0
H4824 H 0.16007 0.9418 0.30377 0.0
H4825 H 0.21406 0.95931 0.28016 0.0
H4826 H 0.17056 1.007 0.30341 0.0
H4827 H 0.22556 0.02518 0.27991 0.0
H4828 H 0.29394 0.14906 0.29218 0.0
H4829 H 0.26965 0.082 0.28831 0.0
H4830 H 0.15569 0.05336 0.29642 0.0
H4831 H 0.18046 0.12089 0.30032 0.0
C4832 C 0.17385 0.95942 0.29846 0.0
C4833 C 0.18732 0.94583 0.29209 0.0
C4834 C 0.17953 0.99669 0.29822 0.0
C4835 C 0.19893 0.02115 0.29163 0.0
C4836 C 0.21075 1.00696 0.28509 0.0
C4837 C 0.20455 0.96943 0.28527 0.0
C4838 C 0.2635 0.12853 0.29288 0.0
C4839 C 0.23905 0.13959 0.29659 0.0
C4840 C 0.24951 0.09027 0.29064 0.0
C4841 C 0.21089 0.06247 0.29216 0.0
C4842 C 0.18569 0.07425 0.29527 0.0
C4843 C 0.1997 0.11273 0.29745 0.0
H4844 H 0.15845 0.24684 0.28692 0.0
H4845 H 0.11238 0.30861 0.29972 0.0
H4846 H 0.09315 0.19043 0.28584 0.0
H4847 H 0.04751 0.25403 0.29833 0.0
H4848 H 0.93299 0.16414 0.29271 0.0
H4849 H 0.99667 0.21449 0.28817 0.0
H4850 H 0.04528 0.14473 0.29598 0.0
H4851 H 0.98154 0.09449 0.3004 0.0
C4852 C 0.13415 0.24847 0.28935 0.0
C4853 C 0.13978 0.28219 0.29318 0.0
C4854 C 0.09698 0.21648 0.2887 0.0
C4855 C 0.06509 0.21822 0.29178 0.0
C4856 C 0.07121 0.25221 0.29562 0.0
C4857 C 0.10827 0.28359 0.29641 0.0
C4858 C 0.95699 0.15887 0.29303 0.0
C4859 C 0.95274 0.12578 0.29689 0.0
C4860 C 0.99345 0.18777 0.29053 0.0
C4861 C 0.026 0.18383 0.2919 0.0
C4862 C 0.02076 0.14857 0.29484 0.0
C4863 C 0.98432 0.11975 0.29735 0.0
H4864 H 0.99033 0.90798 0.30175 0.0
H4865 H 0.90821 0.79928 0.29093 0.0
H4866 H 0.9487 0.93454 0.29827 0.0
H4867 H 0.86644 0.82533 0.2875 0.0
H4868 H 0.8012 0.88446 0.28054 0.0
H4869 H 0.85529 0.87261 0.28019 0.0
H4870 H 0.88616 0.91681 0.30471 0.0
H4871 H 0.83209 0.92821 0.30511 0.0
C4872 C 0.9639 0.89028 0.29841 0.0
C4873 C 0.95185 0.85159 0.29667 0.0
C4874 C 0.94006 0.90529 0.29646 0.0
C4875 C 0.90416 0.88178 0.29273 0.0
C4876 C 0.894 0.84417 0.29034 0.0
C4877 C 0.91766 0.82915 0.29234 0.0
C4878 C 0.81961 0.8917 0.28584 0.0
C4879 C 0.81197 0.9065 0.29291 0.0
C4880 C 0.85069 0.8852 0.28561 0.0
C4881 C 0.87497 0.89394 0.2924 0.0
C4882 C 0.86836 0.91045 0.29932 0.0
C4883 C 0.83716 0.91668 0.29957 0.0
H4884 H 0.28107 0.82417 0.87681 0.0
H4885 H 0.29724 0.87479 0.90076 0.0
H4886 H 0.3455 0.83291 0.87736 0.0
H4887 H 0.36249 0.88459 0.9012 0.0
H4888 H 0.48943 0.94588 0.88921 0.0
H4889 H 0.42353 0.9267 0.89329 0.0
H4890 H 0.38522 0.8109 0.88481 0.0
H4891 H 0.45112 0.8305 0.88066 0.0
C4892 C 0.29824 0.83695 0.88222 0.0
C4893 C 0.28424 0.84943 0.88868 0.0
C4894 C 0.3351 0.84168 0.88257 0.0
C4895 C 0.35886 0.85912 0.88937 0.0
C4896 C 0.34474 0.87107 0.89589 0.0
C4897 C 0.30754 0.86578 0.8956 0.0
C4898 C 0.46714 0.91593 0.88862 0.0
C4899 C 0.47492 0.88954 0.88466 0.0
C4900 C 0.42946 0.90495 0.89091 0.0
C4901 C 0.39924 0.86752 0.8892 0.0
C4902 C 0.40797 0.84008 0.88608 0.0
C4903 C 0.44561 0.85108 0.8838 0.0
H4904 H 0.26536 0.66449 0.88378 0.0
H4905 H 0.14503 0.5826 0.88758 0.0
H4906 H 0.28218 0.61629 0.88812 0.0
H4907 H 0.16149 0.53414 0.89185 0.0
H4908 H 0.20681 0.45645 0.90042 0.0
H4909 H 0.19734 0.51188 0.90105 0.0
H4910 H 0.26736 0.55863 0.87949 0.0
H4911 H 0.27541 0.50239 0.87864 0.0
C4912 C 0.24278 0.63676 0.88596 0.0
C4913 C 0.20402 0.62699 0.88541 0.0
C4914 C 0.25228 0.60908 0.88833 0.0
C4915 C 0.22307 0.57136 0.89015 0.0
C4916 C 0.18459 0.56305 0.8905 0.0
C4917 C 0.17512 0.59075 0.88811 0.0
C4918 C 0.21979 0.47822 0.89575 0.0
C4919 C 0.24072 0.47426 0.88931 0.0
C4920 C 0.21476 0.51022 0.89619 0.0
C4921 C 0.23173 0.53957 0.89035 0.0
C4922 C 0.25433 0.53663 0.88415 0.0
C4923 C 0.25866 0.50423 0.88361 0.0
H4924 H 0.42671 0.63916 0.88259 0.0
H4925 H 0.50724 0.60137 0.8887 0.0
H4926 H 0.47382 0.70485 0.88675 0.0
H4927 H 0.55463 0.66701 0.89282 0.0
H4928 H 0.62956 0.79229 0.90081 0.0
H4929 H 0.57437 0.7271 0.90144 0.0
H4930 H 0.53381 0.74555 0.87843 0.0
H4931 H 0.58965 0.81003 0.87762 0.0
C4932 C 0.4538 0.64466 0.88523 0.0
C4933 C 0.46361 0.61563 0.88538 0.0
C4934 C 0.48087 0.68219 0.8875 0.0
C4935 C 0.51802 0.691 0.88994 0.0
C4936 C 0.52615 0.66094 0.89098 0.0
C4937 C 0.49906 0.6234 0.88868 0.0
C4938 C 0.60912 0.78236 0.89585 0.0
C4939 C 0.61459 0.80602 0.88906 0.0
C4940 C 0.57731 0.74519 0.89627 0.0
C4941 C 0.54973 0.73147 0.89003 0.0
C4942 C 0.55433 0.75567 0.88341 0.0
C4943 C 0.58649 0.79251 0.88291 0.0
H4944 H 0.81277 0.9344 0.72184 0.0
H4945 H 0.9303 0.97241 0.715 0.0
H4946 H 0.83129 1.00011 0.72598 0.0
H4947 H 0.94917 0.0381 0.7192 0.0
H4948 H 0.938 0.14279 0.71024 0.0
H4949 H 0.9288 0.07806 0.71102 0.0
H4950 H 0.87227 0.0608 0.7343 0.0
H4951 H 0.88268 0.12614 0.73368 0.0
C4952 C 0.84292 0.95651 0.72166 0.0
C4953 C 0.87023 0.94881 0.71813 0.0
C4954 C 0.85353 0.99409 0.72398 0.0
C4955 C 0.89149 0.02419 0.72272 0.0
C4956 C 0.9196 0.01541 0.7201 0.0
C4957 C 0.90899 0.97788 0.7178 0.0
C4958 C 0.92411 0.12548 0.71558 0.0
C4959 C 0.91046 0.13942 0.72182 0.0
C4960 C 0.91906 0.08849 0.71606 0.0
C4961 C 0.90012 0.06461 0.72277 0.0
C4962 C 0.88697 0.07866 0.72907 0.0
C4963 C 0.89259 0.11593 0.72866 0.0
H4964 H 0.9572 0.80332 0.73471 0.0
H4965 H 0.95887 0.80192 0.70842 0.0
H4966 H 0.02522 0.85472 0.73478 0.0
H4967 H 0.02653 0.85209 0.7085 0.0
H4968 H 0.15374 0.92158 0.71073 0.0
H4969 H 0.09334 0.86212 0.71383 0.0
H4970 H 0.05701 0.92698 0.72874 0.0
H4971 H 0.11711 0.98641 0.72552 0.0
C4972 C 0.97222 0.81385 0.72897 0.0
C4973 C 0.95282 0.79931 0.72156 0.0
C4974 C 0.01097 0.84297 0.72902 0.0
C4975 C 0.03098 0.85699 0.72165 0.0
C4976 C 0.01182 0.84141 0.71427 0.0
C4977 C 0.97301 0.81312 0.71422 0.0
C4978 C 0.13333 0.92273 0.71489 0.0
C4979 C 0.1396 0.95821 0.71788 0.0
C4980 C 0.09888 0.88892 0.71663 0.0
C4981 C 0.07061 0.89021 0.72147 0.0
C4982 C 0.07851 0.92527 0.72505 0.0
C4983 C 0.1127 0.95916 0.7232 0.0
H4984 H 0.28598 0.19667 0.70824 0.0
H4985 H 0.27517 0.17764 0.73421 0.0
H4986 H 0.23882 0.21845 0.70878 0.0
H4987 H 0.22667 0.19808 0.73471 0.0
H4988 H 0.10127 0.17402 0.72355 0.0
H4989 H 0.15625 0.1663 0.72728 0.0
H4990 H 0.23358 0.27593 0.71611 0.0
H4991 H 0.17847 0.28368 0.71245 0.0
C4992 C 0.27296 0.19656 0.71402 0.0
C4993 C 0.28344 0.18487 0.72115 0.0
C4994 C 0.24657 0.20958 0.71437 0.0
C4995 C 0.22954 0.21018 0.72181 0.0
C4996 C 0.23968 0.19807 0.72893 0.0
C4997 C 0.26699 0.1861 0.72862 0.0
C4998 C 0.1302 0.19728 0.72229 0.0
C4999 C 0.13598 0.2294 0.71775 0.0
C5000 C 0.16156 0.19285 0.72439 0.0
C5001 C 0.19885 0.2203 0.72185 0.0
C5002 C 0.20494 0.25432 0.71806 0.0
C5003 C 0.1736 0.25889 0.71603 0.0
H5004 H 0.79701 0.21249 0.1141 0.0
H5005 H 0.81249 0.26457 0.13788 0.0
H5006 H 0.7311 0.20106 0.11364 0.0
H5007 H 0.74761 0.2545 0.13727 0.0
H5008 H 0.64079 0.25433 0.13387 0.0
H5009 H 0.70674 0.27479 0.1296 0.0
H5010 H 0.67045 0.1584 0.12186 0.0
H5011 H 0.60447 0.13831 0.12608 0.0
C5012 C 0.78642 0.22145 0.11922 0.0
C5013 C 0.80972 0.23861 0.12611 0.0
C5014 C 0.74887 0.21529 0.11891 0.0
C5015 C 0.73442 0.22727 0.12537 0.0
C5016 C 0.75822 0.24565 0.13212 0.0
C5017 C 0.79538 0.25118 0.13249 0.0
C5018 C 0.64669 0.23373 0.13086 0.0
C5019 C 0.61795 0.1949 0.13025 0.0
C5020 C 0.68438 0.24524 0.12851 0.0
C5021 C 0.69374 0.21798 0.12556 0.0
C5022 C 0.66401 0.18002 0.1241 0.0
C5023 C 0.62628 0.16852 0.12647 0.0
H5024 H 0.8344 0.42707 0.13365 0.0
H5025 H 0.95206 0.50574 0.12678 0.0
H5026 H 0.81589 0.4739 0.12925 0.0
H5027 H 0.93397 0.55303 0.12247 0.0
H5028 H 0.88534 0.62984 0.11462 0.0
H5029 H 0.89515 0.57428 0.11412 0.0
H5030 H 0.83438 0.53369 0.13695 0.0
H5031 H 0.82531 0.58906 0.13754 0.0
C5032 C 0.85585 0.45369 0.13082 0.0
C5033 C 0.89451 0.46302 0.1305 0.0
C5034 C 0.84545 0.48066 0.1284 0.0
C5035 C 0.87367 0.5174 0.12569 0.0
C5036 C 0.91159 0.52495 0.12452 0.0
C5037 C 0.92196 0.4979 0.12695 0.0
C5038 C 0.87423 0.60913 0.11954 0.0
C5039 C 0.85522 0.61437 0.12619 0.0
C5040 C 0.87959 0.57718 0.11921 0.0
C5041 C 0.86518 0.54943 0.12544 0.0
C5042 C 0.84512 0.55411 0.13195 0.0
C5043 C 0.84023 0.58615 0.13233 0.0
H5044 H 0.66867 0.44924 0.13203 0.0
H5045 H 0.58456 0.48555 0.12921 0.0
H5046 H 0.62133 0.38443 0.12739 0.0
H5047 H 0.53697 0.42086 0.12463 0.0
H5048 H 0.4608 0.29924 0.11535 0.0
H5049 H 0.51546 0.36463 0.11499 0.0
H5050 H 0.56447 0.33905 0.13587 0.0
H5051 H 0.50907 0.27422 0.13645 0.0
C5052 C 0.64058 0.4437 0.13003 0.0
C5053 C 0.62997 0.47197 0.13092 0.0
C5054 C 0.61341 0.40665 0.12748 0.0
C5055 C 0.57537 0.39755 0.12581 0.0
C5056 C 0.56613 0.42712 0.12584 0.0
C5057 C 0.59331 0.46414 0.12842 0.0
C5058 C 0.48292 0.30759 0.11992 0.0
C5059 C 0.47982 0.28183 0.1261 0.0
C5060 C 0.51449 0.34493 0.11964 0.0
C5061 C 0.54422 0.35685 0.12538 0.0
C5062 C 0.54217 0.33048 0.13129 0.0
C5063 C 0.51024 0.29342 0.13167 0.0
H5064 H 0.88829 0.29944 0.63841 0.0
H5065 H 0.82745 0.27465 0.61554 0.0
H5066 H 0.9058 0.36718 0.63722 0.0
H5067 H 0.84311 0.34234 0.61455 0.0
H5068 H 0.83736 0.44966 0.62844 0.0
H5069 H 0.82506 0.3855 0.62447 0.0
H5070 H 0.94645 0.42448 0.62672 0.0
H5071 H 0.95863 0.48862 0.63061 0.0
C5072 C 0.87834 0.30858 0.63319 0.0
C5073 C 0.8564 0.28227 0.62709 0.0
C5074 C 0.88865 0.34723 0.63245 0.0
C5075 C 0.87612 0.35983 0.62573 0.0
C5076 C 0.85338 0.33324 0.61972 0.0
C5077 C 0.84424 0.29475 0.62032 0.0
C5078 C 0.86157 0.44502 0.62759 0.0
C5079 C 0.89891 0.47377 0.62976 0.0
C5080 C 0.85454 0.40835 0.62539 0.0
C5081 C 0.8848 0.40019 0.62545 0.0
C5082 C 0.92272 0.43022 0.62671 0.0
C5083 C 0.92974 0.46691 0.62882 0.0
H5084 H 0.78009 0.6401 0.63348 0.0
H5085 H 0.82622 0.57767 0.62095 0.0
H5086 H 0.7151 0.58583 0.63192 0.0
H5087 H 0.76082 0.52182 0.6196 0.0
H5088 H 0.6479 0.42486 0.63319 0.0
H5089 H 0.71198 0.47543 0.62911 0.0
H5090 H 0.66463 0.54718 0.62193 0.0
H5091 H 0.60061 0.49652 0.6262 0.0
C5092 C 0.77601 0.61487 0.63025 0.0
C5093 C 0.80759 0.61311 0.62717 0.0
C5094 C 0.73886 0.58374 0.62933 0.0
C5095 C 0.7327 0.54978 0.62546 0.0
C5096 C 0.76465 0.54778 0.62252 0.0
C5097 C 0.80191 0.57943 0.62333 0.0
C5098 C 0.65103 0.45067 0.63033 0.0
C5099 C 0.61971 0.45711 0.63 0.0
C5100 C 0.68771 0.47972 0.62802 0.0
C5101 C 0.69342 0.51561 0.62539 0.0
C5102 C 0.66111 0.52003 0.62409 0.0
C5103 C 0.62443 0.49093 0.62641 0.0
H5104 H 0.57785 0.13004 0.63355 0.0
H5105 H 0.65943 0.24758 0.62708 0.0
H5106 H 0.52469 0.1401 0.62954 0.0
H5107 H 0.60626 0.25764 0.62296 0.0
H5108 H 0.48864 0.24802 0.61428 0.0
H5109 H 0.5396 0.23074 0.61374 0.0
H5110 H 0.51412 0.19058 0.63859 0.0
H5111 H 0.46481 0.2095 0.63924 0.0
C5112 C 0.58438 0.15729 0.63082 0.0
C5113 C 0.62246 0.18798 0.63054 0.0
C5114 C 0.55407 0.16318 0.62862 0.0
C5115 C 0.56159 0.19974 0.62606 0.0
C5116 C 0.59988 0.22915 0.62487 0.0
C5117 C 0.63025 0.22335 0.62716 0.0
C5118 C 0.49435 0.23576 0.61962 0.0
C5119 C 0.47355 0.23057 0.62684 0.0
C5120 C 0.52315 0.22574 0.61929 0.0
C5121 C 0.53028 0.20901 0.62609 0.0
C5122 C 0.50882 0.20314 0.63325 0.0
C5123 C 0.48105 0.21435 0.63366 0.0
H5124 H 0.94891 0.16605 0.23465 0.0
H5125 H 0.96889 0.21755 0.21077 0.0
H5126 H 0.01672 0.18177 0.23529 0.0
H5127 H 0.03663 0.23507 0.21158 0.0
H5128 H 0.15934 0.28962 0.21716 0.0
H5129 H 0.09644 0.27947 0.22146 0.0
H5130 H 0.05669 0.15862 0.22523 0.0
H5131 H 0.11961 0.16884 0.22084 0.0
C5132 C 0.968 0.18096 0.22959 0.0
C5133 C 0.9541 0.19035 0.22263 0.0
C5134 C 1.00654 0.19009 0.22998 0.0
C5135 C 0.03173 0.21006 0.22355 0.0
C5136 C 0.01777 0.22007 0.21666 0.0
C5137 C 0.9791 0.20974 0.21615 0.0
C5138 C 0.13779 0.2614 0.21934 0.0
C5139 C 0.14401 0.23002 0.21874 0.0
C5140 C 0.10184 0.25553 0.22172 0.0
C5141 C 0.07189 0.21824 0.22356 0.0
C5142 C 0.07954 0.18765 0.22388 0.0
C5143 C 0.11547 0.19349 0.22142 0.0
H5144 H 0.80143 0.90427 0.22131 0.0
H5145 H 0.91422 0.99204 0.21333 0.0
H5146 H 0.82736 0.86269 0.22508 0.0
H5147 H 0.94047 0.95041 0.21709 0.0
H5148 H 0.93925 0.83566 0.2096 0.0
H5149 H 0.92647 0.88902 0.20989 0.0
H5150 H 0.87354 0.85241 0.23357 0.0
H5151 H 0.88783 0.8 0.23346 0.0
C5152 C 0.83201 0.91493 0.22058 0.0
C5153 C 0.85581 0.95082 0.21694 0.0
C5154 C 0.84692 0.89134 0.22277 0.0
C5155 C 0.8858 0.9032 0.22125 0.0
C5156 C 0.91029 0.9405 0.21822 0.0
C5157 C 0.8954 0.96431 0.21612 0.0
C5158 C 0.92572 0.83947 0.21495 0.0
C5159 C 0.91383 0.81309 0.22143 0.0
C5160 C 0.91853 0.87014 0.21514 0.0
C5161 C 0.89898 0.87477 0.22176 0.0
C5162 C 0.88846 0.84934 0.22838 0.0
C5163 C 0.89629 0.8191 0.22826 0.0
H5164 H 0.10797 0.96817 0.22732 0.0
H5165 H 0.16795 0.94124 0.20899 0.0
H5166 H 0.16731 0.02882 0.23031 0.0
H5167 H 0.22724 1.00205 0.21188 0.0
H5168 H 0.28246 0.13625 0.20878 0.0
H5169 H 0.23283 0.06857 0.20854 0.0
H5170 H 0.24167 0.06218 0.23463 0.0
H5171 H 0.29212 0.13051 0.23489 0.0
C5172 C 0.13429 0.97479 0.22415 0.0
C5173 C 0.1338 0.95053 0.21794 0.0
C5174 C 0.16813 0.00928 0.22586 0.0
C5175 C 0.20157 0.02007 0.22126 0.0
C5176 C 0.20168 0.9943 0.21547 0.0
C5177 C 0.16799 0.95961 0.21384 0.0
C5178 C 0.2739 0.12053 0.21447 0.0
C5179 C 0.29086 0.13869 0.22187 0.0
C5180 C 0.24587 0.08166 0.21432 0.0
C5181 C 0.23381 0.06022 0.22156 0.0
C5182 C 0.25068 0.07821 0.22898 0.0
C5183 C 0.27934 0.11715 0.22912 0.0
loop_
_geom_bond_atom_site_label_1
_geom_bond_atom_site_label_2
_geom_bond_distance
_geom_bond_site_symmetry_2
_ccdc_geom_bond_type
C0 C2 1.422 . S
C0 C4 1.415 . S
C0 N6 1.369 . S
C1 C2 1.421 . S
C1 C3 1.417 . S
C1 C13 1.422 . S
C2 C0 1.422 . S
C2 C1 1.421 . S
C2 N12 1.359 . S
C3 C1 1.417 . S
C3 C5 1.329 . S
C3 H22 0.930 . S
C4 C0 1.415 . S
C4 C5 1.437 . S
C4 C8 1.413 . S
C5 C3 1.329 . S
C5 C4 1.437 . S
C5 H27 0.929 . S
N6 C0 1.369 . S
N6 C7 1.338 . S
N6 Gd11 2.622 . S
C7 N6 1.338 . S
C7 C9 1.378 . S
C7 H19 0.929 . S
C8 C4 1.413 . S
C8 C9 1.348 . S
C8 H24 0.931 . S
C9 C7 1.378 . S
C9 C8 1.348 . S
C9 H25 0.930 . S
Gd10 N30 2.622 . S
Gd10 N37 2.570 . S
Gd10 O44 2.353 1_545 S
Gd10 O45 2.468 1_545 S
Gd10 O46 2.427 1_545 S
Gd10 O48 2.388 . S
Gd10 O49 2.386 . S
Gd10 O53 2.307 . S
Gd10 C63 2.805 1_545 S
Gd11 N6 2.622 . S
Gd11 N12 2.570 . S
Gd11 O43 2.386 . S
Gd11 O47 2.307 . S
Gd11 O50 2.353 . S
Gd11 O51 2.468 . S
Gd11 O52 2.427 . S
Gd11 O54 2.388 . S
Gd11 C75 2.805 . S
N12 C2 1.359 . S
N12 Gd11 2.570 . S
N12 C14 1.343 . S
C13 C1 1.422 . S
C13 C15 1.321 . S
C13 H21 0.931 . S
C14 N12 1.343 . S
C14 C15 1.390 . S
C14 H16 0.931 . S
C15 C13 1.321 . S
C15 C14 1.390 . S
C15 H17 0.930 . S
H16 C14 0.931 . S
H17 C15 0.930 . S
H18 C41 0.931 . S
H19 C7 0.929 . S
H20 C42 0.930 . S
H21 C13 0.931 . S
H22 C3 0.930 . S
H23 C32 0.929 . S
H24 C8 0.931 . S
H25 C9 0.930 . S
H26 C64 0.930 . S
H27 C5 0.929 . S
H28 C33 0.931 . S
H29 C34 0.930 . S
N30 Gd10 2.622 . S
N30 C31 1.369 . S
N30 C32 1.338 . S
C31 N30 1.369 . S
C31 C35 1.415 . S
C31 C38 1.422 . S
C32 H23 0.929 . S
C32 N30 1.338 . S
C32 C34 1.378 . S
C33 H28 0.931 . S
C33 C34 1.348 . S
C33 C35 1.413 . S
C34 H29 0.930 . S
C34 C32 1.378 . S
C34 C33 1.348 . S
C35 C31 1.415 . S
C35 C33 1.413 . S
C35 C65 1.437 . S
H36 C65 0.929 . S
N37 Gd10 2.570 . S
N37 C38 1.359 . S
N37 C41 1.343 . S
C38 C31 1.422 . S
C38 N37 1.359 . S
C38 C40 1.421 . S
C39 C40 1.422 . S
C39 C42 1.321 . S
C39 H66 0.931 . S
C40 C38 1.421 . S
C40 C39 1.422 . S
C40 C64 1.417 . S
C41 H18 0.931 . S
C41 N37 1.343 . S
C41 C42 1.390 . S
C42 H20 0.930 . S
C42 C39 1.321 . S
C42 C41 1.390 . S
O43 Gd11 2.386 . S
O43 C55 1.265 1_545 S
O44 Gd10 2.353 1_565 S
O44 C55 1.242 . S
O45 Gd10 2.468 1_565 S
O45 C63 1.263 . S
O46 Gd10 2.427 1_565 S
O46 C63 1.252 . S
O47 Gd11 2.307 . S
O47 C56 1.261 . S
O48 Gd10 2.388 . S
O48 C56 1.252 . S
O49 Gd10 2.386 . S
O49 C67 1.265 . S
O50 Gd11 2.353 . S
O50 C67 1.242 . S
O51 Gd11 2.468 . S
O51 C75 1.263 . S
O52 Gd11 2.427 . S
O52 C75 1.252 . S
O53 Gd10 2.307 . S
O53 C68 1.261 . S
O54 Gd11 2.388 . S
O54 C68 1.252 . S
C55 O43 1.265 1_565 S
C55 O44 1.242 . S
C56 O47 1.261 . S
C56 O48 1.252 . S
C57 C60 1.394 . S
C57 C62 1.370 . S
C57 C63 1.500 . S
C58 C61 1.383 . S
C58 C62 1.395 . S
C59 C60 1.396 . S
C59 C61 1.365 . S
C59 H76 0.929 . S
C60 C57 1.394 . S
C60 C59 1.396 . S
C60 H77 0.930 . S
C61 C58 1.383 . S
C61 C59 1.365 . S
C61 H78 0.931 . S
C62 C57 1.370 . S
C62 C58 1.395 . S
C62 H79 0.930 . S
C63 Gd10 2.805 1_565 S
C63 O45 1.263 . S
C63 O46 1.252 . S
C63 C57 1.500 . S
C64 H26 0.930 . S
C64 C40 1.417 . S
C64 C65 1.329 . S
C65 C35 1.437 . S
C65 H36 0.929 . S
C65 C64 1.329 . S
H66 C39 0.931 . S
C67 O49 1.265 . S
C67 O50 1.242 . S
C68 O53 1.261 . S
C68 O54 1.252 . S
C69 C72 1.394 . S
C69 C74 1.370 . S
C69 C75 1.500 . S
C70 C73 1.383 . S
C70 C74 1.395 . S
C71 C72 1.396 . S
C71 C73 1.365 . S
C71 H80 0.929 . S
C72 C69 1.394 . S
C72 C71 1.396 . S
C72 H81 0.930 . S
C73 C70 1.383 . S
C73 C71 1.365 . S
C73 H82 0.931 . S
C74 C69 1.370 . S
C74 C70 1.395 . S
C74 H83 0.930 . S
C75 Gd11 2.805 . S
C75 O51 1.263 . S
C75 O52 1.252 . S
C75 C69 1.500 . S
H76 C59 0.929 . S
H77 C60 0.930 . S
H78 C61 0.931 . S
H79 C62 0.930 . S
H80 C71 0.929 . S
H81 C72 0.930 . S
H82 C73 0.931 . S
H83 C74 0.930 . S
C84 C86 1.422 . S
C84 C88 1.415 . S
C84 N90 1.369 . S
C85 C86 1.421 . S
C85 C87 1.417 . S
C85 C97 1.422 . S
C86 C84 1.422 . S
C86 C85 1.421 . S
C86 N96 1.359 . S
C87 C85 1.417 . S
C87 C89 1.329 . S
C87 H106 0.930 . S
C88 C84 1.415 . S
C88 C89 1.437 . S
C88 C92 1.413 . S
C89 C87 1.329 . S
C89 C88 1.437 . S
C89 H111 0.929 . S
N90 C84 1.369 . S
N90 C91 1.338 . S
N90 Gd95 2.622 1_455 S
C91 N90 1.338 . S
C91 C93 1.378 . S
C91 H103 0.929 . S
C92 C88 1.413 . S
C92 C93 1.348 . S
C92 H108 0.931 . S
C93 C91 1.378 . S
C93 C92 1.348 . S
C93 H109 0.930 . S
Gd94 N114 2.622 . S
Gd94 N121 2.570 . S
Gd94 O128 2.353 . S
Gd94 O129 2.468 . S
Gd94 O130 2.427 . S
Gd94 O132 2.388 . S
Gd94 O133 2.386 1_455 S
Gd94 O137 2.307 . S
Gd94 C147 2.805 . S
Gd95 N90 2.622 1_655 S
Gd95 N96 2.570 1_655 S
Gd95 O127 2.386 1_655 S
Gd95 O131 2.307 1_655 S
Gd95 O134 2.353 . S
Gd95 O135 2.468 . S
Gd95 O136 2.427 . S
Gd95 O138 2.388 1_655 S
Gd95 C159 2.805 . S
N96 C86 1.359 . S
N96 Gd95 2.570 1_455 S
N96 C98 1.343 . S
C97 C85 1.422 . S
C97 C99 1.321 . S
C97 H105 0.931 . S
C98 N96 1.343 . S
C98 C99 1.390 . S
C98 H100 0.931 . S
C99 C97 1.321 . S
C99 C98 1.390 . S
C99 H101 0.930 . S
H100 C98 0.931 . S
H101 C99 0.930 . S
H102 C125 0.931 . S
H103 C91 0.929 . S
H104 C126 0.930 . S
H105 C97 0.931 . S
H106 C87 0.930 . S
H107 C116 0.929 . S
H108 C92 0.931 . S
H109 C93 0.930 . S
H110 C148 0.930 . S
H111 C89 0.929 . S
H112 C117 0.931 1_655 S
H113 C118 0.930 . S
N114 Gd94 2.622 . S
N114 C115 1.369 . S
N114 C116 1.338 . S
C115 N114 1.369 . S
C115 C119 1.415 . S
C115 C122 1.422 . S
C116 H107 0.929 . S
C116 N114 1.338 . S
C116 C118 1.378 . S
C117 H112 0.931 1_455 S
C117 C118 1.348 . S
C117 C119 1.413 . S
C118 H113 0.930 . S
C118 C116 1.378 . S
C118 C117 1.348 . S
C119 C115 1.415 . S
C119 C117 1.413 . S
C119 C149 1.437 1_455 S
H120 C149 0.929 . S
N121 Gd94 2.570 . S
N121 C122 1.359 . S
N121 C125 1.343 . S
C122 C115 1.422 . S
C122 N121 1.359 . S
C122 C124 1.421 . S
C123 C124 1.422 . S
C123 C126 1.321 . S
C123 H150 0.931 1_455 S
C124 C122 1.421 . S
C124 C123 1.422 . S
C124 C148 1.417 1_455 S
C125 H102 0.931 . S
C125 N121 1.343 . S
C125 C126 1.390 . S
C126 H104 0.930 . S
C126 C123 1.321 . S
C126 C125 1.390 . S
O127 Gd95 2.386 1_455 S
O127 C139 1.265 . S
O128 Gd94 2.353 . S
O128 C139 1.242 . S
O129 Gd94 2.468 . S
O129 C147 1.263 . S
O130 Gd94 2.427 . S
O130 C147 1.252 . S
O131 Gd95 2.307 1_455 S
O131 C140 1.261 . S
O132 Gd94 2.388 . S
O132 C140 1.252 . S
O133 Gd94 2.386 1_655 S
O133 C151 1.265 . S
O134 Gd95 2.353 . S
O134 C151 1.242 . S
O135 Gd95 2.468 . S
O135 C159 1.263 . S
O136 Gd95 2.427 . S
O136 C159 1.252 . S
O137 Gd94 2.307 . S
O137 C152 1.261 . S
O138 Gd95 2.388 1_455 S
O138 C152 1.252 . S
C139 O127 1.265 . S
C139 O128 1.242 . S
C140 O131 1.261 . S
C140 O132 1.252 . S
C141 C144 1.394 . S
C141 C146 1.370 . S
C141 C147 1.500 . S
C142 C145 1.383 . S
C142 C146 1.395 . S
C143 C144 1.396 . S
C143 C145 1.365 . S
C143 H160 0.929 . S
C144 C141 1.394 . S
C144 C143 1.396 . S
C144 H161 0.930 . S
C145 C142 1.383 . S
C145 C143 1.365 . S
C145 H162 0.931 . S
C146 C141 1.370 . S
C146 C142 1.395 . S
C146 H163 0.930 . S
C147 Gd94 2.805 . S
C147 O129 1.263 . S
C147 O130 1.252 . S
C147 C141 1.500 . S
C148 H110 0.930 . S
C148 C124 1.417 1_655 S
C148 C149 1.329 . S
C149 C119 1.437 1_655 S
C149 H120 0.929 . S
C149 C148 1.329 . S
H150 C123 0.931 1_655 S
C151 O133 1.265 . S
C151 O134 1.242 . S
C152 O137 1.261 . S
C152 O138 1.252 . S
C153 C156 1.394 . S
C153 C158 1.370 . S
C153 C159 1.500 . S
C154 C157 1.383 . S
C154 C158 1.395 . S
C155 C156 1.396 . S
C155 C157 1.365 . S
C155 H164 0.929 . S
C156 C153 1.394 . S
C156 C155 1.396 . S
C156 H165 0.930 . S
C157 C154 1.383 . S
C157 C155 1.365 . S
C157 H166 0.931 . S
C158 C153 1.370 . S
C158 C154 1.395 . S
C158 H167 0.930 . S
C159 Gd95 2.805 . S
C159 O135 1.263 . S
C159 O136 1.252 . S
C159 C153 1.500 . S
H160 C143 0.929 . S
H161 C144 0.930 . S
H162 C145 0.931 . S
H163 C146 0.930 . S
H164 C155 0.929 . S
H165 C156 0.930 . S
H166 C157 0.931 . S
H167 C158 0.930 . S
C168 C170 1.422 . S
C168 C172 1.415 . S
C168 N174 1.369 . S
C169 C170 1.421 . S
C169 C171 1.417 . S
C169 C181 1.422 . S
C170 C168 1.422 . S
C170 C169 1.421 . S
C170 N180 1.359 . S
C171 C169 1.417 . S
C171 C173 1.329 . S
C171 H190 0.930 . S
C172 C168 1.415 . S
C172 C173 1.437 . S
C172 C176 1.413 . S
C173 C171 1.329 . S
C173 C172 1.437 . S
C173 H195 0.929 . S
N174 C168 1.369 . S
N174 C175 1.338 . S
N174 Gd179 2.622 . S
C175 N174 1.338 . S
C175 C177 1.378 . S
C175 H187 0.929 . S
C176 C172 1.413 . S
C176 C177 1.348 . S
C176 H192 0.931 . S
C177 C175 1.378 . S
C177 C176 1.348 . S
C177 H193 0.930 . S
Gd178 N198 2.622 . S
Gd178 N205 2.570 . S
Gd178 O212 2.353 . S
Gd178 O213 2.468 . S
Gd178 O214 2.427 . S
Gd178 O216 2.388 . S
Gd178 O217 2.386 . S
Gd178 O221 2.307 . S
Gd178 C231 2.805 . S
Gd179 N174 2.622 . S
Gd179 N180 2.570 . S
Gd179 O211 2.386 . S
Gd179 O215 2.307 . S
Gd179 O218 2.353 . S
Gd179 O219 2.468 . S
Gd179 O220 2.427 . S
Gd179 O222 2.388 . S
Gd179 C243 2.805 . S
N180 C170 1.359 . S
N180 Gd179 2.570 . S
N180 C182 1.343 . S
C181 C169 1.422 . S
C181 C183 1.321 . S
C181 H189 0.931 . S
C182 N180 1.343 . S
C182 C183 1.390 . S
C182 H184 0.931 . S
C183 C181 1.321 . S
C183 C182 1.390 . S
C183 H185 0.930 . S
H184 C182 0.931 . S
H185 C183 0.930 . S
H186 C209 0.931 . S
H187 C175 0.929 . S
H188 C210 0.930 . S
H189 C181 0.931 . S
H190 C171 0.930 . S
H191 C200 0.929 . S
H192 C176 0.931 . S
H193 C177 0.930 . S
H194 C232 0.930 . S
H195 C173 0.929 . S
H196 C201 0.931 . S
H197 C202 0.930 . S
N198 Gd178 2.622 . S
N198 C199 1.369 . S
N198 C200 1.338 . S
C199 N198 1.369 . S
C199 C203 1.415 . S
C199 C206 1.422 . S
C200 H191 0.929 . S
C200 N198 1.338 . S
C200 C202 1.378 . S
C201 H196 0.931 . S
C201 C202 1.348 . S
C201 C203 1.413 . S
C202 H197 0.930 . S
C202 C200 1.378 . S
C202 C201 1.348 . S
C203 C199 1.415 . S
C203 C201 1.413 . S
C203 C233 1.437 . S
H204 C233 0.929 . S
N205 Gd178 2.570 . S
N205 C206 1.359 . S
N205 C209 1.343 . S
C206 C199 1.422 . S
C206 N205 1.359 . S
C206 C208 1.421 . S
C207 C208 1.422 . S
C207 C210 1.321 . S
C207 H234 0.931 . S
C208 C206 1.421 . S
C208 C207 1.422 . S
C208 C232 1.417 . S
C209 H186 0.931 . S
C209 N205 1.343 . S
C209 C210 1.390 . S
C210 H188 0.930 . S
C210 C207 1.321 . S
C210 C209 1.390 . S
O211 Gd179 2.386 . S
O211 C223 1.265 . S
O212 Gd178 2.353 . S
O212 C223 1.242 . S
O213 Gd178 2.468 . S
O213 C231 1.263 . S
O214 Gd178 2.427 . S
O214 C231 1.252 . S
O215 Gd179 2.307 . S
O215 C224 1.261 . S
O216 Gd178 2.388 . S
O216 C224 1.252 . S
O217 Gd178 2.386 . S
O217 C235 1.265 . S
O218 Gd179 2.353 . S
O218 C235 1.242 . S
O219 Gd179 2.468 . S
O219 C243 1.263 . S
O220 Gd179 2.427 . S
O220 C243 1.252 . S
O221 Gd178 2.307 . S
O221 C236 1.261 . S
O222 Gd179 2.388 . S
O222 C236 1.252 . S
C223 O211 1.265 . S
C223 O212 1.242 . S
C224 O215 1.261 . S
C224 O216 1.252 . S
C225 C228 1.394 . S
C225 C230 1.370 . S
C225 C231 1.500 . S
C226 C229 1.383 . S
C226 C230 1.395 . S
C227 C228 1.396 . S
C227 C229 1.365 . S
C227 H244 0.929 . S
C228 C225 1.394 . S
C228 C227 1.396 . S
C228 H245 0.930 . S
C229 C226 1.383 . S
C229 C227 1.365 . S
C229 H246 0.931 . S
C230 C225 1.370 . S
C230 C226 1.395 . S
C230 H247 0.930 . S
C231 Gd178 2.805 . S
C231 O213 1.263 . S
C231 O214 1.252 . S
C231 C225 1.500 . S
C232 H194 0.930 . S
C232 C208 1.417 . S
C232 C233 1.329 . S
C233 C203 1.437 . S
C233 H204 0.929 . S
C233 C232 1.329 . S
H234 C207 0.931 . S
C235 O217 1.265 . S
C235 O218 1.242 . S
C236 O221 1.261 . S
C236 O222 1.252 . S
C237 C240 1.394 . S
C237 C242 1.370 . S
C237 C243 1.500 . S
C238 C241 1.383 . S
C238 C242 1.395 . S
C239 C240 1.396 . S
C239 C241 1.365 . S
C239 H248 0.929 . S
C240 C237 1.394 . S
C240 C239 1.396 . S
C240 H249 0.930 . S
C241 C238 1.383 . S
C241 C239 1.365 . S
C241 H250 0.931 . S
C242 C237 1.370 . S
C242 C238 1.395 . S
C242 H251 0.930 . S
C243 Gd179 2.805 . S
C243 O219 1.263 . S
C243 O220 1.252 . S
C243 C237 1.500 . S
H244 C227 0.929 . S
H245 C228 0.930 . S
H246 C229 0.931 . S
H247 C230 0.930 . S
H248 C239 0.929 . S
H249 C240 0.930 . S
H250 C241 0.931 . S
H251 C242 0.930 . S
C252 C254 1.422 . S
C252 C256 1.415 . S
C252 N258 1.369 . S
C253 C254 1.421 . S
C253 C255 1.417 . S
C253 C265 1.422 . S
C254 C252 1.422 . S
C254 C253 1.421 . S
C254 N264 1.359 . S
C255 C253 1.417 . S
C255 C257 1.329 . S
C255 H274 0.930 . S
C256 C252 1.415 . S
C256 C257 1.437 . S
C256 C260 1.413 . S
C257 C255 1.329 . S
C257 C256 1.437 . S
C257 H279 0.929 . S
N258 C252 1.369 . S
N258 C259 1.338 . S
N258 Gd263 2.622 . S
C259 N258 1.338 . S
C259 C261 1.378 . S
C259 H271 0.929 . S
C260 C256 1.413 . S
C260 C261 1.348 . S
C260 H276 0.931 . S
C261 C259 1.378 . S
C261 C260 1.348 . S
C261 H277 0.930 . S
Gd262 N282 2.622 . S
Gd262 N289 2.570 . S
Gd262 O296 2.353 1_455 S
Gd262 O297 2.468 1_455 S
Gd262 O298 2.427 1_455 S
Gd262 O300 2.388 . S
Gd262 O301 2.386 . S
Gd262 O305 2.307 . S
Gd262 C315 2.805 1_455 S
Gd263 N258 2.622 . S
Gd263 N264 2.570 . S
Gd263 O295 2.386 . S
Gd263 O299 2.307 . S
Gd263 O302 2.353 . S
Gd263 O303 2.468 . S
Gd263 O304 2.427 . S
Gd263 O306 2.388 . S
Gd263 C327 2.805 . S
N264 C254 1.359 . S
N264 Gd263 2.570 . S
N264 C266 1.343 . S
C265 C253 1.422 . S
C265 C267 1.321 . S
C265 H273 0.931 . S
C266 N264 1.343 . S
C266 C267 1.390 . S
C266 H268 0.931 . S
C267 C265 1.321 . S
C267 C266 1.390 . S
C267 H269 0.930 . S
H268 C266 0.931 . S
H269 C267 0.930 . S
H270 C293 0.931 . S
H271 C259 0.929 . S
H272 C294 0.930 . S
H273 C265 0.931 . S
H274 C255 0.930 . S
H275 C284 0.929 . S
H276 C260 0.931 . S
H277 C261 0.930 . S
H278 C316 0.930 . S
H279 C257 0.929 . S
H280 C285 0.931 . S
H281 C286 0.930 . S
N282 Gd262 2.622 . S
N282 C283 1.369 . S
N282 C284 1.338 . S
C283 N282 1.369 . S
C283 C287 1.415 . S
C283 C290 1.422 . S
C284 H275 0.929 . S
C284 N282 1.338 . S
C284 C286 1.378 . S
C285 H280 0.931 . S
C285 C286 1.348 . S
C285 C287 1.413 . S
C286 H281 0.930 . S
C286 C284 1.378 . S
C286 C285 1.348 . S
C287 C283 1.415 . S
C287 C285 1.413 . S
C287 C317 1.437 . S
H288 C317 0.929 . S
N289 Gd262 2.570 . S
N289 C290 1.359 . S
N289 C293 1.343 . S
C290 C283 1.422 . S
C290 N289 1.359 . S
C290 C292 1.421 . S
C291 C292 1.422 . S
C291 C294 1.321 . S
C291 H318 0.931 . S
C292 C290 1.421 . S
C292 C291 1.422 . S
C292 C316 1.417 . S
C293 H270 0.931 . S
C293 N289 1.343 . S
C293 C294 1.390 . S
C294 H272 0.930 . S
C294 C291 1.321 . S
C294 C293 1.390 . S
O295 Gd263 2.386 . S
O295 C307 1.265 1_455 S
O296 Gd262 2.353 1_655 S
O296 C307 1.242 . S
O297 Gd262 2.468 1_655 S
O297 C315 1.263 . S
O298 Gd262 2.427 1_655 S
O298 C315 1.252 . S
O299 Gd263 2.307 . S
O299 C308 1.261 . S
O300 Gd262 2.388 . S
O300 C308 1.252 . S
O301 Gd262 2.386 . S
O301 C319 1.265 . S
O302 Gd263 2.353 . S
O302 C319 1.242 . S
O303 Gd263 2.468 . S
O303 C327 1.263 . S
O304 Gd263 2.427 . S
O304 C327 1.252 . S
O305 Gd262 2.307 . S
O305 C320 1.261 . S
O306 Gd263 2.388 . S
O306 C320 1.252 . S
C307 O295 1.265 1_655 S
C307 O296 1.242 . S
C308 O299 1.261 . S
C308 O300 1.252 . S
C309 C312 1.394 . S
C309 C314 1.370 . S
C309 C315 1.500 . S
C310 C313 1.383 . S
C310 C314 1.395 . S
C311 C312 1.396 . S
C311 C313 1.365 . S
C311 H328 0.929 . S
C312 C309 1.394 . S
C312 C311 1.396 . S
C312 H329 0.930 . S
C313 C310 1.383 . S
C313 C311 1.365 . S
C313 H330 0.931 . S
C314 C309 1.370 . S
C314 C310 1.395 . S
C314 H331 0.930 . S
C315 Gd262 2.805 1_655 S
C315 O297 1.263 . S
C315 O298 1.252 . S
C315 C309 1.500 . S
C316 H278 0.930 . S
C316 C292 1.417 . S
C316 C317 1.329 . S
C317 C287 1.437 . S
C317 H288 0.929 . S
C317 C316 1.329 . S
H318 C291 0.931 . S
C319 O301 1.265 . S
C319 O302 1.242 . S
C320 O305 1.261 . S
C320 O306 1.252 . S
C321 C324 1.394 . S
C321 C326 1.370 . S
C321 C327 1.500 . S
C322 C325 1.383 . S
C322 C326 1.395 . S
C323 C324 1.396 . S
C323 C325 1.365 . S
C323 H332 0.929 . S
C324 C321 1.394 . S
C324 C323 1.396 . S
C324 H333 0.930 . S
C325 C322 1.383 . S
C325 C323 1.365 . S
C325 H334 0.931 . S
C326 C321 1.370 . S
C326 C322 1.395 . S
C326 H335 0.930 . S
C327 Gd263 2.805 . S
C327 O303 1.263 . S
C327 O304 1.252 . S
C327 C321 1.500 . S
H328 C311 0.929 . S
H329 C312 0.930 . S
H330 C313 0.931 . S
H331 C314 0.930 . S
H332 C323 0.929 . S
H333 C324 0.930 . S
H334 C325 0.931 . S
H335 C326 0.930 . S
C336 C338 1.422 . S
C336 C340 1.415 . S
C336 N342 1.369 . S
C337 C338 1.421 . S
C337 C339 1.417 . S
C337 C349 1.422 . S
C338 C336 1.422 . S
C338 C337 1.421 . S
C338 N348 1.359 . S
C339 C337 1.417 . S
C339 C341 1.329 . S
C339 H358 0.930 . S
C340 C336 1.415 . S
C340 C341 1.437 . S
C340 C344 1.413 . S
C341 C339 1.329 . S
C341 C340 1.437 . S
C341 H363 0.929 . S
N342 C336 1.369 . S
N342 C343 1.338 . S
N342 Gd347 2.622 . S
C343 N342 1.338 . S
C343 C345 1.378 . S
C343 H355 0.929 . S
C344 C340 1.413 . S
C344 C345 1.348 . S
C344 H360 0.931 . S
C345 C343 1.378 . S
C345 C344 1.348 . S
C345 H361 0.930 . S
Gd346 N366 2.622 . S
Gd346 N373 2.570 . S
Gd346 O380 2.353 . S
Gd346 O381 2.468 . S
Gd346 O382 2.427 . S
Gd346 O384 2.388 . S
Gd346 O385 2.386 . S
Gd346 O389 2.307 . S
Gd346 C399 2.805 . S
Gd347 N342 2.622 . S
Gd347 N348 2.570 . S
Gd347 O379 2.386 . S
Gd347 O383 2.307 . S
Gd347 O386 2.353 . S
Gd347 O387 2.468 . S
Gd347 O388 2.427 . S
Gd347 O390 2.388 . S
Gd347 C411 2.805 . S
N348 C338 1.359 . S
N348 Gd347 2.570 . S
N348 C350 1.343 . S
C349 C337 1.422 . S
C349 C351 1.321 . S
C349 H357 0.931 . S
C350 N348 1.343 . S
C350 C351 1.390 . S
C350 H352 0.931 . S
C351 C349 1.321 . S
C351 C350 1.390 . S
C351 H353 0.930 . S
H352 C350 0.931 . S
H353 C351 0.930 . S
H354 C377 0.931 . S
H355 C343 0.929 . S
H356 C378 0.930 . S
H357 C349 0.931 . S
H358 C339 0.930 . S
H359 C368 0.929 . S
H360 C344 0.931 . S
H361 C345 0.930 . S
H362 C400 0.930 . S
H363 C341 0.929 . S
H364 C369 0.931 . S
H365 C370 0.930 . S
N366 Gd346 2.622 . S
N366 C367 1.369 . S
N366 C368 1.338 . S
C367 N366 1.369 . S
C367 C371 1.415 . S
C367 C374 1.422 . S
C368 H359 0.929 . S
C368 N366 1.338 . S
C368 C370 1.378 . S
C369 H364 0.931 . S
C369 C370 1.348 . S
C369 C371 1.413 . S
C370 H365 0.930 . S
C370 C368 1.378 . S
C370 C369 1.348 . S
C371 C367 1.415 . S
C371 C369 1.413 . S
C371 C401 1.437 . S
H372 C401 0.929 . S
N373 Gd346 2.570 . S
N373 C374 1.359 . S
N373 C377 1.343 . S
C374 C367 1.422 . S
C374 N373 1.359 . S
C374 C376 1.421 . S
C375 C376 1.422 . S
C375 C378 1.321 . S
C375 H402 0.931 . S
C376 C374 1.421 . S
C376 C375 1.422 . S
C376 C400 1.417 . S
C377 H354 0.931 . S
C377 N373 1.343 . S
C377 C378 1.390 . S
C378 H356 0.930 . S
C378 C375 1.321 . S
C378 C377 1.390 . S
O379 Gd347 2.386 . S
O379 C391 1.265 . S
O380 Gd346 2.353 . S
O380 C391 1.242 . S
O381 Gd346 2.468 . S
O381 C399 1.263 . S
O382 Gd346 2.427 . S
O382 C399 1.252 . S
O383 Gd347 2.307 . S
O383 C392 1.261 . S
O384 Gd346 2.388 . S
O384 C392 1.252 . S
O385 Gd346 2.386 . S
O385 C403 1.265 . S
O386 Gd347 2.353 . S
O386 C403 1.242 . S
O387 Gd347 2.468 . S
O387 C411 1.263 . S
O388 Gd347 2.427 . S
O388 C411 1.252 . S
O389 Gd346 2.307 . S
O389 C404 1.261 . S
O390 Gd347 2.388 . S
O390 C404 1.252 . S
C391 O379 1.265 . S
C391 O380 1.242 . S
C392 O383 1.261 . S
C392 O384 1.252 . S
C393 C396 1.394 . S
C393 C398 1.370 . S
C393 C399 1.500 . S
C394 C397 1.383 . S
C394 C398 1.395 . S
C395 C396 1.396 . S
C395 C397 1.365 . S
C395 H412 0.929 . S
C396 C393 1.394 . S
C396 C395 1.396 . S
C396 H413 0.930 . S
C397 C394 1.383 . S
C397 C395 1.365 . S
C397 H414 0.931 . S
C398 C393 1.370 . S
C398 C394 1.395 . S
C398 H415 0.930 . S
C399 Gd346 2.805 . S
C399 O381 1.263 . S
C399 O382 1.252 . S
C399 C393 1.500 . S
C400 H362 0.930 . S
C400 C376 1.417 . S
C400 C401 1.329 . S
C401 C371 1.437 . S
C401 H372 0.929 . S
C401 C400 1.329 . S
H402 C375 0.931 . S
C403 O385 1.265 . S
C403 O386 1.242 . S
C404 O389 1.261 . S
C404 O390 1.252 . S
C405 C408 1.394 . S
C405 C410 1.370 . S
C405 C411 1.500 . S
C406 C409 1.383 . S
C406 C410 1.395 . S
C407 C408 1.396 . S
C407 C409 1.365 . S
C407 H416 0.929 . S
C408 C405 1.394 . S
C408 C407 1.396 . S
C408 H417 0.930 . S
C409 C406 1.383 . S
C409 C407 1.365 . S
C409 H418 0.931 . S
C410 C405 1.370 . S
C410 C406 1.395 . S
C410 H419 0.930 . S
C411 Gd347 2.805 . S
C411 O387 1.263 . S
C411 O388 1.252 . S
C411 C405 1.500 . S
H412 C395 0.929 . S
H413 C396 0.930 . S
H414 C397 0.931 . S
H415 C398 0.930 . S
H416 C407 0.929 . S
H417 C408 0.930 . S
H418 C409 0.931 . S
H419 C410 0.930 . S
C420 C422 1.422 . S
C420 C424 1.415 . S
C420 N426 1.369 . S
C421 C422 1.421 . S
C421 C423 1.417 . S
C421 C433 1.422 . S
C422 C420 1.422 . S
C422 C421 1.421 . S
C422 N432 1.359 . S
C423 C421 1.417 . S
C423 C425 1.329 . S
C423 H442 0.930 . S
C424 C420 1.415 . S
C424 C425 1.437 . S
C424 C428 1.413 . S
C425 C423 1.329 . S
C425 C424 1.437 . S
C425 H447 0.929 . S
N426 C420 1.369 . S
N426 C427 1.338 . S
N426 Gd431 2.622 1_545 S
C427 N426 1.338 . S
C427 C429 1.378 . S
C427 H439 0.929 . S
C428 C424 1.413 . S
C428 C429 1.348 . S
C428 H444 0.931 . S
C429 C427 1.378 . S
C429 C428 1.348 . S
C429 H445 0.930 . S
Gd430 N450 2.622 . S
Gd430 N457 2.570 . S
Gd430 O464 2.353 . S
Gd430 O465 2.468 . S
Gd430 O466 2.427 . S
Gd430 O468 2.388 . S
Gd430 O469 2.386 1_545 S
Gd430 O473 2.307 . S
Gd430 C483 2.805 . S
Gd431 N426 2.622 1_565 S
Gd431 N432 2.570 1_565 S
Gd431 O463 2.386 1_565 S
Gd431 O467 2.307 1_565 S
Gd431 O470 2.353 . S
Gd431 O471 2.468 . S
Gd431 O472 2.427 . S
Gd431 O474 2.388 1_565 S
Gd431 C495 2.805 . S
N432 C422 1.359 . S
N432 Gd431 2.570 1_545 S
N432 C434 1.343 . S
C433 C421 1.422 . S
C433 C435 1.321 . S
C433 H441 0.931 . S
C434 N432 1.343 . S
C434 C435 1.390 . S
C434 H436 0.931 . S
C435 C433 1.321 . S
C435 C434 1.390 . S
C435 H437 0.930 . S
H436 C434 0.931 . S
H437 C435 0.930 . S
H438 C461 0.931 . S
H439 C427 0.929 . S
H440 C462 0.930 . S
H441 C433 0.931 . S
H442 C423 0.930 . S
H443 C452 0.929 . S
H444 C428 0.931 . S
H445 C429 0.930 . S
H446 C484 0.930 . S
H447 C425 0.929 . S
H448 C453 0.931 1_565 S
H449 C454 0.930 . S
N450 Gd430 2.622 . S
N450 C451 1.369 . S
N450 C452 1.338 . S
C451 N450 1.369 . S
C451 C455 1.415 . S
C451 C458 1.422 . S
C452 H443 0.929 . S
C452 N450 1.338 . S
C452 C454 1.378 . S
C453 H448 0.931 1_545 S
C453 C454 1.348 . S
C453 C455 1.413 . S
C454 H449 0.930 . S
C454 C452 1.378 . S
C454 C453 1.348 . S
C455 C451 1.415 . S
C455 C453 1.413 . S
C455 C485 1.437 1_545 S
H456 C485 0.929 . S
N457 Gd430 2.570 . S
N457 C458 1.359 . S
N457 C461 1.343 . S
C458 C451 1.422 . S
C458 N457 1.359 . S
C458 C460 1.421 . S
C459 C460 1.422 . S
C459 C462 1.321 . S
C459 H486 0.931 1_545 S
C460 C458 1.421 . S
C460 C459 1.422 . S
C460 C484 1.417 1_545 S
C461 H438 0.931 . S
C461 N457 1.343 . S
C461 C462 1.390 . S
C462 H440 0.930 . S
C462 C459 1.321 . S
C462 C461 1.390 . S
O463 Gd431 2.386 1_545 S
O463 C475 1.265 . S
O464 Gd430 2.353 . S
O464 C475 1.242 . S
O465 Gd430 2.468 . S
O465 C483 1.263 . S
O466 Gd430 2.427 . S
O466 C483 1.252 . S
O467 Gd431 2.307 1_545 S
O467 C476 1.261 . S
O468 Gd430 2.388 . S
O468 C476 1.252 . S
O469 Gd430 2.386 1_565 S
O469 C487 1.265 . S
O470 Gd431 2.353 . S
O470 C487 1.242 . S
O471 Gd431 2.468 . S
O471 C495 1.263 . S
O472 Gd431 2.427 . S
O472 C495 1.252 . S
O473 Gd430 2.307 . S
O473 C488 1.261 . S
O474 Gd431 2.388 1_545 S
O474 C488 1.252 . S
C475 O463 1.265 . S
C475 O464 1.242 . S
C476 O467 1.261 . S
C476 O468 1.252 . S
C477 C480 1.394 . S
C477 C482 1.370 . S
C477 C483 1.500 . S
C478 C481 1.383 . S
C478 C482 1.395 . S
C479 C480 1.396 . S
C479 C481 1.365 . S
C479 H496 0.929 . S
C480 C477 1.394 . S
C480 C479 1.396 . S
C480 H497 0.930 . S
C481 C478 1.383 . S
C481 C479 1.365 . S
C481 H498 0.931 . S
C482 C477 1.370 . S
C482 C478 1.395 . S
C482 H499 0.930 . S
C483 Gd430 2.805 . S
C483 O465 1.263 . S
C483 O466 1.252 . S
C483 C477 1.500 . S
C484 H446 0.930 . S
C484 C460 1.417 1_565 S
C484 C485 1.329 . S
C485 C455 1.437 1_565 S
C485 H456 0.929 . S
C485 C484 1.329 . S
H486 C459 0.931 1_565 S
C487 O469 1.265 . S
C487 O470 1.242 . S
C488 O473 1.261 . S
C488 O474 1.252 . S
C489 C492 1.394 . S
C489 C494 1.370 . S
C489 C495 1.500 . S
C490 C493 1.383 . S
C490 C494 1.395 . S
C491 C492 1.396 . S
C491 C493 1.365 . S
C491 H500 0.929 . S
C492 C489 1.394 . S
C492 C491 1.396 . S
C492 H501 0.930 . S
C493 C490 1.383 . S
C493 C491 1.365 . S
C493 H502 0.931 . S
C494 C489 1.370 . S
C494 C490 1.395 . S
C494 H503 0.930 . S
C495 Gd431 2.805 . S
C495 O471 1.263 . S
C495 O472 1.252 . S
C495 C489 1.500 . S
H496 C479 0.929 . S
H497 C480 0.930 . S
H498 C481 0.931 . S
H499 C482 0.930 . S
H500 C491 0.929 . S
H501 C492 0.930 . S
H502 C493 0.931 . S
H503 C494 0.930 . S
C504 C506 1.422 . S
C504 C508 1.415 . S
C504 N510 1.369 . S
C505 C506 1.421 . S
C505 C507 1.417 1_545 S
C505 C517 1.422 . S
C506 C504 1.422 . S
C506 C505 1.421 . S
C506 N516 1.359 . S
C507 C505 1.417 1_565 S
C507 C509 1.329 . S
C507 H526 0.930 . S
C508 C504 1.415 . S
C508 C509 1.437 1_545 S
C508 C512 1.413 . S
C509 C507 1.329 . S
C509 C508 1.437 1_565 S
C509 H531 0.929 . S
N510 C504 1.369 . S
N510 C511 1.338 . S
N510 Gd515 2.622 . S
C511 N510 1.338 . S
C511 C513 1.378 . S
C511 H523 0.929 . S
C512 C508 1.413 . S
C512 C513 1.348 . S
C512 H528 0.931 1_545 S
C513 C511 1.378 . S
C513 C512 1.348 . S
C513 H529 0.930 . S
Gd514 N534 2.622 1_565 S
Gd514 N541 2.570 1_565 S
Gd514 O548 2.353 . S
Gd514 O549 2.468 . S
Gd514 O550 2.427 . S
Gd514 O552 2.388 1_565 S
Gd514 O553 2.386 1_565 S
Gd514 O557 2.307 1_565 S
Gd514 C567 2.805 . S
Gd515 N510 2.622 . S
Gd515 N516 2.570 . S
Gd515 O547 2.386 1_545 S
Gd515 O551 2.307 . S
Gd515 O554 2.353 . S
Gd515 O555 2.468 . S
Gd515 O556 2.427 . S
Gd515 O558 2.388 . S
Gd515 C579 2.805 . S
N516 C506 1.359 . S
N516 Gd515 2.570 . S
N516 C518 1.343 . S
C517 C505 1.422 . S
C517 C519 1.321 . S
C517 H525 0.931 1_545 S
C518 N516 1.343 . S
C518 C519 1.390 . S
C518 H520 0.931 . S
C519 C517 1.321 . S
C519 C518 1.390 . S
C519 H521 0.930 . S
H520 C518 0.931 . S
H521 C519 0.930 . S
H522 C545 0.931 . S
H523 C511 0.929 . S
H524 C546 0.930 . S
H525 C517 0.931 1_565 S
H526 C507 0.930 . S
H527 C536 0.929 . S
H528 C512 0.931 1_565 S
H529 C513 0.930 . S
H530 C568 0.930 . S
H531 C509 0.929 . S
H532 C537 0.931 . S
H533 C538 0.930 . S
N534 Gd514 2.622 1_545 S
N534 C535 1.369 . S
N534 C536 1.338 . S
C535 N534 1.369 . S
C535 C539 1.415 . S
C535 C542 1.422 . S
C536 H527 0.929 . S
C536 N534 1.338 . S
C536 C538 1.378 . S
C537 H532 0.931 . S
C537 C538 1.348 . S
C537 C539 1.413 . S
C538 H533 0.930 . S
C538 C536 1.378 . S
C538 C537 1.348 . S
C539 C535 1.415 . S
C539 C537 1.413 . S
C539 C569 1.437 . S
H540 C569 0.929 . S
N541 Gd514 2.570 1_545 S
N541 C542 1.359 . S
N541 C545 1.343 . S
C542 C535 1.422 . S
C542 N541 1.359 . S
C542 C544 1.421 . S
C543 C544 1.422 . S
C543 C546 1.321 . S
C543 H570 0.931 . S
C544 C542 1.421 . S
C544 C543 1.422 . S
C544 C568 1.417 . S
C545 H522 0.931 . S
C545 N541 1.343 . S
C545 C546 1.390 . S
C546 H524 0.930 . S
C546 C543 1.321 . S
C546 C545 1.390 . S
O547 Gd515 2.386 1_565 S
O547 C559 1.265 . S
O548 Gd514 2.353 . S
O548 C559 1.242 . S
O549 Gd514 2.468 . S
O549 C567 1.263 . S
O550 Gd514 2.427 . S
O550 C567 1.252 . S
O551 Gd515 2.307 . S
O551 C560 1.261 . S
O552 Gd514 2.388 1_545 S
O552 C560 1.252 . S
O553 Gd514 2.386 1_545 S
O553 C571 1.265 . S
O554 Gd515 2.353 . S
O554 C571 1.242 . S
O555 Gd515 2.468 . S
O555 C579 1.263 . S
O556 Gd515 2.427 . S
O556 C579 1.252 . S
O557 Gd514 2.307 1_545 S
O557 C572 1.261 . S
O558 Gd515 2.388 . S
O558 C572 1.252 . S
C559 O547 1.265 . S
C559 O548 1.242 . S
C560 O551 1.261 . S
C560 O552 1.252 . S
C561 C564 1.394 . S
C561 C566 1.370 . S
C561 C567 1.500 . S
C562 C565 1.383 . S
C562 C566 1.395 . S
C563 C564 1.396 . S
C563 C565 1.365 . S
C563 H580 0.929 . S
C564 C561 1.394 . S
C564 C563 1.396 . S
C564 H581 0.930 . S
C565 C562 1.383 . S
C565 C563 1.365 . S
C565 H582 0.931 . S
C566 C561 1.370 . S
C566 C562 1.395 . S
C566 H583 0.930 . S
C567 Gd514 2.805 . S
C567 O549 1.263 . S
C567 O550 1.252 . S
C567 C561 1.500 . S
C568 H530 0.930 . S
C568 C544 1.417 . S
C568 C569 1.329 . S
C569 C539 1.437 . S
C569 H540 0.929 . S
C569 C568 1.329 . S
H570 C543 0.931 . S
C571 O553 1.265 . S
C571 O554 1.242 . S
C572 O557 1.261 . S
C572 O558 1.252 . S
C573 C576 1.394 . S
C573 C578 1.370 . S
C573 C579 1.500 . S
C574 C577 1.383 . S
C574 C578 1.395 . S
C575 C576 1.396 . S
C575 C577 1.365 . S
C575 H584 0.929 . S
C576 C573 1.394 . S
C576 C575 1.396 . S
C576 H585 0.930 . S
C577 C574 1.383 . S
C577 C575 1.365 . S
C577 H586 0.931 . S
C578 C573 1.370 . S
C578 C574 1.395 . S
C578 H587 0.930 . S
C579 Gd515 2.805 . S
C579 O555 1.263 . S
C579 O556 1.252 . S
C579 C573 1.500 . S
H580 C563 0.929 . S
H581 C564 0.930 . S
H582 C565 0.931 . S
H583 C566 0.930 . S
H584 C575 0.929 . S
H585 C576 0.930 . S
H586 C577 0.931 . S
H587 C578 0.930 . S
C588 C590 1.422 . S
C588 C592 1.415 . S
C588 N594 1.369 . S
C589 C590 1.421 . S
C589 C591 1.417 . S
C589 C601 1.422 . S
C590 C588 1.422 . S
C590 C589 1.421 . S
C590 N600 1.359 . S
C591 C589 1.417 . S
C591 C593 1.329 . S
C591 H610 0.930 . S
C592 C588 1.415 . S
C592 C593 1.437 . S
C592 C596 1.413 . S
C593 C591 1.329 . S
C593 C592 1.437 . S
C593 H615 0.929 . S
N594 C588 1.369 . S
N594 C595 1.338 . S
N594 Gd599 2.622 . S
C595 N594 1.338 . S
C595 C597 1.378 . S
C595 H607 0.929 . S
C596 C592 1.413 . S
C596 C597 1.348 . S
C596 H612 0.931 . S
C597 C595 1.378 . S
C597 C596 1.348 . S
C597 H613 0.930 . S
Gd598 N618 2.622 . S
Gd598 N625 2.570 . S
Gd598 O632 2.353 . S
Gd598 O633 2.468 . S
Gd598 O634 2.427 . S
Gd598 O636 2.388 . S
Gd598 O637 2.386 . S
Gd598 O641 2.307 . S
Gd598 C651 2.805 . S
Gd599 N594 2.622 . S
Gd599 N600 2.570 . S
Gd599 O631 2.386 . S
Gd599 O635 2.307 . S
Gd599 O638 2.353 1_455 S
Gd599 O639 2.468 1_455 S
Gd599 O640 2.427 1_455 S
Gd599 O642 2.388 . S
Gd599 C663 2.805 1_455 S
N600 C590 1.359 . S
N600 Gd599 2.570 . S
N600 C602 1.343 . S
C601 C589 1.422 . S
C601 C603 1.321 . S
C601 H609 0.931 . S
C602 N600 1.343 . S
C602 C603 1.390 . S
C602 H604 0.931 . S
C603 C601 1.321 . S
C603 C602 1.390 . S
C603 H605 0.930 . S
H604 C602 0.931 . S
H605 C603 0.930 . S
H606 C629 0.931 . S
H607 C595 0.929 . S
H608 C630 0.930 . S
H609 C601 0.931 . S
H610 C591 0.930 . S
H611 C620 0.929 . S
H612 C596 0.931 . S
H613 C597 0.930 . S
H614 C652 0.930 . S
H615 C593 0.929 . S
H616 C621 0.931 . S
H617 C622 0.930 . S
N618 Gd598 2.622 . S
N618 C619 1.369 . S
N618 C620 1.338 . S
C619 N618 1.369 . S
C619 C623 1.415 . S
C619 C626 1.422 . S
C620 H611 0.929 . S
C620 N618 1.338 . S
C620 C622 1.378 . S
C621 H616 0.931 . S
C621 C622 1.348 . S
C621 C623 1.413 . S
C622 H617 0.930 . S
C622 C620 1.378 . S
C622 C621 1.348 . S
C623 C619 1.415 . S
C623 C621 1.413 . S
C623 C653 1.437 . S
H624 C653 0.929 . S
N625 Gd598 2.570 . S
N625 C626 1.359 . S
N625 C629 1.343 . S
C626 C619 1.422 . S
C626 N625 1.359 . S
C626 C628 1.421 . S
C627 C628 1.422 . S
C627 C630 1.321 . S
C627 H654 0.931 . S
C628 C626 1.421 . S
C628 C627 1.422 . S
C628 C652 1.417 . S
C629 H606 0.931 . S
C629 N625 1.343 . S
C629 C630 1.390 . S
C630 H608 0.930 . S
C630 C627 1.321 . S
C630 C629 1.390 . S
O631 Gd599 2.386 . S
O631 C643 1.265 . S
O632 Gd598 2.353 . S
O632 C643 1.242 . S
O633 Gd598 2.468 . S
O633 C651 1.263 . S
O634 Gd598 2.427 . S
O634 C651 1.252 . S
O635 Gd599 2.307 . S
O635 C644 1.261 . S
O636 Gd598 2.388 . S
O636 C644 1.252 . S
O637 Gd598 2.386 . S
O637 C655 1.265 1_455 S
O638 Gd599 2.353 1_655 S
O638 C655 1.242 . S
O639 Gd599 2.468 1_655 S
O639 C663 1.263 . S
O640 Gd599 2.427 1_655 S
O640 C663 1.252 . S
O641 Gd598 2.307 . S
O641 C656 1.261 . S
O642 Gd599 2.388 . S
O642 C656 1.252 . S
C643 O631 1.265 . S
C643 O632 1.242 . S
C644 O635 1.261 . S
C644 O636 1.252 . S
C645 C648 1.394 . S
C645 C650 1.370 . S
C645 C651 1.500 . S
C646 C649 1.383 . S
C646 C650 1.395 . S
C647 C648 1.396 . S
C647 C649 1.365 . S
C647 H664 0.929 . S
C648 C645 1.394 . S
C648 C647 1.396 . S
C648 H665 0.930 . S
C649 C646 1.383 . S
C649 C647 1.365 . S
C649 H666 0.931 . S
C650 C645 1.370 . S
C650 C646 1.395 . S
C650 H667 0.930 . S
C651 Gd598 2.805 . S
C651 O633 1.263 . S
C651 O634 1.252 . S
C651 C645 1.500 . S
C652 H614 0.930 . S
C652 C628 1.417 . S
C652 C653 1.329 . S
C653 C623 1.437 . S
C653 H624 0.929 . S
C653 C652 1.329 . S
H654 C627 0.931 . S
C655 O637 1.265 1_655 S
C655 O638 1.242 . S
C656 O641 1.261 . S
C656 O642 1.252 . S
C657 C660 1.394 . S
C657 C662 1.370 . S
C657 C663 1.500 . S
C658 C661 1.383 . S
C658 C662 1.395 . S
C659 C660 1.396 . S
C659 C661 1.365 . S
C659 H668 0.929 . S
C660 C657 1.394 . S
C660 C659 1.396 . S
C660 H669 0.930 . S
C661 C658 1.383 . S
C661 C659 1.365 . S
C661 H670 0.931 . S
C662 C657 1.370 . S
C662 C658 1.395 . S
C662 H671 0.930 . S
C663 Gd599 2.805 1_655 S
C663 O639 1.263 . S
C663 O640 1.252 . S
C663 C657 1.500 . S
H664 C647 0.929 . S
H665 C648 0.930 . S
H666 C649 0.931 . S
H667 C650 0.930 . S
H668 C659 0.929 . S
H669 C660 0.930 . S
H670 C661 0.931 . S
H671 C662 0.930 . S
C672 C674 1.422 . S
C672 C676 1.415 . S
C672 N678 1.369 . S
C673 C674 1.421 . S
C673 C675 1.417 . S
C673 C685 1.422 . S
C674 C672 1.422 . S
C674 C673 1.421 . S
C674 N684 1.359 . S
C675 C673 1.417 . S
C675 C677 1.329 . S
C675 H694 0.930 . S
C676 C672 1.415 . S
C676 C677 1.437 . S
C676 C680 1.413 . S
C677 C675 1.329 . S
C677 C676 1.437 . S
C677 H699 0.929 . S
N678 C672 1.369 . S
N678 C679 1.338 . S
N678 Gd683 2.622 . S
C679 N678 1.338 . S
C679 C681 1.378 . S
C679 H691 0.929 . S
C680 C676 1.413 . S
C680 C681 1.348 . S
C680 H696 0.931 . S
C681 C679 1.378 . S
C681 C680 1.348 . S
C681 H697 0.930 . S
Gd682 N702 2.622 . S
Gd682 N709 2.570 . S
Gd682 O716 2.353 . S
Gd682 O717 2.468 . S
Gd682 O718 2.427 . S
Gd682 O720 2.388 . S
Gd682 O721 2.386 . S
Gd682 O725 2.307 . S
Gd682 C735 2.805 . S
Gd683 N678 2.622 . S
Gd683 N684 2.570 . S
Gd683 O715 2.386 . S
Gd683 O719 2.307 . S
Gd683 O722 2.353 . S
Gd683 O723 2.468 . S
Gd683 O724 2.427 . S
Gd683 O726 2.388 . S
Gd683 C747 2.805 . S
N684 C674 1.359 . S
N684 Gd683 2.570 . S
N684 C686 1.343 . S
C685 C673 1.422 . S
C685 C687 1.321 . S
C685 H693 0.931 . S
C686 N684 1.343 . S
C686 C687 1.390 . S
C686 H688 0.931 . S
C687 C685 1.321 . S
C687 C686 1.390 . S
C687 H689 0.930 . S
H688 C686 0.931 . S
H689 C687 0.930 . S
H690 C713 0.931 . S
H691 C679 0.929 . S
H692 C714 0.930 . S
H693 C685 0.931 . S
H694 C675 0.930 . S
H695 C704 0.929 . S
H696 C680 0.931 . S
H697 C681 0.930 . S
H698 C736 0.930 . S
H699 C677 0.929 . S
H700 C705 0.931 . S
H701 C706 0.930 . S
N702 Gd682 2.622 . S
N702 C703 1.369 . S
N702 C704 1.338 . S
C703 N702 1.369 . S
C703 C707 1.415 . S
C703 C710 1.422 . S
C704 H695 0.929 . S
C704 N702 1.338 . S
C704 C706 1.378 . S
C705 H700 0.931 . S
C705 C706 1.348 . S
C705 C707 1.413 . S
C706 H701 0.930 . S
C706 C704 1.378 . S
C706 C705 1.348 . S
C707 C703 1.415 . S
C707 C705 1.413 . S
C707 C737 1.437 . S
H708 C737 0.929 . S
N709 Gd682 2.570 . S
N709 C710 1.359 . S
N709 C713 1.343 . S
C710 C703 1.422 . S
C710 N709 1.359 . S
C710 C712 1.421 . S
C711 C712 1.422 . S
C711 C714 1.321 . S
C711 H738 0.931 . S
C712 C710 1.421 . S
C712 C711 1.422 . S
C712 C736 1.417 . S
C713 H690 0.931 . S
C713 N709 1.343 . S
C713 C714 1.390 . S
C714 H692 0.930 . S
C714 C711 1.321 . S
C714 C713 1.390 . S
O715 Gd683 2.386 . S
O715 C727 1.265 . S
O716 Gd682 2.353 . S
O716 C727 1.242 . S
O717 Gd682 2.468 . S
O717 C735 1.263 . S
O718 Gd682 2.427 . S
O718 C735 1.252 . S
O719 Gd683 2.307 . S
O719 C728 1.261 . S
O720 Gd682 2.388 . S
O720 C728 1.252 . S
O721 Gd682 2.386 . S
O721 C739 1.265 . S
O722 Gd683 2.353 . S
O722 C739 1.242 . S
O723 Gd683 2.468 . S
O723 C747 1.263 . S
O724 Gd683 2.427 . S
O724 C747 1.252 . S
O725 Gd682 2.307 . S
O725 C740 1.261 . S
O726 Gd683 2.388 . S
O726 C740 1.252 . S
C727 O715 1.265 . S
C727 O716 1.242 . S
C728 O719 1.261 . S
C728 O720 1.252 . S
C729 C732 1.394 . S
C729 C734 1.370 . S
C729 C735 1.500 . S
C730 C733 1.383 . S
C730 C734 1.395 . S
C731 C732 1.396 . S
C731 C733 1.365 . S
C731 H748 0.929 . S
C732 C729 1.394 . S
C732 C731 1.396 . S
C732 H749 0.930 . S
C733 C730 1.383 . S
C733 C731 1.365 . S
C733 H750 0.931 . S
C734 C729 1.370 . S
C734 C730 1.395 . S
C734 H751 0.930 . S
C735 Gd682 2.805 . S
C735 O717 1.263 . S
C735 O718 1.252 . S
C735 C729 1.500 . S
C736 H698 0.930 . S
C736 C712 1.417 . S
C736 C737 1.329 . S
C737 C707 1.437 . S
C737 H708 0.929 . S
C737 C736 1.329 . S
H738 C711 0.931 . S
C739 O721 1.265 . S
C739 O722 1.242 . S
C740 O725 1.261 . S
C740 O726 1.252 . S
C741 C744 1.394 . S
C741 C746 1.370 . S
C741 C747 1.500 . S
C742 C745 1.383 . S
C742 C746 1.395 . S
C743 C744 1.396 . S
C743 C745 1.365 . S
C743 H752 0.929 . S
C744 C741 1.394 . S
C744 C743 1.396 . S
C744 H753 0.930 . S
C745 C742 1.383 . S
C745 C743 1.365 . S
C745 H754 0.931 . S
C746 C741 1.370 . S
C746 C742 1.395 . S
C746 H755 0.930 . S
C747 Gd683 2.805 . S
C747 O723 1.263 . S
C747 O724 1.252 . S
C747 C741 1.500 . S
H748 C731 0.929 . S
H749 C732 0.930 . S
H750 C733 0.931 . S
H751 C734 0.930 . S
H752 C743 0.929 . S
H753 C744 0.930 . S
H754 C745 0.931 . S
H755 C746 0.930 . S
C756 C758 1.422 . S
C756 C760 1.415 . S
C756 N762 1.369 . S
C757 C758 1.421 . S
C757 C759 1.417 1_455 S
C757 C769 1.422 . S
C758 C756 1.422 . S
C758 C757 1.421 . S
C758 N768 1.359 . S
C759 C757 1.417 1_655 S
C759 C761 1.329 . S
C759 H778 0.930 . S
C760 C756 1.415 . S
C760 C761 1.437 1_455 S
C760 C764 1.413 . S
C761 C759 1.329 . S
C761 C760 1.437 1_655 S
C761 H783 0.929 . S
N762 C756 1.369 . S
N762 C763 1.338 . S
N762 Gd767 2.622 . S
C763 N762 1.338 . S
C763 C765 1.378 . S
C763 H775 0.929 . S
C764 C760 1.413 . S
C764 C765 1.348 . S
C764 H780 0.931 1_455 S
C765 C763 1.378 . S
C765 C764 1.348 . S
C765 H781 0.930 . S
Gd766 N786 2.622 1_655 S
Gd766 N793 2.570 1_655 S
Gd766 O800 2.353 . S
Gd766 O801 2.468 . S
Gd766 O802 2.427 . S
Gd766 O804 2.388 1_655 S
Gd766 O805 2.386 1_655 S
Gd766 O809 2.307 1_655 S
Gd766 C819 2.805 . S
Gd767 N762 2.622 . S
Gd767 N768 2.570 . S
Gd767 O799 2.386 1_455 S
Gd767 O803 2.307 . S
Gd767 O806 2.353 . S
Gd767 O807 2.468 . S
Gd767 O808 2.427 . S
Gd767 O810 2.388 . S
Gd767 C831 2.805 . S
N768 C758 1.359 . S
N768 Gd767 2.570 . S
N768 C770 1.343 . S
C769 C757 1.422 . S
C769 C771 1.321 . S
C769 H777 0.931 1_455 S
C770 N768 1.343 . S
C770 C771 1.390 . S
C770 H772 0.931 . S
C771 C769 1.321 . S
C771 C770 1.390 . S
C771 H773 0.930 . S
H772 C770 0.931 . S
H773 C771 0.930 . S
H774 C797 0.931 . S
H775 C763 0.929 . S
H776 C798 0.930 . S
H777 C769 0.931 1_655 S
H778 C759 0.930 . S
H779 C788 0.929 . S
H780 C764 0.931 1_655 S
H781 C765 0.930 . S
H782 C820 0.930 . S
H783 C761 0.929 . S
H784 C789 0.931 . S
H785 C790 0.930 . S
N786 Gd766 2.622 1_455 S
N786 C787 1.369 . S
N786 C788 1.338 . S
C787 N786 1.369 . S
C787 C791 1.415 . S
C787 C794 1.422 . S
C788 H779 0.929 . S
C788 N786 1.338 . S
C788 C790 1.378 . S
C789 H784 0.931 . S
C789 C790 1.348 . S
C789 C791 1.413 . S
C790 H785 0.930 . S
C790 C788 1.378 . S
C790 C789 1.348 . S
C791 C787 1.415 . S
C791 C789 1.413 . S
C791 C821 1.437 . S
H792 C821 0.929 . S
N793 Gd766 2.570 1_455 S
N793 C794 1.359 . S
N793 C797 1.343 . S
C794 C787 1.422 . S
C794 N793 1.359 . S
C794 C796 1.421 . S
C795 C796 1.422 . S
C795 C798 1.321 . S
C795 H822 0.931 . S
C796 C794 1.421 . S
C796 C795 1.422 . S
C796 C820 1.417 . S
C797 H774 0.931 . S
C797 N793 1.343 . S
C797 C798 1.390 . S
C798 H776 0.930 . S
C798 C795 1.321 . S
C798 C797 1.390 . S
O799 Gd767 2.386 1_655 S
O799 C811 1.265 . S
O800 Gd766 2.353 . S
O800 C811 1.242 . S
O801 Gd766 2.468 . S
O801 C819 1.263 . S
O802 Gd766 2.427 . S
O802 C819 1.252 . S
O803 Gd767 2.307 . S
O803 C812 1.261 . S
O804 Gd766 2.388 1_455 S
O804 C812 1.252 . S
O805 Gd766 2.386 1_455 S
O805 C823 1.265 . S
O806 Gd767 2.353 . S
O806 C823 1.242 . S
O807 Gd767 2.468 . S
O807 C831 1.263 . S
O808 Gd767 2.427 . S
O808 C831 1.252 . S
O809 Gd766 2.307 1_455 S
O809 C824 1.261 . S
O810 Gd767 2.388 . S
O810 C824 1.252 . S
C811 O799 1.265 . S
C811 O800 1.242 . S
C812 O803 1.261 . S
C812 O804 1.252 . S
C813 C816 1.394 . S
C813 C818 1.370 . S
C813 C819 1.500 . S
C814 C817 1.383 . S
C814 C818 1.395 . S
C815 C816 1.396 . S
C815 C817 1.365 . S
C815 H832 0.929 . S
C816 C813 1.394 . S
C816 C815 1.396 . S
C816 H833 0.930 . S
C817 C814 1.383 . S
C817 C815 1.365 . S
C817 H834 0.931 . S
C818 C813 1.370 . S
C818 C814 1.395 . S
C818 H835 0.930 . S
C819 Gd766 2.805 . S
C819 O801 1.263 . S
C819 O802 1.252 . S
C819 C813 1.500 . S
C820 H782 0.930 . S
C820 C796 1.417 . S
C820 C821 1.329 . S
C821 C791 1.437 . S
C821 H792 0.929 . S
C821 C820 1.329 . S
H822 C795 0.931 . S
C823 O805 1.265 . S
C823 O806 1.242 . S
C824 O809 1.261 . S
C824 O810 1.252 . S
C825 C828 1.394 . S
C825 C830 1.370 . S
C825 C831 1.500 . S
C826 C829 1.383 . S
C826 C830 1.395 . S
C827 C828 1.396 . S
C827 C829 1.365 . S
C827 H836 0.929 . S
C828 C825 1.394 . S
C828 C827 1.396 . S
C828 H837 0.930 . S
C829 C826 1.383 . S
C829 C827 1.365 . S
C829 H838 0.931 . S
C830 C825 1.370 . S
C830 C826 1.395 . S
C830 H839 0.930 . S
C831 Gd767 2.805 . S
C831 O807 1.263 . S
C831 O808 1.252 . S
C831 C825 1.500 . S
H832 C815 0.929 . S
H833 C816 0.930 . S
H834 C817 0.931 . S
H835 C818 0.930 . S
H836 C827 0.929 . S
H837 C828 0.930 . S
H838 C829 0.931 . S
H839 C830 0.930 . S
C840 C842 1.422 . S
C840 C844 1.415 . S
C840 N846 1.369 . S
C841 C842 1.421 . S
C841 C843 1.417 . S
C841 C853 1.422 . S
C842 C840 1.422 . S
C842 C841 1.421 . S
C842 N852 1.359 . S
C843 C841 1.417 . S
C843 C845 1.329 . S
C843 H862 0.930 . S
C844 C840 1.415 . S
C844 C845 1.437 . S
C844 C848 1.413 . S
C845 C843 1.329 . S
C845 C844 1.437 . S
C845 H867 0.929 . S
N846 C840 1.369 . S
N846 C847 1.338 . S
N846 Gd851 2.622 . S
C847 N846 1.338 . S
C847 C849 1.378 . S
C847 H859 0.929 . S
C848 C844 1.413 . S
C848 C849 1.348 . S
C848 H864 0.931 . S
C849 C847 1.378 . S
C849 C848 1.348 . S
C849 H865 0.930 . S
Gd850 N870 2.622 . S
Gd850 N877 2.570 . S
Gd850 O884 2.353 . S
Gd850 O885 2.468 . S
Gd850 O886 2.427 . S
Gd850 O888 2.388 . S
Gd850 O889 2.386 . S
Gd850 O893 2.307 . S
Gd850 C903 2.805 . S
Gd851 N846 2.622 . S
Gd851 N852 2.570 . S
Gd851 O883 2.386 . S
Gd851 O887 2.307 . S
Gd851 O890 2.353 . S
Gd851 O891 2.468 . S
Gd851 O892 2.427 . S
Gd851 O894 2.388 . S
Gd851 C915 2.805 . S
N852 C842 1.359 . S
N852 Gd851 2.570 . S
N852 C854 1.343 . S
C853 C841 1.422 . S
C853 C855 1.321 . S
C853 H861 0.931 . S
C854 N852 1.343 . S
C854 C855 1.390 . S
C854 H856 0.931 . S
C855 C853 1.321 . S
C855 C854 1.390 . S
C855 H857 0.930 . S
H856 C854 0.931 . S
H857 C855 0.930 . S
H858 C881 0.931 . S
H859 C847 0.929 . S
H860 C882 0.930 . S
H861 C853 0.931 . S
H862 C843 0.930 . S
H863 C872 0.929 . S
H864 C848 0.931 . S
H865 C849 0.930 . S
H866 C904 0.930 . S
H867 C845 0.929 . S
H868 C873 0.931 . S
H869 C874 0.930 . S
N870 Gd850 2.622 . S
N870 C871 1.369 . S
N870 C872 1.338 . S
C871 N870 1.369 . S
C871 C875 1.415 . S
C871 C878 1.422 . S
C872 H863 0.929 . S
C872 N870 1.338 . S
C872 C874 1.378 . S
C873 H868 0.931 . S
C873 C874 1.348 . S
C873 C875 1.413 . S
C874 H869 0.930 . S
C874 C872 1.378 . S
C874 C873 1.348 . S
C875 C871 1.415 . S
C875 C873 1.413 . S
C875 C905 1.437 . S
H876 C905 0.929 . S
N877 Gd850 2.570 . S
N877 C878 1.359 . S
N877 C881 1.343 . S
C878 C871 1.422 . S
C878 N877 1.359 . S
C878 C880 1.421 . S
C879 C880 1.422 . S
C879 C882 1.321 . S
C879 H906 0.931 . S
C880 C878 1.421 . S
C880 C879 1.422 . S
C880 C904 1.417 . S
C881 H858 0.931 . S
C881 N877 1.343 . S
C881 C882 1.390 . S
C882 H860 0.930 . S
C882 C879 1.321 . S
C882 C881 1.390 . S
O883 Gd851 2.386 . S
O883 C895 1.265 . S
O884 Gd850 2.353 . S
O884 C895 1.242 . S
O885 Gd850 2.468 . S
O885 C903 1.263 . S
O886 Gd850 2.427 . S
O886 C903 1.252 . S
O887 Gd851 2.307 . S
O887 C896 1.261 . S
O888 Gd850 2.388 . S
O888 C896 1.252 . S
O889 Gd850 2.386 . S
O889 C907 1.265 . S
O890 Gd851 2.353 . S
O890 C907 1.242 . S
O891 Gd851 2.468 . S
O891 C915 1.263 . S
O892 Gd851 2.427 . S
O892 C915 1.252 . S
O893 Gd850 2.307 . S
O893 C908 1.261 . S
O894 Gd851 2.388 . S
O894 C908 1.252 . S
C895 O883 1.265 . S
C895 O884 1.242 . S
C896 O887 1.261 . S
C896 O888 1.252 . S
C897 C900 1.394 . S
C897 C902 1.370 . S
C897 C903 1.500 . S
C898 C901 1.383 . S
C898 C902 1.395 . S
C899 C900 1.396 . S
C899 C901 1.365 . S
C899 H916 0.929 . S
C900 C897 1.394 . S
C900 C899 1.396 . S
C900 H917 0.930 . S
C901 C898 1.383 . S
C901 C899 1.365 . S
C901 H918 0.931 . S
C902 C897 1.370 . S
C902 C898 1.395 . S
C902 H919 0.930 . S
C903 Gd850 2.805 . S
C903 O885 1.263 . S
C903 O886 1.252 . S
C903 C897 1.500 . S
C904 H866 0.930 . S
C904 C880 1.417 . S
C904 C905 1.329 . S
C905 C875 1.437 . S
C905 H876 0.929 . S
C905 C904 1.329 . S
H906 C879 0.931 . S
C907 O889 1.265 . S
C907 O890 1.242 . S
C908 O893 1.261 . S
C908 O894 1.252 . S
C909 C912 1.394 . S
C909 C914 1.370 . S
C909 C915 1.500 . S
C910 C913 1.383 . S
C910 C914 1.395 . S
C911 C912 1.396 . S
C911 C913 1.365 . S
C911 H920 0.929 . S
C912 C909 1.394 . S
C912 C911 1.396 . S
C912 H921 0.930 . S
C913 C910 1.383 . S
C913 C911 1.365 . S
C913 H922 0.931 . S
C914 C909 1.370 . S
C914 C910 1.395 . S
C914 H923 0.930 . S
C915 Gd851 2.805 . S
C915 O891 1.263 . S
C915 O892 1.252 . S
C915 C909 1.500 . S
H916 C899 0.929 . S
H917 C900 0.930 . S
H918 C901 0.931 . S
H919 C902 0.930 . S
H920 C911 0.929 . S
H921 C912 0.930 . S
H922 C913 0.931 . S
H923 C914 0.930 . S
C924 C926 1.422 . S
C924 C928 1.415 . S
C924 N930 1.369 . S
C925 C926 1.421 . S
C925 C927 1.417 . S
C925 C937 1.422 . S
C926 C924 1.422 . S
C926 C925 1.421 . S
C926 N936 1.359 . S
C927 C925 1.417 . S
C927 C929 1.329 . S
C927 H946 0.930 . S
C928 C924 1.415 . S
C928 C929 1.437 . S
C928 C932 1.413 . S
C929 C927 1.329 . S
C929 C928 1.437 . S
C929 H951 0.929 . S
N930 C924 1.369 . S
N930 C931 1.338 . S
N930 Gd935 2.622 . S
C931 N930 1.338 . S
C931 C933 1.378 . S
C931 H943 0.929 . S
C932 C928 1.413 . S
C932 C933 1.348 . S
C932 H948 0.931 . S
C933 C931 1.378 . S
C933 C932 1.348 . S
C933 H949 0.930 . S
Gd934 N954 2.622 . S
Gd934 N961 2.570 . S
Gd934 O968 2.353 . S
Gd934 O969 2.468 . S
Gd934 O970 2.427 . S
Gd934 O972 2.388 . S
Gd934 O973 2.386 . S
Gd934 O977 2.307 . S
Gd934 C987 2.805 . S
Gd935 N930 2.622 . S
Gd935 N936 2.570 . S
Gd935 O967 2.386 . S
Gd935 O971 2.307 . S
Gd935 O974 2.353 1_545 S
Gd935 O975 2.468 1_545 S
Gd935 O976 2.427 1_545 S
Gd935 O978 2.388 . S
Gd935 C999 2.805 1_545 S
N936 C926 1.359 . S
N936 Gd935 2.570 . S
N936 C938 1.343 . S
C937 C925 1.422 . S
C937 C939 1.321 . S
C937 H945 0.931 . S
C938 N936 1.343 . S
C938 C939 1.390 . S
C938 H940 0.931 . S
C939 C937 1.321 . S
C939 C938 1.390 . S
C939 H941 0.930 . S
H940 C938 0.931 . S
H941 C939 0.930 . S
H942 C965 0.931 . S
H943 C931 0.929 . S
H944 C966 0.930 . S
H945 C937 0.931 . S
H946 C927 0.930 . S
H947 C956 0.929 . S
H948 C932 0.931 . S
H949 C933 0.930 . S
H950 C988 0.930 . S
H951 C929 0.929 . S
H952 C957 0.931 . S
H953 C958 0.930 . S
N954 Gd934 2.622 . S
N954 C955 1.369 . S
N954 C956 1.338 . S
C955 N954 1.369 . S
C955 C959 1.415 . S
C955 C962 1.422 . S
C956 H947 0.929 . S
C956 N954 1.338 . S
C956 C958 1.378 . S
C957 H952 0.931 . S
C957 C958 1.348 . S
C957 C959 1.413 . S
C958 H953 0.930 . S
C958 C956 1.378 . S
C958 C957 1.348 . S
C959 C955 1.415 . S
C959 C957 1.413 . S
C959 C989 1.437 . S
H960 C989 0.929 . S
N961 Gd934 2.570 . S
N961 C962 1.359 . S
N961 C965 1.343 . S
C962 C955 1.422 . S
C962 N961 1.359 . S
C962 C964 1.421 . S
C963 C964 1.422 . S
C963 C966 1.321 . S
C963 H990 0.931 . S
C964 C962 1.421 . S
C964 C963 1.422 . S
C964 C988 1.417 . S
C965 H942 0.931 . S
C965 N961 1.343 . S
C965 C966 1.390 . S
C966 H944 0.930 . S
C966 C963 1.321 . S
C966 C965 1.390 . S
O967 Gd935 2.386 . S
O967 C979 1.265 . S
O968 Gd934 2.353 . S
O968 C979 1.242 . S
O969 Gd934 2.468 . S
O969 C987 1.263 . S
O970 Gd934 2.427 . S
O970 C987 1.252 . S
O971 Gd935 2.307 . S
O971 C980 1.261 . S
O972 Gd934 2.388 . S
O972 C980 1.252 . S
O973 Gd934 2.386 . S
O973 C991 1.265 1_545 S
O974 Gd935 2.353 1_565 S
O974 C991 1.242 . S
O975 Gd935 2.468 1_565 S
O975 C999 1.263 . S
O976 Gd935 2.427 1_565 S
O976 C999 1.252 . S
O977 Gd934 2.307 . S
O977 C992 1.261 . S
O978 Gd935 2.388 . S
O978 C992 1.252 . S
C979 O967 1.265 . S
C979 O968 1.242 . S
C980 O971 1.261 . S
C980 O972 1.252 . S
C981 C984 1.394 . S
C981 C986 1.370 . S
C981 C987 1.500 . S
C982 C985 1.383 . S
C982 C986 1.395 . S
C983 C984 1.396 . S
C983 C985 1.365 . S
C983 H1000 0.929 . S
C984 C981 1.394 . S
C984 C983 1.396 . S
C984 H1001 0.930 . S
C985 C982 1.383 . S
C985 C983 1.365 . S
C985 H1002 0.931 . S
C986 C981 1.370 . S
C986 C982 1.395 . S
C986 H1003 0.930 . S
C987 Gd934 2.805 . S
C987 O969 1.263 . S
C987 O970 1.252 . S
C987 C981 1.500 . S
C988 H950 0.930 . S
C988 C964 1.417 . S
C988 C989 1.329 . S
C989 C959 1.437 . S
C989 H960 0.929 . S
C989 C988 1.329 . S
H990 C963 0.931 . S
C991 O973 1.265 1_565 S
C991 O974 1.242 . S
C992 O977 1.261 . S
C992 O978 1.252 . S
C993 C996 1.394 . S
C993 C998 1.370 . S
C993 C999 1.500 . S
C994 C997 1.383 . S
C994 C998 1.395 . S
C995 C996 1.396 . S
C995 C997 1.365 . S
C995 H1004 0.929 . S
C996 C993 1.394 . S
C996 C995 1.396 . S
C996 H1005 0.930 . S
C997 C994 1.383 . S
C997 C995 1.365 . S
C997 H1006 0.931 . S
C998 C993 1.370 . S
C998 C994 1.395 . S
C998 H1007 0.930 . S
C999 Gd935 2.805 1_565 S
C999 O975 1.263 . S
C999 O976 1.252 . S
C999 C993 1.500 . S
H1000 C983 0.929 . S
H1001 C984 0.930 . S
H1002 C985 0.931 . S
H1003 C986 0.930 . S
H1004 C995 0.929 . S
H1005 C996 0.930 . S
H1006 C997 0.931 . S
H1007 C998 0.930 . S
C1008 C1010 1.422 . S
C1008 C1012 1.415 . S
C1008 N1014 1.369 . S
C1009 C1010 1.421 . S
C1009 C1011 1.417 . S
C1009 C1021 1.422 . S
C1010 C1008 1.422 . S
C1010 C1009 1.421 . S
C1010 N1020 1.359 . S
C1011 C1009 1.417 . S
C1011 C1013 1.329 . S
C1011 H1030 0.930 1_455 S
C1012 C1008 1.415 . S
C1012 C1013 1.437 . S
C1012 C1016 1.413 . S
C1013 C1011 1.329 . S
C1013 C1012 1.437 . S
C1013 H1035 0.929 1_455 S
N1014 C1008 1.369 . S
N1014 C1015 1.338 . S
N1014 Gd1019 2.622 . S
C1015 N1014 1.338 . S
C1015 C1017 1.378 . S
C1015 H1027 0.929 . S
C1016 C1012 1.413 . S
C1016 C1017 1.348 . S
C1016 H1032 0.931 . S
C1017 C1015 1.378 . S
C1017 C1016 1.348 . S
C1017 H1033 0.930 . S
Gd1018 N1038 2.622 . S
Gd1018 N1045 2.570 . S
Gd1018 O1052 2.353 . S
Gd1018 O1053 2.468 . S
Gd1018 O1054 2.427 . S
Gd1018 O1056 2.388 . S
Gd1018 O1057 2.386 . S
Gd1018 O1061 2.307 . S
Gd1018 C1071 2.805 . S
Gd1019 N1014 2.622 . S
Gd1019 N1020 2.570 . S
Gd1019 O1051 2.386 . S
Gd1019 O1055 2.307 . S
Gd1019 O1058 2.353 . S
Gd1019 O1059 2.468 . S
Gd1019 O1060 2.427 . S
Gd1019 O1062 2.388 . S
Gd1019 C1083 2.805 . S
N1020 C1010 1.359 . S
N1020 Gd1019 2.570 . S
N1020 C1022 1.343 . S
C1021 C1009 1.422 . S
C1021 C1023 1.321 . S
C1021 H1029 0.931 1_455 S
C1022 N1020 1.343 . S
C1022 C1023 1.390 . S
C1022 H1024 0.931 . S
C1023 C1021 1.321 . S
C1023 C1022 1.390 . S
C1023 H1025 0.930 . S
H1024 C1022 0.931 . S
H1025 C1023 0.930 . S
H1026 C1049 0.931 . S
H1027 C1015 0.929 . S
H1028 C1050 0.930 . S
H1029 C1021 0.931 1_655 S
H1030 C1011 0.930 1_655 S
H1031 C1040 0.929 . S
H1032 C1016 0.931 . S
H1033 C1017 0.930 . S
H1034 C1072 0.930 . S
H1035 C1013 0.929 1_655 S
H1036 C1041 0.931 . S
H1037 C1042 0.930 . S
N1038 Gd1018 2.622 . S
N1038 C1039 1.369 . S
N1038 C1040 1.338 . S
C1039 N1038 1.369 . S
C1039 C1043 1.415 . S
C1039 C1046 1.422 . S
C1040 H1031 0.929 . S
C1040 N1038 1.338 . S
C1040 C1042 1.378 . S
C1041 H1036 0.931 . S
C1041 C1042 1.348 . S
C1041 C1043 1.413 . S
C1042 H1037 0.930 . S
C1042 C1040 1.378 . S
C1042 C1041 1.348 . S
C1043 C1039 1.415 . S
C1043 C1041 1.413 . S
C1043 C1073 1.437 . S
H1044 C1073 0.929 . S
N1045 Gd1018 2.570 . S
N1045 C1046 1.359 . S
N1045 C1049 1.343 . S
C1046 C1039 1.422 . S
C1046 N1045 1.359 . S
C1046 C1048 1.421 . S
C1047 C1048 1.422 . S
C1047 C1050 1.321 . S
C1047 H1074 0.931 . S
C1048 C1046 1.421 . S
C1048 C1047 1.422 . S
C1048 C1072 1.417 . S
C1049 H1026 0.931 . S
C1049 N1045 1.343 . S
C1049 C1050 1.390 . S
C1050 H1028 0.930 . S
C1050 C1047 1.321 . S
C1050 C1049 1.390 . S
O1051 Gd1019 2.386 . S
O1051 C1063 1.265 . S
O1052 Gd1018 2.353 . S
O1052 C1063 1.242 . S
O1053 Gd1018 2.468 . S
O1053 C1071 1.263 . S
O1054 Gd1018 2.427 . S
O1054 C1071 1.252 . S
O1055 Gd1019 2.307 . S
O1055 C1064 1.261 . S
O1056 Gd1018 2.388 . S
O1056 C1064 1.252 . S
O1057 Gd1018 2.386 . S
O1057 C1075 1.265 . S
O1058 Gd1019 2.353 . S
O1058 C1075 1.242 . S
O1059 Gd1019 2.468 . S
O1059 C1083 1.263 . S
O1060 Gd1019 2.427 . S
O1060 C1083 1.252 . S
O1061 Gd1018 2.307 . S
O1061 C1076 1.261 . S
O1062 Gd1019 2.388 . S
O1062 C1076 1.252 . S
C1063 O1051 1.265 . S
C1063 O1052 1.242 . S
C1064 O1055 1.261 . S
C1064 O1056 1.252 . S
C1065 C1068 1.394 . S
C1065 C1070 1.370 . S
C1065 C1071 1.500 . S
C1066 C1069 1.383 . S
C1066 C1070 1.395 . S
C1067 C1068 1.396 . S
C1067 C1069 1.365 . S
C1067 H1084 0.929 . S
C1068 C1065 1.394 . S
C1068 C1067 1.396 . S
C1068 H1085 0.930 . S
C1069 C1066 1.383 . S
C1069 C1067 1.365 . S
C1069 H1086 0.931 . S
C1070 C1065 1.370 . S
C1070 C1066 1.395 . S
C1070 H1087 0.930 . S
C1071 Gd1018 2.805 . S
C1071 O1053 1.263 . S
C1071 O1054 1.252 . S
C1071 C1065 1.500 . S
C1072 H1034 0.930 . S
C1072 C1048 1.417 . S
C1072 C1073 1.329 . S
C1073 C1043 1.437 . S
C1073 H1044 0.929 . S
C1073 C1072 1.329 . S
H1074 C1047 0.931 . S
C1075 O1057 1.265 . S
C1075 O1058 1.242 . S
C1076 O1061 1.261 . S
C1076 O1062 1.252 . S
C1077 C1080 1.394 . S
C1077 C1082 1.370 . S
C1077 C1083 1.500 . S
C1078 C1081 1.383 . S
C1078 C1082 1.395 . S
C1079 C1080 1.396 . S
C1079 C1081 1.365 . S
C1079 H1088 0.929 . S
C1080 C1077 1.394 . S
C1080 C1079 1.396 . S
C1080 H1089 0.930 . S
C1081 C1078 1.383 . S
C1081 C1079 1.365 . S
C1081 H1090 0.931 . S
C1082 C1077 1.370 . S
C1082 C1078 1.395 . S
C1082 H1091 0.930 . S
C1083 Gd1019 2.805 . S
C1083 O1059 1.263 . S
C1083 O1060 1.252 . S
C1083 C1077 1.500 . S
H1084 C1067 0.929 . S
H1085 C1068 0.930 . S
H1086 C1069 0.931 . S
H1087 C1070 0.930 . S
H1088 C1079 0.929 . S
H1089 C1080 0.930 . S
H1090 C1081 0.931 . S
H1091 C1082 0.930 . S
C1092 C1094 1.422 . S
C1092 C1096 1.415 . S
C1092 N1098 1.369 . S
C1093 C1094 1.421 . S
C1093 C1095 1.417 . S
C1093 C1105 1.422 . S
C1094 C1092 1.422 . S
C1094 C1093 1.421 . S
C1094 N1104 1.359 . S
C1095 C1093 1.417 . S
C1095 C1097 1.329 . S
C1095 H1114 0.930 . S
C1096 C1092 1.415 . S
C1096 C1097 1.437 . S
C1096 C1100 1.413 . S
C1097 C1095 1.329 . S
C1097 C1096 1.437 . S
C1097 H1119 0.929 . S
N1098 C1092 1.369 . S
N1098 C1099 1.338 . S
N1098 Gd1103 2.622 . S
C1099 N1098 1.338 . S
C1099 C1101 1.378 . S
C1099 H1111 0.929 . S
C1100 C1096 1.413 . S
C1100 C1101 1.348 . S
C1100 H1116 0.931 . S
C1101 C1099 1.378 . S
C1101 C1100 1.348 . S
C1101 H1117 0.930 . S
Gd1102 N1122 2.622 . S
Gd1102 N1129 2.570 . S
Gd1102 O1136 2.353 . S
Gd1102 O1137 2.468 . S
Gd1102 O1138 2.427 . S
Gd1102 O1140 2.388 . S
Gd1102 O1141 2.386 . S
Gd1102 O1145 2.307 . S
Gd1102 C1155 2.805 . S
Gd1103 N1098 2.622 . S
Gd1103 N1104 2.570 . S
Gd1103 O1135 2.386 . S
Gd1103 O1139 2.307 . S
Gd1103 O1142 2.353 . S
Gd1103 O1143 2.468 . S
Gd1103 O1144 2.427 . S
Gd1103 O1146 2.388 . S
Gd1103 C1167 2.805 . S
N1104 C1094 1.359 . S
N1104 Gd1103 2.570 . S
N1104 C1106 1.343 . S
C1105 C1093 1.422 . S
C1105 C1107 1.321 . S
C1105 H1113 0.931 . S
C1106 N1104 1.343 . S
C1106 C1107 1.390 . S
C1106 H1108 0.931 . S
C1107 C1105 1.321 . S
C1107 C1106 1.390 . S
C1107 H1109 0.930 . S
H1108 C1106 0.931 . S
H1109 C1107 0.930 . S
H1110 C1133 0.931 . S
H1111 C1099 0.929 . S
H1112 C1134 0.930 . S
H1113 C1105 0.931 . S
H1114 C1095 0.930 . S
H1115 C1124 0.929 . S
H1116 C1100 0.931 . S
H1117 C1101 0.930 . S
H1118 C1156 0.930 1_545 S
H1119 C1097 0.929 . S
H1120 C1125 0.931 . S
H1121 C1126 0.930 . S
N1122 Gd1102 2.622 . S
N1122 C1123 1.369 . S
N1122 C1124 1.338 . S
C1123 N1122 1.369 . S
C1123 C1127 1.415 . S
C1123 C1130 1.422 . S
C1124 H1115 0.929 . S
C1124 N1122 1.338 . S
C1124 C1126 1.378 . S
C1125 H1120 0.931 . S
C1125 C1126 1.348 . S
C1125 C1127 1.413 . S
C1126 H1121 0.930 . S
C1126 C1124 1.378 . S
C1126 C1125 1.348 . S
C1127 C1123 1.415 . S
C1127 C1125 1.413 . S
C1127 C1157 1.437 . S
H1128 C1157 0.929 . S
N1129 Gd1102 2.570 . S
N1129 C1130 1.359 . S
N1129 C1133 1.343 . S
C1130 C1123 1.422 . S
C1130 N1129 1.359 . S
C1130 C1132 1.421 . S
C1131 C1132 1.422 . S
C1131 C1134 1.321 . S
C1131 H1158 0.931 1_565 S
C1132 C1130 1.421 . S
C1132 C1131 1.422 . S
C1132 C1156 1.417 . S
C1133 H1110 0.931 . S
C1133 N1129 1.343 . S
C1133 C1134 1.390 . S
C1134 H1112 0.930 . S
C1134 C1131 1.321 . S
C1134 C1133 1.390 . S
O1135 Gd1103 2.386 . S
O1135 C1147 1.265 . S
O1136 Gd1102 2.353 . S
O1136 C1147 1.242 . S
O1137 Gd1102 2.468 . S
O1137 C1155 1.263 . S
O1138 Gd1102 2.427 . S
O1138 C1155 1.252 . S
O1139 Gd1103 2.307 . S
O1139 C1148 1.261 . S
O1140 Gd1102 2.388 . S
O1140 C1148 1.252 . S
O1141 Gd1102 2.386 . S
O1141 C1159 1.265 . S
O1142 Gd1103 2.353 . S
O1142 C1159 1.242 . S
O1143 Gd1103 2.468 . S
O1143 C1167 1.263 . S
O1144 Gd1103 2.427 . S
O1144 C1167 1.252 . S
O1145 Gd1102 2.307 . S
O1145 C1160 1.261 . S
O1146 Gd1103 2.388 . S
O1146 C1160 1.252 . S
C1147 O1135 1.265 . S
C1147 O1136 1.242 . S
C1148 O1139 1.261 . S
C1148 O1140 1.252 . S
C1149 C1152 1.394 1_565 S
C1149 C1154 1.370 1_565 S
C1149 C1155 1.500 . S
C1150 C1153 1.383 . S
C1150 C1154 1.395 . S
C1151 C1152 1.396 . S
C1151 C1153 1.365 . S
C1151 H1168 0.929 . S
C1152 C1149 1.394 1_545 S
C1152 C1151 1.396 . S
C1152 H1169 0.930 1_545 S
C1153 C1150 1.383 . S
C1153 C1151 1.365 . S
C1153 H1170 0.931 . S
C1154 C1149 1.370 1_545 S
C1154 C1150 1.395 . S
C1154 H1171 0.930 . S
C1155 Gd1102 2.805 . S
C1155 O1137 1.263 . S
C1155 O1138 1.252 . S
C1155 C1149 1.500 . S
C1156 H1118 0.930 1_565 S
C1156 C1132 1.417 . S
C1156 C1157 1.329 . S
C1157 C1127 1.437 . S
C1157 H1128 0.929 . S
C1157 C1156 1.329 . S
H1158 C1131 0.931 1_545 S
C1159 O1141 1.265 . S
C1159 O1142 1.242 . S
C1160 O1145 1.261 . S
C1160 O1146 1.252 . S
C1161 C1164 1.394 . S
C1161 C1166 1.370 . S
C1161 C1167 1.500 . S
C1162 C1165 1.383 . S
C1162 C1166 1.395 . S
C1163 C1164 1.396 . S
C1163 C1165 1.365 . S
C1163 H1172 0.929 . S
C1164 C1161 1.394 . S
C1164 C1163 1.396 . S
C1164 H1173 0.930 . S
C1165 C1162 1.383 . S
C1165 C1163 1.365 . S
C1165 H1174 0.931 . S
C1166 C1161 1.370 . S
C1166 C1162 1.395 . S
C1166 H1175 0.930 . S
C1167 Gd1103 2.805 . S
C1167 O1143 1.263 . S
C1167 O1144 1.252 . S
C1167 C1161 1.500 . S
H1168 C1151 0.929 . S
H1169 C1152 0.930 1_565 S
H1170 C1153 0.931 . S
H1171 C1154 0.930 . S
H1172 C1163 0.929 . S
H1173 C1164 0.930 . S
H1174 C1165 0.931 . S
H1175 C1166 0.930 . S
C1176 C1178 1.422 1_565 S
C1176 C1180 1.415 1_565 S
C1176 N1182 1.369 . S
C1177 C1178 1.421 . S
C1177 C1179 1.417 . S
C1177 C1189 1.422 . S
C1178 C1176 1.422 1_545 S
C1178 C1177 1.421 . S
C1178 N1188 1.359 1_545 S
C1179 C1177 1.417 . S
C1179 C1181 1.329 . S
C1179 H1198 0.930 . S
C1180 C1176 1.415 1_545 S
C1180 C1181 1.437 . S
C1180 C1184 1.413 . S
C1181 C1179 1.329 . S
C1181 C1180 1.437 . S
C1181 H1203 0.929 . S
N1182 C1176 1.369 . S
N1182 C1183 1.338 . S
N1182 Gd1187 2.622 . S
C1183 N1182 1.338 . S
C1183 C1185 1.378 . S
C1183 H1195 0.929 . S
C1184 C1180 1.413 . S
C1184 C1185 1.348 1_545 S
C1184 H1200 0.931 . S
C1185 C1183 1.378 . S
C1185 C1184 1.348 1_565 S
C1185 H1201 0.930 . S
Gd1186 N1206 2.622 . S
Gd1186 N1213 2.570 . S
Gd1186 O1220 2.353 . S
Gd1186 O1221 2.468 . S
Gd1186 O1222 2.427 . S
Gd1186 O1224 2.388 . S
Gd1186 O1225 2.386 . S
Gd1186 O1229 2.307 . S
Gd1186 C1239 2.805 . S
Gd1187 N1182 2.622 . S
Gd1187 N1188 2.570 . S
Gd1187 O1219 2.386 . S
Gd1187 O1223 2.307 . S
Gd1187 O1226 2.353 . S
Gd1187 O1227 2.468 . S
Gd1187 O1228 2.427 . S
Gd1187 O1230 2.388 . S
Gd1187 C1251 2.805 . S
N1188 C1178 1.359 1_565 S
N1188 Gd1187 2.570 . S
N1188 C1190 1.343 . S
C1189 C1177 1.422 . S
C1189 C1191 1.321 . S
C1189 H1197 0.931 . S
C1190 N1188 1.343 . S
C1190 C1191 1.390 1_565 S
C1190 H1192 0.931 . S
C1191 C1189 1.321 . S
C1191 C1190 1.390 1_545 S
C1191 H1193 0.930 . S
H1192 C1190 0.931 . S
H1193 C1191 0.930 . S
H1194 C1217 0.931 . S
H1195 C1183 0.929 . S
H1196 C1218 0.930 . S
H1197 C1189 0.931 . S
H1198 C1179 0.930 . S
H1199 C1208 0.929 . S
H1200 C1184 0.931 . S
H1201 C1185 0.930 . S
H1202 C1240 0.930 . S
H1203 C1181 0.929 . S
H1204 C1209 0.931 . S
H1205 C1210 0.930 . S
N1206 Gd1186 2.622 . S
N1206 C1207 1.369 . S
N1206 C1208 1.338 . S
C1207 N1206 1.369 . S
C1207 C1211 1.415 . S
C1207 C1214 1.422 . S
C1208 H1199 0.929 . S
C1208 N1206 1.338 . S
C1208 C1210 1.378 . S
C1209 H1204 0.931 . S
C1209 C1210 1.348 . S
C1209 C1211 1.413 . S
C1210 H1205 0.930 . S
C1210 C1208 1.378 . S
C1210 C1209 1.348 . S
C1211 C1207 1.415 . S
C1211 C1209 1.413 . S
C1211 C1241 1.437 . S
H1212 C1241 0.929 . S
N1213 Gd1186 2.570 . S
N1213 C1214 1.359 . S
N1213 C1217 1.343 . S
C1214 C1207 1.422 . S
C1214 N1213 1.359 . S
C1214 C1216 1.421 . S
C1215 C1216 1.422 . S
C1215 C1218 1.321 . S
C1215 H1242 0.931 . S
C1216 C1214 1.421 . S
C1216 C1215 1.422 . S
C1216 C1240 1.417 . S
C1217 H1194 0.931 . S
C1217 N1213 1.343 . S
C1217 C1218 1.390 . S
C1218 H1196 0.930 . S
C1218 C1215 1.321 . S
C1218 C1217 1.390 . S
O1219 Gd1187 2.386 . S
O1219 C1231 1.265 . S
O1220 Gd1186 2.353 . S
O1220 C1231 1.242 . S
O1221 Gd1186 2.468 . S
O1221 C1239 1.263 . S
O1222 Gd1186 2.427 . S
O1222 C1239 1.252 . S
O1223 Gd1187 2.307 . S
O1223 C1232 1.261 . S
O1224 Gd1186 2.388 . S
O1224 C1232 1.252 . S
O1225 Gd1186 2.386 . S
O1225 C1243 1.265 . S
O1226 Gd1187 2.353 . S
O1226 C1243 1.242 . S
O1227 Gd1187 2.468 . S
O1227 C1251 1.263 . S
O1228 Gd1187 2.427 . S
O1228 C1251 1.252 . S
O1229 Gd1186 2.307 . S
O1229 C1244 1.261 . S
O1230 Gd1187 2.388 . S
O1230 C1244 1.252 . S
C1231 O1219 1.265 . S
C1231 O1220 1.242 . S
C1232 O1223 1.261 . S
C1232 O1224 1.252 . S
C1233 C1236 1.394 . S
C1233 C1238 1.370 . S
C1233 C1239 1.500 . S
C1234 C1237 1.383 . S
C1234 C1238 1.395 . S
C1235 C1236 1.396 . S
C1235 C1237 1.365 . S
C1235 H1252 0.929 . S
C1236 C1233 1.394 . S
C1236 C1235 1.396 . S
C1236 H1253 0.930 . S
C1237 C1234 1.383 . S
C1237 C1235 1.365 . S
C1237 H1254 0.931 1_455 S
C1238 C1233 1.370 . S
C1238 C1234 1.395 . S
C1238 H1255 0.930 . S
C1239 Gd1186 2.805 . S
C1239 O1221 1.263 . S
C1239 O1222 1.252 . S
C1239 C1233 1.500 . S
C1240 H1202 0.930 . S
C1240 C1216 1.417 . S
C1240 C1241 1.329 . S
C1241 C1211 1.437 . S
C1241 H1212 0.929 . S
C1241 C1240 1.329 . S
H1242 C1215 0.931 . S
C1243 O1225 1.265 . S
C1243 O1226 1.242 . S
C1244 O1229 1.261 . S
C1244 O1230 1.252 . S
C1245 C1248 1.394 . S
C1245 C1250 1.370 . S
C1245 C1251 1.500 . S
C1246 C1249 1.383 . S
C1246 C1250 1.395 . S
C1247 C1248 1.396 . S
C1247 C1249 1.365 . S
C1247 H1256 0.929 . S
C1248 C1245 1.394 . S
C1248 C1247 1.396 . S
C1248 H1257 0.930 . S
C1249 C1246 1.383 . S
C1249 C1247 1.365 . S
C1249 H1258 0.931 . S
C1250 C1245 1.370 . S
C1250 C1246 1.395 . S
C1250 H1259 0.930 . S
C1251 Gd1187 2.805 . S
C1251 O1227 1.263 . S
C1251 O1228 1.252 . S
C1251 C1245 1.500 . S
H1252 C1235 0.929 . S
H1253 C1236 0.930 . S
H1254 C1237 0.931 1_655 S
H1255 C1238 0.930 . S
H1256 C1247 0.929 . S
H1257 C1248 0.930 . S
H1258 C1249 0.931 . S
H1259 C1250 0.930 . S
C1260 C1262 1.422 . S
C1260 C1264 1.415 . S
C1260 N1266 1.369 . S
C1261 C1262 1.421 . S
C1261 C1263 1.417 . S
C1261 C1273 1.422 . S
C1262 C1260 1.422 . S
C1262 C1261 1.421 . S
C1262 N1272 1.359 . S
C1263 C1261 1.417 . S
C1263 C1265 1.329 . S
C1263 H1282 0.930 . S
C1264 C1260 1.415 . S
C1264 C1265 1.437 . S
C1264 C1268 1.413 . S
C1265 C1263 1.329 . S
C1265 C1264 1.437 . S
C1265 H1287 0.929 . S
N1266 C1260 1.369 . S
N1266 C1267 1.338 . S
N1266 Gd1271 2.622 . S
C1267 N1266 1.338 . S
C1267 C1269 1.378 . S
C1267 H1279 0.929 . S
C1268 C1264 1.413 . S
C1268 C1269 1.348 . S
C1268 H1284 0.931 . S
C1269 C1267 1.378 . S
C1269 C1268 1.348 . S
C1269 H1285 0.930 . S
Gd1270 N1290 2.622 . S
Gd1270 N1297 2.570 . S
Gd1270 O1304 2.353 . S
Gd1270 O1305 2.468 . S
Gd1270 O1306 2.427 . S
Gd1270 O1308 2.388 . S
Gd1270 O1309 2.386 . S
Gd1270 O1313 2.307 . S
Gd1270 C1323 2.805 . S
Gd1271 N1266 2.622 . S
Gd1271 N1272 2.570 . S
Gd1271 O1303 2.386 . S
Gd1271 O1307 2.307 . S
Gd1271 O1310 2.353 . S
Gd1271 O1311 2.468 . S
Gd1271 O1312 2.427 . S
Gd1271 O1314 2.388 . S
Gd1271 C1335 2.805 . S
N1272 C1262 1.359 . S
N1272 Gd1271 2.570 . S
N1272 C1274 1.343 . S
C1273 C1261 1.422 . S
C1273 C1275 1.321 . S
C1273 H1281 0.931 . S
C1274 N1272 1.343 . S
C1274 C1275 1.390 . S
C1274 H1276 0.931 . S
C1275 C1273 1.321 . S
C1275 C1274 1.390 . S
C1275 H1277 0.930 . S
H1276 C1274 0.931 . S
H1277 C1275 0.930 . S
H1278 C1301 0.931 . S
H1279 C1267 0.929 . S
H1280 C1302 0.926 1_545 S
H1281 C1273 0.931 . S
H1282 C1263 0.930 . S
H1283 C1292 0.929 . S
H1284 C1268 0.931 . S
H1285 C1269 0.930 . S
H1286 C1324 0.930 . S
H1287 C1265 0.929 . S
H1288 C1293 0.931 . S
H1289 C1294 0.930 . S
N1290 Gd1270 2.622 . S
N1290 C1291 1.369 . S
N1290 C1292 1.338 . S
C1291 N1290 1.369 . S
C1291 C1295 1.415 . S
C1291 C1298 1.422 . S
C1292 H1283 0.929 . S
C1292 N1290 1.338 . S
C1292 C1294 1.378 . S
C1293 H1288 0.931 . S
C1293 C1294 1.348 . S
C1293 C1295 1.413 . S
C1294 H1289 0.930 . S
C1294 C1292 1.378 . S
C1294 C1293 1.348 . S
C1295 C1291 1.415 . S
C1295 C1293 1.413 . S
C1295 C1325 1.437 1_565 S
H1296 C1325 0.929 . S
N1297 Gd1270 2.570 . S
N1297 C1298 1.359 . S
N1297 C1301 1.343 . S
C1298 C1291 1.422 . S
C1298 N1297 1.359 . S
C1298 C1300 1.421 1_565 S
C1299 C1300 1.422 . S
C1299 C1302 1.315 1_545 S
C1299 H1326 0.931 . S
C1300 C1298 1.421 1_545 S
C1300 C1299 1.422 . S
C1300 C1324 1.417 . S
C1301 H1278 0.931 . S
C1301 N1297 1.343 . S
C1301 C1302 1.400 . S
C1302 H1280 0.926 1_565 S
C1302 C1299 1.315 1_565 S
C1302 C1301 1.400 . S
O1303 Gd1271 2.386 . S
O1303 C1315 1.265 . S
O1304 Gd1270 2.353 . S
O1304 C1315 1.242 . S
O1305 Gd1270 2.468 . S
O1305 C1323 1.263 . S
O1306 Gd1270 2.427 . S
O1306 C1323 1.252 . S
O1307 Gd1271 2.307 . S
O1307 C1316 1.261 . S
O1308 Gd1270 2.388 . S
O1308 C1316 1.252 . S
O1309 Gd1270 2.386 . S
O1309 C1327 1.265 . S
O1310 Gd1271 2.353 . S
O1310 C1327 1.242 . S
O1311 Gd1271 2.468 . S
O1311 C1335 1.263 . S
O1312 Gd1271 2.427 . S
O1312 C1335 1.252 . S
O1313 Gd1270 2.307 . S
O1313 C1328 1.261 . S
O1314 Gd1271 2.388 . S
O1314 C1328 1.252 . S
C1315 O1303 1.265 . S
C1315 O1304 1.242 . S
C1316 O1307 1.261 . S
C1316 O1308 1.252 . S
C1317 C1320 1.394 . S
C1317 C1322 1.370 . S
C1317 C1323 1.500 . S
C1318 C1321 1.383 . S
C1318 C1322 1.395 . S
C1319 C1320 1.396 . S
C1319 C1321 1.365 . S
C1319 H1336 0.929 . S
C1320 C1317 1.394 . S
C1320 C1319 1.396 . S
C1320 H1337 0.930 . S
C1321 C1318 1.383 . S
C1321 C1319 1.365 . S
C1321 H1338 0.931 . S
C1322 C1317 1.370 . S
C1322 C1318 1.395 . S
C1322 H1339 0.930 . S
C1323 Gd1270 2.805 . S
C1323 O1305 1.263 . S
C1323 O1306 1.252 . S
C1323 C1317 1.500 . S
C1324 H1286 0.930 . S
C1324 C1300 1.417 . S
C1324 C1325 1.329 . S
C1325 C1295 1.437 1_545 S
C1325 H1296 0.929 . S
C1325 C1324 1.329 . S
H1326 C1299 0.931 . S
C1327 O1309 1.265 . S
C1327 O1310 1.242 . S
C1328 O1313 1.261 . S
C1328 O1314 1.252 . S
C1329 C1332 1.394 . S
C1329 C1334 1.370 . S
C1329 C1335 1.500 . S
C1330 C1333 1.383 . S
C1330 C1334 1.395 . S
C1331 C1332 1.396 . S
C1331 C1333 1.365 . S
C1331 H1340 0.929 . S
C1332 C1329 1.394 . S
C1332 C1331 1.396 . S
C1332 H1341 0.930 . S
C1333 C1330 1.383 . S
C1333 C1331 1.365 . S
C1333 H1342 0.931 . S
C1334 C1329 1.370 . S
C1334 C1330 1.395 . S
C1334 H1343 0.930 . S
C1335 Gd1271 2.805 . S
C1335 O1311 1.263 . S
C1335 O1312 1.252 . S
C1335 C1329 1.500 . S
H1336 C1319 0.929 . S
H1337 C1320 0.930 . S
H1338 C1321 0.931 . S
H1339 C1322 0.930 . S
H1340 C1331 0.929 . S
H1341 C1332 0.930 . S
H1342 C1333 0.931 . S
H1343 C1334 0.930 . S
C1344 C1346 1.424 . S
C1344 C1348 1.414 . S
C1344 N1350 1.368 1_545 S
C1345 C1346 1.421 . S
C1345 C1347 1.417 . S
C1345 C1357 1.422 . S
C1346 C1344 1.424 . S
C1346 C1345 1.421 . S
C1346 N1356 1.359 . S
C1347 C1345 1.417 . S
C1347 C1349 1.329 . S
C1347 H1366 0.930 . S
C1348 C1344 1.414 . S
C1348 C1349 1.437 . S
C1348 C1352 1.413 1_545 S
C1349 C1347 1.329 . S
C1349 C1348 1.437 . S
C1349 H1371 0.929 . S
N1350 C1344 1.368 1_565 S
N1350 C1351 1.338 . S
N1350 Gd1355 2.622 . S
C1351 N1350 1.338 . S
C1351 C1353 1.378 . S
C1351 H1363 0.929 . S
C1352 C1348 1.413 1_565 S
C1352 C1353 1.348 . S
C1352 H1368 0.931 1_565 S
C1353 C1351 1.378 . S
C1353 C1352 1.348 . S
C1353 H1369 0.930 . S
Gd1354 N1374 2.622 . S
Gd1354 N1381 2.570 . S
Gd1354 O1388 2.353 . S
Gd1354 O1389 2.468 . S
Gd1354 O1390 2.427 . S
Gd1354 O1392 2.388 . S
Gd1354 O1393 2.386 . S
Gd1354 O1397 2.307 . S
Gd1354 C1407 2.805 . S
Gd1355 N1350 2.622 . S
Gd1355 N1356 2.570 1_565 S
Gd1355 O1387 2.386 . S
Gd1355 O1391 2.307 . S
Gd1355 O1394 2.353 . S
Gd1355 O1395 2.468 1_565 S
Gd1355 O1396 2.427 . S
Gd1355 O1398 2.388 . S
Gd1355 C1419 2.805 1_565 S
N1356 C1346 1.359 . S
N1356 Gd1355 2.570 1_545 S
N1356 C1358 1.343 . S
C1357 C1345 1.422 . S
C1357 C1359 1.321 . S
C1357 H1365 0.931 . S
C1358 N1356 1.343 . S
C1358 C1359 1.390 . S
C1358 H1360 0.931 . S
C1359 C1357 1.321 . S
C1359 C1358 1.390 . S
C1359 H1361 0.930 . S
H1360 C1358 0.931 . S
H1361 C1359 0.930 . S
H1362 C1385 0.931 . S
H1363 C1351 0.929 . S
H1364 C1386 0.930 . S
H1365 C1357 0.931 . S
H1366 C1347 0.930 . S
H1367 C1376 0.929 . S
H1368 C1352 0.931 1_545 S
H1369 C1353 0.930 . S
H1370 C1408 0.930 . S
H1371 C1349 0.929 . S
H1372 C1377 0.931 . S
H1373 C1378 0.930 . S
N1374 Gd1354 2.622 . S
N1374 C1375 1.369 . S
N1374 C1376 1.338 . S
C1375 N1374 1.369 . S
C1375 C1379 1.415 . S
C1375 C1382 1.422 . S
C1376 H1367 0.929 . S
C1376 N1374 1.338 . S
C1376 C1378 1.378 . S
C1377 H1372 0.931 . S
C1377 C1378 1.348 . S
C1377 C1379 1.413 . S
C1378 H1373 0.930 . S
C1378 C1376 1.378 . S
C1378 C1377 1.348 . S
C1379 C1375 1.415 . S
C1379 C1377 1.413 . S
C1379 C1409 1.437 . S
H1380 C1409 0.929 . S
N1381 Gd1354 2.570 . S
N1381 C1382 1.359 . S
N1381 C1385 1.343 . S
C1382 C1375 1.422 . S
C1382 N1381 1.359 . S
C1382 C1384 1.421 . S
C1383 C1384 1.422 . S
C1383 C1386 1.321 . S
C1383 H1410 0.931 . S
C1384 C1382 1.421 . S
C1384 C1383 1.422 . S
C1384 C1408 1.417 . S
C1385 H1362 0.931 . S
C1385 N1381 1.343 . S
C1385 C1386 1.390 . S
C1386 H1364 0.930 . S
C1386 C1383 1.321 . S
C1386 C1385 1.390 . S
O1387 Gd1355 2.386 . S
O1387 C1399 1.265 . S
O1388 Gd1354 2.353 . S
O1388 C1399 1.242 . S
O1389 Gd1354 2.468 . S
O1389 C1407 1.263 . S
O1390 Gd1354 2.427 . S
O1390 C1407 1.252 . S
O1391 Gd1355 2.307 . S
O1391 C1400 1.261 . S
O1392 Gd1354 2.388 . S
O1392 C1400 1.252 . S
O1393 Gd1354 2.386 . S
O1393 C1411 1.265 . S
O1394 Gd1355 2.353 . S
O1394 C1411 1.242 . S
O1395 Gd1355 2.468 1_545 S
O1395 C1419 1.263 . S
O1396 Gd1355 2.427 . S
O1396 C1419 1.252 1_565 S
O1397 Gd1354 2.307 . S
O1397 C1412 1.261 . S
O1398 Gd1355 2.388 . S
O1398 C1412 1.252 . S
C1399 O1387 1.265 . S
C1399 O1388 1.242 . S
C1400 O1391 1.261 . S
C1400 O1392 1.252 . S
C1401 C1404 1.394 . S
C1401 C1406 1.370 . S
C1401 C1407 1.500 . S
C1402 C1405 1.383 . S
C1402 C1406 1.395 . S
C1403 C1404 1.396 . S
C1403 C1405 1.365 . S
C1403 H1420 0.929 . S
C1404 C1401 1.394 . S
C1404 C1403 1.396 . S
C1404 H1421 0.930 . S
C1405 C1402 1.383 . S
C1405 C1403 1.365 . S
C1405 H1422 0.931 . S
C1406 C1401 1.370 . S
C1406 C1402 1.395 . S
C1406 H1423 0.930 . S
C1407 Gd1354 2.805 . S
C1407 O1389 1.263 . S
C1407 O1390 1.252 . S
C1407 C1401 1.500 . S
C1408 H1370 0.930 . S
C1408 C1384 1.417 . S
C1408 C1409 1.329 . S
C1409 C1379 1.437 . S
C1409 H1380 0.929 . S
C1409 C1408 1.329 . S
H1410 C1383 0.931 . S
C1411 O1393 1.265 . S
C1411 O1394 1.242 . S
C1412 O1397 1.261 . S
C1412 O1398 1.252 . S
C1413 C1416 1.394 . S
C1413 C1418 1.370 . S
C1413 C1419 1.500 . S
C1414 C1417 1.383 . S
C1414 C1418 1.395 . S
C1415 C1416 1.396 . S
C1415 C1417 1.365 . S
C1415 H1424 0.929 . S
C1416 C1413 1.394 . S
C1416 C1415 1.396 . S
C1416 H1425 0.930 . S
C1417 C1414 1.383 . S
C1417 C1415 1.365 . S
C1417 H1426 0.931 . S
C1418 C1413 1.370 . S
C1418 C1414 1.395 . S
C1418 H1427 0.930 . S
C1419 Gd1355 2.805 1_545 S
C1419 O1395 1.263 . S
C1419 O1396 1.252 1_545 S
C1419 C1413 1.500 . S
H1420 C1403 0.929 . S
H1421 C1404 0.930 . S
H1422 C1405 0.931 . S
H1423 C1406 0.930 . S
H1424 C1415 0.929 . S
H1425 C1416 0.930 . S
H1426 C1417 0.931 . S
H1427 C1418 0.930 . S
C1428 C1430 1.422 . S
C1428 C1432 1.415 . S
C1428 N1434 1.369 . S
C1429 C1430 1.421 . S
C1429 C1431 1.417 . S
C1429 C1441 1.422 . S
C1430 C1428 1.422 . S
C1430 C1429 1.421 . S
C1430 N1440 1.359 . S
C1431 C1429 1.417 . S
C1431 C1433 1.329 . S
C1431 H1450 0.930 . S
C1432 C1428 1.415 . S
C1432 C1433 1.437 . S
C1432 C1436 1.413 . S
C1433 C1431 1.329 . S
C1433 C1432 1.437 . S
C1433 H1455 0.929 . S
N1434 C1428 1.369 . S
N1434 C1435 1.338 . S
N1434 Gd1439 2.622 . S
C1435 N1434 1.338 . S
C1435 C1437 1.378 . S
C1435 H1447 0.929 . S
C1436 C1432 1.413 . S
C1436 C1437 1.348 . S
C1436 H1452 0.931 . S
C1437 C1435 1.378 . S
C1437 C1436 1.348 . S
C1437 H1453 0.930 . S
Gd1438 N1458 2.622 . S
Gd1438 N1465 2.570 . S
Gd1438 O1472 2.353 . S
Gd1438 O1473 2.468 . S
Gd1438 O1474 2.427 . S
Gd1438 O1476 2.388 . S
Gd1438 O1477 2.386 . S
Gd1438 O1481 2.307 . S
Gd1438 C1491 2.805 . S
Gd1439 N1434 2.622 . S
Gd1439 N1440 2.570 . S
Gd1439 O1471 2.386 . S
Gd1439 O1475 2.307 . S
Gd1439 O1478 2.353 . S
Gd1439 O1479 2.468 . S
Gd1439 O1480 2.427 . S
Gd1439 O1482 2.388 . S
Gd1439 C1503 2.805 . S
N1440 C1430 1.359 . S
N1440 Gd1439 2.570 . S
N1440 C1442 1.343 . S
C1441 C1429 1.422 . S
C1441 C1443 1.321 . S
C1441 H1449 0.931 . S
C1442 N1440 1.343 . S
C1442 C1443 1.390 . S
C1442 H1444 0.931 . S
C1443 C1441 1.321 . S
C1443 C1442 1.390 . S
C1443 H1445 0.930 . S
H1444 C1442 0.931 . S
H1445 C1443 0.930 . S
H1446 C1469 0.931 . S
H1447 C1435 0.929 . S
H1448 C1470 0.930 . S
H1449 C1441 0.931 . S
H1450 C1431 0.930 . S
H1451 C1460 0.929 . S
H1452 C1436 0.931 . S
H1453 C1437 0.930 . S
H1454 C1492 0.930 . S
H1455 C1433 0.929 . S
H1456 C1461 0.931 . S
H1457 C1462 0.930 . S
N1458 Gd1438 2.622 . S
N1458 C1459 1.369 . S
N1458 C1460 1.338 . S
C1459 N1458 1.369 . S
C1459 C1463 1.415 . S
C1459 C1466 1.422 . S
C1460 H1451 0.929 . S
C1460 N1458 1.338 . S
C1460 C1462 1.378 . S
C1461 H1456 0.931 . S
C1461 C1462 1.348 . S
C1461 C1463 1.413 . S
C1462 H1457 0.930 . S
C1462 C1460 1.378 . S
C1462 C1461 1.348 . S
C1463 C1459 1.415 . S
C1463 C1461 1.413 . S
C1463 C1493 1.437 . S
H1464 C1493 0.929 . S
N1465 Gd1438 2.570 . S
N1465 C1466 1.359 . S
N1465 C1469 1.343 . S
C1466 C1459 1.422 . S
C1466 N1465 1.359 . S
C1466 C1468 1.421 . S
C1467 C1468 1.422 . S
C1467 C1470 1.321 . S
C1467 H1494 0.931 . S
C1468 C1466 1.421 . S
C1468 C1467 1.422 . S
C1468 C1492 1.417 . S
C1469 H1446 0.931 . S
C1469 N1465 1.343 . S
C1469 C1470 1.390 . S
C1470 H1448 0.930 . S
C1470 C1467 1.321 . S
C1470 C1469 1.390 . S
O1471 Gd1439 2.386 . S
O1471 C1483 1.265 . S
O1472 Gd1438 2.353 . S
O1472 C1483 1.242 . S
O1473 Gd1438 2.468 . S
O1473 C1491 1.263 . S
O1474 Gd1438 2.427 . S
O1474 C1491 1.252 . S
O1475 Gd1439 2.307 . S
O1475 C1484 1.261 . S
O1476 Gd1438 2.388 . S
O1476 C1484 1.252 . S
O1477 Gd1438 2.386 . S
O1477 C1495 1.265 . S
O1478 Gd1439 2.353 . S
O1478 C1495 1.242 . S
O1479 Gd1439 2.468 . S
O1479 C1503 1.263 . S
O1480 Gd1439 2.427 . S
O1480 C1503 1.252 . S
O1481 Gd1438 2.307 . S
O1481 C1496 1.261 . S
O1482 Gd1439 2.388 . S
O1482 C1496 1.252 . S
C1483 O1471 1.265 . S
C1483 O1472 1.242 . S
C1484 O1475 1.261 . S
C1484 O1476 1.252 . S
C1485 C1488 1.394 . S
C1485 C1490 1.370 . S
C1485 C1491 1.500 . S
C1486 C1489 1.383 . S
C1486 C1490 1.395 . S
C1487 C1488 1.396 . S
C1487 C1489 1.365 . S
C1487 H1504 0.929 . S
C1488 C1485 1.394 . S
C1488 C1487 1.396 . S
C1488 H1505 0.930 . S
C1489 C1486 1.383 . S
C1489 C1487 1.365 . S
C1489 H1506 0.931 . S
C1490 C1485 1.370 . S
C1490 C1486 1.395 . S
C1490 H1507 0.930 . S
C1491 Gd1438 2.805 . S
C1491 O1473 1.263 . S
C1491 O1474 1.252 . S
C1491 C1485 1.500 . S
C1492 H1454 0.930 . S
C1492 C1468 1.417 . S
C1492 C1493 1.329 . S
C1493 C1463 1.437 . S
C1493 H1464 0.929 . S
C1493 C1492 1.329 . S
H1494 C1467 0.931 . S
C1495 O1477 1.265 . S
C1495 O1478 1.242 . S
C1496 O1481 1.261 . S
C1496 O1482 1.252 . S
C1497 C1500 1.394 . S
C1497 C1502 1.370 . S
C1497 C1503 1.500 . S
C1498 C1501 1.383 . S
C1498 C1502 1.395 1_655 S
C1499 C1500 1.396 1_655 S
C1499 C1501 1.365 . S
C1499 H1508 0.929 . S
C1500 C1497 1.394 . S
C1500 C1499 1.396 1_455 S
C1500 H1509 0.930 . S
C1501 C1498 1.383 . S
C1501 C1499 1.365 . S
C1501 H1510 0.931 . S
C1502 C1497 1.370 . S
C1502 C1498 1.395 1_455 S
C1502 H1511 0.930 . S
C1503 Gd1439 2.805 . S
C1503 O1479 1.263 . S
C1503 O1480 1.252 . S
C1503 C1497 1.500 . S
H1504 C1487 0.929 . S
H1505 C1488 0.930 . S
H1506 C1489 0.931 . S
H1507 C1490 0.930 . S
H1508 C1499 0.929 . S
H1509 C1500 0.930 . S
H1510 C1501 0.931 . S
H1511 C1502 0.930 . S
C1512 C1514 1.422 . S
C1512 C1516 1.415 . S
C1512 N1518 1.369 . S
C1513 C1514 1.421 . S
C1513 C1515 1.417 . S
C1513 C1525 1.422 . S
C1514 C1512 1.422 . S
C1514 C1513 1.421 . S
C1514 N1524 1.359 . S
C1515 C1513 1.417 . S
C1515 C1517 1.329 . S
C1515 H1534 0.930 . S
C1516 C1512 1.415 . S
C1516 C1517 1.437 . S
C1516 C1520 1.413 . S
C1517 C1515 1.329 . S
C1517 C1516 1.437 . S
C1517 H1539 0.929 . S
N1518 C1512 1.369 . S
N1518 C1519 1.338 . S
N1518 Gd1523 2.622 . S
C1519 N1518 1.338 . S
C1519 C1521 1.378 . S
C1519 H1531 0.929 . S
C1520 C1516 1.413 . S
C1520 C1521 1.348 . S
C1520 H1536 0.931 . S
C1521 C1519 1.378 . S
C1521 C1520 1.348 . S
C1521 H1537 0.930 . S
Gd1522 N1542 2.622 . S
Gd1522 N1549 2.570 . S
Gd1522 O1556 2.353 . S
Gd1522 O1557 2.468 . S
Gd1522 O1558 2.427 . S
Gd1522 O1560 2.388 . S
Gd1522 O1561 2.386 . S
Gd1522 O1565 2.307 . S
Gd1522 C1575 2.805 . S
Gd1523 N1518 2.622 . S
Gd1523 N1524 2.570 . S
Gd1523 O1555 2.386 . S
Gd1523 O1559 2.307 . S
Gd1523 O1562 2.353 . S
Gd1523 O1563 2.468 . S
Gd1523 O1564 2.427 . S
Gd1523 O1566 2.388 . S
Gd1523 C1587 2.805 . S
N1524 C1514 1.359 . S
N1524 Gd1523 2.570 . S
N1524 C1526 1.343 . S
C1525 C1513 1.422 . S
C1525 C1527 1.321 . S
C1525 H1533 0.931 . S
C1526 N1524 1.343 . S
C1526 C1527 1.390 . S
C1526 H1528 0.931 . S
C1527 C1525 1.321 . S
C1527 C1526 1.390 . S
C1527 H1529 0.930 . S
H1528 C1526 0.931 . S
H1529 C1527 0.930 . S
H1530 C1553 0.931 . S
H1531 C1519 0.929 . S
H1532 C1554 0.930 . S
H1533 C1525 0.931 . S
H1534 C1515 0.930 . S
H1535 C1544 0.929 . S
H1536 C1520 0.931 . S
H1537 C1521 0.930 . S
H1538 C1576 0.930 . S
H1539 C1517 0.929 . S
H1540 C1545 0.931 . S
H1541 C1546 0.930 . S
N1542 Gd1522 2.622 . S
N1542 C1543 1.369 . S
N1542 C1544 1.338 . S
C1543 N1542 1.369 . S
C1543 C1547 1.415 . S
C1543 C1550 1.422 . S
C1544 H1535 0.929 . S
C1544 N1542 1.338 . S
C1544 C1546 1.378 . S
C1545 H1540 0.931 . S
C1545 C1546 1.348 . S
C1545 C1547 1.413 . S
C1546 H1541 0.930 . S
C1546 C1544 1.378 . S
C1546 C1545 1.348 . S
C1547 C1543 1.415 . S
C1547 C1545 1.413 . S
C1547 C1577 1.437 . S
H1548 C1577 0.929 . S
N1549 Gd1522 2.570 . S
N1549 C1550 1.359 . S
N1549 C1553 1.343 . S
C1550 C1543 1.422 . S
C1550 N1549 1.359 . S
C1550 C1552 1.421 . S
C1551 C1552 1.422 . S
C1551 C1554 1.321 . S
C1551 H1578 0.931 . S
C1552 C1550 1.421 . S
C1552 C1551 1.422 . S
C1552 C1576 1.417 . S
C1553 H1530 0.931 . S
C1553 N1549 1.343 . S
C1553 C1554 1.390 . S
C1554 H1532 0.930 . S
C1554 C1551 1.321 . S
C1554 C1553 1.390 . S
O1555 Gd1523 2.386 . S
O1555 C1567 1.265 . S
O1556 Gd1522 2.353 . S
O1556 C1567 1.242 . S
O1557 Gd1522 2.468 . S
O1557 C1575 1.263 . S
O1558 Gd1522 2.427 . S
O1558 C1575 1.252 . S
O1559 Gd1523 2.307 . S
O1559 C1568 1.261 . S
O1560 Gd1522 2.388 . S
O1560 C1568 1.252 . S
O1561 Gd1522 2.386 . S
O1561 C1579 1.265 . S
O1562 Gd1523 2.353 . S
O1562 C1579 1.242 . S
O1563 Gd1523 2.468 . S
O1563 C1587 1.263 . S
O1564 Gd1523 2.427 . S
O1564 C1587 1.252 . S
O1565 Gd1522 2.307 . S
O1565 C1580 1.261 . S
O1566 Gd1523 2.388 . S
O1566 C1580 1.252 . S
C1567 O1555 1.265 . S
C1567 O1556 1.242 . S
C1568 O1559 1.261 . S
C1568 O1560 1.252 . S
C1569 C1572 1.394 . S
C1569 C1574 1.370 . S
C1569 C1575 1.500 . S
C1570 C1573 1.383 . S
C1570 C1574 1.395 . S
C1571 C1572 1.396 . S
C1571 C1573 1.365 . S
C1571 H1588 0.929 . S
C1572 C1569 1.394 . S
C1572 C1571 1.396 . S
C1572 H1589 0.930 . S
C1573 C1570 1.383 . S
C1573 C1571 1.365 . S
C1573 H1590 0.931 . S
C1574 C1569 1.370 . S
C1574 C1570 1.395 . S
C1574 H1591 0.930 . S
C1575 Gd1522 2.805 . S
C1575 O1557 1.263 . S
C1575 O1558 1.252 . S
C1575 C1569 1.500 . S
C1576 H1538 0.930 . S
C1576 C1552 1.417 . S
C1576 C1577 1.329 . S
C1577 C1547 1.437 . S
C1577 H1548 0.929 . S
C1577 C1576 1.329 . S
H1578 C1551 0.931 . S
C1579 O1561 1.265 . S
C1579 O1562 1.242 . S
C1580 O1565 1.261 . S
C1580 O1566 1.252 . S
C1581 C1584 1.394 . S
C1581 C1586 1.370 . S
C1581 C1587 1.500 . S
C1582 C1585 1.383 . S
C1582 C1586 1.395 . S
C1583 C1584 1.396 . S
C1583 C1585 1.365 . S
C1583 H1592 0.929 . S
C1584 C1581 1.394 . S
C1584 C1583 1.396 . S
C1584 H1593 0.930 . S
C1585 C1582 1.383 . S
C1585 C1583 1.365 . S
C1585 H1594 0.931 . S
C1586 C1581 1.370 . S
C1586 C1582 1.395 . S
C1586 H1595 0.930 . S
C1587 Gd1523 2.805 . S
C1587 O1563 1.263 . S
C1587 O1564 1.252 . S
C1587 C1581 1.500 . S
H1588 C1571 0.929 . S
H1589 C1572 0.930 . S
H1590 C1573 0.931 . S
H1591 C1574 0.930 . S
H1592 C1583 0.929 . S
H1593 C1584 0.930 . S
H1594 C1585 0.931 . S
H1595 C1586 0.930 . S
C1596 C1598 1.422 . S
C1596 C1600 1.415 . S
C1596 N1602 1.369 . S
C1597 C1598 1.421 . S
C1597 C1599 1.417 . S
C1597 C1609 1.422 . S
C1598 C1596 1.422 . S
C1598 C1597 1.421 . S
C1598 N1608 1.359 . S
C1599 C1597 1.417 . S
C1599 C1601 1.329 . S
C1599 H1618 0.930 . S
C1600 C1596 1.415 . S
C1600 C1601 1.437 . S
C1600 C1604 1.413 . S
C1601 C1599 1.329 . S
C1601 C1600 1.437 . S
C1601 H1623 0.929 . S
N1602 C1596 1.369 . S
N1602 C1603 1.338 . S
N1602 Gd1607 2.622 . S
C1603 N1602 1.338 . S
C1603 C1605 1.378 . S
C1603 H1615 0.929 . S
C1604 C1600 1.413 . S
C1604 C1605 1.348 . S
C1604 H1620 0.931 . S
C1605 C1603 1.378 . S
C1605 C1604 1.348 . S
C1605 H1621 0.930 . S
Gd1606 N1626 2.622 . S
Gd1606 N1633 2.570 1_565 S
Gd1606 O1640 2.353 . S
Gd1606 O1641 2.468 1_565 S
Gd1606 O1642 2.427 . S
Gd1606 O1644 2.388 . S
Gd1606 O1645 2.386 . S
Gd1606 O1649 2.307 . S
Gd1606 C1659 2.805 1_565 S
Gd1607 N1602 2.622 . S
Gd1607 N1608 2.570 . S
Gd1607 O1639 2.386 . S
Gd1607 O1643 2.307 . S
Gd1607 O1646 2.353 . S
Gd1607 O1647 2.468 . S
Gd1607 O1648 2.427 . S
Gd1607 O1650 2.388 . S
Gd1607 C1671 2.805 . S
N1608 C1598 1.359 . S
N1608 Gd1607 2.570 . S
N1608 C1610 1.343 . S
C1609 C1597 1.422 . S
C1609 C1611 1.321 . S
C1609 H1617 0.931 . S
C1610 N1608 1.343 . S
C1610 C1611 1.390 . S
C1610 H1612 0.931 . S
C1611 C1609 1.321 . S
C1611 C1610 1.390 . S
C1611 H1613 0.930 . S
H1612 C1610 0.931 . S
H1613 C1611 0.930 . S
H1614 C1637 0.931 . S
H1615 C1603 0.929 . S
H1616 C1638 0.930 . S
H1617 C1609 0.931 . S
H1618 C1599 0.930 . S
H1619 C1628 0.929 . S
H1620 C1604 0.931 . S
H1621 C1605 0.930 . S
H1622 C1660 0.930 . S
H1623 C1601 0.929 . S
H1624 C1629 0.931 1_545 S
H1625 C1630 0.930 . S
N1626 Gd1606 2.622 . S
N1626 C1627 1.350 1_565 S
N1626 C1628 1.338 . S
C1627 N1626 1.350 1_545 S
C1627 C1631 1.426 . S
C1627 C1634 1.430 . S
C1628 H1619 0.929 . S
C1628 N1626 1.338 . S
C1628 C1630 1.378 . S
C1629 H1624 0.931 1_565 S
C1629 C1630 1.348 . S
C1629 C1631 1.413 1_565 S
C1630 H1625 0.930 . S
C1630 C1628 1.378 . S
C1630 C1629 1.348 . S
C1631 C1627 1.426 . S
C1631 C1629 1.413 1_545 S
C1631 C1661 1.437 . S
H1632 C1661 0.929 . S
N1633 Gd1606 2.570 1_545 S
N1633 C1634 1.359 . S
N1633 C1637 1.343 . S
C1634 C1627 1.430 . S
C1634 N1633 1.359 . S
C1634 C1636 1.421 . S
C1635 C1636 1.422 . S
C1635 C1638 1.321 . S
C1635 H1662 0.931 . S
C1636 C1634 1.421 . S
C1636 C1635 1.422 . S
C1636 C1660 1.417 . S
C1637 H1614 0.931 . S
C1637 N1633 1.343 . S
C1637 C1638 1.390 . S
C1638 H1616 0.930 . S
C1638 C1635 1.321 . S
C1638 C1637 1.390 . S
O1639 Gd1607 2.386 . S
O1639 C1651 1.265 . S
O1640 Gd1606 2.353 . S
O1640 C1651 1.242 . S
O1641 Gd1606 2.468 1_545 S
O1641 C1659 1.263 . S
O1642 Gd1606 2.427 . S
O1642 C1659 1.252 1_565 S
O1643 Gd1607 2.307 . S
O1643 C1652 1.261 . S
O1644 Gd1606 2.388 . S
O1644 C1652 1.252 . S
O1645 Gd1606 2.386 . S
O1645 C1663 1.265 . S
O1646 Gd1607 2.353 . S
O1646 C1663 1.242 . S
O1647 Gd1607 2.468 . S
O1647 C1671 1.263 . S
O1648 Gd1607 2.427 . S
O1648 C1671 1.252 . S
O1649 Gd1606 2.307 . S
O1649 C1664 1.261 . S
O1650 Gd1607 2.388 . S
O1650 C1664 1.252 . S
C1651 O1639 1.265 . S
C1651 O1640 1.242 . S
C1652 O1643 1.261 . S
C1652 O1644 1.252 . S
C1653 C1656 1.394 . S
C1653 C1658 1.370 . S
C1653 C1659 1.500 . S
C1654 C1657 1.383 . S
C1654 C1658 1.395 . S
C1655 C1656 1.396 . S
C1655 C1657 1.365 . S
C1655 H1672 0.929 . S
C1656 C1653 1.394 . S
C1656 C1655 1.396 . S
C1656 H1673 0.930 . S
C1657 C1654 1.383 . S
C1657 C1655 1.365 . S
C1657 H1674 0.931 . S
C1658 C1653 1.370 . S
C1658 C1654 1.395 . S
C1658 H1675 0.930 . S
C1659 Gd1606 2.805 1_545 S
C1659 O1641 1.263 . S
C1659 O1642 1.252 1_545 S
C1659 C1653 1.500 . S
C1660 H1622 0.930 . S
C1660 C1636 1.417 . S
C1660 C1661 1.329 . S
C1661 C1631 1.437 . S
C1661 H1632 0.929 . S
C1661 C1660 1.329 . S
H1662 C1635 0.931 . S
C1663 O1645 1.265 . S
C1663 O1646 1.242 . S
C1664 O1649 1.261 . S
C1664 O1650 1.252 . S
C1665 C1668 1.394 . S
C1665 C1670 1.370 . S
C1665 C1671 1.500 . S
C1666 C1669 1.383 . S
C1666 C1670 1.395 . S
C1667 C1668 1.396 . S
C1667 C1669 1.365 . S
C1667 H1676 0.929 . S
C1668 C1665 1.394 . S
C1668 C1667 1.396 . S
C1668 H1677 0.930 . S
C1669 C1666 1.383 . S
C1669 C1667 1.365 . S
C1669 H1678 0.931 . S
C1670 C1665 1.370 . S
C1670 C1666 1.395 . S
C1670 H1679 0.930 . S
C1671 Gd1607 2.805 . S
C1671 O1647 1.263 . S
C1671 O1648 1.252 . S
C1671 C1665 1.500 . S
H1672 C1655 0.929 . S
H1673 C1656 0.930 . S
H1674 C1657 0.931 . S
H1675 C1658 0.930 . S
H1676 C1667 0.929 . S
H1677 C1668 0.930 . S
H1678 C1669 0.931 . S
H1679 C1670 0.930 . S
C1680 C1682 1.422 . S
C1680 C1684 1.415 . S
C1680 N1686 1.369 . S
C1681 C1682 1.421 1_545 S
C1681 C1683 1.417 . S
C1681 C1693 1.422 . S
C1682 C1680 1.422 . S
C1682 C1681 1.421 1_565 S
C1682 N1692 1.359 . S
C1683 C1681 1.417 . S
C1683 C1685 1.329 . S
C1683 H1702 0.930 . S
C1684 C1680 1.415 . S
C1684 C1685 1.437 1_565 S
C1684 C1688 1.413 . S
C1685 C1683 1.329 . S
C1685 C1684 1.437 1_545 S
C1685 H1707 0.929 . S
N1686 C1680 1.369 . S
N1686 C1687 1.338 . S
N1686 Gd1691 2.622 . S
C1687 N1686 1.338 . S
C1687 C1689 1.378 . S
C1687 H1699 0.929 . S
C1688 C1684 1.413 . S
C1688 C1689 1.348 . S
C1688 H1704 0.931 . S
C1689 C1687 1.378 . S
C1689 C1688 1.348 . S
C1689 H1705 0.930 . S
Gd1690 N1710 2.622 . S
Gd1690 N1717 2.570 . S
Gd1690 O1724 2.353 . S
Gd1690 O1725 2.468 . S
Gd1690 O1726 2.427 . S
Gd1690 O1728 2.388 . S
Gd1690 O1729 2.386 . S
Gd1690 O1733 2.307 . S
Gd1690 C1743 2.805 . S
Gd1691 N1686 2.622 . S
Gd1691 N1692 2.570 . S
Gd1691 O1723 2.386 . S
Gd1691 O1727 2.307 . S
Gd1691 O1730 2.353 . S
Gd1691 O1731 2.468 . S
Gd1691 O1732 2.427 . S
Gd1691 O1734 2.388 . S
Gd1691 C1755 2.805 . S
N1692 C1682 1.359 . S
N1692 Gd1691 2.570 . S
N1692 C1694 1.343 . S
C1693 C1681 1.422 . S
C1693 C1695 1.323 1_545 S
C1693 H1701 0.931 . S
C1694 N1692 1.343 . S
C1694 C1695 1.388 . S
C1694 H1696 0.931 . S
C1695 C1693 1.323 1_565 S
C1695 C1694 1.388 . S
C1695 H1697 0.930 1_565 S
H1696 C1694 0.931 . S
H1697 C1695 0.930 1_545 S
H1698 C1721 0.931 . S
H1699 C1687 0.929 . S
H1700 C1722 0.930 . S
H1701 C1693 0.931 . S
H1702 C1683 0.930 . S
H1703 C1712 0.929 . S
H1704 C1688 0.931 . S
H1705 C1689 0.930 . S
H1706 C1744 0.930 . S
H1707 C1685 0.929 . S
H1708 C1713 0.931 . S
H1709 C1714 0.930 . S
N1710 Gd1690 2.622 . S
N1710 C1711 1.369 . S
N1710 C1712 1.338 . S
C1711 N1710 1.369 . S
C1711 C1715 1.415 . S
C1711 C1718 1.422 . S
C1712 H1703 0.929 . S
C1712 N1710 1.338 . S
C1712 C1714 1.378 . S
C1713 H1708 0.931 . S
C1713 C1714 1.348 . S
C1713 C1715 1.413 . S
C1714 H1709 0.930 . S
C1714 C1712 1.378 . S
C1714 C1713 1.348 . S
C1715 C1711 1.415 . S
C1715 C1713 1.413 . S
C1715 C1745 1.437 . S
H1716 C1745 0.929 . S
N1717 Gd1690 2.570 . S
N1717 C1718 1.359 . S
N1717 C1721 1.343 . S
C1718 C1711 1.422 . S
C1718 N1717 1.359 . S
C1718 C1720 1.421 . S
C1719 C1720 1.422 . S
C1719 C1722 1.321 . S
C1719 H1746 0.931 . S
C1720 C1718 1.421 . S
C1720 C1719 1.422 . S
C1720 C1744 1.417 . S
C1721 H1698 0.931 . S
C1721 N1717 1.343 . S
C1721 C1722 1.390 . S
C1722 H1700 0.930 . S
C1722 C1719 1.321 . S
C1722 C1721 1.390 . S
O1723 Gd1691 2.386 . S
O1723 C1735 1.265 . S
O1724 Gd1690 2.353 . S
O1724 C1735 1.242 . S
O1725 Gd1690 2.468 . S
O1725 C1743 1.263 . S
O1726 Gd1690 2.427 . S
O1726 C1743 1.252 . S
O1727 Gd1691 2.307 . S
O1727 C1736 1.261 . S
O1728 Gd1690 2.388 . S
O1728 C1736 1.252 . S
O1729 Gd1690 2.386 . S
O1729 C1747 1.265 . S
O1730 Gd1691 2.353 . S
O1730 C1747 1.242 . S
O1731 Gd1691 2.468 . S
O1731 C1755 1.263 . S
O1732 Gd1691 2.427 . S
O1732 C1755 1.252 . S
O1733 Gd1690 2.307 . S
O1733 C1748 1.261 . S
O1734 Gd1691 2.388 . S
O1734 C1748 1.252 . S
C1735 O1723 1.265 . S
C1735 O1724 1.242 . S
C1736 O1727 1.261 . S
C1736 O1728 1.252 . S
C1737 C1740 1.394 . S
C1737 C1742 1.370 . S
C1737 C1743 1.500 . S
C1738 C1741 1.383 . S
C1738 C1742 1.395 1_655 S
C1739 C1740 1.396 1_655 S
C1739 C1741 1.365 . S
C1739 H1756 0.929 . S
C1740 C1737 1.394 . S
C1740 C1739 1.396 1_455 S
C1740 H1757 0.930 . S
C1741 C1738 1.383 . S
C1741 C1739 1.365 . S
C1741 H1758 0.931 . S
C1742 C1737 1.370 . S
C1742 C1738 1.395 1_455 S
C1742 H1759 0.930 . S
C1743 Gd1690 2.805 . S
C1743 O1725 1.263 . S
C1743 O1726 1.252 . S
C1743 C1737 1.500 . S
C1744 H1706 0.930 . S
C1744 C1720 1.417 . S
C1744 C1745 1.329 . S
C1745 C1715 1.437 . S
C1745 H1716 0.929 . S
C1745 C1744 1.329 . S
H1746 C1719 0.931 . S
C1747 O1729 1.265 . S
C1747 O1730 1.242 . S
C1748 O1733 1.261 . S
C1748 O1734 1.252 . S
C1749 C1752 1.394 . S
C1749 C1754 1.370 . S
C1749 C1755 1.500 . S
C1750 C1753 1.383 . S
C1750 C1754 1.395 . S
C1751 C1752 1.396 . S
C1751 C1753 1.365 . S
C1751 H1760 0.929 . S
C1752 C1749 1.394 . S
C1752 C1751 1.396 . S
C1752 H1761 0.930 . S
C1753 C1750 1.383 . S
C1753 C1751 1.365 . S
C1753 H1762 0.931 . S
C1754 C1749 1.370 . S
C1754 C1750 1.395 . S
C1754 H1763 0.930 . S
C1755 Gd1691 2.805 . S
C1755 O1731 1.263 . S
C1755 O1732 1.252 . S
C1755 C1749 1.500 . S
H1756 C1739 0.929 . S
H1757 C1740 0.930 . S
H1758 C1741 0.931 . S
H1759 C1742 0.930 . S
H1760 C1751 0.929 . S
H1761 C1752 0.930 . S
H1762 C1753 0.931 . S
H1763 C1754 0.930 . S
C1764 C1766 1.422 . S
C1764 C1768 1.415 . S
C1764 N1770 1.369 . S
C1765 C1766 1.421 . S
C1765 C1767 1.417 . S
C1765 C1777 1.422 . S
C1766 C1764 1.422 . S
C1766 C1765 1.421 . S
C1766 N1776 1.359 . S
C1767 C1765 1.417 . S
C1767 C1769 1.329 . S
C1767 H1786 0.930 . S
C1768 C1764 1.415 . S
C1768 C1769 1.437 . S
C1768 C1772 1.413 . S
C1769 C1767 1.329 . S
C1769 C1768 1.437 . S
C1769 H1791 0.929 . S
N1770 C1764 1.369 . S
N1770 C1771 1.338 . S
N1770 Gd1775 2.622 . S
C1771 N1770 1.338 . S
C1771 C1773 1.378 . S
C1771 H1783 0.929 . S
C1772 C1768 1.413 . S
C1772 C1773 1.348 . S
C1772 H1788 0.931 . S
C1773 C1771 1.378 . S
C1773 C1772 1.348 . S
C1773 H1789 0.930 . S
Gd1774 N1794 2.622 . S
Gd1774 N1801 2.570 . S
Gd1774 O1808 2.353 . S
Gd1774 O1809 2.468 . S
Gd1774 O1810 2.427 . S
Gd1774 O1812 2.388 . S
Gd1774 O1813 2.386 . S
Gd1774 O1817 2.307 . S
Gd1774 C1827 2.805 . S
Gd1775 N1770 2.622 . S
Gd1775 N1776 2.570 . S
Gd1775 O1807 2.386 . S
Gd1775 O1811 2.307 . S
Gd1775 O1814 2.353 . S
Gd1775 O1815 2.468 . S
Gd1775 O1816 2.427 . S
Gd1775 O1818 2.388 . S
Gd1775 C1839 2.805 . S
N1776 C1766 1.359 . S
N1776 Gd1775 2.570 . S
N1776 C1778 1.343 . S
C1777 C1765 1.422 . S
C1777 C1779 1.321 . S
C1777 H1785 0.931 . S
C1778 N1776 1.343 . S
C1778 C1779 1.390 . S
C1778 H1780 0.931 . S
C1779 C1777 1.321 . S
C1779 C1778 1.390 . S
C1779 H1781 0.930 . S
H1780 C1778 0.931 . S
H1781 C1779 0.930 . S
H1782 C1805 0.931 . S
H1783 C1771 0.929 . S
H1784 C1806 0.930 . S
H1785 C1777 0.931 . S
H1786 C1767 0.930 . S
H1787 C1796 0.929 . S
H1788 C1772 0.931 . S
H1789 C1773 0.930 . S
H1790 C1828 0.930 . S
H1791 C1769 0.929 . S
H1792 C1797 0.931 . S
H1793 C1798 0.930 . S
N1794 Gd1774 2.622 . S
N1794 C1795 1.369 . S
N1794 C1796 1.338 . S
C1795 N1794 1.369 . S
C1795 C1799 1.415 1_565 S
C1795 C1802 1.422 1_565 S
C1796 H1787 0.929 . S
C1796 N1794 1.338 . S
C1796 C1798 1.378 . S
C1797 H1792 0.931 . S
C1797 C1798 1.348 1_545 S
C1797 C1799 1.413 . S
C1798 H1793 0.930 . S
C1798 C1796 1.378 . S
C1798 C1797 1.348 1_565 S
C1799 C1795 1.415 1_545 S
C1799 C1797 1.413 . S
C1799 C1829 1.437 . S
H1800 C1829 0.929 . S
N1801 Gd1774 2.570 . S
N1801 C1802 1.359 1_565 S
N1801 C1805 1.343 . S
C1802 C1795 1.422 1_545 S
C1802 N1801 1.359 1_545 S
C1802 C1804 1.421 . S
C1803 C1804 1.422 . S
C1803 C1806 1.321 . S
C1803 H1830 0.931 . S
C1804 C1802 1.421 . S
C1804 C1803 1.422 . S
C1804 C1828 1.417 . S
C1805 H1782 0.931 . S
C1805 N1801 1.343 . S
C1805 C1806 1.390 1_565 S
C1806 H1784 0.930 . S
C1806 C1803 1.321 . S
C1806 C1805 1.390 1_545 S
O1807 Gd1775 2.386 . S
O1807 C1819 1.265 . S
O1808 Gd1774 2.353 . S
O1808 C1819 1.242 . S
O1809 Gd1774 2.468 . S
O1809 C1827 1.263 . S
O1810 Gd1774 2.427 . S
O1810 C1827 1.252 . S
O1811 Gd1775 2.307 . S
O1811 C1820 1.261 . S
O1812 Gd1774 2.388 . S
O1812 C1820 1.252 . S
O1813 Gd1774 2.386 . S
O1813 C1831 1.265 . S
O1814 Gd1775 2.353 . S
O1814 C1831 1.242 . S
O1815 Gd1775 2.468 . S
O1815 C1839 1.263 . S
O1816 Gd1775 2.427 . S
O1816 C1839 1.252 . S
O1817 Gd1774 2.307 . S
O1817 C1832 1.261 . S
O1818 Gd1775 2.388 . S
O1818 C1832 1.252 . S
C1819 O1807 1.265 . S
C1819 O1808 1.242 . S
C1820 O1811 1.261 . S
C1820 O1812 1.252 . S
C1821 C1824 1.394 . S
C1821 C1826 1.370 . S
C1821 C1827 1.500 . S
C1822 C1825 1.383 . S
C1822 C1826 1.395 . S
C1823 C1824 1.396 . S
C1823 C1825 1.365 . S
C1823 H1840 0.929 . S
C1824 C1821 1.394 . S
C1824 C1823 1.396 . S
C1824 H1841 0.930 . S
C1825 C1822 1.383 . S
C1825 C1823 1.365 . S
C1825 H1842 0.931 . S
C1826 C1821 1.370 . S
C1826 C1822 1.395 . S
C1826 H1843 0.930 . S
C1827 Gd1774 2.805 . S
C1827 O1809 1.263 . S
C1827 O1810 1.252 . S
C1827 C1821 1.500 . S
C1828 H1790 0.930 . S
C1828 C1804 1.417 . S
C1828 C1829 1.329 . S
C1829 C1799 1.437 . S
C1829 H1800 0.929 . S
C1829 C1828 1.329 . S
H1830 C1803 0.931 . S
C1831 O1813 1.265 . S
C1831 O1814 1.242 . S
C1832 O1817 1.261 . S
C1832 O1818 1.252 . S
C1833 C1836 1.394 . S
C1833 C1838 1.370 . S
C1833 C1839 1.500 . S
C1834 C1837 1.383 . S
C1834 C1838 1.395 . S
C1835 C1836 1.396 . S
C1835 C1837 1.365 . S
C1835 H1844 0.929 . S
C1836 C1833 1.394 . S
C1836 C1835 1.396 . S
C1836 H1845 0.930 . S
C1837 C1834 1.383 . S
C1837 C1835 1.365 . S
C1837 H1846 0.931 . S
C1838 C1833 1.370 . S
C1838 C1834 1.395 . S
C1838 H1847 0.930 . S
C1839 Gd1775 2.805 . S
C1839 O1815 1.263 . S
C1839 O1816 1.252 . S
C1839 C1833 1.500 . S
H1840 C1823 0.929 . S
H1841 C1824 0.930 . S
H1842 C1825 0.931 . S
H1843 C1826 0.930 . S
H1844 C1835 0.929 . S
H1845 C1836 0.930 . S
H1846 C1837 0.931 . S
H1847 C1838 0.930 . S
C1848 C1850 1.422 . S
C1848 C1852 1.415 . S
C1848 N1854 1.369 . S
C1849 C1850 1.421 . S
C1849 C1851 1.417 . S
C1849 C1861 1.422 . S
C1850 C1848 1.422 . S
C1850 C1849 1.421 . S
C1850 N1860 1.359 . S
C1851 C1849 1.417 . S
C1851 C1853 1.329 . S
C1851 H1870 0.930 1_565 S
C1852 C1848 1.415 . S
C1852 C1853 1.437 . S
C1852 C1856 1.413 . S
C1853 C1851 1.329 . S
C1853 C1852 1.437 . S
C1853 H1875 0.929 . S
N1854 C1848 1.369 . S
N1854 C1855 1.338 . S
N1854 Gd1859 2.622 . S
C1855 N1854 1.338 . S
C1855 C1857 1.378 . S
C1855 H1867 0.929 . S
C1856 C1852 1.413 . S
C1856 C1857 1.348 . S
C1856 H1872 0.931 . S
C1857 C1855 1.378 . S
C1857 C1856 1.348 . S
C1857 H1873 0.930 . S
Gd1858 N1878 2.622 . S
Gd1858 N1885 2.570 . S
Gd1858 O1892 2.353 . S
Gd1858 O1893 2.468 . S
Gd1858 O1894 2.427 . S
Gd1858 O1896 2.388 . S
Gd1858 O1897 2.386 . S
Gd1858 O1901 2.307 . S
Gd1858 C1911 2.805 . S
Gd1859 N1854 2.622 . S
Gd1859 N1860 2.570 . S
Gd1859 O1891 2.386 . S
Gd1859 O1895 2.307 . S
Gd1859 O1898 2.353 . S
Gd1859 O1899 2.468 . S
Gd1859 O1900 2.427 . S
Gd1859 O1902 2.388 . S
Gd1859 C1923 2.805 . S
N1860 C1850 1.359 . S
N1860 Gd1859 2.570 . S
N1860 C1862 1.343 . S
C1861 C1849 1.422 . S
C1861 C1863 1.321 . S
C1861 H1869 0.931 1_565 S
C1862 N1860 1.343 . S
C1862 C1863 1.390 . S
C1862 H1864 0.931 . S
C1863 C1861 1.321 . S
C1863 C1862 1.390 . S
C1863 H1865 0.930 . S
H1864 C1862 0.931 . S
H1865 C1863 0.930 . S
H1866 C1889 0.931 . S
H1867 C1855 0.929 . S
H1868 C1890 0.930 . S
H1869 C1861 0.931 1_545 S
H1870 C1851 0.930 1_545 S
H1871 C1880 0.929 . S
H1872 C1856 0.931 . S
H1873 C1857 0.930 . S
H1874 C1912 0.930 1_655 S
H1875 C1853 0.929 . S
H1876 C1881 0.931 . S
H1877 C1882 0.930 . S
N1878 Gd1858 2.622 . S
N1878 C1879 1.369 . S
N1878 C1880 1.338 . S
C1879 N1878 1.369 . S
C1879 C1883 1.415 . S
C1879 C1886 1.422 . S
C1880 H1871 0.929 . S
C1880 N1878 1.338 . S
C1880 C1882 1.378 . S
C1881 H1876 0.931 . S
C1881 C1882 1.348 . S
C1881 C1883 1.413 . S
C1882 H1877 0.930 . S
C1882 C1880 1.378 . S
C1882 C1881 1.348 . S
C1883 C1879 1.415 . S
C1883 C1881 1.413 . S
C1883 C1913 1.437 . S
H1884 C1913 0.929 1_655 S
N1885 Gd1858 2.570 . S
N1885 C1886 1.359 . S
N1885 C1889 1.343 . S
C1886 C1879 1.422 . S
C1886 N1885 1.359 . S
C1886 C1888 1.421 . S
C1887 C1888 1.422 . S
C1887 C1890 1.321 . S
C1887 H1914 0.931 1_455 S
C1888 C1886 1.421 . S
C1888 C1887 1.422 . S
C1888 C1912 1.417 . S
C1889 H1866 0.931 . S
C1889 N1885 1.343 . S
C1889 C1890 1.390 . S
C1890 H1868 0.930 . S
C1890 C1887 1.321 . S
C1890 C1889 1.390 . S
O1891 Gd1859 2.386 . S
O1891 C1903 1.265 . S
O1892 Gd1858 2.353 . S
O1892 C1903 1.242 . S
O1893 Gd1858 2.468 . S
O1893 C1911 1.263 . S
O1894 Gd1858 2.427 . S
O1894 C1911 1.252 . S
O1895 Gd1859 2.307 . S
O1895 C1904 1.261 . S
O1896 Gd1858 2.388 . S
O1896 C1904 1.252 . S
O1897 Gd1858 2.386 . S
O1897 C1915 1.265 . S
O1898 Gd1859 2.353 . S
O1898 C1915 1.242 . S
O1899 Gd1859 2.468 . S
O1899 C1923 1.263 . S
O1900 Gd1859 2.427 . S
O1900 C1923 1.252 . S
O1901 Gd1858 2.307 . S
O1901 C1916 1.261 . S
O1902 Gd1859 2.388 . S
O1902 C1916 1.252 . S
C1903 O1891 1.265 . S
C1903 O1892 1.242 . S
C1904 O1895 1.261 . S
C1904 O1896 1.252 . S
C1905 C1908 1.394 . S
C1905 C1910 1.370 . S
C1905 C1911 1.500 . S
C1906 C1909 1.383 . S
C1906 C1910 1.395 . S
C1907 C1908 1.396 . S
C1907 C1909 1.365 . S
C1907 H1924 0.929 . S
C1908 C1905 1.394 . S
C1908 C1907 1.396 . S
C1908 H1925 0.930 . S
C1909 C1906 1.383 . S
C1909 C1907 1.365 . S
C1909 H1926 0.931 . S
C1910 C1905 1.370 . S
C1910 C1906 1.395 . S
C1910 H1927 0.930 . S
C1911 Gd1858 2.805 . S
C1911 O1893 1.263 . S
C1911 O1894 1.252 . S
C1911 C1905 1.500 . S
C1912 H1874 0.930 1_455 S
C1912 C1888 1.417 . S
C1912 C1913 1.329 . S
C1913 C1883 1.437 . S
C1913 H1884 0.929 1_455 S
C1913 C1912 1.329 . S
H1914 C1887 0.931 1_655 S
C1915 O1897 1.265 . S
C1915 O1898 1.242 . S
C1916 O1901 1.261 . S
C1916 O1902 1.252 . S
C1917 C1920 1.394 1_565 S
C1917 C1922 1.370 1_565 S
C1917 C1923 1.500 . S
C1918 C1921 1.383 . S
C1918 C1922 1.395 . S
C1919 C1920 1.396 . S
C1919 C1921 1.365 . S
C1919 H1928 0.929 . S
C1920 C1917 1.394 1_545 S
C1920 C1919 1.396 . S
C1920 H1929 0.930 1_545 S
C1921 C1918 1.383 . S
C1921 C1919 1.365 . S
C1921 H1930 0.931 . S
C1922 C1917 1.370 1_545 S
C1922 C1918 1.395 . S
C1922 H1931 0.930 . S
C1923 Gd1859 2.805 . S
C1923 O1899 1.263 . S
C1923 O1900 1.252 . S
C1923 C1917 1.500 . S
H1924 C1907 0.929 . S
H1925 C1908 0.930 . S
H1926 C1909 0.931 . S
H1927 C1910 0.930 . S
H1928 C1919 0.929 . S
H1929 C1920 0.930 1_565 S
H1930 C1921 0.931 . S
H1931 C1922 0.930 . S
C1932 C1934 1.422 . S
C1932 C1936 1.415 . S
C1932 N1938 1.369 . S
C1933 C1934 1.421 . S
C1933 C1935 1.417 . S
C1933 C1945 1.422 . S
C1934 C1932 1.422 . S
C1934 C1933 1.421 . S
C1934 N1944 1.359 . S
C1935 C1933 1.417 . S
C1935 C1937 1.329 . S
C1935 H1954 0.930 . S
C1936 C1932 1.415 . S
C1936 C1937 1.437 . S
C1936 C1940 1.413 . S
C1937 C1935 1.329 . S
C1937 C1936 1.437 . S
C1937 H1959 0.929 . S
N1938 C1932 1.369 . S
N1938 C1939 1.338 . S
N1938 Gd1943 2.622 . S
C1939 N1938 1.338 . S
C1939 C1941 1.378 . S
C1939 H1951 0.929 . S
C1940 C1936 1.413 . S
C1940 C1941 1.348 . S
C1940 H1956 0.931 . S
C1941 C1939 1.378 . S
C1941 C1940 1.348 . S
C1941 H1957 0.930 . S
Gd1942 N1962 2.622 . S
Gd1942 N1969 2.570 . S
Gd1942 O1976 2.353 . S
Gd1942 O1977 2.468 . S
Gd1942 O1978 2.427 . S
Gd1942 O1980 2.388 . S
Gd1942 O1981 2.386 . S
Gd1942 O1985 2.307 . S
Gd1942 C1995 2.805 . S
Gd1943 N1938 2.622 . S
Gd1943 N1944 2.570 . S
Gd1943 O1975 2.386 . S
Gd1943 O1979 2.307 . S
Gd1943 O1982 2.353 . S
Gd1943 O1983 2.468 . S
Gd1943 O1984 2.427 . S
Gd1943 O1986 2.388 . S
Gd1943 C2007 2.805 . S
N1944 C1934 1.359 . S
N1944 Gd1943 2.570 . S
N1944 C1946 1.343 . S
C1945 C1933 1.422 . S
C1945 C1947 1.321 . S
C1945 H1953 0.931 . S
C1946 N1944 1.343 . S
C1946 C1947 1.390 . S
C1946 H1948 0.931 . S
C1947 C1945 1.321 . S
C1947 C1946 1.390 . S
C1947 H1949 0.930 . S
H1948 C1946 0.931 . S
H1949 C1947 0.930 . S
H1950 C1973 0.931 . S
H1951 C1939 0.929 . S
H1952 C1974 0.930 . S
H1953 C1945 0.931 . S
H1954 C1935 0.930 . S
H1955 C1964 0.929 . S
H1956 C1940 0.931 . S
H1957 C1941 0.930 . S
H1958 C1996 0.930 . S
H1959 C1937 0.929 . S
H1960 C1965 0.931 . S
H1961 C1966 0.930 . S
N1962 Gd1942 2.622 . S
N1962 C1963 1.369 . S
N1962 C1964 1.338 . S
C1963 N1962 1.369 . S
C1963 C1967 1.415 . S
C1963 C1970 1.422 . S
C1964 H1955 0.929 . S
C1964 N1962 1.338 . S
C1964 C1966 1.378 . S
C1965 H1960 0.931 . S
C1965 C1966 1.348 . S
C1965 C1967 1.413 . S
C1966 H1961 0.930 . S
C1966 C1964 1.378 . S
C1966 C1965 1.348 . S
C1967 C1963 1.415 . S
C1967 C1965 1.413 . S
C1967 C1997 1.437 . S
H1968 C1997 0.929 . S
N1969 Gd1942 2.570 . S
N1969 C1970 1.359 . S
N1969 C1973 1.343 . S
C1970 C1963 1.422 . S
C1970 N1969 1.359 . S
C1970 C1972 1.421 . S
C1971 C1972 1.422 . S
C1971 C1974 1.321 . S
C1971 H1998 0.931 . S
C1972 C1970 1.421 . S
C1972 C1971 1.422 . S
C1972 C1996 1.417 . S
C1973 H1950 0.931 . S
C1973 N1969 1.343 . S
C1973 C1974 1.390 . S
C1974 H1952 0.930 . S
C1974 C1971 1.321 . S
C1974 C1973 1.390 . S
O1975 Gd1943 2.386 . S
O1975 C1987 1.265 . S
O1976 Gd1942 2.353 . S
O1976 C1987 1.242 . S
O1977 Gd1942 2.468 . S
O1977 C1995 1.263 . S
O1978 Gd1942 2.427 . S
O1978 C1995 1.252 . S
O1979 Gd1943 2.307 . S
O1979 C1988 1.261 . S
O1980 Gd1942 2.388 . S
O1980 C1988 1.252 . S
O1981 Gd1942 2.386 . S
O1981 C1999 1.265 . S
O1982 Gd1943 2.353 . S
O1982 C1999 1.242 . S
O1983 Gd1943 2.468 . S
O1983 C2007 1.263 . S
O1984 Gd1943 2.427 . S
O1984 C2007 1.252 . S
O1985 Gd1942 2.307 . S
O1985 C2000 1.261 . S
O1986 Gd1943 2.388 . S
O1986 C2000 1.252 . S
C1987 O1975 1.265 . S
C1987 O1976 1.242 . S
C1988 O1979 1.261 . S
C1988 O1980 1.252 . S
C1989 C1992 1.394 . S
C1989 C1994 1.370 . S
C1989 C1995 1.500 . S
C1990 C1993 1.383 . S
C1990 C1994 1.395 . S
C1991 C1992 1.396 . S
C1991 C1993 1.365 . S
C1991 H2008 0.929 . S
C1992 C1989 1.394 . S
C1992 C1991 1.396 . S
C1992 H2009 0.930 . S
C1993 C1990 1.383 . S
C1993 C1991 1.365 . S
C1993 H2010 0.931 . S
C1994 C1989 1.370 . S
C1994 C1990 1.395 . S
C1994 H2011 0.930 . S
C1995 Gd1942 2.805 . S
C1995 O1977 1.263 . S
C1995 O1978 1.252 . S
C1995 C1989 1.500 . S
C1996 H1958 0.930 . S
C1996 C1972 1.417 . S
C1996 C1997 1.329 . S
C1997 C1967 1.437 . S
C1997 H1968 0.929 . S
C1997 C1996 1.329 . S
H1998 C1971 0.931 . S
C1999 O1981 1.265 . S
C1999 O1982 1.242 . S
C2000 O1985 1.261 . S
C2000 O1986 1.252 . S
C2001 C2004 1.394 . S
C2001 C2006 1.370 . S
C2001 C2007 1.500 . S
C2002 C2005 1.383 . S
C2002 C2006 1.395 . S
C2003 C2004 1.396 . S
C2003 C2005 1.365 . S
C2003 H2012 0.929 . S
C2004 C2001 1.394 . S
C2004 C2003 1.396 . S
C2004 H2013 0.930 . S
C2005 C2002 1.383 . S
C2005 C2003 1.365 . S
C2005 H2014 0.931 1_455 S
C2006 C2001 1.370 . S
C2006 C2002 1.395 . S
C2006 H2015 0.930 . S
C2007 Gd1943 2.805 . S
C2007 O1983 1.263 . S
C2007 O1984 1.252 . S
C2007 C2001 1.500 . S
H2008 C1991 0.929 . S
H2009 C1992 0.930 . S
H2010 C1993 0.931 . S
H2011 C1994 0.930 . S
H2012 C2003 0.929 . S
H2013 C2004 0.930 . S
H2014 C2005 0.931 1_655 S
H2015 C2006 0.930 . S
C2016 C2018 1.422 . S
C2016 C2020 1.415 . S
C2016 N2022 1.369 . S
C2017 C2018 1.421 . S
C2017 C2019 1.417 . S
C2017 C2029 1.422 . S
C2018 C2016 1.422 . S
C2018 C2017 1.421 . S
C2018 N2028 1.359 . S
C2019 C2017 1.417 . S
C2019 C2021 1.329 . S
C2019 H2038 0.930 . S
C2020 C2016 1.415 . S
C2020 C2021 1.437 . S
C2020 C2024 1.413 . S
C2021 C2019 1.329 . S
C2021 C2020 1.437 . S
C2021 H2043 0.929 . S
N2022 C2016 1.369 . S
N2022 C2023 1.338 . S
N2022 Gd2027 2.622 . S
C2023 N2022 1.338 . S
C2023 C2025 1.378 . S
C2023 H2035 0.929 . S
C2024 C2020 1.413 . S
C2024 C2025 1.348 . S
C2024 H2040 0.931 . S
C2025 C2023 1.378 . S
C2025 C2024 1.348 . S
C2025 H2041 0.930 . S
Gd2026 N2046 2.622 . S
Gd2026 N2053 2.570 . S
Gd2026 O2060 2.353 . S
Gd2026 O2061 2.468 . S
Gd2026 O2062 2.427 . S
Gd2026 O2064 2.388 . S
Gd2026 O2065 2.386 . S
Gd2026 O2069 2.307 . S
Gd2026 C2079 2.805 . S
Gd2027 N2022 2.622 . S
Gd2027 N2028 2.570 . S
Gd2027 O2059 2.386 . S
Gd2027 O2063 2.307 . S
Gd2027 O2066 2.353 . S
Gd2027 O2067 2.468 . S
Gd2027 O2068 2.427 . S
Gd2027 O2070 2.388 . S
Gd2027 C2091 2.805 . S
N2028 C2018 1.359 . S
N2028 Gd2027 2.570 . S
N2028 C2030 1.343 . S
C2029 C2017 1.422 . S
C2029 C2031 1.321 . S
C2029 H2037 0.931 . S
C2030 N2028 1.343 . S
C2030 C2031 1.390 . S
C2030 H2032 0.931 . S
C2031 C2029 1.321 . S
C2031 C2030 1.390 . S
C2031 H2033 0.930 . S
H2032 C2030 0.931 . S
H2033 C2031 0.930 . S
H2034 C2057 0.931 . S
H2035 C2023 0.929 . S
H2036 C2058 0.926 1_455 S
H2037 C2029 0.931 . S
H2038 C2019 0.930 . S
H2039 C2048 0.929 . S
H2040 C2024 0.931 . S
H2041 C2025 0.930 . S
H2042 C2080 0.930 . S
H2043 C2021 0.929 . S
H2044 C2049 0.931 . S
H2045 C2050 0.930 . S
N2046 Gd2026 2.622 . S
N2046 C2047 1.369 . S
N2046 C2048 1.338 . S
C2047 N2046 1.369 . S
C2047 C2051 1.415 . S
C2047 C2054 1.422 . S
C2048 H2039 0.929 . S
C2048 N2046 1.338 . S
C2048 C2050 1.378 . S
C2049 H2044 0.931 . S
C2049 C2050 1.348 . S
C2049 C2051 1.413 . S
C2050 H2045 0.930 . S
C2050 C2048 1.378 . S
C2050 C2049 1.348 . S
C2051 C2047 1.415 . S
C2051 C2049 1.413 . S
C2051 C2081 1.437 1_655 S
H2052 C2081 0.929 . S
N2053 Gd2026 2.570 . S
N2053 C2054 1.359 . S
N2053 C2057 1.343 . S
C2054 C2047 1.422 . S
C2054 N2053 1.359 . S
C2054 C2056 1.421 1_655 S
C2055 C2056 1.422 . S
C2055 C2058 1.315 1_455 S
C2055 H2082 0.931 . S
C2056 C2054 1.421 1_455 S
C2056 C2055 1.422 . S
C2056 C2080 1.417 . S
C2057 H2034 0.931 . S
C2057 N2053 1.343 . S
C2057 C2058 1.400 . S
C2058 H2036 0.926 1_655 S
C2058 C2055 1.315 1_655 S
C2058 C2057 1.400 . S
O2059 Gd2027 2.386 . S
O2059 C2071 1.265 . S
O2060 Gd2026 2.353 . S
O2060 C2071 1.242 . S
O2061 Gd2026 2.468 . S
O2061 C2079 1.263 . S
O2062 Gd2026 2.427 . S
O2062 C2079 1.252 . S
O2063 Gd2027 2.307 . S
O2063 C2072 1.261 . S
O2064 Gd2026 2.388 . S
O2064 C2072 1.252 . S
O2065 Gd2026 2.386 . S
O2065 C2083 1.265 . S
O2066 Gd2027 2.353 . S
O2066 C2083 1.242 . S
O2067 Gd2027 2.468 . S
O2067 C2091 1.263 . S
O2068 Gd2027 2.427 . S
O2068 C2091 1.252 . S
O2069 Gd2026 2.307 . S
O2069 C2084 1.261 . S
O2070 Gd2027 2.388 . S
O2070 C2084 1.252 . S
C2071 O2059 1.265 . S
C2071 O2060 1.242 . S
C2072 O2063 1.261 . S
C2072 O2064 1.252 . S
C2073 C2076 1.394 . S
C2073 C2078 1.370 . S
C2073 C2079 1.500 . S
C2074 C2077 1.383 . S
C2074 C2078 1.395 . S
C2075 C2076 1.396 . S
C2075 C2077 1.365 . S
C2075 H2092 0.929 . S
C2076 C2073 1.394 . S
C2076 C2075 1.396 . S
C2076 H2093 0.930 . S
C2077 C2074 1.383 . S
C2077 C2075 1.365 . S
C2077 H2094 0.931 . S
C2078 C2073 1.370 . S
C2078 C2074 1.395 . S
C2078 H2095 0.930 . S
C2079 Gd2026 2.805 . S
C2079 O2061 1.263 . S
C2079 O2062 1.252 . S
C2079 C2073 1.500 . S
C2080 H2042 0.930 . S
C2080 C2056 1.417 . S
C2080 C2081 1.329 . S
C2081 C2051 1.437 1_455 S
C2081 H2052 0.929 . S
C2081 C2080 1.329 . S
H2082 C2055 0.931 . S
C2083 O2065 1.265 . S
C2083 O2066 1.242 . S
C2084 O2069 1.261 . S
C2084 O2070 1.252 . S
C2085 C2088 1.394 . S
C2085 C2090 1.370 . S
C2085 C2091 1.500 . S
C2086 C2089 1.383 . S
C2086 C2090 1.395 . S
C2087 C2088 1.396 . S
C2087 C2089 1.365 . S
C2087 H2096 0.929 . S
C2088 C2085 1.394 . S
C2088 C2087 1.396 . S
C2088 H2097 0.930 . S
C2089 C2086 1.383 . S
C2089 C2087 1.365 . S
C2089 H2098 0.931 . S
C2090 C2085 1.370 . S
C2090 C2086 1.395 . S
C2090 H2099 0.930 . S
C2091 Gd2027 2.805 . S
C2091 O2067 1.263 . S
C2091 O2068 1.252 . S
C2091 C2085 1.500 . S
H2092 C2075 0.929 . S
H2093 C2076 0.930 . S
H2094 C2077 0.931 . S
H2095 C2078 0.930 . S
H2096 C2087 0.929 . S
H2097 C2088 0.930 . S
H2098 C2089 0.931 . S
H2099 C2090 0.930 . S
C2100 C2102 1.422 . S
C2100 C2104 1.415 . S
C2100 N2106 1.369 . S
C2101 C2102 1.421 . S
C2101 C2103 1.417 . S
C2101 C2113 1.422 . S
C2102 C2100 1.422 . S
C2102 C2101 1.421 . S
C2102 N2112 1.359 . S
C2103 C2101 1.417 . S
C2103 C2105 1.329 . S
C2103 H2122 0.930 . S
C2104 C2100 1.415 . S
C2104 C2105 1.437 . S
C2104 C2108 1.413 . S
C2105 C2103 1.329 . S
C2105 C2104 1.437 . S
C2105 H2127 0.929 . S
N2106 C2100 1.369 . S
N2106 C2107 1.338 . S
N2106 Gd2111 2.622 . S
C2107 N2106 1.338 . S
C2107 C2109 1.378 . S
C2107 H2119 0.929 . S
C2108 C2104 1.413 . S
C2108 C2109 1.348 . S
C2108 H2124 0.931 . S
C2109 C2107 1.378 . S
C2109 C2108 1.348 . S
C2109 H2125 0.930 . S
Gd2110 N2130 2.622 . S
Gd2110 N2137 2.570 . S
Gd2110 O2144 2.353 . S
Gd2110 O2145 2.468 . S
Gd2110 O2146 2.427 . S
Gd2110 O2148 2.388 . S
Gd2110 O2149 2.386 . S
Gd2110 O2153 2.307 . S
Gd2110 C2163 2.805 . S
Gd2111 N2106 2.622 . S
Gd2111 N2112 2.570 . S
Gd2111 O2143 2.386 . S
Gd2111 O2147 2.307 . S
Gd2111 O2150 2.353 . S
Gd2111 O2151 2.468 . S
Gd2111 O2152 2.427 . S
Gd2111 O2154 2.388 . S
Gd2111 C2175 2.805 . S
N2112 C2102 1.359 . S
N2112 Gd2111 2.570 . S
N2112 C2114 1.343 . S
C2113 C2101 1.422 . S
C2113 C2115 1.321 . S
C2113 H2121 0.931 . S
C2114 N2112 1.343 . S
C2114 C2115 1.390 . S
C2114 H2116 0.931 . S
C2115 C2113 1.321 . S
C2115 C2114 1.390 . S
C2115 H2117 0.930 . S
H2116 C2114 0.931 . S
H2117 C2115 0.930 . S
H2118 C2141 0.931 . S
H2119 C2107 0.929 . S
H2120 C2142 0.930 . S
H2121 C2113 0.931 . S
H2122 C2103 0.930 . S
H2123 C2132 0.929 . S
H2124 C2108 0.931 . S
H2125 C2109 0.930 . S
H2126 C2164 0.930 . S
H2127 C2105 0.929 . S
H2128 C2133 0.931 . S
H2129 C2134 0.930 . S
N2130 Gd2110 2.622 . S
N2130 C2131 1.369 . S
N2130 C2132 1.338 . S
C2131 N2130 1.369 . S
C2131 C2135 1.415 . S
C2131 C2138 1.422 . S
C2132 H2123 0.929 . S
C2132 N2130 1.338 . S
C2132 C2134 1.378 . S
C2133 H2128 0.931 . S
C2133 C2134 1.348 . S
C2133 C2135 1.413 . S
C2134 H2129 0.930 . S
C2134 C2132 1.378 . S
C2134 C2133 1.348 . S
C2135 C2131 1.415 . S
C2135 C2133 1.413 . S
C2135 C2165 1.437 . S
H2136 C2165 0.929 . S
N2137 Gd2110 2.570 . S
N2137 C2138 1.359 . S
N2137 C2141 1.343 . S
C2138 C2131 1.422 . S
C2138 N2137 1.359 . S
C2138 C2140 1.421 . S
C2139 C2140 1.422 . S
C2139 C2142 1.321 . S
C2139 H2166 0.931 . S
C2140 C2138 1.421 . S
C2140 C2139 1.422 . S
C2140 C2164 1.417 . S
C2141 H2118 0.931 . S
C2141 N2137 1.343 . S
C2141 C2142 1.390 . S
C2142 H2120 0.930 . S
C2142 C2139 1.321 . S
C2142 C2141 1.390 . S
O2143 Gd2111 2.386 . S
O2143 C2155 1.265 . S
O2144 Gd2110 2.353 . S
O2144 C2155 1.242 . S
O2145 Gd2110 2.468 . S
O2145 C2163 1.263 . S
O2146 Gd2110 2.427 . S
O2146 C2163 1.252 . S
O2147 Gd2111 2.307 . S
O2147 C2156 1.261 . S
O2148 Gd2110 2.388 . S
O2148 C2156 1.252 . S
O2149 Gd2110 2.386 . S
O2149 C2167 1.265 . S
O2150 Gd2111 2.353 . S
O2150 C2167 1.242 . S
O2151 Gd2111 2.468 . S
O2151 C2175 1.263 . S
O2152 Gd2111 2.427 . S
O2152 C2175 1.252 . S
O2153 Gd2110 2.307 . S
O2153 C2168 1.261 . S
O2154 Gd2111 2.388 . S
O2154 C2168 1.252 . S
C2155 O2143 1.265 . S
C2155 O2144 1.242 . S
C2156 O2147 1.261 . S
C2156 O2148 1.252 . S
C2157 C2160 1.394 . S
C2157 C2162 1.370 . S
C2157 C2163 1.500 . S
C2158 C2161 1.383 . S
C2158 C2162 1.395 . S
C2159 C2160 1.396 . S
C2159 C2161 1.365 . S
C2159 H2176 0.929 . S
C2160 C2157 1.394 . S
C2160 C2159 1.396 . S
C2160 H2177 0.930 . S
C2161 C2158 1.383 . S
C2161 C2159 1.365 . S
C2161 H2178 0.931 . S
C2162 C2157 1.370 . S
C2162 C2158 1.395 . S
C2162 H2179 0.930 . S
C2163 Gd2110 2.805 . S
C2163 O2145 1.263 . S
C2163 O2146 1.252 . S
C2163 C2157 1.500 . S
C2164 H2126 0.930 . S
C2164 C2140 1.417 . S
C2164 C2165 1.329 . S
C2165 C2135 1.437 . S
C2165 H2136 0.929 . S
C2165 C2164 1.329 . S
H2166 C2139 0.931 . S
C2167 O2149 1.265 . S
C2167 O2150 1.242 . S
C2168 O2153 1.261 . S
C2168 O2154 1.252 . S
C2169 C2172 1.394 . S
C2169 C2174 1.370 . S
C2169 C2175 1.500 . S
C2170 C2173 1.383 . S
C2170 C2174 1.395 1_565 S
C2171 C2172 1.396 1_565 S
C2171 C2173 1.365 . S
C2171 H2180 0.929 . S
C2172 C2169 1.394 . S
C2172 C2171 1.396 1_545 S
C2172 H2181 0.930 . S
C2173 C2170 1.383 . S
C2173 C2171 1.365 . S
C2173 H2182 0.931 . S
C2174 C2169 1.370 . S
C2174 C2170 1.395 1_545 S
C2174 H2183 0.930 . S
C2175 Gd2111 2.805 . S
C2175 O2151 1.263 . S
C2175 O2152 1.252 . S
C2175 C2169 1.500 . S
H2176 C2159 0.929 . S
H2177 C2160 0.930 . S
H2178 C2161 0.931 . S
H2179 C2162 0.930 . S
H2180 C2171 0.929 . S
H2181 C2172 0.930 . S
H2182 C2173 0.931 . S
H2183 C2174 0.930 . S
C2184 C2186 1.424 . S
C2184 C2188 1.414 . S
C2184 N2190 1.368 1_455 S
C2185 C2186 1.421 . S
C2185 C2187 1.417 . S
C2185 C2197 1.422 . S
C2186 C2184 1.424 . S
C2186 C2185 1.421 . S
C2186 N2196 1.359 . S
C2187 C2185 1.417 . S
C2187 C2189 1.329 . S
C2187 H2206 0.930 . S
C2188 C2184 1.414 . S
C2188 C2189 1.437 . S
C2188 C2192 1.413 1_455 S
C2189 C2187 1.329 . S
C2189 C2188 1.437 . S
C2189 H2211 0.929 . S
N2190 C2184 1.368 1_655 S
N2190 C2191 1.338 . S
N2190 Gd2195 2.622 . S
C2191 N2190 1.338 . S
C2191 C2193 1.378 . S
C2191 H2203 0.929 . S
C2192 C2188 1.413 1_655 S
C2192 C2193 1.348 . S
C2192 H2208 0.931 1_655 S
C2193 C2191 1.378 . S
C2193 C2192 1.348 . S
C2193 H2209 0.930 . S
Gd2194 N2214 2.622 . S
Gd2194 N2221 2.570 . S
Gd2194 O2228 2.353 . S
Gd2194 O2229 2.468 . S
Gd2194 O2230 2.427 . S
Gd2194 O2232 2.388 . S
Gd2194 O2233 2.386 . S
Gd2194 O2237 2.307 . S
Gd2194 C2247 2.805 . S
Gd2195 N2190 2.622 . S
Gd2195 N2196 2.570 1_655 S
Gd2195 O2227 2.386 . S
Gd2195 O2231 2.307 . S
Gd2195 O2234 2.353 . S
Gd2195 O2235 2.468 1_655 S
Gd2195 O2236 2.427 . S
Gd2195 O2238 2.388 . S
Gd2195 C2259 2.805 1_655 S
N2196 C2186 1.359 . S
N2196 Gd2195 2.570 1_455 S
N2196 C2198 1.343 . S
C2197 C2185 1.422 . S
C2197 C2199 1.321 . S
C2197 H2205 0.931 . S
C2198 N2196 1.343 . S
C2198 C2199 1.390 . S
C2198 H2200 0.931 . S
C2199 C2197 1.321 . S
C2199 C2198 1.390 . S
C2199 H2201 0.930 . S
H2200 C2198 0.931 . S
H2201 C2199 0.930 . S
H2202 C2225 0.931 . S
H2203 C2191 0.929 . S
H2204 C2226 0.930 . S
H2205 C2197 0.931 . S
H2206 C2187 0.930 . S
H2207 C2216 0.929 . S
H2208 C2192 0.931 1_455 S
H2209 C2193 0.930 . S
H2210 C2248 0.930 . S
H2211 C2189 0.929 . S
H2212 C2217 0.931 . S
H2213 C2218 0.930 . S
N2214 Gd2194 2.622 . S
N2214 C2215 1.369 . S
N2214 C2216 1.338 . S
C2215 N2214 1.369 . S
C2215 C2219 1.415 . S
C2215 C2222 1.422 . S
C2216 H2207 0.929 . S
C2216 N2214 1.338 . S
C2216 C2218 1.378 . S
C2217 H2212 0.931 . S
C2217 C2218 1.348 . S
C2217 C2219 1.413 . S
C2218 H2213 0.930 . S
C2218 C2216 1.378 . S
C2218 C2217 1.348 . S
C2219 C2215 1.415 . S
C2219 C2217 1.413 . S
C2219 C2249 1.437 . S
H2220 C2249 0.929 . S
N2221 Gd2194 2.570 . S
N2221 C2222 1.359 . S
N2221 C2225 1.343 . S
C2222 C2215 1.422 . S
C2222 N2221 1.359 . S
C2222 C2224 1.421 . S
C2223 C2224 1.422 . S
C2223 C2226 1.321 . S
C2223 H2250 0.931 . S
C2224 C2222 1.421 . S
C2224 C2223 1.422 . S
C2224 C2248 1.417 . S
C2225 H2202 0.931 . S
C2225 N2221 1.343 . S
C2225 C2226 1.390 . S
C2226 H2204 0.930 . S
C2226 C2223 1.321 . S
C2226 C2225 1.390 . S
O2227 Gd2195 2.386 . S
O2227 C2239 1.265 . S
O2228 Gd2194 2.353 . S
O2228 C2239 1.242 . S
O2229 Gd2194 2.468 . S
O2229 C2247 1.263 . S
O2230 Gd2194 2.427 . S
O2230 C2247 1.252 . S
O2231 Gd2195 2.307 . S
O2231 C2240 1.261 . S
O2232 Gd2194 2.388 . S
O2232 C2240 1.252 . S
O2233 Gd2194 2.386 . S
O2233 C2251 1.265 . S
O2234 Gd2195 2.353 . S
O2234 C2251 1.242 . S
O2235 Gd2195 2.468 1_455 S
O2235 C2259 1.263 . S
O2236 Gd2195 2.427 . S
O2236 C2259 1.252 1_655 S
O2237 Gd2194 2.307 . S
O2237 C2252 1.261 . S
O2238 Gd2195 2.388 . S
O2238 C2252 1.252 . S
C2239 O2227 1.265 . S
C2239 O2228 1.242 . S
C2240 O2231 1.261 . S
C2240 O2232 1.252 . S
C2241 C2244 1.394 . S
C2241 C2246 1.370 . S
C2241 C2247 1.500 . S
C2242 C2245 1.383 . S
C2242 C2246 1.395 . S
C2243 C2244 1.396 . S
C2243 C2245 1.365 . S
C2243 H2260 0.929 . S
C2244 C2241 1.394 . S
C2244 C2243 1.396 . S
C2244 H2261 0.930 . S
C2245 C2242 1.383 . S
C2245 C2243 1.365 . S
C2245 H2262 0.931 . S
C2246 C2241 1.370 . S
C2246 C2242 1.395 . S
C2246 H2263 0.930 . S
C2247 Gd2194 2.805 . S
C2247 O2229 1.263 . S
C2247 O2230 1.252 . S
C2247 C2241 1.500 . S
C2248 H2210 0.930 . S
C2248 C2224 1.417 . S
C2248 C2249 1.329 . S
C2249 C2219 1.437 . S
C2249 H2220 0.929 . S
C2249 C2248 1.329 . S
H2250 C2223 0.931 . S
C2251 O2233 1.265 . S
C2251 O2234 1.242 . S
C2252 O2237 1.261 . S
C2252 O2238 1.252 . S
C2253 C2256 1.394 . S
C2253 C2258 1.370 . S
C2253 C2259 1.500 . S
C2254 C2257 1.383 . S
C2254 C2258 1.395 . S
C2255 C2256 1.396 . S
C2255 C2257 1.365 . S
C2255 H2264 0.929 . S
C2256 C2253 1.394 . S
C2256 C2255 1.396 . S
C2256 H2265 0.930 . S
C2257 C2254 1.383 . S
C2257 C2255 1.365 . S
C2257 H2266 0.931 . S
C2258 C2253 1.370 . S
C2258 C2254 1.395 . S
C2258 H2267 0.930 . S
C2259 Gd2195 2.805 1_455 S
C2259 O2235 1.263 . S
C2259 O2236 1.252 1_455 S
C2259 C2253 1.500 . S
H2260 C2243 0.929 . S
H2261 C2244 0.930 . S
H2262 C2245 0.931 . S
H2263 C2246 0.930 . S
H2264 C2255 0.929 . S
H2265 C2256 0.930 . S
H2266 C2257 0.931 . S
H2267 C2258 0.930 . S
C2268 C2270 1.422 . S
C2268 C2272 1.415 . S
C2268 N2274 1.369 . S
C2269 C2270 1.421 . S
C2269 C2271 1.417 . S
C2269 C2281 1.422 . S
C2270 C2268 1.422 . S
C2270 C2269 1.421 . S
C2270 N2280 1.359 . S
C2271 C2269 1.417 . S
C2271 C2273 1.329 . S
C2271 H2290 0.930 1_545 S
C2272 C2268 1.415 . S
C2272 C2273 1.437 . S
C2272 C2276 1.413 . S
C2273 C2271 1.329 . S
C2273 C2272 1.437 . S
C2273 H2295 0.929 1_545 S
N2274 C2268 1.369 . S
N2274 C2275 1.338 . S
N2274 Gd2279 2.622 . S
C2275 N2274 1.338 . S
C2275 C2277 1.378 . S
C2275 H2287 0.929 . S
C2276 C2272 1.413 . S
C2276 C2277 1.348 . S
C2276 H2292 0.931 . S
C2277 C2275 1.378 . S
C2277 C2276 1.348 . S
C2277 H2293 0.930 . S
Gd2278 N2298 2.622 . S
Gd2278 N2305 2.570 . S
Gd2278 O2312 2.353 . S
Gd2278 O2313 2.468 . S
Gd2278 O2314 2.427 . S
Gd2278 O2316 2.388 . S
Gd2278 O2317 2.386 . S
Gd2278 O2321 2.307 . S
Gd2278 C2331 2.805 . S
Gd2279 N2274 2.622 . S
Gd2279 N2280 2.570 . S
Gd2279 O2311 2.386 . S
Gd2279 O2315 2.307 . S
Gd2279 O2318 2.353 . S
Gd2279 O2319 2.468 . S
Gd2279 O2320 2.427 . S
Gd2279 O2322 2.388 . S
Gd2279 C2343 2.805 . S
N2280 C2270 1.359 . S
N2280 Gd2279 2.570 . S
N2280 C2282 1.343 . S
C2281 C2269 1.422 . S
C2281 C2283 1.321 . S
C2281 H2289 0.931 1_545 S
C2282 N2280 1.343 . S
C2282 C2283 1.390 . S
C2282 H2284 0.931 . S
C2283 C2281 1.321 . S
C2283 C2282 1.390 . S
C2283 H2285 0.930 . S
H2284 C2282 0.931 . S
H2285 C2283 0.930 . S
H2286 C2309 0.931 . S
H2287 C2275 0.929 . S
H2288 C2310 0.930 . S
H2289 C2281 0.931 1_565 S
H2290 C2271 0.930 1_565 S
H2291 C2300 0.929 . S
H2292 C2276 0.931 . S
H2293 C2277 0.930 . S
H2294 C2332 0.930 . S
H2295 C2273 0.929 1_565 S
H2296 C2301 0.931 . S
H2297 C2302 0.930 . S
N2298 Gd2278 2.622 . S
N2298 C2299 1.369 . S
N2298 C2300 1.338 . S
C2299 N2298 1.369 . S
C2299 C2303 1.415 . S
C2299 C2306 1.422 . S
C2300 H2291 0.929 . S
C2300 N2298 1.338 . S
C2300 C2302 1.378 . S
C2301 H2296 0.931 . S
C2301 C2302 1.348 . S
C2301 C2303 1.413 . S
C2302 H2297 0.930 . S
C2302 C2300 1.378 . S
C2302 C2301 1.348 . S
C2303 C2299 1.415 . S
C2303 C2301 1.413 . S
C2303 C2333 1.437 . S
H2304 C2333 0.929 . S
N2305 Gd2278 2.570 . S
N2305 C2306 1.359 . S
N2305 C2309 1.343 . S
C2306 C2299 1.422 . S
C2306 N2305 1.359 . S
C2306 C2308 1.421 . S
C2307 C2308 1.422 . S
C2307 C2310 1.321 . S
C2307 H2334 0.931 . S
C2308 C2306 1.421 . S
C2308 C2307 1.422 . S
C2308 C2332 1.417 . S
C2309 H2286 0.931 . S
C2309 N2305 1.343 . S
C2309 C2310 1.390 . S
C2310 H2288 0.930 . S
C2310 C2307 1.321 . S
C2310 C2309 1.390 . S
O2311 Gd2279 2.386 . S
O2311 C2323 1.265 . S
O2312 Gd2278 2.353 . S
O2312 C2323 1.242 . S
O2313 Gd2278 2.468 . S
O2313 C2331 1.263 . S
O2314 Gd2278 2.427 . S
O2314 C2331 1.252 . S
O2315 Gd2279 2.307 . S
O2315 C2324 1.261 . S
O2316 Gd2278 2.388 . S
O2316 C2324 1.252 . S
O2317 Gd2278 2.386 . S
O2317 C2335 1.265 . S
O2318 Gd2279 2.353 . S
O2318 C2335 1.242 . S
O2319 Gd2279 2.468 . S
O2319 C2343 1.263 . S
O2320 Gd2279 2.427 . S
O2320 C2343 1.252 . S
O2321 Gd2278 2.307 . S
O2321 C2336 1.261 . S
O2322 Gd2279 2.388 . S
O2322 C2336 1.252 . S
C2323 O2311 1.265 . S
C2323 O2312 1.242 . S
C2324 O2315 1.261 . S
C2324 O2316 1.252 . S
C2325 C2328 1.394 . S
C2325 C2330 1.370 . S
C2325 C2331 1.500 . S
C2326 C2329 1.383 . S
C2326 C2330 1.395 . S
C2327 C2328 1.396 . S
C2327 C2329 1.365 . S
C2327 H2344 0.929 . S
C2328 C2325 1.394 . S
C2328 C2327 1.396 . S
C2328 H2345 0.930 . S
C2329 C2326 1.383 . S
C2329 C2327 1.365 . S
C2329 H2346 0.931 . S
C2330 C2325 1.370 . S
C2330 C2326 1.395 . S
C2330 H2347 0.930 . S
C2331 Gd2278 2.805 . S
C2331 O2313 1.263 . S
C2331 O2314 1.252 . S
C2331 C2325 1.500 . S
C2332 H2294 0.930 . S
C2332 C2308 1.417 . S
C2332 C2333 1.329 . S
C2333 C2303 1.437 . S
C2333 H2304 0.929 . S
C2333 C2332 1.329 . S
H2334 C2307 0.931 . S
C2335 O2317 1.265 . S
C2335 O2318 1.242 . S
C2336 O2321 1.261 . S
C2336 O2322 1.252 . S
C2337 C2340 1.394 . S
C2337 C2342 1.370 . S
C2337 C2343 1.500 . S
C2338 C2341 1.383 . S
C2338 C2342 1.395 . S
C2339 C2340 1.396 . S
C2339 C2341 1.365 . S
C2339 H2348 0.929 . S
C2340 C2337 1.394 . S
C2340 C2339 1.396 . S
C2340 H2349 0.930 . S
C2341 C2338 1.383 . S
C2341 C2339 1.365 . S
C2341 H2350 0.931 . S
C2342 C2337 1.370 . S
C2342 C2338 1.395 . S
C2342 H2351 0.930 . S
C2343 Gd2279 2.805 . S
C2343 O2319 1.263 . S
C2343 O2320 1.252 . S
C2343 C2337 1.500 . S
H2344 C2327 0.929 . S
H2345 C2328 0.930 . S
H2346 C2329 0.931 . S
H2347 C2330 0.930 . S
H2348 C2339 0.929 . S
H2349 C2340 0.930 . S
H2350 C2341 0.931 . S
H2351 C2342 0.930 . S
C2352 C2354 1.422 1_655 S
C2352 C2356 1.415 1_655 S
C2352 N2358 1.369 . S
C2353 C2354 1.421 . S
C2353 C2355 1.417 . S
C2353 C2365 1.422 . S
C2354 C2352 1.422 1_455 S
C2354 C2353 1.421 . S
C2354 N2364 1.359 1_455 S
C2355 C2353 1.417 . S
C2355 C2357 1.329 . S
C2355 H2374 0.930 . S
C2356 C2352 1.415 1_455 S
C2356 C2357 1.437 . S
C2356 C2360 1.413 . S
C2357 C2355 1.329 . S
C2357 C2356 1.437 . S
C2357 H2379 0.929 . S
N2358 C2352 1.369 . S
N2358 C2359 1.338 . S
N2358 Gd2363 2.622 . S
C2359 N2358 1.338 . S
C2359 C2361 1.378 . S
C2359 H2371 0.929 . S
C2360 C2356 1.413 . S
C2360 C2361 1.348 1_455 S
C2360 H2376 0.931 . S
C2361 C2359 1.378 . S
C2361 C2360 1.348 1_655 S
C2361 H2377 0.930 . S
Gd2362 N2382 2.622 . S
Gd2362 N2389 2.570 . S
Gd2362 O2396 2.353 . S
Gd2362 O2397 2.468 . S
Gd2362 O2398 2.427 . S
Gd2362 O2400 2.388 . S
Gd2362 O2401 2.386 . S
Gd2362 O2405 2.307 . S
Gd2362 C2415 2.805 . S
Gd2363 N2358 2.622 . S
Gd2363 N2364 2.570 . S
Gd2363 O2395 2.386 . S
Gd2363 O2399 2.307 . S
Gd2363 O2402 2.353 . S
Gd2363 O2403 2.468 . S
Gd2363 O2404 2.427 . S
Gd2363 O2406 2.388 . S
Gd2363 C2427 2.805 . S
N2364 C2354 1.359 1_655 S
N2364 Gd2363 2.570 . S
N2364 C2366 1.343 . S
C2365 C2353 1.422 . S
C2365 C2367 1.321 . S
C2365 H2373 0.931 . S
C2366 N2364 1.343 . S
C2366 C2367 1.390 1_655 S
C2366 H2368 0.931 . S
C2367 C2365 1.321 . S
C2367 C2366 1.390 1_455 S
C2367 H2369 0.930 . S
H2368 C2366 0.931 . S
H2369 C2367 0.930 . S
H2370 C2393 0.931 . S
H2371 C2359 0.929 . S
H2372 C2394 0.930 . S
H2373 C2365 0.931 . S
H2374 C2355 0.930 . S
H2375 C2384 0.929 . S
H2376 C2360 0.931 . S
H2377 C2361 0.930 . S
H2378 C2416 0.930 . S
H2379 C2357 0.929 . S
H2380 C2385 0.931 . S
H2381 C2386 0.930 . S
N2382 Gd2362 2.622 . S
N2382 C2383 1.369 . S
N2382 C2384 1.338 . S
C2383 N2382 1.369 . S
C2383 C2387 1.415 . S
C2383 C2390 1.422 . S
C2384 H2375 0.929 . S
C2384 N2382 1.338 . S
C2384 C2386 1.378 . S
C2385 H2380 0.931 . S
C2385 C2386 1.348 . S
C2385 C2387 1.413 . S
C2386 H2381 0.930 . S
C2386 C2384 1.378 . S
C2386 C2385 1.348 . S
C2387 C2383 1.415 . S
C2387 C2385 1.413 . S
C2387 C2417 1.437 . S
H2388 C2417 0.929 . S
N2389 Gd2362 2.570 . S
N2389 C2390 1.359 . S
N2389 C2393 1.343 . S
C2390 C2383 1.422 . S
C2390 N2389 1.359 . S
C2390 C2392 1.421 . S
C2391 C2392 1.422 . S
C2391 C2394 1.321 . S
C2391 H2418 0.931 . S
C2392 C2390 1.421 . S
C2392 C2391 1.422 . S
C2392 C2416 1.417 . S
C2393 H2370 0.931 . S
C2393 N2389 1.343 . S
C2393 C2394 1.390 . S
C2394 H2372 0.930 . S
C2394 C2391 1.321 . S
C2394 C2393 1.390 . S
O2395 Gd2363 2.386 . S
O2395 C2407 1.265 . S
O2396 Gd2362 2.353 . S
O2396 C2407 1.242 . S
O2397 Gd2362 2.468 . S
O2397 C2415 1.263 . S
O2398 Gd2362 2.427 . S
O2398 C2415 1.252 . S
O2399 Gd2363 2.307 . S
O2399 C2408 1.261 . S
O2400 Gd2362 2.388 . S
O2400 C2408 1.252 . S
O2401 Gd2362 2.386 . S
O2401 C2419 1.265 . S
O2402 Gd2363 2.353 . S
O2402 C2419 1.242 . S
O2403 Gd2363 2.468 . S
O2403 C2427 1.263 . S
O2404 Gd2363 2.427 . S
O2404 C2427 1.252 . S
O2405 Gd2362 2.307 . S
O2405 C2420 1.261 . S
O2406 Gd2363 2.388 . S
O2406 C2420 1.252 . S
C2407 O2395 1.265 . S
C2407 O2396 1.242 . S
C2408 O2399 1.261 . S
C2408 O2400 1.252 . S
C2409 C2412 1.394 . S
C2409 C2414 1.370 . S
C2409 C2415 1.500 . S
C2410 C2413 1.383 . S
C2410 C2414 1.395 . S
C2411 C2412 1.396 . S
C2411 C2413 1.365 . S
C2411 H2428 0.929 . S
C2412 C2409 1.394 . S
C2412 C2411 1.396 . S
C2412 H2429 0.930 . S
C2413 C2410 1.383 . S
C2413 C2411 1.365 . S
C2413 H2430 0.931 1_545 S
C2414 C2409 1.370 . S
C2414 C2410 1.395 . S
C2414 H2431 0.930 . S
C2415 Gd2362 2.805 . S
C2415 O2397 1.263 . S
C2415 O2398 1.252 . S
C2415 C2409 1.500 . S
C2416 H2378 0.930 . S
C2416 C2392 1.417 . S
C2416 C2417 1.329 . S
C2417 C2387 1.437 . S
C2417 H2388 0.929 . S
C2417 C2416 1.329 . S
H2418 C2391 0.931 . S
C2419 O2401 1.265 . S
C2419 O2402 1.242 . S
C2420 O2405 1.261 . S
C2420 O2406 1.252 . S
C2421 C2424 1.394 . S
C2421 C2426 1.370 . S
C2421 C2427 1.500 . S
C2422 C2425 1.383 . S
C2422 C2426 1.395 . S
C2423 C2424 1.396 . S
C2423 C2425 1.365 . S
C2423 H2432 0.929 . S
C2424 C2421 1.394 . S
C2424 C2423 1.396 . S
C2424 H2433 0.930 . S
C2425 C2422 1.383 . S
C2425 C2423 1.365 . S
C2425 H2434 0.931 . S
C2426 C2421 1.370 . S
C2426 C2422 1.395 . S
C2426 H2435 0.930 . S
C2427 Gd2363 2.805 . S
C2427 O2403 1.263 . S
C2427 O2404 1.252 . S
C2427 C2421 1.500 . S
H2428 C2411 0.929 . S
H2429 C2412 0.930 . S
H2430 C2413 0.931 1_565 S
H2431 C2414 0.930 . S
H2432 C2423 0.929 . S
H2433 C2424 0.930 . S
H2434 C2425 0.931 . S
H2435 C2426 0.930 . S
C2436 C2438 1.422 . S
C2436 C2440 1.415 . S
C2436 N2442 1.369 . S
C2437 C2438 1.421 . S
C2437 C2439 1.417 . S
C2437 C2449 1.422 . S
C2438 C2436 1.422 . S
C2438 C2437 1.421 . S
C2438 N2448 1.359 . S
C2439 C2437 1.417 . S
C2439 C2441 1.329 . S
C2439 H2458 0.930 . S
C2440 C2436 1.415 . S
C2440 C2441 1.437 . S
C2440 C2444 1.413 . S
C2441 C2439 1.329 . S
C2441 C2440 1.437 . S
C2441 H2463 0.929 . S
N2442 C2436 1.369 . S
N2442 C2443 1.338 . S
N2442 Gd2447 2.622 . S
C2443 N2442 1.338 . S
C2443 C2445 1.378 . S
C2443 H2455 0.929 . S
C2444 C2440 1.413 . S
C2444 C2445 1.348 . S
C2444 H2460 0.931 . S
C2445 C2443 1.378 . S
C2445 C2444 1.348 . S
C2445 H2461 0.930 . S
Gd2446 N2466 2.622 . S
Gd2446 N2473 2.570 . S
Gd2446 O2480 2.353 . S
Gd2446 O2481 2.468 . S
Gd2446 O2482 2.427 . S
Gd2446 O2484 2.388 . S
Gd2446 O2485 2.386 . S
Gd2446 O2489 2.307 . S
Gd2446 C2499 2.805 . S
Gd2447 N2442 2.622 . S
Gd2447 N2448 2.570 . S
Gd2447 O2479 2.386 . S
Gd2447 O2483 2.307 . S
Gd2447 O2486 2.353 . S
Gd2447 O2487 2.468 . S
Gd2447 O2488 2.427 . S
Gd2447 O2490 2.388 . S
Gd2447 C2511 2.805 . S
N2448 C2438 1.359 . S
N2448 Gd2447 2.570 . S
N2448 C2450 1.343 . S
C2449 C2437 1.422 . S
C2449 C2451 1.321 . S
C2449 H2457 0.931 . S
C2450 N2448 1.343 . S
C2450 C2451 1.390 . S
C2450 H2452 0.931 . S
C2451 C2449 1.321 . S
C2451 C2450 1.390 . S
C2451 H2453 0.930 . S
H2452 C2450 0.931 . S
H2453 C2451 0.930 . S
H2454 C2477 0.931 . S
H2455 C2443 0.929 . S
H2456 C2478 0.930 . S
H2457 C2449 0.931 . S
H2458 C2439 0.930 . S
H2459 C2468 0.929 . S
H2460 C2444 0.931 . S
H2461 C2445 0.930 . S
H2462 C2500 0.930 1_455 S
H2463 C2441 0.929 . S
H2464 C2469 0.931 . S
H2465 C2470 0.930 . S
N2466 Gd2446 2.622 . S
N2466 C2467 1.369 . S
N2466 C2468 1.338 . S
C2467 N2466 1.369 . S
C2467 C2471 1.415 . S
C2467 C2474 1.422 . S
C2468 H2459 0.929 . S
C2468 N2466 1.338 . S
C2468 C2470 1.378 . S
C2469 H2464 0.931 . S
C2469 C2470 1.348 . S
C2469 C2471 1.413 . S
C2470 H2465 0.930 . S
C2470 C2468 1.378 . S
C2470 C2469 1.348 . S
C2471 C2467 1.415 . S
C2471 C2469 1.413 . S
C2471 C2501 1.437 . S
H2472 C2501 0.929 . S
N2473 Gd2446 2.570 . S
N2473 C2474 1.359 . S
N2473 C2477 1.343 . S
C2474 C2467 1.422 . S
C2474 N2473 1.359 . S
C2474 C2476 1.421 . S
C2475 C2476 1.422 . S
C2475 C2478 1.321 . S
C2475 H2502 0.931 1_655 S
C2476 C2474 1.421 . S
C2476 C2475 1.422 . S
C2476 C2500 1.417 . S
C2477 H2454 0.931 . S
C2477 N2473 1.343 . S
C2477 C2478 1.390 . S
C2478 H2456 0.930 . S
C2478 C2475 1.321 . S
C2478 C2477 1.390 . S
O2479 Gd2447 2.386 . S
O2479 C2491 1.265 . S
O2480 Gd2446 2.353 . S
O2480 C2491 1.242 . S
O2481 Gd2446 2.468 . S
O2481 C2499 1.263 . S
O2482 Gd2446 2.427 . S
O2482 C2499 1.252 . S
O2483 Gd2447 2.307 . S
O2483 C2492 1.261 . S
O2484 Gd2446 2.388 . S
O2484 C2492 1.252 . S
O2485 Gd2446 2.386 . S
O2485 C2503 1.265 . S
O2486 Gd2447 2.353 . S
O2486 C2503 1.242 . S
O2487 Gd2447 2.468 . S
O2487 C2511 1.263 . S
O2488 Gd2447 2.427 . S
O2488 C2511 1.252 . S
O2489 Gd2446 2.307 . S
O2489 C2504 1.261 . S
O2490 Gd2447 2.388 . S
O2490 C2504 1.252 . S
C2491 O2479 1.265 . S
C2491 O2480 1.242 . S
C2492 O2483 1.261 . S
C2492 O2484 1.252 . S
C2493 C2496 1.394 1_655 S
C2493 C2498 1.370 1_655 S
C2493 C2499 1.500 . S
C2494 C2497 1.383 . S
C2494 C2498 1.395 . S
C2495 C2496 1.396 . S
C2495 C2497 1.365 . S
C2495 H2512 0.929 . S
C2496 C2493 1.394 1_455 S
C2496 C2495 1.396 . S
C2496 H2513 0.930 1_455 S
C2497 C2494 1.383 . S
C2497 C2495 1.365 . S
C2497 H2514 0.931 . S
C2498 C2493 1.370 1_455 S
C2498 C2494 1.395 . S
C2498 H2515 0.930 . S
C2499 Gd2446 2.805 . S
C2499 O2481 1.263 . S
C2499 O2482 1.252 . S
C2499 C2493 1.500 . S
C2500 H2462 0.930 1_655 S
C2500 C2476 1.417 . S
C2500 C2501 1.329 . S
C2501 C2471 1.437 . S
C2501 H2472 0.929 . S
C2501 C2500 1.329 . S
H2502 C2475 0.931 1_455 S
C2503 O2485 1.265 . S
C2503 O2486 1.242 . S
C2504 O2489 1.261 . S
C2504 O2490 1.252 . S
C2505 C2508 1.394 . S
C2505 C2510 1.370 . S
C2505 C2511 1.500 . S
C2506 C2509 1.383 . S
C2506 C2510 1.395 . S
C2507 C2508 1.396 . S
C2507 C2509 1.365 . S
C2507 H2516 0.929 . S
C2508 C2505 1.394 . S
C2508 C2507 1.396 . S
C2508 H2517 0.930 . S
C2509 C2506 1.383 . S
C2509 C2507 1.365 . S
C2509 H2518 0.931 . S
C2510 C2505 1.370 . S
C2510 C2506 1.395 . S
C2510 H2519 0.930 . S
C2511 Gd2447 2.805 . S
C2511 O2487 1.263 . S
C2511 O2488 1.252 . S
C2511 C2505 1.500 . S
H2512 C2495 0.929 . S
H2513 C2496 0.930 1_655 S
H2514 C2497 0.931 . S
H2515 C2498 0.930 . S
H2516 C2507 0.929 . S
H2517 C2508 0.930 . S
H2518 C2509 0.931 . S
H2519 C2510 0.930 . S
C2520 C2522 1.422 . S
C2520 C2524 1.415 . S
C2520 N2526 1.369 . S
C2521 C2522 1.421 . S
C2521 C2523 1.417 . S
C2521 C2533 1.422 . S
C2522 C2520 1.422 . S
C2522 C2521 1.421 . S
C2522 N2532 1.359 . S
C2523 C2521 1.417 . S
C2523 C2525 1.329 . S
C2523 H2542 0.930 . S
C2524 C2520 1.415 . S
C2524 C2525 1.437 . S
C2524 C2528 1.413 . S
C2525 C2523 1.329 . S
C2525 C2524 1.437 . S
C2525 H2547 0.929 . S
N2526 C2520 1.369 . S
N2526 C2527 1.338 . S
N2526 Gd2531 2.622 . S
C2527 N2526 1.338 . S
C2527 C2529 1.378 . S
C2527 H2539 0.929 . S
C2528 C2524 1.413 . S
C2528 C2529 1.348 . S
C2528 H2544 0.931 . S
C2529 C2527 1.378 . S
C2529 C2528 1.348 . S
C2529 H2545 0.930 . S
Gd2530 N2550 2.622 . S
Gd2530 N2557 2.570 . S
Gd2530 O2564 2.353 . S
Gd2530 O2565 2.468 . S
Gd2530 O2566 2.427 . S
Gd2530 O2568 2.388 . S
Gd2530 O2569 2.386 . S
Gd2530 O2573 2.307 . S
Gd2530 C2583 2.805 . S
Gd2531 N2526 2.622 . S
Gd2531 N2532 2.570 . S
Gd2531 O2563 2.386 . S
Gd2531 O2567 2.307 . S
Gd2531 O2570 2.353 . S
Gd2531 O2571 2.468 . S
Gd2531 O2572 2.427 . S
Gd2531 O2574 2.388 . S
Gd2531 C2595 2.805 . S
N2532 C2522 1.359 . S
N2532 Gd2531 2.570 . S
N2532 C2534 1.343 . S
C2533 C2521 1.422 . S
C2533 C2535 1.321 . S
C2533 H2541 0.931 . S
C2534 N2532 1.343 . S
C2534 C2535 1.390 . S
C2534 H2536 0.931 . S
C2535 C2533 1.321 . S
C2535 C2534 1.390 . S
C2535 H2537 0.930 . S
H2536 C2534 0.931 . S
H2537 C2535 0.930 . S
H2538 C2561 0.931 . S
H2539 C2527 0.929 . S
H2540 C2562 0.930 . S
H2541 C2533 0.931 . S
H2542 C2523 0.930 . S
H2543 C2552 0.929 . S
H2544 C2528 0.931 . S
H2545 C2529 0.930 . S
H2546 C2584 0.930 . S
H2547 C2525 0.929 . S
H2548 C2553 0.931 . S
H2549 C2554 0.930 . S
N2550 Gd2530 2.622 . S
N2550 C2551 1.369 . S
N2550 C2552 1.338 . S
C2551 N2550 1.369 . S
C2551 C2555 1.415 1_655 S
C2551 C2558 1.422 1_655 S
C2552 H2543 0.929 . S
C2552 N2550 1.338 . S
C2552 C2554 1.378 . S
C2553 H2548 0.931 . S
C2553 C2554 1.348 1_455 S
C2553 C2555 1.413 . S
C2554 H2549 0.930 . S
C2554 C2552 1.378 . S
C2554 C2553 1.348 1_655 S
C2555 C2551 1.415 1_455 S
C2555 C2553 1.413 . S
C2555 C2585 1.437 . S
H2556 C2585 0.929 . S
N2557 Gd2530 2.570 . S
N2557 C2558 1.359 1_655 S
N2557 C2561 1.343 . S
C2558 C2551 1.422 1_455 S
C2558 N2557 1.359 1_455 S
C2558 C2560 1.421 . S
C2559 C2560 1.422 . S
C2559 C2562 1.321 . S
C2559 H2586 0.931 . S
C2560 C2558 1.421 . S
C2560 C2559 1.422 . S
C2560 C2584 1.417 . S
C2561 H2538 0.931 . S
C2561 N2557 1.343 . S
C2561 C2562 1.390 1_655 S
C2562 H2540 0.930 . S
C2562 C2559 1.321 . S
C2562 C2561 1.390 1_455 S
O2563 Gd2531 2.386 . S
O2563 C2575 1.265 . S
O2564 Gd2530 2.353 . S
O2564 C2575 1.242 . S
O2565 Gd2530 2.468 . S
O2565 C2583 1.263 . S
O2566 Gd2530 2.427 . S
O2566 C2583 1.252 . S
O2567 Gd2531 2.307 . S
O2567 C2576 1.261 . S
O2568 Gd2530 2.388 . S
O2568 C2576 1.252 . S
O2569 Gd2530 2.386 . S
O2569 C2587 1.265 . S
O2570 Gd2531 2.353 . S
O2570 C2587 1.242 . S
O2571 Gd2531 2.468 . S
O2571 C2595 1.263 . S
O2572 Gd2531 2.427 . S
O2572 C2595 1.252 . S
O2573 Gd2530 2.307 . S
O2573 C2588 1.261 . S
O2574 Gd2531 2.388 . S
O2574 C2588 1.252 . S
C2575 O2563 1.265 . S
C2575 O2564 1.242 . S
C2576 O2567 1.261 . S
C2576 O2568 1.252 . S
C2577 C2580 1.394 . S
C2577 C2582 1.370 . S
C2577 C2583 1.500 . S
C2578 C2581 1.383 . S
C2578 C2582 1.395 . S
C2579 C2580 1.396 . S
C2579 C2581 1.365 . S
C2579 H2596 0.929 . S
C2580 C2577 1.394 . S
C2580 C2579 1.396 . S
C2580 H2597 0.930 . S
C2581 C2578 1.383 . S
C2581 C2579 1.365 . S
C2581 H2598 0.931 . S
C2582 C2577 1.370 . S
C2582 C2578 1.395 . S
C2582 H2599 0.930 . S
C2583 Gd2530 2.805 . S
C2583 O2565 1.263 . S
C2583 O2566 1.252 . S
C2583 C2577 1.500 . S
C2584 H2546 0.930 . S
C2584 C2560 1.417 . S
C2584 C2585 1.329 . S
C2585 C2555 1.437 . S
C2585 H2556 0.929 . S
C2585 C2584 1.329 . S
H2586 C2559 0.931 . S
C2587 O2569 1.265 . S
C2587 O2570 1.242 . S
C2588 O2573 1.261 . S
C2588 O2574 1.252 . S
C2589 C2592 1.394 . S
C2589 C2594 1.370 . S
C2589 C2595 1.500 . S
C2590 C2593 1.383 . S
C2590 C2594 1.395 . S
C2591 C2592 1.396 . S
C2591 C2593 1.365 . S
C2591 H2600 0.929 . S
C2592 C2589 1.394 . S
C2592 C2591 1.396 . S
C2592 H2601 0.930 . S
C2593 C2590 1.383 . S
C2593 C2591 1.365 . S
C2593 H2602 0.931 . S
C2594 C2589 1.370 . S
C2594 C2590 1.395 . S
C2594 H2603 0.930 . S
C2595 Gd2531 2.805 . S
C2595 O2571 1.263 . S
C2595 O2572 1.252 . S
C2595 C2589 1.500 . S
H2596 C2579 0.929 . S
H2597 C2580 0.930 . S
H2598 C2581 0.931 . S
H2599 C2582 0.930 . S
H2600 C2591 0.929 . S
H2601 C2592 0.930 . S
H2602 C2593 0.931 . S
H2603 C2594 0.930 . S
C2604 C2606 1.422 . S
C2604 C2608 1.415 . S
C2604 N2610 1.369 . S
C2605 C2606 1.421 . S
C2605 C2607 1.417 . S
C2605 C2617 1.422 . S
C2606 C2604 1.422 . S
C2606 C2605 1.421 . S
C2606 N2616 1.359 . S
C2607 C2605 1.417 . S
C2607 C2609 1.329 . S
C2607 H2626 0.930 . S
C2608 C2604 1.415 . S
C2608 C2609 1.437 . S
C2608 C2612 1.413 . S
C2609 C2607 1.329 . S
C2609 C2608 1.437 . S
C2609 H2631 0.929 . S
N2610 C2604 1.369 . S
N2610 C2611 1.338 . S
N2610 Gd2615 2.622 . S
C2611 N2610 1.338 . S
C2611 C2613 1.378 . S
C2611 H2623 0.929 . S
C2612 C2608 1.413 . S
C2612 C2613 1.348 . S
C2612 H2628 0.931 . S
C2613 C2611 1.378 . S
C2613 C2612 1.348 . S
C2613 H2629 0.930 . S
Gd2614 N2634 2.622 . S
Gd2614 N2641 2.570 . S
Gd2614 O2648 2.353 . S
Gd2614 O2649 2.468 . S
Gd2614 O2650 2.427 . S
Gd2614 O2652 2.388 . S
Gd2614 O2653 2.386 . S
Gd2614 O2657 2.307 . S
Gd2614 C2667 2.805 . S
Gd2615 N2610 2.622 . S
Gd2615 N2616 2.570 . S
Gd2615 O2647 2.386 . S
Gd2615 O2651 2.307 . S
Gd2615 O2654 2.353 . S
Gd2615 O2655 2.468 . S
Gd2615 O2656 2.427 . S
Gd2615 O2658 2.388 . S
Gd2615 C2679 2.805 . S
N2616 C2606 1.359 . S
N2616 Gd2615 2.570 . S
N2616 C2618 1.343 . S
C2617 C2605 1.422 . S
C2617 C2619 1.321 . S
C2617 H2625 0.931 . S
C2618 N2616 1.343 . S
C2618 C2619 1.390 . S
C2618 H2620 0.931 . S
C2619 C2617 1.321 . S
C2619 C2618 1.390 . S
C2619 H2621 0.930 . S
H2620 C2618 0.931 . S
H2621 C2619 0.930 . S
H2622 C2645 0.931 . S
H2623 C2611 0.929 . S
H2624 C2646 0.930 . S
H2625 C2617 0.931 . S
H2626 C2607 0.930 . S
H2627 C2636 0.929 . S
H2628 C2612 0.931 . S
H2629 C2613 0.930 . S
H2630 C2668 0.930 . S
H2631 C2609 0.929 . S
H2632 C2637 0.931 . S
H2633 C2638 0.930 . S
N2634 Gd2614 2.622 . S
N2634 C2635 1.369 . S
N2634 C2636 1.338 . S
C2635 N2634 1.369 . S
C2635 C2639 1.415 . S
C2635 C2642 1.422 . S
C2636 H2627 0.929 . S
C2636 N2634 1.338 . S
C2636 C2638 1.378 . S
C2637 H2632 0.931 . S
C2637 C2638 1.348 . S
C2637 C2639 1.413 . S
C2638 H2633 0.930 . S
C2638 C2636 1.378 . S
C2638 C2637 1.348 . S
C2639 C2635 1.415 . S
C2639 C2637 1.413 . S
C2639 C2669 1.437 . S
H2640 C2669 0.929 . S
N2641 Gd2614 2.570 . S
N2641 C2642 1.359 . S
N2641 C2645 1.343 . S
C2642 C2635 1.422 . S
C2642 N2641 1.359 . S
C2642 C2644 1.421 . S
C2643 C2644 1.422 . S
C2643 C2646 1.321 . S
C2643 H2670 0.931 . S
C2644 C2642 1.421 . S
C2644 C2643 1.422 . S
C2644 C2668 1.417 . S
C2645 H2622 0.931 . S
C2645 N2641 1.343 . S
C2645 C2646 1.390 . S
C2646 H2624 0.930 . S
C2646 C2643 1.321 . S
C2646 C2645 1.390 . S
O2647 Gd2615 2.386 . S
O2647 C2659 1.265 . S
O2648 Gd2614 2.353 . S
O2648 C2659 1.242 . S
O2649 Gd2614 2.468 . S
O2649 C2667 1.263 . S
O2650 Gd2614 2.427 . S
O2650 C2667 1.252 . S
O2651 Gd2615 2.307 . S
O2651 C2660 1.261 . S
O2652 Gd2614 2.388 . S
O2652 C2660 1.252 . S
O2653 Gd2614 2.386 . S
O2653 C2671 1.265 . S
O2654 Gd2615 2.353 . S
O2654 C2671 1.242 . S
O2655 Gd2615 2.468 . S
O2655 C2679 1.263 . S
O2656 Gd2615 2.427 . S
O2656 C2679 1.252 . S
O2657 Gd2614 2.307 . S
O2657 C2672 1.261 . S
O2658 Gd2615 2.388 . S
O2658 C2672 1.252 . S
C2659 O2647 1.265 . S
C2659 O2648 1.242 . S
C2660 O2651 1.261 . S
C2660 O2652 1.252 . S
C2661 C2664 1.394 . S
C2661 C2666 1.370 . S
C2661 C2667 1.500 . S
C2662 C2665 1.383 . S
C2662 C2666 1.395 . S
C2663 C2664 1.396 . S
C2663 C2665 1.365 . S
C2663 H2680 0.929 . S
C2664 C2661 1.394 . S
C2664 C2663 1.396 . S
C2664 H2681 0.930 . S
C2665 C2662 1.383 . S
C2665 C2663 1.365 . S
C2665 H2682 0.931 . S
C2666 C2661 1.370 . S
C2666 C2662 1.395 . S
C2666 H2683 0.930 . S
C2667 Gd2614 2.805 . S
C2667 O2649 1.263 . S
C2667 O2650 1.252 . S
C2667 C2661 1.500 . S
C2668 H2630 0.930 . S
C2668 C2644 1.417 . S
C2668 C2669 1.329 . S
C2669 C2639 1.437 . S
C2669 H2640 0.929 . S
C2669 C2668 1.329 . S
H2670 C2643 0.931 . S
C2671 O2653 1.265 . S
C2671 O2654 1.242 . S
C2672 O2657 1.261 . S
C2672 O2658 1.252 . S
C2673 C2676 1.394 . S
C2673 C2678 1.370 . S
C2673 C2679 1.500 . S
C2674 C2677 1.383 . S
C2674 C2678 1.395 . S
C2675 C2676 1.396 . S
C2675 C2677 1.365 . S
C2675 H2684 0.929 . S
C2676 C2673 1.394 . S
C2676 C2675 1.396 . S
C2676 H2685 0.930 . S
C2677 C2674 1.383 . S
C2677 C2675 1.365 . S
C2677 H2686 0.931 1_545 S
C2678 C2673 1.370 . S
C2678 C2674 1.395 . S
C2678 H2687 0.930 . S
C2679 Gd2615 2.805 . S
C2679 O2655 1.263 . S
C2679 O2656 1.252 . S
C2679 C2673 1.500 . S
H2680 C2663 0.929 . S
H2681 C2664 0.930 . S
H2682 C2665 0.931 . S
H2683 C2666 0.930 . S
H2684 C2675 0.929 . S
H2685 C2676 0.930 . S
H2686 C2677 0.931 1_565 S
H2687 C2678 0.930 . S
C2688 C2690 1.422 . S
C2688 C2692 1.415 . S
C2688 N2694 1.369 . S
C2689 C2690 1.421 . S
C2689 C2691 1.417 . S
C2689 C2701 1.422 . S
C2690 C2688 1.422 . S
C2690 C2689 1.421 . S
C2690 N2700 1.359 . S
C2691 C2689 1.417 . S
C2691 C2693 1.329 . S
C2691 H2710 0.930 1_655 S
C2692 C2688 1.415 . S
C2692 C2693 1.437 . S
C2692 C2696 1.413 . S
C2693 C2691 1.329 . S
C2693 C2692 1.437 . S
C2693 H2715 0.929 . S
N2694 C2688 1.369 . S
N2694 C2695 1.338 . S
N2694 Gd2699 2.622 . S
C2695 N2694 1.338 . S
C2695 C2697 1.378 . S
C2695 H2707 0.929 . S
C2696 C2692 1.413 . S
C2696 C2697 1.348 . S
C2696 H2712 0.931 . S
C2697 C2695 1.378 . S
C2697 C2696 1.348 . S
C2697 H2713 0.930 . S
Gd2698 N2718 2.622 . S
Gd2698 N2725 2.570 . S
Gd2698 O2732 2.353 . S
Gd2698 O2733 2.468 . S
Gd2698 O2734 2.427 . S
Gd2698 O2736 2.388 . S
Gd2698 O2737 2.386 . S
Gd2698 O2741 2.307 . S
Gd2698 C2751 2.805 . S
Gd2699 N2694 2.622 . S
Gd2699 N2700 2.570 . S
Gd2699 O2731 2.386 . S
Gd2699 O2735 2.307 . S
Gd2699 O2738 2.353 . S
Gd2699 O2739 2.468 . S
Gd2699 O2740 2.427 . S
Gd2699 O2742 2.388 . S
Gd2699 C2763 2.805 . S
N2700 C2690 1.359 . S
N2700 Gd2699 2.570 . S
N2700 C2702 1.343 . S
C2701 C2689 1.422 . S
C2701 C2703 1.321 . S
C2701 H2709 0.931 1_655 S
C2702 N2700 1.343 . S
C2702 C2703 1.390 . S
C2702 H2704 0.931 . S
C2703 C2701 1.321 . S
C2703 C2702 1.390 . S
C2703 H2705 0.930 . S
H2704 C2702 0.931 . S
H2705 C2703 0.930 . S
H2706 C2729 0.931 . S
H2707 C2695 0.929 . S
H2708 C2730 0.930 . S
H2709 C2701 0.931 1_455 S
H2710 C2691 0.930 1_455 S
H2711 C2720 0.929 . S
H2712 C2696 0.931 . S
H2713 C2697 0.930 . S
H2714 C2752 0.930 1_565 S
H2715 C2693 0.929 . S
H2716 C2721 0.931 . S
H2717 C2722 0.930 . S
N2718 Gd2698 2.622 . S
N2718 C2719 1.369 . S
N2718 C2720 1.338 . S
C2719 N2718 1.369 . S
C2719 C2723 1.415 . S
C2719 C2726 1.422 . S
C2720 H2711 0.929 . S
C2720 N2718 1.338 . S
C2720 C2722 1.378 . S
C2721 H2716 0.931 . S
C2721 C2722 1.348 . S
C2721 C2723 1.413 . S
C2722 H2717 0.930 . S
C2722 C2720 1.378 . S
C2722 C2721 1.348 . S
C2723 C2719 1.415 . S
C2723 C2721 1.413 . S
C2723 C2753 1.437 . S
H2724 C2753 0.929 1_565 S
N2725 Gd2698 2.570 . S
N2725 C2726 1.359 . S
N2725 C2729 1.343 . S
C2726 C2719 1.422 . S
C2726 N2725 1.359 . S
C2726 C2728 1.421 . S
C2727 C2728 1.422 . S
C2727 C2730 1.321 . S
C2727 H2754 0.931 1_545 S
C2728 C2726 1.421 . S
C2728 C2727 1.422 . S
C2728 C2752 1.417 . S
C2729 H2706 0.931 . S
C2729 N2725 1.343 . S
C2729 C2730 1.390 . S
C2730 H2708 0.930 . S
C2730 C2727 1.321 . S
C2730 C2729 1.390 . S
O2731 Gd2699 2.386 . S
O2731 C2743 1.265 . S
O2732 Gd2698 2.353 . S
O2732 C2743 1.242 . S
O2733 Gd2698 2.468 . S
O2733 C2751 1.263 . S
O2734 Gd2698 2.427 . S
O2734 C2751 1.252 . S
O2735 Gd2699 2.307 . S
O2735 C2744 1.261 . S
O2736 Gd2698 2.388 . S
O2736 C2744 1.252 . S
O2737 Gd2698 2.386 . S
O2737 C2755 1.265 . S
O2738 Gd2699 2.353 . S
O2738 C2755 1.242 . S
O2739 Gd2699 2.468 . S
O2739 C2763 1.263 . S
O2740 Gd2699 2.427 . S
O2740 C2763 1.252 . S
O2741 Gd2698 2.307 . S
O2741 C2756 1.261 . S
O2742 Gd2699 2.388 . S
O2742 C2756 1.252 . S
C2743 O2731 1.265 . S
C2743 O2732 1.242 . S
C2744 O2735 1.261 . S
C2744 O2736 1.252 . S
C2745 C2748 1.394 . S
C2745 C2750 1.370 . S
C2745 C2751 1.500 . S
C2746 C2749 1.383 . S
C2746 C2750 1.395 . S
C2747 C2748 1.396 . S
C2747 C2749 1.365 . S
C2747 H2764 0.929 . S
C2748 C2745 1.394 . S
C2748 C2747 1.396 . S
C2748 H2765 0.930 . S
C2749 C2746 1.383 . S
C2749 C2747 1.365 . S
C2749 H2766 0.931 . S
C2750 C2745 1.370 . S
C2750 C2746 1.395 . S
C2750 H2767 0.930 . S
C2751 Gd2698 2.805 . S
C2751 O2733 1.263 . S
C2751 O2734 1.252 . S
C2751 C2745 1.500 . S
C2752 H2714 0.930 1_545 S
C2752 C2728 1.417 . S
C2752 C2753 1.329 . S
C2753 C2723 1.437 . S
C2753 H2724 0.929 1_545 S
C2753 C2752 1.329 . S
H2754 C2727 0.931 1_565 S
C2755 O2737 1.265 . S
C2755 O2738 1.242 . S
C2756 O2741 1.261 . S
C2756 O2742 1.252 . S
C2757 C2760 1.394 1_655 S
C2757 C2762 1.370 1_655 S
C2757 C2763 1.500 . S
C2758 C2761 1.383 . S
C2758 C2762 1.395 . S
C2759 C2760 1.396 . S
C2759 C2761 1.365 . S
C2759 H2768 0.929 . S
C2760 C2757 1.394 1_455 S
C2760 C2759 1.396 . S
C2760 H2769 0.930 1_455 S
C2761 C2758 1.383 . S
C2761 C2759 1.365 . S
C2761 H2770 0.931 . S
C2762 C2757 1.370 1_455 S
C2762 C2758 1.395 . S
C2762 H2771 0.930 . S
C2763 Gd2699 2.805 . S
C2763 O2739 1.263 . S
C2763 O2740 1.252 . S
C2763 C2757 1.500 . S
H2764 C2747 0.929 . S
H2765 C2748 0.930 . S
H2766 C2749 0.931 . S
H2767 C2750 0.930 . S
H2768 C2759 0.929 . S
H2769 C2760 0.930 1_655 S
H2770 C2761 0.931 . S
H2771 C2762 0.930 . S
C2772 C2774 1.422 . S
C2772 C2776 1.415 . S
C2772 N2778 1.369 . S
C2773 C2774 1.421 . S
C2773 C2775 1.417 . S
C2773 C2785 1.422 . S
C2774 C2772 1.422 . S
C2774 C2773 1.421 . S
C2774 N2784 1.359 . S
C2775 C2773 1.417 . S
C2775 C2777 1.329 . S
C2775 H2794 0.930 . S
C2776 C2772 1.415 . S
C2776 C2777 1.437 . S
C2776 C2780 1.413 . S
C2777 C2775 1.329 . S
C2777 C2776 1.437 . S
C2777 H2799 0.929 . S
N2778 C2772 1.369 . S
N2778 C2779 1.338 . S
N2778 Gd2783 2.622 . S
C2779 N2778 1.338 . S
C2779 C2781 1.378 . S
C2779 H2791 0.929 . S
C2780 C2776 1.413 . S
C2780 C2781 1.348 . S
C2780 H2796 0.931 . S
C2781 C2779 1.378 . S
C2781 C2780 1.348 . S
C2781 H2797 0.930 . S
Gd2782 N2802 2.622 . S
Gd2782 N2809 2.570 . S
Gd2782 O2816 2.353 . S
Gd2782 O2817 2.468 . S
Gd2782 O2818 2.427 . S
Gd2782 O2820 2.388 . S
Gd2782 O2821 2.386 . S
Gd2782 O2825 2.307 . S
Gd2782 C2835 2.805 . S
Gd2783 N2778 2.622 . S
Gd2783 N2784 2.570 . S
Gd2783 O2815 2.386 . S
Gd2783 O2819 2.307 . S
Gd2783 O2822 2.353 . S
Gd2783 O2823 2.468 . S
Gd2783 O2824 2.427 . S
Gd2783 O2826 2.388 . S
Gd2783 C2847 2.805 . S
N2784 C2774 1.359 . S
N2784 Gd2783 2.570 . S
N2784 C2786 1.343 . S
C2785 C2773 1.422 . S
C2785 C2787 1.321 . S
C2785 H2793 0.931 . S
C2786 N2784 1.343 . S
C2786 C2787 1.390 . S
C2786 H2788 0.931 . S
C2787 C2785 1.321 . S
C2787 C2786 1.390 . S
C2787 H2789 0.930 . S
H2788 C2786 0.931 . S
H2789 C2787 0.930 . S
H2790 C2813 0.931 . S
H2791 C2779 0.929 . S
H2792 C2814 0.930 . S
H2793 C2785 0.931 . S
H2794 C2775 0.930 . S
H2795 C2804 0.929 . S
H2796 C2780 0.931 . S
H2797 C2781 0.930 . S
H2798 C2836 0.930 . S
H2799 C2777 0.929 . S
H2800 C2805 0.931 . S
H2801 C2806 0.930 . S
N2802 Gd2782 2.622 . S
N2802 C2803 1.369 . S
N2802 C2804 1.338 . S
C2803 N2802 1.369 . S
C2803 C2807 1.415 . S
C2803 C2810 1.422 . S
C2804 H2795 0.929 . S
C2804 N2802 1.338 . S
C2804 C2806 1.378 . S
C2805 H2800 0.931 . S
C2805 C2806 1.348 . S
C2805 C2807 1.413 . S
C2806 H2801 0.930 . S
C2806 C2804 1.378 . S
C2806 C2805 1.348 . S
C2807 C2803 1.415 . S
C2807 C2805 1.413 . S
C2807 C2837 1.437 . S
H2808 C2837 0.929 . S
N2809 Gd2782 2.570 . S
N2809 C2810 1.359 . S
N2809 C2813 1.343 . S
C2810 C2803 1.422 . S
C2810 N2809 1.359 . S
C2810 C2812 1.421 . S
C2811 C2812 1.422 . S
C2811 C2814 1.321 . S
C2811 H2838 0.931 . S
C2812 C2810 1.421 . S
C2812 C2811 1.422 . S
C2812 C2836 1.417 . S
C2813 H2790 0.931 . S
C2813 N2809 1.343 . S
C2813 C2814 1.390 . S
C2814 H2792 0.930 . S
C2814 C2811 1.321 . S
C2814 C2813 1.390 . S
O2815 Gd2783 2.386 . S
O2815 C2827 1.265 . S
O2816 Gd2782 2.353 . S
O2816 C2827 1.242 . S
O2817 Gd2782 2.468 . S
O2817 C2835 1.263 . S
O2818 Gd2782 2.427 . S
O2818 C2835 1.252 . S
O2819 Gd2783 2.307 . S
O2819 C2828 1.261 . S
O2820 Gd2782 2.388 . S
O2820 C2828 1.252 . S
O2821 Gd2782 2.386 . S
O2821 C2839 1.265 . S
O2822 Gd2783 2.353 . S
O2822 C2839 1.242 . S
O2823 Gd2783 2.468 . S
O2823 C2847 1.263 . S
O2824 Gd2783 2.427 . S
O2824 C2847 1.252 . S
O2825 Gd2782 2.307 . S
O2825 C2840 1.261 . S
O2826 Gd2783 2.388 . S
O2826 C2840 1.252 . S
C2827 O2815 1.265 . S
C2827 O2816 1.242 . S
C2828 O2819 1.261 . S
C2828 O2820 1.252 . S
C2829 C2832 1.394 . S
C2829 C2834 1.370 . S
C2829 C2835 1.500 . S
C2830 C2833 1.383 . S
C2830 C2834 1.395 . S
C2831 C2832 1.396 . S
C2831 C2833 1.365 . S
C2831 H2848 0.929 . S
C2832 C2829 1.394 . S
C2832 C2831 1.396 . S
C2832 H2849 0.930 . S
C2833 C2830 1.383 . S
C2833 C2831 1.365 . S
C2833 H2850 0.931 . S
C2834 C2829 1.370 . S
C2834 C2830 1.395 . S
C2834 H2851 0.930 . S
C2835 Gd2782 2.805 . S
C2835 O2817 1.263 . S
C2835 O2818 1.252 . S
C2835 C2829 1.500 . S
C2836 H2798 0.930 . S
C2836 C2812 1.417 . S
C2836 C2837 1.329 . S
C2837 C2807 1.437 . S
C2837 H2808 0.929 . S
C2837 C2836 1.329 . S
H2838 C2811 0.931 . S
C2839 O2821 1.265 . S
C2839 O2822 1.242 . S
C2840 O2825 1.261 . S
C2840 O2826 1.252 . S
C2841 C2844 1.394 . S
C2841 C2846 1.370 . S
C2841 C2847 1.500 . S
C2842 C2845 1.383 . S
C2842 C2846 1.395 . S
C2843 C2844 1.396 . S
C2843 C2845 1.365 . S
C2843 H2852 0.929 . S
C2844 C2841 1.394 . S
C2844 C2843 1.396 . S
C2844 H2853 0.930 . S
C2845 C2842 1.383 . S
C2845 C2843 1.365 . S
C2845 H2854 0.931 . S
C2846 C2841 1.370 . S
C2846 C2842 1.395 . S
C2846 H2855 0.930 . S
C2847 Gd2783 2.805 . S
C2847 O2823 1.263 . S
C2847 O2824 1.252 . S
C2847 C2841 1.500 . S
H2848 C2831 0.929 . S
H2849 C2832 0.930 . S
H2850 C2833 0.931 . S
H2851 C2834 0.930 . S
H2852 C2843 0.929 . S
H2853 C2844 0.930 . S
H2854 C2845 0.931 . S
H2855 C2846 0.930 . S
C2856 C2858 1.422 . S
C2856 C2860 1.415 . S
C2856 N2862 1.369 . S
C2857 C2858 1.421 1_455 S
C2857 C2859 1.417 . S
C2857 C2869 1.422 . S
C2858 C2856 1.422 . S
C2858 C2857 1.421 1_655 S
C2858 N2868 1.359 . S
C2859 C2857 1.417 . S
C2859 C2861 1.329 . S
C2859 H2878 0.930 . S
C2860 C2856 1.415 . S
C2860 C2861 1.437 1_655 S
C2860 C2864 1.413 . S
C2861 C2859 1.329 . S
C2861 C2860 1.437 1_455 S
C2861 H2883 0.929 . S
N2862 C2856 1.369 . S
N2862 C2863 1.338 . S
N2862 Gd2867 2.622 . S
C2863 N2862 1.338 . S
C2863 C2865 1.378 . S
C2863 H2875 0.929 . S
C2864 C2860 1.413 . S
C2864 C2865 1.348 . S
C2864 H2880 0.931 . S
C2865 C2863 1.378 . S
C2865 C2864 1.348 . S
C2865 H2881 0.930 . S
Gd2866 N2886 2.622 . S
Gd2866 N2893 2.570 . S
Gd2866 O2900 2.353 . S
Gd2866 O2901 2.468 . S
Gd2866 O2902 2.427 . S
Gd2866 O2904 2.388 . S
Gd2866 O2905 2.386 . S
Gd2866 O2909 2.307 . S
Gd2866 C2919 2.805 . S
Gd2867 N2862 2.622 . S
Gd2867 N2868 2.570 . S
Gd2867 O2899 2.386 . S
Gd2867 O2903 2.307 . S
Gd2867 O2906 2.353 . S
Gd2867 O2907 2.468 . S
Gd2867 O2908 2.427 . S
Gd2867 O2910 2.388 . S
Gd2867 C2931 2.805 . S
N2868 C2858 1.359 . S
N2868 Gd2867 2.570 . S
N2868 C2870 1.343 . S
C2869 C2857 1.422 . S
C2869 C2871 1.323 1_455 S
C2869 H2877 0.931 . S
C2870 N2868 1.343 . S
C2870 C2871 1.388 . S
C2870 H2872 0.931 . S
C2871 C2869 1.323 1_655 S
C2871 C2870 1.388 . S
C2871 H2873 0.930 1_655 S
H2872 C2870 0.931 . S
H2873 C2871 0.930 1_455 S
H2874 C2897 0.931 . S
H2875 C2863 0.929 . S
H2876 C2898 0.930 . S
H2877 C2869 0.931 . S
H2878 C2859 0.930 . S
H2879 C2888 0.929 . S
H2880 C2864 0.931 . S
H2881 C2865 0.930 . S
H2882 C2920 0.930 . S
H2883 C2861 0.929 . S
H2884 C2889 0.931 . S
H2885 C2890 0.930 . S
N2886 Gd2866 2.622 . S
N2886 C2887 1.369 . S
N2886 C2888 1.338 . S
C2887 N2886 1.369 . S
C2887 C2891 1.415 . S
C2887 C2894 1.422 . S
C2888 H2879 0.929 . S
C2888 N2886 1.338 . S
C2888 C2890 1.378 . S
C2889 H2884 0.931 . S
C2889 C2890 1.348 . S
C2889 C2891 1.413 . S
C2890 H2885 0.930 . S
C2890 C2888 1.378 . S
C2890 C2889 1.348 . S
C2891 C2887 1.415 . S
C2891 C2889 1.413 . S
C2891 C2921 1.437 . S
H2892 C2921 0.929 . S
N2893 Gd2866 2.570 . S
N2893 C2894 1.359 . S
N2893 C2897 1.343 . S
C2894 C2887 1.422 . S
C2894 N2893 1.359 . S
C2894 C2896 1.421 . S
C2895 C2896 1.422 . S
C2895 C2898 1.321 . S
C2895 H2922 0.931 . S
C2896 C2894 1.421 . S
C2896 C2895 1.422 . S
C2896 C2920 1.417 . S
C2897 H2874 0.931 . S
C2897 N2893 1.343 . S
C2897 C2898 1.390 . S
C2898 H2876 0.930 . S
C2898 C2895 1.321 . S
C2898 C2897 1.390 . S
O2899 Gd2867 2.386 . S
O2899 C2911 1.265 . S
O2900 Gd2866 2.353 . S
O2900 C2911 1.242 . S
O2901 Gd2866 2.468 . S
O2901 C2919 1.263 . S
O2902 Gd2866 2.427 . S
O2902 C2919 1.252 . S
O2903 Gd2867 2.307 . S
O2903 C2912 1.261 . S
O2904 Gd2866 2.388 . S
O2904 C2912 1.252 . S
O2905 Gd2866 2.386 . S
O2905 C2923 1.265 . S
O2906 Gd2867 2.353 . S
O2906 C2923 1.242 . S
O2907 Gd2867 2.468 . S
O2907 C2931 1.263 . S
O2908 Gd2867 2.427 . S
O2908 C2931 1.252 . S
O2909 Gd2866 2.307 . S
O2909 C2924 1.261 . S
O2910 Gd2867 2.388 . S
O2910 C2924 1.252 . S
C2911 O2899 1.265 . S
C2911 O2900 1.242 . S
C2912 O2903 1.261 . S
C2912 O2904 1.252 . S
C2913 C2916 1.394 . S
C2913 C2918 1.370 . S
C2913 C2919 1.500 . S
C2914 C2917 1.383 . S
C2914 C2918 1.395 1_565 S
C2915 C2916 1.396 1_565 S
C2915 C2917 1.365 . S
C2915 H2932 0.929 . S
C2916 C2913 1.394 . S
C2916 C2915 1.396 1_545 S
C2916 H2933 0.930 . S
C2917 C2914 1.383 . S
C2917 C2915 1.365 . S
C2917 H2934 0.931 . S
C2918 C2913 1.370 . S
C2918 C2914 1.395 1_545 S
C2918 H2935 0.930 . S
C2919 Gd2866 2.805 . S
C2919 O2901 1.263 . S
C2919 O2902 1.252 . S
C2919 C2913 1.500 . S
C2920 H2882 0.930 . S
C2920 C2896 1.417 . S
C2920 C2921 1.329 . S
C2921 C2891 1.437 . S
C2921 H2892 0.929 . S
C2921 C2920 1.329 . S
H2922 C2895 0.931 . S
C2923 O2905 1.265 . S
C2923 O2906 1.242 . S
C2924 O2909 1.261 . S
C2924 O2910 1.252 . S
C2925 C2928 1.394 . S
C2925 C2930 1.370 . S
C2925 C2931 1.500 . S
C2926 C2929 1.383 . S
C2926 C2930 1.395 . S
C2927 C2928 1.396 . S
C2927 C2929 1.365 . S
C2927 H2936 0.929 . S
C2928 C2925 1.394 . S
C2928 C2927 1.396 . S
C2928 H2937 0.930 . S
C2929 C2926 1.383 . S
C2929 C2927 1.365 . S
C2929 H2938 0.931 . S
C2930 C2925 1.370 . S
C2930 C2926 1.395 . S
C2930 H2939 0.930 . S
C2931 Gd2867 2.805 . S
C2931 O2907 1.263 . S
C2931 O2908 1.252 . S
C2931 C2925 1.500 . S
H2932 C2915 0.929 . S
H2933 C2916 0.930 . S
H2934 C2917 0.931 . S
H2935 C2918 0.930 . S
H2936 C2927 0.929 . S
H2937 C2928 0.930 . S
H2938 C2929 0.931 . S
H2939 C2930 0.930 . S
C2940 C2942 1.422 . S
C2940 C2944 1.415 . S
C2940 N2946 1.369 . S
C2941 C2942 1.421 . S
C2941 C2943 1.417 . S
C2941 C2953 1.422 . S
C2942 C2940 1.422 . S
C2942 C2941 1.421 . S
C2942 N2952 1.359 . S
C2943 C2941 1.417 . S
C2943 C2945 1.329 . S
C2943 H2962 0.930 . S
C2944 C2940 1.415 . S
C2944 C2945 1.437 . S
C2944 C2948 1.413 . S
C2945 C2943 1.329 . S
C2945 C2944 1.437 . S
C2945 H2967 0.929 . S
N2946 C2940 1.369 . S
N2946 C2947 1.338 . S
N2946 Gd2951 2.622 . S
C2947 N2946 1.338 . S
C2947 C2949 1.378 . S
C2947 H2959 0.929 . S
C2948 C2944 1.413 . S
C2948 C2949 1.348 . S
C2948 H2964 0.931 . S
C2949 C2947 1.378 . S
C2949 C2948 1.348 . S
C2949 H2965 0.930 . S
Gd2950 N2970 2.622 . S
Gd2950 N2977 2.570 1_655 S
Gd2950 O2984 2.353 . S
Gd2950 O2985 2.468 1_655 S
Gd2950 O2986 2.427 . S
Gd2950 O2988 2.388 . S
Gd2950 O2989 2.386 . S
Gd2950 O2993 2.307 . S
Gd2950 C3003 2.805 1_655 S
Gd2951 N2946 2.622 . S
Gd2951 N2952 2.570 . S
Gd2951 O2983 2.386 . S
Gd2951 O2987 2.307 . S
Gd2951 O2990 2.353 . S
Gd2951 O2991 2.468 . S
Gd2951 O2992 2.427 . S
Gd2951 O2994 2.388 . S
Gd2951 C3015 2.805 . S
N2952 C2942 1.359 . S
N2952 Gd2951 2.570 . S
N2952 C2954 1.343 . S
C2953 C2941 1.422 . S
C2953 C2955 1.321 . S
C2953 H2961 0.931 . S
C2954 N2952 1.343 . S
C2954 C2955 1.390 . S
C2954 H2956 0.931 . S
C2955 C2953 1.321 . S
C2955 C2954 1.390 . S
C2955 H2957 0.930 . S
H2956 C2954 0.931 . S
H2957 C2955 0.930 . S
H2958 C2981 0.931 . S
H2959 C2947 0.929 . S
H2960 C2982 0.930 . S
H2961 C2953 0.931 . S
H2962 C2943 0.930 . S
H2963 C2972 0.929 . S
H2964 C2948 0.931 . S
H2965 C2949 0.930 . S
H2966 C3004 0.930 . S
H2967 C2945 0.929 . S
H2968 C2973 0.931 1_455 S
H2969 C2974 0.930 . S
N2970 Gd2950 2.622 . S
N2970 C2971 1.350 1_655 S
N2970 C2972 1.338 . S
C2971 N2970 1.350 1_455 S
C2971 C2975 1.426 . S
C2971 C2978 1.430 . S
C2972 H2963 0.929 . S
C2972 N2970 1.338 . S
C2972 C2974 1.378 . S
C2973 H2968 0.931 1_655 S
C2973 C2974 1.348 . S
C2973 C2975 1.413 1_655 S
C2974 H2969 0.930 . S
C2974 C2972 1.378 . S
C2974 C2973 1.348 . S
C2975 C2971 1.426 . S
C2975 C2973 1.413 1_455 S
C2975 C3005 1.437 . S
H2976 C3005 0.929 . S
N2977 Gd2950 2.570 1_455 S
N2977 C2978 1.359 . S
N2977 C2981 1.343 . S
C2978 C2971 1.430 . S
C2978 N2977 1.359 . S
C2978 C2980 1.421 . S
C2979 C2980 1.422 . S
C2979 C2982 1.321 . S
C2979 H3006 0.931 . S
C2980 C2978 1.421 . S
C2980 C2979 1.422 . S
C2980 C3004 1.417 . S
C2981 H2958 0.931 . S
C2981 N2977 1.343 . S
C2981 C2982 1.390 . S
C2982 H2960 0.930 . S
C2982 C2979 1.321 . S
C2982 C2981 1.390 . S
O2983 Gd2951 2.386 . S
O2983 C2995 1.265 . S
O2984 Gd2950 2.353 . S
O2984 C2995 1.242 . S
O2985 Gd2950 2.468 1_455 S
O2985 C3003 1.263 . S
O2986 Gd2950 2.427 . S
O2986 C3003 1.252 1_655 S
O2987 Gd2951 2.307 . S
O2987 C2996 1.261 . S
O2988 Gd2950 2.388 . S
O2988 C2996 1.252 . S
O2989 Gd2950 2.386 . S
O2989 C3007 1.265 . S
O2990 Gd2951 2.353 . S
O2990 C3007 1.242 . S
O2991 Gd2951 2.468 . S
O2991 C3015 1.263 . S
O2992 Gd2951 2.427 . S
O2992 C3015 1.252 . S
O2993 Gd2950 2.307 . S
O2993 C3008 1.261 . S
O2994 Gd2951 2.388 . S
O2994 C3008 1.252 . S
C2995 O2983 1.265 . S
C2995 O2984 1.242 . S
C2996 O2987 1.261 . S
C2996 O2988 1.252 . S
C2997 C3000 1.394 . S
C2997 C3002 1.370 . S
C2997 C3003 1.500 . S
C2998 C3001 1.383 . S
C2998 C3002 1.395 . S
C2999 C3000 1.396 . S
C2999 C3001 1.365 . S
C2999 H3016 0.929 . S
C3000 C2997 1.394 . S
C3000 C2999 1.396 . S
C3000 H3017 0.930 . S
C3001 C2998 1.383 . S
C3001 C2999 1.365 . S
C3001 H3018 0.931 . S
C3002 C2997 1.370 . S
C3002 C2998 1.395 . S
C3002 H3019 0.930 . S
C3003 Gd2950 2.805 1_455 S
C3003 O2985 1.263 . S
C3003 O2986 1.252 1_455 S
C3003 C2997 1.500 . S
C3004 H2966 0.930 . S
C3004 C2980 1.417 . S
C3004 C3005 1.329 . S
C3005 C2975 1.437 . S
C3005 H2976 0.929 . S
C3005 C3004 1.329 . S
H3006 C2979 0.931 . S
C3007 O2989 1.265 . S
C3007 O2990 1.242 . S
C3008 O2993 1.261 . S
C3008 O2994 1.252 . S
C3009 C3012 1.394 . S
C3009 C3014 1.370 . S
C3009 C3015 1.500 . S
C3010 C3013 1.383 . S
C3010 C3014 1.395 . S
C3011 C3012 1.396 . S
C3011 C3013 1.365 . S
C3011 H3020 0.929 . S
C3012 C3009 1.394 . S
C3012 C3011 1.396 . S
C3012 H3021 0.930 . S
C3013 C3010 1.383 . S
C3013 C3011 1.365 . S
C3013 H3022 0.931 . S
C3014 C3009 1.370 . S
C3014 C3010 1.395 . S
C3014 H3023 0.930 . S
C3015 Gd2951 2.805 . S
C3015 O2991 1.263 . S
C3015 O2992 1.252 . S
C3015 C3009 1.500 . S
H3016 C2999 0.929 . S
H3017 C3000 0.930 . S
H3018 C3001 0.931 . S
H3019 C3002 0.930 . S
H3020 C3011 0.929 . S
H3021 C3012 0.930 . S
H3022 C3013 0.931 . S
H3023 C3014 0.930 . S
H3024 C3032 0.950 . S
H3025 C3037 0.950 . S
H3026 C3034 0.950 . S
H3027 C3036 0.950 . S
H3028 C3038 0.950 . S
H3029 C3040 0.950 . S
H3030 C3042 0.950 . S
H3031 C3043 0.950 . S
C3032 H3024 0.950 . S
C3032 C3033 1.386 . S
C3032 C3034 1.391 . S
C3033 C3032 1.386 . S
C3033 C3037 1.393 . S
C3034 H3026 0.950 . S
C3034 C3032 1.391 . S
C3034 C3035 1.400 . S
C3035 C3034 1.400 . S
C3035 C3036 1.398 . S
C3035 C3041 1.491 . S
C3036 H3027 0.950 . S
C3036 C3035 1.398 . S
C3036 C3037 1.391 . S
C3037 H3025 0.950 . S
C3037 C3033 1.393 . S
C3037 C3036 1.391 . S
C3038 H3028 0.950 . S
C3038 C3039 1.386 . S
C3038 C3040 1.391 . S
C3039 C3038 1.386 . S
C3039 C3043 1.393 . S
C3040 H3029 0.950 . S
C3040 C3038 1.391 . S
C3040 C3041 1.400 . S
C3041 C3035 1.491 . S
C3041 C3040 1.400 . S
C3041 C3042 1.398 . S
C3042 H3030 0.950 . S
C3042 C3041 1.398 . S
C3042 C3043 1.391 . S
C3043 H3031 0.950 . S
C3043 C3039 1.393 . S
C3043 C3042 1.391 . S
H3044 C3052 0.950 . S
H3045 C3057 0.950 . S
H3046 C3054 0.950 . S
H3047 C3056 0.950 . S
H3048 C3058 0.950 . S
H3049 C3060 0.950 1_455 S
H3050 C3062 0.950 . S
H3051 C3063 0.950 . S
C3052 H3044 0.950 . S
C3052 C3053 1.386 . S
C3052 C3054 1.391 . S
C3053 C3052 1.386 . S
C3053 C3057 1.393 . S
C3054 H3046 0.950 . S
C3054 C3052 1.391 . S
C3054 C3055 1.400 . S
C3055 C3054 1.400 . S
C3055 C3056 1.398 . S
C3055 C3061 1.491 . S
C3056 H3047 0.950 . S
C3056 C3055 1.398 . S
C3056 C3057 1.391 . S
C3057 H3045 0.950 . S
C3057 C3053 1.393 . S
C3057 C3056 1.391 . S
C3058 H3048 0.950 . S
C3058 C3059 1.386 1_455 S
C3058 C3060 1.391 1_455 S
C3059 C3058 1.386 1_655 S
C3059 C3063 1.393 . S
C3060 H3049 0.950 1_655 S
C3060 C3058 1.391 1_655 S
C3060 C3061 1.400 . S
C3061 C3055 1.491 . S
C3061 C3060 1.400 . S
C3061 C3062 1.398 . S
C3062 H3050 0.950 . S
C3062 C3061 1.398 . S
C3062 C3063 1.391 . S
C3063 H3051 0.950 . S
C3063 C3059 1.393 . S
C3063 C3062 1.391 . S
H3064 C3072 0.950 . S
H3065 C3077 0.950 . S
H3066 C3074 0.950 . S
H3067 C3076 0.950 . S
H3068 C3078 0.950 . S
H3069 C3080 0.950 . S
H3070 C3082 0.950 . S
H3071 C3083 0.950 . S
C3072 H3064 0.950 . S
C3072 C3073 1.386 . S
C3072 C3074 1.391 . S
C3073 C3072 1.386 . S
C3073 C3077 1.393 . S
C3074 H3066 0.950 . S
C3074 C3072 1.391 . S
C3074 C3075 1.400 . S
C3075 C3074 1.400 . S
C3075 C3076 1.398 . S
C3075 C3081 1.491 . S
C3076 H3067 0.950 . S
C3076 C3075 1.398 . S
C3076 C3077 1.391 . S
C3077 H3065 0.950 . S
C3077 C3073 1.393 . S
C3077 C3076 1.391 . S
C3078 H3068 0.950 . S
C3078 C3079 1.386 . S
C3078 C3080 1.391 . S
C3079 C3078 1.386 . S
C3079 C3083 1.393 . S
C3080 H3069 0.950 . S
C3080 C3078 1.391 . S
C3080 C3081 1.400 . S
C3081 C3075 1.491 . S
C3081 C3080 1.400 . S
C3081 C3082 1.398 . S
C3082 H3070 0.950 . S
C3082 C3081 1.398 . S
C3082 C3083 1.391 . S
C3083 H3071 0.950 . S
C3083 C3079 1.393 . S
C3083 C3082 1.391 . S
H3084 C3092 0.950 . S
H3085 C3097 0.950 . S
H3086 C3094 0.950 . S
H3087 C3096 0.950 . S
H3088 C3098 0.950 . S
H3089 C3100 0.950 . S
H3090 C3102 0.950 . S
H3091 C3103 0.950 . S
C3092 H3084 0.950 . S
C3092 C3093 1.386 . S
C3092 C3094 1.391 . S
C3093 C3092 1.386 . S
C3093 C3097 1.393 . S
C3094 H3086 0.950 . S
C3094 C3092 1.391 . S
C3094 C3095 1.400 . S
C3095 C3094 1.400 . S
C3095 C3096 1.398 . S
C3095 C3101 1.491 . S
C3096 H3087 0.950 . S
C3096 C3095 1.398 . S
C3096 C3097 1.391 . S
C3097 H3085 0.950 . S
C3097 C3093 1.393 . S
C3097 C3096 1.391 . S
C3098 H3088 0.950 . S
C3098 C3099 1.386 . S
C3098 C3100 1.391 . S
C3099 C3098 1.386 . S
C3099 C3103 1.393 . S
C3100 H3089 0.950 . S
C3100 C3098 1.391 . S
C3100 C3101 1.400 . S
C3101 C3095 1.491 . S
C3101 C3100 1.400 . S
C3101 C3102 1.398 . S
C3102 H3090 0.950 . S
C3102 C3101 1.398 . S
C3102 C3103 1.391 . S
C3103 H3091 0.950 . S
C3103 C3099 1.393 . S
C3103 C3102 1.391 . S
H3104 C3112 0.950 . S
H3105 C3117 0.950 . S
H3106 C3114 0.950 . S
H3107 C3116 0.950 . S
H3108 C3118 0.950 . S
H3109 C3120 0.950 . S
H3110 C3122 0.950 . S
H3111 C3123 0.950 . S
C3112 H3104 0.950 . S
C3112 C3113 1.386 . S
C3112 C3114 1.391 . S
C3113 C3112 1.386 . S
C3113 C3117 1.393 . S
C3114 H3106 0.950 . S
C3114 C3112 1.391 . S
C3114 C3115 1.400 . S
C3115 C3114 1.400 . S
C3115 C3116 1.398 . S
C3115 C3121 1.491 . S
C3116 H3107 0.950 . S
C3116 C3115 1.398 . S
C3116 C3117 1.391 . S
C3117 H3105 0.950 . S
C3117 C3113 1.393 . S
C3117 C3116 1.391 . S
C3118 H3108 0.950 . S
C3118 C3119 1.386 . S
C3118 C3120 1.391 . S
C3119 C3118 1.386 . S
C3119 C3123 1.393 . S
C3120 H3109 0.950 . S
C3120 C3118 1.391 . S
C3120 C3121 1.400 . S
C3121 C3115 1.491 . S
C3121 C3120 1.400 . S
C3121 C3122 1.398 . S
C3122 H3110 0.950 . S
C3122 C3121 1.398 . S
C3122 C3123 1.391 . S
C3123 H3111 0.950 . S
C3123 C3119 1.393 . S
C3123 C3122 1.391 . S
H3124 C3132 0.950 . S
H3125 C3137 0.950 . S
H3126 C3134 0.950 . S
H3127 C3136 0.950 . S
H3128 C3138 0.950 . S
H3129 C3140 0.950 . S
H3130 C3142 0.947 1_545 S
H3131 C3143 0.950 . S
C3132 H3124 0.950 . S
C3132 C3133 1.386 . S
C3132 C3134 1.391 . S
C3133 C3132 1.386 . S
C3133 C3137 1.393 . S
C3134 H3126 0.950 . S
C3134 C3132 1.391 . S
C3134 C3135 1.400 . S
C3135 C3134 1.400 . S
C3135 C3136 1.398 . S
C3135 C3141 1.491 . S
C3136 H3127 0.950 . S
C3136 C3135 1.398 . S
C3136 C3137 1.391 . S
C3137 H3125 0.950 . S
C3137 C3133 1.393 . S
C3137 C3136 1.391 . S
C3138 H3128 0.950 . S
C3138 C3139 1.386 . S
C3138 C3140 1.391 . S
C3139 C3138 1.386 . S
C3139 C3143 1.393 1_565 S
C3140 H3129 0.950 . S
C3140 C3138 1.391 . S
C3140 C3141 1.400 . S
C3141 C3135 1.491 . S
C3141 C3140 1.400 . S
C3141 C3142 1.398 . S
C3142 H3130 0.947 1_565 S
C3142 C3141 1.398 . S
C3142 C3143 1.391 1_565 S
C3143 H3131 0.950 . S
C3143 C3139 1.393 1_545 S
C3143 C3142 1.391 1_545 S
H3144 C3152 0.950 . S
H3145 C3157 0.950 . S
H3146 C3154 0.950 . S
H3147 C3156 0.950 . S
H3148 C3158 0.950 . S
H3149 C3160 0.950 . S
H3150 C3162 0.950 . S
H3151 C3163 0.950 . S
C3152 H3144 0.950 . S
C3152 C3153 1.386 . S
C3152 C3154 1.391 . S
C3153 C3152 1.386 . S
C3153 C3157 1.393 . S
C3154 H3146 0.950 . S
C3154 C3152 1.391 . S
C3154 C3155 1.400 . S
C3155 C3154 1.400 . S
C3155 C3156 1.398 . S
C3155 C3161 1.491 . S
C3156 H3147 0.950 . S
C3156 C3155 1.398 . S
C3156 C3157 1.391 . S
C3157 H3145 0.950 . S
C3157 C3153 1.393 . S
C3157 C3156 1.391 . S
C3158 H3148 0.950 . S
C3158 C3159 1.386 . S
C3158 C3160 1.391 . S
C3159 C3158 1.386 . S
C3159 C3163 1.393 . S
C3160 H3149 0.950 . S
C3160 C3158 1.391 . S
C3160 C3161 1.400 . S
C3161 C3155 1.491 . S
C3161 C3160 1.400 . S
C3161 C3162 1.398 . S
C3162 H3150 0.950 . S
C3162 C3161 1.398 . S
C3162 C3163 1.391 . S
C3163 H3151 0.950 . S
C3163 C3159 1.393 . S
C3163 C3162 1.391 . S
H3164 C3172 0.950 . S
H3165 C3177 0.950 . S
H3166 C3174 0.950 . S
H3167 C3176 0.950 . S
H3168 C3178 0.950 . S
H3169 C3180 0.950 . S
H3170 C3182 0.950 . S
H3171 C3183 0.950 . S
C3172 H3164 0.950 . S
C3172 C3173 1.386 . S
C3172 C3174 1.391 . S
C3173 C3172 1.386 . S
C3173 C3177 1.393 . S
C3174 H3166 0.950 . S
C3174 C3172 1.391 . S
C3174 C3175 1.400 . S
C3175 C3174 1.400 . S
C3175 C3176 1.398 . S
C3175 C3181 1.491 . S
C3176 H3167 0.950 . S
C3176 C3175 1.398 . S
C3176 C3177 1.391 . S
C3177 H3165 0.950 . S
C3177 C3173 1.393 . S
C3177 C3176 1.391 . S
C3178 H3168 0.950 . S
C3178 C3179 1.386 . S
C3178 C3180 1.391 . S
C3179 C3178 1.386 . S
C3179 C3183 1.393 . S
C3180 H3169 0.950 . S
C3180 C3178 1.391 . S
C3180 C3181 1.400 . S
C3181 C3175 1.491 . S
C3181 C3180 1.400 . S
C3181 C3182 1.398 . S
C3182 H3170 0.950 . S
C3182 C3181 1.398 . S
C3182 C3183 1.391 . S
C3183 H3171 0.950 . S
C3183 C3179 1.393 . S
C3183 C3182 1.391 . S
H3184 C3192 0.950 . S
H3185 C3197 0.950 . S
H3186 C3194 0.950 . S
H3187 C3196 0.950 . S
H3188 C3198 0.950 . S
H3189 C3200 0.950 . S
H3190 C3202 0.950 . S
H3191 C3203 0.950 . S
C3192 H3184 0.950 . S
C3192 C3193 1.386 . S
C3192 C3194 1.391 . S
C3193 C3192 1.386 . S
C3193 C3197 1.393 . S
C3194 H3186 0.950 . S
C3194 C3192 1.391 . S
C3194 C3195 1.400 . S
C3195 C3194 1.400 . S
C3195 C3196 1.398 . S
C3195 C3201 1.491 . S
C3196 H3187 0.950 . S
C3196 C3195 1.398 . S
C3196 C3197 1.391 . S
C3197 H3185 0.950 . S
C3197 C3193 1.393 . S
C3197 C3196 1.391 . S
C3198 H3188 0.950 . S
C3198 C3199 1.386 . S
C3198 C3200 1.391 . S
C3199 C3198 1.386 . S
C3199 C3203 1.393 . S
C3200 H3189 0.950 . S
C3200 C3198 1.391 . S
C3200 C3201 1.400 . S
C3201 C3195 1.491 . S
C3201 C3200 1.400 . S
C3201 C3202 1.398 . S
C3202 H3190 0.950 . S
C3202 C3201 1.398 . S
C3202 C3203 1.391 . S
C3203 H3191 0.950 . S
C3203 C3199 1.393 . S
C3203 C3202 1.391 . S
H3204 C3212 0.950 . S
H3205 C3217 0.950 . S
H3206 C3214 0.950 . S
H3207 C3216 0.950 . S
H3208 C3218 0.950 1_455 S
H3209 C3220 0.950 . S
H3210 C3222 0.950 . S
H3211 C3223 0.950 . S
C3212 H3204 0.950 . S
C3212 C3213 1.386 . S
C3212 C3214 1.391 . S
C3213 C3212 1.386 . S
C3213 C3217 1.393 . S
C3214 H3206 0.950 . S
C3214 C3212 1.391 . S
C3214 C3215 1.400 . S
C3215 C3214 1.400 . S
C3215 C3216 1.398 . S
C3215 C3221 1.491 . S
C3216 H3207 0.950 . S
C3216 C3215 1.398 . S
C3216 C3217 1.391 . S
C3217 H3205 0.950 . S
C3217 C3213 1.393 . S
C3217 C3216 1.391 . S
C3218 H3208 0.950 1_655 S
C3218 C3219 1.386 . S
C3218 C3220 1.391 . S
C3219 C3218 1.386 . S
C3219 C3223 1.393 . S
C3220 H3209 0.950 . S
C3220 C3218 1.391 . S
C3220 C3221 1.400 . S
C3221 C3215 1.491 . S
C3221 C3220 1.400 . S
C3221 C3222 1.398 . S
C3222 H3210 0.950 . S
C3222 C3221 1.398 . S
C3222 C3223 1.391 . S
C3223 H3211 0.950 . S
C3223 C3219 1.393 . S
C3223 C3222 1.391 . S
H3224 C3232 0.950 . S
H3225 C3237 0.950 . S
H3226 C3234 0.950 . S
H3227 C3236 0.950 . S
H3228 C3238 0.950 . S
H3229 C3240 0.950 . S
H3230 C3242 0.950 . S
H3231 C3243 0.950 . S
C3232 H3224 0.950 . S
C3232 C3233 1.386 . S
C3232 C3234 1.391 . S
C3233 C3232 1.386 . S
C3233 C3237 1.393 . S
C3234 H3226 0.950 . S
C3234 C3232 1.391 . S
C3234 C3235 1.400 . S
C3235 C3234 1.400 . S
C3235 C3236 1.398 . S
C3235 C3241 1.491 . S
C3236 H3227 0.950 . S
C3236 C3235 1.398 . S
C3236 C3237 1.391 . S
C3237 H3225 0.950 . S
C3237 C3233 1.393 . S
C3237 C3236 1.391 . S
C3238 H3228 0.950 . S
C3238 C3239 1.386 . S
C3238 C3240 1.391 . S
C3239 C3238 1.386 . S
C3239 C3243 1.393 . S
C3240 H3229 0.950 . S
C3240 C3238 1.391 . S
C3240 C3241 1.400 . S
C3241 C3235 1.491 . S
C3241 C3240 1.400 . S
C3241 C3242 1.398 . S
C3242 H3230 0.950 . S
C3242 C3241 1.398 . S
C3242 C3243 1.391 . S
C3243 H3231 0.950 . S
C3243 C3239 1.393 . S
C3243 C3242 1.391 . S
H3244 C3252 0.950 . S
H3245 C3257 0.950 . S
H3246 C3254 0.950 . S
H3247 C3256 0.950 . S
H3248 C3258 0.950 . S
H3249 C3260 0.950 . S
H3250 C3262 0.950 . S
H3251 C3263 0.950 . S
C3252 H3244 0.950 . S
C3252 C3253 1.386 . S
C3252 C3254 1.391 . S
C3253 C3252 1.386 . S
C3253 C3257 1.393 . S
C3254 H3246 0.950 . S
C3254 C3252 1.391 . S
C3254 C3255 1.400 . S
C3255 C3254 1.400 . S
C3255 C3256 1.398 . S
C3255 C3261 1.491 . S
C3256 H3247 0.950 . S
C3256 C3255 1.398 . S
C3256 C3257 1.391 . S
C3257 H3245 0.950 . S
C3257 C3253 1.393 . S
C3257 C3256 1.391 . S
C3258 H3248 0.950 . S
C3258 C3259 1.386 . S
C3258 C3260 1.391 . S
C3259 C3258 1.386 . S
C3259 C3263 1.393 . S
C3260 H3249 0.950 . S
C3260 C3258 1.391 . S
C3260 C3261 1.400 . S
C3261 C3255 1.491 . S
C3261 C3260 1.400 . S
C3261 C3262 1.398 . S
C3262 H3250 0.950 . S
C3262 C3261 1.398 . S
C3262 C3263 1.391 . S
C3263 H3251 0.950 . S
C3263 C3259 1.393 . S
C3263 C3262 1.391 . S
H3264 C3272 0.950 . S
H3265 C3277 0.950 . S
H3266 C3274 0.950 . S
H3267 C3276 0.950 . S
H3268 C3278 0.950 . S
H3269 C3280 0.950 . S
H3270 C3282 0.950 . S
H3271 C3283 0.950 . S
C3272 H3264 0.950 . S
C3272 C3273 1.386 . S
C3272 C3274 1.391 . S
C3273 C3272 1.386 . S
C3273 C3277 1.393 . S
C3274 H3266 0.950 . S
C3274 C3272 1.391 . S
C3274 C3275 1.400 . S
C3275 C3274 1.400 . S
C3275 C3276 1.398 . S
C3275 C3281 1.491 . S
C3276 H3267 0.950 . S
C3276 C3275 1.398 . S
C3276 C3277 1.391 . S
C3277 H3265 0.950 . S
C3277 C3273 1.393 . S
C3277 C3276 1.391 . S
C3278 H3268 0.950 . S
C3278 C3279 1.386 . S
C3278 C3280 1.391 . S
C3279 C3278 1.386 . S
C3279 C3283 1.393 . S
C3280 H3269 0.950 . S
C3280 C3278 1.391 . S
C3280 C3281 1.400 . S
C3281 C3275 1.491 . S
C3281 C3280 1.400 . S
C3281 C3282 1.398 . S
C3282 H3270 0.950 . S
C3282 C3281 1.398 . S
C3282 C3283 1.391 . S
C3283 H3271 0.950 . S
C3283 C3279 1.393 . S
C3283 C3282 1.391 . S
H3284 C3292 0.950 . S
H3285 C3297 0.950 . S
H3286 C3294 0.950 . S
H3287 C3296 0.950 . S
H3288 C3298 0.950 . S
H3289 C3300 0.950 . S
H3290 C3302 0.950 . S
H3291 C3303 0.950 . S
C3292 H3284 0.950 . S
C3292 C3293 1.386 . S
C3292 C3294 1.391 1_565 S
C3293 C3292 1.386 . S
C3293 C3297 1.393 . S
C3294 H3286 0.950 . S
C3294 C3292 1.391 1_545 S
C3294 C3295 1.400 . S
C3295 C3294 1.400 . S
C3295 C3296 1.398 1_545 S
C3295 C3301 1.491 . S
C3296 H3287 0.950 . S
C3296 C3295 1.398 1_565 S
C3296 C3297 1.391 . S
C3297 H3285 0.950 . S
C3297 C3293 1.393 . S
C3297 C3296 1.391 . S
C3298 H3288 0.950 . S
C3298 C3299 1.386 . S
C3298 C3300 1.391 . S
C3299 C3298 1.386 . S
C3299 C3303 1.393 . S
C3300 H3289 0.950 . S
C3300 C3298 1.391 . S
C3300 C3301 1.400 . S
C3301 C3295 1.491 . S
C3301 C3300 1.400 . S
C3301 C3302 1.398 . S
C3302 H3290 0.950 . S
C3302 C3301 1.398 . S
C3302 C3303 1.391 . S
C3303 H3291 0.950 . S
C3303 C3299 1.393 . S
C3303 C3302 1.391 . S
H3304 C3312 0.950 . S
H3305 C3317 0.950 . S
H3306 C3314 0.950 . S
H3307 C3316 0.950 . S
H3308 C3318 0.950 . S
H3309 C3320 0.950 . S
H3310 C3322 0.950 . S
H3311 C3323 0.950 . S
C3312 H3304 0.950 . S
C3312 C3313 1.386 . S
C3312 C3314 1.391 1_655 S
C3313 C3312 1.386 . S
C3313 C3317 1.393 . S
C3314 H3306 0.950 . S
C3314 C3312 1.391 1_455 S
C3314 C3315 1.400 . S
C3315 C3314 1.400 . S
C3315 C3316 1.398 1_455 S
C3315 C3321 1.491 . S
C3316 H3307 0.950 . S
C3316 C3315 1.398 1_655 S
C3316 C3317 1.391 . S
C3317 H3305 0.950 . S
C3317 C3313 1.393 . S
C3317 C3316 1.391 . S
C3318 H3308 0.950 . S
C3318 C3319 1.386 . S
C3318 C3320 1.391 . S
C3319 C3318 1.386 . S
C3319 C3323 1.393 . S
C3320 H3309 0.950 . S
C3320 C3318 1.391 . S
C3320 C3321 1.400 . S
C3321 C3315 1.491 . S
C3321 C3320 1.400 . S
C3321 C3322 1.398 . S
C3322 H3310 0.950 . S
C3322 C3321 1.398 . S
C3322 C3323 1.391 . S
C3323 H3311 0.950 . S
C3323 C3319 1.393 . S
C3323 C3322 1.391 . S
H3324 C3332 0.950 . S
H3325 C3337 0.950 . S
H3326 C3334 0.950 . S
H3327 C3336 0.950 . S
H3328 C3338 0.950 . S
H3329 C3340 0.950 . S
H3330 C3342 0.950 . S
H3331 C3343 0.950 . S
C3332 H3324 0.950 . S
C3332 C3333 1.386 . S
C3332 C3334 1.391 . S
C3333 C3332 1.386 . S
C3333 C3337 1.393 . S
C3334 H3326 0.950 . S
C3334 C3332 1.391 . S
C3334 C3335 1.400 . S
C3335 C3334 1.400 . S
C3335 C3336 1.398 . S
C3335 C3341 1.491 . S
C3336 H3327 0.950 . S
C3336 C3335 1.398 . S
C3336 C3337 1.391 . S
C3337 H3325 0.950 . S
C3337 C3333 1.393 . S
C3337 C3336 1.391 . S
C3338 H3328 0.950 . S
C3338 C3339 1.386 . S
C3338 C3340 1.391 . S
C3339 C3338 1.386 . S
C3339 C3343 1.393 . S
C3340 H3329 0.950 . S
C3340 C3338 1.391 . S
C3340 C3341 1.400 . S
C3341 C3335 1.491 . S
C3341 C3340 1.400 . S
C3341 C3342 1.398 . S
C3342 H3330 0.950 . S
C3342 C3341 1.398 . S
C3342 C3343 1.391 . S
C3343 H3331 0.950 . S
C3343 C3339 1.393 . S
C3343 C3342 1.391 . S
H3344 C3352 0.950 . S
H3345 C3357 0.950 . S
H3346 C3354 0.950 . S
H3347 C3356 0.947 1_545 S
H3348 C3358 0.950 . S
H3349 C3360 0.950 . S
H3350 C3362 0.950 . S
H3351 C3363 0.950 . S
C3352 H3344 0.950 . S
C3352 C3353 1.386 . S
C3352 C3354 1.391 1_565 S
C3353 C3352 1.386 . S
C3353 C3357 1.393 . S
C3354 H3346 0.950 . S
C3354 C3352 1.391 1_545 S
C3354 C3355 1.400 . S
C3355 C3354 1.400 . S
C3355 C3356 1.398 1_545 S
C3355 C3361 1.491 . S
C3356 H3347 0.947 1_565 S
C3356 C3355 1.398 1_565 S
C3356 C3357 1.391 . S
C3357 H3345 0.950 . S
C3357 C3353 1.393 . S
C3357 C3356 1.391 . S
C3358 H3348 0.950 . S
C3358 C3359 1.386 . S
C3358 C3360 1.391 . S
C3359 C3358 1.386 . S
C3359 C3363 1.393 . S
C3360 H3349 0.950 . S
C3360 C3358 1.391 . S
C3360 C3361 1.400 . S
C3361 C3355 1.491 . S
C3361 C3360 1.400 . S
C3361 C3362 1.398 . S
C3362 H3350 0.950 . S
C3362 C3361 1.398 . S
C3362 C3363 1.391 . S
C3363 H3351 0.950 . S
C3363 C3359 1.393 . S
C3363 C3362 1.391 . S
H3364 C3372 0.950 . S
H3365 C3377 0.950 . S
H3366 C3374 0.950 . S
H3367 C3376 0.950 . S
H3368 C3378 0.950 . S
H3369 C3380 0.950 . S
H3370 C3382 0.950 . S
H3371 C3383 0.950 . S
C3372 H3364 0.950 . S
C3372 C3373 1.386 . S
C3372 C3374 1.391 1_655 S
C3373 C3372 1.386 . S
C3373 C3377 1.393 . S
C3374 H3366 0.950 . S
C3374 C3372 1.391 1_455 S
C3374 C3375 1.400 . S
C3375 C3374 1.400 . S
C3375 C3376 1.398 1_455 S
C3375 C3381 1.491 . S
C3376 H3367 0.950 . S
C3376 C3375 1.398 1_655 S
C3376 C3377 1.391 . S
C3377 H3365 0.950 . S
C3377 C3373 1.393 . S
C3377 C3376 1.391 . S
C3378 H3368 0.950 . S
C3378 C3379 1.386 . S
C3378 C3380 1.391 . S
C3379 C3378 1.386 . S
C3379 C3383 1.393 . S
C3380 H3369 0.950 . S
C3380 C3378 1.391 . S
C3380 C3381 1.400 . S
C3381 C3375 1.491 . S
C3381 C3380 1.400 . S
C3381 C3382 1.398 . S
C3382 H3370 0.950 . S
C3382 C3381 1.398 . S
C3382 C3383 1.391 . S
C3383 H3371 0.950 . S
C3383 C3379 1.393 . S
C3383 C3382 1.391 . S
H3384 C3392 0.968 . S
H3385 C3397 0.950 . S
H3386 C3394 0.950 . S
H3387 C3396 0.950 . S
H3388 C3398 0.950 . S
H3389 C3400 0.950 . S
H3390 C3402 0.950 . S
H3391 C3403 0.950 . S
C3392 H3384 0.968 . S
C3392 C3393 1.386 . S
C3392 C3394 1.391 . S
C3393 C3392 1.386 . S
C3393 C3397 1.393 . S
C3394 H3386 0.950 . S
C3394 C3392 1.391 . S
C3394 C3395 1.400 . S
C3395 C3394 1.400 . S
C3395 C3396 1.398 . S
C3395 C3401 1.491 1_554 S
C3396 H3387 0.950 . S
C3396 C3395 1.398 . S
C3396 C3397 1.391 . S
C3397 H3385 0.950 . S
C3397 C3393 1.393 . S
C3397 C3396 1.391 . S
C3398 H3388 0.950 . S
C3398 C3399 1.386 . S
C3398 C3400 1.391 . S
C3399 C3398 1.386 . S
C3399 C3403 1.393 . S
C3400 H3389 0.950 . S
C3400 C3398 1.391 . S
C3400 C3401 1.400 . S
C3401 C3395 1.491 1_556 S
C3401 C3400 1.400 . S
C3401 C3402 1.398 . S
C3402 H3390 0.950 . S
C3402 C3401 1.398 . S
C3402 C3403 1.391 . S
C3403 H3391 0.950 . S
C3403 C3399 1.393 . S
C3403 C3402 1.391 . S
H3404 C3412 0.950 . S
H3405 C3417 0.950 . S
H3406 C3414 0.950 . S
H3407 C3416 0.950 . S
H3408 C3418 0.950 . S
H3409 C3420 0.950 . S
H3410 C3422 0.950 . S
H3411 C3423 0.950 . S
C3412 H3404 0.950 . S
C3412 C3413 1.386 . S
C3412 C3414 1.391 . S
C3413 C3412 1.386 . S
C3413 C3417 1.393 . S
C3414 H3406 0.950 . S
C3414 C3412 1.391 . S
C3414 C3415 1.400 . S
C3415 C3414 1.400 . S
C3415 C3416 1.398 . S
C3415 C3421 1.491 1_556 S
C3416 H3407 0.950 . S
C3416 C3415 1.398 . S
C3416 C3417 1.391 . S
C3417 H3405 0.950 . S
C3417 C3413 1.393 . S
C3417 C3416 1.391 . S
C3418 H3408 0.950 . S
C3418 C3419 1.386 . S
C3418 C3420 1.391 . S
C3419 C3418 1.386 . S
C3419 C3423 1.393 . S
C3420 H3409 0.950 . S
C3420 C3418 1.391 . S
C3420 C3421 1.400 . S
C3421 C3415 1.491 1_554 S
C3421 C3420 1.400 . S
C3421 C3422 1.398 . S
C3422 H3410 0.950 . S
C3422 C3421 1.398 . S
C3422 C3423 1.391 . S
C3423 H3411 0.950 . S
C3423 C3419 1.393 . S
C3423 C3422 1.391 . S
H3424 C3432 0.950 . S
H3425 C3437 0.950 . S
H3426 C3434 0.950 . S
H3427 C3436 0.950 . S
H3428 C3438 0.950 . S
H3429 C3440 0.950 . S
H3430 C3442 0.950 . S
H3431 C3443 0.950 . S
C3432 H3424 0.950 . S
C3432 C3433 1.386 . S
C3432 C3434 1.391 . S
C3433 C3432 1.386 . S
C3433 C3437 1.393 . S
C3434 H3426 0.950 . S
C3434 C3432 1.391 . S
C3434 C3435 1.400 . S
C3435 C3434 1.400 . S
C3435 C3436 1.398 . S
C3435 C3441 1.491 1_554 S
C3436 H3427 0.950 . S
C3436 C3435 1.398 . S
C3436 C3437 1.391 . S
C3437 H3425 0.950 . S
C3437 C3433 1.393 . S
C3437 C3436 1.391 . S
C3438 H3428 0.950 . S
C3438 C3439 1.386 . S
C3438 C3440 1.391 . S
C3439 C3438 1.386 . S
C3439 C3443 1.393 . S
C3440 H3429 0.950 . S
C3440 C3438 1.391 . S
C3440 C3441 1.400 . S
C3441 C3435 1.491 1_556 S
C3441 C3440 1.400 . S
C3441 C3442 1.398 . S
C3442 H3430 0.950 . S
C3442 C3441 1.398 . S
C3442 C3443 1.391 . S
C3443 H3431 0.950 . S
C3443 C3439 1.393 . S
C3443 C3442 1.391 . S
H3444 C3452 0.950 . S
H3445 C3457 0.950 1_655 S
H3446 C3454 0.950 . S
H3447 C3456 0.950 1_655 S
H3448 C3458 0.957 . S
H3449 C3460 0.950 1_655 S
H3450 C3462 0.950 . S
H3451 C3463 0.950 . S
C3452 H3444 0.950 . S
C3452 C3453 1.386 . S
C3452 C3454 1.391 . S
C3453 C3452 1.386 . S
C3453 C3457 1.393 . S
C3454 H3446 0.950 . S
C3454 C3452 1.391 . S
C3454 C3455 1.400 . S
C3455 C3454 1.400 . S
C3455 C3456 1.398 . S
C3455 C3461 1.491 . S
C3456 H3447 0.950 1_455 S
C3456 C3455 1.398 . S
C3456 C3457 1.391 . S
C3457 H3445 0.950 1_455 S
C3457 C3453 1.393 . S
C3457 C3456 1.391 . S
C3458 H3448 0.957 . S
C3458 C3459 1.380 1_655 S
C3458 C3460 1.390 1_655 S
C3459 C3458 1.380 1_455 S
C3459 C3463 1.393 . S
C3460 H3449 0.950 1_455 S
C3460 C3458 1.390 1_455 S
C3460 C3461 1.400 . S
C3461 C3455 1.491 . S
C3461 C3460 1.400 . S
C3461 C3462 1.398 . S
C3462 H3450 0.950 . S
C3462 C3461 1.398 . S
C3462 C3463 1.391 . S
C3463 H3451 0.950 . S
C3463 C3459 1.393 . S
C3463 C3462 1.391 . S
H3464 C3472 0.950 . S
H3465 C3477 0.950 . S
H3466 C3474 0.950 . S
H3467 C3476 0.950 . S
H3468 C3478 0.950 . S
H3469 C3480 0.950 . S
H3470 C3482 0.950 . S
H3471 C3483 0.950 . S
C3472 H3464 0.950 . S
C3472 C3473 1.386 . S
C3472 C3474 1.391 . S
C3473 C3472 1.386 . S
C3473 C3477 1.393 . S
C3474 H3466 0.950 . S
C3474 C3472 1.391 . S
C3474 C3475 1.400 . S
C3475 C3474 1.400 . S
C3475 C3476 1.398 . S
C3475 C3481 1.491 . S
C3476 H3467 0.950 . S
C3476 C3475 1.398 . S
C3476 C3477 1.391 . S
C3477 H3465 0.950 . S
C3477 C3473 1.393 . S
C3477 C3476 1.391 . S
C3478 H3468 0.950 . S
C3478 C3479 1.386 . S
C3478 C3480 1.391 . S
C3479 C3478 1.386 . S
C3479 C3483 1.393 . S
C3480 H3469 0.950 . S
C3480 C3478 1.391 . S
C3480 C3481 1.400 . S
C3481 C3475 1.491 . S
C3481 C3480 1.400 . S
C3481 C3482 1.398 . S
C3482 H3470 0.950 . S
C3482 C3481 1.398 . S
C3482 C3483 1.391 . S
C3483 H3471 0.950 . S
C3483 C3479 1.393 . S
C3483 C3482 1.391 . S
H3484 C3492 0.950 . S
H3485 C3497 0.950 . S
H3486 C3494 0.950 . S
H3487 C3496 0.950 . S
H3488 C3498 0.950 . S
H3489 C3500 0.950 . S
H3490 C3502 0.950 . S
H3491 C3503 0.950 . S
C3492 H3484 0.950 . S
C3492 C3493 1.386 . S
C3492 C3494 1.391 . S
C3493 C3492 1.386 . S
C3493 C3497 1.393 . S
C3494 H3486 0.950 . S
C3494 C3492 1.391 . S
C3494 C3495 1.400 . S
C3495 C3494 1.400 . S
C3495 C3496 1.398 . S
C3495 C3501 1.491 . S
C3496 H3487 0.950 . S
C3496 C3495 1.398 . S
C3496 C3497 1.391 . S
C3497 H3485 0.950 . S
C3497 C3493 1.393 . S
C3497 C3496 1.391 . S
C3498 H3488 0.950 . S
C3498 C3499 1.386 . S
C3498 C3500 1.391 . S
C3499 C3498 1.386 . S
C3499 C3503 1.393 . S
C3500 H3489 0.950 . S
C3500 C3498 1.391 . S
C3500 C3501 1.400 . S
C3501 C3495 1.491 . S
C3501 C3500 1.400 . S
C3501 C3502 1.398 . S
C3502 H3490 0.950 . S
C3502 C3501 1.398 . S
C3502 C3503 1.391 . S
C3503 H3491 0.950 . S
C3503 C3499 1.393 . S
C3503 C3502 1.391 . S
H3504 C3512 0.950 . S
H3505 C3517 0.950 . S
H3506 C3514 0.950 . S
H3507 C3516 0.950 . S
H3508 C3518 0.950 . S
H3509 C3520 0.950 . S
H3510 C3522 0.950 . S
H3511 C3523 0.950 . S
C3512 H3504 0.950 . S
C3512 C3513 1.386 . S
C3512 C3514 1.391 . S
C3513 C3512 1.386 . S
C3513 C3517 1.393 . S
C3514 H3506 0.950 . S
C3514 C3512 1.391 . S
C3514 C3515 1.400 . S
C3515 C3514 1.400 . S
C3515 C3516 1.398 . S
C3515 C3521 1.491 . S
C3516 H3507 0.950 . S
C3516 C3515 1.398 . S
C3516 C3517 1.391 . S
C3517 H3505 0.950 . S
C3517 C3513 1.393 . S
C3517 C3516 1.391 . S
C3518 H3508 0.950 . S
C3518 C3519 1.386 . S
C3518 C3520 1.391 . S
C3519 C3518 1.386 . S
C3519 C3523 1.393 . S
C3520 H3509 0.950 . S
C3520 C3518 1.391 . S
C3520 C3521 1.400 . S
C3521 C3515 1.491 . S
C3521 C3520 1.400 . S
C3521 C3522 1.398 . S
C3522 H3510 0.950 . S
C3522 C3521 1.398 . S
C3522 C3523 1.391 . S
C3523 H3511 0.950 . S
C3523 C3519 1.393 . S
C3523 C3522 1.391 . S
H3524 C3532 0.950 . S
H3525 C3537 0.950 . S
H3526 C3534 0.950 . S
H3527 C3536 0.950 . S
H3528 C3538 0.950 . S
H3529 C3540 0.950 . S
H3530 C3542 0.950 . S
H3531 C3543 0.950 . S
C3532 H3524 0.950 . S
C3532 C3533 1.386 . S
C3532 C3534 1.391 . S
C3533 C3532 1.386 . S
C3533 C3537 1.393 . S
C3534 H3526 0.950 . S
C3534 C3532 1.391 . S
C3534 C3535 1.400 . S
C3535 C3534 1.400 . S
C3535 C3536 1.398 . S
C3535 C3541 1.491 . S
C3536 H3527 0.950 . S
C3536 C3535 1.398 . S
C3536 C3537 1.391 . S
C3537 H3525 0.950 . S
C3537 C3533 1.393 . S
C3537 C3536 1.391 . S
C3538 H3528 0.950 . S
C3538 C3539 1.386 . S
C3538 C3540 1.391 . S
C3539 C3538 1.386 . S
C3539 C3543 1.393 . S
C3540 H3529 0.950 . S
C3540 C3538 1.391 . S
C3540 C3541 1.400 . S
C3541 C3535 1.491 . S
C3541 C3540 1.400 . S
C3541 C3542 1.398 . S
C3542 H3530 0.950 . S
C3542 C3541 1.398 . S
C3542 C3543 1.391 . S
C3543 H3531 0.950 . S
C3543 C3539 1.393 . S
C3543 C3542 1.391 . S
H3544 C3552 0.950 . S
H3545 C3557 0.950 . S
H3546 C3554 0.950 . S
H3547 C3556 0.950 . S
H3548 C3558 0.950 . S
H3549 C3560 0.950 . S
H3550 C3562 0.950 . S
H3551 C3563 0.950 . S
C3552 H3544 0.950 . S
C3552 C3553 1.386 . S
C3552 C3554 1.391 . S
C3553 C3552 1.386 . S
C3553 C3557 1.393 . S
C3554 H3546 0.950 . S
C3554 C3552 1.391 . S
C3554 C3555 1.400 . S
C3555 C3554 1.400 . S
C3555 C3556 1.398 . S
C3555 C3561 1.491 . S
C3556 H3547 0.950 . S
C3556 C3555 1.398 . S
C3556 C3557 1.391 . S
C3557 H3545 0.950 . S
C3557 C3553 1.393 . S
C3557 C3556 1.391 . S
C3558 H3548 0.950 . S
C3558 C3559 1.386 . S
C3558 C3560 1.391 . S
C3559 C3558 1.386 . S
C3559 C3563 1.393 . S
C3560 H3549 0.950 . S
C3560 C3558 1.391 . S
C3560 C3561 1.400 . S
C3561 C3555 1.491 . S
C3561 C3560 1.400 . S
C3561 C3562 1.398 . S
C3562 H3550 0.950 . S
C3562 C3561 1.398 . S
C3562 C3563 1.391 . S
C3563 H3551 0.950 . S
C3563 C3559 1.393 . S
C3563 C3562 1.391 . S
H3564 C3572 0.950 . S
H3565 C3577 0.950 . S
H3566 C3574 0.950 . S
H3567 C3576 0.950 . S
H3568 C3578 0.950 . S
H3569 C3580 0.950 . S
H3570 C3582 0.950 . S
H3571 C3583 0.950 . S
C3572 H3564 0.950 . S
C3572 C3573 1.386 . S
C3572 C3574 1.391 . S
C3573 C3572 1.386 . S
C3573 C3577 1.393 . S
C3574 H3566 0.950 . S
C3574 C3572 1.391 . S
C3574 C3575 1.400 . S
C3575 C3574 1.400 . S
C3575 C3576 1.398 . S
C3575 C3581 1.491 . S
C3576 H3567 0.950 . S
C3576 C3575 1.398 . S
C3576 C3577 1.391 . S
C3577 H3565 0.950 . S
C3577 C3573 1.393 . S
C3577 C3576 1.391 . S
C3578 H3568 0.950 . S
C3578 C3579 1.386 . S
C3578 C3580 1.391 . S
C3579 C3578 1.386 . S
C3579 C3583 1.393 . S
C3580 H3569 0.950 . S
C3580 C3578 1.391 . S
C3580 C3581 1.400 . S
C3581 C3575 1.491 . S
C3581 C3580 1.400 . S
C3581 C3582 1.398 . S
C3582 H3570 0.950 . S
C3582 C3581 1.398 . S
C3582 C3583 1.391 . S
C3583 H3571 0.950 . S
C3583 C3579 1.393 . S
C3583 C3582 1.391 . S
H3584 C3592 0.950 . S
H3585 C3597 0.950 . S
H3586 C3594 0.950 . S
H3587 C3596 0.950 . S
H3588 C3598 0.950 . S
H3589 C3600 0.950 . S
H3590 C3602 0.950 . S
H3591 C3603 0.950 . S
C3592 H3584 0.950 . S
C3592 C3593 1.386 . S
C3592 C3594 1.391 . S
C3593 C3592 1.386 . S
C3593 C3597 1.393 . S
C3594 H3586 0.950 . S
C3594 C3592 1.391 . S
C3594 C3595 1.400 . S
C3595 C3594 1.400 . S
C3595 C3596 1.398 . S
C3595 C3601 1.491 . S
C3596 H3587 0.950 . S
C3596 C3595 1.398 . S
C3596 C3597 1.391 . S
C3597 H3585 0.950 . S
C3597 C3593 1.393 . S
C3597 C3596 1.391 . S
C3598 H3588 0.950 . S
C3598 C3599 1.386 . S
C3598 C3600 1.391 . S
C3599 C3598 1.386 . S
C3599 C3603 1.393 . S
C3600 H3589 0.950 . S
C3600 C3598 1.391 . S
C3600 C3601 1.400 . S
C3601 C3595 1.491 . S
C3601 C3600 1.400 . S
C3601 C3602 1.398 . S
C3602 H3590 0.950 . S
C3602 C3601 1.398 . S
C3602 C3603 1.391 . S
C3603 H3591 0.950 . S
C3603 C3599 1.393 . S
C3603 C3602 1.391 . S
H3604 C3612 0.950 . S
H3605 C3617 0.950 . S
H3606 C3614 0.950 . S
H3607 C3616 0.950 . S
H3608 C3618 0.950 . S
H3609 C3620 0.950 . S
H3610 C3622 0.950 . S
H3611 C3623 0.950 . S
C3612 H3604 0.950 . S
C3612 C3613 1.386 . S
C3612 C3614 1.391 . S
C3613 C3612 1.386 . S
C3613 C3617 1.393 . S
C3614 H3606 0.950 . S
C3614 C3612 1.391 . S
C3614 C3615 1.400 . S
C3615 C3614 1.400 . S
C3615 C3616 1.398 . S
C3615 C3621 1.491 . S
C3616 H3607 0.950 . S
C3616 C3615 1.398 . S
C3616 C3617 1.391 . S
C3617 H3605 0.950 . S
C3617 C3613 1.393 . S
C3617 C3616 1.391 . S
C3618 H3608 0.950 . S
C3618 C3619 1.386 . S
C3618 C3620 1.391 . S
C3619 C3618 1.386 . S
C3619 C3623 1.393 . S
C3620 H3609 0.950 . S
C3620 C3618 1.391 . S
C3620 C3621 1.400 . S
C3621 C3615 1.491 . S
C3621 C3620 1.400 . S
C3621 C3622 1.398 . S
C3622 H3610 0.950 . S
C3622 C3621 1.398 . S
C3622 C3623 1.391 . S
C3623 H3611 0.950 . S
C3623 C3619 1.393 . S
C3623 C3622 1.391 . S
H3624 C3632 0.950 . S
H3625 C3637 0.950 . S
H3626 C3634 0.950 . S
H3627 C3636 0.950 . S
H3628 C3638 0.950 . S
H3629 C3640 0.950 . S
H3630 C3642 0.950 . S
H3631 C3643 0.950 . S
C3632 H3624 0.950 . S
C3632 C3633 1.386 . S
C3632 C3634 1.391 . S
C3633 C3632 1.386 . S
C3633 C3637 1.393 . S
C3634 H3626 0.950 . S
C3634 C3632 1.391 . S
C3634 C3635 1.400 . S
C3635 C3634 1.400 . S
C3635 C3636 1.398 . S
C3635 C3641 1.491 . S
C3636 H3627 0.950 . S
C3636 C3635 1.398 . S
C3636 C3637 1.391 . S
C3637 H3625 0.950 . S
C3637 C3633 1.393 . S
C3637 C3636 1.391 . S
C3638 H3628 0.950 . S
C3638 C3639 1.386 . S
C3638 C3640 1.391 . S
C3639 C3638 1.386 . S
C3639 C3643 1.393 . S
C3640 H3629 0.950 . S
C3640 C3638 1.391 . S
C3640 C3641 1.400 . S
C3641 C3635 1.491 . S
C3641 C3640 1.400 . S
C3641 C3642 1.398 . S
C3642 H3630 0.950 . S
C3642 C3641 1.398 . S
C3642 C3643 1.391 . S
C3643 H3631 0.950 . S
C3643 C3639 1.393 . S
C3643 C3642 1.391 . S
H3644 C3652 0.950 . S
H3645 C3657 0.950 . S
H3646 C3654 0.950 . S
H3647 C3656 0.950 . S
H3648 C3658 0.950 . S
H3649 C3660 0.950 . S
H3650 C3662 0.950 . S
H3651 C3663 0.950 . S
C3652 H3644 0.950 . S
C3652 C3653 1.386 . S
C3652 C3654 1.391 . S
C3653 C3652 1.386 . S
C3653 C3657 1.393 . S
C3654 H3646 0.950 . S
C3654 C3652 1.391 . S
C3654 C3655 1.400 . S
C3655 C3654 1.400 . S
C3655 C3656 1.398 . S
C3655 C3661 1.491 . S
C3656 H3647 0.950 . S
C3656 C3655 1.398 . S
C3656 C3657 1.391 . S
C3657 H3645 0.950 . S
C3657 C3653 1.393 . S
C3657 C3656 1.391 . S
C3658 H3648 0.950 . S
C3658 C3659 1.386 . S
C3658 C3660 1.391 . S
C3659 C3658 1.386 . S
C3659 C3663 1.393 . S
C3660 H3649 0.950 . S
C3660 C3658 1.391 . S
C3660 C3661 1.400 . S
C3661 C3655 1.491 . S
C3661 C3660 1.400 . S
C3661 C3662 1.398 . S
C3662 H3650 0.950 . S
C3662 C3661 1.398 . S
C3662 C3663 1.391 . S
C3663 H3651 0.950 . S
C3663 C3659 1.393 . S
C3663 C3662 1.391 . S
H3664 C3672 0.950 . S
H3665 C3677 0.950 . S
H3666 C3674 0.950 . S
H3667 C3676 0.950 . S
H3668 C3678 0.950 . S
H3669 C3680 0.950 . S
H3670 C3682 0.950 . S
H3671 C3683 0.950 . S
C3672 H3664 0.950 . S
C3672 C3673 1.386 . S
C3672 C3674 1.391 . S
C3673 C3672 1.386 . S
C3673 C3677 1.393 . S
C3674 H3666 0.950 . S
C3674 C3672 1.391 . S
C3674 C3675 1.400 . S
C3675 C3674 1.400 . S
C3675 C3676 1.398 . S
C3675 C3681 1.491 . S
C3676 H3667 0.950 . S
C3676 C3675 1.398 . S
C3676 C3677 1.391 . S
C3677 H3665 0.950 . S
C3677 C3673 1.393 . S
C3677 C3676 1.391 . S
C3678 H3668 0.950 . S
C3678 C3679 1.386 . S
C3678 C3680 1.391 . S
C3679 C3678 1.386 . S
C3679 C3683 1.393 . S
C3680 H3669 0.950 . S
C3680 C3678 1.391 . S
C3680 C3681 1.400 . S
C3681 C3675 1.491 . S
C3681 C3680 1.400 . S
C3681 C3682 1.398 . S
C3682 H3670 0.950 . S
C3682 C3681 1.398 . S
C3682 C3683 1.391 . S
C3683 H3671 0.950 . S
C3683 C3679 1.393 . S
C3683 C3682 1.391 . S
H3684 C3692 0.950 . S
H3685 C3697 0.950 . S
H3686 C3694 0.950 . S
H3687 C3696 0.950 . S
H3688 C3698 0.950 . S
H3689 C3700 0.950 . S
H3690 C3702 0.950 . S
H3691 C3703 0.950 . S
C3692 H3684 0.950 . S
C3692 C3693 1.386 . S
C3692 C3694 1.391 . S
C3693 C3692 1.386 . S
C3693 C3697 1.393 . S
C3694 H3686 0.950 . S
C3694 C3692 1.391 . S
C3694 C3695 1.400 . S
C3695 C3694 1.400 . S
C3695 C3696 1.398 . S
C3695 C3701 1.491 . S
C3696 H3687 0.950 . S
C3696 C3695 1.398 . S
C3696 C3697 1.391 . S
C3697 H3685 0.950 . S
C3697 C3693 1.393 . S
C3697 C3696 1.391 . S
C3698 H3688 0.950 . S
C3698 C3699 1.386 . S
C3698 C3700 1.391 . S
C3699 C3698 1.386 . S
C3699 C3703 1.393 . S
C3700 H3689 0.950 . S
C3700 C3698 1.391 . S
C3700 C3701 1.400 . S
C3701 C3695 1.491 . S
C3701 C3700 1.400 . S
C3701 C3702 1.398 . S
C3702 H3690 0.950 . S
C3702 C3701 1.398 . S
C3702 C3703 1.391 . S
C3703 H3691 0.950 . S
C3703 C3699 1.393 . S
C3703 C3702 1.391 . S
H3704 C3712 0.950 . S
H3705 C3717 0.950 . S
H3706 C3714 0.950 . S
H3707 C3716 0.950 . S
H3708 C3718 0.950 . S
H3709 C3720 0.950 . S
H3710 C3722 0.950 . S
H3711 C3723 0.950 . S
C3712 H3704 0.950 . S
C3712 C3713 1.386 . S
C3712 C3714 1.391 . S
C3713 C3712 1.386 . S
C3713 C3717 1.393 . S
C3714 H3706 0.950 . S
C3714 C3712 1.391 . S
C3714 C3715 1.400 . S
C3715 C3714 1.400 . S
C3715 C3716 1.398 . S
C3715 C3721 1.491 . S
C3716 H3707 0.950 . S
C3716 C3715 1.398 . S
C3716 C3717 1.391 . S
C3717 H3705 0.950 . S
C3717 C3713 1.393 . S
C3717 C3716 1.391 . S
C3718 H3708 0.950 . S
C3718 C3719 1.386 . S
C3718 C3720 1.391 . S
C3719 C3718 1.386 . S
C3719 C3723 1.393 . S
C3720 H3709 0.950 . S
C3720 C3718 1.391 . S
C3720 C3721 1.400 . S
C3721 C3715 1.491 . S
C3721 C3720 1.400 . S
C3721 C3722 1.398 . S
C3722 H3710 0.950 . S
C3722 C3721 1.398 . S
C3722 C3723 1.391 . S
C3723 H3711 0.950 . S
C3723 C3719 1.393 . S
C3723 C3722 1.391 . S
H3724 C3732 0.950 . S
H3725 C3737 0.950 . S
H3726 C3734 0.950 . S
H3727 C3736 0.950 . S
H3728 C3738 0.950 . S
H3729 C3740 0.950 . S
H3730 C3742 0.950 . S
H3731 C3743 0.950 . S
C3732 H3724 0.950 . S
C3732 C3733 1.386 . S
C3732 C3734 1.391 . S
C3733 C3732 1.386 . S
C3733 C3737 1.393 . S
C3734 H3726 0.950 . S
C3734 C3732 1.391 . S
C3734 C3735 1.400 . S
C3735 C3734 1.400 . S
C3735 C3736 1.398 . S
C3735 C3741 1.491 . S
C3736 H3727 0.950 . S
C3736 C3735 1.398 . S
C3736 C3737 1.391 . S
C3737 H3725 0.950 . S
C3737 C3733 1.393 . S
C3737 C3736 1.391 . S
C3738 H3728 0.950 . S
C3738 C3739 1.386 . S
C3738 C3740 1.391 . S
C3739 C3738 1.386 . S
C3739 C3743 1.393 . S
C3740 H3729 0.950 . S
C3740 C3738 1.391 . S
C3740 C3741 1.400 . S
C3741 C3735 1.491 . S
C3741 C3740 1.400 . S
C3741 C3742 1.398 . S
C3742 H3730 0.950 . S
C3742 C3741 1.398 . S
C3742 C3743 1.391 . S
C3743 H3731 0.950 . S
C3743 C3739 1.393 . S
C3743 C3742 1.391 . S
H3744 C3752 0.950 . S
H3745 C3757 0.950 . S
H3746 C3754 0.950 . S
H3747 C3756 0.950 . S
H3748 C3758 0.950 . S
H3749 C3760 0.950 . S
H3750 C3762 0.950 . S
H3751 C3763 0.950 . S
C3752 H3744 0.950 . S
C3752 C3753 1.386 . S
C3752 C3754 1.391 . S
C3753 C3752 1.386 . S
C3753 C3757 1.393 . S
C3754 H3746 0.950 . S
C3754 C3752 1.391 . S
C3754 C3755 1.400 . S
C3755 C3754 1.400 . S
C3755 C3756 1.398 . S
C3755 C3761 1.491 . S
C3756 H3747 0.950 . S
C3756 C3755 1.398 . S
C3756 C3757 1.391 . S
C3757 H3745 0.950 . S
C3757 C3753 1.393 . S
C3757 C3756 1.391 . S
C3758 H3748 0.950 . S
C3758 C3759 1.386 . S
C3758 C3760 1.391 . S
C3759 C3758 1.386 . S
C3759 C3763 1.393 . S
C3760 H3749 0.950 . S
C3760 C3758 1.391 . S
C3760 C3761 1.400 . S
C3761 C3755 1.491 . S
C3761 C3760 1.400 . S
C3761 C3762 1.398 . S
C3762 H3750 0.950 . S
C3762 C3761 1.398 . S
C3762 C3763 1.391 . S
C3763 H3751 0.950 . S
C3763 C3759 1.393 . S
C3763 C3762 1.391 . S
H3764 C3772 0.950 . S
H3765 C3777 0.950 . S
H3766 C3774 0.950 . S
H3767 C3776 0.950 . S
H3768 C3778 0.950 . S
H3769 C3780 0.950 . S
H3770 C3782 0.950 . S
H3771 C3783 0.950 . S
C3772 H3764 0.950 . S
C3772 C3773 1.386 . S
C3772 C3774 1.391 . S
C3773 C3772 1.386 . S
C3773 C3777 1.393 . S
C3774 H3766 0.950 . S
C3774 C3772 1.391 . S
C3774 C3775 1.400 . S
C3775 C3774 1.400 . S
C3775 C3776 1.398 . S
C3775 C3781 1.491 . S
C3776 H3767 0.950 . S
C3776 C3775 1.398 . S
C3776 C3777 1.391 . S
C3777 H3765 0.950 . S
C3777 C3773 1.393 . S
C3777 C3776 1.391 . S
C3778 H3768 0.950 . S
C3778 C3779 1.386 . S
C3778 C3780 1.391 . S
C3779 C3778 1.386 . S
C3779 C3783 1.393 . S
C3780 H3769 0.950 . S
C3780 C3778 1.391 . S
C3780 C3781 1.400 . S
C3781 C3775 1.491 . S
C3781 C3780 1.400 . S
C3781 C3782 1.398 . S
C3782 H3770 0.950 . S
C3782 C3781 1.398 . S
C3782 C3783 1.391 . S
C3783 H3771 0.950 . S
C3783 C3779 1.393 . S
C3783 C3782 1.391 . S
H3784 C3792 0.950 . S
H3785 C3797 0.950 . S
H3786 C3794 0.950 . S
H3787 C3796 0.950 . S
H3788 C3798 0.950 . S
H3789 C3800 0.950 . S
H3790 C3802 0.950 . S
H3791 C3803 0.950 . S
C3792 H3784 0.950 . S
C3792 C3793 1.386 . S
C3792 C3794 1.391 . S
C3793 C3792 1.386 . S
C3793 C3797 1.393 . S
C3794 H3786 0.950 . S
C3794 C3792 1.391 . S
C3794 C3795 1.400 . S
C3795 C3794 1.400 . S
C3795 C3796 1.398 . S
C3795 C3801 1.491 . S
C3796 H3787 0.950 . S
C3796 C3795 1.398 . S
C3796 C3797 1.391 . S
C3797 H3785 0.950 . S
C3797 C3793 1.393 . S
C3797 C3796 1.391 . S
C3798 H3788 0.950 . S
C3798 C3799 1.386 . S
C3798 C3800 1.391 . S
C3799 C3798 1.386 . S
C3799 C3803 1.393 . S
C3800 H3789 0.950 . S
C3800 C3798 1.391 . S
C3800 C3801 1.400 . S
C3801 C3795 1.491 . S
C3801 C3800 1.400 . S
C3801 C3802 1.398 . S
C3802 H3790 0.950 . S
C3802 C3801 1.398 . S
C3802 C3803 1.391 . S
C3803 H3791 0.950 . S
C3803 C3799 1.393 . S
C3803 C3802 1.391 . S
H3804 C3812 0.950 . S
H3805 C3817 0.950 . S
H3806 C3814 0.950 . S
H3807 C3816 0.950 . S
H3808 C3818 0.950 . S
H3809 C3820 0.950 . S
H3810 C3822 0.950 . S
H3811 C3823 0.950 . S
C3812 H3804 0.950 . S
C3812 C3813 1.386 . S
C3812 C3814 1.391 . S
C3813 C3812 1.386 . S
C3813 C3817 1.393 . S
C3814 H3806 0.950 . S
C3814 C3812 1.391 . S
C3814 C3815 1.400 . S
C3815 C3814 1.400 . S
C3815 C3816 1.398 . S
C3815 C3821 1.491 . S
C3816 H3807 0.950 . S
C3816 C3815 1.398 . S
C3816 C3817 1.391 . S
C3817 H3805 0.950 . S
C3817 C3813 1.393 . S
C3817 C3816 1.391 . S
C3818 H3808 0.950 . S
C3818 C3819 1.386 . S
C3818 C3820 1.391 . S
C3819 C3818 1.386 . S
C3819 C3823 1.393 . S
C3820 H3809 0.950 . S
C3820 C3818 1.391 . S
C3820 C3821 1.400 . S
C3821 C3815 1.491 . S
C3821 C3820 1.400 . S
C3821 C3822 1.398 . S
C3822 H3810 0.950 . S
C3822 C3821 1.398 . S
C3822 C3823 1.391 . S
C3823 H3811 0.950 . S
C3823 C3819 1.393 . S
C3823 C3822 1.391 . S
H3824 C3832 0.950 . S
H3825 C3837 0.950 . S
H3826 C3834 0.950 . S
H3827 C3836 0.950 . S
H3828 C3838 0.950 . S
H3829 C3840 0.950 . S
H3830 C3842 0.950 . S
H3831 C3843 0.950 . S
C3832 H3824 0.950 . S
C3832 C3833 1.386 . S
C3832 C3834 1.391 . S
C3833 C3832 1.386 . S
C3833 C3837 1.393 . S
C3834 H3826 0.950 . S
C3834 C3832 1.391 . S
C3834 C3835 1.400 . S
C3835 C3834 1.400 . S
C3835 C3836 1.398 . S
C3835 C3841 1.491 . S
C3836 H3827 0.950 . S
C3836 C3835 1.398 . S
C3836 C3837 1.391 . S
C3837 H3825 0.950 . S
C3837 C3833 1.393 . S
C3837 C3836 1.391 . S
C3838 H3828 0.950 . S
C3838 C3839 1.386 . S
C3838 C3840 1.391 . S
C3839 C3838 1.386 . S
C3839 C3843 1.393 . S
C3840 H3829 0.950 . S
C3840 C3838 1.391 . S
C3840 C3841 1.400 . S
C3841 C3835 1.491 . S
C3841 C3840 1.400 . S
C3841 C3842 1.398 . S
C3842 H3830 0.950 . S
C3842 C3841 1.398 . S
C3842 C3843 1.391 . S
C3843 H3831 0.950 . S
C3843 C3839 1.393 . S
C3843 C3842 1.391 . S
H3844 C3852 0.950 . S
H3845 C3857 0.950 . S
H3846 C3854 0.950 . S
H3847 C3856 0.950 . S
H3848 C3858 0.950 . S
H3849 C3860 0.950 . S
H3850 C3862 0.950 . S
H3851 C3863 0.950 . S
C3852 H3844 0.950 . S
C3852 C3853 1.386 . S
C3852 C3854 1.391 . S
C3853 C3852 1.386 . S
C3853 C3857 1.393 . S
C3854 H3846 0.950 . S
C3854 C3852 1.391 . S
C3854 C3855 1.400 . S
C3855 C3854 1.400 . S
C3855 C3856 1.398 . S
C3855 C3861 1.491 . S
C3856 H3847 0.950 . S
C3856 C3855 1.398 . S
C3856 C3857 1.391 . S
C3857 H3845 0.950 . S
C3857 C3853 1.393 . S
C3857 C3856 1.391 . S
C3858 H3848 0.950 . S
C3858 C3859 1.386 . S
C3858 C3860 1.391 . S
C3859 C3858 1.386 . S
C3859 C3863 1.393 . S
C3860 H3849 0.950 . S
C3860 C3858 1.391 . S
C3860 C3861 1.400 . S
C3861 C3855 1.491 . S
C3861 C3860 1.400 . S
C3861 C3862 1.398 . S
C3862 H3850 0.950 . S
C3862 C3861 1.398 . S
C3862 C3863 1.391 . S
C3863 H3851 0.950 . S
C3863 C3859 1.393 . S
C3863 C3862 1.391 . S
H3864 C3872 0.950 . S
H3865 C3877 0.950 . S
H3866 C3874 0.950 . S
H3867 C3876 0.950 . S
H3868 C3878 0.950 . S
H3869 C3880 0.950 . S
H3870 C3882 0.950 . S
H3871 C3883 0.950 . S
C3872 H3864 0.950 . S
C3872 C3873 1.386 . S
C3872 C3874 1.391 . S
C3873 C3872 1.386 . S
C3873 C3877 1.393 . S
C3874 H3866 0.950 . S
C3874 C3872 1.391 . S
C3874 C3875 1.400 . S
C3875 C3874 1.400 . S
C3875 C3876 1.398 . S
C3875 C3881 1.491 . S
C3876 H3867 0.950 . S
C3876 C3875 1.398 . S
C3876 C3877 1.391 . S
C3877 H3865 0.950 . S
C3877 C3873 1.393 . S
C3877 C3876 1.391 . S
C3878 H3868 0.950 . S
C3878 C3879 1.386 . S
C3878 C3880 1.391 . S
C3879 C3878 1.386 . S
C3879 C3883 1.393 . S
C3880 H3869 0.950 . S
C3880 C3878 1.391 . S
C3880 C3881 1.400 . S
C3881 C3875 1.491 . S
C3881 C3880 1.400 . S
C3881 C3882 1.398 . S
C3882 H3870 0.950 . S
C3882 C3881 1.398 . S
C3882 C3883 1.391 . S
C3883 H3871 0.950 . S
C3883 C3879 1.393 . S
C3883 C3882 1.391 . S
H3884 C3892 0.950 . S
H3885 C3897 0.950 . S
H3886 C3894 0.950 . S
H3887 C3896 0.950 . S
H3888 C3898 0.950 . S
H3889 C3900 0.950 . S
H3890 C3902 0.950 . S
H3891 C3903 0.950 . S
C3892 H3884 0.950 . S
C3892 C3893 1.386 . S
C3892 C3894 1.391 . S
C3893 C3892 1.386 . S
C3893 C3897 1.393 . S
C3894 H3886 0.950 . S
C3894 C3892 1.391 . S
C3894 C3895 1.400 . S
C3895 C3894 1.400 . S
C3895 C3896 1.398 . S
C3895 C3901 1.491 . S
C3896 H3887 0.950 . S
C3896 C3895 1.398 . S
C3896 C3897 1.391 . S
C3897 H3885 0.950 . S
C3897 C3893 1.393 . S
C3897 C3896 1.391 . S
C3898 H3888 0.950 . S
C3898 C3899 1.386 . S
C3898 C3900 1.391 . S
C3899 C3898 1.386 . S
C3899 C3903 1.393 . S
C3900 H3889 0.950 . S
C3900 C3898 1.391 . S
C3900 C3901 1.400 . S
C3901 C3895 1.491 . S
C3901 C3900 1.400 . S
C3901 C3902 1.398 . S
C3902 H3890 0.950 . S
C3902 C3901 1.398 . S
C3902 C3903 1.391 . S
C3903 H3891 0.950 . S
C3903 C3899 1.393 . S
C3903 C3902 1.391 . S
H3904 C3912 0.950 . S
H3905 C3917 0.950 . S
H3906 C3914 0.950 . S
H3907 C3916 0.950 . S
H3908 C3918 0.950 . S
H3909 C3920 0.950 . S
H3910 C3922 0.950 . S
H3911 C3923 0.950 . S
C3912 H3904 0.950 . S
C3912 C3913 1.386 . S
C3912 C3914 1.391 . S
C3913 C3912 1.386 . S
C3913 C3917 1.393 . S
C3914 H3906 0.950 . S
C3914 C3912 1.391 . S
C3914 C3915 1.400 . S
C3915 C3914 1.400 . S
C3915 C3916 1.398 . S
C3915 C3921 1.491 . S
C3916 H3907 0.950 . S
C3916 C3915 1.398 . S
C3916 C3917 1.391 . S
C3917 H3905 0.950 . S
C3917 C3913 1.393 . S
C3917 C3916 1.391 . S
C3918 H3908 0.950 . S
C3918 C3919 1.386 . S
C3918 C3920 1.391 . S
C3919 C3918 1.386 . S
C3919 C3923 1.393 . S
C3920 H3909 0.950 . S
C3920 C3918 1.391 . S
C3920 C3921 1.400 . S
C3921 C3915 1.491 . S
C3921 C3920 1.400 . S
C3921 C3922 1.398 . S
C3922 H3910 0.950 . S
C3922 C3921 1.398 . S
C3922 C3923 1.391 . S
C3923 H3911 0.950 . S
C3923 C3919 1.393 . S
C3923 C3922 1.391 . S
H3924 C3932 0.950 . S
H3925 C3937 0.950 . S
H3926 C3934 0.950 . S
H3927 C3936 0.950 . S
H3928 C3938 0.950 . S
H3929 C3940 0.950 . S
H3930 C3942 0.950 . S
H3931 C3943 0.950 . S
C3932 H3924 0.950 . S
C3932 C3933 1.386 . S
C3932 C3934 1.391 . S
C3933 C3932 1.386 . S
C3933 C3937 1.393 . S
C3934 H3926 0.950 . S
C3934 C3932 1.391 . S
C3934 C3935 1.400 . S
C3935 C3934 1.400 . S
C3935 C3936 1.398 . S
C3935 C3941 1.491 . S
C3936 H3927 0.950 . S
C3936 C3935 1.398 . S
C3936 C3937 1.391 . S
C3937 H3925 0.950 . S
C3937 C3933 1.393 . S
C3937 C3936 1.391 . S
C3938 H3928 0.950 . S
C3938 C3939 1.386 . S
C3938 C3940 1.391 . S
C3939 C3938 1.386 . S
C3939 C3943 1.393 . S
C3940 H3929 0.950 . S
C3940 C3938 1.391 . S
C3940 C3941 1.400 . S
C3941 C3935 1.491 . S
C3941 C3940 1.400 . S
C3941 C3942 1.398 . S
C3942 H3930 0.950 . S
C3942 C3941 1.398 . S
C3942 C3943 1.391 . S
C3943 H3931 0.950 . S
C3943 C3939 1.393 . S
C3943 C3942 1.391 . S
H3944 C3952 0.950 . S
H3945 C3957 0.950 . S
H3946 C3954 0.950 . S
H3947 C3956 0.950 . S
H3948 C3958 0.950 . S
H3949 C3960 0.950 . S
H3950 C3962 0.950 . S
H3951 C3963 0.950 . S
C3952 H3944 0.950 . S
C3952 C3953 1.386 . S
C3952 C3954 1.391 . S
C3953 C3952 1.386 . S
C3953 C3957 1.393 . S
C3954 H3946 0.950 . S
C3954 C3952 1.391 . S
C3954 C3955 1.400 . S
C3955 C3954 1.400 . S
C3955 C3956 1.398 . S
C3955 C3961 1.491 . S
C3956 H3947 0.950 . S
C3956 C3955 1.398 . S
C3956 C3957 1.391 . S
C3957 H3945 0.950 . S
C3957 C3953 1.393 . S
C3957 C3956 1.391 . S
C3958 H3948 0.950 . S
C3958 C3959 1.386 . S
C3958 C3960 1.391 . S
C3959 C3958 1.386 . S
C3959 C3963 1.393 . S
C3960 H3949 0.950 . S
C3960 C3958 1.391 . S
C3960 C3961 1.400 . S
C3961 C3955 1.491 . S
C3961 C3960 1.400 . S
C3961 C3962 1.398 . S
C3962 H3950 0.950 . S
C3962 C3961 1.398 . S
C3962 C3963 1.391 . S
C3963 H3951 0.950 . S
C3963 C3959 1.393 . S
C3963 C3962 1.391 . S
H3964 C3972 0.950 . S
H3965 C3977 0.950 . S
H3966 C3974 0.950 . S
H3967 C3976 0.950 . S
H3968 C3978 0.950 . S
H3969 C3980 0.950 . S
H3970 C3982 0.950 . S
H3971 C3983 0.950 . S
C3972 H3964 0.950 . S
C3972 C3973 1.386 . S
C3972 C3974 1.391 . S
C3973 C3972 1.386 . S
C3973 C3977 1.393 . S
C3974 H3966 0.950 . S
C3974 C3972 1.391 . S
C3974 C3975 1.400 . S
C3975 C3974 1.400 . S
C3975 C3976 1.398 . S
C3975 C3981 1.491 . S
C3976 H3967 0.950 . S
C3976 C3975 1.398 . S
C3976 C3977 1.391 . S
C3977 H3965 0.950 . S
C3977 C3973 1.393 . S
C3977 C3976 1.391 . S
C3978 H3968 0.950 . S
C3978 C3979 1.386 . S
C3978 C3980 1.391 . S
C3979 C3978 1.386 . S
C3979 C3983 1.393 . S
C3980 H3969 0.950 . S
C3980 C3978 1.391 . S
C3980 C3981 1.400 . S
C3981 C3975 1.491 . S
C3981 C3980 1.400 . S
C3981 C3982 1.398 . S
C3982 H3970 0.950 . S
C3982 C3981 1.398 . S
C3982 C3983 1.391 . S
C3983 H3971 0.950 . S
C3983 C3979 1.393 . S
C3983 C3982 1.391 . S
H3984 C3992 0.950 . S
H3985 C3997 0.950 . S
H3986 C3994 0.950 . S
H3987 C3996 0.950 . S
H3988 C3998 0.950 . S
H3989 C4000 0.950 . S
H3990 C4002 0.950 . S
H3991 C4003 0.950 . S
C3992 H3984 0.950 . S
C3992 C3993 1.386 1_545 S
C3992 C3994 1.391 . S
C3993 C3992 1.386 1_565 S
C3993 C3997 1.393 . S
C3994 H3986 0.950 . S
C3994 C3992 1.391 . S
C3994 C3995 1.400 . S
C3995 C3994 1.400 . S
C3995 C3996 1.398 . S
C3995 C4001 1.491 . S
C3996 H3987 0.950 . S
C3996 C3995 1.398 . S
C3996 C3997 1.391 1_545 S
C3997 H3985 0.950 . S
C3997 C3993 1.393 . S
C3997 C3996 1.391 1_565 S
C3998 H3988 0.950 . S
C3998 C3999 1.386 . S
C3998 C4000 1.391 . S
C3999 C3998 1.386 . S
C3999 C4003 1.393 . S
C4000 H3989 0.950 . S
C4000 C3998 1.391 . S
C4000 C4001 1.400 . S
C4001 C3995 1.491 . S
C4001 C4000 1.400 . S
C4001 C4002 1.398 . S
C4002 H3990 0.950 . S
C4002 C4001 1.398 . S
C4002 C4003 1.391 . S
C4003 H3991 0.950 . S
C4003 C3999 1.393 . S
C4003 C4002 1.391 . S
H4004 C4012 0.950 . S
H4005 C4017 0.950 . S
H4006 C4014 0.950 . S
H4007 C4016 0.950 1_655 S
H4008 C4018 0.950 . S
H4009 C4020 0.950 . S
H4010 C4022 0.950 1_455 S
H4011 C4023 0.950 . S
C4012 H4004 0.950 . S
C4012 C4013 1.386 . S
C4012 C4014 1.391 . S
C4013 C4012 1.386 . S
C4013 C4017 1.393 . S
C4014 H4006 0.950 . S
C4014 C4012 1.391 . S
C4014 C4015 1.400 . S
C4015 C4014 1.400 . S
C4015 C4016 1.398 . S
C4015 C4021 1.491 1_455 S
C4016 H4007 0.950 1_455 S
C4016 C4015 1.398 . S
C4016 C4017 1.391 . S
C4017 H4005 0.950 . S
C4017 C4013 1.393 . S
C4017 C4016 1.391 . S
C4018 H4008 0.950 . S
C4018 C4019 1.386 . S
C4018 C4020 1.391 . S
C4019 C4018 1.386 . S
C4019 C4023 1.393 . S
C4020 H4009 0.950 . S
C4020 C4018 1.391 . S
C4020 C4021 1.400 . S
C4021 C4015 1.491 1_655 S
C4021 C4020 1.400 . S
C4021 C4022 1.398 . S
C4022 H4010 0.950 1_655 S
C4022 C4021 1.398 . S
C4022 C4023 1.391 . S
C4023 H4011 0.950 . S
C4023 C4019 1.393 . S
C4023 C4022 1.391 . S
H4024 C4032 0.950 . S
H4025 C4037 0.950 . S
H4026 C4034 0.950 . S
H4027 C4036 0.950 . S
H4028 C4038 0.950 . S
H4029 C4040 0.950 . S
H4030 C4042 0.950 . S
H4031 C4043 0.950 . S
C4032 H4024 0.950 . S
C4032 C4033 1.386 . S
C4032 C4034 1.391 . S
C4033 C4032 1.386 . S
C4033 C4037 1.393 . S
C4034 H4026 0.950 . S
C4034 C4032 1.391 . S
C4034 C4035 1.400 . S
C4035 C4034 1.400 . S
C4035 C4036 1.398 . S
C4035 C4041 1.491 . S
C4036 H4027 0.950 . S
C4036 C4035 1.398 . S
C4036 C4037 1.391 . S
C4037 H4025 0.950 . S
C4037 C4033 1.393 . S
C4037 C4036 1.391 . S
C4038 H4028 0.950 . S
C4038 C4039 1.386 . S
C4038 C4040 1.391 . S
C4039 C4038 1.386 . S
C4039 C4043 1.393 . S
C4040 H4029 0.950 . S
C4040 C4038 1.391 . S
C4040 C4041 1.400 . S
C4041 C4035 1.491 . S
C4041 C4040 1.400 . S
C4041 C4042 1.398 . S
C4042 H4030 0.950 . S
C4042 C4041 1.398 . S
C4042 C4043 1.391 . S
C4043 H4031 0.950 . S
C4043 C4039 1.393 . S
C4043 C4042 1.391 . S
H4044 C4052 0.950 . S
H4045 C4057 0.950 . S
H4046 C4054 0.950 . S
H4047 C4056 0.950 . S
H4048 C4058 0.950 . S
H4049 C4060 0.950 . S
H4050 C4062 0.950 . S
H4051 C4063 0.950 . S
C4052 H4044 0.950 . S
C4052 C4053 1.386 . S
C4052 C4054 1.391 . S
C4053 C4052 1.386 . S
C4053 C4057 1.393 . S
C4054 H4046 0.950 . S
C4054 C4052 1.391 . S
C4054 C4055 1.400 . S
C4055 C4054 1.400 . S
C4055 C4056 1.398 . S
C4055 C4061 1.491 . S
C4056 H4047 0.950 . S
C4056 C4055 1.398 . S
C4056 C4057 1.391 . S
C4057 H4045 0.950 . S
C4057 C4053 1.393 . S
C4057 C4056 1.391 . S
C4058 H4048 0.950 . S
C4058 C4059 1.386 . S
C4058 C4060 1.391 . S
C4059 C4058 1.386 . S
C4059 C4063 1.393 . S
C4060 H4049 0.950 . S
C4060 C4058 1.391 . S
C4060 C4061 1.400 . S
C4061 C4055 1.491 . S
C4061 C4060 1.400 . S
C4061 C4062 1.398 . S
C4062 H4050 0.950 . S
C4062 C4061 1.398 . S
C4062 C4063 1.391 . S
C4063 H4051 0.950 . S
C4063 C4059 1.393 . S
C4063 C4062 1.391 . S
H4064 C4072 0.950 . S
H4065 C4077 0.950 . S
H4066 C4074 0.950 . S
H4067 C4076 0.950 . S
H4068 C4078 0.950 . S
H4069 C4080 0.950 . S
H4070 C4082 0.950 . S
H4071 C4083 0.950 . S
C4072 H4064 0.950 . S
C4072 C4073 1.386 . S
C4072 C4074 1.391 . S
C4073 C4072 1.386 . S
C4073 C4077 1.393 . S
C4074 H4066 0.950 . S
C4074 C4072 1.391 . S
C4074 C4075 1.400 . S
C4075 C4074 1.400 . S
C4075 C4076 1.398 . S
C4075 C4081 1.491 . S
C4076 H4067 0.950 . S
C4076 C4075 1.398 . S
C4076 C4077 1.391 . S
C4077 H4065 0.950 . S
C4077 C4073 1.393 . S
C4077 C4076 1.391 . S
C4078 H4068 0.950 . S
C4078 C4079 1.386 . S
C4078 C4080 1.391 . S
C4079 C4078 1.386 . S
C4079 C4083 1.393 . S
C4080 H4069 0.950 . S
C4080 C4078 1.391 . S
C4080 C4081 1.400 . S
C4081 C4075 1.491 . S
C4081 C4080 1.400 . S
C4081 C4082 1.398 . S
C4082 H4070 0.950 . S
C4082 C4081 1.398 . S
C4082 C4083 1.391 . S
C4083 H4071 0.950 . S
C4083 C4079 1.393 . S
C4083 C4082 1.391 . S
H4084 C4092 0.950 . S
H4085 C4097 0.950 . S
H4086 C4094 0.950 . S
H4087 C4096 0.950 . S
H4088 C4098 0.950 . S
H4089 C4100 0.950 . S
H4090 C4102 0.950 . S
H4091 C4103 0.950 . S
C4092 H4084 0.950 . S
C4092 C4093 1.386 . S
C4092 C4094 1.391 . S
C4093 C4092 1.386 . S
C4093 C4097 1.393 . S
C4094 H4086 0.950 . S
C4094 C4092 1.391 . S
C4094 C4095 1.400 . S
C4095 C4094 1.400 . S
C4095 C4096 1.398 . S
C4095 C4101 1.491 . S
C4096 H4087 0.950 . S
C4096 C4095 1.398 . S
C4096 C4097 1.391 . S
C4097 H4085 0.950 . S
C4097 C4093 1.393 . S
C4097 C4096 1.391 . S
C4098 H4088 0.950 . S
C4098 C4099 1.386 . S
C4098 C4100 1.391 . S
C4099 C4098 1.386 . S
C4099 C4103 1.393 . S
C4100 H4089 0.950 . S
C4100 C4098 1.391 . S
C4100 C4101 1.400 . S
C4101 C4095 1.491 . S
C4101 C4100 1.400 . S
C4101 C4102 1.398 . S
C4102 H4090 0.950 . S
C4102 C4101 1.398 . S
C4102 C4103 1.391 . S
C4103 H4091 0.950 . S
C4103 C4099 1.393 . S
C4103 C4102 1.391 . S
H4104 C4112 0.950 . S
H4105 C4117 0.950 . S
H4106 C4114 0.950 . S
H4107 C4116 0.950 . S
H4108 C4118 0.950 . S
H4109 C4120 0.950 . S
H4110 C4122 0.950 . S
H4111 C4123 0.950 . S
C4112 H4104 0.950 . S
C4112 C4113 1.386 . S
C4112 C4114 1.391 . S
C4113 C4112 1.386 . S
C4113 C4117 1.393 . S
C4114 H4106 0.950 . S
C4114 C4112 1.391 . S
C4114 C4115 1.400 . S
C4115 C4114 1.400 . S
C4115 C4116 1.398 . S
C4115 C4121 1.491 . S
C4116 H4107 0.950 . S
C4116 C4115 1.398 . S
C4116 C4117 1.391 . S
C4117 H4105 0.950 . S
C4117 C4113 1.393 . S
C4117 C4116 1.391 . S
C4118 H4108 0.950 . S
C4118 C4119 1.386 . S
C4118 C4120 1.391 . S
C4119 C4118 1.386 . S
C4119 C4123 1.393 . S
C4120 H4109 0.950 . S
C4120 C4118 1.391 . S
C4120 C4121 1.400 . S
C4121 C4115 1.491 . S
C4121 C4120 1.400 . S
C4121 C4122 1.398 . S
C4122 H4110 0.950 . S
C4122 C4121 1.398 . S
C4122 C4123 1.391 . S
C4123 H4111 0.950 . S
C4123 C4119 1.393 . S
C4123 C4122 1.391 . S
H4124 C4132 0.950 . S
H4125 C4137 0.950 . S
H4126 C4134 0.950 . S
H4127 C4136 0.950 . S
H4128 C4138 0.950 . S
H4129 C4140 0.950 . S
H4130 C4142 0.950 . S
H4131 C4143 0.950 . S
C4132 H4124 0.950 . S
C4132 C4133 1.386 . S
C4132 C4134 1.391 . S
C4133 C4132 1.386 . S
C4133 C4137 1.393 . S
C4134 H4126 0.950 . S
C4134 C4132 1.391 . S
C4134 C4135 1.400 . S
C4135 C4134 1.400 . S
C4135 C4136 1.398 . S
C4135 C4141 1.491 . S
C4136 H4127 0.950 . S
C4136 C4135 1.398 . S
C4136 C4137 1.391 . S
C4137 H4125 0.950 . S
C4137 C4133 1.393 . S
C4137 C4136 1.391 . S
C4138 H4128 0.950 . S
C4138 C4139 1.386 . S
C4138 C4140 1.391 . S
C4139 C4138 1.386 . S
C4139 C4143 1.393 . S
C4140 H4129 0.950 . S
C4140 C4138 1.391 . S
C4140 C4141 1.400 . S
C4141 C4135 1.491 . S
C4141 C4140 1.400 . S
C4141 C4142 1.398 . S
C4142 H4130 0.950 . S
C4142 C4141 1.398 . S
C4142 C4143 1.391 . S
C4143 H4131 0.950 . S
C4143 C4139 1.393 . S
C4143 C4142 1.391 . S
H4144 C4152 0.950 . S
H4145 C4157 0.950 . S
H4146 C4154 0.950 . S
H4147 C4156 0.950 . S
H4148 C4158 0.950 . S
H4149 C4160 0.950 . S
H4150 C4162 0.950 . S
H4151 C4163 0.950 . S
C4152 H4144 0.950 . S
C4152 C4153 1.386 . S
C4152 C4154 1.391 . S
C4153 C4152 1.386 . S
C4153 C4157 1.393 . S
C4154 H4146 0.950 . S
C4154 C4152 1.391 . S
C4154 C4155 1.400 . S
C4155 C4154 1.400 . S
C4155 C4156 1.398 . S
C4155 C4161 1.491 . S
C4156 H4147 0.950 . S
C4156 C4155 1.398 . S
C4156 C4157 1.391 . S
C4157 H4145 0.950 . S
C4157 C4153 1.393 . S
C4157 C4156 1.391 . S
C4158 H4148 0.950 . S
C4158 C4159 1.386 . S
C4158 C4160 1.391 . S
C4159 C4158 1.386 . S
C4159 C4163 1.393 . S
C4160 H4149 0.950 . S
C4160 C4158 1.391 . S
C4160 C4161 1.400 . S
C4161 C4155 1.491 . S
C4161 C4160 1.400 . S
C4161 C4162 1.398 . S
C4162 H4150 0.950 . S
C4162 C4161 1.398 . S
C4162 C4163 1.391 . S
C4163 H4151 0.950 . S
C4163 C4159 1.393 . S
C4163 C4162 1.391 . S
H4164 C4172 0.950 . S
H4165 C4177 0.950 . S
H4166 C4174 0.950 1_655 S
H4167 C4176 0.950 . S
H4168 C4178 0.950 . S
H4169 C4180 0.950 1_455 S
H4170 C4182 0.950 . S
H4171 C4183 0.950 . S
C4172 H4164 0.950 . S
C4172 C4173 1.386 . S
C4172 C4174 1.391 . S
C4173 C4172 1.386 . S
C4173 C4177 1.393 . S
C4174 H4166 0.950 1_455 S
C4174 C4172 1.391 . S
C4174 C4175 1.400 . S
C4175 C4174 1.400 . S
C4175 C4176 1.398 . S
C4175 C4181 1.491 1_455 S
C4176 H4167 0.950 . S
C4176 C4175 1.398 . S
C4176 C4177 1.391 . S
C4177 H4165 0.950 . S
C4177 C4173 1.393 . S
C4177 C4176 1.391 . S
C4178 H4168 0.950 . S
C4178 C4179 1.386 . S
C4178 C4180 1.391 . S
C4179 C4178 1.386 . S
C4179 C4183 1.393 . S
C4180 H4169 0.950 1_655 S
C4180 C4178 1.391 . S
C4180 C4181 1.400 . S
C4181 C4175 1.491 1_655 S
C4181 C4180 1.400 . S
C4181 C4182 1.398 . S
C4182 H4170 0.950 . S
C4182 C4181 1.398 . S
C4182 C4183 1.391 . S
C4183 H4171 0.950 . S
C4183 C4179 1.393 . S
C4183 C4182 1.391 . S
H4184 C4192 0.950 . S
H4185 C4197 0.950 . S
H4186 C4194 0.950 . S
H4187 C4196 0.950 . S
H4188 C4198 0.950 . S
H4189 C4200 0.950 . S
H4190 C4202 0.950 . S
H4191 C4203 0.950 . S
C4192 H4184 0.950 . S
C4192 C4193 1.386 . S
C4192 C4194 1.391 . S
C4193 C4192 1.386 . S
C4193 C4197 1.393 . S
C4194 H4186 0.950 . S
C4194 C4192 1.391 . S
C4194 C4195 1.400 . S
C4195 C4194 1.400 . S
C4195 C4196 1.398 . S
C4195 C4201 1.491 . S
C4196 H4187 0.950 . S
C4196 C4195 1.398 . S
C4196 C4197 1.391 . S
C4197 H4185 0.950 . S
C4197 C4193 1.393 . S
C4197 C4196 1.391 . S
C4198 H4188 0.950 . S
C4198 C4199 1.386 . S
C4198 C4200 1.391 . S
C4199 C4198 1.386 . S
C4199 C4203 1.393 . S
C4200 H4189 0.950 . S
C4200 C4198 1.391 . S
C4200 C4201 1.400 . S
C4201 C4195 1.491 . S
C4201 C4200 1.400 . S
C4201 C4202 1.398 . S
C4202 H4190 0.950 . S
C4202 C4201 1.398 . S
C4202 C4203 1.391 . S
C4203 H4191 0.950 . S
C4203 C4199 1.393 . S
C4203 C4202 1.391 . S
H4204 C4212 0.950 . S
H4205 C4217 0.950 . S
H4206 C4214 0.950 . S
H4207 C4216 0.950 . S
H4208 C4218 0.950 1_455 S
H4209 C4220 0.950 . S
H4210 C4222 0.950 . S
H4211 C4223 0.950 . S
C4212 H4204 0.950 . S
C4212 C4213 1.386 1_545 S
C4212 C4214 1.391 . S
C4213 C4212 1.386 1_565 S
C4213 C4217 1.393 . S
C4214 H4206 0.950 . S
C4214 C4212 1.391 . S
C4214 C4215 1.400 . S
C4215 C4214 1.400 . S
C4215 C4216 1.398 . S
C4215 C4221 1.491 . S
C4216 H4207 0.950 . S
C4216 C4215 1.398 . S
C4216 C4217 1.391 1_545 S
C4217 H4205 0.950 . S
C4217 C4213 1.393 . S
C4217 C4216 1.391 1_565 S
C4218 H4208 0.950 1_655 S
C4218 C4219 1.386 . S
C4218 C4220 1.391 . S
C4219 C4218 1.386 . S
C4219 C4223 1.393 . S
C4220 H4209 0.950 . S
C4220 C4218 1.391 . S
C4220 C4221 1.400 . S
C4221 C4215 1.491 . S
C4221 C4220 1.400 . S
C4221 C4222 1.398 . S
C4222 H4210 0.950 . S
C4222 C4221 1.398 . S
C4222 C4223 1.391 . S
C4223 H4211 0.950 . S
C4223 C4219 1.393 . S
C4223 C4222 1.391 . S
H4224 C4232 0.950 . S
H4225 C4237 0.950 . S
H4226 C4234 0.950 . S
H4227 C4236 0.950 . S
H4228 C4238 0.950 . S
H4229 C4240 0.950 . S
H4230 C4242 0.950 . S
H4231 C4243 0.950 . S
C4232 H4224 0.950 . S
C4232 C4233 1.386 . S
C4232 C4234 1.391 . S
C4233 C4232 1.386 . S
C4233 C4237 1.393 . S
C4234 H4226 0.950 . S
C4234 C4232 1.391 . S
C4234 C4235 1.400 . S
C4235 C4234 1.400 . S
C4235 C4236 1.398 . S
C4235 C4241 1.491 . S
C4236 H4227 0.950 . S
C4236 C4235 1.398 . S
C4236 C4237 1.391 . S
C4237 H4225 0.950 . S
C4237 C4233 1.393 . S
C4237 C4236 1.391 . S
C4238 H4228 0.950 . S
C4238 C4239 1.386 . S
C4238 C4240 1.391 . S
C4239 C4238 1.386 . S
C4239 C4243 1.393 . S
C4240 H4229 0.950 . S
C4240 C4238 1.391 . S
C4240 C4241 1.400 . S
C4241 C4235 1.491 . S
C4241 C4240 1.400 . S
C4241 C4242 1.398 . S
C4242 H4230 0.950 . S
C4242 C4241 1.398 . S
C4242 C4243 1.391 . S
C4243 H4231 0.950 . S
C4243 C4239 1.393 . S
C4243 C4242 1.391 . S
H4244 C4252 0.950 . S
H4245 C4257 0.950 . S
H4246 C4254 0.950 . S
H4247 C4256 0.950 . S
H4248 C4258 0.950 . S
H4249 C4260 0.950 . S
H4250 C4262 0.950 . S
H4251 C4263 0.950 . S
C4252 H4244 0.950 . S
C4252 C4253 1.386 . S
C4252 C4254 1.391 . S
C4253 C4252 1.386 . S
C4253 C4257 1.393 . S
C4254 H4246 0.950 . S
C4254 C4252 1.391 . S
C4254 C4255 1.400 . S
C4255 C4254 1.400 . S
C4255 C4256 1.398 . S
C4255 C4261 1.491 . S
C4256 H4247 0.950 . S
C4256 C4255 1.398 . S
C4256 C4257 1.391 . S
C4257 H4245 0.950 . S
C4257 C4253 1.393 . S
C4257 C4256 1.391 . S
C4258 H4248 0.950 . S
C4258 C4259 1.386 . S
C4258 C4260 1.391 . S
C4259 C4258 1.386 . S
C4259 C4263 1.393 . S
C4260 H4249 0.950 . S
C4260 C4258 1.391 . S
C4260 C4261 1.400 . S
C4261 C4255 1.491 . S
C4261 C4260 1.400 . S
C4261 C4262 1.398 . S
C4262 H4250 0.950 . S
C4262 C4261 1.398 . S
C4262 C4263 1.391 . S
C4263 H4251 0.950 . S
C4263 C4259 1.393 . S
C4263 C4262 1.391 . S
H4264 C4272 0.950 . S
H4265 C4277 0.950 . S
H4266 C4274 0.950 . S
H4267 C4276 0.950 . S
H4268 C4278 0.950 . S
H4269 C4280 0.950 . S
H4270 C4282 0.950 . S
H4271 C4283 0.950 . S
C4272 H4264 0.950 . S
C4272 C4273 1.386 . S
C4272 C4274 1.391 . S
C4273 C4272 1.386 . S
C4273 C4277 1.393 . S
C4274 H4266 0.950 . S
C4274 C4272 1.391 . S
C4274 C4275 1.400 . S
C4275 C4274 1.400 . S
C4275 C4276 1.398 . S
C4275 C4281 1.491 . S
C4276 H4267 0.950 . S
C4276 C4275 1.398 . S
C4276 C4277 1.391 . S
C4277 H4265 0.950 . S
C4277 C4273 1.393 . S
C4277 C4276 1.391 . S
C4278 H4268 0.950 . S
C4278 C4279 1.386 . S
C4278 C4280 1.391 . S
C4279 C4278 1.386 . S
C4279 C4283 1.393 . S
C4280 H4269 0.950 . S
C4280 C4278 1.391 . S
C4280 C4281 1.400 . S
C4281 C4275 1.491 . S
C4281 C4280 1.400 . S
C4281 C4282 1.398 . S
C4282 H4270 0.950 . S
C4282 C4281 1.398 . S
C4282 C4283 1.391 . S
C4283 H4271 0.950 . S
C4283 C4279 1.393 . S
C4283 C4282 1.391 . S
H4284 C4292 0.950 . S
H4285 C4297 0.950 . S
H4286 C4294 0.950 . S
H4287 C4296 0.950 . S
H4288 C4298 0.950 . S
H4289 C4300 0.950 . S
H4290 C4302 0.950 . S
H4291 C4303 0.950 . S
C4292 H4284 0.950 . S
C4292 C4293 1.386 . S
C4292 C4294 1.391 . S
C4293 C4292 1.386 . S
C4293 C4297 1.393 . S
C4294 H4286 0.950 . S
C4294 C4292 1.391 . S
C4294 C4295 1.400 . S
C4295 C4294 1.400 . S
C4295 C4296 1.398 . S
C4295 C4301 1.491 . S
C4296 H4287 0.950 . S
C4296 C4295 1.398 . S
C4296 C4297 1.391 . S
C4297 H4285 0.950 . S
C4297 C4293 1.393 . S
C4297 C4296 1.391 . S
C4298 H4288 0.950 . S
C4298 C4299 1.386 1_455 S
C4298 C4300 1.391 . S
C4299 C4298 1.386 1_655 S
C4299 C4303 1.393 . S
C4300 H4289 0.950 . S
C4300 C4298 1.391 . S
C4300 C4301 1.400 . S
C4301 C4295 1.491 . S
C4301 C4300 1.400 . S
C4301 C4302 1.398 . S
C4302 H4290 0.950 . S
C4302 C4301 1.398 . S
C4302 C4303 1.391 1_455 S
C4303 H4291 0.950 . S
C4303 C4299 1.393 . S
C4303 C4302 1.391 1_655 S
H4304 C4312 0.961 . S
H4305 C4317 0.950 . S
H4306 C4314 0.950 . S
H4307 C4316 0.950 . S
H4308 C4318 0.950 . S
H4309 C4320 0.950 . S
H4310 C4322 0.950 . S
H4311 C4323 0.950 . S
C4312 H4304 0.961 . S
C4312 C4313 1.386 . S
C4312 C4314 1.391 . S
C4313 C4312 1.386 . S
C4313 C4317 1.393 . S
C4314 H4306 0.950 . S
C4314 C4312 1.391 . S
C4314 C4315 1.400 . S
C4315 C4314 1.400 . S
C4315 C4316 1.398 . S
C4315 C4321 1.491 . S
C4316 H4307 0.950 . S
C4316 C4315 1.398 . S
C4316 C4317 1.391 . S
C4317 H4305 0.950 . S
C4317 C4313 1.393 . S
C4317 C4316 1.391 . S
C4318 H4308 0.950 . S
C4318 C4319 1.386 . S
C4318 C4320 1.391 . S
C4319 C4318 1.386 . S
C4319 C4323 1.393 . S
C4320 H4309 0.950 . S
C4320 C4318 1.391 . S
C4320 C4321 1.400 . S
C4321 C4315 1.491 . S
C4321 C4320 1.400 . S
C4321 C4322 1.398 . S
C4322 H4310 0.950 . S
C4322 C4321 1.398 . S
C4322 C4323 1.391 . S
C4323 H4311 0.950 . S
C4323 C4319 1.393 . S
C4323 C4322 1.391 . S
H4324 C4332 0.950 . S
H4325 C4337 0.950 . S
H4326 C4334 0.950 1_565 S
H4327 C4336 0.950 . S
H4328 C4338 0.950 . S
H4329 C4340 0.950 1_545 S
H4330 C4342 0.950 . S
H4331 C4343 0.950 . S
C4332 H4324 0.950 . S
C4332 C4333 1.386 . S
C4332 C4334 1.391 . S
C4333 C4332 1.386 . S
C4333 C4337 1.393 . S
C4334 H4326 0.950 1_545 S
C4334 C4332 1.391 . S
C4334 C4335 1.400 . S
C4335 C4334 1.400 . S
C4335 C4336 1.398 . S
C4335 C4341 1.491 1_545 S
C4336 H4327 0.950 . S
C4336 C4335 1.398 . S
C4336 C4337 1.391 . S
C4337 H4325 0.950 . S
C4337 C4333 1.393 . S
C4337 C4336 1.391 . S
C4338 H4328 0.950 . S
C4338 C4339 1.386 . S
C4338 C4340 1.391 . S
C4339 C4338 1.386 . S
C4339 C4343 1.393 . S
C4340 H4329 0.950 1_565 S
C4340 C4338 1.391 . S
C4340 C4341 1.400 . S
C4341 C4335 1.491 1_565 S
C4341 C4340 1.400 . S
C4341 C4342 1.398 . S
C4342 H4330 0.950 . S
C4342 C4341 1.398 . S
C4342 C4343 1.391 . S
C4343 H4331 0.950 . S
C4343 C4339 1.393 . S
C4343 C4342 1.391 . S
H4344 C4352 0.950 . S
H4345 C4357 0.950 . S
H4346 C4354 0.950 1_545 S
H4347 C4356 0.950 . S
H4348 C4358 0.950 . S
H4349 C4360 0.950 1_565 S
H4350 C4362 0.950 . S
H4351 C4363 0.950 . S
C4352 H4344 0.950 . S
C4352 C4353 1.386 . S
C4352 C4354 1.391 . S
C4353 C4352 1.386 . S
C4353 C4357 1.393 . S
C4354 H4346 0.950 1_565 S
C4354 C4352 1.391 . S
C4354 C4355 1.400 . S
C4355 C4354 1.400 . S
C4355 C4356 1.398 . S
C4355 C4361 1.491 1_565 S
C4356 H4347 0.950 . S
C4356 C4355 1.398 . S
C4356 C4357 1.391 . S
C4357 H4345 0.950 . S
C4357 C4353 1.393 . S
C4357 C4356 1.391 . S
C4358 H4348 0.950 . S
C4358 C4359 1.386 . S
C4358 C4360 1.391 . S
C4359 C4358 1.386 . S
C4359 C4363 1.393 . S
C4360 H4349 0.950 1_545 S
C4360 C4358 1.391 . S
C4360 C4361 1.400 . S
C4361 C4355 1.491 1_545 S
C4361 C4360 1.400 . S
C4361 C4362 1.398 . S
C4362 H4350 0.950 . S
C4362 C4361 1.398 . S
C4362 C4363 1.391 . S
C4363 H4351 0.950 . S
C4363 C4359 1.393 . S
C4363 C4362 1.391 . S
H4364 C4372 0.950 1_545 S
H4365 C4377 0.950 . S
H4366 C4374 0.950 . S
H4367 C4376 0.950 . S
H4368 C4378 0.950 . S
H4369 C4380 0.950 . S
H4370 C4382 0.950 . S
H4371 C4383 0.950 . S
C4372 H4364 0.950 1_565 S
C4372 C4373 1.386 . S
C4372 C4374 1.391 . S
C4373 C4372 1.386 . S
C4373 C4377 1.393 . S
C4374 H4366 0.950 . S
C4374 C4372 1.391 . S
C4374 C4375 1.400 . S
C4375 C4374 1.400 . S
C4375 C4376 1.398 . S
C4375 C4381 1.491 . S
C4376 H4367 0.950 . S
C4376 C4375 1.398 . S
C4376 C4377 1.391 . S
C4377 H4365 0.950 . S
C4377 C4373 1.393 . S
C4377 C4376 1.391 . S
C4378 H4368 0.950 . S
C4378 C4379 1.386 1_455 S
C4378 C4380 1.391 . S
C4379 C4378 1.386 1_655 S
C4379 C4383 1.393 . S
C4380 H4369 0.950 . S
C4380 C4378 1.391 . S
C4380 C4381 1.400 . S
C4381 C4375 1.491 . S
C4381 C4380 1.400 . S
C4381 C4382 1.398 . S
C4382 H4370 0.950 . S
C4382 C4381 1.398 . S
C4382 C4383 1.391 1_455 S
C4383 H4371 0.950 . S
C4383 C4379 1.393 . S
C4383 C4382 1.391 1_655 S
H4384 C4392 0.950 . S
H4385 C4397 0.950 . S
H4386 C4394 0.950 . S
H4387 C4396 0.950 . S
H4388 C4398 0.950 . S
H4389 C4400 0.950 . S
H4390 C4402 0.950 . S
H4391 C4403 0.950 . S
C4392 H4384 0.950 . S
C4392 C4393 1.386 . S
C4392 C4394 1.391 . S
C4393 C4392 1.386 . S
C4393 C4397 1.393 . S
C4394 H4386 0.950 . S
C4394 C4392 1.391 . S
C4394 C4395 1.400 . S
C4395 C4394 1.400 . S
C4395 C4396 1.398 . S
C4395 C4401 1.491 . S
C4396 H4387 0.950 . S
C4396 C4395 1.398 . S
C4396 C4397 1.391 . S
C4397 H4385 0.950 . S
C4397 C4393 1.393 . S
C4397 C4396 1.391 . S
C4398 H4388 0.950 . S
C4398 C4399 1.386 . S
C4398 C4400 1.391 . S
C4399 C4398 1.386 . S
C4399 C4403 1.393 . S
C4400 H4389 0.950 . S
C4400 C4398 1.391 . S
C4400 C4401 1.400 . S
C4401 C4395 1.491 . S
C4401 C4400 1.400 . S
C4401 C4402 1.398 . S
C4402 H4390 0.950 . S
C4402 C4401 1.398 . S
C4402 C4403 1.391 . S
C4403 H4391 0.950 . S
C4403 C4399 1.393 . S
C4403 C4402 1.391 . S
H4404 C4412 0.950 . S
H4405 C4417 0.950 . S
H4406 C4414 0.950 . S
H4407 C4416 0.950 . S
H4408 C4418 0.950 . S
H4409 C4420 0.950 . S
H4410 C4422 0.950 . S
H4411 C4423 0.950 . S
C4412 H4404 0.950 . S
C4412 C4413 1.386 . S
C4412 C4414 1.391 . S
C4413 C4412 1.386 . S
C4413 C4417 1.393 . S
C4414 H4406 0.950 . S
C4414 C4412 1.391 . S
C4414 C4415 1.400 . S
C4415 C4414 1.400 . S
C4415 C4416 1.398 . S
C4415 C4421 1.491 . S
C4416 H4407 0.950 . S
C4416 C4415 1.398 . S
C4416 C4417 1.391 . S
C4417 H4405 0.950 . S
C4417 C4413 1.393 . S
C4417 C4416 1.391 . S
C4418 H4408 0.950 . S
C4418 C4419 1.386 . S
C4418 C4420 1.391 . S
C4419 C4418 1.386 . S
C4419 C4423 1.393 . S
C4420 H4409 0.950 . S
C4420 C4418 1.391 . S
C4420 C4421 1.400 . S
C4421 C4415 1.491 . S
C4421 C4420 1.400 . S
C4421 C4422 1.398 . S
C4422 H4410 0.950 . S
C4422 C4421 1.398 . S
C4422 C4423 1.391 . S
C4423 H4411 0.950 . S
C4423 C4419 1.393 . S
C4423 C4422 1.391 . S
H4424 C4432 0.950 . S
H4425 C4437 0.950 . S
H4426 C4434 0.950 . S
H4427 C4436 0.950 . S
H4428 C4438 0.950 . S
H4429 C4440 0.950 . S
H4430 C4442 0.950 . S
H4431 C4443 0.950 . S
C4432 H4424 0.950 . S
C4432 C4433 1.386 . S
C4432 C4434 1.391 . S
C4433 C4432 1.386 . S
C4433 C4437 1.393 . S
C4434 H4426 0.950 . S
C4434 C4432 1.391 . S
C4434 C4435 1.400 . S
C4435 C4434 1.400 . S
C4435 C4436 1.398 . S
C4435 C4441 1.491 . S
C4436 H4427 0.950 . S
C4436 C4435 1.398 . S
C4436 C4437 1.391 . S
C4437 H4425 0.950 . S
C4437 C4433 1.393 . S
C4437 C4436 1.391 . S
C4438 H4428 0.950 . S
C4438 C4439 1.386 . S
C4438 C4440 1.391 . S
C4439 C4438 1.386 . S
C4439 C4443 1.393 . S
C4440 H4429 0.950 . S
C4440 C4438 1.391 . S
C4440 C4441 1.400 . S
C4441 C4435 1.491 . S
C4441 C4440 1.400 . S
C4441 C4442 1.398 . S
C4442 H4430 0.950 . S
C4442 C4441 1.398 . S
C4442 C4443 1.391 . S
C4443 H4431 0.950 . S
C4443 C4439 1.393 . S
C4443 C4442 1.391 . S
H4444 C4452 0.950 . S
H4445 C4457 0.950 . S
H4446 C4454 0.950 . S
H4447 C4456 0.950 . S
H4448 C4458 0.950 . S
H4449 C4460 0.950 . S
H4450 C4462 0.950 . S
H4451 C4463 0.950 . S
C4452 H4444 0.950 . S
C4452 C4453 1.386 . S
C4452 C4454 1.391 . S
C4453 C4452 1.386 . S
C4453 C4457 1.393 . S
C4454 H4446 0.950 . S
C4454 C4452 1.391 . S
C4454 C4455 1.400 . S
C4455 C4454 1.400 . S
C4455 C4456 1.398 . S
C4455 C4461 1.491 . S
C4456 H4447 0.950 . S
C4456 C4455 1.398 . S
C4456 C4457 1.391 . S
C4457 H4445 0.950 . S
C4457 C4453 1.393 . S
C4457 C4456 1.391 . S
C4458 H4448 0.950 . S
C4458 C4459 1.386 . S
C4458 C4460 1.391 . S
C4459 C4458 1.386 . S
C4459 C4463 1.393 . S
C4460 H4449 0.950 . S
C4460 C4458 1.391 . S
C4460 C4461 1.400 . S
C4461 C4455 1.491 . S
C4461 C4460 1.400 . S
C4461 C4462 1.398 . S
C4462 H4450 0.950 . S
C4462 C4461 1.398 . S
C4462 C4463 1.391 . S
C4463 H4451 0.950 . S
C4463 C4459 1.393 . S
C4463 C4462 1.391 . S
H4464 C4472 0.950 . S
H4465 C4477 0.950 . S
H4466 C4474 0.950 . S
H4467 C4476 0.950 . S
H4468 C4478 0.950 . S
H4469 C4480 0.950 . S
H4470 C4482 0.950 . S
H4471 C4483 0.950 . S
C4472 H4464 0.950 . S
C4472 C4473 1.386 . S
C4472 C4474 1.391 . S
C4473 C4472 1.386 . S
C4473 C4477 1.393 . S
C4474 H4466 0.950 . S
C4474 C4472 1.391 . S
C4474 C4475 1.400 . S
C4475 C4474 1.400 . S
C4475 C4476 1.398 . S
C4475 C4481 1.491 . S
C4476 H4467 0.950 . S
C4476 C4475 1.398 . S
C4476 C4477 1.391 . S
C4477 H4465 0.950 . S
C4477 C4473 1.393 . S
C4477 C4476 1.391 . S
C4478 H4468 0.950 . S
C4478 C4479 1.386 . S
C4478 C4480 1.391 . S
C4479 C4478 1.386 . S
C4479 C4483 1.393 . S
C4480 H4469 0.950 . S
C4480 C4478 1.391 . S
C4480 C4481 1.400 . S
C4481 C4475 1.491 . S
C4481 C4480 1.400 . S
C4481 C4482 1.398 . S
C4482 H4470 0.950 . S
C4482 C4481 1.398 . S
C4482 C4483 1.391 . S
C4483 H4471 0.950 . S
C4483 C4479 1.393 . S
C4483 C4482 1.391 . S
H4484 C4492 0.950 . S
H4485 C4497 0.950 . S
H4486 C4494 0.950 . S
H4487 C4496 0.950 . S
H4488 C4498 0.950 . S
H4489 C4500 0.950 . S
H4490 C4502 0.950 . S
H4491 C4503 0.950 . S
C4492 H4484 0.950 . S
C4492 C4493 1.386 . S
C4492 C4494 1.391 . S
C4493 C4492 1.386 . S
C4493 C4497 1.393 . S
C4494 H4486 0.950 . S
C4494 C4492 1.391 . S
C4494 C4495 1.400 . S
C4495 C4494 1.400 . S
C4495 C4496 1.398 . S
C4495 C4501 1.491 . S
C4496 H4487 0.950 . S
C4496 C4495 1.398 . S
C4496 C4497 1.391 . S
C4497 H4485 0.950 . S
C4497 C4493 1.393 . S
C4497 C4496 1.391 . S
C4498 H4488 0.950 . S
C4498 C4499 1.386 . S
C4498 C4500 1.391 . S
C4499 C4498 1.386 . S
C4499 C4503 1.393 . S
C4500 H4489 0.950 . S
C4500 C4498 1.391 . S
C4500 C4501 1.400 . S
C4501 C4495 1.491 . S
C4501 C4500 1.400 . S
C4501 C4502 1.398 . S
C4502 H4490 0.950 . S
C4502 C4501 1.398 . S
C4502 C4503 1.391 . S
C4503 H4491 0.950 . S
C4503 C4499 1.393 . S
C4503 C4502 1.391 . S
H4504 C4512 0.950 . S
H4505 C4517 0.950 . S
H4506 C4514 0.950 . S
H4507 C4516 0.950 . S
H4508 C4518 0.950 . S
H4509 C4520 0.950 . S
H4510 C4522 0.950 . S
H4511 C4523 0.950 . S
C4512 H4504 0.950 . S
C4512 C4513 1.386 . S
C4512 C4514 1.391 . S
C4513 C4512 1.386 . S
C4513 C4517 1.393 . S
C4514 H4506 0.950 . S
C4514 C4512 1.391 . S
C4514 C4515 1.400 . S
C4515 C4514 1.400 . S
C4515 C4516 1.398 . S
C4515 C4521 1.491 . S
C4516 H4507 0.950 . S
C4516 C4515 1.398 . S
C4516 C4517 1.391 . S
C4517 H4505 0.950 . S
C4517 C4513 1.393 . S
C4517 C4516 1.391 . S
C4518 H4508 0.950 . S
C4518 C4519 1.386 . S
C4518 C4520 1.391 . S
C4519 C4518 1.386 . S
C4519 C4523 1.393 . S
C4520 H4509 0.950 . S
C4520 C4518 1.391 . S
C4520 C4521 1.400 . S
C4521 C4515 1.491 . S
C4521 C4520 1.400 . S
C4521 C4522 1.398 . S
C4522 H4510 0.950 . S
C4522 C4521 1.398 . S
C4522 C4523 1.391 . S
C4523 H4511 0.950 . S
C4523 C4519 1.393 . S
C4523 C4522 1.391 . S
H4524 C4532 0.950 . S
H4525 C4537 0.950 . S
H4526 C4534 0.950 . S
H4527 C4536 0.950 . S
H4528 C4538 0.950 . S
H4529 C4540 0.950 . S
H4530 C4542 0.950 . S
H4531 C4543 0.950 . S
C4532 H4524 0.950 . S
C4532 C4533 1.386 . S
C4532 C4534 1.391 . S
C4533 C4532 1.386 . S
C4533 C4537 1.393 . S
C4534 H4526 0.950 . S
C4534 C4532 1.391 . S
C4534 C4535 1.400 . S
C4535 C4534 1.400 . S
C4535 C4536 1.398 . S
C4535 C4541 1.491 . S
C4536 H4527 0.950 . S
C4536 C4535 1.398 . S
C4536 C4537 1.391 . S
C4537 H4525 0.950 . S
C4537 C4533 1.393 . S
C4537 C4536 1.391 . S
C4538 H4528 0.950 . S
C4538 C4539 1.386 . S
C4538 C4540 1.391 . S
C4539 C4538 1.386 . S
C4539 C4543 1.393 . S
C4540 H4529 0.950 . S
C4540 C4538 1.391 . S
C4540 C4541 1.400 . S
C4541 C4535 1.491 . S
C4541 C4540 1.400 . S
C4541 C4542 1.398 . S
C4542 H4530 0.950 . S
C4542 C4541 1.398 . S
C4542 C4543 1.391 . S
C4543 H4531 0.950 . S
C4543 C4539 1.393 . S
C4543 C4542 1.391 . S
H4544 C4552 0.950 . S
H4545 C4557 0.950 . S
H4546 C4554 0.950 . S
H4547 C4556 0.950 . S
H4548 C4558 0.950 . S
H4549 C4560 0.950 . S
H4550 C4562 0.950 . S
H4551 C4563 0.950 . S
C4552 H4544 0.950 . S
C4552 C4553 1.386 . S
C4552 C4554 1.391 . S
C4553 C4552 1.386 . S
C4553 C4557 1.393 . S
C4554 H4546 0.950 . S
C4554 C4552 1.391 . S
C4554 C4555 1.400 . S
C4555 C4554 1.400 . S
C4555 C4556 1.398 . S
C4555 C4561 1.491 . S
C4556 H4547 0.950 . S
C4556 C4555 1.398 . S
C4556 C4557 1.391 . S
C4557 H4545 0.950 . S
C4557 C4553 1.393 . S
C4557 C4556 1.391 . S
C4558 H4548 0.950 . S
C4558 C4559 1.386 . S
C4558 C4560 1.391 . S
C4559 C4558 1.386 . S
C4559 C4563 1.393 . S
C4560 H4549 0.950 . S
C4560 C4558 1.391 . S
C4560 C4561 1.400 . S
C4561 C4555 1.491 . S
C4561 C4560 1.400 . S
C4561 C4562 1.398 . S
C4562 H4550 0.950 . S
C4562 C4561 1.398 . S
C4562 C4563 1.391 . S
C4563 H4551 0.950 . S
C4563 C4559 1.393 . S
C4563 C4562 1.391 . S
H4564 C4572 0.950 . S
H4565 C4577 0.950 . S
H4566 C4574 0.950 . S
H4567 C4576 0.950 . S
H4568 C4578 0.950 . S
H4569 C4580 0.950 . S
H4570 C4582 0.950 . S
H4571 C4583 0.950 . S
C4572 H4564 0.950 . S
C4572 C4573 1.386 . S
C4572 C4574 1.391 . S
C4573 C4572 1.386 . S
C4573 C4577 1.393 . S
C4574 H4566 0.950 . S
C4574 C4572 1.391 . S
C4574 C4575 1.400 . S
C4575 C4574 1.400 . S
C4575 C4576 1.398 . S
C4575 C4581 1.491 . S
C4576 H4567 0.950 . S
C4576 C4575 1.398 . S
C4576 C4577 1.391 . S
C4577 H4565 0.950 . S
C4577 C4573 1.393 . S
C4577 C4576 1.391 . S
C4578 H4568 0.950 . S
C4578 C4579 1.386 . S
C4578 C4580 1.391 . S
C4579 C4578 1.386 . S
C4579 C4583 1.393 . S
C4580 H4569 0.950 . S
C4580 C4578 1.391 . S
C4580 C4581 1.400 . S
C4581 C4575 1.491 . S
C4581 C4580 1.400 . S
C4581 C4582 1.398 . S
C4582 H4570 0.950 . S
C4582 C4581 1.398 . S
C4582 C4583 1.391 . S
C4583 H4571 0.950 . S
C4583 C4579 1.393 . S
C4583 C4582 1.391 . S
H4584 C4592 0.950 . S
H4585 C4597 0.950 . S
H4586 C4594 0.950 . S
H4587 C4596 0.950 . S
H4588 C4598 0.950 . S
H4589 C4600 0.950 . S
H4590 C4602 0.950 . S
H4591 C4603 0.950 . S
C4592 H4584 0.950 . S
C4592 C4593 1.386 . S
C4592 C4594 1.391 . S
C4593 C4592 1.386 . S
C4593 C4597 1.393 . S
C4594 H4586 0.950 . S
C4594 C4592 1.391 . S
C4594 C4595 1.400 . S
C4595 C4594 1.400 . S
C4595 C4596 1.398 . S
C4595 C4601 1.491 . S
C4596 H4587 0.950 . S
C4596 C4595 1.398 . S
C4596 C4597 1.391 . S
C4597 H4585 0.950 . S
C4597 C4593 1.393 . S
C4597 C4596 1.391 . S
C4598 H4588 0.950 . S
C4598 C4599 1.386 . S
C4598 C4600 1.391 . S
C4599 C4598 1.386 . S
C4599 C4603 1.393 . S
C4600 H4589 0.950 . S
C4600 C4598 1.391 . S
C4600 C4601 1.400 . S
C4601 C4595 1.491 . S
C4601 C4600 1.400 . S
C4601 C4602 1.398 . S
C4602 H4590 0.950 . S
C4602 C4601 1.398 . S
C4602 C4603 1.391 . S
C4603 H4591 0.950 . S
C4603 C4599 1.393 . S
C4603 C4602 1.391 . S
H4604 C4612 0.950 . S
H4605 C4617 0.950 . S
H4606 C4614 0.950 . S
H4607 C4616 0.950 . S
H4608 C4618 0.950 . S
H4609 C4620 0.950 . S
H4610 C4622 0.950 . S
H4611 C4623 0.950 . S
C4612 H4604 0.950 . S
C4612 C4613 1.386 . S
C4612 C4614 1.391 . S
C4613 C4612 1.386 . S
C4613 C4617 1.393 . S
C4614 H4606 0.950 . S
C4614 C4612 1.391 . S
C4614 C4615 1.400 . S
C4615 C4614 1.400 . S
C4615 C4616 1.398 . S
C4615 C4621 1.491 . S
C4616 H4607 0.950 . S
C4616 C4615 1.398 . S
C4616 C4617 1.391 . S
C4617 H4605 0.950 . S
C4617 C4613 1.393 . S
C4617 C4616 1.391 . S
C4618 H4608 0.950 . S
C4618 C4619 1.386 . S
C4618 C4620 1.391 . S
C4619 C4618 1.386 . S
C4619 C4623 1.393 . S
C4620 H4609 0.950 . S
C4620 C4618 1.391 . S
C4620 C4621 1.400 . S
C4621 C4615 1.491 . S
C4621 C4620 1.400 . S
C4621 C4622 1.398 . S
C4622 H4610 0.950 . S
C4622 C4621 1.398 . S
C4622 C4623 1.391 . S
C4623 H4611 0.950 . S
C4623 C4619 1.393 . S
C4623 C4622 1.391 . S
H4624 C4632 0.950 . S
H4625 C4637 0.950 . S
H4626 C4634 0.950 . S
H4627 C4636 0.950 . S
H4628 C4638 0.950 . S
H4629 C4640 0.950 . S
H4630 C4642 0.950 . S
H4631 C4643 0.950 . S
C4632 H4624 0.950 . S
C4632 C4633 1.386 . S
C4632 C4634 1.391 . S
C4633 C4632 1.386 . S
C4633 C4637 1.393 . S
C4634 H4626 0.950 . S
C4634 C4632 1.391 . S
C4634 C4635 1.400 . S
C4635 C4634 1.400 . S
C4635 C4636 1.398 . S
C4635 C4641 1.491 . S
C4636 H4627 0.950 . S
C4636 C4635 1.398 . S
C4636 C4637 1.391 . S
C4637 H4625 0.950 . S
C4637 C4633 1.393 . S
C4637 C4636 1.391 . S
C4638 H4628 0.950 . S
C4638 C4639 1.386 . S
C4638 C4640 1.391 . S
C4639 C4638 1.386 . S
C4639 C4643 1.393 . S
C4640 H4629 0.950 . S
C4640 C4638 1.391 . S
C4640 C4641 1.400 . S
C4641 C4635 1.491 . S
C4641 C4640 1.400 . S
C4641 C4642 1.398 . S
C4642 H4630 0.950 . S
C4642 C4641 1.398 . S
C4642 C4643 1.391 . S
C4643 H4631 0.950 . S
C4643 C4639 1.393 . S
C4643 C4642 1.391 . S
H4644 C4652 0.950 . S
H4645 C4657 0.950 . S
H4646 C4654 0.950 . S
H4647 C4656 0.950 . S
H4648 C4658 0.950 . S
H4649 C4660 0.950 . S
H4650 C4662 0.950 . S
H4651 C4663 0.950 . S
C4652 H4644 0.950 . S
C4652 C4653 1.386 . S
C4652 C4654 1.391 . S
C4653 C4652 1.386 . S
C4653 C4657 1.393 . S
C4654 H4646 0.950 . S
C4654 C4652 1.391 . S
C4654 C4655 1.400 . S
C4655 C4654 1.400 . S
C4655 C4656 1.398 . S
C4655 C4661 1.491 . S
C4656 H4647 0.950 . S
C4656 C4655 1.398 . S
C4656 C4657 1.391 . S
C4657 H4645 0.950 . S
C4657 C4653 1.393 . S
C4657 C4656 1.391 . S
C4658 H4648 0.950 . S
C4658 C4659 1.386 . S
C4658 C4660 1.391 . S
C4659 C4658 1.386 . S
C4659 C4663 1.393 . S
C4660 H4649 0.950 . S
C4660 C4658 1.391 . S
C4660 C4661 1.400 . S
C4661 C4655 1.491 . S
C4661 C4660 1.400 . S
C4661 C4662 1.398 . S
C4662 H4650 0.950 . S
C4662 C4661 1.398 . S
C4662 C4663 1.391 . S
C4663 H4651 0.950 . S
C4663 C4659 1.393 . S
C4663 C4662 1.391 . S
H4664 C4672 0.950 . S
H4665 C4677 0.950 . S
H4666 C4674 0.950 . S
H4667 C4676 0.950 . S
H4668 C4678 0.950 . S
H4669 C4680 0.950 . S
H4670 C4682 0.950 . S
H4671 C4683 0.950 . S
C4672 H4664 0.950 . S
C4672 C4673 1.386 . S
C4672 C4674 1.391 . S
C4673 C4672 1.386 . S
C4673 C4677 1.393 . S
C4674 H4666 0.950 . S
C4674 C4672 1.391 . S
C4674 C4675 1.400 . S
C4675 C4674 1.400 . S
C4675 C4676 1.398 . S
C4675 C4681 1.491 . S
C4676 H4667 0.950 . S
C4676 C4675 1.398 . S
C4676 C4677 1.391 . S
C4677 H4665 0.950 . S
C4677 C4673 1.393 . S
C4677 C4676 1.391 . S
C4678 H4668 0.950 . S
C4678 C4679 1.386 . S
C4678 C4680 1.391 . S
C4679 C4678 1.386 . S
C4679 C4683 1.393 . S
C4680 H4669 0.950 . S
C4680 C4678 1.391 . S
C4680 C4681 1.400 . S
C4681 C4675 1.491 . S
C4681 C4680 1.400 . S
C4681 C4682 1.398 . S
C4682 H4670 0.950 . S
C4682 C4681 1.398 . S
C4682 C4683 1.391 . S
C4683 H4671 0.950 . S
C4683 C4679 1.393 . S
C4683 C4682 1.391 . S
H4684 C4692 0.950 . S
H4685 C4697 0.950 . S
H4686 C4694 0.950 . S
H4687 C4696 0.950 . S
H4688 C4698 0.950 . S
H4689 C4700 0.950 . S
H4690 C4702 0.950 . S
H4691 C4703 0.950 . S
C4692 H4684 0.950 . S
C4692 C4693 1.386 . S
C4692 C4694 1.391 . S
C4693 C4692 1.386 . S
C4693 C4697 1.393 . S
C4694 H4686 0.950 . S
C4694 C4692 1.391 . S
C4694 C4695 1.400 . S
C4695 C4694 1.400 . S
C4695 C4696 1.398 . S
C4695 C4701 1.491 . S
C4696 H4687 0.950 . S
C4696 C4695 1.398 . S
C4696 C4697 1.391 . S
C4697 H4685 0.950 . S
C4697 C4693 1.393 . S
C4697 C4696 1.391 . S
C4698 H4688 0.950 . S
C4698 C4699 1.386 . S
C4698 C4700 1.391 . S
C4699 C4698 1.386 . S
C4699 C4703 1.393 . S
C4700 H4689 0.950 . S
C4700 C4698 1.391 . S
C4700 C4701 1.400 . S
C4701 C4695 1.491 . S
C4701 C4700 1.400 . S
C4701 C4702 1.398 . S
C4702 H4690 0.950 . S
C4702 C4701 1.398 . S
C4702 C4703 1.391 . S
C4703 H4691 0.950 . S
C4703 C4699 1.393 . S
C4703 C4702 1.391 . S
H4704 C4712 0.950 . S
H4705 C4717 0.950 . S
H4706 C4714 0.950 . S
H4707 C4716 0.950 . S
H4708 C4718 0.950 . S
H4709 C4720 0.950 . S
H4710 C4722 0.950 . S
H4711 C4723 0.950 . S
C4712 H4704 0.950 . S
C4712 C4713 1.386 . S
C4712 C4714 1.391 . S
C4713 C4712 1.386 . S
C4713 C4717 1.393 . S
C4714 H4706 0.950 . S
C4714 C4712 1.391 . S
C4714 C4715 1.400 . S
C4715 C4714 1.400 . S
C4715 C4716 1.398 . S
C4715 C4721 1.491 . S
C4716 H4707 0.950 . S
C4716 C4715 1.398 . S
C4716 C4717 1.391 . S
C4717 H4705 0.950 . S
C4717 C4713 1.393 . S
C4717 C4716 1.391 . S
C4718 H4708 0.950 . S
C4718 C4719 1.386 . S
C4718 C4720 1.391 . S
C4719 C4718 1.386 . S
C4719 C4723 1.393 . S
C4720 H4709 0.950 . S
C4720 C4718 1.391 . S
C4720 C4721 1.400 . S
C4721 C4715 1.491 . S
C4721 C4720 1.400 . S
C4721 C4722 1.398 . S
C4722 H4710 0.950 . S
C4722 C4721 1.398 . S
C4722 C4723 1.391 . S
C4723 H4711 0.950 . S
C4723 C4719 1.393 . S
C4723 C4722 1.391 . S
H4724 C4732 0.950 . S
H4725 C4737 0.950 . S
H4726 C4734 0.950 . S
H4727 C4736 0.950 . S
H4728 C4738 0.950 . S
H4729 C4740 0.950 . S
H4730 C4742 0.950 . S
H4731 C4743 0.950 . S
C4732 H4724 0.950 . S
C4732 C4733 1.386 . S
C4732 C4734 1.391 . S
C4733 C4732 1.386 . S
C4733 C4737 1.393 . S
C4734 H4726 0.950 . S
C4734 C4732 1.391 . S
C4734 C4735 1.400 . S
C4735 C4734 1.400 . S
C4735 C4736 1.398 . S
C4735 C4741 1.491 . S
C4736 H4727 0.950 . S
C4736 C4735 1.398 . S
C4736 C4737 1.391 . S
C4737 H4725 0.950 . S
C4737 C4733 1.393 . S
C4737 C4736 1.391 . S
C4738 H4728 0.950 . S
C4738 C4739 1.386 . S
C4738 C4740 1.391 . S
C4739 C4738 1.386 . S
C4739 C4743 1.393 . S
C4740 H4729 0.950 . S
C4740 C4738 1.391 . S
C4740 C4741 1.400 . S
C4741 C4735 1.491 . S
C4741 C4740 1.400 . S
C4741 C4742 1.398 . S
C4742 H4730 0.950 . S
C4742 C4741 1.398 . S
C4742 C4743 1.391 . S
C4743 H4731 0.950 . S
C4743 C4739 1.393 . S
C4743 C4742 1.391 . S
H4744 C4752 0.950 . S
H4745 C4757 0.950 . S
H4746 C4754 0.950 . S
H4747 C4756 0.950 . S
H4748 C4758 0.950 . S
H4749 C4760 0.950 . S
H4750 C4762 0.950 . S
H4751 C4763 0.950 . S
C4752 H4744 0.950 . S
C4752 C4753 1.386 . S
C4752 C4754 1.391 . S
C4753 C4752 1.386 . S
C4753 C4757 1.393 . S
C4754 H4746 0.950 . S
C4754 C4752 1.391 . S
C4754 C4755 1.400 . S
C4755 C4754 1.400 . S
C4755 C4756 1.398 . S
C4755 C4761 1.491 . S
C4756 H4747 0.950 . S
C4756 C4755 1.398 . S
C4756 C4757 1.391 . S
C4757 H4745 0.950 . S
C4757 C4753 1.393 . S
C4757 C4756 1.391 . S
C4758 H4748 0.950 . S
C4758 C4759 1.386 . S
C4758 C4760 1.391 . S
C4759 C4758 1.386 . S
C4759 C4763 1.393 . S
C4760 H4749 0.950 . S
C4760 C4758 1.391 . S
C4760 C4761 1.400 . S
C4761 C4755 1.491 . S
C4761 C4760 1.400 . S
C4761 C4762 1.398 . S
C4762 H4750 0.950 . S
C4762 C4761 1.398 . S
C4762 C4763 1.391 . S
C4763 H4751 0.950 . S
C4763 C4759 1.393 . S
C4763 C4762 1.391 . S
H4764 C4772 0.950 . S
H4765 C4777 0.950 . S
H4766 C4774 0.950 . S
H4767 C4776 0.950 . S
H4768 C4778 0.950 . S
H4769 C4780 0.950 1_455 S
H4770 C4782 0.950 . S
H4771 C4783 0.950 . S
C4772 H4764 0.950 . S
C4772 C4773 1.386 . S
C4772 C4774 1.391 . S
C4773 C4772 1.386 . S
C4773 C4777 1.393 . S
C4774 H4766 0.950 . S
C4774 C4772 1.391 . S
C4774 C4775 1.400 . S
C4775 C4774 1.400 . S
C4775 C4776 1.398 . S
C4775 C4781 1.491 . S
C4776 H4767 0.950 . S
C4776 C4775 1.398 . S
C4776 C4777 1.391 . S
C4777 H4765 0.950 . S
C4777 C4773 1.393 . S
C4777 C4776 1.391 . S
C4778 H4768 0.950 . S
C4778 C4779 1.386 . S
C4778 C4780 1.391 . S
C4779 C4778 1.386 . S
C4779 C4783 1.393 . S
C4780 H4769 0.950 1_655 S
C4780 C4778 1.391 . S
C4780 C4781 1.400 1_655 S
C4781 C4775 1.491 . S
C4781 C4780 1.400 1_455 S
C4781 C4782 1.398 1_455 S
C4782 H4770 0.950 . S
C4782 C4781 1.398 1_655 S
C4782 C4783 1.391 . S
C4783 H4771 0.950 . S
C4783 C4779 1.393 . S
C4783 C4782 1.391 . S
H4784 C4792 0.950 . S
H4785 C4797 0.950 . S
H4786 C4794 0.950 . S
H4787 C4796 0.950 . S
H4788 C4798 0.950 . S
H4789 C4800 0.950 . S
H4790 C4802 0.950 . S
H4791 C4803 0.950 . S
C4792 H4784 0.950 . S
C4792 C4793 1.386 . S
C4792 C4794 1.391 . S
C4793 C4792 1.386 . S
C4793 C4797 1.393 . S
C4794 H4786 0.950 . S
C4794 C4792 1.391 . S
C4794 C4795 1.400 . S
C4795 C4794 1.400 . S
C4795 C4796 1.398 . S
C4795 C4801 1.491 . S
C4796 H4787 0.950 . S
C4796 C4795 1.398 . S
C4796 C4797 1.391 . S
C4797 H4785 0.950 . S
C4797 C4793 1.393 . S
C4797 C4796 1.391 . S
C4798 H4788 0.950 . S
C4798 C4799 1.386 . S
C4798 C4800 1.391 . S
C4799 C4798 1.386 . S
C4799 C4803 1.393 . S
C4800 H4789 0.950 . S
C4800 C4798 1.391 . S
C4800 C4801 1.400 . S
C4801 C4795 1.491 . S
C4801 C4800 1.400 . S
C4801 C4802 1.398 . S
C4802 H4790 0.950 . S
C4802 C4801 1.398 . S
C4802 C4803 1.391 . S
C4803 H4791 0.950 . S
C4803 C4799 1.393 . S
C4803 C4802 1.391 . S
H4804 C4812 0.950 . S
H4805 C4817 0.950 . S
H4806 C4814 0.950 . S
H4807 C4816 0.950 . S
H4808 C4818 0.950 . S
H4809 C4820 0.950 . S
H4810 C4822 0.950 1_545 S
H4811 C4823 0.950 . S
C4812 H4804 0.950 . S
C4812 C4813 1.386 . S
C4812 C4814 1.391 . S
C4813 C4812 1.386 . S
C4813 C4817 1.393 . S
C4814 H4806 0.950 . S
C4814 C4812 1.391 . S
C4814 C4815 1.400 . S
C4815 C4814 1.400 . S
C4815 C4816 1.398 . S
C4815 C4821 1.491 . S
C4816 H4807 0.950 . S
C4816 C4815 1.398 . S
C4816 C4817 1.391 . S
C4817 H4805 0.950 . S
C4817 C4813 1.393 . S
C4817 C4816 1.391 . S
C4818 H4808 0.950 . S
C4818 C4819 1.386 . S
C4818 C4820 1.391 1_565 S
C4819 C4818 1.386 . S
C4819 C4823 1.393 . S
C4820 H4809 0.950 . S
C4820 C4818 1.391 1_545 S
C4820 C4821 1.400 . S
C4821 C4815 1.491 . S
C4821 C4820 1.400 . S
C4821 C4822 1.398 1_545 S
C4822 H4810 0.950 1_565 S
C4822 C4821 1.398 1_565 S
C4822 C4823 1.391 . S
C4823 H4811 0.950 . S
C4823 C4819 1.393 . S
C4823 C4822 1.391 . S
H4824 C4832 0.950 . S
H4825 C4837 0.950 . S
H4826 C4834 0.950 1_545 S
H4827 C4836 0.950 . S
H4828 C4838 0.950 . S
H4829 C4840 0.950 . S
H4830 C4842 0.950 . S
H4831 C4843 0.950 . S
C4832 H4824 0.950 . S
C4832 C4833 1.386 . S
C4832 C4834 1.391 . S
C4833 C4832 1.386 . S
C4833 C4837 1.393 . S
C4834 H4826 0.950 1_565 S
C4834 C4832 1.391 . S
C4834 C4835 1.400 1_565 S
C4835 C4834 1.400 1_545 S
C4835 C4836 1.398 . S
C4835 C4841 1.491 . S
C4836 H4827 0.950 . S
C4836 C4835 1.398 . S
C4836 C4837 1.391 1_545 S
C4837 H4825 0.950 . S
C4837 C4833 1.393 . S
C4837 C4836 1.391 1_565 S
C4838 H4828 0.950 . S
C4838 C4839 1.386 . S
C4838 C4840 1.391 . S
C4839 C4838 1.386 . S
C4839 C4843 1.393 . S
C4840 H4829 0.950 . S
C4840 C4838 1.391 . S
C4840 C4841 1.400 . S
C4841 C4835 1.491 . S
C4841 C4840 1.400 . S
C4841 C4842 1.398 . S
C4842 H4830 0.950 . S
C4842 C4841 1.398 . S
C4842 C4843 1.391 . S
C4843 H4831 0.950 . S
C4843 C4839 1.393 . S
C4843 C4842 1.391 . S
H4844 C4852 0.950 . S
H4845 C4857 0.950 . S
H4846 C4854 0.950 . S
H4847 C4856 0.950 . S
H4848 C4858 0.950 . S
H4849 C4860 0.950 . S
H4850 C4862 0.950 1_455 S
H4851 C4863 0.950 . S
C4852 H4844 0.950 . S
C4852 C4853 1.386 . S
C4852 C4854 1.391 . S
C4853 C4852 1.386 . S
C4853 C4857 1.393 . S
C4854 H4846 0.950 . S
C4854 C4852 1.391 . S
C4854 C4855 1.400 . S
C4855 C4854 1.400 . S
C4855 C4856 1.398 . S
C4855 C4861 1.491 . S
C4856 H4847 0.950 . S
C4856 C4855 1.398 . S
C4856 C4857 1.391 . S
C4857 H4845 0.950 . S
C4857 C4853 1.393 . S
C4857 C4856 1.391 . S
C4858 H4848 0.950 . S
C4858 C4859 1.386 . S
C4858 C4860 1.391 . S
C4859 C4858 1.386 . S
C4859 C4863 1.393 . S
C4860 H4849 0.950 . S
C4860 C4858 1.391 . S
C4860 C4861 1.400 1_655 S
C4861 C4855 1.491 . S
C4861 C4860 1.400 1_455 S
C4861 C4862 1.398 1_455 S
C4862 H4850 0.950 1_655 S
C4862 C4861 1.398 1_655 S
C4862 C4863 1.391 . S
C4863 H4851 0.950 . S
C4863 C4859 1.393 . S
C4863 C4862 1.391 . S
H4864 C4872 0.950 . S
H4865 C4877 0.950 . S
H4866 C4874 0.950 . S
H4867 C4876 0.950 . S
H4868 C4878 0.950 . S
H4869 C4880 0.950 . S
H4870 C4882 0.950 . S
H4871 C4883 0.950 . S
C4872 H4864 0.950 . S
C4872 C4873 1.386 . S
C4872 C4874 1.391 . S
C4873 C4872 1.386 . S
C4873 C4877 1.393 . S
C4874 H4866 0.950 . S
C4874 C4872 1.391 . S
C4874 C4875 1.400 . S
C4875 C4874 1.400 . S
C4875 C4876 1.398 . S
C4875 C4881 1.491 . S
C4876 H4867 0.950 . S
C4876 C4875 1.398 . S
C4876 C4877 1.391 . S
C4877 H4865 0.950 . S
C4877 C4873 1.393 . S
C4877 C4876 1.391 . S
C4878 H4868 0.950 . S
C4878 C4879 1.386 . S
C4878 C4880 1.391 . S
C4879 C4878 1.386 . S
C4879 C4883 1.393 . S
C4880 H4869 0.950 . S
C4880 C4878 1.391 . S
C4880 C4881 1.400 . S
C4881 C4875 1.491 . S
C4881 C4880 1.400 . S
C4881 C4882 1.398 . S
C4882 H4870 0.950 . S
C4882 C4881 1.398 . S
C4882 C4883 1.391 . S
C4883 H4871 0.950 . S
C4883 C4879 1.393 . S
C4883 C4882 1.391 . S
H4884 C4892 0.950 . S
H4885 C4897 0.950 . S
H4886 C4894 0.950 . S
H4887 C4896 0.950 . S
H4888 C4898 0.950 . S
H4889 C4900 0.950 . S
H4890 C4902 0.950 . S
H4891 C4903 0.950 . S
C4892 H4884 0.950 . S
C4892 C4893 1.386 . S
C4892 C4894 1.391 . S
C4893 C4892 1.386 . S
C4893 C4897 1.393 . S
C4894 H4886 0.950 . S
C4894 C4892 1.391 . S
C4894 C4895 1.400 . S
C4895 C4894 1.400 . S
C4895 C4896 1.398 . S
C4895 C4901 1.491 . S
C4896 H4887 0.950 . S
C4896 C4895 1.398 . S
C4896 C4897 1.391 . S
C4897 H4885 0.950 . S
C4897 C4893 1.393 . S
C4897 C4896 1.391 . S
C4898 H4888 0.950 . S
C4898 C4899 1.386 . S
C4898 C4900 1.391 . S
C4899 C4898 1.386 . S
C4899 C4903 1.393 . S
C4900 H4889 0.950 . S
C4900 C4898 1.391 . S
C4900 C4901 1.400 . S
C4901 C4895 1.491 . S
C4901 C4900 1.400 . S
C4901 C4902 1.398 . S
C4902 H4890 0.950 . S
C4902 C4901 1.398 . S
C4902 C4903 1.391 . S
C4903 H4891 0.950 . S
C4903 C4899 1.393 . S
C4903 C4902 1.391 . S
H4904 C4912 0.950 . S
H4905 C4917 0.950 . S
H4906 C4914 0.950 . S
H4907 C4916 0.950 . S
H4908 C4918 0.950 . S
H4909 C4920 0.950 . S
H4910 C4922 0.950 . S
H4911 C4923 0.950 . S
C4912 H4904 0.950 . S
C4912 C4913 1.386 . S
C4912 C4914 1.391 . S
C4913 C4912 1.386 . S
C4913 C4917 1.393 . S
C4914 H4906 0.950 . S
C4914 C4912 1.391 . S
C4914 C4915 1.400 . S
C4915 C4914 1.400 . S
C4915 C4916 1.398 . S
C4915 C4921 1.491 . S
C4916 H4907 0.950 . S
C4916 C4915 1.398 . S
C4916 C4917 1.391 . S
C4917 H4905 0.950 . S
C4917 C4913 1.393 . S
C4917 C4916 1.391 . S
C4918 H4908 0.950 . S
C4918 C4919 1.386 . S
C4918 C4920 1.391 . S
C4919 C4918 1.386 . S
C4919 C4923 1.393 . S
C4920 H4909 0.950 . S
C4920 C4918 1.391 . S
C4920 C4921 1.400 . S
C4921 C4915 1.491 . S
C4921 C4920 1.400 . S
C4921 C4922 1.398 . S
C4922 H4910 0.950 . S
C4922 C4921 1.398 . S
C4922 C4923 1.391 . S
C4923 H4911 0.950 . S
C4923 C4919 1.393 . S
C4923 C4922 1.391 . S
H4924 C4932 0.950 . S
H4925 C4937 0.950 . S
H4926 C4934 0.950 . S
H4927 C4936 0.950 . S
H4928 C4938 0.950 . S
H4929 C4940 0.950 . S
H4930 C4942 0.950 . S
H4931 C4943 0.950 . S
C4932 H4924 0.950 . S
C4932 C4933 1.386 . S
C4932 C4934 1.391 . S
C4933 C4932 1.386 . S
C4933 C4937 1.393 . S
C4934 H4926 0.950 . S
C4934 C4932 1.391 . S
C4934 C4935 1.400 . S
C4935 C4934 1.400 . S
C4935 C4936 1.398 . S
C4935 C4941 1.491 . S
C4936 H4927 0.950 . S
C4936 C4935 1.398 . S
C4936 C4937 1.391 . S
C4937 H4925 0.950 . S
C4937 C4933 1.393 . S
C4937 C4936 1.391 . S
C4938 H4928 0.950 . S
C4938 C4939 1.386 . S
C4938 C4940 1.391 . S
C4939 C4938 1.386 . S
C4939 C4943 1.393 . S
C4940 H4929 0.950 . S
C4940 C4938 1.391 . S
C4940 C4941 1.400 . S
C4941 C4935 1.491 . S
C4941 C4940 1.400 . S
C4941 C4942 1.398 . S
C4942 H4930 0.950 . S
C4942 C4941 1.398 . S
C4942 C4943 1.391 . S
C4943 H4931 0.950 . S
C4943 C4939 1.393 . S
C4943 C4942 1.391 . S
H4944 C4952 0.950 . S
H4945 C4957 0.950 . S
H4946 C4954 0.950 . S
H4947 C4956 0.950 1_545 S
H4948 C4958 0.950 . S
H4949 C4960 0.950 . S
H4950 C4962 0.950 . S
H4951 C4963 0.950 . S
C4952 H4944 0.950 . S
C4952 C4953 1.386 . S
C4952 C4954 1.391 . S
C4953 C4952 1.386 . S
C4953 C4957 1.393 . S
C4954 H4946 0.950 . S
C4954 C4952 1.391 . S
C4954 C4955 1.400 1_565 S
C4955 C4954 1.400 1_545 S
C4955 C4956 1.398 1_545 S
C4955 C4961 1.491 . S
C4956 H4947 0.950 1_565 S
C4956 C4955 1.398 1_565 S
C4956 C4957 1.391 . S
C4957 H4945 0.950 . S
C4957 C4953 1.393 . S
C4957 C4956 1.391 . S
C4958 H4948 0.950 . S
C4958 C4959 1.386 . S
C4958 C4960 1.391 . S
C4959 C4958 1.386 . S
C4959 C4963 1.393 . S
C4960 H4949 0.950 . S
C4960 C4958 1.391 . S
C4960 C4961 1.400 . S
C4961 C4955 1.491 . S
C4961 C4960 1.400 . S
C4961 C4962 1.398 . S
C4962 H4950 0.950 . S
C4962 C4961 1.398 . S
C4962 C4963 1.391 . S
C4963 H4951 0.950 . S
C4963 C4959 1.393 . S
C4963 C4962 1.391 . S
H4964 C4972 0.950 . S
H4965 C4977 0.950 . S
H4966 C4974 0.955 . S
H4967 C4976 0.950 . S
H4968 C4978 0.950 . S
H4969 C4980 0.950 . S
H4970 C4982 0.950 . S
H4971 C4983 0.950 . S
C4972 H4964 0.950 . S
C4972 C4973 1.386 . S
C4972 C4974 1.368 1_655 S
C4973 C4972 1.386 . S
C4973 C4977 1.393 . S
C4974 H4966 0.955 . S
C4974 C4972 1.368 1_455 S
C4974 C4975 1.420 . S
C4975 C4974 1.420 . S
C4975 C4976 1.398 . S
C4975 C4981 1.491 . S
C4976 H4967 0.950 . S
C4976 C4975 1.398 . S
C4976 C4977 1.391 1_455 S
C4977 H4965 0.950 . S
C4977 C4973 1.393 . S
C4977 C4976 1.391 1_655 S
C4978 H4968 0.950 . S
C4978 C4979 1.386 . S
C4978 C4980 1.391 . S
C4979 C4978 1.386 . S
C4979 C4983 1.393 . S
C4980 H4969 0.950 . S
C4980 C4978 1.391 . S
C4980 C4981 1.400 . S
C4981 C4975 1.491 . S
C4981 C4980 1.400 . S
C4981 C4982 1.398 . S
C4982 H4970 0.950 . S
C4982 C4981 1.398 . S
C4982 C4983 1.391 . S
C4983 H4971 0.950 . S
C4983 C4979 1.393 . S
C4983 C4982 1.391 . S
H4984 C4992 0.950 . S
H4985 C4997 0.950 . S
H4986 C4994 0.950 . S
H4987 C4996 0.950 . S
H4988 C4998 0.950 . S
H4989 C5000 0.950 . S
H4990 C5002 0.950 . S
H4991 C5003 0.950 . S
C4992 H4984 0.950 . S
C4992 C4993 1.386 . S
C4992 C4994 1.391 . S
C4993 C4992 1.386 . S
C4993 C4997 1.393 . S
C4994 H4986 0.950 . S
C4994 C4992 1.391 . S
C4994 C4995 1.400 . S
C4995 C4994 1.400 . S
C4995 C4996 1.398 . S
C4995 C5001 1.491 . S
C4996 H4987 0.950 . S
C4996 C4995 1.398 . S
C4996 C4997 1.391 . S
C4997 H4985 0.950 . S
C4997 C4993 1.393 . S
C4997 C4996 1.391 . S
C4998 H4988 0.950 . S
C4998 C4999 1.386 . S
C4998 C5000 1.391 . S
C4999 C4998 1.386 . S
C4999 C5003 1.393 . S
C5000 H4989 0.950 . S
C5000 C4998 1.391 . S
C5000 C5001 1.400 . S
C5001 C4995 1.491 . S
C5001 C5000 1.400 . S
C5001 C5002 1.398 . S
C5002 H4990 0.950 . S
C5002 C5001 1.398 . S
C5002 C5003 1.391 . S
C5003 H4991 0.950 . S
C5003 C4999 1.393 . S
C5003 C5002 1.391 . S
H5004 C5012 0.950 . S
H5005 C5017 0.950 . S
H5006 C5014 0.950 . S
H5007 C5016 0.950 . S
H5008 C5018 0.950 . S
H5009 C5020 0.950 . S
H5010 C5022 0.950 . S
H5011 C5023 0.950 . S
C5012 H5004 0.950 . S
C5012 C5013 1.386 . S
C5012 C5014 1.391 . S
C5013 C5012 1.386 . S
C5013 C5017 1.393 . S
C5014 H5006 0.950 . S
C5014 C5012 1.391 . S
C5014 C5015 1.400 . S
C5015 C5014 1.400 . S
C5015 C5016 1.398 . S
C5015 C5021 1.491 . S
C5016 H5007 0.950 . S
C5016 C5015 1.398 . S
C5016 C5017 1.391 . S
C5017 H5005 0.950 . S
C5017 C5013 1.393 . S
C5017 C5016 1.391 . S
C5018 H5008 0.950 . S
C5018 C5019 1.386 . S
C5018 C5020 1.391 . S
C5019 C5018 1.386 . S
C5019 C5023 1.393 . S
C5020 H5009 0.950 . S
C5020 C5018 1.391 . S
C5020 C5021 1.400 . S
C5021 C5015 1.491 . S
C5021 C5020 1.400 . S
C5021 C5022 1.398 . S
C5022 H5010 0.950 . S
C5022 C5021 1.398 . S
C5022 C5023 1.391 . S
C5023 H5011 0.950 . S
C5023 C5019 1.393 . S
C5023 C5022 1.391 . S
H5024 C5032 0.950 . S
H5025 C5037 0.950 . S
H5026 C5034 0.950 . S
H5027 C5036 0.950 . S
H5028 C5038 0.950 . S
H5029 C5040 0.950 . S
H5030 C5042 0.950 . S
H5031 C5043 0.950 . S
C5032 H5024 0.950 . S
C5032 C5033 1.386 . S
C5032 C5034 1.391 . S
C5033 C5032 1.386 . S
C5033 C5037 1.393 . S
C5034 H5026 0.950 . S
C5034 C5032 1.391 . S
C5034 C5035 1.400 . S
C5035 C5034 1.400 . S
C5035 C5036 1.398 . S
C5035 C5041 1.491 . S
C5036 H5027 0.950 . S
C5036 C5035 1.398 . S
C5036 C5037 1.391 . S
C5037 H5025 0.950 . S
C5037 C5033 1.393 . S
C5037 C5036 1.391 . S
C5038 H5028 0.950 . S
C5038 C5039 1.386 . S
C5038 C5040 1.391 . S
C5039 C5038 1.386 . S
C5039 C5043 1.393 . S
C5040 H5029 0.950 . S
C5040 C5038 1.391 . S
C5040 C5041 1.400 . S
C5041 C5035 1.491 . S
C5041 C5040 1.400 . S
C5041 C5042 1.398 . S
C5042 H5030 0.950 . S
C5042 C5041 1.398 . S
C5042 C5043 1.391 . S
C5043 H5031 0.950 . S
C5043 C5039 1.393 . S
C5043 C5042 1.391 . S
H5044 C5052 0.950 . S
H5045 C5057 0.950 . S
H5046 C5054 0.950 . S
H5047 C5056 0.950 . S
H5048 C5058 0.950 . S
H5049 C5060 0.950 . S
H5050 C5062 0.950 . S
H5051 C5063 0.950 . S
C5052 H5044 0.950 . S
C5052 C5053 1.386 . S
C5052 C5054 1.391 . S
C5053 C5052 1.386 . S
C5053 C5057 1.393 . S
C5054 H5046 0.950 . S
C5054 C5052 1.391 . S
C5054 C5055 1.400 . S
C5055 C5054 1.400 . S
C5055 C5056 1.398 . S
C5055 C5061 1.491 . S
C5056 H5047 0.950 . S
C5056 C5055 1.398 . S
C5056 C5057 1.391 . S
C5057 H5045 0.950 . S
C5057 C5053 1.393 . S
C5057 C5056 1.391 . S
C5058 H5048 0.950 . S
C5058 C5059 1.386 . S
C5058 C5060 1.391 . S
C5059 C5058 1.386 . S
C5059 C5063 1.393 . S
C5060 H5049 0.950 . S
C5060 C5058 1.391 . S
C5060 C5061 1.400 . S
C5061 C5055 1.491 . S
C5061 C5060 1.400 . S
C5061 C5062 1.398 . S
C5062 H5050 0.950 . S
C5062 C5061 1.398 . S
C5062 C5063 1.391 . S
C5063 H5051 0.950 . S
C5063 C5059 1.393 . S
C5063 C5062 1.391 . S
H5064 C5072 0.950 . S
H5065 C5077 0.950 . S
H5066 C5074 0.950 . S
H5067 C5076 0.950 . S
H5068 C5078 0.950 . S
H5069 C5080 0.950 . S
H5070 C5082 0.950 . S
H5071 C5083 0.950 . S
C5072 H5064 0.950 . S
C5072 C5073 1.386 . S
C5072 C5074 1.391 . S
C5073 C5072 1.386 . S
C5073 C5077 1.393 . S
C5074 H5066 0.950 . S
C5074 C5072 1.391 . S
C5074 C5075 1.400 . S
C5075 C5074 1.400 . S
C5075 C5076 1.398 . S
C5075 C5081 1.491 . S
C5076 H5067 0.950 . S
C5076 C5075 1.398 . S
C5076 C5077 1.391 . S
C5077 H5065 0.950 . S
C5077 C5073 1.393 . S
C5077 C5076 1.391 . S
C5078 H5068 0.950 . S
C5078 C5079 1.386 . S
C5078 C5080 1.391 . S
C5079 C5078 1.386 . S
C5079 C5083 1.393 . S
C5080 H5069 0.950 . S
C5080 C5078 1.391 . S
C5080 C5081 1.400 . S
C5081 C5075 1.491 . S
C5081 C5080 1.400 . S
C5081 C5082 1.398 . S
C5082 H5070 0.950 . S
C5082 C5081 1.398 . S
C5082 C5083 1.391 . S
C5083 H5071 0.950 . S
C5083 C5079 1.393 . S
C5083 C5082 1.391 . S
H5084 C5092 0.950 . S
H5085 C5097 0.950 . S
H5086 C5094 0.950 . S
H5087 C5096 0.950 . S
H5088 C5098 0.950 . S
H5089 C5100 0.950 . S
H5090 C5102 0.950 . S
H5091 C5103 0.950 . S
C5092 H5084 0.950 . S
C5092 C5093 1.386 . S
C5092 C5094 1.391 . S
C5093 C5092 1.386 . S
C5093 C5097 1.393 . S
C5094 H5086 0.950 . S
C5094 C5092 1.391 . S
C5094 C5095 1.400 . S
C5095 C5094 1.400 . S
C5095 C5096 1.398 . S
C5095 C5101 1.491 . S
C5096 H5087 0.950 . S
C5096 C5095 1.398 . S
C5096 C5097 1.391 . S
C5097 H5085 0.950 . S
C5097 C5093 1.393 . S
C5097 C5096 1.391 . S
C5098 H5088 0.950 . S
C5098 C5099 1.386 . S
C5098 C5100 1.391 . S
C5099 C5098 1.386 . S
C5099 C5103 1.393 . S
C5100 H5089 0.950 . S
C5100 C5098 1.391 . S
C5100 C5101 1.400 . S
C5101 C5095 1.491 . S
C5101 C5100 1.400 . S
C5101 C5102 1.398 . S
C5102 H5090 0.950 . S
C5102 C5101 1.398 . S
C5102 C5103 1.391 . S
C5103 H5091 0.950 . S
C5103 C5099 1.393 . S
C5103 C5102 1.391 . S
H5104 C5112 0.950 . S
H5105 C5117 0.950 . S
H5106 C5114 0.950 . S
H5107 C5116 0.950 . S
H5108 C5118 0.950 . S
H5109 C5120 0.950 . S
H5110 C5122 0.950 . S
H5111 C5123 0.950 . S
C5112 H5104 0.950 . S
C5112 C5113 1.386 . S
C5112 C5114 1.391 . S
C5113 C5112 1.386 . S
C5113 C5117 1.393 . S
C5114 H5106 0.950 . S
C5114 C5112 1.391 . S
C5114 C5115 1.400 . S
C5115 C5114 1.400 . S
C5115 C5116 1.398 . S
C5115 C5121 1.491 . S
C5116 H5107 0.950 . S
C5116 C5115 1.398 . S
C5116 C5117 1.391 . S
C5117 H5105 0.950 . S
C5117 C5113 1.393 . S
C5117 C5116 1.391 . S
C5118 H5108 0.950 . S
C5118 C5119 1.386 . S
C5118 C5120 1.391 . S
C5119 C5118 1.386 . S
C5119 C5123 1.393 . S
C5120 H5109 0.950 . S
C5120 C5118 1.391 . S
C5120 C5121 1.400 . S
C5121 C5115 1.491 . S
C5121 C5120 1.400 . S
C5121 C5122 1.398 . S
C5122 H5110 0.950 . S
C5122 C5121 1.398 . S
C5122 C5123 1.391 . S
C5123 H5111 0.950 . S
C5123 C5119 1.393 . S
C5123 C5122 1.391 . S
H5124 C5132 0.950 . S
H5125 C5137 0.950 . S
H5126 C5134 0.950 1_455 S
H5127 C5136 0.950 . S
H5128 C5138 0.950 . S
H5129 C5140 0.950 . S
H5130 C5142 0.950 . S
H5131 C5143 0.950 . S
C5132 H5124 0.950 . S
C5132 C5133 1.386 . S
C5132 C5134 1.391 . S
C5133 C5132 1.386 . S
C5133 C5137 1.393 . S
C5134 H5126 0.950 1_655 S
C5134 C5132 1.391 . S
C5134 C5135 1.400 1_655 S
C5135 C5134 1.400 1_455 S
C5135 C5136 1.398 . S
C5135 C5141 1.491 . S
C5136 H5127 0.950 . S
C5136 C5135 1.398 . S
C5136 C5137 1.391 1_455 S
C5137 H5125 0.950 . S
C5137 C5133 1.393 . S
C5137 C5136 1.391 1_655 S
C5138 H5128 0.950 . S
C5138 C5139 1.386 . S
C5138 C5140 1.391 . S
C5139 C5138 1.386 . S
C5139 C5143 1.393 . S
C5140 H5129 0.950 . S
C5140 C5138 1.391 . S
C5140 C5141 1.400 . S
C5141 C5135 1.491 . S
C5141 C5140 1.400 . S
C5141 C5142 1.398 . S
C5142 H5130 0.950 . S
C5142 C5141 1.398 . S
C5142 C5143 1.391 . S
C5143 H5131 0.950 . S
C5143 C5139 1.393 . S
C5143 C5142 1.391 . S
H5144 C5152 0.950 . S
H5145 C5157 0.950 . S
H5146 C5154 0.950 . S
H5147 C5156 0.950 . S
H5148 C5158 0.950 . S
H5149 C5160 0.950 . S
H5150 C5162 0.950 . S
H5151 C5163 0.950 . S
C5152 H5144 0.950 . S
C5152 C5153 1.386 . S
C5152 C5154 1.391 . S
C5153 C5152 1.386 . S
C5153 C5157 1.393 . S
C5154 H5146 0.950 . S
C5154 C5152 1.391 . S
C5154 C5155 1.400 . S
C5155 C5154 1.400 . S
C5155 C5156 1.398 . S
C5155 C5161 1.491 . S
C5156 H5147 0.950 . S
C5156 C5155 1.398 . S
C5156 C5157 1.391 . S
C5157 H5145 0.950 . S
C5157 C5153 1.393 . S
C5157 C5156 1.391 . S
C5158 H5148 0.950 . S
C5158 C5159 1.386 . S
C5158 C5160 1.391 . S
C5159 C5158 1.386 . S
C5159 C5163 1.393 . S
C5160 H5149 0.950 . S
C5160 C5158 1.391 . S
C5160 C5161 1.400 . S
C5161 C5155 1.491 . S
C5161 C5160 1.400 . S
C5161 C5162 1.398 . S
C5162 H5150 0.950 . S
C5162 C5161 1.398 . S
C5162 C5163 1.391 . S
C5163 H5151 0.950 . S
C5163 C5159 1.393 . S
C5163 C5162 1.391 . S
H5164 C5172 0.950 . S
H5165 C5177 0.950 . S
H5166 C5174 0.950 1_545 S
H5167 C5176 0.950 . S
H5168 C5178 0.950 . S
H5169 C5180 0.950 . S
H5170 C5182 0.950 . S
H5171 C5183 0.950 . S
C5172 H5164 0.950 . S
C5172 C5173 1.386 . S
C5172 C5174 1.391 . S
C5173 C5172 1.386 . S
C5173 C5177 1.393 . S
C5174 H5166 0.950 1_565 S
C5174 C5172 1.391 . S
C5174 C5175 1.400 1_565 S
C5175 C5174 1.400 1_545 S
C5175 C5176 1.398 1_545 S
C5175 C5181 1.491 . S
C5176 H5167 0.950 . S
C5176 C5175 1.398 1_565 S
C5176 C5177 1.391 . S
C5177 H5165 0.950 . S
C5177 C5173 1.393 . S
C5177 C5176 1.391 . S
C5178 H5168 0.950 . S
C5178 C5179 1.386 . S
C5178 C5180 1.391 . S
C5179 C5178 1.386 . S
C5179 C5183 1.393 . S
C5180 H5169 0.950 . S
C5180 C5178 1.391 . S
C5180 C5181 1.400 . S
C5181 C5175 1.491 . S
C5181 C5180 1.400 . S
C5181 C5182 1.398 . S
C5182 H5170 0.950 . S
C5182 C5181 1.398 . S
C5182 C5183 1.391 . S
C5183 H5171 0.950 . S
C5183 C5179 1.393 . S
C5183 C5182 1.391 . S
C3033 C2324 1.882 . S
C3039 C56 1.888 . S
C3053 C2408 1.885 . S
C3059 C140 1.881 1_655 S
C3073 C224 1.888 . S
C3079 C2492 1.895 . S
C3093 C308 1.891 . S
C3099 C1064 1.882 . S
C3113 C392 1.893 . S
C3119 C1148 1.891 . S
C3133 C1232 1.884 . S
C3139 C476 1.893 1_565 S
C3153 C572 1.884 1_565 S
C3159 C1832 1.894 . S
C3173 C1916 1.882 . S
C3179 C656 1.885 . S
C3193 C740 1.884 . S
C3199 C2000 1.885 . S
C3213 C2588 1.894 . S
C3219 C824 1.887 1_655 S
C3233 C908 1.889 . S
C3239 C2672 1.893 . S
C3253 C2756 1.881 . S
C3259 C992 1.891 . S
C3273 C2072 1.888 . S
C3279 C1316 1.881 . S
C3293 C1400 1.881 . S
C3299 C2156 1.890 . S
C3313 C2240 1.881 . S
C3319 C1484 1.889 . S
C3333 C1580 1.892 . S
C3339 C2840 1.890 . S
C3353 C1664 1.892 . S
C3359 C2924 1.890 . S
C3373 C3008 1.893 . S
C3379 C1748 1.889 . S
C3393 C68 1.784 . S
C3399 C560 1.784 . S
C3413 C644 1.794 . S
C3419 C152 1.794 . S
C3433 C236 1.775 . S
C3439 C728 1.775 . S
C3453 C812 1.792 . S
C3459 C320 1.792 . S
C3473 C404 1.778 . S
C3479 C896 1.778 . S
C3493 C980 1.766 . S
C3499 C488 1.766 . S
C3513 C1568 1.773 . S
C3519 C1076 1.773 . S
C3533 C1160 1.784 . S
C3539 C1652 1.784 . S
C3553 C1736 1.776 . S
C3559 C1244 1.776 . S
C3573 C1328 1.794 . S
C3579 C1820 1.794 . S
C3593 C1904 1.789 . S
C3599 C1412 1.789 . S
C3613 C1496 1.786 . S
C3619 C1988 1.786 . S
C3633 C2084 1.768 . S
C3639 C2576 1.768 . S
C3653 C2660 1.765 . S
C3659 C2168 1.765 . S
C3673 C2744 1.765 . S
C3679 C2252 1.765 . S
C3693 C2828 1.778 . S
C3699 C2336 1.778 . S
C3713 C2420 1.770 . S
C3719 C2912 1.770 . S
C3733 C2504 1.767 . S
C3739 C2996 1.767 . S
C3753 C58 1.540 . S
C3759 C223 1.732 . S
C3773 C142 1.573 . S
C3779 C55 1.738 . S
C3793 C139 1.738 . S
C3799 C226 1.563 . S
C3813 C310 1.553 . S
C3819 C391 1.736 . S
C3833 C475 1.738 . S
C3839 C394 1.562 . S
C3853 C307 1.738 . S
C3859 C478 1.562 . S
C3873 C739 1.734 . S
C3879 C574 1.543 . S
C3893 C658 1.574 . S
C3899 C571 1.736 . S
C3913 C742 1.542 . S
C3919 C655 1.726 . S
C3933 C907 1.734 . S
C3939 C826 1.574 . S
C3953 C910 1.539 . S
C3959 C991 1.731 . S
C3973 C994 1.540 . S
C3979 C823 1.732 . S
C3993 C1231 1.727 . S
C3999 C1066 1.538 . S
C4013 C1063 1.738 . S
C4019 C1150 1.572 . S
C4033 C1147 1.735 . S
C4039 C1234 1.546 1_655 S
C4053 C1399 1.738 . S
C4059 C1318 1.571 . S
C4073 C1402 1.571 . S
C4079 C1483 1.732 . S
C4093 C1315 1.727 . S
C4099 C1486 1.552 . S
C4113 C1582 1.575 . S
C4119 C1747 1.736 . S
C4133 C1579 1.731 . S
C4139 C1666 1.569 . S
C4153 C1750 1.546 . S
C4159 C1663 1.735 . S
C4173 C1915 1.732 . S
C4179 C1834 1.572 . S
C4193 C1999 1.736 . S
C4199 C1918 1.575 . S
C4213 C1831 1.735 . S
C4219 C2002 1.575 1_655 S
C4233 C2239 1.738 . S
C4239 C2074 1.562 . S
C4253 C2158 1.555 . S
C4259 C2071 1.737 . S
C4273 C2155 1.727 . S
C4279 C2242 1.537 . S
C4293 C2326 1.563 . S
C4299 C2407 1.729 . S
C4313 C2410 1.570 1_565 S
C4319 C2491 1.732 . S
C4333 C2323 1.726 . S
C4339 C2494 1.541 . S
C4353 C2590 1.537 . S
C4359 C2755 1.727 . S
C4373 C2674 1.539 1_565 S
C4379 C2587 1.726 . S
C4393 C2671 1.736 . S
C4399 C2758 1.575 . S
C4413 C2842 1.564 . S
C4419 C2923 1.738 . S
C4433 C3007 1.732 . S
C4439 C2926 1.540 . S
C4453 C2839 1.727 . S
C4459 C3010 1.554 . S
C4473 C235 1.058 . S
C4479 C70 0.929 . S
C4493 C154 0.931 . S
C4499 C67 1.058 . S
C4513 C151 1.065 . S
C4519 C238 0.958 . S
C4533 C403 1.060 . S
C4539 C322 0.959 . S
C4553 C406 0.931 . S
C4559 C487 1.056 . S
C4573 C490 0.968 . S
C4579 C319 1.062 . S
C4593 C727 1.060 . S
C4599 C562 0.959 . S
C4613 C646 0.993 . S
C4619 C559 1.070 . S
C4633 C643 1.061 . S
C4639 C730 0.938 . S
C4653 C895 1.070 . S
C4659 C814 0.982 . S
C4673 C979 1.057 . S
C4679 C898 0.929 . S
C4693 C811 1.071 . S
C4699 C982 0.993 . S
C4713 C1078 0.932 . S
C4719 C1243 1.059 . S
C4733 C1162 0.929 . S
C4739 C1075 1.057 . S
C4753 C1246 0.989 . S
C4759 C1159 1.068 . S
C4773 C1411 1.067 . S
C4779 C1330 0.966 . S
C4793 C1414 0.938 . S
C4799 C1495 1.061 . S
C4813 C1498 0.943 . S
C4819 C1327 1.062 . S
C4833 C1735 1.064 . S
C4839 C1570 0.977 . S
C4853 C1567 1.068 . S
C4859 C1654 0.989 . S
C4873 C1738 0.971 . S
C4879 C1651 1.063 . S
C4893 C1903 1.062 . S
C4899 C1822 0.969 . S
C4913 C1906 0.990 . S
C4919 C1987 1.068 . S
C4933 C1990 0.985 . S
C4939 C1819 1.067 . S
C4953 C2086 0.973 . S
C4959 C2251 1.063 . S
C4973 C2083 1.058 . S
C4979 C2170 0.950 . S
C4993 C2167 1.070 . S
C4999 C2254 0.980 . S
C5013 C2419 1.065 . S
C5019 C2338 0.978 . S
C5033 C2422 0.949 . S
C5039 C2503 1.063 . S
C5053 C2506 0.935 . S
C5059 C2335 1.060 . S
C5073 C2743 1.057 . S
C5079 C2578 0.928 . S
C5093 C2575 1.059 . S
C5099 C2662 0.932 . S
C5113 C2746 0.935 . S
C5119 C2659 1.057 . S
C5133 C2911 1.070 . S
C5139 C2830 0.992 . S
C5153 C2914 0.943 . S
C5159 C2995 1.062 . S
C5173 C2998 0.964 . S
C5179 C2827 1.067 . S
