# Generated by pormake.
# Topology rkf, (6)-cn, num edge types: 1
# Building blocks:
#     Node 0, Type 0, BuildingBlock: INOVEN_clean_sbu_0, # of connection points: 6
#     Node 1, Type 0, BuildingBlock: INOVEN_clean_sbu_0, # of connection points: 6
#     Node 2, Type 0, BuildingBlock: INOVEN_clean_sbu_0, # of connection points: 6
#     Node 3, Type 0, BuildingBlock: INOVEN_clean_sbu_0, # of connection points: 6
#     Node 4, Type 0, BuildingBlock: INOVEN_clean_sbu_0, # of connection points: 6
#     Node 5, Type 0, BuildingBlock: INOVEN_clean_sbu_0, # of connection points: 6
#     Edge 6, Type (0, 0), BuildingBlock: UVAHIK_clean_linker_0, # of connection points: 2
#     Edge 7, Type (0, 0), BuildingBlock: UVAHIK_clean_linker_0, # of connection points: 2
#     Edge 8, Type (0, 0), BuildingBlock: UVAHIK_clean_linker_0, # of connection points: 2
#     Edge 9, Type (0, 0), BuildingBlock: UVAHIK_clean_linker_0, # of connection points: 2
#     Edge 10, Type (0, 0), BuildingBlock: UVAHIK_clean_linker_0, # of connection points: 2
#     Edge 11, Type (0, 0), BuildingBlock: UVAHIK_clean_linker_0, # of connection points: 2
#     Edge 12, Type (0, 0), BuildingBlock: UVAHIK_clean_linker_0, # of connection points: 2
#     Edge 13, Type (0, 0), BuildingBlock: UVAHIK_clean_linker_0, # of connection points: 2
#     Edge 14, Type (0, 0), BuildingBlock: UVAHIK_clean_linker_0, # of connection points: 2
#     Edge 15, Type (0, 0), BuildingBlock: UVAHIK_clean_linker_0, # of connection points: 2
#     Edge 16, Type (0, 0), BuildingBlock: UVAHIK_clean_linker_0, # of connection points: 2
#     Edge 17, Type (0, 0), BuildingBlock: UVAHIK_clean_linker_0, # of connection points: 2
#     Edge 18, Type (0, 0), BuildingBlock: UVAHIK_clean_linker_0, # of connection points: 2
#     Edge 19, Type (0, 0), BuildingBlock: UVAHIK_clean_linker_0, # of connection points: 2
#     Edge 20, Type (0, 0), BuildingBlock: UVAHIK_clean_linker_0, # of connection points: 2
#     Edge 21, Type (0, 0), BuildingBlock: UVAHIK_clean_linker_0, # of connection points: 2
#     Edge 22, Type (0, 0), BuildingBlock: UVAHIK_clean_linker_0, # of connection points: 2
#     Edge 23, Type (0, 0), BuildingBlock: UVAHIK_clean_linker_0, # of connection points: 2
# Relax obj value: 0.519
# Max RMSD: 0.252
# Mean RMSD: 0.252
data_MOF--net-rkf--node1-INOVEN_clean_sbu_0--edge1-UVAHIK_clean_linker_0
_symmetry_space_group_name_H-M    P1
_symmetry_Int_Tables_number       1
_symmetry_cell_setting            triclinic
loop_
_symmetry_equiv_pos_as_xyz
'x, y, z'
_cell_length_a     31.533745
_cell_length_b     31.613901
_cell_length_c     58.076277
_cell_angle_alpha  90.216517
_cell_angle_beta   89.92159
_cell_angle_gamma 120.19701
loop_
_atom_site_label
_atom_site_type_symbol
_atom_site_fract_x
_atom_site_fract_y
_atom_site_fract_z
_atom_type_partial_charge
Gd0 Gd 0.31591 0.12943 0.12119 0.0
Gd1 Gd 0.36198 0.23251 0.10702 0.0
C2 C 0.32595 0.20285 0.16149 0.0
C3 C 0.29778 0.04123 0.12849 0.0
C4 C 0.29408 0.00975 0.14774 0.0
C5 C 0.28065 0.0171 0.16975 0.0
C6 C 0.3013 0.97011 0.14372 0.0
C7 C 0.27763 0.94274 0.18318 0.0
C8 C 0.29327 0.93687 0.16132 0.0
C9 C 0.27228 0.98376 0.18729 0.0
C10 C 0.2501 0.15523 0.10702 0.0
C11 C 0.33784 0.15505 1.06551 0.0
C12 C 0.38726 0.32293 0.09985 0.0
C13 C 0.39443 0.35653 1.08097 0.0
C14 C 0.40904 0.35013 1.05903 0.0
C15 C 0.38714 0.3961 1.08513 0.0
C16 C 0.40823 0.42241 1.04544 0.0
C17 C 0.39382 0.42874 1.06748 0.0
C18 C 0.41609 0.38298 1.04141 0.0
C19 C 0.42602 0.20285 0.11756 0.0
O20 O 0.31975 0.15887 0.1573 0.0
O21 O 0.3382 0.23486 0.14441 0.0
O22 O 0.26378 0.0533 0.12742 0.0
O23 O 0.34162 0.07753 0.12372 0.0
O24 O 0.24417 0.12805 0.12485 0.0
O25 O 0.29148 0.16851 1.09848 0.0
O26 O 0.34608 0.19971 1.07056 0.0
O27 O 0.33114 0.12433 1.08259 0.0
O28 O 0.41852 0.30736 0.10107 0.0
O29 O 0.34205 0.28874 0.10409 0.0
O30 O 0.43145 0.23101 0.10031 0.0
O31 O 0.38787 0.19284 0.12879 0.0
H32 H 0.27507 0.04768 0.17316 0.0
H33 H 0.31198 0.96417 0.12681 0.0
H34 H 0.29843 0.90614 0.15768 0.0
H35 H 0.25957 -0.01089 0.20378 0.0
H36 H 0.41464 0.31961 1.0555 0.0
H37 H 0.37605 0.4016 0.10203 0.0
H38 H 0.38761 0.45886 1.07104 0.0
H39 H 0.42633 0.37673 1.02447 0.0
Gd40 Gd 0.26195 0.31128 0.45397 0.0
Gd41 Gd 0.21534 0.36792 0.44117 0.0
C42 C 0.20483 0.32795 0.49505 0.0
C43 C 0.3262 0.28435 0.45968 0.0
C44 C 0.35844 0.28264 0.47734 0.0
C45 C 0.34484 0.27572 0.5006 0.0
C46 C 0.40243 0.28544 0.47057 0.0
C47 C 0.41682 0.26949 0.50987 0.0
C48 C 0.4315 0.27902 0.4867 0.0
C49 C 0.37371 0.26903 0.51673 0.0
C50 C 0.16788 0.25465 0.43881 0.0
C51 C 0.26236 0.33834 0.39868 0.0
C52 C 0.15905 0.40449 0.43465 0.0
C53 C 0.14092 0.42049 0.41533 0.0
C54 C 0.12145 0.45108 0.41941 0.0
C55 C 0.14321 0.4058 0.39282 0.0
C56 C 0.10465 0.45073 0.37855 0.0
C57 C 0.12505 0.42063 0.37459 0.0
C58 C 0.10339 0.46612 0.40115 0.0
C59 C 0.31149 0.42347 0.45069 0.0
O60 O 0.24011 0.31814 0.49042 0.0
O61 O 0.18702 0.34306 0.47824 0.0
O62 O 0.27898 0.25504 0.46246 0.0
O63 O 0.33743 0.32779 0.45229 0.0
O64 O 0.1869 0.24304 0.45577 0.0
O65 O 0.19998 0.29531 0.43122 0.0
O66 O 0.2307 0.35304 0.40413 0.0
O67 O 0.28204 0.3252 0.41545 0.0
O68 O 0.20603 0.43105 0.43871 0.0
O69 O 0.14269 0.35744 0.43605 0.0
O70 O 0.2897 0.43151 0.43381 0.0
O71 O 0.2812 0.38679 0.46232 0.0
H72 H 0.31109 0.27379 0.50616 0.0
H73 H 0.41361 0.2912 0.45267 0.0
H74 H 0.46479 0.28029 0.48093 0.0
H75 H 0.36091 0.26113 0.53436 0.0
H76 H 0.1199 0.46302 0.43675 0.0
H77 H 0.15835 0.38231 0.3894 0.0
H78 H 0.12568 0.40722 0.35748 0.0
H79 H 0.08824 0.48952 0.40473 0.0
Gd80 Gd 0.03769 0.26834 0.7889 0.0
Gd81 Gd 0.93397 0.22401 0.77599 0.0
C82 C 0.96297 0.21532 0.83029 0.0
C83 C 0.13013 0.33023 0.79442 0.0
C84 C 0.16523 0.36561 0.81108 0.0
C85 C 0.20892 0.36562 0.81537 0.0
C86 C 0.15668 0.40011 0.82226 0.0
C87 C 0.23458 0.43308 0.84243 0.0
C88 C 0.19104 0.43352 0.83784 0.0
C89 C 0.24327 0.39896 0.8309 0.0
C90 C -0.00273 0.17378 0.77416 0.0
C91 C 0.01099 0.26787 0.73344 0.0
C92 C 0.84044 0.1683 0.76984 0.0
C93 C 0.80565 0.14505 0.75093 0.0
C94 C 0.75522 0.12266 0.7553 0.0
C95 C 0.82226 0.14477 0.72861 0.0
C96 C 0.73777 0.09807 0.71514 0.0
C97 C 0.78859 0.12137 0.71085 0.0
C98 C 0.72143 0.09926 0.73753 0.0
C99 C 0.97695 0.32002 0.78551 0.0
O100 O 0.00876 0.24905 0.82544 0.0
O101 O 0.92959 0.19794 0.81356 0.0
O102 O 0.11003 0.28382 0.79965 0.0
O103 O 0.09949 0.34128 0.78474 0.0
O104 O 0.02846 0.19265 0.791 0.0
O105 O -0.01013 0.20637 0.76639 0.0
O106 O 0.96425 0.23717 0.73895 0.0
O107 O 0.04414 0.28737 0.75021 0.0
O108 O 0.86237 0.216 0.77072 0.0
O109 O 0.8701 0.15149 0.77389 0.0
O110 O 0.94636 0.29864 0.76876 0.0
O111 O -0.01728 0.28947 0.79712 0.0
H112 H 0.21632 0.33948 0.80681 0.0
H113 H 0.12355 0.40128 0.81902 0.0
H114 H 0.18347 0.45957 0.84634 0.0
H115 H 0.27598 0.39701 0.83437 0.0
H116 H 0.74198 0.12291 0.7725 0.0
H117 H 0.86119 0.16198 0.72501 0.0
H118 H 0.80241 0.12031 0.69391 0.0
H119 H 0.68261 0.08193 0.74132 0.0
Gd120 Gd 0.86448 0.06358 0.12439 0.0
Gd121 Gd 0.78425 0.96107 0.11509 0.0
C122 C 0.82933 0.98399 0.16678 0.0
C123 C 0.91386 0.15371 0.13778 0.0
C124 C 0.91227 0.18524 0.15618 0.0
C125 C 0.93045 0.18615 0.17833 0.0
C126 C 0.8933 0.21607 0.15127 0.0
C127 C 0.91064 0.24822 0.19028 0.0
C128 C 0.89226 0.24702 0.16815 0.0
C129 C 0.92965 0.21736 0.1952 0.0
C130 C 0.89502 0.0072 0.10384 0.0
C131 C 0.83125 0.04006 1.07149 0.0
C132 C 0.72442 0.87217 0.10188 0.0
C133 C 0.71433 0.84167 1.08137 0.0
C134 C 0.67925 0.79176 1.08242 0.0
C135 C 0.74119 0.86133 1.06112 0.0
C136 C 0.69936 0.78059 1.04331 0.0
C137 C 0.73373 0.83104 1.04221 0.0
C138 C 0.6718 0.76133 1.06352 0.0
C139 C 0.75427 0.01921 0.13513 0.0
O140 O 0.84968 0.03088 0.16089 0.0
O141 O 0.80521 0.94928 0.15113 0.0
O142 O 0.92637 0.12118 0.14318 0.0
O143 O 0.87776 0.13715 0.123 0.0
O144 O 0.91586 0.05403 0.10079 0.0
O145 O 0.86311 -0.00654 0.11936 0.0
O146 O 0.805 -0.00668 1.07808 0.0
O147 O 0.8536 0.07493 1.08707 0.0
O148 O 0.71429 0.90743 0.1005 0.0
O149 O 0.76646 0.88579 0.11194 0.0
O150 O 0.73715 0.9737 0.14034 0.0
O151 O 0.78519 0.031 0.11919 0.0
H152 H 0.94573 0.1632 0.18259 0.0
H153 H 0.87936 0.21645 0.13427 0.0
H154 H 0.87701 0.26998 0.16385 0.0
H155 H 0.94501 0.21809 0.21197 0.0
H156 H 0.65832 0.77616 1.09803 0.0
H157 H 0.76871 0.89978 1.06014 0.0
H158 H 0.75621 0.84683 1.02705 0.0
H159 H 0.64498 0.72272 1.0648 0.0
Gd160 Gd 0.8884 0.87318 0.45995 0.0
Gd161 Gd 0.9143 0.79711 0.44706 0.0
C162 C 0.93445 0.83501 0.5001 0.0
C163 C 0.84461 0.91788 0.47552 0.0
C164 C 0.81091 0.91224 0.49412 0.0
C165 C 0.79174 0.94363 0.49497 0.0
C166 C 0.79461 0.87356 0.50983 0.0
C167 C 0.74028 0.89827 0.5274 0.0
C168 C 0.75962 0.86674 0.52645 0.0
C169 C 0.75671 0.93676 0.51147 0.0
C170 C 0.97816 0.91029 0.44119 0.0
C171 C 0.88282 0.84957 0.40576 0.0
C172 C 0.94619 0.74163 0.43106 0.0
C173 C 0.96342 0.73213 0.40931 0.0
C174 C 0.97908 0.69782 0.40863 0.0
C175 C 0.96646 0.7585 0.38948 0.0
C176 C 0.00405 0.7187 0.36869 0.0
C177 C -0.01314 0.7521 0.36937 0.0
C178 C -0.00091 0.69097 0.38845 0.0
C179 C 0.82502 0.76142 0.46696 0.0
O180 O 0.90617 0.85401 0.49543 0.0
O181 O 0.9467 0.81432 0.48339 0.0
O182 O 0.88959 0.93034 0.48128 0.0
O183 O 0.82592 0.88341 0.45989 0.0
O184 O 0.95153 0.93072 0.43937 0.0
O185 O 0.95866 0.8747 0.45475 0.0
O186 O 0.9018 0.82149 0.41118 0.0
O187 O 0.87056 0.87042 0.42218 0.0
O188 O 0.89968 0.72821 0.43205 0.0
O189 O 0.9746 0.78468 0.44029 0.0
O190 O 0.85494 0.74566 0.47128 0.0
O191 O 0.8435 0.79464 0.45198 0.0
H192 H 0.80366 0.97331 0.48275 0.0
H193 H 0.80858 0.8485 0.50907 0.0
H194 H 0.7475 0.83671 0.53846 0.0
H195 H 0.74321 0.9622 0.51205 0.0
H196 H 0.97666 0.67696 0.42384 0.0
H197 H 0.95413 0.78482 0.38969 0.0
H198 H -0.00924 0.77472 0.35466 0.0
H199 H 0.01127 0.66448 0.38844 0.0
Gd200 Gd 0.10925 0.89079 0.79117 0.0
Gd201 Gd 0.21373 0.92209 0.77902 0.0
C202 C 0.19335 0.94226 0.83165 0.0
C203 C 0.0205 0.84274 0.80651 0.0
C204 C -0.00797 0.81356 0.82648 0.0
C205 C -0.00761 0.83564 0.84754 0.0
C206 C 0.9616 0.76269 0.82393 0.0
C207 C 0.93058 0.75662 0.86278 0.0
C208 C 0.93134 0.73447 0.84191 0.0
C209 C 0.96193 0.80742 0.86551 0.0
C210 C 0.15853 0.97892 0.77106 0.0
C211 C 0.12899 0.88393 0.73738 0.0
C212 C 0.3018 0.95977 0.76292 0.0
C213 C 0.32772 0.97631 0.74085 0.0
C214 C 0.30988 0.94791 0.72076 0.0
C215 C 0.37074 0.02204 0.73985 0.0
C216 C 0.37696 0.01209 0.69866 0.0
C217 C 0.39505 0.0399 0.71897 0.0
C218 C 0.33449 0.96552 0.69988 0.0
C219 C 0.16267 0.83277 0.79867 0.0
O220 O 0.14598 0.91364 0.82672 0.0
O221 O 0.22707 0.95401 0.81537 0.0
O222 O 0.04847 0.89027 0.80901 0.0
O223 O 0.04051 0.82319 0.79382 0.0
O224 O 0.11163 0.94978 0.76876 0.0
O225 O 0.17604 0.96256 0.78561 0.0
O226 O 0.17652 0.90568 0.74297 0.0
O227 O 0.09531 0.87049 0.75363 0.0
O228 O 0.27238 0.91266 0.76551 0.0
O229 O 0.28387 0.98601 0.77127 0.0
O230 O 0.20828 0.86378 0.80319 0.0
O231 O 0.14714 0.85014 0.78358 0.0
H232 H 0.01524 0.87479 0.84999 0.0
H233 H 0.96048 0.74477 0.80781 0.0
H234 H 0.90801 0.69541 0.83935 0.0
H235 H 0.96164 0.82578 0.88125 0.0
H236 H 0.27666 0.91244 0.72109 0.0
H237 H 0.38497 0.04449 0.75519 0.0
H238 H 0.42703 0.07625 0.71865 0.0
H239 H 0.31987 0.94289 0.68463 0.0
C240 C 0.8904 0.96644 1.06662 0.0
C241 C 0.90582 0.97529 1.08969 0.0
C242 C 0.91608 0.95544 1.05041 0.0
C243 C 0.03775 0.96335 1.04464 0.0
H244 H 0.07325 0.09713 1.031 0.0
C245 C 0.16089 0.10821 1.09871 0.0
C246 C 0.20852 0.14141 1.09127 0.0
C247 C 0.12462 0.08051 1.08264 0.0
C248 C 0.06437 0.05961 1.03357 0.0
H249 H 0.95429 0.97168 0.11478 0.0
H250 H 7e-05 0.95372 1.08673 0.0
H251 H -0.01155 0.03297 1.02839 0.0
H252 H 0.25359 0.17744 1.06127 0.0
H253 H 0.18957 0.12798 1.03314 0.0
H254 H 0.11341 -0.00805 1.05284 0.0
C255 C 0.96788 0.95444 1.08082 0.0
C256 C 0.01549 0.02236 1.03207 0.0
C257 C 0.94197 0.96525 1.09703 0.0
C258 C 0.21741 0.15112 1.06749 0.0
C259 C 0.18112 0.12284 1.05136 0.0
C260 C 0.08677 0.00049 1.04583 0.0
C261 C 0.95857 0.95503 1.05706 0.0
C262 C 0.00135 0.9759 1.04133 0.0
C263 C 0.13548 0.08566 1.05899 0.0
C264 C 0.09883 0.04946 1.04321 0.0
H265 H 0.86226 0.97323 1.06046 0.0
H266 H 0.90746 0.95514 1.03233 0.0
H267 H 0.02796 0.92734 1.05092 0.0
H268 H 0.15275 0.10047 0.11685 0.0
H269 H 0.0888 0.0527 1.08872 0.0
C270 C 0.06323 0.97091 0.43158 0.0
C271 C 0.02218 0.92506 0.42727 0.0
C272 C 0.09451 -0.00266 0.41357 0.0
C273 C 0.0497 0.01896 0.36726 0.0
H274 H 0.1767 0.13534 0.37469 0.0
C275 C 0.13664 0.22883 0.39883 0.0
C276 C 0.13409 0.21698 0.42241 0.0
C277 C 0.12078 0.19225 0.38203 0.0
C278 C 0.14119 0.1033 0.37138 0.0
H279 H -0.0128 0.86678 0.40218 0.0
H280 H 0.03825 0.91473 0.3702 0.0
H281 H 0.17032 0.05551 0.37495 0.0
H282 H 0.10521 0.15757 0.44692 0.0
H283 H 0.0746 0.09337 0.41759 0.0
H284 H 0.01954 0.06629 0.36892 0.0
C285 C 0.04758 0.92982 0.38745 0.0
C286 C 0.13765 0.05745 0.37133 0.0
C287 C 0.0176 0.90266 0.40578 0.0
C288 C 0.10808 0.16775 0.42895 0.0
C289 C 0.09059 0.13113 0.41216 0.0
C290 C 0.05301 0.06464 0.36814 0.0
C291 C 0.08307 0.97912 0.39085 0.0
C292 C 0.09119 0.01523 0.37281 0.0
C293 C 0.09974 0.14338 0.3887 0.0
C294 C 0.09831 0.10631 0.3729 0.0
H295 H 0.06761 -0.01117 0.44808 0.0
H296 H 0.1219 0.03522 0.41685 0.0
H297 H 0.01334 0.98682 0.36751 0.0
H298 H 0.15546 0.26651 0.3932 0.0
H299 H 0.12829 0.20232 0.36405 0.0
C300 C 0.19815 0.01718 0.7341 0.0
C301 C 0.18641 0.02262 0.75685 0.0
C302 C 0.1994 0.04852 0.71692 0.0
C303 C 0.16404 0.14252 0.70684 0.0
H304 H 0.03495 0.02668 0.70289 0.0
C305 C 0.02372 0.11381 0.76442 0.0
C306 C 9e-05 0.13935 0.75789 0.0
C307 C 0.04314 0.09677 0.74762 0.0
C308 C 0.07069 0.05962 0.70258 0.0
H309 H 0.17693 0.07006 0.78048 0.0
H310 H 0.18058 0.12568 0.75092 0.0
H311 H 0.10721 0.01869 0.70026 0.0
H312 H 0.97087 0.1597 0.72874 0.0
H313 H 0.0083 0.13319 0.69954 0.0
H314 H 0.12667 0.18249 0.71187 0.0
C315 C 0.18824 0.09711 0.74595 0.0
C316 C 0.11247 0.05529 0.70104 0.0
C317 C 0.18581 0.06506 0.76302 0.0
C318 C -0.0098 0.14139 0.73433 0.0
C319 C 0.01119 0.12596 0.71752 0.0
C320 C 0.12227 0.14708 0.70763 0.0
C321 C 0.18903 0.08552 0.72254 0.0
C322 C 0.15866 0.09568 0.70669 0.0
C323 C 0.03977 0.10581 0.72418 0.0
C324 C 0.07561 0.10483 0.7084 0.0
H325 H 0.20022 0.9856 0.72888 0.0
H326 H 0.20072 0.03915 0.69907 0.0
H327 H 0.19934 0.17433 0.71071 0.0
H328 H 0.03141 0.11126 0.78238 0.0
H329 H 0.06537 0.0813 0.75301 0.0
C330 C 0.37331 0.46431 1.02249 0.0
C331 C 0.41148 0.45447 1.0262 0.0
C332 C 0.37206 0.48782 1.00245 0.0
C333 C 0.41152 0.49633 0.94291 0.0
H334 H 0.33674 0.56241 0.93633 0.0
C335 C 0.32005 0.48605 0.8576 0.0
C336 C 0.26912 0.46508 0.86051 0.0
C337 C 0.35188 0.50807 0.87618 0.0
C338 C 0.35825 0.54453 0.93786 0.0
H339 H 0.48062 0.46548 1.01305 0.0
H340 H 0.47893 0.50736 0.97808 0.0
H341 H 0.3697 0.55968 0.97399 0.0
H342 H 0.21203 0.45435 0.88465 0.0
H343 H 0.26726 0.49235 0.91699 0.0
H344 H 0.39791 0.47876 0.90722 0.0
C345 C 0.44932 0.49585 0.99038 0.0
C346 C 0.377 0.54282 0.95941 0.0
C347 C 0.4503 0.47186 1.01035 0.0
C348 C 0.25108 0.47037 0.8818 0.0
C349 C 0.28287 0.49238 0.90036 0.0
C350 C 0.39309 0.4983 0.9214 0.0
C351 C 0.40916 0.50231 0.98575 0.0
C352 C 0.40153 0.51637 0.9624 0.0
C353 C 0.33333 0.50951 0.898 0.0
C354 C 0.36406 0.52016 0.9189 0.0
H355 H 0.34273 0.45103 1.03434 0.0
H356 H 0.34016 0.49142 0.99939 0.0
H357 H 0.42985 0.47529 0.94451 0.0
H358 H 0.3351 0.4835 0.84122 0.0
H359 H 0.39069 0.52163 0.87378 0.0
C360 C 0.03567 0.45907 0.36206 0.0
C361 C 0.08161 0.46252 0.35925 0.0
C362 C 0.00893 0.45895 0.34285 0.0
C363 C 0.01269 0.46143 0.27794 0.0
H364 H 0.88572 0.34441 0.28533 0.0
C365 C 0.92541 0.33113 0.20209 0.0
C366 C 0.91183 0.28279 0.20796 0.0
C367 C 0.93223 0.36521 0.2192 0.0
C368 C 0.92093 0.37732 0.28291 0.0
H369 H 0.13846 0.47559 0.33455 0.0
H370 H 0.09139 0.47265 0.30121 0.0
H371 H 0.92997 0.39067 0.31898 0.0
H372 H 0.8907 0.23132 0.23613 0.0
H373 H 0.90471 0.29068 0.26592 0.0
H374 H 0.00616 0.44443 0.2421 0.0
C375 C 0.0756 0.47052 0.31803 0.0
C376 C 0.94617 0.40454 0.30227 0.0
C377 C 0.10249 0.4713 0.33719 0.0
C378 C 0.90222 0.26852 0.2311 0.0
C379 C 0.90937 0.30255 0.24818 0.0
C380 C -0.0121 0.43354 0.25862 0.0
C381 C 0.02731 0.46151 0.3205 0.0
C382 C -0.00599 0.44486 0.30016 0.0
C383 C 0.9259 0.35172 0.24254 0.0
C384 C 0.94336 0.38921 0.26114 0.0
H385 H 0.01867 0.45271 0.37887 0.0
H386 H 0.97245 0.45334 0.34547 0.0
H387 H 0.0486 0.49344 0.27559 0.0
H388 H 0.93314 0.34336 0.18439 0.0
H389 H 0.94436 0.40256 0.21422 0.0
C390 C 0.71171 0.08765 0.67388 0.0
C391 C 0.70248 0.06993 0.69653 0.0
C392 C 0.68498 0.05728 0.65561 0.0
C393 C 0.62727 0.92724 0.64284 0.0
H394 H 0.63167 0.97788 0.58172 0.0
C395 C 0.66612 0.90078 0.54124 0.0
C396 C 0.70587 0.89371 0.5459 0.0
C397 C 0.63916 0.90521 0.55926 0.0
C398 C 0.62866 0.96211 0.59858 0.0
H399 H 0.6542 0.00824 0.71804 0.0
H400 H 0.60646 0.95556 0.68612 0.0
H401 H 0.62783 0.02229 0.61503 0.0
H402 H 0.74634 0.88229 0.57291 0.0
H403 H 0.70048 0.89092 0.60419 0.0
H404 H 0.62918 0.86764 0.6264 0.0
C405 C 0.63533 -0.00746 0.68242 0.0
C406 C 0.62712 -0.01193 0.61776 0.0
C407 C 0.66246 0.02291 0.70075 0.0
C408 C 0.71573 0.8874 0.56877 0.0
C409 C 0.68906 0.8921 0.58674 0.0
C410 C 0.6279 0.90085 0.62366 0.0
C411 C 0.64803 0.00849 0.65956 0.0
C412 C 0.63048 0.97298 0.64009 0.0
C413 C 0.65169 0.90298 0.58227 0.0
C414 C 0.63263 0.92006 0.60142 0.0
H415 H 0.74153 0.12418 0.67015 0.0
H416 H 0.69624 0.07108 0.63831 0.0
H417 H 0.62933 0.91397 0.65971 0.0
H418 H 0.65712 0.90481 0.5237 0.0
H419 H 0.61007 0.91271 0.5552 0.0
C420 C 0.69516 0.70422 1.0282 0.0
C421 C 0.6954 0.74811 1.02399 0.0
C422 C 0.70103 0.67844 1.01006 0.0
C423 C 0.76439 0.66774 0.97414 0.0
H424 H 0.73468 0.68087 0.91078 0.0
C425 C 0.90794 0.73762 0.90435 0.0
C426 C 0.89476 0.72778 0.88105 0.0
C427 C 0.87241 0.7165 0.9215 0.0
C428 C 0.74263 0.67546 0.92829 0.0
H429 H 0.69666 0.79659 0.9974 0.0
H430 H 0.70844 0.75292 0.96594 0.0
H431 H 0.68393 0.68387 0.94145 0.0
H432 H 0.8345 0.68495 0.85753 0.0
H433 H 0.77267 0.6471 0.88755 0.0
H434 H 0.8239 0.66065 0.96102 0.0
C435 C 0.70331 0.73779 0.98309 0.0
C436 C 0.71378 0.6778 0.94593 0.0
C437 C 0.6973 0.76338 1.00118 0.0
C438 C 0.84592 0.69331 0.87534 0.0
C439 C 0.81036 0.67191 0.89253 0.0
C440 C 0.79287 0.66479 0.9565 0.0
C441 C 0.70736 0.69618 0.98741 0.0
C442 C 0.72642 0.67733 0.96907 0.0
C443 C 0.82285 0.68477 0.91575 0.0
C444 C 0.78432 0.67195 0.93349 0.0
H445 H 0.69371 0.69149 1.04563 0.0
H446 H 0.70328 0.64613 1.01392 0.0
H447 H 0.77516 0.66697 0.99176 0.0
H448 H 0.94544 0.76327 0.90931 0.0
H449 H 0.88349 0.72775 0.93915 0.0
C450 C 0.01565 0.72131 0.32589 0.0
C451 C 0.03021 0.71581 0.34798 0.0
C452 C 0.04505 0.72741 0.30681 0.0
C453 C 0.17555 0.77605 0.29433 0.0
H454 H 0.12615 0.75592 0.23184 0.0
C455 C 0.27165 0.91763 0.22449 0.0
C456 C 0.26305 0.90453 0.20112 0.0
C457 C 0.25047 0.88206 0.24155 0.0
C458 C 0.1411 0.76104 0.24906 0.0
H459 H 0.08512 0.70802 0.36702 0.0
H460 H 0.13519 0.71637 0.33358 0.0
H461 H 0.07097 0.70981 0.26293 0.0
H462 H 0.22868 0.84312 0.17736 0.0
H463 H 0.19349 0.78089 0.20714 0.0
H464 H 0.24571 0.82717 0.28045 0.0
C465 C 0.10182 0.71764 0.33109 0.0
C466 C 0.10911 0.73504 0.267 0.0
C467 C 0.0727 0.71221 0.35026 0.0
C468 C 0.23615 0.85459 0.1952 0.0
C469 C 0.21541 0.81888 0.2123 0.0
C470 C 0.20773 0.80138 0.27635 0.0
C471 C 0.08946 0.72742 0.30929 0.0
C472 C 0.12531 0.74434 0.28998 0.0
C473 C 0.22065 0.83233 0.23567 0.0
C474 C 0.1903 0.79632 0.25366 0.0
H475 H -0.01749 0.72303 0.32342 0.0
H476 H 0.03426 0.73519 0.29039 0.0
H477 H 0.18964 0.78429 0.31175 0.0
H478 H 0.29309 0.95567 0.22966 0.0
H479 H 0.25514 0.89413 0.25931 0.0
C480 C 0.37037 0.02614 0.65678 0.0
C481 C 0.40001 0.03342 0.67613 0.0
C482 C 0.39097 0.05094 0.63634 0.0
C483 C 0.49098 0.1668 0.61712 0.0
H484 H 0.43473 0.11197 0.5575 0.0
C485 C 0.4588 0.22232 0.51948 0.0
C486 C 0.44308 0.25493 0.52636 0.0
C487 C 0.47436 0.20073 0.53581 0.0
C488 C 0.45207 0.12806 0.57381 0.0
H489 H 0.47512 0.07013 0.68862 0.0
H490 H 0.51097 0.11458 0.65287 0.0
H491 H 0.42171 0.05767 0.58954 0.0
H492 H 0.43654 0.29452 0.55542 0.0
H493 H 0.46176 0.25558 0.58396 0.0
H494 H 0.51964 0.2373 0.60159 0.0
C495 C 0.47174 0.08966 0.6537 0.0
C496 C 0.4441 0.09681 0.59224 0.0
C497 C 0.45113 0.06441 0.67417 0.0
C498 C 0.44738 0.26871 0.54964 0.0
C499 C 0.46261 0.24688 0.56598 0.0
C500 C 0.49909 0.19815 0.59864 0.0
C501 C 0.44166 0.08389 0.63475 0.0
C502 C 0.46127 0.1159 0.61432 0.0
C503 C 0.47415 0.21099 0.55935 0.0
C504 C 0.47756 0.1791 0.57707 0.0
H505 H 0.33085 0.00333 0.65773 0.0
H506 H 0.36666 0.04641 0.62219 0.0
H507 H 0.50474 0.18259 0.63396 0.0
H508 H 0.45595 0.2108 0.50169 0.0
H509 H 0.48384 0.17386 0.53011 0.0
C510 C 0.50513 0.20484 0.11114 0.0
C511 C 0.4616 0.18744 0.12382 0.0
C512 C 0.53882 0.19002 0.11654 0.0
C513 C 0.54768 0.08979 0.14251 0.0
H514 H 0.68753 0.18271 0.14205 0.0
C515 C 0.68741 0.02535 0.15522 0.0
C516 C 0.72741 0.04535 0.14 0.0
C517 C 0.65759 0.0462 0.15737 0.0
C518 C 0.64864 0.1562 0.1421 0.0
H519 H 0.41929 0.14133 0.1523 0.0
H520 H 0.47799 0.11453 0.16152 0.0
H521 H 0.62953 0.21183 0.13768 0.0
H522 H 0.76934 0.10437 0.11607 0.0
H523 H 0.71695 0.14019 0.11939 0.0
H524 H 0.56648 0.03393 0.14599 0.0
C525 C 0.48599 0.13975 0.14741 0.0
C526 C 0.61542 0.17294 0.13966 0.0
C527 C 0.45247 0.15509 0.14216 0.0
C528 C 0.73865 0.0881 0.1279 0.0
C529 C 0.70867 0.10877 0.12993 0.0
C530 C 0.58089 0.07298 0.14477 0.0
C531 C 0.52955 0.1571 0.13464 0.0
C532 C 0.56461 0.13984 0.13946 0.0
C533 C 0.66701 0.08738 0.14426 0.0
C534 C 0.63185 0.10589 0.14421 0.0
H535 H 0.51312 0.22978 1.0969 0.0
H536 H 0.57169 0.2035 0.10618 0.0
H537 H 0.50876 0.06335 0.14219 0.0
H538 H 0.6782 -0.00735 0.16494 0.0
H539 H 0.62651 0.02938 0.16896 0.0
C540 C 0.38889 0.50252 0.44519 0.0
C541 C 0.36309 0.45798 0.45705 0.0
C542 C 0.43759 0.53603 0.45064 0.0
C543 C 0.54913 0.54615 0.47464 0.0
H544 H 0.59224 0.6847 0.47678 0.0
C545 C 0.75368 0.69111 0.48631 0.0
C546 C 0.77184 0.73207 0.47183 0.0
C547 C 0.70313 0.65933 0.48861 0.0
C548 C 0.58096 0.64622 0.47609 0.0
H549 H 0.3682 0.41327 0.48384 0.0
H550 H 0.45445 0.47203 0.49322 0.0
H551 H 0.50507 0.62487 0.47317 0.0
H552 H 0.75142 0.77334 0.44929 0.0
H553 H 0.66329 0.71763 0.45294 0.0
H554 H 0.62502 0.56738 0.47667 0.0
C555 C 0.4365 0.48093 0.47978 0.0
C556 C 0.53095 0.61191 0.47411 0.0
C557 C 0.38722 0.44743 0.47448 0.0
C558 C 0.73847 0.74201 0.46057 0.0
C559 C 0.68789 0.7101 0.46277 0.0
C560 C 0.59925 0.58051 0.47648 0.0
C561 C 0.46207 0.52576 0.46796 0.0
C562 C 0.51453 0.56154 0.47289 0.0
C563 C 0.66954 0.6677 0.47642 0.0
C564 C 0.61592 0.63107 0.47678 0.0
H565 H 0.37141 0.51169 0.4316 0.0
H566 H 0.45642 0.56975 0.44092 0.0
H567 H 0.53769 0.50765 0.47353 0.0
H568 H 0.77859 0.68278 0.49538 0.0
H569 H 0.69042 0.6277 0.49966 0.0
C570 C -0.01862 0.39964 0.7786 0.0
C571 C -0.00446 0.37172 0.79185 0.0
C572 C -0.00219 0.44839 0.78418 0.0
C573 C 0.09745 0.55661 0.81048 0.0
H574 H 0.00423 0.60258 0.81038 0.0
C575 C 0.16172 0.76258 0.81897 0.0
C576 C 0.13905 0.78003 0.80401 0.0
C577 C 0.14222 0.71223 0.82202 0.0
C578 C 0.03086 0.59053 0.81032 0.0
H579 H 0.03764 0.37269 0.82146 0.0
H580 H 0.06826 0.45944 0.83079 0.0
H581 H 0.97485 0.51524 0.8071 0.0
H582 H 0.07727 0.75865 0.78113 0.0
H583 H 0.0438 0.67115 0.78598 0.0
H584 H 0.15371 0.6319 0.81248 0.0
C585 C 0.04404 0.44308 0.81619 0.0
C586 C 0.01395 0.54043 0.80858 0.0
C587 C 0.02674 0.39369 0.81081 0.0
C588 C 0.09548 0.74629 0.79284 0.0
C589 C 0.07615 0.69601 0.79575 0.0
C590 C 0.11449 0.60688 0.81196 0.0
C591 C 0.02931 0.47072 0.80297 0.0
C592 C 0.0471 0.52304 0.80811 0.0
C593 C 0.09971 0.67822 0.81007 0.0
C594 C 0.08145 0.6246 0.81134 0.0
H595 H 0.95744 0.38382 0.76387 0.0
H596 H -0.01357 0.46896 0.77348 0.0
H597 H 0.12381 0.5442 0.81 0.0
H598 H 0.19521 0.78784 0.82793 0.0
H599 H 0.16087 0.69999 0.8335 0.0
C600 C 0.32759 0.2644 0.19086 0.0
C601 C 0.31915 0.21704 0.18577 0.0
C602 C 0.32121 0.27777 0.21336 0.0
C603 C 0.30694 0.23779 0.27615 0.0
H604 H 0.2693 0.33604 0.2847 0.0
C605 C 0.30466 0.31366 0.36837 0.0
C606 C 0.27059 0.32876 0.3738 0.0
C607 C 0.31028 0.30091 0.34566 0.0
C608 C 0.27944 0.30819 0.28288 0.0
H609 H 0.29669 0.14668 0.2013 0.0
H610 H 0.28493 0.16932 0.24005 0.0
H611 H 0.27805 0.31166 0.24594 0.0
H612 H 0.21554 0.34177 0.3586 0.0
H613 H 0.22489 0.31941 0.31925 0.0
H614 H 0.30708 0.23331 0.31303 0.0
C615 C 0.29744 0.1969 0.22675 0.0
C616 C 0.28521 0.29448 0.26032 0.0
C617 C 0.30393 0.18358 0.20423 0.0
C618 C 0.24263 0.33101 0.35536 0.0
C619 C 0.24816 0.31809 0.33256 0.0
C620 C 0.30115 0.25146 0.29868 0.0
C621 C 0.30594 0.24438 0.23193 0.0
C622 C 0.29924 0.25898 0.25635 0.0
C623 C 0.2819 0.30232 0.32716 0.0
C624 C 0.28744 0.28717 0.30267 0.0
H625 H 0.33947 0.29162 0.17739 0.0
H626 H 0.32913 0.31489 0.21618 0.0
H627 H 0.31826 0.21081 0.27439 0.0
H628 H 0.3271 0.31124 0.38181 0.0
H629 H 0.33745 0.29019 0.34269 0.0
C630 C 0.14704 0.33228 0.52496 0.0
C631 C 0.18437 0.32164 0.51944 0.0
C632 C 0.12779 0.32618 0.54757 0.0
C633 C 0.15314 0.30859 0.61005 0.0
H634 H 0.01861 0.27662 0.61939 0.0
C635 C 0.07833 0.30782 0.703 0.0
C636 C 0.02858 0.27542 0.70849 0.0
C637 C 0.0962 0.31307 0.6802 0.0
C638 C 0.05622 0.28516 0.61735 0.0
H639 H 0.22993 0.29561 0.53438 0.0
H640 H 0.19648 0.28451 0.57327 0.0
H641 H 0.05073 0.28509 0.58043 0.0
H642 H 0.95896 0.2229 0.69325 0.0
H643 H -0.01025 0.23168 0.65376 0.0
H644 H 0.15837 0.30753 0.6469 0.0
C645 C 0.18227 0.29845 0.56023 0.0
C646 C 0.07514 0.29076 0.59467 0.0
C647 C 0.20152 0.30457 0.53761 0.0
C648 C -0.00267 0.2487 0.69 0.0
C649 C 0.01525 0.25391 0.6671 0.0
C650 C 0.13427 0.30304 0.6327 0.0
C651 C 0.14488 0.30911 0.56584 0.0
C652 C 0.12417 0.30272 0.5904 0.0
C653 C 0.0653 0.28604 0.66163 0.0
C654 C 0.08534 0.29134 0.63699 0.0
H655 H 0.13255 0.34559 0.51174 0.0
H656 H 0.09981 0.33574 0.55072 0.0
H657 H 0.1911 0.31827 0.60808 0.0
H658 H 0.10403 0.32927 0.71646 0.0
H659 H 0.13461 0.33898 0.67721 0.0
C660 C 0.89945 0.16272 0.86096 0.0
C661 C 0.94858 0.19626 0.85488 0.0
C662 C 0.88612 0.1448 0.88375 0.0
C663 C 0.93441 0.16796 0.9457 0.0
H664 H 0.81947 0.04139 0.95691 0.0
C665 C 0.86503 0.105 1.04004 0.0
C666 C 0.83999 0.05495 1.04614 0.0
C667 C 0.87689 0.12054 1.01695 0.0
C668 C 0.85203 0.07671 0.95435 0.0
H669 H 0.02206 0.23624 0.86898 0.0
H670 H -0.00048 0.2048 0.90806 0.0
H671 H 0.84301 0.07036 0.91756 0.0
H672 H 0.8076 0.98216 1.03147 0.0
H673 H 0.82889 0.00893 0.9914 0.0
H674 H 0.94453 0.17376 0.98233 0.0
C675 C 0.97053 0.19279 0.89542 0.0
C676 C 0.86537 0.09394 0.93143 0.0
C677 C -0.01622 0.21087 0.87266 0.0
C678 C 0.82668 0.02099 1.02784 0.0
C679 C 0.83893 0.03663 1.00459 0.0
C680 C 0.92121 0.1507 0.96856 0.0
C681 C 0.92128 0.15931 0.90165 0.0
C682 C 0.90687 0.14017 0.92646 0.0
C683 C 0.86482 0.08695 0.99855 0.0
C684 C 0.87947 0.10474 0.97358 0.0
H685 H 0.87086 0.15031 0.84806 0.0
H686 H 0.84771 0.11995 0.88732 0.0
H687 H 0.96623 0.20386 0.94329 0.0
H688 H 0.87597 0.13283 1.05325 0.0
H689 H 0.89545 0.15945 1.01364 0.0
C690 C 0.81373 0.92052 0.19807 0.0
C691 C 0.83458 0.96996 0.19133 0.0
C692 C 0.81948 0.90735 0.22069 0.0
C693 C 0.85769 0.95834 0.28163 0.0
H694 H 0.8585 0.83781 0.29205 0.0
C695 C 0.8538 0.8879 0.37553 0.0
C696 C 0.87686 0.8606 0.38075 0.0
C697 C 0.84941 0.90053 0.35268 0.0
C698 C 0.85881 0.8719 0.28968 0.0
H699 H 0.87844 0.04413 0.20414 0.0
H700 H 0.88883 0.02163 0.24305 0.0
H701 H 0.85045 0.86107 0.253 0.0
H702 H 0.91371 0.82579 0.36488 0.0
H703 H 0.90642 0.84785 0.32519 0.0
H704 H 0.86717 0.96983 0.31817 0.0
C705 C 0.86715 -0.0075 0.23098 0.0
C706 C 0.85345 0.88513 0.26698 0.0
C707 C 0.86138 0.00564 0.20834 0.0
C708 C 0.89525 0.84633 0.36189 0.0
C709 C 0.89087 0.85907 0.33889 0.0
C710 C 0.86298 0.9451 0.30429 0.0
C711 C 0.84641 0.94297 0.23778 0.0
C712 C 0.85261 0.92868 0.26234 0.0
C713 C 0.86802 0.88677 0.33371 0.0
C714 C 0.86345 0.9014 0.30898 0.0
H715 H 0.79274 0.89156 0.18578 0.0
H716 H 0.802 0.86882 0.22479 0.0
H717 H 0.85685 -0.00813 0.2794 0.0
H718 H 0.83888 0.89983 0.38923 0.0
H719 H 0.83063 0.92084 0.34998 0.0
C720 C -0.01473 0.81998 0.53005 0.0
C721 C 0.95428 0.83873 0.52443 0.0
C722 C 0.00497 0.82491 0.55249 0.0
C723 C -0.00955 0.85589 0.61452 0.0
H724 H 0.11652 0.86491 0.62322 0.0
C725 C 0.06116 0.85092 0.70717 0.0
C726 C 0.11181 0.87701 0.71238 0.0
C727 C 0.04357 0.8465 0.68442 0.0
C728 C 0.0814 0.86287 0.62132 0.0
H729 H 0.9205 0.87786 0.53897 0.0
H730 H 0.95472 0.88687 0.57751 0.0
H731 H 0.08378 0.85771 0.58443 0.0
H732 H 0.18346 0.91877 0.69661 0.0
H733 H 0.15304 0.91151 0.65705 0.0
H734 H -0.01153 0.86226 0.65125 0.0
C735 C 0.96347 0.86745 0.56473 0.0
C736 C 0.06203 0.858 0.59878 0.0
C737 C 0.94378 0.86248 0.54231 0.0
C738 C 0.14426 0.89805 0.6936 0.0
C739 C 0.12655 0.89371 0.67069 0.0
C740 C 0.00976 0.86072 0.63699 0.0
C741 C -0.00533 0.84887 0.57044 0.0
C742 C 0.01595 0.85429 0.59479 0.0
C743 C 0.07563 0.86816 0.66556 0.0
C744 C 0.05563 0.86409 0.64104 0.0
H745 H -0.00542 0.80142 0.51702 0.0
H746 H 0.02794 0.8092 0.55577 0.0
H747 H 0.95479 0.85268 0.61276 0.0
H748 H 0.03447 0.8338 0.72081 0.0
H749 H 0.00432 0.82547 0.68171 0.0
C750 C 0.25854 0.9873 0.86283 0.0
C751 C 0.20886 0.96315 0.85587 0.0
C752 C 0.2731 0.00781 0.88515 0.0
C753 C 0.23262 0.05307 0.93623 0.0
H754 H 0.33542 0.04494 0.9688 0.0
C755 C 0.31729 0.16002 1.02324 0.0
C756 C 0.32778 0.13594 1.04085 0.0
C757 C 0.30347 0.13967 1.00083 0.0
C758 C 0.30651 0.04762 0.9601 0.0
H759 H 0.13584 0.94253 0.86779 0.0
H760 H 0.16106 0.97854 0.90627 0.0
H761 H 0.30996 0.0082 0.93051 0.0
H762 H 0.33205 0.07092 1.04784 0.0
H763 H 0.30946 0.0364 1.00902 0.0
H764 H 0.22932 0.09266 0.96581 0.0
C765 C 0.18905 0.98167 0.89444 0.0
C766 C 0.29206 0.02671 0.93785 0.0
C767 C 0.17441 0.96052 0.87223 0.0
C768 C 0.32476 0.0911 1.03495 0.0
C769 C 0.31175 0.07117 1.01247 0.0
C770 C 0.2476 0.07465 0.95834 0.0
C771 C 0.23875 0.0058 0.90144 0.0
C772 C 0.25461 0.02873 0.92541 0.0
C773 C 0.30029 0.09469 0.99493 0.0
C774 C 0.28475 0.07224 0.97086 0.0
H775 H 0.2865 -0.00952 0.85096 0.0
H776 H 0.31172 0.02622 0.88948 0.0
H777 H 0.20402 0.05613 0.92745 0.0
H778 H 0.31861 0.19428 1.02689 0.0
H779 H 0.29552 0.15953 0.98803 0.0
loop_
_geom_bond_atom_site_label_1
_geom_bond_atom_site_label_2
_geom_bond_distance
_geom_bond_site_symmetry_2
_ccdc_geom_bond_type
Gd0 C3 2.818 . S
Gd0 O20 2.377 . S
Gd0 O22 2.448 . S
Gd0 O23 2.506 . S
Gd0 O24 2.435 . S
Gd0 O25 2.717 . S
Gd0 O27 2.395 1_554 S
Gd0 O31 2.327 . S
Gd1 C12 2.869 . S
Gd1 O21 2.342 1_556 S
Gd1 O25 2.315 1_556 S
Gd1 O26 2.409 . S
Gd1 O28 2.494 . S
Gd1 O29 2.551 . S
Gd1 O30 2.432 1_556 S
Gd1 O31 2.692 1_556 S
C2 O20 1.240 . S
C2 O21 1.240 . S
C3 Gd0 2.818 . S
C3 C4 1.510 . S
C3 O22 1.249 . S
C3 O23 1.252 . S
C4 C3 1.510 . S
C4 C5 1.404 . S
C4 C6 1.352 . S
C5 C4 1.404 . S
C5 C9 1.389 . S
C5 H32 0.930 . S
C6 C4 1.352 . S
C6 C8 1.374 . S
C6 H33 0.931 . S
C7 C8 1.359 . S
C7 C9 1.364 . S
C8 C6 1.374 . S
C8 C7 1.359 . S
C8 H34 0.931 . S
C9 C5 1.389 . S
C9 C7 1.364 . S
C9 H35 0.931 . S
C10 O24 1.256 . S
C10 O25 1.257 . S
C11 O26 1.240 . S
C11 O27 1.240 . S
C12 Gd1 2.869 . S
C12 C13 1.510 . S
C12 O28 1.249 . S
C12 O29 1.252 . S
C13 C12 1.510 . S
C13 C14 1.404 . S
C13 C15 1.352 . S
C14 C13 1.404 . S
C14 C18 1.389 . S
C14 H36 0.930 . S
C15 C13 1.352 . S
C15 C17 1.374 . S
C15 H37 0.931 . S
C16 C17 1.359 . S
C16 C18 1.364 . S
C17 C15 1.374 . S
C17 C16 1.359 . S
C17 H38 0.931 . S
C18 C14 1.389 . S
C18 C16 1.364 . S
C18 H39 0.931 . S
C19 O30 1.256 . S
C19 O31 1.257 . S
O20 Gd0 2.377 . S
O20 C2 1.240 . S
O21 Gd1 2.342 1_554 S
O21 C2 1.240 . S
O22 Gd0 2.448 . S
O22 C3 1.249 . S
O23 Gd0 2.506 . S
O23 C3 1.252 . S
O24 Gd0 2.435 . S
O24 C10 1.256 . S
O25 Gd0 2.717 . S
O25 Gd1 2.315 1_554 S
O25 C10 1.257 . S
O26 Gd1 2.409 . S
O26 C11 1.240 . S
O27 Gd0 2.395 1_556 S
O27 C11 1.240 . S
O28 Gd1 2.494 . S
O28 C12 1.249 . S
O29 Gd1 2.551 . S
O29 C12 1.252 . S
O30 Gd1 2.432 1_554 S
O30 C19 1.256 . S
O31 Gd0 2.327 . S
O31 Gd1 2.692 1_554 S
O31 C19 1.257 . S
H32 C5 0.930 . S
H33 C6 0.931 . S
H34 C8 0.931 . S
H35 C9 0.931 . S
H36 C14 0.930 . S
H37 C15 0.931 . S
H38 C17 0.931 . S
H39 C18 0.931 . S
Gd40 C43 2.818 . S
Gd40 O60 2.377 . S
Gd40 O62 2.448 . S
Gd40 O63 2.506 . S
Gd40 O64 2.435 . S
Gd40 O65 2.717 . S
Gd40 O67 2.395 . S
Gd40 O71 2.327 . S
Gd41 C52 2.818 . S
Gd41 O61 2.395 . S
Gd41 O65 2.327 . S
Gd41 O66 2.377 . S
Gd41 O68 2.448 . S
Gd41 O69 2.506 . S
Gd41 O70 2.435 . S
Gd41 O71 2.717 . S
C42 O60 1.240 . S
C42 O61 1.240 . S
C43 Gd40 2.818 . S
C43 C44 1.510 . S
C43 O62 1.249 . S
C43 O63 1.252 . S
C44 C43 1.510 . S
C44 C45 1.404 . S
C44 C46 1.352 . S
C45 C44 1.404 . S
C45 C49 1.389 . S
C45 H72 0.930 . S
C46 C44 1.352 . S
C46 C48 1.374 . S
C46 H73 0.931 . S
C47 C48 1.359 . S
C47 C49 1.364 . S
C48 C46 1.374 . S
C48 C47 1.359 . S
C48 H74 0.931 . S
C49 C45 1.389 . S
C49 C47 1.364 . S
C49 H75 0.931 . S
C50 O64 1.256 . S
C50 O65 1.257 . S
C51 O66 1.240 . S
C51 O67 1.240 . S
C52 Gd41 2.818 . S
C52 C53 1.510 . S
C52 O68 1.249 . S
C52 O69 1.252 . S
C53 C52 1.510 . S
C53 C54 1.404 . S
C53 C55 1.352 . S
C54 C53 1.404 . S
C54 C58 1.389 . S
C54 H76 0.930 . S
C55 C53 1.352 . S
C55 C57 1.374 . S
C55 H77 0.931 . S
C56 C57 1.359 . S
C56 C58 1.364 . S
C57 C55 1.374 . S
C57 C56 1.359 . S
C57 H78 0.931 . S
C58 C54 1.389 . S
C58 C56 1.364 . S
C58 H79 0.931 . S
C59 O70 1.256 . S
C59 O71 1.257 . S
O60 Gd40 2.377 . S
O60 C42 1.240 . S
O61 Gd41 2.395 . S
O61 C42 1.240 . S
O62 Gd40 2.448 . S
O62 C43 1.249 . S
O63 Gd40 2.506 . S
O63 C43 1.252 . S
O64 Gd40 2.435 . S
O64 C50 1.256 . S
O65 Gd40 2.717 . S
O65 Gd41 2.327 . S
O65 C50 1.257 . S
O66 Gd41 2.377 . S
O66 C51 1.240 . S
O67 Gd40 2.395 . S
O67 C51 1.240 . S
O68 Gd41 2.448 . S
O68 C52 1.249 . S
O69 Gd41 2.506 . S
O69 C52 1.252 . S
O70 Gd41 2.435 . S
O70 C59 1.256 . S
O71 Gd40 2.327 . S
O71 Gd41 2.717 . S
O71 C59 1.257 . S
H72 C45 0.930 . S
H73 C46 0.931 . S
H74 C48 0.931 . S
H75 C49 0.931 . S
H76 C54 0.930 . S
H77 C55 0.931 . S
H78 C57 0.931 . S
H79 C58 0.931 . S
Gd80 C83 2.818 . S
Gd80 O100 2.377 1_455 S
Gd80 O102 2.448 . S
Gd80 O103 2.506 . S
Gd80 O104 2.435 . S
Gd80 O105 2.717 1_455 S
Gd80 O107 2.395 . S
Gd80 O111 2.327 . S
Gd81 C92 2.818 . S
Gd81 O101 2.395 . S
Gd81 O105 2.327 . S
Gd81 O106 2.377 1_655 S
Gd81 O108 2.448 . S
Gd81 O109 2.506 . S
Gd81 O110 2.435 . S
Gd81 O111 2.717 1_655 S
C82 O100 1.240 . S
C82 O101 1.240 . S
C83 Gd80 2.818 . S
C83 C84 1.510 . S
C83 O102 1.249 . S
C83 O103 1.252 . S
C84 C83 1.510 . S
C84 C85 1.404 . S
C84 C86 1.352 . S
C85 C84 1.404 . S
C85 C89 1.389 . S
C85 H112 0.930 . S
C86 C84 1.352 . S
C86 C88 1.374 . S
C86 H113 0.931 . S
C87 C88 1.359 . S
C87 C89 1.364 . S
C88 C86 1.374 . S
C88 C87 1.359 . S
C88 H114 0.931 . S
C89 C85 1.389 . S
C89 C87 1.364 . S
C89 H115 0.931 . S
C90 O104 1.256 . S
C90 O105 1.257 1_455 S
C91 O106 1.240 . S
C91 O107 1.240 . S
C92 Gd81 2.818 . S
C92 C93 1.510 . S
C92 O108 1.249 . S
C92 O109 1.252 . S
C93 C92 1.510 . S
C93 C94 1.404 . S
C93 C95 1.352 . S
C94 C93 1.404 . S
C94 C98 1.389 . S
C94 H116 0.930 . S
C95 C93 1.352 . S
C95 C97 1.374 . S
C95 H117 0.931 . S
C96 C97 1.359 . S
C96 C98 1.364 . S
C97 C95 1.374 . S
C97 C96 1.359 . S
C97 H118 0.931 . S
C98 C94 1.389 . S
C98 C96 1.364 . S
C98 H119 0.931 . S
C99 O110 1.256 . S
C99 O111 1.257 1_655 S
O100 Gd80 2.377 1_655 S
O100 C82 1.240 . S
O101 Gd81 2.395 . S
O101 C82 1.240 . S
O102 Gd80 2.448 . S
O102 C83 1.249 . S
O103 Gd80 2.506 . S
O103 C83 1.252 . S
O104 Gd80 2.435 . S
O104 C90 1.256 . S
O105 Gd80 2.717 1_655 S
O105 Gd81 2.327 . S
O105 C90 1.257 1_655 S
O106 Gd81 2.377 1_455 S
O106 C91 1.240 . S
O107 Gd80 2.395 . S
O107 C91 1.240 . S
O108 Gd81 2.448 . S
O108 C92 1.249 . S
O109 Gd81 2.506 . S
O109 C92 1.252 . S
O110 Gd81 2.435 . S
O110 C99 1.256 . S
O111 Gd80 2.327 . S
O111 Gd81 2.717 1_455 S
O111 C99 1.257 1_455 S
H112 C85 0.930 . S
H113 C86 0.931 . S
H114 C88 0.931 . S
H115 C89 0.931 . S
H116 C94 0.930 . S
H117 C95 0.931 . S
H118 C97 0.931 . S
H119 C98 0.931 . S
Gd120 C123 2.818 . S
Gd120 O140 2.377 . S
Gd120 O142 2.448 . S
Gd120 O143 2.506 . S
Gd120 O144 2.435 . S
Gd120 O145 2.722 . S
Gd120 O147 2.395 1_554 S
Gd120 O151 2.327 . S
Gd121 C132 2.868 . S
Gd121 O141 2.343 1_556 S
Gd121 O145 2.314 1_566 S
Gd121 O146 2.409 1_565 S
Gd121 O148 2.493 . S
Gd121 O149 2.550 . S
Gd121 O150 2.432 1_556 S
Gd121 O151 2.692 1_566 S
C122 O140 1.240 1_565 S
C122 O141 1.240 . S
C123 Gd120 2.818 . S
C123 C124 1.510 . S
C123 O142 1.249 . S
C123 O143 1.252 . S
C124 C123 1.510 . S
C124 C125 1.404 . S
C124 C126 1.352 . S
C125 C124 1.404 . S
C125 C129 1.389 . S
C125 H152 0.930 . S
C126 C124 1.352 . S
C126 C128 1.374 . S
C126 H153 0.931 . S
C127 C128 1.359 . S
C127 C129 1.364 . S
C128 C126 1.374 . S
C128 C127 1.359 . S
C128 H154 0.931 . S
C129 C125 1.389 . S
C129 C127 1.364 . S
C129 H155 0.931 . S
C130 O144 1.256 . S
C130 O145 1.258 . S
C131 O146 1.240 . S
C131 O147 1.240 . S
C132 Gd121 2.868 . S
C132 C133 1.510 . S
C132 O148 1.249 . S
C132 O149 1.252 . S
C133 C132 1.510 . S
C133 C134 1.404 . S
C133 C135 1.352 . S
C134 C133 1.404 . S
C134 C138 1.389 . S
C134 H156 0.930 . S
C135 C133 1.352 . S
C135 C137 1.374 . S
C135 H157 0.931 . S
C136 C137 1.359 . S
C136 C138 1.364 . S
C137 C135 1.374 . S
C137 C136 1.359 . S
C137 H158 0.931 . S
C138 C134 1.389 . S
C138 C136 1.364 . S
C138 H159 0.931 . S
C139 O150 1.256 . S
C139 O151 1.257 1_565 S
O140 Gd120 2.377 . S
O140 C122 1.240 1_545 S
O141 Gd121 2.343 1_554 S
O141 C122 1.240 . S
O142 Gd120 2.448 . S
O142 C123 1.249 . S
O143 Gd120 2.506 . S
O143 C123 1.252 . S
O144 Gd120 2.435 . S
O144 C130 1.256 . S
O145 Gd120 2.722 . S
O145 Gd121 2.314 1_544 S
O145 C130 1.258 . S
O146 Gd121 2.409 1_545 S
O146 C131 1.240 . S
O147 Gd120 2.395 1_556 S
O147 C131 1.240 . S
O148 Gd121 2.493 . S
O148 C132 1.249 . S
O149 Gd121 2.550 . S
O149 C132 1.252 . S
O150 Gd121 2.432 1_554 S
O150 C139 1.256 . S
O151 Gd120 2.327 . S
O151 Gd121 2.692 1_544 S
O151 C139 1.257 1_545 S
H152 C125 0.930 . S
H153 C126 0.931 . S
H154 C128 0.931 . S
H155 C129 0.931 . S
H156 C134 0.930 . S
H157 C135 0.931 . S
H158 C137 0.931 . S
H159 C138 0.931 . S
Gd160 C163 2.818 . S
Gd160 O180 2.377 . S
Gd160 O182 2.448 . S
Gd160 O183 2.506 . S
Gd160 O184 2.435 . S
Gd160 O185 2.717 . S
Gd160 O187 2.395 . S
Gd160 O191 2.327 . S
Gd161 C172 2.818 . S
Gd161 O181 2.395 . S
Gd161 O185 2.327 . S
Gd161 O186 2.377 . S
Gd161 O188 2.448 . S
Gd161 O189 2.506 . S
Gd161 O190 2.435 . S
Gd161 O191 2.717 . S
C162 O180 1.240 . S
C162 O181 1.240 . S
C163 Gd160 2.818 . S
C163 C164 1.510 . S
C163 O182 1.249 . S
C163 O183 1.252 . S
C164 C163 1.510 . S
C164 C165 1.404 . S
C164 C166 1.352 . S
C165 C164 1.404 . S
C165 C169 1.389 . S
C165 H192 0.930 . S
C166 C164 1.352 . S
C166 C168 1.374 . S
C166 H193 0.931 . S
C167 C168 1.359 . S
C167 C169 1.364 . S
C168 C166 1.374 . S
C168 C167 1.359 . S
C168 H194 0.931 . S
C169 C165 1.389 . S
C169 C167 1.364 . S
C169 H195 0.931 . S
C170 O184 1.256 . S
C170 O185 1.257 . S
C171 O186 1.240 . S
C171 O187 1.240 . S
C172 Gd161 2.818 . S
C172 C173 1.510 . S
C172 O188 1.249 . S
C172 O189 1.252 . S
C173 C172 1.510 . S
C173 C174 1.404 . S
C173 C175 1.352 1_655 S
C174 C173 1.404 . S
C174 C178 1.389 . S
C174 H196 0.930 . S
C175 C173 1.352 1_455 S
C175 C177 1.374 . S
C175 H197 0.931 . S
C176 C177 1.359 . S
C176 C178 1.364 1_455 S
C177 C175 1.374 . S
C177 C176 1.359 . S
C177 H198 0.931 . S
C178 C174 1.389 . S
C178 C176 1.364 1_655 S
C178 H199 0.931 . S
C179 O190 1.256 . S
C179 O191 1.257 . S
O180 Gd160 2.377 . S
O180 C162 1.240 . S
O181 Gd161 2.395 . S
O181 C162 1.240 . S
O182 Gd160 2.448 . S
O182 C163 1.249 . S
O183 Gd160 2.506 . S
O183 C163 1.252 . S
O184 Gd160 2.435 . S
O184 C170 1.256 . S
O185 Gd160 2.717 . S
O185 Gd161 2.327 . S
O185 C170 1.257 . S
O186 Gd161 2.377 . S
O186 C171 1.240 . S
O187 Gd160 2.395 . S
O187 C171 1.240 . S
O188 Gd161 2.448 . S
O188 C172 1.249 . S
O189 Gd161 2.506 . S
O189 C172 1.252 . S
O190 Gd161 2.435 . S
O190 C179 1.256 . S
O191 Gd160 2.327 . S
O191 Gd161 2.717 . S
O191 C179 1.257 . S
H192 C165 0.930 . S
H193 C166 0.931 . S
H194 C168 0.931 . S
H195 C169 0.931 . S
H196 C174 0.930 . S
H197 C175 0.931 . S
H198 C177 0.931 . S
H199 C178 0.931 . S
Gd200 C203 2.818 . S
Gd200 O220 2.377 . S
Gd200 O222 2.448 . S
Gd200 O223 2.506 . S
Gd200 O224 2.435 . S
Gd200 O225 2.717 . S
Gd200 O227 2.395 . S
Gd200 O231 2.327 . S
Gd201 C212 2.818 . S
Gd201 O221 2.395 . S
Gd201 O225 2.327 . S
Gd201 O226 2.377 . S
Gd201 O228 2.448 . S
Gd201 O229 2.506 1_565 S
Gd201 O230 2.435 . S
Gd201 O231 2.717 . S
C202 O220 1.240 . S
C202 O221 1.240 . S
C203 Gd200 2.818 . S
C203 C204 1.510 . S
C203 O222 1.249 . S
C203 O223 1.252 . S
C204 C203 1.510 . S
C204 C205 1.404 . S
C204 C206 1.352 . S
C205 C204 1.404 . S
C205 C209 1.389 . S
C205 H232 0.930 . S
C206 C204 1.352 . S
C206 C208 1.374 . S
C206 H233 0.931 . S
C207 C208 1.359 . S
C207 C209 1.364 . S
C208 C206 1.374 . S
C208 C207 1.359 . S
C208 H234 0.931 . S
C209 C205 1.389 . S
C209 C207 1.364 . S
C209 H235 0.931 . S
C210 O224 1.256 . S
C210 O225 1.257 . S
C211 O226 1.240 . S
C211 O227 1.240 . S
C212 Gd201 2.818 . S
C212 C213 1.510 . S
C212 O228 1.249 . S
C212 O229 1.252 1_565 S
C213 C212 1.510 . S
C213 C214 1.404 . S
C213 C215 1.352 1_565 S
C214 C213 1.404 . S
C214 C218 1.389 . S
C214 H236 0.930 . S
C215 C213 1.352 1_545 S
C215 C217 1.374 . S
C215 H237 0.931 . S
C216 C217 1.359 . S
C216 C218 1.364 1_545 S
C217 C215 1.374 . S
C217 C216 1.359 . S
C217 H238 0.931 . S
C218 C214 1.389 . S
C218 C216 1.364 1_565 S
C218 H239 0.931 . S
C219 O230 1.256 . S
C219 O231 1.257 . S
O220 Gd200 2.377 . S
O220 C202 1.240 . S
O221 Gd201 2.395 . S
O221 C202 1.240 . S
O222 Gd200 2.448 . S
O222 C203 1.249 . S
O223 Gd200 2.506 . S
O223 C203 1.252 . S
O224 Gd200 2.435 . S
O224 C210 1.256 . S
O225 Gd200 2.717 . S
O225 Gd201 2.327 . S
O225 C210 1.257 . S
O226 Gd201 2.377 . S
O226 C211 1.240 . S
O227 Gd200 2.395 . S
O227 C211 1.240 . S
O228 Gd201 2.448 . S
O228 C212 1.249 . S
O229 Gd201 2.506 1_545 S
O229 C212 1.252 1_545 S
O230 Gd201 2.435 . S
O230 C219 1.256 . S
O231 Gd200 2.327 . S
O231 Gd201 2.717 . S
O231 C219 1.257 . S
H232 C205 0.930 . S
H233 C206 0.931 . S
H234 C208 0.931 . S
H235 C209 0.931 . S
H236 C214 0.930 . S
H237 C215 0.931 . S
H238 C217 0.931 . S
H239 C218 0.931 . S
C240 C241 1.349 1_546 S
C240 C242 1.327 . S
C240 H265 0.950 . S
C241 C240 1.349 1_564 S
C241 C257 1.349 . S
C242 C240 1.327 . S
C242 C261 1.429 1_556 S
C242 H266 0.950 . S
C243 C260 1.574 . S
C243 C262 1.368 . S
C243 H267 0.949 . S
H244 C248 0.949 . S
C245 C246 1.349 . S
C245 C247 1.327 . S
C245 H268 0.950 . S
C246 C245 1.349 . S
C246 C258 1.349 1_554 S
C247 C245 1.327 . S
C247 C263 1.429 . S
C247 H269 0.950 . S
C248 H244 0.949 . S
C248 C256 1.574 . S
C248 C264 1.368 1_556 S
H249 C257 0.950 . S
H250 C255 0.950 1_565 S
H251 C256 0.949 . S
H252 C258 0.950 . S
H253 C259 0.950 . S
H254 C260 0.949 . S
C255 H250 0.950 1_545 S
C255 C257 1.327 1_545 S
C255 C261 1.429 . S
C256 C248 1.574 . S
C256 H251 0.949 . S
C256 C262 1.368 1_556 S
C257 C241 1.349 . S
C257 H249 0.950 . S
C257 C255 1.327 1_565 S
C258 C246 1.349 1_556 S
C258 H252 0.950 . S
C258 C259 1.327 . S
C259 H253 0.950 . S
C259 C258 1.327 . S
C259 C263 1.429 1_556 S
C260 C243 1.574 . S
C260 H254 0.949 . S
C260 C264 1.368 . S
C261 C242 1.429 1_554 S
C261 C255 1.429 . S
C261 C262 1.523 1_655 S
C262 C243 1.368 . S
C262 C256 1.368 1_554 S
C262 C261 1.523 1_455 S
C263 C247 1.429 . S
C263 C259 1.429 1_554 S
C263 C264 1.523 . S
C264 C248 1.368 1_554 S
C264 C260 1.368 . S
C264 C263 1.523 . S
H265 C240 0.950 . S
H266 C242 0.950 . S
H267 C243 0.949 . S
H268 C245 0.950 . S
H269 C247 0.950 . S
C270 C271 1.349 1_455 S
C270 C272 1.327 . S
C270 H295 0.950 . S
C271 C270 1.349 1_655 S
C271 C287 1.349 . S
C272 C270 1.327 . S
C272 C291 1.429 . S
C272 H296 0.950 . S
C273 C290 1.574 . S
C273 C292 1.368 . S
C273 H297 0.949 . S
H274 C278 0.949 . S
C275 C276 1.349 . S
C275 C277 1.327 . S
C275 H298 0.950 . S
C276 C275 1.349 . S
C276 C288 1.349 . S
C277 C275 1.327 . S
C277 C293 1.429 . S
C277 H299 0.950 . S
C278 H274 0.949 . S
C278 C286 1.574 . S
C278 C294 1.368 . S
H279 C287 0.950 . S
H280 C285 0.950 1_655 S
H281 C286 0.949 . S
H282 C288 0.950 . S
H283 C289 0.950 . S
H284 C290 0.949 . S
C285 H280 0.950 1_455 S
C285 C287 1.327 1_455 S
C285 C291 1.429 . S
C286 C278 1.574 . S
C286 H281 0.949 . S
C286 C292 1.368 . S
C287 C271 1.349 . S
C287 H279 0.950 . S
C287 C285 1.327 1_655 S
C288 C276 1.349 . S
C288 H282 0.950 . S
C288 C289 1.327 . S
C289 H283 0.950 . S
C289 C288 1.327 . S
C289 C293 1.429 . S
C290 C273 1.574 . S
C290 H284 0.949 . S
C290 C294 1.368 . S
C291 C272 1.429 . S
C291 C285 1.429 . S
C291 C292 1.523 1_565 S
C292 C273 1.368 . S
C292 C286 1.368 . S
C292 C291 1.523 1_545 S
C293 C277 1.429 . S
C293 C289 1.429 . S
C293 C294 1.523 . S
C294 C278 1.368 . S
C294 C290 1.368 . S
C294 C293 1.523 . S
H295 C270 0.950 . S
H296 C272 0.950 . S
H297 C273 0.949 . S
H298 C275 0.950 . S
H299 C277 0.950 . S
C300 C301 1.349 . S
C300 C302 1.327 1_565 S
C300 H325 0.950 . S
C301 C300 1.349 . S
C301 C317 1.349 1_565 S
C302 C300 1.327 1_545 S
C302 C321 1.429 . S
C302 H326 0.952 1_545 S
C303 C320 1.574 . S
C303 C322 1.368 . S
C303 H327 0.949 . S
H304 C308 0.949 . S
C305 C306 1.349 1_455 S
C305 C307 1.327 . S
C305 H328 0.950 . S
C306 C305 1.349 1_655 S
C306 C318 1.349 . S
C307 C305 1.327 . S
C307 C323 1.429 . S
C307 H329 0.950 . S
C308 H304 0.949 . S
C308 C316 1.574 . S
C308 C324 1.368 . S
H309 C317 0.950 . S
H310 C315 0.950 . S
H311 C316 0.949 . S
H312 C318 0.950 . S
H313 C319 0.953 1_655 S
H314 C320 0.949 . S
C315 H310 0.950 . S
C315 C317 1.327 . S
C315 C321 1.429 . S
C316 C308 1.574 . S
C316 H311 0.949 . S
C316 C322 1.368 . S
C317 C301 1.349 1_545 S
C317 H309 0.950 . S
C317 C315 1.327 . S
C318 C306 1.349 . S
C318 H312 0.950 . S
C318 C319 1.310 1_655 S
C319 H313 0.953 1_455 S
C319 C318 1.310 1_455 S
C319 C323 1.442 . S
C320 C303 1.574 . S
C320 H314 0.949 . S
C320 C324 1.368 . S
C321 C302 1.429 . S
C321 C315 1.429 . S
C321 C322 1.523 . S
C322 C303 1.368 . S
C322 C316 1.368 . S
C322 C321 1.523 . S
C323 C307 1.429 . S
C323 C319 1.442 . S
C323 C324 1.523 . S
C324 C308 1.368 . S
C324 C320 1.368 . S
C324 C323 1.523 . S
H325 C300 0.950 . S
H326 C302 0.952 1_565 S
H327 C303 0.949 . S
H328 C305 0.950 . S
H329 C307 0.950 . S
C330 C331 1.349 . S
C330 C332 1.327 . S
C330 H355 0.950 . S
C331 C330 1.349 . S
C331 C347 1.349 . S
C332 C330 1.327 . S
C332 C351 1.429 . S
C332 H356 0.950 . S
C333 C350 1.574 . S
C333 C352 1.368 . S
C333 H357 0.949 . S
H334 C338 0.949 . S
C335 C336 1.349 . S
C335 C337 1.327 . S
C335 H358 0.950 . S
C336 C335 1.349 . S
C336 C348 1.349 . S
C337 C335 1.327 . S
C337 C353 1.429 . S
C337 H359 0.950 . S
C338 H334 0.949 . S
C338 C346 1.574 . S
C338 C354 1.368 . S
H339 C347 0.950 . S
H340 C345 0.950 . S
H341 C346 0.949 . S
H342 C348 0.950 . S
H343 C349 0.950 . S
H344 C350 0.949 . S
C345 H340 0.950 . S
C345 C347 1.327 . S
C345 C351 1.429 . S
C346 C338 1.574 . S
C346 H341 0.949 . S
C346 C352 1.368 . S
C347 C331 1.349 . S
C347 H339 0.950 . S
C347 C345 1.327 . S
C348 C336 1.349 . S
C348 H342 0.950 . S
C348 C349 1.327 . S
C349 H343 0.950 . S
C349 C348 1.327 . S
C349 C353 1.429 . S
C350 C333 1.574 . S
C350 H344 0.949 . S
C350 C354 1.368 . S
C351 C332 1.429 . S
C351 C345 1.429 . S
C351 C352 1.523 . S
C352 C333 1.368 . S
C352 C346 1.368 . S
C352 C351 1.523 . S
C353 C337 1.429 . S
C353 C349 1.429 . S
C353 C354 1.523 . S
C354 C338 1.368 . S
C354 C350 1.368 . S
C354 C353 1.523 . S
H355 C330 0.950 . S
H356 C332 0.950 . S
H357 C333 0.949 . S
H358 C335 0.950 . S
H359 C337 0.950 . S
C360 C361 1.349 . S
C360 C362 1.327 . S
C360 H385 0.950 . S
C361 C360 1.349 . S
C361 C377 1.349 . S
C362 C360 1.327 . S
C362 C381 1.429 . S
C362 H386 0.950 . S
C363 C380 1.574 . S
C363 C382 1.368 . S
C363 H387 0.949 . S
H364 C368 0.949 . S
C365 C366 1.349 . S
C365 C367 1.327 . S
C365 H388 0.950 . S
C366 C365 1.349 . S
C366 C378 1.349 . S
C367 C365 1.327 . S
C367 C383 1.429 . S
C367 H389 0.950 . S
C368 H364 0.949 . S
C368 C376 1.574 1_655 S
C368 C384 1.368 . S
H369 C377 0.950 . S
H370 C375 0.950 . S
H371 C376 0.949 1_655 S
H372 C378 0.950 . S
H373 C379 0.950 . S
H374 C380 0.949 . S
C375 H370 0.950 . S
C375 C377 1.327 . S
C375 C381 1.429 . S
C376 C368 1.574 1_455 S
C376 H371 0.949 1_455 S
C376 C382 1.368 . S
C377 C361 1.349 . S
C377 H369 0.950 . S
C377 C375 1.327 . S
C378 C366 1.349 . S
C378 H372 0.950 . S
C378 C379 1.327 . S
C379 H373 0.950 . S
C379 C378 1.327 . S
C379 C383 1.429 . S
C380 C363 1.574 . S
C380 H374 0.949 . S
C380 C384 1.368 1_455 S
C381 C362 1.429 . S
C381 C375 1.429 . S
C381 C382 1.523 . S
C382 C363 1.368 . S
C382 C376 1.368 . S
C382 C381 1.523 . S
C383 C367 1.429 . S
C383 C379 1.429 . S
C383 C384 1.523 . S
C384 C368 1.368 . S
C384 C380 1.368 1_655 S
C384 C383 1.523 . S
H385 C360 0.950 . S
H386 C362 0.950 . S
H387 C363 0.949 . S
H388 C365 0.950 . S
H389 C367 0.950 . S
C390 C391 1.349 . S
C390 C392 1.327 . S
C390 H415 0.950 . S
C391 C390 1.349 . S
C391 C407 1.349 . S
C392 C390 1.327 . S
C392 C411 1.429 . S
C392 H416 0.950 . S
C393 C410 1.574 1_545 S
C393 C412 1.368 . S
C393 H417 0.949 . S
H394 C398 0.949 . S
C395 C396 1.349 . S
C395 C397 1.327 . S
C395 H418 0.950 . S
C396 C395 1.349 . S
C396 C408 1.349 . S
C397 C395 1.327 . S
C397 C413 1.429 . S
C397 H419 0.950 . S
C398 H394 0.949 . S
C398 C406 1.574 . S
C398 C414 1.368 1_545 S
H399 C407 0.950 . S
H400 C405 0.950 . S
H401 C406 0.949 . S
H402 C408 0.950 . S
H403 C409 0.950 . S
H404 C410 0.949 . S
C405 H400 0.950 . S
C405 C407 1.327 . S
C405 C411 1.429 . S
C406 C398 1.574 . S
C406 H401 0.949 . S
C406 C412 1.368 . S
C407 C391 1.349 . S
C407 H399 0.950 . S
C407 C405 1.327 . S
C408 C396 1.349 . S
C408 H402 0.950 . S
C408 C409 1.327 . S
C409 H403 0.950 . S
C409 C408 1.327 . S
C409 C413 1.429 . S
C410 C393 1.574 1_565 S
C410 H404 0.949 . S
C410 C414 1.368 . S
C411 C392 1.429 . S
C411 C405 1.429 . S
C411 C412 1.523 . S
C412 C393 1.368 . S
C412 C406 1.368 . S
C412 C411 1.523 . S
C413 C397 1.429 . S
C413 C409 1.429 . S
C413 C414 1.523 . S
C414 C398 1.368 1_565 S
C414 C410 1.368 . S
C414 C413 1.523 . S
H415 C390 0.950 . S
H416 C392 0.950 . S
H417 C393 0.949 . S
H418 C395 0.950 . S
H419 C397 0.950 . S
C420 C421 1.349 . S
C420 C422 1.327 . S
C420 H445 0.950 . S
C421 C420 1.349 . S
C421 C437 1.349 . S
C422 C420 1.327 . S
C422 C441 1.429 . S
C422 H446 0.950 . S
C423 C440 1.574 . S
C423 C442 1.368 . S
C423 H447 0.949 . S
H424 C428 0.949 . S
C425 C426 1.349 . S
C425 C427 1.327 . S
C425 H448 0.950 . S
C426 C425 1.349 . S
C426 C438 1.349 1_455 S
C427 C425 1.327 . S
C427 C443 1.429 1_455 S
C427 H449 0.950 . S
C428 H424 0.949 . S
C428 C436 1.574 . S
C428 C444 1.368 . S
H429 C437 0.950 . S
H430 C435 0.950 . S
H431 C436 0.949 . S
H432 C438 0.950 . S
H433 C439 0.950 . S
H434 C440 0.949 . S
C435 H430 0.950 . S
C435 C437 1.327 . S
C435 C441 1.429 . S
C436 C428 1.574 . S
C436 H431 0.949 . S
C436 C442 1.368 . S
C437 C421 1.349 . S
C437 H429 0.950 . S
C437 C435 1.327 . S
C438 C426 1.349 1_655 S
C438 H432 0.950 . S
C438 C439 1.327 . S
C439 H433 0.950 . S
C439 C438 1.327 . S
C439 C443 1.429 . S
C440 C423 1.574 . S
C440 H434 0.949 . S
C440 C444 1.368 . S
C441 C422 1.429 . S
C441 C435 1.429 . S
C441 C442 1.523 . S
C442 C423 1.368 . S
C442 C436 1.368 . S
C442 C441 1.523 . S
C443 C427 1.429 1_655 S
C443 C439 1.429 . S
C443 C444 1.523 . S
C444 C428 1.368 . S
C444 C440 1.368 . S
C444 C443 1.523 . S
H445 C420 0.950 . S
H446 C422 0.950 . S
H447 C423 0.949 . S
H448 C425 0.950 . S
H449 C427 0.950 . S
C450 C451 1.349 . S
C450 C452 1.327 . S
C450 H475 0.950 1_455 S
C451 C450 1.349 . S
C451 C467 1.349 . S
C452 C450 1.327 . S
C452 C471 1.429 . S
C452 H476 0.950 . S
C453 C470 1.574 . S
C453 C472 1.368 . S
C453 H477 0.949 . S
H454 C458 0.949 . S
C455 C456 1.349 . S
C455 C457 1.327 . S
C455 H478 0.950 . S
C456 C455 1.349 . S
C456 C468 1.351 . S
C457 C455 1.327 . S
C457 C473 1.429 1_545 S
C457 H479 0.950 . S
C458 H454 0.949 . S
C458 C466 1.574 . S
C458 C474 1.368 . S
H459 C467 0.950 . S
H460 C465 0.950 . S
H461 C466 0.949 . S
H462 C468 0.949 1_565 S
H463 C469 0.950 . S
H464 C470 0.949 . S
C465 H460 0.950 . S
C465 C467 1.327 . S
C465 C471 1.429 . S
C466 C458 1.574 . S
C466 H461 0.949 . S
C466 C472 1.368 . S
C467 C451 1.349 . S
C467 H459 0.950 . S
C467 C465 1.327 . S
C468 C456 1.351 . S
C468 H462 0.949 1_545 S
C468 C469 1.325 1_545 S
C469 H463 0.950 . S
C469 C468 1.325 1_565 S
C469 C473 1.429 . S
C470 C453 1.574 . S
C470 H464 0.949 . S
C470 C474 1.368 . S
C471 C452 1.429 . S
C471 C465 1.429 . S
C471 C472 1.523 . S
C472 C453 1.368 . S
C472 C466 1.368 . S
C472 C471 1.523 . S
C473 C457 1.429 1_565 S
C473 C469 1.429 . S
C473 C474 1.523 . S
C474 C458 1.368 . S
C474 C470 1.368 . S
C474 C473 1.523 . S
H475 C450 0.950 1_655 S
H476 C452 0.950 . S
H477 C453 0.949 . S
H478 C455 0.950 . S
H479 C457 0.950 . S
C480 C481 1.349 . S
C480 C482 1.327 . S
C480 H505 0.950 1_545 S
C481 C480 1.349 . S
C481 C497 1.349 . S
C482 C480 1.327 . S
C482 C501 1.429 . S
C482 H506 0.950 . S
C483 C500 1.574 . S
C483 C502 1.368 . S
C483 H507 0.949 . S
H484 C488 0.949 . S
C485 C486 1.349 . S
C485 C487 1.327 . S
C485 H508 0.950 . S
C486 C485 1.349 . S
C486 C498 1.349 . S
C487 C485 1.327 . S
C487 C503 1.429 . S
C487 H509 0.950 . S
C488 H484 0.949 . S
C488 C496 1.574 . S
C488 C504 1.368 . S
H489 C497 0.950 . S
H490 C495 0.950 . S
H491 C496 0.949 . S
H492 C498 0.950 . S
H493 C499 0.950 . S
H494 C500 0.949 . S
C495 H490 0.950 . S
C495 C497 1.327 . S
C495 C501 1.429 . S
C496 C488 1.574 . S
C496 H491 0.949 . S
C496 C502 1.368 . S
C497 C481 1.349 . S
C497 H489 0.950 . S
C497 C495 1.327 . S
C498 C486 1.349 . S
C498 H492 0.950 . S
C498 C499 1.327 . S
C499 H493 0.950 . S
C499 C498 1.327 . S
C499 C503 1.429 . S
C500 C483 1.574 . S
C500 H494 0.949 . S
C500 C504 1.368 . S
C501 C482 1.429 . S
C501 C495 1.429 . S
C501 C502 1.523 . S
C502 C483 1.368 . S
C502 C496 1.368 . S
C502 C501 1.523 . S
C503 C487 1.429 . S
C503 C499 1.429 . S
C503 C504 1.523 . S
C504 C488 1.368 . S
C504 C500 1.368 . S
C504 C503 1.523 . S
H505 C480 0.950 1_565 S
H506 C482 0.950 . S
H507 C483 0.949 . S
H508 C485 0.950 . S
H509 C487 0.950 . S
C510 C511 1.349 . S
C510 C512 1.327 . S
C510 H535 0.950 1_554 S
C511 C510 1.349 . S
C511 C527 1.349 . S
C512 C510 1.327 . S
C512 C531 1.429 . S
C512 H536 0.950 1_554 S
C513 C530 1.574 . S
C513 C532 1.368 . S
C513 H537 0.949 . S
H514 C518 0.949 1_556 S
C515 C516 1.347 . S
C515 C517 1.327 1_565 S
C515 H538 0.950 . S
C516 C515 1.347 . S
C516 C528 1.342 1_565 S
C517 C515 1.327 1_545 S
C517 C533 1.429 . S
C517 H539 0.950 . S
C518 H514 0.949 1_554 S
C518 C526 1.574 . S
C518 C534 1.368 . S
H519 C527 0.950 . S
H520 C525 0.950 . S
H521 C526 0.949 1_556 S
H522 C528 0.950 1_556 S
H523 C529 0.950 1_556 S
H524 C530 0.949 . S
C525 H520 0.950 . S
C525 C527 1.327 . S
C525 C531 1.429 . S
C526 C518 1.574 . S
C526 H521 0.949 1_554 S
C526 C532 1.368 . S
C527 C511 1.349 . S
C527 H519 0.950 . S
C527 C525 1.327 . S
C528 C516 1.342 1_545 S
C528 H522 0.950 1_554 S
C528 C529 1.327 . S
C529 H523 0.950 1_554 S
C529 C528 1.327 . S
C529 C533 1.429 . S
C530 C513 1.574 . S
C530 H524 0.949 . S
C530 C534 1.368 . S
C531 C512 1.429 . S
C531 C525 1.429 . S
C531 C532 1.523 . S
C532 C513 1.368 . S
C532 C526 1.368 . S
C532 C531 1.523 . S
C533 C517 1.429 . S
C533 C529 1.429 . S
C533 C534 1.523 . S
C534 C518 1.368 . S
C534 C530 1.368 . S
C534 C533 1.523 . S
H535 C510 0.950 1_556 S
H536 C512 0.950 1_556 S
H537 C513 0.949 . S
H538 C515 0.950 . S
H539 C517 0.950 . S
C540 C541 1.349 . S
C540 C542 1.327 . S
C540 H565 0.950 . S
C541 C540 1.349 . S
C541 C557 1.349 . S
C542 C540 1.327 . S
C542 C561 1.429 . S
C542 H566 0.950 . S
C543 C560 1.574 . S
C543 C562 1.368 . S
C543 H567 0.949 . S
H544 C548 0.949 . S
C545 C546 1.349 . S
C545 C547 1.327 . S
C545 H568 0.950 . S
C546 C545 1.349 . S
C546 C558 1.349 . S
C547 C545 1.327 . S
C547 C563 1.429 . S
C547 H569 0.950 . S
C548 H544 0.949 . S
C548 C556 1.574 . S
C548 C564 1.368 . S
H549 C557 0.950 . S
H550 C555 0.950 . S
H551 C556 0.949 . S
H552 C558 0.950 . S
H553 C559 0.950 . S
H554 C560 0.949 . S
C555 H550 0.950 . S
C555 C557 1.327 . S
C555 C561 1.429 . S
C556 C548 1.574 . S
C556 H551 0.949 . S
C556 C562 1.368 . S
C557 C541 1.349 . S
C557 H549 0.950 . S
C557 C555 1.327 . S
C558 C546 1.349 . S
C558 H552 0.950 . S
C558 C559 1.327 . S
C559 H553 0.950 . S
C559 C558 1.327 . S
C559 C563 1.429 . S
C560 C543 1.574 . S
C560 H554 0.949 . S
C560 C564 1.368 . S
C561 C542 1.429 . S
C561 C555 1.429 . S
C561 C562 1.523 . S
C562 C543 1.368 . S
C562 C556 1.368 . S
C562 C561 1.523 . S
C563 C547 1.429 . S
C563 C559 1.429 . S
C563 C564 1.523 . S
C564 C548 1.368 . S
C564 C560 1.368 . S
C564 C563 1.523 . S
H565 C540 0.950 . S
H566 C542 0.950 . S
H567 C543 0.949 . S
H568 C545 0.950 . S
H569 C547 0.950 . S
C570 C571 1.349 . S
C570 C572 1.327 1_655 S
C570 H595 0.950 . S
C571 C570 1.349 . S
C571 C587 1.349 1_655 S
C572 C570 1.327 1_455 S
C572 C591 1.429 . S
C572 H596 0.950 1_455 S
C573 C590 1.574 . S
C573 C592 1.368 . S
C573 H597 0.949 . S
H574 C578 0.949 . S
C575 C576 1.349 . S
C575 C577 1.327 . S
C575 H598 0.950 . S
C576 C575 1.349 . S
C576 C588 1.349 . S
C577 C575 1.327 . S
C577 C593 1.429 . S
C577 H599 0.950 . S
C578 H574 0.949 . S
C578 C586 1.574 . S
C578 C594 1.368 . S
H579 C587 0.950 . S
H580 C585 0.950 . S
H581 C586 0.949 . S
H582 C588 0.950 . S
H583 C589 0.950 . S
H584 C590 0.949 . S
C585 H580 0.950 . S
C585 C587 1.327 . S
C585 C591 1.429 . S
C586 C578 1.574 . S
C586 H581 0.949 . S
C586 C592 1.368 . S
C587 C571 1.349 1_455 S
C587 H579 0.950 . S
C587 C585 1.327 . S
C588 C576 1.349 . S
C588 H582 0.950 . S
C588 C589 1.327 . S
C589 H583 0.950 . S
C589 C588 1.327 . S
C589 C593 1.429 . S
C590 C573 1.574 . S
C590 H584 0.949 . S
C590 C594 1.368 . S
C591 C572 1.429 . S
C591 C585 1.429 . S
C591 C592 1.523 . S
C592 C573 1.368 . S
C592 C586 1.368 . S
C592 C591 1.523 . S
C593 C577 1.429 . S
C593 C589 1.429 . S
C593 C594 1.523 . S
C594 C578 1.368 . S
C594 C590 1.368 . S
C594 C593 1.523 . S
H595 C570 0.950 . S
H596 C572 0.950 1_655 S
H597 C573 0.949 . S
H598 C575 0.950 . S
H599 C577 0.950 . S
C600 C601 1.349 . S
C600 C602 1.327 . S
C600 H625 0.950 . S
C601 C600 1.349 . S
C601 C617 1.349 . S
C602 C600 1.327 . S
C602 C621 1.429 . S
C602 H626 0.950 . S
C603 C620 1.574 . S
C603 C622 1.368 . S
C603 H627 0.949 . S
H604 C608 0.949 . S
C605 C606 1.349 . S
C605 C607 1.327 . S
C605 H628 0.950 . S
C606 C605 1.349 . S
C606 C618 1.349 . S
C607 C605 1.327 . S
C607 C623 1.429 . S
C607 H629 0.950 . S
C608 H604 0.949 . S
C608 C616 1.574 . S
C608 C624 1.368 . S
H609 C617 0.950 . S
H610 C615 0.950 . S
H611 C616 0.949 . S
H612 C618 0.950 . S
H613 C619 0.950 . S
H614 C620 0.949 . S
C615 H610 0.950 . S
C615 C617 1.327 . S
C615 C621 1.429 . S
C616 C608 1.574 . S
C616 H611 0.949 . S
C616 C622 1.368 . S
C617 C601 1.349 . S
C617 H609 0.950 . S
C617 C615 1.327 . S
C618 C606 1.349 . S
C618 H612 0.950 . S
C618 C619 1.327 . S
C619 H613 0.950 . S
C619 C618 1.327 . S
C619 C623 1.429 . S
C620 C603 1.574 . S
C620 H614 0.949 . S
C620 C624 1.368 . S
C621 C602 1.429 . S
C621 C615 1.429 . S
C621 C622 1.523 . S
C622 C603 1.368 . S
C622 C616 1.368 . S
C622 C621 1.523 . S
C623 C607 1.429 . S
C623 C619 1.429 . S
C623 C624 1.523 . S
C624 C608 1.368 . S
C624 C620 1.368 . S
C624 C623 1.523 . S
H625 C600 0.950 . S
H626 C602 0.950 . S
H627 C603 0.949 . S
H628 C605 0.950 . S
H629 C607 0.950 . S
C630 C631 1.349 . S
C630 C632 1.327 . S
C630 H655 0.950 . S
C631 C630 1.349 . S
C631 C647 1.349 . S
C632 C630 1.327 . S
C632 C651 1.429 . S
C632 H656 0.950 . S
C633 C650 1.574 . S
C633 C652 1.368 . S
C633 H657 0.949 . S
H634 C638 0.949 . S
C635 C636 1.349 . S
C635 C637 1.327 . S
C635 H658 0.950 . S
C636 C635 1.349 . S
C636 C648 1.349 . S
C637 C635 1.327 . S
C637 C653 1.429 . S
C637 H659 0.950 . S
C638 H634 0.949 . S
C638 C646 1.574 . S
C638 C654 1.368 . S
H639 C647 0.950 . S
H640 C645 0.950 . S
H641 C646 0.949 . S
H642 C648 0.950 . S
H643 C649 0.950 . S
H644 C650 0.949 . S
C645 H640 0.950 . S
C645 C647 1.327 . S
C645 C651 1.429 . S
C646 C638 1.574 . S
C646 H641 0.949 . S
C646 C652 1.368 . S
C647 C631 1.349 . S
C647 H639 0.950 . S
C647 C645 1.327 . S
C648 C636 1.349 . S
C648 H642 0.950 . S
C648 C649 1.327 . S
C649 H643 0.950 . S
C649 C648 1.327 . S
C649 C653 1.429 . S
C650 C633 1.574 . S
C650 H644 0.949 . S
C650 C654 1.368 . S
C651 C632 1.429 . S
C651 C645 1.429 . S
C651 C652 1.523 . S
C652 C633 1.368 . S
C652 C646 1.368 . S
C652 C651 1.523 . S
C653 C637 1.429 . S
C653 C649 1.429 . S
C653 C654 1.523 . S
C654 C638 1.368 . S
C654 C650 1.368 . S
C654 C653 1.523 . S
H655 C630 0.950 . S
H656 C632 0.950 . S
H657 C633 0.949 . S
H658 C635 0.950 . S
H659 C637 0.950 . S
C660 C661 1.349 . S
C660 C662 1.327 . S
C660 H685 0.950 . S
C661 C660 1.349 . S
C661 C677 1.349 . S
C662 C660 1.327 . S
C662 C681 1.429 . S
C662 H686 0.950 . S
C663 C680 1.574 . S
C663 C682 1.368 . S
C663 H687 0.949 . S
H664 C668 0.949 . S
C665 C666 1.349 . S
C665 C667 1.327 . S
C665 H688 0.950 . S
C666 C665 1.349 . S
C666 C678 1.349 . S
C667 C665 1.327 . S
C667 C683 1.429 . S
C667 H689 0.950 . S
C668 H664 0.949 . S
C668 C676 1.574 . S
C668 C684 1.368 . S
H669 C677 0.950 . S
H670 C675 0.950 . S
H671 C676 0.949 . S
H672 C678 0.950 . S
H673 C679 0.950 . S
H674 C680 0.949 . S
C675 H670 0.950 . S
C675 C677 1.327 . S
C675 C681 1.429 . S
C676 C668 1.574 . S
C676 H671 0.949 . S
C676 C682 1.368 . S
C677 C661 1.349 . S
C677 H669 0.950 . S
C677 C675 1.327 . S
C678 C666 1.349 . S
C678 H672 0.950 . S
C678 C679 1.327 . S
C679 H673 0.950 . S
C679 C678 1.327 . S
C679 C683 1.429 . S
C680 C663 1.574 . S
C680 H674 0.949 . S
C680 C684 1.368 . S
C681 C662 1.429 . S
C681 C675 1.429 . S
C681 C682 1.523 . S
C682 C663 1.368 . S
C682 C676 1.368 . S
C682 C681 1.523 . S
C683 C667 1.429 . S
C683 C679 1.429 . S
C683 C684 1.523 . S
C684 C668 1.368 . S
C684 C680 1.368 . S
C684 C683 1.523 . S
H685 C660 0.950 . S
H686 C662 0.950 . S
H687 C663 0.949 . S
H688 C665 0.950 . S
H689 C667 0.950 . S
C690 C691 1.349 . S
C690 C692 1.327 . S
C690 H715 0.950 . S
C691 C690 1.349 . S
C691 C707 1.349 . S
C692 C690 1.327 . S
C692 C711 1.429 . S
C692 H716 0.950 . S
C693 C710 1.574 . S
C693 C712 1.368 . S
C693 H717 0.949 . S
H694 C698 0.949 . S
C695 C696 1.349 . S
C695 C697 1.327 . S
C695 H718 0.950 . S
C696 C695 1.349 . S
C696 C708 1.349 . S
C697 C695 1.327 . S
C697 C713 1.429 . S
C697 H719 0.950 . S
C698 H694 0.949 . S
C698 C706 1.574 . S
C698 C714 1.368 . S
H699 C707 0.950 . S
H700 C705 0.950 . S
H701 C706 0.949 . S
H702 C708 0.950 . S
H703 C709 0.950 . S
H704 C710 0.949 . S
C705 H700 0.950 . S
C705 C707 1.327 . S
C705 C711 1.429 . S
C706 C698 1.574 . S
C706 H701 0.949 . S
C706 C712 1.368 . S
C707 C691 1.349 . S
C707 H699 0.950 . S
C707 C705 1.327 . S
C708 C696 1.349 . S
C708 H702 0.950 . S
C708 C709 1.327 . S
C709 H703 0.950 . S
C709 C708 1.327 . S
C709 C713 1.429 . S
C710 C693 1.574 . S
C710 H704 0.949 . S
C710 C714 1.368 . S
C711 C692 1.429 . S
C711 C705 1.429 . S
C711 C712 1.523 . S
C712 C693 1.368 . S
C712 C706 1.368 . S
C712 C711 1.523 . S
C713 C697 1.429 . S
C713 C709 1.429 . S
C713 C714 1.523 . S
C714 C698 1.368 . S
C714 C710 1.368 . S
C714 C713 1.523 . S
H715 C690 0.950 . S
H716 C692 0.950 . S
H717 C693 0.949 . S
H718 C695 0.950 . S
H719 C697 0.950 . S
C720 C721 1.349 . S
C720 C722 1.327 1_655 S
C720 H745 0.950 . S
C721 C720 1.349 . S
C721 C737 1.349 . S
C722 C720 1.327 1_455 S
C722 C741 1.429 . S
C722 H746 0.950 . S
C723 C740 1.574 . S
C723 C742 1.368 . S
C723 H747 0.949 . S
H724 C728 0.949 . S
C725 C726 1.349 . S
C725 C727 1.327 . S
C725 H748 0.950 . S
C726 C725 1.349 . S
C726 C738 1.349 . S
C727 C725 1.327 . S
C727 C743 1.429 . S
C727 H749 0.950 . S
C728 H724 0.949 . S
C728 C736 1.574 . S
C728 C744 1.368 . S
H729 C737 0.950 . S
H730 C735 0.950 . S
H731 C736 0.949 . S
H732 C738 0.950 . S
H733 C739 0.950 . S
H734 C740 0.949 . S
C735 H730 0.950 . S
C735 C737 1.327 . S
C735 C741 1.429 1_655 S
C736 C728 1.574 . S
C736 H731 0.949 . S
C736 C742 1.368 . S
C737 C721 1.349 . S
C737 H729 0.950 . S
C737 C735 1.327 . S
C738 C726 1.349 . S
C738 H732 0.950 . S
C738 C739 1.327 . S
C739 H733 0.950 . S
C739 C738 1.327 . S
C739 C743 1.429 . S
C740 C723 1.574 . S
C740 H734 0.949 . S
C740 C744 1.368 . S
C741 C722 1.429 . S
C741 C735 1.429 1_455 S
C741 C742 1.523 . S
C742 C723 1.368 . S
C742 C736 1.368 . S
C742 C741 1.523 . S
C743 C727 1.429 . S
C743 C739 1.429 . S
C743 C744 1.523 . S
C744 C728 1.368 . S
C744 C740 1.368 . S
C744 C743 1.523 . S
H745 C720 0.950 . S
H746 C722 0.950 . S
H747 C723 0.949 . S
H748 C725 0.950 . S
H749 C727 0.950 . S
C750 C751 1.349 . S
C750 C752 1.327 . S
C750 H775 0.950 . S
C751 C750 1.349 . S
C751 C767 1.349 1_565 S
C752 C750 1.327 . S
C752 C771 1.429 1_565 S
C752 H776 0.950 . S
C753 C770 1.574 . S
C753 C772 1.368 . S
C753 H777 0.949 . S
H754 C758 0.949 1_565 S
C755 C756 1.349 . S
C755 C757 1.327 . S
C755 H778 0.950 . S
C756 C755 1.349 . S
C756 C768 1.349 . S
C757 C755 1.327 . S
C757 C773 1.429 . S
C757 H779 0.950 . S
C758 H754 0.949 1_545 S
C758 C766 1.574 1_545 S
C758 C774 1.368 . S
H759 C767 0.950 . S
H760 C765 0.950 . S
H761 C766 0.949 . S
H762 C768 0.950 . S
H763 C769 0.950 . S
H764 C770 0.949 . S
C765 H760 0.950 . S
C765 C767 1.327 . S
C765 C771 1.429 . S
C766 C758 1.574 1_565 S
C766 H761 0.949 . S
C766 C772 1.368 1_565 S
C767 C751 1.349 1_545 S
C767 H759 0.950 . S
C767 C765 1.327 . S
C768 C756 1.349 . S
C768 H762 0.950 . S
C768 C769 1.327 . S
C769 H763 0.950 . S
C769 C768 1.327 . S
C769 C773 1.429 . S
C770 C753 1.574 . S
C770 H764 0.949 . S
C770 C774 1.368 . S
C771 C752 1.429 1_545 S
C771 C765 1.429 . S
C771 C772 1.523 . S
C772 C753 1.368 . S
C772 C766 1.368 1_545 S
C772 C771 1.523 . S
C773 C757 1.429 . S
C773 C769 1.429 . S
C773 C774 1.523 . S
C774 C758 1.368 . S
C774 C770 1.368 . S
C774 C773 1.523 . S
H775 C750 0.950 . S
H776 C752 0.950 . S
H777 C753 0.949 . S
H778 C755 0.950 . S
H779 C757 0.950 . S
C241 C130 1.084 1_565 S
C246 C10 1.084 . S
C271 C170 1.084 . S
C276 C50 1.084 . S
C301 C210 1.084 . S
C306 C90 1.084 1_655 S
C331 C16 0.599 . S
C336 C87 0.541 . S
C361 C56 0.599 . S
C366 C127 0.541 . S
C391 C96 0.599 . S
C396 C167 0.541 . S
C421 C136 0.598 . S
C426 C207 0.541 . S
C451 C176 0.599 . S
C456 C7 0.541 . S
C481 C216 0.599 . S
C486 C47 0.541 . S
C511 C19 1.122 . S
C516 C139 1.129 . S
C541 C59 1.124 . S
C546 C179 1.124 . S
C571 C99 1.122 . S
C576 C219 1.122 . S
C601 C2 3.895 . S
C606 C51 3.943 . S
C631 C42 3.894 . S
C636 C91 3.942 . S
C661 C82 3.894 . S
C666 C131 3.943 . S
C691 C122 3.895 . S
C696 C171 3.943 . S
C721 C162 3.895 . S
C726 C211 3.943 . S
C751 C202 3.895 . S
C756 C11 3.943 . S
