# Generated by pormake.
# Topology umk, (4)-cn, num edge types: 1
# Building blocks:
#     Node 0, Type 0, BuildingBlock: AZAVOO_clean_sbu_0, # of connection points: 4
#     Node 1, Type 0, BuildingBlock: AZAVOO_clean_sbu_0, # of connection points: 4
#     Node 2, Type 0, BuildingBlock: AZAVOO_clean_sbu_0, # of connection points: 4
#     Node 3, Type 0, BuildingBlock: AZAVOO_clean_sbu_0, # of connection points: 4
#     Node 4, Type 0, BuildingBlock: AZAVOO_clean_sbu_0, # of connection points: 4
#     Node 5, Type 0, BuildingBlock: AZAVOO_clean_sbu_0, # of connection points: 4
#     Node 6, Type 0, BuildingBlock: AZAVOO_clean_sbu_0, # of connection points: 4
#     Node 7, Type 0, BuildingBlock: AZAVOO_clean_sbu_0, # of connection points: 4
#     Node 8, Type 0, BuildingBlock: AZAVOO_clean_sbu_0, # of connection points: 4
#     Node 9, Type 0, BuildingBlock: AZAVOO_clean_sbu_0, # of connection points: 4
#     Node 10, Type 0, BuildingBlock: AZAVOO_clean_sbu_0, # of connection points: 4
#     Node 11, Type 0, BuildingBlock: AZAVOO_clean_sbu_0, # of connection points: 4
#     Node 12, Type 0, BuildingBlock: AZAVOO_clean_sbu_0, # of connection points: 4
#     Node 13, Type 0, BuildingBlock: AZAVOO_clean_sbu_0, # of connection points: 4
#     Node 14, Type 0, BuildingBlock: AZAVOO_clean_sbu_0, # of connection points: 4
#     Node 15, Type 0, BuildingBlock: AZAVOO_clean_sbu_0, # of connection points: 4
#     Node 16, Type 0, BuildingBlock: AZAVOO_clean_sbu_0, # of connection points: 4
#     Node 17, Type 0, BuildingBlock: AZAVOO_clean_sbu_0, # of connection points: 4
#     Node 18, Type 0, BuildingBlock: AZAVOO_clean_sbu_0, # of connection points: 4
#     Node 19, Type 0, BuildingBlock: AZAVOO_clean_sbu_0, # of connection points: 4
#     Node 20, Type 0, BuildingBlock: AZAVOO_clean_sbu_0, # of connection points: 4
#     Node 21, Type 0, BuildingBlock: AZAVOO_clean_sbu_0, # of connection points: 4
#     Node 22, Type 0, BuildingBlock: AZAVOO_clean_sbu_0, # of connection points: 4
#     Node 23, Type 0, BuildingBlock: AZAVOO_clean_sbu_0, # of connection points: 4
#     Edge 24, Type (0, 0), BuildingBlock: CIFDUS_clean_linker_0, # of connection points: 2
#     Edge 25, Type (0, 0), BuildingBlock: CIFDUS_clean_linker_0, # of connection points: 2
#     Edge 26, Type (0, 0), BuildingBlock: CIFDUS_clean_linker_0, # of connection points: 2
#     Edge 27, Type (0, 0), BuildingBlock: CIFDUS_clean_linker_0, # of connection points: 2
#     Edge 28, Type (0, 0), BuildingBlock: CIFDUS_clean_linker_0, # of connection points: 2
#     Edge 29, Type (0, 0), BuildingBlock: CIFDUS_clean_linker_0, # of connection points: 2
#     Edge 30, Type (0, 0), BuildingBlock: CIFDUS_clean_linker_0, # of connection points: 2
#     Edge 31, Type (0, 0), BuildingBlock: CIFDUS_clean_linker_0, # of connection points: 2
#     Edge 32, Type (0, 0), BuildingBlock: CIFDUS_clean_linker_0, # of connection points: 2
#     Edge 33, Type (0, 0), BuildingBlock: CIFDUS_clean_linker_0, # of connection points: 2
#     Edge 34, Type (0, 0), BuildingBlock: CIFDUS_clean_linker_0, # of connection points: 2
#     Edge 35, Type (0, 0), BuildingBlock: CIFDUS_clean_linker_0, # of connection points: 2
#     Edge 36, Type (0, 0), BuildingBlock: CIFDUS_clean_linker_0, # of connection points: 2
#     Edge 37, Type (0, 0), BuildingBlock: CIFDUS_clean_linker_0, # of connection points: 2
#     Edge 38, Type (0, 0), BuildingBlock: CIFDUS_clean_linker_0, # of connection points: 2
#     Edge 39, Type (0, 0), BuildingBlock: CIFDUS_clean_linker_0, # of connection points: 2
#     Edge 40, Type (0, 0), BuildingBlock: CIFDUS_clean_linker_0, # of connection points: 2
#     Edge 41, Type (0, 0), BuildingBlock: CIFDUS_clean_linker_0, # of connection points: 2
#     Edge 42, Type (0, 0), BuildingBlock: CIFDUS_clean_linker_0, # of connection points: 2
#     Edge 43, Type (0, 0), BuildingBlock: CIFDUS_clean_linker_0, # of connection points: 2
#     Edge 44, Type (0, 0), BuildingBlock: CIFDUS_clean_linker_0, # of connection points: 2
#     Edge 45, Type (0, 0), BuildingBlock: CIFDUS_clean_linker_0, # of connection points: 2
#     Edge 46, Type (0, 0), BuildingBlock: CIFDUS_clean_linker_0, # of connection points: 2
#     Edge 47, Type (0, 0), BuildingBlock: CIFDUS_clean_linker_0, # of connection points: 2
#     Edge 48, Type (0, 0), BuildingBlock: CIFDUS_clean_linker_0, # of connection points: 2
#     Edge 49, Type (0, 0), BuildingBlock: CIFDUS_clean_linker_0, # of connection points: 2
#     Edge 50, Type (0, 0), BuildingBlock: CIFDUS_clean_linker_0, # of connection points: 2
#     Edge 51, Type (0, 0), BuildingBlock: CIFDUS_clean_linker_0, # of connection points: 2
#     Edge 52, Type (0, 0), BuildingBlock: CIFDUS_clean_linker_0, # of connection points: 2
#     Edge 53, Type (0, 0), BuildingBlock: CIFDUS_clean_linker_0, # of connection points: 2
#     Edge 54, Type (0, 0), BuildingBlock: CIFDUS_clean_linker_0, # of connection points: 2
#     Edge 55, Type (0, 0), BuildingBlock: CIFDUS_clean_linker_0, # of connection points: 2
#     Edge 56, Type (0, 0), BuildingBlock: CIFDUS_clean_linker_0, # of connection points: 2
#     Edge 57, Type (0, 0), BuildingBlock: CIFDUS_clean_linker_0, # of connection points: 2
#     Edge 58, Type (0, 0), BuildingBlock: CIFDUS_clean_linker_0, # of connection points: 2
#     Edge 59, Type (0, 0), BuildingBlock: CIFDUS_clean_linker_0, # of connection points: 2
#     Edge 60, Type (0, 0), BuildingBlock: CIFDUS_clean_linker_0, # of connection points: 2
#     Edge 61, Type (0, 0), BuildingBlock: CIFDUS_clean_linker_0, # of connection points: 2
#     Edge 62, Type (0, 0), BuildingBlock: CIFDUS_clean_linker_0, # of connection points: 2
#     Edge 63, Type (0, 0), BuildingBlock: CIFDUS_clean_linker_0, # of connection points: 2
#     Edge 64, Type (0, 0), BuildingBlock: CIFDUS_clean_linker_0, # of connection points: 2
#     Edge 65, Type (0, 0), BuildingBlock: CIFDUS_clean_linker_0, # of connection points: 2
#     Edge 66, Type (0, 0), BuildingBlock: CIFDUS_clean_linker_0, # of connection points: 2
#     Edge 67, Type (0, 0), BuildingBlock: CIFDUS_clean_linker_0, # of connection points: 2
#     Edge 68, Type (0, 0), BuildingBlock: CIFDUS_clean_linker_0, # of connection points: 2
#     Edge 69, Type (0, 0), BuildingBlock: CIFDUS_clean_linker_0, # of connection points: 2
#     Edge 70, Type (0, 0), BuildingBlock: CIFDUS_clean_linker_0, # of connection points: 2
#     Edge 71, Type (0, 0), BuildingBlock: CIFDUS_clean_linker_0, # of connection points: 2
# Relax obj value: 0.147
# Max RMSD: 0.165
# Mean RMSD: 0.165
data_MOF--net-umk--node1-AZAVOO_clean_sbu_0--edge1-CIFDUS_clean_linker_0
_symmetry_space_group_name_H-M    P1
_symmetry_Int_Tables_number       1
_symmetry_cell_setting            triclinic
loop_
_symmetry_equiv_pos_as_xyz
'x, y, z'
_cell_length_a     59.533668
_cell_length_b     59.339009
_cell_length_c     38.765161
_cell_angle_alpha  90.100678
_cell_angle_beta   89.913522
_cell_angle_gamma 120.00819
loop_
_atom_site_label
_atom_site_type_symbol
_atom_site_fract_x
_atom_site_fract_y
_atom_site_fract_z
_atom_type_partial_charge
Mg0 Mg 0.30515 0.43596 0.06745 0.0
O1 O 0.33807 0.47331 0.04183 0.0
O2 O 0.3745 0.48207 0.06987 0.0
Mg3 Mg 0.36636 0.45042 0.10901 0.0
C4 C 0.36246 0.48765 0.0473 0.0
C5 C 0.25197 0.42018 0.04014 0.0
O6 O 0.25123 0.39872 0.05038 0.0
O7 O 0.30671 0.45911 0.11612 0.0
O8 O 0.34365 0.46523 0.13967 0.0
O9 O 0.31073 0.40981 0.03019 0.0
O10 O 0.33176 0.424 0.07929 0.0
C11 C 0.32367 0.4679 0.14016 0.0
C12 C 0.32804 0.4109 0.05132 0.0
O13 O 0.27317 0.44158 0.04336 0.0
Mg14 Mg 0.84724 0.30682 0.56606 0.0
O15 O 0.84137 0.34066 0.5477 0.0
O16 O 0.86813 0.37557 0.57923 0.0
Mg17 Mg 0.89191 0.36521 0.61491 0.0
C18 C 0.8507 0.36457 0.55612 0.0
C19 C 0.80606 0.27388 0.50874 0.0
O20 O 0.82494 0.28972 0.48817 0.0
O21 O 0.82572 0.30287 0.6167 0.0
O22 O 0.85488 0.33852 0.64477 0.0
O23 O 0.87872 0.31727 0.52652 0.0
O24 O 0.88539 0.33369 0.57905 0.0
C25 C 0.83295 0.3176 0.64319 0.0
C26 C 0.89468 0.3333 0.5492 0.0
O27 O 0.80936 0.27657 0.54117 0.0
Mg28 Mg 0.52471 0.86238 0.06455 0.0
O29 O 0.489 0.85782 0.03498 0.0
O30 O 0.47713 0.88419 0.06033 0.0
Mg31 Mg 0.50545 0.90671 0.10352 0.0
C32 C 0.47392 0.86728 0.03757 0.0
C33 C 0.5413 0.82446 0.03693 0.0
O34 O 0.56286 0.84408 0.04901 0.0
O35 O 0.49975 0.83934 0.11145 0.0
O36 O 0.49051 0.86874 0.13321 0.0
O37 O 0.55136 0.89603 0.02979 0.0
O38 O 0.53485 0.90023 0.07854 0.0
C39 C 0.48906 0.84655 0.13424 0.0
C40 C 0.54875 0.91106 0.0517 0.0
O41 O 0.52052 0.8255 0.03914 0.0
Mg42 Mg 0.64778 0.53014 0.56772 0.0
O43 O 0.61568 0.49291 0.5416 0.0
O44 O 0.57844 0.48178 0.56888 0.0
Mg45 Mg 0.58595 0.51198 0.6103 0.0
C46 C 0.5913 0.4778 0.5457 0.0
C47 C 0.68011 0.5195 0.51122 0.0
O48 O 0.66201 0.51827 0.49063 0.0
O49 O 0.6481 0.50814 0.61624 0.0
O50 O 0.6106 0.49934 0.64084 0.0
O51 O 0.63948 0.55471 0.53111 0.0
O52 O 0.62043 0.54071 0.58151 0.0
C53 C 0.63166 0.49858 0.64082 0.0
C54 C 0.62247 0.55304 0.55338 0.0
O55 O 0.67927 0.52398 0.54314 0.0
Mg56 Mg 0.09533 0.65699 0.07301 0.0
O57 O 0.1019 0.62356 0.05424 0.0
O58 O 0.07607 0.58892 0.08682 0.0
Mg59 Mg 0.05217 0.59866 0.12311 0.0
C60 C 0.0931 0.59984 0.06322 0.0
C61 C 0.13037 0.70876 0.03972 0.0
O62 O 0.10958 0.70933 0.04985 0.0
O63 O 0.11807 0.66213 0.12318 0.0
O64 O 0.08945 0.62638 0.15162 0.0
O65 O 0.06294 0.64502 0.03468 0.0
O66 O 0.05763 0.62981 0.08767 0.0
C67 C 0.11119 0.64749 0.14979 0.0
C68 C 0.04757 0.62942 0.05816 0.0
O69 O 0.13151 0.68824 0.04534 0.0
Mg70 Mg 0.41819 0.10159 0.56369 0.0
O71 O 0.45646 0.11024 0.53731 0.0
O72 O 0.47163 0.0878 0.56555 0.0
Mg73 Mg 0.4429 0.06385 0.60775 0.0
C74 C 0.47358 0.10354 0.54181 0.0
C75 C 0.39851 0.13204 0.52149 0.0
O76 O 0.37816 0.10851 0.52223 0.0
O77 O 0.43932 0.12659 0.61087 0.0
O78 O 0.45209 0.10121 0.63666 0.0
O79 O 0.39597 0.06752 0.5284 0.0
O80 O 0.41163 0.06505 0.57888 0.0
C81 C 0.45041 0.12184 0.63569 0.0
C82 C 0.39952 0.05357 0.55103 0.0
O83 O 0.41919 0.13609 0.53645 0.0
Mg84 Mg 0.50949 0.64685 0.90016 0.0
O85 O 0.47044 0.61229 0.91911 0.0
O86 O 0.46061 0.57884 0.88351 0.0
Mg87 Mg 0.493 0.59059 0.8443 0.0
C88 C 0.45536 0.58881 0.90927 0.0
C89 C 0.52374 0.6962 0.94303 0.0
O90 O 0.54648 0.69846 0.93681 0.0
O91 O 0.49026 0.65362 0.85273 0.0
O92 O 0.48243 0.61911 0.82067 0.0
O93 O 0.53184 0.63391 0.93416 0.0
O94 O 0.51981 0.62035 0.88087 0.0
C95 C 0.48174 0.64004 0.82524 0.0
C96 C 0.53064 0.61904 0.90891 0.0
O97 O 0.50352 0.67614 0.9319 0.0
Mg98 Mg 0.8457 0.51526 0.40495 0.0
O99 O 0.83962 0.47639 0.42751 0.0
O100 O 0.86366 0.46517 0.39496 0.0
Mg101 Mg 0.88615 0.49645 0.35497 0.0
C102 C 0.84773 0.46072 0.4196 0.0
C103 C 0.80758 0.51269 0.46466 0.0
O104 O 0.82684 0.5163 0.4848 0.0
O105 O 0.82083 0.49429 0.35746 0.0
O106 O 0.84764 0.48481 0.32872 0.0
O107 O 0.8799 0.53841 0.44038 0.0
O108 O 0.88277 0.5244 0.38883 0.0
C109 C 0.82611 0.48443 0.33158 0.0
C110 C 0.89412 0.53607 0.41695 0.0
O111 O 0.80967 0.51092 0.43227 0.0
Mg112 Mg 0.30523 0.85651 0.90103 0.0
O113 O 0.33833 0.85336 0.92685 0.0
O114 O 0.37407 0.87537 0.89482 0.0
Mg115 Mg 0.36453 0.89399 0.85 0.0
C116 C 0.36225 0.86131 0.92089 0.0
C117 C 0.25453 0.82135 0.94241 0.0
O118 O 0.25051 0.84034 0.93312 0.0
O119 O 0.30111 0.82866 0.85696 0.0
O120 O 0.33731 0.85388 0.82704 0.0
O121 O 0.31681 0.89372 0.93071 0.0
O122 O 0.33192 0.89214 0.87944 0.0
C123 C 0.31603 0.83253 0.8312 0.0
C124 C 0.33207 0.90595 0.9051 0.0
O125 O 0.27566 0.82248 0.93374 0.0
Mg126 Mg 0.42735 0.31507 0.40672 0.0
O127 O 0.46396 0.34671 0.4339 0.0
O128 O 0.47984 0.38316 0.40273 0.0
Mg129 Mg 0.45216 0.37569 0.35787 0.0
C130 C 0.48098 0.37048 0.42854 0.0
C131 C 0.41147 0.26056 0.43604 0.0
O132 O 0.39151 0.25511 0.41617 0.0
O133 O 0.45056 0.31048 0.36267 0.0
O134 O 0.46304 0.34731 0.3334 0.0
O135 O 0.40257 0.32707 0.4368 0.0
O136 O 0.42015 0.34322 0.38621 0.0
C137 C 0.46195 0.32539 0.33703 0.0
C138 C 0.40639 0.34312 0.41187 0.0
O139 O 0.42973 0.28402 0.43831 0.0
Mg140 Mg 0.09506 0.44253 0.92367 0.0
O141 O 0.09762 0.48065 0.94357 0.0
O142 O 0.06832 0.48563 0.9133 0.0
Mg143 Mg 0.04589 0.45103 0.87754 0.0
C144 C 0.08639 0.49357 0.93574 0.0
C145 C 0.13534 0.4326 0.95774 0.0
O146 O 0.11524 0.40933 0.95243 0.0
O147 O 0.11555 0.46291 0.87319 0.0
O148 O 0.08351 0.46579 0.84724 0.0
O149 O 0.06428 0.41828 0.96302 0.0
O150 O 0.05612 0.42814 0.91155 0.0
C151 C 0.10657 0.46956 0.8477 0.0
C152 C 0.04748 0.41721 0.94096 0.0
O153 O 0.1337 0.45234 0.9488 0.0
Mg154 Mg 0.63775 0.10814 0.40056 0.0
O155 O 0.60728 0.11463 0.42878 0.0
O156 O 0.57061 0.09414 0.39814 0.0
Mg157 Mg 0.57661 0.07311 0.35299 0.0
C158 C 0.58359 0.10817 0.42371 0.0
C159 C 0.67206 0.14629 0.46156 0.0
O160 O 0.65312 0.12996 0.48169 0.0
O161 O 0.64215 0.1358 0.3568 0.0
O162 O 0.60503 0.11218 0.32808 0.0
O163 O 0.62555 0.07153 0.43121 0.0
O164 O 0.60855 0.0728 0.38132 0.0
C165 C 0.62714 0.13273 0.33158 0.0
C166 C 0.60877 0.05926 0.40704 0.0
O167 O 0.67071 0.142 0.42931 0.0
Mg168 Mg 0.64113 0.5271 0.90221 0.0
O169 O 0.61019 0.49168 0.93207 0.0
O170 O 0.57153 0.47941 0.90835 0.0
Mg171 Mg 0.57719 0.50792 0.86551 0.0
C172 C 0.58569 0.47644 0.93042 0.0
C173 C 0.69604 0.53873 0.92748 0.0
O174 O 0.70252 0.56107 0.91266 0.0
O175 O 0.63817 0.50182 0.8552 0.0
O176 O 0.5994 0.49266 0.83478 0.0
O177 O 0.63562 0.55406 0.9379 0.0
O178 O 0.61349 0.53787 0.88992 0.0
C179 C 0.61995 0.49105 0.83298 0.0
C180 C 0.61745 0.55167 0.91731 0.0
O181 O 0.67239 0.5208 0.92714 0.0
Mg182 Mg 0.09545 0.64752 0.41599 0.0
O183 O 0.09921 0.61298 0.43641 0.0
O184 O 0.07172 0.57777 0.40594 0.0
Mg185 Mg 0.04932 0.58872 0.36856 0.0
C186 C 0.08914 0.58881 0.42906 0.0
C187 C 0.13762 0.69951 0.44804 0.0
O188 O 0.12023 0.70552 0.43784 0.0
O189 O 0.11739 0.64933 0.36603 0.0
O190 O 0.08706 0.61346 0.33948 0.0
O191 O 0.06344 0.63891 0.45422 0.0
O192 O 0.05692 0.62166 0.40227 0.0
C193 C 0.10954 0.63369 0.34039 0.0
C194 C 0.04741 0.62296 0.43155 0.0
O195 O 0.13331 0.67651 0.44285 0.0
Mg196 Mg 0.43021 0.10979 0.90119 0.0
O197 O 0.46766 0.1126 0.92331 0.0
O198 O 0.47458 0.08413 0.89377 0.0
Mg199 Mg 0.44196 0.06224 0.8554 0.0
C200 C 0.48116 0.10178 0.91669 0.0
C201 C 0.43845 0.14983 0.96046 0.0
O202 O 0.43487 0.12998 0.97945 0.0
O203 O 0.45186 0.13158 0.85175 0.0
O204 O 0.4568 0.10038 0.82646 0.0
O205 O 0.40549 0.07731 0.93857 0.0
O206 O 0.41679 0.0712 0.88689 0.0
C207 C 0.45987 0.12325 0.82686 0.0
C208 C 0.40514 0.06133 0.91553 0.0
O209 O 0.43857 0.14788 0.92778 0.0
Mg210 Mg 0.29227 0.43136 0.40486 0.0
O211 O 0.32455 0.46863 0.43059 0.0
O212 O 0.36175 0.47944 0.40341 0.0
Mg213 Mg 0.35404 0.44912 0.36218 0.0
C214 C 0.34895 0.48359 0.42648 0.0
C215 C 0.26006 0.43978 0.46291 0.0
O216 O 0.27755 0.43867 0.48234 0.0
O217 O 0.29178 0.45319 0.35613 0.0
O218 O 0.32929 0.46164 0.3319 0.0
O219 O 0.30068 0.40709 0.44167 0.0
O220 O 0.31954 0.42061 0.39104 0.0
C221 C 0.30833 0.46256 0.33164 0.0
C222 C 0.31765 0.40861 0.41944 0.0
O223 O 0.26112 0.43766 0.43039 0.0
Mg224 Mg 0.84698 0.3183 0.90886 0.0
O225 O 0.84019 0.3511 0.92964 0.0
O226 O 0.86681 0.38711 0.89979 0.0
Mg227 Mg 0.89118 0.37871 0.86252 0.0
C228 C 0.84923 0.37519 0.92251 0.0
C229 C 0.80172 0.28663 0.96383 0.0
O230 O 0.81588 0.30698 0.98343 0.0
O231 O 0.82508 0.3157 0.85867 0.0
O232 O 0.85412 0.35272 0.8331 0.0
O233 O 0.87927 0.32887 0.9478 0.0
O234 O 0.88489 0.3465 0.8963 0.0
C235 C 0.83226 0.33171 0.83353 0.0
C236 C 0.89462 0.34595 0.92563 0.0
O237 O 0.8093 0.28614 0.93329 0.0
Mg238 Mg 0.52448 0.85739 0.40025 0.0
O239 O 0.48626 0.84869 0.42669 0.0
O240 O 0.47189 0.8726 0.40051 0.0
Mg241 Mg 0.50115 0.8975 0.3593 0.0
C242 C 0.46952 0.856 0.4232 0.0
C243 C 0.54397 0.824 0.43531 0.0
O244 O 0.56541 0.84612 0.42952 0.0
O245 O 0.50369 0.83427 0.35146 0.0
O246 O 0.49198 0.8612 0.32784 0.0
O247 O 0.54676 0.89025 0.43738 0.0
O248 O 0.53187 0.89469 0.38734 0.0
C249 C 0.49327 0.84036 0.32709 0.0
C250 C 0.54372 0.90511 0.41575 0.0
O251 O 0.5225 0.82173 0.42582 0.0
Mg252 Mg 0.43203 0.31249 0.07978 0.0
O253 O 0.4678 0.34343 0.0501 0.0
O254 O 0.48139 0.38166 0.07666 0.0
Mg255 Mg 0.45443 0.37599 0.12143 0.0
C256 C 0.48351 0.36788 0.05297 0.0
C257 C 0.43738 0.27861 0.02057 0.0
O258 O 0.43748 0.29692 0.00146 0.0
O259 O 0.45721 0.31272 0.12529 0.0
O260 O 0.46857 0.3515 0.14831 0.0
O261 O 0.40596 0.3209 0.04614 0.0
O262 O 0.42374 0.34161 0.09456 0.0
C263 C 0.46911 0.33031 0.14812 0.0
C264 C 0.41018 0.33935 0.06759 0.0
O265 O 0.43539 0.27962 0.05316 0.0
Mg266 Mg 0.0949 0.43963 0.58002 0.0
O267 O 0.10235 0.47942 0.55959 0.0
O268 O 0.07813 0.4906 0.59173 0.0
Mg269 Mg 0.05402 0.45818 0.62964 0.0
C270 C 0.09454 0.49528 0.56768 0.0
C271 C 0.13394 0.44575 0.52032 0.0
O272 O 0.11554 0.44523 0.50106 0.0
O273 O 0.11824 0.45783 0.62969 0.0
O274 O 0.09091 0.46681 0.65794 0.0
O275 O 0.06171 0.41869 0.54255 0.0
O276 O 0.05766 0.43079 0.59489 0.0
C277 C 0.11213 0.46648 0.65613 0.0
C278 C 0.04707 0.42053 0.56581 0.0
O279 O 0.1312 0.44435 0.55292 0.0
Mg280 Mg 0.6385 0.11548 0.07448 0.0
O281 O 0.6037 0.11653 0.04938 0.0
O282 O 0.5688 0.09077 0.0815 0.0
Mg283 Mg 0.57968 0.07174 0.1239 0.0
C284 C 0.57955 0.10645 0.05642 0.0
C285 C 0.67576 0.15155 0.01445 0.0
O286 O 0.66541 0.12933 -0.00232 0.0
O287 O 0.6388 0.14094 0.11977 0.0
O288 O 0.60303 0.11189 0.14776 0.0
O289 O 0.63044 0.07959 0.04294 0.0
O290 O 0.61363 0.07845 0.09379 0.0
C291 C 0.62269 0.13464 0.14471 0.0
C292 C 0.61525 0.0659 0.06785 0.0
O293 O 0.66805 0.15195 0.04495 0.0
Mg294 Mg 0.51104 0.64538 0.57008 0.0
O295 O 0.47591 0.61354 0.54051 0.0
O296 O 0.46136 0.5761 0.56917 0.0
Mg297 Mg 0.48819 0.58311 0.61477 0.0
C298 C 0.4598 0.5893 0.54431 0.0
C299 C 0.52819 0.69783 0.5322 0.0
O300 O 0.55077 0.70123 0.54217 0.0
O301 O 0.48519 0.64639 0.61379 0.0
O302 O 0.47386 0.60846 0.63958 0.0
O303 O 0.53821 0.63608 0.54021 0.0
O304 O 0.51954 0.61777 0.58938 0.0
C305 C 0.47334 0.62966 0.63759 0.0
C306 C 0.53441 0.61944 0.5643 0.0
O307 O 0.50779 0.67656 0.53957 0.0
Mg308 Mg 0.84453 0.52504 0.07304 0.0
O309 O 0.8381 0.48564 0.05222 0.0
O310 O 0.85936 0.473 0.08767 0.0
Mg311 Mg 0.88048 0.50384 0.12868 0.0
C312 C 0.84488 0.46922 0.06156 0.0
C313 C 0.8176 0.54367 0.02286 0.0
O314 O 0.84102 0.56388 0.02624 0.0
O315 O 0.81658 0.50514 0.11864 0.0
O316 O 0.84135 0.49468 0.15048 0.0
O317 O 0.88142 0.54698 0.04178 0.0
O318 O 0.87976 0.53298 0.09474 0.0
C319 C 0.82044 0.49524 0.14568 0.0
C320 C 0.89347 0.54462 0.06807 0.0
O321 O 0.81209 0.52287 0.03898 0.0
Mg322 Mg 0.30947 0.85097 0.57705 0.0
O323 O 0.33915 0.84559 0.54478 0.0
O324 O 0.37755 0.86841 0.57112 0.0
Mg325 Mg 0.37353 0.88979 0.61734 0.0
C326 C 0.36336 0.85333 0.54707 0.0
C327 C 0.25752 0.8214 0.53945 0.0
O328 O 0.26 0.84424 0.54623 0.0
O329 O 0.30918 0.82442 0.62073 0.0
O330 O 0.34812 0.85087 0.6439 0.0
O331 O 0.31852 0.88686 0.5464 0.0
O332 O 0.33876 0.88725 0.59405 0.0
C333 C 0.3266 0.82943 0.64349 0.0
C334 C 0.33643 0.9 0.5689 0.0
O335 O 0.27548 0.81711 0.54893 0.0
H336 H 0.27978 0.44903 0.17888 0.0
H337 H 0.35919 0.51126 0.17299 0.0
H338 H 0.3588 0.52033 0.23426 0.0
H339 H 0.34011 0.50252 0.29071 0.0
H340 H 0.26192 0.43822 0.29799 0.0
H341 H 0.25716 0.43845 0.23532 0.0
C342 C 0.29652 0.46533 0.19077 0.0
C343 C 0.31961 0.47923 0.17177 0.0
C344 C 0.29652 0.46968 0.22652 0.0
C345 C 0.3413 0.50019 0.18735 0.0
C346 C 0.34115 0.50525 0.22243 0.0
C347 C 0.32165 0.48936 0.27864 0.0
C348 C 0.30159 0.47009 0.29867 0.0
C349 C 0.31951 0.48893 0.24261 0.0
C350 C 0.27767 0.45322 0.28301 0.0
C351 C 0.27509 0.45311 0.24708 0.0
H352 H 0.81816 0.34544 0.68186 0.0
H353 H 0.81541 0.27165 0.67677 0.0
H354 H 0.80723 0.26566 0.73894 0.0
H355 H 0.81341 0.28759 0.79539 0.0
H356 H 0.81887 0.36273 0.79944 0.0
H357 H 0.81234 0.36168 0.73727 0.0
C358 C 0.81454 0.32753 0.69422 0.0
C359 C 0.8177 0.30919 0.67521 0.0
C360 C 0.81067 0.32469 0.72997 0.0
C361 C 0.813 0.28599 0.6911 0.0
C362 C 0.80865 0.28274 0.72672 0.0
C363 C 0.81177 0.30302 0.7828 0.0
C364 C 0.81695 0.32536 0.80162 0.0
C365 C 0.80923 0.3028 0.74669 0.0
C366 C 0.81506 0.34542 0.78521 0.0
C367 C 0.81163 0.34496 0.74963 0.0
H368 H 0.45373 0.83059 0.28429 0.0
H369 H 0.51992 0.82006 0.29471 0.0
H370 H 0.52041 0.81395 0.23234 0.0
H371 H 0.5092 0.82368 0.17485 0.0
H372 H 0.44459 0.83692 0.16555 0.0
H373 H 0.43569 0.82905 0.22709 0.0
C374 C 0.46757 0.82586 0.273 0.0
C375 C 0.48705 0.82628 0.29384 0.0
C376 C 0.46823 0.82327 0.23709 0.0
C377 C 0.50475 0.8199 0.27914 0.0
C378 C 0.50523 0.81674 0.24336 0.0
C379 C 0.49243 0.82354 0.18607 0.0
C380 C 0.47778 0.83122 0.16593 0.0
C381 C 0.48813 0.82012 0.22193 0.0
C382 C 0.45622 0.83123 0.18071 0.0
C383 C 0.45129 0.82699 0.21597 0.0
H384 H 0.66315 0.51005 0.79283 0.0
H385 H 0.58395 0.44758 0.80053 0.0
H386 H 0.5829 0.4396 0.73871 0.0
H387 H 0.60025 0.45854 0.68209 0.0
H388 H 0.67848 0.52259 0.67337 0.0
H389 H 0.68452 0.52143 0.73562 0.0
C390 C 0.64615 0.49389 0.78118 0.0
C391 C 0.62349 0.47972 0.80095 0.0
C392 C 0.64532 0.49015 0.7452 0.0
C393 C 0.60151 0.45889 0.78563 0.0
C394 C 0.60082 0.45449 0.75022 0.0
C395 C 0.61897 0.47148 0.69369 0.0
C396 C 0.6387 0.49093 0.67347 0.0
C397 C 0.62195 0.47122 0.72954 0.0
C398 C 0.66297 0.50747 0.68851 0.0
C399 C 0.66631 0.50703 0.72422 0.0
H400 H 0.12916 0.67768 0.302 0.0
H401 H 0.12232 0.60197 0.30669 0.0
H402 H 0.12985 0.603 0.24472 0.0
H403 H 0.12557 0.61964 0.18893 0.0
H404 H 0.12908 0.69376 0.18308 0.0
H405 H 0.13635 0.69966 0.24543 0.0
C406 C 0.13069 0.6621 0.28962 0.0
C407 C 0.12499 0.63968 0.30858 0.0
C408 C 0.13377 0.6623 0.25356 0.0
C409 C 0.12663 0.61937 0.2924 0.0
C410 C 0.13064 0.61984 0.25692 0.0
C411 C 0.12918 0.63762 0.20118 0.0
C412 C 0.12649 0.65609 0.18181 0.0
C413 C 0.13233 0.64033 0.23705 0.0
C414 C 0.13116 0.67933 0.19762 0.0
C415 C 0.13494 0.68251 0.23336 0.0
H416 H 0.43778 0.14406 0.7864 0.0
H417 H 0.50459 0.1344 0.79532 0.0
H418 H 0.51192 0.14033 0.73329 0.0
H419 H 0.49177 0.13526 0.67668 0.0
H420 H 0.42337 0.1421 0.66689 0.0
H421 H 0.42449 0.15097 0.7287 0.0
C422 C 0.45471 0.14469 0.7749 0.0
C423 C 0.47048 0.13853 0.79511 0.0
C424 C 0.45805 0.14686 0.73884 0.0
C425 C 0.4922 0.13905 0.78006 0.0
C426 C 0.4962 0.14211 0.74454 0.0
C427 C 0.4778 0.13983 0.6879 0.0
C428 C 0.45723 0.1375 0.6676 0.0
C429 C 0.47811 0.14405 0.72354 0.0
C430 C 0.43935 0.14369 0.68212 0.0
C431 C 0.4398 0.14844 0.71758 0.0
H432 H 0.4964 0.6737 0.67601 0.0
H433 H 0.42693 0.59886 0.66788 0.0
H434 H 0.41881 0.59938 0.72945 0.0
H435 H 0.43907 0.61444 0.78606 0.0
H436 H 0.5104 0.68743 0.79515 0.0
H437 H 0.50998 0.69486 0.73315 0.0
C438 C 0.47876 0.65825 0.68745 0.0
C439 C 0.46248 0.63607 0.66773 0.0
C440 C 0.475 0.65808 0.72335 0.0
C441 C 0.43977 0.61603 0.68274 0.0
C442 C 0.43532 0.61619 0.71804 0.0
C443 C 0.45374 0.63259 0.77465 0.0
C444 C 0.47492 0.65016 0.79479 0.0
C445 C 0.4539 0.63609 0.73887 0.0
C446 C 0.49388 0.67365 0.78004 0.0
C447 C 0.49384 0.67768 0.74446 0.0
H448 H 0.80661 0.50989 0.29563 0.0
H449 H 0.80865 0.43838 0.29922 0.0
H450 H 0.79717 0.4306 0.23829 0.0
H451 H 0.80082 0.45122 0.18251 0.0
H452 H 0.80376 0.52507 0.17753 0.0
H453 H 0.79795 0.52455 0.24005 0.0
C454 C 0.80318 0.49198 0.28338 0.0
C455 C 0.80875 0.47486 0.3015 0.0
C456 C 0.79801 0.48841 0.24776 0.0
C457 C 0.80457 0.45184 0.28552 0.0
C458 C 0.79825 0.44753 0.25061 0.0
C459 C 0.79869 0.46643 0.195 0.0
C460 C 0.80318 0.48835 0.17581 0.0
C461 C 0.79697 0.46669 0.23104 0.0
C462 C 0.80036 0.508 0.19191 0.0
C463 C 0.79755 0.50792 0.22779 0.0
H464 H 0.28265 0.80822 0.68203 0.0
H465 H 0.35843 0.8159 0.67562 0.0
H466 H 0.35843 0.8095 0.73769 0.0
H467 H 0.34311 0.81602 0.7935 0.0
H468 H 0.2687 0.81129 0.8006 0.0
H469 H 0.26147 0.8015 0.73898 0.0
C470 C 0.29847 0.80702 0.694 0.0
C471 C 0.32075 0.81307 0.67454 0.0
C472 C 0.29887 0.80462 0.73011 0.0
C473 C 0.3412 0.81156 0.69027 0.0
C474 C 0.34134 0.80822 0.72585 0.0
C475 C 0.32476 0.81151 0.78181 0.0
C476 C 0.30671 0.81487 0.8012 0.0
C477 C 0.32124 0.8069 0.74619 0.0
C478 C 0.28291 0.80886 0.78609 0.0
C479 C 0.27896 0.80365 0.75068 0.0
H480 H 0.50395 0.35156 0.29619 0.0
H481 H 0.43466 0.27711 0.30865 0.0
H482 H 0.43499 0.268 0.24721 0.0
H483 H 0.44744 0.28746 0.189 0.0
H484 H 0.51534 0.36314 0.17729 0.0
H485 H 0.5238 0.36516 0.23902 0.0
C486 C 0.48969 0.33282 0.28568 0.0
C487 C 0.46901 0.3153 0.30656 0.0
C488 C 0.48952 0.32817 0.25016 0.0
C489 C 0.45072 0.29097 0.29297 0.0
C490 C 0.45071 0.28591 0.25767 0.0
C491 C 0.46486 0.30368 0.19976 0.0
C492 C 0.48048 0.32535 0.17892 0.0
C493 C 0.46889 0.30523 0.23568 0.0
C494 C 0.50294 0.34636 0.19304 0.0
C495 C 0.5076 0.34766 0.22842 0.0
H496 H 0.12499 0.50684 0.69872 0.0
H497 H 0.1309 0.43787 0.68649 0.0
H498 H 0.13681 0.43647 0.74877 0.0
H499 H 0.12764 0.44791 0.80661 0.0
H500 H 0.11792 0.51479 0.81748 0.0
H501 H 0.1269 0.52455 0.75624 0.0
C502 C 0.12881 0.49224 0.70961 0.0
C503 C 0.1271 0.47227 0.68837 0.0
C504 C 0.131 0.49095 0.74545 0.0
C505 C 0.13216 0.45347 0.70245 0.0
C506 C 0.13513 0.45245 0.73816 0.0
C507 C 0.12879 0.4653 0.79575 0.0
C508 C 0.12198 0.48055 0.81619 0.0
C509 C 0.13274 0.47003 0.76005 0.0
C510 C 0.1231 0.50284 0.80201 0.0
C511 C 0.12799 0.50826 0.76696 0.0
H512 H 0.60113 0.1489 0.29104 0.0
H513 H 0.67549 0.15423 0.3038 0.0
H514 H 0.685 0.16439 0.24264 0.0
H515 H 0.66574 0.15727 0.18444 0.0
H516 H 0.59006 0.14891 0.17229 0.0
H517 H 0.58788 0.15563 0.23396 0.0
C518 C 0.61991 0.15355 0.28068 0.0
C519 C 0.63727 0.15013 0.30145 0.0
C520 C 0.62481 0.15847 0.24531 0.0
C521 C 0.66172 0.15653 0.28813 0.0
C522 C 0.66702 0.16202 0.25301 0.0
C523 C 0.64953 0.15851 0.19508 0.0
C524 C 0.62787 0.15213 0.17423 0.0
C525 C 0.64784 0.16097 0.23097 0.0
C526 C 0.60684 0.15362 0.18811 0.0
C527 C 0.60543 0.15706 0.22346 0.0
H528 H 0.14312 0.39391 0.98028 0.0
H529 H 0.18171 0.47742 0.96984 0.0
H530 H 0.22136 0.4812 -0.00565 0.0
H531 H 0.24518 0.46047 0.0185 0.0
H532 H 0.20548 0.37678 0.02847 0.0
H533 H 0.16631 0.3735 0.00439 0.0
C534 C 0.16016 0.413 0.98335 0.0
C535 C 0.15939 0.43533 0.97317 0.0
C536 C 0.1828 0.41501 -0.00262 0.0
C537 C 0.18172 0.45988 0.97746 0.0
C538 C 0.20443 0.46205 -0.00855 0.0
C539 C 0.22795 0.44154 0.01537 0.0
C540 C 0.22839 0.41892 0.0253 0.0
C541 C 0.20522 0.43971 0.00144 0.0
C542 C 0.20583 0.39455 0.02112 0.0
C543 C 0.18332 0.3926 0.00731 0.0
H544 H 0.71255 0.1846 0.42616 0.0
H545 H 0.68328 0.16021 0.52946 0.0
H546 H 0.72177 0.19799 0.55306 0.0
H547 H 0.76418 0.2373 0.54439 0.0
H548 H 0.79332 0.26144 0.44095 0.0
H549 H 0.75428 0.22439 0.41742 0.0
C550 C 0.71452 0.18751 0.45386 0.0
C551 C 0.69506 0.16948 0.476 0.0
C552 C 0.73667 0.20924 0.46724 0.0
C553 C 0.69795 0.17371 0.51181 0.0
C554 C 0.71997 0.19532 0.52533 0.0
C555 C 0.76198 0.23455 0.51667 0.0
C556 C 0.78175 0.25213 0.49449 0.0
C557 C 0.73952 0.21312 0.50329 0.0
C558 C 0.77848 0.24824 0.45865 0.0
C559 C 0.75616 0.22702 0.44516 0.0
H560 H 0.50032 0.77942 0.01157 0.0
H561 H 0.58332 0.81872 0.02617 0.0
H562 H 0.58496 0.78248 -0.00065 0.0
H563 H 0.5633 0.74007 0.97092 0.0
H564 H 0.48039 0.70005 0.95595 0.0
H565 H 0.47829 0.736 0.98385 0.0
C566 C 0.51875 0.78003 0.0089 0.0
C567 C 0.54166 0.80189 0.02084 0.0
C568 C 0.51962 0.75897 -0.0066 0.0
C569 C 0.56536 0.80225 0.01724 0.0
C570 C 0.56636 0.7815 0.00187 0.0
C571 C 0.54472 0.7391 0.97379 0.0
C572 C 0.52206 0.71737 0.96123 0.0
C573 C 0.54366 0.75982 -0.01025 0.0
C574 C 0.49816 0.71652 0.96536 0.0
C575 C 0.49695 0.73711 0.98127 0.0
H576 H 0.71971 0.51994 0.54705 0.0
H577 H 0.68891 0.51187 0.44413 0.0
H578 H 0.72501 0.50804 0.42094 0.0
H579 H 0.76598 0.50834 0.42955 0.0
H580 H 0.79701 0.51673 0.53237 0.0
H581 H 0.76005 0.5189 0.55586 0.0
C582 C 0.72082 0.51728 0.51954 0.0
C583 C 0.70163 0.51633 0.49738 0.0
C584 C 0.74169 0.51515 0.50632 0.0
C585 C 0.7034 0.51275 0.46182 0.0
C586 C 0.72406 0.51056 0.44851 0.0
C587 C 0.76463 0.51051 0.45714 0.0
C588 C 0.78436 0.51247 0.47912 0.0
C589 C 0.74341 0.51192 0.47048 0.0
C590 C 0.78219 0.51523 0.5148 0.0
C591 C 0.76105 0.51652 0.52828 0.0
H592 H 0.20842 0.81413 0.96598 0.0
H593 H 0.25499 0.77712 0.96158 0.0
H594 H 0.22085 0.73899 -0.00871 0.0
H595 H 0.1773 0.71583 0.01792 0.0
H596 H 0.13134 0.75356 0.0221 0.0
H597 H 0.16566 0.79157 -0.00687 0.0
C598 C 0.21119 0.79777 0.97155 0.0
C599 C 0.23425 0.79853 0.96146 0.0
C600 C 0.1915 0.77592 -0.01142 0.0
C601 C 0.23744 0.77711 0.96903 0.0
C602 C 0.2179 0.75525 0.98599 0.0
C603 C 0.17482 0.73236 0.01248 0.0
C604 C 0.15169 0.73172 0.02216 0.0
C605 C 0.19476 0.75437 -0.00423 0.0
C606 C 0.14887 0.75341 0.01498 0.0
C607 C 0.16852 0.77524 -0.00162 0.0
H608 H 0.43529 0.18355 0.51971 0.0
H609 H 0.3584 0.12849 0.48346 0.0
H610 H 0.35559 0.16333 0.45423 0.0
H611 H 0.37489 0.2093 0.43865 0.0
H612 H 0.45157 0.26466 0.47517 0.0
H613 H 0.45444 0.22983 0.50464 0.0
C614 C 0.41793 0.17916 0.50538 0.0
C615 C 0.39712 0.1534 0.50375 0.0
C616 C 0.41636 0.19935 0.4887 0.0
C617 C 0.37473 0.14811 0.48518 0.0
C618 C 0.37308 0.16804 0.46842 0.0
C619 C 0.39224 0.2138 0.45308 0.0
C620 C 0.41298 0.23957 0.45462 0.0
C621 C 0.39377 0.19371 0.46999 0.0
C622 C 0.43528 0.245 0.47355 0.0
C623 C 0.43697 0.22509 0.49038 0.0
H624 H 0.76636 0.50728 0.01388 0.0
H625 H 0.82466 0.58516 0.98465 0.0
H626 H 0.7925 0.59018 0.95208 0.0
H627 H 0.74768 0.57316 0.9331 0.0
H628 H 0.68898 0.4955 0.9623 0.0
H629 H 0.72141 0.48975 -0.00653 0.0
C630 C 0.77205 0.5253 0.00025 0.0
C631 C 0.79793 0.54582 0.00188 0.0
C632 C 0.75336 0.52817 0.98158 0.0
C633 C 0.80491 0.56903 0.98401 0.0
C634 C 0.78651 0.57196 0.96533 0.0
C635 C 0.74194 0.55493 0.94617 0.0
C636 C 0.71588 0.53486 0.9454 0.0
C637 C 0.76065 0.55176 0.96416 0.0
C638 C 0.70888 0.51133 0.96247 0.0
C639 C 0.72743 0.50801 0.98035 0.0
H640 H 0.15153 0.74949 0.46321 0.0
H641 H 0.17803 0.69404 0.47185 0.0
H642 H 0.21759 0.72679 0.50055 0.0
H643 H 0.24461 0.7713 0.5236 0.0
H644 H 0.21736 0.8262 0.51475 0.0
H645 H 0.17828 0.79355 0.48577 0.0
C646 C 0.16593 0.7445 0.47132 0.0
C647 C 0.16174 0.7193 0.46535 0.0
C648 C 0.18858 0.76338 0.48783 0.0
C649 C 0.18069 0.71327 0.4761 0.0
C650 C 0.20335 0.732 0.49253 0.0
C651 C 0.23014 0.77612 0.51528 0.0
C652 C 0.234 0.80122 0.52144 0.0
C653 C 0.2075 0.75714 0.49859 0.0
C654 C 0.21499 0.80708 0.51047 0.0
C655 C 0.19256 0.7884 0.49384 0.0
H656 H 0.44136 0.19233 0.92884 0.0
H657 H 0.43923 0.16008 0.02934 0.0
H658 H 0.43927 0.19715 0.05675 0.0
H659 H 0.4384 0.23805 0.05232 0.0
H660 H 0.44022 0.27013 0.9518 0.0
H661 H 0.44181 0.23389 0.92447 0.0
C662 C 0.44107 0.19346 0.95675 0.0
C663 C 0.44021 0.17332 0.97692 0.0
C664 C 0.4409 0.21479 0.97243 0.0
C665 C 0.43984 0.1752 0.01308 0.0
C666 C 0.43982 0.19642 0.02884 0.0
C667 C 0.43921 0.23718 0.02443 0.0
C668 C 0.43906 0.25681 0.00422 0.0
C669 C 0.44008 0.2162 0.00878 0.0
C670 C 0.44022 0.25532 0.96809 0.0
C671 C 0.44114 0.23457 0.95237 0.0
H672 H 0.17477 0.44623 0.55273 0.0
H673 H 0.1448 0.44677 0.45157 0.0
H674 H 0.18144 0.44569 0.42493 0.0
H675 H 0.22125 0.44313 0.43028 0.0
H676 H 0.25106 0.44244 0.53151 0.0
H677 H 0.21527 0.4451 0.55806 0.0
C678 C 0.17628 0.44622 0.52484 0.0
C679 C 0.15693 0.44646 0.50423 0.0
C680 C 0.19736 0.44549 0.50965 0.0
C681 C 0.15932 0.44653 0.46813 0.0
C682 C 0.18028 0.44588 0.45283 0.0
C683 C 0.21999 0.44365 0.45815 0.0
C684 C 0.23882 0.44246 0.47882 0.0
C685 C 0.19929 0.44512 0.47333 0.0
C686 C 0.23687 0.44326 0.51491 0.0
C687 C 0.21637 0.44476 0.53016 0.0
H688 H 0.76947 0.24076 0.93127 0.0
H689 H 0.77977 0.28159 0.02746 0.0
H690 H 0.74119 0.24398 0.05098 0.0
H691 H 0.70532 0.19894 0.04505 0.0
H692 H 0.69549 0.15787 0.94919 0.0
H693 H 0.73294 0.19615 0.92481 0.0
C694 C 0.76325 0.24152 0.95734 0.0
C695 C 0.77765 0.26403 0.97755 0.0
C696 C 0.74109 0.21972 0.97084 0.0
C697 C 0.76919 0.26456 0.01129 0.0
C698 C 0.74709 0.24303 0.0248 0.0
C699 C 0.71123 0.19838 0.01873 0.0
C700 C 0.69756 0.17545 -0.00094 0.0
C701 C 0.733 0.22043 0.00492 0.0
C702 C 0.70562 0.17517 0.96502 0.0
C703 C 0.72709 0.19707 0.95102 0.0
H704 H 0.50357 0.77607 0.45266 0.0
H705 H 0.58699 0.8235 0.45803 0.0
H706 H 0.58939 0.78873 0.488 0.0
H707 H 0.56803 0.74511 0.51323 0.0
H708 H 0.48466 0.69737 0.50832 0.0
H709 H 0.4821 0.73197 0.47765 0.0
C710 C 0.52228 0.77879 0.46033 0.0
C711 C 0.54505 0.80243 0.45307 0.0
C712 C 0.52357 0.75865 0.4777 0.0
C713 C 0.56912 0.80557 0.46324 0.0
C714 C 0.57055 0.78567 0.48043 0.0
C715 C 0.54927 0.7422 0.50545 0.0
C716 C 0.52659 0.71865 0.51315 0.0
C717 C 0.54792 0.76217 0.48787 0.0
C718 C 0.50246 0.71529 0.50278 0.0
C719 C 0.50096 0.73509 0.48523 0.0
H720 H 0.37616 0.42387 0.07341 0.0
H721 H 0.31185 0.36615 0.01417 0.0
H722 H 0.33262 0.33941 0.01112 0.0
H723 H 0.36727 0.33061 0.03084 0.0
H724 H 0.43104 0.38944 0.08997 0.0
H725 H 0.41228 0.41736 0.08776 0.0
C726 C 0.36667 0.40551 0.05978 0.0
C727 C 0.34229 0.3968 0.04467 0.0
C728 C 0.37856 0.39023 0.05846 0.0
C729 C 0.33065 0.37327 0.02611 0.0
C730 C 0.34244 0.3579 0.02456 0.0
C731 C 0.37719 0.34968 0.04282 0.0
C732 C 0.40022 0.35749 0.06152 0.0
C733 C 0.36614 0.36588 0.04144 0.0
C734 C 0.41291 0.38237 0.07659 0.0
C735 C 0.40226 0.39856 0.07507 0.0
H736 H 0.01446 0.38182 0.52204 0.0
H737 H 0.01661 0.43701 0.59643 0.0
H738 H 0.9697 0.41632 0.59511 0.0
H739 H 0.92794 0.38001 0.57764 0.0
H740 H 0.92437 0.32384 0.50408 0.0
H741 H -0.02818 0.34775 0.49943 0.0
C742 C 0.00465 0.38956 0.53746 0.0
C743 C 0.01908 0.41057 0.56002 0.0
C744 C -0.02264 0.37727 0.53684 0.0
C745 C 0.00609 0.42045 0.57969 0.0
C746 C -0.02084 0.40868 0.57881 0.0
C747 C 0.93745 0.37299 0.56054 0.0
C748 C 0.9227 0.34988 0.54189 0.0
C749 C 0.96458 0.38658 0.55841 0.0
C750 C 0.93535 0.34156 0.51887 0.0
C751 C 0.96248 0.35513 0.51637 0.0
H752 H 0.55028 0.94583 0.09771 0.0
H753 H 0.57591 0.94076 -0.0046 0.0
H754 H 0.59814 -0.01161 -0.00975 0.0
H755 H 0.61143 0.03184 0.01631 0.0
H756 H 0.58589 0.03457 0.11986 0.0
H757 H 0.56222 -0.01235 0.1226 0.0
C758 C 0.56036 0.95497 0.07398 0.0
C759 C 0.56121 0.93966 0.0469 0.0
C760 C 0.57316 0.98212 0.07139 0.0
C761 C 0.57487 0.95206 0.01665 0.0
C762 C 0.58761 0.97931 0.01374 0.0
C763 C 0.6005 0.02211 0.03931 0.0
C764 C 0.6002 0.03697 0.06759 0.0
C765 C 0.58708 -0.00537 0.04114 0.0
C766 C 0.58613 0.02395 0.09733 0.0
C767 C 0.57267 -0.00306 0.09913 0.0
H768 H 0.58619 0.55202 0.59634 0.0
H769 H 0.62221 0.58153 0.49748 0.0
H770 H 0.59714 0.60384 0.49083 0.0
H771 H 0.56639 0.6167 0.51505 0.0
H772 H 0.53146 0.58629 0.61444 0.0
H773 H 0.55432 0.56223 0.61846 0.0
C774 C 0.58835 0.5629 0.57299 0.0
C775 C 0.60603 0.56496 0.54743 0.0
C776 C 0.57399 0.57559 0.56942 0.0
C777 C 0.6087 0.57956 0.5176 0.0
C778 C 0.59439 0.59237 0.51381 0.0
C779 C 0.56359 0.60458 0.53736 0.0
C780 C 0.54704 0.6033 0.5643 0.0
C781 C 0.57718 0.59079 0.53983 0.0
C782 C 0.54376 0.58754 0.5931 0.0
C783 C 0.557 0.57382 0.5956 0.0
H784 H 0.9288 0.57199 0.01716 0.0
H785 H 0.92253 0.543 0.12095 0.0
H786 H 0.96932 0.5648 0.1256 0.0
H787 H 0.01188 0.59509 0.10278 0.0
H788 H 0.01975 0.62549 -0.00024 0.0
H789 H -0.02741 0.6003 -0.00766 0.0
C790 C 0.9377 0.57017 0.04059 0.0
C791 C 0.92199 0.55574 0.0686 0.0
C792 C 0.96496 0.58327 0.04344 0.0
C793 C 0.93391 0.55369 0.09881 0.0
C794 C 0.96081 0.56635 0.10165 0.0
C795 C 0.00347 0.59594 0.07843 0.0
C796 C 0.01942 0.61221 0.05193 0.0
C797 C -0.02352 0.5816 0.07446 0.0
C798 C 0.00795 0.61314 0.02066 0.0
C799 C -0.01905 0.59877 0.01643 0.0
H800 H 0.40525 0.02047 0.5934 0.0
H801 H 0.36978 0.02291 0.49758 0.0
H802 H 0.3484 0.97547 0.49308 0.0
H803 H 0.33715 0.93299 0.51899 0.0
H804 H 0.37278 0.9317 0.61538 0.0
H805 H 0.39697 0.97892 0.61663 0.0
C806 C 0.39321 0.01077 0.57121 0.0
C807 C 0.38909 0.02529 0.54597 0.0
C808 C 0.38087 -0.01643 0.56893 0.0
C809 C 0.37329 0.01223 0.51745 0.0
C810 C 0.36097 -0.01493 0.51491 0.0
C811 C 0.35045 0.94306 0.54001 0.0
C812 C 0.35306 0.9287 0.56704 0.0
C813 C 0.36421 0.97048 0.54089 0.0
C814 C 0.37041 0.94211 0.5941 0.0
C815 C 0.38421 0.96921 0.59499 0.0
H816 H 0.56968 0.62368 0.95102 0.0
H817 H 0.51596 0.57444 0.8728 0.0
H818 H 0.53718 0.54875 0.87009 0.0
H819 H 0.57296 0.54242 0.88588 0.0
H820 H 0.62716 0.59015 0.96446 0.0
H821 H 0.6038 0.61419 0.97124 0.0
C822 C 0.56243 0.60708 0.93379 0.0
C823 C 0.54152 0.60142 0.91154 0.0
C824 C 0.57497 0.59225 0.93221 0.0
C825 C 0.53234 0.5798 0.88948 0.0
C826 C 0.54444 0.56493 0.88802 0.0
C827 C 0.5796 0.55777 0.90485 0.0
C828 C 0.60191 0.56446 0.92442 0.0
C829 C 0.56614 0.57138 0.90856 0.0
C830 C 0.61002 0.58454 0.94898 0.0
C831 C 0.59671 0.59835 0.95279 0.0
H832 H 0.92749 0.5763 0.45848 0.0
H833 H 0.92445 0.51951 0.38616 0.0
H834 H 0.97135 0.54014 0.38674 0.0
H835 H 0.01331 0.5762 0.40371 0.0
H836 H 0.01797 0.63408 0.47508 0.0
H837 H 0.97049 0.61087 0.47974 0.0
C838 C 0.93712 0.56826 0.44328 0.0
C839 C 0.92237 0.54665 0.42168 0.0
C840 C 0.96444 0.5805 0.44347 0.0
C841 C 0.93516 0.53643 0.40225 0.0
C842 C 0.9621 0.54818 0.4027 0.0
C843 C 0.00407 0.58384 0.42024 0.0
C844 C 0.01917 0.60714 0.43837 0.0
C845 C -0.02307 0.57062 0.4224 0.0
C846 C 0.00676 0.6162 0.4607 0.0
C847 C -0.02039 0.60301 0.46321 0.0
H848 H 0.40075 0.02475 0.8701 0.0
H849 H 0.37925 0.03347 0.97344 0.0
H850 H 0.35542 -0.01401 0.98038 0.0
H851 H 0.33928 0.94173 0.95561 0.0
H852 H 0.36207 0.93505 0.85191 0.0
H853 H 0.38724 0.98197 0.84704 0.0
C854 C 0.39133 0.01647 0.89448 0.0
C855 C 0.39202 0.03278 0.92127 0.0
C856 C 0.37784 -0.01063 0.89823 0.0
C857 C 0.37913 0.02141 0.95237 0.0
C858 C 0.36547 -0.00576 0.95632 0.0
C859 C 0.34997 0.95058 0.93211 0.0
C860 C 0.34879 0.9347 0.90425 0.0
C861 C 0.36447 0.97797 0.92924 0.0
C862 C 0.36272 0.94656 0.87394 0.0
C863 C 0.37708 0.97352 0.87099 0.0
H864 H 0.35462 0.41007 0.37726 0.0
H865 H 0.31794 0.3807 0.47584 0.0
H866 H 0.34349 0.35905 0.48366 0.0
H867 H 0.37456 0.34646 0.46045 0.0
H868 H 0.41054 0.37679 0.36156 0.0
H869 H 0.38739 0.40056 0.35642 0.0
C870 C 0.35244 0.39939 0.40083 0.0
C871 C 0.33439 0.39713 0.42594 0.0
C872 C 0.36715 0.38713 0.4051 0.0
C873 C 0.3317 0.38279 0.45606 0.0
C874 C 0.3463 0.37038 0.46051 0.0
C875 C 0.37758 0.35856 0.43801 0.0
C876 C 0.39434 0.35976 0.41144 0.0
C877 C 0.36385 0.37212 0.43494 0.0
C878 C 0.39795 0.3755 0.38251 0.0
C879 C 0.38456 0.38905 0.37941 0.0
H880 H 0.01245 0.43083 0.92064 0.0
H881 H 0.01946 0.37274 0.97839 0.0
H882 H -0.02795 0.3462 0.98235 0.0
H883 H 0.92855 0.33737 0.96298 0.0
H884 H 0.92277 0.39648 0.90572 0.0
H885 H 0.96958 0.42465 0.90776 0.0
C886 C 0.00362 0.41241 0.93415 0.0
C887 C 0.01935 0.40346 0.9485 0.0
C888 C -0.0235 0.3973 0.93606 0.0
C889 C 0.00768 0.37997 0.96702 0.0
C890 C -0.01942 0.36474 0.96909 0.0
C891 C 0.93756 0.35662 0.95156 0.0
C892 C 0.92226 0.36446 0.93316 0.0
C893 C 0.96476 0.37286 0.95283 0.0
C894 C 0.93414 0.3895 0.91871 0.0
C895 C 0.96095 0.40577 0.92014 0.0
H896 H 0.53901 0.93992 0.37561 0.0
H897 H 0.5727 0.93373 0.47103 0.0
H898 H 0.59425 0.98097 0.47855 0.0
H899 H 0.60635 0.02442 0.45527 0.0
H900 H 0.57258 0.02948 0.35912 0.0
H901 H 0.54794 -0.01764 0.35509 0.0
C902 C 0.55068 0.94875 0.39838 0.0
C903 C 0.55427 0.93323 0.42261 0.0
C904 C 0.56312 0.97585 0.40239 0.0
C905 C 0.56962 0.94518 0.4519 0.0
C906 C 0.58202 0.97223 0.45617 0.0
C907 C 0.59331 0.0152 0.43372 0.0
C908 C 0.59145 0.03061 0.40752 0.0
C909 C 0.57934 -0.01216 0.43119 0.0
C910 C 0.57445 0.01827 0.37975 0.0
C911 C 0.56037 -0.00878 0.37728 0.0
H912 H 0.44968 0.58982 0.97856 0.0
H913 H 0.40983 0.54807 0.88661 0.0
H914 H 0.37503 0.51446 0.92158 0.0
H915 H 0.35888 0.49411 0.97847 0.0
H916 H 0.40138 0.53394 0.06994 0.0
H917 H 0.43189 0.57112 0.03531 0.0
C918 C 0.43305 0.57369 0.96622 0.0
C919 C 0.43231 0.57139 0.93013 0.0
C920 C 0.41368 0.55388 0.98651 0.0
C921 C 0.41085 0.55018 0.91443 0.0
C922 C 0.39099 0.53091 0.9344 0.0
C923 C 0.3745 0.5112 -0.00925 0.0
C924 C 0.37798 0.51134 0.02658 0.0
C925 C 0.39261 0.53211 0.9705 0.0
C926 C 0.39847 0.5334 0.04229 0.0
C927 C 0.41593 0.55464 0.02252 0.0
H928 H 0.83767 0.36066 0.48846 0.0
H929 H 0.84778 0.40615 0.58 0.0
H930 H 0.84326 0.4383 0.54601 0.0
H931 H 0.84266 0.4565 0.48921 0.0
H932 H 0.83731 0.41314 0.39727 0.0
H933 H 0.83333 0.37708 0.43221 0.0
C934 C 0.83823 0.37729 0.50102 0.0
C935 C 0.84313 0.38111 0.5366 0.0
C936 C 0.83673 0.39626 0.48109 0.0
C937 C 0.84417 0.40291 0.55255 0.0
C938 C 0.84166 0.42133 0.53313 0.0
C939 C 0.83994 0.43885 0.47697 0.0
C940 C 0.84029 0.43741 0.44083 0.0
C941 C 0.83884 0.41868 0.49721 0.0
C942 C 0.83718 0.41466 0.42512 0.0
C943 C 0.83499 0.39408 0.44507 0.0
H944 H 0.40457 0.85623 0.90961 0.0
H945 H 0.35449 0.85609 -0.00972 0.0
H946 H 0.38386 0.85578 0.03399 0.0
H947 H 0.42613 0.86049 0.04907 0.0
H948 H 0.47531 0.85849 0.96881 0.0
H949 H 0.4438 0.85436 0.92507 0.0
C950 C 0.39993 0.85573 0.93678 0.0
C951 C 0.37761 0.85654 0.94675 0.0
C952 C 0.4168 0.85533 0.96177 0.0
C953 C 0.37157 0.85548 0.98197 0.0
C954 C 0.38843 0.85547 0.00698 0.0
C955 C 0.4297 0.85873 0.02201 0.0
C956 C 0.45307 0.86012 0.01202 0.0
C957 C 0.41144 0.85614 -0.00285 0.0
C958 C 0.45741 0.85745 0.97703 0.0
C959 C 0.43949 0.85526 0.95204 0.0
H960 H 0.53035 0.40965 0.41786 0.0
H961 H 0.47682 0.36333 0.498 0.0
H962 H 0.50754 0.39131 0.54202 0.0
H963 H 0.54748 0.43174 0.5573 0.0
H964 H 0.60201 0.47698 0.47748 0.0
H965 H 0.57329 0.44637 0.43376 0.0
C966 C 0.52564 0.40549 0.44499 0.0
C967 C 0.50127 0.3847 0.45472 0.0
C968 C 0.54351 0.4215 0.47016 0.0
C969 C 0.49548 0.37923 0.48991 0.0
C970 C 0.51297 0.3953 0.51508 0.0
C971 C 0.55325 0.43461 0.53038 0.0
C972 C 0.57663 0.45672 0.52054 0.0
C973 C 0.53672 0.4169 0.50546 0.0
C974 C 0.5841 0.46007 0.48568 0.0
C975 C 0.5676 0.4427 0.46065 0.0
H976 H 0.10081 0.50602 0.00276 0.0
H977 H 0.08766 0.53626 0.90862 0.0
H978 H 0.09344 0.57481 0.9392 0.0
H979 H 0.09637 0.597 -0.00601 0.0
H980 H 0.1045 0.56428 0.08907 0.0
H981 H 0.10711 0.53007 0.0571 0.0
C982 C 0.09977 0.52134 -0.01108 0.0
C983 C 0.09369 0.51829 0.95361 0.0
C984 C 0.10211 0.54301 0.00696 0.0
C985 C 0.09209 0.53811 0.93593 0.0
C986 C 0.0954 0.56016 0.95338 0.0
C987 C 0.09948 0.5828 0.00752 0.0
C988 C 0.1004 0.58314 0.04368 0.0
C989 C 0.0996 0.56244 -0.01091 0.0
C990 C 0.10383 0.56434 0.06113 0.0
C991 C 0.10515 0.54471 0.0429 0.0
H992 H 0.52162 0.11045 0.55314 0.0
H993 H 0.47311 0.1145 0.47367 0.0
H994 H 0.5047 0.11924 0.42978 0.0
H995 H 0.54312 0.11626 0.41355 0.0
H996 H 0.59233 0.11354 0.49304 0.0
H997 H 0.56368 0.11467 0.53743 0.0
C998 C 0.51822 0.11285 0.52626 0.0
C999 C 0.49491 0.11172 0.51657 0.0
C1000 C 0.53648 0.1156 0.50118 0.0
C1001 C 0.49089 0.11527 0.48177 0.0
C1002 C 0.50886 0.1178 0.45663 0.0
C1003 C 0.5478 0.11641 0.44062 0.0
C1004 C 0.56955 0.11441 0.45005 0.0
C1005 C 0.53127 0.11708 0.46595 0.0
C1006 C 0.57567 0.11503 0.48515 0.0
C1007 C 0.55919 0.11549 0.51053 0.0
H1008 H 0.53167 0.4092 0.06138 0.0
H1009 H 0.4789 0.35757 0.98413 0.0
H1010 H 0.50737 0.38593 0.93845 0.0
H1011 H 0.54435 0.42825 0.92108 0.0
H1012 H 0.5981 0.47885 -0.00173 0.0
H1013 H 0.57232 0.44792 0.04351 0.0
C1014 C 0.52673 0.40394 0.03451 0.0
C1015 C 0.50315 0.3816 0.026 0.0
C1016 C 0.54319 0.42025 0.00849 0.0
C1017 C 0.497 0.37469 -0.00879 0.0
C1018 C 0.51315 0.391 0.96512 0.0
C1019 C 0.55058 0.43223 0.94778 0.0
C1020 C 0.57278 0.45587 0.95654 0.0
C1021 C 0.53583 0.41426 0.97353 0.0
C1022 C 0.58101 0.46075 -0.00897 0.0
C1023 C 0.56622 0.44316 0.01688 0.0
H1024 H 0.10267 0.59376 0.49666 0.0
H1025 H 0.09126 0.54655 0.4065 0.0
H1026 H 0.09679 0.51533 0.44119 0.0
H1027 H 0.0989 0.49853 0.49823 0.0
H1028 H 0.10522 0.54324 0.58913 0.0
H1029 H 0.10819 0.57853 0.5533 0.0
C1030 C 0.10197 0.57692 0.48456 0.0
C1031 C 0.09645 0.57235 0.44918 0.0
C1032 C 0.10412 0.5585 0.50492 0.0
C1033 C 0.09528 0.55032 0.43381 0.0
C1034 C 0.09843 0.53247 0.45361 0.0
C1035 C 0.10168 0.51633 0.51005 0.0
C1036 C 0.10194 0.51842 0.54615 0.0
C1037 C 0.10202 0.53592 0.48936 0.0
C1038 C 0.105 0.5413 0.56132 0.0
C1039 C 0.10655 0.56139 0.54086 0.0
H1040 H 0.58031 0.11036 0.98664 0.0
H1041 H 0.5407 0.11441 0.07755 0.0
H1042 H 0.50847 0.1173 0.04178 0.0
H1043 H 0.48865 0.11337 0.98489 0.0
H1044 H 0.52566 0.10448 0.89437 0.0
H1045 H 0.56183 0.10908 0.92939 0.0
C1046 C 0.56491 0.11243 -0.00153 0.0
C1047 C 0.56278 0.11216 0.03453 0.0
C1048 C 0.54581 0.11296 0.97775 0.0
C1049 C 0.54257 0.11446 0.04973 0.0
C1050 C 0.52413 0.11607 0.02933 0.0
C1051 C 0.50493 0.113 0.97284 0.0
C1052 C 0.50455 0.10857 0.93723 0.0
C1053 C 0.52511 0.11456 -0.00667 0.0
C1054 C 0.52553 0.10774 0.92186 0.0
C1055 C 0.54618 0.11033 0.94185 0.0
H1056 H 0.41052 0.55032 0.5547 0.0
H1057 H 0.46409 0.59715 0.47494 0.0
H1058 H 0.43311 0.56976 0.43065 0.0
H1059 H 0.39288 0.52962 0.41506 0.0
H1060 H 0.33839 0.48405 0.49475 0.0
H1061 H 0.3674 0.5141 0.53867 0.0
C1062 C 0.4152 0.55469 0.52759 0.0
C1063 C 0.43962 0.57541 0.51797 0.0
C1064 C 0.39718 0.53908 0.50235 0.0
C1065 C 0.44539 0.58124 0.48287 0.0
C1066 C 0.42775 0.56553 0.45758 0.0
C1067 C 0.38718 0.52659 0.442 0.0
C1068 C 0.36372 0.50453 0.45175 0.0
C1069 C 0.40389 0.54399 0.46706 0.0
C1070 C 0.35634 0.50093 0.48664 0.0
C1071 C 0.37302 0.51798 0.51178 0.0
H1072 H 0.837 0.37052 -0.00944 0.0
H1073 H 0.84393 0.41553 0.89987 0.0
H1074 H 0.83872 0.44686 0.93492 0.0
H1075 H 0.83869 0.46476 -0.00792 0.0
H1076 H 0.83626 0.42199 0.08317 0.0
H1077 H 0.83283 0.38643 0.04748 0.0
C1078 C 0.83669 0.38684 0.97846 0.0
C1079 C 0.84095 0.39083 0.94281 0.0
C1080 C 0.83481 0.40539 -0.00103 0.0
C1081 C 0.84085 0.4122 0.92739 0.0
C1082 C 0.83794 0.43015 0.94741 0.0
C1083 C 0.83676 0.44736 0.00405 0.0
C1084 C 0.83787 0.44603 0.04012 0.0
C1085 C 0.83588 0.42747 0.98336 0.0
C1086 C 0.83565 0.42352 0.05538 0.0
C1087 C 0.83375 0.40321 0.035 0.0
H1088 H 0.42206 0.85122 0.414 0.0
H1089 H 0.47009 0.84292 0.49034 0.0
H1090 H 0.4396 0.83852 0.53564 0.0
H1091 H 0.40255 0.8431 0.55428 0.0
H1092 H 0.35357 0.84981 0.47807 0.0
H1093 H 0.38094 0.84841 0.43187 0.0
C1094 C 0.42556 0.84794 0.44048 0.0
C1095 C 0.44847 0.84779 0.44891 0.0
C1096 C 0.40791 0.84537 0.4664 0.0
C1097 C 0.45261 0.84314 0.4832 0.0
C1098 C 0.43528 0.8408 0.50916 0.0
C1099 C 0.39762 0.84372 0.5275 0.0
C1100 C 0.37635 0.8469 0.51949 0.0
C1101 C 0.41336 0.84281 0.50119 0.0
C1102 C 0.36986 0.84734 0.48479 0.0
C1103 C 0.38562 0.84673 0.45841 0.0
loop_
_geom_bond_atom_site_label_1
_geom_bond_atom_site_label_2
_geom_bond_distance
_geom_bond_site_symmetry_2
_ccdc_geom_bond_type
Mg0 O1 2.028 . S
Mg0 O7 1.986 . S
Mg0 O9 2.114 . S
Mg0 O10 2.251 . S
Mg0 O13 2.010 . S
O1 Mg0 2.028 . S
O1 C4 1.250 . S
O2 Mg3 2.028 . S
O2 C4 1.248 . S
Mg3 O2 2.028 . S
Mg3 O8 2.032 . S
Mg3 O10 2.079 . S
C4 O1 1.250 . S
C4 O2 1.248 . S
C5 O6 1.264 . S
C5 O13 1.249 . S
O6 C5 1.264 . S
O7 Mg0 1.986 . S
O7 C11 1.246 . S
O8 Mg3 2.032 . S
O8 C11 1.259 . S
O9 Mg0 2.114 . S
O9 C12 1.252 . S
O10 Mg0 2.251 . S
O10 Mg3 2.079 . S
O10 C12 1.273 . S
C11 O7 1.246 . S
C11 O8 1.259 . S
C12 O9 1.252 . S
C12 O10 1.273 . S
O13 Mg0 2.010 . S
O13 C5 1.249 . S
Mg14 O15 2.028 . S
Mg14 O21 1.986 . S
Mg14 O23 2.114 . S
Mg14 O24 2.251 . S
Mg14 O27 2.010 . S
O15 Mg14 2.028 . S
O15 C18 1.250 . S
O16 Mg17 2.028 . S
O16 C18 1.248 . S
Mg17 O16 2.028 . S
Mg17 O22 2.032 . S
Mg17 O24 2.079 . S
C18 O15 1.250 . S
C18 O16 1.248 . S
C19 O20 1.264 . S
C19 O27 1.249 . S
O20 C19 1.264 . S
O21 Mg14 1.986 . S
O21 C25 1.246 . S
O22 Mg17 2.032 . S
O22 C25 1.259 . S
O23 Mg14 2.114 . S
O23 C26 1.252 . S
O24 Mg14 2.251 . S
O24 Mg17 2.079 . S
O24 C26 1.273 . S
C25 O21 1.246 . S
C25 O22 1.259 . S
C26 O23 1.252 . S
C26 O24 1.273 . S
O27 Mg14 2.010 . S
O27 C19 1.249 . S
Mg28 O29 2.028 . S
Mg28 O35 1.986 . S
Mg28 O37 2.114 . S
Mg28 O38 2.251 . S
Mg28 O41 2.010 . S
O29 Mg28 2.028 . S
O29 C32 1.250 . S
O30 Mg31 2.028 . S
O30 C32 1.248 . S
Mg31 O30 2.028 . S
Mg31 O36 2.032 . S
Mg31 O38 2.079 . S
C32 O29 1.250 . S
C32 O30 1.248 . S
C33 O34 1.264 . S
C33 O41 1.249 . S
O34 C33 1.264 . S
O35 Mg28 1.986 . S
O35 C39 1.246 . S
O36 Mg31 2.032 . S
O36 C39 1.259 . S
O37 Mg28 2.114 . S
O37 C40 1.252 . S
O38 Mg28 2.251 . S
O38 Mg31 2.079 . S
O38 C40 1.273 . S
C39 O35 1.246 . S
C39 O36 1.259 . S
C40 O37 1.252 . S
C40 O38 1.273 . S
O41 Mg28 2.010 . S
O41 C33 1.249 . S
Mg42 O43 2.028 . S
Mg42 O49 1.986 . S
Mg42 O51 2.114 . S
Mg42 O52 2.251 . S
Mg42 O55 2.010 . S
O43 Mg42 2.028 . S
O43 C46 1.250 . S
O44 Mg45 2.028 . S
O44 C46 1.248 . S
Mg45 O44 2.028 . S
Mg45 O50 2.032 . S
Mg45 O52 2.079 . S
C46 O43 1.250 . S
C46 O44 1.248 . S
C47 O48 1.264 . S
C47 O55 1.249 . S
O48 C47 1.264 . S
O49 Mg42 1.986 . S
O49 C53 1.246 . S
O50 Mg45 2.032 . S
O50 C53 1.259 . S
O51 Mg42 2.114 . S
O51 C54 1.252 . S
O52 Mg42 2.251 . S
O52 Mg45 2.079 . S
O52 C54 1.273 . S
C53 O49 1.246 . S
C53 O50 1.259 . S
C54 O51 1.252 . S
C54 O52 1.273 . S
O55 Mg42 2.010 . S
O55 C47 1.249 . S
Mg56 O57 2.028 . S
Mg56 O63 1.986 . S
Mg56 O65 2.114 . S
Mg56 O66 2.251 . S
Mg56 O69 2.010 . S
O57 Mg56 2.028 . S
O57 C60 1.250 . S
O58 Mg59 2.028 . S
O58 C60 1.248 . S
Mg59 O58 2.028 . S
Mg59 O64 2.032 . S
Mg59 O66 2.079 . S
C60 O57 1.250 . S
C60 O58 1.248 . S
C61 O62 1.264 . S
C61 O69 1.249 . S
O62 C61 1.264 . S
O63 Mg56 1.986 . S
O63 C67 1.246 . S
O64 Mg59 2.032 . S
O64 C67 1.259 . S
O65 Mg56 2.114 . S
O65 C68 1.252 . S
O66 Mg56 2.251 . S
O66 Mg59 2.079 . S
O66 C68 1.273 . S
C67 O63 1.246 . S
C67 O64 1.259 . S
C68 O65 1.252 . S
C68 O66 1.273 . S
O69 Mg56 2.010 . S
O69 C61 1.249 . S
Mg70 O71 2.028 . S
Mg70 O77 1.986 . S
Mg70 O79 2.114 . S
Mg70 O80 2.251 . S
Mg70 O83 2.010 . S
O71 Mg70 2.028 . S
O71 C74 1.250 . S
O72 Mg73 2.028 . S
O72 C74 1.248 . S
Mg73 O72 2.028 . S
Mg73 O78 2.032 . S
Mg73 O80 2.079 . S
C74 O71 1.250 . S
C74 O72 1.248 . S
C75 O76 1.264 . S
C75 O83 1.249 . S
O76 C75 1.264 . S
O77 Mg70 1.986 . S
O77 C81 1.246 . S
O78 Mg73 2.032 . S
O78 C81 1.259 . S
O79 Mg70 2.114 . S
O79 C82 1.252 . S
O80 Mg70 2.251 . S
O80 Mg73 2.079 . S
O80 C82 1.273 . S
C81 O77 1.246 . S
C81 O78 1.259 . S
C82 O79 1.252 . S
C82 O80 1.273 . S
O83 Mg70 2.010 . S
O83 C75 1.249 . S
Mg84 O85 2.028 . S
Mg84 O91 1.986 . S
Mg84 O93 2.114 . S
Mg84 O94 2.251 . S
Mg84 O97 2.010 . S
O85 Mg84 2.028 . S
O85 C88 1.250 . S
O86 Mg87 2.028 . S
O86 C88 1.248 . S
Mg87 O86 2.028 . S
Mg87 O92 2.032 . S
Mg87 O94 2.079 . S
C88 O85 1.250 . S
C88 O86 1.248 . S
C89 O90 1.264 . S
C89 O97 1.249 . S
O90 C89 1.264 . S
O91 Mg84 1.986 . S
O91 C95 1.246 . S
O92 Mg87 2.032 . S
O92 C95 1.259 . S
O93 Mg84 2.114 . S
O93 C96 1.252 . S
O94 Mg84 2.251 . S
O94 Mg87 2.079 . S
O94 C96 1.273 . S
C95 O91 1.246 . S
C95 O92 1.259 . S
C96 O93 1.252 . S
C96 O94 1.273 . S
O97 Mg84 2.010 . S
O97 C89 1.249 . S
Mg98 O99 2.028 . S
Mg98 O105 1.986 . S
Mg98 O107 2.114 . S
Mg98 O108 2.251 . S
Mg98 O111 2.010 . S
O99 Mg98 2.028 . S
O99 C102 1.250 . S
O100 Mg101 2.028 . S
O100 C102 1.248 . S
Mg101 O100 2.028 . S
Mg101 O106 2.032 . S
Mg101 O108 2.079 . S
C102 O99 1.250 . S
C102 O100 1.248 . S
C103 O104 1.264 . S
C103 O111 1.249 . S
O104 C103 1.264 . S
O105 Mg98 1.986 . S
O105 C109 1.246 . S
O106 Mg101 2.032 . S
O106 C109 1.259 . S
O107 Mg98 2.114 . S
O107 C110 1.252 . S
O108 Mg98 2.251 . S
O108 Mg101 2.079 . S
O108 C110 1.273 . S
C109 O105 1.246 . S
C109 O106 1.259 . S
C110 O107 1.252 . S
C110 O108 1.273 . S
O111 Mg98 2.010 . S
O111 C103 1.249 . S
Mg112 O113 2.028 . S
Mg112 O119 1.986 . S
Mg112 O121 2.114 . S
Mg112 O122 2.251 . S
Mg112 O125 2.010 . S
O113 Mg112 2.028 . S
O113 C116 1.250 . S
O114 Mg115 2.028 . S
O114 C116 1.248 . S
Mg115 O114 2.028 . S
Mg115 O120 2.032 . S
Mg115 O122 2.079 . S
C116 O113 1.250 . S
C116 O114 1.248 . S
C117 O118 1.264 . S
C117 O125 1.249 . S
O118 C117 1.264 . S
O119 Mg112 1.986 . S
O119 C123 1.246 . S
O120 Mg115 2.032 . S
O120 C123 1.259 . S
O121 Mg112 2.114 . S
O121 C124 1.252 . S
O122 Mg112 2.251 . S
O122 Mg115 2.079 . S
O122 C124 1.273 . S
C123 O119 1.246 . S
C123 O120 1.259 . S
C124 O121 1.252 . S
C124 O122 1.273 . S
O125 Mg112 2.010 . S
O125 C117 1.249 . S
Mg126 O127 2.028 . S
Mg126 O133 1.986 . S
Mg126 O135 2.114 . S
Mg126 O136 2.251 . S
Mg126 O139 2.010 . S
O127 Mg126 2.028 . S
O127 C130 1.250 . S
O128 Mg129 2.028 . S
O128 C130 1.248 . S
Mg129 O128 2.028 . S
Mg129 O134 2.032 . S
Mg129 O136 2.079 . S
C130 O127 1.250 . S
C130 O128 1.248 . S
C131 O132 1.264 . S
C131 O139 1.249 . S
O132 C131 1.264 . S
O133 Mg126 1.986 . S
O133 C137 1.246 . S
O134 Mg129 2.032 . S
O134 C137 1.259 . S
O135 Mg126 2.114 . S
O135 C138 1.252 . S
O136 Mg126 2.251 . S
O136 Mg129 2.079 . S
O136 C138 1.273 . S
C137 O133 1.246 . S
C137 O134 1.259 . S
C138 O135 1.252 . S
C138 O136 1.273 . S
O139 Mg126 2.010 . S
O139 C131 1.249 . S
Mg140 O141 2.028 . S
Mg140 O147 1.986 . S
Mg140 O149 2.114 . S
Mg140 O150 2.251 . S
Mg140 O153 2.010 . S
O141 Mg140 2.028 . S
O141 C144 1.250 . S
O142 Mg143 2.028 . S
O142 C144 1.248 . S
Mg143 O142 2.028 . S
Mg143 O148 2.032 . S
Mg143 O150 2.079 . S
C144 O141 1.250 . S
C144 O142 1.248 . S
C145 O146 1.264 . S
C145 O153 1.249 . S
O146 C145 1.264 . S
O147 Mg140 1.986 . S
O147 C151 1.246 . S
O148 Mg143 2.032 . S
O148 C151 1.259 . S
O149 Mg140 2.114 . S
O149 C152 1.252 . S
O150 Mg140 2.251 . S
O150 Mg143 2.079 . S
O150 C152 1.273 . S
C151 O147 1.246 . S
C151 O148 1.259 . S
C152 O149 1.252 . S
C152 O150 1.273 . S
O153 Mg140 2.010 . S
O153 C145 1.249 . S
Mg154 O155 2.028 . S
Mg154 O161 1.986 . S
Mg154 O163 2.114 . S
Mg154 O164 2.251 . S
Mg154 O167 2.010 . S
O155 Mg154 2.028 . S
O155 C158 1.250 . S
O156 Mg157 2.028 . S
O156 C158 1.248 . S
Mg157 O156 2.028 . S
Mg157 O162 2.032 . S
Mg157 O164 2.079 . S
C158 O155 1.250 . S
C158 O156 1.248 . S
C159 O160 1.264 . S
C159 O167 1.249 . S
O160 C159 1.264 . S
O161 Mg154 1.986 . S
O161 C165 1.246 . S
O162 Mg157 2.032 . S
O162 C165 1.259 . S
O163 Mg154 2.114 . S
O163 C166 1.252 . S
O164 Mg154 2.251 . S
O164 Mg157 2.079 . S
O164 C166 1.273 . S
C165 O161 1.246 . S
C165 O162 1.259 . S
C166 O163 1.252 . S
C166 O164 1.273 . S
O167 Mg154 2.010 . S
O167 C159 1.249 . S
Mg168 O169 2.028 . S
Mg168 O175 1.986 . S
Mg168 O177 2.114 . S
Mg168 O178 2.251 . S
Mg168 O181 2.010 . S
O169 Mg168 2.028 . S
O169 C172 1.250 . S
O170 Mg171 2.028 . S
O170 C172 1.248 . S
Mg171 O170 2.028 . S
Mg171 O176 2.032 . S
Mg171 O178 2.079 . S
C172 O169 1.250 . S
C172 O170 1.248 . S
C173 O174 1.264 . S
C173 O181 1.249 . S
O174 C173 1.264 . S
O175 Mg168 1.986 . S
O175 C179 1.246 . S
O176 Mg171 2.032 . S
O176 C179 1.259 . S
O177 Mg168 2.114 . S
O177 C180 1.252 . S
O178 Mg168 2.251 . S
O178 Mg171 2.079 . S
O178 C180 1.273 . S
C179 O175 1.246 . S
C179 O176 1.259 . S
C180 O177 1.252 . S
C180 O178 1.273 . S
O181 Mg168 2.010 . S
O181 C173 1.249 . S
Mg182 O183 2.028 . S
Mg182 O189 1.986 . S
Mg182 O191 2.114 . S
Mg182 O192 2.251 . S
Mg182 O195 2.010 . S
O183 Mg182 2.028 . S
O183 C186 1.250 . S
O184 Mg185 2.028 . S
O184 C186 1.248 . S
Mg185 O184 2.028 . S
Mg185 O190 2.032 . S
Mg185 O192 2.079 . S
C186 O183 1.250 . S
C186 O184 1.248 . S
C187 O188 1.264 . S
C187 O195 1.249 . S
O188 C187 1.264 . S
O189 Mg182 1.986 . S
O189 C193 1.246 . S
O190 Mg185 2.032 . S
O190 C193 1.259 . S
O191 Mg182 2.114 . S
O191 C194 1.252 . S
O192 Mg182 2.251 . S
O192 Mg185 2.079 . S
O192 C194 1.273 . S
C193 O189 1.246 . S
C193 O190 1.259 . S
C194 O191 1.252 . S
C194 O192 1.273 . S
O195 Mg182 2.010 . S
O195 C187 1.249 . S
Mg196 O197 2.028 . S
Mg196 O203 1.986 . S
Mg196 O205 2.114 . S
Mg196 O206 2.251 . S
Mg196 O209 2.010 . S
O197 Mg196 2.028 . S
O197 C200 1.250 . S
O198 Mg199 2.028 . S
O198 C200 1.248 . S
Mg199 O198 2.028 . S
Mg199 O204 2.032 . S
Mg199 O206 2.079 . S
C200 O197 1.250 . S
C200 O198 1.248 . S
C201 O202 1.264 . S
C201 O209 1.249 . S
O202 C201 1.264 . S
O203 Mg196 1.986 . S
O203 C207 1.246 . S
O204 Mg199 2.032 . S
O204 C207 1.259 . S
O205 Mg196 2.114 . S
O205 C208 1.252 . S
O206 Mg196 2.251 . S
O206 Mg199 2.079 . S
O206 C208 1.273 . S
C207 O203 1.246 . S
C207 O204 1.259 . S
C208 O205 1.252 . S
C208 O206 1.273 . S
O209 Mg196 2.010 . S
O209 C201 1.249 . S
Mg210 O211 2.028 . S
Mg210 O217 1.986 . S
Mg210 O219 2.114 . S
Mg210 O220 2.251 . S
Mg210 O223 2.010 . S
O211 Mg210 2.028 . S
O211 C214 1.250 . S
O212 Mg213 2.028 . S
O212 C214 1.248 . S
Mg213 O212 2.028 . S
Mg213 O218 2.032 . S
Mg213 O220 2.079 . S
C214 O211 1.250 . S
C214 O212 1.248 . S
C215 O216 1.264 . S
C215 O223 1.249 . S
O216 C215 1.264 . S
O217 Mg210 1.986 . S
O217 C221 1.246 . S
O218 Mg213 2.032 . S
O218 C221 1.259 . S
O219 Mg210 2.114 . S
O219 C222 1.252 . S
O220 Mg210 2.251 . S
O220 Mg213 2.079 . S
O220 C222 1.273 . S
C221 O217 1.246 . S
C221 O218 1.259 . S
C222 O219 1.252 . S
C222 O220 1.273 . S
O223 Mg210 2.010 . S
O223 C215 1.249 . S
Mg224 O225 2.028 . S
Mg224 O231 1.986 . S
Mg224 O233 2.114 . S
Mg224 O234 2.251 . S
Mg224 O237 2.010 . S
O225 Mg224 2.028 . S
O225 C228 1.250 . S
O226 Mg227 2.028 . S
O226 C228 1.248 . S
Mg227 O226 2.028 . S
Mg227 O232 2.032 . S
Mg227 O234 2.079 . S
C228 O225 1.250 . S
C228 O226 1.248 . S
C229 O230 1.264 . S
C229 O237 1.249 . S
O230 C229 1.264 . S
O231 Mg224 1.986 . S
O231 C235 1.246 . S
O232 Mg227 2.032 . S
O232 C235 1.259 . S
O233 Mg224 2.114 . S
O233 C236 1.252 . S
O234 Mg224 2.251 . S
O234 Mg227 2.079 . S
O234 C236 1.273 . S
C235 O231 1.246 . S
C235 O232 1.259 . S
C236 O233 1.252 . S
C236 O234 1.273 . S
O237 Mg224 2.010 . S
O237 C229 1.249 . S
Mg238 O239 2.028 . S
Mg238 O245 1.986 . S
Mg238 O247 2.114 . S
Mg238 O248 2.251 . S
Mg238 O251 2.010 . S
O239 Mg238 2.028 . S
O239 C242 1.250 . S
O240 Mg241 2.028 . S
O240 C242 1.248 . S
Mg241 O240 2.028 . S
Mg241 O246 2.032 . S
Mg241 O248 2.079 . S
C242 O239 1.250 . S
C242 O240 1.248 . S
C243 O244 1.264 . S
C243 O251 1.249 . S
O244 C243 1.264 . S
O245 Mg238 1.986 . S
O245 C249 1.246 . S
O246 Mg241 2.032 . S
O246 C249 1.259 . S
O247 Mg238 2.114 . S
O247 C250 1.252 . S
O248 Mg238 2.251 . S
O248 Mg241 2.079 . S
O248 C250 1.273 . S
C249 O245 1.246 . S
C249 O246 1.259 . S
C250 O247 1.252 . S
C250 O248 1.273 . S
O251 Mg238 2.010 . S
O251 C243 1.249 . S
Mg252 O253 2.028 . S
Mg252 O259 1.986 . S
Mg252 O261 2.114 . S
Mg252 O262 2.251 . S
Mg252 O265 2.010 . S
O253 Mg252 2.028 . S
O253 C256 1.250 . S
O254 Mg255 2.028 . S
O254 C256 1.248 . S
Mg255 O254 2.028 . S
Mg255 O260 2.032 . S
Mg255 O262 2.079 . S
C256 O253 1.250 . S
C256 O254 1.248 . S
C257 O258 1.264 . S
C257 O265 1.249 . S
O258 C257 1.264 . S
O259 Mg252 1.986 . S
O259 C263 1.246 . S
O260 Mg255 2.032 . S
O260 C263 1.259 . S
O261 Mg252 2.114 . S
O261 C264 1.252 . S
O262 Mg252 2.251 . S
O262 Mg255 2.079 . S
O262 C264 1.273 . S
C263 O259 1.246 . S
C263 O260 1.259 . S
C264 O261 1.252 . S
C264 O262 1.273 . S
O265 Mg252 2.010 . S
O265 C257 1.249 . S
Mg266 O267 2.028 . S
Mg266 O273 1.986 . S
Mg266 O275 2.114 . S
Mg266 O276 2.251 . S
Mg266 O279 2.010 . S
O267 Mg266 2.028 . S
O267 C270 1.250 . S
O268 Mg269 2.028 . S
O268 C270 1.248 . S
Mg269 O268 2.028 . S
Mg269 O274 2.032 . S
Mg269 O276 2.079 . S
C270 O267 1.250 . S
C270 O268 1.248 . S
C271 O272 1.264 . S
C271 O279 1.249 . S
O272 C271 1.264 . S
O273 Mg266 1.986 . S
O273 C277 1.246 . S
O274 Mg269 2.032 . S
O274 C277 1.259 . S
O275 Mg266 2.114 . S
O275 C278 1.252 . S
O276 Mg266 2.251 . S
O276 Mg269 2.079 . S
O276 C278 1.273 . S
C277 O273 1.246 . S
C277 O274 1.259 . S
C278 O275 1.252 . S
C278 O276 1.273 . S
O279 Mg266 2.010 . S
O279 C271 1.249 . S
Mg280 O281 2.028 . S
Mg280 O287 1.986 . S
Mg280 O289 2.114 . S
Mg280 O290 2.251 . S
Mg280 O293 2.010 . S
O281 Mg280 2.028 . S
O281 C284 1.250 . S
O282 Mg283 2.028 . S
O282 C284 1.248 . S
Mg283 O282 2.028 . S
Mg283 O288 2.032 . S
Mg283 O290 2.079 . S
C284 O281 1.250 . S
C284 O282 1.248 . S
C285 O286 1.264 . S
C285 O293 1.249 . S
O286 C285 1.264 . S
O287 Mg280 1.986 . S
O287 C291 1.246 . S
O288 Mg283 2.032 . S
O288 C291 1.259 . S
O289 Mg280 2.114 . S
O289 C292 1.252 . S
O290 Mg280 2.251 . S
O290 Mg283 2.079 . S
O290 C292 1.273 . S
C291 O287 1.246 . S
C291 O288 1.259 . S
C292 O289 1.252 . S
C292 O290 1.273 . S
O293 Mg280 2.010 . S
O293 C285 1.249 . S
Mg294 O295 2.028 . S
Mg294 O301 1.986 . S
Mg294 O303 2.114 . S
Mg294 O304 2.251 . S
Mg294 O307 2.010 . S
O295 Mg294 2.028 . S
O295 C298 1.250 . S
O296 Mg297 2.028 . S
O296 C298 1.248 . S
Mg297 O296 2.028 . S
Mg297 O302 2.032 . S
Mg297 O304 2.079 . S
C298 O295 1.250 . S
C298 O296 1.248 . S
C299 O300 1.264 . S
C299 O307 1.249 . S
O300 C299 1.264 . S
O301 Mg294 1.986 . S
O301 C305 1.246 . S
O302 Mg297 2.032 . S
O302 C305 1.259 . S
O303 Mg294 2.114 . S
O303 C306 1.252 . S
O304 Mg294 2.251 . S
O304 Mg297 2.079 . S
O304 C306 1.273 . S
C305 O301 1.246 . S
C305 O302 1.259 . S
C306 O303 1.252 . S
C306 O304 1.273 . S
O307 Mg294 2.010 . S
O307 C299 1.249 . S
Mg308 O309 2.028 . S
Mg308 O315 1.986 . S
Mg308 O317 2.114 . S
Mg308 O318 2.251 . S
Mg308 O321 2.010 . S
O309 Mg308 2.028 . S
O309 C312 1.250 . S
O310 Mg311 2.028 . S
O310 C312 1.248 . S
Mg311 O310 2.028 . S
Mg311 O316 2.032 . S
Mg311 O318 2.079 . S
C312 O309 1.250 . S
C312 O310 1.248 . S
C313 O314 1.264 . S
C313 O321 1.249 . S
O314 C313 1.264 . S
O315 Mg308 1.986 . S
O315 C319 1.246 . S
O316 Mg311 2.032 . S
O316 C319 1.259 . S
O317 Mg308 2.114 . S
O317 C320 1.252 . S
O318 Mg308 2.251 . S
O318 Mg311 2.079 . S
O318 C320 1.273 . S
C319 O315 1.246 . S
C319 O316 1.259 . S
C320 O317 1.252 . S
C320 O318 1.273 . S
O321 Mg308 2.010 . S
O321 C313 1.249 . S
Mg322 O323 2.028 . S
Mg322 O329 1.986 . S
Mg322 O331 2.114 . S
Mg322 O332 2.251 . S
Mg322 O335 2.010 . S
O323 Mg322 2.028 . S
O323 C326 1.250 . S
O324 Mg325 2.028 . S
O324 C326 1.248 . S
Mg325 O324 2.028 . S
Mg325 O330 2.032 . S
Mg325 O332 2.079 . S
C326 O323 1.250 . S
C326 O324 1.248 . S
C327 O328 1.264 . S
C327 O335 1.249 . S
O328 C327 1.264 . S
O329 Mg322 1.986 . S
O329 C333 1.246 . S
O330 Mg325 2.032 . S
O330 C333 1.259 . S
O331 Mg322 2.114 . S
O331 C334 1.252 . S
O332 Mg322 2.251 . S
O332 Mg325 2.079 . S
O332 C334 1.273 . S
C333 O329 1.246 . S
C333 O330 1.259 . S
C334 O331 1.252 . S
C334 O332 1.273 . S
O335 Mg322 2.010 . S
O335 C327 1.249 . S
H336 C342 0.930 . S
H337 C345 0.930 . S
H338 C346 0.930 . S
H339 C347 0.930 . S
H340 C350 0.930 . S
H341 C351 0.930 . S
C342 H336 0.930 . S
C342 C343 1.355 . S
C342 C344 1.415 . S
C343 C342 1.355 . S
C343 C345 1.419 . S
C344 C342 1.415 . S
C344 C349 1.425 . S
C344 C351 1.409 . S
C345 H337 0.930 . S
C345 C343 1.419 . S
C345 C346 1.362 . S
C346 H338 0.930 . S
C346 C345 1.362 . S
C346 C349 1.409 . S
C347 H339 0.930 . S
C347 C348 1.355 . S
C347 C349 1.415 . S
C348 C347 1.355 . S
C348 C350 1.419 . S
C349 C344 1.425 . S
C349 C346 1.409 . S
C349 C347 1.415 . S
C350 H340 0.930 . S
C350 C348 1.419 . S
C350 C351 1.362 . S
C351 H341 0.930 . S
C351 C344 1.409 . S
C351 C350 1.362 . S
H352 C358 0.930 . S
H353 C361 0.930 . S
H354 C362 0.930 . S
H355 C363 0.930 . S
H356 C366 0.930 . S
H357 C367 0.930 . S
C358 H352 0.930 . S
C358 C359 1.355 . S
C358 C360 1.415 . S
C359 C358 1.355 . S
C359 C361 1.419 . S
C360 C358 1.415 . S
C360 C365 1.425 . S
C360 C367 1.409 . S
C361 H353 0.930 . S
C361 C359 1.419 . S
C361 C362 1.362 . S
C362 H354 0.930 . S
C362 C361 1.362 . S
C362 C365 1.409 . S
C363 H355 0.930 . S
C363 C364 1.355 . S
C363 C365 1.415 . S
C364 C363 1.355 . S
C364 C366 1.419 . S
C365 C360 1.425 . S
C365 C362 1.409 . S
C365 C363 1.415 . S
C366 H356 0.930 . S
C366 C364 1.419 . S
C366 C367 1.362 . S
C367 H357 0.930 . S
C367 C360 1.409 . S
C367 C366 1.362 . S
H368 C374 0.930 . S
H369 C377 0.930 . S
H370 C378 0.930 . S
H371 C379 0.930 . S
H372 C382 0.930 . S
H373 C383 0.930 . S
C374 H368 0.930 . S
C374 C375 1.355 . S
C374 C376 1.415 . S
C375 C374 1.355 . S
C375 C377 1.419 . S
C376 C374 1.415 . S
C376 C381 1.425 . S
C376 C383 1.409 . S
C377 H369 0.930 . S
C377 C375 1.419 . S
C377 C378 1.362 . S
C378 H370 0.930 . S
C378 C377 1.362 . S
C378 C381 1.409 . S
C379 H371 0.930 . S
C379 C380 1.355 . S
C379 C381 1.415 . S
C380 C379 1.355 . S
C380 C382 1.419 . S
C381 C376 1.425 . S
C381 C378 1.409 . S
C381 C379 1.415 . S
C382 H372 0.930 . S
C382 C380 1.419 . S
C382 C383 1.362 . S
C383 H373 0.930 . S
C383 C376 1.409 . S
C383 C382 1.362 . S
H384 C390 0.930 . S
H385 C393 0.930 . S
H386 C394 0.930 . S
H387 C395 0.930 . S
H388 C398 0.930 . S
H389 C399 0.930 . S
C390 H384 0.930 . S
C390 C391 1.355 . S
C390 C392 1.415 . S
C391 C390 1.355 . S
C391 C393 1.419 . S
C392 C390 1.415 . S
C392 C397 1.425 . S
C392 C399 1.409 . S
C393 H385 0.930 . S
C393 C391 1.419 . S
C393 C394 1.362 . S
C394 H386 0.930 . S
C394 C393 1.362 . S
C394 C397 1.409 . S
C395 H387 0.930 . S
C395 C396 1.355 . S
C395 C397 1.415 . S
C396 C395 1.355 . S
C396 C398 1.419 . S
C397 C392 1.425 . S
C397 C394 1.409 . S
C397 C395 1.415 . S
C398 H388 0.930 . S
C398 C396 1.419 . S
C398 C399 1.362 . S
C399 H389 0.930 . S
C399 C392 1.409 . S
C399 C398 1.362 . S
H400 C406 0.930 . S
H401 C409 0.930 . S
H402 C410 0.930 . S
H403 C411 0.930 . S
H404 C414 0.930 . S
H405 C415 0.930 . S
C406 H400 0.930 . S
C406 C407 1.355 . S
C406 C408 1.415 . S
C407 C406 1.355 . S
C407 C409 1.419 . S
C408 C406 1.415 . S
C408 C413 1.425 . S
C408 C415 1.409 . S
C409 H401 0.930 . S
C409 C407 1.419 . S
C409 C410 1.362 . S
C410 H402 0.930 . S
C410 C409 1.362 . S
C410 C413 1.409 . S
C411 H403 0.930 . S
C411 C412 1.355 . S
C411 C413 1.415 . S
C412 C411 1.355 . S
C412 C414 1.419 . S
C413 C408 1.425 . S
C413 C410 1.409 . S
C413 C411 1.415 . S
C414 H404 0.930 . S
C414 C412 1.419 . S
C414 C415 1.362 . S
C415 H405 0.930 . S
C415 C408 1.409 . S
C415 C414 1.362 . S
H416 C422 0.930 . S
H417 C425 0.930 . S
H418 C426 0.930 . S
H419 C427 0.930 . S
H420 C430 0.930 . S
H421 C431 0.930 . S
C422 H416 0.930 . S
C422 C423 1.355 . S
C422 C424 1.415 . S
C423 C422 1.355 . S
C423 C425 1.419 . S
C424 C422 1.415 . S
C424 C429 1.425 . S
C424 C431 1.409 . S
C425 H417 0.930 . S
C425 C423 1.419 . S
C425 C426 1.362 . S
C426 H418 0.930 . S
C426 C425 1.362 . S
C426 C429 1.409 . S
C427 H419 0.930 . S
C427 C428 1.355 . S
C427 C429 1.415 . S
C428 C427 1.355 . S
C428 C430 1.419 . S
C429 C424 1.425 . S
C429 C426 1.409 . S
C429 C427 1.415 . S
C430 H420 0.930 . S
C430 C428 1.419 . S
C430 C431 1.362 . S
C431 H421 0.930 . S
C431 C424 1.409 . S
C431 C430 1.362 . S
H432 C438 0.930 . S
H433 C441 0.930 . S
H434 C442 0.930 . S
H435 C443 0.930 . S
H436 C446 0.930 . S
H437 C447 0.930 . S
C438 H432 0.930 . S
C438 C439 1.355 . S
C438 C440 1.415 . S
C439 C438 1.355 . S
C439 C441 1.419 . S
C440 C438 1.415 . S
C440 C445 1.425 . S
C440 C447 1.409 . S
C441 H433 0.930 . S
C441 C439 1.419 . S
C441 C442 1.362 . S
C442 H434 0.930 . S
C442 C441 1.362 . S
C442 C445 1.409 . S
C443 H435 0.930 . S
C443 C444 1.355 . S
C443 C445 1.415 . S
C444 C443 1.355 . S
C444 C446 1.419 . S
C445 C440 1.425 . S
C445 C442 1.409 . S
C445 C443 1.415 . S
C446 H436 0.930 . S
C446 C444 1.419 . S
C446 C447 1.362 . S
C447 H437 0.930 . S
C447 C440 1.409 . S
C447 C446 1.362 . S
H448 C454 0.930 . S
H449 C457 0.930 . S
H450 C458 0.930 . S
H451 C459 0.930 . S
H452 C462 0.930 . S
H453 C463 0.930 . S
C454 H448 0.930 . S
C454 C455 1.355 . S
C454 C456 1.415 . S
C455 C454 1.355 . S
C455 C457 1.419 . S
C456 C454 1.415 . S
C456 C461 1.425 . S
C456 C463 1.409 . S
C457 H449 0.930 . S
C457 C455 1.419 . S
C457 C458 1.362 . S
C458 H450 0.930 . S
C458 C457 1.362 . S
C458 C461 1.409 . S
C459 H451 0.930 . S
C459 C460 1.355 . S
C459 C461 1.415 . S
C460 C459 1.355 . S
C460 C462 1.419 . S
C461 C456 1.425 . S
C461 C458 1.409 . S
C461 C459 1.415 . S
C462 H452 0.930 . S
C462 C460 1.419 . S
C462 C463 1.362 . S
C463 H453 0.930 . S
C463 C456 1.409 . S
C463 C462 1.362 . S
H464 C470 0.930 . S
H465 C473 0.930 . S
H466 C474 0.930 . S
H467 C475 0.930 . S
H468 C478 0.930 . S
H469 C479 0.930 . S
C470 H464 0.930 . S
C470 C471 1.355 . S
C470 C472 1.415 . S
C471 C470 1.355 . S
C471 C473 1.419 . S
C472 C470 1.415 . S
C472 C477 1.425 . S
C472 C479 1.409 . S
C473 H465 0.930 . S
C473 C471 1.419 . S
C473 C474 1.362 . S
C474 H466 0.930 . S
C474 C473 1.362 . S
C474 C477 1.409 . S
C475 H467 0.930 . S
C475 C476 1.355 . S
C475 C477 1.415 . S
C476 C475 1.355 . S
C476 C478 1.419 . S
C477 C472 1.425 . S
C477 C474 1.409 . S
C477 C475 1.415 . S
C478 H468 0.930 . S
C478 C476 1.419 . S
C478 C479 1.362 . S
C479 H469 0.930 . S
C479 C472 1.409 . S
C479 C478 1.362 . S
H480 C486 0.930 . S
H481 C489 0.930 . S
H482 C490 0.930 . S
H483 C491 0.930 . S
H484 C494 0.930 . S
H485 C495 0.930 . S
C486 H480 0.930 . S
C486 C487 1.355 . S
C486 C488 1.415 . S
C487 C486 1.355 . S
C487 C489 1.419 . S
C488 C486 1.415 . S
C488 C493 1.425 . S
C488 C495 1.409 . S
C489 H481 0.930 . S
C489 C487 1.419 . S
C489 C490 1.362 . S
C490 H482 0.930 . S
C490 C489 1.362 . S
C490 C493 1.409 . S
C491 H483 0.930 . S
C491 C492 1.355 . S
C491 C493 1.415 . S
C492 C491 1.355 . S
C492 C494 1.419 . S
C493 C488 1.425 . S
C493 C490 1.409 . S
C493 C491 1.415 . S
C494 H484 0.930 . S
C494 C492 1.419 . S
C494 C495 1.362 . S
C495 H485 0.930 . S
C495 C488 1.409 . S
C495 C494 1.362 . S
H496 C502 0.930 . S
H497 C505 0.930 . S
H498 C506 0.930 . S
H499 C507 0.930 . S
H500 C510 0.930 . S
H501 C511 0.930 . S
C502 H496 0.930 . S
C502 C503 1.355 . S
C502 C504 1.415 . S
C503 C502 1.355 . S
C503 C505 1.419 . S
C504 C502 1.415 . S
C504 C509 1.425 . S
C504 C511 1.409 . S
C505 H497 0.930 . S
C505 C503 1.419 . S
C505 C506 1.362 . S
C506 H498 0.930 . S
C506 C505 1.362 . S
C506 C509 1.409 . S
C507 H499 0.930 . S
C507 C508 1.355 . S
C507 C509 1.415 . S
C508 C507 1.355 . S
C508 C510 1.419 . S
C509 C504 1.425 . S
C509 C506 1.409 . S
C509 C507 1.415 . S
C510 H500 0.930 . S
C510 C508 1.419 . S
C510 C511 1.362 . S
C511 H501 0.930 . S
C511 C504 1.409 . S
C511 C510 1.362 . S
H512 C518 0.930 . S
H513 C521 0.930 . S
H514 C522 0.930 . S
H515 C523 0.930 . S
H516 C526 0.930 . S
H517 C527 0.930 . S
C518 H512 0.930 . S
C518 C519 1.355 . S
C518 C520 1.415 . S
C519 C518 1.355 . S
C519 C521 1.419 . S
C520 C518 1.415 . S
C520 C525 1.425 . S
C520 C527 1.409 . S
C521 H513 0.930 . S
C521 C519 1.419 . S
C521 C522 1.362 . S
C522 H514 0.930 . S
C522 C521 1.362 . S
C522 C525 1.409 . S
C523 H515 0.930 . S
C523 C524 1.355 . S
C523 C525 1.415 . S
C524 C523 1.355 . S
C524 C526 1.419 . S
C525 C520 1.425 . S
C525 C522 1.409 . S
C525 C523 1.415 . S
C526 H516 0.930 . S
C526 C524 1.419 . S
C526 C527 1.362 . S
C527 H517 0.930 . S
C527 C520 1.409 . S
C527 C526 1.362 . S
H528 C534 0.930 . S
H529 C537 0.930 . S
H530 C538 0.930 . S
H531 C539 0.930 . S
H532 C542 0.930 . S
H533 C543 0.930 . S
C534 H528 0.930 . S
C534 C535 1.355 . S
C534 C536 1.415 . S
C535 C534 1.355 . S
C535 C537 1.419 . S
C536 C534 1.415 . S
C536 C541 1.425 1_556 S
C536 C543 1.409 . S
C537 H529 0.930 . S
C537 C535 1.419 . S
C537 C538 1.362 1_556 S
C538 H530 0.930 . S
C538 C537 1.362 1_554 S
C538 C541 1.409 . S
C539 H531 0.930 . S
C539 C540 1.355 . S
C539 C541 1.415 . S
C540 C539 1.355 . S
C540 C542 1.419 . S
C541 C536 1.425 1_554 S
C541 C538 1.409 . S
C541 C539 1.415 . S
C542 H532 0.930 . S
C542 C540 1.419 . S
C542 C543 1.362 1_554 S
C543 H533 0.930 . S
C543 C536 1.409 . S
C543 C542 1.362 1_556 S
H544 C550 0.930 . S
H545 C553 0.930 . S
H546 C554 0.930 . S
H547 C555 0.930 . S
H548 C558 0.930 . S
H549 C559 0.930 . S
C550 H544 0.930 . S
C550 C551 1.355 . S
C550 C552 1.415 . S
C551 C550 1.355 . S
C551 C553 1.419 . S
C552 C550 1.415 . S
C552 C557 1.425 . S
C552 C559 1.409 . S
C553 H545 0.930 . S
C553 C551 1.419 . S
C553 C554 1.362 . S
C554 H546 0.930 . S
C554 C553 1.362 . S
C554 C557 1.409 . S
C555 H547 0.930 . S
C555 C556 1.355 . S
C555 C557 1.415 . S
C556 C555 1.355 . S
C556 C558 1.419 . S
C557 C552 1.425 . S
C557 C554 1.409 . S
C557 C555 1.415 . S
C558 H548 0.930 . S
C558 C556 1.419 . S
C558 C559 1.362 . S
C559 H549 0.930 . S
C559 C552 1.409 . S
C559 C558 1.362 . S
H560 C566 0.930 . S
H561 C569 0.930 . S
H562 C570 0.930 . S
H563 C571 0.930 . S
H564 C574 0.930 . S
H565 C575 0.930 . S
C566 H560 0.930 . S
C566 C567 1.355 . S
C566 C568 1.415 . S
C567 C566 1.355 . S
C567 C569 1.419 . S
C568 C566 1.415 . S
C568 C573 1.425 1_554 S
C568 C575 1.409 1_554 S
C569 H561 0.930 . S
C569 C567 1.419 . S
C569 C570 1.362 . S
C570 H562 0.930 . S
C570 C569 1.362 . S
C570 C573 1.409 1_554 S
C571 H563 0.930 . S
C571 C572 1.355 . S
C571 C573 1.415 . S
C572 C571 1.355 . S
C572 C574 1.419 . S
C573 C568 1.425 1_556 S
C573 C570 1.409 1_556 S
C573 C571 1.415 . S
C574 H564 0.930 . S
C574 C572 1.419 . S
C574 C575 1.362 . S
C575 H565 0.930 . S
C575 C568 1.409 1_556 S
C575 C574 1.362 . S
H576 C582 0.930 . S
H577 C585 0.930 . S
H578 C586 0.930 . S
H579 C587 0.930 . S
H580 C590 0.930 . S
H581 C591 0.930 . S
C582 H576 0.930 . S
C582 C583 1.355 . S
C582 C584 1.415 . S
C583 C582 1.355 . S
C583 C585 1.419 . S
C584 C582 1.415 . S
C584 C589 1.425 . S
C584 C591 1.409 . S
C585 H577 0.930 . S
C585 C583 1.419 . S
C585 C586 1.362 . S
C586 H578 0.930 . S
C586 C585 1.362 . S
C586 C589 1.409 . S
C587 H579 0.930 . S
C587 C588 1.355 . S
C587 C589 1.415 . S
C588 C587 1.355 . S
C588 C590 1.419 . S
C589 C584 1.425 . S
C589 C586 1.409 . S
C589 C587 1.415 . S
C590 H580 0.930 . S
C590 C588 1.419 . S
C590 C591 1.362 . S
C591 H581 0.930 . S
C591 C584 1.409 . S
C591 C590 1.362 . S
H592 C598 0.930 . S
H593 C601 0.930 . S
H594 C602 0.930 . S
H595 C603 0.930 . S
H596 C606 0.930 . S
H597 C607 0.930 . S
C598 H592 0.930 . S
C598 C599 1.355 . S
C598 C600 1.415 . S
C599 C598 1.355 . S
C599 C601 1.419 . S
C600 C598 1.415 . S
C600 C605 1.425 1_556 S
C600 C607 1.409 1_556 S
C601 H593 0.930 . S
C601 C599 1.419 . S
C601 C602 1.362 . S
C602 H594 0.930 . S
C602 C601 1.362 . S
C602 C605 1.409 1_556 S
C603 H595 0.930 . S
C603 C604 1.355 . S
C603 C605 1.415 . S
C604 C603 1.355 . S
C604 C606 1.419 . S
C605 C600 1.425 1_554 S
C605 C602 1.409 1_554 S
C605 C603 1.415 . S
C606 H596 0.930 . S
C606 C604 1.419 . S
C606 C607 1.362 . S
C607 H597 0.930 . S
C607 C600 1.409 1_554 S
C607 C606 1.362 . S
H608 C614 0.930 . S
H609 C617 0.930 . S
H610 C618 0.930 . S
H611 C619 0.930 . S
H612 C622 0.930 . S
H613 C623 0.930 . S
C614 H608 0.930 . S
C614 C615 1.355 . S
C614 C616 1.415 . S
C615 C614 1.355 . S
C615 C617 1.419 . S
C616 C614 1.415 . S
C616 C621 1.425 . S
C616 C623 1.409 . S
C617 H609 0.930 . S
C617 C615 1.419 . S
C617 C618 1.362 . S
C618 H610 0.930 . S
C618 C617 1.362 . S
C618 C621 1.409 . S
C619 H611 0.930 . S
C619 C620 1.355 . S
C619 C621 1.415 . S
C620 C619 1.355 . S
C620 C622 1.419 . S
C621 C616 1.425 . S
C621 C618 1.409 . S
C621 C619 1.415 . S
C622 H612 0.930 . S
C622 C620 1.419 . S
C622 C623 1.362 . S
C623 H613 0.930 . S
C623 C616 1.409 . S
C623 C622 1.362 . S
H624 C630 0.930 . S
H625 C633 0.930 . S
H626 C634 0.930 . S
H627 C635 0.930 . S
H628 C638 0.930 . S
H629 C639 0.930 . S
C630 H624 0.930 . S
C630 C631 1.355 . S
C630 C632 1.415 . S
C631 C630 1.355 . S
C631 C633 1.419 1_554 S
C632 C630 1.415 . S
C632 C637 1.425 1_554 S
C632 C639 1.409 . S
C633 H625 0.930 . S
C633 C631 1.419 1_556 S
C633 C634 1.362 . S
C634 H626 0.930 . S
C634 C633 1.362 . S
C634 C637 1.409 . S
C635 H627 0.930 . S
C635 C636 1.355 . S
C635 C637 1.415 . S
C636 C635 1.355 . S
C636 C638 1.419 1_556 S
C637 C632 1.425 1_556 S
C637 C634 1.409 . S
C637 C635 1.415 . S
C638 H628 0.930 . S
C638 C636 1.419 1_554 S
C638 C639 1.362 . S
C639 H629 0.930 . S
C639 C632 1.409 . S
C639 C638 1.362 . S
H640 C646 0.930 . S
H641 C649 0.930 . S
H642 C650 0.930 . S
H643 C651 0.930 . S
H644 C654 0.930 . S
H645 C655 0.930 . S
C646 H640 0.930 . S
C646 C647 1.355 . S
C646 C648 1.415 . S
C647 C646 1.355 . S
C647 C649 1.419 . S
C648 C646 1.415 . S
C648 C653 1.425 . S
C648 C655 1.409 . S
C649 H641 0.930 . S
C649 C647 1.419 . S
C649 C650 1.362 . S
C650 H642 0.930 . S
C650 C649 1.362 . S
C650 C653 1.409 . S
C651 H643 0.930 . S
C651 C652 1.355 . S
C651 C653 1.415 . S
C652 C651 1.355 . S
C652 C654 1.419 . S
C653 C648 1.425 . S
C653 C650 1.409 . S
C653 C651 1.415 . S
C654 H644 0.930 . S
C654 C652 1.419 . S
C654 C655 1.362 . S
C655 H645 0.930 . S
C655 C648 1.409 . S
C655 C654 1.362 . S
H656 C662 0.930 . S
H657 C665 0.930 . S
H658 C666 0.930 . S
H659 C667 0.930 . S
H660 C670 0.930 . S
H661 C671 0.930 . S
C662 H656 0.930 . S
C662 C663 1.355 . S
C662 C664 1.415 . S
C663 C662 1.355 . S
C663 C665 1.419 1_556 S
C664 C662 1.415 . S
C664 C669 1.425 1_556 S
C664 C671 1.409 . S
C665 H657 0.930 . S
C665 C663 1.419 1_554 S
C665 C666 1.362 . S
C666 H658 0.930 . S
C666 C665 1.362 . S
C666 C669 1.409 . S
C667 H659 0.930 . S
C667 C668 1.355 . S
C667 C669 1.415 . S
C668 C667 1.355 . S
C668 C670 1.419 1_554 S
C669 C664 1.425 1_554 S
C669 C666 1.409 . S
C669 C667 1.415 . S
C670 H660 0.930 . S
C670 C668 1.419 1_556 S
C670 C671 1.362 . S
C671 H661 0.930 . S
C671 C664 1.409 . S
C671 C670 1.362 . S
H672 C678 0.930 . S
H673 C681 0.930 . S
H674 C682 0.930 . S
H675 C683 0.930 . S
H676 C686 0.930 . S
H677 C687 0.930 . S
C678 H672 0.930 . S
C678 C679 1.355 . S
C678 C680 1.415 . S
C679 C678 1.355 . S
C679 C681 1.419 . S
C680 C678 1.415 . S
C680 C685 1.425 . S
C680 C687 1.409 . S
C681 H673 0.930 . S
C681 C679 1.419 . S
C681 C682 1.362 . S
C682 H674 0.930 . S
C682 C681 1.362 . S
C682 C685 1.409 . S
C683 H675 0.930 . S
C683 C684 1.355 . S
C683 C685 1.415 . S
C684 C683 1.355 . S
C684 C686 1.419 . S
C685 C680 1.425 . S
C685 C682 1.409 . S
C685 C683 1.415 . S
C686 H676 0.930 . S
C686 C684 1.419 . S
C686 C687 1.362 . S
C687 H677 0.930 . S
C687 C680 1.409 . S
C687 C686 1.362 . S
H688 C694 0.930 . S
H689 C697 0.930 . S
H690 C698 0.930 . S
H691 C699 0.930 . S
H692 C702 0.930 . S
H693 C703 0.930 . S
C694 H688 0.930 . S
C694 C695 1.355 . S
C694 C696 1.415 . S
C695 C694 1.355 . S
C695 C697 1.419 1_556 S
C696 C694 1.415 . S
C696 C701 1.425 1_556 S
C696 C703 1.409 . S
C697 H689 0.930 . S
C697 C695 1.419 1_554 S
C697 C698 1.362 . S
C698 H690 0.930 . S
C698 C697 1.362 . S
C698 C701 1.409 . S
C699 H691 0.930 . S
C699 C700 1.355 . S
C699 C701 1.415 . S
C700 C699 1.355 . S
C700 C702 1.419 1_554 S
C701 C696 1.425 1_554 S
C701 C698 1.409 . S
C701 C699 1.415 . S
C702 H692 0.930 . S
C702 C700 1.419 1_556 S
C702 C703 1.362 . S
C703 H693 0.930 . S
C703 C696 1.409 . S
C703 C702 1.362 . S
H704 C710 0.930 . S
H705 C713 0.930 . S
H706 C714 0.930 . S
H707 C715 0.930 . S
H708 C718 0.930 . S
H709 C719 0.930 . S
C710 H704 0.930 . S
C710 C711 1.355 . S
C710 C712 1.415 . S
C711 C710 1.355 . S
C711 C713 1.419 . S
C712 C710 1.415 . S
C712 C717 1.425 . S
C712 C719 1.409 . S
C713 H705 0.930 . S
C713 C711 1.419 . S
C713 C714 1.362 . S
C714 H706 0.930 . S
C714 C713 1.362 . S
C714 C717 1.409 . S
C715 H707 0.930 . S
C715 C716 1.355 . S
C715 C717 1.415 . S
C716 C715 1.355 . S
C716 C718 1.419 . S
C717 C712 1.425 . S
C717 C714 1.409 . S
C717 C715 1.415 . S
C718 H708 0.930 . S
C718 C716 1.419 . S
C718 C719 1.362 . S
C719 H709 0.930 . S
C719 C712 1.409 . S
C719 C718 1.362 . S
H720 C726 0.930 . S
H721 C729 0.930 . S
H722 C730 0.930 . S
H723 C731 0.930 . S
H724 C734 0.930 . S
H725 C735 0.930 . S
C726 H720 0.930 . S
C726 C727 1.355 . S
C726 C728 1.415 . S
C727 C726 1.355 . S
C727 C729 1.419 . S
C728 C726 1.415 . S
C728 C733 1.425 . S
C728 C735 1.409 . S
C729 H721 0.930 . S
C729 C727 1.419 . S
C729 C730 1.362 . S
C730 H722 0.930 . S
C730 C729 1.362 . S
C730 C733 1.409 . S
C731 H723 0.930 . S
C731 C732 1.355 . S
C731 C733 1.415 . S
C732 C731 1.355 . S
C732 C734 1.419 . S
C733 C728 1.425 . S
C733 C730 1.409 . S
C733 C731 1.415 . S
C734 H724 0.930 . S
C734 C732 1.419 . S
C734 C735 1.362 . S
C735 H725 0.930 . S
C735 C728 1.409 . S
C735 C734 1.362 . S
H736 C742 0.930 . S
H737 C745 0.930 . S
H738 C746 0.930 . S
H739 C747 0.930 . S
H740 C750 0.930 . S
H741 C751 0.930 . S
C742 H736 0.930 . S
C742 C743 1.355 . S
C742 C744 1.415 . S
C743 C742 1.355 . S
C743 C745 1.419 . S
C744 C742 1.415 . S
C744 C749 1.425 1_455 S
C744 C751 1.409 1_455 S
C745 H737 0.930 . S
C745 C743 1.419 . S
C745 C746 1.362 . S
C746 H738 0.930 . S
C746 C745 1.362 . S
C746 C749 1.409 1_455 S
C747 H739 0.930 . S
C747 C748 1.355 . S
C747 C749 1.415 . S
C748 C747 1.355 . S
C748 C750 1.419 . S
C749 C744 1.425 1_655 S
C749 C746 1.409 1_655 S
C749 C747 1.415 . S
C750 H740 0.930 . S
C750 C748 1.419 . S
C750 C751 1.362 . S
C751 H741 0.930 . S
C751 C744 1.409 1_655 S
C751 C750 1.362 . S
H752 C758 0.930 . S
H753 C761 0.930 1_556 S
H754 C762 0.930 1_556 S
H755 C763 0.930 . S
H756 C766 0.930 . S
H757 C767 0.930 . S
C758 H752 0.930 . S
C758 C759 1.355 . S
C758 C760 1.415 . S
C759 C758 1.355 . S
C759 C761 1.419 . S
C760 C758 1.415 . S
C760 C765 1.425 1_565 S
C760 C767 1.409 1_565 S
C761 H753 0.930 1_554 S
C761 C759 1.419 . S
C761 C762 1.362 . S
C762 H754 0.930 1_554 S
C762 C761 1.362 . S
C762 C765 1.409 1_565 S
C763 H755 0.930 . S
C763 C764 1.355 . S
C763 C765 1.415 . S
C764 C763 1.355 . S
C764 C766 1.419 . S
C765 C760 1.425 1_545 S
C765 C762 1.409 1_545 S
C765 C763 1.415 . S
C766 H756 0.930 . S
C766 C764 1.419 . S
C766 C767 1.362 . S
C767 H757 0.930 . S
C767 C760 1.409 1_545 S
C767 C766 1.362 . S
H768 C774 0.930 . S
H769 C777 0.930 . S
H770 C778 0.930 . S
H771 C779 0.930 . S
H772 C782 0.930 . S
H773 C783 0.930 . S
C774 H768 0.930 . S
C774 C775 1.355 . S
C774 C776 1.415 . S
C775 C774 1.355 . S
C775 C777 1.419 . S
C776 C774 1.415 . S
C776 C781 1.425 . S
C776 C783 1.409 . S
C777 H769 0.930 . S
C777 C775 1.419 . S
C777 C778 1.362 . S
C778 H770 0.930 . S
C778 C777 1.362 . S
C778 C781 1.409 . S
C779 H771 0.930 . S
C779 C780 1.355 . S
C779 C781 1.415 . S
C780 C779 1.355 . S
C780 C782 1.419 . S
C781 C776 1.425 . S
C781 C778 1.409 . S
C781 C779 1.415 . S
C782 H772 0.930 . S
C782 C780 1.419 . S
C782 C783 1.362 . S
C783 H773 0.930 . S
C783 C776 1.409 . S
C783 C782 1.362 . S
H784 C790 0.930 . S
H785 C793 0.930 . S
H786 C794 0.930 . S
H787 C795 0.930 . S
H788 C798 0.930 . S
H789 C799 0.930 . S
C790 H784 0.930 . S
C790 C791 1.355 . S
C790 C792 1.415 . S
C791 C790 1.355 . S
C791 C793 1.419 . S
C792 C790 1.415 . S
C792 C797 1.425 1_655 S
C792 C799 1.409 1_655 S
C793 H785 0.930 . S
C793 C791 1.419 . S
C793 C794 1.362 . S
C794 H786 0.930 . S
C794 C793 1.362 . S
C794 C797 1.409 1_655 S
C795 H787 0.930 . S
C795 C796 1.355 . S
C795 C797 1.415 . S
C796 C795 1.355 . S
C796 C798 1.419 . S
C797 C792 1.425 1_455 S
C797 C794 1.409 1_455 S
C797 C795 1.415 . S
C798 H788 0.930 . S
C798 C796 1.419 . S
C798 C799 1.362 . S
C799 H789 0.930 . S
C799 C792 1.409 1_455 S
C799 C798 1.362 . S
H800 C806 0.930 . S
H801 C809 0.930 . S
H802 C810 0.930 . S
H803 C811 0.930 . S
H804 C814 0.930 . S
H805 C815 0.930 . S
C806 H800 0.930 . S
C806 C807 1.355 . S
C806 C808 1.415 . S
C807 C806 1.355 . S
C807 C809 1.419 . S
C808 C806 1.415 . S
C808 C813 1.425 1_545 S
C808 C815 1.409 1_545 S
C809 H801 0.930 . S
C809 C807 1.419 . S
C809 C810 1.362 . S
C810 H802 0.930 . S
C810 C809 1.362 . S
C810 C813 1.409 1_545 S
C811 H803 0.930 . S
C811 C812 1.355 . S
C811 C813 1.415 . S
C812 C811 1.355 . S
C812 C814 1.419 . S
C813 C808 1.425 1_565 S
C813 C810 1.409 1_565 S
C813 C811 1.415 . S
C814 H804 0.930 . S
C814 C812 1.419 . S
C814 C815 1.362 . S
C815 H805 0.930 . S
C815 C808 1.409 1_565 S
C815 C814 1.362 . S
H816 C822 0.930 . S
H817 C825 0.930 . S
H818 C826 0.930 . S
H819 C827 0.930 . S
H820 C830 0.930 . S
H821 C831 0.930 . S
C822 H816 0.930 . S
C822 C823 1.355 . S
C822 C824 1.415 . S
C823 C822 1.355 . S
C823 C825 1.419 . S
C824 C822 1.415 . S
C824 C829 1.425 . S
C824 C831 1.409 . S
C825 H817 0.930 . S
C825 C823 1.419 . S
C825 C826 1.362 . S
C826 H818 0.930 . S
C826 C825 1.362 . S
C826 C829 1.409 . S
C827 H819 0.930 . S
C827 C828 1.355 . S
C827 C829 1.415 . S
C828 C827 1.355 . S
C828 C830 1.419 . S
C829 C824 1.425 . S
C829 C826 1.409 . S
C829 C827 1.415 . S
C830 H820 0.930 . S
C830 C828 1.419 . S
C830 C831 1.362 . S
C831 H821 0.930 . S
C831 C824 1.409 . S
C831 C830 1.362 . S
H832 C838 0.930 . S
H833 C841 0.930 . S
H834 C842 0.930 . S
H835 C843 0.930 . S
H836 C846 0.930 . S
H837 C847 0.930 . S
C838 H832 0.930 . S
C838 C839 1.355 . S
C838 C840 1.415 . S
C839 C838 1.355 . S
C839 C841 1.419 . S
C840 C838 1.415 . S
C840 C845 1.425 1_655 S
C840 C847 1.409 1_655 S
C841 H833 0.930 . S
C841 C839 1.419 . S
C841 C842 1.362 . S
C842 H834 0.930 . S
C842 C841 1.362 . S
C842 C845 1.409 1_655 S
C843 H835 0.930 . S
C843 C844 1.355 . S
C843 C845 1.415 . S
C844 C843 1.355 . S
C844 C846 1.419 . S
C845 C840 1.425 1_455 S
C845 C842 1.409 1_455 S
C845 C843 1.415 . S
C846 H836 0.930 . S
C846 C844 1.419 . S
C846 C847 1.362 . S
C847 H837 0.930 . S
C847 C840 1.409 1_455 S
C847 C846 1.362 . S
H848 C854 0.930 . S
H849 C857 0.930 1_554 S
H850 C858 0.930 1_554 S
H851 C859 0.930 . S
H852 C862 0.930 . S
H853 C863 0.930 . S
C854 H848 0.930 . S
C854 C855 1.355 . S
C854 C856 1.415 . S
C855 C854 1.355 . S
C855 C857 1.419 . S
C856 C854 1.415 . S
C856 C861 1.425 1_545 S
C856 C863 1.409 1_545 S
C857 H849 0.930 1_556 S
C857 C855 1.419 . S
C857 C858 1.362 . S
C858 H850 0.930 1_556 S
C858 C857 1.362 . S
C858 C861 1.409 1_545 S
C859 H851 0.930 . S
C859 C860 1.355 . S
C859 C861 1.415 . S
C860 C859 1.355 . S
C860 C862 1.419 . S
C861 C856 1.425 1_565 S
C861 C858 1.409 1_565 S
C861 C859 1.415 . S
C862 H852 0.930 . S
C862 C860 1.419 . S
C862 C863 1.362 . S
C863 H853 0.930 . S
C863 C856 1.409 1_565 S
C863 C862 1.362 . S
H864 C870 0.930 . S
H865 C873 0.930 . S
H866 C874 0.930 . S
H867 C875 0.930 . S
H868 C878 0.930 . S
H869 C879 0.930 . S
C870 H864 0.930 . S
C870 C871 1.355 . S
C870 C872 1.415 . S
C871 C870 1.355 . S
C871 C873 1.419 . S
C872 C870 1.415 . S
C872 C877 1.425 . S
C872 C879 1.409 . S
C873 H865 0.930 . S
C873 C871 1.419 . S
C873 C874 1.362 . S
C874 H866 0.930 . S
C874 C873 1.362 . S
C874 C877 1.409 . S
C875 H867 0.930 . S
C875 C876 1.355 . S
C875 C877 1.415 . S
C876 C875 1.355 . S
C876 C878 1.419 . S
C877 C872 1.425 . S
C877 C874 1.409 . S
C877 C875 1.415 . S
C878 H868 0.930 . S
C878 C876 1.419 . S
C878 C879 1.362 . S
C879 H869 0.930 . S
C879 C872 1.409 . S
C879 C878 1.362 . S
H880 C886 0.930 . S
H881 C889 0.930 . S
H882 C890 0.930 . S
H883 C891 0.930 . S
H884 C894 0.930 . S
H885 C895 0.930 . S
C886 H880 0.930 . S
C886 C887 1.355 . S
C886 C888 1.415 . S
C887 C886 1.355 . S
C887 C889 1.419 . S
C888 C886 1.415 . S
C888 C893 1.425 1_455 S
C888 C895 1.409 1_455 S
C889 H881 0.930 . S
C889 C887 1.419 . S
C889 C890 1.362 . S
C890 H882 0.930 . S
C890 C889 1.362 . S
C890 C893 1.409 1_455 S
C891 H883 0.930 . S
C891 C892 1.355 . S
C891 C893 1.415 . S
C892 C891 1.355 . S
C892 C894 1.419 . S
C893 C888 1.425 1_655 S
C893 C890 1.409 1_655 S
C893 C891 1.415 . S
C894 H884 0.930 . S
C894 C892 1.419 . S
C894 C895 1.362 . S
C895 H885 0.930 . S
C895 C888 1.409 1_655 S
C895 C894 1.362 . S
H896 C902 0.930 . S
H897 C905 0.930 . S
H898 C906 0.930 . S
H899 C907 0.930 . S
H900 C910 0.930 . S
H901 C911 0.930 . S
C902 H896 0.930 . S
C902 C903 1.355 . S
C902 C904 1.415 . S
C903 C902 1.355 . S
C903 C905 1.419 . S
C904 C902 1.415 . S
C904 C909 1.425 1_565 S
C904 C911 1.409 1_565 S
C905 H897 0.930 . S
C905 C903 1.419 . S
C905 C906 1.362 . S
C906 H898 0.930 . S
C906 C905 1.362 . S
C906 C909 1.409 1_565 S
C907 H899 0.930 . S
C907 C908 1.355 . S
C907 C909 1.415 . S
C908 C907 1.355 . S
C908 C910 1.419 . S
C909 C904 1.425 1_545 S
C909 C906 1.409 1_545 S
C909 C907 1.415 . S
C910 H900 0.930 . S
C910 C908 1.419 . S
C910 C911 1.362 . S
C911 H901 0.930 . S
C911 C904 1.409 1_545 S
C911 C910 1.362 . S
H912 C918 0.930 . S
H913 C921 0.930 . S
H914 C922 0.930 . S
H915 C923 0.930 . S
H916 C926 0.930 . S
H917 C927 0.930 . S
C918 H912 0.930 . S
C918 C919 1.355 . S
C918 C920 1.415 1_556 S
C919 C918 1.355 . S
C919 C921 1.419 . S
C920 C918 1.415 1_554 S
C920 C925 1.425 1_554 S
C920 C927 1.409 . S
C921 H913 0.930 . S
C921 C919 1.419 . S
C921 C922 1.362 . S
C922 H914 0.930 . S
C922 C921 1.362 . S
C922 C925 1.409 . S
C923 H915 0.930 . S
C923 C924 1.355 . S
C923 C925 1.415 1_554 S
C924 C923 1.355 . S
C924 C926 1.419 . S
C925 C920 1.425 1_556 S
C925 C922 1.409 . S
C925 C923 1.415 1_556 S
C926 H916 0.930 . S
C926 C924 1.419 . S
C926 C927 1.362 . S
C927 H917 0.930 . S
C927 C920 1.409 . S
C927 C926 1.362 . S
H928 C934 0.930 . S
H929 C937 0.930 . S
H930 C938 0.930 . S
H931 C939 0.930 . S
H932 C942 0.930 . S
H933 C943 0.930 . S
C934 H928 0.930 . S
C934 C935 1.355 . S
C934 C936 1.415 . S
C935 C934 1.355 . S
C935 C937 1.419 . S
C936 C934 1.415 . S
C936 C941 1.425 . S
C936 C943 1.409 . S
C937 H929 0.930 . S
C937 C935 1.419 . S
C937 C938 1.362 . S
C938 H930 0.930 . S
C938 C937 1.362 . S
C938 C941 1.409 . S
C939 H931 0.930 . S
C939 C940 1.355 . S
C939 C941 1.415 . S
C940 C939 1.355 . S
C940 C942 1.419 . S
C941 C936 1.425 . S
C941 C938 1.409 . S
C941 C939 1.415 . S
C942 H932 0.930 . S
C942 C940 1.419 . S
C942 C943 1.362 . S
C943 H933 0.930 . S
C943 C936 1.409 . S
C943 C942 1.362 . S
H944 C950 0.930 . S
H945 C953 0.930 . S
H946 C954 0.930 . S
H947 C955 0.930 . S
H948 C958 0.930 . S
H949 C959 0.930 . S
C950 H944 0.930 . S
C950 C951 1.355 . S
C950 C952 1.415 . S
C951 C950 1.355 . S
C951 C953 1.419 1_556 S
C952 C950 1.415 . S
C952 C957 1.425 1_556 S
C952 C959 1.409 . S
C953 H945 0.930 . S
C953 C951 1.419 1_554 S
C953 C954 1.362 . S
C954 H946 0.930 . S
C954 C953 1.362 . S
C954 C957 1.409 . S
C955 H947 0.930 . S
C955 C956 1.355 . S
C955 C957 1.415 . S
C956 C955 1.355 . S
C956 C958 1.419 1_554 S
C957 C952 1.425 1_554 S
C957 C954 1.409 . S
C957 C955 1.415 . S
C958 H948 0.930 . S
C958 C956 1.419 1_556 S
C958 C959 1.362 . S
C959 H949 0.930 . S
C959 C952 1.409 . S
C959 C958 1.362 . S
H960 C966 0.930 . S
H961 C969 0.930 . S
H962 C970 0.930 . S
H963 C971 0.930 . S
H964 C974 0.930 . S
H965 C975 0.930 . S
C966 H960 0.930 . S
C966 C967 1.355 . S
C966 C968 1.415 . S
C967 C966 1.355 . S
C967 C969 1.419 . S
C968 C966 1.415 . S
C968 C973 1.425 . S
C968 C975 1.409 . S
C969 H961 0.930 . S
C969 C967 1.419 . S
C969 C970 1.362 . S
C970 H962 0.930 . S
C970 C969 1.362 . S
C970 C973 1.409 . S
C971 H963 0.930 . S
C971 C972 1.355 . S
C971 C973 1.415 . S
C972 C971 1.355 . S
C972 C974 1.419 . S
C973 C968 1.425 . S
C973 C970 1.409 . S
C973 C971 1.415 . S
C974 H964 0.930 . S
C974 C972 1.419 . S
C974 C975 1.362 . S
C975 H965 0.930 . S
C975 C968 1.409 . S
C975 C974 1.362 . S
H976 C982 0.930 1_554 S
H977 C985 0.930 . S
H978 C986 0.930 . S
H979 C987 0.930 1_556 S
H980 C990 0.930 . S
H981 C991 0.930 . S
C982 H976 0.930 1_556 S
C982 C983 1.355 . S
C982 C984 1.415 1_556 S
C983 C982 1.355 . S
C983 C985 1.419 . S
C984 C982 1.415 1_554 S
C984 C989 1.425 1_554 S
C984 C991 1.409 . S
C985 H977 0.930 . S
C985 C983 1.419 . S
C985 C986 1.362 . S
C986 H978 0.930 . S
C986 C985 1.362 . S
C986 C989 1.409 . S
C987 H979 0.930 1_554 S
C987 C988 1.355 . S
C987 C989 1.415 1_554 S
C988 C987 1.355 . S
C988 C990 1.419 . S
C989 C984 1.425 1_556 S
C989 C986 1.409 . S
C989 C987 1.415 1_556 S
C990 H980 0.930 . S
C990 C988 1.419 . S
C990 C991 1.362 . S
C991 H981 0.930 . S
C991 C984 1.409 . S
C991 C990 1.362 . S
H992 C998 0.930 . S
H993 C1001 0.930 . S
H994 C1002 0.930 . S
H995 C1003 0.930 . S
H996 C1006 0.930 . S
H997 C1007 0.930 . S
C998 H992 0.930 . S
C998 C999 1.355 . S
C998 C1000 1.415 . S
C999 C998 1.355 . S
C999 C1001 1.419 . S
C1000 C998 1.415 . S
C1000 C1005 1.425 . S
C1000 C1007 1.409 . S
C1001 H993 0.930 . S
C1001 C999 1.419 . S
C1001 C1002 1.362 . S
C1002 H994 0.930 . S
C1002 C1001 1.362 . S
C1002 C1005 1.409 . S
C1003 H995 0.930 . S
C1003 C1004 1.355 . S
C1003 C1005 1.415 . S
C1004 C1003 1.355 . S
C1004 C1006 1.419 . S
C1005 C1000 1.425 . S
C1005 C1002 1.409 . S
C1005 C1003 1.415 . S
C1006 H996 0.930 . S
C1006 C1004 1.419 . S
C1006 C1007 1.362 . S
C1007 H997 0.930 . S
C1007 C1000 1.409 . S
C1007 C1006 1.362 . S
H1008 C1014 0.930 . S
H1009 C1017 0.930 . S
H1010 C1018 0.930 . S
H1011 C1019 0.930 . S
H1012 C1022 0.930 . S
H1013 C1023 0.930 . S
C1014 H1008 0.930 . S
C1014 C1015 1.355 . S
C1014 C1016 1.415 . S
C1015 C1014 1.355 . S
C1015 C1017 1.419 1_554 S
C1016 C1014 1.415 . S
C1016 C1021 1.425 1_554 S
C1016 C1023 1.409 . S
C1017 H1009 0.930 . S
C1017 C1015 1.419 1_556 S
C1017 C1018 1.362 . S
C1018 H1010 0.930 . S
C1018 C1017 1.362 . S
C1018 C1021 1.409 . S
C1019 H1011 0.930 . S
C1019 C1020 1.355 . S
C1019 C1021 1.415 . S
C1020 C1019 1.355 . S
C1020 C1022 1.419 1_556 S
C1021 C1016 1.425 1_556 S
C1021 C1018 1.409 . S
C1021 C1019 1.415 . S
C1022 H1012 0.930 . S
C1022 C1020 1.419 1_554 S
C1022 C1023 1.362 . S
C1023 H1013 0.930 . S
C1023 C1016 1.409 . S
C1023 C1022 1.362 . S
H1024 C1030 0.930 . S
H1025 C1033 0.930 . S
H1026 C1034 0.930 . S
H1027 C1035 0.930 . S
H1028 C1038 0.930 . S
H1029 C1039 0.930 . S
C1030 H1024 0.930 . S
C1030 C1031 1.355 . S
C1030 C1032 1.415 . S
C1031 C1030 1.355 . S
C1031 C1033 1.419 . S
C1032 C1030 1.415 . S
C1032 C1037 1.425 . S
C1032 C1039 1.409 . S
C1033 H1025 0.930 . S
C1033 C1031 1.419 . S
C1033 C1034 1.362 . S
C1034 H1026 0.930 . S
C1034 C1033 1.362 . S
C1034 C1037 1.409 . S
C1035 H1027 0.930 . S
C1035 C1036 1.355 . S
C1035 C1037 1.415 . S
C1036 C1035 1.355 . S
C1036 C1038 1.419 . S
C1037 C1032 1.425 . S
C1037 C1034 1.409 . S
C1037 C1035 1.415 . S
C1038 H1028 0.930 . S
C1038 C1036 1.419 . S
C1038 C1039 1.362 . S
C1039 H1029 0.930 . S
C1039 C1032 1.409 . S
C1039 C1038 1.362 . S
H1040 C1046 0.916 1_556 S
H1041 C1049 0.930 . S
H1042 C1050 0.930 . S
H1043 C1051 0.916 1_554 S
H1044 C1054 0.930 . S
H1045 C1055 0.930 . S
C1046 H1040 0.916 1_554 S
C1046 C1047 1.375 . S
C1046 C1048 1.407 1_554 S
C1047 C1046 1.375 . S
C1047 C1049 1.419 . S
C1048 C1046 1.407 1_556 S
C1048 C1053 1.425 1_556 S
C1048 C1055 1.409 . S
C1049 H1041 0.930 . S
C1049 C1047 1.419 . S
C1049 C1050 1.362 . S
C1050 H1042 0.930 . S
C1050 C1049 1.362 . S
C1050 C1053 1.409 . S
C1051 H1043 0.916 1_556 S
C1051 C1052 1.375 . S
C1051 C1053 1.408 1_556 S
C1052 C1051 1.375 . S
C1052 C1054 1.419 . S
C1053 C1048 1.425 1_554 S
C1053 C1050 1.409 . S
C1053 C1051 1.408 1_554 S
C1054 H1044 0.930 . S
C1054 C1052 1.419 . S
C1054 C1055 1.362 . S
C1055 H1045 0.930 . S
C1055 C1048 1.409 . S
C1055 C1054 1.362 . S
H1056 C1062 0.930 . S
H1057 C1065 0.930 . S
H1058 C1066 0.930 . S
H1059 C1067 0.930 . S
H1060 C1070 0.930 . S
H1061 C1071 0.930 . S
C1062 H1056 0.930 . S
C1062 C1063 1.355 . S
C1062 C1064 1.415 . S
C1063 C1062 1.355 . S
C1063 C1065 1.419 . S
C1064 C1062 1.415 . S
C1064 C1069 1.425 . S
C1064 C1071 1.409 . S
C1065 H1057 0.930 . S
C1065 C1063 1.419 . S
C1065 C1066 1.362 . S
C1066 H1058 0.930 . S
C1066 C1065 1.362 . S
C1066 C1069 1.409 . S
C1067 H1059 0.930 . S
C1067 C1068 1.355 . S
C1067 C1069 1.415 . S
C1068 C1067 1.355 . S
C1068 C1070 1.419 . S
C1069 C1064 1.425 . S
C1069 C1066 1.409 . S
C1069 C1067 1.415 . S
C1070 H1060 0.930 . S
C1070 C1068 1.419 . S
C1070 C1071 1.362 . S
C1071 H1061 0.930 . S
C1071 C1064 1.409 . S
C1071 C1070 1.362 . S
H1072 C1078 0.930 1_554 S
H1073 C1081 0.930 . S
H1074 C1082 0.930 . S
H1075 C1083 0.930 1_556 S
H1076 C1086 0.930 . S
H1077 C1087 0.930 . S
C1078 H1072 0.930 1_556 S
C1078 C1079 1.355 . S
C1078 C1080 1.415 1_556 S
C1079 C1078 1.355 . S
C1079 C1081 1.419 . S
C1080 C1078 1.415 1_554 S
C1080 C1085 1.425 1_554 S
C1080 C1087 1.409 . S
C1081 H1073 0.930 . S
C1081 C1079 1.419 . S
C1081 C1082 1.362 . S
C1082 H1074 0.930 . S
C1082 C1081 1.362 . S
C1082 C1085 1.409 . S
C1083 H1075 0.930 1_554 S
C1083 C1084 1.355 . S
C1083 C1085 1.415 1_554 S
C1084 C1083 1.355 . S
C1084 C1086 1.419 . S
C1085 C1080 1.425 1_556 S
C1085 C1082 1.409 . S
C1085 C1083 1.415 1_556 S
C1086 H1076 0.930 . S
C1086 C1084 1.419 . S
C1086 C1087 1.362 . S
C1087 H1077 0.930 . S
C1087 C1080 1.409 . S
C1087 C1086 1.362 . S
H1088 C1094 0.930 . S
H1089 C1097 0.930 . S
H1090 C1098 0.930 . S
H1091 C1099 0.930 . S
H1092 C1102 0.930 . S
H1093 C1103 0.930 . S
C1094 H1088 0.930 . S
C1094 C1095 1.355 . S
C1094 C1096 1.415 . S
C1095 C1094 1.355 . S
C1095 C1097 1.419 . S
C1096 C1094 1.415 . S
C1096 C1101 1.425 . S
C1096 C1103 1.409 . S
C1097 H1089 0.930 . S
C1097 C1095 1.419 . S
C1097 C1098 1.362 . S
C1098 H1090 0.930 . S
C1098 C1097 1.362 . S
C1098 C1101 1.409 . S
C1099 H1091 0.930 . S
C1099 C1100 1.355 . S
C1099 C1101 1.415 . S
C1100 C1099 1.355 . S
C1100 C1102 1.419 . S
C1101 C1096 1.425 . S
C1101 C1098 1.409 . S
C1101 C1099 1.415 . S
C1102 H1092 0.930 . S
C1102 C1100 1.419 . S
C1102 C1103 1.362 . S
C1103 H1093 0.930 . S
C1103 C1096 1.409 . S
C1103 C1102 1.362 . S
C343 C11 1.455 . S
C348 C221 1.452 . S
C359 C25 1.477 . S
C364 C235 1.430 . S
C375 C249 1.479 . S
C380 C39 1.427 . S
C391 C179 1.428 . S
C396 C53 1.479 . S
C407 C193 1.429 . S
C412 C67 1.478 . S
C423 C207 1.447 . S
C428 C81 1.460 . S
C439 C305 1.424 . S
C444 C95 1.482 . S
C455 C109 1.443 . S
C460 C319 1.464 . S
C471 C333 1.458 . S
C476 C123 1.450 . S
C487 C137 1.478 . S
C492 C263 1.429 . S
C503 C277 1.481 . S
C508 C151 1.426 . S
C519 C165 1.425 . S
C524 C291 1.482 . S
C535 C145 1.096 . S
C540 C5 0.981 . S
C551 C159 1.051 . S
C556 C19 1.072 . S
C567 C33 0.918 . S
C572 C89 1.056 . S
C583 C47 1.061 . S
C588 C103 1.062 . S
C599 C117 1.090 . S
C604 C61 0.950 . S
C615 C75 0.968 . S
C620 C131 1.095 . S
C631 C313 1.012 . S
C636 C173 1.092 . S
C647 C187 1.063 . S
C652 C327 0.920 . S
C663 C201 1.094 . S
C668 C257 1.003 . S
C679 C271 1.083 . S
C684 C215 1.033 . S
C695 C229 1.090 . S
C700 C285 1.017 . S
C711 C243 1.007 . S
C716 C299 1.093 . S
C727 C12 1.233 . S
C732 C264 1.201 . S
C743 C278 1.198 . S
C748 C26 1.236 . S
C759 C40 1.230 . S
C764 C292 1.204 . S
C775 C54 1.233 . S
C780 C306 1.201 . S
C791 C320 1.197 . S
C796 C68 1.238 . S
C807 C82 1.241 . S
C812 C334 1.194 . S
C823 C96 1.199 . S
C828 C180 1.235 . S
C839 C110 1.194 . S
C844 C194 1.240 . S
C855 C208 1.235 . S
C860 C124 1.200 . S
C871 C222 1.239 . S
C876 C138 1.195 . S
C887 C152 1.240 . S
C892 C236 1.194 . S
C903 C250 1.223 . S
C908 C166 1.211 . S
C919 C88 1.473 . S
C924 C4 1.531 . S
C935 C18 1.470 . S
C940 C102 1.527 . S
C951 C116 1.517 . S
C956 C32 1.516 . S
C967 C130 1.474 . S
C972 C46 1.533 . S
C983 C144 1.495 . S
C988 C60 1.482 . S
C999 C74 1.487 . S
C1004 C158 1.534 . S
C1015 C256 1.487 . S
C1020 C172 1.534 . S
C1031 C186 1.475 . S
C1036 C270 1.504 . S
C1047 C284 1.487 . S
C1052 C200 1.489 . S
C1063 C298 1.493 . S
C1068 C214 1.533 . S
C1079 C228 1.518 . S
C1084 C312 1.470 . S
C1095 C242 1.523 . S
C1100 C326 1.509 . S
