# Generated by pormake.
# Topology uke, (4)-cn, num edge types: 1
# Building blocks:
#     Node 0, Type 0, BuildingBlock: TATPOV_clean_sbu_0, # of connection points: 4
#     Node 1, Type 0, BuildingBlock: TATPOV_clean_sbu_0, # of connection points: 4
#     Node 2, Type 0, BuildingBlock: TATPOV_clean_sbu_0, # of connection points: 4
#     Node 3, Type 0, BuildingBlock: TATPOV_clean_sbu_0, # of connection points: 4
#     Node 4, Type 0, BuildingBlock: TATPOV_clean_sbu_0, # of connection points: 4
#     Node 5, Type 0, BuildingBlock: TATPOV_clean_sbu_0, # of connection points: 4
#     Node 6, Type 0, BuildingBlock: TATPOV_clean_sbu_0, # of connection points: 4
#     Node 7, Type 0, BuildingBlock: TATPOV_clean_sbu_0, # of connection points: 4
#     Node 8, Type 0, BuildingBlock: TATPOV_clean_sbu_0, # of connection points: 4
#     Node 9, Type 0, BuildingBlock: TATPOV_clean_sbu_0, # of connection points: 4
#     Node 10, Type 0, BuildingBlock: TATPOV_clean_sbu_0, # of connection points: 4
#     Node 11, Type 0, BuildingBlock: TATPOV_clean_sbu_0, # of connection points: 4
#     Node 12, Type 0, BuildingBlock: TATPOV_clean_sbu_0, # of connection points: 4
#     Node 13, Type 0, BuildingBlock: TATPOV_clean_sbu_0, # of connection points: 4
#     Node 14, Type 0, BuildingBlock: TATPOV_clean_sbu_0, # of connection points: 4
#     Node 15, Type 0, BuildingBlock: TATPOV_clean_sbu_0, # of connection points: 4
#     Node 16, Type 0, BuildingBlock: TATPOV_clean_sbu_0, # of connection points: 4
#     Node 17, Type 0, BuildingBlock: TATPOV_clean_sbu_0, # of connection points: 4
#     Node 18, Type 0, BuildingBlock: TATPOV_clean_sbu_0, # of connection points: 4
#     Node 19, Type 0, BuildingBlock: TATPOV_clean_sbu_0, # of connection points: 4
#     Node 20, Type 0, BuildingBlock: TATPOV_clean_sbu_0, # of connection points: 4
#     Node 21, Type 0, BuildingBlock: TATPOV_clean_sbu_0, # of connection points: 4
#     Node 22, Type 0, BuildingBlock: TATPOV_clean_sbu_0, # of connection points: 4
#     Node 23, Type 0, BuildingBlock: TATPOV_clean_sbu_0, # of connection points: 4
#     Node 24, Type 0, BuildingBlock: TATPOV_clean_sbu_0, # of connection points: 4
#     Node 25, Type 0, BuildingBlock: TATPOV_clean_sbu_0, # of connection points: 4
#     Node 26, Type 0, BuildingBlock: TATPOV_clean_sbu_0, # of connection points: 4
#     Node 27, Type 0, BuildingBlock: TATPOV_clean_sbu_0, # of connection points: 4
#     Node 28, Type 0, BuildingBlock: TATPOV_clean_sbu_0, # of connection points: 4
#     Node 29, Type 0, BuildingBlock: TATPOV_clean_sbu_0, # of connection points: 4
#     Node 30, Type 0, BuildingBlock: TATPOV_clean_sbu_0, # of connection points: 4
#     Node 31, Type 0, BuildingBlock: TATPOV_clean_sbu_0, # of connection points: 4
#     Edge 32, Type (0, 0), BuildingBlock: MIFKUJ_clean_linker_0, # of connection points: 2
#     Edge 33, Type (0, 0), BuildingBlock: MIFKUJ_clean_linker_0, # of connection points: 2
#     Edge 34, Type (0, 0), BuildingBlock: MIFKUJ_clean_linker_0, # of connection points: 2
#     Edge 35, Type (0, 0), BuildingBlock: MIFKUJ_clean_linker_0, # of connection points: 2
#     Edge 36, Type (0, 0), BuildingBlock: MIFKUJ_clean_linker_0, # of connection points: 2
#     Edge 37, Type (0, 0), BuildingBlock: MIFKUJ_clean_linker_0, # of connection points: 2
#     Edge 38, Type (0, 0), BuildingBlock: MIFKUJ_clean_linker_0, # of connection points: 2
#     Edge 39, Type (0, 0), BuildingBlock: MIFKUJ_clean_linker_0, # of connection points: 2
#     Edge 40, Type (0, 0), BuildingBlock: MIFKUJ_clean_linker_0, # of connection points: 2
#     Edge 41, Type (0, 0), BuildingBlock: MIFKUJ_clean_linker_0, # of connection points: 2
#     Edge 42, Type (0, 0), BuildingBlock: MIFKUJ_clean_linker_0, # of connection points: 2
#     Edge 43, Type (0, 0), BuildingBlock: MIFKUJ_clean_linker_0, # of connection points: 2
#     Edge 44, Type (0, 0), BuildingBlock: MIFKUJ_clean_linker_0, # of connection points: 2
#     Edge 45, Type (0, 0), BuildingBlock: MIFKUJ_clean_linker_0, # of connection points: 2
#     Edge 46, Type (0, 0), BuildingBlock: MIFKUJ_clean_linker_0, # of connection points: 2
#     Edge 47, Type (0, 0), BuildingBlock: MIFKUJ_clean_linker_0, # of connection points: 2
#     Edge 48, Type (0, 0), BuildingBlock: MIFKUJ_clean_linker_0, # of connection points: 2
#     Edge 49, Type (0, 0), BuildingBlock: MIFKUJ_clean_linker_0, # of connection points: 2
#     Edge 50, Type (0, 0), BuildingBlock: MIFKUJ_clean_linker_0, # of connection points: 2
#     Edge 51, Type (0, 0), BuildingBlock: MIFKUJ_clean_linker_0, # of connection points: 2
#     Edge 52, Type (0, 0), BuildingBlock: MIFKUJ_clean_linker_0, # of connection points: 2
#     Edge 53, Type (0, 0), BuildingBlock: MIFKUJ_clean_linker_0, # of connection points: 2
#     Edge 54, Type (0, 0), BuildingBlock: MIFKUJ_clean_linker_0, # of connection points: 2
#     Edge 55, Type (0, 0), BuildingBlock: MIFKUJ_clean_linker_0, # of connection points: 2
#     Edge 56, Type (0, 0), BuildingBlock: MIFKUJ_clean_linker_0, # of connection points: 2
#     Edge 57, Type (0, 0), BuildingBlock: MIFKUJ_clean_linker_0, # of connection points: 2
#     Edge 58, Type (0, 0), BuildingBlock: MIFKUJ_clean_linker_0, # of connection points: 2
#     Edge 59, Type (0, 0), BuildingBlock: MIFKUJ_clean_linker_0, # of connection points: 2
#     Edge 60, Type (0, 0), BuildingBlock: MIFKUJ_clean_linker_0, # of connection points: 2
#     Edge 61, Type (0, 0), BuildingBlock: MIFKUJ_clean_linker_0, # of connection points: 2
#     Edge 62, Type (0, 0), BuildingBlock: MIFKUJ_clean_linker_0, # of connection points: 2
#     Edge 63, Type (0, 0), BuildingBlock: MIFKUJ_clean_linker_0, # of connection points: 2
#     Edge 64, Type (0, 0), BuildingBlock: MIFKUJ_clean_linker_0, # of connection points: 2
#     Edge 65, Type (0, 0), BuildingBlock: MIFKUJ_clean_linker_0, # of connection points: 2
#     Edge 66, Type (0, 0), BuildingBlock: MIFKUJ_clean_linker_0, # of connection points: 2
#     Edge 67, Type (0, 0), BuildingBlock: MIFKUJ_clean_linker_0, # of connection points: 2
#     Edge 68, Type (0, 0), BuildingBlock: MIFKUJ_clean_linker_0, # of connection points: 2
#     Edge 69, Type (0, 0), BuildingBlock: MIFKUJ_clean_linker_0, # of connection points: 2
#     Edge 70, Type (0, 0), BuildingBlock: MIFKUJ_clean_linker_0, # of connection points: 2
#     Edge 71, Type (0, 0), BuildingBlock: MIFKUJ_clean_linker_0, # of connection points: 2
#     Edge 72, Type (0, 0), BuildingBlock: MIFKUJ_clean_linker_0, # of connection points: 2
#     Edge 73, Type (0, 0), BuildingBlock: MIFKUJ_clean_linker_0, # of connection points: 2
#     Edge 74, Type (0, 0), BuildingBlock: MIFKUJ_clean_linker_0, # of connection points: 2
#     Edge 75, Type (0, 0), BuildingBlock: MIFKUJ_clean_linker_0, # of connection points: 2
#     Edge 76, Type (0, 0), BuildingBlock: MIFKUJ_clean_linker_0, # of connection points: 2
#     Edge 77, Type (0, 0), BuildingBlock: MIFKUJ_clean_linker_0, # of connection points: 2
#     Edge 78, Type (0, 0), BuildingBlock: MIFKUJ_clean_linker_0, # of connection points: 2
#     Edge 79, Type (0, 0), BuildingBlock: MIFKUJ_clean_linker_0, # of connection points: 2
#     Edge 80, Type (0, 0), BuildingBlock: MIFKUJ_clean_linker_0, # of connection points: 2
#     Edge 81, Type (0, 0), BuildingBlock: MIFKUJ_clean_linker_0, # of connection points: 2
#     Edge 82, Type (0, 0), BuildingBlock: MIFKUJ_clean_linker_0, # of connection points: 2
#     Edge 83, Type (0, 0), BuildingBlock: MIFKUJ_clean_linker_0, # of connection points: 2
#     Edge 84, Type (0, 0), BuildingBlock: MIFKUJ_clean_linker_0, # of connection points: 2
#     Edge 85, Type (0, 0), BuildingBlock: MIFKUJ_clean_linker_0, # of connection points: 2
#     Edge 86, Type (0, 0), BuildingBlock: MIFKUJ_clean_linker_0, # of connection points: 2
#     Edge 87, Type (0, 0), BuildingBlock: MIFKUJ_clean_linker_0, # of connection points: 2
#     Edge 88, Type (0, 0), BuildingBlock: MIFKUJ_clean_linker_0, # of connection points: 2
#     Edge 89, Type (0, 0), BuildingBlock: MIFKUJ_clean_linker_0, # of connection points: 2
#     Edge 90, Type (0, 0), BuildingBlock: MIFKUJ_clean_linker_0, # of connection points: 2
#     Edge 91, Type (0, 0), BuildingBlock: MIFKUJ_clean_linker_0, # of connection points: 2
#     Edge 92, Type (0, 0), BuildingBlock: MIFKUJ_clean_linker_0, # of connection points: 2
#     Edge 93, Type (0, 0), BuildingBlock: MIFKUJ_clean_linker_0, # of connection points: 2
#     Edge 94, Type (0, 0), BuildingBlock: MIFKUJ_clean_linker_0, # of connection points: 2
#     Edge 95, Type (0, 0), BuildingBlock: MIFKUJ_clean_linker_0, # of connection points: 2
# Relax obj value: 0.186
# Max RMSD: 0.215
# Mean RMSD: 0.215
data_MOF--net-uke--node1-TATPOV_clean_sbu_0--edge1-MIFKUJ_clean_linker_0
_symmetry_space_group_name_H-M    P1
_symmetry_Int_Tables_number       1
_symmetry_cell_setting            triclinic
loop_
_symmetry_equiv_pos_as_xyz
'x, y, z'
_cell_length_a     35.597718
_cell_length_b     134.26091
_cell_length_c     58.862949
_cell_angle_alpha  89.983689
_cell_angle_beta   89.993177
_cell_angle_gamma 90.006008
loop_
_atom_site_label
_atom_site_type_symbol
_atom_site_fract_x
_atom_site_fract_y
_atom_site_fract_z
_atom_type_partial_charge
Zn0 Zn 0.19587 0.05113 0.30361 0.0
Zn1 Zn 0.12596 0.04543 0.30862 0.0
O2 O 0.16039 0.03381 0.31793 0.0
O3 O 0.2181 0.03942 0.31993 0.0
O4 O 0.07528 0.04088 0.3195 0.0
O5 O 0.18787 0.06427 0.31919 0.0
O6 O 0.12922 0.05945 0.32276 0.0
C7 C 0.19512 0.03229 0.3219 0.0
C8 C 0.15304 0.04746 0.26115 0.0
O9 O 0.12469 0.04609 0.27401 0.0
O10 O 0.18498 0.04944 0.26964 0.0
C11 C 0.04539 0.04534 0.31358 0.0
O12 O 0.04745 0.05257 0.29857 0.0
C13 C 0.15464 0.06601 0.32567 0.0
Zn14 Zn 0.0481 0.18184 0.26522 0.0
Zn15 Zn 0.14587 0.18751 0.29126 0.0
O16 O 0.11934 0.20067 0.29916 0.0
O17 O 0.07954 0.19159 0.28183 0.0
O18 O 0.1937 0.18725 0.30978 0.0
O19 O 0.05741 0.16952 0.28391 0.0
O20 O 0.11415 0.17433 0.29662 0.0
C21 C 0.08803 0.20007 0.28921 0.0
C22 C 0.13104 0.18818 0.24403 0.0
O23 O 0.15881 0.189 0.2575 0.0
O24 O 0.09939 0.18576 0.25214 0.0
C25 C 0.21644 0.19447 0.30716 0.0
O26 O 0.20849 0.20137 0.29208 0.0
C27 C 0.08716 0.16793 0.29556 0.0
Zn28 Zn 0.19415 0.18836 0.96237 0.0
Zn29 Zn 0.12267 0.19168 0.95475 0.0
O30 O 0.15118 0.20396 0.94285 0.0
O31 O 0.21077 0.1998 0.94278 0.0
O32 O 0.07104 0.19343 0.94188 0.0
O33 O 0.19405 0.17435 0.95032 0.0
O34 O 0.13461 0.17748 0.94347 0.0
C35 C 0.18531 0.20611 0.93855 0.0
C36 C 0.14677 0.19283 0.00277 0.0
O37 O 0.11885 0.19262 0.98926 0.0
O38 O 0.17982 0.19141 0.99534 0.0
C39 C 0.0476 0.20045 0.94484 0.0
O40 O 0.05556 0.20773 0.95893 0.0
C41 C 0.16252 0.17154 0.94278 0.0
Zn42 Zn 0.07238 0.05615 1.00006 0.0
Zn43 Zn 0.17106 0.04863 0.97256 0.0
O44 O 0.13935 0.03616 0.96489 0.0
O45 O 0.10516 0.04643 0.9833 0.0
O46 O 0.21816 0.04826 0.95339 0.0
O47 O 0.0849 0.06762 0.97865 0.0
O48 O 0.14123 0.0622 0.96578 0.0
C49 C 0.10772 0.03811 0.97352 0.0
C50 C 0.15497 0.04926 0.01784 0.0
O51 O 0.18462 0.04741 0.00666 0.0
O52 O 0.12644 0.05164 0.00622 0.0
C53 C 0.21681 0.04429 0.93378 0.0
O54 O 0.18478 0.04063 0.92651 0.0
C55 C 0.11462 0.06874 0.96651 0.0
Zn56 Zn 0.80853 0.93755 0.7055 0.0
Zn57 Zn 0.88054 0.94197 0.70185 0.0
O58 O 0.85159 0.95472 0.69451 0.0
O59 O 0.79157 0.95101 0.69429 0.0
O60 O 0.93226 0.94451 0.68957 0.0
O61 O 0.80933 0.9251 0.6861 0.0
O62 O 0.86972 0.92815 0.68893 0.0
C63 C 0.81748 0.95743 0.69246 0.0
C64 C 0.85461 0.9383 0.74829 0.0
O65 O 0.88247 0.94079 0.73595 0.0
O66 O 0.82282 0.9365 0.73932 0.0
C67 C 0.9569 0.95065 0.69641 0.0
O68 O 0.9501 0.95618 0.71436 0.0
C69 C 0.84299 0.92244 0.683 0.0
Zn70 Zn 0.92722 0.80119 0.72387 0.0
Zn71 Zn 0.85969 0.7985 0.71024 0.0
O72 O 0.89078 0.78659 0.69881 0.0
O73 O 0.94912 0.79166 0.70116 0.0
O74 O 0.80889 0.79674 0.69558 0.0
O75 O 0.9271 0.81587 0.71802 0.0
O76 O 0.87451 0.81269 0.6998 0.0
C77 C 0.92564 0.78507 0.69532 0.0
C78 C 0.87585 0.79514 0.75943 0.0
O79 O 0.85067 0.79707 0.74467 0.0
O80 O 0.91027 0.7957 0.75421 0.0
C81 C 0.79451 0.78834 0.69073 0.0
O82 O 0.81265 0.78015 0.69613 0.0
C83 C 0.90062 0.81872 0.70529 0.0
Zn84 Zn 0.8203 0.80039 0.04177 0.0
Zn85 Zn 0.89196 0.79954 0.04752 0.0
O86 O 0.86853 0.7863 0.05819 0.0
O87 O 0.80866 0.7892 0.06326 0.0
O88 O 0.94581 0.7986 0.05796 0.0
O89 O 0.8153 0.81459 0.05172 0.0
O90 O 0.87478 0.81306 0.06101 0.0
C91 C 0.83621 0.78327 0.06441 0.0
C92 C 0.86483 0.79739 1.0003 0.0
O93 O 0.89304 0.79944 0.01276 0.0
O94 O 0.83223 0.79685 0.00882 0.0
C95 C 0.96326 0.79038 0.05993 0.0
O96 O 0.9466 0.78208 0.05373 0.0
C97 C 0.84461 0.81819 0.06062 0.0
Zn98 Zn 0.92758 0.93624 0.03411 0.0
Zn99 Zn 0.85563 0.94162 0.0383 0.0
O100 O 0.88752 0.95367 0.04721 0.0
O101 O 0.94673 0.94914 0.04718 0.0
O102 O 0.80493 0.94632 0.04832 0.0
O103 O 0.91958 0.92395 0.05339 0.0
O104 O 0.85992 0.92813 0.05456 0.0
C105 C 0.92201 0.9558 0.05008 0.0
C106 C 0.88363 0.938 0.99137 0.0
O107 O 0.8556 0.94011 0.00395 0.0
O108 O 0.91546 0.93612 1.00012 0.0
C109 C 0.77439 0.94157 0.04588 0.0
O110 O 0.77424 0.93324 0.03418 0.0
C111 C 0.8862 0.92207 0.05944 0.0
Zn112 Zn 0.17637 0.55191 0.78309 0.0
Zn113 Zn 0.10851 0.54716 0.79343 0.0
O114 O 0.14392 0.53576 0.80312 0.0
O115 O 0.20059 0.54206 0.80374 0.0
O116 O 0.05967 0.54348 0.80853 0.0
O117 O 0.17243 0.56609 0.7927 0.0
O118 O 0.11581 0.56176 0.80385 0.0
C119 C 0.17892 0.53476 0.80708 0.0
C120 C 0.12854 0.54574 0.74484 0.0
O121 O 0.10162 0.54615 0.75907 0.0
O122 O 0.16207 0.54738 0.75106 0.0
C123 C 0.02803 0.54691 0.80234 0.0
O124 O 0.02627 0.55267 0.78431 0.0
C125 C 0.14161 0.56831 0.80205 0.0
Zn126 Zn 0.06054 0.69076 0.78818 0.0
Zn127 Zn 0.13017 0.69346 0.79688 0.0
O128 O 0.10015 0.70564 0.80825 0.0
O129 O 0.04112 0.70111 0.80962 0.0
O130 O 0.1807 0.69504 0.8119 0.0
O131 O 0.0586 0.67633 0.79595 0.0
O132 O 0.11707 0.67897 0.80614 0.0
C133 C 0.06602 0.70766 0.81296 0.0
C134 C 0.10826 0.69621 0.74899 0.0
O135 O 0.13609 0.69501 0.76236 0.0
O136 O 0.075 0.69515 0.7563 0.0
C137 C 0.20883 0.70026 0.80596 0.0
O138 O 0.2072 0.70555 0.78721 0.0
C139 C 0.089 0.67312 0.80428 0.0
Zn140 Zn 0.1767 0.68449 0.47511 0.0
Zn141 Zn 0.11405 0.69078 0.45945 0.0
O142 O 0.15443 0.70118 0.44979 0.0
O143 O 0.20796 0.69367 0.4566 0.0
O144 O 0.06804 0.69463 0.4411 0.0
O145 O 0.17171 0.6704 0.46559 0.0
O146 O 0.11985 0.6759 0.44972 0.0
C147 C 0.1903 0.70116 0.44916 0.0
C148 C 0.12603 0.69234 0.50967 0.0
O149 O 0.10205 0.69278 0.49358 0.0
O150 O 0.15918 0.68936 0.5058 0.0
C151 C 0.03905 0.69949 0.44715 0.0
O152 O 0.03682 0.70295 0.46798 0.0
C153 C 0.14306 0.66884 0.45347 0.0
Zn154 Zn 0.06876 0.54916 0.4612 0.0
Zn155 Zn 0.13795 0.54561 0.45456 0.0
O156 O 0.10735 0.53304 0.44522 0.0
O157 O 0.04987 0.53844 0.44091 0.0
O158 O 0.19129 0.54291 0.44389 0.0
O159 O 0.06894 0.563 0.44971 0.0
O160 O 0.12718 0.55955 0.4402 0.0
C161 C 0.07331 0.5314 0.43958 0.0
C162 C 0.11129 0.5455 0.50258 0.0
O163 O 0.13971 0.54609 0.48946 0.0
O164 O 0.07834 0.546 0.49451 0.0
C165 C 0.20083 0.53531 0.43231 0.0
O166 O 0.17571 0.52841 0.42789 0.0
C167 C 0.09929 0.56553 0.44024 0.0
Zn168 Zn 0.80449 0.44118 0.21284 0.0
Zn169 Zn 0.87351 0.44401 0.20176 0.0
O170 O 0.84469 0.45682 0.19327 0.0
O171 O 0.78489 0.45335 0.19734 0.0
O172 O 0.92334 0.44557 0.18554 0.0
O173 O 0.7976 0.42773 0.2002 0.0
O174 O 0.85722 0.42975 0.19141 0.0
C175 C 0.81039 0.45951 0.19224 0.0
C176 C 0.8566 0.44369 0.25119 0.0
O177 O 0.88228 0.44463 0.23623 0.0
O178 O 0.82287 0.44215 0.24529 0.0
C179 C 0.95493 0.44824 0.1936 0.0
O180 O 0.95766 0.45049 0.21526 0.0
C181 C 0.82768 0.42435 0.19189 0.0
Zn182 Zn 0.93021 0.30475 0.22568 0.0
Zn183 Zn 0.87233 0.29854 0.20649 0.0
O184 O 0.91558 0.28887 0.19797 0.0
O185 O 0.966 0.29767 0.20532 0.0
O186 O 0.82773 0.29422 0.18757 0.0
O187 O 0.91926 0.31917 0.22169 0.0
O188 O 0.87621 0.31356 0.19822 0.0
C189 C 0.95128 0.28974 0.19795 0.0
C190 C 0.8801 0.2952 0.25655 0.0
O191 O 0.8574 0.296 0.2399 0.0
O192 O 0.91413 0.29772 0.25421 0.0
C193 C 0.79468 0.29645 0.19404 0.0
O194 O 0.79016 0.30103 0.21357 0.0
C195 C 0.89439 0.32081 0.20687 0.0
Zn196 Zn 0.81744 0.30748 0.53812 0.0
Zn197 Zn 0.88673 0.30014 0.54072 0.0
O198 O 0.85201 0.28911 0.55312 0.0
O199 O 0.79534 0.29555 0.55337 0.0
O200 O 0.93942 0.29528 0.5472 0.0
O201 O 0.82984 0.31962 0.55605 0.0
O202 O 0.88797 0.31408 0.55557 0.0
C203 C 0.81693 0.28824 0.557 0.0
C204 C 0.85394 0.30366 0.49426 0.0
O205 O 0.88154 0.30069 0.50628 0.0
O206 O 0.82458 0.30704 0.50375 0.0
C207 C 0.94786 0.28653 0.55374 0.0
O208 O 0.9215 0.27971 0.55493 0.0
C209 C 0.86415 0.32076 0.56089 0.0
Zn210 Zn 0.93505 0.44203 0.52617 0.0
Zn211 Zn 0.86836 0.44485 0.53965 0.0
O212 O 0.89902 0.45631 0.55432 0.0
O213 O 0.95646 0.45077 0.55036 0.0
O214 O 0.81733 0.44625 0.55417 0.0
O215 O 0.93535 0.42734 0.53071 0.0
O216 O 0.88184 0.43027 0.54802 0.0
C217 C 0.93409 0.45722 0.55823 0.0
C218 C 0.88664 0.44885 0.49047 0.0
O219 O 0.86111 0.44711 0.50516 0.0
O220 O 0.92094 0.44797 0.49577 0.0
C221 C 0.79582 0.45379 0.55273 0.0
O222 O 0.80596 0.4614 0.54011 0.0
C223 C 0.90805 0.42426 0.54249 0.0
Zn224 Zn 0.69009 0.05715 0.77051 0.0
Zn225 Zn 0.62435 0.05172 0.78456 0.0
O226 O 0.66167 0.0412 0.7968 0.0
O227 O 0.71724 0.04789 0.7914 0.0
O228 O 0.57575 0.04863 0.80071 0.0
O229 O 0.68466 0.0715 0.77856 0.0
O230 O 0.63148 0.06653 0.79369 0.0
C231 C 0.69732 0.04083 0.79899 0.0
C232 C 0.64088 0.04917 0.7352 0.0
O233 O 0.61543 0.04935 0.75043 0.0
O234 O 0.67409 0.05185 0.73989 0.0
C235 C 0.54913 0.04291 0.79462 0.0
O236 O 0.55183 0.03795 0.77545 0.0
C237 C 0.65539 0.07341 0.78989 0.0
Zn238 Zn 0.5723 0.18666 0.79586 0.0
Zn239 Zn 0.64346 0.19221 0.79882 0.0
O240 O 0.61231 0.20476 0.80315 0.0
O241 O 0.55301 0.20031 0.80344 0.0
O242 O 0.69463 0.19711 0.80742 0.0
O243 O 0.57777 0.17589 0.81932 0.0
O244 O 0.63779 0.17965 0.81868 0.0
C245 C 0.57773 0.20708 0.80421 0.0
C246 C 0.61616 0.18588 0.75322 0.0
O247 O 0.64351 0.18907 0.76514 0.0
O248 O 0.58467 0.18403 0.76245 0.0
C249 C 0.72517 0.19292 0.80176 0.0
O250 O 0.72419 0.18513 0.78827 0.0
C251 C 0.61107 0.17412 0.82562 0.0
Zn252 Zn 0.68509 0.18978 0.47282 0.0
Zn253 Zn 0.61412 0.19442 0.46301 0.0
O254 O 0.64513 0.20645 0.45198 0.0
O255 O 0.70361 0.20142 0.45486 0.0
O256 O 0.56089 0.19703 0.45259 0.0
O257 O 0.6819 0.17638 0.45814 0.0
O258 O 0.62452 0.18074 0.4485 0.0
C259 C 0.68011 0.20802 0.44909 0.0
C260 C 0.63747 0.1933 0.51229 0.0
O261 O 0.61117 0.19402 0.49772 0.0
O262 O 0.67106 0.19184 0.50595 0.0
C263 C 0.55029 0.20466 0.44149 0.0
O264 O 0.57451 0.2118 0.43723 0.0
C265 C 0.65138 0.17446 0.44808 0.0
Zn266 Zn 0.56124 0.06019 0.45852 0.0
Zn267 Zn 0.63016 0.05458 0.44946 0.0
O268 O 0.59835 0.04196 0.445 0.0
O269 O 0.54005 0.04706 0.44903 0.0
O270 O 0.68082 0.05101 0.4368 0.0
O271 O 0.56109 0.07188 0.43763 0.0
O272 O 0.61978 0.06761 0.43169 0.0
C273 C 0.56327 0.04008 0.4456 0.0
C274 C 0.6116 0.0591 0.49794 0.0
O275 O 0.63649 0.05649 0.48356 0.0
O276 O 0.57874 0.06133 0.49132 0.0
C277 C 0.7067 0.04562 0.44519 0.0
O278 O 0.70184 0.04142 0.46513 0.0
C279 C 0.59236 0.07351 0.42817 0.0
Zn280 Zn 0.31058 0.94168 0.21413 0.0
Zn281 Zn 0.37929 0.94605 0.20243 0.0
O282 O 0.34504 0.95744 0.19125 0.0
O283 O 0.28739 0.95182 0.19355 0.0
O284 O 0.42828 0.94856 0.18652 0.0
O285 O 0.31343 0.92732 0.20468 0.0
O286 O 0.37037 0.9314 0.1937 0.0
C287 C 0.30991 0.95871 0.18814 0.0
C288 C 0.36129 0.94801 0.25123 0.0
O289 O 0.38742 0.94761 0.23649 0.0
O290 O 0.32749 0.94621 0.24576 0.0
C291 C 0.4585 0.95247 0.19376 0.0
O292 O 0.46021 0.95584 0.21468 0.0
C293 C 0.34442 0.92493 0.19573 0.0
Zn294 Zn 0.44304 0.80539 0.21395 0.0
Zn295 Zn 0.37126 0.8015 0.20579 0.0
O296 O 0.39807 0.78895 0.19462 0.0
O297 O 0.45788 0.79235 0.19958 0.0
O298 O 0.31789 0.79977 0.19516 0.0
O299 O 0.44439 0.81822 0.19692 0.0
O300 O 0.38406 0.81537 0.19249 0.0
C301 C 0.43239 0.78632 0.1936 0.0
C302 C 0.39619 0.80297 0.25444 0.0
O303 O 0.36991 0.80104 0.24043 0.0
O304 O 0.42848 0.80547 0.24736 0.0
C305 C 0.30067 0.7915 0.19372 0.0
O306 O 0.31741 0.78333 0.20063 0.0
C307 C 0.41257 0.82101 0.18984 0.0
Zn308 Zn 0.31874 0.80001 0.52936 0.0
Zn309 Zn 0.38591 0.79672 0.54172 0.0
O310 O 0.35425 0.78478 0.55341 0.0
O311 O 0.29665 0.79042 0.55141 0.0
O312 O 0.43704 0.79491 0.5559 0.0
O313 O 0.31766 0.8145 0.53652 0.0
O314 O 0.37314 0.81128 0.55112 0.0
C315 C 0.31916 0.78354 0.55681 0.0
C316 C 0.36788 0.79374 0.49273 0.0
O317 O 0.39366 0.79505 0.50744 0.0
O318 O 0.3337 0.79488 0.49816 0.0
C319 C 0.45387 0.78667 0.559 0.0
O320 O 0.43795 0.77836 0.55214 0.0
C321 C 0.34627 0.81737 0.54739 0.0
Zn322 Zn 0.42054 0.93482 0.52824 0.0
Zn323 Zn 0.35263 0.94119 0.5395 0.0
O324 O 0.38811 0.95284 0.54744 0.0
O325 O 0.44476 0.94737 0.53943 0.0
O326 O 0.30215 0.94555 0.55166 0.0
O327 O 0.41757 0.92287 0.54815 0.0
O328 O 0.35928 0.92737 0.55495 0.0
C329 C 0.42347 0.95426 0.54646 0.0
C330 C 0.36922 0.93735 0.48997 0.0
O331 O 0.34632 0.94051 0.50496 0.0
O332 O 0.40147 0.93422 0.49573 0.0
C333 C 0.30044 0.95044 0.57013 0.0
O334 O 0.33179 0.95289 0.58048 0.0
C335 C 0.38614 0.92116 0.55735 0.0
Zn336 Zn 0.69384 0.55349 0.29629 0.0
Zn337 Zn 0.6211 0.54983 0.3009 0.0
O338 O 0.64888 0.53753 0.31325 0.0
O339 O 0.7086 0.54154 0.3147 0.0
O340 O 0.56755 0.54762 0.31082 0.0
O341 O 0.69117 0.56705 0.31046 0.0
O342 O 0.63086 0.56388 0.31374 0.0
C343 C 0.68271 0.53526 0.31814 0.0
C344 C 0.65157 0.55021 0.25359 0.0
O345 O 0.62251 0.54963 0.2662 0.0
O346 O 0.68367 0.55168 0.26235 0.0
C347 C 0.54856 0.53965 0.30884 0.0
O348 O 0.56326 0.53198 0.29819 0.0
C349 C 0.65863 0.56975 0.31643 0.0
Zn350 Zn 0.56463 0.6882 0.2845 0.0
Zn351 Zn 0.63476 0.6936 0.29426 0.0
O352 O 0.6019 0.70524 0.30491 0.0
O353 O 0.54365 0.70037 0.29963 0.0
O354 O 0.68562 0.69743 0.30693 0.0
O355 O 0.56788 0.67538 0.30124 0.0
O356 O 0.62659 0.67951 0.30805 0.0
C357 C 0.56675 0.70693 0.3062 0.0
C358 C 0.61277 0.69161 0.24484 0.0
O359 O 0.63809 0.69386 0.25932 0.0
O360 O 0.5805 0.68882 0.25138 0.0
C361 C 0.71713 0.69386 0.30082 0.0
O362 O 0.71831 0.68744 0.28398 0.0
C363 C 0.59951 0.67331 0.30975 0.0
Zn364 Zn 0.68908 0.69432 0.96463 0.0
Zn365 Zn 0.61979 0.69697 0.95432 0.0
O366 O 0.6488 0.70942 0.94407 0.0
O367 O 0.70783 0.70488 0.94318 0.0
O368 O 0.56854 0.69949 0.94106 0.0
O369 O 0.68887 0.67994 0.95586 0.0
O370 O 0.63327 0.6831 0.94122 0.0
C371 C 0.68295 0.71139 0.93945 0.0
C372 C 0.64092 0.69835 0.00345 0.0
O373 O 0.61434 0.69707 0.9892 0.0
O374 O 0.67479 0.69823 0.99681 0.0
C375 C 0.53928 0.69448 0.94583 0.0
O376 O 0.54125 0.68743 0.96126 0.0
C377 C 0.66068 0.67716 0.94446 0.0
Zn378 Zn 0.56283 0.55957 0.97333 0.0
Zn379 Zn 0.63284 0.55537 0.96244 0.0
O380 O 0.60288 0.54267 0.95498 0.0
O381 O 0.54369 0.54694 0.95916 0.0
O382 O 0.68295 0.55283 0.9475 0.0
O383 O 0.56087 0.57256 0.95681 0.0
O384 O 0.61895 0.56887 0.94741 0.0
C385 C 0.56809 0.54047 0.95401 0.0
C386 C 0.61508 0.55766 0.01199 0.0
O387 O 0.64051 0.55624 0.99704 0.0
O388 O 0.58135 0.55915 0.00592 0.0
C389 C 0.71196 0.54823 0.95446 0.0
O390 O 0.71221 0.54431 0.97492 0.0
C391 C 0.59093 0.57478 0.94657 0.0
Zn392 Zn 0.32508 0.43908 0.71495 0.0
Zn393 Zn 0.39623 0.44381 0.70828 0.0
O394 O 0.36355 0.45578 0.69802 0.0
O395 O 0.30499 0.4507 0.69763 0.0
O396 O 0.44938 0.4473 0.69824 0.0
O397 O 0.3306 0.42585 0.69986 0.0
O398 O 0.38918 0.43004 0.69304 0.0
C399 C 0.32893 0.45746 0.69392 0.0
C400 C 0.36883 0.44191 0.7566 0.0
O401 O 0.39687 0.44277 0.74322 0.0
O402 O 0.33602 0.44071 0.74867 0.0
C403 C 0.45699 0.45469 0.68547 0.0
O404 O 0.43003 0.46088 0.67977 0.0
C405 C 0.36232 0.4238 0.69139 0.0
Zn406 Zn 0.37584 0.30931 0.74471 0.0
Zn407 Zn 0.32926 0.30292 0.71814 0.0
O408 O 0.36838 0.29199 0.71306 0.0
O409 O 0.3978 0.29554 0.74491 0.0
O410 O 0.28669 0.29942 0.69707 0.0
O411 O 0.39797 0.31971 0.725 0.0
O412 O 0.34592 0.31692 0.70611 0.0
C413 C 0.39226 0.28975 0.7283 0.0
C414 C 0.31341 0.30634 0.76887 0.0
O415 O 0.30812 0.30117 0.751 0.0
O416 O 0.33873 0.31293 0.7689 0.0
C417 C 0.26567 0.29184 0.69933 0.0
O418 O 0.27105 0.28578 0.71657 0.0
C419 C 0.37549 0.32212 0.70936 0.0
Zn420 Zn 0.31066 0.30197 0.04757 0.0
Zn421 Zn 0.38138 0.29805 0.05209 0.0
O422 O 0.35254 0.28522 0.05993 0.0
O423 O 0.29273 0.28909 0.06095 0.0
O424 O 0.43339 0.29531 0.06431 0.0
O425 O 0.30952 0.31479 0.06431 0.0
O426 O 0.37016 0.31184 0.06691 0.0
C427 C 0.31841 0.28262 0.06272 0.0
C428 C 0.35416 0.30066 0.00486 0.0
O429 O 0.38274 0.29879 0.01722 0.0
O430 O 0.32248 0.30236 0.01391 0.0
C431 C 0.46463 0.29474 0.05394 0.0
O432 O 0.46557 0.29569 0.03174 0.0
C433 C 0.34188 0.31744 0.07064 0.0
Zn434 Zn 0.43542 0.4332 0.03747 0.0
Zn435 Zn 0.36514 0.43768 0.0462 0.0
O436 O 0.39474 0.45082 0.04972 0.0
O437 O 0.45422 0.44672 0.04626 0.0
O438 O 0.31423 0.44126 0.05942 0.0
O439 O 0.43839 0.42171 0.05867 0.0
O440 O 0.3789 0.42504 0.06511 0.0
C441 C 0.42933 0.45329 0.04948 0.0
C442 C 0.38493 0.43217 0.99809 0.0
O443 O 0.3592 0.4348 0.01197 0.0
O444 O 0.41833 0.43093 0.00504 0.0
C445 C 0.28189 0.4398 0.05086 0.0
O446 O 0.27915 0.43576 0.03061 0.0
C447 C 0.40783 0.41961 0.06848 0.0
H448 H 0.20841 0.04216 0.04718 0.0
H449 H 0.2038 0.04085 0.08865 0.0
H450 H 0.09271 0.05363 0.08637 0.0
H451 H 0.09697 0.05492 0.04506 0.0
H452 H 0.13766 0.06228 0.11903 0.0
H453 H 0.0996 0.02973 0.09602 0.0
H454 H 0.10392 0.01372 0.07571 0.0
H455 H 0.20627 0.00687 0.11103 0.0
H456 H 0.20298 0.02298 0.13116 0.0
H457 H 0.09132 0.05116 0.23466 0.0
H458 H 0.08788 0.05056 0.19296 0.0
H459 H 0.2031 0.04072 0.19013 0.0
H460 H 0.20702 0.04154 0.23156 0.0
H461 H 0.15187 0.03021 0.16013 0.0
H462 H 0.19055 0.06344 0.18148 0.0
H463 H 0.18469 0.07939 0.20192 0.0
H464 H 0.07856 0.08482 0.16955 0.0
H465 H 0.08351 0.0688 0.14918 0.0
C466 C 0.18307 0.04471 0.05554 0.0
C467 C 0.15313 0.04868 0.04289 0.0
C468 C 0.18038 0.0439 0.07918 0.0
C469 C 0.1478 0.04709 0.09052 0.0
C470 C 0.11807 0.05114 0.07794 0.0
C471 C 0.1206 0.05187 0.05433 0.0
C472 C 0.14506 0.04642 0.11558 0.0
C473 C 0.14016 0.05525 0.128 0.0
C474 C 0.14884 0.03725 0.12723 0.0
C475 C 0.15123 0.02761 0.11495 0.0
C476 C 0.12326 0.02487 0.09926 0.0
C477 C 0.12549 0.01577 0.0878 0.0
C478 C 0.15541 0.00929 0.09203 0.0
C479 C 0.18315 0.01191 0.10773 0.0
C480 C 0.18111 0.02102 0.11917 0.0
C481 C 0.11576 0.04881 0.22511 0.0
C482 C 0.14956 0.04652 0.23626 0.0
C483 C 0.11378 0.04847 0.20137 0.0
C484 C 0.14532 0.04564 0.18857 0.0
C485 C 0.17851 0.04292 0.19975 0.0
C486 C 0.18076 0.04347 0.22337 0.0
C487 C 0.14465 0.04607 0.16347 0.0
C488 C 0.14904 0.03721 0.15109 0.0
C489 C 0.14019 0.05521 0.15182 0.0
C490 C 0.13714 0.06485 0.16405 0.0
C491 C 0.16575 0.06798 0.17891 0.0
C492 C 0.16265 0.07704 0.19044 0.0
C493 C 0.1312 0.0831 0.18711 0.0
C494 C 0.10285 0.08011 0.17217 0.0
C495 C 0.1058 0.07103 0.16062 0.0
H496 H 0.12885 0.09011 0.19604 0.0
H497 H 0.15706 0.00224 0.08318 0.0
H498 H 0.19565 0.2022 0.03075 0.0
H499 H 0.191 0.20427 0.07182 0.0
H500 H 0.0823 0.19005 0.07123 0.0
H501 H 0.08618 0.18833 0.02972 0.0
H502 H 0.08617 0.20504 0.10329 0.0
H503 H 0.16167 0.17639 0.08137 0.0
H504 H 0.21342 0.16831 0.06044 0.0
H505 H 0.29327 0.18737 0.09362 0.0
H506 H 0.24192 0.19563 0.11455 0.0
H507 H 0.07823 0.18435 0.21213 0.0
H508 H 0.08097 0.18765 0.17167 0.0
H509 H 0.19258 0.19975 0.17925 0.0
H510 H 0.19043 0.1962 0.2202 0.0
H511 H 0.18907 0.18762 0.14409 0.0
H512 H 0.11584 0.21507 0.16954 0.0
H513 H 0.06517 0.22334 0.19101 0.0
H514 H 0.98249 0.20739 0.15235 0.0
H515 H 0.03265 0.19891 0.13086 0.0
C516 C 0.17056 0.19961 0.03934 0.0
C517 C 0.1416 0.1949 0.02718 0.0
C518 C 0.1679 0.20082 0.06279 0.0
C519 C 0.13674 0.19709 0.07464 0.0
C520 C 0.10669 0.19293 0.0624 0.0
C521 C 0.10899 0.1919 0.03875 0.0
C522 C 0.13741 0.19665 0.0998 0.0
C523 C 0.10846 0.20118 0.11226 0.0
C524 C 0.16708 0.19184 0.11149 0.0
C525 C 0.19797 0.18667 0.09937 0.0
C526 C 0.19026 0.17887 0.08413 0.0
C527 C 0.21951 0.17426 0.07228 0.0
C528 C 0.2566 0.17734 0.07566 0.0
C529 C 0.26453 0.185 0.091 0.0
C530 C 0.23538 0.18963 0.10288 0.0
C531 C 0.10346 0.18773 0.2053 0.0
C532 C 0.13417 0.19003 0.21939 0.0
C533 C 0.10479 0.1897 0.18213 0.0
C534 C 0.13658 0.19417 0.17252 0.0
C535 C 0.1676 0.19638 0.18642 0.0
C536 C 0.16642 0.19433 0.20975 0.0
C537 C 0.13779 0.19597 0.14771 0.0
C538 C 0.167 0.19163 0.13525 0.0
C539 C 0.10848 0.20102 0.13614 0.0
C540 C 0.07809 0.2063 0.14864 0.0
C541 C 0.08686 0.21329 0.16567 0.0
C542 C 0.05822 0.21802 0.17785 0.0
C543 C 0.02064 0.21588 0.17307 0.0
C544 C 0.01162 0.20904 0.15603 0.0
C545 C 0.04016 0.20428 0.14381 0.0
H546 H 0.99852 0.21953 0.18256 0.0
H547 H 0.2792 0.17378 0.06643 0.0
H548 H 0.81911 0.93702 0.96607 0.0
H549 H 0.81392 0.93726 0.92448 0.0
H550 H 0.93426 0.93991 0.91887 0.0
H551 H 0.93988 0.9394 0.96022 0.0
H552 H 0.88584 0.95397 0.89098 0.0
H553 H 0.90805 0.91906 0.90891 0.0
H554 H 0.8946 0.90334 0.92901 0.0
H555 H 0.78277 0.90316 0.90168 0.0
H556 H 0.79543 0.91897 0.88164 0.0
H557 H 0.91529 0.94373 0.77416 0.0
H558 H 0.91944 0.94399 0.81564 0.0
H559 H 0.8062 0.9327 0.8203 0.0
H560 H 0.80209 0.9322 0.779 0.0
H561 H 0.84984 0.92331 0.8492 0.0
H562 H 0.82469 0.95735 0.83071 0.0
H563 H 0.8332 0.97359 0.81183 0.0
H564 H 0.94397 0.97604 0.84006 0.0
H565 H 0.93609 0.95983 0.85928 0.0
C566 C 0.84443 0.93763 0.95596 0.0
C567 C 0.8799 0.93812 0.96639 0.0
C568 C 0.84142 0.93779 0.93228 0.0
C569 C 0.87374 0.93861 0.91878 0.0
C570 C 0.90906 0.93928 0.92911 0.0
C571 C 0.91217 0.93892 0.9527 0.0
C572 C 0.8709 0.93848 0.89381 0.0
C573 C 0.87838 0.94726 0.88173 0.0
C574 C 0.86015 0.92977 0.88202 0.0
C575 C 0.85254 0.92026 0.89401 0.0
C576 C 0.88047 0.91573 0.90737 0.0
C577 C 0.87302 0.90679 0.91871 0.0
C578 C 0.83781 0.90227 0.91669 0.0
C579 C 0.81001 0.90668 0.90327 0.0
C580 C 0.81732 0.91562 0.8919 0.0
C581 C 0.89139 0.94122 0.78402 0.0
C582 C 0.85835 0.93795 0.77328 0.0
C583 C 0.89368 0.94146 0.80771 0.0
C584 C 0.86291 0.93849 0.82103 0.0
C585 C 0.83023 0.93504 0.81034 0.0
C586 C 0.82795 0.93477 0.78672 0.0
C587 C 0.86488 0.93882 0.84613 0.0
C588 C 0.85725 0.93006 0.85831 0.0
C589 C 0.87488 0.9476 0.858 0.0
C590 C 0.87995 0.95731 0.84625 0.0
C591 C 0.851 0.9613 0.83275 0.0
C592 C 0.85567 0.97051 0.82201 0.0
C593 C 0.8892 0.9758 0.82458 0.0
C594 C 0.91805 0.97192 0.83803 0.0
C595 C 0.91344 0.96274 0.84892 0.0
H596 H 0.89276 0.98292 0.81622 0.0
H597 H 0.8321 0.89535 0.92548 0.0
H598 H 0.90187 0.80864 0.96895 0.0
H599 H 0.90106 0.80638 0.9276 0.0
H600 H 0.83906 0.77896 0.93594 0.0
H601 H 0.83741 0.78166 0.977 0.0
H602 H 0.92527 0.79412 0.89856 0.0
H603 H 0.78254 0.77443 0.8925 0.0
H604 H 0.72414 0.77271 0.91477 0.0
H605 H 0.74069 0.80188 0.94295 0.0
H606 H 0.79899 0.8038 0.92068 0.0
H607 H 0.90805 0.78091 0.78536 0.0
H608 H 0.90139 0.77868 0.82636 0.0
H609 H 0.81727 0.80182 0.82791 0.0
H610 H 0.82246 0.80367 0.78651 0.0
H611 H 0.80315 0.78823 0.86008 0.0
H612 H 0.91148 0.80724 0.83578 0.0
H613 H 0.96914 0.80961 0.81315 0.0
H614 H 0.01949 0.78427 0.84566 0.0
H615 H 0.9619 0.78169 0.86827 0.0
C616 C 0.88832 0.80212 0.96184 0.0
C617 C 0.86932 0.79539 0.97592 0.0
C618 C 0.88784 0.80081 0.93826 0.0
C619 C 0.86907 0.79263 0.92852 0.0
C620 C 0.85249 0.78552 0.94288 0.0
C621 C 0.85185 0.78702 0.96633 0.0
C622 C 0.86591 0.79175 0.90339 0.0
C623 C 0.89853 0.79282 0.89023 0.0
C624 C 0.83102 0.79009 0.89233 0.0
C625 C 0.79522 0.78922 0.90506 0.0
C626 C 0.77354 0.7805 0.90332 0.0
C627 C 0.74053 0.77948 0.91598 0.0
C628 C 0.72877 0.78717 0.93031 0.0
C629 C 0.74988 0.79592 0.93189 0.0
C630 C 0.7829 0.79698 0.91926 0.0
C631 C 0.8874 0.78532 0.7944 0.0
C632 C 0.86607 0.79255 0.78297 0.0
C633 C 0.88372 0.78407 0.81781 0.0
C634 C 0.85971 0.7903 0.83029 0.0
C635 C 0.83618 0.79698 0.81863 0.0
C636 C 0.83915 0.79805 0.79503 0.0
C637 C 0.86243 0.79066 0.85543 0.0
C638 C 0.82983 0.78949 0.86852 0.0
C639 C 0.89718 0.79244 0.86646 0.0
C640 C 0.93235 0.79423 0.85358 0.0
C641 C 0.93486 0.80217 0.83807 0.0
C642 C 0.96749 0.80355 0.82523 0.0
C643 C 0.99793 0.79708 0.82793 0.0
C644 C 0.99588 0.78927 0.84357 0.0
C645 C 0.96328 0.78785 0.85643 0.0
H646 H 0.02312 0.79813 0.81791 0.0
H647 H 0.70329 0.78636 0.94017 0.0
H648 H 0.15656 0.53043 0.72015 0.0
H649 H 0.1515 0.52801 0.67899 0.0
H650 H 0.08291 0.5545 0.67432 0.0
H651 H 0.08558 0.55638 0.71564 0.0
H652 H 0.05906 0.54275 0.64532 0.0
H653 H 0.184 0.5534 0.6647 0.0
H654 H 0.24526 0.55235 0.68411 0.0
H655 H 0.26739 0.52436 0.65154 0.0
H656 H 0.20581 0.52513 0.63228 0.0
H657 H 0.1635 0.55361 0.53127 0.0
H658 H 0.16598 0.55183 0.57275 0.0
H659 H 0.07425 0.53081 0.56996 0.0
H660 H 0.06957 0.53332 0.52904 0.0
H661 H 0.17836 0.53886 0.60266 0.0
H662 H 0.01959 0.53167 0.61483 0.0
H663 H 0.95944 0.53537 0.59575 0.0
H664 H 0.0078 0.56151 0.56555 0.0
H665 H 0.06808 0.55803 0.58464 0.0
C666 C 0.13975 0.53557 0.71025 0.0
C667 C 0.12141 0.54358 0.72081 0.0
C668 C 0.1372 0.53427 0.68675 0.0
C669 C 0.11776 0.54124 0.67335 0.0
C670 C 0.09818 0.54902 0.68418 0.0
C671 C 0.09967 0.55011 0.70776 0.0
C672 C 0.11894 0.54077 0.64809 0.0
C673 C 0.0852 0.54188 0.63605 0.0
C674 C 0.15304 0.53975 0.63582 0.0
C675 C 0.19013 0.53927 0.64727 0.0
C676 C 0.2018 0.54698 0.66181 0.0
C677 C 0.23655 0.54643 0.6728 0.0
C678 C 0.26009 0.53826 0.66915 0.0
C679 C 0.24898 0.53064 0.65444 0.0
C680 C 0.21417 0.53113 0.64349 0.0
C681 C 0.14394 0.54863 0.53963 0.0
C682 C 0.11594 0.54374 0.52713 0.0
C683 C 0.14544 0.54757 0.56329 0.0
C684 C 0.11958 0.54139 0.57467 0.0
C685 C 0.09354 0.53592 0.56181 0.0
C686 C 0.09107 0.5373 0.53838 0.0
C687 C 0.11857 0.54106 0.59995 0.0
C688 C 0.15226 0.5397 0.61197 0.0
C689 C 0.08463 0.54228 0.61226 0.0
C690 C 0.04838 0.54453 0.60097 0.0
C691 C 0.0173 0.53823 0.60418 0.0
C692 C 0.98322 0.54028 0.59335 0.0
C693 C 0.97984 0.54865 0.57939 0.0
C694 C 0.01049 0.55501 0.5763 0.0
C695 C 0.04462 0.553 0.58711 0.0
H696 H 0.95344 0.55022 0.57099 0.0
H697 H 0.287 0.53784 0.67765 0.0
H698 H 0.16674 0.69105 0.72103 0.0
H699 H 0.16931 0.69311 0.67954 0.0
H700 H 0.06393 0.70895 0.68112 0.0
H701 H 0.06097 0.70681 0.72226 0.0
H702 H 0.11378 0.68516 0.65101 0.0
H703 H 0.06552 0.72578 0.63583 0.0
H704 H 0.07134 0.74232 0.65379 0.0
H705 H 0.17525 0.73346 0.6848 0.0
H706 H 0.17025 0.71691 0.66688 0.0
H707 H 0.06244 0.68889 0.53504 0.0
H708 H 0.0548 0.69235 0.57591 0.0
H709 H 0.16226 0.7072 0.5767 0.0
H710 H 0.17023 0.70361 0.53638 0.0
H711 H 0.10997 0.71629 0.60559 0.0
H712 H 0.15997 0.68345 0.58731 0.0
H713 H 0.15741 0.6669 0.56921 0.0
H714 H 0.05632 0.66011 0.60588 0.0
H715 H 0.05793 0.67671 0.6239 0.0
C716 C 0.14458 0.69513 0.71253 0.0
C717 C 0.11348 0.69866 0.72476 0.0
C718 C 0.14598 0.69628 0.68889 0.0
C719 C 0.11677 0.70118 0.67732 0.0
C720 C 0.08684 0.70521 0.68972 0.0
C721 C 0.08511 0.70392 0.71321 0.0
C722 C 0.11541 0.70119 0.65219 0.0
C723 C 0.11297 0.69197 0.6411 0.0
C724 C 0.11394 0.71009 0.63934 0.0
C725 C 0.11726 0.72005 0.65018 0.0
C726 C 0.08965 0.72737 0.64644 0.0
C727 C 0.09279 0.73674 0.65663 0.0
C728 C 0.12358 0.73893 0.67049 0.0
C729 C 0.15132 0.73174 0.67415 0.0
C730 C 0.14828 0.72235 0.66404 0.0
C731 C 0.08387 0.69309 0.54391 0.0
C732 C 0.11715 0.69585 0.53278 0.0
C733 C 0.07954 0.69506 0.56717 0.0
C734 C 0.10819 0.69994 0.57933 0.0
C735 C 0.13987 0.70342 0.56768 0.0
C736 C 0.1445 0.7013 0.54469 0.0
C737 C 0.1082 0.70025 0.60449 0.0
C738 C 0.11033 0.7095 0.61559 0.0
C739 C 0.10962 0.69137 0.61743 0.0
C740 C 0.10879 0.68137 0.60671 0.0
C741 C 0.13701 0.67847 0.59135 0.0
C742 C 0.13576 0.66907 0.58113 0.0
C743 C 0.10665 0.66247 0.58633 0.0
C744 C 0.07879 0.66524 0.60181 0.0
C745 C 0.07985 0.67464 0.61203 0.0
H746 H 0.10574 0.6552 0.5784 0.0
H747 H 0.12597 0.74619 0.67834 0.0
H748 H 0.82883 0.44184 0.46464 0.0
H749 H 0.82243 0.44351 0.4233 0.0
H750 H 0.91659 0.4637 0.42197 0.0
H751 H 0.92381 0.46183 0.46316 0.0
H752 H 0.84782 0.46712 0.3881 0.0
H753 H 0.94705 0.44441 0.41261 0.0
H754 H 0.9713 0.43102 0.43727 0.0
H755 H 0.88402 0.41145 0.41396 0.0
H756 H 0.8589 0.42481 0.38941 0.0
H757 H 0.90494 0.45667 0.27212 0.0
H758 H 0.91006 0.45972 0.31331 0.0
H759 H 0.83072 0.43608 0.32599 0.0
H760 H 0.82489 0.43319 0.28519 0.0
H761 H 0.89554 0.4357 0.35414 0.0
H762 H 0.79854 0.45798 0.32764 0.0
H763 H 0.77224 0.47142 0.30394 0.0
H764 H 0.85365 0.4919 0.3306 0.0
H765 H 0.88073 0.47854 0.35434 0.0
C766 C 0.84738 0.44686 0.45561 0.0
C767 C 0.87713 0.45158 0.46692 0.0
C768 C 0.84367 0.44783 0.43206 0.0
C769 C 0.86915 0.4537 0.41969 0.0
C770 C 0.89661 0.45918 0.43127 0.0
C771 C 0.90086 0.45804 0.45472 0.0
C772 C 0.87144 0.45264 0.39475 0.0
C773 C 0.85869 0.46033 0.38057 0.0
C774 C 0.88544 0.44375 0.38511 0.0
C775 C 0.90088 0.43563 0.3994 0.0
C776 C 0.93287 0.43727 0.41289 0.0
C777 C 0.94679 0.42969 0.42682 0.0
C778 C 0.92914 0.4204 0.42723 0.0
C779 C 0.89762 0.41866 0.41364 0.0
C780 C 0.88354 0.42623 0.39971 0.0
C781 C 0.88919 0.45204 0.2838 0.0
C782 C 0.86465 0.44468 0.27561 0.0
C783 C 0.89183 0.45384 0.3072 0.0
C784 C 0.87048 0.44818 0.32257 0.0
C785 C 0.84729 0.44055 0.31438 0.0
C786 C 0.84407 0.43889 0.29112 0.0
C787 C 0.87163 0.45014 0.34726 0.0
C788 C 0.88506 0.44257 0.36151 0.0
C789 C 0.85827 0.45915 0.35681 0.0
C790 C 0.84207 0.46721 0.34253 0.0
C791 C 0.81115 0.46531 0.32827 0.0
C792 C 0.79602 0.47292 0.31486 0.0
C793 C 0.81143 0.48249 0.31564 0.0
C794 C 0.84184 0.48447 0.32995 0.0
C795 C 0.85707 0.47689 0.34341 0.0
H796 H 0.79973 0.48837 0.30523 0.0
H797 H 0.93994 0.41454 0.43804 0.0
H798 H 0.81277 0.2993 0.27671 0.0
H799 H 0.79948 0.29824 0.31757 0.0
H800 H 0.90568 0.28351 0.32834 0.0
H801 H 0.91923 0.28466 0.28775 0.0
H802 H 0.84845 0.27709 0.35865 0.0
H803 H 0.90769 0.30705 0.33089 0.0
H804 H 0.9132 0.32161 0.30559 0.0
H805 H 0.8072 0.33265 0.32964 0.0
H806 H 0.80079 0.31803 0.35484 0.0
H807 H 0.90544 0.29345 0.46865 0.0
H808 H 0.90221 0.28984 0.42795 0.0
H809 H 0.79963 0.30679 0.42295 0.0
H810 H 0.80253 0.31044 0.46353 0.0
H811 H 0.84948 0.31147 0.38968 0.0
H812 H 0.79592 0.28173 0.4219 0.0
H813 H 0.79232 0.26665 0.4457 0.0
H814 H 0.89154 0.25507 0.41376 0.0
H815 H 0.89585 0.27011 0.38979 0.0
C816 C 0.83257 0.29552 0.28772 0.0
C817 C 0.86724 0.29221 0.27928 0.0
C818 C 0.82503 0.29494 0.311 0.0
C819 C 0.85192 0.29094 0.32591 0.0
C820 C 0.88467 0.28665 0.3171 0.0
C821 C 0.89245 0.28736 0.29396 0.0
C822 C 0.84924 0.29272 0.35061 0.0
C823 C 0.8487 0.28458 0.36553 0.0
C824 C 0.8496 0.30252 0.35942 0.0
C825 C 0.85351 0.31138 0.34451 0.0
C826 C 0.8854 0.31253 0.33063 0.0
C827 C 0.88872 0.3208 0.31634 0.0
C828 C 0.8605 0.32803 0.31595 0.0
C829 C 0.82898 0.32702 0.32992 0.0
C830 C 0.82549 0.31875 0.34421 0.0
C831 C 0.88237 0.29649 0.45886 0.0
C832 C 0.85426 0.30224 0.46934 0.0
C833 C 0.88035 0.29432 0.43567 0.0
C834 C 0.85034 0.29792 0.42257 0.0
C835 C 0.82284 0.30388 0.43283 0.0
C836 C 0.82465 0.30599 0.45601 0.0
C837 C 0.84834 0.29582 0.39794 0.0
C838 C 0.84849 0.30395 0.38294 0.0
C839 C 0.84812 0.286 0.38918 0.0
C840 C 0.84637 0.2771 0.40416 0.0
C841 C 0.81723 0.27603 0.42012 0.0
C842 C 0.81498 0.26747 0.43359 0.0
C843 C 0.8417 0.25991 0.43125 0.0
C844 C 0.87085 0.26093 0.41553 0.0
C845 C 0.87315 0.26946 0.40196 0.0
H846 H 0.83975 0.25325 0.44151 0.0
H847 H 0.86311 0.33443 0.30487 0.0
H848 H 0.57724 0.05258 0.71013 0.0
H849 H 0.57155 0.0508 0.66876 0.0
H850 H 0.6807 0.03684 0.66637 0.0
H851 H 0.68676 0.03882 0.70737 0.0
H852 H 0.68003 0.05281 0.64127 0.0
H853 H 0.60279 0.02433 0.64837 0.0
H854 H 0.55083 0.01361 0.66136 0.0
H855 H 0.47069 0.03397 0.63285 0.0
H856 H 0.52213 0.0449 0.61995 0.0
H857 H 0.67304 0.05092 0.51901 0.0
H858 H 0.67917 0.04684 0.55936 0.0
H859 H 0.57227 0.06079 0.57275 0.0
H860 H 0.56577 0.06483 0.53262 0.0
H861 H 0.57562 0.04236 0.59096 0.0
H862 H 0.65656 0.07171 0.58846 0.0
H863 H 0.71062 0.08163 0.57514 0.0
H864 H 0.78591 0.0582 0.59494 0.0
H865 H 0.73226 0.0481 0.60817 0.0
C866 C 0.59942 0.04887 0.70079 0.0
C867 C 0.63277 0.04604 0.71174 0.0
C868 C 0.59613 0.04781 0.67719 0.0
C869 C 0.62593 0.04378 0.66446 0.0
C870 C 0.65758 0.04007 0.67582 0.0
C871 C 0.66105 0.04124 0.69922 0.0
C872 C 0.62711 0.045 0.63945 0.0
C873 C 0.65748 0.05033 0.63022 0.0
C874 C 0.59754 0.0419 0.62508 0.0
C875 C 0.56639 0.0355 0.63339 0.0
C876 C 0.57409 0.02659 0.64511 0.0
C877 C 0.54471 0.02046 0.65239 0.0
C878 C 0.50748 0.02312 0.64799 0.0
C879 C 0.49955 0.03192 0.63628 0.0
C880 C 0.52881 0.03809 0.62896 0.0
C881 C 0.65123 0.05331 0.53062 0.0
C882 C 0.61887 0.05818 0.52258 0.0
C883 C 0.65474 0.05095 0.55367 0.0
C884 C 0.62604 0.05346 0.569 0.0
C885 C 0.59454 0.05869 0.56115 0.0
C886 C 0.59102 0.06105 0.5382 0.0
C887 C 0.62788 0.0504 0.59313 0.0
C888 C 0.5982 0.04472 0.6021 0.0
C889 C 0.65826 0.05308 0.6073 0.0
C890 C 0.69039 0.05911 0.59905 0.0
C891 C 0.68462 0.06864 0.58977 0.0
C892 C 0.71519 0.0743 0.58229 0.0
C893 C 0.75166 0.07053 0.58412 0.0
C894 C 0.75765 0.0611 0.59348 0.0
C895 C 0.72719 0.05541 0.60099 0.0
H896 H 0.77529 0.07493 0.57834 0.0
H897 H 0.48479 0.01835 0.6536 0.0
H898 H 0.56617 0.17784 0.72319 0.0
H899 H 0.56657 0.17946 0.68188 0.0
H900 H 0.67254 0.19497 0.68521 0.0
H901 H 0.67241 0.19341 0.72662 0.0
H902 H 0.61988 0.20491 0.65944 0.0
H903 H 0.67035 0.17186 0.66543 0.0
H904 H 0.67288 0.15429 0.67756 0.0
H905 H 0.56826 0.14856 0.64373 0.0
H906 H 0.56485 0.16614 0.63162 0.0
H907 H 0.68378 0.20048 0.54503 0.0
H908 H 0.67337 0.20041 0.58609 0.0
H909 H 0.56308 0.18788 0.57593 0.0
H910 H 0.57302 0.18814 0.53462 0.0
H911 H 0.61198 0.17677 0.60505 0.0
H912 H 0.56532 0.20973 0.5959 0.0
H913 H 0.56435 0.22725 0.58337 0.0
H914 H 0.66325 0.23325 0.62277 0.0
H915 H 0.66528 0.21572 0.63524 0.0
C916 C 0.5899 0.18145 0.71514 0.0
C917 C 0.61928 0.18549 0.7282 0.0
C918 C 0.59005 0.18237 0.69153 0.0
C919 C 0.61955 0.18735 0.68055 0.0
C920 C 0.64947 0.19113 0.69343 0.0
C921 C 0.64948 0.19016 0.71706 0.0
C922 C 0.61839 0.18895 0.65571 0.0
C923 C 0.61864 0.19877 0.64748 0.0
C924 C 0.61546 0.18091 0.64029 0.0
C925 C 0.61711 0.17036 0.64786 0.0
C926 C 0.64766 0.16688 0.66079 0.0
C927 C 0.64931 0.15691 0.66761 0.0
C928 C 0.62068 0.15032 0.66149 0.0
C929 C 0.59037 0.15368 0.6485 0.0
C930 C 0.58858 0.16365 0.64164 0.0
C931 C 0.65712 0.19783 0.55154 0.0
C932 C 0.62936 0.19419 0.53675 0.0
C933 C 0.65111 0.19787 0.57495 0.0
C934 C 0.61748 0.19415 0.58395 0.0
C935 C 0.58916 0.19081 0.5692 0.0
C936 C 0.59486 0.19096 0.5457 0.0
C937 C 0.61397 0.19273 0.60873 0.0
C938 C 0.61288 0.18293 0.61699 0.0
C939 C 0.61636 0.20079 0.62412 0.0
C940 C 0.6157 0.21134 0.61631 0.0
C941 C 0.58718 0.21474 0.60168 0.0
C942 C 0.58636 0.22469 0.59463 0.0
C943 C 0.61378 0.23135 0.60221 0.0
C944 C 0.64206 0.22807 0.61688 0.0
C945 C 0.64304 0.21813 0.62395 0.0
H946 H 0.61306 0.23905 0.59677 0.0
H947 H 0.62204 0.1426 0.66675 0.0
H948 H 0.39599 0.926 0.45537 0.0
H949 H 0.39252 0.92968 0.41486 0.0
H950 H 0.32223 0.95513 0.42894 0.0
H951 H 0.32353 0.95103 0.46951 0.0
H952 H 0.30301 0.94791 0.39013 0.0
H953 H 0.42061 0.95741 0.42194 0.0
H954 H 0.47855 0.95507 0.4443 0.0
H955 H 0.51366 0.93178 0.39906 0.0
H956 H 0.45581 0.93392 0.37652 0.0
H957 H 0.33602 0.96326 0.27737 0.0
H958 H 0.34022 0.9645 0.31886 0.0
H959 H 0.40644 0.93755 0.32036 0.0
H960 H 0.40451 0.93677 0.27886 0.0
H961 H 0.42816 0.94904 0.353 0.0
H962 H 0.30242 0.93902 0.32459 0.0
H963 H 0.24527 0.94276 0.3024 0.0
H964 H 0.22674 0.9691 0.34226 0.0
H965 H 0.28383 0.96551 0.36461 0.0
C966 C 0.37908 0.93224 0.44977 0.0
C967 C 0.36063 0.93835 0.46557 0.0
C968 C 0.37742 0.93441 0.42664 0.0
C969 C 0.35854 0.94295 0.41894 0.0
C970 C 0.3375 0.94859 0.4345 0.0
C971 C 0.33821 0.94623 0.45766 0.0
C972 C 0.36268 0.94623 0.39495 0.0
C973 C 0.33042 0.94828 0.38211 0.0
C974 C 0.39844 0.94691 0.38448 0.0
C975 C 0.43382 0.94581 0.39759 0.0
C976 C 0.44067 0.95178 0.41678 0.0
C977 C 0.47347 0.95048 0.4295 0.0
C978 C 0.49971 0.94326 0.42313 0.0
C979 C 0.49331 0.93737 0.40396 0.0
C980 C 0.46058 0.93864 0.39117 0.0
C981 C 0.35238 0.9578 0.28665 0.0
C982 C 0.36986 0.94989 0.27519 0.0
C983 C 0.35449 0.95845 0.31031 0.0
C984 C 0.37252 0.95092 0.32283 0.0
C985 C 0.39212 0.94341 0.31114 0.0
C986 C 0.39106 0.94295 0.28746 0.0
C987 C 0.36842 0.95022 0.34792 0.0
C988 C 0.40078 0.94875 0.36108 0.0
C989 C 0.3328 0.95026 0.35874 0.0
C990 C 0.29748 0.95205 0.3461 0.0
C991 C 0.28606 0.94559 0.32863 0.0
C992 C 0.25373 0.94769 0.31602 0.0
C993 C 0.23244 0.95617 0.32088 0.0
C994 C 0.24325 0.96253 0.3385 0.0
C995 C 0.27553 0.96046 0.35117 0.0
H996 H 0.20753 0.95781 0.31103 0.0
H997 H 0.52504 0.94225 0.43304 0.0
H998 H 0.42807 0.80005 0.46796 0.0
H999 H 0.43552 0.79872 0.42663 0.0
H1000 H 0.33634 0.78037 0.42293 0.0
H1001 H 0.32804 0.78192 0.46411 0.0
H1002 H 0.40992 0.77685 0.38913 0.0
H1003 H 0.30543 0.79863 0.4124 0.0
H1004 H 0.27882 0.81104 0.4388 0.0
H1005 H 0.37023 0.83093 0.42433 0.0
H1006 H 0.39762 0.81854 0.39805 0.0
H1007 H 0.34931 0.78971 0.27527 0.0
H1008 H 0.34629 0.78587 0.31605 0.0
H1009 H 0.42785 0.80887 0.32953 0.0
H1010 H 0.43173 0.81257 0.28888 0.0
H1011 H 0.36108 0.80879 0.35834 0.0
H1012 H 0.45976 0.78736 0.32986 0.0
H1013 H 0.4865 0.77448 0.30479 0.0
H1014 H 0.40523 0.75335 0.3289 0.0
H1015 H 0.3778 0.76614 0.35406 0.0
C1016 C 0.40852 0.7955 0.4584 0.0
C1017 C 0.3771 0.79125 0.46902 0.0
C1018 C 0.41291 0.7947 0.43488 0.0
C1019 C 0.38643 0.78945 0.42188 0.0
C1020 C 0.35712 0.78439 0.43276 0.0
C1021 C 0.35222 0.78538 0.45618 0.0
C1022 C 0.38492 0.79102 0.39712 0.0
C1023 C 0.39887 0.78375 0.38227 0.0
C1024 C 0.37058 0.80005 0.38838 0.0
C1025 C 0.35367 0.80765 0.40346 0.0
C1026 C 0.31991 0.80564 0.41495 0.0
C1027 C 0.30469 0.81266 0.42987 0.0
C1028 C 0.32287 0.82176 0.43328 0.0
C1029 C 0.35621 0.82387 0.42168 0.0
C1030 C 0.37157 0.81686 0.40676 0.0
C1031 C 0.36617 0.79403 0.287 0.0
C1032 C 0.39063 0.80146 0.27901 0.0
C1033 C 0.36467 0.79177 0.31018 0.0
C1034 C 0.38711 0.79705 0.32563 0.0
C1035 C 0.41048 0.80471 0.31778 0.0
C1036 C 0.41259 0.80682 0.29462 0.0
C1037 C 0.38635 0.79466 0.35009 0.0
C1038 C 0.37189 0.80182 0.36501 0.0
C1039 C 0.39987 0.78547 0.3587 0.0
C1040 C 0.41635 0.77776 0.34361 0.0
C1041 C 0.4473 0.78 0.32964 0.0
C1042 C 0.46264 0.77271 0.31544 0.0
C1043 C 0.44738 0.76312 0.31511 0.0
C1044 C 0.41692 0.76079 0.32911 0.0
C1045 C 0.40151 0.76806 0.34338 0.0
H1046 H 0.45924 0.75749 0.30409 0.0
H1047 H 0.3111 0.82718 0.44487 0.0
H1048 H 0.56762 0.56174 0.04693 0.0
H1049 H 0.57886 0.55989 0.08734 0.0
H1050 H 0.69262 0.55052 0.07396 0.0
H1051 H 0.68133 0.55219 0.03292 0.0
H1052 H 0.6588 0.53864 0.10547 0.0
H1053 H 0.67653 0.5735 0.09552 0.0
H1054 H 0.66258 0.59055 0.08239 0.0
H1055 H 0.56044 0.5906 0.12118 0.0
H1056 H 0.57352 0.5735 0.13433 0.0
H1057 H 0.70739 0.54588 0.22348 0.0
H1058 H 0.70385 0.54595 0.182 0.0
H1059 H 0.58564 0.55278 0.18565 0.0
H1060 H 0.58882 0.55264 0.22725 0.0
H1061 H 0.62796 0.56602 0.15891 0.0
H1062 H 0.61111 0.5306 0.16793 0.0
H1063 H 0.62737 0.51374 0.18129 0.0
H1064 H 0.7316 0.51505 0.14473 0.0
H1065 H 0.71621 0.53198 0.13136 0.0
C1066 C 0.59521 0.55934 0.05244 0.0
C1067 C 0.62365 0.55714 0.03661 0.0
C1068 C 0.60161 0.55833 0.07565 0.0
C1069 C 0.6367 0.55519 0.08372 0.0
C1070 C 0.66535 0.55299 0.06807 0.0
C1071 C 0.65894 0.554 0.04466 0.0
C1072 C 0.64254 0.55405 0.10854 0.0
C1073 C 0.65279 0.54467 0.11718 0.0
C1074 C 0.63407 0.56189 0.12379 0.0
C1075 C 0.62589 0.57217 0.11578 0.0
C1076 C 0.65093 0.57711 0.10111 0.0
C1077 C 0.64321 0.58679 0.09369 0.0
C1078 C 0.61061 0.59164 0.10091 0.0
C1079 C 0.58568 0.58683 0.11559 0.0
C1080 C 0.59326 0.57714 0.12306 0.0
C1081 C 0.68052 0.54731 0.21547 0.0
C1082 C 0.64842 0.54938 0.22861 0.0
C1083 C 0.67854 0.54727 0.19177 0.0
C1084 C 0.64451 0.54936 0.18081 0.0
C1085 C 0.61216 0.55114 0.19386 0.0
C1086 C 0.614 0.55105 0.21759 0.0
C1087 C 0.64339 0.55057 0.15583 0.0
C1088 C 0.63419 0.56 0.14719 0.0
C1089 C 0.65326 0.54281 0.14069 0.0
C1090 C 0.66268 0.53263 0.14886 0.0
C1091 C 0.63769 0.52735 0.16293 0.0
C1092 C 0.6467 0.51776 0.17045 0.0
C1093 C 0.68055 0.51334 0.16393 0.0
C1094 C 0.70542 0.51849 0.14981 0.0
C1095 C 0.69654 0.52808 0.14223 0.0
H1096 H 0.68747 0.50591 0.16978 0.0
H1097 H 0.6047 0.59914 0.09516 0.0
H1098 H 0.58486 0.68 0.21119 0.0
H1099 H 0.59074 0.68251 0.17012 0.0
H1100 H 0.65941 0.70846 0.18176 0.0
H1101 H 0.65478 0.70577 0.22306 0.0
H1102 H 0.58209 0.70793 0.14851 0.0
H1103 H 0.70984 0.69639 0.16313 0.0
H1104 H 0.75627 0.68493 0.17997 0.0
H1105 H 0.70563 0.66033 0.14483 0.0
H1106 H 0.65847 0.67165 0.12807 0.0
H1107 H 0.68405 0.70812 0.03422 0.0
H1108 H 0.67668 0.70841 0.07551 0.0
H1109 H 0.5748 0.69124 0.06963 0.0
H1110 H 0.58136 0.69118 0.02808 0.0
H1111 H 0.66956 0.68836 0.10035 0.0
H1112 H 0.5321 0.7001 0.09507 0.0
H1113 H 0.48628 0.71182 0.07843 0.0
H1114 H 0.55822 0.73641 0.09533 0.0
H1115 H 0.60473 0.72477 0.11171 0.0
C1116 C 0.60165 0.68616 0.20499 0.0
C1117 C 0.61962 0.69265 0.22023 0.0
C1118 C 0.60484 0.6876 0.18159 0.0
C1119 C 0.62537 0.69567 0.17305 0.0
C1120 C 0.6435 0.70217 0.18815 0.0
C1121 C 0.6411 0.70059 0.21164 0.0
C1122 C 0.6273 0.69725 0.14825 0.0
C1123 C 0.60141 0.70372 0.13798 0.0
C1124 C 0.65216 0.69166 0.13458 0.0
C1125 C 0.68031 0.68484 0.14465 0.0
C1126 C 0.7083 0.68852 0.15924 0.0
C1127 C 0.73482 0.68206 0.16871 0.0
C1128 C 0.73381 0.6719 0.16355 0.0
C1129 C 0.70632 0.6682 0.14886 0.0
C1130 C 0.67969 0.67463 0.13937 0.0
C1131 C 0.65964 0.70457 0.04168 0.0
C1132 C 0.63331 0.69959 0.02797 0.0
C1133 C 0.65546 0.70477 0.06524 0.0
C1134 C 0.62501 0.69995 0.07555 0.0
C1135 C 0.59799 0.69522 0.06193 0.0
C1136 C 0.60185 0.69514 0.03823 0.0
C1137 C 0.62416 0.69898 0.10056 0.0
C1138 C 0.65028 0.69259 0.11088 0.0
C1139 C 0.59952 0.70462 0.11425 0.0
C1140 C 0.57201 0.71158 0.10422 0.0
C1141 C 0.53829 0.708 0.09496 0.0
C1142 C 0.51218 0.71462 0.08563 0.0
C1143 C 0.51941 0.72485 0.08573 0.0
C1144 C 0.55274 0.72848 0.09517 0.0
C1145 C 0.579 0.72187 0.10443 0.0
H1146 H 0.49913 0.72997 0.07856 0.0
H1147 H 0.75439 0.66691 0.17087 0.0
H1148 H 0.31961 0.44884 0.78803 0.0
H1149 H 0.32396 0.44745 0.82938 0.0
H1150 H 0.43251 0.43348 0.82289 0.0
H1151 H 0.42878 0.43511 0.78132 0.0
H1152 H 0.37808 0.42263 0.84949 0.0
H1153 H 0.43363 0.45451 0.84422 0.0
H1154 H 0.4429 0.47217 0.83432 0.0
H1155 H 0.34274 0.47995 0.87087 0.0
H1156 H 0.33228 0.46232 0.88048 0.0
H1157 H 0.42816 0.4229 0.96644 0.0
H1158 H 0.42305 0.42408 0.92529 0.0
H1159 H 0.32092 0.4411 0.93225 0.0
H1160 H 0.32606 0.44002 0.97378 0.0
H1161 H 0.37267 0.4503 0.9052 0.0
H1162 H 0.31924 0.41745 0.91053 0.0
H1163 H 0.31651 0.39984 0.9224 0.0
H1164 H 0.41958 0.39395 0.887 0.0
H1165 H 0.4232 0.41155 0.87513 0.0
C1166 C 0.34467 0.4456 0.79543 0.0
C1167 C 0.37382 0.44204 0.78151 0.0
C1168 C 0.34715 0.44485 0.81903 0.0
C1169 C 0.37849 0.44035 0.82913 0.0
C1170 C 0.4081 0.43698 0.81534 0.0
C1171 C 0.40602 0.43795 0.79168 0.0
C1172 C 0.37878 0.43855 0.85395 0.0
C1173 C 0.37742 0.42867 0.86173 0.0
C1174 C 0.37708 0.44646 0.86977 0.0
C1175 C 0.38186 0.45703 0.8628 0.0
C1176 C 0.41312 0.45995 0.84975 0.0
C1177 C 0.41869 0.46997 0.84426 0.0
C1178 C 0.39339 0.47718 0.85188 0.0
C1179 C 0.36227 0.47437 0.86486 0.0
C1180 C 0.35647 0.46435 0.87031 0.0
C1181 C 0.40417 0.42674 0.95927 0.0
C1182 C 0.3776 0.43142 0.97339 0.0
C1183 C 0.40122 0.42737 0.93569 0.0
C1184 C 0.37156 0.43265 0.92568 0.0
C1185 C 0.34402 0.43697 0.93967 0.0
C1186 C 0.34685 0.4363 0.96336 0.0
C1187 C 0.37146 0.43438 0.90078 0.0
C1188 C 0.37296 0.44426 0.89296 0.0
C1189 C 0.37377 0.42647 0.88495 0.0
C1190 C 0.37164 0.41586 0.89209 0.0
C1191 C 0.34149 0.41242 0.90542 0.0
C1192 C 0.33975 0.40244 0.91211 0.0
C1193 C 0.3679 0.39579 0.9055 0.0
C1194 C 0.39781 0.39911 0.89213 0.0
C1195 C 0.39968 0.40909 0.88538 0.0
H1196 H 0.36649 0.38807 0.9107 0.0
H1197 H 0.39813 0.48494 0.84784 0.0
H1198 H 0.27684 0.3165 0.80215 0.0
H1199 H 0.2819 0.3127 0.84267 0.0
H1200 H 0.33492 0.28467 0.82663 0.0
H1201 H 0.32707 0.28813 0.78614 0.0
H1202 H 0.30495 0.28306 0.86684 0.0
H1203 H 0.38751 0.3059 0.83208 0.0
H1204 H 0.40559 0.32026 0.80835 0.0
H1205 H 0.35027 0.3401 0.85474 0.0
H1206 H 0.33124 0.32584 0.87856 0.0
H1207 H 0.39831 0.28885 0.9775 0.0
H1208 H 0.39362 0.2872 0.93583 0.0
H1209 H 0.30898 0.31018 0.93474 0.0
H1210 H 0.31311 0.31175 0.97588 0.0
H1211 H 0.36833 0.31226 0.90164 0.0
H1212 H 0.27714 0.28638 0.93058 0.0
H1213 H 0.26347 0.27085 0.95144 0.0
H1214 H 0.35101 0.25578 0.91498 0.0
H1215 H 0.36434 0.27115 0.89332 0.0
C1216 C 0.28744 0.30928 0.80733 0.0
C1217 C 0.30148 0.3026 0.79115 0.0
C1218 C 0.29094 0.30717 0.83045 0.0
C1219 C 0.31039 0.2986 0.83766 0.0
C1220 C 0.32028 0.29137 0.82152 0.0
C1221 C 0.31551 0.29334 0.79836 0.0
C1222 C 0.32524 0.29801 0.86124 0.0
C1223 C 0.31918 0.28941 0.87433 0.0
C1224 C 0.34533 0.30611 0.87087 0.0
C1225 C 0.35773 0.31478 0.85704 0.0
C1226 C 0.3791 0.31332 0.8372 0.0
C1227 C 0.38949 0.32144 0.82371 0.0
C1228 C 0.37904 0.33108 0.83001 0.0
C1229 C 0.35832 0.33263 0.84987 0.0
C1230 C 0.34775 0.32452 0.86339 0.0
C1231 C 0.37925 0.29364 0.96823 0.0
C1232 C 0.35618 0.30046 0.97983 0.0
C1233 C 0.37632 0.29263 0.94455 0.0
C1234 C 0.35073 0.29853 0.93233 0.0
C1235 C 0.32881 0.30555 0.94389 0.0
C1236 C 0.33128 0.30645 0.96738 0.0
C1237 C 0.34597 0.29759 0.90748 0.0
C1238 C 0.35449 0.30589 0.89399 0.0
C1239 C 0.32966 0.28908 0.89735 0.0
C1240 C 0.32193 0.27991 0.91053 0.0
C1241 C 0.29356 0.27976 0.92711 0.0
C1242 C 0.28586 0.27099 0.93906 0.0
C1243 C 0.30669 0.26237 0.9348 0.0
C1244 C 0.33499 0.26247 0.91835 0.0
C1245 C 0.34246 0.27119 0.90612 0.0
H1246 H 0.30074 0.2556 0.94414 0.0
H1247 H 0.38703 0.33736 0.81952 0.0
H1248 H 0.23627 0.96455 0.18656 0.0
H1249 H 0.21466 0.97883 0.20806 0.0
H1250 H 0.32715 0.99077 0.20848 0.0
H1251 H 0.3493 0.97629 0.18755 0.0
H1252 H 0.30681 0.9846 0.24963 0.0
H1253 H 0.24991 0.00501 0.19251 0.0
H1254 H 0.20955 0.00891 0.15971 0.0
H1255 H 0.11232 -0.00062 0.19701 0.0
H1256 H 0.15221 0.99526 0.22996 0.0
H1257 H 0.26847 0.02625 0.31978 0.0
H1258 H 0.28836 0.01218 0.29691 0.0
H1259 H 0.17527 0.00065 0.29742 0.0
H1260 H 0.15482 0.0149 0.31985 0.0
H1261 H 0.19497 0.00633 0.25603 0.0
H1262 H 0.25201 0.98652 0.3138 0.0
H1263 H 0.29268 0.98271 0.34653 0.0
H1264 H 0.39013 0.99082 0.30778 0.0
H1265 H 0.35004 0.995 0.27502 0.0
C1266 C 0.25616 0.97045 0.19013 0.0
C1267 C 0.29492 0.96898 0.18674 0.0
C1268 C 0.24365 0.97867 0.20248 0.0
C1269 C 0.26964 0.98565 0.21072 0.0
C1270 C 0.30684 0.9853 0.20282 0.0
C1271 C 0.31943 0.97702 0.19067 0.0
C1272 C 0.26066 0.99136 0.23155 0.0
C1273 C 0.28284 0.98956 0.25091 0.0
C1274 C 0.22822 -0.00265 0.23352 0.0
C1275 C 0.20415 -0.00026 0.21365 0.0
C1276 C 0.21997 0.00366 0.19366 0.0
C1277 C 0.19714 0.00594 0.17505 0.0
C1278 C 0.15837 0.0044 0.17625 0.0
C1279 C 0.14235 0.00057 0.19609 0.0
C1280 C 0.16506 -0.00173 0.21475 0.0
C1281 C 0.24808 0.02048 0.31605 0.0
C1282 C 0.20965 0.02197 0.32056 0.0
C1283 C 0.2596 0.01239 0.3029 0.0
C1284 C 0.233 0.00555 0.29478 0.0
C1285 C 0.19606 0.006 0.30308 0.0
C1286 C 0.18446 0.01414 0.31607 0.0
C1287 C 0.24144 -0.00032 0.27407 0.0
C1288 C 0.21902 0.0014 0.25476 0.0
C1289 C 0.2737 0.99361 0.27215 0.0
C1290 C 0.29788 0.99119 0.29198 0.0
C1291 C 0.28206 0.98762 0.31231 0.0
C1292 C 0.30504 0.98537 0.33088 0.0
C1293 C 0.34395 0.98652 0.32925 0.0
C1294 C 0.35998 0.98994 0.30904 0.0
C1295 C 0.33713 0.99227 0.29048 0.0
H1296 H 0.36168 0.98473 0.34362 0.0
H1297 H 0.14077 0.00618 0.16181 0.0
H1298 H 0.01614 0.28687 0.22073 0.0
H1299 H 0.0399 0.2711 0.23342 0.0
H1300 H 0.96508 0.25584 0.18727 0.0
H1301 H 0.93746 0.27189 0.17652 0.0
H1302 H 0.95608 0.24816 0.22473 0.0
H1303 H 0.0732 0.25579 0.18636 0.0
H1304 H 0.12734 0.26637 0.17612 0.0
H1305 H 0.15843 0.26857 0.24641 0.0
H1306 H 0.1044 0.25809 0.25709 0.0
H1307 H 0.03404 0.2012 0.25673 0.0
H1308 H 0.00962 0.21627 0.23913 0.0
H1309 H 0.06882 0.23414 0.28846 0.0
H1310 H 0.09475 0.21902 0.30563 0.0
H1311 H 0.08632 0.23964 0.24716 0.0
H1312 H 0.97003 0.23303 0.28598 0.0
H1313 H 0.91565 0.2229 0.29784 0.0
H1314 H 0.88348 0.21905 0.22809 0.0
H1315 H 0.93792 0.22906 0.2158 0.0
C1316 C 0.00548 0.28021 0.21257 0.0
C1317 C 0.97455 0.28064 0.19775 0.0
C1318 C 0.01954 0.27109 0.21978 0.0
C1319 C 0.00478 0.26214 0.21124 0.0
C1320 C 0.9768 0.26261 0.19434 0.0
C1321 C 0.96133 0.27178 0.18793 0.0
C1322 C 0.01442 0.25251 0.2224 0.0
C1323 C 0.98476 0.2462 0.22906 0.0
C1324 C 0.05161 0.25006 0.22906 0.0
C1325 C 0.08467 0.25617 0.2225 0.0
C1326 C 0.09156 0.25854 0.19962 0.0
C1327 C 0.12223 0.26453 0.19375 0.0
C1328 C 0.14628 0.26815 0.2106 0.0
C1329 C 0.13983 0.26576 0.23337 0.0
C1330 C 0.10926 0.25977 0.23933 0.0
C1331 C 0.04106 0.20833 0.26426 0.0
C1332 C 0.06657 0.20896 0.28244 0.0
C1333 C 0.02694 0.21695 0.25419 0.0
C1334 C 0.03742 0.22634 0.26245 0.0
C1335 C 0.06061 0.22696 0.28172 0.0
C1336 C 0.07526 0.21833 0.29158 0.0
C1337 C 0.02807 0.23545 0.24942 0.0
C1338 C 0.05778 0.24159 0.24246 0.0
C1339 C 0.99104 0.23775 0.24257 0.0
C1340 C 0.95824 0.23173 0.24996 0.0
C1341 C 0.95152 0.22996 0.27316 0.0
C1342 C 0.92064 0.22425 0.27997 0.0
C1343 C 0.89617 0.22031 0.26373 0.0
C1344 C 0.90247 0.2221 0.24065 0.0
C1345 C 0.93329 0.2278 0.23376 0.0
H1346 H 0.8723 0.21589 0.26903 0.0
H1347 H 0.16994 0.2728 0.20602 0.0
H1348 H 0.25315 0.21366 0.92475 0.0
H1349 H 0.28 0.22871 0.94137 0.0
H1350 H 0.17045 0.23724 0.96584 0.0
H1351 H 0.14323 0.22254 0.94839 0.0
H1352 H 0.21576 0.2531 0.96475 0.0
H1353 H 0.22355 0.21877 0.99456 0.0
H1354 H 0.2428 0.20116 0.99144 0.0
H1355 H 0.35736 0.21008 0.98155 0.0
H1356 H 0.33883 0.22776 0.9845 0.0
H1357 H 0.24922 0.274 0.06823 0.0
H1358 H 0.22749 0.26008 0.04506 0.0
H1359 H 0.34178 0.25365 0.02576 0.0
H1360 H 0.36385 0.26727 0.04945 0.0
H1361 H 0.29902 0.23731 0.02214 0.0
H1362 H 0.29215 0.2716 0.9979 0.0
H1363 H 0.27294 0.2892 1.00049 0.0
H1364 H 0.15691 0.28054 0.99969 0.0
H1365 H 0.17538 0.26286 0.99707 0.0
C1366 C 0.23442 0.21904 0.93249 0.0
C1367 C 0.19646 0.21667 0.93634 0.0
C1368 C 0.24988 0.22761 0.94216 0.0
C1369 C 0.22754 0.23372 0.95602 0.0
C1370 C 0.18843 0.23245 0.95577 0.0
C1371 C 0.17283 0.224 0.94569 0.0
C1372 C 0.24466 0.23968 0.97453 0.0
C1373 C 0.23389 0.24965 0.97731 0.0
C1374 C 0.26862 0.2352 0.99088 0.0
C1375 C 0.2798 0.22457 0.98961 0.0
C1376 C 0.25283 0.21697 0.99172 0.0
C1377 C 0.26359 0.20698 0.98996 0.0
C1378 C 0.3012 0.2045 0.98625 0.0
C1379 C 0.32822 0.21201 0.9844 0.0
C1380 C 0.31764 0.22201 0.98614 0.0
C1381 C 0.26992 0.26931 0.06003 0.0
C1382 C 0.30808 0.27203 0.05981 0.0
C1383 C 0.25741 0.26141 0.04659 0.0
C1384 C 0.28292 0.25623 0.03275 0.0
C1385 C 0.32154 0.25774 0.03585 0.0
C1386 C 0.33413 0.26554 0.04955 0.0
C1387 C 0.26953 0.25066 0.01259 0.0
C1388 C 0.28109 0.24079 0.00951 0.0
C1389 C 0.24632 0.25524 0.99599 0.0
C1390 C 0.23516 0.26589 0.99749 0.0
C1391 C 0.26253 0.27344 0.99848 0.0
C1392 C 0.25178 0.28343 0.99989 0.0
C1393 C 0.21376 0.28599 1.00039 0.0
C1394 C 0.18637 0.27855 0.99933 0.0
C1395 C 0.19695 0.26854 0.99779 0.0
H1396 H 0.20552 0.29373 0.00153 0.0
H1397 H 0.30942 0.19676 0.98485 0.0
H1398 H 0.03374 0.04206 0.98026 0.0
H1399 H 0.98491 0.03008 0.99056 0.0
H1400 H 0.0636 0.006 0.98079 0.0
H1401 H 0.11209 0.01793 0.9697 0.0
H1402 H 0.99293 0.00038 0.96957 0.0
H1403 H 0.05394 0.01715 0.03667 0.0
H1404 H 0.07048 0.03282 0.05621 0.0
H1405 H 0.95503 0.04206 0.05405 0.0
H1406 H 0.9379 0.02642 0.0345 0.0
H1407 H 0.993 0.96336 0.04726 0.0
H1408 H 0.00894 0.98006 0.03437 0.0
H1409 H 0.89332 0.98907 0.04112 0.0
H1410 H 0.87668 0.97226 0.05377 0.0
H1411 H 0.96154 0.00441 0.0513 0.0
H1412 H 0.90043 0.98389 0.99564 0.0
H1413 H 0.88673 0.96827 0.97523 0.0
H1414 H 0.00143 0.96658 0.95306 0.0
H1415 H 0.01611 0.98204 0.97389 0.0
C1416 C 0.04027 0.03418 0.97976 0.0
C1417 C 0.07676 0.03089 0.9746 0.0
C1418 C 0.0124 0.02736 0.9857 0.0
C1419 C 0.02096 0.01719 0.98704 0.0
C1420 C 0.05647 0.01384 0.97995 0.0
C1421 C 0.08418 0.02065 0.97364 0.0
C1422 C 0.99534 0.01013 0.99856 0.0
C1423 C 0.98558 0.0013 0.98733 0.0
C1424 C 0.98478 0.01148 0.02156 0.0
C1425 C 0.99467 0.02064 0.03424 0.0
C1426 C 0.0321 0.02251 0.04052 0.0
C1427 C 0.04158 0.03138 0.05155 0.0
C1428 C 0.01382 0.03843 0.05641 0.0
C1429 C 0.97648 0.03659 0.05034 0.0
C1430 C 0.96685 0.0277 0.03937 0.0
C1431 C 0.97107 0.96895 0.04687 0.0
C1432 C 0.93338 0.96639 0.05093 0.0
C1433 C 0.98027 0.9785 0.03944 0.0
C1434 C 0.95209 0.98566 0.03633 0.0
C1435 C 0.9153 0.98357 0.04326 0.0
C1436 C 0.90593 0.97396 0.05049 0.0
C1437 C 0.96062 0.99452 0.02249 0.0
C1438 C 0.96735 0.00365 0.0333 0.0
C1439 C 0.96806 0.99348 0.99898 0.0
C1440 C 0.95946 0.9841 0.98656 0.0
C1441 C 0.92288 0.98012 0.98671 0.0
C1442 C 0.91491 0.9713 0.97501 0.0
C1443 C 0.9432 0.96644 0.96288 0.0
C1444 C 0.97955 0.97036 0.96249 0.0
C1445 C 0.98772 0.97915 0.97426 0.0
H1446 H 0.93693 0.95967 0.95368 0.0
H1447 H 0.02125 0.04532 0.06485 0.0
H1448 H 0.77202 0.03744 0.80687 0.0
H1449 H 0.80427 0.02237 0.79442 0.0
H1450 H 0.69766 0.00741 0.78764 0.0
H1451 H 0.66531 0.02234 0.8004 0.0
H1452 H 0.75568 0.99412 0.79363 0.0
H1453 H 0.72867 0.02389 0.7465 0.0
H1454 H 0.73652 0.04171 0.7375 0.0
H1455 H 0.85594 0.03786 0.73341 0.0
H1456 H 0.84895 0.02003 0.74284 0.0
H1457 H 0.74795 0.96577 0.6979 0.0
H1458 H 0.73604 0.98087 0.71964 0.0
H1459 H 0.85365 0.98838 0.71682 0.0
H1460 H 0.86607 0.97324 0.69508 0.0
H1461 H 0.80385 0.00529 0.71857 0.0
H1462 H 0.83256 0.97563 0.7588 0.0
H1463 H 0.82889 0.95786 0.76869 0.0
H1464 H 0.71285 0.96128 0.78694 0.0
H1465 H 0.7157 0.97912 0.77688 0.0
C1466 C 0.75554 0.03078 0.80388 0.0
C1467 C 0.71602 0.03121 0.80353 0.0
C1468 C 0.77407 0.02218 0.79665 0.0
C1469 C 0.75315 0.01397 0.78904 0.0
C1470 C 0.71427 0.01376 0.79294 0.0
C1471 C 0.69574 0.02233 0.80031 0.0
C1472 C 0.7695 0.00677 0.77276 0.0
C1473 C 0.7663 -0.00345 0.77727 0.0
C1474 C 0.78432 0.00997 0.75156 0.0
C1475 C 0.78832 0.02065 0.74558 0.0
C1476 C 0.75661 0.02685 0.74378 0.0
C1477 C 0.76089 0.03695 0.73861 0.0
C1478 C 0.79665 0.04092 0.7349 0.0
C1479 C 0.82825 0.03478 0.73633 0.0
C1480 C 0.82417 0.02468 0.74161 0.0
C1481 C 0.77114 0.97081 0.70101 0.0
C1482 C 0.8082 0.9681 0.69549 0.0
C1483 C 0.76427 0.97942 0.7136 0.0
C1484 C 0.79424 0.98549 0.72052 0.0
C1485 C 0.8303 0.98367 0.71195 0.0
C1486 C 0.83727 0.97501 0.69943 0.0
C1487 C 0.78866 0.99269 0.73921 0.0
C1488 C 0.79392 0.00286 0.7351 0.0
C1489 C 0.77634 0.98945 0.76089 0.0
C1490 C 0.77425 0.97871 0.76686 0.0
C1491 C 0.80611 0.97258 0.76465 0.0
C1492 C 0.8042 0.96248 0.77033 0.0
C1493 C 0.77061 0.95841 0.77835 0.0
C1494 C 0.73885 0.96444 0.78071 0.0
C1495 C 0.74062 0.97456 0.77506 0.0
H1496 H 0.76918 0.9506 0.7828 0.0
H1497 H 0.79985 0.04874 0.73088 0.0
H1498 H 0.99582 0.71514 0.82194 0.0
H1499 H 0.9708 0.72955 0.80172 0.0
H1500 H 0.08324 0.73821 0.78292 0.0
H1501 H 0.10849 0.72415 0.80384 0.0
H1502 H 0.03871 0.75379 0.78164 0.0
H1503 H 0.0309 0.71928 0.75389 0.0
H1504 H 0.00839 0.70188 0.75546 0.0
H1505 H 0.89419 0.71197 0.75478 0.0
H1506 H 0.91574 0.72942 0.75359 0.0
H1507 H 0.99682 0.77878 0.68468 0.0
H1508 H 0.02454 0.76409 0.70243 0.0
H1509 H 0.91385 0.75361 0.72032 0.0
H1510 H 0.88606 0.76789 0.70158 0.0
H1511 H 0.95893 0.73878 0.72151 0.0
H1512 H 0.96251 0.77251 0.75251 0.0
H1513 H 0.98061 0.79028 0.75256 0.0
H1514 H 0.09698 0.78218 0.74884 0.0
H1515 H 0.07971 0.76437 0.74857 0.0
C1516 C 0.01537 0.72041 0.81458 0.0
C1517 C 0.05397 0.7182 0.81337 0.0
C1518 C 0.00096 0.72859 0.80275 0.0
C1519 C 0.02507 0.73453 0.7896 0.0
C1520 C 0.06402 0.7335 0.79232 0.0
C1521 C 0.07847 0.72545 0.80447 0.0
C1522 C 0.01044 0.74051 0.77037 0.0
C1523 C 0.02145 0.75049 0.76843 0.0
C1524 C 0.98762 0.73621 0.75317 0.0
C1525 C 0.97496 0.72567 0.75385 0.0
C1526 C 0.001 0.71779 0.7542 0.0
C1527 C 0.98843 0.70792 0.75503 0.0
C1528 C 0.95001 0.70583 0.75526 0.0
C1529 C 0.92397 0.7136 0.75464 0.0
C1530 C 0.93632 0.72348 0.75391 0.0
C1531 C 0.97831 0.77305 0.6912 0.0
C1532 C 0.93941 0.77475 0.69294 0.0
C1533 C 0.99422 0.76471 0.70163 0.0
C1534 C 0.97132 0.75816 0.71405 0.0
C1535 C 0.93219 0.75877 0.71152 0.0
C1536 C 0.91625 0.76697 0.70064 0.0
C1537 C 0.98702 0.75208 0.73283 0.0
C1538 C 0.97631 0.74207 0.73467 0.0
C1539 C 0.00952 0.75639 0.75015 0.0
C1540 C 0.01982 0.76711 0.75031 0.0
C1541 C 0.99195 0.77452 0.7516 0.0
C1542 C 0.00204 0.78459 0.75168 0.0
C1543 C 0.03984 0.78735 0.75064 0.0
C1544 C 0.0677 0.78003 0.74959 0.0
C1545 C 0.0578 0.76995 0.74949 0.0
H1546 H 0.04754 0.79515 0.75071 0.0
H1547 H 0.94042 0.69818 0.75587 0.0
H1548 H 0.75023 0.71883 0.92428 0.0
H1549 H 0.78049 0.73298 0.94281 0.0
H1550 H 0.67436 0.74134 0.97263 0.0
H1551 H 0.64371 0.72777 0.95291 0.0
H1552 H 0.7175 0.75624 0.97553 0.0
H1553 H 0.73119 0.72121 0.99552 0.0
H1554 H 0.74898 0.70379 0.9875 0.0
H1555 H 0.86223 0.71296 0.9737 0.0
H1556 H 0.8451 0.73045 0.98159 0.0
H1557 H 0.77233 0.77362 0.07845 0.0
H1558 H 0.7464 0.75975 0.05675 0.0
H1559 H 0.85439 0.75498 0.02542 0.0
H1560 H 0.88089 0.76841 0.04783 0.0
H1561 H 0.81231 0.73856 0.0225 0.0
H1562 H 0.7916 0.77466 0.00787 0.0
H1563 H 0.76605 0.79112 0.01876 0.0
H1564 H 0.65627 0.77846 0.02636 0.0
H1565 H 0.68092 0.76193 0.01574 0.0
C1566 C 0.73296 0.72407 0.9336 0.0
C1567 C 0.69509 0.72189 0.93824 0.0
C1568 C 0.75038 0.73208 0.94447 0.0
C1569 C 0.73015 0.73773 0.9604 0.0
C1570 C 0.69088 0.73686 0.96103 0.0
C1571 C 0.67327 0.72905 0.94962 0.0
C1572 C 0.74962 0.74277 0.9795 0.0
C1573 C 0.73823 0.75237 0.98576 0.0
C1574 C 0.77626 0.73766 0.99319 0.0
C1575 C 0.78683 0.72713 0.98899 0.0
C1576 C 0.75989 0.7195 0.99079 0.0
C1577 C 0.76983 0.70962 0.98624 0.0
C1578 C 0.80666 0.70727 0.98003 0.0
C1579 C 0.8337 0.71479 0.97849 0.0
C1580 C 0.82393 0.72468 0.98303 0.0
C1581 C 0.79112 0.76923 0.068 0.0
C1582 C 0.82803 0.77248 0.06377 0.0
C1583 C 0.77612 0.76138 0.05535 0.0
C1584 C 0.79792 0.75685 0.03837 0.0
C1585 C 0.83672 0.75864 0.03787 0.0
C1586 C 0.85192 0.76633 0.05087 0.0
C1587 C 0.77991 0.75199 0.01858 0.0
C1588 C 0.79176 0.74244 0.01216 0.0
C1589 C 0.75273 0.75702 0.00518 0.0
C1590 C 0.73814 0.76705 0.01112 0.0
C1591 C 0.76203 0.77539 0.01186 0.0
C1592 C 0.74775 0.78472 0.018 0.0
C1593 C 0.70971 0.78582 0.02325 0.0
C1594 C 0.68575 0.7776 0.0223 0.0
C1595 C 0.69982 0.76826 0.01621 0.0
H1596 H 0.69881 0.79305 0.02802 0.0
H1597 H 0.81427 0.69963 0.97646 0.0
H1598 H 0.14298 0.51693 0.80044 0.0
H1599 H 0.17154 0.50328 0.77929 0.0
H1600 H 0.28096 0.51639 0.78934 0.0
H1601 H 0.25296 0.52977 0.81117 0.0
H1602 H 0.20292 0.50871 0.73965 0.0
H1603 H 0.34877 0.50106 0.77657 0.0
H1604 H 0.37804 0.50056 0.81455 0.0
H1605 H 0.27475 0.48993 0.84339 0.0
H1606 H 0.24494 0.49029 0.80556 0.0
H1607 H 0.37024 0.47469 0.6953 0.0
H1608 H 0.34561 0.49042 0.70958 0.0
H1609 H 0.23255 0.47932 0.70207 0.0
H1610 H 0.25681 0.46377 0.68713 0.0
H1611 H 0.31509 0.48731 0.74937 0.0
H1612 H 0.16692 0.498 0.71258 0.0
H1613 H 0.13674 0.5011 0.67562 0.0
H1614 H 0.24453 0.50634 0.64521 0.0
H1615 H 0.2754 0.50364 0.68216 0.0
C1616 C 0.17333 0.51663 0.79926 0.0
C1617 C 0.19559 0.52468 0.80653 0.0
C1618 C 0.18956 0.50887 0.78688 0.0
C1619 C 0.22816 0.50901 0.78208 0.0
C1620 C 0.25106 0.51614 0.79267 0.0
C1621 C 0.23492 0.52381 0.80526 0.0
C1622 C 0.24341 0.50287 0.76334 0.0
C1623 C 0.22694 0.50383 0.74175 0.0
C1624 C 0.27597 0.49701 0.76595 0.0
C1625 C 0.29455 0.49581 0.78831 0.0
C1626 C 0.33246 0.49849 0.79098 0.0
C1627 C 0.34907 0.49828 0.81248 0.0
C1628 C 0.32809 0.49534 0.83138 0.0
C1629 C 0.29081 0.49231 0.82875 0.0
C1630 C 0.27405 0.49252 0.8073 0.0
C1631 C 0.34009 0.47578 0.69549 0.0
C1632 C 0.31547 0.46782 0.69122 0.0
C1633 C 0.32603 0.4848 0.70374 0.0
C1634 C 0.28732 0.4859 0.70769 0.0
C1635 C 0.26255 0.47863 0.69941 0.0
C1636 C 0.27657 0.46967 0.69096 0.0
C1637 C 0.27405 0.49289 0.72545 0.0
C1638 C 0.29097 0.49214 0.747 0.0
C1639 C 0.24181 0.49893 0.72269 0.0
C1640 C 0.2236 0.50048 0.70021 0.0
C1641 C 0.18427 0.49986 0.69807 0.0
C1642 C 0.167 0.50158 0.67711 0.0
C1643 C 0.18872 0.5039 0.65807 0.0
C1644 C 0.22776 0.50452 0.65998 0.0
C1645 C 0.24517 0.5029 0.68095 0.0
H1646 H 0.1753 0.50523 0.64186 0.0
H1647 H 0.34069 0.49544 0.84809 0.0
H1648 H 0.3571 0.76578 0.5632 0.0
H1649 H 0.33577 0.75002 0.54688 0.0
H1650 H 0.22648 0.76297 0.53494 0.0
H1651 H 0.24578 0.77797 0.55397 0.0
H1652 H 0.21582 0.74567 0.53208 0.0
H1653 H 0.31753 0.7655 0.4973 0.0
H1654 H 0.38171 0.77249 0.49741 0.0
H1655 H 0.42802 0.74311 0.50376 0.0
H1656 H 0.36415 0.73595 0.50409 0.0
H1657 H 0.16302 0.71981 0.43841 0.0
H1658 H 0.19035 0.7352 0.45323 0.0
H1659 H 0.29072 0.71918 0.47195 0.0
H1660 H 0.26539 0.70415 0.4553 0.0
H1661 H 0.30684 0.73773 0.47087 0.0
H1662 H 0.19956 0.71871 0.50431 0.0
H1663 H 0.134 0.71289 0.50102 0.0
H1664 H 0.09596 0.74305 0.49395 0.0
H1665 H 0.16137 0.74904 0.49649 0.0
C1666 C 0.32791 0.76504 0.55829 0.0
C1667 C 0.30375 0.77332 0.55861 0.0
C1668 C 0.31594 0.75609 0.54842 0.0
C1669 C 0.28056 0.75559 0.53777 0.0
C1670 C 0.25447 0.7632 0.54212 0.0
C1671 C 0.26571 0.77188 0.55308 0.0
C1672 C 0.27209 0.74814 0.51966 0.0
C1673 C 0.23581 0.74405 0.51867 0.0
C1674 C 0.29786 0.74589 0.50191 0.0
C1675 C 0.33614 0.75021 0.50088 0.0
C1676 C 0.34143 0.76054 0.49867 0.0
C1677 C 0.37772 0.76453 0.49871 0.0
C1678 C 0.40888 0.75826 0.50058 0.0
C1679 C 0.40386 0.74797 0.50234 0.0
C1680 C 0.36765 0.74394 0.50242 0.0
C1681 C 0.19174 0.7197 0.4445 0.0
C1682 C 0.2112 0.71065 0.44691 0.0
C1683 C 0.20719 0.72848 0.45325 0.0
C1684 C 0.24136 0.72814 0.46525 0.0
C1685 C 0.26368 0.71957 0.46355 0.0
C1686 C 0.24895 0.71092 0.45402 0.0
C1687 C 0.25046 0.73558 0.48313 0.0
C1688 C 0.2869 0.73952 0.4842 0.0
C1689 C 0.22455 0.73794 0.50064 0.0
C1690 C 0.18526 0.73431 0.50053 0.0
C1691 C 0.17717 0.72409 0.5022 0.0
C1692 C 0.14007 0.72076 0.50038 0.0
C1693 C 0.11083 0.72758 0.49742 0.0
C1694 C 0.11861 0.73777 0.49627 0.0
C1695 C 0.15567 0.74114 0.49785 0.0
H1696 H 0.08217 0.72497 0.49597 0.0
H1697 H 0.43693 0.76138 0.50066 0.0
H1698 H 0.89733 0.47508 0.56601 0.0
H1699 H 0.92402 0.49064 0.55182 0.0
H1700 H 0.03318 0.47674 0.5485 0.0
H1701 H 0.0078 0.46182 0.56528 0.0
H1702 H 0.04432 0.49444 0.5417 0.0
H1703 H 0.94269 0.47198 0.50963 0.0
H1704 H 0.87629 0.46665 0.51097 0.0
H1705 H 0.84014 0.49681 0.50157 0.0
H1706 H 0.9061 0.50245 0.50163 0.0
H1707 H 0.11238 0.51362 0.44244 0.0
H1708 H 0.08792 0.4993 0.46342 0.0
H1709 H 0.97707 0.51236 0.46167 0.0
H1710 H 1.00004 0.52565 0.43812 0.0
H1711 H 0.96617 0.49572 0.47203 0.0
H1712 H 0.0641 0.51866 0.50081 0.0
H1713 H 0.12921 0.52503 0.50107 0.0
H1714 H 0.17054 0.4959 0.5174 0.0
H1715 H 0.106 0.48924 0.51624 0.0
C1716 C 0.92748 0.47557 0.56377 0.0
C1717 C 0.95006 0.46699 0.56477 0.0
C1718 C 0.94267 0.48445 0.55521 0.0
C1719 C 0.97968 0.48447 0.5468 0.0
C1720 C 0.00393 0.47678 0.55359 0.0
C1721 C 0.98922 0.46815 0.56322 0.0
C1722 C 0.99085 0.49068 0.52693 0.0
C1723 C 0.0271 0.49479 0.52651 0.0
C1724 C 0.96854 0.49122 0.50694 0.0
C1725 C 0.92922 0.48764 0.50588 0.0
C1726 C 0.92056 0.47746 0.50778 0.0
C1727 C 0.88303 0.47439 0.50838 0.0
C1728 C 0.85409 0.48134 0.50609 0.0
C1729 C 0.86256 0.49142 0.50336 0.0
C1730 C 0.89996 0.49458 0.50329 0.0
C1731 C 0.0824 0.51309 0.44534 0.0
C1732 C 0.0585 0.52111 0.44002 0.0
C1733 C 0.06852 0.505 0.45784 0.0
C1734 C 0.03139 0.50523 0.46607 0.0
C1735 C 0.00629 0.51215 0.45656 0.0
C1736 C 0.01962 0.51985 0.44299 0.0
C1737 C 0.01965 0.4996 0.48675 0.0
C1738 C 0.98338 0.49552 0.48724 0.0
C1739 C 0.04173 0.49929 0.50688 0.0
C1740 C 0.08027 0.50344 0.50825 0.0
C1741 C 0.08709 0.51362 0.50448 0.0
C1742 C 0.12388 0.51728 0.50469 0.0
C1743 C 0.15391 0.51091 0.50938 0.0
C1744 C 0.14727 0.50084 0.51376 0.0
C1745 C 0.11063 0.4971 0.51318 0.0
H1746 H 0.18232 0.51377 0.50958 0.0
H1747 H 0.8251 0.47891 0.50652 0.0
H1748 H 0.75026 0.52742 0.33174 0.0
H1749 H 0.77656 0.51252 0.3141 0.0
H1750 H 0.66648 0.50447 0.28963 0.0
H1751 H 0.63983 0.51899 0.30809 0.0
H1752 H 0.71032 0.48868 0.28927 0.0
H1753 H 0.72187 0.52347 0.26289 0.0
H1754 H 0.74378 0.54082 0.26706 0.0
H1755 H 0.85746 0.53065 0.27387 0.0
H1756 H 0.83625 0.51322 0.26999 0.0
H1757 H 0.74205 0.4684 0.18546 0.0
H1758 H 0.72109 0.48241 0.2086 0.0
H1759 H 0.83581 0.48845 0.22766 0.0
H1760 H 0.85707 0.4748 0.20382 0.0
H1761 H 0.79464 0.50468 0.23276 0.0
H1762 H 0.78422 0.47005 0.25561 0.0
H1763 H 0.76279 0.45267 0.25146 0.0
H1764 H 0.648 0.46238 0.25137 0.0
H1765 H 0.66864 0.47984 0.25541 0.0
C1766 C 0.7313 0.52217 0.32377 0.0
C1767 C 0.69338 0.52466 0.32012 0.0
C1768 C 0.74646 0.51369 0.31349 0.0
C1769 C 0.72381 0.50781 0.29931 0.0
C1770 C 0.68472 0.50912 0.29988 0.0
C1771 C 0.66944 0.51746 0.31055 0.0
C1772 C 0.74047 0.50202 0.28038 0.0
C1773 C 0.7287 0.49218 0.27692 0.0
C1774 C 0.76481 0.50656 0.2643 0.0
C1775 C 0.77746 0.51705 0.26635 0.0
C1776 C 0.75152 0.52494 0.26533 0.0
C1777 C 0.76379 0.53478 0.26765 0.0
C1778 C 0.80192 0.53684 0.27077 0.0
C1779 C 0.82792 0.52905 0.2715 0.0
C1780 C 0.81581 0.51919 0.26924 0.0
C1781 C 0.763 0.47307 0.19349 0.0
C1782 C 0.801 0.4702 0.19377 0.0
C1783 C 0.75093 0.481 0.20699 0.0
C1784 C 0.77675 0.48602 0.22092 0.0
C1785 C 0.8153 0.48446 0.21757 0.0
C1786 C 0.82745 0.47665 0.20373 0.0
C1787 C 0.76384 0.49142 0.24143 0.0
C1788 C 0.77645 0.50116 0.24519 0.0
C1789 C 0.74037 0.48678 0.2578 0.0
C1790 C 0.72798 0.47626 0.25564 0.0
C1791 C 0.75441 0.46849 0.2546 0.0
C1792 C 0.74243 0.45862 0.25228 0.0
C1793 C 0.70413 0.45642 0.25106 0.0
C1794 C 0.67767 0.46409 0.25228 0.0
C1795 C 0.68948 0.47397 0.25464 0.0
H1796 H 0.69495 0.44878 0.24923 0.0
H1797 H 0.81131 0.54446 0.27257 0.0
H1798 H 0.85282 0.27008 0.5586 0.0
H1799 H 0.82681 0.25513 0.54107 0.0
H1800 H 0.71733 0.26888 0.5395 0.0
H1801 H 0.7424 0.28348 0.55832 0.0
H1802 H 0.70877 0.24995 0.5364 0.0
H1803 H 0.79111 0.27412 0.49817 0.0
H1804 H 0.85144 0.28279 0.49321 0.0
H1805 H 0.90781 0.25483 0.48425 0.0
H1806 H 0.84779 0.24593 0.48979 0.0
H1807 H 0.63932 0.2254 0.44557 0.0
H1808 H 0.66246 0.24123 0.46036 0.0
H1809 H 0.7752 0.22943 0.46127 0.0
H1810 H 0.7529 0.21404 0.4448 0.0
H1811 H 0.78086 0.24789 0.46434 0.0
H1812 H 0.70193 0.22348 0.50418 0.0
H1813 H 0.64288 0.21419 0.50967 0.0
H1814 H 0.58218 0.24165 0.51637 0.0
H1815 H 0.64086 0.25113 0.51055 0.0
C1816 C 0.82284 0.26972 0.55565 0.0
C1817 C 0.80007 0.27819 0.55853 0.0
C1818 C 0.80806 0.26119 0.54537 0.0
C1819 C 0.77077 0.26122 0.53753 0.0
C1820 C 0.74655 0.26884 0.54466 0.0
C1821 C 0.76105 0.27723 0.55546 0.0
C1822 C 0.75872 0.2546 0.51872 0.0
C1823 C 0.72449 0.24953 0.52063 0.0
C1824 C 0.77918 0.25402 0.49807 0.0
C1825 C 0.81508 0.25938 0.49451 0.0
C1826 C 0.8164 0.26983 0.49521 0.0
C1827 C 0.85056 0.27478 0.49231 0.0
C1828 C 0.88348 0.2694 0.48834 0.0
C1829 C 0.88232 0.259 0.48736 0.0
C1830 C 0.84826 0.25399 0.49045 0.0
C1831 C 0.66932 0.22638 0.44766 0.0
C1832 C 0.69405 0.21827 0.44553 0.0
C1833 C 0.68249 0.23541 0.4564 0.0
C1834 C 0.72002 0.23618 0.46362 0.0
C1835 C 0.74578 0.22888 0.45674 0.0
C1836 C 0.73288 0.22001 0.44732 0.0
C1837 C 0.73107 0.24314 0.48206 0.0
C1838 C 0.76509 0.24832 0.48008 0.0
C1839 C 0.71067 0.2437 0.50276 0.0
C1840 C 0.67564 0.238 0.50676 0.0
C1841 C 0.67597 0.22753 0.50683 0.0
C1842 C 0.64257 0.22223 0.50995 0.0
C1843 C 0.60878 0.22731 0.51336 0.0
C1844 C 0.60835 0.23772 0.5137 0.0
C1845 C 0.64165 0.24306 0.51047 0.0
H1846 H 0.58296 0.22318 0.51577 0.0
H1847 H 0.90986 0.27327 0.48603 0.0
H1848 H 0.39921 0.27718 0.76316 0.0
H1849 H 0.4429 0.26332 0.76648 0.0
H1850 H 0.47639 0.2673 0.6966 0.0
H1851 H 0.43148 0.28127 0.69306 0.0
H1852 H 0.46961 0.24582 0.71585 0.0
H1853 H 0.53577 0.27585 0.72525 0.0
H1854 H 0.54423 0.29336 0.73673 0.0
H1855 H 0.53117 0.28516 0.80677 0.0
H1856 H 0.52194 0.26762 0.79573 0.0
H1857 H 0.62348 0.22281 0.79366 0.0
H1858 H 0.60431 0.23757 0.77229 0.0
H1859 H 0.48804 0.22953 0.78161 0.0
H1860 H 0.50675 0.21474 0.80273 0.0
H1861 H 0.5597 0.25387 0.77766 0.0
H1862 H 0.44445 0.2297 0.73163 0.0
H1863 H 0.43752 0.21232 0.71878 0.0
H1864 H 0.55742 0.20899 0.717 0.0
H1865 H 0.56515 0.2264 0.72949 0.0
C1866 C 0.41521 0.27495 0.74834 0.0
C1867 C 0.41254 0.28028 0.72796 0.0
C1868 C 0.44011 0.26706 0.75024 0.0
C1869 C 0.46322 0.26447 0.73192 0.0
C1870 C 0.45875 0.26927 0.7109 0.0
C1871 C 0.43321 0.27719 0.7089 0.0
C1872 C 0.49397 0.25741 0.73633 0.0
C1873 C 0.49004 0.24755 0.72892 0.0
C1874 C 0.52163 0.25985 0.75268 0.0
C1875 C 0.52824 0.27038 0.75962 0.0
C1876 C 0.53458 0.27777 0.74311 0.0
C1877 C 0.53949 0.28771 0.74953 0.0
C1878 C 0.53827 0.29037 0.77246 0.0
C1879 C 0.53221 0.28308 0.78901 0.0
C1880 C 0.52723 0.27313 0.78268 0.0
C1881 C 0.59376 0.22434 0.79181 0.0
C1882 C 0.5666 0.21746 0.7994 0.0
C1883 C 0.58295 0.23274 0.7794 0.0
C1884 C 0.54492 0.23435 0.7746 0.0
C1885 C 0.51766 0.22818 0.78452 0.0
C1886 C 0.52838 0.2198 0.79685 0.0
C1887 C 0.53309 0.24218 0.7585 0.0
C1888 C 0.5407 0.25214 0.76381 0.0
C1889 C 0.50998 0.23985 0.73962 0.0
C1890 C 0.50536 0.2294 0.73157 0.0
C1891 C 0.46937 0.22531 0.72831 0.0
C1892 C 0.4653 0.21543 0.72113 0.0
C1893 C 0.497 0.20956 0.71709 0.0
C1894 C 0.53287 0.21355 0.72017 0.0
C1895 C 0.5371 0.22342 0.72733 0.0
H1896 H 0.49377 0.20191 0.71157 0.0
H1897 H 0.54203 0.29807 0.77741 0.0
H1898 H 0.49125 0.03318 0.44433 0.0
H1899 H 0.46845 0.01857 0.46466 0.0
H1900 H 0.58256 0.00907 0.47639 0.0
H1901 H 0.60572 0.02376 0.4563 0.0
H1902 H 0.47349 -0.00114 0.4639 0.0
H1903 H 0.58893 0.0017 0.5334 0.0
H1904 H 0.6319 0.01417 0.54988 0.0
H1905 H 0.55822 0.0377 0.52864 0.0
H1906 H 0.51442 0.02537 0.51239 0.0
H1907 H 0.4972 0.95973 0.54933 0.0
H1908 H 0.52235 0.97571 0.53677 0.0
H1909 H 0.41028 0.98782 0.53436 0.0
H1910 H 0.38475 0.97186 0.54687 0.0
H1911 H 0.51782 -0.00278 0.54382 0.0
H1912 H 0.3997 0.99537 0.47876 0.0
H1913 H 0.35364 0.98351 0.46294 0.0
H1914 H 0.42901 0.95924 0.4762 0.0
H1915 H 0.4759 0.97098 0.49164 0.0
C1916 C 0.51153 0.02781 0.45053 0.0
C1917 C 0.55028 0.02976 0.44917 0.0
C1918 C 0.49844 0.01949 0.46228 0.0
C1919 C 0.52388 0.01297 0.47275 0.0
C1920 C 0.56252 0.0142 0.46897 0.0
C1921 C 0.57568 0.02253 0.45717 0.0
C1922 C 0.5099 0.00541 0.48898 0.0
C1923 C 0.48297 -0.00143 0.48141 0.0
C1924 C 0.52233 0.00506 0.51187 0.0
C1925 C 0.54859 0.01258 0.52143 0.0
C1926 C 0.58185 0.00953 0.53227 0.0
C1927 C 0.60632 0.01658 0.54159 0.0
C1928 C 0.59781 0.02672 0.54025 0.0
C1929 C 0.5648 0.02984 0.52959 0.0
C1930 C 0.54016 0.02282 0.52029 0.0
C1931 C 0.47799 0.96591 0.54707 0.0
C1932 C 0.4389 0.96445 0.54829 0.0
C1933 C 0.49247 0.97506 0.53998 0.0
C1934 C 0.46802 0.9828 0.53401 0.0
C1935 C 0.42949 0.98184 0.53858 0.0
C1936 C 0.41496 0.9727 0.54577 0.0
C1937 C 0.48153 0.99073 0.51863 0.0
C1938 C 0.50839 -0.00242 0.52632 0.0
C1939 C 0.46877 0.99122 0.49588 0.0
C1940 C 0.44108 0.98405 0.48655 0.0
C1941 C 0.40648 0.98751 0.47823 0.0
C1942 C 0.38028 0.98081 0.46931 0.0
C1943 C 0.38844 0.97065 0.46859 0.0
C1944 C 0.42279 0.96713 0.47679 0.0
C1945 C 0.44918 0.9738 0.48563 0.0
H1946 H 0.36817 0.96552 0.46157 0.0
H1947 H 0.61674 0.03214 0.54756 0.0
H1948 H 0.4959 0.71323 0.31707 0.0
H1949 H 0.46818 0.72824 0.30077 0.0
H1950 H 0.57857 0.7387 0.28223 0.0
H1951 H 0.60648 0.72401 0.29937 0.0
H1952 H 0.53062 0.75387 0.28341 0.0
H1953 H 0.53399 0.72085 0.24902 0.0
H1954 H 0.52037 0.70283 0.24908 0.0
H1955 H 0.40234 0.70894 0.25469 0.0
H1956 H 0.41533 0.72701 0.25484 0.0
H1957 H 0.50058 0.77786 0.18447 0.0
H1958 H 0.5221 0.76272 0.20331 0.0
H1959 H 0.40801 0.75568 0.22189 0.0
H1960 H 0.38612 0.77058 0.20246 0.0
H1961 H 0.45459 0.73884 0.22141 0.0
H1962 H 0.45293 0.77209 0.25593 0.0
H1963 H 0.46834 0.78998 0.25641 0.0
H1964 H 0.58554 0.78315 0.2493 0.0
H1965 H 0.57081 0.76517 0.2491 0.0
C1966 C 0.51439 0.719 0.31073 0.0
C1967 C 0.55315 0.71725 0.30845 0.0
C1968 C 0.49849 0.72755 0.30124 0.0
C1969 C 0.52124 0.73424 0.28912 0.0
C1970 C 0.56042 0.73347 0.29096 0.0
C1971 C 0.57639 0.72504 0.30086 0.0
C1972 C 0.50512 0.74043 0.27075 0.0
C1973 C 0.51413 0.75058 0.26986 0.0
C1974 C 0.48362 0.73611 0.25297 0.0
C1975 C 0.47563 0.72527 0.25205 0.0
C1976 C 0.50514 0.71834 0.25024 0.0
C1977 C 0.49754 0.70812 0.25028 0.0
C1978 C 0.46052 0.70474 0.25193 0.0
C1979 C 0.431 0.71157 0.25343 0.0
C1980 C 0.43845 0.72181 0.25341 0.0
C1981 C 0.47983 0.77279 0.1914 0.0
C1982 C 0.4419 0.77562 0.1929 0.0
C1983 C 0.49221 0.76417 0.20232 0.0
C1984 C 0.46677 0.7584 0.21493 0.0
C1985 C 0.42815 0.76017 0.21266 0.0
C1986 C 0.41568 0.76872 0.20142 0.0
C1987 C 0.48041 0.75224 0.23406 0.0
C1988 C 0.47094 0.74212 0.23505 0.0
C1989 C 0.50177 0.75654 0.25186 0.0
C1990 C 0.51077 0.76732 0.25239 0.0
C1991 C 0.48196 0.77441 0.25441 0.0
C1992 C 0.49058 0.78457 0.25466 0.0
C1993 C 0.52785 0.78772 0.25273 0.0
C1994 C 0.55666 0.7807 0.25077 0.0
C1995 C 0.54824 0.77053 0.25073 0.0
H1996 H 0.5344 0.79559 0.25284 0.0
H1997 H 0.4547 0.69683 0.25201 0.0
H1998 H 0.49826 0.46153 0.05697 0.0
H1999 H 0.52097 0.47709 0.04043 0.0
H2000 H 0.40842 0.48416 0.0185 0.0
H2001 H 0.38544 0.4688 0.03558 0.0
H2002 H 0.51876 0.47912 0.99607 0.0
H2003 H 0.39947 0.50775 0.00484 0.0
H2004 H 0.35407 0.5138 0.03337 0.0
H2005 H 0.42934 0.50534 0.08702 0.0
H2006 H 0.47514 0.49924 0.05879 0.0
H2007 H 0.49922 0.53321 0.94213 0.0
H2008 H 0.47376 0.51716 0.95415 0.0
H2009 H 0.58388 0.50823 0.9771 0.0
H2010 H 0.6096 0.52404 0.9643 0.0
H2011 H 0.47213 0.51388 0.99734 0.0
H2012 H 0.58897 0.4839 0.98896 0.0
H2013 H 0.63534 0.47801 0.9609 0.0
H2014 H 0.56702 0.48935 0.90664 0.0
H2015 H 0.52003 0.49523 0.93435 0.0
C2016 C 0.47812 0.4666 0.04945 0.0
C2017 C 0.4402 0.46387 0.04723 0.0
C2018 C 0.49117 0.47546 0.03987 0.0
C2019 C 0.46655 0.48171 0.02787 0.0
C2020 C 0.42797 0.47951 0.02778 0.0
C2021 C 0.41482 0.4707 0.03761 0.0
C2022 C 0.48182 0.48955 0.01268 0.0
C2023 C 0.50905 0.48678 0.99659 0.0
C2024 C 0.46798 0.49941 0.01265 0.0
C2025 C 0.4405 0.50295 0.02974 0.0
C2026 C 0.40629 0.50718 0.02273 0.0
C2027 C 0.38048 0.51061 0.03884 0.0
C2028 C 0.38877 0.50993 0.06199 0.0
C2029 C 0.42288 0.50582 0.06909 0.0
C2030 C 0.4487 0.50234 0.05305 0.0
C2031 C 0.51829 0.52763 0.94875 0.0
C2032 C 0.55621 0.52995 0.95271 0.0
C2033 C 0.50368 0.51848 0.95574 0.0
C2034 C 0.52671 0.51154 0.96694 0.0
C2035 C 0.56549 0.51339 0.96837 0.0
C2036 C 0.58023 0.52248 0.96103 0.0
C2037 C 0.50953 0.5035 0.9808 0.0
C2038 C 0.4818 0.50622 0.99666 0.0
C2039 C 0.52307 0.4936 0.98063 0.0
C2040 C 0.55114 0.49009 0.96377 0.0
C2041 C 0.58377 0.48512 0.97104 0.0
C2042 C 0.61019 0.48178 0.95519 0.0
C2043 C 0.60419 0.48333 0.93201 0.0
C2044 C 0.57171 0.4882 0.92461 0.0
C2045 C 0.54522 0.49156 0.94039 0.0
H2046 H 0.62467 0.48075 0.91976 0.0
H2047 H 0.36879 0.5126 0.07444 0.0
H2048 H 0.14882 0.16056 0.31782 0.0
H2049 H 0.15809 0.14354 0.33155 0.0
H2050 H 0.04507 0.13599 0.31154 0.0
H2051 H 0.03532 0.15295 0.29803 0.0
H2052 H 0.06468 0.12673 0.35131 0.0
H2053 H 0.11313 0.13094 0.27632 0.0
H2054 H 0.15064 0.1388 0.24599 0.0
H2055 H 0.25199 0.13245 0.2828 0.0
H2056 H 0.21497 0.12469 0.31354 0.0
H2057 H 0.08517 0.07468 0.32588 0.0
H2058 H 0.07156 0.09242 0.32983 0.0
H2059 H 0.18753 0.09798 0.34702 0.0
H2060 H 0.20156 0.0803 0.34235 0.0
H2061 H 0.16706 0.10866 0.31174 0.0
H2062 H 0.11199 0.10156 0.38484 0.0
H2063 H 0.0692 0.09293 0.41126 0.0
H2064 H 0.97399 0.10386 0.37407 0.0
H2065 H 0.01617 0.11234 0.34708 0.0
C2066 C 0.12571 0.15533 0.3167 0.0
C2067 C 0.09151 0.15809 0.30657 0.0
C2068 C 0.13106 0.14561 0.32454 0.0
C2069 C 0.10238 0.13849 0.32232 0.0
C2070 C 0.06753 0.14137 0.31344 0.0
C2071 C 0.06214 0.15107 0.30559 0.0
C2072 C 0.10984 0.12784 0.32712 0.0
C2073 C 0.087 0.12273 0.34269 0.0
C2074 C 0.13888 0.12267 0.31578 0.0
C2075 C 0.16126 0.12735 0.29736 0.0
C2076 C 0.14339 0.13131 0.27805 0.0
C2077 C 0.16456 0.13573 0.26077 0.0
C2078 C 0.20367 0.13615 0.2625 0.0
C2079 C 0.22168 0.13214 0.28151 0.0
C2080 C 0.20063 0.12773 0.29887 0.0
C2081 C 0.10755 0.07964 0.33114 0.0
C2082 C 0.14457 0.07613 0.33348 0.0
C2083 C 0.09968 0.0898 0.33348 0.0
C2084 C 0.12856 0.09656 0.33865 0.0
C2085 C 0.16486 0.09291 0.34287 0.0
C2086 C 0.17284 0.0828 0.34023 0.0
C2087 C 0.12241 0.10746 0.33637 0.0
C2088 C 0.14526 0.11264 0.32089 0.0
C2089 C 0.09274 0.11257 0.3474 0.0
C2090 C 0.06734 0.10752 0.36379 0.0
C2091 C 0.08195 0.10205 0.38216 0.0
C2092 C 0.05778 0.09718 0.39724 0.0
C2093 C 0.01891 0.09781 0.39429 0.0
C2094 C 0.00411 0.10335 0.3763 0.0
C2095 C 0.02815 0.10818 0.3611 0.0
H2096 H 1.00024 0.09403 0.40596 0.0
H2097 H 0.22002 0.13957 0.2491 0.0
H2098 H 0.21656 0.15743 0.93489 0.0
H2099 H 0.2069 0.13957 0.92906 0.0
H2100 H 0.087 0.14407 0.92884 0.0
H2101 H 0.09628 0.16194 0.93438 0.0
H2102 H 0.11468 0.13088 0.96272 0.0
H2103 H 0.12433 0.13629 0.88245 0.0
H2104 H 0.15387 0.14247 0.84729 0.0
H2105 H 0.25027 0.12402 0.85959 0.0
H2106 H 0.22156 0.11784 0.89503 0.0
H2107 H 0.05954 0.08183 0.95477 0.0
H2108 H 0.06745 0.09886 0.9413 0.0
H2109 H 0.18727 0.09447 0.93724 0.0
H2110 H 0.17957 0.07727 0.9505 0.0
H2111 H 0.15926 0.10753 0.90316 0.0
H2112 H 0.1554 0.10341 0.98379 0.0
H2113 H 0.1301 0.09736 0.02025 0.0
H2114 H 0.02838 0.11383 0.00907 0.0
H2115 H 0.05283 0.11984 0.97229 0.0
C2116 C 0.18815 0.15466 0.93309 0.0
C2117 C 0.15717 0.16109 0.9354 0.0
C2118 C 0.18271 0.14446 0.92963 0.0
C2119 C 0.14625 0.14052 0.92857 0.0
C2120 C 0.11536 0.14699 0.92959 0.0
C2121 C 0.12075 0.1572 0.93277 0.0
C2122 C 0.14034 0.12962 0.92973 0.0
C2123 C 0.12372 0.12579 0.94947 0.0
C2124 C 0.15364 0.12299 0.91286 0.0
C2125 C 0.17094 0.12668 0.89153 0.0
C2126 C 0.15199 0.13362 0.87778 0.0
C2127 C 0.16855 0.13711 0.85777 0.0
C2128 C 0.20397 0.13366 0.85124 0.0
C2129 C 0.22286 0.12669 0.86468 0.0
C2130 C 0.20643 0.12319 0.88472 0.0
C2131 C 0.08756 0.0844 0.9506 0.0
C2132 C 0.11905 0.07828 0.9542 0.0
C2133 C 0.09198 0.09413 0.9428 0.0
C2134 C 0.12799 0.09797 0.93873 0.0
C2135 C 0.15925 0.09164 0.94038 0.0
C2136 C 0.15481 0.08183 0.94804 0.0
C2137 C 0.13305 0.10886 0.93599 0.0
C2138 C 0.14981 0.11265 0.9162 0.0
C2139 C 0.12053 0.11553 0.95301 0.0
C2140 C 0.10576 0.11197 0.97516 0.0
C2141 C 0.12749 0.10566 0.989 0.0
C2142 C 0.11333 0.10225 0.00974 0.0
C2143 C 0.07761 0.10519 0.01694 0.0
C2144 C 0.05601 0.11155 0.00344 0.0
C2145 C 0.07 0.11496 0.98264 0.0
H2146 H 0.0667 0.10255 0.03302 0.0
H2147 H 0.21675 0.13637 0.83574 0.0
H2148 H 0.87669 0.91055 0.71281 0.0
H2149 H 0.88999 0.89285 0.70945 0.0
H2150 H 0.84308 0.89277 0.64179 0.0
H2151 H 0.82739 0.91061 0.64587 0.0
H2152 H 0.82018 0.87699 0.66534 0.0
H2153 H 0.94227 0.89178 0.65246 0.0
H2154 H 0.9939 0.90332 0.66195 0.0
H2155 H 0.00897 0.8887 0.72618 0.0
H2156 H 0.95721 0.87716 0.71722 0.0
H2157 H 0.87286 0.82598 0.66535 0.0
H2158 H 0.8693 0.84346 0.6535 0.0
H2159 H 0.91998 0.85239 0.71699 0.0
H2160 H 0.92573 0.83495 0.7281 0.0
H2161 H 0.94558 0.86371 0.68617 0.0
H2162 H 0.82056 0.85259 0.70615 0.0
H2163 H 0.76517 0.84163 0.70306 0.0
H2164 H 0.75235 0.84973 0.63291 0.0
H2165 H 0.80795 0.86067 0.63554 0.0
C2166 C 0.86951 0.90676 0.69713 0.0
C2167 C 0.85159 0.91188 0.67945 0.0
C2168 C 0.87738 0.89667 0.69514 0.0
C2169 C 0.86879 0.89153 0.67505 0.0
C2170 C 0.85045 0.89663 0.65732 0.0
C2171 C 0.84157 0.90677 0.65959 0.0
C2172 C 0.87748 0.88073 0.67345 0.0
C2173 C 0.84785 0.87408 0.66929 0.0
C2174 C 0.91338 0.87693 0.67925 0.0
C2175 C 0.94583 0.88358 0.68412 0.0
C2176 C 0.95663 0.89101 0.66859 0.0
C2177 C 0.98589 0.89757 0.6739 0.0
C2178 C 0.00471 0.89674 0.69465 0.0
C2179 C 0.99444 0.88932 0.71009 0.0
C2180 C 0.96523 0.88275 0.70487 0.0
C2181 C 0.88345 0.83171 0.67663 0.0
C2182 C 0.89932 0.82916 0.69767 0.0
C2183 C 0.88133 0.84168 0.6699 0.0
C2184 C 0.89373 0.84929 0.68452 0.0
C2185 C 0.91033 0.84669 0.70534 0.0
C2186 C 0.91344 0.83672 0.71175 0.0
C2187 C 0.88793 0.85999 0.67891 0.0
C2188 C 0.91816 0.86661 0.68161 0.0
C2189 C 0.85235 0.86379 0.67249 0.0
C2190 C 0.81858 0.85736 0.67097 0.0
C2191 C 0.80599 0.852 0.69005 0.0
C2192 C 0.77459 0.84579 0.68838 0.0
C2193 C 0.75532 0.84496 0.66778 0.0
C2194 C 0.76735 0.85037 0.64884 0.0
C2195 C 0.79878 0.85658 0.65041 0.0
H2196 H 0.73103 0.84014 0.66652 0.0
H2197 H 0.02724 0.90185 0.69876 0.0
H2198 H 0.81978 0.91203 0.05712 0.0
H2199 H 0.80914 0.89452 0.06611 0.0
H2200 H 0.92132 0.8924 0.09354 0.0
H2201 H 0.93269 0.90982 0.08348 0.0
H2202 H 0.91143 0.87883 0.06309 0.0
H2203 H 0.83596 0.88994 0.12672 0.0
H2204 H 0.78534 0.89973 0.14464 0.0
H2205 H 0.70376 0.88544 0.10195 0.0
H2206 H 0.75389 0.87565 0.0836 0.0
H2207 H 0.89952 0.82784 0.08463 0.0
H2208 H 0.9026 0.84561 0.09358 0.0
H2209 H 0.79326 0.84993 0.06356 0.0
H2210 H 0.7895 0.83216 0.05512 0.0
H2211 H 0.80201 0.86225 0.09902 0.0
H2212 H 0.87086 0.85353 0.03227 0.0
H2213 H 0.9171 0.84417 0.00953 0.0
H2214 H 0.00607 0.85463 0.05262 0.0
H2215 H 0.96021 0.86394 0.07584 0.0
C2216 C 0.84184 0.9079 0.06561 0.0
C2217 C 0.87721 0.91225 0.0694 0.0
C2218 C 0.83565 0.89788 0.07088 0.0
C2219 C 0.86437 0.8921 0.08062 0.0
C2220 C 0.89878 0.89668 0.08594 0.0
C2221 C 0.90525 0.90663 0.08023 0.0
C2222 C 0.86055 0.88109 0.08231 0.0
C2223 C 0.88798 0.87523 0.07154 0.0
C2224 C 0.82899 0.87635 0.09229 0.0
C2225 C 0.79876 0.88209 0.10371 0.0
C2226 C 0.80725 0.88891 0.12109 0.0
C2227 C 0.77863 0.89446 0.13133 0.0
C2228 C 0.74137 0.89322 0.12442 0.0
C2229 C 0.73263 0.88639 0.10731 0.0
C2230 C 0.76112 0.88083 0.09702 0.0
C2231 C 0.87587 0.83254 0.08028 0.0
C2232 C 0.84455 0.82861 0.06883 0.0
C2233 C 0.87765 0.84269 0.08541 0.0
C2234 C 0.84845 0.84913 0.07885 0.0
C2235 C 0.81613 0.84512 0.06875 0.0
C2236 C 0.81415 0.83495 0.06383 0.0
C2237 C 0.85328 0.8601 0.08022 0.0
C2238 C 0.82591 0.86591 0.0912 0.0
C2239 C 0.88437 0.86487 0.06993 0.0
C2240 C 0.91207 0.85933 0.05595 0.0
C2241 C 0.90025 0.85377 0.037 0.0
C2242 C 0.92639 0.84848 0.02402 0.0
C2243 C 0.96449 0.84878 0.02967 0.0
C2244 C 0.97653 0.85439 0.0483 0.0
C2245 C 0.95049 0.85968 0.06137 0.0
H2246 H 0.98469 0.84469 0.01959 0.0
H2247 H 0.71928 0.89753 0.13233 0.0
H2248 H 0.19368 0.58224 0.81381 0.0
H2249 H 0.18314 0.60006 0.82003 0.0
H2250 H 0.0641 0.59579 0.81087 0.0
H2251 H 0.07421 0.57788 0.80529 0.0
H2252 H 0.11863 0.61092 0.77987 0.0
H2253 H 0.06683 0.6019 0.85422 0.0
H2254 H 0.07087 0.59325 0.89111 0.0
H2255 H 0.17231 0.60914 0.90678 0.0
H2256 H 0.16909 0.61778 0.86979 0.0
H2257 H 0.0399 0.65819 0.79418 0.0
H2258 H 0.04952 0.64033 0.79879 0.0
H2259 H 0.15611 0.64581 0.83123 0.0
H2260 H 0.14699 0.66381 0.82645 0.0
H2261 H 0.11104 0.63006 0.85189 0.0
H2262 H 0.16217 0.64006 0.78081 0.0
H2263 H 0.16386 0.64842 0.74356 0.0
H2264 H 0.07143 0.6305 0.72068 0.0
H2265 H 0.06869 0.62215 0.75799 0.0
C2266 C 0.16518 0.58506 0.8136 0.0
C2267 C 0.13474 0.5787 0.80901 0.0
C2268 C 0.15925 0.59522 0.81718 0.0
C2269 C 0.12291 0.59917 0.81591 0.0
C2270 C 0.09231 0.59281 0.81205 0.0
C2271 C 0.09812 0.58261 0.80894 0.0
C2272 C 0.11749 0.61005 0.81636 0.0
C2273 C 0.11633 0.61511 0.79557 0.0
C2274 C 0.11621 0.61547 0.83689 0.0
C2275 C 0.11795 0.61039 0.85918 0.0
C2276 C 0.09019 0.60347 0.86544 0.0
C2277 C 0.09227 0.59859 0.88639 0.0
C2278 C 0.1219 0.60062 0.90126 0.0
C2279 C 0.14942 0.60757 0.89523 0.0
C2280 C 0.14745 0.61246 0.8743 0.0
C2281 C 0.06519 0.65564 0.80261 0.0
C2282 C 0.09286 0.66242 0.80978 0.0
C2283 C 0.07063 0.64542 0.80518 0.0
C2284 C 0.10363 0.64178 0.81516 0.0
C2285 C 0.13046 0.64851 0.82348 0.0
C2286 C 0.12525 0.65877 0.82066 0.0
C2287 C 0.11093 0.63094 0.81532 0.0
C2288 C 0.11299 0.62589 0.83616 0.0
C2289 C 0.11358 0.62552 0.79477 0.0
C2290 C 0.11491 0.63056 0.77233 0.0
C2291 C 0.14189 0.63798 0.76795 0.0
C2292 C 0.1431 0.6427 0.74679 0.0
C2293 C 0.11769 0.64002 0.72978 0.0
C2294 C 0.09104 0.63259 0.73389 0.0
C2295 C 0.08964 0.62786 0.75504 0.0
H2296 H 0.11871 0.64367 0.7134 0.0
H2297 H 0.12348 0.59684 0.91746 0.0
H2298 H 0.07691 0.66067 0.43853 0.0
H2299 H 0.06616 0.64331 0.42711 0.0
H2300 H 0.18407 0.63702 0.4359 0.0
H2301 H 0.19494 0.65422 0.44751 0.0
H2302 H 0.15294 0.62736 0.39775 0.0
H2303 H 0.13057 0.63205 0.47759 0.0
H2304 H 0.10167 0.63979 0.51131 0.0
H2305 H 0.99227 0.63108 0.48786 0.0
H2306 H 0.02054 0.62343 0.45375 0.0
H2307 H 0.16352 0.57622 0.43202 0.0
H2308 H 0.16758 0.59413 0.42445 0.0
H2309 H 0.04673 0.59577 0.42034 0.0
H2310 H 0.04246 0.57798 0.42823 0.0
H2311 H 0.07385 0.60819 0.45165 0.0
H2312 H 0.10167 0.60063 0.37398 0.0
H2313 H 0.13516 0.59224 0.34272 0.0
H2314 H 0.23889 0.60557 0.36419 0.0
H2315 H 0.20614 0.61393 0.3958 0.0
C2316 C 0.10058 0.65561 0.43768 0.0
C2317 C 0.13666 0.65876 0.44418 0.0
C2318 C 0.09443 0.64572 0.43114 0.0
C2319 C 0.12434 0.63889 0.43075 0.0
C2320 C 0.16067 0.64218 0.436 0.0
C2321 C 0.16674 0.65199 0.44282 0.0
C2322 C 0.11748 0.62812 0.42735 0.0
C2323 C 0.13562 0.62314 0.40946 0.0
C2324 C 0.09474 0.62266 0.44259 0.0
C2325 C 0.0776 0.62732 0.46295 0.0
C2326 C 0.10031 0.63189 0.47948 0.0
C2327 C 0.08406 0.63624 0.49869 0.0
C2328 C 0.04514 0.63596 0.50168 0.0
C2329 C 0.0224 0.63132 0.48548 0.0
C2330 C 0.03852 0.62698 0.4662 0.0
C2331 C 0.13791 0.58036 0.4289 0.0
C2332 C 0.10267 0.57574 0.43109 0.0
C2333 C 0.14024 0.59059 0.4245 0.0
C2334 C 0.1074 0.5963 0.42193 0.0
C2335 C 0.07238 0.59153 0.42241 0.0
C2336 C 0.07002 0.58136 0.42696 0.0
C2337 C 0.10919 0.60734 0.42195 0.0
C2338 C 0.09036 0.61239 0.43945 0.0
C2339 C 0.13175 0.61279 0.40654 0.0
C2340 C 0.15145 0.60786 0.38736 0.0
C2341 C 0.13167 0.60172 0.37213 0.0
C2342 C 0.15052 0.59698 0.35433 0.0
C2343 C 0.18914 0.59835 0.35149 0.0
C2344 C 0.20897 0.6045 0.36641 0.0
C2345 C 0.19026 0.60926 0.38425 0.0
H2346 H 0.20368 0.59467 0.33771 0.0
H2347 H 0.03261 0.63932 0.51658 0.0
H2348 H 0.86441 0.32767 0.16691 0.0
H2349 H 0.8505 0.3451 0.15693 0.0
H2350 H 0.88932 0.35453 0.22286 0.0
H2351 H 0.90439 0.33731 0.23265 0.0
H2352 H 0.80289 0.35958 0.19448 0.0
H2353 H 0.94353 0.36354 0.20551 0.0
H2354 H 0.00784 0.35806 0.19608 0.0
H2355 H 0.98308 0.36074 0.12493 0.0
H2356 H 0.91832 0.36604 0.13403 0.0
H2357 H 0.80774 0.40995 0.22079 0.0
H2358 H 0.81574 0.39209 0.21655 0.0
H2359 H 0.86005 0.39652 0.14896 0.0
H2360 H 0.8549 0.41469 0.15416 0.0
H2361 H 0.90007 0.38356 0.16869 0.0
H2362 H 0.76583 0.38626 0.16178 0.0
H2363 H 0.70247 0.39189 0.17292 0.0
H2364 H 0.71287 0.37651 0.23658 0.0
H2365 H 0.77639 0.37089 0.22597 0.0
C2366 C 0.87016 0.33349 0.17916 0.0
C2367 C 0.88575 0.33118 0.20046 0.0
C2368 C 0.86234 0.3434 0.17343 0.0
C2369 C 0.86956 0.35105 0.18906 0.0
C2370 C 0.88438 0.34872 0.21044 0.0
C2371 C 0.89288 0.33889 0.216 0.0
C2372 C 0.86014 0.36148 0.1838 0.0
C2373 C 0.82386 0.36487 0.18868 0.0
C2374 C 0.88745 0.36824 0.17587 0.0
C2375 C 0.92606 0.36499 0.17042 0.0
C2376 C 0.95168 0.36282 0.18787 0.0
C2377 C 0.98822 0.35978 0.18259 0.0
C2378 C 0.99949 0.35901 0.15991 0.0
C2379 C 0.97426 0.36129 0.14248 0.0
C2380 C 0.93763 0.36429 0.14769 0.0
C2381 C 0.81876 0.4071 0.20491 0.0
C2382 C 0.83028 0.41361 0.18766 0.0
C2383 C 0.82297 0.39686 0.20238 0.0
C2384 C 0.8372 0.39286 0.18209 0.0
C2385 C 0.84856 0.39941 0.16467 0.0
C2386 C 0.84557 0.40974 0.16757 0.0
C2387 C 0.84268 0.38191 0.18006 0.0
C2388 C 0.87836 0.37836 0.17382 0.0
C2389 C 0.81464 0.375 0.18693 0.0
C2390 C 0.77593 0.37816 0.19305 0.0
C2391 C 0.75462 0.38409 0.17816 0.0
C2392 C 0.71868 0.38728 0.1844 0.0
C2393 C 0.70366 0.38456 0.20544 0.0
C2394 C 0.7245 0.3786 0.22027 0.0
C2395 C 0.76043 0.37539 0.21412 0.0
H2396 H 0.67588 0.38706 0.21026 0.0
H2397 H 0.02781 0.35668 0.15586 0.0
H2398 H 0.93029 0.33017 0.55212 0.0
H2399 H 0.94279 0.34791 0.55708 0.0
H2400 H 0.83875 0.3511 0.59407 0.0
H2401 H 0.82538 0.33344 0.58818 0.0
H2402 H 0.83957 0.3629 0.55901 0.0
H2403 H 0.92932 0.35559 0.61833 0.0
H2404 H 0.98423 0.34696 0.63466 0.0
H2405 H 0.05457 0.35893 0.58205 0.0
H2406 H 1.00004 0.36753 0.56525 0.0
H2407 H 0.85558 0.4151 0.56938 0.0
H2408 H 0.85247 0.39746 0.57958 0.0
H2409 H 0.95364 0.39187 0.54129 0.0
H2410 H 0.95733 0.40948 0.53131 0.0
H2411 H 0.95442 0.38157 0.58039 0.0
H2412 H 0.87006 0.38673 0.51848 0.0
H2413 H 0.81783 0.39445 0.49735 0.0
H2414 H 0.74056 0.38557 0.54959 0.0
H2415 H 0.79248 0.37792 0.57122 0.0
C2416 C 0.91076 0.33459 0.56199 0.0
C2417 C 0.87666 0.3305 0.56953 0.0
C2418 C 0.91796 0.34475 0.56489 0.0
C2419 C 0.89162 0.35087 0.57589 0.0
C2420 C 0.85932 0.34654 0.58537 0.0
C2421 C 0.85175 0.33645 0.58206 0.0
C2422 C 0.89454 0.36188 0.57427 0.0
C2423 C 0.86433 0.367 0.5643 0.0
C2424 C 0.92755 0.36717 0.58006 0.0
C2425 C 0.96052 0.36217 0.59048 0.0
C2426 C 0.95647 0.35635 0.61019 0.0
C2427 C 0.98754 0.35147 0.61954 0.0
C2428 C 0.02285 0.35239 0.60939 0.0
C2429 C 0.02721 0.35823 0.58991 0.0
C2430 C 0.99624 0.36312 0.5805 0.0
C2431 C 0.87728 0.41013 0.56324 0.0
C2432 C 0.90656 0.41369 0.54943 0.0
C2433 C 0.87546 0.40005 0.56907 0.0
C2434 C 0.90269 0.39335 0.56105 0.0
C2435 C 0.93243 0.39692 0.54774 0.0
C2436 C 0.93435 0.40699 0.54196 0.0
C2437 C 0.89922 0.38253 0.56554 0.0
C2438 C 0.92936 0.37746 0.57571 0.0
C2439 C 0.8665 0.37719 0.55947 0.0
C2440 C 0.83524 0.38187 0.54662 0.0
C2441 C 0.842 0.38651 0.52559 0.0
C2442 C 0.81244 0.39086 0.51349 0.0
C2443 C 0.77592 0.39053 0.52216 0.0
C2444 C 0.76888 0.38584 0.54292 0.0
C2445 C 0.79836 0.3815 0.55511 0.0
H2446 H 0.75306 0.39389 0.51276 0.0
H2447 H 0.04685 0.34859 0.61662 0.0
H2448 H 0.59444 0.0806 0.81322 0.0
H2449 H 0.58601 0.09738 0.82873 0.0
H2450 H 0.69473 0.10588 0.80282 0.0
H2451 H 0.70346 0.0892 0.78735 0.0
H2452 H 0.68438 0.11234 0.84639 0.0
H2453 H 0.61874 0.11295 0.77523 0.0
H2454 H 0.57273 0.10762 0.74638 0.0
H2455 H 0.48259 0.1129 0.79335 0.0
H2456 H 0.52819 0.11814 0.8226 0.0
H2457 H 0.67774 0.16414 0.82622 0.0
H2458 H 0.68518 0.14633 0.83213 0.0
H2459 H 0.57096 0.14443 0.85636 0.0
H2460 H 0.56289 0.16225 0.84957 0.0
H2461 H 0.57917 0.13363 0.82027 0.0
H2462 H 0.65007 0.13642 0.88918 0.0
H2463 H 0.69975 0.14283 0.91446 0.0
H2464 H 0.78426 0.1323 0.8683 0.0
H2465 H 0.73515 0.12593 0.84262 0.0
C2466 C 0.61655 0.08604 0.81084 0.0
C2467 C 0.64962 0.08356 0.79905 0.0
C2468 C 0.61169 0.09562 0.81971 0.0
C2469 C 0.63981 0.10286 0.81696 0.0
C2470 C 0.67284 0.10038 0.80529 0.0
C2471 C 0.67765 0.09085 0.79634 0.0
C2472 C 0.63466 0.11312 0.82566 0.0
C2473 C 0.66142 0.11704 0.84073 0.0
C2474 C 0.60431 0.11914 0.81857 0.0
C2475 C 0.5769 0.11577 0.80122 0.0
C2476 C 0.58914 0.11285 0.7795 0.0
C2477 C 0.56314 0.10988 0.76305 0.0
C2478 C 0.52477 0.10988 0.76806 0.0
C2479 C 0.51233 0.11287 0.78952 0.0
C2480 C 0.53824 0.11584 0.80605 0.0
C2481 C 0.65464 0.16002 0.83368 0.0
C2482 C 0.61941 0.16453 0.83687 0.0
C2483 C 0.65901 0.1498 0.83719 0.0
C2484 C 0.62848 0.14398 0.84445 0.0
C2485 C 0.59479 0.14874 0.8505 0.0
C2486 C 0.59021 0.15893 0.84663 0.0
C2487 C 0.62914 0.13301 0.84099 0.0
C2488 C 0.60158 0.12892 0.82666 0.0
C2489 C 0.65921 0.12693 0.84843 0.0
C2490 C 0.68884 0.13073 0.86392 0.0
C2491 C 0.67923 0.13553 0.88435 0.0
C2492 C 0.70731 0.13914 0.89877 0.0
C2493 C 0.74513 0.13798 0.89298 0.0
C2494 C 0.75496 0.13318 0.87278 0.0
C2495 C 0.72701 0.12955 0.85831 0.0
H2496 H 0.76682 0.14079 0.90416 0.0
H2497 H 0.50467 0.1076 0.75529 0.0
H2498 H 0.58578 0.16614 0.43335 0.0
H2499 H 0.57626 0.14911 0.41989 0.0
H2500 H 0.69533 0.14358 0.42462 0.0
H2501 H 0.70518 0.16059 0.43827 0.0
H2502 H 0.6602 0.13441 0.38592 0.0
H2503 H 0.6496 0.13661 0.46639 0.0
H2504 H 0.62763 0.14312 0.50321 0.0
H2505 H 0.51393 0.13574 0.48561 0.0
H2506 H 0.53519 0.12933 0.44847 0.0
H2507 H 0.65921 0.08217 0.41626 0.0
H2508 H 0.66875 0.09978 0.40739 0.0
H2509 H 0.54882 0.10411 0.40441 0.0
H2510 H 0.53899 0.08657 0.41343 0.0
H2511 H 0.58384 0.11421 0.4393 0.0
H2512 H 0.60121 0.10961 0.35892 0.0
H2513 H 0.62954 0.10232 0.32451 0.0
H2514 H 0.7381 0.11301 0.3449 0.0
H2515 H 0.71053 0.12026 0.37959 0.0
C2516 C 0.61004 0.16137 0.43115 0.0
C2517 C 0.64617 0.16466 0.43714 0.0
C2518 C 0.60455 0.15165 0.42344 0.0
C2519 C 0.63509 0.1451 0.42141 0.0
C2520 C 0.67147 0.14855 0.42601 0.0
C2521 C 0.67696 0.15824 0.43396 0.0
C2522 C 0.62847 0.13441 0.41707 0.0
C2523 C 0.64363 0.12994 0.39756 0.0
C2524 C 0.60697 0.12864 0.43235 0.0
C2525 C 0.59391 0.13264 0.4545 0.0
C2526 C 0.61984 0.1365 0.47024 0.0
C2527 C 0.60754 0.14014 0.4912 0.0
C2528 C 0.56939 0.13988 0.49671 0.0
C2529 C 0.54346 0.13597 0.48128 0.0
C2530 C 0.55562 0.13233 0.46027 0.0
C2531 C 0.63487 0.08678 0.41289 0.0
C2532 C 0.59833 0.08306 0.41618 0.0
C2533 C 0.6404 0.09685 0.4077 0.0
C2534 C 0.60947 0.10326 0.40555 0.0
C2535 C 0.57304 0.09928 0.40617 0.0
C2536 C 0.56749 0.08926 0.41142 0.0
C2537 C 0.61468 0.11415 0.40778 0.0
C2538 C 0.5997 0.11867 0.42726 0.0
C2539 C 0.63716 0.11982 0.39275 0.0
C2540 C 0.65382 0.11541 0.37197 0.0
C2541 C 0.63118 0.11033 0.35619 0.0
C2542 C 0.6471 0.10622 0.33659 0.0
C2543 C 0.6856 0.10718 0.33254 0.0
C2544 C 0.70828 0.11227 0.34806 0.0
C2545 C 0.69251 0.11639 0.36768 0.0
H2546 H 0.69786 0.104 0.31736 0.0
H2547 H 0.55992 0.14269 0.51297 0.0
H2548 H 0.29276 0.91066 0.18503 0.0
H2549 H 0.30446 0.89302 0.17748 0.0
H2550 H 0.42359 0.89789 0.18566 0.0
H2551 H 0.41211 0.9156 0.19209 0.0
H2552 H 0.41478 0.88516 0.15397 0.0
H2553 H 0.3668 0.88815 0.22896 0.0
H2554 H 0.32337 0.89302 0.25963 0.0
H2555 H 0.23572 0.87556 0.22923 0.0
H2556 H 0.27851 0.87068 0.19818 0.0
H2557 H 0.46466 0.83595 0.18936 0.0
H2558 H 0.45304 0.85363 0.18339 0.0
H2559 H 0.3379 0.84726 0.16574 0.0
H2560 H 0.34904 0.82951 0.17223 0.0
H2561 H 0.34348 0.8606 0.19985 0.0
H2562 H 0.40284 0.85643 0.12611 0.0
H2563 H 0.4546 0.85098 0.10117 0.0
H2564 H 0.53094 0.87032 0.13643 0.0
H2565 H 0.47976 0.8758 0.16174 0.0
C2566 C 0.32146 0.90797 0.18496 0.0
C2567 C 0.35151 0.91448 0.18926 0.0
C2568 C 0.32812 0.89789 0.18077 0.0
C2569 C 0.36487 0.89406 0.18148 0.0
C2570 C 0.39499 0.90064 0.18502 0.0
C2571 C 0.3884 0.91076 0.18873 0.0
C2572 C 0.3718 0.88318 0.17939 0.0
C2573 C 0.39928 0.8798 0.16409 0.0
C2574 C 0.35171 0.87614 0.1926 0.0
C2575 C 0.32571 0.87916 0.21107 0.0
C2576 C 0.33815 0.88543 0.22869 0.0
C2577 C 0.31367 0.88817 0.24617 0.0
C2578 C 0.27677 0.88463 0.24634 0.0
C2579 C 0.26429 0.87832 0.22904 0.0
C2580 C 0.28864 0.87556 0.2115 0.0
C2581 C 0.43706 0.83826 0.18366 0.0
C2582 C 0.40762 0.83133 0.18153 0.0
C2583 C 0.43052 0.84839 0.18016 0.0
C2584 C 0.39461 0.85177 0.17408 0.0
C2585 C 0.36581 0.8448 0.17048 0.0
C2586 C 0.37224 0.83466 0.17415 0.0
C2587 C 0.38601 0.86258 0.17423 0.0
C2588 C 0.35841 0.86596 0.18939 0.0
C2589 C 0.407 0.86959 0.16155 0.0
C2590 C 0.43747 0.8665 0.14587 0.0
C2591 C 0.43068 0.8595 0.12858 0.0
C2592 C 0.45993 0.85641 0.11438 0.0
C2593 C 0.49604 0.86029 0.11723 0.0
C2594 C 0.50295 0.86732 0.13423 0.0
C2595 C 0.47382 0.87044 0.14847 0.0
H2596 H 0.51865 0.85787 0.10626 0.0
H2597 H 0.25787 0.88675 0.2599 0.0
H2598 H 0.31899 0.91182 0.56588 0.0
H2599 H 0.31038 0.89399 0.57321 0.0
H2600 H 0.4303 0.89038 0.57937 0.0
H2601 H 0.43916 0.90809 0.5721 0.0
H2602 H 0.39776 0.87968 0.54371 0.0
H2603 H 0.37755 0.8853 0.62357 0.0
H2604 H 0.34702 0.89289 0.65693 0.0
H2605 H 0.24078 0.88077 0.63623 0.0
H2606 H 0.27059 0.87321 0.60256 0.0
H2607 H 0.40928 0.82774 0.55954 0.0
H2608 H 0.41379 0.84555 0.56823 0.0
H2609 H 0.2938 0.84849 0.56083 0.0
H2610 H 0.28905 0.83074 0.55179 0.0
H2611 H 0.32453 0.85943 0.59856 0.0
H2612 H 0.3397 0.85508 0.51883 0.0
H2613 H 0.36541 0.84809 0.48338 0.0
H2614 H 0.47534 0.85868 0.50123 0.0
H2615 H 0.45037 0.86558 0.53703 0.0
C2616 C 0.34341 0.90729 0.56959 0.0
C2617 C 0.37981 0.91131 0.56791 0.0
C2618 C 0.33844 0.89711 0.5738 0.0
C2619 C 0.36977 0.89086 0.57652 0.0
C2620 C 0.4058 0.89506 0.57712 0.0
C2621 C 0.41079 0.90519 0.57292 0.0
C2622 C 0.3658 0.87991 0.57479 0.0
C2623 C 0.3824 0.87523 0.55598 0.0
C2624 C 0.34424 0.87421 0.59021 0.0
C2625 C 0.32626 0.87876 0.61042 0.0
C2626 C 0.34761 0.88433 0.62601 0.0
C2627 C 0.33045 0.88861 0.64501 0.0
C2628 C 0.29196 0.88734 0.64867 0.0
C2629 C 0.27058 0.88176 0.63336 0.0
C2630 C 0.28761 0.87746 0.61433 0.0
C2631 C 0.38381 0.83215 0.56005 0.0
C2632 C 0.34886 0.82786 0.55483 0.0
C2633 C 0.38643 0.84231 0.565 0.0
C2634 C 0.35412 0.84831 0.5651 0.0
C2635 C 0.319 0.84397 0.56091 0.0
C2636 C 0.31642 0.83385 0.55562 0.0
C2637 C 0.3574 0.85924 0.56784 0.0
C2638 C 0.34032 0.8639 0.58654 0.0
C2639 C 0.37795 0.86502 0.55209 0.0
C2640 C 0.39328 0.86071 0.5308 0.0
C2641 C 0.36946 0.8558 0.51536 0.0
C2642 C 0.38387 0.85188 0.49516 0.0
C2643 C 0.42202 0.8529 0.4901 0.0
C2644 C 0.44582 0.85786 0.50521 0.0
C2645 C 0.43155 0.86177 0.52547 0.0
H2646 H 0.43311 0.84989 0.47442 0.0
H2647 H 0.27873 0.89065 0.66339 0.0
H2648 H 0.66494 0.66534 0.32645 0.0
H2649 H 0.67624 0.6479 0.33655 0.0
H2650 H 0.55938 0.64118 0.32458 0.0
H2651 H 0.54767 0.65854 0.31508 0.0
H2652 H 0.58457 0.62999 0.35819 0.0
H2653 H 0.62283 0.63823 0.28289 0.0
H2654 H 0.65646 0.64763 0.2532 0.0
H2655 H 0.76219 0.63896 0.28221 0.0
H2656 H 0.72911 0.62963 0.31233 0.0
H2657 H 0.59226 0.57991 0.31816 0.0
H2658 H 0.58355 0.59767 0.32505 0.0
H2659 H 0.70192 0.60078 0.33919 0.0
H2660 H 0.71105 0.58304 0.33158 0.0
H2661 H 0.67931 0.61395 0.30837 0.0
H2662 H 0.63176 0.60298 0.38155 0.0
H2663 H 0.59053 0.5927 0.40576 0.0
H2664 H 0.4932 0.60562 0.37434 0.0
H2665 H 0.53381 0.61588 0.34975 0.0
C2666 C 0.6415 0.66019 0.32646 0.0
C2667 C 0.60556 0.66329 0.31956 0.0
C2668 C 0.64801 0.65023 0.33218 0.0
C2669 C 0.61879 0.6432 0.33087 0.0
C2670 C 0.58238 0.64645 0.32565 0.0
C2671 C 0.57581 0.65639 0.32007 0.0
C2672 C 0.62662 0.63237 0.33242 0.0
C2673 C 0.60536 0.62647 0.34736 0.0
C2674 C 0.65346 0.62776 0.31813 0.0
C2675 C 0.67351 0.63335 0.30004 0.0
C2676 C 0.65325 0.6384 0.28305 0.0
C2677 C 0.6722 0.64371 0.26613 0.0
C2678 C 0.71144 0.64392 0.26586 0.0
C2679 C 0.73179 0.63881 0.28249 0.0
C2680 C 0.71296 0.63351 0.29949 0.0
C2681 C 0.61632 0.58432 0.3232 0.0
C2682 C 0.65238 0.58008 0.32422 0.0
C2683 C 0.61127 0.59449 0.32722 0.0
C2684 C 0.64205 0.60056 0.33282 0.0
C2685 C 0.67779 0.59624 0.33488 0.0
C2686 C 0.68294 0.5861 0.33057 0.0
C2687 C 0.63763 0.61153 0.33436 0.0
C2688 C 0.6593 0.61747 0.31972 0.0
C2689 C 0.61024 0.61609 0.34837 0.0
C2690 C 0.58587 0.61018 0.36377 0.0
C2691 C 0.60157 0.60362 0.37979 0.0
C2692 C 0.5783 0.59779 0.39356 0.0
C2693 C 0.53928 0.5985 0.39158 0.0
C2694 C 0.52343 0.60508 0.37588 0.0
C2695 C 0.54656 0.61092 0.36206 0.0
H2696 H 0.52132 0.59396 0.40221 0.0
H2697 H 0.72607 0.64803 0.25274 0.0
H2698 H 0.63237 0.66975 0.90464 0.0
H2699 H 0.62507 0.65212 0.89435 0.0
H2700 H 0.67244 0.64362 0.95912 0.0
H2701 H 0.68258 0.66106 0.96835 0.0
H2702 H 0.69381 0.63098 0.93233 0.0
H2703 H 0.5722 0.64541 0.9463 0.0
H2704 H 0.52059 0.65738 0.94021 0.0
H2705 H 0.50903 0.64737 0.87128 0.0
H2706 H 0.56097 0.63542 0.87691 0.0
H2707 H 0.54627 0.59099 0.9531 0.0
H2708 H 0.55946 0.60809 0.94223 0.0
H2709 H 0.65674 0.59832 0.90454 0.0
H2710 H 0.64468 0.58113 0.91646 0.0
H2711 H 0.5666 0.61988 0.90913 0.0
H2712 H 0.72833 0.61435 0.91246 0.0
H2713 H 0.77459 0.60294 0.92983 0.0
H2714 H 0.69605 0.59578 0.98275 0.0
H2715 H 0.64963 0.60723 0.96589 0.0
C2716 C 0.64167 0.66405 0.91641 0.0
C2717 C 0.65792 0.6667 0.93727 0.0
C2718 C 0.63733 0.654 0.91062 0.0
C2719 C 0.64751 0.64646 0.92611 0.0
C2720 C 0.66456 0.6492 0.94672 0.0
C2721 C 0.67018 0.65919 0.95208 0.0
C2722 C 0.6386 0.63577 0.92189 0.0
C2723 C 0.66607 0.62859 0.92701 0.0
C2724 C 0.60225 0.63255 0.91532 0.0
C2725 C 0.57071 0.63961 0.91194 0.0
C2726 C 0.55875 0.6458 0.92982 0.0
C2727 C 0.52946 0.65258 0.92645 0.0
C2728 C 0.51162 0.65316 0.90535 0.0
C2729 C 0.52295 0.64693 0.8876 0.0
C2730 C 0.5523 0.64015 0.89087 0.0
C2731 C 0.57013 0.59243 0.94216 0.0
C2732 C 0.59492 0.58473 0.93605 0.0
C2733 C 0.57754 0.60224 0.93582 0.0
C2734 C 0.60959 0.60457 0.92296 0.0
C2735 C 0.63235 0.59675 0.91495 0.0
C2736 C 0.62541 0.58693 0.92173 0.0
C2737 C 0.6213 0.61516 0.9206 0.0
C2738 C 0.59456 0.6223 0.91396 0.0
C2739 C 0.65746 0.6184 0.92744 0.0
C2740 C 0.68536 0.61153 0.93769 0.0
C2741 C 0.721 0.61034 0.9278 0.0
C2742 C 0.74723 0.60387 0.93757 0.0
C2743 C 0.73819 0.5986 0.95731 0.0
C2744 C 0.70297 0.59982 0.9674 0.0
C2745 C 0.6767 0.6063 0.95774 0.0
H2746 H 0.75853 0.5936 0.96483 0.0
H2747 H 0.48896 0.65841 0.90277 0.0
H2748 H 0.42931 0.41528 0.67855 0.0
H2749 H 0.44048 0.39754 0.67088 0.0
H2750 H 0.3217 0.39182 0.67618 0.0
H2751 H 0.31012 0.4094 0.68356 0.0
H2752 H 0.38147 0.38247 0.71028 0.0
H2753 H 0.34354 0.38781 0.63066 0.0
H2754 H 0.35214 0.39567 0.59315 0.0
H2755 H 0.4639 0.38377 0.58912 0.0
H2756 H 0.45609 0.37594 0.62678 0.0
H2757 H 0.3267 0.33239 0.68192 0.0
H2758 H 0.3351 0.3494 0.6676 0.0
H2759 H 0.44822 0.34979 0.69365 0.0
H2760 H 0.44026 0.33288 0.70797 0.0
H2761 H 0.40105 0.36179 0.64133 0.0
H2762 H 0.44154 0.36642 0.73017 0.0
H2763 H 0.43562 0.35829 0.76769 0.0
H2764 H 0.32122 0.35053 0.75268 0.0
H2765 H 0.32664 0.35861 0.71509 0.0
C2766 C 0.40548 0.41029 0.67742 0.0
C2767 C 0.36888 0.41372 0.68205 0.0
C2768 C 0.41194 0.40018 0.67299 0.0
C2769 C 0.38187 0.39343 0.67304 0.0
C2770 C 0.34518 0.39696 0.67602 0.0
C2771 C 0.33868 0.40701 0.68033 0.0
C2772 C 0.38851 0.3826 0.6739 0.0
C2773 C 0.3861 0.37799 0.6952 0.0
C2774 C 0.39494 0.37678 0.65428 0.0
C2775 C 0.39938 0.38139 0.63161 0.0
C2776 C 0.37007 0.38695 0.62187 0.0
C2777 C 0.37476 0.39138 0.60056 0.0
C2778 C 0.40859 0.39025 0.58878 0.0
C2779 C 0.43774 0.38465 0.59827 0.0
C2780 C 0.43317 0.38021 0.61958 0.0
C2781 C 0.35375 0.33598 0.68395 0.0
C2782 C 0.38251 0.33139 0.6965 0.0
C2783 C 0.35861 0.34565 0.67558 0.0
C2784 C 0.39228 0.3508 0.67959 0.0
C2785 C 0.42215 0.34589 0.69028 0.0
C2786 C 0.41733 0.33627 0.69866 0.0
C2787 C 0.39303 0.36175 0.67761 0.0
C2788 C 0.39702 0.36634 0.65634 0.0
C2789 C 0.38833 0.36765 0.69724 0.0
C2790 C 0.38445 0.36311 0.72 0.0
C2791 C 0.41509 0.36303 0.73501 0.0
C2792 C 0.41187 0.35841 0.75621 0.0
C2793 C 0.37805 0.3539 0.76257 0.0
C2794 C 0.34738 0.35402 0.74774 0.0
C2795 C 0.35052 0.35861 0.72649 0.0
H2796 H 0.37561 0.35032 0.77898 0.0
H2797 H 0.41217 0.39368 0.57229 0.0
H2798 H 0.45759 0.40424 0.06814 0.0
H2799 H 0.44577 0.38719 0.07962 0.0
H2800 H 0.34 0.39607 0.10925 0.0
H2801 H 0.3507 0.41319 0.09635 0.0
H2802 H 0.43387 0.37518 0.11089 0.0
H2803 H 0.2728 0.37947 0.09665 0.0
H2804 H 0.22902 0.39049 0.07593 0.0
H2805 H 0.31658 0.39826 0.02897 0.0
H2806 H 0.3606 0.38718 0.04916 0.0
H2807 H 0.36819 0.32473 0.11125 0.0
H2808 H 0.37703 0.34239 0.12127 0.0
H2809 H 0.34003 0.35084 0.05402 0.0
H2810 H 0.32871 0.33342 0.04491 0.0
H2811 H 0.31281 0.36315 0.07956 0.0
H2812 H 0.43644 0.34987 0.072 0.0
H2813 H 0.48947 0.33854 0.07973 0.0
H2814 H 0.49189 0.3482 0.14925 0.0
H2815 H 0.43852 0.35952 0.14197 0.0
C2816 C 0.43208 0.40264 0.0775 0.0
C2817 C 0.40455 0.41002 0.08075 0.0
C2818 C 0.42546 0.39285 0.08424 0.0
C2819 C 0.39147 0.39023 0.09475 0.0
C2820 C 0.36597 0.39783 0.10055 0.0
C2821 C 0.37213 0.40763 0.09324 0.0
C2822 C 0.38079 0.37951 0.09624 0.0
C2823 C 0.40719 0.37255 0.10429 0.0
C2824 C 0.34658 0.37599 0.08691 0.0
C2825 C 0.3201 0.38263 0.07466 0.0
C2826 C 0.28265 0.38353 0.0819 0.0
C2827 C 0.2578 0.38978 0.07023 0.0
C2828 C 0.27006 0.39511 0.05122 0.0
C2829 C 0.30714 0.39416 0.04375 0.0
C2830 C 0.33203 0.3879 0.05529 0.0
C2831 C 0.36172 0.33044 0.09885 0.0
C2832 C 0.34763 0.32783 0.07742 0.0
C2833 C 0.36693 0.3405 0.10447 0.0
C2834 C 0.3594 0.34802 0.08838 0.0
C2835 C 0.34554 0.34528 0.06692 0.0
C2836 C 0.33929 0.33531 0.06163 0.0
C2837 C 0.36656 0.35876 0.09321 0.0
C2838 C 0.3392 0.36574 0.08663 0.0
C2839 C 0.40122 0.36225 0.102 0.0
C2840 C 0.43317 0.35544 0.10653 0.0
C2841 C 0.44809 0.34952 0.08899 0.0
C2842 C 0.47823 0.34311 0.09327 0.0
C2843 C 0.49394 0.34262 0.11499 0.0
C2844 C 0.4796 0.34857 0.13245 0.0
C2845 C 0.44941 0.35498 0.12826 0.0
H2846 H 0.5173 0.33767 0.11826 0.0
H2847 H 0.2508 0.39995 0.04224 0.0
H2848 H 0.97571 0.05279 0.3041 0.0
H2849 H 0.91899 0.0513 0.32719 0.0
H2850 H 0.97808 0.03234 0.37436 0.0
H2851 H 0.0347 0.03357 0.35102 0.0
H2852 H 0.90712 0.02612 0.3693 0.0
H2853 H 0.96801 0.05714 0.38538 0.0
H2854 H 0.9978 0.0732 0.37589 0.0
H2855 H 0.89476 0.08343 0.34605 0.0
H2856 H 0.86444 0.06739 0.35513 0.0
H2857 H 0.77006 0.03521 0.45767 0.0
H2858 H 0.82913 0.03379 0.43638 0.0
H2859 H 0.78233 0.05176 0.38262 0.0
H2860 H 0.72387 0.05331 0.40367 0.0
H2861 H 0.85104 0.05811 0.39443 0.0
H2862 H 0.79147 0.02641 0.37759 0.0
H2863 H 0.76308 0.01022 0.3875 0.0
H2864 H 0.86526 0.00131 0.42049 0.0
H2865 H 0.89412 0.0175 0.41101 0.0
C2866 C 0.97653 0.04819 0.31921 0.0
C2867 C 0.00985 0.04341 0.32586 0.0
C2868 C 0.94413 0.04738 0.33245 0.0
C2869 C 0.94459 0.04191 0.3528 0.0
C2870 C 0.97717 0.03666 0.35882 0.0
C2871 C 0.00953 0.03739 0.34546 0.0
C2872 C 0.91174 0.04213 0.36831 0.0
C2873 C 0.89511 0.03311 0.37506 0.0
C2874 C 0.89612 0.05125 0.37581 0.0
C2875 C 0.91404 0.06101 0.37076 0.0
C2876 C 0.95175 0.06279 0.3767 0.0
C2877 C 0.96872 0.0719 0.3714 0.0
C2878 C 0.94822 0.07931 0.36029 0.0
C2879 C 0.91061 0.07767 0.35462 0.0
C2880 C 0.8935 0.06858 0.35987 0.0
C2881 C 0.77237 0.03882 0.44128 0.0
C2882 C 0.74225 0.04438 0.43241 0.0
C2883 C 0.80606 0.03797 0.42911 0.0
C2884 C 0.81004 0.04264 0.40787 0.0
C2885 C 0.77993 0.04813 0.399 0.0
C2886 C 0.74644 0.04898 0.41108 0.0
C2887 C 0.8457 0.04212 0.39489 0.0
C2888 C 0.86311 0.05111 0.38877 0.0
C2889 C 0.86213 0.03298 0.3882 0.0
C2890 C 0.8448 0.02322 0.39382 0.0
C2891 C 0.80778 0.02103 0.38713 0.0
C2892 C 0.79163 0.01185 0.39263 0.0
C2893 C 0.81231 0.00475 0.40468 0.0
C2894 C 0.84924 0.00682 0.41119 0.0
C2895 C 0.86552 0.016 0.40574 0.0
H2896 H 0.79975 -0.00235 0.40893 0.0
H2897 H 0.96146 0.08632 0.35606 0.0
H2898 H 0.27196 0.20842 0.30384 0.0
H2899 H 0.32691 0.21043 0.32819 0.0
H2900 H 0.29306 0.18484 0.36751 0.0
H2901 H 0.23766 0.1828 0.34324 0.0
H2902 H 0.31453 0.20047 0.3946 0.0
H2903 H 0.36411 0.18276 0.33075 0.0
H2904 H 0.37702 0.17934 0.29035 0.0
H2905 H 0.43577 0.20715 0.28452 0.0
H2906 H 0.42274 0.21082 0.32483 0.0
H2907 H 0.49205 0.19173 0.44866 0.0
H2908 H 0.43273 0.19087 0.42781 0.0
H2909 H 0.46386 0.21699 0.38952 0.0
H2910 H 0.52322 0.21793 0.41031 0.0
H2911 H 0.44333 0.20115 0.36243 0.0
H2912 H 0.39468 0.21867 0.42676 0.0
H2913 H 0.38279 0.22182 0.46738 0.0
H2914 H 0.32338 0.19408 0.47263 0.0
H2915 H 0.33538 0.19069 0.43208 0.0
C2916 C 0.27619 0.20318 0.3176 0.0
C2917 C 0.25045 0.19542 0.32154 0.0
C2918 C 0.30771 0.20433 0.33148 0.0
C2919 C 0.31423 0.19774 0.34956 0.0
C2920 C 0.28854 0.19001 0.35364 0.0
C2921 C 0.25702 0.18882 0.33968 0.0
C2922 C 0.34781 0.19899 0.36422 0.0
C2923 C 0.34274 0.20048 0.38763 0.0
C2924 C 0.38454 0.19924 0.35504 0.0
C2925 C 0.39207 0.19711 0.33074 0.0
C2926 C 0.37944 0.1882 0.32079 0.0
C2927 C 0.38686 0.1862 0.29792 0.0
C2928 C 0.40711 0.19304 0.28486 0.0
C2929 C 0.42003 0.20188 0.29465 0.0
C2930 C 0.41266 0.20391 0.31751 0.0
C2931 C 0.48605 0.19739 0.43604 0.0
C2932 C 0.51249 0.20486 0.43102 0.0
C2933 C 0.45207 0.1969 0.42421 0.0
C2934 C 0.44395 0.20387 0.40713 0.0
C2935 C 0.46967 0.21154 0.40262 0.0
C2936 C 0.50353 0.21208 0.41457 0.0
C2937 C 0.41006 0.20268 0.39277 0.0
C2938 C 0.4151 0.20117 0.3694 0.0
C2939 C 0.37341 0.20239 0.40202 0.0
C2940 C 0.36626 0.20438 0.42643 0.0
C2941 C 0.37939 0.21319 0.43662 0.0
C2942 C 0.37257 0.21503 0.45963 0.0
C2943 C 0.35243 0.20814 0.47259 0.0
C2944 C 0.33902 0.1994 0.46257 0.0
C2945 C 0.34579 0.19753 0.43957 0.0
H2946 H 0.34715 0.20958 0.4904 0.0
H2947 H 0.41286 0.19147 0.26716 0.0
H2948 H 0.73526 0.20792 0.83258 0.0
H2949 H 0.79054 0.21096 0.85607 0.0
H2950 H 0.85021 0.18776 0.82047 0.0
H2951 H 0.79479 0.18455 0.7971 0.0
H2952 H 0.84949 0.18483 0.86566 0.0
H2953 H 0.87452 0.21264 0.81545 0.0
H2954 H 0.8598 0.22835 0.79563 0.0
H2955 H 0.84181 0.2429 0.85965 0.0
H2956 H 0.85599 0.22724 0.87986 0.0
H2957 H 0.02986 0.18815 0.9098 0.0
H2958 H 0.97421 0.18843 0.88605 0.0
H2959 H 0.93019 0.21313 0.92466 0.0
H2960 H 0.987 0.2131 0.94835 0.0
H2961 H 0.91916 0.21613 0.88069 0.0
H2962 H 0.89431 0.18935 0.93131 0.0
H2963 H 0.90586 0.1739 0.95283 0.0
H2964 H 0.91872 0.15767 0.89047 0.0
H2965 H 0.90772 0.17306 0.86855 0.0
C2966 C 0.76036 0.20358 0.82943 0.0
C2967 C 0.76047 0.19589 0.81316 0.0
C2968 C 0.79203 0.20537 0.84282 0.0
C2969 C 0.82447 0.19958 0.84003 0.0
C2970 C 0.82537 0.19229 0.82292 0.0
C2971 C 0.7937 0.19048 0.80956 0.0
C2972 C 0.85573 0.20028 0.85654 0.0
C2973 C 0.86516 0.19164 0.86867 0.0
C2974 C 0.87466 0.20931 0.86135 0.0
C2975 C 0.86593 0.21872 0.84917 0.0
C2976 C 0.86708 0.21916 0.8253 0.0
C2977 C 0.85892 0.22806 0.81399 0.0
C2978 C 0.84977 0.2366 0.82636 0.0
C2979 C 0.84885 0.23627 0.85008 0.0
C2980 C 0.85699 0.22738 0.86147 0.0
C2981 C 0.00836 0.19363 0.91342 0.0
C2982 C 0.01279 0.20057 0.93111 0.0
C2983 C 0.97639 0.19375 0.89983 0.0
C2984 C 0.94766 0.20067 0.90383 0.0
C2985 C 0.95196 0.20768 0.92136 0.0
C2986 C 0.98433 0.20764 0.93492 0.0
C2987 C 0.91369 0.20059 0.88925 0.0
C2988 C 0.90348 0.20933 0.87768 0.0
C2989 C 0.89348 0.19168 0.88516 0.0
C2990 C 0.90049 0.1824 0.89828 0.0
C2991 C 0.89992 0.18251 0.92217 0.0
C2992 C 0.9063 0.17375 0.93445 0.0
C2993 C 0.9131 0.16481 0.92302 0.0
C2994 C 0.91348 0.16461 0.8993 0.0
C2995 C 0.90712 0.17334 0.88694 0.0
H2996 H 0.91801 0.15804 0.93256 0.0
H2997 H 0.84347 0.24349 0.81758 0.0
H2998 H 0.28537 0.05299 0.94107 0.0
H2999 H 0.34088 0.05223 0.9166 0.0
H3000 H 0.28057 0.03364 0.86927 0.0
H3001 H 0.22499 0.03435 0.89361 0.0
H3002 H 0.352 0.02671 0.87752 0.0
H3003 H 0.29296 0.05748 0.85689 0.0
H3004 H 0.26449 0.07397 0.86351 0.0
H3005 H 0.36809 0.08453 0.89202 0.0
H3006 H 0.39707 0.06806 0.88585 0.0
H3007 H 0.4849 0.03209 0.7866 0.0
H3008 H 0.42769 0.03168 0.80975 0.0
H3009 H 0.47884 0.05173 0.85793 0.0
H3010 H 0.53564 0.05229 0.83489 0.0
H3011 H 0.40981 0.05769 0.84773 0.0
H3012 H 0.46842 0.02677 0.86929 0.0
H3013 H 0.49663 0.01022 0.86305 0.0
H3014 H 0.39392 -0.0001 0.83295 0.0
H3015 H 0.36521 0.01643 0.83874 0.0
C3016 C 0.28392 0.04873 0.92547 0.0
C3017 C 0.2507 0.04377 0.91924 0.0
C3018 C 0.31561 0.04833 0.91148 0.0
C3019 C 0.3147 0.04295 0.89102 0.0
C3020 C 0.28183 0.03785 0.88496 0.0
C3021 C 0.25006 0.0383 0.89886 0.0
C3022 C 0.348 0.0427 0.8759 0.0
C3023 C 0.3644 0.03346 0.87072 0.0
C3024 C 0.36441 0.05155 0.86738 0.0
C3025 C 0.34708 0.06149 0.87112 0.0
C3026 C 0.30959 0.06329 0.86475 0.0
C3027 C 0.29338 0.07264 0.86839 0.0
C3028 C 0.31444 0.08028 0.87824 0.0
C3029 C 0.3518 0.0786 0.88442 0.0
C3030 C 0.36815 0.06926 0.88084 0.0
C3031 C 0.48402 0.03637 0.80218 0.0
C3032 C 0.51486 0.04223 0.80886 0.0
C3033 C 0.45135 0.0361 0.81544 0.0
C3034 C 0.44906 0.04164 0.83565 0.0
C3035 C 0.47992 0.04742 0.84239 0.0
C3036 C 0.51246 0.0477 0.82919 0.0
C3037 C 0.41426 0.0417 0.84956 0.0
C3038 C 0.39745 0.05092 0.85447 0.0
C3039 C 0.39753 0.03284 0.85782 0.0
C3040 C 0.41481 0.02289 0.8542 0.0
C3041 C 0.45196 0.021 0.86114 0.0
C3042 C 0.46801 0.01162 0.85773 0.0
C3043 C 0.44713 0.00402 0.84754 0.0
C3044 C 0.41009 0.00579 0.84079 0.0
C3045 C 0.39391 0.01517 0.84415 0.0
H3046 H 0.4596 -0.00324 0.84493 0.0
H3047 H 0.30183 0.08752 0.88104 0.0
H3048 H 0.23092 0.94363 0.55757 0.0
H3049 H 0.17187 0.94562 0.57825 0.0
H3050 H 0.22793 0.96399 0.62791 0.0
H3051 H 0.28721 0.96188 0.6076 0.0
H3052 H 0.18887 0.94979 0.64806 0.0
H3053 H 0.16346 0.97386 0.58978 0.0
H3054 H 0.15746 0.98015 0.55058 0.0
H3055 H 0.07349 0.95804 0.53644 0.0
H3056 H 0.0793 0.95154 0.57548 0.0
H3057 H 0.01922 0.96175 0.70732 0.0
H3058 H 0.07745 0.96334 0.68532 0.0
H3059 H 0.03265 0.94358 0.63432 0.0
H3060 H 0.97469 0.94195 0.65601 0.0
H3061 H 0.06618 0.95987 0.61542 0.0
H3062 H 0.09481 0.93494 0.67146 0.0
H3063 H 0.1008 0.928 0.71009 0.0
H3064 H 0.17879 0.95115 0.72767 0.0
H3065 H 0.17287 0.95831 0.6892 0.0
C3066 C 0.23058 0.94821 0.57272 0.0
C3067 C 0.26382 0.95254 0.58103 0.0
C3068 C 0.19674 0.94938 0.58447 0.0
C3069 C 0.19541 0.955 0.60459 0.0
C3070 C 0.22831 0.95961 0.61246 0.0
C3071 C 0.26217 0.95839 0.60081 0.0
C3072 C 0.16052 0.95542 0.61836 0.0
C3073 C 0.16219 0.9522 0.64103 0.0
C3074 C 0.12551 0.95828 0.60902 0.0
C3075 C 0.12206 0.96216 0.58551 0.0
C3076 C 0.14393 0.97029 0.57826 0.0
C3077 C 0.14051 0.9739 0.55608 0.0
C3078 C 0.11517 0.96948 0.54101 0.0
C3079 C 0.09313 0.96145 0.54812 0.0
C3080 C 0.09644 0.95781 0.57028 0.0
C3081 C 0.0218 0.95775 0.69143 0.0
C3082 C 0.99237 0.9517 0.68348 0.0
C3083 C 0.05507 0.95865 0.67891 0.0
C3084 C 0.05935 0.95355 0.65824 0.0
C3085 C 0.02987 0.9476 0.65018 0.0
C3086 C 0.99682 0.94665 0.6627 0.0
C3087 C 0.09468 0.95423 0.64501 0.0
C3088 C 0.09302 0.95761 0.62247 0.0
C3089 C 0.12971 0.95146 0.65439 0.0
C3090 C 0.13302 0.94723 0.67757 0.0
C3091 C 0.11293 0.93861 0.68364 0.0
C3092 C 0.11639 0.93463 0.70548 0.0
C3093 C 0.14006 0.93916 0.72135 0.0
C3094 C 0.16039 0.94767 0.71538 0.0
C3095 C 0.15701 0.95169 0.69356 0.0
H3096 H 0.14273 0.93605 0.73824 0.0
H3097 H 0.11256 0.97229 0.52385 0.0
H3098 H 0.75806 0.77172 0.67509 0.0
H3099 H 0.70027 0.77106 0.65265 0.0
H3100 H 0.69242 0.8031 0.6548 0.0
H3101 H 0.74987 0.80384 0.67741 0.0
H3102 H 0.62525 0.7946 0.66247 0.0
H3103 H 0.72398 0.79146 0.60761 0.0
H3104 H 0.78138 0.78424 0.59095 0.0
H3105 H 0.72597 0.756 0.58388 0.0
H3106 H 0.66834 0.76302 0.60082 0.0
H3107 H 0.49387 0.80255 0.57496 0.0
H3108 H 0.55183 0.8023 0.59701 0.0
H3109 H 0.55407 0.77022 0.59349 0.0
H3110 H 0.49609 0.77039 0.57105 0.0
H3111 H 0.62361 0.7782 0.58692 0.0
H3112 H 0.52386 0.7818 0.64127 0.0
H3113 H 0.46693 0.78939 0.6577 0.0
H3114 H 0.52499 0.81722 0.66538 0.0
H3115 H 0.58215 0.80983 0.64869 0.0
C3116 C 0.74396 0.77863 0.67088 0.0
C3117 C 0.75867 0.78784 0.67798 0.0
C3118 C 0.71103 0.77823 0.65796 0.0
C3119 C 0.69229 0.78704 0.65182 0.0
C3120 C 0.70646 0.79622 0.6593 0.0
C3121 C 0.73937 0.79663 0.67219 0.0
C3122 C 0.65797 0.78671 0.63753 0.0
C3123 C 0.625 0.79111 0.64585 0.0
C3124 C 0.65747 0.78198 0.61603 0.0
C3125 C 0.69198 0.77774 0.60571 0.0
C3126 C 0.72412 0.78369 0.60267 0.0
C3127 C 0.75669 0.77963 0.59315 0.0
C3128 C 0.75736 0.76966 0.58642 0.0
C3129 C 0.72542 0.76372 0.58914 0.0
C3130 C 0.69279 0.76774 0.59868 0.0
C3131 C 0.50669 0.79542 0.57876 0.0
C3132 C 0.49013 0.78648 0.57137 0.0
C3133 C 0.53979 0.7953 0.59146 0.0
C3134 C 0.55694 0.78624 0.59723 0.0
C3135 C 0.54119 0.7773 0.58932 0.0
C3136 C 0.50801 0.77741 0.57654 0.0
C3137 C 0.59092 0.78613 0.61185 0.0
C3138 C 0.62382 0.78165 0.60359 0.0
C3139 C 0.59144 0.79083 0.63337 0.0
C3140 C 0.55718 0.79528 0.64354 0.0
C3141 C 0.52441 0.78956 0.64631 0.0
C3142 C 0.49211 0.79382 0.65569 0.0
C3143 C 0.49232 0.80378 0.66253 0.0
C3144 C 0.52486 0.8095 0.66005 0.0
C3145 C 0.55722 0.80528 0.65065 0.0
H3146 H 0.46728 0.80707 0.66979 0.0
H3147 H 0.7826 0.76653 0.57905 0.0
H3148 H 0.25787 0.77499 0.18461 0.0
H3149 H 0.19957 0.77426 0.16263 0.0
H3150 H 0.2021 0.80618 0.15443 0.0
H3151 H 0.25985 0.80701 0.17664 0.0
H3152 H 0.13213 0.79983 0.16285 0.0
H3153 H 0.23334 0.79065 0.11252 0.0
H3154 H 0.28831 0.78077 0.10065 0.0
H3155 H 0.22134 0.75417 0.10117 0.0
H3156 H 0.16605 0.76388 0.11337 0.0
H3157 H 0.00815 0.80611 0.07138 0.0
H3158 H 0.06571 0.80573 0.0939 0.0
H3159 H 0.05883 0.7737 0.09793 0.0
H3160 H 0.00172 0.77398 0.07485 0.0
H3161 H 0.12984 0.7794 0.0926 0.0
H3162 H 0.0281 0.78857 0.14176 0.0
H3163 H 0.97295 0.79843 0.15347 0.0
H3164 H 0.04058 0.8249 0.15538 0.0
H3165 H 0.09606 0.81522 0.14337 0.0
C3166 C 0.24582 0.78187 0.17833 0.0
C3167 C 0.2637 0.79105 0.18222 0.0
C3168 C 0.2126 0.78143 0.16567 0.0
C3169 C 0.19685 0.79015 0.15657 0.0
C3170 C 0.21383 0.79936 0.16121 0.0
C3171 C 0.24694 0.79981 0.17388 0.0
C3172 C 0.16336 0.78973 0.14161 0.0
C3173 C 0.13175 0.79543 0.14739 0.0
C3174 C 0.16257 0.78382 0.12168 0.0
C3175 C 0.19566 0.77798 0.11409 0.0
C3176 C 0.2304 0.78268 0.11026 0.0
C3177 C 0.2616 0.77711 0.10345 0.0
C3178 C 0.25835 0.76684 0.10022 0.0
C3179 C 0.22383 0.76212 0.10372 0.0
C3180 C 0.19254 0.76766 0.11057 0.0
C3181 C 0.01907 0.79897 0.07685 0.0
C3182 C 1.00013 0.79008 0.07153 0.0
C3183 C 0.05189 0.79877 0.08982 0.0
C3184 C 0.06608 0.7897 0.09806 0.0
C3185 C 0.04823 0.78078 0.09189 0.0
C3186 C 0.01556 0.78096 0.07872 0.0
C3187 C 0.09873 0.78957 0.11374 0.0
C3188 C 0.13014 0.78375 0.10812 0.0
C3189 C 0.09932 0.79536 0.13386 0.0
C3190 C 0.06617 0.80118 0.14148 0.0
C3191 C 0.03117 0.79651 0.14456 0.0
C3192 C 0.99985 0.80206 0.15126 0.0
C3193 C 0.00324 0.81229 0.15512 0.0
C3194 C 0.038 0.81698 0.15237 0.0
C3195 C 0.0694 0.81146 0.14564 0.0
H3196 H 0.97896 0.81658 0.16028 0.0
H3197 H 0.28254 0.76254 0.09496 0.0
H3198 H 0.70222 0.93467 0.04205 0.0
H3199 H 0.64885 0.93867 0.06677 0.0
H3200 H 0.71813 0.95911 0.10463 0.0
H3201 H 0.7713 0.95533 0.0799 0.0
H3202 H 0.67957 0.9445 0.1314 0.0
H3203 H 0.65528 0.96907 0.07428 0.0
H3204 H 0.64568 0.97531 0.03532 0.0
H3205 H 0.55005 0.95611 0.02756 0.0
H3206 H 0.5594 0.94965 0.0664 0.0
H3207 H 0.52782 0.96077 0.20204 0.0
H3208 H 0.58264 0.96073 0.17679 0.0
H3209 H 0.51918 0.94449 0.12652 0.0
H3210 H 0.46446 0.94469 0.15121 0.0
H3211 H 0.55757 0.95869 0.10672 0.0
H3212 H 0.5843 0.93298 0.1617 0.0
H3213 H 0.59454 0.9259 0.19987 0.0
H3214 H 0.68559 0.9463 0.21101 0.0
H3215 H 0.67559 0.95358 0.17299 0.0
C3216 C 0.70592 0.94012 0.05542 0.0
C3217 C 0.74098 0.94466 0.05903 0.0
C3218 C 0.67544 0.9424 0.06949 0.0
C3219 C 0.67971 0.94917 0.08749 0.0
C3220 C 0.71438 0.95387 0.09082 0.0
C3221 C 0.74466 0.95172 0.07659 0.0
C3222 C 0.64857 0.9509 0.10361 0.0
C3223 C 0.65306 0.94776 0.12616 0.0
C3224 C 0.61391 0.95497 0.09655 0.0
C3225 C 0.60827 0.95881 0.07317 0.0
C3226 C 0.63242 0.96611 0.06419 0.0
C3227 C 0.62697 0.9697 0.04215 0.0
C3228 C 0.59733 0.96609 0.02895 0.0
C3229 C 0.57303 0.95889 0.03779 0.0
C3230 C 0.57836 0.95527 0.05983 0.0
C3231 C 0.52557 0.95723 0.18557 0.0
C3232 C 0.49177 0.95273 0.17867 0.0
C3233 C 0.55694 0.95717 0.17121 0.0
C3234 C 0.5551 0.95252 0.14983 0.0
C3235 C 0.52126 0.94814 0.14288 0.0
C3236 C 0.48998 0.94824 0.1571 0.0
C3237 C 0.5882 0.95212 0.13455 0.0
C3238 C 0.58415 0.95552 0.1121 0.0
C3239 C 0.62318 0.94819 0.14167 0.0
C3240 C 0.62886 0.94391 0.16464 0.0
C3241 C 0.60625 0.93602 0.17239 0.0
C3242 C 0.61207 0.93196 0.19397 0.0
C3243 C 0.64061 0.93567 0.20789 0.0
C3244 C 0.66343 0.94345 0.20024 0.0
C3245 C 0.65771 0.94754 0.17868 0.0
H3246 H 0.6451 0.93251 0.22458 0.0
H3247 H 0.59314 0.96888 0.01189 0.0
H3248 H 0.95534 0.55225 0.79334 0.0
H3249 H 0.90145 0.55126 0.81898 0.0
H3250 H 0.97112 0.53747 0.87005 0.0
H3251 H 0.02486 0.53819 0.84431 0.0
H3252 H 0.90321 0.52916 0.86986 0.0
H3253 H 0.95164 0.56264 0.87138 0.0
H3254 H 0.97209 0.57858 0.85457 0.0
H3255 H 0.86173 0.58315 0.82706 0.0
H3256 H 0.84073 0.56718 0.84348 0.0
H3257 H 0.78114 0.54002 0.9637 0.0
H3258 H 0.83515 0.53878 0.938 0.0
H3259 H 0.77072 0.55286 0.88487 0.0
H3260 H 0.71726 0.55432 0.9104 0.0
H3261 H 0.83763 0.56087 0.88709 0.0
H3262 H 0.78917 0.5273 0.88572 0.0
H3263 H 0.76925 0.51125 0.90215 0.0
H3264 H 0.87975 0.5068 0.92954 0.0
H3265 H 0.90023 0.52289 0.9135 0.0
C3266 C 0.95911 0.54891 0.80993 0.0
C3267 C 0.9945 0.5454 0.81685 0.0
C3268 C 0.92832 0.54839 0.82462 0.0
C3269 C 0.93244 0.54449 0.84664 0.0
C3270 C 0.9673 0.54056 0.8532 0.0
C3271 C 0.99804 0.541 0.83845 0.0
C3272 C 0.90093 0.54493 0.86316 0.0
C3273 C 0.88911 0.53611 0.87385 0.0
C3274 C 0.88225 0.55398 0.86814 0.0
C3275 C 0.8947 0.56366 0.8585 0.0
C3276 C 0.93179 0.56702 0.86164 0.0
C3277 C 0.94347 0.57606 0.85219 0.0
C3278 C 0.91825 0.58186 0.83971 0.0
C3279 C 0.88125 0.57865 0.83672 0.0
C3280 C 0.86942 0.5696 0.84611 0.0
C3281 C 0.7785 0.54283 0.94653 0.0
C3282 C 0.74486 0.54727 0.93915 0.0
C3283 C 0.80933 0.54207 0.93182 0.0
C3284 C 0.8069 0.54564 0.9094 0.0
C3285 C 0.77332 0.55006 0.90206 0.0
C3286 C 0.7427 0.55087 0.91673 0.0
C3287 C 0.83944 0.54508 0.89362 0.0
C3288 C 0.85164 0.55391 0.88313 0.0
C3289 C 0.85844 0.53604 0.8889 0.0
C3290 C 0.84611 0.52637 0.89863 0.0
C3291 C 0.80913 0.52295 0.89542 0.0
C3292 C 0.79776 0.51383 0.90462 0.0
C3293 C 0.82318 0.50802 0.91694 0.0
C3294 C 0.86007 0.51131 0.92003 0.0
C3295 C 0.87158 0.52043 0.91087 0.0
H3296 H 0.81433 0.50097 0.92405 0.0
H3297 H 0.92737 0.58885 0.83239 0.0
H3298 H 0.27636 0.70953 0.7979 0.0
H3299 H 0.33242 0.70935 0.82207 0.0
H3300 H 0.27441 0.69091 0.87078 0.0
H3301 H 0.21842 0.69111 0.84695 0.0
H3302 H 0.3125 0.70561 0.89168 0.0
H3303 H 0.3377 0.68078 0.83514 0.0
H3304 H 0.34478 0.67407 0.79638 0.0
H3305 H 0.43229 0.69526 0.78273 0.0
H3306 H 0.42537 0.70218 0.82133 0.0
H3307 H 0.46993 0.6862 0.95317 0.0
H3308 H 0.41334 0.68822 0.92994 0.0
H3309 H 0.47306 0.70823 0.88544 0.0
H3310 H 0.52959 0.70632 0.90854 0.0
H3311 H 0.43467 0.69333 0.86234 0.0
H3312 H 0.41032 0.71763 0.92033 0.0
H3313 H 0.40328 0.72373 0.95961 0.0
H3314 H 0.31404 0.70281 0.97109 0.0
H3315 H 0.32089 0.69648 0.93195 0.0
C3316 C 0.27554 0.70545 0.81376 0.0
C3317 C 0.24294 0.7003 0.82042 0.0
C3318 C 0.30762 0.70533 0.82752 0.0
C3319 C 0.30767 0.70005 0.84815 0.0
C3320 C 0.275 0.69504 0.85495 0.0
C3321 C 0.24305 0.69513 0.84122 0.0
C3322 C 0.34175 0.69965 0.86265 0.0
C3323 C 0.33913 0.70283 0.88532 0.0
C3324 C 0.37664 0.69619 0.85427 0.0
C3325 C 0.3807 0.69208 0.83102 0.0
C3326 C 0.3582 0.68407 0.8238 0.0
C3327 C 0.36224 0.68021 0.80188 0.0
C3328 C 0.38888 0.68426 0.78708 0.0
C3329 C 0.41161 0.69215 0.79419 0.0
C3330 C 0.40766 0.69604 0.81609 0.0
C3331 C 0.47094 0.6911 0.93855 0.0
C3332 C 0.50428 0.6961 0.93272 0.0
C3333 C 0.43856 0.69226 0.92534 0.0
C3334 C 0.43903 0.6984 0.90602 0.0
C3335 C 0.47215 0.70345 0.90027 0.0
C3336 C 0.50438 0.70238 0.91356 0.0
C3337 C 0.40538 0.69928 0.89132 0.0
C3338 C 0.40809 0.69616 0.86864 0.0
C3339 C 0.37054 0.70273 0.89974 0.0
C3340 C 0.36638 0.70651 0.92329 0.0
C3341 C 0.38942 0.71427 0.9313 0.0
C3342 C 0.38542 0.71778 0.95352 0.0
C3343 C 0.3583 0.71364 0.96786 0.0
C3344 C 0.33506 0.706 0.95998 0.0
C3345 C 0.33897 0.70245 0.93777 0.0
H3346 H 0.35523 0.71637 0.98506 0.0
H3347 H 0.39199 0.68126 0.77012 0.0
H3348 H 0.97049 0.70826 0.45479 0.0
H3349 H 0.91679 0.70901 0.42885 0.0
H3350 H 0.9815 0.69393 0.37735 0.0
H3351 H 0.03534 0.69326 0.40298 0.0
H3352 H 0.9397 0.70862 0.35884 0.0
H3353 H 0.91951 0.68112 0.40964 0.0
H3354 H 0.91344 0.67285 0.44688 0.0
H3355 H 0.82075 0.69193 0.46379 0.0
H3356 H 0.82661 0.7004 0.42674 0.0
H3357 H 0.78981 0.68834 0.29172 0.0
H3358 H 0.84538 0.69113 0.31542 0.0
H3359 H 0.77779 0.70733 0.36368 0.0
H3360 H 0.72222 0.70461 0.34015 0.0
H3361 H 0.82056 0.69288 0.38388 0.0
H3362 H 0.83896 0.71969 0.33126 0.0
H3363 H 0.84524 0.72748 0.29352 0.0
H3364 H 0.9413 0.70917 0.27928 0.0
H3365 H 0.93528 0.70117 0.31684 0.0
C3366 C 0.97342 0.70518 0.43789 0.0
C3367 C 0.00717 0.70062 0.43107 0.0
C3368 C 0.94264 0.70558 0.42309 0.0
C3369 C 0.94494 0.7014 0.40124 0.0
C3370 C 0.97902 0.69719 0.39412 0.0
C3371 C 0.00975 0.69677 0.40887 0.0
C3372 C 0.91144 0.701 0.38615 0.0
C3373 C 0.91374 0.7051 0.36424 0.0
C3374 C 0.87736 0.69655 0.39327 0.0
C3375 C 0.87378 0.69147 0.41554 0.0
C3376 C 0.89804 0.6836 0.42138 0.0
C3377 C 0.8946 0.67887 0.44243 0.0
C3378 C 0.8668 0.68188 0.45772 0.0
C3379 C 0.84232 0.68962 0.45195 0.0
C3380 C 0.84567 0.69438 0.43093 0.0
C3381 C 0.78683 0.69259 0.30725 0.0
C3382 C 0.7515 0.69622 0.31405 0.0
C3383 C 0.81866 0.69421 0.32074 0.0
C3384 C 0.81575 0.69947 0.3413 0.0
C3385 C 0.78068 0.70326 0.34789 0.0
C3386 C 0.74895 0.70171 0.33436 0.0
C3387 C 0.84874 0.70052 0.35659 0.0
C3388 C 0.84639 0.69648 0.37853 0.0
C3389 C 0.88277 0.70497 0.3494 0.0
C3390 C 0.88643 0.70976 0.32679 0.0
C3391 C 0.86122 0.71726 0.32001 0.0
C3392 C 0.86478 0.72173 0.29866 0.0
C3393 C 0.89359 0.7188 0.28399 0.0
C3394 C 0.91896 0.71142 0.29065 0.0
C3395 C 0.91551 0.70692 0.31198 0.0
H3396 H 0.8963 0.72227 0.26747 0.0
H3397 H 0.86418 0.67821 0.47401 0.0
H3398 H 0.51643 0.553 0.33786 0.0
H3399 H 0.4579 0.55124 0.359 0.0
H3400 H 0.43832 0.52273 0.32743 0.0
H3401 H 0.4973 0.52439 0.30615 0.0
H3402 H 0.37379 0.53525 0.32935 0.0
H3403 H 0.46913 0.52254 0.37908 0.0
H3404 H 0.52948 0.52298 0.3996 0.0
H3405 H 0.494 0.54914 0.43562 0.0
H3406 H 0.4336 0.54894 0.41506 0.0
H3407 H 0.22799 0.52086 0.40401 0.0
H3408 H 0.28782 0.52077 0.3837 0.0
H3409 H 0.3189 0.54837 0.41609 0.0
H3410 H 0.25915 0.54851 0.43664 0.0
H3411 H 0.37812 0.5354 0.41366 0.0
H3412 H 0.28506 0.54882 0.36342 0.0
H3413 H 0.22483 0.54901 0.34275 0.0
H3414 H 0.256 0.52226 0.30751 0.0
H3415 H 0.31625 0.52183 0.32823 0.0
C3416 C 0.49965 0.54637 0.33524 0.0
C3417 C 0.51167 0.53881 0.32037 0.0
C3418 C 0.46625 0.54536 0.34743 0.0
C3419 C 0.44404 0.53681 0.34496 0.0
C3420 C 0.4552 0.52938 0.32961 0.0
C3421 C 0.4889 0.53033 0.31751 0.0
C3422 C 0.40956 0.53561 0.35881 0.0
C3423 C 0.37473 0.5351 0.34777 0.0
C3424 C 0.41083 0.53568 0.38285 0.0
C3425 C 0.44698 0.53577 0.39539 0.0
C3426 C 0.47431 0.52843 0.39125 0.0
C3427 C 0.50851 0.52863 0.40291 0.0
C3428 C 0.51561 0.5361 0.41887 0.0
C3429 C 0.48847 0.54337 0.42324 0.0
C3430 C 0.45423 0.54321 0.41161 0.0
C3431 C 0.24766 0.52687 0.40702 0.0
C3432 C 0.23861 0.53474 0.42181 0.0
C3433 C 0.28181 0.52682 0.39532 0.0
C3434 C 0.30754 0.53464 0.39812 0.0
C3435 C 0.29936 0.54228 0.41362 0.0
C3436 C 0.26515 0.54235 0.42531 0.0
C3437 C 0.34227 0.53506 0.38421 0.0
C3438 C 0.37715 0.53546 0.39524 0.0
C3439 C 0.34103 0.53496 0.36016 0.0
C3440 C 0.30497 0.53524 0.34755 0.0
C3441 C 0.27894 0.54294 0.35139 0.0
C3442 C 0.24483 0.54309 0.33965 0.0
C3443 C 0.23655 0.53564 0.32387 0.0
C3444 C 0.26243 0.52802 0.31976 0.0
C3445 C 0.29658 0.52782 0.33149 0.0
H3446 H 0.21012 0.53577 0.31479 0.0
H3447 H 0.54211 0.53624 0.42787 0.0
H3448 H 0.95783 0.44449 0.14802 0.0
H3449 H 0.01301 0.44414 0.12349 0.0
H3450 H 0.08336 0.45199 0.18039 0.0
H3451 H 0.02799 0.4525 0.20512 0.0
H3452 H 0.10363 0.4621 0.1424 0.0
H3453 H 0.07903 0.42801 0.16199 0.0
H3454 H 0.04055 0.41283 0.16607 0.0
H3455 H 0.02042 0.41251 0.09416 0.0
H3456 H 0.05843 0.42775 0.08967 0.0
H3457 H 0.27819 0.4469 0.09439 0.0
H3458 H 0.2223 0.44953 0.11762 0.0
H3459 H 0.15218 0.44056 0.06147 0.0
H3460 H 0.20813 0.43772 0.03819 0.0
H3461 H 0.13147 0.4313 0.09902 0.0
H3462 H 0.1581 0.46531 0.07944 0.0
H3463 H 0.19631 0.48055 0.07583 0.0
H3464 H 0.21315 0.48108 0.14804 0.0
H3465 H 0.1754 0.46577 0.15207 0.0
C3466 C 0.98498 0.44617 0.15537 0.0
C3467 C 0.98847 0.44844 0.17862 0.0
C3468 C 0.01656 0.44594 0.1413 0.0
C3469 C 0.05243 0.44788 0.15016 0.0
C3470 C 0.05597 0.45043 0.1732 0.0
C3471 C 0.0243 0.45068 0.18733 0.0
C3472 C 0.08619 0.44706 0.13539 0.0
C3473 C 0.11004 0.45533 0.13313 0.0
C3474 C 0.09406 0.43829 0.1229 0.0
C3475 C 0.0713 0.42909 0.12553 0.0
C3476 C 0.06617 0.42474 0.14706 0.0
C3477 C 0.04449 0.41612 0.14945 0.0
C3478 C 0.02797 0.41172 0.1304 0.0
C3479 C 0.0332 0.41593 0.10891 0.0
C3480 C 0.05485 0.42455 0.10643 0.0
C3481 C 0.25089 0.44557 0.08686 0.0
C3482 C 0.24771 0.44207 0.0644 0.0
C3483 C 0.21888 0.44714 0.10017 0.0
C3484 C 0.18292 0.44534 0.09126 0.0
C3485 C 0.17961 0.44201 0.06872 0.0
C3486 C 0.21165 0.4404 0.05541 0.0
C3487 C 0.14898 0.44637 0.10586 0.0
C3488 C 0.12508 0.43811 0.10818 0.0
C3489 C 0.1412 0.45514 0.11843 0.0
C3490 C 0.16421 0.46432 0.11602 0.0
C3491 C 0.17023 0.46862 0.09453 0.0
C3492 C 0.19174 0.47729 0.09242 0.0
C3493 C 0.20723 0.48177 0.11169 0.0
C3494 C 0.20117 0.47759 0.13312 0.0
C3495 C 0.17968 0.46893 0.13533 0.0
H3496 H 0.22386 0.48848 0.11001 0.0
H3497 H 0.01118 0.40505 0.13228 0.0
H3498 H 0.72036 0.29776 0.20508 0.0
H3499 H 0.66627 0.29594 0.17983 0.0
H3500 H 0.74043 0.28954 0.12378 0.0
H3501 H 0.79484 0.29127 0.149 0.0
H3502 H 0.68545 0.30433 0.11445 0.0
H3503 H 0.69203 0.27107 0.14511 0.0
H3504 H 0.69541 0.25861 0.17584 0.0
H3505 H 0.59042 0.26907 0.20267 0.0
H3506 H 0.58664 0.28168 0.17227 0.0
H3507 H 0.53688 0.29279 0.03807 0.0
H3508 H 0.59465 0.29168 0.06053 0.0
H3509 H 0.52962 0.29326 0.12227 0.0
H3510 H 0.47197 0.29415 0.10008 0.0
H3511 H 0.58274 0.27997 0.1271 0.0
H3512 H 0.57662 0.31375 0.10115 0.0
H3513 H 0.57136 0.32732 0.0731 0.0
H3514 H 0.67254 0.31736 0.04052 0.0
H3515 H 0.67816 0.30365 0.06825 0.0
C3516 C 0.72521 0.29588 0.18743 0.0
C3517 C 0.76192 0.29465 0.17905 0.0
C3518 C 0.69425 0.29482 0.17304 0.0
C3519 C 0.69937 0.29256 0.14997 0.0
C3520 C 0.73592 0.29126 0.14155 0.0
C3521 C 0.76693 0.29221 0.156 0.0
C3522 C 0.66651 0.29191 0.13456 0.0
C3523 C 0.6633 0.29889 0.1169 0.0
C3524 C 0.63711 0.28501 0.13829 0.0
C3525 C 0.63921 0.27738 0.1565 0.0
C3526 C 0.6698 0.27076 0.15766 0.0
C3527 C 0.67176 0.26366 0.175 0.0
C3528 C 0.64319 0.26306 0.19123 0.0
C3529 C 0.61255 0.26955 0.1901 0.0
C3530 C 0.61045 0.27666 0.1728 0.0
C3531 C 0.53488 0.29285 0.05643 0.0
C3532 C 0.49977 0.29361 0.06725 0.0
C3533 C 0.56795 0.29225 0.06925 0.0
C3534 C 0.56655 0.29252 0.09312 0.0
C3535 C 0.53147 0.29304 0.10391 0.0
C3536 C 0.49848 0.29358 0.09114 0.0
C3537 C 0.60149 0.29243 0.10696 0.0
C3538 C 0.60506 0.28535 0.12441 0.0
C3539 C 0.63089 0.29937 0.10334 0.0
C3540 C 0.62756 0.3076 0.08661 0.0
C3541 C 0.59757 0.3144 0.08789 0.0
C3542 C 0.59456 0.32213 0.07207 0.0
C3543 C 0.62152 0.32318 0.05499 0.0
C3544 C 0.65163 0.31652 0.05373 0.0
C3545 C 0.65476 0.30877 0.06951 0.0
H3546 H 0.61915 0.32917 0.04275 0.0
H3547 H 0.64477 0.25757 0.20465 0.0
H3548 H 0.01146 0.29774 0.54901 0.0
H3549 H 0.06976 0.2962 0.57073 0.0
H3550 H 0.02688 0.2698 0.60342 0.0
H3551 H 0.96866 0.27119 0.58156 0.0
H3552 H 0.04878 0.2853 0.63333 0.0
H3553 H 0.09837 0.26701 0.57027 0.0
H3554 H 0.11381 0.26389 0.53007 0.0
H3555 H 0.18322 0.29004 0.52884 0.0
H3556 H 0.16776 0.2934 0.56896 0.0
H3557 H 0.2111 0.27745 0.70093 0.0
H3558 H 0.16021 0.27468 0.67368 0.0
H3559 H 0.2008 0.29909 0.63282 0.0
H3560 H 0.25176 0.30189 0.65985 0.0
H3561 H 0.18072 0.2832 0.6066 0.0
H3562 H 0.12783 0.30273 0.66644 0.0
H3563 H 0.11139 0.30716 0.70585 0.0
H3564 H 0.04697 0.28026 0.71217 0.0
H3565 H 0.06351 0.2756 0.67286 0.0
C3566 C 0.01476 0.29148 0.56045 0.0
C3567 C 0.98532 0.28464 0.56372 0.0
C3568 C 0.04813 0.2906 0.57277 0.0
C3569 C 0.05251 0.2829 0.58869 0.0
C3570 C 0.02396 0.27579 0.59119 0.0
C3571 C 0.99078 0.27658 0.57864 0.0
C3572 C 0.08487 0.28298 0.60446 0.0
C3573 C 0.07763 0.28461 0.62758 0.0
C3574 C 0.12242 0.28247 0.59674 0.0
C3575 C 0.13162 0.2805 0.57258 0.0
C3576 C 0.11663 0.27215 0.56137 0.0
C3577 C 0.12546 0.27033 0.53861 0.0
C3578 C 0.14941 0.27678 0.52689 0.0
C3579 C 0.16464 0.28506 0.53793 0.0
C3580 C 0.15589 0.28692 0.56069 0.0
C3581 C 0.2093 0.2822 0.68611 0.0
C3582 C 0.23536 0.28993 0.68265 0.0
C3583 C 0.18018 0.28062 0.67057 0.0
C3584 C 0.17662 0.28673 0.65132 0.0
C3585 C 0.20309 0.29428 0.64755 0.0
C3586 C 0.23207 0.2959 0.6631 0.0
C3587 C 0.14457 0.28548 0.63549 0.0
C3588 C 0.15185 0.28372 0.61239 0.0
C3589 C 0.10695 0.28604 0.64312 0.0
C3590 C 0.09734 0.28875 0.66684 0.0
C3591 C 0.11051 0.29771 0.67632 0.0
C3592 C 0.10109 0.30027 0.69862 0.0
C3593 C 0.07826 0.29398 0.71154 0.0
C3594 C 0.06474 0.28511 0.70216 0.0
C3595 C 0.07412 0.28251 0.67988 0.0
H3596 H 0.07096 0.29599 0.72879 0.0
H3597 H 0.15623 0.27535 0.50927 0.0
H3598 H 0.5174 0.44213 0.68954 0.0
H3599 H 0.5764 0.44279 0.66829 0.0
H3600 H 0.54044 0.46996 0.6358 0.0
H3601 H 0.48131 0.46932 0.65676 0.0
H3602 H 0.56515 0.45665 0.60521 0.0
H3603 H 0.61015 0.47023 0.67546 0.0
H3604 H 0.62064 0.47073 0.71684 0.0
H3605 H 0.68279 0.44337 0.71322 0.0
H3606 H 0.67225 0.44264 0.67183 0.0
H3607 H 0.74038 0.46799 0.55186 0.0
H3608 H 0.68351 0.46863 0.57526 0.0
H3609 H 0.71511 0.44106 0.60762 0.0
H3610 H 0.77186 0.44034 0.5844 0.0
H3611 H 0.69301 0.45501 0.63849 0.0
H3612 H 0.6468 0.44106 0.56902 0.0
H3613 H 0.63565 0.44012 0.52774 0.0
H3614 H 0.57521 0.46778 0.53004 0.0
H3615 H 0.58647 0.46895 0.57132 0.0
C3616 C 0.52225 0.44833 0.67812 0.0
C3617 C 0.49453 0.45565 0.67479 0.0
C3618 C 0.55605 0.4487 0.66601 0.0
C3619 C 0.56287 0.45644 0.65048 0.0
C3620 C 0.53572 0.46391 0.64764 0.0
C3621 C 0.50196 0.46354 0.65971 0.0
C3622 C 0.59729 0.45644 0.63622 0.0
C3623 C 0.59314 0.45647 0.6125 0.0
C3624 C 0.63375 0.45591 0.64571 0.0
C3625 C 0.6401 0.45633 0.67058 0.0
C3626 C 0.62579 0.46428 0.68351 0.0
C3627 C 0.6318 0.46461 0.70697 0.0
C3628 C 0.65229 0.45708 0.71766 0.0
C3629 C 0.66689 0.4492 0.70492 0.0
C3630 C 0.66094 0.44882 0.68146 0.0
C3631 C 0.73515 0.46204 0.56389 0.0
C3632 C 0.76067 0.45411 0.56622 0.0
C3633 C 0.7026 0.46241 0.57721 0.0
C3634 C 0.69503 0.45487 0.59312 0.0
C3635 C 0.72045 0.44696 0.59548 0.0
C3636 C 0.75281 0.44655 0.5821 0.0
C3637 C 0.66082 0.45525 0.60751 0.0
C3638 C 0.66501 0.45526 0.63123 0.0
C3639 C 0.62437 0.45578 0.59804 0.0
C3640 C 0.61788 0.45515 0.5732 0.0
C3641 C 0.63147 0.44699 0.56068 0.0
C3642 C 0.62505 0.4464 0.53729 0.0
C3643 C 0.60484 0.4539 0.52626 0.0
C3644 C 0.59093 0.46199 0.5386 0.0
C3645 C 0.59731 0.46262 0.56199 0.0
H3646 H 0.59986 0.45343 0.50815 0.0
H3647 H 0.65692 0.45735 0.73582 0.0
loop_
_geom_bond_atom_site_label_1
_geom_bond_atom_site_label_2
_geom_bond_distance
_geom_bond_site_symmetry_2
_ccdc_geom_bond_type
Zn0 O3 2.031 . S
Zn0 O5 2.049 . S
Zn0 O10 2.067 . S
Zn1 O2 1.962 . S
Zn1 O4 1.986 . S
Zn1 O6 1.996 . S
Zn1 O9 1.943 . S
O2 Zn1 1.962 . S
O2 C7 1.254 . S
O3 Zn0 2.031 . S
O3 C7 1.269 . S
O4 Zn1 1.986 . S
O4 C11 1.262 . S
O5 Zn0 2.049 . S
O5 C13 1.260 . S
O6 Zn1 1.996 . S
O6 C13 1.257 . S
C7 O2 1.254 . S
C7 O3 1.269 . S
C8 O9 1.249 . S
C8 O10 1.270 . S
O9 Zn1 1.943 . S
O9 C8 1.249 . S
O10 Zn0 2.067 . S
O10 C8 1.270 . S
C11 O4 1.262 . S
C11 O12 1.232 . S
O12 C11 1.232 . S
C13 O5 1.260 . S
C13 O6 1.257 . S
Zn14 O17 2.031 . S
Zn14 O19 2.049 . S
Zn14 O24 2.067 . S
Zn15 O16 1.962 . S
Zn15 O18 1.986 . S
Zn15 O20 1.996 . S
Zn15 O23 1.943 . S
O16 Zn15 1.962 . S
O16 C21 1.254 . S
O17 Zn14 2.031 . S
O17 C21 1.269 . S
O18 Zn15 1.986 . S
O18 C25 1.262 . S
O19 Zn14 2.049 . S
O19 C27 1.260 . S
O20 Zn15 1.996 . S
O20 C27 1.257 . S
C21 O16 1.254 . S
C21 O17 1.269 . S
C22 O23 1.249 . S
C22 O24 1.270 . S
O23 Zn15 1.943 . S
O23 C22 1.249 . S
O24 Zn14 2.067 . S
O24 C22 1.270 . S
C25 O18 1.262 . S
C25 O26 1.232 . S
O26 C25 1.232 . S
C27 O19 1.260 . S
C27 O20 1.257 . S
Zn28 O31 2.031 1_554 S
Zn28 O33 2.049 1_554 S
Zn28 O38 2.067 . S
Zn29 O30 1.962 . S
Zn29 O32 1.986 . S
Zn29 O34 1.996 . S
Zn29 O37 1.943 1_556 S
O30 Zn29 1.962 . S
O30 C35 1.254 . S
O31 Zn28 2.031 1_556 S
O31 C35 1.269 . S
O32 Zn29 1.986 . S
O32 C39 1.262 . S
O33 Zn28 2.049 1_556 S
O33 C41 1.260 . S
O34 Zn29 1.996 . S
O34 C41 1.257 . S
C35 O30 1.254 . S
C35 O31 1.269 . S
C36 O37 1.249 . S
C36 O38 1.270 . S
O37 Zn29 1.943 1_554 S
O37 C36 1.249 . S
O38 Zn28 2.067 . S
O38 C36 1.270 . S
C39 O32 1.262 . S
C39 O40 1.232 . S
O40 C39 1.232 . S
C41 O33 1.260 . S
C41 O34 1.257 . S
Zn42 O45 2.031 1_554 S
Zn42 O47 2.049 1_554 S
Zn42 O52 2.067 . S
Zn43 O44 1.962 . S
Zn43 O46 1.986 . S
Zn43 O48 1.996 . S
Zn43 O51 1.943 1_556 S
O44 Zn43 1.962 . S
O44 C49 1.254 . S
O45 Zn42 2.031 1_556 S
O45 C49 1.269 . S
O46 Zn43 1.986 . S
O46 C53 1.262 . S
O47 Zn42 2.049 1_556 S
O47 C55 1.260 . S
O48 Zn43 1.996 . S
O48 C55 1.257 . S
C49 O44 1.254 . S
C49 O45 1.269 . S
C50 O51 1.249 . S
C50 O52 1.270 . S
O51 Zn43 1.943 1_554 S
O51 C50 1.249 . S
O52 Zn42 2.067 . S
O52 C50 1.270 . S
C53 O46 1.262 . S
C53 O54 1.232 . S
O54 C53 1.232 . S
C55 O47 1.260 . S
C55 O48 1.257 . S
Zn56 O59 2.031 . S
Zn56 O61 2.049 . S
Zn56 O66 2.067 . S
Zn57 O58 1.962 . S
Zn57 O60 1.986 . S
Zn57 O62 1.996 . S
Zn57 O65 1.943 . S
O58 Zn57 1.962 . S
O58 C63 1.254 . S
O59 Zn56 2.031 . S
O59 C63 1.269 . S
O60 Zn57 1.986 . S
O60 C67 1.262 . S
O61 Zn56 2.049 . S
O61 C69 1.260 . S
O62 Zn57 1.996 . S
O62 C69 1.257 . S
C63 O58 1.254 . S
C63 O59 1.269 . S
C64 O65 1.249 . S
C64 O66 1.270 . S
O65 Zn57 1.943 . S
O65 C64 1.249 . S
O66 Zn56 2.067 . S
O66 C64 1.270 . S
C67 O60 1.262 . S
C67 O68 1.232 . S
O68 C67 1.232 . S
C69 O61 1.260 . S
C69 O62 1.257 . S
Zn70 O73 2.031 . S
Zn70 O75 2.049 . S
Zn70 O80 2.067 . S
Zn71 O72 1.962 . S
Zn71 O74 1.986 . S
Zn71 O76 1.996 . S
Zn71 O79 1.943 . S
O72 Zn71 1.962 . S
O72 C77 1.254 . S
O73 Zn70 2.031 . S
O73 C77 1.269 . S
O74 Zn71 1.986 . S
O74 C81 1.262 . S
O75 Zn70 2.049 . S
O75 C83 1.260 . S
O76 Zn71 1.996 . S
O76 C83 1.257 . S
C77 O72 1.254 . S
C77 O73 1.269 . S
C78 O79 1.249 . S
C78 O80 1.270 . S
O79 Zn71 1.943 . S
O79 C78 1.249 . S
O80 Zn70 2.067 . S
O80 C78 1.270 . S
C81 O74 1.262 . S
C81 O82 1.232 . S
O82 C81 1.232 . S
C83 O75 1.260 . S
C83 O76 1.257 . S
Zn84 O87 2.031 1_556 S
Zn84 O89 2.049 1_556 S
Zn84 O94 2.067 . S
Zn85 O86 1.962 . S
Zn85 O88 1.986 . S
Zn85 O90 1.996 . S
Zn85 O93 1.943 1_554 S
O86 Zn85 1.962 . S
O86 C91 1.254 . S
O87 Zn84 2.031 1_554 S
O87 C91 1.269 . S
O88 Zn85 1.986 . S
O88 C95 1.262 . S
O89 Zn84 2.049 1_554 S
O89 C97 1.260 . S
O90 Zn85 1.996 . S
O90 C97 1.257 . S
C91 O86 1.254 . S
C91 O87 1.269 . S
C92 O93 1.249 . S
C92 O94 1.270 . S
O93 Zn85 1.943 1_556 S
O93 C92 1.249 . S
O94 Zn84 2.067 . S
O94 C92 1.270 . S
C95 O88 1.262 . S
C95 O96 1.232 . S
O96 C95 1.232 . S
C97 O89 1.260 . S
C97 O90 1.257 . S
Zn98 O101 2.031 1_556 S
Zn98 O103 2.049 1_556 S
Zn98 O108 2.067 . S
Zn99 O100 1.962 . S
Zn99 O102 1.986 . S
Zn99 O104 1.996 . S
Zn99 O107 1.943 1_554 S
O100 Zn99 1.962 . S
O100 C105 1.254 . S
O101 Zn98 2.031 1_554 S
O101 C105 1.269 . S
O102 Zn99 1.986 . S
O102 C109 1.262 . S
O103 Zn98 2.049 1_554 S
O103 C111 1.260 . S
O104 Zn99 1.996 . S
O104 C111 1.257 . S
C105 O100 1.254 . S
C105 O101 1.269 . S
C106 O107 1.249 . S
C106 O108 1.270 . S
O107 Zn99 1.943 1_556 S
O107 C106 1.249 . S
O108 Zn98 2.067 . S
O108 C106 1.270 . S
C109 O102 1.262 . S
C109 O110 1.232 . S
O110 C109 1.232 . S
C111 O103 1.260 . S
C111 O104 1.257 . S
Zn112 O115 2.031 . S
Zn112 O117 2.049 . S
Zn112 O122 2.067 . S
Zn113 O114 1.962 . S
Zn113 O116 1.986 . S
Zn113 O118 1.996 . S
Zn113 O121 1.943 . S
O114 Zn113 1.962 . S
O114 C119 1.254 . S
O115 Zn112 2.031 . S
O115 C119 1.269 . S
O116 Zn113 1.986 . S
O116 C123 1.262 . S
O117 Zn112 2.049 . S
O117 C125 1.260 . S
O118 Zn113 1.996 . S
O118 C125 1.257 . S
C119 O114 1.254 . S
C119 O115 1.269 . S
C120 O121 1.249 . S
C120 O122 1.270 . S
O121 Zn113 1.943 . S
O121 C120 1.249 . S
O122 Zn112 2.067 . S
O122 C120 1.270 . S
C123 O116 1.262 . S
C123 O124 1.232 . S
O124 C123 1.232 . S
C125 O117 1.260 . S
C125 O118 1.257 . S
Zn126 O129 2.031 . S
Zn126 O131 2.049 . S
Zn126 O136 2.067 . S
Zn127 O128 1.962 . S
Zn127 O130 1.986 . S
Zn127 O132 1.996 . S
Zn127 O135 1.943 . S
O128 Zn127 1.962 . S
O128 C133 1.254 . S
O129 Zn126 2.031 . S
O129 C133 1.269 . S
O130 Zn127 1.986 . S
O130 C137 1.262 . S
O131 Zn126 2.049 . S
O131 C139 1.260 . S
O132 Zn127 1.996 . S
O132 C139 1.257 . S
C133 O128 1.254 . S
C133 O129 1.269 . S
C134 O135 1.249 . S
C134 O136 1.270 . S
O135 Zn127 1.943 . S
O135 C134 1.249 . S
O136 Zn126 2.067 . S
O136 C134 1.270 . S
C137 O130 1.262 . S
C137 O138 1.232 . S
O138 C137 1.232 . S
C139 O131 1.260 . S
C139 O132 1.257 . S
Zn140 O143 2.031 . S
Zn140 O145 2.049 . S
Zn140 O150 2.067 . S
Zn141 O142 1.962 . S
Zn141 O144 1.986 . S
Zn141 O146 1.996 . S
Zn141 O149 1.943 . S
O142 Zn141 1.962 . S
O142 C147 1.254 . S
O143 Zn140 2.031 . S
O143 C147 1.269 . S
O144 Zn141 1.986 . S
O144 C151 1.262 . S
O145 Zn140 2.049 . S
O145 C153 1.260 . S
O146 Zn141 1.996 . S
O146 C153 1.257 . S
C147 O142 1.254 . S
C147 O143 1.269 . S
C148 O149 1.249 . S
C148 O150 1.270 . S
O149 Zn141 1.943 . S
O149 C148 1.249 . S
O150 Zn140 2.067 . S
O150 C148 1.270 . S
C151 O144 1.262 . S
C151 O152 1.232 . S
O152 C151 1.232 . S
C153 O145 1.260 . S
C153 O146 1.257 . S
Zn154 O157 2.031 . S
Zn154 O159 2.049 . S
Zn154 O164 2.067 . S
Zn155 O156 1.962 . S
Zn155 O158 1.986 . S
Zn155 O160 1.996 . S
Zn155 O163 1.943 . S
O156 Zn155 1.962 . S
O156 C161 1.254 . S
O157 Zn154 2.031 . S
O157 C161 1.269 . S
O158 Zn155 1.986 . S
O158 C165 1.262 . S
O159 Zn154 2.049 . S
O159 C167 1.260 . S
O160 Zn155 1.996 . S
O160 C167 1.257 . S
C161 O156 1.254 . S
C161 O157 1.269 . S
C162 O163 1.249 . S
C162 O164 1.270 . S
O163 Zn155 1.943 . S
O163 C162 1.249 . S
O164 Zn154 2.067 . S
O164 C162 1.270 . S
C165 O158 1.262 . S
C165 O166 1.232 . S
O166 C165 1.232 . S
C167 O159 1.260 . S
C167 O160 1.257 . S
Zn168 O171 2.031 . S
Zn168 O173 2.049 . S
Zn168 O178 2.067 . S
Zn169 O170 1.962 . S
Zn169 O172 1.986 . S
Zn169 O174 1.996 . S
Zn169 O177 1.943 . S
O170 Zn169 1.962 . S
O170 C175 1.254 . S
O171 Zn168 2.031 . S
O171 C175 1.269 . S
O172 Zn169 1.986 . S
O172 C179 1.262 . S
O173 Zn168 2.049 . S
O173 C181 1.260 . S
O174 Zn169 1.996 . S
O174 C181 1.257 . S
C175 O170 1.254 . S
C175 O171 1.269 . S
C176 O177 1.249 . S
C176 O178 1.270 . S
O177 Zn169 1.943 . S
O177 C176 1.249 . S
O178 Zn168 2.067 . S
O178 C176 1.270 . S
C179 O172 1.262 . S
C179 O180 1.232 . S
O180 C179 1.232 . S
C181 O173 1.260 . S
C181 O174 1.257 . S
Zn182 O185 2.031 . S
Zn182 O187 2.049 . S
Zn182 O192 2.067 . S
Zn183 O184 1.962 . S
Zn183 O186 1.986 . S
Zn183 O188 1.996 . S
Zn183 O191 1.943 . S
O184 Zn183 1.962 . S
O184 C189 1.254 . S
O185 Zn182 2.031 . S
O185 C189 1.269 . S
O186 Zn183 1.986 . S
O186 C193 1.262 . S
O187 Zn182 2.049 . S
O187 C195 1.260 . S
O188 Zn183 1.996 . S
O188 C195 1.257 . S
C189 O184 1.254 . S
C189 O185 1.269 . S
C190 O191 1.249 . S
C190 O192 1.270 . S
O191 Zn183 1.943 . S
O191 C190 1.249 . S
O192 Zn182 2.067 . S
O192 C190 1.270 . S
C193 O186 1.262 . S
C193 O194 1.232 . S
O194 C193 1.232 . S
C195 O187 1.260 . S
C195 O188 1.257 . S
Zn196 O199 2.031 . S
Zn196 O201 2.049 . S
Zn196 O206 2.067 . S
Zn197 O198 1.962 . S
Zn197 O200 1.986 . S
Zn197 O202 1.996 . S
Zn197 O205 1.943 . S
O198 Zn197 1.962 . S
O198 C203 1.254 . S
O199 Zn196 2.031 . S
O199 C203 1.269 . S
O200 Zn197 1.986 . S
O200 C207 1.262 . S
O201 Zn196 2.049 . S
O201 C209 1.260 . S
O202 Zn197 1.996 . S
O202 C209 1.257 . S
C203 O198 1.254 . S
C203 O199 1.269 . S
C204 O205 1.249 . S
C204 O206 1.270 . S
O205 Zn197 1.943 . S
O205 C204 1.249 . S
O206 Zn196 2.067 . S
O206 C204 1.270 . S
C207 O200 1.262 . S
C207 O208 1.232 . S
O208 C207 1.232 . S
C209 O201 1.260 . S
C209 O202 1.257 . S
Zn210 O213 2.031 . S
Zn210 O215 2.049 . S
Zn210 O220 2.067 . S
Zn211 O212 1.962 . S
Zn211 O214 1.986 . S
Zn211 O216 1.996 . S
Zn211 O219 1.943 . S
O212 Zn211 1.962 . S
O212 C217 1.254 . S
O213 Zn210 2.031 . S
O213 C217 1.269 . S
O214 Zn211 1.986 . S
O214 C221 1.262 . S
O215 Zn210 2.049 . S
O215 C223 1.260 . S
O216 Zn211 1.996 . S
O216 C223 1.257 . S
C217 O212 1.254 . S
C217 O213 1.269 . S
C218 O219 1.249 . S
C218 O220 1.270 . S
O219 Zn211 1.943 . S
O219 C218 1.249 . S
O220 Zn210 2.067 . S
O220 C218 1.270 . S
C221 O214 1.262 . S
C221 O222 1.232 . S
O222 C221 1.232 . S
C223 O215 1.260 . S
C223 O216 1.257 . S
Zn224 O227 2.031 . S
Zn224 O229 2.049 . S
Zn224 O234 2.067 . S
Zn225 O226 1.962 . S
Zn225 O228 1.986 . S
Zn225 O230 1.996 . S
Zn225 O233 1.943 . S
O226 Zn225 1.962 . S
O226 C231 1.254 . S
O227 Zn224 2.031 . S
O227 C231 1.269 . S
O228 Zn225 1.986 . S
O228 C235 1.262 . S
O229 Zn224 2.049 . S
O229 C237 1.260 . S
O230 Zn225 1.996 . S
O230 C237 1.257 . S
C231 O226 1.254 . S
C231 O227 1.269 . S
C232 O233 1.249 . S
C232 O234 1.270 . S
O233 Zn225 1.943 . S
O233 C232 1.249 . S
O234 Zn224 2.067 . S
O234 C232 1.270 . S
C235 O228 1.262 . S
C235 O236 1.232 . S
O236 C235 1.232 . S
C237 O229 1.260 . S
C237 O230 1.257 . S
Zn238 O241 2.031 . S
Zn238 O243 2.049 . S
Zn238 O248 2.067 . S
Zn239 O240 1.962 . S
Zn239 O242 1.986 . S
Zn239 O244 1.996 . S
Zn239 O247 1.943 . S
O240 Zn239 1.962 . S
O240 C245 1.254 . S
O241 Zn238 2.031 . S
O241 C245 1.269 . S
O242 Zn239 1.986 . S
O242 C249 1.262 . S
O243 Zn238 2.049 . S
O243 C251 1.260 . S
O244 Zn239 1.996 . S
O244 C251 1.257 . S
C245 O240 1.254 . S
C245 O241 1.269 . S
C246 O247 1.249 . S
C246 O248 1.270 . S
O247 Zn239 1.943 . S
O247 C246 1.249 . S
O248 Zn238 2.067 . S
O248 C246 1.270 . S
C249 O242 1.262 . S
C249 O250 1.232 . S
O250 C249 1.232 . S
C251 O243 1.260 . S
C251 O244 1.257 . S
Zn252 O255 2.031 . S
Zn252 O257 2.049 . S
Zn252 O262 2.067 . S
Zn253 O254 1.962 . S
Zn253 O256 1.986 . S
Zn253 O258 1.996 . S
Zn253 O261 1.943 . S
O254 Zn253 1.962 . S
O254 C259 1.254 . S
O255 Zn252 2.031 . S
O255 C259 1.269 . S
O256 Zn253 1.986 . S
O256 C263 1.262 . S
O257 Zn252 2.049 . S
O257 C265 1.260 . S
O258 Zn253 1.996 . S
O258 C265 1.257 . S
C259 O254 1.254 . S
C259 O255 1.269 . S
C260 O261 1.249 . S
C260 O262 1.270 . S
O261 Zn253 1.943 . S
O261 C260 1.249 . S
O262 Zn252 2.067 . S
O262 C260 1.270 . S
C263 O256 1.262 . S
C263 O264 1.232 . S
O264 C263 1.232 . S
C265 O257 1.260 . S
C265 O258 1.257 . S
Zn266 O269 2.031 . S
Zn266 O271 2.049 . S
Zn266 O276 2.067 . S
Zn267 O268 1.962 . S
Zn267 O270 1.986 . S
Zn267 O272 1.996 . S
Zn267 O275 1.943 . S
O268 Zn267 1.962 . S
O268 C273 1.254 . S
O269 Zn266 2.031 . S
O269 C273 1.269 . S
O270 Zn267 1.986 . S
O270 C277 1.262 . S
O271 Zn266 2.049 . S
O271 C279 1.260 . S
O272 Zn267 1.996 . S
O272 C279 1.257 . S
C273 O268 1.254 . S
C273 O269 1.269 . S
C274 O275 1.249 . S
C274 O276 1.270 . S
O275 Zn267 1.943 . S
O275 C274 1.249 . S
O276 Zn266 2.067 . S
O276 C274 1.270 . S
C277 O270 1.262 . S
C277 O278 1.232 . S
O278 C277 1.232 . S
C279 O271 1.260 . S
C279 O272 1.257 . S
Zn280 O283 2.031 . S
Zn280 O285 2.049 . S
Zn280 O290 2.067 . S
Zn281 O282 1.962 . S
Zn281 O284 1.986 . S
Zn281 O286 1.996 . S
Zn281 O289 1.943 . S
O282 Zn281 1.962 . S
O282 C287 1.254 . S
O283 Zn280 2.031 . S
O283 C287 1.269 . S
O284 Zn281 1.986 . S
O284 C291 1.262 . S
O285 Zn280 2.049 . S
O285 C293 1.260 . S
O286 Zn281 1.996 . S
O286 C293 1.257 . S
C287 O282 1.254 . S
C287 O283 1.269 . S
C288 O289 1.249 . S
C288 O290 1.270 . S
O289 Zn281 1.943 . S
O289 C288 1.249 . S
O290 Zn280 2.067 . S
O290 C288 1.270 . S
C291 O284 1.262 . S
C291 O292 1.232 . S
O292 C291 1.232 . S
C293 O285 1.260 . S
C293 O286 1.257 . S
Zn294 O297 2.031 . S
Zn294 O299 2.049 . S
Zn294 O304 2.067 . S
Zn295 O296 1.962 . S
Zn295 O298 1.986 . S
Zn295 O300 1.996 . S
Zn295 O303 1.943 . S
O296 Zn295 1.962 . S
O296 C301 1.254 . S
O297 Zn294 2.031 . S
O297 C301 1.269 . S
O298 Zn295 1.986 . S
O298 C305 1.262 . S
O299 Zn294 2.049 . S
O299 C307 1.260 . S
O300 Zn295 1.996 . S
O300 C307 1.257 . S
C301 O296 1.254 . S
C301 O297 1.269 . S
C302 O303 1.249 . S
C302 O304 1.270 . S
O303 Zn295 1.943 . S
O303 C302 1.249 . S
O304 Zn294 2.067 . S
O304 C302 1.270 . S
C305 O298 1.262 . S
C305 O306 1.232 . S
O306 C305 1.232 . S
C307 O299 1.260 . S
C307 O300 1.257 . S
Zn308 O311 2.031 . S
Zn308 O313 2.049 . S
Zn308 O318 2.067 . S
Zn309 O310 1.962 . S
Zn309 O312 1.986 . S
Zn309 O314 1.996 . S
Zn309 O317 1.943 . S
O310 Zn309 1.962 . S
O310 C315 1.254 . S
O311 Zn308 2.031 . S
O311 C315 1.269 . S
O312 Zn309 1.986 . S
O312 C319 1.262 . S
O313 Zn308 2.049 . S
O313 C321 1.260 . S
O314 Zn309 1.996 . S
O314 C321 1.257 . S
C315 O310 1.254 . S
C315 O311 1.269 . S
C316 O317 1.249 . S
C316 O318 1.270 . S
O317 Zn309 1.943 . S
O317 C316 1.249 . S
O318 Zn308 2.067 . S
O318 C316 1.270 . S
C319 O312 1.262 . S
C319 O320 1.232 . S
O320 C319 1.232 . S
C321 O313 1.260 . S
C321 O314 1.257 . S
Zn322 O325 2.031 . S
Zn322 O327 2.049 . S
Zn322 O332 2.067 . S
Zn323 O324 1.962 . S
Zn323 O326 1.986 . S
Zn323 O328 1.996 . S
Zn323 O331 1.943 . S
O324 Zn323 1.962 . S
O324 C329 1.254 . S
O325 Zn322 2.031 . S
O325 C329 1.269 . S
O326 Zn323 1.986 . S
O326 C333 1.262 . S
O327 Zn322 2.049 . S
O327 C335 1.260 . S
O328 Zn323 1.996 . S
O328 C335 1.257 . S
C329 O324 1.254 . S
C329 O325 1.269 . S
C330 O331 1.249 . S
C330 O332 1.270 . S
O331 Zn323 1.943 . S
O331 C330 1.249 . S
O332 Zn322 2.067 . S
O332 C330 1.270 . S
C333 O326 1.262 . S
C333 O334 1.232 . S
O334 C333 1.232 . S
C335 O327 1.260 . S
C335 O328 1.257 . S
Zn336 O339 2.031 . S
Zn336 O341 2.049 . S
Zn336 O346 2.067 . S
Zn337 O338 1.962 . S
Zn337 O340 1.986 . S
Zn337 O342 1.996 . S
Zn337 O345 1.943 . S
O338 Zn337 1.962 . S
O338 C343 1.254 . S
O339 Zn336 2.031 . S
O339 C343 1.269 . S
O340 Zn337 1.986 . S
O340 C347 1.262 . S
O341 Zn336 2.049 . S
O341 C349 1.260 . S
O342 Zn337 1.996 . S
O342 C349 1.257 . S
C343 O338 1.254 . S
C343 O339 1.269 . S
C344 O345 1.249 . S
C344 O346 1.270 . S
O345 Zn337 1.943 . S
O345 C344 1.249 . S
O346 Zn336 2.067 . S
O346 C344 1.270 . S
C347 O340 1.262 . S
C347 O348 1.232 . S
O348 C347 1.232 . S
C349 O341 1.260 . S
C349 O342 1.257 . S
Zn350 O353 2.031 . S
Zn350 O355 2.049 . S
Zn350 O360 2.067 . S
Zn351 O352 1.962 . S
Zn351 O354 1.986 . S
Zn351 O356 1.996 . S
Zn351 O359 1.943 . S
O352 Zn351 1.962 . S
O352 C357 1.254 . S
O353 Zn350 2.031 . S
O353 C357 1.269 . S
O354 Zn351 1.986 . S
O354 C361 1.262 . S
O355 Zn350 2.049 . S
O355 C363 1.260 . S
O356 Zn351 1.996 . S
O356 C363 1.257 . S
C357 O352 1.254 . S
C357 O353 1.269 . S
C358 O359 1.249 . S
C358 O360 1.270 . S
O359 Zn351 1.943 . S
O359 C358 1.249 . S
O360 Zn350 2.067 . S
O360 C358 1.270 . S
C361 O354 1.262 . S
C361 O362 1.232 . S
O362 C361 1.232 . S
C363 O355 1.260 . S
C363 O356 1.257 . S
Zn364 O367 2.031 1_554 S
Zn364 O369 2.049 1_554 S
Zn364 O374 2.067 . S
Zn365 O366 1.962 . S
Zn365 O368 1.986 . S
Zn365 O370 1.996 . S
Zn365 O373 1.943 1_556 S
O366 Zn365 1.962 . S
O366 C371 1.254 . S
O367 Zn364 2.031 1_556 S
O367 C371 1.269 . S
O368 Zn365 1.986 . S
O368 C375 1.262 . S
O369 Zn364 2.049 1_556 S
O369 C377 1.260 . S
O370 Zn365 1.996 . S
O370 C377 1.257 . S
C371 O366 1.254 . S
C371 O367 1.269 . S
C372 O373 1.249 . S
C372 O374 1.270 . S
O373 Zn365 1.943 1_554 S
O373 C372 1.249 . S
O374 Zn364 2.067 . S
O374 C372 1.270 . S
C375 O368 1.262 . S
C375 O376 1.232 . S
O376 C375 1.232 . S
C377 O369 1.260 . S
C377 O370 1.257 . S
Zn378 O381 2.031 1_554 S
Zn378 O383 2.049 1_554 S
Zn378 O388 2.067 . S
Zn379 O380 1.962 . S
Zn379 O382 1.986 . S
Zn379 O384 1.996 . S
Zn379 O387 1.943 1_556 S
O380 Zn379 1.962 . S
O380 C385 1.254 . S
O381 Zn378 2.031 1_556 S
O381 C385 1.269 . S
O382 Zn379 1.986 . S
O382 C389 1.262 . S
O383 Zn378 2.049 1_556 S
O383 C391 1.260 . S
O384 Zn379 1.996 . S
O384 C391 1.257 . S
C385 O380 1.254 . S
C385 O381 1.269 . S
C386 O387 1.249 . S
C386 O388 1.270 . S
O387 Zn379 1.943 1_554 S
O387 C386 1.249 . S
O388 Zn378 2.067 . S
O388 C386 1.270 . S
C389 O382 1.262 . S
C389 O390 1.232 . S
O390 C389 1.232 . S
C391 O383 1.260 . S
C391 O384 1.257 . S
Zn392 O395 2.031 . S
Zn392 O397 2.049 . S
Zn392 O402 2.067 . S
Zn393 O394 1.962 . S
Zn393 O396 1.986 . S
Zn393 O398 1.996 . S
Zn393 O401 1.943 . S
O394 Zn393 1.962 . S
O394 C399 1.254 . S
O395 Zn392 2.031 . S
O395 C399 1.269 . S
O396 Zn393 1.986 . S
O396 C403 1.262 . S
O397 Zn392 2.049 . S
O397 C405 1.260 . S
O398 Zn393 1.996 . S
O398 C405 1.257 . S
C399 O394 1.254 . S
C399 O395 1.269 . S
C400 O401 1.249 . S
C400 O402 1.270 . S
O401 Zn393 1.943 . S
O401 C400 1.249 . S
O402 Zn392 2.067 . S
O402 C400 1.270 . S
C403 O396 1.262 . S
C403 O404 1.232 . S
O404 C403 1.232 . S
C405 O397 1.260 . S
C405 O398 1.257 . S
Zn406 O409 2.031 . S
Zn406 O411 2.049 . S
Zn406 O416 2.067 . S
Zn407 O408 1.962 . S
Zn407 O410 1.986 . S
Zn407 O412 1.996 . S
Zn407 O415 1.943 . S
O408 Zn407 1.962 . S
O408 C413 1.254 . S
O409 Zn406 2.031 . S
O409 C413 1.269 . S
O410 Zn407 1.986 . S
O410 C417 1.262 . S
O411 Zn406 2.049 . S
O411 C419 1.260 . S
O412 Zn407 1.996 . S
O412 C419 1.257 . S
C413 O408 1.254 . S
C413 O409 1.269 . S
C414 O415 1.249 . S
C414 O416 1.270 . S
O415 Zn407 1.943 . S
O415 C414 1.249 . S
O416 Zn406 2.067 . S
O416 C414 1.270 . S
C417 O410 1.262 . S
C417 O418 1.232 . S
O418 C417 1.232 . S
C419 O411 1.260 . S
C419 O412 1.257 . S
Zn420 O423 2.031 1_556 S
Zn420 O425 2.049 1_556 S
Zn420 O430 2.067 . S
Zn421 O422 1.962 . S
Zn421 O424 1.986 . S
Zn421 O426 1.996 . S
Zn421 O429 1.943 1_554 S
O422 Zn421 1.962 . S
O422 C427 1.254 . S
O423 Zn420 2.031 1_554 S
O423 C427 1.269 . S
O424 Zn421 1.986 . S
O424 C431 1.262 . S
O425 Zn420 2.049 1_554 S
O425 C433 1.260 . S
O426 Zn421 1.996 . S
O426 C433 1.257 . S
C427 O422 1.254 . S
C427 O423 1.269 . S
C428 O429 1.249 . S
C428 O430 1.270 . S
O429 Zn421 1.943 1_556 S
O429 C428 1.249 . S
O430 Zn420 2.067 . S
O430 C428 1.270 . S
C431 O424 1.262 . S
C431 O432 1.232 . S
O432 C431 1.232 . S
C433 O425 1.260 . S
C433 O426 1.257 . S
Zn434 O437 2.031 1_556 S
Zn434 O439 2.049 1_556 S
Zn434 O444 2.067 . S
Zn435 O436 1.962 . S
Zn435 O438 1.986 . S
Zn435 O440 1.996 . S
Zn435 O443 1.943 1_554 S
O436 Zn435 1.962 . S
O436 C441 1.254 . S
O437 Zn434 2.031 1_554 S
O437 C441 1.269 . S
O438 Zn435 1.986 . S
O438 C445 1.262 . S
O439 Zn434 2.049 1_554 S
O439 C447 1.260 . S
O440 Zn435 1.996 . S
O440 C447 1.257 . S
C441 O436 1.254 . S
C441 O437 1.269 . S
C442 O443 1.249 . S
C442 O444 1.270 . S
O443 Zn435 1.943 1_556 S
O443 C442 1.249 . S
O444 Zn434 2.067 . S
O444 C442 1.270 . S
C445 O438 1.262 . S
C445 O446 1.232 . S
O446 C445 1.232 . S
C447 O439 1.260 . S
C447 O440 1.257 . S
H448 C466 0.951 . S
H449 C468 0.951 . S
H450 C470 0.950 . S
H451 C471 0.950 . S
H452 C473 0.950 . S
H453 C476 0.950 . S
H454 C477 0.950 . S
H455 C479 0.950 . S
H456 C480 0.950 . S
H457 C481 0.951 . S
H458 C483 0.951 . S
H459 C485 0.950 . S
H460 C486 0.950 . S
H461 C488 0.950 . S
H462 C491 0.950 . S
H463 C492 0.950 . S
H464 C494 0.950 . S
H465 C495 0.950 . S
C466 H448 0.951 . S
C466 C467 1.366 . S
C466 C468 1.388 . S
C467 C466 1.366 . S
C467 C471 1.385 . S
C468 H449 0.951 . S
C468 C466 1.388 . S
C468 C469 1.366 . S
C469 C468 1.366 . S
C469 C470 1.414 . S
C469 C472 1.499 . S
C470 H450 0.950 . S
C470 C469 1.414 . S
C470 C471 1.374 . S
C471 H451 0.950 . S
C471 C467 1.385 . S
C471 C470 1.374 . S
C472 C469 1.499 . S
C472 C473 1.373 . S
C472 C474 1.389 . S
C473 H452 0.950 . S
C473 C472 1.373 . S
C473 C489 1.377 . S
C474 C472 1.389 . S
C474 C475 1.524 . S
C474 C488 1.377 . S
C475 C474 1.524 . S
C475 C476 1.397 . S
C475 C480 1.363 . S
C476 H453 0.950 . S
C476 C475 1.397 . S
C476 C477 1.334 . S
C477 H454 0.950 . S
C477 C476 1.334 . S
C477 C478 1.287 . S
C478 C477 1.287 . S
C478 C479 1.524 . S
C478 H497 0.913 . S
C479 H455 0.950 . S
C479 C478 1.524 . S
C479 C480 1.415 . S
C480 H456 0.950 . S
C480 C475 1.363 . S
C480 C479 1.415 . S
C481 H457 0.951 . S
C481 C482 1.366 . S
C481 C483 1.388 . S
C482 C481 1.366 . S
C482 C486 1.385 . S
C483 H458 0.951 . S
C483 C481 1.388 . S
C483 C484 1.366 . S
C484 C483 1.366 . S
C484 C485 1.414 . S
C484 C487 1.499 . S
C485 H459 0.950 . S
C485 C484 1.414 . S
C485 C486 1.374 . S
C486 H460 0.950 . S
C486 C482 1.385 . S
C486 C485 1.374 . S
C487 C484 1.499 . S
C487 C488 1.373 . S
C487 C489 1.389 . S
C488 H461 0.950 . S
C488 C474 1.377 . S
C488 C487 1.373 . S
C489 C473 1.377 . S
C489 C487 1.389 . S
C489 C490 1.524 . S
C490 C489 1.524 . S
C490 C491 1.397 . S
C490 C495 1.363 . S
C491 H462 0.950 . S
C491 C490 1.397 . S
C491 C492 1.334 . S
C492 H463 0.950 . S
C492 C491 1.334 . S
C492 C493 1.287 . S
C493 C492 1.287 . S
C493 C494 1.524 . S
C493 H496 0.999 . S
C494 H464 0.950 . S
C494 C493 1.524 . S
C494 C495 1.415 . S
C495 H465 0.950 . S
C495 C490 1.363 . S
C495 C494 1.415 . S
H496 C493 0.999 . S
H497 C478 0.913 . S
H498 C516 0.951 . S
H499 C518 0.951 . S
H500 C520 0.950 . S
H501 C521 0.950 . S
H502 C523 0.950 . S
H503 C526 0.950 . S
H504 C527 0.950 . S
H505 C529 0.950 . S
H506 C530 0.950 . S
H507 C531 0.951 . S
H508 C533 0.951 . S
H509 C535 0.950 . S
H510 C536 0.950 . S
H511 C538 0.950 . S
H512 C541 0.950 . S
H513 C542 0.950 . S
H514 C544 0.950 1_655 S
H515 C545 0.950 . S
C516 H498 0.951 . S
C516 C517 1.366 . S
C516 C518 1.388 . S
C517 C516 1.366 . S
C517 C521 1.385 . S
C518 H499 0.951 . S
C518 C516 1.388 . S
C518 C519 1.366 . S
C519 C518 1.366 . S
C519 C520 1.414 . S
C519 C522 1.499 . S
C520 H500 0.950 . S
C520 C519 1.414 . S
C520 C521 1.374 . S
C521 H501 0.950 . S
C521 C517 1.385 . S
C521 C520 1.374 . S
C522 C519 1.499 . S
C522 C523 1.373 . S
C522 C524 1.389 . S
C523 H502 0.950 . S
C523 C522 1.373 . S
C523 C539 1.377 . S
C524 C522 1.389 . S
C524 C525 1.524 . S
C524 C538 1.377 . S
C525 C524 1.524 . S
C525 C526 1.397 . S
C525 C530 1.363 . S
C526 H503 0.950 . S
C526 C525 1.397 . S
C526 C527 1.334 . S
C527 H504 0.950 . S
C527 C526 1.334 . S
C527 C528 1.287 . S
C528 C527 1.287 . S
C528 C529 1.524 . S
C528 H547 0.913 . S
C529 H505 0.950 . S
C529 C528 1.524 . S
C529 C530 1.415 . S
C530 H506 0.950 . S
C530 C525 1.363 . S
C530 C529 1.415 . S
C531 H507 0.951 . S
C531 C532 1.366 . S
C531 C533 1.388 . S
C532 C531 1.366 . S
C532 C536 1.385 . S
C533 H508 0.951 . S
C533 C531 1.388 . S
C533 C534 1.366 . S
C534 C533 1.366 . S
C534 C535 1.414 . S
C534 C537 1.499 . S
C535 H509 0.950 . S
C535 C534 1.414 . S
C535 C536 1.374 . S
C536 H510 0.950 . S
C536 C532 1.385 . S
C536 C535 1.374 . S
C537 C534 1.499 . S
C537 C538 1.373 . S
C537 C539 1.389 . S
C538 H511 0.950 . S
C538 C524 1.377 . S
C538 C537 1.373 . S
C539 C523 1.377 . S
C539 C537 1.389 . S
C539 C540 1.524 . S
C540 C539 1.524 . S
C540 C541 1.397 . S
C540 C545 1.363 . S
C541 H512 0.950 . S
C541 C540 1.397 . S
C541 C542 1.334 . S
C542 H513 0.950 . S
C542 C541 1.334 . S
C542 C543 1.287 . S
C543 C542 1.287 . S
C543 C544 1.524 . S
C543 H546 0.999 . S
C544 H514 0.950 1_455 S
C544 C543 1.524 . S
C544 C545 1.415 . S
C545 H515 0.950 . S
C545 C540 1.363 . S
C545 C544 1.415 . S
H546 C543 0.999 . S
H547 C528 0.913 . S
H548 C566 0.951 . S
H549 C568 0.951 . S
H550 C570 0.950 . S
H551 C571 0.950 . S
H552 C573 0.950 . S
H553 C576 0.950 . S
H554 C577 0.950 . S
H555 C579 0.950 . S
H556 C580 0.950 . S
H557 C581 0.951 . S
H558 C583 0.951 . S
H559 C585 0.950 . S
H560 C586 0.950 . S
H561 C588 0.950 . S
H562 C591 0.950 . S
H563 C592 0.950 . S
H564 C594 0.950 . S
H565 C595 0.950 . S
C566 H548 0.951 . S
C566 C567 1.366 . S
C566 C568 1.388 . S
C567 C566 1.366 . S
C567 C571 1.385 . S
C568 H549 0.951 . S
C568 C566 1.388 . S
C568 C569 1.366 . S
C569 C568 1.366 . S
C569 C570 1.414 . S
C569 C572 1.499 . S
C570 H550 0.950 . S
C570 C569 1.414 . S
C570 C571 1.374 . S
C571 H551 0.950 . S
C571 C567 1.385 . S
C571 C570 1.374 . S
C572 C569 1.499 . S
C572 C573 1.373 . S
C572 C574 1.389 . S
C573 H552 0.950 . S
C573 C572 1.373 . S
C573 C589 1.377 . S
C574 C572 1.389 . S
C574 C575 1.524 . S
C574 C588 1.377 . S
C575 C574 1.524 . S
C575 C576 1.397 . S
C575 C580 1.363 . S
C576 H553 0.950 . S
C576 C575 1.397 . S
C576 C577 1.334 . S
C577 H554 0.950 . S
C577 C576 1.334 . S
C577 C578 1.287 . S
C578 C577 1.287 . S
C578 C579 1.524 . S
C578 H597 0.913 . S
C579 H555 0.950 . S
C579 C578 1.524 . S
C579 C580 1.415 . S
C580 H556 0.950 . S
C580 C575 1.363 . S
C580 C579 1.415 . S
C581 H557 0.951 . S
C581 C582 1.366 . S
C581 C583 1.388 . S
C582 C581 1.366 . S
C582 C586 1.385 . S
C583 H558 0.951 . S
C583 C581 1.388 . S
C583 C584 1.366 . S
C584 C583 1.366 . S
C584 C585 1.414 . S
C584 C587 1.499 . S
C585 H559 0.950 . S
C585 C584 1.414 . S
C585 C586 1.374 . S
C586 H560 0.950 . S
C586 C582 1.385 . S
C586 C585 1.374 . S
C587 C584 1.499 . S
C587 C588 1.373 . S
C587 C589 1.389 . S
C588 H561 0.950 . S
C588 C574 1.377 . S
C588 C587 1.373 . S
C589 C573 1.377 . S
C589 C587 1.389 . S
C589 C590 1.524 . S
C590 C589 1.524 . S
C590 C591 1.397 . S
C590 C595 1.363 . S
C591 H562 0.950 . S
C591 C590 1.397 . S
C591 C592 1.334 . S
C592 H563 0.950 . S
C592 C591 1.334 . S
C592 C593 1.287 . S
C593 C592 1.287 . S
C593 C594 1.524 . S
C593 H596 0.999 . S
C594 H564 0.950 . S
C594 C593 1.524 . S
C594 C595 1.415 . S
C595 H565 0.950 . S
C595 C590 1.363 . S
C595 C594 1.415 . S
H596 C593 0.999 . S
H597 C578 0.913 . S
H598 C616 0.951 . S
H599 C618 0.951 . S
H600 C620 0.950 . S
H601 C621 0.950 . S
H602 C623 0.950 . S
H603 C626 0.950 . S
H604 C627 0.950 . S
H605 C629 0.950 . S
H606 C630 0.950 . S
H607 C631 0.951 . S
H608 C633 0.951 . S
H609 C635 0.950 . S
H610 C636 0.950 . S
H611 C638 0.950 . S
H612 C641 0.950 . S
H613 C642 0.950 . S
H614 C644 0.950 1_455 S
H615 C645 0.950 . S
C616 H598 0.951 . S
C616 C617 1.366 . S
C616 C618 1.388 . S
C617 C616 1.366 . S
C617 C621 1.385 . S
C618 H599 0.951 . S
C618 C616 1.388 . S
C618 C619 1.366 . S
C619 C618 1.366 . S
C619 C620 1.414 . S
C619 C622 1.499 . S
C620 H600 0.950 . S
C620 C619 1.414 . S
C620 C621 1.374 . S
C621 H601 0.950 . S
C621 C617 1.385 . S
C621 C620 1.374 . S
C622 C619 1.499 . S
C622 C623 1.373 . S
C622 C624 1.389 . S
C623 H602 0.950 . S
C623 C622 1.373 . S
C623 C639 1.377 . S
C624 C622 1.389 . S
C624 C625 1.524 . S
C624 C638 1.377 . S
C625 C624 1.524 . S
C625 C626 1.397 . S
C625 C630 1.363 . S
C626 H603 0.950 . S
C626 C625 1.397 . S
C626 C627 1.334 . S
C627 H604 0.950 . S
C627 C626 1.334 . S
C627 C628 1.287 . S
C628 C627 1.287 . S
C628 C629 1.524 . S
C628 H647 0.913 . S
C629 H605 0.950 . S
C629 C628 1.524 . S
C629 C630 1.415 . S
C630 H606 0.950 . S
C630 C625 1.363 . S
C630 C629 1.415 . S
C631 H607 0.951 . S
C631 C632 1.366 . S
C631 C633 1.388 . S
C632 C631 1.366 . S
C632 C636 1.385 . S
C633 H608 0.951 . S
C633 C631 1.388 . S
C633 C634 1.366 . S
C634 C633 1.366 . S
C634 C635 1.414 . S
C634 C637 1.499 . S
C635 H609 0.950 . S
C635 C634 1.414 . S
C635 C636 1.374 . S
C636 H610 0.950 . S
C636 C632 1.385 . S
C636 C635 1.374 . S
C637 C634 1.499 . S
C637 C638 1.373 . S
C637 C639 1.389 . S
C638 H611 0.950 . S
C638 C624 1.377 . S
C638 C637 1.373 . S
C639 C623 1.377 . S
C639 C637 1.389 . S
C639 C640 1.524 . S
C640 C639 1.524 . S
C640 C641 1.397 . S
C640 C645 1.363 . S
C641 H612 0.950 . S
C641 C640 1.397 . S
C641 C642 1.334 . S
C642 H613 0.950 . S
C642 C641 1.334 . S
C642 C643 1.287 . S
C643 C642 1.287 . S
C643 C644 1.524 . S
C643 H646 0.999 1_655 S
C644 H614 0.950 1_655 S
C644 C643 1.524 . S
C644 C645 1.415 . S
C645 H615 0.950 . S
C645 C640 1.363 . S
C645 C644 1.415 . S
H646 C643 0.999 1_455 S
H647 C628 0.913 . S
H648 C666 0.951 . S
H649 C668 0.951 . S
H650 C670 0.950 . S
H651 C671 0.950 . S
H652 C673 0.950 . S
H653 C676 0.950 . S
H654 C677 0.950 . S
H655 C679 0.950 . S
H656 C680 0.950 . S
H657 C681 0.951 . S
H658 C683 0.951 . S
H659 C685 0.950 . S
H660 C686 0.950 . S
H661 C688 0.950 . S
H662 C691 0.950 . S
H663 C692 0.950 . S
H664 C694 0.950 . S
H665 C695 0.950 . S
C666 H648 0.951 . S
C666 C667 1.366 . S
C666 C668 1.388 . S
C667 C666 1.366 . S
C667 C671 1.385 . S
C668 H649 0.951 . S
C668 C666 1.388 . S
C668 C669 1.366 . S
C669 C668 1.366 . S
C669 C670 1.414 . S
C669 C672 1.499 . S
C670 H650 0.950 . S
C670 C669 1.414 . S
C670 C671 1.374 . S
C671 H651 0.950 . S
C671 C667 1.385 . S
C671 C670 1.374 . S
C672 C669 1.499 . S
C672 C673 1.373 . S
C672 C674 1.389 . S
C673 H652 0.950 . S
C673 C672 1.373 . S
C673 C689 1.377 . S
C674 C672 1.389 . S
C674 C675 1.524 . S
C674 C688 1.377 . S
C675 C674 1.524 . S
C675 C676 1.397 . S
C675 C680 1.363 . S
C676 H653 0.950 . S
C676 C675 1.397 . S
C676 C677 1.334 . S
C677 H654 0.950 . S
C677 C676 1.334 . S
C677 C678 1.287 . S
C678 C677 1.287 . S
C678 C679 1.524 . S
C678 H697 0.913 . S
C679 H655 0.950 . S
C679 C678 1.524 . S
C679 C680 1.415 . S
C680 H656 0.950 . S
C680 C675 1.363 . S
C680 C679 1.415 . S
C681 H657 0.951 . S
C681 C682 1.366 . S
C681 C683 1.388 . S
C682 C681 1.366 . S
C682 C686 1.385 . S
C683 H658 0.951 . S
C683 C681 1.388 . S
C683 C684 1.366 . S
C684 C683 1.366 . S
C684 C685 1.414 . S
C684 C687 1.499 . S
C685 H659 0.950 . S
C685 C684 1.414 . S
C685 C686 1.374 . S
C686 H660 0.950 . S
C686 C682 1.385 . S
C686 C685 1.374 . S
C687 C684 1.499 . S
C687 C688 1.373 . S
C687 C689 1.389 . S
C688 H661 0.950 . S
C688 C674 1.377 . S
C688 C687 1.373 . S
C689 C673 1.377 . S
C689 C687 1.389 . S
C689 C690 1.524 . S
C690 C689 1.524 . S
C690 C691 1.397 . S
C690 C695 1.363 . S
C691 H662 0.950 . S
C691 C690 1.397 . S
C691 C692 1.334 . S
C692 H663 0.950 . S
C692 C691 1.334 . S
C692 C693 1.287 . S
C693 C692 1.287 . S
C693 C694 1.524 . S
C693 H696 0.999 1_455 S
C694 H664 0.950 . S
C694 C693 1.524 . S
C694 C695 1.415 . S
C695 H665 0.950 . S
C695 C690 1.363 . S
C695 C694 1.415 . S
H696 C693 0.999 1_655 S
H697 C678 0.913 . S
H698 C716 0.951 . S
H699 C718 0.951 . S
H700 C720 0.950 . S
H701 C721 0.950 . S
H702 C723 0.950 . S
H703 C726 0.950 . S
H704 C727 0.950 . S
H705 C729 0.950 . S
H706 C730 0.950 . S
H707 C731 0.951 . S
H708 C733 0.951 . S
H709 C735 0.950 . S
H710 C736 0.950 . S
H711 C738 0.950 . S
H712 C741 0.950 . S
H713 C742 0.950 . S
H714 C744 0.950 . S
H715 C745 0.950 . S
C716 H698 0.951 . S
C716 C717 1.366 . S
C716 C718 1.388 . S
C717 C716 1.366 . S
C717 C721 1.385 . S
C718 H699 0.951 . S
C718 C716 1.388 . S
C718 C719 1.366 . S
C719 C718 1.366 . S
C719 C720 1.414 . S
C719 C722 1.499 . S
C720 H700 0.950 . S
C720 C719 1.414 . S
C720 C721 1.374 . S
C721 H701 0.950 . S
C721 C717 1.385 . S
C721 C720 1.374 . S
C722 C719 1.499 . S
C722 C723 1.373 . S
C722 C724 1.389 . S
C723 H702 0.950 . S
C723 C722 1.373 . S
C723 C739 1.377 . S
C724 C722 1.389 . S
C724 C725 1.524 . S
C724 C738 1.377 . S
C725 C724 1.524 . S
C725 C726 1.397 . S
C725 C730 1.363 . S
C726 H703 0.950 . S
C726 C725 1.397 . S
C726 C727 1.334 . S
C727 H704 0.950 . S
C727 C726 1.334 . S
C727 C728 1.287 . S
C728 C727 1.287 . S
C728 C729 1.524 . S
C728 H747 0.913 . S
C729 H705 0.950 . S
C729 C728 1.524 . S
C729 C730 1.415 . S
C730 H706 0.950 . S
C730 C725 1.363 . S
C730 C729 1.415 . S
C731 H707 0.951 . S
C731 C732 1.366 . S
C731 C733 1.388 . S
C732 C731 1.366 . S
C732 C736 1.385 . S
C733 H708 0.951 . S
C733 C731 1.388 . S
C733 C734 1.366 . S
C734 C733 1.366 . S
C734 C735 1.414 . S
C734 C737 1.499 . S
C735 H709 0.950 . S
C735 C734 1.414 . S
C735 C736 1.374 . S
C736 H710 0.950 . S
C736 C732 1.385 . S
C736 C735 1.374 . S
C737 C734 1.499 . S
C737 C738 1.373 . S
C737 C739 1.389 . S
C738 H711 0.950 . S
C738 C724 1.377 . S
C738 C737 1.373 . S
C739 C723 1.377 . S
C739 C737 1.389 . S
C739 C740 1.524 . S
C740 C739 1.524 . S
C740 C741 1.397 . S
C740 C745 1.363 . S
C741 H712 0.950 . S
C741 C740 1.397 . S
C741 C742 1.334 . S
C742 H713 0.950 . S
C742 C741 1.334 . S
C742 C743 1.287 . S
C743 C742 1.287 . S
C743 C744 1.524 . S
C743 H746 0.999 . S
C744 H714 0.950 . S
C744 C743 1.524 . S
C744 C745 1.415 . S
C745 H715 0.950 . S
C745 C740 1.363 . S
C745 C744 1.415 . S
H746 C743 0.999 . S
H747 C728 0.913 . S
H748 C766 0.951 . S
H749 C768 0.951 . S
H750 C770 0.950 . S
H751 C771 0.950 . S
H752 C773 0.950 . S
H753 C776 0.950 . S
H754 C777 0.950 . S
H755 C779 0.950 . S
H756 C780 0.950 . S
H757 C781 0.951 . S
H758 C783 0.951 . S
H759 C785 0.950 . S
H760 C786 0.950 . S
H761 C788 0.950 . S
H762 C791 0.950 . S
H763 C792 0.950 . S
H764 C794 0.950 . S
H765 C795 0.950 . S
C766 H748 0.951 . S
C766 C767 1.366 . S
C766 C768 1.388 . S
C767 C766 1.366 . S
C767 C771 1.385 . S
C768 H749 0.951 . S
C768 C766 1.388 . S
C768 C769 1.366 . S
C769 C768 1.366 . S
C769 C770 1.414 . S
C769 C772 1.499 . S
C770 H750 0.950 . S
C770 C769 1.414 . S
C770 C771 1.374 . S
C771 H751 0.950 . S
C771 C767 1.385 . S
C771 C770 1.374 . S
C772 C769 1.499 . S
C772 C773 1.373 . S
C772 C774 1.389 . S
C773 H752 0.950 . S
C773 C772 1.373 . S
C773 C789 1.377 . S
C774 C772 1.389 . S
C774 C775 1.524 . S
C774 C788 1.377 . S
C775 C774 1.524 . S
C775 C776 1.397 . S
C775 C780 1.363 . S
C776 H753 0.950 . S
C776 C775 1.397 . S
C776 C777 1.334 . S
C777 H754 0.950 . S
C777 C776 1.334 . S
C777 C778 1.287 . S
C778 C777 1.287 . S
C778 C779 1.524 . S
C778 H797 0.913 . S
C779 H755 0.950 . S
C779 C778 1.524 . S
C779 C780 1.415 . S
C780 H756 0.950 . S
C780 C775 1.363 . S
C780 C779 1.415 . S
C781 H757 0.951 . S
C781 C782 1.366 . S
C781 C783 1.388 . S
C782 C781 1.366 . S
C782 C786 1.385 . S
C783 H758 0.951 . S
C783 C781 1.388 . S
C783 C784 1.366 . S
C784 C783 1.366 . S
C784 C785 1.414 . S
C784 C787 1.499 . S
C785 H759 0.950 . S
C785 C784 1.414 . S
C785 C786 1.374 . S
C786 H760 0.950 . S
C786 C782 1.385 . S
C786 C785 1.374 . S
C787 C784 1.499 . S
C787 C788 1.373 . S
C787 C789 1.389 . S
C788 H761 0.950 . S
C788 C774 1.377 . S
C788 C787 1.373 . S
C789 C773 1.377 . S
C789 C787 1.389 . S
C789 C790 1.524 . S
C790 C789 1.524 . S
C790 C791 1.397 . S
C790 C795 1.363 . S
C791 H762 0.950 . S
C791 C790 1.397 . S
C791 C792 1.334 . S
C792 H763 0.950 . S
C792 C791 1.334 . S
C792 C793 1.287 . S
C793 C792 1.287 . S
C793 C794 1.524 . S
C793 H796 0.999 . S
C794 H764 0.950 . S
C794 C793 1.524 . S
C794 C795 1.415 . S
C795 H765 0.950 . S
C795 C790 1.363 . S
C795 C794 1.415 . S
H796 C793 0.999 . S
H797 C778 0.913 . S
H798 C816 0.951 . S
H799 C818 0.951 . S
H800 C820 0.950 . S
H801 C821 0.950 . S
H802 C823 0.950 . S
H803 C826 0.950 . S
H804 C827 0.950 . S
H805 C829 0.950 . S
H806 C830 0.950 . S
H807 C831 0.951 . S
H808 C833 0.951 . S
H809 C835 0.950 . S
H810 C836 0.950 . S
H811 C838 0.950 . S
H812 C841 0.950 . S
H813 C842 0.950 . S
H814 C844 0.950 . S
H815 C845 0.950 . S
C816 H798 0.951 . S
C816 C817 1.366 . S
C816 C818 1.388 . S
C817 C816 1.366 . S
C817 C821 1.385 . S
C818 H799 0.951 . S
C818 C816 1.388 . S
C818 C819 1.366 . S
C819 C818 1.366 . S
C819 C820 1.414 . S
C819 C822 1.499 . S
C820 H800 0.950 . S
C820 C819 1.414 . S
C820 C821 1.374 . S
C821 H801 0.950 . S
C821 C817 1.385 . S
C821 C820 1.374 . S
C822 C819 1.499 . S
C822 C823 1.373 . S
C822 C824 1.389 . S
C823 H802 0.950 . S
C823 C822 1.373 . S
C823 C839 1.377 . S
C824 C822 1.389 . S
C824 C825 1.524 . S
C824 C838 1.377 . S
C825 C824 1.524 . S
C825 C826 1.397 . S
C825 C830 1.363 . S
C826 H803 0.950 . S
C826 C825 1.397 . S
C826 C827 1.334 . S
C827 H804 0.950 . S
C827 C826 1.334 . S
C827 C828 1.287 . S
C828 C827 1.287 . S
C828 C829 1.524 . S
C828 H847 0.913 . S
C829 H805 0.950 . S
C829 C828 1.524 . S
C829 C830 1.415 . S
C830 H806 0.950 . S
C830 C825 1.363 . S
C830 C829 1.415 . S
C831 H807 0.951 . S
C831 C832 1.366 . S
C831 C833 1.388 . S
C832 C831 1.366 . S
C832 C836 1.385 . S
C833 H808 0.951 . S
C833 C831 1.388 . S
C833 C834 1.366 . S
C834 C833 1.366 . S
C834 C835 1.414 . S
C834 C837 1.499 . S
C835 H809 0.950 . S
C835 C834 1.414 . S
C835 C836 1.374 . S
C836 H810 0.950 . S
C836 C832 1.385 . S
C836 C835 1.374 . S
C837 C834 1.499 . S
C837 C838 1.373 . S
C837 C839 1.389 . S
C838 H811 0.950 . S
C838 C824 1.377 . S
C838 C837 1.373 . S
C839 C823 1.377 . S
C839 C837 1.389 . S
C839 C840 1.524 . S
C840 C839 1.524 . S
C840 C841 1.397 . S
C840 C845 1.363 . S
C841 H812 0.950 . S
C841 C840 1.397 . S
C841 C842 1.334 . S
C842 H813 0.950 . S
C842 C841 1.334 . S
C842 C843 1.287 . S
C843 C842 1.287 . S
C843 C844 1.524 . S
C843 H846 0.999 . S
C844 H814 0.950 . S
C844 C843 1.524 . S
C844 C845 1.415 . S
C845 H815 0.950 . S
C845 C840 1.363 . S
C845 C844 1.415 . S
H846 C843 0.999 . S
H847 C828 0.913 . S
H848 C866 0.951 . S
H849 C868 0.951 . S
H850 C870 0.950 . S
H851 C871 0.950 . S
H852 C873 0.950 . S
H853 C876 0.950 . S
H854 C877 0.950 . S
H855 C879 0.950 . S
H856 C880 0.950 . S
H857 C881 0.951 . S
H858 C883 0.951 . S
H859 C885 0.950 . S
H860 C886 0.950 . S
H861 C888 0.950 . S
H862 C891 0.950 . S
H863 C892 0.950 . S
H864 C894 0.950 . S
H865 C895 0.950 . S
C866 H848 0.951 . S
C866 C867 1.366 . S
C866 C868 1.388 . S
C867 C866 1.366 . S
C867 C871 1.385 . S
C868 H849 0.951 . S
C868 C866 1.388 . S
C868 C869 1.366 . S
C869 C868 1.366 . S
C869 C870 1.414 . S
C869 C872 1.499 . S
C870 H850 0.950 . S
C870 C869 1.414 . S
C870 C871 1.374 . S
C871 H851 0.950 . S
C871 C867 1.385 . S
C871 C870 1.374 . S
C872 C869 1.499 . S
C872 C873 1.373 . S
C872 C874 1.389 . S
C873 H852 0.950 . S
C873 C872 1.373 . S
C873 C889 1.377 . S
C874 C872 1.389 . S
C874 C875 1.524 . S
C874 C888 1.377 . S
C875 C874 1.524 . S
C875 C876 1.397 . S
C875 C880 1.363 . S
C876 H853 0.950 . S
C876 C875 1.397 . S
C876 C877 1.334 . S
C877 H854 0.950 . S
C877 C876 1.334 . S
C877 C878 1.287 . S
C878 C877 1.287 . S
C878 C879 1.524 . S
C878 H897 0.913 . S
C879 H855 0.950 . S
C879 C878 1.524 . S
C879 C880 1.415 . S
C880 H856 0.950 . S
C880 C875 1.363 . S
C880 C879 1.415 . S
C881 H857 0.951 . S
C881 C882 1.366 . S
C881 C883 1.388 . S
C882 C881 1.366 . S
C882 C886 1.385 . S
C883 H858 0.951 . S
C883 C881 1.388 . S
C883 C884 1.366 . S
C884 C883 1.366 . S
C884 C885 1.414 . S
C884 C887 1.499 . S
C885 H859 0.950 . S
C885 C884 1.414 . S
C885 C886 1.374 . S
C886 H860 0.950 . S
C886 C882 1.385 . S
C886 C885 1.374 . S
C887 C884 1.499 . S
C887 C888 1.373 . S
C887 C889 1.389 . S
C888 H861 0.950 . S
C888 C874 1.377 . S
C888 C887 1.373 . S
C889 C873 1.377 . S
C889 C887 1.389 . S
C889 C890 1.524 . S
C890 C889 1.524 . S
C890 C891 1.397 . S
C890 C895 1.363 . S
C891 H862 0.950 . S
C891 C890 1.397 . S
C891 C892 1.334 . S
C892 H863 0.950 . S
C892 C891 1.334 . S
C892 C893 1.287 . S
C893 C892 1.287 . S
C893 C894 1.524 . S
C893 H896 0.999 . S
C894 H864 0.950 . S
C894 C893 1.524 . S
C894 C895 1.415 . S
C895 H865 0.950 . S
C895 C890 1.363 . S
C895 C894 1.415 . S
H896 C893 0.999 . S
H897 C878 0.913 . S
H898 C916 0.951 . S
H899 C918 0.951 . S
H900 C920 0.950 . S
H901 C921 0.950 . S
H902 C923 0.950 . S
H903 C926 0.950 . S
H904 C927 0.950 . S
H905 C929 0.950 . S
H906 C930 0.950 . S
H907 C931 0.951 . S
H908 C933 0.951 . S
H909 C935 0.950 . S
H910 C936 0.950 . S
H911 C938 0.950 . S
H912 C941 0.950 . S
H913 C942 0.950 . S
H914 C944 0.950 . S
H915 C945 0.950 . S
C916 H898 0.951 . S
C916 C917 1.366 . S
C916 C918 1.388 . S
C917 C916 1.366 . S
C917 C921 1.385 . S
C918 H899 0.951 . S
C918 C916 1.388 . S
C918 C919 1.366 . S
C919 C918 1.366 . S
C919 C920 1.414 . S
C919 C922 1.499 . S
C920 H900 0.950 . S
C920 C919 1.414 . S
C920 C921 1.374 . S
C921 H901 0.950 . S
C921 C917 1.385 . S
C921 C920 1.374 . S
C922 C919 1.499 . S
C922 C923 1.373 . S
C922 C924 1.389 . S
C923 H902 0.950 . S
C923 C922 1.373 . S
C923 C939 1.377 . S
C924 C922 1.389 . S
C924 C925 1.524 . S
C924 C938 1.377 . S
C925 C924 1.524 . S
C925 C926 1.397 . S
C925 C930 1.363 . S
C926 H903 0.950 . S
C926 C925 1.397 . S
C926 C927 1.334 . S
C927 H904 0.950 . S
C927 C926 1.334 . S
C927 C928 1.287 . S
C928 C927 1.287 . S
C928 C929 1.524 . S
C928 H947 0.913 . S
C929 H905 0.950 . S
C929 C928 1.524 . S
C929 C930 1.415 . S
C930 H906 0.950 . S
C930 C925 1.363 . S
C930 C929 1.415 . S
C931 H907 0.951 . S
C931 C932 1.366 . S
C931 C933 1.388 . S
C932 C931 1.366 . S
C932 C936 1.385 . S
C933 H908 0.951 . S
C933 C931 1.388 . S
C933 C934 1.366 . S
C934 C933 1.366 . S
C934 C935 1.414 . S
C934 C937 1.499 . S
C935 H909 0.950 . S
C935 C934 1.414 . S
C935 C936 1.374 . S
C936 H910 0.950 . S
C936 C932 1.385 . S
C936 C935 1.374 . S
C937 C934 1.499 . S
C937 C938 1.373 . S
C937 C939 1.389 . S
C938 H911 0.950 . S
C938 C924 1.377 . S
C938 C937 1.373 . S
C939 C923 1.377 . S
C939 C937 1.389 . S
C939 C940 1.524 . S
C940 C939 1.524 . S
C940 C941 1.397 . S
C940 C945 1.363 . S
C941 H912 0.950 . S
C941 C940 1.397 . S
C941 C942 1.334 . S
C942 H913 0.950 . S
C942 C941 1.334 . S
C942 C943 1.287 . S
C943 C942 1.287 . S
C943 C944 1.524 . S
C943 H946 0.999 . S
C944 H914 0.950 . S
C944 C943 1.524 . S
C944 C945 1.415 . S
C945 H915 0.950 . S
C945 C940 1.363 . S
C945 C944 1.415 . S
H946 C943 0.999 . S
H947 C928 0.913 . S
H948 C966 0.951 . S
H949 C968 0.951 . S
H950 C970 0.950 . S
H951 C971 0.950 . S
H952 C973 0.950 . S
H953 C976 0.950 . S
H954 C977 0.950 . S
H955 C979 0.950 . S
H956 C980 0.950 . S
H957 C981 0.951 . S
H958 C983 0.951 . S
H959 C985 0.950 . S
H960 C986 0.950 . S
H961 C988 0.950 . S
H962 C991 0.950 . S
H963 C992 0.950 . S
H964 C994 0.950 . S
H965 C995 0.950 . S
C966 H948 0.951 . S
C966 C967 1.366 . S
C966 C968 1.388 . S
C967 C966 1.366 . S
C967 C971 1.385 . S
C968 H949 0.951 . S
C968 C966 1.388 . S
C968 C969 1.366 . S
C969 C968 1.366 . S
C969 C970 1.414 . S
C969 C972 1.499 . S
C970 H950 0.950 . S
C970 C969 1.414 . S
C970 C971 1.374 . S
C971 H951 0.950 . S
C971 C967 1.385 . S
C971 C970 1.374 . S
C972 C969 1.499 . S
C972 C973 1.373 . S
C972 C974 1.389 . S
C973 H952 0.950 . S
C973 C972 1.373 . S
C973 C989 1.377 . S
C974 C972 1.389 . S
C974 C975 1.524 . S
C974 C988 1.377 . S
C975 C974 1.524 . S
C975 C976 1.397 . S
C975 C980 1.363 . S
C976 H953 0.950 . S
C976 C975 1.397 . S
C976 C977 1.334 . S
C977 H954 0.950 . S
C977 C976 1.334 . S
C977 C978 1.287 . S
C978 C977 1.287 . S
C978 C979 1.524 . S
C978 H997 0.913 . S
C979 H955 0.950 . S
C979 C978 1.524 . S
C979 C980 1.415 . S
C980 H956 0.950 . S
C980 C975 1.363 . S
C980 C979 1.415 . S
C981 H957 0.951 . S
C981 C982 1.366 . S
C981 C983 1.388 . S
C982 C981 1.366 . S
C982 C986 1.385 . S
C983 H958 0.951 . S
C983 C981 1.388 . S
C983 C984 1.366 . S
C984 C983 1.366 . S
C984 C985 1.414 . S
C984 C987 1.499 . S
C985 H959 0.950 . S
C985 C984 1.414 . S
C985 C986 1.374 . S
C986 H960 0.950 . S
C986 C982 1.385 . S
C986 C985 1.374 . S
C987 C984 1.499 . S
C987 C988 1.373 . S
C987 C989 1.389 . S
C988 H961 0.950 . S
C988 C974 1.377 . S
C988 C987 1.373 . S
C989 C973 1.377 . S
C989 C987 1.389 . S
C989 C990 1.524 . S
C990 C989 1.524 . S
C990 C991 1.397 . S
C990 C995 1.363 . S
C991 H962 0.950 . S
C991 C990 1.397 . S
C991 C992 1.334 . S
C992 H963 0.950 . S
C992 C991 1.334 . S
C992 C993 1.287 . S
C993 C992 1.287 . S
C993 C994 1.524 . S
C993 H996 0.999 . S
C994 H964 0.950 . S
C994 C993 1.524 . S
C994 C995 1.415 . S
C995 H965 0.950 . S
C995 C990 1.363 . S
C995 C994 1.415 . S
H996 C993 0.999 . S
H997 C978 0.913 . S
H998 C1016 0.951 . S
H999 C1018 0.951 . S
H1000 C1020 0.950 . S
H1001 C1021 0.950 . S
H1002 C1023 0.950 . S
H1003 C1026 0.950 . S
H1004 C1027 0.950 . S
H1005 C1029 0.950 . S
H1006 C1030 0.950 . S
H1007 C1031 0.951 . S
H1008 C1033 0.951 . S
H1009 C1035 0.950 . S
H1010 C1036 0.950 . S
H1011 C1038 0.950 . S
H1012 C1041 0.950 . S
H1013 C1042 0.950 . S
H1014 C1044 0.950 . S
H1015 C1045 0.950 . S
C1016 H998 0.951 . S
C1016 C1017 1.366 . S
C1016 C1018 1.388 . S
C1017 C1016 1.366 . S
C1017 C1021 1.385 . S
C1018 H999 0.951 . S
C1018 C1016 1.388 . S
C1018 C1019 1.366 . S
C1019 C1018 1.366 . S
C1019 C1020 1.414 . S
C1019 C1022 1.499 . S
C1020 H1000 0.950 . S
C1020 C1019 1.414 . S
C1020 C1021 1.374 . S
C1021 H1001 0.950 . S
C1021 C1017 1.385 . S
C1021 C1020 1.374 . S
C1022 C1019 1.499 . S
C1022 C1023 1.373 . S
C1022 C1024 1.389 . S
C1023 H1002 0.950 . S
C1023 C1022 1.373 . S
C1023 C1039 1.377 . S
C1024 C1022 1.389 . S
C1024 C1025 1.524 . S
C1024 C1038 1.377 . S
C1025 C1024 1.524 . S
C1025 C1026 1.397 . S
C1025 C1030 1.363 . S
C1026 H1003 0.950 . S
C1026 C1025 1.397 . S
C1026 C1027 1.334 . S
C1027 H1004 0.950 . S
C1027 C1026 1.334 . S
C1027 C1028 1.287 . S
C1028 C1027 1.287 . S
C1028 C1029 1.524 . S
C1028 H1047 0.913 . S
C1029 H1005 0.950 . S
C1029 C1028 1.524 . S
C1029 C1030 1.415 . S
C1030 H1006 0.950 . S
C1030 C1025 1.363 . S
C1030 C1029 1.415 . S
C1031 H1007 0.951 . S
C1031 C1032 1.366 . S
C1031 C1033 1.388 . S
C1032 C1031 1.366 . S
C1032 C1036 1.385 . S
C1033 H1008 0.951 . S
C1033 C1031 1.388 . S
C1033 C1034 1.366 . S
C1034 C1033 1.366 . S
C1034 C1035 1.414 . S
C1034 C1037 1.499 . S
C1035 H1009 0.950 . S
C1035 C1034 1.414 . S
C1035 C1036 1.374 . S
C1036 H1010 0.950 . S
C1036 C1032 1.385 . S
C1036 C1035 1.374 . S
C1037 C1034 1.499 . S
C1037 C1038 1.373 . S
C1037 C1039 1.389 . S
C1038 H1011 0.950 . S
C1038 C1024 1.377 . S
C1038 C1037 1.373 . S
C1039 C1023 1.377 . S
C1039 C1037 1.389 . S
C1039 C1040 1.524 . S
C1040 C1039 1.524 . S
C1040 C1041 1.397 . S
C1040 C1045 1.363 . S
C1041 H1012 0.950 . S
C1041 C1040 1.397 . S
C1041 C1042 1.334 . S
C1042 H1013 0.950 . S
C1042 C1041 1.334 . S
C1042 C1043 1.287 . S
C1043 C1042 1.287 . S
C1043 C1044 1.524 . S
C1043 H1046 0.999 . S
C1044 H1014 0.950 . S
C1044 C1043 1.524 . S
C1044 C1045 1.415 . S
C1045 H1015 0.950 . S
C1045 C1040 1.363 . S
C1045 C1044 1.415 . S
H1046 C1043 0.999 . S
H1047 C1028 0.913 . S
H1048 C1066 0.951 . S
H1049 C1068 0.951 . S
H1050 C1070 0.950 . S
H1051 C1071 0.950 . S
H1052 C1073 0.950 . S
H1053 C1076 0.950 . S
H1054 C1077 0.950 . S
H1055 C1079 0.950 . S
H1056 C1080 0.950 . S
H1057 C1081 0.951 . S
H1058 C1083 0.951 . S
H1059 C1085 0.950 . S
H1060 C1086 0.950 . S
H1061 C1088 0.950 . S
H1062 C1091 0.950 . S
H1063 C1092 0.950 . S
H1064 C1094 0.950 . S
H1065 C1095 0.950 . S
C1066 H1048 0.951 . S
C1066 C1067 1.366 . S
C1066 C1068 1.388 . S
C1067 C1066 1.366 . S
C1067 C1071 1.385 . S
C1068 H1049 0.951 . S
C1068 C1066 1.388 . S
C1068 C1069 1.366 . S
C1069 C1068 1.366 . S
C1069 C1070 1.414 . S
C1069 C1072 1.499 . S
C1070 H1050 0.950 . S
C1070 C1069 1.414 . S
C1070 C1071 1.374 . S
C1071 H1051 0.950 . S
C1071 C1067 1.385 . S
C1071 C1070 1.374 . S
C1072 C1069 1.499 . S
C1072 C1073 1.373 . S
C1072 C1074 1.389 . S
C1073 H1052 0.950 . S
C1073 C1072 1.373 . S
C1073 C1089 1.377 . S
C1074 C1072 1.389 . S
C1074 C1075 1.524 . S
C1074 C1088 1.377 . S
C1075 C1074 1.524 . S
C1075 C1076 1.397 . S
C1075 C1080 1.363 . S
C1076 H1053 0.950 . S
C1076 C1075 1.397 . S
C1076 C1077 1.334 . S
C1077 H1054 0.950 . S
C1077 C1076 1.334 . S
C1077 C1078 1.287 . S
C1078 C1077 1.287 . S
C1078 C1079 1.524 . S
C1078 H1097 0.913 . S
C1079 H1055 0.950 . S
C1079 C1078 1.524 . S
C1079 C1080 1.415 . S
C1080 H1056 0.950 . S
C1080 C1075 1.363 . S
C1080 C1079 1.415 . S
C1081 H1057 0.951 . S
C1081 C1082 1.366 . S
C1081 C1083 1.388 . S
C1082 C1081 1.366 . S
C1082 C1086 1.385 . S
C1083 H1058 0.951 . S
C1083 C1081 1.388 . S
C1083 C1084 1.366 . S
C1084 C1083 1.366 . S
C1084 C1085 1.414 . S
C1084 C1087 1.499 . S
C1085 H1059 0.950 . S
C1085 C1084 1.414 . S
C1085 C1086 1.374 . S
C1086 H1060 0.950 . S
C1086 C1082 1.385 . S
C1086 C1085 1.374 . S
C1087 C1084 1.499 . S
C1087 C1088 1.373 . S
C1087 C1089 1.389 . S
C1088 H1061 0.950 . S
C1088 C1074 1.377 . S
C1088 C1087 1.373 . S
C1089 C1073 1.377 . S
C1089 C1087 1.389 . S
C1089 C1090 1.524 . S
C1090 C1089 1.524 . S
C1090 C1091 1.397 . S
C1090 C1095 1.363 . S
C1091 H1062 0.950 . S
C1091 C1090 1.397 . S
C1091 C1092 1.334 . S
C1092 H1063 0.950 . S
C1092 C1091 1.334 . S
C1092 C1093 1.287 . S
C1093 C1092 1.287 . S
C1093 C1094 1.524 . S
C1093 H1096 0.999 . S
C1094 H1064 0.950 . S
C1094 C1093 1.524 . S
C1094 C1095 1.415 . S
C1095 H1065 0.950 . S
C1095 C1090 1.363 . S
C1095 C1094 1.415 . S
H1096 C1093 0.999 . S
H1097 C1078 0.913 . S
H1098 C1116 0.951 . S
H1099 C1118 0.951 . S
H1100 C1120 0.950 . S
H1101 C1121 0.950 . S
H1102 C1123 0.950 . S
H1103 C1126 0.950 . S
H1104 C1127 0.950 . S
H1105 C1129 0.950 . S
H1106 C1130 0.950 . S
H1107 C1131 0.951 . S
H1108 C1133 0.951 . S
H1109 C1135 0.950 . S
H1110 C1136 0.950 . S
H1111 C1138 0.950 . S
H1112 C1141 0.950 . S
H1113 C1142 0.950 . S
H1114 C1144 0.950 . S
H1115 C1145 0.950 . S
C1116 H1098 0.951 . S
C1116 C1117 1.366 . S
C1116 C1118 1.388 . S
C1117 C1116 1.366 . S
C1117 C1121 1.385 . S
C1118 H1099 0.951 . S
C1118 C1116 1.388 . S
C1118 C1119 1.366 . S
C1119 C1118 1.366 . S
C1119 C1120 1.414 . S
C1119 C1122 1.499 . S
C1120 H1100 0.950 . S
C1120 C1119 1.414 . S
C1120 C1121 1.374 . S
C1121 H1101 0.950 . S
C1121 C1117 1.385 . S
C1121 C1120 1.374 . S
C1122 C1119 1.499 . S
C1122 C1123 1.373 . S
C1122 C1124 1.389 . S
C1123 H1102 0.950 . S
C1123 C1122 1.373 . S
C1123 C1139 1.377 . S
C1124 C1122 1.389 . S
C1124 C1125 1.524 . S
C1124 C1138 1.377 . S
C1125 C1124 1.524 . S
C1125 C1126 1.397 . S
C1125 C1130 1.363 . S
C1126 H1103 0.950 . S
C1126 C1125 1.397 . S
C1126 C1127 1.334 . S
C1127 H1104 0.950 . S
C1127 C1126 1.334 . S
C1127 C1128 1.287 . S
C1128 C1127 1.287 . S
C1128 C1129 1.524 . S
C1128 H1147 0.913 . S
C1129 H1105 0.950 . S
C1129 C1128 1.524 . S
C1129 C1130 1.415 . S
C1130 H1106 0.950 . S
C1130 C1125 1.363 . S
C1130 C1129 1.415 . S
C1131 H1107 0.951 . S
C1131 C1132 1.366 . S
C1131 C1133 1.388 . S
C1132 C1131 1.366 . S
C1132 C1136 1.385 . S
C1133 H1108 0.951 . S
C1133 C1131 1.388 . S
C1133 C1134 1.366 . S
C1134 C1133 1.366 . S
C1134 C1135 1.414 . S
C1134 C1137 1.499 . S
C1135 H1109 0.950 . S
C1135 C1134 1.414 . S
C1135 C1136 1.374 . S
C1136 H1110 0.950 . S
C1136 C1132 1.385 . S
C1136 C1135 1.374 . S
C1137 C1134 1.499 . S
C1137 C1138 1.373 . S
C1137 C1139 1.389 . S
C1138 H1111 0.950 . S
C1138 C1124 1.377 . S
C1138 C1137 1.373 . S
C1139 C1123 1.377 . S
C1139 C1137 1.389 . S
C1139 C1140 1.524 . S
C1140 C1139 1.524 . S
C1140 C1141 1.397 . S
C1140 C1145 1.363 . S
C1141 H1112 0.950 . S
C1141 C1140 1.397 . S
C1141 C1142 1.334 . S
C1142 H1113 0.950 . S
C1142 C1141 1.334 . S
C1142 C1143 1.287 . S
C1143 C1142 1.287 . S
C1143 C1144 1.524 . S
C1143 H1146 0.999 . S
C1144 H1114 0.950 . S
C1144 C1143 1.524 . S
C1144 C1145 1.415 . S
C1145 H1115 0.950 . S
C1145 C1140 1.363 . S
C1145 C1144 1.415 . S
H1146 C1143 0.999 . S
H1147 C1128 0.913 . S
H1148 C1166 0.951 . S
H1149 C1168 0.951 . S
H1150 C1170 0.950 . S
H1151 C1171 0.950 . S
H1152 C1173 0.950 . S
H1153 C1176 0.950 . S
H1154 C1177 0.950 . S
H1155 C1179 0.950 . S
H1156 C1180 0.950 . S
H1157 C1181 0.951 . S
H1158 C1183 0.951 . S
H1159 C1185 0.950 . S
H1160 C1186 0.950 . S
H1161 C1188 0.950 . S
H1162 C1191 0.950 . S
H1163 C1192 0.950 . S
H1164 C1194 0.950 . S
H1165 C1195 0.950 . S
C1166 H1148 0.951 . S
C1166 C1167 1.366 . S
C1166 C1168 1.388 . S
C1167 C1166 1.366 . S
C1167 C1171 1.385 . S
C1168 H1149 0.951 . S
C1168 C1166 1.388 . S
C1168 C1169 1.366 . S
C1169 C1168 1.366 . S
C1169 C1170 1.414 . S
C1169 C1172 1.499 . S
C1170 H1150 0.950 . S
C1170 C1169 1.414 . S
C1170 C1171 1.374 . S
C1171 H1151 0.950 . S
C1171 C1167 1.385 . S
C1171 C1170 1.374 . S
C1172 C1169 1.499 . S
C1172 C1173 1.373 . S
C1172 C1174 1.389 . S
C1173 H1152 0.950 . S
C1173 C1172 1.373 . S
C1173 C1189 1.377 . S
C1174 C1172 1.389 . S
C1174 C1175 1.524 . S
C1174 C1188 1.377 . S
C1175 C1174 1.524 . S
C1175 C1176 1.397 . S
C1175 C1180 1.363 . S
C1176 H1153 0.950 . S
C1176 C1175 1.397 . S
C1176 C1177 1.334 . S
C1177 H1154 0.950 . S
C1177 C1176 1.334 . S
C1177 C1178 1.287 . S
C1178 C1177 1.287 . S
C1178 C1179 1.524 . S
C1178 H1197 0.913 . S
C1179 H1155 0.950 . S
C1179 C1178 1.524 . S
C1179 C1180 1.415 . S
C1180 H1156 0.950 . S
C1180 C1175 1.363 . S
C1180 C1179 1.415 . S
C1181 H1157 0.951 . S
C1181 C1182 1.366 . S
C1181 C1183 1.388 . S
C1182 C1181 1.366 . S
C1182 C1186 1.385 . S
C1183 H1158 0.951 . S
C1183 C1181 1.388 . S
C1183 C1184 1.366 . S
C1184 C1183 1.366 . S
C1184 C1185 1.414 . S
C1184 C1187 1.499 . S
C1185 H1159 0.950 . S
C1185 C1184 1.414 . S
C1185 C1186 1.374 . S
C1186 H1160 0.950 . S
C1186 C1182 1.385 . S
C1186 C1185 1.374 . S
C1187 C1184 1.499 . S
C1187 C1188 1.373 . S
C1187 C1189 1.389 . S
C1188 H1161 0.950 . S
C1188 C1174 1.377 . S
C1188 C1187 1.373 . S
C1189 C1173 1.377 . S
C1189 C1187 1.389 . S
C1189 C1190 1.524 . S
C1190 C1189 1.524 . S
C1190 C1191 1.397 . S
C1190 C1195 1.363 . S
C1191 H1162 0.950 . S
C1191 C1190 1.397 . S
C1191 C1192 1.334 . S
C1192 H1163 0.950 . S
C1192 C1191 1.334 . S
C1192 C1193 1.287 . S
C1193 C1192 1.287 . S
C1193 C1194 1.524 . S
C1193 H1196 0.999 . S
C1194 H1164 0.950 . S
C1194 C1193 1.524 . S
C1194 C1195 1.415 . S
C1195 H1165 0.950 . S
C1195 C1190 1.363 . S
C1195 C1194 1.415 . S
H1196 C1193 0.999 . S
H1197 C1178 0.913 . S
H1198 C1216 0.951 . S
H1199 C1218 0.951 . S
H1200 C1220 0.950 . S
H1201 C1221 0.950 . S
H1202 C1223 0.950 . S
H1203 C1226 0.950 . S
H1204 C1227 0.950 . S
H1205 C1229 0.950 . S
H1206 C1230 0.950 . S
H1207 C1231 0.951 . S
H1208 C1233 0.951 . S
H1209 C1235 0.950 . S
H1210 C1236 0.950 . S
H1211 C1238 0.950 . S
H1212 C1241 0.950 . S
H1213 C1242 0.950 . S
H1214 C1244 0.950 . S
H1215 C1245 0.950 . S
C1216 H1198 0.951 . S
C1216 C1217 1.366 . S
C1216 C1218 1.388 . S
C1217 C1216 1.366 . S
C1217 C1221 1.385 . S
C1218 H1199 0.951 . S
C1218 C1216 1.388 . S
C1218 C1219 1.366 . S
C1219 C1218 1.366 . S
C1219 C1220 1.414 . S
C1219 C1222 1.499 . S
C1220 H1200 0.950 . S
C1220 C1219 1.414 . S
C1220 C1221 1.374 . S
C1221 H1201 0.950 . S
C1221 C1217 1.385 . S
C1221 C1220 1.374 . S
C1222 C1219 1.499 . S
C1222 C1223 1.373 . S
C1222 C1224 1.389 . S
C1223 H1202 0.950 . S
C1223 C1222 1.373 . S
C1223 C1239 1.377 . S
C1224 C1222 1.389 . S
C1224 C1225 1.524 . S
C1224 C1238 1.377 . S
C1225 C1224 1.524 . S
C1225 C1226 1.397 . S
C1225 C1230 1.363 . S
C1226 H1203 0.950 . S
C1226 C1225 1.397 . S
C1226 C1227 1.334 . S
C1227 H1204 0.950 . S
C1227 C1226 1.334 . S
C1227 C1228 1.287 . S
C1228 C1227 1.287 . S
C1228 C1229 1.524 . S
C1228 H1247 0.913 . S
C1229 H1205 0.950 . S
C1229 C1228 1.524 . S
C1229 C1230 1.415 . S
C1230 H1206 0.950 . S
C1230 C1225 1.363 . S
C1230 C1229 1.415 . S
C1231 H1207 0.951 . S
C1231 C1232 1.366 . S
C1231 C1233 1.388 . S
C1232 C1231 1.366 . S
C1232 C1236 1.385 . S
C1233 H1208 0.951 . S
C1233 C1231 1.388 . S
C1233 C1234 1.366 . S
C1234 C1233 1.366 . S
C1234 C1235 1.414 . S
C1234 C1237 1.499 . S
C1235 H1209 0.950 . S
C1235 C1234 1.414 . S
C1235 C1236 1.374 . S
C1236 H1210 0.950 . S
C1236 C1232 1.385 . S
C1236 C1235 1.374 . S
C1237 C1234 1.499 . S
C1237 C1238 1.373 . S
C1237 C1239 1.389 . S
C1238 H1211 0.950 . S
C1238 C1224 1.377 . S
C1238 C1237 1.373 . S
C1239 C1223 1.377 . S
C1239 C1237 1.389 . S
C1239 C1240 1.524 . S
C1240 C1239 1.524 . S
C1240 C1241 1.397 . S
C1240 C1245 1.363 . S
C1241 H1212 0.950 . S
C1241 C1240 1.397 . S
C1241 C1242 1.334 . S
C1242 H1213 0.950 . S
C1242 C1241 1.334 . S
C1242 C1243 1.287 . S
C1243 C1242 1.287 . S
C1243 C1244 1.524 . S
C1243 H1246 0.999 . S
C1244 H1214 0.950 . S
C1244 C1243 1.524 . S
C1244 C1245 1.415 . S
C1245 H1215 0.950 . S
C1245 C1240 1.363 . S
C1245 C1244 1.415 . S
H1246 C1243 0.999 . S
H1247 C1228 0.913 . S
H1248 C1266 0.951 . S
H1249 C1268 0.951 . S
H1250 C1270 0.950 . S
H1251 C1271 0.950 . S
H1252 C1273 0.965 . S
H1253 C1276 0.950 . S
H1254 C1277 0.950 . S
H1255 C1279 0.950 . S
H1256 C1280 0.950 . S
H1257 C1281 0.951 . S
H1258 C1283 0.951 . S
H1259 C1285 0.950 . S
H1260 C1286 0.950 . S
H1261 C1288 0.965 . S
H1262 C1291 0.950 . S
H1263 C1292 0.950 . S
H1264 C1294 0.950 . S
H1265 C1295 0.950 . S
C1266 H1248 0.951 . S
C1266 C1267 1.366 . S
C1266 C1268 1.388 . S
C1267 C1266 1.366 . S
C1267 C1271 1.385 . S
C1268 H1249 0.951 . S
C1268 C1266 1.388 . S
C1268 C1269 1.366 . S
C1269 C1268 1.366 . S
C1269 C1270 1.414 . S
C1269 C1272 1.499 . S
C1270 H1250 0.950 . S
C1270 C1269 1.414 . S
C1270 C1271 1.374 . S
C1271 H1251 0.950 . S
C1271 C1267 1.385 . S
C1271 C1270 1.374 . S
C1272 C1269 1.499 . S
C1272 C1273 1.453 . S
C1272 C1274 1.389 . S
C1273 H1252 0.965 . S
C1273 C1272 1.453 . S
C1273 C1289 1.293 1_565 S
C1274 C1272 1.389 . S
C1274 C1275 1.524 . S
C1274 C1288 1.293 1_565 S
C1275 C1274 1.524 . S
C1275 C1276 1.397 . S
C1275 C1280 1.363 . S
C1276 H1253 0.950 . S
C1276 C1275 1.397 . S
C1276 C1277 1.334 . S
C1277 H1254 0.950 . S
C1277 C1276 1.334 . S
C1277 C1278 1.287 . S
C1278 C1277 1.287 . S
C1278 C1279 1.524 . S
C1278 H1297 0.913 . S
C1279 H1255 0.950 . S
C1279 C1278 1.524 . S
C1279 C1280 1.415 . S
C1280 H1256 0.950 . S
C1280 C1275 1.363 . S
C1280 C1279 1.415 . S
C1281 H1257 0.951 . S
C1281 C1282 1.366 . S
C1281 C1283 1.388 . S
C1282 C1281 1.366 . S
C1282 C1286 1.385 . S
C1283 H1258 0.951 . S
C1283 C1281 1.388 . S
C1283 C1284 1.366 . S
C1284 C1283 1.366 . S
C1284 C1285 1.414 . S
C1284 C1287 1.499 . S
C1285 H1259 0.950 . S
C1285 C1284 1.414 . S
C1285 C1286 1.374 . S
C1286 H1260 0.950 . S
C1286 C1282 1.385 . S
C1286 C1285 1.374 . S
C1287 C1284 1.499 . S
C1287 C1288 1.453 . S
C1287 C1289 1.389 . S
C1288 H1261 0.965 . S
C1288 C1274 1.293 1_545 S
C1288 C1287 1.453 . S
C1289 C1273 1.293 1_545 S
C1289 C1287 1.389 . S
C1289 C1290 1.524 . S
C1290 C1289 1.524 . S
C1290 C1291 1.397 . S
C1290 C1295 1.363 . S
C1291 H1262 0.950 . S
C1291 C1290 1.397 . S
C1291 C1292 1.334 . S
C1292 H1263 0.950 . S
C1292 C1291 1.334 . S
C1292 C1293 1.287 . S
C1293 C1292 1.287 . S
C1293 C1294 1.524 . S
C1293 H1296 0.999 . S
C1294 H1264 0.950 . S
C1294 C1293 1.524 . S
C1294 C1295 1.415 . S
C1295 H1265 0.950 . S
C1295 C1290 1.363 . S
C1295 C1294 1.415 . S
H1296 C1293 0.999 . S
H1297 C1278 0.913 . S
H1298 C1316 0.951 . S
H1299 C1318 0.951 . S
H1300 C1320 0.950 . S
H1301 C1321 0.950 . S
H1302 C1323 0.950 . S
H1303 C1326 0.950 . S
H1304 C1327 0.950 . S
H1305 C1329 0.950 . S
H1306 C1330 0.950 . S
H1307 C1331 0.951 . S
H1308 C1333 0.951 . S
H1309 C1335 0.950 . S
H1310 C1336 0.950 . S
H1311 C1338 0.950 . S
H1312 C1341 0.950 . S
H1313 C1342 0.950 . S
H1314 C1344 0.950 . S
H1315 C1345 0.950 . S
C1316 H1298 0.951 . S
C1316 C1317 1.366 . S
C1316 C1318 1.388 . S
C1317 C1316 1.366 . S
C1317 C1321 1.385 . S
C1318 H1299 0.951 . S
C1318 C1316 1.388 . S
C1318 C1319 1.366 . S
C1319 C1318 1.366 . S
C1319 C1320 1.414 . S
C1319 C1322 1.499 . S
C1320 H1300 0.950 . S
C1320 C1319 1.414 . S
C1320 C1321 1.374 . S
C1321 H1301 0.950 . S
C1321 C1317 1.385 . S
C1321 C1320 1.374 . S
C1322 C1319 1.499 . S
C1322 C1323 1.373 . S
C1322 C1324 1.389 1_655 S
C1323 H1302 0.950 . S
C1323 C1322 1.373 . S
C1323 C1339 1.377 . S
C1324 C1322 1.389 1_455 S
C1324 C1325 1.524 . S
C1324 C1338 1.377 . S
C1325 C1324 1.524 . S
C1325 C1326 1.397 . S
C1325 C1330 1.363 . S
C1326 H1303 0.950 . S
C1326 C1325 1.397 . S
C1326 C1327 1.334 . S
C1327 H1304 0.950 . S
C1327 C1326 1.334 . S
C1327 C1328 1.287 . S
C1328 C1327 1.287 . S
C1328 C1329 1.524 . S
C1328 H1347 0.913 . S
C1329 H1305 0.950 . S
C1329 C1328 1.524 . S
C1329 C1330 1.415 . S
C1330 H1306 0.950 . S
C1330 C1325 1.363 . S
C1330 C1329 1.415 . S
C1331 H1307 0.951 . S
C1331 C1332 1.366 . S
C1331 C1333 1.388 . S
C1332 C1331 1.366 . S
C1332 C1336 1.385 . S
C1333 H1308 0.951 . S
C1333 C1331 1.388 . S
C1333 C1334 1.366 . S
C1334 C1333 1.366 . S
C1334 C1335 1.414 . S
C1334 C1337 1.499 . S
C1335 H1309 0.950 . S
C1335 C1334 1.414 . S
C1335 C1336 1.374 . S
C1336 H1310 0.950 . S
C1336 C1332 1.385 . S
C1336 C1335 1.374 . S
C1337 C1334 1.499 . S
C1337 C1338 1.373 . S
C1337 C1339 1.389 1_455 S
C1338 H1311 0.950 . S
C1338 C1324 1.377 . S
C1338 C1337 1.373 . S
C1339 C1323 1.377 . S
C1339 C1337 1.389 1_655 S
C1339 C1340 1.524 . S
C1340 C1339 1.524 . S
C1340 C1341 1.397 . S
C1340 C1345 1.363 . S
C1341 H1312 0.950 . S
C1341 C1340 1.397 . S
C1341 C1342 1.334 . S
C1342 H1313 0.950 . S
C1342 C1341 1.334 . S
C1342 C1343 1.287 . S
C1343 C1342 1.287 . S
C1343 C1344 1.524 . S
C1343 H1346 0.999 . S
C1344 H1314 0.950 . S
C1344 C1343 1.524 . S
C1344 C1345 1.415 . S
C1345 H1315 0.950 . S
C1345 C1340 1.363 . S
C1345 C1344 1.415 . S
H1346 C1343 0.999 . S
H1347 C1328 0.913 . S
H1348 C1366 0.951 . S
H1349 C1368 0.951 . S
H1350 C1370 0.950 . S
H1351 C1371 0.950 1_554 S
H1352 C1373 0.950 . S
H1353 C1376 0.950 1_554 S
H1354 C1377 0.950 . S
H1355 C1379 0.950 . S
H1356 C1380 0.950 . S
H1357 C1381 0.951 . S
H1358 C1383 0.951 . S
H1359 C1385 0.950 . S
H1360 C1386 0.950 1_556 S
H1361 C1388 0.950 . S
H1362 C1391 0.950 1_556 S
H1363 C1392 0.950 . S
H1364 C1394 0.950 . S
H1365 C1395 0.950 . S
C1366 H1348 0.951 . S
C1366 C1367 1.366 . S
C1366 C1368 1.388 . S
C1367 C1366 1.366 . S
C1367 C1371 1.385 . S
C1368 H1349 0.951 . S
C1368 C1366 1.388 . S
C1368 C1369 1.366 . S
C1369 C1368 1.366 . S
C1369 C1370 1.414 1_556 S
C1369 C1372 1.499 . S
C1370 H1350 0.950 . S
C1370 C1369 1.414 1_554 S
C1370 C1371 1.374 1_554 S
C1371 H1351 0.950 1_556 S
C1371 C1367 1.385 . S
C1371 C1370 1.374 1_556 S
C1372 C1369 1.499 . S
C1372 C1373 1.373 1_556 S
C1372 C1374 1.389 . S
C1373 H1352 0.950 . S
C1373 C1372 1.373 1_554 S
C1373 C1389 1.377 . S
C1374 C1372 1.389 . S
C1374 C1375 1.524 . S
C1374 C1388 1.377 . S
C1375 C1374 1.524 . S
C1375 C1376 1.397 . S
C1375 C1380 1.363 . S
C1376 H1353 0.950 1_556 S
C1376 C1375 1.397 . S
C1376 C1377 1.334 . S
C1377 H1354 0.950 . S
C1377 C1376 1.334 . S
C1377 C1378 1.287 . S
C1378 C1377 1.287 . S
C1378 C1379 1.524 . S
C1378 H1397 0.913 . S
C1379 H1355 0.950 . S
C1379 C1378 1.524 . S
C1379 C1380 1.415 . S
C1380 H1356 0.950 . S
C1380 C1375 1.363 . S
C1380 C1379 1.415 . S
C1381 H1357 0.951 . S
C1381 C1382 1.366 . S
C1381 C1383 1.388 . S
C1382 C1381 1.366 . S
C1382 C1386 1.385 . S
C1383 H1358 0.951 . S
C1383 C1381 1.388 . S
C1383 C1384 1.366 . S
C1384 C1383 1.366 . S
C1384 C1385 1.414 1_554 S
C1384 C1387 1.499 . S
C1385 H1359 0.950 . S
C1385 C1384 1.414 1_556 S
C1385 C1386 1.374 1_556 S
C1386 H1360 0.950 1_554 S
C1386 C1382 1.385 . S
C1386 C1385 1.374 1_554 S
C1387 C1384 1.499 . S
C1387 C1388 1.373 1_554 S
C1387 C1389 1.389 . S
C1388 H1361 0.950 . S
C1388 C1374 1.377 . S
C1388 C1387 1.373 1_556 S
C1389 C1373 1.377 . S
C1389 C1387 1.389 . S
C1389 C1390 1.524 . S
C1390 C1389 1.524 . S
C1390 C1391 1.397 . S
C1390 C1395 1.363 . S
C1391 H1362 0.950 1_554 S
C1391 C1390 1.397 . S
C1391 C1392 1.334 . S
C1392 H1363 0.950 . S
C1392 C1391 1.334 . S
C1392 C1393 1.287 . S
C1393 C1392 1.287 . S
C1393 C1394 1.524 . S
C1393 H1396 0.999 . S
C1394 H1364 0.950 . S
C1394 C1393 1.524 . S
C1394 C1395 1.415 . S
C1395 H1365 0.950 . S
C1395 C1390 1.363 . S
C1395 C1394 1.415 . S
H1396 C1393 0.999 . S
H1397 C1378 0.913 . S
H1398 C1416 0.951 . S
H1399 C1418 0.951 1_554 S
H1400 C1420 0.950 . S
H1401 C1421 0.950 . S
H1402 C1423 0.950 . S
H1403 C1426 0.950 . S
H1404 C1427 0.950 . S
H1405 C1429 0.950 1_655 S
H1406 C1430 0.950 . S
H1407 C1431 0.951 . S
H1408 C1433 0.951 1_556 S
H1409 C1435 0.950 . S
H1410 C1436 0.950 . S
H1411 C1438 0.950 . S
H1412 C1441 0.950 . S
H1413 C1442 0.950 . S
H1414 C1444 0.950 1_455 S
H1415 C1445 0.950 . S
C1416 H1398 0.951 . S
C1416 C1417 1.366 . S
C1416 C1418 1.388 . S
C1417 C1416 1.366 . S
C1417 C1421 1.385 . S
C1418 H1399 0.951 1_556 S
C1418 C1416 1.388 . S
C1418 C1419 1.366 . S
C1419 C1418 1.366 . S
C1419 C1420 1.414 . S
C1419 C1422 1.499 . S
C1420 H1400 0.950 . S
C1420 C1419 1.414 . S
C1420 C1421 1.374 . S
C1421 H1401 0.950 . S
C1421 C1417 1.385 . S
C1421 C1420 1.374 . S
C1422 C1419 1.499 . S
C1422 C1423 1.373 . S
C1422 C1424 1.389 1_556 S
C1423 H1402 0.950 . S
C1423 C1422 1.373 . S
C1423 C1439 1.377 1_445 S
C1424 C1422 1.389 1_554 S
C1424 C1425 1.524 . S
C1424 C1438 1.377 1_445 S
C1425 C1424 1.524 . S
C1425 C1426 1.397 . S
C1425 C1430 1.363 1_455 S
C1426 H1403 0.950 . S
C1426 C1425 1.397 . S
C1426 C1427 1.334 . S
C1427 H1404 0.950 . S
C1427 C1426 1.334 . S
C1427 C1428 1.287 . S
C1428 C1427 1.287 . S
C1428 C1429 1.524 . S
C1428 H1447 0.913 . S
C1429 H1405 0.950 1_455 S
C1429 C1428 1.524 . S
C1429 C1430 1.415 1_455 S
C1430 H1406 0.950 . S
C1430 C1425 1.363 1_655 S
C1430 C1429 1.415 1_655 S
C1431 H1407 0.951 . S
C1431 C1432 1.366 . S
C1431 C1433 1.388 . S
C1432 C1431 1.366 . S
C1432 C1436 1.385 . S
C1433 H1408 0.951 1_554 S
C1433 C1431 1.388 . S
C1433 C1434 1.366 . S
C1434 C1433 1.366 . S
C1434 C1435 1.414 . S
C1434 C1437 1.499 . S
C1435 H1409 0.950 . S
C1435 C1434 1.414 . S
C1435 C1436 1.374 . S
C1436 H1410 0.950 . S
C1436 C1432 1.385 . S
C1436 C1435 1.374 . S
C1437 C1434 1.499 . S
C1437 C1438 1.373 . S
C1437 C1439 1.389 1_554 S
C1438 H1411 0.950 . S
C1438 C1424 1.377 1_665 S
C1438 C1437 1.373 . S
C1439 C1423 1.377 1_665 S
C1439 C1437 1.389 1_556 S
C1439 C1440 1.524 . S
C1440 C1439 1.524 . S
C1440 C1441 1.397 . S
C1440 C1445 1.363 1_655 S
C1441 H1412 0.950 . S
C1441 C1440 1.397 . S
C1441 C1442 1.334 . S
C1442 H1413 0.950 . S
C1442 C1441 1.334 . S
C1442 C1443 1.287 . S
C1443 C1442 1.287 . S
C1443 C1444 1.524 . S
C1443 H1446 0.999 . S
C1444 H1414 0.950 1_655 S
C1444 C1443 1.524 . S
C1444 C1445 1.415 1_655 S
C1445 H1415 0.950 . S
C1445 C1440 1.363 1_455 S
C1445 C1444 1.415 1_455 S
H1446 C1443 0.999 . S
H1447 C1428 0.913 . S
H1448 C1466 0.951 . S
H1449 C1468 0.951 . S
H1450 C1470 0.950 . S
H1451 C1471 0.950 . S
H1452 C1473 0.948 . S
H1453 C1476 0.950 . S
H1454 C1477 0.950 . S
H1455 C1479 0.950 . S
H1456 C1480 0.950 . S
H1457 C1481 0.951 . S
H1458 C1483 0.951 . S
H1459 C1485 0.950 . S
H1460 C1486 0.950 . S
H1461 C1488 0.948 . S
H1462 C1491 0.950 . S
H1463 C1492 0.950 . S
H1464 C1494 0.950 . S
H1465 C1495 0.950 . S
C1466 H1448 0.951 . S
C1466 C1467 1.366 . S
C1466 C1468 1.388 . S
C1467 C1466 1.366 . S
C1467 C1471 1.385 . S
C1468 H1449 0.951 . S
C1468 C1466 1.388 . S
C1468 C1469 1.366 . S
C1469 C1468 1.366 . S
C1469 C1470 1.414 . S
C1469 C1472 1.499 . S
C1470 H1450 0.950 . S
C1470 C1469 1.414 . S
C1470 C1471 1.374 . S
C1471 H1451 0.950 . S
C1471 C1467 1.385 . S
C1471 C1470 1.374 . S
C1472 C1469 1.499 . S
C1472 C1473 1.332 1_545 S
C1472 C1474 1.389 . S
C1473 H1452 0.948 . S
C1473 C1472 1.332 1_565 S
C1473 C1489 1.415 . S
C1474 C1472 1.389 . S
C1474 C1475 1.524 . S
C1474 C1488 1.415 . S
C1475 C1474 1.524 . S
C1475 C1476 1.397 . S
C1475 C1480 1.363 . S
C1476 H1453 0.950 . S
C1476 C1475 1.397 . S
C1476 C1477 1.334 . S
C1477 H1454 0.950 . S
C1477 C1476 1.334 . S
C1477 C1478 1.287 . S
C1478 C1477 1.287 . S
C1478 C1479 1.524 . S
C1478 H1497 0.913 . S
C1479 H1455 0.950 . S
C1479 C1478 1.524 . S
C1479 C1480 1.415 . S
C1480 H1456 0.950 . S
C1480 C1475 1.363 . S
C1480 C1479 1.415 . S
C1481 H1457 0.951 . S
C1481 C1482 1.366 . S
C1481 C1483 1.388 . S
C1482 C1481 1.366 . S
C1482 C1486 1.385 . S
C1483 H1458 0.951 . S
C1483 C1481 1.388 . S
C1483 C1484 1.366 . S
C1484 C1483 1.366 . S
C1484 C1485 1.414 . S
C1484 C1487 1.499 . S
C1485 H1459 0.950 . S
C1485 C1484 1.414 . S
C1485 C1486 1.374 . S
C1486 H1460 0.950 . S
C1486 C1482 1.385 . S
C1486 C1485 1.374 . S
C1487 C1484 1.499 . S
C1487 C1488 1.332 1_565 S
C1487 C1489 1.389 . S
C1488 H1461 0.948 . S
C1488 C1474 1.415 . S
C1488 C1487 1.332 1_545 S
C1489 C1473 1.415 . S
C1489 C1487 1.389 . S
C1489 C1490 1.524 . S
C1490 C1489 1.524 . S
C1490 C1491 1.397 . S
C1490 C1495 1.363 . S
C1491 H1462 0.950 . S
C1491 C1490 1.397 . S
C1491 C1492 1.334 . S
C1492 H1463 0.950 . S
C1492 C1491 1.334 . S
C1492 C1493 1.287 . S
C1493 C1492 1.287 . S
C1493 C1494 1.524 . S
C1493 H1496 0.999 . S
C1494 H1464 0.950 . S
C1494 C1493 1.524 . S
C1494 C1495 1.415 . S
C1495 H1465 0.950 . S
C1495 C1490 1.363 . S
C1495 C1494 1.415 . S
H1496 C1493 0.999 . S
H1497 C1478 0.913 . S
H1498 C1516 0.951 . S
H1499 C1518 0.951 . S
H1500 C1520 0.950 . S
H1501 C1521 0.950 . S
H1502 C1523 0.950 . S
H1503 C1526 0.950 . S
H1504 C1527 0.950 1_455 S
H1505 C1529 0.950 . S
H1506 C1530 0.950 . S
H1507 C1531 0.951 . S
H1508 C1533 0.951 . S
H1509 C1535 0.950 . S
H1510 C1536 0.950 . S
H1511 C1538 0.950 . S
H1512 C1541 0.950 . S
H1513 C1542 0.950 1_655 S
H1514 C1544 0.950 . S
H1515 C1545 0.950 . S
C1516 H1498 0.951 . S
C1516 C1517 1.366 . S
C1516 C1518 1.388 . S
C1517 C1516 1.366 . S
C1517 C1521 1.385 . S
C1518 H1499 0.951 . S
C1518 C1516 1.388 . S
C1518 C1519 1.366 . S
C1519 C1518 1.366 . S
C1519 C1520 1.414 . S
C1519 C1522 1.499 . S
C1520 H1500 0.950 . S
C1520 C1519 1.414 . S
C1520 C1521 1.374 . S
C1521 H1501 0.950 . S
C1521 C1517 1.385 . S
C1521 C1520 1.374 . S
C1522 C1519 1.499 . S
C1522 C1523 1.373 . S
C1522 C1524 1.389 1_455 S
C1523 H1502 0.950 . S
C1523 C1522 1.373 . S
C1523 C1539 1.377 . S
C1524 C1522 1.389 1_655 S
C1524 C1525 1.524 . S
C1524 C1538 1.377 . S
C1525 C1524 1.524 . S
C1525 C1526 1.397 1_655 S
C1525 C1530 1.363 . S
C1526 H1503 0.950 . S
C1526 C1525 1.397 1_455 S
C1526 C1527 1.334 1_455 S
C1527 H1504 0.950 1_655 S
C1527 C1526 1.334 1_655 S
C1527 C1528 1.287 . S
C1528 C1527 1.287 . S
C1528 C1529 1.524 . S
C1528 H1547 0.913 . S
C1529 H1505 0.950 . S
C1529 C1528 1.524 . S
C1529 C1530 1.415 . S
C1530 H1506 0.950 . S
C1530 C1525 1.363 . S
C1530 C1529 1.415 . S
C1531 H1507 0.951 . S
C1531 C1532 1.366 . S
C1531 C1533 1.388 . S
C1532 C1531 1.366 . S
C1532 C1536 1.385 . S
C1533 H1508 0.951 . S
C1533 C1531 1.388 . S
C1533 C1534 1.366 . S
C1534 C1533 1.366 . S
C1534 C1535 1.414 . S
C1534 C1537 1.499 . S
C1535 H1509 0.950 . S
C1535 C1534 1.414 . S
C1535 C1536 1.374 . S
C1536 H1510 0.950 . S
C1536 C1532 1.385 . S
C1536 C1535 1.374 . S
C1537 C1534 1.499 . S
C1537 C1538 1.373 . S
C1537 C1539 1.389 1_655 S
C1538 H1511 0.950 . S
C1538 C1524 1.377 . S
C1538 C1537 1.373 . S
C1539 C1523 1.377 . S
C1539 C1537 1.389 1_455 S
C1539 C1540 1.524 . S
C1540 C1539 1.524 . S
C1540 C1541 1.397 1_455 S
C1540 C1545 1.363 . S
C1541 H1512 0.950 . S
C1541 C1540 1.397 1_655 S
C1541 C1542 1.334 1_655 S
C1542 H1513 0.950 1_455 S
C1542 C1541 1.334 1_455 S
C1542 C1543 1.287 . S
C1543 C1542 1.287 . S
C1543 C1544 1.524 . S
C1543 H1546 0.999 . S
C1544 H1514 0.950 . S
C1544 C1543 1.524 . S
C1544 C1545 1.415 . S
C1545 H1515 0.950 . S
C1545 C1540 1.363 . S
C1545 C1544 1.415 . S
H1546 C1543 0.999 . S
H1547 C1528 0.913 . S
H1548 C1566 0.951 . S
H1549 C1568 0.951 . S
H1550 C1570 0.950 . S
H1551 C1571 0.950 1_554 S
H1552 C1573 0.950 . S
H1553 C1576 0.950 . S
H1554 C1577 0.950 . S
H1555 C1579 0.950 . S
H1556 C1580 0.950 . S
H1557 C1581 0.951 . S
H1558 C1583 0.951 . S
H1559 C1585 0.950 . S
H1560 C1586 0.950 1_556 S
H1561 C1588 0.950 . S
H1562 C1591 0.950 . S
H1563 C1592 0.950 . S
H1564 C1594 0.950 . S
H1565 C1595 0.950 . S
C1566 H1548 0.951 . S
C1566 C1567 1.366 . S
C1566 C1568 1.388 . S
C1567 C1566 1.366 . S
C1567 C1571 1.385 . S
C1568 H1549 0.951 . S
C1568 C1566 1.388 . S
C1568 C1569 1.366 . S
C1569 C1568 1.366 . S
C1569 C1570 1.414 1_556 S
C1569 C1572 1.499 . S
C1570 H1550 0.950 . S
C1570 C1569 1.414 1_554 S
C1570 C1571 1.374 1_554 S
C1571 H1551 0.950 1_556 S
C1571 C1567 1.385 . S
C1571 C1570 1.374 1_556 S
C1572 C1569 1.499 . S
C1572 C1573 1.373 1_556 S
C1572 C1574 1.389 . S
C1573 H1552 0.950 . S
C1573 C1572 1.373 1_554 S
C1573 C1589 1.377 . S
C1574 C1572 1.389 . S
C1574 C1575 1.524 . S
C1574 C1588 1.377 . S
C1575 C1574 1.524 . S
C1575 C1576 1.397 . S
C1575 C1580 1.363 . S
C1576 H1553 0.950 . S
C1576 C1575 1.397 . S
C1576 C1577 1.334 . S
C1577 H1554 0.950 . S
C1577 C1576 1.334 . S
C1577 C1578 1.287 . S
C1578 C1577 1.287 . S
C1578 C1579 1.524 . S
C1578 H1597 0.913 . S
C1579 H1555 0.950 . S
C1579 C1578 1.524 . S
C1579 C1580 1.415 . S
C1580 H1556 0.950 . S
C1580 C1575 1.363 . S
C1580 C1579 1.415 . S
C1581 H1557 0.951 . S
C1581 C1582 1.366 . S
C1581 C1583 1.388 . S
C1582 C1581 1.366 . S
C1582 C1586 1.385 . S
C1583 H1558 0.951 . S
C1583 C1581 1.388 . S
C1583 C1584 1.366 . S
C1584 C1583 1.366 . S
C1584 C1585 1.414 1_554 S
C1584 C1587 1.499 . S
C1585 H1559 0.950 . S
C1585 C1584 1.414 1_556 S
C1585 C1586 1.374 1_556 S
C1586 H1560 0.950 1_554 S
C1586 C1582 1.385 . S
C1586 C1585 1.374 1_554 S
C1587 C1584 1.499 . S
C1587 C1588 1.373 1_554 S
C1587 C1589 1.389 . S
C1588 H1561 0.950 . S
C1588 C1574 1.377 . S
C1588 C1587 1.373 1_556 S
C1589 C1573 1.377 . S
C1589 C1587 1.389 . S
C1589 C1590 1.524 . S
C1590 C1589 1.524 . S
C1590 C1591 1.397 . S
C1590 C1595 1.363 . S
C1591 H1562 0.950 . S
C1591 C1590 1.397 . S
C1591 C1592 1.334 . S
C1592 H1563 0.950 . S
C1592 C1591 1.334 . S
C1592 C1593 1.287 . S
C1593 C1592 1.287 . S
C1593 C1594 1.524 . S
C1593 H1596 0.999 . S
C1594 H1564 0.950 . S
C1594 C1593 1.524 . S
C1594 C1595 1.415 . S
C1595 H1565 0.950 . S
C1595 C1590 1.363 . S
C1595 C1594 1.415 . S
H1596 C1593 0.999 . S
H1597 C1578 0.913 . S
H1598 C1616 0.951 . S
H1599 C1618 0.951 . S
H1600 C1620 0.950 . S
H1601 C1621 0.950 . S
H1602 C1623 0.950 . S
H1603 C1626 0.950 . S
H1604 C1627 0.950 . S
H1605 C1629 0.950 . S
H1606 C1630 0.950 . S
H1607 C1631 0.951 . S
H1608 C1633 0.951 . S
H1609 C1635 0.950 . S
H1610 C1636 0.950 . S
H1611 C1638 0.950 . S
H1612 C1641 0.950 . S
H1613 C1642 0.950 . S
H1614 C1644 0.950 . S
H1615 C1645 0.950 . S
C1616 H1598 0.951 . S
C1616 C1617 1.366 . S
C1616 C1618 1.388 . S
C1617 C1616 1.366 . S
C1617 C1621 1.385 . S
C1618 H1599 0.951 . S
C1618 C1616 1.388 . S
C1618 C1619 1.366 . S
C1619 C1618 1.366 . S
C1619 C1620 1.414 . S
C1619 C1622 1.499 . S
C1620 H1600 0.950 . S
C1620 C1619 1.414 . S
C1620 C1621 1.374 . S
C1621 H1601 0.950 . S
C1621 C1617 1.385 . S
C1621 C1620 1.374 . S
C1622 C1619 1.499 . S
C1622 C1623 1.373 . S
C1622 C1624 1.389 . S
C1623 H1602 0.950 . S
C1623 C1622 1.373 . S
C1623 C1639 1.377 . S
C1624 C1622 1.389 . S
C1624 C1625 1.524 . S
C1624 C1638 1.377 . S
C1625 C1624 1.524 . S
C1625 C1626 1.397 . S
C1625 C1630 1.363 . S
C1626 H1603 0.950 . S
C1626 C1625 1.397 . S
C1626 C1627 1.334 . S
C1627 H1604 0.950 . S
C1627 C1626 1.334 . S
C1627 C1628 1.287 . S
C1628 C1627 1.287 . S
C1628 C1629 1.524 . S
C1628 H1647 0.913 . S
C1629 H1605 0.950 . S
C1629 C1628 1.524 . S
C1629 C1630 1.415 . S
C1630 H1606 0.950 . S
C1630 C1625 1.363 . S
C1630 C1629 1.415 . S
C1631 H1607 0.951 . S
C1631 C1632 1.366 . S
C1631 C1633 1.388 . S
C1632 C1631 1.366 . S
C1632 C1636 1.385 . S
C1633 H1608 0.951 . S
C1633 C1631 1.388 . S
C1633 C1634 1.366 . S
C1634 C1633 1.366 . S
C1634 C1635 1.414 . S
C1634 C1637 1.499 . S
C1635 H1609 0.950 . S
C1635 C1634 1.414 . S
C1635 C1636 1.374 . S
C1636 H1610 0.950 . S
C1636 C1632 1.385 . S
C1636 C1635 1.374 . S
C1637 C1634 1.499 . S
C1637 C1638 1.373 . S
C1637 C1639 1.389 . S
C1638 H1611 0.950 . S
C1638 C1624 1.377 . S
C1638 C1637 1.373 . S
C1639 C1623 1.377 . S
C1639 C1637 1.389 . S
C1639 C1640 1.524 . S
C1640 C1639 1.524 . S
C1640 C1641 1.397 . S
C1640 C1645 1.363 . S
C1641 H1612 0.950 . S
C1641 C1640 1.397 . S
C1641 C1642 1.334 . S
C1642 H1613 0.950 . S
C1642 C1641 1.334 . S
C1642 C1643 1.287 . S
C1643 C1642 1.287 . S
C1643 C1644 1.524 . S
C1643 H1646 0.999 . S
C1644 H1614 0.950 . S
C1644 C1643 1.524 . S
C1644 C1645 1.415 . S
C1645 H1615 0.950 . S
C1645 C1640 1.363 . S
C1645 C1644 1.415 . S
H1646 C1643 0.999 . S
H1647 C1628 0.913 . S
H1648 C1666 0.951 . S
H1649 C1668 0.951 . S
H1650 C1670 0.950 . S
H1651 C1671 0.950 . S
H1652 C1673 0.950 . S
H1653 C1676 0.950 . S
H1654 C1677 0.950 . S
H1655 C1679 0.950 . S
H1656 C1680 0.950 . S
H1657 C1681 0.951 . S
H1658 C1683 0.951 . S
H1659 C1685 0.950 . S
H1660 C1686 0.950 . S
H1661 C1688 0.950 . S
H1662 C1691 0.950 . S
H1663 C1692 0.950 . S
H1664 C1694 0.950 . S
H1665 C1695 0.950 . S
C1666 H1648 0.951 . S
C1666 C1667 1.366 . S
C1666 C1668 1.388 . S
C1667 C1666 1.366 . S
C1667 C1671 1.385 . S
C1668 H1649 0.951 . S
C1668 C1666 1.388 . S
C1668 C1669 1.366 . S
C1669 C1668 1.366 . S
C1669 C1670 1.414 . S
C1669 C1672 1.499 . S
C1670 H1650 0.950 . S
C1670 C1669 1.414 . S
C1670 C1671 1.374 . S
C1671 H1651 0.950 . S
C1671 C1667 1.385 . S
C1671 C1670 1.374 . S
C1672 C1669 1.499 . S
C1672 C1673 1.373 . S
C1672 C1674 1.389 . S
C1673 H1652 0.950 . S
C1673 C1672 1.373 . S
C1673 C1689 1.377 . S
C1674 C1672 1.389 . S
C1674 C1675 1.524 . S
C1674 C1688 1.377 . S
C1675 C1674 1.524 . S
C1675 C1676 1.397 . S
C1675 C1680 1.363 . S
C1676 H1653 0.950 . S
C1676 C1675 1.397 . S
C1676 C1677 1.334 . S
C1677 H1654 0.950 . S
C1677 C1676 1.334 . S
C1677 C1678 1.287 . S
C1678 C1677 1.287 . S
C1678 C1679 1.524 . S
C1678 H1697 0.913 . S
C1679 H1655 0.950 . S
C1679 C1678 1.524 . S
C1679 C1680 1.415 . S
C1680 H1656 0.950 . S
C1680 C1675 1.363 . S
C1680 C1679 1.415 . S
C1681 H1657 0.951 . S
C1681 C1682 1.366 . S
C1681 C1683 1.388 . S
C1682 C1681 1.366 . S
C1682 C1686 1.385 . S
C1683 H1658 0.951 . S
C1683 C1681 1.388 . S
C1683 C1684 1.366 . S
C1684 C1683 1.366 . S
C1684 C1685 1.414 . S
C1684 C1687 1.499 . S
C1685 H1659 0.950 . S
C1685 C1684 1.414 . S
C1685 C1686 1.374 . S
C1686 H1660 0.950 . S
C1686 C1682 1.385 . S
C1686 C1685 1.374 . S
C1687 C1684 1.499 . S
C1687 C1688 1.373 . S
C1687 C1689 1.389 . S
C1688 H1661 0.950 . S
C1688 C1674 1.377 . S
C1688 C1687 1.373 . S
C1689 C1673 1.377 . S
C1689 C1687 1.389 . S
C1689 C1690 1.524 . S
C1690 C1689 1.524 . S
C1690 C1691 1.397 . S
C1690 C1695 1.363 . S
C1691 H1662 0.950 . S
C1691 C1690 1.397 . S
C1691 C1692 1.334 . S
C1692 H1663 0.950 . S
C1692 C1691 1.334 . S
C1692 C1693 1.287 . S
C1693 C1692 1.287 . S
C1693 C1694 1.524 . S
C1693 H1696 0.999 . S
C1694 H1664 0.950 . S
C1694 C1693 1.524 . S
C1694 C1695 1.415 . S
C1695 H1665 0.950 . S
C1695 C1690 1.363 . S
C1695 C1694 1.415 . S
H1696 C1693 0.999 . S
H1697 C1678 0.913 . S
H1698 C1716 0.951 . S
H1699 C1718 0.951 . S
H1700 C1720 0.950 . S
H1701 C1721 0.950 . S
H1702 C1723 0.950 . S
H1703 C1726 0.950 . S
H1704 C1727 0.950 . S
H1705 C1729 0.950 . S
H1706 C1730 0.950 . S
H1707 C1731 0.951 . S
H1708 C1733 0.951 . S
H1709 C1735 0.950 . S
H1710 C1736 0.950 . S
H1711 C1738 0.950 . S
H1712 C1741 0.950 . S
H1713 C1742 0.950 . S
H1714 C1744 0.950 . S
H1715 C1745 0.950 . S
C1716 H1698 0.951 . S
C1716 C1717 1.366 . S
C1716 C1718 1.388 . S
C1717 C1716 1.366 . S
C1717 C1721 1.385 . S
C1718 H1699 0.951 . S
C1718 C1716 1.388 . S
C1718 C1719 1.366 . S
C1719 C1718 1.366 . S
C1719 C1720 1.414 . S
C1719 C1722 1.499 . S
C1720 H1700 0.950 . S
C1720 C1719 1.414 . S
C1720 C1721 1.374 . S
C1721 H1701 0.950 . S
C1721 C1717 1.385 . S
C1721 C1720 1.374 . S
C1722 C1719 1.499 . S
C1722 C1723 1.373 1_655 S
C1722 C1724 1.389 . S
C1723 H1702 0.950 . S
C1723 C1722 1.373 1_455 S
C1723 C1739 1.377 . S
C1724 C1722 1.389 . S
C1724 C1725 1.524 . S
C1724 C1738 1.377 . S
C1725 C1724 1.524 . S
C1725 C1726 1.397 . S
C1725 C1730 1.363 . S
C1726 H1703 0.950 . S
C1726 C1725 1.397 . S
C1726 C1727 1.334 . S
C1727 H1704 0.950 . S
C1727 C1726 1.334 . S
C1727 C1728 1.287 . S
C1728 C1727 1.287 . S
C1728 C1729 1.524 . S
C1728 H1747 0.913 . S
C1729 H1705 0.950 . S
C1729 C1728 1.524 . S
C1729 C1730 1.415 . S
C1730 H1706 0.950 . S
C1730 C1725 1.363 . S
C1730 C1729 1.415 . S
C1731 H1707 0.951 . S
C1731 C1732 1.366 . S
C1731 C1733 1.388 . S
C1732 C1731 1.366 . S
C1732 C1736 1.385 . S
C1733 H1708 0.951 . S
C1733 C1731 1.388 . S
C1733 C1734 1.366 . S
C1734 C1733 1.366 . S
C1734 C1735 1.414 . S
C1734 C1737 1.499 . S
C1735 H1709 0.950 . S
C1735 C1734 1.414 . S
C1735 C1736 1.374 . S
C1736 H1710 0.950 . S
C1736 C1732 1.385 . S
C1736 C1735 1.374 . S
C1737 C1734 1.499 . S
C1737 C1738 1.373 1_455 S
C1737 C1739 1.389 . S
C1738 H1711 0.950 . S
C1738 C1724 1.377 . S
C1738 C1737 1.373 1_655 S
C1739 C1723 1.377 . S
C1739 C1737 1.389 . S
C1739 C1740 1.524 . S
C1740 C1739 1.524 . S
C1740 C1741 1.397 . S
C1740 C1745 1.363 . S
C1741 H1712 0.950 . S
C1741 C1740 1.397 . S
C1741 C1742 1.334 . S
C1742 H1713 0.950 . S
C1742 C1741 1.334 . S
C1742 C1743 1.287 . S
C1743 C1742 1.287 . S
C1743 C1744 1.524 . S
C1743 H1746 0.999 . S
C1744 H1714 0.950 . S
C1744 C1743 1.524 . S
C1744 C1745 1.415 . S
C1745 H1715 0.950 . S
C1745 C1740 1.363 . S
C1745 C1744 1.415 . S
H1746 C1743 0.999 . S
H1747 C1728 0.913 . S
H1748 C1766 0.951 . S
H1749 C1768 0.951 . S
H1750 C1770 0.950 . S
H1751 C1771 0.950 . S
H1752 C1773 0.950 . S
H1753 C1776 0.950 . S
H1754 C1777 0.950 . S
H1755 C1779 0.950 . S
H1756 C1780 0.950 . S
H1757 C1781 0.951 . S
H1758 C1783 0.951 . S
H1759 C1785 0.950 . S
H1760 C1786 0.950 . S
H1761 C1788 0.950 . S
H1762 C1791 0.950 . S
H1763 C1792 0.950 . S
H1764 C1794 0.950 . S
H1765 C1795 0.950 . S
C1766 H1748 0.951 . S
C1766 C1767 1.366 . S
C1766 C1768 1.388 . S
C1767 C1766 1.366 . S
C1767 C1771 1.385 . S
C1768 H1749 0.951 . S
C1768 C1766 1.388 . S
C1768 C1769 1.366 . S
C1769 C1768 1.366 . S
C1769 C1770 1.414 . S
C1769 C1772 1.499 . S
C1770 H1750 0.950 . S
C1770 C1769 1.414 . S
C1770 C1771 1.374 . S
C1771 H1751 0.950 . S
C1771 C1767 1.385 . S
C1771 C1770 1.374 . S
C1772 C1769 1.499 . S
C1772 C1773 1.373 . S
C1772 C1774 1.389 . S
C1773 H1752 0.950 . S
C1773 C1772 1.373 . S
C1773 C1789 1.377 . S
C1774 C1772 1.389 . S
C1774 C1775 1.524 . S
C1774 C1788 1.377 . S
C1775 C1774 1.524 . S
C1775 C1776 1.397 . S
C1775 C1780 1.363 . S
C1776 H1753 0.950 . S
C1776 C1775 1.397 . S
C1776 C1777 1.334 . S
C1777 H1754 0.950 . S
C1777 C1776 1.334 . S
C1777 C1778 1.287 . S
C1778 C1777 1.287 . S
C1778 C1779 1.524 . S
C1778 H1797 0.913 . S
C1779 H1755 0.950 . S
C1779 C1778 1.524 . S
C1779 C1780 1.415 . S
C1780 H1756 0.950 . S
C1780 C1775 1.363 . S
C1780 C1779 1.415 . S
C1781 H1757 0.951 . S
C1781 C1782 1.366 . S
C1781 C1783 1.388 . S
C1782 C1781 1.366 . S
C1782 C1786 1.385 . S
C1783 H1758 0.951 . S
C1783 C1781 1.388 . S
C1783 C1784 1.366 . S
C1784 C1783 1.366 . S
C1784 C1785 1.414 . S
C1784 C1787 1.499 . S
C1785 H1759 0.950 . S
C1785 C1784 1.414 . S
C1785 C1786 1.374 . S
C1786 H1760 0.950 . S
C1786 C1782 1.385 . S
C1786 C1785 1.374 . S
C1787 C1784 1.499 . S
C1787 C1788 1.373 . S
C1787 C1789 1.389 . S
C1788 H1761 0.950 . S
C1788 C1774 1.377 . S
C1788 C1787 1.373 . S
C1789 C1773 1.377 . S
C1789 C1787 1.389 . S
C1789 C1790 1.524 . S
C1790 C1789 1.524 . S
C1790 C1791 1.397 . S
C1790 C1795 1.363 . S
C1791 H1762 0.950 . S
C1791 C1790 1.397 . S
C1791 C1792 1.334 . S
C1792 H1763 0.950 . S
C1792 C1791 1.334 . S
C1792 C1793 1.287 . S
C1793 C1792 1.287 . S
C1793 C1794 1.524 . S
C1793 H1796 0.999 . S
C1794 H1764 0.950 . S
C1794 C1793 1.524 . S
C1794 C1795 1.415 . S
C1795 H1765 0.950 . S
C1795 C1790 1.363 . S
C1795 C1794 1.415 . S
H1796 C1793 0.999 . S
H1797 C1778 0.913 . S
H1798 C1816 0.951 . S
H1799 C1818 0.951 . S
H1800 C1820 0.950 . S
H1801 C1821 0.950 . S
H1802 C1823 0.950 . S
H1803 C1826 0.950 . S
H1804 C1827 0.950 . S
H1805 C1829 0.950 . S
H1806 C1830 0.950 . S
H1807 C1831 0.951 . S
H1808 C1833 0.951 . S
H1809 C1835 0.950 . S
H1810 C1836 0.950 . S
H1811 C1838 0.950 . S
H1812 C1841 0.950 . S
H1813 C1842 0.950 . S
H1814 C1844 0.950 . S
H1815 C1845 0.950 . S
C1816 H1798 0.951 . S
C1816 C1817 1.366 . S
C1816 C1818 1.388 . S
C1817 C1816 1.366 . S
C1817 C1821 1.385 . S
C1818 H1799 0.951 . S
C1818 C1816 1.388 . S
C1818 C1819 1.366 . S
C1819 C1818 1.366 . S
C1819 C1820 1.414 . S
C1819 C1822 1.499 . S
C1820 H1800 0.950 . S
C1820 C1819 1.414 . S
C1820 C1821 1.374 . S
C1821 H1801 0.950 . S
C1821 C1817 1.385 . S
C1821 C1820 1.374 . S
C1822 C1819 1.499 . S
C1822 C1823 1.373 . S
C1822 C1824 1.389 . S
C1823 H1802 0.950 . S
C1823 C1822 1.373 . S
C1823 C1839 1.377 . S
C1824 C1822 1.389 . S
C1824 C1825 1.524 . S
C1824 C1838 1.377 . S
C1825 C1824 1.524 . S
C1825 C1826 1.397 . S
C1825 C1830 1.363 . S
C1826 H1803 0.950 . S
C1826 C1825 1.397 . S
C1826 C1827 1.334 . S
C1827 H1804 0.950 . S
C1827 C1826 1.334 . S
C1827 C1828 1.287 . S
C1828 C1827 1.287 . S
C1828 C1829 1.524 . S
C1828 H1847 0.913 . S
C1829 H1805 0.950 . S
C1829 C1828 1.524 . S
C1829 C1830 1.415 . S
C1830 H1806 0.950 . S
C1830 C1825 1.363 . S
C1830 C1829 1.415 . S
C1831 H1807 0.951 . S
C1831 C1832 1.366 . S
C1831 C1833 1.388 . S
C1832 C1831 1.366 . S
C1832 C1836 1.385 . S
C1833 H1808 0.951 . S
C1833 C1831 1.388 . S
C1833 C1834 1.366 . S
C1834 C1833 1.366 . S
C1834 C1835 1.414 . S
C1834 C1837 1.499 . S
C1835 H1809 0.950 . S
C1835 C1834 1.414 . S
C1835 C1836 1.374 . S
C1836 H1810 0.950 . S
C1836 C1832 1.385 . S
C1836 C1835 1.374 . S
C1837 C1834 1.499 . S
C1837 C1838 1.373 . S
C1837 C1839 1.389 . S
C1838 H1811 0.950 . S
C1838 C1824 1.377 . S
C1838 C1837 1.373 . S
C1839 C1823 1.377 . S
C1839 C1837 1.389 . S
C1839 C1840 1.524 . S
C1840 C1839 1.524 . S
C1840 C1841 1.397 . S
C1840 C1845 1.363 . S
C1841 H1812 0.950 . S
C1841 C1840 1.397 . S
C1841 C1842 1.334 . S
C1842 H1813 0.950 . S
C1842 C1841 1.334 . S
C1842 C1843 1.287 . S
C1843 C1842 1.287 . S
C1843 C1844 1.524 . S
C1843 H1846 0.999 . S
C1844 H1814 0.950 . S
C1844 C1843 1.524 . S
C1844 C1845 1.415 . S
C1845 H1815 0.950 . S
C1845 C1840 1.363 . S
C1845 C1844 1.415 . S
H1846 C1843 0.999 . S
H1847 C1828 0.913 . S
H1848 C1866 0.951 . S
H1849 C1868 0.951 . S
H1850 C1870 0.950 . S
H1851 C1871 0.950 . S
H1852 C1873 0.950 . S
H1853 C1876 0.950 . S
H1854 C1877 0.950 . S
H1855 C1879 0.950 . S
H1856 C1880 0.950 . S
H1857 C1881 0.951 . S
H1858 C1883 0.951 . S
H1859 C1885 0.950 . S
H1860 C1886 0.950 . S
H1861 C1888 0.950 . S
H1862 C1891 0.950 . S
H1863 C1892 0.950 . S
H1864 C1894 0.950 . S
H1865 C1895 0.950 . S
C1866 H1848 0.951 . S
C1866 C1867 1.366 . S
C1866 C1868 1.388 . S
C1867 C1866 1.366 . S
C1867 C1871 1.385 . S
C1868 H1849 0.951 . S
C1868 C1866 1.388 . S
C1868 C1869 1.366 . S
C1869 C1868 1.366 . S
C1869 C1870 1.414 . S
C1869 C1872 1.499 . S
C1870 H1850 0.950 . S
C1870 C1869 1.414 . S
C1870 C1871 1.374 . S
C1871 H1851 0.950 . S
C1871 C1867 1.385 . S
C1871 C1870 1.374 . S
C1872 C1869 1.499 . S
C1872 C1873 1.373 . S
C1872 C1874 1.389 . S
C1873 H1852 0.950 . S
C1873 C1872 1.373 . S
C1873 C1889 1.377 . S
C1874 C1872 1.389 . S
C1874 C1875 1.524 . S
C1874 C1888 1.377 . S
C1875 C1874 1.524 . S
C1875 C1876 1.397 . S
C1875 C1880 1.363 . S
C1876 H1853 0.950 . S
C1876 C1875 1.397 . S
C1876 C1877 1.334 . S
C1877 H1854 0.950 . S
C1877 C1876 1.334 . S
C1877 C1878 1.287 . S
C1878 C1877 1.287 . S
C1878 C1879 1.524 . S
C1878 H1897 0.913 . S
C1879 H1855 0.950 . S
C1879 C1878 1.524 . S
C1879 C1880 1.415 . S
C1880 H1856 0.950 . S
C1880 C1875 1.363 . S
C1880 C1879 1.415 . S
C1881 H1857 0.951 . S
C1881 C1882 1.366 . S
C1881 C1883 1.388 . S
C1882 C1881 1.366 . S
C1882 C1886 1.385 . S
C1883 H1858 0.951 . S
C1883 C1881 1.388 . S
C1883 C1884 1.366 . S
C1884 C1883 1.366 . S
C1884 C1885 1.414 . S
C1884 C1887 1.499 . S
C1885 H1859 0.950 . S
C1885 C1884 1.414 . S
C1885 C1886 1.374 . S
C1886 H1860 0.950 . S
C1886 C1882 1.385 . S
C1886 C1885 1.374 . S
C1887 C1884 1.499 . S
C1887 C1888 1.373 . S
C1887 C1889 1.389 . S
C1888 H1861 0.950 . S
C1888 C1874 1.377 . S
C1888 C1887 1.373 . S
C1889 C1873 1.377 . S
C1889 C1887 1.389 . S
C1889 C1890 1.524 . S
C1890 C1889 1.524 . S
C1890 C1891 1.397 . S
C1890 C1895 1.363 . S
C1891 H1862 0.950 . S
C1891 C1890 1.397 . S
C1891 C1892 1.334 . S
C1892 H1863 0.950 . S
C1892 C1891 1.334 . S
C1892 C1893 1.287 . S
C1893 C1892 1.287 . S
C1893 C1894 1.524 . S
C1893 H1896 0.999 . S
C1894 H1864 0.950 . S
C1894 C1893 1.524 . S
C1894 C1895 1.415 . S
C1895 H1865 0.950 . S
C1895 C1890 1.363 . S
C1895 C1894 1.415 . S
H1896 C1893 0.999 . S
H1897 C1878 0.913 . S
H1898 C1916 0.951 . S
H1899 C1918 0.951 . S
H1900 C1920 0.950 . S
H1901 C1921 0.950 . S
H1902 C1923 0.950 . S
H1903 C1926 0.950 . S
H1904 C1927 0.950 . S
H1905 C1929 0.950 . S
H1906 C1930 0.950 . S
H1907 C1931 0.951 . S
H1908 C1933 0.951 . S
H1909 C1935 0.950 . S
H1910 C1936 0.950 . S
H1911 C1938 0.950 . S
H1912 C1941 0.950 . S
H1913 C1942 0.950 . S
H1914 C1944 0.950 . S
H1915 C1945 0.950 . S
C1916 H1898 0.951 . S
C1916 C1917 1.366 . S
C1916 C1918 1.388 . S
C1917 C1916 1.366 . S
C1917 C1921 1.385 . S
C1918 H1899 0.951 . S
C1918 C1916 1.388 . S
C1918 C1919 1.366 . S
C1919 C1918 1.366 . S
C1919 C1920 1.414 . S
C1919 C1922 1.499 . S
C1920 H1900 0.950 . S
C1920 C1919 1.414 . S
C1920 C1921 1.374 . S
C1921 H1901 0.950 . S
C1921 C1917 1.385 . S
C1921 C1920 1.374 . S
C1922 C1919 1.499 . S
C1922 C1923 1.373 . S
C1922 C1924 1.389 . S
C1923 H1902 0.950 . S
C1923 C1922 1.373 . S
C1923 C1939 1.377 1_545 S
C1924 C1922 1.389 . S
C1924 C1925 1.524 . S
C1924 C1938 1.377 1_545 S
C1925 C1924 1.524 . S
C1925 C1926 1.397 . S
C1925 C1930 1.363 . S
C1926 H1903 0.950 . S
C1926 C1925 1.397 . S
C1926 C1927 1.334 . S
C1927 H1904 0.950 . S
C1927 C1926 1.334 . S
C1927 C1928 1.287 . S
C1928 C1927 1.287 . S
C1928 C1929 1.524 . S
C1928 H1947 0.913 . S
C1929 H1905 0.950 . S
C1929 C1928 1.524 . S
C1929 C1930 1.415 . S
C1930 H1906 0.950 . S
C1930 C1925 1.363 . S
C1930 C1929 1.415 . S
C1931 H1907 0.951 . S
C1931 C1932 1.366 . S
C1931 C1933 1.388 . S
C1932 C1931 1.366 . S
C1932 C1936 1.385 . S
C1933 H1908 0.951 . S
C1933 C1931 1.388 . S
C1933 C1934 1.366 . S
C1934 C1933 1.366 . S
C1934 C1935 1.414 . S
C1934 C1937 1.499 . S
C1935 H1909 0.950 . S
C1935 C1934 1.414 . S
C1935 C1936 1.374 . S
C1936 H1910 0.950 . S
C1936 C1932 1.385 . S
C1936 C1935 1.374 . S
C1937 C1934 1.499 . S
C1937 C1938 1.373 . S
C1937 C1939 1.389 . S
C1938 H1911 0.950 . S
C1938 C1924 1.377 1_565 S
C1938 C1937 1.373 . S
C1939 C1923 1.377 1_565 S
C1939 C1937 1.389 . S
C1939 C1940 1.524 . S
C1940 C1939 1.524 . S
C1940 C1941 1.397 . S
C1940 C1945 1.363 . S
C1941 H1912 0.950 . S
C1941 C1940 1.397 . S
C1941 C1942 1.334 . S
C1942 H1913 0.950 . S
C1942 C1941 1.334 . S
C1942 C1943 1.287 . S
C1943 C1942 1.287 . S
C1943 C1944 1.524 . S
C1943 H1946 0.999 . S
C1944 H1914 0.950 . S
C1944 C1943 1.524 . S
C1944 C1945 1.415 . S
C1945 H1915 0.950 . S
C1945 C1940 1.363 . S
C1945 C1944 1.415 . S
H1946 C1943 0.999 . S
H1947 C1928 0.913 . S
H1948 C1966 0.951 . S
H1949 C1968 0.951 . S
H1950 C1970 0.950 . S
H1951 C1971 0.950 . S
H1952 C1973 0.950 . S
H1953 C1976 0.950 . S
H1954 C1977 0.950 . S
H1955 C1979 0.950 . S
H1956 C1980 0.950 . S
H1957 C1981 0.951 . S
H1958 C1983 0.951 . S
H1959 C1985 0.950 . S
H1960 C1986 0.950 . S
H1961 C1988 0.950 . S
H1962 C1991 0.950 . S
H1963 C1992 0.950 . S
H1964 C1994 0.950 . S
H1965 C1995 0.950 . S
C1966 H1948 0.951 . S
C1966 C1967 1.366 . S
C1966 C1968 1.388 . S
C1967 C1966 1.366 . S
C1967 C1971 1.385 . S
C1968 H1949 0.951 . S
C1968 C1966 1.388 . S
C1968 C1969 1.366 . S
C1969 C1968 1.366 . S
C1969 C1970 1.414 . S
C1969 C1972 1.499 . S
C1970 H1950 0.950 . S
C1970 C1969 1.414 . S
C1970 C1971 1.374 . S
C1971 H1951 0.950 . S
C1971 C1967 1.385 . S
C1971 C1970 1.374 . S
C1972 C1969 1.499 . S
C1972 C1973 1.373 . S
C1972 C1974 1.389 . S
C1973 H1952 0.950 . S
C1973 C1972 1.373 . S
C1973 C1989 1.377 . S
C1974 C1972 1.389 . S
C1974 C1975 1.524 . S
C1974 C1988 1.377 . S
C1975 C1974 1.524 . S
C1975 C1976 1.397 . S
C1975 C1980 1.363 . S
C1976 H1953 0.950 . S
C1976 C1975 1.397 . S
C1976 C1977 1.334 . S
C1977 H1954 0.950 . S
C1977 C1976 1.334 . S
C1977 C1978 1.287 . S
C1978 C1977 1.287 . S
C1978 C1979 1.524 . S
C1978 H1997 0.913 . S
C1979 H1955 0.950 . S
C1979 C1978 1.524 . S
C1979 C1980 1.415 . S
C1980 H1956 0.950 . S
C1980 C1975 1.363 . S
C1980 C1979 1.415 . S
C1981 H1957 0.951 . S
C1981 C1982 1.366 . S
C1981 C1983 1.388 . S
C1982 C1981 1.366 . S
C1982 C1986 1.385 . S
C1983 H1958 0.951 . S
C1983 C1981 1.388 . S
C1983 C1984 1.366 . S
C1984 C1983 1.366 . S
C1984 C1985 1.414 . S
C1984 C1987 1.499 . S
C1985 H1959 0.950 . S
C1985 C1984 1.414 . S
C1985 C1986 1.374 . S
C1986 H1960 0.950 . S
C1986 C1982 1.385 . S
C1986 C1985 1.374 . S
C1987 C1984 1.499 . S
C1987 C1988 1.373 . S
C1987 C1989 1.389 . S
C1988 H1961 0.950 . S
C1988 C1974 1.377 . S
C1988 C1987 1.373 . S
C1989 C1973 1.377 . S
C1989 C1987 1.389 . S
C1989 C1990 1.524 . S
C1990 C1989 1.524 . S
C1990 C1991 1.397 . S
C1990 C1995 1.363 . S
C1991 H1962 0.950 . S
C1991 C1990 1.397 . S
C1991 C1992 1.334 . S
C1992 H1963 0.950 . S
C1992 C1991 1.334 . S
C1992 C1993 1.287 . S
C1993 C1992 1.287 . S
C1993 C1994 1.524 . S
C1993 H1996 0.999 . S
C1994 H1964 0.950 . S
C1994 C1993 1.524 . S
C1994 C1995 1.415 . S
C1995 H1965 0.950 . S
C1995 C1990 1.363 . S
C1995 C1994 1.415 . S
H1996 C1993 0.999 . S
H1997 C1978 0.913 . S
H1998 C2016 0.951 . S
H1999 C2018 0.951 . S
H2000 C2020 0.950 . S
H2001 C2021 0.950 1_556 S
H2002 C2023 0.950 . S
H2003 C2026 0.950 . S
H2004 C2027 0.950 . S
H2005 C2029 0.950 . S
H2006 C2030 0.950 . S
H2007 C2031 0.951 . S
H2008 C2033 0.951 . S
H2009 C2035 0.950 . S
H2010 C2036 0.950 1_554 S
H2011 C2038 0.950 . S
H2012 C2041 0.950 . S
H2013 C2042 0.950 . S
H2014 C2044 0.950 . S
H2015 C2045 0.950 . S
C2016 H1998 0.951 . S
C2016 C2017 1.366 . S
C2016 C2018 1.388 . S
C2017 C2016 1.366 . S
C2017 C2021 1.385 . S
C2018 H1999 0.951 . S
C2018 C2016 1.388 . S
C2018 C2019 1.366 . S
C2019 C2018 1.366 . S
C2019 C2020 1.414 1_554 S
C2019 C2022 1.499 . S
C2020 H2000 0.950 . S
C2020 C2019 1.414 1_556 S
C2020 C2021 1.374 1_556 S
C2021 H2001 0.950 1_554 S
C2021 C2017 1.385 . S
C2021 C2020 1.374 1_554 S
C2022 C2019 1.499 . S
C2022 C2023 1.373 1_554 S
C2022 C2024 1.389 . S
C2023 H2002 0.950 . S
C2023 C2022 1.373 1_556 S
C2023 C2039 1.377 . S
C2024 C2022 1.389 . S
C2024 C2025 1.524 . S
C2024 C2038 1.377 . S
C2025 C2024 1.524 . S
C2025 C2026 1.397 . S
C2025 C2030 1.363 . S
C2026 H2003 0.950 . S
C2026 C2025 1.397 . S
C2026 C2027 1.334 . S
C2027 H2004 0.950 . S
C2027 C2026 1.334 . S
C2027 C2028 1.287 . S
C2028 C2027 1.287 . S
C2028 C2029 1.524 . S
C2028 H2047 0.913 . S
C2029 H2005 0.950 . S
C2029 C2028 1.524 . S
C2029 C2030 1.415 . S
C2030 H2006 0.950 . S
C2030 C2025 1.363 . S
C2030 C2029 1.415 . S
C2031 H2007 0.951 . S
C2031 C2032 1.366 . S
C2031 C2033 1.388 . S
C2032 C2031 1.366 . S
C2032 C2036 1.385 . S
C2033 H2008 0.951 . S
C2033 C2031 1.388 . S
C2033 C2034 1.366 . S
C2034 C2033 1.366 . S
C2034 C2035 1.414 1_556 S
C2034 C2037 1.499 . S
C2035 H2009 0.950 . S
C2035 C2034 1.414 1_554 S
C2035 C2036 1.374 1_554 S
C2036 H2010 0.950 1_556 S
C2036 C2032 1.385 . S
C2036 C2035 1.374 1_556 S
C2037 C2034 1.499 . S
C2037 C2038 1.373 1_556 S
C2037 C2039 1.389 . S
C2038 H2011 0.950 . S
C2038 C2024 1.377 . S
C2038 C2037 1.373 1_554 S
C2039 C2023 1.377 . S
C2039 C2037 1.389 . S
C2039 C2040 1.524 . S
C2040 C2039 1.524 . S
C2040 C2041 1.397 . S
C2040 C2045 1.363 . S
C2041 H2012 0.950 . S
C2041 C2040 1.397 . S
C2041 C2042 1.334 . S
C2042 H2013 0.950 . S
C2042 C2041 1.334 . S
C2042 C2043 1.287 . S
C2043 C2042 1.287 . S
C2043 C2044 1.524 . S
C2043 H2046 0.999 . S
C2044 H2014 0.950 . S
C2044 C2043 1.524 . S
C2044 C2045 1.415 . S
C2045 H2015 0.950 . S
C2045 C2040 1.363 . S
C2045 C2044 1.415 . S
H2046 C2043 0.999 . S
H2047 C2028 0.913 . S
H2048 C2066 0.951 . S
H2049 C2068 0.951 . S
H2050 C2070 0.950 . S
H2051 C2071 0.950 . S
H2052 C2073 0.950 . S
H2053 C2076 0.950 . S
H2054 C2077 0.950 . S
H2055 C2079 0.950 . S
H2056 C2080 0.950 . S
H2057 C2081 0.951 . S
H2058 C2083 0.951 . S
H2059 C2085 0.950 . S
H2060 C2086 0.950 . S
H2061 C2088 0.950 . S
H2062 C2091 0.950 . S
H2063 C2092 0.950 . S
H2064 C2094 0.950 1_655 S
H2065 C2095 0.950 . S
C2066 H2048 0.951 . S
C2066 C2067 1.366 . S
C2066 C2068 1.388 . S
C2067 C2066 1.366 . S
C2067 C2071 1.385 . S
C2068 H2049 0.951 . S
C2068 C2066 1.388 . S
C2068 C2069 1.366 . S
C2069 C2068 1.366 . S
C2069 C2070 1.414 . S
C2069 C2072 1.499 . S
C2070 H2050 0.950 . S
C2070 C2069 1.414 . S
C2070 C2071 1.374 . S
C2071 H2051 0.950 . S
C2071 C2067 1.385 . S
C2071 C2070 1.374 . S
C2072 C2069 1.499 . S
C2072 C2073 1.373 . S
C2072 C2074 1.389 . S
C2073 H2052 0.950 . S
C2073 C2072 1.373 . S
C2073 C2089 1.377 . S
C2074 C2072 1.389 . S
C2074 C2075 1.524 . S
C2074 C2088 1.377 . S
C2075 C2074 1.524 . S
C2075 C2076 1.397 . S
C2075 C2080 1.363 . S
C2076 H2053 0.950 . S
C2076 C2075 1.397 . S
C2076 C2077 1.334 . S
C2077 H2054 0.950 . S
C2077 C2076 1.334 . S
C2077 C2078 1.287 . S
C2078 C2077 1.287 . S
C2078 C2079 1.524 . S
C2078 H2097 0.913 . S
C2079 H2055 0.950 . S
C2079 C2078 1.524 . S
C2079 C2080 1.415 . S
C2080 H2056 0.950 . S
C2080 C2075 1.363 . S
C2080 C2079 1.415 . S
C2081 H2057 0.951 . S
C2081 C2082 1.366 . S
C2081 C2083 1.388 . S
C2082 C2081 1.366 . S
C2082 C2086 1.385 . S
C2083 H2058 0.951 . S
C2083 C2081 1.388 . S
C2083 C2084 1.366 . S
C2084 C2083 1.366 . S
C2084 C2085 1.414 . S
C2084 C2087 1.499 . S
C2085 H2059 0.950 . S
C2085 C2084 1.414 . S
C2085 C2086 1.374 . S
C2086 H2060 0.950 . S
C2086 C2082 1.385 . S
C2086 C2085 1.374 . S
C2087 C2084 1.499 . S
C2087 C2088 1.373 . S
C2087 C2089 1.389 . S
C2088 H2061 0.950 . S
C2088 C2074 1.377 . S
C2088 C2087 1.373 . S
C2089 C2073 1.377 . S
C2089 C2087 1.389 . S
C2089 C2090 1.524 . S
C2090 C2089 1.524 . S
C2090 C2091 1.397 . S
C2090 C2095 1.363 . S
C2091 H2062 0.950 . S
C2091 C2090 1.397 . S
C2091 C2092 1.334 . S
C2092 H2063 0.950 . S
C2092 C2091 1.334 . S
C2092 C2093 1.287 . S
C2093 C2092 1.287 . S
C2093 C2094 1.524 . S
C2093 H2096 0.999 . S
C2094 H2064 0.950 1_455 S
C2094 C2093 1.524 . S
C2094 C2095 1.415 . S
C2095 H2065 0.950 . S
C2095 C2090 1.363 . S
C2095 C2094 1.415 . S
H2096 C2093 0.999 . S
H2097 C2078 0.913 . S
H2098 C2116 0.951 . S
H2099 C2118 0.951 . S
H2100 C2120 0.950 . S
H2101 C2121 0.950 . S
H2102 C2123 0.950 1_554 S
H2103 C2126 0.950 . S
H2104 C2127 0.950 . S
H2105 C2129 0.950 . S
H2106 C2130 0.950 . S
H2107 C2131 0.951 . S
H2108 C2133 0.951 . S
H2109 C2135 0.950 . S
H2110 C2136 0.950 . S
H2111 C2138 0.950 . S
H2112 C2141 0.950 . S
H2113 C2142 0.950 . S
H2114 C2144 0.950 . S
H2115 C2145 0.950 . S
C2116 H2098 0.951 . S
C2116 C2117 1.366 . S
C2116 C2118 1.388 . S
C2117 C2116 1.366 . S
C2117 C2121 1.385 . S
C2118 H2099 0.951 . S
C2118 C2116 1.388 . S
C2118 C2119 1.366 . S
C2119 C2118 1.366 . S
C2119 C2120 1.414 . S
C2119 C2122 1.499 . S
C2120 H2100 0.950 . S
C2120 C2119 1.414 . S
C2120 C2121 1.374 . S
C2121 H2101 0.950 . S
C2121 C2117 1.385 . S
C2121 C2120 1.374 . S
C2122 C2119 1.499 . S
C2122 C2123 1.373 . S
C2122 C2124 1.389 . S
C2123 H2102 0.950 1_556 S
C2123 C2122 1.373 . S
C2123 C2139 1.377 . S
C2124 C2122 1.389 . S
C2124 C2125 1.524 . S
C2124 C2138 1.377 . S
C2125 C2124 1.524 . S
C2125 C2126 1.397 . S
C2125 C2130 1.363 . S
C2126 H2103 0.950 . S
C2126 C2125 1.397 . S
C2126 C2127 1.334 . S
C2127 H2104 0.950 . S
C2127 C2126 1.334 . S
C2127 C2128 1.287 . S
C2128 C2127 1.287 . S
C2128 C2129 1.524 . S
C2128 H2147 0.913 . S
C2129 H2105 0.950 . S
C2129 C2128 1.524 . S
C2129 C2130 1.415 . S
C2130 H2106 0.950 . S
C2130 C2125 1.363 . S
C2130 C2129 1.415 . S
C2131 H2107 0.951 . S
C2131 C2132 1.366 . S
C2131 C2133 1.388 . S
C2132 C2131 1.366 . S
C2132 C2136 1.385 . S
C2133 H2108 0.951 . S
C2133 C2131 1.388 . S
C2133 C2134 1.366 . S
C2134 C2133 1.366 . S
C2134 C2135 1.414 . S
C2134 C2137 1.499 . S
C2135 H2109 0.950 . S
C2135 C2134 1.414 . S
C2135 C2136 1.374 . S
C2136 H2110 0.950 . S
C2136 C2132 1.385 . S
C2136 C2135 1.374 . S
C2137 C2134 1.499 . S
C2137 C2138 1.373 . S
C2137 C2139 1.389 . S
C2138 H2111 0.950 . S
C2138 C2124 1.377 . S
C2138 C2137 1.373 . S
C2139 C2123 1.377 . S
C2139 C2137 1.389 . S
C2139 C2140 1.524 1_556 S
C2140 C2139 1.524 1_554 S
C2140 C2141 1.397 . S
C2140 C2145 1.363 . S
C2141 H2112 0.950 . S
C2141 C2140 1.397 . S
C2141 C2142 1.334 . S
C2142 H2113 0.950 . S
C2142 C2141 1.334 . S
C2142 C2143 1.287 . S
C2143 C2142 1.287 . S
C2143 C2144 1.524 . S
C2143 H2146 0.999 . S
C2144 H2114 0.950 . S
C2144 C2143 1.524 . S
C2144 C2145 1.415 . S
C2145 H2115 0.950 . S
C2145 C2140 1.363 . S
C2145 C2144 1.415 . S
H2146 C2143 0.999 . S
H2147 C2128 0.913 . S
H2148 C2166 0.951 . S
H2149 C2168 0.951 . S
H2150 C2170 0.950 . S
H2151 C2171 0.950 . S
H2152 C2173 0.950 . S
H2153 C2176 0.950 . S
H2154 C2177 0.950 1_455 S
H2155 C2179 0.950 . S
H2156 C2180 0.950 . S
H2157 C2181 0.951 . S
H2158 C2183 0.951 . S
H2159 C2185 0.950 . S
H2160 C2186 0.950 . S
H2161 C2188 0.950 . S
H2162 C2191 0.950 . S
H2163 C2192 0.950 . S
H2164 C2194 0.950 . S
H2165 C2195 0.950 . S
C2166 H2148 0.951 . S
C2166 C2167 1.366 . S
C2166 C2168 1.388 . S
C2167 C2166 1.366 . S
C2167 C2171 1.385 . S
C2168 H2149 0.951 . S
C2168 C2166 1.388 . S
C2168 C2169 1.366 . S
C2169 C2168 1.366 . S
C2169 C2170 1.414 . S
C2169 C2172 1.499 . S
C2170 H2150 0.950 . S
C2170 C2169 1.414 . S
C2170 C2171 1.374 . S
C2171 H2151 0.950 . S
C2171 C2167 1.385 . S
C2171 C2170 1.374 . S
C2172 C2169 1.499 . S
C2172 C2173 1.373 . S
C2172 C2174 1.389 . S
C2173 H2152 0.950 . S
C2173 C2172 1.373 . S
C2173 C2189 1.377 . S
C2174 C2172 1.389 . S
C2174 C2175 1.524 . S
C2174 C2188 1.377 . S
C2175 C2174 1.524 . S
C2175 C2176 1.397 . S
C2175 C2180 1.363 . S
C2176 H2153 0.950 . S
C2176 C2175 1.397 . S
C2176 C2177 1.334 . S
C2177 H2154 0.950 1_655 S
C2177 C2176 1.334 . S
C2177 C2178 1.287 1_655 S
C2178 C2177 1.287 1_455 S
C2178 C2179 1.524 1_455 S
C2178 H2197 0.913 . S
C2179 H2155 0.950 . S
C2179 C2178 1.524 1_655 S
C2179 C2180 1.415 . S
C2180 H2156 0.950 . S
C2180 C2175 1.363 . S
C2180 C2179 1.415 . S
C2181 H2157 0.951 . S
C2181 C2182 1.366 . S
C2181 C2183 1.388 . S
C2182 C2181 1.366 . S
C2182 C2186 1.385 . S
C2183 H2158 0.951 . S
C2183 C2181 1.388 . S
C2183 C2184 1.366 . S
C2184 C2183 1.366 . S
C2184 C2185 1.414 . S
C2184 C2187 1.499 . S
C2185 H2159 0.950 . S
C2185 C2184 1.414 . S
C2185 C2186 1.374 . S
C2186 H2160 0.950 . S
C2186 C2182 1.385 . S
C2186 C2185 1.374 . S
C2187 C2184 1.499 . S
C2187 C2188 1.373 . S
C2187 C2189 1.389 . S
C2188 H2161 0.950 . S
C2188 C2174 1.377 . S
C2188 C2187 1.373 . S
C2189 C2173 1.377 . S
C2189 C2187 1.389 . S
C2189 C2190 1.524 . S
C2190 C2189 1.524 . S
C2190 C2191 1.397 . S
C2190 C2195 1.363 . S
C2191 H2162 0.950 . S
C2191 C2190 1.397 . S
C2191 C2192 1.334 . S
C2192 H2163 0.950 . S
C2192 C2191 1.334 . S
C2192 C2193 1.287 . S
C2193 C2192 1.287 . S
C2193 C2194 1.524 . S
C2193 H2196 0.999 . S
C2194 H2164 0.950 . S
C2194 C2193 1.524 . S
C2194 C2195 1.415 . S
C2195 H2165 0.950 . S
C2195 C2190 1.363 . S
C2195 C2194 1.415 . S
H2196 C2193 0.999 . S
H2197 C2178 0.913 . S
H2198 C2216 0.951 . S
H2199 C2218 0.951 . S
H2200 C2220 0.950 . S
H2201 C2221 0.950 . S
H2202 C2223 0.950 . S
H2203 C2226 0.950 . S
H2204 C2227 0.950 . S
H2205 C2229 0.950 . S
H2206 C2230 0.950 . S
H2207 C2231 0.951 . S
H2208 C2233 0.951 . S
H2209 C2235 0.950 . S
H2210 C2236 0.950 . S
H2211 C2238 0.950 . S
H2212 C2241 0.950 . S
H2213 C2242 0.950 . S
H2214 C2244 0.950 . S
H2215 C2245 0.950 . S
C2216 H2198 0.951 . S
C2216 C2217 1.366 . S
C2216 C2218 1.388 . S
C2217 C2216 1.366 . S
C2217 C2221 1.385 . S
C2218 H2199 0.951 . S
C2218 C2216 1.388 . S
C2218 C2219 1.366 . S
C2219 C2218 1.366 . S
C2219 C2220 1.414 . S
C2219 C2222 1.499 . S
C2220 H2200 0.950 . S
C2220 C2219 1.414 . S
C2220 C2221 1.374 . S
C2221 H2201 0.950 . S
C2221 C2217 1.385 . S
C2221 C2220 1.374 . S
C2222 C2219 1.499 . S
C2222 C2223 1.373 . S
C2222 C2224 1.389 . S
C2223 H2202 0.950 . S
C2223 C2222 1.373 . S
C2223 C2239 1.377 . S
C2224 C2222 1.389 . S
C2224 C2225 1.524 . S
C2224 C2238 1.377 . S
C2225 C2224 1.524 . S
C2225 C2226 1.397 . S
C2225 C2230 1.363 . S
C2226 H2203 0.950 . S
C2226 C2225 1.397 . S
C2226 C2227 1.334 . S
C2227 H2204 0.950 . S
C2227 C2226 1.334 . S
C2227 C2228 1.287 . S
C2228 C2227 1.287 . S
C2228 C2229 1.524 . S
C2228 H2247 0.913 . S
C2229 H2205 0.950 . S
C2229 C2228 1.524 . S
C2229 C2230 1.415 . S
C2230 H2206 0.950 . S
C2230 C2225 1.363 . S
C2230 C2229 1.415 . S
C2231 H2207 0.951 . S
C2231 C2232 1.366 . S
C2231 C2233 1.388 . S
C2232 C2231 1.366 . S
C2232 C2236 1.385 . S
C2233 H2208 0.951 . S
C2233 C2231 1.388 . S
C2233 C2234 1.366 . S
C2234 C2233 1.366 . S
C2234 C2235 1.414 . S
C2234 C2237 1.499 . S
C2235 H2209 0.950 . S
C2235 C2234 1.414 . S
C2235 C2236 1.374 . S
C2236 H2210 0.950 . S
C2236 C2232 1.385 . S
C2236 C2235 1.374 . S
C2237 C2234 1.499 . S
C2237 C2238 1.373 . S
C2237 C2239 1.389 . S
C2238 H2211 0.950 . S
C2238 C2224 1.377 . S
C2238 C2237 1.373 . S
C2239 C2223 1.377 . S
C2239 C2237 1.389 . S
C2239 C2240 1.524 . S
C2240 C2239 1.524 . S
C2240 C2241 1.397 1_554 S
C2240 C2245 1.363 . S
C2241 H2212 0.950 . S
C2241 C2240 1.397 1_556 S
C2241 C2242 1.334 . S
C2242 H2213 0.950 . S
C2242 C2241 1.334 . S
C2242 C2243 1.287 1_655 S
C2243 C2242 1.287 1_455 S
C2243 C2244 1.524 1_556 S
C2243 H2246 0.999 . S
C2244 H2214 0.950 . S
C2244 C2243 1.524 1_554 S
C2244 C2245 1.415 1_455 S
C2245 H2215 0.950 . S
C2245 C2240 1.363 . S
C2245 C2244 1.415 1_655 S
H2246 C2243 0.999 . S
H2247 C2228 0.913 . S
H2248 C2266 0.951 . S
H2249 C2268 0.951 . S
H2250 C2270 0.950 . S
H2251 C2271 0.950 . S
H2252 C2273 0.950 . S
H2253 C2276 0.950 . S
H2254 C2277 0.950 . S
H2255 C2279 0.950 . S
H2256 C2280 0.950 . S
H2257 C2281 0.951 . S
H2258 C2283 0.951 . S
H2259 C2285 0.950 . S
H2260 C2286 0.950 . S
H2261 C2288 0.950 . S
H2262 C2291 0.950 . S
H2263 C2292 0.950 . S
H2264 C2294 0.950 . S
H2265 C2295 0.950 . S
C2266 H2248 0.951 . S
C2266 C2267 1.366 . S
C2266 C2268 1.388 . S
C2267 C2266 1.366 . S
C2267 C2271 1.385 . S
C2268 H2249 0.951 . S
C2268 C2266 1.388 . S
C2268 C2269 1.366 . S
C2269 C2268 1.366 . S
C2269 C2270 1.414 . S
C2269 C2272 1.499 . S
C2270 H2250 0.950 . S
C2270 C2269 1.414 . S
C2270 C2271 1.374 . S
C2271 H2251 0.950 . S
C2271 C2267 1.385 . S
C2271 C2270 1.374 . S
C2272 C2269 1.499 . S
C2272 C2273 1.373 . S
C2272 C2274 1.389 . S
C2273 H2252 0.950 . S
C2273 C2272 1.373 . S
C2273 C2289 1.377 . S
C2274 C2272 1.389 . S
C2274 C2275 1.524 . S
C2274 C2288 1.377 . S
C2275 C2274 1.524 . S
C2275 C2276 1.397 . S
C2275 C2280 1.363 . S
C2276 H2253 0.950 . S
C2276 C2275 1.397 . S
C2276 C2277 1.334 . S
C2277 H2254 0.950 . S
C2277 C2276 1.334 . S
C2277 C2278 1.287 . S
C2278 C2277 1.287 . S
C2278 C2279 1.524 . S
C2278 H2297 0.913 . S
C2279 H2255 0.950 . S
C2279 C2278 1.524 . S
C2279 C2280 1.415 . S
C2280 H2256 0.950 . S
C2280 C2275 1.363 . S
C2280 C2279 1.415 . S
C2281 H2257 0.951 . S
C2281 C2282 1.366 . S
C2281 C2283 1.388 . S
C2282 C2281 1.366 . S
C2282 C2286 1.385 . S
C2283 H2258 0.951 . S
C2283 C2281 1.388 . S
C2283 C2284 1.366 . S
C2284 C2283 1.366 . S
C2284 C2285 1.414 . S
C2284 C2287 1.499 . S
C2285 H2259 0.950 . S
C2285 C2284 1.414 . S
C2285 C2286 1.374 . S
C2286 H2260 0.950 . S
C2286 C2282 1.385 . S
C2286 C2285 1.374 . S
C2287 C2284 1.499 . S
C2287 C2288 1.373 . S
C2287 C2289 1.389 . S
C2288 H2261 0.950 . S
C2288 C2274 1.377 . S
C2288 C2287 1.373 . S
C2289 C2273 1.377 . S
C2289 C2287 1.389 . S
C2289 C2290 1.524 . S
C2290 C2289 1.524 . S
C2290 C2291 1.397 . S
C2290 C2295 1.363 . S
C2291 H2262 0.950 . S
C2291 C2290 1.397 . S
C2291 C2292 1.334 . S
C2292 H2263 0.950 . S
C2292 C2291 1.334 . S
C2292 C2293 1.287 . S
C2293 C2292 1.287 . S
C2293 C2294 1.524 . S
C2293 H2296 0.999 . S
C2294 H2264 0.950 . S
C2294 C2293 1.524 . S
C2294 C2295 1.415 . S
C2295 H2265 0.950 . S
C2295 C2290 1.363 . S
C2295 C2294 1.415 . S
H2296 C2293 0.999 . S
H2297 C2278 0.913 . S
H2298 C2316 0.951 . S
H2299 C2318 0.951 . S
H2300 C2320 0.950 . S
H2301 C2321 0.950 . S
H2302 C2323 0.950 . S
H2303 C2326 0.950 . S
H2304 C2327 0.950 . S
H2305 C2329 0.950 . S
H2306 C2330 0.950 . S
H2307 C2331 0.951 . S
H2308 C2333 0.951 . S
H2309 C2335 0.950 . S
H2310 C2336 0.950 . S
H2311 C2338 0.950 . S
H2312 C2341 0.950 . S
H2313 C2342 0.950 . S
H2314 C2344 0.950 . S
H2315 C2345 0.950 . S
C2316 H2298 0.951 . S
C2316 C2317 1.366 . S
C2316 C2318 1.388 . S
C2317 C2316 1.366 . S
C2317 C2321 1.385 . S
C2318 H2299 0.951 . S
C2318 C2316 1.388 . S
C2318 C2319 1.366 . S
C2319 C2318 1.366 . S
C2319 C2320 1.414 . S
C2319 C2322 1.499 . S
C2320 H2300 0.950 . S
C2320 C2319 1.414 . S
C2320 C2321 1.374 . S
C2321 H2301 0.950 . S
C2321 C2317 1.385 . S
C2321 C2320 1.374 . S
C2322 C2319 1.499 . S
C2322 C2323 1.373 . S
C2322 C2324 1.389 . S
C2323 H2302 0.950 . S
C2323 C2322 1.373 . S
C2323 C2339 1.377 . S
C2324 C2322 1.389 . S
C2324 C2325 1.524 . S
C2324 C2338 1.377 . S
C2325 C2324 1.524 . S
C2325 C2326 1.397 . S
C2325 C2330 1.363 . S
C2326 H2303 0.950 . S
C2326 C2325 1.397 . S
C2326 C2327 1.334 . S
C2327 H2304 0.950 . S
C2327 C2326 1.334 . S
C2327 C2328 1.287 . S
C2328 C2327 1.287 . S
C2328 C2329 1.524 . S
C2328 H2347 0.913 . S
C2329 H2305 0.950 . S
C2329 C2328 1.524 . S
C2329 C2330 1.415 . S
C2330 H2306 0.950 . S
C2330 C2325 1.363 . S
C2330 C2329 1.415 . S
C2331 H2307 0.951 . S
C2331 C2332 1.366 . S
C2331 C2333 1.388 . S
C2332 C2331 1.366 . S
C2332 C2336 1.385 . S
C2333 H2308 0.951 . S
C2333 C2331 1.388 . S
C2333 C2334 1.366 . S
C2334 C2333 1.366 . S
C2334 C2335 1.414 . S
C2334 C2337 1.499 . S
C2335 H2309 0.950 . S
C2335 C2334 1.414 . S
C2335 C2336 1.374 . S
C2336 H2310 0.950 . S
C2336 C2332 1.385 . S
C2336 C2335 1.374 . S
C2337 C2334 1.499 . S
C2337 C2338 1.373 . S
C2337 C2339 1.389 . S
C2338 H2311 0.950 . S
C2338 C2324 1.377 . S
C2338 C2337 1.373 . S
C2339 C2323 1.377 . S
C2339 C2337 1.389 . S
C2339 C2340 1.524 . S
C2340 C2339 1.524 . S
C2340 C2341 1.397 . S
C2340 C2345 1.363 . S
C2341 H2312 0.950 . S
C2341 C2340 1.397 . S
C2341 C2342 1.334 . S
C2342 H2313 0.950 . S
C2342 C2341 1.334 . S
C2342 C2343 1.287 . S
C2343 C2342 1.287 . S
C2343 C2344 1.524 . S
C2343 H2346 0.999 . S
C2344 H2314 0.950 . S
C2344 C2343 1.524 . S
C2344 C2345 1.415 . S
C2345 H2315 0.950 . S
C2345 C2340 1.363 . S
C2345 C2344 1.415 . S
H2346 C2343 0.999 . S
H2347 C2328 0.913 . S
H2348 C2366 0.951 . S
H2349 C2368 0.951 . S
H2350 C2370 0.950 . S
H2351 C2371 0.950 . S
H2352 C2373 0.950 . S
H2353 C2376 0.950 . S
H2354 C2377 0.950 1_455 S
H2355 C2379 0.958 . S
H2356 C2380 0.950 . S
H2357 C2381 0.951 . S
H2358 C2383 0.951 . S
H2359 C2385 0.950 . S
H2360 C2386 0.950 . S
H2361 C2388 0.950 . S
H2362 C2391 0.950 . S
H2363 C2392 0.950 . S
H2364 C2394 0.950 . S
H2365 C2395 0.950 . S
C2366 H2348 0.951 . S
C2366 C2367 1.366 . S
C2366 C2368 1.388 . S
C2367 C2366 1.366 . S
C2367 C2371 1.385 . S
C2368 H2349 0.951 . S
C2368 C2366 1.388 . S
C2368 C2369 1.366 . S
C2369 C2368 1.366 . S
C2369 C2370 1.414 . S
C2369 C2372 1.499 . S
C2370 H2350 0.950 . S
C2370 C2369 1.414 . S
C2370 C2371 1.374 . S
C2371 H2351 0.950 . S
C2371 C2367 1.385 . S
C2371 C2370 1.374 . S
C2372 C2369 1.499 . S
C2372 C2373 1.373 . S
C2372 C2374 1.389 . S
C2373 H2352 0.950 . S
C2373 C2372 1.373 . S
C2373 C2389 1.377 . S
C2374 C2372 1.389 . S
C2374 C2375 1.524 . S
C2374 C2388 1.377 . S
C2375 C2374 1.524 . S
C2375 C2376 1.397 . S
C2375 C2380 1.363 . S
C2376 H2353 0.950 . S
C2376 C2375 1.397 . S
C2376 C2377 1.334 . S
C2377 H2354 0.950 1_655 S
C2377 C2376 1.334 . S
C2377 C2378 1.287 1_655 S
C2378 C2377 1.287 1_455 S
C2378 C2379 1.524 1_455 S
C2378 H2397 0.913 . S
C2379 H2355 0.958 . S
C2379 C2378 1.524 1_655 S
C2379 C2380 1.415 . S
C2380 H2356 0.950 . S
C2380 C2375 1.363 . S
C2380 C2379 1.415 . S
C2381 H2357 0.951 . S
C2381 C2382 1.366 . S
C2381 C2383 1.388 . S
C2382 C2381 1.366 . S
C2382 C2386 1.385 . S
C2383 H2358 0.951 . S
C2383 C2381 1.388 . S
C2383 C2384 1.366 . S
C2384 C2383 1.366 . S
C2384 C2385 1.414 . S
C2384 C2387 1.499 . S
C2385 H2359 0.950 . S
C2385 C2384 1.414 . S
C2385 C2386 1.374 . S
C2386 H2360 0.950 . S
C2386 C2382 1.385 . S
C2386 C2385 1.374 . S
C2387 C2384 1.499 . S
C2387 C2388 1.373 . S
C2387 C2389 1.389 . S
C2388 H2361 0.950 . S
C2388 C2374 1.377 . S
C2388 C2387 1.373 . S
C2389 C2373 1.377 . S
C2389 C2387 1.389 . S
C2389 C2390 1.524 . S
C2390 C2389 1.524 . S
C2390 C2391 1.397 . S
C2390 C2395 1.363 . S
C2391 H2362 0.950 . S
C2391 C2390 1.397 . S
C2391 C2392 1.334 . S
C2392 H2363 0.950 . S
C2392 C2391 1.334 . S
C2392 C2393 1.287 . S
C2393 C2392 1.287 . S
C2393 C2394 1.524 . S
C2393 H2396 0.999 . S
C2394 H2364 0.950 . S
C2394 C2393 1.524 . S
C2394 C2395 1.415 . S
C2395 H2365 0.950 . S
C2395 C2390 1.363 . S
C2395 C2394 1.415 . S
H2396 C2393 0.999 . S
H2397 C2378 0.913 . S
H2398 C2416 0.951 . S
H2399 C2418 0.951 . S
H2400 C2420 0.950 . S
H2401 C2421 0.950 . S
H2402 C2423 0.950 . S
H2403 C2426 0.950 . S
H2404 C2427 0.950 . S
H2405 C2429 0.950 . S
H2406 C2430 0.950 . S
H2407 C2431 0.951 . S
H2408 C2433 0.951 . S
H2409 C2435 0.950 . S
H2410 C2436 0.950 . S
H2411 C2438 0.950 . S
H2412 C2441 0.950 . S
H2413 C2442 0.950 . S
H2414 C2444 0.950 . S
H2415 C2445 0.950 . S
C2416 H2398 0.951 . S
C2416 C2417 1.366 . S
C2416 C2418 1.388 . S
C2417 C2416 1.366 . S
C2417 C2421 1.385 . S
C2418 H2399 0.951 . S
C2418 C2416 1.388 . S
C2418 C2419 1.366 . S
C2419 C2418 1.366 . S
C2419 C2420 1.414 . S
C2419 C2422 1.499 . S
C2420 H2400 0.950 . S
C2420 C2419 1.414 . S
C2420 C2421 1.374 . S
C2421 H2401 0.950 . S
C2421 C2417 1.385 . S
C2421 C2420 1.374 . S
C2422 C2419 1.499 . S
C2422 C2423 1.373 . S
C2422 C2424 1.389 . S
C2423 H2402 0.950 . S
C2423 C2422 1.373 . S
C2423 C2439 1.377 . S
C2424 C2422 1.389 . S
C2424 C2425 1.524 . S
C2424 C2438 1.377 . S
C2425 C2424 1.524 . S
C2425 C2426 1.397 . S
C2425 C2430 1.363 . S
C2426 H2403 0.950 . S
C2426 C2425 1.397 . S
C2426 C2427 1.334 . S
C2427 H2404 0.950 . S
C2427 C2426 1.334 . S
C2427 C2428 1.287 1_655 S
C2428 C2427 1.287 1_455 S
C2428 C2429 1.524 . S
C2428 H2447 0.913 . S
C2429 H2405 0.950 . S
C2429 C2428 1.524 . S
C2429 C2430 1.415 1_455 S
C2430 H2406 0.950 . S
C2430 C2425 1.363 . S
C2430 C2429 1.415 1_655 S
C2431 H2407 0.951 . S
C2431 C2432 1.366 . S
C2431 C2433 1.388 . S
C2432 C2431 1.366 . S
C2432 C2436 1.385 . S
C2433 H2408 0.951 . S
C2433 C2431 1.388 . S
C2433 C2434 1.366 . S
C2434 C2433 1.366 . S
C2434 C2435 1.414 . S
C2434 C2437 1.499 . S
C2435 H2409 0.950 . S
C2435 C2434 1.414 . S
C2435 C2436 1.374 . S
C2436 H2410 0.950 . S
C2436 C2432 1.385 . S
C2436 C2435 1.374 . S
C2437 C2434 1.499 . S
C2437 C2438 1.373 . S
C2437 C2439 1.389 . S
C2438 H2411 0.950 . S
C2438 C2424 1.377 . S
C2438 C2437 1.373 . S
C2439 C2423 1.377 . S
C2439 C2437 1.389 . S
C2439 C2440 1.524 . S
C2440 C2439 1.524 . S
C2440 C2441 1.397 . S
C2440 C2445 1.363 . S
C2441 H2412 0.950 . S
C2441 C2440 1.397 . S
C2441 C2442 1.334 . S
C2442 H2413 0.950 . S
C2442 C2441 1.334 . S
C2442 C2443 1.287 . S
C2443 C2442 1.287 . S
C2443 C2444 1.524 . S
C2443 H2446 0.999 . S
C2444 H2414 0.950 . S
C2444 C2443 1.524 . S
C2444 C2445 1.415 . S
C2445 H2415 0.950 . S
C2445 C2440 1.363 . S
C2445 C2444 1.415 . S
H2446 C2443 0.999 . S
H2447 C2428 0.913 . S
H2448 C2466 0.951 . S
H2449 C2468 0.951 . S
H2450 C2470 0.950 . S
H2451 C2471 0.950 . S
H2452 C2473 0.950 . S
H2453 C2476 0.950 . S
H2454 C2477 0.950 . S
H2455 C2479 0.950 . S
H2456 C2480 0.950 . S
H2457 C2481 0.951 . S
H2458 C2483 0.951 . S
H2459 C2485 0.950 . S
H2460 C2486 0.950 . S
H2461 C2488 0.950 . S
H2462 C2491 0.950 . S
H2463 C2492 0.950 . S
H2464 C2494 0.950 . S
H2465 C2495 0.950 . S
C2466 H2448 0.951 . S
C2466 C2467 1.366 . S
C2466 C2468 1.388 . S
C2467 C2466 1.366 . S
C2467 C2471 1.385 . S
C2468 H2449 0.951 . S
C2468 C2466 1.388 . S
C2468 C2469 1.366 . S
C2469 C2468 1.366 . S
C2469 C2470 1.414 . S
C2469 C2472 1.499 . S
C2470 H2450 0.950 . S
C2470 C2469 1.414 . S
C2470 C2471 1.374 . S
C2471 H2451 0.950 . S
C2471 C2467 1.385 . S
C2471 C2470 1.374 . S
C2472 C2469 1.499 . S
C2472 C2473 1.373 . S
C2472 C2474 1.389 . S
C2473 H2452 0.950 . S
C2473 C2472 1.373 . S
C2473 C2489 1.377 . S
C2474 C2472 1.389 . S
C2474 C2475 1.524 . S
C2474 C2488 1.377 . S
C2475 C2474 1.524 . S
C2475 C2476 1.397 . S
C2475 C2480 1.363 . S
C2476 H2453 0.950 . S
C2476 C2475 1.397 . S
C2476 C2477 1.334 . S
C2477 H2454 0.950 . S
C2477 C2476 1.334 . S
C2477 C2478 1.287 . S
C2478 C2477 1.287 . S
C2478 C2479 1.524 . S
C2478 H2497 0.913 . S
C2479 H2455 0.950 . S
C2479 C2478 1.524 . S
C2479 C2480 1.415 . S
C2480 H2456 0.950 . S
C2480 C2475 1.363 . S
C2480 C2479 1.415 . S
C2481 H2457 0.951 . S
C2481 C2482 1.366 . S
C2481 C2483 1.388 . S
C2482 C2481 1.366 . S
C2482 C2486 1.385 . S
C2483 H2458 0.951 . S
C2483 C2481 1.388 . S
C2483 C2484 1.366 . S
C2484 C2483 1.366 . S
C2484 C2485 1.414 . S
C2484 C2487 1.499 . S
C2485 H2459 0.950 . S
C2485 C2484 1.414 . S
C2485 C2486 1.374 . S
C2486 H2460 0.950 . S
C2486 C2482 1.385 . S
C2486 C2485 1.374 . S
C2487 C2484 1.499 . S
C2487 C2488 1.373 . S
C2487 C2489 1.389 . S
C2488 H2461 0.950 . S
C2488 C2474 1.377 . S
C2488 C2487 1.373 . S
C2489 C2473 1.377 . S
C2489 C2487 1.389 . S
C2489 C2490 1.524 . S
C2490 C2489 1.524 . S
C2490 C2491 1.397 . S
C2490 C2495 1.363 . S
C2491 H2462 0.950 . S
C2491 C2490 1.397 . S
C2491 C2492 1.334 . S
C2492 H2463 0.950 . S
C2492 C2491 1.334 . S
C2492 C2493 1.287 . S
C2493 C2492 1.287 . S
C2493 C2494 1.524 . S
C2493 H2496 0.999 . S
C2494 H2464 0.950 . S
C2494 C2493 1.524 . S
C2494 C2495 1.415 . S
C2495 H2465 0.950 . S
C2495 C2490 1.363 . S
C2495 C2494 1.415 . S
H2496 C2493 0.999 . S
H2497 C2478 0.913 . S
H2498 C2516 0.951 . S
H2499 C2518 0.951 . S
H2500 C2520 0.950 . S
H2501 C2521 0.950 . S
H2502 C2523 0.950 . S
H2503 C2526 0.950 . S
H2504 C2527 0.950 . S
H2505 C2529 0.950 . S
H2506 C2530 0.950 . S
H2507 C2531 0.951 . S
H2508 C2533 0.951 . S
H2509 C2535 0.950 . S
H2510 C2536 0.950 . S
H2511 C2538 0.950 . S
H2512 C2541 0.950 . S
H2513 C2542 0.950 . S
H2514 C2544 0.950 . S
H2515 C2545 0.950 . S
C2516 H2498 0.951 . S
C2516 C2517 1.366 . S
C2516 C2518 1.388 . S
C2517 C2516 1.366 . S
C2517 C2521 1.385 . S
C2518 H2499 0.951 . S
C2518 C2516 1.388 . S
C2518 C2519 1.366 . S
C2519 C2518 1.366 . S
C2519 C2520 1.414 . S
C2519 C2522 1.499 . S
C2520 H2500 0.950 . S
C2520 C2519 1.414 . S
C2520 C2521 1.374 . S
C2521 H2501 0.950 . S
C2521 C2517 1.385 . S
C2521 C2520 1.374 . S
C2522 C2519 1.499 . S
C2522 C2523 1.373 . S
C2522 C2524 1.389 . S
C2523 H2502 0.950 . S
C2523 C2522 1.373 . S
C2523 C2539 1.377 . S
C2524 C2522 1.389 . S
C2524 C2525 1.524 . S
C2524 C2538 1.377 . S
C2525 C2524 1.524 . S
C2525 C2526 1.397 . S
C2525 C2530 1.363 . S
C2526 H2503 0.950 . S
C2526 C2525 1.397 . S
C2526 C2527 1.334 . S
C2527 H2504 0.950 . S
C2527 C2526 1.334 . S
C2527 C2528 1.287 . S
C2528 C2527 1.287 . S
C2528 C2529 1.524 . S
C2528 H2547 0.913 . S
C2529 H2505 0.950 . S
C2529 C2528 1.524 . S
C2529 C2530 1.415 . S
C2530 H2506 0.950 . S
C2530 C2525 1.363 . S
C2530 C2529 1.415 . S
C2531 H2507 0.951 . S
C2531 C2532 1.366 . S
C2531 C2533 1.388 . S
C2532 C2531 1.366 . S
C2532 C2536 1.385 . S
C2533 H2508 0.951 . S
C2533 C2531 1.388 . S
C2533 C2534 1.366 . S
C2534 C2533 1.366 . S
C2534 C2535 1.414 . S
C2534 C2537 1.499 . S
C2535 H2509 0.950 . S
C2535 C2534 1.414 . S
C2535 C2536 1.374 . S
C2536 H2510 0.950 . S
C2536 C2532 1.385 . S
C2536 C2535 1.374 . S
C2537 C2534 1.499 . S
C2537 C2538 1.373 . S
C2537 C2539 1.389 . S
C2538 H2511 0.950 . S
C2538 C2524 1.377 . S
C2538 C2537 1.373 . S
C2539 C2523 1.377 . S
C2539 C2537 1.389 . S
C2539 C2540 1.524 . S
C2540 C2539 1.524 . S
C2540 C2541 1.397 . S
C2540 C2545 1.363 . S
C2541 H2512 0.950 . S
C2541 C2540 1.397 . S
C2541 C2542 1.334 . S
C2542 H2513 0.950 . S
C2542 C2541 1.334 . S
C2542 C2543 1.287 . S
C2543 C2542 1.287 . S
C2543 C2544 1.524 . S
C2543 H2546 0.999 . S
C2544 H2514 0.950 . S
C2544 C2543 1.524 . S
C2544 C2545 1.415 . S
C2545 H2515 0.950 . S
C2545 C2540 1.363 . S
C2545 C2544 1.415 . S
H2546 C2543 0.999 . S
H2547 C2528 0.913 . S
H2548 C2566 0.951 . S
H2549 C2568 0.951 . S
H2550 C2570 0.950 . S
H2551 C2571 0.950 . S
H2552 C2573 0.950 . S
H2553 C2576 0.950 . S
H2554 C2577 0.950 . S
H2555 C2579 0.950 . S
H2556 C2580 0.950 . S
H2557 C2581 0.951 . S
H2558 C2583 0.951 . S
H2559 C2585 0.950 . S
H2560 C2586 0.950 . S
H2561 C2588 0.950 . S
H2562 C2591 0.950 . S
H2563 C2592 0.950 . S
H2564 C2594 0.950 . S
H2565 C2595 0.950 . S
C2566 H2548 0.951 . S
C2566 C2567 1.366 . S
C2566 C2568 1.388 . S
C2567 C2566 1.366 . S
C2567 C2571 1.385 . S
C2568 H2549 0.951 . S
C2568 C2566 1.388 . S
C2568 C2569 1.366 . S
C2569 C2568 1.366 . S
C2569 C2570 1.414 . S
C2569 C2572 1.499 . S
C2570 H2550 0.950 . S
C2570 C2569 1.414 . S
C2570 C2571 1.374 . S
C2571 H2551 0.950 . S
C2571 C2567 1.385 . S
C2571 C2570 1.374 . S
C2572 C2569 1.499 . S
C2572 C2573 1.373 . S
C2572 C2574 1.389 . S
C2573 H2552 0.950 . S
C2573 C2572 1.373 . S
C2573 C2589 1.377 . S
C2574 C2572 1.389 . S
C2574 C2575 1.524 . S
C2574 C2588 1.377 . S
C2575 C2574 1.524 . S
C2575 C2576 1.397 . S
C2575 C2580 1.363 . S
C2576 H2553 0.950 . S
C2576 C2575 1.397 . S
C2576 C2577 1.334 . S
C2577 H2554 0.950 . S
C2577 C2576 1.334 . S
C2577 C2578 1.287 . S
C2578 C2577 1.287 . S
C2578 C2579 1.524 . S
C2578 H2597 0.913 . S
C2579 H2555 0.950 . S
C2579 C2578 1.524 . S
C2579 C2580 1.415 . S
C2580 H2556 0.950 . S
C2580 C2575 1.363 . S
C2580 C2579 1.415 . S
C2581 H2557 0.951 . S
C2581 C2582 1.366 . S
C2581 C2583 1.388 . S
C2582 C2581 1.366 . S
C2582 C2586 1.385 . S
C2583 H2558 0.951 . S
C2583 C2581 1.388 . S
C2583 C2584 1.366 . S
C2584 C2583 1.366 . S
C2584 C2585 1.414 . S
C2584 C2587 1.499 . S
C2585 H2559 0.950 . S
C2585 C2584 1.414 . S
C2585 C2586 1.374 . S
C2586 H2560 0.950 . S
C2586 C2582 1.385 . S
C2586 C2585 1.374 . S
C2587 C2584 1.499 . S
C2587 C2588 1.373 . S
C2587 C2589 1.389 . S
C2588 H2561 0.950 . S
C2588 C2574 1.377 . S
C2588 C2587 1.373 . S
C2589 C2573 1.377 . S
C2589 C2587 1.389 . S
C2589 C2590 1.524 . S
C2590 C2589 1.524 . S
C2590 C2591 1.397 . S
C2590 C2595 1.363 . S
C2591 H2562 0.950 . S
C2591 C2590 1.397 . S
C2591 C2592 1.334 . S
C2592 H2563 0.950 . S
C2592 C2591 1.334 . S
C2592 C2593 1.287 . S
C2593 C2592 1.287 . S
C2593 C2594 1.524 . S
C2593 H2596 0.999 . S
C2594 H2564 0.950 . S
C2594 C2593 1.524 . S
C2594 C2595 1.415 . S
C2595 H2565 0.950 . S
C2595 C2590 1.363 . S
C2595 C2594 1.415 . S
H2596 C2593 0.999 . S
H2597 C2578 0.913 . S
H2598 C2616 0.951 . S
H2599 C2618 0.951 . S
H2600 C2620 0.950 . S
H2601 C2621 0.950 . S
H2602 C2623 0.950 . S
H2603 C2626 0.950 . S
H2604 C2627 0.950 . S
H2605 C2629 0.950 . S
H2606 C2630 0.950 . S
H2607 C2631 0.951 . S
H2608 C2633 0.951 . S
H2609 C2635 0.950 . S
H2610 C2636 0.950 . S
H2611 C2638 0.950 . S
H2612 C2641 0.950 . S
H2613 C2642 0.950 . S
H2614 C2644 0.950 . S
H2615 C2645 0.950 . S
C2616 H2598 0.951 . S
C2616 C2617 1.366 . S
C2616 C2618 1.388 . S
C2617 C2616 1.366 . S
C2617 C2621 1.385 . S
C2618 H2599 0.951 . S
C2618 C2616 1.388 . S
C2618 C2619 1.366 . S
C2619 C2618 1.366 . S
C2619 C2620 1.414 . S
C2619 C2622 1.499 . S
C2620 H2600 0.950 . S
C2620 C2619 1.414 . S
C2620 C2621 1.374 . S
C2621 H2601 0.950 . S
C2621 C2617 1.385 . S
C2621 C2620 1.374 . S
C2622 C2619 1.499 . S
C2622 C2623 1.373 . S
C2622 C2624 1.389 . S
C2623 H2602 0.950 . S
C2623 C2622 1.373 . S
C2623 C2639 1.377 . S
C2624 C2622 1.389 . S
C2624 C2625 1.524 . S
C2624 C2638 1.377 . S
C2625 C2624 1.524 . S
C2625 C2626 1.397 . S
C2625 C2630 1.363 . S
C2626 H2603 0.950 . S
C2626 C2625 1.397 . S
C2626 C2627 1.334 . S
C2627 H2604 0.950 . S
C2627 C2626 1.334 . S
C2627 C2628 1.287 . S
C2628 C2627 1.287 . S
C2628 C2629 1.524 . S
C2628 H2647 0.913 . S
C2629 H2605 0.950 . S
C2629 C2628 1.524 . S
C2629 C2630 1.415 . S
C2630 H2606 0.950 . S
C2630 C2625 1.363 . S
C2630 C2629 1.415 . S
C2631 H2607 0.951 . S
C2631 C2632 1.366 . S
C2631 C2633 1.388 . S
C2632 C2631 1.366 . S
C2632 C2636 1.385 . S
C2633 H2608 0.951 . S
C2633 C2631 1.388 . S
C2633 C2634 1.366 . S
C2634 C2633 1.366 . S
C2634 C2635 1.414 . S
C2634 C2637 1.499 . S
C2635 H2609 0.950 . S
C2635 C2634 1.414 . S
C2635 C2636 1.374 . S
C2636 H2610 0.950 . S
C2636 C2632 1.385 . S
C2636 C2635 1.374 . S
C2637 C2634 1.499 . S
C2637 C2638 1.373 . S
C2637 C2639 1.389 . S
C2638 H2611 0.950 . S
C2638 C2624 1.377 . S
C2638 C2637 1.373 . S
C2639 C2623 1.377 . S
C2639 C2637 1.389 . S
C2639 C2640 1.524 . S
C2640 C2639 1.524 . S
C2640 C2641 1.397 . S
C2640 C2645 1.363 . S
C2641 H2612 0.950 . S
C2641 C2640 1.397 . S
C2641 C2642 1.334 . S
C2642 H2613 0.950 . S
C2642 C2641 1.334 . S
C2642 C2643 1.287 . S
C2643 C2642 1.287 . S
C2643 C2644 1.524 . S
C2643 H2646 0.999 . S
C2644 H2614 0.950 . S
C2644 C2643 1.524 . S
C2644 C2645 1.415 . S
C2645 H2615 0.950 . S
C2645 C2640 1.363 . S
C2645 C2644 1.415 . S
H2646 C2643 0.999 . S
H2647 C2628 0.913 . S
H2648 C2666 0.951 . S
H2649 C2668 0.951 . S
H2650 C2670 0.950 . S
H2651 C2671 0.950 . S
H2652 C2673 0.950 . S
H2653 C2676 0.950 . S
H2654 C2677 0.950 . S
H2655 C2679 0.950 . S
H2656 C2680 0.950 . S
H2657 C2681 0.951 . S
H2658 C2683 0.951 . S
H2659 C2685 0.950 . S
H2660 C2686 0.950 . S
H2661 C2688 0.950 . S
H2662 C2691 0.950 . S
H2663 C2692 0.950 . S
H2664 C2694 0.950 . S
H2665 C2695 0.950 . S
C2666 H2648 0.951 . S
C2666 C2667 1.366 . S
C2666 C2668 1.388 . S
C2667 C2666 1.366 . S
C2667 C2671 1.385 . S
C2668 H2649 0.951 . S
C2668 C2666 1.388 . S
C2668 C2669 1.366 . S
C2669 C2668 1.366 . S
C2669 C2670 1.414 . S
C2669 C2672 1.499 . S
C2670 H2650 0.950 . S
C2670 C2669 1.414 . S
C2670 C2671 1.374 . S
C2671 H2651 0.950 . S
C2671 C2667 1.385 . S
C2671 C2670 1.374 . S
C2672 C2669 1.499 . S
C2672 C2673 1.373 . S
C2672 C2674 1.389 . S
C2673 H2652 0.950 . S
C2673 C2672 1.373 . S
C2673 C2689 1.377 . S
C2674 C2672 1.389 . S
C2674 C2675 1.524 . S
C2674 C2688 1.377 . S
C2675 C2674 1.524 . S
C2675 C2676 1.397 . S
C2675 C2680 1.363 . S
C2676 H2653 0.950 . S
C2676 C2675 1.397 . S
C2676 C2677 1.334 . S
C2677 H2654 0.950 . S
C2677 C2676 1.334 . S
C2677 C2678 1.287 . S
C2678 C2677 1.287 . S
C2678 C2679 1.524 . S
C2678 H2697 0.913 . S
C2679 H2655 0.950 . S
C2679 C2678 1.524 . S
C2679 C2680 1.415 . S
C2680 H2656 0.950 . S
C2680 C2675 1.363 . S
C2680 C2679 1.415 . S
C2681 H2657 0.951 . S
C2681 C2682 1.366 . S
C2681 C2683 1.388 . S
C2682 C2681 1.366 . S
C2682 C2686 1.385 . S
C2683 H2658 0.951 . S
C2683 C2681 1.388 . S
C2683 C2684 1.366 . S
C2684 C2683 1.366 . S
C2684 C2685 1.414 . S
C2684 C2687 1.499 . S
C2685 H2659 0.950 . S
C2685 C2684 1.414 . S
C2685 C2686 1.374 . S
C2686 H2660 0.950 . S
C2686 C2682 1.385 . S
C2686 C2685 1.374 . S
C2687 C2684 1.499 . S
C2687 C2688 1.373 . S
C2687 C2689 1.389 . S
C2688 H2661 0.950 . S
C2688 C2674 1.377 . S
C2688 C2687 1.373 . S
C2689 C2673 1.377 . S
C2689 C2687 1.389 . S
C2689 C2690 1.524 . S
C2690 C2689 1.524 . S
C2690 C2691 1.397 . S
C2690 C2695 1.363 . S
C2691 H2662 0.950 . S
C2691 C2690 1.397 . S
C2691 C2692 1.334 . S
C2692 H2663 0.950 . S
C2692 C2691 1.334 . S
C2692 C2693 1.287 . S
C2693 C2692 1.287 . S
C2693 C2694 1.524 . S
C2693 H2696 0.999 . S
C2694 H2664 0.950 . S
C2694 C2693 1.524 . S
C2694 C2695 1.415 . S
C2695 H2665 0.950 . S
C2695 C2690 1.363 . S
C2695 C2694 1.415 . S
H2696 C2693 0.999 . S
H2697 C2678 0.913 . S
H2698 C2716 0.951 . S
H2699 C2718 0.951 . S
H2700 C2720 0.950 1_554 S
H2701 C2721 0.950 1_554 S
H2702 C2723 0.950 . S
H2703 C2726 0.950 . S
H2704 C2727 0.950 . S
H2705 C2729 0.950 . S
H2706 C2730 0.950 . S
H2707 C2731 0.951 1_554 S
H2708 C2733 0.951 1_554 S
H2709 C2735 0.950 . S
H2710 C2736 0.950 . S
H2711 C2738 0.950 . S
H2712 C2741 0.950 . S
H2713 C2742 0.950 . S
H2714 C2744 0.950 . S
H2715 C2745 0.950 . S
C2716 H2698 0.951 . S
C2716 C2717 1.366 . S
C2716 C2718 1.388 . S
C2717 C2716 1.366 . S
C2717 C2721 1.385 . S
C2718 H2699 0.951 . S
C2718 C2716 1.388 . S
C2718 C2719 1.366 . S
C2719 C2718 1.366 . S
C2719 C2720 1.414 . S
C2719 C2722 1.499 . S
C2720 H2700 0.950 1_556 S
C2720 C2719 1.414 . S
C2720 C2721 1.374 . S
C2721 H2701 0.950 1_556 S
C2721 C2717 1.385 . S
C2721 C2720 1.374 . S
C2722 C2719 1.499 . S
C2722 C2723 1.373 . S
C2722 C2724 1.389 . S
C2723 H2702 0.950 . S
C2723 C2722 1.373 . S
C2723 C2739 1.377 . S
C2724 C2722 1.389 . S
C2724 C2725 1.524 . S
C2724 C2738 1.377 . S
C2725 C2724 1.524 . S
C2725 C2726 1.397 . S
C2725 C2730 1.363 . S
C2726 H2703 0.950 . S
C2726 C2725 1.397 . S
C2726 C2727 1.334 . S
C2727 H2704 0.950 . S
C2727 C2726 1.334 . S
C2727 C2728 1.287 . S
C2728 C2727 1.287 . S
C2728 C2729 1.524 . S
C2728 H2747 0.913 . S
C2729 H2705 0.950 . S
C2729 C2728 1.524 . S
C2729 C2730 1.415 . S
C2730 H2706 0.950 . S
C2730 C2725 1.363 . S
C2730 C2729 1.415 . S
C2731 H2707 0.951 1_556 S
C2731 C2732 1.366 . S
C2731 C2733 1.388 . S
C2732 C2731 1.366 . S
C2732 C2736 1.385 . S
C2733 H2708 0.951 1_556 S
C2733 C2731 1.388 . S
C2733 C2734 1.366 . S
C2734 C2733 1.366 . S
C2734 C2735 1.414 . S
C2734 C2737 1.499 . S
C2735 H2709 0.950 . S
C2735 C2734 1.414 . S
C2735 C2736 1.374 . S
C2736 H2710 0.950 . S
C2736 C2732 1.385 . S
C2736 C2735 1.374 . S
C2737 C2734 1.499 . S
C2737 C2738 1.373 . S
C2737 C2739 1.389 . S
C2738 H2711 0.950 . S
C2738 C2724 1.377 . S
C2738 C2737 1.373 . S
C2739 C2723 1.377 . S
C2739 C2737 1.389 . S
C2739 C2740 1.524 . S
C2740 C2739 1.524 . S
C2740 C2741 1.397 . S
C2740 C2745 1.363 1_556 S
C2741 H2712 0.950 . S
C2741 C2740 1.397 . S
C2741 C2742 1.334 . S
C2742 H2713 0.950 . S
C2742 C2741 1.334 . S
C2742 C2743 1.287 1_556 S
C2743 C2742 1.287 1_554 S
C2743 C2744 1.524 . S
C2743 H2746 0.999 . S
C2744 H2714 0.950 . S
C2744 C2743 1.524 . S
C2744 C2745 1.415 . S
C2745 H2715 0.950 . S
C2745 C2740 1.363 1_554 S
C2745 C2744 1.415 . S
H2746 C2743 0.999 . S
H2747 C2728 0.913 . S
H2748 C2766 0.951 . S
H2749 C2768 0.951 . S
H2750 C2770 0.950 . S
H2751 C2771 0.950 . S
H2752 C2773 0.950 . S
H2753 C2776 0.950 . S
H2754 C2777 0.950 . S
H2755 C2779 0.950 . S
H2756 C2780 0.950 . S
H2757 C2781 0.951 . S
H2758 C2783 0.951 . S
H2759 C2785 0.950 . S
H2760 C2786 0.950 . S
H2761 C2788 0.950 . S
H2762 C2791 0.950 . S
H2763 C2792 0.950 . S
H2764 C2794 0.950 . S
H2765 C2795 0.950 . S
C2766 H2748 0.951 . S
C2766 C2767 1.366 . S
C2766 C2768 1.388 . S
C2767 C2766 1.366 . S
C2767 C2771 1.385 . S
C2768 H2749 0.951 . S
C2768 C2766 1.388 . S
C2768 C2769 1.366 . S
C2769 C2768 1.366 . S
C2769 C2770 1.414 . S
C2769 C2772 1.499 . S
C2770 H2750 0.950 . S
C2770 C2769 1.414 . S
C2770 C2771 1.374 . S
C2771 H2751 0.950 . S
C2771 C2767 1.385 . S
C2771 C2770 1.374 . S
C2772 C2769 1.499 . S
C2772 C2773 1.373 . S
C2772 C2774 1.389 . S
C2773 H2752 0.950 . S
C2773 C2772 1.373 . S
C2773 C2789 1.377 . S
C2774 C2772 1.389 . S
C2774 C2775 1.524 . S
C2774 C2788 1.377 . S
C2775 C2774 1.524 . S
C2775 C2776 1.397 . S
C2775 C2780 1.363 . S
C2776 H2753 0.950 . S
C2776 C2775 1.397 . S
C2776 C2777 1.334 . S
C2777 H2754 0.950 . S
C2777 C2776 1.334 . S
C2777 C2778 1.287 . S
C2778 C2777 1.287 . S
C2778 C2779 1.524 . S
C2778 H2797 0.913 . S
C2779 H2755 0.950 . S
C2779 C2778 1.524 . S
C2779 C2780 1.415 . S
C2780 H2756 0.950 . S
C2780 C2775 1.363 . S
C2780 C2779 1.415 . S
C2781 H2757 0.951 . S
C2781 C2782 1.366 . S
C2781 C2783 1.388 . S
C2782 C2781 1.366 . S
C2782 C2786 1.385 . S
C2783 H2758 0.951 . S
C2783 C2781 1.388 . S
C2783 C2784 1.366 . S
C2784 C2783 1.366 . S
C2784 C2785 1.414 . S
C2784 C2787 1.499 . S
C2785 H2759 0.950 . S
C2785 C2784 1.414 . S
C2785 C2786 1.374 . S
C2786 H2760 0.950 . S
C2786 C2782 1.385 . S
C2786 C2785 1.374 . S
C2787 C2784 1.499 . S
C2787 C2788 1.373 . S
C2787 C2789 1.389 . S
C2788 H2761 0.950 . S
C2788 C2774 1.377 . S
C2788 C2787 1.373 . S
C2789 C2773 1.377 . S
C2789 C2787 1.389 . S
C2789 C2790 1.524 . S
C2790 C2789 1.524 . S
C2790 C2791 1.397 . S
C2790 C2795 1.363 . S
C2791 H2762 0.950 . S
C2791 C2790 1.397 . S
C2791 C2792 1.334 . S
C2792 H2763 0.950 . S
C2792 C2791 1.334 . S
C2792 C2793 1.287 . S
C2793 C2792 1.287 . S
C2793 C2794 1.524 . S
C2793 H2796 0.999 . S
C2794 H2764 0.950 . S
C2794 C2793 1.524 . S
C2794 C2795 1.415 . S
C2795 H2765 0.950 . S
C2795 C2790 1.363 . S
C2795 C2794 1.415 . S
H2796 C2793 0.999 . S
H2797 C2778 0.913 . S
H2798 C2816 0.951 1_556 S
H2799 C2818 0.951 1_556 S
H2800 C2820 0.950 . S
H2801 C2821 0.950 . S
H2802 C2823 0.950 . S
H2803 C2826 0.950 . S
H2804 C2827 0.950 1_554 S
H2805 C2829 0.950 . S
H2806 C2830 0.950 . S
H2807 C2831 0.951 . S
H2808 C2833 0.951 . S
H2809 C2835 0.950 1_556 S
H2810 C2836 0.950 1_556 S
H2811 C2838 0.950 . S
H2812 C2841 0.950 . S
H2813 C2842 0.950 . S
H2814 C2844 0.950 . S
H2815 C2845 0.950 . S
C2816 H2798 0.951 1_554 S
C2816 C2817 1.366 . S
C2816 C2818 1.388 . S
C2817 C2816 1.366 . S
C2817 C2821 1.385 . S
C2818 H2799 0.951 1_554 S
C2818 C2816 1.388 . S
C2818 C2819 1.366 . S
C2819 C2818 1.366 . S
C2819 C2820 1.414 . S
C2819 C2822 1.499 . S
C2820 H2800 0.950 . S
C2820 C2819 1.414 . S
C2820 C2821 1.374 . S
C2821 H2801 0.950 . S
C2821 C2817 1.385 . S
C2821 C2820 1.374 . S
C2822 C2819 1.499 . S
C2822 C2823 1.373 . S
C2822 C2824 1.389 . S
C2823 H2802 0.950 . S
C2823 C2822 1.373 . S
C2823 C2839 1.377 . S
C2824 C2822 1.389 . S
C2824 C2825 1.524 1_554 S
C2824 C2838 1.377 . S
C2825 C2824 1.524 1_556 S
C2825 C2826 1.397 1_556 S
C2825 C2830 1.363 . S
C2826 H2803 0.950 . S
C2826 C2825 1.397 1_554 S
C2826 C2827 1.334 1_554 S
C2827 H2804 0.950 1_556 S
C2827 C2826 1.334 1_556 S
C2827 C2828 1.287 . S
C2828 C2827 1.287 . S
C2828 C2829 1.524 . S
C2828 H2847 0.913 . S
C2829 H2805 0.950 . S
C2829 C2828 1.524 . S
C2829 C2830 1.415 . S
C2830 H2806 0.950 . S
C2830 C2825 1.363 . S
C2830 C2829 1.415 . S
C2831 H2807 0.951 . S
C2831 C2832 1.366 . S
C2831 C2833 1.388 . S
C2832 C2831 1.366 . S
C2832 C2836 1.385 . S
C2833 H2808 0.951 . S
C2833 C2831 1.388 . S
C2833 C2834 1.366 . S
C2834 C2833 1.366 . S
C2834 C2835 1.414 . S
C2834 C2837 1.499 . S
C2835 H2809 0.950 1_554 S
C2835 C2834 1.414 . S
C2835 C2836 1.374 . S
C2836 H2810 0.950 1_554 S
C2836 C2832 1.385 . S
C2836 C2835 1.374 . S
C2837 C2834 1.499 . S
C2837 C2838 1.373 . S
C2837 C2839 1.389 . S
C2838 H2811 0.950 . S
C2838 C2824 1.377 . S
C2838 C2837 1.373 . S
C2839 C2823 1.377 . S
C2839 C2837 1.389 . S
C2839 C2840 1.524 . S
C2840 C2839 1.524 . S
C2840 C2841 1.397 . S
C2840 C2845 1.363 . S
C2841 H2812 0.950 . S
C2841 C2840 1.397 . S
C2841 C2842 1.334 . S
C2842 H2813 0.950 . S
C2842 C2841 1.334 . S
C2842 C2843 1.287 . S
C2843 C2842 1.287 . S
C2843 C2844 1.524 . S
C2843 H2846 0.999 . S
C2844 H2814 0.950 . S
C2844 C2843 1.524 . S
C2844 C2845 1.415 . S
C2845 H2815 0.950 . S
C2845 C2840 1.363 . S
C2845 C2844 1.415 . S
H2846 C2843 0.999 . S
H2847 C2828 0.913 . S
H2848 C2866 0.951 . S
H2849 C2868 0.951 . S
H2850 C2870 0.950 . S
H2851 C2871 0.950 1_455 S
H2852 C2873 0.950 . S
H2853 C2876 0.950 . S
H2854 C2877 0.950 . S
H2855 C2879 0.950 . S
H2856 C2880 0.950 . S
H2857 C2881 0.951 . S
H2858 C2883 0.951 . S
H2859 C2885 0.950 . S
H2860 C2886 0.950 . S
H2861 C2888 0.950 . S
H2862 C2891 0.950 . S
H2863 C2892 0.950 . S
H2864 C2894 0.950 . S
H2865 C2895 0.950 . S
C2866 H2848 0.951 . S
C2866 C2867 1.366 . S
C2866 C2868 1.388 . S
C2867 C2866 1.366 . S
C2867 C2871 1.385 . S
C2868 H2849 0.951 . S
C2868 C2866 1.388 . S
C2868 C2869 1.366 . S
C2869 C2868 1.366 . S
C2869 C2870 1.414 . S
C2869 C2872 1.499 . S
C2870 H2850 0.950 . S
C2870 C2869 1.414 . S
C2870 C2871 1.374 . S
C2871 H2851 0.950 1_655 S
C2871 C2867 1.385 . S
C2871 C2870 1.374 . S
C2872 C2869 1.499 . S
C2872 C2873 1.373 . S
C2872 C2874 1.389 . S
C2873 H2852 0.950 . S
C2873 C2872 1.373 . S
C2873 C2889 1.377 . S
C2874 C2872 1.389 . S
C2874 C2875 1.524 . S
C2874 C2888 1.377 . S
C2875 C2874 1.524 . S
C2875 C2876 1.397 . S
C2875 C2880 1.363 . S
C2876 H2853 0.950 . S
C2876 C2875 1.397 . S
C2876 C2877 1.334 . S
C2877 H2854 0.950 . S
C2877 C2876 1.334 . S
C2877 C2878 1.287 . S
C2878 C2877 1.287 . S
C2878 C2879 1.524 . S
C2878 H2897 0.913 . S
C2879 H2855 0.950 . S
C2879 C2878 1.524 . S
C2879 C2880 1.415 . S
C2880 H2856 0.950 . S
C2880 C2875 1.363 . S
C2880 C2879 1.415 . S
C2881 H2857 0.951 . S
C2881 C2882 1.366 . S
C2881 C2883 1.388 . S
C2882 C2881 1.366 . S
C2882 C2886 1.385 . S
C2883 H2858 0.951 . S
C2883 C2881 1.388 . S
C2883 C2884 1.366 . S
C2884 C2883 1.366 . S
C2884 C2885 1.414 . S
C2884 C2887 1.499 . S
C2885 H2859 0.950 . S
C2885 C2884 1.414 . S
C2885 C2886 1.374 . S
C2886 H2860 0.950 . S
C2886 C2882 1.385 . S
C2886 C2885 1.374 . S
C2887 C2884 1.499 . S
C2887 C2888 1.373 . S
C2887 C2889 1.389 . S
C2888 H2861 0.950 . S
C2888 C2874 1.377 . S
C2888 C2887 1.373 . S
C2889 C2873 1.377 . S
C2889 C2887 1.389 . S
C2889 C2890 1.524 . S
C2890 C2889 1.524 . S
C2890 C2891 1.397 . S
C2890 C2895 1.363 . S
C2891 H2862 0.950 . S
C2891 C2890 1.397 . S
C2891 C2892 1.334 . S
C2892 H2863 0.950 . S
C2892 C2891 1.334 . S
C2892 C2893 1.287 . S
C2893 C2892 1.287 . S
C2893 C2894 1.524 . S
C2893 H2896 0.999 . S
C2894 H2864 0.950 . S
C2894 C2893 1.524 . S
C2894 C2895 1.415 . S
C2895 H2865 0.950 . S
C2895 C2890 1.363 . S
C2895 C2894 1.415 . S
H2896 C2893 0.999 . S
H2897 C2878 0.913 . S
H2898 C2916 0.951 . S
H2899 C2918 0.951 . S
H2900 C2920 0.950 . S
H2901 C2921 0.950 . S
H2902 C2923 0.950 . S
H2903 C2926 0.950 . S
H2904 C2927 0.950 . S
H2905 C2929 0.950 . S
H2906 C2930 0.950 . S
H2907 C2931 0.951 . S
H2908 C2933 0.951 . S
H2909 C2935 0.950 . S
H2910 C2936 0.950 . S
H2911 C2938 0.950 . S
H2912 C2941 0.950 . S
H2913 C2942 0.950 . S
H2914 C2944 0.950 . S
H2915 C2945 0.950 . S
C2916 H2898 0.951 . S
C2916 C2917 1.366 . S
C2916 C2918 1.388 . S
C2917 C2916 1.366 . S
C2917 C2921 1.385 . S
C2918 H2899 0.951 . S
C2918 C2916 1.388 . S
C2918 C2919 1.366 . S
C2919 C2918 1.366 . S
C2919 C2920 1.414 . S
C2919 C2922 1.499 . S
C2920 H2900 0.950 . S
C2920 C2919 1.414 . S
C2920 C2921 1.374 . S
C2921 H2901 0.950 . S
C2921 C2917 1.385 . S
C2921 C2920 1.374 . S
C2922 C2919 1.499 . S
C2922 C2923 1.373 . S
C2922 C2924 1.389 . S
C2923 H2902 0.950 . S
C2923 C2922 1.373 . S
C2923 C2939 1.377 . S
C2924 C2922 1.389 . S
C2924 C2925 1.524 . S
C2924 C2938 1.377 . S
C2925 C2924 1.524 . S
C2925 C2926 1.397 . S
C2925 C2930 1.363 . S
C2926 H2903 0.950 . S
C2926 C2925 1.397 . S
C2926 C2927 1.334 . S
C2927 H2904 0.950 . S
C2927 C2926 1.334 . S
C2927 C2928 1.287 . S
C2928 C2927 1.287 . S
C2928 C2929 1.524 . S
C2928 H2947 0.913 . S
C2929 H2905 0.950 . S
C2929 C2928 1.524 . S
C2929 C2930 1.415 . S
C2930 H2906 0.950 . S
C2930 C2925 1.363 . S
C2930 C2929 1.415 . S
C2931 H2907 0.951 . S
C2931 C2932 1.366 . S
C2931 C2933 1.388 . S
C2932 C2931 1.366 . S
C2932 C2936 1.385 . S
C2933 H2908 0.951 . S
C2933 C2931 1.388 . S
C2933 C2934 1.366 . S
C2934 C2933 1.366 . S
C2934 C2935 1.414 . S
C2934 C2937 1.499 . S
C2935 H2909 0.950 . S
C2935 C2934 1.414 . S
C2935 C2936 1.374 . S
C2936 H2910 0.950 . S
C2936 C2932 1.385 . S
C2936 C2935 1.374 . S
C2937 C2934 1.499 . S
C2937 C2938 1.373 . S
C2937 C2939 1.389 . S
C2938 H2911 0.950 . S
C2938 C2924 1.377 . S
C2938 C2937 1.373 . S
C2939 C2923 1.377 . S
C2939 C2937 1.389 . S
C2939 C2940 1.524 . S
C2940 C2939 1.524 . S
C2940 C2941 1.397 . S
C2940 C2945 1.363 . S
C2941 H2912 0.950 . S
C2941 C2940 1.397 . S
C2941 C2942 1.334 . S
C2942 H2913 0.950 . S
C2942 C2941 1.334 . S
C2942 C2943 1.287 . S
C2943 C2942 1.287 . S
C2943 C2944 1.524 . S
C2943 H2946 0.999 . S
C2944 H2914 0.950 . S
C2944 C2943 1.524 . S
C2944 C2945 1.415 . S
C2945 H2915 0.950 . S
C2945 C2940 1.363 . S
C2945 C2944 1.415 . S
H2946 C2943 0.999 . S
H2947 C2928 0.913 . S
H2948 C2966 0.951 . S
H2949 C2968 0.951 . S
H2950 C2970 0.950 . S
H2951 C2971 0.950 . S
H2952 C2973 0.950 . S
H2953 C2976 0.950 . S
H2954 C2977 0.950 . S
H2955 C2979 0.950 . S
H2956 C2980 0.950 . S
H2957 C2981 0.951 1_455 S
H2958 C2983 0.951 . S
H2959 C2985 0.950 . S
H2960 C2986 0.950 . S
H2961 C2988 0.950 . S
H2962 C2991 0.950 . S
H2963 C2992 0.950 . S
H2964 C2994 0.950 . S
H2965 C2995 0.950 . S
C2966 H2948 0.951 . S
C2966 C2967 1.366 . S
C2966 C2968 1.388 . S
C2967 C2966 1.366 . S
C2967 C2971 1.385 . S
C2968 H2949 0.951 . S
C2968 C2966 1.388 . S
C2968 C2969 1.366 . S
C2969 C2968 1.366 . S
C2969 C2970 1.414 . S
C2969 C2972 1.499 . S
C2970 H2950 0.950 . S
C2970 C2969 1.414 . S
C2970 C2971 1.374 . S
C2971 H2951 0.950 . S
C2971 C2967 1.385 . S
C2971 C2970 1.374 . S
C2972 C2969 1.499 . S
C2972 C2973 1.373 . S
C2972 C2974 1.389 . S
C2973 H2952 0.950 . S
C2973 C2972 1.373 . S
C2973 C2989 1.377 . S
C2974 C2972 1.389 . S
C2974 C2975 1.524 . S
C2974 C2988 1.377 . S
C2975 C2974 1.524 . S
C2975 C2976 1.397 . S
C2975 C2980 1.363 . S
C2976 H2953 0.950 . S
C2976 C2975 1.397 . S
C2976 C2977 1.334 . S
C2977 H2954 0.950 . S
C2977 C2976 1.334 . S
C2977 C2978 1.287 . S
C2978 C2977 1.287 . S
C2978 C2979 1.524 . S
C2978 H2997 0.913 . S
C2979 H2955 0.950 . S
C2979 C2978 1.524 . S
C2979 C2980 1.415 . S
C2980 H2956 0.950 . S
C2980 C2975 1.363 . S
C2980 C2979 1.415 . S
C2981 H2957 0.951 1_655 S
C2981 C2982 1.366 . S
C2981 C2983 1.388 . S
C2982 C2981 1.366 . S
C2982 C2986 1.385 . S
C2983 H2958 0.951 . S
C2983 C2981 1.388 . S
C2983 C2984 1.366 . S
C2984 C2983 1.366 . S
C2984 C2985 1.414 . S
C2984 C2987 1.499 . S
C2985 H2959 0.950 . S
C2985 C2984 1.414 . S
C2985 C2986 1.374 . S
C2986 H2960 0.950 . S
C2986 C2982 1.385 . S
C2986 C2985 1.374 . S
C2987 C2984 1.499 . S
C2987 C2988 1.373 . S
C2987 C2989 1.389 . S
C2988 H2961 0.950 . S
C2988 C2974 1.377 . S
C2988 C2987 1.373 . S
C2989 C2973 1.377 . S
C2989 C2987 1.389 . S
C2989 C2990 1.524 . S
C2990 C2989 1.524 . S
C2990 C2991 1.397 . S
C2990 C2995 1.363 . S
C2991 H2962 0.950 . S
C2991 C2990 1.397 . S
C2991 C2992 1.334 . S
C2992 H2963 0.950 . S
C2992 C2991 1.334 . S
C2992 C2993 1.287 . S
C2993 C2992 1.287 . S
C2993 C2994 1.524 . S
C2993 H2996 0.999 . S
C2994 H2964 0.950 . S
C2994 C2993 1.524 . S
C2994 C2995 1.415 . S
C2995 H2965 0.950 . S
C2995 C2990 1.363 . S
C2995 C2994 1.415 . S
H2996 C2993 0.999 . S
H2997 C2978 0.913 . S
H2998 C3016 0.951 . S
H2999 C3018 0.951 . S
H3000 C3020 0.950 . S
H3001 C3021 0.950 . S
H3002 C3023 0.950 . S
H3003 C3026 0.950 . S
H3004 C3027 0.950 . S
H3005 C3029 0.950 . S
H3006 C3030 0.950 . S
H3007 C3031 0.951 . S
H3008 C3033 0.951 . S
H3009 C3035 0.950 . S
H3010 C3036 0.950 . S
H3011 C3038 0.950 . S
H3012 C3041 0.950 . S
H3013 C3042 0.950 . S
H3014 C3044 0.950 . S
H3015 C3045 0.950 . S
C3016 H2998 0.951 . S
C3016 C3017 1.366 . S
C3016 C3018 1.388 . S
C3017 C3016 1.366 . S
C3017 C3021 1.385 . S
C3018 H2999 0.951 . S
C3018 C3016 1.388 . S
C3018 C3019 1.366 . S
C3019 C3018 1.366 . S
C3019 C3020 1.414 . S
C3019 C3022 1.499 . S
C3020 H3000 0.950 . S
C3020 C3019 1.414 . S
C3020 C3021 1.374 . S
C3021 H3001 0.950 . S
C3021 C3017 1.385 . S
C3021 C3020 1.374 . S
C3022 C3019 1.499 . S
C3022 C3023 1.373 . S
C3022 C3024 1.389 . S
C3023 H3002 0.950 . S
C3023 C3022 1.373 . S
C3023 C3039 1.377 . S
C3024 C3022 1.389 . S
C3024 C3025 1.524 . S
C3024 C3038 1.377 . S
C3025 C3024 1.524 . S
C3025 C3026 1.397 . S
C3025 C3030 1.363 . S
C3026 H3003 0.950 . S
C3026 C3025 1.397 . S
C3026 C3027 1.334 . S
C3027 H3004 0.950 . S
C3027 C3026 1.334 . S
C3027 C3028 1.287 . S
C3028 C3027 1.287 . S
C3028 C3029 1.524 . S
C3028 H3047 0.913 . S
C3029 H3005 0.950 . S
C3029 C3028 1.524 . S
C3029 C3030 1.415 . S
C3030 H3006 0.950 . S
C3030 C3025 1.363 . S
C3030 C3029 1.415 . S
C3031 H3007 0.951 . S
C3031 C3032 1.366 . S
C3031 C3033 1.388 . S
C3032 C3031 1.366 . S
C3032 C3036 1.385 . S
C3033 H3008 0.951 . S
C3033 C3031 1.388 . S
C3033 C3034 1.366 . S
C3034 C3033 1.366 . S
C3034 C3035 1.414 . S
C3034 C3037 1.499 . S
C3035 H3009 0.950 . S
C3035 C3034 1.414 . S
C3035 C3036 1.374 . S
C3036 H3010 0.950 . S
C3036 C3032 1.385 . S
C3036 C3035 1.374 . S
C3037 C3034 1.499 . S
C3037 C3038 1.373 . S
C3037 C3039 1.389 . S
C3038 H3011 0.950 . S
C3038 C3024 1.377 . S
C3038 C3037 1.373 . S
C3039 C3023 1.377 . S
C3039 C3037 1.389 . S
C3039 C3040 1.524 . S
C3040 C3039 1.524 . S
C3040 C3041 1.397 . S
C3040 C3045 1.363 . S
C3041 H3012 0.950 . S
C3041 C3040 1.397 . S
C3041 C3042 1.334 . S
C3042 H3013 0.950 . S
C3042 C3041 1.334 . S
C3042 C3043 1.287 . S
C3043 C3042 1.287 . S
C3043 C3044 1.524 . S
C3043 H3046 0.999 . S
C3044 H3014 0.950 . S
C3044 C3043 1.524 . S
C3044 C3045 1.415 . S
C3045 H3015 0.950 . S
C3045 C3040 1.363 . S
C3045 C3044 1.415 . S
H3046 C3043 0.999 . S
H3047 C3028 0.913 . S
H3048 C3066 0.951 . S
H3049 C3068 0.951 . S
H3050 C3070 0.950 . S
H3051 C3071 0.950 . S
H3052 C3073 0.950 . S
H3053 C3076 0.950 . S
H3054 C3077 0.950 . S
H3055 C3079 0.950 . S
H3056 C3080 0.950 . S
H3057 C3081 0.951 . S
H3058 C3083 0.951 . S
H3059 C3085 0.950 . S
H3060 C3086 0.950 1_655 S
H3061 C3088 0.950 . S
H3062 C3091 0.950 . S
H3063 C3092 0.950 . S
H3064 C3094 0.950 . S
H3065 C3095 0.950 . S
C3066 H3048 0.951 . S
C3066 C3067 1.366 . S
C3066 C3068 1.388 . S
C3067 C3066 1.366 . S
C3067 C3071 1.385 . S
C3068 H3049 0.951 . S
C3068 C3066 1.388 . S
C3068 C3069 1.366 . S
C3069 C3068 1.366 . S
C3069 C3070 1.414 . S
C3069 C3072 1.499 . S
C3070 H3050 0.950 . S
C3070 C3069 1.414 . S
C3070 C3071 1.374 . S
C3071 H3051 0.950 . S
C3071 C3067 1.385 . S
C3071 C3070 1.374 . S
C3072 C3069 1.499 . S
C3072 C3073 1.373 . S
C3072 C3074 1.389 . S
C3073 H3052 0.950 . S
C3073 C3072 1.373 . S
C3073 C3089 1.377 . S
C3074 C3072 1.389 . S
C3074 C3075 1.524 . S
C3074 C3088 1.377 . S
C3075 C3074 1.524 . S
C3075 C3076 1.397 . S
C3075 C3080 1.363 . S
C3076 H3053 0.950 . S
C3076 C3075 1.397 . S
C3076 C3077 1.334 . S
C3077 H3054 0.950 . S
C3077 C3076 1.334 . S
C3077 C3078 1.287 . S
C3078 C3077 1.287 . S
C3078 C3079 1.524 . S
C3078 H3097 0.913 . S
C3079 H3055 0.950 . S
C3079 C3078 1.524 . S
C3079 C3080 1.415 . S
C3080 H3056 0.950 . S
C3080 C3075 1.363 . S
C3080 C3079 1.415 . S
C3081 H3057 0.951 . S
C3081 C3082 1.366 . S
C3081 C3083 1.388 . S
C3082 C3081 1.366 . S
C3082 C3086 1.385 . S
C3083 H3058 0.951 . S
C3083 C3081 1.388 . S
C3083 C3084 1.366 . S
C3084 C3083 1.366 . S
C3084 C3085 1.414 . S
C3084 C3087 1.499 . S
C3085 H3059 0.950 . S
C3085 C3084 1.414 . S
C3085 C3086 1.374 . S
C3086 H3060 0.950 1_455 S
C3086 C3082 1.385 . S
C3086 C3085 1.374 . S
C3087 C3084 1.499 . S
C3087 C3088 1.373 . S
C3087 C3089 1.389 . S
C3088 H3061 0.950 . S
C3088 C3074 1.377 . S
C3088 C3087 1.373 . S
C3089 C3073 1.377 . S
C3089 C3087 1.389 . S
C3089 C3090 1.524 . S
C3090 C3089 1.524 . S
C3090 C3091 1.397 . S
C3090 C3095 1.363 . S
C3091 H3062 0.950 . S
C3091 C3090 1.397 . S
C3091 C3092 1.334 . S
C3092 H3063 0.950 . S
C3092 C3091 1.334 . S
C3092 C3093 1.287 . S
C3093 C3092 1.287 . S
C3093 C3094 1.524 . S
C3093 H3096 0.999 . S
C3094 H3064 0.950 . S
C3094 C3093 1.524 . S
C3094 C3095 1.415 . S
C3095 H3065 0.950 . S
C3095 C3090 1.363 . S
C3095 C3094 1.415 . S
H3096 C3093 0.999 . S
H3097 C3078 0.913 . S
H3098 C3116 0.951 . S
H3099 C3118 0.951 . S
H3100 C3120 0.950 . S
H3101 C3121 0.950 . S
H3102 C3123 0.950 . S
H3103 C3126 0.950 . S
H3104 C3127 0.950 . S
H3105 C3129 0.950 . S
H3106 C3130 0.950 . S
H3107 C3131 0.951 . S
H3108 C3133 0.951 . S
H3109 C3135 0.950 . S
H3110 C3136 0.950 . S
H3111 C3138 0.950 . S
H3112 C3141 0.950 . S
H3113 C3142 0.950 . S
H3114 C3144 0.950 . S
H3115 C3145 0.950 . S
C3116 H3098 0.951 . S
C3116 C3117 1.366 . S
C3116 C3118 1.388 . S
C3117 C3116 1.366 . S
C3117 C3121 1.385 . S
C3118 H3099 0.951 . S
C3118 C3116 1.388 . S
C3118 C3119 1.366 . S
C3119 C3118 1.366 . S
C3119 C3120 1.414 . S
C3119 C3122 1.499 . S
C3120 H3100 0.950 . S
C3120 C3119 1.414 . S
C3120 C3121 1.374 . S
C3121 H3101 0.950 . S
C3121 C3117 1.385 . S
C3121 C3120 1.374 . S
C3122 C3119 1.499 . S
C3122 C3123 1.373 . S
C3122 C3124 1.389 . S
C3123 H3102 0.950 . S
C3123 C3122 1.373 . S
C3123 C3139 1.377 . S
C3124 C3122 1.389 . S
C3124 C3125 1.524 . S
C3124 C3138 1.377 . S
C3125 C3124 1.524 . S
C3125 C3126 1.397 . S
C3125 C3130 1.363 . S
C3126 H3103 0.950 . S
C3126 C3125 1.397 . S
C3126 C3127 1.334 . S
C3127 H3104 0.950 . S
C3127 C3126 1.334 . S
C3127 C3128 1.287 . S
C3128 C3127 1.287 . S
C3128 C3129 1.524 . S
C3128 H3147 0.913 . S
C3129 H3105 0.950 . S
C3129 C3128 1.524 . S
C3129 C3130 1.415 . S
C3130 H3106 0.950 . S
C3130 C3125 1.363 . S
C3130 C3129 1.415 . S
C3131 H3107 0.951 . S
C3131 C3132 1.366 . S
C3131 C3133 1.388 . S
C3132 C3131 1.366 . S
C3132 C3136 1.385 . S
C3133 H3108 0.951 . S
C3133 C3131 1.388 . S
C3133 C3134 1.366 . S
C3134 C3133 1.366 . S
C3134 C3135 1.414 . S
C3134 C3137 1.499 . S
C3135 H3109 0.950 . S
C3135 C3134 1.414 . S
C3135 C3136 1.374 . S
C3136 H3110 0.950 . S
C3136 C3132 1.385 . S
C3136 C3135 1.374 . S
C3137 C3134 1.499 . S
C3137 C3138 1.373 . S
C3137 C3139 1.389 . S
C3138 H3111 0.950 . S
C3138 C3124 1.377 . S
C3138 C3137 1.373 . S
C3139 C3123 1.377 . S
C3139 C3137 1.389 . S
C3139 C3140 1.524 . S
C3140 C3139 1.524 . S
C3140 C3141 1.397 . S
C3140 C3145 1.363 . S
C3141 H3112 0.950 . S
C3141 C3140 1.397 . S
C3141 C3142 1.334 . S
C3142 H3113 0.950 . S
C3142 C3141 1.334 . S
C3142 C3143 1.287 . S
C3143 C3142 1.287 . S
C3143 C3144 1.524 . S
C3143 H3146 0.999 . S
C3144 H3114 0.950 . S
C3144 C3143 1.524 . S
C3144 C3145 1.415 . S
C3145 H3115 0.950 . S
C3145 C3140 1.363 . S
C3145 C3144 1.415 . S
H3146 C3143 0.999 . S
H3147 C3128 0.913 . S
H3148 C3166 0.951 . S
H3149 C3168 0.951 . S
H3150 C3170 0.950 . S
H3151 C3171 0.950 . S
H3152 C3173 0.950 . S
H3153 C3176 0.950 . S
H3154 C3177 0.950 . S
H3155 C3179 0.950 . S
H3156 C3180 0.950 . S
H3157 C3181 0.951 . S
H3158 C3183 0.951 . S
H3159 C3185 0.950 . S
H3160 C3186 0.950 . S
H3161 C3188 0.950 . S
H3162 C3191 0.950 . S
H3163 C3192 0.950 . S
H3164 C3194 0.950 . S
H3165 C3195 0.950 . S
C3166 H3148 0.951 . S
C3166 C3167 1.366 . S
C3166 C3168 1.388 . S
C3167 C3166 1.366 . S
C3167 C3171 1.385 . S
C3168 H3149 0.951 . S
C3168 C3166 1.388 . S
C3168 C3169 1.366 . S
C3169 C3168 1.366 . S
C3169 C3170 1.414 . S
C3169 C3172 1.499 . S
C3170 H3150 0.950 . S
C3170 C3169 1.414 . S
C3170 C3171 1.374 . S
C3171 H3151 0.950 . S
C3171 C3167 1.385 . S
C3171 C3170 1.374 . S
C3172 C3169 1.499 . S
C3172 C3173 1.373 . S
C3172 C3174 1.389 . S
C3173 H3152 0.950 . S
C3173 C3172 1.373 . S
C3173 C3189 1.377 . S
C3174 C3172 1.389 . S
C3174 C3175 1.524 . S
C3174 C3188 1.377 . S
C3175 C3174 1.524 . S
C3175 C3176 1.397 . S
C3175 C3180 1.363 . S
C3176 H3153 0.950 . S
C3176 C3175 1.397 . S
C3176 C3177 1.334 . S
C3177 H3154 0.950 . S
C3177 C3176 1.334 . S
C3177 C3178 1.287 . S
C3178 C3177 1.287 . S
C3178 C3179 1.524 . S
C3178 H3197 0.913 . S
C3179 H3155 0.950 . S
C3179 C3178 1.524 . S
C3179 C3180 1.415 . S
C3180 H3156 0.950 . S
C3180 C3175 1.363 . S
C3180 C3179 1.415 . S
C3181 H3157 0.951 . S
C3181 C3182 1.366 . S
C3181 C3183 1.388 . S
C3182 C3181 1.366 . S
C3182 C3186 1.385 . S
C3183 H3158 0.951 . S
C3183 C3181 1.388 . S
C3183 C3184 1.366 . S
C3184 C3183 1.366 . S
C3184 C3185 1.414 . S
C3184 C3187 1.499 . S
C3185 H3159 0.950 . S
C3185 C3184 1.414 . S
C3185 C3186 1.374 . S
C3186 H3160 0.950 . S
C3186 C3182 1.385 . S
C3186 C3185 1.374 . S
C3187 C3184 1.499 . S
C3187 C3188 1.373 . S
C3187 C3189 1.389 . S
C3188 H3161 0.950 . S
C3188 C3174 1.377 . S
C3188 C3187 1.373 . S
C3189 C3173 1.377 . S
C3189 C3187 1.389 . S
C3189 C3190 1.524 . S
C3190 C3189 1.524 . S
C3190 C3191 1.397 . S
C3190 C3195 1.363 . S
C3191 H3162 0.950 . S
C3191 C3190 1.397 . S
C3191 C3192 1.334 1_455 S
C3192 H3163 0.950 . S
C3192 C3191 1.334 1_655 S
C3192 C3193 1.287 1_655 S
C3193 C3192 1.287 1_455 S
C3193 C3194 1.524 . S
C3193 H3196 0.999 1_455 S
C3194 H3164 0.950 . S
C3194 C3193 1.524 . S
C3194 C3195 1.415 . S
C3195 H3165 0.950 . S
C3195 C3190 1.363 . S
C3195 C3194 1.415 . S
H3196 C3193 0.999 1_655 S
H3197 C3178 0.913 . S
H3198 C3216 0.951 . S
H3199 C3218 0.951 . S
H3200 C3220 0.950 . S
H3201 C3221 0.950 . S
H3202 C3223 0.950 . S
H3203 C3226 0.950 . S
H3204 C3227 0.950 . S
H3205 C3229 0.950 . S
H3206 C3230 0.950 . S
H3207 C3231 0.951 . S
H3208 C3233 0.951 . S
H3209 C3235 0.950 . S
H3210 C3236 0.950 . S
H3211 C3238 0.950 . S
H3212 C3241 0.950 . S
H3213 C3242 0.950 . S
H3214 C3244 0.950 . S
H3215 C3245 0.950 . S
C3216 H3198 0.951 . S
C3216 C3217 1.366 . S
C3216 C3218 1.388 . S
C3217 C3216 1.366 . S
C3217 C3221 1.385 . S
C3218 H3199 0.951 . S
C3218 C3216 1.388 . S
C3218 C3219 1.366 . S
C3219 C3218 1.366 . S
C3219 C3220 1.414 . S
C3219 C3222 1.499 . S
C3220 H3200 0.950 . S
C3220 C3219 1.414 . S
C3220 C3221 1.374 . S
C3221 H3201 0.950 . S
C3221 C3217 1.385 . S
C3221 C3220 1.374 . S
C3222 C3219 1.499 . S
C3222 C3223 1.373 . S
C3222 C3224 1.389 . S
C3223 H3202 0.950 . S
C3223 C3222 1.373 . S
C3223 C3239 1.377 . S
C3224 C3222 1.389 . S
C3224 C3225 1.524 . S
C3224 C3238 1.377 . S
C3225 C3224 1.524 . S
C3225 C3226 1.397 . S
C3225 C3230 1.363 . S
C3226 H3203 0.950 . S
C3226 C3225 1.397 . S
C3226 C3227 1.334 . S
C3227 H3204 0.950 . S
C3227 C3226 1.334 . S
C3227 C3228 1.287 . S
C3228 C3227 1.287 . S
C3228 C3229 1.524 . S
C3228 H3247 0.913 . S
C3229 H3205 0.950 . S
C3229 C3228 1.524 . S
C3229 C3230 1.415 . S
C3230 H3206 0.950 . S
C3230 C3225 1.363 . S
C3230 C3229 1.415 . S
C3231 H3207 0.951 . S
C3231 C3232 1.366 . S
C3231 C3233 1.388 . S
C3232 C3231 1.366 . S
C3232 C3236 1.385 . S
C3233 H3208 0.951 . S
C3233 C3231 1.388 . S
C3233 C3234 1.366 . S
C3234 C3233 1.366 . S
C3234 C3235 1.414 . S
C3234 C3237 1.499 . S
C3235 H3209 0.950 . S
C3235 C3234 1.414 . S
C3235 C3236 1.374 . S
C3236 H3210 0.950 . S
C3236 C3232 1.385 . S
C3236 C3235 1.374 . S
C3237 C3234 1.499 . S
C3237 C3238 1.373 . S
C3237 C3239 1.389 . S
C3238 H3211 0.950 . S
C3238 C3224 1.377 . S
C3238 C3237 1.373 . S
C3239 C3223 1.377 . S
C3239 C3237 1.389 . S
C3239 C3240 1.524 . S
C3240 C3239 1.524 . S
C3240 C3241 1.397 . S
C3240 C3245 1.363 . S
C3241 H3212 0.950 . S
C3241 C3240 1.397 . S
C3241 C3242 1.334 . S
C3242 H3213 0.950 . S
C3242 C3241 1.334 . S
C3242 C3243 1.287 . S
C3243 C3242 1.287 . S
C3243 C3244 1.524 . S
C3243 H3246 0.999 . S
C3244 H3214 0.950 . S
C3244 C3243 1.524 . S
C3244 C3245 1.415 . S
C3245 H3215 0.950 . S
C3245 C3240 1.363 . S
C3245 C3244 1.415 . S
H3246 C3243 0.999 . S
H3247 C3228 0.913 . S
H3248 C3266 0.951 . S
H3249 C3268 0.951 . S
H3250 C3270 0.950 . S
H3251 C3271 0.950 1_455 S
H3252 C3273 0.950 . S
H3253 C3276 0.950 . S
H3254 C3277 0.950 . S
H3255 C3279 0.950 . S
H3256 C3280 0.950 . S
H3257 C3281 0.951 . S
H3258 C3283 0.951 . S
H3259 C3285 0.950 . S
H3260 C3286 0.950 . S
H3261 C3288 0.950 . S
H3262 C3291 0.950 . S
H3263 C3292 0.950 . S
H3264 C3294 0.950 . S
H3265 C3295 0.950 . S
C3266 H3248 0.951 . S
C3266 C3267 1.366 . S
C3266 C3268 1.388 . S
C3267 C3266 1.366 . S
C3267 C3271 1.385 . S
C3268 H3249 0.951 . S
C3268 C3266 1.388 . S
C3268 C3269 1.366 . S
C3269 C3268 1.366 . S
C3269 C3270 1.414 . S
C3269 C3272 1.499 . S
C3270 H3250 0.950 . S
C3270 C3269 1.414 . S
C3270 C3271 1.374 . S
C3271 H3251 0.950 1_655 S
C3271 C3267 1.385 . S
C3271 C3270 1.374 . S
C3272 C3269 1.499 . S
C3272 C3273 1.373 . S
C3272 C3274 1.389 . S
C3273 H3252 0.950 . S
C3273 C3272 1.373 . S
C3273 C3289 1.377 . S
C3274 C3272 1.389 . S
C3274 C3275 1.524 . S
C3274 C3288 1.377 . S
C3275 C3274 1.524 . S
C3275 C3276 1.397 . S
C3275 C3280 1.363 . S
C3276 H3253 0.950 . S
C3276 C3275 1.397 . S
C3276 C3277 1.334 . S
C3277 H3254 0.950 . S
C3277 C3276 1.334 . S
C3277 C3278 1.287 . S
C3278 C3277 1.287 . S
C3278 C3279 1.524 . S
C3278 H3297 0.913 . S
C3279 H3255 0.950 . S
C3279 C3278 1.524 . S
C3279 C3280 1.415 . S
C3280 H3256 0.950 . S
C3280 C3275 1.363 . S
C3280 C3279 1.415 . S
C3281 H3257 0.951 . S
C3281 C3282 1.366 . S
C3281 C3283 1.388 . S
C3282 C3281 1.366 . S
C3282 C3286 1.385 . S
C3283 H3258 0.951 . S
C3283 C3281 1.388 . S
C3283 C3284 1.366 . S
C3284 C3283 1.366 . S
C3284 C3285 1.414 . S
C3284 C3287 1.499 . S
C3285 H3259 0.950 . S
C3285 C3284 1.414 . S
C3285 C3286 1.374 . S
C3286 H3260 0.950 . S
C3286 C3282 1.385 . S
C3286 C3285 1.374 . S
C3287 C3284 1.499 . S
C3287 C3288 1.373 . S
C3287 C3289 1.389 . S
C3288 H3261 0.950 . S
C3288 C3274 1.377 . S
C3288 C3287 1.373 . S
C3289 C3273 1.377 . S
C3289 C3287 1.389 . S
C3289 C3290 1.524 . S
C3290 C3289 1.524 . S
C3290 C3291 1.397 . S
C3290 C3295 1.363 . S
C3291 H3262 0.950 . S
C3291 C3290 1.397 . S
C3291 C3292 1.334 . S
C3292 H3263 0.950 . S
C3292 C3291 1.334 . S
C3292 C3293 1.287 . S
C3293 C3292 1.287 . S
C3293 C3294 1.524 . S
C3293 H3296 0.999 . S
C3294 H3264 0.950 . S
C3294 C3293 1.524 . S
C3294 C3295 1.415 . S
C3295 H3265 0.950 . S
C3295 C3290 1.363 . S
C3295 C3294 1.415 . S
H3296 C3293 0.999 . S
H3297 C3278 0.913 . S
H3298 C3316 0.951 . S
H3299 C3318 0.951 . S
H3300 C3320 0.950 . S
H3301 C3321 0.950 . S
H3302 C3323 0.950 . S
H3303 C3326 0.950 . S
H3304 C3327 0.950 . S
H3305 C3329 0.950 . S
H3306 C3330 0.950 . S
H3307 C3331 0.951 . S
H3308 C3333 0.951 . S
H3309 C3335 0.950 . S
H3310 C3336 0.950 . S
H3311 C3338 0.950 . S
H3312 C3341 0.950 . S
H3313 C3342 0.950 . S
H3314 C3344 0.950 . S
H3315 C3345 0.950 . S
C3316 H3298 0.951 . S
C3316 C3317 1.366 . S
C3316 C3318 1.388 . S
C3317 C3316 1.366 . S
C3317 C3321 1.385 . S
C3318 H3299 0.951 . S
C3318 C3316 1.388 . S
C3318 C3319 1.366 . S
C3319 C3318 1.366 . S
C3319 C3320 1.414 . S
C3319 C3322 1.499 . S
C3320 H3300 0.950 . S
C3320 C3319 1.414 . S
C3320 C3321 1.374 . S
C3321 H3301 0.950 . S
C3321 C3317 1.385 . S
C3321 C3320 1.374 . S
C3322 C3319 1.499 . S
C3322 C3323 1.373 . S
C3322 C3324 1.389 . S
C3323 H3302 0.950 . S
C3323 C3322 1.373 . S
C3323 C3339 1.377 . S
C3324 C3322 1.389 . S
C3324 C3325 1.524 . S
C3324 C3338 1.377 . S
C3325 C3324 1.524 . S
C3325 C3326 1.397 . S
C3325 C3330 1.363 . S
C3326 H3303 0.950 . S
C3326 C3325 1.397 . S
C3326 C3327 1.334 . S
C3327 H3304 0.950 . S
C3327 C3326 1.334 . S
C3327 C3328 1.287 . S
C3328 C3327 1.287 . S
C3328 C3329 1.524 . S
C3328 H3347 0.913 . S
C3329 H3305 0.950 . S
C3329 C3328 1.524 . S
C3329 C3330 1.415 . S
C3330 H3306 0.950 . S
C3330 C3325 1.363 . S
C3330 C3329 1.415 . S
C3331 H3307 0.951 . S
C3331 C3332 1.366 . S
C3331 C3333 1.388 . S
C3332 C3331 1.366 . S
C3332 C3336 1.385 . S
C3333 H3308 0.951 . S
C3333 C3331 1.388 . S
C3333 C3334 1.366 . S
C3334 C3333 1.366 . S
C3334 C3335 1.414 . S
C3334 C3337 1.499 . S
C3335 H3309 0.950 . S
C3335 C3334 1.414 . S
C3335 C3336 1.374 . S
C3336 H3310 0.950 . S
C3336 C3332 1.385 . S
C3336 C3335 1.374 . S
C3337 C3334 1.499 . S
C3337 C3338 1.373 . S
C3337 C3339 1.389 . S
C3338 H3311 0.950 . S
C3338 C3324 1.377 . S
C3338 C3337 1.373 . S
C3339 C3323 1.377 . S
C3339 C3337 1.389 . S
C3339 C3340 1.524 . S
C3340 C3339 1.524 . S
C3340 C3341 1.397 . S
C3340 C3345 1.363 . S
C3341 H3312 0.950 . S
C3341 C3340 1.397 . S
C3341 C3342 1.334 . S
C3342 H3313 0.950 . S
C3342 C3341 1.334 . S
C3342 C3343 1.287 . S
C3343 C3342 1.287 . S
C3343 C3344 1.524 . S
C3343 H3346 0.999 . S
C3344 H3314 0.950 . S
C3344 C3343 1.524 . S
C3344 C3345 1.415 . S
C3345 H3315 0.950 . S
C3345 C3340 1.363 . S
C3345 C3344 1.415 . S
H3346 C3343 0.999 . S
H3347 C3328 0.913 . S
H3348 C3366 0.951 . S
H3349 C3368 0.951 . S
H3350 C3370 0.950 . S
H3351 C3371 0.950 1_455 S
H3352 C3373 0.950 . S
H3353 C3376 0.950 . S
H3354 C3377 0.950 . S
H3355 C3379 0.950 . S
H3356 C3380 0.950 . S
H3357 C3381 0.951 . S
H3358 C3383 0.951 . S
H3359 C3385 0.950 . S
H3360 C3386 0.950 . S
H3361 C3388 0.950 . S
H3362 C3391 0.950 . S
H3363 C3392 0.950 . S
H3364 C3394 0.950 . S
H3365 C3395 0.950 . S
C3366 H3348 0.951 . S
C3366 C3367 1.366 . S
C3366 C3368 1.388 . S
C3367 C3366 1.366 . S
C3367 C3371 1.385 . S
C3368 H3349 0.951 . S
C3368 C3366 1.388 . S
C3368 C3369 1.366 . S
C3369 C3368 1.366 . S
C3369 C3370 1.414 . S
C3369 C3372 1.499 . S
C3370 H3350 0.950 . S
C3370 C3369 1.414 . S
C3370 C3371 1.374 . S
C3371 H3351 0.950 1_655 S
C3371 C3367 1.385 . S
C3371 C3370 1.374 . S
C3372 C3369 1.499 . S
C3372 C3373 1.373 . S
C3372 C3374 1.389 . S
C3373 H3352 0.950 . S
C3373 C3372 1.373 . S
C3373 C3389 1.377 . S
C3374 C3372 1.389 . S
C3374 C3375 1.524 . S
C3374 C3388 1.377 . S
C3375 C3374 1.524 . S
C3375 C3376 1.397 . S
C3375 C3380 1.363 . S
C3376 H3353 0.950 . S
C3376 C3375 1.397 . S
C3376 C3377 1.334 . S
C3377 H3354 0.950 . S
C3377 C3376 1.334 . S
C3377 C3378 1.287 . S
C3378 C3377 1.287 . S
C3378 C3379 1.524 . S
C3378 H3397 0.913 . S
C3379 H3355 0.950 . S
C3379 C3378 1.524 . S
C3379 C3380 1.415 . S
C3380 H3356 0.950 . S
C3380 C3375 1.363 . S
C3380 C3379 1.415 . S
C3381 H3357 0.951 . S
C3381 C3382 1.366 . S
C3381 C3383 1.388 . S
C3382 C3381 1.366 . S
C3382 C3386 1.385 . S
C3383 H3358 0.951 . S
C3383 C3381 1.388 . S
C3383 C3384 1.366 . S
C3384 C3383 1.366 . S
C3384 C3385 1.414 . S
C3384 C3387 1.499 . S
C3385 H3359 0.950 . S
C3385 C3384 1.414 . S
C3385 C3386 1.374 . S
C3386 H3360 0.950 . S
C3386 C3382 1.385 . S
C3386 C3385 1.374 . S
C3387 C3384 1.499 . S
C3387 C3388 1.373 . S
C3387 C3389 1.389 . S
C3388 H3361 0.950 . S
C3388 C3374 1.377 . S
C3388 C3387 1.373 . S
C3389 C3373 1.377 . S
C3389 C3387 1.389 . S
C3389 C3390 1.524 . S
C3390 C3389 1.524 . S
C3390 C3391 1.397 . S
C3390 C3395 1.363 . S
C3391 H3362 0.950 . S
C3391 C3390 1.397 . S
C3391 C3392 1.334 . S
C3392 H3363 0.950 . S
C3392 C3391 1.334 . S
C3392 C3393 1.287 . S
C3393 C3392 1.287 . S
C3393 C3394 1.524 . S
C3393 H3396 0.999 . S
C3394 H3364 0.950 . S
C3394 C3393 1.524 . S
C3394 C3395 1.415 . S
C3395 H3365 0.950 . S
C3395 C3390 1.363 . S
C3395 C3394 1.415 . S
H3396 C3393 0.999 . S
H3397 C3378 0.913 . S
H3398 C3416 0.951 . S
H3399 C3418 0.951 . S
H3400 C3420 0.950 . S
H3401 C3421 0.950 . S
H3402 C3423 0.950 . S
H3403 C3426 0.950 . S
H3404 C3427 0.950 . S
H3405 C3429 0.950 . S
H3406 C3430 0.950 . S
H3407 C3431 0.951 . S
H3408 C3433 0.951 . S
H3409 C3435 0.950 . S
H3410 C3436 0.950 . S
H3411 C3438 0.950 . S
H3412 C3441 0.950 . S
H3413 C3442 0.950 . S
H3414 C3444 0.950 . S
H3415 C3445 0.950 . S
C3416 H3398 0.951 . S
C3416 C3417 1.366 . S
C3416 C3418 1.388 . S
C3417 C3416 1.366 . S
C3417 C3421 1.385 . S
C3418 H3399 0.951 . S
C3418 C3416 1.388 . S
C3418 C3419 1.366 . S
C3419 C3418 1.366 . S
C3419 C3420 1.414 . S
C3419 C3422 1.499 . S
C3420 H3400 0.950 . S
C3420 C3419 1.414 . S
C3420 C3421 1.374 . S
C3421 H3401 0.950 . S
C3421 C3417 1.385 . S
C3421 C3420 1.374 . S
C3422 C3419 1.499 . S
C3422 C3423 1.373 . S
C3422 C3424 1.389 . S
C3423 H3402 0.950 . S
C3423 C3422 1.373 . S
C3423 C3439 1.377 . S
C3424 C3422 1.389 . S
C3424 C3425 1.524 . S
C3424 C3438 1.377 . S
C3425 C3424 1.524 . S
C3425 C3426 1.397 . S
C3425 C3430 1.363 . S
C3426 H3403 0.950 . S
C3426 C3425 1.397 . S
C3426 C3427 1.334 . S
C3427 H3404 0.950 . S
C3427 C3426 1.334 . S
C3427 C3428 1.287 . S
C3428 C3427 1.287 . S
C3428 C3429 1.524 . S
C3428 H3447 0.913 . S
C3429 H3405 0.950 . S
C3429 C3428 1.524 . S
C3429 C3430 1.415 . S
C3430 H3406 0.950 . S
C3430 C3425 1.363 . S
C3430 C3429 1.415 . S
C3431 H3407 0.951 . S
C3431 C3432 1.366 . S
C3431 C3433 1.388 . S
C3432 C3431 1.366 . S
C3432 C3436 1.385 . S
C3433 H3408 0.951 . S
C3433 C3431 1.388 . S
C3433 C3434 1.366 . S
C3434 C3433 1.366 . S
C3434 C3435 1.414 . S
C3434 C3437 1.499 . S
C3435 H3409 0.950 . S
C3435 C3434 1.414 . S
C3435 C3436 1.374 . S
C3436 H3410 0.950 . S
C3436 C3432 1.385 . S
C3436 C3435 1.374 . S
C3437 C3434 1.499 . S
C3437 C3438 1.373 . S
C3437 C3439 1.389 . S
C3438 H3411 0.950 . S
C3438 C3424 1.377 . S
C3438 C3437 1.373 . S
C3439 C3423 1.377 . S
C3439 C3437 1.389 . S
C3439 C3440 1.524 . S
C3440 C3439 1.524 . S
C3440 C3441 1.397 . S
C3440 C3445 1.363 . S
C3441 H3412 0.950 . S
C3441 C3440 1.397 . S
C3441 C3442 1.334 . S
C3442 H3413 0.950 . S
C3442 C3441 1.334 . S
C3442 C3443 1.287 . S
C3443 C3442 1.287 . S
C3443 C3444 1.524 . S
C3443 H3446 0.999 . S
C3444 H3414 0.950 . S
C3444 C3443 1.524 . S
C3444 C3445 1.415 . S
C3445 H3415 0.950 . S
C3445 C3440 1.363 . S
C3445 C3444 1.415 . S
H3446 C3443 0.999 . S
H3447 C3428 0.913 . S
H3448 C3466 0.951 1_655 S
H3449 C3468 0.951 . S
H3450 C3470 0.950 . S
H3451 C3471 0.950 . S
H3452 C3473 0.950 . S
H3453 C3476 0.950 . S
H3454 C3477 0.950 . S
H3455 C3479 0.950 . S
H3456 C3480 0.950 . S
H3457 C3481 0.951 . S
H3458 C3483 0.951 . S
H3459 C3485 0.950 . S
H3460 C3486 0.950 . S
H3461 C3488 0.950 . S
H3462 C3491 0.950 . S
H3463 C3492 0.950 . S
H3464 C3494 0.950 . S
H3465 C3495 0.950 . S
C3466 H3448 0.951 1_455 S
C3466 C3467 1.366 . S
C3466 C3468 1.388 . S
C3467 C3466 1.366 . S
C3467 C3471 1.385 . S
C3468 H3449 0.951 . S
C3468 C3466 1.388 . S
C3468 C3469 1.366 . S
C3469 C3468 1.366 . S
C3469 C3470 1.414 . S
C3469 C3472 1.499 . S
C3470 H3450 0.950 . S
C3470 C3469 1.414 . S
C3470 C3471 1.374 . S
C3471 H3451 0.950 . S
C3471 C3467 1.385 . S
C3471 C3470 1.374 . S
C3472 C3469 1.499 . S
C3472 C3473 1.373 . S
C3472 C3474 1.389 . S
C3473 H3452 0.950 . S
C3473 C3472 1.373 . S
C3473 C3489 1.377 . S
C3474 C3472 1.389 . S
C3474 C3475 1.524 . S
C3474 C3488 1.377 . S
C3475 C3474 1.524 . S
C3475 C3476 1.397 . S
C3475 C3480 1.363 . S
C3476 H3453 0.950 . S
C3476 C3475 1.397 . S
C3476 C3477 1.334 . S
C3477 H3454 0.950 . S
C3477 C3476 1.334 . S
C3477 C3478 1.287 . S
C3478 C3477 1.287 . S
C3478 C3479 1.524 . S
C3478 H3497 0.913 . S
C3479 H3455 0.950 . S
C3479 C3478 1.524 . S
C3479 C3480 1.415 . S
C3480 H3456 0.950 . S
C3480 C3475 1.363 . S
C3480 C3479 1.415 . S
C3481 H3457 0.951 . S
C3481 C3482 1.366 . S
C3481 C3483 1.388 . S
C3482 C3481 1.366 . S
C3482 C3486 1.385 . S
C3483 H3458 0.951 . S
C3483 C3481 1.388 . S
C3483 C3484 1.366 . S
C3484 C3483 1.366 . S
C3484 C3485 1.414 . S
C3484 C3487 1.499 . S
C3485 H3459 0.950 . S
C3485 C3484 1.414 . S
C3485 C3486 1.374 . S
C3486 H3460 0.950 . S
C3486 C3482 1.385 . S
C3486 C3485 1.374 . S
C3487 C3484 1.499 . S
C3487 C3488 1.373 . S
C3487 C3489 1.389 . S
C3488 H3461 0.950 . S
C3488 C3474 1.377 . S
C3488 C3487 1.373 . S
C3489 C3473 1.377 . S
C3489 C3487 1.389 . S
C3489 C3490 1.524 . S
C3490 C3489 1.524 . S
C3490 C3491 1.397 . S
C3490 C3495 1.363 . S
C3491 H3462 0.950 . S
C3491 C3490 1.397 . S
C3491 C3492 1.334 . S
C3492 H3463 0.950 . S
C3492 C3491 1.334 . S
C3492 C3493 1.287 . S
C3493 C3492 1.287 . S
C3493 C3494 1.524 . S
C3493 H3496 0.999 . S
C3494 H3464 0.950 . S
C3494 C3493 1.524 . S
C3494 C3495 1.415 . S
C3495 H3465 0.950 . S
C3495 C3490 1.363 . S
C3495 C3494 1.415 . S
H3496 C3493 0.999 . S
H3497 C3478 0.913 . S
H3498 C3516 0.951 . S
H3499 C3518 0.951 . S
H3500 C3520 0.950 . S
H3501 C3521 0.950 . S
H3502 C3523 0.950 . S
H3503 C3526 0.950 . S
H3504 C3527 0.950 . S
H3505 C3529 0.950 . S
H3506 C3530 0.950 . S
H3507 C3531 0.951 . S
H3508 C3533 0.951 . S
H3509 C3535 0.950 . S
H3510 C3536 0.950 . S
H3511 C3538 0.950 . S
H3512 C3541 0.950 . S
H3513 C3542 0.950 . S
H3514 C3544 0.950 . S
H3515 C3545 0.950 . S
C3516 H3498 0.951 . S
C3516 C3517 1.366 . S
C3516 C3518 1.388 . S
C3517 C3516 1.366 . S
C3517 C3521 1.385 . S
C3518 H3499 0.951 . S
C3518 C3516 1.388 . S
C3518 C3519 1.366 . S
C3519 C3518 1.366 . S
C3519 C3520 1.414 . S
C3519 C3522 1.499 . S
C3520 H3500 0.950 . S
C3520 C3519 1.414 . S
C3520 C3521 1.374 . S
C3521 H3501 0.950 . S
C3521 C3517 1.385 . S
C3521 C3520 1.374 . S
C3522 C3519 1.499 . S
C3522 C3523 1.373 . S
C3522 C3524 1.389 . S
C3523 H3502 0.950 . S
C3523 C3522 1.373 . S
C3523 C3539 1.377 . S
C3524 C3522 1.389 . S
C3524 C3525 1.524 . S
C3524 C3538 1.377 . S
C3525 C3524 1.524 . S
C3525 C3526 1.397 . S
C3525 C3530 1.363 . S
C3526 H3503 0.950 . S
C3526 C3525 1.397 . S
C3526 C3527 1.334 . S
C3527 H3504 0.950 . S
C3527 C3526 1.334 . S
C3527 C3528 1.287 . S
C3528 C3527 1.287 . S
C3528 C3529 1.524 . S
C3528 H3547 0.913 . S
C3529 H3505 0.950 . S
C3529 C3528 1.524 . S
C3529 C3530 1.415 . S
C3530 H3506 0.950 . S
C3530 C3525 1.363 . S
C3530 C3529 1.415 . S
C3531 H3507 0.951 . S
C3531 C3532 1.366 . S
C3531 C3533 1.388 . S
C3532 C3531 1.366 . S
C3532 C3536 1.385 . S
C3533 H3508 0.951 . S
C3533 C3531 1.388 . S
C3533 C3534 1.366 . S
C3534 C3533 1.366 . S
C3534 C3535 1.414 . S
C3534 C3537 1.499 . S
C3535 H3509 0.950 . S
C3535 C3534 1.414 . S
C3535 C3536 1.374 . S
C3536 H3510 0.950 . S
C3536 C3532 1.385 . S
C3536 C3535 1.374 . S
C3537 C3534 1.499 . S
C3537 C3538 1.373 . S
C3537 C3539 1.389 . S
C3538 H3511 0.950 . S
C3538 C3524 1.377 . S
C3538 C3537 1.373 . S
C3539 C3523 1.377 . S
C3539 C3537 1.389 . S
C3539 C3540 1.524 . S
C3540 C3539 1.524 . S
C3540 C3541 1.397 . S
C3540 C3545 1.363 . S
C3541 H3512 0.950 . S
C3541 C3540 1.397 . S
C3541 C3542 1.334 . S
C3542 H3513 0.950 . S
C3542 C3541 1.334 . S
C3542 C3543 1.287 . S
C3543 C3542 1.287 . S
C3543 C3544 1.524 . S
C3543 H3546 0.999 . S
C3544 H3514 0.950 . S
C3544 C3543 1.524 . S
C3544 C3545 1.415 . S
C3545 H3515 0.950 . S
C3545 C3540 1.363 . S
C3545 C3544 1.415 . S
H3546 C3543 0.999 . S
H3547 C3528 0.913 . S
H3548 C3566 0.951 . S
H3549 C3568 0.951 . S
H3550 C3570 0.950 . S
H3551 C3571 0.950 1_655 S
H3552 C3573 0.950 . S
H3553 C3576 0.950 . S
H3554 C3577 0.950 . S
H3555 C3579 0.950 . S
H3556 C3580 0.950 . S
H3557 C3581 0.951 . S
H3558 C3583 0.951 . S
H3559 C3585 0.950 . S
H3560 C3586 0.950 . S
H3561 C3588 0.950 . S
H3562 C3591 0.950 . S
H3563 C3592 0.950 . S
H3564 C3594 0.950 . S
H3565 C3595 0.950 . S
C3566 H3548 0.951 . S
C3566 C3567 1.366 . S
C3566 C3568 1.388 . S
C3567 C3566 1.366 . S
C3567 C3571 1.385 . S
C3568 H3549 0.951 . S
C3568 C3566 1.388 . S
C3568 C3569 1.366 . S
C3569 C3568 1.366 . S
C3569 C3570 1.414 . S
C3569 C3572 1.499 . S
C3570 H3550 0.950 . S
C3570 C3569 1.414 . S
C3570 C3571 1.374 . S
C3571 H3551 0.950 1_455 S
C3571 C3567 1.385 . S
C3571 C3570 1.374 . S
C3572 C3569 1.499 . S
C3572 C3573 1.373 . S
C3572 C3574 1.389 . S
C3573 H3552 0.950 . S
C3573 C3572 1.373 . S
C3573 C3589 1.377 . S
C3574 C3572 1.389 . S
C3574 C3575 1.524 . S
C3574 C3588 1.377 . S
C3575 C3574 1.524 . S
C3575 C3576 1.397 . S
C3575 C3580 1.363 . S
C3576 H3553 0.950 . S
C3576 C3575 1.397 . S
C3576 C3577 1.334 . S
C3577 H3554 0.950 . S
C3577 C3576 1.334 . S
C3577 C3578 1.287 . S
C3578 C3577 1.287 . S
C3578 C3579 1.524 . S
C3578 H3597 0.913 . S
C3579 H3555 0.950 . S
C3579 C3578 1.524 . S
C3579 C3580 1.415 . S
C3580 H3556 0.950 . S
C3580 C3575 1.363 . S
C3580 C3579 1.415 . S
C3581 H3557 0.951 . S
C3581 C3582 1.366 . S
C3581 C3583 1.388 . S
C3582 C3581 1.366 . S
C3582 C3586 1.385 . S
C3583 H3558 0.951 . S
C3583 C3581 1.388 . S
C3583 C3584 1.366 . S
C3584 C3583 1.366 . S
C3584 C3585 1.414 . S
C3584 C3587 1.499 . S
C3585 H3559 0.950 . S
C3585 C3584 1.414 . S
C3585 C3586 1.374 . S
C3586 H3560 0.950 . S
C3586 C3582 1.385 . S
C3586 C3585 1.374 . S
C3587 C3584 1.499 . S
C3587 C3588 1.373 . S
C3587 C3589 1.389 . S
C3588 H3561 0.950 . S
C3588 C3574 1.377 . S
C3588 C3587 1.373 . S
C3589 C3573 1.377 . S
C3589 C3587 1.389 . S
C3589 C3590 1.524 . S
C3590 C3589 1.524 . S
C3590 C3591 1.397 . S
C3590 C3595 1.363 . S
C3591 H3562 0.950 . S
C3591 C3590 1.397 . S
C3591 C3592 1.334 . S
C3592 H3563 0.950 . S
C3592 C3591 1.334 . S
C3592 C3593 1.287 . S
C3593 C3592 1.287 . S
C3593 C3594 1.524 . S
C3593 H3596 0.999 . S
C3594 H3564 0.950 . S
C3594 C3593 1.524 . S
C3594 C3595 1.415 . S
C3595 H3565 0.950 . S
C3595 C3590 1.363 . S
C3595 C3594 1.415 . S
H3596 C3593 0.999 . S
H3597 C3578 0.913 . S
H3598 C3616 0.951 . S
H3599 C3618 0.951 . S
H3600 C3620 0.950 . S
H3601 C3621 0.950 . S
H3602 C3623 0.950 . S
H3603 C3626 0.950 . S
H3604 C3627 0.950 . S
H3605 C3629 0.950 . S
H3606 C3630 0.950 . S
H3607 C3631 0.951 . S
H3608 C3633 0.951 . S
H3609 C3635 0.950 . S
H3610 C3636 0.950 . S
H3611 C3638 0.950 . S
H3612 C3641 0.950 . S
H3613 C3642 0.950 . S
H3614 C3644 0.950 . S
H3615 C3645 0.950 . S
C3616 H3598 0.951 . S
C3616 C3617 1.366 . S
C3616 C3618 1.388 . S
C3617 C3616 1.366 . S
C3617 C3621 1.385 . S
C3618 H3599 0.951 . S
C3618 C3616 1.388 . S
C3618 C3619 1.366 . S
C3619 C3618 1.366 . S
C3619 C3620 1.414 . S
C3619 C3622 1.499 . S
C3620 H3600 0.950 . S
C3620 C3619 1.414 . S
C3620 C3621 1.374 . S
C3621 H3601 0.950 . S
C3621 C3617 1.385 . S
C3621 C3620 1.374 . S
C3622 C3619 1.499 . S
C3622 C3623 1.373 . S
C3622 C3624 1.389 . S
C3623 H3602 0.950 . S
C3623 C3622 1.373 . S
C3623 C3639 1.377 . S
C3624 C3622 1.389 . S
C3624 C3625 1.524 . S
C3624 C3638 1.377 . S
C3625 C3624 1.524 . S
C3625 C3626 1.397 . S
C3625 C3630 1.363 . S
C3626 H3603 0.950 . S
C3626 C3625 1.397 . S
C3626 C3627 1.334 . S
C3627 H3604 0.950 . S
C3627 C3626 1.334 . S
C3627 C3628 1.287 . S
C3628 C3627 1.287 . S
C3628 C3629 1.524 . S
C3628 H3647 0.913 . S
C3629 H3605 0.950 . S
C3629 C3628 1.524 . S
C3629 C3630 1.415 . S
C3630 H3606 0.950 . S
C3630 C3625 1.363 . S
C3630 C3629 1.415 . S
C3631 H3607 0.951 . S
C3631 C3632 1.366 . S
C3631 C3633 1.388 . S
C3632 C3631 1.366 . S
C3632 C3636 1.385 . S
C3633 H3608 0.951 . S
C3633 C3631 1.388 . S
C3633 C3634 1.366 . S
C3634 C3633 1.366 . S
C3634 C3635 1.414 . S
C3634 C3637 1.499 . S
C3635 H3609 0.950 . S
C3635 C3634 1.414 . S
C3635 C3636 1.374 . S
C3636 H3610 0.950 . S
C3636 C3632 1.385 . S
C3636 C3635 1.374 . S
C3637 C3634 1.499 . S
C3637 C3638 1.373 . S
C3637 C3639 1.389 . S
C3638 H3611 0.950 . S
C3638 C3624 1.377 . S
C3638 C3637 1.373 . S
C3639 C3623 1.377 . S
C3639 C3637 1.389 . S
C3639 C3640 1.524 . S
C3640 C3639 1.524 . S
C3640 C3641 1.397 . S
C3640 C3645 1.363 . S
C3641 H3612 0.950 . S
C3641 C3640 1.397 . S
C3641 C3642 1.334 . S
C3642 H3613 0.950 . S
C3642 C3641 1.334 . S
C3642 C3643 1.287 . S
C3643 C3642 1.287 . S
C3643 C3644 1.524 . S
C3643 H3646 0.999 . S
C3644 H3614 0.950 . S
C3644 C3643 1.524 . S
C3644 C3645 1.415 . S
C3645 H3615 0.950 . S
C3645 C3640 1.363 . S
C3645 C3644 1.415 . S
H3646 C3643 0.999 . S
H3647 C3628 0.913 . S
C467 C50 0.682 . S
C482 C8 0.684 . S
C517 C36 0.685 . S
C532 C22 0.683 . S
C567 C106 0.684 . S
C582 C64 0.682 . S
C617 C92 0.684 . S
C632 C78 0.685 . S
C667 C120 0.684 . S
C682 C162 0.684 . S
C717 C134 0.682 . S
C732 C148 0.684 . S
C767 C218 0.684 . S
C782 C176 0.683 . S
C817 C190 0.685 . S
C832 C204 0.683 . S
C867 C232 0.681 . S
C882 C274 0.683 . S
C917 C246 0.683 . S
C932 C260 0.681 . S
C967 C330 0.684 . S
C982 C288 0.684 . S
C1017 C316 0.684 . S
C1032 C302 0.684 . S
C1067 C386 0.684 . S
C1082 C344 0.682 . S
C1117 C358 0.682 . S
C1132 C372 0.681 . S
C1167 C400 0.682 . S
C1182 C442 0.684 . S
C1217 C414 0.684 . S
C1232 C428 0.682 . S
C1267 C287 1.022 . S
C1282 C7 1.022 . S
C1317 C189 1.023 . S
C1332 C21 1.023 . S
C1367 C35 1.023 . S
C1382 C427 1.023 . S
C1417 C49 1.024 . S
C1432 C105 1.024 . S
C1467 C231 1.024 . S
C1482 C63 1.024 . S
C1517 C133 1.024 . S
C1532 C77 1.024 . S
C1567 C371 1.023 . S
C1582 C91 1.023 . S
C1617 C119 1.023 . S
C1632 C399 1.023 . S
C1667 C315 1.023 . S
C1682 C147 1.023 . S
C1717 C217 1.023 . S
C1732 C161 1.023 . S
C1767 C343 1.024 . S
C1782 C175 1.024 . S
C1817 C203 1.024 . S
C1832 C259 1.024 . S
C1867 C413 1.023 . S
C1882 C245 1.023 . S
C1917 C273 1.024 . S
C1932 C329 1.024 . S
C1967 C357 1.023 . S
C1982 C301 1.023 . S
C2017 C441 1.023 . S
C2032 C385 1.023 . S
C2067 C27 1.231 . S
C2082 C13 1.229 . S
C2117 C41 1.230 . S
C2132 C55 1.231 . S
C2167 C69 1.230 . S
C2182 C83 1.230 . S
C2217 C111 1.229 . S
C2232 C97 1.230 . S
C2267 C125 1.229 . S
C2282 C139 1.230 . S
C2317 C153 1.231 . S
C2332 C167 1.230 . S
C2367 C195 1.230 . S
C2382 C181 1.231 . S
C2417 C209 1.230 . S
C2432 C223 1.230 . S
C2467 C237 1.231 . S
C2482 C251 1.230 . S
C2517 C265 1.231 . S
C2532 C279 1.230 . S
C2567 C293 1.231 . S
C2582 C307 1.231 . S
C2617 C335 1.229 . S
C2632 C321 1.231 . S
C2667 C363 1.231 . S
C2682 C349 1.230 . S
C2717 C377 1.230 . S
C2732 C391 1.230 . S
C2767 C405 1.230 . S
C2782 C419 1.231 . S
C2817 C447 1.230 . S
C2832 C433 1.230 . S
C2867 C11 1.409 1_655 S
C2882 C277 1.409 . S
C2917 C25 1.408 . S
C2932 C263 1.408 . S
C2967 C249 1.408 . S
C2982 C39 1.408 1_655 S
C3017 C53 1.409 . S
C3032 C235 1.409 . S
C3067 C333 1.408 . S
C3082 C67 1.408 1_455 S
C3117 C81 1.408 . S
C3132 C319 1.408 . S
C3167 C305 1.409 . S
C3182 C95 1.409 1_455 S
C3217 C109 1.409 . S
C3232 C291 1.409 . S
C3267 C123 1.409 1_655 S
C3282 C389 1.409 . S
C3317 C137 1.409 . S
C3332 C375 1.409 . S
C3367 C151 1.408 1_655 S
C3382 C361 1.408 . S
C3417 C347 1.409 . S
C3432 C165 1.409 . S
C3467 C179 1.409 1_455 S
C3482 C445 1.409 . S
C3517 C193 1.409 . S
C3532 C431 1.409 . S
C3567 C207 1.408 1_455 S
C3582 C417 1.408 . S
C3617 C403 1.408 . S
C3632 C221 1.408 . S
