# Generated by pormake.
# Topology sod, (4)-cn, num edge types: 1
# Building blocks:
#     Node 0, Type 0, BuildingBlock: QUQFOY_clean_sbu_1, # of connection points: 4
#     Node 1, Type 0, BuildingBlock: QUQFOY_clean_sbu_1, # of connection points: 4
#     Node 2, Type 0, BuildingBlock: QUQFOY_clean_sbu_1, # of connection points: 4
#     Node 3, Type 0, BuildingBlock: QUQFOY_clean_sbu_1, # of connection points: 4
#     Node 4, Type 0, BuildingBlock: QUQFOY_clean_sbu_1, # of connection points: 4
#     Node 5, Type 0, BuildingBlock: QUQFOY_clean_sbu_1, # of connection points: 4
#     Node 6, Type 0, BuildingBlock: QUQFOY_clean_sbu_1, # of connection points: 4
#     Node 7, Type 0, BuildingBlock: QUQFOY_clean_sbu_1, # of connection points: 4
#     Node 8, Type 0, BuildingBlock: QUQFOY_clean_sbu_1, # of connection points: 4
#     Node 9, Type 0, BuildingBlock: QUQFOY_clean_sbu_1, # of connection points: 4
#     Node 10, Type 0, BuildingBlock: QUQFOY_clean_sbu_1, # of connection points: 4
#     Node 11, Type 0, BuildingBlock: QUQFOY_clean_sbu_1, # of connection points: 4
#     Edge 12, Type (0, 0), BuildingBlock: AJUNOK_clean_linker_0, # of connection points: 2
#     Edge 13, Type (0, 0), BuildingBlock: AJUNOK_clean_linker_0, # of connection points: 2
#     Edge 14, Type (0, 0), BuildingBlock: AJUNOK_clean_linker_0, # of connection points: 2
#     Edge 15, Type (0, 0), BuildingBlock: AJUNOK_clean_linker_0, # of connection points: 2
#     Edge 16, Type (0, 0), BuildingBlock: AJUNOK_clean_linker_0, # of connection points: 2
#     Edge 17, Type (0, 0), BuildingBlock: AJUNOK_clean_linker_0, # of connection points: 2
#     Edge 18, Type (0, 0), BuildingBlock: AJUNOK_clean_linker_0, # of connection points: 2
#     Edge 19, Type (0, 0), BuildingBlock: AJUNOK_clean_linker_0, # of connection points: 2
#     Edge 20, Type (0, 0), BuildingBlock: AJUNOK_clean_linker_0, # of connection points: 2
#     Edge 21, Type (0, 0), BuildingBlock: AJUNOK_clean_linker_0, # of connection points: 2
#     Edge 22, Type (0, 0), BuildingBlock: AJUNOK_clean_linker_0, # of connection points: 2
#     Edge 23, Type (0, 0), BuildingBlock: AJUNOK_clean_linker_0, # of connection points: 2
#     Edge 24, Type (0, 0), BuildingBlock: AJUNOK_clean_linker_0, # of connection points: 2
#     Edge 25, Type (0, 0), BuildingBlock: AJUNOK_clean_linker_0, # of connection points: 2
#     Edge 26, Type (0, 0), BuildingBlock: AJUNOK_clean_linker_0, # of connection points: 2
#     Edge 27, Type (0, 0), BuildingBlock: AJUNOK_clean_linker_0, # of connection points: 2
#     Edge 28, Type (0, 0), BuildingBlock: AJUNOK_clean_linker_0, # of connection points: 2
#     Edge 29, Type (0, 0), BuildingBlock: AJUNOK_clean_linker_0, # of connection points: 2
#     Edge 30, Type (0, 0), BuildingBlock: AJUNOK_clean_linker_0, # of connection points: 2
#     Edge 31, Type (0, 0), BuildingBlock: AJUNOK_clean_linker_0, # of connection points: 2
#     Edge 32, Type (0, 0), BuildingBlock: AJUNOK_clean_linker_0, # of connection points: 2
#     Edge 33, Type (0, 0), BuildingBlock: AJUNOK_clean_linker_0, # of connection points: 2
#     Edge 34, Type (0, 0), BuildingBlock: AJUNOK_clean_linker_0, # of connection points: 2
#     Edge 35, Type (0, 0), BuildingBlock: AJUNOK_clean_linker_0, # of connection points: 2
# Relax obj value: 0.196
# Max RMSD: 0.253
# Mean RMSD: 0.228
data_MOF--net-sod--node1-QUQFOY_clean_sbu_1--edge1-AJUNOK_clean_linker_0
_symmetry_space_group_name_H-M    P1
_symmetry_Int_Tables_number       1
_symmetry_cell_setting            triclinic
loop_
_symmetry_equiv_pos_as_xyz
'x, y, z'
_cell_length_a     33.065306
_cell_length_b     33.036336
_cell_length_c     33.162323
_cell_angle_alpha  93.1759
_cell_angle_beta   89.485545
_cell_angle_gamma 96.522899
loop_
_atom_site_label
_atom_site_type_symbol
_atom_site_fract_x
_atom_site_fract_y
_atom_site_fract_z
_atom_type_partial_charge
O0 O 0.03183 0.22773 0.48843 0.0
Cd1 Cd 0.08305 0.2686 0.47904 0.0
Cd2 Cd 0.0412 0.31935 0.53111 0.0
O3 O 0.00434 0.26583 0.5357 0.0
O4 O 0.1283 0.23557 0.46437 0.0
O5 O 0.12569 0.27222 0.52213 0.0
C6 C 0.14372 0.24659 0.49945 0.0
C7 C 0.04044 0.36563 0.58736 0.0
C8 C 0.00413 0.23266 0.5145 0.0
C9 C 0.05768 0.34223 0.44387 0.0
O10 O 0.04018 0.34734 0.47767 0.0
O11 O 0.0798 0.31339 0.43772 0.0
O12 O 0.00942 0.35655 0.56428 0.0
O13 O 0.07237 0.34755 0.57917 0.0
O14 O 0.75151 0.07568 0.5737 0.0
Cd15 Cd 0.78396 0.07148 0.52093 0.0
Cd16 Cd 0.83043 0.02956 0.57105 0.0
O17 O 0.78325 0.03645 0.61156 0.0
O18 O 0.74914 0.09511 0.4818 0.0
O19 O 0.76258 0.03112 0.47616 0.0
C20 C 0.74422 0.06002 0.46254 0.0
C21 C 0.85395 0.96637 0.55829 0.0
C22 C 0.75492 0.05869 0.60672 0.0
C23 C 0.87049 0.10654 0.53661 0.0
O24 O 0.87347 0.07865 0.56095 0.0
O25 O 0.83801 0.10787 0.5169 0.0
O26 O 0.86171 0.98727 0.59186 0.0
O27 O 0.83103 0.98069 0.53241 0.0
O28 O 0.07975 0.86729 0.50587 0.0
Cd29 Cd 0.02856 0.82637 0.49879 0.0
Cd30 Cd 0.0655 0.78385 0.55495 0.0
O31 O 0.10173 0.83924 0.55921 0.0
O32 O 0.98447 0.8567 0.4799 0.0
O33 O 0.98433 0.83023 0.53987 0.0
C34 C 0.96735 0.85155 0.51468 0.0
C35 C 0.05416 0.74995 0.61473 0.0
C36 C 0.1043 0.86805 0.53515 0.0
C37 C 0.05044 0.74563 0.46974 0.0
O38 O 0.06674 0.74439 0.50416 0.0
O39 O 0.03191 0.77566 0.46131 0.0
O40 O 0.08908 0.75294 0.59705 0.0
O41 O 0.02543 0.76718 0.59886 0.0
O42 O 0.23222 0.02949 0.58359 0.0
Cd43 Cd 0.27286 0.0813 0.58828 0.0
Cd44 Cd 0.31811 0.03819 0.53346 0.0
O45 O 0.26279 0.00211 0.53107 0.0
O46 O 0.24197 0.12888 0.60038 0.0
O47 O 0.27394 0.11832 0.54239 0.0
C48 C 0.25056 0.13971 0.56415 0.0
C49 C 0.35786 0.03542 0.47464 0.0
C50 C 0.23304 0.00179 0.55559 0.0
C51 C 0.35069 0.06095 0.61912 0.0
O52 O 0.35356 0.04224 0.58489 0.0
O53 O 0.32086 0.08111 0.62718 0.0
O54 O 0.35143 0.0051 0.49738 0.0
O55 O 0.34052 0.06763 0.48465 0.0
O56 O 0.51016 0.01313 0.22293 0.0
Cd57 Cd 0.50874 0.06315 0.26297 0.0
Cd58 Cd 0.55502 0.01534 0.30729 0.0
O59 O 0.55441 0.98059 0.25384 0.0
O60 O 0.48628 0.10401 0.23027 0.0
O61 O 0.54906 0.11219 0.25412 0.0
C62 C 0.52121 0.12559 0.23303 0.0
C63 C 0.61606 0.02887 0.34285 0.0
C64 C 0.53214 0.98401 0.2235 0.0
C65 C 0.47398 0.03546 0.34154 0.0
O66 O 0.50331 0.01381 0.34277 0.0
O67 O 0.47179 0.05947 0.31325 0.0
O68 O 0.5955 0.99327 0.34163 0.0
O69 O 0.60237 0.05676 0.32267 0.0
O70 O 0.02904 0.58079 0.35198 0.0
Cd71 Cd 0.01804 0.53143 0.3114 0.0
Cd72 Cd 0.06646 0.58002 0.26331 0.0
O73 O 0.06905 0.62021 0.31322 0.0
O74 O 0.99574 0.48674 0.34548 0.0
O75 O 0.05429 0.48615 0.31302 0.0
C76 C 0.02795 0.46908 0.33763 0.0
C77 C 0.12615 0.57263 0.22681 0.0
C78 C 0.05098 0.61416 0.34665 0.0
C79 C 0.98012 0.55477 0.23597 0.0
O80 O 0.01454 0.57427 0.2289 0.0
O81 O 0.97458 0.53455 0.26744 0.0
O82 O 0.10812 0.60514 0.22616 0.0
O83 O 0.11077 0.5442 0.24949 0.0
O84 O 0.52835 0.07694 0.85061 0.0
Cd85 Cd 0.51827 0.0277 0.80976 0.0
Cd86 Cd 0.56566 0.07869 0.76142 0.0
O87 O 0.56653 0.1181 0.81188 0.0
O88 O 0.49512 0.98276 0.84326 0.0
O89 O 0.55434 0.98223 0.81208 0.0
C90 C 0.52718 0.96485 0.83568 0.0
C91 C 0.62577 0.07594 0.72419 0.0
C92 C 0.54893 0.1111 0.84538 0.0
C93 C 0.47986 0.05081 0.73414 0.0
O94 O 0.5138 0.07116 0.72694 0.0
O95 O 0.47493 0.03057 0.76564 0.0
O96 O 0.60566 0.1071 0.72475 0.0
O97 O 0.61225 0.04616 0.7461 0.0
O98 O 0.01481 0.51375 0.72247 0.0
Cd99 Cd 0.01262 0.56398 0.762 0.0
Cd100 Cd 0.06064 0.51682 0.80677 0.0
O101 O 0.06027 0.48247 0.75313 0.0
O102 O 0.98944 0.60404 0.72874 0.0
O103 O 0.05199 0.61367 0.753 0.0
C104 C 0.02405 0.62624 0.73142 0.0
C105 C 0.12119 0.52696 0.84358 0.0
C106 C 0.03744 0.48516 0.72305 0.0
C107 C 0.97852 0.53557 0.8404 0.0
O108 O 0.00853 0.51481 0.84169 0.0
O109 O 0.97569 0.55958 0.81221 0.0
O110 O 0.09944 0.49205 0.8409 0.0
O111 O 0.10892 0.55632 0.82445 0.0
O112 O 0.37506 0.57497 0.06367 0.0
Cd113 Cd 0.33174 0.52598 0.07339 0.0
Cd114 Cd 0.28539 0.56941 0.02509 0.0
O115 O 0.33927 0.60624 0.02162 0.0
O116 O 0.36302 0.48298 0.09276 0.0
O117 O 0.33156 0.4778 0.03378 0.0
C118 C 0.35486 0.46284 0.05883 0.0
C119 C 0.24647 0.55617 0.96639 0.0
C120 C 0.37213 0.6037 0.04029 0.0
C121 C 0.25584 0.55371 0.1101 0.0
O122 O 0.25243 0.57184 0.07772 0.0
O123 O 0.28471 0.53197 0.11431 0.0
O124 O 0.25003 0.59147 0.98535 0.0
O125 O 0.26597 0.52828 0.9804 0.0
O126 O 0.57866 0.36429 0.01364 0.0
Cd127 Cd 0.52902 0.32119 0.00476 0.0
Cd128 Cd 0.57332 0.2776 0.05444 0.0
O129 O 0.61303 0.33031 0.05456 0.0
O130 O 0.48581 0.35133 0.98344 0.0
O131 O 0.48237 0.3249 0.04344 0.0
C132 C 0.46674 0.34603 0.01715 0.0
C133 C 0.55864 0.24644 0.11501 0.0
C134 C 0.60942 0.36215 0.03575 0.0
C135 C 0.55155 0.2405 0.97127 0.0
O136 O 0.56972 0.23779 0.0044 0.0
O137 O 0.53321 0.27138 0.96513 0.0
O138 O 0.59351 0.24559 0.09751 0.0
O139 O 0.53235 0.26657 0.09871 0.0
O140 O 0.73315 0.52881 0.07396 0.0
Cd141 Cd 0.77497 0.57972 0.08239 0.0
Cd142 Cd 0.82346 0.53274 0.03276 0.0
O143 O 0.77093 0.49292 0.03364 0.0
O144 O 0.74341 0.62613 0.09786 0.0
O145 O 0.77633 0.6207 0.03973 0.0
C146 C 0.75257 0.64015 0.06298 0.0
C147 C 0.86239 0.53087 0.97347 0.0
C148 C 0.73773 0.49677 0.05222 0.0
C149 C 0.85305 0.56066 0.11748 0.0
O150 O 0.85863 0.54203 0.08376 0.0
O151 O 0.82132 0.57851 0.1239 0.0
O152 O 0.85903 0.50144 0.99748 0.0
O153 O 0.84245 0.56156 0.98256 0.0
O154 O 0.53312 0.72693 0.99232 0.0
Cd155 Cd 0.58318 0.76918 0.98245 0.0
Cd156 Cd 0.53683 0.81955 0.03055 0.0
O157 O 0.50132 0.76535 0.03596 0.0
O158 O 0.62881 0.73646 0.96816 0.0
O159 O 0.6263 0.77411 0.02523 0.0
C160 C 0.64429 0.74806 0.00308 0.0
C161 C 0.53623 0.8664 0.08625 0.0
C162 C 0.50396 0.73145 0.01681 0.0
C163 C 0.55538 0.83988 0.94325 0.0
O164 O 0.53613 0.84551 0.97597 0.0
O165 O 0.57931 0.81235 0.93948 0.0
O166 O 0.50512 0.85723 0.06324 0.0
O167 O 0.56817 0.84831 0.07811 0.0
C168 C 0.01266 0.38643 0.41233 0.0
C169 C 0.05008 0.37001 0.41193 0.0
C170 C 0.00529 0.41672 0.38654 0.0
C171 C 0.03517 0.43241 0.35934 0.0
H172 H 0.98897 0.37647 0.43356 0.0
H173 H 0.97627 0.42892 0.38918 0.0
S174 S 0.13717 0.39709 0.3437 0.0
N175 N 0.1164 0.36921 0.37997 0.0
N176 N 0.10285 0.42692 0.33141 0.0
C177 C 0.0721 0.41478 0.357 0.0
C178 C 0.07946 0.38338 0.38328 0.0
C179 C 0.6992 0.01269 0.41644 0.0
C180 C 0.71588 0.05266 0.42788 0.0
C181 C 0.66806 0.0053 0.38769 0.0
C182 C 0.6526 0.03754 0.36894 0.0
H183 H 0.70897 0.98694 0.43104 0.0
H184 H 0.65522 0.97401 0.38105 0.0
S185 S 0.68963 0.14762 0.38457 0.0
N186 N 0.71732 0.12476 0.41556 0.0
N187 N 0.65901 0.11084 0.36136 0.0
C188 C 0.67071 0.07753 0.37834 0.0
C189 C 0.70225 0.08508 0.40787 0.0
C190 C 0.05608 0.688 0.36832 0.0
C191 C 0.05345 0.6471 0.37875 0.0
C192 C 0.05518 0.71971 0.39802 0.0
C193 C 0.05269 0.71173 0.43923 0.0
H194 H 0.0576 0.69549 0.33691 0.0
H195 H 0.05649 0.75074 0.38864 0.0
S196 S 0.04699 0.61004 0.48243 0.0
N197 N 0.04909 0.60031 0.43311 0.0
N198 N 0.04864 0.66012 0.48907 0.0
C199 C 0.05124 0.67108 0.45015 0.0
C200 C 0.05124 0.6387 0.41986 0.0
C201 C 0.39091 0.06599 0.41326 0.0
C202 C 0.3857 0.03365 0.43938 0.0
C203 C 0.41879 0.06588 0.38111 0.0
C204 C 0.44287 0.03365 0.37409 0.0
H205 H 0.37368 0.09187 0.41789 0.0
H206 H 0.42215 0.09179 0.36222 0.0
S207 S 0.43938 0.94048 0.43229 0.0
N208 N 0.40586 0.96752 0.45484 0.0
N209 N 0.45824 0.96759 0.39479 0.0
C210 C 0.43733 0.0007 0.39944 0.0
C211 C 0.40876 0.00063 0.43194 0.0
C212 C 0.99973 0.67657 0.68629 0.0
C213 C 0.03198 0.6629 0.70735 0.0
C214 C 0.00688 0.70675 0.65818 0.0
C215 C 0.04661 0.72414 0.64974 0.0
H216 H 0.96874 0.66277 0.69032 0.0
H217 H 0.98127 0.71483 0.64142 0.0
S218 S 0.14108 0.70354 0.70073 0.0
N219 N 0.10474 0.67254 0.72098 0.0
N220 N 0.11818 0.72899 0.66792 0.0
C221 C 0.07885 0.71278 0.67247 0.0
C222 C 0.07154 0.68227 0.70137 0.0
C223 C 0.4543 0.05444 0.66421 0.0
C224 C 0.44595 0.05185 0.70569 0.0
C225 C 0.42318 0.05724 0.63652 0.0
C226 C 0.38272 0.05874 0.6494 0.0
H227 H 0.48514 0.05402 0.65299 0.0
H228 H 0.43099 0.05881 0.60479 0.0
S229 S 0.34485 0.05331 0.75476 0.0
N230 N 0.39426 0.0506 0.75836 0.0
N231 N 0.3358 0.05715 0.70629 0.0
C232 C 0.37392 0.05647 0.6908 0.0
C233 C 0.40552 0.05261 0.71895 0.0
C234 C 0.0693 0.40015 0.65172 0.0
C235 C 0.03918 0.39621 0.62166 0.0
C236 C 0.06834 0.42875 0.6845 0.0
C237 C 0.03746 0.45485 0.68828 0.0
H238 H 0.09369 0.38083 0.65012 0.0
H239 H 0.09224 0.43057 0.70688 0.0
S240 S 0.95161 0.45715 0.61724 0.0
N241 N 0.97766 0.42112 0.59758 0.0
N242 N 0.97599 0.47478 0.65888 0.0
C243 C 0.00725 0.45133 0.65826 0.0
C244 C 0.00807 0.42204 0.62508 0.0
C245 C 0.68192 0.03835 0.69438 0.0
C246 C 0.66162 0.07367 0.69719 0.0
C247 C 0.71327 0.03416 0.66607 0.0
C248 C 0.72503 0.06495 0.6393 0.0
H249 H 0.67289 0.01327 0.71343 0.0
H250 H 0.72728 0.00603 0.66414 0.0
S251 S 0.68502 0.16531 0.63719 0.0
N252 N 0.65836 0.14152 0.67286 0.0
N253 N 0.71662 0.13329 0.61967 0.0
C254 C 0.70624 0.10106 0.64295 0.0
C255 C 0.67473 0.10553 0.6719 0.0
C256 C 0.42301 0.37922 0.06773 0.0
C257 C 0.43116 0.36819 0.02718 0.0
C258 C 0.39598 0.40796 0.07781 0.0
C259 C 0.37567 0.42632 0.04776 0.0
H260 H 0.43965 0.36777 0.09183 0.0
H261 H 0.39258 0.4173 0.10937 0.0
S262 S 0.38093 0.40212 0.93733 0.0
N263 N 0.41285 0.37368 0.95699 0.0
N264 N 0.3616 0.42726 0.97593 0.0
C265 C 0.38071 0.4127 0.00727 0.0
C266 C 0.40863 0.38378 0.99698 0.0
C267 C 0.39911 0.67594 0.03166 0.0
C268 C 0.40671 0.63528 0.03503 0.0
C269 C 0.43095 0.70674 0.02597 0.0
C270 C 0.47143 0.69784 0.02227 0.0
H271 H 0.36832 0.68412 0.0339 0.0
H272 H 0.42374 0.73775 0.02392 0.0
S273 S 0.50744 0.59612 0.0283 0.0
N274 N 0.45761 0.58759 0.0345 0.0
N275 N 0.51757 0.64558 0.0223 0.0
C276 C 0.4795 0.65726 0.0251 0.0
C277 C 0.4471 0.62595 0.03197 0.0
C278 C 0.68234 0.39003 0.0429 0.0
C279 C 0.64138 0.39704 0.03981 0.0
C280 C 0.71335 0.42258 0.04658 0.0
C281 C 0.70435 0.46323 0.0485 0.0
H282 H 0.69056 0.35916 0.04185 0.0
H283 H 0.74459 0.41587 0.04846 0.0
S284 S 0.60187 0.49786 0.04251 0.0
N285 N 0.59334 0.44754 0.03884 0.0
N286 N 0.65167 0.50881 0.04716 0.0
C287 C 0.66349 0.47069 0.04599 0.0
C288 C 0.63198 0.43754 0.04122 0.0
C289 C 0.72644 0.67708 0.00664 0.0
C290 C 0.73217 0.67429 0.04832 0.0
C291 C 0.69993 0.70318 0.99212 0.0
C292 C 0.67852 0.72792 0.01867 0.0
H293 H 0.74044 0.65709 0.98506 0.0
H294 H 0.69475 0.70245 0.95986 0.0
S295 S 0.68839 0.73702 0.13035 0.0
N296 N 0.71821 0.70208 0.11579 0.0
N297 N 0.66888 0.75152 0.08856 0.0
C298 C 0.68674 0.72799 0.06026 0.0
C299 C 0.71339 0.70103 0.07507 0.0
C300 C 0.58025 0.88613 0.88835 0.0
C301 C 0.54794 0.86554 0.90961 0.0
C302 C 0.57319 0.91676 0.86221 0.0
C303 C 0.53361 0.9275 0.85655 0.0
H304 H 0.61127 0.88034 0.89382 0.0
H305 H 0.5991 0.93364 0.84822 0.0
S306 S 0.43821 0.87668 0.8996 0.0
N307 N 0.47476 0.85395 0.91925 0.0
N308 N 0.46135 0.91075 0.87007 0.0
C309 C 0.50091 0.90459 0.87519 0.0
C310 C 0.50812 0.87381 0.90177 0.0
C311 C 0.20165 0.58047 0.9147 0.0
C312 C 0.21874 0.54791 0.93123 0.0
C313 C 0.17162 0.57355 0.8848 0.0
C314 C 0.15715 0.53375 0.87049 0.0
H315 H 0.21067 0.61164 0.92572 0.0
H316 H 0.15843 0.59955 0.87416 0.0
S317 S 0.19499 0.43811 0.90038 0.0
N318 N 0.22141 0.47452 0.9284 0.0
N319 N 0.16474 0.46145 0.87243 0.0
C320 C 0.17541 0.50101 0.8852 0.0
C321 C 0.20628 0.50809 0.91546 0.0
C322 C 0.55284 0.18468 0.86838 0.0
C323 C 0.55093 0.14355 0.878 0.0
C324 C 0.55259 0.2159 0.89874 0.0
C325 C 0.5515 0.20715 0.93976 0.0
H326 H 0.55362 0.19274 0.83713 0.0
H327 H 0.55367 0.24714 0.89004 0.0
S328 S 0.54715 0.10455 0.98089 0.0
N329 N 0.54804 0.09574 0.9314 0.0
N330 N 0.54875 0.15453 0.9885 0.0
C331 C 0.55026 0.16623 0.9498 0.0
C332 C 0.54963 0.13439 0.9189 0.0
C333 C 0.92247 0.56407 0.88032 0.0
C334 C 0.94722 0.53249 0.87271 0.0
C335 C 0.89447 0.56296 0.9124 0.0
C336 C 0.88989 0.53006 0.93788 0.0
H337 H 0.92544 0.59042 0.86202 0.0
H338 H 0.87682 0.58845 0.91762 0.0
S339 S 0.94494 0.43786 0.92849 0.0
N340 N 0.96354 0.46619 0.89175 0.0
N341 N 0.91096 0.46384 0.95167 0.0
C342 C 0.91348 0.49758 0.92966 0.0
C343 C 0.94214 0.49887 0.89723 0.0
C344 C 0.57063 0.17538 0.19877 0.0
C345 C 0.53016 0.16207 0.20904 0.0
C346 C 0.57961 0.2045 0.1699 0.0
C347 C 0.54849 0.22177 0.15049 0.0
H348 H 0.59555 0.16157 0.21136 0.0
H349 H 0.61118 0.21224 0.16159 0.0
S350 S 0.43777 0.20199 0.17147 0.0
N351 N 0.45886 0.17177 0.20107 0.0
N352 N 0.47576 0.22677 0.14706 0.0
C353 C 0.50806 0.2111 0.16282 0.0
C354 C 0.49889 0.18114 0.192 0.0
C355 C 0.95605 0.55976 0.16575 0.0
C356 C 0.9467 0.55601 0.20691 0.0
C357 C 0.92547 0.56167 0.1373 0.0
C358 C 0.88441 0.56094 0.14897 0.0
H359 H 0.98726 0.56066 0.1553 0.0
H360 H 0.93412 0.5639 0.10583 0.0
S361 S 0.84384 0.5525 0.25311 0.0
N362 N 0.89345 0.55192 0.25809 0.0
N363 N 0.83589 0.55663 0.20447 0.0
C364 C 0.87458 0.55791 0.19008 0.0
C365 C 0.90574 0.55504 0.21907 0.0
C366 C 0.56377 0.89908 0.15187 0.0
C367 C 0.53492 0.89678 0.1207 0.0
C368 C 0.56241 0.92708 0.18511 0.0
C369 C 0.53243 0.95422 0.18827 0.0
H370 H 0.58737 0.87883 0.15084 0.0
H371 H 0.5853 0.92758 0.20835 0.0
S372 S 0.45041 0.96126 0.11397 0.0
N373 N 0.47582 0.92455 0.0947 0.0
N374 N 0.47339 0.97714 0.15685 0.0
C375 C 0.50359 0.95244 0.15705 0.0
C376 C 0.50481 0.92375 0.1234 0.0
C377 C 0.20341 0.59252 0.14337 0.0
C378 C 0.22545 0.55853 0.14263 0.0
C379 C 0.17245 0.59719 0.17158 0.0
C380 C 0.16175 0.56784 0.20014 0.0
H381 H 0.20979 0.61575 0.12164 0.0
H382 H 0.15614 0.6237 0.17015 0.0
S383 S 0.21129 0.47389 0.21232 0.0
N384 N 0.23567 0.49564 0.17403 0.0
N385 N 0.17687 0.50416 0.22704 0.0
C386 C 0.1842 0.53411 0.20055 0.0
C387 C 0.21622 0.52953 0.17188 0.0
C388 C 0.88353 0.91982 0.50717 0.0
C389 C 0.87528 0.93015 0.54787 0.0
C390 C 0.9115 0.89216 0.49662 0.0
C391 C 0.93187 0.87339 0.52634 0.0
H392 H 0.87047 0.93523 0.48329 0.0
H393 H 0.91864 0.88703 0.46493 0.0
S394 S 0.91518 0.88455 0.63706 0.0
N395 N 0.8855 0.91553 0.61788 0.0
N396 N 0.93765 0.86311 0.59808 0.0
C397 C 0.92104 0.88064 0.56701 0.0
C398 C 0.89288 0.90918 0.57777 0.0
C399 C 0.97694 0.15931 0.52037 0.0
C400 C 0.97008 0.20049 0.51954 0.0
C401 C 0.94466 0.12887 0.52698 0.0
C402 C 0.90453 0.13869 0.53167 0.0
H403 H 0.00747 0.15072 0.51665 0.0
H404 H 0.95098 0.09745 0.52764 0.0
S405 S 0.87066 0.24184 0.53122 0.0
N406 N 0.92037 0.24945 0.52411 0.0
N407 N 0.85972 0.19218 0.53505 0.0
C408 C 0.89734 0.17965 0.53042 0.0
C409 C 0.93015 0.2106 0.52474 0.0
C410 C 0.15595 0.92028 0.50759 0.0
C411 C 0.13631 0.90265 0.54117 0.0
C412 C 0.18735 0.95234 0.51258 0.0
C413 C 0.19932 0.96862 0.55129 0.0
H414 H 0.14758 0.90864 0.47725 0.0
H415 H 0.20215 0.96469 0.48592 0.0
S416 S 0.1563 0.93417 0.64887 0.0
N417 N 0.13054 0.90399 0.61436 0.0
N418 N 0.18872 0.96526 0.62372 0.0
C419 C 0.17931 0.95186 0.58509 0.0
C420 C 0.14803 0.91855 0.58003 0.0
C421 C 0.18214 0.22375 0.55701 0.0
C422 C 0.17764 0.22615 0.5151 0.0
C423 C 0.20781 0.19749 0.57267 0.0
C424 C 0.23038 0.17293 0.54709 0.0
H425 H 0.16382 0.2403 0.57794 0.0
H426 H 0.20848 0.19511 0.6051 0.0
S427 S 0.23463 0.17325 0.43515 0.0
N428 N 0.20164 0.20556 0.44838 0.0
N429 N 0.25024 0.15663 0.47774 0.0
C430 C 0.22876 0.17766 0.50521 0.0
C431 C 0.20227 0.20412 0.48924 0.0
loop_
_geom_bond_atom_site_label_1
_geom_bond_atom_site_label_2
_geom_bond_distance
_geom_bond_site_symmetry_2
_ccdc_geom_bond_type
O0 Cd1 2.223 . S
O0 C8 1.315 1_455 S
Cd1 O0 2.223 . S
Cd1 O4 2.297 . S
Cd1 O5 2.439 . S
Cd1 O11 2.240 . S
Cd2 O3 2.240 . S
Cd2 O10 2.223 . S
Cd2 O12 2.297 1_655 S
Cd2 O13 2.439 1_655 S
O3 Cd2 2.240 . S
O3 C8 1.279 . S
O4 Cd1 2.297 . S
O4 C6 1.247 . S
O5 Cd1 2.439 . S
O5 C6 1.208 . S
C6 O4 1.247 . S
C6 O5 1.208 . S
C7 O12 1.247 . S
C7 O13 1.208 . S
C8 O0 1.315 1_655 S
C8 O3 1.279 . S
C9 O10 1.315 1_455 S
C9 O11 1.279 . S
O10 Cd2 2.223 . S
O10 C9 1.315 1_655 S
O11 Cd1 2.240 . S
O11 C9 1.279 . S
O12 Cd2 2.297 1_455 S
O12 C7 1.247 . S
O13 Cd2 2.439 1_455 S
O13 C7 1.208 . S
O14 Cd15 2.223 . S
O14 C22 1.315 . S
Cd15 O14 2.223 . S
Cd15 O18 2.297 . S
Cd15 O19 2.439 . S
Cd15 O25 2.240 . S
Cd16 O17 2.240 . S
Cd16 O24 2.223 . S
Cd16 O26 2.308 . S
Cd16 O27 2.437 1_545 S
O17 Cd16 2.240 . S
O17 C22 1.279 . S
O18 Cd15 2.297 . S
O18 C20 1.247 . S
O19 Cd15 2.439 . S
O19 C20 1.208 . S
C20 O18 1.247 . S
C20 O19 1.208 . S
C21 O26 1.244 1_565 S
C21 O27 1.211 . S
C22 O14 1.315 . S
C22 O17 1.279 . S
C23 O24 1.315 . S
C23 O25 1.279 . S
O24 Cd16 2.223 . S
O24 C23 1.315 . S
O25 Cd15 2.240 . S
O25 C23 1.279 . S
O26 Cd16 2.308 . S
O26 C21 1.244 1_545 S
O27 Cd16 2.437 1_565 S
O27 C21 1.211 . S
O28 Cd29 2.223 . S
O28 C36 1.315 . S
Cd29 O28 2.223 . S
Cd29 O32 2.297 1_455 S
Cd29 O33 2.439 1_455 S
Cd29 O39 2.240 . S
Cd30 O31 2.240 . S
Cd30 O38 2.223 . S
Cd30 O40 2.297 . S
Cd30 O41 2.439 . S
O31 Cd30 2.240 . S
O31 C36 1.279 . S
O32 Cd29 2.297 1_655 S
O32 C34 1.247 . S
O33 Cd29 2.439 1_655 S
O33 C34 1.208 . S
C34 O32 1.247 . S
C34 O33 1.208 . S
C35 O40 1.247 . S
C35 O41 1.208 . S
C36 O28 1.315 . S
C36 O31 1.279 . S
C37 O38 1.315 . S
C37 O39 1.279 . S
O38 Cd30 2.223 . S
O38 C37 1.315 . S
O39 Cd29 2.240 . S
O39 C37 1.279 . S
O40 Cd30 2.297 . S
O40 C35 1.247 . S
O41 Cd30 2.439 . S
O41 C35 1.208 . S
O42 Cd43 2.223 . S
O42 C50 1.315 1_545 S
Cd43 O42 2.223 . S
Cd43 O46 2.297 . S
Cd43 O47 2.439 . S
Cd43 O53 2.240 . S
Cd44 O45 2.240 . S
Cd44 O52 2.224 1_545 S
Cd44 O54 2.297 . S
Cd44 O55 2.437 . S
O45 Cd44 2.240 . S
O45 C50 1.279 1_545 S
O46 Cd43 2.297 . S
O46 C48 1.247 . S
O47 Cd43 2.439 . S
O47 C48 1.208 . S
C48 O46 1.247 . S
C48 O47 1.208 . S
C49 O54 1.247 . S
C49 O55 1.208 . S
C50 O42 1.315 1_565 S
C50 O45 1.279 1_565 S
C51 O52 1.315 1_545 S
C51 O53 1.279 . S
O52 Cd44 2.224 1_565 S
O52 C51 1.315 1_565 S
O53 Cd43 2.240 . S
O53 C51 1.279 . S
O54 Cd44 2.297 . S
O54 C49 1.247 . S
O55 Cd44 2.437 . S
O55 C49 1.208 . S
O56 Cd57 2.223 . S
O56 C64 1.315 . S
Cd57 O56 2.223 . S
Cd57 O60 2.297 . S
Cd57 O61 2.439 . S
Cd57 O67 2.240 . S
Cd58 O59 2.240 . S
Cd58 O66 2.227 . S
Cd58 O68 2.297 . S
Cd58 O69 2.439 . S
O59 Cd58 2.240 . S
O59 C64 1.279 . S
O60 Cd57 2.297 . S
O60 C62 1.247 . S
O61 Cd57 2.439 . S
O61 C62 1.208 . S
C62 O60 1.247 . S
C62 O61 1.208 . S
C63 O68 1.247 . S
C63 O69 1.208 . S
C64 O56 1.315 . S
C64 O59 1.279 . S
C65 O66 1.333 . S
C65 O67 1.279 . S
O66 Cd58 2.227 . S
O66 C65 1.333 . S
O67 Cd57 2.240 . S
O67 C65 1.279 . S
O68 Cd58 2.297 . S
O68 C63 1.247 . S
O69 Cd58 2.439 . S
O69 C63 1.208 . S
O70 Cd71 2.223 . S
O70 C78 1.315 1_655 S
Cd71 O70 2.223 . S
Cd71 O74 2.297 1_655 S
Cd71 O75 2.439 1_655 S
Cd71 O81 2.240 1_655 S
Cd72 O73 2.240 . S
Cd72 O80 2.223 . S
Cd72 O82 2.297 . S
Cd72 O83 2.439 . S
O73 Cd72 2.240 . S
O73 C78 1.279 . S
O74 Cd71 2.297 1_455 S
O74 C76 1.247 . S
O75 Cd71 2.439 1_455 S
O75 C76 1.208 . S
C76 O74 1.247 . S
C76 O75 1.208 . S
C77 O82 1.247 . S
C77 O83 1.208 . S
C78 O70 1.315 1_455 S
C78 O73 1.279 . S
C79 O80 1.315 1_655 S
C79 O81 1.279 1_655 S
O80 Cd72 2.223 . S
O80 C79 1.315 1_455 S
O81 Cd71 2.240 1_455 S
O81 C79 1.279 1_455 S
O82 Cd72 2.297 . S
O82 C77 1.247 . S
O83 Cd72 2.439 . S
O83 C77 1.208 . S
O84 Cd85 2.223 . S
O84 C92 1.315 . S
Cd85 O84 2.223 . S
Cd85 O88 2.297 1_545 S
Cd85 O89 2.439 1_545 S
Cd85 O95 2.240 . S
Cd86 O87 2.240 . S
Cd86 O94 2.223 . S
Cd86 O96 2.297 . S
Cd86 O97 2.439 . S
O87 Cd86 2.240 . S
O87 C92 1.279 . S
O88 Cd85 2.297 1_565 S
O88 C90 1.247 . S
O89 Cd85 2.439 1_565 S
O89 C90 1.208 . S
C90 O88 1.247 . S
C90 O89 1.208 . S
C91 O96 1.247 . S
C91 O97 1.208 . S
C92 O84 1.315 . S
C92 O87 1.279 . S
C93 O94 1.315 . S
C93 O95 1.279 . S
O94 Cd86 2.223 . S
O94 C93 1.315 . S
O95 Cd85 2.240 . S
O95 C93 1.279 . S
O96 Cd86 2.297 . S
O96 C91 1.247 . S
O97 Cd86 2.439 . S
O97 C91 1.208 . S
O98 Cd99 2.223 1_655 S
O98 C106 1.315 1_655 S
Cd99 O98 2.223 1_455 S
Cd99 O102 2.297 . S
Cd99 O103 2.439 . S
Cd99 O109 2.240 . S
Cd100 O101 2.240 . S
Cd100 O108 2.223 . S
Cd100 O110 2.297 . S
Cd100 O111 2.439 . S
O101 Cd100 2.240 . S
O101 C106 1.279 . S
O102 Cd99 2.297 . S
O102 C104 1.247 . S
O103 Cd99 2.439 . S
O103 C104 1.208 . S
C104 O102 1.247 . S
C104 O103 1.208 . S
C105 O110 1.247 . S
C105 O111 1.208 . S
C106 O98 1.315 1_455 S
C106 O101 1.279 . S
C107 O108 1.315 1_655 S
C107 O109 1.279 1_655 S
O108 Cd100 2.223 . S
O108 C107 1.315 1_455 S
O109 Cd99 2.240 . S
O109 C107 1.279 1_455 S
O110 Cd100 2.297 . S
O110 C105 1.247 . S
O111 Cd100 2.439 . S
O111 C105 1.208 . S
O112 Cd113 2.223 . S
O112 C120 1.315 . S
Cd113 O112 2.223 . S
Cd113 O116 2.297 . S
Cd113 O117 2.439 . S
Cd113 O123 2.240 . S
Cd114 O115 2.240 . S
Cd114 O122 2.223 . S
Cd114 O124 2.297 1_554 S
Cd114 O125 2.439 1_554 S
O115 Cd114 2.240 . S
O115 C120 1.279 . S
O116 Cd113 2.297 . S
O116 C118 1.247 . S
O117 Cd113 2.439 . S
O117 C118 1.208 . S
C118 O116 1.247 . S
C118 O117 1.208 . S
C119 O124 1.247 . S
C119 O125 1.208 . S
C120 O112 1.315 . S
C120 O115 1.279 . S
C121 O122 1.315 . S
C121 O123 1.279 . S
O122 Cd114 2.223 . S
O122 C121 1.315 . S
O123 Cd113 2.240 . S
O123 C121 1.279 . S
O124 Cd114 2.297 1_556 S
O124 C119 1.247 . S
O125 Cd114 2.439 1_556 S
O125 C119 1.208 . S
O126 Cd127 2.223 . S
O126 C134 1.315 . S
Cd127 O126 2.223 . S
Cd127 O130 2.297 . S
Cd127 O131 2.439 1_556 S
Cd127 O137 2.240 . S
Cd128 O129 2.240 . S
Cd128 O136 2.223 1_554 S
Cd128 O138 2.297 . S
Cd128 O139 2.439 . S
O129 Cd128 2.240 . S
O129 C134 1.279 1_554 S
O130 Cd127 2.297 . S
O130 C132 1.247 1_556 S
O131 Cd127 2.439 1_554 S
O131 C132 1.208 . S
C132 O130 1.247 1_554 S
C132 O131 1.208 . S
C133 O138 1.247 . S
C133 O139 1.208 . S
C134 O126 1.315 . S
C134 O129 1.279 1_556 S
C135 O136 1.315 . S
C135 O137 1.279 . S
O136 Cd128 2.223 1_556 S
O136 C135 1.315 . S
O137 Cd127 2.240 . S
O137 C135 1.279 . S
O138 Cd128 2.297 . S
O138 C133 1.247 . S
O139 Cd128 2.439 . S
O139 C133 1.208 . S
O140 Cd141 2.223 . S
O140 C148 1.315 . S
Cd141 O140 2.223 . S
Cd141 O144 2.297 . S
Cd141 O145 2.439 . S
Cd141 O151 2.240 . S
Cd142 O143 2.240 . S
Cd142 O150 2.223 . S
Cd142 O152 2.297 1_554 S
Cd142 O153 2.439 1_554 S
O143 Cd142 2.240 . S
O143 C148 1.279 . S
O144 Cd141 2.297 . S
O144 C146 1.247 . S
O145 Cd141 2.439 . S
O145 C146 1.208 . S
C146 O144 1.247 . S
C146 O145 1.208 . S
C147 O152 1.247 . S
C147 O153 1.208 . S
C148 O140 1.315 . S
C148 O143 1.279 . S
C149 O150 1.315 . S
C149 O151 1.279 . S
O150 Cd142 2.223 . S
O150 C149 1.315 . S
O151 Cd141 2.240 . S
O151 C149 1.279 . S
O152 Cd142 2.297 1_556 S
O152 C147 1.247 . S
O153 Cd142 2.439 1_556 S
O153 C147 1.208 . S
O154 Cd155 2.223 1_556 S
O154 C162 1.315 1_556 S
Cd155 O154 2.223 1_554 S
Cd155 O158 2.297 . S
Cd155 O159 2.439 . S
Cd155 O165 2.240 . S
Cd156 O157 2.240 . S
Cd156 O164 2.223 . S
Cd156 O166 2.297 . S
Cd156 O167 2.439 . S
O157 Cd156 2.240 . S
O157 C162 1.279 . S
O158 Cd155 2.297 . S
O158 C160 1.247 . S
O159 Cd155 2.439 . S
O159 C160 1.208 . S
C160 O158 1.247 . S
C160 O159 1.208 . S
C161 O166 1.247 . S
C161 O167 1.208 . S
C162 O154 1.315 1_554 S
C162 O157 1.279 . S
C163 O164 1.315 . S
C163 O165 1.279 . S
O164 Cd156 2.223 . S
O164 C163 1.315 . S
O165 Cd155 2.240 . S
O165 C163 1.279 . S
O166 Cd156 2.297 . S
O166 C161 1.247 . S
O167 Cd156 2.439 . S
O167 C161 1.208 . S
C168 C169 1.369 . S
C168 C170 1.419 . S
C168 H172 0.930 . S
C169 C168 1.369 . S
C169 C178 1.429 . S
C170 C168 1.419 . S
C170 C171 1.363 . S
C170 H173 0.929 . S
C171 C170 1.363 . S
C171 C177 1.428 . S
H172 C168 0.930 . S
H173 C170 0.929 . S
S174 N175 1.613 . S
S174 N176 1.610 . S
N175 S174 1.613 . S
N175 C178 1.350 . S
N176 S174 1.610 . S
N176 C177 1.351 . S
C177 C171 1.428 . S
C177 N176 1.351 . S
C177 C178 1.434 . S
C178 C169 1.429 . S
C178 N175 1.350 . S
C178 C177 1.434 . S
C179 C180 1.369 . S
C179 C181 1.419 . S
C179 H183 0.930 1_545 S
C180 C179 1.369 . S
C180 C189 1.429 . S
C181 C179 1.419 . S
C181 C182 1.363 . S
C181 H184 0.929 . S
C182 C181 1.363 . S
C182 C188 1.428 . S
H183 C179 0.930 1_565 S
H184 C181 0.929 . S
S185 N186 1.613 . S
S185 N187 1.610 . S
N186 S185 1.613 . S
N186 C189 1.350 . S
N187 S185 1.610 . S
N187 C188 1.351 . S
C188 C182 1.428 . S
C188 N187 1.351 . S
C188 C189 1.434 . S
C189 C180 1.429 . S
C189 N186 1.350 . S
C189 C188 1.434 . S
C190 C191 1.369 . S
C190 C192 1.419 . S
C190 H194 0.930 . S
C191 C190 1.369 . S
C191 C200 1.429 . S
C192 C190 1.419 . S
C192 C193 1.363 . S
C192 H195 0.929 . S
C193 C192 1.363 . S
C193 C199 1.428 . S
H194 C190 0.930 . S
H195 C192 0.929 . S
S196 N197 1.613 . S
S196 N198 1.610 1_655 S
N197 S196 1.613 . S
N197 C200 1.350 1_655 S
N198 S196 1.610 1_455 S
N198 C199 1.351 . S
C199 C193 1.428 . S
C199 N198 1.351 . S
C199 C200 1.434 . S
C200 C191 1.429 . S
C200 N197 1.350 1_455 S
C200 C199 1.434 . S
C201 C202 1.369 . S
C201 C203 1.419 . S
C201 H205 0.930 . S
C202 C201 1.369 . S
C202 C211 1.429 . S
C203 C201 1.419 . S
C203 C204 1.363 . S
C203 H206 0.929 . S
C204 C203 1.363 . S
C204 C210 1.428 . S
H205 C201 0.930 . S
H206 C203 0.929 . S
S207 N208 1.613 . S
S207 N209 1.610 . S
N208 S207 1.613 . S
N208 C211 1.350 1_565 S
N209 S207 1.610 . S
N209 C210 1.351 1_565 S
C210 C204 1.428 . S
C210 N209 1.351 1_545 S
C210 C211 1.434 . S
C211 C202 1.429 . S
C211 N208 1.350 1_545 S
C211 C210 1.434 . S
C212 C213 1.369 . S
C212 C214 1.419 . S
C212 H216 0.930 . S
C213 C212 1.369 . S
C213 C222 1.429 . S
C214 C212 1.419 . S
C214 C215 1.363 . S
C214 H217 0.929 . S
C215 C214 1.363 . S
C215 C221 1.428 . S
H216 C212 0.930 . S
H217 C214 0.929 . S
S218 N219 1.613 . S
S218 N220 1.610 . S
N219 S218 1.613 . S
N219 C222 1.350 . S
N220 S218 1.610 . S
N220 C221 1.351 . S
C221 C215 1.428 . S
C221 N220 1.351 . S
C221 C222 1.434 . S
C222 C213 1.429 . S
C222 N219 1.350 . S
C222 C221 1.434 . S
C223 C224 1.369 . S
C223 C225 1.419 . S
C223 H227 0.930 . S
C224 C223 1.369 . S
C224 C233 1.429 . S
C225 C223 1.419 . S
C225 C226 1.363 . S
C225 H228 0.929 . S
C226 C225 1.363 . S
C226 C232 1.428 . S
H227 C223 0.930 . S
H228 C225 0.929 . S
S229 N230 1.613 . S
S229 N231 1.610 . S
N230 S229 1.613 . S
N230 C233 1.350 . S
N231 S229 1.610 . S
N231 C232 1.351 . S
C232 C226 1.428 . S
C232 N231 1.351 . S
C232 C233 1.434 . S
C233 C224 1.429 . S
C233 N230 1.350 . S
C233 C232 1.434 . S
C234 C235 1.369 . S
C234 C236 1.419 . S
C234 H238 0.930 . S
C235 C234 1.369 . S
C235 C244 1.429 . S
C236 C234 1.419 . S
C236 C237 1.363 . S
C236 H239 0.929 . S
C237 C236 1.363 . S
C237 C243 1.428 . S
H238 C234 0.930 . S
H239 C236 0.929 . S
S240 N241 1.613 1_655 S
S240 N242 1.610 . S
N241 S240 1.613 1_455 S
N241 C244 1.350 . S
N242 S240 1.610 . S
N242 C243 1.351 1_655 S
C243 C237 1.428 . S
C243 N242 1.351 1_455 S
C243 C244 1.434 . S
C244 C235 1.429 . S
C244 N241 1.350 . S
C244 C243 1.434 . S
C245 C246 1.369 . S
C245 C247 1.419 . S
C245 H249 0.930 . S
C246 C245 1.369 . S
C246 C255 1.429 . S
C247 C245 1.419 . S
C247 C248 1.363 . S
C247 H250 0.929 . S
C248 C247 1.363 . S
C248 C254 1.428 . S
H249 C245 0.930 . S
H250 C247 0.929 . S
S251 N252 1.613 . S
S251 N253 1.610 . S
N252 S251 1.613 . S
N252 C255 1.350 . S
N253 S251 1.610 . S
N253 C254 1.351 . S
C254 C248 1.428 . S
C254 N253 1.351 . S
C254 C255 1.434 . S
C255 C246 1.429 . S
C255 N252 1.350 . S
C255 C254 1.434 . S
C256 C257 1.369 . S
C256 C258 1.419 . S
C256 H260 0.930 . S
C257 C256 1.369 . S
C257 C266 1.429 . S
C258 C256 1.419 . S
C258 C259 1.363 . S
C258 H261 0.929 . S
C259 C258 1.363 . S
C259 C265 1.428 1_554 S
H260 C256 0.930 . S
H261 C258 0.929 . S
S262 N263 1.613 . S
S262 N264 1.610 . S
N263 S262 1.613 . S
N263 C266 1.350 1_556 S
N264 S262 1.610 . S
N264 C265 1.351 . S
C265 C259 1.428 1_556 S
C265 N264 1.351 . S
C265 C266 1.434 1_556 S
C266 C257 1.429 . S
C266 N263 1.350 1_554 S
C266 C265 1.434 1_554 S
C267 C268 1.369 . S
C267 C269 1.419 . S
C267 H271 0.930 . S
C268 C267 1.369 . S
C268 C277 1.429 . S
C269 C267 1.419 . S
C269 C270 1.363 . S
C269 H272 0.929 . S
C270 C269 1.363 . S
C270 C276 1.428 . S
H271 C267 0.930 . S
H272 C269 0.929 . S
S273 N274 1.613 . S
S273 N275 1.610 . S
N274 S273 1.613 . S
N274 C277 1.350 . S
N275 S273 1.610 . S
N275 C276 1.351 . S
C276 C270 1.428 . S
C276 N275 1.351 . S
C276 C277 1.434 . S
C277 C268 1.429 . S
C277 N274 1.350 . S
C277 C276 1.434 . S
C278 C279 1.369 . S
C278 C280 1.419 . S
C278 H282 0.922 1_554 S
C279 C278 1.369 . S
C279 C288 1.429 . S
C280 C278 1.419 . S
C280 C281 1.363 . S
C280 H283 0.929 . S
C281 C280 1.363 . S
C281 C287 1.428 . S
H282 C278 0.922 1_556 S
H283 C280 0.929 . S
S284 N285 1.613 . S
S284 N286 1.610 . S
N285 S284 1.613 . S
N285 C288 1.350 . S
N286 S284 1.610 . S
N286 C287 1.351 . S
C287 C281 1.428 . S
C287 N286 1.351 . S
C287 C288 1.434 . S
C288 C279 1.429 . S
C288 N285 1.350 . S
C288 C287 1.434 . S
C289 C290 1.369 . S
C289 C291 1.419 . S
C289 H293 0.930 . S
C290 C289 1.369 . S
C290 C299 1.429 . S
C291 C289 1.419 . S
C291 C292 1.363 . S
C291 H294 0.929 . S
C292 C291 1.363 . S
C292 C298 1.428 . S
H293 C289 0.930 . S
H294 C291 0.929 . S
S295 N296 1.613 . S
S295 N297 1.610 . S
N296 S295 1.613 . S
N296 C299 1.350 . S
N297 S295 1.610 . S
N297 C298 1.351 . S
C298 C292 1.428 . S
C298 N297 1.351 . S
C298 C299 1.434 . S
C299 C290 1.429 . S
C299 N296 1.350 . S
C299 C298 1.434 . S
C300 C301 1.369 . S
C300 C302 1.419 . S
C300 H304 0.930 . S
C301 C300 1.369 . S
C301 C310 1.429 . S
C302 C300 1.419 . S
C302 C303 1.363 . S
C302 H305 0.929 . S
C303 C302 1.363 . S
C303 C309 1.428 . S
H304 C300 0.930 . S
H305 C302 0.929 . S
S306 N307 1.613 . S
S306 N308 1.610 . S
N307 S306 1.613 . S
N307 C310 1.350 . S
N308 S306 1.610 . S
N308 C309 1.351 . S
C309 C303 1.428 . S
C309 N308 1.351 . S
C309 C310 1.434 . S
C310 C301 1.429 . S
C310 N307 1.350 . S
C310 C309 1.434 . S
C311 C312 1.369 . S
C311 C313 1.419 . S
C311 H315 0.930 . S
C312 C311 1.369 . S
C312 C321 1.429 . S
C313 C311 1.419 . S
C313 C314 1.363 . S
C313 H316 0.929 . S
C314 C313 1.363 . S
C314 C320 1.428 . S
H315 C311 0.930 . S
H316 C313 0.929 . S
S317 N318 1.613 . S
S317 N319 1.610 . S
N318 S317 1.613 . S
N318 C321 1.350 . S
N319 S317 1.610 . S
N319 C320 1.351 . S
C320 C314 1.428 . S
C320 N319 1.351 . S
C320 C321 1.434 . S
C321 C312 1.429 . S
C321 N318 1.350 . S
C321 C320 1.434 . S
C322 C323 1.369 . S
C322 C324 1.419 . S
C322 H326 0.930 . S
C323 C322 1.369 . S
C323 C332 1.429 . S
C324 C322 1.419 . S
C324 C325 1.363 . S
C324 H327 0.929 . S
C325 C324 1.363 . S
C325 C331 1.428 . S
H326 C322 0.930 . S
H327 C324 0.929 . S
S328 N329 1.613 . S
S328 N330 1.610 . S
N329 S328 1.613 . S
N329 C332 1.350 . S
N330 S328 1.610 . S
N330 C331 1.351 . S
C331 C325 1.428 . S
C331 N330 1.351 . S
C331 C332 1.434 . S
C332 C323 1.429 . S
C332 N329 1.350 . S
C332 C331 1.434 . S
C333 C334 1.369 . S
C333 C335 1.419 . S
C333 H337 0.930 . S
C334 C333 1.369 . S
C334 C343 1.429 . S
C335 C333 1.419 . S
C335 C336 1.363 . S
C335 H338 0.929 . S
C336 C335 1.363 . S
C336 C342 1.428 . S
H337 C333 0.930 . S
H338 C335 0.929 . S
S339 N340 1.613 . S
S339 N341 1.610 . S
N340 S339 1.613 . S
N340 C343 1.350 . S
N341 S339 1.610 . S
N341 C342 1.351 . S
C342 C336 1.428 . S
C342 N341 1.351 . S
C342 C343 1.434 . S
C343 C334 1.429 . S
C343 N340 1.350 . S
C343 C342 1.434 . S
C344 C345 1.369 . S
C344 C346 1.419 . S
C344 H348 0.930 . S
C345 C344 1.369 . S
C345 C354 1.429 . S
C346 C344 1.419 . S
C346 C347 1.363 . S
C346 H349 0.929 . S
C347 C346 1.363 . S
C347 C353 1.428 . S
H348 C344 0.930 . S
H349 C346 0.929 . S
S350 N351 1.613 . S
S350 N352 1.610 . S
N351 S350 1.613 . S
N351 C354 1.350 . S
N352 S350 1.610 . S
N352 C353 1.351 . S
C353 C347 1.428 . S
C353 N352 1.351 . S
C353 C354 1.434 . S
C354 C345 1.429 . S
C354 N351 1.350 . S
C354 C353 1.434 . S
C355 C356 1.369 . S
C355 C357 1.419 . S
C355 H359 0.930 . S
C356 C355 1.369 . S
C356 C365 1.429 . S
C357 C355 1.419 . S
C357 C358 1.363 . S
C357 H360 0.929 . S
C358 C357 1.363 . S
C358 C364 1.428 . S
H359 C355 0.930 . S
H360 C357 0.929 . S
S361 N362 1.613 . S
S361 N363 1.610 . S
N362 S361 1.613 . S
N362 C365 1.350 . S
N363 S361 1.610 . S
N363 C364 1.351 . S
C364 C358 1.428 . S
C364 N363 1.351 . S
C364 C365 1.434 . S
C365 C356 1.429 . S
C365 N362 1.350 . S
C365 C364 1.434 . S
C366 C367 1.369 . S
C366 C368 1.419 . S
C366 H370 0.930 . S
C367 C366 1.369 . S
C367 C376 1.429 . S
C368 C366 1.419 . S
C368 C369 1.363 . S
C368 H371 0.929 . S
C369 C368 1.363 . S
C369 C375 1.428 . S
H370 C366 0.930 . S
H371 C368 0.929 . S
S372 N373 1.613 1_545 S
S372 N374 1.610 . S
N373 S372 1.613 1_565 S
N373 C376 1.350 . S
N374 S372 1.610 . S
N374 C375 1.351 1_545 S
C375 C369 1.428 . S
C375 N374 1.351 1_565 S
C375 C376 1.434 . S
C376 C367 1.429 . S
C376 N373 1.350 . S
C376 C375 1.434 . S
C377 C378 1.369 . S
C377 C379 1.419 . S
C377 H381 0.930 . S
C378 C377 1.369 . S
C378 C387 1.429 . S
C379 C377 1.419 . S
C379 C380 1.363 . S
C379 H382 0.929 . S
C380 C379 1.363 . S
C380 C386 1.428 . S
H381 C377 0.930 . S
H382 C379 0.929 . S
S383 N384 1.613 . S
S383 N385 1.610 . S
N384 S383 1.613 . S
N384 C387 1.350 . S
N385 S383 1.610 . S
N385 C386 1.351 . S
C386 C380 1.428 . S
C386 N385 1.351 . S
C386 C387 1.434 . S
C387 C378 1.429 . S
C387 N384 1.350 . S
C387 C386 1.434 . S
C388 C389 1.369 . S
C388 C390 1.419 . S
C388 H392 0.930 . S
C389 C388 1.369 . S
C389 C398 1.429 . S
C390 C388 1.419 . S
C390 C391 1.363 . S
C390 H393 0.929 . S
C391 C390 1.363 . S
C391 C397 1.428 . S
H392 C388 0.930 . S
H393 C390 0.929 . S
S394 N395 1.613 1_455 S
S394 N396 1.610 1_545 S
N395 S394 1.613 1_655 S
N395 C398 1.350 1_545 S
N396 S394 1.610 1_565 S
N396 C397 1.351 1_455 S
C397 C391 1.428 . S
C397 N396 1.351 1_655 S
C397 C398 1.434 . S
C398 C389 1.429 . S
C398 N395 1.350 1_565 S
C398 C397 1.434 . S
C399 C400 1.369 . S
C399 C401 1.419 . S
C399 H403 0.930 . S
C400 C399 1.369 . S
C400 C409 1.429 . S
C401 C399 1.419 . S
C401 C402 1.363 . S
C401 H404 0.929 . S
C402 C401 1.363 . S
C402 C408 1.428 . S
H403 C399 0.930 . S
H404 C401 0.929 . S
S405 N406 1.613 . S
S405 N407 1.610 . S
N406 S405 1.613 . S
N406 C409 1.350 . S
N407 S405 1.610 . S
N407 C408 1.351 . S
C408 C402 1.428 . S
C408 N407 1.351 . S
C408 C409 1.434 . S
C409 C400 1.429 . S
C409 N406 1.350 . S
C409 C408 1.434 . S
C410 C411 1.369 . S
C410 C412 1.419 . S
C410 H414 0.930 . S
C411 C410 1.369 . S
C411 C420 1.429 . S
C412 C410 1.419 . S
C412 C413 1.363 . S
C412 H415 0.929 . S
C413 C412 1.363 . S
C413 C419 1.428 . S
H414 C410 0.930 . S
H415 C412 0.929 . S
S416 N417 1.613 . S
S416 N418 1.610 . S
N417 S416 1.613 . S
N417 C420 1.350 . S
N418 S416 1.610 . S
N418 C419 1.351 . S
C419 C413 1.428 . S
C419 N418 1.351 . S
C419 C420 1.434 . S
C420 C411 1.429 . S
C420 N417 1.350 . S
C420 C419 1.434 . S
C421 C422 1.369 . S
C421 C423 1.419 . S
C421 H425 0.930 . S
C422 C421 1.369 . S
C422 C431 1.429 . S
C423 C421 1.419 . S
C423 C424 1.363 . S
C423 H426 0.929 . S
C424 C423 1.363 . S
C424 C430 1.428 . S
H425 C421 0.930 . S
H426 C423 0.929 . S
S427 N428 1.613 . S
S427 N429 1.610 . S
N428 S427 1.613 . S
N428 C431 1.350 . S
N429 S427 1.610 . S
N429 C430 1.351 . S
C430 C424 1.428 . S
C430 N429 1.351 . S
C430 C431 1.434 . S
C431 C422 1.429 . S
C431 N428 1.350 . S
C431 C430 1.434 . S
C169 C9 1.870 . S
C171 C76 1.811 . S
C180 C20 1.143 . S
C182 C63 1.140 . S
C191 C78 1.889 . S
C193 C37 1.860 . S
C202 C49 1.430 . S
C204 C65 1.500 . S
C213 C104 1.278 . S
C215 C35 1.261 . S
C224 C93 2.040 . S
C226 C51 2.041 . S
C235 C7 1.279 . S
C237 C106 1.353 . S
C246 C91 1.644 . S
C248 C22 1.722 . S
C257 C132 1.426 . S
C259 C118 1.420 . S
C268 C120 1.465 . S
C270 C162 1.460 . S
C279 C134 1.730 1_554 S
C281 C148 1.732 . S
C290 C146 1.620 . S
C292 C160 1.611 . S
C301 C163 1.871 1_556 S
C303 C90 1.809 . S
C312 C119 1.157 . S
C314 C105 1.127 . S
C323 C92 1.886 . S
C325 C135 1.860 . S
C334 C107 1.504 . S
C336 C147 1.429 . S
C345 C62 1.271 . S
C347 C133 1.266 . S
C356 C79 2.042 . S
C358 C149 2.040 . S
C367 C161 1.282 . S
C369 C64 1.352 1_565 S
C378 C121 1.723 . S
C380 C77 1.649 . S
C389 C21 1.418 . S
C391 C34 1.431 . S
C400 C8 1.463 . S
C402 C23 1.468 . S
C411 C36 1.727 . S
C413 C50 1.735 . S
C422 C6 1.606 . S
C424 C48 1.625 . S
