# Generated by pormake.
# Topology sst, (4)-cn, num edge types: 1
# Building blocks:
#     Node 0, Type 0, BuildingBlock: MUDLON_clean_sbu_0, # of connection points: 4
#     Node 1, Type 0, BuildingBlock: MUDLON_clean_sbu_0, # of connection points: 4
#     Node 2, Type 0, BuildingBlock: MUDLON_clean_sbu_0, # of connection points: 4
#     Node 3, Type 0, BuildingBlock: MUDLON_clean_sbu_0, # of connection points: 4
#     Node 4, Type 0, BuildingBlock: MUDLON_clean_sbu_0, # of connection points: 4
#     Node 5, Type 0, BuildingBlock: MUDLON_clean_sbu_0, # of connection points: 4
#     Node 6, Type 0, BuildingBlock: MUDLON_clean_sbu_0, # of connection points: 4
#     Node 7, Type 0, BuildingBlock: MUDLON_clean_sbu_0, # of connection points: 4
#     Node 8, Type 0, BuildingBlock: MUDLON_clean_sbu_0, # of connection points: 4
#     Node 9, Type 0, BuildingBlock: MUDLON_clean_sbu_0, # of connection points: 4
#     Node 10, Type 0, BuildingBlock: MUDLON_clean_sbu_0, # of connection points: 4
#     Node 11, Type 0, BuildingBlock: MUDLON_clean_sbu_0, # of connection points: 4
#     Node 12, Type 0, BuildingBlock: MUDLON_clean_sbu_0, # of connection points: 4
#     Node 13, Type 0, BuildingBlock: MUDLON_clean_sbu_0, # of connection points: 4
#     Node 14, Type 0, BuildingBlock: MUDLON_clean_sbu_0, # of connection points: 4
#     Node 15, Type 0, BuildingBlock: MUDLON_clean_sbu_0, # of connection points: 4
#     Node 16, Type 0, BuildingBlock: MUDLON_clean_sbu_0, # of connection points: 4
#     Node 17, Type 0, BuildingBlock: MUDLON_clean_sbu_0, # of connection points: 4
#     Node 18, Type 0, BuildingBlock: MUDLON_clean_sbu_0, # of connection points: 4
#     Node 19, Type 0, BuildingBlock: MUDLON_clean_sbu_0, # of connection points: 4
#     Node 20, Type 0, BuildingBlock: MUDLON_clean_sbu_0, # of connection points: 4
#     Node 21, Type 0, BuildingBlock: MUDLON_clean_sbu_0, # of connection points: 4
#     Node 22, Type 0, BuildingBlock: MUDLON_clean_sbu_0, # of connection points: 4
#     Node 23, Type 0, BuildingBlock: MUDLON_clean_sbu_0, # of connection points: 4
#     Node 24, Type 0, BuildingBlock: MUDLON_clean_sbu_0, # of connection points: 4
#     Node 25, Type 0, BuildingBlock: MUDLON_clean_sbu_0, # of connection points: 4
#     Node 26, Type 0, BuildingBlock: MUDLON_clean_sbu_0, # of connection points: 4
#     Node 27, Type 0, BuildingBlock: MUDLON_clean_sbu_0, # of connection points: 4
#     Node 28, Type 0, BuildingBlock: MUDLON_clean_sbu_0, # of connection points: 4
#     Node 29, Type 0, BuildingBlock: MUDLON_clean_sbu_0, # of connection points: 4
#     Node 30, Type 0, BuildingBlock: MUDLON_clean_sbu_0, # of connection points: 4
#     Node 31, Type 0, BuildingBlock: MUDLON_clean_sbu_0, # of connection points: 4
#     Node 32, Type 0, BuildingBlock: MUDLON_clean_sbu_0, # of connection points: 4
#     Node 33, Type 0, BuildingBlock: MUDLON_clean_sbu_0, # of connection points: 4
#     Node 34, Type 0, BuildingBlock: MUDLON_clean_sbu_0, # of connection points: 4
#     Node 35, Type 0, BuildingBlock: MUDLON_clean_sbu_0, # of connection points: 4
#     Node 36, Type 0, BuildingBlock: MUDLON_clean_sbu_0, # of connection points: 4
#     Node 37, Type 0, BuildingBlock: MUDLON_clean_sbu_0, # of connection points: 4
#     Node 38, Type 0, BuildingBlock: MUDLON_clean_sbu_0, # of connection points: 4
#     Node 39, Type 0, BuildingBlock: MUDLON_clean_sbu_0, # of connection points: 4
#     Node 40, Type 0, BuildingBlock: MUDLON_clean_sbu_0, # of connection points: 4
#     Node 41, Type 0, BuildingBlock: MUDLON_clean_sbu_0, # of connection points: 4
#     Node 42, Type 0, BuildingBlock: MUDLON_clean_sbu_0, # of connection points: 4
#     Node 43, Type 0, BuildingBlock: MUDLON_clean_sbu_0, # of connection points: 4
#     Node 44, Type 0, BuildingBlock: MUDLON_clean_sbu_0, # of connection points: 4
#     Node 45, Type 0, BuildingBlock: MUDLON_clean_sbu_0, # of connection points: 4
#     Node 46, Type 0, BuildingBlock: MUDLON_clean_sbu_0, # of connection points: 4
#     Node 47, Type 0, BuildingBlock: MUDLON_clean_sbu_0, # of connection points: 4
#     Edge 48, Type (0, 0), None
#     Edge 49, Type (0, 0), None
#     Edge 50, Type (0, 0), None
#     Edge 51, Type (0, 0), None
#     Edge 52, Type (0, 0), None
#     Edge 53, Type (0, 0), None
#     Edge 54, Type (0, 0), None
#     Edge 55, Type (0, 0), None
#     Edge 56, Type (0, 0), None
#     Edge 57, Type (0, 0), None
#     Edge 58, Type (0, 0), None
#     Edge 59, Type (0, 0), None
#     Edge 60, Type (0, 0), None
#     Edge 61, Type (0, 0), None
#     Edge 62, Type (0, 0), None
#     Edge 63, Type (0, 0), None
#     Edge 64, Type (0, 0), None
#     Edge 65, Type (0, 0), None
#     Edge 66, Type (0, 0), None
#     Edge 67, Type (0, 0), None
#     Edge 68, Type (0, 0), None
#     Edge 69, Type (0, 0), None
#     Edge 70, Type (0, 0), None
#     Edge 71, Type (0, 0), None
#     Edge 72, Type (0, 0), None
#     Edge 73, Type (0, 0), None
#     Edge 74, Type (0, 0), None
#     Edge 75, Type (0, 0), None
#     Edge 76, Type (0, 0), None
#     Edge 77, Type (0, 0), None
#     Edge 78, Type (0, 0), None
#     Edge 79, Type (0, 0), None
#     Edge 80, Type (0, 0), None
#     Edge 81, Type (0, 0), None
#     Edge 82, Type (0, 0), None
#     Edge 83, Type (0, 0), None
#     Edge 84, Type (0, 0), None
#     Edge 85, Type (0, 0), None
#     Edge 86, Type (0, 0), None
#     Edge 87, Type (0, 0), None
#     Edge 88, Type (0, 0), None
#     Edge 89, Type (0, 0), None
#     Edge 90, Type (0, 0), None
#     Edge 91, Type (0, 0), None
#     Edge 92, Type (0, 0), None
#     Edge 93, Type (0, 0), None
#     Edge 94, Type (0, 0), None
#     Edge 95, Type (0, 0), None
#     Edge 96, Type (0, 0), None
#     Edge 97, Type (0, 0), None
#     Edge 98, Type (0, 0), None
#     Edge 99, Type (0, 0), None
#     Edge 100, Type (0, 0), None
#     Edge 101, Type (0, 0), None
#     Edge 102, Type (0, 0), None
#     Edge 103, Type (0, 0), None
#     Edge 104, Type (0, 0), None
#     Edge 105, Type (0, 0), None
#     Edge 106, Type (0, 0), None
#     Edge 107, Type (0, 0), None
#     Edge 108, Type (0, 0), None
#     Edge 109, Type (0, 0), None
#     Edge 110, Type (0, 0), None
#     Edge 111, Type (0, 0), None
#     Edge 112, Type (0, 0), None
#     Edge 113, Type (0, 0), None
#     Edge 114, Type (0, 0), None
#     Edge 115, Type (0, 0), None
#     Edge 116, Type (0, 0), None
#     Edge 117, Type (0, 0), None
#     Edge 118, Type (0, 0), None
#     Edge 119, Type (0, 0), None
#     Edge 120, Type (0, 0), None
#     Edge 121, Type (0, 0), None
#     Edge 122, Type (0, 0), None
#     Edge 123, Type (0, 0), None
#     Edge 124, Type (0, 0), None
#     Edge 125, Type (0, 0), None
#     Edge 126, Type (0, 0), None
#     Edge 127, Type (0, 0), None
#     Edge 128, Type (0, 0), None
#     Edge 129, Type (0, 0), None
#     Edge 130, Type (0, 0), None
#     Edge 131, Type (0, 0), None
#     Edge 132, Type (0, 0), None
#     Edge 133, Type (0, 0), None
#     Edge 134, Type (0, 0), None
#     Edge 135, Type (0, 0), None
#     Edge 136, Type (0, 0), None
#     Edge 137, Type (0, 0), None
#     Edge 138, Type (0, 0), None
#     Edge 139, Type (0, 0), None
#     Edge 140, Type (0, 0), None
#     Edge 141, Type (0, 0), None
#     Edge 142, Type (0, 0), None
#     Edge 143, Type (0, 0), None
# Relax obj value: 0.001
# Max RMSD: 0.022
# Mean RMSD: 0.016
data_MOF--net-sst--node1-MUDLON_clean_sbu_0--edge1-none
_symmetry_space_group_name_H-M    P1
_symmetry_Int_Tables_number       1
_symmetry_cell_setting            triclinic
loop_
_symmetry_equiv_pos_as_xyz
'x, y, z'
_cell_length_a     27.380695
_cell_length_b     27.358808
_cell_length_c     27.547403
_cell_angle_alpha  90.58278
_cell_angle_beta   89.847103
_cell_angle_gamma 90.983957
loop_
_atom_site_label
_atom_site_type_symbol
_atom_site_fract_x
_atom_site_fract_y
_atom_site_fract_z
_atom_type_partial_charge
Mg0 Mg 0.17461 0.11408 0.37197 0.0
C1 C 0.18864 0.21879 0.39598 0.0
O2 O 0.21909 0.21275 0.35959 0.0
C3 C 0.1716 1.00832 0.37974 0.0
O4 O 0.18123 1.01528 0.33358 0.0
C5 C 0.09459 0.15986 0.30954 0.0
O6 O 0.12702 0.1956 0.30679 0.0
O7 O 0.10845 0.11869 0.32529 0.0
O8 O 0.16673 0.18146 0.41368 0.0
O9 O 0.25418 0.11486 0.35849 0.0
C10 C 0.28241 0.0918 0.38713 0.0
O11 O 0.2635 0.06119 0.41864 0.0
O12 O 0.16434 0.04499 0.40751 0.0
Mg13 Mg 0.93881 0.15645 0.35902 0.0
C14 C 0.94414 0.26987 0.35561 0.0
O15 O 0.94384 0.26022 0.30882 0.0
C16 C 0.93174 0.05173 0.37118 0.0
O17 O 0.9276 0.06103 0.32471 0.0
C18 C 0.83334 0.13871 0.38136 0.0
O19 O 0.85595 0.13243 0.42273 0.0
O20 O 0.8589 0.14938 0.34357 0.0
O21 O 0.94324 0.23424 0.38573 0.0
O22 O 1.0083 0.14115 0.31833 0.0
C23 C 0.04226 0.17331 0.31279 0.0
O24 O 1.03266 0.21924 0.32196 0.0
O25 O 0.9397 0.08757 0.40055 0.0
Mg26 Mg 0.91272 0.9123 0.45571 0.0
C27 C 0.9256 1.00041 0.38686 0.0
O28 O 0.92193 0.96558 0.35384 0.0
C29 C 0.93868 0.82718 0.3822 0.0
O30 O 0.9843 0.83707 0.39334 0.0
C31 C 0.80648 0.88851 0.48802 0.0
O32 O 0.80947 0.85394 0.45479 0.0
O33 O 0.84445 0.91422 0.49844 0.0
O34 O 0.92236 0.98911 0.43135 0.0
O35 O 0.98115 0.89407 0.49212 0.0
C36 C 1.01567 0.90948 0.46505 0.0
O37 O 1.00449 0.93517 0.42684 0.0
O38 O 0.90458 0.85382 0.39944 0.0
Mg39 Mg 0.16479 0.88357 0.48084 0.0
C40 C 0.172 0.95897 0.39938 0.0
O41 O 0.17563 0.92077 0.37043 0.0
C42 C 0.15142 0.78206 0.43198 0.0
O43 O 0.11534 0.77697 0.46311 0.0
C44 C 0.06513 0.89017 0.46664 0.0
O45 O 0.08846 0.88625 0.42514 0.0
O46 O 0.08903 0.88487 0.50568 0.0
O47 O 0.16913 0.95332 0.44484 0.0
O48 O 0.22669 0.88287 0.53013 0.0
C49 C 0.26497 0.90752 0.51902 0.0
O50 O 0.26323 0.93846 0.48297 0.0
O51 O 0.17588 0.82208 0.43076 0.0
Mg52 Mg 0.15192 0.9 0.64518 0.0
C53 C 0.17334 0.99877 0.58551 0.0
O54 O 0.16744 0.97531 0.54417 0.0
C55 C 0.13648 0.79858 0.59668 0.0
O56 O 0.09906 0.79606 0.62651 0.0
C57 C 0.05452 0.92962 0.63439 0.0
O58 O 0.07888 0.94284 0.59553 0.0
O59 O 0.07625 0.90564 0.66685 0.0
O60 O 0.17027 0.97593 0.62544 0.0
O61 O 0.20281 0.88181 0.70201 0.0
C62 C 0.2438 0.90427 0.70021 0.0
O63 O 0.24977 0.94037 0.66964 0.0
O64 O 0.161 0.83863 0.59365 0.0
Mg65 Mg 0.17154 0.15105 0.65 0.0
C66 C 0.20011 0.24776 0.60392 0.0
O67 O 0.22741 0.25111 0.64296 0.0
C68 C 0.17689 0.05252 0.58712 0.0
O69 O 0.18079 0.07802 0.54713 0.0
C70 C 0.06833 0.15575 0.64043 0.0
O71 O 0.08819 0.14502 0.59827 0.0
O72 O 0.09642 0.16142 0.67694 0.0
O73 O 0.17772 0.2075 0.59442 0.0
O74 O 0.23429 0.16254 0.69756 0.0
C75 C 0.27064 0.1352 0.68922 0.0
O76 O 0.26621 0.09942 0.65737 0.0
O77 O 0.17282 0.07401 0.62804 0.0
Mg78 Mg 0.91335 0.17381 0.65705 0.0
C79 C 0.94103 0.27751 0.62535 0.0
O80 O 0.97301 0.27235 0.66025 0.0
C81 C 0.90022 0.08038 0.58263 0.0
O82 O 0.90577 0.10685 0.54345 0.0
C83 C 0.81445 0.15085 0.70489 0.0
O84 O 0.81996 0.11024 0.67989 0.0
O85 O 0.84964 0.18223 0.70642 0.0
O86 O 0.91289 0.24139 0.61371 0.0
O87 O 0.99018 0.16913 0.68057 0.0
C88 C 1.01491 0.16204 0.64189 0.0
O89 O 0.99145 0.15986 0.60039 0.0
O90 O 0.90179 0.10045 0.62454 0.0
Mg91 Mg 0.90201 0.92647 0.6436 0.0
C92 C 0.89762 1.02639 0.57965 0.0
O93 O 0.9035 1.00338 0.53807 0.0
C94 C 0.93442 0.82729 0.60679 0.0
O95 O 0.96663 0.83509 0.64124 0.0
C96 C 0.8007 0.90585 0.67456 0.0
O97 O 0.7999 0.89325 0.62843 0.0
O98 O 0.84118 0.91868 0.69388 0.0
O99 O 0.89532 1.0026 0.61912 0.0
O100 O 0.97548 0.92708 0.67169 0.0
C101 C 1.00208 0.93732 0.63518 0.0
O102 O 0.98102 0.9495 0.5944 0.0
O103 O 0.90323 0.86024 0.59729 0.0
Mg104 Mg 0.36744 0.14312 0.20078 0.0
C105 C 0.36722 0.25509 0.20563 0.0
O106 O 0.41328 0.24815 0.21612 0.0
C107 C 0.32652 0.03681 0.21974 0.0
O108 O 0.37251 1.02405 0.21872 0.0
C109 C 0.43211 0.16321 0.11575 0.0
O110 O 0.45693 0.18563 0.1503 0.0
O111 O 0.39456 0.13779 0.1267 0.0
O112 O 0.33842 0.2181 0.20066 0.0
O113 O 0.42266 0.13563 0.25679 0.0
C114 C 0.42429 0.16273 0.29463 0.0
O115 O 0.39509 0.20011 0.29829 0.0
O116 O 0.31524 0.08161 0.21327 0.0
Mg117 Mg 0.88897 0.47004 0.11007 0.0
C118 C 0.9682 0.39035 0.11269 0.0
O119 O 0.93063 0.35998 0.11498 0.0
C120 C 0.78556 0.42931 0.08685 0.0
O121 O 0.78568 0.46183 0.05214 0.0
C122 C 0.89572 0.46726 1.01083 0.0
O123 O 0.8957 0.42384 1.03073 0.0
O124 O 0.89057 0.50444 0.03844 0.0
O125 O 0.96101 0.43599 0.11124 0.0
O126 O 0.88558 0.50442 0.18211 0.0
C127 C 0.86796 0.47675 0.21524 0.0
O128 O 0.8477 0.4347 0.20277 0.0
O129 O 0.82459 0.42174 0.11049 0.0
Mg130 Mg 0.65006 0.9263 0.21871 0.0
C131 C 0.7182 1.02702 0.21992 0.0
O132 O 0.76046 1.00511 0.21828 0.0
C133 C 0.66805 0.8177 0.2177 0.0
O134 O 0.62679 0.81973 0.24201 0.0
C135 C 0.65259 0.93529 0.11916 0.0
O136 O 0.69621 0.93708 0.1389 0.0
O137 O 0.6156 0.9294 0.14692 0.0
O138 O 0.67849 1.00217 0.22037 0.0
O139 O 0.6129 0.92094 0.28898 0.0
C140 C 0.63575 0.94237 0.32376 0.0
O141 O 0.67621 0.96689 0.31427 0.0
O142 O 0.69052 0.8577 0.20745 0.0
Mg143 Mg 0.13994 0.6475 0.10742 0.0
C144 C 0.24782 0.64236 0.08882 0.0
O145 O 0.23914 0.68639 0.07281 0.0
C146 C 0.04693 0.59106 0.13785 0.0
O147 O 0.06804 0.59398 0.18054 0.0
C148 C 0.13471 0.6786 1.00394 0.0
O149 O 0.128 0.63107 1.00008 0.0
O150 O 0.1391 0.69801 0.0461 0.0
O151 O 0.21196 0.61459 0.10114 0.0
O152 O 0.14087 0.67706 0.18267 0.0
C153 C 0.16651 0.6543 0.21362 0.0
O154 O 0.19237 0.61699 0.19891 0.0
O155 O 0.07103 0.60469 0.10053 0.0
Mg156 Mg 0.4419 0.92 0.97714 0.0
C157 C 0.5071 1.01503 0.99608 0.0
O158 O 0.51954 0.99384 0.03661 0.0
C159 C 0.45164 0.81468 0.9942 0.0
O160 O 0.40719 0.82375 1.00943 0.0
C161 C 0.41245 0.87508 0.87703 0.0
O162 O 0.44764 0.84486 0.88697 0.0
O163 O 0.40093 0.90811 0.90817 0.0
O164 O 0.48009 0.99157 0.96588 0.0
O165 O 0.39775 0.92539 0.04444 0.0
C166 C 0.41736 0.92553 0.08657 0.0
O167 O 0.46504 0.9233 0.09033 0.0
O168 O 0.47965 0.85061 0.98275 0.0
Mg169 Mg 0.1454 0.37203 0.86837 0.0
C170 C 0.25714 0.39635 0.86534 0.0
O171 O 0.25739 0.3597 0.8342 0.0
C172 C 0.03994 0.38213 0.86444 0.0
O173 O 0.04788 0.33501 0.8611 0.0
C174 C 0.12085 0.36622 0.76043 0.0
O175 O 0.09464 0.40394 0.77312 0.0
O176 O 0.14529 0.34383 0.79277 0.0
O177 O 0.21631 0.41076 0.88273 0.0
O178 O 0.13255 0.32796 0.93416 0.0
C179 C 0.16369 0.3047 0.95881 0.0
O180 O 0.20716 0.297 0.94032 0.0
O181 O 0.0764 0.4115 0.86961 0.0
Mg182 Mg 0.63095 0.18846 0.96522 0.0
C183 C 0.6597 0.294 0.97405 0.0
O184 O 0.6212 0.29375 1.00258 0.0
C185 C 0.70545 0.09743 0.95454 0.0
O186 O 0.74405 0.1242 0.94342 0.0
C187 C 0.61066 0.20459 0.86049 0.0
O188 O 0.64797 0.23447 0.86762 0.0
O189 O 0.58991 0.18465 0.8971 0.0
O190 O 0.67643 0.25359 0.95859 0.0
O191 O 0.60293 0.18647 0.03996 0.0
C192 C 0.64171 0.17977 0.0643 0.0
O193 O 0.68364 0.17957 0.04102 0.0
O194 O 0.6644 0.117 0.96245 0.0
Mg195 Mg 0.93184 0.72291 0.85216 0.0
C196 C 0.03916 0.76386 0.84882 0.0
O197 O 0.05111 0.71793 0.85384 0.0
C198 C 0.8208 0.72363 0.85148 0.0
O199 O 0.82725 0.68327 0.82634 0.0
C200 C 0.9044 0.68842 0.75042 0.0
O201 O 0.87807 0.72806 0.75249 0.0
O202 O 0.93038 0.67687 0.78684 0.0
O203 O 0.99401 0.77539 0.84686 0.0
O204 O 0.93941 0.68839 0.92227 0.0
C205 C 0.90871 0.6556 0.93485 0.0
O206 O 0.87897 0.6363 0.90238 0.0
O207 O 0.85775 0.75026 0.86333 0.0
Mg208 Mg 0.12569 0.3617 0.10739 0.0
C209 C 0.23348 0.39606 0.09285 0.0
O210 O 0.23202 0.36576 0.05575 0.0
C211 C 1.01818 0.37126 0.11088 0.0
O212 O 1.02447 0.32384 0.11272 0.0
C213 C 0.15624 0.3001 1.01192 0.0
O214 O 0.18795 0.2762 0.03786 0.0
O215 O 0.12753 0.32994 0.03286 0.0
O216 O 0.19431 0.40486 0.11656 0.0
O217 O 0.12344 0.32356 0.17796 0.0
C218 C 0.10344 0.34659 0.21338 0.0
O219 O 0.08082 0.38746 0.20464 0.0
O220 O 0.05562 0.39957 0.10784 0.0
Mg221 Mg 0.1674 0.72746 0.85414 0.0
C222 C 0.19465 0.69211 0.75027 0.0
O223 O 0.23173 0.72268 0.75585 0.0
C224 C 0.14283 0.7076 0.95974 0.0
O225 O 0.15572 0.75393 0.96348 0.0
C226 C 0.27828 0.71302 0.86202 0.0
O227 O 0.26658 0.67169 0.84 0.0
O228 O 0.24495 0.74393 0.87105 0.0
O229 O 0.16357 0.68678 0.7846 0.0
O230 O 0.12329 0.79393 0.84782 0.0
C231 C 0.07746 0.80256 0.84604 0.0
O232 O 0.06384 0.8481 0.84175 0.0
O233 O 0.14236 0.68686 0.918 0.0
Mg234 Mg 0.45799 0.16234 0.96017 0.0
C235 C 0.45272 0.27003 0.9711 0.0
O236 O 0.40884 0.25413 0.98313 0.0
C237 C 0.51258 0.06895 0.99236 0.0
O238 O 0.52292 0.09416 0.03187 0.0
C239 C 0.43279 0.18406 0.85601 0.0
O240 O 0.47017 0.21419 0.86196 0.0
O241 O 0.41663 0.15977 0.89223 0.0
O242 O 0.48568 0.23869 0.96143 0.0
O243 O 0.42108 0.15445 1.02978 0.0
C244 C 0.44771 0.16886 0.06516 0.0
O245 O 0.49019 0.18988 0.0561 0.0
O246 O 0.49512 0.09094 0.95582 0.0
Mg247 Mg 0.90573 0.47268 0.8587 0.0
C248 C 0.9895 0.39933 0.86024 0.0
O249 O 0.95331 0.36741 0.85639 0.0
C250 C 0.80307 0.43422 0.85108 0.0
O251 O 0.80023 0.4736 0.82448 0.0
C252 C 0.8845 0.47276 0.75463 0.0
O253 O 0.87603 0.42745 0.76795 0.0
O254 O 0.89704 0.50446 0.78682 0.0
O255 O 0.98035 0.44461 0.86053 0.0
O256 O 0.89819 0.50606 0.93135 0.0
C257 C 0.9033 0.46866 0.9581 0.0
O258 O 0.91362 0.42681 0.93715 0.0
O259 O 0.84465 0.42093 0.86614 0.0
Mg260 Mg 0.63876 0.94644 0.96655 0.0
C261 C 0.70694 0.04379 0.95568 0.0
O262 O 0.74582 1.01989 0.94181 0.0
C263 C 0.67062 0.84289 0.96985 0.0
O264 O 0.63617 0.84149 1.00305 0.0
C265 C 0.6303 0.9534 0.86439 0.0
O266 O 0.67581 0.96313 0.87643 0.0
O267 O 0.59919 0.94456 0.89801 0.0
O268 O 0.66749 1.02113 0.96641 0.0
O269 O 0.61156 0.93666 0.04098 0.0
C270 C 0.65033 0.94102 0.0662 0.0
O271 O 0.69177 0.9497 0.04346 0.0
O272 O 0.68457 0.88397 0.95277 0.0
Mg273 Mg 0.90586 0.64017 0.09197 0.0
C274 C 0.99293 0.58794 0.1358 0.0
O275 O 0.96834 0.59386 0.17635 0.0
C276 C 0.79669 0.64662 0.08675 0.0
O277 O 0.81002 0.68871 0.06796 0.0
C278 C 0.90365 0.64165 0.98586 0.0
O279 O 0.88251 0.59971 0.99651 0.0
O280 O 0.91605 0.67087 1.02014 0.0
O281 O 0.97137 0.59486 0.09561 0.0
O282 O 0.91378 0.68639 0.15676 0.0
C283 C 0.88929 0.67392 0.19431 0.0
O284 O 0.85663 0.6384 0.19072 0.0
O285 O 0.82937 0.6154 0.09669 0.0
Mg286 Mg 0.35801 0.90425 0.23488 0.0
C287 C 0.38678 0.92307 0.13084 0.0
O288 O 0.33935 0.91653 0.12662 0.0
C289 C 0.37768 0.86382 0.33913 0.0
O290 O 0.34533 0.83022 0.32623 0.0
C291 C 0.28746 1.00007 0.22942 0.0
O292 O 0.24224 1.01511 0.23228 0.0
O293 O 0.29524 0.9544 0.23533 0.0
O294 O 0.40601 0.92268 0.17311 0.0
O295 O 0.33584 0.82986 0.21324 0.0
C296 C 0.36533 0.79499 0.21987 0.0
O297 O 0.40667 0.80389 0.24262 0.0
O298 O 0.38954 0.89774 0.30925 0.0
Mg299 Mg 0.64334 0.1742 0.21684 0.0
C300 C 0.66226 0.27764 0.21073 0.0
O301 O 0.61916 0.27356 0.23146 0.0
C302 C 0.71512 0.08091 0.21976 0.0
O303 O 0.75463 0.10872 0.21821 0.0
C304 C 0.64344 0.17209 0.11698 0.0
O305 O 0.68646 0.16309 0.13556 0.0
O306 O 0.60722 0.17642 0.14583 0.0
O307 O 0.68758 0.23941 0.20466 0.0
O308 O 0.60779 0.1856 0.28689 0.0
C309 C 0.6345 0.20685 0.31889 0.0
O310 O 0.67737 0.22467 0.30599 0.0
O311 O 0.67296 0.09993 0.21971 0.0
Mg312 Mg 0.67084 0.69633 0.90631 0.0
C313 C 0.68123 0.79821 0.94235 0.0
O314 O 0.69304 0.80208 0.8963 0.0
C315 C 0.69187 0.5927 0.89775 0.0
O316 O 0.71069 0.61374 0.85924 0.0
C317 C 0.57626 0.66196 0.85503 0.0
O318 O 0.60234 0.62372 0.84368 0.0
O319 O 0.59714 0.69908 0.87482 0.0
O320 O 0.67053 0.75616 0.95932 0.0
O321 O 0.73541 0.70891 0.85995 0.0
C322 C 0.77401 0.72982 0.8766 0.0
O323 O 0.77432 0.74708 0.92122 0.0
O324 O 0.67371 0.61978 0.9308 0.0
Mg325 Mg 0.42731 0.67668 0.91572 0.0
C326 C 0.46219 0.76524 0.97586 0.0
O327 O 0.50296 0.75807 0.95189 0.0
C328 C 0.40473 0.57231 0.90145 0.0
O329 O 0.39239 0.59458 0.86145 0.0
C330 C 0.32785 0.7195 0.88247 0.0
O331 O 0.33593 0.75253 0.91655 0.0
O332 O 0.36045 0.68803 0.87278 0.0
O333 O 0.42715 0.73397 0.97209 0.0
O334 O 0.49792 0.68911 0.87927 0.0
C335 C 0.52264 0.65616 0.85816 0.0
O336 O 0.50262 0.61283 0.85057 0.0
O337 O 0.42212 0.59822 0.93632 0.0
Mg338 Mg 0.41447 0.41515 0.90983 0.0
C339 C 0.40398 0.51819 0.90041 0.0
O340 O 0.39816 0.49654 0.85799 0.0
C341 C 0.45948 0.32226 0.95905 0.0
O342 O 0.50199 0.33805 0.94309 0.0
C343 C 0.30414 0.41569 0.88517 0.0
O344 O 0.30358 0.44485 0.92332 0.0
O345 O 0.34515 0.39985 0.86956 0.0
O346 O 0.41007 0.49132 0.93743 0.0
O347 O 0.48499 0.42233 0.87226 0.0
C348 C 0.50999 0.38988 0.85069 0.0
O349 O 0.48974 0.34719 0.8403 0.0
O350 O 0.42185 0.34921 0.95551 0.0
Mg351 Mg 0.65565 0.43715 0.90602 0.0
C352 C 0.68378 0.53936 0.89529 0.0
O353 O 0.69118 0.51773 0.85327 0.0
C354 C 0.67253 0.33859 0.94756 0.0
O355 O 0.69233 0.33408 0.90434 0.0
C356 C 0.56376 0.39497 0.85247 0.0
O357 O 0.59086 0.35668 0.8439 0.0
O358 O 0.58263 0.43249 0.87339 0.0
O359 O 0.66666 0.5139 0.93013 0.0
O360 O 0.71746 0.42566 0.85743 0.0
C361 C 0.75892 0.4172 0.87605 0.0
O362 O 0.76172 0.40792 0.92263 0.0
O363 O 0.65534 0.3797 0.96051 0.0
Mg364 Mg 0.63592 0.41486 0.13605 0.0
C365 C 0.63003 0.51758 0.12647 0.0
O366 O 0.62299 0.49674 0.08384 0.0
C367 C 0.67256 0.32146 0.18241 0.0
O368 O 0.69681 0.31723 0.14146 0.0
C369 C 0.53766 0.40478 0.07151 0.0
O370 O 0.56139 0.41875 0.03242 0.0
O371 O 0.56028 0.4005 0.11157 0.0
O372 O 0.63654 0.49036 0.16292 0.0
O373 O 0.69871 0.41586 0.08672 0.0
C374 C 0.73907 0.41486 0.10961 0.0
O375 O 0.73814 0.41001 0.15698 0.0
O376 O 0.64717 0.35929 0.19051 0.0
Mg377 Mg 0.64765 0.67245 0.14527 0.0
C378 C 0.6805 0.77136 0.19257 0.0
O379 O 0.71158 0.77233 0.15621 0.0
C380 C 0.63319 0.5712 0.12872 0.0
O381 O 0.63026 0.59481 0.08763 0.0
C382 C 0.54978 0.6751 0.07768 0.0
O383 O 0.57452 0.66643 0.0377 0.0
O384 O 0.57203 0.68049 0.11805 0.0
O385 O 0.65362 0.73319 0.19893 0.0
O386 O 0.71454 0.67326 0.09984 0.0
C387 C 0.74668 0.6404 0.10601 0.0
O388 O 0.73792 0.605 0.13674 0.0
O389 O 0.64177 0.5957 0.16748 0.0
Mg390 Mg 0.39793 0.65696 0.14441 0.0
C391 C 0.35813 0.74788 0.19441 0.0
O392 O 0.32586 0.74434 0.15935 0.0
C393 C 0.40242 0.55477 0.12882 0.0
O394 O 0.40917 0.57713 0.0873 0.0
C395 C 0.29747 0.63096 0.10497 0.0
O396 O 0.30273 0.59557 0.13619 0.0
O397 O 0.33295 0.66107 0.09768 0.0
O398 O 0.3892 0.71415 0.19966 0.0
O399 O 0.4734 0.67199 0.11874 0.0
C400 C 0.49575 0.67048 0.0781 0.0
O401 O 0.47185 0.65855 0.03835 0.0
O402 O 0.39765 0.58062 0.1671 0.0
Mg403 Mg 0.38694 0.39964 0.1407 0.0
C404 C 0.39629 0.5014 0.12785 0.0
O405 O 0.39654 0.47923 0.08539 0.0
C406 C 0.35309 0.30371 0.18855 0.0
O407 O 0.31579 0.30724 0.15904 0.0
C408 C 0.2814 0.41121 0.11286 0.0
O409 O 0.28315 0.43667 0.15351 0.0
O410 O 0.32065 0.39268 0.09613 0.0
O411 O 0.3899 0.47571 0.16568 0.0
O412 O 0.46191 0.39217 0.11172 0.0
C413 C 0.48364 0.40172 0.07185 0.0
O414 O 0.45865 0.41636 0.03426 0.0
O415 O 0.38383 0.33916 0.19223 0.0
Mg416 Mg 0.92588 0.66992 0.59856 0.0
C417 C 0.92803 0.77715 0.58809 0.0
O418 O 0.8867 0.7647 0.5669 0.0
C419 C 1.00452 0.5824 0.61772 0.0
O420 O 0.03763 0.6099 0.63967 0.0
C421 C 0.93404 0.67451 0.49994 0.0
O422 O 0.97628 0.67831 0.52233 0.0
O423 O 0.89558 0.66811 0.52532 0.0
O424 O 0.95688 0.74371 0.60183 0.0
O425 O 0.88638 0.67559 0.66671 0.0
C426 C 0.91184 0.66401 0.70345 0.0
O427 O 0.95239 0.64007 0.6967 0.0
O428 O 0.96547 0.601 0.60165 0.0
Mg429 Mg 0.39335 0.85713 0.71772 0.0
C430 C 0.49784 0.88223 0.70133 0.0
O431 O 0.50146 0.8418 0.72623 0.0
C432 C 0.28712 0.88276 0.72169 0.0
O433 O 0.28387 0.84009 0.74298 0.0
C434 C 0.42172 0.78081 0.63873 0.0
O435 O 0.46103 0.77442 0.66484 0.0
O436 O 0.38581 0.80311 0.65776 0.0
O437 O 0.45597 0.89986 0.69381 0.0
O438 O 0.40586 0.84368 0.79561 0.0
C439 C 0.39249 0.87547 0.82718 0.0
O440 O 0.36692 0.91293 0.81319 0.0
O441 O 0.3288 0.90018 0.71013 0.0
Mg442 Mg 0.13737 0.39087 0.60288 0.0
C443 C 0.06406 0.35249 0.51658 0.0
O444 O 0.04057 0.32076 0.54387 0.0
C445 C 0.12898 0.35676 0.70831 0.0
O446 O 0.16573 0.32952 0.69513 0.0
C447 C 0.12992 0.49774 0.57682 0.0
O448 O 0.09119 0.47886 0.55527 0.0
O449 O 0.1587 0.46944 0.59933 0.0
O450 O 0.09751 0.37987 0.53466 0.0
O451 O 0.19328 0.33414 0.60138 0.0
C452 C 0.18265 0.29292 0.58159 0.0
O453 O 0.14493 0.28962 0.55247 0.0
O454 O 0.10692 0.38214 0.67653 0.0
Mg455 Mg 0.64999 0.14851 0.71469 0.0
C456 C 0.76481 0.16336 0.72196 0.0
O457 O 0.75573 0.20787 0.73733 0.0
C458 C 0.56529 0.06882 0.72586 0.0
O459 O 0.55037 1.02506 0.73891 0.0
C460 C 0.66474 0.16656 0.60724 0.0
O461 O 0.70665 0.14755 0.61911 0.0
O462 O 0.63283 0.17379 0.6404 0.0
O463 O 0.72938 0.13351 0.71339 0.0
O464 O 0.63412 0.19539 0.77798 0.0
C465 C 0.60414 0.18328 0.81165 0.0
O466 O 0.57655 0.14395 0.80643 0.0
O467 O 0.61084 0.07938 0.728 0.0
Mg468 Mg 0.92851 0.43573 0.35515 0.0
C469 C 0.99524 0.52868 0.37862 0.0
O470 O 0.99922 0.51117 0.42254 0.0
C471 C 0.93908 0.32143 0.37208 0.0
O472 O 0.91616 0.33009 0.41306 0.0
C473 C 0.88243 0.48384 0.26618 0.0
O474 O 0.91136 0.52086 0.27759 0.0
O475 O 0.87763 0.44783 0.29523 0.0
O476 O 0.97635 0.50182 0.34525 0.0
O477 O 0.9026 0.43939 0.43017 0.0
C478 C 0.93812 0.42614 0.45628 0.0
O479 O 0.97881 0.41341 0.43462 0.0
O480 O 0.95046 0.35719 0.34394 0.0
Mg481 Mg 0.65052 0.92526 0.48364 0.0
C482 C 0.75785 0.90546 0.5037 0.0
O483 O 0.75446 0.94834 0.52517 0.0
C484 C 0.56473 0.84979 0.47832 0.0
O485 O 0.5951 0.82203 0.45404 0.0
C486 C 0.62255 0.93371 0.37476 0.0
O487 O 0.58701 0.90285 0.3853 0.0
O488 O 0.65051 0.95042 0.40829 0.0
O489 O 0.71914 0.88444 0.48739 0.0
O490 O 0.65117 0.98411 0.53733 0.0
C491 C 0.64599 0.97464 0.58229 0.0
O492 O 0.64286 0.92901 0.5964 0.0
O493 O 0.57954 0.89044 0.49576 0.0
Mg494 Mg 0.18493 0.63596 0.37534 0.0
C495 C 0.16787 0.73984 0.40312 0.0
O496 O 0.20863 0.74342 0.37808 0.0
C497 C 0.17533 0.52469 0.37731 0.0
O498 O 0.21824 0.52873 0.3562 0.0
C499 C 0.1637 0.66494 0.26628 0.0
O500 O 0.13169 0.6959 0.28341 0.0
O501 O 0.18902 0.63969 0.29542 0.0
O502 O 0.14649 0.69829 0.40654 0.0
O503 O 0.25766 0.64054 0.4083 0.0
C504 C 0.2687 0.64577 0.45315 0.0
O505 O 0.31498 0.64964 0.46522 0.0
O506 O 0.15306 0.56329 0.39055 0.0
Mg507 Mg 0.43203 0.1238 0.44213 0.0
C508 C 0.53678 0.0761 0.43466 0.0
O509 O 0.53153 0.07606 0.38737 0.0
C510 C 0.33335 0.10875 0.39402 0.0
O511 O 0.345 0.15314 0.38017 0.0
C512 C 0.44502 0.14287 0.33902 0.0
O513 O 0.44821 0.09518 0.34189 0.0
O514 O 0.44384 0.16805 0.37815 0.0
O515 O 0.50077 0.08737 0.46186 0.0
O516 O 0.41166 0.16208 0.50982 0.0
C517 C 0.44161 0.17281 0.54389 0.0
O518 O 0.48864 0.16766 0.53641 0.0
O519 O 0.36321 0.0854 0.42071 0.0
Mg520 Mg 0.64672 0.94034 0.70343 0.0
C521 C 0.63934 1.01478 0.61736 0.0
O522 O 0.63347 0.05921 0.6012 0.0
C523 C 0.61848 0.94858 0.81257 0.0
O524 O 0.57512 0.9328 0.79873 0.0
C525 C 0.75438 0.91461 0.69996 0.0
O526 O 0.75453 0.93691 0.7424 0.0
O527 O 0.7143 0.90848 0.67721 0.0
O528 O 0.63739 1.00761 0.66297 0.0
O529 O 0.58344 0.89258 0.69893 0.0
C530 C 0.54213 0.90912 0.68719 0.0
O531 O 0.53914 0.95307 0.66893 0.0
O532 O 0.65236 0.95559 0.78129 0.0
Mg533 Mg 0.68021 0.14167 0.44458 0.0
C534 C 0.62532 0.19832 0.37057 0.0
O535 O 0.58855 0.16957 0.3826 0.0
C536 C 0.65347 0.17192 0.55512 0.0
O537 O 0.61134 0.18907 0.54114 0.0
C538 C 0.77912 0.13887 0.38216 0.0
O539 O 0.75498 0.15847 0.34639 0.0
O540 O 0.75666 0.12663 0.42127 0.0
O541 O 0.66165 0.20286 0.39916 0.0
O542 O 0.62231 0.08772 0.42628 0.0
C543 C 0.58653 0.08006 0.45512 0.0
O544 O 0.59133 0.09241 0.50102 0.0
O545 O 0.68325 0.1544 0.52397 0.0
Mg546 Mg 0.93169 0.67225 0.34568 0.0
C547 C 0.92634 0.77966 0.35907 0.0
O548 O 0.88033 0.76539 0.35729 0.0
C549 C 0.99768 0.58256 0.37293 0.0
O550 O 1.01232 0.60916 0.41015 0.0
C551 C 0.9058 0.68949 0.24284 0.0
O552 O 0.94659 0.7151 0.24708 0.0
O553 O 0.88716 0.6696 0.28044 0.0
O554 O 0.95948 0.74833 0.35026 0.0
O555 O 0.90067 0.66567 0.41892 0.0
C556 C 0.93449 0.68083 0.44727 0.0
O557 O 0.97513 0.69811 0.42823 0.0
O558 O 0.97263 0.60244 0.33963 0.0
Mg559 Mg 0.40471 0.84513 0.49659 0.0
C560 C 0.51245 0.83693 0.48042 0.0
O561 O 0.49677 0.7952 0.46175 0.0
C562 C 0.31261 0.88977 0.53463 0.0
O563 O 0.31335 0.85094 0.56213 0.0
C564 C 0.39662 0.86465 0.38954 0.0
O565 O 0.42076 0.90355 0.40523 0.0
O566 O 0.3864 0.83031 0.41947 0.0
O567 O 0.4817 0.86695 0.49782 0.0
O568 O 0.39224 0.79649 0.55929 0.0
C569 C 0.42689 0.78053 0.58518 0.0
O570 O 0.47112 0.77963 0.56677 0.0
O571 O 0.35042 0.90119 0.50976 0.0
Mg572 Mg 0.13314 0.36683 0.37047 0.0
C573 C 0.11442 0.33476 0.26443 0.0
O574 O 0.14955 0.30423 0.27379 0.0
C575 C 0.06289 0.34815 0.46319 0.0
O576 O 0.04012 0.31114 0.44196 0.0
C577 C 0.15187 0.476 0.38253 0.0
O578 O 0.10723 0.4726 0.39983 0.0
O579 O 0.17323 0.43731 0.36796 0.0
O580 O 0.09746 0.36158 0.29873 0.0
O581 O 0.17861 0.30195 0.37574 0.0
C582 C 0.16999 0.26784 0.406 0.0
O583 O 0.13625 0.27346 0.43929 0.0
O584 O 0.09454 0.37333 0.43991 0.0
Mg585 Mg 0.43068 0.15063 0.70112 0.0
C586 C 0.42308 0.17789 0.59413 0.0
O587 O 0.37664 0.16871 0.60263 0.0
C588 C 0.41741 0.1705 0.80644 0.0
O589 O 0.39085 0.13057 0.79984 0.0
C590 C 0.52882 0.10508 0.71253 0.0
O591 O 0.54244 0.15016 0.70272 0.0
O592 O 0.48348 0.09357 0.71302 0.0
O593 O 0.45291 0.17927 0.62969 0.0
O594 O 0.35588 0.12342 0.6937 0.0
C595 C 0.31951 0.14871 0.70706 0.0
O596 O 0.32689 0.19096 0.72911 0.0
O597 O 0.43694 0.19123 0.76966 0.0
Mg598 Mg 0.92716 0.43701 0.60858 0.0
C599 C 1.00483 0.52869 0.62157 0.0
O600 O 1.03337 0.50719 0.65274 0.0
C601 C 0.93208 0.32689 0.60634 0.0
O602 O 0.89305 0.33395 0.57991 0.0
C603 C 0.93766 0.42802 0.50939 0.0
O604 O 0.97965 0.42432 0.53185 0.0
O605 O 0.89917 0.43342 0.53476 0.0
O606 O 0.96833 0.5058 0.60339 0.0
O607 O 0.88178 0.44757 0.67267 0.0
C608 C 0.89019 0.48257 0.70266 0.0
O609 O 0.91666 0.52046 0.68918 0.0
O610 O 0.95716 0.36395 0.62135 0.0
Mg611 Mg 0.19064 0.65101 0.59582 0.0
C612 C 0.23125 0.64684 0.49178 0.0
O613 O 0.18529 0.63745 0.48141 0.0
C614 C 0.18597 0.66851 0.70259 0.0
O615 O 0.14325 0.64785 0.69364 0.0
C616 C 0.15818 0.75288 0.57807 0.0
O617 O 0.20342 0.75451 0.56213 0.0
O618 O 0.13909 0.71135 0.58872 0.0
O619 O 0.24376 0.65461 0.53589 0.0
O620 O 0.16869 0.57313 0.60186 0.0
C621 C 0.13934 0.551 0.57314 0.0
O622 O 0.1165 0.57606 0.54003 0.0
O623 O 0.21711 0.67235 0.66816 0.0
loop_
_geom_bond_atom_site_label_1
_geom_bond_atom_site_label_2
_geom_bond_distance
_geom_bond_site_symmetry_2
_ccdc_geom_bond_type
Mg0 O7 2.141 . S
Mg0 O8 2.048 . S
Mg0 O9 2.048 . S
Mg0 O12 2.141 . S
C1 O2 1.313 . S
C1 O8 1.195 . S
O2 C1 1.313 . S
C3 O4 1.245 . S
C3 O12 1.289 . S
O4 C3 1.245 . S
C5 O6 1.245 . S
C5 O7 1.289 . S
O6 C5 1.245 . S
O7 Mg0 2.141 . S
O7 C5 1.289 . S
O8 Mg0 2.048 . S
O8 C1 1.195 . S
O9 Mg0 2.048 . S
O9 C10 1.195 . S
C10 O9 1.195 . S
C10 O11 1.313 . S
O11 C10 1.313 . S
O12 Mg0 2.141 . S
O12 C3 1.289 . S
Mg13 O20 2.141 . S
Mg13 O21 2.048 . S
Mg13 O22 2.048 . S
Mg13 O25 2.141 . S
C14 O15 1.313 . S
C14 O21 1.195 . S
O15 C14 1.313 . S
C16 O17 1.245 . S
C16 O25 1.289 . S
O17 C16 1.245 . S
C18 O19 1.245 . S
C18 O20 1.289 . S
O19 C18 1.245 . S
O20 Mg13 2.141 . S
O20 C18 1.289 . S
O21 Mg13 2.048 . S
O21 C14 1.195 . S
O22 Mg13 2.048 . S
O22 C23 1.195 . S
C23 O22 1.195 . S
C23 O24 1.313 . S
O24 C23 1.313 . S
O25 Mg13 2.141 . S
O25 C16 1.289 . S
Mg26 O33 2.141 . S
Mg26 O34 2.048 . S
Mg26 O35 2.048 . S
Mg26 O38 2.141 . S
C27 O28 1.313 . S
C27 O34 1.195 . S
O28 C27 1.313 . S
C29 O30 1.245 . S
C29 O38 1.289 . S
O30 C29 1.245 . S
C31 O32 1.245 . S
C31 O33 1.289 . S
O32 C31 1.245 . S
O33 Mg26 2.141 . S
O33 C31 1.289 . S
O34 Mg26 2.048 . S
O34 C27 1.195 . S
O35 Mg26 2.048 . S
O35 C36 1.195 . S
C36 O35 1.195 . S
C36 O37 1.313 . S
O37 C36 1.313 . S
O38 Mg26 2.141 . S
O38 C29 1.289 . S
Mg39 O46 2.141 . S
Mg39 O47 2.048 . S
Mg39 O48 2.048 . S
Mg39 O51 2.141 . S
C40 O41 1.313 . S
C40 O47 1.195 . S
O41 C40 1.313 . S
C42 O43 1.245 . S
C42 O51 1.289 . S
O43 C42 1.245 . S
C44 O45 1.245 . S
C44 O46 1.289 . S
O45 C44 1.245 . S
O46 Mg39 2.141 . S
O46 C44 1.289 . S
O47 Mg39 2.048 . S
O47 C40 1.195 . S
O48 Mg39 2.048 . S
O48 C49 1.195 . S
C49 O48 1.195 . S
C49 O50 1.313 . S
O50 C49 1.313 . S
O51 Mg39 2.141 . S
O51 C42 1.289 . S
Mg52 O59 2.141 . S
Mg52 O60 2.048 . S
Mg52 O61 2.048 . S
Mg52 O64 2.141 . S
C53 O54 1.313 . S
C53 O60 1.195 . S
O54 C53 1.313 . S
C55 O56 1.245 . S
C55 O64 1.289 . S
O56 C55 1.245 . S
C57 O58 1.245 . S
C57 O59 1.289 . S
O58 C57 1.245 . S
O59 Mg52 2.141 . S
O59 C57 1.289 . S
O60 Mg52 2.048 . S
O60 C53 1.195 . S
O61 Mg52 2.048 . S
O61 C62 1.195 . S
C62 O61 1.195 . S
C62 O63 1.313 . S
O63 C62 1.313 . S
O64 Mg52 2.141 . S
O64 C55 1.289 . S
Mg65 O72 2.141 . S
Mg65 O73 2.048 . S
Mg65 O74 2.048 . S
Mg65 O77 2.141 . S
C66 O67 1.313 . S
C66 O73 1.195 . S
O67 C66 1.313 . S
C68 O69 1.245 . S
C68 O77 1.289 . S
O69 C68 1.245 . S
C70 O71 1.245 . S
C70 O72 1.289 . S
O71 C70 1.245 . S
O72 Mg65 2.141 . S
O72 C70 1.289 . S
O73 Mg65 2.048 . S
O73 C66 1.195 . S
O74 Mg65 2.048 . S
O74 C75 1.195 . S
C75 O74 1.195 . S
C75 O76 1.313 . S
O76 C75 1.313 . S
O77 Mg65 2.141 . S
O77 C68 1.289 . S
Mg78 O85 2.141 . S
Mg78 O86 2.048 . S
Mg78 O87 2.048 . S
Mg78 O90 2.141 . S
C79 O80 1.313 . S
C79 O86 1.195 . S
O80 C79 1.313 . S
C81 O82 1.245 . S
C81 O90 1.289 . S
O82 C81 1.245 . S
C83 O84 1.245 . S
C83 O85 1.289 . S
O84 C83 1.245 . S
O85 Mg78 2.141 . S
O85 C83 1.289 . S
O86 Mg78 2.048 . S
O86 C79 1.195 . S
O87 Mg78 2.048 . S
O87 C88 1.195 . S
C88 O87 1.195 . S
C88 O89 1.313 . S
O89 C88 1.313 . S
O90 Mg78 2.141 . S
O90 C81 1.289 . S
Mg91 O98 2.141 . S
Mg91 O99 2.048 . S
Mg91 O100 2.048 . S
Mg91 O103 2.141 . S
C92 O93 1.313 . S
C92 O99 1.195 . S
O93 C92 1.313 . S
C94 O95 1.245 . S
C94 O103 1.289 . S
O95 C94 1.245 . S
C96 O97 1.245 . S
C96 O98 1.289 . S
O97 C96 1.245 . S
O98 Mg91 2.141 . S
O98 C96 1.289 . S
O99 Mg91 2.048 . S
O99 C92 1.195 . S
O100 Mg91 2.048 . S
O100 C101 1.195 . S
C101 O100 1.195 . S
C101 O102 1.313 . S
O102 C101 1.313 . S
O103 Mg91 2.141 . S
O103 C94 1.289 . S
Mg104 O111 2.141 . S
Mg104 O112 2.048 . S
Mg104 O113 2.048 . S
Mg104 O116 2.141 . S
C105 O106 1.313 . S
C105 O112 1.195 . S
O106 C105 1.313 . S
C107 O108 1.245 . S
C107 O116 1.289 . S
O108 C107 1.245 . S
C109 O110 1.245 . S
C109 O111 1.289 . S
O110 C109 1.245 . S
O111 Mg104 2.141 . S
O111 C109 1.289 . S
O112 Mg104 2.048 . S
O112 C105 1.195 . S
O113 Mg104 2.048 . S
O113 C114 1.195 . S
C114 O113 1.195 . S
C114 O115 1.313 . S
O115 C114 1.313 . S
O116 Mg104 2.141 . S
O116 C107 1.289 . S
Mg117 O124 2.141 . S
Mg117 O125 2.048 . S
Mg117 O126 2.048 . S
Mg117 O129 2.141 . S
C118 O119 1.313 . S
C118 O125 1.195 . S
O119 C118 1.313 . S
C120 O121 1.245 . S
C120 O129 1.289 . S
O121 C120 1.245 . S
C122 O123 1.245 . S
C122 O124 1.289 . S
O123 C122 1.245 . S
O124 Mg117 2.141 . S
O124 C122 1.289 . S
O125 Mg117 2.048 . S
O125 C118 1.195 . S
O126 Mg117 2.048 . S
O126 C127 1.195 . S
C127 O126 1.195 . S
C127 O128 1.313 . S
O128 C127 1.313 . S
O129 Mg117 2.141 . S
O129 C120 1.289 . S
Mg130 O137 2.141 . S
Mg130 O138 2.048 . S
Mg130 O139 2.048 . S
Mg130 O142 2.141 . S
C131 O132 1.313 . S
C131 O138 1.195 . S
O132 C131 1.313 . S
C133 O134 1.245 . S
C133 O142 1.289 . S
O134 C133 1.245 . S
C135 O136 1.245 . S
C135 O137 1.289 . S
O136 C135 1.245 . S
O137 Mg130 2.141 . S
O137 C135 1.289 . S
O138 Mg130 2.048 . S
O138 C131 1.195 . S
O139 Mg130 2.048 . S
O139 C140 1.195 . S
C140 O139 1.195 . S
C140 O141 1.313 . S
O141 C140 1.313 . S
O142 Mg130 2.141 . S
O142 C133 1.289 . S
Mg143 O150 2.141 . S
Mg143 O151 2.048 . S
Mg143 O152 2.048 . S
Mg143 O155 2.141 . S
C144 O145 1.313 . S
C144 O151 1.195 . S
O145 C144 1.313 . S
C146 O147 1.245 . S
C146 O155 1.289 . S
O147 C146 1.245 . S
C148 O149 1.245 . S
C148 O150 1.289 . S
O149 C148 1.245 . S
O150 Mg143 2.141 . S
O150 C148 1.289 . S
O151 Mg143 2.048 . S
O151 C144 1.195 . S
O152 Mg143 2.048 . S
O152 C153 1.195 . S
C153 O152 1.195 . S
C153 O154 1.313 . S
O154 C153 1.313 . S
O155 Mg143 2.141 . S
O155 C146 1.289 . S
Mg156 O163 2.141 . S
Mg156 O164 2.048 . S
Mg156 O165 2.048 . S
Mg156 O168 2.141 . S
C157 O158 1.313 . S
C157 O164 1.195 . S
O158 C157 1.313 . S
C159 O160 1.245 . S
C159 O168 1.289 . S
O160 C159 1.245 . S
C161 O162 1.245 . S
C161 O163 1.289 . S
O162 C161 1.245 . S
O163 Mg156 2.141 . S
O163 C161 1.289 . S
O164 Mg156 2.048 . S
O164 C157 1.195 . S
O165 Mg156 2.048 . S
O165 C166 1.195 . S
C166 O165 1.195 . S
C166 O167 1.313 . S
O167 C166 1.313 . S
O168 Mg156 2.141 . S
O168 C159 1.289 . S
Mg169 O176 2.141 . S
Mg169 O177 2.048 . S
Mg169 O178 2.048 . S
Mg169 O181 2.141 . S
C170 O171 1.313 . S
C170 O177 1.195 . S
O171 C170 1.313 . S
C172 O173 1.245 . S
C172 O181 1.289 . S
O173 C172 1.245 . S
C174 O175 1.245 . S
C174 O176 1.289 . S
O175 C174 1.245 . S
O176 Mg169 2.141 . S
O176 C174 1.289 . S
O177 Mg169 2.048 . S
O177 C170 1.195 . S
O178 Mg169 2.048 . S
O178 C179 1.195 . S
C179 O178 1.195 . S
C179 O180 1.313 . S
O180 C179 1.313 . S
O181 Mg169 2.141 . S
O181 C172 1.289 . S
Mg182 O189 2.141 . S
Mg182 O190 2.048 . S
Mg182 O191 2.048 . S
Mg182 O194 2.141 . S
C183 O184 1.313 . S
C183 O190 1.195 . S
O184 C183 1.313 . S
C185 O186 1.245 . S
C185 O194 1.289 . S
O186 C185 1.245 . S
C187 O188 1.245 . S
C187 O189 1.289 . S
O188 C187 1.245 . S
O189 Mg182 2.141 . S
O189 C187 1.289 . S
O190 Mg182 2.048 . S
O190 C183 1.195 . S
O191 Mg182 2.048 . S
O191 C192 1.195 . S
C192 O191 1.195 . S
C192 O193 1.313 . S
O193 C192 1.313 . S
O194 Mg182 2.141 . S
O194 C185 1.289 . S
Mg195 O202 2.141 . S
Mg195 O203 2.048 . S
Mg195 O204 2.048 . S
Mg195 O207 2.141 . S
C196 O197 1.313 . S
C196 O203 1.195 . S
O197 C196 1.313 . S
C198 O199 1.245 . S
C198 O207 1.289 . S
O199 C198 1.245 . S
C200 O201 1.245 . S
C200 O202 1.289 . S
O201 C200 1.245 . S
O202 Mg195 2.141 . S
O202 C200 1.289 . S
O203 Mg195 2.048 . S
O203 C196 1.195 . S
O204 Mg195 2.048 . S
O204 C205 1.195 . S
C205 O204 1.195 . S
C205 O206 1.313 . S
O206 C205 1.313 . S
O207 Mg195 2.141 . S
O207 C198 1.289 . S
Mg208 O215 2.141 . S
Mg208 O216 2.048 . S
Mg208 O217 2.048 . S
Mg208 O220 2.141 . S
C209 O210 1.313 . S
C209 O216 1.195 . S
O210 C209 1.313 . S
C211 O212 1.245 . S
C211 O220 1.289 . S
O212 C211 1.245 . S
C213 O214 1.245 . S
C213 O215 1.289 . S
O214 C213 1.245 . S
O215 Mg208 2.141 . S
O215 C213 1.289 . S
O216 Mg208 2.048 . S
O216 C209 1.195 . S
O217 Mg208 2.048 . S
O217 C218 1.195 . S
C218 O217 1.195 . S
C218 O219 1.313 . S
O219 C218 1.313 . S
O220 Mg208 2.141 . S
O220 C211 1.289 . S
Mg221 O228 2.141 . S
Mg221 O229 2.048 . S
Mg221 O230 2.048 . S
Mg221 O233 2.141 . S
C222 O223 1.313 . S
C222 O229 1.195 . S
O223 C222 1.313 . S
C224 O225 1.245 . S
C224 O233 1.289 . S
O225 C224 1.245 . S
C226 O227 1.245 . S
C226 O228 1.289 . S
O227 C226 1.245 . S
O228 Mg221 2.141 . S
O228 C226 1.289 . S
O229 Mg221 2.048 . S
O229 C222 1.195 . S
O230 Mg221 2.048 . S
O230 C231 1.195 . S
C231 O230 1.195 . S
C231 O232 1.313 . S
O232 C231 1.313 . S
O233 Mg221 2.141 . S
O233 C224 1.289 . S
Mg234 O241 2.141 . S
Mg234 O242 2.048 . S
Mg234 O243 2.048 . S
Mg234 O246 2.141 . S
C235 O236 1.313 . S
C235 O242 1.195 . S
O236 C235 1.313 . S
C237 O238 1.245 . S
C237 O246 1.289 . S
O238 C237 1.245 . S
C239 O240 1.245 . S
C239 O241 1.289 . S
O240 C239 1.245 . S
O241 Mg234 2.141 . S
O241 C239 1.289 . S
O242 Mg234 2.048 . S
O242 C235 1.195 . S
O243 Mg234 2.048 . S
O243 C244 1.195 . S
C244 O243 1.195 . S
C244 O245 1.313 . S
O245 C244 1.313 . S
O246 Mg234 2.141 . S
O246 C237 1.289 . S
Mg247 O254 2.141 . S
Mg247 O255 2.048 . S
Mg247 O256 2.048 . S
Mg247 O259 2.141 . S
C248 O249 1.313 . S
C248 O255 1.195 . S
O249 C248 1.313 . S
C250 O251 1.245 . S
C250 O259 1.289 . S
O251 C250 1.245 . S
C252 O253 1.245 . S
C252 O254 1.289 . S
O253 C252 1.245 . S
O254 Mg247 2.141 . S
O254 C252 1.289 . S
O255 Mg247 2.048 . S
O255 C248 1.195 . S
O256 Mg247 2.048 . S
O256 C257 1.195 . S
C257 O256 1.195 . S
C257 O258 1.313 . S
O258 C257 1.313 . S
O259 Mg247 2.141 . S
O259 C250 1.289 . S
Mg260 O267 2.141 . S
Mg260 O268 2.048 . S
Mg260 O269 2.048 . S
Mg260 O272 2.141 . S
C261 O262 1.313 . S
C261 O268 1.195 . S
O262 C261 1.313 . S
C263 O264 1.245 . S
C263 O272 1.289 . S
O264 C263 1.245 . S
C265 O266 1.245 . S
C265 O267 1.289 . S
O266 C265 1.245 . S
O267 Mg260 2.141 . S
O267 C265 1.289 . S
O268 Mg260 2.048 . S
O268 C261 1.195 . S
O269 Mg260 2.048 . S
O269 C270 1.195 . S
C270 O269 1.195 . S
C270 O271 1.313 . S
O271 C270 1.313 . S
O272 Mg260 2.141 . S
O272 C263 1.289 . S
Mg273 O280 2.141 . S
Mg273 O281 2.048 . S
Mg273 O282 2.048 . S
Mg273 O285 2.141 . S
C274 O275 1.313 . S
C274 O281 1.195 . S
O275 C274 1.313 . S
C276 O277 1.245 . S
C276 O285 1.289 . S
O277 C276 1.245 . S
C278 O279 1.245 . S
C278 O280 1.289 . S
O279 C278 1.245 . S
O280 Mg273 2.141 . S
O280 C278 1.289 . S
O281 Mg273 2.048 . S
O281 C274 1.195 . S
O282 Mg273 2.048 . S
O282 C283 1.195 . S
C283 O282 1.195 . S
C283 O284 1.313 . S
O284 C283 1.313 . S
O285 Mg273 2.141 . S
O285 C276 1.289 . S
Mg286 O293 2.141 . S
Mg286 O294 2.048 . S
Mg286 O295 2.048 . S
Mg286 O298 2.141 . S
C287 O288 1.313 . S
C287 O294 1.195 . S
O288 C287 1.313 . S
C289 O290 1.245 . S
C289 O298 1.289 . S
O290 C289 1.245 . S
C291 O292 1.245 . S
C291 O293 1.289 . S
O292 C291 1.245 . S
O293 Mg286 2.141 . S
O293 C291 1.289 . S
O294 Mg286 2.048 . S
O294 C287 1.195 . S
O295 Mg286 2.048 . S
O295 C296 1.195 . S
C296 O295 1.195 . S
C296 O297 1.313 . S
O297 C296 1.313 . S
O298 Mg286 2.141 . S
O298 C289 1.289 . S
Mg299 O306 2.141 . S
Mg299 O307 2.048 . S
Mg299 O308 2.048 . S
Mg299 O311 2.141 . S
C300 O301 1.313 . S
C300 O307 1.195 . S
O301 C300 1.313 . S
C302 O303 1.245 . S
C302 O311 1.289 . S
O303 C302 1.245 . S
C304 O305 1.245 . S
C304 O306 1.289 . S
O305 C304 1.245 . S
O306 Mg299 2.141 . S
O306 C304 1.289 . S
O307 Mg299 2.048 . S
O307 C300 1.195 . S
O308 Mg299 2.048 . S
O308 C309 1.195 . S
C309 O308 1.195 . S
C309 O310 1.313 . S
O310 C309 1.313 . S
O311 Mg299 2.141 . S
O311 C302 1.289 . S
Mg312 O319 2.141 . S
Mg312 O320 2.048 . S
Mg312 O321 2.048 . S
Mg312 O324 2.141 . S
C313 O314 1.313 . S
C313 O320 1.195 . S
O314 C313 1.313 . S
C315 O316 1.245 . S
C315 O324 1.289 . S
O316 C315 1.245 . S
C317 O318 1.245 . S
C317 O319 1.289 . S
O318 C317 1.245 . S
O319 Mg312 2.141 . S
O319 C317 1.289 . S
O320 Mg312 2.048 . S
O320 C313 1.195 . S
O321 Mg312 2.048 . S
O321 C322 1.195 . S
C322 O321 1.195 . S
C322 O323 1.313 . S
O323 C322 1.313 . S
O324 Mg312 2.141 . S
O324 C315 1.289 . S
Mg325 O332 2.141 . S
Mg325 O333 2.048 . S
Mg325 O334 2.048 . S
Mg325 O337 2.141 . S
C326 O327 1.313 . S
C326 O333 1.195 . S
O327 C326 1.313 . S
C328 O329 1.245 . S
C328 O337 1.289 . S
O329 C328 1.245 . S
C330 O331 1.245 . S
C330 O332 1.289 . S
O331 C330 1.245 . S
O332 Mg325 2.141 . S
O332 C330 1.289 . S
O333 Mg325 2.048 . S
O333 C326 1.195 . S
O334 Mg325 2.048 . S
O334 C335 1.195 . S
C335 O334 1.195 . S
C335 O336 1.313 . S
O336 C335 1.313 . S
O337 Mg325 2.141 . S
O337 C328 1.289 . S
Mg338 O345 2.141 . S
Mg338 O346 2.048 . S
Mg338 O347 2.048 . S
Mg338 O350 2.141 . S
C339 O340 1.313 . S
C339 O346 1.195 . S
O340 C339 1.313 . S
C341 O342 1.245 . S
C341 O350 1.289 . S
O342 C341 1.245 . S
C343 O344 1.245 . S
C343 O345 1.289 . S
O344 C343 1.245 . S
O345 Mg338 2.141 . S
O345 C343 1.289 . S
O346 Mg338 2.048 . S
O346 C339 1.195 . S
O347 Mg338 2.048 . S
O347 C348 1.195 . S
C348 O347 1.195 . S
C348 O349 1.313 . S
O349 C348 1.313 . S
O350 Mg338 2.141 . S
O350 C341 1.289 . S
Mg351 O358 2.141 . S
Mg351 O359 2.048 . S
Mg351 O360 2.048 . S
Mg351 O363 2.141 . S
C352 O353 1.313 . S
C352 O359 1.195 . S
O353 C352 1.313 . S
C354 O355 1.245 . S
C354 O363 1.289 . S
O355 C354 1.245 . S
C356 O357 1.245 . S
C356 O358 1.289 . S
O357 C356 1.245 . S
O358 Mg351 2.141 . S
O358 C356 1.289 . S
O359 Mg351 2.048 . S
O359 C352 1.195 . S
O360 Mg351 2.048 . S
O360 C361 1.195 . S
C361 O360 1.195 . S
C361 O362 1.313 . S
O362 C361 1.313 . S
O363 Mg351 2.141 . S
O363 C354 1.289 . S
Mg364 O371 2.141 . S
Mg364 O372 2.048 . S
Mg364 O373 2.048 . S
Mg364 O376 2.141 . S
C365 O366 1.313 . S
C365 O372 1.195 . S
O366 C365 1.313 . S
C367 O368 1.245 . S
C367 O376 1.289 . S
O368 C367 1.245 . S
C369 O370 1.245 . S
C369 O371 1.289 . S
O370 C369 1.245 . S
O371 Mg364 2.141 . S
O371 C369 1.289 . S
O372 Mg364 2.048 . S
O372 C365 1.195 . S
O373 Mg364 2.048 . S
O373 C374 1.195 . S
C374 O373 1.195 . S
C374 O375 1.313 . S
O375 C374 1.313 . S
O376 Mg364 2.141 . S
O376 C367 1.289 . S
Mg377 O384 2.141 . S
Mg377 O385 2.048 . S
Mg377 O386 2.048 . S
Mg377 O389 2.141 . S
C378 O379 1.313 . S
C378 O385 1.195 . S
O379 C378 1.313 . S
C380 O381 1.245 . S
C380 O389 1.289 . S
O381 C380 1.245 . S
C382 O383 1.245 . S
C382 O384 1.289 . S
O383 C382 1.245 . S
O384 Mg377 2.141 . S
O384 C382 1.289 . S
O385 Mg377 2.048 . S
O385 C378 1.195 . S
O386 Mg377 2.048 . S
O386 C387 1.195 . S
C387 O386 1.195 . S
C387 O388 1.313 . S
O388 C387 1.313 . S
O389 Mg377 2.141 . S
O389 C380 1.289 . S
Mg390 O397 2.141 . S
Mg390 O398 2.048 . S
Mg390 O399 2.048 . S
Mg390 O402 2.141 . S
C391 O392 1.313 . S
C391 O398 1.195 . S
O392 C391 1.313 . S
C393 O394 1.245 . S
C393 O402 1.289 . S
O394 C393 1.245 . S
C395 O396 1.245 . S
C395 O397 1.289 . S
O396 C395 1.245 . S
O397 Mg390 2.141 . S
O397 C395 1.289 . S
O398 Mg390 2.048 . S
O398 C391 1.195 . S
O399 Mg390 2.048 . S
O399 C400 1.195 . S
C400 O399 1.195 . S
C400 O401 1.313 . S
O401 C400 1.313 . S
O402 Mg390 2.141 . S
O402 C393 1.289 . S
Mg403 O410 2.141 . S
Mg403 O411 2.048 . S
Mg403 O412 2.048 . S
Mg403 O415 2.141 . S
C404 O405 1.313 . S
C404 O411 1.195 . S
O405 C404 1.313 . S
C406 O407 1.245 . S
C406 O415 1.289 . S
O407 C406 1.245 . S
C408 O409 1.245 . S
C408 O410 1.289 . S
O409 C408 1.245 . S
O410 Mg403 2.141 . S
O410 C408 1.289 . S
O411 Mg403 2.048 . S
O411 C404 1.195 . S
O412 Mg403 2.048 . S
O412 C413 1.195 . S
C413 O412 1.195 . S
C413 O414 1.313 . S
O414 C413 1.313 . S
O415 Mg403 2.141 . S
O415 C406 1.289 . S
Mg416 O423 2.141 . S
Mg416 O424 2.048 . S
Mg416 O425 2.048 . S
Mg416 O428 2.141 . S
C417 O418 1.313 . S
C417 O424 1.195 . S
O418 C417 1.313 . S
C419 O420 1.245 . S
C419 O428 1.289 . S
O420 C419 1.245 . S
C421 O422 1.245 . S
C421 O423 1.289 . S
O422 C421 1.245 . S
O423 Mg416 2.141 . S
O423 C421 1.289 . S
O424 Mg416 2.048 . S
O424 C417 1.195 . S
O425 Mg416 2.048 . S
O425 C426 1.195 . S
C426 O425 1.195 . S
C426 O427 1.313 . S
O427 C426 1.313 . S
O428 Mg416 2.141 . S
O428 C419 1.289 . S
Mg429 O436 2.141 . S
Mg429 O437 2.048 . S
Mg429 O438 2.048 . S
Mg429 O441 2.141 . S
C430 O431 1.313 . S
C430 O437 1.195 . S
O431 C430 1.313 . S
C432 O433 1.245 . S
C432 O441 1.289 . S
O433 C432 1.245 . S
C434 O435 1.245 . S
C434 O436 1.289 . S
O435 C434 1.245 . S
O436 Mg429 2.141 . S
O436 C434 1.289 . S
O437 Mg429 2.048 . S
O437 C430 1.195 . S
O438 Mg429 2.048 . S
O438 C439 1.195 . S
C439 O438 1.195 . S
C439 O440 1.313 . S
O440 C439 1.313 . S
O441 Mg429 2.141 . S
O441 C432 1.289 . S
Mg442 O449 2.141 . S
Mg442 O450 2.048 . S
Mg442 O451 2.048 . S
Mg442 O454 2.141 . S
C443 O444 1.313 . S
C443 O450 1.195 . S
O444 C443 1.313 . S
C445 O446 1.245 . S
C445 O454 1.289 . S
O446 C445 1.245 . S
C447 O448 1.245 . S
C447 O449 1.289 . S
O448 C447 1.245 . S
O449 Mg442 2.141 . S
O449 C447 1.289 . S
O450 Mg442 2.048 . S
O450 C443 1.195 . S
O451 Mg442 2.048 . S
O451 C452 1.195 . S
C452 O451 1.195 . S
C452 O453 1.313 . S
O453 C452 1.313 . S
O454 Mg442 2.141 . S
O454 C445 1.289 . S
Mg455 O462 2.141 . S
Mg455 O463 2.048 . S
Mg455 O464 2.048 . S
Mg455 O467 2.141 . S
C456 O457 1.313 . S
C456 O463 1.195 . S
O457 C456 1.313 . S
C458 O459 1.245 . S
C458 O467 1.289 . S
O459 C458 1.245 . S
C460 O461 1.245 . S
C460 O462 1.289 . S
O461 C460 1.245 . S
O462 Mg455 2.141 . S
O462 C460 1.289 . S
O463 Mg455 2.048 . S
O463 C456 1.195 . S
O464 Mg455 2.048 . S
O464 C465 1.195 . S
C465 O464 1.195 . S
C465 O466 1.313 . S
O466 C465 1.313 . S
O467 Mg455 2.141 . S
O467 C458 1.289 . S
Mg468 O475 2.141 . S
Mg468 O476 2.048 . S
Mg468 O477 2.048 . S
Mg468 O480 2.141 . S
C469 O470 1.313 . S
C469 O476 1.195 . S
O470 C469 1.313 . S
C471 O472 1.245 . S
C471 O480 1.289 . S
O472 C471 1.245 . S
C473 O474 1.245 . S
C473 O475 1.289 . S
O474 C473 1.245 . S
O475 Mg468 2.141 . S
O475 C473 1.289 . S
O476 Mg468 2.048 . S
O476 C469 1.195 . S
O477 Mg468 2.048 . S
O477 C478 1.195 . S
C478 O477 1.195 . S
C478 O479 1.313 . S
O479 C478 1.313 . S
O480 Mg468 2.141 . S
O480 C471 1.289 . S
Mg481 O488 2.141 . S
Mg481 O489 2.048 . S
Mg481 O490 2.048 . S
Mg481 O493 2.141 . S
C482 O483 1.313 . S
C482 O489 1.195 . S
O483 C482 1.313 . S
C484 O485 1.245 . S
C484 O493 1.289 . S
O485 C484 1.245 . S
C486 O487 1.245 . S
C486 O488 1.289 . S
O487 C486 1.245 . S
O488 Mg481 2.141 . S
O488 C486 1.289 . S
O489 Mg481 2.048 . S
O489 C482 1.195 . S
O490 Mg481 2.048 . S
O490 C491 1.195 . S
C491 O490 1.195 . S
C491 O492 1.313 . S
O492 C491 1.313 . S
O493 Mg481 2.141 . S
O493 C484 1.289 . S
Mg494 O501 2.141 . S
Mg494 O502 2.048 . S
Mg494 O503 2.048 . S
Mg494 O506 2.141 . S
C495 O496 1.313 . S
C495 O502 1.195 . S
O496 C495 1.313 . S
C497 O498 1.245 . S
C497 O506 1.289 . S
O498 C497 1.245 . S
C499 O500 1.245 . S
C499 O501 1.289 . S
O500 C499 1.245 . S
O501 Mg494 2.141 . S
O501 C499 1.289 . S
O502 Mg494 2.048 . S
O502 C495 1.195 . S
O503 Mg494 2.048 . S
O503 C504 1.195 . S
C504 O503 1.195 . S
C504 O505 1.313 . S
O505 C504 1.313 . S
O506 Mg494 2.141 . S
O506 C497 1.289 . S
Mg507 O514 2.141 . S
Mg507 O515 2.048 . S
Mg507 O516 2.048 . S
Mg507 O519 2.141 . S
C508 O509 1.313 . S
C508 O515 1.195 . S
O509 C508 1.313 . S
C510 O511 1.245 . S
C510 O519 1.289 . S
O511 C510 1.245 . S
C512 O513 1.245 . S
C512 O514 1.289 . S
O513 C512 1.245 . S
O514 Mg507 2.141 . S
O514 C512 1.289 . S
O515 Mg507 2.048 . S
O515 C508 1.195 . S
O516 Mg507 2.048 . S
O516 C517 1.195 . S
C517 O516 1.195 . S
C517 O518 1.313 . S
O518 C517 1.313 . S
O519 Mg507 2.141 . S
O519 C510 1.289 . S
Mg520 O527 2.141 . S
Mg520 O528 2.048 . S
Mg520 O529 2.048 . S
Mg520 O532 2.141 . S
C521 O522 1.313 . S
C521 O528 1.195 . S
O522 C521 1.313 . S
C523 O524 1.245 . S
C523 O532 1.289 . S
O524 C523 1.245 . S
C525 O526 1.245 . S
C525 O527 1.289 . S
O526 C525 1.245 . S
O527 Mg520 2.141 . S
O527 C525 1.289 . S
O528 Mg520 2.048 . S
O528 C521 1.195 . S
O529 Mg520 2.048 . S
O529 C530 1.195 . S
C530 O529 1.195 . S
C530 O531 1.313 . S
O531 C530 1.313 . S
O532 Mg520 2.141 . S
O532 C523 1.289 . S
Mg533 O540 2.141 . S
Mg533 O541 2.048 . S
Mg533 O542 2.048 . S
Mg533 O545 2.141 . S
C534 O535 1.313 . S
C534 O541 1.195 . S
O535 C534 1.313 . S
C536 O537 1.245 . S
C536 O545 1.289 . S
O537 C536 1.245 . S
C538 O539 1.245 . S
C538 O540 1.289 . S
O539 C538 1.245 . S
O540 Mg533 2.141 . S
O540 C538 1.289 . S
O541 Mg533 2.048 . S
O541 C534 1.195 . S
O542 Mg533 2.048 . S
O542 C543 1.195 . S
C543 O542 1.195 . S
C543 O544 1.313 . S
O544 C543 1.313 . S
O545 Mg533 2.141 . S
O545 C536 1.289 . S
Mg546 O553 2.141 . S
Mg546 O554 2.048 . S
Mg546 O555 2.048 . S
Mg546 O558 2.141 . S
C547 O548 1.313 . S
C547 O554 1.195 . S
O548 C547 1.313 . S
C549 O550 1.245 . S
C549 O558 1.289 . S
O550 C549 1.245 . S
C551 O552 1.245 . S
C551 O553 1.289 . S
O552 C551 1.245 . S
O553 Mg546 2.141 . S
O553 C551 1.289 . S
O554 Mg546 2.048 . S
O554 C547 1.195 . S
O555 Mg546 2.048 . S
O555 C556 1.195 . S
C556 O555 1.195 . S
C556 O557 1.313 . S
O557 C556 1.313 . S
O558 Mg546 2.141 . S
O558 C549 1.289 . S
Mg559 O566 2.141 . S
Mg559 O567 2.048 . S
Mg559 O568 2.048 . S
Mg559 O571 2.141 . S
C560 O561 1.313 . S
C560 O567 1.195 . S
O561 C560 1.313 . S
C562 O563 1.245 . S
C562 O571 1.289 . S
O563 C562 1.245 . S
C564 O565 1.245 . S
C564 O566 1.289 . S
O565 C564 1.245 . S
O566 Mg559 2.141 . S
O566 C564 1.289 . S
O567 Mg559 2.048 . S
O567 C560 1.195 . S
O568 Mg559 2.048 . S
O568 C569 1.195 . S
C569 O568 1.195 . S
C569 O570 1.313 . S
O570 C569 1.313 . S
O571 Mg559 2.141 . S
O571 C562 1.289 . S
Mg572 O579 2.141 . S
Mg572 O580 2.048 . S
Mg572 O581 2.048 . S
Mg572 O584 2.141 . S
C573 O574 1.313 . S
C573 O580 1.195 . S
O574 C573 1.313 . S
C575 O576 1.245 . S
C575 O584 1.289 . S
O576 C575 1.245 . S
C577 O578 1.245 . S
C577 O579 1.289 . S
O578 C577 1.245 . S
O579 Mg572 2.141 . S
O579 C577 1.289 . S
O580 Mg572 2.048 . S
O580 C573 1.195 . S
O581 Mg572 2.048 . S
O581 C582 1.195 . S
C582 O581 1.195 . S
C582 O583 1.313 . S
O583 C582 1.313 . S
O584 Mg572 2.141 . S
O584 C575 1.289 . S
Mg585 O592 2.141 . S
Mg585 O593 2.048 . S
Mg585 O594 2.048 . S
Mg585 O597 2.141 . S
C586 O587 1.313 . S
C586 O593 1.195 . S
O587 C586 1.313 . S
C588 O589 1.245 . S
C588 O597 1.289 . S
O589 C588 1.245 . S
C590 O591 1.245 . S
C590 O592 1.289 . S
O591 C590 1.245 . S
O592 Mg585 2.141 . S
O592 C590 1.289 . S
O593 Mg585 2.048 . S
O593 C586 1.195 . S
O594 Mg585 2.048 . S
O594 C595 1.195 . S
C595 O594 1.195 . S
C595 O596 1.313 . S
O596 C595 1.313 . S
O597 Mg585 2.141 . S
O597 C588 1.289 . S
Mg598 O605 2.141 . S
Mg598 O606 2.048 . S
Mg598 O607 2.048 . S
Mg598 O610 2.141 . S
C599 O600 1.313 . S
C599 O606 1.195 . S
O600 C599 1.313 . S
C601 O602 1.245 . S
C601 O610 1.289 . S
O602 C601 1.245 . S
C603 O604 1.245 . S
C603 O605 1.289 . S
O604 C603 1.245 . S
O605 Mg598 2.141 . S
O605 C603 1.289 . S
O606 Mg598 2.048 . S
O606 C599 1.195 . S
O607 Mg598 2.048 . S
O607 C608 1.195 . S
C608 O607 1.195 . S
C608 O609 1.313 . S
O609 C608 1.313 . S
O610 Mg598 2.141 . S
O610 C601 1.289 . S
Mg611 O618 2.141 . S
Mg611 O619 2.048 . S
Mg611 O620 2.048 . S
Mg611 O623 2.141 . S
C612 O613 1.313 . S
C612 O619 1.195 . S
O613 C612 1.313 . S
C614 O615 1.245 . S
C614 O623 1.289 . S
O615 C614 1.245 . S
C616 O617 1.245 . S
C616 O618 1.289 . S
O617 C616 1.245 . S
O618 Mg611 2.141 . S
O618 C616 1.289 . S
O619 Mg611 2.048 . S
O619 C612 1.195 . S
O620 Mg611 2.048 . S
O620 C621 1.195 . S
C621 O620 1.195 . S
C621 O622 1.313 . S
O622 C621 1.313 . S
O623 Mg611 2.141 . S
O623 C614 1.289 . S
C40 C3 1.487 1_565 S
C5 C23 1.438 1_455 S
C27 C16 1.510 1_565 S
C36 C44 1.480 1_655 S
C53 C68 1.490 1_565 S
C88 C70 1.518 1_655 S
C81 C92 1.476 1_545 S
C57 C101 1.458 1_455 S
C109 C244 1.421 1_554 S
C257 C122 1.484 1_556 S
C270 C135 1.501 1_556 S
C224 C148 1.406 1_556 S
C287 C166 1.585 1_554 S
C179 C213 1.442 1_556 S
C304 C192 1.477 1_554 S
C205 C278 1.515 1_556 S
C211 C118 1.474 1_455 S
C231 C196 1.545 1_455 S
C157 C237 1.515 1_565 S
C172 C248 1.512 1_455 S
C185 C261 1.506 1_545 S
C146 C274 1.436 1_455 S
C107 C291 1.456 1_545 S
C302 C131 1.470 1_545 S
C352 C315 1.456 . S
C317 C335 1.432 . S
C339 C328 1.512 . S
C348 C356 1.494 . S
C380 C365 1.458 . S
C382 C400 1.479 . S
C404 C393 1.511 . S
C369 C413 1.474 . S
C556 C421 1.427 . S
C434 C569 1.415 . S
C575 C443 1.439 . S
C460 C536 1.447 . S
C478 C603 1.499 . S
C521 C491 1.514 . S
C612 C504 1.583 . S
C586 C517 1.606 . S
C430 C530 1.528 . S
C508 C543 1.597 . S
C549 C469 1.486 . S
C560 C484 1.439 . S
C497 C577 1.451 . S
C590 C458 1.443 . S
C599 C419 1.454 . S
C621 C447 1.513 . S
C1 C582 1.517 . S
C18 C538 1.453 . S
C29 C547 1.464 . S
C49 C562 1.497 . S
C55 C616 1.466 . S
C75 C595 1.533 . S
C79 C601 1.471 . S
C525 C96 1.448 . S
C114 C512 1.507 . S
C473 C127 1.455 . S
C140 C486 1.505 . S
C153 C499 1.471 . S
C161 C439 1.485 . S
C174 C445 1.472 . S
C465 C187 1.510 . S
C200 C426 1.476 . S
C209 C408 1.518 . S
C226 C330 1.451 . S
C235 C341 1.439 . S
C250 C361 1.469 . S
C313 C263 1.478 . S
C276 C387 1.469 . S
C391 C296 1.512 . S
C367 C300 1.485 . S
C417 C94 1.509 . S
C62 C432 1.504 . S
C452 C66 1.502 . S
C456 C83 1.484 . S
C471 C14 1.518 . S
C31 C482 1.497 . S
C495 C42 1.485 . S
C510 C10 1.492 . S
C523 C265 1.433 . S
C222 C614 1.482 . S
C239 C588 1.468 . S
C608 C252 1.496 . S
C534 C309 1.511 . S
C551 C283 1.476 . S
C289 C564 1.434 . S
C573 C218 1.529 . S
C322 C198 1.480 . S
C374 C120 1.500 . S
C378 C133 1.485 . S
C144 C395 1.545 . S
C105 C406 1.491 . S
C343 C170 1.470 . S
C183 C354 1.495 . S
C326 C159 1.517 . S
