# Generated by pormake.
# Topology ict, (4)-cn, num edge types: 1
# Building blocks:
#     Node 0, Type 0, BuildingBlock: TATPOV_clean_sbu_0, # of connection points: 4
#     Node 1, Type 0, BuildingBlock: TATPOV_clean_sbu_0, # of connection points: 4
#     Node 2, Type 0, BuildingBlock: TATPOV_clean_sbu_0, # of connection points: 4
#     Node 3, Type 0, BuildingBlock: TATPOV_clean_sbu_0, # of connection points: 4
#     Node 4, Type 0, BuildingBlock: TATPOV_clean_sbu_0, # of connection points: 4
#     Node 5, Type 0, BuildingBlock: TATPOV_clean_sbu_0, # of connection points: 4
#     Node 6, Type 0, BuildingBlock: TATPOV_clean_sbu_0, # of connection points: 4
#     Node 7, Type 0, BuildingBlock: TATPOV_clean_sbu_0, # of connection points: 4
#     Node 8, Type 0, BuildingBlock: TATPOV_clean_sbu_0, # of connection points: 4
#     Node 9, Type 0, BuildingBlock: TATPOV_clean_sbu_0, # of connection points: 4
#     Node 10, Type 0, BuildingBlock: TATPOV_clean_sbu_0, # of connection points: 4
#     Node 11, Type 0, BuildingBlock: TATPOV_clean_sbu_0, # of connection points: 4
#     Node 12, Type 0, BuildingBlock: TATPOV_clean_sbu_0, # of connection points: 4
#     Node 13, Type 0, BuildingBlock: TATPOV_clean_sbu_0, # of connection points: 4
#     Node 14, Type 0, BuildingBlock: TATPOV_clean_sbu_0, # of connection points: 4
#     Node 15, Type 0, BuildingBlock: TATPOV_clean_sbu_0, # of connection points: 4
#     Node 16, Type 0, BuildingBlock: TATPOV_clean_sbu_0, # of connection points: 4
#     Node 17, Type 0, BuildingBlock: TATPOV_clean_sbu_0, # of connection points: 4
#     Node 18, Type 0, BuildingBlock: TATPOV_clean_sbu_0, # of connection points: 4
#     Node 19, Type 0, BuildingBlock: TATPOV_clean_sbu_0, # of connection points: 4
#     Node 20, Type 0, BuildingBlock: TATPOV_clean_sbu_0, # of connection points: 4
#     Node 21, Type 0, BuildingBlock: TATPOV_clean_sbu_0, # of connection points: 4
#     Node 22, Type 0, BuildingBlock: TATPOV_clean_sbu_0, # of connection points: 4
#     Node 23, Type 0, BuildingBlock: TATPOV_clean_sbu_0, # of connection points: 4
#     Node 24, Type 0, BuildingBlock: TATPOV_clean_sbu_0, # of connection points: 4
#     Node 25, Type 0, BuildingBlock: TATPOV_clean_sbu_0, # of connection points: 4
#     Node 26, Type 0, BuildingBlock: TATPOV_clean_sbu_0, # of connection points: 4
#     Node 27, Type 0, BuildingBlock: TATPOV_clean_sbu_0, # of connection points: 4
#     Node 28, Type 0, BuildingBlock: TATPOV_clean_sbu_0, # of connection points: 4
#     Node 29, Type 0, BuildingBlock: TATPOV_clean_sbu_0, # of connection points: 4
#     Node 30, Type 0, BuildingBlock: TATPOV_clean_sbu_0, # of connection points: 4
#     Node 31, Type 0, BuildingBlock: TATPOV_clean_sbu_0, # of connection points: 4
#     Node 32, Type 0, BuildingBlock: TATPOV_clean_sbu_0, # of connection points: 4
#     Node 33, Type 0, BuildingBlock: TATPOV_clean_sbu_0, # of connection points: 4
#     Node 34, Type 0, BuildingBlock: TATPOV_clean_sbu_0, # of connection points: 4
#     Node 35, Type 0, BuildingBlock: TATPOV_clean_sbu_0, # of connection points: 4
#     Edge 36, Type (0, 0), BuildingBlock: XIVTED_clean_linker_0, # of connection points: 2
#     Edge 37, Type (0, 0), BuildingBlock: XIVTED_clean_linker_0, # of connection points: 2
#     Edge 38, Type (0, 0), BuildingBlock: XIVTED_clean_linker_0, # of connection points: 2
#     Edge 39, Type (0, 0), BuildingBlock: XIVTED_clean_linker_0, # of connection points: 2
#     Edge 40, Type (0, 0), BuildingBlock: XIVTED_clean_linker_0, # of connection points: 2
#     Edge 41, Type (0, 0), BuildingBlock: XIVTED_clean_linker_0, # of connection points: 2
#     Edge 42, Type (0, 0), BuildingBlock: XIVTED_clean_linker_0, # of connection points: 2
#     Edge 43, Type (0, 0), BuildingBlock: XIVTED_clean_linker_0, # of connection points: 2
#     Edge 44, Type (0, 0), BuildingBlock: XIVTED_clean_linker_0, # of connection points: 2
#     Edge 45, Type (0, 0), BuildingBlock: XIVTED_clean_linker_0, # of connection points: 2
#     Edge 46, Type (0, 0), BuildingBlock: XIVTED_clean_linker_0, # of connection points: 2
#     Edge 47, Type (0, 0), BuildingBlock: XIVTED_clean_linker_0, # of connection points: 2
#     Edge 48, Type (0, 0), BuildingBlock: XIVTED_clean_linker_0, # of connection points: 2
#     Edge 49, Type (0, 0), BuildingBlock: XIVTED_clean_linker_0, # of connection points: 2
#     Edge 50, Type (0, 0), BuildingBlock: XIVTED_clean_linker_0, # of connection points: 2
#     Edge 51, Type (0, 0), BuildingBlock: XIVTED_clean_linker_0, # of connection points: 2
#     Edge 52, Type (0, 0), BuildingBlock: XIVTED_clean_linker_0, # of connection points: 2
#     Edge 53, Type (0, 0), BuildingBlock: XIVTED_clean_linker_0, # of connection points: 2
#     Edge 54, Type (0, 0), BuildingBlock: XIVTED_clean_linker_0, # of connection points: 2
#     Edge 55, Type (0, 0), BuildingBlock: XIVTED_clean_linker_0, # of connection points: 2
#     Edge 56, Type (0, 0), BuildingBlock: XIVTED_clean_linker_0, # of connection points: 2
#     Edge 57, Type (0, 0), BuildingBlock: XIVTED_clean_linker_0, # of connection points: 2
#     Edge 58, Type (0, 0), BuildingBlock: XIVTED_clean_linker_0, # of connection points: 2
#     Edge 59, Type (0, 0), BuildingBlock: XIVTED_clean_linker_0, # of connection points: 2
#     Edge 60, Type (0, 0), BuildingBlock: XIVTED_clean_linker_0, # of connection points: 2
#     Edge 61, Type (0, 0), BuildingBlock: XIVTED_clean_linker_0, # of connection points: 2
#     Edge 62, Type (0, 0), BuildingBlock: XIVTED_clean_linker_0, # of connection points: 2
#     Edge 63, Type (0, 0), BuildingBlock: XIVTED_clean_linker_0, # of connection points: 2
#     Edge 64, Type (0, 0), BuildingBlock: XIVTED_clean_linker_0, # of connection points: 2
#     Edge 65, Type (0, 0), BuildingBlock: XIVTED_clean_linker_0, # of connection points: 2
#     Edge 66, Type (0, 0), BuildingBlock: XIVTED_clean_linker_0, # of connection points: 2
#     Edge 67, Type (0, 0), BuildingBlock: XIVTED_clean_linker_0, # of connection points: 2
#     Edge 68, Type (0, 0), BuildingBlock: XIVTED_clean_linker_0, # of connection points: 2
#     Edge 69, Type (0, 0), BuildingBlock: XIVTED_clean_linker_0, # of connection points: 2
#     Edge 70, Type (0, 0), BuildingBlock: XIVTED_clean_linker_0, # of connection points: 2
#     Edge 71, Type (0, 0), BuildingBlock: XIVTED_clean_linker_0, # of connection points: 2
#     Edge 72, Type (0, 0), BuildingBlock: XIVTED_clean_linker_0, # of connection points: 2
#     Edge 73, Type (0, 0), BuildingBlock: XIVTED_clean_linker_0, # of connection points: 2
#     Edge 74, Type (0, 0), BuildingBlock: XIVTED_clean_linker_0, # of connection points: 2
#     Edge 75, Type (0, 0), BuildingBlock: XIVTED_clean_linker_0, # of connection points: 2
#     Edge 76, Type (0, 0), BuildingBlock: XIVTED_clean_linker_0, # of connection points: 2
#     Edge 77, Type (0, 0), BuildingBlock: XIVTED_clean_linker_0, # of connection points: 2
#     Edge 78, Type (0, 0), BuildingBlock: XIVTED_clean_linker_0, # of connection points: 2
#     Edge 79, Type (0, 0), BuildingBlock: XIVTED_clean_linker_0, # of connection points: 2
#     Edge 80, Type (0, 0), BuildingBlock: XIVTED_clean_linker_0, # of connection points: 2
#     Edge 81, Type (0, 0), BuildingBlock: XIVTED_clean_linker_0, # of connection points: 2
#     Edge 82, Type (0, 0), BuildingBlock: XIVTED_clean_linker_0, # of connection points: 2
#     Edge 83, Type (0, 0), BuildingBlock: XIVTED_clean_linker_0, # of connection points: 2
#     Edge 84, Type (0, 0), BuildingBlock: XIVTED_clean_linker_0, # of connection points: 2
#     Edge 85, Type (0, 0), BuildingBlock: XIVTED_clean_linker_0, # of connection points: 2
#     Edge 86, Type (0, 0), BuildingBlock: XIVTED_clean_linker_0, # of connection points: 2
#     Edge 87, Type (0, 0), BuildingBlock: XIVTED_clean_linker_0, # of connection points: 2
#     Edge 88, Type (0, 0), BuildingBlock: XIVTED_clean_linker_0, # of connection points: 2
#     Edge 89, Type (0, 0), BuildingBlock: XIVTED_clean_linker_0, # of connection points: 2
#     Edge 90, Type (0, 0), BuildingBlock: XIVTED_clean_linker_0, # of connection points: 2
#     Edge 91, Type (0, 0), BuildingBlock: XIVTED_clean_linker_0, # of connection points: 2
#     Edge 92, Type (0, 0), BuildingBlock: XIVTED_clean_linker_0, # of connection points: 2
#     Edge 93, Type (0, 0), BuildingBlock: XIVTED_clean_linker_0, # of connection points: 2
#     Edge 94, Type (0, 0), BuildingBlock: XIVTED_clean_linker_0, # of connection points: 2
#     Edge 95, Type (0, 0), BuildingBlock: XIVTED_clean_linker_0, # of connection points: 2
#     Edge 96, Type (0, 0), BuildingBlock: XIVTED_clean_linker_0, # of connection points: 2
#     Edge 97, Type (0, 0), BuildingBlock: XIVTED_clean_linker_0, # of connection points: 2
#     Edge 98, Type (0, 0), BuildingBlock: XIVTED_clean_linker_0, # of connection points: 2
#     Edge 99, Type (0, 0), BuildingBlock: XIVTED_clean_linker_0, # of connection points: 2
#     Edge 100, Type (0, 0), BuildingBlock: XIVTED_clean_linker_0, # of connection points: 2
#     Edge 101, Type (0, 0), BuildingBlock: XIVTED_clean_linker_0, # of connection points: 2
#     Edge 102, Type (0, 0), BuildingBlock: XIVTED_clean_linker_0, # of connection points: 2
#     Edge 103, Type (0, 0), BuildingBlock: XIVTED_clean_linker_0, # of connection points: 2
#     Edge 104, Type (0, 0), BuildingBlock: XIVTED_clean_linker_0, # of connection points: 2
#     Edge 105, Type (0, 0), BuildingBlock: XIVTED_clean_linker_0, # of connection points: 2
#     Edge 106, Type (0, 0), BuildingBlock: XIVTED_clean_linker_0, # of connection points: 2
#     Edge 107, Type (0, 0), BuildingBlock: XIVTED_clean_linker_0, # of connection points: 2
# Relax obj value: 0.097
# Max RMSD: 0.122
# Mean RMSD: 0.122
data_MOF--net-ict--node1-TATPOV_clean_sbu_0--edge1-XIVTED_clean_linker_0
_symmetry_space_group_name_H-M    P1
_symmetry_Int_Tables_number       1
_symmetry_cell_setting            triclinic
loop_
_symmetry_equiv_pos_as_xyz
'x, y, z'
_cell_length_a     69.163213
_cell_length_b     69.159811
_cell_length_c     33.568684
_cell_angle_alpha  90.087402
_cell_angle_beta   89.965089
_cell_angle_gamma 119.97684
loop_
_atom_site_label
_atom_site_type_symbol
_atom_site_fract_x
_atom_site_fract_y
_atom_site_fract_z
_atom_type_partial_charge
Zn0 Zn 0.19972 0.17816 0.09724 0.0
Zn1 Zn 0.22823 0.19988 0.03898 0.0
O2 O 0.20209 0.20416 0.02353 0.0
O3 O 0.18065 0.19079 0.07654 0.0
O4 O 0.2511 0.21562 -0.00312 0.0
O5 O 0.19456 0.14869 0.07592 0.0
O6 O 0.22198 0.16765 0.03365 0.0
C7 C 0.18475 0.20043 0.04298 0.0
C8 C 0.24191 0.21287 0.12531 0.0
O9 O 0.24495 0.21752 0.08845 0.0
O10 O 0.22444 0.19559 0.13711 0.0
C11 C 0.26001 0.23649 -0.00896 0.0
O12 O 0.25303 0.24802 0.01155 0.0
C13 C 0.20752 0.14914 0.04884 0.0
Zn14 Zn 0.81667 0.02449 0.10454 0.0
Zn15 Zn 0.79239 0.0245 0.04181 0.0
O16 O 0.79139 0.99505 0.03192 0.0
O17 O 0.81209 0.99498 0.08187 0.0
O18 O 0.77582 0.02836 -0.00312 0.0
O19 O 0.84333 0.05333 0.08769 0.0
O20 O 0.8236 0.05225 0.03544 0.0
C21 C 0.80048 0.9858 0.051 0.0
C22 C 0.77618 0.02401 0.12648 0.0
O23 O 0.77309 0.02289 0.08909 0.0
O24 O 0.79376 0.02539 0.14081 0.0
C25 C 0.75485 0.01638 -0.00779 0.0
O26 O 0.74339 -0.0008 0.01576 0.0
C27 C 0.84176 0.06169 0.05522 0.0
Zn28 Zn 0.97152 0.78617 0.1087 0.0
Zn29 Zn 0.96761 0.75912 0.04793 0.0
O30 O 0.9962 0.78699 0.03192 0.0
O31 O 0.00142 0.80881 0.08355 0.0
O32 O 0.96136 0.73719 0.00445 0.0
O33 O 0.94297 0.78552 0.09344 0.0
O34 O 0.9398 0.76245 0.04538 0.0
C35 C 0.00789 0.80535 0.05028 0.0
C36 C 0.9713 0.74623 0.13306 0.0
O37 O 0.97172 0.7433 0.09579 0.0
O38 O 0.97 0.76269 0.14635 0.0
C39 C 0.97321 0.72829 -0.00285 0.0
O40 O 0.99168 0.73466 0.01739 0.0
C41 C 0.93225 0.77328 0.0642 0.0
Zn42 Zn 0.18239 0.2079 0.38062 0.0
Zn43 Zn 0.20557 0.23353 0.44253 0.0
O44 O 0.20517 0.2048 0.45661 0.0
O45 O 0.18858 0.18417 0.40373 0.0
O46 O 0.22176 0.2545 0.48725 0.0
O47 O 0.15496 0.20917 0.3963 0.0
O48 O 0.17475 0.23114 0.44563 0.0
C49 C 0.19818 0.18672 0.4371 0.0
C50 C 0.22263 0.2473 0.35753 0.0
O51 O 0.22589 0.24962 0.3949 0.0
O52 O 0.20467 0.2314 0.34369 0.0
C53 C 0.24274 0.26385 0.49218 0.0
O54 O 0.25459 0.2587 0.46839 0.0
C55 C 0.1565 0.22098 0.42625 0.0
Zn56 Zn 0.78235 0.96433 0.37745 0.0
Zn57 Zn 0.75842 0.96722 0.43867 0.0
O58 O 0.7879 0.99618 0.44541 0.0
O59 O 0.80835 0.99382 0.39726 0.0
O60 O 0.73895 0.96788 0.4825 0.0
O61 O 0.77803 0.93551 0.39885 0.0
O62 O 0.7602 0.93879 0.45055 0.0
C63 C 0.80631 0.00422 0.42664 0.0
C64 C 0.74347 0.96521 0.35171 0.0
O65 O 0.74128 0.96714 0.38883 0.0
O66 O 0.75969 0.96345 0.33872 0.0
C67 C 0.72786 0.97781 0.47737 0.0
O68 O 0.73022 0.98879 0.44417 0.0
C69 C 0.76814 0.92825 0.43177 0.0
Zn70 Zn 0.0266 0.81699 0.38753 0.0
Zn71 Zn 0.02755 0.79196 0.44883 0.0
O72 O -0.00151 0.79167 0.45923 0.0
O73 O 0.9957 0.80966 0.40741 0.0
O74 O 0.02884 0.77251 0.4919 0.0
O75 O 0.0544 0.84331 0.40947 0.0
O76 O 0.05537 0.82263 0.45851 0.0
C77 C 0.98777 0.799 0.4396 0.0
C78 C 0.02895 0.7791 0.36127 0.0
O79 O 0.02718 0.77501 0.39837 0.0
O80 O 0.02996 0.79676 0.34836 0.0
C81 C 0.01926 0.75149 0.48679 0.0
O82 O 0.00761 0.74257 0.45426 0.0
C83 C 0.06367 0.84131 0.44046 0.0
Zn84 Zn 0.79669 0.81712 0.89718 0.0
Zn85 Zn 0.76666 0.79322 0.95108 0.0
O86 O 0.79254 0.78929 0.9702 0.0
O87 O 0.81529 0.80431 0.91917 0.0
O88 O 0.7415 0.7757 0.98847 0.0
O89 O 0.80049 0.84577 0.91978 0.0
O90 O 0.77159 0.82499 0.95806 0.0
C91 C 0.81048 0.79387 0.95199 0.0
C92 C 0.75709 0.78249 0.86274 0.0
O93 O 0.75298 0.77664 0.89899 0.0
O94 O 0.77419 0.80079 0.85349 0.0
C95 C 0.73329 0.75494 -0.00529 0.0
O96 O 0.74275 0.74439 0.97868 0.0
C97 C 0.78625 0.84411 0.94522 0.0
Zn98 Zn 0.17102 0.96817 0.88498 0.0
Zn99 Zn 0.19721 0.96756 0.94403 0.0
O100 O 0.19861 0.99692 0.9562 0.0
O101 O 0.17632 0.9975 0.9098 0.0
O102 O 0.21477 0.96358 0.98697 0.0
O103 O 0.14488 0.93915 0.90302 0.0
O104 O 0.16623 0.9398 0.95219 0.0
C105 C 0.189 0.0064 0.93962 0.0
C106 C 0.21097 0.9689 0.85747 0.0
O107 O 0.21512 0.9695 0.89443 0.0
O108 O 0.19303 0.96772 0.84562 0.0
C109 C 0.23587 0.97506 -0.00997 0.0
O110 O 0.24722 0.99166 0.96528 0.0
C111 C 0.14746 0.93053 0.93432 0.0
Zn112 Zn 0.02141 0.20166 0.88481 0.0
Zn113 Zn 0.02385 0.23007 0.94127 0.0
O114 O 0.99508 0.20247 0.95815 0.0
O115 O 0.99123 0.17954 0.90916 0.0
O116 O 0.02943 0.25353 0.98153 0.0
O117 O 0.04975 0.20308 0.90315 0.0
O118 O 0.05195 0.22731 0.94803 0.0
C119 C 0.98393 0.18367 0.94084 0.0
C120 C 0.02101 0.23982 0.85345 0.0
O121 O 0.01991 0.24386 0.89006 0.0
O122 O 0.02315 0.22337 0.8432 0.0
C123 C 0.01722 0.26222 0.98672 0.0
O124 O -0.0014 0.25469 0.96637 0.0
C125 C 0.05995 0.21618 0.93175 0.0
Zn126 Zn 0.81953 0.79544 0.59439 0.0
Zn127 Zn 0.79504 0.76706 0.53641 0.0
O128 O 0.79059 0.79326 0.52359 0.0
O129 O 0.80863 0.81606 0.57332 0.0
O130 O 0.77833 0.74422 0.49451 0.0
O131 O 0.84772 0.79722 0.57392 0.0
O132 O 0.82704 0.77308 0.52774 0.0
C133 C 0.79666 0.81144 0.54226 0.0
C134 C 0.78334 0.75444 0.62378 0.0
O135 O 0.77832 0.75084 0.58707 0.0
O136 O 0.80098 0.77182 0.63472 0.0
C137 C 0.75721 0.73394 0.4911 0.0
O138 O 0.74538 0.73929 0.51455 0.0
C139 C 0.84598 0.78526 0.54408 0.0
Zn140 Zn 0.20389 0.02443 0.59839 0.0
Zn141 Zn 0.23129 0.02806 0.53901 0.0
O142 O 0.20442 -0.00189 0.52495 0.0
O143 O 0.18259 0.99327 0.57633 0.0
O144 O 0.25403 0.03409 0.49703 0.0
O145 O 0.20249 0.05129 0.5795 0.0
O146 O 0.22596 0.0546 0.53213 0.0
C147 C 0.18642 0.98615 0.54411 0.0
C148 C 0.24441 0.02768 0.6259 0.0
O149 O 0.24738 0.02624 0.5889 0.0
O150 O 0.22759 0.02867 0.63796 0.0
C151 C 0.26136 0.02099 0.48874 0.0
O152 O 0.25273 0.00151 0.50654 0.0
C153 C 0.21421 0.06156 0.54952 0.0
Zn154 Zn 0.97252 0.17169 0.57944 0.0
Zn155 Zn 0.967 0.19616 0.5253 0.0
O156 O -0.00257 0.20075 0.50872 0.0
O157 O 0.0044 0.18496 0.55944 0.0
O158 O 0.96021 0.21379 0.48668 0.0
O159 O 0.94813 0.14327 0.5551 0.0
O160 O 0.94054 0.16442 0.51676 0.0
C161 C 0.01059 0.19606 0.52734 0.0
C162 C 0.96595 0.20572 0.61352 0.0
O163 O 0.96816 0.21196 0.57743 0.0
O164 O 0.96526 0.18762 0.62252 0.0
C165 C 0.97324 0.23435 0.47954 0.0
O166 O 0.99311 0.24471 0.4961 0.0
C167 C 0.93593 0.14518 0.52916 0.0
Zn168 Zn 0.87158 0.51426 0.43017 0.0
Zn169 Zn 0.89789 0.54022 0.37069 0.0
O170 O 0.86935 0.54076 0.35876 0.0
O171 O 0.84692 0.51846 0.40557 0.0
O172 O 0.91879 0.55747 0.32667 0.0
O173 O 0.87511 0.48839 0.41328 0.0
O174 O 0.89552 0.50945 0.36362 0.0
C175 C 0.8503 0.53085 0.37551 0.0
C176 C 0.91065 0.55468 0.45674 0.0
O177 O 0.91415 0.55877 0.41975 0.0
O178 O 0.89394 0.53677 0.46874 0.0
C179 C 0.92931 0.57862 0.32406 0.0
O180 O 0.92557 0.59046 0.35035 0.0
C181 C 0.88644 0.4909 0.38216 0.0
Zn182 Zn 0.48057 0.35336 0.42652 0.0
Zn183 Zn 0.45611 0.35632 0.36727 0.0
O184 O 0.4543 0.32685 0.35311 0.0
O185 O 0.4721 0.32266 0.40386 0.0
O186 O 0.43948 0.36185 0.32442 0.0
O187 O 0.50823 0.38115 0.40815 0.0
O188 O 0.48739 0.38379 0.36138 0.0
C189 C 0.46116 0.31539 0.3717 0.0
C190 C 0.44239 0.35566 0.45379 0.0
O191 O 0.43789 0.35432 0.41685 0.0
O192 O 0.46022 0.3566 0.4656 0.0
C193 C 0.41841 0.35092 0.32039 0.0
O194 O 0.40643 0.33375 0.34366 0.0
C195 C 0.50619 0.39142 0.37876 0.0
Zn196 Zn 0.63993 0.1254 0.43721 0.0
Zn197 Zn 0.63799 0.1 0.37523 0.0
O198 O 0.66796 0.1282 0.36504 0.0
O199 O 0.67034 0.14895 0.41683 0.0
O200 O 0.63382 0.07975 0.32962 0.0
O201 O 0.61322 0.12671 0.41796 0.0
O202 O 0.61041 0.10397 0.36943 0.0
C203 C 0.67849 0.14625 0.38488 0.0
C204 C 0.63702 0.08376 0.45965 0.0
O205 O 0.63879 0.08185 0.4224 0.0
O206 O 0.63615 0.10034 0.47355 0.0
C207 C 0.64497 0.06985 0.32522 0.0
O208 O 0.66122 0.07402 0.35021 0.0
C209 C 0.60317 0.1153 0.38754 0.0
Zn210 Zn 0.8425 0.53606 0.7157 0.0
Zn211 Zn 0.86662 0.56177 0.77718 0.0
O212 O 0.86775 0.53361 0.78879 0.0
O213 O 0.85038 0.51298 0.73633 0.0
O214 O 0.88342 0.58269 0.8214 0.0
O215 O 0.81498 0.53622 0.73525 0.0
O216 O 0.83553 0.55817 0.78404 0.0
C217 C 0.86086 0.51571 0.76878 0.0
C218 C 0.88118 0.57687 0.69161 0.0
O219 O 0.88524 0.57896 0.72875 0.0
O220 O 0.86338 0.56048 0.67836 0.0
C221 C 0.90445 0.59204 0.82547 0.0
O222 O 0.916 0.58675 0.8012 0.0
C223 C 0.81687 0.54762 0.76604 0.0
Zn224 Zn 0.45805 0.31002 0.71679 0.0
Zn225 Zn 0.43056 0.30582 0.77689 0.0
O226 O 0.45767 0.3355 0.79145 0.0
O227 O 0.47969 0.34073 0.74016 0.0
O228 O 0.40844 0.29951 0.82008 0.0
O229 O 0.4589 0.28259 0.73429 0.0
O230 O 0.43555 0.27906 0.78205 0.0
C231 C 0.47585 0.34748 0.77279 0.0
C232 C 0.41693 0.30663 0.69081 0.0
O233 O 0.41381 0.30755 0.72789 0.0
O234 O 0.43409 0.3064 0.67833 0.0
C235 C 0.39845 0.31052 0.82524 0.0
O236 O 0.40376 0.32808 0.80295 0.0
C237 C 0.44706 0.27204 0.76399 0.0
Zn238 Zn 0.68855 0.1429 0.71057 0.0
Zn239 Zn 0.69112 0.12025 0.77311 0.0
O240 O 0.66209 0.1195 0.786 0.0
O241 O 0.65804 0.13565 0.73257 0.0
O242 O 0.69633 0.1046 0.81801 0.0
O243 O 0.71641 0.17095 0.72722 0.0
O244 O 0.71863 0.15161 0.77723 0.0
C245 C 0.65083 0.12601 0.76584 0.0
C246 C 0.68986 0.10358 0.68838 0.0
O247 O 0.68844 0.1003 0.72575 0.0
O248 O 0.69133 0.12122 0.67422 0.0
C249 C 0.68499 0.08365 0.82348 0.0
O250 O 0.66776 0.07143 0.80041 0.0
C251 C 0.72641 0.16983 0.75793 0.0
Zn252 Zn 0.4598 0.14966 0.21653 0.0
Zn253 Zn 0.43183 0.12346 0.27401 0.0
O254 O 0.45936 0.12121 0.28723 0.0
O255 O 0.48314 0.14384 0.24221 0.0
O256 O 0.40972 0.10641 0.31671 0.0
O257 O 0.45734 0.1761 0.23364 0.0
O258 O 0.43565 0.15484 0.28197 0.0
C259 C 0.47872 0.13079 0.27161 0.0
C260 C 0.42039 0.1106 0.18697 0.0
O261 O 0.41599 0.10601 0.22364 0.0
O262 O 0.43778 0.1283 0.17631 0.0
C263 C 0.39831 0.08527 0.31898 0.0
O264 O 0.40174 0.07302 0.29313 0.0
C265 C 0.4457 0.17365 0.26428 0.0
Zn266 Zn 0.84444 0.30986 0.22285 0.0
Zn267 Zn 0.86883 0.30514 0.2786 0.0
O268 O 0.87246 0.33543 0.29342 0.0
O269 O 0.85645 0.34171 0.24224 0.0
O270 O 0.88572 0.29928 0.32036 0.0
O271 O 0.81603 0.28503 0.24632 0.0
O272 O 0.83726 0.27822 0.28596 0.0
C273 C 0.86736 0.34821 0.27453 0.0
C274 C 0.87962 0.30375 0.19149 0.0
O275 O 0.88556 0.3061 0.22779 0.0
O276 O 0.86159 0.303 0.18163 0.0
C277 C 0.90688 0.30929 0.32241 0.0
O278 O 0.91883 0.32537 0.29708 0.0
C279 C 0.81804 0.27309 0.27266 0.0
Zn280 Zn 0.68529 0.53447 0.22003 0.0
Zn281 Zn 0.69087 0.56262 0.27795 0.0
O282 O 0.66081 0.53585 0.29367 0.0
O283 O 0.65372 0.51467 0.24043 0.0
O284 O 0.69781 0.5856 0.32 0.0
O285 O 0.71009 0.53009 0.24092 0.0
O286 O 0.71761 0.55742 0.28295 0.0
C287 C 0.64774 0.51838 0.27393 0.0
C288 C 0.6911 0.57586 0.19149 0.0
O289 O 0.6891 0.57881 0.22828 0.0
O290 O 0.69187 0.55881 0.17998 0.0
C291 C 0.68605 0.59469 0.32645 0.0
O292 O 0.66737 0.58782 0.30659 0.0
C293 C 0.72235 0.54339 0.26783 0.0
Zn294 Zn 0.48501 0.12776 0.91902 0.0
Zn295 Zn 0.46042 0.10046 0.85976 0.0
O296 O 0.45842 0.128 0.84584 0.0
O297 O 0.47618 0.14978 0.89692 0.0
O298 O 0.44362 0.07813 0.8172 0.0
O299 O 0.51267 0.12794 0.8998 0.0
O300 O 0.49178 0.1046 0.85283 0.0
C301 C 0.46524 0.14622 0.86479 0.0
C302 C 0.44723 0.08739 0.94662 0.0
O303 O 0.44255 0.08432 0.90972 0.0
O304 O 0.4651 0.10423 0.95839 0.0
C305 C 0.42248 0.06737 0.81439 0.0
O306 O 0.4105 0.07203 0.83879 0.0
C307 C 0.51063 0.11585 0.86998 0.0
Zn308 Zn 0.86506 0.3516 0.9235 0.0
Zn309 Zn 0.89284 0.35543 0.86467 0.0
O310 O 0.86586 0.32577 0.84943 0.0
O311 O 0.84365 0.32086 0.90026 0.0
O312 O 0.91571 0.36176 0.8228 0.0
O313 O 0.86432 0.37892 0.90548 0.0
O314 O 0.88798 0.38229 0.85844 0.0
C315 C 0.84761 0.31391 0.86797 0.0
C316 C 0.90521 0.35421 0.95171 0.0
O317 O 0.90859 0.35315 0.91476 0.0
O318 O 0.88827 0.35508 0.96341 0.0
C319 C 0.92587 0.35083 0.81891 0.0
O320 O 0.92023 0.33331 0.84152 0.0
C321 C 0.87635 0.38937 0.87591 0.0
Zn322 Zn 0.6382 0.51553 0.92946 0.0
Zn323 Zn 0.63563 0.53986 0.86975 0.0
O324 O 0.66466 0.54092 0.85547 0.0
O325 O 0.66864 0.52324 0.9066 0.0
O326 O 0.63041 0.55627 0.82616 0.0
O327 O 0.61022 0.48796 0.9115 0.0
O328 O 0.60803 0.50866 0.86398 0.0
C329 C 0.6759 0.53384 0.87415 0.0
C330 C 0.63713 0.55441 0.95607 0.0
O331 O 0.63841 0.55868 0.91904 0.0
O332 O 0.63565 0.53641 0.96822 0.0
C333 C 0.64084 0.57736 0.8223 0.0
O334 O 0.65712 0.58974 0.84703 0.0
C335 C 0.6002 0.48994 0.88163 0.0
Zn336 Zn 0.53986 0.84309 0.7536 0.0
Zn337 Zn 0.56666 0.86985 0.69468 0.0
O338 O 0.53767 0.86948 0.68289 0.0
O339 O 0.51614 0.85001 0.73299 0.0
O340 O 0.588 0.89056 0.65334 0.0
O341 O 0.54275 0.81772 0.73077 0.0
O342 O 0.56508 0.83977 0.68369 0.0
C343 C 0.51921 0.8613 0.7015 0.0
C344 C 0.57856 0.88117 0.78354 0.0
O345 O 0.58159 0.88602 0.74674 0.0
O346 O 0.56211 0.8629 0.79489 0.0
C347 C 0.59945 0.91144 0.65999 0.0
O348 O 0.59662 0.91964 0.69337 0.0
C349 C 0.55484 0.82071 0.70047 0.0
Zn350 Zn 0.15137 0.69251 0.75978 0.0
Zn351 Zn 0.12607 0.69352 0.69922 0.0
O352 O 0.12531 0.66422 0.68873 0.0
O353 O 0.14357 0.66144 0.74016 0.0
O354 O 0.10644 0.6949 0.65655 0.0
O355 O 0.17772 0.72004 0.73748 0.0
O356 O 0.15685 0.72115 0.68891 0.0
C357 C 0.13262 0.65343 0.70824 0.0
C358 C 0.11398 0.69533 0.78712 0.0
O359 O 0.10953 0.69343 0.75014 0.0
O360 O 0.1317 0.69626 0.79951 0.0
C361 C 0.08547 0.68557 0.66203 0.0
O362 O 0.07667 0.67413 0.69477 0.0
C363 C 0.17563 0.72932 0.70659 0.0
Zn364 Zn 0.31191 0.46704 0.75338 0.0
Zn365 Zn 0.30859 0.43675 0.69941 0.0
O366 O 0.33669 0.46413 0.67919 0.0
O367 O 0.3385 0.48971 0.72086 0.0
O368 O 0.30201 0.41225 0.66089 0.0
O369 O 0.28126 0.46175 0.74132 0.0
O370 O 0.27986 0.43873 0.6946 0.0
C371 C 0.34613 0.48429 0.69114 0.0
C372 C 0.31631 0.43106 0.78673 0.0
O373 O 0.31416 0.42448 0.75084 0.0
O374 O 0.31573 0.44855 0.79567 0.0
C375 C 0.31402 0.40338 0.65508 0.0
O376 O 0.33333 0.41145 0.67334 0.0
C377 C 0.27107 0.44863 0.71276 0.0
Zn378 Zn 0.5133 0.8743 0.04463 0.0
Zn379 Zn 0.53773 0.9028 0.1024 0.0
O380 O 0.5408 0.87615 0.11812 0.0
O381 O 0.5229 0.85319 0.06848 0.0
O382 O 0.55443 0.92617 0.14339 0.0
O383 O 0.4853 0.87365 0.06315 0.0
O384 O 0.50599 0.89771 0.1094 0.0
C385 C 0.53425 0.85764 0.10031 0.0
C386 C 0.5507 0.9142 0.01497 0.0
O387 O 0.55533 0.91799 0.0518 0.0
O388 O 0.5328 0.89714 0.00391 0.0
C389 C 0.57513 0.93469 0.15062 0.0
O390 O 0.58669 0.92706 0.13205 0.0
C391 C 0.48713 0.88588 0.0926 0.0
Zn392 Zn 0.12426 0.64209 0.04697 0.0
Zn393 Zn 0.09714 0.63895 0.10678 0.0
O394 O 0.12483 0.66782 0.12257 0.0
O395 O 0.14657 0.6724 0.07115 0.0
O396 O 0.07449 0.6331 0.14872 0.0
O397 O 0.12386 0.61397 0.06419 0.0
O398 O 0.10081 0.61136 0.11182 0.0
C399 C 0.14313 0.67931 0.10398 0.0
C400 C 0.08464 0.64135 0.02038 0.0
O401 O 0.08168 0.64238 0.0575 0.0
O402 O 0.10107 0.6398 0.00786 0.0
C403 C 0.06674 0.64592 0.1563 0.0
O404 O 0.07502 0.66521 0.13793 0.0
C405 C 0.1118 0.6037 0.09385 0.0
Zn406 Zn 0.35289 0.49123 0.07032 0.0
Zn407 Zn 0.35769 0.46634 0.12396 0.0
O408 O 0.32683 0.46136 0.13886 0.0
O409 O 0.32057 0.47731 0.08755 0.0
O410 O 0.36411 0.44853 0.16296 0.0
O411 O 0.37621 0.51951 0.09652 0.0
O412 O 0.38383 0.49813 0.13413 0.0
C413 C 0.31388 0.466 0.11936 0.0
C414 C 0.361 0.45838 0.0358 0.0
O415 O 0.35783 0.45135 0.07147 0.0
O416 O 0.36171 0.47657 0.02745 0.0
C417 C 0.35247 0.42744 0.1661 0.0
O418 O 0.33419 0.41646 0.14482 0.0
C419 C 0.38823 0.51745 0.12263 0.0
Zn420 Zn 0.12639 0.48352 0.55513 0.0
Zn421 Zn 0.09915 0.45969 0.61478 0.0
O422 O 0.12593 0.45608 0.62729 0.0
O423 O 0.14754 0.47318 0.57575 0.0
O424 O 0.07677 0.44301 0.6572 0.0
O425 O 0.12817 0.51176 0.57552 0.0
O426 O 0.10484 0.49159 0.62301 0.0
C427 C 0.1438 0.46207 0.60769 0.0
C428 C 0.08486 0.44725 0.52798 0.0
O429 O 0.08201 0.44254 0.56487 0.0
O430 O 0.10212 0.46465 0.51597 0.0
C431 C 0.06743 0.42199 0.6615 0.0
O432 O 0.07385 0.41056 0.63928 0.0
C433 C 0.11665 0.51033 0.60585 0.0
Zn434 Zn 0.51712 0.6431 0.52857 0.0
Zn435 Zn 0.53828 0.63697 0.58862 0.0
O436 O 0.54178 0.66723 0.60312 0.0
O437 O 0.52854 0.67468 0.54923 0.0
O438 O 0.55332 0.63008 0.63242 0.0
O439 O 0.48748 0.61814 0.54763 0.0
O440 O 0.50619 0.61047 0.59179 0.0
C441 C 0.53786 0.68052 0.58306 0.0
C442 C 0.55327 0.63687 0.50368 0.0
O443 O 0.55725 0.6385 0.54082 0.0
O444 O 0.53596 0.63659 0.49062 0.0
C445 C 0.57358 0.64288 0.64212 0.0
O446 O 0.58513 0.66233 0.62446 0.0
C447 C 0.48783 0.60579 0.57507 0.0
Zn448 Zn 0.35757 0.86982 0.54331 0.0
Zn449 Zn 0.36102 0.89632 0.60457 0.0
O450 O 0.33093 0.8693 0.617 0.0
O451 O 0.32631 0.84813 0.56463 0.0
O452 O 0.36673 0.91834 0.6478 0.0
O453 O 0.38445 0.86829 0.56208 0.0
O454 O 0.3874 0.89077 0.61114 0.0
C455 C 0.31906 0.85155 0.59707 0.0
C456 C 0.36138 0.91109 0.51856 0.0
O457 O 0.35992 0.91348 0.55577 0.0
O458 O 0.36202 0.89428 0.5053 0.0
C459 C 0.35443 0.92688 0.65371 0.0
O460 O 0.33606 0.91981 0.63275 0.0
C461 C 0.39448 0.87937 0.59283 0.0
Zn462 Zn 0.14333 0.45853 0.26509 0.0
Zn463 Zn 0.12019 0.43167 0.2044 0.0
O464 O 0.11953 0.4598 0.18904 0.0
O465 O 0.1363 0.48136 0.24086 0.0
O466 O 0.10451 0.41001 0.16032 0.0
O467 O 0.1711 0.4578 0.24993 0.0
O468 O 0.15137 0.43486 0.20161 0.0
C469 C 0.12632 0.47811 0.20772 0.0
C470 C 0.10396 0.41855 0.28983 0.0
O471 O 0.10038 0.41547 0.25261 0.0
O472 O 0.12162 0.43519 0.30281 0.0
C473 C 0.08357 0.40012 0.15456 0.0
O474 O 0.07111 0.40508 0.17707 0.0
C475 C 0.16967 0.4456 0.22068 0.0
Zn476 Zn 0.54394 0.7003 0.26538 0.0
Zn477 Zn 0.56537 0.69712 0.20072 0.0
O478 O 0.536 0.66803 0.19617 0.0
O479 O 0.51747 0.67044 0.24767 0.0
O480 O 0.58321 0.69792 0.15339 0.0
O481 O 0.54658 0.72892 0.24589 0.0
O482 O 0.56303 0.72541 0.19244 0.0
C483 C 0.51843 0.65992 0.21743 0.0
C484 C 0.58395 0.69897 0.28389 0.0
O485 O 0.58449 0.69654 0.24648 0.0
O486 O 0.56865 0.70149 0.29939 0.0
C487 C 0.59257 0.68615 0.1509 0.0
O488 O 0.58905 0.6715 0.1789 0.0
C489 C 0.55553 0.73601 0.21221 0.0
Zn490 Zn 0.30702 0.84738 0.25945 0.0
Zn491 Zn 0.30351 0.87142 0.20019 0.0
O492 O 0.33262 0.87317 0.18444 0.0
O493 O 0.3375 0.85594 0.23535 0.0
O494 O 0.29733 0.88798 0.15837 0.0
O495 O 0.27916 0.81953 0.24165 0.0
O496 O 0.27627 0.84003 0.19455 0.0
C497 C 0.34432 0.86651 0.20276 0.0
C498 C 0.30557 0.88583 0.28688 0.0
O499 O 0.30655 0.88997 0.24985 0.0
O500 O 0.30431 0.86791 0.29898 0.0
C501 C 0.3091 0.90886 0.15249 0.0
O502 O 0.32761 0.92059 0.17286 0.0
C503 C 0.26884 0.82132 0.21207 0.0
H504 H 0.37212 0.3287 0.84409 0.0
H505 H 0.28187 0.21806 0.95355 0.0
H506 H 0.38045 0.27192 0.86783 0.0
H507 H 0.28309 0.28068 0.96898 0.0
H508 H 0.31593 0.23714 0.91452 0.0
H509 H 0.33789 0.3113 0.88436 0.0
C510 C 0.36689 0.31271 0.85798 0.0
C511 C 0.37909 0.30169 0.8524 0.0
C512 C 0.30877 0.24675 0.92642 0.0
C513 C 0.34001 0.28169 0.89769 0.0
C514 C 0.28922 0.23583 0.94853 0.0
C515 C 0.27966 0.24782 0.96475 0.0
C516 C 0.31885 0.26983 0.9201 0.0
C517 C 0.28997 0.27083 0.95714 0.0
C518 C 0.34738 0.30281 0.88086 0.0
C519 C 0.37157 0.28102 0.87112 0.0
N520 N 0.30907 0.28115 0.93527 0.0
N521 N 0.35244 0.27163 0.8926 0.0
H522 H 0.72274 0.10418 0.86851 0.0
H523 H 0.71024 0.99539 0.97251 0.0
H524 H 0.6664 0.03912 0.84237 0.0
H525 H 0.7733 0.05518 0.95022 0.0
H526 H 0.69154 0.01101 0.93248 0.0
H527 H 0.73874 0.08658 0.90894 0.0
C528 C 0.7136 0.08617 0.87151 0.0
C529 C 0.69328 0.07308 0.85166 0.0
C530 C 0.70948 0.02053 0.93627 0.0
C531 C 0.71167 0.05283 0.89791 0.0
C532 C 0.72016 0.01166 0.95897 0.0
C533 C 0.74336 0.02404 0.96487 0.0
C534 C 0.72212 0.04201 0.92009 0.0
C535 C 0.7554 0.04502 0.94663 0.0
C536 C 0.72285 0.07614 0.89443 0.0
C537 C 0.68218 0.04982 0.85697 0.0
N538 N 0.74461 0.0534 0.92544 0.0
N539 N 0.69157 0.04037 0.87961 0.0
H540 H 0.93306 0.70804 0.95932 0.0
H541 H 0.9494 0.6175 0.84167 0.0
H542 H 0.9934 0.70461 0.97266 0.0
H543 H 0.88529 0.60973 0.87292 0.0
H544 H 0.96753 0.65125 0.88331 0.0
H545 H 0.91723 0.67446 0.91888 0.0
C546 C 0.94308 0.70032 0.95354 0.0
C547 C 0.96456 0.70908 0.96967 0.0
C548 C 0.9495 0.64197 0.88115 0.0
C549 C 0.94636 0.67041 0.92336 0.0
C550 C 0.93915 0.62274 0.85751 0.0
C551 C 0.9158 0.61087 0.85358 0.0
C552 C 0.93637 0.6494 0.90035 0.0
C553 C 0.90332 0.61837 0.87481 0.0
C554 C 0.93394 0.68102 0.93063 0.0
C555 C 0.97673 0.69832 0.96095 0.0
N556 N 0.91377 0.63724 0.89693 0.0
N557 N 0.96744 0.67945 0.93829 0.0
H558 H 0.33535 0.38092 0.62972 0.0
H559 H 0.22284 0.27943 0.54284 0.0
H560 H 0.2717 0.37843 0.62685 0.0
H561 H 0.28766 0.29073 0.50685 0.0
H562 H 0.24094 0.31272 0.58416 0.0
H563 H 0.31855 0.34542 0.59287 0.0
C564 C 0.31792 0.37298 0.62128 0.0
C565 C 0.30492 0.38268 0.63129 0.0
C566 C 0.25124 0.3079 0.56735 0.0
C567 C 0.28568 0.34215 0.59006 0.0
C568 C 0.24091 0.2888 0.54386 0.0
C569 C 0.25376 0.28242 0.52093 0.0
C570 C 0.27461 0.32075 0.56815 0.0
C571 C 0.27713 0.29516 0.52382 0.0
C572 C 0.30839 0.35277 0.60035 0.0
C573 C 0.28242 0.37168 0.61969 0.0
N574 N 0.28686 0.31386 0.54687 0.0
N575 N 0.27353 0.352 0.59991 0.0
H576 H 0.63937 0.94756 0.67966 0.0
H577 H 0.688 0.97474 0.46005 0.0
H578 H 0.60124 0.90768 0.57933 0.0
H579 H 0.72666 0.97118 0.55768 0.0
H580 H 0.65596 0.9623 0.50506 0.0
H581 H 0.67155 0.96844 0.63542 0.0
C582 C 0.63766 0.94352 0.6482 0.0
C583 C 0.61778 0.92581 0.63298 0.0
C584 C 0.67163 0.96467 0.51658 0.0
C585 C 0.65407 0.94978 0.5827 0.0
C586 C 0.68988 0.97185 0.49115 0.0
C587 C 0.70985 0.97378 0.5053 0.0
C588 C 0.67367 0.96006 0.55647 0.0
C589 C 0.71143 0.96968 0.5457 0.0
C590 C 0.65598 0.95535 0.62319 0.0
C591 C 0.61639 0.92111 0.59212 0.0
N592 N 0.6935 0.96298 0.57002 0.0
N593 N 0.63436 0.93308 0.56825 0.0
H594 H 0.02671 0.75701 0.56689 0.0
H595 H 0.09064 0.69266 0.58183 0.0
H596 H 0.02324 0.71537 0.46816 0.0
H597 H 0.04958 0.68988 0.68095 0.0
H598 H 0.06999 0.70477 0.53875 0.0
H599 H 0.03889 0.73645 0.61005 0.0
C600 C 0.02828 0.74338 0.5545 0.0
C601 C 0.02403 0.73781 0.51407 0.0
C602 C 0.06535 0.70116 0.56982 0.0
C603 C 0.03838 0.71486 0.56259 0.0
C604 C 0.07713 0.69437 0.59433 0.0
C605 C 0.07175 0.69033 0.63484 0.0
C606 C 0.04869 0.7046 0.5864 0.0
C607 C 0.05412 0.69276 0.64975 0.0
C608 C 0.03511 0.73166 0.57905 0.0
C609 C 0.02628 0.72005 0.49929 0.0
N610 N 0.04347 0.70021 0.62566 0.0
N611 N 0.03379 0.70946 0.5234 0.0
H612 H 0.60398 0.71583 0.08986 0.0
H613 H 0.71321 0.71225 0.02482 0.0
H614 H 0.62166 0.67011 0.14385 0.0
H615 H 0.70423 0.7694 0.01202 0.0
H616 H 0.67666 0.69216 0.05805 0.0
H617 H 0.63712 0.73032 0.04821 0.0
C618 C 0.61468 0.70862 0.09263 0.0
C619 C 0.61026 0.69201 0.12091 0.0
C620 C 0.6828 0.70909 0.04784 0.0
C621 C 0.64837 0.70871 0.07345 0.0
C622 C 0.70359 0.72055 0.02901 0.0
C623 C 0.71182 0.74257 0.01593 0.0
C624 C 0.67012 0.71966 0.05281 0.0
C625 C 0.69868 0.75253 0.02193 0.0
C626 C 0.63366 0.71699 0.06895 0.0
C627 C 0.62459 0.6831 0.12271 0.0
N628 N 0.67849 0.74098 0.03978 0.0
N629 N 0.64321 0.69175 0.09955 0.0
H630 H 0.32955 0.95296 0.12943 0.0
H631 H 0.21695 0.9391 0.03944 0.0
H632 H 0.26813 0.89001 0.11782 0.0
H633 H 0.28103 0.99376 0.00333 0.0
H634 H 0.23585 0.9242 0.07908 0.0
H635 H 0.31249 0.97098 0.09136 0.0
C636 C 0.31259 0.94293 0.11871 0.0
C637 C 0.30022 0.91996 0.1269 0.0
C638 C 0.2458 0.93949 0.06257 0.0
C639 C 0.28067 0.94044 0.08438 0.0
C640 C 0.23503 0.94811 0.04008 0.0
C641 C 0.24744 0.96759 0.01763 0.0
C642 C 0.26919 0.95045 0.06299 0.0
C643 C 0.27084 0.97859 0.01997 0.0
C644 C 0.30291 0.95321 0.09711 0.0
C645 C 0.27833 0.90775 0.11232 0.0
N646 N 0.28104 0.9698 0.0422 0.0
N647 N 0.26923 0.91817 0.09209 0.0
H648 H 0.10476 0.3838 0.10891 0.0
H649 H 0.99544 0.28475 0.00893 0.0
H650 H 0.03914 0.37342 0.13566 0.0
H651 H 0.05793 0.28548 0.02213 0.0
H652 H 0.01103 0.31945 0.048 0.0
H653 H 0.08781 0.35052 0.0675 0.0
C654 C 0.08676 0.37462 0.10586 0.0
C655 C 0.07333 0.38131 0.12614 0.0
C656 C 0.0212 0.31187 0.04235 0.0
C657 C 0.05379 0.34299 0.07874 0.0
C658 C 0.01235 0.29212 0.02015 0.0
C659 C 0.02541 0.28222 0.01222 0.0
C660 C 0.0433 0.32183 0.05607 0.0
C661 C 0.0472 0.29246 0.02746 0.0
C662 C 0.07709 0.35553 0.08234 0.0
C663 C 0.0501 0.36877 0.12075 0.0
N664 N 0.05547 0.31173 0.04838 0.0
N665 N 0.041 0.35009 0.09759 0.0
H666 H 0.66541 0.61798 0.35057 0.0
H667 H 0.77704 0.71592 0.44606 0.0
H668 H 0.72707 0.61684 0.36121 0.0
H669 H 0.71239 0.70745 0.47508 0.0
H670 H 0.75888 0.68199 0.40642 0.0
H671 H 0.68212 0.65264 0.38979 0.0
C672 C 0.68236 0.62491 0.36132 0.0
C673 C 0.69488 0.61453 0.35252 0.0
C674 C 0.74863 0.68754 0.42141 0.0
C675 C 0.71406 0.65412 0.39658 0.0
C676 C 0.759 0.70701 0.4439 0.0
C677 C 0.74621 0.71447 0.4642 0.0
C678 C 0.72527 0.67542 0.41882 0.0
C679 C 0.72288 0.70222 0.46008 0.0
C680 C 0.69185 0.64465 0.38361 0.0
C681 C 0.71676 0.62421 0.36719 0.0
N682 N 0.7131 0.68321 0.43782 0.0
N683 N 0.72567 0.64352 0.3882 0.0
H684 H 0.28053 0.9973 0.45927 0.0
H685 H 0.3852 0.10649 0.37157 0.0
H686 H 0.28737 0.06289 0.45936 0.0
H687 H 0.36848 0.04062 0.33102 0.0
H688 H 0.35206 0.08995 0.41324 0.0
H689 H 0.31489 0.01212 0.41946 0.0
C690 C 0.28916 0.01474 0.4508 0.0
C691 C 0.28108 0.02888 0.46267 0.0
C692 C 0.35564 0.07907 0.39531 0.0
C693 C 0.32032 0.04587 0.41802 0.0
C694 C 0.37465 0.0885 0.37162 0.0
C695 C 0.37952 0.07493 0.3474 0.0
C696 C 0.34137 0.05587 0.39512 0.0
C697 C 0.36526 0.0517 0.34904 0.0
C698 C 0.30871 0.02315 0.42817 0.0
C699 C 0.29291 0.05133 0.4509 0.0
N700 N 0.34671 0.04285 0.37245 0.0
N701 N 0.31196 0.05912 0.42949 0.0
H702 H 0.88645 0.27539 0.37586 0.0
H703 H 0.9968 0.27736 0.45099 0.0
H704 H 0.95162 0.32367 0.33139 0.0
H705 H 0.93057 0.21969 0.45563 0.0
H706 H 0.9815 0.29773 0.41517 0.0
H707 H 0.90351 0.25853 0.41547 0.0
C708 C 0.9044 0.28258 0.37462 0.0
C709 C 0.9176 0.30081 0.34985 0.0
C710 C 0.97043 0.2806 0.42405 0.0
C711 C 0.93724 0.28142 0.39514 0.0
C712 C 0.97911 0.26898 0.4444 0.0
C713 C 0.96494 0.24679 0.45623 0.0
C714 C 0.94744 0.26999 0.41618 0.0
C715 C 0.94216 0.23673 0.44699 0.0
C716 C 0.91411 0.27286 0.39715 0.0
C717 C 0.94081 0.30952 0.34986 0.0
N718 N 0.93413 0.24844 0.42774 0.0
N719 N 0.94994 0.29964 0.37205 0.0
H720 H 0.04674 0.66901 0.185 0.0
H721 H 0.94224 0.55844 0.26893 0.0
H722 H 0.04096 0.60386 0.18492 0.0
H723 H 0.95846 0.62353 0.31322 0.0
H724 H 0.9753 0.57586 0.22711 0.0
H725 H 0.0119 0.65352 0.22364 0.0
C726 C 0.03824 0.65154 0.19322 0.0
C727 C 0.04676 0.6377 0.18175 0.0
C728 C 0.9716 0.58637 0.24586 0.0
C729 C 0.007 0.61997 0.22491 0.0
C730 C 0.95264 0.57644 0.26964 0.0
C731 C 0.94772 0.58952 0.29505 0.0
C732 C 0.98577 0.60957 0.24722 0.0
C733 C 0.96176 0.61281 0.2943 0.0
C734 C 0.01842 0.64275 0.21515 0.0
C735 C 0.03509 0.61519 0.19313 0.0
N736 N 0.9803 0.62215 0.27086 0.0
N737 N 0.01577 0.60703 0.21381 0.0
H738 H 0.3736 0.33327 0.30475 0.0
H739 H 0.39326 0.44483 0.20124 0.0
H740 H 0.4386 0.38888 0.27593 0.0
H741 H 0.33147 0.38274 0.18494 0.0
H742 H 0.40857 0.42484 0.23647 0.0
H743 H 0.3564 0.35101 0.26644 0.0
C744 C 0.38425 0.34905 0.2901 0.0
C745 C 0.40757 0.3597 0.29383 0.0
C746 C 0.39165 0.41555 0.22518 0.0
C747 C 0.38806 0.38008 0.25081 0.0
C748 C 0.38282 0.42698 0.20528 0.0
C749 C 0.36105 0.41542 0.18998 0.0
C750 C 0.37862 0.39238 0.2303 0.0
C751 C 0.34836 0.39227 0.19616 0.0
C752 C 0.37442 0.35913 0.26833 0.0
C753 C 0.42056 0.38009 0.27415 0.0
N754 N 0.35733 0.38145 0.216 0.0
N755 N 0.41062 0.38969 0.25389 0.0
H756 H 0.55713 0.95846 0.18193 0.0
H757 H 0.66273 0.04279 0.3095 0.0
H758 H 0.6184 0.95619 0.17844 0.0
H759 H 0.60982 0.05513 0.27415 0.0
H760 H 0.64678 0.00988 0.26578 0.0
H761 H 0.57569 0.9922 0.22184 0.0
C762 C 0.5745 0.96499 0.18972 0.0
C763 C 0.58625 0.95449 0.17673 0.0
C764 C 0.63887 0.01998 0.26744 0.0
C765 C 0.60769 0.99335 0.22251 0.0
C766 C 0.64794 0.03875 0.29229 0.0
C767 C 0.63747 0.05161 0.29576 0.0
C768 C 0.61911 0.01403 0.24645 0.0
C769 C 0.61838 0.04565 0.27271 0.0
C770 C 0.58514 0.98439 0.21232 0.0
C771 C 0.60876 0.96381 0.18778 0.0
N772 N 0.60972 0.02719 0.2494 0.0
N773 N 0.61879 0.98275 0.21022 0.0
H774 H 0.33262 0.94927 0.67631 0.0
H775 H 0.44287 0.05046 0.76808 0.0
H776 H 0.39499 0.94981 0.68984 0.0
H777 H 0.37764 0.03952 0.80011 0.0
H778 H 0.42526 0.01607 0.72967 0.0
H779 H 0.34841 0.98426 0.71452 0.0
C780 C 0.34952 0.95662 0.68752 0.0
C781 C 0.36254 0.94665 0.67975 0.0
C782 C 0.41478 0.02119 0.74503 0.0
C783 C 0.38067 0.98661 0.72253 0.0
C784 C 0.42481 0.04093 0.76679 0.0
C785 C 0.41171 0.0478 0.78766 0.0
C786 C 0.39143 0.00823 0.74372 0.0
C787 C 0.38837 0.03474 0.78465 0.0
C788 C 0.35849 0.97654 0.70922 0.0
C789 C 0.38433 0.95687 0.695 0.0
N790 N 0.37891 0.01548 0.76309 0.0
N791 N 0.39274 0.97636 0.71531 0.0
H792 H 0.04328 0.37736 0.6806 0.0
H793 H 0.94485 0.38965 0.77682 0.0
H794 H 0.04591 0.44037 0.70029 0.0
H795 H 0.95229 0.33248 0.80212 0.0
H796 H 0.97953 0.40615 0.73935 0.0
H797 H 0.0081 0.35862 0.71817 0.0
C798 C 0.03659 0.38726 0.69303 0.0
C799 C 0.0475 0.41046 0.68716 0.0
C800 C 0.97358 0.38998 0.75305 0.0
C801 C 0.00733 0.38916 0.72925 0.0
C802 C 0.95368 0.38045 0.77426 0.0
C803 C 0.94572 0.3597 0.79293 0.0
C804 C 0.98561 0.37865 0.75006 0.0
C805 C 0.95791 0.34857 0.78837 0.0
C806 C 0.01655 0.37656 0.71437 0.0
C807 C 0.03811 0.42247 0.70395 0.0
N808 N 0.97734 0.35821 0.76736 0.0
N809 N 0.01849 0.41166 0.72388 0.0
H810 H 0.60591 0.55606 0.77101 0.0
H811 H 0.61593 0.66582 0.67373 0.0
H812 H 0.65728 0.62199 0.8069 0.0
H813 H 0.55599 0.60115 0.67334 0.0
H814 H 0.63389 0.65054 0.7165 0.0
H815 H 0.59046 0.5728 0.72712 0.0
C816 C 0.61406 0.5741 0.76951 0.0
C817 C 0.63282 0.58765 0.79298 0.0
C818 C 0.61678 0.63982 0.70708 0.0
C819 C 0.61505 0.60695 0.74272 0.0
C820 C 0.60653 0.64849 0.68275 0.0
C821 C 0.58444 0.63473 0.66991 0.0
C822 C 0.6049 0.61722 0.71804 0.0
C823 C 0.57303 0.61241 0.68248 0.0
C824 C 0.60513 0.58365 0.74454 0.0
C825 C 0.64272 0.61093 0.78948 0.0
N826 N 0.58343 0.60435 0.7056 0.0
N827 N 0.63365 0.6199 0.76484 0.0
H828 H 0.22584 0.03897 0.97769 0.0
H829 H 0.16984 0.10836 0.04766 0.0
H830 H 0.16002 0.02228 0.93764 0.0
H831 H 0.23956 0.14202 0.01543 0.0
H832 H 0.1656 0.07358 0.02035 0.0
H833 H 0.231 0.07435 0.00435 0.0
C834 C 0.21248 0.04274 0.97463 0.0
C835 C 0.19248 0.02778 0.95546 0.0
C836 C 0.1818 0.08861 0.01937 0.0
C837 C 0.19812 0.0677 0.98634 0.0
C838 C 0.18428 0.10837 0.03511 0.0
C839 C 0.20508 0.12803 0.0337 0.0
C840 C 0.20037 0.08843 0.00308 0.0
C841 C 0.22324 0.12721 0.01687 0.0
C842 C 0.21549 0.0629 -0.01038 0.0
C843 C 0.17571 0.03345 0.95203 0.0
N844 N 0.22051 0.10761 0.00247 0.0
N845 N 0.17881 0.0529 0.96777 0.0
H846 H 0.95056 0.14751 0.90254 0.0
H847 H 0.87862 0.09228 0.09607 0.0
H848 H 0.96786 0.18112 0.01639 0.0
H849 H 0.85002 0.07631 0.97807 0.0
H850 H 0.91266 0.12334 0.06818 0.0
H851 H 0.91481 0.11926 0.93034 0.0
C852 C 0.94685 0.14893 0.93341 0.0
C853 C 0.96223 0.16663 0.95727 0.0
C854 C 0.89884 0.11315 0.0485 0.0
C855 C 0.92146 0.13434 -0.01081 0.0
C856 C 0.87945 0.09541 0.06433 0.0
C857 C 0.86152 0.08166 0.03929 0.0
C858 C 0.90046 0.11689 0.00726 0.0
C859 C 0.86344 0.08652 -0.00157 0.0
C860 C 0.9264 0.13289 0.94913 0.0
C861 C 0.95647 0.16775 -0.00303 0.0
N862 N 0.88271 0.10359 0.98358 0.0
N863 N 0.9366 0.15168 0.01183 0.0
H864 H 0.84132 0.78767 0.91242 0.0
H865 H 0.90625 0.78642 0.10447 0.0
H866 H 0.81529 0.78562 0.03019 0.0
H867 H 0.91161 0.75899 -0.00791 0.0
H868 H 0.87419 0.78831 0.07827 0.0
H869 H 0.86879 0.77939 0.94111 0.0
C870 C 0.84134 0.78539 0.94434 0.0
C871 C 0.82611 0.78745 0.96904 0.0
C872 C 0.88226 0.78165 0.0596 0.0
C873 C 0.85762 0.77819 0.00204 0.0
C874 C 0.90059 0.78064 0.07442 0.0
C875 C 0.9117 0.77267 0.05031 0.0
C876 C 0.87532 0.77505 0.02019 0.0
C877 C 0.90357 0.76528 0.01169 0.0
C878 C 0.85694 0.78054 0.96065 0.0
C879 C 0.82675 0.78416 0.01015 0.0
N880 N 0.88605 0.76693 -0.00236 0.0
N881 N 0.8425 0.77998 0.0255 0.0
H882 H 0.14905 0.23289 0.49994 0.0
H883 H 0.0256 0.20774 0.4507 0.0
H884 H 0.11867 0.21059 0.3842 0.0
H885 H 0.04679 0.20084 0.56817 0.0
H886 H 0.06258 0.21745 0.42493 0.0
H887 H 0.11436 0.23012 0.52422 0.0
C888 C 0.1352 0.22771 0.4795 0.0
C889 C 0.13663 0.22174 0.44011 0.0
C890 C 0.0591 0.21394 0.45637 0.0
C891 C 0.0971 0.21867 0.46762 0.0
C892 C 0.03808 0.20846 0.47109 0.0
C893 C 0.03309 0.20326 0.51154 0.0
C894 C 0.07528 0.21459 0.48245 0.0
C895 C 0.04986 0.20447 0.5367 0.0
C896 C 0.11542 0.22603 0.49343 0.0
C897 C 0.11817 0.21511 0.41492 0.0
N898 N 0.07022 0.21003 0.52174 0.0
N899 N 0.09911 0.2137 0.42913 0.0
H900 H 0.7992 0.8474 0.58148 0.0
H901 H 0.76848 0.89426 0.39179 0.0
H902 H 0.77785 0.81112 0.47044 0.0
H903 H 0.76635 0.91705 0.51057 0.0
H904 H 0.77233 0.86389 0.42005 0.0
H905 H 0.78821 0.87368 0.55625 0.0
C906 C 0.79218 0.84494 0.55182 0.0
C907 C 0.78962 0.82715 0.52787 0.0
C908 C 0.77073 0.87534 0.44 0.0
C909 C 0.77705 0.85713 0.49894 0.0
C910 C 0.76857 0.89269 0.4239 0.0
C911 C 0.76724 0.90823 0.44894 0.0
C912 C 0.77203 0.87376 0.48146 0.0
C913 C 0.7673 0.90537 0.49028 0.0
C914 C 0.78577 0.85986 0.53759 0.0
C915 C 0.78022 0.82464 0.48986 0.0
N916 N 0.77004 0.88864 0.50533 0.0
N917 N 0.77449 0.83961 0.47642 0.0
H918 H 0.07971 0.84913 0.51694 0.0
H919 H 0.18318 0.96971 0.46875 0.0
H920 H 0.09311 0.87852 0.39964 0.0
H921 H 0.15219 0.95188 0.58476 0.0
H922 H 0.15491 0.93312 0.44362 0.0
H923 H 0.11127 0.88374 0.54292 0.0
C924 C 0.08945 0.86275 0.49662 0.0
C925 C 0.08373 0.86108 0.45617 0.0
C926 C 0.15439 0.93724 0.4746 0.0
C927 C 0.11971 0.9004 0.48549 0.0
C928 C 0.17051 0.95807 0.48897 0.0
C929 C 0.16989 0.9639 0.5288 0.0
C930 C 0.13777 0.92204 0.50039 0.0
C931 C 0.15312 0.94814 0.55373 0.0
C932 C 0.10732 0.88248 0.51147 0.0
C933 C 0.09683 0.87922 0.4311 0.0
N934 N 0.13771 0.92788 0.53911 0.0
N935 N 0.11423 0.89813 0.44617 0.0
H936 H 0.82954 0.97039 0.06049 0.0
H937 H 0.752 0.84932 0.97388 0.0
H938 H 0.76559 0.9528 0.00928 0.0
H939 H 0.82307 0.88516 0.95292 0.0
H940 H 0.7548 0.88384 0.0004 0.0
H941 H 0.82553 0.93534 0.03497 0.0
C942 C 0.8146 0.95907 0.04412 0.0
C943 C 0.79791 0.96447 0.03676 0.0
C944 C 0.7697 0.88402 -0.01011 0.0
C945 C 0.79312 0.92442 0.00827 0.0
C946 C 0.76815 0.86442 0.97497 0.0
C947 C 0.78733 0.86451 0.96109 0.0
C948 C 0.79064 0.90351 -0.00807 0.0
C949 C 0.80787 0.88447 0.96304 0.0
C950 C 0.81239 0.9392 0.02948 0.0
C951 C 0.7789 0.94927 0.01527 0.0
N952 N 0.80903 0.90314 0.97858 0.0
N953 N 0.77691 0.92977 0.00198 0.0
H954 H 0.14194 0.91504 0.01084 0.0
H955 H 0.02161 0.8091 0.97284 0.0
H956 H 0.10914 0.90042 0.89638 0.0
H957 H 0.04253 0.84094 0.08784 0.0
H958 H 0.05664 0.83835 0.94421 0.0
H959 H 0.10848 0.88339 0.03938 0.0
C960 C 0.12781 0.90503 -0.00836 0.0
C961 C 0.12824 0.91042 0.95124 0.0
C962 C 0.05353 0.83887 0.97571 0.0
C963 C 0.09012 0.87429 0.98359 0.0
C964 C 0.03361 0.82218 -0.00791 0.0
C965 C 0.02911 0.82269 0.03273 0.0
C966 C 0.06921 0.85594 0.00027 0.0
C967 C 0.04525 0.84004 0.05629 0.0
C968 C 0.10872 0.8871 0.00798 0.0
C969 C 0.10944 0.89694 0.92774 0.0
N970 N 0.06464 0.85596 0.03973 0.0
N971 N 0.09113 0.87946 0.94426 0.0
H972 H 0.18027 0.20892 0.96495 0.0
H973 H 0.07902 0.23088 0.00508 0.0
H974 H 0.153 0.20563 0.0821 0.0
H975 H 0.08784 0.20485 0.89381 0.0
H976 H 0.11164 0.23026 0.03195 0.0
H977 H 0.15174 0.21603 0.93679 0.0
C978 C 0.16844 0.20993 0.98477 0.0
C979 C 0.16885 0.20648 0.02587 0.0
C980 C 0.10648 0.22485 0.00157 0.0
C981 C 0.13643 0.21477 -0.00605 0.0
C982 C 0.08796 0.22528 0.98617 0.0
C983 C 0.08063 0.21771 0.94728 0.0
C984 C 0.11791 0.21716 0.97766 0.0
C985 C 0.09281 0.21061 0.92409 0.0
C986 C 0.15215 0.2139 0.96867 0.0
C987 C 0.15312 0.20796 0.0502 0.0
N988 N 0.11087 0.21049 0.93964 0.0
N989 N 0.13753 0.21199 0.03386 0.0
H990 H 0.97215 0.78947 0.51588 0.0
H991 H 0.85272 0.77451 0.46876 0.0
H992 H 0.9544 0.80048 0.39821 0.0
H993 H 0.88492 0.79702 0.58307 0.0
H994 H 0.88692 0.77673 0.44258 0.0
H995 H 0.93691 0.78483 0.54128 0.0
C996 C 0.96078 0.79078 0.49535 0.0
C997 C 0.96623 0.79548 0.45491 0.0
C998 C 0.8864 0.78113 0.47339 0.0
C999 C 0.92591 0.78996 0.48371 0.0
C1000 C 0.86692 0.77977 0.48838 0.0
C1001 C 0.86607 0.78569 0.52808 0.0
C1002 C 0.9049 0.78798 0.49855 0.0
C1003 C 0.88494 0.79247 0.5522 0.0
C1004 C 0.94076 0.78822 0.5099 0.0
C1005 C 0.9509 0.79704 0.42965 0.0
N1006 N 0.90357 0.79332 0.53711 0.0
N1007 N 0.93134 0.79419 0.44444 0.0
H1008 H 0.19747 0.15204 0.39658 0.0
H1009 H 0.20201 0.08832 0.58914 0.0
H1010 H 0.20625 0.18041 0.51436 0.0
H1011 H 0.22455 0.07916 0.47442 0.0
H1012 H 0.19911 0.11957 0.56185 0.0
H1013 H 0.20283 0.12228 0.42415 0.0
C1014 C 0.20048 0.15198 0.42824 0.0
C1015 C 0.20139 0.16869 0.45326 0.0
C1016 C 0.20482 0.11078 0.54278 0.0
C1017 C 0.20734 0.1347 0.48486 0.0
C1018 C 0.20641 0.09293 0.55824 0.0
C1019 C 0.21353 0.08115 0.53396 0.0
C1020 C 0.20994 0.11659 0.50257 0.0
C1021 C 0.21909 0.08787 0.49418 0.0
C1022 C 0.20365 0.13509 0.44385 0.0
C1023 C 0.20547 0.16788 0.49401 0.0
N1024 N 0.21695 0.10503 0.47957 0.0
N1025 N 0.20811 0.15104 0.50863 0.0
H1026 H 0.89711 0.14078 0.49926 0.0
H1027 H 0.8505 0.01792 0.41781 0.0
H1028 H 0.931 0.10376 0.52172 0.0
H1029 H 0.80582 0.03885 0.46511 0.0
H1030 H 0.88229 0.05285 0.44185 0.0
H1031 H 0.86507 0.10656 0.4729 0.0
C1032 C 0.89782 0.12549 0.49846 0.0
C1033 C 0.91662 0.12499 0.51279 0.0
C1034 C 0.8655 0.04975 0.4468 0.0
C1035 C 0.88051 0.08626 0.48219 0.0
C1036 C 0.84741 0.02994 0.43298 0.0
C1037 C 0.82555 0.02552 0.43969 0.0
C1038 C 0.86168 0.06542 0.46654 0.0
C1039 C 0.82244 0.04161 0.45964 0.0
C1040 C 0.87958 0.10605 0.48363 0.0
C1041 C 0.91674 0.10478 0.51123 0.0
N1042 N 0.84035 0.06099 0.47217 0.0
N1043 N 0.89901 0.08623 0.49585 0.0
H1044 H 0.89639 0.48442 0.30607 0.0
H1045 H 0.88013 0.36368 0.35061 0.0
H1046 H 0.87973 0.45377 0.42235 0.0
H1047 H 0.86909 0.38349 0.23479 0.0
H1048 H 0.88838 0.40004 0.37713 0.0
H1049 H 0.89494 0.45069 0.27942 0.0
C1050 C 0.89272 0.47073 0.32607 0.0
C1051 C 0.88797 0.47178 0.36639 0.0
C1052 C 0.88427 0.39642 0.34588 0.0
C1053 C 0.88641 0.43338 0.33622 0.0
C1054 C 0.87962 0.37573 0.3307 0.0
C1055 C 0.8737 0.3705 0.29053 0.0
C1056 C 0.88332 0.41205 0.32055 0.0
C1057 C 0.87334 0.38676 0.26605 0.0
C1058 C 0.89179 0.45149 0.31082 0.0
C1059 C 0.88327 0.45355 0.39099 0.0
N1060 N 0.87807 0.40682 0.28145 0.0
N1061 N 0.88258 0.43507 0.3755 0.0
H1062 H 0.63412 0.51243 0.35184 0.0
H1063 H 0.51186 0.41108 0.30575 0.0
H1064 H 0.61149 0.48677 0.23334 0.0
H1065 H 0.54516 0.4185 0.4182 0.0
H1066 H 0.54546 0.44394 0.2807 0.0
H1067 H 0.59845 0.48297 0.37849 0.0
C1068 C 0.62157 0.50076 0.33143 0.0
C1069 C 0.6258 0.5019 0.29037 0.0
C1070 C 0.54531 0.43839 0.31091 0.0
C1071 C 0.5851 0.46845 0.32053 0.0
C1072 C 0.52616 0.41973 0.32527 0.0
C1073 C 0.52581 0.41196 0.364 0.0
C1074 C 0.56408 0.44956 0.33567 0.0
C1075 C 0.54481 0.4238 0.38801 0.0
C1076 C 0.60132 0.48393 0.34666 0.0
C1077 C 0.60899 0.48634 0.26523 0.0
N1078 N 0.5632 0.44205 0.37346 0.0
N1079 N 0.58936 0.47025 0.28072 0.0
H1080 H 0.47424 0.09316 0.30716 0.0
H1081 H 0.59599 0.15034 0.39283 0.0
H1082 H 0.52323 0.16046 0.27419 0.0
H1083 H 0.56708 0.08345 0.34582 0.0
H1084 H 0.56514 0.15337 0.36396 0.0
H1085 H 0.50435 0.08817 0.33535 0.0
C1086 C 0.4913 0.10685 0.30597 0.0
C1087 C 0.49637 0.12724 0.28837 0.0
C1088 C 0.56556 0.13802 0.36017 0.0
C1089 C 0.53038 0.1218 0.321 0.0
C1090 C 0.58301 0.13621 0.37675 0.0
C1091 C 0.58403 0.11661 0.37158 0.0
C1092 C 0.54872 0.11992 0.3392 0.0
C1093 C 0.56689 0.09886 0.35023 0.0
C1094 C 0.50837 0.10394 0.32178 0.0
C1095 C 0.51869 0.14445 0.28733 0.0
N1096 N 0.54972 0.10084 0.33502 0.0
N1097 N 0.53488 0.14145 0.30392 0.0
H1098 H 0.81036 0.55805 0.84162 0.0
H1099 H 0.6908 0.54393 0.79736 0.0
H1100 H 0.77851 0.53792 0.72656 0.0
H1101 H 0.70987 0.53276 0.91376 0.0
H1102 H 0.72607 0.54921 0.77055 0.0
H1103 H 0.77655 0.55638 0.86816 0.0
C1104 C 0.79633 0.55347 0.82187 0.0
C1105 C 0.79715 0.54799 0.78189 0.0
C1106 C 0.72249 0.54565 0.80196 0.0
C1107 C 0.75868 0.54624 0.81194 0.0
C1108 C 0.70245 0.54272 0.8173 0.0
C1109 C 0.69737 0.53776 0.85779 0.0
C1110 C 0.73768 0.54402 0.82745 0.0
C1111 C 0.71305 0.53636 0.8823 0.0
C1112 C 0.77706 0.55242 0.83709 0.0
C1113 C 0.77849 0.5421 0.75764 0.0
N1114 N 0.73257 0.53955 0.86676 0.0
N1115 N 0.76 0.54144 0.77303 0.0
H1116 H 0.45507 0.15152 0.78828 0.0
H1117 H 0.43601 0.25342 0.83821 0.0
H1118 H 0.46474 0.18001 0.9061 0.0
H1119 H 0.45869 0.24522 0.7229 0.0
H1120 H 0.43868 0.22149 0.86276 0.0
H1121 H 0.44868 0.18111 0.76302 0.0
C1122 C 0.45571 0.16391 0.80884 0.0
C1123 C 0.46058 0.16343 0.84928 0.0
C1124 C 0.44296 0.22667 0.83206 0.0
C1125 C 0.45303 0.19698 0.82074 0.0
C1126 C 0.44135 0.24478 0.81798 0.0
C1127 C 0.44727 0.25203 0.77854 0.0
C1128 C 0.45014 0.21552 0.8063 0.0
C1129 C 0.45414 0.24027 0.75362 0.0
C1130 C 0.45215 0.18078 0.7944 0.0
C1131 C 0.46123 0.1799 0.87464 0.0
N1132 N 0.45533 0.22253 0.76789 0.0
N1133 N 0.45741 0.19598 0.85998 0.0
H1134 H 0.75398 0.20778 0.7164 0.0
H1135 H 0.81369 0.27928 0.90818 0.0
H1136 H 0.74391 0.1781 0.83311 0.0
H1137 H 0.84362 0.2985 0.79154 0.0
H1138 H 0.78571 0.24318 0.88097 0.0
H1139 H 0.78505 0.24237 0.74296 0.0
C1140 C 0.75841 0.2085 0.74754 0.0
C1141 C 0.74633 0.1901 0.77266 0.0
C1142 C 0.79849 0.25526 0.86143 0.0
C1143 C 0.78152 0.2296 0.80319 0.0
C1144 C 0.81436 0.2759 0.87684 0.0
C1145 C 0.83093 0.29191 0.85201 0.0
C1146 C 0.79895 0.25079 0.82077 0.0
C1147 C 0.83113 0.2866 0.8117 0.0
C1148 C 0.77615 0.22819 0.7626 0.0
C1149 C 0.75281 0.19189 0.81271 0.0
N1150 N 0.81521 0.26653 0.7972 0.0
N1151 N 0.76982 0.21142 0.82689 0.0
H1152 H 0.43598 0.18026 0.34048 0.0
H1153 H 0.44932 0.29964 0.29561 0.0
H1154 H 0.45333 0.21116 0.22445 0.0
H1155 H 0.46225 0.28144 0.41143 0.0
H1156 H 0.44292 0.26386 0.26931 0.0
H1157 H 0.4376 0.21409 0.36718 0.0
C1158 C 0.43987 0.19404 0.32056 0.0
C1159 C 0.44468 0.193 0.28027 0.0
C1160 C 0.44709 0.26772 0.3005 0.0
C1161 C 0.44638 0.23147 0.31046 0.0
C1162 C 0.45068 0.28807 0.31555 0.0
C1163 C 0.4565 0.29357 0.35569 0.0
C1164 C 0.44895 0.25264 0.32592 0.0
C1165 C 0.45802 0.27795 0.3802 0.0
C1166 C 0.44091 0.21333 0.33584 0.0
C1167 C 0.4497 0.21136 0.25578 0.0
N1168 N 0.45422 0.25814 0.36494 0.0
N1169 N 0.4504 0.22984 0.27125 0.0
H1170 H 0.8138 0.23416 0.30169 0.0
H1171 H 0.69494 0.1907 0.39577 0.0
H1172 H 0.77672 0.26815 0.28098 0.0
H1173 H 0.71012 0.1437 0.33949 0.0
H1174 H 0.72942 0.22141 0.36818 0.0
H1175 H 0.77982 0.20233 0.32941 0.0
C1176 C 0.79854 0.23491 0.30307 0.0
C1177 C 0.79794 0.2537 0.28898 0.0
C1178 C 0.72518 0.20435 0.36207 0.0
C1179 C 0.7596 0.21791 0.32119 0.0
C1180 C 0.70565 0.18686 0.37791 0.0
C1181 C 0.69972 0.16469 0.36972 0.0
C1182 C 0.73914 0.19961 0.33881 0.0
C1183 C 0.7141 0.16061 0.34621 0.0
C1184 C 0.77926 0.21679 0.31865 0.0
C1185 C 0.7778 0.25389 0.29129 0.0
N1186 N 0.73334 0.17797 0.33176 0.0
N1187 N 0.75946 0.23636 0.30755 0.0
H1188 H 0.85314 0.56689 0.33659 0.0
H1189 H 0.72716 0.50669 0.26916 0.0
H1190 H 0.80578 0.50079 0.37815 0.0
H1191 H 0.76112 0.57658 0.30049 0.0
H1192 H 0.75869 0.50399 0.29577 0.0
H1193 H 0.82202 0.57064 0.31018 0.0
C1194 C 0.83621 0.55318 0.34002 0.0
C1195 C 0.83193 0.53351 0.35958 0.0
C1196 C 0.75919 0.51989 0.2967 0.0
C1197 C 0.79665 0.53756 0.32899 0.0
C1198 C 0.74133 0.52149 0.28138 0.0
C1199 C 0.74158 0.54189 0.28275 0.0
C1200 C 0.77763 0.53893 0.31254 0.0
C1201 C 0.76028 0.56053 0.29912 0.0
C1202 C 0.81856 0.55539 0.32518 0.0
C1203 C 0.80973 0.51627 0.36345 0.0
N1204 N 0.77773 0.55867 0.31312 0.0
N1205 N 0.7929 0.51858 0.34787 0.0
H1206 H 0.63611 0.11808 0.8429 0.0
H1207 H 0.51678 0.10374 0.79546 0.0
H1208 H 0.61689 0.12629 0.72455 0.0
H1209 H 0.54927 0.12671 0.90945 0.0
H1210 H 0.55043 0.10466 0.76982 0.0
H1211 H 0.6011 0.11393 0.86865 0.0
C1212 C 0.62447 0.11887 0.82231 0.0
C1213 C 0.62944 0.12267 0.78156 0.0
C1214 C 0.55009 0.10942 0.80046 0.0
C1215 C 0.58941 0.11771 0.81075 0.0
C1216 C 0.53092 0.10881 0.81515 0.0
C1217 C 0.53032 0.11527 0.85457 0.0
C1218 C 0.56858 0.11614 0.8256 0.0
C1219 C 0.54911 0.12176 0.87878 0.0
C1220 C 0.60457 0.11659 0.83705 0.0
C1221 C 0.61378 0.12358 0.75622 0.0
N1222 N 0.56748 0.12195 0.86394 0.0
N1223 N 0.59439 0.12103 0.77122 0.0
H1224 H 0.86006 0.48138 0.72674 0.0
H1225 H 0.86525 0.41659 0.91669 0.0
H1226 H 0.87061 0.50959 0.84494 0.0
H1227 H 0.88689 0.4074 0.80112 0.0
H1228 H 0.86311 0.44846 0.89048 0.0
H1229 H 0.8658 0.45156 0.75288 0.0
C1230 C 0.86359 0.4813 0.75816 0.0
C1231 C 0.86481 0.49793 0.78376 0.0
C1232 C 0.86848 0.43954 0.87098 0.0
C1233 C 0.87115 0.46387 0.81373 0.0
C1234 C 0.86962 0.42133 0.88583 0.0
C1235 C 0.87622 0.40935 0.86098 0.0
C1236 C 0.87353 0.4455 0.83081 0.0
C1237 C 0.8818 0.41626 0.82129 0.0
C1238 C 0.86698 0.46438 0.77296 0.0
C1239 C 0.86956 0.49712 0.82416 0.0
N1240 N 0.88008 0.43376 0.80725 0.0
N1241 N 0.87234 0.48022 0.838 0.0
H1242 H 0.58247 0.48361 0.80676 0.0
H1243 H 0.48008 0.36191 0.84989 0.0
H1244 H 0.57227 0.45128 0.92096 0.0
H1245 H 0.50986 0.38257 0.73341 0.0
H1246 H 0.50903 0.39766 0.87709 0.0
H1247 H 0.55074 0.44949 0.78015 0.0
C1248 C 0.57341 0.46943 0.82633 0.0
C1249 C 0.58006 0.47019 0.86605 0.0
C1250 C 0.50913 0.39433 0.84557 0.0
C1251 C 0.54381 0.43135 0.83592 0.0
C1252 C 0.49261 0.37402 0.83001 0.0
C1253 C 0.49269 0.36924 0.78939 0.0
C1254 C 0.52554 0.41009 0.82018 0.0
C1255 C 0.50933 0.38551 0.76497 0.0
C1256 C 0.55542 0.44998 0.81108 0.0
C1257 C 0.56779 0.45132 0.89007 0.0
N1258 N 0.52507 0.40527 0.78073 0.0
N1259 N 0.5502 0.43264 0.87464 0.0
H1260 H 0.54067 0.71637 0.54336 0.0
H1261 H 0.54691 0.78288 0.73928 0.0
H1262 H 0.54818 0.69494 0.66021 0.0
H1263 H 0.56549 0.81493 0.62433 0.0
H1264 H 0.54584 0.74989 0.71065 0.0
H1265 H 0.54818 0.75202 0.57194 0.0
C1266 C 0.54398 0.71919 0.575 0.0
C1267 C 0.54364 0.70259 0.59952 0.0
C1268 C 0.55037 0.76421 0.69177 0.0
C1269 C 0.55209 0.74325 0.63232 0.0
C1270 C 0.55091 0.78302 0.70803 0.0
C1271 C 0.55617 0.8016 0.68405 0.0
C1272 C 0.55471 0.76381 0.65105 0.0
C1273 C 0.56137 0.80094 0.64384 0.0
C1274 C 0.54838 0.73958 0.59121 0.0
C1275 C 0.54823 0.70723 0.64023 0.0
N1276 N 0.56021 0.78219 0.62842 0.0
N1277 N 0.55201 0.72704 0.65544 0.0
H1278 H 0.21274 0.7589 0.74742 0.0
H1279 H 0.28512 0.81711 0.55584 0.0
H1280 H 0.18364 0.74492 0.62981 0.0
H1281 H 0.30234 0.8478 0.67224 0.0
H1282 H 0.24881 0.78884 0.582 0.0
H1283 H 0.24677 0.79012 0.72025 0.0
C1284 C 0.21349 0.7625 0.71587 0.0
C1285 C 0.19541 0.74928 0.69075 0.0
C1286 C 0.2605 0.80188 0.60166 0.0
C1287 C 0.23439 0.78478 0.65945 0.0
C1288 C 0.28126 0.81792 0.58687 0.0
C1289 C 0.29682 0.83475 0.61199 0.0
C1290 C 0.25546 0.80247 0.64198 0.0
C1291 C 0.29087 0.83511 0.65184 0.0
C1292 C 0.23288 0.78036 0.70044 0.0
C1293 C 0.19721 0.75476 0.65017 0.0
N1294 N 0.27074 0.81906 0.66571 0.0
N1295 N 0.21651 0.77196 0.63562 0.0
H1296 H 0.24166 0.45601 0.75508 0.0
H1297 H 0.17718 0.46113 0.56569 0.0
H1298 H 0.25211 0.43602 0.63888 0.0
H1299 H 0.14858 0.45054 0.68347 0.0
H1300 H 0.20607 0.454 0.59169 0.0
H1301 H 0.20847 0.45588 0.72963 0.0
C1302 C 0.23684 0.45139 0.7243 0.0
C1303 C 0.24969 0.44614 0.69895 0.0
C1304 C 0.19333 0.45303 0.61172 0.0
C1305 C 0.21203 0.44631 0.6696 0.0
C1306 C 0.17694 0.45722 0.59699 0.0
C1307 C 0.16056 0.45656 0.62254 0.0
C1308 C 0.1936 0.4486 0.65243 0.0
C1309 C 0.16091 0.45124 0.66277 0.0
C1310 C 0.21788 0.45126 0.70986 0.0
C1311 C 0.24265 0.44016 0.6594 0.0
N1312 N 0.17738 0.44774 0.67661 0.0
N1313 N 0.22445 0.44075 0.64573 0.0
H1314 H 0.35844 0.87627 0.12554 0.0
H1315 H 0.48075 0.89721 0.16755 0.0
H1316 H 0.37935 0.86725 0.24184 0.0
H1317 H 0.44793 0.87373 0.05396 0.0
H1318 H 0.44634 0.89404 0.19456 0.0
H1319 H 0.39409 0.88295 0.09811 0.0
C1320 C 0.37057 0.87581 0.14532 0.0
C1321 C 0.36591 0.87107 0.18596 0.0
C1322 C 0.44678 0.8897 0.16369 0.0
C1323 C 0.40667 0.87897 0.15493 0.0
C1324 C 0.46639 0.89162 0.14821 0.0
C1325 C 0.46711 0.88561 0.10853 0.0
C1326 C 0.42797 0.88214 0.13909 0.0
C1327 C 0.44801 0.87836 0.0848 0.0
C1328 C 0.39083 0.87955 0.12963 0.0
C1329 C 0.38221 0.87065 0.21026 0.0
N1330 N 0.4292 0.87689 0.10042 0.0
N1331 N 0.40194 0.87465 0.19439 0.0
H1332 H 0.12317 0.57628 0.05398 0.0
H1333 H 0.12615 0.51254 0.24723 0.0
H1334 H 0.09997 0.58535 0.16812 0.0
H1335 H 0.11795 0.48362 0.13006 0.0
H1336 H 0.12051 0.54189 0.21881 0.0
H1337 H 0.12499 0.54439 0.0812 0.0
C1338 C 0.11835 0.57149 0.08469 0.0
C1339 C 0.11146 0.5835 0.10889 0.0
C1340 C 0.11983 0.52905 0.1994 0.0
C1341 C 0.11383 0.54736 0.14019 0.0
C1342 C 0.12318 0.51238 0.21552 0.0
C1343 C 0.12256 0.49567 0.19092 0.0
C1344 C 0.11629 0.52925 0.1583 0.0
C1345 C 0.1185 0.49618 0.15007 0.0
C1346 C 0.11933 0.55328 0.10011 0.0
C1347 C 0.10533 0.57652 0.14841 0.0
N1348 N 0.11574 0.51286 0.13492 0.0
N1349 N 0.10691 0.55906 0.16299 0.0
H1350 H 0.47448 0.64554 0.23181 0.0
H1351 H 0.42749 0.52229 0.15105 0.0
H1352 H 0.51828 0.62517 0.17841 0.0
H1353 H 0.39217 0.55829 0.13286 0.0
H1354 H 0.45956 0.55675 0.17668 0.0
H1355 H 0.44229 0.60994 0.21111 0.0
C1356 C 0.4773 0.6335 0.21603 0.0
C1357 C 0.49899 0.63828 0.20652 0.0
C1358 C 0.4447 0.55696 0.16717 0.0
C1359 C 0.46248 0.59765 0.1836 0.0
C1360 C 0.42644 0.53739 0.15278 0.0
C1361 C 0.40729 0.53758 0.13967 0.0
C1362 C 0.44343 0.57655 0.16942 0.0
C1363 C 0.40674 0.55754 0.14237 0.0
C1364 C 0.45899 0.61331 0.20416 0.0
C1365 C 0.50177 0.62215 0.18594 0.0
N1366 N 0.42451 0.57624 0.15722 0.0
N1367 N 0.48368 0.60243 0.17533 0.0
H1368 H 0.1221 0.63724 0.63233 0.0
H1369 H 0.10683 0.51783 0.68134 0.0
H1370 H 0.13404 0.62015 0.74987 0.0
H1371 H 0.12783 0.54883 0.56588 0.0
H1372 H 0.10944 0.55232 0.70695 0.0
H1373 H 0.11675 0.60162 0.60741 0.0
C1374 C 0.12346 0.62594 0.65293 0.0
C1375 C 0.12864 0.63169 0.69318 0.0
C1376 C 0.11341 0.55146 0.67602 0.0
C1377 C 0.12231 0.59094 0.66495 0.0
C1378 C 0.11183 0.53182 0.66135 0.0
C1379 C 0.11723 0.53055 0.62149 0.0
C1380 C 0.11997 0.56972 0.65039 0.0
C1381 C 0.12369 0.54918 0.59688 0.0
C1382 C 0.1205 0.6057 0.63865 0.0
C1383 C 0.13025 0.61643 0.71855 0.0
N1384 N 0.12478 0.56797 0.61168 0.0
N1385 N 0.127 0.59666 0.70404 0.0
H1386 H 0.35951 0.52836 0.68344 0.0
H1387 H 0.48156 0.56758 0.61114 0.0
H1388 H 0.37856 0.47948 0.65344 0.0
H1389 H 0.4462 0.60064 0.571 0.0
H1390 H 0.44621 0.53674 0.63653 0.0
H1391 H 0.39379 0.55729 0.65202 0.0
C1392 C 0.37092 0.52375 0.67018 0.0
C1393 C 0.36627 0.50157 0.67089 0.0
C1394 C 0.44628 0.55072 0.62186 0.0
C1395 C 0.4055 0.5345 0.63578 0.0
C1396 C 0.46637 0.5683 0.6076 0.0
C1397 C 0.46673 0.58663 0.58898 0.0
C1398 C 0.42667 0.55187 0.6184 0.0
C1399 C 0.4466 0.58676 0.585 0.0
C1400 C 0.39036 0.5402 0.65217 0.0
C1401 C 0.38154 0.49641 0.65322 0.0
N1402 N 0.42741 0.56977 0.6001 0.0
N1403 N 0.4007 0.51286 0.63676 0.0
H1404 H 0.422 0.86874 0.55174 0.0
H1405 H 0.48362 0.85843 0.74236 0.0
H1406 H 0.41111 0.8875 0.66875 0.0
H1407 H 0.51403 0.87248 0.62581 0.0
H1408 H 0.45393 0.86433 0.71595 0.0
H1409 H 0.45317 0.86545 0.57835 0.0
C1410 C 0.42621 0.87222 0.58301 0.0
C1411 C 0.41398 0.8784 0.60812 0.0
C1412 C 0.46718 0.86619 0.69629 0.0
C1413 C 0.44931 0.87434 0.63872 0.0
C1414 C 0.48402 0.86271 0.71123 0.0
C1415 C 0.50127 0.86495 0.6862 0.0
C1416 C 0.46738 0.87148 0.65589 0.0
C1417 C 0.50107 0.87066 0.64615 0.0
C1418 C 0.44402 0.87041 0.59809 0.0
C1419 C 0.42019 0.88278 0.64836 0.0
N1420 N 0.48426 0.87353 0.63212 0.0
N1421 N 0.4373 0.88044 0.66256 0.0
H1422 H 0.20741 0.45667 0.26351 0.0
H1423 H 0.27814 0.4607 0.0764 0.0
H1424 H 0.17732 0.43267 0.14809 0.0
H1425 H 0.29818 0.45549 0.19581 0.0
H1426 H 0.2416 0.45209 0.10189 0.0
H1427 H 0.24147 0.45801 0.23951 0.0
C1428 C 0.20793 0.45155 0.2332 0.0
C1429 C 0.18959 0.4447 0.20764 0.0
C1430 C 0.25391 0.45259 0.12244 0.0
C1431 C 0.22849 0.44642 0.18 0.0
C1432 C 0.27479 0.45761 0.10798 0.0
C1433 C 0.29123 0.45895 0.13412 0.0
C1434 C 0.2496 0.44935 0.16345 0.0
C1435 C 0.28595 0.45462 0.17468 0.0
C1436 C 0.22731 0.45221 0.21963 0.0
C1437 C 0.19109 0.43808 0.16876 0.0
N1438 N 0.26565 0.45032 0.18824 0.0
N1439 N 0.21035 0.4394 0.15593 0.0
H1440 H 0.54909 0.85643 0.17532 0.0
H1441 H 0.56073 0.7489 0.134 0.0
H1442 H 0.53231 0.82163 0.06259 0.0
H1443 H 0.55126 0.76825 0.25153 0.0
H1444 H 0.55787 0.78008 0.10599 0.0
H1445 H 0.55722 0.8284 0.20232 0.0
C1446 C 0.54722 0.84297 0.15619 0.0
C1447 C 0.53983 0.84124 0.11674 0.0
C1448 C 0.55657 0.77753 0.13792 0.0
C1449 C 0.54932 0.80936 0.1473 0.0
C1450 C 0.55832 0.75986 0.15394 0.0
C1451 C 0.55605 0.7559 0.19511 0.0
C1452 C 0.55286 0.79149 0.16335 0.0
C1453 C 0.55289 0.77058 0.21958 0.0
C1454 C 0.55182 0.82699 0.17165 0.0
C1455 C 0.53774 0.82347 0.09328 0.0
N1456 N 0.55137 0.78773 0.20331 0.0
N1457 N 0.54249 0.80822 0.10892 0.0
H1458 H 0.14819 0.69349 0.18137 0.0
H1459 H 0.25062 0.8149 0.13764 0.0
H1460 H 0.17746 0.71401 0.06451 0.0
H1461 H 0.24153 0.78242 0.25141 0.0
H1462 H 0.21884 0.78073 0.11137 0.0
H1463 H 0.17775 0.72895 0.20851 0.0
C1464 C 0.16076 0.70549 0.16141 0.0
C1465 C 0.16049 0.70078 0.12068 0.0
C1466 C 0.22379 0.78118 0.14212 0.0
C1467 C 0.194 0.74131 0.15139 0.0
C1468 C 0.2418 0.80067 0.15719 0.0
C1469 C 0.24877 0.80142 0.19669 0.0
C1470 C 0.21244 0.76251 0.16694 0.0
C1471 C 0.23679 0.78247 0.22069 0.0
C1472 C 0.17761 0.72564 0.17694 0.0
C1473 C 0.17718 0.71691 0.09615 0.0
N1474 N 0.21915 0.76376 0.20545 0.0
N1475 N 0.19323 0.73652 0.11187 0.0
H1476 H 0.25726 0.25748 0.12548 0.0
H1477 H 0.26325 0.25052 0.35807 0.0
H1478 H 0.25832 0.20518 0.19337 0.0
H1479 H 0.22279 0.27066 0.29237 0.0
H1480 H 0.28456 0.25441 0.29734 0.0
H1481 H 0.26815 0.28086 0.18553 0.0
C1482 C 0.26091 0.25138 0.15254 0.0
C1483 C 0.25637 0.22926 0.15512 0.0
C1484 C 0.27185 0.2592 0.29682 0.0
C1485 C 0.26898 0.2558 0.22305 0.0
C1486 C 0.25975 0.25708 0.33144 0.0
C1487 C 0.241 0.25978 0.3296 0.0
C1488 C 0.26507 0.26419 0.26073 0.0
C1489 C 0.23695 0.26806 0.29451 0.0
C1490 C 0.26711 0.26471 0.18667 0.0
C1491 C 0.26122 0.22203 0.19066 0.0
N1492 N 0.2486 0.26952 0.26104 0.0
N1493 N 0.2669 0.23515 0.22357 0.0
H1494 H 0.73305 0.99077 0.12135 0.0
H1495 H 0.73355 -0.00148 0.35395 0.0
H1496 H 0.77822 0.04647 0.19437 0.0
H1497 H 0.72417 0.94233 0.28354 0.0
H1498 H 0.72691 0.01483 0.29443 0.0
H1499 H 0.70832 0.97451 0.17897 0.0
C1500 C 0.73714 0.00015 0.14895 0.0
C1501 C 0.75789 0.01959 0.15381 0.0
C1502 C 0.72509 -0.00164 0.29255 0.0
C1503 C 0.72985 0.00132 0.21903 0.0
C1504 C 0.72885 0.98903 0.32644 0.0
C1505 C 0.73006 0.96946 0.32299 0.0
C1506 C 0.72241 0.98783 0.25555 0.0
C1507 C 0.72391 0.95777 0.2869 0.0
C1508 C 0.72304 0.99087 0.18173 0.0
C1509 C 0.76253 0.03115 0.18996 0.0
N1510 N 0.72079 0.96739 0.2542 0.0
N1511 N 0.7488 0.0216 0.22158 0.0
H1512 H -0.00253 0.73516 0.36353 0.0
H1513 H 0.00669 0.73957 0.13066 0.0
H1514 H 0.05218 0.78397 0.29302 0.0
H1515 H 0.94873 0.72527 0.20036 0.0
H1516 H 0.02388 0.73402 0.19013 0.0
H1517 H 0.98271 0.7113 0.30443 0.0
C1518 C 0.007 0.7403 0.33611 0.0
C1519 C 0.02564 0.76173 0.33248 0.0
C1520 C 0.00691 0.73088 0.19182 0.0
C1521 C 0.0091 0.73466 0.26558 0.0
C1522 C 0.99708 0.734 0.15796 0.0
C1523 C 0.97659 0.73341 0.16126 0.0
C1524 C 0.99596 0.72703 0.22864 0.0
C1525 C 0.9648 0.72628 0.19711 0.0
C1526 C -0.00143 0.72669 0.30249 0.0
C1527 C 0.03742 0.76771 0.29651 0.0
N1528 N 0.97486 0.7238 0.2298 0.0
N1529 N 0.0287 0.75441 0.26408 0.0
H1530 H 0.74061 0.79005 0.79478 0.0
H1531 H 0.7394 0.74208 0.62485 0.0
H1532 H 0.74703 0.73933 0.85779 0.0
H1533 H 0.79031 0.73858 0.69308 0.0
H1534 H 0.71793 0.73637 0.68623 0.0
H1535 H 0.73266 0.7682 0.73372 0.0
C1536 C 0.73938 0.77381 0.79597 0.0
C1537 C 0.74473 0.76652 0.83089 0.0
C1538 C 0.73331 0.73583 0.68737 0.0
C1539 C 0.73646 0.74183 0.76125 0.0
C1540 C 0.74548 0.73892 0.65242 0.0
C1541 C 0.76684 0.74138 0.65445 0.0
C1542 C 0.74272 0.73514 0.72401 0.0
C1543 C 0.77407 0.73724 0.6907 0.0
C1544 C 0.73468 0.76122 0.76121 0.0
C1545 C 0.74307 0.74547 0.83115 0.0
N1546 N 0.76221 0.73476 0.72436 0.0
N1547 N 0.74003 0.73425 0.79633 0.0
H1548 H 0.25318 0.99366 0.62583 0.0
H1549 H 0.25418 0.00216 0.85962 0.0
H1550 H 0.2633 0.05079 0.69406 0.0
H1551 H 0.2069 0.94698 0.78789 0.0
H1552 H 0.27787 0.01819 0.80063 0.0
H1553 H 0.25818 0.9771 0.68667 0.0
C1554 C 0.25776 0.00329 0.65318 0.0
C1555 C 0.25731 0.02329 0.65549 0.0
C1556 C 0.26288 0.00201 0.79838 0.0
C1557 C 0.26309 0.00464 0.72443 0.0
C1558 C 0.24938 0.99285 0.83191 0.0
C1559 C 0.22843 0.97356 0.82802 0.0
C1560 C 0.25535 0.9915 0.7613 0.0
C1561 C 0.22281 0.96214 0.79165 0.0
C1562 C 0.26053 0.99379 0.68782 0.0
C1563 C 0.26314 0.0351 0.69149 0.0
N1564 N 0.23605 0.9715 0.75938 0.0
N1565 N 0.26534 0.02536 0.72491 0.0
H1566 H 0.94176 0.19597 0.68183 0.0
H1567 H 0.98571 0.24677 0.85192 0.0
H1568 H 0.99623 0.24993 0.61879 0.0
H1569 H 0.04286 0.25695 0.78379 0.0
H1570 H 0.96816 0.24959 0.79035 0.0
H1571 H 0.954 0.21801 0.74292 0.0
C1572 C 0.95578 0.21286 0.68065 0.0
C1573 C 0.96824 0.22111 0.64568 0.0
C1574 C 0.98495 0.25219 0.78924 0.0
C1575 C 0.98276 0.24613 0.71535 0.0
C1576 C 0.99503 0.25077 0.82429 0.0
C1577 C 0.01544 0.2511 0.82239 0.0
C1578 C 0.99556 0.25403 0.75262 0.0
C1579 C 0.02687 0.25619 0.78608 0.0
C1580 C 0.9627 0.22555 0.71543 0.0
C1581 C 0.9863 0.24302 0.64545 0.0
N1582 N 0.01656 0.25703 0.75233 0.0
N1583 N 0.99364 0.25447 0.68026 0.0
H1584 H 0.91762 0.59687 0.4592 0.0
H1585 H 0.92447 0.58698 0.69092 0.0
H1586 H 0.93158 0.55102 0.52225 0.0
H1587 H 0.87671 0.59752 0.62638 0.0
H1588 H 0.94733 0.59612 0.63049 0.0
H1589 H 0.92417 0.61838 0.52083 0.0
C1590 C 0.92328 0.59207 0.4855 0.0
C1591 C 0.92358 0.57197 0.48631 0.0
C1592 C 0.93244 0.59757 0.63022 0.0
C1593 C 0.93107 0.59628 0.55612 0.0
C1594 C 0.91942 0.5924 0.66462 0.0
C1595 C 0.89851 0.59098 0.66294 0.0
C1596 C 0.92439 0.60146 0.5945 0.0
C1597 C 0.89258 0.59802 0.62833 0.0
C1598 C 0.92696 0.6043 0.52058 0.0
C1599 C 0.93081 0.56627 0.52094 0.0
N1600 N 0.90527 0.60255 0.59508 0.0
N1601 N 0.93386 0.57814 0.55485 0.0
H1602 H 0.39831 0.32405 0.45488 0.0
H1603 H 0.39548 0.27993 0.62779 0.0
H1604 H 0.44892 0.37966 0.52141 0.0
H1605 H 0.40829 0.3407 0.68604 0.0
H1606 H 0.38674 0.29276 0.56658 0.0
H1607 H 0.37595 0.31014 0.51591 0.0
C1608 C 0.40421 0.33386 0.48195 0.0
C1609 C 0.42568 0.3526 0.48379 0.0
C1610 C 0.39026 0.30289 0.59312 0.0
C1611 C 0.40065 0.33675 0.55305 0.0
C1612 C 0.39535 0.29553 0.62806 0.0
C1613 C 0.4029 0.30949 0.66146 0.0
C1614 C 0.3939 0.32479 0.59134 0.0
C1615 C 0.40266 0.3296 0.66054 0.0
C1616 C 0.39154 0.32584 0.51673 0.0
C1617 C 0.43263 0.36481 0.51928 0.0
N1618 N 0.3992 0.33714 0.62541 0.0
N1619 N 0.42032 0.35642 0.55283 0.0
H1620 H 0.65435 0.0616 0.68883 0.0
H1621 H 0.66841 0.07113 0.45733 0.0
H1622 H 0.71425 0.10511 0.62371 0.0
H1623 H 0.61258 0.06398 0.52606 0.0
H1624 H 0.6818 0.06017 0.51598 0.0
H1625 H 0.63826 0.03973 0.62804 0.0
C1626 C 0.66461 0.06574 0.66231 0.0
C1627 C 0.68533 0.08545 0.66059 0.0
C1628 C 0.66601 0.05987 0.51753 0.0
C1629 C 0.66716 0.06077 0.59164 0.0
C1630 C 0.65837 0.06612 0.48417 0.0
C1631 C 0.63978 0.06903 0.48759 0.0
C1632 C 0.65478 0.05642 0.55397 0.0
C1633 C 0.62732 0.06241 0.5228 0.0
C1634 C 0.6554 0.0533 0.62766 0.0
C1635 C 0.69798 0.09023 0.62571 0.0
N1636 N 0.63528 0.0568 0.55501 0.0
N1637 N 0.68848 0.07825 0.59217 0.0
H1638 H 0.40061 0.11661 0.12223 0.0
H1639 H 0.45314 0.06729 0.01102 0.0
H1640 H 0.41234 0.0681 0.18094 0.0
H1641 H 0.40426 0.07813 0.9514 0.0
H1642 H 0.43137 0.05858 0.07219 0.0
H1643 H 0.39303 0.09555 0.06032 0.0
C1644 C 0.40062 0.10094 0.12234 0.0
C1645 C 0.40742 0.09416 0.15619 0.0
C1646 C 0.42479 0.0619 0.04541 0.0
C1647 C 0.4 0.07067 0.08536 0.0
C1648 C 0.43728 0.06689 0.01052 0.0
C1649 C 0.43059 0.0738 0.97668 0.0
C1650 C 0.40624 0.06505 0.04673 0.0
C1651 C 0.40998 0.07306 0.97725 0.0
C1652 C 0.39629 0.08887 0.08703 0.0
C1653 C 0.4073 0.07386 0.1551 0.0
N1654 N 0.39889 0.06967 0.0123 0.0
N1655 N 0.40453 0.0632 0.11972 0.0
H1656 H 0.87089 0.27781 0.12568 0.0
H1657 H 0.9154 0.32102 0.95255 0.0
H1658 H 0.92315 0.33572 0.1847 0.0
H1659 H 0.92326 0.37765 0.0197 0.0
H1660 H 0.92178 0.30559 0.01371 0.0
H1661 H 0.89191 0.28997 0.06365 0.0
C1662 C 0.88731 0.29259 0.12583 0.0
C1663 C 0.89524 0.30601 0.15986 0.0
C1664 C 0.92306 0.32185 0.01462 0.0
C1665 C 0.91901 0.32049 0.089 0.0
C1666 C 0.91961 0.33074 0.97978 0.0
C1667 C 0.91826 0.35028 0.98169 0.0
C1668 C 0.92518 0.33276 0.05105 0.0
C1669 C 0.92373 0.36227 0.01746 0.0
C1670 C 0.89943 0.29951 0.09048 0.0
C1671 C 0.9165 0.32505 0.15877 0.0
N1672 N 0.92653 0.35308 0.05105 0.0
N1673 N 0.92727 0.33229 0.12336 0.0
H1674 H 0.71567 0.59318 0.12434 0.0
H1675 H 0.61269 0.55092 0.02172 0.0
H1676 H 0.65992 0.58878 0.18943 0.0
H1677 H 0.67271 0.59637 0.95883 0.0
H1678 H 0.62846 0.57226 0.08266 0.0
H1679 H 0.70272 0.60332 0.06465 0.0
C1680 C 0.70116 0.59523 0.12631 0.0
C1681 C 0.68853 0.58972 0.16131 0.0
C1682 C 0.63788 0.57828 0.05526 0.0
C1683 C 0.67302 0.60022 0.09302 0.0
C1684 C 0.6288 0.56606 0.02046 0.0
C1685 C 0.64166 0.57174 0.98572 0.0
C1686 C 0.66031 0.59544 0.05544 0.0
C1687 C 0.66244 0.5914 0.98538 0.0
C1688 C 0.69375 0.60108 0.09229 0.0
C1689 C 0.66991 0.59268 0.16264 0.0
N1690 N 0.67158 0.6021 0.02024 0.0
N1691 N 0.66215 0.59688 0.12845 0.0
H1692 H 0.5946 0.92626 0.01689 0.0
H1693 H 0.59596 0.87592 0.8525 0.0
H1694 H 0.54499 0.92918 0.9436 0.0
H1695 H 0.58882 0.9245 0.78368 0.0
H1696 H 0.60392 0.89936 0.91136 0.0
H1697 H 0.61707 0.93123 0.95715 0.0
C1698 C 0.58899 0.92909 0.98849 0.0
C1699 C 0.5677 0.92667 0.98464 0.0
C1700 C 0.60175 0.90555 0.88307 0.0
C1701 C 0.59294 0.93202 0.91691 0.0
C1702 C 0.59706 0.89204 0.84954 0.0
C1703 C 0.59137 0.8982 0.81367 0.0
C1704 C 0.59965 0.92472 0.88087 0.0
C1705 C 0.59295 0.91917 0.81112 0.0
C1706 C 0.60173 0.93176 0.95448 0.0
C1707 C 0.56113 0.93044 0.94741 0.0
N1708 N 0.59598 0.93129 0.84479 0.0
N1709 N 0.57352 0.93248 0.91471 0.0
H1710 H 0.07766 0.67657 0.02021 0.0
H1711 H 0.07033 0.66308 0.78754 0.0
H1712 H 0.06391 0.61773 0.95371 0.0
H1713 H 0.11945 0.71974 0.85408 0.0
H1714 H 0.04768 0.64896 0.84808 0.0
H1715 H 0.07134 0.69246 0.95968 0.0
C1716 C 0.07208 0.6665 -0.00661 0.0
C1717 C 0.07179 0.64612 -0.00869 0.0
C1718 C 0.06284 0.66507 0.84883 0.0
C1719 C 0.06449 0.66398 0.92277 0.0
C1720 C 0.07575 0.67315 0.81438 0.0
C1721 C 0.09696 0.69223 0.81648 0.0
C1722 C 0.07127 0.67639 0.88502 0.0
C1723 C 0.10334 0.70467 0.85176 0.0
C1724 C 0.06852 0.67558 0.95895 0.0
C1725 C 0.06467 0.63372 0.95603 0.0
N1726 N 0.09072 0.6963 0.88502 0.0
N1727 N 0.0617 0.64305 0.92277 0.0
H1728 H 0.33109 0.41433 0.02577 0.0
H1729 H 0.35555 0.43186 0.79494 0.0
H1730 H 0.38786 0.47003 0.97067 0.0
H1731 H 0.29134 0.4077 0.85022 0.0
H1732 H 0.37043 0.42763 0.85867 0.0
H1733 H 0.32126 0.39494 0.9613 0.0
C1734 C 0.34208 0.42199 0.00053 0.0
C1735 C 0.35999 0.44392 0.00293 0.0
C1736 C 0.35282 0.42221 0.85626 0.0
C1737 C 0.34907 0.42193 0.93002 0.0
C1738 C 0.34433 0.42454 0.82002 0.0
C1739 C 0.32235 0.42033 0.81793 0.0
C1740 C 0.33908 0.41556 0.89011 0.0
C1741 C 0.30845 0.41124 0.85108 0.0
C1742 C 0.33644 0.41095 0.96387 0.0
C1743 C 0.37368 0.45325 0.96957 0.0
N1744 N 0.31717 0.40949 0.8862 0.0
N1745 N 0.36771 0.44233 0.93417 0.0
H1746 H 0.0657 0.45506 0.46423 0.0
H1747 H 0.10645 0.39498 0.35203 0.0
H1748 H 0.07216 0.40327 0.523 0.0
H1749 H 0.06267 0.41376 0.29449 0.0
H1750 H 0.08538 0.38832 0.4136 0.0
H1751 H 0.05461 0.43292 0.40329 0.0
C1752 C 0.06387 0.43856 0.4646 0.0
C1753 C 0.07024 0.43108 0.49809 0.0
C1754 C 0.07963 0.39291 0.38717 0.0
C1755 C 0.05875 0.40618 0.42823 0.0
C1756 C 0.09169 0.39666 0.352 0.0
C1757 C 0.08643 0.40528 0.31871 0.0
C1758 C 0.06309 0.39903 0.38931 0.0
C1759 C 0.06728 0.4073 0.31992 0.0
C1760 C 0.05751 0.42585 0.42984 0.0
C1761 C 0.06759 0.40963 0.49739 0.0
N1762 N 0.05676 0.40508 0.35524 0.0
N1763 N 0.06286 0.39823 0.46241 0.0
H1764 H 0.60487 0.72076 0.35195 0.0
H1765 H 0.54802 0.61443 0.43431 0.0
H1766 H 0.59358 0.66553 0.2768 0.0
H1767 H 0.59757 0.66721 0.50727 0.0
H1768 H 0.57243 0.63006 0.37678 0.0
H1769 H 0.61278 0.7032 0.40752 0.0
C1770 C 0.60502 0.70536 0.34682 0.0
C1771 C 0.5979 0.69417 0.31037 0.0
C1772 C 0.57852 0.63777 0.40562 0.0
C1773 C 0.60569 0.67341 0.37401 0.0
C1774 C 0.5645 0.62881 0.43844 0.0
C1775 C 0.57061 0.63999 0.47502 0.0
C1776 C 0.59808 0.65865 0.40925 0.0
C1777 C 0.59215 0.65841 0.47915 0.0
C1778 C 0.60957 0.69529 0.37852 0.0
C1779 C 0.59857 0.67441 0.3049 0.0
N1780 N 0.60482 0.6678 0.44618 0.0
N1781 N 0.60139 0.66409 0.33695 0.0
H1782 H 0.34005 0.92842 0.28692 0.0
H1783 H 0.32861 0.92173 0.51992 0.0
H1784 H 0.28232 0.88221 0.35447 0.0
H1785 H 0.38525 0.93073 0.45153 0.0
H1786 H 0.31356 0.92983 0.46015 0.0
H1787 H 0.35608 0.95066 0.34747 0.0
C1788 C 0.33022 0.92366 0.31402 0.0
C1789 C 0.31016 0.90328 0.31632 0.0
C1790 C 0.32986 0.93121 0.45884 0.0
C1791 C 0.32818 0.92848 0.38489 0.0
C1792 C 0.33848 0.92665 0.49286 0.0
C1793 C 0.35785 0.92505 0.49002 0.0
C1794 C 0.34093 0.93437 0.42232 0.0
C1795 C 0.37 0.9314 0.45444 0.0
C1796 C 0.33939 0.93632 0.34847 0.0
C1797 C 0.29807 0.89767 0.35195 0.0
N1798 N 0.3611 0.93537 0.4216 0.0
N1799 N 0.30748 0.91 0.38519 0.0
loop_
_geom_bond_atom_site_label_1
_geom_bond_atom_site_label_2
_geom_bond_distance
_geom_bond_site_symmetry_2
_ccdc_geom_bond_type
Zn0 O3 2.031 . S
Zn0 O5 2.049 . S
Zn0 O10 2.067 . S
Zn1 O2 1.962 1_554 S
Zn1 O4 1.986 1_554 S
Zn1 O6 1.996 . S
Zn1 O9 1.943 . S
O2 Zn1 1.962 1_556 S
O2 C7 1.254 1_556 S
O3 Zn0 2.031 . S
O3 C7 1.269 . S
O4 Zn1 1.986 1_556 S
O4 C11 1.262 . S
O5 Zn0 2.049 . S
O5 C13 1.260 . S
O6 Zn1 1.996 . S
O6 C13 1.257 . S
C7 O2 1.254 1_554 S
C7 O3 1.269 . S
C8 O9 1.249 . S
C8 O10 1.270 . S
O9 Zn1 1.943 . S
O9 C8 1.249 . S
O10 Zn0 2.067 . S
O10 C8 1.270 . S
C11 O4 1.262 . S
C11 O12 1.232 1_556 S
O12 C11 1.232 1_554 S
C13 O5 1.260 . S
C13 O6 1.257 . S
Zn14 O17 2.031 1_545 S
Zn14 O19 2.049 . S
Zn14 O24 2.067 . S
Zn15 O16 1.962 1_544 S
Zn15 O18 1.986 1_554 S
Zn15 O20 1.996 . S
Zn15 O23 1.943 . S
O16 Zn15 1.962 1_566 S
O16 C21 1.254 1_556 S
O17 Zn14 2.031 1_565 S
O17 C21 1.269 . S
O18 Zn15 1.986 1_556 S
O18 C25 1.262 . S
O19 Zn14 2.049 . S
O19 C27 1.260 . S
O20 Zn15 1.996 . S
O20 C27 1.257 . S
C21 O16 1.254 1_554 S
C21 O17 1.269 . S
C22 O23 1.249 . S
C22 O24 1.270 . S
O23 Zn15 1.943 . S
O23 C22 1.249 . S
O24 Zn14 2.067 . S
O24 C22 1.270 . S
C25 O18 1.262 . S
C25 O26 1.232 1_556 S
O26 C25 1.232 1_554 S
C27 O19 1.260 . S
C27 O20 1.257 . S
Zn28 O31 2.031 1_655 S
Zn28 O33 2.049 . S
Zn28 O38 2.067 . S
Zn29 O30 1.962 1_654 S
Zn29 O32 1.986 1_554 S
Zn29 O34 1.996 . S
Zn29 O37 1.943 . S
O30 Zn29 1.962 1_456 S
O30 C35 1.254 1_556 S
O31 Zn28 2.031 1_455 S
O31 C35 1.269 . S
O32 Zn29 1.986 1_556 S
O32 C39 1.262 . S
O33 Zn28 2.049 . S
O33 C41 1.260 . S
O34 Zn29 1.996 . S
O34 C41 1.257 . S
C35 O30 1.254 1_554 S
C35 O31 1.269 . S
C36 O37 1.249 . S
C36 O38 1.270 . S
O37 Zn29 1.943 . S
O37 C36 1.249 . S
O38 Zn28 2.067 . S
O38 C36 1.270 . S
C39 O32 1.262 . S
C39 O40 1.232 1_556 S
O40 C39 1.232 1_554 S
C41 O33 1.260 . S
C41 O34 1.257 . S
Zn42 O45 2.031 . S
Zn42 O47 2.049 . S
Zn42 O52 2.067 . S
Zn43 O44 1.962 . S
Zn43 O46 1.986 . S
Zn43 O48 1.996 . S
Zn43 O51 1.943 . S
O44 Zn43 1.962 . S
O44 C49 1.254 . S
O45 Zn42 2.031 . S
O45 C49 1.269 . S
O46 Zn43 1.986 . S
O46 C53 1.262 . S
O47 Zn42 2.049 . S
O47 C55 1.260 . S
O48 Zn43 1.996 . S
O48 C55 1.257 . S
C49 O44 1.254 . S
C49 O45 1.269 . S
C50 O51 1.249 . S
C50 O52 1.270 . S
O51 Zn43 1.943 . S
O51 C50 1.249 . S
O52 Zn42 2.067 . S
O52 C50 1.270 . S
C53 O46 1.262 . S
C53 O54 1.232 . S
O54 C53 1.232 . S
C55 O47 1.260 . S
C55 O48 1.257 . S
Zn56 O59 2.031 1_565 S
Zn56 O61 2.049 . S
Zn56 O66 2.067 . S
Zn57 O58 1.962 1_565 S
Zn57 O60 1.986 . S
Zn57 O62 1.996 . S
Zn57 O65 1.943 . S
O58 Zn57 1.962 1_545 S
O58 C63 1.254 . S
O59 Zn56 2.031 1_545 S
O59 C63 1.269 . S
O60 Zn57 1.986 . S
O60 C67 1.262 . S
O61 Zn56 2.049 . S
O61 C69 1.260 . S
O62 Zn57 1.996 . S
O62 C69 1.257 . S
C63 O58 1.254 . S
C63 O59 1.269 . S
C64 O65 1.249 . S
C64 O66 1.270 . S
O65 Zn57 1.943 . S
O65 C64 1.249 . S
O66 Zn56 2.067 . S
O66 C64 1.270 . S
C67 O60 1.262 . S
C67 O68 1.232 . S
O68 C67 1.232 . S
C69 O61 1.260 . S
C69 O62 1.257 . S
Zn70 O73 2.031 1_455 S
Zn70 O75 2.049 . S
Zn70 O80 2.067 . S
Zn71 O72 1.962 1_455 S
Zn71 O74 1.986 . S
Zn71 O76 1.996 . S
Zn71 O79 1.943 . S
O72 Zn71 1.962 1_655 S
O72 C77 1.254 . S
O73 Zn70 2.031 1_655 S
O73 C77 1.269 . S
O74 Zn71 1.986 . S
O74 C81 1.262 . S
O75 Zn70 2.049 . S
O75 C83 1.260 . S
O76 Zn71 1.996 . S
O76 C83 1.257 . S
C77 O72 1.254 . S
C77 O73 1.269 . S
C78 O79 1.249 . S
C78 O80 1.270 . S
O79 Zn71 1.943 . S
O79 C78 1.249 . S
O80 Zn70 2.067 . S
O80 C78 1.270 . S
C81 O74 1.262 . S
C81 O82 1.232 . S
O82 C81 1.232 . S
C83 O75 1.260 . S
C83 O76 1.257 . S
Zn84 O87 2.031 . S
Zn84 O89 2.049 . S
Zn84 O94 2.067 . S
Zn85 O86 1.962 1_556 S
Zn85 O88 1.986 1_556 S
Zn85 O90 1.996 . S
Zn85 O93 1.943 . S
O86 Zn85 1.962 1_554 S
O86 C91 1.254 1_554 S
O87 Zn84 2.031 . S
O87 C91 1.269 . S
O88 Zn85 1.986 1_554 S
O88 C95 1.262 . S
O89 Zn84 2.049 . S
O89 C97 1.260 . S
O90 Zn85 1.996 . S
O90 C97 1.257 . S
C91 O86 1.254 1_556 S
C91 O87 1.269 . S
C92 O93 1.249 . S
C92 O94 1.270 . S
O93 Zn85 1.943 . S
O93 C92 1.249 . S
O94 Zn84 2.067 . S
O94 C92 1.270 . S
C95 O88 1.262 . S
C95 O96 1.232 1_554 S
O96 C95 1.232 1_556 S
C97 O89 1.260 . S
C97 O90 1.257 . S
Zn98 O101 2.031 1_565 S
Zn98 O103 2.049 . S
Zn98 O108 2.067 . S
Zn99 O100 1.962 1_566 S
Zn99 O102 1.986 1_556 S
Zn99 O104 1.996 . S
Zn99 O107 1.943 . S
O100 Zn99 1.962 1_544 S
O100 C105 1.254 1_554 S
O101 Zn98 2.031 1_545 S
O101 C105 1.269 . S
O102 Zn99 1.986 1_554 S
O102 C109 1.262 . S
O103 Zn98 2.049 . S
O103 C111 1.260 . S
O104 Zn99 1.996 . S
O104 C111 1.257 . S
C105 O100 1.254 1_556 S
C105 O101 1.269 . S
C106 O107 1.249 . S
C106 O108 1.270 . S
O107 Zn99 1.943 . S
O107 C106 1.249 . S
O108 Zn98 2.067 . S
O108 C106 1.270 . S
C109 O102 1.262 . S
C109 O110 1.232 1_554 S
O110 C109 1.232 1_556 S
C111 O103 1.260 . S
C111 O104 1.257 . S
Zn112 O115 2.031 1_455 S
Zn112 O117 2.049 . S
Zn112 O122 2.067 . S
Zn113 O114 1.962 1_456 S
Zn113 O116 1.986 1_556 S
Zn113 O118 1.996 . S
Zn113 O121 1.943 . S
O114 Zn113 1.962 1_654 S
O114 C119 1.254 1_554 S
O115 Zn112 2.031 1_655 S
O115 C119 1.269 . S
O116 Zn113 1.986 1_554 S
O116 C123 1.262 . S
O117 Zn112 2.049 . S
O117 C125 1.260 . S
O118 Zn113 1.996 . S
O118 C125 1.257 . S
C119 O114 1.254 1_556 S
C119 O115 1.269 . S
C120 O121 1.249 . S
C120 O122 1.270 . S
O121 Zn113 1.943 . S
O121 C120 1.249 . S
O122 Zn112 2.067 . S
O122 C120 1.270 . S
C123 O116 1.262 . S
C123 O124 1.232 1_554 S
O124 C123 1.232 1_556 S
C125 O117 1.260 . S
C125 O118 1.257 . S
Zn126 O129 2.031 . S
Zn126 O131 2.049 . S
Zn126 O136 2.067 . S
Zn127 O128 1.962 . S
Zn127 O130 1.986 . S
Zn127 O132 1.996 . S
Zn127 O135 1.943 . S
O128 Zn127 1.962 . S
O128 C133 1.254 . S
O129 Zn126 2.031 . S
O129 C133 1.269 . S
O130 Zn127 1.986 . S
O130 C137 1.262 . S
O131 Zn126 2.049 . S
O131 C139 1.260 . S
O132 Zn127 1.996 . S
O132 C139 1.257 . S
C133 O128 1.254 . S
C133 O129 1.269 . S
C134 O135 1.249 . S
C134 O136 1.270 . S
O135 Zn127 1.943 . S
O135 C134 1.249 . S
O136 Zn126 2.067 . S
O136 C134 1.270 . S
C137 O130 1.262 . S
C137 O138 1.232 . S
O138 C137 1.232 . S
C139 O131 1.260 . S
C139 O132 1.257 . S
Zn140 O143 2.031 1_545 S
Zn140 O145 2.049 . S
Zn140 O150 2.067 . S
Zn141 O142 1.962 1_545 S
Zn141 O144 1.986 . S
Zn141 O146 1.996 . S
Zn141 O149 1.943 . S
O142 Zn141 1.962 1_565 S
O142 C147 1.254 . S
O143 Zn140 2.031 1_565 S
O143 C147 1.269 . S
O144 Zn141 1.986 . S
O144 C151 1.262 . S
O145 Zn140 2.049 . S
O145 C153 1.260 . S
O146 Zn141 1.996 . S
O146 C153 1.257 . S
C147 O142 1.254 . S
C147 O143 1.269 . S
C148 O149 1.249 . S
C148 O150 1.270 . S
O149 Zn141 1.943 . S
O149 C148 1.249 . S
O150 Zn140 2.067 . S
O150 C148 1.270 . S
C151 O144 1.262 . S
C151 O152 1.232 . S
O152 C151 1.232 . S
C153 O145 1.260 . S
C153 O146 1.257 . S
Zn154 O157 2.031 1_655 S
Zn154 O159 2.049 . S
Zn154 O164 2.067 . S
Zn155 O156 1.962 1_655 S
Zn155 O158 1.986 . S
Zn155 O160 1.996 . S
Zn155 O163 1.943 . S
O156 Zn155 1.962 1_455 S
O156 C161 1.254 . S
O157 Zn154 2.031 1_455 S
O157 C161 1.269 . S
O158 Zn155 1.986 . S
O158 C165 1.262 . S
O159 Zn154 2.049 . S
O159 C167 1.260 . S
O160 Zn155 1.996 . S
O160 C167 1.257 . S
C161 O156 1.254 . S
C161 O157 1.269 . S
C162 O163 1.249 . S
C162 O164 1.270 . S
O163 Zn155 1.943 . S
O163 C162 1.249 . S
O164 Zn154 2.067 . S
O164 C162 1.270 . S
C165 O158 1.262 . S
C165 O166 1.232 . S
O166 C165 1.232 . S
C167 O159 1.260 . S
C167 O160 1.257 . S
Zn168 O171 2.031 . S
Zn168 O173 2.049 . S
Zn168 O178 2.067 . S
Zn169 O170 1.962 . S
Zn169 O172 1.986 . S
Zn169 O174 1.996 . S
Zn169 O177 1.943 . S
O170 Zn169 1.962 . S
O170 C175 1.254 . S
O171 Zn168 2.031 . S
O171 C175 1.269 . S
O172 Zn169 1.986 . S
O172 C179 1.262 . S
O173 Zn168 2.049 . S
O173 C181 1.260 . S
O174 Zn169 1.996 . S
O174 C181 1.257 . S
C175 O170 1.254 . S
C175 O171 1.269 . S
C176 O177 1.249 . S
C176 O178 1.270 . S
O177 Zn169 1.943 . S
O177 C176 1.249 . S
O178 Zn168 2.067 . S
O178 C176 1.270 . S
C179 O172 1.262 . S
C179 O180 1.232 . S
O180 C179 1.232 . S
C181 O173 1.260 . S
C181 O174 1.257 . S
Zn182 O185 2.031 . S
Zn182 O187 2.049 . S
Zn182 O192 2.067 . S
Zn183 O184 1.962 . S
Zn183 O186 1.986 . S
Zn183 O188 1.996 . S
Zn183 O191 1.943 . S
O184 Zn183 1.962 . S
O184 C189 1.254 . S
O185 Zn182 2.031 . S
O185 C189 1.269 . S
O186 Zn183 1.986 . S
O186 C193 1.262 . S
O187 Zn182 2.049 . S
O187 C195 1.260 . S
O188 Zn183 1.996 . S
O188 C195 1.257 . S
C189 O184 1.254 . S
C189 O185 1.269 . S
C190 O191 1.249 . S
C190 O192 1.270 . S
O191 Zn183 1.943 . S
O191 C190 1.249 . S
O192 Zn182 2.067 . S
O192 C190 1.270 . S
C193 O186 1.262 . S
C193 O194 1.232 . S
O194 C193 1.232 . S
C195 O187 1.260 . S
C195 O188 1.257 . S
Zn196 O199 2.031 . S
Zn196 O201 2.049 . S
Zn196 O206 2.067 . S
Zn197 O198 1.962 . S
Zn197 O200 1.986 . S
Zn197 O202 1.996 . S
Zn197 O205 1.943 . S
O198 Zn197 1.962 . S
O198 C203 1.254 . S
O199 Zn196 2.031 . S
O199 C203 1.269 . S
O200 Zn197 1.986 . S
O200 C207 1.262 . S
O201 Zn196 2.049 . S
O201 C209 1.260 . S
O202 Zn197 1.996 . S
O202 C209 1.257 . S
C203 O198 1.254 . S
C203 O199 1.269 . S
C204 O205 1.249 . S
C204 O206 1.270 . S
O205 Zn197 1.943 . S
O205 C204 1.249 . S
O206 Zn196 2.067 . S
O206 C204 1.270 . S
C207 O200 1.262 . S
C207 O208 1.232 . S
O208 C207 1.232 . S
C209 O201 1.260 . S
C209 O202 1.257 . S
Zn210 O213 2.031 . S
Zn210 O215 2.049 . S
Zn210 O220 2.067 . S
Zn211 O212 1.962 . S
Zn211 O214 1.986 . S
Zn211 O216 1.996 . S
Zn211 O219 1.943 . S
O212 Zn211 1.962 . S
O212 C217 1.254 . S
O213 Zn210 2.031 . S
O213 C217 1.269 . S
O214 Zn211 1.986 . S
O214 C221 1.262 . S
O215 Zn210 2.049 . S
O215 C223 1.260 . S
O216 Zn211 1.996 . S
O216 C223 1.257 . S
C217 O212 1.254 . S
C217 O213 1.269 . S
C218 O219 1.249 . S
C218 O220 1.270 . S
O219 Zn211 1.943 . S
O219 C218 1.249 . S
O220 Zn210 2.067 . S
O220 C218 1.270 . S
C221 O214 1.262 . S
C221 O222 1.232 . S
O222 C221 1.232 . S
C223 O215 1.260 . S
C223 O216 1.257 . S
Zn224 O227 2.031 . S
Zn224 O229 2.049 . S
Zn224 O234 2.067 . S
Zn225 O226 1.962 . S
Zn225 O228 1.986 . S
Zn225 O230 1.996 . S
Zn225 O233 1.943 . S
O226 Zn225 1.962 . S
O226 C231 1.254 . S
O227 Zn224 2.031 . S
O227 C231 1.269 . S
O228 Zn225 1.986 . S
O228 C235 1.262 . S
O229 Zn224 2.049 . S
O229 C237 1.260 . S
O230 Zn225 1.996 . S
O230 C237 1.257 . S
C231 O226 1.254 . S
C231 O227 1.269 . S
C232 O233 1.249 . S
C232 O234 1.270 . S
O233 Zn225 1.943 . S
O233 C232 1.249 . S
O234 Zn224 2.067 . S
O234 C232 1.270 . S
C235 O228 1.262 . S
C235 O236 1.232 . S
O236 C235 1.232 . S
C237 O229 1.260 . S
C237 O230 1.257 . S
Zn238 O241 2.031 . S
Zn238 O243 2.049 . S
Zn238 O248 2.067 . S
Zn239 O240 1.962 . S
Zn239 O242 1.986 . S
Zn239 O244 1.996 . S
Zn239 O247 1.943 . S
O240 Zn239 1.962 . S
O240 C245 1.254 . S
O241 Zn238 2.031 . S
O241 C245 1.269 . S
O242 Zn239 1.986 . S
O242 C249 1.262 . S
O243 Zn238 2.049 . S
O243 C251 1.260 . S
O244 Zn239 1.996 . S
O244 C251 1.257 . S
C245 O240 1.254 . S
C245 O241 1.269 . S
C246 O247 1.249 . S
C246 O248 1.270 . S
O247 Zn239 1.943 . S
O247 C246 1.249 . S
O248 Zn238 2.067 . S
O248 C246 1.270 . S
C249 O242 1.262 . S
C249 O250 1.232 . S
O250 C249 1.232 . S
C251 O243 1.260 . S
C251 O244 1.257 . S
Zn252 O255 2.031 . S
Zn252 O257 2.049 . S
Zn252 O262 2.067 . S
Zn253 O254 1.962 . S
Zn253 O256 1.986 . S
Zn253 O258 1.996 . S
Zn253 O261 1.943 . S
O254 Zn253 1.962 . S
O254 C259 1.254 . S
O255 Zn252 2.031 . S
O255 C259 1.269 . S
O256 Zn253 1.986 . S
O256 C263 1.262 . S
O257 Zn252 2.049 . S
O257 C265 1.260 . S
O258 Zn253 1.996 . S
O258 C265 1.257 . S
C259 O254 1.254 . S
C259 O255 1.269 . S
C260 O261 1.249 . S
C260 O262 1.270 . S
O261 Zn253 1.943 . S
O261 C260 1.249 . S
O262 Zn252 2.067 . S
O262 C260 1.270 . S
C263 O256 1.262 . S
C263 O264 1.232 . S
O264 C263 1.232 . S
C265 O257 1.260 . S
C265 O258 1.257 . S
Zn266 O269 2.031 . S
Zn266 O271 2.049 . S
Zn266 O276 2.067 . S
Zn267 O268 1.962 . S
Zn267 O270 1.986 . S
Zn267 O272 1.996 . S
Zn267 O275 1.943 . S
O268 Zn267 1.962 . S
O268 C273 1.254 . S
O269 Zn266 2.031 . S
O269 C273 1.269 . S
O270 Zn267 1.986 . S
O270 C277 1.262 . S
O271 Zn266 2.049 . S
O271 C279 1.260 . S
O272 Zn267 1.996 . S
O272 C279 1.257 . S
C273 O268 1.254 . S
C273 O269 1.269 . S
C274 O275 1.249 . S
C274 O276 1.270 . S
O275 Zn267 1.943 . S
O275 C274 1.249 . S
O276 Zn266 2.067 . S
O276 C274 1.270 . S
C277 O270 1.262 . S
C277 O278 1.232 . S
O278 C277 1.232 . S
C279 O271 1.260 . S
C279 O272 1.257 . S
Zn280 O283 2.031 . S
Zn280 O285 2.049 . S
Zn280 O290 2.067 . S
Zn281 O282 1.962 . S
Zn281 O284 1.986 . S
Zn281 O286 1.996 . S
Zn281 O289 1.943 . S
O282 Zn281 1.962 . S
O282 C287 1.254 . S
O283 Zn280 2.031 . S
O283 C287 1.269 . S
O284 Zn281 1.986 . S
O284 C291 1.262 . S
O285 Zn280 2.049 . S
O285 C293 1.260 . S
O286 Zn281 1.996 . S
O286 C293 1.257 . S
C287 O282 1.254 . S
C287 O283 1.269 . S
C288 O289 1.249 . S
C288 O290 1.270 . S
O289 Zn281 1.943 . S
O289 C288 1.249 . S
O290 Zn280 2.067 . S
O290 C288 1.270 . S
C291 O284 1.262 . S
C291 O292 1.232 . S
O292 C291 1.232 . S
C293 O285 1.260 . S
C293 O286 1.257 . S
Zn294 O297 2.031 . S
Zn294 O299 2.049 . S
Zn294 O304 2.067 . S
Zn295 O296 1.962 . S
Zn295 O298 1.986 . S
Zn295 O300 1.996 . S
Zn295 O303 1.943 . S
O296 Zn295 1.962 . S
O296 C301 1.254 . S
O297 Zn294 2.031 . S
O297 C301 1.269 . S
O298 Zn295 1.986 . S
O298 C305 1.262 . S
O299 Zn294 2.049 . S
O299 C307 1.260 . S
O300 Zn295 1.996 . S
O300 C307 1.257 . S
C301 O296 1.254 . S
C301 O297 1.269 . S
C302 O303 1.249 . S
C302 O304 1.270 . S
O303 Zn295 1.943 . S
O303 C302 1.249 . S
O304 Zn294 2.067 . S
O304 C302 1.270 . S
C305 O298 1.262 . S
C305 O306 1.232 . S
O306 C305 1.232 . S
C307 O299 1.260 . S
C307 O300 1.257 . S
Zn308 O311 2.031 . S
Zn308 O313 2.049 . S
Zn308 O318 2.067 . S
Zn309 O310 1.962 . S
Zn309 O312 1.986 . S
Zn309 O314 1.996 . S
Zn309 O317 1.943 . S
O310 Zn309 1.962 . S
O310 C315 1.254 . S
O311 Zn308 2.031 . S
O311 C315 1.269 . S
O312 Zn309 1.986 . S
O312 C319 1.262 . S
O313 Zn308 2.049 . S
O313 C321 1.260 . S
O314 Zn309 1.996 . S
O314 C321 1.257 . S
C315 O310 1.254 . S
C315 O311 1.269 . S
C316 O317 1.249 . S
C316 O318 1.270 . S
O317 Zn309 1.943 . S
O317 C316 1.249 . S
O318 Zn308 2.067 . S
O318 C316 1.270 . S
C319 O312 1.262 . S
C319 O320 1.232 . S
O320 C319 1.232 . S
C321 O313 1.260 . S
C321 O314 1.257 . S
Zn322 O325 2.031 . S
Zn322 O327 2.049 . S
Zn322 O332 2.067 . S
Zn323 O324 1.962 . S
Zn323 O326 1.986 . S
Zn323 O328 1.996 . S
Zn323 O331 1.943 . S
O324 Zn323 1.962 . S
O324 C329 1.254 . S
O325 Zn322 2.031 . S
O325 C329 1.269 . S
O326 Zn323 1.986 . S
O326 C333 1.262 . S
O327 Zn322 2.049 . S
O327 C335 1.260 . S
O328 Zn323 1.996 . S
O328 C335 1.257 . S
C329 O324 1.254 . S
C329 O325 1.269 . S
C330 O331 1.249 . S
C330 O332 1.270 . S
O331 Zn323 1.943 . S
O331 C330 1.249 . S
O332 Zn322 2.067 . S
O332 C330 1.270 . S
C333 O326 1.262 . S
C333 O334 1.232 . S
O334 C333 1.232 . S
C335 O327 1.260 . S
C335 O328 1.257 . S
Zn336 O339 2.031 . S
Zn336 O341 2.049 . S
Zn336 O346 2.067 . S
Zn337 O338 1.962 . S
Zn337 O340 1.986 . S
Zn337 O342 1.996 . S
Zn337 O345 1.943 . S
O338 Zn337 1.962 . S
O338 C343 1.254 . S
O339 Zn336 2.031 . S
O339 C343 1.269 . S
O340 Zn337 1.986 . S
O340 C347 1.262 . S
O341 Zn336 2.049 . S
O341 C349 1.260 . S
O342 Zn337 1.996 . S
O342 C349 1.257 . S
C343 O338 1.254 . S
C343 O339 1.269 . S
C344 O345 1.249 . S
C344 O346 1.270 . S
O345 Zn337 1.943 . S
O345 C344 1.249 . S
O346 Zn336 2.067 . S
O346 C344 1.270 . S
C347 O340 1.262 . S
C347 O348 1.232 . S
O348 C347 1.232 . S
C349 O341 1.260 . S
C349 O342 1.257 . S
Zn350 O353 2.031 . S
Zn350 O355 2.049 . S
Zn350 O360 2.067 . S
Zn351 O352 1.962 . S
Zn351 O354 1.986 . S
Zn351 O356 1.996 . S
Zn351 O359 1.943 . S
O352 Zn351 1.962 . S
O352 C357 1.254 . S
O353 Zn350 2.031 . S
O353 C357 1.269 . S
O354 Zn351 1.986 . S
O354 C361 1.262 . S
O355 Zn350 2.049 . S
O355 C363 1.260 . S
O356 Zn351 1.996 . S
O356 C363 1.257 . S
C357 O352 1.254 . S
C357 O353 1.269 . S
C358 O359 1.249 . S
C358 O360 1.270 . S
O359 Zn351 1.943 . S
O359 C358 1.249 . S
O360 Zn350 2.067 . S
O360 C358 1.270 . S
C361 O354 1.262 . S
C361 O362 1.232 . S
O362 C361 1.232 . S
C363 O355 1.260 . S
C363 O356 1.257 . S
Zn364 O367 2.031 . S
Zn364 O369 2.049 . S
Zn364 O374 2.067 . S
Zn365 O366 1.962 . S
Zn365 O368 1.986 . S
Zn365 O370 1.996 . S
Zn365 O373 1.943 . S
O366 Zn365 1.962 . S
O366 C371 1.254 . S
O367 Zn364 2.031 . S
O367 C371 1.269 . S
O368 Zn365 1.986 . S
O368 C375 1.262 . S
O369 Zn364 2.049 . S
O369 C377 1.260 . S
O370 Zn365 1.996 . S
O370 C377 1.257 . S
C371 O366 1.254 . S
C371 O367 1.269 . S
C372 O373 1.249 . S
C372 O374 1.270 . S
O373 Zn365 1.943 . S
O373 C372 1.249 . S
O374 Zn364 2.067 . S
O374 C372 1.270 . S
C375 O368 1.262 . S
C375 O376 1.232 . S
O376 C375 1.232 . S
C377 O369 1.260 . S
C377 O370 1.257 . S
Zn378 O381 2.031 . S
Zn378 O383 2.049 . S
Zn378 O388 2.067 . S
Zn379 O380 1.962 . S
Zn379 O382 1.986 . S
Zn379 O384 1.996 . S
Zn379 O387 1.943 . S
O380 Zn379 1.962 . S
O380 C385 1.254 . S
O381 Zn378 2.031 . S
O381 C385 1.269 . S
O382 Zn379 1.986 . S
O382 C389 1.262 . S
O383 Zn378 2.049 . S
O383 C391 1.260 . S
O384 Zn379 1.996 . S
O384 C391 1.257 . S
C385 O380 1.254 . S
C385 O381 1.269 . S
C386 O387 1.249 . S
C386 O388 1.270 . S
O387 Zn379 1.943 . S
O387 C386 1.249 . S
O388 Zn378 2.067 . S
O388 C386 1.270 . S
C389 O382 1.262 . S
C389 O390 1.232 . S
O390 C389 1.232 . S
C391 O383 1.260 . S
C391 O384 1.257 . S
Zn392 O395 2.031 . S
Zn392 O397 2.049 . S
Zn392 O402 2.067 . S
Zn393 O394 1.962 . S
Zn393 O396 1.986 . S
Zn393 O398 1.996 . S
Zn393 O401 1.943 . S
O394 Zn393 1.962 . S
O394 C399 1.254 . S
O395 Zn392 2.031 . S
O395 C399 1.269 . S
O396 Zn393 1.986 . S
O396 C403 1.262 . S
O397 Zn392 2.049 . S
O397 C405 1.260 . S
O398 Zn393 1.996 . S
O398 C405 1.257 . S
C399 O394 1.254 . S
C399 O395 1.269 . S
C400 O401 1.249 . S
C400 O402 1.270 . S
O401 Zn393 1.943 . S
O401 C400 1.249 . S
O402 Zn392 2.067 . S
O402 C400 1.270 . S
C403 O396 1.262 . S
C403 O404 1.232 . S
O404 C403 1.232 . S
C405 O397 1.260 . S
C405 O398 1.257 . S
Zn406 O409 2.031 . S
Zn406 O411 2.049 . S
Zn406 O416 2.067 . S
Zn407 O408 1.962 . S
Zn407 O410 1.986 . S
Zn407 O412 1.996 . S
Zn407 O415 1.943 . S
O408 Zn407 1.962 . S
O408 C413 1.254 . S
O409 Zn406 2.031 . S
O409 C413 1.269 . S
O410 Zn407 1.986 . S
O410 C417 1.262 . S
O411 Zn406 2.049 . S
O411 C419 1.260 . S
O412 Zn407 1.996 . S
O412 C419 1.257 . S
C413 O408 1.254 . S
C413 O409 1.269 . S
C414 O415 1.249 . S
C414 O416 1.270 . S
O415 Zn407 1.943 . S
O415 C414 1.249 . S
O416 Zn406 2.067 . S
O416 C414 1.270 . S
C417 O410 1.262 . S
C417 O418 1.232 . S
O418 C417 1.232 . S
C419 O411 1.260 . S
C419 O412 1.257 . S
Zn420 O423 2.031 . S
Zn420 O425 2.049 . S
Zn420 O430 2.067 . S
Zn421 O422 1.962 . S
Zn421 O424 1.986 . S
Zn421 O426 1.996 . S
Zn421 O429 1.943 . S
O422 Zn421 1.962 . S
O422 C427 1.254 . S
O423 Zn420 2.031 . S
O423 C427 1.269 . S
O424 Zn421 1.986 . S
O424 C431 1.262 . S
O425 Zn420 2.049 . S
O425 C433 1.260 . S
O426 Zn421 1.996 . S
O426 C433 1.257 . S
C427 O422 1.254 . S
C427 O423 1.269 . S
C428 O429 1.249 . S
C428 O430 1.270 . S
O429 Zn421 1.943 . S
O429 C428 1.249 . S
O430 Zn420 2.067 . S
O430 C428 1.270 . S
C431 O424 1.262 . S
C431 O432 1.232 . S
O432 C431 1.232 . S
C433 O425 1.260 . S
C433 O426 1.257 . S
Zn434 O437 2.031 . S
Zn434 O439 2.049 . S
Zn434 O444 2.067 . S
Zn435 O436 1.962 . S
Zn435 O438 1.986 . S
Zn435 O440 1.996 . S
Zn435 O443 1.943 . S
O436 Zn435 1.962 . S
O436 C441 1.254 . S
O437 Zn434 2.031 . S
O437 C441 1.269 . S
O438 Zn435 1.986 . S
O438 C445 1.262 . S
O439 Zn434 2.049 . S
O439 C447 1.260 . S
O440 Zn435 1.996 . S
O440 C447 1.257 . S
C441 O436 1.254 . S
C441 O437 1.269 . S
C442 O443 1.249 . S
C442 O444 1.270 . S
O443 Zn435 1.943 . S
O443 C442 1.249 . S
O444 Zn434 2.067 . S
O444 C442 1.270 . S
C445 O438 1.262 . S
C445 O446 1.232 . S
O446 C445 1.232 . S
C447 O439 1.260 . S
C447 O440 1.257 . S
Zn448 O451 2.031 . S
Zn448 O453 2.049 . S
Zn448 O458 2.067 . S
Zn449 O450 1.962 . S
Zn449 O452 1.986 . S
Zn449 O454 1.996 . S
Zn449 O457 1.943 . S
O450 Zn449 1.962 . S
O450 C455 1.254 . S
O451 Zn448 2.031 . S
O451 C455 1.269 . S
O452 Zn449 1.986 . S
O452 C459 1.262 . S
O453 Zn448 2.049 . S
O453 C461 1.260 . S
O454 Zn449 1.996 . S
O454 C461 1.257 . S
C455 O450 1.254 . S
C455 O451 1.269 . S
C456 O457 1.249 . S
C456 O458 1.270 . S
O457 Zn449 1.943 . S
O457 C456 1.249 . S
O458 Zn448 2.067 . S
O458 C456 1.270 . S
C459 O452 1.262 . S
C459 O460 1.232 . S
O460 C459 1.232 . S
C461 O453 1.260 . S
C461 O454 1.257 . S
Zn462 O465 2.031 . S
Zn462 O467 2.049 . S
Zn462 O472 2.067 . S
Zn463 O464 1.962 . S
Zn463 O466 1.986 . S
Zn463 O468 1.996 . S
Zn463 O471 1.943 . S
O464 Zn463 1.962 . S
O464 C469 1.254 . S
O465 Zn462 2.031 . S
O465 C469 1.269 . S
O466 Zn463 1.986 . S
O466 C473 1.262 . S
O467 Zn462 2.049 . S
O467 C475 1.260 . S
O468 Zn463 1.996 . S
O468 C475 1.257 . S
C469 O464 1.254 . S
C469 O465 1.269 . S
C470 O471 1.249 . S
C470 O472 1.270 . S
O471 Zn463 1.943 . S
O471 C470 1.249 . S
O472 Zn462 2.067 . S
O472 C470 1.270 . S
C473 O466 1.262 . S
C473 O474 1.232 . S
O474 C473 1.232 . S
C475 O467 1.260 . S
C475 O468 1.257 . S
Zn476 O479 2.031 . S
Zn476 O481 2.049 . S
Zn476 O486 2.067 . S
Zn477 O478 1.962 . S
Zn477 O480 1.986 . S
Zn477 O482 1.996 . S
Zn477 O485 1.943 . S
O478 Zn477 1.962 . S
O478 C483 1.254 . S
O479 Zn476 2.031 . S
O479 C483 1.269 . S
O480 Zn477 1.986 . S
O480 C487 1.262 . S
O481 Zn476 2.049 . S
O481 C489 1.260 . S
O482 Zn477 1.996 . S
O482 C489 1.257 . S
C483 O478 1.254 . S
C483 O479 1.269 . S
C484 O485 1.249 . S
C484 O486 1.270 . S
O485 Zn477 1.943 . S
O485 C484 1.249 . S
O486 Zn476 2.067 . S
O486 C484 1.270 . S
C487 O480 1.262 . S
C487 O488 1.232 . S
O488 C487 1.232 . S
C489 O481 1.260 . S
C489 O482 1.257 . S
Zn490 O493 2.031 . S
Zn490 O495 2.049 . S
Zn490 O500 2.067 . S
Zn491 O492 1.962 . S
Zn491 O494 1.986 . S
Zn491 O496 1.996 . S
Zn491 O499 1.943 . S
O492 Zn491 1.962 . S
O492 C497 1.254 . S
O493 Zn490 2.031 . S
O493 C497 1.269 . S
O494 Zn491 1.986 . S
O494 C501 1.262 . S
O495 Zn490 2.049 . S
O495 C503 1.260 . S
O496 Zn491 1.996 . S
O496 C503 1.257 . S
C497 O492 1.254 . S
C497 O493 1.269 . S
C498 O499 1.249 . S
C498 O500 1.270 . S
O499 Zn491 1.943 . S
O499 C498 1.249 . S
O500 Zn490 2.067 . S
O500 C498 1.270 . S
C501 O494 1.262 . S
C501 O502 1.232 . S
O502 C501 1.232 . S
C503 O495 1.260 . S
C503 O496 1.257 . S
H504 C510 0.930 . S
H505 C514 0.930 . S
H506 C519 0.929 . S
H507 C517 0.929 . S
H508 C512 0.929 . S
H509 C518 0.929 . S
C510 H504 0.930 . S
C510 C511 1.367 . S
C510 C518 1.378 . S
C511 C510 1.367 . S
C511 C519 1.433 . S
C512 H508 0.929 . S
C512 C514 1.378 . S
C512 C516 1.350 . S
C513 C516 1.463 . S
C513 C518 1.350 . S
C513 N521 1.427 . S
C514 H505 0.930 . S
C514 C512 1.378 . S
C514 C515 1.367 . S
C515 C514 1.367 . S
C515 C517 1.433 . S
C516 C512 1.350 . S
C516 C513 1.463 . S
C516 N520 1.427 . S
C517 H507 0.929 . S
C517 C515 1.433 . S
C517 N520 1.384 . S
C518 H509 0.929 . S
C518 C510 1.378 . S
C518 C513 1.350 . S
C519 H506 0.929 . S
C519 C511 1.433 . S
C519 N521 1.384 . S
N520 C516 1.427 . S
N520 C517 1.384 . S
N521 C513 1.427 . S
N521 C519 1.384 . S
H522 C528 0.930 . S
H523 C532 0.930 . S
H524 C537 0.929 . S
H525 C535 0.929 1_554 S
H526 C530 0.929 . S
H527 C536 0.929 . S
C528 H522 0.930 . S
C528 C529 1.367 . S
C528 C536 1.378 . S
C529 C528 1.367 . S
C529 C537 1.433 . S
C530 H526 0.929 . S
C530 C532 1.378 . S
C530 C534 1.350 . S
C531 C534 1.463 . S
C531 C536 1.350 . S
C531 N539 1.427 . S
C532 H523 0.930 . S
C532 C530 1.378 . S
C532 C533 1.367 . S
C533 C532 1.367 . S
C533 C535 1.433 . S
C534 C530 1.350 . S
C534 C531 1.463 . S
C534 N538 1.427 . S
C535 H525 0.929 1_556 S
C535 C533 1.433 . S
C535 N538 1.384 . S
C536 H527 0.929 . S
C536 C528 1.378 . S
C536 C531 1.350 . S
C537 H524 0.929 . S
C537 C529 1.433 . S
C537 N539 1.384 . S
N538 C534 1.427 . S
N538 C535 1.384 . S
N539 C531 1.427 . S
N539 C537 1.384 . S
H540 C546 0.930 1_554 S
H541 C550 0.930 . S
H542 C555 0.929 . S
H543 C553 0.929 . S
H544 C548 0.929 . S
H545 C554 0.929 . S
C546 H540 0.930 1_556 S
C546 C547 1.367 . S
C546 C554 1.378 . S
C547 C546 1.367 . S
C547 C555 1.433 . S
C548 H544 0.929 . S
C548 C550 1.378 . S
C548 C552 1.350 . S
C549 C552 1.463 . S
C549 C554 1.350 . S
C549 N557 1.427 . S
C550 H541 0.930 . S
C550 C548 1.378 . S
C550 C551 1.367 . S
C551 C550 1.367 . S
C551 C553 1.433 . S
C552 C548 1.350 . S
C552 C549 1.463 . S
C552 N556 1.427 . S
C553 H543 0.929 . S
C553 C551 1.433 . S
C553 N556 1.384 . S
C554 H545 0.929 . S
C554 C546 1.378 . S
C554 C549 1.350 . S
C555 H542 0.929 . S
C555 C547 1.433 . S
C555 N557 1.384 . S
N556 C552 1.427 . S
N556 C553 1.384 . S
N557 C549 1.427 . S
N557 C555 1.384 . S
H558 C564 0.930 . S
H559 C568 0.930 . S
H560 C573 0.929 . S
H561 C571 0.929 . S
H562 C566 0.929 . S
H563 C572 0.929 . S
C564 H558 0.930 . S
C564 C565 1.367 . S
C564 C572 1.378 . S
C565 C564 1.367 . S
C565 C573 1.433 . S
C566 H562 0.929 . S
C566 C568 1.378 . S
C566 C570 1.350 . S
C567 C570 1.463 . S
C567 C572 1.350 . S
C567 N575 1.427 . S
C568 H559 0.930 . S
C568 C566 1.378 . S
C568 C569 1.367 . S
C569 C568 1.367 . S
C569 C571 1.433 . S
C570 C566 1.350 . S
C570 C567 1.463 . S
C570 N574 1.427 . S
C571 H561 0.929 . S
C571 C569 1.433 . S
C571 N574 1.384 . S
C572 H563 0.929 . S
C572 C564 1.378 . S
C572 C567 1.350 . S
C573 H560 0.929 . S
C573 C565 1.433 . S
C573 N575 1.384 . S
N574 C570 1.427 . S
N574 C571 1.384 . S
N575 C567 1.427 . S
N575 C573 1.384 . S
H576 C582 0.930 . S
H577 C586 0.930 . S
H578 C591 0.929 . S
H579 C589 0.929 . S
H580 C584 0.929 . S
H581 C590 0.929 . S
C582 H576 0.930 . S
C582 C583 1.367 . S
C582 C590 1.378 . S
C583 C582 1.367 . S
C583 C591 1.433 . S
C584 H580 0.929 . S
C584 C586 1.378 . S
C584 C588 1.350 . S
C585 C588 1.463 . S
C585 C590 1.350 . S
C585 N593 1.427 . S
C586 H577 0.930 . S
C586 C584 1.378 . S
C586 C587 1.367 . S
C587 C586 1.367 . S
C587 C589 1.433 . S
C588 C584 1.350 . S
C588 C585 1.463 . S
C588 N592 1.427 . S
C589 H579 0.929 . S
C589 C587 1.433 . S
C589 N592 1.384 . S
C590 H581 0.929 . S
C590 C582 1.378 . S
C590 C585 1.350 . S
C591 H578 0.929 . S
C591 C583 1.433 . S
C591 N593 1.384 . S
N592 C588 1.427 . S
N592 C589 1.384 . S
N593 C585 1.427 . S
N593 C591 1.384 . S
H594 C600 0.930 . S
H595 C604 0.930 . S
H596 C609 0.929 . S
H597 C607 0.929 . S
H598 C602 0.929 . S
H599 C608 0.929 . S
C600 H594 0.930 . S
C600 C601 1.367 . S
C600 C608 1.378 . S
C601 C600 1.367 . S
C601 C609 1.433 . S
C602 H598 0.929 . S
C602 C604 1.378 . S
C602 C606 1.350 . S
C603 C606 1.463 . S
C603 C608 1.350 . S
C603 N611 1.427 . S
C604 H595 0.930 . S
C604 C602 1.378 . S
C604 C605 1.367 . S
C605 C604 1.367 . S
C605 C607 1.433 . S
C606 C602 1.350 . S
C606 C603 1.463 . S
C606 N610 1.427 . S
C607 H597 0.929 . S
C607 C605 1.433 . S
C607 N610 1.384 . S
C608 H599 0.929 . S
C608 C600 1.378 . S
C608 C603 1.350 . S
C609 H596 0.929 . S
C609 C601 1.433 . S
C609 N611 1.384 . S
N610 C606 1.427 . S
N610 C607 1.384 . S
N611 C603 1.427 . S
N611 C609 1.384 . S
H612 C618 0.930 . S
H613 C622 0.930 . S
H614 C627 0.929 . S
H615 C625 0.929 1_556 S
H616 C620 0.929 . S
H617 C626 0.929 . S
C618 H612 0.930 . S
C618 C619 1.367 . S
C618 C626 1.378 . S
C619 C618 1.367 . S
C619 C627 1.433 . S
C620 H616 0.929 . S
C620 C622 1.378 . S
C620 C624 1.350 . S
C621 C624 1.463 . S
C621 C626 1.350 . S
C621 N629 1.427 . S
C622 H613 0.930 . S
C622 C620 1.378 . S
C622 C623 1.367 . S
C623 C622 1.367 . S
C623 C625 1.433 . S
C624 C620 1.350 . S
C624 C621 1.463 . S
C624 N628 1.427 . S
C625 H615 0.929 1_554 S
C625 C623 1.433 . S
C625 N628 1.384 . S
C626 H617 0.929 . S
C626 C618 1.378 . S
C626 C621 1.350 . S
C627 H614 0.929 . S
C627 C619 1.433 . S
C627 N629 1.384 . S
N628 C624 1.427 . S
N628 C625 1.384 . S
N629 C621 1.427 . S
N629 C627 1.384 . S
H630 C636 0.930 . S
H631 C640 0.930 1_556 S
H632 C645 0.929 . S
H633 C643 0.929 . S
H634 C638 0.929 . S
H635 C644 0.929 . S
C636 H630 0.930 . S
C636 C637 1.367 . S
C636 C644 1.378 . S
C637 C636 1.367 . S
C637 C645 1.433 . S
C638 H634 0.929 . S
C638 C640 1.378 . S
C638 C642 1.350 . S
C639 C642 1.463 . S
C639 C644 1.350 . S
C639 N647 1.427 . S
C640 H631 0.930 1_554 S
C640 C638 1.378 . S
C640 C641 1.367 . S
C641 C640 1.367 . S
C641 C643 1.433 . S
C642 C638 1.350 . S
C642 C639 1.463 . S
C642 N646 1.427 . S
C643 H633 0.929 . S
C643 C641 1.433 . S
C643 N646 1.384 . S
C644 H635 0.929 . S
C644 C636 1.378 . S
C644 C639 1.350 . S
C645 H632 0.929 . S
C645 C637 1.433 . S
C645 N647 1.384 . S
N646 C642 1.427 . S
N646 C643 1.384 . S
N647 C639 1.427 . S
N647 C645 1.384 . S
H648 C654 0.930 . S
H649 C658 0.930 1_556 S
H650 C663 0.929 . S
H651 C661 0.929 . S
H652 C656 0.929 . S
H653 C662 0.929 . S
C654 H648 0.930 . S
C654 C655 1.367 . S
C654 C662 1.378 . S
C655 C654 1.367 . S
C655 C663 1.433 . S
C656 H652 0.929 . S
C656 C658 1.378 . S
C656 C660 1.350 . S
C657 C660 1.463 . S
C657 C662 1.350 . S
C657 N665 1.427 . S
C658 H649 0.930 1_554 S
C658 C656 1.378 . S
C658 C659 1.367 . S
C659 C658 1.367 . S
C659 C661 1.433 . S
C660 C656 1.350 . S
C660 C657 1.463 . S
C660 N664 1.427 . S
C661 H651 0.929 . S
C661 C659 1.433 . S
C661 N664 1.384 . S
C662 H653 0.929 . S
C662 C654 1.378 . S
C662 C657 1.350 . S
C663 H650 0.929 . S
C663 C655 1.433 . S
C663 N665 1.384 . S
N664 C660 1.427 . S
N664 C661 1.384 . S
N665 C657 1.427 . S
N665 C663 1.384 . S
H666 C672 0.930 . S
H667 C676 0.930 . S
H668 C681 0.929 . S
H669 C679 0.929 . S
H670 C674 0.929 . S
H671 C680 0.929 . S
C672 H666 0.930 . S
C672 C673 1.367 . S
C672 C680 1.378 . S
C673 C672 1.367 . S
C673 C681 1.433 . S
C674 H670 0.929 . S
C674 C676 1.378 . S
C674 C678 1.350 . S
C675 C678 1.463 . S
C675 C680 1.350 . S
C675 N683 1.427 . S
C676 H667 0.930 . S
C676 C674 1.378 . S
C676 C677 1.367 . S
C677 C676 1.367 . S
C677 C679 1.433 . S
C678 C674 1.350 . S
C678 C675 1.463 . S
C678 N682 1.427 . S
C679 H669 0.929 . S
C679 C677 1.433 . S
C679 N682 1.384 . S
C680 H671 0.929 . S
C680 C672 1.378 . S
C680 C675 1.350 . S
C681 H668 0.929 . S
C681 C673 1.433 . S
C681 N683 1.384 . S
N682 C678 1.427 . S
N682 C679 1.384 . S
N683 C675 1.427 . S
N683 C681 1.384 . S
H684 C690 0.930 . S
H685 C694 0.930 . S
H686 C699 0.929 . S
H687 C697 0.929 . S
H688 C692 0.929 . S
H689 C698 0.929 . S
C690 H684 0.930 . S
C690 C691 1.367 . S
C690 C698 1.378 . S
C691 C690 1.367 . S
C691 C699 1.433 . S
C692 H688 0.929 . S
C692 C694 1.378 . S
C692 C696 1.350 . S
C693 C696 1.463 . S
C693 C698 1.350 . S
C693 N701 1.427 . S
C694 H685 0.930 . S
C694 C692 1.378 . S
C694 C695 1.367 . S
C695 C694 1.367 . S
C695 C697 1.433 . S
C696 C692 1.350 . S
C696 C693 1.463 . S
C696 N700 1.427 . S
C697 H687 0.929 . S
C697 C695 1.433 . S
C697 N700 1.384 . S
C698 H689 0.929 . S
C698 C690 1.378 . S
C698 C693 1.350 . S
C699 H686 0.929 . S
C699 C691 1.433 . S
C699 N701 1.384 . S
N700 C696 1.427 . S
N700 C697 1.384 . S
N701 C693 1.427 . S
N701 C699 1.384 . S
H702 C708 0.930 . S
H703 C712 0.930 . S
H704 C717 0.929 . S
H705 C715 0.929 . S
H706 C710 0.929 . S
H707 C716 0.929 . S
C708 H702 0.930 . S
C708 C709 1.367 . S
C708 C716 1.378 . S
C709 C708 1.367 . S
C709 C717 1.433 . S
C710 H706 0.929 . S
C710 C712 1.378 . S
C710 C714 1.350 . S
C711 C714 1.463 . S
C711 C716 1.350 . S
C711 N719 1.427 . S
C712 H703 0.930 . S
C712 C710 1.378 . S
C712 C713 1.367 . S
C713 C712 1.367 . S
C713 C715 1.433 . S
C714 C710 1.350 . S
C714 C711 1.463 . S
C714 N718 1.427 . S
C715 H705 0.929 . S
C715 C713 1.433 . S
C715 N718 1.384 . S
C716 H707 0.929 . S
C716 C708 1.378 . S
C716 C711 1.350 . S
C717 H704 0.929 . S
C717 C709 1.433 . S
C717 N719 1.384 . S
N718 C714 1.427 . S
N718 C715 1.384 . S
N719 C711 1.427 . S
N719 C717 1.384 . S
H720 C726 0.930 . S
H721 C730 0.930 . S
H722 C735 0.929 . S
H723 C733 0.929 . S
H724 C728 0.929 . S
H725 C734 0.929 . S
C726 H720 0.930 . S
C726 C727 1.367 . S
C726 C734 1.378 . S
C727 C726 1.367 . S
C727 C735 1.433 . S
C728 H724 0.929 . S
C728 C730 1.378 . S
C728 C732 1.350 . S
C729 C732 1.463 1_455 S
C729 C734 1.350 . S
C729 N737 1.427 . S
C730 H721 0.930 . S
C730 C728 1.378 . S
C730 C731 1.367 . S
C731 C730 1.367 . S
C731 C733 1.433 . S
C732 C728 1.350 . S
C732 C729 1.463 1_655 S
C732 N736 1.427 . S
C733 H723 0.929 . S
C733 C731 1.433 . S
C733 N736 1.384 . S
C734 H725 0.929 . S
C734 C726 1.378 . S
C734 C729 1.350 . S
C735 H722 0.929 . S
C735 C727 1.433 . S
C735 N737 1.384 . S
N736 C732 1.427 . S
N736 C733 1.384 . S
N737 C729 1.427 . S
N737 C735 1.384 . S
H738 C744 0.930 . S
H739 C748 0.930 . S
H740 C753 0.929 . S
H741 C751 0.929 . S
H742 C746 0.929 . S
H743 C752 0.929 . S
C744 H738 0.930 . S
C744 C745 1.367 . S
C744 C752 1.378 . S
C745 C744 1.367 . S
C745 C753 1.433 . S
C746 H742 0.929 . S
C746 C748 1.378 . S
C746 C750 1.350 . S
C747 C750 1.463 . S
C747 C752 1.350 . S
C747 N755 1.427 . S
C748 H739 0.930 . S
C748 C746 1.378 . S
C748 C749 1.367 . S
C749 C748 1.367 . S
C749 C751 1.433 . S
C750 C746 1.350 . S
C750 C747 1.463 . S
C750 N754 1.427 . S
C751 H741 0.929 . S
C751 C749 1.433 . S
C751 N754 1.384 . S
C752 H743 0.929 . S
C752 C744 1.378 . S
C752 C747 1.350 . S
C753 H740 0.929 . S
C753 C745 1.433 . S
C753 N755 1.384 . S
N754 C750 1.427 . S
N754 C751 1.384 . S
N755 C747 1.427 . S
N755 C753 1.384 . S
H756 C762 0.930 . S
H757 C766 0.930 . S
H758 C771 0.929 . S
H759 C769 0.929 . S
H760 C764 0.929 1_565 S
H761 C770 0.929 1_545 S
C762 H756 0.930 . S
C762 C763 1.367 . S
C762 C770 1.378 . S
C763 C762 1.367 . S
C763 C771 1.433 . S
C764 H760 0.929 1_545 S
C764 C766 1.378 . S
C764 C768 1.350 . S
C765 C768 1.463 1_565 S
C765 C770 1.350 . S
C765 N773 1.427 . S
C766 H757 0.930 . S
C766 C764 1.378 . S
C766 C767 1.367 . S
C767 C766 1.367 . S
C767 C769 1.433 . S
C768 C764 1.350 . S
C768 C765 1.463 1_545 S
C768 N772 1.427 . S
C769 H759 0.929 . S
C769 C767 1.433 . S
C769 N772 1.384 . S
C770 H761 0.929 1_565 S
C770 C762 1.378 . S
C770 C765 1.350 . S
C771 H758 0.929 . S
C771 C763 1.433 . S
C771 N773 1.384 . S
N772 C768 1.427 . S
N772 C769 1.384 . S
N773 C765 1.427 . S
N773 C771 1.384 . S
H774 C780 0.930 . S
H775 C784 0.930 . S
H776 C789 0.929 . S
H777 C787 0.929 . S
H778 C782 0.907 1_565 S
H779 C788 0.907 1_545 S
C780 H774 0.930 . S
C780 C781 1.367 . S
C780 C788 1.378 . S
C781 C780 1.367 . S
C781 C789 1.433 . S
C782 H778 0.907 1_545 S
C782 C784 1.378 . S
C782 C786 1.350 . S
C783 C786 1.463 1_565 S
C783 C788 1.350 . S
C783 N791 1.427 . S
C784 H775 0.930 . S
C784 C782 1.378 . S
C784 C785 1.367 . S
C785 C784 1.367 . S
C785 C787 1.433 . S
C786 C782 1.350 . S
C786 C783 1.463 1_545 S
C786 N790 1.427 . S
C787 H777 0.929 . S
C787 C785 1.433 . S
C787 N790 1.384 . S
C788 H779 0.907 1_565 S
C788 C780 1.378 . S
C788 C783 1.350 . S
C789 H776 0.929 . S
C789 C781 1.433 . S
C789 N791 1.384 . S
N790 C786 1.427 . S
N790 C787 1.384 . S
N791 C783 1.427 . S
N791 C789 1.384 . S
H792 C798 0.930 . S
H793 C802 0.930 . S
H794 C807 0.929 . S
H795 C805 0.929 . S
H796 C800 0.929 . S
H797 C806 0.929 . S
C798 H792 0.930 . S
C798 C799 1.367 . S
C798 C806 1.378 . S
C799 C798 1.367 . S
C799 C807 1.433 . S
C800 H796 0.929 . S
C800 C802 1.378 . S
C800 C804 1.350 . S
C801 C804 1.463 1_455 S
C801 C806 1.350 . S
C801 N809 1.427 . S
C802 H793 0.930 . S
C802 C800 1.378 . S
C802 C803 1.367 . S
C803 C802 1.367 . S
C803 C805 1.433 . S
C804 C800 1.350 . S
C804 C801 1.463 1_655 S
C804 N808 1.427 . S
C805 H795 0.929 . S
C805 C803 1.433 . S
C805 N808 1.384 . S
C806 H797 0.929 . S
C806 C798 1.378 . S
C806 C801 1.350 . S
C807 H794 0.929 . S
C807 C799 1.433 . S
C807 N809 1.384 . S
N808 C804 1.427 . S
N808 C805 1.384 . S
N809 C801 1.427 . S
N809 C807 1.384 . S
H810 C816 0.930 . S
H811 C820 0.930 . S
H812 C825 0.929 . S
H813 C823 0.929 . S
H814 C818 0.929 . S
H815 C824 0.929 . S
C816 H810 0.930 . S
C816 C817 1.367 . S
C816 C824 1.378 . S
C817 C816 1.367 . S
C817 C825 1.433 . S
C818 H814 0.929 . S
C818 C820 1.378 . S
C818 C822 1.350 . S
C819 C822 1.463 . S
C819 C824 1.350 . S
C819 N827 1.427 . S
C820 H811 0.930 . S
C820 C818 1.378 . S
C820 C821 1.367 . S
C821 C820 1.367 . S
C821 C823 1.433 . S
C822 C818 1.350 . S
C822 C819 1.463 . S
C822 N826 1.427 . S
C823 H813 0.929 . S
C823 C821 1.433 . S
C823 N826 1.384 . S
C824 H815 0.929 . S
C824 C816 1.378 . S
C824 C819 1.350 . S
C825 H812 0.929 . S
C825 C817 1.433 . S
C825 N827 1.384 . S
N826 C822 1.427 . S
N826 C823 1.384 . S
N827 C819 1.427 . S
N827 C825 1.384 . S
H828 C834 0.930 . S
H829 C838 0.930 . S
H830 C843 0.929 . S
H831 C841 0.929 . S
H832 C836 0.929 . S
H833 C842 0.929 . S
C834 H828 0.930 . S
C834 C835 1.367 1_554 S
C834 C842 1.378 . S
C835 C834 1.367 1_556 S
C835 C843 1.433 . S
C836 H832 0.929 . S
C836 C838 1.378 . S
C836 C840 1.350 1_556 S
C837 C840 1.463 . S
C837 C842 1.350 . S
C837 N845 1.427 1_554 S
C838 H829 0.930 . S
C838 C836 1.378 . S
C838 C839 1.367 1_556 S
C839 C838 1.367 1_554 S
C839 C841 1.433 . S
C840 C836 1.350 1_554 S
C840 C837 1.463 . S
C840 N844 1.427 . S
C841 H831 0.929 . S
C841 C839 1.433 . S
C841 N844 1.384 . S
C842 H833 0.929 . S
C842 C834 1.378 . S
C842 C837 1.350 . S
C843 H830 0.929 . S
C843 C835 1.433 . S
C843 N845 1.384 . S
N844 C840 1.427 . S
N844 C841 1.384 . S
N845 C837 1.427 1_556 S
N845 C843 1.384 . S
H846 C852 0.930 . S
H847 C856 0.930 . S
H848 C861 0.929 . S
H849 C859 0.929 . S
H850 C854 0.929 . S
H851 C860 0.929 . S
C852 H846 0.930 . S
C852 C853 1.367 . S
C852 C860 1.378 . S
C853 C852 1.367 . S
C853 C861 1.433 1_556 S
C854 H850 0.929 . S
C854 C856 1.378 . S
C854 C858 1.350 . S
C855 C858 1.463 . S
C855 C860 1.350 1_554 S
C855 N863 1.427 . S
C856 H847 0.930 . S
C856 C854 1.378 . S
C856 C857 1.367 . S
C857 C856 1.367 . S
C857 C859 1.433 1_554 S
C858 C854 1.350 . S
C858 C855 1.463 . S
C858 N862 1.427 1_554 S
C859 H849 0.929 . S
C859 C857 1.433 1_556 S
C859 N862 1.384 . S
C860 H851 0.929 . S
C860 C852 1.378 . S
C860 C855 1.350 1_556 S
C861 H848 0.929 . S
C861 C853 1.433 1_554 S
C861 N863 1.384 . S
N862 C858 1.427 1_556 S
N862 C859 1.384 . S
N863 C855 1.427 . S
N863 C861 1.384 . S
H864 C870 0.930 . S
H865 C874 0.930 . S
H866 C879 0.929 . S
H867 C877 0.929 1_556 S
H868 C872 0.929 . S
H869 C878 0.929 . S
C870 H864 0.930 . S
C870 C871 1.367 . S
C870 C878 1.378 . S
C871 C870 1.367 . S
C871 C879 1.433 1_556 S
C872 H868 0.929 . S
C872 C874 1.378 . S
C872 C876 1.350 . S
C873 C876 1.463 . S
C873 C878 1.350 1_554 S
C873 N881 1.427 . S
C874 H865 0.930 . S
C874 C872 1.378 . S
C874 C875 1.367 . S
C875 C874 1.367 . S
C875 C877 1.433 . S
C876 C872 1.350 . S
C876 C873 1.463 . S
C876 N880 1.427 1_554 S
C877 H867 0.929 1_554 S
C877 C875 1.433 . S
C877 N880 1.384 1_554 S
C878 H869 0.929 . S
C878 C870 1.378 . S
C878 C873 1.350 1_556 S
C879 H866 0.929 . S
C879 C871 1.433 1_554 S
C879 N881 1.384 . S
N880 C876 1.427 1_556 S
N880 C877 1.384 1_556 S
N881 C873 1.427 . S
N881 C879 1.384 . S
H882 C888 0.930 . S
H883 C892 0.930 . S
H884 C897 0.929 . S
H885 C895 0.929 . S
H886 C890 0.929 . S
H887 C896 0.929 . S
C888 H882 0.930 . S
C888 C889 1.367 . S
C888 C896 1.378 . S
C889 C888 1.367 . S
C889 C897 1.433 . S
C890 H886 0.929 . S
C890 C892 1.378 . S
C890 C894 1.350 . S
C891 C894 1.463 . S
C891 C896 1.350 . S
C891 N899 1.427 . S
C892 H883 0.930 . S
C892 C890 1.378 . S
C892 C893 1.367 . S
C893 C892 1.367 . S
C893 C895 1.433 . S
C894 C890 1.350 . S
C894 C891 1.463 . S
C894 N898 1.427 . S
C895 H885 0.929 . S
C895 C893 1.433 . S
C895 N898 1.384 . S
C896 H887 0.929 . S
C896 C888 1.378 . S
C896 C891 1.350 . S
C897 H884 0.929 . S
C897 C889 1.433 . S
C897 N899 1.384 . S
N898 C894 1.427 . S
N898 C895 1.384 . S
N899 C891 1.427 . S
N899 C897 1.384 . S
H900 C906 0.930 . S
H901 C910 0.930 . S
H902 C915 0.929 . S
H903 C913 0.929 . S
H904 C908 0.929 . S
H905 C914 0.929 . S
C906 H900 0.930 . S
C906 C907 1.367 . S
C906 C914 1.378 . S
C907 C906 1.367 . S
C907 C915 1.433 . S
C908 H904 0.929 . S
C908 C910 1.378 . S
C908 C912 1.350 . S
C909 C912 1.463 . S
C909 C914 1.350 . S
C909 N917 1.427 . S
C910 H901 0.930 . S
C910 C908 1.378 . S
C910 C911 1.367 . S
C911 C910 1.367 . S
C911 C913 1.433 . S
C912 C908 1.350 . S
C912 C909 1.463 . S
C912 N916 1.427 . S
C913 H903 0.929 . S
C913 C911 1.433 . S
C913 N916 1.384 . S
C914 H905 0.929 . S
C914 C906 1.378 . S
C914 C909 1.350 . S
C915 H902 0.929 . S
C915 C907 1.433 . S
C915 N917 1.384 . S
N916 C912 1.427 . S
N916 C913 1.384 . S
N917 C909 1.427 . S
N917 C915 1.384 . S
H918 C924 0.930 . S
H919 C928 0.930 . S
H920 C933 0.929 . S
H921 C931 0.929 . S
H922 C926 0.929 . S
H923 C932 0.929 . S
C924 H918 0.930 . S
C924 C925 1.367 . S
C924 C932 1.378 . S
C925 C924 1.367 . S
C925 C933 1.433 . S
C926 H922 0.929 . S
C926 C928 1.378 . S
C926 C930 1.350 . S
C927 C930 1.463 . S
C927 C932 1.350 . S
C927 N935 1.427 . S
C928 H919 0.930 . S
C928 C926 1.378 . S
C928 C929 1.367 . S
C929 C928 1.367 . S
C929 C931 1.433 . S
C930 C926 1.350 . S
C930 C927 1.463 . S
C930 N934 1.427 . S
C931 H921 0.929 . S
C931 C929 1.433 . S
C931 N934 1.384 . S
C932 H923 0.929 . S
C932 C924 1.378 . S
C932 C927 1.350 . S
C933 H920 0.929 . S
C933 C925 1.433 . S
C933 N935 1.384 . S
N934 C930 1.427 . S
N934 C931 1.384 . S
N935 C927 1.427 . S
N935 C933 1.384 . S
H936 C942 0.930 . S
H937 C946 0.930 . S
H938 C951 0.929 . S
H939 C949 0.929 1_554 S
H940 C944 0.929 . S
H941 C950 0.929 . S
C942 H936 0.930 . S
C942 C943 1.367 . S
C942 C950 1.378 . S
C943 C942 1.367 . S
C943 C951 1.433 1_554 S
C944 H940 0.929 . S
C944 C946 1.378 . S
C944 C948 1.350 . S
C945 C948 1.463 . S
C945 C950 1.350 1_556 S
C945 N953 1.427 . S
C946 H937 0.930 . S
C946 C944 1.378 . S
C946 C947 1.367 . S
C947 C946 1.367 . S
C947 C949 1.433 . S
C948 C944 1.350 . S
C948 C945 1.463 . S
C948 N952 1.427 1_556 S
C949 H939 0.929 1_556 S
C949 C947 1.433 . S
C949 N952 1.384 1_556 S
C950 H941 0.929 . S
C950 C942 1.378 . S
C950 C945 1.350 1_554 S
C951 H938 0.929 . S
C951 C943 1.433 1_556 S
C951 N953 1.384 . S
N952 C948 1.427 1_554 S
N952 C949 1.384 1_554 S
N953 C945 1.427 . S
N953 C951 1.384 . S
H954 C960 0.930 . S
H955 C964 0.930 . S
H956 C969 0.929 . S
H957 C967 0.929 . S
H958 C962 0.931 . S
H959 C968 0.929 . S
C960 H954 0.930 . S
C960 C961 1.367 . S
C960 C968 1.378 . S
C961 C960 1.367 . S
C961 C969 1.433 . S
C962 H958 0.931 . S
C962 C964 1.374 1_556 S
C962 C966 1.353 . S
C963 C966 1.463 . S
C963 C968 1.350 . S
C963 N971 1.427 . S
C964 H955 0.930 . S
C964 C962 1.374 1_554 S
C964 C965 1.367 . S
C965 C964 1.367 . S
C965 C967 1.433 . S
C966 C962 1.353 . S
C966 C963 1.463 . S
C966 N970 1.427 . S
C967 H957 0.929 . S
C967 C965 1.433 . S
C967 N970 1.384 1_554 S
C968 H959 0.929 . S
C968 C960 1.378 . S
C968 C963 1.350 . S
C969 H956 0.929 . S
C969 C961 1.433 . S
C969 N971 1.384 . S
N970 C966 1.427 . S
N970 C967 1.384 1_556 S
N971 C963 1.427 . S
N971 C969 1.384 . S
H972 C978 0.930 . S
H973 C982 0.930 . S
H974 C987 0.929 . S
H975 C985 0.929 . S
H976 C980 0.929 . S
H977 C986 0.929 . S
C978 H972 0.930 . S
C978 C979 1.367 . S
C978 C986 1.378 . S
C979 C978 1.367 . S
C979 C987 1.432 1_554 S
C980 H976 0.929 . S
C980 C982 1.378 . S
C980 C984 1.350 . S
C981 C984 1.463 . S
C981 C986 1.350 1_556 S
C981 N989 1.427 . S
C982 H973 0.930 . S
C982 C980 1.378 . S
C982 C983 1.367 . S
C983 C982 1.367 . S
C983 C985 1.433 . S
C984 C980 1.350 . S
C984 C981 1.463 . S
C984 N988 1.427 . S
C985 H975 0.929 . S
C985 C983 1.433 . S
C985 N988 1.384 . S
C986 H977 0.929 . S
C986 C978 1.378 . S
C986 C981 1.350 1_554 S
C987 H974 0.929 . S
C987 C979 1.432 1_556 S
C987 N989 1.384 . S
N988 C984 1.427 . S
N988 C985 1.384 . S
N989 C981 1.427 . S
N989 C987 1.384 . S
H990 C996 0.930 . S
H991 C1000 0.930 . S
H992 C1005 0.929 . S
H993 C1003 0.929 . S
H994 C998 0.929 . S
H995 C1004 0.929 . S
C996 H990 0.930 . S
C996 C997 1.367 . S
C996 C1004 1.378 . S
C997 C996 1.367 . S
C997 C1005 1.433 . S
C998 H994 0.929 . S
C998 C1000 1.378 . S
C998 C1002 1.350 . S
C999 C1002 1.463 . S
C999 C1004 1.350 . S
C999 N1007 1.427 . S
C1000 H991 0.930 . S
C1000 C998 1.378 . S
C1000 C1001 1.367 . S
C1001 C1000 1.367 . S
C1001 C1003 1.433 . S
C1002 C998 1.350 . S
C1002 C999 1.463 . S
C1002 N1006 1.427 . S
C1003 H993 0.929 . S
C1003 C1001 1.433 . S
C1003 N1006 1.384 . S
C1004 H995 0.929 . S
C1004 C996 1.378 . S
C1004 C999 1.350 . S
C1005 H992 0.929 . S
C1005 C997 1.433 . S
C1005 N1007 1.384 . S
N1006 C1002 1.427 . S
N1006 C1003 1.384 . S
N1007 C999 1.427 . S
N1007 C1005 1.384 . S
H1008 C1014 0.930 . S
H1009 C1018 0.930 . S
H1010 C1023 0.929 . S
H1011 C1021 0.929 . S
H1012 C1016 0.929 . S
H1013 C1022 0.929 . S
C1014 H1008 0.930 . S
C1014 C1015 1.367 . S
C1014 C1022 1.378 . S
C1015 C1014 1.367 . S
C1015 C1023 1.433 . S
C1016 H1012 0.929 . S
C1016 C1018 1.378 . S
C1016 C1020 1.350 . S
C1017 C1020 1.463 . S
C1017 C1022 1.350 . S
C1017 N1025 1.427 . S
C1018 H1009 0.930 . S
C1018 C1016 1.378 . S
C1018 C1019 1.367 . S
C1019 C1018 1.367 . S
C1019 C1021 1.433 . S
C1020 C1016 1.350 . S
C1020 C1017 1.463 . S
C1020 N1024 1.427 . S
C1021 H1011 0.929 . S
C1021 C1019 1.433 . S
C1021 N1024 1.384 . S
C1022 H1013 0.929 . S
C1022 C1014 1.378 . S
C1022 C1017 1.350 . S
C1023 H1010 0.929 . S
C1023 C1015 1.433 . S
C1023 N1025 1.384 . S
N1024 C1020 1.427 . S
N1024 C1021 1.384 . S
N1025 C1017 1.427 . S
N1025 C1023 1.384 . S
H1026 C1032 0.930 . S
H1027 C1036 0.930 . S
H1028 C1041 0.929 . S
H1029 C1039 0.929 . S
H1030 C1034 0.929 . S
H1031 C1040 0.929 . S
C1032 H1026 0.930 . S
C1032 C1033 1.367 . S
C1032 C1040 1.378 . S
C1033 C1032 1.367 . S
C1033 C1041 1.433 . S
C1034 H1030 0.929 . S
C1034 C1036 1.378 . S
C1034 C1038 1.350 . S
C1035 C1038 1.463 . S
C1035 C1040 1.350 . S
C1035 N1043 1.427 . S
C1036 H1027 0.930 . S
C1036 C1034 1.378 . S
C1036 C1037 1.367 . S
C1037 C1036 1.367 . S
C1037 C1039 1.433 . S
C1038 C1034 1.350 . S
C1038 C1035 1.463 . S
C1038 N1042 1.427 . S
C1039 H1029 0.929 . S
C1039 C1037 1.433 . S
C1039 N1042 1.384 . S
C1040 H1031 0.929 . S
C1040 C1032 1.378 . S
C1040 C1035 1.350 . S
C1041 H1028 0.929 . S
C1041 C1033 1.433 . S
C1041 N1043 1.384 . S
N1042 C1038 1.427 . S
N1042 C1039 1.384 . S
N1043 C1035 1.427 . S
N1043 C1041 1.384 . S
H1044 C1050 0.930 . S
H1045 C1054 0.930 . S
H1046 C1059 0.929 . S
H1047 C1057 0.929 . S
H1048 C1052 0.929 . S
H1049 C1058 0.929 . S
C1050 H1044 0.930 . S
C1050 C1051 1.367 . S
C1050 C1058 1.378 . S
C1051 C1050 1.367 . S
C1051 C1059 1.433 . S
C1052 H1048 0.929 . S
C1052 C1054 1.378 . S
C1052 C1056 1.350 . S
C1053 C1056 1.463 . S
C1053 C1058 1.350 . S
C1053 N1061 1.427 . S
C1054 H1045 0.930 . S
C1054 C1052 1.378 . S
C1054 C1055 1.367 . S
C1055 C1054 1.367 . S
C1055 C1057 1.433 . S
C1056 C1052 1.350 . S
C1056 C1053 1.463 . S
C1056 N1060 1.427 . S
C1057 H1047 0.929 . S
C1057 C1055 1.433 . S
C1057 N1060 1.384 . S
C1058 H1049 0.929 . S
C1058 C1050 1.378 . S
C1058 C1053 1.350 . S
C1059 H1046 0.929 . S
C1059 C1051 1.433 . S
C1059 N1061 1.384 . S
N1060 C1056 1.427 . S
N1060 C1057 1.384 . S
N1061 C1053 1.427 . S
N1061 C1059 1.384 . S
H1062 C1068 0.930 . S
H1063 C1072 0.930 . S
H1064 C1077 0.929 . S
H1065 C1075 0.929 . S
H1066 C1070 0.929 . S
H1067 C1076 0.929 . S
C1068 H1062 0.930 . S
C1068 C1069 1.367 . S
C1068 C1076 1.378 . S
C1069 C1068 1.367 . S
C1069 C1077 1.433 . S
C1070 H1066 0.929 . S
C1070 C1072 1.378 . S
C1070 C1074 1.350 . S
C1071 C1074 1.463 . S
C1071 C1076 1.350 . S
C1071 N1079 1.427 . S
C1072 H1063 0.930 . S
C1072 C1070 1.378 . S
C1072 C1073 1.367 . S
C1073 C1072 1.367 . S
C1073 C1075 1.433 . S
C1074 C1070 1.350 . S
C1074 C1071 1.463 . S
C1074 N1078 1.427 . S
C1075 H1065 0.929 . S
C1075 C1073 1.433 . S
C1075 N1078 1.384 . S
C1076 H1067 0.929 . S
C1076 C1068 1.378 . S
C1076 C1071 1.350 . S
C1077 H1064 0.929 . S
C1077 C1069 1.433 . S
C1077 N1079 1.384 . S
N1078 C1074 1.427 . S
N1078 C1075 1.384 . S
N1079 C1071 1.427 . S
N1079 C1077 1.384 . S
H1080 C1086 0.930 . S
H1081 C1090 0.930 . S
H1082 C1095 0.929 . S
H1083 C1093 0.929 . S
H1084 C1088 0.929 . S
H1085 C1094 0.929 . S
C1086 H1080 0.930 . S
C1086 C1087 1.367 . S
C1086 C1094 1.378 . S
C1087 C1086 1.367 . S
C1087 C1095 1.433 . S
C1088 H1084 0.929 . S
C1088 C1090 1.378 . S
C1088 C1092 1.350 . S
C1089 C1092 1.463 . S
C1089 C1094 1.350 . S
C1089 N1097 1.427 . S
C1090 H1081 0.930 . S
C1090 C1088 1.378 . S
C1090 C1091 1.367 . S
C1091 C1090 1.367 . S
C1091 C1093 1.433 . S
C1092 C1088 1.350 . S
C1092 C1089 1.463 . S
C1092 N1096 1.427 . S
C1093 H1083 0.929 . S
C1093 C1091 1.433 . S
C1093 N1096 1.384 . S
C1094 H1085 0.929 . S
C1094 C1086 1.378 . S
C1094 C1089 1.350 . S
C1095 H1082 0.929 . S
C1095 C1087 1.433 . S
C1095 N1097 1.384 . S
N1096 C1092 1.427 . S
N1096 C1093 1.384 . S
N1097 C1089 1.427 . S
N1097 C1095 1.384 . S
H1098 C1104 0.930 . S
H1099 C1108 0.930 . S
H1100 C1113 0.929 . S
H1101 C1111 0.929 . S
H1102 C1106 0.929 . S
H1103 C1112 0.929 . S
C1104 H1098 0.930 . S
C1104 C1105 1.367 . S
C1104 C1112 1.378 . S
C1105 C1104 1.367 . S
C1105 C1113 1.433 . S
C1106 H1102 0.929 . S
C1106 C1108 1.378 . S
C1106 C1110 1.350 . S
C1107 C1110 1.463 . S
C1107 C1112 1.350 . S
C1107 N1115 1.427 . S
C1108 H1099 0.930 . S
C1108 C1106 1.378 . S
C1108 C1109 1.367 . S
C1109 C1108 1.367 . S
C1109 C1111 1.433 . S
C1110 C1106 1.350 . S
C1110 C1107 1.463 . S
C1110 N1114 1.427 . S
C1111 H1101 0.929 . S
C1111 C1109 1.433 . S
C1111 N1114 1.384 . S
C1112 H1103 0.929 . S
C1112 C1104 1.378 . S
C1112 C1107 1.350 . S
C1113 H1100 0.929 . S
C1113 C1105 1.433 . S
C1113 N1115 1.384 . S
N1114 C1110 1.427 . S
N1114 C1111 1.384 . S
N1115 C1107 1.427 . S
N1115 C1113 1.384 . S
H1116 C1122 0.930 . S
H1117 C1126 0.930 . S
H1118 C1131 0.929 . S
H1119 C1129 0.929 . S
H1120 C1124 0.929 . S
H1121 C1130 0.929 . S
C1122 H1116 0.930 . S
C1122 C1123 1.367 . S
C1122 C1130 1.378 . S
C1123 C1122 1.367 . S
C1123 C1131 1.433 . S
C1124 H1120 0.929 . S
C1124 C1126 1.378 . S
C1124 C1128 1.350 . S
C1125 C1128 1.463 . S
C1125 C1130 1.350 . S
C1125 N1133 1.427 . S
C1126 H1117 0.930 . S
C1126 C1124 1.378 . S
C1126 C1127 1.367 . S
C1127 C1126 1.367 . S
C1127 C1129 1.433 . S
C1128 C1124 1.350 . S
C1128 C1125 1.463 . S
C1128 N1132 1.427 . S
C1129 H1119 0.929 . S
C1129 C1127 1.433 . S
C1129 N1132 1.384 . S
C1130 H1121 0.929 . S
C1130 C1122 1.378 . S
C1130 C1125 1.350 . S
C1131 H1118 0.929 . S
C1131 C1123 1.433 . S
C1131 N1133 1.384 . S
N1132 C1128 1.427 . S
N1132 C1129 1.384 . S
N1133 C1125 1.427 . S
N1133 C1131 1.384 . S
H1134 C1140 0.930 . S
H1135 C1144 0.930 . S
H1136 C1149 0.929 . S
H1137 C1147 0.929 . S
H1138 C1142 0.929 . S
H1139 C1148 0.929 . S
C1140 H1134 0.930 . S
C1140 C1141 1.367 . S
C1140 C1148 1.378 . S
C1141 C1140 1.367 . S
C1141 C1149 1.433 . S
C1142 H1138 0.929 . S
C1142 C1144 1.378 . S
C1142 C1146 1.350 . S
C1143 C1146 1.463 . S
C1143 C1148 1.350 . S
C1143 N1151 1.427 . S
C1144 H1135 0.930 . S
C1144 C1142 1.378 . S
C1144 C1145 1.367 . S
C1145 C1144 1.367 . S
C1145 C1147 1.433 . S
C1146 C1142 1.350 . S
C1146 C1143 1.463 . S
C1146 N1150 1.427 . S
C1147 H1137 0.929 . S
C1147 C1145 1.433 . S
C1147 N1150 1.384 . S
C1148 H1139 0.929 . S
C1148 C1140 1.378 . S
C1148 C1143 1.350 . S
C1149 H1136 0.929 . S
C1149 C1141 1.433 . S
C1149 N1151 1.384 . S
N1150 C1146 1.427 . S
N1150 C1147 1.384 . S
N1151 C1143 1.427 . S
N1151 C1149 1.384 . S
H1152 C1158 0.930 . S
H1153 C1162 0.930 . S
H1154 C1167 0.929 . S
H1155 C1165 0.929 . S
H1156 C1160 0.929 . S
H1157 C1166 0.929 . S
C1158 H1152 0.930 . S
C1158 C1159 1.367 . S
C1158 C1166 1.378 . S
C1159 C1158 1.367 . S
C1159 C1167 1.433 . S
C1160 H1156 0.929 . S
C1160 C1162 1.378 . S
C1160 C1164 1.350 . S
C1161 C1164 1.463 . S
C1161 C1166 1.350 . S
C1161 N1169 1.427 . S
C1162 H1153 0.930 . S
C1162 C1160 1.378 . S
C1162 C1163 1.367 . S
C1163 C1162 1.367 . S
C1163 C1165 1.433 . S
C1164 C1160 1.350 . S
C1164 C1161 1.463 . S
C1164 N1168 1.427 . S
C1165 H1155 0.929 . S
C1165 C1163 1.433 . S
C1165 N1168 1.384 . S
C1166 H1157 0.929 . S
C1166 C1158 1.378 . S
C1166 C1161 1.350 . S
C1167 H1154 0.929 . S
C1167 C1159 1.433 . S
C1167 N1169 1.384 . S
N1168 C1164 1.427 . S
N1168 C1165 1.384 . S
N1169 C1161 1.427 . S
N1169 C1167 1.384 . S
H1170 C1176 0.930 . S
H1171 C1180 0.930 . S
H1172 C1185 0.929 . S
H1173 C1183 0.929 . S
H1174 C1178 0.929 . S
H1175 C1184 0.929 . S
C1176 H1170 0.930 . S
C1176 C1177 1.367 . S
C1176 C1184 1.378 . S
C1177 C1176 1.367 . S
C1177 C1185 1.433 . S
C1178 H1174 0.929 . S
C1178 C1180 1.378 . S
C1178 C1182 1.350 . S
C1179 C1182 1.463 . S
C1179 C1184 1.350 . S
C1179 N1187 1.427 . S
C1180 H1171 0.930 . S
C1180 C1178 1.378 . S
C1180 C1181 1.367 . S
C1181 C1180 1.367 . S
C1181 C1183 1.433 . S
C1182 C1178 1.350 . S
C1182 C1179 1.463 . S
C1182 N1186 1.427 . S
C1183 H1173 0.929 . S
C1183 C1181 1.433 . S
C1183 N1186 1.384 . S
C1184 H1175 0.929 . S
C1184 C1176 1.378 . S
C1184 C1179 1.350 . S
C1185 H1172 0.929 . S
C1185 C1177 1.433 . S
C1185 N1187 1.384 . S
N1186 C1182 1.427 . S
N1186 C1183 1.384 . S
N1187 C1179 1.427 . S
N1187 C1185 1.384 . S
H1188 C1194 0.930 . S
H1189 C1198 0.930 . S
H1190 C1203 0.929 . S
H1191 C1201 0.929 . S
H1192 C1196 0.929 . S
H1193 C1202 0.929 . S
C1194 H1188 0.930 . S
C1194 C1195 1.367 . S
C1194 C1202 1.378 . S
C1195 C1194 1.367 . S
C1195 C1203 1.433 . S
C1196 H1192 0.929 . S
C1196 C1198 1.378 . S
C1196 C1200 1.350 . S
C1197 C1200 1.463 . S
C1197 C1202 1.350 . S
C1197 N1205 1.427 . S
C1198 H1189 0.930 . S
C1198 C1196 1.378 . S
C1198 C1199 1.367 . S
C1199 C1198 1.367 . S
C1199 C1201 1.433 . S
C1200 C1196 1.350 . S
C1200 C1197 1.463 . S
C1200 N1204 1.427 . S
C1201 H1191 0.929 . S
C1201 C1199 1.433 . S
C1201 N1204 1.384 . S
C1202 H1193 0.929 . S
C1202 C1194 1.378 . S
C1202 C1197 1.350 . S
C1203 H1190 0.929 . S
C1203 C1195 1.433 . S
C1203 N1205 1.384 . S
N1204 C1200 1.427 . S
N1204 C1201 1.384 . S
N1205 C1197 1.427 . S
N1205 C1203 1.384 . S
H1206 C1212 0.930 . S
H1207 C1216 0.930 . S
H1208 C1221 0.929 . S
H1209 C1219 0.929 . S
H1210 C1214 0.929 . S
H1211 C1220 0.929 . S
C1212 H1206 0.930 . S
C1212 C1213 1.367 . S
C1212 C1220 1.378 . S
C1213 C1212 1.367 . S
C1213 C1221 1.433 . S
C1214 H1210 0.929 . S
C1214 C1216 1.378 . S
C1214 C1218 1.350 . S
C1215 C1218 1.463 . S
C1215 C1220 1.350 . S
C1215 N1223 1.427 . S
C1216 H1207 0.930 . S
C1216 C1214 1.378 . S
C1216 C1217 1.367 . S
C1217 C1216 1.367 . S
C1217 C1219 1.433 . S
C1218 C1214 1.350 . S
C1218 C1215 1.463 . S
C1218 N1222 1.427 . S
C1219 H1209 0.929 . S
C1219 C1217 1.433 . S
C1219 N1222 1.384 . S
C1220 H1211 0.929 . S
C1220 C1212 1.378 . S
C1220 C1215 1.350 . S
C1221 H1208 0.929 . S
C1221 C1213 1.433 . S
C1221 N1223 1.384 . S
N1222 C1218 1.427 . S
N1222 C1219 1.384 . S
N1223 C1215 1.427 . S
N1223 C1221 1.384 . S
H1224 C1230 0.930 . S
H1225 C1234 0.930 . S
H1226 C1239 0.929 . S
H1227 C1237 0.929 . S
H1228 C1232 0.929 . S
H1229 C1238 0.929 . S
C1230 H1224 0.930 . S
C1230 C1231 1.367 . S
C1230 C1238 1.378 . S
C1231 C1230 1.367 . S
C1231 C1239 1.433 . S
C1232 H1228 0.929 . S
C1232 C1234 1.378 . S
C1232 C1236 1.350 . S
C1233 C1236 1.463 . S
C1233 C1238 1.350 . S
C1233 N1241 1.427 . S
C1234 H1225 0.930 . S
C1234 C1232 1.378 . S
C1234 C1235 1.367 . S
C1235 C1234 1.367 . S
C1235 C1237 1.433 . S
C1236 C1232 1.350 . S
C1236 C1233 1.463 . S
C1236 N1240 1.427 . S
C1237 H1227 0.929 . S
C1237 C1235 1.433 . S
C1237 N1240 1.384 . S
C1238 H1229 0.929 . S
C1238 C1230 1.378 . S
C1238 C1233 1.350 . S
C1239 H1226 0.929 . S
C1239 C1231 1.433 . S
C1239 N1241 1.384 . S
N1240 C1236 1.427 . S
N1240 C1237 1.384 . S
N1241 C1233 1.427 . S
N1241 C1239 1.384 . S
H1242 C1248 0.930 . S
H1243 C1252 0.930 . S
H1244 C1257 0.929 . S
H1245 C1255 0.929 . S
H1246 C1250 0.929 . S
H1247 C1256 0.929 . S
C1248 H1242 0.930 . S
C1248 C1249 1.367 . S
C1248 C1256 1.378 . S
C1249 C1248 1.367 . S
C1249 C1257 1.433 . S
C1250 H1246 0.929 . S
C1250 C1252 1.378 . S
C1250 C1254 1.350 . S
C1251 C1254 1.463 . S
C1251 C1256 1.350 . S
C1251 N1259 1.427 . S
C1252 H1243 0.930 . S
C1252 C1250 1.378 . S
C1252 C1253 1.367 . S
C1253 C1252 1.367 . S
C1253 C1255 1.433 . S
C1254 C1250 1.350 . S
C1254 C1251 1.463 . S
C1254 N1258 1.427 . S
C1255 H1245 0.929 . S
C1255 C1253 1.433 . S
C1255 N1258 1.384 . S
C1256 H1247 0.929 . S
C1256 C1248 1.378 . S
C1256 C1251 1.350 . S
C1257 H1244 0.929 . S
C1257 C1249 1.433 . S
C1257 N1259 1.384 . S
N1258 C1254 1.427 . S
N1258 C1255 1.384 . S
N1259 C1251 1.427 . S
N1259 C1257 1.384 . S
H1260 C1266 0.930 . S
H1261 C1270 0.930 . S
H1262 C1275 0.929 . S
H1263 C1273 0.929 . S
H1264 C1268 0.929 . S
H1265 C1274 0.929 . S
C1266 H1260 0.930 . S
C1266 C1267 1.367 . S
C1266 C1274 1.378 . S
C1267 C1266 1.367 . S
C1267 C1275 1.433 . S
C1268 H1264 0.929 . S
C1268 C1270 1.378 . S
C1268 C1272 1.350 . S
C1269 C1272 1.463 . S
C1269 C1274 1.350 . S
C1269 N1277 1.427 . S
C1270 H1261 0.930 . S
C1270 C1268 1.378 . S
C1270 C1271 1.367 . S
C1271 C1270 1.367 . S
C1271 C1273 1.433 . S
C1272 C1268 1.350 . S
C1272 C1269 1.463 . S
C1272 N1276 1.427 . S
C1273 H1263 0.929 . S
C1273 C1271 1.433 . S
C1273 N1276 1.384 . S
C1274 H1265 0.929 . S
C1274 C1266 1.378 . S
C1274 C1269 1.350 . S
C1275 H1262 0.929 . S
C1275 C1267 1.433 . S
C1275 N1277 1.384 . S
N1276 C1272 1.427 . S
N1276 C1273 1.384 . S
N1277 C1269 1.427 . S
N1277 C1275 1.384 . S
H1278 C1284 0.930 . S
H1279 C1288 0.930 . S
H1280 C1293 0.929 . S
H1281 C1291 0.929 . S
H1282 C1286 0.929 . S
H1283 C1292 0.929 . S
C1284 H1278 0.930 . S
C1284 C1285 1.367 . S
C1284 C1292 1.378 . S
C1285 C1284 1.367 . S
C1285 C1293 1.433 . S
C1286 H1282 0.929 . S
C1286 C1288 1.378 . S
C1286 C1290 1.350 . S
C1287 C1290 1.463 . S
C1287 C1292 1.350 . S
C1287 N1295 1.427 . S
C1288 H1279 0.930 . S
C1288 C1286 1.378 . S
C1288 C1289 1.367 . S
C1289 C1288 1.367 . S
C1289 C1291 1.433 . S
C1290 C1286 1.350 . S
C1290 C1287 1.463 . S
C1290 N1294 1.427 . S
C1291 H1281 0.929 . S
C1291 C1289 1.433 . S
C1291 N1294 1.384 . S
C1292 H1283 0.929 . S
C1292 C1284 1.378 . S
C1292 C1287 1.350 . S
C1293 H1280 0.929 . S
C1293 C1285 1.433 . S
C1293 N1295 1.384 . S
N1294 C1290 1.427 . S
N1294 C1291 1.384 . S
N1295 C1287 1.427 . S
N1295 C1293 1.384 . S
H1296 C1302 0.930 . S
H1297 C1306 0.930 . S
H1298 C1311 0.929 . S
H1299 C1309 0.929 . S
H1300 C1304 0.929 . S
H1301 C1310 0.929 . S
C1302 H1296 0.930 . S
C1302 C1303 1.367 . S
C1302 C1310 1.378 . S
C1303 C1302 1.367 . S
C1303 C1311 1.433 . S
C1304 H1300 0.929 . S
C1304 C1306 1.378 . S
C1304 C1308 1.350 . S
C1305 C1308 1.463 . S
C1305 C1310 1.350 . S
C1305 N1313 1.427 . S
C1306 H1297 0.930 . S
C1306 C1304 1.378 . S
C1306 C1307 1.367 . S
C1307 C1306 1.367 . S
C1307 C1309 1.433 . S
C1308 C1304 1.350 . S
C1308 C1305 1.463 . S
C1308 N1312 1.427 . S
C1309 H1299 0.929 . S
C1309 C1307 1.433 . S
C1309 N1312 1.384 . S
C1310 H1301 0.929 . S
C1310 C1302 1.378 . S
C1310 C1305 1.350 . S
C1311 H1298 0.929 . S
C1311 C1303 1.433 . S
C1311 N1313 1.384 . S
N1312 C1308 1.427 . S
N1312 C1309 1.384 . S
N1313 C1305 1.427 . S
N1313 C1311 1.384 . S
H1314 C1320 0.930 . S
H1315 C1324 0.930 . S
H1316 C1329 0.929 . S
H1317 C1327 0.929 . S
H1318 C1322 0.929 . S
H1319 C1328 0.929 . S
C1320 H1314 0.930 . S
C1320 C1321 1.367 . S
C1320 C1328 1.378 . S
C1321 C1320 1.367 . S
C1321 C1329 1.433 . S
C1322 H1318 0.929 . S
C1322 C1324 1.378 . S
C1322 C1326 1.350 . S
C1323 C1326 1.463 . S
C1323 C1328 1.350 . S
C1323 N1331 1.427 . S
C1324 H1315 0.930 . S
C1324 C1322 1.378 . S
C1324 C1325 1.367 . S
C1325 C1324 1.367 . S
C1325 C1327 1.433 . S
C1326 C1322 1.350 . S
C1326 C1323 1.463 . S
C1326 N1330 1.427 . S
C1327 H1317 0.929 . S
C1327 C1325 1.433 . S
C1327 N1330 1.384 . S
C1328 H1319 0.929 . S
C1328 C1320 1.378 . S
C1328 C1323 1.350 . S
C1329 H1316 0.929 . S
C1329 C1321 1.433 . S
C1329 N1331 1.384 . S
N1330 C1326 1.427 . S
N1330 C1327 1.384 . S
N1331 C1323 1.427 . S
N1331 C1329 1.384 . S
H1332 C1338 0.930 . S
H1333 C1342 0.930 . S
H1334 C1347 0.929 . S
H1335 C1345 0.929 . S
H1336 C1340 0.929 . S
H1337 C1346 0.929 . S
C1338 H1332 0.930 . S
C1338 C1339 1.367 . S
C1338 C1346 1.378 . S
C1339 C1338 1.367 . S
C1339 C1347 1.433 . S
C1340 H1336 0.929 . S
C1340 C1342 1.378 . S
C1340 C1344 1.350 . S
C1341 C1344 1.463 . S
C1341 C1346 1.350 . S
C1341 N1349 1.427 . S
C1342 H1333 0.930 . S
C1342 C1340 1.378 . S
C1342 C1343 1.367 . S
C1343 C1342 1.367 . S
C1343 C1345 1.433 . S
C1344 C1340 1.350 . S
C1344 C1341 1.463 . S
C1344 N1348 1.427 . S
C1345 H1335 0.929 . S
C1345 C1343 1.433 . S
C1345 N1348 1.384 . S
C1346 H1337 0.929 . S
C1346 C1338 1.378 . S
C1346 C1341 1.350 . S
C1347 H1334 0.929 . S
C1347 C1339 1.433 . S
C1347 N1349 1.384 . S
N1348 C1344 1.427 . S
N1348 C1345 1.384 . S
N1349 C1341 1.427 . S
N1349 C1347 1.384 . S
H1350 C1356 0.930 . S
H1351 C1360 0.930 . S
H1352 C1365 0.929 . S
H1353 C1363 0.929 . S
H1354 C1358 0.929 . S
H1355 C1364 0.929 . S
C1356 H1350 0.930 . S
C1356 C1357 1.367 . S
C1356 C1364 1.378 . S
C1357 C1356 1.367 . S
C1357 C1365 1.433 . S
C1358 H1354 0.929 . S
C1358 C1360 1.378 . S
C1358 C1362 1.350 . S
C1359 C1362 1.463 . S
C1359 C1364 1.350 . S
C1359 N1367 1.427 . S
C1360 H1351 0.930 . S
C1360 C1358 1.378 . S
C1360 C1361 1.367 . S
C1361 C1360 1.367 . S
C1361 C1363 1.433 . S
C1362 C1358 1.350 . S
C1362 C1359 1.463 . S
C1362 N1366 1.427 . S
C1363 H1353 0.929 . S
C1363 C1361 1.433 . S
C1363 N1366 1.384 . S
C1364 H1355 0.929 . S
C1364 C1356 1.378 . S
C1364 C1359 1.350 . S
C1365 H1352 0.929 . S
C1365 C1357 1.433 . S
C1365 N1367 1.384 . S
N1366 C1362 1.427 . S
N1366 C1363 1.384 . S
N1367 C1359 1.427 . S
N1367 C1365 1.384 . S
H1368 C1374 0.930 . S
H1369 C1378 0.930 . S
H1370 C1383 0.929 . S
H1371 C1381 0.929 . S
H1372 C1376 0.929 . S
H1373 C1382 0.929 . S
C1374 H1368 0.930 . S
C1374 C1375 1.367 . S
C1374 C1382 1.378 . S
C1375 C1374 1.367 . S
C1375 C1383 1.433 . S
C1376 H1372 0.929 . S
C1376 C1378 1.378 . S
C1376 C1380 1.350 . S
C1377 C1380 1.463 . S
C1377 C1382 1.350 . S
C1377 N1385 1.427 . S
C1378 H1369 0.930 . S
C1378 C1376 1.378 . S
C1378 C1379 1.367 . S
C1379 C1378 1.367 . S
C1379 C1381 1.433 . S
C1380 C1376 1.350 . S
C1380 C1377 1.463 . S
C1380 N1384 1.427 . S
C1381 H1371 0.929 . S
C1381 C1379 1.433 . S
C1381 N1384 1.384 . S
C1382 H1373 0.929 . S
C1382 C1374 1.378 . S
C1382 C1377 1.350 . S
C1383 H1370 0.929 . S
C1383 C1375 1.433 . S
C1383 N1385 1.384 . S
N1384 C1380 1.427 . S
N1384 C1381 1.384 . S
N1385 C1377 1.427 . S
N1385 C1383 1.384 . S
H1386 C1392 0.930 . S
H1387 C1396 0.930 . S
H1388 C1401 0.929 . S
H1389 C1399 0.929 . S
H1390 C1394 0.929 . S
H1391 C1400 0.929 . S
C1392 H1386 0.930 . S
C1392 C1393 1.367 . S
C1392 C1400 1.378 . S
C1393 C1392 1.367 . S
C1393 C1401 1.433 . S
C1394 H1390 0.929 . S
C1394 C1396 1.378 . S
C1394 C1398 1.350 . S
C1395 C1398 1.463 . S
C1395 C1400 1.350 . S
C1395 N1403 1.427 . S
C1396 H1387 0.930 . S
C1396 C1394 1.378 . S
C1396 C1397 1.367 . S
C1397 C1396 1.367 . S
C1397 C1399 1.433 . S
C1398 C1394 1.350 . S
C1398 C1395 1.463 . S
C1398 N1402 1.427 . S
C1399 H1389 0.929 . S
C1399 C1397 1.433 . S
C1399 N1402 1.384 . S
C1400 H1391 0.929 . S
C1400 C1392 1.378 . S
C1400 C1395 1.350 . S
C1401 H1388 0.929 . S
C1401 C1393 1.433 . S
C1401 N1403 1.384 . S
N1402 C1398 1.427 . S
N1402 C1399 1.384 . S
N1403 C1395 1.427 . S
N1403 C1401 1.384 . S
H1404 C1410 0.930 . S
H1405 C1414 0.930 . S
H1406 C1419 0.929 . S
H1407 C1417 0.929 . S
H1408 C1412 0.929 . S
H1409 C1418 0.929 . S
C1410 H1404 0.930 . S
C1410 C1411 1.367 . S
C1410 C1418 1.378 . S
C1411 C1410 1.367 . S
C1411 C1419 1.433 . S
C1412 H1408 0.929 . S
C1412 C1414 1.378 . S
C1412 C1416 1.350 . S
C1413 C1416 1.463 . S
C1413 C1418 1.350 . S
C1413 N1421 1.427 . S
C1414 H1405 0.930 . S
C1414 C1412 1.378 . S
C1414 C1415 1.367 . S
C1415 C1414 1.367 . S
C1415 C1417 1.433 . S
C1416 C1412 1.350 . S
C1416 C1413 1.463 . S
C1416 N1420 1.427 . S
C1417 H1407 0.929 . S
C1417 C1415 1.433 . S
C1417 N1420 1.384 . S
C1418 H1409 0.929 . S
C1418 C1410 1.378 . S
C1418 C1413 1.350 . S
C1419 H1406 0.929 . S
C1419 C1411 1.433 . S
C1419 N1421 1.384 . S
N1420 C1416 1.427 . S
N1420 C1417 1.384 . S
N1421 C1413 1.427 . S
N1421 C1419 1.384 . S
H1422 C1428 0.930 . S
H1423 C1432 0.930 . S
H1424 C1437 0.929 . S
H1425 C1435 0.929 . S
H1426 C1430 0.929 . S
H1427 C1436 0.929 . S
C1428 H1422 0.930 . S
C1428 C1429 1.367 . S
C1428 C1436 1.378 . S
C1429 C1428 1.367 . S
C1429 C1437 1.433 . S
C1430 H1426 0.929 . S
C1430 C1432 1.378 . S
C1430 C1434 1.350 . S
C1431 C1434 1.463 . S
C1431 C1436 1.350 . S
C1431 N1439 1.427 . S
C1432 H1423 0.930 . S
C1432 C1430 1.378 . S
C1432 C1433 1.367 . S
C1433 C1432 1.367 . S
C1433 C1435 1.433 . S
C1434 C1430 1.350 . S
C1434 C1431 1.463 . S
C1434 N1438 1.427 . S
C1435 H1425 0.929 . S
C1435 C1433 1.433 . S
C1435 N1438 1.384 . S
C1436 H1427 0.929 . S
C1436 C1428 1.378 . S
C1436 C1431 1.350 . S
C1437 H1424 0.929 . S
C1437 C1429 1.433 . S
C1437 N1439 1.384 . S
N1438 C1434 1.427 . S
N1438 C1435 1.384 . S
N1439 C1431 1.427 . S
N1439 C1437 1.384 . S
H1440 C1446 0.930 . S
H1441 C1450 0.930 . S
H1442 C1455 0.929 . S
H1443 C1453 0.929 . S
H1444 C1448 0.929 . S
H1445 C1454 0.929 . S
C1446 H1440 0.930 . S
C1446 C1447 1.367 . S
C1446 C1454 1.378 . S
C1447 C1446 1.367 . S
C1447 C1455 1.433 . S
C1448 H1444 0.929 . S
C1448 C1450 1.378 . S
C1448 C1452 1.350 . S
C1449 C1452 1.463 . S
C1449 C1454 1.350 . S
C1449 N1457 1.427 . S
C1450 H1441 0.930 . S
C1450 C1448 1.378 . S
C1450 C1451 1.367 . S
C1451 C1450 1.367 . S
C1451 C1453 1.433 . S
C1452 C1448 1.350 . S
C1452 C1449 1.463 . S
C1452 N1456 1.427 . S
C1453 H1443 0.929 . S
C1453 C1451 1.433 . S
C1453 N1456 1.384 . S
C1454 H1445 0.929 . S
C1454 C1446 1.378 . S
C1454 C1449 1.350 . S
C1455 H1442 0.929 . S
C1455 C1447 1.433 . S
C1455 N1457 1.384 . S
N1456 C1452 1.427 . S
N1456 C1453 1.384 . S
N1457 C1449 1.427 . S
N1457 C1455 1.384 . S
H1458 C1464 0.930 . S
H1459 C1468 0.930 . S
H1460 C1473 0.929 . S
H1461 C1471 0.929 . S
H1462 C1466 0.929 . S
H1463 C1472 0.929 . S
C1464 H1458 0.930 . S
C1464 C1465 1.367 . S
C1464 C1472 1.378 . S
C1465 C1464 1.367 . S
C1465 C1473 1.433 . S
C1466 H1462 0.929 . S
C1466 C1468 1.378 . S
C1466 C1470 1.350 . S
C1467 C1470 1.463 . S
C1467 C1472 1.350 . S
C1467 N1475 1.427 . S
C1468 H1459 0.930 . S
C1468 C1466 1.378 . S
C1468 C1469 1.367 . S
C1469 C1468 1.367 . S
C1469 C1471 1.433 . S
C1470 C1466 1.350 . S
C1470 C1467 1.463 . S
C1470 N1474 1.427 . S
C1471 H1461 0.929 . S
C1471 C1469 1.433 . S
C1471 N1474 1.384 . S
C1472 H1463 0.929 . S
C1472 C1464 1.378 . S
C1472 C1467 1.350 . S
C1473 H1460 0.929 . S
C1473 C1465 1.433 . S
C1473 N1475 1.384 . S
N1474 C1470 1.427 . S
N1474 C1471 1.384 . S
N1475 C1467 1.427 . S
N1475 C1473 1.384 . S
H1476 C1482 0.930 . S
H1477 C1486 0.930 . S
H1478 C1491 0.929 . S
H1479 C1489 0.929 . S
H1480 C1484 0.929 . S
H1481 C1490 0.929 . S
C1482 H1476 0.930 . S
C1482 C1483 1.367 . S
C1482 C1490 1.378 . S
C1483 C1482 1.367 . S
C1483 C1491 1.433 . S
C1484 H1480 0.929 . S
C1484 C1486 1.378 . S
C1484 C1488 1.350 . S
C1485 C1488 1.463 . S
C1485 C1490 1.350 . S
C1485 N1493 1.427 . S
C1486 H1477 0.930 . S
C1486 C1484 1.378 . S
C1486 C1487 1.367 . S
C1487 C1486 1.367 . S
C1487 C1489 1.433 . S
C1488 C1484 1.350 . S
C1488 C1485 1.463 . S
C1488 N1492 1.427 . S
C1489 H1479 0.929 . S
C1489 C1487 1.433 . S
C1489 N1492 1.384 . S
C1490 H1481 0.929 . S
C1490 C1482 1.378 . S
C1490 C1485 1.350 . S
C1491 H1478 0.929 . S
C1491 C1483 1.433 . S
C1491 N1493 1.384 . S
N1492 C1488 1.427 . S
N1492 C1489 1.384 . S
N1493 C1485 1.427 . S
N1493 C1491 1.384 . S
H1494 C1500 0.930 . S
H1495 C1504 0.930 . S
H1496 C1509 0.929 . S
H1497 C1507 0.929 . S
H1498 C1502 0.929 . S
H1499 C1508 0.929 . S
C1500 H1494 0.930 . S
C1500 C1501 1.367 1_565 S
C1500 C1508 1.378 . S
C1501 C1500 1.367 1_545 S
C1501 C1509 1.433 . S
C1502 H1498 0.929 . S
C1502 C1504 1.378 . S
C1502 C1506 1.350 1_545 S
C1503 C1506 1.463 1_545 S
C1503 C1508 1.350 1_545 S
C1503 N1511 1.427 . S
C1504 H1495 0.930 . S
C1504 C1502 1.378 . S
C1504 C1505 1.367 1_545 S
C1505 C1504 1.367 1_565 S
C1505 C1507 1.433 . S
C1506 C1502 1.350 1_565 S
C1506 C1503 1.463 1_565 S
C1506 N1510 1.427 . S
C1507 H1497 0.929 . S
C1507 C1505 1.433 . S
C1507 N1510 1.384 . S
C1508 H1499 0.929 . S
C1508 C1500 1.378 . S
C1508 C1503 1.350 1_565 S
C1509 H1496 0.929 . S
C1509 C1501 1.433 . S
C1509 N1511 1.384 . S
N1510 C1506 1.427 . S
N1510 C1507 1.384 . S
N1511 C1503 1.427 . S
N1511 C1509 1.384 . S
H1512 C1518 0.930 . S
H1513 C1522 0.930 . S
H1514 C1527 0.929 . S
H1515 C1525 0.929 . S
H1516 C1520 0.929 . S
H1517 C1526 0.929 . S
C1518 H1512 0.930 . S
C1518 C1519 1.367 1_655 S
C1518 C1526 1.378 . S
C1519 C1518 1.367 1_455 S
C1519 C1527 1.433 . S
C1520 H1516 0.929 . S
C1520 C1522 1.378 . S
C1520 C1524 1.350 1_455 S
C1521 C1524 1.463 1_455 S
C1521 C1526 1.350 1_455 S
C1521 N1529 1.427 . S
C1522 H1513 0.930 . S
C1522 C1520 1.378 . S
C1522 C1523 1.367 1_455 S
C1523 C1522 1.367 1_655 S
C1523 C1525 1.433 . S
C1524 C1520 1.350 1_655 S
C1524 C1521 1.463 1_655 S
C1524 N1528 1.427 . S
C1525 H1515 0.929 . S
C1525 C1523 1.433 . S
C1525 N1528 1.384 . S
C1526 H1517 0.929 . S
C1526 C1518 1.378 . S
C1526 C1521 1.350 1_655 S
C1527 H1514 0.929 . S
C1527 C1519 1.433 . S
C1527 N1529 1.384 . S
N1528 C1524 1.427 . S
N1528 C1525 1.384 . S
N1529 C1521 1.427 . S
N1529 C1527 1.384 . S
H1530 C1536 0.930 . S
H1531 C1540 0.930 . S
H1532 C1545 0.929 . S
H1533 C1543 0.929 . S
H1534 C1538 0.929 . S
H1535 C1544 0.929 . S
C1536 H1530 0.930 . S
C1536 C1537 1.367 . S
C1536 C1544 1.378 . S
C1537 C1536 1.367 . S
C1537 C1545 1.433 . S
C1538 H1534 0.929 . S
C1538 C1540 1.378 . S
C1538 C1542 1.350 . S
C1539 C1542 1.463 . S
C1539 C1544 1.350 . S
C1539 N1547 1.427 . S
C1540 H1531 0.930 . S
C1540 C1538 1.378 . S
C1540 C1541 1.367 . S
C1541 C1540 1.367 . S
C1541 C1543 1.433 . S
C1542 C1538 1.350 . S
C1542 C1539 1.463 . S
C1542 N1546 1.427 . S
C1543 H1533 0.929 . S
C1543 C1541 1.433 . S
C1543 N1546 1.384 . S
C1544 H1535 0.929 . S
C1544 C1536 1.378 . S
C1544 C1539 1.350 . S
C1545 H1532 0.929 . S
C1545 C1537 1.433 . S
C1545 N1547 1.384 . S
N1546 C1542 1.427 . S
N1546 C1543 1.384 . S
N1547 C1539 1.427 . S
N1547 C1545 1.384 . S
H1548 C1554 0.930 . S
H1549 C1558 0.930 . S
H1550 C1563 0.929 . S
H1551 C1561 0.929 . S
H1552 C1556 0.929 . S
H1553 C1562 0.929 . S
C1554 H1548 0.930 . S
C1554 C1555 1.367 1_565 S
C1554 C1562 1.378 . S
C1555 C1554 1.367 1_545 S
C1555 C1563 1.433 . S
C1556 H1552 0.929 . S
C1556 C1558 1.378 . S
C1556 C1560 1.350 1_545 S
C1557 C1560 1.463 1_545 S
C1557 C1562 1.350 1_545 S
C1557 N1565 1.427 . S
C1558 H1549 0.930 . S
C1558 C1556 1.378 . S
C1558 C1559 1.367 1_545 S
C1559 C1558 1.367 1_565 S
C1559 C1561 1.433 . S
C1560 C1556 1.350 1_565 S
C1560 C1557 1.463 1_565 S
C1560 N1564 1.427 . S
C1561 H1551 0.929 . S
C1561 C1559 1.433 . S
C1561 N1564 1.384 . S
C1562 H1553 0.929 . S
C1562 C1554 1.378 . S
C1562 C1557 1.350 1_565 S
C1563 H1550 0.929 . S
C1563 C1555 1.433 . S
C1563 N1565 1.384 . S
N1564 C1560 1.427 . S
N1564 C1561 1.384 . S
N1565 C1557 1.427 . S
N1565 C1563 1.384 . S
H1566 C1572 0.930 . S
H1567 C1576 0.930 . S
H1568 C1581 0.929 . S
H1569 C1579 0.929 . S
H1570 C1574 0.929 . S
H1571 C1580 0.929 . S
C1572 H1566 0.930 . S
C1572 C1573 1.367 . S
C1572 C1580 1.378 . S
C1573 C1572 1.367 . S
C1573 C1581 1.433 . S
C1574 H1570 0.929 . S
C1574 C1576 1.378 . S
C1574 C1578 1.350 . S
C1575 C1578 1.463 1_655 S
C1575 C1580 1.350 . S
C1575 N1583 1.427 1_655 S
C1576 H1567 0.930 . S
C1576 C1574 1.378 . S
C1576 C1577 1.367 . S
C1577 C1576 1.367 . S
C1577 C1579 1.433 . S
C1578 C1574 1.350 . S
C1578 C1575 1.463 1_455 S
C1578 N1582 1.427 1_455 S
C1579 H1569 0.929 . S
C1579 C1577 1.433 . S
C1579 N1582 1.384 1_455 S
C1580 H1571 0.929 . S
C1580 C1572 1.378 . S
C1580 C1575 1.350 . S
C1581 H1568 0.929 . S
C1581 C1573 1.433 . S
C1581 N1583 1.384 1_655 S
N1582 C1578 1.427 1_655 S
N1582 C1579 1.384 1_655 S
N1583 C1575 1.427 1_455 S
N1583 C1581 1.384 1_455 S
H1584 C1590 0.930 . S
H1585 C1594 0.930 . S
H1586 C1599 0.929 . S
H1587 C1597 0.929 . S
H1588 C1592 0.929 . S
H1589 C1598 0.929 . S
C1590 H1584 0.930 . S
C1590 C1591 1.367 . S
C1590 C1598 1.378 . S
C1591 C1590 1.367 . S
C1591 C1599 1.433 . S
C1592 H1588 0.929 . S
C1592 C1594 1.378 . S
C1592 C1596 1.350 . S
C1593 C1596 1.463 . S
C1593 C1598 1.350 . S
C1593 N1601 1.427 . S
C1594 H1585 0.930 . S
C1594 C1592 1.378 . S
C1594 C1595 1.367 . S
C1595 C1594 1.367 . S
C1595 C1597 1.433 . S
C1596 C1592 1.350 . S
C1596 C1593 1.463 . S
C1596 N1600 1.427 . S
C1597 H1587 0.929 . S
C1597 C1595 1.433 . S
C1597 N1600 1.384 . S
C1598 H1589 0.929 . S
C1598 C1590 1.378 . S
C1598 C1593 1.350 . S
C1599 H1586 0.929 . S
C1599 C1591 1.433 . S
C1599 N1601 1.384 . S
N1600 C1596 1.427 . S
N1600 C1597 1.384 . S
N1601 C1593 1.427 . S
N1601 C1599 1.384 . S
H1602 C1608 0.930 . S
H1603 C1612 0.930 . S
H1604 C1617 0.929 . S
H1605 C1615 0.929 . S
H1606 C1610 0.929 . S
H1607 C1616 0.929 . S
C1608 H1602 0.930 . S
C1608 C1609 1.367 . S
C1608 C1616 1.378 . S
C1609 C1608 1.367 . S
C1609 C1617 1.433 . S
C1610 H1606 0.929 . S
C1610 C1612 1.378 . S
C1610 C1614 1.350 . S
C1611 C1614 1.463 . S
C1611 C1616 1.350 . S
C1611 N1619 1.427 . S
C1612 H1603 0.930 . S
C1612 C1610 1.378 . S
C1612 C1613 1.367 . S
C1613 C1612 1.367 . S
C1613 C1615 1.433 . S
C1614 C1610 1.350 . S
C1614 C1611 1.463 . S
C1614 N1618 1.427 . S
C1615 H1605 0.929 . S
C1615 C1613 1.433 . S
C1615 N1618 1.384 . S
C1616 H1607 0.929 . S
C1616 C1608 1.378 . S
C1616 C1611 1.350 . S
C1617 H1604 0.929 . S
C1617 C1609 1.433 . S
C1617 N1619 1.384 . S
N1618 C1614 1.427 . S
N1618 C1615 1.384 . S
N1619 C1611 1.427 . S
N1619 C1617 1.384 . S
H1620 C1626 0.930 . S
H1621 C1630 0.930 . S
H1622 C1635 0.929 . S
H1623 C1633 0.929 . S
H1624 C1628 0.929 . S
H1625 C1634 0.929 . S
C1626 H1620 0.930 . S
C1626 C1627 1.367 . S
C1626 C1634 1.378 . S
C1627 C1626 1.367 . S
C1627 C1635 1.433 . S
C1628 H1624 0.929 . S
C1628 C1630 1.378 . S
C1628 C1632 1.350 . S
C1629 C1632 1.463 . S
C1629 C1634 1.350 . S
C1629 N1637 1.427 . S
C1630 H1621 0.930 . S
C1630 C1628 1.378 . S
C1630 C1631 1.367 . S
C1631 C1630 1.367 . S
C1631 C1633 1.433 . S
C1632 C1628 1.350 . S
C1632 C1629 1.463 . S
C1632 N1636 1.427 . S
C1633 H1623 0.929 . S
C1633 C1631 1.433 . S
C1633 N1636 1.384 . S
C1634 H1625 0.929 . S
C1634 C1626 1.378 . S
C1634 C1629 1.350 . S
C1635 H1622 0.929 . S
C1635 C1627 1.433 . S
C1635 N1637 1.384 . S
N1636 C1632 1.427 . S
N1636 C1633 1.384 . S
N1637 C1629 1.427 . S
N1637 C1635 1.384 . S
H1638 C1644 0.930 . S
H1639 C1648 0.930 1_556 S
H1640 C1653 0.929 . S
H1641 C1651 0.929 . S
H1642 C1646 0.929 . S
H1643 C1652 0.929 . S
C1644 H1638 0.930 . S
C1644 C1645 1.367 . S
C1644 C1652 1.378 . S
C1645 C1644 1.367 . S
C1645 C1653 1.433 . S
C1646 H1642 0.929 . S
C1646 C1648 1.378 . S
C1646 C1650 1.350 . S
C1647 C1650 1.463 . S
C1647 C1652 1.350 . S
C1647 N1655 1.427 . S
C1648 H1639 0.930 1_554 S
C1648 C1646 1.378 . S
C1648 C1649 1.367 1_554 S
C1649 C1648 1.367 1_556 S
C1649 C1651 1.433 . S
C1650 C1646 1.350 . S
C1650 C1647 1.463 . S
C1650 N1654 1.427 . S
C1651 H1641 0.929 . S
C1651 C1649 1.433 . S
C1651 N1654 1.384 1_556 S
C1652 H1643 0.929 . S
C1652 C1644 1.378 . S
C1652 C1647 1.350 . S
C1653 H1640 0.929 . S
C1653 C1645 1.433 . S
C1653 N1655 1.384 . S
N1654 C1650 1.427 . S
N1654 C1651 1.384 1_554 S
N1655 C1647 1.427 . S
N1655 C1653 1.384 . S
H1656 C1662 0.930 . S
H1657 C1666 0.930 . S
H1658 C1671 0.929 . S
H1659 C1669 0.929 1_556 S
H1660 C1664 0.929 . S
H1661 C1670 0.929 . S
C1662 H1656 0.930 . S
C1662 C1663 1.367 . S
C1662 C1670 1.378 . S
C1663 C1662 1.367 . S
C1663 C1671 1.433 . S
C1664 H1660 0.929 . S
C1664 C1666 1.378 1_554 S
C1664 C1668 1.350 . S
C1665 C1668 1.463 . S
C1665 C1670 1.350 . S
C1665 N1673 1.427 . S
C1666 H1657 0.930 . S
C1666 C1664 1.378 1_556 S
C1666 C1667 1.367 . S
C1667 C1666 1.367 . S
C1667 C1669 1.433 1_556 S
C1668 C1664 1.350 . S
C1668 C1665 1.463 . S
C1668 N1672 1.427 . S
C1669 H1659 0.929 1_554 S
C1669 C1667 1.433 1_554 S
C1669 N1672 1.384 . S
C1670 H1661 0.929 . S
C1670 C1662 1.378 . S
C1670 C1665 1.350 . S
C1671 H1658 0.929 . S
C1671 C1663 1.433 . S
C1671 N1673 1.384 . S
N1672 C1668 1.427 . S
N1672 C1669 1.384 . S
N1673 C1665 1.427 . S
N1673 C1671 1.384 . S
H1674 C1680 0.930 . S
H1675 C1684 0.927 1_556 S
H1676 C1689 0.929 . S
H1677 C1687 0.929 . S
H1678 C1682 0.929 . S
H1679 C1688 0.929 . S
C1680 H1674 0.930 . S
C1680 C1681 1.367 . S
C1680 C1688 1.378 . S
C1681 C1680 1.367 . S
C1681 C1689 1.433 . S
C1682 H1678 0.929 . S
C1682 C1684 1.378 . S
C1682 C1686 1.350 . S
C1683 C1686 1.463 . S
C1683 C1688 1.350 . S
C1683 N1691 1.427 . S
C1684 H1675 0.927 1_554 S
C1684 C1682 1.378 . S
C1684 C1685 1.367 1_554 S
C1685 C1684 1.367 1_556 S
C1685 C1687 1.433 . S
C1686 C1682 1.350 . S
C1686 C1683 1.463 . S
C1686 N1690 1.427 . S
C1687 H1677 0.929 . S
C1687 C1685 1.433 . S
C1687 N1690 1.384 1_556 S
C1688 H1679 0.929 . S
C1688 C1680 1.378 . S
C1688 C1683 1.350 . S
C1689 H1676 0.929 . S
C1689 C1681 1.433 . S
C1689 N1691 1.384 . S
N1690 C1686 1.427 . S
N1690 C1687 1.384 1_554 S
N1691 C1683 1.427 . S
N1691 C1689 1.384 . S
H1692 C1698 0.930 1_554 S
H1693 C1702 0.930 . S
H1694 C1707 0.929 . S
H1695 C1705 0.929 . S
H1696 C1700 0.929 . S
H1697 C1706 0.929 . S
C1698 H1692 0.930 1_556 S
C1698 C1699 1.367 1_556 S
C1698 C1706 1.378 . S
C1699 C1698 1.367 1_554 S
C1699 C1707 1.433 . S
C1700 H1696 0.929 . S
C1700 C1702 1.378 . S
C1700 C1704 1.350 . S
C1701 C1704 1.463 . S
C1701 C1706 1.350 . S
C1701 N1709 1.427 . S
C1702 H1693 0.930 . S
C1702 C1700 1.378 . S
C1702 C1703 1.367 . S
C1703 C1702 1.367 . S
C1703 C1705 1.433 . S
C1704 C1700 1.350 . S
C1704 C1701 1.463 . S
C1704 N1708 1.427 . S
C1705 H1695 0.929 . S
C1705 C1703 1.433 . S
C1705 N1708 1.384 . S
C1706 H1697 0.929 . S
C1706 C1698 1.378 . S
C1706 C1701 1.350 . S
C1707 H1694 0.929 . S
C1707 C1699 1.433 . S
C1707 N1709 1.384 1_554 S
N1708 C1704 1.427 . S
N1708 C1705 1.384 . S
N1709 C1701 1.427 . S
N1709 C1707 1.384 1_556 S
H1710 C1716 0.930 . S
H1711 C1720 0.930 . S
H1712 C1725 0.929 1_554 S
H1713 C1723 0.929 . S
H1714 C1718 0.929 . S
H1715 C1724 0.929 . S
C1716 H1710 0.930 . S
C1716 C1717 1.367 . S
C1716 C1724 1.378 1_554 S
C1717 C1716 1.367 . S
C1717 C1725 1.433 1_554 S
C1718 H1714 0.929 . S
C1718 C1720 1.378 . S
C1718 C1722 1.350 . S
C1719 C1722 1.463 . S
C1719 C1724 1.350 . S
C1719 N1727 1.427 . S
C1720 H1711 0.930 . S
C1720 C1718 1.378 . S
C1720 C1721 1.367 . S
C1721 C1720 1.367 . S
C1721 C1723 1.433 . S
C1722 C1718 1.350 . S
C1722 C1719 1.463 . S
C1722 N1726 1.427 . S
C1723 H1713 0.929 . S
C1723 C1721 1.433 . S
C1723 N1726 1.384 . S
C1724 H1715 0.929 . S
C1724 C1716 1.378 1_556 S
C1724 C1719 1.350 . S
C1725 H1712 0.929 1_556 S
C1725 C1717 1.433 1_556 S
C1725 N1727 1.384 . S
N1726 C1722 1.427 . S
N1726 C1723 1.384 . S
N1727 C1719 1.427 . S
N1727 C1725 1.384 . S
H1728 C1734 0.930 . S
H1729 C1738 0.930 . S
H1730 C1743 0.921 1_554 S
H1731 C1741 0.929 . S
H1732 C1736 0.929 . S
H1733 C1742 0.929 . S
C1734 H1728 0.930 . S
C1734 C1735 1.367 . S
C1734 C1742 1.378 1_554 S
C1735 C1734 1.367 . S
C1735 C1743 1.433 1_554 S
C1736 H1732 0.929 . S
C1736 C1738 1.378 . S
C1736 C1740 1.350 . S
C1737 C1740 1.463 . S
C1737 C1742 1.350 . S
C1737 N1745 1.427 . S
C1738 H1729 0.930 . S
C1738 C1736 1.378 . S
C1738 C1739 1.367 . S
C1739 C1738 1.367 . S
C1739 C1741 1.433 . S
C1740 C1736 1.350 . S
C1740 C1737 1.463 . S
C1740 N1744 1.427 . S
C1741 H1731 0.929 . S
C1741 C1739 1.433 . S
C1741 N1744 1.384 . S
C1742 H1733 0.929 . S
C1742 C1734 1.378 1_556 S
C1742 C1737 1.350 . S
C1743 H1730 0.921 1_556 S
C1743 C1735 1.433 1_556 S
C1743 N1745 1.384 . S
N1744 C1740 1.427 . S
N1744 C1741 1.384 . S
N1745 C1737 1.427 . S
N1745 C1743 1.384 . S
H1746 C1752 0.930 . S
H1747 C1756 0.930 . S
H1748 C1761 0.929 . S
H1749 C1759 0.929 . S
H1750 C1754 0.929 . S
H1751 C1760 0.929 . S
C1752 H1746 0.930 . S
C1752 C1753 1.367 . S
C1752 C1760 1.378 . S
C1753 C1752 1.367 . S
C1753 C1761 1.433 . S
C1754 H1750 0.929 . S
C1754 C1756 1.378 . S
C1754 C1758 1.350 . S
C1755 C1758 1.463 . S
C1755 C1760 1.350 . S
C1755 N1763 1.427 . S
C1756 H1747 0.930 . S
C1756 C1754 1.378 . S
C1756 C1757 1.367 . S
C1757 C1756 1.367 . S
C1757 C1759 1.433 . S
C1758 C1754 1.350 . S
C1758 C1755 1.463 . S
C1758 N1762 1.427 . S
C1759 H1749 0.929 . S
C1759 C1757 1.433 . S
C1759 N1762 1.384 . S
C1760 H1751 0.929 . S
C1760 C1752 1.378 . S
C1760 C1755 1.350 . S
C1761 H1748 0.929 . S
C1761 C1753 1.433 . S
C1761 N1763 1.384 . S
N1762 C1758 1.427 . S
N1762 C1759 1.384 . S
N1763 C1755 1.427 . S
N1763 C1761 1.384 . S
H1764 C1770 0.930 . S
H1765 C1774 0.930 . S
H1766 C1779 0.929 . S
H1767 C1777 0.929 . S
H1768 C1772 0.929 . S
H1769 C1778 0.929 . S
C1770 H1764 0.930 . S
C1770 C1771 1.367 . S
C1770 C1778 1.378 . S
C1771 C1770 1.367 . S
C1771 C1779 1.433 . S
C1772 H1768 0.929 . S
C1772 C1774 1.378 . S
C1772 C1776 1.350 . S
C1773 C1776 1.463 . S
C1773 C1778 1.350 . S
C1773 N1781 1.427 . S
C1774 H1765 0.930 . S
C1774 C1772 1.378 . S
C1774 C1775 1.367 . S
C1775 C1774 1.367 . S
C1775 C1777 1.433 . S
C1776 C1772 1.350 . S
C1776 C1773 1.463 . S
C1776 N1780 1.427 . S
C1777 H1767 0.929 . S
C1777 C1775 1.433 . S
C1777 N1780 1.384 . S
C1778 H1769 0.929 . S
C1778 C1770 1.378 . S
C1778 C1773 1.350 . S
C1779 H1766 0.929 . S
C1779 C1771 1.433 . S
C1779 N1781 1.384 . S
N1780 C1776 1.427 . S
N1780 C1777 1.384 . S
N1781 C1773 1.427 . S
N1781 C1779 1.384 . S
H1782 C1788 0.930 . S
H1783 C1792 0.930 . S
H1784 C1797 0.929 . S
H1785 C1795 0.929 . S
H1786 C1790 0.929 . S
H1787 C1796 0.929 . S
C1788 H1782 0.930 . S
C1788 C1789 1.367 . S
C1788 C1796 1.378 . S
C1789 C1788 1.367 . S
C1789 C1797 1.433 . S
C1790 H1786 0.929 . S
C1790 C1792 1.378 . S
C1790 C1794 1.350 . S
C1791 C1794 1.463 . S
C1791 C1796 1.350 . S
C1791 N1799 1.427 . S
C1792 H1783 0.930 . S
C1792 C1790 1.378 . S
C1792 C1793 1.367 . S
C1793 C1792 1.367 . S
C1793 C1795 1.433 . S
C1794 C1790 1.350 . S
C1794 C1791 1.463 . S
C1794 N1798 1.427 . S
C1795 H1785 0.929 . S
C1795 C1793 1.433 . S
C1795 N1798 1.384 . S
C1796 H1787 0.929 . S
C1796 C1788 1.378 . S
C1796 C1791 1.350 . S
C1797 H1784 0.929 . S
C1797 C1789 1.433 . S
C1797 N1799 1.384 . S
N1798 C1794 1.427 . S
N1798 C1795 1.384 . S
N1799 C1791 1.427 . S
N1799 C1797 1.384 . S
C511 C235 1.291 . S
C515 C11 1.288 . S
C529 C249 1.286 . S
C533 C25 1.288 . S
C547 C39 1.291 . S
C551 C221 1.292 . S
C565 C375 1.287 . S
C569 C53 1.286 . S
C583 C347 1.292 . S
C587 C67 1.291 . S
C601 C81 1.286 . S
C605 C361 1.287 . S
C619 C487 1.286 . S
C623 C95 1.287 . S
C637 C501 1.292 . S
C641 C109 1.290 . S
C655 C473 1.290 . S
C659 C123 1.292 . S
C673 C291 1.291 . S
C677 C137 1.290 . S
C691 C151 1.291 . S
C695 C263 1.289 . S
C709 C277 1.286 . S
C713 C165 1.288 . S
C727 C403 1.290 . S
C731 C179 1.288 . S
C745 C193 1.292 . S
C749 C417 1.290 . S
C763 C389 1.291 . S
C767 C207 1.292 . S
C781 C459 1.291 . S
C785 C305 1.290 . S
C799 C431 1.291 . S
C803 C319 1.288 . S
C817 C333 1.286 . S
C821 C445 1.287 . S
C835 C105 1.342 . S
C839 C13 1.306 . S
C853 C119 1.332 . S
C857 C27 1.310 . S
C871 C91 1.340 . S
C875 C41 1.301 . S
C889 C55 1.316 . S
C893 C161 1.330 . S
C907 C133 1.332 . S
C911 C69 1.309 . S
C925 C83 1.316 . S
C929 C147 1.337 . S
C943 C21 1.330 . S
C947 C97 1.315 . S
C961 C111 1.318 . S
C965 C35 1.331 . S
C979 C7 1.331 . S
C983 C125 1.317 . S
C997 C77 1.341 . S
C1001 C139 1.309 . S
C1015 C49 1.342 . S
C1019 C153 1.302 . S
C1033 C167 1.312 . S
C1037 C63 1.331 . S
C1051 C181 1.309 . S
C1055 C273 1.341 . S
C1069 C287 1.333 . S
C1073 C195 1.318 . S
C1087 C259 1.339 . S
C1091 C209 1.301 . S
C1105 C223 1.318 . S
C1109 C329 1.334 . S
C1123 C301 1.341 . S
C1127 C237 1.309 . S
C1141 C251 1.303 . S
C1145 C315 1.337 . S
C1159 C265 1.306 . S
C1163 C189 1.342 . S
C1177 C279 1.314 . S
C1181 C203 1.331 . S
C1195 C175 1.342 . S
C1199 C293 1.302 . S
C1213 C245 1.342 . S
C1217 C307 1.305 . S
C1231 C217 1.332 . S
C1235 C321 1.308 . S
C1249 C335 1.309 . S
C1253 C231 1.341 . S
C1267 C441 1.332 . S
C1271 C349 1.309 . S
C1285 C363 1.307 . S
C1289 C455 1.333 . S
C1303 C377 1.304 . S
C1307 C427 1.342 . S
C1321 C497 1.332 . S
C1325 C391 1.318 . S
C1339 C405 1.301 . S
C1343 C469 1.339 . S
C1357 C483 1.331 . S
C1361 C419 1.311 . S
C1375 C357 1.333 . S
C1379 C433 1.318 . S
C1393 C371 1.330 . S
C1397 C447 1.314 . S
C1411 C461 1.302 . S
C1415 C343 1.338 . S
C1429 C475 1.302 . S
C1433 C413 1.342 . S
C1447 C385 1.337 . S
C1451 C489 1.315 . S
C1465 C399 1.334 . S
C1469 C503 1.318 . S
C1483 C8 1.345 . S
C1487 C50 1.338 . S
C1501 C22 1.339 . S
C1505 C64 1.344 . S
C1519 C78 1.342 . S
C1523 C36 1.342 . S
C1537 C92 1.332 . S
C1541 C134 1.347 . S
C1555 C148 1.344 . S
C1559 C106 1.339 . S
C1573 C162 1.332 . S
C1577 C120 1.345 . S
C1591 C176 1.343 . S
C1595 C218 1.340 . S
C1609 C190 1.347 . S
C1613 C232 1.334 . S
C1627 C246 1.346 . S
C1631 C204 1.336 . S
C1645 C260 1.333 . S
C1649 C302 1.342 . S
C1663 C274 1.334 . S
C1667 C316 1.347 . S
C1681 C288 1.340 . S
C1685 C330 1.335 . S
C1699 C386 1.346 . S
C1703 C344 1.332 . S
C1717 C400 1.337 . S
C1721 C358 1.346 . S
C1735 C414 1.344 . S
C1739 C372 1.339 . S
C1753 C428 1.332 . S
C1757 C470 1.345 . S
C1771 C484 1.333 . S
C1775 C442 1.341 . S
C1789 C498 1.347 . S
C1793 C456 1.334 . S
