# Generated by pormake.
# Topology fee, (5)-cn, num edge types: 1
# Building blocks:
#     Node 0, Type 0, BuildingBlock: XOMCOT_clean_sbu_0, # of connection points: 5
#     Node 1, Type 0, BuildingBlock: XOMCOT_clean_sbu_0, # of connection points: 5
#     Node 2, Type 0, BuildingBlock: XOMCOT_clean_sbu_0, # of connection points: 5
#     Node 3, Type 0, BuildingBlock: XOMCOT_clean_sbu_0, # of connection points: 5
#     Edge 4, Type (0, 0), BuildingBlock: TEMPAE_clean_linker_10, # of connection points: 2
#     Edge 5, Type (0, 0), BuildingBlock: TEMPAE_clean_linker_10, # of connection points: 2
#     Edge 6, Type (0, 0), BuildingBlock: TEMPAE_clean_linker_10, # of connection points: 2
#     Edge 7, Type (0, 0), BuildingBlock: TEMPAE_clean_linker_10, # of connection points: 2
#     Edge 8, Type (0, 0), BuildingBlock: TEMPAE_clean_linker_10, # of connection points: 2
#     Edge 9, Type (0, 0), BuildingBlock: TEMPAE_clean_linker_10, # of connection points: 2
#     Edge 10, Type (0, 0), BuildingBlock: TEMPAE_clean_linker_10, # of connection points: 2
#     Edge 11, Type (0, 0), BuildingBlock: TEMPAE_clean_linker_10, # of connection points: 2
#     Edge 12, Type (0, 0), BuildingBlock: TEMPAE_clean_linker_10, # of connection points: 2
#     Edge 13, Type (0, 0), BuildingBlock: TEMPAE_clean_linker_10, # of connection points: 2
# Relax obj value: 0.155
# Max RMSD: 0.169
# Mean RMSD: 0.151
data_MOF--net-fee--node1-XOMCOT_clean_sbu_0--edge1-TEMPAE_clean_linker_10
_symmetry_space_group_name_H-M    P1
_symmetry_Int_Tables_number       1
_symmetry_cell_setting            triclinic
loop_
_symmetry_equiv_pos_as_xyz
'x, y, z'
_cell_length_a     38.863543
_cell_length_b     38.867433
_cell_length_c     17.842464
_cell_angle_alpha  96.287517
_cell_angle_beta   96.194741
_cell_angle_gamma 89.884254
loop_
_atom_site_label
_atom_site_type_symbol
_atom_site_fract_x
_atom_site_fract_y
_atom_site_fract_z
_atom_type_partial_charge
Co0 Co 0.18347 0.53866 0.11445 0.0
C1 C 0.18984 0.54014 0.28215 0.0
C2 C 0.20025 0.58959 0.2458 0.0
C3 C 0.20147 0.59341 0.32343 0.0
N4 N 0.19315 0.55625 0.21998 0.0
N5 N 0.19471 0.5624 0.34632 0.0
H6 H 0.18237 0.51321 0.28007 0.0
H7 H 0.20279 0.61009 0.21042 0.0
C8 C 0.24767 0.56618 0.05657 0.0
O9 O 0.25299 0.53602 0.01872 0.0
N10 N 0.17261 0.52191 1.00698 0.0
C11 C 0.15059 0.49571 0.97788 0.0
C12 C 0.14717 0.49369 0.90017 0.0
C13 C 0.18085 0.53643 0.94557 0.0
N14 N 0.16634 0.5192 0.87987 0.0
C15 C 0.2053 0.46807 0.10617 0.0
C16 C 0.27445 0.48113 0.15418 0.0
C17 C 0.26421 0.44794 0.12009 0.0
C18 C 0.22889 0.44118 0.09981 0.0
C19 C 0.24976 0.50741 0.15931 0.0
N20 N 0.21625 0.50124 0.12876 0.0
H21 H 0.17829 0.46221 0.09092 0.0
H22 H 0.25802 0.53316 0.18361 0.0
H23 H 0.13662 0.47969 1.01032 0.0
H24 H 0.19566 0.56007 0.94825 0.0
O25 O 0.14224 0.51627 0.13759 0.0
O26 O 0.14466 0.5697 0.10536 0.0
O27 O 0.22087 0.5709 0.09199 0.0
C28 C 0.12619 0.54474 0.12432 0.0
H29 H 0.20623 0.61739 0.36008 0.0
H30 H 0.13157 0.47499 0.86161 0.0
H31 H 0.3014 0.48719 0.173 0.0
H32 H 0.21962 0.41542 0.07741 0.0
Co33 Co 0.45995 0.19156 0.09243 0.0
C34 C 0.45709 0.19309 0.25789 0.0
C35 C 0.40886 0.20827 0.20078 0.0
C36 C 0.40578 0.21029 0.27726 0.0
N37 N 0.44111 0.19788 0.18885 0.0
N38 N 0.43603 0.20061 0.31281 0.0
H39 H 0.4836 0.18468 0.26785 0.0
H40 H 0.38879 0.21373 0.15706 0.0
C41 C 0.43125 0.25373 0.01977 0.0
O42 O 0.46139 0.2589 0.99554 0.0
N43 N 0.47837 0.18433 0.99426 0.0
C44 C 0.50931 0.17073 0.97976 0.0
C45 C 0.5121 0.16912 0.90339 0.0
C46 C 0.46188 0.18847 0.92502 0.0
N47 N 0.48234 0.18039 0.86917 0.0
C48 C 0.5292 0.21929 0.13364 0.0
C49 C 0.50933 0.28729 0.16246 0.0
C50 C 0.54391 0.28017 0.15178 0.0
C51 C 0.55424 0.24558 0.14243 0.0
C52 C 0.48539 0.26004 0.15481 0.0
N53 N 0.49488 0.22709 0.13103 0.0
H54 H 0.53739 0.19281 0.12669 0.0
H55 H 0.45876 0.26586 0.16283 0.0
H56 H 0.52825 0.16096 0.02057 0.0
H57 H 0.43555 0.19737 0.91538 0.0
O58 O 0.48418 0.15112 0.12316 0.0
O59 O 0.43115 0.15092 0.06274 0.0
O60 O 0.42651 0.22743 0.05485 0.0
C61 C 0.45667 0.13355 0.09316 0.0
H62 H 0.38289 0.21761 0.30459 0.0
H63 H 0.53395 0.1595 0.87476 0.0
H64 H 0.50069 0.31369 0.17361 0.0
H65 H 0.58105 0.23895 0.13749 0.0
Co66 Co 0.80889 0.54031 0.12128 0.0
C67 C 0.80486 0.54349 0.9552 0.0
C68 C 0.79726 0.59309 0.01679 0.0
C69 C 0.79676 0.5973 0.94118 0.0
N70 N 0.80226 0.55942 0.02545 0.0
N71 N 0.80165 0.56616 0.90251 0.0
H72 H 0.81025 0.51621 0.94344 0.0
H73 H 0.79511 0.61336 0.06258 0.0
C74 C 0.74502 0.56721 0.18958 0.0
O75 O 0.73981 0.53675 0.2122 0.0
N76 N 0.81675 0.52201 0.21951 0.0
C77 C 0.83588 0.4941 0.23547 0.0
C78 C 0.83912 0.49213 0.31229 0.0
C79 C 0.81015 0.53746 0.2882 0.0
N80 N 0.8228 0.51932 0.34537 0.0
C81 C 0.78189 0.47059 0.08774 0.0
C82 C 0.71456 0.4893 0.04527 0.0
C83 C 0.72128 0.45531 0.06142 0.0
C84 C 0.75568 0.44549 0.07818 0.0
C85 C 0.74177 0.51335 0.05393 0.0
N86 N 0.7742 0.50459 0.08306 0.0
H87 H 0.80813 0.46277 0.10152 0.0
H88 H 0.73617 0.53969 0.04291 0.0
H89 H 0.84846 0.4771 0.19511 0.0
H90 H 0.79794 0.56236 0.29706 0.0
O91 O 0.84973 0.51708 0.08979 0.0
O92 O 0.84897 0.56994 0.15101 0.0
O93 O 0.7722 0.57289 0.15813 0.0
C94 C 0.86678 0.54488 0.11999 0.0
H95 H 0.79336 0.62151 0.91666 0.0
H96 H 0.85291 0.47245 0.34162 0.0
H97 H 0.6884 0.49751 0.02926 0.0
H98 H 0.76205 0.41914 0.0884 0.0
Co99 Co 0.46226 0.81623 0.0937 0.0
C100 C 0.4602 0.81012 0.92585 0.0
C101 C 0.41031 0.80291 0.96348 0.0
C102 C 0.40628 0.80186 0.88588 0.0
N103 N 0.44404 0.80789 0.98843 0.0
N104 N 0.43757 0.80659 0.8622 0.0
H105 H 0.48753 0.81583 0.92728 0.0
H106 H 0.38982 0.80165 0.99953 0.0
C107 C 0.4337 0.75224 0.15031 0.0
O108 O 0.46346 0.74683 0.18953 0.0
N109 N 0.47963 0.82577 0.20103 0.0
C110 C 0.50695 0.84629 0.23036 0.0
C111 C 0.50903 0.84946 0.30806 0.0
C112 C 0.46454 0.81828 0.2623 0.0
N113 N 0.48244 0.83171 0.32815 0.0
C114 C 0.53239 0.79321 0.09725 0.0
C115 C 0.51775 0.72414 0.05129 0.0
C116 C 0.55124 0.73387 0.08412 0.0
C117 C 0.55882 0.76912 0.10317 0.0
C118 C 0.49194 0.74933 0.04671 0.0
N119 N 0.49891 0.78282 0.07661 0.0
H120 H 0.53882 0.82016 0.11153 0.0
H121 H 0.46597 0.7415 0.02333 0.0
H122 H 0.52361 0.85964 0.19822 0.0
H123 H 0.44008 0.8048 0.25935 0.0
O124 O 0.4853 0.85741 0.07224 0.0
O125 O 0.43205 0.8556 0.10583 0.0
O126 O 0.42949 0.77901 0.11474 0.0
C127 C 0.45723 0.87387 0.08717 0.0
H128 H 0.38201 0.79856 0.8498 0.0
H129 H 0.52848 0.86402 0.34675 0.0
H130 H 0.51112 0.69724 0.03323 0.0
H131 H 0.58484 0.77792 0.12451 0.0
C132 C 0.14338 0.5187 0.74534 0.0
C133 C 0.17039 0.52621 0.80363 0.0
C134 C 0.14735 0.52403 0.67023 0.0
C135 C 0.17921 0.53699 0.6528 0.0
C136 C 0.20657 0.54473 0.71141 0.0
C137 C 0.20177 0.5394 0.78622 0.0
C138 C 0.11738 0.51595 0.60959 0.0
C139 C 0.24098 0.55844 0.69499 0.0
C140 C 0.19875 0.52324 0.44711 0.0
C141 C 0.19067 0.55567 0.42279 0.0
C142 C 0.19544 0.51681 0.52206 0.0
C143 C 0.18348 0.54339 0.57355 0.0
C144 C 0.17502 0.57605 0.54905 0.0
C145 C 0.17875 0.58179 0.47413 0.0
C146 C 0.20485 0.48168 0.54628 0.0
C147 C 0.16178 0.60493 0.60185 0.0
H148 H 0.11894 0.50894 0.75866 0.0
H149 H 0.22283 0.54481 0.83093 0.0
H150 H 0.10982 0.53963 0.58258 0.0
H151 H 0.1252 0.4965 0.56448 0.0
H152 H 0.09439 0.50584 0.63246 0.0
H153 H 0.25978 0.56268 0.74671 0.0
H154 H 0.25227 0.54002 0.65253 0.0
H155 H 0.23727 0.58332 0.67019 0.0
H156 H 0.2082 0.5031 0.40784 0.0
H157 H 0.1718 0.60669 0.45539 0.0
H158 H 0.18205 0.46963 0.56584 0.0
H159 H 0.22542 0.48446 0.59481 0.0
H160 H 0.21409 0.46394 0.49966 0.0
H161 H 0.13758 0.59657 0.62263 0.0
H162 H 0.15649 0.62888 0.57398 0.0
H163 H 0.18099 0.61114 0.65218 0.0
C164 C 0.50039 0.19752 0.75068 0.0
C165 C 0.47499 0.18406 0.78971 0.0
C166 C 0.49418 0.20089 0.67291 0.0
C167 C 0.46205 0.18964 0.63271 0.0
C168 C 0.43631 0.17585 0.67189 0.0
C169 C 0.44294 0.17369 0.75031 0.0
C170 C 0.52193 0.21665 0.63391 0.0
C171 C 0.40204 0.1629 0.63074 0.0
C172 C 0.43302 0.22451 0.44533 0.0
C173 C 0.44353 0.19824 0.39274 0.0
C174 C 0.43924 0.22225 0.52361 0.0
C175 C 0.45545 0.19247 0.54976 0.0
C176 C 0.46588 0.1657 0.49664 0.0
C177 C 0.46023 0.16916 0.41869 0.0
C178 C 0.4287 0.25183 0.57829 0.0
C179 C 0.48253 0.13321 0.52211 0.0
H180 H 0.52502 0.2059 0.78157 0.0
H181 H 0.42347 0.16303 0.78058 0.0
H182 H 0.5303 0.19758 0.58873 0.0
H183 H 0.51146 0.23926 0.60623 0.0
H184 H 0.54498 0.22523 0.67391 0.0
H185 H 0.38508 0.15225 0.66909 0.0
H186 H 0.38824 0.18423 0.60412 0.0
H187 H 0.40643 0.14239 0.58447 0.0
H188 H 0.42033 0.24707 0.42494 0.0
H189 H 0.46794 0.14872 0.37772 0.0
H190 H 0.45154 0.26174 0.61738 0.0
H191 H 0.40952 0.24266 0.61355 0.0
H192 H 0.41725 0.27356 0.54875 0.0
H193 H 0.50713 0.1398 0.55842 0.0
H194 H 0.4881 0.11436 0.47356 0.0
H195 H 0.4653 0.12058 0.55687 0.0
C196 C 0.8183 0.58469 0.78338 0.0
C197 C 0.80468 0.5593 0.82238 0.0
C198 C 0.82119 0.57872 0.70532 0.0
C199 C 0.80998 0.54663 0.66492 0.0
C200 C 0.79617 0.52087 0.70387 0.0
C201 C 0.79386 0.52745 0.78225 0.0
C202 C 0.83651 0.60669 0.66622 0.0
C203 C 0.78372 0.48641 0.66266 0.0
C204 C 0.79014 0.54289 0.45044 0.0
C205 C 0.82 0.52728 0.42533 0.0
C206 C 0.78637 0.54911 0.52823 0.0
C207 C 0.81332 0.53989 0.58217 0.0
C208 C 0.84375 0.52461 0.55709 0.0
C209 C 0.84663 0.51835 0.47905 0.0
C210 C 0.75342 0.5652 0.55269 0.0
C211 C 0.87331 0.51492 0.61272 0.0
H212 H 0.82726 0.60913 0.81424 0.0
H213 H 0.78302 0.50791 0.81197 0.0
H214 H 0.85982 0.59683 0.64032 0.0
H215 H 0.81764 0.61408 0.61965 0.0
H216 H 0.84392 0.63024 0.70575 0.0
H217 H 0.77315 0.46935 0.70088 0.0
H218 H 0.76329 0.49048 0.61609 0.0
H219 H 0.80534 0.47289 0.63644 0.0
H220 H 0.76935 0.54944 0.40907 0.0
H221 H 0.86994 0.50672 0.45994 0.0
H222 H 0.75944 0.58978 0.58957 0.0
H223 H 0.74072 0.54765 0.5866 0.0
H224 H 0.73484 0.57064 0.50369 0.0
H225 H 0.88278 0.53813 0.65116 0.0
H226 H 0.89533 0.50353 0.58399 0.0
H227 H 0.86424 0.49594 0.64857 0.0
C228 C 0.47614 0.7996 0.7602 0.0
C229 C 0.44442 0.80996 0.7855 0.0
C230 C 0.48265 0.80228 0.68503 0.0
C231 C 0.45691 0.81595 0.63434 0.0
C232 C 0.42495 0.82666 0.65979 0.0
C233 C 0.4191 0.82348 0.7349 0.0
C234 C 0.517 0.79046 0.65979 0.0
C235 C 0.397 0.84176 0.60786 0.0
C236 C 0.48423 0.85451 0.46311 0.0
C237 C 0.47503 0.82807 0.40433 0.0
C238 C 0.47861 0.85082 0.53817 0.0
C239 C 0.46356 0.81985 0.55507 0.0
C240 C 0.45406 0.79308 0.49598 0.0
C241 C 0.45978 0.79758 0.42122 0.0
C242 C 0.48865 0.88017 0.59936 0.0
C243 C 0.43806 0.75963 0.51183 0.0
H244 H 0.49564 0.78888 0.7989 0.0
H245 H 0.39478 0.83216 0.7544 0.0
H246 H 0.51278 0.77017 0.61081 0.0
H247 H 0.5306 0.81241 0.64054 0.0
H248 H 0.53405 0.77994 0.70577 0.0
H249 H 0.37346 0.84855 0.63631 0.0
H250 H 0.4069 0.86542 0.58747 0.0
H251 H 0.38958 0.82301 0.55722 0.0
H252 H 0.49558 0.8783 0.45023 0.0
H253 H 0.45304 0.77693 0.37614 0.0
H254 H 0.50752 0.87102 0.64388 0.0
H255 H 0.46554 0.88925 0.62701 0.0
H256 H 0.50027 0.90248 0.57684 0.0
H257 H 0.45569 0.74705 0.55356 0.0
H258 H 0.43254 0.74121 0.45974 0.0
H259 H 0.41353 0.76498 0.53731 0.0
C260 C 0.92162 0.52595 0.06786 0.0
C261 C 0.90471 0.54744 0.12025 0.0
C262 C 0.95772 0.52744 0.06834 0.0
C263 C 0.97743 0.5504 0.1237 0.0
C264 C 0.96045 0.57226 0.17663 0.0
C265 C 0.9242 0.57079 0.17371 0.0
C266 C 0.97478 0.5042 1.00997 0.0
C267 C 0.98061 0.59658 0.23744 0.0
C268 C 0.07135 0.52549 0.16831 0.0
C269 C 0.0885 0.54784 0.12786 0.0
C270 C 0.03532 0.52684 0.16938 0.0
C271 C 0.0159 0.5506 0.12756 0.0
C272 C 0.03316 0.57351 0.08726 0.0
C273 C 0.06935 0.5721 0.08856 0.0
C274 C 0.01798 0.50246 0.21434 0.0
C275 C 0.0133 0.59877 0.04094 0.0
H276 H 0.90657 0.50806 0.02607 0.0
H277 H 0.91118 0.58729 0.21459 0.0
H278 H 0.99117 0.51983 0.97898 0.0
H279 H 0.992 0.48567 0.03852 0.0
H280 H 0.95562 0.48927 0.96817 0.0
H281 H 0.96348 0.61226 0.27352 0.0
H282 H 0.99832 0.58153 0.27424 0.0
H283 H 0.99688 0.61436 0.21134 0.0
H284 H 0.08613 0.50687 0.19922 0.0
H285 H 0.08254 0.58927 0.05684 0.0
H286 H 0.00066 0.48425 0.17539 0.0
H287 H 0.00168 0.51722 0.25375 0.0
H288 H 0.03698 0.48717 0.24775 0.0
H289 H 0.99553 0.5844 0.99536 0.0
H290 H 0.03065 0.61546 1.01455 0.0
H291 H 0.99713 0.61556 0.07706 0.0
C292 C 0.43096 0.93098 0.12587 0.0
C293 C 0.45473 0.91169 0.08519 0.0
C294 C 0.42985 0.96721 0.12785 0.0
C295 C 0.45253 0.98438 0.0868 0.0
C296 C 0.4759 0.96485 0.04397 0.0
C297 C 0.47698 0.92878 0.04439 0.0
C298 C 0.40503 0.98717 0.17532 0.0
C299 C 0.50001 0.9821 0.99821 0.0
C300 C 0.43133 0.07578 0.04028 0.0
C301 C 0.45476 0.09558 0.09294 0.0
C302 C 0.43022 0.03953 0.03769 0.0
C303 C 0.45256 0.02284 0.09015 0.0
C304 C 0.47569 0.04285 0.14462 0.0
C305 C 0.47679 0.07896 0.14478 0.0
C306 C 0.40569 0.01906 0.97783 0.0
C307 C 0.49944 0.0261 0.20247 0.0
H308 H 0.41388 0.91784 0.15789 0.0
H309 H 0.49523 0.9139 1.01246 0.0
H310 H 0.4197 0.00526 0.21983 0.0
H311 H 0.38774 0.00303 0.13959 0.0
H312 H 0.38884 0.96993 0.20315 0.0
H313 H 0.51528 0.96306 0.96474 0.0
H314 H 0.48501 0.99816 0.95875 0.0
H315 H 0.51823 0.99965 0.03655 0.0
H316 H 0.41439 0.08856 0.99983 0.0
H317 H 0.49475 0.09423 0.18598 0.0
H318 H 0.38809 0.00299 1.00487 0.0
H319 H 0.42056 0.00115 0.94097 0.0
H320 H 0.38981 0.03597 0.94167 0.0
H321 H 0.48418 0.00981 0.23443 0.0
H322 H 0.51455 0.04545 0.24348 0.0
H323 H 0.5178 0.00883 0.17339 0.0
C324 C 0.37358 0.2767 0.0498 0.0
C325 C 0.40544 0.2819 0.02223 0.0
C326 C 0.35093 0.30426 0.06355 0.0
C327 C 0.36009 0.33784 0.04846 0.0
C328 C 0.39149 0.34305 0.01753 0.0
C329 C 0.41384 0.31502 1.00491 0.0
C330 C 0.31763 0.29757 0.09632 0.0
C331 C 0.40193 0.37841 0.99976 0.0
C332 C 0.28657 0.4018 0.02974 0.0
C333 C 0.28987 0.42079 0.10179 0.0
C334 C 0.30975 0.37536 1.01101 0.0
C335 C 0.33681 0.36747 0.06585 0.0
C336 C 0.3407 0.38693 0.13832 0.0
C337 C 0.31727 0.41356 0.1553 0.0
C338 C 0.30495 0.35553 0.93287 0.0
C339 C 0.3691 0.37907 0.19848 0.0
H340 H 0.36664 0.25118 0.06258 0.0
H341 H 0.43841 0.31936 0.98375 0.0
H342 H 0.31739 0.31312 0.15225 0.0
H343 H 0.29519 0.30578 0.05879 0.0
H344 H 0.31411 0.26985 0.10385 0.0
H345 H 0.42629 0.3778 0.97232 0.0
H346 H 0.38111 0.38914 0.96175 0.0
H347 H 0.4056 0.39639 0.0528 0.0
H348 H 0.26579 0.40776 0.98768 0.0
H349 H 0.31984 0.42812 0.21104 0.0
H350 H 0.29916 0.32794 0.93737 0.0
H351 H 0.32919 0.35634 0.90545 0.0
H352 H 0.28361 0.36599 0.89559 0.0
H353 H 0.36573 0.35234 0.21306 0.0
H354 H 0.36932 0.3973 0.25104 0.0
H355 H 0.39468 0.38037 0.17665 0.0
C356 C 0.6679 0.44144 0.11818 0.0
C357 C 0.69265 0.43126 0.06876 0.0
C358 C 0.64283 0.41797 0.13329 0.0
C359 C 0.64207 0.38371 0.09679 0.0
C360 C 0.66635 0.37364 0.04486 0.0
C361 C 0.69169 0.39744 0.03224 0.0
C362 C 0.61789 0.42951 0.19015 0.0
C363 C 0.66584 0.3376 1.00343 0.0
C364 C 0.60098 0.31108 0.18419 0.0
C365 C 0.5682 0.30833 0.14283 0.0
C366 C 0.625 0.33614 0.17114 0.0
C367 C 0.61628 0.35822 0.11391 0.0
C368 C 0.58308 0.35557 0.07227 0.0
C369 C 0.55931 0.3309 0.08785 0.0
C370 C 0.65983 0.33874 0.218 0.0
C371 C 0.57305 0.37806 1.00971 0.0
H372 H 0.66905 0.46746 0.14742 0.0
H373 H 0.71089 0.38962 0.9941 0.0
H374 H 0.59082 0.4256 0.16373 0.0
H375 H 0.62136 0.41353 0.23824 0.0
H376 H 0.62162 0.45718 0.21283 0.0
H377 H 0.68517 0.33452 0.96169 0.0
H378 H 0.67138 0.3184 0.04467 0.0
H379 H 0.63975 0.33141 0.97319 0.0
H380 H 0.6078 0.29357 0.22663 0.0
H381 H 0.53411 0.32834 0.05498 0.0
H382 H 0.66459 0.36566 0.24498 0.0
H383 H 0.68062 0.33239 0.1809 0.0
H384 H 0.66185 0.32101 0.26303 0.0
H385 H 0.57555 0.4058 0.0322 0.0
H386 H 0.5461 0.37295 0.98312 0.0
H387 H 0.59088 0.37342 0.96516 0.0
C388 C 0.59639 0.71089 0.17527 0.0
C389 C 0.57784 0.70781 0.10285 0.0
C390 C 0.62251 0.68747 0.1944 0.0
C391 C 0.63056 0.66044 0.13952 0.0
C392 C 0.61144 0.65672 0.0667 0.0
C393 C 0.58508 0.68035 0.04937 0.0
C394 C 0.64192 0.69207 0.27292 0.0
C395 C 0.6195 0.62837 1.00648 0.0
C396 C 0.72155 0.62434 0.15741 0.0
C397 C 0.71649 0.59257 0.1854 0.0
C398 C 0.69386 0.64669 0.1428 0.0
C399 C 0.66022 0.63726 0.15708 0.0
C400 C 0.65506 0.60583 0.18787 0.0
C401 C 0.68326 0.58382 0.2016 0.0
C402 C 0.70049 0.68003 0.11023 0.0
C403 C 0.61962 0.59507 0.20457 0.0
H404 H 0.59039 0.73175 0.21723 0.0
H405 H 0.57079 0.67796 0.99338 0.0
H406 H 0.64114 0.66767 0.29971 0.0
H407 H 0.66952 0.69815 0.26917 0.0
H408 H 0.63111 0.71317 0.31037 0.0
H409 H 0.60135 0.62812 0.95386 0.0
H410 H 0.64625 0.63189 0.99204 0.0
H411 H 0.61829 0.60277 0.02815 0.0
H412 H 0.7471 0.63145 0.14496 0.0
H413 H 0.67902 0.55929 0.22292 0.0
H414 H 0.69209 0.70242 0.14777 0.0
H415 H 0.68507 0.68023 0.05419 0.0
H416 H 0.72823 0.68371 0.10301 0.0
H417 H 0.60863 0.61566 0.24283 0.0
H418 H 0.62019 0.57055 0.23133 0.0
H419 H 0.60188 0.59156 0.15122 0.0
C420 C 0.37967 0.72578 0.07855 0.0
C421 C 0.40614 0.72521 0.13854 0.0
C422 C 0.35436 0.69957 0.06309 0.0
C423 C 0.35512 0.67222 0.10935 0.0
C424 C 0.38155 0.67155 0.17051 0.0
C425 C 0.40692 0.69795 0.18406 0.0
C426 C 0.32687 0.70112 0.9969 0.0
C427 C 0.3829 0.64305 0.22177 0.0
C428 C 0.27026 0.62459 0.11336 0.0
C429 C 0.27459 0.59387 0.06616 0.0
C430 C 0.2964 0.64999 0.12854 0.0
C431 C 0.32758 0.64494 0.09482 0.0
C432 C 0.33196 0.61436 0.04587 0.0
C433 C 0.30547 0.5891 0.03238 0.0
C434 C 0.29069 0.68217 0.18122 0.0
C435 C 0.36467 0.6083 1.00795 0.0
H436 H 0.37901 0.74642 0.04239 0.0
H437 H 0.42728 0.69728 0.23044 0.0
H438 H 0.32716 0.67708 0.95724 0.0
H439 H 0.30089 0.70284 0.01734 0.0
H440 H 0.33052 0.72363 0.96508 0.0
H441 H 0.40509 0.64623 0.26681 0.0
H442 H 0.35859 0.6426 0.24905 0.0
H443 H 0.38498 0.61756 0.18797 0.0
H444 H 0.24654 0.62873 0.13958 0.0
H445 H 0.30912 0.5655 0.99587 0.0
H446 H 0.29186 0.70543 0.15065 0.0
H447 H 0.31154 0.68496 0.22919 0.0
H448 H 0.26534 0.68171 0.20453 0.0
H449 H 0.36873 0.6296 0.97312 0.0
H450 H 0.36395 0.58333 0.97095 0.0
H451 H 0.38732 0.60838 0.05151 0.0
loop_
_geom_bond_atom_site_label_1
_geom_bond_atom_site_label_2
_geom_bond_distance
_geom_bond_site_symmetry_2
_ccdc_geom_bond_type
Co0 N4 2.148 . S
Co0 N10 2.128 1_554 S
Co0 N20 2.194 . S
Co0 O25 2.351 . S
Co0 O26 2.155 . S
Co0 O27 2.096 . S
C1 N4 1.301 . S
C1 N5 1.328 . S
C1 H6 0.930 . S
C2 C3 1.333 . S
C2 N4 1.317 . S
C2 H7 0.930 . S
C3 C2 1.333 . S
C3 N5 1.350 . S
C3 H29 0.931 . S
N4 Co0 2.148 . S
N4 C1 1.301 . S
N4 C2 1.317 . S
N5 C1 1.328 . S
N5 C3 1.350 . S
H6 C1 0.930 . S
H7 C2 0.930 . S
C8 O9 1.224 . S
C8 O27 1.247 . S
O9 C8 1.224 . S
N10 Co0 2.128 1_556 S
N10 C11 1.355 . S
N10 C13 1.311 . S
C11 N10 1.355 . S
C11 C12 1.363 . S
C11 H23 0.929 . S
C12 C11 1.363 . S
C12 N14 1.375 . S
C12 H30 0.931 . S
C13 N10 1.311 . S
C13 N14 1.347 . S
C13 H24 0.929 . S
N14 C12 1.375 . S
N14 C13 1.347 . S
C15 C18 1.365 . S
C15 N20 1.328 . S
C15 H21 0.929 . S
C16 C17 1.362 . S
C16 C19 1.378 . S
C16 H31 0.929 . S
C17 C16 1.362 . S
C17 C18 1.366 . S
C18 C15 1.365 . S
C18 C17 1.366 . S
C18 H32 0.930 . S
C19 C16 1.378 . S
C19 N20 1.315 . S
C19 H22 0.930 . S
N20 Co0 2.194 . S
N20 C15 1.328 . S
N20 C19 1.315 . S
H21 C15 0.929 . S
H22 C19 0.930 . S
H23 C11 0.929 . S
H24 C13 0.929 . S
O25 Co0 2.351 . S
O25 C28 1.244 . S
O26 Co0 2.155 . S
O26 C28 1.240 . S
O27 Co0 2.096 . S
O27 C8 1.247 . S
C28 O25 1.244 . S
C28 O26 1.240 . S
H29 C3 0.931 . S
H30 C12 0.931 . S
H31 C16 0.929 . S
H32 C18 0.930 . S
Co33 N37 2.148 . S
Co33 N43 2.128 1_554 S
Co33 N53 2.194 . S
Co33 O58 2.351 . S
Co33 O59 2.155 . S
Co33 O60 2.096 . S
C34 N37 1.301 . S
C34 N38 1.328 . S
C34 H39 0.930 . S
C35 C36 1.333 . S
C35 N37 1.317 . S
C35 H40 0.930 . S
C36 C35 1.333 . S
C36 N38 1.350 . S
C36 H62 0.931 . S
N37 Co33 2.148 . S
N37 C34 1.301 . S
N37 C35 1.317 . S
N38 C34 1.328 . S
N38 C36 1.350 . S
H39 C34 0.930 . S
H40 C35 0.930 . S
C41 O42 1.224 . S
C41 O60 1.247 . S
O42 C41 1.224 . S
N43 Co33 2.128 1_556 S
N43 C44 1.355 . S
N43 C46 1.311 . S
C44 N43 1.355 . S
C44 C45 1.363 . S
C44 H56 0.929 . S
C45 C44 1.363 . S
C45 N47 1.375 . S
C45 H63 0.931 . S
C46 N43 1.311 . S
C46 N47 1.347 . S
C46 H57 0.929 . S
N47 C45 1.375 . S
N47 C46 1.347 . S
C48 C51 1.365 . S
C48 N53 1.328 . S
C48 H54 0.929 . S
C49 C50 1.362 . S
C49 C52 1.378 . S
C49 H64 0.929 . S
C50 C49 1.362 . S
C50 C51 1.366 . S
C51 C48 1.365 . S
C51 C50 1.366 . S
C51 H65 0.930 . S
C52 C49 1.378 . S
C52 N53 1.315 . S
C52 H55 0.930 . S
N53 Co33 2.194 . S
N53 C48 1.328 . S
N53 C52 1.315 . S
H54 C48 0.929 . S
H55 C52 0.930 . S
H56 C44 0.929 . S
H57 C46 0.929 . S
O58 Co33 2.351 . S
O58 C61 1.244 . S
O59 Co33 2.155 . S
O59 C61 1.240 . S
O60 Co33 2.096 . S
O60 C41 1.247 . S
C61 O58 1.244 . S
C61 O59 1.240 . S
H62 C36 0.931 . S
H63 C45 0.931 . S
H64 C49 0.929 . S
H65 C51 0.930 . S
Co66 N70 2.148 . S
Co66 N76 2.128 . S
Co66 N86 2.194 . S
Co66 O91 2.351 . S
Co66 O92 2.155 . S
Co66 O93 2.096 . S
C67 N70 1.301 1_556 S
C67 N71 1.328 . S
C67 H72 0.930 . S
C68 C69 1.333 . S
C68 N70 1.317 1_556 S
C68 H73 0.930 1_556 S
C69 C68 1.333 . S
C69 N71 1.350 . S
C69 H95 0.931 . S
N70 Co66 2.148 . S
N70 C67 1.301 1_554 S
N70 C68 1.317 1_554 S
N71 C67 1.328 . S
N71 C69 1.350 . S
H72 C67 0.930 . S
H73 C68 0.930 1_554 S
C74 O75 1.224 . S
C74 O93 1.247 . S
O75 C74 1.224 . S
N76 Co66 2.128 . S
N76 C77 1.355 . S
N76 C79 1.311 . S
C77 N76 1.355 . S
C77 C78 1.363 . S
C77 H89 0.929 . S
C78 C77 1.363 . S
C78 N80 1.375 . S
C78 H96 0.931 . S
C79 N76 1.311 . S
C79 N80 1.347 . S
C79 H90 0.929 . S
N80 C78 1.375 . S
N80 C79 1.347 . S
C81 C84 1.365 . S
C81 N86 1.328 . S
C81 H87 0.929 . S
C82 C83 1.362 . S
C82 C85 1.378 . S
C82 H97 0.929 . S
C83 C82 1.362 . S
C83 C84 1.366 . S
C84 C81 1.365 . S
C84 C83 1.366 . S
C84 H98 0.930 . S
C85 C82 1.378 . S
C85 N86 1.315 . S
C85 H88 0.930 . S
N86 Co66 2.194 . S
N86 C81 1.328 . S
N86 C85 1.315 . S
H87 C81 0.929 . S
H88 C85 0.930 . S
H89 C77 0.929 . S
H90 C79 0.929 . S
O91 Co66 2.351 . S
O91 C94 1.244 . S
O92 Co66 2.155 . S
O92 C94 1.240 . S
O93 Co66 2.096 . S
O93 C74 1.247 . S
C94 O91 1.244 . S
C94 O92 1.240 . S
H95 C69 0.931 . S
H96 C78 0.931 . S
H97 C82 0.929 . S
H98 C84 0.930 . S
Co99 N103 2.148 . S
Co99 N109 2.128 . S
Co99 N119 2.194 . S
Co99 O124 2.351 . S
Co99 O125 2.155 . S
Co99 O126 2.096 . S
C100 N103 1.301 1_556 S
C100 N104 1.328 . S
C100 H105 0.930 . S
C101 C102 1.333 . S
C101 N103 1.317 1_556 S
C101 H106 0.930 . S
C102 C101 1.333 . S
C102 N104 1.350 . S
C102 H128 0.931 . S
N103 Co99 2.148 . S
N103 C100 1.301 1_554 S
N103 C101 1.317 1_554 S
N104 C100 1.328 . S
N104 C102 1.350 . S
H105 C100 0.930 . S
H106 C101 0.930 . S
C107 O108 1.224 . S
C107 O126 1.247 . S
O108 C107 1.224 . S
N109 Co99 2.128 . S
N109 C110 1.355 . S
N109 C112 1.311 . S
C110 N109 1.355 . S
C110 C111 1.363 . S
C110 H122 0.929 . S
C111 C110 1.363 . S
C111 N113 1.375 . S
C111 H129 0.931 . S
C112 N109 1.311 . S
C112 N113 1.347 . S
C112 H123 0.929 . S
N113 C111 1.375 . S
N113 C112 1.347 . S
C114 C117 1.365 . S
C114 N119 1.328 . S
C114 H120 0.929 . S
C115 C116 1.362 . S
C115 C118 1.378 . S
C115 H130 0.929 . S
C116 C115 1.362 . S
C116 C117 1.366 . S
C117 C114 1.365 . S
C117 C116 1.366 . S
C117 H131 0.930 . S
C118 C115 1.378 . S
C118 N119 1.315 . S
C118 H121 0.930 . S
N119 Co99 2.194 . S
N119 C114 1.328 . S
N119 C118 1.315 . S
H120 C114 0.929 . S
H121 C118 0.930 . S
H122 C110 0.929 . S
H123 C112 0.929 . S
O124 Co99 2.351 . S
O124 C127 1.244 . S
O125 Co99 2.155 . S
O125 C127 1.240 . S
O126 Co99 2.096 . S
O126 C107 1.247 . S
C127 O124 1.244 . S
C127 O125 1.240 . S
H128 C102 0.931 . S
H129 C111 0.931 . S
H130 C115 0.929 . S
H131 C117 0.930 . S
C132 C133 1.391 . S
C132 C134 1.394 . S
C132 H148 0.931 . S
C133 C132 1.391 . S
C133 C137 1.376 . S
C134 C132 1.394 . S
C134 C135 1.369 . S
C134 C138 1.531 . S
C135 C134 1.369 . S
C135 C136 1.410 . S
C135 C143 1.503 . S
C136 C135 1.410 . S
C136 C137 1.392 . S
C136 C139 1.511 . S
C137 C133 1.376 . S
C137 C136 1.392 . S
C137 H149 0.929 . S
C138 C134 1.531 . S
C138 H150 0.960 . S
C138 H151 0.962 . S
C138 H152 0.960 . S
C139 C136 1.511 . S
C139 H153 0.961 . S
C139 H154 0.961 . S
C139 H155 0.961 . S
C140 C141 1.370 . S
C140 C142 1.363 . S
C140 H156 0.931 . S
C141 C140 1.370 . S
C141 C145 1.408 . S
C142 C140 1.363 . S
C142 C143 1.370 . S
C142 C146 1.524 . S
C143 C135 1.503 . S
C143 C142 1.370 . S
C143 C144 1.403 . S
C144 C143 1.403 . S
C144 C145 1.404 . S
C144 C147 1.539 . S
C145 C141 1.408 . S
C145 C144 1.404 . S
C145 H157 0.930 . S
C146 C142 1.524 . S
C146 H158 0.956 . S
C146 H159 0.961 . S
C146 H160 0.961 . S
C147 C144 1.539 . S
C147 H161 0.958 . S
C147 H162 0.961 . S
C147 H163 0.960 . S
H148 C132 0.931 . S
H149 C137 0.929 . S
H150 C138 0.960 . S
H151 C138 0.962 . S
H152 C138 0.960 . S
H153 C139 0.961 . S
H154 C139 0.961 . S
H155 C139 0.961 . S
H156 C140 0.931 . S
H157 C145 0.930 . S
H158 C146 0.956 . S
H159 C146 0.961 . S
H160 C146 0.961 . S
H161 C147 0.958 . S
H162 C147 0.961 . S
H163 C147 0.960 . S
C164 C165 1.391 . S
C164 C166 1.394 . S
C164 H180 0.931 . S
C165 C164 1.391 . S
C165 C169 1.376 . S
C166 C164 1.394 . S
C166 C167 1.369 . S
C166 C170 1.531 . S
C167 C166 1.369 . S
C167 C168 1.410 . S
C167 C175 1.503 . S
C168 C167 1.410 . S
C168 C169 1.392 . S
C168 C171 1.511 . S
C169 C165 1.376 . S
C169 C168 1.392 . S
C169 H181 0.929 . S
C170 C166 1.531 . S
C170 H182 0.960 . S
C170 H183 0.962 . S
C170 H184 0.960 . S
C171 C168 1.511 . S
C171 H185 0.961 . S
C171 H186 0.961 . S
C171 H187 0.961 . S
C172 C173 1.370 . S
C172 C174 1.363 . S
C172 H188 0.931 . S
C173 C172 1.370 . S
C173 C177 1.408 . S
C174 C172 1.363 . S
C174 C175 1.370 . S
C174 C178 1.524 . S
C175 C167 1.503 . S
C175 C174 1.370 . S
C175 C176 1.403 . S
C176 C175 1.403 . S
C176 C177 1.404 . S
C176 C179 1.539 . S
C177 C173 1.408 . S
C177 C176 1.404 . S
C177 H189 0.930 . S
C178 C174 1.524 . S
C178 H190 0.956 . S
C178 H191 0.961 . S
C178 H192 0.961 . S
C179 C176 1.539 . S
C179 H193 0.958 . S
C179 H194 0.961 . S
C179 H195 0.960 . S
H180 C164 0.931 . S
H181 C169 0.929 . S
H182 C170 0.960 . S
H183 C170 0.962 . S
H184 C170 0.960 . S
H185 C171 0.961 . S
H186 C171 0.961 . S
H187 C171 0.961 . S
H188 C172 0.931 . S
H189 C177 0.930 . S
H190 C178 0.956 . S
H191 C178 0.961 . S
H192 C178 0.961 . S
H193 C179 0.958 . S
H194 C179 0.961 . S
H195 C179 0.960 . S
C196 C197 1.391 . S
C196 C198 1.394 . S
C196 H212 0.931 . S
C197 C196 1.391 . S
C197 C201 1.376 . S
C198 C196 1.394 . S
C198 C199 1.369 . S
C198 C202 1.531 . S
C199 C198 1.369 . S
C199 C200 1.410 . S
C199 C207 1.503 . S
C200 C199 1.410 . S
C200 C201 1.392 . S
C200 C203 1.511 . S
C201 C197 1.376 . S
C201 C200 1.392 . S
C201 H213 0.929 . S
C202 C198 1.531 . S
C202 H214 0.960 . S
C202 H215 0.962 . S
C202 H216 0.960 . S
C203 C200 1.511 . S
C203 H217 0.961 . S
C203 H218 0.961 . S
C203 H219 0.961 . S
C204 C205 1.370 . S
C204 C206 1.363 . S
C204 H220 0.931 . S
C205 C204 1.370 . S
C205 C209 1.408 . S
C206 C204 1.363 . S
C206 C207 1.370 . S
C206 C210 1.524 . S
C207 C199 1.503 . S
C207 C206 1.370 . S
C207 C208 1.403 . S
C208 C207 1.403 . S
C208 C209 1.404 . S
C208 C211 1.539 . S
C209 C205 1.408 . S
C209 C208 1.404 . S
C209 H221 0.930 . S
C210 C206 1.524 . S
C210 H222 0.956 . S
C210 H223 0.961 . S
C210 H224 0.961 . S
C211 C208 1.539 . S
C211 H225 0.958 . S
C211 H226 0.961 . S
C211 H227 0.960 . S
H212 C196 0.931 . S
H213 C201 0.929 . S
H214 C202 0.960 . S
H215 C202 0.962 . S
H216 C202 0.960 . S
H217 C203 0.961 . S
H218 C203 0.961 . S
H219 C203 0.961 . S
H220 C204 0.931 . S
H221 C209 0.930 . S
H222 C210 0.956 . S
H223 C210 0.961 . S
H224 C210 0.961 . S
H225 C211 0.958 . S
H226 C211 0.961 . S
H227 C211 0.960 . S
C228 C229 1.391 . S
C228 C230 1.394 . S
C228 H244 0.931 . S
C229 C228 1.391 . S
C229 C233 1.376 . S
C230 C228 1.394 . S
C230 C231 1.369 . S
C230 C234 1.531 . S
C231 C230 1.369 . S
C231 C232 1.410 . S
C231 C239 1.503 . S
C232 C231 1.410 . S
C232 C233 1.392 . S
C232 C235 1.511 . S
C233 C229 1.376 . S
C233 C232 1.392 . S
C233 H245 0.929 . S
C234 C230 1.531 . S
C234 H246 0.960 . S
C234 H247 0.962 . S
C234 H248 0.960 . S
C235 C232 1.511 . S
C235 H249 0.961 . S
C235 H250 0.961 . S
C235 H251 0.961 . S
C236 C237 1.370 . S
C236 C238 1.363 . S
C236 H252 0.931 . S
C237 C236 1.370 . S
C237 C241 1.408 . S
C238 C236 1.363 . S
C238 C239 1.370 . S
C238 C242 1.524 . S
C239 C231 1.503 . S
C239 C238 1.370 . S
C239 C240 1.403 . S
C240 C239 1.403 . S
C240 C241 1.404 . S
C240 C243 1.539 . S
C241 C237 1.408 . S
C241 C240 1.404 . S
C241 H253 0.930 . S
C242 C238 1.524 . S
C242 H254 0.956 . S
C242 H255 0.961 . S
C242 H256 0.961 . S
C243 C240 1.539 . S
C243 H257 0.958 . S
C243 H258 0.961 . S
C243 H259 0.960 . S
H244 C228 0.931 . S
H245 C233 0.929 . S
H246 C234 0.960 . S
H247 C234 0.962 . S
H248 C234 0.960 . S
H249 C235 0.961 . S
H250 C235 0.961 . S
H251 C235 0.961 . S
H252 C236 0.931 . S
H253 C241 0.930 . S
H254 C242 0.956 . S
H255 C242 0.961 . S
H256 C242 0.961 . S
H257 C243 0.958 . S
H258 C243 0.961 . S
H259 C243 0.960 . S
C260 C261 1.391 . S
C260 C262 1.394 . S
C260 H276 0.931 . S
C261 C260 1.391 . S
C261 C265 1.376 . S
C262 C260 1.394 . S
C262 C263 1.369 . S
C262 C266 1.531 1_554 S
C263 C262 1.369 . S
C263 C264 1.410 . S
C263 C271 1.503 1_655 S
C264 C263 1.410 . S
C264 C265 1.392 . S
C264 C267 1.511 . S
C265 C261 1.376 . S
C265 C264 1.392 . S
C265 H277 0.929 . S
C266 C262 1.531 1_556 S
C266 H278 0.960 1_556 S
C266 H279 0.962 . S
C266 H280 0.960 . S
C267 C264 1.511 . S
C267 H281 0.961 . S
C267 H282 0.961 1_655 S
C267 H283 0.961 . S
C268 C269 1.370 . S
C268 C270 1.363 . S
C268 H284 0.931 . S
C269 C268 1.370 . S
C269 C273 1.408 . S
C270 C268 1.363 . S
C270 C271 1.370 . S
C270 C274 1.524 1_455 S
C271 C263 1.503 1_455 S
C271 C270 1.370 . S
C271 C272 1.403 . S
C272 C271 1.403 . S
C272 C273 1.404 . S
C272 C275 1.539 . S
C273 C269 1.408 . S
C273 C272 1.404 . S
C273 H285 0.930 . S
C274 C270 1.524 1_655 S
C274 H286 0.956 1_554 S
C274 H287 0.961 . S
C274 H288 0.961 1_654 S
C275 C272 1.539 . S
C275 H289 0.958 . S
C275 H290 0.961 . S
C275 H291 0.960 . S
H276 C260 0.931 . S
H277 C265 0.929 . S
H278 C266 0.960 1_554 S
H279 C266 0.962 . S
H280 C266 0.960 . S
H281 C267 0.961 . S
H282 C267 0.961 1_455 S
H283 C267 0.961 . S
H284 C268 0.931 . S
H285 C273 0.930 . S
H286 C274 0.956 1_556 S
H287 C274 0.961 . S
H288 C274 0.961 1_456 S
H289 C275 0.958 . S
H290 C275 0.961 . S
H291 C275 0.960 . S
C292 C293 1.391 . S
C292 C294 1.394 . S
C292 H308 0.931 . S
C293 C292 1.391 . S
C293 C297 1.376 . S
C294 C292 1.394 . S
C294 C295 1.369 . S
C294 C298 1.531 . S
C295 C294 1.369 . S
C295 C296 1.410 . S
C295 C303 1.503 1_565 S
C296 C295 1.410 . S
C296 C297 1.392 . S
C296 C299 1.511 . S
C297 C293 1.376 . S
C297 C296 1.392 . S
C297 H309 0.929 . S
C298 C294 1.531 . S
C298 H310 0.960 1_565 S
C298 H311 0.965 . S
C298 H312 0.960 . S
C299 C296 1.511 . S
C299 H313 0.961 . S
C299 H314 0.961 1_565 S
C299 H315 0.959 1_565 S
C300 C301 1.370 . S
C300 C302 1.363 . S
C300 H316 0.931 1_554 S
C301 C300 1.370 . S
C301 C305 1.408 . S
C302 C300 1.363 . S
C302 C303 1.370 . S
C302 C306 1.524 1_554 S
C303 C295 1.503 1_545 S
C303 C302 1.370 . S
C303 C304 1.403 . S
C304 C303 1.403 . S
C304 C305 1.404 . S
C304 C307 1.539 . S
C305 C301 1.408 . S
C305 C304 1.404 . S
C305 H317 0.930 . S
C306 C302 1.524 1_556 S
C306 H318 0.944 1_545 S
C306 H319 0.961 1_545 S
C306 H320 0.961 . S
C307 C304 1.539 . S
C307 H321 0.958 . S
C307 H322 0.961 . S
C307 H323 0.960 . S
H308 C292 0.931 . S
H309 C297 0.929 . S
H310 C298 0.960 1_545 S
H311 C298 0.965 . S
H312 C298 0.960 . S
H313 C299 0.961 . S
H314 C299 0.961 1_545 S
H315 C299 0.959 1_545 S
H316 C300 0.931 1_556 S
H317 C305 0.930 . S
H318 C306 0.944 1_565 S
H319 C306 0.961 1_565 S
H320 C306 0.961 . S
H321 C307 0.958 . S
H322 C307 0.961 . S
H323 C307 0.960 . S
C324 C325 1.391 . S
C324 C326 1.394 . S
C324 H340 0.931 . S
C325 C324 1.391 . S
C325 C329 1.376 . S
C326 C324 1.394 . S
C326 C327 1.369 . S
C326 C330 1.531 . S
C327 C326 1.369 . S
C327 C328 1.410 . S
C327 C335 1.503 . S
C328 C327 1.410 . S
C328 C329 1.392 . S
C328 C331 1.511 1_554 S
C329 C325 1.376 . S
C329 C328 1.392 . S
C329 H341 0.929 1_554 S
C330 C326 1.531 . S
C330 H342 0.960 . S
C330 H343 0.962 . S
C330 H344 0.960 . S
C331 C328 1.511 1_556 S
C331 H345 0.961 . S
C331 H346 0.961 . S
C331 H347 0.961 1_556 S
C332 C333 1.370 1_556 S
C332 C334 1.363 . S
C332 H348 0.931 . S
C333 C332 1.370 1_554 S
C333 C337 1.408 . S
C334 C332 1.363 . S
C334 C335 1.370 1_556 S
C334 C338 1.524 . S
C335 C327 1.503 . S
C335 C334 1.370 1_554 S
C335 C336 1.403 . S
C336 C335 1.403 . S
C336 C337 1.404 . S
C336 C339 1.539 . S
C337 C333 1.408 . S
C337 C336 1.404 . S
C337 H349 0.930 . S
C338 C334 1.524 . S
C338 H350 0.956 . S
C338 H351 0.961 . S
C338 H352 0.961 . S
C339 C336 1.539 . S
C339 H353 0.958 . S
C339 H354 0.961 . S
C339 H355 0.960 . S
H340 C324 0.931 . S
H341 C329 0.929 1_556 S
H342 C330 0.960 . S
H343 C330 0.962 . S
H344 C330 0.960 . S
H345 C331 0.961 . S
H346 C331 0.961 . S
H347 C331 0.961 1_554 S
H348 C332 0.931 . S
H349 C337 0.930 . S
H350 C338 0.956 . S
H351 C338 0.961 . S
H352 C338 0.961 . S
H353 C339 0.958 . S
H354 C339 0.961 . S
H355 C339 0.960 . S
C356 C357 1.391 . S
C356 C358 1.394 . S
C356 H372 0.931 . S
C357 C356 1.391 . S
C357 C361 1.376 . S
C358 C356 1.394 . S
C358 C359 1.369 . S
C358 C362 1.531 . S
C359 C358 1.369 . S
C359 C360 1.410 . S
C359 C367 1.503 . S
C360 C359 1.410 . S
C360 C361 1.392 . S
C360 C363 1.511 . S
C361 C357 1.376 . S
C361 C360 1.392 . S
C361 H373 0.929 . S
C362 C358 1.531 . S
C362 H374 0.960 . S
C362 H375 0.962 . S
C362 H376 0.960 . S
C363 C360 1.511 . S
C363 H377 0.961 . S
C363 H378 0.961 . S
C363 H379 0.961 1_554 S
C364 C365 1.370 . S
C364 C366 1.363 . S
C364 H380 0.931 . S
C365 C364 1.370 . S
C365 C369 1.408 . S
C366 C364 1.363 . S
C366 C367 1.370 . S
C366 C370 1.524 . S
C367 C359 1.503 . S
C367 C366 1.370 . S
C367 C368 1.403 . S
C368 C367 1.403 . S
C368 C369 1.404 . S
C368 C371 1.539 1_554 S
C369 C365 1.408 . S
C369 C368 1.404 . S
C369 H381 0.930 1_554 S
C370 C366 1.524 . S
C370 H382 0.956 . S
C370 H383 0.961 . S
C370 H384 0.961 . S
C371 C368 1.539 1_556 S
C371 H385 0.958 . S
C371 H386 0.961 . S
C371 H387 0.960 . S
H372 C356 0.931 . S
H373 C361 0.929 . S
H374 C362 0.960 . S
H375 C362 0.962 . S
H376 C362 0.960 . S
H377 C363 0.961 . S
H378 C363 0.961 . S
H379 C363 0.961 1_556 S
H380 C364 0.931 . S
H381 C369 0.930 1_556 S
H382 C370 0.956 . S
H383 C370 0.961 . S
H384 C370 0.961 . S
H385 C371 0.958 . S
H386 C371 0.961 . S
H387 C371 0.960 . S
C388 C389 1.391 . S
C388 C390 1.394 . S
C388 H404 0.931 . S
C389 C388 1.391 . S
C389 C393 1.376 . S
C390 C388 1.394 . S
C390 C391 1.369 . S
C390 C394 1.531 . S
C391 C390 1.369 . S
C391 C392 1.410 . S
C391 C399 1.503 . S
C392 C391 1.410 . S
C392 C393 1.392 . S
C392 C395 1.511 . S
C393 C389 1.376 . S
C393 C392 1.392 . S
C393 H405 0.929 . S
C394 C390 1.531 . S
C394 H406 0.960 . S
C394 H407 0.962 . S
C394 H408 0.960 . S
C395 C392 1.511 . S
C395 H409 0.961 . S
C395 H410 0.961 . S
C395 H411 0.961 . S
C396 C397 1.370 . S
C396 C398 1.363 . S
C396 H412 0.931 . S
C397 C396 1.370 . S
C397 C401 1.408 . S
C398 C396 1.363 . S
C398 C399 1.370 . S
C398 C402 1.524 . S
C399 C391 1.503 . S
C399 C398 1.370 . S
C399 C400 1.403 . S
C400 C399 1.403 . S
C400 C401 1.404 . S
C400 C403 1.539 . S
C401 C397 1.408 . S
C401 C400 1.404 . S
C401 H413 0.930 . S
C402 C398 1.524 . S
C402 H414 0.956 . S
C402 H415 0.961 . S
C402 H416 0.961 . S
C403 C400 1.539 . S
C403 H417 0.958 . S
C403 H418 0.961 1_554 S
C403 H419 0.960 . S
H404 C388 0.931 . S
H405 C393 0.929 . S
H406 C394 0.960 . S
H407 C394 0.962 . S
H408 C394 0.960 . S
H409 C395 0.961 . S
H410 C395 0.961 . S
H411 C395 0.961 . S
H412 C396 0.931 . S
H413 C401 0.930 . S
H414 C402 0.956 . S
H415 C402 0.961 . S
H416 C402 0.961 . S
H417 C403 0.958 . S
H418 C403 0.961 1_556 S
H419 C403 0.960 . S
C420 C421 1.391 . S
C420 C422 1.394 . S
C420 H436 0.931 . S
C421 C420 1.391 . S
C421 C425 1.376 . S
C422 C420 1.394 . S
C422 C423 1.369 . S
C422 C426 1.531 . S
C423 C422 1.369 . S
C423 C424 1.410 . S
C423 C431 1.503 . S
C424 C423 1.410 . S
C424 C425 1.392 . S
C424 C427 1.511 . S
C425 C421 1.376 . S
C425 C424 1.392 . S
C425 H437 0.929 . S
C426 C422 1.531 . S
C426 H438 0.960 . S
C426 H439 0.962 . S
C426 H440 0.960 . S
C427 C424 1.511 . S
C427 H441 0.961 . S
C427 H442 0.961 . S
C427 H443 0.961 . S
C428 C429 1.370 . S
C428 C430 1.363 . S
C428 H444 0.931 . S
C429 C428 1.370 . S
C429 C433 1.408 1_554 S
C430 C428 1.363 . S
C430 C431 1.370 . S
C430 C434 1.524 . S
C431 C423 1.503 . S
C431 C430 1.370 . S
C431 C432 1.409 . S
C432 C431 1.409 . S
C432 C433 1.404 1_554 S
C432 C435 1.532 1_554 S
C433 C429 1.408 1_556 S
C433 C432 1.404 1_556 S
C433 H445 0.930 . S
C434 C430 1.524 . S
C434 H446 0.956 . S
C434 H447 0.961 . S
C434 H448 0.961 . S
C435 C432 1.532 1_556 S
C435 H449 0.958 . S
C435 H450 0.961 . S
C435 H451 0.960 . S
H436 C420 0.931 . S
H437 C425 0.929 . S
H438 C426 0.960 . S
H439 C426 0.962 . S
H440 C426 0.960 . S
H441 C427 0.961 . S
H442 C427 0.961 . S
H443 C427 0.961 . S
H444 C428 0.931 . S
H445 C433 0.930 . S
H446 C434 0.956 . S
H447 C434 0.961 . S
H448 C434 0.961 . S
H449 C435 0.958 . S
H450 C435 0.961 . S
H451 C435 0.960 . S
C133 N14 1.476 . S
C141 N5 1.446 . S
C165 N47 1.441 . S
C173 N38 1.472 . S
C197 N71 1.485 . S
C205 N80 1.449 . S
C229 N104 1.428 . S
C237 N113 1.462 . S
C261 C94 0.975 . S
C269 C28 0.975 . S
C293 C127 0.980 . S
C301 C61 0.977 . S
C325 C41 1.446 . S
C333 C17 1.488 . S
C357 C83 1.220 . S
C365 C50 1.228 . S
C389 C116 1.479 . S
C397 C74 1.462 . S
C421 C107 1.773 . S
C429 C8 1.787 . S
