# Generated by pormake.
# Topology gis, (4)-cn, num edge types: 1
# Building blocks:
#     Node 0, Type 0, BuildingBlock: TATPOV_clean_sbu_0, # of connection points: 4
#     Node 1, Type 0, BuildingBlock: TATPOV_clean_sbu_0, # of connection points: 4
#     Node 2, Type 0, BuildingBlock: TATPOV_clean_sbu_0, # of connection points: 4
#     Node 3, Type 0, BuildingBlock: TATPOV_clean_sbu_0, # of connection points: 4
#     Node 4, Type 0, BuildingBlock: TATPOV_clean_sbu_0, # of connection points: 4
#     Node 5, Type 0, BuildingBlock: TATPOV_clean_sbu_0, # of connection points: 4
#     Node 6, Type 0, BuildingBlock: TATPOV_clean_sbu_0, # of connection points: 4
#     Node 7, Type 0, BuildingBlock: TATPOV_clean_sbu_0, # of connection points: 4
#     Node 8, Type 0, BuildingBlock: TATPOV_clean_sbu_0, # of connection points: 4
#     Node 9, Type 0, BuildingBlock: TATPOV_clean_sbu_0, # of connection points: 4
#     Node 10, Type 0, BuildingBlock: TATPOV_clean_sbu_0, # of connection points: 4
#     Node 11, Type 0, BuildingBlock: TATPOV_clean_sbu_0, # of connection points: 4
#     Node 12, Type 0, BuildingBlock: TATPOV_clean_sbu_0, # of connection points: 4
#     Node 13, Type 0, BuildingBlock: TATPOV_clean_sbu_0, # of connection points: 4
#     Node 14, Type 0, BuildingBlock: TATPOV_clean_sbu_0, # of connection points: 4
#     Node 15, Type 0, BuildingBlock: TATPOV_clean_sbu_0, # of connection points: 4
#     Edge 16, Type (0, 0), BuildingBlock: KIFKEQ_clean_linker_1, # of connection points: 2
#     Edge 17, Type (0, 0), BuildingBlock: KIFKEQ_clean_linker_1, # of connection points: 2
#     Edge 18, Type (0, 0), BuildingBlock: KIFKEQ_clean_linker_1, # of connection points: 2
#     Edge 19, Type (0, 0), BuildingBlock: KIFKEQ_clean_linker_1, # of connection points: 2
#     Edge 20, Type (0, 0), BuildingBlock: KIFKEQ_clean_linker_1, # of connection points: 2
#     Edge 21, Type (0, 0), BuildingBlock: KIFKEQ_clean_linker_1, # of connection points: 2
#     Edge 22, Type (0, 0), BuildingBlock: KIFKEQ_clean_linker_1, # of connection points: 2
#     Edge 23, Type (0, 0), BuildingBlock: KIFKEQ_clean_linker_1, # of connection points: 2
#     Edge 24, Type (0, 0), BuildingBlock: KIFKEQ_clean_linker_1, # of connection points: 2
#     Edge 25, Type (0, 0), BuildingBlock: KIFKEQ_clean_linker_1, # of connection points: 2
#     Edge 26, Type (0, 0), BuildingBlock: KIFKEQ_clean_linker_1, # of connection points: 2
#     Edge 27, Type (0, 0), BuildingBlock: KIFKEQ_clean_linker_1, # of connection points: 2
#     Edge 28, Type (0, 0), BuildingBlock: KIFKEQ_clean_linker_1, # of connection points: 2
#     Edge 29, Type (0, 0), BuildingBlock: KIFKEQ_clean_linker_1, # of connection points: 2
#     Edge 30, Type (0, 0), BuildingBlock: KIFKEQ_clean_linker_1, # of connection points: 2
#     Edge 31, Type (0, 0), BuildingBlock: KIFKEQ_clean_linker_1, # of connection points: 2
#     Edge 32, Type (0, 0), BuildingBlock: KIFKEQ_clean_linker_1, # of connection points: 2
#     Edge 33, Type (0, 0), BuildingBlock: KIFKEQ_clean_linker_1, # of connection points: 2
#     Edge 34, Type (0, 0), BuildingBlock: KIFKEQ_clean_linker_1, # of connection points: 2
#     Edge 35, Type (0, 0), BuildingBlock: KIFKEQ_clean_linker_1, # of connection points: 2
#     Edge 36, Type (0, 0), BuildingBlock: KIFKEQ_clean_linker_1, # of connection points: 2
#     Edge 37, Type (0, 0), BuildingBlock: KIFKEQ_clean_linker_1, # of connection points: 2
#     Edge 38, Type (0, 0), BuildingBlock: KIFKEQ_clean_linker_1, # of connection points: 2
#     Edge 39, Type (0, 0), BuildingBlock: KIFKEQ_clean_linker_1, # of connection points: 2
#     Edge 40, Type (0, 0), BuildingBlock: KIFKEQ_clean_linker_1, # of connection points: 2
#     Edge 41, Type (0, 0), BuildingBlock: KIFKEQ_clean_linker_1, # of connection points: 2
#     Edge 42, Type (0, 0), BuildingBlock: KIFKEQ_clean_linker_1, # of connection points: 2
#     Edge 43, Type (0, 0), BuildingBlock: KIFKEQ_clean_linker_1, # of connection points: 2
#     Edge 44, Type (0, 0), BuildingBlock: KIFKEQ_clean_linker_1, # of connection points: 2
#     Edge 45, Type (0, 0), BuildingBlock: KIFKEQ_clean_linker_1, # of connection points: 2
#     Edge 46, Type (0, 0), BuildingBlock: KIFKEQ_clean_linker_1, # of connection points: 2
#     Edge 47, Type (0, 0), BuildingBlock: KIFKEQ_clean_linker_1, # of connection points: 2
# Relax obj value: 0.142
# Max RMSD: 0.161
# Mean RMSD: 0.141
data_MOF--net-gis--node1-TATPOV_clean_sbu_0--edge1-KIFKEQ_clean_linker_1
_symmetry_space_group_name_H-M    P1
_symmetry_Int_Tables_number       1
_symmetry_cell_setting            triclinic
loop_
_symmetry_equiv_pos_as_xyz
'x, y, z'
_cell_length_a     47.803581
_cell_length_b     47.831245
_cell_length_c     47.736674
_cell_angle_alpha  91.536189
_cell_angle_beta   91.595143
_cell_angle_gamma 89.945454
loop_
_atom_site_label
_atom_site_type_symbol
_atom_site_fract_x
_atom_site_fract_y
_atom_site_fract_z
_atom_type_partial_charge
Zn0 Zn 0.13789 0.63178 0.0561 0.0
Zn1 Zn 0.15303 0.61131 0.10559 0.0
O2 O 0.17408 0.58756 0.07571 0.0
O3 O 0.16283 0.60557 0.03501 0.0
O4 O 0.1678 0.59485 0.14168 0.0
O5 O 0.15121 0.67005 0.06878 0.0
O6 O 0.16338 0.65318 0.10979 0.0
C7 C 0.17619 0.58768 0.04911 0.0
C8 C 0.09155 0.60994 0.08691 0.0
O9 O 0.11025 0.60536 0.10582 0.0
O10 O 0.09831 0.62023 0.06387 0.0
C11 C 0.16613 0.6071 0.16556 0.0
O12 O 0.1533 0.63135 0.16746 0.0
C13 C 0.16113 0.67379 0.09346 0.0
Zn14 Zn 0.66928 0.88677 0.45875 0.0
Zn15 Zn 0.68807 0.90119 0.4085 0.0
O16 O 0.7063 0.92981 0.43678 0.0
O17 O 0.6952 0.91451 0.47813 0.0
O18 O 0.70489 0.91027 0.37129 0.0
O19 O 0.68094 0.84663 0.45265 0.0
O20 O 0.69597 0.85883 0.41155 0.0
C21 C 0.70768 0.93201 0.46348 0.0
C22 C 0.6264 0.90805 0.42019 0.0
O23 O 0.64639 0.9088 0.40316 0.0
O24 O 0.63078 0.9001 0.44507 0.0
C25 C 0.69502 0.92882 0.35514 0.0
O26 O 0.67313 0.94344 0.36289 0.0
C27 C 0.69193 0.84012 0.42957 0.0
Zn28 Zn 0.34736 0.40318 0.56589 0.0
Zn29 Zn 0.32414 0.41917 0.61315 0.0
O30 O 0.30849 0.44841 0.58491 0.0
O31 O 0.32539 0.43195 0.54522 0.0
O32 O 0.30576 0.42816 0.65009 0.0
O33 O 0.33208 0.36457 0.56731 0.0
O34 O 0.31178 0.3776 0.60631 0.0
C35 C 0.31069 0.44965 0.55836 0.0
C36 C 0.3881 0.42126 0.60771 0.0
O37 O 0.36641 0.42466 0.62243 0.0
O38 O 0.38554 0.41236 0.58255 0.0
C39 C 0.27941 0.42568 0.65223 0.0
O40 O 0.26418 0.4191 0.62968 0.0
C41 C 0.31666 0.35891 0.58748 0.0
Zn42 Zn 0.8669 0.07977 0.79879 0.0
Zn43 Zn 0.8511 0.06415 0.84982 0.0
O44 O 0.8232 0.04365 0.82281 0.0
O45 O 0.83796 0.05407 0.78102 0.0
O46 O 0.83911 0.05334 0.88825 0.0
O47 O 0.90513 0.06472 0.80701 0.0
O48 O 0.89249 0.05126 0.84856 0.0
C49 C 0.82115 0.04126 0.79617 0.0
C50 C 0.84847 0.12584 0.83327 0.0
O51 O 0.84544 0.10654 0.8508 0.0
O52 O 0.85742 0.12003 0.80906 0.0
C53 C 0.81358 0.054 0.89507 0.0
O54 O 0.7944 0.06153 0.87651 0.0
C55 C 0.911 0.05315 0.82997 0.0
Zn56 Zn 0.16768 0.36788 0.94385 0.0
Zn57 Zn 0.18235 0.38322 0.89422 0.0
O58 O 0.20171 0.41109 0.92305 0.0
O59 O 0.19456 0.39342 0.96426 0.0
O60 O 0.19902 0.39313 0.85709 0.0
O61 O 0.17679 0.32755 0.93693 0.0
O62 O 0.19082 0.34064 0.89584 0.0
C63 C 0.20524 0.41212 0.94969 0.0
C64 C 0.12213 0.3908 0.90976 0.0
O65 O 0.13994 0.39103 0.89039 0.0
O66 O 0.12919 0.38286 0.93406 0.0
C67 C 0.18915 0.41097 0.84016 0.0
O68 O 0.16631 0.42475 0.84654 0.0
C69 C 0.18706 0.32145 0.91342 0.0
Zn70 Zn 0.83162 0.89843 0.07334 0.0
Zn71 Zn 0.81281 0.92206 0.11996 0.0
O72 O 0.79707 0.9483 0.08906 0.0
O73 O 0.80979 0.92566 0.0506 0.0
O74 O 0.79745 0.93639 0.15665 0.0
O75 O 0.8145 0.86159 0.08094 0.0
O76 O 0.79892 0.88084 0.11985 0.0
C77 C 0.79736 0.94595 0.06235 0.0
C78 C 0.87575 0.91991 0.1102 0.0
O79 O 0.85536 0.92651 0.12572 0.0
O80 O 0.87114 0.90768 0.08665 0.0
C81 C 0.77135 0.93483 0.16083 0.0
O82 O 0.75454 0.92622 0.14012 0.0
C83 C 0.8011 0.85967 0.10325 0.0
Zn84 Zn 0.37086 0.59369 0.3107 0.0
Zn85 Zn 0.34859 0.59038 0.35971 0.0
O86 O 0.31728 0.57655 0.33104 0.0
O87 O 0.33726 0.57842 0.29018 0.0
O88 O 0.33374 0.58209 0.39802 0.0
O89 O 0.40313 0.5688 0.31915 0.0
O90 O 0.38783 0.57077 0.36216 0.0
C91 C 0.31606 0.57321 0.30439 0.0
C92 C 0.36382 0.64746 0.34009 0.0
O93 O 0.35234 0.63301 0.35865 0.0
O94 O 0.37387 0.63548 0.31857 0.0
C95 C 0.30841 0.57686 0.40354 0.0
O96 O 0.28911 0.57805 0.38347 0.0
C97 C 0.40629 0.5631 0.34472 0.0
Zn98 Zn 0.61562 0.10479 0.68013 0.0
Zn99 Zn 0.64094 0.09944 0.63069 0.0
O100 O 0.66118 0.07308 0.65828 0.0
O101 O 0.63969 0.07593 0.69841 0.0
O102 O 0.66019 0.0897 0.59463 0.0
O103 O 0.57929 0.09283 0.66182 0.0
O104 O 0.59936 0.0915 0.62078 0.0
C105 C 0.65869 0.06548 0.68349 0.0
C106 C 0.64119 0.15617 0.6599 0.0
O107 O 0.64829 0.14107 0.63888 0.0
O108 O 0.62778 0.14549 0.67954 0.0
C109 C 0.6865 0.0857 0.59426 0.0
O110 O 0.7016 0.09057 0.61729 0.0
C111 C 0.5777 0.08906 0.6355 0.0
Zn112 Zn 0.86771 0.3657 0.94163 0.0
Zn113 Zn 0.85451 0.3875 0.89221 0.0
O114 O 0.83336 0.41087 0.92209 0.0
O115 O 0.84107 0.39044 0.96233 0.0
O116 O 0.83961 0.40341 0.85586 0.0
O117 O 0.85559 0.32761 0.92822 0.0
O118 O 0.84451 0.34548 0.88739 0.0
C119 C 0.82933 0.40943 0.94831 0.0
C120 C 0.91496 0.38955 0.91277 0.0
O121 O 0.89706 0.39436 0.89319 0.0
O122 O 0.90729 0.37844 0.93513 0.0
C123 C 0.83399 0.42925 0.85335 0.0
O124 O 0.83981 0.44669 0.87442 0.0
C125 C 0.84626 0.32448 0.90328 0.0
Zn126 Zn 0.32451 0.11346 0.5481 0.0
Zn127 Zn 0.31627 0.0973 0.60077 0.0
O128 O 0.29876 0.06565 0.57566 0.0
O129 O 0.30164 0.08114 0.53281 0.0
O130 O 0.30956 0.08468 0.6399 0.0
O131 O 0.30575 0.15013 0.55686 0.0
O132 O 0.29982 0.13743 0.60033 0.0
C133 C 0.29407 0.06254 0.54935 0.0
C134 C 0.37553 0.1013 0.57952 0.0
O135 O 0.35849 0.0971 0.59897 0.0
O136 O 0.36654 0.10817 0.55543 0.0
C137 C 0.31386 0.05951 0.64685 0.0
O138 O 0.32281 0.04129 0.62806 0.0
C139 C 0.29722 0.15551 0.58128 0.0
Zn140 Zn 0.65657 0.59418 0.33583 0.0
Zn141 Zn 0.66965 0.57427 0.3849 0.0
O142 O 0.70005 0.55788 0.35836 0.0
O143 O 0.68356 0.56899 0.31657 0.0
O144 O 0.67808 0.55633 0.42215 0.0
O145 O 0.61665 0.58242 0.33763 0.0
O146 O 0.62784 0.56291 0.37759 0.0
C147 C 0.70158 0.55671 0.3317 0.0
C148 C 0.67581 0.63668 0.37574 0.0
O149 O 0.67543 0.61657 0.39276 0.0
O150 O 0.66961 0.63235 0.35003 0.0
C151 C 0.67803 0.52979 0.42344 0.0
O152 O 0.6736 0.5148 0.40027 0.0
C153 C 0.60975 0.56817 0.35827 0.0
Zn154 Zn 0.12431 0.91449 0.20182 0.0
Zn155 Zn 0.13875 0.93262 0.15055 0.0
O156 O 0.16492 0.9537 0.17853 0.0
O157 O 0.15156 0.942 0.2204 0.0
O158 O 0.14825 0.94798 0.11284 0.0
O159 O 0.08419 0.92538 0.19406 0.0
O160 O 0.0963 0.9397 0.15267 0.0
C161 C 0.16749 0.95577 0.20512 0.0
C162 C 0.14724 0.87134 0.16451 0.0
O163 O 0.14868 0.89118 0.14732 0.0
O164 O 0.13783 0.87588 0.1888 0.0
C165 C 0.1721 0.9581 0.10761 0.0
O166 O 0.19194 0.95833 0.1272 0.0
C167 C 0.07757 0.93573 0.17066 0.0
Zn168 Zn 0.82933 0.62772 0.07521 0.0
Zn169 Zn 0.82532 0.60343 0.12394 0.0
O170 O 0.80926 0.57548 0.09358 0.0
O171 O 0.81125 0.59636 0.05318 0.0
O172 O 0.81477 0.58433 0.15931 0.0
O173 O 0.80583 0.65999 0.08713 0.0
O174 O 0.80661 0.64256 0.12938 0.0
C175 C 0.80483 0.57532 0.06709 0.0
C176 C 0.88303 0.61635 0.10453 0.0
O177 O 0.86826 0.60529 0.12311 0.0
O178 O 0.87127 0.62736 0.08336 0.0
C179 C 0.82908 0.57853 0.18126 0.0
O180 O 0.85575 0.58513 0.18309 0.0
C181 C 0.79954 0.66183 0.11263 0.0
Zn182 Zn 0.15517 0.07484 0.81419 0.0
Zn183 Zn 0.17522 0.05681 0.86324 0.0
O184 O 0.20329 0.04036 0.83464 0.0
O185 O 0.18432 0.05291 0.79424 0.0
O186 O 0.18633 0.03946 0.90011 0.0
O187 O 0.11791 0.05722 0.81877 0.0
O188 O 0.13369 0.04411 0.86017 0.0
C189 C 0.2033 0.04033 0.80791 0.0
C190 C 0.17435 0.1194 0.85257 0.0
O191 O 0.18014 0.0993 0.86876 0.0
O192 O 0.16338 0.11441 0.82847 0.0
C193 C 0.19066 0.05283 0.92321 0.0
O194 O 0.19028 0.08029 0.92361 0.0
C195 C 0.1141 0.0452 0.84159 0.0
Zn196 Zn 0.63111 0.41127 0.71336 0.0
Zn197 Zn 0.64744 0.42478 0.66356 0.0
O198 O 0.6771 0.44159 0.69202 0.0
O199 O 0.65862 0.43689 0.73331 0.0
O200 O 0.65701 0.44191 0.62669 0.0
O201 O 0.59104 0.42237 0.70674 0.0
O202 O 0.60536 0.4352 0.6657 0.0
C203 C 0.67825 0.44556 0.71859 0.0
C204 C 0.65125 0.36444 0.6783 0.0
O205 O 0.65275 0.38229 0.65904 0.0
O206 O 0.64372 0.37197 0.70264 0.0
C207 C 0.67374 0.43245 0.60848 0.0
O208 O 0.68729 0.40903 0.6131 0.0
C209 C 0.58574 0.43263 0.68304 0.0
Zn210 Zn 0.3888 0.90865 0.30934 0.0
Zn211 Zn 0.36629 0.91597 0.36037 0.0
O212 O 0.34248 0.93753 0.33185 0.0
O213 O 0.36167 0.9351 0.29058 0.0
O214 O 0.34776 0.9292 0.39551 0.0
O215 O 0.42591 0.92288 0.32521 0.0
O216 O 0.40757 0.92649 0.36699 0.0
C217 C 0.3425 0.94407 0.30618 0.0
C218 C 0.36745 0.85774 0.33612 0.0
O219 O 0.36146 0.87386 0.35675 0.0
O220 O 0.37817 0.86759 0.3144 0.0
C221 C 0.33701 0.91669 0.41577 0.0
O222 O 0.33824 0.8893 0.41683 0.0
C223 C 0.42853 0.92839 0.35124 0.0
H224 H 0.17531 0.85496 0.11765 0.0
H225 H 0.13794 0.82274 0.1916 0.0
H226 H 0.18575 0.80741 0.10157 0.0
H227 H 0.14741 0.77525 0.17507 0.0
H228 H 0.17799 0.6913 0.14657 0.0
H229 H 0.1808 0.73941 0.16488 0.0
H230 H 0.15907 0.76946 0.08249 0.0
H231 H 0.15725 0.72181 0.06413 0.0
C232 C 0.16939 0.83774 0.13051 0.0
C233 C 0.15552 0.84264 0.15575 0.0
C234 C 0.1753 0.81045 0.12126 0.0
C235 C 0.16722 0.78741 0.13688 0.0
C236 C 0.1543 0.79242 0.16265 0.0
C237 C 0.14863 0.81971 0.17203 0.0
C238 C 0.17439 0.70822 0.13229 0.0
C239 C 0.16712 0.70266 0.10395 0.0
C240 C 0.17578 0.73581 0.14282 0.0
C241 C 0.16985 0.75837 0.12525 0.0
C242 C 0.16408 0.75274 0.09663 0.0
C243 C 0.16283 0.72527 0.08611 0.0
H244 H 0.47392 0.94983 0.32593 0.0
H245 H 0.44695 0.91738 0.40425 0.0
H246 H 0.52213 0.95065 0.34384 0.0
H247 H 0.49513 0.91642 0.42162 0.0
H248 H 0.58358 0.92624 0.4526 0.0
H249 H 0.53608 0.93803 0.43737 0.0
H250 H 0.55721 0.91814 0.35153 0.0
H251 H 0.60498 0.90811 0.36673 0.0
C252 C 0.47833 0.94311 0.34709 0.0
C253 C 0.45676 0.93338 0.36364 0.0
C254 C 0.506 0.94327 0.35729 0.0
C255 C 0.51279 0.93305 0.38402 0.0
C256 C 0.49088 0.92474 0.40107 0.0
C257 C 0.46315 0.92518 0.39108 0.0
C258 C 0.57803 0.92464 0.43046 0.0
C259 C 0.59789 0.91609 0.41086 0.0
C260 C 0.55075 0.93128 0.4217 0.0
C261 C 0.54255 0.92892 0.39318 0.0
C262 C 0.56271 0.9208 0.37359 0.0
C263 C 0.59012 0.91475 0.3823 0.0
H264 H 0.29473 0.3328 0.63286 0.0
H265 H 0.31289 0.32006 0.54528 0.0
H266 H 0.28056 0.28354 0.63512 0.0
H267 H 0.29939 0.2716 0.54757 0.0
H268 H 0.26597 0.18902 0.54789 0.0
H269 H 0.26158 0.23965 0.55257 0.0
H270 H 0.30498 0.23797 0.63313 0.0
H271 H 0.30812 0.18699 0.6289 0.0
C272 C 0.29532 0.31965 0.61406 0.0
C273 C 0.30516 0.33026 0.58895 0.0
C274 C 0.28733 0.29146 0.61537 0.0
C275 C 0.28868 0.27361 0.5915 0.0
C276 C 0.29749 0.28473 0.56626 0.0
C277 C 0.30559 0.31258 0.56501 0.0
C278 C 0.27366 0.19941 0.56703 0.0
C279 C 0.28771 0.18423 0.58786 0.0
C280 C 0.27134 0.22842 0.56965 0.0
C281 C 0.2837 0.24296 0.59283 0.0
C282 C 0.29525 0.22747 0.615 0.0
C283 C 0.29709 0.19825 0.61259 0.0
H284 H 0.08394 0.00901 0.80867 0.0
H285 H 0.08106 0.05825 0.8855 0.0
H286 H 0.03366 0.00102 0.81012 0.0
H287 H 0.03032 0.05194 0.88619 0.0
H288 H 0.93685 0.03808 0.87975 0.0
H289 H 0.98645 0.02636 0.88728 0.0
H290 H -0.00059 0.03448 0.79858 0.0
H291 H 0.9506 0.04521 0.79113 0.0
C292 C 0.07251 0.01753 0.82624 0.0
C293 C 0.08607 0.0344 0.84683 0.0
C294 C 0.04372 0.0132 0.827 0.0
C295 C 0.02779 0.02659 0.84778 0.0
C296 C 0.04188 0.04129 0.86989 0.0
C297 C 0.07092 0.045 0.86951 0.0
C298 C 0.95031 0.03676 0.86188 0.0
C299 C 0.93987 0.04286 0.8349 0.0
C300 C 0.9787 0.03018 0.8662 0.0
C301 C 0.99698 0.02938 0.84355 0.0
C302 C 0.98602 0.03428 0.8165 0.0
C303 C 0.95793 0.04084 0.81224 0.0
H304 H 0.18006 0.27597 0.94584 0.0
H305 H 0.2046 0.29942 0.86322 0.0
H306 H 0.18088 0.227 0.93118 0.0
H307 H 0.20617 0.25012 0.84874 0.0
H308 H 0.16283 0.1667 0.82371 0.0
H309 H 0.17091 0.21494 0.83879 0.0
H310 H 0.20825 0.18709 0.91668 0.0
H311 H 0.19952 0.13855 0.90181 0.0
C312 C 0.18617 0.27067 0.92467 0.0
C313 C 0.19193 0.29169 0.90559 0.0
C314 C 0.18682 0.24249 0.91632 0.0
C315 C 0.19331 0.2346 0.8887 0.0
C316 C 0.20057 0.25553 0.87004 0.0
C317 C 0.19987 0.28378 0.87839 0.0
C318 C 0.17288 0.17077 0.84402 0.0
C319 C 0.18033 0.14871 0.86164 0.0
C320 C 0.17777 0.19851 0.85257 0.0
C321 C 0.19032 0.20494 0.87892 0.0
C322 C 0.19828 0.18287 0.89636 0.0
C323 C 0.19332 0.15505 0.88781 0.0
H324 H 0.92335 0.90913 0.08165 0.0
H325 H 0.89426 0.94556 0.15942 0.0
H326 H 0.97141 0.91815 0.09691 0.0
H327 H 0.94266 0.95513 0.17452 0.0
H328 H 0.03247 0.92759 0.20341 0.0
H329 H 0.9833 0.92788 0.18902 0.0
H330 H 0.00546 0.95489 0.10689 0.0
H331 H 0.05486 0.95398 0.12107 0.0
C332 C 0.92717 0.9193 0.10193 0.0
C333 C 0.90492 0.92644 0.11939 0.0
C334 C 0.95479 0.92473 0.11058 0.0
C335 C 0.9609 0.93748 0.13689 0.0
C336 C 0.93864 0.94507 0.15421 0.0
C337 C 0.91093 0.93964 0.14553 0.0
C338 C 0.02689 0.934 0.1824 0.0
C339 C 0.04766 0.94039 0.16327 0.0
C340 C -0.00137 0.93432 0.1742 0.0
C341 C 0.99047 0.94108 0.14671 0.0
C342 C 0.01112 0.94907 0.12808 0.0
C343 C 0.03942 0.94872 0.13627 0.0
H344 H 0.39689 0.68243 0.3118 0.0
H345 H 0.33273 0.68227 0.37379 0.0
H346 H 0.39621 0.73312 0.31237 0.0
H347 H 0.33141 0.73345 0.37374 0.0
H348 H 0.36749 0.81925 0.29313 0.0
H349 H 0.3654 0.76869 0.29586 0.0
H350 H 0.35743 0.77616 0.38572 0.0
H351 H 0.35862 0.82711 0.38283 0.0
C352 C 0.38257 0.69325 0.32555 0.0
C353 C 0.36468 0.67832 0.34256 0.0
C354 C 0.38203 0.72236 0.32573 0.0
C355 C 0.36335 0.73737 0.34267 0.0
C356 C 0.34608 0.72252 0.36047 0.0
C357 C 0.3468 0.69322 0.36048 0.0
C358 C 0.36508 0.81016 0.31347 0.0
C359 C 0.3635 0.82718 0.33779 0.0
C360 C 0.36407 0.78114 0.31507 0.0
C361 C 0.36182 0.76833 0.34109 0.0
C362 C 0.35912 0.78535 0.36535 0.0
C363 C 0.35987 0.81453 0.3637 0.0
H364 H 0.5575 0.10913 0.58594 0.0
H365 H 0.53532 0.05886 0.65568 0.0
H366 H 0.5085 0.1099 0.56992 0.0
H367 H 0.48677 0.05818 0.63902 0.0
H368 H 0.40211 0.09908 0.63041 0.0
H369 H 0.45154 0.09238 0.64048 0.0
H370 H 0.46706 0.08716 0.55167 0.0
H371 H 0.4173 0.09511 0.54158 0.0
C372 C 0.54224 0.09747 0.59726 0.0
C373 C 0.54996 0.08426 0.62221 0.0
C374 C 0.51418 0.09787 0.58811 0.0
C375 C 0.49356 0.08467 0.60359 0.0
C376 C 0.50192 0.06938 0.62714 0.0
C377 C 0.52976 0.0695 0.63656 0.0
C378 C 0.41602 0.09649 0.61299 0.0
C379 C 0.4058 0.09759 0.58521 0.0
C380 C 0.4444 0.09235 0.61875 0.0
C381 C 0.46331 0.08875 0.59688 0.0
C382 C 0.45312 0.08999 0.56901 0.0
C383 C 0.42463 0.0945 0.56323 0.0
H384 H 0.86247 0.17312 0.80596 0.0
H385 H 0.82052 0.14493 0.87909 0.0
H386 H 0.85633 0.22145 0.82182 0.0
H387 H 0.81345 0.19332 0.89446 0.0
H388 H 0.84755 0.27628 0.93229 0.0
H389 H 0.84328 0.22884 0.91387 0.0
H390 H 0.82522 0.25996 0.83111 0.0
H391 H 0.83045 0.30791 0.84956 0.0
C392 C 0.85151 0.17726 0.82518 0.0
C393 C 0.84237 0.15519 0.84149 0.0
C394 C 0.84777 0.20501 0.83417 0.0
C395 C 0.83458 0.2113 0.85954 0.0
C396 C 0.8242 0.1892 0.8751 0.0
C397 C 0.8282 0.16146 0.86627 0.0
C398 C 0.84234 0.27314 0.9102 0.0
C399 C 0.83966 0.29593 0.89234 0.0
C400 C 0.83964 0.24582 0.89965 0.0
C401 C 0.83401 0.24051 0.87096 0.0
C402 C 0.82999 0.26333 0.85325 0.0
C403 C 0.83279 0.29079 0.86384 0.0
H404 H 0.66526 0.66216 0.42632 0.0
H405 H 0.70356 0.67558 0.34704 0.0
H406 H 0.67339 0.71105 0.43992 0.0
H407 H 0.71367 0.72378 0.36116 0.0
H408 H 0.69218 0.81553 0.37751 0.0
H409 H 0.69158 0.76592 0.36574 0.0
H410 H 0.7028 0.74737 0.4536 0.0
H411 H 0.70145 0.79725 0.46532 0.0
C412 C 0.67599 0.67549 0.41209 0.0
C413 C 0.68344 0.66527 0.38553 0.0
C414 C 0.68089 0.70353 0.41991 0.0
C415 C 0.694 0.72176 0.40157 0.0
C416 C 0.70277 0.71084 0.37557 0.0
C417 C 0.69718 0.6831 0.36751 0.0
C418 C 0.69497 0.80085 0.39425 0.0
C419 C 0.69671 0.81028 0.42233 0.0
C420 C 0.69476 0.77224 0.38753 0.0
C421 C 0.69693 0.75228 0.4087 0.0
C422 C 0.70032 0.76191 0.43672 0.0
C423 C 0.69988 0.79055 0.44347 0.0
H424 H 0.75354 0.68712 0.09114 0.0
H425 H 0.81838 0.69624 0.1553 0.0
H426 H 0.74286 0.73686 0.09574 0.0
H427 H 0.80881 0.74638 0.15903 0.0
H428 H 0.79222 0.83856 0.15528 0.0
H429 H 0.78122 0.78979 0.1656 0.0
H430 H 0.7737 0.7706 0.07669 0.0
H431 H 0.78436 0.81863 0.06667 0.0
C432 C 0.76476 0.69967 0.10699 0.0
C433 C 0.78691 0.68811 0.12269 0.0
C434 C 0.75884 0.72817 0.10949 0.0
C435 C 0.77558 0.74573 0.12709 0.0
C436 C 0.79551 0.73348 0.14526 0.0
C437 C 0.80104 0.70475 0.14316 0.0
C438 C 0.78744 0.82395 0.13809 0.0
C439 C 0.78946 0.83221 0.11017 0.0
C440 C 0.78127 0.79607 0.14397 0.0
C441 C 0.77658 0.77625 0.12201 0.0
C442 C 0.77672 0.78525 0.0942 0.0
C443 C 0.78316 0.8128 0.08839 0.0
H444 H 0.64428 0.33415 0.6289 0.0
H445 H 0.67147 0.32729 0.71545 0.0
H446 H 0.64627 0.28309 0.62301 0.0
H447 H 0.67451 0.2768 0.7094 0.0
H448 H 0.63061 0.19274 0.70285 0.0
H449 H 0.63791 0.24275 0.70504 0.0
H450 H 0.67363 0.23909 0.62286 0.0
H451 H 0.66566 0.18843 0.62032 0.0
C452 C 0.65137 0.32178 0.64641 0.0
C453 C 0.65718 0.33454 0.67277 0.0
C454 C 0.6526 0.29258 0.64304 0.0
C455 C 0.65996 0.27585 0.66593 0.0
C456 C 0.66796 0.28899 0.69158 0.0
C457 C 0.66634 0.31794 0.69502 0.0
C458 C 0.64021 0.20241 0.68524 0.0
C459 C 0.64753 0.1865 0.66139 0.0
C460 C 0.64461 0.23118 0.6866 0.0
C461 C 0.65662 0.24494 0.66424 0.0
C462 C 0.66424 0.2291 0.64039 0.0
C463 C 0.65981 0.2001 0.63901 0.0
H464 H 0.08756 0.37738 0.86459 0.0
H465 H 0.09072 0.42271 0.94395 0.0
H466 H 0.03643 0.38254 0.86248 0.0
H467 H 0.04023 0.42907 0.94136 0.0
H468 H 0.95577 0.38819 0.9533 0.0
H469 H 0.0055 0.39429 0.94867 0.0
H470 H 0.99303 0.41139 0.86078 0.0
H471 H 0.94243 0.4046 0.86532 0.0
C472 C 0.07738 0.38926 0.88104 0.0
C473 C 0.09283 0.39924 0.90466 0.0
C474 C 0.04816 0.39229 0.87984 0.0
C475 C 0.03421 0.40564 0.90211 0.0
C476 C 0.05022 0.41796 0.92428 0.0
C477 C 0.07914 0.41447 0.92571 0.0
C478 C 0.96342 0.39348 0.93296 0.0
C479 C 0.94505 0.39582 0.90966 0.0
C480 C 0.99206 0.39726 0.93035 0.0
C481 C 0.00331 0.40362 0.90439 0.0
C482 C 0.98499 0.40644 0.88104 0.0
C483 C 0.95605 0.40271 0.88369 0.0
H484 H 0.58081 0.55252 0.40454 0.0
H485 H 0.5722 0.56243 0.31504 0.0
H486 H 0.53055 0.54202 0.40631 0.0
H487 H 0.52276 0.55235 0.31677 0.0
H488 H 0.43806 0.52485 0.31728 0.0
H489 H 0.48806 0.51715 0.32478 0.0
H490 H 0.48687 0.56987 0.39964 0.0
H491 H 0.43645 0.5766 0.39263 0.0
C492 C 0.56833 0.552 0.38525 0.0
C493 C 0.5804 0.55852 0.35969 0.0
C494 C 0.53959 0.54611 0.38627 0.0
C495 C 0.52262 0.54619 0.36168 0.0
C496 C 0.53516 0.55155 0.33608 0.0
C497 C 0.56357 0.55766 0.33511 0.0
C498 C 0.4483 0.53389 0.33592 0.0
C499 C 0.43353 0.55161 0.35416 0.0
C500 C 0.47698 0.52967 0.34013 0.0
C501 C 0.49161 0.54359 0.36233 0.0
C502 C 0.47626 0.55887 0.38231 0.0
C503 C 0.44735 0.56273 0.37832 0.0
H504 H 0.53848 0.42271 0.7122 0.0
H505 H 0.56622 0.45485 0.6339 0.0
H506 H 0.49025 0.42409 0.69476 0.0
H507 H 0.51778 0.45707 0.61677 0.0
H508 H 0.43787 0.41425 0.58197 0.0
H509 H 0.48462 0.42218 0.60138 0.0
H510 H 0.44999 0.45071 0.67977 0.0
H511 H 0.40277 0.44201 0.66043 0.0
C512 C 0.53426 0.4307 0.69149 0.0
C513 C 0.5563 0.4383 0.6743 0.0
C514 C 0.50651 0.43162 0.68153 0.0
C515 C 0.5001 0.44031 0.6542 0.0
C516 C 0.52201 0.44965 0.6377 0.0
C517 C 0.5498 0.44858 0.6476 0.0
C518 C 0.44009 0.42235 0.60332 0.0
C519 C 0.41649 0.42734 0.61968 0.0
C520 C 0.46701 0.42718 0.61439 0.0
C521 C 0.47116 0.43726 0.64212 0.0
C522 C 0.44756 0.44271 0.65841 0.0
C523 C 0.4205 0.4378 0.64731 0.0
H524 H 0.04978 0.60375 0.04771 0.0
H525 H 0.06534 0.606 0.13733 0.0
H526 H -0.00026 0.60362 0.05492 0.0
H527 H 0.01466 0.60638 0.14459 0.0
H528 H 0.91721 0.58469 0.13882 0.0
H529 H 0.96833 0.57992 0.13677 0.0
H530 H 0.96943 0.6415 0.0723 0.0
H531 H 0.91904 0.646 0.074 0.0
C532 C 0.0425 0.60398 0.06901 0.0
C533 C 0.06152 0.60532 0.09195 0.0
C534 C 0.01379 0.60405 0.07313 0.0
C535 C 0.00327 0.60569 0.10031 0.0
C536 C 0.02219 0.6052 0.1234 0.0
C537 C 0.05116 0.60498 0.11924 0.0
C538 C 0.9285 0.59738 0.12446 0.0
C539 C 0.91402 0.61541 0.10627 0.0
C540 C 0.9577 0.59464 0.1233 0.0
C541 C 0.97278 0.60987 0.10393 0.0
C542 C 0.95834 0.62888 0.08689 0.0
C543 C 0.92941 0.63157 0.08799 0.0
H544 H 0.21255 0.54899 0.07126 0.0
H545 H 0.17535 0.57588 0.993 0.0
H546 H 0.23271 0.50853 0.04697 0.0
H547 H 0.19384 0.53509 0.96916 0.0
H548 H 0.22332 0.46081 0.92666 0.0
H549 H 0.22799 0.50613 0.95095 0.0
H550 H 0.21469 0.46655 0.02992 0.0
H551 H 0.21188 0.42158 0.00602 0.0
C552 C 0.20889 0.5464 0.04885 0.0
C553 C 0.19194 0.5654 0.03419 0.0
C554 C 0.22033 0.52313 0.03489 0.0
C555 C 0.2146 0.51806 0.00606 0.0
C556 C 0.19917 0.53819 0.9912 0.0
C557 C 0.18819 0.56161 0.00503 0.0
C558 C 0.22244 0.46172 0.94932 0.0
C559 C 0.21642 0.43767 0.96428 0.0
C560 C 0.22478 0.48779 0.96327 0.0
C561 C 0.22069 0.49034 0.99238 0.0
C562 C 0.21792 0.46574 0.00756 0.0
C563 C 0.21606 0.43974 0.99371 0.0
H564 H 0.74259 0.90527 0.33432 0.0
H565 H 0.67517 0.96176 0.31298 0.0
H566 H 0.76143 0.91029 0.28778 0.0
H567 H 0.69419 0.9669 0.26645 0.0
H568 H 0.71677 0.93529 0.17646 0.0
H569 H 0.69911 0.93665 0.22391 0.0
H570 H 0.78359 0.94483 0.25755 0.0
H571 H 0.80134 0.94327 0.21007 0.0
C572 C 0.73189 0.91892 0.31979 0.0
C573 C 0.70729 0.93301 0.32736 0.0
C574 C 0.74281 0.92195 0.29316 0.0
C575 C 0.7293 0.93899 0.2734 0.0
C576 C 0.70494 0.95341 0.28111 0.0
C577 C 0.69412 0.95055 0.30783 0.0
C578 C 0.73158 0.93772 0.19394 0.0
C579 C 0.76049 0.93901 0.18944 0.0
C580 C 0.72143 0.93862 0.22115 0.0
C581 C 0.73996 0.94065 0.24451 0.0
C582 C 0.76881 0.94288 0.23999 0.0
C583 C 0.77895 0.94218 0.21277 0.0
H584 H 0.28227 0.44527 0.50888 0.0
H585 H 0.31363 0.50574 0.57058 0.0
H586 H 0.27478 0.48218 0.4754 0.0
H587 H 0.30643 0.54307 0.53677 0.0
H588 H 0.342 0.57561 0.45081 0.0
H589 H 0.33405 0.54993 0.49323 0.0
H590 H 0.25166 0.52662 0.46147 0.0
H591 H 0.2596 0.55229 0.41885 0.0
C592 C 0.28655 0.46671 0.51557 0.0
C593 C 0.29849 0.47273 0.54224 0.0
C594 C 0.28223 0.4879 0.49641 0.0
C595 C 0.29027 0.51553 0.50333 0.0
C596 C 0.30021 0.52192 0.53082 0.0
C597 C 0.30406 0.50066 0.55024 0.0
C598 C 0.32195 0.56552 0.45309 0.0
C599 C 0.30163 0.56561 0.43121 0.0
C600 C 0.31729 0.55101 0.47756 0.0
C601 C 0.29229 0.53608 0.48064 0.0
C602 C 0.27122 0.53775 0.45959 0.0
C603 C 0.27578 0.55248 0.43519 0.0
H604 H 0.71182 0.0559 0.66663 0.0
H605 H 0.65367 0.03426 0.73016 0.0
H606 H 0.74987 0.03658 0.69432 0.0
H607 H 0.6916 0.01315 0.75743 0.0
H608 H 0.76807 0.04049 0.81477 0.0
H609 H 0.72624 0.03379 0.78559 0.0
H610 H 0.77684 0.0039 0.71718 0.0
H611 H 0.81887 0.01266 0.74614 0.0
C612 C 0.70702 0.04602 0.68608 0.0
C613 C 0.67996 0.04728 0.69661 0.0
C614 C 0.72889 0.03462 0.70201 0.0
C615 C 0.72406 0.02376 0.72862 0.0
C616 C 0.69631 0.02214 0.73752 0.0
C617 C 0.67452 0.03409 0.72183 0.0
C618 C 0.77014 0.03157 0.79382 0.0
C619 C 0.7966 0.02775 0.78241 0.0
C620 C 0.74606 0.02758 0.77696 0.0
C621 C 0.74808 0.01915 0.74855 0.0
C622 C 0.77451 0.01148 0.73857 0.0
C623 C 0.7986 0.0162 0.75521 0.0
H624 H 0.80329 0.40598 0.99818 0.0
H625 H 0.82099 0.46317 0.93252 0.0
H626 H 0.7862 0.44466 0.02721 0.0
H627 H 0.80554 0.50202 0.9619 0.0
H628 H 0.77816 0.57079 0.01597 0.0
H629 H 0.7732 0.5287 0.98638 0.0
H630 H 0.80887 0.47984 0.05351 0.0
H631 H 0.81221 0.52162 0.08334 0.0
C632 C 0.80316 0.42682 0.98983 0.0
C633 C 0.81385 0.43166 0.96328 0.0
C634 C 0.79356 0.44904 0.00654 0.0
C635 C 0.79503 0.47666 0.99729 0.0
C636 C 0.80377 0.48112 0.96981 0.0
C637 C 0.81284 0.45881 0.9529 0.0
C638 C 0.78416 0.55086 0.02458 0.0
C639 C 0.79594 0.54948 0.05179 0.0
C640 C 0.78155 0.52675 0.00755 0.0
C641 C 0.79126 0.50085 0.01718 0.0
C642 C 0.80092 0.49925 0.04527 0.0
C643 C 0.80299 0.52329 0.06246 0.0
H644 H 0.20111 0.00743 0.76107 0.0
H645 H 0.25849 0.05123 0.81803 0.0
H646 H 0.23676 0.0052 0.72563 0.0
H647 H 0.2943 0.04949 0.78225 0.0
H648 H 0.30681 0.09234 0.69363 0.0
H649 H 0.28825 0.0785 0.73817 0.0
H650 H 0.28535 0.99244 0.70853 0.0
H651 H 0.30425 0.00627 0.66382 0.0
C652 C 0.22186 0.01537 0.76642 0.0
C653 C 0.22713 0.02956 0.79212 0.0
C654 C 0.2423 0.01412 0.74614 0.0
C655 C 0.26815 0.02756 0.75106 0.0
C656 C 0.27445 0.03913 0.77791 0.0
C657 C 0.25409 0.0399 0.79844 0.0
C658 C 0.30276 0.07039 0.6968 0.0
C659 C 0.30655 0.05046 0.67509 0.0
C660 C 0.29246 0.06239 0.72245 0.0
C661 C 0.28538 0.03436 0.72682 0.0
C662 C 0.29066 0.01417 0.7057 0.0
C663 C 0.3014 0.02212 0.68013 0.0
H664 H 0.6833 0.5544 0.47586 0.0
H665 H 0.67915 0.4737 0.43304 0.0
H666 H 0.68499 0.53139 0.5209 0.0
H667 H 0.68037 0.45079 0.47802 0.0
H668 H 0.70566 0.41727 0.56364 0.0
H669 H 0.70963 0.44133 0.51942 0.0
H670 H 0.65282 0.50523 0.54887 0.0
H671 H 0.64921 0.48155 0.59309 0.0
C672 C 0.68289 0.53176 0.47603 0.0
C673 C 0.68094 0.51592 0.45081 0.0
C674 C 0.68369 0.51857 0.50186 0.0
C675 C 0.68266 0.48923 0.50311 0.0
C676 C 0.68149 0.4734 0.47786 0.0
C677 C 0.68062 0.48657 0.45204 0.0
C678 C 0.69415 0.43654 0.56074 0.0
C679 C 0.67706 0.44741 0.58192 0.0
C680 C 0.69632 0.45026 0.53533 0.0
C681 C 0.68154 0.47522 0.53056 0.0
C682 C 0.66481 0.48628 0.55195 0.0
C683 C 0.66259 0.47255 0.57727 0.0
H684 H 0.3398 0.97345 0.2577 0.0
H685 H 0.29033 0.94807 0.3269 0.0
H686 H 0.29766 0.99045 0.23373 0.0
H687 H 0.24827 0.96283 0.30249 0.0
H688 H 0.17244 0.98092 0.25707 0.0
H689 H 0.21606 0.99167 0.28272 0.0
H690 H 0.26219 0.96917 0.20863 0.0
H691 H 0.2187 0.96089 0.18285 0.0
C692 C 0.31992 0.97178 0.26788 0.0
C693 C 0.31825 0.95899 0.2939 0.0
C694 C 0.29568 0.98132 0.25409 0.0
C695 C 0.2692 0.97747 0.26566 0.0
C696 C 0.26804 0.9666 0.29275 0.0
C697 C 0.29229 0.95778 0.3068 0.0
C698 C 0.19196 0.97935 0.24614 0.0
C699 C 0.19229 0.96961 0.21817 0.0
C700 C 0.21704 0.98516 0.26088 0.0
C701 C 0.24295 0.98027 0.24823 0.0
C702 C 0.24292 0.97331 0.21935 0.0
C703 C 0.21783 0.96838 0.20443 0.0
H704 H 0.66281 0.07622 0.54214 0.0
H705 H 0.73784 0.06054 0.59183 0.0
H706 H 0.67857 0.04321 0.50624 0.0
H707 H 0.75363 0.02746 0.55575 0.0
H708 H 0.7102 0.9846 0.44274 0.0
H709 H 0.71377 0.02809 0.47076 0.0
H710 H 0.7325 0.98059 0.54464 0.0
H711 H 0.72884 0.93737 0.51678 0.0
C712 C 0.68301 0.06629 0.54507 0.0
C713 C 0.69882 0.07063 0.57006 0.0
C714 C 0.69218 0.04752 0.52435 0.0
C715 C 0.71725 0.03254 0.52828 0.0
C716 C 0.73411 0.03854 0.55227 0.0
C717 C 0.72506 0.05753 0.5729 0.0
C718 C 0.71622 0.98355 0.46473 0.0
C719 C 0.71887 0.95761 0.47769 0.0
C720 C 0.71803 0.00844 0.4808 0.0
C721 C 0.72297 0.00773 0.50996 0.0
C722 C 0.72877 0.9819 0.52223 0.0
C723 C 0.72657 0.95708 0.50628 0.0
H724 H 0.22372 0.42368 0.66365 0.0
H725 H 0.30552 0.43116 0.70397 0.0
H726 H 0.20243 0.42224 0.7094 0.0
H727 H 0.28412 0.42999 0.74977 0.0
H728 H 0.23836 0.38848 0.82211 0.0
H729 H 0.2603 0.39473 0.77723 0.0
H730 H 0.19348 0.45034 0.75221 0.0
H731 H 0.1713 0.4439 0.79706 0.0
C732 C 0.23716 0.42533 0.68226 0.0
C733 C 0.26636 0.4274 0.68009 0.0
C734 C 0.22491 0.42464 0.70852 0.0
C735 C 0.24157 0.42585 0.73327 0.0
C736 C 0.27072 0.42864 0.73112 0.0
C737 C 0.28297 0.4295 0.70484 0.0
C738 C 0.22836 0.40214 0.80711 0.0
C739 C 0.20299 0.4156 0.81319 0.0
C740 C 0.24107 0.40587 0.78143 0.0
C741 C 0.22866 0.42305 0.76111 0.0
C742 C 0.20344 0.43675 0.76729 0.0
C743 C 0.19079 0.43314 0.79306 0.0
H744 H 0.76146 0.03958 0.91213 0.0
H745 H 0.84743 0.04807 0.94149 0.0
H746 H 0.74928 0.01999 0.95704 0.0
H747 H 0.83518 0.02876 0.98626 0.0
H748 H 0.80771 0.00176 0.06841 0.0
H749 H 0.80608 0.03501 0.03018 0.0
H750 H 0.76427 0.97312 0.97649 0.0
H751 H 0.76634 0.94002 0.0144 0.0
C752 C 0.77765 0.03773 0.92832 0.0
C753 C 0.80549 0.045 0.92315 0.0
C754 C 0.77063 0.02657 0.95401 0.0
C755 C 0.79124 0.02294 0.97517 0.0
C756 C 0.81875 0.03167 0.97052 0.0
C757 C 0.82584 0.04243 0.94474 0.0
C758 C 0.79701 0.99582 0.04885 0.0
C759 C 0.78717 0.96841 0.04423 0.0
C760 C 0.79635 0.0147 0.0269 0.0
C761 C 0.78538 0.0065 1.00027 0.0
C762 C 0.77272 0.98011 0.99677 0.0
C763 C 0.77386 0.96114 0.01848 0.0
H764 H 0.17652 0.63287 0.21665 0.0
H765 H 0.19055 0.55562 0.17019 0.0
H766 H 0.20795 0.61725 0.25404 0.0
H767 H 0.22132 0.53957 0.20803 0.0
H768 H 0.3091 0.55075 0.25192 0.0
H769 H 0.26764 0.55334 0.2218 0.0
H770 H 0.22053 0.58597 0.29142 0.0
H771 H 0.26269 0.58387 0.32166 0.0
C772 C 0.18578 0.61226 0.2147 0.0
C773 C 0.18145 0.59573 0.19018 0.0
C774 C 0.20366 0.60317 0.23631 0.0
C775 C 0.21748 0.57725 0.23397 0.0
C776 C 0.21148 0.55988 0.2103 0.0
C777 C 0.19378 0.56906 0.18862 0.0
C778 C 0.28972 0.55776 0.26104 0.0
C779 C 0.28926 0.56745 0.28907 0.0
C780 C 0.2658 0.55912 0.24376 0.0
C781 C 0.24074 0.57026 0.25403 0.0
C782 C 0.23963 0.57772 0.28273 0.0
C783 C 0.26368 0.57622 0.30015 0.0
H784 H 0.3118 0.01126 0.56531 0.0
H785 H 0.25892 0.05265 0.50458 0.0
H786 H 0.31416 0.97019 0.53408 0.0
H787 H 0.2599 0.01108 0.47394 0.0
H788 H 0.32165 0.97103 0.41259 0.0
H789 H 0.30095 0.00055 0.44806 0.0
H790 H 0.2978 0.93078 0.5036 0.0
H791 H 0.31931 0.90077 0.46756 0.0
C792 C 0.29937 0.01094 0.54597 0.0
C793 C 0.28562 0.03521 0.53701 0.0
C794 C 0.30074 0.98738 0.52801 0.0
C795 C 0.28801 0.98777 0.5011 0.0
C796 C 0.27069 0.01052 0.49418 0.0
C797 C 0.26987 0.03422 0.5118 0.0
C798 C 0.3164 0.96175 0.43223 0.0
C799 C 0.32246 0.93358 0.43734 0.0
C800 C 0.30406 0.97867 0.45252 0.0
C801 C 0.29734 0.96801 0.47865 0.0
C802 C 0.30269 0.9396 0.48366 0.0
C803 C 0.31499 0.92245 0.46307 0.0
H804 H 0.77487 0.56166 0.18274 0.0
H805 H 0.85064 0.56767 0.23404 0.0
H806 H 0.74933 0.54688 0.22258 0.0
H807 H 0.82495 0.55175 0.27433 0.0
H808 H 0.75516 0.57375 0.34031 0.0
H809 H 0.79099 0.57128 0.30497 0.0
H810 H 0.73962 0.51309 0.25546 0.0
H811 H 0.70319 0.51723 0.29008 0.0
C812 C 0.78626 0.55931 0.20247 0.0
C813 C 0.81477 0.56624 0.20522 0.0
C814 C 0.7716 0.55041 0.22542 0.0
C815 C 0.785 0.54793 0.25186 0.0
C816 C 0.81388 0.55364 0.25437 0.0
C817 C 0.82863 0.56269 0.23126 0.0
C818 C 0.75218 0.55947 0.32246 0.0
C819 C 0.72648 0.54577 0.31774 0.0
C820 C 0.77269 0.55809 0.30208 0.0
C821 C 0.76785 0.54268 0.27684 0.0
C822 C 0.74365 0.52595 0.27416 0.0
C823 C 0.72293 0.52789 0.29417 0.0
H824 H 0.13881 0.95449 0.06014 0.0
H825 H 0.21672 0.98969 0.09276 0.0
H826 H 0.1463 0.97619 0.01528 0.0
H827 H 0.22413 0.01141 0.04781 0.0
H828 H 0.20324 0.07398 0.97591 0.0
H829 H 0.20091 0.04975 0.02019 0.0
H830 H 0.17913 0.97306 0.97506 0.0
H831 H 0.18143 0.99716 0.93079 0.0
C832 C 0.15759 0.96674 0.05771 0.0
C833 C 0.17713 0.9704 0.08005 0.0
C834 C 0.16196 0.97903 0.03196 0.0
C835 C 0.18582 0.99548 0.02804 0.0
C836 C 0.20546 -0.001 0.05029 0.0
C837 C 0.20126 0.98645 0.07598 0.0
C838 C 0.19829 0.05187 0.9754 0.0
C839 C 0.19237 0.03756 0.94981 0.0
C840 C 0.19705 0.03798 1.00076 0.0
C841 C 0.18962 0.00957 0.00107 0.0
C842 C 0.18457 0.99505 0.97546 0.0
C843 C 0.18608 0.00885 0.95011 0.0
H844 H 0.73166 0.44181 0.69974 0.0
H845 H 0.68395 0.46941 0.77082 0.0
H846 H 0.77463 0.44446 0.72875 0.0
H847 H 0.72668 0.47209 0.79967 0.0
H848 H 0.82186 0.40004 0.8045 0.0
H849 H 0.78814 0.41247 0.7677 0.0
H850 H 0.77416 0.49213 0.80969 0.0
H851 H 0.80791 0.4797 0.84665 0.0
C852 C 0.73046 0.44944 0.72124 0.0
C853 C 0.70441 0.45511 0.73311 0.0
C854 C 0.75503 0.45071 0.73791 0.0
C855 C 0.75399 0.45809 0.76659 0.0
C856 C 0.72826 0.46644 0.77765 0.0
C857 C 0.70372 0.46482 0.76112 0.0
C858 C 0.81204 0.42044 0.80562 0.0
C859 C 0.81729 0.4387 0.82873 0.0
C860 C 0.79287 0.42768 0.78438 0.0
C861 C 0.77836 0.45324 0.78587 0.0
C862 C 0.78486 0.4722 0.8081 0.0
C863 C 0.80424 0.46507 0.82923 0.0
loop_
_geom_bond_atom_site_label_1
_geom_bond_atom_site_label_2
_geom_bond_distance
_geom_bond_site_symmetry_2
_ccdc_geom_bond_type
Zn0 O3 2.031 . S
Zn0 O5 2.049 . S
Zn0 O10 2.067 . S
Zn1 O2 1.962 . S
Zn1 O4 1.986 . S
Zn1 O6 1.996 . S
Zn1 O9 1.943 . S
O2 Zn1 1.962 . S
O2 C7 1.254 . S
O3 Zn0 2.031 . S
O3 C7 1.269 . S
O4 Zn1 1.986 . S
O4 C11 1.262 . S
O5 Zn0 2.049 . S
O5 C13 1.260 . S
O6 Zn1 1.996 . S
O6 C13 1.257 . S
C7 O2 1.254 . S
C7 O3 1.269 . S
C8 O9 1.249 . S
C8 O10 1.270 . S
O9 Zn1 1.943 . S
O9 C8 1.249 . S
O10 Zn0 2.067 . S
O10 C8 1.270 . S
C11 O4 1.262 . S
C11 O12 1.232 . S
O12 C11 1.232 . S
C13 O5 1.260 . S
C13 O6 1.257 . S
Zn14 O17 2.031 . S
Zn14 O19 2.049 . S
Zn14 O24 2.067 . S
Zn15 O16 1.962 . S
Zn15 O18 1.986 . S
Zn15 O20 1.996 . S
Zn15 O23 1.943 . S
O16 Zn15 1.962 . S
O16 C21 1.254 . S
O17 Zn14 2.031 . S
O17 C21 1.269 . S
O18 Zn15 1.986 . S
O18 C25 1.262 . S
O19 Zn14 2.049 . S
O19 C27 1.260 . S
O20 Zn15 1.996 . S
O20 C27 1.257 . S
C21 O16 1.254 . S
C21 O17 1.269 . S
C22 O23 1.249 . S
C22 O24 1.270 . S
O23 Zn15 1.943 . S
O23 C22 1.249 . S
O24 Zn14 2.067 . S
O24 C22 1.270 . S
C25 O18 1.262 . S
C25 O26 1.232 . S
O26 C25 1.232 . S
C27 O19 1.260 . S
C27 O20 1.257 . S
Zn28 O31 2.031 . S
Zn28 O33 2.049 . S
Zn28 O38 2.067 . S
Zn29 O30 1.962 . S
Zn29 O32 1.986 . S
Zn29 O34 1.996 . S
Zn29 O37 1.943 . S
O30 Zn29 1.962 . S
O30 C35 1.254 . S
O31 Zn28 2.031 . S
O31 C35 1.269 . S
O32 Zn29 1.986 . S
O32 C39 1.262 . S
O33 Zn28 2.049 . S
O33 C41 1.260 . S
O34 Zn29 1.996 . S
O34 C41 1.257 . S
C35 O30 1.254 . S
C35 O31 1.269 . S
C36 O37 1.249 . S
C36 O38 1.270 . S
O37 Zn29 1.943 . S
O37 C36 1.249 . S
O38 Zn28 2.067 . S
O38 C36 1.270 . S
C39 O32 1.262 . S
C39 O40 1.232 . S
O40 C39 1.232 . S
C41 O33 1.260 . S
C41 O34 1.257 . S
Zn42 O45 2.031 . S
Zn42 O47 2.049 . S
Zn42 O52 2.067 . S
Zn43 O44 1.962 . S
Zn43 O46 1.986 . S
Zn43 O48 1.996 . S
Zn43 O51 1.943 . S
O44 Zn43 1.962 . S
O44 C49 1.254 . S
O45 Zn42 2.031 . S
O45 C49 1.269 . S
O46 Zn43 1.986 . S
O46 C53 1.262 . S
O47 Zn42 2.049 . S
O47 C55 1.260 . S
O48 Zn43 1.996 . S
O48 C55 1.257 . S
C49 O44 1.254 . S
C49 O45 1.269 . S
C50 O51 1.249 . S
C50 O52 1.270 . S
O51 Zn43 1.943 . S
O51 C50 1.249 . S
O52 Zn42 2.067 . S
O52 C50 1.270 . S
C53 O46 1.262 . S
C53 O54 1.232 . S
O54 C53 1.232 . S
C55 O47 1.260 . S
C55 O48 1.257 . S
Zn56 O59 2.031 . S
Zn56 O61 2.049 . S
Zn56 O66 2.067 . S
Zn57 O58 1.962 . S
Zn57 O60 1.986 . S
Zn57 O62 1.996 . S
Zn57 O65 1.943 . S
O58 Zn57 1.962 . S
O58 C63 1.254 . S
O59 Zn56 2.031 . S
O59 C63 1.269 . S
O60 Zn57 1.986 . S
O60 C67 1.262 . S
O61 Zn56 2.049 . S
O61 C69 1.260 . S
O62 Zn57 1.996 . S
O62 C69 1.257 . S
C63 O58 1.254 . S
C63 O59 1.269 . S
C64 O65 1.249 . S
C64 O66 1.270 . S
O65 Zn57 1.943 . S
O65 C64 1.249 . S
O66 Zn56 2.067 . S
O66 C64 1.270 . S
C67 O60 1.262 . S
C67 O68 1.232 . S
O68 C67 1.232 . S
C69 O61 1.260 . S
C69 O62 1.257 . S
Zn70 O73 2.031 . S
Zn70 O75 2.049 . S
Zn70 O80 2.067 . S
Zn71 O72 1.962 . S
Zn71 O74 1.986 . S
Zn71 O76 1.996 . S
Zn71 O79 1.943 . S
O72 Zn71 1.962 . S
O72 C77 1.254 . S
O73 Zn70 2.031 . S
O73 C77 1.269 . S
O74 Zn71 1.986 . S
O74 C81 1.262 . S
O75 Zn70 2.049 . S
O75 C83 1.260 . S
O76 Zn71 1.996 . S
O76 C83 1.257 . S
C77 O72 1.254 . S
C77 O73 1.269 . S
C78 O79 1.249 . S
C78 O80 1.270 . S
O79 Zn71 1.943 . S
O79 C78 1.249 . S
O80 Zn70 2.067 . S
O80 C78 1.270 . S
C81 O74 1.262 . S
C81 O82 1.232 . S
O82 C81 1.232 . S
C83 O75 1.260 . S
C83 O76 1.257 . S
Zn84 O87 2.031 . S
Zn84 O89 2.049 . S
Zn84 O94 2.067 . S
Zn85 O86 1.962 . S
Zn85 O88 1.986 . S
Zn85 O90 1.996 . S
Zn85 O93 1.943 . S
O86 Zn85 1.962 . S
O86 C91 1.254 . S
O87 Zn84 2.031 . S
O87 C91 1.269 . S
O88 Zn85 1.986 . S
O88 C95 1.262 . S
O89 Zn84 2.049 . S
O89 C97 1.260 . S
O90 Zn85 1.996 . S
O90 C97 1.257 . S
C91 O86 1.254 . S
C91 O87 1.269 . S
C92 O93 1.249 . S
C92 O94 1.270 . S
O93 Zn85 1.943 . S
O93 C92 1.249 . S
O94 Zn84 2.067 . S
O94 C92 1.270 . S
C95 O88 1.262 . S
C95 O96 1.232 . S
O96 C95 1.232 . S
C97 O89 1.260 . S
C97 O90 1.257 . S
Zn98 O101 2.031 . S
Zn98 O103 2.049 . S
Zn98 O108 2.067 . S
Zn99 O100 1.962 . S
Zn99 O102 1.986 . S
Zn99 O104 1.996 . S
Zn99 O107 1.943 . S
O100 Zn99 1.962 . S
O100 C105 1.254 . S
O101 Zn98 2.031 . S
O101 C105 1.269 . S
O102 Zn99 1.986 . S
O102 C109 1.262 . S
O103 Zn98 2.049 . S
O103 C111 1.260 . S
O104 Zn99 1.996 . S
O104 C111 1.257 . S
C105 O100 1.254 . S
C105 O101 1.269 . S
C106 O107 1.249 . S
C106 O108 1.270 . S
O107 Zn99 1.943 . S
O107 C106 1.249 . S
O108 Zn98 2.067 . S
O108 C106 1.270 . S
C109 O102 1.262 . S
C109 O110 1.232 . S
O110 C109 1.232 . S
C111 O103 1.260 . S
C111 O104 1.257 . S
Zn112 O115 2.031 . S
Zn112 O117 2.049 . S
Zn112 O122 2.067 . S
Zn113 O114 1.962 . S
Zn113 O116 1.986 . S
Zn113 O118 1.996 . S
Zn113 O121 1.943 . S
O114 Zn113 1.962 . S
O114 C119 1.254 . S
O115 Zn112 2.031 . S
O115 C119 1.269 . S
O116 Zn113 1.986 . S
O116 C123 1.262 . S
O117 Zn112 2.049 . S
O117 C125 1.260 . S
O118 Zn113 1.996 . S
O118 C125 1.257 . S
C119 O114 1.254 . S
C119 O115 1.269 . S
C120 O121 1.249 . S
C120 O122 1.270 . S
O121 Zn113 1.943 . S
O121 C120 1.249 . S
O122 Zn112 2.067 . S
O122 C120 1.270 . S
C123 O116 1.262 . S
C123 O124 1.232 . S
O124 C123 1.232 . S
C125 O117 1.260 . S
C125 O118 1.257 . S
Zn126 O129 2.031 . S
Zn126 O131 2.049 . S
Zn126 O136 2.067 . S
Zn127 O128 1.962 . S
Zn127 O130 1.986 . S
Zn127 O132 1.996 . S
Zn127 O135 1.943 . S
O128 Zn127 1.962 . S
O128 C133 1.254 . S
O129 Zn126 2.031 . S
O129 C133 1.269 . S
O130 Zn127 1.986 . S
O130 C137 1.262 . S
O131 Zn126 2.049 . S
O131 C139 1.260 . S
O132 Zn127 1.996 . S
O132 C139 1.257 . S
C133 O128 1.254 . S
C133 O129 1.269 . S
C134 O135 1.249 . S
C134 O136 1.270 . S
O135 Zn127 1.943 . S
O135 C134 1.249 . S
O136 Zn126 2.067 . S
O136 C134 1.270 . S
C137 O130 1.262 . S
C137 O138 1.232 . S
O138 C137 1.232 . S
C139 O131 1.260 . S
C139 O132 1.257 . S
Zn140 O143 2.031 . S
Zn140 O145 2.049 . S
Zn140 O150 2.067 . S
Zn141 O142 1.962 . S
Zn141 O144 1.986 . S
Zn141 O146 1.996 . S
Zn141 O149 1.943 . S
O142 Zn141 1.962 . S
O142 C147 1.254 . S
O143 Zn140 2.031 . S
O143 C147 1.269 . S
O144 Zn141 1.986 . S
O144 C151 1.262 . S
O145 Zn140 2.049 . S
O145 C153 1.260 . S
O146 Zn141 1.996 . S
O146 C153 1.257 . S
C147 O142 1.254 . S
C147 O143 1.269 . S
C148 O149 1.249 . S
C148 O150 1.270 . S
O149 Zn141 1.943 . S
O149 C148 1.249 . S
O150 Zn140 2.067 . S
O150 C148 1.270 . S
C151 O144 1.262 . S
C151 O152 1.232 . S
O152 C151 1.232 . S
C153 O145 1.260 . S
C153 O146 1.257 . S
Zn154 O157 2.031 . S
Zn154 O159 2.049 . S
Zn154 O164 2.067 . S
Zn155 O156 1.962 . S
Zn155 O158 1.986 . S
Zn155 O160 1.996 . S
Zn155 O163 1.943 . S
O156 Zn155 1.962 . S
O156 C161 1.254 . S
O157 Zn154 2.031 . S
O157 C161 1.269 . S
O158 Zn155 1.986 . S
O158 C165 1.262 . S
O159 Zn154 2.049 . S
O159 C167 1.260 . S
O160 Zn155 1.996 . S
O160 C167 1.257 . S
C161 O156 1.254 . S
C161 O157 1.269 . S
C162 O163 1.249 . S
C162 O164 1.270 . S
O163 Zn155 1.943 . S
O163 C162 1.249 . S
O164 Zn154 2.067 . S
O164 C162 1.270 . S
C165 O158 1.262 . S
C165 O166 1.232 . S
O166 C165 1.232 . S
C167 O159 1.260 . S
C167 O160 1.257 . S
Zn168 O171 2.031 . S
Zn168 O173 2.049 . S
Zn168 O178 2.067 . S
Zn169 O170 1.962 . S
Zn169 O172 1.986 . S
Zn169 O174 1.996 . S
Zn169 O177 1.943 . S
O170 Zn169 1.962 . S
O170 C175 1.254 . S
O171 Zn168 2.031 . S
O171 C175 1.269 . S
O172 Zn169 1.986 . S
O172 C179 1.262 . S
O173 Zn168 2.049 . S
O173 C181 1.260 . S
O174 Zn169 1.996 . S
O174 C181 1.257 . S
C175 O170 1.254 . S
C175 O171 1.269 . S
C176 O177 1.249 . S
C176 O178 1.270 . S
O177 Zn169 1.943 . S
O177 C176 1.249 . S
O178 Zn168 2.067 . S
O178 C176 1.270 . S
C179 O172 1.262 . S
C179 O180 1.232 . S
O180 C179 1.232 . S
C181 O173 1.260 . S
C181 O174 1.257 . S
Zn182 O185 2.031 . S
Zn182 O187 2.049 . S
Zn182 O192 2.067 . S
Zn183 O184 1.962 . S
Zn183 O186 1.986 . S
Zn183 O188 1.996 . S
Zn183 O191 1.943 . S
O184 Zn183 1.962 . S
O184 C189 1.254 . S
O185 Zn182 2.031 . S
O185 C189 1.269 . S
O186 Zn183 1.986 . S
O186 C193 1.262 . S
O187 Zn182 2.049 . S
O187 C195 1.260 . S
O188 Zn183 1.996 . S
O188 C195 1.257 . S
C189 O184 1.254 . S
C189 O185 1.269 . S
C190 O191 1.249 . S
C190 O192 1.270 . S
O191 Zn183 1.943 . S
O191 C190 1.249 . S
O192 Zn182 2.067 . S
O192 C190 1.270 . S
C193 O186 1.262 . S
C193 O194 1.232 . S
O194 C193 1.232 . S
C195 O187 1.260 . S
C195 O188 1.257 . S
Zn196 O199 2.031 . S
Zn196 O201 2.049 . S
Zn196 O206 2.067 . S
Zn197 O198 1.962 . S
Zn197 O200 1.986 . S
Zn197 O202 1.996 . S
Zn197 O205 1.943 . S
O198 Zn197 1.962 . S
O198 C203 1.254 . S
O199 Zn196 2.031 . S
O199 C203 1.269 . S
O200 Zn197 1.986 . S
O200 C207 1.262 . S
O201 Zn196 2.049 . S
O201 C209 1.260 . S
O202 Zn197 1.996 . S
O202 C209 1.257 . S
C203 O198 1.254 . S
C203 O199 1.269 . S
C204 O205 1.249 . S
C204 O206 1.270 . S
O205 Zn197 1.943 . S
O205 C204 1.249 . S
O206 Zn196 2.067 . S
O206 C204 1.270 . S
C207 O200 1.262 . S
C207 O208 1.232 . S
O208 C207 1.232 . S
C209 O201 1.260 . S
C209 O202 1.257 . S
Zn210 O213 2.031 . S
Zn210 O215 2.049 . S
Zn210 O220 2.067 . S
Zn211 O212 1.962 . S
Zn211 O214 1.986 . S
Zn211 O216 1.996 . S
Zn211 O219 1.943 . S
O212 Zn211 1.962 . S
O212 C217 1.254 . S
O213 Zn210 2.031 . S
O213 C217 1.269 . S
O214 Zn211 1.986 . S
O214 C221 1.262 . S
O215 Zn210 2.049 . S
O215 C223 1.260 . S
O216 Zn211 1.996 . S
O216 C223 1.257 . S
C217 O212 1.254 . S
C217 O213 1.269 . S
C218 O219 1.249 . S
C218 O220 1.270 . S
O219 Zn211 1.943 . S
O219 C218 1.249 . S
O220 Zn210 2.067 . S
O220 C218 1.270 . S
C221 O214 1.262 . S
C221 O222 1.232 . S
O222 C221 1.232 . S
C223 O215 1.260 . S
C223 O216 1.257 . S
H224 C232 0.950 . S
H225 C237 0.950 . S
H226 C234 0.950 . S
H227 C236 0.950 . S
H228 C238 0.950 . S
H229 C240 0.950 . S
H230 C242 0.950 . S
H231 C243 0.950 . S
C232 H224 0.950 . S
C232 C233 1.386 . S
C232 C234 1.391 . S
C233 C232 1.386 . S
C233 C237 1.393 . S
C234 H226 0.950 . S
C234 C232 1.391 . S
C234 C235 1.400 . S
C235 C234 1.400 . S
C235 C236 1.398 . S
C235 C241 1.491 . S
C236 H227 0.950 . S
C236 C235 1.398 . S
C236 C237 1.391 . S
C237 H225 0.950 . S
C237 C233 1.393 . S
C237 C236 1.391 . S
C238 H228 0.950 . S
C238 C239 1.386 . S
C238 C240 1.391 . S
C239 C238 1.386 . S
C239 C243 1.393 . S
C240 H229 0.950 . S
C240 C238 1.391 . S
C240 C241 1.400 . S
C241 C235 1.491 . S
C241 C240 1.400 . S
C241 C242 1.398 . S
C242 H230 0.950 . S
C242 C241 1.398 . S
C242 C243 1.391 . S
C243 H231 0.950 . S
C243 C239 1.393 . S
C243 C242 1.391 . S
H244 C252 0.950 . S
H245 C257 0.950 . S
H246 C254 0.950 . S
H247 C256 0.950 . S
H248 C258 0.950 . S
H249 C260 0.950 . S
H250 C262 0.950 . S
H251 C263 0.950 . S
C252 H244 0.950 . S
C252 C253 1.386 . S
C252 C254 1.391 . S
C253 C252 1.386 . S
C253 C257 1.393 . S
C254 H246 0.950 . S
C254 C252 1.391 . S
C254 C255 1.400 . S
C255 C254 1.400 . S
C255 C256 1.398 . S
C255 C261 1.491 . S
C256 H247 0.950 . S
C256 C255 1.398 . S
C256 C257 1.391 . S
C257 H245 0.950 . S
C257 C253 1.393 . S
C257 C256 1.391 . S
C258 H248 0.950 . S
C258 C259 1.386 . S
C258 C260 1.391 . S
C259 C258 1.386 . S
C259 C263 1.393 . S
C260 H249 0.950 . S
C260 C258 1.391 . S
C260 C261 1.400 . S
C261 C255 1.491 . S
C261 C260 1.400 . S
C261 C262 1.398 . S
C262 H250 0.950 . S
C262 C261 1.398 . S
C262 C263 1.391 . S
C263 H251 0.950 . S
C263 C259 1.393 . S
C263 C262 1.391 . S
H264 C272 0.950 . S
H265 C277 0.950 . S
H266 C274 0.950 . S
H267 C276 0.950 . S
H268 C278 0.950 . S
H269 C280 0.950 . S
H270 C282 0.950 . S
H271 C283 0.950 . S
C272 H264 0.950 . S
C272 C273 1.386 . S
C272 C274 1.391 . S
C273 C272 1.386 . S
C273 C277 1.393 . S
C274 H266 0.950 . S
C274 C272 1.391 . S
C274 C275 1.400 . S
C275 C274 1.400 . S
C275 C276 1.398 . S
C275 C281 1.491 . S
C276 H267 0.950 . S
C276 C275 1.398 . S
C276 C277 1.391 . S
C277 H265 0.950 . S
C277 C273 1.393 . S
C277 C276 1.391 . S
C278 H268 0.950 . S
C278 C279 1.386 . S
C278 C280 1.391 . S
C279 C278 1.386 . S
C279 C283 1.393 . S
C280 H269 0.950 . S
C280 C278 1.391 . S
C280 C281 1.400 . S
C281 C275 1.491 . S
C281 C280 1.400 . S
C281 C282 1.398 . S
C282 H270 0.950 . S
C282 C281 1.398 . S
C282 C283 1.391 . S
C283 H271 0.950 . S
C283 C279 1.393 . S
C283 C282 1.391 . S
H284 C292 0.950 . S
H285 C297 0.950 . S
H286 C294 0.950 . S
H287 C296 0.950 . S
H288 C298 0.950 . S
H289 C300 0.950 . S
H290 C302 0.950 . S
H291 C303 0.950 . S
C292 H284 0.950 . S
C292 C293 1.386 . S
C292 C294 1.391 . S
C293 C292 1.386 . S
C293 C297 1.393 . S
C294 H286 0.950 . S
C294 C292 1.391 . S
C294 C295 1.400 . S
C295 C294 1.400 . S
C295 C296 1.398 . S
C295 C301 1.491 1_455 S
C296 H287 0.950 . S
C296 C295 1.398 . S
C296 C297 1.391 . S
C297 H285 0.950 . S
C297 C293 1.393 . S
C297 C296 1.391 . S
C298 H288 0.950 . S
C298 C299 1.386 . S
C298 C300 1.391 . S
C299 C298 1.386 . S
C299 C303 1.393 . S
C300 H289 0.950 . S
C300 C298 1.391 . S
C300 C301 1.400 . S
C301 C295 1.491 1_655 S
C301 C300 1.400 . S
C301 C302 1.398 . S
C302 H290 0.950 . S
C302 C301 1.398 . S
C302 C303 1.391 . S
C303 H291 0.950 . S
C303 C299 1.393 . S
C303 C302 1.391 . S
H304 C312 0.950 . S
H305 C317 0.950 . S
H306 C314 0.950 . S
H307 C316 0.950 . S
H308 C318 0.950 . S
H309 C320 0.950 . S
H310 C322 0.950 . S
H311 C323 0.950 . S
C312 H304 0.950 . S
C312 C313 1.386 . S
C312 C314 1.391 . S
C313 C312 1.386 . S
C313 C317 1.393 . S
C314 H306 0.950 . S
C314 C312 1.391 . S
C314 C315 1.400 . S
C315 C314 1.400 . S
C315 C316 1.398 . S
C315 C321 1.491 . S
C316 H307 0.950 . S
C316 C315 1.398 . S
C316 C317 1.391 . S
C317 H305 0.950 . S
C317 C313 1.393 . S
C317 C316 1.391 . S
C318 H308 0.950 . S
C318 C319 1.386 . S
C318 C320 1.391 . S
C319 C318 1.386 . S
C319 C323 1.393 . S
C320 H309 0.950 . S
C320 C318 1.391 . S
C320 C321 1.400 . S
C321 C315 1.491 . S
C321 C320 1.400 . S
C321 C322 1.398 . S
C322 H310 0.950 . S
C322 C321 1.398 . S
C322 C323 1.391 . S
C323 H311 0.950 . S
C323 C319 1.393 . S
C323 C322 1.391 . S
H324 C332 0.950 . S
H325 C337 0.950 . S
H326 C334 0.950 . S
H327 C336 0.950 . S
H328 C338 0.950 . S
H329 C340 0.950 . S
H330 C342 0.950 . S
H331 C343 0.950 . S
C332 H324 0.950 . S
C332 C333 1.386 . S
C332 C334 1.391 . S
C333 C332 1.386 . S
C333 C337 1.393 . S
C334 H326 0.950 . S
C334 C332 1.391 . S
C334 C335 1.400 . S
C335 C334 1.400 . S
C335 C336 1.398 . S
C335 C341 1.491 1_655 S
C336 H327 0.950 . S
C336 C335 1.398 . S
C336 C337 1.391 . S
C337 H325 0.950 . S
C337 C333 1.393 . S
C337 C336 1.391 . S
C338 H328 0.950 . S
C338 C339 1.386 . S
C338 C340 1.391 . S
C339 C338 1.386 . S
C339 C343 1.393 . S
C340 H329 0.950 . S
C340 C338 1.391 . S
C340 C341 1.400 . S
C341 C335 1.491 1_455 S
C341 C340 1.400 . S
C341 C342 1.398 . S
C342 H330 0.950 . S
C342 C341 1.398 . S
C342 C343 1.391 . S
C343 H331 0.950 . S
C343 C339 1.393 . S
C343 C342 1.391 . S
H344 C352 0.950 . S
H345 C357 0.950 . S
H346 C354 0.950 . S
H347 C356 0.950 . S
H348 C358 0.950 . S
H349 C360 0.950 . S
H350 C362 0.950 . S
H351 C363 0.950 . S
C352 H344 0.950 . S
C352 C353 1.386 . S
C352 C354 1.391 . S
C353 C352 1.386 . S
C353 C357 1.393 . S
C354 H346 0.950 . S
C354 C352 1.391 . S
C354 C355 1.400 . S
C355 C354 1.400 . S
C355 C356 1.398 . S
C355 C361 1.491 . S
C356 H347 0.950 . S
C356 C355 1.398 . S
C356 C357 1.391 . S
C357 H345 0.950 . S
C357 C353 1.393 . S
C357 C356 1.391 . S
C358 H348 0.950 . S
C358 C359 1.386 . S
C358 C360 1.391 . S
C359 C358 1.386 . S
C359 C363 1.393 . S
C360 H349 0.950 . S
C360 C358 1.391 . S
C360 C361 1.400 . S
C361 C355 1.491 . S
C361 C360 1.400 . S
C361 C362 1.398 . S
C362 H350 0.950 . S
C362 C361 1.398 . S
C362 C363 1.391 . S
C363 H351 0.950 . S
C363 C359 1.393 . S
C363 C362 1.391 . S
H364 C372 0.950 . S
H365 C377 0.950 . S
H366 C374 0.950 . S
H367 C376 0.950 . S
H368 C378 0.950 . S
H369 C380 0.950 . S
H370 C382 0.950 . S
H371 C383 0.950 . S
C372 H364 0.950 . S
C372 C373 1.386 . S
C372 C374 1.391 . S
C373 C372 1.386 . S
C373 C377 1.393 . S
C374 H366 0.950 . S
C374 C372 1.391 . S
C374 C375 1.400 . S
C375 C374 1.400 . S
C375 C376 1.398 . S
C375 C381 1.491 . S
C376 H367 0.950 . S
C376 C375 1.398 . S
C376 C377 1.391 . S
C377 H365 0.950 . S
C377 C373 1.393 . S
C377 C376 1.391 . S
C378 H368 0.950 . S
C378 C379 1.386 . S
C378 C380 1.391 . S
C379 C378 1.386 . S
C379 C383 1.393 . S
C380 H369 0.950 . S
C380 C378 1.391 . S
C380 C381 1.400 . S
C381 C375 1.491 . S
C381 C380 1.400 . S
C381 C382 1.398 . S
C382 H370 0.950 . S
C382 C381 1.398 . S
C382 C383 1.391 . S
C383 H371 0.950 . S
C383 C379 1.393 . S
C383 C382 1.391 . S
H384 C392 0.950 . S
H385 C397 0.950 . S
H386 C394 0.950 . S
H387 C396 0.950 . S
H388 C398 0.950 . S
H389 C400 0.950 . S
H390 C402 0.950 . S
H391 C403 0.950 . S
C392 H384 0.950 . S
C392 C393 1.386 . S
C392 C394 1.391 . S
C393 C392 1.386 . S
C393 C397 1.393 . S
C394 H386 0.950 . S
C394 C392 1.391 . S
C394 C395 1.400 . S
C395 C394 1.400 . S
C395 C396 1.398 . S
C395 C401 1.491 . S
C396 H387 0.950 . S
C396 C395 1.398 . S
C396 C397 1.391 . S
C397 H385 0.950 . S
C397 C393 1.393 . S
C397 C396 1.391 . S
C398 H388 0.950 . S
C398 C399 1.386 . S
C398 C400 1.391 . S
C399 C398 1.386 . S
C399 C403 1.393 . S
C400 H389 0.950 . S
C400 C398 1.391 . S
C400 C401 1.400 . S
C401 C395 1.491 . S
C401 C400 1.400 . S
C401 C402 1.398 . S
C402 H390 0.950 . S
C402 C401 1.398 . S
C402 C403 1.391 . S
C403 H391 0.950 . S
C403 C399 1.393 . S
C403 C402 1.391 . S
H404 C412 0.950 . S
H405 C417 0.950 . S
H406 C414 0.950 . S
H407 C416 0.950 . S
H408 C418 0.950 . S
H409 C420 0.950 . S
H410 C422 0.950 . S
H411 C423 0.950 . S
C412 H404 0.950 . S
C412 C413 1.386 . S
C412 C414 1.391 . S
C413 C412 1.386 . S
C413 C417 1.393 . S
C414 H406 0.950 . S
C414 C412 1.391 . S
C414 C415 1.400 . S
C415 C414 1.400 . S
C415 C416 1.398 . S
C415 C421 1.491 . S
C416 H407 0.950 . S
C416 C415 1.398 . S
C416 C417 1.391 . S
C417 H405 0.950 . S
C417 C413 1.393 . S
C417 C416 1.391 . S
C418 H408 0.950 . S
C418 C419 1.386 . S
C418 C420 1.391 . S
C419 C418 1.386 . S
C419 C423 1.393 . S
C420 H409 0.950 . S
C420 C418 1.391 . S
C420 C421 1.400 . S
C421 C415 1.491 . S
C421 C420 1.400 . S
C421 C422 1.398 . S
C422 H410 0.950 . S
C422 C421 1.398 . S
C422 C423 1.391 . S
C423 H411 0.950 . S
C423 C419 1.393 . S
C423 C422 1.391 . S
H424 C432 0.950 . S
H425 C437 0.950 . S
H426 C434 0.950 . S
H427 C436 0.950 . S
H428 C438 0.950 . S
H429 C440 0.950 . S
H430 C442 0.950 . S
H431 C443 0.950 . S
C432 H424 0.950 . S
C432 C433 1.386 . S
C432 C434 1.391 . S
C433 C432 1.386 . S
C433 C437 1.393 . S
C434 H426 0.950 . S
C434 C432 1.391 . S
C434 C435 1.400 . S
C435 C434 1.400 . S
C435 C436 1.398 . S
C435 C441 1.491 . S
C436 H427 0.950 . S
C436 C435 1.398 . S
C436 C437 1.391 . S
C437 H425 0.950 . S
C437 C433 1.393 . S
C437 C436 1.391 . S
C438 H428 0.950 . S
C438 C439 1.386 . S
C438 C440 1.391 . S
C439 C438 1.386 . S
C439 C443 1.393 . S
C440 H429 0.950 . S
C440 C438 1.391 . S
C440 C441 1.400 . S
C441 C435 1.491 . S
C441 C440 1.400 . S
C441 C442 1.398 . S
C442 H430 0.950 . S
C442 C441 1.398 . S
C442 C443 1.391 . S
C443 H431 0.950 . S
C443 C439 1.393 . S
C443 C442 1.391 . S
H444 C452 0.950 . S
H445 C457 0.950 . S
H446 C454 0.950 . S
H447 C456 0.950 . S
H448 C458 0.950 . S
H449 C460 0.950 . S
H450 C462 0.950 . S
H451 C463 0.950 . S
C452 H444 0.950 . S
C452 C453 1.386 . S
C452 C454 1.391 . S
C453 C452 1.386 . S
C453 C457 1.393 . S
C454 H446 0.950 . S
C454 C452 1.391 . S
C454 C455 1.400 . S
C455 C454 1.400 . S
C455 C456 1.398 . S
C455 C461 1.491 . S
C456 H447 0.950 . S
C456 C455 1.398 . S
C456 C457 1.391 . S
C457 H445 0.950 . S
C457 C453 1.393 . S
C457 C456 1.391 . S
C458 H448 0.950 . S
C458 C459 1.386 . S
C458 C460 1.391 . S
C459 C458 1.386 . S
C459 C463 1.393 . S
C460 H449 0.950 . S
C460 C458 1.391 . S
C460 C461 1.400 . S
C461 C455 1.491 . S
C461 C460 1.400 . S
C461 C462 1.398 . S
C462 H450 0.950 . S
C462 C461 1.398 . S
C462 C463 1.391 . S
C463 H451 0.950 . S
C463 C459 1.393 . S
C463 C462 1.391 . S
H464 C472 0.950 . S
H465 C477 0.950 . S
H466 C474 0.950 . S
H467 C476 0.950 . S
H468 C478 0.950 . S
H469 C480 0.950 . S
H470 C482 0.950 . S
H471 C483 0.950 . S
C472 H464 0.950 . S
C472 C473 1.386 . S
C472 C474 1.391 . S
C473 C472 1.386 . S
C473 C477 1.393 . S
C474 H466 0.950 . S
C474 C472 1.391 . S
C474 C475 1.400 . S
C475 C474 1.400 . S
C475 C476 1.398 . S
C475 C481 1.491 1_455 S
C476 H467 0.950 . S
C476 C475 1.398 . S
C476 C477 1.391 . S
C477 H465 0.950 . S
C477 C473 1.393 . S
C477 C476 1.391 . S
C478 H468 0.950 . S
C478 C479 1.386 . S
C478 C480 1.391 . S
C479 C478 1.386 . S
C479 C483 1.393 . S
C480 H469 0.950 . S
C480 C478 1.391 . S
C480 C481 1.400 . S
C481 C475 1.491 1_655 S
C481 C480 1.400 . S
C481 C482 1.398 . S
C482 H470 0.950 . S
C482 C481 1.398 . S
C482 C483 1.391 . S
C483 H471 0.950 . S
C483 C479 1.393 . S
C483 C482 1.391 . S
H484 C492 0.950 . S
H485 C497 0.950 . S
H486 C494 0.950 . S
H487 C496 0.950 . S
H488 C498 0.950 . S
H489 C500 0.950 . S
H490 C502 0.950 . S
H491 C503 0.950 . S
C492 H484 0.950 . S
C492 C493 1.386 . S
C492 C494 1.391 . S
C493 C492 1.386 . S
C493 C497 1.393 . S
C494 H486 0.950 . S
C494 C492 1.391 . S
C494 C495 1.400 . S
C495 C494 1.400 . S
C495 C496 1.398 . S
C495 C501 1.491 . S
C496 H487 0.950 . S
C496 C495 1.398 . S
C496 C497 1.391 . S
C497 H485 0.950 . S
C497 C493 1.393 . S
C497 C496 1.391 . S
C498 H488 0.950 . S
C498 C499 1.386 . S
C498 C500 1.391 . S
C499 C498 1.386 . S
C499 C503 1.393 . S
C500 H489 0.950 . S
C500 C498 1.391 . S
C500 C501 1.400 . S
C501 C495 1.491 . S
C501 C500 1.400 . S
C501 C502 1.398 . S
C502 H490 0.950 . S
C502 C501 1.398 . S
C502 C503 1.391 . S
C503 H491 0.950 . S
C503 C499 1.393 . S
C503 C502 1.391 . S
H504 C512 0.950 . S
H505 C517 0.950 . S
H506 C514 0.950 . S
H507 C516 0.950 . S
H508 C518 0.950 . S
H509 C520 0.950 . S
H510 C522 0.950 . S
H511 C523 0.950 . S
C512 H504 0.950 . S
C512 C513 1.386 . S
C512 C514 1.391 . S
C513 C512 1.386 . S
C513 C517 1.393 . S
C514 H506 0.950 . S
C514 C512 1.391 . S
C514 C515 1.400 . S
C515 C514 1.400 . S
C515 C516 1.398 . S
C515 C521 1.491 . S
C516 H507 0.950 . S
C516 C515 1.398 . S
C516 C517 1.391 . S
C517 H505 0.950 . S
C517 C513 1.393 . S
C517 C516 1.391 . S
C518 H508 0.950 . S
C518 C519 1.386 . S
C518 C520 1.391 . S
C519 C518 1.386 . S
C519 C523 1.393 . S
C520 H509 0.950 . S
C520 C518 1.391 . S
C520 C521 1.400 . S
C521 C515 1.491 . S
C521 C520 1.400 . S
C521 C522 1.398 . S
C522 H510 0.950 . S
C522 C521 1.398 . S
C522 C523 1.391 . S
C523 H511 0.950 . S
C523 C519 1.393 . S
C523 C522 1.391 . S
H524 C532 0.950 . S
H525 C537 0.950 . S
H526 C534 0.950 . S
H527 C536 0.950 . S
H528 C538 0.950 . S
H529 C540 0.950 . S
H530 C542 0.950 . S
H531 C543 0.950 . S
C532 H524 0.950 . S
C532 C533 1.386 . S
C532 C534 1.391 . S
C533 C532 1.386 . S
C533 C537 1.393 . S
C534 H526 0.950 . S
C534 C532 1.391 . S
C534 C535 1.400 . S
C535 C534 1.400 . S
C535 C536 1.398 . S
C535 C541 1.491 1_455 S
C536 H527 0.950 . S
C536 C535 1.398 . S
C536 C537 1.391 . S
C537 H525 0.950 . S
C537 C533 1.393 . S
C537 C536 1.391 . S
C538 H528 0.950 . S
C538 C539 1.386 . S
C538 C540 1.391 . S
C539 C538 1.386 . S
C539 C543 1.393 . S
C540 H529 0.950 . S
C540 C538 1.391 . S
C540 C541 1.400 . S
C541 C535 1.491 1_655 S
C541 C540 1.400 . S
C541 C542 1.398 . S
C542 H530 0.950 . S
C542 C541 1.398 . S
C542 C543 1.391 . S
C543 H531 0.950 . S
C543 C539 1.393 . S
C543 C542 1.391 . S
H544 C552 0.950 . S
H545 C557 0.950 . S
H546 C554 0.950 . S
H547 C556 0.950 . S
H548 C558 0.950 . S
H549 C560 0.950 . S
H550 C562 0.950 . S
H551 C563 0.950 . S
C552 H544 0.950 . S
C552 C553 1.386 . S
C552 C554 1.391 . S
C553 C552 1.386 . S
C553 C557 1.393 . S
C554 H546 0.950 . S
C554 C552 1.391 . S
C554 C555 1.400 . S
C555 C554 1.400 . S
C555 C556 1.398 . S
C555 C561 1.491 1_554 S
C556 H547 0.950 . S
C556 C555 1.398 . S
C556 C557 1.391 . S
C557 H545 0.950 . S
C557 C553 1.393 . S
C557 C556 1.391 . S
C558 H548 0.950 . S
C558 C559 1.386 . S
C558 C560 1.391 . S
C559 C558 1.386 . S
C559 C563 1.393 . S
C560 H549 0.950 . S
C560 C558 1.391 . S
C560 C561 1.400 . S
C561 C555 1.491 1_556 S
C561 C560 1.400 . S
C561 C562 1.398 . S
C562 H550 0.950 . S
C562 C561 1.398 . S
C562 C563 1.391 . S
C563 H551 0.950 . S
C563 C559 1.393 . S
C563 C562 1.391 . S
H564 C572 0.950 . S
H565 C577 0.950 . S
H566 C574 0.950 . S
H567 C576 0.950 . S
H568 C578 0.950 . S
H569 C580 0.950 . S
H570 C582 0.950 . S
H571 C583 0.950 . S
C572 H564 0.950 . S
C572 C573 1.386 . S
C572 C574 1.391 . S
C573 C572 1.386 . S
C573 C577 1.393 . S
C574 H566 0.950 . S
C574 C572 1.391 . S
C574 C575 1.400 . S
C575 C574 1.400 . S
C575 C576 1.398 . S
C575 C581 1.491 . S
C576 H567 0.950 . S
C576 C575 1.398 . S
C576 C577 1.391 . S
C577 H565 0.950 . S
C577 C573 1.393 . S
C577 C576 1.391 . S
C578 H568 0.950 . S
C578 C579 1.386 . S
C578 C580 1.391 . S
C579 C578 1.386 . S
C579 C583 1.393 . S
C580 H569 0.950 . S
C580 C578 1.391 . S
C580 C581 1.400 . S
C581 C575 1.491 . S
C581 C580 1.400 . S
C581 C582 1.398 . S
C582 H570 0.950 . S
C582 C581 1.398 . S
C582 C583 1.391 . S
C583 H571 0.950 . S
C583 C579 1.393 . S
C583 C582 1.391 . S
H584 C592 0.950 . S
H585 C597 0.950 . S
H586 C594 0.950 . S
H587 C596 0.950 . S
H588 C598 0.950 . S
H589 C600 0.950 . S
H590 C602 0.950 . S
H591 C603 0.950 . S
C592 H584 0.950 . S
C592 C593 1.386 . S
C592 C594 1.391 . S
C593 C592 1.386 . S
C593 C597 1.393 . S
C594 H586 0.950 . S
C594 C592 1.391 . S
C594 C595 1.400 . S
C595 C594 1.400 . S
C595 C596 1.398 . S
C595 C601 1.491 . S
C596 H587 0.950 . S
C596 C595 1.398 . S
C596 C597 1.391 . S
C597 H585 0.950 . S
C597 C593 1.393 . S
C597 C596 1.391 . S
C598 H588 0.950 . S
C598 C599 1.386 . S
C598 C600 1.391 . S
C599 C598 1.386 . S
C599 C603 1.393 . S
C600 H589 0.950 . S
C600 C598 1.391 . S
C600 C601 1.400 . S
C601 C595 1.491 . S
C601 C600 1.400 . S
C601 C602 1.398 . S
C602 H590 0.950 . S
C602 C601 1.398 . S
C602 C603 1.391 . S
C603 H591 0.950 . S
C603 C599 1.393 . S
C603 C602 1.391 . S
H604 C612 0.950 . S
H605 C617 0.950 . S
H606 C614 0.950 . S
H607 C616 0.950 . S
H608 C618 0.950 . S
H609 C620 0.950 . S
H610 C622 0.950 . S
H611 C623 0.950 . S
C612 H604 0.950 . S
C612 C613 1.386 . S
C612 C614 1.391 . S
C613 C612 1.386 . S
C613 C617 1.393 . S
C614 H606 0.950 . S
C614 C612 1.391 . S
C614 C615 1.400 . S
C615 C614 1.400 . S
C615 C616 1.398 . S
C615 C621 1.491 . S
C616 H607 0.950 . S
C616 C615 1.398 . S
C616 C617 1.391 . S
C617 H605 0.950 . S
C617 C613 1.393 . S
C617 C616 1.391 . S
C618 H608 0.950 . S
C618 C619 1.386 . S
C618 C620 1.391 . S
C619 C618 1.386 . S
C619 C623 1.393 . S
C620 H609 0.950 . S
C620 C618 1.391 . S
C620 C621 1.400 . S
C621 C615 1.491 . S
C621 C620 1.400 . S
C621 C622 1.398 . S
C622 H610 0.950 . S
C622 C621 1.398 . S
C622 C623 1.391 . S
C623 H611 0.950 . S
C623 C619 1.393 . S
C623 C622 1.391 . S
H624 C632 0.950 . S
H625 C637 0.950 . S
H626 C634 0.950 1_554 S
H627 C636 0.950 . S
H628 C638 0.950 . S
H629 C640 0.950 1_556 S
H630 C642 0.950 . S
H631 C643 0.950 . S
C632 H624 0.950 . S
C632 C633 1.386 . S
C632 C634 1.391 . S
C633 C632 1.386 . S
C633 C637 1.393 . S
C634 H626 0.950 1_556 S
C634 C632 1.391 . S
C634 C635 1.400 . S
C635 C634 1.400 . S
C635 C636 1.398 . S
C635 C641 1.491 1_556 S
C636 H627 0.950 . S
C636 C635 1.398 . S
C636 C637 1.391 . S
C637 H625 0.950 . S
C637 C633 1.393 . S
C637 C636 1.391 . S
C638 H628 0.950 . S
C638 C639 1.386 . S
C638 C640 1.391 . S
C639 C638 1.386 . S
C639 C643 1.393 . S
C640 H629 0.950 1_554 S
C640 C638 1.391 . S
C640 C641 1.400 . S
C641 C635 1.491 1_554 S
C641 C640 1.400 . S
C641 C642 1.398 . S
C642 H630 0.950 . S
C642 C641 1.398 . S
C642 C643 1.391 . S
C643 H631 0.950 . S
C643 C639 1.393 . S
C643 C642 1.391 . S
H644 C652 0.950 . S
H645 C657 0.950 . S
H646 C654 0.950 . S
H647 C656 0.950 . S
H648 C658 0.950 . S
H649 C660 0.950 . S
H650 C662 0.950 . S
H651 C663 0.950 . S
C652 H644 0.950 . S
C652 C653 1.386 . S
C652 C654 1.391 . S
C653 C652 1.386 . S
C653 C657 1.393 . S
C654 H646 0.950 . S
C654 C652 1.391 . S
C654 C655 1.400 . S
C655 C654 1.400 . S
C655 C656 1.398 . S
C655 C661 1.491 . S
C656 H647 0.950 . S
C656 C655 1.398 . S
C656 C657 1.391 . S
C657 H645 0.950 . S
C657 C653 1.393 . S
C657 C656 1.391 . S
C658 H648 0.950 . S
C658 C659 1.386 . S
C658 C660 1.391 . S
C659 C658 1.386 . S
C659 C663 1.393 . S
C660 H649 0.950 . S
C660 C658 1.391 . S
C660 C661 1.400 . S
C661 C655 1.491 . S
C661 C660 1.400 . S
C661 C662 1.398 . S
C662 H650 0.950 . S
C662 C661 1.398 . S
C662 C663 1.391 . S
C663 H651 0.950 . S
C663 C659 1.393 . S
C663 C662 1.391 . S
H664 C672 0.950 . S
H665 C677 0.950 . S
H666 C674 0.950 . S
H667 C676 0.950 . S
H668 C678 0.950 . S
H669 C680 0.950 . S
H670 C682 0.950 . S
H671 C683 0.950 . S
C672 H664 0.950 . S
C672 C673 1.386 . S
C672 C674 1.391 . S
C673 C672 1.386 . S
C673 C677 1.393 . S
C674 H666 0.950 . S
C674 C672 1.391 . S
C674 C675 1.400 . S
C675 C674 1.400 . S
C675 C676 1.398 . S
C675 C681 1.491 . S
C676 H667 0.950 . S
C676 C675 1.398 . S
C676 C677 1.391 . S
C677 H665 0.950 . S
C677 C673 1.393 . S
C677 C676 1.391 . S
C678 H668 0.950 . S
C678 C679 1.386 . S
C678 C680 1.391 . S
C679 C678 1.386 . S
C679 C683 1.393 . S
C680 H669 0.950 . S
C680 C678 1.391 . S
C680 C681 1.400 . S
C681 C675 1.491 . S
C681 C680 1.400 . S
C681 C682 1.398 . S
C682 H670 0.950 . S
C682 C681 1.398 . S
C682 C683 1.391 . S
C683 H671 0.950 . S
C683 C679 1.393 . S
C683 C682 1.391 . S
H684 C692 0.950 . S
H685 C697 0.950 . S
H686 C694 0.950 . S
H687 C696 0.950 . S
H688 C698 0.950 . S
H689 C700 0.950 . S
H690 C702 0.950 . S
H691 C703 0.950 . S
C692 H684 0.950 . S
C692 C693 1.386 . S
C692 C694 1.391 . S
C693 C692 1.386 . S
C693 C697 1.393 . S
C694 H686 0.950 . S
C694 C692 1.391 . S
C694 C695 1.400 . S
C695 C694 1.400 . S
C695 C696 1.398 . S
C695 C701 1.491 . S
C696 H687 0.950 . S
C696 C695 1.398 . S
C696 C697 1.391 . S
C697 H685 0.950 . S
C697 C693 1.393 . S
C697 C696 1.391 . S
C698 H688 0.950 . S
C698 C699 1.386 . S
C698 C700 1.391 . S
C699 C698 1.386 . S
C699 C703 1.393 . S
C700 H689 0.950 . S
C700 C698 1.391 . S
C700 C701 1.400 . S
C701 C695 1.491 . S
C701 C700 1.400 . S
C701 C702 1.398 . S
C702 H690 0.950 . S
C702 C701 1.398 . S
C702 C703 1.391 . S
C703 H691 0.950 . S
C703 C699 1.393 . S
C703 C702 1.391 . S
H704 C712 0.950 . S
H705 C717 0.950 . S
H706 C714 0.950 . S
H707 C716 0.950 . S
H708 C718 0.950 . S
H709 C720 0.950 . S
H710 C722 0.950 . S
H711 C723 0.950 . S
C712 H704 0.950 . S
C712 C713 1.386 . S
C712 C714 1.391 . S
C713 C712 1.386 . S
C713 C717 1.393 . S
C714 H706 0.950 . S
C714 C712 1.391 . S
C714 C715 1.400 . S
C715 C714 1.400 . S
C715 C716 1.398 . S
C715 C721 1.491 1_545 S
C716 H707 0.950 . S
C716 C715 1.398 . S
C716 C717 1.391 . S
C717 H705 0.950 . S
C717 C713 1.393 . S
C717 C716 1.391 . S
C718 H708 0.950 . S
C718 C719 1.386 . S
C718 C720 1.391 . S
C719 C718 1.386 . S
C719 C723 1.393 . S
C720 H709 0.950 . S
C720 C718 1.391 . S
C720 C721 1.400 . S
C721 C715 1.491 1_565 S
C721 C720 1.400 . S
C721 C722 1.398 . S
C722 H710 0.950 . S
C722 C721 1.398 . S
C722 C723 1.391 . S
C723 H711 0.950 . S
C723 C719 1.393 . S
C723 C722 1.391 . S
H724 C732 0.950 . S
H725 C737 0.950 . S
H726 C734 0.950 . S
H727 C736 0.950 . S
H728 C738 0.950 . S
H729 C740 0.950 . S
H730 C742 0.950 . S
H731 C743 0.950 . S
C732 H724 0.950 . S
C732 C733 1.386 . S
C732 C734 1.391 . S
C733 C732 1.386 . S
C733 C737 1.393 . S
C734 H726 0.950 . S
C734 C732 1.391 . S
C734 C735 1.400 . S
C735 C734 1.400 . S
C735 C736 1.398 . S
C735 C741 1.491 . S
C736 H727 0.950 . S
C736 C735 1.398 . S
C736 C737 1.391 . S
C737 H725 0.950 . S
C737 C733 1.393 . S
C737 C736 1.391 . S
C738 H728 0.950 . S
C738 C739 1.386 . S
C738 C740 1.391 . S
C739 C738 1.386 . S
C739 C743 1.393 . S
C740 H729 0.950 . S
C740 C738 1.391 . S
C740 C741 1.400 . S
C741 C735 1.491 . S
C741 C740 1.400 . S
C741 C742 1.398 . S
C742 H730 0.950 . S
C742 C741 1.398 . S
C742 C743 1.391 . S
C743 H731 0.950 . S
C743 C739 1.393 . S
C743 C742 1.391 . S
H744 C752 0.950 . S
H745 C757 0.950 . S
H746 C754 0.950 . S
H747 C756 0.950 1_565 S
H748 C758 0.950 . S
H749 C760 0.950 . S
H750 C762 0.950 1_545 S
H751 C763 0.950 . S
C752 H744 0.950 . S
C752 C753 1.386 . S
C752 C754 1.391 . S
C753 C752 1.386 . S
C753 C757 1.393 . S
C754 H746 0.950 . S
C754 C752 1.391 . S
C754 C755 1.400 . S
C755 C754 1.400 . S
C755 C756 1.398 . S
C755 C761 1.491 1_546 S
C756 H747 0.950 1_545 S
C756 C755 1.398 . S
C756 C757 1.391 . S
C757 H745 0.950 . S
C757 C753 1.393 . S
C757 C756 1.391 . S
C758 H748 0.950 . S
C758 C759 1.386 . S
C758 C760 1.391 . S
C759 C758 1.386 . S
C759 C763 1.393 . S
C760 H749 0.950 . S
C760 C758 1.391 . S
C760 C761 1.400 . S
C761 C755 1.491 1_564 S
C761 C760 1.400 . S
C761 C762 1.398 . S
C762 H750 0.950 1_565 S
C762 C761 1.398 . S
C762 C763 1.391 . S
C763 H751 0.950 . S
C763 C759 1.393 . S
C763 C762 1.391 . S
H764 C772 0.950 . S
H765 C777 0.950 . S
H766 C774 0.950 . S
H767 C776 0.950 . S
H768 C778 0.950 . S
H769 C780 0.950 . S
H770 C782 0.950 . S
H771 C783 0.950 . S
C772 H764 0.950 . S
C772 C773 1.386 . S
C772 C774 1.391 . S
C773 C772 1.386 . S
C773 C777 1.393 . S
C774 H766 0.950 . S
C774 C772 1.391 . S
C774 C775 1.400 . S
C775 C774 1.400 . S
C775 C776 1.398 . S
C775 C781 1.491 . S
C776 H767 0.950 . S
C776 C775 1.398 . S
C776 C777 1.391 . S
C777 H765 0.950 . S
C777 C773 1.393 . S
C777 C776 1.391 . S
C778 H768 0.950 . S
C778 C779 1.386 . S
C778 C780 1.391 . S
C779 C778 1.386 . S
C779 C783 1.393 . S
C780 H769 0.950 . S
C780 C778 1.391 . S
C780 C781 1.400 . S
C781 C775 1.491 . S
C781 C780 1.400 . S
C781 C782 1.398 . S
C782 H770 0.950 . S
C782 C781 1.398 . S
C782 C783 1.391 . S
C783 H771 0.950 . S
C783 C779 1.393 . S
C783 C782 1.391 . S
H784 C792 0.950 . S
H785 C797 0.950 . S
H786 C794 0.950 1_565 S
H787 C796 0.950 . S
H788 C798 0.950 . S
H789 C800 0.950 1_545 S
H790 C802 0.950 . S
H791 C803 0.950 . S
C792 H784 0.950 . S
C792 C793 1.386 . S
C792 C794 1.391 . S
C793 C792 1.386 . S
C793 C797 1.393 . S
C794 H786 0.950 1_545 S
C794 C792 1.391 . S
C794 C795 1.400 . S
C795 C794 1.400 . S
C795 C796 1.398 . S
C795 C801 1.491 1_545 S
C796 H787 0.950 . S
C796 C795 1.398 . S
C796 C797 1.391 . S
C797 H785 0.950 . S
C797 C793 1.393 . S
C797 C796 1.391 . S
C798 H788 0.950 . S
C798 C799 1.386 . S
C798 C800 1.391 . S
C799 C798 1.386 . S
C799 C803 1.393 . S
C800 H789 0.950 1_565 S
C800 C798 1.391 . S
C800 C801 1.400 . S
C801 C795 1.491 1_565 S
C801 C800 1.400 . S
C801 C802 1.398 . S
C802 H790 0.950 . S
C802 C801 1.398 . S
C802 C803 1.391 . S
C803 H791 0.950 . S
C803 C799 1.393 . S
C803 C802 1.391 . S
H804 C812 0.950 . S
H805 C817 0.950 . S
H806 C814 0.950 . S
H807 C816 0.950 . S
H808 C818 0.950 . S
H809 C820 0.950 . S
H810 C822 0.950 . S
H811 C823 0.950 . S
C812 H804 0.950 . S
C812 C813 1.386 . S
C812 C814 1.391 . S
C813 C812 1.386 . S
C813 C817 1.393 . S
C814 H806 0.950 . S
C814 C812 1.391 . S
C814 C815 1.400 . S
C815 C814 1.400 . S
C815 C816 1.398 . S
C815 C821 1.491 . S
C816 H807 0.950 . S
C816 C815 1.398 . S
C816 C817 1.391 . S
C817 H805 0.950 . S
C817 C813 1.393 . S
C817 C816 1.391 . S
C818 H808 0.950 . S
C818 C819 1.386 . S
C818 C820 1.391 . S
C819 C818 1.386 . S
C819 C823 1.393 . S
C820 H809 0.950 . S
C820 C818 1.391 . S
C820 C821 1.400 . S
C821 C815 1.491 . S
C821 C820 1.400 . S
C821 C822 1.398 . S
C822 H810 0.950 . S
C822 C821 1.398 . S
C822 C823 1.391 . S
C823 H811 0.950 . S
C823 C819 1.393 . S
C823 C822 1.391 . S
H824 C832 0.950 . S
H825 C837 0.950 . S
H826 C834 0.950 1_556 S
H827 C836 0.947 . S
H828 C838 0.950 . S
H829 C840 0.950 1_554 S
H830 C842 0.913 1_565 S
H831 C843 0.950 . S
C832 H824 0.950 . S
C832 C833 1.386 . S
C832 C834 1.391 . S
C833 C832 1.386 . S
C833 C837 1.393 . S
C834 H826 0.950 1_554 S
C834 C832 1.391 . S
C834 C835 1.400 . S
C835 C834 1.400 . S
C835 C836 1.399 1_565 S
C835 C841 1.491 1_564 S
C836 H827 0.947 . S
C836 C835 1.399 1_545 S
C836 C837 1.393 1_545 S
C837 H825 0.950 . S
C837 C833 1.393 . S
C837 C836 1.393 1_565 S
C838 H828 0.950 . S
C838 C839 1.386 . S
C838 C840 1.391 . S
C839 C838 1.386 . S
C839 C843 1.393 . S
C840 H829 0.950 1_556 S
C840 C838 1.391 . S
C840 C841 1.400 . S
C841 C835 1.491 1_546 S
C841 C840 1.400 . S
C841 C842 1.410 . S
C842 H830 0.913 1_545 S
C842 C841 1.410 . S
C842 C843 1.416 . S
C843 H831 0.950 . S
C843 C839 1.393 . S
C843 C842 1.416 . S
H844 C852 0.950 . S
H845 C857 0.950 . S
H846 C854 0.950 . S
H847 C856 0.950 . S
H848 C858 0.950 . S
H849 C860 0.950 . S
H850 C862 0.950 . S
H851 C863 0.950 . S
C852 H844 0.950 . S
C852 C853 1.386 . S
C852 C854 1.391 . S
C853 C852 1.386 . S
C853 C857 1.393 . S
C854 H846 0.950 . S
C854 C852 1.391 . S
C854 C855 1.400 . S
C855 C854 1.400 . S
C855 C856 1.398 . S
C855 C861 1.491 . S
C856 H847 0.950 . S
C856 C855 1.398 . S
C856 C857 1.391 . S
C857 H845 0.950 . S
C857 C853 1.393 . S
C857 C856 1.391 . S
C858 H848 0.950 . S
C858 C859 1.386 . S
C858 C860 1.391 . S
C859 C858 1.386 . S
C859 C863 1.393 . S
C860 H849 0.950 . S
C860 C858 1.391 . S
C860 C861 1.400 . S
C861 C855 1.491 . S
C861 C860 1.400 . S
C861 C862 1.398 . S
C862 H850 0.950 . S
C862 C861 1.398 . S
C862 C863 1.391 . S
C863 H851 0.950 . S
C863 C859 1.393 . S
C863 C862 1.391 . S
C233 C162 1.305 . S
C239 C13 1.300 . S
C253 C223 1.373 . S
C259 C22 1.354 . S
C273 C41 1.239 . S
C279 C139 1.193 . S
C293 C195 1.213 . S
C299 C55 1.191 . S
C313 C69 1.433 . S
C319 C190 1.429 . S
C333 C78 1.388 . S
C339 C167 1.372 . S
C353 C92 1.448 . S
C359 C218 1.478 . S
C373 C111 1.345 . S
C379 C134 1.331 . S
C393 C50 1.281 . S
C399 C125 1.290 . S
C413 C148 1.410 . S
C419 C27 1.388 . S
C433 C181 1.246 . S
C439 C83 1.230 . S
C453 C204 1.487 . S
C459 C106 1.475 . S
C473 C64 1.393 . S
C479 C120 1.430 . S
C493 C153 1.244 . S
C499 C97 1.267 . S
C513 C209 1.454 . S
C519 C36 1.439 . S
C533 C8 1.402 . S
C539 C176 1.383 . S
C553 C7 1.181 . S
C559 C63 1.188 . S
C573 C25 1.064 . S
C579 C81 1.058 . S
C593 C35 1.227 . S
C599 C95 1.232 . S
C613 C105 1.261 . S
C619 C49 1.265 . S
C633 C119 1.174 . S
C639 C175 1.182 . S
C653 C189 1.159 . S
C659 C137 1.187 . S
C673 C151 1.107 . S
C679 C207 1.111 . S
C693 C217 1.267 . S
C699 C161 1.270 . S
C713 C109 1.209 . S
C719 C21 1.187 . S
C733 C39 1.142 . S
C739 C67 1.148 . S
C753 C53 1.212 . S
C759 C77 1.207 . S
C773 C11 1.112 . S
C779 C91 1.107 . S
C793 C133 1.189 . S
C799 C221 1.201 . S
C813 C179 1.274 . S
C819 C147 1.249 . S
C833 C165 1.089 . S
C839 C193 1.093 . S
C853 C203 1.105 . S
C859 C123 1.123 . S
