# Generated by pormake.
# Topology unb, (4)-cn, num edge types: 1
# Building blocks:
#     Node 0, Type 0, BuildingBlock: QUQFOY_clean_sbu_3, # of connection points: 4
#     Node 1, Type 0, BuildingBlock: QUQFOY_clean_sbu_3, # of connection points: 4
#     Node 2, Type 0, BuildingBlock: QUQFOY_clean_sbu_3, # of connection points: 4
#     Node 3, Type 0, BuildingBlock: QUQFOY_clean_sbu_3, # of connection points: 4
#     Node 4, Type 0, BuildingBlock: QUQFOY_clean_sbu_3, # of connection points: 4
#     Node 5, Type 0, BuildingBlock: QUQFOY_clean_sbu_3, # of connection points: 4
#     Node 6, Type 0, BuildingBlock: QUQFOY_clean_sbu_3, # of connection points: 4
#     Node 7, Type 0, BuildingBlock: QUQFOY_clean_sbu_3, # of connection points: 4
#     Node 8, Type 0, BuildingBlock: QUQFOY_clean_sbu_3, # of connection points: 4
#     Node 9, Type 0, BuildingBlock: QUQFOY_clean_sbu_3, # of connection points: 4
#     Node 10, Type 0, BuildingBlock: QUQFOY_clean_sbu_3, # of connection points: 4
#     Node 11, Type 0, BuildingBlock: QUQFOY_clean_sbu_3, # of connection points: 4
#     Node 12, Type 0, BuildingBlock: QUQFOY_clean_sbu_3, # of connection points: 4
#     Node 13, Type 0, BuildingBlock: QUQFOY_clean_sbu_3, # of connection points: 4
#     Node 14, Type 0, BuildingBlock: QUQFOY_clean_sbu_3, # of connection points: 4
#     Node 15, Type 0, BuildingBlock: QUQFOY_clean_sbu_3, # of connection points: 4
#     Node 16, Type 0, BuildingBlock: QUQFOY_clean_sbu_3, # of connection points: 4
#     Node 17, Type 0, BuildingBlock: QUQFOY_clean_sbu_3, # of connection points: 4
#     Edge 18, Type (0, 0), None
#     Edge 19, Type (0, 0), None
#     Edge 20, Type (0, 0), None
#     Edge 21, Type (0, 0), None
#     Edge 22, Type (0, 0), None
#     Edge 23, Type (0, 0), None
#     Edge 24, Type (0, 0), None
#     Edge 25, Type (0, 0), None
#     Edge 26, Type (0, 0), None
#     Edge 27, Type (0, 0), None
#     Edge 28, Type (0, 0), None
#     Edge 29, Type (0, 0), None
#     Edge 30, Type (0, 0), None
#     Edge 31, Type (0, 0), None
#     Edge 32, Type (0, 0), None
#     Edge 33, Type (0, 0), None
#     Edge 34, Type (0, 0), None
#     Edge 35, Type (0, 0), None
#     Edge 36, Type (0, 0), None
#     Edge 37, Type (0, 0), None
#     Edge 38, Type (0, 0), None
#     Edge 39, Type (0, 0), None
#     Edge 40, Type (0, 0), None
#     Edge 41, Type (0, 0), None
#     Edge 42, Type (0, 0), None
#     Edge 43, Type (0, 0), None
#     Edge 44, Type (0, 0), None
#     Edge 45, Type (0, 0), None
#     Edge 46, Type (0, 0), None
#     Edge 47, Type (0, 0), None
#     Edge 48, Type (0, 0), None
#     Edge 49, Type (0, 0), None
#     Edge 50, Type (0, 0), None
#     Edge 51, Type (0, 0), None
#     Edge 52, Type (0, 0), None
#     Edge 53, Type (0, 0), None
# Relax obj value: 0.075
# Max RMSD: 0.074
# Mean RMSD: 0.074
data_MOF--net-unb--node1-QUQFOY_clean_sbu_3--edge1-none
_symmetry_space_group_name_H-M    P1
_symmetry_Int_Tables_number       1
_symmetry_cell_setting            triclinic
loop_
_symmetry_equiv_pos_as_xyz
'x, y, z'
_cell_length_a     32.762722
_cell_length_b     32.762551
_cell_length_c     12.893663
_cell_angle_alpha  90.002135
_cell_angle_beta   89.995738
_cell_angle_gamma 119.99953
loop_
_atom_site_label
_atom_site_type_symbol
_atom_site_fract_x
_atom_site_fract_y
_atom_site_fract_z
_atom_type_partial_charge
C0 C -0.08011 0.11884 0.98618 0.0
O1 O -0.06557 0.10771 0.9059 0.0
Cd2 Cd 0.01153 0.12332 0.87117 0.0
O3 O -0.05194 0.14355 0.05942 0.0
Cd4 Cd 0.03681 0.19102 0.09251 0.0
C5 C 0.05589 0.24155 0.8577 0.0
O6 O 0.04578 0.12604 0.03473 0.0
O7 O 0.11155 0.19079 0.04712 0.0
O8 O 0.04212 0.20301 0.28522 0.0
C9 C 0.08988 0.14752 0.02305 0.0
O10 O 0.04623 0.20322 0.81272 0.0
C11 C 0.06444 0.24795 0.28072 0.0
O12 O 0.05205 0.24445 0.95483 0.0
O13 O 0.07354 0.26598 0.19077 0.0
C14 C 0.70527 0.76589 0.98618 0.0
O15 O 0.7164 0.79155 0.90589 0.0
Cd16 Cd 0.70079 0.85304 0.87116 0.0
O17 O 0.68056 0.76935 0.05942 0.0
Cd18 Cd 0.63309 0.81063 0.09251 0.0
C19 C 0.58255 0.77917 0.8577 0.0
O20 O 0.69807 0.88458 0.03472 0.0
O21 O 0.63332 0.8856 0.04713 0.0
O22 O 0.62109 0.80395 0.28521 0.0
C23 C 0.67659 0.9072 0.02304 0.0
O24 O 0.62089 0.80784 0.81271 0.0
C25 C 0.57615 0.78132 0.28072 0.0
O26 O 0.57966 0.77244 0.95482 0.0
O27 O 0.55813 0.7724 0.19078 0.0
C28 C 0.05822 0.90421 0.9862 0.0
O29 O 0.03255 0.88968 0.90592 0.0
Cd30 Cd -0.02894 0.81258 0.87119 0.0
O31 O 0.05475 0.87604 0.05944 0.0
Cd32 Cd 0.01347 0.78729 0.09252 0.0
C33 C 0.04494 0.76822 0.8577 0.0
O34 O -0.06047 0.77833 0.03474 0.0
O35 O -0.06149 0.71256 0.04713 0.0
O36 O 0.02016 0.78198 0.28523 0.0
C37 C -0.0831 0.73422 0.02305 0.0
O38 O 0.01626 0.77788 0.81272 0.0
C39 C 0.04278 0.75966 0.28072 0.0
O40 O 0.05166 0.77205 0.95482 0.0
O41 O 0.0517 0.75057 0.19077 0.0
C42 C 0.08367 -0.04491 0.00294 0.0
O43 O 0.07253 -0.03038 0.08322 0.0
Cd44 Cd 0.08813 0.04671 0.11799 0.0
O45 O 0.10836 -0.01675 0.92966 0.0
Cd46 Cd 0.15582 0.072 0.89657 0.0
C47 C 0.20637 0.09107 0.13138 0.0
O48 O 0.09085 0.08096 0.95443 0.0
O49 O 0.15559 0.14674 0.94189 0.0
O50 O 0.16782 0.07731 0.70386 0.0
C51 C 0.11233 0.12507 0.9661 0.0
O52 O 0.16803 0.08141 0.17638 0.0
C53 C 0.21275 0.09962 0.70836 0.0
O54 O 0.20926 0.08725 0.03425 0.0
O55 O 0.23078 0.10872 0.7983 0.0
C56 C 0.86902 0.09342 0.00292 0.0
O57 O 0.85449 0.06774 0.08319 0.0
Cd58 Cd 0.7774 0.00625 0.11796 0.0
O59 O 0.84086 0.08994 0.92965 0.0
Cd60 Cd 0.75211 0.04866 0.89655 0.0
C61 C 0.73304 0.08013 0.13138 0.0
O62 O 0.74315 -0.02528 0.9544 0.0
O63 O 0.67737 -0.02631 0.94188 0.0
O64 O 0.7468 0.05534 0.70384 0.0
C65 C 0.69904 -0.0479 0.96609 0.0
O66 O 0.7427 0.05145 0.17637 0.0
C67 C 0.72448 0.07796 0.70835 0.0
O68 O 0.73686 0.08684 0.03425 0.0
O69 O 0.71539 0.08689 0.7983 0.0
C70 C 0.73069 0.74044 0.00292 0.0
O71 O 0.75636 0.75158 0.0832 0.0
Cd72 Cd 0.81785 0.73599 0.11797 0.0
O73 O 0.73417 0.71575 0.92965 0.0
Cd74 Cd 0.77545 0.66829 0.89656 0.0
C75 C 0.74398 0.61775 0.13138 0.0
O76 O 0.84938 0.73326 0.95442 0.0
O77 O 0.85043 0.66852 0.94187 0.0
O78 O 0.76877 0.65629 0.70385 0.0
C79 C 0.87201 0.71177 0.9661 0.0
O80 O 0.77265 0.65608 0.17638 0.0
C81 C 0.74614 0.61135 0.70835 0.0
O82 O 0.73727 0.61485 0.03425 0.0
O83 O 0.73721 0.59333 0.7983 0.0
C84 C 0.58656 0.45217 0.31951 0.0
O85 O 0.6011 0.44104 0.23924 0.0
Cd86 Cd 0.6782 0.45665 0.20451 0.0
O87 O 0.61473 0.47688 0.39275 0.0
Cd88 Cd 0.70347 0.52435 0.42584 0.0
C89 C 0.72254 0.57488 0.19102 0.0
O90 O 0.71244 0.45937 0.36807 0.0
O91 O 0.77821 0.52413 0.38045 0.0
O92 O 0.70878 0.53635 0.61855 0.0
C93 C 0.75655 0.48085 0.35638 0.0
O94 O 0.71289 0.53654 0.14604 0.0
C95 C 0.73111 0.58129 0.61404 0.0
O96 O 0.71871 0.57778 0.28815 0.0
O97 O 0.74021 0.59931 0.5241 0.0
C98 C 0.37194 0.09922 0.31951 0.0
O99 O 0.38308 0.12489 0.23923 0.0
Cd100 Cd 0.36746 0.18638 0.20449 0.0
O101 O 0.34723 0.10269 0.39275 0.0
Cd102 Cd 0.29976 0.14396 0.42583 0.0
C103 C 0.24923 0.11249 0.19102 0.0
O104 O 0.36474 0.21791 0.36805 0.0
O105 O 0.29998 0.21893 0.38046 0.0
O106 O 0.28776 0.13728 0.61854 0.0
C107 C 0.34325 0.24054 0.35637 0.0
O108 O 0.28757 0.14118 0.14603 0.0
C109 C 0.24282 0.11466 0.61404 0.0
O110 O 0.24633 0.10577 0.28814 0.0
O111 O 0.2248 0.10573 0.5241 0.0
C112 C 0.72489 0.23755 0.31953 0.0
O113 O 0.69921 0.22301 0.23926 0.0
Cd114 Cd 0.63773 0.14592 0.20452 0.0
O115 O 0.72142 0.20937 0.39277 0.0
Cd116 Cd 0.68014 0.12063 0.42585 0.0
C117 C 0.71161 0.10157 0.19102 0.0
O118 O 0.60619 0.11166 0.36808 0.0
O119 O 0.60518 0.04589 0.38046 0.0
O120 O 0.68683 0.11531 0.61856 0.0
C121 C 0.58357 0.06755 0.35639 0.0
O122 O 0.68293 0.11122 0.14605 0.0
C123 C 0.70945 0.093 0.61405 0.0
O124 O 0.71833 0.10539 0.28815 0.0
O125 O 0.71837 0.0839 0.5241 0.0
C126 C 0.75034 0.28842 0.33628 0.0
O127 O 0.73919 0.30295 0.41656 0.0
Cd128 Cd 0.75479 0.38004 0.45132 0.0
O129 O 0.77502 0.31658 0.263 0.0
Cd130 Cd 0.82249 0.40533 0.2299 0.0
C131 C 0.87303 0.42441 0.46472 0.0
O132 O 0.75752 0.41429 0.28777 0.0
O133 O 0.82226 0.48008 0.27522 0.0
O134 O 0.83448 0.41064 0.03719 0.0
C135 C 0.779 0.4584 0.29944 0.0
O136 O 0.8347 0.41474 0.50972 0.0
C137 C 0.87942 0.43296 0.04169 0.0
O138 O 0.87593 0.42058 0.36759 0.0
O139 O -0.10255 0.44205 0.13163 0.0
C140 C 0.53569 0.42675 0.33626 0.0
O141 O 0.52115 0.40107 0.41653 0.0
Cd142 Cd 0.44406 0.33958 0.45129 0.0
O143 O 0.50752 0.42327 0.26298 0.0
Cd144 Cd 0.41878 0.38199 0.22988 0.0
C145 C 0.3997 0.41346 0.46471 0.0
O146 O 0.40981 0.30806 0.28773 0.0
O147 O 0.34403 0.30702 0.27521 0.0
O148 O 0.41347 0.38867 0.03717 0.0
C149 C 0.36571 0.28544 0.29942 0.0
O150 O 0.40936 0.38478 0.5097 0.0
C151 C 0.39115 0.4113 0.04168 0.0
O152 O 0.40352 0.42017 0.36758 0.0
O153 O 0.38205 0.42023 0.13163 0.0
C154 C 0.39736 0.07378 0.33626 0.0
O155 O 0.42303 0.08492 0.41654 0.0
Cd156 Cd 0.48452 0.06932 0.45131 0.0
O157 O 0.40084 0.04909 0.26299 0.0
Cd158 Cd 0.44212 0.00162 0.22989 0.0
C159 C 0.41065 -0.04892 0.46471 0.0
O160 O 0.51605 0.06659 0.28775 0.0
O161 O 0.5171 0.00185 0.2752 0.0
O162 O 0.43544 -0.01037 0.03718 0.0
C163 C 0.53868 0.04511 0.29943 0.0
O164 O 0.43932 -0.01059 0.50971 0.0
C165 C 0.41281 -0.05531 0.04169 0.0
O166 O 0.40394 -0.05181 0.36759 0.0
O167 O 0.40388 0.92666 0.13163 0.0
C168 C 0.25322 0.78551 0.65285 0.0
O169 O 0.26776 0.77437 0.57257 0.0
Cd170 Cd 0.34486 0.78998 0.53784 0.0
O171 O 0.2814 0.81022 0.72609 0.0
Cd172 Cd 0.37014 0.85769 0.75917 0.0
C173 C 0.38921 0.90821 0.52436 0.0
O174 O 0.37911 0.7927 0.7014 0.0
O175 O 0.44488 0.85746 0.71379 0.0
O176 O 0.37545 0.86968 0.95188 0.0
C177 C 0.42322 0.81419 0.68972 0.0
O178 O 0.37956 0.86988 0.47938 0.0
C179 C 0.39777 0.91462 0.94738 0.0
O180 O 0.38538 0.91111 0.62148 0.0
O181 O 0.40687 -0.06736 0.85743 0.0
C182 C 0.0386 0.43256 0.65284 0.0
O183 O 0.04974 0.45823 0.57256 0.0
Cd184 Cd 0.03413 0.51971 0.53783 0.0
O185 O 0.01389 0.43602 0.72608 0.0
Cd186 Cd -0.03358 0.4773 0.75917 0.0
C187 C -0.0841 0.44583 0.52435 0.0
O188 O 0.0314 0.55125 0.70139 0.0
O189 O -0.03335 0.55226 0.7138 0.0
O190 O -0.04557 0.47061 0.95187 0.0
C191 C 0.00992 0.57387 0.6897 0.0
O192 O -0.04577 0.47452 0.47937 0.0
C193 C -0.09051 0.44799 0.94738 0.0
O194 O -0.087 0.43911 0.62148 0.0
O195 O 0.89146 0.43907 0.85744 0.0
C196 C 0.39155 0.57088 0.65286 0.0
O197 O 0.36588 0.55635 0.57259 0.0
Cd198 Cd 0.30439 0.47925 0.53785 0.0
O199 O 0.38808 0.5427 0.7261 0.0
Cd200 Cd 0.34681 0.45396 0.75918 0.0
C201 C 0.37828 0.4349 0.52435 0.0
O202 O 0.27286 0.44499 0.70141 0.0
O203 O 0.27185 0.37922 0.7138 0.0
O204 O 0.35349 0.44865 0.95189 0.0
C205 C 0.25024 0.40088 0.68972 0.0
O206 O 0.34959 0.44455 0.47938 0.0
C207 C 0.37611 0.42633 0.94738 0.0
O208 O 0.385 0.43872 0.62148 0.0
O209 O 0.38504 0.41723 0.85743 0.0
C210 C 0.417 0.62175 0.66961 0.0
O211 O 0.40585 0.63628 0.74989 0.0
Cd212 Cd 0.42145 0.71337 0.78465 0.0
O213 O 0.44169 0.64992 0.59634 0.0
Cd214 Cd 0.48916 0.73866 0.56324 0.0
C215 C 0.53969 0.75772 0.79806 0.0
O216 O 0.42418 0.74763 0.6211 0.0
O217 O 0.48893 0.81341 0.60856 0.0
O218 O 0.50115 0.74397 0.37053 0.0
C219 C 0.44567 0.79173 0.63277 0.0
O220 O 0.50135 0.74807 0.84306 0.0
C221 C 0.54609 0.76629 0.37503 0.0
O222 O 0.54259 0.75391 0.70093 0.0
O223 O 0.56411 0.77539 0.46497 0.0
C224 C 0.20235 0.76008 0.66959 0.0
O225 O 0.18782 0.7344 0.74986 0.0
Cd226 Cd 0.11073 0.67291 0.78462 0.0
O227 O 0.17419 0.75661 0.59632 0.0
Cd228 Cd 0.08544 0.71533 0.56322 0.0
C229 C 0.06638 0.7468 0.79805 0.0
O230 O 0.07648 0.64139 0.62107 0.0
O231 O 0.0107 0.64035 0.60855 0.0
O232 O 0.08013 0.72201 0.37051 0.0
C233 C 0.03237 0.61877 0.63275 0.0
O234 O 0.07603 0.71812 0.84304 0.0
C235 C 0.05781 0.74463 0.37502 0.0
O236 O 0.07019 0.75351 0.70093 0.0
O237 O 0.04872 0.75356 0.46497 0.0
C238 C 0.06403 0.40711 0.66959 0.0
O239 O 0.0897 0.41826 0.74987 0.0
Cd240 Cd 0.15119 0.40266 0.78464 0.0
O241 O 0.06751 0.38242 0.59632 0.0
Cd242 Cd 0.10879 0.33495 0.56323 0.0
C243 C 0.07731 0.28442 0.79806 0.0
O244 O 0.18272 0.39992 0.62108 0.0
O245 O 0.18376 0.33518 0.60854 0.0
O246 O 0.1021 0.32296 0.37052 0.0
C247 C 0.20534 0.37844 0.63276 0.0
O248 O 0.10599 0.32276 0.84305 0.0
C249 C 0.07948 0.27802 0.37503 0.0
O250 O 0.0706 0.28152 0.70093 0.0
O251 O 0.07055 0.25999 0.46497 0.0
loop_
_geom_bond_atom_site_label_1
_geom_bond_atom_site_label_2
_geom_bond_distance
_geom_bond_site_symmetry_2
_ccdc_geom_bond_type
C0 O1 1.306 1_554 S
C0 O3 1.160 . S
O1 C0 1.306 1_556 S
O1 Cd2 2.228 . S
Cd2 O1 2.228 . S
Cd2 O6 2.273 1_556 S
Cd2 O10 2.277 . S
O3 C0 1.160 . S
O3 Cd4 2.203 . S
Cd4 O3 2.203 . S
Cd4 O6 2.411 . S
Cd4 O7 2.333 . S
Cd4 O8 2.352 . S
Cd4 O12 2.277 1_554 S
Cd4 O13 2.356 . S
C5 O10 1.209 . S
C5 O12 1.226 . S
O6 Cd2 2.273 1_554 S
O6 Cd4 2.411 . S
O6 C9 1.320 . S
O7 Cd4 2.333 . S
O7 C9 1.214 . S
O8 Cd4 2.352 . S
O8 C11 1.258 . S
C9 O6 1.320 . S
C9 O7 1.214 . S
O10 Cd2 2.277 . S
O10 C5 1.209 . S
C11 O8 1.258 . S
C11 O13 1.282 . S
O12 Cd4 2.277 1_556 S
O12 C5 1.226 . S
O13 Cd4 2.356 . S
O13 C11 1.282 . S
C14 O15 1.306 1_554 S
C14 O17 1.160 . S
O15 C14 1.306 1_556 S
O15 Cd16 2.228 . S
Cd16 O15 2.228 . S
Cd16 O20 2.273 1_556 S
Cd16 O24 2.277 . S
O17 C14 1.160 . S
O17 Cd18 2.203 . S
Cd18 O17 2.203 . S
Cd18 O20 2.411 . S
Cd18 O21 2.333 . S
Cd18 O22 2.352 . S
Cd18 O26 2.277 1_554 S
Cd18 O27 2.356 . S
C19 O24 1.209 . S
C19 O26 1.226 . S
O20 Cd16 2.273 1_554 S
O20 Cd18 2.411 . S
O20 C23 1.320 . S
O21 Cd18 2.333 . S
O21 C23 1.214 . S
O22 Cd18 2.352 . S
O22 C25 1.258 . S
C23 O20 1.320 . S
C23 O21 1.214 . S
O24 Cd16 2.277 . S
O24 C19 1.209 . S
C25 O22 1.258 . S
C25 O27 1.282 . S
O26 Cd18 2.277 1_556 S
O26 C19 1.226 . S
O27 Cd18 2.356 . S
O27 C25 1.282 . S
C28 O29 1.306 1_554 S
C28 O31 1.160 . S
O29 C28 1.306 1_556 S
O29 Cd30 2.228 . S
Cd30 O29 2.228 . S
Cd30 O34 2.273 1_556 S
Cd30 O38 2.277 . S
O31 C28 1.160 . S
O31 Cd32 2.203 . S
Cd32 O31 2.203 . S
Cd32 O34 2.411 . S
Cd32 O35 2.333 . S
Cd32 O36 2.352 . S
Cd32 O40 2.277 1_554 S
Cd32 O41 2.356 . S
C33 O38 1.209 . S
C33 O40 1.226 . S
O34 Cd30 2.273 1_554 S
O34 Cd32 2.411 . S
O34 C37 1.320 . S
O35 Cd32 2.333 . S
O35 C37 1.214 . S
O36 Cd32 2.352 . S
O36 C39 1.258 . S
C37 O34 1.320 . S
C37 O35 1.214 . S
O38 Cd30 2.277 . S
O38 C33 1.209 . S
C39 O36 1.258 . S
C39 O41 1.282 . S
O40 Cd32 2.277 1_556 S
O40 C33 1.226 . S
O41 Cd32 2.356 . S
O41 C39 1.282 . S
C42 O43 1.306 1_556 S
C42 O45 1.160 . S
O43 C42 1.306 1_554 S
O43 Cd44 2.228 . S
Cd44 O43 2.228 . S
Cd44 O48 2.273 1_554 S
Cd44 O52 2.277 . S
O45 C42 1.160 . S
O45 Cd46 2.203 . S
Cd46 O45 2.203 . S
Cd46 O48 2.411 . S
Cd46 O49 2.333 . S
Cd46 O50 2.352 . S
Cd46 O54 2.277 1_556 S
Cd46 O55 2.356 . S
C47 O52 1.209 . S
C47 O54 1.226 . S
O48 Cd44 2.273 1_556 S
O48 Cd46 2.411 . S
O48 C51 1.320 . S
O49 Cd46 2.333 . S
O49 C51 1.214 . S
O50 Cd46 2.352 . S
O50 C53 1.258 . S
C51 O48 1.320 . S
C51 O49 1.214 . S
O52 Cd44 2.277 . S
O52 C47 1.209 . S
C53 O50 1.258 . S
C53 O55 1.282 . S
O54 Cd46 2.277 1_554 S
O54 C47 1.226 . S
O55 Cd46 2.356 . S
O55 C53 1.282 . S
C56 O57 1.306 1_556 S
C56 O59 1.160 . S
O57 C56 1.306 1_554 S
O57 Cd58 2.228 . S
Cd58 O57 2.228 . S
Cd58 O62 2.273 1_554 S
Cd58 O66 2.277 . S
O59 C56 1.160 . S
O59 Cd60 2.203 . S
Cd60 O59 2.203 . S
Cd60 O62 2.411 . S
Cd60 O63 2.333 . S
Cd60 O64 2.352 . S
Cd60 O68 2.277 1_556 S
Cd60 O69 2.356 . S
C61 O66 1.209 . S
C61 O68 1.226 . S
O62 Cd58 2.273 1_556 S
O62 Cd60 2.411 . S
O62 C65 1.320 . S
O63 Cd60 2.333 . S
O63 C65 1.214 . S
O64 Cd60 2.352 . S
O64 C67 1.258 . S
C65 O62 1.320 . S
C65 O63 1.214 . S
O66 Cd58 2.277 . S
O66 C61 1.209 . S
C67 O64 1.258 . S
C67 O69 1.282 . S
O68 Cd60 2.277 1_554 S
O68 C61 1.226 . S
O69 Cd60 2.356 . S
O69 C67 1.282 . S
C70 O71 1.306 1_556 S
C70 O73 1.160 . S
O71 C70 1.306 1_554 S
O71 Cd72 2.228 . S
Cd72 O71 2.228 . S
Cd72 O76 2.273 1_554 S
Cd72 O80 2.277 . S
O73 C70 1.160 . S
O73 Cd74 2.203 . S
Cd74 O73 2.203 . S
Cd74 O76 2.411 . S
Cd74 O77 2.333 . S
Cd74 O78 2.352 . S
Cd74 O82 2.277 1_556 S
Cd74 O83 2.356 . S
C75 O80 1.209 . S
C75 O82 1.226 . S
O76 Cd72 2.273 1_556 S
O76 Cd74 2.411 . S
O76 C79 1.320 . S
O77 Cd74 2.333 . S
O77 C79 1.214 . S
O78 Cd74 2.352 . S
O78 C81 1.258 . S
C79 O76 1.320 . S
C79 O77 1.214 . S
O80 Cd72 2.277 . S
O80 C75 1.209 . S
C81 O78 1.258 . S
C81 O83 1.282 . S
O82 Cd74 2.277 1_554 S
O82 C75 1.226 . S
O83 Cd74 2.356 . S
O83 C81 1.282 . S
C84 O85 1.306 . S
C84 O87 1.160 . S
O85 C84 1.306 . S
O85 Cd86 2.228 . S
Cd86 O85 2.228 . S
Cd86 O90 2.273 . S
Cd86 O94 2.277 . S
O87 C84 1.160 . S
O87 Cd88 2.203 . S
Cd88 O87 2.203 . S
Cd88 O90 2.411 . S
Cd88 O91 2.333 . S
Cd88 O92 2.352 . S
Cd88 O96 2.277 . S
Cd88 O97 2.356 . S
C89 O94 1.209 . S
C89 O96 1.226 . S
O90 Cd86 2.273 . S
O90 Cd88 2.411 . S
O90 C93 1.320 . S
O91 Cd88 2.333 . S
O91 C93 1.214 . S
O92 Cd88 2.352 . S
O92 C95 1.258 . S
C93 O90 1.320 . S
C93 O91 1.214 . S
O94 Cd86 2.277 . S
O94 C89 1.209 . S
C95 O92 1.258 . S
C95 O97 1.282 . S
O96 Cd88 2.277 . S
O96 C89 1.226 . S
O97 Cd88 2.356 . S
O97 C95 1.282 . S
C98 O99 1.306 . S
C98 O101 1.160 . S
O99 C98 1.306 . S
O99 Cd100 2.228 . S
Cd100 O99 2.228 . S
Cd100 O104 2.273 . S
Cd100 O108 2.277 . S
O101 C98 1.160 . S
O101 Cd102 2.203 . S
Cd102 O101 2.203 . S
Cd102 O104 2.411 . S
Cd102 O105 2.333 . S
Cd102 O106 2.352 . S
Cd102 O110 2.277 . S
Cd102 O111 2.356 . S
C103 O108 1.209 . S
C103 O110 1.226 . S
O104 Cd100 2.273 . S
O104 Cd102 2.411 . S
O104 C107 1.320 . S
O105 Cd102 2.333 . S
O105 C107 1.214 . S
O106 Cd102 2.352 . S
O106 C109 1.258 . S
C107 O104 1.320 . S
C107 O105 1.214 . S
O108 Cd100 2.277 . S
O108 C103 1.209 . S
C109 O106 1.258 . S
C109 O111 1.282 . S
O110 Cd102 2.277 . S
O110 C103 1.226 . S
O111 Cd102 2.356 . S
O111 C109 1.282 . S
C112 O113 1.306 . S
C112 O115 1.160 . S
O113 C112 1.306 . S
O113 Cd114 2.228 . S
Cd114 O113 2.228 . S
Cd114 O118 2.273 . S
Cd114 O122 2.277 . S
O115 C112 1.160 . S
O115 Cd116 2.203 . S
Cd116 O115 2.203 . S
Cd116 O118 2.411 . S
Cd116 O119 2.333 . S
Cd116 O120 2.352 . S
Cd116 O124 2.277 . S
Cd116 O125 2.356 . S
C117 O122 1.209 . S
C117 O124 1.226 . S
O118 Cd114 2.273 . S
O118 Cd116 2.411 . S
O118 C121 1.320 . S
O119 Cd116 2.333 . S
O119 C121 1.214 . S
O120 Cd116 2.352 . S
O120 C123 1.258 . S
C121 O118 1.320 . S
C121 O119 1.214 . S
O122 Cd114 2.277 . S
O122 C117 1.209 . S
C123 O120 1.258 . S
C123 O125 1.282 . S
O124 Cd116 2.277 . S
O124 C117 1.226 . S
O125 Cd116 2.356 . S
O125 C123 1.282 . S
C126 O127 1.306 . S
C126 O129 1.160 . S
O127 C126 1.306 . S
O127 Cd128 2.228 . S
Cd128 O127 2.228 . S
Cd128 O132 2.273 . S
Cd128 O136 2.277 . S
O129 C126 1.160 . S
O129 Cd130 2.203 . S
Cd130 O129 2.203 . S
Cd130 O132 2.411 . S
Cd130 O133 2.333 . S
Cd130 O134 2.352 . S
Cd130 O138 2.277 1_655 S
Cd130 O139 2.356 1_655 S
C131 O136 1.209 . S
C131 O138 1.226 1_655 S
O132 Cd128 2.273 . S
O132 Cd130 2.411 . S
O132 C135 1.320 . S
O133 Cd130 2.333 . S
O133 C135 1.214 . S
O134 Cd130 2.352 . S
O134 C137 1.258 . S
C135 O132 1.320 . S
C135 O133 1.214 . S
O136 Cd128 2.277 . S
O136 C131 1.209 . S
C137 O134 1.258 . S
C137 O139 1.282 1_655 S
O138 Cd130 2.277 1_455 S
O138 C131 1.226 1_455 S
O139 Cd130 2.356 1_455 S
O139 C137 1.282 1_455 S
C140 O141 1.306 . S
C140 O143 1.160 . S
O141 C140 1.306 . S
O141 Cd142 2.228 . S
Cd142 O141 2.228 . S
Cd142 O146 2.273 . S
Cd142 O150 2.277 . S
O143 C140 1.160 . S
O143 Cd144 2.203 . S
Cd144 O143 2.203 . S
Cd144 O146 2.411 . S
Cd144 O147 2.333 . S
Cd144 O148 2.352 . S
Cd144 O152 2.277 . S
Cd144 O153 2.356 . S
C145 O150 1.209 . S
C145 O152 1.226 . S
O146 Cd142 2.273 . S
O146 Cd144 2.411 . S
O146 C149 1.320 . S
O147 Cd144 2.333 . S
O147 C149 1.214 . S
O148 Cd144 2.352 . S
O148 C151 1.258 . S
C149 O146 1.320 . S
C149 O147 1.214 . S
O150 Cd142 2.277 . S
O150 C145 1.209 . S
C151 O148 1.258 . S
C151 O153 1.282 . S
O152 Cd144 2.277 . S
O152 C145 1.226 . S
O153 Cd144 2.356 . S
O153 C151 1.282 . S
C154 O155 1.306 . S
C154 O157 1.160 . S
O155 C154 1.306 . S
O155 Cd156 2.228 . S
Cd156 O155 2.228 . S
Cd156 O160 2.273 . S
Cd156 O164 2.277 . S
O157 C154 1.160 . S
O157 Cd158 2.203 . S
Cd158 O157 2.203 . S
Cd158 O160 2.411 . S
Cd158 O161 2.333 . S
Cd158 O162 2.352 . S
Cd158 O166 2.277 1_545 S
Cd158 O167 2.356 1_545 S
C159 O164 1.209 . S
C159 O166 1.226 1_545 S
O160 Cd156 2.273 . S
O160 Cd158 2.411 . S
O160 C163 1.320 . S
O161 Cd158 2.333 . S
O161 C163 1.214 . S
O162 Cd158 2.352 . S
O162 C165 1.258 . S
C163 O160 1.320 . S
C163 O161 1.214 . S
O164 Cd156 2.277 . S
O164 C159 1.209 . S
C165 O162 1.258 . S
C165 O167 1.282 1_545 S
O166 Cd158 2.277 1_565 S
O166 C159 1.226 1_565 S
O167 Cd158 2.356 1_565 S
O167 C165 1.282 1_565 S
C168 O169 1.306 . S
C168 O171 1.160 . S
O169 C168 1.306 . S
O169 Cd170 2.228 . S
Cd170 O169 2.228 . S
Cd170 O174 2.273 . S
Cd170 O178 2.277 . S
O171 C168 1.160 . S
O171 Cd172 2.203 . S
Cd172 O171 2.203 . S
Cd172 O174 2.411 . S
Cd172 O175 2.333 . S
Cd172 O176 2.352 . S
Cd172 O180 2.277 1_565 S
Cd172 O181 2.356 1_565 S
C173 O178 1.209 . S
C173 O180 1.226 1_565 S
O174 Cd170 2.273 . S
O174 Cd172 2.411 . S
O174 C177 1.320 . S
O175 Cd172 2.333 . S
O175 C177 1.214 . S
O176 Cd172 2.352 . S
O176 C179 1.258 . S
C177 O174 1.320 . S
C177 O175 1.214 . S
O178 Cd170 2.277 . S
O178 C173 1.209 . S
C179 O176 1.258 . S
C179 O181 1.282 1_565 S
O180 Cd172 2.277 1_545 S
O180 C173 1.226 1_545 S
O181 Cd172 2.356 1_545 S
O181 C179 1.282 1_545 S
C182 O183 1.306 . S
C182 O185 1.160 . S
O183 C182 1.306 . S
O183 Cd184 2.228 . S
Cd184 O183 2.228 . S
Cd184 O188 2.273 . S
Cd184 O192 2.277 . S
O185 C182 1.160 . S
O185 Cd186 2.203 . S
Cd186 O185 2.203 . S
Cd186 O188 2.411 . S
Cd186 O189 2.333 . S
Cd186 O190 2.352 . S
Cd186 O194 2.277 1_455 S
Cd186 O195 2.356 1_455 S
C187 O192 1.209 . S
C187 O194 1.226 1_455 S
O188 Cd184 2.273 . S
O188 Cd186 2.411 . S
O188 C191 1.320 . S
O189 Cd186 2.333 . S
O189 C191 1.214 . S
O190 Cd186 2.352 . S
O190 C193 1.258 . S
C191 O188 1.320 . S
C191 O189 1.214 . S
O192 Cd184 2.277 . S
O192 C187 1.209 . S
C193 O190 1.258 . S
C193 O195 1.282 1_455 S
O194 Cd186 2.277 1_655 S
O194 C187 1.226 1_655 S
O195 Cd186 2.356 1_655 S
O195 C193 1.282 1_655 S
C196 O197 1.306 . S
C196 O199 1.160 . S
O197 C196 1.306 . S
O197 Cd198 2.228 . S
Cd198 O197 2.228 . S
Cd198 O202 2.273 . S
Cd198 O206 2.277 . S
O199 C196 1.160 . S
O199 Cd200 2.203 . S
Cd200 O199 2.203 . S
Cd200 O202 2.411 . S
Cd200 O203 2.333 . S
Cd200 O204 2.352 . S
Cd200 O208 2.277 . S
Cd200 O209 2.356 . S
C201 O206 1.209 . S
C201 O208 1.226 . S
O202 Cd198 2.273 . S
O202 Cd200 2.411 . S
O202 C205 1.320 . S
O203 Cd200 2.333 . S
O203 C205 1.214 . S
O204 Cd200 2.352 . S
O204 C207 1.258 . S
C205 O202 1.320 . S
C205 O203 1.214 . S
O206 Cd198 2.277 . S
O206 C201 1.209 . S
C207 O204 1.258 . S
C207 O209 1.282 . S
O208 Cd200 2.277 . S
O208 C201 1.226 . S
O209 Cd200 2.356 . S
O209 C207 1.282 . S
C210 O211 1.306 . S
C210 O213 1.160 . S
O211 C210 1.306 . S
O211 Cd212 2.228 . S
Cd212 O211 2.228 . S
Cd212 O216 2.273 . S
Cd212 O220 2.277 . S
O213 C210 1.160 . S
O213 Cd214 2.203 . S
Cd214 O213 2.203 . S
Cd214 O216 2.411 . S
Cd214 O217 2.333 . S
Cd214 O218 2.352 . S
Cd214 O222 2.277 . S
Cd214 O223 2.356 . S
C215 O220 1.209 . S
C215 O222 1.226 . S
O216 Cd212 2.273 . S
O216 Cd214 2.411 . S
O216 C219 1.320 . S
O217 Cd214 2.333 . S
O217 C219 1.214 . S
O218 Cd214 2.352 . S
O218 C221 1.258 . S
C219 O216 1.320 . S
C219 O217 1.214 . S
O220 Cd212 2.277 . S
O220 C215 1.209 . S
C221 O218 1.258 . S
C221 O223 1.282 . S
O222 Cd214 2.277 . S
O222 C215 1.226 . S
O223 Cd214 2.356 . S
O223 C221 1.282 . S
C224 O225 1.306 . S
C224 O227 1.160 . S
O225 C224 1.306 . S
O225 Cd226 2.228 . S
Cd226 O225 2.228 . S
Cd226 O230 2.273 . S
Cd226 O234 2.277 . S
O227 C224 1.160 . S
O227 Cd228 2.203 . S
Cd228 O227 2.203 . S
Cd228 O230 2.411 . S
Cd228 O231 2.333 . S
Cd228 O232 2.352 . S
Cd228 O236 2.277 . S
Cd228 O237 2.356 . S
C229 O234 1.209 . S
C229 O236 1.226 . S
O230 Cd226 2.273 . S
O230 Cd228 2.411 . S
O230 C233 1.320 . S
O231 Cd228 2.333 . S
O231 C233 1.214 . S
O232 Cd228 2.352 . S
O232 C235 1.258 . S
C233 O230 1.320 . S
C233 O231 1.214 . S
O234 Cd226 2.277 . S
O234 C229 1.209 . S
C235 O232 1.258 . S
C235 O237 1.282 . S
O236 Cd228 2.277 . S
O236 C229 1.226 . S
O237 Cd228 2.356 . S
O237 C235 1.282 . S
C238 O239 1.306 . S
C238 O241 1.160 . S
O239 C238 1.306 . S
O239 Cd240 2.228 . S
Cd240 O239 2.228 . S
Cd240 O244 2.273 . S
Cd240 O248 2.277 . S
O241 C238 1.160 . S
O241 Cd242 2.203 . S
Cd242 O241 2.203 . S
Cd242 O244 2.411 . S
Cd242 O245 2.333 . S
Cd242 O246 2.352 . S
Cd242 O250 2.277 . S
Cd242 O251 2.356 . S
C243 O248 1.209 . S
C243 O250 1.226 . S
O244 Cd240 2.273 . S
O244 Cd242 2.411 . S
O244 C247 1.320 . S
O245 Cd242 2.333 . S
O245 C247 1.214 . S
O246 Cd242 2.352 . S
O246 C249 1.258 . S
C247 O244 1.320 . S
C247 O245 1.214 . S
O248 Cd240 2.277 . S
O248 C243 1.209 . S
C249 O246 1.258 . S
C249 O251 1.282 . S
O250 Cd242 2.277 . S
O250 C243 1.226 . S
O251 Cd242 2.356 . S
O251 C249 1.282 . S
C249 C11 1.759 . S
C221 C25 1.759 . S
C235 C39 1.759 . S
C109 C53 1.759 . S
C123 C67 1.759 . S
C81 C95 1.759 . S
C137 C193 1.759 1_654 S
C151 C207 1.759 1_554 S
C165 C179 1.759 1_544 S
C5 C243 0.723 . S
C215 C19 0.723 . S
C33 C229 0.723 . S
C103 C47 0.723 . S
C61 C117 0.723 . S
C75 C89 0.723 . S
C131 C187 0.723 1_655 S
C201 C145 0.723 . S
C173 C159 0.723 1_565 S
C9 C51 1.836 1_554 S
C65 C23 1.836 1_546 S
C79 C37 1.836 1_656 S
C70 C14 1.612 1_556 S
C28 C42 1.612 1_564 S
C56 C0 1.612 1_656 S
C93 C135 1.836 . S
C149 C107 1.836 . S
C163 C121 1.836 . S
C154 C98 1.612 . S
C112 C126 1.612 . S
C140 C84 1.612 . S
C219 C177 1.836 . S
C233 C191 1.837 . S
C205 C247 1.836 . S
C238 C182 1.611 . S
C196 C210 1.612 . S
C224 C168 1.612 . S
