# Generated by pormake.
# Topology sxc, (6)-cn, num edge types: 1
# Building blocks:
#     Node 0, Type 0, BuildingBlock: PAMTUU_clean_sbu_0, # of connection points: 6
#     Node 1, Type 0, BuildingBlock: PAMTUU_clean_sbu_0, # of connection points: 6
#     Node 2, Type 0, BuildingBlock: PAMTUU_clean_sbu_0, # of connection points: 6
#     Edge 3, Type (0, 0), BuildingBlock: CIFDUS_clean_linker_0, # of connection points: 2
#     Edge 4, Type (0, 0), BuildingBlock: CIFDUS_clean_linker_0, # of connection points: 2
#     Edge 5, Type (0, 0), BuildingBlock: CIFDUS_clean_linker_0, # of connection points: 2
#     Edge 6, Type (0, 0), BuildingBlock: CIFDUS_clean_linker_0, # of connection points: 2
#     Edge 7, Type (0, 0), BuildingBlock: CIFDUS_clean_linker_0, # of connection points: 2
#     Edge 8, Type (0, 0), BuildingBlock: CIFDUS_clean_linker_0, # of connection points: 2
#     Edge 9, Type (0, 0), BuildingBlock: CIFDUS_clean_linker_0, # of connection points: 2
#     Edge 10, Type (0, 0), BuildingBlock: CIFDUS_clean_linker_0, # of connection points: 2
#     Edge 11, Type (0, 0), BuildingBlock: CIFDUS_clean_linker_0, # of connection points: 2
# Relax obj value: 0.419
# Max RMSD: 0.140
# Mean RMSD: 0.106
data_MOF--net-sxc--node1-PAMTUU_clean_sbu_0--edge1-CIFDUS_clean_linker_0
_symmetry_space_group_name_H-M    P1
_symmetry_Int_Tables_number       1
_symmetry_cell_setting            triclinic
loop_
_symmetry_equiv_pos_as_xyz
'x, y, z'
_cell_length_a     20.444578
_cell_length_b     14.114329
_cell_length_c     40.246705
_cell_angle_alpha  88.421306
_cell_angle_beta   97.122792
_cell_angle_gamma 128.90266
loop_
_atom_site_label
_atom_site_type_symbol
_atom_site_fract_x
_atom_site_fract_y
_atom_site_fract_z
_atom_type_partial_charge
Tb0 Tb 1.03124 0.1274 0.97226 0.0
Tb1 Tb 0.22911 0.28738 -0.00896 0.0
C2 C 0.15265 0.25025 0.9152 0.0
C3 C 0.82829 0.83943 0.97332 0.0
C4 C 0.78075 0.63157 0.00745 0.0
C5 C 0.77208 0.71397 0.02064 0.0
C6 C 0.7953 0.81634 0.00375 0.0
C7 C 0.83149 0.75263 0.95895 0.0
C8 C 0.80772 0.64949 0.97585 0.0
C9 C 0.87401 0.96267 0.96057 0.0
O10 O 1.0566 0.99283 0.97798 0.0
O11 O 0.20071 1.10934 0.98209 0.0
O12 O 0.16985 0.17631 0.0327 0.0
O13 O 1.05502 0.16631 0.02655 0.0
O14 O 0.32163 0.41938 0.02894 0.0
O15 O 0.35529 0.35962 -0.0098 0.0
O16 O 0.20424 0.42268 -0.0131 0.0
O17 O 1.06042 0.30803 0.97169 0.0
O18 O 1.07908 0.203 0.9249 0.0
O19 O 0.21898 0.28323 0.93647 0.0
C20 C 0.12523 1.00036 0.97927 0.0
O21 O 0.90993 1.05172 -0.01659 0.0
O22 O 0.92499 0.9896 0.93892 0.0
C23 C 1.11032 0.16459 0.04591 0.0
C24 C 0.41687 0.38313 0.04599 0.0
C25 C 0.4976 0.31934 0.09169 0.0
C26 C 0.41568 0.2284 0.07486 0.0
C27 C 0.37578 0.26012 0.05209 0.0
C28 C 0.49358 0.47422 0.06546 0.0
C29 C 0.53335 0.44293 0.08832 0.0
C30 C 0.37913 0.41623 0.01973 0.0
C31 C 0.13592 0.41605 0.97935 0.0
H32 H 0.74737 0.69955 0.04419 0.0
H33 H 0.79115 0.88049 0.01534 0.0
H34 H 0.85626 0.76713 0.93543 0.0
H35 H 0.8129 0.58586 0.96469 0.0
H36 H 0.38611 0.13284 0.07691 0.0
H37 H 0.31483 0.1883 0.03802 0.0
H38 H 0.52487 0.56962 0.0618 0.0
H39 H 0.59617 0.51666 0.10068 0.0
Tb40 Tb 0.19978 0.26086 0.3089 0.0
Tb41 Tb 1.00111 1.06545 0.31002 0.0
C42 C 0.12648 0.18704 0.37728 0.0
C43 C 0.39805 0.38475 0.27999 0.0
C44 C 0.46742 0.29973 0.2472 0.0
C45 C 0.51387 0.38197 0.27571 0.0
C46 C 0.47914 0.42377 0.29209 0.0
C47 C 0.35475 0.31066 0.24998 0.0
C48 C 0.389 0.26813 0.23376 0.0
C49 C 0.35347 0.40524 0.30089 0.0
O50 O 0.17989 1.08595 0.3155 0.0
O51 O 1.03481 0.9433 0.30483 0.0
O52 O 1.02032 0.13312 0.25975 0.0
O53 O 0.14195 0.16292 0.25991 0.0
O54 O 0.89406 0.98549 0.3344 0.0
O55 O 0.88176 0.92145 0.28417 0.0
O56 O 1.02461 0.24278 0.31586 0.0
O57 O 0.16142 0.37942 0.30441 0.0
O58 O 0.18378 0.27672 0.36041 0.0
O59 O 1.05822 1.08511 0.36162 0.0
C60 C 1.11019 0.9695 0.3103 0.0
O61 O 0.29579 0.4085 0.28449 0.0
O62 O 0.32611 0.33731 0.32647 0.0
C63 C 1.07562 0.14431 0.24318 0.0
C64 C 0.78677 0.95431 0.29431 0.0
C65 C 0.71008 1.04773 0.2619 0.0
C66 C 0.69005 0.93992 0.24878 0.0
C67 C 0.72876 0.89382 0.26483 0.0
C68 C 0.80165 1.05728 0.30844 0.0
C69 C 0.76389 1.10347 0.29235 0.0
C70 C 0.84268 0.92493 0.30679 0.0
C71 C 1.0903 0.35632 0.31029 0.0
H72 H 0.57414 0.4066 0.28684 0.0
H73 H 0.51327 0.48035 0.31526 0.0
H74 H 0.29228 0.27999 0.24002 0.0
H75 H 0.35224 0.20541 0.21177 0.0
H76 H 0.64741 0.89453 0.22556 0.0
H77 H 0.7166 0.81461 0.25341 0.0
H78 H 0.84578 1.10639 0.33112 0.0
H79 H 0.77814 0.1847 0.30344 0.0
Tb80 Tb 0.15264 0.26176 0.64637 0.0
Tb81 Tb 0.17017 0.13787 0.64828 0.0
C82 C 0.13286 0.17004 0.57772 0.0
C83 C 1.05206 0.39599 0.65872 0.0
C84 C 0.92752 0.37733 0.68829 0.0
C85 C 0.96544 0.4563 0.66236 0.0
C86 C 1.02748 0.46553 0.64767 0.0
C87 C 1.01779 0.32231 0.68574 0.0
C88 C 0.95655 0.31389 0.70062 0.0
C89 C 1.10798 0.39216 0.64055 0.0
O90 O 1.02591 1.0509 0.64914 0.0
O91 O 1.02105 1.03166 0.64961 0.0
O92 O 0.18688 0.14497 0.70303 0.0
O93 O 0.16614 0.28025 0.701 0.0
O94 O 0.22267 1.0831 0.62083 0.0
O95 O 0.17317 0.99952 0.6668 0.0
O96 O 0.2978 0.34927 0.64849 0.0
O97 O 0.30265 0.36783 0.64849 0.0
O98 O 0.17742 0.27514 0.59416 0.0
O99 O 1.10237 1.08006 0.59699 0.0
C100 C 0.94673 1.01831 0.64845 0.0
O101 O 0.17839 0.42674 0.65833 0.0
O102 O 1.07028 0.29099 0.6223 0.0
C103 C 0.18073 0.21666 0.71924 0.0
C104 C 0.29884 1.03752 0.65639 0.0
C105 C 0.45465 1.09465 0.68255 0.0
C106 C 0.38013 0.99987 0.69532 0.0
C107 C 0.30259 0.97174 0.68236 0.0
C108 C 0.37334 0.12959 0.64307 0.0
C109 C 0.45021 0.15781 0.65605 0.0
C110 C 0.21854 1.01371 0.64405 0.0
C111 C 0.37697 0.38158 0.64927 0.0
H112 H 0.94352 0.50503 0.65199 0.0
H113 H 1.05335 0.52251 0.62675 0.0
H114 H 1.03548 0.26707 0.69441 0.0
H115 H 0.92902 0.25326 0.72073 0.0
H116 H 0.38212 0.949 0.7155 0.0
H117 H 0.24583 0.89971 0.69284 0.0
H118 H 0.37288 0.18107 0.62272 0.0
H119 H 0.50636 0.22854 0.64502 0.0
H120 H 1.01283 0.45336 0.96982 0.0
H121 H 0.28335 0.656 -0.00974 0.0
H122 H 0.30503 0.84706 -0.00803 0.0
H123 H 0.24899 0.96403 -0.01205 0.0
H124 H 0.97871 0.76122 0.96807 0.0
H125 H 0.95679 0.57012 0.9661 0.0
C126 C 1.07688 0.53884 0.9746 0.0
C127 C 0.14616 0.53559 0.97979 0.0
C128 C 1.08962 0.65205 0.97577 0.0
C129 C 0.22789 0.651 -0.01395 0.0
C130 C 0.24064 0.76229 -0.01294 0.0
C131 C 0.18498 0.87846 -0.0169 0.0
C132 C 0.11556 0.88142 0.9782 0.0
C133 C 0.17229 0.76523 0.98199 0.0
C134 C 1.03396 0.76604 0.97214 0.0
C135 C 1.02121 0.65487 0.97091 0.0
H136 H 0.62342 0.3927 0.23333 0.0
H137 H 0.3712 1.05437 0.23614 0.0
H138 H 0.42306 0.93988 0.23321 0.0
H139 H 0.54473 0.94102 0.24289 0.0
H140 H 0.79792 0.28088 0.24408 0.0
H141 H 0.74152 0.38955 0.23181 0.0
C142 C 0.57971 0.29375 0.23236 0.0
C143 C 0.49428 0.23212 0.23554 0.0
C144 C 0.61046 0.22888 0.23188 0.0
C145 C 0.43749 1.10383 0.23372 0.0
C146 C 0.46722 1.03829 0.2324 0.0
C147 C 0.58698 1.03802 0.23923 0.0
C148 C 0.67497 1.10372 0.24494 0.0
C149 C 0.55426 1.10039 0.23337 0.0
C150 C 0.72975 0.22935 0.24022 0.0
C151 C 0.69764 0.29144 0.23337 0.0
H152 H 0.77523 0.95922 0.64727 0.0
H153 H 0.86287 0.74983 0.65174 0.0
H154 H 0.71503 0.56328 0.65238 0.0
H155 H 0.54885 0.44113 0.65148 0.0
H156 H 0.46117 0.65039 0.64708 0.0
H157 H 0.6091 0.83705 0.64674 0.0
C158 C 0.76486 0.87406 0.64841 0.0
C159 C 0.84343 0.88403 0.64941 0.0
C160 C 0.67253 0.75796 0.64877 0.0
C161 C 0.815 0.76108 0.65088 0.0
C162 C 0.72578 0.64874 0.65124 0.0
C163 C 0.5592 0.52623 0.6504 0.0
C164 C 0.48059 0.5162 0.64929 0.0
C165 C 0.65157 0.64235 0.65016 0.0
C166 C 0.50908 0.63918 0.648 0.0
C167 C 0.59834 0.75157 0.64777 0.0
H168 H 0.78405 0.15282 0.69702 0.0
H169 H 0.89565 0.53334 0.70138 0.0
H170 H 0.75731 0.4773 0.70613 0.0
H171 H 0.60279 0.31954 0.70011 0.0
H172 H 0.49111 0.93964 0.69217 0.0
H173 H 0.63242 0.99603 0.69929 0.0
C174 C 0.77888 0.22388 0.7002 0.0
C175 C 0.84969 0.34704 0.69854 0.0
C176 C 0.6992 0.19087 0.70217 0.0
C177 C 0.84162 0.43786 0.70211 0.0
C178 C 0.76271 0.40588 0.70484 0.0
C179 C 0.60973 0.24929 0.70065 0.0
C180 C 0.53733 0.12598 0.69511 0.0
C181 C 0.69069 0.28257 0.70348 0.0
C182 C 0.54628 1.03516 0.6964 0.0
C183 C 0.62691 1.06744 0.70013 0.0
H184 H 0.81585 0.6199 0.07413 0.0
H185 H 0.68339 0.39585 0.98157 0.0
H186 H 0.588 0.21883 0.01256 0.0
H187 H 0.51034 0.16331 0.06016 0.0
H188 H 0.62328 0.40577 0.1481 0.0
H189 H 0.76054 0.5315 0.12751 0.0
C190 C 0.76821 0.531 0.06095 0.0
C191 C 0.75317 0.52184 0.02564 0.0
C192 C 0.70935 0.43205 0.07874 0.0
C193 C 0.6944 0.40591 0.00873 0.0
C194 C 0.63931 0.30447 0.0265 0.0
C195 C 0.56615 0.24095 0.07553 0.0
C196 C 0.5555 0.2902 0.10229 0.0
C197 C 0.64046 0.3207 0.06084 0.0
C198 C 0.62882 0.37544 0.12493 0.0
C199 C 0.70709 0.44977 0.11266 0.0
H200 H 0.21464 0.61596 0.30915 0.0
H201 H 0.94656 0.3356 0.31124 0.0
H202 H 0.92752 0.49013 0.31082 0.0
H203 H 0.98548 0.70959 0.31019 0.0
H204 H 0.25436 0.99065 0.30991 0.0
H205 H 0.27289 0.83562 0.30935 0.0
C206 C 0.15171 0.58758 0.30954 0.0
C207 C 1.08218 0.45966 0.31022 0.0
C208 C 0.14076 0.67975 0.3097 0.0
C209 C 1.00206 0.43009 0.3108 0.0
C210 C 0.9909 0.52001 0.31054 0.0
C211 C 1.0485 0.73806 0.31003 0.0
C212 C 0.11832 0.8662 0.31014 0.0
C213 C 1.05952 0.64595 0.31006 0.0
C214 C 0.19864 0.89595 0.30999 0.0
C215 C 0.20953 0.8058 0.30962 0.0
H216 H 0.16615 0.1303 0.20242 0.0
H217 H 0.96164 0.14612 0.19946 0.0
H218 H 0.95126 0.149 0.13814 0.0
H219 H 1.00486 0.15542 0.08515 0.0
H220 H 0.21166 0.14302 0.09 0.0
H221 H 0.21671 0.13158 0.15047 0.0
C222 C 0.1195 0.13508 0.1885 0.0
C223 C 1.06553 0.13954 0.20575 0.0
C224 C 1.11435 0.13763 0.15334 0.0
C225 C 1.00427 0.14295 0.18697 0.0
C226 C 0.99844 0.1449 0.15184 0.0
C227 C 1.05059 0.14939 0.09942 0.0
C228 C 1.10787 0.15045 0.08274 0.0
C229 C 1.05375 0.14345 0.13469 0.0
C230 C 0.16677 0.14272 0.10185 0.0
C231 C 0.16988 0.13619 0.13661 0.0
H232 H 1.0385 1.01269 0.42207 0.0
H233 H 0.24157 0.3978 0.41699 0.0
H234 H 0.26 0.42719 0.4779 0.0
H235 H 0.21865 0.34433 0.53309 0.0
H236 H 1.01989 0.95835 0.53852 0.0
H237 H 0.99961 0.92896 0.47739 0.0
C238 C 1.08685 1.1031 0.43424 0.0
C239 C 0.1384 0.20278 0.41469 0.0
C240 C 1.09784 0.11947 0.46955 0.0
C241 C 0.20102 0.31906 0.43117 0.0
C242 C 0.21154 0.33619 0.46612 0.0
C243 C 0.1707 0.25387 0.52087 0.0
C244 C 0.12054 0.15381 0.54044 0.0
C245 C 0.16029 0.23723 0.48562 0.0
C246 C 1.05933 1.03704 0.52415 0.0
C247 C 1.04769 1.02012 0.48913 0.0
H248 H 0.1195 0.29327 0.75792 0.0
H249 H 0.25725 0.15417 0.76444 0.0
H250 H 0.26756 0.16251 0.82573 0.0
H251 H 0.23278 0.20247 0.87776 0.0
H252 H 1.08334 0.3228 0.87044 0.0
H253 H 1.0828 0.32978 0.80958 0.0
C254 C 0.15225 0.2655 0.77278 0.0
C255 C 0.18796 0.22373 0.75655 0.0
C256 C 0.15591 0.2674 0.80803 0.0
C257 C 0.22912 0.18653 0.77621 0.0
C258 C 0.23516 0.1915 0.81132 0.0
C259 C 0.20116 0.23178 0.86283 0.0
C260 C 0.15899 0.2635 0.87867 0.0
C261 C 0.19836 0.23108 0.82756 0.0
C262 C 0.11654 0.29849 0.8589 0.0
C263 C 0.11607 0.30223 0.82406 0.0
loop_
_geom_bond_atom_site_label_1
_geom_bond_atom_site_label_2
_geom_bond_distance
_geom_bond_site_symmetry_2
_ccdc_geom_bond_type
Tb0 C9 2.764 . S
Tb0 O10 2.325 . S
Tb0 O13 2.303 1_666 S
Tb0 O17 2.322 1_565 S
Tb0 O18 2.349 1_565 S
Tb0 O21 2.415 1_556 S
Tb0 O22 2.399 . S
Tb1 O11 2.322 1_545 S
Tb1 O12 2.349 . S
Tb1 O14 2.415 1_554 S
Tb1 O15 2.399 . S
Tb1 O16 2.325 . S
Tb1 O19 2.303 1_554 S
Tb1 C30 2.764 . S
C2 O18 1.261 1_455 S
C2 O19 1.257 . S
C3 C6 1.358 . S
C3 C7 1.332 1_556 S
C3 C9 1.504 . S
C4 C5 1.367 1_554 S
C4 C8 1.313 . S
C5 C4 1.367 1_556 S
C5 C6 1.429 . S
C5 H32 0.932 . S
C6 C3 1.358 . S
C6 C5 1.429 . S
C6 H33 0.930 . S
C7 C3 1.332 1_554 S
C7 C8 1.394 . S
C7 H34 0.932 . S
C8 C4 1.313 . S
C8 C7 1.394 . S
C8 H35 0.929 . S
C9 Tb0 2.764 . S
C9 C3 1.504 . S
C9 O21 1.239 1_556 S
C9 O22 1.263 . S
O10 Tb0 2.325 . S
O10 C20 1.236 1_656 S
O11 Tb1 2.322 1_565 S
O11 C20 1.257 . S
O12 Tb1 2.349 . S
O12 C23 1.261 . S
O13 Tb0 2.303 1_444 S
O13 C23 1.257 . S
O14 Tb1 2.415 1_556 S
O14 C30 1.239 1_556 S
O15 Tb1 2.399 . S
O15 C30 1.263 . S
O16 Tb1 2.325 . S
O16 C31 1.236 . S
O17 Tb0 2.322 1_545 S
O17 C31 1.257 1_656 S
O18 Tb0 2.349 1_545 S
O18 C2 1.261 1_655 S
O19 Tb1 2.303 1_556 S
O19 C2 1.257 . S
C20 O10 1.236 1_454 S
C20 O11 1.257 . S
O21 Tb0 2.415 1_554 S
O21 C9 1.239 1_554 S
O22 Tb0 2.399 . S
O22 C9 1.263 . S
C23 O12 1.261 . S
C23 O13 1.257 . S
C24 C27 1.358 . S
C24 C28 1.332 1_554 S
C24 C30 1.504 . S
C25 C26 1.373 . S
C25 C29 1.308 1_554 S
C26 C25 1.373 . S
C26 C27 1.429 . S
C26 H36 0.932 . S
C27 C24 1.358 . S
C27 C26 1.429 . S
C27 H37 0.930 . S
C28 C24 1.332 1_556 S
C28 C29 1.394 . S
C28 H38 0.932 . S
C29 C25 1.308 1_556 S
C29 C28 1.394 . S
C29 H39 0.929 . S
C30 Tb1 2.764 . S
C30 O14 1.239 1_554 S
C30 O15 1.263 . S
C30 C24 1.504 . S
C31 O16 1.236 . S
C31 O17 1.257 1_454 S
H32 C5 0.932 . S
H33 C6 0.930 . S
H34 C7 0.932 . S
H35 C8 0.929 . S
H36 C26 0.932 . S
H37 C27 0.930 . S
H38 C28 0.932 . S
H39 C29 0.929 . S
Tb40 C49 2.764 . S
Tb40 O50 2.325 1_545 S
Tb40 O53 2.303 . S
Tb40 O57 2.322 . S
Tb40 O58 2.349 . S
Tb40 O61 2.415 . S
Tb40 O62 2.399 . S
Tb41 O51 2.322 . S
Tb41 O52 2.349 . S
Tb41 O54 2.415 . S
Tb41 O55 2.399 . S
Tb41 O56 2.325 1_565 S
Tb41 O59 2.303 . S
Tb41 C70 2.764 . S
C42 O58 1.261 . S
C42 O59 1.257 1_445 S
C43 C46 1.358 . S
C43 C47 1.332 1_545 S
C43 C49 1.504 . S
C44 C45 1.373 . S
C44 C48 1.308 1_545 S
C45 C44 1.373 . S
C45 C46 1.429 . S
C45 H72 0.932 . S
C46 C43 1.358 . S
C46 C45 1.429 . S
C46 H73 0.930 . S
C47 C43 1.332 1_565 S
C47 C48 1.394 . S
C47 H74 0.932 . S
C48 C44 1.308 1_565 S
C48 C47 1.394 . S
C48 H75 0.929 . S
C49 Tb40 2.764 . S
C49 C43 1.504 . S
C49 O61 1.239 . S
C49 O62 1.263 . S
O50 Tb40 2.325 1_565 S
O50 C60 1.236 1_455 S
O51 Tb41 2.322 . S
O51 C60 1.257 . S
O52 Tb41 2.349 . S
O52 C63 1.261 . S
O53 Tb40 2.303 . S
O53 C63 1.257 1_445 S
O54 Tb41 2.415 . S
O54 C70 1.239 . S
O55 Tb41 2.399 . S
O55 C70 1.263 . S
O56 Tb41 2.325 1_545 S
O56 C71 1.236 1_655 S
O57 Tb40 2.322 . S
O57 C71 1.257 . S
O58 Tb40 2.349 . S
O58 C42 1.261 . S
O59 Tb41 2.303 . S
O59 C42 1.257 1_665 S
C60 O50 1.236 1_655 S
C60 O51 1.257 . S
O61 Tb40 2.415 . S
O61 C49 1.239 . S
O62 Tb40 2.399 . S
O62 C49 1.263 . S
C63 O52 1.261 . S
C63 O53 1.257 1_665 S
C64 C67 1.358 . S
C64 C68 1.332 1_565 S
C64 C70 1.504 . S
C65 C66 1.373 . S
C65 C69 1.308 1_565 S
C66 C65 1.373 . S
C66 C67 1.429 . S
C66 H76 0.932 . S
C67 C64 1.358 . S
C67 C66 1.429 . S
C67 H77 0.930 . S
C68 C64 1.332 1_545 S
C68 C69 1.394 . S
C68 H78 0.932 . S
C69 C65 1.308 1_545 S
C69 C68 1.394 . S
C69 H79 0.929 . S
C70 Tb41 2.764 . S
C70 O54 1.239 . S
C70 O55 1.263 . S
C70 C64 1.504 . S
C71 O56 1.236 1_455 S
C71 O57 1.257 . S
H72 C45 0.932 . S
H73 C46 0.930 . S
H74 C47 0.932 . S
H75 C48 0.929 . S
H76 C66 0.932 . S
H77 C67 0.930 . S
H78 C68 0.932 . S
H79 C69 0.929 . S
Tb80 C89 2.764 . S
Tb80 O90 2.325 . S
Tb80 O93 2.303 1_655 S
Tb80 O97 2.322 1_655 S
Tb80 O98 2.349 . S
Tb80 O101 2.415 . S
Tb80 O102 2.399 . S
Tb81 O91 2.322 1_445 S
Tb81 O92 2.349 . S
Tb81 O94 2.415 . S
Tb81 O95 2.399 . S
Tb81 O96 2.325 . S
Tb81 O99 2.303 . S
Tb81 C110 2.764 . S
C82 O98 1.261 1_455 S
C82 O99 1.257 . S
C83 C86 1.358 . S
C83 C87 1.332 . S
C83 C89 1.504 . S
C84 C85 1.373 . S
C84 C88 1.308 . S
C85 C84 1.373 . S
C85 C86 1.429 . S
C85 H112 0.932 . S
C86 C83 1.358 . S
C86 C85 1.429 . S
C86 H113 0.930 . S
C87 C83 1.332 . S
C87 C88 1.394 . S
C87 H114 0.932 . S
C88 C84 1.308 . S
C88 C87 1.394 . S
C88 H115 0.929 . S
C89 Tb80 2.764 . S
C89 C83 1.504 . S
C89 O101 1.239 . S
C89 O102 1.263 . S
O90 Tb80 2.325 . S
O90 C100 1.236 1_545 S
O91 Tb81 2.322 1_665 S
O91 C100 1.257 . S
O92 Tb81 2.349 . S
O92 C103 1.261 . S
O93 Tb80 2.303 1_455 S
O93 C103 1.257 . S
O94 Tb81 2.415 . S
O94 C110 1.239 . S
O95 Tb81 2.399 . S
O95 C110 1.263 . S
O96 Tb81 2.325 . S
O96 C111 1.236 . S
O97 Tb80 2.322 1_455 S
O97 C111 1.257 . S
O98 Tb80 2.349 . S
O98 C82 1.261 1_655 S
O99 Tb81 2.303 . S
O99 C82 1.257 . S
C100 O90 1.236 1_565 S
C100 O91 1.257 . S
O101 Tb80 2.415 . S
O101 C89 1.239 . S
O102 Tb80 2.399 . S
O102 C89 1.263 . S
C103 O92 1.261 . S
C103 O93 1.257 . S
C104 C107 1.358 1_545 S
C104 C108 1.332 . S
C104 C110 1.504 . S
C105 C106 1.373 1_545 S
C105 C109 1.308 . S
C106 C105 1.373 1_565 S
C106 C107 1.429 . S
C106 H116 0.932 . S
C107 C104 1.358 1_565 S
C107 C106 1.429 . S
C107 H117 0.930 . S
C108 C104 1.332 . S
C108 C109 1.394 . S
C108 H118 0.932 . S
C109 C105 1.308 . S
C109 C108 1.394 . S
C109 H119 0.929 . S
C110 Tb81 2.764 . S
C110 O94 1.239 . S
C110 O95 1.263 . S
C110 C104 1.504 . S
C111 O96 1.236 . S
C111 O97 1.257 . S
H112 C85 0.932 . S
H113 C86 0.930 . S
H114 C87 0.932 . S
H115 C88 0.929 . S
H116 C106 0.932 . S
H117 C107 0.930 . S
H118 C108 0.932 . S
H119 C109 0.929 . S
H120 C126 0.930 . S
H121 C129 0.930 . S
H122 C130 0.930 . S
H123 C131 0.930 . S
H124 C134 0.930 . S
H125 C135 0.930 . S
C126 H120 0.930 . S
C126 C127 1.355 1_656 S
C126 C128 1.415 . S
C127 C126 1.355 1_454 S
C127 C129 1.419 . S
C128 C126 1.415 . S
C128 C133 1.425 1_656 S
C128 C135 1.409 . S
C129 H121 0.930 . S
C129 C127 1.419 . S
C129 C130 1.362 . S
C130 H122 0.930 . S
C130 C129 1.362 . S
C130 C133 1.409 . S
C131 H123 0.930 . S
C131 C132 1.355 . S
C131 C133 1.415 . S
C132 C131 1.355 . S
C132 C134 1.419 1_454 S
C133 C128 1.425 1_454 S
C133 C130 1.409 . S
C133 C131 1.415 . S
C134 H124 0.930 . S
C134 C132 1.419 1_656 S
C134 C135 1.362 . S
C135 H125 0.930 . S
C135 C128 1.409 . S
C135 C134 1.362 . S
H136 C142 0.930 . S
H137 C145 0.930 . S
H138 C146 0.930 . S
H139 C147 0.930 . S
H140 C150 0.930 . S
H141 C151 0.930 . S
C142 H136 0.930 . S
C142 C143 1.355 . S
C142 C144 1.415 . S
C143 C142 1.355 . S
C143 C145 1.419 1_545 S
C144 C142 1.415 . S
C144 C149 1.425 1_545 S
C144 C151 1.409 . S
C145 H137 0.930 . S
C145 C143 1.419 1_565 S
C145 C146 1.362 . S
C146 H138 0.930 . S
C146 C145 1.362 . S
C146 C149 1.409 . S
C147 H139 0.930 . S
C147 C148 1.355 . S
C147 C149 1.415 . S
C148 C147 1.355 . S
C148 C150 1.419 1_565 S
C149 C144 1.425 1_565 S
C149 C146 1.409 . S
C149 C147 1.415 . S
C150 H140 0.930 . S
C150 C148 1.419 1_545 S
C150 C151 1.362 . S
C151 H141 0.930 . S
C151 C144 1.409 . S
C151 C150 1.362 . S
H152 C158 0.930 . S
H153 C161 0.930 . S
H154 C162 0.930 . S
H155 C163 0.930 . S
H156 C166 0.930 . S
H157 C167 0.930 . S
C158 H152 0.930 . S
C158 C159 1.355 . S
C158 C160 1.415 . S
C159 C158 1.355 . S
C159 C161 1.419 . S
C160 C158 1.415 . S
C160 C165 1.425 . S
C160 C167 1.409 . S
C161 H153 0.930 . S
C161 C159 1.419 . S
C161 C162 1.362 . S
C162 H154 0.930 . S
C162 C161 1.362 . S
C162 C165 1.409 . S
C163 H155 0.930 . S
C163 C164 1.355 . S
C163 C165 1.415 . S
C164 C163 1.355 . S
C164 C166 1.419 . S
C165 C160 1.425 . S
C165 C162 1.409 . S
C165 C163 1.415 . S
C166 H156 0.930 . S
C166 C164 1.419 . S
C166 C167 1.362 . S
C167 H157 0.930 . S
C167 C160 1.409 . S
C167 C166 1.362 . S
H168 C174 0.930 . S
H169 C177 0.930 . S
H170 C178 0.930 . S
H171 C179 0.930 . S
H172 C182 0.930 . S
H173 C183 0.930 . S
C174 H168 0.930 . S
C174 C175 1.355 . S
C174 C176 1.415 . S
C175 C174 1.355 . S
C175 C177 1.419 . S
C176 C174 1.415 . S
C176 C181 1.425 . S
C176 C183 1.409 1_545 S
C177 H169 0.930 . S
C177 C175 1.419 . S
C177 C178 1.362 . S
C178 H170 0.930 . S
C178 C177 1.362 . S
C178 C181 1.409 . S
C179 H171 0.930 . S
C179 C180 1.355 1_545 S
C179 C181 1.415 . S
C180 C179 1.355 1_565 S
C180 C182 1.419 . S
C181 C176 1.425 . S
C181 C178 1.409 . S
C181 C179 1.415 . S
C182 H172 0.930 . S
C182 C180 1.419 . S
C182 C183 1.362 . S
C183 H173 0.930 . S
C183 C176 1.409 1_565 S
C183 C182 1.362 . S
H184 C190 0.930 . S
H185 C193 0.930 . S
H186 C194 0.930 . S
H187 C195 0.930 . S
H188 C198 0.930 . S
H189 C199 0.930 . S
C190 H184 0.930 . S
C190 C191 1.355 . S
C190 C192 1.415 . S
C191 C190 1.355 . S
C191 C193 1.419 1_556 S
C192 C190 1.415 . S
C192 C197 1.425 1_556 S
C192 C199 1.409 . S
C193 H185 0.930 . S
C193 C191 1.419 1_554 S
C193 C194 1.362 . S
C194 H186 0.930 . S
C194 C193 1.362 . S
C194 C197 1.409 . S
C195 H187 0.930 . S
C195 C196 1.355 . S
C195 C197 1.415 . S
C196 C195 1.355 . S
C196 C198 1.419 1_554 S
C197 C192 1.425 1_554 S
C197 C194 1.409 . S
C197 C195 1.415 . S
C198 H188 0.930 . S
C198 C196 1.419 1_556 S
C198 C199 1.362 . S
C199 H189 0.930 . S
C199 C192 1.409 . S
C199 C198 1.362 . S
H200 C206 0.930 . S
H201 C209 0.930 . S
H202 C210 0.930 . S
H203 C211 0.930 . S
H204 C214 0.930 . S
H205 C215 0.930 . S
C206 H200 0.930 . S
C206 C207 1.355 1_455 S
C206 C208 1.415 . S
C207 C206 1.355 1_655 S
C207 C209 1.419 . S
C208 C206 1.415 . S
C208 C213 1.425 1_455 S
C208 C215 1.409 . S
C209 H201 0.930 . S
C209 C207 1.419 . S
C209 C210 1.362 . S
C210 H202 0.930 . S
C210 C209 1.362 . S
C210 C213 1.409 . S
C211 H203 0.930 . S
C211 C212 1.355 1_655 S
C211 C213 1.415 . S
C212 C211 1.355 1_455 S
C212 C214 1.419 . S
C213 C208 1.425 1_655 S
C213 C210 1.409 . S
C213 C211 1.415 . S
C214 H204 0.930 . S
C214 C212 1.419 . S
C214 C215 1.362 . S
C215 H205 0.930 . S
C215 C208 1.409 . S
C215 C214 1.362 . S
H216 C222 0.930 . S
H217 C225 0.930 . S
H218 C226 0.930 . S
H219 C227 0.930 . S
H220 C230 0.930 . S
H221 C231 0.930 . S
C222 H216 0.930 . S
C222 C223 1.355 1_445 S
C222 C224 1.415 . S
C223 C222 1.355 1_665 S
C223 C225 1.419 . S
C224 C222 1.415 . S
C224 C229 1.425 1_445 S
C224 C231 1.409 . S
C225 H217 0.930 . S
C225 C223 1.419 . S
C225 C226 1.362 . S
C226 H218 0.930 . S
C226 C225 1.362 . S
C226 C229 1.409 . S
C227 H219 0.930 . S
C227 C228 1.355 1_665 S
C227 C229 1.415 . S
C228 C227 1.355 1_445 S
C228 C230 1.419 . S
C229 C224 1.425 1_665 S
C229 C226 1.409 . S
C229 C227 1.415 . S
C230 H220 0.930 . S
C230 C228 1.419 . S
C230 C231 1.362 . S
C231 H221 0.930 . S
C231 C224 1.409 . S
C231 C230 1.362 . S
H232 C238 0.930 . S
H233 C241 0.930 . S
H234 C242 0.930 . S
H235 C243 0.930 . S
H236 C246 0.930 . S
H237 C247 0.930 . S
C238 H232 0.930 . S
C238 C239 1.355 1_655 S
C238 C240 1.415 . S
C239 C238 1.355 1_455 S
C239 C241 1.419 . S
C240 C238 1.415 . S
C240 C245 1.425 1_655 S
C240 C247 1.409 . S
C241 H233 0.930 . S
C241 C239 1.419 . S
C241 C242 1.362 . S
C242 H234 0.930 . S
C242 C241 1.362 . S
C242 C245 1.409 . S
C243 H235 0.930 . S
C243 C244 1.355 . S
C243 C245 1.415 . S
C244 C243 1.355 . S
C244 C246 1.419 1_455 S
C245 C240 1.425 1_455 S
C245 C242 1.409 . S
C245 C243 1.415 . S
C246 H236 0.930 . S
C246 C244 1.419 1_655 S
C246 C247 1.362 . S
C247 H237 0.930 . S
C247 C240 1.409 . S
C247 C246 1.362 . S
H248 C254 0.930 . S
H249 C257 0.930 . S
H250 C258 0.930 . S
H251 C259 0.930 . S
H252 C262 0.930 . S
H253 C263 0.930 . S
C254 H248 0.930 . S
C254 C255 1.355 1_655 S
C254 C256 1.415 . S
C255 C254 1.355 1_455 S
C255 C257 1.419 . S
C256 C254 1.415 . S
C256 C261 1.425 1_655 S
C256 C263 1.409 . S
C257 H249 0.930 . S
C257 C255 1.419 . S
C257 C258 1.362 . S
C258 H250 0.930 . S
C258 C257 1.362 . S
C258 C261 1.409 . S
C259 H251 0.930 . S
C259 C260 1.355 . S
C259 C261 1.415 . S
C260 C259 1.355 . S
C260 C262 1.419 1_455 S
C261 C256 1.425 1_455 S
C261 C258 1.409 . S
C261 C259 1.415 . S
C262 H252 0.930 . S
C262 C260 1.419 1_655 S
C262 C263 1.362 . S
C263 H253 0.930 . S
C263 C256 1.409 . S
C263 C262 1.362 . S
C127 C31 2.946 . S
C132 C20 2.946 . S
C143 C44 0.427 . S
C148 C65 0.427 . S
C159 C100 4.872 . S
C164 C111 4.872 . S
C175 C84 0.946 . S
C180 C105 0.946 1_565 S
C191 C4 0.861 1_556 S
C196 C25 0.862 . S
C207 C71 2.885 1_655 S
C212 C60 2.885 1_455 S
C223 C63 1.464 . S
C228 C23 1.478 . S
C239 C42 1.447 . S
C244 C82 1.472 . S
C255 C103 1.446 . S
C260 C2 1.448 . S
