# Generated by pormake.
# Topology wkj, (6)-cn, num edge types: 1
# Building blocks:
#     Node 0, Type 0, BuildingBlock: KUMBUR_clean_sbu_1, # of connection points: 6
#     Node 1, Type 0, BuildingBlock: KUMBUR_clean_sbu_1, # of connection points: 6
#     Node 2, Type 0, BuildingBlock: KUMBUR_clean_sbu_1, # of connection points: 6
#     Node 3, Type 0, BuildingBlock: KUMBUR_clean_sbu_1, # of connection points: 6
#     Node 4, Type 0, BuildingBlock: KUMBUR_clean_sbu_1, # of connection points: 6
#     Node 5, Type 0, BuildingBlock: KUMBUR_clean_sbu_1, # of connection points: 6
#     Node 6, Type 0, BuildingBlock: KUMBUR_clean_sbu_1, # of connection points: 6
#     Node 7, Type 0, BuildingBlock: KUMBUR_clean_sbu_1, # of connection points: 6
#     Node 8, Type 0, BuildingBlock: KUMBUR_clean_sbu_1, # of connection points: 6
#     Node 9, Type 0, BuildingBlock: KUMBUR_clean_sbu_1, # of connection points: 6
#     Node 10, Type 0, BuildingBlock: KUMBUR_clean_sbu_1, # of connection points: 6
#     Node 11, Type 0, BuildingBlock: KUMBUR_clean_sbu_1, # of connection points: 6
#     Edge 12, Type (0, 0), BuildingBlock: KIFKEQ_clean_linker_1, # of connection points: 2
#     Edge 13, Type (0, 0), BuildingBlock: KIFKEQ_clean_linker_1, # of connection points: 2
#     Edge 14, Type (0, 0), BuildingBlock: KIFKEQ_clean_linker_1, # of connection points: 2
#     Edge 15, Type (0, 0), BuildingBlock: KIFKEQ_clean_linker_1, # of connection points: 2
#     Edge 16, Type (0, 0), BuildingBlock: KIFKEQ_clean_linker_1, # of connection points: 2
#     Edge 17, Type (0, 0), BuildingBlock: KIFKEQ_clean_linker_1, # of connection points: 2
#     Edge 18, Type (0, 0), BuildingBlock: KIFKEQ_clean_linker_1, # of connection points: 2
#     Edge 19, Type (0, 0), BuildingBlock: KIFKEQ_clean_linker_1, # of connection points: 2
#     Edge 20, Type (0, 0), BuildingBlock: KIFKEQ_clean_linker_1, # of connection points: 2
#     Edge 21, Type (0, 0), BuildingBlock: KIFKEQ_clean_linker_1, # of connection points: 2
#     Edge 22, Type (0, 0), BuildingBlock: KIFKEQ_clean_linker_1, # of connection points: 2
#     Edge 23, Type (0, 0), BuildingBlock: KIFKEQ_clean_linker_1, # of connection points: 2
#     Edge 24, Type (0, 0), BuildingBlock: KIFKEQ_clean_linker_1, # of connection points: 2
#     Edge 25, Type (0, 0), BuildingBlock: KIFKEQ_clean_linker_1, # of connection points: 2
#     Edge 26, Type (0, 0), BuildingBlock: KIFKEQ_clean_linker_1, # of connection points: 2
#     Edge 27, Type (0, 0), BuildingBlock: KIFKEQ_clean_linker_1, # of connection points: 2
#     Edge 28, Type (0, 0), BuildingBlock: KIFKEQ_clean_linker_1, # of connection points: 2
#     Edge 29, Type (0, 0), BuildingBlock: KIFKEQ_clean_linker_1, # of connection points: 2
#     Edge 30, Type (0, 0), BuildingBlock: KIFKEQ_clean_linker_1, # of connection points: 2
#     Edge 31, Type (0, 0), BuildingBlock: KIFKEQ_clean_linker_1, # of connection points: 2
#     Edge 32, Type (0, 0), BuildingBlock: KIFKEQ_clean_linker_1, # of connection points: 2
#     Edge 33, Type (0, 0), BuildingBlock: KIFKEQ_clean_linker_1, # of connection points: 2
#     Edge 34, Type (0, 0), BuildingBlock: KIFKEQ_clean_linker_1, # of connection points: 2
#     Edge 35, Type (0, 0), BuildingBlock: KIFKEQ_clean_linker_1, # of connection points: 2
#     Edge 36, Type (0, 0), BuildingBlock: KIFKEQ_clean_linker_1, # of connection points: 2
#     Edge 37, Type (0, 0), BuildingBlock: KIFKEQ_clean_linker_1, # of connection points: 2
#     Edge 38, Type (0, 0), BuildingBlock: KIFKEQ_clean_linker_1, # of connection points: 2
#     Edge 39, Type (0, 0), BuildingBlock: KIFKEQ_clean_linker_1, # of connection points: 2
#     Edge 40, Type (0, 0), BuildingBlock: KIFKEQ_clean_linker_1, # of connection points: 2
#     Edge 41, Type (0, 0), BuildingBlock: KIFKEQ_clean_linker_1, # of connection points: 2
#     Edge 42, Type (0, 0), BuildingBlock: KIFKEQ_clean_linker_1, # of connection points: 2
#     Edge 43, Type (0, 0), BuildingBlock: KIFKEQ_clean_linker_1, # of connection points: 2
#     Edge 44, Type (0, 0), BuildingBlock: KIFKEQ_clean_linker_1, # of connection points: 2
#     Edge 45, Type (0, 0), BuildingBlock: KIFKEQ_clean_linker_1, # of connection points: 2
#     Edge 46, Type (0, 0), BuildingBlock: KIFKEQ_clean_linker_1, # of connection points: 2
#     Edge 47, Type (0, 0), BuildingBlock: KIFKEQ_clean_linker_1, # of connection points: 2
# Relax obj value: 0.648
# Max RMSD: 0.201
# Mean RMSD: 0.201
data_MOF--net-wkj--node1-KUMBUR_clean_sbu_1--edge1-KIFKEQ_clean_linker_1
_symmetry_space_group_name_H-M    P1
_symmetry_Int_Tables_number       1
_symmetry_cell_setting            triclinic
loop_
_symmetry_equiv_pos_as_xyz
'x, y, z'
_cell_length_a     52.177132
_cell_length_b     51.998527
_cell_length_c     29.619996
_cell_angle_alpha  90.293789
_cell_angle_beta   89.830161
_cell_angle_gamma 120.15416
loop_
_atom_site_label
_atom_site_type_symbol
_atom_site_fract_x
_atom_site_fract_y
_atom_site_fract_z
_atom_type_partial_charge
Tb0 Tb 0.53069 0.10599 0.32396 0.0
C1 C 0.45305 0.15913 0.3489 0.0
N2 N 0.46311 0.14623 0.37823 0.0
C3 C 0.47656 0.18638 0.43081 0.0
C4 C 0.45553 0.18689 0.35859 0.0
C5 C 0.47349 0.15878 0.4198 0.0
C6 C 0.46792 0.2007 0.39983 0.0
C7 C 0.42814 0.15631 0.27872 0.0
C8 C 0.43967 0.14406 0.30952 0.0
C9 C 0.43146 0.18441 0.28737 0.0
C10 C 0.44516 0.19969 0.32722 0.0
Tb11 Tb 0.45713 0.10103 0.35707 0.0
N12 N 0.43639 0.11668 0.30275 0.0
C13 C 0.41271 0.13953 0.24094 0.0
C14 C 0.41879 0.09922 0.26811 0.0
C15 C 0.40752 0.11063 0.23612 0.0
H16 H 0.47977 0.14785 0.44452 0.0
H17 H 0.39415 0.09681 0.20838 0.0
H18 H 0.54657 0.16369 0.39679 0.0
H19 H 0.58025 0.1036 0.16584 0.0
H20 H 0.41213 0.07602 0.26561 0.0
H21 H 0.40357 0.14816 0.21646 0.0
H22 H 0.54297 0.0834 0.22682 0.0
H23 H 0.48544 0.1965 0.46332 0.0
H24 H 0.4229 0.19419 0.26394 0.0
H25 H 0.44716 0.22114 0.33382 0.0
H26 H 0.58648 0.21467 0.40714 0.0
H27 H 0.47028 0.22206 0.40849 0.0
H28 H 0.62213 0.15528 0.17088 0.0
N29 N 0.56544 0.15524 0.3382 0.0
C30 C 0.58718 0.16815 0.30644 0.0
C31 C 0.58725 0.20167 0.37905 0.0
C32 C 0.6103 0.19797 0.31065 0.0
C33 C 0.56476 0.1721 0.37343 0.0
C34 C 0.61031 0.21457 0.34786 0.0
N35 N 0.56284 0.12352 0.26496 0.0
C36 C 0.56062 0.10623 0.22866 0.0
C37 C 0.60778 0.16415 0.23482 0.0
C38 C 0.58579 0.15173 0.26863 0.0
C39 C 0.60561 0.14661 0.19739 0.0
C40 C 0.58192 0.11749 0.19434 0.0
H41 H 0.62758 0.23756 0.35223 0.0
H42 H 0.65033 0.23325 0.28008 0.0
H43 H 0.64828 0.20347 0.21389 0.0
O44 O 0.56862 0.10263 0.33653 0.0
O45 O 0.53106 0.11293 0.40075 0.0
O46 O 0.4852 0.10677 0.42243 0.0
O47 O 0.52744 0.0646 0.3132 0.0
O48 O 0.51786 0.13626 0.28746 0.0
O49 O 0.498 0.14392 0.3492 0.0
O50 O 0.43622 0.07922 0.41684 0.0
O51 O 0.45365 0.07502 0.28838 0.0
O52 O 0.49945 0.08205 0.26573 0.0
O53 O 0.41124 0.08482 0.36443 0.0
O54 O 0.45924 0.06231 0.34144 0.0
O55 O 0.50156 0.0729 0.37299 0.0
C56 C 0.51267 0.11185 0.43387 0.0
C57 C 0.57073 0.06099 0.30539 0.0
C58 C 0.61342 0.0649 0.26488 0.0
C59 C 0.60076 0.03388 0.26825 0.0
C60 C 0.55867 0.03017 0.30845 0.0
C61 C 0.57358 0.01677 0.28984 0.0
C62 C 0.59807 0.07826 0.28395 0.0
C63 C 0.50934 0.15311 0.30913 0.0
C64 C 0.5546 0.07426 0.32664 0.0
C65 C 0.63236 0.21045 0.27722 0.0
C66 C 0.63116 0.19354 0.23947 0.0
C67 C 0.47061 0.07055 0.2571 0.0
C68 C 0.39421 0.08077 0.43996 0.0
C69 C 0.36624 0.06378 0.51011 0.0
C70 C 0.36347 0.08931 0.51085 0.0
C71 C 0.39174 0.10641 0.44113 0.0
C72 C 0.38135 0.05966 0.47414 0.0
C73 C 0.37625 0.11052 0.47649 0.0
C74 C 0.47307 0.05537 0.37018 0.0
C75 C 0.41056 0.07506 0.40484 0.0
H76 H 0.61153 0.02266 0.25369 0.0
H77 H 0.53764 0.01641 0.32526 0.0
H78 H 0.56381 0.99297 0.29183 0.0
H79 H 0.6066 0.10191 0.28076 0.0
H80 H 0.35187 0.09304 0.53818 0.0
H81 H 0.4017 0.1231 0.41503 0.0
H82 H 0.38308 0.03973 0.47248 0.0
H83 H 0.37429 0.13027 0.47741 0.0
Tb84 Tb 0.43214 0.56657 0.65029 0.0
C85 C 0.3855 0.42449 0.65909 0.0
N86 N 0.37685 0.44379 0.64528 0.0
C87 C 0.35087 0.41171 0.58265 0.0
C88 C 0.37762 0.39819 0.63475 0.0
C89 C 0.35858 0.43711 0.60866 0.0
C90 C 0.36072 0.39232 0.59544 0.0
C91 C 0.40674 0.40913 0.71821 0.0
C92 C 0.40012 0.43007 0.69979 0.0
C93 C 0.39987 0.3833 0.69348 0.0
C94 C 0.38562 0.378 0.65159 0.0
Tb95 Tb 0.39153 0.48531 0.68914 0.0
N96 N 0.40528 0.4547 0.72321 0.0
C97 C 0.41861 0.41406 0.76181 0.0
C98 C 0.41576 0.45898 0.76643 0.0
C99 C 0.42277 0.43891 0.78622 0.0
H100 H 0.3506 0.45178 0.59869 0.0
H101 H 0.43123 0.44254 0.82039 0.0
H102 H 0.4903 0.57562 0.59135 0.0
H103 H 0.42208 0.64313 0.76218 0.0
H104 H 0.41866 0.47778 0.78607 0.0
H105 H 0.42371 0.39838 0.77748 0.0
H106 H 0.4041 0.6002 0.70956 0.0
H107 H 0.3371 0.40697 0.553 0.0
H108 H 0.40445 0.36674 0.7071 0.0
H109 H 0.37979 0.35764 0.63342 0.0
H110 H 0.5449 0.60628 0.5961 0.0
H111 H 0.35432 0.37241 0.57566 0.0
H112 H 0.47572 0.67371 0.77909 0.0
N113 N 0.48278 0.59635 0.64801 0.0
C114 C 0.49518 0.61854 0.67893 0.0
C115 C 0.53117 0.60991 0.61976 0.0
C116 C 0.52614 0.637 0.68241 0.0
C117 C 0.50024 0.59255 0.61724 0.0
C118 C 0.54422 0.63197 0.65296 0.0
N119 N 0.44697 0.60595 0.69883 0.0
C120 C 0.42752 0.61357 0.71693 0.0
C121 C 0.48788 0.64842 0.73451 0.0
C122 C 0.4765 0.62383 0.70499 0.0
C123 C 0.46792 0.65496 0.75618 0.0
C124 C 0.43762 0.63776 0.74667 0.0
H125 H 0.56815 0.64552 0.65466 0.0
H126 H 0.56161 0.6747 0.71765 0.0
H127 H 0.528 0.68499 0.76298 0.0
O128 O 0.40271 0.57678 0.61874 0.0
O129 O 0.42972 0.56442 0.72925 0.0
O130 O 0.4102 0.51527 0.75193 0.0
O131 O 0.44828 0.59954 0.59923 0.0
O132 O 0.38425 0.54463 0.66743 0.0
O133 O 0.36896 0.49937 0.63871 0.0
O134 O 0.35431 0.44798 0.71589 0.0
O135 O 0.41214 0.48623 0.62042 0.0
O136 O 0.43207 0.5344 0.5926 0.0
O137 O 0.35915 0.49155 0.72218 0.0
O138 O 0.43771 0.51255 0.71213 0.0
O139 O 0.45368 0.54098 0.65065 0.0
C140 C 0.42183 0.5442 0.76299 0.0
C141 C 0.41212 0.59326 0.54391 0.0
C142 C 0.37126 0.57939 0.49117 0.0
C143 C 0.3916 0.58839 0.45513 0.0
C144 C 0.43208 0.60224 0.50759 0.0
C145 C 0.42179 0.5999 0.46342 0.0
C146 C 0.38189 0.58255 0.53537 0.0
C147 C 0.36344 0.52117 0.64608 0.0
C148 C 0.42214 0.59572 0.59104 0.0
C149 C 0.53786 0.66039 0.71406 0.0
C150 C 0.51873 0.66622 0.73993 0.0
C151 C 0.42535 0.50543 0.58643 0.0
C152 C 0.33765 0.45881 0.7837 0.0
C153 C 0.34155 0.43805 0.85565 0.0
C154 C 0.32628 0.45072 0.8768 0.0
C155 C 0.3225 0.47124 0.80545 0.0
C156 C 0.34688 0.44212 0.80899 0.0
C157 C 0.31682 0.46714 0.85176 0.0
C158 C 0.45961 0.53334 0.68867 0.0
C159 C 0.34435 0.46386 0.735 0.0
H160 H 0.38408 0.5855 0.42045 0.0
H161 H 0.45552 0.61095 0.51325 0.0
H162 H 0.43718 0.60649 0.43543 0.0
H163 H 0.36639 0.57611 0.5632 0.0
H164 H 0.32129 0.44767 0.91253 0.0
H165 H 0.31516 0.48419 0.78664 0.0
H166 H 0.35863 0.43258 0.7924 0.0
H167 H 0.30505 0.47675 0.86834 0.0
Tb168 Tb 0.87959 0.42348 0.97764 0.0
C169 C 0.96264 0.36482 0.98491 0.0
N170 N 0.93469 0.35802 0.97389 0.0
C171 C 0.93388 0.32649 0.91375 0.0
C172 C 0.97759 0.35306 0.96027 0.0
C173 C 0.91976 0.33825 0.93984 0.0
C174 C 0.96303 0.33415 0.92374 0.0
C175 C 0.00375 0.38837 1.03725 0.0
C176 C 0.97547 0.38218 1.02279 0.0
C177 C 0.01927 0.37765 1.01195 0.0
C178 C 0.00615 0.35989 0.97365 0.0
Tb179 Tb 0.91329 0.37782 1.01904 0.0
N180 N 0.95928 0.39116 1.04717 0.0
C181 C 0.01504 0.40413 1.07761 0.0
C182 C 0.96944 0.40481 1.0881 0.0
C183 C -0.00239 0.41201 1.10347 0.0
H184 H 0.89712 0.33193 0.93223 0.0
H185 H 0.00559 0.42306 0.1357 0.0
H186 H 0.92182 0.47614 0.90481 0.0
H187 H 0.79421 0.41726 1.08924 0.0
H188 H 0.95554 0.40948 0.10961 0.0
H189 H 0.03665 0.40931 1.08994 0.0
H190 H 0.81892 0.39694 1.04167 0.0
H191 H 0.9222 0.31136 0.88619 0.0
H192 H 0.04111 0.38234 1.02231 0.0
H193 H 0.01812 0.35126 0.95497 0.0
H194 H 0.94098 0.52981 0.89525 0.0
H195 H 0.97381 0.32477 0.90378 0.0
H196 H 0.81431 0.47166 1.09314 0.0
N197 N 0.89588 0.47236 0.96265 0.0
C198 C 0.88558 0.48623 0.98978 0.0
C199 C 0.92555 0.51786 0.92224 0.0
C200 C 0.89553 0.51678 0.98527 0.0
C201 C 0.91474 0.48739 0.92792 0.0
C202 C 0.91628 0.53275 0.95153 0.0
N203 N 0.85341 0.4395 1.02036 0.0
C204 C 0.82786 0.42071 1.04314 0.0
C205 C 0.85 0.48173 1.04617 0.0
C206 C 0.86342 0.4691 1.01983 0.0
C207 C 0.8253 0.46286 1.0724 0.0
C208 C 0.81384 0.43214 1.07019 0.0
H209 H 0.92456 0.55629 0.94694 0.0
H210 H 0.8913 0.55359 1.01105 0.0
H211 H 0.85119 0.52278 1.06435 0.0
O212 O 0.85966 0.3937 0.92308 0.0
O213 O 0.87942 0.42431 1.0552 0.0
O214 O 0.90282 0.39903 1.08075 0.0
O215 O 0.8515 0.43 0.93451 0.0
O216 O 0.84934 0.37753 1.0036 0.0
O217 O 0.87375 0.35638 0.97399 0.0
O218 O 0.9138 0.34135 1.04806 0.0
O219 O 0.93167 0.39567 0.94751 0.0
O220 O 0.91733 0.42993 0.92875 0.0
O221 O 0.87589 0.34672 1.05627 0.0
O222 O 0.93632 0.42337 1.04345 0.0
O223 O 0.92731 0.44632 0.98625 0.0
C224 C 0.88893 0.41466 1.08978 0.0
C225 C 0.8104 0.38337 0.91392 0.0
C226 C 0.76843 0.33649 0.88752 0.0
C227 C 0.7496 0.34098 0.91643 0.0
C228 C 0.79099 0.38772 0.94173 0.0
C229 C 0.76089 0.36646 0.94333 0.0
C230 C 0.79893 0.35776 0.88685 0.0
C231 C 0.84808 0.35364 0.98563 0.0
C232 C 0.84266 0.4047 0.91393 0.0
C233 C 0.8837 0.53005 1.01352 0.0
C234 C 0.8609 0.51252 1.04391 0.0
C235 C 0.93319 0.41648 0.91883 0.0
C236 C 0.88899 0.32716 0.11808 0.0
C237 C 0.91625 0.33464 0.18872 0.0
C238 C 0.88904 0.31818 0.21149 0.0
C239 C 0.86218 0.31094 0.14148 0.0
C240 C 0.91582 0.33879 0.14193 0.0
C241 C 0.86226 0.30646 0.18794 0.0
C242 C 0.93991 0.44769 1.02489 0.0
C243 C 0.88884 0.33216 1.06907 0.0
H244 H 0.72611 0.32496 0.91785 0.0
H245 H 0.79895 0.4075 0.96231 0.0
H246 H 0.7462 0.36989 0.96518 0.0
H247 H 0.81374 0.35493 0.8643 0.0
H248 H 0.88836 0.31399 0.24735 0.0
H249 H 0.84122 0.30176 0.1238 0.0
H250 H 0.93645 0.35137 0.12401 0.0
H251 H 0.84148 0.29381 0.20579 0.0
Tb252 Tb 0.44823 0.88043 0.3193 0.0
C253 C 0.59228 0.96717 0.334 0.0
N254 N 0.57165 0.93961 0.31982 0.0
C255 C 0.60437 0.94177 0.26091 0.0
C256 C 0.61977 0.98344 0.31181 0.0
C257 C 0.57764 0.92632 0.28462 0.0
C258 C 0.62544 0.97057 0.27431 0.0
C259 C 0.60767 0.00613 0.39012 0.0
C260 C 0.5863 0.97826 0.37244 0.0
C261 C 0.6347 0.02306 0.36728 0.0
C262 C 0.6408 0.01167 0.32828 0.0
Tb263 Tb 0.52869 0.91576 0.36054 0.0
N264 N 0.56031 0.96077 0.39411 0.0
C265 C 0.60171 0.01557 0.4311 0.0
C266 C 0.55529 0.96916 0.43559 0.0
C267 C 0.57557 0.99679 0.45424 0.0
H268 H 0.5616 0.90393 0.27441 0.0
H269 H 0.57126 0.00334 0.48685 0.0
H270 H 0.43863 0.92405 0.24921 0.0
H271 H 0.36989 0.79684 0.43376 0.0
H272 H 0.53593 0.95434 0.45498 0.0
H273 H 0.61758 0.03677 0.44593 0.0
H274 H 0.41419 0.82049 0.3845 0.0
H275 H 0.60877 0.93138 0.2325 0.0
H276 H 0.65131 0.04462 0.38011 0.0
H277 H 0.66195 0.02468 0.31146 0.0
H278 H 0.40494 0.9443 0.24185 0.0
H279 H 0.64622 0.98241 0.25612 0.0
H280 H 0.33793 0.81921 0.44139 0.0
N281 N 0.41788 0.89962 0.30872 0.0
C282 C 0.39471 0.8903 0.33769 0.0
C283 C 0.40194 0.92929 0.26916 0.0
C284 C 0.37472 0.90095 0.33456 0.0
C285 C 0.42106 0.91787 0.27349 0.0
C286 C 0.37901 0.92124 0.30036 0.0
N287 N 0.40793 0.85647 0.36611 0.0
C288 C 0.40019 0.83022 0.38745 0.0
C289 C 0.36389 0.85499 0.39472 0.0
C290 C 0.38943 0.86775 0.36736 0.0
C291 C 0.35735 0.8297 0.41991 0.0
C292 C 0.37528 0.81693 0.41556 0.0
H293 H 0.36415 0.92999 0.29681 0.0
H294 H 0.33507 0.8982 0.3629 0.0
H295 H 0.3255 0.85781 0.41558 0.0
O296 O 0.44767 0.85081 0.26957 0.0
O297 O 0.44818 0.88165 0.39682 0.0
O298 O 0.49703 0.90499 0.42211 0.0
O299 O 0.4106 0.85739 0.27778 0.0
O300 O 0.46645 0.85155 0.34105 0.0
O301 O 0.51117 0.8789 0.31016 0.0
O302 O 0.56429 0.91269 0.38694 0.0
O303 O 0.52913 0.93399 0.28932 0.0
O304 O 0.48013 0.91498 0.2664 0.0
O305 O 0.51955 0.87714 0.39688 0.0
O306 O 0.5064 0.93897 0.38361 0.0
O307 O 0.47499 0.9285 0.32511 0.0
C308 C 0.46756 0.89134 0.43123 0.0
C309 C 0.39919 0.80834 0.26597 0.0
C310 C 0.35112 0.76439 0.25041 0.0
C311 C 0.35766 0.748 0.28106 0.0
C312 C 0.40512 0.79157 0.29678 0.0
C313 C 0.38452 0.76165 0.3043 0.0
C314 C 0.37195 0.79463 0.24318 0.0
C315 C 0.48939 0.85227 0.32079 0.0
C316 C 0.41982 0.84059 0.26043 0.0
C317 C 0.35044 0.88997 0.36423 0.0
C318 C 0.34501 0.86698 0.39425 0.0
C319 C 0.50963 0.93275 0.2583 0.0
C320 C 0.55321 0.88799 0.45686 0.0
C321 C 0.57448 0.91517 0.52742 0.0
C322 C 0.56383 0.8878 0.5497 0.0
C323 C 0.5427 0.86102 0.47974 0.0
C324 C 0.56912 0.91484 0.48089 0.0
C325 C 0.54807 0.86098 0.52594 0.0
C326 C 0.4859 0.94202 0.36357 0.0
C327 C 0.5472 0.88807 0.40821 0.0
H328 H 0.3421 0.72462 0.28666 0.0
H329 H 0.42537 0.80165 0.31575 0.0
H330 H 0.38945 0.74902 0.32815 0.0
H331 H 0.36725 0.80737 0.21912 0.0
H332 H 0.56794 0.88702 0.58532 0.0
H333 H 0.53035 0.84005 0.4619 0.0
H334 H 0.5771 0.93557 0.46329 0.0
H335 H 0.54001 0.84007 0.54341 0.0
Tb336 Tb 0.56423 0.44493 0.65733 0.0
C337 C 0.62995 0.58829 0.66388 0.0
N338 N 0.63691 0.56819 0.64763 0.0
C339 C 0.65976 0.59903 0.58286 0.0
C340 C 0.63664 0.61418 0.63968 0.0
C341 C 0.65273 0.57374 0.60842 0.0
C342 C 0.65124 0.61911 0.59818 0.0
C343 C 0.61294 0.60523 0.7271 0.0
C344 C 0.61823 0.58382 0.70653 0.0
C345 C 0.61764 0.63019 0.70225 0.0
C346 C 0.62949 0.63466 0.65849 0.0
Tb347 Tb 0.62036 0.52521 0.68806 0.0
N348 N 0.61455 0.55967 0.72922 0.0
C349 C 0.60437 0.6015 0.77249 0.0
C350 C 0.60815 0.55706 0.77439 0.0
C351 C 0.60262 0.57764 0.7965 0.0
H352 H 0.65925 0.5583 0.59612 0.0
H353 H 0.59715 0.57513 0.83208 0.0
H354 H 0.49524 0.42623 0.68775 0.0
H355 H 0.63817 0.41257 0.7379 0.0
H356 H 0.60733 0.53913 0.79365 0.0
H357 H 0.60017 0.61746 0.78968 0.0
H358 H 0.62731 0.44832 0.70287 0.0
H359 H 0.67166 0.60296 0.55132 0.0
H360 H 0.61321 0.64666 0.71709 0.0
H361 H 0.63399 0.6545 0.6402 0.0
H362 H 0.45386 0.38472 0.72791 0.0
H363 H 0.65679 0.63871 0.57843 0.0
H364 H 0.59752 0.36353 0.76219 0.0
N365 N 0.52508 0.41023 0.6986 0.0
C366 C 0.52908 0.38855 0.717 0.0
C367 C 0.47483 0.38548 0.7249 0.0
C368 C 0.50565 0.36392 0.73889 0.0
C369 C 0.49856 0.40933 0.70301 0.0
C370 C 0.47819 0.36242 0.74222 0.0
N371 N 0.58017 0.41886 0.7013 0.0
C372 C 0.60894 0.42658 0.71055 0.0
C373 C 0.56305 0.37204 0.73983 0.0
C374 C 0.55754 0.39267 0.71749 0.0
C375 C 0.59238 0.37881 0.74527 0.0
C376 C 0.61538 0.40649 0.73162 0.0
H377 H 0.45965 0.34394 0.75899 0.0
H378 H 0.49281 0.32285 0.77434 0.0
H379 H 0.54307 0.32989 0.77503 0.0
O380 O 0.56742 0.41901 0.60528 0.0
O381 O 0.568 0.44785 0.73427 0.0
O382 O 0.6038 0.49599 0.75333 0.0
O383 O 0.5254 0.41385 0.62293 0.0
O384 O 0.61052 0.45825 0.6376 0.0
O385 O 0.63174 0.50782 0.62766 0.0
O386 O 0.66305 0.55756 0.70833 0.0
O387 O 0.59679 0.52571 0.62254 0.0
O388 O 0.56309 0.47677 0.60337 0.0
O389 O 0.64963 0.5108 0.70896 0.0
O390 O 0.57843 0.50767 0.72093 0.0
O391 O 0.54439 0.47219 0.67361 0.0
C392 C 0.58441 0.46759 0.76604 0.0
C393 C 0.52688 0.36964 0.61005 0.0
C394 C 0.53593 0.32789 0.61629 0.0
C395 C 0.50671 0.30964 0.63123 0.0
C396 C 0.49751 0.35085 0.62435 0.0
C397 C 0.48766 0.32116 0.6353 0.0
C398 C 0.54567 0.3578 0.60577 0.0
C399 C 0.63362 0.48358 0.62532 0.0
C400 C 0.53879 0.4019 0.60243 0.0
C401 C 0.51068 0.34223 0.75812 0.0
C402 C 0.5393 0.34621 0.7584 0.0
C403 C 0.57596 0.50617 0.59405 0.0
C404 C 0.67783 0.53996 0.77072 0.0
C405 C 0.67594 0.55692 0.84731 0.0
C406 C 0.68652 0.53873 0.86411 0.0
C407 C 0.68844 0.52203 0.78811 0.0
C408 C 0.6725 0.5579 0.80046 0.0
C409 C 0.69303 0.5217 0.83456 0.0
C410 C 0.55113 0.48844 0.71035 0.0
C411 C 0.66919 0.53755 0.72272 0.0
H412 H 0.4985 0.28643 0.63881 0.0
H413 H 0.48234 0.35923 0.628 0.0
H414 H 0.46511 0.30698 0.64673 0.0
H415 H 0.5679 0.37189 0.59287 0.0
H416 H 0.68979 0.53769 0.89999 0.0
H417 H 0.69255 0.50786 0.76592 0.0
H418 H 0.6644 0.57179 0.78725 0.0
H419 H 0.7011 0.50771 0.84781 0.0
Tb420 Tb 0.09954 0.5693 0.98477 0.0
C421 C 0.14569 0.69969 1.01779 0.0
N422 N 0.13141 0.67622 1.04611 0.0
C423 C 0.1652 0.7045 1.10575 0.0
C424 C 0.17098 0.72626 1.03204 0.0
C425 C 0.14018 0.6787 1.09019 0.0
C426 C 0.18085 0.7283 1.07645 0.0
C427 C 0.14935 0.72093 0.94395 0.0
C428 C 0.13478 0.69704 0.97449 0.0
C429 C 0.17503 0.74708 0.95751 0.0
C430 C 0.18563 0.74985 1.00162 0.0
Tb431 Tb 0.08987 0.63542 1.01861 0.0
N432 N 0.10949 0.67154 0.96285 0.0
C433 C 0.13727 0.71825 0.90106 0.0
C434 C 0.09642 0.67024 0.92208 0.0
C435 C 0.11044 0.69301 0.8904 0.0
H436 H 0.12782 0.66118 0.11402 0.0
H437 H 0.10007 0.69137 0.85809 0.0
H438 H 0.15681 0.61254 1.05689 0.0
H439 H 0.09838 0.51829 0.82594 0.0
H440 H 0.07465 0.65264 0.91339 0.0
H441 H 0.14782 0.73602 0.87663 0.0
H442 H 0.07741 0.53387 0.888 0.0
H443 H 0.1722 0.70613 0.14052 0.0
H444 H 0.18651 0.76553 0.93441 0.0
H445 H 0.20509 0.77037 1.01196 0.0
H446 H 0.20846 0.62626 1.06535 0.0
H447 H 0.20024 0.74827 1.0886 0.0
H448 H 0.15068 0.53049 0.82934 0.0
N449 N 0.14908 0.58547 0.99799 0.0
C450 C 0.16247 0.57762 0.96553 0.0
C451 C 0.19563 0.61209 1.03753 0.0
C452 C 0.19262 0.58575 0.96878 0.0
C453 C 0.1657 0.60347 1.03298 0.0
C454 C 0.20906 0.60287 1.00568 0.0
N455 N 0.11768 0.55577 0.92505 0.0
C456 C 0.10049 0.54017 0.88907 0.0
C457 C 0.15908 0.55357 0.89346 0.0
C458 C 0.1462 0.56225 0.92791 0.0
C459 C 0.14166 0.53771 0.85632 0.0
C460 C 0.11219 0.53092 0.85417 0.0
H461 H 0.23229 0.60973 1.00926 0.0
H462 H 0.22863 0.58302 0.93682 0.0
H463 H 0.19909 0.55445 0.87113 0.0
O464 O 0.09789 0.52857 0.99628 0.0
O465 O 0.10679 0.57634 1.06147 0.0
O466 O 0.09701 0.61378 1.08368 0.0
O467 O 0.05898 0.53022 0.97414 0.0
O468 O 0.12895 0.61358 0.95057 0.0
O469 O 0.13407 0.64036 1.01278 0.0
O470 O 0.06664 0.63542 1.0764 0.0
O471 O 0.06341 0.61128 0.95163 0.0
O472 O 0.07563 0.5764 0.92618 0.0
O473 O 0.07072 0.66281 1.01985 0.0
O474 O 0.05315 0.59272 1.00404 0.0
O475 O 0.06602 0.56262 1.03495 0.0
C476 C 0.10438 0.59286 1.09481 0.0
C477 C 0.05732 0.48417 0.96457 0.0
C478 C 0.06294 0.44656 0.92298 0.0
C479 C 0.03209 0.42744 0.9255 0.0
C480 C 0.02669 0.46461 0.96689 0.0
C481 C 0.01424 0.43651 0.94735 0.0
C482 C 0.07536 0.47506 0.943 0.0
C483 C 0.14467 0.63878 0.97341 0.0
C484 C 0.06959 0.51334 0.98668 0.0
C485 C 0.20557 0.5771 0.93469 0.0
C486 C 0.18881 0.56093 0.89721 0.0
C487 C 0.06148 0.5915 0.91902 0.0
C488 C 0.06395 0.67813 1.09245 0.0
C489 C 0.04285 0.69145 0.15555 0.0
C490 C 0.06904 0.71912 0.15884 0.0
C491 C 0.0898 0.70608 1.09519 0.0
C492 C 0.04056 0.67112 0.12231 0.0
C493 C 0.0923 0.72645 0.12843 0.0
C494 C 0.04748 0.57232 1.03302 0.0
C495 C 0.06063 0.65498 1.06057 0.0
H496 H 0.02156 0.4056 0.91017 0.0
H497 H 0.01234 0.47109 0.98385 0.0
H498 H 0.9906 0.42183 0.94887 0.0
H499 H 0.09886 0.49076 0.94045 0.0
H500 H 0.07134 0.73507 0.18448 0.0
H501 H 0.10798 0.71211 1.07206 0.0
H502 H 0.02068 0.64938 0.12035 0.0
H503 H 0.11235 0.74791 0.13075 0.0
Tb504 Tb 0.87711 0.46387 0.54297 0.0
C505 C 0.94107 0.60635 0.55515 0.0
N506 N 0.91469 0.58258 0.56688 0.0
C507 C 0.91415 0.60754 0.63496 0.0
C508 C 0.95572 0.63136 0.58368 0.0
C509 C 0.90042 0.58333 0.60524 0.0
C510 C 0.94218 0.63146 0.62452 0.0
C511 C 0.97786 0.63173 0.49703 0.0
C512 C 0.95191 0.60649 0.51263 0.0
C513 C 0.9937 0.65606 0.52627 0.0
C514 C 0.98263 0.65588 0.56957 0.0
Tb515 Tb 0.89467 0.54345 0.51742 0.0
N516 N 0.93542 0.58292 0.4852 0.0
C517 C 0.98627 0.63227 0.45198 0.0
C518 C 0.94251 0.58419 0.44042 0.0
C519 C 0.9682 0.60861 0.42334 0.0
H520 H 0.8788 0.56485 0.61343 0.0
H521 H 0.97395 0.60922 0.38807 0.0
H522 H 0.93885 0.47113 0.58877 0.0
H523 H 0.79587 0.37926 0.43217 0.0
H524 H 0.9285 0.5662 0.4178 0.0
H525 H 0.00602 0.65128 0.43859 0.0
H526 H 0.8161 0.42325 0.48226 0.0
H527 H 0.90313 0.60773 0.66587 0.0
H528 H 0.01389 0.67554 0.51514 0.0
H529 H -0.00554 0.67522 0.59119 0.0
H530 H 0.97111 0.44971 0.57765 0.0
H531 H 0.95268 0.65026 0.64743 0.0
H532 H 0.82575 0.3556 0.41478 0.0
N533 N 0.90772 0.44412 0.53832 0.0
C534 C 0.89945 0.42121 0.5088 0.0
C535 C 0.95105 0.44154 0.55793 0.0
C536 C 0.91699 0.40792 0.50196 0.0
C537 C 0.93268 0.45372 0.564 0.0
C538 C 0.94333 0.41872 0.52647 0.0
N539 N 0.85672 0.42412 0.49407 0.0
C540 C 0.82892 0.41254 0.47602 0.0
C541 C 0.86247 0.38583 0.45721 0.0
C542 C 0.87284 0.41061 0.48632 0.0
C543 C 0.83454 0.37462 0.43732 0.0
C544 C 0.81758 0.38788 0.44713 0.0
H545 H 0.95753 0.40925 0.52199 0.0
H546 H 0.92067 0.37363 0.46558 0.0
H547 H 0.87271 0.35405 0.42672 0.0
O548 O 0.84744 0.45418 0.59748 0.0
O549 O 0.87398 0.46711 0.46719 0.0
O550 O 0.88903 0.51642 0.44998 0.0
O551 O 0.86364 0.42477 0.58038 0.0
O552 O 0.84013 0.47363 0.53057 0.0
O553 O 0.86117 0.51637 0.56837 0.0
O554 O 0.88388 0.57624 0.50151 0.0
O555 O 0.91694 0.54284 0.58535 0.0
O556 O 0.90823 0.49499 0.59844 0.0
O557 O 0.85311 0.53024 0.48778 0.0
O558 O 0.9233 0.53211 0.48362 0.0
O559 O 0.92355 0.49808 0.5317 0.0
C560 C 0.88049 0.48806 0.43616 0.0
C561 C 0.81331 0.40211 0.59859 0.0
C562 C 0.77798 0.34924 0.61171 0.0
C563 C 0.75894 0.35068 0.57947 0.0
C564 C 0.79284 0.40323 0.56934 0.0
C565 C 0.76615 0.37761 0.55916 0.0
C566 C 0.80554 0.37528 0.62035 0.0
C567 C 0.83653 0.49289 0.5553 0.0
C568 C 0.84381 0.42768 0.60268 0.0
C569 C 0.90742 0.38402 0.47153 0.0
C570 C 0.88013 0.37289 0.44938 0.0
C571 C 0.92089 0.52373 0.61136 0.0
C572 C 0.85241 0.56494 0.43829 0.0
C573 C 0.86935 0.58968 0.36554 0.0
C574 C 0.83972 0.5764 0.35119 0.0
C575 C 0.82297 0.55199 0.42354 0.0
C576 C 0.87544 0.5841 0.40938 0.0
C577 C 0.81669 0.55784 0.38024 0.0
C578 C 0.9341 0.5158 0.49669 0.0
C579 C 0.85868 0.55738 0.48317 0.0
H580 H 0.73816 0.33122 0.57034 0.0
H581 H 0.79786 0.42368 0.55312 0.0
H582 H 0.75101 0.37862 0.5353 0.0
H583 H 0.82097 0.37522 0.64461 0.0
H584 H 0.83437 0.58046 0.31764 0.0
H585 H 0.80488 0.53716 0.44539 0.0
H586 H 0.89816 0.59415 0.42053 0.0
H587 H 0.79392 0.54773 0.36899 0.0
Tb588 Tb 0.40591 0.87975 0.8842 0.0
C589 C 0.33294 0.94716 0.90031 0.0
N590 N 0.32941 0.92014 0.91027 0.0
C591 C 0.30412 0.91874 0.97883 0.0
C592 C 0.3232 0.96168 0.93011 0.0
C593 C 0.31397 0.90514 0.9479 0.0
C594 C 0.30918 0.94734 0.97026 0.0
C595 C 0.34574 0.98564 0.84463 0.0
C596 C 0.34402 0.9589 0.85831 0.0
C597 C 0.33786 0.00129 0.8752 0.0
C598 C 0.3266 0.98931 0.91791 0.0
Tb599 Tb 0.34728 0.90035 0.85847 0.0
N600 N 0.35046 0.94261 0.82944 0.0
C601 C 0.35393 0.99505 0.80004 0.0
C602 C 0.35661 0.95071 0.78512 0.0
C603 C 0.35886 0.9772 0.76994 0.0
H604 H 0.30999 0.88302 0.95457 0.0
H605 H 0.3642 0.98373 0.73498 0.0
H606 H 0.46225 0.93851 0.93601 0.0
H607 H 0.40548 0.79634 0.77412 0.0
H608 H 0.36 0.93682 0.76141 0.0
H609 H 0.35541 0.01542 0.7881 0.0
H610 H 0.38333 0.81802 0.82446 0.0
H611 H 0.2926 0.90715 1.00918 0.0
H612 H 0.33935 0.02206 0.86555 0.0
H613 H 0.31959 0.00104 0.94054 0.0
H614 H 0.51637 0.96754 0.92951 0.0
H615 H 0.30134 0.95773 0.9941 0.0
H616 H 0.45959 0.82351 0.76023 0.0
N617 N 0.4569 0.90666 0.88567 0.0
C618 C 0.4711 0.8974 0.85721 0.0
C619 C 0.50389 0.94785 0.90888 0.0
C620 C 0.50223 0.9133 0.85269 0.0
C621 C 0.47298 0.93116 0.91241 0.0
C622 C 0.51859 0.93906 0.87856 0.0
N623 N 0.42447 0.85712 0.83869 0.0
C624 C 0.40701 0.82991 0.8189 0.0
C625 C 0.46787 0.86026 0.8043 0.0
C626 C 0.45426 0.8716 0.83298 0.0
C627 C 0.45 0.83302 0.78252 0.0
C628 C 0.41946 0.81761 0.79029 0.0
H629 H 0.54253 0.95205 0.87586 0.0
H630 H 0.53982 0.91482 0.81868 0.0
H631 H 0.5097 0.86809 0.7766 0.0
O632 O 0.38418 0.85975 0.94506 0.0
O633 O 0.39934 0.87634 0.80835 0.0
O634 O 0.36772 0.89424 0.79071 0.0
O635 O 0.42054 0.85487 0.92073 0.0
O636 O 0.35946 0.84404 0.86662 0.0
O637 O 0.3378 0.86416 0.90637 0.0
O638 O 0.30486 0.89269 0.84191 0.0
O639 O 0.37064 0.92254 0.92608 0.0
O640 O 0.40976 0.91403 0.93733 0.0
O641 O 0.31682 0.85968 0.82739 0.0
O642 O 0.38807 0.92842 0.82493 0.0
O643 O 0.42261 0.92686 0.87054 0.0
C644 C 0.38614 0.8841 0.77707 0.0
C645 C 0.37785 0.81166 0.94863 0.0
C646 C 0.33125 0.76881 0.97471 0.0
C647 C 0.33406 0.75138 0.94061 0.0
C648 C 0.38109 0.79308 0.9174 0.0
C649 C 0.35905 0.76335 0.91288 0.0
C650 C 0.35345 0.79916 0.978 0.0
C651 C 0.33668 0.83976 0.89171 0.0
C652 C 0.39766 0.8444 0.94765 0.0
C653 C 0.51596 0.90281 0.82286 0.0
C654 C 0.49881 0.87625 0.79885 0.0
C655 C 0.39421 0.92698 0.95092 0.0
C656 C 0.28383 0.86278 0.77708 0.0
C657 C 0.27874 0.88297 0.70576 0.0
C658 C 0.26278 0.85399 0.68801 0.0
C659 C 0.26762 0.83394 0.7591 0.0
C660 C 0.28865 0.88708 0.75055 0.0
C661 C 0.25696 0.8296 0.71484 0.0
C662 C 0.41542 0.93785 0.83625 0.0
C663 C 0.29681 0.8673 0.82251 0.0
H664 H 0.31725 0.72839 0.9354 0.0
H665 H 0.40034 0.80155 0.89586 0.0
H666 H 0.36132 0.7495 0.88763 0.0
H667 H 0.35229 0.81346 1.00356 0.0
H668 H 0.25495 0.85028 0.65345 0.0
H669 H 0.26357 0.81486 0.77909 0.0
H670 H 0.30104 0.90936 0.76412 0.0
H671 H 0.24462 0.80732 0.70103 0.0
Tb672 Tb 0.5482 0.42065 0.2274 0.0
C673 C 0.41161 0.36717 0.25273 0.0
N674 N 0.43227 0.35872 0.25747 0.0
C675 C 0.41044 0.33541 0.32801 0.0
C676 C 0.39019 0.36103 0.2864 0.0
C677 C 0.4313 0.34202 0.29366 0.0
C678 C 0.39003 0.34525 0.32464 0.0
C679 C 0.39033 0.39004 0.2065 0.0
C680 C 0.41187 0.38169 0.21352 0.0
C681 C 0.36949 0.38486 0.24054 0.0
C682 C 0.36943 0.37041 0.28043 0.0
Tb683 Tb 0.4661 0.3722 0.20016 0.0
N684 N 0.43217 0.386 0.1812 0.0
C685 C 0.38987 0.40251 0.16497 0.0
C686 C 0.43089 0.3969 0.13989 0.0
C687 C 0.41003 0.40564 0.13134 0.0
H688 H 0.4469 0.33427 0.29668 0.0
H689 H 0.40929 0.41443 1.09862 0.0
H690 H 0.55771 0.47908 0.28843 0.0
H691 H 0.6248 0.41017 0.11643 0.0
H692 H 0.44558 0.39833 0.11312 0.0
H693 H 0.37346 0.40888 0.15804 0.0
H694 H 0.58211 0.39209 0.16866 0.0
H695 H 0.41011 0.32272 0.35707 0.0
H696 H 0.35295 0.39141 0.23597 0.0
H697 H 0.35291 0.36611 0.30607 0.0
H698 H 0.59087 0.53316 0.28824 0.0
H699 H 0.37392 0.34007 0.35131 0.0
H700 H 0.65606 0.4641 1.10155 0.0
N701 N 0.57839 0.47123 0.23195 0.0
C702 C 0.60113 0.48362 0.202 0.0
C703 C 0.59386 0.5195 0.26349 0.0
C704 C 0.62074 0.51458 0.20074 0.0
C705 C 0.57496 0.48865 0.26335 0.0
C706 C 0.61669 0.53257 0.23176 0.0
N707 N 0.58835 0.43522 0.18111 0.0
C708 C 0.59559 0.41564 0.16211 0.0
C709 C 0.63107 0.47628 0.14657 0.0
C710 C 0.60625 0.46486 0.17541 0.0
C711 C 0.63722 0.45624 0.12409 0.0
C712 C 0.61969 0.4258 0.13253 0.0
H713 H 0.63154 0.55642 0.23228 0.0
H714 H 0.65958 0.55014 0.16809 0.0
H715 H 0.66861 0.5165 0.12045 0.0
O716 O 0.54439 0.39579 0.28578 0.0
O717 O 0.54407 0.41367 0.15084 0.0
O718 O 0.49378 0.38749 0.13319 0.0
O719 O 0.58719 0.42953 0.26024 0.0
O720 O 0.5312 0.37325 0.20732 0.0
O721 O 0.48732 0.35294 0.24269 0.0
O722 O 0.42531 0.33832 0.1751 0.0
O723 O 0.47111 0.39927 0.26474 0.0
O724 O 0.52089 0.42818 0.28271 0.0
O725 O 0.46396 0.33393 0.1713 0.0
O726 O 0.48766 0.41393 0.1659 0.0
O727 O 0.52469 0.44452 0.21379 0.0
C728 C 0.52265 0.40183 0.11952 0.0
C729 C 0.58546 0.41584 0.33612 0.0
C730 C 0.6036 0.40034 0.40019 0.0
C731 C 0.61285 0.4281 0.42083 0.0
C732 C 0.59455 0.44332 0.35708 0.0
C733 C 0.60832 0.44941 0.39931 0.0
C734 C 0.59018 0.39464 0.3575 0.0
C735 C 0.50997 0.35032 0.2291 0.0
C736 C 0.57315 0.40912 0.29051 0.0
C737 C 0.64448 0.52636 0.16999 0.0
C738 C 0.64961 0.50722 0.14285 0.0
C739 C 0.49222 0.41903 0.29243 0.0
C740 C 0.43111 0.31573 0.1095 0.0
C741 C 0.41546 0.32366 1.03553 0.0
C742 C 0.42249 0.30311 1.01658 0.0
C743 C 0.43788 0.29522 1.09003 0.0
C744 C 0.41987 0.32969 1.08201 0.0
C745 C 0.43355 0.28896 1.04379 0.0
C746 C 0.50919 0.44028 0.17703 0.0
C747 C 0.43676 0.32333 0.15795 0.0
H748 H 0.62273 0.43303 0.45415 0.0
H749 H 0.59133 0.46004 0.34064 0.0
H750 H 0.61532 0.4706 0.41559 0.0
H751 H 0.58346 0.37364 0.3406 0.0
H752 H 0.41911 0.29767 0.98096 0.0
H753 H 0.44667 0.28423 0.11052 0.0
H754 H 0.41488 0.34568 1.09671 0.0
H755 H 0.43883 0.27312 1.02895 0.0
Tb756 Tb 0.12907 0.54996 0.55281 0.0
C757 C 0.05224 0.40609 0.55663 0.0
N758 N 0.08026 0.42737 0.56721 0.0
C759 C 0.07961 0.39895 0.63128 0.0
C760 C 0.03633 0.38064 0.58366 0.0
C761 C 0.09449 0.42373 0.60317 0.0
C762 C 0.05026 0.37746 0.62182 0.0
C763 C 0.01185 0.38694 0.5031 0.0
C764 C 0.04029 0.40923 0.51715 0.0
C765 C -0.00479 0.3621 0.5308 0.0
C766 C 0.00745 0.35894 0.57105 0.0
Tb767 Tb 0.10179 0.46865 0.52238 0.0
N768 N 0.05736 0.43331 0.49123 0.0
C769 C 0.00142 0.38987 0.46109 0.0
C770 C 0.04778 0.43544 0.4491 0.0
C771 C 0.01968 0.41401 0.43369 0.0
H772 H 0.1171 0.44025 0.61089 0.0
H773 H 0.01215 0.41614 0.40064 0.0
H774 H 0.07567 0.55504 0.60526 0.0
H775 H 0.21132 0.62223 0.43244 0.0
H776 H 0.06161 0.45383 0.42723 0.0
H777 H 0.97969 0.37326 0.44904 0.0
H778 H 0.18775 0.58053 0.48671 0.0
H779 H 0.09076 0.39648 0.66028 0.0
H780 H 0.97319 0.34487 0.52085 0.0
H781 H -0.0053 0.33933 0.59156 0.0
H782 H 0.05075 0.58462 0.599 0.0
H783 H 0.0388 0.35826 0.64355 0.0
H784 H 0.18866 0.65335 0.41781 0.0
N785 N 0.10595 0.57756 0.55166 0.0
C786 C 0.11604 0.60001 0.52139 0.0
C787 C 0.06904 0.58912 0.57679 0.0
C788 C 0.1029 0.61783 0.51708 0.0
C789 C 0.08312 0.57231 0.58006 0.0
C790 C 0.07884 0.61187 0.54493 0.0
N791 N 0.15169 0.58747 0.50104 0.0
C792 C 0.1778 0.59408 0.48039 0.0
C793 C 0.15268 0.62945 0.46511 0.0
C794 C 0.14015 0.60548 0.49555 0.0
C795 C 0.17831 0.63515 0.44157 0.0
C796 C 0.19114 0.61761 0.44971 0.0
H797 H 0.06802 0.62496 0.5426 0.0
H798 H 0.10467 0.65507 0.48159 0.0
H799 H 0.14854 0.66543 0.43626 0.0
O800 O 0.1722 0.57071 0.57849 0.0
O801 O 0.12391 0.54625 0.47615 0.0
O802 O 0.10711 0.49679 0.45708 0.0
O803 O 0.14023 0.58025 0.6073 0.0
O804 O 0.16073 0.53322 0.54167 0.0
O805 O 0.13615 0.48937 0.57546 0.0
O806 O 0.10901 0.43492 0.49798 0.0
O807 O 0.08225 0.46945 0.59212 0.0
O808 O 0.09917 0.51903 0.61061 0.0
O809 O 0.14225 0.48107 0.48929 0.0
O810 O 0.07569 0.48601 0.49818 0.0
O811 O 0.08119 0.52049 0.55086 0.0
C812 C 0.1158 0.52523 0.44422 0.0
C813 C 0.17684 0.58113 0.65492 0.0
C814 C 0.17807 0.54861 0.71255 0.0
C815 C 0.19841 0.57379 0.73739 0.0
C816 C 0.19706 0.60608 0.67982 0.0
C817 C 0.20788 0.60236 0.72093 0.0
C818 C 0.16775 0.55263 0.67106 0.0
C819 C 0.16182 0.51287 0.5667 0.0
C820 C 0.16694 0.58455 0.61042 0.0
C821 C 0.1145 0.64117 0.48563 0.0
C822 C 0.13946 0.64705 0.45979 0.0
C823 C 0.08261 0.48972 0.62109 0.0
C824 C 0.13577 0.44824 0.42964 0.0
C825 C 0.11116 0.42897 0.35693 0.0
C826 C 0.13911 0.4402 0.3364 0.0
C827 C 0.16341 0.45927 0.40865 0.0
C828 C 0.10994 0.43301 0.40361 0.0
C829 C 0.16502 0.45514 0.36223 0.0
C830 C 0.06626 0.50163 0.5187 0.0
C831 C 0.13376 0.45365 0.47811 0.0
H832 H 0.20624 0.57147 0.77009 0.0
H833 H 0.20466 0.6283 0.6673 0.0
H834 H 0.2234 0.62165 0.74029 0.0
H835 H 0.1525 0.5335 0.65113 0.0
H836 H 0.14098 0.43723 0.30058 0.0
H837 H 0.18367 0.47121 0.42806 0.0
H838 H 0.08874 0.42468 0.41977 0.0
H839 H 0.18642 0.46368 0.34617 0.0
Tb840 Tb 0.57597 0.12855 0.89275 0.0
C841 C 0.63947 0.04864 0.89297 0.0
N842 N 0.64706 0.07673 0.905 0.0
C843 C 0.67403 0.07409 0.96865 0.0
C844 C 0.64814 0.03168 0.91897 0.0
C845 C 0.66495 0.09002 0.94152 0.0
C846 C 0.66526 0.04463 0.95766 0.0
C847 C 0.61763 0.0093 0.83727 0.0
C848 C 0.62451 0.03772 0.85297 0.0
C849 C 0.62486 0.99158 0.86394 0.0
C850 C 0.64013 0.00277 0.90477 0.0
Tb851 Tb 0.62864 0.10007 0.86182 0.0
N852 N 0.61845 0.05582 0.82813 0.0
C853 C 0.6046 2e-05 0.79467 0.0
C854 C 0.60713 0.04738 0.78542 0.0
C855 C 0.59979 0.01937 0.76833 0.0
H856 H 0.67162 0.11265 0.95048 0.0
H857 H 0.59045 0.01275 0.73483 0.0
H858 H 0.51628 0.07521 0.94323 0.0
H859 H 0.58932 0.21287 0.77427 0.0
H860 H 0.60341 0.06205 0.76431 0.0
H861 H 0.59898 0.97837 0.78132 0.0
H862 H 0.60602 0.18798 0.82816 0.0
H863 H 0.68767 0.0845 0.99808 0.0
H864 H 0.61948 0.96955 0.85274 0.0
H865 H 0.64629 0.98921 0.92447 0.0
H866 H 0.4619 0.05124 0.93564 0.0
H867 H 0.67237 0.03236 0.97863 0.0
H868 H 0.53577 0.19132 0.75856 0.0
N869 N 0.52531 0.10623 0.89036 0.0
C870 C 0.51371 0.11703 0.86012 0.0
C871 C 0.47622 0.06968 0.91402 0.0
C872 C 0.48285 0.10448 0.85512 0.0
C873 C 0.50705 0.08322 0.91804 0.0
C874 C 0.46404 0.08022 0.88218 0.0
N875 N 0.56244 0.15231 0.84123 0.0
C876 C 0.58263 0.17853 0.82138 0.0
C877 C 0.52239 0.15464 0.80487 0.0
C878 C 0.53301 0.14135 0.83513 0.0
C879 C 0.54299 0.1804 0.78216 0.0
C880 C 0.57324 0.19261 0.79091 0.0
H881 H 0.44017 0.06983 0.87931 0.0
H882 H 0.44826 0.10747 0.81927 0.0
H883 H 0.48298 0.15166 0.77544 0.0
O884 O 0.59876 0.17171 0.91909 0.0
O885 O 0.57461 0.12387 0.81606 0.0
O886 O 0.60687 0.10694 0.79663 0.0
O887 O 0.55715 0.13957 0.94763 0.0
O888 O 0.62483 0.15968 0.884 0.0
O889 O 0.64213 0.13321 0.9168 0.0
O890 O 0.66976 0.10758 0.8384 0.0
O891 O 0.60804 0.08061 0.93149 0.0
O892 O 0.57571 0.09775 0.94971 0.0
O893 O 0.6573 0.14107 0.83038 0.0
O894 O 0.58519 0.07496 0.83688 0.0
O895 O 0.55628 0.08034 0.88953 0.0
C896 C 0.58753 0.11605 0.78396 0.0
C897 C 0.59322 0.17616 0.99559 0.0
C898 C 0.62714 0.17728 1.05278 0.0
C899 C 0.62321 0.19825 1.07745 0.0
C900 C 0.58943 0.19702 1.02032 0.0
C901 C 0.60446 0.20806 1.06116 0.0
C902 C 0.61217 0.1666 1.01168 0.0
C903 C 0.64557 0.15949 0.90914 0.0
C904 C 0.57974 0.16635 0.95106 0.0
C905 C 0.4719 0.11685 0.82383 0.0
C906 C 0.49166 0.14199 0.79886 0.0
C907 C 0.58807 0.08098 0.96017 0.0
C908 C 0.68356 0.13487 0.77063 0.0
C909 C 0.6779 0.11053 0.69741 0.0
C910 C 0.69406 0.13868 0.67717 0.0
C911 C 0.69961 0.16272 0.74991 0.0
C912 C 0.67315 0.10906 0.74423 0.0
C913 C 0.70495 0.16456 0.70339 0.0
C914 C 0.56025 0.0653 0.85758 0.0
C915 C 0.67609 0.13257 0.81908 0.0
H916 H 0.63386 0.20638 0.10989 0.0
H917 H 0.57519 0.20499 1.00782 0.0
H918 H 0.60143 0.2241 1.08038 0.0
H919 H 0.6153 0.1508 0.99193 0.0
H920 H 0.69849 0.14074 0.64124 0.0
H921 H 0.70773 0.18296 0.7696 0.0
H922 H 0.66071 0.08768 0.76018 0.0
H923 H 0.71735 0.18613 0.68753 0.0
Tb924 Tb 0.45914 0.58243 0.22459 0.0
C925 C 0.5828 0.65445 0.28754 0.0
N926 N 0.56266 0.66115 0.27013 0.0
C927 C 0.57585 0.69899 0.32662 0.0
C928 C 0.59942 0.66915 0.32633 0.0
C929 C 0.55958 0.6836 0.28842 0.0
C930 C 0.59576 0.69167 0.34578 0.0
C931 C 0.60439 0.62254 0.28691 0.0
C932 C 0.58525 0.63135 0.26792 0.0
C933 C 0.62109 0.63728 0.32541 0.0
C934 C 0.61869 0.66056 0.34497 0.0
Tb935 Tb 0.54028 0.63664 0.20485 0.0
N936 N 0.56838 0.61716 0.2309 0.0
C937 C 0.60618 0.59914 0.26671 0.0
C938 C 0.5709 0.59489 0.21033 0.0
C939 C 0.5895 0.58543 0.22814 0.0
H940 H 0.54506 0.6902 0.27356 0.0
H941 H 0.59123 0.56784 0.21143 0.0
H942 H 0.44291 0.51398 0.24952 0.0
H943 H 0.39805 0.62323 0.13038 0.0
H944 H 0.5597 0.58487 0.17921 0.0
H945 H 0.62067 0.59178 0.28029 0.0
H946 H 0.43581 0.62719 0.18445 0.0
H947 H 0.57316 0.71664 0.3411 0.0
H948 H 0.63588 0.63077 0.34043 0.0
H949 H 0.63159 0.67157 0.37482 0.0
H950 H 0.40846 0.463 0.22147 0.0
H951 H 0.60817 0.70354 0.37556 0.0
H952 H 0.36496 0.57523 1.09245 0.0
N953 N 0.42764 0.5345 0.2034 0.0
C954 C 0.40753 0.53057 0.17105 0.0
C955 C 0.40813 0.48186 0.20683 0.0
C956 C 0.38732 0.50203 0.15442 0.0
C957 C 0.42761 0.51067 0.22256 0.0
C958 C 0.38817 0.47757 0.17219 0.0
N959 N 0.42484 0.58208 0.17607 0.0
C960 C 0.42148 0.60614 0.1682 0.0
C961 C 0.38379 0.55181 0.12655 0.0
C962 C 0.40569 0.55509 0.15745 0.0
C963 C 0.3815 0.57682 0.1161 0.0
C964 C 0.40014 0.60397 0.13749 0.0
H965 H 0.3729 0.45526 0.16038 0.0
H966 H 0.35072 0.47704 0.10834 0.0
H967 H 0.3477 0.52064 1.08384 0.0
O968 O 0.45452 0.58907 0.29412 0.0
O969 O 0.46486 0.59412 0.14963 0.0
O970 O 0.51503 0.62337 0.135 0.0
O971 O 0.41669 0.56155 0.25215 0.0
O972 O 0.47251 0.63006 0.24125 0.0
O973 O 0.51708 0.6619 0.20779 0.0
O974 O 0.58214 0.65131 0.17644 0.0
O975 O 0.52591 0.61581 0.27665 0.0
O976 O 0.48763 0.56909 0.26624 0.0
O977 O 0.5641 0.68026 0.17863 0.0
O978 O 0.52318 0.59769 0.16506 0.0
O979 O 0.48333 0.56034 0.20228 0.0
C980 C 0.48661 0.60763 0.11942 0.0
C981 C 0.41143 0.54765 0.32769 0.0
C982 C 0.36447 0.50957 0.36126 0.0
C983 C 0.38093 0.50817 0.39805 0.0
C984 C 0.42707 0.5458 0.36459 0.0
C985 C 0.41179 0.52585 0.39922 0.0
C986 C 0.38047 0.5288 0.3255 0.0
C987 C 0.49316 0.65733 0.22927 0.0
C988 C 0.42588 0.57062 0.29274 0.0
C989 C 0.36628 0.49877 0.12195 0.0
C990 C 0.36451 0.52361 0.10805 0.0
C991 C 0.51175 0.58726 0.29028 0.0
C992 C 0.59238 0.68281 0.11388 0.0
C993 C 0.60707 0.6713 1.0412 0.0
C994 C 0.60858 0.69695 1.02291 0.0
C995 C 0.59419 0.70832 1.09485 0.0
C996 C 0.59854 0.66425 1.08663 0.0
C997 C 0.60203 0.71517 1.04955 0.0
C998 C 0.50288 0.56992 0.16945 0.0
C999 C 0.5849 0.67608 0.16226 0.0
H1000 H 0.37023 0.49473 0.4274 0.0
H1001 H 0.45087 0.56011 0.36719 0.0
H1002 H 0.42376 0.52506 0.4282 0.0
H1003 H 0.36896 0.53034 0.29631 0.0
H1004 H 0.61548 0.70341 0.98833 0.0
H1005 H 0.58969 0.72303 0.11507 0.0
H1006 H 0.59672 0.64423 1.10078 0.0
H1007 H 0.60346 0.73495 1.03517 0.0
H1008 H 0.49226 0.16774 0.22741 0.0
H1009 H 0.53414 0.20722 0.35384 0.0
H1010 H 0.49225 0.21387 0.20758 0.0
H1011 H 0.53574 0.25364 0.33305 0.0
H1012 H 0.55863 0.3434 0.24933 0.0
H1013 H 0.56017 0.2978 0.26648 0.0
H1014 H 0.46609 0.2454 0.24495 0.0
H1015 H 0.46423 0.29102 0.23077 0.0
C1016 C 0.50246 0.18646 0.25046 0.0
C1017 C 0.51389 0.18324 0.29207 0.0
C1018 C 0.50216 0.21311 0.23924 0.0
C1019 C 0.51418 0.23835 0.26831 0.0
C1020 C 0.52649 0.23537 0.30912 0.0
C1021 C 0.52579 0.20846 0.321 0.0
C1022 C 0.53814 0.32223 0.24826 0.0
C1023 C 0.51129 0.32166 0.23833 0.0
C1024 C 0.53902 0.29578 0.25829 0.0
C1025 C 0.51329 0.26709 0.25714 0.0
C1026 C 0.48656 0.26652 0.24625 0.0
C1027 C 0.4855 0.29305 0.23804 0.0
H1028 H 0.34744 0.56479 0.6514 0.0
H1029 H 0.31012 0.47299 0.61273 0.0
H1030 H 0.30098 0.5628 0.63211 0.0
H1031 H 0.26312 0.47075 0.59395 0.0
H1032 H 0.17161 0.46832 0.60085 0.0
H1033 H 0.21815 0.46966 0.6184 0.0
H1034 H 0.26715 0.56109 0.576 0.0
H1035 H 0.22051 0.5596 0.55832 0.0
C1036 C 0.32942 0.54399 0.63871 0.0
C1037 C 0.33354 0.51914 0.63374 0.0
C1038 C 0.30231 0.54286 0.62726 0.0
C1039 C 0.2772 0.5166 0.61097 0.0
C1040 C 0.28117 0.49154 0.60658 0.0
C1041 C 0.30858 0.49284 0.61729 0.0
C1042 C 0.19219 0.48885 0.59513 0.0
C1043 C 0.19138 0.51384 0.57789 0.0
C1044 C 0.21937 0.48959 0.6051 0.0
C1045 C 0.2475 0.51552 0.59912 0.0
C1046 C 0.24661 0.54057 0.58202 0.0
C1047 C 0.21944 0.53969 0.57148 0.0
H1048 H 0.78994 0.33986 1.00522 0.0
H1049 H 0.83719 0.30068 0.94396 0.0
H1050 H 0.74266 0.29476 0.98776 0.0
H1051 H 0.79003 0.2555 0.92689 0.0
H1052 H 0.69966 0.1659 0.93656 0.0
H1053 H 0.74656 0.21075 0.95507 0.0
H1054 H 0.70702 0.26449 0.92778 0.0
H1055 H 0.65999 0.21936 0.90874 0.0
C1056 C 0.7905 0.32175 0.98798 0.0
C1057 C 0.81823 0.32486 0.97588 0.0
C1058 C 0.76298 0.29552 0.97769 0.0
C1059 C 0.76152 0.27065 0.95521 0.0
C1060 C 0.78935 0.27352 0.94426 0.0
C1061 C 0.81683 0.29988 0.954 0.0
C1062 C 0.70065 0.18714 0.93442 0.0
C1063 C 0.67513 0.18814 0.92086 0.0
C1064 C 0.72806 0.21332 0.94494 0.0
C1065 C 0.73157 0.24219 0.9434 0.0
C1066 C 0.70593 0.24319 0.93019 0.0
C1067 C 0.6786 0.21697 0.91886 0.0
H1068 H 0.4499 0.66275 0.27989 0.0
H1069 H 0.53155 0.71662 0.20825 0.0
H1070 H 0.44849 0.70773 0.30098 0.0
H1071 H 0.53097 0.76123 0.23031 0.0
H1072 H 0.51941 0.84229 0.25102 0.0
H1073 H 0.51884 0.79682 0.2286 0.0
H1074 H 0.46041 0.75043 0.33996 0.0
H1075 H 0.46064 0.79605 0.3613 0.0
C1076 C 0.46765 0.68406 0.26841 0.0
C1077 C 0.49078 0.68511 0.24182 0.0
C1078 C 0.46706 0.71042 0.28103 0.0
C1079 C 0.48962 0.73947 0.26794 0.0
C1080 C 0.51258 0.74019 0.24117 0.0
C1081 C 0.51305 0.71399 0.22844 0.0
C1082 C 0.5064 0.82246 0.27093 0.0
C1083 C 0.48977 0.82355 0.30792 0.0
C1084 C 0.50613 0.79581 0.25808 0.0
C1085 C 0.48954 0.76854 0.28185 0.0
C1086 C 0.47321 0.76993 0.3194 0.0
C1087 C 0.47338 0.79658 0.33203 0.0
H1088 H 0.64464 0.4372 0.60609 0.0
H1089 H 0.6904 0.53278 0.61349 0.0
H1090 H 0.69147 0.43902 0.58838 0.0
H1091 H 0.73723 0.53472 0.59592 0.0
H1092 H 0.8237 0.53007 0.60622 0.0
H1093 H 0.77658 0.52791 0.62068 0.0
H1094 H 0.73175 0.44926 0.53769 0.0
H1095 H 0.77928 0.45189 0.52249 0.0
C1096 C 0.66456 0.45877 0.60359 0.0
C1097 C 0.66284 0.48483 0.61112 0.0
C1098 C 0.69185 0.45985 0.59319 0.0
C1099 C 0.71922 0.48705 0.59049 0.0
C1100 C 0.71738 0.51309 0.59793 0.0
C1101 C 0.69003 0.51202 0.60771 0.0
C1102 C 0.80395 0.5122 0.59078 0.0
C1103 C 0.8062 0.49092 0.56354 0.0
C1104 C 0.77644 0.51102 0.59903 0.0
C1105 C 0.74924 0.48832 0.58083 0.0
C1106 C 0.75148 0.467 0.55339 0.0
C1107 C 0.77917 0.46843 0.54465 0.0
H1108 H 0.31673 0.78427 0.84864 0.0
H1109 H 0.29294 0.8241 0.9564 0.0
H1110 H 0.27221 0.73574 0.86473 0.0
H1111 H 0.24947 0.77588 0.97331 0.0
H1112 H 0.19126 0.67934 1.02579 0.0
H1113 H 0.2358 0.72561 1.00498 0.0
H1114 H 0.21336 0.70593 0.86448 0.0
H1115 H 0.16759 0.65964 0.88573 0.0
C1116 C 0.30218 0.78292 0.8758 0.0
C1117 C 0.30917 0.80891 0.90099 0.0
C1118 C 0.27629 0.75479 0.88504 0.0
C1119 C 0.25643 0.75102 0.92068 0.0
C1120 C 0.26362 0.77708 0.9457 0.0
C1121 C 0.28894 0.80517 0.93582 0.0
C1122 C 0.19556 0.68457 0.99025 0.0
C1123 C 0.17479 0.66518 0.95787 0.0
C1124 C 0.22151 0.71154 0.97817 0.0
C1125 C 0.22888 0.72056 0.93273 0.0
C1126 C 0.20902 0.70038 0.89991 0.0
C1127 C 0.18254 0.67345 0.91216 0.0
H1128 H 0.61249 0.11938 1.04918 0.0
H1129 H 0.68 0.20505 1.09938 0.0
H1130 H 0.63232 0.0953 1.09313 0.0
H1131 H 0.70056 0.18057 0.1447 0.0
H1132 H 0.65653 0.12388 0.2749 0.0
H1133 H 0.68095 0.15604 0.21181 0.0
H1134 H 0.66094 0.07959 0.12888 0.0
H1135 H 0.63268 0.04719 0.18994 0.0
C1136 C 0.63247 0.13328 1.06826 0.0
C1137 C 0.6441 0.16408 1.0718 0.0
C1138 C 0.64423 0.11936 1.09367 0.0
C1139 C 0.6677 0.13581 0.12401 0.0
C1140 C 0.68188 0.16708 0.12287 0.0
C1141 C 0.66999 0.18111 1.09723 0.0
C1142 C 0.65744 0.11383 0.24328 0.0
C1143 C 0.64006 0.08295 0.23633 0.0
C1144 C 0.67228 0.13244 0.20706 0.0
C1145 C 0.67056 0.12018 0.16395 0.0
C1146 C 0.66068 0.08959 0.16093 0.0
C1147 C 0.64451 0.07088 0.19642 0.0
H1148 H 0.32329 0.46127 0.41342 0.0
H1149 H 0.32548 0.52189 0.31189 0.0
H1150 H 0.28033 0.46022 0.44666 0.0
H1151 H 0.28141 0.51797 0.34375 0.0
H1152 H 0.33956 0.59185 0.42955 0.0
H1153 H 0.29403 0.55444 0.39451 0.0
H1154 H 0.28265 0.49245 0.49946 0.0
H1155 H 0.3283 0.5296 0.53408 0.0
C1156 C 0.31504 0.47452 0.39806 0.0
C1157 C 0.3313 0.49568 0.36444 0.0
C1158 C 0.2898 0.47345 0.41663 0.0
C1159 C 0.28301 0.49554 0.40425 0.0
C1160 C 0.2904 0.50544 0.35942 0.0
C1161 C 0.31621 0.50777 0.341 0.0
C1162 C 0.327 0.57034 0.44559 0.0
C1163 C 0.33888 0.56274 0.48212 0.0
C1164 C 0.30061 0.54866 0.42569 0.0
C1165 C 0.28795 0.5187 0.43956 0.0
C1166 C 0.29425 0.51425 0.48419 0.0
C1167 C 0.32059 0.53575 0.50444 0.0
H1168 H 0.71791 0.31656 0.83848 0.0
H1169 H 0.79075 0.30094 0.85965 0.0
H1170 H 0.70895 0.29342 0.76603 0.0
H1171 H 0.78092 0.2759 0.7869 0.0
H1172 H 0.81175 0.32873 0.65337 0.0
H1173 H 0.798 0.30054 0.72192 0.0
H1174 H 0.70612 0.27366 0.69826 0.0
H1175 H 0.72051 0.30562 0.63353 0.0
C1176 C 0.7312 0.30683 0.82856 0.0
C1177 C 0.75611 0.31212 0.85366 0.0
C1178 C 0.726 0.2932 0.78638 0.0
C1179 C 0.74583 0.2848 0.76837 0.0
C1180 C 0.76653 0.28409 0.79804 0.0
C1181 C 0.77211 0.2983 0.84001 0.0
C1182 C 0.78859 0.3171 0.66288 0.0
C1183 C 0.7679 0.3221 0.6401 0.0
C1184 C 0.78038 0.3 0.70206 0.0
C1185 C 0.75108 0.28694 0.71845 0.0
C1186 C 0.72932 0.28554 0.68896 0.0
C1187 C 0.73769 0.30379 0.65097 0.0
H1188 H 0.2987 0.70964 1.00208 0.0
H1189 H 0.3062 0.79528 1.02626 0.0
H1190 H 0.27505 0.69277 1.07417 0.0
H1191 H 0.2867 0.77988 1.10049 0.0
H1192 H 0.33315 0.71458 0.20056 0.0
H1193 H 0.30224 0.70072 0.13497 0.0
H1194 H 0.27576 0.76501 0.17085 0.0
H1195 H 0.30907 0.78024 0.23544 0.0
C1196 C 0.29528 0.72506 1.02217 0.0
C1197 C 0.30736 0.75508 1.00968 0.0
C1198 C 0.28193 0.71535 1.06437 0.0
C1199 C 0.28246 0.73597 1.09589 0.0
C1200 C 0.28787 0.76359 1.07914 0.0
C1201 C 0.29998 0.77292 1.03627 0.0
C1202 C 0.32003 0.72513 0.19509 0.0
C1203 C 0.32453 0.74941 0.22154 0.0
C1204 C 0.30188 0.71709 0.15715 0.0
C1205 C 0.28789 0.73331 0.1449 0.0
C1206 C 0.28783 0.75348 0.1769 0.0
C1207 C 0.30672 0.76212 0.21427 0.0
H1208 H 0.56188 0.34151 0.40249 0.0
H1209 H 0.649 0.40431 0.4527 0.0
H1210 H 0.55789 0.30544 0.45548 0.0
H1211 H 0.64573 0.36757 0.50629 0.0
H1212 H 0.52122 0.27626 0.56996 0.0
H1213 H 0.55403 0.2765 0.51164 0.0
H1214 H 0.62717 0.3536 0.57393 0.0
H1215 H 0.59518 0.35104 0.63442 0.0
C1216 C 0.58073 0.34734 0.42415 0.0
C1217 C 0.60511 0.37635 0.42493 0.0
C1218 C 0.57858 0.32631 0.45516 0.0
C1219 C 0.60052 0.33389 0.48864 0.0
C1220 C 0.62723 0.36127 0.48375 0.0
C1221 C 0.62924 0.38252 0.45289 0.0
C1222 C 0.5447 0.29215 0.57267 0.0
C1223 C 0.55529 0.31567 0.60389 0.0
C1224 C 0.56357 0.29282 0.53847 0.0
C1225 C 0.59182 0.31843 0.53363 0.0
C1226 C 0.60453 0.33546 0.57309 0.0
C1227 C 0.5861 0.33399 0.60845 0.0
H1228 H 0.12189 0.46379 0.93439 0.0
H1229 H 0.04718 0.41059 0.8469 0.0
H1230 H 0.15513 0.47287 0.87223 0.0
H1231 H 0.0807 0.41597 0.78679 0.0
H1232 H 0.12065 0.5047 0.70777 0.0
H1233 H 0.09639 0.46051 0.75142 0.0
H1234 H 0.18088 0.47875 0.80609 0.0
H1235 H 0.20554 0.5241 0.761 0.0
C1236 C 0.11251 0.45303 0.90239 0.0
C1237 C 0.08182 0.43898 0.89454 0.0
C1238 C 0.13177 0.45759 0.86671 0.0
C1239 C 0.12036 0.44725 0.8232 0.0
C1240 C 0.09004 0.42609 0.81917 0.0
C1241 C 0.07067 0.4228 0.85412 0.0
C1242 C 0.13438 0.49882 0.72746 0.0
C1243 C 0.16495 0.51838 0.7318 0.0
C1244 C 0.12035 0.47299 0.75272 0.0
C1245 C 0.13647 0.46618 0.78377 0.0
C1246 C 0.16762 0.48375 0.78367 0.0
C1247 C 0.18175 0.50984 0.75815 0.0
H1248 H 0.36852 0.95762 0.99897 0.0
H1249 H 0.44447 0.94689 1.01016 0.0
H1250 H 0.38415 0.98908 1.06728 0.0
H1251 H 0.46046 0.97861 1.07738 0.0
H1252 H 0.49719 0.04771 0.19706 0.0
H1253 H 0.47996 0.01644 0.13003 0.0
H1254 H 0.39525 0.01046 0.14214 0.0
H1255 H 0.41272 0.04214 0.21037 0.0
C1256 C 0.38867 0.96158 1.01537 0.0
C1257 C 0.40443 0.94814 0.99592 0.0
C1258 C 0.39801 0.98031 1.05607 0.0
C1259 C 0.42442 0.98804 1.08155 0.0
C1260 C 0.4402 0.9747 1.06162 0.0
C1261 C 0.43067 0.95573 1.0214 0.0
C1262 C 0.47477 0.04026 0.18626 0.0
C1263 C 0.45739 0.04931 0.21235 0.0
C1264 C 0.4644 0.02133 0.14621 0.0
C1265 C 0.4354 0.00923 0.12691 0.0
C1266 C 0.41777 0.01824 0.15293 0.0
C1267 C 0.42812 0.03709 0.19363 0.0
H1268 H 0.50089 0.41761 0.38881 0.0
H1269 H 0.46063 0.45126 0.29871 0.0
H1270 H 0.48501 0.4361 0.45395 0.0
H1271 H 0.44646 0.47152 0.36364 0.0
H1272 H 0.44964 0.53144 0.49797 0.0
H1273 H 0.46364 0.51169 0.43186 0.0
H1274 H 0.44184 0.43267 0.50588 0.0
H1275 H 0.4264 0.45154 0.57053 0.0
C1276 C 0.48895 0.42919 0.38191 0.0
C1277 C 0.4829 0.43227 0.33559 0.0
C1278 C 0.47939 0.44006 0.42055 0.0
C1279 C 0.46395 0.45642 0.41711 0.0
C1280 C 0.45817 0.45971 0.37066 0.0
C1281 C 0.46666 0.44778 0.33212 0.0
C1282 C 0.44717 0.50956 0.50071 0.0
C1283 C 0.43564 0.49376 0.54229 0.0
C1284 C 0.45556 0.49785 0.46158 0.0
C1285 C 0.45435 0.46955 0.46036 0.0
C1286 C 0.44369 0.45425 0.50248 0.0
C1287 C 0.43445 0.46549 0.5409 0.0
H1288 H 0.06763 0.52166 0.68627 0.0
H1289 H 0.04716 0.43193 0.66237 0.0
H1290 H 0.0348 0.50515 0.75249 0.0
H1291 H 0.01446 0.4154 0.72896 0.0
H1292 H 0.96361 0.39001 0.87283 0.0
H1293 H -0.00278 0.40606 0.80725 0.0
H1294 H 0.9891 0.48382 0.79537 0.0
H1295 H 0.95569 0.46784 0.86068 0.0
C1296 C 0.05638 0.49823 0.69444 0.0
C1297 C 0.06157 0.4789 0.66592 0.0
C1298 C 0.03664 0.48835 0.73366 0.0
C1299 C 0.02005 0.4581 0.74914 0.0
C1300 C 0.02566 0.43884 0.72095 0.0
C1301 C 0.04511 0.44865 0.68131 0.0
C1302 C 0.96859 0.41064 0.85672 0.0
C1303 C 0.95526 0.42683 0.87506 0.0
C1304 C 0.98855 0.42019 0.81765 0.0
C1305 C -0.00232 0.44717 0.79282 0.0
C1306 C 0.98437 0.46331 0.81139 0.0
C1307 C 0.96421 0.45363 0.85009 0.0
H1308 H 0.47949 0.94945 0.19305 0.0
H1309 H 0.56787 0.96741 0.21821 0.0
H1310 H 0.49736 0.9825 0.12732 0.0
H1311 H 0.58581 0.00066 0.15244 0.0
H1312 H 0.61302 0.05005 1.00769 0.0
H1313 H 0.59616 0.01748 1.07434 0.0
H1314 H 0.51979 0.02787 1.08377 0.0
H1315 H 0.53718 0.06113 1.01827 0.0
C1316 C 0.50289 0.9602 0.18533 0.0
C1317 C 0.52139 0.95421 0.21402 0.0
C1318 C 0.51359 0.98011 0.14641 0.0
C1319 C 0.5439 0.9961 0.13145 0.0
C1320 C 0.56238 0.98985 0.15996 0.0
C1321 C 0.55173 0.97012 0.19917 0.0
C1322 C 0.59261 0.04588 1.02362 0.0
C1323 C 0.57731 0.05983 1.00474 0.0
C1324 C 0.58256 0.02653 1.06328 0.0
C1325 C 0.55565 0.01831 1.0877 0.0
C1326 C 0.54031 0.03214 1.06841 0.0
C1327 C 0.55071 0.05203 1.02948 0.0
H1328 H 0.59124 0.56533 0.56464 0.0
H1329 H 0.53817 0.47578 0.51679 0.0
H1330 H 0.57749 0.58367 0.49797 0.0
H1331 H 0.52491 0.49413 0.44968 0.0
H1332 H 0.49742 0.52859 0.32008 0.0
H1333 H 0.51268 0.51112 0.38603 0.0
H1334 H 0.56369 0.60081 0.43448 0.0
H1335 H 0.54917 0.61832 0.36762 0.0
C1336 C 0.57662 0.54898 0.54029 0.0
C1337 C 0.56654 0.51817 0.54942 0.0
C1338 C 0.56835 0.5599 0.50043 0.0
C1339 C 0.54914 0.54132 0.46471 0.0
C1340 C 0.53923 0.51052 0.47397 0.0
C1341 C 0.54726 0.49955 0.514 0.0
C1342 C 0.51193 0.54513 0.34434 0.0
C1343 C 0.52146 0.57577 0.33511 0.0
C1344 C 0.52086 0.53467 0.38393 0.0
C1345 C 0.53977 0.55342 0.41973 0.0
C1346 C 0.54924 0.58414 0.41042 0.0
C1347 C 0.5407 0.59468 0.37038 0.0
H1348 H 0.02431 0.614 0.88158 0.0
H1349 H 0.04879 0.54881 0.84868 0.0
H1350 H 0.99311 0.59979 0.81298 0.0
H1351 H 0.01806 0.53498 0.78096 0.0
H1352 H 0.9436 0.49479 0.66775 0.0
H1353 H 0.97472 0.5107 0.73562 0.0
H1354 H 0.97808 0.59485 0.73213 0.0
H1355 H 0.94746 0.57904 0.66312 0.0
C1356 C 0.02354 0.5966 0.86041 0.0
C1357 C 0.04065 0.58323 0.874 0.0
C1358 C 0.00501 0.58815 0.81958 0.0
C1359 C 0.00127 0.56515 0.7883 0.0
C1360 C 0.01843 0.55204 0.80216 0.0
C1361 C 0.037 0.56056 0.84244 0.0
C1362 C 0.95073 0.51689 0.68061 0.0
C1363 C 0.9415 0.53485 0.65674 0.0
C1364 C 0.96935 0.52643 0.72103 0.0
C1365 C 0.98046 0.55486 0.74287 0.0
C1366 C 0.971 0.57278 0.71922 0.0
C1367 C 0.95281 0.56341 0.67814 0.0
H1368 H 0.49524 0.05159 0.45282 0.0
H1369 H 0.41251 0.02092 0.38139 0.0
H1370 H 0.46872 0.01305 0.50863 0.0
H1371 H 0.38781 0.98192 0.43795 0.0
H1372 H 0.44498 0.95607 0.33673 0.0
H1373 H 0.41184 0.96402 0.38206 0.0
H1374 H 0.45893 0.96354 0.50209 0.0
H1375 H 0.48922 0.95093 0.4556 0.0
C1376 C 0.47166 0.03678 0.44864 0.0
C1377 C 0.45667 0.03717 0.40945 0.0
C1378 C 0.45616 0.01493 0.48109 0.0
C1379 C 0.4291 0.99025 0.4674 0.0
C1380 C 0.41112 -0.00204 0.44235 0.0
C1381 C 0.42541 0.01965 0.40896 0.0
C1382 C 0.44681 0.95547 0.37276 0.0
C1383 C 0.46873 0.95135 0.39199 0.0
C1384 C 0.42811 0.96072 0.39958 0.0
C1385 C 0.43388 0.96672 0.44627 0.0
C1386 C 0.45433 0.96015 0.46624 0.0
C1387 C 0.47225 0.95361 0.43922 0.0
H1388 H 0.51465 0.54307 0.66266 0.0
H1389 H 0.47677 0.57441 0.76107 0.0
H1390 H 0.54856 0.54483 0.72049 0.0
H1391 H 0.50096 0.5628 0.82192 0.0
H1392 H 0.56092 0.49702 0.80146 0.0
H1393 H 0.54427 0.52587 0.84029 0.0
H1394 H 0.4721 0.49574 0.74785 0.0
H1395 H 0.49113 0.47023 0.70277 0.0
C1396 C 0.51313 0.55015 0.69653 0.0
C1397 C 0.48866 0.55248 0.71006 0.0
C1398 C 0.53246 0.55117 0.7301 0.0
C1399 C 0.52199 0.54711 0.77522 0.0
C1400 C 0.50579 0.5607 0.78695 0.0
C1401 C 0.48986 0.56466 0.7529 0.0
C1402 C 0.54056 0.4949 0.78969 0.0
C1403 C 0.52935 0.48397 0.74587 0.0
C1404 C 0.53067 0.51138 0.81321 0.0
C1405 C 0.51003 0.51644 0.79197 0.0
C1406 C 0.4903 0.49415 0.76163 0.0
C1407 C 0.50143 0.47965 0.73497 0.0
H1408 H 0.94494 0.50086 1.00451 0.0
H1409 H 0.95194 0.45188 0.11589 0.0
H1410 H 0.95096 0.53943 1.05454 0.0
H1411 H 0.96246 0.4927 0.16622 0.0
H1412 H 0.01074 0.59565 1.04534 0.0
H1413 H 0.97382 0.58185 1.10516 0.0
H1414 H 0.00892 0.53523 0.17418 0.0
H1415 H 0.04613 0.54745 0.11577 0.0
C1416 C 0.94715 0.49801 1.03988 0.0
C1417 C 0.94776 0.4731 1.05549 0.0
C1418 C 0.95106 0.5205 1.06933 0.0
C1419 C 0.96047 0.52092 0.11424 0.0
C1420 C 0.95728 0.49425 0.13131 0.0
C1421 C 0.95214 0.47112 1.10195 0.0
C1422 C 0.01087 0.58232 1.07322 0.0
C1423 C 0.0295 0.56988 1.07302 0.0
C1424 C 0.99029 0.57512 0.10833 0.0
C1425 C 0.98402 0.54995 0.134 0.0
C1426 C 0.0095 0.54882 0.14619 0.0
C1427 C 0.03061 0.55535 0.11234 0.0
H1428 H 0.01229 0.45791 0.49975 0.0
H1429 H 0.07555 0.54948 0.4716 0.0
H1430 H 0.9821 0.45649 0.43781 0.0
H1431 H 0.04606 0.54892 0.40857 0.0
H1432 H 0.98022 0.56002 0.45283 0.0
H1433 H 0.00783 0.55496 0.39008 0.0
H1434 H 0.95071 0.4614 0.38872 0.0
H1435 H 0.92176 0.46531 0.45071 0.0
C1436 C 0.01888 0.47822 0.48117 0.0
C1437 C 0.04466 0.50453 0.49261 0.0
C1438 C 0.00219 0.47735 0.44438 0.0
C1439 C 0.01005 0.50347 0.41953 0.0
C1440 C 0.03787 0.52888 0.42839 0.0
C1441 C 0.05442 0.52968 0.46554 0.0
C1442 C 0.9743 0.53802 0.44083 0.0
C1443 C 0.95197 0.51233 0.46209 0.0
C1444 C 0.98938 0.53505 0.40409 0.0
C1445 C 0.98638 0.50693 0.39681 0.0
C1446 C 0.95746 0.48305 0.40323 0.0
C1447 C 0.94177 0.48485 0.44025 0.0
H1448 H 0.41772 0.98091 0.78231 0.0
H1449 H 0.45271 0.92203 0.7963 0.0
H1450 H 0.45121 0.00448 0.7185 0.0
H1451 H 0.48569 0.9468 0.73222 0.0
H1452 H 0.55032 0.01115 0.8407 0.0
H1453 H 0.52306 0.98065 0.77757 0.0
H1454 H 0.49346 0.04312 0.74578 0.0
H1455 H 0.52163 0.07344 0.80923 0.0
C1456 C 0.43345 0.97396 0.77344 0.0
C1457 C 0.43625 0.95291 0.79948 0.0
C1458 C 0.45204 0.98677 0.73627 0.0
C1459 C 0.47717 0.98352 0.73358 0.0
C1460 C 0.47116 0.95468 0.74398 0.0
C1461 C 0.45345 0.94133 0.78189 0.0
C1462 C 0.53667 0.01734 0.82124 0.0
C1463 C 0.53575 0.04305 0.83183 0.0
C1464 C 0.52172 0.00046 0.78384 0.0
C1465 C 0.50355 0.00772 0.75782 0.0
C1466 C 0.50528 0.03533 0.76631 0.0
C1467 C 0.52051 0.05231 0.80373 0.0
H1468 H 0.46392 0.51022 0.15432 0.0
H1469 H 0.53596 0.58866 1.0924 0.0
H1470 H 0.47136 0.47984 1.09972 0.0
H1471 H 0.5451 0.55803 1.04162 0.0
H1472 H 0.492 0.42963 1.08856 0.0
H1473 H 0.50124 0.46507 1.03108 0.0
H1474 H 0.56123 0.53543 0.11953 0.0
H1475 H 0.55319 0.49956 0.17821 0.0
C1476 C 0.48084 0.52099 0.12884 0.0
C1477 C 0.50105 0.5514 0.13067 0.0
C1478 C 0.48481 0.50378 1.09653 0.0
C1479 C 0.51081 0.51685 1.06972 0.0
C1480 C 0.52592 0.54749 1.06361 0.0
C1481 C 0.52128 0.56483 1.09444 0.0
C1482 C 0.5081 0.45245 1.09605 0.0
C1483 C 0.52028 0.46194 0.13976 0.0
C1484 C 0.51429 0.47273 1.06176 0.0
C1485 C 0.52892 0.50268 1.07325 0.0
C1486 C 0.54768 0.51199 0.11151 0.0
C1487 C 0.54231 0.49163 0.14596 0.0
H1488 H 0.27452 0.93224 0.72493 0.0
H1489 H 0.30394 0.89335 0.62262 0.0
H1490 H 0.2952 0.97832 0.68106 0.0
H1491 H 0.32452 0.93924 0.57904 0.0
H1492 H 0.39226 0.03608 0.55127 0.0
H1493 H 0.36868 0.99239 0.59946 0.0
H1494 H 0.28782 0.99597 0.59911 0.0
H1495 H 0.31122 0.03954 0.54943 0.0
C1496 C 0.28503 0.93345 0.69279 0.0
C1497 C 0.28756 0.90926 0.67696 0.0
C1498 C 0.29675 0.9597 0.66779 0.0
C1499 C 0.31157 0.96226 0.62702 0.0
C1500 C 0.31337 0.93781 0.61064 0.0
C1501 C 0.30134 0.91149 0.63527 0.0
C1502 C 0.36948 0.02766 0.56156 0.0
C1503 C 0.35337 0.04085 0.54585 0.0
C1504 C 0.35604 0.00269 0.5891 0.0
C1505 C 0.32635 0.99062 0.60212 0.0
C1506 C 0.31076 0.00492 0.58924 0.0
C1507 C 0.32416 0.02986 0.56109 0.0
H1508 H 0.43159 0.34507 0.94917 0.0
H1509 H 0.37307 0.33781 1.05834 0.0
H1510 H 0.41381 0.37261 0.90495 0.0
H1511 H 0.35658 0.3664 1.01494 0.0
H1512 H 0.3638 0.44861 0.94197 0.0
H1513 H 0.38149 0.42051 0.98448 0.0
H1514 H 0.36311 0.36169 0.87063 0.0
H1515 H 0.34398 0.3886 0.82871 0.0
C1516 C 0.41481 0.34907 0.96363 0.0
C1517 C 0.40388 0.33926 1.00745 0.0
C1518 C 0.40482 0.365 0.93842 0.0
C1519 C 0.38405 0.37179 0.95679 0.0
C1520 C 0.37296 0.36185 1.00031 0.0
C1521 C 0.38253 0.34554 1.02516 0.0
C1522 C 0.363 0.4294 0.92616 0.0
C1523 C 0.35229 0.42091 0.88185 0.0
C1524 C 0.37337 0.41348 0.95043 0.0
C1525 C 0.37369 0.38903 0.93071 0.0
C1526 C 0.36339 0.38069 0.88637 0.0
C1527 C 0.35253 0.39624 0.86237 0.0
H1528 H 0.96935 0.34151 0.15862 0.0
H1529 H 0.92894 0.35795 0.27474 0.0
H1530 H 0.01681 0.36501 0.1976 0.0
H1531 H 0.97628 0.37986 0.31439 0.0
H1532 H 0.10087 0.44202 0.27134 0.0
H1533 H 0.05394 0.41873 0.23003 0.0
H1534 H 0.01077 0.35953 0.34183 0.0
H1535 H 0.05765 0.38141 0.3822 0.0
C1536 C 0.97046 0.3502 0.19229 0.0
C1537 C 0.94507 0.3478 0.21334 0.0
C1538 C -0.00229 0.36353 0.21463 0.0
C1539 C 0.00011 0.37417 0.2589 0.0
C1540 C 0.97487 0.37155 0.28032 0.0
C1541 C 0.94771 0.35876 0.25767 0.0
C1542 C 0.08157 0.42362 0.28676 0.0
C1543 C 0.08317 0.41375 0.33027 0.0
C1544 C 0.05468 0.41047 0.26323 0.0
C1545 C 0.02879 0.38756 0.28301 0.0
C1546 C 0.03036 0.37745 0.32613 0.0
C1547 C 0.05726 0.39014 0.34926 0.0
H1548 H 0.67283 0.05714 0.72092 0.0
H1549 H 0.65325 0.10012 0.61259 0.0
H1550 H 0.64729 0.01012 0.68014 0.0
H1551 H 0.62908 0.05309 0.5708 0.0
H1552 H 0.62044 0.96855 0.49686 0.0
H1553 H 0.6452 0.01614 0.53622 0.0
H1554 H 0.59186 0.9752 0.65443 0.0
H1555 H 0.56558 0.92774 0.61447 0.0
C1556 C 0.66315 0.05667 0.68843 0.0
C1557 C 0.66496 0.08254 0.6703 0.0
C1558 C 0.64862 0.0297 0.66506 0.0
C1559 C 0.63616 0.02803 0.62253 0.0
C1560 C 0.63869 0.05391 0.60353 0.0
C1561 C 0.65275 0.08086 0.62733 0.0
C1562 C 0.61347 0.96958 0.53095 0.0
C1563 C 0.59078 0.94405 0.55229 0.0
C1564 C 0.62786 0.99691 0.55351 0.0
C1565 C 0.62043 -0.00075 0.59826 0.0
C1566 C 0.59814 0.97385 0.61998 0.0
C1567 C 0.58329 0.94661 0.59713 0.0
H1568 H 0.6368 0.64298 1.06863 0.0
H1569 H 0.59652 0.65706 0.95098 0.0
H1570 H 0.65208 0.61389 1.02306 0.0
H1571 H 0.613 0.62887 0.90522 0.0
H1572 H 0.68349 0.61259 0.83519 0.0
H1573 H 0.66443 0.63797 0.88174 0.0
H1574 H 0.62906 0.56521 0.97627 0.0
H1575 H 0.64703 0.53899 0.92871 0.0
C1576 C 0.63082 0.63961 1.03324 0.0
C1577 C 0.61543 0.65254 1.01358 0.0
C1578 C 0.63973 0.62301 1.00714 0.0
C1579 C 0.63388 0.6193 0.96064 0.0
C1580 C 0.61815 0.63176 0.94095 0.0
C1581 C 0.60886 0.64803 0.96716 0.0
C1582 C 0.67143 0.60177 0.86565 0.0
C1583 C 0.66676 0.57363 0.87805 0.0
C1584 C 0.66053 0.61637 0.8923 0.0
C1585 C 0.64514 0.60347 0.93242 0.0
C1586 C 0.64102 0.57571 0.94557 0.0
C1587 C 0.65154 0.56084 0.91851 0.0
H1588 H 0.98531 0.67136 0.13437 0.0
H1589 H 0.04429 0.69137 0.24757 0.0
H1590 H 0.94287 0.65036 0.18534 0.0
H1591 H 0.0018 0.66929 0.29882 0.0
H1592 H 0.91953 0.64284 0.38337 0.0
H1593 H 0.96147 0.67162 0.33308 0.0
H1594 H 0.91726 0.60603 0.22784 0.0
H1595 H 0.8753 0.57779 0.27775 0.0
C1596 C 0.9891 0.67145 0.17034 0.0
C1597 C 0.01792 0.68282 0.18718 0.0
C1598 C 0.96484 0.65921 0.19951 0.0
C1599 C 0.96883 0.65767 0.24615 0.0
C1600 C -0.00211 0.67033 0.26317 0.0
C1601 C 0.02224 0.68295 0.23392 0.0
C1602 C 0.91879 0.63474 0.34936 0.0
C1603 C 0.89407 0.60816 0.33435 0.0
C1604 C 0.94284 0.65116 0.3206 0.0
C1605 C 0.94275 0.64125 0.2763 0.0
C1606 C 0.91785 0.61475 0.26133 0.0
C1607 C 0.89377 0.59848 0.28995 0.0
H1608 H 0.48497 0.10915 0.52076 0.0
H1609 H 0.5654 0.11639 0.47011 0.0
H1610 H 0.50179 0.10973 0.59856 0.0
H1611 H 0.58224 0.11687 0.54732 0.0
H1612 H 0.60955 0.10773 0.69756 0.0
H1613 H 0.59265 0.10684 0.61968 0.0
H1614 H 0.52313 0.12065 0.67008 0.0
H1615 H 0.53996 0.1213 0.74713 0.0
C1616 C 0.50643 0.11104 0.52532 0.0
C1617 C 0.5232 0.11295 0.48579 0.0
C1618 C 0.51651 0.1114 0.57154 0.0
C1619 C 0.5443 0.1134 0.58313 0.0
C1620 C 0.56084 0.11514 0.54333 0.0
C1621 C 0.55088 0.115 0.49733 0.0
C1622 C 0.59062 0.11068 0.69278 0.0
C1623 C 0.57706 0.11499 0.73204 0.0
C1624 C 0.58056 0.11025 0.6465 0.0
C1625 C 0.55569 0.11377 0.63465 0.0
C1626 C 0.54208 0.11771 0.67422 0.0
C1627 C 0.55225 0.11835 0.72019 0.0
H1628 H 0.40791 0.51048 0.84533 0.0
H1629 H 0.4573 0.60197 0.80565 0.0
H1630 H 0.42274 0.52514 0.92426 0.0
H1631 H 0.47294 0.61669 0.8844 0.0
H1632 H 0.51625 0.63708 1.03517 0.0
H1633 H 0.50137 0.62348 0.95543 0.0
H1634 H 0.42249 0.54477 0.99867 0.0
H1635 H 0.43706 0.5586 1.07746 0.0
C1636 C 0.42193 0.53396 0.85253 0.0
C1637 C 0.43059 0.5544 0.81554 0.0
C1638 C 0.43077 0.5427 0.89945 0.0
C1639 C 0.44985 0.5728 0.91445 0.0
C1640 C 0.45864 0.59324 0.87737 0.0
C1641 C 0.44919 0.58455 0.83061 0.0
C1642 C 0.4955 0.61688 1.02846 0.0
C1643 C 0.47816 0.59984 1.06632 0.0
C1644 C 0.48661 0.60879 0.98119 0.0
C1645 C 0.45993 0.58238 0.96689 0.0
C1646 C 0.4431 0.5652 1.00493 0.0
C1647 C 0.45161 0.5736 1.05188 0.0
H1648 H 0.87587 0.45874 0.12284 0.0
H1649 H 0.89916 0.39684 0.17692 0.0
H1650 H 0.87438 0.4763 0.19949 0.0
H1651 H 0.89739 0.41406 0.25374 0.0
H1652 H 0.87582 0.43552 0.39922 0.0
H1653 H 0.87788 0.41941 0.32271 0.0
H1654 H 0.89008 0.50199 0.27159 0.0
H1655 H 0.88831 0.51834 0.34955 0.0
C1656 C 0.88045 0.44828 0.1507 0.0
C1657 C 0.8873 0.42537 0.1406 0.0
C1658 C 0.87982 0.45886 0.19615 0.0
C1659 C 0.88552 0.44731 0.23638 0.0
C1660 C 0.89233 0.42431 0.22614 0.0
C1661 C 0.89344 0.41408 0.1806 0.0
C1662 C 0.87879 0.45069 0.37238 0.0
C1663 C 0.88149 0.47875 0.38408 0.0
C1664 C 0.88028 0.44119 0.32675 0.0
C1665 C 0.88423 0.45856 0.2873 0.0
C1666 C 0.88679 0.48676 0.29868 0.0
C1667 C 0.88578 0.49652 0.34484 0.0
H1668 H 0.49514 0.89943 0.51873 0.0
H1669 H 0.41154 0.88105 0.46423 0.0
H1670 H 0.47631 0.8978 0.59562 0.0
H1671 H 0.39272 0.87975 0.54076 0.0
H1672 H 0.36642 0.89541 0.69077 0.0
H1673 H 0.38456 0.89691 0.61306 0.0
H1674 H 0.44983 0.8773 0.66401 0.0
H1675 H 0.4315 0.87533 0.74051 0.0
C1676 C 0.47257 0.89483 0.52229 0.0
C1677 C 0.45546 0.88993 0.48213 0.0
C1678 C 0.46133 0.89381 0.56786 0.0
C1679 C 0.43205 0.88844 0.57793 0.0
C1680 C 0.41519 0.88403 0.53756 0.0
C1681 C 0.42624 0.8845 0.49214 0.0
C1682 C 0.38453 0.89112 0.68608 0.0
C1683 C 0.39652 0.88484 0.7252 0.0
C1684 C 0.39532 0.89199 0.64007 0.0
C1685 C 0.41956 0.88731 0.62875 0.0
C1686 C 0.43156 0.88137 0.6681 0.0
C1687 C 0.42048 0.87996 0.71363 0.0
H1688 H 0.61262 0.49703 0.85012 0.0
H1689 H 0.53717 0.41548 0.80584 0.0
H1690 H 0.59877 0.4819 0.92926 0.0
H1691 H 0.52321 0.40035 0.88427 0.0
H1692 H 0.48922 0.38056 1.03636 0.0
H1693 H 0.50352 0.39546 0.95738 0.0
H1694 H 0.59195 0.45878 1.00037 0.0
H1695 H 0.57757 0.44371 1.07888 0.0
C1696 C 0.5931 0.47564 0.85642 0.0
C1697 C 0.57679 0.4579 0.81837 0.0
C1698 C 0.58483 0.46661 0.90329 0.0
C1699 C 0.55919 0.43915 0.91679 0.0
C1700 C 0.54292 0.42164 0.87851 0.0
C1701 C 0.55136 0.43049 0.83186 0.0
C1702 C 0.51195 0.39747 1.02963 0.0
C1703 C 0.5318 0.40996 1.06711 0.0
C1704 C 0.52049 0.40639 0.98283 0.0
C1705 C 0.54963 0.429 0.96884 0.0
C1706 C 0.5693 0.44155 1.00658 0.0
C1707 C 0.56086 0.4324 1.05317 0.0
H1708 H 0.10625 0.4942 0.358 0.0
H1709 H 0.11993 0.5778 0.40745 0.0
H1710 H 0.10374 0.50954 0.28029 0.0
H1711 H 0.11751 0.59323 0.33055 0.0
H1712 H 0.10107 0.61735 0.18211 0.0
H1713 H 0.10332 0.60181 0.25976 0.0
H1714 H 0.11389 0.53045 0.20759 0.0
H1715 H 0.11184 0.54615 0.13052 0.0
C1716 C 0.10889 0.51604 0.35323 0.0
C1717 C 0.11375 0.53426 0.39241 0.0
C1718 C 0.10749 0.52526 0.30706 0.0
C1719 C 0.11041 0.5535 0.29524 0.0
C1720 C 0.1149 0.57139 0.33471 0.0
C1721 C 0.11659 0.56231 0.38057 0.0
C1722 C 0.10407 0.59837 0.18641 0.0
C1723 C 0.10642 0.58385 0.14665 0.0
C1724 C 0.10543 0.58907 0.23253 0.0
C1725 C 0.10893 0.56406 0.24382 0.0
C1726 C 0.11106 0.54954 0.20382 0.0
C1727 C 0.10998 0.55899 0.1579 0.0
loop_
_geom_bond_atom_site_label_1
_geom_bond_atom_site_label_2
_geom_bond_distance
_geom_bond_site_symmetry_2
_ccdc_geom_bond_type
Tb0 N29 2.617 . S
Tb0 N35 2.572 . S
Tb0 O44 2.465 . S
Tb0 O45 2.387 . S
Tb0 O47 2.428 . S
Tb0 O48 2.308 . S
Tb0 O52 2.349 . S
Tb0 O55 2.393 . S
Tb0 C64 2.802 . S
C1 N2 1.379 . S
C1 C4 1.416 . S
C1 C8 1.424 . S
N2 C1 1.379 . S
N2 C5 1.334 . S
N2 Tb11 2.617 . S
C3 C5 1.390 . S
C3 C6 1.339 . S
C3 H23 0.930 . S
C4 C1 1.416 . S
C4 C6 1.416 . S
C4 C10 1.448 . S
C5 N2 1.334 . S
C5 C3 1.390 . S
C5 H16 0.930 . S
C6 C3 1.339 . S
C6 C4 1.416 . S
C6 H27 0.930 . S
C7 C8 1.413 . S
C7 C9 1.427 . S
C7 C13 1.416 . S
C8 C1 1.424 . S
C8 C7 1.413 . S
C8 N12 1.361 . S
C9 C7 1.427 . S
C9 C10 1.328 . S
C9 H24 0.929 . S
C10 C4 1.448 . S
C10 C9 1.328 . S
C10 H25 0.930 . S
Tb11 N2 2.617 . S
Tb11 N12 2.572 . S
Tb11 O46 2.349 . S
Tb11 O49 2.393 . S
Tb11 O50 2.465 . S
Tb11 O51 2.387 . S
Tb11 O53 2.428 . S
Tb11 O54 2.308 . S
Tb11 C75 2.802 . S
N12 C8 1.361 . S
N12 Tb11 2.572 . S
N12 C14 1.340 . S
C13 C7 1.416 . S
C13 C15 1.332 . S
C13 H21 0.931 1_545 S
C14 N12 1.340 . S
C14 C15 1.407 . S
C14 H20 0.930 . S
C15 C13 1.332 . S
C15 C14 1.407 . S
C15 H17 0.929 1_545 S
H16 C5 0.930 . S
H17 C15 0.929 1_565 S
H18 C33 0.930 . S
H19 C40 0.929 . S
H20 C14 0.930 . S
H21 C13 0.931 1_565 S
H22 C36 0.930 . S
H23 C3 0.930 . S
H24 C9 0.929 . S
H25 C10 0.930 . S
H26 C31 0.930 . S
H27 C6 0.930 . S
H28 C39 0.931 . S
N29 Tb0 2.617 . S
N29 C30 1.379 . S
N29 C33 1.334 . S
C30 N29 1.379 . S
C30 C32 1.416 . S
C30 C38 1.424 . S
C31 H26 0.930 . S
C31 C33 1.390 . S
C31 C34 1.339 . S
C32 C30 1.416 . S
C32 C34 1.416 . S
C32 C65 1.448 . S
C33 H18 0.930 . S
C33 N29 1.334 . S
C33 C31 1.390 . S
C34 C31 1.339 . S
C34 C32 1.416 . S
C34 H41 0.930 . S
N35 Tb0 2.572 . S
N35 C36 1.340 . S
N35 C38 1.361 . S
C36 H22 0.930 . S
C36 N35 1.340 . S
C36 C40 1.407 . S
C37 C38 1.413 . S
C37 C39 1.416 . S
C37 C66 1.427 . S
C38 C30 1.424 . S
C38 N35 1.361 . S
C38 C37 1.413 . S
C39 H28 0.931 . S
C39 C37 1.416 . S
C39 C40 1.332 . S
C40 H19 0.929 . S
C40 C36 1.407 . S
C40 C39 1.332 . S
H41 C34 0.930 . S
H42 C65 0.930 . S
H43 C66 0.929 . S
O44 Tb0 2.465 . S
O44 C64 1.264 . S
O45 Tb0 2.387 . S
O45 C56 1.264 . S
O46 Tb11 2.349 . S
O46 C56 1.243 . S
O47 Tb0 2.428 . S
O47 C64 1.256 . S
O48 Tb0 2.308 . S
O48 C63 1.266 . S
O49 Tb11 2.393 . S
O49 C63 1.248 . S
O50 Tb11 2.465 . S
O50 C75 1.264 . S
O51 Tb11 2.387 . S
O51 C67 1.264 . S
O52 Tb0 2.349 . S
O52 C67 1.243 . S
O53 Tb11 2.428 . S
O53 C75 1.256 . S
O54 Tb11 2.308 . S
O54 C74 1.266 . S
O55 Tb0 2.393 . S
O55 C74 1.248 . S
C56 O45 1.264 . S
C56 O46 1.243 . S
C57 C60 1.399 . S
C57 C62 1.383 . S
C57 C64 1.496 . S
C58 C59 1.399 . S
C58 C62 1.389 . S
C59 C58 1.399 . S
C59 C61 1.380 . S
C59 H76 0.929 . S
C60 C57 1.399 . S
C60 C61 1.392 . S
C60 H77 0.929 . S
C61 C59 1.380 . S
C61 C60 1.392 . S
C61 H78 0.929 . S
C62 C57 1.383 . S
C62 C58 1.389 . S
C62 H79 0.931 . S
C63 O48 1.266 . S
C63 O49 1.248 . S
C64 Tb0 2.802 . S
C64 O44 1.264 . S
C64 O47 1.256 . S
C64 C57 1.496 . S
C65 C32 1.448 . S
C65 H42 0.930 . S
C65 C66 1.328 . S
C66 C37 1.427 . S
C66 H43 0.929 . S
C66 C65 1.328 . S
C67 O51 1.264 . S
C67 O52 1.243 . S
C68 C71 1.399 . S
C68 C72 1.383 . S
C68 C75 1.496 . S
C69 C70 1.399 . S
C69 C72 1.389 . S
C70 C69 1.399 . S
C70 C73 1.380 . S
C70 H80 0.929 . S
C71 C68 1.399 . S
C71 C73 1.392 . S
C71 H81 0.929 . S
C72 C68 1.383 . S
C72 C69 1.389 . S
C72 H82 0.931 . S
C73 C70 1.380 . S
C73 C71 1.392 . S
C73 H83 0.929 . S
C74 O54 1.266 . S
C74 O55 1.248 . S
C75 Tb11 2.802 . S
C75 O50 1.264 . S
C75 O53 1.256 . S
C75 C68 1.496 . S
H76 C59 0.929 . S
H77 C60 0.929 . S
H78 C61 0.929 . S
H79 C62 0.931 . S
H80 C70 0.929 . S
H81 C71 0.929 . S
H82 C72 0.931 . S
H83 C73 0.929 . S
Tb84 N113 2.617 . S
Tb84 N119 2.572 . S
Tb84 O128 2.465 . S
Tb84 O129 2.387 . S
Tb84 O131 2.428 . S
Tb84 O132 2.308 . S
Tb84 O136 2.349 . S
Tb84 O139 2.393 . S
Tb84 C148 2.802 . S
C85 N86 1.379 . S
C85 C88 1.416 . S
C85 C92 1.424 . S
N86 C85 1.379 . S
N86 C89 1.334 . S
N86 Tb95 2.617 . S
C87 C89 1.390 . S
C87 C90 1.339 . S
C87 H107 0.930 . S
C88 C85 1.416 . S
C88 C90 1.416 . S
C88 C94 1.448 . S
C89 N86 1.334 . S
C89 C87 1.390 . S
C89 H100 0.930 . S
C90 C87 1.339 . S
C90 C88 1.416 . S
C90 H111 0.930 . S
C91 C92 1.413 . S
C91 C93 1.427 . S
C91 C97 1.416 . S
C92 C85 1.424 . S
C92 C91 1.413 . S
C92 N96 1.361 . S
C93 C91 1.427 . S
C93 C94 1.328 . S
C93 H108 0.929 . S
C94 C88 1.448 . S
C94 C93 1.328 . S
C94 H109 0.930 . S
Tb95 N86 2.617 . S
Tb95 N96 2.572 . S
Tb95 O130 2.349 . S
Tb95 O133 2.393 . S
Tb95 O134 2.465 . S
Tb95 O135 2.387 . S
Tb95 O137 2.428 . S
Tb95 O138 2.308 . S
Tb95 C159 2.802 . S
N96 C92 1.361 . S
N96 Tb95 2.572 . S
N96 C98 1.340 . S
C97 C91 1.416 . S
C97 C99 1.332 . S
C97 H105 0.931 . S
C98 N96 1.340 . S
C98 C99 1.407 . S
C98 H104 0.930 . S
C99 C97 1.332 . S
C99 C98 1.407 . S
C99 H101 0.929 . S
H100 C89 0.930 . S
H101 C99 0.929 . S
H102 C117 0.930 . S
H103 C124 0.929 . S
H104 C98 0.930 . S
H105 C97 0.931 . S
H106 C120 0.930 . S
H107 C87 0.930 . S
H108 C93 0.929 . S
H109 C94 0.930 . S
H110 C115 0.930 . S
H111 C90 0.930 . S
H112 C123 0.931 . S
N113 Tb84 2.617 . S
N113 C114 1.379 . S
N113 C117 1.334 . S
C114 N113 1.379 . S
C114 C116 1.416 . S
C114 C122 1.424 . S
C115 H110 0.930 . S
C115 C117 1.390 . S
C115 C118 1.339 . S
C116 C114 1.416 . S
C116 C118 1.416 . S
C116 C149 1.448 . S
C117 H102 0.930 . S
C117 N113 1.334 . S
C117 C115 1.390 . S
C118 C115 1.339 . S
C118 C116 1.416 . S
C118 H125 0.930 . S
N119 Tb84 2.572 . S
N119 C120 1.340 . S
N119 C122 1.361 . S
C120 H106 0.930 . S
C120 N119 1.340 . S
C120 C124 1.407 . S
C121 C122 1.413 . S
C121 C123 1.416 . S
C121 C150 1.427 . S
C122 C114 1.424 . S
C122 N119 1.361 . S
C122 C121 1.413 . S
C123 H112 0.931 . S
C123 C121 1.416 . S
C123 C124 1.332 . S
C124 H103 0.929 . S
C124 C120 1.407 . S
C124 C123 1.332 . S
H125 C118 0.930 . S
H126 C149 0.930 . S
H127 C150 0.929 . S
O128 Tb84 2.465 . S
O128 C148 1.264 . S
O129 Tb84 2.387 . S
O129 C140 1.264 . S
O130 Tb95 2.349 . S
O130 C140 1.243 . S
O131 Tb84 2.428 . S
O131 C148 1.256 . S
O132 Tb84 2.308 . S
O132 C147 1.266 . S
O133 Tb95 2.393 . S
O133 C147 1.248 . S
O134 Tb95 2.465 . S
O134 C159 1.264 . S
O135 Tb95 2.387 . S
O135 C151 1.264 . S
O136 Tb84 2.349 . S
O136 C151 1.243 . S
O137 Tb95 2.428 . S
O137 C159 1.256 . S
O138 Tb95 2.308 . S
O138 C158 1.266 . S
O139 Tb84 2.393 . S
O139 C158 1.248 . S
C140 O129 1.264 . S
C140 O130 1.243 . S
C141 C144 1.399 . S
C141 C146 1.383 . S
C141 C148 1.496 . S
C142 C143 1.399 . S
C142 C146 1.389 . S
C143 C142 1.399 . S
C143 C145 1.380 . S
C143 H160 0.929 . S
C144 C141 1.399 . S
C144 C145 1.392 . S
C144 H161 0.929 . S
C145 C143 1.380 . S
C145 C144 1.392 . S
C145 H162 0.929 . S
C146 C141 1.383 . S
C146 C142 1.389 . S
C146 H163 0.931 . S
C147 O132 1.266 . S
C147 O133 1.248 . S
C148 Tb84 2.802 . S
C148 O128 1.264 . S
C148 O131 1.256 . S
C148 C141 1.496 . S
C149 C116 1.448 . S
C149 H126 0.930 . S
C149 C150 1.328 . S
C150 C121 1.427 . S
C150 H127 0.929 . S
C150 C149 1.328 . S
C151 O135 1.264 . S
C151 O136 1.243 . S
C152 C155 1.399 . S
C152 C156 1.383 . S
C152 C159 1.496 . S
C153 C154 1.399 . S
C153 C156 1.389 . S
C154 C153 1.399 . S
C154 C157 1.380 . S
C154 H164 0.929 . S
C155 C152 1.399 . S
C155 C157 1.392 . S
C155 H165 0.929 . S
C156 C152 1.383 . S
C156 C153 1.389 . S
C156 H166 0.931 . S
C157 C154 1.380 . S
C157 C155 1.392 . S
C157 H167 0.929 . S
C158 O138 1.266 . S
C158 O139 1.248 . S
C159 Tb95 2.802 . S
C159 O134 1.264 . S
C159 O137 1.256 . S
C159 C152 1.496 . S
H160 C143 0.929 . S
H161 C144 0.929 . S
H162 C145 0.929 . S
H163 C146 0.931 . S
H164 C154 0.929 . S
H165 C155 0.929 . S
H166 C156 0.931 . S
H167 C157 0.929 . S
Tb168 N197 2.617 . S
Tb168 N203 2.572 . S
Tb168 O212 2.465 . S
Tb168 O213 2.387 . S
Tb168 O215 2.428 . S
Tb168 O216 2.308 . S
Tb168 O220 2.349 . S
Tb168 O223 2.393 . S
Tb168 C232 2.802 . S
C169 N170 1.379 . S
C169 C172 1.416 . S
C169 C176 1.424 . S
N170 C169 1.379 . S
N170 C173 1.334 . S
N170 Tb179 2.617 . S
C171 C173 1.390 . S
C171 C174 1.339 . S
C171 H191 0.930 . S
C172 C169 1.416 . S
C172 C174 1.416 . S
C172 C178 1.448 . S
C173 N170 1.334 . S
C173 C171 1.390 . S
C173 H184 0.930 . S
C174 C171 1.339 . S
C174 C172 1.416 . S
C174 H195 0.930 . S
C175 C176 1.413 . S
C175 C177 1.427 . S
C175 C181 1.416 . S
C176 C169 1.424 . S
C176 C175 1.413 . S
C176 N180 1.361 . S
C177 C175 1.427 . S
C177 C178 1.328 . S
C177 H192 0.929 . S
C178 C172 1.448 . S
C178 C177 1.328 . S
C178 H193 0.930 . S
Tb179 N170 2.617 . S
Tb179 N180 2.572 . S
Tb179 O214 2.349 . S
Tb179 O217 2.393 . S
Tb179 O218 2.465 1_556 S
Tb179 O219 2.387 . S
Tb179 O221 2.428 1_556 S
Tb179 O222 2.308 . S
Tb179 C243 2.802 1_556 S
N180 C176 1.361 . S
N180 Tb179 2.572 . S
N180 C182 1.340 . S
C181 C175 1.416 . S
C181 C183 1.332 . S
C181 H189 0.931 1_655 S
C182 N180 1.340 . S
C182 C183 1.407 . S
C182 H188 0.930 . S
C183 C181 1.332 . S
C183 C182 1.407 . S
C183 H185 0.929 1_655 S
H184 C173 0.930 . S
H185 C183 0.929 1_455 S
H186 C201 0.930 . S
H187 C208 0.929 . S
H188 C182 0.930 . S
H189 C181 0.931 1_455 S
H190 C204 0.930 . S
H191 C171 0.930 . S
H192 C177 0.929 . S
H193 C178 0.930 . S
H194 C199 0.930 . S
H195 C174 0.930 . S
H196 C207 0.931 . S
N197 Tb168 2.617 . S
N197 C198 1.379 . S
N197 C201 1.334 . S
C198 N197 1.379 . S
C198 C200 1.416 . S
C198 C206 1.424 . S
C199 H194 0.930 . S
C199 C201 1.390 . S
C199 C202 1.339 . S
C200 C198 1.416 . S
C200 C202 1.416 . S
C200 C233 1.448 . S
C201 H186 0.930 . S
C201 N197 1.334 . S
C201 C199 1.390 . S
C202 C199 1.339 . S
C202 C200 1.416 . S
C202 H209 0.930 . S
N203 Tb168 2.572 . S
N203 C204 1.340 . S
N203 C206 1.361 . S
C204 H190 0.930 . S
C204 N203 1.340 . S
C204 C208 1.407 . S
C205 C206 1.413 . S
C205 C207 1.416 . S
C205 C234 1.427 . S
C206 C198 1.424 . S
C206 N203 1.361 . S
C206 C205 1.413 . S
C207 H196 0.931 . S
C207 C205 1.416 . S
C207 C208 1.332 . S
C208 H187 0.929 . S
C208 C204 1.407 . S
C208 C207 1.332 . S
H209 C202 0.930 . S
H210 C233 0.930 . S
H211 C234 0.929 . S
O212 Tb168 2.465 . S
O212 C232 1.264 . S
O213 Tb168 2.387 . S
O213 C224 1.264 . S
O214 Tb179 2.349 . S
O214 C224 1.243 . S
O215 Tb168 2.428 . S
O215 C232 1.256 . S
O216 Tb168 2.308 . S
O216 C231 1.266 . S
O217 Tb179 2.393 . S
O217 C231 1.248 . S
O218 Tb179 2.465 1_554 S
O218 C243 1.264 . S
O219 Tb179 2.387 . S
O219 C235 1.264 . S
O220 Tb168 2.349 . S
O220 C235 1.243 . S
O221 Tb179 2.428 1_554 S
O221 C243 1.256 . S
O222 Tb179 2.308 . S
O222 C242 1.266 . S
O223 Tb168 2.393 . S
O223 C242 1.248 . S
C224 O213 1.264 . S
C224 O214 1.243 . S
C225 C228 1.399 . S
C225 C230 1.383 . S
C225 C232 1.496 . S
C226 C227 1.399 . S
C226 C230 1.389 . S
C227 C226 1.399 . S
C227 C229 1.380 . S
C227 H244 0.929 . S
C228 C225 1.399 . S
C228 C229 1.392 . S
C228 H245 0.929 . S
C229 C227 1.380 . S
C229 C228 1.392 . S
C229 H246 0.929 . S
C230 C225 1.383 . S
C230 C226 1.389 . S
C230 H247 0.931 . S
C231 O216 1.266 . S
C231 O217 1.248 . S
C232 Tb168 2.802 . S
C232 O212 1.264 . S
C232 O215 1.256 . S
C232 C225 1.496 . S
C233 C200 1.448 . S
C233 H210 0.930 . S
C233 C234 1.328 . S
C234 C205 1.427 . S
C234 H211 0.929 . S
C234 C233 1.328 . S
C235 O219 1.264 . S
C235 O220 1.243 . S
C236 C239 1.399 . S
C236 C240 1.383 . S
C236 C243 1.496 . S
C237 C238 1.399 . S
C237 C240 1.389 . S
C238 C237 1.399 . S
C238 C241 1.380 . S
C238 H248 0.929 . S
C239 C236 1.399 . S
C239 C241 1.392 . S
C239 H249 0.929 . S
C240 C236 1.383 . S
C240 C237 1.389 . S
C240 H250 0.931 . S
C241 C238 1.380 . S
C241 C239 1.392 . S
C241 H251 0.929 . S
C242 O222 1.266 . S
C242 O223 1.248 . S
C243 Tb179 2.802 1_554 S
C243 O218 1.264 . S
C243 O221 1.256 . S
C243 C236 1.496 . S
H244 C227 0.929 . S
H245 C228 0.929 . S
H246 C229 0.929 . S
H247 C230 0.931 . S
H248 C238 0.929 . S
H249 C239 0.929 . S
H250 C240 0.931 . S
H251 C241 0.929 . S
Tb252 N281 2.617 . S
Tb252 N287 2.572 . S
Tb252 O296 2.465 . S
Tb252 O297 2.387 . S
Tb252 O299 2.428 . S
Tb252 O300 2.308 . S
Tb252 O304 2.349 . S
Tb252 O307 2.393 . S
Tb252 C316 2.802 . S
C253 N254 1.379 . S
C253 C256 1.416 . S
C253 C260 1.424 . S
N254 C253 1.379 . S
N254 C257 1.334 . S
N254 Tb263 2.617 . S
C255 C257 1.390 . S
C255 C258 1.339 . S
C255 H275 0.930 . S
C256 C253 1.416 . S
C256 C258 1.416 . S
C256 C262 1.448 . S
C257 N254 1.334 . S
C257 C255 1.390 . S
C257 H268 0.930 . S
C258 C255 1.339 . S
C258 C256 1.416 . S
C258 H279 0.930 . S
C259 C260 1.413 . S
C259 C261 1.427 . S
C259 C265 1.416 . S
C260 C253 1.424 . S
C260 C259 1.413 . S
C260 N264 1.361 . S
C261 C259 1.427 . S
C261 C262 1.328 . S
C261 H276 0.929 . S
C262 C256 1.448 . S
C262 C261 1.328 . S
C262 H277 0.930 . S
Tb263 N254 2.617 . S
Tb263 N264 2.572 . S
Tb263 O298 2.349 . S
Tb263 O301 2.393 . S
Tb263 O302 2.465 . S
Tb263 O303 2.387 . S
Tb263 O305 2.428 . S
Tb263 O306 2.308 . S
Tb263 C327 2.802 . S
N264 C260 1.361 . S
N264 Tb263 2.572 . S
N264 C266 1.340 . S
C265 C259 1.416 . S
C265 C267 1.332 . S
C265 H273 0.931 1_565 S
C266 N264 1.340 . S
C266 C267 1.407 . S
C266 H272 0.930 . S
C267 C265 1.332 . S
C267 C266 1.407 . S
C267 H269 0.929 1_565 S
H268 C257 0.930 . S
H269 C267 0.929 1_545 S
H270 C285 0.930 . S
H271 C292 0.929 . S
H272 C266 0.930 . S
H273 C265 0.931 1_545 S
H274 C288 0.930 . S
H275 C255 0.930 . S
H276 C261 0.929 . S
H277 C262 0.930 . S
H278 C283 0.930 . S
H279 C258 0.930 . S
H280 C291 0.931 . S
N281 Tb252 2.617 . S
N281 C282 1.379 . S
N281 C285 1.334 . S
C282 N281 1.379 . S
C282 C284 1.416 . S
C282 C290 1.424 . S
C283 H278 0.930 . S
C283 C285 1.390 . S
C283 C286 1.339 . S
C284 C282 1.416 . S
C284 C286 1.416 . S
C284 C317 1.448 . S
C285 H270 0.930 . S
C285 N281 1.334 . S
C285 C283 1.390 . S
C286 C283 1.339 . S
C286 C284 1.416 . S
C286 H293 0.930 . S
N287 Tb252 2.572 . S
N287 C288 1.340 . S
N287 C290 1.361 . S
C288 H274 0.930 . S
C288 N287 1.340 . S
C288 C292 1.407 . S
C289 C290 1.413 . S
C289 C291 1.416 . S
C289 C318 1.427 . S
C290 C282 1.424 . S
C290 N287 1.361 . S
C290 C289 1.413 . S
C291 H280 0.931 . S
C291 C289 1.416 . S
C291 C292 1.332 . S
C292 H271 0.929 . S
C292 C288 1.407 . S
C292 C291 1.332 . S
H293 C286 0.930 . S
H294 C317 0.930 . S
H295 C318 0.929 . S
O296 Tb252 2.465 . S
O296 C316 1.264 . S
O297 Tb252 2.387 . S
O297 C308 1.264 . S
O298 Tb263 2.349 . S
O298 C308 1.243 . S
O299 Tb252 2.428 . S
O299 C316 1.256 . S
O300 Tb252 2.308 . S
O300 C315 1.266 . S
O301 Tb263 2.393 . S
O301 C315 1.248 . S
O302 Tb263 2.465 . S
O302 C327 1.264 . S
O303 Tb263 2.387 . S
O303 C319 1.264 . S
O304 Tb252 2.349 . S
O304 C319 1.243 . S
O305 Tb263 2.428 . S
O305 C327 1.256 . S
O306 Tb263 2.308 . S
O306 C326 1.266 . S
O307 Tb252 2.393 . S
O307 C326 1.248 . S
C308 O297 1.264 . S
C308 O298 1.243 . S
C309 C312 1.399 . S
C309 C314 1.383 . S
C309 C316 1.496 . S
C310 C311 1.399 . S
C310 C314 1.389 . S
C311 C310 1.399 . S
C311 C313 1.380 . S
C311 H328 0.929 . S
C312 C309 1.399 . S
C312 C313 1.392 . S
C312 H329 0.929 . S
C313 C311 1.380 . S
C313 C312 1.392 . S
C313 H330 0.929 . S
C314 C309 1.383 . S
C314 C310 1.389 . S
C314 H331 0.931 . S
C315 O300 1.266 . S
C315 O301 1.248 . S
C316 Tb252 2.802 . S
C316 O296 1.264 . S
C316 O299 1.256 . S
C316 C309 1.496 . S
C317 C284 1.448 . S
C317 H294 0.930 . S
C317 C318 1.328 . S
C318 C289 1.427 . S
C318 H295 0.929 . S
C318 C317 1.328 . S
C319 O303 1.264 . S
C319 O304 1.243 . S
C320 C323 1.399 . S
C320 C324 1.383 . S
C320 C327 1.496 . S
C321 C322 1.399 . S
C321 C324 1.389 . S
C322 C321 1.399 . S
C322 C325 1.380 . S
C322 H332 0.929 . S
C323 C320 1.399 . S
C323 C325 1.392 . S
C323 H333 0.929 . S
C324 C320 1.383 . S
C324 C321 1.389 . S
C324 H334 0.931 . S
C325 C322 1.380 . S
C325 C323 1.392 . S
C325 H335 0.929 . S
C326 O306 1.266 . S
C326 O307 1.248 . S
C327 Tb263 2.802 . S
C327 O302 1.264 . S
C327 O305 1.256 . S
C327 C320 1.496 . S
H328 C311 0.929 . S
H329 C312 0.929 . S
H330 C313 0.929 . S
H331 C314 0.931 . S
H332 C322 0.929 . S
H333 C323 0.929 . S
H334 C324 0.931 . S
H335 C325 0.929 . S
Tb336 N365 2.617 . S
Tb336 N371 2.572 . S
Tb336 O380 2.465 . S
Tb336 O381 2.387 . S
Tb336 O383 2.428 . S
Tb336 O384 2.308 . S
Tb336 O388 2.349 . S
Tb336 O391 2.393 . S
Tb336 C400 2.802 . S
C337 N338 1.379 . S
C337 C340 1.416 . S
C337 C344 1.424 . S
N338 C337 1.379 . S
N338 C341 1.334 . S
N338 Tb347 2.617 . S
C339 C341 1.390 . S
C339 C342 1.339 . S
C339 H359 0.930 . S
C340 C337 1.416 . S
C340 C342 1.416 . S
C340 C346 1.448 . S
C341 N338 1.334 . S
C341 C339 1.390 . S
C341 H352 0.930 . S
C342 C339 1.339 . S
C342 C340 1.416 . S
C342 H363 0.930 . S
C343 C344 1.413 . S
C343 C345 1.427 . S
C343 C349 1.416 . S
C344 C337 1.424 . S
C344 C343 1.413 . S
C344 N348 1.361 . S
C345 C343 1.427 . S
C345 C346 1.328 . S
C345 H360 0.929 . S
C346 C340 1.448 . S
C346 C345 1.328 . S
C346 H361 0.930 . S
Tb347 N338 2.617 . S
Tb347 N348 2.572 . S
Tb347 O382 2.349 . S
Tb347 O385 2.393 . S
Tb347 O386 2.465 . S
Tb347 O387 2.387 . S
Tb347 O389 2.428 . S
Tb347 O390 2.308 . S
Tb347 C411 2.802 . S
N348 C344 1.361 . S
N348 Tb347 2.572 . S
N348 C350 1.340 . S
C349 C343 1.416 . S
C349 C351 1.332 . S
C349 H357 0.931 . S
C350 N348 1.340 . S
C350 C351 1.407 . S
C350 H356 0.930 . S
C351 C349 1.332 . S
C351 C350 1.407 . S
C351 H353 0.929 . S
H352 C341 0.930 . S
H353 C351 0.929 . S
H354 C369 0.930 . S
H355 C376 0.929 . S
H356 C350 0.930 . S
H357 C349 0.931 . S
H358 C372 0.930 . S
H359 C339 0.930 . S
H360 C345 0.929 . S
H361 C346 0.930 . S
H362 C367 0.930 . S
H363 C342 0.930 . S
H364 C375 0.931 . S
N365 Tb336 2.617 . S
N365 C366 1.379 . S
N365 C369 1.334 . S
C366 N365 1.379 . S
C366 C368 1.416 . S
C366 C374 1.424 . S
C367 H362 0.930 . S
C367 C369 1.390 . S
C367 C370 1.339 . S
C368 C366 1.416 . S
C368 C370 1.416 . S
C368 C401 1.448 . S
C369 H354 0.930 . S
C369 N365 1.334 . S
C369 C367 1.390 . S
C370 C367 1.339 . S
C370 C368 1.416 . S
C370 H377 0.930 . S
N371 Tb336 2.572 . S
N371 C372 1.340 . S
N371 C374 1.361 . S
C372 H358 0.930 . S
C372 N371 1.340 . S
C372 C376 1.407 . S
C373 C374 1.413 . S
C373 C375 1.416 . S
C373 C402 1.427 . S
C374 C366 1.424 . S
C374 N371 1.361 . S
C374 C373 1.413 . S
C375 H364 0.931 . S
C375 C373 1.416 . S
C375 C376 1.332 . S
C376 H355 0.929 . S
C376 C372 1.407 . S
C376 C375 1.332 . S
H377 C370 0.930 . S
H378 C401 0.930 . S
H379 C402 0.929 . S
O380 Tb336 2.465 . S
O380 C400 1.264 . S
O381 Tb336 2.387 . S
O381 C392 1.264 . S
O382 Tb347 2.349 . S
O382 C392 1.243 . S
O383 Tb336 2.428 . S
O383 C400 1.256 . S
O384 Tb336 2.308 . S
O384 C399 1.266 . S
O385 Tb347 2.393 . S
O385 C399 1.248 . S
O386 Tb347 2.465 . S
O386 C411 1.264 . S
O387 Tb347 2.387 . S
O387 C403 1.264 . S
O388 Tb336 2.349 . S
O388 C403 1.243 . S
O389 Tb347 2.428 . S
O389 C411 1.256 . S
O390 Tb347 2.308 . S
O390 C410 1.266 . S
O391 Tb336 2.393 . S
O391 C410 1.248 . S
C392 O381 1.264 . S
C392 O382 1.243 . S
C393 C396 1.399 . S
C393 C398 1.383 . S
C393 C400 1.496 . S
C394 C395 1.399 . S
C394 C398 1.389 . S
C395 C394 1.399 . S
C395 C397 1.380 . S
C395 H412 0.929 . S
C396 C393 1.399 . S
C396 C397 1.392 . S
C396 H413 0.929 . S
C397 C395 1.380 . S
C397 C396 1.392 . S
C397 H414 0.929 . S
C398 C393 1.383 . S
C398 C394 1.389 . S
C398 H415 0.931 . S
C399 O384 1.266 . S
C399 O385 1.248 . S
C400 Tb336 2.802 . S
C400 O380 1.264 . S
C400 O383 1.256 . S
C400 C393 1.496 . S
C401 C368 1.448 . S
C401 H378 0.930 . S
C401 C402 1.328 . S
C402 C373 1.427 . S
C402 H379 0.929 . S
C402 C401 1.328 . S
C403 O387 1.264 . S
C403 O388 1.243 . S
C404 C407 1.399 . S
C404 C408 1.383 . S
C404 C411 1.496 . S
C405 C406 1.399 . S
C405 C408 1.389 . S
C406 C405 1.399 . S
C406 C409 1.380 . S
C406 H416 0.929 . S
C407 C404 1.399 . S
C407 C409 1.392 . S
C407 H417 0.929 . S
C408 C404 1.383 . S
C408 C405 1.389 . S
C408 H418 0.931 . S
C409 C406 1.380 . S
C409 C407 1.392 . S
C409 H419 0.929 . S
C410 O390 1.266 . S
C410 O391 1.248 . S
C411 Tb347 2.802 . S
C411 O386 1.264 . S
C411 O389 1.256 . S
C411 C404 1.496 . S
H412 C395 0.929 . S
H413 C396 0.929 . S
H414 C397 0.929 . S
H415 C398 0.931 . S
H416 C406 0.929 . S
H417 C407 0.929 . S
H418 C408 0.931 . S
H419 C409 0.929 . S
Tb420 N449 2.617 . S
Tb420 N455 2.572 . S
Tb420 O464 2.465 . S
Tb420 O465 2.387 . S
Tb420 O467 2.428 . S
Tb420 O468 2.308 . S
Tb420 O472 2.349 . S
Tb420 O475 2.393 . S
Tb420 C484 2.802 . S
C421 N422 1.379 . S
C421 C424 1.416 . S
C421 C428 1.424 . S
N422 C421 1.379 . S
N422 C425 1.334 . S
N422 Tb431 2.617 . S
C423 C425 1.390 . S
C423 C426 1.339 . S
C423 H443 0.930 . S
C424 C421 1.416 . S
C424 C426 1.416 . S
C424 C430 1.448 . S
C425 N422 1.334 . S
C425 C423 1.390 . S
C425 H436 0.930 . S
C426 C423 1.339 . S
C426 C424 1.416 . S
C426 H447 0.930 . S
C427 C428 1.413 . S
C427 C429 1.427 . S
C427 C433 1.416 . S
C428 C421 1.424 . S
C428 C427 1.413 . S
C428 N432 1.361 . S
C429 C427 1.427 . S
C429 C430 1.328 . S
C429 H444 0.929 . S
C430 C424 1.448 . S
C430 C429 1.328 . S
C430 H445 0.930 . S
Tb431 N422 2.617 . S
Tb431 N432 2.572 . S
Tb431 O466 2.349 . S
Tb431 O469 2.393 . S
Tb431 O470 2.465 1_556 S
Tb431 O471 2.387 . S
Tb431 O473 2.428 1_556 S
Tb431 O474 2.308 . S
Tb431 C495 2.802 1_556 S
N432 C428 1.361 . S
N432 Tb431 2.572 . S
N432 C434 1.340 . S
C433 C427 1.416 . S
C433 C435 1.332 . S
C433 H441 0.931 1_455 S
C434 N432 1.340 . S
C434 C435 1.407 . S
C434 H440 0.930 . S
C435 C433 1.332 . S
C435 C434 1.407 . S
C435 H437 0.929 1_455 S
H436 C425 0.930 . S
H437 C435 0.929 1_655 S
H438 C453 0.930 . S
H439 C460 0.929 . S
H440 C434 0.930 . S
H441 C433 0.931 1_655 S
H442 C456 0.930 . S
H443 C423 0.930 . S
H444 C429 0.929 . S
H445 C430 0.930 . S
H446 C451 0.930 . S
H447 C426 0.930 . S
H448 C459 0.931 . S
N449 Tb420 2.617 . S
N449 C450 1.379 . S
N449 C453 1.334 . S
C450 N449 1.379 . S
C450 C452 1.416 . S
C450 C458 1.424 . S
C451 H446 0.930 . S
C451 C453 1.390 . S
C451 C454 1.339 . S
C452 C450 1.416 . S
C452 C454 1.416 . S
C452 C485 1.448 . S
C453 H438 0.930 . S
C453 N449 1.334 . S
C453 C451 1.390 . S
C454 C451 1.339 . S
C454 C452 1.416 . S
C454 H461 0.930 . S
N455 Tb420 2.572 . S
N455 C456 1.340 . S
N455 C458 1.361 . S
C456 H442 0.930 . S
C456 N455 1.340 . S
C456 C460 1.407 . S
C457 C458 1.413 . S
C457 C459 1.416 . S
C457 C486 1.427 . S
C458 C450 1.424 . S
C458 N455 1.361 . S
C458 C457 1.413 . S
C459 H448 0.931 . S
C459 C457 1.416 . S
C459 C460 1.332 . S
C460 H439 0.929 . S
C460 C456 1.407 . S
C460 C459 1.332 . S
H461 C454 0.930 . S
H462 C485 0.930 . S
H463 C486 0.929 . S
O464 Tb420 2.465 . S
O464 C484 1.264 . S
O465 Tb420 2.387 . S
O465 C476 1.264 . S
O466 Tb431 2.349 . S
O466 C476 1.243 . S
O467 Tb420 2.428 . S
O467 C484 1.256 . S
O468 Tb420 2.308 . S
O468 C483 1.266 . S
O469 Tb431 2.393 . S
O469 C483 1.248 . S
O470 Tb431 2.465 1_554 S
O470 C495 1.264 . S
O471 Tb431 2.387 . S
O471 C487 1.264 . S
O472 Tb420 2.349 . S
O472 C487 1.243 . S
O473 Tb431 2.428 1_554 S
O473 C495 1.256 . S
O474 Tb431 2.308 . S
O474 C494 1.266 . S
O475 Tb420 2.393 . S
O475 C494 1.248 . S
C476 O465 1.264 . S
C476 O466 1.243 . S
C477 C480 1.399 . S
C477 C482 1.383 . S
C477 C484 1.496 . S
C478 C479 1.399 . S
C478 C482 1.389 . S
C479 C478 1.399 . S
C479 C481 1.380 . S
C479 H496 0.929 . S
C480 C477 1.399 . S
C480 C481 1.392 . S
C480 H497 0.929 . S
C481 C479 1.380 . S
C481 C480 1.392 . S
C481 H498 0.929 . S
C482 C477 1.383 . S
C482 C478 1.389 . S
C482 H499 0.931 . S
C483 O468 1.266 . S
C483 O469 1.248 . S
C484 Tb420 2.802 . S
C484 O464 1.264 . S
C484 O467 1.256 . S
C484 C477 1.496 . S
C485 C452 1.448 . S
C485 H462 0.930 . S
C485 C486 1.328 . S
C486 C457 1.427 . S
C486 H463 0.929 . S
C486 C485 1.328 . S
C487 O471 1.264 . S
C487 O472 1.243 . S
C488 C491 1.399 . S
C488 C492 1.383 . S
C488 C495 1.496 . S
C489 C490 1.399 . S
C489 C492 1.389 . S
C490 C489 1.399 . S
C490 C493 1.380 . S
C490 H500 0.929 . S
C491 C488 1.399 . S
C491 C493 1.392 . S
C491 H501 0.929 . S
C492 C488 1.383 . S
C492 C489 1.389 . S
C492 H502 0.931 . S
C493 C490 1.380 . S
C493 C491 1.392 . S
C493 H503 0.929 . S
C494 O474 1.266 . S
C494 O475 1.248 . S
C495 Tb431 2.802 1_554 S
C495 O470 1.264 . S
C495 O473 1.256 . S
C495 C488 1.496 . S
H496 C479 0.929 . S
H497 C480 0.929 . S
H498 C481 0.929 . S
H499 C482 0.931 . S
H500 C490 0.929 . S
H501 C491 0.929 . S
H502 C492 0.931 . S
H503 C493 0.929 . S
Tb504 N533 2.617 . S
Tb504 N539 2.572 . S
Tb504 O548 2.465 . S
Tb504 O549 2.387 . S
Tb504 O551 2.428 . S
Tb504 O552 2.308 . S
Tb504 O556 2.349 . S
Tb504 O559 2.393 . S
Tb504 C568 2.802 . S
C505 N506 1.379 . S
C505 C508 1.416 . S
C505 C512 1.424 . S
N506 C505 1.379 . S
N506 C509 1.334 . S
N506 Tb515 2.617 . S
C507 C509 1.390 . S
C507 C510 1.339 . S
C507 H527 0.930 . S
C508 C505 1.416 . S
C508 C510 1.416 . S
C508 C514 1.448 . S
C509 N506 1.334 . S
C509 C507 1.390 . S
C509 H520 0.930 . S
C510 C507 1.339 . S
C510 C508 1.416 . S
C510 H531 0.930 . S
C511 C512 1.413 . S
C511 C513 1.427 . S
C511 C517 1.416 . S
C512 C505 1.424 . S
C512 C511 1.413 . S
C512 N516 1.361 . S
C513 C511 1.427 . S
C513 C514 1.328 . S
C513 H528 0.929 . S
C514 C508 1.448 . S
C514 C513 1.328 . S
C514 H529 0.930 . S
Tb515 N506 2.617 . S
Tb515 N516 2.572 . S
Tb515 O550 2.349 . S
Tb515 O553 2.393 . S
Tb515 O554 2.465 . S
Tb515 O555 2.387 . S
Tb515 O557 2.428 . S
Tb515 O558 2.308 . S
Tb515 C579 2.802 . S
N516 C512 1.361 . S
N516 Tb515 2.572 . S
N516 C518 1.340 . S
C517 C511 1.416 . S
C517 C519 1.332 . S
C517 H525 0.931 1_655 S
C518 N516 1.340 . S
C518 C519 1.407 . S
C518 H524 0.930 . S
C519 C517 1.332 . S
C519 C518 1.407 . S
C519 H521 0.929 1_655 S
H520 C509 0.930 . S
H521 C519 0.929 1_455 S
H522 C537 0.930 . S
H523 C544 0.929 . S
H524 C518 0.930 . S
H525 C517 0.931 1_455 S
H526 C540 0.930 . S
H527 C507 0.930 . S
H528 C513 0.929 . S
H529 C514 0.930 . S
H530 C535 0.930 . S
H531 C510 0.930 . S
H532 C543 0.931 . S
N533 Tb504 2.617 . S
N533 C534 1.379 . S
N533 C537 1.334 . S
C534 N533 1.379 . S
C534 C536 1.416 . S
C534 C542 1.424 . S
C535 H530 0.930 . S
C535 C537 1.390 . S
C535 C538 1.339 . S
C536 C534 1.416 . S
C536 C538 1.416 . S
C536 C569 1.448 . S
C537 H522 0.930 . S
C537 N533 1.334 . S
C537 C535 1.390 . S
C538 C535 1.339 . S
C538 C536 1.416 . S
C538 H545 0.930 . S
N539 Tb504 2.572 . S
N539 C540 1.340 . S
N539 C542 1.361 . S
C540 H526 0.930 . S
C540 N539 1.340 . S
C540 C544 1.407 . S
C541 C542 1.413 . S
C541 C543 1.416 . S
C541 C570 1.427 . S
C542 C534 1.424 . S
C542 N539 1.361 . S
C542 C541 1.413 . S
C543 H532 0.931 . S
C543 C541 1.416 . S
C543 C544 1.332 . S
C544 H523 0.929 . S
C544 C540 1.407 . S
C544 C543 1.332 . S
H545 C538 0.930 . S
H546 C569 0.930 . S
H547 C570 0.929 . S
O548 Tb504 2.465 . S
O548 C568 1.264 . S
O549 Tb504 2.387 . S
O549 C560 1.264 . S
O550 Tb515 2.349 . S
O550 C560 1.243 . S
O551 Tb504 2.428 . S
O551 C568 1.256 . S
O552 Tb504 2.308 . S
O552 C567 1.266 . S
O553 Tb515 2.393 . S
O553 C567 1.248 . S
O554 Tb515 2.465 . S
O554 C579 1.264 . S
O555 Tb515 2.387 . S
O555 C571 1.264 . S
O556 Tb504 2.349 . S
O556 C571 1.243 . S
O557 Tb515 2.428 . S
O557 C579 1.256 . S
O558 Tb515 2.308 . S
O558 C578 1.266 . S
O559 Tb504 2.393 . S
O559 C578 1.248 . S
C560 O549 1.264 . S
C560 O550 1.243 . S
C561 C564 1.399 . S
C561 C566 1.383 . S
C561 C568 1.496 . S
C562 C563 1.399 . S
C562 C566 1.389 . S
C563 C562 1.399 . S
C563 C565 1.380 . S
C563 H580 0.929 . S
C564 C561 1.399 . S
C564 C565 1.392 . S
C564 H581 0.929 . S
C565 C563 1.380 . S
C565 C564 1.392 . S
C565 H582 0.929 . S
C566 C561 1.383 . S
C566 C562 1.389 . S
C566 H583 0.931 . S
C567 O552 1.266 . S
C567 O553 1.248 . S
C568 Tb504 2.802 . S
C568 O548 1.264 . S
C568 O551 1.256 . S
C568 C561 1.496 . S
C569 C536 1.448 . S
C569 H546 0.930 . S
C569 C570 1.328 . S
C570 C541 1.427 . S
C570 H547 0.929 . S
C570 C569 1.328 . S
C571 O555 1.264 . S
C571 O556 1.243 . S
C572 C575 1.399 . S
C572 C576 1.383 . S
C572 C579 1.496 . S
C573 C574 1.399 . S
C573 C576 1.389 . S
C574 C573 1.399 . S
C574 C577 1.380 . S
C574 H584 0.929 . S
C575 C572 1.399 . S
C575 C577 1.392 . S
C575 H585 0.929 . S
C576 C572 1.383 . S
C576 C573 1.389 . S
C576 H586 0.931 . S
C577 C574 1.380 . S
C577 C575 1.392 . S
C577 H587 0.929 . S
C578 O558 1.266 . S
C578 O559 1.248 . S
C579 Tb515 2.802 . S
C579 O554 1.264 . S
C579 O557 1.256 . S
C579 C572 1.496 . S
H580 C563 0.929 . S
H581 C564 0.929 . S
H582 C565 0.929 . S
H583 C566 0.931 . S
H584 C574 0.929 . S
H585 C575 0.929 . S
H586 C576 0.931 . S
H587 C577 0.929 . S
Tb588 N617 2.617 . S
Tb588 N623 2.572 . S
Tb588 O632 2.465 . S
Tb588 O633 2.387 . S
Tb588 O635 2.428 . S
Tb588 O636 2.308 . S
Tb588 O640 2.349 . S
Tb588 O643 2.393 . S
Tb588 C652 2.802 . S
C589 N590 1.379 . S
C589 C592 1.416 . S
C589 C596 1.424 . S
N590 C589 1.379 . S
N590 C593 1.334 . S
N590 Tb599 2.617 . S
C591 C593 1.390 . S
C591 C594 1.339 . S
C591 H611 0.930 . S
C592 C589 1.416 . S
C592 C594 1.416 . S
C592 C598 1.448 . S
C593 N590 1.334 . S
C593 C591 1.390 . S
C593 H604 0.930 . S
C594 C591 1.339 . S
C594 C592 1.416 . S
C594 H615 0.930 . S
C595 C596 1.413 . S
C595 C597 1.427 . S
C595 C601 1.416 . S
C596 C589 1.424 . S
C596 C595 1.413 . S
C596 N600 1.361 . S
C597 C595 1.427 . S
C597 C598 1.328 . S
C597 H612 0.929 . S
C598 C592 1.448 . S
C598 C597 1.328 . S
C598 H613 0.930 . S
Tb599 N590 2.617 . S
Tb599 N600 2.572 . S
Tb599 O634 2.349 . S
Tb599 O637 2.393 . S
Tb599 O638 2.465 . S
Tb599 O639 2.387 . S
Tb599 O641 2.428 . S
Tb599 O642 2.308 . S
Tb599 C663 2.802 . S
N600 C596 1.361 . S
N600 Tb599 2.572 . S
N600 C602 1.340 . S
C601 C595 1.416 . S
C601 C603 1.332 . S
C601 H609 0.931 1_565 S
C602 N600 1.340 . S
C602 C603 1.407 . S
C602 H608 0.930 . S
C603 C601 1.332 . S
C603 C602 1.407 . S
C603 H605 0.929 1_565 S
H604 C593 0.930 . S
H605 C603 0.929 1_545 S
H606 C621 0.930 . S
H607 C628 0.929 . S
H608 C602 0.930 . S
H609 C601 0.931 1_545 S
H610 C624 0.930 . S
H611 C591 0.930 . S
H612 C597 0.929 . S
H613 C598 0.930 . S
H614 C619 0.930 . S
H615 C594 0.930 . S
H616 C627 0.931 . S
N617 Tb588 2.617 . S
N617 C618 1.379 . S
N617 C621 1.334 . S
C618 N617 1.379 . S
C618 C620 1.416 . S
C618 C626 1.424 . S
C619 H614 0.930 . S
C619 C621 1.390 . S
C619 C622 1.339 . S
C620 C618 1.416 . S
C620 C622 1.416 . S
C620 C653 1.448 . S
C621 H606 0.930 . S
C621 N617 1.334 . S
C621 C619 1.390 . S
C622 C619 1.339 . S
C622 C620 1.416 . S
C622 H629 0.930 . S
N623 Tb588 2.572 . S
N623 C624 1.340 . S
N623 C626 1.361 . S
C624 H610 0.930 . S
C624 N623 1.340 . S
C624 C628 1.407 . S
C625 C626 1.413 . S
C625 C627 1.416 . S
C625 C654 1.427 . S
C626 C618 1.424 . S
C626 N623 1.361 . S
C626 C625 1.413 . S
C627 H616 0.931 . S
C627 C625 1.416 . S
C627 C628 1.332 . S
C628 H607 0.929 . S
C628 C624 1.407 . S
C628 C627 1.332 . S
H629 C622 0.930 . S
H630 C653 0.930 . S
H631 C654 0.929 . S
O632 Tb588 2.465 . S
O632 C652 1.264 . S
O633 Tb588 2.387 . S
O633 C644 1.264 . S
O634 Tb599 2.349 . S
O634 C644 1.243 . S
O635 Tb588 2.428 . S
O635 C652 1.256 . S
O636 Tb588 2.308 . S
O636 C651 1.266 . S
O637 Tb599 2.393 . S
O637 C651 1.248 . S
O638 Tb599 2.465 . S
O638 C663 1.264 . S
O639 Tb599 2.387 . S
O639 C655 1.264 . S
O640 Tb588 2.349 . S
O640 C655 1.243 . S
O641 Tb599 2.428 . S
O641 C663 1.256 . S
O642 Tb599 2.308 . S
O642 C662 1.266 . S
O643 Tb588 2.393 . S
O643 C662 1.248 . S
C644 O633 1.264 . S
C644 O634 1.243 . S
C645 C648 1.399 . S
C645 C650 1.383 . S
C645 C652 1.496 . S
C646 C647 1.399 . S
C646 C650 1.389 . S
C647 C646 1.399 . S
C647 C649 1.380 . S
C647 H664 0.929 . S
C648 C645 1.399 . S
C648 C649 1.392 . S
C648 H665 0.929 . S
C649 C647 1.380 . S
C649 C648 1.392 . S
C649 H666 0.929 . S
C650 C645 1.383 . S
C650 C646 1.389 . S
C650 H667 0.931 . S
C651 O636 1.266 . S
C651 O637 1.248 . S
C652 Tb588 2.802 . S
C652 O632 1.264 . S
C652 O635 1.256 . S
C652 C645 1.496 . S
C653 C620 1.448 . S
C653 H630 0.930 . S
C653 C654 1.328 . S
C654 C625 1.427 . S
C654 H631 0.929 . S
C654 C653 1.328 . S
C655 O639 1.264 . S
C655 O640 1.243 . S
C656 C659 1.399 . S
C656 C660 1.383 . S
C656 C663 1.496 . S
C657 C658 1.399 . S
C657 C660 1.389 . S
C658 C657 1.399 . S
C658 C661 1.380 . S
C658 H668 0.929 . S
C659 C656 1.399 . S
C659 C661 1.392 . S
C659 H669 0.929 . S
C660 C656 1.383 . S
C660 C657 1.389 . S
C660 H670 0.931 . S
C661 C658 1.380 . S
C661 C659 1.392 . S
C661 H671 0.929 . S
C662 O642 1.266 . S
C662 O643 1.248 . S
C663 Tb599 2.802 . S
C663 O638 1.264 . S
C663 O641 1.256 . S
C663 C656 1.496 . S
H664 C647 0.929 . S
H665 C648 0.929 . S
H666 C649 0.929 . S
H667 C650 0.931 . S
H668 C658 0.929 . S
H669 C659 0.929 . S
H670 C660 0.931 . S
H671 C661 0.929 . S
Tb672 N701 2.617 . S
Tb672 N707 2.572 . S
Tb672 O716 2.465 . S
Tb672 O717 2.387 . S
Tb672 O719 2.428 . S
Tb672 O720 2.308 . S
Tb672 O724 2.349 . S
Tb672 O727 2.393 . S
Tb672 C736 2.802 . S
C673 N674 1.379 . S
C673 C676 1.416 . S
C673 C680 1.424 . S
N674 C673 1.379 . S
N674 C677 1.334 . S
N674 Tb683 2.617 . S
C675 C677 1.390 . S
C675 C678 1.339 . S
C675 H695 0.930 . S
C676 C673 1.416 . S
C676 C678 1.416 . S
C676 C682 1.448 . S
C677 N674 1.334 . S
C677 C675 1.390 . S
C677 H688 0.930 . S
C678 C675 1.339 . S
C678 C676 1.416 . S
C678 H699 0.930 . S
C679 C680 1.413 . S
C679 C681 1.427 . S
C679 C685 1.416 . S
C680 C673 1.424 . S
C680 C679 1.413 . S
C680 N684 1.361 . S
C681 C679 1.427 . S
C681 C682 1.328 . S
C681 H696 0.929 . S
C682 C676 1.448 . S
C682 C681 1.328 . S
C682 H697 0.930 . S
Tb683 N674 2.617 . S
Tb683 N684 2.572 . S
Tb683 O718 2.349 . S
Tb683 O721 2.393 . S
Tb683 O722 2.465 1_554 S
Tb683 O723 2.387 . S
Tb683 O725 2.428 1_554 S
Tb683 O726 2.308 . S
Tb683 C747 2.802 1_554 S
N684 C680 1.361 . S
N684 Tb683 2.572 . S
N684 C686 1.340 . S
C685 C679 1.416 . S
C685 C687 1.332 . S
C685 H693 0.931 . S
C686 N684 1.340 . S
C686 C687 1.407 . S
C686 H692 0.930 . S
C687 C685 1.332 . S
C687 C686 1.407 . S
C687 H689 0.929 . S
H688 C677 0.930 . S
H689 C687 0.929 . S
H690 C705 0.930 . S
H691 C712 0.929 . S
H692 C686 0.930 . S
H693 C685 0.931 . S
H694 C708 0.930 . S
H695 C675 0.930 . S
H696 C681 0.929 . S
H697 C682 0.930 . S
H698 C703 0.930 . S
H699 C678 0.930 . S
H700 C711 0.931 . S
N701 Tb672 2.617 . S
N701 C702 1.379 . S
N701 C705 1.334 . S
C702 N701 1.379 . S
C702 C704 1.416 . S
C702 C710 1.424 . S
C703 H698 0.930 . S
C703 C705 1.390 . S
C703 C706 1.339 . S
C704 C702 1.416 . S
C704 C706 1.416 . S
C704 C737 1.448 . S
C705 H690 0.930 . S
C705 N701 1.334 . S
C705 C703 1.390 . S
C706 C703 1.339 . S
C706 C704 1.416 . S
C706 H713 0.930 . S
N707 Tb672 2.572 . S
N707 C708 1.340 . S
N707 C710 1.361 . S
C708 H694 0.930 . S
C708 N707 1.340 . S
C708 C712 1.407 . S
C709 C710 1.413 . S
C709 C711 1.416 . S
C709 C738 1.427 . S
C710 C702 1.424 . S
C710 N707 1.361 . S
C710 C709 1.413 . S
C711 H700 0.931 . S
C711 C709 1.416 . S
C711 C712 1.332 . S
C712 H691 0.929 . S
C712 C708 1.407 . S
C712 C711 1.332 . S
H713 C706 0.930 . S
H714 C737 0.930 . S
H715 C738 0.929 . S
O716 Tb672 2.465 . S
O716 C736 1.264 . S
O717 Tb672 2.387 . S
O717 C728 1.264 . S
O718 Tb683 2.349 . S
O718 C728 1.243 . S
O719 Tb672 2.428 . S
O719 C736 1.256 . S
O720 Tb672 2.308 . S
O720 C735 1.266 . S
O721 Tb683 2.393 . S
O721 C735 1.248 . S
O722 Tb683 2.465 1_556 S
O722 C747 1.264 . S
O723 Tb683 2.387 . S
O723 C739 1.264 . S
O724 Tb672 2.349 . S
O724 C739 1.243 . S
O725 Tb683 2.428 1_556 S
O725 C747 1.256 . S
O726 Tb683 2.308 . S
O726 C746 1.266 . S
O727 Tb672 2.393 . S
O727 C746 1.248 . S
C728 O717 1.264 . S
C728 O718 1.243 . S
C729 C732 1.399 . S
C729 C734 1.383 . S
C729 C736 1.496 . S
C730 C731 1.399 . S
C730 C734 1.389 . S
C731 C730 1.399 . S
C731 C733 1.380 . S
C731 H748 0.929 . S
C732 C729 1.399 . S
C732 C733 1.392 . S
C732 H749 0.929 . S
C733 C731 1.380 . S
C733 C732 1.392 . S
C733 H750 0.929 . S
C734 C729 1.383 . S
C734 C730 1.389 . S
C734 H751 0.931 . S
C735 O720 1.266 . S
C735 O721 1.248 . S
C736 Tb672 2.802 . S
C736 O716 1.264 . S
C736 O719 1.256 . S
C736 C729 1.496 . S
C737 C704 1.448 . S
C737 H714 0.930 . S
C737 C738 1.328 . S
C738 C709 1.427 . S
C738 H715 0.929 . S
C738 C737 1.328 . S
C739 O723 1.264 . S
C739 O724 1.243 . S
C740 C743 1.399 . S
C740 C744 1.383 . S
C740 C747 1.496 . S
C741 C742 1.399 . S
C741 C744 1.389 . S
C742 C741 1.399 . S
C742 C745 1.380 . S
C742 H752 0.929 . S
C743 C740 1.399 . S
C743 C745 1.392 . S
C743 H753 0.929 . S
C744 C740 1.383 . S
C744 C741 1.389 . S
C744 H754 0.931 . S
C745 C742 1.380 . S
C745 C743 1.392 . S
C745 H755 0.929 . S
C746 O726 1.266 . S
C746 O727 1.248 . S
C747 Tb683 2.802 1_556 S
C747 O722 1.264 . S
C747 O725 1.256 . S
C747 C740 1.496 . S
H748 C731 0.929 . S
H749 C732 0.929 . S
H750 C733 0.929 . S
H751 C734 0.931 . S
H752 C742 0.929 . S
H753 C743 0.929 . S
H754 C744 0.931 . S
H755 C745 0.929 . S
Tb756 N785 2.617 . S
Tb756 N791 2.572 . S
Tb756 O800 2.465 . S
Tb756 O801 2.387 . S
Tb756 O803 2.428 . S
Tb756 O804 2.308 . S
Tb756 O808 2.349 . S
Tb756 O811 2.393 . S
Tb756 C820 2.802 . S
C757 N758 1.379 . S
C757 C760 1.416 . S
C757 C764 1.424 . S
N758 C757 1.379 . S
N758 C761 1.334 . S
N758 Tb767 2.617 . S
C759 C761 1.390 . S
C759 C762 1.339 . S
C759 H779 0.930 . S
C760 C757 1.416 . S
C760 C762 1.416 . S
C760 C766 1.448 . S
C761 N758 1.334 . S
C761 C759 1.390 . S
C761 H772 0.930 . S
C762 C759 1.339 . S
C762 C760 1.416 . S
C762 H783 0.930 . S
C763 C764 1.413 . S
C763 C765 1.427 . S
C763 C769 1.416 . S
C764 C757 1.424 . S
C764 C763 1.413 . S
C764 N768 1.361 . S
C765 C763 1.427 . S
C765 C766 1.328 . S
C765 H780 0.929 . S
C766 C760 1.448 . S
C766 C765 1.328 . S
C766 H781 0.930 . S
Tb767 N758 2.617 . S
Tb767 N768 2.572 . S
Tb767 O802 2.349 . S
Tb767 O805 2.393 . S
Tb767 O806 2.465 . S
Tb767 O807 2.387 . S
Tb767 O809 2.428 . S
Tb767 O810 2.308 . S
Tb767 C831 2.802 . S
N768 C764 1.361 . S
N768 Tb767 2.572 . S
N768 C770 1.340 . S
C769 C763 1.416 . S
C769 C771 1.332 . S
C769 H777 0.931 1_455 S
C770 N768 1.340 . S
C770 C771 1.407 . S
C770 H776 0.930 . S
C771 C769 1.332 . S
C771 C770 1.407 . S
C771 H773 0.929 1_455 S
H772 C761 0.930 . S
H773 C771 0.929 1_655 S
H774 C789 0.930 . S
H775 C796 0.929 . S
H776 C770 0.930 . S
H777 C769 0.931 1_655 S
H778 C792 0.930 . S
H779 C759 0.930 . S
H780 C765 0.929 . S
H781 C766 0.930 . S
H782 C787 0.930 . S
H783 C762 0.930 . S
H784 C795 0.931 . S
N785 Tb756 2.617 . S
N785 C786 1.379 . S
N785 C789 1.334 . S
C786 N785 1.379 . S
C786 C788 1.416 . S
C786 C794 1.424 . S
C787 H782 0.930 . S
C787 C789 1.390 . S
C787 C790 1.339 . S
C788 C786 1.416 . S
C788 C790 1.416 . S
C788 C821 1.448 . S
C789 H774 0.930 . S
C789 N785 1.334 . S
C789 C787 1.390 . S
C790 C787 1.339 . S
C790 C788 1.416 . S
C790 H797 0.930 . S
N791 Tb756 2.572 . S
N791 C792 1.340 . S
N791 C794 1.361 . S
C792 H778 0.930 . S
C792 N791 1.340 . S
C792 C796 1.407 . S
C793 C794 1.413 . S
C793 C795 1.416 . S
C793 C822 1.427 . S
C794 C786 1.424 . S
C794 N791 1.361 . S
C794 C793 1.413 . S
C795 H784 0.931 . S
C795 C793 1.416 . S
C795 C796 1.332 . S
C796 H775 0.929 . S
C796 C792 1.407 . S
C796 C795 1.332 . S
H797 C790 0.930 . S
H798 C821 0.930 . S
H799 C822 0.929 . S
O800 Tb756 2.465 . S
O800 C820 1.264 . S
O801 Tb756 2.387 . S
O801 C812 1.264 . S
O802 Tb767 2.349 . S
O802 C812 1.243 . S
O803 Tb756 2.428 . S
O803 C820 1.256 . S
O804 Tb756 2.308 . S
O804 C819 1.266 . S
O805 Tb767 2.393 . S
O805 C819 1.248 . S
O806 Tb767 2.465 . S
O806 C831 1.264 . S
O807 Tb767 2.387 . S
O807 C823 1.264 . S
O808 Tb756 2.349 . S
O808 C823 1.243 . S
O809 Tb767 2.428 . S
O809 C831 1.256 . S
O810 Tb767 2.308 . S
O810 C830 1.266 . S
O811 Tb756 2.393 . S
O811 C830 1.248 . S
C812 O801 1.264 . S
C812 O802 1.243 . S
C813 C816 1.399 . S
C813 C818 1.383 . S
C813 C820 1.496 . S
C814 C815 1.399 . S
C814 C818 1.389 . S
C815 C814 1.399 . S
C815 C817 1.380 . S
C815 H832 0.929 . S
C816 C813 1.399 . S
C816 C817 1.392 . S
C816 H833 0.929 . S
C817 C815 1.380 . S
C817 C816 1.392 . S
C817 H834 0.929 . S
C818 C813 1.383 . S
C818 C814 1.389 . S
C818 H835 0.931 . S
C819 O804 1.266 . S
C819 O805 1.248 . S
C820 Tb756 2.802 . S
C820 O800 1.264 . S
C820 O803 1.256 . S
C820 C813 1.496 . S
C821 C788 1.448 . S
C821 H798 0.930 . S
C821 C822 1.328 . S
C822 C793 1.427 . S
C822 H799 0.929 . S
C822 C821 1.328 . S
C823 O807 1.264 . S
C823 O808 1.243 . S
C824 C827 1.399 . S
C824 C828 1.383 . S
C824 C831 1.496 . S
C825 C826 1.399 . S
C825 C828 1.389 . S
C826 C825 1.399 . S
C826 C829 1.380 . S
C826 H836 0.929 . S
C827 C824 1.399 . S
C827 C829 1.392 . S
C827 H837 0.929 . S
C828 C824 1.383 . S
C828 C825 1.389 . S
C828 H838 0.931 . S
C829 C826 1.380 . S
C829 C827 1.392 . S
C829 H839 0.929 . S
C830 O810 1.266 . S
C830 O811 1.248 . S
C831 Tb767 2.802 . S
C831 O806 1.264 . S
C831 O809 1.256 . S
C831 C824 1.496 . S
H832 C815 0.929 . S
H833 C816 0.929 . S
H834 C817 0.929 . S
H835 C818 0.931 . S
H836 C826 0.929 . S
H837 C827 0.929 . S
H838 C828 0.931 . S
H839 C829 0.929 . S
Tb840 N869 2.617 . S
Tb840 N875 2.572 . S
Tb840 O884 2.465 . S
Tb840 O885 2.387 . S
Tb840 O887 2.428 . S
Tb840 O888 2.308 . S
Tb840 O892 2.349 . S
Tb840 O895 2.393 . S
Tb840 C904 2.802 . S
C841 N842 1.379 . S
C841 C844 1.416 . S
C841 C848 1.424 . S
N842 C841 1.379 . S
N842 C845 1.334 . S
N842 Tb851 2.617 . S
C843 C845 1.390 . S
C843 C846 1.339 . S
C843 H863 0.930 . S
C844 C841 1.416 . S
C844 C846 1.416 . S
C844 C850 1.448 . S
C845 N842 1.334 . S
C845 C843 1.390 . S
C845 H856 0.930 . S
C846 C843 1.339 . S
C846 C844 1.416 . S
C846 H867 0.930 . S
C847 C848 1.413 . S
C847 C849 1.427 . S
C847 C853 1.416 . S
C848 C841 1.424 . S
C848 C847 1.413 . S
C848 N852 1.361 . S
C849 C847 1.427 . S
C849 C850 1.328 . S
C849 H864 0.929 . S
C850 C844 1.448 . S
C850 C849 1.328 . S
C850 H865 0.930 . S
Tb851 N842 2.617 . S
Tb851 N852 2.572 . S
Tb851 O886 2.349 . S
Tb851 O889 2.393 . S
Tb851 O890 2.465 . S
Tb851 O891 2.387 . S
Tb851 O893 2.428 . S
Tb851 O894 2.308 . S
Tb851 C915 2.802 . S
N852 C848 1.361 . S
N852 Tb851 2.572 . S
N852 C854 1.340 . S
C853 C847 1.416 . S
C853 C855 1.332 . S
C853 H861 0.931 1_545 S
C854 N852 1.340 . S
C854 C855 1.407 . S
C854 H860 0.930 . S
C855 C853 1.332 . S
C855 C854 1.407 . S
C855 H857 0.929 1_545 S
H856 C845 0.930 . S
H857 C855 0.929 1_565 S
H858 C873 0.930 . S
H859 C880 0.929 . S
H860 C854 0.930 . S
H861 C853 0.931 1_565 S
H862 C876 0.930 . S
H863 C843 0.930 . S
H864 C849 0.929 . S
H865 C850 0.930 . S
H866 C871 0.930 . S
H867 C846 0.930 . S
H868 C879 0.931 . S
N869 Tb840 2.617 . S
N869 C870 1.379 . S
N869 C873 1.334 . S
C870 N869 1.379 . S
C870 C872 1.416 . S
C870 C878 1.424 . S
C871 H866 0.930 . S
C871 C873 1.390 . S
C871 C874 1.339 . S
C872 C870 1.416 . S
C872 C874 1.416 . S
C872 C905 1.448 . S
C873 H858 0.930 . S
C873 N869 1.334 . S
C873 C871 1.390 . S
C874 C871 1.339 . S
C874 C872 1.416 . S
C874 H881 0.930 . S
N875 Tb840 2.572 . S
N875 C876 1.340 . S
N875 C878 1.361 . S
C876 H862 0.930 . S
C876 N875 1.340 . S
C876 C880 1.407 . S
C877 C878 1.413 . S
C877 C879 1.416 . S
C877 C906 1.427 . S
C878 C870 1.424 . S
C878 N875 1.361 . S
C878 C877 1.413 . S
C879 H868 0.931 . S
C879 C877 1.416 . S
C879 C880 1.332 . S
C880 H859 0.929 . S
C880 C876 1.407 . S
C880 C879 1.332 . S
H881 C874 0.930 . S
H882 C905 0.930 . S
H883 C906 0.929 . S
O884 Tb840 2.465 . S
O884 C904 1.264 . S
O885 Tb840 2.387 . S
O885 C896 1.264 . S
O886 Tb851 2.349 . S
O886 C896 1.243 . S
O887 Tb840 2.428 . S
O887 C904 1.256 . S
O888 Tb840 2.308 . S
O888 C903 1.266 . S
O889 Tb851 2.393 . S
O889 C903 1.248 . S
O890 Tb851 2.465 . S
O890 C915 1.264 . S
O891 Tb851 2.387 . S
O891 C907 1.264 . S
O892 Tb840 2.349 . S
O892 C907 1.243 . S
O893 Tb851 2.428 . S
O893 C915 1.256 . S
O894 Tb851 2.308 . S
O894 C914 1.266 . S
O895 Tb840 2.393 . S
O895 C914 1.248 . S
C896 O885 1.264 . S
C896 O886 1.243 . S
C897 C900 1.399 . S
C897 C902 1.383 . S
C897 C904 1.496 . S
C898 C899 1.399 . S
C898 C902 1.389 . S
C899 C898 1.399 . S
C899 C901 1.380 . S
C899 H916 0.929 . S
C900 C897 1.399 . S
C900 C901 1.392 . S
C900 H917 0.929 . S
C901 C899 1.380 . S
C901 C900 1.392 . S
C901 H918 0.929 . S
C902 C897 1.383 . S
C902 C898 1.389 . S
C902 H919 0.931 . S
C903 O888 1.266 . S
C903 O889 1.248 . S
C904 Tb840 2.802 . S
C904 O884 1.264 . S
C904 O887 1.256 . S
C904 C897 1.496 . S
C905 C872 1.448 . S
C905 H882 0.930 . S
C905 C906 1.328 . S
C906 C877 1.427 . S
C906 H883 0.929 . S
C906 C905 1.328 . S
C907 O891 1.264 . S
C907 O892 1.243 . S
C908 C911 1.399 . S
C908 C912 1.383 . S
C908 C915 1.496 . S
C909 C910 1.399 . S
C909 C912 1.389 . S
C910 C909 1.399 . S
C910 C913 1.380 . S
C910 H920 0.929 . S
C911 C908 1.399 . S
C911 C913 1.392 . S
C911 H921 0.929 . S
C912 C908 1.383 . S
C912 C909 1.389 . S
C912 H922 0.931 . S
C913 C910 1.380 . S
C913 C911 1.392 . S
C913 H923 0.929 . S
C914 O894 1.266 . S
C914 O895 1.248 . S
C915 Tb851 2.802 . S
C915 O890 1.264 . S
C915 O893 1.256 . S
C915 C908 1.496 . S
H916 C899 0.929 . S
H917 C900 0.929 . S
H918 C901 0.929 . S
H919 C902 0.931 . S
H920 C910 0.929 . S
H921 C911 0.929 . S
H922 C912 0.931 . S
H923 C913 0.929 . S
Tb924 N953 2.617 . S
Tb924 N959 2.572 . S
Tb924 O968 2.465 . S
Tb924 O969 2.387 . S
Tb924 O971 2.428 . S
Tb924 O972 2.308 . S
Tb924 O976 2.349 . S
Tb924 O979 2.393 . S
Tb924 C988 2.802 . S
C925 N926 1.379 . S
C925 C928 1.416 . S
C925 C932 1.424 . S
N926 C925 1.379 . S
N926 C929 1.334 . S
N926 Tb935 2.617 . S
C927 C929 1.390 . S
C927 C930 1.339 . S
C927 H947 0.930 . S
C928 C925 1.416 . S
C928 C930 1.416 . S
C928 C934 1.448 . S
C929 N926 1.334 . S
C929 C927 1.390 . S
C929 H940 0.930 . S
C930 C927 1.339 . S
C930 C928 1.416 . S
C930 H951 0.930 . S
C931 C932 1.413 . S
C931 C933 1.427 . S
C931 C937 1.416 . S
C932 C925 1.424 . S
C932 C931 1.413 . S
C932 N936 1.361 . S
C933 C931 1.427 . S
C933 C934 1.328 . S
C933 H948 0.929 . S
C934 C928 1.448 . S
C934 C933 1.328 . S
C934 H949 0.930 . S
Tb935 N926 2.617 . S
Tb935 N936 2.572 . S
Tb935 O970 2.349 . S
Tb935 O973 2.393 . S
Tb935 O974 2.465 1_554 S
Tb935 O975 2.387 . S
Tb935 O977 2.428 1_554 S
Tb935 O978 2.308 . S
Tb935 C999 2.802 1_554 S
N936 C932 1.361 . S
N936 Tb935 2.572 . S
N936 C938 1.340 . S
C937 C931 1.416 . S
C937 C939 1.332 . S
C937 H945 0.931 . S
C938 N936 1.340 . S
C938 C939 1.407 . S
C938 H944 0.930 . S
C939 C937 1.332 . S
C939 C938 1.407 . S
C939 H941 0.929 . S
H940 C929 0.930 . S
H941 C939 0.929 . S
H942 C957 0.930 . S
H943 C964 0.929 . S
H944 C938 0.930 . S
H945 C937 0.931 . S
H946 C960 0.930 . S
H947 C927 0.930 . S
H948 C933 0.929 . S
H949 C934 0.930 . S
H950 C955 0.930 . S
H951 C930 0.930 . S
H952 C963 0.931 . S
N953 Tb924 2.617 . S
N953 C954 1.379 . S
N953 C957 1.334 . S
C954 N953 1.379 . S
C954 C956 1.416 . S
C954 C962 1.424 . S
C955 H950 0.930 . S
C955 C957 1.390 . S
C955 C958 1.339 . S
C956 C954 1.416 . S
C956 C958 1.416 . S
C956 C989 1.448 . S
C957 H942 0.930 . S
C957 N953 1.334 . S
C957 C955 1.390 . S
C958 C955 1.339 . S
C958 C956 1.416 . S
C958 H965 0.930 . S
N959 Tb924 2.572 . S
N959 C960 1.340 . S
N959 C962 1.361 . S
C960 H946 0.930 . S
C960 N959 1.340 . S
C960 C964 1.407 . S
C961 C962 1.413 . S
C961 C963 1.416 . S
C961 C990 1.427 . S
C962 C954 1.424 . S
C962 N959 1.361 . S
C962 C961 1.413 . S
C963 H952 0.931 . S
C963 C961 1.416 . S
C963 C964 1.332 . S
C964 H943 0.929 . S
C964 C960 1.407 . S
C964 C963 1.332 . S
H965 C958 0.930 . S
H966 C989 0.930 . S
H967 C990 0.929 . S
O968 Tb924 2.465 . S
O968 C988 1.264 . S
O969 Tb924 2.387 . S
O969 C980 1.264 . S
O970 Tb935 2.349 . S
O970 C980 1.243 . S
O971 Tb924 2.428 . S
O971 C988 1.256 . S
O972 Tb924 2.308 . S
O972 C987 1.266 . S
O973 Tb935 2.393 . S
O973 C987 1.248 . S
O974 Tb935 2.465 1_556 S
O974 C999 1.264 . S
O975 Tb935 2.387 . S
O975 C991 1.264 . S
O976 Tb924 2.349 . S
O976 C991 1.243 . S
O977 Tb935 2.428 1_556 S
O977 C999 1.256 . S
O978 Tb935 2.308 . S
O978 C998 1.266 . S
O979 Tb924 2.393 . S
O979 C998 1.248 . S
C980 O969 1.264 . S
C980 O970 1.243 . S
C981 C984 1.399 . S
C981 C986 1.383 . S
C981 C988 1.496 . S
C982 C983 1.399 . S
C982 C986 1.389 . S
C983 C982 1.399 . S
C983 C985 1.380 . S
C983 H1000 0.929 . S
C984 C981 1.399 . S
C984 C985 1.392 . S
C984 H1001 0.929 . S
C985 C983 1.380 . S
C985 C984 1.392 . S
C985 H1002 0.929 . S
C986 C981 1.383 . S
C986 C982 1.389 . S
C986 H1003 0.931 . S
C987 O972 1.266 . S
C987 O973 1.248 . S
C988 Tb924 2.802 . S
C988 O968 1.264 . S
C988 O971 1.256 . S
C988 C981 1.496 . S
C989 C956 1.448 . S
C989 H966 0.930 . S
C989 C990 1.328 . S
C990 C961 1.427 . S
C990 H967 0.929 . S
C990 C989 1.328 . S
C991 O975 1.264 . S
C991 O976 1.243 . S
C992 C995 1.399 . S
C992 C996 1.383 . S
C992 C999 1.496 . S
C993 C994 1.399 . S
C993 C996 1.389 . S
C994 C993 1.399 . S
C994 C997 1.380 . S
C994 H1004 0.929 . S
C995 C992 1.399 . S
C995 C997 1.392 . S
C995 H1005 0.929 . S
C996 C992 1.383 . S
C996 C993 1.389 . S
C996 H1006 0.931 . S
C997 C994 1.380 . S
C997 C995 1.392 . S
C997 H1007 0.929 . S
C998 O978 1.266 . S
C998 O979 1.248 . S
C999 Tb935 2.802 1_556 S
C999 O974 1.264 . S
C999 O977 1.256 . S
C999 C992 1.496 . S
H1000 C983 0.929 . S
H1001 C984 0.929 . S
H1002 C985 0.929 . S
H1003 C986 0.931 . S
H1004 C994 0.929 . S
H1005 C995 0.929 . S
H1006 C996 0.931 . S
H1007 C997 0.929 . S
H1008 C1016 0.950 . S
H1009 C1021 0.950 . S
H1010 C1018 0.950 . S
H1011 C1020 0.950 . S
H1012 C1022 0.950 . S
H1013 C1024 0.950 . S
H1014 C1026 0.950 . S
H1015 C1027 0.950 . S
C1016 H1008 0.950 . S
C1016 C1017 1.386 . S
C1016 C1018 1.391 . S
C1017 C1016 1.386 . S
C1017 C1021 1.393 . S
C1018 H1010 0.950 . S
C1018 C1016 1.391 . S
C1018 C1019 1.400 . S
C1019 C1018 1.400 . S
C1019 C1020 1.398 . S
C1019 C1025 1.491 . S
C1020 H1011 0.950 . S
C1020 C1019 1.398 . S
C1020 C1021 1.391 . S
C1021 H1009 0.950 . S
C1021 C1017 1.393 . S
C1021 C1020 1.391 . S
C1022 H1012 0.950 . S
C1022 C1023 1.386 . S
C1022 C1024 1.391 . S
C1023 C1022 1.386 . S
C1023 C1027 1.393 . S
C1024 H1013 0.950 . S
C1024 C1022 1.391 . S
C1024 C1025 1.400 . S
C1025 C1019 1.491 . S
C1025 C1024 1.400 . S
C1025 C1026 1.398 . S
C1026 H1014 0.950 . S
C1026 C1025 1.398 . S
C1026 C1027 1.391 . S
C1027 H1015 0.950 . S
C1027 C1023 1.393 . S
C1027 C1026 1.391 . S
H1028 C1036 0.950 . S
H1029 C1041 0.950 . S
H1030 C1038 0.950 . S
H1031 C1040 0.950 . S
H1032 C1042 0.950 . S
H1033 C1044 0.950 . S
H1034 C1046 0.950 . S
H1035 C1047 0.950 . S
C1036 H1028 0.950 . S
C1036 C1037 1.386 . S
C1036 C1038 1.391 . S
C1037 C1036 1.386 . S
C1037 C1041 1.393 . S
C1038 H1030 0.950 . S
C1038 C1036 1.391 . S
C1038 C1039 1.400 . S
C1039 C1038 1.400 . S
C1039 C1040 1.398 . S
C1039 C1045 1.491 . S
C1040 H1031 0.950 . S
C1040 C1039 1.398 . S
C1040 C1041 1.391 . S
C1041 H1029 0.950 . S
C1041 C1037 1.393 . S
C1041 C1040 1.391 . S
C1042 H1032 0.950 . S
C1042 C1043 1.386 . S
C1042 C1044 1.391 . S
C1043 C1042 1.386 . S
C1043 C1047 1.393 . S
C1044 H1033 0.950 . S
C1044 C1042 1.391 . S
C1044 C1045 1.400 . S
C1045 C1039 1.491 . S
C1045 C1044 1.400 . S
C1045 C1046 1.398 . S
C1046 H1034 0.950 . S
C1046 C1045 1.398 . S
C1046 C1047 1.391 . S
C1047 H1035 0.950 . S
C1047 C1043 1.393 . S
C1047 C1046 1.391 . S
H1048 C1056 0.950 . S
H1049 C1061 0.950 . S
H1050 C1058 0.950 . S
H1051 C1060 0.950 . S
H1052 C1062 0.950 . S
H1053 C1064 0.950 . S
H1054 C1066 0.950 . S
H1055 C1067 0.950 . S
C1056 H1048 0.950 . S
C1056 C1057 1.386 . S
C1056 C1058 1.391 . S
C1057 C1056 1.386 . S
C1057 C1061 1.393 . S
C1058 H1050 0.950 . S
C1058 C1056 1.391 . S
C1058 C1059 1.400 . S
C1059 C1058 1.400 . S
C1059 C1060 1.398 . S
C1059 C1065 1.491 . S
C1060 H1051 0.950 . S
C1060 C1059 1.398 . S
C1060 C1061 1.391 . S
C1061 H1049 0.950 . S
C1061 C1057 1.393 . S
C1061 C1060 1.391 . S
C1062 H1052 0.950 . S
C1062 C1063 1.386 . S
C1062 C1064 1.391 . S
C1063 C1062 1.386 . S
C1063 C1067 1.393 . S
C1064 H1053 0.950 . S
C1064 C1062 1.391 . S
C1064 C1065 1.400 . S
C1065 C1059 1.491 . S
C1065 C1064 1.400 . S
C1065 C1066 1.398 . S
C1066 H1054 0.950 . S
C1066 C1065 1.398 . S
C1066 C1067 1.391 . S
C1067 H1055 0.950 . S
C1067 C1063 1.393 . S
C1067 C1066 1.391 . S
H1068 C1076 0.950 . S
H1069 C1081 0.950 . S
H1070 C1078 0.950 . S
H1071 C1080 0.950 . S
H1072 C1082 0.950 . S
H1073 C1084 0.950 . S
H1074 C1086 0.950 . S
H1075 C1087 0.950 . S
C1076 H1068 0.950 . S
C1076 C1077 1.386 . S
C1076 C1078 1.391 . S
C1077 C1076 1.386 . S
C1077 C1081 1.393 . S
C1078 H1070 0.950 . S
C1078 C1076 1.391 . S
C1078 C1079 1.400 . S
C1079 C1078 1.400 . S
C1079 C1080 1.398 . S
C1079 C1085 1.491 . S
C1080 H1071 0.950 . S
C1080 C1079 1.398 . S
C1080 C1081 1.391 . S
C1081 H1069 0.950 . S
C1081 C1077 1.393 . S
C1081 C1080 1.391 . S
C1082 H1072 0.950 . S
C1082 C1083 1.386 . S
C1082 C1084 1.391 . S
C1083 C1082 1.386 . S
C1083 C1087 1.393 . S
C1084 H1073 0.950 . S
C1084 C1082 1.391 . S
C1084 C1085 1.400 . S
C1085 C1079 1.491 . S
C1085 C1084 1.400 . S
C1085 C1086 1.398 . S
C1086 H1074 0.950 . S
C1086 C1085 1.398 . S
C1086 C1087 1.391 . S
C1087 H1075 0.950 . S
C1087 C1083 1.393 . S
C1087 C1086 1.391 . S
H1088 C1096 0.950 . S
H1089 C1101 0.950 . S
H1090 C1098 0.950 . S
H1091 C1100 0.950 . S
H1092 C1102 0.950 . S
H1093 C1104 0.950 . S
H1094 C1106 0.950 . S
H1095 C1107 0.950 . S
C1096 H1088 0.950 . S
C1096 C1097 1.386 . S
C1096 C1098 1.391 . S
C1097 C1096 1.386 . S
C1097 C1101 1.393 . S
C1098 H1090 0.950 . S
C1098 C1096 1.391 . S
C1098 C1099 1.400 . S
C1099 C1098 1.400 . S
C1099 C1100 1.398 . S
C1099 C1105 1.491 . S
C1100 H1091 0.950 . S
C1100 C1099 1.398 . S
C1100 C1101 1.391 . S
C1101 H1089 0.950 . S
C1101 C1097 1.393 . S
C1101 C1100 1.391 . S
C1102 H1092 0.950 . S
C1102 C1103 1.386 . S
C1102 C1104 1.391 . S
C1103 C1102 1.386 . S
C1103 C1107 1.393 . S
C1104 H1093 0.950 . S
C1104 C1102 1.391 . S
C1104 C1105 1.400 . S
C1105 C1099 1.491 . S
C1105 C1104 1.400 . S
C1105 C1106 1.398 . S
C1106 H1094 0.950 . S
C1106 C1105 1.398 . S
C1106 C1107 1.391 . S
C1107 H1095 0.950 . S
C1107 C1103 1.393 . S
C1107 C1106 1.391 . S
H1108 C1116 0.950 . S
H1109 C1121 0.950 . S
H1110 C1118 0.950 . S
H1111 C1120 0.950 . S
H1112 C1122 0.950 . S
H1113 C1124 0.950 . S
H1114 C1126 0.950 . S
H1115 C1127 0.950 . S
C1116 H1108 0.950 . S
C1116 C1117 1.386 . S
C1116 C1118 1.391 . S
C1117 C1116 1.386 . S
C1117 C1121 1.393 . S
C1118 H1110 0.950 . S
C1118 C1116 1.391 . S
C1118 C1119 1.400 . S
C1119 C1118 1.400 . S
C1119 C1120 1.398 . S
C1119 C1125 1.491 . S
C1120 H1111 0.950 . S
C1120 C1119 1.398 . S
C1120 C1121 1.391 . S
C1121 H1109 0.950 . S
C1121 C1117 1.393 . S
C1121 C1120 1.391 . S
C1122 H1112 0.950 . S
C1122 C1123 1.386 . S
C1122 C1124 1.391 . S
C1123 C1122 1.386 . S
C1123 C1127 1.393 . S
C1124 H1113 0.950 . S
C1124 C1122 1.391 . S
C1124 C1125 1.400 . S
C1125 C1119 1.491 . S
C1125 C1124 1.400 . S
C1125 C1126 1.398 . S
C1126 H1114 0.950 . S
C1126 C1125 1.398 . S
C1126 C1127 1.391 . S
C1127 H1115 0.950 . S
C1127 C1123 1.393 . S
C1127 C1126 1.391 . S
H1128 C1136 0.950 . S
H1129 C1141 0.950 . S
H1130 C1138 0.950 . S
H1131 C1140 0.950 . S
H1132 C1142 0.950 . S
H1133 C1144 0.950 . S
H1134 C1146 0.950 . S
H1135 C1147 0.950 . S
C1136 H1128 0.950 . S
C1136 C1137 1.386 . S
C1136 C1138 1.391 . S
C1137 C1136 1.386 . S
C1137 C1141 1.393 . S
C1138 H1130 0.950 . S
C1138 C1136 1.391 . S
C1138 C1139 1.400 . S
C1139 C1138 1.400 . S
C1139 C1140 1.398 . S
C1139 C1145 1.491 1_556 S
C1140 H1131 0.950 . S
C1140 C1139 1.398 . S
C1140 C1141 1.391 . S
C1141 H1129 0.950 . S
C1141 C1137 1.393 . S
C1141 C1140 1.391 . S
C1142 H1132 0.950 . S
C1142 C1143 1.386 . S
C1142 C1144 1.391 . S
C1143 C1142 1.386 . S
C1143 C1147 1.393 . S
C1144 H1133 0.950 . S
C1144 C1142 1.391 . S
C1144 C1145 1.400 . S
C1145 C1139 1.491 1_554 S
C1145 C1144 1.400 . S
C1145 C1146 1.398 . S
C1146 H1134 0.950 . S
C1146 C1145 1.398 . S
C1146 C1147 1.391 . S
C1147 H1135 0.950 . S
C1147 C1143 1.393 . S
C1147 C1146 1.391 . S
H1148 C1156 0.950 . S
H1149 C1161 0.950 . S
H1150 C1158 0.950 . S
H1151 C1160 0.950 . S
H1152 C1162 0.950 . S
H1153 C1164 0.950 . S
H1154 C1166 0.950 . S
H1155 C1167 0.950 . S
C1156 H1148 0.950 . S
C1156 C1157 1.386 . S
C1156 C1158 1.391 . S
C1157 C1156 1.386 . S
C1157 C1161 1.393 . S
C1158 H1150 0.950 . S
C1158 C1156 1.391 . S
C1158 C1159 1.400 . S
C1159 C1158 1.400 . S
C1159 C1160 1.398 . S
C1159 C1165 1.491 . S
C1160 H1151 0.950 . S
C1160 C1159 1.398 . S
C1160 C1161 1.391 . S
C1161 H1149 0.950 . S
C1161 C1157 1.393 . S
C1161 C1160 1.391 . S
C1162 H1152 0.950 . S
C1162 C1163 1.386 . S
C1162 C1164 1.391 . S
C1163 C1162 1.386 . S
C1163 C1167 1.393 . S
C1164 H1153 0.950 . S
C1164 C1162 1.391 . S
C1164 C1165 1.400 . S
C1165 C1159 1.491 . S
C1165 C1164 1.400 . S
C1165 C1166 1.398 . S
C1166 H1154 0.950 . S
C1166 C1165 1.398 . S
C1166 C1167 1.391 . S
C1167 H1155 0.950 . S
C1167 C1163 1.393 . S
C1167 C1166 1.391 . S
H1168 C1176 0.950 . S
H1169 C1181 0.950 . S
H1170 C1178 0.950 . S
H1171 C1180 0.950 . S
H1172 C1182 0.950 . S
H1173 C1184 0.950 . S
H1174 C1186 0.950 . S
H1175 C1187 0.950 . S
C1176 H1168 0.950 . S
C1176 C1177 1.386 . S
C1176 C1178 1.391 . S
C1177 C1176 1.386 . S
C1177 C1181 1.393 . S
C1178 H1170 0.950 . S
C1178 C1176 1.391 . S
C1178 C1179 1.400 . S
C1179 C1178 1.400 . S
C1179 C1180 1.398 . S
C1179 C1185 1.491 . S
C1180 H1171 0.950 . S
C1180 C1179 1.398 . S
C1180 C1181 1.391 . S
C1181 H1169 0.950 . S
C1181 C1177 1.393 . S
C1181 C1180 1.391 . S
C1182 H1172 0.950 . S
C1182 C1183 1.386 . S
C1182 C1184 1.391 . S
C1183 C1182 1.386 . S
C1183 C1187 1.393 . S
C1184 H1173 0.950 . S
C1184 C1182 1.391 . S
C1184 C1185 1.400 . S
C1185 C1179 1.491 . S
C1185 C1184 1.400 . S
C1185 C1186 1.398 . S
C1186 H1174 0.950 . S
C1186 C1185 1.398 . S
C1186 C1187 1.391 . S
C1187 H1175 0.950 . S
C1187 C1183 1.393 . S
C1187 C1186 1.391 . S
H1188 C1196 0.950 . S
H1189 C1201 0.950 . S
H1190 C1198 0.950 . S
H1191 C1200 0.950 . S
H1192 C1202 0.950 . S
H1193 C1204 0.950 . S
H1194 C1206 0.950 . S
H1195 C1207 0.950 . S
C1196 H1188 0.950 . S
C1196 C1197 1.386 . S
C1196 C1198 1.391 . S
C1197 C1196 1.386 . S
C1197 C1201 1.393 . S
C1198 H1190 0.950 . S
C1198 C1196 1.391 . S
C1198 C1199 1.400 . S
C1199 C1198 1.400 . S
C1199 C1200 1.398 . S
C1199 C1205 1.491 1_556 S
C1200 H1191 0.950 . S
C1200 C1199 1.398 . S
C1200 C1201 1.391 . S
C1201 H1189 0.950 . S
C1201 C1197 1.393 . S
C1201 C1200 1.391 . S
C1202 H1192 0.950 . S
C1202 C1203 1.386 . S
C1202 C1204 1.391 . S
C1203 C1202 1.386 . S
C1203 C1207 1.393 . S
C1204 H1193 0.950 . S
C1204 C1202 1.391 . S
C1204 C1205 1.400 . S
C1205 C1199 1.491 1_554 S
C1205 C1204 1.400 . S
C1205 C1206 1.398 . S
C1206 H1194 0.950 . S
C1206 C1205 1.398 . S
C1206 C1207 1.391 . S
C1207 H1195 0.950 . S
C1207 C1203 1.393 . S
C1207 C1206 1.391 . S
H1208 C1216 0.950 . S
H1209 C1221 0.950 . S
H1210 C1218 0.950 . S
H1211 C1220 0.950 . S
H1212 C1222 0.950 . S
H1213 C1224 0.950 . S
H1214 C1226 0.950 . S
H1215 C1227 0.950 . S
C1216 H1208 0.950 . S
C1216 C1217 1.386 . S
C1216 C1218 1.391 . S
C1217 C1216 1.386 . S
C1217 C1221 1.393 . S
C1218 H1210 0.950 . S
C1218 C1216 1.391 . S
C1218 C1219 1.400 . S
C1219 C1218 1.400 . S
C1219 C1220 1.398 . S
C1219 C1225 1.491 . S
C1220 H1211 0.950 . S
C1220 C1219 1.398 . S
C1220 C1221 1.391 . S
C1221 H1209 0.950 . S
C1221 C1217 1.393 . S
C1221 C1220 1.391 . S
C1222 H1212 0.950 . S
C1222 C1223 1.386 . S
C1222 C1224 1.391 . S
C1223 C1222 1.386 . S
C1223 C1227 1.393 . S
C1224 H1213 0.950 . S
C1224 C1222 1.391 . S
C1224 C1225 1.400 . S
C1225 C1219 1.491 . S
C1225 C1224 1.400 . S
C1225 C1226 1.398 . S
C1226 H1214 0.950 . S
C1226 C1225 1.398 . S
C1226 C1227 1.391 . S
C1227 H1215 0.950 . S
C1227 C1223 1.393 . S
C1227 C1226 1.391 . S
H1228 C1236 0.950 . S
H1229 C1241 0.950 . S
H1230 C1238 0.950 . S
H1231 C1240 0.950 . S
H1232 C1242 0.950 . S
H1233 C1244 0.950 . S
H1234 C1246 0.950 . S
H1235 C1247 0.950 . S
C1236 H1228 0.950 . S
C1236 C1237 1.386 . S
C1236 C1238 1.391 . S
C1237 C1236 1.386 . S
C1237 C1241 1.393 . S
C1238 H1230 0.950 . S
C1238 C1236 1.391 . S
C1238 C1239 1.400 . S
C1239 C1238 1.400 . S
C1239 C1240 1.398 . S
C1239 C1245 1.491 . S
C1240 H1231 0.950 . S
C1240 C1239 1.398 . S
C1240 C1241 1.391 . S
C1241 H1229 0.950 . S
C1241 C1237 1.393 . S
C1241 C1240 1.391 . S
C1242 H1232 0.950 . S
C1242 C1243 1.386 . S
C1242 C1244 1.391 . S
C1243 C1242 1.386 . S
C1243 C1247 1.393 . S
C1244 H1233 0.950 . S
C1244 C1242 1.391 . S
C1244 C1245 1.400 . S
C1245 C1239 1.491 . S
C1245 C1244 1.400 . S
C1245 C1246 1.398 . S
C1246 H1234 0.950 . S
C1246 C1245 1.398 . S
C1246 C1247 1.391 . S
C1247 H1235 0.950 . S
C1247 C1243 1.393 . S
C1247 C1246 1.391 . S
H1248 C1256 0.950 . S
H1249 C1261 0.950 . S
H1250 C1258 0.950 . S
H1251 C1260 0.950 . S
H1252 C1262 0.950 . S
H1253 C1264 0.950 . S
H1254 C1266 0.950 . S
H1255 C1267 0.950 . S
C1256 H1248 0.950 . S
C1256 C1257 1.386 . S
C1256 C1258 1.391 . S
C1257 C1256 1.386 . S
C1257 C1261 1.393 . S
C1258 H1250 0.950 . S
C1258 C1256 1.391 . S
C1258 C1259 1.400 . S
C1259 C1258 1.400 . S
C1259 C1260 1.398 . S
C1259 C1265 1.491 1_566 S
C1260 H1251 0.950 . S
C1260 C1259 1.398 . S
C1260 C1261 1.391 . S
C1261 H1249 0.950 . S
C1261 C1257 1.393 . S
C1261 C1260 1.391 . S
C1262 H1252 0.950 . S
C1262 C1263 1.386 . S
C1262 C1264 1.391 . S
C1263 C1262 1.386 . S
C1263 C1267 1.393 . S
C1264 H1253 0.950 . S
C1264 C1262 1.391 . S
C1264 C1265 1.400 . S
C1265 C1259 1.491 1_544 S
C1265 C1264 1.400 . S
C1265 C1266 1.398 . S
C1266 H1254 0.950 . S
C1266 C1265 1.398 . S
C1266 C1267 1.391 . S
C1267 H1255 0.950 . S
C1267 C1263 1.393 . S
C1267 C1266 1.391 . S
H1268 C1276 0.950 . S
H1269 C1281 0.950 . S
H1270 C1278 0.950 . S
H1271 C1280 0.950 . S
H1272 C1282 0.950 . S
H1273 C1284 0.950 . S
H1274 C1286 0.950 . S
H1275 C1287 0.950 . S
C1276 H1268 0.950 . S
C1276 C1277 1.386 . S
C1276 C1278 1.391 . S
C1277 C1276 1.386 . S
C1277 C1281 1.393 . S
C1278 H1270 0.950 . S
C1278 C1276 1.391 . S
C1278 C1279 1.400 . S
C1279 C1278 1.400 . S
C1279 C1280 1.398 . S
C1279 C1285 1.491 . S
C1280 H1271 0.950 . S
C1280 C1279 1.398 . S
C1280 C1281 1.391 . S
C1281 H1269 0.950 . S
C1281 C1277 1.393 . S
C1281 C1280 1.391 . S
C1282 H1272 0.950 . S
C1282 C1283 1.386 . S
C1282 C1284 1.391 . S
C1283 C1282 1.386 . S
C1283 C1287 1.393 . S
C1284 H1273 0.950 . S
C1284 C1282 1.391 . S
C1284 C1285 1.400 . S
C1285 C1279 1.491 . S
C1285 C1284 1.400 . S
C1285 C1286 1.398 . S
C1286 H1274 0.950 . S
C1286 C1285 1.398 . S
C1286 C1287 1.391 . S
C1287 H1275 0.950 . S
C1287 C1283 1.393 . S
C1287 C1286 1.391 . S
H1288 C1296 0.950 . S
H1289 C1301 0.950 . S
H1290 C1298 0.920 1_655 S
H1291 C1300 0.950 . S
H1292 C1302 0.950 . S
H1293 C1304 0.922 1_455 S
H1294 C1306 0.950 . S
H1295 C1307 0.950 . S
C1296 H1288 0.950 . S
C1296 C1297 1.386 . S
C1296 C1298 1.406 . S
C1297 C1296 1.386 . S
C1297 C1301 1.393 . S
C1298 H1290 0.920 1_455 S
C1298 C1296 1.406 . S
C1298 C1299 1.415 . S
C1299 C1298 1.415 . S
C1299 C1300 1.398 . S
C1299 C1305 1.491 1_455 S
C1300 H1291 0.950 . S
C1300 C1299 1.398 . S
C1300 C1301 1.391 . S
C1301 H1289 0.950 . S
C1301 C1297 1.393 . S
C1301 C1300 1.391 . S
C1302 H1292 0.950 . S
C1302 C1303 1.386 . S
C1302 C1304 1.405 . S
C1303 C1302 1.386 . S
C1303 C1307 1.393 . S
C1304 H1293 0.922 1_655 S
C1304 C1302 1.405 . S
C1304 C1305 1.414 . S
C1305 C1299 1.491 1_655 S
C1305 C1304 1.414 . S
C1305 C1306 1.398 . S
C1306 H1294 0.950 . S
C1306 C1305 1.398 . S
C1306 C1307 1.391 . S
C1307 H1295 0.950 . S
C1307 C1303 1.393 . S
C1307 C1306 1.391 . S
H1308 C1316 0.950 . S
H1309 C1321 0.950 . S
H1310 C1318 0.950 1_545 S
H1311 C1320 0.950 . S
H1312 C1322 0.950 . S
H1313 C1324 0.950 1_565 S
H1314 C1326 0.950 . S
H1315 C1327 0.950 . S
C1316 H1308 0.950 . S
C1316 C1317 1.386 . S
C1316 C1318 1.391 . S
C1317 C1316 1.386 . S
C1317 C1321 1.393 . S
C1318 H1310 0.950 1_565 S
C1318 C1316 1.391 . S
C1318 C1319 1.400 . S
C1319 C1318 1.400 . S
C1319 C1320 1.398 . S
C1319 C1325 1.491 1_564 S
C1320 H1311 0.950 . S
C1320 C1319 1.398 . S
C1320 C1321 1.391 . S
C1321 H1309 0.950 . S
C1321 C1317 1.393 . S
C1321 C1320 1.391 . S
C1322 H1312 0.950 . S
C1322 C1323 1.386 . S
C1322 C1324 1.391 . S
C1323 C1322 1.386 . S
C1323 C1327 1.393 . S
C1324 H1313 0.950 1_545 S
C1324 C1322 1.391 . S
C1324 C1325 1.400 . S
C1325 C1319 1.491 1_546 S
C1325 C1324 1.400 . S
C1325 C1326 1.398 . S
C1326 H1314 0.950 . S
C1326 C1325 1.398 . S
C1326 C1327 1.391 . S
C1327 H1315 0.950 . S
C1327 C1323 1.393 . S
C1327 C1326 1.391 . S
H1328 C1336 0.950 . S
H1329 C1341 0.950 . S
H1330 C1338 0.950 . S
H1331 C1340 0.950 . S
H1332 C1342 0.950 . S
H1333 C1344 0.950 . S
H1334 C1346 0.950 . S
H1335 C1347 0.950 . S
C1336 H1328 0.950 . S
C1336 C1337 1.386 . S
C1336 C1338 1.391 . S
C1337 C1336 1.386 . S
C1337 C1341 1.393 . S
C1338 H1330 0.950 . S
C1338 C1336 1.391 . S
C1338 C1339 1.400 . S
C1339 C1338 1.400 . S
C1339 C1340 1.398 . S
C1339 C1345 1.491 . S
C1340 H1331 0.950 . S
C1340 C1339 1.398 . S
C1340 C1341 1.391 . S
C1341 H1329 0.950 . S
C1341 C1337 1.393 . S
C1341 C1340 1.391 . S
C1342 H1332 0.950 . S
C1342 C1343 1.386 . S
C1342 C1344 1.391 . S
C1343 C1342 1.386 . S
C1343 C1347 1.393 . S
C1344 H1333 0.950 . S
C1344 C1342 1.391 . S
C1344 C1345 1.400 . S
C1345 C1339 1.491 . S
C1345 C1344 1.400 . S
C1345 C1346 1.398 . S
C1346 H1334 0.950 . S
C1346 C1345 1.398 . S
C1346 C1347 1.391 . S
C1347 H1335 0.950 . S
C1347 C1343 1.393 . S
C1347 C1346 1.391 . S
H1348 C1356 0.950 . S
H1349 C1361 0.950 . S
H1350 C1358 0.950 . S
H1351 C1360 0.950 1_655 S
H1352 C1362 0.950 . S
H1353 C1364 0.950 . S
H1354 C1366 0.950 1_455 S
H1355 C1367 0.950 . S
C1356 H1348 0.950 . S
C1356 C1357 1.386 . S
C1356 C1358 1.391 . S
C1357 C1356 1.386 . S
C1357 C1361 1.393 . S
C1358 H1350 0.950 . S
C1358 C1356 1.391 . S
C1358 C1359 1.400 . S
C1359 C1358 1.400 . S
C1359 C1360 1.398 . S
C1359 C1365 1.491 1_455 S
C1360 H1351 0.950 1_455 S
C1360 C1359 1.398 . S
C1360 C1361 1.391 . S
C1361 H1349 0.950 . S
C1361 C1357 1.393 . S
C1361 C1360 1.391 . S
C1362 H1352 0.950 . S
C1362 C1363 1.386 . S
C1362 C1364 1.391 . S
C1363 C1362 1.386 . S
C1363 C1367 1.393 . S
C1364 H1353 0.950 . S
C1364 C1362 1.391 . S
C1364 C1365 1.400 . S
C1365 C1359 1.491 1_655 S
C1365 C1364 1.400 . S
C1365 C1366 1.398 . S
C1366 H1354 0.950 1_655 S
C1366 C1365 1.398 . S
C1366 C1367 1.391 . S
C1367 H1355 0.950 . S
C1367 C1363 1.393 . S
C1367 C1366 1.391 . S
H1368 C1376 0.950 . S
H1369 C1381 0.950 . S
H1370 C1378 0.950 . S
H1371 C1380 0.950 1_565 S
H1372 C1382 0.950 . S
H1373 C1384 0.950 . S
H1374 C1386 0.950 1_545 S
H1375 C1387 0.950 . S
C1376 H1368 0.950 . S
C1376 C1377 1.386 . S
C1376 C1378 1.391 . S
C1377 C1376 1.386 . S
C1377 C1381 1.393 . S
C1378 H1370 0.950 . S
C1378 C1376 1.391 . S
C1378 C1379 1.400 . S
C1379 C1378 1.400 . S
C1379 C1380 1.398 . S
C1379 C1385 1.491 1_545 S
C1380 H1371 0.950 1_545 S
C1380 C1379 1.398 . S
C1380 C1381 1.391 . S
C1381 H1369 0.950 . S
C1381 C1377 1.393 . S
C1381 C1380 1.391 . S
C1382 H1372 0.950 . S
C1382 C1383 1.386 . S
C1382 C1384 1.391 . S
C1383 C1382 1.386 . S
C1383 C1387 1.393 . S
C1384 H1373 0.950 . S
C1384 C1382 1.391 . S
C1384 C1385 1.400 . S
C1385 C1379 1.491 1_565 S
C1385 C1384 1.400 . S
C1385 C1386 1.398 . S
C1386 H1374 0.950 1_565 S
C1386 C1385 1.398 . S
C1386 C1387 1.391 . S
C1387 H1375 0.950 . S
C1387 C1383 1.393 . S
C1387 C1386 1.391 . S
H1388 C1396 0.950 . S
H1389 C1401 0.950 . S
H1390 C1398 0.950 . S
H1391 C1400 0.950 . S
H1392 C1402 0.950 . S
H1393 C1404 0.950 . S
H1394 C1406 0.950 . S
H1395 C1407 0.950 . S
C1396 H1388 0.950 . S
C1396 C1397 1.386 . S
C1396 C1398 1.391 . S
C1397 C1396 1.386 . S
C1397 C1401 1.393 . S
C1398 H1390 0.950 . S
C1398 C1396 1.391 . S
C1398 C1399 1.400 . S
C1399 C1398 1.400 . S
C1399 C1400 1.398 . S
C1399 C1405 1.491 . S
C1400 H1391 0.950 . S
C1400 C1399 1.398 . S
C1400 C1401 1.391 . S
C1401 H1389 0.950 . S
C1401 C1397 1.393 . S
C1401 C1400 1.391 . S
C1402 H1392 0.950 . S
C1402 C1403 1.386 . S
C1402 C1404 1.391 . S
C1403 C1402 1.386 . S
C1403 C1407 1.393 . S
C1404 H1393 0.950 . S
C1404 C1402 1.391 . S
C1404 C1405 1.400 . S
C1405 C1399 1.491 . S
C1405 C1404 1.400 . S
C1405 C1406 1.398 . S
C1406 H1394 0.950 . S
C1406 C1405 1.398 . S
C1406 C1407 1.391 . S
C1407 H1395 0.950 . S
C1407 C1403 1.393 . S
C1407 C1406 1.391 . S
H1408 C1416 0.950 . S
H1409 C1421 0.950 . S
H1410 C1418 0.950 . S
H1411 C1420 0.950 . S
H1412 C1422 0.950 . S
H1413 C1424 0.950 . S
H1414 C1426 0.950 . S
H1415 C1427 0.950 . S
C1416 H1408 0.950 . S
C1416 C1417 1.386 . S
C1416 C1418 1.391 . S
C1417 C1416 1.386 . S
C1417 C1421 1.393 . S
C1418 H1410 0.950 . S
C1418 C1416 1.391 . S
C1418 C1419 1.400 . S
C1419 C1418 1.400 . S
C1419 C1420 1.398 . S
C1419 C1425 1.491 1_655 S
C1420 H1411 0.950 . S
C1420 C1419 1.398 . S
C1420 C1421 1.391 . S
C1421 H1409 0.950 . S
C1421 C1417 1.393 . S
C1421 C1420 1.391 . S
C1422 H1412 0.950 . S
C1422 C1423 1.386 . S
C1422 C1424 1.391 . S
C1423 C1422 1.386 . S
C1423 C1427 1.393 . S
C1424 H1413 0.950 . S
C1424 C1422 1.391 . S
C1424 C1425 1.400 . S
C1425 C1419 1.491 1_455 S
C1425 C1424 1.400 . S
C1425 C1426 1.398 . S
C1426 H1414 0.950 . S
C1426 C1425 1.398 . S
C1426 C1427 1.391 . S
C1427 H1415 0.950 . S
C1427 C1423 1.393 . S
C1427 C1426 1.391 . S
H1428 C1436 0.950 . S
H1429 C1441 0.950 . S
H1430 C1438 0.950 1_655 S
H1431 C1440 0.950 . S
H1432 C1442 0.950 . S
H1433 C1444 0.950 1_455 S
H1434 C1446 0.950 . S
H1435 C1447 0.950 . S
C1436 H1428 0.950 . S
C1436 C1437 1.386 . S
C1436 C1438 1.391 . S
C1437 C1436 1.386 . S
C1437 C1441 1.393 . S
C1438 H1430 0.950 1_455 S
C1438 C1436 1.391 . S
C1438 C1439 1.400 . S
C1439 C1438 1.400 . S
C1439 C1440 1.398 . S
C1439 C1445 1.491 1_455 S
C1440 H1431 0.950 . S
C1440 C1439 1.398 . S
C1440 C1441 1.391 . S
C1441 H1429 0.950 . S
C1441 C1437 1.393 . S
C1441 C1440 1.391 . S
C1442 H1432 0.950 . S
C1442 C1443 1.386 . S
C1442 C1444 1.391 . S
C1443 C1442 1.386 . S
C1443 C1447 1.393 . S
C1444 H1433 0.950 1_655 S
C1444 C1442 1.391 . S
C1444 C1445 1.400 . S
C1445 C1439 1.491 1_655 S
C1445 C1444 1.400 . S
C1445 C1446 1.398 . S
C1446 H1434 0.950 . S
C1446 C1445 1.398 . S
C1446 C1447 1.391 . S
C1447 H1435 0.950 . S
C1447 C1443 1.393 . S
C1447 C1446 1.391 . S
H1448 C1456 0.950 . S
H1449 C1461 0.950 . S
H1450 C1458 0.950 1_545 S
H1451 C1460 0.950 . S
H1452 C1462 0.950 . S
H1453 C1464 0.950 1_565 S
H1454 C1466 0.950 . S
H1455 C1467 0.950 . S
C1456 H1448 0.950 . S
C1456 C1457 1.386 . S
C1456 C1458 1.391 . S
C1457 C1456 1.386 . S
C1457 C1461 1.393 . S
C1458 H1450 0.950 1_565 S
C1458 C1456 1.391 . S
C1458 C1459 1.400 . S
C1459 C1458 1.400 . S
C1459 C1460 1.398 . S
C1459 C1465 1.491 1_565 S
C1460 H1451 0.950 . S
C1460 C1459 1.398 . S
C1460 C1461 1.391 . S
C1461 H1449 0.950 . S
C1461 C1457 1.393 . S
C1461 C1460 1.391 . S
C1462 H1452 0.950 . S
C1462 C1463 1.386 . S
C1462 C1464 1.391 . S
C1463 C1462 1.386 . S
C1463 C1467 1.393 . S
C1464 H1453 0.950 1_545 S
C1464 C1462 1.391 . S
C1464 C1465 1.400 . S
C1465 C1459 1.491 1_545 S
C1465 C1464 1.400 . S
C1465 C1466 1.398 . S
C1466 H1454 0.950 . S
C1466 C1465 1.398 . S
C1466 C1467 1.391 . S
C1467 H1455 0.950 . S
C1467 C1463 1.393 . S
C1467 C1466 1.391 . S
H1468 C1476 0.950 . S
H1469 C1481 0.950 . S
H1470 C1478 0.950 . S
H1471 C1480 0.950 . S
H1472 C1482 0.950 . S
H1473 C1484 0.950 . S
H1474 C1486 0.950 . S
H1475 C1487 0.950 . S
C1476 H1468 0.950 . S
C1476 C1477 1.386 . S
C1476 C1478 1.391 . S
C1477 C1476 1.386 . S
C1477 C1481 1.393 . S
C1478 H1470 0.950 . S
C1478 C1476 1.391 . S
C1478 C1479 1.400 . S
C1479 C1478 1.400 . S
C1479 C1480 1.398 . S
C1479 C1485 1.491 . S
C1480 H1471 0.950 . S
C1480 C1479 1.398 . S
C1480 C1481 1.391 . S
C1481 H1469 0.950 . S
C1481 C1477 1.393 . S
C1481 C1480 1.391 . S
C1482 H1472 0.950 . S
C1482 C1483 1.386 . S
C1482 C1484 1.391 . S
C1483 C1482 1.386 . S
C1483 C1487 1.393 . S
C1484 H1473 0.950 . S
C1484 C1482 1.391 . S
C1484 C1485 1.400 . S
C1485 C1479 1.491 . S
C1485 C1484 1.400 . S
C1485 C1486 1.398 . S
C1486 H1474 0.950 . S
C1486 C1485 1.398 . S
C1486 C1487 1.391 . S
C1487 H1475 0.950 . S
C1487 C1483 1.393 . S
C1487 C1486 1.391 . S
H1488 C1496 0.950 . S
H1489 C1501 0.950 . S
H1490 C1498 0.950 1_545 S
H1491 C1500 0.950 . S
H1492 C1502 0.950 . S
H1493 C1504 0.950 1_565 S
H1494 C1506 0.950 . S
H1495 C1507 0.950 . S
C1496 H1488 0.950 . S
C1496 C1497 1.386 . S
C1496 C1498 1.391 . S
C1497 C1496 1.386 . S
C1497 C1501 1.393 . S
C1498 H1490 0.950 1_565 S
C1498 C1496 1.391 . S
C1498 C1499 1.400 . S
C1499 C1498 1.400 . S
C1499 C1500 1.398 . S
C1499 C1505 1.491 1_565 S
C1500 H1491 0.950 . S
C1500 C1499 1.398 . S
C1500 C1501 1.391 . S
C1501 H1489 0.950 . S
C1501 C1497 1.393 . S
C1501 C1500 1.391 . S
C1502 H1492 0.950 . S
C1502 C1503 1.386 . S
C1502 C1504 1.391 . S
C1503 C1502 1.386 . S
C1503 C1507 1.393 . S
C1504 H1493 0.950 1_545 S
C1504 C1502 1.391 . S
C1504 C1505 1.400 . S
C1505 C1499 1.491 1_545 S
C1505 C1504 1.400 . S
C1505 C1506 1.398 . S
C1506 H1494 0.950 . S
C1506 C1505 1.398 . S
C1506 C1507 1.391 . S
C1507 H1495 0.950 . S
C1507 C1503 1.393 . S
C1507 C1506 1.391 . S
H1508 C1516 0.950 . S
H1509 C1521 0.950 . S
H1510 C1518 0.950 . S
H1511 C1520 0.950 . S
H1512 C1522 0.950 . S
H1513 C1524 0.950 . S
H1514 C1526 0.950 . S
H1515 C1527 0.950 . S
C1516 H1508 0.950 . S
C1516 C1517 1.386 . S
C1516 C1518 1.391 . S
C1517 C1516 1.386 . S
C1517 C1521 1.393 . S
C1518 H1510 0.950 . S
C1518 C1516 1.391 . S
C1518 C1519 1.400 . S
C1519 C1518 1.400 . S
C1519 C1520 1.398 . S
C1519 C1525 1.491 . S
C1520 H1511 0.950 . S
C1520 C1519 1.398 . S
C1520 C1521 1.391 . S
C1521 H1509 0.950 . S
C1521 C1517 1.393 . S
C1521 C1520 1.391 . S
C1522 H1512 0.950 . S
C1522 C1523 1.386 . S
C1522 C1524 1.391 . S
C1523 C1522 1.386 . S
C1523 C1527 1.393 . S
C1524 H1513 0.950 . S
C1524 C1522 1.391 . S
C1524 C1525 1.400 . S
C1525 C1519 1.491 . S
C1525 C1524 1.400 . S
C1525 C1526 1.398 . S
C1526 H1514 0.950 . S
C1526 C1525 1.398 . S
C1526 C1527 1.391 . S
C1527 H1515 0.950 . S
C1527 C1523 1.393 . S
C1527 C1526 1.391 . S
H1528 C1536 0.950 . S
H1529 C1541 0.950 . S
H1530 C1538 0.950 . S
H1531 C1540 0.950 . S
H1532 C1542 0.950 . S
H1533 C1544 0.950 . S
H1534 C1546 0.950 . S
H1535 C1547 0.950 . S
C1536 H1528 0.950 . S
C1536 C1537 1.386 . S
C1536 C1538 1.391 . S
C1537 C1536 1.386 . S
C1537 C1541 1.393 . S
C1538 H1530 0.950 . S
C1538 C1536 1.391 . S
C1538 C1539 1.400 . S
C1539 C1538 1.400 . S
C1539 C1540 1.398 . S
C1539 C1545 1.491 1_655 S
C1540 H1531 0.950 . S
C1540 C1539 1.398 . S
C1540 C1541 1.391 . S
C1541 H1529 0.950 . S
C1541 C1537 1.393 . S
C1541 C1540 1.391 . S
C1542 H1532 0.950 . S
C1542 C1543 1.386 . S
C1542 C1544 1.391 . S
C1543 C1542 1.386 . S
C1543 C1547 1.393 . S
C1544 H1533 0.950 . S
C1544 C1542 1.391 . S
C1544 C1545 1.400 . S
C1545 C1539 1.491 1_455 S
C1545 C1544 1.400 . S
C1545 C1546 1.398 . S
C1546 H1534 0.950 . S
C1546 C1545 1.398 . S
C1546 C1547 1.391 . S
C1547 H1535 0.950 . S
C1547 C1543 1.393 . S
C1547 C1546 1.391 . S
H1548 C1556 0.950 . S
H1549 C1561 0.950 . S
H1550 C1558 0.950 1_565 S
H1551 C1560 0.950 . S
H1552 C1562 0.950 . S
H1553 C1564 0.950 1_545 S
H1554 C1566 0.950 . S
H1555 C1567 0.950 . S
C1556 H1548 0.950 . S
C1556 C1557 1.386 . S
C1556 C1558 1.391 . S
C1557 C1556 1.386 . S
C1557 C1561 1.393 . S
C1558 H1550 0.950 1_545 S
C1558 C1556 1.391 . S
C1558 C1559 1.400 . S
C1559 C1558 1.400 . S
C1559 C1560 1.398 . S
C1559 C1565 1.491 1_545 S
C1560 H1551 0.950 . S
C1560 C1559 1.398 . S
C1560 C1561 1.391 . S
C1561 H1549 0.950 . S
C1561 C1557 1.393 . S
C1561 C1560 1.391 . S
C1562 H1552 0.950 . S
C1562 C1563 1.386 . S
C1562 C1564 1.391 . S
C1563 C1562 1.386 . S
C1563 C1567 1.393 . S
C1564 H1553 0.950 1_565 S
C1564 C1562 1.391 . S
C1564 C1565 1.400 . S
C1565 C1559 1.491 1_565 S
C1565 C1564 1.400 . S
C1565 C1566 1.398 . S
C1566 H1554 0.950 . S
C1566 C1565 1.398 . S
C1566 C1567 1.391 . S
C1567 H1555 0.950 . S
C1567 C1563 1.393 . S
C1567 C1566 1.391 . S
H1568 C1576 0.950 . S
H1569 C1581 0.950 . S
H1570 C1578 0.950 . S
H1571 C1580 0.950 . S
H1572 C1582 0.950 . S
H1573 C1584 0.950 . S
H1574 C1586 0.950 . S
H1575 C1587 0.950 . S
C1576 H1568 0.950 . S
C1576 C1577 1.386 . S
C1576 C1578 1.391 . S
C1577 C1576 1.386 . S
C1577 C1581 1.393 . S
C1578 H1570 0.950 . S
C1578 C1576 1.391 . S
C1578 C1579 1.400 . S
C1579 C1578 1.400 . S
C1579 C1580 1.398 . S
C1579 C1585 1.491 . S
C1580 H1571 0.950 . S
C1580 C1579 1.398 . S
C1580 C1581 1.391 . S
C1581 H1569 0.950 . S
C1581 C1577 1.393 . S
C1581 C1580 1.391 . S
C1582 H1572 0.950 . S
C1582 C1583 1.386 . S
C1582 C1584 1.391 . S
C1583 C1582 1.386 . S
C1583 C1587 1.393 . S
C1584 H1573 0.950 . S
C1584 C1582 1.391 . S
C1584 C1585 1.400 . S
C1585 C1579 1.491 . S
C1585 C1584 1.400 . S
C1585 C1586 1.398 . S
C1586 H1574 0.950 . S
C1586 C1585 1.398 . S
C1586 C1587 1.391 . S
C1587 H1575 0.950 . S
C1587 C1583 1.393 . S
C1587 C1586 1.391 . S
H1588 C1596 0.950 . S
H1589 C1601 0.950 . S
H1590 C1598 0.950 1_655 S
H1591 C1600 0.950 . S
H1592 C1602 0.950 . S
H1593 C1604 0.950 1_455 S
H1594 C1606 0.950 . S
H1595 C1607 0.950 . S
C1596 H1588 0.950 . S
C1596 C1597 1.386 . S
C1596 C1598 1.391 . S
C1597 C1596 1.386 . S
C1597 C1601 1.393 . S
C1598 H1590 0.950 1_455 S
C1598 C1596 1.391 . S
C1598 C1599 1.400 . S
C1599 C1598 1.400 . S
C1599 C1600 1.398 . S
C1599 C1605 1.491 1_455 S
C1600 H1591 0.950 . S
C1600 C1599 1.398 . S
C1600 C1601 1.391 . S
C1601 H1589 0.950 . S
C1601 C1597 1.393 . S
C1601 C1600 1.391 . S
C1602 H1592 0.950 . S
C1602 C1603 1.386 . S
C1602 C1604 1.391 . S
C1603 C1602 1.386 . S
C1603 C1607 1.393 . S
C1604 H1593 0.950 1_655 S
C1604 C1602 1.391 . S
C1604 C1605 1.400 . S
C1605 C1599 1.491 1_655 S
C1605 C1604 1.400 . S
C1605 C1606 1.398 . S
C1606 H1594 0.950 . S
C1606 C1605 1.398 . S
C1606 C1607 1.391 . S
C1607 H1595 0.950 . S
C1607 C1603 1.393 . S
C1607 C1606 1.391 . S
H1608 C1616 0.950 . S
H1609 C1621 0.950 . S
H1610 C1618 0.950 . S
H1611 C1620 0.950 . S
H1612 C1622 0.950 . S
H1613 C1624 0.950 . S
H1614 C1626 0.950 . S
H1615 C1627 0.950 . S
C1616 H1608 0.950 . S
C1616 C1617 1.386 . S
C1616 C1618 1.391 . S
C1617 C1616 1.386 . S
C1617 C1621 1.393 . S
C1618 H1610 0.950 . S
C1618 C1616 1.391 . S
C1618 C1619 1.400 . S
C1619 C1618 1.400 . S
C1619 C1620 1.398 . S
C1619 C1625 1.491 . S
C1620 H1611 0.950 . S
C1620 C1619 1.398 . S
C1620 C1621 1.391 . S
C1621 H1609 0.950 . S
C1621 C1617 1.393 . S
C1621 C1620 1.391 . S
C1622 H1612 0.950 . S
C1622 C1623 1.386 . S
C1622 C1624 1.391 . S
C1623 C1622 1.386 . S
C1623 C1627 1.393 . S
C1624 H1613 0.950 . S
C1624 C1622 1.391 . S
C1624 C1625 1.400 . S
C1625 C1619 1.491 . S
C1625 C1624 1.400 . S
C1625 C1626 1.398 . S
C1626 H1614 0.950 . S
C1626 C1625 1.398 . S
C1626 C1627 1.391 . S
C1627 H1615 0.950 . S
C1627 C1623 1.393 . S
C1627 C1626 1.391 . S
H1628 C1636 0.950 . S
H1629 C1641 0.950 . S
H1630 C1638 0.950 . S
H1631 C1640 0.950 . S
H1632 C1642 0.950 . S
H1633 C1644 0.950 . S
H1634 C1646 0.950 . S
H1635 C1647 0.950 . S
C1636 H1628 0.950 . S
C1636 C1637 1.386 . S
C1636 C1638 1.391 . S
C1637 C1636 1.386 . S
C1637 C1641 1.393 . S
C1638 H1630 0.950 . S
C1638 C1636 1.391 . S
C1638 C1639 1.400 . S
C1639 C1638 1.400 . S
C1639 C1640 1.398 . S
C1639 C1645 1.491 . S
C1640 H1631 0.950 . S
C1640 C1639 1.398 . S
C1640 C1641 1.391 . S
C1641 H1629 0.950 . S
C1641 C1637 1.393 . S
C1641 C1640 1.391 . S
C1642 H1632 0.950 . S
C1642 C1643 1.386 . S
C1642 C1644 1.391 . S
C1643 C1642 1.386 . S
C1643 C1647 1.393 . S
C1644 H1633 0.950 . S
C1644 C1642 1.391 . S
C1644 C1645 1.400 . S
C1645 C1639 1.491 . S
C1645 C1644 1.400 . S
C1645 C1646 1.398 . S
C1646 H1634 0.950 . S
C1646 C1645 1.398 . S
C1646 C1647 1.391 . S
C1647 H1635 0.950 . S
C1647 C1643 1.393 . S
C1647 C1646 1.391 . S
H1648 C1656 0.950 . S
H1649 C1661 0.950 . S
H1650 C1658 0.950 . S
H1651 C1660 0.950 . S
H1652 C1662 0.950 . S
H1653 C1664 0.950 . S
H1654 C1666 0.950 . S
H1655 C1667 0.950 . S
C1656 H1648 0.950 . S
C1656 C1657 1.386 . S
C1656 C1658 1.391 . S
C1657 C1656 1.386 . S
C1657 C1661 1.393 . S
C1658 H1650 0.950 . S
C1658 C1656 1.391 . S
C1658 C1659 1.400 . S
C1659 C1658 1.400 . S
C1659 C1660 1.398 . S
C1659 C1665 1.491 . S
C1660 H1651 0.950 . S
C1660 C1659 1.398 . S
C1660 C1661 1.391 . S
C1661 H1649 0.950 . S
C1661 C1657 1.393 . S
C1661 C1660 1.391 . S
C1662 H1652 0.950 . S
C1662 C1663 1.386 . S
C1662 C1664 1.391 . S
C1663 C1662 1.386 . S
C1663 C1667 1.393 . S
C1664 H1653 0.950 . S
C1664 C1662 1.391 . S
C1664 C1665 1.400 . S
C1665 C1659 1.491 . S
C1665 C1664 1.400 . S
C1665 C1666 1.398 . S
C1666 H1654 0.950 . S
C1666 C1665 1.398 . S
C1666 C1667 1.391 . S
C1667 H1655 0.950 . S
C1667 C1663 1.393 . S
C1667 C1666 1.391 . S
H1668 C1676 0.950 . S
H1669 C1681 0.950 . S
H1670 C1678 0.950 . S
H1671 C1680 0.950 . S
H1672 C1682 0.950 . S
H1673 C1684 0.950 . S
H1674 C1686 0.950 . S
H1675 C1687 0.950 . S
C1676 H1668 0.950 . S
C1676 C1677 1.386 . S
C1676 C1678 1.391 . S
C1677 C1676 1.386 . S
C1677 C1681 1.393 . S
C1678 H1670 0.950 . S
C1678 C1676 1.391 . S
C1678 C1679 1.400 . S
C1679 C1678 1.400 . S
C1679 C1680 1.398 . S
C1679 C1685 1.491 . S
C1680 H1671 0.950 . S
C1680 C1679 1.398 . S
C1680 C1681 1.391 . S
C1681 H1669 0.950 . S
C1681 C1677 1.393 . S
C1681 C1680 1.391 . S
C1682 H1672 0.950 . S
C1682 C1683 1.386 . S
C1682 C1684 1.391 . S
C1683 C1682 1.386 . S
C1683 C1687 1.393 . S
C1684 H1673 0.950 . S
C1684 C1682 1.391 . S
C1684 C1685 1.400 . S
C1685 C1679 1.491 . S
C1685 C1684 1.400 . S
C1685 C1686 1.398 . S
C1686 H1674 0.950 . S
C1686 C1685 1.398 . S
C1686 C1687 1.391 . S
C1687 H1675 0.950 . S
C1687 C1683 1.393 . S
C1687 C1686 1.391 . S
H1688 C1696 0.950 . S
H1689 C1701 0.950 . S
H1690 C1698 0.950 . S
H1691 C1700 0.950 . S
H1692 C1702 0.950 . S
H1693 C1704 0.950 . S
H1694 C1706 0.950 . S
H1695 C1707 0.950 . S
C1696 H1688 0.950 . S
C1696 C1697 1.386 . S
C1696 C1698 1.391 . S
C1697 C1696 1.386 . S
C1697 C1701 1.393 . S
C1698 H1690 0.950 . S
C1698 C1696 1.391 . S
C1698 C1699 1.400 . S
C1699 C1698 1.400 . S
C1699 C1700 1.398 . S
C1699 C1705 1.491 . S
C1700 H1691 0.950 . S
C1700 C1699 1.398 . S
C1700 C1701 1.391 . S
C1701 H1689 0.950 . S
C1701 C1697 1.393 . S
C1701 C1700 1.391 . S
C1702 H1692 0.950 . S
C1702 C1703 1.386 . S
C1702 C1704 1.391 . S
C1703 C1702 1.386 . S
C1703 C1707 1.393 . S
C1704 H1693 0.950 . S
C1704 C1702 1.391 . S
C1704 C1705 1.400 . S
C1705 C1699 1.491 . S
C1705 C1704 1.400 . S
C1705 C1706 1.398 . S
C1706 H1694 0.950 . S
C1706 C1705 1.398 . S
C1706 C1707 1.391 . S
C1707 H1695 0.950 . S
C1707 C1703 1.393 . S
C1707 C1706 1.391 . S
H1708 C1716 0.950 . S
H1709 C1721 0.950 . S
H1710 C1718 0.950 . S
H1711 C1720 0.950 . S
H1712 C1722 0.950 . S
H1713 C1724 0.950 . S
H1714 C1726 0.950 . S
H1715 C1727 0.950 . S
C1716 H1708 0.950 . S
C1716 C1717 1.386 . S
C1716 C1718 1.391 . S
C1717 C1716 1.386 . S
C1717 C1721 1.393 . S
C1718 H1710 0.950 . S
C1718 C1716 1.391 . S
C1718 C1719 1.400 . S
C1719 C1718 1.400 . S
C1719 C1720 1.398 . S
C1719 C1725 1.491 . S
C1720 H1711 0.950 . S
C1720 C1719 1.398 . S
C1720 C1721 1.391 . S
C1721 H1709 0.950 . S
C1721 C1717 1.393 . S
C1721 C1720 1.391 . S
C1722 H1712 0.950 . S
C1722 C1723 1.386 . S
C1722 C1724 1.391 . S
C1723 C1722 1.386 . S
C1723 C1727 1.393 . S
C1724 H1713 0.950 . S
C1724 C1722 1.391 . S
C1724 C1725 1.400 . S
C1725 C1719 1.491 . S
C1725 C1724 1.400 . S
C1725 C1726 1.398 . S
C1726 H1714 0.950 . S
C1726 C1725 1.398 . S
C1726 C1727 1.391 . S
C1727 H1715 0.950 . S
C1727 C1723 1.393 . S
C1727 C1726 1.391 . S
C1017 C63 1.096 . S
C1023 C735 1.100 . S
C1037 C147 1.096 . S
C1043 C819 1.094 . S
C1057 C231 1.096 . S
C1063 C903 1.099 . S
C1077 C987 1.095 . S
C1083 C315 1.099 . S
C1097 C399 1.096 . S
C1103 C567 1.100 . S
C1117 C651 1.099 . S
C1123 C483 1.095 . S
C1137 C898 1.590 . S
C1143 C58 1.564 . S
C1157 C982 1.585 . S
C1163 C142 1.608 . S
C1177 C226 1.570 . S
C1183 C562 1.574 . S
C1197 C646 1.569 . S
C1203 C310 1.576 . S
C1217 C730 1.608 . S
C1223 C394 1.582 . S
C1237 C478 1.601 . S
C1243 C814 1.567 . S
C1257 C655 4.548 . S
C1263 C67 4.549 . S
C1277 C739 4.547 . S
C1283 C151 4.550 . S
C1297 C823 4.550 . S
C1303 C235 4.547 . S
C1317 C319 4.550 . S
C1323 C907 4.547 . S
C1337 C403 4.549 . S
C1343 C991 4.548 . S
C1357 C487 4.547 . S
C1363 C571 4.550 . S
C1377 C74 0.559 . S
C1383 C326 0.488 . S
C1397 C158 0.485 . S
C1403 C410 0.558 . S
C1417 C242 0.550 . S
C1423 C494 0.503 . S
C1437 C830 0.487 . S
C1443 C578 0.553 . S
C1457 C662 0.486 . S
C1463 C914 0.560 . S
C1477 C998 0.555 . S
C1483 C746 0.487 . S
C1497 C657 0.614 . S
C1503 C69 0.580 . S
C1517 C741 0.564 . S
C1523 C153 0.602 . S
C1537 C237 0.601 . S
C1543 C825 0.598 . S
C1557 C909 0.616 . S
C1563 C321 0.564 . S
C1577 C993 0.607 . S
C1583 C405 0.561 . S
C1597 C489 0.595 . S
C1603 C573 0.568 . S
C1617 C56 3.530 . S
C1623 C896 3.531 . S
C1637 C140 3.529 . S
C1643 C980 3.535 1_556 S
C1657 C224 3.537 1_554 S
C1663 C560 3.526 . S
C1677 C308 3.526 . S
C1683 C644 3.537 . S
C1697 C392 3.527 . S
C1703 C728 3.537 1_556 S
C1717 C812 3.532 . S
C1723 C476 3.530 1_554 S
