# Generated by pormake.
# Topology bcu, (8)-cn, num edge types: 1
# Building blocks:
#     Node 0, Type 0, BuildingBlock: GIZVER_clean_sbu_0, # of connection points: 8
#     Node 1, Type 0, BuildingBlock: GIZVER_clean_sbu_0, # of connection points: 8
#     Edge 2, Type (0, 0), BuildingBlock: UVAHIK_clean_linker_0, # of connection points: 2
#     Edge 3, Type (0, 0), BuildingBlock: UVAHIK_clean_linker_0, # of connection points: 2
#     Edge 4, Type (0, 0), BuildingBlock: UVAHIK_clean_linker_0, # of connection points: 2
#     Edge 5, Type (0, 0), BuildingBlock: UVAHIK_clean_linker_0, # of connection points: 2
#     Edge 6, Type (0, 0), BuildingBlock: UVAHIK_clean_linker_0, # of connection points: 2
#     Edge 7, Type (0, 0), BuildingBlock: UVAHIK_clean_linker_0, # of connection points: 2
#     Edge 8, Type (0, 0), BuildingBlock: UVAHIK_clean_linker_0, # of connection points: 2
#     Edge 9, Type (0, 0), BuildingBlock: UVAHIK_clean_linker_0, # of connection points: 2
# Relax obj value: 0.006
# Max RMSD: 0.052
# Mean RMSD: 0.052
data_MOF--net-bcu--node1-GIZVER_clean_sbu_0--edge1-UVAHIK_clean_linker_0
_symmetry_space_group_name_H-M    P1
_symmetry_Int_Tables_number       1
_symmetry_cell_setting            triclinic
loop_
_symmetry_equiv_pos_as_xyz
'x, y, z'
_cell_length_a     27.023532
_cell_length_b     31.568432
_cell_length_c     15.864418
_cell_angle_alpha  87.917347
_cell_angle_beta   91.358638
_cell_angle_gamma 105.81489
loop_
_atom_site_label
_atom_site_type_symbol
_atom_site_fract_x
_atom_site_fract_y
_atom_site_fract_z
_atom_type_partial_charge
Co0 Co 0.06328 0.93047 0.99174 0.0
Co1 Co 0.07013 0.96612 0.13872 0.0
Co2 Co 0.00806 0.01418 1.01144 0.0
O3 O 0.06782 0.98867 0.02899 0.0
H4 H 0.10025 1.00956 0.01515 0.0
O5 O 0.94825 0.0397 0.99401 0.0
Co6 Co 0.95312 0.0979 0.03165 0.0
Co7 Co 0.94587 0.06248 0.88462 0.0
H8 H 0.91583 0.01886 1.0079 0.0
O9 O 0.13161 0.96106 0.18536 0.0
O10 O 0.07429 0.91097 0.10921 0.0
O11 O 0.00886 0.95452 0.20453 0.0
O12 O 0.96329 0.97484 0.09982 0.0
O13 O 0.0403 0.05969 0.09521 0.0
O14 O 0.95312 0.14982 0.06844 0.0
O15 O 0.8853 0.09038 0.05523 0.0
O16 O 0.02453 0.11374 0.01647 0.0
O17 O 0.05281 0.05353 0.92295 0.0
O18 O 1.00705 0.07402 0.81866 0.0
O19 O 0.94167 0.1176 0.91448 0.0
O20 O 0.88434 0.06748 0.83833 0.0
C21 C 0.11259 0.89722 0.94725 0.0
C22 C 0.96461 0.92796 0.95015 0.0
C23 C 0.96601 0.955 0.17079 0.0
C24 C 0.11682 0.92223 0.15352 0.0
C25 C 0.90435 0.13123 0.07763 0.0
C26 C 0.05151 0.10037 0.07271 0.0
C27 C 0.04996 0.07344 0.85208 0.0
C28 C 0.89908 0.10628 0.87031 0.0
O29 O 0.06377 0.87847 0.95558 0.0
O30 O 0.13124 0.9382 0.96906 0.0
O31 O 0.97586 0.96865 0.9277 0.0
O32 O 0.99171 0.91444 1.00605 0.0
Co33 Co 0.56284 0.43058 0.4914 0.0
Co34 Co 0.5701 0.46598 0.63843 0.0
Co35 Co 0.50791 0.51429 0.51162 0.0
O36 O 0.56772 0.48877 0.52905 0.0
H37 H 0.60014 0.50961 0.51516 0.0
O38 O 0.44815 0.5398 0.49407 0.0
Co39 Co 0.45269 0.598 0.53131 0.0
Co40 Co 0.44583 0.56234 0.38433 0.0
H41 H 0.41572 0.51891 0.50791 0.0
O42 O 0.63162 0.46099 0.68473 0.0
O43 O 0.5743 0.41087 0.60857 0.0
O44 O 0.50891 0.45444 0.70439 0.0
O45 O 0.46316 0.47494 0.6001 0.0
O46 O 0.54011 0.55982 0.59535 0.0
O47 O 0.4522 0.65001 0.56747 0.0
O48 O 0.38473 0.59028 0.55398 0.0
O49 O 0.52426 0.61403 0.51701 0.0
O50 O 0.55268 0.55363 0.42324 0.0
O51 O 0.50711 0.57394 0.31852 0.0
O52 O 0.44168 0.6175 0.41384 0.0
O53 O 0.38436 0.56741 0.3377 0.0
C54 C 0.61162 0.39725 0.44541 0.0
C55 C 0.46446 0.4281 0.45035 0.0
C56 C 0.46601 0.45502 0.67097 0.0
C57 C 0.61689 0.42218 0.65274 0.0
C58 C 0.40338 0.63125 0.57579 0.0
C59 C 0.55135 0.60051 0.5729 0.0
C60 C 0.54996 0.57347 0.35226 0.0
C61 C 0.39915 0.60625 0.36952 0.0
O62 O 0.56285 0.37865 0.45461 0.0
O63 O 0.63067 0.43809 0.46782 0.0
O64 O 0.47567 0.46878 0.42785 0.0
O65 O 0.49144 0.41473 0.50659 0.0
C66 C 0.12217 0.12142 0.18123 0.0
C67 C 0.09675 0.13229 0.10884 0.0
C68 C 0.16282 0.15308 0.21776 0.0
C69 C 0.25757 0.26013 0.17408 0.0
H70 H 0.25771 0.27126 0.41674 0.0
C71 C 0.39379 0.40705 0.34183 0.0
C72 C 0.41922 0.39619 0.41422 0.0
C73 C 0.35314 0.37539 0.3053 0.0
C74 C 0.25839 0.26834 0.34898 0.0
H75 H 0.09529 0.18421 0.01586 0.0
H76 H 0.16568 0.23917 0.0797 0.0
H77 H 0.19179 0.213 0.34985 0.0
H78 H 0.42067 0.34426 0.5072 0.0
H79 H 0.35028 0.2893 0.44336 0.0
H80 H 0.32417 0.31548 0.1732 0.0
C81 C 0.15444 0.20633 0.10829 0.0
C82 C 0.22081 0.23488 0.31077 0.0
C83 C 0.11379 0.17487 0.07212 0.0
C84 C 0.40218 0.3536 0.45093 0.0
C85 C 0.36153 0.32215 0.41476 0.0
C86 C 0.29516 0.29359 0.21229 0.0
C87 C 0.17894 0.19599 0.1821 0.0
C88 C 0.22 0.23045 0.22292 0.0
C89 C 0.33702 0.33249 0.34096 0.0
C90 C 0.29597 0.29802 0.30014 0.0
H91 H 0.11002 0.08881 0.21065 0.0
H92 H 0.18152 0.14405 0.27407 0.0
H93 H 0.25826 0.25721 0.10632 0.0
H94 H 0.40595 0.43967 0.31241 0.0
H95 H 0.33444 0.38443 0.24899 0.0
C96 C 0.81939 0.13975 0.12784 0.0
C97 C 0.87204 0.15767 0.11203 0.0
C98 C 0.79075 0.16549 0.16349 0.0
C99 C 0.80782 0.26577 0.28918 0.0
H100 H 0.66978 0.26136 0.21054 0.0
C101 C 0.69657 0.38873 0.39521 0.0
C102 C 0.64393 0.37081 0.41101 0.0
C103 C 0.72522 0.36298 0.35955 0.0
C104 C 0.70815 0.26271 0.23386 0.0
H105 H 0.93528 0.21729 0.11886 0.0
H106 H 0.88573 0.26154 0.17958 0.0
H107 H 0.71643 0.21478 0.14684 0.0
H108 H 0.58069 0.31118 0.40418 0.0
H109 H 0.63024 0.26693 0.34345 0.0
H110 H 0.79954 0.3137 0.37619 0.0
C111 C 0.86658 0.22752 0.16642 0.0
C112 C 0.73482 0.23588 0.19738 0.0
C113 C 0.89497 0.20202 0.13095 0.0
C114 C 0.621 0.32646 0.39209 0.0
C115 C 0.64939 0.30096 0.35662 0.0
C116 C 0.78115 0.2926 0.32566 0.0
C117 C 0.81428 0.20958 0.18417 0.0
C118 C 0.78505 0.23711 0.22445 0.0
C119 C 0.70168 0.3189 0.33887 0.0
C120 C 0.73092 0.29137 0.29859 0.0
H121 H 0.80053 0.1058 0.11375 0.0
H122 H 0.75049 0.15061 0.17654 0.0
H123 H 0.84619 0.26711 0.31249 0.0
H124 H 0.71544 0.42268 0.4093 0.0
H125 H 0.76548 0.37787 0.3465 0.0
C126 C 0.87272 0.9146 0.15471 0.0
C127 C 0.91857 0.92301 0.20302 0.0
C128 C 0.83197 0.87741 0.17225 0.0
C129 C 0.77986 0.78828 0.33187 0.0
H130 H 0.72016 0.72193 0.13583 0.0
C131 C 0.64325 0.61386 0.36835 0.0
C132 C 0.5974 0.60545 0.32004 0.0
C133 C 0.684 0.65106 0.35081 0.0
C134 C 0.73611 0.74019 0.1912 0.0
H135 H 0.9556 0.90033 0.3118 0.0
H136 H 0.8844 0.8358 0.34269 0.0
H137 H 0.78482 0.79237 0.11704 0.0
H138 H 0.56038 0.62814 0.21126 0.0
H139 H 0.63158 0.69266 0.18037 0.0
H140 H 0.73115 0.7361 0.40602 0.0
C141 C 0.88006 0.85791 0.29096 0.0
C142 C 0.77304 0.78071 0.18047 0.0
C143 C 0.92095 0.89505 0.27326 0.0
C144 C 0.59502 0.63341 0.2498 0.0
C145 C 0.63592 0.67056 0.23211 0.0
C146 C 0.74293 0.74775 0.3426 0.0
C147 C 0.83581 0.8478 0.23884 0.0
C148 C 0.79535 0.80531 0.25067 0.0
C149 C 0.68016 0.68066 0.28422 0.0
C150 C 0.72062 0.72315 0.2724 0.0
H151 H 0.86928 0.93529 0.10012 0.0
H152 H 0.79799 0.87114 0.13196 0.0
H153 H 0.79581 0.80654 0.38724 0.0
H154 H 0.64669 0.59318 0.42295 0.0
H155 H 0.71797 0.65732 0.39111 0.0
C156 C 0.19253 0.90226 0.22027 0.0
C157 C 0.14675 0.89005 0.17228 0.0
C158 C 0.22002 0.87168 0.24082 0.0
C159 C 0.2384 0.76555 0.17934 0.0
H160 H 0.29178 0.76205 0.40799 0.0
C161 C 0.32345 0.62621 0.30277 0.0
C162 C 0.36923 0.63842 0.35077 0.0
C163 C 0.29596 0.6568 0.28222 0.0
C164 C 0.27759 0.76293 0.34369 0.0
H165 H 0.09437 0.83619 0.10711 0.0
H166 H 0.14251 0.7828 0.14288 0.0
H167 H 0.245 0.81587 0.36757 0.0
H168 H 0.42161 0.69228 0.41593 0.0
H169 H 0.37348 0.74568 0.38015 0.0
H170 H 0.27098 0.71261 0.15546 0.0
C171 C 0.15723 0.81615 0.16426 0.0
C172 C 0.25082 0.79375 0.3205 0.0
C173 C 0.12955 0.84673 0.144 0.0
C174 C 0.38643 0.68175 0.37904 0.0
C175 C 0.35876 0.71232 0.35878 0.0
C176 C 0.26517 0.73473 0.20254 0.0
C177 C 0.20248 0.82819 0.21367 0.0
C178 C 0.23095 0.79542 0.23806 0.0
C179 C 0.3135 0.70028 0.30936 0.0
C180 C 0.28503 0.73305 0.28498 0.0
H181 H 0.20708 0.93544 0.24262 0.0
H182 H 0.25521 0.88217 0.27775 0.0
H183 H 0.2242 0.76643 0.11504 0.0
H184 H 0.30889 0.59304 0.28043 0.0
H185 H 0.26077 0.64631 0.24529 0.0
C186 C 0.19645 0.89004 0.88999 0.0
C187 C 0.14547 0.87079 0.9148 0.0
C188 C 0.22516 0.8643 0.85457 0.0
C189 C 0.22885 0.74797 0.83299 0.0
H190 H 0.30902 0.7937 0.63417 0.0
C191 C 0.31953 0.63844 0.63305 0.0
C192 C 0.3705 0.65769 0.60824 0.0
C193 C 0.29082 0.66418 0.66847 0.0
C194 C 0.28713 0.78051 0.69005 0.0
H195 H 0.08547 0.80901 0.92464 0.0
H196 H 0.13491 0.76485 0.86316 0.0
H197 H 0.26491 0.83995 0.70511 0.0
H198 H 0.4305 0.71946 0.59839 0.0
H199 H 0.38106 0.76363 0.65987 0.0
H200 H 0.25106 0.68853 0.81793 0.0
C201 C 0.15308 0.79959 0.87103 0.0
C202 C 0.26203 0.80716 0.73097 0.0
C203 C 0.12451 0.82517 0.90577 0.0
C204 C 0.39146 0.7033 0.61727 0.0
C205 C 0.36289 0.72889 0.65201 0.0
C206 C 0.25394 0.72132 0.79207 0.0
C207 C 0.20358 0.81876 0.84407 0.0
C208 C 0.23248 0.79123 0.80291 0.0
C209 C 0.3124 0.70972 0.67897 0.0
C210 C 0.28349 0.73725 0.72013 0.0
H211 H 0.21378 0.92502 0.8964 0.0
H212 H 0.26422 0.88003 0.83534 0.0
H213 H 0.20696 0.73478 0.88887 0.0
H214 H 0.30219 0.60346 0.62665 0.0
H215 H 0.25175 0.64845 0.6877 0.0
C216 C 0.42113 0.39553 0.77435 0.0
C217 C 0.41865 0.42302 0.70343 0.0
C218 C 0.38044 0.35831 0.79249 0.0
C219 C 0.24356 0.30275 0.74161 0.0
H220 H 0.28457 0.19626 0.79598 0.0
C221 C 0.09484 0.13294 0.74872 0.0
C222 C 0.09732 0.10545 0.81964 0.0
C223 C 0.13553 0.17016 0.73058 0.0
C224 C 0.27241 0.22572 0.78147 0.0
H225 H 0.3695 0.43423 0.59944 0.0
H226 H 0.29898 0.3696 0.63112 0.0
H227 H 0.35 0.26644 0.77992 0.0
H228 H 0.14647 0.09424 0.92363 0.0
H229 H 0.21699 0.15887 0.89196 0.0
H230 H 0.16597 0.26203 0.74316 0.0
C231 C 0.33228 0.37682 0.67294 0.0
C232 C 0.30993 0.26604 0.77266 0.0
C233 C 0.37288 0.41407 0.65486 0.0
C234 C 0.14309 0.1144 0.86821 0.0
C235 C 0.18369 0.15165 0.85013 0.0
C236 C 0.20604 0.26243 0.75042 0.0
C237 C 0.33626 0.34767 0.7403 0.0
C238 C 0.29599 0.3051 0.75269 0.0
C239 C 0.17971 0.1808 0.78277 0.0
C240 C 0.21997 0.22337 0.77038 0.0
H241 H 0.45561 0.40136 0.81338 0.0
H242 H 0.38427 0.33709 0.84603 0.0
H243 H 0.2314 0.3322 0.7271 0.0
H244 H 0.06036 0.12711 0.70968 0.0
H245 H 0.1317 0.19138 0.67703 0.0
C246 C 0.82359 0.1263 0.80285 0.0
C247 C 0.86908 0.13842 0.85161 0.0
C248 C 0.79611 0.15687 0.78215 0.0
C249 C 0.77698 0.26265 0.84404 0.0
H250 H 0.72528 0.26692 0.61446 0.0
C251 C 0.69238 0.40217 0.7202 0.0
C252 C 0.6469 0.39005 0.67143 0.0
C253 C 0.71986 0.3716 0.7409 0.0
C254 C 0.739 0.26582 0.67901 0.0
H255 H 0.92087 0.19207 0.91815 0.0
H256 H 0.87276 0.24546 0.88204 0.0
H257 H 0.77195 0.21307 0.65533 0.0
H258 H 0.59511 0.3364 0.6049 0.0
H259 H 0.64321 0.28301 0.641 0.0
H260 H 0.74402 0.3154 0.86771 0.0
C261 C 0.85828 0.21219 0.86016 0.0
C262 C 0.76571 0.23498 0.70246 0.0
C263 C 0.88594 0.18162 0.8806 0.0
C264 C 0.63003 0.34685 0.64245 0.0
C265 C 0.6577 0.31629 0.66288 0.0
C266 C 0.75027 0.29349 0.82058 0.0
C267 C 0.81336 0.20025 0.8099 0.0
C268 C 0.78496 0.23304 0.78524 0.0
C269 C 0.70261 0.32822 0.71314 0.0
C270 C 0.73101 0.29543 0.7378 0.0
H271 H 0.80928 0.09322 0.77995 0.0
H272 H 0.76117 0.14646 0.74456 0.0
H273 H 0.79069 0.26156 0.90858 0.0
H274 H 0.70669 0.43526 0.7431 0.0
H275 H 0.7548 0.38201 0.77848 0.0
C276 C 0.61472 0.67452 0.57083 0.0
C277 C 0.59686 0.63227 0.60866 0.0
C278 C 0.65547 0.70594 0.6069 0.0
C279 C 0.72024 0.7353 0.81044 0.0
H280 H 0.82518 0.81472 0.6738 0.0
C281 C 0.90125 0.85396 0.95223 0.0
C282 C 0.91911 0.8962 0.9144 0.0
C283 C 0.8605 0.82254 0.91617 0.0
C284 C 0.79572 0.79317 0.71262 0.0
H285 H 0.60888 0.58925 0.71219 0.0
H286 H 0.6805 0.6444 0.77547 0.0
H287 H 0.75949 0.7564 0.60663 0.0
H288 H 0.90709 0.93922 0.81087 0.0
H289 H 0.83546 0.88407 0.74759 0.0
H290 H 0.75648 0.77207 0.91643 0.0
C291 C 0.66237 0.65324 0.71839 0.0
C292 C 0.75826 0.75968 0.67424 0.0
C293 C 0.62165 0.62162 0.68194 0.0
C294 C 0.89431 0.90686 0.84112 0.0
C295 C 0.8536 0.87523 0.80467 0.0
C296 C 0.7577 0.7688 0.84882 0.0
C297 C 0.67921 0.69588 0.68176 0.0
C298 C 0.72013 0.73041 0.72276 0.0
C299 C 0.83676 0.83259 0.8413 0.0
C300 C 0.79584 0.79806 0.8003 0.0
H301 H 0.59675 0.68363 0.51378 0.0
H302 H 0.66733 0.73855 0.57744 0.0
H303 H 0.69079 0.71376 0.84927 0.0
H304 H 0.91922 0.84484 1.00928 0.0
H305 H 0.84864 0.78992 0.94563 0.0
loop_
_geom_bond_atom_site_label_1
_geom_bond_atom_site_label_2
_geom_bond_distance
_geom_bond_site_symmetry_2
_ccdc_geom_bond_type
Co0 O3 2.042 1_556 S
Co0 O10 2.264 1_556 S
Co0 O29 2.286 . S
Co0 O30 2.069 . S
Co0 O32 2.015 1_455 S
Co1 O3 2.122 . S
Co1 O9 2.073 . S
Co1 O10 2.327 . S
Co1 O11 1.976 1_455 S
Co2 O3 2.087 1_545 S
Co2 O5 2.087 1_454 S
Co2 O12 2.111 1_445 S
Co2 O13 2.143 . S
Co2 O17 2.111 1_554 S
Co2 O31 2.143 1_444 S
O3 Co0 2.042 1_554 S
O3 Co1 2.122 . S
O3 Co2 2.087 1_565 S
O3 H4 0.980 . S
H4 O3 0.980 . S
O5 Co2 2.087 1_656 S
O5 Co6 2.042 1_556 S
O5 Co7 2.122 . S
O5 H8 0.980 . S
Co6 O5 2.042 1_554 S
Co6 O14 2.286 . S
Co6 O15 2.069 . S
Co6 O16 2.015 1_655 S
Co6 O19 2.264 1_554 S
Co7 O5 2.122 . S
Co7 O18 1.976 1_655 S
Co7 O19 2.327 . S
Co7 O20 2.073 . S
H8 O5 0.980 . S
O9 Co1 2.073 . S
O9 C24 1.245 . S
O10 Co0 2.264 1_554 S
O10 Co1 2.327 . S
O10 C24 1.257 . S
O11 Co1 1.976 1_655 S
O11 C23 1.251 . S
O12 Co2 2.111 1_665 S
O12 C23 1.274 . S
O13 Co2 2.143 . S
O13 C26 1.246 . S
O14 Co6 2.286 . S
O14 C25 1.259 . S
O15 Co6 2.069 . S
O15 C25 1.289 . S
O16 Co6 2.015 1_455 S
O16 C26 1.257 . S
O17 Co2 2.111 1_556 S
O17 C27 1.274 . S
O18 Co7 1.976 1_455 S
O18 C27 1.251 . S
O19 Co6 2.264 1_556 S
O19 Co7 2.327 . S
O19 C28 1.257 . S
O20 Co7 2.073 . S
O20 C28 1.245 . S
C21 O29 1.259 . S
C21 O30 1.289 . S
C22 O31 1.246 . S
C22 O32 1.257 . S
C23 O11 1.251 . S
C23 O12 1.274 . S
C24 O9 1.245 . S
C24 O10 1.257 . S
C25 O14 1.259 . S
C25 O15 1.289 . S
C26 O13 1.246 . S
C26 O16 1.257 . S
C27 O17 1.274 . S
C27 O18 1.251 . S
C28 O19 1.257 . S
C28 O20 1.245 . S
O29 Co0 2.286 . S
O29 C21 1.259 . S
O30 Co0 2.069 . S
O30 C21 1.289 . S
O31 Co2 2.143 1_666 S
O31 C22 1.246 . S
O32 Co0 2.015 1_655 S
O32 C22 1.257 . S
Co33 O36 2.042 . S
Co33 O43 2.264 . S
Co33 O62 2.286 . S
Co33 O63 2.069 . S
Co33 O65 2.015 . S
Co34 O36 2.122 . S
Co34 O42 2.073 . S
Co34 O43 2.327 . S
Co34 O44 1.976 . S
Co35 O36 2.087 . S
Co35 O38 2.087 . S
Co35 O45 2.111 . S
Co35 O46 2.143 . S
Co35 O50 2.111 . S
Co35 O64 2.143 . S
O36 Co33 2.042 . S
O36 Co34 2.122 . S
O36 Co35 2.087 . S
O36 H37 0.980 . S
H37 O36 0.980 . S
O38 Co35 2.087 . S
O38 Co39 2.042 . S
O38 Co40 2.122 . S
O38 H41 0.980 . S
Co39 O38 2.042 . S
Co39 O47 2.286 . S
Co39 O48 2.069 . S
Co39 O49 2.015 . S
Co39 O52 2.264 . S
Co40 O38 2.122 . S
Co40 O51 1.976 . S
Co40 O52 2.327 . S
Co40 O53 2.073 . S
H41 O38 0.980 . S
O42 Co34 2.073 . S
O42 C57 1.245 . S
O43 Co33 2.264 . S
O43 Co34 2.327 . S
O43 C57 1.257 . S
O44 Co34 1.976 . S
O44 C56 1.251 . S
O45 Co35 2.111 . S
O45 C56 1.274 . S
O46 Co35 2.143 . S
O46 C59 1.246 . S
O47 Co39 2.286 . S
O47 C58 1.259 . S
O48 Co39 2.069 . S
O48 C58 1.289 . S
O49 Co39 2.015 . S
O49 C59 1.257 . S
O50 Co35 2.111 . S
O50 C60 1.274 . S
O51 Co40 1.976 . S
O51 C60 1.251 . S
O52 Co39 2.264 . S
O52 Co40 2.327 . S
O52 C61 1.257 . S
O53 Co40 2.073 . S
O53 C61 1.245 . S
C54 O62 1.259 . S
C54 O63 1.289 . S
C55 O64 1.246 . S
C55 O65 1.257 . S
C56 O44 1.251 . S
C56 O45 1.274 . S
C57 O42 1.245 . S
C57 O43 1.257 . S
C58 O47 1.259 . S
C58 O48 1.289 . S
C59 O46 1.246 . S
C59 O49 1.257 . S
C60 O50 1.274 . S
C60 O51 1.251 . S
C61 O52 1.257 . S
C61 O53 1.245 . S
O62 Co33 2.286 . S
O62 C54 1.259 . S
O63 Co33 2.069 . S
O63 C54 1.289 . S
O64 Co35 2.143 . S
O64 C55 1.246 . S
O65 Co33 2.015 . S
O65 C55 1.257 . S
C66 C67 1.349 . S
C66 C68 1.327 . S
C66 H91 0.950 . S
C67 C66 1.349 . S
C67 C83 1.349 . S
C68 C66 1.327 . S
C68 C87 1.429 . S
C68 H92 0.950 . S
C69 C86 1.574 . S
C69 C88 1.368 . S
C69 H93 0.949 . S
H70 C74 0.949 . S
C71 C72 1.349 . S
C71 C73 1.327 . S
C71 H94 0.950 . S
C72 C71 1.349 . S
C72 C84 1.349 . S
C73 C71 1.327 . S
C73 C89 1.429 . S
C73 H95 0.950 . S
C74 H70 0.949 . S
C74 C82 1.574 . S
C74 C90 1.368 . S
H75 C83 0.950 . S
H76 C81 0.950 . S
H77 C82 0.949 . S
H78 C84 0.950 . S
H79 C85 0.950 . S
H80 C86 0.949 . S
C81 H76 0.950 . S
C81 C83 1.327 . S
C81 C87 1.429 . S
C82 C74 1.574 . S
C82 H77 0.949 . S
C82 C88 1.368 . S
C83 C67 1.349 . S
C83 H75 0.950 . S
C83 C81 1.327 . S
C84 C72 1.349 . S
C84 H78 0.950 . S
C84 C85 1.327 . S
C85 H79 0.950 . S
C85 C84 1.327 . S
C85 C89 1.429 . S
C86 C69 1.574 . S
C86 H80 0.949 . S
C86 C90 1.368 . S
C87 C68 1.429 . S
C87 C81 1.429 . S
C87 C88 1.523 . S
C88 C69 1.368 . S
C88 C82 1.368 . S
C88 C87 1.523 . S
C89 C73 1.429 . S
C89 C85 1.429 . S
C89 C90 1.523 . S
C90 C74 1.368 . S
C90 C86 1.368 . S
C90 C89 1.523 . S
H91 C66 0.950 . S
H92 C68 0.950 . S
H93 C69 0.949 . S
H94 C71 0.950 . S
H95 C73 0.950 . S
C96 C97 1.349 . S
C96 C98 1.327 . S
C96 H121 0.950 . S
C97 C96 1.349 . S
C97 C113 1.349 . S
C98 C96 1.327 . S
C98 C117 1.429 . S
C98 H122 0.950 . S
C99 C116 1.574 . S
C99 C118 1.368 . S
C99 H123 0.949 . S
H100 C104 0.949 . S
C101 C102 1.349 . S
C101 C103 1.327 . S
C101 H124 0.950 . S
C102 C101 1.349 . S
C102 C114 1.349 . S
C103 C101 1.327 . S
C103 C119 1.429 . S
C103 H125 0.950 . S
C104 H100 0.949 . S
C104 C112 1.574 . S
C104 C120 1.368 . S
H105 C113 0.950 . S
H106 C111 0.950 . S
H107 C112 0.949 . S
H108 C114 0.950 . S
H109 C115 0.950 . S
H110 C116 0.949 . S
C111 H106 0.950 . S
C111 C113 1.327 . S
C111 C117 1.429 . S
C112 C104 1.574 . S
C112 H107 0.949 . S
C112 C118 1.368 . S
C113 C97 1.349 . S
C113 H105 0.950 . S
C113 C111 1.327 . S
C114 C102 1.349 . S
C114 H108 0.950 . S
C114 C115 1.327 . S
C115 H109 0.950 . S
C115 C114 1.327 . S
C115 C119 1.429 . S
C116 C99 1.574 . S
C116 H110 0.949 . S
C116 C120 1.368 . S
C117 C98 1.429 . S
C117 C111 1.429 . S
C117 C118 1.523 . S
C118 C99 1.368 . S
C118 C112 1.368 . S
C118 C117 1.523 . S
C119 C103 1.429 . S
C119 C115 1.429 . S
C119 C120 1.523 . S
C120 C104 1.368 . S
C120 C116 1.368 . S
C120 C119 1.523 . S
H121 C96 0.950 . S
H122 C98 0.950 . S
H123 C99 0.949 . S
H124 C101 0.950 . S
H125 C103 0.950 . S
C126 C127 1.349 . S
C126 C128 1.327 . S
C126 H151 0.950 . S
C127 C126 1.349 . S
C127 C143 1.349 . S
C128 C126 1.327 . S
C128 C147 1.429 . S
C128 H152 0.950 . S
C129 C146 1.574 . S
C129 C148 1.368 . S
C129 H153 0.949 . S
H130 C134 0.949 . S
C131 C132 1.349 . S
C131 C133 1.327 . S
C131 H154 0.950 . S
C132 C131 1.349 . S
C132 C144 1.349 . S
C133 C131 1.327 . S
C133 C149 1.429 . S
C133 H155 0.950 . S
C134 H130 0.949 . S
C134 C142 1.574 . S
C134 C150 1.368 . S
H135 C143 0.950 . S
H136 C141 0.950 . S
H137 C142 0.949 . S
H138 C144 0.950 . S
H139 C145 0.950 . S
H140 C146 0.949 . S
C141 H136 0.950 . S
C141 C143 1.327 . S
C141 C147 1.429 . S
C142 C134 1.574 . S
C142 H137 0.949 . S
C142 C148 1.368 . S
C143 C127 1.349 . S
C143 H135 0.950 . S
C143 C141 1.327 . S
C144 C132 1.349 . S
C144 H138 0.950 . S
C144 C145 1.327 . S
C145 H139 0.950 . S
C145 C144 1.327 . S
C145 C149 1.429 . S
C146 C129 1.574 . S
C146 H140 0.949 . S
C146 C150 1.368 . S
C147 C128 1.429 . S
C147 C141 1.429 . S
C147 C148 1.523 . S
C148 C129 1.368 . S
C148 C142 1.368 . S
C148 C147 1.523 . S
C149 C133 1.429 . S
C149 C145 1.429 . S
C149 C150 1.523 . S
C150 C134 1.368 . S
C150 C146 1.368 . S
C150 C149 1.523 . S
H151 C126 0.950 . S
H152 C128 0.950 . S
H153 C129 0.949 . S
H154 C131 0.950 . S
H155 C133 0.950 . S
C156 C157 1.349 . S
C156 C158 1.327 . S
C156 H181 0.950 . S
C157 C156 1.349 . S
C157 C173 1.349 . S
C158 C156 1.327 . S
C158 C177 1.429 . S
C158 H182 0.950 . S
C159 C176 1.574 . S
C159 C178 1.368 . S
C159 H183 0.949 . S
H160 C164 0.949 . S
C161 C162 1.349 . S
C161 C163 1.327 . S
C161 H184 0.950 . S
C162 C161 1.349 . S
C162 C174 1.349 . S
C163 C161 1.327 . S
C163 C179 1.429 . S
C163 H185 0.950 . S
C164 H160 0.949 . S
C164 C172 1.574 . S
C164 C180 1.368 . S
H165 C173 0.950 . S
H166 C171 0.950 . S
H167 C172 0.949 . S
H168 C174 0.950 . S
H169 C175 0.950 . S
H170 C176 0.949 . S
C171 H166 0.950 . S
C171 C173 1.327 . S
C171 C177 1.429 . S
C172 C164 1.574 . S
C172 H167 0.949 . S
C172 C178 1.368 . S
C173 C157 1.349 . S
C173 H165 0.950 . S
C173 C171 1.327 . S
C174 C162 1.349 . S
C174 H168 0.950 . S
C174 C175 1.327 . S
C175 H169 0.950 . S
C175 C174 1.327 . S
C175 C179 1.429 . S
C176 C159 1.574 . S
C176 H170 0.949 . S
C176 C180 1.368 . S
C177 C158 1.429 . S
C177 C171 1.429 . S
C177 C178 1.523 . S
C178 C159 1.368 . S
C178 C172 1.368 . S
C178 C177 1.523 . S
C179 C163 1.429 . S
C179 C175 1.429 . S
C179 C180 1.523 . S
C180 C164 1.368 . S
C180 C176 1.368 . S
C180 C179 1.523 . S
H181 C156 0.950 . S
H182 C158 0.950 . S
H183 C159 0.949 . S
H184 C161 0.950 . S
H185 C163 0.950 . S
C186 C187 1.349 . S
C186 C188 1.327 . S
C186 H211 0.950 . S
C187 C186 1.349 . S
C187 C203 1.349 . S
C188 C186 1.327 . S
C188 C207 1.429 . S
C188 H212 0.950 . S
C189 C206 1.574 . S
C189 C208 1.368 . S
C189 H213 0.949 . S
H190 C194 0.949 . S
C191 C192 1.349 . S
C191 C193 1.327 . S
C191 H214 0.950 . S
C192 C191 1.349 . S
C192 C204 1.349 . S
C193 C191 1.327 . S
C193 C209 1.429 . S
C193 H215 0.950 . S
C194 H190 0.949 . S
C194 C202 1.574 . S
C194 C210 1.368 . S
H195 C203 0.950 . S
H196 C201 0.950 . S
H197 C202 0.949 . S
H198 C204 0.950 . S
H199 C205 0.950 . S
H200 C206 0.949 . S
C201 H196 0.950 . S
C201 C203 1.327 . S
C201 C207 1.429 . S
C202 C194 1.574 . S
C202 H197 0.949 . S
C202 C208 1.368 . S
C203 C187 1.349 . S
C203 H195 0.950 . S
C203 C201 1.327 . S
C204 C192 1.349 . S
C204 H198 0.950 . S
C204 C205 1.327 . S
C205 H199 0.950 . S
C205 C204 1.327 . S
C205 C209 1.429 . S
C206 C189 1.574 . S
C206 H200 0.949 . S
C206 C210 1.368 . S
C207 C188 1.429 . S
C207 C201 1.429 . S
C207 C208 1.523 . S
C208 C189 1.368 . S
C208 C202 1.368 . S
C208 C207 1.523 . S
C209 C193 1.429 . S
C209 C205 1.429 . S
C209 C210 1.523 . S
C210 C194 1.368 . S
C210 C206 1.368 . S
C210 C209 1.523 . S
H211 C186 0.950 . S
H212 C188 0.950 . S
H213 C189 0.949 . S
H214 C191 0.950 . S
H215 C193 0.950 . S
C216 C217 1.349 . S
C216 C218 1.327 . S
C216 H241 0.950 . S
C217 C216 1.349 . S
C217 C233 1.349 . S
C218 C216 1.327 . S
C218 C237 1.429 . S
C218 H242 0.950 . S
C219 C236 1.574 . S
C219 C238 1.368 . S
C219 H243 0.949 . S
H220 C224 0.949 . S
C221 C222 1.349 . S
C221 C223 1.327 . S
C221 H244 0.950 . S
C222 C221 1.349 . S
C222 C234 1.349 . S
C223 C221 1.327 . S
C223 C239 1.429 . S
C223 H245 0.950 . S
C224 H220 0.949 . S
C224 C232 1.574 . S
C224 C240 1.368 . S
H225 C233 0.950 . S
H226 C231 0.950 . S
H227 C232 0.949 . S
H228 C234 0.950 . S
H229 C235 0.950 . S
H230 C236 0.949 . S
C231 H226 0.950 . S
C231 C233 1.327 . S
C231 C237 1.429 . S
C232 C224 1.574 . S
C232 H227 0.949 . S
C232 C238 1.368 . S
C233 C217 1.349 . S
C233 H225 0.950 . S
C233 C231 1.327 . S
C234 C222 1.349 . S
C234 H228 0.950 . S
C234 C235 1.327 . S
C235 H229 0.950 . S
C235 C234 1.327 . S
C235 C239 1.429 . S
C236 C219 1.574 . S
C236 H230 0.949 . S
C236 C240 1.368 . S
C237 C218 1.429 . S
C237 C231 1.429 . S
C237 C238 1.523 . S
C238 C219 1.368 . S
C238 C232 1.368 . S
C238 C237 1.523 . S
C239 C223 1.429 . S
C239 C235 1.429 . S
C239 C240 1.523 . S
C240 C224 1.368 . S
C240 C236 1.368 . S
C240 C239 1.523 . S
H241 C216 0.950 . S
H242 C218 0.950 . S
H243 C219 0.949 . S
H244 C221 0.950 . S
H245 C223 0.950 . S
C246 C247 1.349 . S
C246 C248 1.327 . S
C246 H271 0.950 . S
C247 C246 1.349 . S
C247 C263 1.349 . S
C248 C246 1.327 . S
C248 C267 1.429 . S
C248 H272 0.950 . S
C249 C266 1.574 . S
C249 C268 1.368 . S
C249 H273 0.949 . S
H250 C254 0.949 . S
C251 C252 1.349 . S
C251 C253 1.327 . S
C251 H274 0.950 . S
C252 C251 1.349 . S
C252 C264 1.349 . S
C253 C251 1.327 . S
C253 C269 1.429 . S
C253 H275 0.950 . S
C254 H250 0.949 . S
C254 C262 1.574 . S
C254 C270 1.368 . S
H255 C263 0.950 . S
H256 C261 0.950 . S
H257 C262 0.949 . S
H258 C264 0.950 . S
H259 C265 0.950 . S
H260 C266 0.949 . S
C261 H256 0.950 . S
C261 C263 1.327 . S
C261 C267 1.429 . S
C262 C254 1.574 . S
C262 H257 0.949 . S
C262 C268 1.368 . S
C263 C247 1.349 . S
C263 H255 0.950 . S
C263 C261 1.327 . S
C264 C252 1.349 . S
C264 H258 0.950 . S
C264 C265 1.327 . S
C265 H259 0.950 . S
C265 C264 1.327 . S
C265 C269 1.429 . S
C266 C249 1.574 . S
C266 H260 0.949 . S
C266 C270 1.368 . S
C267 C248 1.429 . S
C267 C261 1.429 . S
C267 C268 1.523 . S
C268 C249 1.368 . S
C268 C262 1.368 . S
C268 C267 1.523 . S
C269 C253 1.429 . S
C269 C265 1.429 . S
C269 C270 1.523 . S
C270 C254 1.368 . S
C270 C266 1.368 . S
C270 C269 1.523 . S
H271 C246 0.950 . S
H272 C248 0.950 . S
H273 C249 0.949 . S
H274 C251 0.950 . S
H275 C253 0.950 . S
C276 C277 1.349 . S
C276 C278 1.327 . S
C276 H301 0.950 . S
C277 C276 1.349 . S
C277 C293 1.349 . S
C278 C276 1.327 . S
C278 C297 1.429 . S
C278 H302 0.950 . S
C279 C296 1.574 . S
C279 C298 1.368 . S
C279 H303 0.949 . S
H280 C284 0.949 . S
C281 C282 1.349 . S
C281 C283 1.327 . S
C281 H304 0.950 . S
C282 C281 1.349 . S
C282 C294 1.349 . S
C283 C281 1.327 . S
C283 C299 1.429 . S
C283 H305 0.950 . S
C284 H280 0.949 . S
C284 C292 1.574 . S
C284 C300 1.368 . S
H285 C293 0.950 . S
H286 C291 0.950 . S
H287 C292 0.949 . S
H288 C294 0.950 . S
H289 C295 0.950 . S
H290 C296 0.949 . S
C291 H286 0.950 . S
C291 C293 1.327 . S
C291 C297 1.429 . S
C292 C284 1.574 . S
C292 H287 0.949 . S
C292 C298 1.368 . S
C293 C277 1.349 . S
C293 H285 0.950 . S
C293 C291 1.327 . S
C294 C282 1.349 . S
C294 H288 0.950 . S
C294 C295 1.327 . S
C295 H289 0.950 . S
C295 C294 1.327 . S
C295 C299 1.429 . S
C296 C279 1.574 . S
C296 H290 0.949 . S
C296 C300 1.368 . S
C297 C278 1.429 . S
C297 C291 1.429 . S
C297 C298 1.523 . S
C298 C279 1.368 . S
C298 C292 1.368 . S
C298 C297 1.523 . S
C299 C283 1.429 . S
C299 C295 1.429 . S
C299 C300 1.523 . S
C300 C284 1.368 . S
C300 C296 1.368 . S
C300 C299 1.523 . S
H301 C276 0.950 . S
H302 C278 0.950 . S
H303 C279 0.949 . S
H304 C281 0.950 . S
H305 C283 0.950 . S
C67 C26 1.277 . S
C72 C55 1.273 . S
C97 C25 1.831 . S
C102 C54 1.830 . S
C127 C23 1.219 . S
C132 C60 1.222 . S
C157 C24 1.373 . S
C162 C61 1.373 . S
C187 C21 1.831 . S
C192 C58 1.832 . S
C217 C56 1.219 . S
C222 C27 1.216 . S
C247 C28 1.373 . S
C252 C57 1.372 . S
C277 C59 1.277 . S
C282 C22 1.281 . S
