# Generated by pormake.
# Topology pcb, (4)-cn, num edge types: 1
# Building blocks:
#     Node 0, Type 0, BuildingBlock: ICAMEG_clean_sbu_1, # of connection points: 4
#     Node 1, Type 0, BuildingBlock: ICAMEG_clean_sbu_1, # of connection points: 4
#     Node 2, Type 0, BuildingBlock: ICAMEG_clean_sbu_1, # of connection points: 4
#     Node 3, Type 0, BuildingBlock: ICAMEG_clean_sbu_1, # of connection points: 4
#     Node 4, Type 0, BuildingBlock: ICAMEG_clean_sbu_1, # of connection points: 4
#     Node 5, Type 0, BuildingBlock: ICAMEG_clean_sbu_1, # of connection points: 4
#     Node 6, Type 0, BuildingBlock: ICAMEG_clean_sbu_1, # of connection points: 4
#     Node 7, Type 0, BuildingBlock: ICAMEG_clean_sbu_1, # of connection points: 4
#     Node 8, Type 0, BuildingBlock: ICAMEG_clean_sbu_1, # of connection points: 4
#     Node 9, Type 0, BuildingBlock: ICAMEG_clean_sbu_1, # of connection points: 4
#     Node 10, Type 0, BuildingBlock: ICAMEG_clean_sbu_1, # of connection points: 4
#     Node 11, Type 0, BuildingBlock: ICAMEG_clean_sbu_1, # of connection points: 4
#     Node 12, Type 0, BuildingBlock: ICAMEG_clean_sbu_1, # of connection points: 4
#     Node 13, Type 0, BuildingBlock: ICAMEG_clean_sbu_1, # of connection points: 4
#     Node 14, Type 0, BuildingBlock: ICAMEG_clean_sbu_1, # of connection points: 4
#     Node 15, Type 0, BuildingBlock: ICAMEG_clean_sbu_1, # of connection points: 4
#     Edge 16, Type (0, 0), BuildingBlock: CIFDUS_clean_linker_0, # of connection points: 2
#     Edge 17, Type (0, 0), BuildingBlock: CIFDUS_clean_linker_0, # of connection points: 2
#     Edge 18, Type (0, 0), BuildingBlock: CIFDUS_clean_linker_0, # of connection points: 2
#     Edge 19, Type (0, 0), BuildingBlock: CIFDUS_clean_linker_0, # of connection points: 2
#     Edge 20, Type (0, 0), BuildingBlock: CIFDUS_clean_linker_0, # of connection points: 2
#     Edge 21, Type (0, 0), BuildingBlock: CIFDUS_clean_linker_0, # of connection points: 2
#     Edge 22, Type (0, 0), BuildingBlock: CIFDUS_clean_linker_0, # of connection points: 2
#     Edge 23, Type (0, 0), BuildingBlock: CIFDUS_clean_linker_0, # of connection points: 2
#     Edge 24, Type (0, 0), BuildingBlock: CIFDUS_clean_linker_0, # of connection points: 2
#     Edge 25, Type (0, 0), BuildingBlock: CIFDUS_clean_linker_0, # of connection points: 2
#     Edge 26, Type (0, 0), BuildingBlock: CIFDUS_clean_linker_0, # of connection points: 2
#     Edge 27, Type (0, 0), BuildingBlock: CIFDUS_clean_linker_0, # of connection points: 2
#     Edge 28, Type (0, 0), BuildingBlock: CIFDUS_clean_linker_0, # of connection points: 2
#     Edge 29, Type (0, 0), BuildingBlock: CIFDUS_clean_linker_0, # of connection points: 2
#     Edge 30, Type (0, 0), BuildingBlock: CIFDUS_clean_linker_0, # of connection points: 2
#     Edge 31, Type (0, 0), BuildingBlock: CIFDUS_clean_linker_0, # of connection points: 2
#     Edge 32, Type (0, 0), BuildingBlock: CIFDUS_clean_linker_0, # of connection points: 2
#     Edge 33, Type (0, 0), BuildingBlock: CIFDUS_clean_linker_0, # of connection points: 2
#     Edge 34, Type (0, 0), BuildingBlock: CIFDUS_clean_linker_0, # of connection points: 2
#     Edge 35, Type (0, 0), BuildingBlock: CIFDUS_clean_linker_0, # of connection points: 2
#     Edge 36, Type (0, 0), BuildingBlock: CIFDUS_clean_linker_0, # of connection points: 2
#     Edge 37, Type (0, 0), BuildingBlock: CIFDUS_clean_linker_0, # of connection points: 2
#     Edge 38, Type (0, 0), BuildingBlock: CIFDUS_clean_linker_0, # of connection points: 2
#     Edge 39, Type (0, 0), BuildingBlock: CIFDUS_clean_linker_0, # of connection points: 2
#     Edge 40, Type (0, 0), BuildingBlock: CIFDUS_clean_linker_0, # of connection points: 2
#     Edge 41, Type (0, 0), BuildingBlock: CIFDUS_clean_linker_0, # of connection points: 2
#     Edge 42, Type (0, 0), BuildingBlock: CIFDUS_clean_linker_0, # of connection points: 2
#     Edge 43, Type (0, 0), BuildingBlock: CIFDUS_clean_linker_0, # of connection points: 2
#     Edge 44, Type (0, 0), BuildingBlock: CIFDUS_clean_linker_0, # of connection points: 2
#     Edge 45, Type (0, 0), BuildingBlock: CIFDUS_clean_linker_0, # of connection points: 2
#     Edge 46, Type (0, 0), BuildingBlock: CIFDUS_clean_linker_0, # of connection points: 2
#     Edge 47, Type (0, 0), BuildingBlock: CIFDUS_clean_linker_0, # of connection points: 2
# Relax obj value: 0.342
# Max RMSD: 0.267
# Mean RMSD: 0.202
data_MOF--net-pcb--node1-ICAMEG_clean_sbu_1--edge1-CIFDUS_clean_linker_0
_symmetry_space_group_name_H-M    P1
_symmetry_Int_Tables_number       1
_symmetry_cell_setting            triclinic
loop_
_symmetry_equiv_pos_as_xyz
'x, y, z'
_cell_length_a     47.884563
_cell_length_b     38.486665
_cell_length_c     39.453731
_cell_angle_alpha  95.427564
_cell_angle_beta   94.161403
_cell_angle_gamma 99.402176
loop_
_atom_site_label
_atom_site_type_symbol
_atom_site_fract_x
_atom_site_fract_y
_atom_site_fract_z
_atom_type_partial_charge
Co0 Co 0.12875 0.11544 0.12584 0.0
Co1 Co 0.1387 0.20554 0.14879 0.0
O2 O 0.14792 0.15846 0.15368 0.0
C3 C 0.11259 0.06966 0.18005 0.0
O4 O 0.08591 0.06971 0.16968 0.0
C5 C 0.20185 0.21268 0.14953 0.0
O6 O 0.19788 0.18309 0.12903 0.0
O7 O 0.14176 0.19904 0.09813 0.0
O8 O 0.12506 0.14105 0.0845 0.0
H9 H 0.08783 0.29345 0.09479 0.0
H10 H 0.18363 0.11313 0.16511 0.0
O11 O 0.13238 0.08871 0.1668 0.0
H12 H 0.19938 0.08442 0.04429 0.0
H13 H 0.11444 0.98547 0.08434 0.0
H14 H 0.07811 0.09726 0.07537 0.0
H15 H 0.15283 0.09674 0.0601 0.0
H16 H 0.1383 0.04045 0.11856 0.0
O17 O 0.18055 0.22668 0.15764 0.0
H18 H 0.0991 0.23413 0.10206 0.0
H19 H 0.16034 0.27781 0.18478 0.0
H20 H 0.05339 0.04267 0.04076 0.0
H21 H 0.2303 0.10018 0.15045 0.0
H22 H 0.07155 0.9862 0.04513 0.0
H23 H 0.23847 0.08589 0.08964 0.0
O24 O 0.09139 0.12618 0.13809 0.0
H25 H 0.16957 0.19844 0.27215 0.0
H26 H 0.09717 0.23284 0.19276 0.0
H27 H 0.09232 0.23969 0.2547 0.0
H28 H 0.12879 0.22256 0.2949 0.0
H29 H 0.17334 0.19158 0.20998 0.0
H30 H 0.14993 0.33762 0.17821 0.0
H31 H 0.11335 0.3457 0.13305 0.0
O32 O 0.09656 0.1856 0.14173 0.0
C33 C 0.13247 0.17221 0.07617 0.0
C34 C 0.10375 0.29025 0.11463 0.0
C35 C 0.13864 0.31505 0.16141 0.0
N36 N 0.13019 0.25249 0.14395 0.0
C37 C 0.11016 0.25673 0.11893 0.0
C38 C 0.14451 0.28113 0.16494 0.0
C39 C 0.1181 0.31956 0.13608 0.0
C40 C 0.18686 0.10643 0.13863 0.0
N41 N 0.16545 0.10559 0.11353 0.0
C42 C 0.21341 0.09935 0.13046 0.0
C43 C 0.218 0.09141 0.09634 0.0
C44 C 0.19609 0.09064 0.07087 0.0
C45 C 0.16981 0.09785 0.07999 0.0
C46 C 0.10622 0.0098 0.08225 0.0
C47 C 0.08611 0.07278 0.07741 0.0
C48 C 0.11968 0.04108 0.10157 0.0
N49 N 0.10965 0.07209 0.0989 0.0
C50 C 0.07202 0.04196 0.05777 0.0
C51 C 0.08221 0.01028 0.06024 0.0
C52 C 0.08124 0.15485 0.14085 0.0
C53 C 0.15355 0.20601 0.2549 0.0
C54 C 0.11293 0.22498 0.21003 0.0
C55 C 0.11017 0.22909 0.24511 0.0
C56 C 0.13065 0.21951 0.26765 0.0
N57 N 0.13545 0.21175 0.19769 0.0
C58 C 0.15559 0.20225 0.21965 0.0
Co59 Co 0.86077 0.12458 0.16651 0.0
Co60 Co 0.88203 0.18337 0.23948 0.0
O61 O 0.85699 0.16571 0.19785 0.0
C62 C 0.86266 0.18231 0.12201 0.0
O63 O 0.87969 0.20257 0.14622 0.0
C64 C 0.82385 0.17018 0.26254 0.0
O65 O 0.81924 0.14021 0.24251 0.0
O66 O 0.87997 0.13465 0.25404 0.0
O67 O 0.8688 0.09765 0.20545 0.0
H68 H 0.96497 0.18469 0.32548 0.0
H69 H 0.80909 0.15737 0.15865 0.0
O70 O 0.85267 0.15051 0.12637 0.0
H71 H 0.77482 0.03439 0.1809 0.0
H72 H 0.83193 0.03795 0.06123 0.0
H73 H 0.90096 0.07327 0.16254 0.0
H74 H 0.82586 0.05554 0.17741 0.0
H75 H 0.82771 0.08878 0.10234 0.0
O76 O 0.84808 0.19018 0.265 0.0
H77 H 0.93333 0.16276 0.27301 0.0
H78 H 0.88317 0.2421 0.29493 0.0
H79 H 0.90631 0.02278 0.12128 0.0
H80 H 0.75779 0.13724 0.16171 0.0
H81 H 0.87151 0.00455 0.0707 0.0
H82 H 0.74038 0.07538 0.17304 0.0
O83 O 0.90251 0.14173 0.16549 0.0
H84 H 0.84171 0.28444 0.19457 0.0
H85 H 0.92916 0.24367 0.23597 0.0
H86 H 0.93236 0.30326 0.21683 0.0
H87 H 0.88838 0.32402 0.19599 0.0
H88 H 0.83958 0.22489 0.21355 0.0
H89 H 0.91409 0.26467 0.34779 0.0
H90 H 0.9554 0.236 0.36328 0.0
O91 O 0.91628 0.17745 0.21453 0.0
C92 C 0.87522 0.10383 0.23755 0.0
C93 C 0.94708 0.19747 0.31895 0.0
C94 C 0.9185 0.24232 0.33151 0.0
N95 N 0.90657 0.20128 0.28081 0.0
C96 C 0.92915 0.18524 0.28924 0.0
C97 C 0.90102 0.22936 0.3016 0.0
C98 C 0.94168 0.22624 0.34017 0.0
C99 C 0.80162 0.13031 0.16322 0.0
N100 N 0.82043 0.10764 0.1677 0.0
C101 C 0.77257 0.1191 0.16507 0.0
C102 C 0.76282 0.08441 0.17149 0.0
C103 C 0.78213 0.06141 0.17594 0.0
C104 C 0.81103 0.07356 0.174 0.0
C105 C 0.84718 0.04551 0.08338 0.0
C106 C 0.88575 0.06556 0.14041 0.0
C107 C 0.84492 0.07428 0.10676 0.0
N108 N 0.864 0.08389 0.13493 0.0
C109 C 0.88885 0.03689 0.1173 0.0
C110 C 0.86936 0.02678 0.08871 0.0
C111 C 0.92155 0.16156 0.18636 0.0
C112 C 0.86103 0.2757 0.20359 0.0
C113 C 0.90999 0.2524 0.22664 0.0
C114 C 0.9119 0.28624 0.216 0.0
C115 C 0.88722 0.29788 0.20436 0.0
N116 N 0.88425 0.23076 0.22573 0.0
C117 C 0.85994 0.24205 0.21447 0.0
Co118 Co 0.89018 0.88567 0.16998 0.0
Co119 Co 0.86233 0.79754 0.16006 0.0
O120 O 0.86371 0.84564 0.1823 0.0
C121 C 0.91538 0.92291 0.23704 0.0
O122 O 0.94022 0.91622 0.22881 0.0
C123 C 0.80202 0.80729 0.16271 0.0
O124 O 0.80946 0.83946 0.15429 0.0
O125 O 0.85524 0.81445 0.11467 0.0
O126 O 0.8873 0.86464 0.12091 0.0
H127 H 0.88474 0.70675 0.07062 0.0
H128 H 0.84038 0.90095 0.20576 0.0
O129 O 0.89294 0.90772 0.21857 0.0
H130 H 0.83313 0.95514 0.09782 0.0
H131 H 0.9346 0.01456 0.17531 0.0
H132 H 0.94038 0.89236 0.12984 0.0
H133 H 0.87217 0.92262 0.11082 0.0
H134 H 0.89783 0.96478 0.18522 0.0
O135 O 0.82028 0.78677 0.16483 0.0
H136 H 0.88742 0.76681 0.10001 0.0
H137 H 0.8321 0.72607 0.1717 0.0
H138 H 0.97681 0.94165 0.11774 0.0
H139 H 0.80143 0.93408 0.19416 0.0
H140 H 0.97428 0.00325 0.14095 0.0
H141 H 0.79766 0.96154 0.13987 0.0
O142 O 0.92209 0.86058 0.18115 0.0
H143 H 0.84831 0.78896 0.28419 0.0
H144 H 0.90197 0.75306 0.18859 0.0
H145 H 0.91207 0.73347 0.24525 0.0
H146 H 0.88506 0.75133 0.29351 0.0
H147 H 0.83908 0.80825 0.22718 0.0
H148 H 0.82868 0.66559 0.14294 0.0
H149 H 0.85521 0.65561 0.09209 0.0
O150 O 0.90449 0.80633 0.15514 0.0
C151 C 0.8706 0.83965 0.10224 0.0
C152 C 0.87316 0.71074 0.09282 0.0
C153 C 0.84166 0.68764 0.13338 0.0
N154 N 0.86011 0.74993 0.13769 0.0
C155 C 0.87465 0.74468 0.10963 0.0
C156 C 0.84363 0.72197 0.14952 0.0
C157 C 0.85656 0.68206 0.10486 0.0
C158 C 0.83901 0.913 0.18218 0.0
N159 N 0.85863 0.90989 0.15908 0.0
C160 C 0.81683 0.93161 0.17568 0.0
C161 C 0.81469 0.94695 0.1452 0.0
C162 C 0.83458 0.94335 0.12158 0.0
C163 C 0.85652 0.92462 0.12897 0.0
C164 C 0.93592 0.98785 0.16497 0.0
C165 C 0.93885 0.91914 0.13955 0.0
C166 C 0.91519 0.95951 0.1706 0.0
N167 N 0.91714 0.92554 0.15857 0.0
C168 C 0.95962 0.94694 0.13272 0.0
C169 C 0.95819 0.98149 0.14575 0.0
C170 C 0.92525 0.82994 0.16856 0.0
C171 C 0.86015 0.78092 0.26333 0.0
C172 C 0.89019 0.76105 0.20948 0.0
C173 C 0.89596 0.74982 0.24149 0.0
C174 C 0.8808 0.75983 0.26856 0.0
N175 N 0.8698 0.78159 0.20452 0.0
C176 C 0.85496 0.79167 0.23097 0.0
Co177 Co 0.13892 0.83951 0.13581 0.0
Co178 Co 0.1476 0.81599 0.21798 0.0
O179 O 0.15439 0.81106 0.16902 0.0
C180 C 0.13202 0.76599 0.09555 0.0
O181 O 0.14416 0.75086 0.11972 0.0
C182 C 0.2106 0.82336 0.21938 0.0
O183 O 0.20989 0.8411 0.19262 0.0
O184 O 0.15986 0.86835 0.22228 0.0
O185 O 0.14615 0.88175 0.17018 0.0
H186 H 0.11025 0.86945 0.32301 0.0
H187 H 0.18574 0.80048 0.1175 0.0
O188 O 0.12995 0.79863 0.09932 0.0
H189 H 0.22239 0.92587 0.10702 0.0
H190 H 0.12415 0.88264 0.02036 0.0
H191 H 0.09999 0.89202 0.13989 0.0
H192 H 0.17426 0.90792 0.1245 0.0
H193 H 0.14415 0.8473 0.06181 0.0
O194 O 0.18771 0.81062 0.23165 0.0
H195 H 0.11877 0.86329 0.26201 0.0
H196 H 0.16308 0.77825 0.27741 0.0
H197 H 0.07933 0.92773 0.09915 0.0
H198 H 0.2337 0.81714 0.09933 0.0
H199 H 0.09146 0.92332 0.03897 0.0
H200 H 0.25243 0.8803 0.09405 0.0
O201 O 0.10006 0.82599 0.15022 0.0
H202 H 0.15713 0.6895 0.18474 0.0
H203 H 0.09706 0.76826 0.2375 0.0
H204 H 0.08119 0.70356 0.23205 0.0
H205 H 0.11136 0.66369 0.2056 0.0
H206 H 0.17203 0.75441 0.19037 0.0
H207 H 0.15529 0.78372 0.33866 0.0
H208 H 0.12859 0.82948 0.3618 0.0
O209 O 0.10741 0.82227 0.20654 0.0
C210 C 0.15548 0.89041 0.20129 0.0
C211 C 0.12181 0.8493 0.31321 0.0
C212 C 0.14711 0.80122 0.32199 0.0
N213 N 0.14111 0.82018 0.26606 0.0
C214 C 0.1266 0.8456 0.27865 0.0
C215 C 0.15149 0.79829 0.2873 0.0
C216 C 0.13213 0.8269 0.33496 0.0
C217 C 0.19337 0.82784 0.11465 0.0
N218 N 0.17685 0.85298 0.12147 0.0
C219 C 0.22073 0.83721 0.10462 0.0
C220 C 0.23126 0.87266 0.10176 0.0
C221 C 0.21442 0.89823 0.10905 0.0
C222 C 0.18717 0.88787 0.11901 0.0
C223 C 0.11867 0.88486 0.0465 0.0
C224 C 0.10541 0.88998 0.11373 0.0
C225 C 0.12995 0.86489 0.07012 0.0
N226 N 0.12342 0.86779 0.10332 0.0
C227 C 0.09359 0.91019 0.09076 0.0
C228 C 0.10036 0.90764 0.05695 0.0
C229 C 0.09122 0.82356 0.17972 0.0
C230 C 0.14382 0.70658 0.19637 0.0
C231 C 0.11022 0.75111 0.22574 0.0
C232 C 0.10117 0.71448 0.22285 0.0
C233 C 0.11812 0.69213 0.20804 0.0
N234 N 0.13547 0.76507 0.21428 0.0
C235 C 0.15219 0.74334 0.19972 0.0
Co236 Co 0.13099 0.82189 0.87559 0.0
Co237 Co 0.12484 0.74338 0.8261 0.0
O238 O 0.14473 0.7923 0.83934 0.0
C239 C 0.13781 0.8723 0.82288 0.0
O240 O 0.12344 0.8472 0.8004 0.0
C241 C 0.18645 0.73641 0.82982 0.0
O242 O 0.19107 0.75823 0.85808 0.0
O243 O 0.13245 0.73264 0.87399 0.0
O244 O 0.11751 0.77958 0.89997 0.0
H245 H 0.05717 0.63288 0.84154 0.0
H246 H 0.19052 0.84041 0.85915 0.0
O247 O 0.1441 0.86561 0.8532 0.0
H248 H 0.19663 0.82268 0.98148 0.0
H249 H 0.13306 0.93203 0.95633 0.0
H250 H 0.07821 0.81497 0.91111 0.0
H251 H 0.15007 0.81641 0.94843 0.0
H252 H 0.1527 0.89267 0.9148 0.0
O253 O 0.16159 0.7284 0.81433 0.0
H254 H 0.08131 0.69476 0.8563 0.0
H255 H 0.12821 0.68754 0.76932 0.0
H256 H 0.05791 0.85334 0.95284 0.0
H257 H 0.23763 0.84745 0.89138 0.0
H258 H 0.08517 0.9126 0.97522 0.0
H259 H 0.24086 0.8384 0.95297 0.0
O260 O 0.09379 0.81527 0.84853 0.0
H261 H 0.15245 0.79674 0.71948 0.0
H262 H 0.07421 0.73084 0.77458 0.0
H263 H 0.06513 0.7469 0.71627 0.0
H264 H 0.10444 0.78004 0.68829 0.0
H265 H 0.16052 0.78046 0.77796 0.0
H266 H 0.10477 0.62551 0.75378 0.0
H267 H 0.06888 0.59783 0.78995 0.0
O268 O 0.0866 0.75632 0.83626 0.0
C269 C 0.12495 0.74927 0.90032 0.0
C270 C 0.07271 0.64468 0.82553 0.0
C271 C 0.09945 0.64053 0.7763 0.0
N272 N 0.106 0.69481 0.81359 0.0
C273 C 0.0864 0.67972 0.83371 0.0
C274 C 0.11271 0.67563 0.78528 0.0
C275 C 0.07931 0.62501 0.79659 0.0
C276 C 0.19182 0.83675 0.88601 0.0
N277 N 0.16762 0.82798 0.90185 0.0
C278 C 0.21852 0.84065 0.9041 0.0
C279 C 0.22032 0.83552 0.93865 0.0
C280 C 0.19552 0.82668 0.95466 0.0
C281 C 0.1692 0.82304 0.93577 0.0
C282 C 0.12092 0.90633 0.9466 0.0
C283 C 0.09043 0.84047 0.92117 0.0
C284 C 0.13193 0.88393 0.92307 0.0
N285 N 0.11664 0.85151 0.91054 0.0
C286 C 0.07876 0.86215 0.94469 0.0
C287 C 0.09407 0.89539 0.95725 0.0
C288 C 0.07775 0.78596 0.83803 0.0
C289 C 0.13517 0.78223 0.73137 0.0
C290 C 0.09142 0.74535 0.76265 0.0
C291 C 0.08616 0.7543 0.72958 0.0
C292 C 0.10822 0.77288 0.7139 0.0
N293 N 0.11792 0.75463 0.77963 0.0
C294 C 0.13964 0.77284 0.76442 0.0
Co295 Co 0.10185 0.12211 0.79964 0.0
Co296 Co 0.14091 0.20679 0.82068 0.0
O297 O 0.13597 0.15789 0.79792 0.0
C298 C 0.1442 0.07992 0.82698 0.0
O299 O 0.15354 0.10541 0.85168 0.0
C300 C 0.16566 0.21351 0.75206 0.0
O301 O 0.15596 0.18007 0.74165 0.0
O302 O 0.10275 0.21331 0.79985 0.0
O303 O 0.07696 0.1584 0.7942 0.0
H304 H 0.11 0.30774 0.89015 0.0
H305 H 0.14345 0.10818 0.75027 0.0
O306 O 0.12535 0.08391 0.80393 0.0
H307 H 0.05261 0.10078 0.68038 0.0
H308 H 0.03966 0.00222 0.77193 0.0
H309 H 0.04886 0.12142 0.83418 0.0
H310 H 0.05536 0.11269 0.74317 0.0
H311 H 0.08263 0.04675 0.76985 0.0
O312 O 0.15994 0.22718 0.78095 0.0
H313 H 0.10484 0.24691 0.86163 0.0
H314 H 0.18745 0.2699 0.82789 0.0
H315 H 1.00533 0.07776 0.83659 0.0
H316 H 0.14167 0.09538 0.6876 0.0
H317 H 1.00043 0.01781 0.80495 0.0
H318 H 0.09603 0.0919 0.65218 0.0
O319 O 0.10418 0.1318 0.85055 0.0
H320 H 0.23583 0.16608 0.82225 0.0
H321 H 0.17075 0.22371 0.89076 0.0
H322 H 0.21649 0.21476 0.91815 0.0
H323 H 0.24952 0.18592 0.8838 0.0
H324 H 0.18978 0.17504 0.79602 0.0
H325 H 0.19339 0.33105 0.85578 0.0
H326 H 0.15454 0.3503 0.88732 0.0
O327 O 0.12345 0.18928 0.86183 0.0
C328 C 0.07928 0.1917 0.7928 0.0
C329 C 0.12709 0.29967 0.87651 0.0
C330 C 0.17387 0.31276 0.85718 0.0
N331 N 0.14579 0.25482 0.8431 0.0
C332 C 0.1243 0.26524 0.86033 0.0
C333 C 0.17033 0.27813 0.84129 0.0
C334 C 0.15208 0.32354 0.87489 0.0
C335 C 0.12352 0.1067 0.73501 0.0
N336 N 0.09967 0.11218 0.75026 0.0
C337 C 0.12264 0.09946 0.69954 0.0
C338 C 0.09704 0.09754 0.67969 0.0
C339 C 0.0727 0.10264 0.69548 0.0
C340 C 0.07442 0.10986 0.731 0.0
C341 C 0.0415 0.02833 0.78566 0.0
C342 C 0.04688 0.09538 0.82037 0.0
C343 C 0.06584 0.05363 0.78471 0.0
N344 N 0.06817 0.0868 0.80165 0.0
C345 C 0.02221 0.07074 0.8219 0.0
C346 C 0.01951 0.03707 0.80425 0.0
C347 C 0.11217 0.15982 0.87129 0.0
C348 C 0.22173 0.17895 0.83742 0.0
C349 C 0.18494 0.21118 0.87554 0.0
C350 C 0.21087 0.20619 0.89124 0.0
C351 C 0.22938 0.19002 0.87197 0.0
N352 N 0.17766 0.20062 0.84152 0.0
C353 C 0.19562 0.18438 0.8226 0.0
Co354 Co 0.9016 0.23547 0.88686 0.0
Co355 Co 0.86833 0.20569 0.80565 0.0
O356 O 0.86997 0.23164 0.85146 0.0
C357 C 0.85451 0.20332 0.92517 0.0
O358 O 0.84603 0.17917 0.89905 0.0
C359 C 0.85419 0.27722 0.79505 0.0
O360 O 0.87151 0.29114 0.82193 0.0
O361 O 0.90861 0.22757 0.79921 0.0
O362 O 0.92959 0.24265 0.85254 0.0
H363 H 0.90398 0.12931 0.71369 0.0
H364 H 0.85758 0.28026 0.89737 0.0
O365 O 0.87475 0.22863 0.92296 0.0
H366 H 0.94756 0.36403 0.89969 0.0
H367 H 0.95369 0.27505 0.00323 0.0
H368 H 0.95561 0.20725 0.89117 0.0
H369 H 0.94687 0.29955 0.89169 0.0
H370 H 0.91448 0.27124 0.95821 0.0
O371 O 0.85275 0.24477 0.78389 0.0
H372 H 0.90541 0.16185 0.7709 0.0
H373 H 0.82686 0.19408 0.74352 0.0
H374 H 0.99545 0.21078 0.93533 0.0
H375 H 0.85732 0.34453 0.90605 0.0
H376 H 0.99463 0.24482 0.99187 0.0
H377 H 0.90254 0.3869 0.90706 0.0
O378 O 0.90099 0.18319 0.88016 0.0
H379 H 0.76891 0.20488 0.83948 0.0
H380 H 0.83605 0.13185 0.79387 0.0
H381 H 0.78751 0.10338 0.8025 0.0
H382 H 0.7535 0.13998 0.82535 0.0
H383 H 0.81774 0.23221 0.83089 0.0
H384 H 0.82466 0.16208 0.68598 0.0
H385 H 0.86338 0.12931 0.67076 0.0
O386 O 0.88209 0.16541 0.82611 0.0
C387 C 0.93045 0.23947 0.82029 0.0
C388 C 0.88698 0.1435 0.72001 0.0
C389 C 0.84249 0.16193 0.70444 0.0
N390 N 0.86632 0.17995 0.76054 0.0
C391 C 0.88768 0.16196 0.75237 0.0
C392 C 0.84392 0.18015 0.73704 0.0
C393 C 0.86421 0.14353 0.69593 0.0
C394 C 0.87737 0.29855 0.89808 0.0
N395 N 0.90219 0.28619 0.89374 0.0
C396 C 0.87707 0.3349 0.90287 0.0
C397 C 0.90244 0.35866 0.90336 0.0
C398 C 0.9277 0.34584 0.89915 0.0
C399 C 0.92717 0.30931 0.89436 0.0
C400 C 0.95432 0.26018 0.97869 0.0
C401 C 0.95519 0.22234 0.91562 0.0
C402 C 0.93213 0.25783 0.95312 0.0
N403 N 0.93281 0.23919 0.922 0.0
C404 C 0.97777 0.22415 0.94056 0.0
C405 C 0.97728 0.24322 0.97229 0.0
C406 C 0.8931 0.15947 0.85492 0.0
C407 C 0.78349 0.18867 0.82938 0.0
C408 C 0.82142 0.14799 0.80387 0.0
C409 C 0.79393 0.1317 0.80866 0.0
C410 C 0.77487 0.15225 0.82148 0.0
N411 N 0.82972 0.18376 0.81156 0.0
C412 C 0.81116 0.20403 0.8243 0.0
Co413 Co 0.91342 0.89487 0.84522 0.0
Co414 Co 0.85967 0.82144 0.83804 0.0
O415 O 0.87567 0.86905 0.82582 0.0
C416 C 0.87716 0.95053 0.85779 0.0
O417 O 0.85659 0.92687 0.86624 0.0
C418 C 0.83954 0.82025 0.76261 0.0
O419 O 0.85381 0.8521 0.76107 0.0
O420 O 0.89474 0.80273 0.82581 0.0
O421 O 0.92902 0.8499 0.84235 0.0
H422 H 0.86323 0.71105 0.8957 0.0
H423 H 0.88508 0.91847 0.78448 0.0
O424 O 0.89988 0.94141 0.84812 0.0
H425 H 0.97763 0.89489 0.7496 0.0
H426 H 0.9964 0.9961 0.86222 0.0
H427 H 0.95636 0.88 0.89721 0.0
H428 H 0.9645 0.88694 0.80801 0.0
H429 H 0.94994 0.96387 0.83592 0.0
O430 O 0.84122 0.80532 0.79003 0.0
H431 H 0.88199 0.77034 0.87994 0.0
H432 H 0.80412 0.77213 0.82175 0.0
H433 H 1.00324 0.91091 0.92337 0.0
H434 H 0.8974 0.92718 0.72582 0.0
H435 H 0.02353 0.96944 0.90591 0.0
H436 H 0.94394 0.91522 0.70803 0.0
O437 O 0.90283 0.88869 0.89234 0.0
H438 H 0.78008 0.89148 0.82322 0.0
H439 H 0.82417 0.8152 0.89689 0.0
H440 H 0.78189 0.83859 0.91414 0.0
H441 H 0.75937 0.87687 0.87708 0.0
H442 H 0.8226 0.86815 0.80729 0.0
H443 H 0.78466 0.71271 0.83657 0.0
H444 H 0.81422 0.68183 0.87394 0.0
O445 O 0.87625 0.83455 0.88655 0.0
C446 C 0.92081 0.81718 0.83216 0.0
C447 C 0.85012 0.72426 0.87943 0.0
C448 C 0.80605 0.72517 0.8462 0.0
N449 N 0.84419 0.77477 0.85003 0.0
C450 C 0.86062 0.75786 0.87046 0.0
C451 C 0.81725 0.75877 0.83778 0.0
C452 C 0.82264 0.70787 0.86719 0.0
C453 C 0.90532 0.91312 0.77683 0.0
N454 N 0.92382 0.90154 0.79938 0.0
C455 C 0.9122 0.91814 0.74363 0.0
C456 C 0.93832 0.91142 0.73366 0.0
C457 C 0.9572 0.89997 0.75694 0.0
C458 C 0.94957 0.89524 0.7899 0.0
C459 C 0.98784 0.97052 0.86983 0.0
C460 C 0.96517 0.90528 0.88918 0.0
C461 C 0.96145 0.95221 0.8552 0.0
N462 N 0.95047 0.91993 0.86486 0.0
C463 C 0.99168 0.92272 0.9042 0.0
C464 C 1.00304 0.95557 0.89441 0.0
C465 C 0.88987 0.86195 0.90491 0.0
C466 C 0.78951 0.87453 0.83942 0.0
C467 C 0.81459 0.8318 0.88054 0.0
C468 C 0.79058 0.84496 0.89047 0.0
C469 C 0.77795 0.86642 0.86968 0.0
N470 N 0.82568 0.83951 0.8506 0.0
C471 C 0.81354 0.86087 0.83031 0.0
Co472 Co 0.62525 0.61294 0.61882 0.0
Co473 Co 0.64234 0.70205 0.64095 0.0
O474 O 0.64932 0.65367 0.64596 0.0
C475 C 0.64262 0.58557 0.68605 0.0
O476 O 0.65842 0.61582 0.69864 0.0
C477 C 0.70576 0.70698 0.64656 0.0
O478 O 0.70249 0.67601 0.62842 0.0
O479 O 0.64797 0.69469 0.59142 0.0
O480 O 0.62056 0.64136 0.57903 0.0
H481 H 0.59952 0.79402 0.58268 0.0
H482 H 0.68408 0.60664 0.6467 0.0
O483 O 0.62879 0.58214 0.65673 0.0
H484 H 0.67975 0.57078 0.52306 0.0
H485 H 0.59408 0.48395 0.57528 0.0
H486 H 0.57129 0.60433 0.57455 0.0
H487 H 0.63836 0.58907 0.54861 0.0
H488 H 0.62587 0.53512 0.6075 0.0
O489 O 0.68419 0.72136 0.65243 0.0
H490 H 0.60752 0.73355 0.59088 0.0
H491 H 0.66431 0.77334 0.67883 0.0
H492 H 0.53909 0.55393 0.54161 0.0
H493 H 0.7256 0.58771 0.62243 0.0
H494 H 0.5504 0.49321 0.54188 0.0
H495 H 0.72376 0.5697 0.56007 0.0
O496 O 0.59158 0.62772 0.63871 0.0
H497 H 0.66677 0.69526 0.76593 0.0
H498 H 0.59846 0.72961 0.68109 0.0
H499 H 0.59049 0.73658 0.74219 0.0
H500 H 0.62484 0.71944 0.78512 0.0
H501 H 0.67376 0.68836 0.70451 0.0
H502 H 0.65707 0.83424 0.67143 0.0
H503 H 0.62439 0.84488 0.62314 0.0
O504 O 0.59993 0.68509 0.63045 0.0
C505 C 0.63416 0.66985 0.56988 0.0
C506 C 0.61374 0.78971 0.60388 0.0
C507 C 0.64607 0.81229 0.65367 0.0
N508 N 0.6362 0.74987 0.63543 0.0
C509 C 0.61831 0.75552 0.6087 0.0
C510 C 0.65013 0.77774 0.65768 0.0
C511 C 0.62773 0.81824 0.62657 0.0
C512 C 0.68265 0.59816 0.61979 0.0
N513 N 0.65842 0.5985 0.59939 0.0
C514 C 0.70647 0.58777 0.60605 0.0
C515 C 0.70546 0.57778 0.57107 0.0
C516 C 0.6808 0.57842 0.5503 0.0
C517 C 0.65742 0.58895 0.56496 0.0
C518 C 0.58895 0.51029 0.57491 0.0
C519 C 0.57647 0.57803 0.5746 0.0
C520 C 0.60682 0.53938 0.5932 0.0
N521 N 0.60055 0.57276 0.59273 0.0
C522 C 0.55811 0.54958 0.55598 0.0
C523 C 0.56445 0.51551 0.55617 0.0
C524 C 0.58341 0.6574 0.63698 0.0
C525 C 0.65167 0.70284 0.74748 0.0
C526 C 0.61343 0.72186 0.69956 0.0
C527 C 0.60884 0.72599 0.73415 0.0
C528 C 0.62812 0.71639 0.75822 0.0
N529 N 0.63656 0.70851 0.6892 0.0
C530 C 0.65555 0.69906 0.71266 0.0
Co531 Co 0.3655 0.62097 0.67029 0.0
Co532 Co 0.38558 0.6793 0.74249 0.0
O533 O 0.36093 0.66254 0.70039 0.0
C534 C 0.36257 0.67459 0.62149 0.0
O535 O 0.38109 0.69694 0.64254 0.0
C536 C 0.32719 0.67505 0.76389 0.0
O537 O 0.32169 0.64316 0.74726 0.0
O538 O 0.37774 0.63162 0.75905 0.0
O539 O 0.37728 0.59647 0.71001 0.0
H540 H 0.46218 0.67335 0.8348 0.0
H541 H 0.31112 0.64821 0.66399 0.0
O542 O 0.35362 0.64372 0.62941 0.0
H543 H 0.28565 0.52574 0.69275 0.0
H544 H 0.33698 0.52857 0.56925 0.0
H545 H 0.40989 0.57547 0.66454 0.0
H546 H 0.33538 0.55073 0.68569 0.0
H547 H 0.33095 0.57915 0.60965 0.0
O548 O 0.35206 0.69332 0.7651 0.0
H549 H 0.43156 0.65257 0.78137 0.0
H550 H 0.39065 0.74227 0.79411 0.0
H551 H 0.4174 0.52608 0.62336 0.0
H552 H 0.26101 0.62411 0.67044 0.0
H553 H 0.38057 0.50176 0.57601 0.0
H554 H 0.24803 0.5625 0.68506 0.0
O555 O 0.40612 0.64164 0.6667 0.0
H556 H 0.35951 0.78538 0.69084 0.0
H557 H 0.43842 0.73073 0.73684 0.0
H558 H 0.44889 0.78896 0.71494 0.0
H559 H 0.40926 0.8167 0.6918 0.0
H560 H 0.35002 0.72701 0.7127 0.0
H561 H 0.42066 0.7639 0.84785 0.0
H562 H 0.45681 0.72941 0.86844 0.0
O563 O 0.41965 0.66562 0.72082 0.0
C564 C 0.37822 0.60168 0.7425 0.0
C565 C 0.44656 0.68867 0.82604 0.0
C566 C 0.42322 0.73946 0.83339 0.0
N567 N 0.40948 0.6963 0.78452 0.0
C568 C 0.42921 0.67707 0.79576 0.0
C569 C 0.40625 0.72704 0.80299 0.0
C570 C 0.44352 0.7201 0.84492 0.0
C571 C 0.30557 0.62125 0.66997 0.0
N572 N 0.32614 0.60091 0.67438 0.0
C573 C 0.27719 0.6078 0.67374 0.0
C574 C 0.26993 0.57325 0.68202 0.0
C575 C 0.29102 0.55262 0.68637 0.0
C576 C 0.31918 0.56697 0.68245 0.0
C577 C 0.35308 0.53869 0.59009 0.0
C578 C 0.39382 0.56523 0.64374 0.0
C579 C 0.34976 0.56727 0.61312 0.0
N580 N 0.36992 0.58006 0.63966 0.0
C581 C 0.39812 0.53709 0.62073 0.0
C582 C 0.37751 0.52362 0.59391 0.0
C583 C 0.42525 0.65458 0.69087 0.0
C584 C 0.37695 0.77362 0.70096 0.0
C585 C 0.42107 0.74257 0.7267 0.0
C586 C 0.42712 0.77559 0.71441 0.0
C587 C 0.40487 0.79115 0.70146 0.0
N588 N 0.39362 0.72557 0.72619 0.0
C589 C 0.3717 0.74064 0.7135 0.0
Co590 Co 0.3933 0.38189 0.67325 0.0
Co591 Co 0.37035 0.29279 0.67025 0.0
O592 O 0.36649 0.3419 0.68584 0.0
C593 C 0.37761 0.40645 0.74403 0.0
O594 O 0.36026 0.37682 0.74641 0.0
C595 C 0.30693 0.29311 0.67074 0.0
O596 O 0.31084 0.32746 0.66953 0.0
O597 O 0.36575 0.30375 0.6221 0.0
O598 O 0.39559 0.35572 0.62699 0.0
H599 H 0.4073 0.19972 0.59662 0.0
H600 H 0.33589 0.39332 0.6936 0.0
O601 O 0.39203 0.41011 0.71832 0.0
H602 H 0.34536 0.44215 0.58332 0.0
H603 H 0.43809 0.51015 0.67648 0.0
H604 H 0.44605 0.38688 0.63767 0.0
H605 H 0.38339 0.41438 0.60892 0.0
H606 H 0.40032 0.46103 0.68511 0.0
O607 O 0.32791 0.27651 0.66981 0.0
H608 H 0.40288 0.26065 0.61817 0.0
H609 H 0.34432 0.22116 0.68704 0.0
H610 H 0.48329 0.43555 0.62627 0.0
H611 H 0.29778 0.42163 0.66946 0.0
H612 H 0.47962 0.49773 0.64608 0.0
H613 H 0.30229 0.44642 0.61385 0.0
O614 O 0.42505 0.3618 0.69391 0.0
H615 H 0.34613 0.29477 0.79228 0.0
H616 H 0.41129 0.2579 0.71009 0.0
H617 H 0.41818 0.24604 0.77014 0.0
H618 H 0.38541 0.26441 0.81171 0.0
H619 H 0.34018 0.30644 0.7321 0.0
H620 H 0.34795 0.15981 0.66602 0.0
H621 H 0.37971 0.14877 0.62058 0.0
O622 O 0.41309 0.30578 0.67064 0.0
C623 C 0.38074 0.32873 0.60892 0.0
C624 C 0.39346 0.20418 0.6165 0.0
C625 C 0.36012 0.18179 0.65541 0.0
N626 N 0.37354 0.24451 0.65402 0.0
C627 C 0.39092 0.23864 0.62887 0.0
C628 C 0.3581 0.2166 0.66716 0.0
C629 C 0.37795 0.17561 0.62993 0.0
C630 C 0.33838 0.4043 0.66974 0.0
N631 N 0.36222 0.40241 0.6531 0.0
C632 C 0.31652 0.42016 0.65599 0.0
C633 C 0.31903 0.434 0.62477 0.0
C634 C 0.34318 0.4316 0.60765 0.0
C635 C 0.36461 0.41562 0.62223 0.0
C636 C 0.43976 0.48322 0.66732 0.0
C637 C 0.44385 0.4139 0.64548 0.0
C638 C 0.41854 0.4552 0.67239 0.0
N639 N 0.42089 0.42099 0.66185 0.0
C640 C 0.46516 0.44135 0.63922 0.0
C641 C 0.46311 0.47622 0.65039 0.0
C642 C 0.43134 0.33152 0.68574 0.0
C643 C 0.36052 0.28656 0.7744 0.0
C644 C 0.397 0.26618 0.72802 0.0
C645 C 0.40098 0.25928 0.76199 0.0
C646 C 0.38258 0.26957 0.7853 0.0
N647 N 0.37527 0.28281 0.71748 0.0
C648 C 0.3572 0.29302 0.74022 0.0
Co649 Co 0.63242 0.32475 0.63016 0.0
Co650 Co 0.65113 0.31651 0.71356 0.0
O651 O 0.65692 0.30795 0.66464 0.0
C652 C 0.64605 0.25615 0.59426 0.0
O653 O 0.66311 0.25001 0.61974 0.0
C654 C 0.71393 0.33151 0.70964 0.0
O655 O 0.70937 0.34644 0.6817 0.0
O656 O 0.65689 0.36867 0.71065 0.0
O657 O 0.62899 0.36704 0.66225 0.0
H658 H 0.61055 0.37251 0.81488 0.0
H659 H 0.68961 0.3106 0.61248 0.0
O660 O 0.63396 0.28326 0.59612 0.0
H661 H 0.68794 0.4344 0.59155 0.0
H662 H 0.59766 0.34337 0.51115 0.0
H663 H 0.5796 0.3559 0.63262 0.0
H664 H 0.64665 0.39878 0.61277 0.0
H665 H 0.63092 0.32712 0.5547 0.0
O666 O 0.69316 0.31909 0.72591 0.0
H667 H 0.61729 0.36082 0.75375 0.0
H668 H 0.67457 0.29123 0.77711 0.0
H669 H 0.54659 0.3746 0.58988 0.0
H670 H 0.73103 0.34494 0.59058 0.0
H671 H 0.55544 0.36831 0.52848 0.0
H672 H 0.73049 0.40744 0.58004 0.0
O673 O 0.59898 0.29688 0.6471 0.0
H674 H 0.67443 0.19409 0.69234 0.0
H675 H 0.60758 0.26517 0.74194 0.0
H676 H 0.59938 0.20053 0.74424 0.0
H677 H 0.63298 0.16454 0.71939 0.0
H678 H 0.68169 0.25877 0.69035 0.0
H679 H 0.66861 0.3024 0.83853 0.0
H680 H 0.63631 0.34319 0.85775 0.0
O681 O 0.60859 0.31374 0.70309 0.0
C682 C 0.6419 0.38332 0.69009 0.0
C683 C 0.62463 0.35462 0.80681 0.0
C684 C 0.65724 0.31531 0.82009 0.0
N685 N 0.64617 0.3252 0.76183 0.0
C686 C 0.62849 0.34783 0.77221 0.0
C687 C 0.66059 0.30916 0.78528 0.0
C688 C 0.63911 0.33818 0.83086 0.0
C689 C 0.68881 0.33739 0.60734 0.0
N690 N 0.66539 0.35227 0.61342 0.0
C691 C 0.71253 0.35691 0.59522 0.0
C692 C 0.71225 0.392 0.58941 0.0
C693 C 0.68841 0.40714 0.59588 0.0
C694 C 0.66509 0.3868 0.608 0.0
C695 C 0.59376 0.34693 0.53774 0.0
C696 C 0.58394 0.35377 0.60609 0.0
C697 C 0.61241 0.33736 0.56259 0.0
N698 N 0.60733 0.34069 0.59629 0.0
C699 C 0.56506 0.36421 0.58195 0.0
C700 C 0.57002 0.36066 0.54752 0.0
C701 C 0.59111 0.30127 0.67704 0.0
C702 C 0.65966 0.20949 0.7033 0.0
C703 C 0.62223 0.24968 0.73091 0.0
C704 C 0.61751 0.2131 0.73238 0.0
C705 C 0.63639 0.19292 0.71845 0.0
N706 N 0.64513 0.26575 0.71605 0.0
C707 C 0.6637 0.24614 0.70232 0.0
Co708 Co 0.64618 0.32356 0.37827 0.0
Co709 Co 0.62513 0.24619 0.32536 0.0
O710 O 0.65155 0.2908 0.33937 0.0
C711 C 0.65301 0.37502 0.32655 0.0
O712 O 0.63337 0.35372 0.30599 0.0
C713 C 0.68231 0.22593 0.33058 0.0
O714 O 0.6869 0.2449 0.36052 0.0
O715 O 0.62903 0.23179 0.37256 0.0
O716 O 0.63044 0.28388 0.40412 0.0
H717 H 0.54219 0.15074 0.33631 0.0
H718 H 0.70283 0.32997 0.35172 0.0
O719 O 0.66205 0.36516 0.35457 0.0
H720 H 0.7185 0.3066 0.4718 0.0
H721 H 0.67295 0.43326 0.46202 0.0
H722 H 0.59825 0.33094 0.42045 0.0
H723 H 0.67075 0.31188 0.44725 0.0
H724 H 0.68142 0.38843 0.41678 0.0
O725 O 0.65831 0.22285 0.31326 0.0
H726 H 0.57485 0.20725 0.35337 0.0
H727 H 0.62121 0.18937 0.26746 0.0
H728 H 0.5883 0.37634 0.46416 0.0
H729 H 0.7511 0.32539 0.37539 0.0
H730 H 0.62601 0.42748 0.48589 0.0
H731 H 0.75911 0.31345 0.4358 0.0
O732 O 0.60744 0.32514 0.35786 0.0
H733 H 0.66184 0.2946 0.22013 0.0
H734 H 0.57611 0.24737 0.27442 0.0
H735 H 0.57107 0.26637 0.21667 0.0
H736 H 0.61414 0.29011 0.1891 0.0
H737 H 0.6659 0.27557 0.27799 0.0
H738 H 0.58922 0.1325 0.24965 0.0
H739 H 0.54929 0.11295 0.28411 0.0
O740 O 0.59102 0.26874 0.33646 0.0
C741 C 0.62811 0.2503 0.40085 0.0
C742 C 0.55945 0.15903 0.32103 0.0
C743 C 0.58588 0.14877 0.27241 0.0
N744 N 0.59976 0.2017 0.31128 0.0
C745 C 0.57796 0.19103 0.3305 0.0
C746 C 0.60396 0.18094 0.28267 0.0
C747 C 0.56347 0.13782 0.29175 0.0
C748 C 0.70627 0.32522 0.37814 0.0
N749 N 0.68404 0.32126 0.39807 0.0
C750 C 0.73359 0.32249 0.39136 0.0
C751 C 0.73806 0.31571 0.42524 0.0
C752 C 0.71529 0.31184 0.44545 0.0
C753 C 0.68827 0.31473 0.43136 0.0
C754 C 0.65645 0.41087 0.45307 0.0
C755 C 0.61472 0.35326 0.42953 0.0
C756 C 0.66117 0.38527 0.42759 0.0
N757 N 0.64045 0.35686 0.4162 0.0
C758 C 0.609 0.37882 0.4544 0.0
C759 C 0.63011 0.40763 0.46643 0.0
C760 C 0.58725 0.3004 0.34524 0.0
C761 C 0.64291 0.28422 0.23184 0.0
C762 C 0.59496 0.25779 0.26267 0.0
C763 C 0.59197 0.26843 0.22991 0.0
C764 C 0.61615 0.28173 0.21446 0.0
N765 N 0.6213 0.26021 0.27951 0.0
C766 C 0.64509 0.2733 0.26455 0.0
Co767 Co 0.60297 0.62647 0.29242 0.0
Co768 Co 0.65151 0.70396 0.31473 0.0
O769 O 0.63951 0.65688 0.28866 0.0
C770 C 0.64207 0.57491 0.30625 0.0
O771 O 0.65685 0.59755 0.33061 0.0
C772 C 0.66519 0.71372 0.24255 0.0
O773 O 0.64426 0.68808 0.23075 0.0
O774 O 0.61487 0.71919 0.29978 0.0
O775 O 0.58332 0.66835 0.29458 0.0
H776 H 0.63974 0.80727 0.3972 0.0
H777 H 0.63729 0.60957 0.23549 0.0
O778 O 0.62111 0.58324 0.28909 0.0
H779 H 0.54479 0.62414 0.18032 0.0
H780 H 0.52812 0.51689 0.26494 0.0
H781 H 0.55522 0.63216 0.33519 0.0
H782 H 0.55352 0.63029 0.24315 0.0
H783 H 0.57342 0.55568 0.2588 0.0
O784 O 0.66977 0.72346 0.27449 0.0
H785 H 0.62514 0.74855 0.36431 0.0
H786 H 0.70413 0.75876 0.32049 0.0
H787 H 0.50956 0.59432 0.34187 0.0
H788 H 0.62935 0.60231 0.17255 0.0
H789 H 0.49578 0.5362 0.3066 0.0
H790 H 0.58288 0.60989 0.14455 0.0
O791 O 0.60998 0.63159 0.34342 0.0
H792 H 0.73764 0.64723 0.29798 0.0
H793 H 0.68551 0.70794 0.38194 0.0
H794 H 0.72968 0.68781 0.40134 0.0
H795 H 0.75613 0.65729 0.3592 0.0
H796 H 0.69322 0.66747 0.27974 0.0
H797 H 0.71948 0.8177 0.35269 0.0
H798 H 0.68723 0.8423 0.39148 0.0
O799 O 0.63477 0.68653 0.3562 0.0
C800 C 0.58946 0.70191 0.29513 0.0
C801 C 0.65397 0.79687 0.38035 0.0
C802 C 0.69871 0.80274 0.35534 0.0
N803 N 0.66366 0.75026 0.34036 0.0
C804 C 0.64581 0.76363 0.36164 0.0
C805 C 0.68982 0.76939 0.33704 0.0
C806 C 0.68061 0.81651 0.37712 0.0
C807 C 0.61697 0.61272 0.22348 0.0
N808 N 0.59605 0.62106 0.24296 0.0
C809 C 0.61262 0.60866 0.18783 0.0
C810 C 0.58656 0.61297 0.17215 0.0
C811 C 0.56522 0.62107 0.19219 0.0
C812 C 0.57036 0.62495 0.22776 0.0
C813 C 0.53388 0.54217 0.28042 0.0
C814 C 0.54928 0.60701 0.31958 0.0
C815 C 0.55956 0.56422 0.27714 0.0
N816 N 0.56692 0.59628 0.29649 0.0
C817 C 0.52344 0.58565 0.32355 0.0
C818 C 0.51574 0.55303 0.3038 0.0
C819 C 0.62121 0.65793 0.36495 0.0
C820 C 0.72636 0.66061 0.31657 0.0
C821 C 0.69682 0.6946 0.36345 0.0
C822 C 0.72187 0.68332 0.37458 0.0
C823 C 0.73671 0.66622 0.35093 0.0
N824 N 0.68685 0.68914 0.32967 0.0
C825 C 0.70124 0.67227 0.30636 0.0
Co826 Co 0.41262 0.74339 0.38627 0.0
Co827 Co 0.37118 0.70594 0.3117 0.0
O828 O 0.37874 0.73915 0.35388 0.0
C829 C 0.36801 0.72618 0.43333 0.0
O830 O 0.35556 0.70004 0.41065 0.0
C831 C 0.35663 0.77519 0.2917 0.0
O832 O 0.36951 0.79221 0.32038 0.0
O833 O 0.41062 0.72084 0.29829 0.0
O834 O 0.43707 0.73968 0.34798 0.0
H835 H 0.39297 0.60986 0.22745 0.0
H836 H 0.37539 0.79729 0.39529 0.0
O837 O 0.38948 0.74742 0.42615 0.0
H838 H 0.46883 0.86399 0.37589 0.0
H839 H 0.47649 0.79323 0.4928 0.0
H840 H 0.46252 0.70694 0.3898 0.0
H841 H 0.46184 0.79922 0.37694 0.0
H842 H 0.43433 0.78843 0.45176 0.0
O843 O 0.35697 0.74232 0.28453 0.0
H844 H 0.40161 0.65202 0.2797 0.0
H845 H 0.32455 0.68896 0.25487 0.0
H846 H 0.50517 0.71116 0.42998 0.0
H847 H 0.38154 0.86218 0.3952 0.0
H848 H 0.51234 0.75452 0.48195 0.0
H849 H 0.4285 0.89595 0.3852 0.0
O850 O 0.40699 0.69087 0.38747 0.0
H851 H 0.27821 0.72489 0.35608 0.0
H852 H 0.33401 0.63593 0.31312 0.0
H853 H 0.28606 0.61625 0.33034 0.0
H854 H 0.25769 0.66088 0.35181 0.0
H855 H 0.32638 0.74335 0.33922 0.0
H856 H 0.31523 0.64743 0.2022 0.0
H857 H 0.34952 0.60739 0.18825 0.0
O858 O 0.38393 0.66796 0.33674 0.0
C859 C 0.43452 0.73193 0.3157 0.0
C860 C 0.37786 0.62715 0.23325 0.0
C861 C 0.33426 0.64828 0.21905 0.0
N862 N 0.36364 0.67295 0.27038 0.0
C863 C 0.38262 0.65105 0.26283 0.0
C864 C 0.33973 0.67186 0.24886 0.0
C865 C 0.35349 0.6258 0.21126 0.0
C866 C 0.39594 0.81184 0.39119 0.0
N867 N 0.41815 0.79442 0.3857 0.0
C868 C 0.39927 0.84856 0.39104 0.0
C869 C 0.4256 0.86748 0.38538 0.0
C870 C 0.44822 0.84956 0.38006 0.0
C871 C 0.44408 0.81282 0.38037 0.0
C872 C 0.47363 0.77427 0.47022 0.0
C873 C 0.46559 0.72605 0.41223 0.0
C874 C 0.44975 0.77136 0.44692 0.0
N875 N 0.44605 0.74758 0.41827 0.0
C876 C 0.48974 0.72824 0.43494 0.0
C877 C 0.49374 0.75255 0.46411 0.0
C878 C 0.39599 0.66458 0.36579 0.0
C879 C 0.29027 0.70518 0.34655 0.0
C880 C 0.32191 0.65556 0.32252 0.0
C881 C 0.2947 0.64423 0.33218 0.0
C882 C 0.2788 0.66928 0.34421 0.0
N883 N 0.33297 0.69085 0.32456 0.0
C884 C 0.31756 0.71552 0.33669 0.0
Co885 Co 0.40173 0.39562 0.3512 0.0
Co886 Co 0.36223 0.31098 0.34312 0.0
O887 O 0.36748 0.36123 0.33412 0.0
C888 C 0.38156 0.45766 0.38378 0.0
O889 O 0.39587 0.45237 0.41198 0.0
C890 C 0.34008 0.31109 0.26912 0.0
O891 O 0.35516 0.34259 0.26842 0.0
O892 O 0.4004 0.30543 0.32676 0.0
O893 O 0.42591 0.3588 0.34522 0.0
H894 H 0.39261 0.20463 0.38977 0.0
H895 H 0.36421 0.41635 0.29628 0.0
O896 O 0.37846 0.43442 0.3578 0.0
H897 H 0.45565 0.41323 0.24716 0.0
H898 H 0.46953 0.51197 0.35906 0.0
H899 H 0.45097 0.39431 0.40082 0.0
H900 H 0.44966 0.39918 0.30605 0.0
H901 H 0.42613 0.46954 0.33772 0.0
O902 O 0.34242 0.29467 0.29555 0.0
H903 H 0.39819 0.26713 0.37822 0.0
H904 H 0.31518 0.24876 0.32683 0.0
H905 H 0.49472 0.43592 0.42269 0.0
H906 H 0.36951 0.43151 0.23752 0.0
H907 H 0.50423 0.49524 0.40179 0.0
H908 H 0.41545 0.42979 0.21248 0.0
O909 O 0.39642 0.38361 0.3985 0.0
H910 H 0.26744 0.35173 0.339 0.0
H911 H 0.33213 0.28923 0.40337 0.0
H912 H 0.28623 0.29638 0.42505 0.0
H913 H 0.2534 0.32765 0.39266 0.0
H914 H 0.31373 0.34452 0.31859 0.0
H915 H 0.30884 0.18601 0.33754 0.0
H916 H 0.34768 0.16359 0.36935 0.0
O917 O 0.38019 0.32496 0.39136 0.0
C918 C 0.42418 0.32647 0.33368 0.0
C919 C 0.37551 0.2141 0.37594 0.0
C920 C 0.32852 0.20364 0.34658 0.0
N921 N 0.35701 0.26167 0.35199 0.0
C922 C 0.37852 0.24949 0.36939 0.0
C923 C 0.33228 0.23919 0.34047 0.0
C924 C 0.35031 0.19108 0.36445 0.0
C925 C 0.38439 0.41595 0.28577 0.0
N926 N 0.40655 0.40669 0.30466 0.0
C927 C 0.3872 0.42436 0.25238 0.0
C928 C 0.41295 0.42332 0.23832 0.0
C929 C 0.43549 0.41394 0.25773 0.0
C930 C 0.43189 0.40567 0.29102 0.0
C931 C 0.46565 0.48618 0.36832 0.0
C932 C 0.45492 0.42008 0.39161 0.0
C933 C 0.4411 0.462 0.35633 0.0
N934 N 0.43594 0.4294 0.36803 0.0
C935 C 0.47976 0.44353 0.40407 0.0
C936 C 0.48509 0.47679 0.39232 0.0
C937 C 0.38991 0.35388 0.41032 0.0
C938 C 0.28151 0.33792 0.35327 0.0
C939 C 0.31812 0.30308 0.38925 0.0
C940 C 0.29207 0.30694 0.40159 0.0
C941 C 0.27365 0.32445 0.3834 0.0
N942 N 0.32563 0.31614 0.35954 0.0
C943 C 0.30775 0.33359 0.34173 0.0
H944 H 0.31781 0.24255 0.24403 0.0
H945 H 0.30723 0.35063 0.23582 0.0
H946 H 0.26374 0.33025 0.19798 0.0
H947 H 0.22696 0.28137 0.16949 0.0
H948 H 0.24 0.17355 0.17296 0.0
H949 H 0.28405 0.19393 0.20989 0.0
C950 C 0.30616 0.26159 0.23354 0.0
C951 C 0.31579 0.29807 0.24281 0.0
C952 C 0.28144 0.24967 0.21096 0.0
C953 C 0.30049 0.32242 0.2289 0.0
C954 C 0.27546 0.31077 0.20739 0.0
C955 C 0.23968 0.26244 0.17801 0.0
C956 C 0.23015 0.22599 0.16853 0.0
C957 C 0.26549 0.27444 0.19856 0.0
C958 C 0.24694 0.20176 0.17963 0.0
C959 C 0.27208 0.2134 0.20095 0.0
H960 H 0.73911 0.24284 0.34959 0.0
H961 H 0.6776 0.17323 0.27796 0.0
H962 H 0.71578 0.14839 0.25188 0.0
H963 H 0.76683 0.14789 0.24798 0.0
H964 H 0.82835 0.22001 0.31751 0.0
H965 H 0.79007 0.24222 0.34582 0.0
C966 C 0.73403 0.222 0.32848 0.0
C967 C 0.70549 0.20984 0.31587 0.0
C968 C 0.75615 0.20832 0.31311 0.0
C969 C 0.69936 0.18313 0.28817 0.0
C970 C 0.7212 0.16889 0.27323 0.0
C971 C 0.77186 0.16822 0.26954 0.0
C972 C 0.80045 0.18214 0.28068 0.0
C973 C 0.7497 0.18146 0.28528 0.0
C974 C 0.80655 0.20884 0.30837 0.0
C975 C 0.78466 0.22158 0.3246 0.0
H976 H 0.76859 0.74224 0.15297 0.0
H977 H 0.77283 0.84836 0.2015 0.0
H978 H 0.72986 0.82927 0.22958 0.0
H979 H 0.69329 0.78113 0.24397 0.0
H980 H 0.68645 0.67621 0.19159 0.0
H981 H 0.72791 0.69601 0.16106 0.0
C982 C 0.75977 0.76122 0.16928 0.0
C983 C 0.77388 0.79658 0.17536 0.0
C984 C 0.73466 0.75022 0.1847 0.0
C985 C 0.76223 0.82105 0.19631 0.0
C986 C 0.73776 0.81009 0.21253 0.0
C987 C 0.70061 0.76284 0.22537 0.0
C988 C 0.68696 0.72727 0.22007 0.0
C989 C 0.72411 0.7746 0.20742 0.0
C990 C 0.6965 0.70379 0.19587 0.0
C991 C 0.72033 0.71504 0.17861 0.0
H992 H 0.31498 0.80463 0.31844 0.0
H993 H 0.34775 0.77626 0.2228 0.0
H994 H 0.30631 0.79217 0.19137 0.0
H995 H 0.25859 0.80942 0.19142 0.0
H996 H 0.22359 0.82918 0.28763 0.0
H997 H 0.2678 0.82139 0.31859 0.0
C998 C 0.31332 0.80283 0.29073 0.0
C999 C 0.33457 0.79023 0.27285 0.0
C1000 C 0.28874 0.80995 0.27301 0.0
C1001 C 0.3318 0.78661 0.23697 0.0
C1002 C 0.30803 0.79541 0.21907 0.0
C1003 C 0.26089 0.81233 0.21914 0.0
C1004 C 0.23801 0.81994 0.23729 0.0
C1005 C 0.28604 0.80639 0.23682 0.0
C1006 C 0.24094 0.82317 0.27318 0.0
C1007 C 0.26621 0.81882 0.29089 0.0
H1008 H 0.27016 0.65172 0.75312 0.0
H1009 H 0.3327 0.73305 0.81129 0.0
H1010 H 0.29497 0.75866 0.8377 0.0
H1011 H 0.24388 0.75847 0.84374 0.0
H1012 H 0.1817 0.67837 0.7833 0.0
H1013 H 0.21949 0.65194 0.75853 0.0
C1014 C 0.27558 0.67494 0.77172 0.0
C1015 C 0.30427 0.69028 0.7803 0.0
C1016 C 0.25375 0.68988 0.78642 0.0
C1017 C 0.31081 0.72065 0.80416 0.0
C1018 C 0.28922 0.73533 0.81933 0.0
C1019 C 0.23863 0.73515 0.82527 0.0
C1020 C 0.20992 0.72048 0.8155 0.0
C1021 C 0.26057 0.72024 0.8106 0.0
C1022 C 0.20354 0.6904 0.79125 0.0
C1023 C 0.22517 0.67515 0.77706 0.0
H1024 H 0.20098 0.18769 0.70861 0.0
H1025 H 0.1809 0.28539 0.75546 0.0
H1026 H 0.22121 0.31901 0.73144 0.0
H1027 H 0.2646 0.32038 0.70117 0.0
H1028 H 0.28672 0.2222 0.6584 0.0
H1029 H 0.24328 0.18923 0.67648 0.0
C1030 C 0.20509 0.21638 0.71303 0.0
C1031 C 0.18778 0.23396 0.73368 0.0
C1032 C 0.22892 0.23552 0.70006 0.0
C1033 C 0.1938 0.27115 0.73962 0.0
C1034 C 0.21693 0.29042 0.72596 0.0
C1035 C 0.25967 0.29183 0.69528 0.0
C1036 C 0.27891 0.27385 0.67831 0.0
C1037 C 0.235 0.27286 0.70671 0.0
C1038 C 0.27235 0.23675 0.67142 0.0
C1039 C 0.24749 0.21784 0.68181 0.0
H1040 H 0.8295 0.27419 0.73019 0.0
H1041 H 0.82624 0.32033 0.83343 0.0
H1042 H 0.78252 0.34176 0.81631 0.0
H1043 H 0.74296 0.34325 0.77267 0.0
H1044 H 0.74865 0.30228 0.66841 0.0
H1045 H 0.79355 0.28307 0.68501 0.0
C1046 C 0.8195 0.28959 0.74872 0.0
C1047 C 0.83109 0.29568 0.78301 0.0
C1048 C 0.79461 0.30243 0.73855 0.0
C1049 C 0.81794 0.31564 0.80681 0.0
C1050 C 0.79277 0.32762 0.7971 0.0
C1051 C 0.75432 0.33054 0.75361 0.0
C1052 C 0.74255 0.32394 0.71944 0.0
C1053 C 0.78058 0.32055 0.76319 0.0
C1054 C 0.75744 0.30772 0.69484 0.0
C1055 C 0.78303 0.29663 0.70435 0.0
H1056 H 0.82058 0.7502 0.74187 0.0
H1057 H 0.80644 0.85482 0.72327 0.0
H1058 H 0.76403 0.82926 0.68508 0.0
H1059 H 0.72886 0.777 0.66011 0.0
H1060 H 0.74529 0.67235 0.67469 0.0
H1061 H 0.7888 0.69789 0.71099 0.0
C1062 C 0.80846 0.76734 0.72897 0.0
C1063 C 0.81665 0.80437 0.73546 0.0
C1064 C 0.78434 0.75241 0.70648 0.0
C1065 C 0.80078 0.82625 0.7185 0.0
C1066 C 0.77637 0.81164 0.69684 0.0
C1067 C 0.74221 0.75986 0.6709 0.0
C1068 C 0.7338 0.72284 0.66487 0.0
C1069 C 0.76764 0.77476 0.6911 0.0
C1070 C 0.75138 0.70091 0.67878 0.0
C1071 C 0.7762 0.71551 0.6997 0.0
H1072 H 0.12911 0.21275 0.92389 0.0
H1073 H 0.09274 0.10165 0.90346 0.0
H1074 H 0.09558 0.09621 0.96466 0.0
H1075 H 0.11036 0.12189 0.02354 0.0
H1076 H 0.14744 0.23266 0.04464 0.0
H1077 H 0.14263 0.23903 0.98342 0.0
C1078 C 0.12167 0.1873 0.93269 0.0
C1079 C 0.1109 0.15757 0.90873 0.0
C1080 C 0.12378 0.18416 0.96805 0.0
C1081 C 0.10115 0.12501 0.92101 0.0
C1082 C 0.10289 0.12181 0.9561 0.0
C1083 C 0.11745 0.14755 0.01497 0.0
C1084 C 0.12951 0.17672 0.03897 0.0
C1085 C 0.11456 0.15105 0.97979 0.0
C1086 C 0.13827 0.20968 0.02696 0.0
C1087 C 0.13545 0.21336 0.9919 0.0
H1088 H 0.8677 0.24882 0.983 0.0
H1089 H 0.8223 0.14436 0.94528 0.0
H1090 H 0.81786 0.1302 0.00399 0.0
H1091 H 0.83287 0.14458 0.06523 0.0
H1092 H 0.88119 0.24774 0.10229 0.0
H1093 H 0.87855 0.26524 0.04442 0.0
C1094 C 0.85644 0.22308 0.98752 0.0
C1095 C 0.84579 0.19745 0.95972 0.0
C1096 C 0.85491 0.21471 0.0212 0.0
C1097 C 0.83083 0.16453 0.96614 0.0
C1098 C 0.82849 0.15632 0.99973 0.0
C1099 C 0.84252 0.17109 0.0608 0.0
C1100 C 0.85762 0.19464 0.08803 0.0
C1101 C 0.84143 0.18073 0.02736 0.0
C1102 C 0.86972 0.22896 0.08179 0.0
C1103 C 0.86823 0.23899 0.04869 0.0
H1104 H 0.86199 0.81215 0.94108 0.0
H1105 H 0.91771 0.91369 0.95407 0.0
H1106 H 0.91628 0.91584 0.01597 0.0
H1107 H 0.89905 0.88921 0.06629 0.0
H1108 H 0.84258 0.7882 0.05303 0.0
H1109 H 0.84427 0.78594 0.99121 0.0
C1110 C 0.8738 0.83488 0.9573 0.0
C1111 C 0.88984 0.8628 0.94268 0.0
C1112 C 0.87263 0.83618 0.99287 0.0
C1113 C 0.90513 0.89182 0.96443 0.0
C1114 C 0.90429 0.89312 0.99989 0.0
C1115 C 0.88697 0.8667 0.04996 0.0
C1116 C 0.87064 0.83895 0.0645 0.0
C1117 C 0.88803 0.86551 0.01437 0.0
C1118 C 0.85523 0.81004 0.04272 0.0
C1119 C 0.85625 0.80865 0.00731 0.0
H1120 H 0.16355 0.73454 0.05103 0.0
H1121 H 0.07992 0.75883 0.06326 0.0
H1122 H 0.068 0.74853 1.00159 0.0
H1123 H 0.08494 0.74552 0.94462 0.0
H1124 H 0.16906 0.72392 0.93109 0.0
H1125 H 0.17723 0.71958 0.99254 0.0
C1126 C 0.14233 0.73585 0.04016 0.0
C1127 C 0.12252 0.74718 0.06145 0.0
C1128 C 0.13598 0.73113 0.00438 0.0
C1129 C 0.09532 0.74979 0.04721 0.0
C1130 C 0.08861 0.7443 0.01195 0.0
C1131 C 0.10462 0.7385 0.95504 0.0
C1132 C 0.12639 0.73509 0.93365 0.0
C1133 C 0.10928 0.73685 0.99029 0.0
C1134 C 0.15191 0.72622 0.94717 0.0
C1135 C 0.15668 0.72419 0.98235 0.0
H1136 H 0.05228 0.20532 0.16756 0.0
H1137 H 0.03985 0.09718 0.12116 0.0
H1138 H 0.98925 0.09033 0.12898 0.0
H1139 H 0.94859 0.11412 0.15145 0.0
H1140 H 0.96211 0.2205 0.20222 0.0
H1141 H 0.01194 0.22885 0.19046 0.0
C1142 C 0.03856 0.1803 0.15903 0.0
C1143 C 0.0501 0.15186 0.14386 0.0
C1144 C 0.00951 0.17611 0.16459 0.0
C1145 C 0.03175 0.11958 0.13304 0.0
C1146 C 1.00272 0.11558 0.13751 0.0
C1147 C 0.96241 0.1392 0.15968 0.0
C1148 C 0.95154 0.16665 0.17769 0.0
C1149 C 0.99138 0.14353 0.15362 0.0
C1150 C 0.96987 0.19884 0.18854 0.0
C1151 C 0.99842 0.20369 0.18173 0.0
H1152 H 0.86808 0.94668 0.25673 0.0
H1153 H 0.95913 0.97731 0.26021 0.0
H1154 H 0.95448 0.03955 0.26944 0.0
H1155 H 0.92392 0.08443 0.26101 0.0
H1156 H 0.83298 0.05273 0.25026 0.0
H1157 H 0.838 0.99204 0.25944 0.0
C1158 C 0.887 0.96689 0.26067 0.0
C1159 C 0.91382 0.95732 0.25664 0.0
C1160 C 0.88405 0.00268 0.26393 0.0
C1161 C 0.93815 0.98382 0.26265 0.0
C1162 C 0.93549 0.01956 0.26751 0.0
C1163 C 0.90531 0.06448 0.26239 0.0
C1164 C 0.87814 0.07275 0.25541 0.0
C1165 C 0.90846 0.02928 0.2659 0.0
C1166 C 0.85404 0.04677 0.25613 0.0
C1167 C 0.85694 0.01206 0.26102 0.0
H1168 H 0.97061 0.85432 0.21456 0.0
H1169 H 0.9453 0.78928 0.1187 0.0
H1170 H 0.99455 0.78128 0.11345 0.0
H1171 H 0.0453 0.79494 0.13518 0.0
H1172 H 0.06962 0.85643 0.23311 0.0
H1173 H 0.02038 0.86359 0.23858 0.0
C1174 C 0.97591 0.83824 0.19263 0.0
C1175 C 0.95448 0.82264 0.16694 0.0
C1176 C 1.0041 0.83319 0.19014 0.0
C1177 C 0.96147 0.80147 0.13887 0.0
C1178 C 0.98963 0.79702 0.13578 0.0
C1179 C 0.03969 0.80968 0.15777 0.0
C1180 C 0.06102 0.82521 0.18366 0.0
C1181 C 0.01118 0.81308 0.16109 0.0
C1182 C 0.05354 0.84399 0.21297 0.0
C1183 C 0.02541 0.84826 0.21604 0.0
H1184 H 0.1641 0.04916 0.18947 0.0
H1185 H 0.07698 0.02436 0.21341 0.0
H1186 H 0.08559 0.96773 0.23123 0.0
H1187 H 0.11465 0.92074 0.22773 0.0
H1188 H 0.19964 0.94311 0.19723 0.0
H1189 H 0.19549 0.00546 0.19499 0.0
C1190 C 0.14718 0.03189 0.19952 0.0
C1191 C 0.11975 0.0407 0.19944 0.0
C1192 C 0.15196 0.99874 0.20836 0.0
C1193 C 0.09817 0.01802 0.21273 0.0
C1194 C 0.10305 0.98555 0.22282 0.0
C1195 C 0.13268 0.93981 0.22232 0.0
C1196 C 0.1576 0.92791 0.21334 0.0
C1197 C 0.12942 0.97493 0.21907 0.0
C1198 C 0.18058 0.95217 0.20505 0.0
C1199 C 0.17799 0.98761 0.20325 0.0
H1200 H 0.96123 0.82625 0.78894 0.0
H1201 H 0.93252 0.76284 0.86781 0.0
H1202 H 0.97874 0.74307 0.87371 0.0
H1203 H 0.03 0.75232 0.86291 0.0
H1204 H 0.05904 0.82271 0.78921 0.0
H1205 H 0.01045 0.83196 0.77507 0.0
C1206 C 0.96502 0.8077 0.80703 0.0
C1207 C 0.94372 0.79618 0.82803 0.0
C1208 C 0.99203 0.7984 0.81165 0.0
C1209 C 0.94853 0.77164 0.85102 0.0
C1210 C 0.97512 0.76084 0.85475 0.0
C1211 C 0.02541 0.76906 0.84332 0.0
C1212 C 0.04786 0.78696 0.8271 0.0
C1213 C 0.99744 0.77529 0.83624 0.0
C1214 C 0.04198 0.80892 0.80204 0.0
C1215 C 0.01425 0.81415 0.79395 0.0
H1216 H 0.16517 0.93037 0.86447 0.0
H1217 H 0.12082 0.89879 0.76424 0.0
H1218 H 0.12194 0.9609 0.75529 0.0
H1219 H 0.13086 0.02353 0.77823 0.0
H1220 H 0.17354 0.05516 0.87929 0.0
H1221 H 0.17807 0.99363 0.88532 0.0
C1222 C 0.15607 0.93699 0.84044 0.0
C1223 C 0.14261 0.90977 0.81522 0.0
C1224 C 0.15634 0.97279 0.83568 0.0
C1225 C 0.13119 0.91904 0.78417 0.0
C1226 C 0.13173 0.9546 0.77907 0.0
C1227 C 0.14149 0.01713 0.80146 0.0
C1228 C 0.15153 0.044 0.82846 0.0
C1229 C 0.14352 0.98162 0.80502 0.0
C1230 C 0.16555 0.03512 0.85814 0.0
C1231 C 0.168 0.99986 0.86168 0.0
H1232 H 0.0617 0.25063 0.82254 0.0
H1233 H 0.03602 0.1623 0.74502 0.0
H1234 H 0.98743 0.17362 0.74164 0.0
H1235 H 0.95066 0.20186 0.76814 0.0
H1236 H 0.9759 0.28887 0.84721 0.0
H1237 H 0.02582 0.28564 0.84188 0.0
C1238 C 0.04566 0.23457 0.80421 0.0
C1239 C 0.05242 0.20508 0.78468 0.0
C1240 C 0.01738 0.24085 0.80289 0.0
C1241 C 0.03129 0.18452 0.76106 0.0
C1242 C 1.00341 0.19106 0.75901 0.0
C1243 C 0.96707 0.22094 0.78329 0.0
C1244 C 0.95942 0.24521 0.80838 0.0
C1245 C 0.99589 0.21814 0.78092 0.0
C1246 C 0.98111 0.26962 0.82796 0.0
C1247 C 0.00976 0.26765 0.82509 0.0
H1248 H 0.91999 0.0066 0.86998 0.0
H1249 H 0.82894 0.97955 0.84906 0.0
H1250 H 0.82593 0.04233 0.8468 0.0
H1251 H 0.84963 0.10455 0.84838 0.0
H1252 H 0.94025 0.13177 0.87241 0.0
H1253 H 0.94317 0.06907 0.87599 0.0
C1254 C 0.89946 0.01445 0.86502 0.0
C1255 C 0.87471 0.98847 0.85928 0.0
C1256 C 0.89793 0.05049 0.86424 0.0
C1257 C 0.84823 0.99906 0.85354 0.0
C1258 C 0.84656 0.0349 0.85211 0.0
C1259 C 0.86996 0.09661 0.8544 0.0
C1260 C 0.89478 0.12236 0.85966 0.0
C1261 C 0.8713 0.06075 0.857 0.0
C1262 C 0.92097 0.11219 0.86823 0.0
C1263 C 0.9226 0.07644 0.87017 0.0
H1264 H 0.64445 0.70735 0.41806 0.0
H1265 H 0.59394 0.60272 0.39614 0.0
H1266 H 0.59278 0.59789 0.45737 0.0
H1267 H 0.60703 0.62263 0.51693 0.0
H1268 H 0.65877 0.72652 0.53868 0.0
H1269 H 0.65835 0.73226 0.47751 0.0
C1270 C 0.63315 0.68339 0.42649 0.0
C1271 C 0.61943 0.65532 0.40222 0.0
C1272 C 0.63281 0.68061 0.46175 0.0
C1273 C 0.60477 0.62471 0.41401 0.0
C1274 C 0.60412 0.62191 0.44909 0.0
C1275 C 0.61831 0.64658 0.50845 0.0
C1276 C 0.63313 0.67401 0.53265 0.0
C1277 C 0.61824 0.64958 0.47318 0.0
C1278 C 0.6473 0.7049 0.52085 0.0
C1279 C 0.64708 0.7082 0.4858 0.0
H1280 H 0.37952 0.73573 0.59307 0.0
H1281 H 0.32817 0.6317 0.5708 0.0
H1282 H 0.32162 0.64072 0.51074 0.0
H1283 H 0.3358 0.67464 0.46338 0.0
H1284 H 0.38774 0.77827 0.48534 0.0
H1285 H 0.38814 0.77311 0.54643 0.0
C1286 C 0.36652 0.71526 0.57519 0.0
C1287 C 0.35489 0.68285 0.58643 0.0
C1288 C 0.363 0.72042 0.54043 0.0
C1289 C 0.33777 0.65679 0.5629 0.0
C1290 C 0.33398 0.66186 0.52843 0.0
C1291 C 0.34661 0.69647 0.48151 0.0
C1292 C 0.36213 0.72648 0.4697 0.0
C1293 C 0.34728 0.69308 0.51671 0.0
C1294 C 0.37592 0.7546 0.49366 0.0
C1295 C 0.37628 0.75165 0.52868 0.0
H1296 H 0.36935 0.29994 0.4473 0.0
H1297 H 0.41759 0.40613 0.45876 0.0
H1298 H 0.42009 0.40681 0.52074 0.0
H1299 H 0.4072 0.37847 0.57164 0.0
H1300 H 0.35634 0.27382 0.56071 0.0
H1301 H 0.35633 0.27146 0.49856 0.0
C1302 C 0.38036 0.3233 0.46324 0.0
C1303 C 0.39293 0.35311 0.44808 0.0
C1304 C 0.38119 0.32389 0.49905 0.0
C1305 C 0.40744 0.3829 0.46947 0.0
C1306 C 0.40891 0.38334 0.50502 0.0
C1307 C 0.39595 0.35512 0.55582 0.0
C1308 C 0.3815 0.32653 0.57109 0.0
C1309 C 0.39555 0.35419 0.52008 0.0
C1310 C 0.36747 0.29637 0.54985 0.0
C1311 C 0.36746 0.29498 0.51424 0.0
H1312 H 0.66899 0.23171 0.44252 0.0
H1313 H 0.57945 0.23519 0.43055 0.0
H1314 H 0.57596 0.2292 0.49131 0.0
H1315 H 0.60046 0.23645 0.54882 0.0
H1316 H 0.6906 0.23692 0.56194 0.0
H1317 H 0.69191 0.22693 0.49983 0.0
C1318 C 0.64854 0.22934 0.45306 0.0
C1319 C 0.62438 0.23332 0.43231 0.0
C1320 C 0.64701 0.22727 0.48831 0.0
C1321 C 0.5981 0.23145 0.44612 0.0
C1322 C 0.59622 0.22849 0.48089 0.0
C1323 C 0.62015 0.23287 0.53805 0.0
C1324 C 0.6454 0.2375 0.55972 0.0
C1325 C 0.6208 0.22828 0.50245 0.0
C1326 C 0.67087 0.23307 0.5457 0.0
C1327 C 0.67165 0.22785 0.51017 0.0
H1328 H 0.5539 0.63604 0.68926 0.0
H1329 H 0.54606 0.68426 0.59568 0.0
H1330 H 0.49587 0.68655 0.60302 0.0
H1331 H 0.45394 0.67445 0.63642 0.0
H1332 H 0.46395 0.63226 0.7331 0.0
H1333 H 0.51334 0.62799 0.72442 0.0
C1334 C 0.54109 0.64695 0.6705 0.0
C1335 C 0.55339 0.65955 0.64178 0.0
C1336 C 0.51264 0.6493 0.67555 0.0
C1337 C 0.5369 0.67432 0.61793 0.0
C1338 C 0.50824 0.67558 0.62212 0.0
C1339 C 0.46704 0.66439 0.65549 0.0
C1340 C 0.45535 0.65351 0.68527 0.0
C1341 C 0.49582 0.66309 0.65083 0.0
C1342 C 0.47255 0.64091 0.71006 0.0
C1343 C 0.50077 0.63836 0.70506 0.0
H1344 H 0.33814 0.54982 0.75908 0.0
H1345 H 0.42852 0.58511 0.76346 0.0
H1346 H 0.43698 0.52589 0.77366 0.0
H1347 H 0.41815 0.46227 0.76731 0.0
H1348 H 0.32769 0.42609 0.75995 0.0
H1349 H 0.3196 0.48735 0.7663 0.0
C1350 C 0.35962 0.54476 0.76398 0.0
C1351 C 0.38274 0.57151 0.76092 0.0
C1352 C 0.36423 0.51035 0.76888 0.0
C1353 C 0.41054 0.56485 0.76636 0.0
C1354 C 0.41533 0.53093 0.7718 0.0
C1355 C 0.39676 0.4679 0.76883 0.0
C1356 C 0.37356 0.43989 0.76291 0.0
C1357 C 0.3923 0.50313 0.77121 0.0
C1358 C 0.3459 0.44725 0.76472 0.0
C1359 C 0.34125 0.48233 0.76776 0.0
H1360 H 0.56383 0.3424 0.71826 0.0
H1361 H 0.54916 0.25283 0.64098 0.0
H1362 H 0.4979 0.25227 0.6389 0.0
H1363 H 0.45765 0.28051 0.65541 0.0
H1364 H 0.47298 0.37318 0.72934 0.0
H1365 H 0.52336 0.36922 0.73639 0.0
C1366 C 0.54932 0.32225 0.7016 0.0
C1367 C 0.56019 0.29744 0.68008 0.0
C1368 C 0.51997 0.32298 0.69956 0.0
C1369 C 0.54123 0.27205 0.65793 0.0
C1370 C 0.51195 0.27185 0.65661 0.0
C1371 C 0.47195 0.29959 0.67337 0.0
C1372 C 0.46149 0.32716 0.69171 0.0
C1373 C 0.50111 0.29769 0.67673 0.0
C1374 C 0.48042 0.3518 0.71469 0.0
C1375 C 0.50928 0.34955 0.71881 0.0
H1376 H 0.60186 0.52879 0.68579 0.0
H1377 H 0.69013 0.56788 0.71834 0.0
H1378 H 0.69741 0.50774 0.72769 0.0
H1379 H 0.68001 0.4426 0.71685 0.0
H1380 H 0.59168 0.40526 0.68243 0.0
H1381 H 0.58299 0.46588 0.68393 0.0
C1382 C 0.6225 0.52425 0.6959 0.0
C1383 C 0.64543 0.55252 0.70118 0.0
C1384 C 0.6266 0.4897 0.70035 0.0
C1385 C 0.67208 0.54648 0.71434 0.0
C1386 C 0.67631 0.51201 0.71928 0.0
C1387 C 0.65878 0.44791 0.71067 0.0
C1388 C 0.63662 0.41964 0.69897 0.0
C1389 C 0.65397 0.48317 0.71097 0.0
C1390 C 0.60917 0.4267 0.6909 0.0
C1391 C 0.60415 0.46134 0.69176 0.0
H1392 H 0.47618 0.36719 0.34062 0.0
H1393 H 0.43529 0.25785 0.32008 0.0
H1394 H 0.48229 0.23966 0.32044 0.0
H1395 H 0.53544 0.2555 0.32964 0.0
H1396 H 0.57346 0.36611 0.3514 0.0
H1397 H 0.52689 0.38285 0.34744 0.0
C1398 C 0.47713 0.33925 0.33578 0.0
C1399 C 0.45191 0.31399 0.33023 0.0
C1400 C 0.5039 0.32916 0.33653 0.0
C1401 C 0.4542 0.27798 0.32423 0.0
C1402 C 0.48112 0.26759 0.32463 0.0
C1403 C 0.53349 0.28325 0.33332 0.0
C1404 C 0.55818 0.30942 0.34111 0.0
C1405 C 0.50621 0.29301 0.33122 0.0
C1406 C 0.55511 0.34525 0.34573 0.0
C1407 C 0.52839 0.35498 0.34339 0.0
H1408 H 0.63105 0.40976 0.27653 0.0
H1409 H 0.69098 0.42636 0.36611 0.0
H1410 H 0.69527 0.49027 0.36591 0.0
H1411 H 0.67726 0.54144 0.34477 0.0
H1412 H 0.61727 0.52434 0.25517 0.0
H1413 H 0.61807 0.46112 0.25089 0.0
C1414 C 0.64551 0.4273 0.29559 0.0
C1415 C 0.66021 0.41311 0.32162 0.0
C1416 C 0.64764 0.46419 0.29567 0.0
C1417 C 0.67905 0.43641 0.34596 0.0
C1418 C 0.68148 0.47309 0.34598 0.0
C1419 C 0.66476 0.52398 0.32397 0.0
C1420 C 0.6468 0.53769 0.30084 0.0
C1421 C 0.66511 0.4873 0.32168 0.0
C1422 C 0.63093 0.51459 0.27382 0.0
C1423 C 0.63135 0.47829 0.27126 0.0
H1424 H 0.5402 0.68401 0.25421 0.0
H1425 H 0.58358 0.76247 0.33404 0.0
H1426 H 0.53881 0.78287 0.34403 0.0
H1427 H 0.48661 0.7708 0.33693 0.0
H1428 H 0.44307 0.69155 0.25759 0.0
H1429 H 0.48873 0.67926 0.24016 0.0
C1430 C 0.53995 0.70597 0.27335 0.0
C1431 C 0.56506 0.72108 0.29396 0.0
C1432 C 0.51406 0.7171 0.27925 0.0
C1433 C 0.56458 0.75024 0.31799 0.0
C1434 C 0.5389 0.7617 0.32389 0.0
C1435 C 0.48704 0.75142 0.3153 0.0
C1436 C 0.46135 0.73158 0.2991 0.0
C1437 C 0.51336 0.74418 0.30575 0.0
C1438 C 0.46241 0.70703 0.2707 0.0
C1439 C 0.48856 0.69982 0.26087 0.0
H1440 H 0.4021 0.51863 0.4253 0.0
H1441 H 0.35285 0.47905 0.32932 0.0
H1442 H 0.35352 0.53956 0.31535 0.0
H1443 H 0.37058 0.60297 0.32847 0.0
H1444 H 0.41966 0.64338 0.42437 0.0
H1445 H 0.41704 0.58295 0.43989 0.0
C1446 C 0.39101 0.52318 0.4016 0.0
C1447 C 0.37739 0.49418 0.37842 0.0
C1448 C 0.39197 0.5581 0.39337 0.0
C1449 C 0.36342 0.50075 0.3477 0.0
C1450 C 0.36398 0.53538 0.33955 0.0
C1451 C 0.38062 0.59883 0.35291 0.0
C1452 C 0.39536 0.62794 0.37516 0.0
C1453 C 0.37869 0.56416 0.36187 0.0
C1454 C 0.40829 0.62162 0.40662 0.0
C1455 C 0.40668 0.58704 0.4156 0.0
loop_
_geom_bond_atom_site_label_1
_geom_bond_atom_site_label_2
_geom_bond_distance
_geom_bond_site_symmetry_2
_ccdc_geom_bond_type
Co0 O2 2.143 . S
Co0 O8 2.074 . S
Co0 O11 2.093 . S
Co0 O24 2.097 . S
Co0 N41 2.151 . S
Co0 N49 2.214 . S
Co1 O2 2.160 . S
Co1 O7 2.058 . S
Co1 O17 2.057 . S
Co1 O32 2.037 . S
Co1 N36 2.145 . S
Co1 N57 2.257 . S
O2 Co0 2.143 . S
O2 Co1 2.160 . S
C3 O4 1.278 . S
C3 O11 1.224 . S
O4 C3 1.278 . S
C5 O6 1.245 . S
C5 O17 1.232 . S
O6 C5 1.245 . S
O7 Co1 2.058 . S
O7 C33 1.269 . S
O8 Co0 2.074 . S
O8 C33 1.257 . S
H9 C34 0.930 . S
H10 C40 0.930 . S
O11 Co0 2.093 . S
O11 C3 1.224 . S
H12 C44 0.929 . S
H13 C46 0.930 . S
H14 C47 0.930 . S
H15 C45 0.929 . S
H16 C48 0.928 . S
O17 Co1 2.057 . S
O17 C5 1.232 . S
H18 C37 0.929 . S
H19 C38 0.929 . S
H20 C50 0.931 . S
H21 C42 0.929 . S
H22 C51 0.930 . S
H23 C43 0.931 . S
O24 Co0 2.097 . S
O24 C52 1.214 . S
H25 C53 0.929 . S
H26 C54 0.929 . S
H27 C55 0.930 . S
H28 C56 0.929 . S
H29 C58 0.930 . S
H30 C35 0.930 . S
H31 C39 0.930 . S
O32 Co1 2.037 . S
O32 C52 1.234 . S
C33 O7 1.269 . S
C33 O8 1.257 . S
C34 H9 0.930 . S
C34 C37 1.388 . S
C34 C39 1.418 . S
C35 H30 0.930 . S
C35 C38 1.404 . S
C35 C39 1.353 . S
N36 Co1 2.145 . S
N36 C37 1.397 . S
N36 C38 1.334 . S
C37 H18 0.929 . S
C37 C34 1.388 . S
C37 N36 1.397 . S
C38 H19 0.929 . S
C38 C35 1.404 . S
C38 N36 1.334 . S
C39 H31 0.930 . S
C39 C34 1.418 . S
C39 C35 1.353 . S
C40 H10 0.930 . S
C40 N41 1.330 . S
C40 C42 1.446 . S
N41 Co0 2.151 . S
N41 C40 1.330 . S
N41 C45 1.418 . S
C42 H21 0.929 . S
C42 C40 1.446 . S
C42 C43 1.332 . S
C43 H23 0.931 . S
C43 C42 1.332 . S
C43 C44 1.267 . S
C44 H12 0.929 . S
C44 C43 1.267 . S
C44 C45 1.251 . S
C45 H15 0.929 . S
C45 N41 1.418 . S
C45 C44 1.251 . S
C46 H13 0.930 . S
C46 C48 1.406 . S
C46 C51 1.261 . S
C47 H14 0.930 . S
C47 N49 1.325 . S
C47 C50 1.357 . S
C48 H16 0.928 . S
C48 C46 1.406 . S
C48 N49 1.261 . S
N49 Co0 2.214 . S
N49 C47 1.325 . S
N49 C48 1.261 . S
C50 H20 0.931 . S
C50 C47 1.357 . S
C50 C51 1.312 . S
C51 H22 0.930 . S
C51 C46 1.261 . S
C51 C50 1.312 . S
C52 O24 1.214 . S
C52 O32 1.234 . S
C53 H25 0.929 . S
C53 C56 1.391 . S
C53 C58 1.391 . S
C54 H26 0.929 . S
C54 C55 1.390 . S
C54 N57 1.391 . S
C55 H27 0.930 . S
C55 C54 1.390 . S
C55 C56 1.392 . S
C56 H28 0.929 . S
C56 C53 1.391 . S
C56 C55 1.392 . S
N57 Co1 2.257 . S
N57 C54 1.391 . S
N57 C58 1.388 . S
C58 H29 0.930 . S
C58 C53 1.391 . S
C58 N57 1.388 . S
Co59 O61 2.143 . S
Co59 O67 2.074 . S
Co59 O70 2.093 . S
Co59 O83 2.097 . S
Co59 N100 2.151 . S
Co59 N108 2.214 . S
Co60 O61 2.160 . S
Co60 O66 2.058 . S
Co60 O76 2.057 . S
Co60 O91 2.037 . S
Co60 N95 2.145 . S
Co60 N116 2.257 . S
O61 Co59 2.143 . S
O61 Co60 2.160 . S
C62 O63 1.278 . S
C62 O70 1.224 . S
O63 C62 1.278 . S
C64 O65 1.245 . S
C64 O76 1.232 . S
O65 C64 1.245 . S
O66 Co60 2.058 . S
O66 C92 1.269 . S
O67 Co59 2.074 . S
O67 C92 1.257 . S
H68 C93 0.930 . S
H69 C99 0.930 . S
O70 Co59 2.093 . S
O70 C62 1.224 . S
H71 C103 0.929 . S
H72 C105 0.930 . S
H73 C106 0.930 . S
H74 C104 0.929 . S
H75 C107 0.928 . S
O76 Co60 2.057 . S
O76 C64 1.232 . S
H77 C96 0.929 . S
H78 C97 0.929 . S
H79 C109 0.931 . S
H80 C101 0.929 . S
H81 C110 0.930 . S
H82 C102 0.931 . S
O83 Co59 2.097 . S
O83 C111 1.214 . S
H84 C112 0.929 . S
H85 C113 0.929 . S
H86 C114 0.930 . S
H87 C115 0.929 . S
H88 C117 0.930 . S
H89 C94 0.930 . S
H90 C98 0.930 . S
O91 Co60 2.037 . S
O91 C111 1.234 . S
C92 O66 1.269 . S
C92 O67 1.257 . S
C93 H68 0.930 . S
C93 C96 1.388 . S
C93 C98 1.418 . S
C94 H89 0.930 . S
C94 C97 1.404 . S
C94 C98 1.353 . S
N95 Co60 2.145 . S
N95 C96 1.397 . S
N95 C97 1.334 . S
C96 H77 0.929 . S
C96 C93 1.388 . S
C96 N95 1.397 . S
C97 H78 0.929 . S
C97 C94 1.404 . S
C97 N95 1.334 . S
C98 H90 0.930 . S
C98 C93 1.418 . S
C98 C94 1.353 . S
C99 H69 0.930 . S
C99 N100 1.330 . S
C99 C101 1.446 . S
N100 Co59 2.151 . S
N100 C99 1.330 . S
N100 C104 1.418 . S
C101 H80 0.929 . S
C101 C99 1.446 . S
C101 C102 1.332 . S
C102 H82 0.931 . S
C102 C101 1.332 . S
C102 C103 1.267 . S
C103 H71 0.929 . S
C103 C102 1.267 . S
C103 C104 1.251 . S
C104 H74 0.929 . S
C104 N100 1.418 . S
C104 C103 1.251 . S
C105 H72 0.930 . S
C105 C107 1.406 . S
C105 C110 1.261 . S
C106 H73 0.930 . S
C106 N108 1.325 . S
C106 C109 1.357 . S
C107 H75 0.928 . S
C107 C105 1.406 . S
C107 N108 1.261 . S
N108 Co59 2.214 . S
N108 C106 1.325 . S
N108 C107 1.261 . S
C109 H79 0.931 . S
C109 C106 1.357 . S
C109 C110 1.312 . S
C110 H81 0.930 . S
C110 C105 1.261 . S
C110 C109 1.312 . S
C111 O83 1.214 . S
C111 O91 1.234 . S
C112 H84 0.929 . S
C112 C115 1.391 . S
C112 C117 1.391 . S
C113 H85 0.929 . S
C113 C114 1.390 . S
C113 N116 1.391 . S
C114 H86 0.930 . S
C114 C113 1.390 . S
C114 C115 1.392 . S
C115 H87 0.929 . S
C115 C112 1.391 . S
C115 C114 1.392 . S
N116 Co60 2.257 . S
N116 C113 1.391 . S
N116 C117 1.388 . S
C117 H88 0.930 . S
C117 C112 1.391 . S
C117 N116 1.388 . S
Co118 O120 2.143 . S
Co118 O126 2.074 . S
Co118 O129 2.093 . S
Co118 O142 2.097 . S
Co118 N159 2.151 . S
Co118 N167 2.214 . S
Co119 O120 2.160 . S
Co119 O125 2.058 . S
Co119 O135 2.057 . S
Co119 O150 2.037 . S
Co119 N154 2.145 . S
Co119 N175 2.257 . S
O120 Co118 2.143 . S
O120 Co119 2.160 . S
C121 O122 1.278 . S
C121 O129 1.224 . S
O122 C121 1.278 . S
C123 O124 1.245 . S
C123 O135 1.232 . S
O124 C123 1.245 . S
O125 Co119 2.058 . S
O125 C151 1.269 . S
O126 Co118 2.074 . S
O126 C151 1.257 . S
H127 C152 0.930 . S
H128 C158 0.930 . S
O129 Co118 2.093 . S
O129 C121 1.224 . S
H130 C162 0.929 . S
H131 C164 0.930 . S
H132 C165 0.930 . S
H133 C163 0.929 . S
H134 C166 0.928 . S
O135 Co119 2.057 . S
O135 C123 1.232 . S
H136 C155 0.929 . S
H137 C156 0.929 . S
H138 C168 0.931 . S
H139 C160 0.929 . S
H140 C169 0.930 . S
H141 C161 0.931 . S
O142 Co118 2.097 . S
O142 C170 1.214 . S
H143 C171 0.929 . S
H144 C172 0.929 . S
H145 C173 0.930 . S
H146 C174 0.929 . S
H147 C176 0.930 . S
H148 C153 0.930 . S
H149 C157 0.930 . S
O150 Co119 2.037 . S
O150 C170 1.234 . S
C151 O125 1.269 . S
C151 O126 1.257 . S
C152 H127 0.930 . S
C152 C155 1.388 . S
C152 C157 1.418 . S
C153 H148 0.930 . S
C153 C156 1.404 . S
C153 C157 1.353 . S
N154 Co119 2.145 . S
N154 C155 1.397 . S
N154 C156 1.334 . S
C155 H136 0.929 . S
C155 C152 1.388 . S
C155 N154 1.397 . S
C156 H137 0.929 . S
C156 C153 1.404 . S
C156 N154 1.334 . S
C157 H149 0.930 . S
C157 C152 1.418 . S
C157 C153 1.353 . S
C158 H128 0.930 . S
C158 N159 1.330 . S
C158 C160 1.446 . S
N159 Co118 2.151 . S
N159 C158 1.330 . S
N159 C163 1.418 . S
C160 H139 0.929 . S
C160 C158 1.446 . S
C160 C161 1.332 . S
C161 H141 0.931 . S
C161 C160 1.332 . S
C161 C162 1.267 . S
C162 H130 0.929 . S
C162 C161 1.267 . S
C162 C163 1.251 . S
C163 H133 0.929 . S
C163 N159 1.418 . S
C163 C162 1.251 . S
C164 H131 0.930 . S
C164 C166 1.406 . S
C164 C169 1.261 . S
C165 H132 0.930 . S
C165 N167 1.325 . S
C165 C168 1.357 . S
C166 H134 0.928 . S
C166 C164 1.406 . S
C166 N167 1.261 . S
N167 Co118 2.214 . S
N167 C165 1.325 . S
N167 C166 1.261 . S
C168 H138 0.931 . S
C168 C165 1.357 . S
C168 C169 1.312 . S
C169 H140 0.930 . S
C169 C164 1.261 . S
C169 C168 1.312 . S
C170 O142 1.214 . S
C170 O150 1.234 . S
C171 H143 0.929 . S
C171 C174 1.391 . S
C171 C176 1.391 . S
C172 H144 0.929 . S
C172 C173 1.390 . S
C172 N175 1.391 . S
C173 H145 0.930 . S
C173 C172 1.390 . S
C173 C174 1.392 . S
C174 H146 0.929 . S
C174 C171 1.391 . S
C174 C173 1.392 . S
N175 Co119 2.257 . S
N175 C172 1.391 . S
N175 C176 1.388 . S
C176 H147 0.930 . S
C176 C171 1.391 . S
C176 N175 1.388 . S
Co177 O179 2.143 . S
Co177 O185 2.074 . S
Co177 O188 2.093 . S
Co177 O201 2.097 . S
Co177 N218 2.151 . S
Co177 N226 2.214 . S
Co178 O179 2.160 . S
Co178 O184 2.058 . S
Co178 O194 2.057 . S
Co178 O209 2.037 . S
Co178 N213 2.145 . S
Co178 N234 2.257 . S
O179 Co177 2.143 . S
O179 Co178 2.160 . S
C180 O181 1.278 . S
C180 O188 1.224 . S
O181 C180 1.278 . S
C182 O183 1.245 . S
C182 O194 1.232 . S
O183 C182 1.245 . S
O184 Co178 2.058 . S
O184 C210 1.269 . S
O185 Co177 2.074 . S
O185 C210 1.257 . S
H186 C211 0.930 . S
H187 C217 0.930 . S
O188 Co177 2.093 . S
O188 C180 1.224 . S
H189 C221 0.929 . S
H190 C223 0.930 . S
H191 C224 0.930 . S
H192 C222 0.929 . S
H193 C225 0.928 . S
O194 Co178 2.057 . S
O194 C182 1.232 . S
H195 C214 0.929 . S
H196 C215 0.929 . S
H197 C227 0.931 . S
H198 C219 0.929 . S
H199 C228 0.930 . S
H200 C220 0.931 . S
O201 Co177 2.097 . S
O201 C229 1.214 . S
H202 C230 0.929 . S
H203 C231 0.929 . S
H204 C232 0.930 . S
H205 C233 0.929 . S
H206 C235 0.930 . S
H207 C212 0.930 . S
H208 C216 0.930 . S
O209 Co178 2.037 . S
O209 C229 1.234 . S
C210 O184 1.269 . S
C210 O185 1.257 . S
C211 H186 0.930 . S
C211 C214 1.388 . S
C211 C216 1.418 . S
C212 H207 0.930 . S
C212 C215 1.404 . S
C212 C216 1.353 . S
N213 Co178 2.145 . S
N213 C214 1.397 . S
N213 C215 1.334 . S
C214 H195 0.929 . S
C214 C211 1.388 . S
C214 N213 1.397 . S
C215 H196 0.929 . S
C215 C212 1.404 . S
C215 N213 1.334 . S
C216 H208 0.930 . S
C216 C211 1.418 . S
C216 C212 1.353 . S
C217 H187 0.930 . S
C217 N218 1.330 . S
C217 C219 1.446 . S
N218 Co177 2.151 . S
N218 C217 1.330 . S
N218 C222 1.418 . S
C219 H198 0.929 . S
C219 C217 1.446 . S
C219 C220 1.332 . S
C220 H200 0.931 . S
C220 C219 1.332 . S
C220 C221 1.267 . S
C221 H189 0.929 . S
C221 C220 1.267 . S
C221 C222 1.251 . S
C222 H192 0.929 . S
C222 N218 1.418 . S
C222 C221 1.251 . S
C223 H190 0.930 . S
C223 C225 1.406 . S
C223 C228 1.261 . S
C224 H191 0.930 . S
C224 N226 1.325 . S
C224 C227 1.357 . S
C225 H193 0.928 . S
C225 C223 1.406 . S
C225 N226 1.261 . S
N226 Co177 2.214 . S
N226 C224 1.325 . S
N226 C225 1.261 . S
C227 H197 0.931 . S
C227 C224 1.357 . S
C227 C228 1.312 . S
C228 H199 0.930 . S
C228 C223 1.261 . S
C228 C227 1.312 . S
C229 O201 1.214 . S
C229 O209 1.234 . S
C230 H202 0.929 . S
C230 C233 1.391 . S
C230 C235 1.391 . S
C231 H203 0.929 . S
C231 C232 1.390 . S
C231 N234 1.391 . S
C232 H204 0.930 . S
C232 C231 1.390 . S
C232 C233 1.392 . S
C233 H205 0.929 . S
C233 C230 1.391 . S
C233 C232 1.392 . S
N234 Co178 2.257 . S
N234 C231 1.391 . S
N234 C235 1.388 . S
C235 H206 0.930 . S
C235 C230 1.391 . S
C235 N234 1.388 . S
Co236 O238 2.143 . S
Co236 O244 2.074 . S
Co236 O247 2.093 . S
Co236 O260 2.097 . S
Co236 N277 2.151 . S
Co236 N285 2.214 . S
Co237 O238 2.160 . S
Co237 O243 2.058 . S
Co237 O253 2.057 . S
Co237 O268 2.037 . S
Co237 N272 2.145 . S
Co237 N293 2.257 . S
O238 Co236 2.143 . S
O238 Co237 2.160 . S
C239 O240 1.278 . S
C239 O247 1.224 . S
O240 C239 1.278 . S
C241 O242 1.245 . S
C241 O253 1.232 . S
O242 C241 1.245 . S
O243 Co237 2.058 . S
O243 C269 1.269 . S
O244 Co236 2.074 . S
O244 C269 1.257 . S
H245 C270 0.930 . S
H246 C276 0.930 . S
O247 Co236 2.093 . S
O247 C239 1.224 . S
H248 C280 0.929 . S
H249 C282 0.930 . S
H250 C283 0.930 . S
H251 C281 0.929 . S
H252 C284 0.928 . S
O253 Co237 2.057 . S
O253 C241 1.232 . S
H254 C273 0.929 . S
H255 C274 0.929 . S
H256 C286 0.931 . S
H257 C278 0.929 . S
H258 C287 0.930 . S
H259 C279 0.931 . S
O260 Co236 2.097 . S
O260 C288 1.214 . S
H261 C289 0.929 . S
H262 C290 0.929 . S
H263 C291 0.930 . S
H264 C292 0.929 . S
H265 C294 0.930 . S
H266 C271 0.930 . S
H267 C275 0.930 . S
O268 Co237 2.037 . S
O268 C288 1.234 . S
C269 O243 1.269 . S
C269 O244 1.257 . S
C270 H245 0.930 . S
C270 C273 1.388 . S
C270 C275 1.418 . S
C271 H266 0.930 . S
C271 C274 1.404 . S
C271 C275 1.353 . S
N272 Co237 2.145 . S
N272 C273 1.397 . S
N272 C274 1.334 . S
C273 H254 0.929 . S
C273 C270 1.388 . S
C273 N272 1.397 . S
C274 H255 0.929 . S
C274 C271 1.404 . S
C274 N272 1.334 . S
C275 H267 0.930 . S
C275 C270 1.418 . S
C275 C271 1.353 . S
C276 H246 0.930 . S
C276 N277 1.330 . S
C276 C278 1.446 . S
N277 Co236 2.151 . S
N277 C276 1.330 . S
N277 C281 1.418 . S
C278 H257 0.929 . S
C278 C276 1.446 . S
C278 C279 1.332 . S
C279 H259 0.931 . S
C279 C278 1.332 . S
C279 C280 1.267 . S
C280 H248 0.929 . S
C280 C279 1.267 . S
C280 C281 1.251 . S
C281 H251 0.929 . S
C281 N277 1.418 . S
C281 C280 1.251 . S
C282 H249 0.930 . S
C282 C284 1.406 . S
C282 C287 1.261 . S
C283 H250 0.930 . S
C283 N285 1.325 . S
C283 C286 1.357 . S
C284 H252 0.928 . S
C284 C282 1.406 . S
C284 N285 1.261 . S
N285 Co236 2.214 . S
N285 C283 1.325 . S
N285 C284 1.261 . S
C286 H256 0.931 . S
C286 C283 1.357 . S
C286 C287 1.312 . S
C287 H258 0.930 . S
C287 C282 1.261 . S
C287 C286 1.312 . S
C288 O260 1.214 . S
C288 O268 1.234 . S
C289 H261 0.929 . S
C289 C292 1.391 . S
C289 C294 1.391 . S
C290 H262 0.929 . S
C290 C291 1.390 . S
C290 N293 1.391 . S
C291 H263 0.930 . S
C291 C290 1.390 . S
C291 C292 1.392 . S
C292 H264 0.929 . S
C292 C289 1.391 . S
C292 C291 1.392 . S
N293 Co237 2.257 . S
N293 C290 1.391 . S
N293 C294 1.388 . S
C294 H265 0.930 . S
C294 C289 1.391 . S
C294 N293 1.388 . S
Co295 O297 2.143 . S
Co295 O303 2.074 . S
Co295 O306 2.093 . S
Co295 O319 2.097 . S
Co295 N336 2.151 . S
Co295 N344 2.214 . S
Co296 O297 2.160 . S
Co296 O302 2.058 . S
Co296 O312 2.057 . S
Co296 O327 2.037 . S
Co296 N331 2.145 . S
Co296 N352 2.257 . S
O297 Co295 2.143 . S
O297 Co296 2.160 . S
C298 O299 1.278 . S
C298 O306 1.224 . S
O299 C298 1.278 . S
C300 O301 1.245 . S
C300 O312 1.232 . S
O301 C300 1.245 . S
O302 Co296 2.058 . S
O302 C328 1.269 . S
O303 Co295 2.074 . S
O303 C328 1.257 . S
H304 C329 0.930 . S
H305 C335 0.930 . S
O306 Co295 2.093 . S
O306 C298 1.224 . S
H307 C339 0.929 . S
H308 C341 0.930 1_655 S
H309 C342 0.930 . S
H310 C340 0.929 . S
H311 C343 0.928 . S
O312 Co296 2.057 . S
O312 C300 1.232 . S
H313 C332 0.929 . S
H314 C333 0.929 . S
H315 C345 0.934 . S
H316 C337 0.929 . S
H317 C346 0.930 . S
H318 C338 0.931 . S
O319 Co295 2.097 . S
O319 C347 1.214 . S
H320 C348 0.929 . S
H321 C349 0.929 . S
H322 C350 0.930 . S
H323 C351 0.929 . S
H324 C353 0.930 . S
H325 C330 0.930 . S
H326 C334 0.930 . S
O327 Co296 2.037 . S
O327 C347 1.234 . S
C328 O302 1.269 . S
C328 O303 1.257 . S
C329 H304 0.930 . S
C329 C332 1.388 . S
C329 C334 1.418 . S
C330 H325 0.930 . S
C330 C333 1.404 . S
C330 C334 1.353 . S
N331 Co296 2.145 . S
N331 C332 1.397 . S
N331 C333 1.334 . S
C332 H313 0.929 . S
C332 C329 1.388 . S
C332 N331 1.397 . S
C333 H314 0.929 . S
C333 C330 1.404 . S
C333 N331 1.334 . S
C334 H326 0.930 . S
C334 C329 1.418 . S
C334 C330 1.353 . S
C335 H305 0.930 . S
C335 N336 1.330 . S
C335 C337 1.446 . S
N336 Co295 2.151 . S
N336 C335 1.330 . S
N336 C340 1.418 . S
C337 H316 0.929 . S
C337 C335 1.446 . S
C337 C338 1.332 . S
C338 H318 0.931 . S
C338 C337 1.332 . S
C338 C339 1.267 . S
C339 H307 0.929 . S
C339 C338 1.267 . S
C339 C340 1.251 . S
C340 H310 0.929 . S
C340 N336 1.418 . S
C340 C339 1.251 . S
C341 H308 0.930 1_455 S
C341 C343 1.406 . S
C341 C346 1.261 1_455 S
C342 H309 0.930 . S
C342 N344 1.325 . S
C342 C345 1.357 . S
C343 H311 0.928 . S
C343 C341 1.406 . S
C343 N344 1.261 . S
N344 Co295 2.214 . S
N344 C342 1.325 . S
N344 C343 1.261 . S
C345 H315 0.934 . S
C345 C342 1.357 . S
C345 C346 1.312 1_455 S
C346 H317 0.930 . S
C346 C341 1.261 1_655 S
C346 C345 1.312 1_655 S
C347 O319 1.214 . S
C347 O327 1.234 . S
C348 H320 0.929 . S
C348 C351 1.391 . S
C348 C353 1.391 . S
C349 H321 0.929 . S
C349 C350 1.390 . S
C349 N352 1.391 . S
C350 H322 0.930 . S
C350 C349 1.390 . S
C350 C351 1.392 . S
C351 H323 0.929 . S
C351 C348 1.391 . S
C351 C350 1.392 . S
N352 Co296 2.257 . S
N352 C349 1.391 . S
N352 C353 1.388 . S
C353 H324 0.930 . S
C353 C348 1.391 . S
C353 N352 1.388 . S
Co354 O356 2.143 . S
Co354 O362 2.074 . S
Co354 O365 2.093 . S
Co354 O378 2.097 . S
Co354 N395 2.151 . S
Co354 N403 2.214 . S
Co355 O356 2.160 . S
Co355 O361 2.058 . S
Co355 O371 2.057 . S
Co355 O386 2.037 . S
Co355 N390 2.145 . S
Co355 N411 2.257 . S
O356 Co354 2.143 . S
O356 Co355 2.160 . S
C357 O358 1.278 . S
C357 O365 1.224 . S
O358 C357 1.278 . S
C359 O360 1.245 . S
C359 O371 1.232 . S
O360 C359 1.245 . S
O361 Co355 2.058 . S
O361 C387 1.269 . S
O362 Co354 2.074 . S
O362 C387 1.257 . S
H363 C388 0.930 . S
H364 C394 0.930 . S
O365 Co354 2.093 . S
O365 C357 1.224 . S
H366 C398 0.929 . S
H367 C400 0.930 . S
H368 C401 0.930 . S
H369 C399 0.929 . S
H370 C402 0.928 . S
O371 Co355 2.057 . S
O371 C359 1.232 . S
H372 C391 0.929 . S
H373 C392 0.929 . S
H374 C404 0.931 . S
H375 C396 0.929 . S
H376 C405 0.930 1_455 S
H377 C397 0.931 . S
O378 Co354 2.097 . S
O378 C406 1.214 . S
H379 C407 0.929 . S
H380 C408 0.929 . S
H381 C409 0.930 . S
H382 C410 0.929 . S
H383 C412 0.930 . S
H384 C389 0.930 . S
H385 C393 0.930 . S
O386 Co355 2.037 . S
O386 C406 1.234 . S
C387 O361 1.269 . S
C387 O362 1.257 . S
C388 H363 0.930 . S
C388 C391 1.388 . S
C388 C393 1.418 . S
C389 H384 0.930 . S
C389 C392 1.404 . S
C389 C393 1.353 . S
N390 Co355 2.145 . S
N390 C391 1.397 . S
N390 C392 1.334 . S
C391 H372 0.929 . S
C391 C388 1.388 . S
C391 N390 1.397 . S
C392 H373 0.929 . S
C392 C389 1.404 . S
C392 N390 1.334 . S
C393 H385 0.930 . S
C393 C388 1.418 . S
C393 C389 1.353 . S
C394 H364 0.930 . S
C394 N395 1.330 . S
C394 C396 1.446 . S
N395 Co354 2.151 . S
N395 C394 1.330 . S
N395 C399 1.418 . S
C396 H375 0.929 . S
C396 C394 1.446 . S
C396 C397 1.332 . S
C397 H377 0.931 . S
C397 C396 1.332 . S
C397 C398 1.267 . S
C398 H366 0.929 . S
C398 C397 1.267 . S
C398 C399 1.251 . S
C399 H369 0.929 . S
C399 N395 1.418 . S
C399 C398 1.251 . S
C400 H367 0.930 . S
C400 C402 1.406 . S
C400 C405 1.261 . S
C401 H368 0.930 . S
C401 N403 1.325 . S
C401 C404 1.357 . S
C402 H370 0.928 . S
C402 C400 1.406 . S
C402 N403 1.261 . S
N403 Co354 2.214 . S
N403 C401 1.325 . S
N403 C402 1.261 . S
C404 H374 0.931 . S
C404 C401 1.357 . S
C404 C405 1.312 . S
C405 H376 0.930 1_655 S
C405 C400 1.261 . S
C405 C404 1.312 . S
C406 O378 1.214 . S
C406 O386 1.234 . S
C407 H379 0.929 . S
C407 C410 1.391 . S
C407 C412 1.391 . S
C408 H380 0.929 . S
C408 C409 1.390 . S
C408 N411 1.391 . S
C409 H381 0.930 . S
C409 C408 1.390 . S
C409 C410 1.392 . S
C410 H382 0.929 . S
C410 C407 1.391 . S
C410 C409 1.392 . S
N411 Co355 2.257 . S
N411 C408 1.391 . S
N411 C412 1.388 . S
C412 H383 0.930 . S
C412 C407 1.391 . S
C412 N411 1.388 . S
Co413 O415 2.143 . S
Co413 O421 2.074 . S
Co413 O424 2.093 . S
Co413 O437 2.097 . S
Co413 N454 2.151 . S
Co413 N462 2.214 . S
Co414 O415 2.160 . S
Co414 O420 2.058 . S
Co414 O430 2.057 . S
Co414 O445 2.037 . S
Co414 N449 2.145 . S
Co414 N470 2.257 . S
O415 Co413 2.143 . S
O415 Co414 2.160 . S
C416 O417 1.278 . S
C416 O424 1.224 . S
O417 C416 1.278 . S
C418 O419 1.245 . S
C418 O430 1.232 . S
O419 C418 1.245 . S
O420 Co414 2.058 . S
O420 C446 1.269 . S
O421 Co413 2.074 . S
O421 C446 1.257 . S
H422 C447 0.930 . S
H423 C453 0.930 . S
O424 Co413 2.093 . S
O424 C416 1.224 . S
H425 C457 0.929 . S
H426 C459 0.930 . S
H427 C460 0.930 . S
H428 C458 0.929 . S
H429 C461 0.928 . S
O430 Co414 2.057 . S
O430 C418 1.232 . S
H431 C450 0.929 . S
H432 C451 0.929 . S
H433 C463 0.931 . S
H434 C455 0.929 . S
H435 C464 0.926 1_455 S
H436 C456 0.931 . S
O437 Co413 2.097 . S
O437 C465 1.214 . S
H438 C466 0.929 . S
H439 C467 0.929 . S
H440 C468 0.930 . S
H441 C469 0.929 . S
H442 C471 0.930 . S
H443 C448 0.930 . S
H444 C452 0.930 . S
O445 Co414 2.037 . S
O445 C465 1.234 . S
C446 O420 1.269 . S
C446 O421 1.257 . S
C447 H422 0.930 . S
C447 C450 1.388 . S
C447 C452 1.418 . S
C448 H443 0.930 . S
C448 C451 1.404 . S
C448 C452 1.353 . S
N449 Co414 2.145 . S
N449 C450 1.397 . S
N449 C451 1.334 . S
C450 H431 0.929 . S
C450 C447 1.388 . S
C450 N449 1.397 . S
C451 H432 0.929 . S
C451 C448 1.404 . S
C451 N449 1.334 . S
C452 H444 0.930 . S
C452 C447 1.418 . S
C452 C448 1.353 . S
C453 H423 0.930 . S
C453 N454 1.330 . S
C453 C455 1.446 . S
N454 Co413 2.151 . S
N454 C453 1.330 . S
N454 C458 1.418 . S
C455 H434 0.929 . S
C455 C453 1.446 . S
C455 C456 1.332 . S
C456 H436 0.931 . S
C456 C455 1.332 . S
C456 C457 1.267 . S
C457 H425 0.929 . S
C457 C456 1.267 . S
C457 C458 1.251 . S
C458 H428 0.929 . S
C458 N454 1.418 . S
C458 C457 1.251 . S
C459 H426 0.930 . S
C459 C461 1.406 . S
C459 C464 1.263 . S
C460 H427 0.930 . S
C460 N462 1.325 . S
C460 C463 1.357 . S
C461 H429 0.928 . S
C461 C459 1.406 . S
C461 N462 1.261 . S
N462 Co413 2.214 . S
N462 C460 1.325 . S
N462 C461 1.261 . S
C463 H433 0.931 . S
C463 C460 1.357 . S
C463 C464 1.314 . S
C464 H435 0.926 1_655 S
C464 C459 1.263 . S
C464 C463 1.314 . S
C465 O437 1.214 . S
C465 O445 1.234 . S
C466 H438 0.929 . S
C466 C469 1.391 . S
C466 C471 1.391 . S
C467 H439 0.929 . S
C467 C468 1.390 . S
C467 N470 1.391 . S
C468 H440 0.930 . S
C468 C467 1.390 . S
C468 C469 1.392 . S
C469 H441 0.929 . S
C469 C466 1.391 . S
C469 C468 1.392 . S
N470 Co414 2.257 . S
N470 C467 1.391 . S
N470 C471 1.388 . S
C471 H442 0.930 . S
C471 C466 1.391 . S
C471 N470 1.388 . S
Co472 O474 2.143 . S
Co472 O480 2.074 . S
Co472 O483 2.093 . S
Co472 O496 2.097 . S
Co472 N513 2.151 . S
Co472 N521 2.214 . S
Co473 O474 2.160 . S
Co473 O479 2.058 . S
Co473 O489 2.057 . S
Co473 O504 2.037 . S
Co473 N508 2.145 . S
Co473 N529 2.257 . S
O474 Co472 2.143 . S
O474 Co473 2.160 . S
C475 O476 1.278 . S
C475 O483 1.224 . S
O476 C475 1.278 . S
C477 O478 1.245 . S
C477 O489 1.232 . S
O478 C477 1.245 . S
O479 Co473 2.058 . S
O479 C505 1.269 . S
O480 Co472 2.074 . S
O480 C505 1.257 . S
H481 C506 0.930 . S
H482 C512 0.930 . S
O483 Co472 2.093 . S
O483 C475 1.224 . S
H484 C516 0.929 . S
H485 C518 0.930 . S
H486 C519 0.930 . S
H487 C517 0.929 . S
H488 C520 0.928 . S
O489 Co473 2.057 . S
O489 C477 1.232 . S
H490 C509 0.929 . S
H491 C510 0.929 . S
H492 C522 0.931 . S
H493 C514 0.929 . S
H494 C523 0.930 . S
H495 C515 0.931 . S
O496 Co472 2.097 . S
O496 C524 1.214 . S
H497 C525 0.929 . S
H498 C526 0.929 . S
H499 C527 0.930 . S
H500 C528 0.929 . S
H501 C530 0.930 . S
H502 C507 0.930 . S
H503 C511 0.930 . S
O504 Co473 2.037 . S
O504 C524 1.234 . S
C505 O479 1.269 . S
C505 O480 1.257 . S
C506 H481 0.930 . S
C506 C509 1.388 . S
C506 C511 1.418 . S
C507 H502 0.930 . S
C507 C510 1.404 . S
C507 C511 1.353 . S
N508 Co473 2.145 . S
N508 C509 1.397 . S
N508 C510 1.334 . S
C509 H490 0.929 . S
C509 C506 1.388 . S
C509 N508 1.397 . S
C510 H491 0.929 . S
C510 C507 1.404 . S
C510 N508 1.334 . S
C511 H503 0.930 . S
C511 C506 1.418 . S
C511 C507 1.353 . S
C512 H482 0.930 . S
C512 N513 1.330 . S
C512 C514 1.446 . S
N513 Co472 2.151 . S
N513 C512 1.330 . S
N513 C517 1.418 . S
C514 H493 0.929 . S
C514 C512 1.446 . S
C514 C515 1.332 . S
C515 H495 0.931 . S
C515 C514 1.332 . S
C515 C516 1.267 . S
C516 H484 0.929 . S
C516 C515 1.267 . S
C516 C517 1.251 . S
C517 H487 0.929 . S
C517 N513 1.418 . S
C517 C516 1.251 . S
C518 H485 0.930 . S
C518 C520 1.406 . S
C518 C523 1.261 . S
C519 H486 0.930 . S
C519 N521 1.325 . S
C519 C522 1.357 . S
C520 H488 0.928 . S
C520 C518 1.406 . S
C520 N521 1.261 . S
N521 Co472 2.214 . S
N521 C519 1.325 . S
N521 C520 1.261 . S
C522 H492 0.931 . S
C522 C519 1.357 . S
C522 C523 1.312 . S
C523 H494 0.930 . S
C523 C518 1.261 . S
C523 C522 1.312 . S
C524 O496 1.214 . S
C524 O504 1.234 . S
C525 H497 0.929 . S
C525 C528 1.391 . S
C525 C530 1.391 . S
C526 H498 0.929 . S
C526 C527 1.390 . S
C526 N529 1.391 . S
C527 H499 0.930 . S
C527 C526 1.390 . S
C527 C528 1.392 . S
C528 H500 0.929 . S
C528 C525 1.391 . S
C528 C527 1.392 . S
N529 Co473 2.257 . S
N529 C526 1.391 . S
N529 C530 1.388 . S
C530 H501 0.930 . S
C530 C525 1.391 . S
C530 N529 1.388 . S
Co531 O533 2.143 . S
Co531 O539 2.074 . S
Co531 O542 2.093 . S
Co531 O555 2.097 . S
Co531 N572 2.151 . S
Co531 N580 2.214 . S
Co532 O533 2.160 . S
Co532 O538 2.058 . S
Co532 O548 2.057 . S
Co532 O563 2.037 . S
Co532 N567 2.145 . S
Co532 N588 2.257 . S
O533 Co531 2.143 . S
O533 Co532 2.160 . S
C534 O535 1.278 . S
C534 O542 1.224 . S
O535 C534 1.278 . S
C536 O537 1.245 . S
C536 O548 1.232 . S
O537 C536 1.245 . S
O538 Co532 2.058 . S
O538 C564 1.269 . S
O539 Co531 2.074 . S
O539 C564 1.257 . S
H540 C565 0.930 . S
H541 C571 0.930 . S
O542 Co531 2.093 . S
O542 C534 1.224 . S
H543 C575 0.929 . S
H544 C577 0.930 . S
H545 C578 0.930 . S
H546 C576 0.929 . S
H547 C579 0.928 . S
O548 Co532 2.057 . S
O548 C536 1.232 . S
H549 C568 0.929 . S
H550 C569 0.929 . S
H551 C581 0.931 . S
H552 C573 0.929 . S
H553 C582 0.930 . S
H554 C574 0.931 . S
O555 Co531 2.097 . S
O555 C583 1.214 . S
H556 C584 0.929 . S
H557 C585 0.929 . S
H558 C586 0.930 . S
H559 C587 0.929 . S
H560 C589 0.930 . S
H561 C566 0.930 . S
H562 C570 0.930 . S
O563 Co532 2.037 . S
O563 C583 1.234 . S
C564 O538 1.269 . S
C564 O539 1.257 . S
C565 H540 0.930 . S
C565 C568 1.388 . S
C565 C570 1.418 . S
C566 H561 0.930 . S
C566 C569 1.404 . S
C566 C570 1.353 . S
N567 Co532 2.145 . S
N567 C568 1.397 . S
N567 C569 1.334 . S
C568 H549 0.929 . S
C568 C565 1.388 . S
C568 N567 1.397 . S
C569 H550 0.929 . S
C569 C566 1.404 . S
C569 N567 1.334 . S
C570 H562 0.930 . S
C570 C565 1.418 . S
C570 C566 1.353 . S
C571 H541 0.930 . S
C571 N572 1.330 . S
C571 C573 1.446 . S
N572 Co531 2.151 . S
N572 C571 1.330 . S
N572 C576 1.418 . S
C573 H552 0.929 . S
C573 C571 1.446 . S
C573 C574 1.332 . S
C574 H554 0.931 . S
C574 C573 1.332 . S
C574 C575 1.267 . S
C575 H543 0.929 . S
C575 C574 1.267 . S
C575 C576 1.251 . S
C576 H546 0.929 . S
C576 N572 1.418 . S
C576 C575 1.251 . S
C577 H544 0.930 . S
C577 C579 1.406 . S
C577 C582 1.261 . S
C578 H545 0.930 . S
C578 N580 1.325 . S
C578 C581 1.357 . S
C579 H547 0.928 . S
C579 C577 1.406 . S
C579 N580 1.261 . S
N580 Co531 2.214 . S
N580 C578 1.325 . S
N580 C579 1.261 . S
C581 H551 0.931 . S
C581 C578 1.357 . S
C581 C582 1.312 . S
C582 H553 0.930 . S
C582 C577 1.261 . S
C582 C581 1.312 . S
C583 O555 1.214 . S
C583 O563 1.234 . S
C584 H556 0.929 . S
C584 C587 1.391 . S
C584 C589 1.391 . S
C585 H557 0.929 . S
C585 C586 1.390 . S
C585 N588 1.391 . S
C586 H558 0.930 . S
C586 C585 1.390 . S
C586 C587 1.392 . S
C587 H559 0.929 . S
C587 C584 1.391 . S
C587 C586 1.392 . S
N588 Co532 2.257 . S
N588 C585 1.391 . S
N588 C589 1.388 . S
C589 H560 0.930 . S
C589 C584 1.391 . S
C589 N588 1.388 . S
Co590 O592 2.143 . S
Co590 O598 2.074 . S
Co590 O601 2.093 . S
Co590 O614 2.097 . S
Co590 N631 2.151 . S
Co590 N639 2.214 . S
Co591 O592 2.160 . S
Co591 O597 2.058 . S
Co591 O607 2.057 . S
Co591 O622 2.037 . S
Co591 N626 2.145 . S
Co591 N647 2.257 . S
O592 Co590 2.143 . S
O592 Co591 2.160 . S
C593 O594 1.278 . S
C593 O601 1.224 . S
O594 C593 1.278 . S
C595 O596 1.245 . S
C595 O607 1.232 . S
O596 C595 1.245 . S
O597 Co591 2.058 . S
O597 C623 1.269 . S
O598 Co590 2.074 . S
O598 C623 1.257 . S
H599 C624 0.930 . S
H600 C630 0.930 . S
O601 Co590 2.093 . S
O601 C593 1.224 . S
H602 C634 0.929 . S
H603 C636 0.930 . S
H604 C637 0.930 . S
H605 C635 0.929 . S
H606 C638 0.928 . S
O607 Co591 2.057 . S
O607 C595 1.232 . S
H608 C627 0.929 . S
H609 C628 0.929 . S
H610 C640 0.931 . S
H611 C632 0.929 . S
H612 C641 0.930 . S
H613 C633 0.931 . S
O614 Co590 2.097 . S
O614 C642 1.214 . S
H615 C643 0.929 . S
H616 C644 0.929 . S
H617 C645 0.930 . S
H618 C646 0.929 . S
H619 C648 0.930 . S
H620 C625 0.930 . S
H621 C629 0.930 . S
O622 Co591 2.037 . S
O622 C642 1.234 . S
C623 O597 1.269 . S
C623 O598 1.257 . S
C624 H599 0.930 . S
C624 C627 1.388 . S
C624 C629 1.418 . S
C625 H620 0.930 . S
C625 C628 1.404 . S
C625 C629 1.353 . S
N626 Co591 2.145 . S
N626 C627 1.397 . S
N626 C628 1.334 . S
C627 H608 0.929 . S
C627 C624 1.388 . S
C627 N626 1.397 . S
C628 H609 0.929 . S
C628 C625 1.404 . S
C628 N626 1.334 . S
C629 H621 0.930 . S
C629 C624 1.418 . S
C629 C625 1.353 . S
C630 H600 0.930 . S
C630 N631 1.330 . S
C630 C632 1.446 . S
N631 Co590 2.151 . S
N631 C630 1.330 . S
N631 C635 1.418 . S
C632 H611 0.929 . S
C632 C630 1.446 . S
C632 C633 1.332 . S
C633 H613 0.931 . S
C633 C632 1.332 . S
C633 C634 1.267 . S
C634 H602 0.929 . S
C634 C633 1.267 . S
C634 C635 1.251 . S
C635 H605 0.929 . S
C635 N631 1.418 . S
C635 C634 1.251 . S
C636 H603 0.930 . S
C636 C638 1.406 . S
C636 C641 1.261 . S
C637 H604 0.930 . S
C637 N639 1.325 . S
C637 C640 1.357 . S
C638 H606 0.928 . S
C638 C636 1.406 . S
C638 N639 1.261 . S
N639 Co590 2.214 . S
N639 C637 1.325 . S
N639 C638 1.261 . S
C640 H610 0.931 . S
C640 C637 1.357 . S
C640 C641 1.312 . S
C641 H612 0.930 . S
C641 C636 1.261 . S
C641 C640 1.312 . S
C642 O614 1.214 . S
C642 O622 1.234 . S
C643 H615 0.929 . S
C643 C646 1.391 . S
C643 C648 1.391 . S
C644 H616 0.929 . S
C644 C645 1.390 . S
C644 N647 1.391 . S
C645 H617 0.930 . S
C645 C644 1.390 . S
C645 C646 1.392 . S
C646 H618 0.929 . S
C646 C643 1.391 . S
C646 C645 1.392 . S
N647 Co591 2.257 . S
N647 C644 1.391 . S
N647 C648 1.388 . S
C648 H619 0.930 . S
C648 C643 1.391 . S
C648 N647 1.388 . S
Co649 O651 2.143 . S
Co649 O657 2.074 . S
Co649 O660 2.093 . S
Co649 O673 2.097 . S
Co649 N690 2.151 . S
Co649 N698 2.214 . S
Co650 O651 2.160 . S
Co650 O656 2.058 . S
Co650 O666 2.057 . S
Co650 O681 2.037 . S
Co650 N685 2.145 . S
Co650 N706 2.257 . S
O651 Co649 2.143 . S
O651 Co650 2.160 . S
C652 O653 1.278 . S
C652 O660 1.224 . S
O653 C652 1.278 . S
C654 O655 1.245 . S
C654 O666 1.232 . S
O655 C654 1.245 . S
O656 Co650 2.058 . S
O656 C682 1.269 . S
O657 Co649 2.074 . S
O657 C682 1.257 . S
H658 C683 0.930 . S
H659 C689 0.930 . S
O660 Co649 2.093 . S
O660 C652 1.224 . S
H661 C693 0.929 . S
H662 C695 0.930 . S
H663 C696 0.930 . S
H664 C694 0.929 . S
H665 C697 0.928 . S
O666 Co650 2.057 . S
O666 C654 1.232 . S
H667 C686 0.929 . S
H668 C687 0.929 . S
H669 C699 0.931 . S
H670 C691 0.929 . S
H671 C700 0.930 . S
H672 C692 0.931 . S
O673 Co649 2.097 . S
O673 C701 1.214 . S
H674 C702 0.929 . S
H675 C703 0.929 . S
H676 C704 0.930 . S
H677 C705 0.929 . S
H678 C707 0.930 . S
H679 C684 0.930 . S
H680 C688 0.930 . S
O681 Co650 2.037 . S
O681 C701 1.234 . S
C682 O656 1.269 . S
C682 O657 1.257 . S
C683 H658 0.930 . S
C683 C686 1.388 . S
C683 C688 1.418 . S
C684 H679 0.930 . S
C684 C687 1.404 . S
C684 C688 1.353 . S
N685 Co650 2.145 . S
N685 C686 1.397 . S
N685 C687 1.334 . S
C686 H667 0.929 . S
C686 C683 1.388 . S
C686 N685 1.397 . S
C687 H668 0.929 . S
C687 C684 1.404 . S
C687 N685 1.334 . S
C688 H680 0.930 . S
C688 C683 1.418 . S
C688 C684 1.353 . S
C689 H659 0.930 . S
C689 N690 1.330 . S
C689 C691 1.446 . S
N690 Co649 2.151 . S
N690 C689 1.330 . S
N690 C694 1.418 . S
C691 H670 0.929 . S
C691 C689 1.446 . S
C691 C692 1.332 . S
C692 H672 0.931 . S
C692 C691 1.332 . S
C692 C693 1.267 . S
C693 H661 0.929 . S
C693 C692 1.267 . S
C693 C694 1.251 . S
C694 H664 0.929 . S
C694 N690 1.418 . S
C694 C693 1.251 . S
C695 H662 0.930 . S
C695 C697 1.406 . S
C695 C700 1.261 . S
C696 H663 0.930 . S
C696 N698 1.325 . S
C696 C699 1.357 . S
C697 H665 0.928 . S
C697 C695 1.406 . S
C697 N698 1.261 . S
N698 Co649 2.214 . S
N698 C696 1.325 . S
N698 C697 1.261 . S
C699 H669 0.931 . S
C699 C696 1.357 . S
C699 C700 1.312 . S
C700 H671 0.930 . S
C700 C695 1.261 . S
C700 C699 1.312 . S
C701 O673 1.214 . S
C701 O681 1.234 . S
C702 H674 0.929 . S
C702 C705 1.391 . S
C702 C707 1.391 . S
C703 H675 0.929 . S
C703 C704 1.390 . S
C703 N706 1.391 . S
C704 H676 0.930 . S
C704 C703 1.390 . S
C704 C705 1.392 . S
C705 H677 0.929 . S
C705 C702 1.391 . S
C705 C704 1.392 . S
N706 Co650 2.257 . S
N706 C703 1.391 . S
N706 C707 1.388 . S
C707 H678 0.930 . S
C707 C702 1.391 . S
C707 N706 1.388 . S
Co708 O710 2.143 . S
Co708 O716 2.074 . S
Co708 O719 2.093 . S
Co708 O732 2.097 . S
Co708 N749 2.151 . S
Co708 N757 2.214 . S
Co709 O710 2.160 . S
Co709 O715 2.058 . S
Co709 O725 2.057 . S
Co709 O740 2.037 . S
Co709 N744 2.145 . S
Co709 N765 2.257 . S
O710 Co708 2.143 . S
O710 Co709 2.160 . S
C711 O712 1.278 . S
C711 O719 1.224 . S
O712 C711 1.278 . S
C713 O714 1.245 . S
C713 O725 1.232 . S
O714 C713 1.245 . S
O715 Co709 2.058 . S
O715 C741 1.269 . S
O716 Co708 2.074 . S
O716 C741 1.257 . S
H717 C742 0.930 . S
H718 C748 0.930 . S
O719 Co708 2.093 . S
O719 C711 1.224 . S
H720 C752 0.929 . S
H721 C754 0.930 . S
H722 C755 0.930 . S
H723 C753 0.929 . S
H724 C756 0.928 . S
O725 Co709 2.057 . S
O725 C713 1.232 . S
H726 C745 0.929 . S
H727 C746 0.929 . S
H728 C758 0.931 . S
H729 C750 0.929 . S
H730 C759 0.930 . S
H731 C751 0.931 . S
O732 Co708 2.097 . S
O732 C760 1.214 . S
H733 C761 0.929 . S
H734 C762 0.929 . S
H735 C763 0.930 . S
H736 C764 0.929 . S
H737 C766 0.930 . S
H738 C743 0.930 . S
H739 C747 0.930 . S
O740 Co709 2.037 . S
O740 C760 1.234 . S
C741 O715 1.269 . S
C741 O716 1.257 . S
C742 H717 0.930 . S
C742 C745 1.388 . S
C742 C747 1.418 . S
C743 H738 0.930 . S
C743 C746 1.404 . S
C743 C747 1.353 . S
N744 Co709 2.145 . S
N744 C745 1.397 . S
N744 C746 1.334 . S
C745 H726 0.929 . S
C745 C742 1.388 . S
C745 N744 1.397 . S
C746 H727 0.929 . S
C746 C743 1.404 . S
C746 N744 1.334 . S
C747 H739 0.930 . S
C747 C742 1.418 . S
C747 C743 1.353 . S
C748 H718 0.930 . S
C748 N749 1.330 . S
C748 C750 1.446 . S
N749 Co708 2.151 . S
N749 C748 1.330 . S
N749 C753 1.418 . S
C750 H729 0.929 . S
C750 C748 1.446 . S
C750 C751 1.332 . S
C751 H731 0.931 . S
C751 C750 1.332 . S
C751 C752 1.267 . S
C752 H720 0.929 . S
C752 C751 1.267 . S
C752 C753 1.251 . S
C753 H723 0.929 . S
C753 N749 1.418 . S
C753 C752 1.251 . S
C754 H721 0.930 . S
C754 C756 1.406 . S
C754 C759 1.261 . S
C755 H722 0.930 . S
C755 N757 1.325 . S
C755 C758 1.357 . S
C756 H724 0.928 . S
C756 C754 1.406 . S
C756 N757 1.261 . S
N757 Co708 2.214 . S
N757 C755 1.325 . S
N757 C756 1.261 . S
C758 H728 0.931 . S
C758 C755 1.357 . S
C758 C759 1.312 . S
C759 H730 0.930 . S
C759 C754 1.261 . S
C759 C758 1.312 . S
C760 O732 1.214 . S
C760 O740 1.234 . S
C761 H733 0.929 . S
C761 C764 1.391 . S
C761 C766 1.391 . S
C762 H734 0.929 . S
C762 C763 1.390 . S
C762 N765 1.391 . S
C763 H735 0.930 . S
C763 C762 1.390 . S
C763 C764 1.392 . S
C764 H736 0.929 . S
C764 C761 1.391 . S
C764 C763 1.392 . S
N765 Co709 2.257 . S
N765 C762 1.391 . S
N765 C766 1.388 . S
C766 H737 0.930 . S
C766 C761 1.391 . S
C766 N765 1.388 . S
Co767 O769 2.143 . S
Co767 O775 2.074 . S
Co767 O778 2.093 . S
Co767 O791 2.097 . S
Co767 N808 2.151 . S
Co767 N816 2.214 . S
Co768 O769 2.160 . S
Co768 O774 2.058 . S
Co768 O784 2.057 . S
Co768 O799 2.037 . S
Co768 N803 2.145 . S
Co768 N824 2.257 . S
O769 Co767 2.143 . S
O769 Co768 2.160 . S
C770 O771 1.278 . S
C770 O778 1.224 . S
O771 C770 1.278 . S
C772 O773 1.245 . S
C772 O784 1.232 . S
O773 C772 1.245 . S
O774 Co768 2.058 . S
O774 C800 1.269 . S
O775 Co767 2.074 . S
O775 C800 1.257 . S
H776 C801 0.930 . S
H777 C807 0.930 . S
O778 Co767 2.093 . S
O778 C770 1.224 . S
H779 C811 0.929 . S
H780 C813 0.930 . S
H781 C814 0.930 . S
H782 C812 0.929 . S
H783 C815 0.928 . S
O784 Co768 2.057 . S
O784 C772 1.232 . S
H785 C804 0.929 . S
H786 C805 0.929 . S
H787 C817 0.931 . S
H788 C809 0.929 . S
H789 C818 0.930 . S
H790 C810 0.931 . S
O791 Co767 2.097 . S
O791 C819 1.214 . S
H792 C820 0.929 . S
H793 C821 0.929 . S
H794 C822 0.930 . S
H795 C823 0.929 . S
H796 C825 0.930 . S
H797 C802 0.930 . S
H798 C806 0.930 . S
O799 Co768 2.037 . S
O799 C819 1.234 . S
C800 O774 1.269 . S
C800 O775 1.257 . S
C801 H776 0.930 . S
C801 C804 1.388 . S
C801 C806 1.418 . S
C802 H797 0.930 . S
C802 C805 1.404 . S
C802 C806 1.353 . S
N803 Co768 2.145 . S
N803 C804 1.397 . S
N803 C805 1.334 . S
C804 H785 0.929 . S
C804 C801 1.388 . S
C804 N803 1.397 . S
C805 H786 0.929 . S
C805 C802 1.404 . S
C805 N803 1.334 . S
C806 H798 0.930 . S
C806 C801 1.418 . S
C806 C802 1.353 . S
C807 H777 0.930 . S
C807 N808 1.330 . S
C807 C809 1.446 . S
N808 Co767 2.151 . S
N808 C807 1.330 . S
N808 C812 1.418 . S
C809 H788 0.929 . S
C809 C807 1.446 . S
C809 C810 1.332 . S
C810 H790 0.931 . S
C810 C809 1.332 . S
C810 C811 1.267 . S
C811 H779 0.929 . S
C811 C810 1.267 . S
C811 C812 1.251 . S
C812 H782 0.929 . S
C812 N808 1.418 . S
C812 C811 1.251 . S
C813 H780 0.930 . S
C813 C815 1.406 . S
C813 C818 1.261 . S
C814 H781 0.930 . S
C814 N816 1.325 . S
C814 C817 1.357 . S
C815 H783 0.928 . S
C815 C813 1.406 . S
C815 N816 1.261 . S
N816 Co767 2.214 . S
N816 C814 1.325 . S
N816 C815 1.261 . S
C817 H787 0.931 . S
C817 C814 1.357 . S
C817 C818 1.312 . S
C818 H789 0.930 . S
C818 C813 1.261 . S
C818 C817 1.312 . S
C819 O791 1.214 . S
C819 O799 1.234 . S
C820 H792 0.929 . S
C820 C823 1.391 . S
C820 C825 1.391 . S
C821 H793 0.929 . S
C821 C822 1.390 . S
C821 N824 1.391 . S
C822 H794 0.930 . S
C822 C821 1.390 . S
C822 C823 1.392 . S
C823 H795 0.929 . S
C823 C820 1.391 . S
C823 C822 1.392 . S
N824 Co768 2.257 . S
N824 C821 1.391 . S
N824 C825 1.388 . S
C825 H796 0.930 . S
C825 C820 1.391 . S
C825 N824 1.388 . S
Co826 O828 2.143 . S
Co826 O834 2.074 . S
Co826 O837 2.093 . S
Co826 O850 2.097 . S
Co826 N867 2.151 . S
Co826 N875 2.214 . S
Co827 O828 2.160 . S
Co827 O833 2.058 . S
Co827 O843 2.057 . S
Co827 O858 2.037 . S
Co827 N862 2.145 . S
Co827 N883 2.257 . S
O828 Co826 2.143 . S
O828 Co827 2.160 . S
C829 O830 1.278 . S
C829 O837 1.224 . S
O830 C829 1.278 . S
C831 O832 1.245 . S
C831 O843 1.232 . S
O832 C831 1.245 . S
O833 Co827 2.058 . S
O833 C859 1.269 . S
O834 Co826 2.074 . S
O834 C859 1.257 . S
H835 C860 0.930 . S
H836 C866 0.930 . S
O837 Co826 2.093 . S
O837 C829 1.224 . S
H838 C870 0.929 . S
H839 C872 0.930 . S
H840 C873 0.930 . S
H841 C871 0.929 . S
H842 C874 0.928 . S
O843 Co827 2.057 . S
O843 C831 1.232 . S
H844 C863 0.929 . S
H845 C864 0.929 . S
H846 C876 0.931 . S
H847 C868 0.929 . S
H848 C877 0.930 . S
H849 C869 0.931 . S
O850 Co826 2.097 . S
O850 C878 1.214 . S
H851 C879 0.929 . S
H852 C880 0.929 . S
H853 C881 0.930 . S
H854 C882 0.929 . S
H855 C884 0.930 . S
H856 C861 0.930 . S
H857 C865 0.930 . S
O858 Co827 2.037 . S
O858 C878 1.234 . S
C859 O833 1.269 . S
C859 O834 1.257 . S
C860 H835 0.930 . S
C860 C863 1.388 . S
C860 C865 1.418 . S
C861 H856 0.930 . S
C861 C864 1.404 . S
C861 C865 1.353 . S
N862 Co827 2.145 . S
N862 C863 1.397 . S
N862 C864 1.334 . S
C863 H844 0.929 . S
C863 C860 1.388 . S
C863 N862 1.397 . S
C864 H845 0.929 . S
C864 C861 1.404 . S
C864 N862 1.334 . S
C865 H857 0.930 . S
C865 C860 1.418 . S
C865 C861 1.353 . S
C866 H836 0.930 . S
C866 N867 1.330 . S
C866 C868 1.446 . S
N867 Co826 2.151 . S
N867 C866 1.330 . S
N867 C871 1.418 . S
C868 H847 0.929 . S
C868 C866 1.446 . S
C868 C869 1.332 . S
C869 H849 0.931 . S
C869 C868 1.332 . S
C869 C870 1.267 . S
C870 H838 0.929 . S
C870 C869 1.267 . S
C870 C871 1.251 . S
C871 H841 0.929 . S
C871 N867 1.418 . S
C871 C870 1.251 . S
C872 H839 0.930 . S
C872 C874 1.406 . S
C872 C877 1.261 . S
C873 H840 0.930 . S
C873 N875 1.325 . S
C873 C876 1.357 . S
C874 H842 0.928 . S
C874 C872 1.406 . S
C874 N875 1.261 . S
N875 Co826 2.214 . S
N875 C873 1.325 . S
N875 C874 1.261 . S
C876 H846 0.931 . S
C876 C873 1.357 . S
C876 C877 1.312 . S
C877 H848 0.930 . S
C877 C872 1.261 . S
C877 C876 1.312 . S
C878 O850 1.214 . S
C878 O858 1.234 . S
C879 H851 0.929 . S
C879 C882 1.391 . S
C879 C884 1.391 . S
C880 H852 0.929 . S
C880 C881 1.390 . S
C880 N883 1.391 . S
C881 H853 0.930 . S
C881 C880 1.390 . S
C881 C882 1.392 . S
C882 H854 0.929 . S
C882 C879 1.391 . S
C882 C881 1.392 . S
N883 Co827 2.257 . S
N883 C880 1.391 . S
N883 C884 1.388 . S
C884 H855 0.930 . S
C884 C879 1.391 . S
C884 N883 1.388 . S
Co885 O887 2.143 . S
Co885 O893 2.074 . S
Co885 O896 2.093 . S
Co885 O909 2.097 . S
Co885 N926 2.151 . S
Co885 N934 2.214 . S
Co886 O887 2.160 . S
Co886 O892 2.058 . S
Co886 O902 2.057 . S
Co886 O917 2.037 . S
Co886 N921 2.145 . S
Co886 N942 2.257 . S
O887 Co885 2.143 . S
O887 Co886 2.160 . S
C888 O889 1.278 . S
C888 O896 1.224 . S
O889 C888 1.278 . S
C890 O891 1.245 . S
C890 O902 1.232 . S
O891 C890 1.245 . S
O892 Co886 2.058 . S
O892 C918 1.269 . S
O893 Co885 2.074 . S
O893 C918 1.257 . S
H894 C919 0.930 . S
H895 C925 0.930 . S
O896 Co885 2.093 . S
O896 C888 1.224 . S
H897 C929 0.929 . S
H898 C931 0.930 . S
H899 C932 0.930 . S
H900 C930 0.929 . S
H901 C933 0.928 . S
O902 Co886 2.057 . S
O902 C890 1.232 . S
H903 C922 0.929 . S
H904 C923 0.929 . S
H905 C935 0.931 . S
H906 C927 0.929 . S
H907 C936 0.930 . S
H908 C928 0.931 . S
O909 Co885 2.097 . S
O909 C937 1.214 . S
H910 C938 0.929 . S
H911 C939 0.929 . S
H912 C940 0.930 . S
H913 C941 0.929 . S
H914 C943 0.930 . S
H915 C920 0.930 . S
H916 C924 0.930 . S
O917 Co886 2.037 . S
O917 C937 1.234 . S
C918 O892 1.269 . S
C918 O893 1.257 . S
C919 H894 0.930 . S
C919 C922 1.388 . S
C919 C924 1.418 . S
C920 H915 0.930 . S
C920 C923 1.404 . S
C920 C924 1.353 . S
N921 Co886 2.145 . S
N921 C922 1.397 . S
N921 C923 1.334 . S
C922 H903 0.929 . S
C922 C919 1.388 . S
C922 N921 1.397 . S
C923 H904 0.929 . S
C923 C920 1.404 . S
C923 N921 1.334 . S
C924 H916 0.930 . S
C924 C919 1.418 . S
C924 C920 1.353 . S
C925 H895 0.930 . S
C925 N926 1.330 . S
C925 C927 1.446 . S
N926 Co885 2.151 . S
N926 C925 1.330 . S
N926 C930 1.418 . S
C927 H906 0.929 . S
C927 C925 1.446 . S
C927 C928 1.332 . S
C928 H908 0.931 . S
C928 C927 1.332 . S
C928 C929 1.267 . S
C929 H897 0.929 . S
C929 C928 1.267 . S
C929 C930 1.251 . S
C930 H900 0.929 . S
C930 N926 1.418 . S
C930 C929 1.251 . S
C931 H898 0.930 . S
C931 C933 1.406 . S
C931 C936 1.261 . S
C932 H899 0.930 . S
C932 N934 1.325 . S
C932 C935 1.357 . S
C933 H901 0.928 . S
C933 C931 1.406 . S
C933 N934 1.261 . S
N934 Co885 2.214 . S
N934 C932 1.325 . S
N934 C933 1.261 . S
C935 H905 0.931 . S
C935 C932 1.357 . S
C935 C936 1.312 . S
C936 H907 0.930 . S
C936 C931 1.261 . S
C936 C935 1.312 . S
C937 O909 1.214 . S
C937 O917 1.234 . S
C938 H910 0.929 . S
C938 C941 1.391 . S
C938 C943 1.391 . S
C939 H911 0.929 . S
C939 C940 1.390 . S
C939 N942 1.391 . S
C940 H912 0.930 . S
C940 C939 1.390 . S
C940 C941 1.392 . S
C941 H913 0.929 . S
C941 C938 1.391 . S
C941 C940 1.392 . S
N942 Co886 2.257 . S
N942 C939 1.391 . S
N942 C943 1.388 . S
C943 H914 0.930 . S
C943 C938 1.391 . S
C943 N942 1.388 . S
H944 C950 0.930 . S
H945 C953 0.930 . S
H946 C954 0.930 . S
H947 C955 0.930 . S
H948 C958 0.930 . S
H949 C959 0.930 . S
C950 H944 0.930 . S
C950 C951 1.355 . S
C950 C952 1.415 . S
C951 C950 1.355 . S
C951 C953 1.419 . S
C952 C950 1.415 . S
C952 C957 1.425 . S
C952 C959 1.409 . S
C953 H945 0.930 . S
C953 C951 1.419 . S
C953 C954 1.362 . S
C954 H946 0.930 . S
C954 C953 1.362 . S
C954 C957 1.409 . S
C955 H947 0.930 . S
C955 C956 1.355 . S
C955 C957 1.415 . S
C956 C955 1.355 . S
C956 C958 1.419 . S
C957 C952 1.425 . S
C957 C954 1.409 . S
C957 C955 1.415 . S
C958 H948 0.930 . S
C958 C956 1.419 . S
C958 C959 1.362 . S
C959 H949 0.930 . S
C959 C952 1.409 . S
C959 C958 1.362 . S
H960 C966 0.930 . S
H961 C969 0.930 . S
H962 C970 0.930 . S
H963 C971 0.930 . S
H964 C974 0.930 . S
H965 C975 0.930 . S
C966 H960 0.930 . S
C966 C967 1.355 . S
C966 C968 1.415 . S
C967 C966 1.355 . S
C967 C969 1.419 . S
C968 C966 1.415 . S
C968 C973 1.425 . S
C968 C975 1.409 . S
C969 H961 0.930 . S
C969 C967 1.419 . S
C969 C970 1.362 . S
C970 H962 0.930 . S
C970 C969 1.362 . S
C970 C973 1.409 . S
C971 H963 0.930 . S
C971 C972 1.355 . S
C971 C973 1.415 . S
C972 C971 1.355 . S
C972 C974 1.419 . S
C973 C968 1.425 . S
C973 C970 1.409 . S
C973 C971 1.415 . S
C974 H964 0.930 . S
C974 C972 1.419 . S
C974 C975 1.362 . S
C975 H965 0.930 . S
C975 C968 1.409 . S
C975 C974 1.362 . S
H976 C982 0.930 . S
H977 C985 0.930 . S
H978 C986 0.930 . S
H979 C987 0.930 . S
H980 C990 0.930 . S
H981 C991 0.930 . S
C982 H976 0.930 . S
C982 C983 1.355 . S
C982 C984 1.415 . S
C983 C982 1.355 . S
C983 C985 1.419 . S
C984 C982 1.415 . S
C984 C989 1.425 . S
C984 C991 1.409 . S
C985 H977 0.930 . S
C985 C983 1.419 . S
C985 C986 1.362 . S
C986 H978 0.930 . S
C986 C985 1.362 . S
C986 C989 1.409 . S
C987 H979 0.930 . S
C987 C988 1.355 . S
C987 C989 1.415 . S
C988 C987 1.355 . S
C988 C990 1.419 . S
C989 C984 1.425 . S
C989 C986 1.409 . S
C989 C987 1.415 . S
C990 H980 0.930 . S
C990 C988 1.419 . S
C990 C991 1.362 . S
C991 H981 0.930 . S
C991 C984 1.409 . S
C991 C990 1.362 . S
H992 C998 0.930 . S
H993 C1001 0.930 . S
H994 C1002 0.930 . S
H995 C1003 0.930 . S
H996 C1006 0.930 . S
H997 C1007 0.930 . S
C998 H992 0.930 . S
C998 C999 1.355 . S
C998 C1000 1.415 . S
C999 C998 1.355 . S
C999 C1001 1.419 . S
C1000 C998 1.415 . S
C1000 C1005 1.425 . S
C1000 C1007 1.409 . S
C1001 H993 0.930 . S
C1001 C999 1.419 . S
C1001 C1002 1.362 . S
C1002 H994 0.930 . S
C1002 C1001 1.362 . S
C1002 C1005 1.409 . S
C1003 H995 0.930 . S
C1003 C1004 1.355 . S
C1003 C1005 1.415 . S
C1004 C1003 1.355 . S
C1004 C1006 1.419 . S
C1005 C1000 1.425 . S
C1005 C1002 1.409 . S
C1005 C1003 1.415 . S
C1006 H996 0.930 . S
C1006 C1004 1.419 . S
C1006 C1007 1.362 . S
C1007 H997 0.930 . S
C1007 C1000 1.409 . S
C1007 C1006 1.362 . S
H1008 C1014 0.930 . S
H1009 C1017 0.930 . S
H1010 C1018 0.930 . S
H1011 C1019 0.930 . S
H1012 C1022 0.930 . S
H1013 C1023 0.930 . S
C1014 H1008 0.930 . S
C1014 C1015 1.355 . S
C1014 C1016 1.415 . S
C1015 C1014 1.355 . S
C1015 C1017 1.419 . S
C1016 C1014 1.415 . S
C1016 C1021 1.425 . S
C1016 C1023 1.409 . S
C1017 H1009 0.930 . S
C1017 C1015 1.419 . S
C1017 C1018 1.362 . S
C1018 H1010 0.930 . S
C1018 C1017 1.362 . S
C1018 C1021 1.409 . S
C1019 H1011 0.930 . S
C1019 C1020 1.355 . S
C1019 C1021 1.415 . S
C1020 C1019 1.355 . S
C1020 C1022 1.419 . S
C1021 C1016 1.425 . S
C1021 C1018 1.409 . S
C1021 C1019 1.415 . S
C1022 H1012 0.930 . S
C1022 C1020 1.419 . S
C1022 C1023 1.362 . S
C1023 H1013 0.930 . S
C1023 C1016 1.409 . S
C1023 C1022 1.362 . S
H1024 C1030 0.930 . S
H1025 C1033 0.930 . S
H1026 C1034 0.930 . S
H1027 C1035 0.930 . S
H1028 C1038 0.930 . S
H1029 C1039 0.930 . S
C1030 H1024 0.930 . S
C1030 C1031 1.355 . S
C1030 C1032 1.415 . S
C1031 C1030 1.355 . S
C1031 C1033 1.419 . S
C1032 C1030 1.415 . S
C1032 C1037 1.425 . S
C1032 C1039 1.409 . S
C1033 H1025 0.930 . S
C1033 C1031 1.419 . S
C1033 C1034 1.362 . S
C1034 H1026 0.930 . S
C1034 C1033 1.362 . S
C1034 C1037 1.409 . S
C1035 H1027 0.930 . S
C1035 C1036 1.355 . S
C1035 C1037 1.415 . S
C1036 C1035 1.355 . S
C1036 C1038 1.419 . S
C1037 C1032 1.425 . S
C1037 C1034 1.409 . S
C1037 C1035 1.415 . S
C1038 H1028 0.930 . S
C1038 C1036 1.419 . S
C1038 C1039 1.362 . S
C1039 H1029 0.930 . S
C1039 C1032 1.409 . S
C1039 C1038 1.362 . S
H1040 C1046 0.930 . S
H1041 C1049 0.930 . S
H1042 C1050 0.930 . S
H1043 C1051 0.930 . S
H1044 C1054 0.930 . S
H1045 C1055 0.930 . S
C1046 H1040 0.930 . S
C1046 C1047 1.355 . S
C1046 C1048 1.415 . S
C1047 C1046 1.355 . S
C1047 C1049 1.419 . S
C1048 C1046 1.415 . S
C1048 C1053 1.425 . S
C1048 C1055 1.409 . S
C1049 H1041 0.930 . S
C1049 C1047 1.419 . S
C1049 C1050 1.362 . S
C1050 H1042 0.930 . S
C1050 C1049 1.362 . S
C1050 C1053 1.409 . S
C1051 H1043 0.930 . S
C1051 C1052 1.355 . S
C1051 C1053 1.415 . S
C1052 C1051 1.355 . S
C1052 C1054 1.419 . S
C1053 C1048 1.425 . S
C1053 C1050 1.409 . S
C1053 C1051 1.415 . S
C1054 H1044 0.930 . S
C1054 C1052 1.419 . S
C1054 C1055 1.362 . S
C1055 H1045 0.930 . S
C1055 C1048 1.409 . S
C1055 C1054 1.362 . S
H1056 C1062 0.930 . S
H1057 C1065 0.930 . S
H1058 C1066 0.930 . S
H1059 C1067 0.930 . S
H1060 C1070 0.930 . S
H1061 C1071 0.930 . S
C1062 H1056 0.930 . S
C1062 C1063 1.355 . S
C1062 C1064 1.415 . S
C1063 C1062 1.355 . S
C1063 C1065 1.419 . S
C1064 C1062 1.415 . S
C1064 C1069 1.425 . S
C1064 C1071 1.409 . S
C1065 H1057 0.930 . S
C1065 C1063 1.419 . S
C1065 C1066 1.362 . S
C1066 H1058 0.930 . S
C1066 C1065 1.362 . S
C1066 C1069 1.409 . S
C1067 H1059 0.930 . S
C1067 C1068 1.355 . S
C1067 C1069 1.415 . S
C1068 C1067 1.355 . S
C1068 C1070 1.419 . S
C1069 C1064 1.425 . S
C1069 C1066 1.409 . S
C1069 C1067 1.415 . S
C1070 H1060 0.930 . S
C1070 C1068 1.419 . S
C1070 C1071 1.362 . S
C1071 H1061 0.930 . S
C1071 C1064 1.409 . S
C1071 C1070 1.362 . S
H1072 C1078 0.930 . S
H1073 C1081 0.930 . S
H1074 C1082 0.930 . S
H1075 C1083 0.930 . S
H1076 C1086 0.930 . S
H1077 C1087 0.930 . S
C1078 H1072 0.930 . S
C1078 C1079 1.355 . S
C1078 C1080 1.415 . S
C1079 C1078 1.355 . S
C1079 C1081 1.419 . S
C1080 C1078 1.415 . S
C1080 C1085 1.425 . S
C1080 C1087 1.409 . S
C1081 H1073 0.930 . S
C1081 C1079 1.419 . S
C1081 C1082 1.362 . S
C1082 H1074 0.930 . S
C1082 C1081 1.362 . S
C1082 C1085 1.409 . S
C1083 H1075 0.930 . S
C1083 C1084 1.355 . S
C1083 C1085 1.415 1_554 S
C1084 C1083 1.355 . S
C1084 C1086 1.419 . S
C1085 C1080 1.425 . S
C1085 C1082 1.409 . S
C1085 C1083 1.415 1_556 S
C1086 H1076 0.930 . S
C1086 C1084 1.419 . S
C1086 C1087 1.362 1_554 S
C1087 H1077 0.930 . S
C1087 C1080 1.409 . S
C1087 C1086 1.362 1_556 S
H1088 C1094 0.930 . S
H1089 C1097 0.930 . S
H1090 C1098 0.930 . S
H1091 C1099 0.930 . S
H1092 C1102 0.930 . S
H1093 C1103 0.930 . S
C1094 H1088 0.930 . S
C1094 C1095 1.355 . S
C1094 C1096 1.415 1_556 S
C1095 C1094 1.355 . S
C1095 C1097 1.419 . S
C1096 C1094 1.415 1_554 S
C1096 C1101 1.425 . S
C1096 C1103 1.409 . S
C1097 H1089 0.930 . S
C1097 C1095 1.419 . S
C1097 C1098 1.362 1_556 S
C1098 H1090 0.930 . S
C1098 C1097 1.362 1_554 S
C1098 C1101 1.409 . S
C1099 H1091 0.930 . S
C1099 C1100 1.355 . S
C1099 C1101 1.415 . S
C1100 C1099 1.355 . S
C1100 C1102 1.419 . S
C1101 C1096 1.425 . S
C1101 C1098 1.409 . S
C1101 C1099 1.415 . S
C1102 H1092 0.930 . S
C1102 C1100 1.419 . S
C1102 C1103 1.362 . S
C1103 H1093 0.930 . S
C1103 C1096 1.409 . S
C1103 C1102 1.362 . S
H1104 C1110 0.930 . S
H1105 C1113 0.930 . S
H1106 C1114 0.930 . S
H1107 C1115 0.930 . S
H1108 C1118 0.930 . S
H1109 C1119 0.930 . S
C1110 H1104 0.930 . S
C1110 C1111 1.355 . S
C1110 C1112 1.415 1_556 S
C1111 C1110 1.355 . S
C1111 C1113 1.419 . S
C1112 C1110 1.415 1_554 S
C1112 C1117 1.425 . S
C1112 C1119 1.409 . S
C1113 H1105 0.930 . S
C1113 C1111 1.419 . S
C1113 C1114 1.362 . S
C1114 H1106 0.930 . S
C1114 C1113 1.362 . S
C1114 C1117 1.409 1_556 S
C1115 H1107 0.930 . S
C1115 C1116 1.355 . S
C1115 C1117 1.415 . S
C1116 C1115 1.355 . S
C1116 C1118 1.419 . S
C1117 C1112 1.425 . S
C1117 C1114 1.409 1_554 S
C1117 C1115 1.415 . S
C1118 H1108 0.930 . S
C1118 C1116 1.419 . S
C1118 C1119 1.362 . S
C1119 H1109 0.930 . S
C1119 C1112 1.409 . S
C1119 C1118 1.362 . S
H1120 C1126 0.930 . S
H1121 C1129 0.930 . S
H1122 C1130 0.933 . S
H1123 C1131 0.930 . S
H1124 C1134 0.930 . S
H1125 C1135 0.930 . S
C1126 H1120 0.930 . S
C1126 C1127 1.355 . S
C1126 C1128 1.415 1_554 S
C1127 C1126 1.355 . S
C1127 C1129 1.419 . S
C1128 C1126 1.415 1_556 S
C1128 C1133 1.425 . S
C1128 C1135 1.409 . S
C1129 H1121 0.930 . S
C1129 C1127 1.419 . S
C1129 C1130 1.351 1_554 S
C1130 H1122 0.933 . S
C1130 C1129 1.351 1_556 S
C1130 C1133 1.418 . S
C1131 H1123 0.930 . S
C1131 C1132 1.355 . S
C1131 C1133 1.415 . S
C1132 C1131 1.355 . S
C1132 C1134 1.419 . S
C1133 C1128 1.425 . S
C1133 C1130 1.418 . S
C1133 C1131 1.415 . S
C1134 H1124 0.930 . S
C1134 C1132 1.419 . S
C1134 C1135 1.362 . S
C1135 H1125 0.930 . S
C1135 C1128 1.409 . S
C1135 C1134 1.362 . S
H1136 C1142 0.930 . S
H1137 C1145 0.930 . S
H1138 C1146 0.930 1_655 S
H1139 C1147 0.930 . S
H1140 C1150 0.930 . S
H1141 C1151 0.930 . S
C1142 H1136 0.930 . S
C1142 C1143 1.355 . S
C1142 C1144 1.415 . S
C1143 C1142 1.355 . S
C1143 C1145 1.419 . S
C1144 C1142 1.415 . S
C1144 C1149 1.425 1_455 S
C1144 C1151 1.409 . S
C1145 H1137 0.930 . S
C1145 C1143 1.419 . S
C1145 C1146 1.362 . S
C1146 H1138 0.930 1_455 S
C1146 C1145 1.362 . S
C1146 C1149 1.409 1_455 S
C1147 H1139 0.930 . S
C1147 C1148 1.355 . S
C1147 C1149 1.415 . S
C1148 C1147 1.355 . S
C1148 C1150 1.419 . S
C1149 C1144 1.425 1_655 S
C1149 C1146 1.409 1_655 S
C1149 C1147 1.415 . S
C1150 H1140 0.930 . S
C1150 C1148 1.419 . S
C1150 C1151 1.362 1_655 S
C1151 H1141 0.930 . S
C1151 C1144 1.409 . S
C1151 C1150 1.362 1_455 S
H1152 C1158 0.930 . S
H1153 C1161 0.930 . S
H1154 C1162 0.930 . S
H1155 C1163 0.930 . S
H1156 C1166 0.930 . S
H1157 C1167 0.930 . S
C1158 H1152 0.930 . S
C1158 C1159 1.355 . S
C1158 C1160 1.415 1_565 S
C1159 C1158 1.355 . S
C1159 C1161 1.419 . S
C1160 C1158 1.415 1_545 S
C1160 C1165 1.425 . S
C1160 C1167 1.409 . S
C1161 H1153 0.930 . S
C1161 C1159 1.419 . S
C1161 C1162 1.362 1_565 S
C1162 H1154 0.930 . S
C1162 C1161 1.362 1_545 S
C1162 C1165 1.409 . S
C1163 H1155 0.930 . S
C1163 C1164 1.355 . S
C1163 C1165 1.415 . S
C1164 C1163 1.355 . S
C1164 C1166 1.419 . S
C1165 C1160 1.425 . S
C1165 C1162 1.409 . S
C1165 C1163 1.415 . S
C1166 H1156 0.930 . S
C1166 C1164 1.419 . S
C1166 C1167 1.362 . S
C1167 H1157 0.930 . S
C1167 C1160 1.409 . S
C1167 C1166 1.362 . S
H1168 C1174 0.930 . S
H1169 C1177 0.930 . S
H1170 C1178 0.930 . S
H1171 C1179 0.930 . S
H1172 C1182 0.930 . S
H1173 C1183 0.930 . S
C1174 H1168 0.930 . S
C1174 C1175 1.355 . S
C1174 C1176 1.415 1_655 S
C1175 C1174 1.355 . S
C1175 C1177 1.419 . S
C1176 C1174 1.415 1_455 S
C1176 C1181 1.425 . S
C1176 C1183 1.409 . S
C1177 H1169 0.930 . S
C1177 C1175 1.419 . S
C1177 C1178 1.362 . S
C1178 H1170 0.930 . S
C1178 C1177 1.362 . S
C1178 C1181 1.409 1_655 S
C1179 H1171 0.930 . S
C1179 C1180 1.355 . S
C1179 C1181 1.415 . S
C1180 C1179 1.355 . S
C1180 C1182 1.419 . S
C1181 C1176 1.425 . S
C1181 C1178 1.409 1_455 S
C1181 C1179 1.415 . S
C1182 H1172 0.930 . S
C1182 C1180 1.419 . S
C1182 C1183 1.362 . S
C1183 H1173 0.930 . S
C1183 C1176 1.409 . S
C1183 C1182 1.362 . S
H1184 C1190 0.930 . S
H1185 C1193 0.930 . S
H1186 C1194 0.930 . S
H1187 C1195 0.930 . S
H1188 C1198 0.930 . S
H1189 C1199 0.930 . S
C1190 H1184 0.930 . S
C1190 C1191 1.355 . S
C1190 C1192 1.415 1_545 S
C1191 C1190 1.355 . S
C1191 C1193 1.419 . S
C1192 C1190 1.415 1_565 S
C1192 C1197 1.425 . S
C1192 C1199 1.409 . S
C1193 H1185 0.930 . S
C1193 C1191 1.419 . S
C1193 C1194 1.362 1_545 S
C1194 H1186 0.930 . S
C1194 C1193 1.362 1_565 S
C1194 C1197 1.409 . S
C1195 H1187 0.930 . S
C1195 C1196 1.355 . S
C1195 C1197 1.415 . S
C1196 C1195 1.355 . S
C1196 C1198 1.419 . S
C1197 C1192 1.425 . S
C1197 C1194 1.409 . S
C1197 C1195 1.415 . S
C1198 H1188 0.930 . S
C1198 C1196 1.419 . S
C1198 C1199 1.362 . S
C1199 H1189 0.930 . S
C1199 C1192 1.409 . S
C1199 C1198 1.362 . S
H1200 C1206 0.930 . S
H1201 C1209 0.930 . S
H1202 C1210 0.930 . S
H1203 C1211 0.930 . S
H1204 C1214 0.930 . S
H1205 C1215 0.930 1_655 S
C1206 H1200 0.930 . S
C1206 C1207 1.355 . S
C1206 C1208 1.415 . S
C1207 C1206 1.355 . S
C1207 C1209 1.419 . S
C1208 C1206 1.415 . S
C1208 C1213 1.425 . S
C1208 C1215 1.409 1_655 S
C1209 H1201 0.930 . S
C1209 C1207 1.419 . S
C1209 C1210 1.362 . S
C1210 H1202 0.930 . S
C1210 C1209 1.362 . S
C1210 C1213 1.409 . S
C1211 H1203 0.930 . S
C1211 C1212 1.355 . S
C1211 C1213 1.415 1_455 S
C1212 C1211 1.355 . S
C1212 C1214 1.419 . S
C1213 C1208 1.425 . S
C1213 C1210 1.409 . S
C1213 C1211 1.415 1_655 S
C1214 H1204 0.930 . S
C1214 C1212 1.419 . S
C1214 C1215 1.362 . S
C1215 H1205 0.930 1_455 S
C1215 C1208 1.409 1_455 S
C1215 C1214 1.362 . S
H1216 C1222 0.930 . S
H1217 C1225 0.930 . S
H1218 C1226 0.930 . S
H1219 C1227 0.930 . S
H1220 C1230 0.930 . S
H1221 C1231 0.930 . S
C1222 H1216 0.930 . S
C1222 C1223 1.355 . S
C1222 C1224 1.415 . S
C1223 C1222 1.355 . S
C1223 C1225 1.419 . S
C1224 C1222 1.415 . S
C1224 C1229 1.425 . S
C1224 C1231 1.409 . S
C1225 H1217 0.930 . S
C1225 C1223 1.419 . S
C1225 C1226 1.362 . S
C1226 H1218 0.930 . S
C1226 C1225 1.362 . S
C1226 C1229 1.409 . S
C1227 H1219 0.930 . S
C1227 C1228 1.355 . S
C1227 C1229 1.415 1_545 S
C1228 C1227 1.355 . S
C1228 C1230 1.419 . S
C1229 C1224 1.425 . S
C1229 C1226 1.409 . S
C1229 C1227 1.415 1_565 S
C1230 H1220 0.930 . S
C1230 C1228 1.419 . S
C1230 C1231 1.362 1_545 S
C1231 H1221 0.930 . S
C1231 C1224 1.409 . S
C1231 C1230 1.362 1_565 S
H1232 C1238 0.930 . S
H1233 C1241 0.930 . S
H1234 C1242 0.930 . S
H1235 C1243 0.930 . S
H1236 C1246 0.930 . S
H1237 C1247 0.930 1_455 S
C1238 H1232 0.930 . S
C1238 C1239 1.355 . S
C1238 C1240 1.415 . S
C1239 C1238 1.355 . S
C1239 C1241 1.419 . S
C1240 C1238 1.415 . S
C1240 C1245 1.425 1_455 S
C1240 C1247 1.409 1_455 S
C1241 H1233 0.930 . S
C1241 C1239 1.419 . S
C1241 C1242 1.362 1_455 S
C1242 H1234 0.930 . S
C1242 C1241 1.362 1_655 S
C1242 C1245 1.409 . S
C1243 H1235 0.930 . S
C1243 C1244 1.355 . S
C1243 C1245 1.415 . S
C1244 C1243 1.355 . S
C1244 C1246 1.419 . S
C1245 C1240 1.425 1_655 S
C1245 C1242 1.409 . S
C1245 C1243 1.415 . S
C1246 H1236 0.930 . S
C1246 C1244 1.419 . S
C1246 C1247 1.362 . S
C1247 H1237 0.930 1_655 S
C1247 C1240 1.409 1_655 S
C1247 C1246 1.362 . S
H1248 C1254 0.930 . S
H1249 C1257 0.930 . S
H1250 C1258 0.930 . S
H1251 C1259 0.930 . S
H1252 C1262 0.930 . S
H1253 C1263 0.930 . S
C1254 H1248 0.930 . S
C1254 C1255 1.355 . S
C1254 C1256 1.415 1_565 S
C1255 C1254 1.355 . S
C1255 C1257 1.419 . S
C1256 C1254 1.415 1_545 S
C1256 C1261 1.425 . S
C1256 C1263 1.409 . S
C1257 H1249 0.930 . S
C1257 C1255 1.419 . S
C1257 C1258 1.362 1_565 S
C1258 H1250 0.930 . S
C1258 C1257 1.362 1_545 S
C1258 C1261 1.409 . S
C1259 H1251 0.930 . S
C1259 C1260 1.355 . S
C1259 C1261 1.415 . S
C1260 C1259 1.355 . S
C1260 C1262 1.419 . S
C1261 C1256 1.425 . S
C1261 C1258 1.409 . S
C1261 C1259 1.415 . S
C1262 H1252 0.930 . S
C1262 C1260 1.419 . S
C1262 C1263 1.362 . S
C1263 H1253 0.930 . S
C1263 C1256 1.409 . S
C1263 C1262 1.362 . S
H1264 C1270 0.930 . S
H1265 C1273 0.930 . S
H1266 C1274 0.930 . S
H1267 C1275 0.930 . S
H1268 C1278 0.930 . S
H1269 C1279 0.930 . S
C1270 H1264 0.930 . S
C1270 C1271 1.355 . S
C1270 C1272 1.415 . S
C1271 C1270 1.355 . S
C1271 C1273 1.419 . S
C1272 C1270 1.415 . S
C1272 C1277 1.425 . S
C1272 C1279 1.409 . S
C1273 H1265 0.930 . S
C1273 C1271 1.419 . S
C1273 C1274 1.362 . S
C1274 H1266 0.930 . S
C1274 C1273 1.362 . S
C1274 C1277 1.409 . S
C1275 H1267 0.930 . S
C1275 C1276 1.355 . S
C1275 C1277 1.415 . S
C1276 C1275 1.355 . S
C1276 C1278 1.419 . S
C1277 C1272 1.425 . S
C1277 C1274 1.409 . S
C1277 C1275 1.415 . S
C1278 H1268 0.930 . S
C1278 C1276 1.419 . S
C1278 C1279 1.362 . S
C1279 H1269 0.930 . S
C1279 C1272 1.409 . S
C1279 C1278 1.362 . S
H1280 C1286 0.930 . S
H1281 C1289 0.930 . S
H1282 C1290 0.930 . S
H1283 C1291 0.930 . S
H1284 C1294 0.930 . S
H1285 C1295 0.930 . S
C1286 H1280 0.930 . S
C1286 C1287 1.355 . S
C1286 C1288 1.415 . S
C1287 C1286 1.355 . S
C1287 C1289 1.419 . S
C1288 C1286 1.415 . S
C1288 C1293 1.425 . S
C1288 C1295 1.409 . S
C1289 H1281 0.930 . S
C1289 C1287 1.419 . S
C1289 C1290 1.362 . S
C1290 H1282 0.930 . S
C1290 C1289 1.362 . S
C1290 C1293 1.409 . S
C1291 H1283 0.930 . S
C1291 C1292 1.355 . S
C1291 C1293 1.415 . S
C1292 C1291 1.355 . S
C1292 C1294 1.419 . S
C1293 C1288 1.425 . S
C1293 C1290 1.409 . S
C1293 C1291 1.415 . S
C1294 H1284 0.930 . S
C1294 C1292 1.419 . S
C1294 C1295 1.362 . S
C1295 H1285 0.930 . S
C1295 C1288 1.409 . S
C1295 C1294 1.362 . S
H1296 C1302 0.930 . S
H1297 C1305 0.930 . S
H1298 C1306 0.930 . S
H1299 C1307 0.930 . S
H1300 C1310 0.930 . S
H1301 C1311 0.930 . S
C1302 H1296 0.930 . S
C1302 C1303 1.355 . S
C1302 C1304 1.415 . S
C1303 C1302 1.355 . S
C1303 C1305 1.419 . S
C1304 C1302 1.415 . S
C1304 C1309 1.425 . S
C1304 C1311 1.409 . S
C1305 H1297 0.930 . S
C1305 C1303 1.419 . S
C1305 C1306 1.362 . S
C1306 H1298 0.930 . S
C1306 C1305 1.362 . S
C1306 C1309 1.409 . S
C1307 H1299 0.930 . S
C1307 C1308 1.355 . S
C1307 C1309 1.415 . S
C1308 C1307 1.355 . S
C1308 C1310 1.419 . S
C1309 C1304 1.425 . S
C1309 C1306 1.409 . S
C1309 C1307 1.415 . S
C1310 H1300 0.930 . S
C1310 C1308 1.419 . S
C1310 C1311 1.362 . S
C1311 H1301 0.930 . S
C1311 C1304 1.409 . S
C1311 C1310 1.362 . S
H1312 C1318 0.930 . S
H1313 C1321 0.930 . S
H1314 C1322 0.930 . S
H1315 C1323 0.930 . S
H1316 C1326 0.930 . S
H1317 C1327 0.930 . S
C1318 H1312 0.930 . S
C1318 C1319 1.355 . S
C1318 C1320 1.415 . S
C1319 C1318 1.355 . S
C1319 C1321 1.419 . S
C1320 C1318 1.415 . S
C1320 C1325 1.425 . S
C1320 C1327 1.409 . S
C1321 H1313 0.930 . S
C1321 C1319 1.419 . S
C1321 C1322 1.362 . S
C1322 H1314 0.930 . S
C1322 C1321 1.362 . S
C1322 C1325 1.409 . S
C1323 H1315 0.930 . S
C1323 C1324 1.355 . S
C1323 C1325 1.415 . S
C1324 C1323 1.355 . S
C1324 C1326 1.419 . S
C1325 C1320 1.425 . S
C1325 C1322 1.409 . S
C1325 C1323 1.415 . S
C1326 H1316 0.930 . S
C1326 C1324 1.419 . S
C1326 C1327 1.362 . S
C1327 H1317 0.930 . S
C1327 C1320 1.409 . S
C1327 C1326 1.362 . S
H1328 C1334 0.930 . S
H1329 C1337 0.930 . S
H1330 C1338 0.930 . S
H1331 C1339 0.930 . S
H1332 C1342 0.930 . S
H1333 C1343 0.930 . S
C1334 H1328 0.930 . S
C1334 C1335 1.355 . S
C1334 C1336 1.415 . S
C1335 C1334 1.355 . S
C1335 C1337 1.419 . S
C1336 C1334 1.415 . S
C1336 C1341 1.425 . S
C1336 C1343 1.409 . S
C1337 H1329 0.930 . S
C1337 C1335 1.419 . S
C1337 C1338 1.362 . S
C1338 H1330 0.930 . S
C1338 C1337 1.362 . S
C1338 C1341 1.409 . S
C1339 H1331 0.930 . S
C1339 C1340 1.355 . S
C1339 C1341 1.415 . S
C1340 C1339 1.355 . S
C1340 C1342 1.419 . S
C1341 C1336 1.425 . S
C1341 C1338 1.409 . S
C1341 C1339 1.415 . S
C1342 H1332 0.930 . S
C1342 C1340 1.419 . S
C1342 C1343 1.362 . S
C1343 H1333 0.930 . S
C1343 C1336 1.409 . S
C1343 C1342 1.362 . S
H1344 C1350 0.930 . S
H1345 C1353 0.930 . S
H1346 C1354 0.930 . S
H1347 C1355 0.930 . S
H1348 C1358 0.930 . S
H1349 C1359 0.930 . S
C1350 H1344 0.930 . S
C1350 C1351 1.355 . S
C1350 C1352 1.415 . S
C1351 C1350 1.355 . S
C1351 C1353 1.419 . S
C1352 C1350 1.415 . S
C1352 C1357 1.425 . S
C1352 C1359 1.409 . S
C1353 H1345 0.930 . S
C1353 C1351 1.419 . S
C1353 C1354 1.362 . S
C1354 H1346 0.930 . S
C1354 C1353 1.362 . S
C1354 C1357 1.409 . S
C1355 H1347 0.930 . S
C1355 C1356 1.355 . S
C1355 C1357 1.415 . S
C1356 C1355 1.355 . S
C1356 C1358 1.419 . S
C1357 C1352 1.425 . S
C1357 C1354 1.409 . S
C1357 C1355 1.415 . S
C1358 H1348 0.930 . S
C1358 C1356 1.419 . S
C1358 C1359 1.362 . S
C1359 H1349 0.930 . S
C1359 C1352 1.409 . S
C1359 C1358 1.362 . S
H1360 C1366 0.930 . S
H1361 C1369 0.930 . S
H1362 C1370 0.930 . S
H1363 C1371 0.930 . S
H1364 C1374 0.930 . S
H1365 C1375 0.930 . S
C1366 H1360 0.930 . S
C1366 C1367 1.355 . S
C1366 C1368 1.415 . S
C1367 C1366 1.355 . S
C1367 C1369 1.419 . S
C1368 C1366 1.415 . S
C1368 C1373 1.425 . S
C1368 C1375 1.409 . S
C1369 H1361 0.930 . S
C1369 C1367 1.419 . S
C1369 C1370 1.362 . S
C1370 H1362 0.930 . S
C1370 C1369 1.362 . S
C1370 C1373 1.409 . S
C1371 H1363 0.930 . S
C1371 C1372 1.355 . S
C1371 C1373 1.415 . S
C1372 C1371 1.355 . S
C1372 C1374 1.419 . S
C1373 C1368 1.425 . S
C1373 C1370 1.409 . S
C1373 C1371 1.415 . S
C1374 H1364 0.930 . S
C1374 C1372 1.419 . S
C1374 C1375 1.362 . S
C1375 H1365 0.930 . S
C1375 C1368 1.409 . S
C1375 C1374 1.362 . S
H1376 C1382 0.930 . S
H1377 C1385 0.930 . S
H1378 C1386 0.930 . S
H1379 C1387 0.930 . S
H1380 C1390 0.930 . S
H1381 C1391 0.930 . S
C1382 H1376 0.930 . S
C1382 C1383 1.355 . S
C1382 C1384 1.415 . S
C1383 C1382 1.355 . S
C1383 C1385 1.419 . S
C1384 C1382 1.415 . S
C1384 C1389 1.425 . S
C1384 C1391 1.409 . S
C1385 H1377 0.930 . S
C1385 C1383 1.419 . S
C1385 C1386 1.362 . S
C1386 H1378 0.930 . S
C1386 C1385 1.362 . S
C1386 C1389 1.409 . S
C1387 H1379 0.930 . S
C1387 C1388 1.355 . S
C1387 C1389 1.415 . S
C1388 C1387 1.355 . S
C1388 C1390 1.419 . S
C1389 C1384 1.425 . S
C1389 C1386 1.409 . S
C1389 C1387 1.415 . S
C1390 H1380 0.930 . S
C1390 C1388 1.419 . S
C1390 C1391 1.362 . S
C1391 H1381 0.930 . S
C1391 C1384 1.409 . S
C1391 C1390 1.362 . S
H1392 C1398 0.930 . S
H1393 C1401 0.930 . S
H1394 C1402 0.930 . S
H1395 C1403 0.930 . S
H1396 C1406 0.930 . S
H1397 C1407 0.930 . S
C1398 H1392 0.930 . S
C1398 C1399 1.355 . S
C1398 C1400 1.415 . S
C1399 C1398 1.355 . S
C1399 C1401 1.419 . S
C1400 C1398 1.415 . S
C1400 C1405 1.425 . S
C1400 C1407 1.409 . S
C1401 H1393 0.930 . S
C1401 C1399 1.419 . S
C1401 C1402 1.362 . S
C1402 H1394 0.930 . S
C1402 C1401 1.362 . S
C1402 C1405 1.409 . S
C1403 H1395 0.930 . S
C1403 C1404 1.355 . S
C1403 C1405 1.415 . S
C1404 C1403 1.355 . S
C1404 C1406 1.419 . S
C1405 C1400 1.425 . S
C1405 C1402 1.409 . S
C1405 C1403 1.415 . S
C1406 H1396 0.930 . S
C1406 C1404 1.419 . S
C1406 C1407 1.362 . S
C1407 H1397 0.930 . S
C1407 C1400 1.409 . S
C1407 C1406 1.362 . S
H1408 C1414 0.930 . S
H1409 C1417 0.930 . S
H1410 C1418 0.930 . S
H1411 C1419 0.930 . S
H1412 C1422 0.930 . S
H1413 C1423 0.930 . S
C1414 H1408 0.930 . S
C1414 C1415 1.355 . S
C1414 C1416 1.415 . S
C1415 C1414 1.355 . S
C1415 C1417 1.419 . S
C1416 C1414 1.415 . S
C1416 C1421 1.425 . S
C1416 C1423 1.409 . S
C1417 H1409 0.930 . S
C1417 C1415 1.419 . S
C1417 C1418 1.362 . S
C1418 H1410 0.930 . S
C1418 C1417 1.362 . S
C1418 C1421 1.409 . S
C1419 H1411 0.930 . S
C1419 C1420 1.355 . S
C1419 C1421 1.415 . S
C1420 C1419 1.355 . S
C1420 C1422 1.419 . S
C1421 C1416 1.425 . S
C1421 C1418 1.409 . S
C1421 C1419 1.415 . S
C1422 H1412 0.930 . S
C1422 C1420 1.419 . S
C1422 C1423 1.362 . S
C1423 H1413 0.930 . S
C1423 C1416 1.409 . S
C1423 C1422 1.362 . S
H1424 C1430 0.930 . S
H1425 C1433 0.930 . S
H1426 C1434 0.930 . S
H1427 C1435 0.930 . S
H1428 C1438 0.930 . S
H1429 C1439 0.930 . S
C1430 H1424 0.930 . S
C1430 C1431 1.355 . S
C1430 C1432 1.415 . S
C1431 C1430 1.355 . S
C1431 C1433 1.419 . S
C1432 C1430 1.415 . S
C1432 C1437 1.425 . S
C1432 C1439 1.409 . S
C1433 H1425 0.930 . S
C1433 C1431 1.419 . S
C1433 C1434 1.362 . S
C1434 H1426 0.930 . S
C1434 C1433 1.362 . S
C1434 C1437 1.409 . S
C1435 H1427 0.930 . S
C1435 C1436 1.355 . S
C1435 C1437 1.415 . S
C1436 C1435 1.355 . S
C1436 C1438 1.419 . S
C1437 C1432 1.425 . S
C1437 C1434 1.409 . S
C1437 C1435 1.415 . S
C1438 H1428 0.930 . S
C1438 C1436 1.419 . S
C1438 C1439 1.362 . S
C1439 H1429 0.930 . S
C1439 C1432 1.409 . S
C1439 C1438 1.362 . S
H1440 C1446 0.930 . S
H1441 C1449 0.930 . S
H1442 C1450 0.930 . S
H1443 C1451 0.930 . S
H1444 C1454 0.930 . S
H1445 C1455 0.930 . S
C1446 H1440 0.930 . S
C1446 C1447 1.355 . S
C1446 C1448 1.415 . S
C1447 C1446 1.355 . S
C1447 C1449 1.419 . S
C1448 C1446 1.415 . S
C1448 C1453 1.425 . S
C1448 C1455 1.409 . S
C1449 H1441 0.930 . S
C1449 C1447 1.419 . S
C1449 C1450 1.362 . S
C1450 H1442 0.930 . S
C1450 C1449 1.362 . S
C1450 C1453 1.409 . S
C1451 H1443 0.930 . S
C1451 C1452 1.355 . S
C1451 C1453 1.415 . S
C1452 C1451 1.355 . S
C1452 C1454 1.419 . S
C1453 C1448 1.425 . S
C1453 C1450 1.409 . S
C1453 C1451 1.415 . S
C1454 H1444 0.930 . S
C1454 C1452 1.419 . S
C1454 C1455 1.362 . S
C1455 H1445 0.930 . S
C1455 C1448 1.409 . S
C1455 C1454 1.362 . S
C951 C890 1.279 . S
C956 C5 1.284 . S
C967 C713 1.277 . S
C972 C64 1.279 . S
C983 C123 1.600 . S
C988 C772 1.537 . S
C999 C831 1.459 . S
C1004 C182 1.508 . S
C1015 C536 1.289 . S
C1020 C241 1.288 . S
C1031 C300 1.537 . S
C1036 C595 1.595 . S
C1047 C359 1.505 . S
C1052 C654 1.537 . S
C1063 C418 1.269 . S
C1068 C477 1.285 . S
C1079 C347 2.211 . S
C1084 C33 2.184 . S
C1095 C357 1.231 . S
C1100 C62 1.263 . S
C1111 C465 1.660 . S
C1116 C151 1.625 . S
C1127 C180 1.609 . S
C1132 C269 1.667 . S
C1143 C52 1.514 . S
C1148 C111 1.488 . S
C1159 C121 1.347 . S
C1164 C92 1.409 . S
C1175 C170 1.353 . S
C1180 C229 1.355 . S
C1191 C3 1.356 . S
C1196 C210 1.327 . S
C1207 C446 1.266 . S
C1212 C288 1.203 . S
C1223 C239 1.751 . S
C1228 C298 1.800 . S
C1239 C328 1.389 . S
C1244 C387 1.403 . S
C1255 C416 1.990 . S
C1260 C406 2.022 . S
C1271 C819 2.217 . S
C1276 C505 2.193 . S
C1287 C534 1.278 . S
C1292 C829 1.202 . S
C1303 C937 1.704 . S
C1308 C623 1.647 . S
C1319 C741 1.646 . S
C1324 C652 1.655 . S
C1335 C524 1.497 . S
C1340 C583 1.457 . S
C1351 C564 1.387 . S
C1356 C593 1.357 . S
C1367 C701 1.374 . S
C1372 C642 1.365 . S
C1383 C475 1.371 . S
C1388 C682 1.296 . S
C1399 C918 1.266 . S
C1404 C760 1.194 . S
C1415 C711 1.780 . S
C1420 C770 1.771 . S
C1431 C800 1.396 . S
C1436 C859 1.413 . S
C1447 C888 1.967 . S
C1452 C878 1.993 . S
