# Generated by pormake.
# Topology tfs, (6)-cn, num edge types: 1
# Building blocks:
#     Node 0, Type 0, BuildingBlock: GEDQOX_clean_sbu_0, # of connection points: 6
#     Node 1, Type 0, BuildingBlock: GEDQOX_clean_sbu_0, # of connection points: 6
#     Node 2, Type 0, BuildingBlock: GEDQOX_clean_sbu_0, # of connection points: 6
#     Node 3, Type 0, BuildingBlock: GEDQOX_clean_sbu_0, # of connection points: 6
#     Node 4, Type 0, BuildingBlock: GEDQOX_clean_sbu_0, # of connection points: 6
#     Node 5, Type 0, BuildingBlock: GEDQOX_clean_sbu_0, # of connection points: 6
#     Edge 6, Type (0, 0), BuildingBlock: AJUNOK_clean_linker_0, # of connection points: 2
#     Edge 7, Type (0, 0), BuildingBlock: AJUNOK_clean_linker_0, # of connection points: 2
#     Edge 8, Type (0, 0), BuildingBlock: AJUNOK_clean_linker_0, # of connection points: 2
#     Edge 9, Type (0, 0), BuildingBlock: AJUNOK_clean_linker_0, # of connection points: 2
#     Edge 10, Type (0, 0), BuildingBlock: AJUNOK_clean_linker_0, # of connection points: 2
#     Edge 11, Type (0, 0), BuildingBlock: AJUNOK_clean_linker_0, # of connection points: 2
#     Edge 12, Type (0, 0), BuildingBlock: AJUNOK_clean_linker_0, # of connection points: 2
#     Edge 13, Type (0, 0), BuildingBlock: AJUNOK_clean_linker_0, # of connection points: 2
#     Edge 14, Type (0, 0), BuildingBlock: AJUNOK_clean_linker_0, # of connection points: 2
#     Edge 15, Type (0, 0), BuildingBlock: AJUNOK_clean_linker_0, # of connection points: 2
#     Edge 16, Type (0, 0), BuildingBlock: AJUNOK_clean_linker_0, # of connection points: 2
#     Edge 17, Type (0, 0), BuildingBlock: AJUNOK_clean_linker_0, # of connection points: 2
#     Edge 18, Type (0, 0), BuildingBlock: AJUNOK_clean_linker_0, # of connection points: 2
#     Edge 19, Type (0, 0), BuildingBlock: AJUNOK_clean_linker_0, # of connection points: 2
#     Edge 20, Type (0, 0), BuildingBlock: AJUNOK_clean_linker_0, # of connection points: 2
#     Edge 21, Type (0, 0), BuildingBlock: AJUNOK_clean_linker_0, # of connection points: 2
#     Edge 22, Type (0, 0), BuildingBlock: AJUNOK_clean_linker_0, # of connection points: 2
#     Edge 23, Type (0, 0), BuildingBlock: AJUNOK_clean_linker_0, # of connection points: 2
# Relax obj value: 0.636
# Max RMSD: 0.455
# Mean RMSD: 0.366
data_MOF--net-tfs--node1-GEDQOX_clean_sbu_0--edge1-AJUNOK_clean_linker_0
_symmetry_space_group_name_H-M    P1
_symmetry_Int_Tables_number       1
_symmetry_cell_setting            triclinic
loop_
_symmetry_equiv_pos_as_xyz
'x, y, z'
_cell_length_a     37.51454
_cell_length_b     41.731961
_cell_length_c     9.931734
_cell_angle_alpha  97.101138
_cell_angle_beta   86.73633
_cell_angle_gamma 110.57116
loop_
_atom_site_label
_atom_site_type_symbol
_atom_site_fract_x
_atom_site_fract_y
_atom_site_fract_z
_atom_type_partial_charge
Nd0 Nd 0.30016 0.43887 0.90383 0.0
Nd1 Nd 0.38423 0.47962 0.82602 0.0
C2 C 0.23523 0.39951 0.00375 0.0
C3 C 0.21969 0.38133 0.12344 0.0
C4 C 0.22518 0.39874 0.25528 0.0
C5 C 0.20478 0.38262 0.36497 0.0
C6 C 0.17905 0.3487 0.3443 0.0
C7 C 0.17578 0.33051 0.21403 0.0
C8 C 0.19587 0.34677 0.10438 0.0
C9 C 0.31599 0.44113 0.63199 0.0
C10 C 0.36866 0.40955 0.94921 0.0
C11 C 0.44442 0.51251 0.68077 0.0
C12 C 0.46553 0.54904 0.66428 0.0
C13 C 0.45072 0.56731 0.58654 0.0
C14 C 0.46255 0.60317 0.61025 0.0
C15 C 0.48822 0.62083 0.71504 0.0
C16 C 0.50869 0.60292 0.76973 0.0
C17 C 0.49735 0.56725 0.74449 0.0
C18 C 0.36961 0.48311 0.10058 0.0
C19 C 0.32191 0.52046 0.87878 0.0
O20 O 0.24721 0.43322 0.02168 0.0
O21 O 0.25663 0.38715 0.91967 0.0
O22 O 0.28397 0.44134 0.68702 0.0
O23 O 0.33683 0.43695 0.7184 0.0
O24 O 0.336 0.4123 -0.00489 0.0
O25 O 0.38862 0.42773 0.85332 0.0
O26 O 0.40974 0.49984 0.63415 0.0
O27 O 0.44676 0.50287 0.79976 0.0
O28 O 0.40311 0.48593 0.04882 0.0
O29 O 0.3474 0.48236 0.00923 0.0
O30 O 0.35655 0.5217 0.83647 0.0
O31 O 0.29596 0.4924 0.91884 0.0
H32 H 0.24372 0.42527 0.27249 0.0
H33 H 0.20763 0.39715 0.46449 0.0
H34 H 0.15557 0.30453 0.19504 0.0
H35 H 0.19122 0.33289 0.00352 0.0
H36 H 0.42748 0.55392 0.51747 0.0
H37 H 0.44818 0.61629 0.55801 0.0
H38 H 0.52982 0.61534 0.84719 0.0
H39 H 0.51062 0.55382 0.8004 0.0
Nd40 Nd 0.86011 0.24234 0.78898 0.0
Nd41 Nd 0.78009 0.24005 0.88966 0.0
C42 C 0.92072 0.23342 0.66565 0.0
C43 C 0.96198 0.24987 0.65442 0.0
C44 C 0.98165 0.23585 0.55424 0.0
C45 C 1.02077 0.25164 0.53687 0.0
C46 C 0.04096 0.28165 0.62036 0.0
C47 C 1.02119 0.2953 0.72291 0.0
C48 C 0.98184 0.27945 0.73995 0.0
C49 C 0.84495 0.23868 0.06054 0.0
C50 C 0.78807 0.16903 0.76623 0.0
C51 C 0.71985 0.24212 0.03424 0.0
C52 C 0.69305 0.25988 0.02429 0.0
C53 C 0.70585 0.29257 -0.02147 0.0
C54 C 0.68015 0.30452 0.92417 0.0
C55 C 0.6416 0.28373 0.9139 0.0
C56 C 0.62832 0.25239 0.97011 0.0
C57 C 0.65399 0.24061 0.02622 0.0
C58 C 0.79291 0.24397 0.61794 0.0
C59 C 0.84974 0.31701 0.87179 0.0
O60 O 0.90741 0.22221 0.782 0.0
O61 O 0.90001 0.2481 0.61298 0.0
O62 O 0.87723 0.2587 0.01461 0.0
O63 O 0.8234 0.22211 0.96533 0.0
O64 O 0.8187 0.18814 0.7025 0.0
O65 O 0.77285 0.1832 0.86834 0.0
O66 O 0.75469 0.26098 0.07144 0.0
O67 O 0.71856 0.21924 0.93026 0.0
O68 O 0.75938 0.2279 0.66731 0.0
O69 O 0.81584 0.25915 0.71087 0.0
O70 O 0.81527 0.29935 0.91903 0.0
O71 O 0.87223 0.30091 0.81111 0.0
H72 H 0.96656 0.21309 0.48716 0.0
H73 H 1.03489 0.24118 0.45397 0.0
H74 H 0.03602 0.31859 0.78762 0.0
H75 H 0.96685 0.29054 0.81786 0.0
H76 H 0.73596 0.30757 0.97397 0.0
H77 H 0.69085 0.32871 0.88025 0.0
H78 H 0.59857 0.2362 0.96331 0.0
H79 H 0.64382 0.21513 0.0597 0.0
Nd80 Nd 0.57026 0.86498 0.57405 0.0
Nd81 Nd 0.52673 0.78629 0.60019 0.0
C82 C 0.61139 0.92584 0.49328 0.0
C83 C 0.6423 0.95908 0.52823 0.0
C84 C 0.64934 0.9852 0.44336 0.0
C85 C 0.67663 0.01782 0.47726 0.0
C86 C 0.69777 0.02507 0.59681 0.0
C87 C 0.69104 0.99855 0.68079 0.0
C88 C 0.66356 0.96585 0.64682 0.0
C89 C 0.55067 0.84889 0.83 0.0
C90 C 0.61866 0.81151 0.61089 0.0
C91 C 0.48254 0.72295 0.62167 0.0
C92 C 0.46679 0.69958 0.49823 0.0
C93 C 0.44161 0.70706 0.41753 0.0
C94 C 0.44111 0.69831 0.2771 0.0
C95 C 0.46522 0.68138 0.21582 0.0
C96 C 0.48569 0.66924 0.29897 0.0
C97 C 0.48644 0.67821 0.43888 0.0
C98 C 0.54715 0.80418 0.34489 0.0
C99 C 0.4756 0.83436 0.57544 0.0
O100 O 0.6205 0.8982 0.46453 0.0
O101 O 0.57964 0.92015 0.56355 0.0
O102 O 0.55691 0.8796 0.79785 0.0
O103 O 0.56148 0.83116 0.7379 0.0
O104 O 0.61892 0.83996 0.56027 0.0
O105 O 0.5865 0.79015 0.658 0.0
O106 O 0.47021 0.74875 0.65092 0.0
O107 O 0.51959 0.73267 0.63113 0.0
O108 O 0.54341 0.77409 0.37696 0.0
O109 O 0.5351 0.82058 0.43784 0.0
O110 O 0.47841 0.80894 0.63641 0.0
O111 O 0.50658 0.85672 0.52256 0.0
H112 H 0.633 0.98059 0.35193 0.0
H113 H 0.68014 0.03772 0.4121 0.0
H114 H 0.70674 1.00324 0.7737 0.0
H115 H 0.65848 0.94608 0.71404 0.0
H116 H 0.42547 0.72299 0.46013 0.0
H117 H 0.42441 0.70743 0.21647 0.0
H118 H 0.50328 0.65477 0.25483 0.0
H119 H 0.50583 0.67174 0.4981 0.0
Nd120 Nd 0.88448 0.69343 0.67086 0.0
Nd121 Nd 0.91147 0.62951 0.71273 0.0
C122 C 0.8588 0.74163 0.60292 0.0
C123 C 0.82279 0.7504 0.60506 0.0
C124 C 0.81014 0.75825 0.48628 0.0
C125 C 0.77799 0.76867 0.48834 0.0
C126 C 0.75705 0.77149 0.60927 0.0
C127 C 0.76995 0.76377 0.72817 0.0
C128 C 0.80206 0.75341 0.72612 0.0
C129 C 0.89078 0.68101 0.93022 0.0
C130 C 0.97853 0.70311 0.66759 0.0
C131 C 0.92268 0.57597 0.80137 0.0
C132 C 0.90761 0.53765 0.8067 0.0
C133 C 0.88991 0.52359 0.9256 0.0
C134 C 0.88001 0.48819 0.93759 0.0
C135 C 0.88791 0.46575 0.83169 0.0
C136 C 0.90451 0.47966 0.71124 0.0
C137 C 0.91437 0.51499 0.69918 0.0
C138 C 0.90094 0.63847 0.45217 0.0
C139 C 0.81903 0.61787 0.71358 0.0
O140 O 0.87467 0.74329 0.71903 0.0
O141 O 0.8617 0.71616 0.51655 0.0
O142 O 0.8648 0.69198 0.89398 0.0
O143 O 0.91319 0.67891 0.83363 0.0
O144 O 0.95179 0.71431 0.62596 0.0
O145 O 0.96884 0.67428 0.72682 0.0
O146 O 0.9056 0.59498 0.87389 0.0
O147 O 0.93617 0.58781 0.68565 0.0
O148 O 0.92622 0.62603 0.48395 0.0
O149 O 0.88112 0.64303 0.55352 0.0
O150 O 0.84636 0.60705 0.74559 0.0
O151 O 0.82661 0.64837 0.66926 0.0
H152 H 0.82541 0.75662 0.39126 0.0
H153 H 0.76926 0.7742 0.39436 0.0
H154 H 0.75555 0.76629 0.82436 0.0
H155 H 0.81086 0.7481 0.82038 0.0
H156 H 0.88461 0.54015 0.01128 0.0
H157 H 0.86726 0.47858 0.03183 0.0
H158 H 0.91017 0.46321 0.62592 0.0
H159 H 0.92808 0.52464 0.60616 0.0
Nd160 Nd 0.23331 0.83298 0.58643 0.0
Nd161 Nd 0.22381 0.75722 0.46932 0.0
C162 C 0.2389 0.89567 0.69805 0.0
C163 C 0.26282 0.93062 0.66653 0.0
C164 C 0.25955 0.95994 0.74432 0.0
C165 C 0.27988 0.99297 0.70714 0.0
C166 C 0.30354 0.99725 0.59051 0.0
C167 C 0.30756 0.96781 0.5153 0.0
C168 C 0.28743 0.93488 0.55291 0.0
C169 C 0.22824 0.81764 0.31181 0.0
C170 C 0.14638 0.77071 0.58041 0.0
C171 C 0.22227 0.70253 0.30152 0.0
C172 C 0.24469 0.68154 0.23934 0.0
C173 C 0.25335 0.65855 0.31261 0.0
C174 C 0.27 0.63559 0.247 0.0
C175 C 0.2781 0.63506 0.10696 0.0
C176 C 0.27103 0.65909 0.0351 0.0
C177 C 0.25428 0.68197 0.10053 0.0
C178 C 0.22772 0.77045 0.74326 0.0
C179 C 0.31247 0.81482 0.51579 0.0
O180 O 0.25628 0.87725 0.74552 0.0
O181 O 0.21395 0.87776 0.60595 0.0
O182 O 0.25218 0.84614 0.3686 0.0
O183 O 0.20886 0.79931 0.3986 0.0
O184 O 0.16899 0.80066 0.64413 0.0
O185 O 0.16086 0.75217 0.49088 0.0
O186 O 0.23039 0.73321 0.26262 0.0
O187 O 0.21283 0.70122 0.4305 0.0
O188 O 0.20771 0.74039 0.68327 0.0
O189 O 0.24674 0.79027 0.6598 0.0
O190 O 0.2901 0.78424 0.45888 0.0
O191 O 0.29745 0.83734 0.57862 0.0
H192 H 0.24068 0.95725 0.83221 0.0
H193 H 0.27623 0.01512 0.76729 0.0
H194 H 0.32614 0.97024 0.42669 0.0
H195 H 0.29056 0.91264 0.49172 0.0
H196 H 0.24616 0.65744 0.41951 0.0
H197 H 0.27511 0.61728 0.30476 0.0
H198 H 0.27772 0.65969 0.92768 0.0
H199 H 0.24775 0.69932 0.04144 0.0
Nd200 Nd 0.47063 0.30059 0.4039 0.0
Nd201 Nd 0.51415 0.37988 0.50074 0.0
C202 C 0.43192 0.23741 0.29549 0.0
C203 C 0.41549 0.20262 0.34223 0.0
C204 C 0.41884 0.1739 0.2601 0.0
C205 C 0.40196 0.14069 0.3 0.0
C206 C 0.38093 0.13535 0.42253 0.0
C207 C 0.37847 0.16431 0.50621 0.0
C208 C 0.39557 0.19753 0.46674 0.0
C209 C 0.46619 0.31809 0.67789 0.0
C210 C 0.43657 0.35935 0.3444 0.0
C211 C 0.55071 0.44101 0.63568 0.0
C212 C 0.58972 0.46675 0.64875 0.0
C213 C 0.62199 0.45688 0.63144 0.0
C214 C 0.65866 0.48166 0.64617 0.0
C215 C 0.66388 0.51684 0.67876 0.0
C216 C 0.63147 0.52661 0.69411 0.0
C217 C 0.59481 0.50182 0.67964 0.0
C218 C 0.52372 0.36172 0.2284 0.0
C219 C 0.55109 0.32195 0.55538 0.0
O220 O 0.41598 0.25988 0.34416 0.0
O221 O 0.46915 0.25097 0.287 0.0
O222 O 0.46133 0.28736 0.6211 0.0
O223 O 0.4662 0.33737 0.58812 0.0
O224 O 0.44163 0.33026 0.29778 0.0
O225 O 0.45527 0.37937 0.45024 0.0
O226 O 0.54447 0.41167 0.68347 0.0
O227 O 0.53371 0.43719 0.52054 0.0
O228 O 0.52854 0.3928 0.28209 0.0
O229 O 0.52042 0.34264 0.32173 0.0
O230 O 0.55224 0.35405 0.57259 0.0
O231 O 0.52594 0.29734 0.47712 0.0
H232 H 0.43431 0.17714 0.16432 0.0
H233 H 0.40545 0.11917 0.23476 0.0
H234 H 0.36258 0.16125 0.60116 0.0
H235 H 0.39274 0.21917 0.53303 0.0
H236 H 0.61886 0.43002 0.60643 0.0
H237 H 0.68298 0.47329 0.63058 0.0
H238 H 0.63445 0.55343 0.71922 0.0
H239 H 0.57034 0.51004 0.69325 0.0
C240 C 0.38231 0.35307 0.1971 0.0
C241 C 0.41787 0.37338 0.25261 0.0
C242 C 0.36687 0.36409 0.09369 0.0
C243 C 0.38777 0.39442 0.03583 0.0
H244 H 0.36619 0.32877 0.23504 0.0
H245 H 0.33839 0.3489 0.05902 0.0
S246 S 0.48276 0.45613 0.1436 0.0
N247 N 0.4727 0.42595 0.24704 0.0
N248 N 0.44666 0.44381 0.03871 0.0
C249 C 0.42429 0.41388 0.08588 0.0
C250 C 0.43849 0.40418 0.19842 0.0
C251 C 0.12617 0.35233 0.49982 0.0
C252 C 0.15044 0.33436 0.44956 0.0
C253 C 0.09204 0.33581 0.56704 0.0
C254 C 0.08122 0.30083 0.58656 0.0
H255 H 0.13188 0.37839 0.47664 0.0
H256 H 0.07263 0.34973 0.59326 0.0
S257 S 0.13941 0.24508 0.50275 0.0
N258 N 0.16468 0.28177 0.44344 0.0
N259 N 0.10073 0.25073 0.57282 0.0
C260 C 0.10732 0.2838 0.55029 0.0
C261 C 0.14192 0.30057 0.48088 0.0
C262 C 0.74375 0.11059 0.81297 0.0
C263 C 0.76889 0.13159 0.72221 0.0
C264 C 0.72208 0.07605 0.77267 0.0
C265 C 0.72425 0.06087 0.63926 0.0
H266 H 0.74015 0.12106 0.91614 0.0
H267 H 0.70239 0.0615 0.84572 0.0
S268 S 0.78731 0.10386 0.36348 0.0
N269 N 0.79587 0.13412 0.49369 0.0
N270 N 0.75534 0.06913 0.41794 0.0
C271 C 0.75014 0.08123 0.54821 0.0
C272 C 0.77245 0.1165 0.58969 0.0
C273 C 0.7212 0.80968 0.54356 0.0
C274 C 0.72183 0.78194 0.61146 0.0
C275 C 0.68855 0.81968 0.54582 0.0
C276 C 0.65451 0.80226 0.61487 0.0
H277 H 0.74638 0.82409 0.48883 0.0
H278 H 0.68994 0.84102 0.4913 0.0
S279 S 0.64019 0.72677 0.8045 0.0
N280 N 0.68437 0.73662 0.74626 0.0
N281 N 0.62409 0.75508 0.75215 0.0
C282 C 0.65485 0.77435 0.68267 0.0
C283 C 0.68802 0.76435 0.68062 0.0
C284 C 0.07884 0.77408 0.62779 0.0
C285 C 0.10385 0.75505 0.61169 0.0
C286 C 0.03849 0.7577 0.64283 0.0
C287 C 1.02124 0.72158 0.64508 0.0
H288 H 0.09037 0.8017 0.62536 0.0
H289 H 1.02077 0.77353 0.65425 0.0
S290 S 0.07398 0.66006 0.60912 0.0
N291 N 0.10762 0.69795 0.60097 0.0
N292 N 1.03371 0.6678 0.62875 0.0
C293 C 0.04629 0.70264 0.63031 0.0
C294 C 0.08682 0.71911 0.61391 0.0
C295 C 0.34451 0.05987 0.63789 0.0
C296 C 0.32327 0.03219 0.54563 0.0
C297 C 0.36321 0.09292 0.5973 0.0
C298 C 0.3613 0.09979 0.46282 0.0
H299 H 0.34707 0.05586 0.74209 0.0
H300 H 0.3796 0.11321 0.67179 0.0
S301 S 0.30633 0.03689 0.18511 0.0
N302 N 0.29969 0.01435 0.31559 0.0
N303 N 0.33421 0.07626 0.23987 0.0
C304 C 0.33958 0.0724 0.37024 0.0
C305 C 0.32075 0.03874 0.41143 0.0
C306 C 0.32208 0.60144 0.09016 0.0
C307 C 0.29195 0.6082 0.03581 0.0
C308 C 0.33363 0.57434 0.03102 0.0
C309 C 0.31497 0.55278 0.91729 0.0
H310 H 0.33659 0.617 0.17976 0.0
H311 H 0.35611 0.56923 0.07844 0.0
S312 S 0.23413 0.55865 0.73809 0.0
N313 N 0.24378 0.59088 0.86093 0.0
N314 N 0.26514 0.53936 0.75272 0.0
C315 C 0.28519 0.55928 0.86103 0.0
C316 C 0.2738 0.58722 0.91948 0.0
C317 C 0.57965 0.28057 0.6229 0.0
C318 C 0.57537 0.31294 0.64498 0.0
C319 C 0.60011 0.27076 0.71352 0.0
C320 C 0.6167 0.29292 0.82916 0.0
H321 H 0.56723 0.26274 0.53512 0.0
H322 H 0.60372 0.24598 0.69151 0.0
S323 S 0.61099 0.37877 0.94235 0.0
N324 N 0.5877 0.36627 0.7983 0.0
N325 N 0.62594 0.34722 0.96672 0.0
C326 C 0.61198 0.32484 0.85471 0.0
C327 C 0.59138 0.33502 0.76297 0.0
C328 C 0.50892 0.68465 0.01485 0.0
C329 C 0.47158 0.6779 0.06669 0.0
C330 C 0.5155 0.67264 0.88132 0.0
C331 C 0.48482 0.65198 0.79843 0.0
H332 H 0.53311 0.69685 0.08095 0.0
H333 H 0.54442 0.67504 0.85055 0.0
S334 S 0.38384 0.6447 0.86241 0.0
N335 N 0.40505 0.66219 0.00822 0.0
N336 N 0.41739 0.63917 0.75768 0.0
C337 C 0.44831 0.65258 0.83867 0.0
C338 C 0.44157 0.66512 0.97434 0.0
C339 C 0.8442 0.40803 0.90134 0.0
C340 C 0.87944 0.4282 0.84741 0.0
C341 C 0.83532 0.37261 0.91254 0.0
C342 C 0.86132 0.35552 0.87125 0.0
H343 H 0.82282 0.41952 0.93224 0.0
H344 H 0.80739 0.35839 0.95144 0.0
S345 S 0.95917 0.39734 0.73576 0.0
N346 N 0.94157 0.42874 0.7616 0.0
N347 N 0.92511 0.36275 0.78159 0.0
C348 C 0.89716 0.37573 0.82114 0.0
C349 C 0.9061 0.41175 0.80941 0.0
C350 C 0.37885 0.84854 0.61394 0.0
C351 C 0.35529 0.82243 0.51963 0.0
C352 C 0.41809 0.85361 0.62789 0.0
C353 C 0.43589 0.83309 0.54723 0.0
H354 H 0.36661 0.86452 0.68127 0.0
H355 H 0.43427 0.87302 0.70556 0.0
S356 S 0.38895 0.7633 0.27733 0.0
N357 N 0.35455 0.77725 0.33854 0.0
N358 N 0.42725 0.78686 0.36503 0.0
C359 C 0.41316 0.8078 0.4499 0.0
C360 C 0.37335 0.80252 0.43585 0.0
C361 C 0.7507 0.59791 0.63937 0.0
C362 C 0.77886 0.59331 0.71515 0.0
C363 C 0.71357 0.57344 0.6298 0.0
C364 C 0.70299 0.54329 0.69536 0.0
H365 H 0.75759 0.62012 0.58373 0.0
H366 H 0.69326 0.57776 0.56753 0.0
S367 S 0.76443 0.52072 0.91946 0.0
N368 N 0.79234 0.55731 0.86594 0.0
N369 N 0.72285 0.51173 0.84808 0.0
C370 C 0.73042 0.53897 0.77529 0.0
C371 C 0.76818 0.56383 0.78523 0.0
C372 C 0.36174 0.44693 0.43644 0.0
C373 C 0.32937 0.45247 0.4973 0.0
C374 C 0.3759 0.45881 0.31146 0.0
C375 C 0.35714 0.47502 0.23973 0.0
H376 H 0.37656 0.43374 0.48656 0.0
H377 H 0.40133 0.45476 0.27009 0.0
S378 S 0.27423 0.49972 0.36215 0.0
N379 N 0.28143 0.47894 0.48318 0.0
N380 N 0.30671 0.49898 0.24356 0.0
C381 C 0.32525 0.48139 0.30043 0.0
C382 C 0.31153 0.47042 0.42996 0.0
C383 C 0.83928 0.26669 0.43482 0.0
C384 C 0.80463 0.24252 0.47477 0.0
C385 C 0.85265 0.26501 0.30079 0.0
C386 C 0.83182 0.23904 0.2028 0.0
H387 H 0.85622 0.28713 0.5077 0.0
H388 H 0.8792 0.28434 0.27368 0.0
S389 S 0.74049 0.16835 0.25856 0.0
N390 N 0.75043 0.19134 0.40805 0.0
N391 N 0.77561 0.18764 0.15613 0.0
C392 C 0.79734 0.2144 0.24218 0.0
C393 C 0.78365 0.21633 0.37833 0.0
C394 C 0.57676 0.8446 0.17975 0.0
C395 C 0.54969 0.81313 0.2087 0.0
C396 C 0.57534 0.85783 0.05908 0.0
C397 C 0.5466 0.83973 0.96614 0.0
H398 H 0.59909 0.85896 0.25062 0.0
H399 H 0.59749 0.8815 0.03616 0.0
S400 S 0.46754 0.75776 0.00058 0.0
N401 N 0.49234 0.76526 0.14048 0.0
N402 N 0.48992 0.78998 0.91084 0.0
C403 C 0.51914 0.80851 -0.00527 0.0
C404 C 0.52062 0.7951 0.11724 0.0
C405 C 0.92731 0.6529 0.22397 0.0
C406 C 0.89689 0.64753 0.31753 0.0
C407 C 0.92496 0.66368 0.09816 0.0
C408 C 0.89212 0.66938 0.06242 0.0
H409 H 0.95336 0.64945 0.24906 0.0
H410 H 0.94922 0.66799 0.0292 0.0
S411 S 0.80315 0.65525 0.26661 0.0
N412 N 0.83184 0.64583 0.36243 0.0
N413 N 0.82767 0.66672 0.12632 0.0
C414 C 0.86112 0.66319 0.15363 0.0
C415 C 0.86343 0.65203 0.28133 0.0
C416 C 0.25639 0.8111 0.94293 0.0
C417 C 0.22718 0.7814 0.8884 0.0
C418 C 0.25624 0.82312 0.08029 0.0
C419 C 0.22677 0.80586 0.16667 0.0
H420 H 0.27971 0.82505 0.87925 0.0
H421 H 0.27956 0.84574 0.11915 0.0
S422 S 0.1422 0.72841 0.07052 0.0
N423 N 0.16734 0.73584 0.92855 0.0
N424 N 0.16643 0.7588 0.18725 0.0
C425 C 0.19687 0.77659 0.11259 0.0
C426 C 0.1973 0.76415 0.97305 0.0
C427 C 0.50371 0.37325 0.00877 0.0
C428 C 0.51176 0.35032 0.08531 0.0
C429 C 0.48819 0.36272 0.87861 0.0
C430 C 0.48157 0.32913 0.81737 0.0
H431 H 0.50905 0.39961 0.05017 0.0
H432 H 0.48136 0.38101 0.82593 0.0
S433 S 0.50476 0.26093 0.96449 0.0
N434 N 0.51609 0.2938 0.08432 0.0
N435 N 0.4883 0.27377 0.83839 0.0
C436 C 0.49154 0.30638 0.89007 0.0
C437 C 0.50657 0.31707 0.0238 0.0
loop_
_geom_bond_atom_site_label_1
_geom_bond_atom_site_label_2
_geom_bond_distance
_geom_bond_site_symmetry_2
_ccdc_geom_bond_type
Nd0 C2 2.836 . S
Nd0 O20 2.500 . S
Nd0 O21 2.492 1_554 S
Nd0 O22 2.487 1_554 S
Nd0 O23 2.682 1_554 S
Nd0 O24 2.410 1_554 S
Nd0 O29 2.414 . S
Nd0 O31 2.424 1_554 S
Nd1 C11 2.836 . S
Nd1 O23 2.414 . S
Nd1 O25 2.424 1_556 S
Nd1 O26 2.500 . S
Nd1 O27 2.492 1_556 S
Nd1 O28 2.487 1_556 S
Nd1 O29 2.682 1_556 S
Nd1 O30 2.410 1_556 S
C2 Nd0 2.836 . S
C2 C3 1.498 . S
C2 O20 1.258 . S
C2 O21 1.239 1_554 S
C3 C2 1.498 . S
C3 C4 1.366 . S
C3 C8 1.407 . S
C4 C3 1.366 . S
C4 C5 1.392 . S
C4 H32 0.930 . S
C5 C4 1.392 . S
C5 C6 1.398 . S
C5 H33 0.929 . S
C6 C5 1.398 . S
C6 C7 1.352 . S
C7 C6 1.352 . S
C7 C8 1.384 . S
C7 H34 0.930 1_554 S
C8 C3 1.407 . S
C8 C7 1.384 . S
C8 H35 0.929 1_554 S
C9 O22 1.241 . S
C9 O23 1.273 . S
C10 O24 1.251 1_554 S
C10 O25 1.268 . S
C11 Nd1 2.836 . S
C11 C12 1.498 . S
C11 O26 1.258 . S
C11 O27 1.239 1_556 S
C12 C11 1.498 . S
C12 C13 1.366 . S
C12 C17 1.407 . S
C13 C12 1.366 . S
C13 C14 1.392 . S
C13 H36 0.930 . S
C14 C13 1.392 . S
C14 C15 1.398 . S
C14 H37 0.929 . S
C15 C14 1.398 . S
C15 C16 1.352 . S
C16 C15 1.352 . S
C16 C17 1.384 . S
C16 H38 0.930 1_556 S
C17 C12 1.407 . S
C17 C16 1.384 . S
C17 H39 0.929 1_556 S
C18 O28 1.241 . S
C18 O29 1.273 . S
C19 O30 1.251 1_556 S
C19 O31 1.268 . S
O20 Nd0 2.500 . S
O20 C2 1.258 . S
O21 Nd0 2.492 1_556 S
O21 C2 1.239 1_556 S
O22 Nd0 2.487 1_556 S
O22 C9 1.241 . S
O23 Nd0 2.682 1_556 S
O23 Nd1 2.414 . S
O23 C9 1.273 . S
O24 Nd0 2.410 1_556 S
O24 C10 1.251 1_556 S
O25 Nd1 2.424 1_554 S
O25 C10 1.268 . S
O26 Nd1 2.500 . S
O26 C11 1.258 . S
O27 Nd1 2.492 1_554 S
O27 C11 1.239 1_554 S
O28 Nd1 2.487 1_554 S
O28 C18 1.241 . S
O29 Nd0 2.414 . S
O29 Nd1 2.682 1_554 S
O29 C18 1.273 . S
O30 Nd1 2.410 1_554 S
O30 C19 1.251 1_554 S
O31 Nd0 2.424 1_556 S
O31 C19 1.268 . S
H32 C4 0.930 . S
H33 C5 0.929 . S
H34 C7 0.930 1_556 S
H35 C8 0.929 1_556 S
H36 C13 0.930 . S
H37 C14 0.929 . S
H38 C16 0.930 1_554 S
H39 C17 0.929 1_554 S
Nd40 C42 2.836 . S
Nd40 O60 2.500 . S
Nd40 O61 2.492 1_556 S
Nd40 O62 2.487 1_556 S
Nd40 O63 2.682 1_556 S
Nd40 O64 2.410 . S
Nd40 O69 2.414 . S
Nd40 O71 2.424 1_556 S
Nd41 C51 2.836 . S
Nd41 O63 2.414 . S
Nd41 O65 2.424 1_554 S
Nd41 O66 2.500 . S
Nd41 O67 2.492 1_554 S
Nd41 O68 2.487 1_554 S
Nd41 O69 2.682 1_554 S
Nd41 O70 2.410 . S
C42 Nd40 2.836 . S
C42 C43 1.498 . S
C42 O60 1.258 . S
C42 O61 1.239 1_556 S
C43 C42 1.498 . S
C43 C44 1.366 . S
C43 C48 1.407 . S
C44 C43 1.366 . S
C44 C45 1.392 . S
C44 H72 0.930 . S
C45 C44 1.392 . S
C45 C46 1.398 . S
C45 H73 0.929 . S
C46 C45 1.398 . S
C46 C47 1.352 . S
C47 C46 1.352 . S
C47 C48 1.384 . S
C47 H74 0.930 . S
C48 C43 1.407 . S
C48 C47 1.384 . S
C48 H75 0.929 1_556 S
C49 O62 1.241 . S
C49 O63 1.273 . S
C50 O64 1.251 . S
C50 O65 1.268 . S
C51 Nd41 2.836 . S
C51 C52 1.498 . S
C51 O66 1.258 . S
C51 O67 1.239 1_554 S
C52 C51 1.498 . S
C52 C53 1.366 . S
C52 C57 1.407 . S
C53 C52 1.366 . S
C53 C54 1.392 . S
C53 H76 0.930 . S
C54 C53 1.392 . S
C54 C55 1.398 . S
C54 H77 0.929 . S
C55 C54 1.398 . S
C55 C56 1.352 . S
C56 C55 1.352 . S
C56 C57 1.384 . S
C56 H78 0.930 . S
C57 C52 1.407 . S
C57 C56 1.384 . S
C57 H79 0.929 1_554 S
C58 O68 1.241 . S
C58 O69 1.273 . S
C59 O70 1.251 . S
C59 O71 1.268 . S
O60 Nd40 2.500 . S
O60 C42 1.258 . S
O61 Nd40 2.492 1_554 S
O61 C42 1.239 1_554 S
O62 Nd40 2.487 1_554 S
O62 C49 1.241 . S
O63 Nd40 2.682 1_554 S
O63 Nd41 2.414 . S
O63 C49 1.273 . S
O64 Nd40 2.410 . S
O64 C50 1.251 . S
O65 Nd41 2.424 1_556 S
O65 C50 1.268 . S
O66 Nd41 2.500 . S
O66 C51 1.258 . S
O67 Nd41 2.492 1_556 S
O67 C51 1.239 1_556 S
O68 Nd41 2.487 1_556 S
O68 C58 1.241 . S
O69 Nd40 2.414 . S
O69 Nd41 2.682 1_556 S
O69 C58 1.273 . S
O70 Nd41 2.410 . S
O70 C59 1.251 . S
O71 Nd40 2.424 1_554 S
O71 C59 1.268 . S
H72 C44 0.930 . S
H73 C45 0.929 . S
H74 C47 0.930 . S
H75 C48 0.929 1_554 S
H76 C53 0.930 . S
H77 C54 0.929 . S
H78 C56 0.930 . S
H79 C57 0.929 1_556 S
Nd80 C82 2.836 . S
Nd80 O100 2.500 1_554 S
Nd80 O101 2.492 . S
Nd80 O102 2.487 . S
Nd80 O103 2.682 . S
Nd80 O104 2.410 . S
Nd80 O109 2.414 1_554 S
Nd80 O111 2.424 . S
Nd81 C91 2.836 . S
Nd81 O103 2.414 1_556 S
Nd81 O105 2.424 . S
Nd81 O106 2.500 1_556 S
Nd81 O107 2.492 . S
Nd81 O108 2.487 . S
Nd81 O109 2.682 . S
Nd81 O110 2.410 . S
C82 Nd80 2.836 . S
C82 C83 1.498 . S
C82 O100 1.258 1_554 S
C82 O101 1.239 . S
C83 C82 1.498 . S
C83 C84 1.365 1_554 S
C83 C88 1.407 1_565 S
C84 C83 1.365 1_556 S
C84 C85 1.392 1_566 S
C84 H112 0.931 . S
C85 C84 1.392 1_544 S
C85 C86 1.398 . S
C85 H113 0.929 1_554 S
C86 C85 1.398 . S
C86 C87 1.352 . S
C87 C86 1.352 . S
C87 C88 1.384 . S
C87 H114 0.930 . S
C88 C83 1.407 1_545 S
C88 C87 1.384 . S
C88 H115 0.929 1_545 S
C89 O102 1.241 . S
C89 O103 1.273 . S
C90 O104 1.251 . S
C90 O105 1.268 1_554 S
C91 Nd81 2.836 . S
C91 C92 1.498 . S
C91 O106 1.258 1_556 S
C91 O107 1.239 . S
C92 C91 1.498 . S
C92 C93 1.364 1_556 S
C92 C97 1.407 . S
C93 C92 1.364 1_554 S
C93 C94 1.392 1_554 S
C93 H116 0.933 . S
C94 C93 1.392 1_556 S
C94 C95 1.398 . S
C94 H117 0.929 1_556 S
C95 C94 1.398 . S
C95 C96 1.352 . S
C96 C95 1.352 . S
C96 C97 1.384 . S
C96 H118 0.930 . S
C97 C92 1.407 . S
C97 C96 1.384 . S
C97 H119 0.929 . S
C98 O108 1.241 . S
C98 O109 1.273 . S
C99 O110 1.251 . S
C99 O111 1.268 1_556 S
O100 Nd80 2.500 1_556 S
O100 C82 1.258 1_556 S
O101 Nd80 2.492 . S
O101 C82 1.239 . S
O102 Nd80 2.487 . S
O102 C89 1.241 . S
O103 Nd80 2.682 . S
O103 Nd81 2.414 1_554 S
O103 C89 1.273 . S
O104 Nd80 2.410 . S
O104 C90 1.251 . S
O105 Nd81 2.424 . S
O105 C90 1.268 1_556 S
O106 Nd81 2.500 1_554 S
O106 C91 1.258 1_554 S
O107 Nd81 2.492 . S
O107 C91 1.239 . S
O108 Nd81 2.487 . S
O108 C98 1.241 . S
O109 Nd80 2.414 1_556 S
O109 Nd81 2.682 . S
O109 C98 1.273 . S
O110 Nd81 2.410 . S
O110 C99 1.251 . S
O111 Nd80 2.424 . S
O111 C99 1.268 1_554 S
H112 C84 0.931 . S
H113 C85 0.929 1_556 S
H114 C87 0.930 . S
H115 C88 0.929 1_565 S
H116 C93 0.933 . S
H117 C94 0.929 1_554 S
H118 C96 0.930 . S
H119 C97 0.929 . S
Nd120 C122 2.836 . S
Nd120 O140 2.500 . S
Nd120 O141 2.492 1_556 S
Nd120 O142 2.487 1_556 S
Nd120 O143 2.682 1_556 S
Nd120 O144 2.410 . S
Nd120 O149 2.414 . S
Nd120 O151 2.424 1_556 S
Nd121 C131 2.836 1_556 S
Nd121 O143 2.414 1_556 S
Nd121 O145 2.424 . S
Nd121 O146 2.500 1_556 S
Nd121 O147 2.492 . S
Nd121 O148 2.487 . S
Nd121 O149 2.682 . S
Nd121 O150 2.410 . S
C122 Nd120 2.836 . S
C122 C123 1.498 . S
C122 O140 1.258 . S
C122 O141 1.239 1_556 S
C123 C122 1.498 . S
C123 C124 1.366 . S
C123 C128 1.407 . S
C124 C123 1.366 . S
C124 C125 1.392 . S
C124 H152 0.930 . S
C125 C124 1.392 . S
C125 C126 1.398 . S
C125 H153 0.929 . S
C126 C125 1.398 . S
C126 C127 1.352 . S
C127 C126 1.352 . S
C127 C128 1.384 . S
C127 H154 0.930 1_556 S
C128 C123 1.407 . S
C128 C127 1.384 . S
C128 H155 0.929 1_556 S
C129 O142 1.241 . S
C129 O143 1.273 . S
C130 O144 1.251 . S
C130 O145 1.268 . S
C131 Nd121 2.836 1_554 S
C131 C132 1.498 . S
C131 O146 1.258 . S
C131 O147 1.239 1_554 S
C132 C131 1.498 . S
C132 C133 1.366 . S
C132 C137 1.407 1_554 S
C133 C132 1.366 . S
C133 C134 1.392 . S
C133 H156 0.930 . S
C134 C133 1.392 . S
C134 C135 1.398 . S
C134 H157 0.929 . S
C135 C134 1.398 . S
C135 C136 1.352 1_554 S
C136 C135 1.352 1_556 S
C136 C137 1.384 . S
C136 H158 0.930 . S
C137 C132 1.407 1_556 S
C137 C136 1.384 . S
C137 H159 0.929 . S
C138 O148 1.241 . S
C138 O149 1.273 . S
C139 O150 1.251 1_554 S
C139 O151 1.268 . S
O140 Nd120 2.500 . S
O140 C122 1.258 . S
O141 Nd120 2.492 1_554 S
O141 C122 1.239 1_554 S
O142 Nd120 2.487 1_554 S
O142 C129 1.241 . S
O143 Nd120 2.682 1_554 S
O143 Nd121 2.414 1_554 S
O143 C129 1.273 . S
O144 Nd120 2.410 . S
O144 C130 1.251 . S
O145 Nd121 2.424 . S
O145 C130 1.268 . S
O146 Nd121 2.500 1_554 S
O146 C131 1.258 . S
O147 Nd121 2.492 . S
O147 C131 1.239 1_556 S
O148 Nd121 2.487 . S
O148 C138 1.241 . S
O149 Nd120 2.414 . S
O149 Nd121 2.682 . S
O149 C138 1.273 . S
O150 Nd121 2.410 . S
O150 C139 1.251 1_556 S
O151 Nd120 2.424 1_554 S
O151 C139 1.268 . S
H152 C124 0.930 . S
H153 C125 0.929 . S
H154 C127 0.930 1_554 S
H155 C128 0.929 1_554 S
H156 C133 0.930 . S
H157 C134 0.929 . S
H158 C136 0.930 . S
H159 C137 0.929 . S
Nd160 C162 2.836 . S
Nd160 O180 2.500 . S
Nd160 O181 2.492 . S
Nd160 O182 2.487 1_554 S
Nd160 O183 2.682 1_554 S
Nd160 O184 2.410 . S
Nd160 O189 2.414 . S
Nd160 O191 2.424 . S
Nd161 C171 2.836 1_554 S
Nd161 O183 2.414 1_554 S
Nd161 O185 2.424 . S
Nd161 O186 2.500 1_554 S
Nd161 O187 2.492 . S
Nd161 O188 2.487 . S
Nd161 O189 2.682 . S
Nd161 O190 2.410 . S
C162 Nd160 2.836 . S
C162 C163 1.498 . S
C162 O180 1.258 . S
C162 O181 1.239 . S
C163 C162 1.498 . S
C163 C164 1.366 . S
C163 C168 1.407 . S
C164 C163 1.366 . S
C164 C165 1.392 . S
C164 H192 0.930 . S
C165 C164 1.392 . S
C165 C166 1.398 . S
C165 H193 0.929 . S
C166 C165 1.398 . S
C166 C167 1.352 . S
C167 C166 1.352 . S
C167 C168 1.384 . S
C167 H194 0.930 . S
C168 C163 1.407 . S
C168 C167 1.384 . S
C168 H195 0.929 . S
C169 O182 1.241 . S
C169 O183 1.273 . S
C170 O184 1.251 . S
C170 O185 1.268 . S
C171 Nd161 2.836 1_556 S
C171 C172 1.498 . S
C171 O186 1.258 . S
C171 O187 1.239 1_556 S
C172 C171 1.498 . S
C172 C173 1.366 . S
C172 C177 1.407 . S
C173 C172 1.366 . S
C173 C174 1.392 . S
C173 H196 0.930 . S
C174 C173 1.392 . S
C174 C175 1.398 . S
C174 H197 0.929 . S
C175 C174 1.398 . S
C175 C176 1.352 . S
C176 C175 1.352 . S
C176 C177 1.384 . S
C176 H198 0.930 . S
C177 C172 1.407 . S
C177 C176 1.384 . S
C177 H199 0.929 1_556 S
C178 O188 1.241 . S
C178 O189 1.273 . S
C179 O190 1.251 . S
C179 O191 1.268 . S
O180 Nd160 2.500 . S
O180 C162 1.258 . S
O181 Nd160 2.492 . S
O181 C162 1.239 . S
O182 Nd160 2.487 1_556 S
O182 C169 1.241 . S
O183 Nd160 2.682 1_556 S
O183 Nd161 2.414 1_556 S
O183 C169 1.273 . S
O184 Nd160 2.410 . S
O184 C170 1.251 . S
O185 Nd161 2.424 . S
O185 C170 1.268 . S
O186 Nd161 2.500 1_556 S
O186 C171 1.258 . S
O187 Nd161 2.492 . S
O187 C171 1.239 1_554 S
O188 Nd161 2.487 . S
O188 C178 1.241 . S
O189 Nd160 2.414 . S
O189 Nd161 2.682 . S
O189 C178 1.273 . S
O190 Nd161 2.410 . S
O190 C179 1.251 . S
O191 Nd160 2.424 . S
O191 C179 1.268 . S
H192 C164 0.930 . S
H193 C165 0.929 . S
H194 C167 0.930 . S
H195 C168 0.929 . S
H196 C173 0.930 . S
H197 C174 0.929 . S
H198 C176 0.930 . S
H199 C177 0.929 1_554 S
Nd200 C202 2.836 . S
Nd200 O220 2.500 . S
Nd200 O221 2.492 1_556 S
Nd200 O222 2.487 1_556 S
Nd200 O223 2.682 1_556 S
Nd200 O224 2.410 . S
Nd200 O229 2.414 . S
Nd200 O231 2.424 1_556 S
Nd201 C211 2.836 . S
Nd201 O223 2.414 . S
Nd201 O225 2.424 1_554 S
Nd201 O226 2.500 . S
Nd201 O227 2.492 1_554 S
Nd201 O228 2.487 1_554 S
Nd201 O229 2.682 1_554 S
Nd201 O230 2.410 . S
C202 Nd200 2.836 . S
C202 C203 1.498 . S
C202 O220 1.258 . S
C202 O221 1.239 1_556 S
C203 C202 1.498 . S
C203 C204 1.366 . S
C203 C208 1.407 . S
C204 C203 1.366 . S
C204 C205 1.392 . S
C204 H232 0.930 . S
C205 C204 1.392 . S
C205 C206 1.398 . S
C205 H233 0.929 . S
C206 C205 1.398 . S
C206 C207 1.352 . S
C207 C206 1.352 . S
C207 C208 1.384 . S
C207 H234 0.930 . S
C208 C203 1.407 . S
C208 C207 1.384 . S
C208 H235 0.929 1_556 S
C209 O222 1.241 . S
C209 O223 1.273 . S
C210 O224 1.251 . S
C210 O225 1.268 . S
C211 Nd201 2.836 . S
C211 C212 1.498 . S
C211 O226 1.258 . S
C211 O227 1.239 1_554 S
C212 C211 1.498 . S
C212 C213 1.366 . S
C212 C217 1.407 . S
C213 C212 1.366 . S
C213 C214 1.392 . S
C213 H236 0.930 . S
C214 C213 1.392 . S
C214 C215 1.398 . S
C214 H237 0.929 . S
C215 C214 1.398 . S
C215 C216 1.352 . S
C216 C215 1.352 . S
C216 C217 1.384 . S
C216 H238 0.930 . S
C217 C212 1.407 . S
C217 C216 1.384 . S
C217 H239 0.929 1_554 S
C218 O228 1.241 . S
C218 O229 1.273 . S
C219 O230 1.251 . S
C219 O231 1.268 . S
O220 Nd200 2.500 . S
O220 C202 1.258 . S
O221 Nd200 2.492 1_554 S
O221 C202 1.239 1_554 S
O222 Nd200 2.487 1_554 S
O222 C209 1.241 . S
O223 Nd200 2.682 1_554 S
O223 Nd201 2.414 . S
O223 C209 1.273 . S
O224 Nd200 2.410 . S
O224 C210 1.251 . S
O225 Nd201 2.424 1_556 S
O225 C210 1.268 . S
O226 Nd201 2.500 . S
O226 C211 1.258 . S
O227 Nd201 2.492 1_556 S
O227 C211 1.239 1_556 S
O228 Nd201 2.487 1_556 S
O228 C218 1.241 . S
O229 Nd200 2.414 . S
O229 Nd201 2.682 1_556 S
O229 C218 1.273 . S
O230 Nd201 2.410 . S
O230 C219 1.251 . S
O231 Nd200 2.424 1_554 S
O231 C219 1.268 . S
H232 C204 0.930 . S
H233 C205 0.929 . S
H234 C207 0.930 . S
H235 C208 0.929 1_554 S
H236 C213 0.930 . S
H237 C214 0.929 . S
H238 C216 0.930 . S
H239 C217 0.929 1_556 S
C240 C241 1.369 . S
C240 C242 1.419 . S
C240 H244 0.930 . S
C241 C240 1.369 . S
C241 C250 1.429 . S
C242 C240 1.419 . S
C242 C243 1.363 . S
C242 H245 0.929 . S
C243 C242 1.363 . S
C243 C249 1.428 . S
H244 C240 0.930 . S
H245 C242 0.929 . S
S246 N247 1.613 . S
S246 N248 1.610 . S
N247 S246 1.613 . S
N247 C250 1.350 . S
N248 S246 1.610 . S
N248 C249 1.351 . S
C249 C243 1.428 . S
C249 N248 1.351 . S
C249 C250 1.434 . S
C250 C241 1.429 . S
C250 N247 1.350 . S
C250 C249 1.434 . S
C251 C252 1.369 . S
C251 C253 1.419 . S
C251 H255 0.930 . S
C252 C251 1.369 . S
C252 C261 1.429 1_455 S
C253 C251 1.419 . S
C253 C254 1.363 1_455 S
C253 H256 0.929 . S
C254 C253 1.363 1_655 S
C254 C260 1.428 . S
H255 C251 0.930 . S
H256 C253 0.929 . S
S257 N258 1.613 . S
S257 N259 1.610 . S
N258 S257 1.613 . S
N258 C261 1.350 . S
N259 S257 1.610 . S
N259 C260 1.351 . S
C260 C254 1.428 . S
C260 N259 1.351 . S
C260 C261 1.434 . S
C261 C252 1.429 1_655 S
C261 N258 1.350 . S
C261 C260 1.434 . S
C262 C263 1.369 . S
C262 C264 1.419 . S
C262 H266 0.930 . S
C263 C262 1.369 . S
C263 C272 1.429 . S
C264 C262 1.419 . S
C264 C265 1.363 . S
C264 H267 0.929 . S
C265 C264 1.363 . S
C265 C271 1.428 . S
H266 C262 0.930 . S
H267 C264 0.929 . S
S268 N269 1.613 . S
S268 N270 1.610 . S
N269 S268 1.613 . S
N269 C272 1.350 . S
N270 S268 1.610 . S
N270 C271 1.351 . S
C271 C265 1.428 . S
C271 N270 1.351 . S
C271 C272 1.434 . S
C272 C263 1.429 . S
C272 N269 1.350 . S
C272 C271 1.434 . S
C273 C274 1.369 . S
C273 C275 1.419 . S
C273 H277 0.930 . S
C274 C273 1.369 . S
C274 C283 1.429 . S
C275 C273 1.419 . S
C275 C276 1.363 . S
C275 H278 0.929 . S
C276 C275 1.363 . S
C276 C282 1.428 . S
H277 C273 0.930 . S
H278 C275 0.929 . S
S279 N280 1.613 . S
S279 N281 1.610 . S
N280 S279 1.613 . S
N280 C283 1.350 . S
N281 S279 1.610 . S
N281 C282 1.351 . S
C282 C276 1.428 . S
C282 N281 1.351 . S
C282 C283 1.434 . S
C283 C274 1.429 . S
C283 N280 1.350 . S
C283 C282 1.434 . S
C284 C285 1.369 . S
C284 C286 1.419 . S
C284 H288 0.930 . S
C285 C284 1.369 . S
C285 C294 1.429 . S
C286 C284 1.419 . S
C286 C287 1.363 . S
C286 H289 0.929 1_455 S
C287 C286 1.363 . S
C287 C293 1.428 . S
H288 C284 0.930 . S
H289 C286 0.929 1_655 S
S290 N291 1.613 . S
S290 N292 1.610 . S
N291 S290 1.613 . S
N291 C294 1.350 . S
N292 S290 1.610 . S
N292 C293 1.351 . S
C293 C287 1.428 . S
C293 N292 1.351 . S
C293 C294 1.434 . S
C294 C285 1.429 . S
C294 N291 1.350 . S
C294 C293 1.434 . S
C295 C296 1.369 . S
C295 C297 1.419 . S
C295 H299 0.930 . S
C296 C295 1.369 . S
C296 C305 1.429 . S
C297 C295 1.419 . S
C297 C298 1.363 . S
C297 H300 0.929 . S
C298 C297 1.363 . S
C298 C304 1.428 . S
H299 C295 0.930 . S
H300 C297 0.929 . S
S301 N302 1.613 . S
S301 N303 1.610 . S
N302 S301 1.613 . S
N302 C305 1.350 . S
N303 S301 1.610 . S
N303 C304 1.351 . S
C304 C298 1.428 . S
C304 N303 1.351 . S
C304 C305 1.434 . S
C305 C296 1.429 . S
C305 N302 1.350 . S
C305 C304 1.434 . S
C306 C307 1.369 . S
C306 C308 1.419 . S
C306 H310 0.930 . S
C307 C306 1.369 . S
C307 C316 1.429 . S
C308 C306 1.419 . S
C308 C309 1.363 . S
C308 H311 0.929 . S
C309 C308 1.363 . S
C309 C315 1.428 . S
H310 C306 0.930 . S
H311 C308 0.929 . S
S312 N313 1.613 . S
S312 N314 1.610 . S
N313 S312 1.613 . S
N313 C316 1.350 1_554 S
N314 S312 1.610 . S
N314 C315 1.351 1_554 S
C315 C309 1.428 . S
C315 N314 1.351 1_556 S
C315 C316 1.434 . S
C316 C307 1.429 . S
C316 N313 1.350 1_556 S
C316 C315 1.434 . S
C317 C318 1.369 . S
C317 C319 1.419 . S
C317 H321 0.930 1_554 S
C318 C317 1.369 . S
C318 C327 1.429 . S
C319 C317 1.419 . S
C319 C320 1.363 . S
C319 H322 0.929 . S
C320 C319 1.363 . S
C320 C326 1.428 . S
H321 C317 0.930 1_556 S
H322 C319 0.929 . S
S323 N324 1.613 . S
S323 N325 1.610 . S
N324 S323 1.613 . S
N324 C327 1.350 . S
N325 S323 1.610 . S
N325 C326 1.351 . S
C326 C320 1.428 . S
C326 N325 1.351 . S
C326 C327 1.434 . S
C327 C318 1.429 . S
C327 N324 1.350 . S
C327 C326 1.434 . S
C328 C329 1.369 . S
C328 C330 1.419 . S
C328 H332 0.930 . S
C329 C328 1.369 . S
C329 C338 1.429 . S
C330 C328 1.419 . S
C330 C331 1.363 . S
C330 H333 0.929 . S
C331 C330 1.363 . S
C331 C337 1.428 . S
H332 C328 0.930 . S
H333 C330 0.929 . S
S334 N335 1.613 . S
S334 N336 1.610 . S
N335 S334 1.613 . S
N335 C338 1.350 1_554 S
N336 S334 1.610 . S
N336 C337 1.351 1_554 S
C337 C331 1.428 . S
C337 N336 1.351 1_556 S
C337 C338 1.434 . S
C338 C329 1.429 . S
C338 N335 1.350 1_556 S
C338 C337 1.434 . S
C339 C340 1.369 . S
C339 C341 1.419 . S
C339 H343 0.930 . S
C340 C339 1.369 . S
C340 C349 1.429 . S
C341 C339 1.419 . S
C341 C342 1.363 . S
C341 H344 0.929 . S
C342 C341 1.363 . S
C342 C348 1.428 . S
H343 C339 0.930 . S
H344 C341 0.929 . S
S345 N346 1.613 . S
S345 N347 1.610 . S
N346 S345 1.613 . S
N346 C349 1.350 1_556 S
N347 S345 1.610 . S
N347 C348 1.351 1_556 S
C348 C342 1.428 . S
C348 N347 1.351 1_554 S
C348 C349 1.434 . S
C349 C340 1.429 . S
C349 N346 1.350 1_554 S
C349 C348 1.434 . S
C350 C351 1.369 1_554 S
C350 C352 1.419 . S
C350 H354 0.930 . S
C351 C350 1.369 1_556 S
C351 C360 1.429 . S
C352 C350 1.419 . S
C352 C353 1.363 1_554 S
C352 H355 0.929 . S
C353 C352 1.363 1_556 S
C353 C359 1.428 . S
H354 C350 0.930 . S
H355 C352 0.929 . S
S356 N357 1.613 . S
S356 N358 1.610 . S
N357 S356 1.613 . S
N357 C360 1.350 . S
N358 S356 1.610 . S
N358 C359 1.351 . S
C359 C353 1.428 . S
C359 N358 1.351 . S
C359 C360 1.434 . S
C360 C351 1.429 . S
C360 N357 1.350 . S
C360 C359 1.434 . S
C361 C362 1.369 . S
C361 C363 1.419 . S
C361 H365 0.930 1_554 S
C362 C361 1.369 . S
C362 C371 1.429 . S
C363 C361 1.419 . S
C363 C364 1.363 . S
C363 H366 0.929 1_554 S
C364 C363 1.363 . S
C364 C370 1.428 . S
H365 C361 0.930 1_556 S
H366 C363 0.929 1_556 S
S367 N368 1.613 . S
S367 N369 1.610 . S
N368 S367 1.613 . S
N368 C371 1.350 . S
N369 S367 1.610 . S
N369 C370 1.351 . S
C370 C364 1.428 . S
C370 N369 1.351 . S
C370 C371 1.434 . S
C371 C362 1.429 . S
C371 N368 1.350 . S
C371 C370 1.434 . S
C372 C373 1.369 . S
C372 C374 1.419 . S
C372 H376 0.930 . S
C373 C372 1.369 . S
C373 C382 1.429 . S
C374 C372 1.419 . S
C374 C375 1.363 . S
C374 H377 0.929 . S
C375 C374 1.363 . S
C375 C381 1.428 . S
H376 C372 0.930 . S
H377 C374 0.929 . S
S378 N379 1.613 . S
S378 N380 1.610 . S
N379 S378 1.613 . S
N379 C382 1.350 . S
N380 S378 1.610 . S
N380 C381 1.351 . S
C381 C375 1.428 . S
C381 N380 1.351 . S
C381 C382 1.434 . S
C382 C373 1.429 . S
C382 N379 1.350 . S
C382 C381 1.434 . S
C383 C384 1.369 . S
C383 C385 1.419 . S
C383 H387 0.930 . S
C384 C383 1.369 . S
C384 C393 1.429 . S
C385 C383 1.419 . S
C385 C386 1.363 . S
C385 H388 0.929 . S
C386 C385 1.363 . S
C386 C392 1.428 . S
H387 C383 0.930 . S
H388 C385 0.929 . S
S389 N390 1.613 . S
S389 N391 1.610 . S
N390 S389 1.613 . S
N390 C393 1.350 . S
N391 S389 1.610 . S
N391 C392 1.351 . S
C392 C386 1.428 . S
C392 N391 1.351 . S
C392 C393 1.434 . S
C393 C384 1.429 . S
C393 N390 1.350 . S
C393 C392 1.434 . S
C394 C395 1.369 . S
C394 C396 1.419 . S
C394 H398 0.930 . S
C395 C394 1.369 . S
C395 C404 1.429 . S
C396 C394 1.419 . S
C396 C397 1.363 . S
C396 H399 0.929 . S
C397 C396 1.363 . S
C397 C403 1.428 . S
H398 C394 0.930 . S
H399 C396 0.929 . S
S400 N401 1.613 . S
S400 N402 1.610 . S
N401 S400 1.613 . S
N401 C404 1.350 . S
N402 S400 1.610 . S
N402 C403 1.351 . S
C403 C397 1.428 . S
C403 N402 1.351 . S
C403 C404 1.434 . S
C404 C395 1.429 . S
C404 N401 1.350 . S
C404 C403 1.434 . S
C405 C406 1.369 . S
C405 C407 1.419 . S
C405 H409 0.930 . S
C406 C405 1.369 . S
C406 C415 1.429 . S
C407 C405 1.419 . S
C407 C408 1.363 . S
C407 H410 0.929 . S
C408 C407 1.363 . S
C408 C414 1.428 . S
H409 C405 0.930 . S
H410 C407 0.929 . S
S411 N412 1.613 . S
S411 N413 1.610 . S
N412 S411 1.613 . S
N412 C415 1.350 . S
N413 S411 1.610 . S
N413 C414 1.351 . S
C414 C408 1.428 . S
C414 N413 1.351 . S
C414 C415 1.434 . S
C415 C406 1.429 . S
C415 N412 1.350 . S
C415 C414 1.434 . S
C416 C417 1.369 . S
C416 C418 1.419 . S
C416 H420 0.930 . S
C417 C416 1.369 . S
C417 C426 1.429 . S
C418 C416 1.419 . S
C418 C419 1.363 . S
C418 H421 0.929 . S
C419 C418 1.363 . S
C419 C425 1.428 . S
H420 C416 0.930 . S
H421 C418 0.929 . S
S422 N423 1.613 . S
S422 N424 1.610 . S
N423 S422 1.613 . S
N423 C426 1.350 . S
N424 S422 1.610 . S
N424 C425 1.351 . S
C425 C419 1.428 . S
C425 N424 1.351 . S
C425 C426 1.434 . S
C426 C417 1.429 . S
C426 N423 1.350 . S
C426 C425 1.434 . S
C427 C428 1.369 . S
C427 C429 1.419 . S
C427 H431 0.930 . S
C428 C427 1.369 . S
C428 C437 1.429 . S
C429 C427 1.419 . S
C429 C430 1.363 . S
C429 H432 0.929 . S
C430 C429 1.363 . S
C430 C436 1.428 . S
H431 C427 0.930 . S
H432 C429 0.929 . S
S433 N434 1.613 . S
S433 N435 1.610 . S
N434 S433 1.613 . S
N434 C437 1.350 . S
N435 S433 1.610 . S
N435 C436 1.351 . S
C436 C430 1.428 . S
C436 N435 1.351 . S
C436 C437 1.434 . S
C437 C428 1.429 . S
C437 N434 1.350 . S
C437 C436 1.434 . S
C241 C210 3.162 . S
C243 C10 3.013 . S
C252 C6 2.096 . S
C254 C46 2.372 . S
C263 C50 3.775 . S
C265 C86 3.362 . S
C274 C126 3.059 . S
C276 C90 3.341 . S
C285 C170 4.613 . S
C287 C130 4.483 1_455 S
C296 C166 2.634 1_545 S
C298 C206 2.498 . S
C307 C175 2.198 . S
C309 C19 2.305 . S
C318 C219 1.279 . S
C320 C55 1.216 . S
C329 C95 1.128 . S
C331 C15 1.126 . S
C340 C135 2.139 . S
C342 C59 2.049 . S
C351 C179 3.895 1_556 S
C353 C99 4.012 . S
C362 C139 3.151 . S
C364 C215 3.068 . S
C373 C9 0.928 . S
C375 C18 0.934 . S
C384 C58 0.788 . S
C386 C49 0.796 . S
C395 C98 0.957 . S
C397 C89 0.962 . S
C406 C138 0.927 . S
C408 C129 0.926 . S
C417 C178 0.788 . S
C419 C169 0.777 . S
C428 C218 0.852 . S
C430 C209 0.849 . S
