# Generated by pormake.
# Topology ukg, (4)-cn, num edge types: 1
# Building blocks:
#     Node 0, Type 0, BuildingBlock: ICAMEG_clean_sbu_1, # of connection points: 4
#     Node 1, Type 0, BuildingBlock: ICAMEG_clean_sbu_1, # of connection points: 4
#     Node 2, Type 0, BuildingBlock: ICAMEG_clean_sbu_1, # of connection points: 4
#     Node 3, Type 0, BuildingBlock: ICAMEG_clean_sbu_1, # of connection points: 4
#     Node 4, Type 0, BuildingBlock: ICAMEG_clean_sbu_1, # of connection points: 4
#     Node 5, Type 0, BuildingBlock: ICAMEG_clean_sbu_1, # of connection points: 4
#     Node 6, Type 0, BuildingBlock: ICAMEG_clean_sbu_1, # of connection points: 4
#     Node 7, Type 0, BuildingBlock: ICAMEG_clean_sbu_1, # of connection points: 4
#     Edge 8, Type (0, 0), BuildingBlock: UVAHIK_clean_linker_0, # of connection points: 2
#     Edge 9, Type (0, 0), BuildingBlock: UVAHIK_clean_linker_0, # of connection points: 2
#     Edge 10, Type (0, 0), BuildingBlock: UVAHIK_clean_linker_0, # of connection points: 2
#     Edge 11, Type (0, 0), BuildingBlock: UVAHIK_clean_linker_0, # of connection points: 2
#     Edge 12, Type (0, 0), BuildingBlock: UVAHIK_clean_linker_0, # of connection points: 2
#     Edge 13, Type (0, 0), BuildingBlock: UVAHIK_clean_linker_0, # of connection points: 2
#     Edge 14, Type (0, 0), BuildingBlock: UVAHIK_clean_linker_0, # of connection points: 2
#     Edge 15, Type (0, 0), BuildingBlock: UVAHIK_clean_linker_0, # of connection points: 2
#     Edge 16, Type (0, 0), BuildingBlock: UVAHIK_clean_linker_0, # of connection points: 2
#     Edge 17, Type (0, 0), BuildingBlock: UVAHIK_clean_linker_0, # of connection points: 2
#     Edge 18, Type (0, 0), BuildingBlock: UVAHIK_clean_linker_0, # of connection points: 2
#     Edge 19, Type (0, 0), BuildingBlock: UVAHIK_clean_linker_0, # of connection points: 2
#     Edge 20, Type (0, 0), BuildingBlock: UVAHIK_clean_linker_0, # of connection points: 2
#     Edge 21, Type (0, 0), BuildingBlock: UVAHIK_clean_linker_0, # of connection points: 2
#     Edge 22, Type (0, 0), BuildingBlock: UVAHIK_clean_linker_0, # of connection points: 2
#     Edge 23, Type (0, 0), BuildingBlock: UVAHIK_clean_linker_0, # of connection points: 2
# Relax obj value: 0.019
# Max RMSD: 0.101
# Mean RMSD: 0.101
data_MOF--net-ukg--node1-ICAMEG_clean_sbu_1--edge1-UVAHIK_clean_linker_0
_symmetry_space_group_name_H-M    P1
_symmetry_Int_Tables_number       1
_symmetry_cell_setting            triclinic
loop_
_symmetry_equiv_pos_as_xyz
'x, y, z'
_cell_length_a     41.943419
_cell_length_b     41.990945
_cell_length_c     51.49333
_cell_angle_alpha  90.001674
_cell_angle_beta   90.003213
_cell_angle_gamma 90.070795
loop_
_atom_site_label
_atom_site_type_symbol
_atom_site_fract_x
_atom_site_fract_y
_atom_site_fract_z
_atom_type_partial_charge
Co0 Co 0.03875 0.64862 0.17915 0.0
Co1 Co 0.98481 0.66744 0.13091 0.0
O2 O 0.02631 0.65258 0.14282 0.0
C3 C 0.08692 0.69078 0.15596 0.0
O4 O 0.06309 0.7064 0.14546 0.0
C5 C 0.99215 0.60421 0.10761 0.0
O6 O 0.00031 0.59436 0.13086 0.0
O7 O 0.96232 0.63833 0.15524 0.0
O8 O 0.99618 0.63064 0.18852 0.0
H9 H 0.87246 0.70675 0.14146 0.0
H10 H 0.07963 0.62076 0.13803 0.0
O11 O 0.08153 0.66672 0.17039 0.0
H12 H 0.04805 0.53041 0.19358 0.0
H13 H 0.11546 0.62323 0.25139 0.0
H14 H 0.00777 0.66205 0.22973 0.0
H15 H 0.03022 0.58493 0.20386 0.0
H16 H 0.09825 0.62764 0.20571 0.0
O17 O 0.98475 0.63326 0.10391 0.0
H18 H 0.92518 0.68854 0.1566 0.0
H19 H 0.95584 0.67657 0.0786 0.0
H20 H 0.02388 0.65778 0.27568 0.0
H21 H 0.09818 0.56666 0.12715 0.0
H22 H 0.07809 0.63824 0.28674 0.0
H23 H 0.08228 0.52102 0.15498 0.0
O24 O 0.02292 0.69216 0.18704 0.0
H25 H 0.06666 0.69603 0.06353 0.0
H26 H 0.97906 0.73649 0.11818 0.0
H27 H 0.00764 0.77341 0.08907 0.0
H28 H 0.05178 0.75321 0.06148 0.0
H29 H 0.03761 0.65999 0.09307 0.0
H30 H 0.90336 0.69441 0.06261 0.0
H31 H 0.86129 0.70978 0.09415 0.0
O32 O 0.98425 0.70162 0.15781 0.0
C33 C 0.9691 0.62713 0.17759 0.0
C34 C 0.89063 0.70023 0.12752 0.0
C35 C 0.90796 0.69326 0.08327 0.0
N36 N 0.94363 0.6818 0.1185 0.0
C37 C 0.92055 0.68999 0.13598 0.0
C38 C 0.9376 0.68313 0.09244 0.0
C39 C 0.88437 0.70189 0.10098 0.0
C40 C 0.0729 0.60107 0.15039 0.0
N41 N 0.05403 0.60602 0.17163 0.0
C42 C 0.08336 0.57047 0.14407 0.0
C43 C 0.07439 0.54486 0.15967 0.0
C44 C 0.05516 0.55011 0.18132 0.0
C45 C 0.0451 0.58103 0.18702 0.0
C46 C 0.09175 0.63169 0.24682 0.0
C47 C 0.03131 0.65331 0.23441 0.0
C48 C 0.08189 0.63429 0.221 0.0
N49 N 0.05193 0.64479 0.2151 0.0
C50 C 0.04034 0.65104 0.26045 0.0
C51 C 0.07077 0.64011 0.26664 0.0
C52 C 0.00043 0.7092 0.17787 0.0
C53 C 0.04741 0.70509 0.07541 0.0
C54 C -0.00173 0.72753 0.10626 0.0
C55 C 0.01433 0.74854 0.08978 0.0
C56 C 0.03908 0.73718 0.07429 0.0
N57 N 0.00656 0.69608 0.10723 0.0
C58 C 0.03078 0.68477 0.09208 0.0
Co59 Co 0.34672 0.53885 0.67666 0.0
Co60 Co 0.32285 0.48473 0.62993 0.0
O61 O 0.34 0.52575 0.64079 0.0
C62 C 0.30286 0.58618 0.6546 0.0
O63 O 0.28701 0.5621 0.64471 0.0
C64 C 0.38643 0.48864 0.6066 0.0
O65 O 0.3964 0.49737 0.62967 0.0
O66 O 0.35059 0.46143 0.65491 0.0
O67 O 0.36566 0.49671 0.68541 0.0
H68 H 0.27674 0.37544 0.64316 0.0
H69 H 0.37093 0.57889 0.63347 0.0
O70 O 0.3276 0.58125 0.66838 0.0
H71 H 0.46588 0.54965 0.68463 0.0
H72 H 0.3769 0.61713 0.74651 0.0
H73 H 0.33844 0.50839 0.7282 0.0
H74 H 0.41236 0.53173 0.69813 0.0
H75 H 0.36889 0.5991 0.70137 0.0
O76 O 0.35714 0.48189 0.60299 0.0
H77 H 0.29787 0.42759 0.65703 0.0
H78 H 0.31248 0.45425 0.57836 0.0
H79 H 0.34635 0.52533 0.77362 0.0
H80 H 0.42397 0.5975 0.61935 0.0
H81 H 0.36571 0.58007 0.783 0.0
H82 H 0.47192 0.58277 0.64496 0.0
O83 O 0.30397 0.52274 0.68715 0.0
H84 H 0.29903 0.5658 0.56082 0.0
H85 H 0.25368 0.48195 0.61681 0.0
H86 H 0.21843 0.51145 0.58698 0.0
H87 H 0.2411 0.55371 0.5587 0.0
H88 H 0.33335 0.53589 0.59109 0.0
H89 H 0.29175 0.40228 0.56363 0.0
H90 H 0.27359 0.36251 0.59615 0.0
O91 O 0.28872 0.48721 0.65681 0.0
C92 C 0.36531 0.46873 0.67577 0.0
C93 C 0.28448 0.39261 0.6288 0.0
C94 C 0.29295 0.40766 0.58417 0.0
N95 N 0.30614 0.44401 0.61851 0.0
C96 C 0.29637 0.42221 0.63653 0.0
C97 C 0.30472 0.43701 0.59262 0.0
C98 C 0.28275 0.38536 0.60242 0.0
C99 C 0.39165 0.57266 0.64486 0.0
N100 N 0.38854 0.55438 0.66667 0.0
C101 C 0.42163 0.58316 0.63672 0.0
C102 C 0.44853 0.57485 0.65107 0.0
C103 C 0.44516 0.55625 0.67332 0.0
C104 C 0.4148 0.54613 0.68085 0.0
C105 C 0.36851 0.5932 0.74267 0.0
C106 C 0.34706 0.53217 0.73213 0.0
C107 C 0.36386 0.58289 0.71716 0.0
N108 N 0.35341 0.55266 0.71217 0.0
C109 C 0.35141 0.54166 0.75788 0.0
C110 C 0.36224 0.57239 0.76313 0.0
C111 C 0.28429 0.50246 0.67796 0.0
C112 C 0.28888 0.54739 0.573 0.0
C113 C 0.26369 0.50036 0.60462 0.0
C114 C 0.24363 0.51693 0.58772 0.0
C115 C 0.25637 0.54063 0.57185 0.0
N116 N 0.29554 0.50713 0.60564 0.0
C117 C 0.30822 0.53029 0.5901 0.0
Co118 Co 0.45614 0.84705 0.17803 0.0
Co119 Co 0.51034 0.82536 0.13068 0.0
O120 O 0.46888 0.84106 0.14196 0.0
C121 C 0.40882 0.80276 0.15625 0.0
O122 O 0.43291 0.78711 0.14619 0.0
C123 C 0.50405 0.88822 0.10655 0.0
O124 O 0.49535 0.89843 0.12957 0.0
O125 O 0.53305 0.85447 0.15492 0.0
O126 O 0.49826 0.86653 0.18665 0.0
H127 H 0.62177 0.7842 0.14291 0.0
H128 H 0.41525 0.87134 0.13544 0.0
O129 O 0.41377 0.82754 0.16994 0.0
H130 H 0.44394 0.96577 0.18739 0.0
H131 H 0.37848 0.87521 0.24888 0.0
H132 H 0.48732 0.83805 0.22918 0.0
H133 H 0.46272 0.91239 0.20016 0.0
H134 H 0.39599 0.86819 0.2035 0.0
O135 O 0.5114 0.85907 0.10327 0.0
H136 H 0.56914 0.80357 0.15726 0.0
H137 H 0.54 0.81487 0.07881 0.0
H138 H 0.4709 0.84498 0.27484 0.0
H139 H 0.39574 0.92425 0.12207 0.0
H140 H 0.41612 0.86369 0.28492 0.0
H141 H 0.4102 0.97195 0.14807 0.0
O142 O 0.47281 0.80434 0.1879 0.0
H143 H 0.429 0.79687 0.06286 0.0
H144 H 0.51513 0.75602 0.11886 0.0
H145 H 0.48637 0.71903 0.08991 0.0
H146 H 0.44297 0.73943 0.06164 0.0
H147 H 0.45821 0.83299 0.09224 0.0
H148 H 0.59242 0.79587 0.06359 0.0
H149 H 0.63368 0.78025 0.09576 0.0
O150 O 0.50984 0.79182 0.15801 0.0
C151 C 0.52585 0.86805 0.17629 0.0
C152 C 0.60395 0.79083 0.1287 0.0
C153 C 0.58749 0.79742 0.08419 0.0
N154 N 0.55145 0.81007 0.11889 0.0
C155 C 0.57408 0.80172 0.13671 0.0
C156 C 0.55789 0.80822 0.09291 0.0
C157 C 0.61063 0.78865 0.10225 0.0
C158 C 0.42137 0.89194 0.147 0.0
N159 N 0.44 0.88876 0.16861 0.0
C160 C 0.41036 0.92185 0.13927 0.0
C161 C 0.41852 0.94861 0.15385 0.0
C162 C 0.43747 0.94517 0.17591 0.0
C163 C 0.44809 0.91489 0.18302 0.0
C164 C 0.40243 0.86711 0.24474 0.0
C165 C 0.46351 0.8464 0.23343 0.0
C166 C 0.41245 0.86303 0.21909 0.0
N167 N 0.44272 0.85296 0.21373 0.0
C168 C 0.45432 0.85019 0.25931 0.0
C169 C 0.42357 0.86065 0.26495 0.0
C170 C 0.49437 0.78603 0.17881 0.0
C171 C 0.44793 0.78772 0.07503 0.0
C172 C 0.49625 0.76507 0.10663 0.0
C173 C 0.48008 0.74402 0.09025 0.0
C174 C 0.45575 0.75548 0.07438 0.0
N175 N 0.48846 0.79666 0.10713 0.0
C176 C 0.46465 0.80808 0.09162 0.0
Co177 Co 0.14868 0.95512 0.67494 0.0
Co178 Co 0.17299 0.0092 0.62833 0.0
O179 O 0.15542 0.96831 0.6391 0.0
C180 C 0.19186 0.90729 0.65267 0.0
O181 O 0.20793 0.93117 0.64269 0.0
C182 C 0.10925 0.0062 0.60524 0.0
O183 O 0.09933 -0.0025 0.62834 0.0
O184 O 0.14568 0.03273 0.65349 0.0
O185 O 0.13028 -0.00257 0.68386 0.0
H186 H 0.22061 0.11781 0.64179 0.0
H187 H 0.12383 0.91561 0.63167 0.0
O188 O 0.16725 0.91252 0.66652 0.0
H189 H 0.02943 0.94574 0.68315 0.0
H190 H 0.11777 0.87694 0.74464 0.0
H191 H 0.15757 0.98525 0.72655 0.0
H192 H 0.08321 0.9629 0.69661 0.0
H193 H 0.12583 0.89505 0.69954 0.0
O194 O 0.1386 0.0126 0.60152 0.0
H195 H 0.19884 0.06587 0.65555 0.0
H196 H 0.18347 0.03982 0.57684 0.0
H197 H 0.14962 0.96821 0.77194 0.0
H198 H 0.07051 0.89775 0.6176 0.0
H199 H 0.12959 0.91369 0.78121 0.0
H200 H 0.02284 0.91294 0.64336 0.0
O201 O 0.19167 0.97067 0.68537 0.0
H202 H 0.19546 0.92827 0.55881 0.0
H203 H 0.24214 0.01117 0.61503 0.0
H204 H 0.27687 0.98142 0.58496 0.0
H205 H 0.25352 0.93963 0.55657 0.0
H206 H 0.16167 0.95841 0.58932 0.0
H207 H 0.20483 0.09158 0.56222 0.0
H208 H 0.2237 0.13093 0.59482 0.0
O209 O 0.20722 0.00616 0.6551 0.0
C210 C 0.13094 0.02546 0.67436 0.0
C211 C 0.21256 0.10082 0.6274 0.0
C212 C 0.20366 0.08612 0.58274 0.0
N213 N 0.19016 0.04977 0.617 0.0
C214 C 0.20031 0.07134 0.63507 0.0
C215 C 0.19153 0.05688 0.59113 0.0
C216 C 0.21426 0.10818 0.60104 0.0
C217 C 0.10323 0.92202 0.64314 0.0
N218 N 0.10664 0.94014 0.66501 0.0
C219 C 0.07309 0.91196 0.63501 0.0
C220 C 0.04634 0.92053 0.64946 0.0
C221 C 0.05003 0.93895 0.67177 0.0
C222 C 0.08053 0.94864 0.67928 0.0
C223 C 0.12646 0.90077 0.74085 0.0
C224 C 0.14866 0.96156 0.73043 0.0
C225 C 0.13114 0.91113 0.71536 0.0
N226 N 0.14196 0.94124 0.71043 0.0
C227 C 0.14429 0.95201 0.75617 0.0
C228 C 0.13309 0.92141 0.76136 0.0
C229 C 0.21156 0.99075 0.67618 0.0
C230 C 0.2059 0.94647 0.57104 0.0
C231 C 0.23184 0.99297 0.60279 0.0
C232 C 0.2516 0.97625 0.58576 0.0
C233 C 0.23848 0.95282 0.56982 0.0
N234 N 0.1999 0.9866 0.60387 0.0
C235 C 0.18686 0.96371 0.58828 0.0
Co236 Co 0.95676 0.34414 0.81807 0.0
Co237 Co 0.00981 0.32605 0.86712 0.0
O238 O 0.96828 0.33998 0.85458 0.0
C239 C 0.90906 0.30062 0.84014 0.0
O240 O 0.93298 0.28522 0.85071 0.0
C241 C 3e-05 0.38866 0.89091 0.0
O242 O 0.99223 0.39859 0.86759 0.0
O243 O 0.03212 0.35622 0.84356 0.0
O244 O -0.0009 0.36329 0.80962 0.0
H245 H 0.1235 0.29005 0.85831 0.0
H246 H 0.9141 0.37048 0.85868 0.0
O247 O 0.91424 0.32494 0.82597 0.0
H248 H 0.94487 0.46225 0.8044 0.0
H249 H 0.88135 0.36853 0.74471 0.0
H250 H 0.98939 0.33212 0.76795 0.0
H251 H 0.96435 0.40833 0.79404 0.0
H252 H 0.89747 0.36399 0.79064 0.0
O253 O 0.00814 0.35977 0.89448 0.0
H254 H 0.07072 0.30703 0.84236 0.0
H255 H 0.03754 0.31687 0.91986 0.0
H256 H 0.97437 0.33654 0.72176 0.0
H257 H 0.89389 0.42395 0.86963 0.0
H258 H 0.91999 0.35486 0.7099 0.0
H259 H 0.90937 0.47032 0.84244 0.0
O260 O 0.97388 0.30114 0.81011 0.0
H261 H 0.92687 0.29402 0.93255 0.0
H262 H 0.01717 0.25698 0.87922 0.0
H263 H 0.9888 0.21878 0.90735 0.0
H264 H 0.9433 0.23725 0.93428 0.0
H265 H 0.95575 0.33137 0.90399 0.0
H266 H 0.09004 0.30025 0.93667 0.0
H267 H 0.13341 0.28657 0.90578 0.0
O268 O 0.01212 0.29235 0.83985 0.0
C269 C 0.02569 0.3675 0.82117 0.0
C270 C 0.10476 0.29584 0.87196 0.0
C271 C 0.08599 0.3016 0.91594 0.0
N272 N 0.05102 0.31264 0.88016 0.0
C273 C 0.07481 0.30537 0.86304 0.0
C274 C 0.05634 0.31105 0.90632 0.0
C275 C 0.11031 0.29392 0.8986 0.0
C276 C 0.92066 0.39048 0.84659 0.0
N277 N 0.94023 0.38626 0.82566 0.0
C278 C 0.90926 0.42072 0.85296 0.0
C279 C 0.918 0.44674 0.83772 0.0
C280 C 0.93793 0.44223 0.81638 0.0
C281 C 0.94893 0.41165 0.81063 0.0
C282 C 0.90514 0.3606 0.74963 0.0
C283 C 0.96577 0.34034 0.76292 0.0
C284 C 0.91438 0.35795 0.77559 0.0
N285 N 0.94444 0.34812 0.78193 0.0
C286 C 0.95736 0.34269 0.73675 0.0
C287 C 0.92684 0.35294 0.73011 0.0
C288 C 0.99666 0.28462 0.81945 0.0
C289 C 0.94672 0.28571 0.92097 0.0
C290 C 0.99737 0.26519 0.89085 0.0
C291 C 0.98143 0.24346 0.90678 0.0
C292 C 0.95592 0.25385 0.9219 0.0
N293 N 0.98821 0.29641 0.89006 0.0
C294 C 0.96325 0.30677 0.90485 0.0
Co295 Co 0.64545 0.45547 0.31881 0.0
Co296 Co 0.6669 0.5074 0.36793 0.0
O297 O 0.65134 0.46653 0.35524 0.0
C298 C 0.6908 0.40841 0.33925 0.0
O299 O 0.7058 0.43236 0.35017 0.0
C300 C 0.60326 0.49989 0.39074 0.0
O301 O 0.59368 0.49179 0.3674 0.0
O302 O 0.63862 0.53125 0.34368 0.0
O303 O 0.62489 0.49731 0.31177 0.0
H304 H 0.70939 0.61884 0.35948 0.0
H305 H 0.62248 0.41195 0.36018 0.0
O306 O 0.6661 0.41336 0.32544 0.0
H307 H 0.52692 0.44026 0.30943 0.0
H308 H 0.61894 0.38068 0.24552 0.0
H309 H 0.65286 0.48952 0.26871 0.0
H310 H 0.57978 0.46115 0.29711 0.0
H311 H 0.62592 0.39605 0.29142 0.0
O312 O 0.63228 0.5075 0.39465 0.0
H313 H 0.69022 0.5669 0.34338 0.0
H314 H 0.67564 0.53506 0.42076 0.0
H315 H 0.64594 0.47524 0.22258 0.0
H316 H 0.57013 0.39032 0.37308 0.0
H317 H 0.62886 0.42046 0.21074 0.0
H318 H 0.52186 0.40457 0.34769 0.0
O319 O 0.68768 0.47388 0.30928 0.0
H320 H 0.69268 0.42282 0.43369 0.0
H321 H 0.73571 0.51189 0.38201 0.0
H322 H 0.7716 0.48172 0.41088 0.0
H323 H 0.75009 0.43683 0.43698 0.0
H324 H 0.65773 0.45346 0.4044 0.0
H325 H 0.69441 0.58675 0.43771 0.0
H326 H 0.71157 0.62902 0.40697 0.0
O327 O 0.70144 0.50768 0.34135 0.0
C328 C 0.62417 0.52465 0.32254 0.0
C329 C 0.70209 0.60057 0.37307 0.0
C330 C 0.69363 0.58258 0.41698 0.0
N331 N 0.68208 0.54792 0.38112 0.0
C332 C 0.69131 0.57109 0.36407 0.0
C333 C 0.68296 0.55339 0.40727 0.0
C334 C 0.70327 0.60628 0.39972 0.0
C335 C 0.60164 0.418 0.34887 0.0
N336 N 0.6042 0.4377 0.32785 0.0
C337 C 0.57204 0.40579 0.35634 0.0
C338 C 0.54496 0.41383 0.3421 0.0
C339 C 0.54778 0.43387 0.32065 0.0
C340 C 0.57776 0.44568 0.31379 0.0
C341 C 0.62634 0.40463 0.25043 0.0
C342 C 0.64524 0.4657 0.26371 0.0
C343 C 0.63041 0.41345 0.27638 0.0
N344 N 0.63959 0.44371 0.28272 0.0
C345 C 0.64145 0.45772 0.23756 0.0
C346 C 0.6319 0.42697 0.23093 0.0
C347 C 0.70661 0.49407 0.31959 0.0
C348 C 0.70232 0.44237 0.42245 0.0
C349 C 0.72622 0.49232 0.39324 0.0
C350 C 0.74663 0.47538 0.40961 0.0
C351 C 0.73454 0.45021 0.42426 0.0
N352 N 0.69466 0.48447 0.39155 0.0
C353 C 0.68262 0.45988 0.40591 0.0
Co354 Co 0.53883 0.14842 0.8172 0.0
Co355 Co 0.4857 0.16604 0.86629 0.0
O356 O 0.52723 0.15219 0.85371 0.0
C357 C 0.58659 0.19155 0.83971 0.0
O358 O 0.56267 0.20687 0.85037 0.0
C359 C 0.4954 0.10313 0.88956 0.0
O360 O 0.50312 0.09345 0.86615 0.0
O361 O 0.46339 0.1362 0.84246 0.0
O362 O 0.49647 0.12947 0.80852 0.0
H363 H 0.37211 0.20239 0.8576 0.0
H364 H 0.5813 0.12149 0.85768 0.0
O365 O 0.58138 0.16743 0.82532 0.0
H366 H 0.55043 0.03045 0.80262 0.0
H367 H 0.61436 0.12475 0.74376 0.0
H368 H 0.50635 0.16114 0.76712 0.0
H369 H 0.53115 0.08455 0.79262 0.0
H370 H 0.59814 0.12876 0.78971 0.0
O371 O 0.48728 0.13197 0.89336 0.0
H372 H 0.4249 0.18551 0.8416 0.0
H373 H 0.45786 0.17458 0.91906 0.0
H374 H 0.52147 0.15724 0.72093 0.0
H375 H 0.60129 0.06782 0.86826 0.0
H376 H 0.57583 0.13893 0.70901 0.0
H377 H 0.58576 0.02183 0.84068 0.0
O378 O 0.52185 0.19157 0.80957 0.0
H379 H 0.56852 0.1971 0.93215 0.0
H380 H 0.47843 0.23497 0.87896 0.0
H381 H 0.50677 0.27275 0.90749 0.0
H382 H 0.55216 0.25386 0.93435 0.0
H383 H 0.53967 0.16017 0.90321 0.0
H384 H 0.40535 0.19108 0.93593 0.0
H385 H 0.36208 0.20526 0.90509 0.0
O386 O 0.48353 0.2001 0.83931 0.0
C387 C 0.46985 0.12517 0.82 0.0
C388 C 0.3908 0.19638 0.87123 0.0
C389 C 0.40945 0.19 0.9152 0.0
N390 N 0.44448 0.17936 0.87938 0.0
C391 C 0.42076 0.18691 0.86229 0.0
C392 C 0.4391 0.18061 0.90554 0.0
C393 C 0.38518 0.19795 0.89788 0.0
C394 C 0.57472 0.10165 0.84542 0.0
N395 N 0.55523 0.10618 0.82447 0.0
C396 C 0.586 0.07129 0.85157 0.0
C397 C 0.57723 0.04549 0.83611 0.0
C398 C 0.55739 0.05031 0.81476 0.0
C399 C 0.54651 0.08099 0.80923 0.0
C400 C 0.59058 0.13267 0.74871 0.0
C401 C 0.52996 0.15292 0.76207 0.0
C402 C 0.58128 0.13503 0.77468 0.0
N403 N 0.55123 0.14486 0.78105 0.0
C404 C 0.53843 0.15087 0.73589 0.0
C405 C 0.56894 0.14063 0.72922 0.0
C406 C 0.49911 0.20805 0.81902 0.0
C407 C 0.54872 0.20559 0.9206 0.0
C408 C 0.49819 0.22657 0.89056 0.0
C409 C 0.5141 0.24807 0.90672 0.0
C410 C 0.53955 0.23745 0.92179 0.0
N411 N 0.5073 0.19536 0.88952 0.0
C412 C 0.5322 0.18476 0.90426 0.0
Co413 Co 0.84779 0.0401 0.31842 0.0
Co414 Co 0.82811 0.98691 0.36705 0.0
O415 O 0.84292 0.02826 0.35478 0.0
C416 C 0.80369 0.08742 0.34022 0.0
O417 O 0.78841 0.06347 0.35089 0.0
C418 C 0.8915 0.99513 0.38998 0.0
O419 O 0.90104 0.00311 0.3666 0.0
O420 O 0.85699 0.96404 0.34277 0.0
O421 O 0.86743 -0.00192 0.31013 0.0
H422 H 0.78834 0.87458 0.35764 0.0
H423 H 0.87297 0.08227 0.35985 0.0
O424 O 0.82815 0.08237 0.32617 0.0
H425 H 0.96622 0.05347 0.30651 0.0
H426 H 0.87318 0.11612 0.24571 0.0
H427 H 0.83755 0.00754 0.268 0.0
H428 H 0.9126 0.03378 0.2951 0.0
H429 H 0.86765 0.09975 0.2915 0.0
O430 O 0.86255 0.98729 0.3939 0.0
H431 H 0.80655 0.92705 0.34196 0.0
H432 H 0.81938 0.95862 0.41962 0.0
H433 H 0.84299 0.02282 0.22195 0.0
H434 H 0.92612 0.10268 0.37186 0.0
H435 H 0.86092 0.07747 0.21056 0.0
H436 H 0.97323 0.08818 0.34516 0.0
O437 O 0.80492 0.02273 0.30971 0.0
H438 H 0.79998 0.06956 0.4338 0.0
H439 H 0.75907 0.98126 0.38008 0.0
H440 H 0.72231 0.01015 0.40909 0.0
H441 H 0.74273 0.05464 0.43621 0.0
H442 H 0.83586 0.04019 0.40439 0.0
H443 H 0.80155 0.90639 0.43616 0.0
H444 H 0.78575 0.86399 0.40505 0.0
O445 O 0.79382 0.98605 0.34026 0.0
C446 C 0.86975 0.97087 0.32098 0.0
C447 C 0.79505 0.8929 0.37138 0.0
C448 C 0.8025 0.91074 0.41545 0.0
N449 N 0.81373 0.94593 0.37987 0.0
C450 C 0.80528 0.92268 0.36262 0.0
C451 C 0.81263 0.94023 0.40598 0.0
C452 C 0.79364 0.88696 0.39799 0.0
C453 C 0.8933 0.07612 0.34798 0.0
N454 N 0.88966 0.05694 0.32674 0.0
C455 C 0.92336 0.08764 0.35494 0.0
C456 C 0.94979 0.07945 0.33997 0.0
C457 C 0.94587 0.05996 0.3183 0.0
C458 C 0.91546 0.04883 0.31196 0.0
C459 C 0.86541 0.09222 0.25042 0.0
C460 C 0.84557 0.0313 0.26319 0.0
C461 C 0.86218 0.08284 0.27631 0.0
N462 N 0.85254 0.05265 0.28239 0.0
C463 C 0.84851 0.03984 0.23708 0.0
C464 C 0.85854 0.07052 0.23071 0.0
C465 C 0.78718 0.00106 0.3194 0.0
C466 C 0.79082 0.05015 0.42213 0.0
C467 C 0.76813 0.00062 0.39181 0.0
C468 C 0.74721 0.01685 0.40822 0.0
C469 C 0.75869 0.0418 0.42345 0.0
N470 N 0.79962 0.00893 0.39065 0.0
C471 C 0.81105 0.03335 0.40553 0.0
C472 C 0.00821 0.40059 0.93799 0.0
C473 C -0.00103 0.41081 0.91312 0.0
C474 C 0.00711 0.42148 0.95905 0.0
C475 C 0.00621 0.50677 0.97532 0.0
H476 H 0.97418 0.4772 0.04175 0.0
C477 C 0.98263 0.59203 0.06073 0.0
C478 C 0.99224 0.58182 0.08552 0.0
C479 C 0.98312 0.57104 0.03974 0.0
C480 C 0.98349 0.4857 0.0234 0.0
H481 H 0.98107 0.45087 0.89085 0.0
H482 H 0.97895 0.48726 0.92769 0.0
H483 H 0.97558 0.44077 0.00488 0.0
H484 H 0.00998 0.54165 0.10772 0.0
H485 H 0.01104 0.50507 0.07096 0.0
H486 H 0.01418 0.55168 0.99384 0.0
C487 C 0.98745 0.46321 0.93081 0.0
C488 C 0.98429 0.46486 0.00229 0.0
C489 C 0.98854 0.44232 0.90974 0.0
C490 C 0.00226 0.55018 0.08889 0.0
C491 C 0.00274 0.52919 0.06787 0.0
C492 C 0.00542 0.52761 0.99642 0.0
C493 C 0.99672 0.453 0.95568 0.0
C494 C 0.99568 0.47518 0.97804 0.0
C495 C 0.99325 0.53943 0.04307 0.0
C496 C 0.99406 0.51729 0.02068 0.0
H497 H 0.01642 0.37647 0.94124 0.0
H498 H 0.01478 0.41304 0.97791 0.0
H499 H 0.01557 0.51526 0.95698 0.0
H500 H 0.97469 0.61625 0.0575 0.0
H501 H 0.97527 0.57951 0.02093 0.0
C502 C 0.39863 0.47887 0.55971 0.0
C503 C 0.40887 0.48828 0.58454 0.0
C504 C 0.41964 0.47965 0.53869 0.0
C505 C 0.49378 0.51785 0.5166 0.0
H506 H 0.49547 0.44901 0.4664 0.0
C507 C 0.59057 0.50822 0.43768 0.0
C508 C 0.58067 0.49911 0.41269 0.0
C509 C 0.56939 0.50691 0.45854 0.0
C510 C 0.49501 0.46858 0.4801 0.0
H511 H 0.44923 0.50561 0.60687 0.0
H512 H 0.48592 0.50664 0.57023 0.0
H513 H 0.45897 0.44623 0.50323 0.0
H514 H 0.54079 0.4815 0.38995 0.0
H515 H 0.50372 0.47955 0.42638 0.0
H516 H 0.52978 0.54022 0.4935 0.0
C517 C 0.46157 0.49902 0.56696 0.0
C518 C 0.47414 0.46697 0.50118 0.0
C519 C 0.4406 0.4982 0.58798 0.0
C520 C 0.54914 0.48872 0.40897 0.0
C521 C 0.52796 0.48738 0.42986 0.0
C522 C 0.51463 0.51946 0.49553 0.0
C523 C 0.45127 0.48992 0.54208 0.0
C524 C 0.47336 0.49156 0.51967 0.0
C525 C 0.53788 0.49642 0.45486 0.0
C526 C 0.5155 0.49482 0.47708 0.0
H527 H 0.3743 0.47118 0.55642 0.0
H528 H 0.41093 0.47282 0.51968 0.0
H529 H 0.49333 0.53742 0.53029 0.0
H530 H 0.61475 0.51622 0.44121 0.0
H531 H 0.57784 0.51364 0.47765 0.0
C532 C 0.4945 0.94202 0.08732 0.0
C533 C 0.50448 0.91031 0.08428 0.0
C534 C 0.49439 0.96277 0.06615 0.0
C535 C 0.49235 0.96366 0.99475 0.0
H536 H 0.52159 0.05073 0.00302 0.0
C537 C 0.50749 0.04941 0.90805 0.0
C538 C 0.49677 0.08079 0.91164 0.0
C539 C 0.50906 0.02841 0.92903 0.0
C540 C 0.51306 0.02657 0.00048 0.0
H541 H 0.52234 0.87551 0.05672 0.0
H542 H 0.52238 0.91186 0.01983 0.0
H543 H 0.52336 0.0144 0.03994 0.0
H544 H 0.47922 0.11476 0.94001 0.0
H545 H 0.48167 0.078 0.97651 0.0
H546 H 0.48194 0.97586 0.95531 0.0
C547 C 0.51431 0.92055 0.03851 0.0
C548 C 0.51408 0.00578 0.02161 0.0
C549 C 0.51444 0.8998 0.05968 0.0
C550 C 0.48766 0.09075 0.93661 0.0
C551 C 0.48924 0.06976 0.95756 0.0
C552 C 0.49133 0.98445 0.97362 0.0
C553 C 0.50421 0.95223 0.04152 0.0
C554 C 0.50363 0.97415 0.01898 0.0
C555 C 0.49997 0.03838 0.954 0.0
C556 C 0.50157 0.01615 0.97629 0.0
H557 H 0.48651 0.9508 0.106 0.0
H558 H 0.48608 0.98693 0.06898 0.0
H559 H 0.48372 0.93953 0.99223 0.0
H560 H 0.51487 0.04107 0.88907 0.0
H561 H 0.51779 0.00448 0.92575 0.0
C562 C 0.90421 0.98733 0.43699 0.0
C563 C 0.91409 0.9962 0.41193 0.0
C564 C 0.92542 0.98881 0.45782 0.0
C565 C 7e-05 0.02694 0.4791 0.0
H566 H 0.00156 0.95833 0.5295 0.0
C567 C 0.09684 0.01614 0.55841 0.0
C568 C 0.08667 0.00685 0.58328 0.0
C569 C 0.07569 0.01554 0.53747 0.0
C570 C 0.00116 0.97784 0.51575 0.0
H571 H 0.95395 0.01359 0.38907 0.0
H572 H 0.99108 0.0158 0.42544 0.0
H573 H 0.96493 0.95558 0.49283 0.0
H574 H 0.04626 0.98999 0.60579 0.0
H575 H 0.00934 0.98928 0.56931 0.0
H576 H 0.03638 0.04917 0.50204 0.0
C577 C 0.96683 0.00804 0.429 0.0
C578 C 0.98021 0.97626 0.49475 0.0
C579 C 0.94562 0.00655 0.40814 0.0
C580 C 0.05486 -0.00271 0.58686 0.0
C581 C 0.03375 0.99666 0.56594 0.0
C582 C 0.02106 0.02852 0.50011 0.0
C583 C 0.95694 -0.00081 0.45405 0.0
C584 C 0.9794 0.00081 0.47623 0.0
C585 C 0.04399 0.00558 0.541 0.0
C586 C 0.02177 0.00401 0.51867 0.0
H587 H 0.88002 0.97938 0.44057 0.0
H588 H 0.91699 0.98223 0.47697 0.0
H589 H -0.00033 0.04644 0.46533 0.0
H590 H 0.12124 0.02355 0.55501 0.0
H591 H 0.08435 0.02224 0.51842 0.0
C592 C 0.12683 0.72611 0.13399 0.0
C593 C 0.12008 0.70124 0.15141 0.0
C594 C 0.15819 0.73649 0.13034 0.0
C595 C 0.2425 0.71325 0.1415 0.0
H596 H 0.25752 0.80435 0.14039 0.0
C597 C 0.35028 0.80664 0.16456 0.0
C598 C 0.37583 0.79169 0.15183 0.0
C599 C 0.31913 0.79588 0.16095 0.0
C600 C 0.25373 0.77884 0.14073 0.0
H601 H 0.14096 0.66741 0.17835 0.0
H602 H 0.19538 0.68587 0.17238 0.0
H603 H 0.20306 0.78424 0.1409 0.0
H604 H 0.38865 0.75421 0.12479 0.0
H605 H 0.33408 0.73559 0.11827 0.0
H606 H 0.29317 0.70787 0.14258 0.0
C607 C 0.17662 0.69704 0.16118 0.0
C608 C 0.2225 0.7673 0.14069 0.0
C609 C 0.14534 0.68661 0.16476 0.0
C610 C 0.3695 0.76605 0.13506 0.0
C611 C 0.33826 0.75533 0.13137 0.0
C612 C 0.27374 0.72479 0.14163 0.0
C613 C 0.18341 0.72223 0.14407 0.0
C614 C 0.21652 0.73438 0.14156 0.0
C615 C 0.31274 0.77001 0.14442 0.0
C616 C 0.2797 0.75773 0.14175 0.0
H617 H 0.1079 0.73768 0.12324 0.0
H618 H 0.16268 0.75568 0.11677 0.0
H619 H 0.23871 0.68773 0.14176 0.0
H620 H 0.35433 0.82643 0.17766 0.0
H621 H 0.30012 0.80739 0.17164 0.0
C622 C 0.30691 0.64469 0.66261 0.0
C623 C 0.29211 0.61911 0.64981 0.0
C624 C 0.29637 0.67579 0.65862 0.0
C625 C 0.2258 0.72092 0.63799 0.0
H626 H 0.28544 0.79158 0.6382 0.0
C627 C 0.22757 0.86766 0.63095 0.0
C628 C 0.20236 0.87424 0.64809 0.0
C629 C 0.23793 0.83638 0.62722 0.0
C630 C 0.26845 0.77214 0.6377 0.0
H631 H 0.25522 0.60611 0.6222 0.0
H632 H 0.23703 0.66058 0.61502 0.0
H633 H 0.3055 0.7372 0.63796 0.0
H634 H 0.16791 0.85316 0.67445 0.0
H635 H 0.18637 0.79886 0.66839 0.0
H636 H 0.18876 0.75586 0.63757 0.0
C637 C 0.25645 0.6565 0.62848 0.0
C638 C 0.27996 0.74096 0.63791 0.0
C639 C 0.26692 0.62531 0.63255 0.0
C640 C 0.18738 0.8489 0.66108 0.0
C641 C 0.1978 0.8177 0.65744 0.0
C642 C 0.2143 0.7521 0.63768 0.0
C643 C 0.27092 0.68206 0.64163 0.0
C644 C 0.25876 0.71502 0.63863 0.0
C645 C 0.22333 0.81108 0.64061 0.0
C646 C 0.23549 0.77806 0.6381 0.0
H647 H 0.32635 0.64071 0.67607 0.0
H648 H 0.3077 0.69485 0.6694 0.0
H649 H 0.20882 0.7015 0.6387 0.0
H650 H 0.2394 0.88667 0.62046 0.0
H651 H 0.2574 0.83201 0.61387 0.0
C652 C 0.64504 0.18733 0.83124 0.0
C653 C 0.61968 0.20212 0.84434 0.0
C654 C 0.67631 0.19758 0.83512 0.0
C655 C 0.7419 0.2132 0.85564 0.0
H656 H 0.75783 0.30416 0.85593 0.0
C657 C 0.86936 0.26484 0.86189 0.0
C658 C 0.87597 0.28994 0.84466 0.0
C659 C 0.838 0.25456 0.86573 0.0
C660 C 0.75377 0.27869 0.85584 0.0
H661 H 0.60729 0.23873 0.87231 0.0
H662 H 0.66209 0.25648 0.87924 0.0
H663 H 0.70316 0.28459 0.85523 0.0
H664 H 0.85488 0.32422 0.8182 0.0
H665 H 0.80047 0.30594 0.82451 0.0
H666 H 0.79251 0.2073 0.85498 0.0
C667 C 0.65767 0.23725 0.86568 0.0
C668 C 0.72243 0.26746 0.85577 0.0
C669 C 0.62631 0.22704 0.86175 0.0
C670 C 0.85061 0.30483 0.83164 0.0
C671 C 0.81935 0.29452 0.83542 0.0
C672 C 0.77324 0.22442 0.85563 0.0
C673 C 0.68299 0.22275 0.85227 0.0
C674 C 0.71615 0.2346 0.85513 0.0
C675 C 0.81267 0.26917 0.85241 0.0
C676 C 0.77952 0.2573 0.85519 0.0
H677 H 0.64076 0.16808 0.81768 0.0
H678 H 0.69518 0.18624 0.82414 0.0
H679 H 0.73784 0.18772 0.85556 0.0
H680 H 0.88838 0.25307 0.87238 0.0
H681 H 0.83359 0.2352 0.87916 0.0
C682 C 0.72719 0.36906 0.36058 0.0
C683 C 0.70212 0.37551 0.34327 0.0
C684 C 0.73785 0.33786 0.36421 0.0
C685 C 0.76874 0.2736 0.35421 0.0
H686 H 0.70908 0.20296 0.35332 0.0
C687 C 0.80748 0.14572 0.33125 0.0
C688 C 0.79267 0.12039 0.34439 0.0
C689 C 0.79683 0.17687 0.33467 0.0
C690 C 0.72606 0.2224 0.35399 0.0
H691 H 0.6684 0.3543 0.31634 0.0
H692 H 0.68737 0.30014 0.32228 0.0
H693 H 0.68903 0.25737 0.35356 0.0
H694 H 0.75556 0.10794 0.37195 0.0
H695 H 0.73709 0.16255 0.3781 0.0
H696 H 0.80576 0.23863 0.35477 0.0
C697 C 0.69845 0.31903 0.33342 0.0
C698 C 0.71457 0.25358 0.35379 0.0
C699 C 0.68774 0.35014 0.32985 0.0
C700 C 0.76728 0.12693 0.36137 0.0
C701 C 0.75666 0.15818 0.36485 0.0
C702 C 0.78022 0.24242 0.35448 0.0
C703 C 0.72367 0.31252 0.35058 0.0
C704 C 0.73579 0.27952 0.35336 0.0
C705 C 0.77121 0.18346 0.3514 0.0
C706 C 0.75902 0.21648 0.35383 0.0
H707 H 0.73856 0.38808 0.37139 0.0
H708 H 0.7571 0.33357 0.37778 0.0
H709 H 0.78573 0.29304 0.35374 0.0
H710 H 0.82708 0.14151 0.31799 0.0
H711 H 0.80821 0.19571 0.32368 0.0
C712 C 0.76167 0.51691 0.31844 0.0
C713 C 0.73586 0.50292 0.30531 0.0
C714 C 0.78851 0.52718 0.30481 0.0
C715 C 0.8291 0.52243 0.24045 0.0
H716 H 0.86798 0.60126 0.26379 0.0
C717 C 0.91634 0.599 0.17907 0.0
C718 C 0.94407 0.60951 0.19186 0.0
C719 C 0.89222 0.58344 0.19286 0.0
C720 C 0.85752 0.57907 0.25721 0.0
H721 H 0.71817 0.4883 0.26756 0.0
H722 H 0.76446 0.50731 0.24361 0.0
H723 H 0.82338 0.57894 0.28789 0.0
H724 H 0.96834 0.61147 0.22909 0.0
H725 H 0.9259 0.58487 0.25312 0.0
H726 H 0.86278 0.52357 0.20911 0.0
C727 C 0.76441 0.5096 0.26455 0.0
C728 C 0.83205 0.56613 0.27108 0.0
C729 C 0.73775 0.49883 0.27827 0.0
C730 C 0.94731 0.60374 0.21863 0.0
C731 C 0.923 0.58861 0.23244 0.0
C732 C 0.85432 0.53569 0.22635 0.0
C733 C 0.78999 0.52427 0.27761 0.0
C734 C 0.81752 0.53759 0.26294 0.0
C735 C 0.89517 0.57852 0.21972 0.0
C736 C 0.86877 0.56408 0.23466 0.0
H737 H 0.76113 0.52008 0.3393 0.0
H738 H 0.80804 0.5376 0.31564 0.0
H739 H 0.81886 0.5002 0.23381 0.0
H740 H 0.91316 0.60295 0.15845 0.0
H741 H 0.87087 0.57603 0.18266 0.0
C742 C 0.40231 0.45089 0.7111 0.0
C743 C 0.38295 0.4434 0.68964 0.0
C744 C 0.41809 0.42691 0.72475 0.0
C745 C 0.4309 0.37069 0.75995 0.0
H746 H 0.46597 0.29717 0.72452 0.0
C747 C 0.46279 0.25488 0.81361 0.0
C748 C 0.48957 0.23752 0.80531 0.0
C749 C 0.45253 0.28154 0.7998 0.0
C750 C 0.45668 0.31772 0.73472 0.0
H751 H 0.36524 0.40472 0.66562 0.0
H752 H 0.39224 0.36291 0.68976 0.0
H753 H 0.44385 0.34089 0.69924 0.0
H754 H 0.52712 0.23526 0.77632 0.0
H755 H 0.50948 0.28216 0.75252 0.0
H756 H 0.44417 0.34776 0.79541 0.0
C757 C 0.39572 0.3874 0.69573 0.0
C758 C 0.44361 0.34259 0.72022 0.0
C759 C 0.38006 0.41139 0.68197 0.0
C760 C 0.5063 0.24795 0.78321 0.0
C761 C 0.49609 0.27474 0.76946 0.0
C762 C 0.4441 0.34589 0.77443 0.0
C763 C 0.41475 0.39486 0.71738 0.0
C764 C 0.43023 0.36919 0.73268 0.0
C765 C 0.46887 0.29162 0.77742 0.0
C766 C 0.45679 0.31894 0.762 0.0
H767 H 0.40522 0.47529 0.7175 0.0
H768 H 0.43295 0.43352 0.74109 0.0
H769 H 0.42052 0.39067 0.77019 0.0
H770 H 0.44925 0.24754 0.8305 0.0
H771 H 0.43122 0.29371 0.80627 0.0
C772 C 0.58292 0.88434 0.182 0.0
C773 C 0.55093 0.88638 0.18994 0.0
C774 C 0.60677 0.90049 0.1956 0.0
C775 C 0.65149 0.94837 0.22016 0.0
H776 H 0.64634 0.94896 0.29533 0.0
C777 C 0.74785 0.009 0.28321 0.0
C778 C 0.75762 0.99217 0.30544 0.0
C779 C 0.7208 -0.00056 0.26938 0.0
C780 C 0.64823 0.94889 0.27436 0.0
H781 H 0.51887 0.90774 0.21809 0.0
H782 H 0.56033 0.93648 0.24135 0.0
H783 H 0.60329 0.92548 0.27017 0.0
H784 H 0.74623 0.95232 0.33072 0.0
H785 H 0.69976 0.93535 0.30635 0.0
H786 H 0.69719 0.97035 0.22443 0.0
C787 C 0.56709 0.92184 0.22495 0.0
C788 C 0.62331 0.9358 0.25989 0.0
C789 C 0.54327 0.90548 0.21149 0.0
C790 C 0.73941 0.96594 0.31375 0.0
C791 C 0.71255 0.95631 0.29984 0.0
C792 C 0.67653 0.96126 0.23465 0.0
C793 C 0.59918 0.91926 0.21735 0.0
C794 C 0.6248 0.93504 0.23262 0.0
C795 C 0.70303 0.97277 0.27738 0.0
C796 C 0.67539 0.96129 0.26194 0.0
H797 H 0.58973 0.86972 0.16558 0.0
H798 H 0.63128 0.89753 0.18945 0.0
H799 H 0.6532 0.94861 0.19918 0.0
H800 H 0.7612 0.02942 0.27633 0.0
H801 H 0.71386 0.01294 0.25237 0.0
C802 C 0.99008 0.24542 0.78305 0.0
C803 C 0.00645 0.25544 0.80545 0.0
C804 C 0.00058 0.21896 0.76902 0.0
C805 C 0.04056 0.17661 0.73415 0.0
H806 H 0.07597 0.10297 0.76917 0.0
C807 C 0.11689 0.08293 0.68098 0.0
C808 C 0.11358 0.05087 0.68837 0.0
C809 C 0.10143 0.10694 0.69487 0.0
C810 C 0.06582 0.12316 0.75905 0.0
H811 H 0.04644 0.24502 0.83089 0.0
H812 H 0.06496 0.1994 0.80622 0.0
H813 H 0.05216 0.14556 0.79463 0.0
H814 H 0.09077 0.01891 0.71588 0.0
H815 H 0.06336 0.06069 0.73967 0.0
H816 H 0.05375 0.15394 0.69854 0.0
C817 C 0.04371 0.21165 0.7997 0.0
C818 C 0.05253 0.14777 0.77368 0.0
C819 C 0.03316 0.23799 0.81377 0.0
C820 C 0.09401 0.04335 0.70969 0.0
C821 C 0.07842 0.06734 0.72346 0.0
C822 C 0.05374 0.15192 0.71951 0.0
C823 C 0.02773 0.20198 0.77704 0.0
C824 C 0.04006 0.17495 0.76142 0.0
C825 C 0.08217 0.09944 0.71637 0.0
C826 C 0.06681 0.12505 0.7318 0.0
H827 H 0.96933 0.2582 0.77612 0.0
H828 H 0.98746 0.21184 0.75186 0.0
H829 H 0.03146 0.19735 0.7241 0.0
H830 H 0.1319 0.08961 0.66474 0.0
H831 H 0.10521 0.13146 0.68911 0.0
C832 C 0.04867 0.39132 0.78078 0.0
C833 C 0.05044 0.38636 0.80773 0.0
C834 C 0.07267 0.40801 0.76784 0.0
C835 C 0.15695 0.43292 0.77542 0.0
H836 H 0.1382 0.48331 0.71417 0.0
C837 C 0.25365 0.50284 0.71969 0.0
C838 C 0.25521 0.4953 0.6931 0.0
C839 C 0.2274 0.49348 0.73453 0.0
C840 C 0.14369 0.46934 0.73128 0.0
H841 H 0.0782 0.39605 0.84239 0.0
H842 H 0.11951 0.42614 0.81998 0.0
H843 H 0.09452 0.46014 0.73919 0.0
H844 H 0.22982 0.47323 0.66106 0.0
H845 H 0.18374 0.45746 0.68697 0.0
H846 H 0.20615 0.44253 0.76752 0.0
C847 C 0.10011 0.41628 0.80867 0.0
C848 C 0.11875 0.45588 0.74553 0.0
C849 C 0.07633 0.39916 0.82156 0.0
C850 C 0.22941 0.47932 0.68149 0.0
C851 C 0.20296 0.47043 0.69626 0.0
C852 C 0.18182 0.44679 0.76139 0.0
C853 C 0.0988 0.42059 0.78159 0.0
C854 C 0.12509 0.43703 0.76755 0.0
C855 C 0.202 0.47692 0.72299 0.0
C856 C 0.17543 0.46469 0.73898 0.0
H857 H 0.02912 0.38164 0.76952 0.0
H858 H 0.07108 0.41028 0.74694 0.0
H859 H 0.16287 0.41813 0.79195 0.0
H860 H 0.27314 0.51507 0.72925 0.0
H861 H 0.22708 0.49887 0.7551 0.0
C862 C 0.60912 0.58205 0.3172 0.0
C863 C 0.60562 0.55008 0.30963 0.0
C864 C 0.59293 0.60616 0.30397 0.0
C865 C 0.55513 0.62231 0.24061 0.0
H866 H 0.52524 0.69848 0.27546 0.0
C867 C 0.48609 0.74849 0.21621 0.0
C868 C 0.50261 0.75682 0.19343 0.0
C869 C 0.49513 0.72171 0.23056 0.0
C870 C 0.53303 0.67718 0.26545 0.0
H871 H 0.58137 0.5183 0.28282 0.0
H872 H 0.55259 0.56017 0.26031 0.0
H873 H 0.54638 0.65446 0.30102 0.0
H874 H 0.54139 0.74319 0.16775 0.0
H875 H 0.55738 0.69717 0.19293 0.0
H876 H 0.54134 0.64472 0.20511 0.0
C877 C 0.56845 0.56674 0.27602 0.0
C878 C 0.54556 0.65212 0.28009 0.0
C879 C 0.58486 0.54269 0.28905 0.0
C880 C 0.528 0.7375 0.18513 0.0
C881 C 0.53708 0.71089 0.19951 0.0
C882 C 0.54242 0.64723 0.22602 0.0
C883 C 0.57266 0.59882 0.28304 0.0
C884 C 0.55721 0.62458 0.2678 0.0
C885 C 0.5209 0.70276 0.22247 0.0
C886 C 0.53174 0.6752 0.23822 0.0
H887 H 0.62502 0.58861 0.3329 0.0
H888 H 0.59709 0.63064 0.30968 0.0
H889 H 0.56417 0.60163 0.23044 0.0
H890 H 0.46636 0.76278 0.22313 0.0
H891 H 0.48192 0.71586 0.248 0.0
C892 C 0.41928 0.09341 0.82017 0.0
C893 C 0.44513 0.10639 0.80642 0.0
C894 C 0.39558 0.07628 0.80719 0.0
C895 C 0.37717 0.03696 0.7439 0.0
H896 H 0.2897 0.0498 0.76589 0.0
C897 C 0.26659 0.01352 0.67973 0.0
C898 C 0.24074 -0.00242 0.6913 0.0
C899 C 0.29307 0.02227 0.69453 0.0
C900 C 0.31405 0.04567 0.75976 0.0
H901 H 0.46647 0.11147 0.76825 0.0
H902 H 0.42464 0.08281 0.74551 0.0
H903 H 0.33285 0.07428 0.79042 0.0
H904 H 0.22279 0.97765 0.72738 0.0
H905 H 0.2689 0.99359 0.75328 0.0
H906 H 0.35786 0.00958 0.71244 0.0
C907 C 0.42302 0.08494 0.76642 0.0
C908 C 0.33884 0.05959 0.77385 0.0
C909 C 0.44694 0.10164 0.77945 0.0
C910 C 0.24231 0.98987 0.71785 0.0
C911 C 0.26859 -0.00092 0.73272 0.0
C912 C 0.3523 0.02344 0.72959 0.0
C913 C 0.39694 0.07215 0.78009 0.0
C914 C 0.37073 0.05567 0.76597 0.0
C915 C 0.29401 0.01567 0.72124 0.0
C916 C 0.32053 0.0279 0.7373 0.0
H917 H 0.41739 0.09635 0.84102 0.0
H918 H 0.37621 0.06626 0.81844 0.0
H919 H 0.40142 0.03286 0.73755 0.0
H920 H 0.26619 0.01974 0.65933 0.0
H921 H 0.3123 0.03526 0.68528 0.0
C922 C 0.00954 0.74935 0.21324 0.0
C923 C 0.99187 0.73893 0.19163 0.0
C924 C 0.00024 0.77646 0.22703 0.0
C925 C 0.9628 0.82059 0.26232 0.0
H926 H 0.92486 0.89272 0.22699 0.0
C927 C 0.88665 0.914 0.31576 0.0
C928 C 0.88804 0.94582 0.30736 0.0
C929 C 0.90265 0.89014 0.30211 0.0
C930 C 0.9358 0.87302 0.2372 0.0
H931 H 0.95079 0.74928 0.16736 0.0
H932 H 0.93429 0.79589 0.19165 0.0
H933 H 0.94788 0.84965 0.20167 0.0
H934 H 0.90819 0.97759 0.27838 0.0
H935 H 0.93669 0.93616 0.25505 0.0
H936 H 0.95121 0.84426 0.29786 0.0
C937 C 0.95569 0.78354 0.1977 0.0
C938 C 0.94862 0.84809 0.22266 0.0
C939 C 0.96506 0.7566 0.18385 0.0
C940 C 0.90642 0.95332 0.28534 0.0
C941 C 0.92264 0.92951 0.27184 0.0
C942 C 0.95017 0.84565 0.27688 0.0
C943 C 0.97299 0.79366 0.21958 0.0
C944 C 0.9618 0.82133 0.23503 0.0
C945 C 0.92063 0.89757 0.27986 0.0
C946 C 0.93609 0.87194 0.26449 0.0
H947 H 0.03041 0.73641 0.21971 0.0
H948 H 0.01436 0.78388 0.24357 0.0
H949 H 0.97251 0.80022 0.2725 0.0
H950 H 0.8726 0.90733 0.33256 0.0
H951 H 0.90016 0.86574 0.30861 0.0
loop_
_geom_bond_atom_site_label_1
_geom_bond_atom_site_label_2
_geom_bond_distance
_geom_bond_site_symmetry_2
_ccdc_geom_bond_type
Co0 O2 2.143 . S
Co0 O8 2.074 1_455 S
Co0 O11 2.093 . S
Co0 O24 2.097 . S
Co0 N41 2.151 . S
Co0 N49 2.214 . S
Co1 O2 2.160 1_655 S
Co1 O7 2.058 . S
Co1 O17 2.057 . S
Co1 O32 2.037 . S
Co1 N36 2.145 . S
Co1 N57 2.247 1_655 S
O2 Co0 2.143 . S
O2 Co1 2.160 1_455 S
C3 O4 1.278 . S
C3 O11 1.224 . S
O4 C3 1.278 . S
C5 O6 1.245 . S
C5 O17 1.232 1_455 S
O6 C5 1.245 . S
O7 Co1 2.058 . S
O7 C33 1.269 . S
O8 Co0 2.074 1_655 S
O8 C33 1.257 . S
H9 C34 0.930 . S
H10 C40 0.930 . S
O11 Co0 2.093 . S
O11 C3 1.224 . S
H12 C44 0.929 . S
H13 C46 0.930 . S
H14 C47 0.930 1_655 S
H15 C45 0.929 . S
H16 C48 0.928 . S
O17 Co1 2.057 . S
O17 C5 1.232 1_655 S
H18 C37 0.929 . S
H19 C38 0.929 . S
H20 C50 0.931 1_655 S
H21 C42 0.929 . S
H22 C51 0.930 . S
H23 C43 0.931 . S
O24 Co0 2.097 . S
O24 C52 1.214 1_455 S
H25 C53 0.929 . S
H26 C54 0.929 . S
H27 C55 0.930 1_655 S
H28 C56 0.929 . S
H29 C58 0.930 . S
H30 C35 0.930 . S
H31 C39 0.930 . S
O32 Co1 2.037 . S
O32 C52 1.234 . S
C33 O7 1.269 . S
C33 O8 1.257 . S
C34 H9 0.930 . S
C34 C37 1.388 . S
C34 C39 1.418 . S
C35 H30 0.930 . S
C35 C38 1.404 . S
C35 C39 1.353 . S
N36 Co1 2.145 . S
N36 C37 1.397 . S
N36 C38 1.334 . S
C37 H18 0.929 . S
C37 C34 1.388 . S
C37 N36 1.397 . S
C38 H19 0.929 . S
C38 C35 1.404 . S
C38 N36 1.334 . S
C39 H31 0.930 . S
C39 C34 1.418 . S
C39 C35 1.353 . S
C40 H10 0.930 . S
C40 N41 1.330 . S
C40 C42 1.446 . S
N41 Co0 2.151 . S
N41 C40 1.330 . S
N41 C45 1.418 . S
C42 H21 0.929 . S
C42 C40 1.446 . S
C42 C43 1.332 . S
C43 H23 0.931 . S
C43 C42 1.332 . S
C43 C44 1.267 . S
C44 H12 0.929 . S
C44 C43 1.267 . S
C44 C45 1.251 . S
C45 H15 0.929 . S
C45 N41 1.418 . S
C45 C44 1.251 . S
C46 H13 0.930 . S
C46 C48 1.406 . S
C46 C51 1.261 . S
C47 H14 0.930 1_455 S
C47 N49 1.325 . S
C47 C50 1.357 . S
C48 H16 0.928 . S
C48 C46 1.406 . S
C48 N49 1.261 . S
N49 Co0 2.214 . S
N49 C47 1.325 . S
N49 C48 1.261 . S
C50 H20 0.931 1_455 S
C50 C47 1.357 . S
C50 C51 1.312 . S
C51 H22 0.930 . S
C51 C46 1.261 . S
C51 C50 1.312 . S
C52 O24 1.214 1_655 S
C52 O32 1.234 . S
C53 H25 0.929 . S
C53 C56 1.391 . S
C53 C58 1.391 . S
C54 H26 0.929 . S
C54 C55 1.390 1_655 S
C54 N57 1.380 1_655 S
C55 H27 0.930 1_455 S
C55 C54 1.390 1_455 S
C55 C56 1.392 . S
C56 H28 0.929 . S
C56 C53 1.391 . S
C56 C55 1.392 . S
N57 Co1 2.247 1_455 S
N57 C54 1.380 1_455 S
N57 C58 1.411 . S
C58 H29 0.930 . S
C58 C53 1.391 . S
C58 N57 1.411 . S
Co59 O61 2.143 . S
Co59 O67 2.074 . S
Co59 O70 2.093 . S
Co59 O83 2.097 . S
Co59 N100 2.151 . S
Co59 N108 2.214 . S
Co60 O61 2.160 . S
Co60 O66 2.058 . S
Co60 O76 2.057 . S
Co60 O91 2.037 . S
Co60 N95 2.145 . S
Co60 N116 2.257 . S
O61 Co59 2.143 . S
O61 Co60 2.160 . S
C62 O63 1.278 . S
C62 O70 1.224 . S
O63 C62 1.278 . S
C64 O65 1.245 . S
C64 O76 1.232 . S
O65 C64 1.245 . S
O66 Co60 2.058 . S
O66 C92 1.269 . S
O67 Co59 2.074 . S
O67 C92 1.257 . S
H68 C93 0.930 . S
H69 C99 0.930 . S
O70 Co59 2.093 . S
O70 C62 1.224 . S
H71 C103 0.929 . S
H72 C105 0.930 . S
H73 C106 0.930 . S
H74 C104 0.929 . S
H75 C107 0.928 . S
O76 Co60 2.057 . S
O76 C64 1.232 . S
H77 C96 0.929 . S
H78 C97 0.929 . S
H79 C109 0.931 . S
H80 C101 0.929 . S
H81 C110 0.930 . S
H82 C102 0.931 . S
O83 Co59 2.097 . S
O83 C111 1.214 . S
H84 C112 0.929 . S
H85 C113 0.929 . S
H86 C114 0.930 . S
H87 C115 0.929 . S
H88 C117 0.930 . S
H89 C94 0.930 . S
H90 C98 0.930 . S
O91 Co60 2.037 . S
O91 C111 1.234 . S
C92 O66 1.269 . S
C92 O67 1.257 . S
C93 H68 0.930 . S
C93 C96 1.388 . S
C93 C98 1.418 . S
C94 H89 0.930 . S
C94 C97 1.404 . S
C94 C98 1.353 . S
N95 Co60 2.145 . S
N95 C96 1.397 . S
N95 C97 1.334 . S
C96 H77 0.929 . S
C96 C93 1.388 . S
C96 N95 1.397 . S
C97 H78 0.929 . S
C97 C94 1.404 . S
C97 N95 1.334 . S
C98 H90 0.930 . S
C98 C93 1.418 . S
C98 C94 1.353 . S
C99 H69 0.930 . S
C99 N100 1.330 . S
C99 C101 1.446 . S
N100 Co59 2.151 . S
N100 C99 1.330 . S
N100 C104 1.418 . S
C101 H80 0.929 . S
C101 C99 1.446 . S
C101 C102 1.332 . S
C102 H82 0.931 . S
C102 C101 1.332 . S
C102 C103 1.267 . S
C103 H71 0.929 . S
C103 C102 1.267 . S
C103 C104 1.251 . S
C104 H74 0.929 . S
C104 N100 1.418 . S
C104 C103 1.251 . S
C105 H72 0.930 . S
C105 C107 1.406 . S
C105 C110 1.261 . S
C106 H73 0.930 . S
C106 N108 1.325 . S
C106 C109 1.357 . S
C107 H75 0.928 . S
C107 C105 1.406 . S
C107 N108 1.261 . S
N108 Co59 2.214 . S
N108 C106 1.325 . S
N108 C107 1.261 . S
C109 H79 0.931 . S
C109 C106 1.357 . S
C109 C110 1.312 . S
C110 H81 0.930 . S
C110 C105 1.261 . S
C110 C109 1.312 . S
C111 O83 1.214 . S
C111 O91 1.234 . S
C112 H84 0.929 . S
C112 C115 1.391 . S
C112 C117 1.391 . S
C113 H85 0.929 . S
C113 C114 1.390 . S
C113 N116 1.391 . S
C114 H86 0.930 . S
C114 C113 1.390 . S
C114 C115 1.392 . S
C115 H87 0.929 . S
C115 C112 1.391 . S
C115 C114 1.392 . S
N116 Co60 2.257 . S
N116 C113 1.391 . S
N116 C117 1.388 . S
C117 H88 0.930 . S
C117 C112 1.391 . S
C117 N116 1.388 . S
Co118 O120 2.143 . S
Co118 O126 2.074 . S
Co118 O129 2.093 . S
Co118 O142 2.097 . S
Co118 N159 2.151 . S
Co118 N167 2.214 . S
Co119 O120 2.160 . S
Co119 O125 2.058 . S
Co119 O135 2.057 . S
Co119 O150 2.037 . S
Co119 N154 2.145 . S
Co119 N175 2.257 . S
O120 Co118 2.143 . S
O120 Co119 2.160 . S
C121 O122 1.278 . S
C121 O129 1.224 . S
O122 C121 1.278 . S
C123 O124 1.245 . S
C123 O135 1.232 . S
O124 C123 1.245 . S
O125 Co119 2.058 . S
O125 C151 1.269 . S
O126 Co118 2.074 . S
O126 C151 1.257 . S
H127 C152 0.930 . S
H128 C158 0.930 . S
O129 Co118 2.093 . S
O129 C121 1.224 . S
H130 C162 0.929 . S
H131 C164 0.930 . S
H132 C165 0.930 . S
H133 C163 0.929 . S
H134 C166 0.928 . S
O135 Co119 2.057 . S
O135 C123 1.232 . S
H136 C155 0.929 . S
H137 C156 0.929 . S
H138 C168 0.931 . S
H139 C160 0.929 . S
H140 C169 0.930 . S
H141 C161 0.931 . S
O142 Co118 2.097 . S
O142 C170 1.214 . S
H143 C171 0.929 . S
H144 C172 0.929 . S
H145 C173 0.930 . S
H146 C174 0.929 . S
H147 C176 0.930 . S
H148 C153 0.930 . S
H149 C157 0.930 . S
O150 Co119 2.037 . S
O150 C170 1.234 . S
C151 O125 1.269 . S
C151 O126 1.257 . S
C152 H127 0.930 . S
C152 C155 1.388 . S
C152 C157 1.418 . S
C153 H148 0.930 . S
C153 C156 1.404 . S
C153 C157 1.353 . S
N154 Co119 2.145 . S
N154 C155 1.397 . S
N154 C156 1.334 . S
C155 H136 0.929 . S
C155 C152 1.388 . S
C155 N154 1.397 . S
C156 H137 0.929 . S
C156 C153 1.404 . S
C156 N154 1.334 . S
C157 H149 0.930 . S
C157 C152 1.418 . S
C157 C153 1.353 . S
C158 H128 0.930 . S
C158 N159 1.330 . S
C158 C160 1.446 . S
N159 Co118 2.151 . S
N159 C158 1.330 . S
N159 C163 1.418 . S
C160 H139 0.929 . S
C160 C158 1.446 . S
C160 C161 1.332 . S
C161 H141 0.931 . S
C161 C160 1.332 . S
C161 C162 1.267 . S
C162 H130 0.929 . S
C162 C161 1.267 . S
C162 C163 1.251 . S
C163 H133 0.929 . S
C163 N159 1.418 . S
C163 C162 1.251 . S
C164 H131 0.930 . S
C164 C166 1.406 . S
C164 C169 1.261 . S
C165 H132 0.930 . S
C165 N167 1.325 . S
C165 C168 1.357 . S
C166 H134 0.928 . S
C166 C164 1.406 . S
C166 N167 1.261 . S
N167 Co118 2.214 . S
N167 C165 1.325 . S
N167 C166 1.261 . S
C168 H138 0.931 . S
C168 C165 1.357 . S
C168 C169 1.312 . S
C169 H140 0.930 . S
C169 C164 1.261 . S
C169 C168 1.312 . S
C170 O142 1.214 . S
C170 O150 1.234 . S
C171 H143 0.929 . S
C171 C174 1.391 . S
C171 C176 1.391 . S
C172 H144 0.929 . S
C172 C173 1.390 . S
C172 N175 1.391 . S
C173 H145 0.930 . S
C173 C172 1.390 . S
C173 C174 1.392 . S
C174 H146 0.929 . S
C174 C171 1.391 . S
C174 C173 1.392 . S
N175 Co119 2.257 . S
N175 C172 1.391 . S
N175 C176 1.388 . S
C176 H147 0.930 . S
C176 C171 1.391 . S
C176 N175 1.388 . S
Co177 O179 2.143 . S
Co177 O185 2.074 1_565 S
Co177 O188 2.093 . S
Co177 O201 2.097 . S
Co177 N218 2.151 . S
Co177 N226 2.214 . S
Co178 O179 2.160 1_545 S
Co178 O184 2.058 . S
Co178 O194 2.057 . S
Co178 O209 2.037 . S
Co178 N213 2.145 . S
Co178 N234 2.247 1_545 S
O179 Co177 2.143 . S
O179 Co178 2.160 1_565 S
C180 O181 1.278 . S
C180 O188 1.224 . S
O181 C180 1.278 . S
C182 O183 1.245 . S
C182 O194 1.232 1_565 S
O183 C182 1.245 . S
O184 Co178 2.058 . S
O184 C210 1.269 . S
O185 Co177 2.074 1_545 S
O185 C210 1.257 . S
H186 C211 0.930 . S
H187 C217 0.930 . S
O188 Co177 2.093 . S
O188 C180 1.224 . S
H189 C221 0.929 . S
H190 C223 0.930 . S
H191 C224 0.930 1_545 S
H192 C222 0.929 . S
H193 C225 0.928 . S
O194 Co178 2.057 . S
O194 C182 1.232 1_545 S
H195 C214 0.929 . S
H196 C215 0.929 . S
H197 C227 0.931 1_545 S
H198 C219 0.929 . S
H199 C228 0.930 . S
H200 C220 0.931 . S
O201 Co177 2.097 . S
O201 C229 1.214 1_565 S
H202 C230 0.929 . S
H203 C231 0.929 . S
H204 C232 0.930 1_545 S
H205 C233 0.929 . S
H206 C235 0.930 . S
H207 C212 0.930 . S
H208 C216 0.930 . S
O209 Co178 2.037 . S
O209 C229 1.234 . S
C210 O184 1.269 . S
C210 O185 1.257 . S
C211 H186 0.930 . S
C211 C214 1.388 . S
C211 C216 1.418 . S
C212 H207 0.930 . S
C212 C215 1.404 . S
C212 C216 1.353 . S
N213 Co178 2.145 . S
N213 C214 1.397 . S
N213 C215 1.334 . S
C214 H195 0.929 . S
C214 C211 1.388 . S
C214 N213 1.397 . S
C215 H196 0.929 . S
C215 C212 1.404 . S
C215 N213 1.334 . S
C216 H208 0.930 . S
C216 C211 1.418 . S
C216 C212 1.353 . S
C217 H187 0.930 . S
C217 N218 1.330 . S
C217 C219 1.446 . S
N218 Co177 2.151 . S
N218 C217 1.330 . S
N218 C222 1.418 . S
C219 H198 0.929 . S
C219 C217 1.446 . S
C219 C220 1.332 . S
C220 H200 0.931 . S
C220 C219 1.332 . S
C220 C221 1.267 . S
C221 H189 0.929 . S
C221 C220 1.267 . S
C221 C222 1.251 . S
C222 H192 0.929 . S
C222 N218 1.418 . S
C222 C221 1.251 . S
C223 H190 0.930 . S
C223 C225 1.406 . S
C223 C228 1.261 . S
C224 H191 0.930 1_565 S
C224 N226 1.325 . S
C224 C227 1.357 . S
C225 H193 0.928 . S
C225 C223 1.406 . S
C225 N226 1.261 . S
N226 Co177 2.214 . S
N226 C224 1.325 . S
N226 C225 1.261 . S
C227 H197 0.931 1_565 S
C227 C224 1.357 . S
C227 C228 1.312 . S
C228 H199 0.930 . S
C228 C223 1.261 . S
C228 C227 1.312 . S
C229 O201 1.214 1_545 S
C229 O209 1.234 . S
C230 H202 0.929 . S
C230 C233 1.391 . S
C230 C235 1.391 . S
C231 H203 0.929 . S
C231 C232 1.390 1_545 S
C231 N234 1.381 1_545 S
C232 H204 0.930 1_565 S
C232 C231 1.390 1_565 S
C232 C233 1.392 . S
C233 H205 0.929 . S
C233 C230 1.391 . S
C233 C232 1.392 . S
N234 Co178 2.247 1_565 S
N234 C231 1.381 1_565 S
N234 C235 1.411 . S
C235 H206 0.930 . S
C235 C230 1.391 . S
C235 N234 1.411 . S
Co236 O238 2.143 . S
Co236 O244 2.074 1_655 S
Co236 O247 2.093 . S
Co236 O260 2.097 . S
Co236 N277 2.151 . S
Co236 N285 2.214 . S
Co237 O238 2.160 1_455 S
Co237 O243 2.058 . S
Co237 O253 2.057 . S
Co237 O268 2.037 . S
Co237 N272 2.145 . S
Co237 N293 2.247 1_455 S
O238 Co236 2.143 . S
O238 Co237 2.160 1_655 S
C239 O240 1.278 . S
C239 O247 1.224 . S
O240 C239 1.278 . S
C241 O242 1.245 . S
C241 O253 1.232 1_655 S
O242 C241 1.245 . S
O243 Co237 2.058 . S
O243 C269 1.269 . S
O244 Co236 2.074 1_455 S
O244 C269 1.257 . S
H245 C270 0.930 . S
H246 C276 0.930 . S
O247 Co236 2.093 . S
O247 C239 1.224 . S
H248 C280 0.929 . S
H249 C282 0.930 . S
H250 C283 0.930 1_455 S
H251 C281 0.929 . S
H252 C284 0.928 . S
O253 Co237 2.057 . S
O253 C241 1.232 1_455 S
H254 C273 0.929 . S
H255 C274 0.929 . S
H256 C286 0.931 1_455 S
H257 C278 0.929 . S
H258 C287 0.930 . S
H259 C279 0.931 . S
O260 Co236 2.097 . S
O260 C288 1.214 1_655 S
H261 C289 0.929 . S
H262 C290 0.929 . S
H263 C291 0.930 1_455 S
H264 C292 0.929 . S
H265 C294 0.930 . S
H266 C271 0.930 . S
H267 C275 0.930 . S
O268 Co237 2.037 . S
O268 C288 1.234 . S
C269 O243 1.269 . S
C269 O244 1.257 . S
C270 H245 0.930 . S
C270 C273 1.388 . S
C270 C275 1.418 . S
C271 H266 0.930 . S
C271 C274 1.404 . S
C271 C275 1.353 . S
N272 Co237 2.145 . S
N272 C273 1.397 . S
N272 C274 1.334 . S
C273 H254 0.929 . S
C273 C270 1.388 . S
C273 N272 1.397 . S
C274 H255 0.929 . S
C274 C271 1.404 . S
C274 N272 1.334 . S
C275 H267 0.930 . S
C275 C270 1.418 . S
C275 C271 1.353 . S
C276 H246 0.930 . S
C276 N277 1.330 . S
C276 C278 1.446 . S
N277 Co236 2.151 . S
N277 C276 1.330 . S
N277 C281 1.418 . S
C278 H257 0.929 . S
C278 C276 1.446 . S
C278 C279 1.332 . S
C279 H259 0.931 . S
C279 C278 1.332 . S
C279 C280 1.267 . S
C280 H248 0.929 . S
C280 C279 1.267 . S
C280 C281 1.251 . S
C281 H251 0.929 . S
C281 N277 1.418 . S
C281 C280 1.251 . S
C282 H249 0.930 . S
C282 C284 1.406 . S
C282 C287 1.261 . S
C283 H250 0.930 1_655 S
C283 N285 1.325 . S
C283 C286 1.357 . S
C284 H252 0.928 . S
C284 C282 1.406 . S
C284 N285 1.261 . S
N285 Co236 2.214 . S
N285 C283 1.325 . S
N285 C284 1.261 . S
C286 H256 0.931 1_655 S
C286 C283 1.357 . S
C286 C287 1.312 . S
C287 H258 0.930 . S
C287 C282 1.261 . S
C287 C286 1.312 . S
C288 O260 1.214 1_455 S
C288 O268 1.234 . S
C289 H261 0.929 . S
C289 C292 1.391 . S
C289 C294 1.391 . S
C290 H262 0.929 . S
C290 C291 1.390 1_455 S
C290 N293 1.380 1_455 S
C291 H263 0.930 1_655 S
C291 C290 1.390 1_655 S
C291 C292 1.392 . S
C292 H264 0.929 . S
C292 C289 1.391 . S
C292 C291 1.392 . S
N293 Co237 2.247 1_655 S
N293 C290 1.380 1_655 S
N293 C294 1.411 . S
C294 H265 0.930 . S
C294 C289 1.391 . S
C294 N293 1.411 . S
Co295 O297 2.143 . S
Co295 O303 2.074 . S
Co295 O306 2.093 . S
Co295 O319 2.097 . S
Co295 N336 2.151 . S
Co295 N344 2.214 . S
Co296 O297 2.160 . S
Co296 O302 2.058 . S
Co296 O312 2.057 . S
Co296 O327 2.037 . S
Co296 N331 2.145 . S
Co296 N352 2.257 . S
O297 Co295 2.143 . S
O297 Co296 2.160 . S
C298 O299 1.278 . S
C298 O306 1.224 . S
O299 C298 1.278 . S
C300 O301 1.245 . S
C300 O312 1.232 . S
O301 C300 1.245 . S
O302 Co296 2.058 . S
O302 C328 1.269 . S
O303 Co295 2.074 . S
O303 C328 1.257 . S
H304 C329 0.930 . S
H305 C335 0.930 . S
O306 Co295 2.093 . S
O306 C298 1.224 . S
H307 C339 0.929 . S
H308 C341 0.930 . S
H309 C342 0.930 . S
H310 C340 0.929 . S
H311 C343 0.928 . S
O312 Co296 2.057 . S
O312 C300 1.232 . S
H313 C332 0.929 . S
H314 C333 0.929 . S
H315 C345 0.931 . S
H316 C337 0.929 . S
H317 C346 0.930 . S
H318 C338 0.931 . S
O319 Co295 2.097 . S
O319 C347 1.214 . S
H320 C348 0.929 . S
H321 C349 0.929 . S
H322 C350 0.930 . S
H323 C351 0.929 . S
H324 C353 0.930 . S
H325 C330 0.930 . S
H326 C334 0.930 . S
O327 Co296 2.037 . S
O327 C347 1.234 . S
C328 O302 1.269 . S
C328 O303 1.257 . S
C329 H304 0.930 . S
C329 C332 1.388 . S
C329 C334 1.418 . S
C330 H325 0.930 . S
C330 C333 1.404 . S
C330 C334 1.353 . S
N331 Co296 2.145 . S
N331 C332 1.397 . S
N331 C333 1.334 . S
C332 H313 0.929 . S
C332 C329 1.388 . S
C332 N331 1.397 . S
C333 H314 0.929 . S
C333 C330 1.404 . S
C333 N331 1.334 . S
C334 H326 0.930 . S
C334 C329 1.418 . S
C334 C330 1.353 . S
C335 H305 0.930 . S
C335 N336 1.330 . S
C335 C337 1.446 . S
N336 Co295 2.151 . S
N336 C335 1.330 . S
N336 C340 1.418 . S
C337 H316 0.929 . S
C337 C335 1.446 . S
C337 C338 1.332 . S
C338 H318 0.931 . S
C338 C337 1.332 . S
C338 C339 1.267 . S
C339 H307 0.929 . S
C339 C338 1.267 . S
C339 C340 1.251 . S
C340 H310 0.929 . S
C340 N336 1.418 . S
C340 C339 1.251 . S
C341 H308 0.930 . S
C341 C343 1.406 . S
C341 C346 1.261 . S
C342 H309 0.930 . S
C342 N344 1.325 . S
C342 C345 1.357 . S
C343 H311 0.928 . S
C343 C341 1.406 . S
C343 N344 1.261 . S
N344 Co295 2.214 . S
N344 C342 1.325 . S
N344 C343 1.261 . S
C345 H315 0.931 . S
C345 C342 1.357 . S
C345 C346 1.312 . S
C346 H317 0.930 . S
C346 C341 1.261 . S
C346 C345 1.312 . S
C347 O319 1.214 . S
C347 O327 1.234 . S
C348 H320 0.929 . S
C348 C351 1.391 . S
C348 C353 1.391 . S
C349 H321 0.929 . S
C349 C350 1.390 . S
C349 N352 1.391 . S
C350 H322 0.930 . S
C350 C349 1.390 . S
C350 C351 1.392 . S
C351 H323 0.929 . S
C351 C348 1.391 . S
C351 C350 1.392 . S
N352 Co296 2.257 . S
N352 C349 1.391 . S
N352 C353 1.388 . S
C353 H324 0.930 . S
C353 C348 1.391 . S
C353 N352 1.388 . S
Co354 O356 2.143 . S
Co354 O362 2.074 . S
Co354 O365 2.093 . S
Co354 O378 2.097 . S
Co354 N395 2.151 . S
Co354 N403 2.214 . S
Co355 O356 2.160 . S
Co355 O361 2.058 . S
Co355 O371 2.057 . S
Co355 O386 2.037 . S
Co355 N390 2.145 . S
Co355 N411 2.257 . S
O356 Co354 2.143 . S
O356 Co355 2.160 . S
C357 O358 1.278 . S
C357 O365 1.224 . S
O358 C357 1.278 . S
C359 O360 1.245 . S
C359 O371 1.232 . S
O360 C359 1.245 . S
O361 Co355 2.058 . S
O361 C387 1.269 . S
O362 Co354 2.074 . S
O362 C387 1.257 . S
H363 C388 0.930 . S
H364 C394 0.930 . S
O365 Co354 2.093 . S
O365 C357 1.224 . S
H366 C398 0.929 . S
H367 C400 0.930 . S
H368 C401 0.930 . S
H369 C399 0.929 . S
H370 C402 0.928 . S
O371 Co355 2.057 . S
O371 C359 1.232 . S
H372 C391 0.929 . S
H373 C392 0.929 . S
H374 C404 0.931 . S
H375 C396 0.929 . S
H376 C405 0.930 . S
H377 C397 0.931 . S
O378 Co354 2.097 . S
O378 C406 1.214 . S
H379 C407 0.929 . S
H380 C408 0.929 . S
H381 C409 0.930 . S
H382 C410 0.929 . S
H383 C412 0.930 . S
H384 C389 0.930 . S
H385 C393 0.930 . S
O386 Co355 2.037 . S
O386 C406 1.234 . S
C387 O361 1.269 . S
C387 O362 1.257 . S
C388 H363 0.930 . S
C388 C391 1.388 . S
C388 C393 1.418 . S
C389 H384 0.930 . S
C389 C392 1.404 . S
C389 C393 1.353 . S
N390 Co355 2.145 . S
N390 C391 1.397 . S
N390 C392 1.334 . S
C391 H372 0.929 . S
C391 C388 1.388 . S
C391 N390 1.397 . S
C392 H373 0.929 . S
C392 C389 1.404 . S
C392 N390 1.334 . S
C393 H385 0.930 . S
C393 C388 1.418 . S
C393 C389 1.353 . S
C394 H364 0.930 . S
C394 N395 1.330 . S
C394 C396 1.446 . S
N395 Co354 2.151 . S
N395 C394 1.330 . S
N395 C399 1.418 . S
C396 H375 0.929 . S
C396 C394 1.446 . S
C396 C397 1.332 . S
C397 H377 0.931 . S
C397 C396 1.332 . S
C397 C398 1.267 . S
C398 H366 0.929 . S
C398 C397 1.267 . S
C398 C399 1.251 . S
C399 H369 0.929 . S
C399 N395 1.418 . S
C399 C398 1.251 . S
C400 H367 0.930 . S
C400 C402 1.406 . S
C400 C405 1.261 . S
C401 H368 0.930 . S
C401 N403 1.325 . S
C401 C404 1.357 . S
C402 H370 0.928 . S
C402 C400 1.406 . S
C402 N403 1.261 . S
N403 Co354 2.214 . S
N403 C401 1.325 . S
N403 C402 1.261 . S
C404 H374 0.931 . S
C404 C401 1.357 . S
C404 C405 1.312 . S
C405 H376 0.930 . S
C405 C400 1.261 . S
C405 C404 1.312 . S
C406 O378 1.214 . S
C406 O386 1.234 . S
C407 H379 0.929 . S
C407 C410 1.391 . S
C407 C412 1.391 . S
C408 H380 0.929 . S
C408 C409 1.390 . S
C408 N411 1.391 . S
C409 H381 0.930 . S
C409 C408 1.390 . S
C409 C410 1.392 . S
C410 H382 0.929 . S
C410 C407 1.391 . S
C410 C409 1.392 . S
N411 Co355 2.257 . S
N411 C408 1.391 . S
N411 C412 1.388 . S
C412 H383 0.930 . S
C412 C407 1.391 . S
C412 N411 1.388 . S
Co413 O415 2.143 . S
Co413 O421 2.074 1_545 S
Co413 O424 2.093 . S
Co413 O437 2.097 . S
Co413 N454 2.151 . S
Co413 N462 2.214 . S
Co414 O415 2.160 1_565 S
Co414 O420 2.058 . S
Co414 O430 2.057 . S
Co414 O445 2.037 . S
Co414 N449 2.145 . S
Co414 N470 2.247 1_565 S
O415 Co413 2.143 . S
O415 Co414 2.160 1_545 S
C416 O417 1.278 . S
C416 O424 1.224 . S
O417 C416 1.278 . S
C418 O419 1.245 . S
C418 O430 1.232 1_545 S
O419 C418 1.245 . S
O420 Co414 2.058 . S
O420 C446 1.269 . S
O421 Co413 2.074 1_565 S
O421 C446 1.257 . S
H422 C447 0.930 . S
H423 C453 0.930 . S
O424 Co413 2.093 . S
O424 C416 1.224 . S
H425 C457 0.929 . S
H426 C459 0.930 . S
H427 C460 0.930 1_565 S
H428 C458 0.929 . S
H429 C461 0.928 . S
O430 Co414 2.057 . S
O430 C418 1.232 1_565 S
H431 C450 0.929 . S
H432 C451 0.929 . S
H433 C463 0.931 1_565 S
H434 C455 0.929 . S
H435 C464 0.930 . S
H436 C456 0.931 . S
O437 Co413 2.097 . S
O437 C465 1.214 1_545 S
H438 C466 0.929 . S
H439 C467 0.929 . S
H440 C468 0.930 1_565 S
H441 C469 0.929 . S
H442 C471 0.930 . S
H443 C448 0.930 . S
H444 C452 0.930 . S
O445 Co414 2.037 . S
O445 C465 1.234 . S
C446 O420 1.269 . S
C446 O421 1.257 . S
C447 H422 0.930 . S
C447 C450 1.388 . S
C447 C452 1.418 . S
C448 H443 0.930 . S
C448 C451 1.404 . S
C448 C452 1.353 . S
N449 Co414 2.145 . S
N449 C450 1.397 . S
N449 C451 1.334 . S
C450 H431 0.929 . S
C450 C447 1.388 . S
C450 N449 1.397 . S
C451 H432 0.929 . S
C451 C448 1.404 . S
C451 N449 1.334 . S
C452 H444 0.930 . S
C452 C447 1.418 . S
C452 C448 1.353 . S
C453 H423 0.930 . S
C453 N454 1.330 . S
C453 C455 1.446 . S
N454 Co413 2.151 . S
N454 C453 1.330 . S
N454 C458 1.418 . S
C455 H434 0.929 . S
C455 C453 1.446 . S
C455 C456 1.332 . S
C456 H436 0.931 . S
C456 C455 1.332 . S
C456 C457 1.267 . S
C457 H425 0.929 . S
C457 C456 1.267 . S
C457 C458 1.251 . S
C458 H428 0.929 . S
C458 N454 1.418 . S
C458 C457 1.251 . S
C459 H426 0.930 . S
C459 C461 1.406 . S
C459 C464 1.261 . S
C460 H427 0.930 1_545 S
C460 N462 1.325 . S
C460 C463 1.357 . S
C461 H429 0.928 . S
C461 C459 1.406 . S
C461 N462 1.261 . S
N462 Co413 2.214 . S
N462 C460 1.325 . S
N462 C461 1.261 . S
C463 H433 0.931 1_545 S
C463 C460 1.357 . S
C463 C464 1.312 . S
C464 H435 0.930 . S
C464 C459 1.261 . S
C464 C463 1.312 . S
C465 O437 1.214 1_565 S
C465 O445 1.234 . S
C466 H438 0.929 . S
C466 C469 1.391 . S
C466 C471 1.391 . S
C467 H439 0.929 . S
C467 C468 1.390 1_565 S
C467 N470 1.381 1_565 S
C468 H440 0.930 1_545 S
C468 C467 1.390 1_545 S
C468 C469 1.392 . S
C469 H441 0.929 . S
C469 C466 1.391 . S
C469 C468 1.392 . S
N470 Co414 2.247 1_545 S
N470 C467 1.381 1_545 S
N470 C471 1.411 . S
C471 H442 0.930 . S
C471 C466 1.391 . S
C471 N470 1.411 . S
C472 C473 1.349 . S
C472 C474 1.327 . S
C472 H497 0.950 . S
C473 C472 1.349 . S
C473 C489 1.349 . S
C474 C472 1.327 . S
C474 C493 1.429 . S
C474 H498 0.950 1_655 S
C475 C492 1.574 . S
C475 C494 1.368 . S
C475 H499 0.949 . S
H476 C480 0.949 . S
C477 C478 1.349 . S
C477 C479 1.327 . S
C477 H500 0.950 . S
C478 C477 1.349 . S
C478 C490 1.349 . S
C479 C477 1.327 . S
C479 C495 1.429 . S
C479 H501 0.950 1_455 S
C480 H476 0.949 . S
C480 C488 1.574 . S
C480 C496 1.368 . S
H481 C489 0.950 . S
H482 C487 0.950 . S
H483 C488 0.949 . S
H484 C490 0.950 . S
H485 C491 0.950 . S
H486 C492 0.949 . S
C487 H482 0.950 . S
C487 C489 1.327 . S
C487 C493 1.429 . S
C488 C480 1.574 . S
C488 H483 0.949 . S
C488 C494 1.368 1_454 S
C489 C473 1.349 . S
C489 H481 0.950 . S
C489 C487 1.327 . S
C490 C478 1.349 . S
C490 H484 0.950 . S
C490 C491 1.327 . S
C491 H485 0.950 . S
C491 C490 1.327 . S
C491 C495 1.429 . S
C492 C475 1.574 . S
C492 H486 0.949 . S
C492 C496 1.368 1_656 S
C493 C474 1.429 . S
C493 C487 1.429 . S
C493 C494 1.523 . S
C494 C475 1.368 . S
C494 C488 1.368 1_656 S
C494 C493 1.523 . S
C495 C479 1.429 . S
C495 C491 1.429 . S
C495 C496 1.523 . S
C496 C480 1.368 . S
C496 C492 1.368 1_454 S
C496 C495 1.523 . S
H497 C472 0.950 . S
H498 C474 0.950 1_455 S
H499 C475 0.949 . S
H500 C477 0.950 . S
H501 C479 0.950 1_655 S
C502 C503 1.349 . S
C502 C504 1.327 . S
C502 H527 0.950 . S
C503 C502 1.349 . S
C503 C519 1.349 . S
C504 C502 1.327 . S
C504 C523 1.429 . S
C504 H528 0.950 . S
C505 C522 1.574 . S
C505 C524 1.368 . S
C505 H529 0.949 . S
H506 C510 0.949 . S
C507 C508 1.349 . S
C507 C509 1.327 . S
C507 H530 0.950 . S
C508 C507 1.349 . S
C508 C520 1.349 . S
C509 C507 1.327 . S
C509 C525 1.429 . S
C509 H531 0.950 . S
C510 H506 0.949 . S
C510 C518 1.574 . S
C510 C526 1.368 . S
H511 C519 0.950 . S
H512 C517 0.950 . S
H513 C518 0.949 . S
H514 C520 0.950 . S
H515 C521 0.950 . S
H516 C522 0.949 . S
C517 H512 0.950 . S
C517 C519 1.327 . S
C517 C523 1.429 . S
C518 C510 1.574 . S
C518 H513 0.949 . S
C518 C524 1.368 . S
C519 C503 1.349 . S
C519 H511 0.950 . S
C519 C517 1.327 . S
C520 C508 1.349 . S
C520 H514 0.950 . S
C520 C521 1.327 . S
C521 H515 0.950 . S
C521 C520 1.327 . S
C521 C525 1.429 . S
C522 C505 1.574 . S
C522 H516 0.949 . S
C522 C526 1.368 . S
C523 C504 1.429 . S
C523 C517 1.429 . S
C523 C524 1.523 . S
C524 C505 1.368 . S
C524 C518 1.368 . S
C524 C523 1.523 . S
C525 C509 1.429 . S
C525 C521 1.429 . S
C525 C526 1.523 . S
C526 C510 1.368 . S
C526 C522 1.368 . S
C526 C525 1.523 . S
H527 C502 0.950 . S
H528 C504 0.950 . S
H529 C505 0.949 . S
H530 C507 0.950 . S
H531 C509 0.950 . S
C532 C533 1.349 . S
C532 C534 1.327 . S
C532 H557 0.950 . S
C533 C532 1.349 . S
C533 C549 1.349 . S
C534 C532 1.327 . S
C534 C553 1.429 . S
C534 H558 0.950 . S
C535 C552 1.574 . S
C535 C554 1.368 1_556 S
C535 H559 0.949 . S
H536 C540 0.949 . S
C537 C538 1.349 . S
C537 C539 1.327 . S
C537 H560 0.950 . S
C538 C537 1.349 . S
C538 C550 1.349 . S
C539 C537 1.327 . S
C539 C555 1.429 . S
C539 H561 0.950 . S
C540 H536 0.949 . S
C540 C548 1.574 . S
C540 C556 1.368 1_554 S
H541 C549 0.950 . S
H542 C547 0.950 . S
H543 C548 0.949 . S
H544 C550 0.950 . S
H545 C551 0.950 . S
H546 C552 0.949 . S
C547 H542 0.950 . S
C547 C549 1.327 . S
C547 C553 1.429 . S
C548 C540 1.574 . S
C548 H543 0.949 . S
C548 C554 1.368 1_545 S
C549 C533 1.349 . S
C549 H541 0.950 . S
C549 C547 1.327 . S
C550 C538 1.349 . S
C550 H544 0.950 . S
C550 C551 1.327 . S
C551 H545 0.950 . S
C551 C550 1.327 . S
C551 C555 1.429 . S
C552 C535 1.574 . S
C552 H546 0.949 . S
C552 C556 1.368 1_565 S
C553 C534 1.429 . S
C553 C547 1.429 . S
C553 C554 1.523 . S
C554 C535 1.368 1_554 S
C554 C548 1.368 1_565 S
C554 C553 1.523 . S
C555 C539 1.429 . S
C555 C551 1.429 . S
C555 C556 1.523 . S
C556 C540 1.368 1_556 S
C556 C552 1.368 1_545 S
C556 C555 1.523 . S
H557 C532 0.950 . S
H558 C534 0.950 . S
H559 C535 0.949 . S
H560 C537 0.950 . S
H561 C539 0.950 . S
C562 C563 1.349 . S
C562 C564 1.327 . S
C562 H587 0.950 . S
C563 C562 1.349 . S
C563 C579 1.349 1_545 S
C564 C562 1.327 . S
C564 C583 1.429 . S
C564 H588 0.950 . S
C565 C582 1.597 . S
C565 C584 1.345 1_465 S
C565 H589 0.950 . S
H566 C570 0.950 . S
C567 C568 1.349 . S
C567 C569 1.327 . S
C567 H590 0.950 . S
C568 C567 1.349 . S
C568 C580 1.349 1_565 S
C569 C567 1.327 . S
C569 C585 1.429 . S
C569 H591 0.950 . S
C570 H566 0.950 . S
C570 C578 1.597 . S
C570 C586 1.345 1_645 S
H571 C579 0.950 . S
H572 C577 0.950 . S
H573 C578 0.949 . S
H574 C580 0.950 . S
H575 C581 0.950 . S
H576 C582 0.949 . S
C577 H572 0.950 . S
C577 C579 1.327 . S
C577 C583 1.429 1_565 S
C578 C570 1.597 . S
C578 H573 0.949 . S
C578 C584 1.368 . S
C579 C563 1.349 1_565 S
C579 H571 0.950 . S
C579 C577 1.327 . S
C580 C568 1.349 1_545 S
C580 H574 0.950 . S
C580 C581 1.327 . S
C581 H575 0.950 . S
C581 C580 1.327 . S
C581 C585 1.429 1_545 S
C582 C565 1.597 . S
C582 H576 0.949 . S
C582 C586 1.368 . S
C583 C564 1.429 . S
C583 C577 1.429 1_545 S
C583 C584 1.523 . S
C584 C565 1.345 1_645 S
C584 C578 1.368 . S
C584 C583 1.523 . S
C585 C569 1.429 . S
C585 C581 1.429 1_565 S
C585 C586 1.523 . S
C586 C570 1.345 1_465 S
C586 C582 1.368 . S
C586 C585 1.523 . S
H587 C562 0.950 . S
H588 C564 0.950 . S
H589 C565 0.950 . S
H590 C567 0.950 . S
H591 C569 0.950 . S
C592 C593 1.349 . S
C592 C594 1.327 . S
C592 H617 0.950 . S
C593 C592 1.349 . S
C593 C609 1.349 . S
C594 C592 1.327 . S
C594 C613 1.429 . S
C594 H618 0.950 . S
C595 C612 1.574 . S
C595 C614 1.368 . S
C595 H619 0.949 . S
H596 C600 0.949 . S
C597 C598 1.349 . S
C597 C599 1.327 . S
C597 H620 0.950 . S
C598 C597 1.349 . S
C598 C610 1.349 . S
C599 C597 1.327 . S
C599 C615 1.429 . S
C599 H621 0.950 . S
C600 H596 0.949 . S
C600 C608 1.574 . S
C600 C616 1.368 . S
H601 C609 0.950 . S
H602 C607 0.950 . S
H603 C608 0.949 . S
H604 C610 0.950 . S
H605 C611 0.950 . S
H606 C612 0.949 . S
C607 H602 0.950 . S
C607 C609 1.327 . S
C607 C613 1.429 . S
C608 C600 1.574 . S
C608 H603 0.949 . S
C608 C614 1.368 . S
C609 C593 1.349 . S
C609 H601 0.950 . S
C609 C607 1.327 . S
C610 C598 1.349 . S
C610 H604 0.950 . S
C610 C611 1.327 . S
C611 H605 0.950 . S
C611 C610 1.327 . S
C611 C615 1.429 . S
C612 C595 1.574 . S
C612 H606 0.949 . S
C612 C616 1.368 . S
C613 C594 1.429 . S
C613 C607 1.429 . S
C613 C614 1.523 . S
C614 C595 1.368 . S
C614 C608 1.368 . S
C614 C613 1.523 . S
C615 C599 1.429 . S
C615 C611 1.429 . S
C615 C616 1.523 . S
C616 C600 1.368 . S
C616 C612 1.368 . S
C616 C615 1.523 . S
H617 C592 0.950 . S
H618 C594 0.950 . S
H619 C595 0.949 . S
H620 C597 0.950 . S
H621 C599 0.950 . S
C622 C623 1.349 . S
C622 C624 1.327 . S
C622 H647 0.950 . S
C623 C622 1.349 . S
C623 C639 1.349 . S
C624 C622 1.327 . S
C624 C643 1.429 . S
C624 H648 0.950 . S
C625 C642 1.574 . S
C625 C644 1.368 . S
C625 H649 0.949 . S
H626 C630 0.949 . S
C627 C628 1.349 . S
C627 C629 1.327 . S
C627 H650 0.950 . S
C628 C627 1.349 . S
C628 C640 1.349 . S
C629 C627 1.327 . S
C629 C645 1.429 . S
C629 H651 0.950 . S
C630 H626 0.949 . S
C630 C638 1.574 . S
C630 C646 1.368 . S
H631 C639 0.950 . S
H632 C637 0.950 . S
H633 C638 0.949 . S
H634 C640 0.950 . S
H635 C641 0.950 . S
H636 C642 0.949 . S
C637 H632 0.950 . S
C637 C639 1.327 . S
C637 C643 1.429 . S
C638 C630 1.574 . S
C638 H633 0.949 . S
C638 C644 1.368 . S
C639 C623 1.349 . S
C639 H631 0.950 . S
C639 C637 1.327 . S
C640 C628 1.349 . S
C640 H634 0.950 . S
C640 C641 1.327 . S
C641 H635 0.950 . S
C641 C640 1.327 . S
C641 C645 1.429 . S
C642 C625 1.574 . S
C642 H636 0.949 . S
C642 C646 1.368 . S
C643 C624 1.429 . S
C643 C637 1.429 . S
C643 C644 1.523 . S
C644 C625 1.368 . S
C644 C638 1.368 . S
C644 C643 1.523 . S
C645 C629 1.429 . S
C645 C641 1.429 . S
C645 C646 1.523 . S
C646 C630 1.368 . S
C646 C642 1.368 . S
C646 C645 1.523 . S
H647 C622 0.950 . S
H648 C624 0.950 . S
H649 C625 0.949 . S
H650 C627 0.950 . S
H651 C629 0.950 . S
C652 C653 1.349 . S
C652 C654 1.327 . S
C652 H677 0.950 . S
C653 C652 1.349 . S
C653 C669 1.349 . S
C654 C652 1.327 . S
C654 C673 1.429 . S
C654 H678 0.950 . S
C655 C672 1.574 . S
C655 C674 1.368 . S
C655 H679 0.949 . S
H656 C660 0.949 . S
C657 C658 1.349 . S
C657 C659 1.327 . S
C657 H680 0.950 . S
C658 C657 1.349 . S
C658 C670 1.349 . S
C659 C657 1.327 . S
C659 C675 1.429 . S
C659 H681 0.950 . S
C660 H656 0.949 . S
C660 C668 1.574 . S
C660 C676 1.368 . S
H661 C669 0.950 . S
H662 C667 0.950 . S
H663 C668 0.949 . S
H664 C670 0.950 . S
H665 C671 0.950 . S
H666 C672 0.949 . S
C667 H662 0.950 . S
C667 C669 1.327 . S
C667 C673 1.429 . S
C668 C660 1.574 . S
C668 H663 0.949 . S
C668 C674 1.368 . S
C669 C653 1.349 . S
C669 H661 0.950 . S
C669 C667 1.327 . S
C670 C658 1.349 . S
C670 H664 0.950 . S
C670 C671 1.327 . S
C671 H665 0.950 . S
C671 C670 1.327 . S
C671 C675 1.429 . S
C672 C655 1.574 . S
C672 H666 0.949 . S
C672 C676 1.368 . S
C673 C654 1.429 . S
C673 C667 1.429 . S
C673 C674 1.523 . S
C674 C655 1.368 . S
C674 C668 1.368 . S
C674 C673 1.523 . S
C675 C659 1.429 . S
C675 C671 1.429 . S
C675 C676 1.523 . S
C676 C660 1.368 . S
C676 C672 1.368 . S
C676 C675 1.523 . S
H677 C652 0.950 . S
H678 C654 0.950 . S
H679 C655 0.949 . S
H680 C657 0.950 . S
H681 C659 0.950 . S
C682 C683 1.349 . S
C682 C684 1.327 . S
C682 H707 0.950 . S
C683 C682 1.349 . S
C683 C699 1.349 . S
C684 C682 1.327 . S
C684 C703 1.429 . S
C684 H708 0.950 . S
C685 C702 1.574 . S
C685 C704 1.368 . S
C685 H709 0.949 . S
H686 C690 0.949 . S
C687 C688 1.349 . S
C687 C689 1.327 . S
C687 H710 0.950 . S
C688 C687 1.349 . S
C688 C700 1.349 . S
C689 C687 1.327 . S
C689 C705 1.429 . S
C689 H711 0.950 . S
C690 H686 0.949 . S
C690 C698 1.574 . S
C690 C706 1.368 . S
H691 C699 0.950 . S
H692 C697 0.950 . S
H693 C698 0.949 . S
H694 C700 0.950 . S
H695 C701 0.950 . S
H696 C702 0.949 . S
C697 H692 0.950 . S
C697 C699 1.327 . S
C697 C703 1.429 . S
C698 C690 1.574 . S
C698 H693 0.949 . S
C698 C704 1.368 . S
C699 C683 1.349 . S
C699 H691 0.950 . S
C699 C697 1.327 . S
C700 C688 1.349 . S
C700 H694 0.950 . S
C700 C701 1.327 . S
C701 H695 0.950 . S
C701 C700 1.327 . S
C701 C705 1.429 . S
C702 C685 1.574 . S
C702 H696 0.949 . S
C702 C706 1.368 . S
C703 C684 1.429 . S
C703 C697 1.429 . S
C703 C704 1.523 . S
C704 C685 1.368 . S
C704 C698 1.368 . S
C704 C703 1.523 . S
C705 C689 1.429 . S
C705 C701 1.429 . S
C705 C706 1.523 . S
C706 C690 1.368 . S
C706 C702 1.368 . S
C706 C705 1.523 . S
H707 C682 0.950 . S
H708 C684 0.950 . S
H709 C685 0.949 . S
H710 C687 0.950 . S
H711 C689 0.950 . S
C712 C713 1.349 . S
C712 C714 1.327 . S
C712 H737 0.950 . S
C713 C712 1.349 . S
C713 C729 1.349 . S
C714 C712 1.327 . S
C714 C733 1.429 . S
C714 H738 0.950 . S
C715 C732 1.574 . S
C715 C734 1.368 . S
C715 H739 0.949 . S
H716 C720 0.949 . S
C717 C718 1.349 . S
C717 C719 1.327 . S
C717 H740 0.950 . S
C718 C717 1.349 . S
C718 C730 1.349 . S
C719 C717 1.327 . S
C719 C735 1.429 . S
C719 H741 0.950 . S
C720 H716 0.949 . S
C720 C728 1.574 . S
C720 C736 1.368 . S
H721 C729 0.950 . S
H722 C727 0.950 . S
H723 C728 0.949 . S
H724 C730 0.950 . S
H725 C731 0.950 . S
H726 C732 0.949 . S
C727 H722 0.950 . S
C727 C729 1.327 . S
C727 C733 1.429 . S
C728 C720 1.574 . S
C728 H723 0.949 . S
C728 C734 1.368 . S
C729 C713 1.349 . S
C729 H721 0.950 . S
C729 C727 1.327 . S
C730 C718 1.349 . S
C730 H724 0.950 . S
C730 C731 1.327 . S
C731 H725 0.950 . S
C731 C730 1.327 . S
C731 C735 1.429 . S
C732 C715 1.574 . S
C732 H726 0.949 . S
C732 C736 1.368 . S
C733 C714 1.429 . S
C733 C727 1.429 . S
C733 C734 1.523 . S
C734 C715 1.368 . S
C734 C728 1.368 . S
C734 C733 1.523 . S
C735 C719 1.429 . S
C735 C731 1.429 . S
C735 C736 1.523 . S
C736 C720 1.368 . S
C736 C732 1.368 . S
C736 C735 1.523 . S
H737 C712 0.950 . S
H738 C714 0.950 . S
H739 C715 0.949 . S
H740 C717 0.950 . S
H741 C719 0.950 . S
C742 C743 1.349 . S
C742 C744 1.327 . S
C742 H767 0.950 . S
C743 C742 1.349 . S
C743 C759 1.349 . S
C744 C742 1.327 . S
C744 C763 1.429 . S
C744 H768 0.950 . S
C745 C762 1.574 . S
C745 C764 1.368 . S
C745 H769 0.949 . S
H746 C750 0.949 . S
C747 C748 1.349 . S
C747 C749 1.327 . S
C747 H770 0.950 . S
C748 C747 1.349 . S
C748 C760 1.349 . S
C749 C747 1.327 . S
C749 C765 1.429 . S
C749 H771 0.950 . S
C750 H746 0.949 . S
C750 C758 1.574 . S
C750 C766 1.368 . S
H751 C759 0.950 . S
H752 C757 0.950 . S
H753 C758 0.949 . S
H754 C760 0.950 . S
H755 C761 0.950 . S
H756 C762 0.949 . S
C757 H752 0.950 . S
C757 C759 1.327 . S
C757 C763 1.429 . S
C758 C750 1.574 . S
C758 H753 0.949 . S
C758 C764 1.368 . S
C759 C743 1.349 . S
C759 H751 0.950 . S
C759 C757 1.327 . S
C760 C748 1.349 . S
C760 H754 0.950 . S
C760 C761 1.327 . S
C761 H755 0.950 . S
C761 C760 1.327 . S
C761 C765 1.429 . S
C762 C745 1.574 . S
C762 H756 0.949 . S
C762 C766 1.368 . S
C763 C744 1.429 . S
C763 C757 1.429 . S
C763 C764 1.523 . S
C764 C745 1.368 . S
C764 C758 1.368 . S
C764 C763 1.523 . S
C765 C749 1.429 . S
C765 C761 1.429 . S
C765 C766 1.523 . S
C766 C750 1.368 . S
C766 C762 1.368 . S
C766 C765 1.523 . S
H767 C742 0.950 . S
H768 C744 0.950 . S
H769 C745 0.949 . S
H770 C747 0.950 . S
H771 C749 0.950 . S
C772 C773 1.349 . S
C772 C774 1.327 . S
C772 H797 0.950 . S
C773 C772 1.349 . S
C773 C789 1.349 . S
C774 C772 1.327 . S
C774 C793 1.429 . S
C774 H798 0.950 . S
C775 C792 1.574 . S
C775 C794 1.368 . S
C775 H799 0.949 . S
H776 C780 0.949 . S
C777 C778 1.349 . S
C777 C779 1.327 . S
C777 H800 0.950 1_565 S
C778 C777 1.349 . S
C778 C790 1.349 . S
C779 C777 1.327 . S
C779 C795 1.429 . S
C779 H801 0.951 . S
C780 H776 0.949 . S
C780 C788 1.574 . S
C780 C796 1.368 . S
H781 C789 0.950 . S
H782 C787 0.950 . S
H783 C788 0.949 . S
H784 C790 0.950 . S
H785 C791 0.950 . S
H786 C792 0.949 . S
C787 H782 0.950 . S
C787 C789 1.327 . S
C787 C793 1.429 . S
C788 C780 1.574 . S
C788 H783 0.949 . S
C788 C794 1.368 . S
C789 C773 1.349 . S
C789 H781 0.950 . S
C789 C787 1.327 . S
C790 C778 1.349 . S
C790 H784 0.950 . S
C790 C791 1.327 . S
C791 H785 0.950 . S
C791 C790 1.327 . S
C791 C795 1.429 . S
C792 C775 1.574 . S
C792 H786 0.949 . S
C792 C796 1.368 . S
C793 C774 1.429 . S
C793 C787 1.429 . S
C793 C794 1.523 . S
C794 C775 1.368 . S
C794 C788 1.368 . S
C794 C793 1.523 . S
C795 C779 1.429 . S
C795 C791 1.429 . S
C795 C796 1.523 . S
C796 C780 1.368 . S
C796 C792 1.368 . S
C796 C795 1.523 . S
H797 C772 0.950 . S
H798 C774 0.950 . S
H799 C775 0.949 . S
H800 C777 0.950 1_545 S
H801 C779 0.951 . S
C802 C803 1.349 . S
C802 C804 1.327 . S
C802 H827 0.950 1_455 S
C803 C802 1.349 . S
C803 C819 1.349 . S
C804 C802 1.327 . S
C804 C823 1.429 . S
C804 H828 0.971 . S
C805 C822 1.574 . S
C805 C824 1.368 . S
C805 H829 0.949 . S
H806 C810 0.949 . S
C807 C808 1.349 . S
C807 C809 1.327 . S
C807 H830 0.950 . S
C808 C807 1.349 . S
C808 C820 1.349 . S
C809 C807 1.327 . S
C809 C825 1.429 . S
C809 H831 0.950 . S
C810 H806 0.949 . S
C810 C818 1.574 . S
C810 C826 1.368 . S
H811 C819 0.950 . S
H812 C817 0.950 . S
H813 C818 0.949 . S
H814 C820 0.950 . S
H815 C821 0.950 . S
H816 C822 0.949 . S
C817 H812 0.950 . S
C817 C819 1.327 . S
C817 C823 1.429 . S
C818 C810 1.574 . S
C818 H813 0.949 . S
C818 C824 1.368 . S
C819 C803 1.349 . S
C819 H811 0.950 . S
C819 C817 1.327 . S
C820 C808 1.349 . S
C820 H814 0.950 . S
C820 C821 1.327 . S
C821 H815 0.950 . S
C821 C820 1.327 . S
C821 C825 1.429 . S
C822 C805 1.574 . S
C822 H816 0.949 . S
C822 C826 1.368 . S
C823 C804 1.429 . S
C823 C817 1.429 . S
C823 C824 1.523 . S
C824 C805 1.368 . S
C824 C818 1.368 . S
C824 C823 1.523 . S
C825 C809 1.429 . S
C825 C821 1.429 . S
C825 C826 1.523 . S
C826 C810 1.368 . S
C826 C822 1.368 . S
C826 C825 1.523 . S
H827 C802 0.950 1_655 S
H828 C804 0.971 . S
H829 C805 0.949 . S
H830 C807 0.950 . S
H831 C809 0.950 . S
C832 C833 1.349 . S
C832 C834 1.327 . S
C832 H857 0.950 . S
C833 C832 1.349 . S
C833 C849 1.349 . S
C834 C832 1.327 . S
C834 C853 1.429 . S
C834 H858 0.950 . S
C835 C852 1.574 . S
C835 C854 1.368 . S
C835 H859 0.949 . S
H836 C840 0.949 . S
C837 C838 1.349 . S
C837 C839 1.327 . S
C837 H860 0.950 . S
C838 C837 1.349 . S
C838 C850 1.349 . S
C839 C837 1.327 . S
C839 C855 1.429 . S
C839 H861 0.950 . S
C840 H836 0.949 . S
C840 C848 1.574 . S
C840 C856 1.368 . S
H841 C849 0.950 . S
H842 C847 0.950 . S
H843 C848 0.949 . S
H844 C850 0.950 . S
H845 C851 0.950 . S
H846 C852 0.949 . S
C847 H842 0.950 . S
C847 C849 1.327 . S
C847 C853 1.429 . S
C848 C840 1.574 . S
C848 H843 0.949 . S
C848 C854 1.368 . S
C849 C833 1.349 . S
C849 H841 0.950 . S
C849 C847 1.327 . S
C850 C838 1.349 . S
C850 H844 0.950 . S
C850 C851 1.327 . S
C851 H845 0.950 . S
C851 C850 1.327 . S
C851 C855 1.429 . S
C852 C835 1.574 . S
C852 H846 0.949 . S
C852 C856 1.368 . S
C853 C834 1.429 . S
C853 C847 1.429 . S
C853 C854 1.523 . S
C854 C835 1.368 . S
C854 C848 1.368 . S
C854 C853 1.523 . S
C855 C839 1.429 . S
C855 C851 1.429 . S
C855 C856 1.523 . S
C856 C840 1.368 . S
C856 C852 1.368 . S
C856 C855 1.523 . S
H857 C832 0.950 . S
H858 C834 0.950 . S
H859 C835 0.949 . S
H860 C837 0.950 . S
H861 C839 0.950 . S
C862 C863 1.349 . S
C862 C864 1.327 . S
C862 H887 0.950 . S
C863 C862 1.349 . S
C863 C879 1.349 . S
C864 C862 1.327 . S
C864 C883 1.429 . S
C864 H888 0.950 . S
C865 C882 1.574 . S
C865 C884 1.368 . S
C865 H889 0.949 . S
H866 C870 0.949 . S
C867 C868 1.349 . S
C867 C869 1.327 . S
C867 H890 0.950 . S
C868 C867 1.349 . S
C868 C880 1.349 . S
C869 C867 1.327 . S
C869 C885 1.429 . S
C869 H891 0.950 . S
C870 H866 0.949 . S
C870 C878 1.574 . S
C870 C886 1.368 . S
H871 C879 0.950 . S
H872 C877 0.950 . S
H873 C878 0.949 . S
H874 C880 0.950 . S
H875 C881 0.950 . S
H876 C882 0.949 . S
C877 H872 0.950 . S
C877 C879 1.327 . S
C877 C883 1.429 . S
C878 C870 1.574 . S
C878 H873 0.949 . S
C878 C884 1.368 . S
C879 C863 1.349 . S
C879 H871 0.950 . S
C879 C877 1.327 . S
C880 C868 1.349 . S
C880 H874 0.950 . S
C880 C881 1.327 . S
C881 H875 0.950 . S
C881 C880 1.327 . S
C881 C885 1.429 . S
C882 C865 1.574 . S
C882 H876 0.949 . S
C882 C886 1.368 . S
C883 C864 1.429 . S
C883 C877 1.429 . S
C883 C884 1.523 . S
C884 C865 1.368 . S
C884 C878 1.368 . S
C884 C883 1.523 . S
C885 C869 1.429 . S
C885 C881 1.429 . S
C885 C886 1.523 . S
C886 C870 1.368 . S
C886 C882 1.368 . S
C886 C885 1.523 . S
H887 C862 0.950 . S
H888 C864 0.950 . S
H889 C865 0.949 . S
H890 C867 0.950 . S
H891 C869 0.950 . S
C892 C893 1.349 . S
C892 C894 1.327 . S
C892 H917 0.950 . S
C893 C892 1.349 . S
C893 C909 1.349 . S
C894 C892 1.327 . S
C894 C913 1.429 . S
C894 H918 0.950 . S
C895 C912 1.574 . S
C895 C914 1.368 . S
C895 H919 0.949 . S
H896 C900 0.949 . S
C897 C898 1.349 . S
C897 C899 1.327 . S
C897 H920 0.950 . S
C898 C897 1.349 . S
C898 C910 1.349 . S
C899 C897 1.327 . S
C899 C915 1.429 . S
C899 H921 0.950 . S
C900 H896 0.949 . S
C900 C908 1.574 . S
C900 C916 1.368 . S
H901 C909 0.950 . S
H902 C907 0.950 . S
H903 C908 0.949 . S
H904 C910 0.950 1_565 S
H905 C911 0.950 . S
H906 C912 0.949 . S
C907 H902 0.950 . S
C907 C909 1.327 . S
C907 C913 1.429 . S
C908 C900 1.574 . S
C908 H903 0.949 . S
C908 C914 1.368 . S
C909 C893 1.349 . S
C909 H901 0.950 . S
C909 C907 1.327 . S
C910 C898 1.349 . S
C910 H904 0.950 1_545 S
C910 C911 1.327 . S
C911 H905 0.950 . S
C911 C910 1.327 . S
C911 C915 1.429 . S
C912 C895 1.574 . S
C912 H906 0.949 . S
C912 C916 1.368 . S
C913 C894 1.429 . S
C913 C907 1.429 . S
C913 C914 1.523 . S
C914 C895 1.368 . S
C914 C908 1.368 . S
C914 C913 1.523 . S
C915 C899 1.429 . S
C915 C911 1.429 . S
C915 C916 1.523 . S
C916 C900 1.368 . S
C916 C912 1.368 . S
C916 C915 1.523 . S
H917 C892 0.950 . S
H918 C894 0.950 . S
H919 C895 0.949 . S
H920 C897 0.950 . S
H921 C899 0.950 . S
C922 C923 1.349 . S
C922 C924 1.327 . S
C922 H947 0.950 1_655 S
C923 C922 1.349 . S
C923 C939 1.349 . S
C924 C922 1.327 . S
C924 C943 1.429 . S
C924 H948 0.950 . S
C925 C942 1.574 . S
C925 C944 1.368 . S
C925 H949 0.949 . S
H926 C930 0.949 . S
C927 C928 1.349 . S
C927 C929 1.327 . S
C927 H950 0.950 . S
C928 C927 1.349 . S
C928 C940 1.349 . S
C929 C927 1.327 . S
C929 C945 1.429 . S
C929 H951 0.950 . S
C930 H926 0.949 . S
C930 C938 1.574 . S
C930 C946 1.368 . S
H931 C939 0.950 . S
H932 C937 0.950 . S
H933 C938 0.949 . S
H934 C940 0.950 . S
H935 C941 0.950 . S
H936 C942 0.949 . S
C937 H932 0.950 . S
C937 C939 1.327 . S
C937 C943 1.429 . S
C938 C930 1.574 . S
C938 H933 0.949 . S
C938 C944 1.368 . S
C939 C923 1.349 . S
C939 H931 0.950 . S
C939 C937 1.327 . S
C940 C928 1.349 . S
C940 H934 0.950 . S
C940 C941 1.327 . S
C941 H935 0.950 . S
C941 C940 1.327 . S
C941 C945 1.429 . S
C942 C925 1.574 . S
C942 H936 0.949 . S
C942 C946 1.368 . S
C943 C924 1.429 . S
C943 C937 1.429 . S
C943 C944 1.523 . S
C944 C925 1.368 . S
C944 C938 1.368 . S
C944 C943 1.523 . S
C945 C929 1.429 . S
C945 C941 1.429 . S
C945 C946 1.523 . S
C946 C930 1.368 . S
C946 C942 1.368 . S
C946 C945 1.523 . S
H947 C922 0.950 1_455 S
H948 C924 0.950 . S
H949 C925 0.949 . S
H950 C927 0.950 . S
H951 C929 0.950 . S
C473 C241 1.530 . S
C478 C5 1.530 . S
C503 C64 1.530 . S
C508 C300 1.530 . S
C533 C123 1.530 . S
C538 C359 1.530 . S
C563 C418 1.530 . S
C568 C182 1.530 . S
C593 C3 1.424 . S
C598 C121 1.424 . S
C623 C62 1.424 . S
C628 C180 1.424 . S
C653 C357 1.424 . S
C658 C239 1.424 . S
C683 C298 1.424 . S
C688 C416 1.424 . S
C713 C347 1.185 . S
C718 C33 1.181 . S
C743 C92 1.181 . S
C748 C406 1.185 . S
C773 C151 1.181 . S
C778 C465 1.185 . S
C803 C288 1.185 . S
C808 C210 1.181 . S
C833 C269 1.181 . S
C838 C111 1.185 . S
C863 C328 1.181 . S
C868 C170 1.185 . S
C893 C387 1.181 . S
C898 C229 1.185 . S
C923 C52 1.185 . S
C928 C446 1.181 . S
