# Generated by pormake.
# Topology fob, (5)-cn, num edge types: 1
# Building blocks:
#     Node 0, Type 0, BuildingBlock: BEQFEK_clean_sbu_0, # of connection points: 5
#     Node 1, Type 0, BuildingBlock: BEQFEK_clean_sbu_0, # of connection points: 5
#     Node 2, Type 0, BuildingBlock: BEQFEK_clean_sbu_0, # of connection points: 5
#     Node 3, Type 0, BuildingBlock: BEQFEK_clean_sbu_0, # of connection points: 5
#     Node 4, Type 0, BuildingBlock: BEQFEK_clean_sbu_0, # of connection points: 5
#     Node 5, Type 0, BuildingBlock: BEQFEK_clean_sbu_0, # of connection points: 5
#     Node 6, Type 0, BuildingBlock: BEQFEK_clean_sbu_0, # of connection points: 5
#     Node 7, Type 0, BuildingBlock: BEQFEK_clean_sbu_0, # of connection points: 5
#     Node 8, Type 0, BuildingBlock: BEQFEK_clean_sbu_0, # of connection points: 5
#     Node 9, Type 0, BuildingBlock: BEQFEK_clean_sbu_0, # of connection points: 5
#     Node 10, Type 0, BuildingBlock: BEQFEK_clean_sbu_0, # of connection points: 5
#     Node 11, Type 0, BuildingBlock: BEQFEK_clean_sbu_0, # of connection points: 5
#     Node 12, Type 0, BuildingBlock: BEQFEK_clean_sbu_0, # of connection points: 5
#     Node 13, Type 0, BuildingBlock: BEQFEK_clean_sbu_0, # of connection points: 5
#     Node 14, Type 0, BuildingBlock: BEQFEK_clean_sbu_0, # of connection points: 5
#     Node 15, Type 0, BuildingBlock: BEQFEK_clean_sbu_0, # of connection points: 5
#     Edge 16, Type (0, 0), BuildingBlock: XUDNAN_clean_linker_2, # of connection points: 2
#     Edge 17, Type (0, 0), BuildingBlock: XUDNAN_clean_linker_2, # of connection points: 2
#     Edge 18, Type (0, 0), BuildingBlock: XUDNAN_clean_linker_2, # of connection points: 2
#     Edge 19, Type (0, 0), BuildingBlock: XUDNAN_clean_linker_2, # of connection points: 2
#     Edge 20, Type (0, 0), BuildingBlock: XUDNAN_clean_linker_2, # of connection points: 2
#     Edge 21, Type (0, 0), BuildingBlock: XUDNAN_clean_linker_2, # of connection points: 2
#     Edge 22, Type (0, 0), BuildingBlock: XUDNAN_clean_linker_2, # of connection points: 2
#     Edge 23, Type (0, 0), BuildingBlock: XUDNAN_clean_linker_2, # of connection points: 2
#     Edge 24, Type (0, 0), BuildingBlock: XUDNAN_clean_linker_2, # of connection points: 2
#     Edge 25, Type (0, 0), BuildingBlock: XUDNAN_clean_linker_2, # of connection points: 2
#     Edge 26, Type (0, 0), BuildingBlock: XUDNAN_clean_linker_2, # of connection points: 2
#     Edge 27, Type (0, 0), BuildingBlock: XUDNAN_clean_linker_2, # of connection points: 2
#     Edge 28, Type (0, 0), BuildingBlock: XUDNAN_clean_linker_2, # of connection points: 2
#     Edge 29, Type (0, 0), BuildingBlock: XUDNAN_clean_linker_2, # of connection points: 2
#     Edge 30, Type (0, 0), BuildingBlock: XUDNAN_clean_linker_2, # of connection points: 2
#     Edge 31, Type (0, 0), BuildingBlock: XUDNAN_clean_linker_2, # of connection points: 2
#     Edge 32, Type (0, 0), BuildingBlock: XUDNAN_clean_linker_2, # of connection points: 2
#     Edge 33, Type (0, 0), BuildingBlock: XUDNAN_clean_linker_2, # of connection points: 2
#     Edge 34, Type (0, 0), BuildingBlock: XUDNAN_clean_linker_2, # of connection points: 2
#     Edge 35, Type (0, 0), BuildingBlock: XUDNAN_clean_linker_2, # of connection points: 2
#     Edge 36, Type (0, 0), BuildingBlock: XUDNAN_clean_linker_2, # of connection points: 2
#     Edge 37, Type (0, 0), BuildingBlock: XUDNAN_clean_linker_2, # of connection points: 2
#     Edge 38, Type (0, 0), BuildingBlock: XUDNAN_clean_linker_2, # of connection points: 2
#     Edge 39, Type (0, 0), BuildingBlock: XUDNAN_clean_linker_2, # of connection points: 2
#     Edge 40, Type (0, 0), BuildingBlock: XUDNAN_clean_linker_2, # of connection points: 2
#     Edge 41, Type (0, 0), BuildingBlock: XUDNAN_clean_linker_2, # of connection points: 2
#     Edge 42, Type (0, 0), BuildingBlock: XUDNAN_clean_linker_2, # of connection points: 2
#     Edge 43, Type (0, 0), BuildingBlock: XUDNAN_clean_linker_2, # of connection points: 2
#     Edge 44, Type (0, 0), BuildingBlock: XUDNAN_clean_linker_2, # of connection points: 2
#     Edge 45, Type (0, 0), BuildingBlock: XUDNAN_clean_linker_2, # of connection points: 2
#     Edge 46, Type (0, 0), BuildingBlock: XUDNAN_clean_linker_2, # of connection points: 2
#     Edge 47, Type (0, 0), BuildingBlock: XUDNAN_clean_linker_2, # of connection points: 2
#     Edge 48, Type (0, 0), BuildingBlock: XUDNAN_clean_linker_2, # of connection points: 2
#     Edge 49, Type (0, 0), BuildingBlock: XUDNAN_clean_linker_2, # of connection points: 2
#     Edge 50, Type (0, 0), BuildingBlock: XUDNAN_clean_linker_2, # of connection points: 2
#     Edge 51, Type (0, 0), BuildingBlock: XUDNAN_clean_linker_2, # of connection points: 2
#     Edge 52, Type (0, 0), BuildingBlock: XUDNAN_clean_linker_2, # of connection points: 2
#     Edge 53, Type (0, 0), BuildingBlock: XUDNAN_clean_linker_2, # of connection points: 2
#     Edge 54, Type (0, 0), BuildingBlock: XUDNAN_clean_linker_2, # of connection points: 2
#     Edge 55, Type (0, 0), BuildingBlock: XUDNAN_clean_linker_2, # of connection points: 2
# Relax obj value: 0.090
# Max RMSD: 0.161
# Mean RMSD: 0.161
data_MOF--net-fob--node1-BEQFEK_clean_sbu_0--edge1-XUDNAN_clean_linker_2
_symmetry_space_group_name_H-M    P1
_symmetry_Int_Tables_number       1
_symmetry_cell_setting            triclinic
loop_
_symmetry_equiv_pos_as_xyz
'x, y, z'
_cell_length_a     19.831295
_cell_length_b     74.160021
_cell_length_c     54.707194
_cell_angle_alpha  90.150685
_cell_angle_beta   90.070027
_cell_angle_gamma 89.752365
loop_
_atom_site_label
_atom_site_type_symbol
_atom_site_fract_x
_atom_site_fract_y
_atom_site_fract_z
_atom_type_partial_charge
Co0 Co 0.06966 0.10215 0.46721 0.0
Co1 Co 0.0493 0.14447 0.46463 0.0
C2 C 0.13465 0.12315 0.42817 0.0
O3 O 0.12889 0.10785 0.43865 0.0
O4 O 0.10652 0.13725 0.43683 0.0
C5 C 0.04053 0.06364 0.46772 0.0
O6 O 0.00187 0.0672 0.44881 0.0
C7 C 0.10337 0.18087 0.46387 0.0
C8 C 0.01451 0.19794 0.4719 0.0
C9 C 0.08309 0.19867 0.46712 0.0
N10 N 0.04942 0.17019 0.46649 0.0
N11 N -0.00372 0.18045 0.47114 0.0
C12 C 0.17351 0.17381 0.46033 0.0
H13 H 0.17791 0.15992 0.4677 0.0
H14 H 0.21086 0.18269 0.46945 0.0
H15 H 0.18487 0.17331 0.44048 0.0
C16 C 0.11278 0.11228 0.51735 0.0
N17 N 0.09076 0.11669 0.49483 0.0
N18 N 0.08083 0.13423 0.49392 0.0
C19 C 0.09576 0.14152 0.51583 0.0
C20 C 0.11679 0.12787 0.53134 0.0
C21 C 0.13016 0.09352 0.52516 0.0
H22 H 0.16013 0.08674 0.51068 0.0
H23 H 0.15928 0.09345 0.5425 0.0
H24 H 0.08289 0.08581 0.52777 0.0
O25 O 0.97554 0.10653 0.45614 0.0
O26 O 0.95845 0.13616 0.45662 0.0
H27 H 0.08474 0.16309 0.54239 0.0
H28 H 0.12533 0.16916 0.51412 0.0
C29 C 0.08469 0.16094 0.52232 0.0
H30 H 0.03569 0.16559 0.51485 0.0
H31 H 0.94781 0.17551 0.47413 0.0
O32 O 0.07542 0.07626 0.47714 0.0
C33 C 0.93756 0.12021 0.45272 0.0
Co34 Co 0.17718 0.09991 0.77351 0.0
Co35 Co 0.1645 0.14197 0.78186 0.0
C36 C 0.0854 0.11588 0.81183 0.0
O37 O 0.11053 0.10237 0.80051 0.0
O38 O 0.10031 0.132 0.80595 0.0
C39 C 0.13801 0.0632 0.76031 0.0
O40 O 0.07553 0.06873 0.76331 0.0
C41 C 0.11108 0.17965 0.78299 0.0
C42 C 0.20687 0.19476 0.78436 0.0
C43 C 0.1376 0.19694 0.78422 0.0
N44 N 0.16268 0.16778 0.78228 0.0
N45 N 0.21964 0.17697 0.78309 0.0
C46 C 0.0383 0.17448 0.78383 0.0
H47 H 0.03284 0.1598 0.78706 0.0
H48 H 0.01389 0.17789 0.76618 0.0
H49 H 0.01211 0.18224 0.79841 0.0
C50 C 0.1558 0.11137 0.72242 0.0
N51 N 0.15712 0.11497 0.74655 0.0
N52 N 0.15108 0.13249 0.74994 0.0
C53 C 0.14507 0.14059 0.72802 0.0
C54 C 0.14807 0.12749 0.70986 0.0
C55 C 0.17112 0.0932 0.71172 0.0
H56 H 0.21501 0.08715 0.72128 0.0
H57 H 0.12708 0.08426 0.71448 0.0
H58 H 0.18253 0.09392 0.69191 0.0
O59 O 0.26564 0.10624 0.78682 0.0
O60 O 0.25556 0.13561 0.79353 0.0
H61 H 0.18579 0.16717 0.73081 0.0
H62 H 0.12852 0.16415 0.7053 0.0
C63 C 0.13872 0.16054 0.72461 0.0
H64 H 0.09664 0.16567 0.73596 0.0
H65 H 0.2675 0.17107 0.78297 0.0
O66 O 0.18601 0.07424 0.76354 0.0
C67 C 0.28972 0.12108 0.79439 0.0
Co68 Co 0.87907 0.90766 0.52074 0.0
Co69 Co 0.83444 0.86682 0.52227 0.0
C70 C 0.77098 0.89286 0.55561 0.0
O71 O 0.80666 0.90558 0.5466 0.0
O72 O 0.77487 0.87673 0.54752 0.0
C73 C 0.93523 0.94236 0.52968 0.0
O74 O 0.9542 0.93436 0.54998 0.0
C75 C 0.77755 0.82945 0.52313 0.0
C76 C 0.84782 0.81614 0.49735 0.0
C77 C 0.79294 0.81288 0.51228 0.0
N78 N 0.82184 0.84176 0.515 0.0
N79 N 0.86352 0.83366 0.49963 0.0
C80 C 0.72006 0.83385 0.53982 0.0
H81 H 0.73727 0.83263 0.55906 0.0
H82 H 0.70294 0.84793 0.53684 0.0
H83 H 0.67726 0.82452 0.53676 0.0
C84 C 0.85101 0.90136 0.46789 0.0
N85 N 0.85319 0.89602 0.49138 0.0
N86 N 0.82508 0.88014 0.4932 0.0
C87 C 0.79797 0.87551 0.47161 0.0
C88 C 0.81496 0.88855 0.4542 0.0
C89 C 0.88862 0.91752 0.45897 0.0
H90 H 0.92919 0.92116 0.47201 0.0
H91 H 0.85345 0.92914 0.45742 0.0
H92 H 0.91193 0.91478 0.4409 0.0
O93 O 0.96011 0.89643 0.53442 0.0
O94 O 0.92695 0.86796 0.53603 0.0
H95 H 0.77682 0.84778 0.46364 0.0
H96 H 0.70969 0.86328 0.45545 0.0
C97 C 0.74934 0.86019 0.46917 0.0
H98 H 0.72467 0.85755 0.48699 0.0
H99 H 0.903 0.84016 0.49069 0.0
O100 O 0.89983 0.93358 0.51437 0.0
C101 C 0.97079 0.88007 0.54015 0.0
Co102 Co 0.88257 0.92649 0.21521 0.0
Co103 Co 0.89059 0.88356 0.21059 0.0
C104 C 0.01105 0.90612 0.20123 0.0
O105 O 0.97897 0.9209 0.20522 0.0
O106 O 0.98333 0.89074 0.20366 0.0
C107 C 0.85196 0.96357 0.20607 0.0
O108 O 0.86035 0.95815 0.1834 0.0
C109 C 0.91707 0.84348 0.21561 0.0
C110 C 0.81302 0.83375 0.21007 0.0
C111 C 0.87803 0.82788 0.21487 0.0
N112 N 0.87634 0.85785 0.21172 0.0
N113 N 0.81442 0.8518 0.20836 0.0
C114 C 0.99176 0.84469 0.21903 0.0
H115 H 0.0116 0.857 0.2102 0.0
H116 H 0.00332 0.84541 0.23885 0.0
H117 H 0.01722 0.83259 0.21131 0.0
C118 C 0.8248 0.91582 0.26339 0.0
N119 N 0.85232 0.91182 0.24147 0.0
N120 N 0.86169 0.8943 0.24004 0.0
C121 C 0.84525 0.88672 0.26147 0.0
C122 C 0.81943 0.89998 0.27696 0.0
C123 C 0.80059 0.93428 0.27036 0.0
H124 H 0.77931 0.94121 0.25413 0.0
H125 H 0.8438 0.9423 0.27721 0.0
H126 H 0.76117 0.93366 0.28469 0.0
O127 O 0.82945 0.92154 0.18593 0.0
O128 O 0.83614 0.89181 0.18219 0.0
H129 H 0.8226 0.8585 0.26176 0.0
H130 H 0.87164 0.86601 0.28777 0.0
C131 C 0.86343 0.86766 0.26785 0.0
H132 H 0.91068 0.86378 0.25843 0.0
H133 H 0.7728 0.86009 0.205 0.0
O134 O 0.86507 0.95258 0.2233 0.0
C135 C 0.81656 0.90711 0.17437 0.0
Co136 Co 0.11784 0.61026 0.9783 0.0
Co137 Co 0.16016 0.65069 0.96869 0.0
C138 C 0.23304 0.62158 0.9439 0.0
O139 O 0.19545 0.60995 0.95446 0.0
O140 O 0.22706 0.63847 0.9481 0.0
C141 C 0.06071 0.57425 0.981 0.0
O142 O 0.03323 0.57815 0.95979 0.0
C143 C 0.21082 0.68913 0.96706 0.0
C144 C 0.113 0.70271 0.97376 0.0
C145 C 0.18046 0.70598 0.96957 0.0
N146 N 0.16283 0.67646 0.96972 0.0
N147 N 0.10479 0.68477 0.97375 0.0
C148 C 0.28301 0.68526 0.96111 0.0
H149 H 0.28963 0.671 0.95537 0.0
H150 H 0.31454 0.6878 0.97751 0.0
H151 H 0.30046 0.69445 0.94645 0.0
C152 C 0.13475 0.62305 0.02935 0.0
N153 N 0.13635 0.6257 0.00504 0.0
N154 N 0.16285 0.64152 0.00061 0.0
C155 C 0.18408 0.64891 0.02165 0.0
C156 C 0.16607 0.63763 0.04095 0.0
C157 C 0.09828 0.6076 0.04084 0.0
H158 H 0.0573 0.60287 0.02863 0.0
H159 H 0.13411 0.59628 0.04377 0.0
H160 H 0.07581 0.61162 0.05862 0.0
O161 O 0.03815 0.61849 0.96031 0.0
O162 O 0.07229 0.64632 0.95293 0.0
H163 H 0.19548 0.67758 0.02336 0.0
H164 H 0.26235 0.66505 0.03838 0.0
C165 C 0.22772 0.66533 0.02245 0.0
H166 H 0.25844 0.66599 0.00559 0.0
H167 H 0.05916 0.67814 0.97655 0.0
O168 O 0.09986 0.5856 0.99111 0.0
C169 C 0.02906 0.63386 0.95064 0.0
Co170 Co 0.10221 0.61166 0.28221 0.0
Co171 Co 0.06417 0.65359 0.28239 0.0
C172 C 0.96173 0.62599 0.29444 0.0
O173 O 0.00378 0.61297 0.29182 0.0
O174 O 0.97818 0.64232 0.29044 0.0
C175 C 0.10055 0.57567 0.26149 0.0
O176 O 0.04451 0.58151 0.25133 0.0
C177 C 0.00615 0.69022 0.27179 0.0
C178 C 0.0987 0.70664 0.27376 0.0
C179 C 0.03055 0.70766 0.26839 0.0
N180 N 0.05806 0.67941 0.27818 0.0
N181 N 0.11287 0.68943 0.27967 0.0
C182 C 0.93472 0.68397 0.26973 0.0
H183 H 0.92442 0.67365 0.28382 0.0
H184 H 0.92667 0.67771 0.25152 0.0
H185 H 0.89884 0.69537 0.27205 0.0
C186 C 0.15523 0.62256 0.23342 0.0
N187 N 0.12274 0.62615 0.25455 0.0
N188 N 0.1006 0.64288 0.25401 0.0
C189 C 0.1137 0.65004 0.232 0.0
C190 C 0.15042 0.6376 0.21829 0.0
C191 C 0.19447 0.60562 0.22872 0.0
H192 H 0.21568 0.60035 0.24605 0.0
H193 H 0.16047 0.5953 0.22078 0.0
H194 H 0.23637 0.60807 0.21574 0.0
O195 O 0.15148 0.62065 0.31067 0.0
O196 O 0.12403 0.64976 0.31103 0.0
H197 H 0.11637 0.6788 0.22887 0.0
H198 H 0.07685 0.66758 0.20323 0.0
C199 C 0.08345 0.66744 0.22336 0.0
H200 H 0.03318 0.66935 0.23171 0.0
H201 H 0.16058 0.68439 0.28404 0.0
O202 O 0.13223 0.58611 0.27594 0.0
C203 C 0.15428 0.63625 0.32038 0.0
Co204 Co 0.87208 0.42128 0.02758 0.0
Co205 Co 0.87849 0.37868 0.0257 0.0
C206 C 0.79901 0.39834 0.06427 0.0
O207 O 0.81354 0.4138 0.05548 0.0
O208 O 0.81985 0.38374 0.05432 0.0
C209 C 0.90008 0.45693 0.04044 0.0
O210 O 0.91756 0.44845 0.06055 0.0
C211 C 0.8449 0.33956 0.02295 0.0
C212 C 0.9314 0.32974 0.00111 0.0
C213 C 0.87239 0.3242 0.01219 0.0
N214 N 0.88593 0.35355 0.01827 0.0
N215 N 0.93783 0.34749 0.00548 0.0
C216 C 0.77863 0.34128 0.03577 0.0
H217 H 0.75723 0.35497 0.03298 0.0
H218 H 0.7426 0.33096 0.0291 0.0
H219 H 0.7866 0.33927 0.05566 0.0
C220 C 0.8309 0.41583 0.97618 0.0
N221 N 0.84782 0.4094 -0.00164 0.0
N222 N 0.84935 0.39167 -0.00241 0.0
C223 C 0.83229 0.38623 0.97489 0.0
C224 C 0.82059 0.40133 0.96053 0.0
C225 C 0.83107 0.43545 0.96982 0.0
H226 H 0.88011 0.44141 0.97523 0.0
H227 H 0.79103 0.44246 0.9804 0.0
H228 H 0.82287 0.43772 0.95002 0.0
O229 O 0.96571 0.4154 0.03636 0.0
O230 O 0.97026 0.38557 0.0357 0.0
H231 H 0.87722 0.36116 0.96437 0.0
H232 H 0.79743 0.36569 0.94974 0.0
C233 C 0.82613 0.36695 0.96708 0.0
H234 H 0.79998 0.35914 0.98144 0.0
H235 H 0.97701 0.35561 -0.00077 0.0
O236 O 0.87292 0.44794 0.02326 0.0
C237 C -0.00201 0.40075 0.03931 0.0
Co238 Co 0.87357 0.40525 0.7115 0.0
Co239 Co 0.88641 0.36324 0.72014 0.0
C240 C -0.00189 0.38513 0.69741 0.0
O241 O 0.96582 0.40001 0.69892 0.0
O242 O 0.97338 0.37047 0.7055 0.0
C243 C 0.90143 0.44321 0.71726 0.0
O244 O 0.96442 0.43782 0.71915 0.0
C245 C 0.9379 0.3291 0.74134 0.0
C246 C 0.85422 0.31055 0.73271 0.0
C247 C 0.91685 0.3113 0.74391 0.0
N248 N 0.88946 0.33836 0.72947 0.0
N249 N 0.83969 0.32717 0.72437 0.0
C250 C 0.00416 0.33702 0.74879 0.0
H251 H 0.01465 0.34948 0.73841 0.0
H252 H 0.00258 0.34059 0.76848 0.0
H253 H 0.04555 0.32712 0.74589 0.0
C254 C 0.8411 0.40377 0.76449 0.0
N255 N 0.8586 0.39565 0.74332 0.0
N256 N 0.86214 0.37813 0.74685 0.0
C257 C 0.84625 0.37453 0.7703 0.0
C258 C 0.83254 0.39065 0.78224 0.0
C259 C 0.83697 0.42377 0.76799 0.0
H260 H 0.88609 0.4298 0.76307 0.0
H261 H 0.82554 0.4276 0.78713 0.0
H262 H 0.79755 0.42942 0.75578 0.0
O263 O 0.81027 0.39477 0.68733 0.0
O264 O 0.82003 0.36528 0.69358 0.0
H265 H 0.81263 0.35607 0.79834 0.0
H266 H 0.89156 0.35037 0.78388 0.0
C267 C 0.84039 0.35597 0.78074 0.0
H268 H 0.8136 0.34708 0.76767 0.0
H269 H 0.79574 0.33087 0.71512 0.0
O270 O 0.85599 0.43162 0.71282 0.0
C271 C 0.79521 0.37856 0.6819 0.0
Co272 Co 0.66261 0.10709 0.97267 0.0
Co273 Co 0.68109 0.14872 0.96268 0.0
C274 C 0.79144 0.12029 0.95415 0.0
O275 O 0.75845 0.10713 0.96309 0.0
O276 O 0.76663 0.13622 0.95355 0.0
C277 C 0.64957 0.06922 0.99179 0.0
O278 O 0.70935 0.07007 0.00208 0.0
C279 C 0.73748 0.18449 0.97445 0.0
C280 C 0.67332 0.20231 0.95187 0.0
C281 C 0.72498 0.20243 0.96889 0.0
N282 N 0.69439 0.17422 0.96155 0.0
N283 N 0.65675 0.18497 0.94788 0.0
C284 C 0.79131 0.17711 0.99085 0.0
H285 H 0.783 0.16255 0.99434 0.0
H286 H 0.79283 0.18464 0.00837 0.0
H287 H 0.84099 0.17884 0.98186 0.0
C288 C 0.62302 0.12132 0.02118 0.0
N289 N 0.64313 0.12383 -0.00204 0.0
N290 N 0.64778 0.14125 0.99369 0.0
C291 C 0.62891 0.15036 0.01399 0.0
C292 C 0.61371 0.13801 0.03215 0.0
C293 C 0.61158 0.10324 0.03249 0.0
H294 H 0.57624 0.09541 0.02092 0.0
H295 H 0.66014 0.0958 0.03336 0.0
H296 H 0.59004 0.10438 0.05113 0.0
O297 O 0.61418 0.11318 0.94253 0.0
O298 O 0.61692 0.14271 0.93644 0.0
H299 H 0.61354 0.17674 -0.00128 0.0
H300 H 0.59199 0.17509 0.03051 0.0
C301 C 0.62791 0.17048 0.01633 0.0
H302 H 0.67863 0.17519 0.02182 0.0
H303 H 0.6186 0.18049 0.93623 0.0
O304 O 0.62657 0.08272 0.98014 0.0
C305 C 0.5986 0.12699 0.93004 0.0
Co306 Co 0.56521 0.10885 0.27035 0.0
Co307 Co 0.56442 0.15111 0.28264 0.0
C308 C 0.44408 0.12684 0.29154 0.0
O309 O 0.47263 0.11241 0.28383 0.0
O310 O 0.47367 0.14211 0.29133 0.0
C311 C 0.61286 0.07137 0.26793 0.0
O312 O 0.62657 0.07346 0.29125 0.0
C313 C 0.52641 0.1904 0.2794 0.0
C314 C 0.61774 0.20259 0.29547 0.0
C315 C 0.55584 0.20691 0.28525 0.0
N316 N 0.56959 0.17704 0.2857 0.0
N317 N 0.62388 0.18453 0.29531 0.0
C318 C 0.4571 0.18734 0.26943 0.0
H319 H 0.44214 0.17305 0.27156 0.0
H320 H 0.45597 0.19072 0.24971 0.0
H321 H 0.42037 0.19629 0.27886 0.0
C322 C 0.58998 0.12371 0.22131 0.0
N323 N 0.58346 0.12607 0.2456 0.0
N324 N 0.5864 0.14343 0.25064 0.0
C325 C 0.59613 0.15259 0.22968 0.0
C326 C 0.59819 0.14041 0.21044 0.0
C327 C 0.58048 0.10598 0.20863 0.0
H328 H 0.62711 0.09782 0.21078 0.0
H329 H 0.53816 0.09857 0.21714 0.0
H330 H 0.56988 0.10768 0.18886 0.0
O331 O 0.62593 0.11158 0.29849 0.0
O332 O 0.62672 0.1408 0.30734 0.0
H333 H 0.63238 0.17792 0.24328 0.0
H334 H 0.62618 0.17659 0.21038 0.0
C335 C 0.60206 0.17263 0.22785 0.0
H336 H 0.55107 0.17874 0.22854 0.0
H337 H 0.66544 0.17728 0.30173 0.0
O338 O 0.58307 0.08407 0.25647 0.0
C339 C 0.64507 0.12467 0.31181 0.0
Co340 Co 0.38549 0.91861 0.02469 0.0
Co341 Co 0.39967 0.87628 0.0279 0.0
C342 C 0.3182 0.89866 0.06445 0.0
O343 O 0.32755 0.91362 0.05352 0.0
O344 O 0.34296 0.88392 0.05622 0.0
C345 C 0.42545 0.95468 0.02994 0.0
O346 O 0.45315 0.94766 0.04958 0.0
C347 C 0.346 0.83982 0.02088 0.0
C348 C 0.4395 0.82364 0.01806 0.0
C349 C 0.37005 0.82256 0.0158 0.0
N350 N 0.39899 0.85062 0.02513 0.0
N351 N 0.45463 0.84079 0.0239 0.0
C352 C 0.27416 0.84605 0.02228 0.0
H353 H 0.26898 0.85674 0.03639 0.0
H354 H 0.25855 0.85196 0.00456 0.0
H355 H 0.24019 0.83465 0.02667 0.0
C356 C 0.33852 0.90914 0.97481 0.0
N357 N 0.36047 0.90453 -0.00272 0.0
N358 N 0.3704 0.88697 -0.00195 0.0
C359 C 0.35701 0.87995 0.97582 0.0
C360 C 0.335 0.89367 0.96057 0.0
C361 C 0.32208 0.92802 0.96725 0.0
H362 H 0.29671 0.93525 0.98248 0.0
H363 H 0.28933 0.92819 0.95079 0.0
H364 H 0.36965 0.9352 0.96307 0.0
O365 O 0.47947 0.91298 0.03411 0.0
O366 O 0.49231 0.88333 0.03562 0.0
H367 H 0.38761 0.8607 0.94828 0.0
H368 H 0.33039 0.85222 0.97071 0.0
C369 C 0.37441 0.86112 0.96799 0.0
H370 H 0.41779 0.85592 0.97864 0.0
H371 H 0.50317 0.84595 0.02599 0.0
O372 O 0.38809 0.94479 0.01657 0.0
C373 C 0.51597 0.89913 0.03785 0.0
Co374 Co 0.33364 0.9039 0.71419 0.0
Co375 Co 0.37243 0.86244 0.71595 0.0
C376 C 0.46738 0.89048 0.6961 0.0
O377 O 0.42661 0.90339 0.70088 0.0
O378 O 0.45351 0.87412 0.70143 0.0
C379 C 0.32779 0.94353 0.72225 0.0
O380 O 0.39384 0.94364 0.72411 0.0
C381 C 0.43432 0.82691 0.73016 0.0
C382 C 0.35262 0.8087 0.71822 0.0
C383 C 0.41569 0.80888 0.72895 0.0
N384 N 0.38394 0.83695 0.72065 0.0
N385 N 0.33549 0.8259 0.71358 0.0
C386 C 0.50014 0.83431 0.73885 0.0
H387 H 0.50058 0.84924 0.73743 0.0
H388 H 0.5091 0.83027 0.75809 0.0
H389 H 0.54163 0.8285 0.72769 0.0
C390 C 0.31034 0.89713 0.76672 0.0
N391 N 0.32811 0.89139 0.74425 0.0
N392 N 0.34385 0.87414 0.7452 0.0
C393 C 0.33603 0.86834 0.76838 0.0
C394 C 0.31484 0.88275 0.78277 0.0
C395 C 0.28731 0.91592 0.77247 0.0
H396 H 0.24641 0.91985 0.75969 0.0
H397 H 0.32999 0.92534 0.76989 0.0
H398 H 0.26829 0.91716 0.79146 0.0
O399 O 0.27562 0.89298 0.68896 0.0
O400 O 0.30225 0.86399 0.69053 0.0
H401 H 0.32384 0.83974 0.76561 0.0
H402 H 0.34073 0.8476 0.79635 0.0
C403 C 0.35238 0.84963 0.77675 0.0
H404 H 0.40687 0.84708 0.77402 0.0
H405 H 0.29031 0.8301 0.70558 0.0
O406 O 0.29746 0.92877 0.71817 0.0
C407 C 0.26893 0.87692 0.68122 0.0
Co408 Co 0.56356 0.59693 0.46318 0.0
Co409 Co 0.59397 0.63814 0.47345 0.0
C410 C 0.65692 0.61953 0.43128 0.0
O411 O 0.62954 0.60453 0.43711 0.0
O412 O 0.64832 0.63392 0.44383 0.0
C413 C 0.59326 0.55848 0.46523 0.0
O414 O 0.6568 0.56343 0.46516 0.0
C415 C 0.64256 0.6755 0.4868 0.0
C416 C 0.56176 0.68246 0.51306 0.0
C417 C 0.62037 0.68901 0.50274 0.0
N418 N 0.59882 0.66165 0.48794 0.0
N419 N 0.55061 0.66606 0.50352 0.0
C420 C 0.70606 0.67516 0.47212 0.0
H421 H 0.7214 0.66104 0.46814 0.0
H422 H 0.74709 0.68227 0.48199 0.0
H423 H 0.69703 0.68216 0.45451 0.0
C424 C 0.59806 0.59522 0.51582 0.0
N425 N 0.59215 0.60419 0.49456 0.0
N426 N 0.61367 0.62074 0.49758 0.0
C427 C 0.63909 0.62252 0.52025 0.0
C428 C 0.62914 0.60645 0.53289 0.0
C429 C 0.56572 0.57732 0.52044 0.0
H430 H 0.52207 0.57537 0.50806 0.0
H431 H 0.60302 0.5664 0.51713 0.0
H432 H 0.54761 0.57636 0.53957 0.0
O433 O 0.47698 0.60808 0.4553 0.0
O434 O 0.499 0.63684 0.4625 0.0
H435 H 0.64031 0.64878 0.53657 0.0
H436 H 0.71456 0.63535 0.5428 0.0
C437 C 0.67645 0.6389 0.52872 0.0
H438 H 0.70232 0.6453 0.51305 0.0
H439 H 0.51045 0.65764 0.50799 0.0
O440 O 0.54756 0.57045 0.46329 0.0
C441 C 0.45877 0.62452 0.45568 0.0
Co442 Co 0.67039 0.59337 0.78419 0.0
Co443 Co 0.62004 0.63334 0.77542 0.0
C444 C 0.53799 0.60797 0.80449 0.0
O445 O 0.58045 0.59517 0.80091 0.0
O446 O 0.54605 0.62362 0.79523 0.0
C447 C 0.68027 0.55426 0.77516 0.0
O448 O 0.61756 0.55491 0.76742 0.0
C449 C 0.56634 0.67101 0.77123 0.0
C450 C 0.63124 0.68107 0.74144 0.0
C451 C 0.58044 0.6862 0.75729 0.0
N452 N 0.60679 0.65746 0.76367 0.0
N453 N 0.64587 0.66371 0.74609 0.0
C454 C 0.5157 0.6693 0.79131 0.0
H455 H 0.48764 0.65649 0.78915 0.0
H456 H 0.47977 0.68081 0.79136 0.0
H457 H 0.5425 0.6688 0.80911 0.0
C458 C 0.68226 0.59481 0.73048 0.0
N459 N 0.66726 0.60246 0.75212 0.0
N460 N 0.63607 0.61784 0.74838 0.0
C461 C 0.62394 0.61964 0.72428 0.0
C462 C 0.6541 0.60523 0.71191 0.0
C463 C 0.72869 0.57894 0.72776 0.0
H464 H 0.76386 0.5782 0.7435 0.0
H465 H 0.69876 0.56636 0.72701 0.0
H466 H 0.75864 0.57998 0.71071 0.0
O467 O 0.73236 0.60716 0.80403 0.0
O468 O 0.69844 0.63531 0.79805 0.0
H469 H 0.60353 0.64487 0.70654 0.0
H470 H 0.54523 0.6272 0.69905 0.0
C471 C 0.57547 0.63324 0.71404 0.0
H472 H 0.54098 0.63823 0.72854 0.0
H473 H 0.68363 0.65617 0.73752 0.0
O474 O 0.7075 0.56847 0.78357 0.0
C475 C 0.73725 0.62392 0.80835 0.0
Co476 Co 0.39059 0.40326 0.52458 0.0
Co477 Co 0.37955 0.36087 0.51869 0.0
C478 C 0.29996 0.38241 0.55669 0.0
O479 O 0.32024 0.39795 0.54974 0.0
O480 O 0.31896 0.36789 0.546 0.0
C481 C 0.38998 0.44463 0.5204 0.0
O482 O 0.32563 0.44653 0.52551 0.0
C483 C 0.31923 0.32517 0.50627 0.0
C484 C 0.4124 0.30992 0.49785 0.0
C485 C 0.34281 0.30857 0.49785 0.0
N486 N 0.37277 0.33584 0.51061 0.0
N487 N 0.42814 0.32648 0.50593 0.0
C488 C 0.24759 0.33139 0.50807 0.0
H489 H 0.24497 0.34634 0.50861 0.0
H490 H 0.21775 0.32615 0.49243 0.0
H491 H 0.22529 0.32606 0.52517 0.0
C492 C 0.35125 0.40109 0.47236 0.0
N493 N 0.3675 0.39317 0.49373 0.0
N494 N 0.36426 0.37554 0.49103 0.0
C495 C 0.34645 0.37173 0.4678 0.0
C496 C 0.33703 0.38777 0.45535 0.0
C497 C 0.34552 0.42103 0.4688 0.0
H498 H 0.31301 0.42681 0.48333 0.0
H499 H 0.32372 0.42447 0.45071 0.0
H500 H 0.39627 0.42716 0.47042 0.0
O501 O 0.47503 0.39297 0.53794 0.0
O502 O 0.47118 0.36359 0.53135 0.0
H503 H 0.34333 0.35339 0.437 0.0
H504 H 0.29291 0.34706 0.46289 0.0
C505 C 0.3414 0.35314 0.45727 0.0
H506 H 0.38336 0.34463 0.4641 0.0
H507 H 0.47685 0.33165 0.50734 0.0
O508 O 0.41654 0.429 0.51998 0.0
C509 C 0.5015 0.37739 0.53947 0.0
Co510 Co 0.36982 0.42366 0.21546 0.0
Co511 Co 0.37384 0.38046 0.21303 0.0
C512 C 0.49548 0.40483 0.20244 0.0
O513 O 0.46675 0.41994 0.20703 0.0
O514 O 0.46434 0.38987 0.20451 0.0
C515 C 0.35954 0.46394 0.22881 0.0
O516 O 0.41928 0.46424 0.2392 0.0
C517 C 0.4221 0.34438 0.22995 0.0
C518 C 0.3437 0.32655 0.21465 0.0
C519 C 0.40136 0.32642 0.22899 0.0
N520 N 0.37786 0.35456 0.21722 0.0
N521 N 0.33157 0.34373 0.20796 0.0
C522 C 0.4844 0.3517 0.24179 0.0
H523 H 0.4998 0.36445 0.23297 0.0
H524 H 0.4743 0.35465 0.26132 0.0
H525 H 0.5262 0.34173 0.24069 0.0
C526 C 0.32179 0.41499 0.2653 0.0
N527 N 0.34237 0.4098 0.24289 0.0
N528 N 0.34026 0.39206 0.2415 0.0
C529 C 0.31686 0.38549 0.26282 0.0
C530 C 0.30498 0.39981 0.27864 0.0
C531 C 0.31789 0.43417 0.27372 0.0
H532 H 0.28259 0.4417 0.26174 0.0
H533 H 0.36843 0.4404 0.27223 0.0
H534 H 0.29978 0.43529 0.29284 0.0
O535 O 0.32191 0.41571 0.18592 0.0
O536 O 0.31631 0.38583 0.18431 0.0
H537 H 0.28779 0.35871 0.25257 0.0
H538 H 0.27827 0.36344 0.2847 0.0
C539 C 0.31009 0.36583 0.26843 0.0
H540 H 0.36063 0.36008 0.27215 0.0
H541 H 0.29091 0.34812 0.19738 0.0
O542 O 0.33797 0.44936 0.21927 0.0
C543 C 0.30352 0.40128 0.17528 0.0
H544 H 0.07503 0.22818 0.49716 0.0
H545 H 0.18393 0.20652 0.43486 0.0
H546 H 0.25716 0.2333 0.43468 0.0
H547 H 0.08268 0.27576 0.47848 0.0
H548 H 0.09411 0.28384 0.5093 0.0
H549 H 0.04731 0.26345 0.50375 0.0
H550 H 0.1267 0.24599 0.53306 0.0
H551 H 0.17357 0.26631 0.53873 0.0
H552 H 0.21642 0.24638 0.52782 0.0
H553 H 0.32271 0.26112 0.44271 0.0
H554 H 0.37723 0.28863 0.4583 0.0
H555 H 0.22581 0.29296 0.51524 0.0
C556 C 0.11386 0.22921 0.48333 0.0
C557 C 0.12476 0.21514 0.46629 0.0
C558 C 0.17601 0.2169 0.4485 0.0
C559 C 0.21733 0.23216 0.44809 0.0
C560 C 0.20629 0.24562 0.46545 0.0
C561 C 0.15573 0.24438 0.4827 0.0
C562 C 0.1567 0.26045 0.49993 0.0
C563 C 0.0913 0.27153 0.49772 0.0
C564 C 0.16911 0.25442 0.52645 0.0
C565 C 0.21647 0.27074 0.48991 0.0
C566 C 0.24388 0.26195 0.46991 0.0
C567 C 0.30129 0.26824 0.45817 0.0
C568 C 0.332 0.28383 0.46722 0.0
C569 C 0.30526 0.29304 0.48777 0.0
C570 C 0.2463 0.28649 0.49911 0.0
H571 H 0.91086 0.96265 0.48833 0.0
H572 H 0.01187 0.96418 0.5588 0.0
H573 H 0.05345 0.99471 0.54975 0.0
H574 H 0.03975 0.98657 0.45479 0.0
H575 H 0.98044 0.99868 0.43592 0.0
H576 H 0.9591 0.97675 0.44764 0.0
H577 H 0.85097 0.98999 0.46737 0.0
H578 H 0.87173 0.01192 0.45559 0.0
H579 H 0.85761 0.00898 0.48788 0.0
H580 H 0.08502 0.02495 0.53313 0.0
H581 H 0.09834 0.05368 0.51116 0.0
H582 H 0.97512 0.03307 0.45174 0.0
C583 C 0.94159 0.96942 0.50189 0.0
C584 C 0.95807 0.96097 0.5243 0.0
C585 C -0.00147 0.97032 0.5415 0.0
C586 C 0.02261 0.98767 0.53651 0.0
C587 C 0.00591 0.99555 0.51421 0.0
C588 C 0.96605 0.9868 0.49722 0.0
C589 C 0.9547 0.99847 0.47483 0.0
C590 C 0.98533 0.98958 0.45195 0.0
C591 C 0.87927 1.00259 0.47122 0.0
C592 C 0.99349 0.01524 0.48211 0.0
C593 C 0.02331 0.01316 0.50476 0.0
C594 C 0.06183 0.02676 0.51538 0.0
C595 C 0.0692 0.04304 0.50271 0.0
C596 C 0.03762 0.04573 0.47974 0.0
C597 C -0.00011 0.03149 0.46926 0.0
H598 H 0.2624 0.04725 0.75531 0.0
H599 H 0.048 0.03637 0.74933 0.0
H600 H 0.07363 1.0048 0.738 0.0
H601 H 0.31578 0.01926 0.7047 0.0
H602 H 0.39175 0.01177 0.71976 0.0
H603 H 0.35656 0.03359 0.72685 0.0
H604 H 0.35232 0.02514 0.77274 0.0
H605 H 0.3875 1.00329 0.76581 0.0
H606 H 0.30859 1.00502 0.78199 0.0
H607 H 0.12251 0.97438 0.72798 0.0
H608 H 0.1906 0.94709 0.72041 0.0
H609 H 0.3736 0.97771 0.73315 0.0
C610 C 0.22072 0.03827 0.75153 0.0
C611 C 0.15307 0.04431 0.75319 0.0
C612 C 0.10016 0.03207 0.74819 0.0
C613 C 0.11423 0.01412 0.74171 0.0
C614 C 0.18145 1.00862 0.74033 0.0
C615 C 0.23383 0.02032 0.74511 0.0
C616 C 0.30159 0.01093 0.74279 0.0
C617 C 0.3439 0.01939 0.7223 0.0
C618 C 0.33972 0.01111 0.76729 0.0
C619 C 0.27916 0.99206 0.73604 0.0
C620 C 0.20966 0.99105 0.73465 0.0
C621 C 0.17695 0.97501 0.72896 0.0
C622 C 0.21622 0.95957 0.72468 0.0
C623 C 0.28761 0.96021 0.72612 0.0
C624 C 0.31925 0.97675 0.73181 0.0
H625 H 0.91112 0.27604 0.72979 0.0
H626 H -0.00042 0.3112 0.78452 0.0
H627 H 0.0601 0.28527 0.80227 0.0
H628 H 0.88787 0.23737 0.77034 0.0
H629 H 0.90787 0.22115 0.74682 0.0
H630 H 0.86972 0.24243 0.73878 0.0
H631 H 0.96814 0.24894 0.709 0.0
H632 H 0.00628 0.22766 0.71682 0.0
H633 H 0.05366 0.2482 0.72018 0.0
H634 H 0.11707 0.25596 0.81224 0.0
H635 H 0.16498 0.22516 0.81415 0.0
H636 H 0.03527 0.20869 0.75439 0.0
C637 C 0.9429 0.27827 0.74561 0.0
C638 C 0.95216 0.29578 0.75529 0.0
C639 C 0.99381 0.29811 0.77609 0.0
C640 C 0.02762 0.28338 0.78657 0.0
C641 C 0.01832 0.26636 0.77629 0.0
C642 C 0.97665 0.2637 0.75637 0.0
C643 C 0.97675 0.24411 0.74841 0.0
C644 C 0.90636 0.23578 0.75127 0.0
C645 C 0.00278 0.24212 0.72204 0.0
C646 C 0.02606 0.23622 0.76668 0.0
C647 C 0.04921 0.24929 0.78267 0.0
C648 C 0.09847 0.24555 0.80012 0.0
C649 C 0.12537 0.22806 0.80106 0.0
C650 C 0.1025 0.21451 0.78484 0.0
C651 C 0.05171 0.21861 0.76762 0.0
H652 H 0.77974 0.7862 0.47822 0.0
H653 H 0.74044 0.79848 0.55451 0.0
H654 H 0.6956 0.76781 0.56032 0.0
H655 H 0.63273 0.7588 0.4678 0.0
H656 H 0.67617 0.74308 0.44811 0.0
H657 H 0.70388 0.76613 0.44997 0.0
H658 H 0.82386 0.75511 0.46157 0.0
H659 H 0.79628 0.73202 0.46005 0.0
H660 H 0.83489 0.74052 0.48759 0.0
H661 H 0.65584 0.73586 0.55792 0.0
H662 H 0.61904 0.70514 0.54721 0.0
H663 H 0.68552 0.71326 0.47251 0.0
C664 C 0.76128 0.78247 0.49613 0.0
C665 C 0.76203 0.79491 0.51577 0.0
C666 C 0.73811 0.78946 0.53896 0.0
C667 C 0.71343 0.77196 0.54252 0.0
C668 C 0.71353 0.76004 0.52276 0.0
C669 C 0.73654 0.76506 0.49999 0.0
C670 C 0.73081 0.74968 0.48177 0.0
C671 C 0.68304 0.75473 0.46067 0.0
C672 C 0.80063 0.744 0.47219 0.0
C673 C 0.7007 0.73521 0.49785 0.0
C674 C 0.69149 0.74148 0.52145 0.0
C675 C 0.66301 0.73079 0.53953 0.0
C676 C 0.64228 0.71336 0.53325 0.0
C677 C 0.65021 0.70669 0.50911 0.0
C678 C 0.68047 0.71774 0.49125 0.0
H679 H 0.82353 0.97951 0.2508 0.0
H680 H 0.80145 0.98721 0.17251 0.0
H681 H 0.7349 0.01476 0.17997 0.0
H682 H 0.6587 0.99464 0.26779 0.0
H683 H 0.68577 1.00616 0.29511 0.0
H684 H 0.73291 0.98705 0.28388 0.0
H685 H 0.84144 1.00632 0.28249 0.0
H686 H 0.79479 0.02544 0.29397 0.0
H687 H 0.84115 0.02724 0.26577 0.0
H688 H 0.66581 0.04067 0.19563 0.0
H689 H 0.60947 0.06512 0.2185 0.0
H690 H 0.67942 0.04172 0.2867 0.0
C691 C 0.80532 0.98709 0.23522 0.0
C692 C 0.81788 0.98111 0.21103 0.0
C693 C 0.79285 0.99146 0.1912 0.0
C694 C 0.7546 1.00713 0.19524 0.0
C695 C 0.74205 0.01245 0.21923 0.0
C696 C 0.76742 1.00293 0.23891 0.0
C697 C 0.74728 0.01185 0.26285 0.0
C698 C 0.70356 0.99916 0.27832 0.0
C699 C 0.8099 0.01808 0.27711 0.0
C700 C 0.70649 0.02779 0.2535 0.0
C701 C 0.70362 0.02775 0.22828 0.0
C702 C 0.66819 0.04093 0.21539 0.0
C703 C 0.63614 0.05478 0.22857 0.0
C704 C 0.64026 0.05551 0.25442 0.0
C705 C 0.6753 0.04163 0.26697 0.0
H706 H 0.97135 0.81337 0.24724 0.0
H707 H 0.82477 0.79889 0.19167 0.0
H708 H 0.84649 0.76667 0.19961 0.0
H709 H 0.09044 0.77667 0.23439 0.0
H710 H 0.11136 0.77348 0.26617 0.0
H711 H 0.08613 0.79543 0.25538 0.0
H712 H 0.99153 0.79642 0.28797 0.0
H713 H 0.01587 0.77438 0.29864 0.0
H714 H 0.93031 0.77854 0.28896 0.0
H715 H 0.88246 0.73603 0.21385 0.0
H716 H 0.93292 0.709 0.23267 0.0
H717 H 0.05496 0.74303 0.27962 0.0
C718 C 0.9452 0.80345 0.23627 0.0
C719 C 0.89716 0.80869 0.21849 0.0
C720 C 0.86206 0.7952 0.20528 0.0
C721 C 0.87402 0.77686 0.20965 0.0
C722 C 0.92107 0.77213 0.22744 0.0
C723 C 0.95642 0.785 0.24047 0.0
C724 C 0.00315 0.77621 0.25896 0.0
C725 C 0.07716 0.78071 0.25338 0.0
C726 C 0.98404 0.78172 0.28518 0.0
C727 C 0.98837 0.75644 0.25427 0.0
C728 C 0.94078 0.75441 0.23604 0.0
C729 C 0.91927 0.73745 0.22834 0.0
C730 C 0.94752 0.72213 0.23943 0.0
C731 C -0.00367 0.72384 0.25821 0.0
C732 C 0.01702 0.74128 0.26557 0.0
H733 H 0.39598 0.78689 0.02427 0.0
H734 H 0.2649 0.82275 0.9832 0.0
H735 H 0.20904 0.79656 0.96448 0.0
H736 H 0.41656 0.75337 0.97639 0.0
H737 H 0.41554 0.73451 -0.00291 0.0
H738 H 0.44637 0.75608 0.00732 0.0
H739 H 0.36056 0.75612 0.04302 0.0
H740 H 0.33033 0.73444 0.03314 0.0
H741 H 0.27221 0.75303 0.03651 0.0
H742 H 0.16519 0.76679 0.95111 0.0
H743 H 0.1312 0.73505 0.94578 0.0
H744 H 0.29203 0.71809 0.9944 0.0
C745 C 0.35526 0.78919 0.01142 0.0
C746 C 0.33351 0.80686 0.00573 0.0
C747 C 0.28069 0.80938 0.98862 0.0
C748 C 0.24938 0.79456 0.97755 0.0
C749 C 0.27195 0.77733 0.98357 0.0
C750 C 0.3234 0.77453 0.00018 0.0
C751 C 0.33646 0.75456 0.00396 0.0
C752 C 0.40799 0.74933 0.99569 0.0
C753 C 0.32412 0.74923 0.03074 0.0
C754 C 0.28363 0.74659 0.9871 0.0
C755 C 0.24749 0.76001 0.97537 0.0
C756 C 0.19358 0.75615 0.95995 0.0
C757 C 0.17479 0.73811 0.95698 0.0
C758 C 0.20998 0.72418 0.96925 0.0
C759 C 0.26592 0.72844 0.98412 0.0
H760 H 0.88886 0.47755 -0.00135 0.0
H761 H 0.96115 0.47905 0.07361 0.0
H762 H 0.00872 0.5092 0.06653 0.0
H763 H 0.03022 0.49854 0.97195 0.0
H764 H 0.98283 0.5114 0.94986 0.0
H765 H 0.95017 0.49035 0.96101 0.0
H766 H 0.84017 0.50636 0.97473 0.0
H767 H 0.87216 0.52744 0.96337 0.0
H768 H 0.84499 0.52569 0.99471 0.0
H769 H 0.05566 0.5381 0.05077 0.0
H770 H 0.09132 0.56511 0.02815 0.0
H771 H 0.98711 0.54551 0.96352 0.0
C772 C 0.91365 0.48435 0.0137 0.0
C773 C 0.92114 0.47589 0.03672 0.0
C774 C 0.9546 0.48521 0.05583 0.0
C775 C 0.98198 0.50235 0.05199 0.0
C776 C 0.97522 0.5101 0.02897 0.0
C777 C 0.94122 0.50154 0.01021 0.0
C778 C 0.94244 0.51278 0.98707 0.0
C779 C 0.97858 0.50266 0.96625 0.0
C780 C 0.87067 0.5184 0.97953 0.0
C781 C 0.98313 0.52886 0.99572 0.0
C782 C 0.00163 0.52699 0.01993 0.0
C783 C 0.04096 0.53981 0.03186 0.0
C784 C 0.06123 0.55508 0.01879 0.0
C785 C 0.04191 0.5575 0.99406 0.0
C786 C 0.0025 0.54412 0.98242 0.0
H787 H 0.2233 0.56062 0.27474 0.0
H788 H 0.0429 0.55026 0.23195 0.0
H789 H 0.09074 0.52115 0.21858 0.0
H790 H 0.34116 0.54131 0.23189 0.0
H791 H 0.395 0.53163 0.25501 0.0
H792 H 0.34665 0.55167 0.26167 0.0
H793 H 0.29246 0.53584 0.29888 0.0
H794 H 0.34091 0.51578 0.29242 0.0
H795 H 0.25036 0.51456 0.29459 0.0
H796 H 0.15744 0.49328 0.20956 0.0
H797 H 0.23762 0.46799 0.20617 0.0
H798 H 0.37645 0.49593 0.25452 0.0
C799 C 0.19367 0.55218 0.26268 0.0
C800 C 0.12905 0.55778 0.25447 0.0
C801 C 0.09232 0.54634 0.23856 0.0
C802 C 0.11914 0.52975 0.23081 0.0
C803 C 0.18296 0.52471 0.23906 0.0
C804 C 0.2198 0.53552 0.25469 0.0
C805 C 0.28732 0.52682 0.26075 0.0
C806 C 0.346 0.53856 0.25179 0.0
C807 C 0.29307 0.52302 0.2883 0.0
C808 C 0.28251 0.50943 0.24612 0.0
C809 C 0.22183 0.50855 0.23374 0.0
C810 C 0.20513 0.49381 0.21916 0.0
C811 C 0.25121 0.47948 0.21735 0.0
C812 C 0.31366 0.47988 0.23002 0.0
C813 C 0.32948 0.4952 0.24446 0.0
H814 H 0.78272 0.23127 0.94677 0.0
H815 H 0.72214 0.21074 0.01743 0.0
H816 H 0.75298 0.23984 0.03668 0.0
H817 H 0.92751 0.25719 0.96912 0.0
H818 H 0.9139 0.27515 0.94751 0.0
H819 H 0.88951 0.25245 0.93985 0.0
H820 H 0.76792 0.26365 0.93103 0.0
H821 H 0.79167 0.28633 0.93899 0.0
H822 H 0.72226 0.2757 0.95446 0.0
H823 H 0.78199 0.27224 0.04741 0.0
H824 H 0.81953 0.30408 0.04952 0.0
H825 H 0.86588 0.30264 0.97213 0.0
C826 C 0.77728 0.23285 0.96636 0.0
C827 C 0.75153 0.21877 0.98078 0.0
C828 C 0.74376 0.22127 0.00627 0.0
C829 C 0.76041 0.23779 0.01727 0.0
C830 C 0.78516 0.25155 0.0025 0.0
C831 C 0.79467 0.24913 0.97766 0.0
C832 C 0.82213 0.26599 0.96584 0.0
C833 C 0.89244 0.26248 0.95495 0.0
C834 C 0.77305 0.27335 0.94644 0.0
C835 C 0.82574 0.27837 0.98782 0.0
C836 C 0.80355 0.2699 0.00878 0.0
C837 C 0.80002 0.27895 0.03115 0.0
C838 C 0.82081 0.29703 0.03216 0.0
C839 C 0.8453 0.30571 0.01099 0.0
C840 C 0.84765 0.29623 0.98861 0.0
H841 H 0.64391 0.52207 0.75354 0.0
H842 H 0.8153 0.55066 0.78411 0.0
H843 H 0.89051 0.52592 0.77128 0.0
H844 H 0.70121 0.47705 0.77098 0.0
H845 H 0.66949 0.4667 0.74346 0.0
H846 H 0.62875 0.48652 0.75566 0.0
H847 H 0.6444 0.50258 0.71403 0.0
H848 H 0.68609 0.4829 0.70183 0.0
H849 H 0.72775 0.50445 0.70118 0.0
H850 H 0.94834 0.49881 0.7536 0.0
H851 H 0.98314 0.46961 0.73582 0.0
H852 H 0.7745 0.45827 0.71732 0.0
C853 C 0.6971 0.52304 0.75782 0.0
C854 C 0.72352 0.53836 0.76985 0.0
C855 C 0.7936 0.53908 0.77498 0.0
C856 C 0.83694 0.52512 0.76766 0.0
C857 C 0.80955 0.51043 0.75535 0.0
C858 C 0.74118 0.50914 0.75075 0.0
C859 C 0.72486 0.49178 0.73735 0.0
C860 C 0.67833 0.4798 0.75279 0.0
C861 C 0.69395 0.49567 0.7121 0.0
C862 C 0.79475 0.4836 0.73505 0.0
C863 C 0.8429 0.49464 0.74542 0.0
C864 C 0.91107 0.49 0.7455 0.0
C865 C 0.93039 0.47342 0.73523 0.0
C866 C 0.88167 0.46162 0.72514 0.0
C867 C 0.81309 0.46698 0.7248 0.0
H868 H 0.66515 0.04078 0.02373 0.0
H869 H 0.53681 0.06097 0.96545 0.0
H870 H 0.46357 0.03439 0.9696 0.0
H871 H 0.65394 0.99378 0.00792 0.0
H872 H 0.65175 0.98623 0.0392 0.0
H873 H 0.69441 1.00684 0.03155 0.0
H874 H 0.62099 0.02418 0.06304 0.0
H875 H 0.57787 1.00362 0.07068 0.0
H876 H 0.53039 0.02307 0.06083 0.0
H877 H 0.40573 1.00512 0.97917 0.0
H878 H 0.36705 0.97545 0.99414 0.0
H879 H 0.53002 0.975 0.04721 0.0
C880 C 0.62182 0.03957 0.01178 0.0
C881 C 0.60694 0.05295 0.99422 0.0
C882 C 0.54931 0.05092 0.97908 0.0
C883 C 0.5073 0.03586 0.98128 0.0
C884 C 0.52312 0.02298 -0.00116 0.0
C885 C 0.57883 0.02468 0.01389 0.0
C886 C 0.58413 0.00894 0.03139 0.0
C887 C 0.64995 0.99832 0.02726 0.0
C888 C 0.57796 0.01534 0.05806 0.0
C889 C 0.5231 0.99808 0.02367 0.0
C890 C 0.48864 1.00637 0.00482 0.0
C891 C 0.43197 0.99856 0.99407 0.0
C892 C 0.41033 0.98172 0.00269 0.0
C893 C 0.445 0.97299 0.02199 0.0
C894 C 0.50171 0.98144 0.03268 0.0
H895 H 0.40088 0.29141 0.2127 0.0
H896 H 0.46131 0.32451 0.27442 0.0
H897 H 0.50423 0.29752 0.29549 0.0
H898 H 0.3439 0.25354 0.24837 0.0
H899 H 0.37405 0.23681 0.22702 0.0
H900 H 0.34919 0.25881 0.21628 0.0
H901 H 0.46642 0.26302 0.1963 0.0
H902 H 0.49135 0.24097 0.20676 0.0
H903 H 0.54134 0.26038 0.21466 0.0
H904 H 0.54164 0.267 0.30988 0.0
H905 H 0.57251 0.23509 0.31631 0.0
H906 H 0.48567 0.22133 0.24591 0.0
C907 C 0.4235 0.29299 0.23061 0.0
C908 C 0.42957 0.31026 0.24152 0.0
C909 C 0.45863 0.31167 0.26511 0.0
C910 C 0.48228 0.29632 0.27744 0.0
C911 C 0.47593 0.27956 0.2661 0.0
C912 C 0.44729 0.27777 0.24321 0.0
C913 C 0.4467 0.25816 0.23513 0.0
C914 C 0.37413 0.25144 0.23149 0.0
C915 C 0.48898 0.25548 0.21184 0.0
C916 C 0.47972 0.24921 0.25703 0.0
C917 C 0.49599 0.26183 0.27469 0.0
C918 C 0.52871 0.25699 0.29625 0.0
C919 C 0.54604 0.23883 0.29973 0.0
C920 C 0.53034 0.22561 0.28188 0.0
C921 C 0.49632 0.23093 0.2603 0.0
H922 H 0.44444 0.77877 0.7028 0.0
H923 H 0.46221 0.8021 0.77516 0.0
H924 H 0.50434 0.77283 0.79104 0.0
H925 H 0.38694 0.73605 0.72032 0.0
H926 H 0.4343 0.7237 0.69764 0.0
H927 H 0.40911 0.74665 0.69183 0.0
H928 H 0.53343 0.75556 0.68392 0.0
H929 H 0.55887 0.73255 0.6892 0.0
H930 H 0.59658 0.75053 0.70666 0.0
H931 H 0.53498 0.73985 0.79933 0.0
H932 H 0.56749 0.70749 0.79812 0.0
H933 H 0.53454 0.70669 0.71983 0.0
C934 C 0.45861 0.77777 0.72188 0.0
C935 C 0.45123 0.79265 0.73775 0.0
C936 C 0.46924 0.79091 0.76265 0.0
C937 C 0.49239 0.7743 0.77184 0.0
C938 C 0.4978 0.75971 0.75577 0.0
C939 C 0.48279 0.76144 0.73119 0.0
C940 C 0.49326 0.74386 0.71761 0.0
C941 C 0.42695 0.73718 0.70619 0.0
C942 C 0.54886 0.74574 0.69821 0.0
C943 C 0.51559 0.73184 0.7384 0.0
C944 C 0.51717 0.74111 0.76035 0.0
C945 C 0.53439 0.73253 0.78219 0.0
C946 C 0.55203 0.71414 0.78141 0.0
C947 C 0.55282 0.70468 0.75892 0.0
C948 C 0.53407 0.71366 0.73726 0.0
H949 H 0.46715 0.54532 0.47577 0.0
H950 H 0.67716 0.52919 0.46931 0.0
H951 H 0.64748 0.4985 0.48286 0.0
H952 H 0.43241 0.52063 0.52992 0.0
H953 H 0.34799 0.51448 0.52105 0.0
H954 H 0.38473 0.53498 0.50966 0.0
H955 H 0.36259 0.52456 0.46514 0.0
H956 H 0.3252 0.50411 0.47638 0.0
H957 H 0.3943 0.50298 0.45505 0.0
H958 H 0.59598 0.46995 0.49818 0.0
H959 H 0.52598 0.44498 0.51302 0.0
H960 H 0.34873 0.47954 0.51016 0.0
C961 C 0.50685 0.53529 0.47687 0.0
C962 C 0.57458 0.53967 0.47132 0.0
C963 C 0.62498 0.52617 0.47335 0.0
C964 C 0.60861 0.5087 0.48108 0.0
C965 C 0.54162 0.50494 0.48678 0.0
C966 C 0.49145 0.5178 0.48467 0.0
C967 C 0.42364 0.51033 0.49243 0.0
C968 C 0.39556 0.52072 0.51458 0.0
C969 C 0.37348 0.5105 0.47097 0.0
C970 C 0.44356 0.49124 0.4993 0.0
C971 C 0.51188 0.48846 0.49586 0.0
C972 C 0.54241 0.47196 0.50088 0.0
C973 C 0.50205 0.45784 0.50935 0.0
C974 C 0.43166 0.46024 0.51281 0.0
C975 C 0.40232 0.47727 0.50785 0.0
H976 H 0.22679 0.09973 0.40667 0.0
H977 H 0.12055 0.15043 0.39556 0.0
H978 H 0.17566 0.15396 0.3558 0.0
H979 H 0.38128 0.11454 0.38267 0.0
H980 H 0.40344 0.09344 0.36828 0.0
H981 H 0.34936 0.09362 0.39464 0.0
H982 H 0.25883 0.07609 0.37011 0.0
H983 H 0.31253 0.0761 0.34353 0.0
H984 H 0.22818 0.08514 0.34161 0.0
H985 H 0.24843 0.15399 0.31964 0.0
H986 H 0.3428 0.15151 0.29049 0.0
H987 H 0.40324 0.10086 0.32349 0.0
C988 C 0.21455 0.11142 0.39568 0.0
C989 C 0.16919 0.12476 0.40429 0.0
C990 C 0.15529 0.14003 0.38952 0.0
C991 C 0.18582 0.1421 0.36672 0.0
C992 C 0.23034 0.12882 0.35878 0.0
C993 C 0.24526 0.11383 0.37279 0.0
C994 C 0.30009 0.10254 0.36082 0.0
C995 C 0.36221 0.10095 0.3776 0.0
C996 C 0.27328 0.08386 0.35359 0.0
C997 C 0.31486 0.11387 0.33839 0.0
C998 C 0.27301 0.1288 0.33742 0.0
C999 C 0.2807 0.14219 0.31984 0.0
C1000 C 0.33425 0.14066 0.30334 0.0
C1001 C 0.37918 0.12584 0.30448 0.0
C1002 C 0.36804 0.11199 0.3217 0.0
H1003 H 0.70304 0.1487 0.34382 0.0
H1004 H 0.67117 0.09148 0.33141 0.0
H1005 H 0.72604 0.08465 0.37063 0.0
H1006 H 0.86596 0.1442 0.36859 0.0
H1007 H 0.85581 0.16221 0.3905 0.0
H1008 H 0.80818 0.1625 0.36254 0.0
H1009 H 0.6977 0.16498 0.38772 0.0
H1010 H 0.74526 0.16425 0.4158 0.0
H1011 H 0.67912 0.14812 0.41039 0.0
H1012 H 0.79002 0.08369 0.4096 0.0
H1013 H 0.87288 0.08849 0.44254 0.0
H1014 H 0.86255 0.14625 0.43006 0.0
C1015 C 0.7073 0.13474 0.34939 0.0
C1016 C 0.68266 0.12065 0.3345 0.0
C1017 C 0.68984 0.10254 0.34239 0.0
C1018 C 0.72021 0.0985 0.36482 0.0
C1019 C 0.743 0.11271 0.37922 0.0
C1020 C 0.73771 0.13045 0.37172 0.0
C1021 C 0.77182 0.14305 0.3896 0.0
C1022 C 0.82883 0.1536 0.37706 0.0
C1023 C 0.72038 0.15585 0.40159 0.0
C1024 C 0.79909 0.12954 0.40786 0.0
C1025 C 0.78055 0.11215 0.40182 0.0
C1026 C 0.8043 0.09726 0.41473 0.0
C1027 C 0.85122 0.10012 0.43348 0.0
C1028 C 0.87429 0.11774 0.43888 0.0
C1029 C 0.8452 0.13265 0.42668 0.0
H1030 H 0.34294 0.14803 0.82253 0.0
H1031 H 0.38094 0.09342 0.79697 0.0
H1032 H 0.47491 0.09068 0.82614 0.0
H1033 H 0.52536 0.15953 0.83736 0.0
H1034 H 0.49968 0.17215 0.864 0.0
H1035 H 0.44571 0.17134 0.83747 0.0
H1036 H 0.34825 0.15973 0.86459 0.0
H1037 H 0.40199 0.16007 0.89105 0.0
H1038 H 0.36027 0.13949 0.88229 0.0
H1039 H 0.54623 0.09136 0.86279 0.0
H1040 H 0.6013 0.09658 0.90244 0.0
H1041 H 0.51988 0.15101 0.90442 0.0
C1042 C 0.37273 0.13576 0.82236 0.0
C1043 C 0.35462 0.12093 0.80751 0.0
C1044 C 0.39393 0.10496 0.80818 0.0
C1045 C 0.44752 0.10329 0.82465 0.0
C1046 C 0.46152 0.11778 0.84004 0.0
C1047 C 0.42629 0.13386 0.83874 0.0
C1048 C 0.44653 0.14658 0.85917 0.0
C1049 C 0.48142 0.16339 0.84888 0.0
C1050 C 0.38563 0.15175 0.87521 0.0
C1051 C 0.49585 0.13473 0.87289 0.0
C1052 C 0.50418 0.11826 0.86134 0.0
C1053 C 0.54164 0.10435 0.87169 0.0
C1054 C 0.57197 0.10739 0.89436 0.0
C1055 C 0.56478 0.12422 0.90641 0.0
C1056 C 0.52683 0.13812 0.8954 0.0
H1057 H 0.02257 0.14127 0.84055 0.0
H1058 H 0.05574 0.08354 0.83362 0.0
H1059 H -0.00377 0.07875 0.87265 0.0
H1060 H 0.04383 0.14407 0.90608 0.0
H1061 H 0.97799 0.16067 0.9099 0.0
H1062 H 0.02515 0.1597 0.88179 0.0
H1063 H 0.9144 0.15618 0.85699 0.0
H1064 H 0.86704 0.15758 0.88495 0.0
H1065 H 0.85644 0.13847 0.86489 0.0
H1066 H 0.93084 0.08023 0.91212 0.0
H1067 H 0.85241 0.08748 0.94574 0.0
H1068 H 0.86432 0.14426 0.92699 0.0
C1069 C 0.01731 0.12759 0.84716 0.0
C1070 C 0.04406 0.11279 0.83397 0.0
C1071 C 0.03562 0.09512 0.84331 0.0
C1072 C 0.00243 0.09226 0.8656 0.0
C1073 C 0.97807 0.1072 0.87837 0.0
C1074 C 0.98442 0.12449 0.86933 0.0
C1075 C 0.95077 0.13817 0.88593 0.0
C1076 C 0.00255 0.15143 0.89655 0.0
C1077 C 0.89378 0.14818 0.87239 0.0
C1078 C 0.9234 0.12584 0.90552 0.0
C1079 C 0.94046 0.10805 0.90105 0.0
C1080 C 0.91753 0.09413 0.9159 0.0
C1081 C 0.87329 0.09841 0.9351 0.0
C1082 C 0.85201 0.11645 0.93911 0.0
C1083 C 0.87995 0.13035 0.92469 0.0
H1084 H 0.53846 0.86631 0.6683 0.0
H1085 H 0.52518 0.92324 0.68638 0.0
H1086 H 0.60567 0.93009 0.65327 0.0
H1087 H 0.71852 0.86578 0.64942 0.0
H1088 H 0.70199 0.84999 0.62505 0.0
H1089 H 0.65183 0.8495 0.65248 0.0
H1090 H 0.54371 0.85282 0.6262 0.0
H1091 H 0.5935 0.85374 0.59877 0.0
H1092 H 0.53539 0.87177 0.60581 0.0
H1093 H 0.67865 0.93096 0.61539 0.0
H1094 H 0.74322 0.92556 0.57741 0.0
H1095 H 0.70402 0.86817 0.58363 0.0
C1096 C 0.55418 0.88016 0.66591 0.0
C1097 C 0.52593 0.89422 0.68013 0.0
C1098 C 0.54654 0.91223 0.67586 0.0
C1099 C 0.59209 0.91625 0.65704 0.0
C1100 C 0.61653 0.90214 0.64265 0.0
C1101 C 0.59887 0.88443 0.64706 0.0
C1102 C 0.62791 0.87188 0.62787 0.0
C1103 C 0.67806 0.8585 0.6394 0.0
C1104 C 0.57177 0.86198 0.61384 0.0
C1105 C 0.66351 0.88533 0.6117 0.0
C1106 C 0.65695 0.90269 0.62059 0.0
C1107 C 0.68459 0.91739 0.60838 0.0
C1108 C 0.72085 0.9142 0.58673 0.0
C1109 C 0.72859 0.89646 0.57741 0.0
C1110 C 0.69893 0.88192 0.59011 0.0
H1111 H 0.21189 0.90187 0.65073 0.0
H1112 H 0.23224 0.84415 0.66208 0.0
H1113 H 0.16873 0.83855 0.62396 0.0
H1114 H 0.04484 0.90127 0.62777 0.0
H1115 H 0.05926 0.91899 0.60592 0.0
H1116 H 0.10818 0.91812 0.63359 0.0
H1117 H 0.21789 0.918 0.6078 0.0
H1118 H 0.16903 0.91851 0.58001 0.0
H1119 H 0.23023 0.90082 0.58484 0.0
H1120 H 0.09799 0.83935 0.58578 0.0
H1121 H 0.01912 0.84652 0.55217 0.0
H1122 H 0.05032 0.90366 0.56521 0.0
C1123 C 0.20286 0.88803 0.6453 0.0
C1124 C 0.22683 0.87345 0.65944 0.0
C1125 C 0.21423 0.85555 0.65156 0.0
C1126 C 0.17863 0.85223 0.62986 0.0
C1127 C 0.1567 0.86694 0.61617 0.0
C1128 C 0.16812 0.88448 0.62364 0.0
C1129 C 0.13727 0.89793 0.60614 0.0
C1130 C 0.08423 0.90976 0.61913 0.0
C1131 C 0.19188 0.90949 0.59398 0.0
C1132 C 0.10515 0.88521 0.58795 0.0
C1133 C 0.11742 0.86739 0.59389 0.0
C1134 C 0.08871 0.85325 0.58075 0.0
C1135 C 0.04416 0.85745 0.56165 0.0
C1136 C 0.02891 0.87564 0.55595 0.0
C1137 C 0.06186 0.88962 0.56876 0.0
H1138 H 0.75541 0.88008 0.14828 0.0
H1139 H 0.80314 0.93714 0.1461 0.0
H1140 H 0.75 0.9395 0.10559 0.0
H1141 H 0.77398 0.87103 0.08148 0.0
H1142 H 0.70289 0.85597 0.08107 0.0
H1143 H 0.75411 0.85792 0.1082 0.0
H1144 H 0.64815 0.866 0.13383 0.0
H1145 H 0.59685 0.86373 0.10693 0.0
H1146 H 0.59489 0.88444 0.12424 0.0
H1147 H 0.68196 0.93674 0.06811 0.0
H1148 H 0.59123 0.92987 0.03884 0.0
H1149 H 0.58682 0.87462 0.0648 0.0
C1150 C 0.75559 0.89299 0.13907 0.0
C1151 C 0.78351 0.9084 0.1503 0.0
C1152 C 0.78177 0.92515 0.13791 0.0
C1153 C 0.75253 0.92659 0.11473 0.0
C1154 C 0.7254 0.91116 0.10415 0.0
C1155 C 0.72607 0.8947 0.11598 0.0
C1156 C 0.686 0.88077 0.10197 0.0
C1157 C 0.73202 0.86552 0.09263 0.0
C1158 C 0.62804 0.87332 0.11767 0.0
C1159 C 0.66006 0.89221 0.08107 0.0
C1160 C 0.68501 0.90957 0.08232 0.0
C1161 C 0.66294 0.92312 0.06662 0.0
C1162 C 0.6114 0.91909 0.05004 0.0
C1163 C 0.58219 0.9017 0.04953 0.0
C1164 C 0.60921 0.88791 0.0644 0.0
H1165 H 0.05503 0.92985 0.16662 0.0
H1166 H 0.11253 0.88173 0.20648 0.0
H1167 H 0.20533 0.87634 0.1774 0.0
H1168 H 0.07238 0.91211 0.11025 0.0
H1169 H 0.10651 0.93159 0.09508 0.0
H1170 H 0.05461 0.93444 0.12175 0.0
H1171 H 0.14915 0.95235 0.14347 0.0
H1172 H 0.20097 0.95002 0.11657 0.0
H1173 H 0.23247 0.94269 0.14584 0.0
H1174 H 0.27489 0.87264 0.14027 0.0
H1175 H 0.32873 0.87299 0.09977 0.0
H1176 H 0.22886 0.92377 0.08333 0.0
C1177 C 0.08952 0.91876 0.16995 0.0
C1178 C 0.07739 0.90635 0.18901 0.0
C1179 C 0.12162 0.89151 0.19219 0.0
C1180 C 0.17428 0.88831 0.1757 0.0
C1181 C 0.18232 0.90013 0.1562 0.0
C1182 C 0.14226 0.91531 0.15349 0.0
C1183 C 0.15715 0.92474 0.12949 0.0
C1184 C 0.0939 0.92577 0.1132 0.0
C1185 C 0.18672 0.94357 0.13412 0.0
C1186 C 0.20961 0.91207 0.11874 0.0
C1187 C 0.2235 0.89804 0.13455 0.0
C1188 C 0.26572 0.88379 0.12796 0.0
C1189 C 0.29549 0.88402 0.10478 0.0
C1190 C 0.28327 0.89844 0.08838 0.0
C1191 C 0.23985 0.91268 0.09557 0.0
H1192 H 0.29676 0.64255 0.9101 0.0
H1193 H 0.27318 0.58692 0.93303 0.0
H1194 H 0.34329 0.57693 0.89812 0.0
H1195 H 0.28559 0.63405 0.84587 0.0
H1196 H 0.34715 0.65085 0.83794 0.0
H1197 H 0.29664 0.65363 0.86504 0.0
H1198 H 0.40471 0.65649 0.89149 0.0
H1199 H 0.4554 0.65405 0.86441 0.0
H1200 H 0.46826 0.63907 0.8899 0.0
H1201 H 0.41806 0.57324 0.86073 0.0
H1202 H 0.49435 0.57633 0.82524 0.0
H1203 H 0.46255 0.63429 0.8264 0.0
C1204 C 0.3068 0.62826 0.90801 0.0
C1205 C 0.27977 0.61553 0.92443 0.0
C1206 C 0.29355 0.59694 0.92075 0.0
C1207 C 0.33305 0.59113 0.90092 0.0
C1208 C 0.35776 0.60406 0.88483 0.0
C1209 C 0.34524 0.62224 0.88823 0.0
C1210 C 0.37722 0.63346 0.86838 0.0
C1211 C 0.32342 0.64359 0.85343 0.0
C1212 C 0.42951 0.64653 0.87919 0.0
C1213 C 0.41046 0.61878 0.85338 0.0
C1214 C 0.3987 0.6019 0.86307 0.0
C1215 C 0.42715 0.58638 0.85288 0.0
C1216 C 0.47021 0.58826 0.83267 0.0
C1217 C 0.48404 0.60552 0.82285 0.0
C1218 C 0.45226 0.62086 0.8331 0.0
H1219 H 0.8043 0.60224 0.84024 0.0
H1220 H 0.76882 0.65857 0.82256 0.0
H1221 H 0.83276 0.66755 0.85955 0.0
H1222 H 0.7828 0.60681 0.90455 0.0
H1223 H 0.84724 0.59047 0.91187 0.0
H1224 H 0.80083 0.58857 0.88367 0.0
H1225 H 0.91236 0.58879 0.85891 0.0
H1226 H 0.95906 0.59024 0.88705 0.0
H1227 H 0.97152 0.60688 0.86354 0.0
H1228 H 0.90254 0.67002 0.89826 0.0
H1229 H 0.97776 0.66587 0.9339 0.0
H1230 H 0.95911 0.60781 0.92659 0.0
C1231 C 0.81048 0.61651 0.84385 0.0
C1232 C 0.78194 0.62973 0.82841 0.0
C1233 C 0.79067 0.64822 0.83408 0.0
C1234 C 0.82641 0.65343 0.8551 0.0
C1235 C 0.85215 0.63996 0.87027 0.0
C1236 C 0.84476 0.62189 0.86478 0.0
C1237 C 0.87679 0.60996 0.88389 0.0
C1238 C 0.82373 0.59827 0.89675 0.0
C1239 C 0.93329 0.59829 0.87268 0.0
C1240 C 0.90456 0.62413 0.90091 0.0
C1241 C 0.88973 0.64136 0.89285 0.0
C1242 C 0.91387 0.6566 0.90487 0.0
C1243 C 0.95628 0.65411 0.92511 0.0
C1244 C 0.97365 0.63652 0.93309 0.0
C1245 C 0.94558 0.62142 0.92126 0.0
H1246 H 0.20356 0.6095 0.34949 0.0
H1247 H 0.18462 0.66773 0.34456 0.0
H1248 H 0.24402 0.67082 0.38409 0.0
H1249 H 0.18503 0.60637 0.41678 0.0
H1250 H 0.24619 0.58838 0.41867 0.0
H1251 H 0.19447 0.59072 0.39173 0.0
H1252 H 0.3016 0.59201 0.36459 0.0
H1253 H 0.35322 0.58938 0.39133 0.0
H1254 H 0.36586 0.6084 0.37144 0.0
H1255 H 0.31715 0.66758 0.42124 0.0
H1256 H 0.40469 0.65848 0.45084 0.0
H1257 H 0.37126 0.60233 0.4319 0.0
C1258 C 0.21119 0.62292 0.35678 0.0
C1259 C 0.18969 0.63837 0.34392 0.0
C1260 C 0.20072 0.65569 0.35413 0.0
C1261 C 0.23384 0.65757 0.37665 0.0
C1262 C 0.25448 0.642 0.38884 0.0
C1263 C 0.24346 0.62502 0.37922 0.0
C1264 C 0.27579 0.6105 0.39462 0.0
C1265 C 0.22215 0.59827 0.40613 0.0
C1266 C 0.32717 0.59944 0.37961 0.0
C1267 C 0.30989 0.62201 0.41375 0.0
C1268 C 0.29586 0.64013 0.41047 0.0
C1269 C 0.32752 0.65342 0.42431 0.0
C1270 C 0.37715 0.64811 0.44111 0.0
C1271 C 0.39492 0.62968 0.44365 0.0
C1272 C 0.35831 0.61649 0.43065 0.0
H1273 H 0.75426 0.59732 0.41116 0.0
H1274 H 0.63453 0.64534 0.39766 0.0
H1275 H 0.68592 0.64829 0.35685 0.0
H1276 H 0.9029 0.61498 0.38556 0.0
H1277 H 0.93225 0.59391 0.37287 0.0
H1278 H 0.87849 0.59392 0.39931 0.0
H1279 H 0.79464 0.57312 0.37641 0.0
H1280 H 0.84785 0.57335 0.3497 0.0
H1281 H 0.76067 0.58011 0.34734 0.0
H1282 H 0.75366 0.64747 0.31921 0.0
H1283 H 0.84792 0.64627 0.29004 0.0
H1284 H 0.93061 0.59989 0.32805 0.0
C1285 C 0.73848 0.60827 0.39937 0.0
C1286 C 0.69028 0.62106 0.40734 0.0
C1287 C 0.67162 0.63546 0.39181 0.0
C1288 C 0.69986 0.63711 0.36852 0.0
C1289 C 0.74734 0.62435 0.3611 0.0
C1290 C 0.76765 0.6104 0.37618 0.0
C1291 C 0.82617 0.60005 0.36495 0.0
C1292 C 0.88864 0.60077 0.38166 0.0
C1293 C 0.80611 0.58049 0.35926 0.0
C1294 C 0.83669 0.61072 0.3416 0.0
C1295 C 0.78917 0.62432 0.33948 0.0
C1296 C 0.79082 0.63678 0.32051 0.0
C1297 C 0.8445 0.63597 0.30398 0.0
C1298 C 0.89639 0.62295 0.30671 0.0
C1299 C 0.89079 0.6097 0.32514 0.0
H1300 H 0.54601 0.42928 0.16988 0.0
H1301 H 0.58946 0.37811 0.20484 0.0
H1302 H 0.67919 0.37217 0.17477 0.0
H1303 H 0.55671 0.41434 0.1118 0.0
H1304 H 0.59682 0.43374 0.09849 0.0
H1305 H 0.54634 0.43629 0.12557 0.0
H1306 H 0.6466 0.45073 0.14866 0.0
H1307 H 0.69712 0.44872 0.1214 0.0
H1308 H 0.72656 0.4391 0.14971 0.0
H1309 H 0.746 0.36881 0.13683 0.0
H1310 H 0.79999 0.3703 0.09638 0.0
H1311 H 0.71681 0.42398 0.08572 0.0
C1312 C 0.57688 0.4173 0.17197 0.0
C1313 C 0.56136 0.40424 0.18987 0.0
C1314 C 0.601 0.38836 0.19142 0.0
C1315 C 0.65191 0.38483 0.17435 0.0
C1316 C 0.66302 0.3974 0.15594 0.0
C1317 C 0.62794 0.41354 0.15494 0.0
C1318 C 0.6455 0.4239 0.13191 0.0
C1319 C 0.58259 0.42725 0.11601 0.0
C1320 C 0.68108 0.44167 0.13831 0.0
C1321 C 0.69355 0.4107 0.11972 0.0
C1322 C 0.70299 0.39554 0.13397 0.0
C1323 C 0.74042 0.3808 0.12577 0.0
C1324 C 0.77026 0.3817 0.10262 0.0
C1325 C 0.76293 0.39729 0.08791 0.0
C1326 C 0.72401 0.41197 0.09666 0.0
H1327 H 0.05646 0.37471 0.06737 0.0
H1328 H 0.08579 0.42895 0.03994 0.0
H1329 H 0.18036 0.43308 0.06863 0.0
H1330 H 0.07092 0.38514 0.12628 0.0
H1331 H 0.1151 0.36523 0.13645 0.0
H1332 H 0.06271 0.36422 0.10968 0.0
H1333 H 0.16305 0.35253 0.08379 0.0
H1334 H 0.21574 0.35302 0.11067 0.0
H1335 H 0.24101 0.36494 0.08353 0.0
H1336 H 0.2523 0.43386 0.1051 0.0
H1337 H 0.30546 0.43051 0.14539 0.0
H1338 H 0.22975 0.37575 0.15029 0.0
C1339 C 0.08501 0.38711 0.06656 0.0
C1340 C 0.0644 0.40146 0.05131 0.0
C1341 C 0.10124 0.41775 0.05136 0.0
C1342 C 0.15504 0.4202 0.06757 0.0
C1343 C 0.1714 0.4062 0.08346 0.0
C1344 C 0.13833 0.38983 0.08285 0.0
C1345 C 0.15932 0.37797 0.10411 0.0
C1346 C 0.09838 0.37286 0.12006 0.0
C1347 C 0.19705 0.36111 0.09498 0.0
C1348 C 0.20632 0.39063 0.1175 0.0
C1349 C 0.21332 0.40671 0.10501 0.0
C1350 C 0.24866 0.42119 0.11476 0.0
C1351 C 0.27798 0.4192 0.13782 0.0
C1352 C 0.27169 0.40284 0.15099 0.0
C1353 C 0.23603 0.38832 0.14051 0.0
H1354 H 0.72716 0.40303 0.65333 0.0
H1355 H 0.7724 0.34587 0.66016 0.0
H1356 H 0.71433 0.34007 0.62112 0.0
H1357 H 0.56169 0.3974 0.62923 0.0
H1358 H 0.56722 0.41654 0.60909 0.0
H1359 H 0.61547 0.41612 0.63695 0.0
H1360 H 0.72459 0.42136 0.61189 0.0
H1361 H 0.67662 0.42139 0.58389 0.0
H1362 H 0.74632 0.40595 0.58758 0.0
H1363 H 0.65004 0.34028 0.58192 0.0
H1364 H 0.56986 0.34589 0.54833 0.0
H1365 H 0.56624 0.40285 0.56709 0.0
C1366 C 0.72483 0.38928 0.64665 0.0
C1367 C 0.75456 0.37493 0.65979 0.0
C1368 C 0.7499 0.35711 0.65048 0.0
C1369 C 0.71763 0.35368 0.62818 0.0
C1370 C 0.69022 0.36819 0.61545 0.0
C1371 C 0.69258 0.38559 0.62449 0.0
C1372 C 0.65537 0.39859 0.60797 0.0
C1373 C 0.59644 0.40768 0.62162 0.0
C1374 C 0.70363 0.41265 0.5972 0.0
C1375 C 0.63058 0.3857 0.58848 0.0
C1376 C 0.65229 0.36829 0.59291 0.0
C1377 C 0.63295 0.35388 0.57816 0.0
C1378 C 0.58759 0.35722 0.55905 0.0
C1379 C 0.5616 0.37481 0.55507 0.0
C1380 C 0.58563 0.38929 0.56944 0.0
H1381 H 0.04567 0.40992 0.66426 0.0
H1382 H 0.08811 0.35726 0.69545 0.0
H1383 H 0.17419 0.35192 0.6639 0.0
H1384 H 0.05414 0.39724 0.60409 0.0
H1385 H 0.09532 0.41713 0.59265 0.0
H1386 H 0.04441 0.4185 0.6198 0.0
H1387 H 0.14498 0.43153 0.64423 0.0
H1388 H 0.19598 0.43061 0.617 0.0
H1389 H 0.22433 0.41958 0.64449 0.0
H1390 H 0.23988 0.34993 0.62584 0.0
H1391 H 0.29636 0.35312 0.5862 0.0
H1392 H 0.21722 0.4076 0.57948 0.0
C1393 C 0.07487 0.39756 0.66502 0.0
C1394 C 0.06008 0.384 0.68238 0.0
C1395 C 0.09846 0.36785 0.68239 0.0
C1396 C 0.14744 0.36466 0.66449 0.0
C1397 C 0.15817 0.37785 0.64689 0.0
C1398 C 0.12432 0.39417 0.64726 0.0
C1399 C 0.14291 0.40553 0.62521 0.0
C1400 C 0.08047 0.40984 0.60952 0.0
C1401 C 0.17923 0.42284 0.63322 0.0
C1402 C 0.19054 0.39275 0.61201 0.0
C1403 C 0.19831 0.37688 0.62492 0.0
C1404 C 0.23544 0.36243 0.61579 0.0
C1405 C 0.26673 0.36433 0.59308 0.0
C1406 C 0.26138 0.38064 0.57971 0.0
C1407 C 0.22272 0.39505 0.58937 0.0
H1408 H 0.07542 0.11076 0.67415 0.0
H1409 H 0.23381 0.14995 0.68586 0.0
H1410 H 0.24445 0.15405 0.64117 0.0
H1411 H 0.15043 0.08987 0.62106 0.0
H1412 H 0.07092 0.08621 0.60588 0.0
H1413 H 0.07487 0.08666 0.63878 0.0
H1414 H 0.984 0.1119 0.63982 0.0
H1415 H 0.97952 0.11146 0.60695 0.0
H1416 H -0.00269 0.1323 0.62266 0.0
H1417 H 0.2368 0.15406 0.59538 0.0
H1418 H 0.21131 0.14988 0.55138 0.0
H1419 H 0.06071 0.10996 0.56961 0.0
C1420 C 0.11222 0.1202 0.66721 0.0
C1421 C 0.15325 0.13023 0.68324 0.0
C1422 C 0.20111 0.14242 0.67372 0.0
C1423 C 0.20781 0.14473 0.64844 0.0
C1424 C 0.16665 0.1346 0.63304 0.0
C1425 C 0.11989 0.12255 0.64204 0.0
C1426 C 0.08217 0.11323 0.62157 0.0
C1427 C 0.09541 0.09278 0.62185 0.0
C1428 C 0.00626 0.11748 0.62283 0.0
C1429 C 0.11466 0.12203 0.59966 0.0
C1430 C 0.16329 0.13431 0.60667 0.0
C1431 C 0.19909 0.14442 0.58966 0.0
C1432 C 0.18436 0.14199 0.56481 0.0
C1433 C 0.13456 0.12955 0.55737 0.0
C1434 C 0.0997 0.11937 0.57497 0.0
H1435 H 0.81014 0.91713 0.42077 0.0
H1436 H 0.79314 0.85877 0.4248 0.0
H1437 H 0.76368 0.85778 0.38168 0.0
H1438 H 0.70299 0.92773 0.36889 0.0
H1439 H 0.76424 0.94222 0.35471 0.0
H1440 H 0.76236 0.93997 0.38752 0.0
H1441 H 0.88816 0.93031 0.38773 0.0
H1442 H 0.89064 0.93294 0.35507 0.0
H1443 H 0.91499 0.91176 0.36867 0.0
H1444 H 0.73383 0.86315 0.33788 0.0
H1445 H 0.7491 0.87132 0.29473 0.0
H1446 H 0.83269 0.92287 0.31695 0.0
C1447 C 0.80115 0.90402 0.41295 0.0
C1448 C 0.80038 0.88814 0.42731 0.0
C1449 C 0.78817 0.87144 0.41538 0.0
C1450 C 0.77227 0.87065 0.39051 0.0
C1451 C 0.77326 0.88653 0.37715 0.0
C1452 C 0.79122 0.90274 0.38766 0.0
C1453 C 0.80586 0.91677 0.36826 0.0
C1454 C 0.75586 0.93261 0.36996 0.0
C1455 C 0.87927 0.92332 0.37003 0.0
C1456 C 0.79401 0.90574 0.34528 0.0
C1457 C 0.77124 0.88871 0.351 0.0
C1458 C 0.75369 0.87624 0.33312 0.0
C1459 C 0.76342 0.88094 0.30867 0.0
C1460 C 0.79512 0.89737 0.30239 0.0
C1461 C 0.8084 0.91019 0.32097 0.0
H1462 H 0.18289 0.61224 0.07763 0.0
H1463 H 0.1698 0.67005 0.06555 0.0
H1464 H 0.192 0.67531 0.10901 0.0
H1465 H 0.0727 0.61624 0.12811 0.0
H1466 H 0.1087 0.59742 0.14443 0.0
H1467 H 0.11237 0.598 0.1116 0.0
H1468 H 0.24233 0.59422 0.11378 0.0
H1469 H 0.23898 0.59404 0.14671 0.0
H1470 H 0.29151 0.61013 0.13117 0.0
H1471 H 0.21624 0.67427 0.15393 0.0
H1472 H 0.20142 0.66823 0.19781 0.0
H1473 H 0.15681 0.61224 0.18126 0.0
C1474 C 0.18393 0.62605 0.08388 0.0
C1475 C 0.17728 0.64071 0.06756 0.0
C1476 C 0.17937 0.65851 0.07706 0.0
C1477 C 0.19135 0.66168 0.1019 0.0
C1478 C 0.19751 0.64691 0.11735 0.0
C1479 C 0.19064 0.62947 0.10888 0.0
C1480 C 0.18329 0.61628 0.1298 0.0
C1481 C 0.11522 0.60642 0.1284 0.0
C1482 C 0.24258 0.60288 0.13039 0.0
C1483 C 0.18606 0.62915 0.15131 0.0
C1484 C 0.19811 0.64657 0.14369 0.0
C1485 C 0.20499 0.66077 0.16011 0.0
C1486 C 0.19564 0.65723 0.18495 0.0
C1487 C 0.17507 0.63995 0.19292 0.0
C1488 C 0.17256 0.6256 0.17591 0.0
H1489 H 0.89623 0.38493 0.92557 0.0
H1490 H 0.71931 0.41856 0.93584 0.0
H1491 H 0.70019 0.41877 0.89099 0.0
H1492 H 0.95464 0.40593 0.87108 0.0
H1493 H 0.98386 0.3852 0.85736 0.0
H1494 H 0.98191 0.38747 0.89012 0.0
H1495 H 0.90784 0.35884 0.89313 0.0
H1496 H 0.90938 0.35651 0.86034 0.0
H1497 H 0.82989 0.35775 0.87621 0.0
H1498 H 0.70149 0.41521 0.84497 0.0
H1499 H 0.72547 0.40921 0.80123 0.0
H1500 H 0.90234 0.37819 0.82161 0.0
C1501 C 0.8532 0.39221 0.91832 0.0
C1502 C 0.80895 0.40169 0.93392 0.0
C1503 C 0.75372 0.4113 0.92397 0.0
C1504 C 0.74241 0.4114 0.89863 0.0
C1505 C 0.78695 0.40182 0.88368 0.0
C1506 C 0.84136 0.39245 0.89318 0.0
C1507 C 0.8827 0.38359 0.87324 0.0
C1508 C 0.95504 0.391 0.87294 0.0
C1509 C 0.8824 0.36295 0.8759 0.0
C1510 C 0.8434 0.38953 0.85097 0.0
C1511 C 0.78809 0.39994 0.85734 0.0
C1512 C 0.74468 0.4071 0.83979 0.0
C1513 C 0.75869 0.40368 0.81507 0.0
C1514 C 0.8158 0.39335 0.80827 0.0
C1515 C 0.85813 0.38605 0.82645 0.0
H1516 H 0.6799 0.12712 0.17469 0.0
H1517 H 0.50797 0.16216 0.18724 0.0
H1518 H 0.49509 0.16646 0.14261 0.0
H1519 H 0.7475 0.15166 0.12185 0.0
H1520 H 0.77342 0.13125 0.1065 0.0
H1521 H 0.77157 0.13212 0.13941 0.0
H1522 H 0.69325 0.10422 0.13996 0.0
H1523 H 0.69425 0.10337 0.10707 0.0
H1524 H 0.61508 0.10482 0.12312 0.0
H1525 H 0.49462 0.16444 0.09666 0.0
H1526 H 0.51225 0.15812 0.05262 0.0
H1527 H 0.68739 0.12552 0.07032 0.0
C1528 C 0.64034 0.13591 0.16794 0.0
C1529 C 0.59516 0.14443 0.18413 0.0
C1530 C 0.54353 0.15575 0.17493 0.0
C1531 C 0.53567 0.15818 0.14969 0.0
C1532 C 0.58029 0.14929 0.13408 0.0
C1533 C 0.63214 0.13856 0.14285 0.0
C1534 C 0.67205 0.13012 0.12223 0.0
C1535 C 0.74548 0.13669 0.12252 0.0
C1536 C 0.6684 0.10941 0.12316 0.0
C1537 C 0.63388 0.13752 0.1005 0.0
C1538 C 0.58104 0.14852 0.10767 0.0
C1539 C 0.53666 0.15615 0.09079 0.0
C1540 C 0.54713 0.15258 0.06589 0.0
C1541 C 0.60179 0.14165 0.05827 0.0
C1542 C 0.64546 0.13403 0.07579 0.0
H1543 H 0.37511 0.90439 0.81658 0.0
H1544 H 0.22825 0.86169 0.80858 0.0
H1545 H 0.21104 0.86147 0.85344 0.0
H1546 H 0.45119 0.8882 0.8706 0.0
H1547 H 0.46404 0.91015 0.88402 0.0
H1548 H 0.46128 0.90768 0.8513 0.0
H1549 H 0.36537 0.93148 0.84904 0.0
H1550 H 0.36774 0.93399 0.88182 0.0
H1551 H 0.28978 0.92827 0.86675 0.0
H1552 H 0.21562 0.86457 0.89895 0.0
H1553 H 0.242 0.87059 0.9424 0.0
H1554 H 0.3842 0.91179 0.92087 0.0
C1555 C 0.33873 0.89519 0.82435 0.0
C1556 C 0.30296 0.88301 0.80938 0.0
C1557 C 0.25631 0.87099 0.81996 0.0
C1558 C 0.246 0.87087 0.84531 0.0
C1559 C 0.28244 0.88297 0.85966 0.0
C1560 C 0.32774 0.89495 0.84959 0.0
C1561 C 0.36259 0.906 0.86917 0.0
C1562 C 0.43931 0.90281 0.86874 0.0
C1563 C 0.34532 0.92613 0.86653 0.0
C1564 C 0.33084 0.89811 0.89188 0.0
C1565 C 0.28441 0.88493 0.88596 0.0
C1566 C 0.25119 0.87501 0.90381 0.0
C1567 C 0.26651 0.87848 0.92837 0.0
C1568 C 0.31444 0.89175 0.93478 0.0
C1569 C 0.34626 0.90186 0.91635 0.0
H1570 H 0.6219 0.6302 0.57153 0.0
H1571 H 0.66664 0.57426 0.554 0.0
H1572 H 0.67479 0.56747 0.59801 0.0
H1573 H 0.75189 0.63177 0.62006 0.0
H1574 H 0.70361 0.64776 0.6378 0.0
H1575 H 0.69731 0.64774 0.60494 0.0
H1576 H 0.5677 0.64424 0.6085 0.0
H1577 H 0.57366 0.64379 0.64132 0.0
H1578 H 0.53366 0.62547 0.62527 0.0
H1579 H 0.66026 0.56653 0.6441 0.0
H1580 H 0.65267 0.5723 0.68827 0.0
H1581 H 0.65444 0.62995 0.67445 0.0
C1582 C 0.63577 0.61663 0.57663 0.0
C1583 C 0.64209 0.60271 0.55912 0.0
C1584 C 0.65858 0.58504 0.56703 0.0
C1585 C 0.66413 0.58107 0.59199 0.0
C1586 C 0.65647 0.59512 0.60868 0.0
C1587 C 0.64552 0.61266 0.60126 0.0
C1588 C 0.64411 0.62553 0.62272 0.0
C1589 C 0.70274 0.63899 0.6213 0.0
C1590 C 0.57571 0.63533 0.62454 0.0
C1591 C 0.65366 0.61237 0.64346 0.0
C1592 C 0.65889 0.59485 0.63505 0.0
C1593 C 0.65944 0.58024 0.65093 0.0
C1594 C 0.65596 0.58369 0.67609 0.0
C1595 C 0.65511 0.60163 0.68519 0.0
C1596 C 0.65442 0.61608 0.66845 0.0
H1597 H 0.38456 0.41202 0.31534 0.0
H1598 H 0.19514 0.3851 0.301 0.0
H1599 H 0.17835 0.38084 0.34552 0.0
H1600 H 0.43896 0.38435 0.36265 0.0
H1601 H 0.47647 0.40204 0.3807 0.0
H1602 H 0.47016 0.40443 0.34806 0.0
H1603 H 0.4052 0.43458 0.35354 0.0
H1604 H 0.41169 0.43235 0.38627 0.0
H1605 H 0.33021 0.43518 0.37212 0.0
H1606 H 0.18869 0.37689 0.39099 0.0
H1607 H 0.22268 0.37475 0.4345 0.0
H1608 H 0.40332 0.40527 0.41903 0.0
C1609 C 0.33889 0.4056 0.3217 0.0
C1610 C 0.29106 0.39882 0.30503 0.0
C1611 C 0.23235 0.39024 0.31371 0.0
C1612 C 0.22236 0.38786 0.33887 0.0
C1613 C 0.27127 0.39438 0.35491 0.0
C1614 C 0.32801 0.40326 0.34668 0.0
C1615 C 0.37452 0.40822 0.36755 0.0
C1616 C 0.44411 0.39922 0.36455 0.0
C1617 C 0.38074 0.42881 0.37001 0.0
C1618 C 0.33607 0.4003 0.38878 0.0
C1619 C 0.27648 0.39245 0.38114 0.0
C1620 C 0.23459 0.38325 0.39725 0.0
C1621 C 0.25429 0.38204 0.4218 0.0
C1622 C 0.31502 0.39001 0.42986 0.0
C1623 C 0.35602 0.39937 0.41323 0.0
loop_
_geom_bond_atom_site_label_1
_geom_bond_atom_site_label_2
_geom_bond_distance
_geom_bond_site_symmetry_2
_ccdc_geom_bond_type
Co0 O3 1.970 . S
Co0 N17 1.989 . S
Co0 O25 1.967 . S
Co0 O32 1.920 . S
Co1 O4 1.966 . S
Co1 N10 2.022 . S
Co1 N18 1.993 . S
Co1 O26 1.941 . S
C2 O3 1.258 . S
C2 O4 1.263 . S
O3 Co0 1.970 . S
O3 C2 1.258 . S
O4 Co1 1.966 . S
O4 C2 1.263 . S
C5 O6 1.235 . S
C5 O32 1.289 . S
O6 C5 1.235 . S
C7 C9 1.400 . S
C7 N10 1.351 . S
C7 C12 1.501 . S
C8 C9 1.387 . S
C8 N11 1.341 . S
C9 C7 1.400 . S
C9 C8 1.387 . S
N10 Co1 2.022 . S
N10 C7 1.351 . S
N10 N11 1.365 . S
N11 C8 1.341 . S
N11 N10 1.365 . S
N11 H31 0.862 . S
C12 C7 1.501 . S
C12 H13 0.961 . S
C12 H14 0.961 . S
C12 H15 0.960 . S
H13 C12 0.961 . S
H14 C12 0.961 . S
H15 C12 0.960 . S
C16 N17 1.342 . S
C16 C20 1.401 . S
C16 C21 1.499 . S
N17 Co0 1.989 . S
N17 C16 1.342 . S
N17 N18 1.388 . S
N18 Co1 1.993 . S
N18 N17 1.388 . S
N18 C19 1.346 . S
C19 N18 1.346 . S
C19 C20 1.396 . S
C19 C29 1.510 . S
C20 C16 1.401 . S
C20 C19 1.396 . S
C21 C16 1.499 . S
C21 H22 0.959 . S
C21 H23 0.960 . S
C21 H24 0.961 . S
H22 C21 0.959 . S
H23 C21 0.960 . S
H24 C21 0.961 . S
O25 Co0 1.967 . S
O25 C33 1.258 . S
O26 Co1 1.941 . S
O26 C33 1.266 . S
H27 C29 0.959 . S
H28 C29 0.961 . S
C29 C19 1.510 . S
C29 H27 0.959 . S
C29 H28 0.961 . S
C29 H30 0.960 . S
H30 C29 0.960 . S
H31 N11 0.862 . S
O32 Co0 1.920 . S
O32 C5 1.289 . S
C33 O25 1.258 . S
C33 O26 1.266 . S
Co34 O37 1.970 . S
Co34 N51 1.989 . S
Co34 O59 1.967 . S
Co34 O66 1.920 . S
Co35 O38 1.966 . S
Co35 N44 2.022 . S
Co35 N52 1.993 . S
Co35 O60 1.941 . S
C36 O37 1.258 . S
C36 O38 1.263 . S
O37 Co34 1.970 . S
O37 C36 1.258 . S
O38 Co35 1.966 . S
O38 C36 1.263 . S
C39 O40 1.235 . S
C39 O66 1.289 . S
O40 C39 1.235 . S
C41 C43 1.400 . S
C41 N44 1.351 . S
C41 C46 1.501 1_455 S
C42 C43 1.387 . S
C42 N45 1.341 . S
C43 C41 1.400 . S
C43 C42 1.387 . S
N44 Co35 2.022 . S
N44 C41 1.351 . S
N44 N45 1.365 . S
N45 C42 1.341 . S
N45 N44 1.365 . S
N45 H65 0.862 . S
C46 C41 1.501 1_655 S
C46 H47 0.961 . S
C46 H48 0.961 . S
C46 H49 0.960 . S
H47 C46 0.961 . S
H48 C46 0.961 . S
H49 C46 0.960 . S
C50 N51 1.342 . S
C50 C54 1.401 . S
C50 C55 1.499 . S
N51 Co34 1.989 . S
N51 C50 1.342 . S
N51 N52 1.388 . S
N52 Co35 1.993 . S
N52 N51 1.388 . S
N52 C53 1.346 . S
C53 N52 1.346 . S
C53 C54 1.396 . S
C53 C63 1.510 . S
C54 C50 1.401 . S
C54 C53 1.396 . S
C55 C50 1.499 . S
C55 H56 0.959 . S
C55 H57 0.960 . S
C55 H58 0.961 . S
H56 C55 0.959 . S
H57 C55 0.960 . S
H58 C55 0.961 . S
O59 Co34 1.967 . S
O59 C67 1.258 . S
O60 Co35 1.941 . S
O60 C67 1.266 . S
H61 C63 0.959 . S
H62 C63 0.961 . S
C63 C53 1.510 . S
C63 H61 0.959 . S
C63 H62 0.961 . S
C63 H64 0.960 . S
H64 C63 0.960 . S
H65 N45 0.862 . S
O66 Co34 1.920 . S
O66 C39 1.289 . S
C67 O59 1.258 . S
C67 O60 1.266 . S
Co68 O71 1.970 . S
Co68 N85 1.989 . S
Co68 O93 1.967 . S
Co68 O100 1.920 . S
Co69 O72 1.966 . S
Co69 N78 2.022 . S
Co69 N86 1.993 . S
Co69 O94 1.941 . S
C70 O71 1.258 . S
C70 O72 1.263 . S
O71 Co68 1.970 . S
O71 C70 1.258 . S
O72 Co69 1.966 . S
O72 C70 1.263 . S
C73 O74 1.235 . S
C73 O100 1.289 . S
O74 C73 1.235 . S
C75 C77 1.400 . S
C75 N78 1.351 . S
C75 C80 1.501 . S
C76 C77 1.387 . S
C76 N79 1.341 . S
C77 C75 1.400 . S
C77 C76 1.387 . S
N78 Co69 2.022 . S
N78 C75 1.351 . S
N78 N79 1.365 . S
N79 C76 1.341 . S
N79 N78 1.365 . S
N79 H99 0.862 . S
C80 C75 1.501 . S
C80 H81 0.961 . S
C80 H82 0.961 . S
C80 H83 0.960 . S
H81 C80 0.961 . S
H82 C80 0.961 . S
H83 C80 0.960 . S
C84 N85 1.342 . S
C84 C88 1.401 . S
C84 C89 1.499 . S
N85 Co68 1.989 . S
N85 C84 1.342 . S
N85 N86 1.388 . S
N86 Co69 1.993 . S
N86 N85 1.388 . S
N86 C87 1.346 . S
C87 N86 1.346 . S
C87 C88 1.396 . S
C87 C97 1.510 . S
C88 C84 1.401 . S
C88 C87 1.396 . S
C89 C84 1.499 . S
C89 H90 0.959 . S
C89 H91 0.960 . S
C89 H92 0.961 . S
H90 C89 0.959 . S
H91 C89 0.960 . S
H92 C89 0.961 . S
O93 Co68 1.967 . S
O93 C101 1.258 . S
O94 Co69 1.941 . S
O94 C101 1.266 . S
H95 C97 0.959 . S
H96 C97 0.961 . S
C97 C87 1.510 . S
C97 H95 0.959 . S
C97 H96 0.961 . S
C97 H98 0.960 . S
H98 C97 0.960 . S
H99 N79 0.862 . S
O100 Co68 1.920 . S
O100 C73 1.289 . S
C101 O93 1.258 . S
C101 O94 1.266 . S
Co102 O105 1.970 . S
Co102 N119 1.989 . S
Co102 O127 1.967 . S
Co102 O134 1.920 . S
Co103 O106 1.966 . S
Co103 N112 2.022 . S
Co103 N120 1.993 . S
Co103 O128 1.941 . S
C104 O105 1.258 . S
C104 O106 1.263 . S
O105 Co102 1.970 . S
O105 C104 1.258 . S
O106 Co103 1.966 . S
O106 C104 1.263 . S
C107 O108 1.235 . S
C107 O134 1.289 . S
O108 C107 1.235 . S
C109 C111 1.400 . S
C109 N112 1.351 . S
C109 C114 1.501 1_655 S
C110 C111 1.387 . S
C110 N113 1.341 . S
C111 C109 1.400 . S
C111 C110 1.387 . S
N112 Co103 2.022 . S
N112 C109 1.351 . S
N112 N113 1.365 . S
N113 C110 1.341 . S
N113 N112 1.365 . S
N113 H133 0.862 . S
C114 C109 1.501 1_455 S
C114 H115 0.961 . S
C114 H116 0.961 . S
C114 H117 0.960 . S
H115 C114 0.961 . S
H116 C114 0.961 . S
H117 C114 0.960 . S
C118 N119 1.342 . S
C118 C122 1.401 . S
C118 C123 1.499 . S
N119 Co102 1.989 . S
N119 C118 1.342 . S
N119 N120 1.388 . S
N120 Co103 1.993 . S
N120 N119 1.388 . S
N120 C121 1.346 . S
C121 N120 1.346 . S
C121 C122 1.396 . S
C121 C131 1.510 . S
C122 C118 1.401 . S
C122 C121 1.396 . S
C123 C118 1.499 . S
C123 H124 0.959 . S
C123 H125 0.960 . S
C123 H126 0.961 . S
H124 C123 0.959 . S
H125 C123 0.960 . S
H126 C123 0.961 . S
O127 Co102 1.967 . S
O127 C135 1.258 . S
O128 Co103 1.941 . S
O128 C135 1.266 . S
H129 C131 0.959 . S
H130 C131 0.961 . S
C131 C121 1.510 . S
C131 H129 0.959 . S
C131 H130 0.961 . S
C131 H132 0.960 . S
H132 C131 0.960 . S
H133 N113 0.862 . S
O134 Co102 1.920 . S
O134 C107 1.289 . S
C135 O127 1.258 . S
C135 O128 1.266 . S
Co136 O139 1.970 . S
Co136 N153 1.989 1_556 S
Co136 O161 1.967 . S
Co136 O168 1.920 . S
Co137 O140 1.966 . S
Co137 N146 2.022 . S
Co137 N154 1.993 1_556 S
Co137 O162 1.941 . S
C138 O139 1.258 . S
C138 O140 1.263 . S
O139 Co136 1.970 . S
O139 C138 1.258 . S
O140 Co137 1.966 . S
O140 C138 1.263 . S
C141 O142 1.235 . S
C141 O168 1.289 . S
O142 C141 1.235 . S
C143 C145 1.400 . S
C143 N146 1.351 . S
C143 C148 1.501 . S
C144 C145 1.387 . S
C144 N147 1.341 . S
C145 C143 1.400 . S
C145 C144 1.387 . S
N146 Co137 2.022 . S
N146 C143 1.351 . S
N146 N147 1.365 . S
N147 C144 1.341 . S
N147 N146 1.365 . S
N147 H167 0.862 . S
C148 C143 1.501 . S
C148 H149 0.961 . S
C148 H150 0.961 . S
C148 H151 0.960 . S
H149 C148 0.961 . S
H150 C148 0.961 . S
H151 C148 0.960 . S
C152 N153 1.342 . S
C152 C156 1.401 . S
C152 C157 1.499 . S
N153 Co136 1.989 1_554 S
N153 C152 1.342 . S
N153 N154 1.388 . S
N154 Co137 1.993 1_554 S
N154 N153 1.388 . S
N154 C155 1.346 . S
C155 N154 1.346 . S
C155 C156 1.396 . S
C155 C165 1.510 . S
C156 C152 1.401 . S
C156 C155 1.396 . S
C157 C152 1.499 . S
C157 H158 0.959 . S
C157 H159 0.960 . S
C157 H160 0.961 . S
H158 C157 0.959 . S
H159 C157 0.960 . S
H160 C157 0.961 . S
O161 Co136 1.967 . S
O161 C169 1.258 . S
O162 Co137 1.941 . S
O162 C169 1.266 . S
H163 C165 0.959 . S
H164 C165 0.961 . S
C165 C155 1.510 . S
C165 H163 0.959 . S
C165 H164 0.961 . S
C165 H166 0.960 . S
H166 C165 0.960 . S
H167 N147 0.862 . S
O168 Co136 1.920 . S
O168 C141 1.289 . S
C169 O161 1.258 . S
C169 O162 1.266 . S
Co170 O173 1.970 . S
Co170 N187 1.989 . S
Co170 O195 1.967 . S
Co170 O202 1.920 . S
Co171 O174 1.966 . S
Co171 N180 2.022 . S
Co171 N188 1.993 . S
Co171 O196 1.941 . S
C172 O173 1.258 . S
C172 O174 1.263 . S
O173 Co170 1.970 . S
O173 C172 1.258 . S
O174 Co171 1.966 . S
O174 C172 1.263 . S
C175 O176 1.235 . S
C175 O202 1.289 . S
O176 C175 1.235 . S
C177 C179 1.400 . S
C177 N180 1.351 . S
C177 C182 1.501 1_455 S
C178 C179 1.387 . S
C178 N181 1.341 . S
C179 C177 1.400 . S
C179 C178 1.387 . S
N180 Co171 2.022 . S
N180 C177 1.351 . S
N180 N181 1.365 . S
N181 C178 1.341 . S
N181 N180 1.365 . S
N181 H201 0.862 . S
C182 C177 1.501 1_655 S
C182 H183 0.961 . S
C182 H184 0.961 . S
C182 H185 0.960 . S
H183 C182 0.961 . S
H184 C182 0.961 . S
H185 C182 0.960 . S
C186 N187 1.342 . S
C186 C190 1.401 . S
C186 C191 1.499 . S
N187 Co170 1.989 . S
N187 C186 1.342 . S
N187 N188 1.388 . S
N188 Co171 1.993 . S
N188 N187 1.388 . S
N188 C189 1.346 . S
C189 N188 1.346 . S
C189 C190 1.396 . S
C189 C199 1.510 . S
C190 C186 1.401 . S
C190 C189 1.396 . S
C191 C186 1.499 . S
C191 H192 0.959 . S
C191 H193 0.960 . S
C191 H194 0.961 . S
H192 C191 0.959 . S
H193 C191 0.960 . S
H194 C191 0.961 . S
O195 Co170 1.967 . S
O195 C203 1.258 . S
O196 Co171 1.941 . S
O196 C203 1.266 . S
H197 C199 0.959 . S
H198 C199 0.961 . S
C199 C189 1.510 . S
C199 H197 0.959 . S
C199 H198 0.961 . S
C199 H200 0.960 . S
H200 C199 0.960 . S
H201 N181 0.862 . S
O202 Co170 1.920 . S
O202 C175 1.289 . S
C203 O195 1.258 . S
C203 O196 1.266 . S
Co204 O207 1.970 . S
Co204 N221 1.989 1_554 S
Co204 O229 1.967 . S
Co204 O236 1.920 . S
Co205 O208 1.966 . S
Co205 N214 2.022 . S
Co205 N222 1.993 1_554 S
Co205 O230 1.941 . S
C206 O207 1.258 . S
C206 O208 1.263 . S
O207 Co204 1.970 . S
O207 C206 1.258 . S
O208 Co205 1.966 . S
O208 C206 1.263 . S
C209 O210 1.235 . S
C209 O236 1.289 . S
O210 C209 1.235 . S
C211 C213 1.400 . S
C211 N214 1.351 . S
C211 C216 1.501 . S
C212 C213 1.387 . S
C212 N215 1.341 . S
C213 C211 1.400 . S
C213 C212 1.387 . S
N214 Co205 2.022 . S
N214 C211 1.351 . S
N214 N215 1.365 . S
N215 C212 1.341 . S
N215 N214 1.365 . S
N215 H235 0.862 . S
C216 C211 1.501 . S
C216 H217 0.961 . S
C216 H218 0.961 . S
C216 H219 0.960 . S
H217 C216 0.961 . S
H218 C216 0.961 . S
H219 C216 0.960 . S
C220 N221 1.342 . S
C220 C224 1.401 . S
C220 C225 1.499 . S
N221 Co204 1.989 1_556 S
N221 C220 1.342 . S
N221 N222 1.388 . S
N222 Co205 1.993 1_556 S
N222 N221 1.388 . S
N222 C223 1.346 . S
C223 N222 1.346 . S
C223 C224 1.396 . S
C223 C233 1.510 . S
C224 C220 1.401 . S
C224 C223 1.396 . S
C225 C220 1.499 . S
C225 H226 0.959 . S
C225 H227 0.960 . S
C225 H228 0.961 . S
H226 C225 0.959 . S
H227 C225 0.960 . S
H228 C225 0.961 . S
O229 Co204 1.967 . S
O229 C237 1.258 . S
O230 Co205 1.941 . S
O230 C237 1.266 . S
H231 C233 0.959 . S
H232 C233 0.961 . S
C233 C223 1.510 . S
C233 H231 0.959 . S
C233 H232 0.961 . S
C233 H234 0.960 . S
H234 C233 0.960 . S
H235 N215 0.862 . S
O236 Co204 1.920 . S
O236 C209 1.289 . S
C237 O229 1.258 . S
C237 O230 1.266 . S
Co238 O241 1.970 . S
Co238 N255 1.989 . S
Co238 O263 1.967 . S
Co238 O270 1.920 . S
Co239 O242 1.966 . S
Co239 N248 2.022 . S
Co239 N256 1.993 . S
Co239 O264 1.941 . S
C240 O241 1.258 . S
C240 O242 1.263 . S
O241 Co238 1.970 . S
O241 C240 1.258 . S
O242 Co239 1.966 . S
O242 C240 1.263 . S
C243 O244 1.235 . S
C243 O270 1.289 . S
O244 C243 1.235 . S
C245 C247 1.400 . S
C245 N248 1.351 . S
C245 C250 1.501 1_655 S
C246 C247 1.387 . S
C246 N249 1.341 . S
C247 C245 1.400 . S
C247 C246 1.387 . S
N248 Co239 2.022 . S
N248 C245 1.351 . S
N248 N249 1.365 . S
N249 C246 1.341 . S
N249 N248 1.365 . S
N249 H269 0.862 . S
C250 C245 1.501 1_455 S
C250 H251 0.961 . S
C250 H252 0.961 . S
C250 H253 0.960 . S
H251 C250 0.961 . S
H252 C250 0.961 . S
H253 C250 0.960 . S
C254 N255 1.342 . S
C254 C258 1.401 . S
C254 C259 1.499 . S
N255 Co238 1.989 . S
N255 C254 1.342 . S
N255 N256 1.388 . S
N256 Co239 1.993 . S
N256 N255 1.388 . S
N256 C257 1.346 . S
C257 N256 1.346 . S
C257 C258 1.396 . S
C257 C267 1.510 . S
C258 C254 1.401 . S
C258 C257 1.396 . S
C259 C254 1.499 . S
C259 H260 0.959 . S
C259 H261 0.960 . S
C259 H262 0.961 . S
H260 C259 0.959 . S
H261 C259 0.960 . S
H262 C259 0.961 . S
O263 Co238 1.967 . S
O263 C271 1.258 . S
O264 Co239 1.941 . S
O264 C271 1.266 . S
H265 C267 0.959 . S
H266 C267 0.961 . S
C267 C257 1.510 . S
C267 H265 0.959 . S
C267 H266 0.961 . S
C267 H268 0.960 . S
H268 C267 0.960 . S
H269 N249 0.862 . S
O270 Co238 1.920 . S
O270 C243 1.289 . S
C271 O263 1.258 . S
C271 O264 1.266 . S
Co272 O275 1.970 . S
Co272 N289 1.989 1_556 S
Co272 O297 1.967 . S
Co272 O304 1.920 . S
Co273 O276 1.966 . S
Co273 N282 2.022 . S
Co273 N290 1.993 1_556 S
Co273 O298 1.941 . S
C274 O275 1.258 . S
C274 O276 1.263 . S
O275 Co272 1.970 . S
O275 C274 1.258 . S
O276 Co273 1.966 . S
O276 C274 1.263 . S
C277 O278 1.235 . S
C277 O304 1.289 . S
O278 C277 1.235 . S
C279 C281 1.400 . S
C279 N282 1.351 . S
C279 C284 1.501 . S
C280 C281 1.387 . S
C280 N283 1.341 . S
C281 C279 1.400 . S
C281 C280 1.387 . S
N282 Co273 2.022 . S
N282 C279 1.351 . S
N282 N283 1.365 . S
N283 C280 1.341 . S
N283 N282 1.365 . S
N283 H303 0.862 . S
C284 C279 1.501 . S
C284 H285 0.961 . S
C284 H286 0.961 . S
C284 H287 0.960 . S
H285 C284 0.961 . S
H286 C284 0.961 . S
H287 C284 0.960 . S
C288 N289 1.342 . S
C288 C292 1.401 . S
C288 C293 1.499 . S
N289 Co272 1.989 1_554 S
N289 C288 1.342 . S
N289 N290 1.388 . S
N290 Co273 1.993 1_554 S
N290 N289 1.388 . S
N290 C291 1.346 . S
C291 N290 1.346 . S
C291 C292 1.396 . S
C291 C301 1.510 . S
C292 C288 1.401 . S
C292 C291 1.396 . S
C293 C288 1.499 . S
C293 H294 0.959 . S
C293 H295 0.960 . S
C293 H296 0.961 . S
H294 C293 0.959 . S
H295 C293 0.960 . S
H296 C293 0.961 . S
O297 Co272 1.967 . S
O297 C305 1.258 . S
O298 Co273 1.941 . S
O298 C305 1.266 . S
H299 C301 0.959 . S
H300 C301 0.961 . S
C301 C291 1.510 . S
C301 H299 0.959 . S
C301 H300 0.961 . S
C301 H302 0.960 . S
H302 C301 0.960 . S
H303 N283 0.862 . S
O304 Co272 1.920 . S
O304 C277 1.289 . S
C305 O297 1.258 . S
C305 O298 1.266 . S
Co306 O309 1.970 . S
Co306 N323 1.989 . S
Co306 O331 1.967 . S
Co306 O338 1.920 . S
Co307 O310 1.966 . S
Co307 N316 2.022 . S
Co307 N324 1.993 . S
Co307 O332 1.941 . S
C308 O309 1.258 . S
C308 O310 1.263 . S
O309 Co306 1.970 . S
O309 C308 1.258 . S
O310 Co307 1.966 . S
O310 C308 1.263 . S
C311 O312 1.235 . S
C311 O338 1.289 . S
O312 C311 1.235 . S
C313 C315 1.400 . S
C313 N316 1.351 . S
C313 C318 1.501 . S
C314 C315 1.387 . S
C314 N317 1.341 . S
C315 C313 1.400 . S
C315 C314 1.387 . S
N316 Co307 2.022 . S
N316 C313 1.351 . S
N316 N317 1.365 . S
N317 C314 1.341 . S
N317 N316 1.365 . S
N317 H337 0.862 . S
C318 C313 1.501 . S
C318 H319 0.961 . S
C318 H320 0.961 . S
C318 H321 0.960 . S
H319 C318 0.961 . S
H320 C318 0.961 . S
H321 C318 0.960 . S
C322 N323 1.342 . S
C322 C326 1.401 . S
C322 C327 1.499 . S
N323 Co306 1.989 . S
N323 C322 1.342 . S
N323 N324 1.388 . S
N324 Co307 1.993 . S
N324 N323 1.388 . S
N324 C325 1.346 . S
C325 N324 1.346 . S
C325 C326 1.396 . S
C325 C335 1.510 . S
C326 C322 1.401 . S
C326 C325 1.396 . S
C327 C322 1.499 . S
C327 H328 0.959 . S
C327 H329 0.960 . S
C327 H330 0.961 . S
H328 C327 0.959 . S
H329 C327 0.960 . S
H330 C327 0.961 . S
O331 Co306 1.967 . S
O331 C339 1.258 . S
O332 Co307 1.941 . S
O332 C339 1.266 . S
H333 C335 0.959 . S
H334 C335 0.961 . S
C335 C325 1.510 . S
C335 H333 0.959 . S
C335 H334 0.961 . S
C335 H336 0.960 . S
H336 C335 0.960 . S
H337 N317 0.862 . S
O338 Co306 1.920 . S
O338 C311 1.289 . S
C339 O331 1.258 . S
C339 O332 1.266 . S
Co340 O343 1.970 . S
Co340 N357 1.989 1_554 S
Co340 O365 1.967 . S
Co340 O372 1.920 . S
Co341 O344 1.966 . S
Co341 N350 2.022 . S
Co341 N358 1.993 1_554 S
Co341 O366 1.941 . S
C342 O343 1.258 . S
C342 O344 1.263 . S
O343 Co340 1.970 . S
O343 C342 1.258 . S
O344 Co341 1.966 . S
O344 C342 1.263 . S
C345 O346 1.235 . S
C345 O372 1.289 . S
O346 C345 1.235 . S
C347 C349 1.400 . S
C347 N350 1.351 . S
C347 C352 1.501 . S
C348 C349 1.387 . S
C348 N351 1.341 . S
C349 C347 1.400 . S
C349 C348 1.387 . S
N350 Co341 2.022 . S
N350 C347 1.351 . S
N350 N351 1.365 . S
N351 C348 1.341 . S
N351 N350 1.365 . S
N351 H371 0.862 . S
C352 C347 1.501 . S
C352 H353 0.961 . S
C352 H354 0.961 . S
C352 H355 0.960 . S
H353 C352 0.961 . S
H354 C352 0.961 . S
H355 C352 0.960 . S
C356 N357 1.342 . S
C356 C360 1.401 . S
C356 C361 1.499 . S
N357 Co340 1.989 1_556 S
N357 C356 1.342 . S
N357 N358 1.388 . S
N358 Co341 1.993 1_556 S
N358 N357 1.388 . S
N358 C359 1.346 . S
C359 N358 1.346 . S
C359 C360 1.396 . S
C359 C369 1.510 . S
C360 C356 1.401 . S
C360 C359 1.396 . S
C361 C356 1.499 . S
C361 H362 0.959 . S
C361 H363 0.960 . S
C361 H364 0.961 . S
H362 C361 0.959 . S
H363 C361 0.960 . S
H364 C361 0.961 . S
O365 Co340 1.967 . S
O365 C373 1.258 . S
O366 Co341 1.941 . S
O366 C373 1.266 . S
H367 C369 0.959 . S
H368 C369 0.961 . S
C369 C359 1.510 . S
C369 H367 0.959 . S
C369 H368 0.961 . S
C369 H370 0.960 . S
H370 C369 0.960 . S
H371 N351 0.862 . S
O372 Co340 1.920 . S
O372 C345 1.289 . S
C373 O365 1.258 . S
C373 O366 1.266 . S
Co374 O377 1.970 . S
Co374 N391 1.989 . S
Co374 O399 1.967 . S
Co374 O406 1.920 . S
Co375 O378 1.966 . S
Co375 N384 2.022 . S
Co375 N392 1.993 . S
Co375 O400 1.941 . S
C376 O377 1.258 . S
C376 O378 1.263 . S
O377 Co374 1.970 . S
O377 C376 1.258 . S
O378 Co375 1.966 . S
O378 C376 1.263 . S
C379 O380 1.235 . S
C379 O406 1.289 . S
O380 C379 1.235 . S
C381 C383 1.400 . S
C381 N384 1.351 . S
C381 C386 1.501 . S
C382 C383 1.387 . S
C382 N385 1.341 . S
C383 C381 1.400 . S
C383 C382 1.387 . S
N384 Co375 2.022 . S
N384 C381 1.351 . S
N384 N385 1.365 . S
N385 C382 1.341 . S
N385 N384 1.365 . S
N385 H405 0.862 . S
C386 C381 1.501 . S
C386 H387 0.961 . S
C386 H388 0.961 . S
C386 H389 0.960 . S
H387 C386 0.961 . S
H388 C386 0.961 . S
H389 C386 0.960 . S
C390 N391 1.342 . S
C390 C394 1.401 . S
C390 C395 1.499 . S
N391 Co374 1.989 . S
N391 C390 1.342 . S
N391 N392 1.388 . S
N392 Co375 1.993 . S
N392 N391 1.388 . S
N392 C393 1.346 . S
C393 N392 1.346 . S
C393 C394 1.396 . S
C393 C403 1.510 . S
C394 C390 1.401 . S
C394 C393 1.396 . S
C395 C390 1.499 . S
C395 H396 0.959 . S
C395 H397 0.960 . S
C395 H398 0.961 . S
H396 C395 0.959 . S
H397 C395 0.960 . S
H398 C395 0.961 . S
O399 Co374 1.967 . S
O399 C407 1.258 . S
O400 Co375 1.941 . S
O400 C407 1.266 . S
H401 C403 0.959 . S
H402 C403 0.961 . S
C403 C393 1.510 . S
C403 H401 0.959 . S
C403 H402 0.961 . S
C403 H404 0.960 . S
H404 C403 0.960 . S
H405 N385 0.862 . S
O406 Co374 1.920 . S
O406 C379 1.289 . S
C407 O399 1.258 . S
C407 O400 1.266 . S
Co408 O411 1.970 . S
Co408 N425 1.989 . S
Co408 O433 1.967 . S
Co408 O440 1.920 . S
Co409 O412 1.966 . S
Co409 N418 2.022 . S
Co409 N426 1.993 . S
Co409 O434 1.941 . S
C410 O411 1.258 . S
C410 O412 1.263 . S
O411 Co408 1.970 . S
O411 C410 1.258 . S
O412 Co409 1.966 . S
O412 C410 1.263 . S
C413 O414 1.235 . S
C413 O440 1.289 . S
O414 C413 1.235 . S
C415 C417 1.400 . S
C415 N418 1.351 . S
C415 C420 1.501 . S
C416 C417 1.387 . S
C416 N419 1.341 . S
C417 C415 1.400 . S
C417 C416 1.387 . S
N418 Co409 2.022 . S
N418 C415 1.351 . S
N418 N419 1.365 . S
N419 C416 1.341 . S
N419 N418 1.365 . S
N419 H439 0.862 . S
C420 C415 1.501 . S
C420 H421 0.961 . S
C420 H422 0.961 . S
C420 H423 0.960 . S
H421 C420 0.961 . S
H422 C420 0.961 . S
H423 C420 0.960 . S
C424 N425 1.342 . S
C424 C428 1.401 . S
C424 C429 1.499 . S
N425 Co408 1.989 . S
N425 C424 1.342 . S
N425 N426 1.388 . S
N426 Co409 1.993 . S
N426 N425 1.388 . S
N426 C427 1.346 . S
C427 N426 1.346 . S
C427 C428 1.396 . S
C427 C437 1.510 . S
C428 C424 1.401 . S
C428 C427 1.396 . S
C429 C424 1.499 . S
C429 H430 0.959 . S
C429 H431 0.960 . S
C429 H432 0.961 . S
H430 C429 0.959 . S
H431 C429 0.960 . S
H432 C429 0.961 . S
O433 Co408 1.967 . S
O433 C441 1.258 . S
O434 Co409 1.941 . S
O434 C441 1.266 . S
H435 C437 0.959 . S
H436 C437 0.961 . S
C437 C427 1.510 . S
C437 H435 0.959 . S
C437 H436 0.961 . S
C437 H438 0.960 . S
H438 C437 0.960 . S
H439 N419 0.862 . S
O440 Co408 1.920 . S
O440 C413 1.289 . S
C441 O433 1.258 . S
C441 O434 1.266 . S
Co442 O445 1.970 . S
Co442 N459 1.989 . S
Co442 O467 1.967 . S
Co442 O474 1.920 . S
Co443 O446 1.966 . S
Co443 N452 2.022 . S
Co443 N460 1.993 . S
Co443 O468 1.941 . S
C444 O445 1.258 . S
C444 O446 1.263 . S
O445 Co442 1.970 . S
O445 C444 1.258 . S
O446 Co443 1.966 . S
O446 C444 1.263 . S
C447 O448 1.235 . S
C447 O474 1.289 . S
O448 C447 1.235 . S
C449 C451 1.400 . S
C449 N452 1.351 . S
C449 C454 1.501 . S
C450 C451 1.387 . S
C450 N453 1.341 . S
C451 C449 1.400 . S
C451 C450 1.387 . S
N452 Co443 2.022 . S
N452 C449 1.351 . S
N452 N453 1.365 . S
N453 C450 1.341 . S
N453 N452 1.365 . S
N453 H473 0.862 . S
C454 C449 1.501 . S
C454 H455 0.961 . S
C454 H456 0.961 . S
C454 H457 0.960 . S
H455 C454 0.961 . S
H456 C454 0.961 . S
H457 C454 0.960 . S
C458 N459 1.342 . S
C458 C462 1.401 . S
C458 C463 1.499 . S
N459 Co442 1.989 . S
N459 C458 1.342 . S
N459 N460 1.388 . S
N460 Co443 1.993 . S
N460 N459 1.388 . S
N460 C461 1.346 . S
C461 N460 1.346 . S
C461 C462 1.396 . S
C461 C471 1.510 . S
C462 C458 1.401 . S
C462 C461 1.396 . S
C463 C458 1.499 . S
C463 H464 0.959 . S
C463 H465 0.960 . S
C463 H466 0.961 . S
H464 C463 0.959 . S
H465 C463 0.960 . S
H466 C463 0.961 . S
O467 Co442 1.967 . S
O467 C475 1.258 . S
O468 Co443 1.941 . S
O468 C475 1.266 . S
H469 C471 0.959 . S
H470 C471 0.961 . S
C471 C461 1.510 . S
C471 H469 0.959 . S
C471 H470 0.961 . S
C471 H472 0.960 . S
H472 C471 0.960 . S
H473 N453 0.862 . S
O474 Co442 1.920 . S
O474 C447 1.289 . S
C475 O467 1.258 . S
C475 O468 1.266 . S
Co476 O479 1.970 . S
Co476 N493 1.989 . S
Co476 O501 1.967 . S
Co476 O508 1.920 . S
Co477 O480 1.966 . S
Co477 N486 2.022 . S
Co477 N494 1.993 . S
Co477 O502 1.941 . S
C478 O479 1.258 . S
C478 O480 1.263 . S
O479 Co476 1.970 . S
O479 C478 1.258 . S
O480 Co477 1.966 . S
O480 C478 1.263 . S
C481 O482 1.235 . S
C481 O508 1.289 . S
O482 C481 1.235 . S
C483 C485 1.400 . S
C483 N486 1.351 . S
C483 C488 1.501 . S
C484 C485 1.387 . S
C484 N487 1.341 . S
C485 C483 1.400 . S
C485 C484 1.387 . S
N486 Co477 2.022 . S
N486 C483 1.351 . S
N486 N487 1.365 . S
N487 C484 1.341 . S
N487 N486 1.365 . S
N487 H507 0.862 . S
C488 C483 1.501 . S
C488 H489 0.961 . S
C488 H490 0.961 . S
C488 H491 0.960 . S
H489 C488 0.961 . S
H490 C488 0.961 . S
H491 C488 0.960 . S
C492 N493 1.342 . S
C492 C496 1.401 . S
C492 C497 1.499 . S
N493 Co476 1.989 . S
N493 C492 1.342 . S
N493 N494 1.388 . S
N494 Co477 1.993 . S
N494 N493 1.388 . S
N494 C495 1.346 . S
C495 N494 1.346 . S
C495 C496 1.396 . S
C495 C505 1.510 . S
C496 C492 1.401 . S
C496 C495 1.396 . S
C497 C492 1.499 . S
C497 H498 0.959 . S
C497 H499 0.960 . S
C497 H500 0.961 . S
H498 C497 0.959 . S
H499 C497 0.960 . S
H500 C497 0.961 . S
O501 Co476 1.967 . S
O501 C509 1.258 . S
O502 Co477 1.941 . S
O502 C509 1.266 . S
H503 C505 0.959 . S
H504 C505 0.961 . S
C505 C495 1.510 . S
C505 H503 0.959 . S
C505 H504 0.961 . S
C505 H506 0.960 . S
H506 C505 0.960 . S
H507 N487 0.862 . S
O508 Co476 1.920 . S
O508 C481 1.289 . S
C509 O501 1.258 . S
C509 O502 1.266 . S
Co510 O513 1.970 . S
Co510 N527 1.989 . S
Co510 O535 1.967 . S
Co510 O542 1.920 . S
Co511 O514 1.966 . S
Co511 N520 2.022 . S
Co511 N528 1.993 . S
Co511 O536 1.941 . S
C512 O513 1.258 . S
C512 O514 1.263 . S
O513 Co510 1.970 . S
O513 C512 1.258 . S
O514 Co511 1.966 . S
O514 C512 1.263 . S
C515 O516 1.235 . S
C515 O542 1.289 . S
O516 C515 1.235 . S
C517 C519 1.400 . S
C517 N520 1.351 . S
C517 C522 1.501 . S
C518 C519 1.387 . S
C518 N521 1.341 . S
C519 C517 1.400 . S
C519 C518 1.387 . S
N520 Co511 2.022 . S
N520 C517 1.351 . S
N520 N521 1.365 . S
N521 C518 1.341 . S
N521 N520 1.365 . S
N521 H541 0.862 . S
C522 C517 1.501 . S
C522 H523 0.961 . S
C522 H524 0.961 . S
C522 H525 0.960 . S
H523 C522 0.961 . S
H524 C522 0.961 . S
H525 C522 0.960 . S
C526 N527 1.342 . S
C526 C530 1.401 . S
C526 C531 1.499 . S
N527 Co510 1.989 . S
N527 C526 1.342 . S
N527 N528 1.388 . S
N528 Co511 1.993 . S
N528 N527 1.388 . S
N528 C529 1.346 . S
C529 N528 1.346 . S
C529 C530 1.396 . S
C529 C539 1.510 . S
C530 C526 1.401 . S
C530 C529 1.396 . S
C531 C526 1.499 . S
C531 H532 0.959 . S
C531 H533 0.960 . S
C531 H534 0.961 . S
H532 C531 0.959 . S
H533 C531 0.960 . S
H534 C531 0.961 . S
O535 Co510 1.967 . S
O535 C543 1.258 . S
O536 Co511 1.941 . S
O536 C543 1.266 . S
H537 C539 0.959 . S
H538 C539 0.961 . S
C539 C529 1.510 . S
C539 H537 0.959 . S
C539 H538 0.961 . S
C539 H540 0.960 . S
H540 C539 0.960 . S
H541 N521 0.862 . S
O542 Co510 1.920 . S
O542 C515 1.289 . S
C543 O535 1.258 . S
C543 O536 1.266 . S
H544 C556 0.930 . S
H545 C558 0.930 . S
H546 C559 0.930 . S
H547 C563 0.959 . S
H548 C563 0.959 . S
H549 C563 0.961 . S
H550 C564 0.960 . S
H551 C564 0.961 . S
H552 C564 0.959 . S
H553 C567 0.929 . S
H554 C568 0.931 . S
H555 C570 0.930 . S
C556 H544 0.930 . S
C556 C557 1.399 . S
C556 C561 1.399 . S
C557 C556 1.399 . S
C557 C558 1.376 . S
C558 H545 0.930 . S
C558 C557 1.376 . S
C558 C559 1.388 . S
C559 H546 0.930 . S
C559 C558 1.388 . S
C559 C560 1.390 . S
C560 C559 1.390 . S
C560 C561 1.394 . S
C560 C566 1.465 . S
C561 C556 1.399 . S
C561 C560 1.394 . S
C561 C562 1.516 . S
C562 C561 1.516 . S
C562 C563 1.502 . S
C562 C564 1.561 . S
C562 C565 1.526 . S
C563 H547 0.959 . S
C563 H548 0.959 . S
C563 H549 0.961 . S
C563 C562 1.502 . S
C564 H550 0.960 . S
C564 H551 0.961 . S
C564 H552 0.959 . S
C564 C562 1.561 . S
C565 C562 1.526 . S
C565 C566 1.396 . S
C565 C570 1.390 . S
C566 C560 1.465 . S
C566 C565 1.396 . S
C566 C567 1.399 . S
C567 H553 0.929 . S
C567 C566 1.399 . S
C567 C568 1.385 . S
C568 H554 0.931 . S
C568 C567 1.385 . S
C568 C569 1.389 . S
C569 C568 1.389 . S
C569 C570 1.387 . S
C570 H555 0.930 . S
C570 C565 1.390 . S
C570 C569 1.387 . S
H571 C583 0.930 . S
H572 C585 0.930 . S
H573 C586 0.930 . S
H574 C590 0.959 . S
H575 C590 0.959 . S
H576 C590 0.961 . S
H577 C591 0.960 . S
H578 C591 0.961 1_545 S
H579 C591 0.959 . S
H580 C594 0.929 . S
H581 C595 0.931 . S
H582 C597 0.930 . S
C583 H571 0.930 . S
C583 C584 1.399 . S
C583 C588 1.399 . S
C584 C583 1.399 . S
C584 C585 1.376 . S
C585 H572 0.930 . S
C585 C584 1.376 . S
C585 C586 1.388 . S
C586 H573 0.930 . S
C586 C585 1.388 . S
C586 C587 1.390 . S
C587 C586 1.390 . S
C587 C588 1.394 . S
C587 C593 1.465 1_665 S
C588 C583 1.399 . S
C588 C587 1.394 . S
C588 C589 1.516 1_665 S
C589 C588 1.516 1_445 S
C589 C590 1.502 1_455 S
C589 C591 1.561 1_545 S
C589 C592 1.526 . S
C590 H574 0.959 . S
C590 H575 0.959 . S
C590 H576 0.961 . S
C590 C589 1.502 1_655 S
C591 H577 0.960 . S
C591 H578 0.961 1_565 S
C591 H579 0.959 . S
C591 C589 1.561 1_565 S
C592 C589 1.526 . S
C592 C593 1.396 . S
C592 C597 1.390 . S
C593 C587 1.465 1_445 S
C593 C592 1.396 . S
C593 C594 1.399 . S
C594 H580 0.929 . S
C594 C593 1.399 . S
C594 C595 1.385 . S
C595 H581 0.931 . S
C595 C594 1.385 . S
C595 C596 1.389 . S
C596 C595 1.389 . S
C596 C597 1.387 . S
C597 H582 0.930 . S
C597 C592 1.390 . S
C597 C596 1.387 . S
H598 C610 0.930 . S
H599 C612 0.930 . S
H600 C613 0.930 . S
H601 C617 0.959 . S
H602 C617 0.959 1_565 S
H603 C617 0.961 . S
H604 C618 0.960 . S
H605 C618 0.961 . S
H606 C618 0.959 . S
H607 C621 0.929 . S
H608 C622 0.931 . S
H609 C624 0.930 . S
C610 H598 0.930 . S
C610 C611 1.399 . S
C610 C615 1.399 . S
C611 C610 1.399 . S
C611 C612 1.376 . S
C612 H599 0.930 . S
C612 C611 1.376 . S
C612 C613 1.388 . S
C613 H600 0.930 . S
C613 C612 1.388 . S
C613 C614 1.390 . S
C614 C613 1.390 . S
C614 C615 1.394 . S
C614 C620 1.465 1_545 S
C615 C610 1.399 . S
C615 C614 1.394 . S
C615 C616 1.516 1_545 S
C616 C615 1.516 1_565 S
C616 C617 1.502 1_565 S
C616 C618 1.561 . S
C616 C619 1.526 . S
C617 H601 0.959 . S
C617 H602 0.959 1_545 S
C617 H603 0.961 . S
C617 C616 1.502 1_545 S
C618 H604 0.960 . S
C618 H605 0.961 . S
C618 H606 0.959 . S
C618 C616 1.561 . S
C619 C616 1.526 . S
C619 C620 1.396 . S
C619 C624 1.390 . S
C620 C614 1.465 1_565 S
C620 C619 1.396 . S
C620 C621 1.399 . S
C621 H607 0.929 . S
C621 C620 1.399 . S
C621 C622 1.385 . S
C622 H608 0.931 . S
C622 C621 1.385 . S
C622 C623 1.389 . S
C623 C622 1.389 . S
C623 C624 1.387 . S
C624 H609 0.930 . S
C624 C619 1.390 . S
C624 C623 1.387 . S
H625 C637 0.930 . S
H626 C639 0.930 . S
H627 C640 0.930 . S
H628 C644 0.959 . S
H629 C644 0.959 . S
H630 C644 0.961 . S
H631 C645 0.960 . S
H632 C645 0.961 . S
H633 C645 0.959 . S
H634 C648 0.929 . S
H635 C649 0.931 . S
H636 C651 0.930 . S
C637 H625 0.930 . S
C637 C638 1.399 . S
C637 C642 1.399 . S
C638 C637 1.399 . S
C638 C639 1.376 1_655 S
C639 H626 0.930 . S
C639 C638 1.376 1_455 S
C639 C640 1.388 . S
C640 H627 0.930 . S
C640 C639 1.388 . S
C640 C641 1.390 . S
C641 C640 1.390 . S
C641 C642 1.394 1_455 S
C641 C647 1.465 . S
C642 C637 1.399 . S
C642 C641 1.394 1_655 S
C642 C643 1.516 . S
C643 C642 1.516 . S
C643 C644 1.502 . S
C643 C645 1.561 1_655 S
C643 C646 1.526 . S
C644 H628 0.959 . S
C644 H629 0.959 . S
C644 H630 0.961 . S
C644 C643 1.502 . S
C645 H631 0.960 . S
C645 H632 0.961 . S
C645 H633 0.959 . S
C645 C643 1.561 1_455 S
C646 C643 1.526 . S
C646 C647 1.396 1_655 S
C646 C651 1.390 . S
C647 C641 1.465 . S
C647 C646 1.396 1_455 S
C647 C648 1.399 . S
C648 H634 0.929 . S
C648 C647 1.399 . S
C648 C649 1.385 . S
C649 H635 0.931 . S
C649 C648 1.385 . S
C649 C650 1.389 . S
C650 C649 1.389 . S
C650 C651 1.387 1_455 S
C651 H636 0.930 . S
C651 C646 1.390 . S
C651 C650 1.387 1_655 S
H652 C664 0.930 . S
H653 C666 0.930 . S
H654 C667 0.930 . S
H655 C671 0.959 . S
H656 C671 0.959 . S
H657 C671 0.961 . S
H658 C672 0.960 . S
H659 C672 0.961 . S
H660 C672 0.959 . S
H661 C675 0.929 . S
H662 C676 0.931 . S
H663 C678 0.930 . S
C664 H652 0.930 . S
C664 C665 1.399 . S
C664 C669 1.399 . S
C665 C664 1.399 . S
C665 C666 1.376 . S
C666 H653 0.930 . S
C666 C665 1.376 . S
C666 C667 1.388 . S
C667 H654 0.930 . S
C667 C666 1.388 . S
C667 C668 1.390 . S
C668 C667 1.390 . S
C668 C669 1.394 . S
C668 C674 1.465 . S
C669 C664 1.399 . S
C669 C668 1.394 . S
C669 C670 1.516 . S
C670 C669 1.516 . S
C670 C671 1.502 . S
C670 C672 1.561 . S
C670 C673 1.526 . S
C671 H655 0.959 . S
C671 H656 0.959 . S
C671 H657 0.961 . S
C671 C670 1.502 . S
C672 H658 0.960 . S
C672 H659 0.961 . S
C672 H660 0.959 . S
C672 C670 1.561 . S
C673 C670 1.526 . S
C673 C674 1.396 . S
C673 C678 1.390 . S
C674 C668 1.465 . S
C674 C673 1.396 . S
C674 C675 1.399 . S
C675 H661 0.929 . S
C675 C674 1.399 . S
C675 C676 1.385 . S
C676 H662 0.931 . S
C676 C675 1.385 . S
C676 C677 1.389 . S
C677 C676 1.389 . S
C677 C678 1.387 . S
C678 H663 0.930 . S
C678 C673 1.390 . S
C678 C677 1.387 . S
H679 C691 0.930 . S
H680 C693 0.930 . S
H681 C694 0.930 1_545 S
H682 C698 0.959 . S
H683 C698 0.959 . S
H684 C698 0.961 . S
H685 C699 0.960 . S
H686 C699 0.971 . S
H687 C699 0.959 1_545 S
H688 C702 0.929 . S
H689 C703 0.931 . S
H690 C705 0.930 . S
C691 H679 0.930 . S
C691 C692 1.399 . S
C691 C696 1.399 . S
C692 C691 1.399 . S
C692 C693 1.376 . S
C693 H680 0.930 . S
C693 C692 1.376 . S
C693 C694 1.388 . S
C694 H681 0.930 1_565 S
C694 C693 1.388 . S
C694 C695 1.390 . S
C695 C694 1.390 . S
C695 C696 1.394 . S
C695 C701 1.465 1_565 S
C696 C691 1.399 . S
C696 C695 1.394 . S
C696 C697 1.516 . S
C697 C696 1.516 . S
C697 C698 1.502 . S
C697 C699 1.561 . S
C697 C700 1.526 1_565 S
C698 H682 0.959 . S
C698 H683 0.959 . S
C698 H684 0.961 . S
C698 C697 1.502 . S
C699 H685 0.960 . S
C699 H686 0.971 . S
C699 H687 0.959 1_565 S
C699 C697 1.561 . S
C700 C697 1.526 1_545 S
C700 C701 1.396 . S
C700 C705 1.390 . S
C701 C695 1.465 1_545 S
C701 C700 1.396 . S
C701 C702 1.399 . S
C702 H688 0.929 . S
C702 C701 1.399 . S
C702 C703 1.385 . S
C703 H689 0.931 . S
C703 C702 1.385 . S
C703 C704 1.389 . S
C704 C703 1.389 . S
C704 C705 1.387 . S
C705 H690 0.930 . S
C705 C700 1.390 . S
C705 C704 1.387 . S
H706 C718 0.930 . S
H707 C720 0.930 . S
H708 C721 0.930 . S
H709 C725 0.959 . S
H710 C725 0.959 . S
H711 C725 0.961 . S
H712 C726 0.960 . S
H713 C726 0.961 . S
H714 C726 0.959 . S
H715 C729 0.929 . S
H716 C730 0.931 . S
H717 C732 0.930 . S
C718 H706 0.930 . S
C718 C719 1.399 1_455 S
C718 C723 1.399 . S
C719 C718 1.399 1_655 S
C719 C720 1.376 . S
C720 H707 0.930 . S
C720 C719 1.376 . S
C720 C721 1.388 . S
C721 H708 0.930 . S
C721 C720 1.388 . S
C721 C722 1.390 . S
C722 C721 1.390 . S
C722 C723 1.394 1_655 S
C722 C728 1.465 . S
C723 C718 1.399 . S
C723 C722 1.394 1_455 S
C723 C724 1.516 . S
C724 C723 1.516 . S
C724 C725 1.502 . S
C724 C726 1.561 1_455 S
C724 C727 1.526 . S
C725 H709 0.959 . S
C725 H710 0.959 . S
C725 H711 0.961 . S
C725 C724 1.502 . S
C726 H712 0.960 . S
C726 H713 0.961 . S
C726 H714 0.959 . S
C726 C724 1.561 1_655 S
C727 C724 1.526 . S
C727 C728 1.396 1_455 S
C727 C732 1.390 . S
C728 C722 1.465 . S
C728 C727 1.396 1_655 S
C728 C729 1.399 . S
C729 H715 0.929 . S
C729 C728 1.399 . S
C729 C730 1.385 . S
C730 H716 0.931 . S
C730 C729 1.385 . S
C730 C731 1.389 1_655 S
C731 C730 1.389 1_455 S
C731 C732 1.387 . S
C732 H717 0.930 . S
C732 C727 1.390 . S
C732 C731 1.387 . S
H733 C745 0.930 . S
H734 C747 0.930 . S
H735 C748 0.930 . S
H736 C752 0.959 1_556 S
H737 C752 0.959 . S
H738 C752 0.961 . S
H739 C753 0.960 . S
H740 C753 0.961 . S
H741 C753 0.959 . S
H742 C756 0.929 . S
H743 C757 0.931 . S
H744 C759 0.930 . S
C745 H733 0.930 . S
C745 C746 1.399 . S
C745 C750 1.399 . S
C746 C745 1.399 . S
C746 C747 1.376 1_554 S
C747 H734 0.930 . S
C747 C746 1.376 1_556 S
C747 C748 1.388 . S
C748 H735 0.930 . S
C748 C747 1.388 . S
C748 C749 1.390 . S
C749 C748 1.390 . S
C749 C750 1.394 1_556 S
C749 C755 1.465 . S
C750 C745 1.399 . S
C750 C749 1.394 1_554 S
C750 C751 1.516 . S
C751 C750 1.516 . S
C751 C752 1.502 . S
C751 C753 1.561 . S
C751 C754 1.526 . S
C752 H736 0.959 1_554 S
C752 H737 0.959 . S
C752 H738 0.961 . S
C752 C751 1.502 . S
C753 H739 0.960 . S
C753 H740 0.961 . S
C753 H741 0.959 . S
C753 C751 1.561 . S
C754 C751 1.526 . S
C754 C755 1.396 1_554 S
C754 C759 1.390 . S
C755 C749 1.465 . S
C755 C754 1.396 1_556 S
C755 C756 1.399 . S
C756 H742 0.929 . S
C756 C755 1.399 . S
C756 C757 1.385 . S
C757 H743 0.931 . S
C757 C756 1.385 . S
C757 C758 1.389 . S
C758 C757 1.389 . S
C758 C759 1.387 1_556 S
C759 H744 0.930 . S
C759 C754 1.390 . S
C759 C758 1.387 1_554 S
H760 C772 0.930 . S
H761 C774 0.930 . S
H762 C775 0.930 . S
H763 C779 0.959 1_655 S
H764 C779 0.959 . S
H765 C779 0.961 . S
H766 C780 0.960 . S
H767 C780 0.961 . S
H768 C780 0.959 . S
H769 C783 0.929 1_655 S
H770 C784 0.931 . S
H771 C786 0.930 . S
C772 H760 0.930 . S
C772 C773 1.399 . S
C772 C777 1.399 . S
C773 C772 1.399 . S
C773 C774 1.376 1_554 S
C774 H761 0.930 . S
C774 C773 1.376 1_556 S
C774 C775 1.388 . S
C775 H762 0.930 . S
C775 C774 1.388 . S
C775 C776 1.390 . S
C776 C775 1.390 . S
C776 C777 1.394 1_556 S
C776 C782 1.465 1_655 S
C777 C772 1.399 . S
C777 C776 1.394 1_554 S
C777 C778 1.516 1_655 S
C778 C777 1.516 1_455 S
C778 C779 1.502 . S
C778 C780 1.561 . S
C778 C781 1.526 . S
C779 H763 0.959 1_455 S
C779 H764 0.959 . S
C779 H765 0.961 . S
C779 C778 1.502 . S
C780 H766 0.960 . S
C780 H767 0.961 . S
C780 H768 0.959 . S
C780 C778 1.561 . S
C781 C778 1.526 . S
C781 C782 1.396 1_554 S
C781 C786 1.390 . S
C782 C776 1.465 1_455 S
C782 C781 1.396 1_556 S
C782 C783 1.399 . S
C783 H769 0.929 1_455 S
C783 C782 1.399 . S
C783 C784 1.385 . S
C784 H770 0.931 . S
C784 C783 1.385 . S
C784 C785 1.389 . S
C785 C784 1.389 . S
C785 C786 1.387 1_556 S
C786 H771 0.930 . S
C786 C781 1.390 . S
C786 C785 1.387 1_554 S
H787 C799 0.930 . S
H788 C801 0.930 . S
H789 C802 0.930 . S
H790 C806 0.959 . S
H791 C806 0.959 . S
H792 C806 0.961 . S
H793 C807 0.960 . S
H794 C807 0.961 . S
H795 C807 0.959 . S
H796 C810 0.929 . S
H797 C811 0.931 . S
H798 C813 0.930 . S
C799 H787 0.930 . S
C799 C800 1.399 . S
C799 C804 1.399 . S
C800 C799 1.399 . S
C800 C801 1.376 . S
C801 H788 0.930 . S
C801 C800 1.376 . S
C801 C802 1.388 . S
C802 H789 0.930 . S
C802 C801 1.388 . S
C802 C803 1.390 . S
C803 C802 1.390 . S
C803 C804 1.394 . S
C803 C809 1.465 . S
C804 C799 1.399 . S
C804 C803 1.394 . S
C804 C805 1.516 . S
C805 C804 1.516 . S
C805 C806 1.502 . S
C805 C807 1.561 . S
C805 C808 1.526 . S
C806 H790 0.959 . S
C806 H791 0.959 . S
C806 H792 0.961 . S
C806 C805 1.502 . S
C807 H793 0.960 . S
C807 H794 0.961 . S
C807 H795 0.959 . S
C807 C805 1.561 . S
C808 C805 1.526 . S
C808 C809 1.396 . S
C808 C813 1.390 . S
C809 C803 1.465 . S
C809 C808 1.396 . S
C809 C810 1.399 . S
C810 H796 0.929 . S
C810 C809 1.399 . S
C810 C811 1.385 . S
C811 H797 0.931 . S
C811 C810 1.385 . S
C811 C812 1.389 . S
C812 C811 1.389 . S
C812 C813 1.387 . S
C813 H798 0.930 . S
C813 C808 1.390 . S
C813 C812 1.387 . S
H814 C826 0.930 . S
H815 C828 0.930 . S
H816 C829 0.930 . S
H817 C833 0.959 . S
H818 C833 0.959 . S
H819 C833 0.961 . S
H820 C834 0.960 . S
H821 C834 0.961 . S
H822 C834 0.959 . S
H823 C837 0.929 . S
H824 C838 0.931 . S
H825 C840 0.930 . S
C826 H814 0.930 . S
C826 C827 1.399 . S
C826 C831 1.399 . S
C827 C826 1.399 . S
C827 C828 1.376 1_556 S
C828 H815 0.930 . S
C828 C827 1.376 1_554 S
C828 C829 1.388 . S
C829 H816 0.930 . S
C829 C828 1.388 . S
C829 C830 1.390 . S
C830 C829 1.390 . S
C830 C831 1.394 1_554 S
C830 C836 1.465 . S
C831 C826 1.399 . S
C831 C830 1.394 1_556 S
C831 C832 1.516 . S
C832 C831 1.516 . S
C832 C833 1.502 . S
C832 C834 1.561 . S
C832 C835 1.526 . S
C833 H817 0.959 . S
C833 H818 0.959 . S
C833 H819 0.961 . S
C833 C832 1.502 . S
C834 H820 0.960 . S
C834 H821 0.961 . S
C834 H822 0.959 . S
C834 C832 1.561 . S
C835 C832 1.526 . S
C835 C836 1.396 1_556 S
C835 C840 1.390 . S
C836 C830 1.465 . S
C836 C835 1.396 1_554 S
C836 C837 1.399 . S
C837 H823 0.929 . S
C837 C836 1.399 . S
C837 C838 1.385 . S
C838 H824 0.931 . S
C838 C837 1.385 . S
C838 C839 1.389 . S
C839 C838 1.389 . S
C839 C840 1.387 1_554 S
C840 H825 0.930 . S
C840 C835 1.390 . S
C840 C839 1.387 1_556 S
H841 C853 0.930 . S
H842 C855 0.930 . S
H843 C856 0.930 . S
H844 C860 0.959 . S
H845 C860 0.959 . S
H846 C860 0.961 . S
H847 C861 0.960 . S
H848 C861 0.961 . S
H849 C861 0.959 . S
H850 C864 0.929 . S
H851 C865 0.931 . S
H852 C867 0.930 . S
C853 H841 0.930 . S
C853 C854 1.399 . S
C853 C858 1.399 . S
C854 C853 1.399 . S
C854 C855 1.376 . S
C855 H842 0.930 . S
C855 C854 1.376 . S
C855 C856 1.388 . S
C856 H843 0.930 . S
C856 C855 1.388 . S
C856 C857 1.390 . S
C857 C856 1.390 . S
C857 C858 1.394 . S
C857 C863 1.465 . S
C858 C853 1.399 . S
C858 C857 1.394 . S
C858 C859 1.516 . S
C859 C858 1.516 . S
C859 C860 1.502 . S
C859 C861 1.561 . S
C859 C862 1.526 . S
C860 H844 0.959 . S
C860 H845 0.959 . S
C860 H846 0.961 . S
C860 C859 1.502 . S
C861 H847 0.960 . S
C861 H848 0.961 . S
C861 H849 0.959 . S
C861 C859 1.561 . S
C862 C859 1.526 . S
C862 C863 1.396 . S
C862 C867 1.390 . S
C863 C857 1.465 . S
C863 C862 1.396 . S
C863 C864 1.399 . S
C864 H850 0.929 . S
C864 C863 1.399 . S
C864 C865 1.385 . S
C865 H851 0.931 . S
C865 C864 1.385 . S
C865 C866 1.389 . S
C866 C865 1.389 . S
C866 C867 1.387 . S
C867 H852 0.930 . S
C867 C862 1.390 . S
C867 C866 1.387 . S
H868 C880 0.930 . S
H869 C882 0.930 . S
H870 C883 0.930 . S
H871 C887 0.927 1_565 S
H872 C887 0.937 1_565 S
H873 C887 1.004 . S
H874 C888 0.960 . S
H875 C888 0.961 . S
H876 C888 0.959 . S
H877 C891 0.929 . S
H878 C892 0.931 . S
H879 C894 0.930 . S
C880 H868 0.930 . S
C880 C881 1.399 1_554 S
C880 C885 1.399 . S
C881 C880 1.399 1_556 S
C881 C882 1.376 . S
C882 H869 0.930 . S
C882 C881 1.376 . S
C882 C883 1.388 . S
C883 H870 0.930 . S
C883 C882 1.388 . S
C883 C884 1.390 . S
C884 C883 1.390 . S
C884 C885 1.394 1_556 S
C884 C890 1.465 1_545 S
C885 C880 1.399 . S
C885 C884 1.394 1_554 S
C885 C886 1.516 . S
C886 C885 1.516 . S
C886 C887 1.516 . S
C886 C888 1.561 . S
C886 C889 1.526 1_545 S
C887 H871 0.927 1_545 S
C887 H872 0.937 1_545 S
C887 H873 1.004 . S
C887 C886 1.516 . S
C888 H874 0.960 . S
C888 H875 0.961 . S
C888 H876 0.959 . S
C888 C886 1.561 . S
C889 C886 1.526 1_565 S
C889 C890 1.396 1_554 S
C889 C894 1.390 . S
C890 C884 1.465 1_565 S
C890 C889 1.396 1_556 S
C890 C891 1.399 . S
C891 H877 0.929 . S
C891 C890 1.399 . S
C891 C892 1.385 . S
C892 H878 0.931 . S
C892 C891 1.385 . S
C892 C893 1.389 1_556 S
C893 C892 1.389 1_554 S
C893 C894 1.387 . S
C894 H879 0.930 . S
C894 C889 1.390 . S
C894 C893 1.387 . S
H895 C907 0.930 . S
H896 C909 0.930 . S
H897 C910 0.930 . S
H898 C914 0.959 . S
H899 C914 0.959 . S
H900 C914 0.961 . S
H901 C915 0.960 . S
H902 C915 0.961 . S
H903 C915 0.959 . S
H904 C918 0.929 . S
H905 C919 0.931 . S
H906 C921 0.930 . S
C907 H895 0.930 . S
C907 C908 1.399 . S
C907 C912 1.399 . S
C908 C907 1.399 . S
C908 C909 1.376 . S
C909 H896 0.930 . S
C909 C908 1.376 . S
C909 C910 1.388 . S
C910 H897 0.930 . S
C910 C909 1.388 . S
C910 C911 1.390 . S
C911 C910 1.390 . S
C911 C912 1.394 . S
C911 C917 1.465 . S
C912 C907 1.399 . S
C912 C911 1.394 . S
C912 C913 1.516 . S
C913 C912 1.516 . S
C913 C914 1.502 . S
C913 C915 1.561 . S
C913 C916 1.526 . S
C914 H898 0.959 . S
C914 H899 0.959 . S
C914 H900 0.961 . S
C914 C913 1.502 . S
C915 H901 0.960 . S
C915 H902 0.961 . S
C915 H903 0.959 . S
C915 C913 1.561 . S
C916 C913 1.526 . S
C916 C917 1.396 . S
C916 C921 1.390 . S
C917 C911 1.465 . S
C917 C916 1.396 . S
C917 C918 1.399 . S
C918 H904 0.929 . S
C918 C917 1.399 . S
C918 C919 1.385 . S
C919 H905 0.931 . S
C919 C918 1.385 . S
C919 C920 1.389 . S
C920 C919 1.389 . S
C920 C921 1.387 . S
C921 H906 0.930 . S
C921 C916 1.390 . S
C921 C920 1.387 . S
H922 C934 0.930 . S
H923 C936 0.930 . S
H924 C937 0.930 . S
H925 C941 0.959 . S
H926 C941 0.959 . S
H927 C941 0.961 . S
H928 C942 0.960 . S
H929 C942 0.961 . S
H930 C942 0.959 . S
H931 C945 0.929 . S
H932 C946 0.931 . S
H933 C948 0.930 . S
C934 H922 0.930 . S
C934 C935 1.399 . S
C934 C939 1.399 . S
C935 C934 1.399 . S
C935 C936 1.376 . S
C936 H923 0.930 . S
C936 C935 1.376 . S
C936 C937 1.388 . S
C937 H924 0.930 . S
C937 C936 1.388 . S
C937 C938 1.390 . S
C938 C937 1.390 . S
C938 C939 1.394 . S
C938 C944 1.465 . S
C939 C934 1.399 . S
C939 C938 1.394 . S
C939 C940 1.516 . S
C940 C939 1.516 . S
C940 C941 1.502 . S
C940 C942 1.561 . S
C940 C943 1.526 . S
C941 H925 0.959 . S
C941 H926 0.959 . S
C941 H927 0.961 . S
C941 C940 1.502 . S
C942 H928 0.960 . S
C942 H929 0.961 . S
C942 H930 0.959 . S
C942 C940 1.561 . S
C943 C940 1.526 . S
C943 C944 1.396 . S
C943 C948 1.390 . S
C944 C938 1.465 . S
C944 C943 1.396 . S
C944 C945 1.399 . S
C945 H931 0.929 . S
C945 C944 1.399 . S
C945 C946 1.385 . S
C946 H932 0.931 . S
C946 C945 1.385 . S
C946 C947 1.389 . S
C947 C946 1.389 . S
C947 C948 1.387 . S
C948 H933 0.930 . S
C948 C943 1.390 . S
C948 C947 1.387 . S
H949 C961 0.930 . S
H950 C963 0.930 . S
H951 C964 0.930 . S
H952 C968 0.959 . S
H953 C968 0.959 . S
H954 C968 0.961 . S
H955 C969 0.960 . S
H956 C969 0.961 . S
H957 C969 0.959 . S
H958 C972 0.929 . S
H959 C973 0.931 . S
H960 C975 0.930 . S
C961 H949 0.930 . S
C961 C962 1.399 . S
C961 C966 1.399 . S
C962 C961 1.399 . S
C962 C963 1.376 . S
C963 H950 0.930 . S
C963 C962 1.376 . S
C963 C964 1.388 . S
C964 H951 0.930 . S
C964 C963 1.388 . S
C964 C965 1.390 . S
C965 C964 1.390 . S
C965 C966 1.394 . S
C965 C971 1.465 . S
C966 C961 1.399 . S
C966 C965 1.394 . S
C966 C967 1.516 . S
C967 C966 1.516 . S
C967 C968 1.502 . S
C967 C969 1.561 . S
C967 C970 1.526 . S
C968 H952 0.959 . S
C968 H953 0.959 . S
C968 H954 0.961 . S
C968 C967 1.502 . S
C969 H955 0.960 . S
C969 H956 0.961 . S
C969 H957 0.959 . S
C969 C967 1.561 . S
C970 C967 1.526 . S
C970 C971 1.396 . S
C970 C975 1.390 . S
C971 C965 1.465 . S
C971 C970 1.396 . S
C971 C972 1.399 . S
C972 H958 0.929 . S
C972 C971 1.399 . S
C972 C973 1.385 . S
C973 H959 0.931 . S
C973 C972 1.385 . S
C973 C974 1.389 . S
C974 C973 1.389 . S
C974 C975 1.387 . S
C975 H960 0.930 . S
C975 C970 1.390 . S
C975 C974 1.387 . S
H976 C988 0.930 . S
H977 C990 0.930 . S
H978 C991 0.930 . S
H979 C995 0.959 . S
H980 C995 0.959 . S
H981 C995 0.961 . S
H982 C996 0.960 . S
H983 C996 0.961 . S
H984 C996 0.959 . S
H985 C999 0.929 . S
H986 C1000 0.931 . S
H987 C1002 0.930 . S
C988 H976 0.930 . S
C988 C989 1.399 . S
C988 C993 1.399 . S
C989 C988 1.399 . S
C989 C990 1.376 . S
C990 H977 0.930 . S
C990 C989 1.376 . S
C990 C991 1.388 . S
C991 H978 0.930 . S
C991 C990 1.388 . S
C991 C992 1.390 . S
C992 C991 1.390 . S
C992 C993 1.394 . S
C992 C998 1.465 . S
C993 C988 1.399 . S
C993 C992 1.394 . S
C993 C994 1.516 . S
C994 C993 1.516 . S
C994 C995 1.502 . S
C994 C996 1.561 . S
C994 C997 1.526 . S
C995 H979 0.959 . S
C995 H980 0.959 . S
C995 H981 0.961 . S
C995 C994 1.502 . S
C996 H982 0.960 . S
C996 H983 0.961 . S
C996 H984 0.959 . S
C996 C994 1.561 . S
C997 C994 1.526 . S
C997 C998 1.396 . S
C997 C1002 1.390 . S
C998 C992 1.465 . S
C998 C997 1.396 . S
C998 C999 1.399 . S
C999 H985 0.929 . S
C999 C998 1.399 . S
C999 C1000 1.385 . S
C1000 H986 0.931 . S
C1000 C999 1.385 . S
C1000 C1001 1.389 . S
C1001 C1000 1.389 . S
C1001 C1002 1.387 . S
C1002 H987 0.930 . S
C1002 C997 1.390 . S
C1002 C1001 1.387 . S
H1003 C1015 0.930 . S
H1004 C1017 0.930 . S
H1005 C1018 0.930 . S
H1006 C1022 0.959 . S
H1007 C1022 0.959 1_455 S
H1008 C1022 0.961 . S
H1009 C1023 0.960 . S
H1010 C1023 0.961 . S
H1011 C1023 0.959 . S
H1012 C1026 0.929 . S
H1013 C1027 0.931 . S
H1014 C1029 0.930 1_455 S
C1015 H1003 0.930 . S
C1015 C1016 1.399 . S
C1015 C1020 1.399 . S
C1016 C1015 1.399 . S
C1016 C1017 1.376 . S
C1017 H1004 0.930 . S
C1017 C1016 1.376 . S
C1017 C1018 1.388 . S
C1018 H1005 0.930 . S
C1018 C1017 1.388 . S
C1018 C1019 1.390 . S
C1019 C1018 1.390 . S
C1019 C1020 1.394 . S
C1019 C1025 1.465 . S
C1020 C1015 1.399 . S
C1020 C1019 1.394 . S
C1020 C1021 1.516 . S
C1021 C1020 1.516 . S
C1021 C1022 1.502 . S
C1021 C1023 1.561 . S
C1021 C1024 1.526 . S
C1022 H1006 0.959 . S
C1022 H1007 0.959 1_655 S
C1022 H1008 0.961 . S
C1022 C1021 1.502 . S
C1023 H1009 0.960 . S
C1023 H1010 0.961 . S
C1023 H1011 0.959 . S
C1023 C1021 1.561 . S
C1024 C1021 1.526 . S
C1024 C1025 1.396 . S
C1024 C1029 1.390 . S
C1025 C1019 1.465 . S
C1025 C1024 1.396 . S
C1025 C1026 1.399 . S
C1026 H1012 0.929 . S
C1026 C1025 1.399 . S
C1026 C1027 1.385 . S
C1027 H1013 0.931 . S
C1027 C1026 1.385 . S
C1027 C1028 1.389 . S
C1028 C1027 1.389 . S
C1028 C1029 1.387 . S
C1029 H1014 0.930 1_655 S
C1029 C1024 1.390 . S
C1029 C1028 1.387 . S
H1030 C1042 0.930 . S
H1031 C1044 0.930 . S
H1032 C1045 0.930 . S
H1033 C1049 0.959 . S
H1034 C1049 0.959 . S
H1035 C1049 0.961 . S
H1036 C1050 0.960 . S
H1037 C1050 0.961 . S
H1038 C1050 0.959 . S
H1039 C1053 0.929 . S
H1040 C1054 0.931 . S
H1041 C1056 0.930 . S
C1042 H1030 0.930 . S
C1042 C1043 1.399 . S
C1042 C1047 1.399 . S
C1043 C1042 1.399 . S
C1043 C1044 1.376 . S
C1044 H1031 0.930 . S
C1044 C1043 1.376 . S
C1044 C1045 1.388 . S
C1045 H1032 0.930 . S
C1045 C1044 1.388 . S
C1045 C1046 1.390 . S
C1046 C1045 1.390 . S
C1046 C1047 1.394 . S
C1046 C1052 1.465 . S
C1047 C1042 1.399 . S
C1047 C1046 1.394 . S
C1047 C1048 1.516 . S
C1048 C1047 1.516 . S
C1048 C1049 1.502 . S
C1048 C1050 1.561 . S
C1048 C1051 1.526 . S
C1049 H1033 0.959 . S
C1049 H1034 0.959 . S
C1049 H1035 0.961 . S
C1049 C1048 1.502 . S
C1050 H1036 0.960 . S
C1050 H1037 0.961 . S
C1050 H1038 0.959 . S
C1050 C1048 1.561 . S
C1051 C1048 1.526 . S
C1051 C1052 1.396 . S
C1051 C1056 1.390 . S
C1052 C1046 1.465 . S
C1052 C1051 1.396 . S
C1052 C1053 1.399 . S
C1053 H1039 0.929 . S
C1053 C1052 1.399 . S
C1053 C1054 1.385 . S
C1054 H1040 0.931 . S
C1054 C1053 1.385 . S
C1054 C1055 1.389 . S
C1055 C1054 1.389 . S
C1055 C1056 1.387 . S
C1056 H1041 0.930 . S
C1056 C1051 1.390 . S
C1056 C1055 1.387 . S
H1057 C1069 0.930 . S
H1058 C1071 0.930 . S
H1059 C1072 0.930 1_455 S
H1060 C1076 0.959 . S
H1061 C1076 0.959 . S
H1062 C1076 0.961 . S
H1063 C1077 0.960 . S
H1064 C1077 0.961 . S
H1065 C1077 0.959 . S
H1066 C1080 0.929 . S
H1067 C1081 0.931 . S
H1068 C1083 0.930 . S
C1069 H1057 0.930 . S
C1069 C1070 1.399 . S
C1069 C1074 1.399 . S
C1070 C1069 1.399 . S
C1070 C1071 1.376 1_655 S
C1071 H1058 0.930 . S
C1071 C1070 1.376 1_455 S
C1071 C1072 1.388 1_455 S
C1072 H1059 0.930 1_655 S
C1072 C1071 1.388 1_655 S
C1072 C1073 1.390 . S
C1073 C1072 1.390 . S
C1073 C1074 1.394 . S
C1073 C1079 1.465 . S
C1074 C1069 1.399 . S
C1074 C1073 1.394 . S
C1074 C1075 1.516 . S
C1075 C1074 1.516 . S
C1075 C1076 1.502 . S
C1075 C1077 1.561 . S
C1075 C1078 1.526 . S
C1076 H1060 0.959 . S
C1076 H1061 0.959 . S
C1076 H1062 0.961 . S
C1076 C1075 1.502 . S
C1077 H1063 0.960 . S
C1077 H1064 0.961 . S
C1077 H1065 0.959 . S
C1077 C1075 1.561 . S
C1078 C1075 1.526 . S
C1078 C1079 1.396 . S
C1078 C1083 1.390 . S
C1079 C1073 1.465 . S
C1079 C1078 1.396 . S
C1079 C1080 1.399 . S
C1080 H1066 0.929 . S
C1080 C1079 1.399 . S
C1080 C1081 1.385 . S
C1081 H1067 0.931 . S
C1081 C1080 1.385 . S
C1081 C1082 1.389 . S
C1082 C1081 1.389 . S
C1082 C1083 1.387 . S
C1083 H1068 0.930 . S
C1083 C1078 1.390 . S
C1083 C1082 1.387 . S
H1084 C1096 0.930 . S
H1085 C1098 0.930 . S
H1086 C1099 0.930 . S
H1087 C1103 0.959 . S
H1088 C1103 0.959 . S
H1089 C1103 0.961 . S
H1090 C1104 0.960 . S
H1091 C1104 0.961 . S
H1092 C1104 0.959 . S
H1093 C1107 0.929 . S
H1094 C1108 0.931 . S
H1095 C1110 0.930 . S
C1096 H1084 0.930 . S
C1096 C1097 1.399 . S
C1096 C1101 1.399 . S
C1097 C1096 1.399 . S
C1097 C1098 1.376 . S
C1098 H1085 0.930 . S
C1098 C1097 1.376 . S
C1098 C1099 1.388 . S
C1099 H1086 0.930 . S
C1099 C1098 1.388 . S
C1099 C1100 1.390 . S
C1100 C1099 1.390 . S
C1100 C1101 1.394 . S
C1100 C1106 1.465 . S
C1101 C1096 1.399 . S
C1101 C1100 1.394 . S
C1101 C1102 1.516 . S
C1102 C1101 1.516 . S
C1102 C1103 1.502 . S
C1102 C1104 1.561 . S
C1102 C1105 1.526 . S
C1103 H1087 0.959 . S
C1103 H1088 0.959 . S
C1103 H1089 0.961 . S
C1103 C1102 1.502 . S
C1104 H1090 0.960 . S
C1104 H1091 0.961 . S
C1104 H1092 0.959 . S
C1104 C1102 1.561 . S
C1105 C1102 1.526 . S
C1105 C1106 1.396 . S
C1105 C1110 1.390 . S
C1106 C1100 1.465 . S
C1106 C1105 1.396 . S
C1106 C1107 1.399 . S
C1107 H1093 0.929 . S
C1107 C1106 1.399 . S
C1107 C1108 1.385 . S
C1108 H1094 0.931 . S
C1108 C1107 1.385 . S
C1108 C1109 1.389 . S
C1109 C1108 1.389 . S
C1109 C1110 1.387 . S
C1110 H1095 0.930 . S
C1110 C1105 1.390 . S
C1110 C1109 1.387 . S
H1111 C1123 0.930 . S
H1112 C1125 0.930 . S
H1113 C1126 0.930 . S
H1114 C1130 0.959 . S
H1115 C1130 0.959 . S
H1116 C1130 0.961 . S
H1117 C1131 0.960 . S
H1118 C1131 0.961 . S
H1119 C1131 0.959 . S
H1120 C1134 0.929 . S
H1121 C1135 0.931 . S
H1122 C1137 0.930 . S
C1123 H1111 0.930 . S
C1123 C1124 1.399 . S
C1123 C1128 1.399 . S
C1124 C1123 1.399 . S
C1124 C1125 1.376 . S
C1125 H1112 0.930 . S
C1125 C1124 1.376 . S
C1125 C1126 1.388 . S
C1126 H1113 0.930 . S
C1126 C1125 1.388 . S
C1126 C1127 1.390 . S
C1127 C1126 1.390 . S
C1127 C1128 1.394 . S
C1127 C1133 1.465 . S
C1128 C1123 1.399 . S
C1128 C1127 1.394 . S
C1128 C1129 1.516 . S
C1129 C1128 1.516 . S
C1129 C1130 1.502 . S
C1129 C1131 1.561 . S
C1129 C1132 1.526 . S
C1130 H1114 0.959 . S
C1130 H1115 0.959 . S
C1130 H1116 0.961 . S
C1130 C1129 1.502 . S
C1131 H1117 0.960 . S
C1131 H1118 0.961 . S
C1131 H1119 0.959 . S
C1131 C1129 1.561 . S
C1132 C1129 1.526 . S
C1132 C1133 1.396 . S
C1132 C1137 1.390 . S
C1133 C1127 1.465 . S
C1133 C1132 1.396 . S
C1133 C1134 1.399 . S
C1134 H1120 0.929 . S
C1134 C1133 1.399 . S
C1134 C1135 1.385 . S
C1135 H1121 0.931 . S
C1135 C1134 1.385 . S
C1135 C1136 1.389 . S
C1136 C1135 1.389 . S
C1136 C1137 1.387 . S
C1137 H1122 0.930 . S
C1137 C1132 1.390 . S
C1137 C1136 1.387 . S
H1138 C1150 0.930 . S
H1139 C1152 0.930 . S
H1140 C1153 0.930 . S
H1141 C1157 0.959 . S
H1142 C1157 0.959 . S
H1143 C1157 0.961 . S
H1144 C1158 0.960 . S
H1145 C1158 0.961 . S
H1146 C1158 0.959 . S
H1147 C1161 0.929 . S
H1148 C1162 0.931 . S
H1149 C1164 0.930 . S
C1150 H1138 0.930 . S
C1150 C1151 1.399 . S
C1150 C1155 1.399 . S
C1151 C1150 1.399 . S
C1151 C1152 1.376 . S
C1152 H1139 0.930 . S
C1152 C1151 1.376 . S
C1152 C1153 1.388 . S
C1153 H1140 0.930 . S
C1153 C1152 1.388 . S
C1153 C1154 1.390 . S
C1154 C1153 1.390 . S
C1154 C1155 1.394 . S
C1154 C1160 1.465 . S
C1155 C1150 1.399 . S
C1155 C1154 1.394 . S
C1155 C1156 1.516 . S
C1156 C1155 1.516 . S
C1156 C1157 1.502 . S
C1156 C1158 1.561 . S
C1156 C1159 1.526 . S
C1157 H1141 0.959 . S
C1157 H1142 0.959 . S
C1157 H1143 0.961 . S
C1157 C1156 1.502 . S
C1158 H1144 0.960 . S
C1158 H1145 0.961 . S
C1158 H1146 0.959 . S
C1158 C1156 1.561 . S
C1159 C1156 1.526 . S
C1159 C1160 1.396 . S
C1159 C1164 1.390 . S
C1160 C1154 1.465 . S
C1160 C1159 1.396 . S
C1160 C1161 1.399 . S
C1161 H1147 0.929 . S
C1161 C1160 1.399 . S
C1161 C1162 1.385 . S
C1162 H1148 0.931 . S
C1162 C1161 1.385 . S
C1162 C1163 1.389 . S
C1163 C1162 1.389 . S
C1163 C1164 1.387 . S
C1164 H1149 0.930 . S
C1164 C1159 1.390 . S
C1164 C1163 1.387 . S
H1165 C1177 0.930 . S
H1166 C1179 0.930 . S
H1167 C1180 0.930 . S
H1168 C1184 0.959 . S
H1169 C1184 0.959 . S
H1170 C1184 0.961 . S
H1171 C1185 0.960 . S
H1172 C1185 0.961 . S
H1173 C1185 0.959 . S
H1174 C1188 0.929 . S
H1175 C1189 0.931 . S
H1176 C1191 0.930 . S
C1177 H1165 0.930 . S
C1177 C1178 1.399 . S
C1177 C1182 1.399 . S
C1178 C1177 1.399 . S
C1178 C1179 1.376 . S
C1179 H1166 0.930 . S
C1179 C1178 1.376 . S
C1179 C1180 1.388 . S
C1180 H1167 0.930 . S
C1180 C1179 1.388 . S
C1180 C1181 1.390 . S
C1181 C1180 1.390 . S
C1181 C1182 1.394 . S
C1181 C1187 1.465 . S
C1182 C1177 1.399 . S
C1182 C1181 1.394 . S
C1182 C1183 1.516 . S
C1183 C1182 1.516 . S
C1183 C1184 1.502 . S
C1183 C1185 1.561 . S
C1183 C1186 1.526 . S
C1184 H1168 0.959 . S
C1184 H1169 0.959 . S
C1184 H1170 0.961 . S
C1184 C1183 1.502 . S
C1185 H1171 0.960 . S
C1185 H1172 0.961 . S
C1185 H1173 0.959 . S
C1185 C1183 1.561 . S
C1186 C1183 1.526 . S
C1186 C1187 1.396 . S
C1186 C1191 1.390 . S
C1187 C1181 1.465 . S
C1187 C1186 1.396 . S
C1187 C1188 1.399 . S
C1188 H1174 0.929 . S
C1188 C1187 1.399 . S
C1188 C1189 1.385 . S
C1189 H1175 0.931 . S
C1189 C1188 1.385 . S
C1189 C1190 1.389 . S
C1190 C1189 1.389 . S
C1190 C1191 1.387 . S
C1191 H1176 0.930 . S
C1191 C1186 1.390 . S
C1191 C1190 1.387 . S
H1192 C1204 0.930 . S
H1193 C1206 0.930 . S
H1194 C1207 0.930 . S
H1195 C1211 0.959 . S
H1196 C1211 0.959 . S
H1197 C1211 0.961 . S
H1198 C1212 0.960 . S
H1199 C1212 0.961 . S
H1200 C1212 0.959 . S
H1201 C1215 0.929 . S
H1202 C1216 0.931 . S
H1203 C1218 0.930 . S
C1204 H1192 0.930 . S
C1204 C1205 1.399 . S
C1204 C1209 1.399 . S
C1205 C1204 1.399 . S
C1205 C1206 1.376 . S
C1206 H1193 0.930 . S
C1206 C1205 1.376 . S
C1206 C1207 1.388 . S
C1207 H1194 0.930 . S
C1207 C1206 1.388 . S
C1207 C1208 1.390 . S
C1208 C1207 1.390 . S
C1208 C1209 1.394 . S
C1208 C1214 1.465 . S
C1209 C1204 1.399 . S
C1209 C1208 1.394 . S
C1209 C1210 1.516 . S
C1210 C1209 1.516 . S
C1210 C1211 1.502 . S
C1210 C1212 1.561 . S
C1210 C1213 1.526 . S
C1211 H1195 0.959 . S
C1211 H1196 0.959 . S
C1211 H1197 0.961 . S
C1211 C1210 1.502 . S
C1212 H1198 0.960 . S
C1212 H1199 0.961 . S
C1212 H1200 0.959 . S
C1212 C1210 1.561 . S
C1213 C1210 1.526 . S
C1213 C1214 1.396 . S
C1213 C1218 1.390 . S
C1214 C1208 1.465 . S
C1214 C1213 1.396 . S
C1214 C1215 1.399 . S
C1215 H1201 0.929 . S
C1215 C1214 1.399 . S
C1215 C1216 1.385 . S
C1216 H1202 0.931 . S
C1216 C1215 1.385 . S
C1216 C1217 1.389 . S
C1217 C1216 1.389 . S
C1217 C1218 1.387 . S
C1218 H1203 0.930 . S
C1218 C1213 1.390 . S
C1218 C1217 1.387 . S
H1219 C1231 0.930 . S
H1220 C1233 0.930 . S
H1221 C1234 0.930 . S
H1222 C1238 0.959 . S
H1223 C1238 0.959 . S
H1224 C1238 0.961 . S
H1225 C1239 0.960 . S
H1226 C1239 0.961 . S
H1227 C1239 0.959 . S
H1228 C1242 0.929 . S
H1229 C1243 0.931 1_455 S
H1230 C1245 0.930 . S
C1231 H1219 0.930 . S
C1231 C1232 1.399 . S
C1231 C1236 1.399 . S
C1232 C1231 1.399 . S
C1232 C1233 1.376 . S
C1233 H1220 0.930 . S
C1233 C1232 1.376 . S
C1233 C1234 1.388 . S
C1234 H1221 0.930 . S
C1234 C1233 1.388 . S
C1234 C1235 1.390 . S
C1235 C1234 1.390 . S
C1235 C1236 1.394 . S
C1235 C1241 1.465 . S
C1236 C1231 1.399 . S
C1236 C1235 1.394 . S
C1236 C1237 1.516 . S
C1237 C1236 1.516 . S
C1237 C1238 1.502 . S
C1237 C1239 1.561 . S
C1237 C1240 1.526 . S
C1238 H1222 0.959 . S
C1238 H1223 0.959 . S
C1238 H1224 0.961 . S
C1238 C1237 1.502 . S
C1239 H1225 0.960 . S
C1239 H1226 0.961 . S
C1239 H1227 0.959 . S
C1239 C1237 1.561 . S
C1240 C1237 1.526 . S
C1240 C1241 1.396 . S
C1240 C1245 1.390 . S
C1241 C1235 1.465 . S
C1241 C1240 1.396 . S
C1241 C1242 1.399 . S
C1242 H1228 0.929 . S
C1242 C1241 1.399 . S
C1242 C1243 1.385 . S
C1243 H1229 0.931 1_655 S
C1243 C1242 1.385 . S
C1243 C1244 1.389 . S
C1244 C1243 1.389 . S
C1244 C1245 1.387 . S
C1245 H1230 0.930 . S
C1245 C1240 1.390 . S
C1245 C1244 1.387 . S
H1246 C1258 0.930 . S
H1247 C1260 0.930 . S
H1248 C1261 0.930 . S
H1249 C1265 0.959 . S
H1250 C1265 0.959 . S
H1251 C1265 0.961 . S
H1252 C1266 0.960 . S
H1253 C1266 0.961 . S
H1254 C1266 0.959 . S
H1255 C1269 0.929 . S
H1256 C1270 0.931 . S
H1257 C1272 0.930 . S
C1258 H1246 0.930 . S
C1258 C1259 1.399 . S
C1258 C1263 1.399 . S
C1259 C1258 1.399 . S
C1259 C1260 1.376 . S
C1260 H1247 0.930 . S
C1260 C1259 1.376 . S
C1260 C1261 1.388 . S
C1261 H1248 0.930 . S
C1261 C1260 1.388 . S
C1261 C1262 1.390 . S
C1262 C1261 1.390 . S
C1262 C1263 1.394 . S
C1262 C1268 1.465 . S
C1263 C1258 1.399 . S
C1263 C1262 1.394 . S
C1263 C1264 1.516 . S
C1264 C1263 1.516 . S
C1264 C1265 1.502 . S
C1264 C1266 1.561 . S
C1264 C1267 1.526 . S
C1265 H1249 0.959 . S
C1265 H1250 0.959 . S
C1265 H1251 0.961 . S
C1265 C1264 1.502 . S
C1266 H1252 0.960 . S
C1266 H1253 0.961 . S
C1266 H1254 0.959 . S
C1266 C1264 1.561 . S
C1267 C1264 1.526 . S
C1267 C1268 1.396 . S
C1267 C1272 1.390 . S
C1268 C1262 1.465 . S
C1268 C1267 1.396 . S
C1268 C1269 1.399 . S
C1269 H1255 0.929 . S
C1269 C1268 1.399 . S
C1269 C1270 1.385 . S
C1270 H1256 0.931 . S
C1270 C1269 1.385 . S
C1270 C1271 1.389 . S
C1271 C1270 1.389 . S
C1271 C1272 1.387 . S
C1272 H1257 0.930 . S
C1272 C1267 1.390 . S
C1272 C1271 1.387 . S
H1273 C1285 0.930 . S
H1274 C1287 0.930 . S
H1275 C1288 0.930 . S
H1276 C1292 0.959 . S
H1277 C1292 0.959 1_455 S
H1278 C1292 0.961 . S
H1279 C1293 0.960 . S
H1280 C1293 0.961 . S
H1281 C1293 0.959 . S
H1282 C1296 0.929 . S
H1283 C1297 0.931 . S
H1284 C1299 0.930 1_455 S
C1285 H1273 0.930 . S
C1285 C1286 1.399 . S
C1285 C1290 1.399 . S
C1286 C1285 1.399 . S
C1286 C1287 1.376 . S
C1287 H1274 0.930 . S
C1287 C1286 1.376 . S
C1287 C1288 1.388 . S
C1288 H1275 0.930 . S
C1288 C1287 1.388 . S
C1288 C1289 1.390 . S
C1289 C1288 1.390 . S
C1289 C1290 1.394 . S
C1289 C1295 1.465 . S
C1290 C1285 1.399 . S
C1290 C1289 1.394 . S
C1290 C1291 1.516 . S
C1291 C1290 1.516 . S
C1291 C1292 1.502 . S
C1291 C1293 1.561 . S
C1291 C1294 1.526 . S
C1292 H1276 0.959 . S
C1292 H1277 0.959 1_655 S
C1292 H1278 0.961 . S
C1292 C1291 1.502 . S
C1293 H1279 0.960 . S
C1293 H1280 0.961 . S
C1293 H1281 0.959 . S
C1293 C1291 1.561 . S
C1294 C1291 1.526 . S
C1294 C1295 1.396 . S
C1294 C1299 1.390 . S
C1295 C1289 1.465 . S
C1295 C1294 1.396 . S
C1295 C1296 1.399 . S
C1296 H1282 0.929 . S
C1296 C1295 1.399 . S
C1296 C1297 1.385 . S
C1297 H1283 0.931 . S
C1297 C1296 1.385 . S
C1297 C1298 1.389 . S
C1298 C1297 1.389 . S
C1298 C1299 1.387 . S
C1299 H1284 0.930 1_655 S
C1299 C1294 1.390 . S
C1299 C1298 1.387 . S
H1300 C1312 0.930 . S
H1301 C1314 0.930 . S
H1302 C1315 0.930 . S
H1303 C1319 0.959 . S
H1304 C1319 0.959 . S
H1305 C1319 0.961 . S
H1306 C1320 0.960 . S
H1307 C1320 0.961 . S
H1308 C1320 0.959 . S
H1309 C1323 0.929 . S
H1310 C1324 0.931 . S
H1311 C1326 0.930 . S
C1312 H1300 0.930 . S
C1312 C1313 1.399 . S
C1312 C1317 1.399 . S
C1313 C1312 1.399 . S
C1313 C1314 1.376 . S
C1314 H1301 0.930 . S
C1314 C1313 1.376 . S
C1314 C1315 1.388 . S
C1315 H1302 0.930 . S
C1315 C1314 1.388 . S
C1315 C1316 1.390 . S
C1316 C1315 1.390 . S
C1316 C1317 1.394 . S
C1316 C1322 1.465 . S
C1317 C1312 1.399 . S
C1317 C1316 1.394 . S
C1317 C1318 1.516 . S
C1318 C1317 1.516 . S
C1318 C1319 1.502 . S
C1318 C1320 1.561 . S
C1318 C1321 1.526 . S
C1319 H1303 0.959 . S
C1319 H1304 0.959 . S
C1319 H1305 0.961 . S
C1319 C1318 1.502 . S
C1320 H1306 0.960 . S
C1320 H1307 0.961 . S
C1320 H1308 0.959 . S
C1320 C1318 1.561 . S
C1321 C1318 1.526 . S
C1321 C1322 1.396 . S
C1321 C1326 1.390 . S
C1322 C1316 1.465 . S
C1322 C1321 1.396 . S
C1322 C1323 1.399 . S
C1323 H1309 0.929 . S
C1323 C1322 1.399 . S
C1323 C1324 1.385 . S
C1324 H1310 0.931 . S
C1324 C1323 1.385 . S
C1324 C1325 1.389 . S
C1325 C1324 1.389 . S
C1325 C1326 1.387 . S
C1326 H1311 0.930 . S
C1326 C1321 1.390 . S
C1326 C1325 1.387 . S
H1327 C1339 0.930 1_655 S
H1328 C1341 0.930 . S
H1329 C1342 0.930 . S
H1330 C1346 0.959 . S
H1331 C1346 0.959 . S
H1332 C1346 0.961 1_655 S
H1333 C1347 0.960 . S
H1334 C1347 0.961 . S
H1335 C1347 0.959 . S
H1336 C1350 0.929 . S
H1337 C1351 0.931 . S
H1338 C1353 0.930 . S
C1339 H1327 0.930 1_455 S
C1339 C1340 1.399 . S
C1339 C1344 1.399 . S
C1340 C1339 1.399 . S
C1340 C1341 1.376 . S
C1341 H1328 0.930 . S
C1341 C1340 1.376 . S
C1341 C1342 1.388 . S
C1342 H1329 0.930 . S
C1342 C1341 1.388 . S
C1342 C1343 1.390 . S
C1343 C1342 1.390 . S
C1343 C1344 1.394 . S
C1343 C1349 1.465 . S
C1344 C1339 1.399 . S
C1344 C1343 1.394 . S
C1344 C1345 1.516 . S
C1345 C1344 1.516 . S
C1345 C1346 1.502 . S
C1345 C1347 1.561 . S
C1345 C1348 1.526 . S
C1346 H1330 0.959 . S
C1346 H1331 0.959 . S
C1346 H1332 0.961 1_455 S
C1346 C1345 1.502 . S
C1347 H1333 0.960 . S
C1347 H1334 0.961 . S
C1347 H1335 0.959 . S
C1347 C1345 1.561 . S
C1348 C1345 1.526 . S
C1348 C1349 1.396 . S
C1348 C1353 1.390 . S
C1349 C1343 1.465 . S
C1349 C1348 1.396 . S
C1349 C1350 1.399 . S
C1350 H1336 0.929 . S
C1350 C1349 1.399 . S
C1350 C1351 1.385 . S
C1351 H1337 0.931 . S
C1351 C1350 1.385 . S
C1351 C1352 1.389 . S
C1352 C1351 1.389 . S
C1352 C1353 1.387 . S
C1353 H1338 0.930 . S
C1353 C1348 1.390 . S
C1353 C1352 1.387 . S
H1354 C1366 0.930 . S
H1355 C1368 0.930 . S
H1356 C1369 0.930 . S
H1357 C1373 0.959 . S
H1358 C1373 0.959 . S
H1359 C1373 0.961 . S
H1360 C1374 0.960 . S
H1361 C1374 0.961 . S
H1362 C1374 0.959 . S
H1363 C1377 0.929 . S
H1364 C1378 0.931 . S
H1365 C1380 0.930 . S
C1366 H1354 0.930 . S
C1366 C1367 1.399 . S
C1366 C1371 1.399 . S
C1367 C1366 1.399 . S
C1367 C1368 1.376 . S
C1368 H1355 0.930 . S
C1368 C1367 1.376 . S
C1368 C1369 1.388 . S
C1369 H1356 0.930 . S
C1369 C1368 1.388 . S
C1369 C1370 1.390 . S
C1370 C1369 1.390 . S
C1370 C1371 1.394 . S
C1370 C1376 1.465 . S
C1371 C1366 1.399 . S
C1371 C1370 1.394 . S
C1371 C1372 1.516 . S
C1372 C1371 1.516 . S
C1372 C1373 1.502 . S
C1372 C1374 1.561 . S
C1372 C1375 1.526 . S
C1373 H1357 0.959 . S
C1373 H1358 0.959 . S
C1373 H1359 0.961 . S
C1373 C1372 1.502 . S
C1374 H1360 0.960 . S
C1374 H1361 0.961 . S
C1374 H1362 0.959 . S
C1374 C1372 1.561 . S
C1375 C1372 1.526 . S
C1375 C1376 1.396 . S
C1375 C1380 1.390 . S
C1376 C1370 1.465 . S
C1376 C1375 1.396 . S
C1376 C1377 1.399 . S
C1377 H1363 0.929 . S
C1377 C1376 1.399 . S
C1377 C1378 1.385 . S
C1378 H1364 0.931 . S
C1378 C1377 1.385 . S
C1378 C1379 1.389 . S
C1379 C1378 1.389 . S
C1379 C1380 1.387 . S
C1380 H1365 0.930 . S
C1380 C1375 1.390 . S
C1380 C1379 1.387 . S
H1381 C1393 0.930 . S
H1382 C1395 0.930 1_655 S
H1383 C1396 0.930 . S
H1384 C1400 0.959 . S
H1385 C1400 0.959 . S
H1386 C1400 0.961 . S
H1387 C1401 0.960 . S
H1388 C1401 0.961 . S
H1389 C1401 0.959 . S
H1390 C1404 0.929 . S
H1391 C1405 0.931 . S
H1392 C1407 0.930 . S
C1393 H1381 0.930 . S
C1393 C1394 1.399 . S
C1393 C1398 1.399 . S
C1394 C1393 1.399 . S
C1394 C1395 1.376 . S
C1395 H1382 0.930 1_455 S
C1395 C1394 1.376 . S
C1395 C1396 1.388 . S
C1396 H1383 0.930 . S
C1396 C1395 1.388 . S
C1396 C1397 1.390 . S
C1397 C1396 1.390 . S
C1397 C1398 1.394 . S
C1397 C1403 1.465 . S
C1398 C1393 1.399 . S
C1398 C1397 1.394 . S
C1398 C1399 1.516 . S
C1399 C1398 1.516 . S
C1399 C1400 1.502 . S
C1399 C1401 1.561 . S
C1399 C1402 1.526 . S
C1400 H1384 0.959 . S
C1400 H1385 0.959 . S
C1400 H1386 0.961 . S
C1400 C1399 1.502 . S
C1401 H1387 0.960 . S
C1401 H1388 0.961 . S
C1401 H1389 0.959 . S
C1401 C1399 1.561 . S
C1402 C1399 1.526 . S
C1402 C1403 1.396 . S
C1402 C1407 1.390 . S
C1403 C1397 1.465 . S
C1403 C1402 1.396 . S
C1403 C1404 1.399 . S
C1404 H1390 0.929 . S
C1404 C1403 1.399 . S
C1404 C1405 1.385 . S
C1405 H1391 0.931 . S
C1405 C1404 1.385 . S
C1405 C1406 1.389 . S
C1406 C1405 1.389 . S
C1406 C1407 1.387 . S
C1407 H1392 0.930 . S
C1407 C1402 1.390 . S
C1407 C1406 1.387 . S
H1408 C1420 0.930 . S
H1409 C1422 0.930 . S
H1410 C1423 0.930 . S
H1411 C1427 0.959 . S
H1412 C1427 0.959 . S
H1413 C1427 0.961 . S
H1414 C1428 0.960 . S
H1415 C1428 0.961 . S
H1416 C1428 0.959 . S
H1417 C1431 0.929 . S
H1418 C1432 0.931 . S
H1419 C1434 0.930 . S
C1420 H1408 0.930 . S
C1420 C1421 1.399 . S
C1420 C1425 1.399 . S
C1421 C1420 1.399 . S
C1421 C1422 1.376 . S
C1422 H1409 0.930 . S
C1422 C1421 1.376 . S
C1422 C1423 1.388 . S
C1423 H1410 0.930 . S
C1423 C1422 1.388 . S
C1423 C1424 1.390 . S
C1424 C1423 1.390 . S
C1424 C1425 1.394 . S
C1424 C1430 1.465 . S
C1425 C1420 1.399 . S
C1425 C1424 1.394 . S
C1425 C1426 1.516 . S
C1426 C1425 1.516 . S
C1426 C1427 1.502 . S
C1426 C1428 1.561 1_455 S
C1426 C1429 1.526 . S
C1427 H1411 0.959 . S
C1427 H1412 0.959 . S
C1427 H1413 0.961 . S
C1427 C1426 1.502 . S
C1428 H1414 0.960 . S
C1428 H1415 0.961 . S
C1428 H1416 0.959 . S
C1428 C1426 1.561 1_655 S
C1429 C1426 1.526 . S
C1429 C1430 1.396 . S
C1429 C1434 1.390 . S
C1430 C1424 1.465 . S
C1430 C1429 1.396 . S
C1430 C1431 1.399 . S
C1431 H1417 0.929 . S
C1431 C1430 1.399 . S
C1431 C1432 1.385 . S
C1432 H1418 0.931 . S
C1432 C1431 1.385 . S
C1432 C1433 1.389 . S
C1433 C1432 1.389 . S
C1433 C1434 1.387 . S
C1434 H1419 0.930 . S
C1434 C1429 1.390 . S
C1434 C1433 1.387 . S
H1435 C1447 0.930 . S
H1436 C1449 0.930 . S
H1437 C1450 0.930 . S
H1438 C1454 0.959 . S
H1439 C1454 0.959 . S
H1440 C1454 0.961 . S
H1441 C1455 0.960 . S
H1442 C1455 0.961 . S
H1443 C1455 0.959 . S
H1444 C1458 0.929 . S
H1445 C1459 0.931 . S
H1446 C1461 0.930 . S
C1447 H1435 0.930 . S
C1447 C1448 1.399 . S
C1447 C1452 1.399 . S
C1448 C1447 1.399 . S
C1448 C1449 1.376 . S
C1449 H1436 0.930 . S
C1449 C1448 1.376 . S
C1449 C1450 1.388 . S
C1450 H1437 0.930 . S
C1450 C1449 1.388 . S
C1450 C1451 1.390 . S
C1451 C1450 1.390 . S
C1451 C1452 1.394 . S
C1451 C1457 1.465 . S
C1452 C1447 1.399 . S
C1452 C1451 1.394 . S
C1452 C1453 1.516 . S
C1453 C1452 1.516 . S
C1453 C1454 1.502 . S
C1453 C1455 1.561 . S
C1453 C1456 1.526 . S
C1454 H1438 0.959 . S
C1454 H1439 0.959 . S
C1454 H1440 0.961 . S
C1454 C1453 1.502 . S
C1455 H1441 0.960 . S
C1455 H1442 0.961 . S
C1455 H1443 0.959 . S
C1455 C1453 1.561 . S
C1456 C1453 1.526 . S
C1456 C1457 1.396 . S
C1456 C1461 1.390 . S
C1457 C1451 1.465 . S
C1457 C1456 1.396 . S
C1457 C1458 1.399 . S
C1458 H1444 0.929 . S
C1458 C1457 1.399 . S
C1458 C1459 1.385 . S
C1459 H1445 0.931 . S
C1459 C1458 1.385 . S
C1459 C1460 1.389 . S
C1460 C1459 1.389 . S
C1460 C1461 1.387 . S
C1461 H1446 0.930 . S
C1461 C1456 1.390 . S
C1461 C1460 1.387 . S
H1462 C1474 0.930 . S
H1463 C1476 0.930 . S
H1464 C1477 0.930 . S
H1465 C1481 0.959 . S
H1466 C1481 0.959 . S
H1467 C1481 0.961 . S
H1468 C1482 0.960 . S
H1469 C1482 0.961 . S
H1470 C1482 0.959 . S
H1471 C1485 0.929 . S
H1472 C1486 0.931 . S
H1473 C1488 0.930 . S
C1474 H1462 0.930 . S
C1474 C1475 1.399 . S
C1474 C1479 1.399 . S
C1475 C1474 1.399 . S
C1475 C1476 1.376 . S
C1476 H1463 0.930 . S
C1476 C1475 1.376 . S
C1476 C1477 1.388 . S
C1477 H1464 0.930 . S
C1477 C1476 1.388 . S
C1477 C1478 1.390 . S
C1478 C1477 1.390 . S
C1478 C1479 1.394 . S
C1478 C1484 1.465 . S
C1479 C1474 1.399 . S
C1479 C1478 1.394 . S
C1479 C1480 1.516 . S
C1480 C1479 1.516 . S
C1480 C1481 1.502 . S
C1480 C1482 1.561 . S
C1480 C1483 1.526 . S
C1481 H1465 0.959 . S
C1481 H1466 0.959 . S
C1481 H1467 0.961 . S
C1481 C1480 1.502 . S
C1482 H1468 0.960 . S
C1482 H1469 0.961 . S
C1482 H1470 0.959 . S
C1482 C1480 1.561 . S
C1483 C1480 1.526 . S
C1483 C1484 1.396 . S
C1483 C1488 1.390 . S
C1484 C1478 1.465 . S
C1484 C1483 1.396 . S
C1484 C1485 1.399 . S
C1485 H1471 0.929 . S
C1485 C1484 1.399 . S
C1485 C1486 1.385 . S
C1486 H1472 0.931 . S
C1486 C1485 1.385 . S
C1486 C1487 1.389 . S
C1487 C1486 1.389 . S
C1487 C1488 1.387 . S
C1488 H1473 0.930 . S
C1488 C1483 1.390 . S
C1488 C1487 1.387 . S
H1489 C1501 0.930 . S
H1490 C1503 0.930 . S
H1491 C1504 0.930 . S
H1492 C1508 0.959 . S
H1493 C1508 0.959 . S
H1494 C1508 0.961 . S
H1495 C1509 0.960 . S
H1496 C1509 0.961 . S
H1497 C1509 0.959 . S
H1498 C1512 0.929 . S
H1499 C1513 0.931 . S
H1500 C1515 0.930 . S
C1501 H1489 0.930 . S
C1501 C1502 1.399 . S
C1501 C1506 1.399 . S
C1502 C1501 1.399 . S
C1502 C1503 1.376 . S
C1503 H1490 0.930 . S
C1503 C1502 1.376 . S
C1503 C1504 1.388 . S
C1504 H1491 0.930 . S
C1504 C1503 1.388 . S
C1504 C1505 1.390 . S
C1505 C1504 1.390 . S
C1505 C1506 1.394 . S
C1505 C1511 1.465 . S
C1506 C1501 1.399 . S
C1506 C1505 1.394 . S
C1506 C1507 1.516 . S
C1507 C1506 1.516 . S
C1507 C1508 1.502 . S
C1507 C1509 1.561 . S
C1507 C1510 1.526 . S
C1508 H1492 0.959 . S
C1508 H1493 0.959 . S
C1508 H1494 0.961 . S
C1508 C1507 1.502 . S
C1509 H1495 0.960 . S
C1509 H1496 0.961 . S
C1509 H1497 0.959 . S
C1509 C1507 1.561 . S
C1510 C1507 1.526 . S
C1510 C1511 1.396 . S
C1510 C1515 1.390 . S
C1511 C1505 1.465 . S
C1511 C1510 1.396 . S
C1511 C1512 1.399 . S
C1512 H1498 0.929 . S
C1512 C1511 1.399 . S
C1512 C1513 1.385 . S
C1513 H1499 0.931 . S
C1513 C1512 1.385 . S
C1513 C1514 1.389 . S
C1514 C1513 1.389 . S
C1514 C1515 1.387 . S
C1515 H1500 0.930 . S
C1515 C1510 1.390 . S
C1515 C1514 1.387 . S
H1516 C1528 0.930 . S
H1517 C1530 0.930 . S
H1518 C1531 0.930 . S
H1519 C1535 0.959 . S
H1520 C1535 0.959 . S
H1521 C1535 0.961 . S
H1522 C1536 0.960 . S
H1523 C1536 0.961 . S
H1524 C1536 0.959 . S
H1525 C1539 0.929 . S
H1526 C1540 0.931 . S
H1527 C1542 0.930 . S
C1528 H1516 0.930 . S
C1528 C1529 1.399 . S
C1528 C1533 1.399 . S
C1529 C1528 1.399 . S
C1529 C1530 1.376 . S
C1530 H1517 0.930 . S
C1530 C1529 1.376 . S
C1530 C1531 1.388 . S
C1531 H1518 0.930 . S
C1531 C1530 1.388 . S
C1531 C1532 1.390 . S
C1532 C1531 1.390 . S
C1532 C1533 1.394 . S
C1532 C1538 1.465 . S
C1533 C1528 1.399 . S
C1533 C1532 1.394 . S
C1533 C1534 1.516 . S
C1534 C1533 1.516 . S
C1534 C1535 1.502 . S
C1534 C1536 1.561 . S
C1534 C1537 1.526 . S
C1535 H1519 0.959 . S
C1535 H1520 0.959 . S
C1535 H1521 0.961 . S
C1535 C1534 1.502 . S
C1536 H1522 0.960 . S
C1536 H1523 0.961 . S
C1536 H1524 0.959 . S
C1536 C1534 1.561 . S
C1537 C1534 1.526 . S
C1537 C1538 1.396 . S
C1537 C1542 1.390 . S
C1538 C1532 1.465 . S
C1538 C1537 1.396 . S
C1538 C1539 1.399 . S
C1539 H1525 0.929 . S
C1539 C1538 1.399 . S
C1539 C1540 1.385 . S
C1540 H1526 0.931 . S
C1540 C1539 1.385 . S
C1540 C1541 1.389 . S
C1541 C1540 1.389 . S
C1541 C1542 1.387 . S
C1542 H1527 0.930 . S
C1542 C1537 1.390 . S
C1542 C1541 1.387 . S
H1543 C1555 0.930 . S
H1544 C1557 0.930 . S
H1545 C1558 0.930 . S
H1546 C1562 0.959 . S
H1547 C1562 0.959 . S
H1548 C1562 0.961 . S
H1549 C1563 0.960 . S
H1550 C1563 0.961 . S
H1551 C1563 0.959 . S
H1552 C1566 0.929 . S
H1553 C1567 0.931 . S
H1554 C1569 0.930 . S
C1555 H1543 0.930 . S
C1555 C1556 1.399 . S
C1555 C1560 1.399 . S
C1556 C1555 1.399 . S
C1556 C1557 1.376 . S
C1557 H1544 0.930 . S
C1557 C1556 1.376 . S
C1557 C1558 1.388 . S
C1558 H1545 0.930 . S
C1558 C1557 1.388 . S
C1558 C1559 1.390 . S
C1559 C1558 1.390 . S
C1559 C1560 1.394 . S
C1559 C1565 1.465 . S
C1560 C1555 1.399 . S
C1560 C1559 1.394 . S
C1560 C1561 1.516 . S
C1561 C1560 1.516 . S
C1561 C1562 1.502 . S
C1561 C1563 1.561 . S
C1561 C1564 1.526 . S
C1562 H1546 0.959 . S
C1562 H1547 0.959 . S
C1562 H1548 0.961 . S
C1562 C1561 1.502 . S
C1563 H1549 0.960 . S
C1563 H1550 0.961 . S
C1563 H1551 0.959 . S
C1563 C1561 1.561 . S
C1564 C1561 1.526 . S
C1564 C1565 1.396 . S
C1564 C1569 1.390 . S
C1565 C1559 1.465 . S
C1565 C1564 1.396 . S
C1565 C1566 1.399 . S
C1566 H1552 0.929 . S
C1566 C1565 1.399 . S
C1566 C1567 1.385 . S
C1567 H1553 0.931 . S
C1567 C1566 1.385 . S
C1567 C1568 1.389 . S
C1568 C1567 1.389 . S
C1568 C1569 1.387 . S
C1569 H1554 0.930 . S
C1569 C1564 1.390 . S
C1569 C1568 1.387 . S
H1570 C1582 0.930 . S
H1571 C1584 0.930 . S
H1572 C1585 0.930 . S
H1573 C1589 0.959 . S
H1574 C1589 0.959 . S
H1575 C1589 0.961 . S
H1576 C1590 0.960 . S
H1577 C1590 0.961 . S
H1578 C1590 0.959 . S
H1579 C1593 0.929 . S
H1580 C1594 0.931 . S
H1581 C1596 0.930 . S
C1582 H1570 0.930 . S
C1582 C1583 1.399 . S
C1582 C1587 1.399 . S
C1583 C1582 1.399 . S
C1583 C1584 1.376 . S
C1584 H1571 0.930 . S
C1584 C1583 1.376 . S
C1584 C1585 1.388 . S
C1585 H1572 0.930 . S
C1585 C1584 1.388 . S
C1585 C1586 1.390 . S
C1586 C1585 1.390 . S
C1586 C1587 1.394 . S
C1586 C1592 1.465 . S
C1587 C1582 1.399 . S
C1587 C1586 1.394 . S
C1587 C1588 1.516 . S
C1588 C1587 1.516 . S
C1588 C1589 1.502 . S
C1588 C1590 1.561 . S
C1588 C1591 1.526 . S
C1589 H1573 0.959 . S
C1589 H1574 0.959 . S
C1589 H1575 0.961 . S
C1589 C1588 1.502 . S
C1590 H1576 0.960 . S
C1590 H1577 0.961 . S
C1590 H1578 0.959 . S
C1590 C1588 1.561 . S
C1591 C1588 1.526 . S
C1591 C1592 1.396 . S
C1591 C1596 1.390 . S
C1592 C1586 1.465 . S
C1592 C1591 1.396 . S
C1592 C1593 1.399 . S
C1593 H1579 0.929 . S
C1593 C1592 1.399 . S
C1593 C1594 1.385 . S
C1594 H1580 0.931 . S
C1594 C1593 1.385 . S
C1594 C1595 1.389 . S
C1595 C1594 1.389 . S
C1595 C1596 1.387 . S
C1596 H1581 0.930 . S
C1596 C1591 1.390 . S
C1596 C1595 1.387 . S
H1597 C1609 0.930 . S
H1598 C1611 0.930 . S
H1599 C1612 0.930 . S
H1600 C1616 0.959 . S
H1601 C1616 0.959 . S
H1602 C1616 0.961 . S
H1603 C1617 0.960 . S
H1604 C1617 0.961 . S
H1605 C1617 0.959 . S
H1606 C1620 0.929 . S
H1607 C1621 0.931 . S
H1608 C1623 0.930 . S
C1609 H1597 0.930 . S
C1609 C1610 1.399 . S
C1609 C1614 1.399 . S
C1610 C1609 1.399 . S
C1610 C1611 1.376 . S
C1611 H1598 0.930 . S
C1611 C1610 1.376 . S
C1611 C1612 1.388 . S
C1612 H1599 0.930 . S
C1612 C1611 1.388 . S
C1612 C1613 1.390 . S
C1613 C1612 1.390 . S
C1613 C1614 1.394 . S
C1613 C1619 1.465 . S
C1614 C1609 1.399 . S
C1614 C1613 1.394 . S
C1614 C1615 1.516 . S
C1615 C1614 1.516 . S
C1615 C1616 1.502 . S
C1615 C1617 1.561 . S
C1615 C1618 1.526 . S
C1616 H1600 0.959 . S
C1616 H1601 0.959 . S
C1616 H1602 0.961 . S
C1616 C1615 1.502 . S
C1617 H1603 0.960 . S
C1617 H1604 0.961 . S
C1617 H1605 0.959 . S
C1617 C1615 1.561 . S
C1618 C1615 1.526 . S
C1618 C1619 1.396 . S
C1618 C1623 1.390 . S
C1619 C1613 1.465 . S
C1619 C1618 1.396 . S
C1619 C1620 1.399 . S
C1620 H1606 0.929 . S
C1620 C1619 1.399 . S
C1620 C1621 1.385 . S
C1621 H1607 0.931 . S
C1621 C1620 1.385 . S
C1621 C1622 1.389 . S
C1622 C1621 1.389 . S
C1622 C1623 1.387 . S
C1623 H1608 0.930 . S
C1623 C1618 1.390 . S
C1623 C1622 1.387 . S
C557 C9 1.481 . S
C569 C485 1.432 . S
C584 C73 1.804 . S
C596 C5 1.845 . S
C611 C39 1.819 . S
C623 C379 1.838 . S
C638 C247 1.492 . S
C650 C43 1.418 . S
C665 C77 1.416 . S
C677 C417 1.468 . S
C692 C107 1.847 . S
C704 C311 1.804 . S
C719 C111 1.406 . S
C731 C179 1.479 . S
C746 C349 1.501 . S
C758 C145 1.398 . S
C773 C209 1.808 . S
C785 C141 1.837 . S
C800 C175 1.828 . S
C812 C515 1.830 . S
C827 C281 1.414 . S
C839 C213 1.470 . S
C854 C447 1.824 . S
C866 C243 1.820 . S
C881 C277 1.835 . S
C893 C345 1.811 . S
C908 C519 1.483 . S
C920 C315 1.430 . S
C935 C383 1.496 . S
C947 C451 1.411 . S
C962 C413 1.838 . S
C974 C481 1.819 . S
C989 C2 1.325 . S
C1001 C308 1.338 . S
C1016 C339 1.278 . S
C1028 C33 1.324 1_655 S
C1043 C67 1.288 . S
C1055 C305 1.312 . S
C1070 C36 1.331 1_655 S
C1082 C274 1.349 . S
C1097 C376 1.329 . S
C1109 C70 1.347 . S
C1124 C407 1.287 . S
C1136 C101 1.313 1_455 S
C1151 C135 1.322 . S
C1163 C373 1.293 . S
C1178 C104 1.343 1_455 S
C1190 C342 1.326 . S
C1205 C138 1.349 . S
C1217 C444 1.332 . S
C1232 C475 1.321 . S
C1244 C169 1.294 1_655 S
C1259 C203 1.320 . S
C1271 C441 1.295 . S
C1286 C410 1.324 . S
C1298 C172 1.347 1_655 S
C1313 C512 1.345 . S
C1325 C206 1.325 . S
C1340 C237 1.330 1_455 S
C1352 C543 1.277 . S
C1367 C271 1.290 . S
C1379 C509 1.310 . S
C1394 C240 1.333 1_455 S
C1406 C478 1.335 . S
C1421 C54 1.105 . S
C1433 C20 1.089 . S
C1448 C88 1.121 . S
C1460 C122 1.087 . S
C1475 C156 1.080 . S
C1487 C190 1.113 . S
C1502 C224 1.067 . S
C1514 C258 1.102 . S
C1529 C326 1.066 . S
C1541 C292 1.119 . S
C1556 C394 1.125 . S
C1568 C360 1.080 . S
C1583 C428 1.099 . S
C1595 C462 1.085 . S
C1610 C530 1.124 . S
C1622 C496 1.082 . S
