# Generated by pormake.
# Topology sol, (6)-cn, num edge types: 1
# Building blocks:
#     Node 0, Type 0, BuildingBlock: OJICUG_clean_sbu_0, # of connection points: 6
#     Node 1, Type 0, BuildingBlock: OJICUG_clean_sbu_0, # of connection points: 6
#     Node 2, Type 0, BuildingBlock: OJICUG_clean_sbu_0, # of connection points: 6
#     Node 3, Type 0, BuildingBlock: OJICUG_clean_sbu_0, # of connection points: 6
#     Node 4, Type 0, BuildingBlock: OJICUG_clean_sbu_0, # of connection points: 6
#     Node 5, Type 0, BuildingBlock: OJICUG_clean_sbu_0, # of connection points: 6
#     Node 6, Type 0, BuildingBlock: OJICUG_clean_sbu_0, # of connection points: 6
#     Node 7, Type 0, BuildingBlock: OJICUG_clean_sbu_0, # of connection points: 6
#     Edge 8, Type (0, 0), BuildingBlock: XIVTED_clean_linker_0, # of connection points: 2
#     Edge 9, Type (0, 0), BuildingBlock: XIVTED_clean_linker_0, # of connection points: 2
#     Edge 10, Type (0, 0), BuildingBlock: XIVTED_clean_linker_0, # of connection points: 2
#     Edge 11, Type (0, 0), BuildingBlock: XIVTED_clean_linker_0, # of connection points: 2
#     Edge 12, Type (0, 0), BuildingBlock: XIVTED_clean_linker_0, # of connection points: 2
#     Edge 13, Type (0, 0), BuildingBlock: XIVTED_clean_linker_0, # of connection points: 2
#     Edge 14, Type (0, 0), BuildingBlock: XIVTED_clean_linker_0, # of connection points: 2
#     Edge 15, Type (0, 0), BuildingBlock: XIVTED_clean_linker_0, # of connection points: 2
#     Edge 16, Type (0, 0), BuildingBlock: XIVTED_clean_linker_0, # of connection points: 2
#     Edge 17, Type (0, 0), BuildingBlock: XIVTED_clean_linker_0, # of connection points: 2
#     Edge 18, Type (0, 0), BuildingBlock: XIVTED_clean_linker_0, # of connection points: 2
#     Edge 19, Type (0, 0), BuildingBlock: XIVTED_clean_linker_0, # of connection points: 2
#     Edge 20, Type (0, 0), BuildingBlock: XIVTED_clean_linker_0, # of connection points: 2
#     Edge 21, Type (0, 0), BuildingBlock: XIVTED_clean_linker_0, # of connection points: 2
#     Edge 22, Type (0, 0), BuildingBlock: XIVTED_clean_linker_0, # of connection points: 2
#     Edge 23, Type (0, 0), BuildingBlock: XIVTED_clean_linker_0, # of connection points: 2
#     Edge 24, Type (0, 0), BuildingBlock: XIVTED_clean_linker_0, # of connection points: 2
#     Edge 25, Type (0, 0), BuildingBlock: XIVTED_clean_linker_0, # of connection points: 2
#     Edge 26, Type (0, 0), BuildingBlock: XIVTED_clean_linker_0, # of connection points: 2
#     Edge 27, Type (0, 0), BuildingBlock: XIVTED_clean_linker_0, # of connection points: 2
#     Edge 28, Type (0, 0), BuildingBlock: XIVTED_clean_linker_0, # of connection points: 2
#     Edge 29, Type (0, 0), BuildingBlock: XIVTED_clean_linker_0, # of connection points: 2
#     Edge 30, Type (0, 0), BuildingBlock: XIVTED_clean_linker_0, # of connection points: 2
#     Edge 31, Type (0, 0), BuildingBlock: XIVTED_clean_linker_0, # of connection points: 2
# Relax obj value: 0.163
# Max RMSD: 0.156
# Mean RMSD: 0.156
data_MOF--net-sol--node1-OJICUG_clean_sbu_0--edge1-XIVTED_clean_linker_0
_symmetry_space_group_name_H-M    P1
_symmetry_Int_Tables_number       1
_symmetry_cell_setting            triclinic
loop_
_symmetry_equiv_pos_as_xyz
'x, y, z'
_cell_length_a     34.738902
_cell_length_b     28.326465
_cell_length_c     30.622931
_cell_angle_alpha  89.857472
_cell_angle_beta   89.908127
_cell_angle_gamma 90.31151
loop_
_atom_site_label
_atom_site_type_symbol
_atom_site_fract_x
_atom_site_fract_y
_atom_site_fract_z
_atom_type_partial_charge
Sc0 Sc 0.21673 0.22566 0.08053 0.0
Sc1 Sc 0.11712 0.22377 0.05856 0.0
Sc2 Sc 0.15922 0.13489 0.12319 0.0
O3 O 0.16433 0.19448 0.0871 0.0
C4 C 0.23307 0.11718 0.06422 0.0
C5 C 0.17948 0.23747 0.98439 0.0
C6 C 0.09368 0.11463 0.05215 0.0
C7 C 0.16367 0.31416 0.09113 0.0
C8 C 0.22498 0.1883 0.17807 0.0
C9 C 0.09156 0.20072 0.1571 0.0
O10 O 0.24281 0.16039 0.06099 0.0
O11 O 0.14487 0.22675 0.99471 0.0
O12 O 0.11766 0.10173 0.08093 0.0
O13 O 0.19446 0.29231 0.09993 0.0
O14 O 0.19909 0.15702 0.17313 0.0
O15 O 0.08787 0.22385 0.12144 0.0
O16 O 0.23446 0.21635 0.14754 0.0
O17 O 0.13516 0.29517 0.07203 0.0
O18 O 0.11502 0.16667 0.16185 0.0
O19 O 0.20637 0.24076 0.01247 0.0
O20 O 0.20364 0.10242 0.08519 0.0
O21 O 0.09056 0.15743 0.04033 0.0
Sc22 Sc 0.33952 0.34176 0.62093 0.0
Sc23 Sc 0.38359 0.25287 0.55833 0.0
Sc24 Sc 0.2841 0.24819 0.58032 0.0
O25 O 0.33575 0.28127 0.5862 0.0
C26 C 0.27495 0.28706 0.67709 0.0
C27 C 0.40835 0.27853 0.65637 0.0
C28 C 0.33891 0.16159 0.59231 0.0
C29 C 0.40512 0.36242 0.54983 0.0
C30 C 0.26517 0.3557 0.56199 0.0
C31 C 0.32185 0.23646 0.48435 0.0
O32 O 0.30015 0.3191 0.6715 0.0
O33 O 0.41234 0.25443 0.62139 0.0
O34 O 0.30775 0.18264 0.60113 0.0
O35 O 0.38049 0.3755 0.57786 0.0
O36 O 0.25661 0.31211 0.55941 0.0
O37 O 0.35616 0.24858 0.49448 0.0
O38 O 0.29424 0.37199 0.58246 0.0
O39 O 0.40915 0.31945 0.53928 0.0
O40 O 0.29502 0.2323 0.51254 0.0
O41 O 0.38448 0.31229 0.66015 0.0
O42 O 0.26607 0.25822 0.64712 0.0
O43 O 0.36688 0.18119 0.57259 0.0
Sc44 Sc 0.65156 0.31252 0.90503 0.0
Sc45 Sc 0.6176 0.25644 1.00013 0.0
Sc46 Sc 0.7165 0.25046 0.97082 0.0
O47 O 0.66198 0.2733 0.9589 0.0
C48 C 0.71223 0.238 0.86751 0.0
C49 C 0.57841 0.24604 0.90615 0.0
C50 C 0.66428 0.16143 0.99736 0.0
C51 C 0.59701 0.36212 0.97623 0.0
C52 C 0.73224 0.35393 0.93403 0.0
C53 C 0.68763 0.27542 0.06693 0.0
O54 O 0.68619 0.26896 0.86356 0.0
O55 O 0.57727 0.24087 0.94745 0.0
O56 O 0.69633 0.18116 0.98854 0.0
O57 O 0.61437 0.36087 0.93959 0.0
O58 O 0.74291 0.31728 0.95462 0.0
O59 O 0.65201 0.26907 0.0585 0.0
O60 O 0.69921 0.35826 0.91686 0.0
O61 O 0.5976 0.32801 0.00328 0.0
O62 O 0.71373 0.27245 0.0379 0.0
O63 O 0.60433 0.26944 0.88662 0.0
O64 O 0.72599 0.22581 0.90436 0.0
O65 O 0.63261 0.18329 1.00009 0.0
Sc66 Sc 0.85007 0.16263 0.40517 0.0
Sc67 Sc 0.88305 0.22008 0.49981 0.0
Sc68 Sc 0.78391 0.22185 0.47144 0.0
O69 O 0.83896 0.20138 0.45904 0.0
C70 C 0.78741 0.23508 0.36815 0.0
C71 C 0.92113 0.23277 0.40539 0.0
C72 C 0.83328 0.31279 0.4988 0.0
C73 C 0.90665 0.11525 0.47551 0.0
C74 C 0.77053 0.11815 0.43465 0.0
C75 C 0.81395 0.19717 0.56719 0.0
O76 O 0.81405 0.20491 0.364 0.0
O77 O 0.92221 0.23835 0.44662 0.0
O78 O 0.80206 0.29145 0.48963 0.0
O79 O 0.88859 0.11563 0.43936 0.0
O80 O 0.75914 0.15446 0.45505 0.0
O81 O 0.84935 0.20496 0.55838 0.0
O82 O 0.80368 0.11482 0.41746 0.0
O83 O 0.90566 0.14949 0.50227 0.0
O84 O 0.78758 0.1993 0.53845 0.0
O85 O 0.89611 0.20766 0.38633 0.0
O86 O 0.77369 0.24683 0.40514 0.0
O87 O 0.86574 0.29265 0.50106 0.0
Sc88 Sc 0.78526 0.75293 0.92306 0.0
Sc89 Sc 0.88534 0.75738 0.94244 0.0
Sc90 Sc 0.84097 0.84301 0.87556 0.0
O91 O 0.83714 0.78481 0.91416 0.0
C92 C 0.77836 0.78231 0.82275 0.0
C93 C 0.83965 0.66438 0.91637 0.0
C94 C 0.91063 0.7784 0.84403 0.0
C95 C 0.82405 0.74875 0.01877 0.0
C96 C 0.76431 0.8613 0.92959 0.0
C97 C 0.90514 0.86832 0.9462 0.0
O98 O 0.76803 0.75681 0.85496 0.0
O99 O 0.86882 0.68506 0.93227 0.0
O100 O 0.88766 0.8129 0.83952 0.0
O101 O 0.79595 0.74522 0.99226 0.0
O102 O 0.7931 0.87608 0.90762 0.0
O103 O 0.91037 0.82555 0.95722 0.0
O104 O 0.75768 0.81819 0.93812 0.0
O105 O 0.85878 0.75573 0.00664 0.0
O106 O 0.87972 0.88036 0.91861 0.0
O107 O 0.80809 0.68495 0.90856 0.0
O108 O 0.80388 0.8143 0.8262 0.0
O109 O 0.91369 0.75487 0.87942 0.0
Sc110 Sc 0.71666 0.72375 0.42025 0.0
Sc111 Sc 0.61769 0.71591 0.44316 0.0
Sc112 Sc 0.66259 0.63187 0.37491 0.0
O113 O 0.66559 0.69017 0.41315 0.0
C114 C 0.72556 0.6923 0.3217 0.0
C115 C 0.66049 0.81038 0.41495 0.0
C116 C 0.59355 0.69687 0.34338 0.0
C117 C 0.68044 0.72704 0.51745 0.0
C118 C 0.7372 0.61514 0.43152 0.0
C119 C 0.59706 0.60597 0.44509 0.0
O120 O 0.73175 0.72126 0.35233 0.0
O121 O 0.63235 0.78885 0.43237 0.0
O122 O 0.61833 0.66455 0.33697 0.0
O123 O 0.70714 0.73195 0.48922 0.0
O124 O 0.70723 0.59933 0.41249 0.0
O125 O 0.59391 0.6478 0.45921 0.0
O126 O 0.7458 0.65869 0.43464 0.0
O127 O 0.64565 0.71754 0.50699 0.0
O128 O 0.62064 0.59521 0.41507 0.0
O129 O 0.69222 0.79082 0.40602 0.0
O130 O 0.70341 0.65682 0.32615 0.0
O131 O 0.58856 0.71716 0.38026 0.0
Sc132 Sc 0.35224 0.67133 0.10345 0.0
Sc133 Sc 0.38374 0.72585 0.00637 0.0
Sc134 Sc 0.28481 0.72677 0.03594 0.0
O135 O 0.3402 0.70788 0.04837 0.0
C136 C 0.27291 0.62449 0.07716 0.0
C137 C 0.40846 0.6223 0.0338 0.0
C138 C 0.31442 0.69944 0.94065 0.0
C139 C 0.42275 0.74216 0.09956 0.0
C140 C 0.28914 0.74408 0.13876 0.0
C141 C 0.33289 0.81733 0.00394 0.0
O142 O 0.30624 0.62238 0.09393 0.0
O143 O 0.4068 0.65559 0.00595 0.0
O144 O 0.28815 0.70159 0.96963 0.0
O145 O 0.39802 0.71761 0.11989 0.0
O146 O 0.27489 0.75421 0.10156 0.0
O147 O 0.36572 0.79801 0.0027 0.0
O148 O 0.31619 0.71458 0.14353 0.0
O149 O 0.42339 0.74625 0.05817 0.0
O150 O 0.30201 0.79576 0.01431 0.0
O151 O 0.39088 0.62364 0.0703 0.0
O152 O 0.26096 0.65969 0.05542 0.0
O153 O 0.3497 0.70842 0.9489 0.0
Sc154 Sc 0.21957 0.75004 0.53657 0.0
Sc155 Sc 0.12082 0.75184 0.50629 0.0
Sc156 Sc 0.152 0.8066 0.60312 0.0
O157 O 0.16419 0.76963 0.54843 0.0
C158 C 0.21399 0.73313 0.63955 0.0
C159 C 0.17131 0.65966 0.5053 0.0
C160 C 0.08096 0.73625 0.59929 0.0
C161 C 0.19067 0.77762 0.44082 0.0
C162 C 0.23218 0.85208 0.57718 0.0
C163 C 0.09664 0.85606 0.53293 0.0
O164 O 0.22895 0.72336 0.60263 0.0
O165 O 0.13879 0.67962 0.50274 0.0
O166 O 0.10526 0.76159 0.61925 0.0
O167 O 0.21675 0.77444 0.46986 0.0
O168 O 0.19892 0.85439 0.59419 0.0
O169 O 0.09761 0.82216 0.50579 0.0
O170 O 0.24378 0.81706 0.55509 0.0
O171 O 0.15519 0.76961 0.44894 0.0
O172 O 0.1146 0.85515 0.56914 0.0
O173 O 0.20215 0.68086 0.51621 0.0
O174 O 0.18675 0.76244 0.64388 0.0
O175 O 0.08097 0.73104 0.55802 0.0
H176 H 0.10602 0.17753 0.24196 0.0
H177 H 0.91223 0.28316 0.33118 0.0
H178 H 0.02892 0.25985 0.16204 0.0
H179 H 0.99858 0.22115 0.41388 0.0
H180 H 0.95891 0.28747 0.27163 0.0
H181 H 0.07088 0.20201 0.30659 0.0
C182 C 0.08153 0.20064 0.23789 0.0
C183 C 0.0699 0.21584 0.19625 0.0
C184 C 0.96812 0.27417 0.30309 0.0
C185 C 0.02965 0.24452 0.27071 0.0
C186 C 0.94159 0.27218 0.33719 0.0
C187 C 0.95174 0.25165 0.37723 0.0
C188 C 0.0047 0.25441 0.30889 0.0
C189 C 0.98984 0.23745 0.38347 0.0
C190 C 0.06174 0.21507 0.27502 0.0
C191 C 0.03857 0.24674 0.19338 0.0
N192 N 0.01479 0.23803 0.34921 0.0
N193 N 0.01921 0.25958 0.23009 0.0
H194 H 0.39549 0.30689 0.74026 0.0
H195 H 0.58519 0.193 0.83347 0.0
H196 H 0.46969 0.21759 0.66339 0.0
H197 H 0.50169 0.26389 0.91374 0.0
H198 H 0.5387 0.19035 0.77382 0.0
H199 H 0.43026 0.28383 0.8056 0.0
C200 C 0.41927 0.28256 0.73698 0.0
C201 C 0.43012 0.26486 0.69594 0.0
C202 C 0.53002 0.20531 0.80479 0.0
C203 C 0.46992 0.2378 0.77129 0.0
C204 C 0.5564 0.20633 0.83898 0.0
C205 C 0.54707 0.22869 0.87837 0.0
C206 C 0.49443 0.22785 0.80981 0.0
C207 C 0.50975 0.24602 0.8839 0.0
C208 C 0.43885 0.26898 0.77455 0.0
C209 C 0.46061 0.23261 0.69417 0.0
N210 N 0.48498 0.24623 0.84954 0.0
N211 N 0.47973 0.22053 0.73127 0.0
H212 H 0.90108 0.80896 0.76016 0.0
H213 H 0.00357 0.73846 0.58295 0.0
H214 H 0.96728 0.71088 0.83749 0.0
H215 H 0.08718 0.69423 0.67828 0.0
H216 H 0.95391 0.73649 0.6398 0.0
H217 H 0.93421 0.78244 0.6953 0.0
C218 C 0.92256 0.78162 0.76357 0.0
C219 C 0.93177 0.76268 0.80468 0.0
C220 C 0.98304 0.72681 0.64828 0.0
C221 C 0.96907 0.73044 0.72944 0.0
C222 C 0.01113 0.72679 0.61553 0.0
C223 C 0.04947 0.71749 0.62638 0.0
C224 C 0.99387 0.71812 0.6919 0.0
C225 C 0.0579 0.7025 0.66899 0.0
C226 C 0.94097 0.76566 0.72608 0.0
C227 C 0.95952 0.7269 0.80663 0.0
N228 N 0.03048 0.70424 0.70047 0.0
N229 N 0.97757 0.71241 0.76959 0.0
H230 H 0.60803 0.67789 0.25758 0.0
H231 H 0.41616 0.79355 0.1734 0.0
H232 H 0.53105 0.75638 0.34084 0.0
H233 H 0.49971 0.7289 0.08874 0.0
H234 H 0.4635 0.79473 0.23217 0.0
H235 H 0.57353 0.70659 0.19404 0.0
C236 C 0.58369 0.701 0.26262 0.0
C237 C 0.57194 0.7139 0.30487 0.0
C238 C 0.472 0.78156 0.20044 0.0
C239 C 0.53244 0.7475 0.23165 0.0
C240 C 0.44513 0.78145 0.16674 0.0
C241 C 0.45417 0.76086 0.12644 0.0
C242 C 0.50779 0.75994 0.19391 0.0
C243 C 0.49179 0.74522 0.11938 0.0
C244 C 0.56426 0.71786 0.22613 0.0
C245 C 0.54079 0.74492 0.30901 0.0
N246 N 0.51703 0.74396 0.15324 0.0
N247 N 0.52182 0.76021 0.27286 0.0
H248 H 0.03427 0.1274 0.99374 0.0
H249 H 0.96407 0.85727 0.00507 0.0
H250 H 0.09096 0.0195 0.06952 0.0
H251 H 0.90716 0.96356 0.92757 0.0
H252 H 0.01009 0.91682 0.02964 0.0
H253 H 0.98767 0.06829 0.96873 0.0
C254 C 0.03716 0.0913 0.00494 0.0
C255 C 0.06673 0.07864 0.03392 0.0
C256 C 0.98748 0.92721 0.00736 0.0
C257 C 0.01307 0.01069 0.00558 0.0
C258 C 0.961 0.89316 0.99337 0.0
C259 C 0.93151 0.90517 0.96406 0.0
C260 C 0.9847 0.97386 0.99201 0.0
C261 C 0.92929 0.95247 0.95015 0.0
C262 C 0.01039 0.05756 0.99073 0.0
C263 C 0.06875 0.03116 0.04727 0.0
N264 N 0.95554 0.98496 0.96413 0.0
N265 N 0.04231 -0.00089 0.03312 0.0
H266 H 0.54098 0.61576 0.50762 0.0
H267 H 0.46316 0.34956 0.48965 0.0
H268 H 0.59107 0.51229 0.42151 0.0
H269 H 0.40945 0.45719 0.56823 0.0
H270 H 0.51051 0.40789 0.4646 0.0
H271 H 0.49391 0.55704 0.53153 0.0
C272 C 0.54233 0.58062 0.49386 0.0
C273 C 0.57021 0.56919 0.46234 0.0
C274 C 0.48826 0.41876 0.48719 0.0
C275 C 0.51579 0.50146 0.4896 0.0
C276 C 0.46107 0.38547 0.50144 0.0
C277 C 0.43213 0.39826 0.53126 0.0
C278 C 0.48672 0.46527 0.5029 0.0
C279 C 0.4311 0.44546 0.5453 0.0
C280 C 0.51523 0.54707 0.50747 0.0
C281 C 0.57023 0.52288 0.44585 0.0
N282 N 0.45802 0.47706 0.53117 0.0
N283 N 0.54344 0.49081 0.45959 0.0
H284 H 0.42344 0.54546 0.08592 0.0
H285 H 0.58373 0.44046 0.92547 0.0
H286 H 0.45354 0.60769 0.96143 0.0
H287 H 0.55276 0.37715 0.04922 0.0
H288 H 0.5374 0.5032 0.93907 0.0
H289 H 0.47067 0.48352 0.07306 0.0
C290 C 0.43971 0.54598 0.05572 0.0
C291 C 0.43442 0.58205 0.02476 0.0
C292 C 0.54087 0.47568 0.96333 0.0
C293 C 0.48896 0.5113 0.01006 0.0
C294 C 0.56751 0.4399 0.9557 0.0
C295 C 0.57218 0.40321 0.98614 0.0
C296 C 0.51863 0.47488 0.00168 0.0
C297 C 0.55019 0.40454 0.0247 0.0
C298 C 0.46684 0.51066 0.0485 0.0
C299 C 0.45653 0.58074 0.9863 0.0
N300 N 0.5243 0.43961 0.03125 0.0
N301 N 0.48286 0.54609 0.98014 0.0
H302 H 0.91969 0.03638 0.42572 0.0
H303 H 0.08319 0.93429 0.58357 0.0
H304 H 0.95322 0.10236 0.54699 0.0
H305 H 0.05058 0.86986 0.46128 0.0
H306 H 0.03613 -0.00355 0.57054 0.0
H307 H 0.96671 0.97434 0.439 0.0
C308 C 0.93667 0.03771 0.45533 0.0
C309 C 0.93241 0.0749 0.48521 0.0
C310 C 0.03939 0.9688 0.54649 0.0
C311 C 0.98676 0.00393 0.50038 0.0
C312 C 0.06642 0.93333 0.5538 0.0
C313 C 0.07094 0.89655 0.52354 0.0
C314 C 0.01657 0.96758 0.50867 0.0
C315 C 0.04821 0.89735 0.4856 0.0
C316 C 0.96369 0.0023 0.46278 0.0
C317 C 0.9554 0.07454 0.52296 0.0
N318 N 0.02197 0.93213 0.47937 0.0
N319 N 0.98163 0.03976 0.52936 0.0
H320 H 0.28074 0.85722 0.95063 0.0
H321 H 0.31134 0.10679 0.06122 0.0
H322 H 0.37761 0.89034 0.03307 0.0
H323 H 0.20473 0.04955 0.01191 0.0
H324 H 0.34602 0.04032 0.02777 0.0
H325 H 0.26508 0.9409 0.9468 0.0
C326 C 0.2991 0.88248 0.96722 0.0
C327 C 0.32969 0.86737 0.99324 0.0
C328 C 0.31516 0.04309 0.02353 0.0
C329 C 0.31142 0.96233 0.99025 0.0
C330 C 0.2955 0.08067 0.04262 0.0
C331 C 0.25527 0.08232 0.04009 0.0
C332 C 0.29419 0.00804 1.00138 0.0
C333 C 0.23574 0.04845 0.01543 0.0
C334 C 0.29027 0.9301 0.96502 0.0
C335 C 0.35333 0.90105 0.01332 0.0
N336 N 0.25538 0.01242 0.9973 0.0
N337 N 0.34302 0.94725 0.0125 0.0
H338 H 0.12102 0.58918 0.52836 0.0
H339 H 0.28841 0.4065 0.49269 0.0
H340 H 0.22785 0.61621 0.46065 0.0
H341 H 0.19036 0.38017 0.57571 0.0
H342 H 0.25471 0.47289 0.45966 0.0
H343 H 0.13443 0.50417 0.52554 0.0
C344 C 0.14674 0.577 0.51192 0.0
C345 C 0.17404 0.60924 0.49585 0.0
C346 C 0.24013 0.45224 0.48455 0.0
C347 C 0.18937 0.51323 0.49235 0.0
C348 C 0.2594 0.41455 0.50334 0.0
C349 C 0.24217 0.38916 0.53732 0.0
C350 C 0.20403 0.46543 0.50113 0.0
C351 C 0.2045 0.39984 0.54985 0.0
C352 C 0.1544 0.52869 0.51034 0.0
C353 C 0.20671 0.59221 0.4745 0.0
N354 N 0.18686 0.43819 0.53243 0.0
N355 N 0.21374 0.54534 0.4739 0.0
H356 H 0.79256 0.38243 0.98603 0.0
H357 H 0.8134 0.6163 0.84639 0.0
H358 H 0.7357 0.41121 0.86368 0.0
H359 H 0.8678 0.59747 0.9716 0.0
H360 H 0.80082 0.53176 0.84317 0.0
H361 H 0.83405 0.45186 0.97379 0.0
C362 C 0.78916 0.40307 0.95647 0.0
C363 C 0.75998 0.39228 0.92649 0.0
C364 C 0.81613 0.54576 0.87112 0.0
C365 C 0.80729 0.47035 0.91194 0.0
C366 C 0.82334 0.59394 0.8728 0.0
C367 C 0.84086 0.61342 0.90966 0.0
C368 C 0.82528 0.51736 0.90731 0.0
C369 C 0.85382 0.58335 0.94284 0.0
C370 C 0.81286 0.4424 0.94939 0.0
C371 C 0.75703 0.41934 0.88833 0.0
N372 N 0.84481 0.53666 0.94149 0.0
N373 N 0.78011 0.45734 0.88239 0.0
H374 H 0.70797 0.09182 0.48437 0.0
H375 H 0.68391 0.85925 0.34386 0.0
H376 H 0.77017 0.05775 0.36651 0.0
H377 H 0.63311 0.87645 0.47132 0.0
H378 H 0.69741 0.94368 0.34125 0.0
H379 H 0.66534 0.02377 0.47128 0.0
C380 C 0.71242 0.07024 0.45567 0.0
C381 C 0.74324 0.07932 0.42717 0.0
C382 C 0.68261 0.92932 0.36951 0.0
C383 C 0.69447 0.00297 0.41153 0.0
C384 C 0.67481 0.88126 0.37083 0.0
C385 C 0.65826 0.8613 0.40822 0.0
C386 C 0.67499 0.95701 0.40649 0.0
C387 C 0.64636 0.89092 0.44215 0.0
C388 C 0.68804 0.03176 0.44809 0.0
C389 C 0.74749 0.05104 0.39006 0.0
N390 N 0.65599 0.93744 0.44108 0.0
N391 N 0.72358 0.01398 0.38352 0.0
H392 H 0.61833 0.10079 0.95301 0.0
H393 H 0.74589 0.87806 0.01417 0.0
H394 H 0.71009 0.10653 0.04754 0.0
H395 H 0.72187 0.92236 0.88226 0.0
H396 H 0.70674 0.94407 0.04143 0.0
H397 H 0.63008 0.0159 0.94382 0.0
C398 C 0.63988 0.08367 0.97302 0.0
C399 C 0.6638 0.1101 1.00051 0.0
C400 C 0.70927 0.93828 0.00659 0.0
C401 C 0.67668 0.01438 0.99083 0.0
C402 C 0.73157 0.90114 0.99114 0.0
C403 C 0.73731 0.89601 0.94616 0.0
C404 C 0.6921 0.96909 0.9766 0.0
C405 C 0.71837 0.92614 0.91723 0.0
C406 C 0.64654 0.03559 0.96773 0.0
C407 C 0.69154 0.08695 0.02561 0.0
N408 N 0.69662 0.96181 0.93299 0.0
N409 N 0.69759 0.04018 0.01983 0.0
H410 H 0.71705 0.56776 0.5039 0.0
H411 H 0.88232 0.38127 0.46855 0.0
H412 H 0.81029 0.587 0.41257 0.0
H413 H 0.77902 0.35937 0.54436 0.0
H414 H 0.86858 0.46623 0.4663 0.0
H415 H 0.75179 0.50258 0.53764 0.0
C416 C 0.7452 0.55833 0.49145 0.0
C417 C 0.76077 0.58142 0.45514 0.0
C418 C 0.84952 0.44293 0.48438 0.0
C419 C 0.80012 0.50667 0.49238 0.0
C420 C 0.8574 0.39467 0.48575 0.0
C421 C 0.83111 0.36373 0.50568 0.0
C422 C 0.81534 0.45966 0.50332 0.0
C423 C 0.79938 0.3823 0.52773 0.0
C424 C 0.76507 0.52137 0.51066 0.0
C425 C 0.79742 0.56908 0.4403 0.0
N426 N 0.79208 0.42906 0.52545 0.0
N427 N 0.81567 0.53154 0.45842 0.0
H428 H 0.12993 0.3834 0.04237 0.0
H429 H 0.27221 0.56835 0.14865 0.0
H430 H 0.19706 0.36002 0.15875 0.0
H431 H 0.21217 0.59323 0.02753 0.0
H432 H 0.23113 0.50038 0.16245 0.0
H433 H 0.14494 0.46788 0.0468 0.0
C434 C 0.14683 0.39634 0.06958 0.0
C435 C 0.16324 0.36497 0.09963 0.0
C436 C 0.22662 0.52075 0.13294 0.0
C437 C 0.18065 0.46056 0.10465 0.0
C438 C 0.25034 0.5593 0.12486 0.0
C439 C 0.24628 0.58535 0.08623 0.0
C440 C 0.19919 0.50739 0.10168 0.0
C441 C 0.21662 0.57329 0.05729 0.0
C442 C 0.15554 0.4444 0.07196 0.0
C443 C 0.18473 0.38316 0.13435 0.0
N444 N 0.19459 0.53438 0.06516 0.0
N445 N 0.19334 0.42975 0.13552 0.0
H446 H 0.2343 0.90533 0.65017 0.0
H447 H 0.37434 0.09346 0.54405 0.0
H448 H 0.29245 0.88452 0.52712 0.0
H449 H 0.30623 0.11473 0.66021 0.0
H450 H 0.36084 0.00863 0.54864 0.0
H451 H 0.27572 0.97273 0.66473 0.0
C452 C 0.25584 0.91516 0.62612 0.0
C453 C 0.25921 0.89056 0.58671 0.0
C454 C 0.34972 0.03174 0.57374 0.0
C455 C 0.30663 0.96781 0.60303 0.0
C456 C 0.35756 0.08001 0.57127 0.0
C457 C 0.34036 0.11085 0.60114 0.0
C458 C 0.3247 0.01483 0.60634 0.0
C459 C 0.31911 0.09199 0.6359 0.0
C460 C 0.27975 0.95335 0.63463 0.0
C461 C 0.28851 0.90344 0.55746 0.0
N462 N 0.31133 0.04518 0.63715 0.0
N463 N 0.31068 0.94204 0.56577 0.0
H464 H 0.24018 0.28953 0.95506 0.0
H465 H 0.21564 0.22759 0.70259 0.0
H466 H 0.14308 0.2087 0.90822 0.0
H467 H 0.29267 0.33489 0.75212 0.0
H468 H 0.18906 0.21756 0.77642 0.0
H469 H 0.2603 0.30358 0.8802 0.0
C470 C 0.22297 0.27467 0.92896 0.0
C471 C 0.18993 0.24759 0.93815 0.0
C472 C 0.21157 0.24351 0.77093 0.0
C473 C 0.21317 0.26361 0.85147 0.0
C474 C 0.22685 0.24924 0.7288 0.0
C475 C 0.25663 0.28208 0.72092 0.0
C476 C 0.22643 0.27044 0.80554 0.0
C477 C 0.26984 0.30911 0.75632 0.0
C478 C 0.23447 0.28293 0.88604 0.0
C479 C 0.1687 0.22981 0.9027 0.0
N480 N 0.25488 0.30244 0.7969 0.0
N481 N 0.18089 0.23775 0.86086 0.0
H482 H 0.28432 0.24785 0.20294 0.0
H483 H 0.26275 0.18174 0.45547 0.0
H484 H 0.20778 0.14003 0.25328 0.0
H485 H 0.35703 0.26748 0.40795 0.0
H486 H 0.24235 0.16803 0.3808 0.0
H487 H 0.31142 0.25736 0.27644 0.0
C488 C 0.27332 0.22599 0.22926 0.0
C489 C 0.24352 0.19315 0.2217 0.0
C490 C 0.26764 0.18968 0.38643 0.0
C491 C 0.27437 0.20415 0.30595 0.0
C492 C 0.2793 0.19771 0.42925 0.0
C493 C 0.3116 0.22611 0.4382 0.0
C494 C 0.288 0.21054 0.35172 0.0
C495 C 0.33201 0.24532 0.4026 0.0
C496 C 0.2889 0.23143 0.2712 0.0
C497 C 0.2306 0.16585 0.25723 0.0
N498 N 0.31966 0.23756 0.36088 0.0
N499 N 0.24588 0.17219 0.29761 0.0
H500 H 0.71231 0.25939 0.35002 0.0
H501 H 0.75947 0.29938 0.0962 0.0
H502 H 0.82573 0.25445 0.29284 0.0
H503 H 0.64483 0.26779 0.143 0.0
H504 H 0.78231 0.30042 0.17121 0.0
H505 H 0.68577 0.27923 0.27768 0.0
C506 C 0.73168 0.26351 0.3225 0.0
C507 C 0.77124 0.25498 0.32733 0.0
C508 C 0.75207 0.29363 0.1652 0.0
C509 C 0.74124 0.27748 0.24489 0.0
C510 C 0.7389 0.29308 0.12223 0.0
C511 C 0.70016 0.28276 0.11294 0.0
C512 C 0.7265 0.28372 0.1996 0.0
C513 C 0.67498 0.27557 0.14844 0.0
C514 C 0.71651 0.27443 0.28124 0.0
C515 C 0.79502 0.2603 0.29053 0.0
N516 N 0.68865 0.27568 0.19019 0.0
N517 N 0.77967 0.27099 0.25101 0.0
H518 H 0.85779 0.20361 0.64232 0.0
H519 H 0.67247 0.21712 0.79384 0.0
H520 H 0.74218 0.17425 0.59799 0.0
H521 H 0.78708 0.21428 0.84753 0.0
H522 H 0.69855 0.19645 0.72257 0.0
H523 H 0.83421 0.20267 0.71792 0.0
C524 C 0.82763 0.19624 0.64837 0.0
C525 C 0.80191 0.18964 0.61344 0.0
C526 C 0.71811 0.19964 0.74991 0.0
C527 C 0.77474 0.18895 0.69996 0.0
C528 C 0.70317 0.21144 0.79068 0.0
C529 C 0.72766 0.21758 0.82661 0.0
C530 C 0.75807 0.19485 0.74449 0.0
C531 C 0.7672 0.20965 0.82067 0.0
C532 C 0.81419 0.19577 0.6916 0.0
C533 C 0.76313 0.18017 0.62355 0.0
N534 N 0.78132 0.19947 0.78016 0.0
N535 N 0.75076 0.18068 0.66565 0.0
H536 H 0.85522 0.68688 0.07744 0.0
H537 H 0.73951 0.77787 0.28387 0.0
H538 H 0.77148 0.79787 0.0658 0.0
H539 H 0.75225 0.62849 0.26148 0.0
H540 H 0.76692 0.79353 0.2113 0.0
H541 H 0.83346 0.67278 0.15318 0.0
C542 C 0.83284 0.70882 0.09119 0.0
C543 C 0.81516 0.7437 0.0657 0.0
C544 C 0.76392 0.75739 0.22252 0.0
C545 C 0.79066 0.72821 0.15162 0.0
C546 C 0.74845 0.7484 0.26385 0.0
C547 C 0.74351 0.70178 0.2786 0.0
C548 C 0.77557 0.7196 0.19622 0.0
C549 C 0.75535 0.6649 0.25118 0.0
C550 C 0.82027 0.70051 0.13404 0.0
C551 C 0.78584 0.77074 0.08459 0.0
N552 N 0.77116 0.67459 0.21137 0.0
N553 N 0.77468 0.7627 0.12655 0.0
H554 H 0.80236 0.81976 0.74528 0.0
H555 H 0.63961 0.70522 0.59338 0.0
H556 H 0.71567 0.72654 0.79934 0.0
H557 H 0.74697 0.76545 0.54796 0.0
H558 H 0.66124 0.71804 0.66928 0.0
H559 H 0.77625 0.80642 0.67311 0.0
C560 C 0.77765 0.79652 0.74212 0.0
C561 C 0.76131 0.77423 0.77877 0.0
C562 C 0.67989 0.72825 0.64247 0.0
C563 C 0.73101 0.75853 0.69506 0.0
C564 C 0.66754 0.72112 0.59921 0.0
C565 C 0.69145 0.73413 0.564 0.0
C566 C 0.71608 0.7491 0.65033 0.0
C567 C 0.72743 0.75451 0.57366 0.0
C568 C 0.76278 0.78875 0.70061 0.0
C569 C 0.72932 0.74436 0.77206 0.0
N570 N 0.73842 0.76139 0.61559 0.0
N571 N 0.71512 0.73739 0.73096 0.0
H572 H 0.174 0.70756 0.7121 0.0
H573 H 0.35858 0.70367 0.86556 0.0
H574 H 0.28945 0.7137 0.66052 0.0
H575 H 0.24269 0.6757 0.9102 0.0
H576 H 0.33559 0.70032 0.78996 0.0
H577 H 0.19985 0.68827 0.78383 0.0
C578 C 0.20488 0.70404 0.71579 0.0
C579 C 0.22962 0.71242 0.68032 0.0
C580 C 0.31535 0.69427 0.81634 0.0
C581 C 0.25972 0.6914 0.76303 0.0
C582 C 0.32845 0.69611 0.8596 0.0
C583 C 0.30251 0.69055 0.89461 0.0
C584 C 0.27599 0.68704 0.80793 0.0
C585 C 0.26381 0.68077 0.88457 0.0
C586 C 0.21969 0.6931 0.75685 0.0
C587 C 0.26937 0.70727 0.68697 0.0
N588 N 0.25176 0.67987 0.84237 0.0
N589 N 0.28327 0.69789 0.72774 0.0
H590 H 0.26234 0.80335 0.41137 0.0
H591 H 0.21359 0.7655 0.15791 0.0
H592 H 0.14764 0.7723 0.36507 0.0
H593 H 0.32788 0.76745 0.21259 0.0
H594 H 0.18737 0.7844 0.23059 0.0
H595 H 0.28475 0.80702 0.33608 0.0
C596 C 0.24167 0.79778 0.38542 0.0
C597 C 0.20304 0.78682 0.3949 0.0
C598 C 0.21821 0.78142 0.22641 0.0
C599 C 0.22886 0.79072 0.30792 0.0
C600 C 0.23319 0.77107 0.18491 0.0
C601 C 0.27294 0.76462 0.1793 0.0
C602 C 0.24329 0.78586 0.26226 0.0
C603 C 0.29702 0.77169 0.21551 0.0
C604 C 0.25458 0.79982 0.34227 0.0
C605 C 0.17772 0.78053 0.35951 0.0
N606 N 0.28184 0.78161 0.25531 0.0
N607 N 0.19114 0.78204 0.31762 0.0
loop_
_geom_bond_atom_site_label_1
_geom_bond_atom_site_label_2
_geom_bond_distance
_geom_bond_site_symmetry_2
_ccdc_geom_bond_type
Sc0 O3 2.025 . S
Sc0 O10 2.105 . S
Sc0 O13 2.105 . S
Sc0 O16 2.105 . S
Sc0 O19 2.105 . S
Sc1 O3 2.025 . S
Sc1 O11 2.105 . S
Sc1 O15 2.105 . S
Sc1 O17 2.105 . S
Sc1 O21 2.105 . S
Sc2 O3 2.025 . S
Sc2 O12 2.105 . S
Sc2 O14 2.105 . S
Sc2 O18 2.105 . S
Sc2 O20 2.105 . S
O3 Sc0 2.025 . S
O3 Sc1 2.025 . S
O3 Sc2 2.025 . S
C4 O10 1.268 . S
C4 O20 1.268 . S
C5 O11 1.265 1_556 S
C5 O19 1.254 1_556 S
C6 O12 1.268 . S
C6 O21 1.268 . S
C7 O13 1.268 . S
C7 O17 1.268 . S
C8 O14 1.268 . S
C8 O16 1.268 . S
C9 O15 1.268 . S
C9 O18 1.268 . S
O10 Sc0 2.105 . S
O10 C4 1.268 . S
O11 Sc1 2.105 . S
O11 C5 1.265 1_554 S
O12 Sc2 2.105 . S
O12 C6 1.268 . S
O13 Sc0 2.105 . S
O13 C7 1.268 . S
O14 Sc2 2.105 . S
O14 C8 1.268 . S
O15 Sc1 2.105 . S
O15 C9 1.268 . S
O16 Sc0 2.105 . S
O16 C8 1.268 . S
O17 Sc1 2.105 . S
O17 C7 1.268 . S
O18 Sc2 2.105 . S
O18 C9 1.268 . S
O19 Sc0 2.105 . S
O19 C5 1.254 1_554 S
O20 Sc2 2.105 . S
O20 C4 1.268 . S
O21 Sc1 2.105 . S
O21 C6 1.268 . S
Sc22 O25 2.025 . S
Sc22 O32 2.105 . S
Sc22 O35 2.105 . S
Sc22 O38 2.105 . S
Sc22 O41 2.105 . S
Sc23 O25 2.025 . S
Sc23 O33 2.105 . S
Sc23 O37 2.105 . S
Sc23 O39 2.105 . S
Sc23 O43 2.105 . S
Sc24 O25 2.025 . S
Sc24 O34 2.105 . S
Sc24 O36 2.105 . S
Sc24 O40 2.105 . S
Sc24 O42 2.105 . S
O25 Sc22 2.025 . S
O25 Sc23 2.025 . S
O25 Sc24 2.025 . S
C26 O32 1.268 . S
C26 O42 1.268 . S
C27 O33 1.268 . S
C27 O41 1.268 . S
C28 O34 1.268 . S
C28 O43 1.268 . S
C29 O35 1.268 . S
C29 O39 1.268 . S
C30 O36 1.268 . S
C30 O38 1.268 . S
C31 O37 1.268 . S
C31 O40 1.268 . S
O32 Sc22 2.105 . S
O32 C26 1.268 . S
O33 Sc23 2.105 . S
O33 C27 1.268 . S
O34 Sc24 2.105 . S
O34 C28 1.268 . S
O35 Sc22 2.105 . S
O35 C29 1.268 . S
O36 Sc24 2.105 . S
O36 C30 1.268 . S
O37 Sc23 2.105 . S
O37 C31 1.268 . S
O38 Sc22 2.105 . S
O38 C30 1.268 . S
O39 Sc23 2.105 . S
O39 C29 1.268 . S
O40 Sc24 2.105 . S
O40 C31 1.268 . S
O41 Sc22 2.105 . S
O41 C27 1.268 . S
O42 Sc24 2.105 . S
O42 C26 1.268 . S
O43 Sc23 2.105 . S
O43 C28 1.268 . S
Sc44 O47 2.025 . S
Sc44 O54 2.105 . S
Sc44 O57 2.105 . S
Sc44 O60 2.105 . S
Sc44 O63 2.105 . S
Sc45 O47 2.025 . S
Sc45 O55 2.105 . S
Sc45 O59 2.105 . S
Sc45 O61 2.105 . S
Sc45 O65 2.105 . S
Sc46 O47 2.025 . S
Sc46 O56 2.105 . S
Sc46 O58 2.105 . S
Sc46 O62 2.105 . S
Sc46 O64 2.105 . S
O47 Sc44 2.025 . S
O47 Sc45 2.025 . S
O47 Sc46 2.025 . S
C48 O54 1.268 . S
C48 O64 1.268 . S
C49 O55 1.268 . S
C49 O63 1.268 . S
C50 O56 1.268 . S
C50 O65 1.268 . S
C51 O57 1.268 . S
C51 O61 1.268 . S
C52 O58 1.268 . S
C52 O60 1.268 . S
C53 O59 1.265 1_554 S
C53 O62 1.254 1_554 S
O54 Sc44 2.105 . S
O54 C48 1.268 . S
O55 Sc45 2.105 . S
O55 C49 1.268 . S
O56 Sc46 2.105 . S
O56 C50 1.268 . S
O57 Sc44 2.105 . S
O57 C51 1.268 . S
O58 Sc46 2.105 . S
O58 C52 1.268 . S
O59 Sc45 2.105 . S
O59 C53 1.265 1_556 S
O60 Sc44 2.105 . S
O60 C52 1.268 . S
O61 Sc45 2.105 . S
O61 C51 1.268 . S
O62 Sc46 2.105 . S
O62 C53 1.254 1_556 S
O63 Sc44 2.105 . S
O63 C49 1.268 . S
O64 Sc46 2.105 . S
O64 C48 1.268 . S
O65 Sc45 2.105 . S
O65 C50 1.268 . S
Sc66 O69 2.025 . S
Sc66 O76 2.105 . S
Sc66 O79 2.105 . S
Sc66 O82 2.105 . S
Sc66 O85 2.105 . S
Sc67 O69 2.025 . S
Sc67 O77 2.105 . S
Sc67 O81 2.105 . S
Sc67 O83 2.105 . S
Sc67 O87 2.105 . S
Sc68 O69 2.025 . S
Sc68 O78 2.105 . S
Sc68 O80 2.105 . S
Sc68 O84 2.105 . S
Sc68 O86 2.105 . S
O69 Sc66 2.025 . S
O69 Sc67 2.025 . S
O69 Sc68 2.025 . S
C70 O76 1.268 . S
C70 O86 1.268 . S
C71 O77 1.268 . S
C71 O85 1.268 . S
C72 O78 1.268 . S
C72 O87 1.268 . S
C73 O79 1.268 . S
C73 O83 1.268 . S
C74 O80 1.268 . S
C74 O82 1.268 . S
C75 O81 1.268 . S
C75 O84 1.268 . S
O76 Sc66 2.105 . S
O76 C70 1.268 . S
O77 Sc67 2.105 . S
O77 C71 1.268 . S
O78 Sc68 2.105 . S
O78 C72 1.268 . S
O79 Sc66 2.105 . S
O79 C73 1.268 . S
O80 Sc68 2.105 . S
O80 C74 1.268 . S
O81 Sc67 2.105 . S
O81 C75 1.268 . S
O82 Sc66 2.105 . S
O82 C74 1.268 . S
O83 Sc67 2.105 . S
O83 C73 1.268 . S
O84 Sc68 2.105 . S
O84 C75 1.268 . S
O85 Sc66 2.105 . S
O85 C71 1.268 . S
O86 Sc68 2.105 . S
O86 C70 1.268 . S
O87 Sc67 2.105 . S
O87 C72 1.268 . S
Sc88 O91 2.025 . S
Sc88 O98 2.105 . S
Sc88 O101 2.105 . S
Sc88 O104 2.105 . S
Sc88 O107 2.105 . S
Sc89 O91 2.025 . S
Sc89 O99 2.105 . S
Sc89 O103 2.105 . S
Sc89 O105 2.105 . S
Sc89 O109 2.105 . S
Sc90 O91 2.025 . S
Sc90 O100 2.105 . S
Sc90 O102 2.105 . S
Sc90 O106 2.105 . S
Sc90 O108 2.105 . S
O91 Sc88 2.025 . S
O91 Sc89 2.025 . S
O91 Sc90 2.025 . S
C92 O98 1.268 . S
C92 O108 1.268 . S
C93 O99 1.268 . S
C93 O107 1.268 . S
C94 O100 1.268 . S
C94 O109 1.268 . S
C95 O101 1.254 1_554 S
C95 O105 1.265 1_554 S
C96 O102 1.268 . S
C96 O104 1.268 . S
C97 O103 1.268 . S
C97 O106 1.268 . S
O98 Sc88 2.105 . S
O98 C92 1.268 . S
O99 Sc89 2.105 . S
O99 C93 1.268 . S
O100 Sc90 2.105 . S
O100 C94 1.268 . S
O101 Sc88 2.105 . S
O101 C95 1.254 1_556 S
O102 Sc90 2.105 . S
O102 C96 1.268 . S
O103 Sc89 2.105 . S
O103 C97 1.268 . S
O104 Sc88 2.105 . S
O104 C96 1.268 . S
O105 Sc89 2.105 . S
O105 C95 1.265 1_556 S
O106 Sc90 2.105 . S
O106 C97 1.268 . S
O107 Sc88 2.105 . S
O107 C93 1.268 . S
O108 Sc90 2.105 . S
O108 C92 1.268 . S
O109 Sc89 2.105 . S
O109 C94 1.268 . S
Sc110 O113 2.025 . S
Sc110 O120 2.105 . S
Sc110 O123 2.105 . S
Sc110 O126 2.105 . S
Sc110 O129 2.105 . S
Sc111 O113 2.025 . S
Sc111 O121 2.105 . S
Sc111 O125 2.105 . S
Sc111 O127 2.105 . S
Sc111 O131 2.105 . S
Sc112 O113 2.025 . S
Sc112 O122 2.105 . S
Sc112 O124 2.105 . S
Sc112 O128 2.105 . S
Sc112 O130 2.105 . S
O113 Sc110 2.025 . S
O113 Sc111 2.025 . S
O113 Sc112 2.025 . S
C114 O120 1.268 . S
C114 O130 1.268 . S
C115 O121 1.268 . S
C115 O129 1.268 . S
C116 O122 1.268 . S
C116 O131 1.268 . S
C117 O123 1.268 . S
C117 O127 1.268 . S
C118 O124 1.268 . S
C118 O126 1.268 . S
C119 O125 1.268 . S
C119 O128 1.268 . S
O120 Sc110 2.105 . S
O120 C114 1.268 . S
O121 Sc111 2.105 . S
O121 C115 1.268 . S
O122 Sc112 2.105 . S
O122 C116 1.268 . S
O123 Sc110 2.105 . S
O123 C117 1.268 . S
O124 Sc112 2.105 . S
O124 C118 1.268 . S
O125 Sc111 2.105 . S
O125 C119 1.268 . S
O126 Sc110 2.105 . S
O126 C118 1.268 . S
O127 Sc111 2.105 . S
O127 C117 1.268 . S
O128 Sc112 2.105 . S
O128 C119 1.268 . S
O129 Sc110 2.105 . S
O129 C115 1.268 . S
O130 Sc112 2.105 . S
O130 C114 1.268 . S
O131 Sc111 2.105 . S
O131 C116 1.268 . S
Sc132 O135 2.025 . S
Sc132 O142 2.105 . S
Sc132 O145 2.105 . S
Sc132 O148 2.105 . S
Sc132 O151 2.105 . S
Sc133 O135 2.025 . S
Sc133 O143 2.105 . S
Sc133 O147 2.105 . S
Sc133 O149 2.105 . S
Sc133 O153 2.105 . S
Sc134 O135 2.025 . S
Sc134 O144 2.105 . S
Sc134 O146 2.105 . S
Sc134 O150 2.105 . S
Sc134 O152 2.105 . S
O135 Sc132 2.025 . S
O135 Sc133 2.025 . S
O135 Sc134 2.025 . S
C136 O142 1.268 . S
C136 O152 1.268 . S
C137 O143 1.268 . S
C137 O151 1.268 . S
C138 O144 1.254 1_556 S
C138 O153 1.265 1_556 S
C139 O145 1.268 . S
C139 O149 1.268 . S
C140 O146 1.268 . S
C140 O148 1.268 . S
C141 O147 1.268 . S
C141 O150 1.268 . S
O142 Sc132 2.105 . S
O142 C136 1.268 . S
O143 Sc133 2.105 . S
O143 C137 1.268 . S
O144 Sc134 2.105 . S
O144 C138 1.254 1_554 S
O145 Sc132 2.105 . S
O145 C139 1.268 . S
O146 Sc134 2.105 . S
O146 C140 1.268 . S
O147 Sc133 2.105 . S
O147 C141 1.268 . S
O148 Sc132 2.105 . S
O148 C140 1.268 . S
O149 Sc133 2.105 . S
O149 C139 1.268 . S
O150 Sc134 2.105 . S
O150 C141 1.268 . S
O151 Sc132 2.105 . S
O151 C137 1.268 . S
O152 Sc134 2.105 . S
O152 C136 1.268 . S
O153 Sc133 2.105 . S
O153 C138 1.265 1_554 S
Sc154 O157 2.025 . S
Sc154 O164 2.105 . S
Sc154 O167 2.105 . S
Sc154 O170 2.105 . S
Sc154 O173 2.105 . S
Sc155 O157 2.025 . S
Sc155 O165 2.105 . S
Sc155 O169 2.105 . S
Sc155 O171 2.105 . S
Sc155 O175 2.105 . S
Sc156 O157 2.025 . S
Sc156 O166 2.105 . S
Sc156 O168 2.105 . S
Sc156 O172 2.105 . S
Sc156 O174 2.105 . S
O157 Sc154 2.025 . S
O157 Sc155 2.025 . S
O157 Sc156 2.025 . S
C158 O164 1.268 . S
C158 O174 1.268 . S
C159 O165 1.268 . S
C159 O173 1.268 . S
C160 O166 1.268 . S
C160 O175 1.268 . S
C161 O167 1.268 . S
C161 O171 1.268 . S
C162 O168 1.268 . S
C162 O170 1.268 . S
C163 O169 1.268 . S
C163 O172 1.268 . S
O164 Sc154 2.105 . S
O164 C158 1.268 . S
O165 Sc155 2.105 . S
O165 C159 1.268 . S
O166 Sc156 2.105 . S
O166 C160 1.268 . S
O167 Sc154 2.105 . S
O167 C161 1.268 . S
O168 Sc156 2.105 . S
O168 C162 1.268 . S
O169 Sc155 2.105 . S
O169 C163 1.268 . S
O170 Sc154 2.105 . S
O170 C162 1.268 . S
O171 Sc155 2.105 . S
O171 C161 1.268 . S
O172 Sc156 2.105 . S
O172 C163 1.268 . S
O173 Sc154 2.105 . S
O173 C159 1.268 . S
O174 Sc156 2.105 . S
O174 C158 1.268 . S
O175 Sc155 2.105 . S
O175 C160 1.268 . S
H176 C182 0.930 . S
H177 C186 0.930 . S
H178 C191 0.929 . S
H179 C189 0.929 . S
H180 C184 0.929 . S
H181 C190 0.929 . S
C182 H176 0.930 . S
C182 C183 1.367 . S
C182 C190 1.378 . S
C183 C182 1.367 . S
C183 C191 1.433 . S
C184 H180 0.929 . S
C184 C186 1.378 . S
C184 C188 1.350 . S
C185 C188 1.463 1_455 S
C185 C190 1.350 . S
C185 N193 1.427 . S
C186 H177 0.930 . S
C186 C184 1.378 . S
C186 C187 1.367 . S
C187 C186 1.367 . S
C187 C189 1.433 . S
C188 C184 1.350 . S
C188 C185 1.463 1_655 S
C188 N192 1.427 . S
C189 H179 0.929 . S
C189 C187 1.433 . S
C189 N192 1.384 . S
C190 H181 0.929 . S
C190 C182 1.378 . S
C190 C185 1.350 . S
C191 H178 0.929 . S
C191 C183 1.433 . S
C191 N193 1.384 . S
N192 C188 1.427 . S
N192 C189 1.384 . S
N193 C185 1.427 . S
N193 C191 1.384 . S
H194 C200 0.930 . S
H195 C204 0.930 . S
H196 C209 0.929 . S
H197 C207 0.929 . S
H198 C202 0.929 . S
H199 C208 0.929 . S
C200 H194 0.930 . S
C200 C201 1.367 . S
C200 C208 1.378 . S
C201 C200 1.367 . S
C201 C209 1.433 . S
C202 H198 0.929 . S
C202 C204 1.378 . S
C202 C206 1.350 . S
C203 C206 1.463 . S
C203 C208 1.350 . S
C203 N211 1.427 . S
C204 H195 0.930 . S
C204 C202 1.378 . S
C204 C205 1.367 . S
C205 C204 1.367 . S
C205 C207 1.433 . S
C206 C202 1.350 . S
C206 C203 1.463 . S
C206 N210 1.427 . S
C207 H197 0.929 . S
C207 C205 1.433 . S
C207 N210 1.384 . S
C208 H199 0.929 . S
C208 C200 1.378 . S
C208 C203 1.350 . S
C209 H196 0.929 . S
C209 C201 1.433 . S
C209 N211 1.384 . S
N210 C206 1.427 . S
N210 C207 1.384 . S
N211 C203 1.427 . S
N211 C209 1.384 . S
H212 C218 0.930 . S
H213 C222 0.930 . S
H214 C227 0.929 . S
H215 C225 0.929 . S
H216 C220 0.929 . S
H217 C226 0.929 . S
C218 H212 0.930 . S
C218 C219 1.367 . S
C218 C226 1.378 . S
C219 C218 1.367 . S
C219 C227 1.433 . S
C220 H216 0.929 . S
C220 C222 1.378 . S
C220 C224 1.350 . S
C221 C224 1.463 1_655 S
C221 C226 1.350 . S
C221 N229 1.427 . S
C222 H213 0.930 . S
C222 C220 1.378 . S
C222 C223 1.367 . S
C223 C222 1.367 . S
C223 C225 1.433 . S
C224 C220 1.350 . S
C224 C221 1.463 1_455 S
C224 N228 1.427 . S
C225 H215 0.929 . S
C225 C223 1.433 . S
C225 N228 1.384 . S
C226 H217 0.929 . S
C226 C218 1.378 . S
C226 C221 1.350 . S
C227 H214 0.929 . S
C227 C219 1.433 . S
C227 N229 1.384 . S
N228 C224 1.427 . S
N228 C225 1.384 . S
N229 C221 1.427 . S
N229 C227 1.384 . S
H230 C236 0.930 . S
H231 C240 0.930 . S
H232 C245 0.929 . S
H233 C243 0.929 . S
H234 C238 0.929 . S
H235 C244 0.929 . S
C236 H230 0.930 . S
C236 C237 1.367 . S
C236 C244 1.378 . S
C237 C236 1.367 . S
C237 C245 1.433 . S
C238 H234 0.929 . S
C238 C240 1.378 . S
C238 C242 1.350 . S
C239 C242 1.463 . S
C239 C244 1.350 . S
C239 N247 1.427 . S
C240 H231 0.930 . S
C240 C238 1.378 . S
C240 C241 1.367 . S
C241 C240 1.367 . S
C241 C243 1.433 . S
C242 C238 1.350 . S
C242 C239 1.463 . S
C242 N246 1.427 . S
C243 H233 0.929 . S
C243 C241 1.433 . S
C243 N246 1.384 . S
C244 H235 0.929 . S
C244 C236 1.378 . S
C244 C239 1.350 . S
C245 H232 0.929 . S
C245 C237 1.433 . S
C245 N247 1.384 . S
N246 C242 1.427 . S
N246 C243 1.384 . S
N247 C239 1.427 . S
N247 C245 1.384 . S
H248 C254 0.930 . S
H249 C258 0.930 . S
H250 C263 0.929 . S
H251 C261 0.929 . S
H252 C256 0.929 . S
H253 C262 0.929 . S
C254 H248 0.930 . S
C254 C255 1.367 1_556 S
C254 C262 1.378 . S
C255 C254 1.367 1_554 S
C255 C263 1.433 . S
C256 H252 0.929 . S
C256 C258 1.378 . S
C256 C260 1.350 1_554 S
C257 C260 1.463 1_444 S
C257 C262 1.350 1_554 S
C257 N265 1.427 . S
C258 H249 0.930 . S
C258 C256 1.378 . S
C258 C259 1.367 1_554 S
C259 C258 1.367 1_556 S
C259 C261 1.433 . S
C260 C256 1.350 1_556 S
C260 C257 1.463 1_666 S
C260 N264 1.427 . S
C261 H251 0.929 . S
C261 C259 1.433 . S
C261 N264 1.384 . S
C262 H253 0.929 . S
C262 C254 1.378 . S
C262 C257 1.350 1_556 S
C263 H250 0.929 . S
C263 C255 1.433 . S
C263 N265 1.384 . S
N264 C260 1.427 . S
N264 C261 1.384 . S
N265 C257 1.427 . S
N265 C263 1.384 . S
H266 C272 0.930 . S
H267 C276 0.930 . S
H268 C281 0.929 . S
H269 C279 0.929 . S
H270 C274 0.929 . S
H271 C280 0.929 . S
C272 H266 0.930 . S
C272 C273 1.367 . S
C272 C280 1.378 . S
C273 C272 1.367 . S
C273 C281 1.433 . S
C274 H270 0.929 . S
C274 C276 1.378 . S
C274 C278 1.350 . S
C275 C278 1.463 . S
C275 C280 1.350 . S
C275 N283 1.427 . S
C276 H267 0.930 . S
C276 C274 1.378 . S
C276 C277 1.367 . S
C277 C276 1.367 . S
C277 C279 1.433 . S
C278 C274 1.350 . S
C278 C275 1.463 . S
C278 N282 1.427 . S
C279 H269 0.929 . S
C279 C277 1.433 . S
C279 N282 1.384 . S
C280 H271 0.929 . S
C280 C272 1.378 . S
C280 C275 1.350 . S
C281 H268 0.929 . S
C281 C273 1.433 . S
C281 N283 1.384 . S
N282 C278 1.427 . S
N282 C279 1.384 . S
N283 C275 1.427 . S
N283 C281 1.384 . S
H284 C290 0.930 1_556 S
H285 C294 0.930 1_554 S
H286 C299 0.929 . S
H287 C297 0.929 . S
H288 C292 0.929 . S
H289 C298 0.929 . S
C290 H284 0.930 1_554 S
C290 C291 1.367 . S
C290 C298 1.378 1_554 S
C291 C290 1.367 . S
C291 C299 1.433 . S
C292 H288 0.929 . S
C292 C294 1.378 1_554 S
C292 C296 1.350 1_554 S
C293 C296 1.463 1_554 S
C293 C298 1.350 1_554 S
C293 N301 1.427 . S
C294 H285 0.930 1_556 S
C294 C292 1.378 1_556 S
C294 C295 1.367 . S
C295 C294 1.367 . S
C295 C297 1.433 . S
C296 C292 1.350 1_556 S
C296 C293 1.463 1_556 S
C296 N300 1.427 . S
C297 H287 0.929 . S
C297 C295 1.433 . S
C297 N300 1.384 . S
C298 H289 0.929 . S
C298 C290 1.378 1_556 S
C298 C293 1.350 1_556 S
C299 H286 0.929 . S
C299 C291 1.433 . S
C299 N301 1.384 . S
N300 C296 1.427 . S
N300 C297 1.384 . S
N301 C293 1.427 . S
N301 C299 1.384 . S
H302 C308 0.930 . S
H303 C312 0.930 . S
H304 C317 0.929 . S
H305 C315 0.929 . S
H306 C310 0.929 1_655 S
H307 C316 0.929 1_455 S
C308 H302 0.930 . S
C308 C309 1.367 . S
C308 C316 1.378 . S
C309 C308 1.367 . S
C309 C317 1.433 . S
C310 H306 0.929 1_455 S
C310 C312 1.378 . S
C310 C314 1.350 . S
C311 C314 1.463 1_645 S
C311 C316 1.350 . S
C311 N319 1.427 . S
C312 H303 0.930 . S
C312 C310 1.378 . S
C312 C313 1.367 . S
C313 C312 1.367 . S
C313 C315 1.433 . S
C314 C310 1.350 . S
C314 C311 1.463 1_465 S
C314 N318 1.427 . S
C315 H305 0.929 . S
C315 C313 1.433 . S
C315 N318 1.384 . S
C316 H307 0.929 1_655 S
C316 C308 1.378 . S
C316 C311 1.350 . S
C317 H304 0.929 . S
C317 C309 1.433 . S
C317 N319 1.384 . S
N318 C314 1.427 . S
N318 C315 1.384 . S
N319 C311 1.427 . S
N319 C317 1.384 . S
H320 C326 0.930 . S
H321 C330 0.930 . S
H322 C335 0.929 . S
H323 C333 0.929 . S
H324 C328 0.929 . S
H325 C334 0.929 . S
C326 H320 0.930 . S
C326 C327 1.367 . S
C326 C334 1.378 . S
C327 C326 1.367 . S
C327 C335 1.433 . S
C328 H324 0.929 . S
C328 C330 1.378 . S
C328 C332 1.350 1_545 S
C329 C332 1.463 . S
C329 C334 1.350 . S
C329 N337 1.427 . S
C330 H321 0.930 . S
C330 C328 1.378 . S
C330 C331 1.367 . S
C331 C330 1.367 . S
C331 C333 1.433 . S
C332 C328 1.350 1_565 S
C332 C329 1.463 . S
C332 N336 1.427 1_565 S
C333 H323 0.929 . S
C333 C331 1.433 . S
C333 N336 1.384 . S
C334 H325 0.929 . S
C334 C326 1.378 . S
C334 C329 1.350 . S
C335 H322 0.929 . S
C335 C327 1.433 . S
C335 N337 1.384 . S
N336 C332 1.427 1_545 S
N336 C333 1.384 . S
N337 C329 1.427 . S
N337 C335 1.384 . S
H338 C344 0.930 . S
H339 C348 0.930 . S
H340 C353 0.929 . S
H341 C351 0.929 . S
H342 C346 0.929 . S
H343 C352 0.929 . S
C344 H338 0.930 . S
C344 C345 1.367 . S
C344 C352 1.378 . S
C345 C344 1.367 . S
C345 C353 1.433 . S
C346 H342 0.929 . S
C346 C348 1.378 . S
C346 C350 1.350 . S
C347 C350 1.463 . S
C347 C352 1.350 . S
C347 N355 1.427 . S
C348 H339 0.930 . S
C348 C346 1.378 . S
C348 C349 1.367 . S
C349 C348 1.367 . S
C349 C351 1.433 . S
C350 C346 1.350 . S
C350 C347 1.463 . S
C350 N354 1.427 . S
C351 H341 0.929 . S
C351 C349 1.433 . S
C351 N354 1.384 . S
C352 H343 0.929 . S
C352 C344 1.378 . S
C352 C347 1.350 . S
C353 H340 0.929 . S
C353 C345 1.433 . S
C353 N355 1.384 . S
N354 C350 1.427 . S
N354 C351 1.384 . S
N355 C347 1.427 . S
N355 C353 1.384 . S
H356 C362 0.930 . S
H357 C366 0.930 . S
H358 C371 0.929 . S
H359 C369 0.929 . S
H360 C364 0.929 . S
H361 C370 0.929 . S
C362 H356 0.930 . S
C362 C363 1.367 . S
C362 C370 1.378 . S
C363 C362 1.367 . S
C363 C371 1.433 . S
C364 H360 0.929 . S
C364 C366 1.378 . S
C364 C368 1.350 . S
C365 C368 1.463 . S
C365 C370 1.350 . S
C365 N373 1.427 . S
C366 H357 0.930 . S
C366 C364 1.378 . S
C366 C367 1.367 . S
C367 C366 1.367 . S
C367 C369 1.433 . S
C368 C364 1.350 . S
C368 C365 1.463 . S
C368 N372 1.427 . S
C369 H359 0.929 . S
C369 C367 1.433 . S
C369 N372 1.384 . S
C370 H361 0.929 . S
C370 C362 1.378 . S
C370 C365 1.350 . S
C371 H358 0.929 . S
C371 C363 1.433 . S
C371 N373 1.384 . S
N372 C368 1.427 . S
N372 C369 1.384 . S
N373 C365 1.427 . S
N373 C371 1.384 . S
H374 C380 0.930 . S
H375 C384 0.930 . S
H376 C389 0.929 . S
H377 C387 0.929 . S
H378 C382 0.929 . S
H379 C388 0.929 . S
C380 H374 0.930 . S
C380 C381 1.367 . S
C380 C388 1.378 . S
C381 C380 1.367 . S
C381 C389 1.433 . S
C382 H378 0.929 . S
C382 C384 1.378 . S
C382 C386 1.350 . S
C383 C386 1.463 . S
C383 C388 1.350 1_565 S
C383 N391 1.427 1_565 S
C384 H375 0.930 . S
C384 C382 1.378 . S
C384 C385 1.367 . S
C385 C384 1.367 . S
C385 C387 1.433 . S
C386 C382 1.350 . S
C386 C383 1.463 . S
C386 N390 1.427 . S
C387 H377 0.929 . S
C387 C385 1.433 . S
C387 N390 1.384 . S
C388 H379 0.929 . S
C388 C380 1.378 . S
C388 C383 1.350 1_545 S
C389 H376 0.929 . S
C389 C381 1.433 . S
C389 N391 1.384 . S
N390 C386 1.427 . S
N390 C387 1.384 . S
N391 C383 1.427 1_545 S
N391 C389 1.384 . S
H392 C398 0.930 . S
H393 C402 0.930 . S
H394 C407 0.929 . S
H395 C405 0.929 . S
H396 C400 0.929 . S
H397 C406 0.929 . S
C398 H392 0.930 . S
C398 C399 1.367 . S
C398 C406 1.378 . S
C399 C398 1.367 . S
C399 C407 1.433 . S
C400 H396 0.929 . S
C400 C402 1.378 . S
C400 C404 1.350 1_565 S
C401 C404 1.463 . S
C401 C406 1.350 . S
C401 N409 1.427 . S
C402 H393 0.930 . S
C402 C400 1.378 . S
C402 C403 1.367 . S
C403 C402 1.367 . S
C403 C405 1.433 . S
C404 C400 1.350 1_545 S
C404 C401 1.463 . S
C404 N408 1.427 1_545 S
C405 H395 0.929 . S
C405 C403 1.433 . S
C405 N408 1.384 . S
C406 H397 0.929 . S
C406 C398 1.378 . S
C406 C401 1.350 . S
C407 H394 0.929 . S
C407 C399 1.433 . S
C407 N409 1.384 . S
N408 C404 1.427 1_565 S
N408 C405 1.384 . S
N409 C401 1.427 . S
N409 C407 1.384 . S
H410 C416 0.930 . S
H411 C420 0.930 . S
H412 C425 0.929 . S
H413 C423 0.929 . S
H414 C418 0.929 . S
H415 C424 0.929 . S
C416 H410 0.930 . S
C416 C417 1.367 . S
C416 C424 1.378 . S
C417 C416 1.367 . S
C417 C425 1.433 . S
C418 H414 0.929 . S
C418 C420 1.378 . S
C418 C422 1.350 . S
C419 C422 1.463 . S
C419 C424 1.350 . S
C419 N427 1.427 . S
C420 H411 0.930 . S
C420 C418 1.378 . S
C420 C421 1.367 . S
C421 C420 1.367 . S
C421 C423 1.433 . S
C422 C418 1.350 . S
C422 C419 1.463 . S
C422 N426 1.427 . S
C423 H413 0.929 . S
C423 C421 1.433 . S
C423 N426 1.384 . S
C424 H415 0.929 . S
C424 C416 1.378 . S
C424 C419 1.350 . S
C425 H412 0.929 . S
C425 C417 1.433 . S
C425 N427 1.384 . S
N426 C422 1.427 . S
N426 C423 1.384 . S
N427 C419 1.427 . S
N427 C425 1.384 . S
H428 C434 0.930 . S
H429 C438 0.930 . S
H430 C443 0.929 . S
H431 C441 0.929 . S
H432 C436 0.929 . S
H433 C442 0.929 . S
C434 H428 0.930 . S
C434 C435 1.367 . S
C434 C442 1.378 . S
C435 C434 1.367 . S
C435 C443 1.433 . S
C436 H432 0.929 . S
C436 C438 1.378 . S
C436 C440 1.350 . S
C437 C440 1.463 . S
C437 C442 1.350 . S
C437 N445 1.427 . S
C438 H429 0.930 . S
C438 C436 1.378 . S
C438 C439 1.367 . S
C439 C438 1.367 . S
C439 C441 1.433 . S
C440 C436 1.350 . S
C440 C437 1.463 . S
C440 N444 1.427 . S
C441 H431 0.929 . S
C441 C439 1.433 . S
C441 N444 1.384 . S
C442 H433 0.929 . S
C442 C434 1.378 . S
C442 C437 1.350 . S
C443 H430 0.929 . S
C443 C435 1.433 . S
C443 N445 1.384 . S
N444 C440 1.427 . S
N444 C441 1.384 . S
N445 C437 1.427 . S
N445 C443 1.384 . S
H446 C452 0.930 . S
H447 C456 0.930 . S
H448 C461 0.929 . S
H449 C459 0.929 . S
H450 C454 0.929 . S
H451 C460 0.929 1_545 S
C452 H446 0.930 . S
C452 C453 1.367 . S
C452 C460 1.378 . S
C453 C452 1.367 . S
C453 C461 1.433 . S
C454 H450 0.929 . S
C454 C456 1.378 . S
C454 C458 1.350 . S
C455 C458 1.463 . S
C455 C460 1.350 1_545 S
C455 N463 1.427 1_545 S
C456 H447 0.930 . S
C456 C454 1.378 . S
C456 C457 1.367 . S
C457 C456 1.367 . S
C457 C459 1.433 . S
C458 C454 1.350 . S
C458 C455 1.463 . S
C458 N462 1.427 . S
C459 H449 0.929 . S
C459 C457 1.433 . S
C459 N462 1.384 . S
C460 H451 0.929 1_565 S
C460 C452 1.378 . S
C460 C455 1.350 1_565 S
C461 H448 0.929 . S
C461 C453 1.433 . S
C461 N463 1.384 . S
N462 C458 1.427 . S
N462 C459 1.384 . S
N463 C455 1.427 1_565 S
N463 C461 1.384 . S
H464 C470 0.930 . S
H465 C474 0.930 . S
H466 C479 0.929 . S
H467 C477 0.929 . S
H468 C472 0.929 . S
H469 C478 0.929 . S
C470 H464 0.930 . S
C470 C471 1.367 . S
C470 C478 1.378 . S
C471 C470 1.367 . S
C471 C479 1.433 . S
C472 H468 0.929 . S
C472 C474 1.378 . S
C472 C476 1.350 . S
C473 C476 1.463 . S
C473 C478 1.350 . S
C473 N481 1.427 . S
C474 H465 0.930 . S
C474 C472 1.378 . S
C474 C475 1.367 . S
C475 C474 1.367 . S
C475 C477 1.433 . S
C476 C472 1.350 . S
C476 C473 1.463 . S
C476 N480 1.427 . S
C477 H467 0.929 . S
C477 C475 1.433 . S
C477 N480 1.384 . S
C478 H469 0.929 . S
C478 C470 1.378 . S
C478 C473 1.350 . S
C479 H466 0.929 . S
C479 C471 1.433 . S
C479 N481 1.384 . S
N480 C476 1.427 . S
N480 C477 1.384 . S
N481 C473 1.427 . S
N481 C479 1.384 . S
H482 C488 0.930 . S
H483 C492 0.930 . S
H484 C497 0.929 . S
H485 C495 0.929 . S
H486 C490 0.929 . S
H487 C496 0.929 . S
C488 H482 0.930 . S
C488 C489 1.367 . S
C488 C496 1.378 . S
C489 C488 1.367 . S
C489 C497 1.433 . S
C490 H486 0.929 . S
C490 C492 1.378 . S
C490 C494 1.350 . S
C491 C494 1.463 . S
C491 C496 1.350 . S
C491 N499 1.427 . S
C492 H483 0.930 . S
C492 C490 1.378 . S
C492 C493 1.367 . S
C493 C492 1.367 . S
C493 C495 1.433 . S
C494 C490 1.350 . S
C494 C491 1.463 . S
C494 N498 1.427 . S
C495 H485 0.929 . S
C495 C493 1.433 . S
C495 N498 1.384 . S
C496 H487 0.929 . S
C496 C488 1.378 . S
C496 C491 1.350 . S
C497 H484 0.929 . S
C497 C489 1.433 . S
C497 N499 1.384 . S
N498 C494 1.427 . S
N498 C495 1.384 . S
N499 C491 1.427 . S
N499 C497 1.384 . S
H500 C506 0.930 . S
H501 C510 0.930 . S
H502 C515 0.929 . S
H503 C513 0.929 . S
H504 C508 0.929 . S
H505 C514 0.929 . S
C506 H500 0.930 . S
C506 C507 1.367 . S
C506 C514 1.378 . S
C507 C506 1.367 . S
C507 C515 1.433 . S
C508 H504 0.929 . S
C508 C510 1.378 . S
C508 C512 1.350 . S
C509 C512 1.463 . S
C509 C514 1.350 . S
C509 N517 1.427 . S
C510 H501 0.930 . S
C510 C508 1.378 . S
C510 C511 1.367 . S
C511 C510 1.367 . S
C511 C513 1.433 . S
C512 C508 1.350 . S
C512 C509 1.463 . S
C512 N516 1.427 . S
C513 H503 0.929 . S
C513 C511 1.433 . S
C513 N516 1.384 . S
C514 H505 0.929 . S
C514 C506 1.378 . S
C514 C509 1.350 . S
C515 H502 0.929 . S
C515 C507 1.433 . S
C515 N517 1.384 . S
N516 C512 1.427 . S
N516 C513 1.384 . S
N517 C509 1.427 . S
N517 C515 1.384 . S
H518 C524 0.930 . S
H519 C528 0.930 . S
H520 C533 0.929 . S
H521 C531 0.929 . S
H522 C526 0.929 . S
H523 C532 0.929 . S
C524 H518 0.930 . S
C524 C525 1.367 . S
C524 C532 1.378 . S
C525 C524 1.367 . S
C525 C533 1.433 . S
C526 H522 0.929 . S
C526 C528 1.378 . S
C526 C530 1.350 . S
C527 C530 1.463 . S
C527 C532 1.350 . S
C527 N535 1.427 . S
C528 H519 0.930 . S
C528 C526 1.378 . S
C528 C529 1.367 . S
C529 C528 1.367 . S
C529 C531 1.433 . S
C530 C526 1.350 . S
C530 C527 1.463 . S
C530 N534 1.427 . S
C531 H521 0.929 . S
C531 C529 1.433 . S
C531 N534 1.384 . S
C532 H523 0.929 . S
C532 C524 1.378 . S
C532 C527 1.350 . S
C533 H520 0.929 . S
C533 C525 1.433 . S
C533 N535 1.384 . S
N534 C530 1.427 . S
N534 C531 1.384 . S
N535 C527 1.427 . S
N535 C533 1.384 . S
H536 C542 0.930 . S
H537 C546 0.930 . S
H538 C551 0.929 . S
H539 C549 0.929 . S
H540 C544 0.929 . S
H541 C550 0.929 . S
C542 H536 0.930 . S
C542 C543 1.367 . S
C542 C550 1.378 . S
C543 C542 1.367 . S
C543 C551 1.433 . S
C544 H540 0.929 . S
C544 C546 1.378 . S
C544 C548 1.350 . S
C545 C548 1.463 . S
C545 C550 1.350 . S
C545 N553 1.427 . S
C546 H537 0.930 . S
C546 C544 1.378 . S
C546 C547 1.367 . S
C547 C546 1.367 . S
C547 C549 1.433 . S
C548 C544 1.350 . S
C548 C545 1.463 . S
C548 N552 1.427 . S
C549 H539 0.929 . S
C549 C547 1.433 . S
C549 N552 1.384 . S
C550 H541 0.929 . S
C550 C542 1.378 . S
C550 C545 1.350 . S
C551 H538 0.929 . S
C551 C543 1.433 . S
C551 N553 1.384 . S
N552 C548 1.427 . S
N552 C549 1.384 . S
N553 C545 1.427 . S
N553 C551 1.384 . S
H554 C560 0.930 . S
H555 C564 0.930 . S
H556 C569 0.929 . S
H557 C567 0.929 . S
H558 C562 0.929 . S
H559 C568 0.929 . S
C560 H554 0.930 . S
C560 C561 1.367 . S
C560 C568 1.378 . S
C561 C560 1.367 . S
C561 C569 1.433 . S
C562 H558 0.929 . S
C562 C564 1.378 . S
C562 C566 1.350 . S
C563 C566 1.463 . S
C563 C568 1.350 . S
C563 N571 1.427 . S
C564 H555 0.930 . S
C564 C562 1.378 . S
C564 C565 1.367 . S
C565 C564 1.367 . S
C565 C567 1.433 . S
C566 C562 1.350 . S
C566 C563 1.463 . S
C566 N570 1.427 . S
C567 H557 0.929 . S
C567 C565 1.433 . S
C567 N570 1.384 . S
C568 H559 0.929 . S
C568 C560 1.378 . S
C568 C563 1.350 . S
C569 H556 0.929 . S
C569 C561 1.433 . S
C569 N571 1.384 . S
N570 C566 1.427 . S
N570 C567 1.384 . S
N571 C563 1.427 . S
N571 C569 1.384 . S
H572 C578 0.930 . S
H573 C582 0.930 . S
H574 C587 0.929 . S
H575 C585 0.929 . S
H576 C580 0.929 . S
H577 C586 0.929 . S
C578 H572 0.930 . S
C578 C579 1.367 . S
C578 C586 1.378 . S
C579 C578 1.367 . S
C579 C587 1.433 . S
C580 H576 0.929 . S
C580 C582 1.378 . S
C580 C584 1.350 . S
C581 C584 1.463 . S
C581 C586 1.350 . S
C581 N589 1.427 . S
C582 H573 0.930 . S
C582 C580 1.378 . S
C582 C583 1.367 . S
C583 C582 1.367 . S
C583 C585 1.433 . S
C584 C580 1.350 . S
C584 C581 1.463 . S
C584 N588 1.427 . S
C585 H575 0.929 . S
C585 C583 1.433 . S
C585 N588 1.384 . S
C586 H577 0.929 . S
C586 C578 1.378 . S
C586 C581 1.350 . S
C587 H574 0.929 . S
C587 C579 1.433 . S
C587 N589 1.384 . S
N588 C584 1.427 . S
N588 C585 1.384 . S
N589 C581 1.427 . S
N589 C587 1.384 . S
H590 C596 0.930 . S
H591 C600 0.930 . S
H592 C605 0.929 . S
H593 C603 0.929 . S
H594 C598 0.929 . S
H595 C604 0.929 . S
C596 H590 0.930 . S
C596 C597 1.367 . S
C596 C604 1.378 . S
C597 C596 1.367 . S
C597 C605 1.433 . S
C598 H594 0.929 . S
C598 C600 1.378 . S
C598 C602 1.350 . S
C599 C602 1.463 . S
C599 C604 1.350 . S
C599 N607 1.427 . S
C600 H591 0.930 . S
C600 C598 1.378 . S
C600 C601 1.367 . S
C601 C600 1.367 . S
C601 C603 1.433 . S
C602 C598 1.350 . S
C602 C599 1.463 . S
C602 N606 1.427 . S
C603 H593 0.929 . S
C603 C601 1.433 . S
C603 N606 1.384 . S
C604 H595 0.929 . S
C604 C596 1.378 . S
C604 C599 1.350 . S
C605 H592 0.929 . S
C605 C597 1.433 . S
C605 N607 1.384 . S
N606 C602 1.427 . S
N606 C603 1.384 . S
N607 C599 1.427 . S
N607 C605 1.384 . S
C183 C9 0.717 . S
C187 C71 0.739 . S
C201 C27 0.714 . S
C205 C49 0.741 . S
C219 C94 0.742 . S
C223 C160 0.713 . S
C237 C116 0.738 . S
C241 C139 0.718 . S
C255 C6 1.984 . S
C259 C97 1.984 . S
C273 C119 1.984 . S
C277 C29 1.984 . S
C291 C137 1.983 . S
C295 C51 1.983 . S
C309 C73 1.976 . S
C313 C163 1.976 . S
C327 C141 0.942 . S
C331 C4 0.951 . S
C345 C159 0.960 . S
C349 C30 0.969 . S
C363 C52 0.969 . S
C367 C93 0.959 . S
C381 C74 0.968 . S
C385 C115 0.956 . S
C399 C50 0.958 . S
C403 C96 0.969 . S
C417 C118 0.969 . S
C421 C72 0.961 . S
C435 C7 0.956 . S
C439 C136 0.959 . S
C453 C162 0.953 . S
C457 C28 0.948 . S
C471 C5 1.644 . S
C475 C26 1.660 . S
C489 C8 1.656 . S
C493 C31 1.633 . S
C507 C70 1.661 . S
C511 C53 1.644 . S
C525 C75 1.634 . S
C529 C48 1.660 . S
C543 C95 1.645 . S
C547 C114 1.661 . S
C561 C92 1.658 . S
C565 C117 1.635 . S
C579 C158 1.657 . S
C583 C138 1.655 . S
C597 C161 1.630 . S
C601 C140 1.656 . S
