# Generated by pormake.
# Topology bcg, (8)-cn, num edge types: 1
# Building blocks:
#     Node 0, Type 0, BuildingBlock: TAGTUT_clean_sbu_1, # of connection points: 8
#     Node 1, Type 0, BuildingBlock: TAGTUT_clean_sbu_1, # of connection points: 8
#     Node 2, Type 0, BuildingBlock: TAGTUT_clean_sbu_1, # of connection points: 8
#     Node 3, Type 0, BuildingBlock: TAGTUT_clean_sbu_1, # of connection points: 8
#     Edge 4, Type (0, 0), BuildingBlock: AJUNOK_clean_linker_0, # of connection points: 2
#     Edge 5, Type (0, 0), BuildingBlock: AJUNOK_clean_linker_0, # of connection points: 2
#     Edge 6, Type (0, 0), BuildingBlock: AJUNOK_clean_linker_0, # of connection points: 2
#     Edge 7, Type (0, 0), BuildingBlock: AJUNOK_clean_linker_0, # of connection points: 2
#     Edge 8, Type (0, 0), BuildingBlock: AJUNOK_clean_linker_0, # of connection points: 2
#     Edge 9, Type (0, 0), BuildingBlock: AJUNOK_clean_linker_0, # of connection points: 2
#     Edge 10, Type (0, 0), BuildingBlock: AJUNOK_clean_linker_0, # of connection points: 2
#     Edge 11, Type (0, 0), BuildingBlock: AJUNOK_clean_linker_0, # of connection points: 2
#     Edge 12, Type (0, 0), BuildingBlock: AJUNOK_clean_linker_0, # of connection points: 2
#     Edge 13, Type (0, 0), BuildingBlock: AJUNOK_clean_linker_0, # of connection points: 2
#     Edge 14, Type (0, 0), BuildingBlock: AJUNOK_clean_linker_0, # of connection points: 2
#     Edge 15, Type (0, 0), BuildingBlock: AJUNOK_clean_linker_0, # of connection points: 2
#     Edge 16, Type (0, 0), BuildingBlock: AJUNOK_clean_linker_0, # of connection points: 2
#     Edge 17, Type (0, 0), BuildingBlock: AJUNOK_clean_linker_0, # of connection points: 2
#     Edge 18, Type (0, 0), BuildingBlock: AJUNOK_clean_linker_0, # of connection points: 2
#     Edge 19, Type (0, 0), BuildingBlock: AJUNOK_clean_linker_0, # of connection points: 2
# Relax obj value: 0.097
# Max RMSD: 0.211
# Mean RMSD: 0.211
data_MOF--net-bcg--node1-TAGTUT_clean_sbu_1--edge1-AJUNOK_clean_linker_0
_symmetry_space_group_name_H-M    P1
_symmetry_Int_Tables_number       1
_symmetry_cell_setting            triclinic
loop_
_symmetry_equiv_pos_as_xyz
'x, y, z'
_cell_length_a     11.427458
_cell_length_b     19.831651
_cell_length_c     27.957618
_cell_angle_alpha  82.551283
_cell_angle_beta   89.971448
_cell_angle_gamma 89.509458
loop_
_atom_site_label
_atom_site_type_symbol
_atom_site_fract_x
_atom_site_fract_y
_atom_site_fract_z
_atom_type_partial_charge
C0 C 0.17726 0.24561 0.15259 0.0
C1 C 0.48442 0.28194 0.08404 0.0
C2 C 0.32315 0.43219 0.94204 0.0
Mg3 Mg 0.29302 0.18213 0.06901 0.0
O4 O 0.20945 0.25182 0.03229 0.0
Mg5 Mg 0.21903 0.34605 0.04796 0.0
Mg6 Mg 0.25398 0.27189 0.9632 0.0
O7 O 0.30203 0.29071 0.89414 0.0
Mg8 Mg 0.23566 0.36259 0.85383 0.0
Mg9 Mg 0.30163 0.19666 0.87852 0.0
C10 C 0.20238 0.10686 -0.01539 0.0
C11 C 0.52072 0.22729 0.94902 0.0
O12 O 0.16725 0.30273 0.12535 0.0
O13 O 0.21837 0.19189 0.1377 0.0
O14 O 0.40759 0.32964 0.07596 0.0
O15 O 0.46475 0.22173 0.07443 0.0
O16 O 0.23136 0.10146 0.02932 0.0
O17 O 0.22613 0.16122 0.95578 0.0
C18 C 0.99035 0.31983 -0.01956 0.0
O19 O 0.06102 0.29488 0.95169 0.0
O20 O 0.0265 0.34379 0.01852 0.0
O21 O 0.36346 0.23865 0.80177 0.0
O22 O 0.31824 0.35 0.78678 0.0
O23 O 0.11929 0.21477 0.84526 0.0
C24 C 0.3574 0.29491 0.7733 0.0
O25 O 0.06389 0.32364 0.84566 0.0
O26 O 0.30633 0.4381 0.89626 0.0
C27 C 0.04494 0.26346 0.83548 0.0
O28 O 0.2808 0.38204 -0.02979 0.0
O29 O 0.44557 0.25157 -0.02406 0.0
O30 O 0.49027 0.20079 0.91124 0.0
C31 C 0.67038 0.74139 0.16357 0.0
C32 C 0.97789 0.77866 0.09576 0.0
C33 C 0.80959 0.93378 0.95148 0.0
Mg34 Mg 0.78414 0.67924 0.0793 0.0
O35 O 0.70561 0.75105 0.04258 0.0
Mg36 Mg 0.71495 0.84471 0.05924 0.0
Mg37 Mg 0.74985 0.77208 -0.02652 0.0
O38 O 0.79586 0.79172 0.90407 0.0
Mg39 Mg 0.72098 0.86111 0.86431 0.0
Mg40 Mg 0.79861 0.69752 0.8882 0.0
C41 C 0.69673 0.60704 -0.00712 0.0
C42 C 0.01689 0.72975 0.95867 0.0
O43 O 0.66371 0.79943 0.13713 0.0
O44 O 0.70689 0.68733 0.14775 0.0
O45 O 0.90305 0.82727 0.08689 0.0
O46 O 0.95637 0.7183 0.08669 0.0
O47 O 0.71985 0.60029 0.03818 0.0
O48 O 0.72578 0.66137 0.96525 0.0
C49 C 0.48642 0.81997 -0.00843 0.0
O50 O 0.55666 0.79484 0.96271 0.0
O51 O 0.52277 0.84342 0.02981 0.0
O52 O 0.85747 0.74072 0.81144 0.0
O53 O 0.8029 0.85067 0.79667 0.0
O54 O 0.6156 0.71128 0.85563 0.0
C55 C 0.84713 0.79687 0.78307 0.0
O56 O 0.55187 0.81833 0.85689 0.0
O57 O 0.78665 0.93844 0.90616 0.0
C58 C 0.53756 0.75793 0.84636 0.0
O59 O 0.77582 0.88226 -0.01914 0.0
O60 O 0.94135 0.75262 -0.01391 0.0
O61 O 0.98708 0.70403 0.9205 0.0
C62 C 0.16106 0.78222 0.28314 0.0
C63 C 0.46805 0.74349 0.34787 0.0
C64 C 0.29798 0.59382 0.49722 0.0
Mg65 Mg 0.27982 0.84571 0.3653 0.0
O66 O 0.20016 0.77708 0.40378 0.0
Mg67 Mg 0.20655 0.68226 0.389 0.0
Mg68 Mg 0.24683 0.75825 0.4728 0.0
O69 O 0.2941 0.74038 0.542 0.0
Mg70 Mg 0.21475 0.67358 0.5818 0.0
Mg71 Mg 0.29209 0.83586 0.55571 0.0
C72 C 0.20204 0.9244 0.45031 0.0
C73 C 0.50853 0.7977 0.48668 0.0
O74 O 0.15182 0.72549 0.31095 0.0
O75 O 0.20036 0.83631 0.29756 0.0
O76 O 0.39244 0.69626 0.35796 0.0
O77 O 0.45007 0.80419 0.35721 0.0
O78 O 0.22609 0.92842 0.40516 0.0
O79 O 0.22113 0.86914 0.47871 0.0
C80 C 0.98783 0.71474 0.459 0.0
O81 O 0.06189 0.73955 0.48564 0.0
O82 O 0.01858 0.68731 0.42142 0.0
O83 O 0.35102 0.79499 0.63275 0.0
O84 O 0.29488 0.68595 0.64921 0.0
O85 O 0.10731 0.82424 0.58756 0.0
C86 C 0.34033 0.73965 0.66181 0.0
O87 O 0.04427 0.71778 0.58651 0.0
O88 O 0.27692 0.59191 0.54253 0.0
C89 C 0.02876 0.77854 0.59637 0.0
O90 O 0.27064 0.64657 0.46732 0.0
O91 O 0.43238 0.77605 0.45948 0.0
O92 O 0.47981 0.82713 0.52354 0.0
C93 C 0.6691 0.28828 0.27081 0.0
C94 C 0.9762 0.2565 0.33656 0.0
C95 C 0.82254 0.10851 0.48661 0.0
Mg96 Mg 0.78471 0.35767 0.35138 0.0
O97 O 0.71556 0.2873 0.3916 0.0
Mg98 Mg 0.71797 0.19258 0.37776 0.0
Mg99 Mg 0.76042 0.27137 0.46115 0.0
O100 O 0.8037 0.25423 0.53055 0.0
Mg101 Mg 0.72497 0.18571 0.56922 0.0
Mg102 Mg 0.79554 0.34901 0.54438 0.0
C103 C 0.67591 0.42607 0.43594 0.0
C104 C 0.0231 0.31722 0.47768 0.0
O105 O 0.66007 0.23237 0.29949 0.0
O106 O 0.70834 0.34291 0.28423 0.0
O107 O 0.90048 0.20935 0.34611 0.0
O108 O 0.95798 0.3173 0.34605 0.0
O109 O 0.69745 0.43153 0.39058 0.0
O110 O 0.73471 0.38375 0.46555 0.0
C111 C 0.49537 0.22632 0.44622 0.0
O112 O 0.56837 0.25311 0.47248 0.0
O113 O 0.52785 0.19794 0.40937 0.0
O114 O 0.85003 0.30804 0.62236 0.0
O115 O 0.79941 0.19803 0.6374 0.0
O116 O 0.60778 0.33439 0.57403 0.0
C117 C 0.84116 0.25206 0.6509 0.0
O118 O 0.55228 0.22679 0.57223 0.0
O119 O 0.79641 0.10521 0.5315 0.0
C120 C 0.53272 0.28662 0.58307 0.0
O121 O 0.7882 0.15944 0.45629 0.0
O122 O 0.95252 0.29082 0.45011 0.0
O123 O 0.98741 0.34416 0.51472 0.0
C124 C 0.70093 0.22951 -0.00024 0.0
C125 C 0.64309 0.24783 0.95557 0.0
C126 C 0.81028 0.25728 0.00902 0.0
C127 C 0.8649 0.30499 -0.02542 0.0
H128 H 0.66197 0.19285 0.02704 0.0
H129 H 0.85452 0.23922 0.04258 0.0
S130 S 0.74111 0.37748 0.85649 0.0
N131 N 0.64229 0.32213 0.87937 0.0
N132 N 0.84847 0.3733 0.89638 0.0
C133 C 0.80589 0.32555 0.93107 0.0
C134 C 0.69469 0.2974 0.92172 0.0
C135 C 0.19537 0.73191 0.0102 0.0
C136 C 0.13885 0.75033 0.96573 0.0
C137 C 0.30487 0.75908 0.01982 0.0
C138 C 0.36082 0.80628 -0.01452 0.0
H139 H 0.15536 0.69553 0.03738 0.0
H140 H 0.34827 0.74083 0.05354 0.0
S141 S 0.24032 0.87937 0.86693 0.0
N142 N 0.14032 0.82453 0.88947 0.0
N143 N 0.34675 0.87476 0.90725 0.0
C144 C 0.30283 0.82726 0.94179 0.0
C145 C 0.19153 0.79966 0.93204 0.0
C146 C 0.72311 0.80802 0.49937 0.0
C147 C 0.63023 0.77564 0.47961 0.0
C148 C 0.8378 0.78572 0.49389 0.0
C149 C 0.86451 0.73097 0.46791 0.0
H150 H 0.70747 0.85098 0.51891 0.0
H151 H 0.90623 0.81297 0.50933 0.0
S152 S 0.65272 0.62364 0.41428 0.0
N153 N 0.57169 0.67943 0.43857 0.0
N154 N 0.78937 0.64268 0.42481 0.0
C155 C 0.7728 0.69717 0.44897 0.0
C156 C 0.6553 0.71819 0.45575 0.0
C157 C 0.21584 0.33045 0.43519 0.0
C158 C 0.14737 0.29867 0.47315 0.0
C159 C 0.32701 0.30446 0.42549 0.0
C160 C 0.37176 0.24492 0.45256 0.0
H161 H 0.18276 0.37504 0.41258 0.0
H162 H 0.37902 0.33149 0.39687 0.0
S163 S 0.2185 0.13738 0.55061 0.0
N164 N 0.12709 0.20137 0.53486 0.0
N165 N 0.33613 0.15287 0.51665 0.0
C166 C 0.30345 0.21225 0.49007 0.0
C167 C 0.1908 0.23886 0.50014 0.0
C168 C 0.60709 0.49136 -0.00735 0.0
C169 C 0.60512 0.56182 -0.023 0.0
C170 C 0.51189 0.44989 -0.01618 0.0
C171 C 0.41041 0.47761 0.9599 0.0
H172 H 0.68275 0.46815 0.01173 0.0
H173 H 0.51952 0.39549 -0.00573 0.0
S174 S 0.35313 0.65896 0.9184 0.0
N175 N 0.48625 0.65761 0.94144 0.0
N176 N 0.3105 0.57922 0.92366 0.0
C177 C 0.40613 0.54767 0.94534 0.0
C178 C 0.50235 0.58986 0.95431 0.0
C179 C 0.56569 0.47886 0.49999 0.0
C180 C 0.57459 0.46503 0.45218 0.0
C181 C 0.47094 0.5167 0.51484 0.0
C182 C 0.38137 0.54249 0.48244 0.0
H183 H 0.63418 0.46239 0.52573 0.0
H184 H 0.47137 0.52874 0.55154 0.0
S185 S 0.35296 0.51106 0.3554 0.0
N186 N 0.47681 0.47286 0.37391 0.0
N187 N 0.30149 0.54522 0.40201 0.0
C188 C 0.38578 0.52589 0.43534 0.0
C189 C 0.48142 0.48677 0.42023 0.0
C190 C 0.10155 0.99337 -0.00567 0.0
C191 C 0.10573 0.06165 -0.02733 0.0
C192 C 1.00141 0.95329 -0.00939 0.0
C193 C 0.90064 0.98019 0.96575 0.0
H194 H 0.17628 0.97077 0.0144 0.0
H195 H 1.00486 0.90013 0.0056 0.0
S196 S 0.8601 0.15688 0.90744 0.0
N197 N 0.99447 0.15521 0.9292 0.0
N198 N 0.80912 0.07936 0.92124 0.0
C199 C 0.90266 0.04835 0.94499 0.0
C200 C 1.00412 0.08912 0.94869 0.0
C201 C 0.92317 0.99482 0.49872 0.0
C202 C 0.91696 0.06144 0.4742 0.0
C203 C 0.02129 0.95281 0.49432 0.0
C204 C 0.11686 0.975 0.46483 0.0
H205 H 0.85196 0.97512 0.52191 0.0
H206 H 0.02062 0.90174 0.51291 0.0
S207 S 0.15781 0.14872 0.40222 0.0
N208 N 0.02655 0.15106 0.4268 0.0
N209 N 0.20627 0.07014 0.41592 0.0
C210 C 0.11468 0.0422 0.44214 0.0
C211 C 0.016 0.08567 0.44734 0.0
C212 C 0.60352 0.34923 0.19179 0.0
C213 C 0.64297 0.28898 0.21921 0.0
C214 C 0.57 0.34981 0.14367 0.0
C215 C 0.57283 0.28975 0.12163 0.0
H216 H 0.59223 0.39536 0.2083 0.0
H217 H 0.53067 0.39602 0.12542 0.0
S218 S 0.71058 0.1259 0.1732 0.0
N219 N 0.71327 0.17325 0.21758 0.0
N220 N 0.64925 0.17378 0.1271 0.0
C221 C 0.62937 0.23219 0.14656 0.0
C222 C 0.66314 0.23162 0.19565 0.0
C223 C 0.58657 0.67859 0.23831 0.0
C224 C 0.64059 0.73707 0.21497 0.0
C225 C 0.54575 0.67659 0.28557 0.0
C226 C 0.55667 0.7334 0.3108 0.0
H227 H 0.56905 0.63579 0.21899 0.0
H228 H 0.49553 0.63274 0.30041 0.0
S229 S 0.72918 0.88833 0.27094 0.0
N230 N 0.72998 0.84548 0.22407 0.0
N231 N 0.65347 0.84189 0.31328 0.0
C232 C 0.62632 0.78779 0.29022 0.0
C233 C 0.6671 0.78997 0.24193 0.0
C234 C 0.37289 0.80265 0.73161 0.0
C235 C 0.37209 0.74033 0.71278 0.0
C236 C 0.41138 0.80659 0.77844 0.0
C237 C 0.45254 0.74845 0.80806 0.0
H238 H 0.34749 0.84941 0.70946 0.0
H239 H 0.41899 0.85672 0.7895 0.0
S240 S 0.44471 0.57082 0.77913 0.0
N241 N 0.39672 0.61753 0.72974 0.0
N242 N 0.4717 0.62488 0.81786 0.0
C243 C 0.44029 0.68472 0.79141 0.0
C244 C 0.4 0.68069 0.74365 0.0
C245 C 0.41714 0.35464 0.69278 0.0
C246 C 0.38404 0.29451 0.72166 0.0
C247 C 0.44931 0.35401 0.64448 0.0
C248 C 0.4507 0.29302 0.62348 0.0
H249 H 0.42379 0.40189 0.70814 0.0
H250 H 0.48277 0.40059 0.62488 0.0
S251 S 0.33836 0.12616 0.68046 0.0
N252 N 0.32923 0.17601 0.72318 0.0
N253 N 0.39209 0.17409 0.63303 0.0
C254 C 0.40348 0.23454 0.65049 0.0
C255 C 0.37079 0.23527 0.69958 0.0
C256 C 0.09505 0.84453 0.20455 0.0
C257 C 0.1357 0.78416 0.23137 0.0
C258 C 0.06168 0.84579 0.15633 0.0
C259 C 0.06585 0.78628 0.1336 0.0
H260 H 0.0826 0.89012 0.2216 0.0
H261 H 0.02138 0.89202 0.13857 0.0
S262 S 0.20672 0.62273 0.18359 0.0
N263 N 0.20842 0.66914 0.22851 0.0
N264 N 0.1445 0.67099 0.1379 0.0
C265 C 0.12345 0.72876 0.15799 0.0
C266 C 0.15716 0.7275 0.20714 0.0
C267 C 0.11573 0.30383 0.27326 0.0
C268 C 0.06391 0.24621 0.29923 0.0
C269 C 0.15511 0.30251 0.22613 0.0
C270 C 0.14707 0.24313 0.20387 0.0
H271 H 0.11599 0.35215 0.28744 0.0
H272 H 0.18798 0.34915 0.2064 0.0
S273 S 0.04887 0.07376 0.26071 0.0
N274 N 0.02849 0.1244 0.30242 0.0
N275 N 0.10488 0.12215 0.21398 0.0
C276 C 0.11023 0.18293 0.23147 0.0
C277 C 0.06897 0.18429 0.27935 0.0
C278 C 0.91839 0.31517 0.76838 0.0
C279 C 0.95882 0.25599 0.7971 0.0
C280 C 0.87756 0.31289 0.72163 0.0
C281 C 0.87395 0.2513 0.70194 0.0
H282 H 0.92792 0.36476 0.78012 0.0
H283 H 0.85282 0.36034 0.70019 0.0
S284 S 0.94535 0.07984 0.7656 0.0
N285 N 0.97506 0.1324 0.80501 0.0
N286 N 0.8965 0.12818 0.7171 0.0
C287 C 0.90175 0.19074 0.7319 0.0
C288 C 0.94407 0.19306 0.77958 0.0
C289 C 0.90372 0.73079 0.66444 0.0
C290 C 0.94314 0.78868 0.6345 0.0
C291 C 0.87157 0.73455 0.71216 0.0
C292 C 0.87419 0.79656 0.73145 0.0
H293 H 0.90852 0.68083 0.65278 0.0
H294 H 0.84808 0.68784 0.7345 0.0
S295 S 0.93551 0.96605 0.66351 0.0
N296 N 0.95804 0.91207 0.62413 0.0
N297 N 0.89523 0.91941 0.71402 0.0
C298 C 0.89766 0.85626 0.70006 0.0
C299 C 0.93158 0.8523 0.65138 0.0
loop_
_geom_bond_atom_site_label_1
_geom_bond_atom_site_label_2
_geom_bond_distance
_geom_bond_site_symmetry_2
_ccdc_geom_bond_type
C0 O12 1.241 . S
C0 O13 1.280 . S
C1 O14 1.277 . S
C1 O15 1.245 . S
C2 O26 1.247 . S
C2 O28 1.289 1_556 S
Mg3 O4 1.926 . S
Mg3 O13 1.984 . S
Mg3 O15 1.988 . S
Mg3 O16 2.061 . S
O4 Mg3 1.926 . S
O4 Mg5 1.986 . S
O4 Mg6 1.926 . S
Mg5 O4 1.986 . S
Mg5 O12 2.042 . S
Mg5 O14 2.041 . S
Mg5 O20 2.038 . S
Mg5 O28 2.238 . S
Mg6 O4 1.926 . S
Mg6 O7 1.907 1_554 S
Mg6 O17 2.103 1_554 S
Mg6 O19 2.077 1_554 S
Mg6 O28 2.110 . S
Mg6 O29 2.080 . S
O7 Mg6 1.907 1_556 S
O7 Mg8 1.926 . S
O7 Mg9 1.986 . S
Mg8 O7 1.926 . S
Mg8 O22 1.984 . S
Mg8 O25 1.988 . S
Mg8 O26 2.061 . S
Mg9 O7 1.986 . S
Mg9 O17 2.238 . S
Mg9 O21 2.042 . S
Mg9 O23 2.041 . S
Mg9 O30 2.038 . S
C10 O16 1.247 . S
C10 O17 1.289 1_554 S
C11 O29 1.245 1_556 S
C11 O30 1.274 . S
O12 C0 1.241 . S
O12 Mg5 2.042 . S
O13 C0 1.280 . S
O13 Mg3 1.984 . S
O14 C1 1.277 . S
O14 Mg5 2.041 . S
O15 C1 1.245 . S
O15 Mg3 1.988 . S
O16 Mg3 2.061 . S
O16 C10 1.247 . S
O17 Mg6 2.103 1_556 S
O17 Mg9 2.238 . S
O17 C10 1.289 1_556 S
C18 O19 1.245 1_554 S
C18 O20 1.274 . S
O19 Mg6 2.077 1_556 S
O19 C18 1.245 1_556 S
O20 Mg5 2.038 . S
O20 C18 1.274 . S
O21 Mg9 2.042 . S
O21 C24 1.241 . S
O22 Mg8 1.984 . S
O22 C24 1.280 . S
O23 Mg9 2.041 . S
O23 C27 1.277 . S
C24 O21 1.241 . S
C24 O22 1.280 . S
O25 Mg8 1.988 . S
O25 C27 1.245 . S
O26 C2 1.247 . S
O26 Mg8 2.061 . S
C27 O23 1.277 . S
C27 O25 1.245 . S
O28 C2 1.289 1_554 S
O28 Mg5 2.238 . S
O28 Mg6 2.110 . S
O29 Mg6 2.080 . S
O29 C11 1.245 1_554 S
O30 Mg9 2.038 . S
O30 C11 1.274 . S
C31 O43 1.241 . S
C31 O44 1.280 . S
C32 O45 1.277 . S
C32 O46 1.245 . S
C33 O57 1.247 . S
C33 O59 1.289 1_556 S
Mg34 O35 1.926 . S
Mg34 O44 1.984 . S
Mg34 O46 1.988 . S
Mg34 O47 2.061 . S
O35 Mg34 1.926 . S
O35 Mg36 1.986 . S
O35 Mg37 1.926 . S
Mg36 O35 1.986 . S
Mg36 O43 2.042 . S
Mg36 O45 2.041 . S
Mg36 O51 2.038 . S
Mg36 O59 2.238 . S
Mg37 O35 1.926 . S
Mg37 O38 1.907 1_554 S
Mg37 O48 2.103 1_554 S
Mg37 O50 2.077 1_554 S
Mg37 O59 2.110 . S
Mg37 O60 2.080 . S
O38 Mg37 1.907 1_556 S
O38 Mg39 1.926 . S
O38 Mg40 1.986 . S
Mg39 O38 1.926 . S
Mg39 O53 1.984 . S
Mg39 O56 1.988 . S
Mg39 O57 2.061 . S
Mg40 O38 1.986 . S
Mg40 O48 2.238 . S
Mg40 O52 2.042 . S
Mg40 O54 2.041 . S
Mg40 O61 2.038 . S
C41 O47 1.247 . S
C41 O48 1.289 1_554 S
C42 O60 1.245 1_556 S
C42 O61 1.274 . S
O43 C31 1.241 . S
O43 Mg36 2.042 . S
O44 C31 1.280 . S
O44 Mg34 1.984 . S
O45 C32 1.277 . S
O45 Mg36 2.041 . S
O46 C32 1.245 . S
O46 Mg34 1.988 . S
O47 Mg34 2.061 . S
O47 C41 1.247 . S
O48 Mg37 2.103 1_556 S
O48 Mg40 2.238 . S
O48 C41 1.289 1_556 S
C49 O50 1.245 1_554 S
C49 O51 1.274 . S
O50 Mg37 2.077 1_556 S
O50 C49 1.245 1_556 S
O51 Mg36 2.038 . S
O51 C49 1.274 . S
O52 Mg40 2.042 . S
O52 C55 1.241 . S
O53 Mg39 1.984 . S
O53 C55 1.280 . S
O54 Mg40 2.041 . S
O54 C58 1.277 . S
C55 O52 1.241 . S
C55 O53 1.280 . S
O56 Mg39 1.988 . S
O56 C58 1.245 . S
O57 C33 1.247 . S
O57 Mg39 2.061 . S
C58 O54 1.277 . S
C58 O56 1.245 . S
O59 C33 1.289 1_554 S
O59 Mg36 2.238 . S
O59 Mg37 2.110 . S
O60 Mg37 2.080 . S
O60 C42 1.245 1_554 S
O61 Mg40 2.038 . S
O61 C42 1.274 . S
C62 O74 1.241 . S
C62 O75 1.280 . S
C63 O76 1.277 . S
C63 O77 1.245 . S
C64 O88 1.247 . S
C64 O90 1.289 . S
Mg65 O66 1.926 . S
Mg65 O75 1.984 . S
Mg65 O77 1.988 . S
Mg65 O78 2.061 . S
O66 Mg65 1.926 . S
O66 Mg67 1.986 . S
O66 Mg68 1.917 . S
Mg67 O66 1.986 . S
Mg67 O74 2.042 . S
Mg67 O76 2.041 . S
Mg67 O82 2.038 . S
Mg67 O90 2.238 . S
Mg68 O66 1.917 . S
Mg68 O69 1.917 . S
Mg68 O79 2.106 . S
Mg68 O81 2.079 . S
Mg68 O90 2.106 . S
Mg68 O91 2.079 . S
O69 Mg68 1.917 . S
O69 Mg70 1.926 . S
O69 Mg71 1.986 . S
Mg70 O69 1.926 . S
Mg70 O84 1.984 . S
Mg70 O87 1.988 . S
Mg70 O88 2.061 . S
Mg71 O69 1.986 . S
Mg71 O79 2.238 . S
Mg71 O83 2.042 . S
Mg71 O85 2.041 . S
Mg71 O92 2.038 . S
C72 O78 1.247 . S
C72 O79 1.289 . S
C73 O91 1.245 . S
C73 O92 1.274 . S
O74 C62 1.241 . S
O74 Mg67 2.042 . S
O75 C62 1.280 . S
O75 Mg65 1.984 . S
O76 C63 1.277 . S
O76 Mg67 2.041 . S
O77 C63 1.245 . S
O77 Mg65 1.988 . S
O78 Mg65 2.061 . S
O78 C72 1.247 . S
O79 Mg68 2.106 . S
O79 Mg71 2.238 . S
O79 C72 1.289 . S
C80 O81 1.245 . S
C80 O82 1.274 . S
O81 Mg68 2.079 . S
O81 C80 1.245 . S
O82 Mg67 2.038 . S
O82 C80 1.274 . S
O83 Mg71 2.042 . S
O83 C86 1.241 . S
O84 Mg70 1.984 . S
O84 C86 1.280 . S
O85 Mg71 2.041 . S
O85 C89 1.277 . S
C86 O83 1.241 . S
C86 O84 1.280 . S
O87 Mg70 1.988 . S
O87 C89 1.245 . S
O88 C64 1.247 . S
O88 Mg70 2.061 . S
C89 O85 1.277 . S
C89 O87 1.245 . S
O90 C64 1.289 . S
O90 Mg67 2.238 . S
O90 Mg68 2.106 . S
O91 Mg68 2.079 . S
O91 C73 1.245 . S
O92 Mg71 2.038 . S
O92 C73 1.274 . S
C93 O105 1.241 . S
C93 O106 1.280 . S
C94 O107 1.277 . S
C94 O108 1.245 . S
C95 O119 1.247 . S
C95 O121 1.289 . S
Mg96 O97 1.926 . S
Mg96 O106 1.984 . S
Mg96 O108 1.988 . S
Mg96 O109 2.061 . S
O97 Mg96 1.926 . S
O97 Mg98 1.986 . S
O97 Mg99 1.917 . S
Mg98 O97 1.986 . S
Mg98 O105 2.042 . S
Mg98 O107 2.041 . S
Mg98 O113 2.038 . S
Mg98 O121 2.238 . S
Mg99 O97 1.917 . S
Mg99 O100 1.917 . S
Mg99 O110 2.106 . S
Mg99 O112 2.079 . S
Mg99 O121 2.106 . S
Mg99 O122 2.079 . S
O100 Mg99 1.917 . S
O100 Mg101 1.926 . S
O100 Mg102 1.986 . S
Mg101 O100 1.926 . S
Mg101 O115 1.984 . S
Mg101 O118 1.988 . S
Mg101 O119 2.061 . S
Mg102 O100 1.986 . S
Mg102 O110 2.238 . S
Mg102 O114 2.042 . S
Mg102 O116 2.041 . S
Mg102 O123 2.038 . S
C103 O109 1.247 . S
C103 O110 1.289 . S
C104 O122 1.245 . S
C104 O123 1.274 . S
O105 C93 1.241 . S
O105 Mg98 2.042 . S
O106 C93 1.280 . S
O106 Mg96 1.984 . S
O107 C94 1.277 . S
O107 Mg98 2.041 . S
O108 C94 1.245 . S
O108 Mg96 1.988 . S
O109 Mg96 2.061 . S
O109 C103 1.247 . S
O110 Mg99 2.106 . S
O110 Mg102 2.238 . S
O110 C103 1.289 . S
C111 O112 1.245 . S
C111 O113 1.274 . S
O112 Mg99 2.079 . S
O112 C111 1.245 . S
O113 Mg98 2.038 . S
O113 C111 1.274 . S
O114 Mg102 2.042 . S
O114 C117 1.241 . S
O115 Mg101 1.984 . S
O115 C117 1.280 . S
O116 Mg102 2.041 . S
O116 C120 1.277 . S
C117 O114 1.241 . S
C117 O115 1.280 . S
O118 Mg101 1.988 . S
O118 C120 1.245 . S
O119 C95 1.247 . S
O119 Mg101 2.061 . S
C120 O116 1.277 . S
C120 O118 1.245 . S
O121 C95 1.289 . S
O121 Mg98 2.238 . S
O121 Mg99 2.106 . S
O122 Mg99 2.079 . S
O122 C104 1.245 . S
O123 Mg102 2.038 . S
O123 C104 1.274 . S
C124 C125 1.369 1_554 S
C124 C126 1.419 . S
C124 H128 0.930 . S
C125 C124 1.369 1_556 S
C125 C134 1.429 . S
C126 C124 1.419 . S
C126 C127 1.363 . S
C126 H129 0.929 . S
C127 C126 1.363 . S
C127 C133 1.428 1_554 S
H128 C124 0.930 . S
H129 C126 0.929 . S
S130 N131 1.613 . S
S130 N132 1.610 . S
N131 S130 1.613 . S
N131 C134 1.350 . S
N132 S130 1.610 . S
N132 C133 1.351 . S
C133 C127 1.428 1_556 S
C133 N132 1.351 . S
C133 C134 1.434 . S
C134 C125 1.429 . S
C134 N131 1.350 . S
C134 C133 1.434 . S
C135 C136 1.369 1_554 S
C135 C137 1.419 . S
C135 H139 0.930 . S
C136 C135 1.369 1_556 S
C136 C145 1.429 . S
C137 C135 1.419 . S
C137 C138 1.363 . S
C137 H140 0.929 . S
C138 C137 1.363 . S
C138 C144 1.428 1_554 S
H139 C135 0.930 . S
H140 C137 0.929 . S
S141 N142 1.613 . S
S141 N143 1.610 . S
N142 S141 1.613 . S
N142 C145 1.350 . S
N143 S141 1.610 . S
N143 C144 1.351 . S
C144 C138 1.428 1_556 S
C144 N143 1.351 . S
C144 C145 1.434 . S
C145 C136 1.429 . S
C145 N142 1.350 . S
C145 C144 1.434 . S
C146 C147 1.369 . S
C146 C148 1.419 . S
C146 H150 0.930 . S
C147 C146 1.369 . S
C147 C156 1.429 . S
C148 C146 1.419 . S
C148 C149 1.363 . S
C148 H151 0.929 . S
C149 C148 1.363 . S
C149 C155 1.428 . S
H150 C146 0.930 . S
H151 C148 0.929 . S
S152 N153 1.613 . S
S152 N154 1.610 . S
N153 S152 1.613 . S
N153 C156 1.350 . S
N154 S152 1.610 . S
N154 C155 1.351 . S
C155 C149 1.428 . S
C155 N154 1.351 . S
C155 C156 1.434 . S
C156 C147 1.429 . S
C156 N153 1.350 . S
C156 C155 1.434 . S
C157 C158 1.369 . S
C157 C159 1.419 . S
C157 H161 0.930 . S
C158 C157 1.369 . S
C158 C167 1.429 . S
C159 C157 1.419 . S
C159 C160 1.363 . S
C159 H162 0.929 . S
C160 C159 1.363 . S
C160 C166 1.428 . S
H161 C157 0.930 . S
H162 C159 0.929 . S
S163 N164 1.613 . S
S163 N165 1.610 . S
N164 S163 1.613 . S
N164 C167 1.350 . S
N165 S163 1.610 . S
N165 C166 1.351 . S
C166 C160 1.428 . S
C166 N165 1.351 . S
C166 C167 1.434 . S
C167 C158 1.429 . S
C167 N164 1.350 . S
C167 C166 1.434 . S
C168 C169 1.370 . S
C168 C170 1.419 . S
C168 H172 0.930 . S
C169 C168 1.370 . S
C169 C178 1.427 1_554 S
C170 C168 1.419 . S
C170 C171 1.365 . S
C170 H173 0.929 . S
C171 C170 1.365 . S
C171 C177 1.428 1_554 S
H172 C168 0.930 . S
H173 C170 0.929 . S
S174 N175 1.613 . S
S174 N176 1.610 . S
N175 S174 1.613 . S
N175 C178 1.350 . S
N176 S174 1.610 . S
N176 C177 1.351 . S
C177 C171 1.428 1_556 S
C177 N176 1.351 . S
C177 C178 1.434 . S
C178 C169 1.427 1_556 S
C178 N175 1.350 . S
C178 C177 1.434 . S
C179 C180 1.369 . S
C179 C181 1.419 . S
C179 H183 0.930 . S
C180 C179 1.369 . S
C180 C189 1.429 . S
C181 C179 1.419 . S
C181 C182 1.363 . S
C181 H184 0.929 . S
C182 C181 1.363 . S
C182 C188 1.428 . S
H183 C179 0.930 . S
H184 C181 0.929 . S
S185 N186 1.613 . S
S185 N187 1.610 . S
N186 S185 1.613 . S
N186 C189 1.350 . S
N187 S185 1.610 . S
N187 C188 1.351 . S
C188 C182 1.428 . S
C188 N187 1.351 . S
C188 C189 1.434 . S
C189 C180 1.429 . S
C189 N186 1.350 . S
C189 C188 1.434 . S
C190 C191 1.369 1_565 S
C190 C192 1.419 . S
C190 H194 0.930 . S
C191 C190 1.369 1_545 S
C191 C200 1.428 1_454 S
C192 C190 1.419 . S
C192 C193 1.364 1_455 S
C192 H195 0.929 . S
C193 C192 1.364 1_655 S
C193 C199 1.429 1_564 S
H194 C190 0.930 . S
H195 C192 0.929 . S
S196 N197 1.613 . S
S196 N198 1.610 . S
N197 S196 1.613 . S
N197 C200 1.350 . S
N198 S196 1.610 . S
N198 C199 1.351 . S
C199 C193 1.429 1_546 S
C199 N198 1.351 . S
C199 C200 1.434 . S
C200 C191 1.428 1_656 S
C200 N197 1.350 . S
C200 C199 1.434 . S
C201 C202 1.369 1_565 S
C201 C203 1.419 . S
C201 H205 0.930 . S
C202 C201 1.369 1_545 S
C202 C211 1.429 1_655 S
C203 C201 1.419 . S
C203 C204 1.363 1_655 S
C203 H206 0.929 . S
C204 C203 1.363 1_455 S
C204 C210 1.428 1_565 S
H205 C201 0.930 . S
H206 C203 0.929 . S
S207 N208 1.613 . S
S207 N209 1.610 . S
N208 S207 1.613 . S
N208 C211 1.350 . S
N209 S207 1.610 . S
N209 C210 1.351 . S
C210 C204 1.428 1_545 S
C210 N209 1.351 . S
C210 C211 1.434 . S
C211 C202 1.429 1_455 S
C211 N208 1.350 . S
C211 C210 1.434 . S
C212 C213 1.369 . S
C212 C214 1.419 . S
C212 H216 0.930 . S
C213 C212 1.369 . S
C213 C222 1.429 . S
C214 C212 1.419 . S
C214 C215 1.363 . S
C214 H217 0.929 . S
C215 C214 1.363 . S
C215 C221 1.428 . S
H216 C212 0.930 . S
H217 C214 0.929 . S
S218 N219 1.613 . S
S218 N220 1.610 . S
N219 S218 1.613 . S
N219 C222 1.350 . S
N220 S218 1.610 . S
N220 C221 1.351 . S
C221 C215 1.428 . S
C221 N220 1.351 . S
C221 C222 1.434 . S
C222 C213 1.429 . S
C222 N219 1.350 . S
C222 C221 1.434 . S
C223 C224 1.369 . S
C223 C225 1.419 . S
C223 H227 0.930 . S
C224 C223 1.369 . S
C224 C233 1.429 . S
C225 C223 1.419 . S
C225 C226 1.363 . S
C225 H228 0.929 . S
C226 C225 1.363 . S
C226 C232 1.428 . S
H227 C223 0.930 . S
H228 C225 0.929 . S
S229 N230 1.613 . S
S229 N231 1.610 . S
N230 S229 1.613 . S
N230 C233 1.350 . S
N231 S229 1.610 . S
N231 C232 1.351 . S
C232 C226 1.428 . S
C232 N231 1.351 . S
C232 C233 1.434 . S
C233 C224 1.429 . S
C233 N230 1.350 . S
C233 C232 1.434 . S
C234 C235 1.369 . S
C234 C236 1.419 . S
C234 H238 0.930 . S
C235 C234 1.369 . S
C235 C244 1.429 . S
C236 C234 1.419 . S
C236 C237 1.363 . S
C236 H239 0.929 . S
C237 C236 1.363 . S
C237 C243 1.428 . S
H238 C234 0.930 . S
H239 C236 0.929 . S
S240 N241 1.613 . S
S240 N242 1.610 . S
N241 S240 1.613 . S
N241 C244 1.350 . S
N242 S240 1.610 . S
N242 C243 1.351 . S
C243 C237 1.428 . S
C243 N242 1.351 . S
C243 C244 1.434 . S
C244 C235 1.429 . S
C244 N241 1.350 . S
C244 C243 1.434 . S
C245 C246 1.369 . S
C245 C247 1.419 . S
C245 H249 0.930 . S
C246 C245 1.369 . S
C246 C255 1.429 . S
C247 C245 1.419 . S
C247 C248 1.363 . S
C247 H250 0.929 . S
C248 C247 1.363 . S
C248 C254 1.428 . S
H249 C245 0.930 . S
H250 C247 0.929 . S
S251 N252 1.613 . S
S251 N253 1.610 . S
N252 S251 1.613 . S
N252 C255 1.350 . S
N253 S251 1.610 . S
N253 C254 1.351 . S
C254 C248 1.428 . S
C254 N253 1.351 . S
C254 C255 1.434 . S
C255 C246 1.429 . S
C255 N252 1.350 . S
C255 C254 1.434 . S
C256 C257 1.369 1_655 S
C256 C258 1.419 . S
C256 H260 0.930 . S
C257 C256 1.369 1_455 S
C257 C266 1.429 . S
C258 C256 1.419 . S
C258 C259 1.363 . S
C258 H261 0.929 . S
C259 C258 1.363 . S
C259 C265 1.428 1_655 S
H260 C256 0.930 . S
H261 C258 0.929 . S
S262 N263 1.613 . S
S262 N264 1.610 . S
N263 S262 1.613 . S
N263 C266 1.350 . S
N264 S262 1.610 . S
N264 C265 1.351 . S
C265 C259 1.428 1_455 S
C265 N264 1.351 . S
C265 C266 1.434 . S
C266 C257 1.429 . S
C266 N263 1.350 . S
C266 C265 1.434 . S
C267 C268 1.369 1_455 S
C267 C269 1.419 . S
C267 H271 0.930 . S
C268 C267 1.369 1_655 S
C268 C277 1.429 . S
C269 C267 1.419 . S
C269 C270 1.365 . S
C269 H272 0.929 . S
C270 C269 1.365 . S
C270 C276 1.426 1_455 S
H271 C267 0.930 . S
H272 C269 0.929 . S
S273 N274 1.613 . S
S273 N275 1.610 . S
N274 S273 1.613 . S
N274 C277 1.350 . S
N275 S273 1.610 . S
N275 C276 1.351 . S
C276 C270 1.426 1_655 S
C276 N275 1.351 . S
C276 C277 1.434 . S
C277 C268 1.429 . S
C277 N274 1.350 . S
C277 C276 1.434 . S
C278 C279 1.369 1_655 S
C278 C280 1.419 . S
C278 H282 0.930 . S
C279 C278 1.369 1_455 S
C279 C288 1.429 . S
C280 C278 1.419 . S
C280 C281 1.363 1_655 S
C280 H283 0.929 . S
C281 C280 1.363 1_455 S
C281 C287 1.428 . S
H282 C278 0.930 . S
H283 C280 0.929 . S
S284 N285 1.613 . S
S284 N286 1.610 . S
N285 S284 1.613 . S
N285 C288 1.350 . S
N286 S284 1.610 . S
N286 C287 1.351 . S
C287 C281 1.428 . S
C287 N286 1.351 . S
C287 C288 1.434 . S
C288 C279 1.429 . S
C288 N285 1.350 . S
C288 C287 1.434 . S
C289 C290 1.369 1_655 S
C289 C291 1.419 . S
C289 H293 0.930 . S
C290 C289 1.369 1_455 S
C290 C299 1.429 . S
C291 C289 1.419 . S
C291 C292 1.362 1_655 S
C291 H294 0.929 . S
C292 C291 1.362 1_455 S
C292 C298 1.430 . S
H293 C289 0.930 . S
H294 C291 0.929 . S
S295 N296 1.613 . S
S295 N297 1.610 . S
N296 S295 1.613 . S
N296 C299 1.350 . S
N297 S295 1.610 . S
N297 C298 1.351 . S
C298 C292 1.430 . S
C298 N297 1.351 . S
C298 C299 1.434 . S
C299 C290 1.429 . S
C299 N296 1.350 . S
C299 C298 1.434 . S
C125 C11 1.789 . S
C127 C18 1.795 1_655 S
C136 C42 1.789 1_455 S
C138 C49 1.795 . S
C147 C73 1.789 . S
C149 C80 1.794 1_655 S
C158 C104 1.789 1_455 S
C160 C111 1.795 . S
C169 C41 1.652 . S
C171 C2 1.650 1_554 S
C180 C103 1.649 . S
C182 C64 1.653 . S
C191 C10 1.653 . S
C193 C33 1.650 1_554 S
C202 C95 1.651 . S
C204 C72 1.652 . S
C213 C93 1.160 . S
C215 C1 1.179 . S
C224 C31 1.160 . S
C226 C63 1.180 . S
C235 C86 1.162 . S
C237 C58 1.185 . S
C246 C24 1.156 . S
C248 C120 1.185 . S
C257 C62 1.155 . S
C259 C32 1.185 . S
C268 C94 1.181 . S
C270 C0 1.170 . S
C279 C27 1.176 . S
C281 C117 1.171 1_455 S
C290 C89 1.174 . S
C292 C55 1.170 1_455 S
