# Generated by pormake.
# Topology ana, (4)-cn, num edge types: 1
# Building blocks:
#     Node 0, Type 0, BuildingBlock: QUQFOY_clean_sbu_3, # of connection points: 4
#     Node 1, Type 0, BuildingBlock: QUQFOY_clean_sbu_3, # of connection points: 4
#     Node 2, Type 0, BuildingBlock: QUQFOY_clean_sbu_3, # of connection points: 4
#     Node 3, Type 0, BuildingBlock: QUQFOY_clean_sbu_3, # of connection points: 4
#     Node 4, Type 0, BuildingBlock: QUQFOY_clean_sbu_3, # of connection points: 4
#     Node 5, Type 0, BuildingBlock: QUQFOY_clean_sbu_3, # of connection points: 4
#     Node 6, Type 0, BuildingBlock: QUQFOY_clean_sbu_3, # of connection points: 4
#     Node 7, Type 0, BuildingBlock: QUQFOY_clean_sbu_3, # of connection points: 4
#     Node 8, Type 0, BuildingBlock: QUQFOY_clean_sbu_3, # of connection points: 4
#     Node 9, Type 0, BuildingBlock: QUQFOY_clean_sbu_3, # of connection points: 4
#     Node 10, Type 0, BuildingBlock: QUQFOY_clean_sbu_3, # of connection points: 4
#     Node 11, Type 0, BuildingBlock: QUQFOY_clean_sbu_3, # of connection points: 4
#     Node 12, Type 0, BuildingBlock: QUQFOY_clean_sbu_3, # of connection points: 4
#     Node 13, Type 0, BuildingBlock: QUQFOY_clean_sbu_3, # of connection points: 4
#     Node 14, Type 0, BuildingBlock: QUQFOY_clean_sbu_3, # of connection points: 4
#     Node 15, Type 0, BuildingBlock: QUQFOY_clean_sbu_3, # of connection points: 4
#     Node 16, Type 0, BuildingBlock: QUQFOY_clean_sbu_3, # of connection points: 4
#     Node 17, Type 0, BuildingBlock: QUQFOY_clean_sbu_3, # of connection points: 4
#     Node 18, Type 0, BuildingBlock: QUQFOY_clean_sbu_3, # of connection points: 4
#     Node 19, Type 0, BuildingBlock: QUQFOY_clean_sbu_3, # of connection points: 4
#     Node 20, Type 0, BuildingBlock: QUQFOY_clean_sbu_3, # of connection points: 4
#     Node 21, Type 0, BuildingBlock: QUQFOY_clean_sbu_3, # of connection points: 4
#     Node 22, Type 0, BuildingBlock: QUQFOY_clean_sbu_3, # of connection points: 4
#     Node 23, Type 0, BuildingBlock: QUQFOY_clean_sbu_3, # of connection points: 4
#     Node 24, Type 0, BuildingBlock: QUQFOY_clean_sbu_3, # of connection points: 4
#     Node 25, Type 0, BuildingBlock: QUQFOY_clean_sbu_3, # of connection points: 4
#     Node 26, Type 0, BuildingBlock: QUQFOY_clean_sbu_3, # of connection points: 4
#     Node 27, Type 0, BuildingBlock: QUQFOY_clean_sbu_3, # of connection points: 4
#     Node 28, Type 0, BuildingBlock: QUQFOY_clean_sbu_3, # of connection points: 4
#     Node 29, Type 0, BuildingBlock: QUQFOY_clean_sbu_3, # of connection points: 4
#     Node 30, Type 0, BuildingBlock: QUQFOY_clean_sbu_3, # of connection points: 4
#     Node 31, Type 0, BuildingBlock: QUQFOY_clean_sbu_3, # of connection points: 4
#     Node 32, Type 0, BuildingBlock: QUQFOY_clean_sbu_3, # of connection points: 4
#     Node 33, Type 0, BuildingBlock: QUQFOY_clean_sbu_3, # of connection points: 4
#     Node 34, Type 0, BuildingBlock: QUQFOY_clean_sbu_3, # of connection points: 4
#     Node 35, Type 0, BuildingBlock: QUQFOY_clean_sbu_3, # of connection points: 4
#     Node 36, Type 0, BuildingBlock: QUQFOY_clean_sbu_3, # of connection points: 4
#     Node 37, Type 0, BuildingBlock: QUQFOY_clean_sbu_3, # of connection points: 4
#     Node 38, Type 0, BuildingBlock: QUQFOY_clean_sbu_3, # of connection points: 4
#     Node 39, Type 0, BuildingBlock: QUQFOY_clean_sbu_3, # of connection points: 4
#     Node 40, Type 0, BuildingBlock: QUQFOY_clean_sbu_3, # of connection points: 4
#     Node 41, Type 0, BuildingBlock: QUQFOY_clean_sbu_3, # of connection points: 4
#     Node 42, Type 0, BuildingBlock: QUQFOY_clean_sbu_3, # of connection points: 4
#     Node 43, Type 0, BuildingBlock: QUQFOY_clean_sbu_3, # of connection points: 4
#     Node 44, Type 0, BuildingBlock: QUQFOY_clean_sbu_3, # of connection points: 4
#     Node 45, Type 0, BuildingBlock: QUQFOY_clean_sbu_3, # of connection points: 4
#     Node 46, Type 0, BuildingBlock: QUQFOY_clean_sbu_3, # of connection points: 4
#     Node 47, Type 0, BuildingBlock: QUQFOY_clean_sbu_3, # of connection points: 4
#     Edge 48, Type (0, 0), BuildingBlock: UVAHIK_clean_linker_0, # of connection points: 2
#     Edge 49, Type (0, 0), BuildingBlock: UVAHIK_clean_linker_0, # of connection points: 2
#     Edge 50, Type (0, 0), BuildingBlock: UVAHIK_clean_linker_0, # of connection points: 2
#     Edge 51, Type (0, 0), BuildingBlock: UVAHIK_clean_linker_0, # of connection points: 2
#     Edge 52, Type (0, 0), BuildingBlock: UVAHIK_clean_linker_0, # of connection points: 2
#     Edge 53, Type (0, 0), BuildingBlock: UVAHIK_clean_linker_0, # of connection points: 2
#     Edge 54, Type (0, 0), BuildingBlock: UVAHIK_clean_linker_0, # of connection points: 2
#     Edge 55, Type (0, 0), BuildingBlock: UVAHIK_clean_linker_0, # of connection points: 2
#     Edge 56, Type (0, 0), BuildingBlock: UVAHIK_clean_linker_0, # of connection points: 2
#     Edge 57, Type (0, 0), BuildingBlock: UVAHIK_clean_linker_0, # of connection points: 2
#     Edge 58, Type (0, 0), BuildingBlock: UVAHIK_clean_linker_0, # of connection points: 2
#     Edge 59, Type (0, 0), BuildingBlock: UVAHIK_clean_linker_0, # of connection points: 2
#     Edge 60, Type (0, 0), BuildingBlock: UVAHIK_clean_linker_0, # of connection points: 2
#     Edge 61, Type (0, 0), BuildingBlock: UVAHIK_clean_linker_0, # of connection points: 2
#     Edge 62, Type (0, 0), BuildingBlock: UVAHIK_clean_linker_0, # of connection points: 2
#     Edge 63, Type (0, 0), BuildingBlock: UVAHIK_clean_linker_0, # of connection points: 2
#     Edge 64, Type (0, 0), BuildingBlock: UVAHIK_clean_linker_0, # of connection points: 2
#     Edge 65, Type (0, 0), BuildingBlock: UVAHIK_clean_linker_0, # of connection points: 2
#     Edge 66, Type (0, 0), BuildingBlock: UVAHIK_clean_linker_0, # of connection points: 2
#     Edge 67, Type (0, 0), BuildingBlock: UVAHIK_clean_linker_0, # of connection points: 2
#     Edge 68, Type (0, 0), BuildingBlock: UVAHIK_clean_linker_0, # of connection points: 2
#     Edge 69, Type (0, 0), BuildingBlock: UVAHIK_clean_linker_0, # of connection points: 2
#     Edge 70, Type (0, 0), BuildingBlock: UVAHIK_clean_linker_0, # of connection points: 2
#     Edge 71, Type (0, 0), BuildingBlock: UVAHIK_clean_linker_0, # of connection points: 2
#     Edge 72, Type (0, 0), BuildingBlock: UVAHIK_clean_linker_0, # of connection points: 2
#     Edge 73, Type (0, 0), BuildingBlock: UVAHIK_clean_linker_0, # of connection points: 2
#     Edge 74, Type (0, 0), BuildingBlock: UVAHIK_clean_linker_0, # of connection points: 2
#     Edge 75, Type (0, 0), BuildingBlock: UVAHIK_clean_linker_0, # of connection points: 2
#     Edge 76, Type (0, 0), BuildingBlock: UVAHIK_clean_linker_0, # of connection points: 2
#     Edge 77, Type (0, 0), BuildingBlock: UVAHIK_clean_linker_0, # of connection points: 2
#     Edge 78, Type (0, 0), BuildingBlock: UVAHIK_clean_linker_0, # of connection points: 2
#     Edge 79, Type (0, 0), BuildingBlock: UVAHIK_clean_linker_0, # of connection points: 2
#     Edge 80, Type (0, 0), BuildingBlock: UVAHIK_clean_linker_0, # of connection points: 2
#     Edge 81, Type (0, 0), BuildingBlock: UVAHIK_clean_linker_0, # of connection points: 2
#     Edge 82, Type (0, 0), BuildingBlock: UVAHIK_clean_linker_0, # of connection points: 2
#     Edge 83, Type (0, 0), BuildingBlock: UVAHIK_clean_linker_0, # of connection points: 2
#     Edge 84, Type (0, 0), BuildingBlock: UVAHIK_clean_linker_0, # of connection points: 2
#     Edge 85, Type (0, 0), BuildingBlock: UVAHIK_clean_linker_0, # of connection points: 2
#     Edge 86, Type (0, 0), BuildingBlock: UVAHIK_clean_linker_0, # of connection points: 2
#     Edge 87, Type (0, 0), BuildingBlock: UVAHIK_clean_linker_0, # of connection points: 2
#     Edge 88, Type (0, 0), BuildingBlock: UVAHIK_clean_linker_0, # of connection points: 2
#     Edge 89, Type (0, 0), BuildingBlock: UVAHIK_clean_linker_0, # of connection points: 2
#     Edge 90, Type (0, 0), BuildingBlock: UVAHIK_clean_linker_0, # of connection points: 2
#     Edge 91, Type (0, 0), BuildingBlock: UVAHIK_clean_linker_0, # of connection points: 2
#     Edge 92, Type (0, 0), BuildingBlock: UVAHIK_clean_linker_0, # of connection points: 2
#     Edge 93, Type (0, 0), BuildingBlock: UVAHIK_clean_linker_0, # of connection points: 2
#     Edge 94, Type (0, 0), BuildingBlock: UVAHIK_clean_linker_0, # of connection points: 2
#     Edge 95, Type (0, 0), BuildingBlock: UVAHIK_clean_linker_0, # of connection points: 2
#     Edge 96, Type (0, 0), BuildingBlock: UVAHIK_clean_linker_0, # of connection points: 2
#     Edge 97, Type (0, 0), BuildingBlock: UVAHIK_clean_linker_0, # of connection points: 2
#     Edge 98, Type (0, 0), BuildingBlock: UVAHIK_clean_linker_0, # of connection points: 2
#     Edge 99, Type (0, 0), BuildingBlock: UVAHIK_clean_linker_0, # of connection points: 2
#     Edge 100, Type (0, 0), BuildingBlock: UVAHIK_clean_linker_0, # of connection points: 2
#     Edge 101, Type (0, 0), BuildingBlock: UVAHIK_clean_linker_0, # of connection points: 2
#     Edge 102, Type (0, 0), BuildingBlock: UVAHIK_clean_linker_0, # of connection points: 2
#     Edge 103, Type (0, 0), BuildingBlock: UVAHIK_clean_linker_0, # of connection points: 2
#     Edge 104, Type (0, 0), BuildingBlock: UVAHIK_clean_linker_0, # of connection points: 2
#     Edge 105, Type (0, 0), BuildingBlock: UVAHIK_clean_linker_0, # of connection points: 2
#     Edge 106, Type (0, 0), BuildingBlock: UVAHIK_clean_linker_0, # of connection points: 2
#     Edge 107, Type (0, 0), BuildingBlock: UVAHIK_clean_linker_0, # of connection points: 2
#     Edge 108, Type (0, 0), BuildingBlock: UVAHIK_clean_linker_0, # of connection points: 2
#     Edge 109, Type (0, 0), BuildingBlock: UVAHIK_clean_linker_0, # of connection points: 2
#     Edge 110, Type (0, 0), BuildingBlock: UVAHIK_clean_linker_0, # of connection points: 2
#     Edge 111, Type (0, 0), BuildingBlock: UVAHIK_clean_linker_0, # of connection points: 2
#     Edge 112, Type (0, 0), BuildingBlock: UVAHIK_clean_linker_0, # of connection points: 2
#     Edge 113, Type (0, 0), BuildingBlock: UVAHIK_clean_linker_0, # of connection points: 2
#     Edge 114, Type (0, 0), BuildingBlock: UVAHIK_clean_linker_0, # of connection points: 2
#     Edge 115, Type (0, 0), BuildingBlock: UVAHIK_clean_linker_0, # of connection points: 2
#     Edge 116, Type (0, 0), BuildingBlock: UVAHIK_clean_linker_0, # of connection points: 2
#     Edge 117, Type (0, 0), BuildingBlock: UVAHIK_clean_linker_0, # of connection points: 2
#     Edge 118, Type (0, 0), BuildingBlock: UVAHIK_clean_linker_0, # of connection points: 2
#     Edge 119, Type (0, 0), BuildingBlock: UVAHIK_clean_linker_0, # of connection points: 2
#     Edge 120, Type (0, 0), BuildingBlock: UVAHIK_clean_linker_0, # of connection points: 2
#     Edge 121, Type (0, 0), BuildingBlock: UVAHIK_clean_linker_0, # of connection points: 2
#     Edge 122, Type (0, 0), BuildingBlock: UVAHIK_clean_linker_0, # of connection points: 2
#     Edge 123, Type (0, 0), BuildingBlock: UVAHIK_clean_linker_0, # of connection points: 2
#     Edge 124, Type (0, 0), BuildingBlock: UVAHIK_clean_linker_0, # of connection points: 2
#     Edge 125, Type (0, 0), BuildingBlock: UVAHIK_clean_linker_0, # of connection points: 2
#     Edge 126, Type (0, 0), BuildingBlock: UVAHIK_clean_linker_0, # of connection points: 2
#     Edge 127, Type (0, 0), BuildingBlock: UVAHIK_clean_linker_0, # of connection points: 2
#     Edge 128, Type (0, 0), BuildingBlock: UVAHIK_clean_linker_0, # of connection points: 2
#     Edge 129, Type (0, 0), BuildingBlock: UVAHIK_clean_linker_0, # of connection points: 2
#     Edge 130, Type (0, 0), BuildingBlock: UVAHIK_clean_linker_0, # of connection points: 2
#     Edge 131, Type (0, 0), BuildingBlock: UVAHIK_clean_linker_0, # of connection points: 2
#     Edge 132, Type (0, 0), BuildingBlock: UVAHIK_clean_linker_0, # of connection points: 2
#     Edge 133, Type (0, 0), BuildingBlock: UVAHIK_clean_linker_0, # of connection points: 2
#     Edge 134, Type (0, 0), BuildingBlock: UVAHIK_clean_linker_0, # of connection points: 2
#     Edge 135, Type (0, 0), BuildingBlock: UVAHIK_clean_linker_0, # of connection points: 2
#     Edge 136, Type (0, 0), BuildingBlock: UVAHIK_clean_linker_0, # of connection points: 2
#     Edge 137, Type (0, 0), BuildingBlock: UVAHIK_clean_linker_0, # of connection points: 2
#     Edge 138, Type (0, 0), BuildingBlock: UVAHIK_clean_linker_0, # of connection points: 2
#     Edge 139, Type (0, 0), BuildingBlock: UVAHIK_clean_linker_0, # of connection points: 2
#     Edge 140, Type (0, 0), BuildingBlock: UVAHIK_clean_linker_0, # of connection points: 2
#     Edge 141, Type (0, 0), BuildingBlock: UVAHIK_clean_linker_0, # of connection points: 2
#     Edge 142, Type (0, 0), BuildingBlock: UVAHIK_clean_linker_0, # of connection points: 2
#     Edge 143, Type (0, 0), BuildingBlock: UVAHIK_clean_linker_0, # of connection points: 2
# Relax obj value: 0.102
# Max RMSD: 0.126
# Mean RMSD: 0.114
data_MOF--net-ana--node1-QUQFOY_clean_sbu_3--edge1-UVAHIK_clean_linker_0
_symmetry_space_group_name_H-M    P1
_symmetry_Int_Tables_number       1
_symmetry_cell_setting            triclinic
loop_
_symmetry_equiv_pos_as_xyz
'x, y, z'
_cell_length_a     84.728828
_cell_length_b     85.867968
_cell_length_c     85.714485
_cell_angle_alpha  90.14756
_cell_angle_beta   90.417757
_cell_angle_gamma 90.930744
loop_
_atom_site_label
_atom_site_type_symbol
_atom_site_fract_x
_atom_site_fract_y
_atom_site_fract_z
_atom_type_partial_charge
C0 C 0.13215 0.11569 0.37304 0.0
O1 O 0.12052 0.10636 0.37479 0.0
Cd2 Cd 0.09529 0.11491 0.3844 0.0
O3 O 0.13095 0.13001 0.37657 0.0
Cd4 Cd 0.1118 0.14832 0.38688 0.0
C5 C 0.1051 0.12871 0.4206 0.0
O6 O 0.0888 0.1391 0.37177 0.0
O7 O 0.08494 0.15689 0.38914 0.0
O8 O 0.1233 0.16874 0.37059 0.0
C9 C 0.07933 0.14831 0.37835 0.0
O10 O 0.09759 0.11843 0.41264 0.0
C11 C 0.12615 0.17804 0.38185 0.0
O12 O 0.11218 0.14002 0.41392 0.0
O13 O 0.12255 0.17335 0.39542 0.0
C14 C 0.07856 0.87783 0.67791 0.0
O15 O 0.06461 0.88247 0.67541 0.0
Cd16 Cd 0.05059 0.88019 0.65128 0.0
O17 O 0.08638 0.87122 0.66716 0.0
Cd18 Cd 0.08183 0.86308 0.63957 0.0
C19 C 0.07599 0.90011 0.62733 0.0
O20 O 0.05532 0.85376 0.64453 0.0
O21 O 0.06201 0.85284 0.62043 0.0
O22 O 0.09834 0.84075 0.64512 0.0
C23 C 0.05178 0.84978 0.63074 0.0
O24 O 0.06249 0.89936 0.63374 0.0
C25 C 0.10628 0.84181 0.63265 0.0
O26 O 0.08552 0.88888 0.62846 0.0
O27 O 0.1032 0.85313 0.62369 0.0
C28 C 0.33748 0.85839 0.88121 0.0
O29 O 0.34787 0.86919 0.88202 0.0
Cd30 Cd 0.37503 0.86377 0.88906 0.0
O31 O 0.34109 0.84443 0.88428 0.0
Cd32 Cd 0.36364 0.82915 0.89258 0.0
C33 C 0.37063 0.84963 0.92577 0.0
O34 O 0.3844 0.84057 0.8761 0.0
O35 O 0.39158 0.82517 0.89469 0.0
O36 O 0.35474 0.8065 0.87739 0.0
C37 C 0.39541 0.83337 0.88301 0.0
O38 O 0.37624 0.86061 0.91742 0.0
C39 C 0.3526 0.79787 0.88924 0.0
O40 O 0.36428 0.83763 0.91948 0.0
O41 O 0.35575 0.80381 0.90249 0.0
C42 C 0.3958 0.11214 0.18247 0.0
O43 O 0.40976 0.10732 0.18056 0.0
Cd44 Cd 0.42366 0.1061 0.15663 0.0
O45 O 0.38768 0.11709 0.17095 0.0
Cd46 Cd 0.39152 0.1215 0.14236 0.0
C47 C 0.39778 0.08321 0.13507 0.0
O48 O 0.41811 0.13102 0.1462 0.0
O49 O 0.41095 0.12952 0.12218 0.0
O50 O 0.37494 0.14412 0.14569 0.0
C51 C 0.42153 0.13324 0.13207 0.0
O52 O 0.41103 0.08483 0.14205 0.0
C53 C 0.367 0.14198 0.13322 0.0
O54 O 0.38826 0.09448 0.13405 0.0
O55 O 0.3701 0.12994 0.12526 0.0
C56 C 0.09335 0.87096 0.11739 0.0
O57 O 0.10499 0.8689 0.12653 0.0
Cd58 Cd 0.1292 0.85686 0.11883 0.0
O59 O 0.09391 0.86656 0.1032 0.0
Cd60 Cd 0.11226 0.85365 0.08535 0.0
C61 C 0.1154 0.82101 0.10748 0.0
O62 O 0.13635 0.86729 0.09378 0.0
O63 O 0.13904 0.84831 0.0775 0.0
O64 O 0.10363 0.86854 0.06262 0.0
C65 C 0.14541 0.85929 0.08531 0.0
O66 O 0.12353 0.82888 0.11736 0.0
C67 C 0.09931 0.8566 0.05479 0.0
O68 O 0.10941 0.82747 0.09554 0.0
O69 O 0.1006 0.84348 0.06142 0.0
C70 C 0.43085 0.86452 0.32748 0.0
O71 O 0.42741 0.85932 0.31397 0.0
Cd72 Cd 0.40159 0.85845 0.30301 0.0
O73 O 0.42021 0.86997 0.33634 0.0
Cd74 Cd 0.39133 0.87498 0.33529 0.0
C75 C 0.3831 0.83658 0.33144 0.0
O76 O 0.39299 0.88388 0.309 0.0
O77 O 0.36919 0.88133 0.31703 0.0
O78 O 0.39864 0.89802 0.35022 0.0
C79 C 0.37849 0.88568 0.30633 0.0
O80 O 0.38768 0.83796 0.31739 0.0
C81 C 0.38631 0.89808 0.35853 0.0
O82 O 0.384 0.84804 0.34089 0.0
O83 O 0.37655 0.88684 0.35659 0.0
C84 C 0.38518 0.11276 0.6219 0.0
O85 O 0.37573 0.11648 0.63265 0.0
Cd86 Cd 0.35166 0.12998 0.62762 0.0
O87 O 0.38236 0.11641 0.60778 0.0
Cd88 Cd 0.36197 0.13057 0.59322 0.0
C89 C 0.36644 0.16409 0.61349 0.0
O90 O 0.33839 0.11894 0.60499 0.0
O91 O 0.33506 0.13957 0.59103 0.0
O92 O 0.36408 0.11387 0.57029 0.0
C93 C 0.32897 0.12818 0.59831 0.0
O94 O 0.35914 0.15742 0.62461 0.0
C95 C 0.36798 0.12482 0.5611 0.0
O96 O 0.36986 0.15662 0.60118 0.0
O97 O 0.36942 0.13835 0.56697 0.0
C98 C 0.05409 0.13374 0.83748 0.0
O99 O 0.05755 0.14184 0.82556 0.0
Cd100 Cd 0.08185 0.14067 0.81185 0.0
O101 O 0.06414 0.12461 0.84355 0.0
Cd102 Cd 0.09194 0.1169 0.8392 0.0
C103 C 0.1063 0.15389 0.84116 0.0
O104 O 0.08636 0.11346 0.81199 0.0
O105 O 0.11065 0.10985 0.81799 0.0
O106 O 0.08296 0.09302 0.85173 0.0
C107 C 0.09992 0.10956 0.80762 0.0
O108 O 0.10067 0.15576 0.8275 0.0
C109 C 0.09591 0.09042 0.85872 0.0
O110 O 0.10386 0.14129 0.84861 0.0
O111 O 0.10695 0.10042 0.85699 0.0
C112 C 0.18731 0.40571 0.11581 0.0
O113 O 0.18626 0.41898 0.1094 0.0
Cd114 Cd 0.16262 0.43336 0.10663 0.0
O115 O 0.17516 0.39885 0.12144 0.0
Cd116 Cd 0.14655 0.40384 0.12513 0.0
C117 C 0.13956 0.40647 0.08639 0.0
O118 O 0.15166 0.43045 0.13179 0.0
O119 O 0.12702 0.42491 0.12936 0.0
O120 O 0.15027 0.39005 0.14944 0.0
C121 C 0.13762 0.43503 0.13255 0.0
O122 O 0.14648 0.41975 0.08697 0.0
C123 C 0.13741 0.38228 0.14871 0.0
O124 O 0.13891 0.39772 0.09835 0.0
O125 O 0.12877 0.38433 0.13674 0.0
C126 C 0.67559 0.07805 0.87348 0.0
O127 O 0.67264 0.06412 0.87762 0.0
Cd128 Cd 0.64731 0.05186 0.87554 0.0
O129 O 0.66494 0.08636 0.86719 0.0
Cd130 Cd 0.63697 0.08366 0.85848 0.0
C131 C 0.62606 0.07902 0.89595 0.0
O132 O 0.6401 0.05753 0.84937 0.0
O133 O 0.61599 0.06479 0.84988 0.0
O134 O 0.64525 0.099 0.8362 0.0
C135 C 0.62581 0.05443 0.84626 0.0
O136 O 0.63138 0.06526 0.89498 0.0
C137 C 0.63291 0.10717 0.83554 0.0
O138 O 0.62729 0.08847 0.8846 0.0
O139 O 0.62265 0.10485 0.84606 0.0
C140 C 0.80894 0.89965 0.38571 0.0
O141 O 0.81411 0.91169 0.39288 0.0
Cd142 Cd 0.83982 0.92294 0.38969 0.0
O143 O 0.81751 0.89258 0.37587 0.0
Cd144 Cd 0.84415 0.89449 0.36414 0.0
C145 C 0.86087 0.89025 0.39976 0.0
O146 O 0.84297 0.92206 0.3624 0.0
O147 O 0.86572 0.91311 0.35661 0.0
O148 O 0.83073 0.88685 0.34028 0.0
C149 C 0.85685 0.9248 0.35784 0.0
O150 O 0.85709 0.90433 0.40228 0.0
C151 C 0.84109 0.87738 0.33577 0.0
O152 O 0.8567 0.8832 0.38725 0.0
O153 O 0.85275 0.87523 0.3449 0.0
C154 C 0.83322 0.04423 0.12161 0.0
O155 O 0.82091 0.0462 0.12972 0.0
Cd156 Cd 0.80571 0.06924 0.13125 0.0
O157 O 0.83929 0.05544 0.11382 0.0
Cd158 Cd 0.83359 0.08359 0.10998 0.0
C159 C 0.83306 0.09363 0.14826 0.0
O160 O 0.80591 0.07837 0.10513 0.0
O161 O 0.81221 0.10264 0.1058 0.0
O162 O 0.84641 0.08157 0.08463 0.0
C163 C 0.80158 0.09229 0.10373 0.0
O164 O 0.81955 0.08699 0.14896 0.0
C165 C 0.85413 0.09431 0.08596 0.0
O166 O 0.84128 0.09291 0.13592 0.0
O167 O 0.85261 0.10179 0.09862 0.0
C168 C 0.33122 0.54743 0.6242 0.0
O169 O 0.31871 0.55024 0.6317 0.0
Cd170 Cd 0.30418 0.57374 0.63077 0.0
O171 O 0.33785 0.55793 0.61588 0.0
Cd172 Cd 0.3331 0.58592 0.61001 0.0
C173 C 0.33127 0.59836 0.6476 0.0
O174 O 0.30562 0.58084 0.60398 0.0
O175 O 0.3123 0.60503 0.60355 0.0
O176 O 0.34701 0.58208 0.58544 0.0
C177 C 0.30167 0.5947 0.60136 0.0
O178 O 0.31755 0.59216 0.64814 0.0
C179 C 0.35515 0.5946 0.58645 0.0
O180 O 0.33989 0.5967 0.63564 0.0
O181 O 0.35328 0.60283 0.59859 0.0
C182 C 0.14397 0.5516 0.36206 0.0
O183 O 0.15847 0.55286 0.35853 0.0
Cd184 Cd 0.17309 0.57665 0.35725 0.0
O185 O 0.13606 0.5635 0.36594 0.0
Cd186 Cd 0.1408 0.59187 0.37054 0.0
C187 C 0.1488 0.5973 0.3324 0.0
O188 O 0.16668 0.58821 0.38148 0.0
O189 O 0.16061 0.61215 0.37805 0.0
O190 O 0.12363 0.5878 0.39266 0.0
C191 C 0.1705 0.60241 0.38303 0.0
O192 O 0.16174 0.59038 0.33504 0.0
C193 C 0.11655 0.60065 0.39143 0.0
O194 O 0.13866 0.59898 0.34314 0.0
O195 O 0.12018 0.60919 0.37987 0.0
C196 C 0.30725 0.40678 0.86802 0.0
O197 O 0.31064 0.42075 0.87175 0.0
Cd198 Cd 0.33722 0.42981 0.87308 0.0
O199 O 0.318 0.39743 0.86389 0.0
Cd200 Cd 0.34687 0.39755 0.85877 0.0
C201 C 0.35249 0.4014 0.89721 0.0
O202 O 0.34714 0.42321 0.84797 0.0
O203 O 0.37011 0.41512 0.85465 0.0
O204 O 0.33874 0.38255 0.83616 0.0
C205 C 0.36194 0.42522 0.84767 0.0
O206 O 0.3486 0.41554 0.89519 0.0
C207 C 0.35077 0.37397 0.83581 0.0
O208 O 0.35227 0.39181 0.88588 0.0
O209 O 0.36088 0.37584 0.8467 0.0
C210 C 0.83955 0.84286 0.59767 0.0
O211 O 0.85191 0.85131 0.59919 0.0
Cd212 Cd 0.87788 0.84263 0.59235 0.0
O213 O 0.84039 0.829 0.59246 0.0
Cd214 Cd 0.85993 0.81027 0.58324 0.0
C215 C 0.87116 0.83376 0.55358 0.0
O216 O 0.88112 0.81664 0.60162 0.0
O217 O 0.8871 0.80176 0.58228 0.0
O218 O 0.84609 0.79015 0.59769 0.0
C219 C 0.89145 0.80867 0.59471 0.0
O220 O 0.87808 0.84216 0.56392 0.0
C221 C 0.8437 0.78113 0.58612 0.0
O222 O 0.86272 0.82197 0.55741 0.0
O223 O 0.84874 0.78576 0.57297 0.0
C224 C 0.8581 0.13977 0.36003 0.0
O225 O 0.8614 0.13088 0.37138 0.0
Cd226 Cd 0.87847 0.10886 0.36831 0.0
O227 O 0.86404 0.1375 0.34665 0.0
Cd228 Cd 0.88186 0.11993 0.33312 0.0
C229 C 0.91265 0.12737 0.35741 0.0
O230 O 0.87162 0.0958 0.34425 0.0
O231 O 0.89272 0.09408 0.33039 0.0
O232 O 0.8655 0.12326 0.31006 0.0
C233 C 0.88198 0.08726 0.33811 0.0
O234 O 0.90555 0.11907 0.36755 0.0
C235 C 0.87679 0.12716 0.30114 0.0
O236 O 0.90607 0.13046 0.34442 0.0
O237 O 0.89052 0.12779 0.30716 0.0
C238 C 0.63798 0.13103 0.09772 0.0
O239 O 0.62655 0.12158 0.09999 0.0
Cd240 Cd 0.60027 0.12746 0.09097 0.0
O241 O 0.63566 0.14408 0.09119 0.0
Cd242 Cd 0.61495 0.16045 0.08036 0.0
C243 C 0.60807 0.13378 0.05204 0.0
O244 O 0.59376 0.15362 0.09825 0.0
O245 O 0.58726 0.16634 0.07748 0.0
O246 O 0.62696 0.18187 0.09467 0.0
C247 C 0.5831 0.16025 0.09029 0.0
O248 O 0.60179 0.12536 0.06261 0.0
C249 C 0.62909 0.19065 0.08297 0.0
O250 O 0.61455 0.14687 0.05536 0.0
O251 O 0.6246 0.18537 0.06976 0.0
C252 C 0.61419 0.83919 0.86309 0.0
O253 O 0.61192 0.8498 0.87311 0.0
Cd254 Cd 0.59632 0.87205 0.86665 0.0
O255 O 0.60857 0.84042 0.84934 0.0
Cd256 Cd 0.59352 0.8588 0.83332 0.0
C257 C 0.56106 0.85544 0.85529 0.0
O258 O 0.6052 0.88344 0.84244 0.0
O259 O 0.58347 0.88475 0.82913 0.0
O260 O 0.6112 0.8543 0.81163 0.0
C261 C 0.59516 0.89177 0.83541 0.0
O262 O 0.56865 0.86344 0.86547 0.0
C263 C 0.60049 0.84998 0.80206 0.0
O264 O 0.56763 0.85122 0.84271 0.0
O265 O 0.58645 0.84948 0.80713 0.0
C266 C 0.89006 0.13888 0.87623 0.0
O267 O 0.87964 0.13634 0.86578 0.0
Cd268 Cd 0.85266 0.14361 0.86967 0.0
O269 O 0.88623 0.14447 0.8894 0.0
Cd270 Cd 0.863 0.15224 0.90429 0.0
C271 C 0.85753 0.18232 0.88 0.0
O272 O 0.84395 0.13323 0.89412 0.0
O273 O 0.83446 0.1527 0.90683 0.0
O274 O 0.87297 0.13679 0.92555 0.0
C275 C 0.83204 0.13977 0.89998 0.0
O276 O 0.85272 0.17212 0.87017 0.0
C277 C 0.87326 0.14764 0.93561 0.0
O278 O 0.86288 0.17831 0.8933 0.0
O279 O 0.86882 0.16098 0.93109 0.0
C280 C 0.60868 0.09927 0.63257 0.0
O281 O 0.61985 0.1093 0.63223 0.0
Cd282 Cd 0.61576 0.13618 0.63966 0.0
O283 O 0.59493 0.10323 0.63665 0.0
Cd284 Cd 0.58037 0.12594 0.64524 0.0
C285 C 0.60326 0.1323 0.67726 0.0
O286 O 0.59172 0.14613 0.62838 0.0
O287 O 0.57732 0.15356 0.64773 0.0
O288 O 0.55673 0.11996 0.62999 0.0
C289 C 0.58517 0.15717 0.63569 0.0
O290 O 0.6142 0.13683 0.66814 0.0
C291 C 0.54847 0.11579 0.6416 0.0
O292 O 0.5902 0.12698 0.67188 0.0
O293 O 0.555 0.11652 0.65496 0.0
C294 C 0.59246 0.85448 0.37582 0.0
O295 O 0.6038 0.85553 0.36625 0.0
Cd296 Cd 0.62993 0.84689 0.37232 0.0
O297 O 0.59465 0.84909 0.38947 0.0
Cd298 Cd 0.6158 0.83907 0.40631 0.0
C299 C 0.62099 0.80876 0.38173 0.0
O300 O 0.63657 0.85679 0.39768 0.0
O301 O 0.64385 0.83774 0.41232 0.0
O302 O 0.60461 0.85431 0.42711 0.0
C303 C 0.64756 0.85007 0.40503 0.0
O304 O 0.62739 0.81855 0.37249 0.0
C305 C 0.60365 0.84326 0.43687 0.0
O306 O 0.61506 0.81316 0.3946 0.0
O307 O 0.60806 0.82994 0.43229 0.0
C308 C 0.8757 0.88513 0.12702 0.0
O309 O 0.86562 0.8742 0.12499 0.0
Cd310 Cd 0.8693 0.84877 0.13655 0.0
O311 O 0.88826 0.88273 0.13479 0.0
Cd312 Cd 0.90198 0.86203 0.14856 0.0
C313 C 0.873 0.85877 0.17511 0.0
O314 O 0.89556 0.83976 0.13162 0.0
O315 O 0.90555 0.83481 0.15432 0.0
O316 O 0.92596 0.87157 0.13651 0.0
C317 C 0.90082 0.82977 0.14116 0.0
O318 O 0.86509 0.85136 0.1647 0.0
C319 C 0.93366 0.87351 0.14914 0.0
O320 O 0.8863 0.86508 0.17195 0.0
O321 O 0.92657 0.87008 0.16172 0.0
C322 C 0.85415 0.60732 0.84721 0.0
O323 O 0.86518 0.60961 0.85711 0.0
Cd324 Cd 0.86358 0.60125 0.88387 0.0
O325 O 0.84115 0.60099 0.85128 0.0
Cd326 Cd 0.82771 0.59111 0.87463 0.0
C327 C 0.85422 0.56229 0.87921 0.0
O328 O 0.83868 0.60961 0.89355 0.0
O329 O 0.82553 0.59 0.90275 0.0
O330 O 0.80371 0.60378 0.86626 0.0
C331 C 0.83332 0.60247 0.90537 0.0
O332 O 0.86422 0.57268 0.88361 0.0
C333 C 0.79528 0.59142 0.86588 0.0
O334 O 0.8405 0.56601 0.87451 0.0
O335 O 0.80198 0.57883 0.86961 0.0
C336 C 0.36496 0.86684 0.08912 0.0
O337 O 0.36255 0.85633 0.09924 0.0
Cd338 Cd 0.34777 0.86197 0.12241 0.0
O339 O 0.35986 0.88051 0.09128 0.0
Cd340 Cd 0.34534 0.89526 0.11081 0.0
C341 C 0.31307 0.87297 0.10577 0.0
O342 O 0.35717 0.88562 0.13502 0.0
O343 O 0.33488 0.89736 0.13691 0.0
O344 O 0.36279 0.91714 0.10453 0.0
C345 C 0.34685 0.89176 0.14365 0.0
O346 O 0.31998 0.86313 0.11444 0.0
C347 C 0.35185 0.92703 0.10361 0.0
O348 O 0.32024 0.88531 0.10141 0.0
O349 O 0.33784 0.92208 0.10576 0.0
C350 C 0.11075 0.11592 0.58589 0.0
O351 O 0.11247 0.12685 0.59578 0.0
Cd352 Cd 0.12504 0.12247 0.62066 0.0
O353 O 0.11526 0.10225 0.58912 0.0
Cd354 Cd 0.12747 0.08772 0.61045 0.0
C355 C 0.16079 0.10946 0.60846 0.0
O356 O 0.11474 0.09927 0.63319 0.0
O357 O 0.13542 0.08537 0.63739 0.0
O358 O 0.10966 0.06573 0.60568 0.0
C359 C 0.12394 0.09282 0.64292 0.0
O360 O 0.15314 0.12031 0.61498 0.0
C361 C 0.12048 0.05604 0.60299 0.0
O362 O 0.15401 0.09666 0.60469 0.0
O363 O 0.13461 0.06115 0.60366 0.0
C364 C 0.11971 0.87276 0.8939 0.0
O365 O 0.12097 0.86162 0.88426 0.0
Cd366 Cd 0.13336 0.86563 0.85939 0.0
O367 O 0.12473 0.88635 0.89041 0.0
Cd368 Cd 0.13691 0.90072 0.8687 0.0
C369 C 0.17008 0.87976 0.86987 0.0
O370 O 0.12204 0.88829 0.84748 0.0
O371 O 0.1421 0.90257 0.84082 0.0
O372 O 0.11924 0.92173 0.87508 0.0
C373 C 0.13007 0.89458 0.83669 0.0
O374 O 0.16182 0.86873 0.86387 0.0
C375 C 0.12994 0.93217 0.87637 0.0
O376 O 0.16372 0.89249 0.8738 0.0
O377 O 0.14404 0.92799 0.87406 0.0
C378 C 0.6213 0.37712 0.38951 0.0
O379 O 0.62222 0.36646 0.37928 0.0
Cd380 Cd 0.63286 0.37126 0.35373 0.0
O381 O 0.62594 0.39095 0.38647 0.0
Cd382 Cd 0.63715 0.40663 0.36518 0.0
C383 C 0.6701 0.38504 0.36282 0.0
O384 O 0.62154 0.39492 0.34422 0.0
O385 O 0.64061 0.41029 0.33717 0.0
O386 O 0.62075 0.42832 0.37288 0.0
C387 C 0.62892 0.40169 0.33328 0.0
O388 O 0.66151 0.37427 0.35678 0.0
C389 C 0.63218 0.43776 0.3754 0.0
O390 O 0.66401 0.39755 0.36776 0.0
O391 O 0.64597 0.43274 0.37301 0.0
C392 C 0.86976 0.37685 0.64177 0.0
O393 O 0.88275 0.3765 0.63451 0.0
Cd394 Cd 0.88423 0.3829 0.60712 0.0
O395 O 0.85714 0.38042 0.63467 0.0
Cd396 Cd 0.84893 0.38808 0.60856 0.0
C397 C 0.87184 0.42017 0.60958 0.0
O398 O 0.86369 0.37044 0.59161 0.0
O399 O 0.85408 0.39122 0.58122 0.0
O400 O 0.82471 0.37302 0.61227 0.0
C401 C 0.86062 0.37818 0.57939 0.0
O402 O 0.88307 0.41133 0.60562 0.0
C403 C 0.8156 0.3842 0.60913 0.0
O404 O 0.85834 0.41449 0.61294 0.0
O405 O 0.82205 0.39718 0.60569 0.0
C406 C 0.61456 0.61222 0.08466 0.0
O407 O 0.61596 0.62379 0.09383 0.0
Cd408 Cd 0.62941 0.62087 0.11847 0.0
O409 O 0.6197 0.599 0.08868 0.0
Cd410 Cd 0.63249 0.58631 0.11083 0.0
C411 C 0.66529 0.60782 0.10639 0.0
O412 O 0.62024 0.59871 0.13345 0.0
O413 O 0.64216 0.58661 0.1373 0.0
O414 O 0.61367 0.56497 0.10811 0.0
C415 C 0.63033 0.59335 0.14301 0.0
O416 O 0.65738 0.61877 0.1124 0.0
C417 C 0.62384 0.55444 0.10636 0.0
O418 O 0.65884 0.59465 0.10341 0.0
O419 O 0.63826 0.55874 0.10657 0.0
C420 C 0.63355 0.6204 0.87131 0.0
O421 O 0.62171 0.61116 0.87189 0.0
Cd422 Cd 0.59653 0.61884 0.88214 0.0
O423 O 0.6326 0.63427 0.87644 0.0
Cd424 Cd 0.61338 0.65142 0.88871 0.0
C425 C 0.60639 0.62801 0.91974 0.0
O426 O 0.59037 0.64446 0.87261 0.0
O427 O 0.58626 0.6585 0.89308 0.0
O428 O 0.62391 0.67423 0.87516 0.0
C429 C 0.58077 0.65209 0.88083 0.0
O430 O 0.59862 0.61895 0.91063 0.0
C431 C 0.62733 0.68178 0.88753 0.0
O432 O 0.61381 0.63984 0.91446 0.0
O433 O 0.62445 0.67507 0.9004 0.0
C434 C 0.58298 0.36918 0.17539 0.0
O435 O 0.56856 0.37232 0.17306 0.0
Cd436 Cd 0.555 0.37099 0.1487 0.0
O437 O 0.59166 0.36444 0.16428 0.0
Cd438 Cd 0.5882 0.35785 0.13604 0.0
C439 C 0.57946 0.39522 0.12753 0.0
O440 O 0.56252 0.34612 0.13954 0.0
O441 O 0.56911 0.34874 0.11558 0.0
O442 O 0.60623 0.33646 0.14026 0.0
C443 C 0.55915 0.3437 0.12537 0.0
O444 O 0.56592 0.39261 0.13344 0.0
C445 C 0.61395 0.33864 0.12778 0.0
O446 O 0.59 0.38484 0.12774 0.0
O447 O 0.6101 0.35023 0.11948 0.0
C448 C 0.83613 0.35918 0.37144 0.0
O449 O 0.84724 0.36927 0.37207 0.0
Cd450 Cd 0.87373 0.36259 0.38009 0.0
O451 O 0.83864 0.34508 0.37505 0.0
Cd452 Cd 0.85982 0.32826 0.38401 0.0
C453 C 0.86665 0.34914 0.4169 0.0
O454 O 0.88151 0.33847 0.36803 0.0
O455 O 0.88743 0.32251 0.38654 0.0
O456 O 0.84875 0.30683 0.3685 0.0
C457 C 0.89199 0.33075 0.37516 0.0
O458 O 0.87309 0.35958 0.40843 0.0
C459 C 0.84703 0.29771 0.38003 0.0
O460 O 0.85996 0.33721 0.41081 0.0
O461 O 0.85132 0.30284 0.39332 0.0
C462 C 0.89543 0.61197 0.68629 0.0
O463 O 0.90962 0.60774 0.68454 0.0
Cd464 Cd 0.92452 0.60766 0.66115 0.0
O465 O 0.88715 0.61653 0.67471 0.0
Cd466 Cd 0.89041 0.61981 0.64596 0.0
C467 C 0.9007 0.58193 0.64051 0.0
O468 O 0.91614 0.63112 0.64958 0.0
O469 O 0.90917 0.62897 0.62558 0.0
O470 O 0.87176 0.6409 0.64833 0.0
C471 C 0.91959 0.63319 0.63545 0.0
O472 O 0.91383 0.58518 0.64717 0.0
C473 C 0.86407 0.63753 0.63597 0.0
O474 O 0.88999 0.5921 0.63918 0.0
O475 O 0.8683 0.62552 0.62851 0.0
C476 C 0.5919 0.3694 0.61149 0.0
O477 O 0.60151 0.36764 0.62277 0.0
Cd478 Cd 0.62679 0.35559 0.61992 0.0
O479 O 0.59528 0.36468 0.59784 0.0
Cd480 Cd 0.6166 0.35167 0.58389 0.0
C481 C 0.61509 0.31953 0.60703 0.0
O482 O 0.63827 0.36601 0.59646 0.0
O483 O 0.64461 0.34755 0.58064 0.0
O484 O 0.61053 0.36639 0.5603 0.0
C485 C 0.64902 0.35853 0.58964 0.0
O486 O 0.6211 0.32761 0.61812 0.0
C487 C 0.60821 0.35439 0.55183 0.0
O488 O 0.61181 0.3257 0.59397 0.0
O489 O 0.60971 0.34124 0.55836 0.0
C490 C 0.92585 0.363 0.82975 0.0
O491 O 0.92216 0.358 0.81623 0.0
Cd492 Cd 0.8968 0.36 0.80474 0.0
O493 O 0.91572 0.36983 0.83822 0.0
Cd494 Cd 0.88763 0.37809 0.83617 0.0
C495 C 0.87555 0.34076 0.8333 0.0
O496 O 0.8908 0.38635 0.80986 0.0
O497 O 0.86657 0.38446 0.81662 0.0
O498 O 0.89741 0.4007 0.85043 0.0
C499 C 0.87653 0.3885 0.80637 0.0
O500 O 0.88041 0.34153 0.81929 0.0
C501 C 0.88486 0.40291 0.85805 0.0
O502 O 0.87759 0.35215 0.84269 0.0
O503 O 0.87367 0.39306 0.85607 0.0
C504 C 0.89138 0.61391 0.12336 0.0
O505 O 0.88298 0.61643 0.13527 0.0
Cd506 Cd 0.85911 0.63108 0.13315 0.0
O507 O 0.8872 0.61902 0.11007 0.0
Cd508 Cd 0.86555 0.63391 0.09863 0.0
C509 C 0.87332 0.66588 0.12019 0.0
O510 O 0.84288 0.62163 0.11157 0.0
O511 O 0.83886 0.64343 0.09973 0.0
O512 O 0.86572 0.61804 0.07506 0.0
C513 C 0.83315 0.63142 0.10629 0.0
O514 O 0.86695 0.65865 0.13152 0.0
C515 C 0.86831 0.62935 0.06587 0.0
O516 O 0.8752 0.65913 0.10715 0.0
O517 O 0.8699 0.64276 0.072 0.0
C518 C 0.54697 0.6219 0.32724 0.0
O519 O 0.55021 0.62741 0.31388 0.0
Cd520 Cd 0.57577 0.62901 0.3028 0.0
O521 O 0.5578 0.61665 0.33614 0.0
Cd522 Cd 0.5869 0.61259 0.33533 0.0
C523 C 0.59444 0.65117 0.33128 0.0
O524 O 0.58491 0.60386 0.30903 0.0
O525 O 0.60885 0.60625 0.31695 0.0
O526 O 0.58085 0.58949 0.35054 0.0
C527 C 0.59934 0.60218 0.30616 0.0
O528 O 0.58963 0.64973 0.31723 0.0
C529 C 0.59309 0.59037 0.35915 0.0
O530 O 0.59384 0.63972 0.34067 0.0
O531 O 0.60226 0.60202 0.35708 0.0
C532 C 0.68311 0.90379 0.60578 0.0
O533 O 0.68044 0.91608 0.59805 0.0
Cd534 Cd 0.65615 0.92967 0.59786 0.0
O535 O 0.67241 0.89758 0.61426 0.0
Cd536 Cd 0.64466 0.90318 0.62169 0.0
C537 C 0.631 0.90083 0.58453 0.0
O538 O 0.65026 0.93051 0.62496 0.0
O539 O 0.62567 0.92455 0.62681 0.0
O540 O 0.65093 0.89184 0.64701 0.0
C541 C 0.63644 0.93494 0.62774 0.0
O542 O 0.63736 0.91416 0.58224 0.0
C543 C 0.63838 0.88362 0.64783 0.0
O544 O 0.63278 0.89384 0.59747 0.0
O545 O 0.62883 0.88439 0.6364 0.0
C546 C 0.3429 0.34952 0.10484 0.0
O547 O 0.35466 0.35885 0.10552 0.0
Cd548 Cd 0.37912 0.35286 0.09293 0.0
O549 O 0.34393 0.33652 0.09782 0.0
Cd550 Cd 0.36288 0.3205 0.08367 0.0
C551 C 0.36575 0.34746 0.05525 0.0
O552 O 0.38641 0.32662 0.09918 0.0
O553 O 0.39002 0.31464 0.0773 0.0
O554 O 0.35254 0.29884 0.09856 0.0
C555 C 0.39585 0.32005 0.08989 0.0
O556 O 0.37363 0.35565 0.06507 0.0
C557 C 0.34919 0.29018 0.08695 0.0
O558 O 0.35966 0.33438 0.05913 0.0
O559 O 0.35217 0.29566 0.07351 0.0
C560 C 0.36159 0.64043 0.86049 0.0
O561 O 0.36426 0.63011 0.87071 0.0
Cd562 Cd 0.3811 0.60844 0.86565 0.0
O563 O 0.36743 0.6393 0.84691 0.0
Cd564 Cd 0.38364 0.62177 0.8312 0.0
C565 C 0.41519 0.62745 0.85483 0.0
O566 O 0.37333 0.59705 0.84103 0.0
O567 O 0.39407 0.59605 0.82655 0.0
O568 O 0.36639 0.62652 0.80901 0.0
C569 C 0.38339 0.58883 0.83401 0.0
O570 O 0.40801 0.61922 0.86497 0.0
C571 C 0.37736 0.63075 0.79986 0.0
O572 O 0.40864 0.63076 0.84189 0.0
O573 O 0.39131 0.63101 0.8054 0.0
C574 C 0.13731 0.63178 0.58922 0.0
O575 O 0.12642 0.62154 0.59044 0.0
Cd576 Cd 0.09927 0.62761 0.58445 0.0
O577 O 0.13405 0.64562 0.58529 0.0
Cd578 Cd 0.11176 0.66213 0.57879 0.0
C579 C 0.10247 0.64087 0.54678 0.0
O580 O 0.09182 0.6517 0.5966 0.0
O581 O 0.08388 0.66697 0.57818 0.0
O582 O 0.12247 0.68254 0.59552 0.0
C583 C 0.08058 0.65902 0.59019 0.0
O584 O 0.09754 0.63039 0.55615 0.0
C585 C 0.12432 0.69252 0.58477 0.0
O586 O 0.10914 0.6533 0.55187 0.0
O587 O 0.12031 0.68835 0.57104 0.0
C588 C 0.11122 0.33686 0.36035 0.0
O589 O 0.10871 0.34531 0.37222 0.0
Cd590 Cd 0.09431 0.36915 0.37034 0.0
O591 O 0.10604 0.34078 0.34698 0.0
Cd592 Cd 0.09127 0.36167 0.33421 0.0
C593 C 0.05861 0.35624 0.35613 0.0
O594 O 0.10428 0.38312 0.34799 0.0
O595 O 0.08431 0.3891 0.33351 0.0
O596 O 0.1078 0.3583 0.31137 0.0
C597 C 0.09562 0.3936 0.34226 0.0
O598 O 0.0663 0.362 0.36764 0.0
C599 C 0.09641 0.35566 0.30197 0.0
O600 O 0.06522 0.35412 0.34305 0.0
O601 O 0.08259 0.35602 0.30757 0.0
C602 C 0.38662 0.63046 0.3756 0.0
O603 O 0.37474 0.62971 0.36651 0.0
Cd604 Cd 0.34988 0.6407 0.37361 0.0
O605 O 0.3855 0.63658 0.38907 0.0
Cd606 Cd 0.3661 0.64848 0.40636 0.0
C607 C 0.36205 0.67844 0.38147 0.0
O608 O 0.34307 0.63253 0.39949 0.0
O609 O 0.3388 0.6536 0.41258 0.0
O610 O 0.37627 0.63236 0.42704 0.0
C611 C 0.33337 0.64108 0.40661 0.0
O612 O 0.35444 0.66883 0.37279 0.0
C613 C 0.37923 0.64339 0.43654 0.0
O614 O 0.36844 0.67402 0.39418 0.0
O615 O 0.37633 0.65711 0.43191 0.0
C616 C 0.11509 0.59939 0.12615 0.0
O617 O 0.12633 0.60934 0.12572 0.0
Cd618 Cd 0.12275 0.63589 0.13445 0.0
O619 O 0.10158 0.60326 0.131 0.0
Cd620 Cd 0.08759 0.62562 0.1411 0.0
C621 C 0.1123 0.62817 0.17207 0.0
O622 O 0.09837 0.64624 0.12449 0.0
O623 O 0.08552 0.65333 0.14496 0.0
O624 O 0.06458 0.61678 0.1263 0.0
C625 C 0.09262 0.65717 0.13256 0.0
O626 O 0.12232 0.63452 0.16298 0.0
C627 C 0.05552 0.61587 0.13801 0.0
O628 O 0.09922 0.62277 0.16684 0.0
O629 O 0.06136 0.61976 0.15117 0.0
C630 C 0.0893 0.35083 0.8724 0.0
O631 O 0.09948 0.35081 0.86161 0.0
Cd632 Cd 0.12688 0.3456 0.86616 0.0
O633 O 0.09337 0.34834 0.88647 0.0
Cd634 Cd 0.11747 0.34313 0.90159 0.0
C635 C 0.12384 0.30937 0.88298 0.0
O636 O 0.13621 0.36036 0.8882 0.0
O637 O 0.14595 0.34283 0.90337 0.0
O638 O 0.10909 0.3613 0.92143 0.0
C639 C 0.14825 0.35462 0.89477 0.0
O640 O 0.12842 0.31781 0.87162 0.0
C641 C 0.10977 0.35174 0.93267 0.0
O642 O 0.11805 0.3155 0.89517 0.0
O643 O 0.11369 0.3379 0.92939 0.0
C644 C 0.36827 0.38551 0.63064 0.0
O645 O 0.35747 0.37512 0.62976 0.0
Cd646 Cd 0.36236 0.34884 0.63858 0.0
O647 O 0.38199 0.382 0.63539 0.0
Cd648 Cd 0.39712 0.35952 0.64375 0.0
C649 C 0.3754 0.3545 0.67608 0.0
O650 O 0.38605 0.33847 0.6272 0.0
O651 O 0.40056 0.33209 0.647 0.0
O652 O 0.41883 0.36846 0.62758 0.0
C653 C 0.39292 0.32787 0.63491 0.0
O654 O 0.36447 0.34923 0.66714 0.0
C655 C 0.42871 0.36981 0.63873 0.0
O656 O 0.38816 0.36004 0.67047 0.0
O657 O 0.42388 0.36627 0.65227 0.0
C658 C 0.35381 0.09974 0.34257 0.0
O659 O 0.3653 0.10046 0.35217 0.0
Cd660 Cd 0.36385 0.09359 0.37935 0.0
O661 O 0.3402 0.09513 0.34697 0.0
Cd662 Cd 0.32712 0.08607 0.37095 0.0
C663 C 0.35156 0.05548 0.37653 0.0
O664 O 0.33992 0.10422 0.38919 0.0
O665 O 0.32534 0.08603 0.39913 0.0
O666 O 0.3029 0.0991 0.36344 0.0
C667 C 0.33423 0.09786 0.40129 0.0
O668 O 0.36242 0.06516 0.3805 0.0
C669 C 0.29437 0.08679 0.36344 0.0
O670 O 0.33821 0.06013 0.37169 0.0
O671 O 0.30114 0.07416 0.3669 0.0
C672 C 0.12443 0.31384 0.3487 0.0
C673 C 0.1195 0.32194 0.36202 0.0
C674 C 0.13061 0.29895 0.35001 0.0
C675 C 0.14497 0.26936 0.37817 0.0
H676 H 0.12452 0.24054 0.34926 0.0
C677 C 0.1328 0.20481 0.39154 0.0
C678 C 0.13212 0.19404 0.37918 0.0
C679 C 0.1361 0.22051 0.38867 0.0
C680 C 0.13068 0.2484 0.35721 0.0
H681 H 0.11807 0.32117 0.38726 0.0
H682 H 0.12848 0.29497 0.38954 0.0
H683 H 0.12149 0.26828 0.34565 0.0
H684 H 0.13565 0.19099 0.35433 0.0
H685 H 0.14165 0.2184 0.34934 0.0
H686 H 0.1536 0.24926 0.39008 0.0
C687 C 0.12778 0.30022 0.37808 0.0
C688 C 0.12892 0.26436 0.35515 0.0
C689 C 0.1217 0.31519 0.37677 0.0
C690 C 0.1359 0.19906 0.36407 0.0
C691 C 0.13928 0.21476 0.3612 0.0
C692 C 0.14673 0.25333 0.38024 0.0
C693 C 0.13187 0.29176 0.36467 0.0
C694 C 0.13572 0.27502 0.3658 0.0
C695 C 0.13886 0.22574 0.37339 0.0
C696 C 0.13927 0.24267 0.36998 0.0
H697 H 0.12313 0.31883 0.33717 0.0
H698 H 0.13395 0.29285 0.33949 0.0
H699 H 0.15053 0.2773 0.38645 0.0
H700 H 0.13001 0.20127 0.40334 0.0
H701 H 0.13554 0.22867 0.3983 0.0
C702 C 0.02402 0.84357 0.63813 0.0
C703 C 0.03597 0.84338 0.62687 0.0
C704 C 0.00891 0.83793 0.63457 0.0
C705 C 0.98244 0.82913 0.60114 0.0
H706 H 0.95719 0.80891 0.63305 0.0
C707 C 0.91991 0.80441 0.58892 0.0
C708 C 0.90829 0.80972 0.59919 0.0
C709 C 0.93589 0.80674 0.59239 0.0
C710 C 0.96412 0.81456 0.62405 0.0
H711 H 0.04161 0.83684 0.60315 0.0
H712 H 0.01523 0.82653 0.597 0.0
H713 H 0.98468 0.81594 0.63861 0.0
H714 H 0.90428 0.82105 0.62141 0.0
H715 H 0.93229 0.82491 0.62758 0.0
H716 H 0.96183 0.82758 0.58658 0.0
C717 C 0.01745 0.83139 0.60849 0.0
C718 C 0.97983 0.81865 0.62723 0.0
C719 C 0.03258 0.83722 0.61202 0.0
C720 C 0.91297 0.81686 0.61327 0.0
C721 C 0.92898 0.81901 0.61683 0.0
C722 C 0.96678 0.82485 0.59791 0.0
C723 C 0.00541 0.83176 0.61971 0.0
C724 C -0.01089 0.82624 0.6159 0.0
C725 C 0.94056 0.81423 0.60628 0.0
C726 C 0.95743 0.81773 0.60941 0.0
H727 H 0.02625 0.84835 0.64966 0.0
H728 H -0.00012 0.83872 0.6434 0.0
H729 H -0.01088 0.83516 0.59222 0.0
H730 H 0.91667 0.79885 0.57797 0.0
H731 H 0.94461 0.80283 0.58413 0.0
C732 C 0.34533 0.77459 0.87296 0.0
C733 C 0.34716 0.78152 0.88773 0.0
C734 C 0.34141 0.75879 0.87162 0.0
C735 C 0.34599 0.72268 0.89343 0.0
H736 H 0.32163 0.70499 0.85905 0.0
C737 C 0.34877 0.65761 0.88025 0.0
C738 C 0.35285 0.65459 0.86468 0.0
C739 C 0.34289 0.67211 0.8845 0.0
C740 C 0.32839 0.70976 0.86876 0.0
H741 H 0.34544 0.77758 0.91266 0.0
H742 H 0.33847 0.75003 0.9103 0.0
H743 H 0.32104 0.73302 0.86395 0.0
H744 H 0.35269 0.66392 0.84116 0.0
H745 H 0.3427 0.68917 0.84858 0.0
H746 H 0.35395 0.69965 0.89783 0.0
C747 C 0.34032 0.75674 0.89977 0.0
C748 C 0.32808 0.72579 0.87154 0.0
C749 C 0.3443 0.77252 0.90111 0.0
C750 C 0.34982 0.66592 0.85329 0.0
C751 C 0.34393 0.68038 0.85753 0.0
C752 C 0.3463 0.70669 0.89065 0.0
C753 C 0.33919 0.74962 0.88502 0.0
C754 C 0.33729 0.73248 0.8836 0.0
C755 C 0.34094 0.68383 0.87325 0.0
C756 C 0.33793 0.70013 0.87797 0.0
H757 H 0.34742 0.78125 0.86244 0.0
H758 H 0.34083 0.75362 0.86008 0.0
H759 H 0.35337 0.72746 0.90269 0.0
H760 H 0.35083 0.64907 0.88928 0.0
H761 H 0.34046 0.67438 0.89668 0.0
C762 C 0.44984 0.13825 0.13866 0.0
C763 C 0.43765 0.13794 0.12747 0.0
C764 C 0.46526 0.14204 0.13439 0.0
C765 C 0.49134 0.14381 0.10007 0.0
H766 H 0.5191 0.16634 0.12874 0.0
C767 C 0.55454 0.16351 0.08401 0.0
C768 C 0.56634 0.15941 0.09478 0.0
C769 C 0.53863 0.16198 0.08788 0.0
C770 C 0.51147 0.15999 0.12067 0.0
H771 H 0.43193 0.14169 0.1031 0.0
H772 H 0.45888 0.14878 0.09566 0.0
H773 H 0.49141 0.16222 0.13541 0.0
H774 H 0.57078 0.15084 0.11815 0.0
H775 H 0.54287 0.14837 0.125 0.0
H776 H 0.51146 0.14181 0.08526 0.0
C777 C 0.45658 0.14573 0.10769 0.0
C778 C 0.49563 0.15757 0.12448 0.0
C779 C 0.44113 0.14176 0.11195 0.0
C780 C 0.56193 0.15407 0.10963 0.0
C781 C 0.546 0.15273 0.11356 0.0
C782 C 0.50713 0.1464 0.09618 0.0
C783 C 0.46885 0.14579 0.11885 0.0
C784 C 0.48542 0.14927 0.11432 0.0
C785 C 0.53422 0.15651 0.10265 0.0
C786 C 0.51736 0.15436 0.10652 0.0
H787 H 0.44754 0.13525 0.15071 0.0
H788 H 0.47443 0.14166 0.14324 0.0
H789 H 0.48391 0.13715 0.09208 0.0
H790 H 0.55758 0.16766 0.07247 0.0
H791 H 0.52976 0.16509 0.07932 0.0
C792 C 0.09466 0.68496 0.14071 0.0
C793 C 0.09569 0.67368 0.12888 0.0
C794 C 0.09784 0.70059 0.13752 0.0
C795 C 0.09588 0.72961 0.1078 0.0
H796 H 0.1269 0.75246 0.13272 0.0
C797 C 0.10998 0.79449 0.09651 0.0
C798 C 0.11343 0.80403 0.10947 0.0
C799 C 0.10863 0.77837 0.0982 0.0
C800 C 0.11803 0.74633 0.1258 0.0
H801 H 0.10067 0.66987 0.10441 0.0
H802 H 0.10575 0.69752 0.0987 0.0
H803 H 0.12302 0.72457 0.13682 0.0
H804 H 0.11789 0.80426 0.13439 0.0
H805 H 0.1148 0.7762 0.13752 0.0
H806 H 0.09022 0.75135 0.09729 0.0
C807 C 0.10268 0.69409 0.11046 0.0
C808 C 0.11594 0.73035 0.12807 0.0
C809 C 0.09982 0.67834 0.11373 0.0
C810 C 0.11533 0.79717 0.12418 0.0
C811 C 0.11368 0.78106 0.12593 0.0
C812 C 0.09775 0.74566 0.10571 0.0
C813 C 0.10182 0.70528 0.12238 0.0
C814 C 0.10479 0.72191 0.11916 0.0
C815 C 0.11042 0.77143 0.11293 0.0
C816 C 0.10877 0.75426 0.11477 0.0
H817 H 0.09157 0.68169 0.15252 0.0
H818 H 0.09699 0.70907 0.14686 0.0
H819 H 0.08709 0.7233 0.10092 0.0
H820 H 0.10864 0.79945 0.08498 0.0
H821 H 0.10641 0.77136 0.08787 0.0
C822 C 0.45158 0.86722 0.34838 0.0
C823 C 0.4475 0.86471 0.33265 0.0
C824 C 0.46742 0.86735 0.3531 0.0
C825 C 0.50672 0.85444 0.34009 0.0
H826 H 0.52216 0.88282 0.37222 0.0
C827 C 0.57267 0.86052 0.35498 0.0
C828 C 0.57635 0.85867 0.37087 0.0
C829 C 0.55709 0.86284 0.35023 0.0
C830 C 0.51796 0.87483 0.36325 0.0
H831 H 0.45681 0.86078 0.30947 0.0
H832 H 0.4843 0.86145 0.31758 0.0
H833 H 0.49446 0.88353 0.36412 0.0
H834 H 0.56676 0.85864 0.39429 0.0
H835 H 0.53958 0.86284 0.38594 0.0
H836 H 0.53025 0.84588 0.33912 0.0
C837 C 0.47533 0.86286 0.32639 0.0
C838 C 0.50211 0.87516 0.35868 0.0
C839 C 0.45955 0.86255 0.32172 0.0
C840 C 0.56428 0.85992 0.38195 0.0
C841 C 0.54874 0.86242 0.3772 0.0
C842 C 0.52256 0.85425 0.34454 0.0
C843 C 0.47947 0.86513 0.34214 0.0
C844 C 0.4963 0.86493 0.34706 0.0
C845 C 0.54497 0.86355 0.36128 0.0
C846 C 0.52832 0.8644 0.35618 0.0
H847 H 0.44255 0.86889 0.35708 0.0
H848 H 0.47018 0.86893 0.36536 0.0
H849 H 0.50259 0.84616 0.33136 0.0
H850 H 0.58171 0.85964 0.34617 0.0
H851 H 0.55448 0.86383 0.33788 0.0
C852 C 0.37188 0.18822 0.62914 0.0
C853 C 0.37046 0.18083 0.61455 0.0
C854 C 0.37539 0.20414 0.63007 0.0
C855 C 0.37048 0.24045 0.61004 0.0
H856 H 0.40606 0.25536 0.63488 0.0
C857 C 0.38566 0.30624 0.61631 0.0
C858 C 0.39103 0.31121 0.63106 0.0
C859 C 0.38405 0.29032 0.61296 0.0
C860 C 0.39595 0.25144 0.62805 0.0
H861 H 0.37145 0.18429 0.5895 0.0
H862 H 0.37715 0.21227 0.59118 0.0
H863 H 0.40126 0.22745 0.63199 0.0
H864 H 0.39857 0.3035 0.65398 0.0
H865 H 0.39514 0.27602 0.64845 0.0
H866 H 0.36462 0.26434 0.60669 0.0
C867 C 0.37574 0.20564 0.60184 0.0
C868 C 0.3933 0.23546 0.62635 0.0
C869 C 0.37256 0.18966 0.60091 0.0
C870 C 0.39459 0.30004 0.64242 0.0
C871 C 0.39274 0.28422 0.63919 0.0
C872 C 0.37295 0.25647 0.61199 0.0
C873 C 0.37721 0.21297 0.61642 0.0
C874 C 0.38046 0.22985 0.61747 0.0
C875 C 0.38757 0.27912 0.62439 0.0
C876 C 0.38559 0.26216 0.62121 0.0
H877 H 0.37034 0.18168 0.63984 0.0
H878 H 0.37641 0.20962 0.64144 0.0
H879 H 0.36046 0.23632 0.60319 0.0
H880 H 0.38289 0.31464 0.60732 0.0
H881 H 0.38019 0.28682 0.60139 0.0
C882 C 0.0322 0.12237 0.85356 0.0
C883 C 0.03782 0.13409 0.84352 0.0
C884 C 0.0163 0.12178 0.8578 0.0
C885 C 0.97741 0.13524 0.84417 0.0
H886 H 0.96377 0.12406 0.88579 0.0
C887 C 0.91852 0.14032 0.88403 0.0
C888 C 0.90687 0.13585 0.87307 0.0
C889 C 0.93446 0.1384 0.88078 0.0
C890 C 0.9674 0.12725 0.87412 0.0
H891 H 0.0314 0.15485 0.83073 0.0
H892 H 0.00385 0.15406 0.83844 0.0
H893 H -0.00811 0.12508 0.8799 0.0
H894 H 0.90281 0.1253 0.85034 0.0
H895 H 0.93072 0.12169 0.84477 0.0
H896 H 0.95303 0.13804 0.83853 0.0
C897 C 0.01158 0.14505 0.84266 0.0
C898 C 0.9835 0.12768 0.87071 0.0
C899 C 0.0274 0.14557 0.83835 0.0
C900 C 0.9115 0.12898 0.85897 0.0
C901 C 0.92749 0.12698 0.85576 0.0
C902 C 0.96135 0.13488 0.8476 0.0
C903 C 0.00576 0.13296 0.85215 0.0
C904 C 0.98868 0.13188 0.85574 0.0
C905 C 0.93915 0.13188 0.86654 0.0
C906 C 0.95616 0.13105 0.86265 0.0
H907 H 0.03993 0.11332 0.8577 0.0
H908 H 0.01217 0.11228 0.86507 0.0
H909 H 0.98099 0.13822 0.83243 0.0
H910 H 0.91536 0.14567 0.89501 0.0
H911 H 0.94313 0.14252 0.88925 0.0
C912 C 0.37322 0.1148 0.20114 0.0
C913 C 0.3894 0.11269 0.19846 0.0
C914 C 0.36748 0.11547 0.21641 0.0
C915 C 0.38002 0.12423 0.25654 0.0
H916 H 0.34663 0.09575 0.26937 0.0
C917 C 0.37162 0.10683 0.32043 0.0
C918 C 0.35632 0.10388 0.32602 0.0
C919 C 0.37408 0.10998 0.30467 0.0
C920 C 0.35575 0.10401 0.26595 0.0
H921 H 0.41225 0.10981 0.20966 0.0
H922 H 0.40227 0.11115 0.23611 0.0
H923 H 0.35349 0.09767 0.24181 0.0
H924 H 0.33153 0.10241 0.31948 0.0
H925 H 0.33584 0.10819 0.292 0.0
H926 H 0.38247 0.13051 0.28058 0.0
C927 C 0.39403 0.11228 0.22646 0.0
C928 C 0.35967 0.10508 0.25017 0.0
C929 C 0.3997 0.11138 0.2113 0.0
C930 C 0.34349 0.10452 0.31554 0.0
C931 C 0.34595 0.10777 0.29977 0.0
C932 C 0.37602 0.12328 0.27226 0.0
C933 C 0.37789 0.11434 0.22918 0.0
C934 C 0.37214 0.11487 0.24541 0.0
C935 C 0.3613 0.11039 0.29412 0.0
C936 C 0.36415 0.11283 0.27722 0.0
H937 H 0.365 0.11584 0.19148 0.0
H938 H 0.35498 0.11705 0.21825 0.0
H939 H 0.38954 0.13204 0.2531 0.0
H940 H 0.38176 0.10637 0.32817 0.0
H941 H 0.38609 0.11167 0.30069 0.0
C942 C 0.09892 0.11487 0.44558 0.0
C943 C 0.10471 0.12816 0.43783 0.0
C944 C 0.09779 0.11474 0.46183 0.0
C945 C 0.11275 0.1351 0.49725 0.0
H946 H 0.07771 0.11339 0.51695 0.0
C947 C 0.10611 0.13436 0.56382 0.0
C948 C 0.10511 0.11921 0.56992 0.0
C949 C 0.10353 0.13692 0.54792 0.0
C950 C 0.08752 0.11954 0.51158 0.0
H951 H 0.11377 0.15175 0.44104 0.0
H952 H 0.11147 0.15163 0.46928 0.0
H953 H 0.07885 0.11481 0.48853 0.0
H954 H 0.09942 0.09507 0.56445 0.0
H955 H 0.09476 0.09958 0.53677 0.0
H956 H 0.12142 0.13977 0.52031 0.0
C957 C 0.10813 0.14118 0.46288 0.0
C958 C 0.08826 0.12025 0.49532 0.0
C959 C 0.10941 0.14126 0.44666 0.0
C960 C 0.10038 0.10686 0.56006 0.0
C961 C 0.09762 0.10945 0.54423 0.0
C962 C 0.11193 0.13451 0.51348 0.0
C963 C 0.10227 0.12794 0.47067 0.0
C964 C 0.10102 0.12784 0.48795 0.0
C965 C 0.09969 0.12441 0.53792 0.0
C966 C 0.09943 0.12654 0.5208 0.0
H967 H 0.09525 0.10457 0.43911 0.0
H968 H 0.09353 0.10423 0.46747 0.0
H969 H 0.12287 0.14083 0.492 0.0
H970 H 0.10973 0.14411 0.57114 0.0
H971 H 0.10505 0.14859 0.54333 0.0
C972 C 0.13723 0.8952 0.80847 0.0
C973 C 0.12606 0.89207 0.82011 0.0
C974 C 0.13343 0.89276 0.79277 0.0
C975 C 0.10358 0.87302 0.76703 0.0
H976 H 0.11937 0.90211 0.73606 0.0
C977 C 0.07533 0.881 0.7066 0.0
C978 C 0.08537 0.87939 0.69374 0.0
C979 C 0.08152 0.8818 0.72169 0.0
C980 C 0.11504 0.89383 0.7446 0.0
H981 H 0.1021 0.88413 0.82452 0.0
H982 H 0.09519 0.8805 0.79715 0.0
H983 H 0.12767 0.90503 0.76327 0.0
H984 H 0.10978 0.87769 0.68654 0.0
H985 H 0.12065 0.87961 0.71312 0.0
H986 H 0.09032 0.86237 0.74837 0.0
C987 C 0.10709 0.88433 0.80008 0.0
C988 C 0.11982 0.89543 0.76017 0.0
C989 C 0.11099 0.88653 0.81578 0.0
C990 C 0.10177 0.87889 0.69625 0.0
C991 C 0.10799 0.88002 0.71139 0.0
C992 C 0.09861 0.87161 0.75154 0.0
C993 C 0.11827 0.88736 0.78835 0.0
C994 C 0.11398 0.88515 0.77163 0.0
C995 C 0.09787 0.88129 0.7242 0.0
C996 C 0.10417 0.8821 0.74026 0.0
H997 H 0.149 0.89938 0.81151 0.0
H998 H 0.14242 0.89498 0.78411 0.0
H999 H 0.09916 0.86464 0.77542 0.0
H1000 H 0.06264 0.88134 0.70505 0.0
H1001 H 0.07352 0.8829 0.73142 0.0
C1002 C 0.36939 0.83682 0.95186 0.0
C1003 C 0.37234 0.85025 0.94293 0.0
C1004 C 0.37157 0.83707 0.968 0.0
C1005 C 0.39055 0.8598 0.00011 0.0
H1006 H 0.35905 0.83868 0.02534 0.0
C1007 C 0.37674 0.87499 0.0638 0.0
C1008 C 0.37201 0.86297 0.07393 0.0
C1009 C 0.38047 0.87171 0.04833 0.0
C1010 C 0.36814 0.84436 0.01847 0.0
H1011 H 0.37983 0.8745 0.94395 0.0
H1012 H 0.38314 0.87509 0.97224 0.0
H1013 H 0.35747 0.83674 -0.0029 0.0
H1014 H 0.36872 0.83798 0.07619 0.0
H1015 H 0.37516 0.83226 0.04904 0.0
H1016 H 0.40075 0.86798 0.02164 0.0
C1017 C 0.37951 0.86425 0.9667 0.0
C1018 C 0.36722 0.84328 0.00226 0.0
C1019 C 0.37747 0.86396 0.95051 0.0
C1020 C 0.37225 0.84748 0.06863 0.0
C1021 C 0.37585 0.84422 0.05309 0.0
C1022 C 0.3914 0.86097 0.01636 0.0
C1023 C 0.37659 0.85079 0.97563 0.0
C1024 C 0.37827 0.85117 -0.00713 0.0
C1025 C 0.37944 0.85637 0.04268 0.0
C1026 C 0.38005 0.85344 0.02567 0.0
H1027 H 0.3656 0.82599 0.94638 0.0
H1028 H 0.36945 0.82643 0.97447 0.0
H1029 H 0.39942 0.86577 -0.00678 0.0
H1030 H 0.37681 0.88703 0.06759 0.0
H1031 H 0.38311 0.88132 0.04056 0.0
C1032 C 0.38417 0.89309 0.27895 0.0
C1033 C 0.37298 0.88986 0.29055 0.0
C1034 C 0.37942 0.89569 0.26363 0.0
C1035 C 0.34684 0.88678 0.23648 0.0
H1036 H 0.37152 0.91365 0.20932 0.0
C1037 C 0.33512 0.89485 0.17006 0.0
C1038 C 0.3484 0.89216 0.16076 0.0
C1039 C 0.33661 0.89581 0.18626 0.0
C1040 C 0.36454 0.90613 0.2168 0.0
H1041 H 0.34799 0.8875 0.29538 0.0
H1042 H 0.33958 0.89236 0.26845 0.0
H1043 H 0.37608 0.91461 0.23742 0.0
H1044 H 0.37363 0.88834 0.16102 0.0
H1045 H 0.3763 0.89036 0.1894 0.0
H1046 H 0.33527 0.87842 0.21568 0.0
C1047 C 0.35207 0.89258 0.27122 0.0
C1048 C 0.36714 0.90663 0.23287 0.0
C1049 C 0.35686 0.88989 0.28664 0.0
C1050 C 0.3632 0.89038 0.16792 0.0
C1051 C 0.36474 0.89163 0.1841 0.0
C1052 C 0.34407 0.88647 0.22039 0.0
C1053 C 0.36335 0.89528 0.25951 0.0
C1054 C 0.35869 0.8966 0.24285 0.0
C1055 C 0.35147 0.8944 0.19337 0.0
C1056 C 0.35322 0.89582 0.21043 0.0
H1057 H 0.3967 0.89317 0.28157 0.0
H1058 H 0.38846 0.89741 0.25491 0.0
H1059 H 0.34023 0.87879 0.2438 0.0
H1060 H 0.32355 0.89622 0.16481 0.0
H1061 H 0.32624 0.89796 0.19321 0.0
C1062 C 0.37433 0.13442 0.53431 0.0
C1063 C 0.36961 0.12219 0.54417 0.0
C1064 C 0.37412 0.13242 0.51813 0.0
C1065 C 0.37008 0.10234 0.48689 0.0
H1066 H 0.3505 0.13568 0.46364 0.0
C1067 C 0.33655 0.09212 0.42966 0.0
C1068 C 0.33986 0.10207 0.41708 0.0
C1069 C 0.34272 0.09534 0.44444 0.0
C1070 C 0.35621 0.12639 0.46994 0.0
H1071 H 0.36161 0.09809 0.54491 0.0
H1072 H 0.36088 0.09468 0.51677 0.0
H1073 H 0.35751 0.13968 0.49103 0.0
H1074 H 0.35193 0.1234 0.41017 0.0
H1075 H 0.36244 0.12926 0.43633 0.0
H1076 H 0.36798 0.08881 0.46595 0.0
C1077 C 0.36502 0.10576 0.52145 0.0
C1078 C 0.36029 0.12867 0.48561 0.0
C1079 C 0.36533 0.10773 0.5376 0.0
C1080 C 0.34919 0.11554 0.41967 0.0
C1081 C 0.3552 0.11888 0.43458 0.0
C1082 C 0.36585 0.10002 0.4713 0.0
C1083 C 0.3691 0.11817 0.5115 0.0
C1084 C 0.3669 0.11652 0.49437 0.0
C1085 C 0.35218 0.10868 0.44702 0.0
C1086 C 0.35852 0.11189 0.46281 0.0
H1087 H 0.3778 0.14568 0.53905 0.0
H1088 H 0.37758 0.14213 0.5108 0.0
H1089 H 0.37548 0.09287 0.4932 0.0
H1090 H 0.32941 0.08165 0.42805 0.0
H1091 H 0.34001 0.08743 0.45392 0.0
C1092 C 0.118 0.10192 0.78591 0.0
C1093 C 0.10312 0.10675 0.79097 0.0
C1094 C 0.12078 0.09956 0.77001 0.0
C1095 C 0.09964 0.0934 0.73234 0.0
H1096 H 0.139 0.10787 0.7142 0.0
C1097 C 0.10805 0.10058 0.66609 0.0
C1098 C 0.12189 0.09434 0.65991 0.0
C1099 C 0.10611 0.10164 0.68223 0.0
C1100 C 0.12801 0.10368 0.71915 0.0
H1101 H 0.07955 0.11297 0.7834 0.0
H1102 H 0.08448 0.10923 0.75586 0.0
H1103 H 0.13514 0.1101 0.74232 0.0
H1104 H 0.14464 0.08452 0.66573 0.0
H1105 H 0.14126 0.08653 0.69388 0.0
H1106 H 0.0924 0.08733 0.70911 0.0
C1107 C 0.09391 0.10689 0.76408 0.0
C1108 C 0.12582 0.10488 0.73525 0.0
C1109 C 0.09112 0.10915 0.77989 0.0
C1110 C 0.13382 0.08936 0.67015 0.0
C1111 C 0.13195 0.09058 0.68625 0.0
C1112 C 0.10178 0.09234 0.71627 0.0
C1113 C 0.10874 0.10203 0.75893 0.0
C1114 C 0.11155 0.09988 0.742 0.0
C1115 C 0.11804 0.09663 0.69244 0.0
C1116 C 0.11593 0.09757 0.70951 0.0
H1117 H 0.12745 0.09996 0.79422 0.0
H1118 H 0.13229 0.09567 0.76642 0.0
H1119 H 0.08864 0.08915 0.73721 0.0
H1120 H 0.09867 0.10451 0.65848 0.0
H1121 H 0.09533 0.10649 0.68673 0.0
C1122 C 0.09051 0.84416 0.02976 0.0
C1123 C 0.09446 0.85771 0.03826 0.0
C1124 C 0.08836 0.84479 0.01361 0.0
C1125 C 0.08389 0.8716 0.97997 0.0
H1126 H 0.1092 0.84111 0.95854 0.0
C1127 C 0.11105 0.88253 0.91991 0.0
C1128 C 0.11259 0.87007 0.90939 0.0
C1129 C 0.10508 0.88003 0.93482 0.0
C1130 C 0.10178 0.84951 0.96425 0.0
H1131 H 0.0982 0.88269 0.03668 0.0
H1132 H 0.09464 0.88378 0.00848 0.0
H1133 H 0.1048 0.83858 0.98639 0.0
H1134 H 0.10852 0.84525 0.90613 0.0
H1135 H 0.09803 0.84089 0.93226 0.0
H1136 H 0.08137 0.88283 0.95784 0.0
C1137 C 0.09307 0.87268 0.01428 0.0
C1138 C 0.09925 0.84806 0.98025 0.0
C1139 C 0.09521 0.87205 0.03044 0.0
C1140 C 0.10759 0.85509 0.91399 0.0
C1141 C 0.10162 0.85258 0.92896 0.0
C1142 C 0.08641 0.87304 0.96394 0.0
C1143 C 0.09012 0.85898 0.00564 0.0
C1144 C 0.09063 0.85931 0.98836 0.0
C1145 C 0.10049 0.865 0.9396 0.0
C1146 C 0.09576 0.86224 0.956 0.0
H1147 H 0.0897 0.83294 0.03548 0.0
H1148 H 0.08584 0.83408 0.00729 0.0
H1149 H 0.077 0.88032 0.98587 0.0
H1150 H 0.11474 0.89424 0.91675 0.0
H1151 H 0.10462 0.88981 0.9428 0.0
C1152 C 0.32407 0.36983 0.11363 0.0
C1153 C 0.32752 0.35407 0.11124 0.0
C1154 C 0.3088 0.37422 0.11757 0.0
C1155 C 0.26779 0.35963 0.11362 0.0
H1156 H 0.25864 0.39695 0.13721 0.0
C1157 C 0.20448 0.38285 0.12154 0.0
C1158 C 0.20299 0.3986 0.11743 0.0
C1159 C 0.21942 0.37634 0.12323 0.0
C1160 C 0.26105 0.38647 0.13064 0.0
H1161 H 0.31807 0.33047 0.11225 0.0
H1162 H 0.2916 0.33808 0.11964 0.0
H1163 H 0.28557 0.38726 0.13676 0.0
H1164 H 0.21598 0.41993 0.11213 0.0
H1165 H 0.24194 0.40859 0.1152 0.0
H1166 H 0.24326 0.35896 0.10743 0.0
C1167 C 0.30049 0.3471 0.11795 0.0
C1168 C 0.27646 0.38096 0.13032 0.0
C1169 C 0.31569 0.34273 0.1138 0.0
C1170 C 0.2167 0.40773 0.11522 0.0
C1171 C 0.23158 0.4013 0.11713 0.0
C1172 C 0.25236 0.36505 0.1141 0.0
C1173 C 0.29673 0.36292 0.1194 0.0
C1174 C 0.28009 0.36769 0.12148 0.0
C1175 C 0.23308 0.38555 0.1211 0.0
C1176 C 0.24894 0.37873 0.12229 0.0
H1177 H 0.33294 0.37883 0.1117 0.0
H1178 H 0.30632 0.38652 0.11842 0.0
H1179 H 0.27015 0.34953 0.10648 0.0
H1180 H 0.19412 0.37553 0.12334 0.0
H1181 H 0.2203 0.36416 0.1263 0.0
C1182 C 0.69423 0.10079 0.87636 0.0
C1183 C 0.69161 0.08461 0.87592 0.0
C1184 C 0.70938 0.10691 0.87906 0.0
C1185 C 0.74882 0.09571 0.89425 0.0
H1186 H 0.76248 0.13376 0.87376 0.0
C1187 C 0.81358 0.11786 0.89294 0.0
C1188 C 0.81595 0.13343 0.89759 0.0
C1189 C 0.79832 0.11193 0.8905 0.0
C1190 C 0.75875 0.12317 0.8796 0.0
H1191 H 0.70281 0.06213 0.8775 0.0
H1192 H 0.72928 0.07274 0.88156 0.0
H1193 H 0.736 0.12327 0.86869 0.0
H1194 H 0.80431 0.15503 0.90322 0.0
H1195 H 0.77763 0.14469 0.8986 0.0
H1196 H 0.77184 0.09544 0.90475 0.0
C1197 C 0.71961 0.08076 0.88039 0.0
C1198 C 0.74357 0.11719 0.87679 0.0
C1199 C 0.70444 0.07467 0.87796 0.0
C1200 C 0.80282 0.14297 0.89969 0.0
C1201 C 0.78759 0.13711 0.89698 0.0
C1202 C 0.76407 0.10156 0.89685 0.0
C1203 C 0.72227 0.09696 0.88112 0.0
C1204 C 0.7384 0.10339 0.8841 0.0
C1205 C 0.78523 0.12155 0.8924 0.0
C1206 C 0.76913 0.11535 0.88958 0.0
H1207 H 0.68453 0.10873 0.87492 0.0
H1208 H 0.71093 0.11943 0.87978 0.0
H1209 H 0.74516 0.08525 0.90036 0.0
H1210 H 0.82351 0.11026 0.89126 0.0
H1211 H 0.79675 0.0999 0.88689 0.0
C1212 C 0.11914 0.45749 0.13034 0.0
C1213 C 0.13434 0.45184 0.13323 0.0
C1214 C 0.11669 0.47353 0.12926 0.0
C1215 C 0.13525 0.51187 0.13865 0.0
H1216 H 0.10879 0.52672 0.10489 0.0
C1217 C 0.13316 0.57678 0.12343 0.0
C1218 C 0.11786 0.5828 0.12277 0.0
C1219 C 0.13537 0.56069 0.12315 0.0
C1220 C 0.11618 0.52272 0.11438 0.0
H1221 H 0.15876 0.45851 0.13783 0.0
H1222 H 0.15454 0.48627 0.13577 0.0
H1223 H 0.11148 0.49873 0.10896 0.0
H1224 H 0.093 0.57681 0.12007 0.0
H1225 H 0.09689 0.5488 0.11948 0.0
H1226 H 0.14003 0.53582 0.144 0.0
C1227 C 0.14446 0.47844 0.13449 0.0
C1228 C 0.11762 0.50671 0.11679 0.0
C1229 C 0.14689 0.46249 0.13559 0.0
C1230 C 0.10493 0.5725 0.12072 0.0
C1231 C 0.10715 0.55646 0.1203 0.0
C1232 C 0.13388 0.52783 0.13617 0.0
C1233 C 0.12939 0.48416 0.13109 0.0
C1234 C 0.1272 0.50112 0.12894 0.0
C1235 C 0.12234 0.55038 0.12204 0.0
C1236 C 0.12436 0.53342 0.12401 0.0
H1237 H 0.10924 0.44954 0.12851 0.0
H1238 H 0.10489 0.4776 0.12686 0.0
H1239 H 0.14252 0.50795 0.14827 0.0
H1240 H 0.14335 0.58443 0.125 0.0
H1241 H 0.14723 0.55628 0.12429 0.0
C1242 C 0.67607 0.84771 0.41209 0.0
C1243 C 0.66411 0.8555 0.40396 0.0
C1244 C 0.6918 0.8525 0.41067 0.0
C1245 C 0.72441 0.85881 0.39757 0.0
H1246 H 0.73561 0.90277 0.39691 0.0
C1247 C 0.78618 0.88152 0.37993 0.0
C1248 C 0.79263 0.89405 0.38856 0.0
C1249 C 0.77058 0.87662 0.38226 0.0
C1250 C 0.73269 0.89045 0.39721 0.0
H1251 H 0.6592 0.87447 0.38809 0.0
H1252 H 0.68671 0.88275 0.38548 0.0
H1253 H 0.70815 0.89479 0.40054 0.0
H1254 H 0.78786 0.91106 0.40665 0.0
H1255 H 0.76075 0.90237 0.41083 0.0
H1256 H 0.74899 0.85448 0.3945 0.0
C1257 C 0.6839 0.87306 0.3931 0.0
C1258 C 0.71694 0.88588 0.39911 0.0
C1259 C 0.66816 0.86828 0.39453 0.0
C1260 C 0.78323 0.90142 0.39973 0.0
C1261 C 0.76766 0.89651 0.40207 0.0
C1262 C 0.74016 0.86338 0.39568 0.0
C1263 C 0.6959 0.86517 0.40109 0.0
C1264 C 0.71264 0.87002 0.39928 0.0
C1265 C 0.76114 0.88413 0.39329 0.0
C1266 C 0.74446 0.87924 0.39546 0.0
H1267 H 0.67329 0.83786 0.4195 0.0
H1268 H 0.70076 0.84634 0.41715 0.0
H1269 H 0.72143 0.8465 0.39749 0.0
H1270 H 0.79308 0.87561 0.3712 0.0
H1271 H 0.76583 0.86716 0.37519 0.0
C1272 C 0.85844 0.90457 0.11358 0.0
C1273 C 0.87258 0.90107 0.12138 0.0
C1274 C 0.85488 0.92 0.10994 0.0
C1275 C 0.87193 0.96045 0.10888 0.0
H1276 H 0.82935 0.97182 0.11992 0.0
C1277 C 0.83483 0.01687 0.13105 0.0
C1278 C 0.83969 0.02839 0.12044 0.0
C1279 C 0.83939 0.00148 0.12912 0.0
C1280 C 0.84132 0.96885 0.11686 0.0
H1281 H 0.89447 0.91096 0.13068 0.0
H1282 H 0.88812 0.93769 0.12475 0.0
H1283 H 0.83634 0.94454 0.11918 0.0
H1284 H 0.85362 0.0329 0.09976 0.0
H1285 H 0.86149 0.00584 0.09627 0.0
H1286 H 0.87706 0.98491 0.10743 0.0
C1287 C 0.87984 0.9286 0.12119 0.0
C1288 C 0.84526 0.95317 0.11616 0.0
C1289 C 0.88342 0.91322 0.12473 0.0
C1290 C 0.84972 0.02428 0.10815 0.0
C1291 C 0.85422 0.00879 0.10615 0.0
C1292 C 0.86799 0.97619 0.10967 0.0
C1293 C 0.86537 0.93224 0.11409 0.0
C1294 C 0.86071 0.94877 0.11253 0.0
C1295 C 0.84882 -0.00282 0.11645 0.0
C1296 C 0.85274 0.98055 0.11407 0.0
H1297 H 0.8499 0.89547 0.1107 0.0
H1298 H 0.84375 0.92239 0.10422 0.0
H1299 H 0.88387 0.95746 0.1058 0.0
H1300 H 0.82726 0.01968 0.14076 0.0
H1301 H 0.83541 -0.00708 0.13754 0.0
C1302 C 0.1657 0.63953 0.59206 0.0
C1303 C 0.15402 0.62771 0.59175 0.0
C1304 C 0.18161 0.63586 0.59335 0.0
C1305 C 0.20881 0.60471 0.60472 0.0
H1306 H 0.23814 0.62751 0.57834 0.0
C1307 C 0.27345 0.58666 0.59798 0.0
C1308 C 0.28496 0.59861 0.59881 0.0
C1309 C 0.25749 0.5902 0.59679 0.0
C1310 C 0.23012 0.62115 0.58588 0.0
H1311 H 0.14989 0.60275 0.59294 0.0
H1312 H 0.1778 0.59629 0.59502 0.0
H1313 H 0.21014 0.63352 0.57739 0.0
H1314 H 0.28882 0.62363 0.59865 0.0
H1315 H 0.26083 0.62984 0.59658 0.0
H1316 H 0.22883 0.5923 0.61314 0.0
C1317 C 0.17458 0.60843 0.59441 0.0
C1318 C 0.21408 0.62459 0.58536 0.0
C1319 C 0.1586 0.61212 0.59317 0.0
C1320 C 0.28021 0.61419 0.59801 0.0
C1321 C 0.26421 0.61773 0.59679 0.0
C1322 C 0.22485 0.60124 0.60521 0.0
C1323 C 0.18626 0.62027 0.59429 0.0
C1324 C 0.20326 0.61645 0.5948 0.0
C1325 C 0.25268 0.60576 0.59638 0.0
C1326 C 0.23567 0.60944 0.59581 0.0
H1327 H 0.16259 0.65168 0.59115 0.0
H1328 H 0.19029 0.64526 0.59357 0.0
H1329 H 0.20081 0.59838 0.61228 0.0
H1330 H 0.27673 0.57454 0.59849 0.0
H1331 H 0.24889 0.58073 0.59623 0.0
C1332 C 0.1121 0.41511 0.35375 0.0
C1333 C 0.09818 0.41019 0.34613 0.0
C1334 C 0.11469 0.43083 0.3572 0.0
C1335 C 0.10215 0.47009 0.3454 0.0
H1336 H 0.12635 0.48226 0.38216 0.0
C1337 C 0.12001 0.53412 0.36045 0.0
C1338 C 0.13645 0.536 0.3621 0.0
C1339 C 0.11314 0.51919 0.36004 0.0
C1340 C 0.11948 0.479 0.37191 0.0
H1341 H 0.07587 0.41774 0.33644 0.0
H1342 H 0.08021 0.44518 0.34282 0.0
H1343 H 0.11802 0.45513 0.37876 0.0
H1344 H 0.15852 0.52385 0.36509 0.0
H1345 H 0.1465 0.4979 0.3647 0.0
H1346 H 0.10374 0.49408 0.33862 0.0
C1347 C 0.08929 0.43696 0.34583 0.0
C1348 C 0.11482 0.46348 0.36989 0.0
C1349 C 0.08678 0.42124 0.34222 0.0
C1350 C 0.14583 0.52276 0.3637 0.0
C1351 C 0.13896 0.50792 0.36361 0.0
C1352 C 0.10664 0.48568 0.34755 0.0
C1353 C 0.10333 0.44196 0.35327 0.0
C1354 C 0.10651 0.45875 0.35637 0.0
C1355 C 0.1226 0.506 0.36166 0.0
C1356 C 0.11572 0.49014 0.36061 0.0
H1357 H 0.12113 0.40686 0.35684 0.0
H1358 H 0.12579 0.43427 0.36263 0.0
H1359 H 0.0959 0.46686 0.33478 0.0
H1360 H 0.11251 0.54414 0.35916 0.0
H1361 H 0.10049 0.51793 0.3585 0.0
C1362 C 0.39391 0.56289 0.82641 0.0
C1363 C 0.38303 0.57169 0.83488 0.0
C1364 C 0.39337 0.54665 0.82696 0.0
C1365 C 0.39436 0.51249 0.83667 0.0
H1366 H 0.35285 0.49288 0.83512 0.0
C1367 C 0.38132 0.44735 0.85044 0.0
C1368 C 0.36851 0.44028 0.84255 0.0
C1369 C 0.38514 0.46303 0.84771 0.0
C1370 C 0.36456 0.49813 0.83533 0.0
H1371 H 0.36334 0.57042 0.85087 0.0
H1372 H 0.36251 0.54208 0.85198 0.0
H1373 H 0.35521 0.52103 0.83442 0.0
H1374 H 0.35071 0.44329 0.8246 0.0
H1375 H 0.35771 0.47037 0.81939 0.0
H1376 H 0.40365 0.48941 0.83737 0.0
C1377 C 0.37128 0.54772 0.8447 0.0
C1378 C 0.36589 0.5143 0.83519 0.0
C1379 C 0.37179 0.56395 0.84412 0.0
C1380 C 0.36051 0.4486 0.83097 0.0
C1381 C 0.36445 0.46411 0.82809 0.0
C1382 C 0.39302 0.49622 0.83678 0.0
C1383 C 0.38196 0.5389 0.836 0.0
C1384 C 0.38077 0.52167 0.83597 0.0
C1385 C 0.37628 0.47171 0.83695 0.0
C1386 C 0.37809 0.48889 0.83612 0.0
H1387 H 0.40273 0.56855 0.81919 0.0
H1388 H 0.40165 0.54016 0.82002 0.0
H1389 H 0.40599 0.51786 0.83738 0.0
H1390 H 0.38763 0.44114 0.85945 0.0
H1391 H 0.3943 0.46856 0.85473 0.0
C1392 C 0.84704 0.64682 0.61404 0.0
C1393 C 0.85213 0.64819 0.62963 0.0
C1394 C 0.83853 0.65878 0.60704 0.0
C1395 C 0.81866 0.69644 0.61449 0.0
H1396 H 0.84323 0.71062 0.57915 0.0
C1397 C 0.83268 0.76028 0.60327 0.0
C1398 C 0.83654 0.76549 0.58824 0.0
C1399 C 0.82821 0.74479 0.60576 0.0
C1400 C 0.83584 0.70675 0.58868 0.0
H1401 H 0.85093 0.66231 0.65058 0.0
H1402 H 0.83614 0.68313 0.63842 0.0
H1403 H 0.84623 0.68428 0.58856 0.0
H1404 H 0.8374 0.75892 0.56382 0.0
H1405 H 0.82933 0.73185 0.56814 0.0
H1406 H 0.80884 0.71924 0.61503 0.0
C1407 C 0.83869 0.67288 0.63155 0.0
C1408 C 0.83759 0.69157 0.59411 0.0
C1409 C 0.84729 0.661 0.6385 0.0
C1410 C 0.83469 0.75519 0.57557 0.0
C1411 C 0.83011 0.73967 0.57806 0.0
C1412 C 0.81681 0.71161 0.60897 0.0
C1413 C 0.83484 0.67222 0.61558 0.0
C1414 C 0.82961 0.68652 0.60753 0.0
C1415 C 0.82738 0.73416 0.59327 0.0
C1416 C 0.82601 0.71719 0.59651 0.0
H1417 H 0.8505 0.63701 0.60693 0.0
H1418 H 0.83558 0.6579 0.59475 0.0
H1419 H 0.81218 0.69275 0.62472 0.0
H1420 H 0.83389 0.76795 0.61327 0.0
H1421 H 0.82641 0.74099 0.61766 0.0
C1422 C 0.93722 0.14148 0.34901 0.0
C1423 C 0.92919 0.13247 0.36019 0.0
C1424 C 0.95327 0.14497 0.35085 0.0
C1425 C 0.98864 0.14035 0.35217 0.0
H1426 H 0.00726 0.15014 0.39253 0.0
C1427 C 0.05556 0.13684 0.3648 0.0
C1428 C 0.06229 0.14821 0.37471 0.0
C1429 C 0.03923 0.13617 0.36238 0.0
C1430 C 0.00223 0.14758 0.38114 0.0
H1431 H 0.93159 0.12053 0.38236 0.0
H1432 H 0.95961 0.1265 0.38547 0.0
H1433 H 0.9787 0.14747 0.39 0.0
H1434 H 0.05734 0.16817 0.38936 0.0
H1435 H 0.02895 0.16714 0.38494 0.0
H1436 H 0.01218 0.1406 0.34329 0.0
C1437 C 0.95347 0.13098 0.37535 0.0
C1438 C 0.98588 0.14589 0.37973 0.0
C1439 C 0.93741 0.12751 0.37353 0.0
C1440 C 0.05248 0.15918 0.38176 0.0
C1441 C 0.0362 0.15854 0.3793 0.0
C1442 C 0.005 0.14206 0.35358 0.0
C1443 C 0.96163 0.13952 0.3639 0.0
C1444 C 0.97891 0.14214 0.36526 0.0
C1445 C 0.02937 0.14689 0.36979 0.0
C1446 C 0.01197 0.1456 0.3681 0.0
H1447 H 0.93122 0.14557 0.33864 0.0
H1448 H 0.95918 0.1518 0.34197 0.0
H1449 H 0.98363 0.13728 0.34089 0.0
H1450 H 0.06284 0.12822 0.35923 0.0
H1451 H 0.0343 0.12696 0.35509 0.0
C1452 C 0.63934 0.21222 0.09992 0.0
C1453 C 0.6357 0.20657 0.08492 0.0
C1454 C 0.64388 0.22774 0.10216 0.0
C1455 C 0.63767 0.26558 0.084 0.0
H1456 H 0.66225 0.27984 0.11978 0.0
C1457 C 0.6304 0.3273 0.10663 0.0
C1458 C 0.6253 0.32705 0.1222 0.0
C1459 C 0.63807 0.31448 0.10031 0.0
C1460 C 0.65551 0.27607 0.10963 0.0
H1461 H 0.63505 0.21244 0.06034 0.0
H1462 H 0.64322 0.23961 0.06422 0.0
H1463 H 0.66413 0.25283 0.11108 0.0
H1464 H 0.62569 0.31395 0.14379 0.0
H1465 H 0.63903 0.29163 0.1328 0.0
H1466 H 0.62852 0.28857 0.08294 0.0
C1467 C 0.64225 0.23209 0.0743 0.0
C1468 C 0.65652 0.26059 0.10468 0.0
C1469 C 0.63761 0.21652 0.07207 0.0
C1470 C 0.62936 0.31442 0.13171 0.0
C1471 C 0.63712 0.30167 0.12543 0.0
C1472 C 0.63677 0.28105 0.08886 0.0
C1473 C 0.64501 0.23799 0.08943 0.0
C1474 C 0.64702 0.25499 0.09228 0.0
C1475 C 0.64089 0.30126 0.10949 0.0
C1476 C 0.64512 0.28626 0.10215 0.0
H1477 H 0.63806 0.20483 0.11007 0.0
H1478 H 0.64565 0.23187 0.114 0.0
H1479 H 0.63007 0.2617 0.07451 0.0
H1480 H 0.62753 0.33692 0.09903 0.0
H1481 H 0.641 0.31454 0.08803 0.0
C1482 C 0.41665 0.84115 0.86419 0.0
C1483 C 0.41215 0.83575 0.87899 0.0
C1484 C 0.43265 0.84332 0.86067 0.0
C1485 C 0.47026 0.85299 0.87826 0.0
H1486 H 0.49 0.82952 0.84522 0.0
C1487 C 0.53766 0.85222 0.87265 0.0
C1488 C 0.54413 0.85194 0.85763 0.0
C1489 C 0.52146 0.84998 0.87473 0.0
C1490 C 0.48467 0.83639 0.85432 0.0
H1491 H 0.42074 0.82861 0.90176 0.0
H1492 H 0.44854 0.83287 0.89572 0.0
H1493 H 0.46154 0.82705 0.84918 0.0
H1494 H 0.53878 0.84902 0.83301 0.0
H1495 H 0.51047 0.84573 0.83654 0.0
H1496 H 0.49306 0.86272 0.88326 0.0
C1497 C 0.43974 0.83521 0.88683 0.0
C1498 C 0.46839 0.83491 0.85657 0.0
C1499 C 0.42386 0.83271 0.89022 0.0
C1500 C 0.53413 0.84915 0.84475 0.0
C1501 C 0.51789 0.84721 0.8468 0.0
C1502 C 0.48645 0.85471 0.87584 0.0
C1503 C 0.44426 0.84049 0.87204 0.0
C1504 C 0.46114 0.84304 0.8687 0.0
C1505 C 0.51131 0.84773 0.86181 0.0
C1506 C 0.49393 0.84624 0.86399 0.0
H1507 H 0.40784 0.84354 0.85533 0.0
H1508 H 0.43595 0.84744 0.84919 0.0
H1509 H 0.46483 0.85944 0.88763 0.0
H1510 H 0.54512 0.85421 0.8828 0.0
H1511 H 0.51692 0.85004 0.8865 0.0
C1512 C 0.85209 0.20348 0.86079 0.0
C1513 C 0.85693 0.19901 0.87582 0.0
C1514 C 0.85186 0.21917 0.85664 0.0
C1515 C 0.85131 0.25909 0.8724 0.0
H1516 H 0.87049 0.26976 0.83284 0.0
C1517 C 0.86954 0.32195 0.85483 0.0
C1518 C 0.86888 0.32583 0.83892 0.0
C1519 C 0.86568 0.30684 0.85972 0.0
C1520 C 0.8648 0.267 0.84379 0.0
H1521 H 0.86498 0.20758 0.89841 0.0
H1522 H 0.86464 0.23504 0.89108 0.0
H1523 H 0.86856 0.24266 0.84066 0.0
H1524 H 0.86237 0.31738 0.81586 0.0
H1525 H 0.85518 0.29125 0.82441 0.0
H1526 H 0.84764 0.28353 0.87554 0.0
C1527 C 0.86094 0.22635 0.88257 0.0
C1528 C 0.86376 0.25145 0.84829 0.0
C1529 C 0.86125 0.21063 0.88672 0.0
C1530 C 0.86324 0.31466 0.82817 0.0
C1531 C 0.85921 0.29966 0.83306 0.0
C1532 C 0.85227 0.27471 0.86785 0.0
C1533 C 0.85641 0.23076 0.86744 0.0
C1534 C 0.85706 0.24732 0.86265 0.0
C1535 C 0.86095 0.2954 0.8488 0.0
C1536 C 0.85908 0.27884 0.8535 0.0
H1537 H 0.8486 0.19486 0.85213 0.0
H1538 H 0.84813 0.22224 0.84495 0.0
H1539 H 0.84596 0.25621 0.88349 0.0
H1540 H 0.87388 0.33032 0.86338 0.0
H1541 H 0.86722 0.30394 0.87191 0.0
C1542 C 0.40816 0.09631 0.61511 0.0
C1543 C 0.40044 0.10581 0.62589 0.0
C1544 C 0.42371 0.09183 0.61783 0.0
C1545 C 0.45697 0.09506 0.64718 0.0
H1546 H 0.48214 0.09686 0.60966 0.0
C1547 C 0.5248 0.1008 0.65074 0.0
C1548 C 0.53195 0.11055 0.63964 0.0
C1549 C 0.50901 0.0961 0.64897 0.0
C1550 C 0.47533 0.09649 0.6203 0.0
H1551 H 0.40251 0.11746 0.64825 0.0
H1552 H 0.42979 0.1106 0.65259 0.0
H1553 H 0.45375 0.09594 0.60749 0.0
H1554 H 0.52838 0.12303 0.61802 0.0
H1555 H 0.50072 0.11573 0.61537 0.0
H1556 H 0.47857 0.09723 0.65998 0.0
C1557 C 0.42387 0.10598 0.6423 0.0
C1558 C 0.45893 0.0956 0.61906 0.0
C1559 C 0.40819 0.11006 0.63979 0.0
C1560 C 0.52315 0.11542 0.6267 0.0
C1561 C 0.5073 0.11106 0.62512 0.0
C1562 C 0.47338 0.0964 0.64843 0.0
C1563 C 0.43203 0.09721 0.63112 0.0
C1564 C 0.44946 0.09536 0.63249 0.0
C1565 C 0.49996 0.10136 0.63625 0.0
C1566 C 0.48276 0.09764 0.63499 0.0
H1567 H 0.40231 0.09272 0.60438 0.0
H1568 H 0.42935 0.08464 0.60918 0.0
H1569 H 0.45018 0.0944 0.65781 0.0
H1570 H 0.53142 0.09674 0.66075 0.0
H1571 H 0.50394 0.0884 0.65763 0.0
C1572 C 0.61522 0.78069 0.38788 0.0
C1573 C 0.62012 0.79215 0.37718 0.0
C1574 C 0.61397 0.76507 0.38331 0.0
C1575 C 0.60703 0.74107 0.34878 0.0
H1576 H 0.62373 0.70732 0.37356 0.0
C1577 C 0.60411 0.6783 0.32616 0.0
C1578 C 0.59999 0.6666 0.33688 0.0
C1579 C 0.6081 0.69327 0.33132 0.0
C1580 C 0.61885 0.7166 0.36659 0.0
H1581 H 0.62776 0.79614 0.35337 0.0
H1582 H 0.62541 0.76896 0.34543 0.0
H1583 H 0.62747 0.73423 0.3824 0.0
H1584 H 0.59727 0.66131 0.36145 0.0
H1585 H 0.60378 0.68759 0.37045 0.0
H1586 H 0.59799 0.72364 0.3332 0.0
C1587 C 0.62252 0.77208 0.35732 0.0
C1588 C 0.62103 0.73198 0.37165 0.0
C1589 C 0.62393 0.78763 0.36191 0.0
C1590 C 0.60043 0.67007 0.35291 0.0
C1591 C 0.60424 0.68513 0.35807 0.0
C1592 C 0.60471 0.72573 0.34381 0.0
C1593 C 0.61742 0.76067 0.36793 0.0
C1594 C 0.61518 0.74435 0.36274 0.0
C1595 C 0.60786 0.69698 0.34731 0.0
C1596 C 0.61063 0.71329 0.35261 0.0
H1597 H 0.61225 0.78378 0.39975 0.0
H1598 H 0.60991 0.7565 0.39169 0.0
H1599 H 0.60217 0.75039 0.34182 0.0
H1600 H 0.60408 0.67593 0.31374 0.0
H1601 H 0.61122 0.702 0.32273 0.0
C1602 C 0.06638 0.88153 0.11305 0.0
C1603 C 0.07857 0.87755 0.12343 0.0
C1604 C 0.05174 0.886 0.11868 0.0
C1605 C 0.02624 0.87854 0.15166 0.0
H1606 H -0.0007 0.90813 0.13073 0.0
C1607 C 0.95935 0.87931 0.16282 0.0
C1608 C 0.95028 0.87892 0.14903 0.0
C1609 C 0.97544 0.88317 0.16234 0.0
C1610 C 0.00669 0.89986 0.13674 0.0
H1611 H 0.08522 0.87593 0.14787 0.0
H1612 H 0.05948 0.88364 0.1577 0.0
H1613 H 0.02749 0.90797 0.12504 0.0
H1614 H 0.95074 0.88296 0.12406 0.0
H1615 H 0.97871 0.88946 0.12319 0.0
H1616 H 0.00538 0.86986 0.16274 0.0
C1617 C 0.06131 0.88323 0.14521 0.0
C1618 C 0.02282 0.89979 0.1335 0.0
C1619 C 0.07604 0.87887 0.13957 0.0
C1620 C 0.95743 0.88309 0.13488 0.0
C1621 C 0.97345 0.88698 0.13441 0.0
C1622 C 0.01012 0.87858 0.15488 0.0
C1623 C 0.04891 0.8865 0.13481 0.0
C1624 C 0.03264 0.88876 0.14051 0.0
C1625 C 0.98271 0.88678 0.14807 0.0
C1626 C 8e-05 0.88885 0.14701 0.0
H1627 H 0.06798 0.88073 0.10055 0.0
H1628 H 0.04237 0.88827 0.11036 0.0
H1629 H 0.03348 0.8698 0.15714 0.0
H1630 H 0.95414 0.87623 0.17391 0.0
H1631 H 0.98226 0.88304 0.17307 0.0
C1632 C 0.64556 0.87347 0.67421 0.0
C1633 C 0.63467 0.87426 0.66181 0.0
C1634 C 0.64148 0.86593 0.68805 0.0
C1635 C 0.60673 0.85731 0.71131 0.0
H1636 H 0.63631 0.83468 0.73707 0.0
C1637 C 0.59205 0.84279 0.77489 0.0
C1638 C 0.60412 0.84682 0.78554 0.0
C1639 C 0.59525 0.8417 0.75895 0.0
C1640 C 0.62791 0.84097 0.73001 0.0
H1641 H 0.61128 0.86711 0.65388 0.0
H1642 H 0.60416 0.85397 0.67812 0.0
H1643 H 0.6431 0.84095 0.71013 0.0
H1644 H 0.62916 0.852 0.788 0.0
H1645 H 0.63468 0.85042 0.76028 0.0
H1646 H 0.59186 0.85805 0.73128 0.0
C1647 C 0.61578 0.85929 0.67715 0.0
C1648 C 0.63179 0.84453 0.7146 0.0
C1649 C 0.61988 0.86678 0.66327 0.0
C1650 C 0.61959 0.84892 0.78007 0.0
C1651 C 0.62278 0.84789 0.76416 0.0
C1652 C 0.60288 0.85381 0.72672 0.0
C1653 C 0.62643 0.85907 0.68979 0.0
C1654 C 0.62142 0.85311 0.70523 0.0
C1655 C 0.61058 0.84466 0.75337 0.0
C1656 C 0.61361 0.84599 0.73638 0.0
H1657 H 0.65707 0.87908 0.67341 0.0
H1658 H 0.64988 0.86612 0.69764 0.0
H1659 H 0.59856 0.8641 0.70445 0.0
H1660 H 0.58003 0.84097 0.77878 0.0
H1661 H 0.58564 0.83896 0.75096 0.0
C1662 C 0.88229 0.85094 0.53274 0.0
C1663 C 0.87306 0.83788 0.53693 0.0
C1664 C 0.88388 0.85517 0.51714 0.0
C1665 C 0.87929 0.84125 0.47659 0.0
H1666 H 0.87289 0.88499 0.46799 0.0
C1667 C 0.86389 0.86617 0.4157 0.0
C1668 C 0.86834 0.88168 0.41263 0.0
C1669 C 0.8677 0.8594 0.43004 0.0
C1670 C 0.87508 0.87279 0.47014 0.0
H1671 H 0.85859 0.81875 0.52791 0.0
H1672 H 0.86125 0.82629 0.50056 0.0
H1673 H 0.87284 0.87595 0.49472 0.0
H1674 H 0.88173 0.90166 0.42121 0.0
H1675 H 0.889 0.88966 0.44588 0.0
H1676 H 0.88131 0.83812 0.45186 0.0
C1677 C 0.86735 0.83316 0.50942 0.0
C1678 C 0.87496 0.8676 0.48551 0.0
C1679 C 0.86573 0.82892 0.52509 0.0
C1680 C 0.87797 0.88975 0.42341 0.0
C1681 C 0.88201 0.88291 0.43758 0.0
C1682 C 0.87949 0.84647 0.46113 0.0
C1683 C 0.87628 0.84644 0.50533 0.0
C1684 C 0.87699 0.85178 0.48892 0.0
C1685 C 0.8762 0.86798 0.44141 0.0
C1686 C 0.87731 0.86232 0.45774 0.0
H1687 H 0.88822 0.85804 0.54153 0.0
H1688 H 0.891 0.86535 0.51431 0.0
H1689 H 0.881 0.82899 0.47891 0.0
H1690 H 0.85639 0.85972 0.40758 0.0
H1691 H 0.86302 0.84789 0.4326 0.0
C1692 C 0.82926 0.10518 0.1747 0.0
C1693 C 0.83923 0.10219 0.16205 0.0
C1694 C 0.83509 0.11268 0.18802 0.0
C1695 C 0.87121 0.11754 0.21048 0.0
H1696 H 0.84577 0.1459 0.23456 0.0
C1697 C 0.88688 0.13229 0.27422 0.0
C1698 C 0.8741 0.13002 0.28438 0.0
C1699 C 0.88433 0.13335 0.25813 0.0
C1700 C 0.85305 0.13805 0.22794 0.0
H1701 H 0.86306 0.10516 0.15329 0.0
H1702 H 0.8733 0.11815 0.17679 0.0
H1703 H 0.8381 0.13946 0.20777 0.0
H1704 H 0.84861 0.12793 0.28577 0.0
H1705 H 0.84417 0.1296 0.2578 0.0
H1706 H 0.88569 0.11545 0.23086 0.0
C1707 C 0.86097 0.11465 0.1763 0.0
C1708 C 0.84867 0.13438 0.21262 0.0
C1709 C 0.85509 0.10724 0.16287 0.0
C1710 C 0.8587 0.12961 0.27823 0.0
C1711 C 0.85615 0.13071 0.2622 0.0
C1712 C 0.87558 0.12118 0.22581 0.0
C1713 C 0.85103 0.11731 0.18906 0.0
C1714 C 0.85737 0.12363 0.20396 0.0
C1715 C 0.86895 0.13224 0.25194 0.0
C1716 C 0.86619 0.131 0.23488 0.0
H1717 H 0.81696 0.10154 0.17442 0.0
H1718 H 0.8272 0.11434 0.19776 0.0
H1719 H 0.87808 0.10913 0.20412 0.0
H1720 H 0.89889 0.13275 0.27864 0.0
H1721 H 0.8944 0.13466 0.25051 0.0
C1722 C 0.6157 0.07373 0.92269 0.0
C1723 C 0.61977 0.08447 0.911 0.0
C1724 C 0.61174 0.07888 0.93759 0.0
C1725 C 0.6021 0.1142 0.96085 0.0
H1726 H 0.6209 0.09058 -0.00549 0.0
C1727 C 0.61191 0.13818 0.0234 0.0
C1728 C 0.60779 0.12816 0.03572 0.0
C1729 C 0.61166 0.13278 0.00801 0.0
C1730 C 0.61543 0.0972 0.98525 0.0
H1731 H 0.62218 0.10904 0.90555 0.0
H1732 H 0.61575 0.11801 0.93164 0.0
H1733 H 0.62289 0.08118 0.96784 0.0
H1734 H 0.6001 0.10465 0.04152 0.0
H1735 H 0.59986 0.09523 0.01468 0.0
H1736 H 0.59519 0.13051 0.9784 0.0
C1737 C 0.6153 0.10562 0.92927 0.0
C1738 C 0.61648 0.09178 0.96995 0.0
C1739 C 0.61907 0.10047 0.9143 0.0
C1740 C 0.60336 0.11267 0.03231 0.0
C1741 C 0.60326 0.10724 0.01696 0.0
C1742 C 0.6012 0.1197 0.97617 0.0
C1743 C 0.61197 0.09487 0.9412 0.0
C1744 C 0.6099 0.10024 0.95754 0.0
C1745 C 0.60744 0.11723 0.00468 0.0
C1746 C 0.60792 0.11127 0.98849 0.0
H1747 H 0.61594 0.06131 0.92044 0.0
H1748 H 0.60884 0.07028 0.94639 0.0
H1749 H 0.59671 0.1209 0.9516 0.0
H1750 H 0.61533 0.1502 0.02564 0.0
H1751 H 0.61507 0.14067 -0.00126 0.0
C1752 C 0.61443 0.12239 0.8189 0.0
C1753 C 0.62979 0.11726 0.822 0.0
C1754 C 0.6107 0.12883 0.80441 0.0
C1755 C 0.62705 0.14377 0.76728 0.0
H1756 H 0.59302 0.11928 0.74855 0.0
C1757 C 0.62068 0.13552 0.70081 0.0
C1758 C 0.6055 0.13366 0.69432 0.0
C1759 C 0.62273 0.13661 0.71697 0.0
C1760 C 0.60231 0.12653 0.7536 0.0
H1761 H 0.65364 0.11628 0.81305 0.0
H1762 H 0.64714 0.12758 0.78782 0.0
H1763 H 0.59809 0.11734 0.77635 0.0
H1764 H 0.58052 0.13211 0.69958 0.0
H1765 H 0.58404 0.13446 0.72767 0.0
H1766 H 0.63142 0.15278 0.74443 0.0
C1767 C 0.63796 0.12657 0.79651 0.0
C1768 C 0.60521 0.12541 0.76958 0.0
C1769 C 0.64166 0.12001 0.81093 0.0
C1770 C 0.5924 0.1333 0.70425 0.0
C1771 C 0.59442 0.13461 0.72037 0.0
C1772 C 0.62404 0.14504 0.75128 0.0
C1773 C 0.62231 0.13039 0.79287 0.0
C1774 C 0.61783 0.13374 0.77652 0.0
C1775 C 0.60963 0.13607 0.72696 0.0
C1776 C 0.61186 0.13613 0.74418 0.0
H1777 H 0.60505 0.12049 0.82723 0.0
H1778 H 0.59858 0.13186 0.80194 0.0
H1779 H 0.6368 0.15038 0.77238 0.0
H1780 H 0.63101 0.13582 0.69344 0.0
H1781 H 0.63463 0.13745 0.72162 0.0
C1782 C 0.5992 0.83424 0.46431 0.0
C1783 C 0.59897 0.8462 0.45317 0.0
C1784 C 0.5971 0.83764 0.48012 0.0
C1785 C 0.58665 0.86965 0.50777 0.0
H1786 H 0.61952 0.85164 0.53336 0.0
C1787 C 0.61771 0.90151 0.55839 0.0
C1788 C 0.62204 0.89309 0.57174 0.0
C1789 C 0.61041 0.89396 0.54576 0.0
C1790 C 0.61004 0.85655 0.52651 0.0
H1791 H 0.59527 0.87089 0.44968 0.0
H1792 H 0.59204 0.87687 0.47709 0.0
H1793 H 0.61426 0.84116 0.50747 0.0
H1794 H 0.62152 0.87027 0.58258 0.0
H1795 H 0.609 0.85705 0.56033 0.0
H1796 H 0.58325 0.88574 0.52656 0.0
C1797 C 0.59359 0.86483 0.47375 0.0
C1798 C 0.60697 0.85051 0.51165 0.0
C1799 C 0.5956 0.86142 0.45799 0.0
C1800 C 0.61838 0.87707 0.57243 0.0
C1801 C 0.61123 0.86949 0.55971 0.0
C1802 C 0.58984 0.87579 0.52259 0.0
C1803 C 0.5948 0.85307 0.48507 0.0
C1804 C 0.59563 0.85735 0.50187 0.0
C1805 C 0.60742 0.87783 0.54616 0.0
C1806 C 0.60193 0.86962 0.53187 0.0
H1807 H 0.60162 0.82236 0.46092 0.0
H1808 H 0.59783 0.82827 0.48852 0.0
H1809 H 0.57759 0.87497 0.50068 0.0
H1810 H 0.62027 0.91387 0.55753 0.0
H1811 H 0.60777 0.90065 0.53539 0.0
C1812 C 0.82833 0.87504 0.30953 0.0
C1813 C 0.84048 0.87076 0.31984 0.0
C1814 C 0.82919 0.87138 0.2937 0.0
C1815 C 0.84915 0.84787 0.26403 0.0
H1816 H 0.84591 0.8851 0.23869 0.0
C1817 C 0.85572 0.84868 0.19653 0.0
C1818 C 0.86698 0.8596 0.19121 0.0
C1819 C 0.85072 0.84896 0.21204 0.0
C1820 C 0.84675 0.8746 0.24562 0.0
H1821 H 0.8624 0.8582 0.32188 0.0
H1822 H 0.86383 0.85171 0.29414 0.0
H1823 H 0.83974 0.88629 0.26643 0.0
H1824 H 0.88156 0.87958 0.19782 0.0
H1825 H 0.87254 0.88027 0.22478 0.0
H1826 H 0.85645 0.83629 0.24313 0.0
C1827 C 0.85369 0.85794 0.29835 0.0
C1828 C 0.84311 0.87523 0.26144 0.0
C1829 C 0.85289 0.8617 0.31421 0.0
C1830 C 0.87289 0.871 0.20158 0.0
C1831 C 0.86769 0.87144 0.21698 0.0
C1832 C 0.85258 0.84718 0.2481 0.0
C1833 C 0.84214 0.86326 0.28788 0.0
C1834 C 0.84451 0.86194 0.27085 0.0
C1835 C 0.85668 0.86035 0.22237 0.0
C1836 C 0.85168 0.86063 0.23885 0.0
H1837 H 0.81854 0.88192 0.31352 0.0
H1838 H 0.82003 0.87543 0.28589 0.0
H1839 H 0.8503 0.83747 0.27105 0.0
H1840 H 0.85102 0.8397 0.18882 0.0
H1841 H 0.84217 0.84033 0.21594 0.0
C1842 C 0.88073 0.12921 0.95671 0.0
C1843 C 0.87778 0.14453 0.95196 0.0
C1844 C 0.88346 0.12582 0.97237 0.0
C1845 C 0.87413 0.14104 0.01117 0.0
H1846 H 0.89807 0.10522 0.02443 0.0
C1847 C 0.86822 0.11653 0.07304 0.0
C1848 C 0.8633 0.10081 0.07285 0.0
C1849 C 0.87469 0.12336 0.05971 0.0
C1850 C 0.89146 0.11534 0.02091 0.0
H1851 H 0.87633 0.1685 0.95977 0.0
H1852 H 0.88143 0.16263 0.98721 0.0
H1853 H 0.90128 0.1153 -0.002 0.0
H1854 H 0.86237 0.07964 0.05902 0.0
H1855 H 0.8738 0.09153 0.0358 0.0
H1856 H 0.86405 0.14083 0.03396 0.0
C1857 C 0.88128 0.15317 0.97883 0.0
C1858 C 0.89322 0.12107 0.00577 0.0
C1859 C 0.87841 0.15655 0.96311 0.0
C1860 C 0.86597 0.09179 0.05947 0.0
C1861 C 0.87262 0.09857 0.04622 0.0
C1862 C 0.87253 0.13542 0.02635 0.0
C1863 C 0.88346 0.1377 0.98369 0.0
C1864 C 0.88409 0.1336 0.00053 0.0
C1865 C 0.87657 0.11453 0.04606 0.0
C1866 C 0.88074 0.12218 0.03117 0.0
H1867 H 0.88035 0.11968 0.9484 0.0
H1868 H 0.88482 0.11374 0.97565 0.0
H1869 H 0.86677 0.15058 0.00754 0.0
H1870 H 0.86636 0.12377 0.08321 0.0
H1871 H 0.87774 0.13566 0.0599 0.0
C1872 C 0.76904 0.57812 0.86175 0.0
C1873 C 0.77835 0.59181 0.86171 0.0
C1874 C 0.75282 0.57873 0.85875 0.0
C1875 C 0.72144 0.60445 0.8434 0.0
H1876 H 0.69496 0.5828 0.87332 0.0
C1877 C 0.66092 0.62581 0.86205 0.0
C1878 C 0.64882 0.61496 0.86535 0.0
C1879 C 0.67587 0.62081 0.85785 0.0
C1880 C 0.70213 0.58865 0.86464 0.0
H1881 H 0.7781 0.61679 0.85799 0.0
H1882 H 0.74987 0.61789 0.85304 0.0
H1883 H 0.72317 0.5779 0.87289 0.0
H1884 H 0.64272 0.59034 0.86621 0.0
H1885 H 0.66904 0.58158 0.85901 0.0
H1886 H 0.70045 0.61577 0.83571 0.0
C1887 C 0.75506 0.60664 0.85514 0.0
C1888 C 0.71832 0.58585 0.86439 0.0
C1889 C 0.77124 0.60603 0.85813 0.0
C1890 C 0.65182 0.59898 0.86376 0.0
C1891 C 0.66687 0.59396 0.8597 0.0
C1892 C 0.70527 0.6073 0.8437 0.0
C1893 C 0.74562 0.59303 0.85563 0.0
C1894 C 0.72822 0.59409 0.85411 0.0
C1895 C 0.67911 0.60485 0.85696 0.0
C1896 C 0.69555 0.59979 0.85465 0.0
H1897 H 0.77422 0.56697 0.86437 0.0
H1898 H 0.74589 0.56802 0.85905 0.0
H1899 H 0.72872 0.61074 0.83512 0.0
H1900 H 0.65897 0.63821 0.86307 0.0
H1901 H 0.6851 0.62948 0.856 0.0
C1902 C 0.28883 0.88105 0.09131 0.0
C1903 C 0.2963 0.87057 0.10143 0.0
C1904 C 0.2727 0.87959 0.08817 0.0
C1905 C 0.2374 0.88042 0.09286 0.0
H1906 H 0.21657 0.84023 0.08735 0.0
C1907 C 0.16984 0.87208 0.09621 0.0
C1908 C 0.16269 0.86151 0.0857 0.0
C1909 C 0.18626 0.87343 0.09716 0.0
C1910 C 0.22223 0.85156 0.08871 0.0
H1911 H 0.29278 0.85006 0.11581 0.0
H1912 H 0.26457 0.84764 0.11047 0.0
H1913 H 0.24521 0.84166 0.09014 0.0
H1914 H 0.16708 0.84441 0.06763 0.0
H1915 H 0.19571 0.84695 0.06912 0.0
H1916 H 0.21446 0.89035 0.09123 0.0
C1917 C 0.27123 0.85688 0.10484 0.0
C1918 C 0.23861 0.85235 0.09049 0.0
C1919 C 0.28739 0.85831 0.10795 0.0
C1920 C 0.17225 0.85259 0.07592 0.0
C1921 C 0.18866 0.85397 0.07683 0.0
C1922 C 0.22103 0.87963 0.09107 0.0
C1923 C 0.26368 0.86765 0.0951 0.0
C1924 C 0.24636 0.86679 0.09265 0.0
C1925 C 0.19584 0.86428 0.08758 0.0
C1926 C 0.21326 0.86519 0.08905 0.0
H1927 H 0.29538 0.89056 0.08599 0.0
H1928 H 0.26727 0.88789 0.08039 0.0
H1929 H 0.24301 0.89171 0.0947 0.0
H1930 H 0.16276 0.87907 0.10393 0.0
H1931 H 0.19145 0.88136 0.10567 0.0
C1932 C 0.87398 0.54121 0.88324 0.0
C1933 C 0.85838 0.54565 0.88006 0.0
C1934 C 0.8778 0.52546 0.8842 0.0
C1935 C 0.86059 0.4863 0.89041 0.0
H1936 H 0.89595 0.47231 0.86593 0.0
C1937 C 0.86759 0.42288 0.87006 0.0
C1938 C 0.88279 0.41741 0.86703 0.0
C1939 C 0.86553 0.4381 0.87537 0.0
C1940 C 0.88627 0.47599 0.87316 0.0
H1941 H 0.83454 0.53701 0.8756 0.0
H1942 H 0.84125 0.50959 0.87727 0.0
H1943 H 0.89068 0.49997 0.86777 0.0
H1944 H 0.9078 0.42294 0.86864 0.0
H1945 H 0.90426 0.44929 0.87847 0.0
H1946 H 0.85605 0.46229 0.89566 0.0
C1947 C 0.85048 0.51829 0.87912 0.0
C1948 C 0.88321 0.49188 0.87414 0.0
C1949 C 0.84668 0.53401 0.87801 0.0
C1950 C 0.89593 0.42694 0.87069 0.0
C1951 C 0.89389 0.44207 0.8762 0.0
C1952 C 0.86373 0.47039 0.88955 0.0
C1953 C 0.86608 0.51386 0.88216 0.0
C1954 C 0.87016 0.49716 0.88249 0.0
C1955 C 0.87865 0.44808 0.87793 0.0
C1956 C 0.87642 0.46501 0.88065 0.0
H1957 H 0.88326 0.54988 0.88492 0.0
H1958 H 0.88991 0.52236 0.88663 0.0
H1959 H 0.85057 0.4901 0.89711 0.0
H1960 H 0.85724 0.41579 0.86732 0.0
H1961 H 0.85362 0.44232 0.87648 0.0
C1962 C 0.18497 0.12634 0.60596 0.0
C1963 C 0.1779 0.11142 0.60599 0.0
C1964 C 0.2013 0.12808 0.60439 0.0
C1965 C 0.23776 0.10862 0.61283 0.0
H1966 H 0.25649 0.1356 0.5816 0.0
C1967 C 0.30501 0.11174 0.60348 0.0
C1968 C 0.31173 0.12618 0.5994 0.0
C1969 C 0.28863 0.10978 0.60399 0.0
C1970 C 0.25147 0.12822 0.59057 0.0
H1971 H 0.18233 0.08665 0.6043 0.0
H1972 H 0.21092 0.08973 0.60191 0.0
H1973 H 0.22784 0.13276 0.58294 0.0
H1974 H 0.30672 0.15002 0.59304 0.0
H1975 H 0.27821 0.14686 0.59459 0.0
H1976 H 0.2612 0.10445 0.62092 0.0
C1977 C 0.20377 0.10003 0.60298 0.0
C1978 C 0.23508 0.12654 0.59124 0.0
C1979 C 0.18744 0.09829 0.60426 0.0
C1980 C 0.30183 0.13871 0.59609 0.0
C1981 C 0.28548 0.13684 0.59686 0.0
C1982 C 0.25413 0.11049 0.61236 0.0
C1983 C 0.21082 0.11492 0.60311 0.0
C1984 C 0.22812 0.11669 0.60234 0.0
C1985 C 0.27865 0.12232 0.60068 0.0
C1986 C 0.26121 0.1203 0.60119 0.0
H1987 H 0.17791 0.13666 0.60723 0.0
H1988 H 0.20653 0.13967 0.60457 0.0
H1989 H 0.23259 0.10108 0.62161 0.0
H1990 H 0.3124 0.10186 0.60598 0.0
H1991 H 0.28382 0.09836 0.60672 0.0
C1992 C 0.13778 0.96022 0.87996 0.0
C1993 C 0.126 0.94851 0.87982 0.0
C1994 C 0.13378 0.97582 0.88193 0.0
C1995 C 0.1006 0.00141 0.87465 0.0
H1996 H 0.12599 0.0321 0.89719 0.0
C1997 C 0.08557 0.06571 0.87038 0.0
C1998 C 0.09842 0.07568 0.86713 0.0
C1999 C 0.08808 0.0507 0.87597 0.0
C2000 C 0.1188 0.02367 0.89082 0.0
H2001 H 0.10091 0.94386 0.88247 0.0
H2002 H 0.09397 0.97105 0.88598 0.0
H2003 H 0.13222 0.00447 0.89935 0.0
H2004 H 0.12391 0.07818 0.86815 0.0
H2005 H 0.12834 0.05184 0.87747 0.0
H2006 H 0.08759 0.02042 0.86556 0.0
C2007 C 0.10625 0.9682 0.88433 0.0
C2008 C 0.12237 0.00787 0.89207 0.0
C2009 C 0.11025 0.95263 0.88236 0.0
C2010 C 0.11377 0.07073 0.87053 0.0
C2011 C 0.1163 0.05564 0.87596 0.0
C2012 C 0.09709 0.01715 0.87334 0.0
C2013 C 0.11793 0.97999 0.8838 0.0
C2014 C 0.11342 -0.0034 0.88381 0.0
C2015 C 0.1035 0.04528 0.87824 0.0
C2016 C 0.10628 0.0285 0.88122 0.0
H2017 H 0.15003 0.95739 0.87808 0.0
H2018 H 0.14302 0.98466 0.88133 0.0
H2019 H 0.09366 -0.00695 0.86791 0.0
H2020 H 0.07358 0.0693 0.86806 0.0
H2021 H 0.07794 0.04315 0.87797 0.0
C2022 C 0.81519 0.37933 0.36859 0.0
C2023 C 0.81989 0.36376 0.36737 0.0
C2024 C 0.79934 0.38319 0.36645 0.0
C2025 C 0.76146 0.36877 0.35005 0.0
H2026 H 0.74256 0.39258 0.38336 0.0
C2027 C 0.69437 0.36925 0.35905 0.0
C2028 C 0.68744 0.38335 0.36337 0.0
C2029 C 0.71077 0.36792 0.35878 0.0
C2030 C 0.74767 0.38613 0.37383 0.0
H2031 H 0.81187 0.34016 0.36219 0.0
H2032 H 0.78436 0.34691 0.35834 0.0
H2033 H 0.77106 0.38904 0.38313 0.0
H2034 H 0.69232 0.40712 0.37091 0.0
H2035 H 0.7209 0.40485 0.37021 0.0
H2036 H 0.73812 0.36574 0.34077 0.0
C2037 C 0.79286 0.35613 0.36098 0.0
C2038 C 0.764 0.38413 0.3737 0.0
C2039 C 0.8086 0.35226 0.36328 0.0
C2040 C 0.69727 0.39605 0.3676 0.0
C2041 C 0.71367 0.39475 0.36725 0.0
C2042 C 0.74516 0.37085 0.35012 0.0
C2043 C 0.788 0.37157 0.36283 0.0
C2044 C 0.771 0.3752 0.36195 0.0
C2045 C 0.72061 0.3807 0.36273 0.0
C2046 C 0.73804 0.37931 0.36217 0.0
H2047 H 0.82362 0.38843 0.37175 0.0
H2048 H 0.7959 0.39521 0.36784 0.0
H2049 H 0.76659 0.36199 0.34076 0.0
H2050 H 0.68715 0.35921 0.35581 0.0
H2051 H 0.71573 0.35683 0.35556 0.0
C2052 C 0.88703 0.44424 0.60226 0.0
C2053 C 0.87446 0.43718 0.61031 0.0
C2054 C 0.88948 0.46035 0.60302 0.0
C2055 C 0.87023 0.49719 0.61529 0.0
H2056 H 0.9135 0.51232 0.61814 0.0
C2057 C 0.88527 0.56249 0.62439 0.0
C2058 C 0.89781 0.56592 0.63472 0.0
C2059 C 0.88251 0.54721 0.61924 0.0
C2060 C 0.90133 0.50829 0.61747 0.0
H2061 H 0.85461 0.44137 0.6255 0.0
H2062 H 0.85926 0.4693 0.62743 0.0
H2063 H 0.90826 0.48482 0.61369 0.0
H2064 H 0.91721 0.55603 0.64783 0.0
H2065 H 0.91209 0.52948 0.63937 0.0
H2066 H 0.86334 0.52052 0.62011 0.0
C2067 C 0.86695 0.46256 0.62008 0.0
C2068 C 0.89831 0.49252 0.61466 0.0
C2069 C 0.86435 0.44651 0.61909 0.0
C2070 C 0.90753 0.55381 0.63975 0.0
C2071 C 0.90466 0.53856 0.63479 0.0
C2072 C 0.87325 0.51294 0.61834 0.0
C2073 C 0.87957 0.4697 0.61208 0.0
C2074 C 0.88273 0.48671 0.61378 0.0
C2075 C 0.89212 0.53504 0.62447 0.0
C2076 C 0.88885 0.51863 0.61975 0.0
H2077 H 0.8949 0.43735 0.59524 0.0
H2078 H 0.89913 0.46545 0.59648 0.0
H2079 H 0.85807 0.4932 0.61436 0.0
H2080 H 0.87763 0.5716 0.62022 0.0
H2081 H 0.87287 0.54496 0.61114 0.0
C2082 C 0.63029 0.52613 0.1043 0.0
C2083 C 0.61899 0.53791 0.10483 0.0
C2084 C 0.62555 0.51045 0.1041 0.0
C2085 C 0.5925 0.48559 0.11646 0.0
H2086 H 0.61275 0.45368 0.09195 0.0
C2087 C 0.57143 0.42202 0.11973 0.0
C2088 C 0.58328 0.41086 0.1213 0.0
C2089 C 0.57525 0.43725 0.11533 0.0
C2090 C 0.60705 0.46246 0.09893 0.0
H2091 H 0.59389 0.54257 0.10482 0.0
H2092 H 0.58566 0.51528 0.10436 0.0
H2093 H 0.62064 0.481 0.08866 0.0
H2094 H 0.60835 0.40677 0.11883 0.0
H2095 H 0.61505 0.43343 0.11148 0.0
H2096 H 0.5792 0.46719 0.12704 0.0
C2097 C 0.59817 0.51813 0.10436 0.0
C2098 C 0.61156 0.47808 0.09703 0.0
C2099 C 0.60289 0.53375 0.10456 0.0
C2100 C 0.59894 0.4151 0.11774 0.0
C2101 C 0.60278 0.43036 0.11344 0.0
C2102 C 0.58803 0.47003 0.11839 0.0
C2103 C 0.60944 0.50631 0.10443 0.0
C2104 C 0.60436 0.48978 0.10583 0.0
C2105 C 0.59102 0.44169 0.11251 0.0
C2106 C 0.59529 0.45827 0.1097 0.0
H2107 H 0.64279 0.52899 0.10447 0.0
H2108 H 0.6345 0.50159 0.10427 0.0
H2109 H 0.58695 0.49431 0.12364 0.0
H2110 H 0.55922 0.4191 0.1222 0.0
H2111 H 0.56587 0.44563 0.11441 0.0
C2112 C 0.63525 0.70559 0.87262 0.0
C2113 C 0.63328 0.69803 0.88699 0.0
C2114 C 0.6389 0.72148 0.87212 0.0
C2115 C 0.63237 0.75641 0.89518 0.0
H2116 H 0.65607 0.77629 0.862 0.0
C2117 C 0.62631 0.82172 0.88316 0.0
C2118 C 0.62258 0.82487 0.86748 0.0
C2119 C 0.63251 0.80733 0.88739 0.0
C2120 C 0.64948 0.77091 0.87139 0.0
H2121 H 0.63465 0.70093 0.91213 0.0
H2122 H 0.6411 0.72871 0.91123 0.0
H2123 H 0.65837 0.74829 0.86619 0.0
H2124 H 0.6234 0.81578 0.84385 0.0
H2125 H 0.63397 0.79074 0.85122 0.0
H2126 H 0.62288 0.7788 0.89991 0.0
C2127 C 0.6396 0.72238 0.90036 0.0
C2128 C 0.65079 0.75489 0.87378 0.0
C2129 C 0.63594 0.70647 0.90086 0.0
C2130 C 0.62602 0.81369 0.85605 0.0
C2131 C 0.63225 0.79937 0.86026 0.0
C2132 C 0.63107 0.7724 0.89279 0.0
C2133 C 0.64068 0.73015 0.88598 0.0
C2134 C 0.6418 0.74739 0.88534 0.0
C2135 C 0.63517 0.79586 0.87601 0.0
C2136 C 0.63916 0.77972 0.8805 0.0
H2137 H 0.63333 0.69938 0.86173 0.0
H2138 H 0.63947 0.72713 0.86085 0.0
H2139 H 0.62515 0.75098 0.90408 0.0
H2140 H 0.6239 0.83013 0.89224 0.0
H2141 H 0.63479 0.805 0.8996 0.0
C2142 C 0.53165 0.33573 0.1321 0.0
C2143 C 0.54329 0.33798 0.1207 0.0
C2144 C 0.5163 0.33144 0.12784 0.0
C2145 C 0.48874 0.33256 0.0944 0.0
H2146 H 0.46268 0.30722 0.12176 0.0
C2147 C 0.4235 0.31643 0.08082 0.0
C2148 C 0.413 0.31991 0.09292 0.0
C2149 C 0.43978 0.31689 0.08349 0.0
C2150 C 0.46985 0.31431 0.11403 0.0
H2151 H 0.54813 0.33692 0.09593 0.0
H2152 H 0.52128 0.32898 0.08845 0.0
H2153 H 0.49083 0.31037 0.12731 0.0
H2154 H 0.41123 0.32627 0.11733 0.0
H2155 H 0.43973 0.32682 0.12204 0.0
H2156 H 0.46766 0.33637 0.0811 0.0
C2157 C 0.52397 0.3309 0.10068 0.0
C2158 C 0.48594 0.31617 0.11722 0.0
C2159 C 0.53937 0.33536 0.10495 0.0
C2160 C 0.41906 0.32356 0.1078 0.0
C2161 C 0.43533 0.32379 0.11051 0.0
C2162 C 0.47267 0.33051 0.09111 0.0
C2163 C 0.5122 0.3291 0.11208 0.0
C2164 C 0.49552 0.32561 0.10765 0.0
C2165 C 0.44582 0.32059 0.09834 0.0
C2166 C 0.46304 0.32163 0.10108 0.0
H2167 H 0.53428 0.33772 0.14434 0.0
H2168 H 0.50752 0.33046 0.13692 0.0
H2169 H 0.49569 0.34008 0.0869 0.0
H2170 H 0.41916 0.3136 0.06922 0.0
H2171 H 0.44765 0.31432 0.07395 0.0
C2172 C 0.84169 0.16121 0.34957 0.0
C2173 C 0.84849 0.15372 0.36246 0.0
C2174 C 0.83518 0.17592 0.35121 0.0
C2175 C 0.8249 0.20686 0.37981 0.0
H2176 H 0.84312 0.23391 0.34833 0.0
C2177 C 0.84142 0.27111 0.39054 0.0
C2178 C 0.84101 0.28161 0.378 0.0
C2179 C 0.83731 0.25546 0.38827 0.0
C2180 C 0.83756 0.22658 0.35704 0.0
H2181 H 0.85264 0.15513 0.38741 0.0
H2182 H 0.8417 0.18106 0.39023 0.0
H2183 H 0.84434 0.20599 0.3451 0.0
H2184 H 0.8349 0.28424 0.35355 0.0
H2185 H 0.82749 0.25693 0.34964 0.0
H2186 H 0.81878 0.22767 0.39206 0.0
C2187 C 0.84117 0.1755 0.37888 0.0
C2188 C 0.83826 0.21049 0.35518 0.0
C2189 C 0.84752 0.16066 0.37726 0.0
C2190 C 0.83554 0.27636 0.36338 0.0
C2191 C 0.83132 0.26073 0.36114 0.0
C2192 C 0.82419 0.22302 0.38167 0.0
C2193 C 0.83555 0.18354 0.36574 0.0
C2194 C 0.83231 0.20044 0.36673 0.0
C2195 C 0.83261 0.25001 0.37345 0.0
C2196 C 0.83091 0.23304 0.37049 0.0
H2197 H 0.84201 0.156 0.33805 0.0
H2198 H 0.83059 0.18166 0.34094 0.0
H2199 H 0.82005 0.1994 0.38882 0.0
H2200 H 0.84553 0.27483 0.40197 0.0
H2201 H 0.83862 0.24751 0.39796 0.0
C2202 C 0.94803 0.63731 0.642 0.0
C2203 C 0.93581 0.63747 0.63085 0.0
C2204 C 0.96359 0.64035 0.63765 0.0
C2205 C -0.01059 0.64098 0.603 0.0
H2206 H 0.01852 0.6622 0.63137 0.0
C2207 C 0.05173 0.6617 0.58543 0.0
C2208 C 0.0641 0.65714 0.59533 0.0
C2209 C 0.03607 0.65955 0.58989 0.0
C2210 C 0.01051 0.65617 0.62341 0.0
H2211 H 0.93016 0.64139 0.6065 0.0
H2212 H 0.95733 0.6473 0.59893 0.0
H2213 H -0.00912 0.65888 0.63861 0.0
H2214 H 0.06984 0.647 0.61776 0.0
H2215 H 0.04227 0.64355 0.62574 0.0
H2216 H 0.00907 0.6387 0.58765 0.0
C2217 C 0.95496 0.64437 0.61098 0.0
C2218 C -0.0053 0.65422 0.62753 0.0
C2219 C 0.93938 0.64111 0.61531 0.0
C2220 C 0.06052 0.6506 0.60991 0.0
C2221 C 0.0448 0.64867 0.61449 0.0
C2222 C 0.00516 0.64314 0.59879 0.0
C2223 C 0.96728 0.64385 0.62207 0.0
C2224 C 0.98396 0.64651 0.61742 0.0
C2225 C 0.03247 0.65302 0.60444 0.0
C2226 C 0.01584 0.65068 0.60899 0.0
H2227 H 0.94565 0.63443 0.65406 0.0
H2228 H 0.97275 0.63955 0.64646 0.0
H2229 H 0.98159 0.63471 0.59506 0.0
H2230 H 0.05413 0.66675 0.5741 0.0
H2231 H 0.02675 0.6631 0.58201 0.0
C2232 C 0.61015 0.29653 0.62428 0.0
C2233 C 0.61198 0.30273 0.60924 0.0
C2234 C 0.60688 0.28067 0.62627 0.0
C2235 C 0.61194 0.24268 0.60896 0.0
H2236 H 0.57535 0.23027 0.63311 0.0
C2237 C 0.59374 0.17789 0.61684 0.0
C2238 C 0.58778 0.17365 0.63149 0.0
C2239 C 0.59621 0.19361 0.61315 0.0
C2240 C 0.58575 0.23349 0.62652 0.0
H2241 H 0.61219 0.29717 0.58452 0.0
H2242 H 0.60687 0.26933 0.5881 0.0
H2243 H 0.58114 0.25782 0.62902 0.0
H2244 H 0.58001 0.18242 0.65387 0.0
H2245 H 0.58488 0.20958 0.64774 0.0
H2246 H 0.617 0.21844 0.60696 0.0
C2247 C 0.60779 0.27682 0.59827 0.0
C2248 C 0.58898 0.24927 0.62413 0.0
C2249 C 0.61075 0.29273 0.59625 0.0
C2250 C 0.58445 0.18534 0.6424 0.0
C2251 C 0.58714 0.20096 0.63882 0.0
C2252 C 0.60887 0.22686 0.61158 0.0
C2253 C 0.60571 0.27071 0.61328 0.0
C2254 C 0.60215 0.25398 0.61543 0.0
C2255 C 0.59296 0.20534 0.62413 0.0
C2256 C 0.59581 0.22207 0.62053 0.0
H2257 H 0.61101 0.30397 0.63449 0.0
H2258 H 0.6054 0.27615 0.63797 0.0
H2259 H 0.6222 0.2461 0.60225 0.0
H2260 H 0.59636 0.16909 0.6082 0.0
H2261 H 0.60052 0.19654 0.60165 0.0
C2262 C 0.06156 0.35597 0.88052 0.0
C2263 C 0.07248 0.35319 0.8686 0.0
C2264 C 0.04552 0.35737 0.87703 0.0
C2265 C 0.01604 0.34487 0.84842 0.0
H2266 H -0.00908 0.37867 0.86436 0.0
C2267 C 0.95392 0.35625 0.82497 0.0
C2268 C 0.94228 0.36132 0.83532 0.0
C2269 C 0.96956 0.35508 0.82986 0.0
C2270 C -0.0023 0.36901 0.86003 0.0
H2271 H 0.0752 0.34997 0.84365 0.0
H2272 H 0.04714 0.35226 0.83761 0.0
H2273 H 0.01891 0.37738 0.87126 0.0
H2274 H 0.93791 0.36897 0.85902 0.0
H2275 H 0.96529 0.36654 0.86771 0.0
H2276 H -0.00505 0.3363 0.8374 0.0
C2277 C 0.05103 0.35332 0.84964 0.0
C2278 C 0.01373 0.36834 0.86392 0.0
C2279 C 0.06708 0.35211 0.85309 0.0
C2280 C 0.94662 0.36506 0.85076 0.0
C2281 C 0.96231 0.36376 0.8557 0.0
C2282 C 3e-05 0.34544 0.84468 0.0
C2283 C 0.04011 0.35583 0.86159 0.0
C2284 C 0.02306 0.35637 0.85796 0.0
C2285 C 0.97396 0.35878 0.84528 0.0
C2286 C -0.00928 0.35765 0.85024 0.0
H2287 H 0.06536 0.35692 0.89259 0.0
H2288 H 0.03731 0.35924 0.88646 0.0
H2289 H 0.02293 0.33535 0.84393 0.0
H2290 H 0.95104 0.35341 0.81296 0.0
H2291 H 0.97826 0.35153 0.82143 0.0
C2292 C 0.88067 0.69159 0.10852 0.0
C2293 C 0.87797 0.68246 0.12186 0.0
C2294 C 0.88433 0.70743 0.10994 0.0
C2295 C 0.90085 0.73677 0.13634 0.0
H2296 H 0.87532 0.7659 0.11308 0.0
C2297 C 0.90198 0.80223 0.15012 0.0
C2298 C 0.89987 0.8129 0.13793 0.0
C2299 C 0.90038 0.78628 0.14742 0.0
C2300 C 0.88279 0.75795 0.11943 0.0
H2301 H 0.87736 0.68267 0.14716 0.0
H2302 H 0.88407 0.7104 0.14962 0.0
H2303 H 0.87075 0.73798 0.10979 0.0
H2304 H 0.89485 0.81525 0.11323 0.0
H2305 H 0.89257 0.78727 0.10833 0.0
H2306 H 0.91311 0.75661 0.14581 0.0
C2307 C 0.88325 0.70524 0.13809 0.0
C2308 C 0.88009 0.74197 0.1176 0.0
C2309 C 0.87934 0.68942 0.13667 0.0
C2310 C 0.89645 0.80728 0.12287 0.0
C2311 C 0.89504 0.79126 0.1201 0.0
C2312 C 0.90372 0.75275 0.13801 0.0
C2313 C 0.8856 0.71439 0.12472 0.0
C2314 C 0.88897 0.73127 0.12618 0.0
C2315 C 0.89685 0.78056 0.13239 0.0
C2316 C 0.89457 0.76355 0.12975 0.0
H2317 H 0.87966 0.68659 0.09694 0.0
H2318 H 0.88619 0.71425 0.09948 0.0
H2319 H 0.90799 0.72871 0.14293 0.0
H2320 H 0.90452 0.80621 0.1619 0.0
H2321 H 0.90153 0.77845 0.15723 0.0
C2322 C 0.40517 0.62316 0.35429 0.0
C2323 C 0.40221 0.62526 0.37026 0.0
C2324 C 0.42047 0.62032 0.34916 0.0
C2325 C 0.46013 0.60815 0.36143 0.0
H2326 H 0.47451 0.63726 0.32988 0.0
C2327 C 0.52623 0.61812 0.3477 0.0
C2328 C 0.5303 0.621 0.3321 0.0
C2329 C 0.51037 0.61725 0.35207 0.0
C2330 C 0.47067 0.62884 0.33849 0.0
H2331 H 0.4127 0.62499 0.39344 0.0
H2332 H 0.43934 0.6199 0.38445 0.0
H2333 H 0.44695 0.63694 0.33754 0.0
H2334 H 0.52096 0.62477 0.30878 0.0
H2335 H 0.49347 0.62284 0.31629 0.0
H2336 H 0.48386 0.60001 0.36237 0.0
C2337 C 0.42987 0.62053 0.37592 0.0
C2338 C 0.45486 0.62867 0.34287 0.0
C2339 C 0.41464 0.62354 0.38104 0.0
C2340 C 0.51823 0.62276 0.32095 0.0
C2341 C 0.50243 0.6217 0.32527 0.0
C2342 C 0.47595 0.60819 0.35692 0.0
C2343 C 0.433 0.61932 0.35991 0.0
C2344 C 0.44947 0.61843 0.35446 0.0
C2345 C 0.49829 0.61908 0.3409 0.0
C2346 C 0.48142 0.61863 0.34548 0.0
H2347 H 0.39583 0.62438 0.3457 0.0
H2348 H 0.42258 0.61928 0.33675 0.0
H2349 H 0.45622 0.60009 0.37037 0.0
H2350 H 0.53528 0.61673 0.35655 0.0
H2351 H 0.5076 0.61543 0.36425 0.0
C2352 C 0.86946 0.62076 0.82612 0.0
C2353 C 0.8566 0.61133 0.83064 0.0
C2354 C 0.87233 0.62356 0.81034 0.0
C2355 C 0.85493 0.61881 0.77035 0.0
H2356 H 0.89889 0.61613 0.75863 0.0
C2357 C 0.89604 0.60336 0.71397 0.0
C2358 C 0.88892 0.61222 0.7022 0.0
C2359 C 0.8911 0.60458 0.72936 0.0
C2360 C 0.88654 0.61679 0.76168 0.0
H2361 H 0.83637 0.59786 0.82221 0.0
H2362 H 0.8417 0.60224 0.79478 0.0
H2363 H 0.89198 0.61648 0.78599 0.0
H2364 H 0.87071 0.62898 0.69722 0.0
H2365 H 0.86223 0.63139 0.72434 0.0
H2366 H 0.84952 0.61821 0.74591 0.0
C2367 C 0.84937 0.60782 0.80334 0.0
C2368 C 0.88258 0.61727 0.77741 0.0
C2369 C 0.84639 0.6052 0.81911 0.0
C2370 C 0.87637 0.62197 0.70606 0.0
C2371 C 0.87152 0.62334 0.72158 0.0
C2372 C 0.8589 0.61816 0.75455 0.0
C2373 C 0.86254 0.61681 0.79874 0.0
C2374 C 0.86671 0.61802 0.78197 0.0
C2375 C 0.87906 0.61487 0.73344 0.0
C2376 C 0.87474 0.61681 0.75007 0.0
H2377 H 0.87743 0.62582 0.83475 0.0
H2378 H 0.88239 0.63081 0.80723 0.0
H2379 H 0.84261 0.61965 0.77344 0.0
H2380 H 0.90559 0.59557 0.71132 0.0
H2381 H 0.89683 0.59752 0.73812 0.0
C2382 C 0.60932 0.62875 0.06128 0.0
C2383 C 0.6084 0.6142 0.06867 0.0
C2384 C 0.60615 0.62998 0.04531 0.0
C2385 C 0.60659 0.60536 0.00998 0.0
H2386 H 0.59077 0.64253 0.99007 0.0
C2387 C 0.59944 0.61168 0.94301 0.0
C2388 C 0.60583 0.62552 0.93679 0.0
C2389 C 0.59809 0.60983 0.95914 0.0
C2390 C 0.59522 0.63209 -0.00449 0.0
H2391 H 0.60213 0.5898 0.06554 0.0
H2392 H 0.59601 0.59204 0.03786 0.0
H2393 H 0.58993 0.64028 0.01845 0.0
H2394 H 0.61589 0.64824 0.94265 0.0
H2395 H 0.61345 0.64499 0.97074 0.0
H2396 H 0.61187 0.59722 0.98699 0.0
C2397 C 0.59976 0.6024 0.0442 0.0
C2398 C 0.59478 0.63081 0.01174 0.0
C2399 C 0.60315 0.60113 0.06008 0.0
C2400 C 0.61095 0.63741 0.94704 0.0
C2401 C 0.60943 0.63563 0.96312 0.0
C2402 C 0.60686 0.60659 -0.00625 0.0
C2403 C 0.60179 0.61671 0.03649 0.0
C2404 C 0.60071 0.61753 0.01919 0.0
C2405 C 0.60291 0.62187 0.96932 0.0
C2406 C 0.60144 0.62007 0.9864 0.0
H2407 H 0.61339 0.639 0.0676 0.0
H2408 H 0.60796 0.64117 0.03976 0.0
H2409 H 0.61155 0.5951 0.01529 0.0
H2410 H 0.59537 0.60232 0.93542 0.0
H2411 H 0.59301 0.59911 0.96366 0.0
C2412 C 0.57938 0.37048 0.20416 0.0
C2413 C 0.58955 0.37095 0.19129 0.0
C2414 C 0.5853 0.37255 0.21924 0.0
C2415 C 0.61609 0.39202 0.24115 0.0
H2416 H 0.6041 0.36371 0.27436 0.0
C2417 C 0.63623 0.40195 0.30507 0.0
C2418 C 0.62532 0.39816 0.31677 0.0
C2419 C 0.63314 0.3979 0.28954 0.0
C2420 C 0.6074 0.37184 0.26527 0.0
H2421 H 0.6139 0.37391 0.18409 0.0
H2422 H 0.62423 0.378 0.21065 0.0
H2423 H 0.59659 0.35761 0.2475 0.0
H2424 H 0.60246 0.38753 0.32141 0.0
H2425 H 0.59675 0.38101 0.2943 0.0
H2426 H 0.62624 0.40667 0.2589 0.0
C2427 C 0.6117 0.37584 0.20894 0.0
C2428 C 0.60321 0.36826 0.2499 0.0
C2429 C 0.60581 0.37345 0.19381 0.0
C2430 C 0.61114 0.3905 0.31264 0.0
C2431 C 0.60795 0.38664 0.2971 0.0
C2432 C 0.6201 0.39574 0.25658 0.0
C2433 C 0.60146 0.37539 0.22175 0.0
C2434 C 0.60734 0.37841 0.23775 0.0
C2435 C 0.61897 0.39014 0.28536 0.0
C2436 C 0.61559 0.3858 0.26886 0.0
H2437 H 0.56681 0.36849 0.20259 0.0
H2438 H 0.57716 0.3723 0.22894 0.0
H2439 H 0.61926 0.4001 0.23196 0.0
H2440 H 0.64732 0.40776 0.30794 0.0
H2441 H 0.64198 0.40061 0.28086 0.0
C2442 C 0.86737 0.38402 0.55189 0.0
C2443 C 0.8652 0.37296 0.56374 0.0
C2444 C 0.87052 0.3793 0.53671 0.0
C2445 C 0.86141 0.34857 0.50981 0.0
H2446 H 0.8929 0.36887 0.48391 0.0
C2447 C 0.8645 0.3374 0.44348 0.0
C2448 C 0.86765 0.35045 0.43406 0.0
C2449 C 0.86612 0.3384 0.45967 0.0
C2450 C 0.88397 0.36318 0.49095 0.0
H2451 H 0.86496 0.34833 0.5692 0.0
H2452 H 0.87003 0.33998 0.54226 0.0
H2453 H 0.8931 0.37347 0.51201 0.0
H2454 H 0.87475 0.37482 0.43422 0.0
H2455 H 0.87702 0.37674 0.46247 0.0
H2456 H 0.85165 0.33898 0.48877 0.0
C2457 C 0.86948 0.3523 0.5449 0.0
C2458 C 0.8842 0.36571 0.50703 0.0
C2459 C 0.86663 0.35706 0.56024 0.0
C2460 C 0.87231 0.36455 0.44116 0.0
C2461 C 0.87376 0.3656 0.45736 0.0
C2462 C 0.86105 0.34618 0.4937 0.0
C2463 C 0.8713 0.36341 0.53301 0.0
C2464 C 0.87271 0.3587 0.51653 0.0
C2465 C 0.87078 0.35251 0.4668 0.0
C2466 C 0.8721 0.35376 0.48404 0.0
H2467 H 0.86642 0.39636 0.55431 0.0
H2468 H 0.87171 0.38808 0.52771 0.0
H2469 H 0.85231 0.34319 0.5169 0.0
H2470 H 0.86104 0.32631 0.43834 0.0
H2471 H 0.86392 0.32805 0.46656 0.0
C2472 C 0.8837 0.39668 0.77964 0.0
C2473 C 0.87213 0.39115 0.78995 0.0
C2474 C 0.88098 0.39648 0.76363 0.0
C2475 C 0.85794 0.37465 0.73445 0.0
H2476 H 0.87788 0.40425 0.7064 0.0
C2477 C 0.85491 0.37267 0.6665 0.0
C2478 C 0.86938 0.37522 0.65889 0.0
C2479 C 0.85394 0.37404 0.68269 0.0
C2480 C 0.87232 0.39587 0.71413 0.0
H2481 H 0.84818 0.38211 0.79173 0.0
H2482 H 0.84326 0.38198 0.76352 0.0
H2483 H 0.87679 0.41009 0.73421 0.0
H2484 H 0.89432 0.38032 0.66232 0.0
H2485 H 0.89256 0.38286 0.69065 0.0
H2486 H 0.85341 0.36052 0.71417 0.0
C2487 C 0.85457 0.3862 0.76789 0.0
C2488 C 0.87165 0.39921 0.73002 0.0
C2489 C 0.85731 0.38642 0.78402 0.0
C2490 C 0.88303 0.37827 0.66785 0.0
C2491 C 0.882 0.37986 0.68402 0.0
C2492 C 0.85843 0.3714 0.71847 0.0
C2493 C 0.86656 0.39081 0.75752 0.0
C2494 C 0.86485 0.38845 0.74043 0.0
C2495 C 0.86737 0.37819 0.6915 0.0
C2496 C 0.866 0.38182 0.70827 0.0
H2497 H 0.89521 0.40047 0.78391 0.0
H2498 H 0.89056 0.39996 0.75603 0.0
H2499 H 0.85279 0.36602 0.74216 0.0
H2500 H 0.84421 0.37024 0.65988 0.0
H2501 H 0.84255 0.37267 0.68822 0.0
C2502 C 0.84645 0.62084 0.92437 0.0
C2503 C 0.83821 0.60679 0.92136 0.0
C2504 C 0.85189 0.62433 0.93945 0.0
C2505 C 0.86343 0.6055 0.97586 0.0
H2506 H 0.85296 0.64435 -0.00387 0.0
C2507 C 0.86457 0.6126 0.04227 0.0
C2508 C 0.86859 0.62714 0.04881 0.0
C2509 C 0.86343 0.6108 0.02613 0.0
C2510 C 0.8563 0.63358 0.99055 0.0
H2511 H 0.82903 0.58551 0.93177 0.0
H2512 H 0.83863 0.59156 0.95795 0.0
H2513 H 0.84589 0.64025 0.96875 0.0
H2514 H 0.87525 0.65106 0.04359 0.0
H2515 H 0.87356 0.64783 0.01533 0.0
H2516 H 0.87375 0.59871 -0.00243 0.0
C2517 C 0.84094 0.59982 0.94867 0.0
C2518 C 0.85219 0.63123 0.9749 0.0
C2519 C 0.83534 0.59643 0.93371 0.0
C2520 C 0.87202 0.63973 0.03887 0.0
C2521 C 0.87097 0.6379 0.0227 0.0
C2522 C 0.86768 0.60788 -0.00857 0.0
C2523 C 0.84937 0.61372 0.95165 0.0
C2524 C 0.85535 0.61701 0.96756 0.0
C2525 C 0.8664 0.62348 0.01615 0.0
C2526 C 0.86378 0.62178 -0.00091 0.0
H2527 H 0.84882 0.62904 0.91507 0.0
H2528 H 0.85835 0.63514 0.9415 0.0
H2529 H 0.86623 0.59452 0.97034 0.0
H2530 H 0.86182 0.6027 0.04962 0.0
H2531 H 0.85964 0.59959 0.02151 0.0
C2532 C 0.62047 0.59876 0.28604 0.0
C2533 C 0.60445 0.59867 0.29014 0.0
C2534 C 0.62485 0.59663 0.27046 0.0
C2535 C 0.60874 0.58347 0.23194 0.0
H2536 H 0.64103 0.61105 0.21509 0.0
C2537 C 0.61361 0.59717 0.16656 0.0
C2538 C 0.62849 0.59464 0.16002 0.0
C2539 C 0.61178 0.59708 0.18274 0.0
C2540 C 0.63207 0.60322 0.21971 0.0
H2541 H 0.5805 0.59585 0.28127 0.0
H2542 H 0.58802 0.59258 0.25437 0.0
H2543 H 0.63623 0.61084 0.24319 0.0
H2544 H 0.65322 0.59069 0.16517 0.0
H2545 H 0.65003 0.59094 0.19349 0.0
H2546 H 0.60415 0.57639 0.20835 0.0
C2547 C 0.59729 0.59396 0.26305 0.0
C2548 C 0.6294 0.603 0.23578 0.0
C2549 C 0.59296 0.59598 0.27852 0.0
C2550 C 0.64159 0.59259 0.16992 0.0
C2551 C 0.63981 0.59278 0.18608 0.0
C2552 C 0.61125 0.58389 0.2159 0.0
C2553 C 0.61326 0.59439 0.25877 0.0
C2554 C 0.61749 0.59332 0.24204 0.0
C2555 C 0.62485 0.59476 0.1926 0.0
C2556 C 0.62275 0.59393 0.20964 0.0
H2557 H 0.62957 0.60077 0.29479 0.0
H2558 H 0.63726 0.59686 0.26756 0.0
H2559 H 0.59975 0.5756 0.2364 0.0
H2560 H 0.60333 0.59876 0.15918 0.0
H2561 H 0.60015 0.59876 0.18756 0.0
C2562 C 0.6042 0.37021 0.52771 0.0
C2563 C 0.60463 0.3556 0.535 0.0
C2564 C 0.60214 0.37126 0.51157 0.0
C2565 C 0.60926 0.34871 0.47613 0.0
H2566 H 0.58658 0.38216 0.45612 0.0
C2567 C 0.61176 0.35809 0.40968 0.0
C2568 C 0.61527 0.37351 0.40526 0.0
C2569 C 0.60715 0.35471 0.42494 0.0
C2570 C 0.59296 0.37275 0.46155 0.0
H2571 H 0.60247 0.33065 0.53125 0.0
H2572 H 0.59877 0.3325 0.50308 0.0
H2573 H 0.58434 0.37841 0.48426 0.0
H2574 H 0.61606 0.39753 0.41325 0.0
H2575 H 0.60823 0.39162 0.43979 0.0
H2576 H 0.61829 0.34335 0.45356 0.0
C2577 C 0.60026 0.34313 0.5098 0.0
C2578 C 0.59168 0.37062 0.47765 0.0
C2579 C 0.60233 0.34208 0.52594 0.0
C2580 C 0.61352 0.38551 0.41626 0.0
C2581 C 0.60888 0.38214 0.43147 0.0
C2582 C 0.61053 0.35084 0.46005 0.0
C2583 C 0.60045 0.35771 0.50241 0.0
C2584 C 0.60012 0.35881 0.48515 0.0
C2585 C 0.60589 0.36669 0.43605 0.0
C2586 C 0.6027 0.36312 0.45265 0.0
H2587 H 0.60592 0.38084 0.53439 0.0
H2588 H 0.60253 0.38266 0.5062 0.0
H2589 H 0.61607 0.33962 0.48158 0.0
H2590 H 0.61292 0.34858 0.40146 0.0
H2591 H 0.60478 0.3427 0.42811 0.0
C2592 C 0.7018 0.88189 0.61051 0.0
C2593 C 0.69909 0.89718 0.60551 0.0
C2594 C 0.71706 0.87591 0.61044 0.0
C2595 C 0.7569 0.88344 0.59373 0.0
H2596 H 0.77039 0.85508 0.62617 0.0
C2597 C 0.82166 0.86547 0.6013 0.0
C2598 C 0.82391 0.84929 0.60115 0.0
C2599 C 0.80654 0.87146 0.60302 0.0
C2600 C 0.76673 0.86299 0.61705 0.0
H2601 H 0.71029 0.91832 0.59684 0.0
H2602 H 0.73682 0.90818 0.59725 0.0
H2603 H 0.74361 0.8652 0.62656 0.0
H2604 H 0.81223 0.82674 0.60346 0.0
H2605 H 0.78586 0.83728 0.60679 0.0
H2606 H 0.78018 0.88146 0.58448 0.0
C2607 C 0.72718 0.90054 0.60073 0.0
C2608 C 0.75137 0.8687 0.61718 0.0
C2609 C 0.71194 0.90641 0.60056 0.0
C2610 C 0.81085 0.83926 0.60344 0.0
C2611 C 0.79579 0.84527 0.60543 0.0
C2612 C 0.7723 0.87794 0.59376 0.0
C2613 C 0.72996 0.88519 0.60558 0.0
C2614 C 0.74625 0.87898 0.6055 0.0
C2615 C 0.79346 0.8614 0.60491 0.0
C2616 C 0.77733 0.86764 0.60538 0.0
H2617 H 0.69211 0.87449 0.61435 0.0
H2618 H 0.71869 0.86396 0.61403 0.0
H2619 H 0.75332 0.89103 0.58433 0.0
H2620 H 0.83149 0.87348 0.59953 0.0
H2621 H 0.80502 0.88396 0.60268 0.0
C2622 C 0.1982 0.59584 0.38984 0.0
C2623 C 0.18649 0.60711 0.38823 0.0
C2624 C 0.2136 0.60019 0.39389 0.0
C2625 C 0.24087 0.6341 0.39352 0.0
H2626 H 0.26718 0.60663 0.41798 0.0
C2627 C 0.30547 0.64901 0.41061 0.0
C2628 C 0.31631 0.63747 0.4066 0.0
C2629 C 0.28928 0.64582 0.40996 0.0
C2630 C 0.25994 0.61438 0.41113 0.0
H2631 H 0.18153 0.63172 0.39009 0.0
H2632 H 0.20843 0.63935 0.39764 0.0
H2633 H 0.23915 0.60047 0.41464 0.0
H2634 H 0.31879 0.61349 0.39913 0.0
H2635 H 0.29042 0.60786 0.39827 0.0
H2636 H 0.26175 0.64806 0.39018 0.0
C2637 C 0.20579 0.62717 0.39539 0.0
C2638 C 0.24392 0.61085 0.40915 0.0
C2639 C 0.19037 0.62281 0.39115 0.0
C2640 C 0.31069 0.6226 0.40225 0.0
C2641 C 0.2945 0.61936 0.40184 0.0
C2642 C 0.25685 0.63773 0.39569 0.0
C2643 C 0.21762 0.61591 0.39663 0.0
C2644 C 0.23426 0.6205 0.40005 0.0
C2645 C 0.28367 0.63099 0.40554 0.0
C2646 C 0.26656 0.62775 0.40428 0.0
H2647 H 0.19559 0.58364 0.38758 0.0
H2648 H 0.22244 0.59124 0.39442 0.0
H2649 H 0.23387 0.64167 0.38625 0.0
H2650 H 0.30948 0.66059 0.41398 0.0
H2651 H 0.28113 0.65495 0.41293 0.0
C2652 C 0.62714 0.07707 0.62853 0.0
C2653 C 0.61167 0.08264 0.62945 0.0
C2654 C 0.6298 0.06107 0.62749 0.0
C2655 C 0.61054 0.02308 0.61845 0.0
H2656 H 0.64242 0.00685 0.64644 0.0
C2657 C 0.6175 0.95707 0.62926 0.0
C2658 C 0.63306 0.95168 0.6292 0.0
C2659 C 0.6146 0.97307 0.62947 0.0
C2660 C 0.63357 0.01121 0.63846 0.0
H2661 H 0.58686 0.07583 0.62921 0.0
H2662 H 0.59154 0.04805 0.62744 0.0
H2663 H 0.63843 0.03485 0.64506 0.0
H2664 H 0.65777 0.95877 0.62971 0.0
H2665 H 0.65273 0.98651 0.62996 0.0
H2666 H 0.60569 -0.00059 0.61185 0.0
C2667 C 0.6016 0.056 0.62748 0.0
C2668 C 0.63133 0.02725 0.63762 0.0
C2669 C 0.59894 0.07194 0.62859 0.0
C2670 C 0.64563 0.96255 0.62975 0.0
C2671 C 0.64275 0.97847 0.62998 0.0
C2672 C 0.61279 0.00702 0.61927 0.0
C2673 C 0.61706 0.05037 0.62725 0.0
C2674 C 0.61981 0.03336 0.62761 0.0
C2675 C 0.62723 0.98393 0.6297 0.0
C2676 C 0.62436 0.00092 0.62926 0.0
H2677 H 0.63719 0.08501 0.62913 0.0
H2678 H 0.64185 0.05706 0.6271 0.0
H2679 H 0.60165 0.02747 0.61053 0.0
H2680 H 0.60758 0.94896 0.62887 0.0
H2681 H 0.6025 0.97695 0.62944 0.0
C2682 C 0.17722 0.35047 0.89413 0.0
C2683 C 0.16435 0.36012 0.89116 0.0
C2684 C 0.1925 0.35545 0.89062 0.0
C2685 C 0.21509 0.38508 0.86803 0.0
H2686 H 0.24898 0.37284 0.89587 0.0
C2687 C 0.27834 0.41198 0.86884 0.0
C2688 C 0.29071 0.40126 0.8688 0.0
C2689 C 0.26272 0.40682 0.87033 0.0
C2690 C 0.23962 0.37622 0.88794 0.0
H2691 H 0.15728 0.38257 0.88227 0.0
H2692 H 0.18412 0.39162 0.87672 0.0
H2693 H 0.222 0.36459 0.90143 0.0
H2694 H 0.29644 0.37676 0.87001 0.0
H2695 H 0.26909 0.3678 0.87301 0.0
H2696 H 0.23289 0.39725 0.85495 0.0
C2697 C 0.18238 0.38 0.88135 0.0
C2698 C 0.22417 0.37146 0.89106 0.0
C2699 C 0.16702 0.37489 0.88462 0.0
C2700 C 0.28715 0.38528 0.87 0.0
C2701 C 0.27155 0.38015 0.87176 0.0
C2702 C 0.23055 0.39007 0.86508 0.0
C2703 C 0.19532 0.37034 0.88433 0.0
C2704 C 0.21171 0.37572 0.88109 0.0
C2705 C 0.25925 0.3909 0.87206 0.0
C2706 C 0.24292 0.38558 0.87497 0.0
H2707 H 0.17548 0.33893 0.89899 0.0
H2708 H 0.2021 0.34753 0.89272 0.0
H2709 H 0.20585 0.3884 0.85998 0.0
H2710 H 0.28074 0.42437 0.86784 0.0
H2711 H 0.2534 0.41531 0.87061 0.0
C2712 C 0.37656 0.41353 0.62973 0.0
C2713 C 0.36497 0.40195 0.62684 0.0
C2714 C 0.37332 0.42919 0.62727 0.0
C2715 C 0.33982 0.45582 0.6252 0.0
H2716 H 0.37231 0.48556 0.61282 0.0
C2717 C 0.34675 0.52597 0.61211 0.0
C2718 C 0.33727 0.5314 0.62429 0.0
C2719 C 0.35064 0.51022 0.61123 0.0
C2720 C 0.36304 0.47741 0.61613 0.0
H2721 H 0.34108 0.39772 0.61844 0.0
H2722 H 0.33549 0.42514 0.61381 0.0
H2723 H 0.37761 0.45777 0.61181 0.0
H2724 H 0.32526 0.52483 0.6456 0.0
H2725 H 0.33247 0.4976 0.64438 0.0
H2726 H 0.32514 0.47538 0.62919 0.0
C2727 C 0.347 0.42209 0.61832 0.0
C2728 C 0.36613 0.46147 0.61571 0.0
C2729 C 0.35022 0.40637 0.6209 0.0
C2730 C 0.33242 0.52096 0.63596 0.0
C2731 C 0.33643 0.50531 0.63518 0.0
C2732 C 0.3367 0.47172 0.6255 0.0
C2733 C 0.35844 0.4337 0.62173 0.0
C2734 C 0.35466 0.4505 0.62053 0.0
C2735 C 0.34524 0.49965 0.6226 0.0
C2736 C 0.34837 0.48272 0.62129 0.0
H2737 H 0.38807 0.41056 0.63433 0.0
H2738 H 0.38233 0.43779 0.63027 0.0
H2739 H 0.33075 0.44775 0.62913 0.0
H2740 H 0.3506 0.53374 0.60291 0.0
H2741 H 0.3574 0.50624 0.60136 0.0
C2742 C 0.77981 0.11165 0.10273 0.0
C2743 C 0.78468 0.09611 0.10294 0.0
C2744 C 0.76376 0.11512 0.1031 0.0
C2745 C 0.72406 0.09781 0.09612 0.0
H2746 H 0.71038 0.1322 0.12185 0.0
C2747 C 0.65822 0.11108 0.10445 0.0
C2748 C 0.65432 0.12668 0.10169 0.0
C2749 C 0.674 0.1069 0.10631 0.0
C2750 C 0.71405 0.12259 0.1146 0.0
H2751 H 0.7766 0.072 0.10344 0.0
H2752 H 0.7487 0.07804 0.1043 0.0
H2753 H 0.73835 0.12596 0.12086 0.0
H2754 H 0.66379 0.15023 0.09957 0.0
H2755 H 0.6912 0.14292 0.10286 0.0
H2756 H 0.69976 0.09449 0.08983 0.0
C2757 C 0.75721 0.08757 0.10365 0.0
C2758 C 0.73006 0.11907 0.11395 0.0
C2759 C 0.77322 0.08411 0.10322 0.0
C2760 C 0.66641 0.13809 0.10159 0.0
C2761 C 0.68212 0.13393 0.10358 0.0
C2762 C 0.70805 0.10129 0.09683 0.0
C2763 C 0.75229 0.10311 0.10372 0.0
C2764 C 0.73526 0.10673 0.10459 0.0
C2765 C 0.68611 0.11826 0.10561 0.0
C2766 C 0.70291 0.1138 0.10596 0.0
H2767 H 0.78839 0.12114 0.10247 0.0
H2768 H 0.76033 0.12722 0.10288 0.0
H2769 H 0.7277 0.08836 0.08864 0.0
H2770 H 0.64916 0.10204 0.1046 0.0
H2771 H 0.67676 0.09475 0.10803 0.0
C2772 C 0.6324 0.02718 0.8394 0.0
C2773 C 0.62091 0.03861 0.84133 0.0
C2774 C 0.62801 0.01185 0.83604 0.0
C2775 C 0.59474 0.98433 0.84033 0.0
H2776 H 0.62203 0.95776 0.81617 0.0
C2777 C 0.58383 0.918 0.8306 0.0
C2778 C 0.59681 0.90885 0.83472 0.0
C2779 C 0.58543 0.93418 0.8297 0.0
C2780 C 0.61431 0.96508 0.82291 0.0
H2781 H 0.59581 0.04311 0.84059 0.0
H2782 H 0.58809 0.01619 0.83437 0.0
H2783 H 0.62674 0.98585 0.81637 0.0
H2784 H 0.62164 0.90936 0.84105 0.0
H2785 H 0.62451 0.93767 0.83918 0.0
H2786 H 0.58234 0.96339 0.84681 0.0
C2787 C 0.6005 0.0191 0.83577 0.0
C2788 C 0.617 0.98114 0.82308 0.0
C2789 C 0.60491 0.03451 0.83925 0.0
C2790 C 0.61144 0.91614 0.83788 0.0
C2791 C 0.6131 0.93229 0.83672 0.0
C2792 C 0.59192 0.96826 0.83997 0.0
C2793 C 0.61202 0.00756 0.83435 0.0
C2794 C 0.60757 -0.0091 0.83218 0.0
C2795 C 0.60012 0.94142 0.83262 0.0
C2796 C 0.60196 0.9585 0.83162 0.0
H2797 H 0.64483 0.02996 0.84094 0.0
H2798 H 0.6372 0.00326 0.83534 0.0
H2799 H 0.58735 -0.00852 0.84759 0.0
H2800 H 0.5724 0.91266 0.82813 0.0
H2801 H 0.57528 0.94102 0.82651 0.0
C2802 C 0.89395 0.06115 0.33401 0.0
C2803 C 0.88211 0.07029 0.34064 0.0
C2804 C 0.89416 0.0451 0.33656 0.0
C2805 C 0.87879 0.01477 0.3631 0.0
H2806 H 0.88412 0.98685 0.32793 0.0
C2807 C 0.85352 0.95315 0.36203 0.0
C2808 C 0.86277 0.94095 0.35642 0.0
C2809 C 0.85878 0.96851 0.3609 0.0
C2810 C 0.88293 -0.00549 0.33791 0.0
H2811 H 0.86119 0.06982 0.35507 0.0
H2812 H 0.86143 0.04181 0.35935 0.0
H2813 H 0.88774 0.01493 0.32435 0.0
H2814 H 0.88477 0.93524 0.34517 0.0
H2815 H 0.89392 0.96245 0.3429 0.0
H2816 H 0.87336 -0.00556 0.37649 0.0
C2817 C 0.87071 0.04707 0.3524 0.0
C2818 C 0.88498 0.01056 0.33587 0.0
C2819 C 0.87049 0.06309 0.34985 0.0
C2820 C 0.87743 0.94444 0.3496 0.0
C2821 C 0.88264 0.95994 0.34829 0.0
C2822 C 0.87671 -0.00121 0.36511 0.0
C2823 C 0.88256 0.03791 0.34582 0.0
C2824 C 0.88245 0.02086 0.34835 0.0
C2825 C 0.87335 0.97208 0.35402 0.0
C2826 C 0.87829 0.98856 0.35243 0.0
H2827 H 0.90309 0.0664 0.32688 0.0
H2828 H 0.90348 0.03834 0.33141 0.0
H2829 H 0.87714 0.02241 0.37301 0.0
H2830 H 0.84216 0.95085 0.36736 0.0
H2831 H 0.85126 0.97766 0.36516 0.0
C2832 C 0.34059 0.26405 0.07647 0.0
C2833 C 0.34296 0.27419 0.0892 0.0
C2834 C 0.33643 0.24842 0.07894 0.0
C2835 C 0.32408 0.22006 0.1098 0.0
H2836 H 0.3519 0.19232 0.08777 0.0
C2837 C 0.35238 0.16671 0.13683 0.0
C2838 C 0.35607 0.15389 0.12741 0.0
C2839 C 0.34465 0.17947 0.13049 0.0
C2840 C 0.34371 0.19977 0.09378 0.0
H2841 H 0.34189 0.27615 0.11441 0.0
H2842 H 0.33505 0.24901 0.11872 0.0
H2843 H 0.34952 0.21907 0.07915 0.0
H2844 H 0.35339 0.1438 0.10429 0.0
H2845 H 0.33998 0.16622 0.09317 0.0
H2846 H 0.3192 0.2009 0.12511 0.0
C2847 C 0.33613 0.25305 0.10681 0.0
C2848 C 0.34233 0.21515 0.08882 0.0
C2849 C 0.34024 0.26862 0.10435 0.0
C2850 C 0.35079 0.15356 0.11182 0.0
C2851 C 0.34316 0.1664 0.10544 0.0
C2852 C 0.32555 0.20468 0.11483 0.0
C2853 C 0.33458 0.24265 0.09418 0.0
C2854 C 0.33304 0.22566 0.09719 0.0
C2855 C 0.34054 0.17971 0.11457 0.0
C2856 C 0.33589 0.19458 0.10724 0.0
H2857 H 0.34246 0.26806 0.06464 0.0
H2858 H 0.33513 0.24075 0.06894 0.0
H2859 H 0.31653 0.22777 0.11629 0.0
H2860 H 0.35621 0.16725 0.14891 0.0
H2861 H 0.34292 0.18959 0.13781 0.0
C2862 C 0.55775 0.64712 0.86295 0.0
C2863 C 0.56366 0.65169 0.87764 0.0
C2864 C 0.54147 0.64609 0.8603 0.0
C2865 C 0.50516 0.63742 0.88003 0.0
H2866 H 0.484 0.65902 0.84638 0.0
C2867 C 0.43778 0.63333 0.87295 0.0
C2868 C 0.43169 0.63245 0.8577 0.0
C2869 C 0.45366 0.63716 0.87553 0.0
C2870 C 0.48973 0.65272 0.8557 0.0
H2871 H 0.55727 0.65889 0.90102 0.0
H2872 H 0.52886 0.65666 0.89646 0.0
H2873 H 0.51245 0.6625 0.85008 0.0
H2874 H 0.43735 0.63499 0.83319 0.0
H2875 H 0.46513 0.64096 0.83761 0.0
H2876 H 0.48282 0.62703 0.88534 0.0
C2877 C 0.53682 0.65405 0.887 0.0
C2878 C 0.50599 0.6548 0.85783 0.0
C2879 C 0.55305 0.65537 0.88957 0.0
C2880 C 0.44169 0.6357 0.8451 0.0
C2881 C 0.45763 0.63922 0.84765 0.0
C2882 C 0.48899 0.63509 0.87773 0.0
C2883 C 0.53092 0.64933 0.87239 0.0
C2884 C 0.51378 0.64719 0.87003 0.0
C2885 C 0.46387 0.63986 0.8629 0.0
C2886 C 0.48104 0.64273 0.86556 0.0
H2887 H 0.56569 0.64425 0.85356 0.0
H2888 H 0.53711 0.64236 0.84895 0.0
H2889 H 0.51101 0.63132 0.88942 0.0
H2890 H 0.43027 0.63103 0.88288 0.0
H2891 H 0.45793 0.6379 0.88745 0.0
C2892 C 0.13194 0.71335 0.60384 0.0
C2893 C 0.13009 0.70847 0.58828 0.0
C2894 C 0.13575 0.72884 0.60733 0.0
C2895 C 0.13092 0.76754 0.59032 0.0
H2896 H 0.15184 0.7806 0.62868 0.0
C2897 C 0.12351 0.82936 0.61279 0.0
C2898 C 0.11716 0.82943 0.62789 0.0
C2899 C 0.13103 0.81616 0.60713 0.0
C2900 C 0.1461 0.77715 0.61785 0.0
H2901 H 0.13186 0.71569 0.56413 0.0
H2902 H 0.13885 0.74273 0.57021 0.0
H2903 H 0.15432 0.75377 0.61957 0.0
H2904 H 0.11506 0.81638 0.64942 0.0
H2905 H 0.12808 0.79335 0.63954 0.0
H2906 H 0.12222 0.79068 0.58887 0.0
C2907 C 0.13697 0.73467 0.57974 0.0
C2908 C 0.14745 0.76178 0.61266 0.0
C2909 C 0.13301 0.71917 0.57625 0.0
C2910 C 0.11972 0.81662 0.63769 0.0
C2911 C 0.12729 0.80345 0.63206 0.0
C2912 C 0.12969 0.78289 0.59543 0.0
C2913 C 0.13794 0.73979 0.59533 0.0
C2914 C 0.13935 0.75665 0.59916 0.0
C2915 C 0.1324 0.80284 0.61651 0.0
C2916 C 0.13676 0.7877 0.60955 0.0
H2917 H 0.12981 0.70536 0.61339 0.0
H2918 H 0.13614 0.73236 0.61947 0.0
H2919 H 0.12435 0.76401 0.57999 0.0
H2920 H 0.12185 0.83912 0.605 0.0
H2921 H 0.13504 0.81607 0.59516 0.0
C2922 C 0.03189 0.35196 0.34427 0.0
C2923 C 0.04158 0.35276 0.35763 0.0
C2924 C 0.01563 0.34959 0.34563 0.0
C2925 C 0.98328 0.35196 0.37455 0.0
H2926 H 0.95985 0.32814 0.34331 0.0
C2927 C 0.92009 0.32864 0.3834 0.0
C2928 C 0.90897 0.33294 0.37202 0.0
C2929 C 0.93614 0.33133 0.38102 0.0
C2930 C 0.96628 0.33492 0.35202 0.0
H2931 H 0.04194 0.35121 0.38286 0.0
H2932 H 0.01366 0.34635 0.38524 0.0
H2933 H 0.98838 0.33162 0.34073 0.0
H2934 H 0.90591 0.34306 0.34907 0.0
H2935 H 0.93429 0.34733 0.3447 0.0
H2936 H 0.96116 0.35463 0.38613 0.0
C2937 C 0.0185 0.34812 0.37371 0.0
C2938 C 0.98259 0.33698 0.35055 0.0
C2939 C 0.03474 0.35078 0.37237 0.0
C2940 C 0.91425 0.33966 0.35803 0.0
C2941 C 0.93041 0.34207 0.35552 0.0
C2942 C 0.96704 0.34965 0.37614 0.0
C2943 C 0.0087 0.34769 0.36037 0.0
C2944 C -0.00868 0.3455 0.36184 0.0
C2945 C 0.94142 0.33809 0.3671 0.0
C2946 C 0.95844 0.34109 0.36492 0.0
H2947 H 0.03681 0.35361 0.33275 0.0
H2948 H 0.00848 0.34961 0.33511 0.0
H2949 H -0.01052 0.35891 0.38327 0.0
H2950 H 0.91638 0.32348 0.39432 0.0
H2951 H 0.94446 0.32806 0.39005 0.0
C2952 C 0.37815 0.81757 0.35303 0.0
C2953 C 0.37782 0.82112 0.33704 0.0
C2954 C 0.37501 0.80239 0.35812 0.0
C2955 C 0.37551 0.76193 0.34333 0.0
H2956 H 0.35504 0.7523 0.38254 0.0
C2957 C 0.35905 0.69933 0.36146 0.0
C2958 C 0.36334 0.69494 0.37668 0.0
C2959 C 0.36016 0.71488 0.35686 0.0
C2960 C 0.36086 0.75486 0.37161 0.0
H2961 H 0.37294 0.81181 0.31393 0.0
H2962 H 0.36694 0.78551 0.3228 0.0
H2963 H 0.35717 0.77936 0.37392 0.0
H2964 H 0.37199 0.70346 0.39907 0.0
H2965 H 0.37382 0.73072 0.391 0.0
H2966 H 0.37901 0.73742 0.34095 0.0
C2967 C 0.37017 0.79428 0.3314 0.0
C2968 C 0.36211 0.77034 0.36668 0.0
C2969 C 0.3735 0.80939 0.32632 0.0
C2970 C 0.36865 0.70646 0.38725 0.0
C2971 C 0.3696 0.72207 0.38268 0.0
C2972 C 0.37412 0.74649 0.34818 0.0
C2973 C 0.37131 0.79049 0.34732 0.0
C2974 C 0.36947 0.77405 0.35247 0.0
C2975 C 0.36543 0.72639 0.36742 0.0
C2976 C 0.36682 0.74281 0.36237 0.0
H2977 H 0.3815 0.82636 0.36158 0.0
H2978 H 0.37613 0.79987 0.37044 0.0
H2979 H 0.38159 0.76436 0.33252 0.0
H2980 H 0.35491 0.69075 0.35304 0.0
H2981 H 0.35676 0.71792 0.34507 0.0
C2982 C 0.02877 0.61082 0.14925 0.0
C2983 C 0.0389 0.6107 0.13635 0.0
C2984 C 0.01287 0.60664 0.14749 0.0
C2985 C 0.98187 0.60598 0.11765 0.0
H2986 H 0.95752 0.5845 0.1494 0.0
C2987 C 0.9151 0.6017 0.11173 0.0
C2988 C 0.90695 0.60661 0.12504 0.0
C2989 C 0.93092 0.59759 0.11281 0.0
C2990 C 0.96418 0.59049 0.14043 0.0
H2991 H 0.04051 0.60544 0.11165 0.0
H2992 H 0.01276 0.59805 0.10861 0.0
H2993 H 0.98628 0.58623 0.15183 0.0
H2994 H 0.90859 0.60985 0.1501 0.0
H2995 H 0.93633 0.60304 0.15193 0.0
H2996 H 0.95992 0.61081 0.10653 0.0
C2997 C 0.01706 0.6016 0.12002 0.0
C2998 C 0.98062 0.5915 0.14183 0.0
C2999 C 0.03295 0.60582 0.12177 0.0
C3000 C 0.91458 0.60615 0.13963 0.0
C3001 C 0.93047 0.60218 0.14069 0.0
C3002 C 0.9655 0.60499 0.11626 0.0
C3003 C 0.00679 0.60222 0.1328 0.0
C3004 C -0.01041 0.59952 0.13059 0.0
C3005 C 0.93897 0.59846 0.12718 0.0
C3006 C 0.95643 0.5975 0.12777 0.0
H3007 H 0.03304 0.61449 0.16065 0.0
H3008 H 0.00522 0.60743 0.15752 0.0
H3009 H 0.9884 0.61247 0.10893 0.0
H3010 H 0.90945 0.60169 0.10035 0.0
H3011 H 0.93704 0.5944 0.10225 0.0
C3012 C 0.12188 0.28265 0.89474 0.0
C3013 C 0.12553 0.29228 0.88198 0.0
C3014 C 0.12352 0.26651 0.89363 0.0
C3015 C 0.14159 0.23569 0.86925 0.0
H3016 H 0.10626 0.21032 0.8834 0.0
C3017 C 0.12068 0.17938 0.8398 0.0
C3018 C 0.11442 0.16719 0.84885 0.0
C3019 C 0.12605 0.19313 0.84686 0.0
C3020 C 0.11641 0.21717 0.87971 0.0
H3021 H 0.13392 0.29249 0.8581 0.0
H3022 H 0.13639 0.26447 0.85607 0.0
H3023 H 0.10761 0.23785 0.89023 0.0
H3024 H 0.10975 0.15942 0.87246 0.0
H3025 H 0.11892 0.18369 0.88482 0.0
H3026 H 0.14983 0.21513 0.85793 0.0
C3027 C 0.1326 0.26935 0.86706 0.0
C3028 C 0.11719 0.23296 0.88362 0.0
C3029 C 0.13101 0.28544 0.86817 0.0
C3030 C 0.11451 0.16864 0.86519 0.0
C3031 C 0.11969 0.18252 0.87226 0.0
C3032 C 0.14075 0.21993 0.86526 0.0
C3033 C 0.12883 0.25968 0.87974 0.0
C3034 C 0.12948 0.24251 0.87795 0.0
C3035 C 0.12511 0.19503 0.86311 0.0
C3036 C 0.12787 0.21066 0.87001 0.0
H3037 H 0.11773 0.28757 0.90559 0.0
H3038 H 0.12061 0.25938 0.90364 0.0
H3039 H 0.15142 0.24267 0.86503 0.0
H3040 H 0.12086 0.17854 0.82719 0.0
H3041 H 0.13003 0.20262 0.8395 0.0
C3042 C 0.56648 0.38004 0.60165 0.0
C3043 C 0.5761 0.37579 0.61431 0.0
C3044 C 0.55075 0.38389 0.604 0.0
C3045 C 0.5207 0.39232 0.63417 0.0
H3046 H 0.49287 0.37015 0.60533 0.0
C3047 C 0.45635 0.37475 0.64815 0.0
C3048 C 0.44519 0.3748 0.63595 0.0
C3049 C 0.47219 0.37833 0.64523 0.0
C3050 C 0.50042 0.37669 0.61332 0.0
H3051 H 0.57709 0.37321 0.63946 0.0
H3052 H 0.5495 0.37956 0.64353 0.0
H3053 H 0.52105 0.37072 0.6007 0.0
H3054 H 0.44167 0.37943 0.61131 0.0
H3055 H 0.46928 0.38581 0.60624 0.0
H3056 H 0.49993 0.39777 0.64708 0.0
C3057 C 0.55415 0.38013 0.63181 0.0
C3058 C 0.51661 0.37704 0.61065 0.0
C3059 C 0.56995 0.37641 0.62947 0.0
C3060 C 0.45003 0.37912 0.62092 0.0
C3061 C 0.46584 0.38275 0.61801 0.0
C3062 C 0.50444 0.39194 0.63686 0.0
C3063 C 0.54426 0.38342 0.61903 0.0
C3064 C 0.52697 0.38465 0.62115 0.0
C3065 C 0.47714 0.38206 0.63006 0.0
C3066 C 0.49417 0.38392 0.62657 0.0
H3067 H 0.57094 0.37992 0.58984 0.0
H3068 H 0.54352 0.38672 0.59396 0.0
H3069 H 0.52838 0.39842 0.64238 0.0
H3070 H 0.45295 0.3715 0.65987 0.0
H3071 H 0.48064 0.37755 0.65472 0.0
C3072 C 0.11453 0.35268 0.27935 0.0
C3073 C 0.09912 0.35261 0.28526 0.0
C3074 C 0.1171 0.35066 0.26342 0.0
C3075 C 0.09753 0.35709 0.22598 0.0
H3076 H 0.13485 0.33724 0.20985 0.0
C3077 C 0.11664 0.36681 0.16274 0.0
C3078 C 0.1323 0.37233 0.1618 0.0
C3079 C 0.11127 0.35949 0.1763 0.0
C3080 C 0.12432 0.34274 0.21417 0.0
H3081 H 0.07433 0.34971 0.27923 0.0
H3082 H 0.07884 0.34613 0.25136 0.0
H3083 H 0.12757 0.33351 0.23712 0.0
H3084 H 0.15493 0.37348 0.17378 0.0
H3085 H 0.1456 0.36083 0.19737 0.0
H3086 H 0.09465 0.36689 0.20327 0.0
C3087 C 0.08892 0.34792 0.25904 0.0
C3088 C 0.12018 0.34064 0.22977 0.0
C3089 C 0.08634 0.34995 0.27499 0.0
C3090 C 0.14276 0.36945 0.1742 0.0
C3091 C 0.13744 0.36207 0.18768 0.0
C3092 C 0.10165 0.35917 0.21038 0.0
C3093 C 0.10431 0.34849 0.25305 0.0
C3094 C 0.10707 0.34827 0.23598 0.0
C3095 C 0.12152 0.35746 0.18908 0.0
C3096 C 0.11541 0.35248 0.20447 0.0
H3097 H 0.12462 0.35466 0.28697 0.0
H3098 H 0.12909 0.35141 0.25917 0.0
H3099 H 0.08744 0.36325 0.23041 0.0
H3100 H 0.10833 0.36879 0.15331 0.0
H3101 H 0.09898 0.35591 0.17701 0.0
C3102 C 0.35876 0.40651 0.92537 0.0
C3103 C 0.35606 0.39585 0.91315 0.0
C3104 C 0.36068 0.40129 0.94067 0.0
C3105 C 0.3682 0.36586 0.96433 0.0
H3106 H 0.3483 0.38986 -0.00307 0.0
C3107 C 0.35921 0.34288 0.02703 0.0
C3108 C 0.36404 0.35309 0.03905 0.0
C3109 C 0.35837 0.34809 0.01162 0.0
C3110 C 0.35399 0.38311 0.98795 0.0
H3111 H 0.35361 0.37131 0.90734 0.0
H3112 H 0.35653 0.36223 0.93404 0.0
H3113 H 0.3472 0.39896 0.97005 0.0
H3114 H 0.37142 0.37685 0.04439 0.0
H3115 H 0.36971 0.38595 0.01751 0.0
H3116 H 0.37462 0.34982 0.98232 0.0
C3117 C 0.3575 0.37462 0.93181 0.0
C3118 C 0.35346 0.38835 0.97255 0.0
C3119 C 0.35576 0.37983 0.91649 0.0
C3120 C 0.3677 0.36868 0.03539 0.0
C3121 C 0.36666 0.37392 0.02003 0.0
C3122 C 0.36857 0.36054 0.97971 0.0
C3123 C 0.35976 0.3853 0.94413 0.0
C3124 C 0.36059 0.37981 0.96055 0.0
C3125 C 0.36213 0.36364 0.00799 0.0
C3126 C 0.3615 0.36913 -0.00834 0.0
H3127 H 0.35919 0.41892 0.92316 0.0
H3128 H 0.36276 0.40982 0.94981 0.0
H3129 H 0.37403 0.35911 0.95544 0.0
H3130 H 0.35635 0.33079 0.02947 0.0
H3131 H 0.35471 0.33997 0.00254 0.0
C3132 C 0.35319 0.61233 0.66203 0.0
C3133 C 0.33733 0.60728 0.66123 0.0
C3134 C 0.35907 0.61981 0.67542 0.0
C3135 C 0.3469 0.63913 0.71213 0.0
H3136 H 0.38451 0.6205 0.72946 0.0
C3137 C 0.35857 0.63376 0.77756 0.0
C3138 C 0.37414 0.63418 0.78329 0.0
C3139 C 0.35556 0.63512 0.76161 0.0
C3140 C 0.37422 0.62614 0.72467 0.0
H3141 H 0.31505 0.60675 0.67358 0.0
H3142 H 0.32531 0.6196 0.69688 0.0
H3143 H 0.3765 0.61438 0.70281 0.0
H3144 H 0.39872 0.63729 0.77692 0.0
H3145 H 0.39344 0.63967 0.74898 0.0
H3146 H 0.34425 0.65034 0.73427 0.0
C3147 C 0.33319 0.61793 0.68715 0.0
C3148 C 0.36962 0.62262 0.70938 0.0
C3149 C 0.32735 0.6104 0.67383 0.0
C3150 C 0.3866 0.63681 0.77283 0.0
C3151 C 0.38359 0.63813 0.75684 0.0
C3152 C 0.35151 0.64267 0.72742 0.0
C3153 C 0.34916 0.62248 0.6882 0.0
C3154 C 0.3556 0.62862 0.70316 0.0
C3155 C 0.36806 0.63691 0.75103 0.0
C3156 C 0.3649 0.63575 0.73403 0.0
H3157 H 0.36118 0.61018 0.65248 0.0
H3158 H 0.37141 0.62328 0.67588 0.0
H3159 H 0.33619 0.64415 0.70753 0.0
H3160 H 0.34871 0.63181 0.78533 0.0
H3161 H 0.34348 0.63393 0.75751 0.0
C3162 C 0.10167 0.65132 0.51954 0.0
C3163 C 0.09995 0.63871 0.52983 0.0
C3164 C 0.099 0.64929 0.50355 0.0
C3165 C 0.08172 0.62142 0.47436 0.0
H3166 H 0.11219 0.64085 0.44674 0.0
C3167 C 0.10191 0.59613 0.41615 0.0
C3168 C 0.10655 0.60632 0.40419 0.0
C3169 C 0.09603 0.60195 0.43012 0.0
C3170 C 0.10333 0.63562 0.45422 0.0
H3171 H 0.09406 0.61409 0.53144 0.0
H3172 H 0.08999 0.61041 0.50358 0.0
H3173 H 0.11254 0.64751 0.47427 0.0
H3174 H 0.10724 0.63047 0.39682 0.0
H3175 H 0.09707 0.64067 0.42135 0.0
H3176 H 0.07322 0.6088 0.45429 0.0
C3177 C 0.09294 0.62199 0.50784 0.0
C3178 C 0.10354 0.63942 0.47005 0.0
C3179 C 0.09545 0.62405 0.52382 0.0
C3180 C 0.10382 0.62234 0.40587 0.0
C3181 C 0.09809 0.62819 0.41993 0.0
C3182 C 0.08162 0.6175 0.45852 0.0
C3183 C 0.09472 0.63457 0.49749 0.0
C3184 C 0.09303 0.63205 0.48039 0.0
C3185 C 0.09482 0.61809 0.43241 0.0
C3186 C 0.0927 0.62427 0.44839 0.0
H3187 H 0.10495 0.66281 0.52383 0.0
H3188 H 0.10028 0.65928 0.49595 0.0
H3189 H 0.07322 0.61579 0.48194 0.0
H3190 H 0.10378 0.58371 0.41512 0.0
H3191 H 0.09367 0.59389 0.43955 0.0
C3192 C 0.12826 0.63584 0.19565 0.0
C3193 C 0.11586 0.62702 0.18892 0.0
C3194 C 0.13159 0.63468 0.21159 0.0
C3195 C 0.1425 0.6227 0.24293 0.0
H3196 H 0.10896 0.6151 0.27262 0.0
C3197 C 0.15477 0.59822 0.30393 0.0
C3198 C 0.14539 0.60294 0.31648 0.0
C3199 C 0.15126 0.60293 0.28877 0.0
C3200 C 0.11848 0.61745 0.26456 0.0
H3201 H 0.09726 0.61004 0.19359 0.0
H3202 H 0.1034 0.60762 0.2212 0.0
H3203 H 0.10237 0.62058 0.24556 0.0
H3204 H 0.12521 0.61668 0.32301 0.0
H3205 H 0.11931 0.62527 0.29652 0.0
H3206 H 0.15859 0.61996 0.26199 0.0
C3207 C 0.11029 0.61577 0.21432 0.0
C3208 C 0.1147 0.62036 0.24897 0.0
C3209 C 0.10684 0.61706 0.19844 0.0
C3210 C 0.13259 0.61276 0.31357 0.0
C3211 C 0.12917 0.61761 0.29838 0.0
C3212 C 0.14627 0.61995 0.25854 0.0
C3213 C 0.12271 0.62455 0.2211 0.0
C3214 C 0.12667 0.62272 0.2379 0.0
C3215 C 0.13839 0.61263 0.28578 0.0
C3216 C 0.13432 0.61699 0.26949 0.0
H3217 H 0.13533 0.64373 0.18864 0.0
H3218 H 0.14109 0.6418 0.21645 0.0
H3219 H 0.15205 0.62434 0.23473 0.0
H3220 H 0.16466 0.59057 0.30575 0.0
H3221 H 0.15843 0.59861 0.27934 0.0
C3222 C 0.12951 0.38516 0.06876 0.0
C3223 C 0.13254 0.40107 0.07148 0.0
C3224 C 0.12397 0.38002 0.0542 0.0
C3225 C 0.12326 0.39268 0.01309 0.0
H3226 H 0.09555 0.35667 0.00743 0.0
C3227 C 0.10445 0.37263 0.95211 0.0
C3228 C 0.10742 0.3569 0.94891 0.0
C3229 C 0.10447 0.37809 0.96745 0.0
C3230 C 0.10329 0.36675 0.00888 0.0
H3231 H 0.13126 0.42417 0.06143 0.0
H3232 H 0.12113 0.41532 0.03627 0.0
H3233 H 0.10122 0.36643 0.03376 0.0
H3234 H 0.11171 0.33433 0.9593 0.0
H3235 H 0.11177 0.34392 0.98617 0.0
H3236 H 0.12539 0.39299 0.98828 0.0
C3237 C 0.12353 0.40671 0.04515 0.0
C3238 C 0.10659 0.3723 0.02393 0.0
C3239 C 0.12928 0.4118 0.0596 0.0
C3240 C 0.10945 0.34654 0.96141 0.0
C3241 C 0.1094 0.352 0.97678 0.0
C3242 C 0.11983 0.38724 -0.0019 0.0
C3243 C 0.12116 0.39073 0.04214 0.0
C3244 C 0.11675 0.38526 0.02621 0.0
C3245 C 0.10741 0.36791 0.9799 0.0
C3246 C 0.10993 0.37416 -0.00416 0.0
H3247 H 0.13193 0.3766 0.0777 0.0
H3248 H 0.12244 0.36763 0.05225 0.0
H3249 H 0.13142 0.40244 0.01437 0.0
H3250 H 0.10271 0.38089 0.94275 0.0
H3251 H 0.10268 0.39038 0.96955 0.0
C3252 C 0.36927 0.35984 0.81844 0.0
C3253 C 0.35379 0.3641 0.8221 0.0
C3254 C 0.37272 0.3541 0.80361 0.0
C3255 C 0.35563 0.33989 0.76618 0.0
H3256 H 0.38718 0.36729 0.74783 0.0
C3257 C 0.35885 0.35061 0.69991 0.0
C3258 C 0.37369 0.35336 0.69318 0.0
C3259 C 0.3574 0.34921 0.71608 0.0
C3260 C 0.37859 0.35927 0.75274 0.0
H3261 H 0.32954 0.36411 0.81382 0.0
H3262 H 0.33555 0.35395 0.78803 0.0
H3263 H 0.3833 0.36761 0.77583 0.0
H3264 H 0.39872 0.35636 0.69806 0.0
H3265 H 0.39628 0.35351 0.72613 0.0
H3266 H 0.35076 0.33168 0.74301 0.0
C3267 C 0.34503 0.35514 0.79652 0.0
C3268 C 0.37638 0.35945 0.76884 0.0
C3269 C 0.34161 0.36103 0.81126 0.0
C3270 C 0.38707 0.35448 0.70291 0.0
C3271 C 0.38567 0.35286 0.71903 0.0
C3272 C 0.35796 0.33957 0.75005 0.0
C3273 C 0.36072 0.35234 0.79231 0.0
C3274 C 0.36466 0.35002 0.77568 0.0
C3275 C 0.3708 0.35033 0.72585 0.0
C3276 C 0.36923 0.34952 0.7431 0.0
H3277 H 0.37889 0.36204 0.82659 0.0
H3278 H 0.38489 0.35185 0.80069 0.0
H3279 H 0.34655 0.33246 0.77119 0.0
H3280 H 0.34831 0.3497 0.69271 0.0
H3281 H 0.34573 0.34755 0.72093 0.0
C3282 C 0.38703 0.65225 0.46347 0.0
C3283 C 0.3846 0.64014 0.45262 0.0
C3284 C 0.39001 0.64888 0.47916 0.0
C3285 C 0.3983 0.61616 0.50675 0.0
H3286 H 0.37119 0.63939 0.53428 0.0
C3287 C 0.36755 0.59051 0.56041 0.0
C3288 C 0.36523 0.60003 0.57351 0.0
C3289 C 0.37516 0.59641 0.54724 0.0
C3290 C 0.37912 0.63298 0.52687 0.0
H3291 H 0.38438 0.61505 0.4495 0.0
H3292 H 0.38908 0.60919 0.47674 0.0
H3293 H 0.37532 0.64842 0.5078 0.0
H3294 H 0.36996 0.6229 0.58349 0.0
H3295 H 0.38309 0.63326 0.56038 0.0
H3296 H 0.40115 0.60014 0.52567 0.0
C3297 C 0.38899 0.62129 0.47324 0.0
C3298 C 0.38153 0.63819 0.51165 0.0
C3299 C 0.38613 0.62466 0.45758 0.0
C3300 C 0.37149 0.6153 0.57353 0.0
C3301 C 0.37897 0.62125 0.56031 0.0
C3302 C 0.39575 0.61087 0.52194 0.0
C3303 C 0.39052 0.63334 0.48431 0.0
C3304 C 0.3907 0.62954 0.50123 0.0
C3305 C 0.38049 0.612 0.54689 0.0
C3306 C 0.38572 0.61897 0.53197 0.0
H3307 H 0.38608 0.6643 0.45995 0.0
H3308 H 0.3914 0.65844 0.48735 0.0
H3309 H 0.40571 0.60941 0.49913 0.0
H3310 H 0.36293 0.57867 0.56008 0.0
H3311 H 0.37602 0.58905 0.53702 0.0
C3312 C 0.15072 0.09403 0.36689 0.0
C3313 C 0.14745 0.11002 0.36734 0.0
C3314 C 0.16576 0.08897 0.3628 0.0
C3315 C 0.20339 0.10195 0.3447 0.0
H3316 H 0.22272 0.07409 0.37451 0.0
C3317 C 0.27003 0.10137 0.35652 0.0
C3318 C 0.27727 0.08721 0.36007 0.0
C3319 C 0.25371 0.10196 0.35431 0.0
C3320 C 0.21744 0.08161 0.36587 0.0
H3321 H 0.15713 0.13318 0.3631 0.0
H3322 H 0.1832 0.1244 0.35608 0.0
H3323 H 0.19449 0.0788 0.37581 0.0
H3324 H 0.27319 0.06245 0.36354 0.0
H3325 H 0.24466 0.06349 0.35964 0.0
H3326 H 0.22646 0.1052 0.33513 0.0
C3327 C 0.1742 0.11574 0.35879 0.0
C3328 C 0.20126 0.0843 0.36661 0.0
C3329 C 0.15928 0.12078 0.36298 0.0
C3330 C 0.26793 0.07356 0.36091 0.0
C3331 C 0.25159 0.07415 0.35872 0.0
C3332 C 0.21957 0.09925 0.34395 0.0
C3333 C 0.17771 0.09982 0.35893 0.0
C3334 C 0.19416 0.09487 0.35634 0.0
C3335 C 0.24429 0.0884 0.35561 0.0
C3336 C 0.22685 0.08943 0.35483 0.0
H3337 H 0.14184 0.08546 0.37015 0.0
H3338 H 0.16813 0.07662 0.36291 0.0
H3339 H 0.19818 0.10996 0.33647 0.0
H3340 H 0.2769 0.11208 0.35578 0.0
H3341 H 0.24843 0.11315 0.35215 0.0
C3342 C 0.78855 0.39364 0.60295 0.0
C3343 C 0.7983 0.38213 0.60921 0.0
C3344 C 0.77221 0.39137 0.60239 0.0
C3345 C 0.73735 0.38702 0.60874 0.0
H3346 H 0.72177 0.34578 0.59746 0.0
C3347 C 0.67071 0.37167 0.60493 0.0
C3348 C 0.66589 0.36181 0.59264 0.0
C3349 C 0.68675 0.37426 0.60803 0.0
C3350 C 0.72593 0.3574 0.6005 0.0
H3351 H 0.79862 0.35947 0.62033 0.0
H3352 H 0.77007 0.35567 0.61972 0.0
H3353 H 0.74994 0.35028 0.60092 0.0
H3354 H 0.67399 0.34722 0.57372 0.0
H3355 H 0.7019 0.35207 0.57882 0.0
H3356 H 0.71334 0.39427 0.60759 0.0
C3357 C 0.77504 0.36628 0.61487 0.0
C3358 C 0.74208 0.35993 0.60273 0.0
C3359 C 0.79139 0.36848 0.61529 0.0
C3360 C 0.67736 0.35478 0.58336 0.0
C3361 C 0.69336 0.35747 0.58636 0.0
C3362 C 0.72118 0.38451 0.60638 0.0
C3363 C 0.76527 0.37761 0.60822 0.0
C3364 C 0.748 0.3748 0.60674 0.0
C3365 C 0.69825 0.36713 0.59881 0.0
C3366 C 0.71531 0.3697 0.60207 0.0
H3367 H 0.79356 0.40427 0.59815 0.0
H3368 H 0.76507 0.40024 0.59698 0.0
H3369 H 0.74151 0.39857 0.61204 0.0
H3370 H 0.6621 0.37718 0.61232 0.0
H3371 H 0.69012 0.38163 0.61781 0.0
C3372 C 0.36695 0.91427 0.37291 0.0
C3373 C 0.38254 0.91176 0.36818 0.0
C3374 C 0.36259 0.92882 0.37862 0.0
C3375 C 0.37744 0.9675 0.39196 0.0
H3376 H 0.34352 0.98305 0.366 0.0
C3377 C 0.36955 0.03291 0.38029 0.0
C3378 C 0.35423 0.0386 0.37819 0.0
C3379 C 0.372 0.01696 0.382 0.0
C3380 C 0.35278 0.9789 0.37363 0.0
H3381 H 0.40613 0.92189 0.36723 0.0
H3382 H 0.39855 0.94722 0.37727 0.0
H3383 H 0.34941 0.9555 0.36561 0.0
H3384 H 0.32942 0.03206 0.37671 0.0
H3385 H 0.33364 0.00432 0.38008 0.0
H3386 H 0.38097 -0.009 0.39978 0.0
C3387 C 0.38966 0.93803 0.37651 0.0
C3388 C 0.35614 0.96306 0.37341 0.0
C3389 C 0.39399 0.92354 0.37067 0.0
C3390 C 0.34139 0.02803 0.37809 0.0
C3391 C 0.34382 0.01211 0.38 0.0
C3392 C 0.37397 0.98336 0.3923 0.0
C3393 C 0.37379 0.94102 0.37985 0.0
C3394 C 0.36873 0.95726 0.38228 0.0
C3395 C 0.35916 0.00635 0.38185 0.0
C3396 C 0.36184 0.98931 0.38284 0.0
H3397 H 0.35788 0.90538 0.37119 0.0
H3398 H 0.35031 0.93079 0.3813 0.0
H3399 H 0.38715 0.9633 0.39898 0.0
H3400 H 0.37969 0.04076 0.38039 0.0
H3401 H 0.384 0.01293 0.3831 0.0
C3402 C 0.8057 0.64123 0.10438 0.0
C3403 C 0.81596 0.62885 0.10721 0.0
C3404 C 0.7894 0.63874 0.10434 0.0
C3405 C 0.75935 0.60907 0.09698 0.0
H3406 H 0.73199 0.63626 0.12028 0.0
C3407 C 0.69236 0.59724 0.10304 0.0
C3408 C 0.6824 0.61011 0.10403 0.0
C3409 C 0.70873 0.59939 0.10272 0.0
C3410 C 0.73942 0.62872 0.11348 0.0
H3411 H 0.81727 0.60419 0.11234 0.0
H3412 H 0.78864 0.59978 0.11204 0.0
H3413 H 0.76049 0.6402 0.12177 0.0
H3414 H 0.68165 0.63534 0.10452 0.0
H3415 H 0.71014 0.63913 0.10334 0.0
H3416 H 0.73834 0.59781 0.08834 0.0
C3417 C 0.79329 0.6114 0.1099 0.0
C3418 C 0.75574 0.63092 0.11444 0.0
C3419 C 0.80962 0.61395 0.11018 0.0
C3420 C 0.68906 0.62519 0.10394 0.0
C3421 C 0.70539 0.62735 0.10339 0.0
C3422 C 0.743 0.60697 0.09585 0.0
C3423 C 0.78307 0.62377 0.10692 0.0
C3424 C 0.76583 0.62112 0.10621 0.0
C3425 C 0.71544 0.61448 0.10317 0.0
C3426 C 0.73284 0.61679 0.10408 0.0
H3427 H 0.81027 0.65285 0.10207 0.0
H3428 H 0.78175 0.64844 0.10192 0.0
H3429 H 0.76692 0.60148 0.09038 0.0
H3430 H 0.68757 0.58547 0.10318 0.0
H3431 H 0.71609 0.58921 0.10271 0.0
C3432 C 0.61269 0.57644 0.37578 0.0
C3433 C 0.59733 0.57745 0.36962 0.0
C3434 C 0.61767 0.56268 0.38282 0.0
C3435 C 0.60425 0.52361 0.3967 0.0
H3436 H 0.64151 0.50944 0.37524 0.0
C3437 C 0.61409 0.45963 0.38142 0.0
C3438 C 0.6295 0.45396 0.38043 0.0
C3439 C 0.61154 0.47523 0.38506 0.0
C3440 C 0.63132 0.51324 0.38169 0.0
H3441 H 0.57469 0.56548 0.36736 0.0
H3442 H 0.58336 0.54154 0.37955 0.0
H3443 H 0.63442 0.53665 0.3738 0.0
H3444 H 0.65432 0.45997 0.3833 0.0
H3445 H 0.64985 0.48722 0.38984 0.0
H3446 H 0.60081 0.49999 0.40403 0.0
C3447 C 0.59159 0.5513 0.37899 0.0
C3448 C 0.62726 0.5289 0.38088 0.0
C3449 C 0.58664 0.565 0.37188 0.0
C3450 C 0.6423 0.46405 0.38381 0.0
C3451 C 0.63975 0.47966 0.38753 0.0
C3452 C 0.60836 0.50794 0.39758 0.0
C3453 C 0.60734 0.54976 0.38393 0.0
C3454 C 0.61336 0.53413 0.38787 0.0
C3455 C 0.62434 0.48551 0.38788 0.0
C3456 C 0.62161 0.50247 0.38957 0.0
H3457 H 0.62116 0.58589 0.3743 0.0
H3458 H 0.62983 0.56188 0.38671 0.0
H3459 H 0.59358 0.52737 0.40239 0.0
H3460 H 0.60398 0.45213 0.37892 0.0
H3461 H 0.59953 0.47937 0.38497 0.0
C3462 C 0.19699 0.89081 0.87602 0.0
C3463 C 0.18735 0.87803 0.87163 0.0
C3464 C 0.21338 0.88936 0.8769 0.0
C3465 C 0.24444 0.86033 0.8813 0.0
H3466 H 0.27167 0.89176 0.86259 0.0
C3467 C 0.31498 0.87702 0.87948 0.0
C3468 C 0.32081 0.86189 0.87773 0.0
C3469 C 0.29877 0.87971 0.87811 0.0
C3470 C 0.26423 0.88298 0.86801 0.0
H3471 H 0.18736 0.85363 0.86493 0.0
H3472 H 0.21591 0.85111 0.86653 0.0
H3473 H 0.24305 0.89505 0.86216 0.0
H3474 H 0.3144 0.83794 0.87213 0.0
H3475 H 0.28635 0.84269 0.86936 0.0
H3476 H 0.26547 0.84829 0.88728 0.0
C3477 C 0.21078 0.86223 0.86935 0.0
C3478 C 0.24786 0.88486 0.86777 0.0
C3479 C 0.19443 0.86371 0.86837 0.0
C3480 C 0.31026 0.8497 0.87378 0.0
C3481 C 0.29415 0.8524 0.87229 0.0
C3482 C 0.26075 0.85848 0.8816 0.0
C3483 C 0.22043 0.87506 0.87353 0.0
C3484 C 0.23781 0.87347 0.87429 0.0
C3485 C 0.28816 0.86733 0.87486 0.0
C3486 C 0.27084 0.86969 0.87481 0.0
H3487 H 0.19193 0.90202 0.87859 0.0
H3488 H 0.22052 0.89939 0.88032 0.0
H3489 H 0.237 0.8515 0.88666 0.0
H3490 H 0.32283 0.88665 0.88256 0.0
H3491 H 0.29451 0.89135 0.88019 0.0
C3492 C 0.34509 0.95495 0.10704 0.0
C3493 C 0.35543 0.94371 0.10135 0.0
C3494 C 0.34942 0.97069 0.10691 0.0
C3495 C 0.38556 -0.0045 0.1057 0.0
H3496 H 0.35488 0.02844 0.10707 0.0
C3497 C 0.40059 0.05438 0.13382 0.0
C3498 C 0.39333 0.0679 0.12836 0.0
C3499 C 0.39617 0.03982 0.12787 0.0
C3500 C 0.36369 0.01948 0.10643 0.0
H3501 H 0.3778 0.94009 0.08997 0.0
H3502 H 0.38504 0.96764 0.0889 0.0
H3503 H 0.34641 0.00226 0.09983 0.0
H3504 H 0.37602 0.07687 0.11209 0.0
H3505 H 0.3687 0.05147 0.10122 0.0
H3506 H 0.40293 0.01279 0.11171 0.0
C3507 C 0.37389 0.96433 0.09413 0.0
C3508 C 0.35877 0.00435 0.10252 0.0
C3509 C 0.36972 0.94854 0.09462 0.0
C3510 C 0.38173 0.06661 0.11661 0.0
C3511 C 0.37749 0.05203 0.11044 0.0
C3512 C 0.39052 0.01066 0.10929 0.0
C3513 C 0.36405 0.97558 0.10076 0.0
C3514 C 0.36955 -0.00794 0.10259 0.0
C3515 C 0.38458 0.03842 0.11608 0.0
C3516 C 0.37958 0.02276 0.11023 0.0
H3517 H 0.33401 0.95151 0.11237 0.0
H3518 H 0.34158 0.97889 0.11235 0.0
H3519 H 0.39426 0.98642 0.10605 0.0
H3520 H 0.40946 0.05499 0.14298 0.0
H3521 H 0.40162 0.02963 0.13283 0.0
C3522 C 0.07046 0.92695 0.61761 0.0
C3523 C 0.08098 0.91457 0.61929 0.0
C3524 C 0.07559 0.94115 0.61141 0.0
C3525 C 0.11137 0.96493 0.60871 0.0
H3526 H 0.08505 -0.00854 0.58326 0.0
C3527 C 0.12893 0.0288 0.59742 0.0
C3528 C 0.11679 0.03944 0.59997 0.0
C3529 C 0.12549 0.01289 0.59595 0.0
C3530 C 0.09254 0.98418 0.59037 0.0
H3531 H 0.10495 0.90716 0.61503 0.0
H3532 H 0.11388 0.93201 0.60423 0.0
H3533 H 0.07717 0.96431 0.58748 0.0
H3534 H 0.09147 0.04187 0.60233 0.0
H3535 H 0.0855 0.01417 0.60007 0.0
H3536 H 0.12638 0.98488 0.61221 0.0
C3537 C 0.10171 0.93073 0.60785 0.0
C3538 C 0.08804 0.96866 0.59276 0.0
C3539 C 0.09657 0.91649 0.61399 0.0
C3540 C 0.10109 0.03395 0.6004 0.0
C3541 C 0.09766 0.01807 0.59897 0.0
C3542 C 0.11585 0.98045 0.60637 0.0
C3543 C 0.09135 0.9433 0.6068 0.0
C3544 C 0.0972 0.95899 0.60229 0.0
C3545 C 0.10984 0.00732 0.59703 0.0
C3546 C 0.10626 0.99036 0.59752 0.0
H3547 H 0.05836 0.92585 0.6215 0.0
H3548 H 0.06736 0.95067 0.61091 0.0
H3549 H 0.11859 0.95783 0.61627 0.0
H3550 H 0.14113 0.0327 0.59692 0.0
H3551 H 0.1351 0.00492 0.59426 0.0
loop_
_geom_bond_atom_site_label_1
_geom_bond_atom_site_label_2
_geom_bond_distance
_geom_bond_site_symmetry_2
_ccdc_geom_bond_type
C0 O1 1.306 . S
C0 O3 1.160 . S
O1 C0 1.306 . S
O1 Cd2 2.228 . S
Cd2 O1 2.228 . S
Cd2 O6 2.273 . S
Cd2 O10 2.277 . S
O3 C0 1.160 . S
O3 Cd4 2.203 . S
Cd4 O3 2.203 . S
Cd4 O6 2.411 . S
Cd4 O7 2.333 . S
Cd4 O8 2.352 . S
Cd4 O12 2.277 . S
Cd4 O13 2.356 . S
C5 O10 1.209 . S
C5 O12 1.226 . S
O6 Cd2 2.273 . S
O6 Cd4 2.411 . S
O6 C9 1.320 . S
O7 Cd4 2.333 . S
O7 C9 1.214 . S
O8 Cd4 2.352 . S
O8 C11 1.258 . S
C9 O6 1.320 . S
C9 O7 1.214 . S
O10 Cd2 2.277 . S
O10 C5 1.209 . S
C11 O8 1.258 . S
C11 O13 1.282 . S
O12 Cd4 2.277 . S
O12 C5 1.226 . S
O13 Cd4 2.356 . S
O13 C11 1.282 . S
C14 O15 1.306 . S
C14 O17 1.160 . S
O15 C14 1.306 . S
O15 Cd16 2.228 . S
Cd16 O15 2.228 . S
Cd16 O20 2.273 . S
Cd16 O24 2.277 . S
O17 C14 1.160 . S
O17 Cd18 2.203 . S
Cd18 O17 2.203 . S
Cd18 O20 2.411 . S
Cd18 O21 2.333 . S
Cd18 O22 2.352 . S
Cd18 O26 2.277 . S
Cd18 O27 2.356 . S
C19 O24 1.209 . S
C19 O26 1.226 . S
O20 Cd16 2.273 . S
O20 Cd18 2.411 . S
O20 C23 1.320 . S
O21 Cd18 2.333 . S
O21 C23 1.214 . S
O22 Cd18 2.352 . S
O22 C25 1.258 . S
C23 O20 1.320 . S
C23 O21 1.214 . S
O24 Cd16 2.277 . S
O24 C19 1.209 . S
C25 O22 1.258 . S
C25 O27 1.282 . S
O26 Cd18 2.277 . S
O26 C19 1.226 . S
O27 Cd18 2.356 . S
O27 C25 1.282 . S
C28 O29 1.306 . S
C28 O31 1.160 . S
O29 C28 1.306 . S
O29 Cd30 2.228 . S
Cd30 O29 2.228 . S
Cd30 O34 2.273 . S
Cd30 O38 2.277 . S
O31 C28 1.160 . S
O31 Cd32 2.203 . S
Cd32 O31 2.203 . S
Cd32 O34 2.411 . S
Cd32 O35 2.333 . S
Cd32 O36 2.352 . S
Cd32 O40 2.277 . S
Cd32 O41 2.356 . S
C33 O38 1.209 . S
C33 O40 1.226 . S
O34 Cd30 2.273 . S
O34 Cd32 2.411 . S
O34 C37 1.320 . S
O35 Cd32 2.333 . S
O35 C37 1.214 . S
O36 Cd32 2.352 . S
O36 C39 1.258 . S
C37 O34 1.320 . S
C37 O35 1.214 . S
O38 Cd30 2.277 . S
O38 C33 1.209 . S
C39 O36 1.258 . S
C39 O41 1.282 . S
O40 Cd32 2.277 . S
O40 C33 1.226 . S
O41 Cd32 2.356 . S
O41 C39 1.282 . S
C42 O43 1.306 . S
C42 O45 1.160 . S
O43 C42 1.306 . S
O43 Cd44 2.228 . S
Cd44 O43 2.228 . S
Cd44 O48 2.273 . S
Cd44 O52 2.277 . S
O45 C42 1.160 . S
O45 Cd46 2.203 . S
Cd46 O45 2.203 . S
Cd46 O48 2.411 . S
Cd46 O49 2.333 . S
Cd46 O50 2.352 . S
Cd46 O54 2.277 . S
Cd46 O55 2.356 . S
C47 O52 1.209 . S
C47 O54 1.226 . S
O48 Cd44 2.273 . S
O48 Cd46 2.411 . S
O48 C51 1.320 . S
O49 Cd46 2.333 . S
O49 C51 1.214 . S
O50 Cd46 2.352 . S
O50 C53 1.258 . S
C51 O48 1.320 . S
C51 O49 1.214 . S
O52 Cd44 2.277 . S
O52 C47 1.209 . S
C53 O50 1.258 . S
C53 O55 1.282 . S
O54 Cd46 2.277 . S
O54 C47 1.226 . S
O55 Cd46 2.356 . S
O55 C53 1.282 . S
C56 O57 1.306 . S
C56 O59 1.160 . S
O57 C56 1.306 . S
O57 Cd58 2.228 . S
Cd58 O57 2.228 . S
Cd58 O62 2.273 . S
Cd58 O66 2.277 . S
O59 C56 1.160 . S
O59 Cd60 2.203 . S
Cd60 O59 2.203 . S
Cd60 O62 2.411 . S
Cd60 O63 2.333 . S
Cd60 O64 2.352 . S
Cd60 O68 2.277 . S
Cd60 O69 2.356 . S
C61 O66 1.209 . S
C61 O68 1.226 . S
O62 Cd58 2.273 . S
O62 Cd60 2.411 . S
O62 C65 1.320 . S
O63 Cd60 2.333 . S
O63 C65 1.214 . S
O64 Cd60 2.352 . S
O64 C67 1.258 . S
C65 O62 1.320 . S
C65 O63 1.214 . S
O66 Cd58 2.277 . S
O66 C61 1.209 . S
C67 O64 1.258 . S
C67 O69 1.282 . S
O68 Cd60 2.277 . S
O68 C61 1.226 . S
O69 Cd60 2.356 . S
O69 C67 1.282 . S
C70 O71 1.306 . S
C70 O73 1.160 . S
O71 C70 1.306 . S
O71 Cd72 2.228 . S
Cd72 O71 2.228 . S
Cd72 O76 2.273 . S
Cd72 O80 2.277 . S
O73 C70 1.160 . S
O73 Cd74 2.203 . S
Cd74 O73 2.203 . S
Cd74 O76 2.411 . S
Cd74 O77 2.333 . S
Cd74 O78 2.352 . S
Cd74 O82 2.277 . S
Cd74 O83 2.356 . S
C75 O80 1.209 . S
C75 O82 1.226 . S
O76 Cd72 2.273 . S
O76 Cd74 2.411 . S
O76 C79 1.320 . S
O77 Cd74 2.333 . S
O77 C79 1.214 . S
O78 Cd74 2.352 . S
O78 C81 1.258 . S
C79 O76 1.320 . S
C79 O77 1.214 . S
O80 Cd72 2.277 . S
O80 C75 1.209 . S
C81 O78 1.258 . S
C81 O83 1.282 . S
O82 Cd74 2.277 . S
O82 C75 1.226 . S
O83 Cd74 2.356 . S
O83 C81 1.282 . S
C84 O85 1.306 . S
C84 O87 1.160 . S
O85 C84 1.306 . S
O85 Cd86 2.228 . S
Cd86 O85 2.228 . S
Cd86 O90 2.273 . S
Cd86 O94 2.277 . S
O87 C84 1.160 . S
O87 Cd88 2.203 . S
Cd88 O87 2.203 . S
Cd88 O90 2.411 . S
Cd88 O91 2.333 . S
Cd88 O92 2.352 . S
Cd88 O96 2.277 . S
Cd88 O97 2.356 . S
C89 O94 1.209 . S
C89 O96 1.226 . S
O90 Cd86 2.273 . S
O90 Cd88 2.411 . S
O90 C93 1.320 . S
O91 Cd88 2.333 . S
O91 C93 1.214 . S
O92 Cd88 2.352 . S
O92 C95 1.258 . S
C93 O90 1.320 . S
C93 O91 1.214 . S
O94 Cd86 2.277 . S
O94 C89 1.209 . S
C95 O92 1.258 . S
C95 O97 1.282 . S
O96 Cd88 2.277 . S
O96 C89 1.226 . S
O97 Cd88 2.356 . S
O97 C95 1.282 . S
C98 O99 1.306 . S
C98 O101 1.160 . S
O99 C98 1.306 . S
O99 Cd100 2.228 . S
Cd100 O99 2.228 . S
Cd100 O104 2.273 . S
Cd100 O108 2.277 . S
O101 C98 1.160 . S
O101 Cd102 2.203 . S
Cd102 O101 2.203 . S
Cd102 O104 2.411 . S
Cd102 O105 2.333 . S
Cd102 O106 2.352 . S
Cd102 O110 2.277 . S
Cd102 O111 2.356 . S
C103 O108 1.209 . S
C103 O110 1.226 . S
O104 Cd100 2.273 . S
O104 Cd102 2.411 . S
O104 C107 1.320 . S
O105 Cd102 2.333 . S
O105 C107 1.214 . S
O106 Cd102 2.352 . S
O106 C109 1.258 . S
C107 O104 1.320 . S
C107 O105 1.214 . S
O108 Cd100 2.277 . S
O108 C103 1.209 . S
C109 O106 1.258 . S
C109 O111 1.282 . S
O110 Cd102 2.277 . S
O110 C103 1.226 . S
O111 Cd102 2.356 . S
O111 C109 1.282 . S
C112 O113 1.306 . S
C112 O115 1.160 . S
O113 C112 1.306 . S
O113 Cd114 2.228 . S
Cd114 O113 2.228 . S
Cd114 O118 2.273 . S
Cd114 O122 2.277 . S
O115 C112 1.160 . S
O115 Cd116 2.203 . S
Cd116 O115 2.203 . S
Cd116 O118 2.411 . S
Cd116 O119 2.333 . S
Cd116 O120 2.352 . S
Cd116 O124 2.277 . S
Cd116 O125 2.356 . S
C117 O122 1.209 . S
C117 O124 1.226 . S
O118 Cd114 2.273 . S
O118 Cd116 2.411 . S
O118 C121 1.320 . S
O119 Cd116 2.333 . S
O119 C121 1.214 . S
O120 Cd116 2.352 . S
O120 C123 1.258 . S
C121 O118 1.320 . S
C121 O119 1.214 . S
O122 Cd114 2.277 . S
O122 C117 1.209 . S
C123 O120 1.258 . S
C123 O125 1.282 . S
O124 Cd116 2.277 . S
O124 C117 1.226 . S
O125 Cd116 2.356 . S
O125 C123 1.282 . S
C126 O127 1.306 . S
C126 O129 1.160 . S
O127 C126 1.306 . S
O127 Cd128 2.228 . S
Cd128 O127 2.228 . S
Cd128 O132 2.273 . S
Cd128 O136 2.277 . S
O129 C126 1.160 . S
O129 Cd130 2.203 . S
Cd130 O129 2.203 . S
Cd130 O132 2.411 . S
Cd130 O133 2.333 . S
Cd130 O134 2.352 . S
Cd130 O138 2.277 . S
Cd130 O139 2.356 . S
C131 O136 1.209 . S
C131 O138 1.226 . S
O132 Cd128 2.273 . S
O132 Cd130 2.411 . S
O132 C135 1.320 . S
O133 Cd130 2.333 . S
O133 C135 1.214 . S
O134 Cd130 2.352 . S
O134 C137 1.258 . S
C135 O132 1.320 . S
C135 O133 1.214 . S
O136 Cd128 2.277 . S
O136 C131 1.209 . S
C137 O134 1.258 . S
C137 O139 1.282 . S
O138 Cd130 2.277 . S
O138 C131 1.226 . S
O139 Cd130 2.356 . S
O139 C137 1.282 . S
C140 O141 1.306 . S
C140 O143 1.160 . S
O141 C140 1.306 . S
O141 Cd142 2.228 . S
Cd142 O141 2.228 . S
Cd142 O146 2.273 . S
Cd142 O150 2.277 . S
O143 C140 1.160 . S
O143 Cd144 2.203 . S
Cd144 O143 2.203 . S
Cd144 O146 2.411 . S
Cd144 O147 2.333 . S
Cd144 O148 2.352 . S
Cd144 O152 2.277 . S
Cd144 O153 2.356 . S
C145 O150 1.209 . S
C145 O152 1.226 . S
O146 Cd142 2.273 . S
O146 Cd144 2.411 . S
O146 C149 1.320 . S
O147 Cd144 2.333 . S
O147 C149 1.214 . S
O148 Cd144 2.352 . S
O148 C151 1.258 . S
C149 O146 1.320 . S
C149 O147 1.214 . S
O150 Cd142 2.277 . S
O150 C145 1.209 . S
C151 O148 1.258 . S
C151 O153 1.282 . S
O152 Cd144 2.277 . S
O152 C145 1.226 . S
O153 Cd144 2.356 . S
O153 C151 1.282 . S
C154 O155 1.306 . S
C154 O157 1.160 . S
O155 C154 1.306 . S
O155 Cd156 2.228 . S
Cd156 O155 2.228 . S
Cd156 O160 2.273 . S
Cd156 O164 2.277 . S
O157 C154 1.160 . S
O157 Cd158 2.203 . S
Cd158 O157 2.203 . S
Cd158 O160 2.411 . S
Cd158 O161 2.333 . S
Cd158 O162 2.352 . S
Cd158 O166 2.277 . S
Cd158 O167 2.356 . S
C159 O164 1.209 . S
C159 O166 1.226 . S
O160 Cd156 2.273 . S
O160 Cd158 2.411 . S
O160 C163 1.320 . S
O161 Cd158 2.333 . S
O161 C163 1.214 . S
O162 Cd158 2.352 . S
O162 C165 1.258 . S
C163 O160 1.320 . S
C163 O161 1.214 . S
O164 Cd156 2.277 . S
O164 C159 1.209 . S
C165 O162 1.258 . S
C165 O167 1.282 . S
O166 Cd158 2.277 . S
O166 C159 1.226 . S
O167 Cd158 2.356 . S
O167 C165 1.282 . S
C168 O169 1.306 . S
C168 O171 1.160 . S
O169 C168 1.306 . S
O169 Cd170 2.228 . S
Cd170 O169 2.228 . S
Cd170 O174 2.273 . S
Cd170 O178 2.277 . S
O171 C168 1.160 . S
O171 Cd172 2.203 . S
Cd172 O171 2.203 . S
Cd172 O174 2.411 . S
Cd172 O175 2.333 . S
Cd172 O176 2.352 . S
Cd172 O180 2.277 . S
Cd172 O181 2.356 . S
C173 O178 1.209 . S
C173 O180 1.226 . S
O174 Cd170 2.273 . S
O174 Cd172 2.411 . S
O174 C177 1.320 . S
O175 Cd172 2.333 . S
O175 C177 1.214 . S
O176 Cd172 2.352 . S
O176 C179 1.258 . S
C177 O174 1.320 . S
C177 O175 1.214 . S
O178 Cd170 2.277 . S
O178 C173 1.209 . S
C179 O176 1.258 . S
C179 O181 1.282 . S
O180 Cd172 2.277 . S
O180 C173 1.226 . S
O181 Cd172 2.356 . S
O181 C179 1.282 . S
C182 O183 1.306 . S
C182 O185 1.160 . S
O183 C182 1.306 . S
O183 Cd184 2.228 . S
Cd184 O183 2.228 . S
Cd184 O188 2.273 . S
Cd184 O192 2.277 . S
O185 C182 1.160 . S
O185 Cd186 2.203 . S
Cd186 O185 2.203 . S
Cd186 O188 2.411 . S
Cd186 O189 2.333 . S
Cd186 O190 2.352 . S
Cd186 O194 2.277 . S
Cd186 O195 2.356 . S
C187 O192 1.209 . S
C187 O194 1.226 . S
O188 Cd184 2.273 . S
O188 Cd186 2.411 . S
O188 C191 1.320 . S
O189 Cd186 2.333 . S
O189 C191 1.214 . S
O190 Cd186 2.352 . S
O190 C193 1.258 . S
C191 O188 1.320 . S
C191 O189 1.214 . S
O192 Cd184 2.277 . S
O192 C187 1.209 . S
C193 O190 1.258 . S
C193 O195 1.282 . S
O194 Cd186 2.277 . S
O194 C187 1.226 . S
O195 Cd186 2.356 . S
O195 C193 1.282 . S
C196 O197 1.306 . S
C196 O199 1.160 . S
O197 C196 1.306 . S
O197 Cd198 2.228 . S
Cd198 O197 2.228 . S
Cd198 O202 2.273 . S
Cd198 O206 2.277 . S
O199 C196 1.160 . S
O199 Cd200 2.203 . S
Cd200 O199 2.203 . S
Cd200 O202 2.411 . S
Cd200 O203 2.333 . S
Cd200 O204 2.352 . S
Cd200 O208 2.277 . S
Cd200 O209 2.356 . S
C201 O206 1.209 . S
C201 O208 1.226 . S
O202 Cd198 2.273 . S
O202 Cd200 2.411 . S
O202 C205 1.320 . S
O203 Cd200 2.333 . S
O203 C205 1.214 . S
O204 Cd200 2.352 . S
O204 C207 1.258 . S
C205 O202 1.320 . S
C205 O203 1.214 . S
O206 Cd198 2.277 . S
O206 C201 1.209 . S
C207 O204 1.258 . S
C207 O209 1.282 . S
O208 Cd200 2.277 . S
O208 C201 1.226 . S
O209 Cd200 2.356 . S
O209 C207 1.282 . S
C210 O211 1.306 . S
C210 O213 1.160 . S
O211 C210 1.306 . S
O211 Cd212 2.228 . S
Cd212 O211 2.228 . S
Cd212 O216 2.273 . S
Cd212 O220 2.277 . S
O213 C210 1.160 . S
O213 Cd214 2.203 . S
Cd214 O213 2.203 . S
Cd214 O216 2.411 . S
Cd214 O217 2.333 . S
Cd214 O218 2.352 . S
Cd214 O222 2.277 . S
Cd214 O223 2.356 . S
C215 O220 1.209 . S
C215 O222 1.226 . S
O216 Cd212 2.273 . S
O216 Cd214 2.411 . S
O216 C219 1.320 . S
O217 Cd214 2.333 . S
O217 C219 1.214 . S
O218 Cd214 2.352 . S
O218 C221 1.258 . S
C219 O216 1.320 . S
C219 O217 1.214 . S
O220 Cd212 2.277 . S
O220 C215 1.209 . S
C221 O218 1.258 . S
C221 O223 1.282 . S
O222 Cd214 2.277 . S
O222 C215 1.226 . S
O223 Cd214 2.356 . S
O223 C221 1.282 . S
C224 O225 1.306 . S
C224 O227 1.160 . S
O225 C224 1.306 . S
O225 Cd226 2.228 . S
Cd226 O225 2.228 . S
Cd226 O230 2.273 . S
Cd226 O234 2.277 . S
O227 C224 1.160 . S
O227 Cd228 2.203 . S
Cd228 O227 2.203 . S
Cd228 O230 2.411 . S
Cd228 O231 2.333 . S
Cd228 O232 2.352 . S
Cd228 O236 2.277 . S
Cd228 O237 2.356 . S
C229 O234 1.209 . S
C229 O236 1.226 . S
O230 Cd226 2.273 . S
O230 Cd228 2.411 . S
O230 C233 1.320 . S
O231 Cd228 2.333 . S
O231 C233 1.214 . S
O232 Cd228 2.352 . S
O232 C235 1.258 . S
C233 O230 1.320 . S
C233 O231 1.214 . S
O234 Cd226 2.277 . S
O234 C229 1.209 . S
C235 O232 1.258 . S
C235 O237 1.282 . S
O236 Cd228 2.277 . S
O236 C229 1.226 . S
O237 Cd228 2.356 . S
O237 C235 1.282 . S
C238 O239 1.306 . S
C238 O241 1.160 . S
O239 C238 1.306 . S
O239 Cd240 2.228 . S
Cd240 O239 2.228 . S
Cd240 O244 2.273 . S
Cd240 O248 2.277 . S
O241 C238 1.160 . S
O241 Cd242 2.203 . S
Cd242 O241 2.203 . S
Cd242 O244 2.411 . S
Cd242 O245 2.333 . S
Cd242 O246 2.352 . S
Cd242 O250 2.277 . S
Cd242 O251 2.356 . S
C243 O248 1.209 . S
C243 O250 1.226 . S
O244 Cd240 2.273 . S
O244 Cd242 2.411 . S
O244 C247 1.320 . S
O245 Cd242 2.333 . S
O245 C247 1.214 . S
O246 Cd242 2.352 . S
O246 C249 1.258 . S
C247 O244 1.320 . S
C247 O245 1.214 . S
O248 Cd240 2.277 . S
O248 C243 1.209 . S
C249 O246 1.258 . S
C249 O251 1.282 . S
O250 Cd242 2.277 . S
O250 C243 1.226 . S
O251 Cd242 2.356 . S
O251 C249 1.282 . S
C252 O253 1.306 . S
C252 O255 1.160 . S
O253 C252 1.306 . S
O253 Cd254 2.228 . S
Cd254 O253 2.228 . S
Cd254 O258 2.273 . S
Cd254 O262 2.277 . S
O255 C252 1.160 . S
O255 Cd256 2.203 . S
Cd256 O255 2.203 . S
Cd256 O258 2.411 . S
Cd256 O259 2.333 . S
Cd256 O260 2.352 . S
Cd256 O264 2.277 . S
Cd256 O265 2.356 . S
C257 O262 1.209 . S
C257 O264 1.226 . S
O258 Cd254 2.273 . S
O258 Cd256 2.411 . S
O258 C261 1.320 . S
O259 Cd256 2.333 . S
O259 C261 1.214 . S
O260 Cd256 2.352 . S
O260 C263 1.258 . S
C261 O258 1.320 . S
C261 O259 1.214 . S
O262 Cd254 2.277 . S
O262 C257 1.209 . S
C263 O260 1.258 . S
C263 O265 1.282 . S
O264 Cd256 2.277 . S
O264 C257 1.226 . S
O265 Cd256 2.356 . S
O265 C263 1.282 . S
C266 O267 1.306 . S
C266 O269 1.160 . S
O267 C266 1.306 . S
O267 Cd268 2.228 . S
Cd268 O267 2.228 . S
Cd268 O272 2.273 . S
Cd268 O276 2.277 . S
O269 C266 1.160 . S
O269 Cd270 2.203 . S
Cd270 O269 2.203 . S
Cd270 O272 2.411 . S
Cd270 O273 2.333 . S
Cd270 O274 2.352 . S
Cd270 O278 2.277 . S
Cd270 O279 2.356 . S
C271 O276 1.209 . S
C271 O278 1.226 . S
O272 Cd268 2.273 . S
O272 Cd270 2.411 . S
O272 C275 1.320 . S
O273 Cd270 2.333 . S
O273 C275 1.214 . S
O274 Cd270 2.352 . S
O274 C277 1.258 . S
C275 O272 1.320 . S
C275 O273 1.214 . S
O276 Cd268 2.277 . S
O276 C271 1.209 . S
C277 O274 1.258 . S
C277 O279 1.282 . S
O278 Cd270 2.277 . S
O278 C271 1.226 . S
O279 Cd270 2.356 . S
O279 C277 1.282 . S
C280 O281 1.306 . S
C280 O283 1.160 . S
O281 C280 1.306 . S
O281 Cd282 2.228 . S
Cd282 O281 2.228 . S
Cd282 O286 2.273 . S
Cd282 O290 2.277 . S
O283 C280 1.160 . S
O283 Cd284 2.203 . S
Cd284 O283 2.203 . S
Cd284 O286 2.411 . S
Cd284 O287 2.333 . S
Cd284 O288 2.352 . S
Cd284 O292 2.277 . S
Cd284 O293 2.356 . S
C285 O290 1.209 . S
C285 O292 1.226 . S
O286 Cd282 2.273 . S
O286 Cd284 2.411 . S
O286 C289 1.320 . S
O287 Cd284 2.333 . S
O287 C289 1.214 . S
O288 Cd284 2.352 . S
O288 C291 1.258 . S
C289 O286 1.320 . S
C289 O287 1.214 . S
O290 Cd282 2.277 . S
O290 C285 1.209 . S
C291 O288 1.258 . S
C291 O293 1.282 . S
O292 Cd284 2.277 . S
O292 C285 1.226 . S
O293 Cd284 2.356 . S
O293 C291 1.282 . S
C294 O295 1.306 . S
C294 O297 1.160 . S
O295 C294 1.306 . S
O295 Cd296 2.228 . S
Cd296 O295 2.228 . S
Cd296 O300 2.273 . S
Cd296 O304 2.277 . S
O297 C294 1.160 . S
O297 Cd298 2.203 . S
Cd298 O297 2.203 . S
Cd298 O300 2.411 . S
Cd298 O301 2.333 . S
Cd298 O302 2.352 . S
Cd298 O306 2.277 . S
Cd298 O307 2.356 . S
C299 O304 1.209 . S
C299 O306 1.226 . S
O300 Cd296 2.273 . S
O300 Cd298 2.411 . S
O300 C303 1.320 . S
O301 Cd298 2.333 . S
O301 C303 1.214 . S
O302 Cd298 2.352 . S
O302 C305 1.258 . S
C303 O300 1.320 . S
C303 O301 1.214 . S
O304 Cd296 2.277 . S
O304 C299 1.209 . S
C305 O302 1.258 . S
C305 O307 1.282 . S
O306 Cd298 2.277 . S
O306 C299 1.226 . S
O307 Cd298 2.356 . S
O307 C305 1.282 . S
C308 O309 1.306 . S
C308 O311 1.160 . S
O309 C308 1.306 . S
O309 Cd310 2.228 . S
Cd310 O309 2.228 . S
Cd310 O314 2.273 . S
Cd310 O318 2.277 . S
O311 C308 1.160 . S
O311 Cd312 2.203 . S
Cd312 O311 2.203 . S
Cd312 O314 2.411 . S
Cd312 O315 2.333 . S
Cd312 O316 2.352 . S
Cd312 O320 2.277 . S
Cd312 O321 2.356 . S
C313 O318 1.209 . S
C313 O320 1.226 . S
O314 Cd310 2.273 . S
O314 Cd312 2.411 . S
O314 C317 1.320 . S
O315 Cd312 2.333 . S
O315 C317 1.214 . S
O316 Cd312 2.352 . S
O316 C319 1.258 . S
C317 O314 1.320 . S
C317 O315 1.214 . S
O318 Cd310 2.277 . S
O318 C313 1.209 . S
C319 O316 1.258 . S
C319 O321 1.282 . S
O320 Cd312 2.277 . S
O320 C313 1.226 . S
O321 Cd312 2.356 . S
O321 C319 1.282 . S
C322 O323 1.306 . S
C322 O325 1.160 . S
O323 C322 1.306 . S
O323 Cd324 2.228 . S
Cd324 O323 2.228 . S
Cd324 O328 2.273 . S
Cd324 O332 2.277 . S
O325 C322 1.160 . S
O325 Cd326 2.203 . S
Cd326 O325 2.203 . S
Cd326 O328 2.411 . S
Cd326 O329 2.333 . S
Cd326 O330 2.352 . S
Cd326 O334 2.277 . S
Cd326 O335 2.356 . S
C327 O332 1.209 . S
C327 O334 1.226 . S
O328 Cd324 2.273 . S
O328 Cd326 2.411 . S
O328 C331 1.320 . S
O329 Cd326 2.333 . S
O329 C331 1.214 . S
O330 Cd326 2.352 . S
O330 C333 1.258 . S
C331 O328 1.320 . S
C331 O329 1.214 . S
O332 Cd324 2.277 . S
O332 C327 1.209 . S
C333 O330 1.258 . S
C333 O335 1.282 . S
O334 Cd326 2.277 . S
O334 C327 1.226 . S
O335 Cd326 2.356 . S
O335 C333 1.282 . S
C336 O337 1.306 . S
C336 O339 1.160 . S
O337 C336 1.306 . S
O337 Cd338 2.228 . S
Cd338 O337 2.228 . S
Cd338 O342 2.273 . S
Cd338 O346 2.277 . S
O339 C336 1.160 . S
O339 Cd340 2.203 . S
Cd340 O339 2.203 . S
Cd340 O342 2.411 . S
Cd340 O343 2.333 . S
Cd340 O344 2.352 . S
Cd340 O348 2.277 . S
Cd340 O349 2.356 . S
C341 O346 1.209 . S
C341 O348 1.226 . S
O342 Cd338 2.273 . S
O342 Cd340 2.411 . S
O342 C345 1.320 . S
O343 Cd340 2.333 . S
O343 C345 1.214 . S
O344 Cd340 2.352 . S
O344 C347 1.258 . S
C345 O342 1.320 . S
C345 O343 1.214 . S
O346 Cd338 2.277 . S
O346 C341 1.209 . S
C347 O344 1.258 . S
C347 O349 1.282 . S
O348 Cd340 2.277 . S
O348 C341 1.226 . S
O349 Cd340 2.356 . S
O349 C347 1.282 . S
C350 O351 1.306 . S
C350 O353 1.160 . S
O351 C350 1.306 . S
O351 Cd352 2.228 . S
Cd352 O351 2.228 . S
Cd352 O356 2.273 . S
Cd352 O360 2.277 . S
O353 C350 1.160 . S
O353 Cd354 2.203 . S
Cd354 O353 2.203 . S
Cd354 O356 2.411 . S
Cd354 O357 2.333 . S
Cd354 O358 2.352 . S
Cd354 O362 2.277 . S
Cd354 O363 2.356 . S
C355 O360 1.209 . S
C355 O362 1.226 . S
O356 Cd352 2.273 . S
O356 Cd354 2.411 . S
O356 C359 1.320 . S
O357 Cd354 2.333 . S
O357 C359 1.214 . S
O358 Cd354 2.352 . S
O358 C361 1.258 . S
C359 O356 1.320 . S
C359 O357 1.214 . S
O360 Cd352 2.277 . S
O360 C355 1.209 . S
C361 O358 1.258 . S
C361 O363 1.282 . S
O362 Cd354 2.277 . S
O362 C355 1.226 . S
O363 Cd354 2.356 . S
O363 C361 1.282 . S
C364 O365 1.306 . S
C364 O367 1.160 . S
O365 C364 1.306 . S
O365 Cd366 2.228 . S
Cd366 O365 2.228 . S
Cd366 O370 2.273 . S
Cd366 O374 2.277 . S
O367 C364 1.160 . S
O367 Cd368 2.203 . S
Cd368 O367 2.203 . S
Cd368 O370 2.411 . S
Cd368 O371 2.333 . S
Cd368 O372 2.352 . S
Cd368 O376 2.277 . S
Cd368 O377 2.356 . S
C369 O374 1.209 . S
C369 O376 1.226 . S
O370 Cd366 2.273 . S
O370 Cd368 2.411 . S
O370 C373 1.320 . S
O371 Cd368 2.333 . S
O371 C373 1.214 . S
O372 Cd368 2.352 . S
O372 C375 1.258 . S
C373 O370 1.320 . S
C373 O371 1.214 . S
O374 Cd366 2.277 . S
O374 C369 1.209 . S
C375 O372 1.258 . S
C375 O377 1.282 . S
O376 Cd368 2.277 . S
O376 C369 1.226 . S
O377 Cd368 2.356 . S
O377 C375 1.282 . S
C378 O379 1.306 . S
C378 O381 1.160 . S
O379 C378 1.306 . S
O379 Cd380 2.228 . S
Cd380 O379 2.228 . S
Cd380 O384 2.273 . S
Cd380 O388 2.277 . S
O381 C378 1.160 . S
O381 Cd382 2.203 . S
Cd382 O381 2.203 . S
Cd382 O384 2.411 . S
Cd382 O385 2.333 . S
Cd382 O386 2.352 . S
Cd382 O390 2.277 . S
Cd382 O391 2.356 . S
C383 O388 1.209 . S
C383 O390 1.226 . S
O384 Cd380 2.273 . S
O384 Cd382 2.411 . S
O384 C387 1.320 . S
O385 Cd382 2.333 . S
O385 C387 1.214 . S
O386 Cd382 2.352 . S
O386 C389 1.258 . S
C387 O384 1.320 . S
C387 O385 1.214 . S
O388 Cd380 2.277 . S
O388 C383 1.209 . S
C389 O386 1.258 . S
C389 O391 1.282 . S
O390 Cd382 2.277 . S
O390 C383 1.226 . S
O391 Cd382 2.356 . S
O391 C389 1.282 . S
C392 O393 1.306 . S
C392 O395 1.160 . S
O393 C392 1.306 . S
O393 Cd394 2.228 . S
Cd394 O393 2.228 . S
Cd394 O398 2.273 . S
Cd394 O402 2.277 . S
O395 C392 1.160 . S
O395 Cd396 2.203 . S
Cd396 O395 2.203 . S
Cd396 O398 2.411 . S
Cd396 O399 2.333 . S
Cd396 O400 2.352 . S
Cd396 O404 2.277 . S
Cd396 O405 2.356 . S
C397 O402 1.209 . S
C397 O404 1.226 . S
O398 Cd394 2.273 . S
O398 Cd396 2.411 . S
O398 C401 1.320 . S
O399 Cd396 2.333 . S
O399 C401 1.214 . S
O400 Cd396 2.352 . S
O400 C403 1.258 . S
C401 O398 1.320 . S
C401 O399 1.214 . S
O402 Cd394 2.277 . S
O402 C397 1.209 . S
C403 O400 1.258 . S
C403 O405 1.282 . S
O404 Cd396 2.277 . S
O404 C397 1.226 . S
O405 Cd396 2.356 . S
O405 C403 1.282 . S
C406 O407 1.306 . S
C406 O409 1.160 . S
O407 C406 1.306 . S
O407 Cd408 2.228 . S
Cd408 O407 2.228 . S
Cd408 O412 2.273 . S
Cd408 O416 2.277 . S
O409 C406 1.160 . S
O409 Cd410 2.203 . S
Cd410 O409 2.203 . S
Cd410 O412 2.411 . S
Cd410 O413 2.333 . S
Cd410 O414 2.352 . S
Cd410 O418 2.277 . S
Cd410 O419 2.356 . S
C411 O416 1.209 . S
C411 O418 1.226 . S
O412 Cd408 2.273 . S
O412 Cd410 2.411 . S
O412 C415 1.320 . S
O413 Cd410 2.333 . S
O413 C415 1.214 . S
O414 Cd410 2.352 . S
O414 C417 1.258 . S
C415 O412 1.320 . S
C415 O413 1.214 . S
O416 Cd408 2.277 . S
O416 C411 1.209 . S
C417 O414 1.258 . S
C417 O419 1.282 . S
O418 Cd410 2.277 . S
O418 C411 1.226 . S
O419 Cd410 2.356 . S
O419 C417 1.282 . S
C420 O421 1.306 . S
C420 O423 1.160 . S
O421 C420 1.306 . S
O421 Cd422 2.228 . S
Cd422 O421 2.228 . S
Cd422 O426 2.273 . S
Cd422 O430 2.277 . S
O423 C420 1.160 . S
O423 Cd424 2.203 . S
Cd424 O423 2.203 . S
Cd424 O426 2.411 . S
Cd424 O427 2.333 . S
Cd424 O428 2.352 . S
Cd424 O432 2.277 . S
Cd424 O433 2.356 . S
C425 O430 1.209 . S
C425 O432 1.226 . S
O426 Cd422 2.273 . S
O426 Cd424 2.411 . S
O426 C429 1.320 . S
O427 Cd424 2.333 . S
O427 C429 1.214 . S
O428 Cd424 2.352 . S
O428 C431 1.258 . S
C429 O426 1.320 . S
C429 O427 1.214 . S
O430 Cd422 2.277 . S
O430 C425 1.209 . S
C431 O428 1.258 . S
C431 O433 1.282 . S
O432 Cd424 2.277 . S
O432 C425 1.226 . S
O433 Cd424 2.356 . S
O433 C431 1.282 . S
C434 O435 1.306 . S
C434 O437 1.160 . S
O435 C434 1.306 . S
O435 Cd436 2.228 . S
Cd436 O435 2.228 . S
Cd436 O440 2.273 . S
Cd436 O444 2.277 . S
O437 C434 1.160 . S
O437 Cd438 2.203 . S
Cd438 O437 2.203 . S
Cd438 O440 2.411 . S
Cd438 O441 2.333 . S
Cd438 O442 2.352 . S
Cd438 O446 2.277 . S
Cd438 O447 2.356 . S
C439 O444 1.209 . S
C439 O446 1.226 . S
O440 Cd436 2.273 . S
O440 Cd438 2.411 . S
O440 C443 1.320 . S
O441 Cd438 2.333 . S
O441 C443 1.214 . S
O442 Cd438 2.352 . S
O442 C445 1.258 . S
C443 O440 1.320 . S
C443 O441 1.214 . S
O444 Cd436 2.277 . S
O444 C439 1.209 . S
C445 O442 1.258 . S
C445 O447 1.282 . S
O446 Cd438 2.277 . S
O446 C439 1.226 . S
O447 Cd438 2.356 . S
O447 C445 1.282 . S
C448 O449 1.306 . S
C448 O451 1.160 . S
O449 C448 1.306 . S
O449 Cd450 2.228 . S
Cd450 O449 2.228 . S
Cd450 O454 2.273 . S
Cd450 O458 2.277 . S
O451 C448 1.160 . S
O451 Cd452 2.203 . S
Cd452 O451 2.203 . S
Cd452 O454 2.411 . S
Cd452 O455 2.333 . S
Cd452 O456 2.352 . S
Cd452 O460 2.277 . S
Cd452 O461 2.356 . S
C453 O458 1.209 . S
C453 O460 1.226 . S
O454 Cd450 2.273 . S
O454 Cd452 2.411 . S
O454 C457 1.320 . S
O455 Cd452 2.333 . S
O455 C457 1.214 . S
O456 Cd452 2.352 . S
O456 C459 1.258 . S
C457 O454 1.320 . S
C457 O455 1.214 . S
O458 Cd450 2.277 . S
O458 C453 1.209 . S
C459 O456 1.258 . S
C459 O461 1.282 . S
O460 Cd452 2.277 . S
O460 C453 1.226 . S
O461 Cd452 2.356 . S
O461 C459 1.282 . S
C462 O463 1.306 . S
C462 O465 1.160 . S
O463 C462 1.306 . S
O463 Cd464 2.228 . S
Cd464 O463 2.228 . S
Cd464 O468 2.273 . S
Cd464 O472 2.277 . S
O465 C462 1.160 . S
O465 Cd466 2.203 . S
Cd466 O465 2.203 . S
Cd466 O468 2.411 . S
Cd466 O469 2.333 . S
Cd466 O470 2.352 . S
Cd466 O474 2.277 . S
Cd466 O475 2.356 . S
C467 O472 1.209 . S
C467 O474 1.226 . S
O468 Cd464 2.273 . S
O468 Cd466 2.411 . S
O468 C471 1.320 . S
O469 Cd466 2.333 . S
O469 C471 1.214 . S
O470 Cd466 2.352 . S
O470 C473 1.258 . S
C471 O468 1.320 . S
C471 O469 1.214 . S
O472 Cd464 2.277 . S
O472 C467 1.209 . S
C473 O470 1.258 . S
C473 O475 1.282 . S
O474 Cd466 2.277 . S
O474 C467 1.226 . S
O475 Cd466 2.356 . S
O475 C473 1.282 . S
C476 O477 1.306 . S
C476 O479 1.160 . S
O477 C476 1.306 . S
O477 Cd478 2.228 . S
Cd478 O477 2.228 . S
Cd478 O482 2.273 . S
Cd478 O486 2.277 . S
O479 C476 1.160 . S
O479 Cd480 2.203 . S
Cd480 O479 2.203 . S
Cd480 O482 2.411 . S
Cd480 O483 2.333 . S
Cd480 O484 2.352 . S
Cd480 O488 2.277 . S
Cd480 O489 2.356 . S
C481 O486 1.209 . S
C481 O488 1.226 . S
O482 Cd478 2.273 . S
O482 Cd480 2.411 . S
O482 C485 1.320 . S
O483 Cd480 2.333 . S
O483 C485 1.214 . S
O484 Cd480 2.352 . S
O484 C487 1.258 . S
C485 O482 1.320 . S
C485 O483 1.214 . S
O486 Cd478 2.277 . S
O486 C481 1.209 . S
C487 O484 1.258 . S
C487 O489 1.282 . S
O488 Cd480 2.277 . S
O488 C481 1.226 . S
O489 Cd480 2.356 . S
O489 C487 1.282 . S
C490 O491 1.306 . S
C490 O493 1.160 . S
O491 C490 1.306 . S
O491 Cd492 2.228 . S
Cd492 O491 2.228 . S
Cd492 O496 2.273 . S
Cd492 O500 2.277 . S
O493 C490 1.160 . S
O493 Cd494 2.203 . S
Cd494 O493 2.203 . S
Cd494 O496 2.411 . S
Cd494 O497 2.333 . S
Cd494 O498 2.352 . S
Cd494 O502 2.277 . S
Cd494 O503 2.356 . S
C495 O500 1.209 . S
C495 O502 1.226 . S
O496 Cd492 2.273 . S
O496 Cd494 2.411 . S
O496 C499 1.320 . S
O497 Cd494 2.333 . S
O497 C499 1.214 . S
O498 Cd494 2.352 . S
O498 C501 1.258 . S
C499 O496 1.320 . S
C499 O497 1.214 . S
O500 Cd492 2.277 . S
O500 C495 1.209 . S
C501 O498 1.258 . S
C501 O503 1.282 . S
O502 Cd494 2.277 . S
O502 C495 1.226 . S
O503 Cd494 2.356 . S
O503 C501 1.282 . S
C504 O505 1.306 . S
C504 O507 1.160 . S
O505 C504 1.306 . S
O505 Cd506 2.228 . S
Cd506 O505 2.228 . S
Cd506 O510 2.273 . S
Cd506 O514 2.277 . S
O507 C504 1.160 . S
O507 Cd508 2.203 . S
Cd508 O507 2.203 . S
Cd508 O510 2.411 . S
Cd508 O511 2.333 . S
Cd508 O512 2.352 . S
Cd508 O516 2.277 . S
Cd508 O517 2.356 . S
C509 O514 1.209 . S
C509 O516 1.226 . S
O510 Cd506 2.273 . S
O510 Cd508 2.411 . S
O510 C513 1.320 . S
O511 Cd508 2.333 . S
O511 C513 1.214 . S
O512 Cd508 2.352 . S
O512 C515 1.258 . S
C513 O510 1.320 . S
C513 O511 1.214 . S
O514 Cd506 2.277 . S
O514 C509 1.209 . S
C515 O512 1.258 . S
C515 O517 1.282 . S
O516 Cd508 2.277 . S
O516 C509 1.226 . S
O517 Cd508 2.356 . S
O517 C515 1.282 . S
C518 O519 1.306 . S
C518 O521 1.160 . S
O519 C518 1.306 . S
O519 Cd520 2.228 . S
Cd520 O519 2.228 . S
Cd520 O524 2.273 . S
Cd520 O528 2.277 . S
O521 C518 1.160 . S
O521 Cd522 2.203 . S
Cd522 O521 2.203 . S
Cd522 O524 2.411 . S
Cd522 O525 2.333 . S
Cd522 O526 2.352 . S
Cd522 O530 2.277 . S
Cd522 O531 2.356 . S
C523 O528 1.209 . S
C523 O530 1.226 . S
O524 Cd520 2.273 . S
O524 Cd522 2.411 . S
O524 C527 1.320 . S
O525 Cd522 2.333 . S
O525 C527 1.214 . S
O526 Cd522 2.352 . S
O526 C529 1.258 . S
C527 O524 1.320 . S
C527 O525 1.214 . S
O528 Cd520 2.277 . S
O528 C523 1.209 . S
C529 O526 1.258 . S
C529 O531 1.282 . S
O530 Cd522 2.277 . S
O530 C523 1.226 . S
O531 Cd522 2.356 . S
O531 C529 1.282 . S
C532 O533 1.306 . S
C532 O535 1.160 . S
O533 C532 1.306 . S
O533 Cd534 2.228 . S
Cd534 O533 2.228 . S
Cd534 O538 2.273 . S
Cd534 O542 2.277 . S
O535 C532 1.160 . S
O535 Cd536 2.203 . S
Cd536 O535 2.203 . S
Cd536 O538 2.411 . S
Cd536 O539 2.333 . S
Cd536 O540 2.352 . S
Cd536 O544 2.277 . S
Cd536 O545 2.356 . S
C537 O542 1.209 . S
C537 O544 1.226 . S
O538 Cd534 2.273 . S
O538 Cd536 2.411 . S
O538 C541 1.320 . S
O539 Cd536 2.333 . S
O539 C541 1.214 . S
O540 Cd536 2.352 . S
O540 C543 1.258 . S
C541 O538 1.320 . S
C541 O539 1.214 . S
O542 Cd534 2.277 . S
O542 C537 1.209 . S
C543 O540 1.258 . S
C543 O545 1.282 . S
O544 Cd536 2.277 . S
O544 C537 1.226 . S
O545 Cd536 2.356 . S
O545 C543 1.282 . S
C546 O547 1.306 . S
C546 O549 1.160 . S
O547 C546 1.306 . S
O547 Cd548 2.228 . S
Cd548 O547 2.228 . S
Cd548 O552 2.273 . S
Cd548 O556 2.277 . S
O549 C546 1.160 . S
O549 Cd550 2.203 . S
Cd550 O549 2.203 . S
Cd550 O552 2.411 . S
Cd550 O553 2.333 . S
Cd550 O554 2.352 . S
Cd550 O558 2.277 . S
Cd550 O559 2.356 . S
C551 O556 1.209 . S
C551 O558 1.226 . S
O552 Cd548 2.273 . S
O552 Cd550 2.411 . S
O552 C555 1.320 . S
O553 Cd550 2.333 . S
O553 C555 1.214 . S
O554 Cd550 2.352 . S
O554 C557 1.258 . S
C555 O552 1.320 . S
C555 O553 1.214 . S
O556 Cd548 2.277 . S
O556 C551 1.209 . S
C557 O554 1.258 . S
C557 O559 1.282 . S
O558 Cd550 2.277 . S
O558 C551 1.226 . S
O559 Cd550 2.356 . S
O559 C557 1.282 . S
C560 O561 1.306 . S
C560 O563 1.160 . S
O561 C560 1.306 . S
O561 Cd562 2.228 . S
Cd562 O561 2.228 . S
Cd562 O566 2.273 . S
Cd562 O570 2.277 . S
O563 C560 1.160 . S
O563 Cd564 2.203 . S
Cd564 O563 2.203 . S
Cd564 O566 2.411 . S
Cd564 O567 2.333 . S
Cd564 O568 2.352 . S
Cd564 O572 2.277 . S
Cd564 O573 2.356 . S
C565 O570 1.209 . S
C565 O572 1.226 . S
O566 Cd562 2.273 . S
O566 Cd564 2.411 . S
O566 C569 1.320 . S
O567 Cd564 2.333 . S
O567 C569 1.214 . S
O568 Cd564 2.352 . S
O568 C571 1.258 . S
C569 O566 1.320 . S
C569 O567 1.214 . S
O570 Cd562 2.277 . S
O570 C565 1.209 . S
C571 O568 1.258 . S
C571 O573 1.282 . S
O572 Cd564 2.277 . S
O572 C565 1.226 . S
O573 Cd564 2.356 . S
O573 C571 1.282 . S
C574 O575 1.306 . S
C574 O577 1.160 . S
O575 C574 1.306 . S
O575 Cd576 2.228 . S
Cd576 O575 2.228 . S
Cd576 O580 2.273 . S
Cd576 O584 2.277 . S
O577 C574 1.160 . S
O577 Cd578 2.203 . S
Cd578 O577 2.203 . S
Cd578 O580 2.411 . S
Cd578 O581 2.333 . S
Cd578 O582 2.352 . S
Cd578 O586 2.277 . S
Cd578 O587 2.356 . S
C579 O584 1.209 . S
C579 O586 1.226 . S
O580 Cd576 2.273 . S
O580 Cd578 2.411 . S
O580 C583 1.320 . S
O581 Cd578 2.333 . S
O581 C583 1.214 . S
O582 Cd578 2.352 . S
O582 C585 1.258 . S
C583 O580 1.320 . S
C583 O581 1.214 . S
O584 Cd576 2.277 . S
O584 C579 1.209 . S
C585 O582 1.258 . S
C585 O587 1.282 . S
O586 Cd578 2.277 . S
O586 C579 1.226 . S
O587 Cd578 2.356 . S
O587 C585 1.282 . S
C588 O589 1.306 . S
C588 O591 1.160 . S
O589 C588 1.306 . S
O589 Cd590 2.228 . S
Cd590 O589 2.228 . S
Cd590 O594 2.273 . S
Cd590 O598 2.277 . S
O591 C588 1.160 . S
O591 Cd592 2.203 . S
Cd592 O591 2.203 . S
Cd592 O594 2.411 . S
Cd592 O595 2.333 . S
Cd592 O596 2.352 . S
Cd592 O600 2.277 . S
Cd592 O601 2.356 . S
C593 O598 1.209 . S
C593 O600 1.226 . S
O594 Cd590 2.273 . S
O594 Cd592 2.411 . S
O594 C597 1.320 . S
O595 Cd592 2.333 . S
O595 C597 1.214 . S
O596 Cd592 2.352 . S
O596 C599 1.258 . S
C597 O594 1.320 . S
C597 O595 1.214 . S
O598 Cd590 2.277 . S
O598 C593 1.209 . S
C599 O596 1.258 . S
C599 O601 1.282 . S
O600 Cd592 2.277 . S
O600 C593 1.226 . S
O601 Cd592 2.356 . S
O601 C599 1.282 . S
C602 O603 1.306 . S
C602 O605 1.160 . S
O603 C602 1.306 . S
O603 Cd604 2.228 . S
Cd604 O603 2.228 . S
Cd604 O608 2.273 . S
Cd604 O612 2.277 . S
O605 C602 1.160 . S
O605 Cd606 2.203 . S
Cd606 O605 2.203 . S
Cd606 O608 2.411 . S
Cd606 O609 2.333 . S
Cd606 O610 2.352 . S
Cd606 O614 2.277 . S
Cd606 O615 2.356 . S
C607 O612 1.209 . S
C607 O614 1.226 . S
O608 Cd604 2.273 . S
O608 Cd606 2.411 . S
O608 C611 1.320 . S
O609 Cd606 2.333 . S
O609 C611 1.214 . S
O610 Cd606 2.352 . S
O610 C613 1.258 . S
C611 O608 1.320 . S
C611 O609 1.214 . S
O612 Cd604 2.277 . S
O612 C607 1.209 . S
C613 O610 1.258 . S
C613 O615 1.282 . S
O614 Cd606 2.277 . S
O614 C607 1.226 . S
O615 Cd606 2.356 . S
O615 C613 1.282 . S
C616 O617 1.306 . S
C616 O619 1.160 . S
O617 C616 1.306 . S
O617 Cd618 2.228 . S
Cd618 O617 2.228 . S
Cd618 O622 2.273 . S
Cd618 O626 2.277 . S
O619 C616 1.160 . S
O619 Cd620 2.203 . S
Cd620 O619 2.203 . S
Cd620 O622 2.411 . S
Cd620 O623 2.333 . S
Cd620 O624 2.352 . S
Cd620 O628 2.277 . S
Cd620 O629 2.356 . S
C621 O626 1.209 . S
C621 O628 1.226 . S
O622 Cd618 2.273 . S
O622 Cd620 2.411 . S
O622 C625 1.320 . S
O623 Cd620 2.333 . S
O623 C625 1.214 . S
O624 Cd620 2.352 . S
O624 C627 1.258 . S
C625 O622 1.320 . S
C625 O623 1.214 . S
O626 Cd618 2.277 . S
O626 C621 1.209 . S
C627 O624 1.258 . S
C627 O629 1.282 . S
O628 Cd620 2.277 . S
O628 C621 1.226 . S
O629 Cd620 2.356 . S
O629 C627 1.282 . S
C630 O631 1.306 . S
C630 O633 1.160 . S
O631 C630 1.306 . S
O631 Cd632 2.228 . S
Cd632 O631 2.228 . S
Cd632 O636 2.273 . S
Cd632 O640 2.277 . S
O633 C630 1.160 . S
O633 Cd634 2.203 . S
Cd634 O633 2.203 . S
Cd634 O636 2.411 . S
Cd634 O637 2.333 . S
Cd634 O638 2.352 . S
Cd634 O642 2.277 . S
Cd634 O643 2.356 . S
C635 O640 1.209 . S
C635 O642 1.226 . S
O636 Cd632 2.273 . S
O636 Cd634 2.411 . S
O636 C639 1.320 . S
O637 Cd634 2.333 . S
O637 C639 1.214 . S
O638 Cd634 2.352 . S
O638 C641 1.258 . S
C639 O636 1.320 . S
C639 O637 1.214 . S
O640 Cd632 2.277 . S
O640 C635 1.209 . S
C641 O638 1.258 . S
C641 O643 1.282 . S
O642 Cd634 2.277 . S
O642 C635 1.226 . S
O643 Cd634 2.356 . S
O643 C641 1.282 . S
C644 O645 1.306 . S
C644 O647 1.160 . S
O645 C644 1.306 . S
O645 Cd646 2.228 . S
Cd646 O645 2.228 . S
Cd646 O650 2.273 . S
Cd646 O654 2.277 . S
O647 C644 1.160 . S
O647 Cd648 2.203 . S
Cd648 O647 2.203 . S
Cd648 O650 2.411 . S
Cd648 O651 2.333 . S
Cd648 O652 2.352 . S
Cd648 O656 2.277 . S
Cd648 O657 2.356 . S
C649 O654 1.209 . S
C649 O656 1.226 . S
O650 Cd646 2.273 . S
O650 Cd648 2.411 . S
O650 C653 1.320 . S
O651 Cd648 2.333 . S
O651 C653 1.214 . S
O652 Cd648 2.352 . S
O652 C655 1.258 . S
C653 O650 1.320 . S
C653 O651 1.214 . S
O654 Cd646 2.277 . S
O654 C649 1.209 . S
C655 O652 1.258 . S
C655 O657 1.282 . S
O656 Cd648 2.277 . S
O656 C649 1.226 . S
O657 Cd648 2.356 . S
O657 C655 1.282 . S
C658 O659 1.306 . S
C658 O661 1.160 . S
O659 C658 1.306 . S
O659 Cd660 2.228 . S
Cd660 O659 2.228 . S
Cd660 O664 2.273 . S
Cd660 O668 2.277 . S
O661 C658 1.160 . S
O661 Cd662 2.203 . S
Cd662 O661 2.203 . S
Cd662 O664 2.411 . S
Cd662 O665 2.333 . S
Cd662 O666 2.352 . S
Cd662 O670 2.277 . S
Cd662 O671 2.356 . S
C663 O668 1.209 . S
C663 O670 1.226 . S
O664 Cd660 2.273 . S
O664 Cd662 2.411 . S
O664 C667 1.320 . S
O665 Cd662 2.333 . S
O665 C667 1.214 . S
O666 Cd662 2.352 . S
O666 C669 1.258 . S
C667 O664 1.320 . S
C667 O665 1.214 . S
O668 Cd660 2.277 . S
O668 C663 1.209 . S
C669 O666 1.258 . S
C669 O671 1.282 . S
O670 Cd662 2.277 . S
O670 C663 1.226 . S
O671 Cd662 2.356 . S
O671 C669 1.282 . S
C672 C673 1.349 . S
C672 C674 1.327 . S
C672 H697 0.950 . S
C673 C672 1.349 . S
C673 C689 1.349 . S
C674 C672 1.327 . S
C674 C693 1.429 . S
C674 H698 0.950 . S
C675 C692 1.574 . S
C675 C694 1.368 . S
C675 H699 0.949 . S
H676 C680 0.949 . S
C677 C678 1.349 . S
C677 C679 1.327 . S
C677 H700 0.950 . S
C678 C677 1.349 . S
C678 C690 1.349 . S
C679 C677 1.327 . S
C679 C695 1.429 . S
C679 H701 0.950 . S
C680 H676 0.949 . S
C680 C688 1.574 . S
C680 C696 1.368 . S
H681 C689 0.950 . S
H682 C687 0.950 . S
H683 C688 0.949 . S
H684 C690 0.950 . S
H685 C691 0.950 . S
H686 C692 0.949 . S
C687 H682 0.950 . S
C687 C689 1.327 . S
C687 C693 1.429 . S
C688 C680 1.574 . S
C688 H683 0.949 . S
C688 C694 1.368 . S
C689 C673 1.349 . S
C689 H681 0.950 . S
C689 C687 1.327 . S
C690 C678 1.349 . S
C690 H684 0.950 . S
C690 C691 1.327 . S
C691 H685 0.950 . S
C691 C690 1.327 . S
C691 C695 1.429 . S
C692 C675 1.574 . S
C692 H686 0.949 . S
C692 C696 1.368 . S
C693 C674 1.429 . S
C693 C687 1.429 . S
C693 C694 1.523 . S
C694 C675 1.368 . S
C694 C688 1.368 . S
C694 C693 1.523 . S
C695 C679 1.429 . S
C695 C691 1.429 . S
C695 C696 1.523 . S
C696 C680 1.368 . S
C696 C692 1.368 . S
C696 C695 1.523 . S
H697 C672 0.950 . S
H698 C674 0.950 . S
H699 C675 0.949 . S
H700 C677 0.950 . S
H701 C679 0.950 . S
C702 C703 1.349 . S
C702 C704 1.327 . S
C702 H727 0.950 . S
C703 C702 1.349 . S
C703 C719 1.349 . S
C704 C702 1.327 . S
C704 C723 1.429 . S
C704 H728 0.950 . S
C705 C722 1.574 . S
C705 C724 1.362 1_655 S
C705 H729 0.949 1_655 S
H706 C710 0.949 . S
C707 C708 1.349 . S
C707 C709 1.327 . S
C707 H730 0.950 . S
C708 C707 1.349 . S
C708 C720 1.349 . S
C709 C707 1.327 . S
C709 C725 1.429 . S
C709 H731 0.950 . S
C710 H706 0.949 . S
C710 C718 1.574 . S
C710 C726 1.368 . S
H711 C719 0.950 . S
H712 C717 0.950 . S
H713 C718 0.949 . S
H714 C720 0.950 . S
H715 C721 0.950 . S
H716 C722 0.949 . S
C717 H712 0.950 . S
C717 C719 1.327 . S
C717 C723 1.429 . S
C718 C710 1.574 . S
C718 H713 0.949 . S
C718 C724 1.360 1_655 S
C719 C703 1.349 . S
C719 H711 0.950 . S
C719 C717 1.327 . S
C720 C708 1.349 . S
C720 H714 0.950 . S
C720 C721 1.327 . S
C721 H715 0.950 . S
C721 C720 1.327 . S
C721 C725 1.429 . S
C722 C705 1.574 . S
C722 H716 0.949 . S
C722 C726 1.368 . S
C723 C704 1.429 . S
C723 C717 1.429 . S
C723 C724 1.542 . S
C724 C705 1.362 1_455 S
C724 C718 1.360 1_455 S
C724 C723 1.542 . S
C725 C709 1.429 . S
C725 C721 1.429 . S
C725 C726 1.523 . S
C726 C710 1.368 . S
C726 C722 1.368 . S
C726 C725 1.523 . S
H727 C702 0.950 . S
H728 C704 0.950 . S
H729 C705 0.949 1_455 S
H730 C707 0.950 . S
H731 C709 0.950 . S
C732 C733 1.349 . S
C732 C734 1.327 . S
C732 H757 0.950 . S
C733 C732 1.349 . S
C733 C749 1.349 . S
C734 C732 1.327 . S
C734 C753 1.429 . S
C734 H758 0.950 . S
C735 C752 1.574 . S
C735 C754 1.368 . S
C735 H759 0.949 . S
H736 C740 0.949 . S
C737 C738 1.349 . S
C737 C739 1.327 . S
C737 H760 0.950 . S
C738 C737 1.349 . S
C738 C750 1.349 . S
C739 C737 1.327 . S
C739 C755 1.429 . S
C739 H761 0.950 . S
C740 H736 0.949 . S
C740 C748 1.574 . S
C740 C756 1.368 . S
H741 C749 0.950 . S
H742 C747 0.950 . S
H743 C748 0.949 . S
H744 C750 0.950 . S
H745 C751 0.950 . S
H746 C752 0.949 . S
C747 H742 0.950 . S
C747 C749 1.327 . S
C747 C753 1.429 . S
C748 C740 1.574 . S
C748 H743 0.949 . S
C748 C754 1.368 . S
C749 C733 1.349 . S
C749 H741 0.950 . S
C749 C747 1.327 . S
C750 C738 1.349 . S
C750 H744 0.950 . S
C750 C751 1.327 . S
C751 H745 0.950 . S
C751 C750 1.327 . S
C751 C755 1.429 . S
C752 C735 1.574 . S
C752 H746 0.949 . S
C752 C756 1.368 . S
C753 C734 1.429 . S
C753 C747 1.429 . S
C753 C754 1.523 . S
C754 C735 1.368 . S
C754 C748 1.368 . S
C754 C753 1.523 . S
C755 C739 1.429 . S
C755 C751 1.429 . S
C755 C756 1.523 . S
C756 C740 1.368 . S
C756 C752 1.368 . S
C756 C755 1.523 . S
H757 C732 0.950 . S
H758 C734 0.950 . S
H759 C735 0.949 . S
H760 C737 0.950 . S
H761 C739 0.950 . S
C762 C763 1.349 . S
C762 C764 1.327 . S
C762 H787 0.950 . S
C763 C762 1.349 . S
C763 C779 1.349 . S
C764 C762 1.327 . S
C764 C783 1.429 . S
C764 H788 0.950 . S
C765 C782 1.574 . S
C765 C784 1.368 . S
C765 H789 0.949 . S
H766 C770 0.949 . S
C767 C768 1.349 . S
C767 C769 1.327 . S
C767 H790 0.950 . S
C768 C767 1.349 . S
C768 C780 1.349 . S
C769 C767 1.327 . S
C769 C785 1.429 . S
C769 H791 0.950 . S
C770 H766 0.949 . S
C770 C778 1.574 . S
C770 C786 1.368 . S
H771 C779 0.950 . S
H772 C777 0.950 . S
H773 C778 0.949 . S
H774 C780 0.950 . S
H775 C781 0.950 . S
H776 C782 0.949 . S
C777 H772 0.950 . S
C777 C779 1.327 . S
C777 C783 1.429 . S
C778 C770 1.574 . S
C778 H773 0.949 . S
C778 C784 1.368 . S
C779 C763 1.349 . S
C779 H771 0.950 . S
C779 C777 1.327 . S
C780 C768 1.349 . S
C780 H774 0.950 . S
C780 C781 1.327 . S
C781 H775 0.950 . S
C781 C780 1.327 . S
C781 C785 1.429 . S
C782 C765 1.574 . S
C782 H776 0.949 . S
C782 C786 1.368 . S
C783 C764 1.429 . S
C783 C777 1.429 . S
C783 C784 1.523 . S
C784 C765 1.368 . S
C784 C778 1.368 . S
C784 C783 1.523 . S
C785 C769 1.429 . S
C785 C781 1.429 . S
C785 C786 1.523 . S
C786 C770 1.368 . S
C786 C782 1.368 . S
C786 C785 1.523 . S
H787 C762 0.950 . S
H788 C764 0.950 . S
H789 C765 0.949 . S
H790 C767 0.950 . S
H791 C769 0.950 . S
C792 C793 1.349 . S
C792 C794 1.327 . S
C792 H817 0.950 . S
C793 C792 1.349 . S
C793 C809 1.349 . S
C794 C792 1.327 . S
C794 C813 1.429 . S
C794 H818 0.950 . S
C795 C812 1.574 . S
C795 C814 1.368 . S
C795 H819 0.949 . S
H796 C800 0.949 . S
C797 C798 1.349 . S
C797 C799 1.327 . S
C797 H820 0.950 . S
C798 C797 1.349 . S
C798 C810 1.349 . S
C799 C797 1.327 . S
C799 C815 1.429 . S
C799 H821 0.950 . S
C800 H796 0.949 . S
C800 C808 1.574 . S
C800 C816 1.368 . S
H801 C809 0.950 . S
H802 C807 0.950 . S
H803 C808 0.949 . S
H804 C810 0.950 . S
H805 C811 0.950 . S
H806 C812 0.949 . S
C807 H802 0.950 . S
C807 C809 1.327 . S
C807 C813 1.429 . S
C808 C800 1.574 . S
C808 H803 0.949 . S
C808 C814 1.368 . S
C809 C793 1.349 . S
C809 H801 0.950 . S
C809 C807 1.327 . S
C810 C798 1.349 . S
C810 H804 0.950 . S
C810 C811 1.327 . S
C811 H805 0.950 . S
C811 C810 1.327 . S
C811 C815 1.429 . S
C812 C795 1.574 . S
C812 H806 0.949 . S
C812 C816 1.368 . S
C813 C794 1.429 . S
C813 C807 1.429 . S
C813 C814 1.523 . S
C814 C795 1.368 . S
C814 C808 1.368 . S
C814 C813 1.523 . S
C815 C799 1.429 . S
C815 C811 1.429 . S
C815 C816 1.523 . S
C816 C800 1.368 . S
C816 C812 1.368 . S
C816 C815 1.523 . S
H817 C792 0.950 . S
H818 C794 0.950 . S
H819 C795 0.949 . S
H820 C797 0.950 . S
H821 C799 0.950 . S
C822 C823 1.349 . S
C822 C824 1.327 . S
C822 H847 0.950 . S
C823 C822 1.349 . S
C823 C839 1.349 . S
C824 C822 1.327 . S
C824 C843 1.429 . S
C824 H848 0.950 . S
C825 C842 1.574 . S
C825 C844 1.368 . S
C825 H849 0.949 . S
H826 C830 0.949 . S
C827 C828 1.349 . S
C827 C829 1.327 . S
C827 H850 0.950 . S
C828 C827 1.349 . S
C828 C840 1.349 . S
C829 C827 1.327 . S
C829 C845 1.429 . S
C829 H851 0.950 . S
C830 H826 0.949 . S
C830 C838 1.574 . S
C830 C846 1.368 . S
H831 C839 0.950 . S
H832 C837 0.950 . S
H833 C838 0.949 . S
H834 C840 0.950 . S
H835 C841 0.950 . S
H836 C842 0.949 . S
C837 H832 0.950 . S
C837 C839 1.327 . S
C837 C843 1.429 . S
C838 C830 1.574 . S
C838 H833 0.949 . S
C838 C844 1.368 . S
C839 C823 1.349 . S
C839 H831 0.950 . S
C839 C837 1.327 . S
C840 C828 1.349 . S
C840 H834 0.950 . S
C840 C841 1.327 . S
C841 H835 0.950 . S
C841 C840 1.327 . S
C841 C845 1.429 . S
C842 C825 1.574 . S
C842 H836 0.949 . S
C842 C846 1.368 . S
C843 C824 1.429 . S
C843 C837 1.429 . S
C843 C844 1.523 . S
C844 C825 1.368 . S
C844 C838 1.368 . S
C844 C843 1.523 . S
C845 C829 1.429 . S
C845 C841 1.429 . S
C845 C846 1.523 . S
C846 C830 1.368 . S
C846 C842 1.368 . S
C846 C845 1.523 . S
H847 C822 0.950 . S
H848 C824 0.950 . S
H849 C825 0.949 . S
H850 C827 0.950 . S
H851 C829 0.950 . S
C852 C853 1.349 . S
C852 C854 1.327 . S
C852 H877 0.950 . S
C853 C852 1.349 . S
C853 C869 1.349 . S
C854 C852 1.327 . S
C854 C873 1.429 . S
C854 H878 0.950 . S
C855 C872 1.574 . S
C855 C874 1.368 . S
C855 H879 0.949 . S
H856 C860 0.949 . S
C857 C858 1.349 . S
C857 C859 1.327 . S
C857 H880 0.950 . S
C858 C857 1.349 . S
C858 C870 1.349 . S
C859 C857 1.327 . S
C859 C875 1.429 . S
C859 H881 0.950 . S
C860 H856 0.949 . S
C860 C868 1.574 . S
C860 C876 1.368 . S
H861 C869 0.950 . S
H862 C867 0.950 . S
H863 C868 0.949 . S
H864 C870 0.950 . S
H865 C871 0.950 . S
H866 C872 0.949 . S
C867 H862 0.950 . S
C867 C869 1.327 . S
C867 C873 1.429 . S
C868 C860 1.574 . S
C868 H863 0.949 . S
C868 C874 1.368 . S
C869 C853 1.349 . S
C869 H861 0.950 . S
C869 C867 1.327 . S
C870 C858 1.349 . S
C870 H864 0.950 . S
C870 C871 1.327 . S
C871 H865 0.950 . S
C871 C870 1.327 . S
C871 C875 1.429 . S
C872 C855 1.574 . S
C872 H866 0.949 . S
C872 C876 1.368 . S
C873 C854 1.429 . S
C873 C867 1.429 . S
C873 C874 1.523 . S
C874 C855 1.368 . S
C874 C868 1.368 . S
C874 C873 1.523 . S
C875 C859 1.429 . S
C875 C871 1.429 . S
C875 C876 1.523 . S
C876 C860 1.368 . S
C876 C872 1.368 . S
C876 C875 1.523 . S
H877 C852 0.950 . S
H878 C854 0.950 . S
H879 C855 0.949 . S
H880 C857 0.950 . S
H881 C859 0.950 . S
C882 C883 1.349 . S
C882 C884 1.327 . S
C882 H907 0.950 . S
C883 C882 1.349 . S
C883 C899 1.349 . S
C884 C882 1.327 . S
C884 C903 1.429 . S
C884 H908 0.950 . S
C885 C902 1.574 . S
C885 C904 1.355 1_655 S
C885 H909 0.949 1_655 S
H886 C890 0.949 . S
C887 C888 1.349 . S
C887 C889 1.327 . S
C887 H910 0.950 . S
C888 C887 1.349 . S
C888 C900 1.349 . S
C889 C887 1.327 . S
C889 C905 1.429 . S
C889 H911 0.950 . S
C890 H886 0.949 . S
C890 C898 1.574 . S
C890 C906 1.368 . S
H891 C899 0.950 . S
H892 C897 0.950 . S
H893 C898 0.952 . S
H894 C900 0.950 . S
H895 C901 0.950 . S
H896 C902 0.949 . S
C897 H892 0.950 . S
C897 C899 1.327 . S
C897 C903 1.429 . S
C898 C890 1.574 . S
C898 H893 0.952 . S
C898 C904 1.354 1_655 S
C899 C883 1.349 . S
C899 H891 0.950 . S
C899 C897 1.327 . S
C900 C888 1.349 . S
C900 H894 0.950 . S
C900 C901 1.327 . S
C901 H895 0.950 . S
C901 C900 1.327 . S
C901 C905 1.429 . S
C902 C885 1.574 . S
C902 H896 0.949 . S
C902 C906 1.368 . S
C903 C884 1.429 . S
C903 C897 1.429 . S
C903 C904 1.559 . S
C904 C885 1.355 1_455 S
C904 C898 1.354 1_455 S
C904 C903 1.559 . S
C905 C889 1.429 . S
C905 C901 1.429 . S
C905 C906 1.523 . S
C906 C890 1.368 . S
C906 C902 1.368 . S
C906 C905 1.523 . S
H907 C882 0.950 . S
H908 C884 0.950 . S
H909 C885 0.949 1_455 S
H910 C887 0.950 . S
H911 C889 0.950 . S
C912 C913 1.349 . S
C912 C914 1.327 . S
C912 H937 0.950 . S
C913 C912 1.349 . S
C913 C929 1.349 . S
C914 C912 1.327 . S
C914 C933 1.429 . S
C914 H938 0.950 . S
C915 C932 1.574 . S
C915 C934 1.368 . S
C915 H939 0.949 . S
H916 C920 0.949 . S
C917 C918 1.349 . S
C917 C919 1.327 . S
C917 H940 0.950 . S
C918 C917 1.349 . S
C918 C930 1.349 . S
C919 C917 1.327 . S
C919 C935 1.429 . S
C919 H941 0.950 . S
C920 H916 0.949 . S
C920 C928 1.574 . S
C920 C936 1.368 . S
H921 C929 0.950 . S
H922 C927 0.950 . S
H923 C928 0.949 . S
H924 C930 0.950 . S
H925 C931 0.950 . S
H926 C932 0.949 . S
C927 H922 0.950 . S
C927 C929 1.327 . S
C927 C933 1.429 . S
C928 C920 1.574 . S
C928 H923 0.949 . S
C928 C934 1.368 . S
C929 C913 1.349 . S
C929 H921 0.950 . S
C929 C927 1.327 . S
C930 C918 1.349 . S
C930 H924 0.950 . S
C930 C931 1.327 . S
C931 H925 0.950 . S
C931 C930 1.327 . S
C931 C935 1.429 . S
C932 C915 1.574 . S
C932 H926 0.949 . S
C932 C936 1.368 . S
C933 C914 1.429 . S
C933 C927 1.429 . S
C933 C934 1.523 . S
C934 C915 1.368 . S
C934 C928 1.368 . S
C934 C933 1.523 . S
C935 C919 1.429 . S
C935 C931 1.429 . S
C935 C936 1.523 . S
C936 C920 1.368 . S
C936 C932 1.368 . S
C936 C935 1.523 . S
H937 C912 0.950 . S
H938 C914 0.950 . S
H939 C915 0.949 . S
H940 C917 0.950 . S
H941 C919 0.950 . S
C942 C943 1.349 . S
C942 C944 1.327 . S
C942 H967 0.950 . S
C943 C942 1.349 . S
C943 C959 1.349 . S
C944 C942 1.327 . S
C944 C963 1.429 . S
C944 H968 0.950 . S
C945 C962 1.574 . S
C945 C964 1.368 . S
C945 H969 0.949 . S
H946 C950 0.949 . S
C947 C948 1.349 . S
C947 C949 1.327 . S
C947 H970 0.950 . S
C948 C947 1.349 . S
C948 C960 1.349 . S
C949 C947 1.327 . S
C949 C965 1.429 . S
C949 H971 0.950 . S
C950 H946 0.949 . S
C950 C958 1.574 . S
C950 C966 1.368 . S
H951 C959 0.950 . S
H952 C957 0.950 . S
H953 C958 0.949 . S
H954 C960 0.950 . S
H955 C961 0.950 . S
H956 C962 0.949 . S
C957 H952 0.950 . S
C957 C959 1.327 . S
C957 C963 1.429 . S
C958 C950 1.574 . S
C958 H953 0.949 . S
C958 C964 1.368 . S
C959 C943 1.349 . S
C959 H951 0.950 . S
C959 C957 1.327 . S
C960 C948 1.349 . S
C960 H954 0.950 . S
C960 C961 1.327 . S
C961 H955 0.950 . S
C961 C960 1.327 . S
C961 C965 1.429 . S
C962 C945 1.574 . S
C962 H956 0.949 . S
C962 C966 1.368 . S
C963 C944 1.429 . S
C963 C957 1.429 . S
C963 C964 1.523 . S
C964 C945 1.368 . S
C964 C958 1.368 . S
C964 C963 1.523 . S
C965 C949 1.429 . S
C965 C961 1.429 . S
C965 C966 1.523 . S
C966 C950 1.368 . S
C966 C962 1.368 . S
C966 C965 1.523 . S
H967 C942 0.950 . S
H968 C944 0.950 . S
H969 C945 0.949 . S
H970 C947 0.950 . S
H971 C949 0.950 . S
C972 C973 1.349 . S
C972 C974 1.327 . S
C972 H997 0.950 . S
C973 C972 1.349 . S
C973 C989 1.349 . S
C974 C972 1.327 . S
C974 C993 1.429 . S
C974 H998 0.950 . S
C975 C992 1.574 . S
C975 C994 1.368 . S
C975 H999 0.949 . S
H976 C980 0.949 . S
C977 C978 1.349 . S
C977 C979 1.327 . S
C977 H1000 0.950 . S
C978 C977 1.349 . S
C978 C990 1.349 . S
C979 C977 1.327 . S
C979 C995 1.429 . S
C979 H1001 0.950 . S
C980 H976 0.949 . S
C980 C988 1.574 . S
C980 C996 1.368 . S
H981 C989 0.950 . S
H982 C987 0.950 . S
H983 C988 0.949 . S
H984 C990 0.950 . S
H985 C991 0.950 . S
H986 C992 0.949 . S
C987 H982 0.950 . S
C987 C989 1.327 . S
C987 C993 1.429 . S
C988 C980 1.574 . S
C988 H983 0.949 . S
C988 C994 1.368 . S
C989 C973 1.349 . S
C989 H981 0.950 . S
C989 C987 1.327 . S
C990 C978 1.349 . S
C990 H984 0.950 . S
C990 C991 1.327 . S
C991 H985 0.950 . S
C991 C990 1.327 . S
C991 C995 1.429 . S
C992 C975 1.574 . S
C992 H986 0.949 . S
C992 C996 1.368 . S
C993 C974 1.429 . S
C993 C987 1.429 . S
C993 C994 1.523 . S
C994 C975 1.368 . S
C994 C988 1.368 . S
C994 C993 1.523 . S
C995 C979 1.429 . S
C995 C991 1.429 . S
C995 C996 1.523 . S
C996 C980 1.368 . S
C996 C992 1.368 . S
C996 C995 1.523 . S
H997 C972 0.950 . S
H998 C974 0.950 . S
H999 C975 0.949 . S
H1000 C977 0.950 . S
H1001 C979 0.950 . S
C1002 C1003 1.349 . S
C1002 C1004 1.327 . S
C1002 H1027 0.950 . S
C1003 C1002 1.349 . S
C1003 C1019 1.349 . S
C1004 C1002 1.327 . S
C1004 C1023 1.429 . S
C1004 H1028 0.950 . S
C1005 C1022 1.574 . S
C1005 C1024 1.368 . S
C1005 H1029 0.949 1_554 S
H1006 C1010 0.949 . S
C1007 C1008 1.349 . S
C1007 C1009 1.327 . S
C1007 H1030 0.950 . S
C1008 C1007 1.349 . S
C1008 C1020 1.349 . S
C1009 C1007 1.327 . S
C1009 C1025 1.429 . S
C1009 H1031 0.950 . S
C1010 H1006 0.949 . S
C1010 C1018 1.574 . S
C1010 C1026 1.368 . S
H1011 C1019 0.950 . S
H1012 C1017 0.950 . S
H1013 C1018 0.949 . S
H1014 C1020 0.950 . S
H1015 C1021 0.950 . S
H1016 C1022 0.949 . S
C1017 H1012 0.950 . S
C1017 C1019 1.327 . S
C1017 C1023 1.429 . S
C1018 C1010 1.574 . S
C1018 H1013 0.949 . S
C1018 C1024 1.368 . S
C1019 C1003 1.349 . S
C1019 H1011 0.950 . S
C1019 C1017 1.327 . S
C1020 C1008 1.349 . S
C1020 H1014 0.950 . S
C1020 C1021 1.327 . S
C1021 H1015 0.950 . S
C1021 C1020 1.327 . S
C1021 C1025 1.429 . S
C1022 C1005 1.574 . S
C1022 H1016 0.949 . S
C1022 C1026 1.368 . S
C1023 C1004 1.429 . S
C1023 C1017 1.429 . S
C1023 C1024 1.523 1_556 S
C1024 C1005 1.368 . S
C1024 C1018 1.368 . S
C1024 C1023 1.523 1_554 S
C1025 C1009 1.429 . S
C1025 C1021 1.429 . S
C1025 C1026 1.523 . S
C1026 C1010 1.368 . S
C1026 C1022 1.368 . S
C1026 C1025 1.523 . S
H1027 C1002 0.950 . S
H1028 C1004 0.950 . S
H1029 C1005 0.949 1_556 S
H1030 C1007 0.950 . S
H1031 C1009 0.950 . S
C1032 C1033 1.349 . S
C1032 C1034 1.327 . S
C1032 H1057 0.950 . S
C1033 C1032 1.349 . S
C1033 C1049 1.349 . S
C1034 C1032 1.327 . S
C1034 C1053 1.429 . S
C1034 H1058 0.950 . S
C1035 C1052 1.574 . S
C1035 C1054 1.368 . S
C1035 H1059 0.949 . S
H1036 C1040 0.949 . S
C1037 C1038 1.349 . S
C1037 C1039 1.327 . S
C1037 H1060 0.950 . S
C1038 C1037 1.349 . S
C1038 C1050 1.349 . S
C1039 C1037 1.327 . S
C1039 C1055 1.429 . S
C1039 H1061 0.950 . S
C1040 H1036 0.949 . S
C1040 C1048 1.574 . S
C1040 C1056 1.368 . S
H1041 C1049 0.950 . S
H1042 C1047 0.950 . S
H1043 C1048 0.949 . S
H1044 C1050 0.950 . S
H1045 C1051 0.950 . S
H1046 C1052 0.949 . S
C1047 H1042 0.950 . S
C1047 C1049 1.327 . S
C1047 C1053 1.429 . S
C1048 C1040 1.574 . S
C1048 H1043 0.949 . S
C1048 C1054 1.368 . S
C1049 C1033 1.349 . S
C1049 H1041 0.950 . S
C1049 C1047 1.327 . S
C1050 C1038 1.349 . S
C1050 H1044 0.950 . S
C1050 C1051 1.327 . S
C1051 H1045 0.950 . S
C1051 C1050 1.327 . S
C1051 C1055 1.429 . S
C1052 C1035 1.574 . S
C1052 H1046 0.949 . S
C1052 C1056 1.368 . S
C1053 C1034 1.429 . S
C1053 C1047 1.429 . S
C1053 C1054 1.523 . S
C1054 C1035 1.368 . S
C1054 C1048 1.368 . S
C1054 C1053 1.523 . S
C1055 C1039 1.429 . S
C1055 C1051 1.429 . S
C1055 C1056 1.523 . S
C1056 C1040 1.368 . S
C1056 C1052 1.368 . S
C1056 C1055 1.523 . S
H1057 C1032 0.950 . S
H1058 C1034 0.950 . S
H1059 C1035 0.949 . S
H1060 C1037 0.950 . S
H1061 C1039 0.950 . S
C1062 C1063 1.349 . S
C1062 C1064 1.327 . S
C1062 H1087 0.950 . S
C1063 C1062 1.349 . S
C1063 C1079 1.349 . S
C1064 C1062 1.327 . S
C1064 C1083 1.429 . S
C1064 H1088 0.950 . S
C1065 C1082 1.574 . S
C1065 C1084 1.368 . S
C1065 H1089 0.949 . S
H1066 C1070 0.949 . S
C1067 C1068 1.349 . S
C1067 C1069 1.327 . S
C1067 H1090 0.950 . S
C1068 C1067 1.349 . S
C1068 C1080 1.349 . S
C1069 C1067 1.327 . S
C1069 C1085 1.429 . S
C1069 H1091 0.950 . S
C1070 H1066 0.949 . S
C1070 C1078 1.574 . S
C1070 C1086 1.368 . S
H1071 C1079 0.950 . S
H1072 C1077 0.950 . S
H1073 C1078 0.949 . S
H1074 C1080 0.950 . S
H1075 C1081 0.950 . S
H1076 C1082 0.949 . S
C1077 H1072 0.950 . S
C1077 C1079 1.327 . S
C1077 C1083 1.429 . S
C1078 C1070 1.574 . S
C1078 H1073 0.949 . S
C1078 C1084 1.368 . S
C1079 C1063 1.349 . S
C1079 H1071 0.950 . S
C1079 C1077 1.327 . S
C1080 C1068 1.349 . S
C1080 H1074 0.950 . S
C1080 C1081 1.327 . S
C1081 H1075 0.950 . S
C1081 C1080 1.327 . S
C1081 C1085 1.429 . S
C1082 C1065 1.574 . S
C1082 H1076 0.949 . S
C1082 C1086 1.368 . S
C1083 C1064 1.429 . S
C1083 C1077 1.429 . S
C1083 C1084 1.523 . S
C1084 C1065 1.368 . S
C1084 C1078 1.368 . S
C1084 C1083 1.523 . S
C1085 C1069 1.429 . S
C1085 C1081 1.429 . S
C1085 C1086 1.523 . S
C1086 C1070 1.368 . S
C1086 C1082 1.368 . S
C1086 C1085 1.523 . S
H1087 C1062 0.950 . S
H1088 C1064 0.950 . S
H1089 C1065 0.949 . S
H1090 C1067 0.950 . S
H1091 C1069 0.950 . S
C1092 C1093 1.349 . S
C1092 C1094 1.327 . S
C1092 H1117 0.950 . S
C1093 C1092 1.349 . S
C1093 C1109 1.349 . S
C1094 C1092 1.327 . S
C1094 C1113 1.429 . S
C1094 H1118 0.950 . S
C1095 C1112 1.574 . S
C1095 C1114 1.368 . S
C1095 H1119 0.949 . S
H1096 C1100 0.949 . S
C1097 C1098 1.349 . S
C1097 C1099 1.327 . S
C1097 H1120 0.950 . S
C1098 C1097 1.349 . S
C1098 C1110 1.349 . S
C1099 C1097 1.327 . S
C1099 C1115 1.429 . S
C1099 H1121 0.950 . S
C1100 H1096 0.949 . S
C1100 C1108 1.574 . S
C1100 C1116 1.368 . S
H1101 C1109 0.950 . S
H1102 C1107 0.950 . S
H1103 C1108 0.949 . S
H1104 C1110 0.950 . S
H1105 C1111 0.950 . S
H1106 C1112 0.949 . S
C1107 H1102 0.950 . S
C1107 C1109 1.327 . S
C1107 C1113 1.429 . S
C1108 C1100 1.574 . S
C1108 H1103 0.949 . S
C1108 C1114 1.368 . S
C1109 C1093 1.349 . S
C1109 H1101 0.950 . S
C1109 C1107 1.327 . S
C1110 C1098 1.349 . S
C1110 H1104 0.950 . S
C1110 C1111 1.327 . S
C1111 H1105 0.950 . S
C1111 C1110 1.327 . S
C1111 C1115 1.429 . S
C1112 C1095 1.574 . S
C1112 H1106 0.949 . S
C1112 C1116 1.368 . S
C1113 C1094 1.429 . S
C1113 C1107 1.429 . S
C1113 C1114 1.523 . S
C1114 C1095 1.368 . S
C1114 C1108 1.368 . S
C1114 C1113 1.523 . S
C1115 C1099 1.429 . S
C1115 C1111 1.429 . S
C1115 C1116 1.523 . S
C1116 C1100 1.368 . S
C1116 C1112 1.368 . S
C1116 C1115 1.523 . S
H1117 C1092 0.950 . S
H1118 C1094 0.950 . S
H1119 C1095 0.949 . S
H1120 C1097 0.950 . S
H1121 C1099 0.950 . S
C1122 C1123 1.349 . S
C1122 C1124 1.327 . S
C1122 H1147 0.950 . S
C1123 C1122 1.349 . S
C1123 C1139 1.349 . S
C1124 C1122 1.327 . S
C1124 C1143 1.429 . S
C1124 H1148 0.950 . S
C1125 C1142 1.574 . S
C1125 C1144 1.368 . S
C1125 H1149 0.949 . S
H1126 C1130 0.949 . S
C1127 C1128 1.349 . S
C1127 C1129 1.327 . S
C1127 H1150 0.950 . S
C1128 C1127 1.349 . S
C1128 C1140 1.349 . S
C1129 C1127 1.327 . S
C1129 C1145 1.429 . S
C1129 H1151 0.950 . S
C1130 H1126 0.949 . S
C1130 C1138 1.574 . S
C1130 C1146 1.368 . S
H1131 C1139 0.950 . S
H1132 C1137 0.950 . S
H1133 C1138 0.950 . S
H1134 C1140 0.950 . S
H1135 C1141 0.950 . S
H1136 C1142 0.949 . S
C1137 H1132 0.950 . S
C1137 C1139 1.327 . S
C1137 C1143 1.429 . S
C1138 C1130 1.574 . S
C1138 H1133 0.950 . S
C1138 C1144 1.368 . S
C1139 C1123 1.349 . S
C1139 H1131 0.950 . S
C1139 C1137 1.327 . S
C1140 C1128 1.349 . S
C1140 H1134 0.950 . S
C1140 C1141 1.327 . S
C1141 H1135 0.950 . S
C1141 C1140 1.327 . S
C1141 C1145 1.429 . S
C1142 C1125 1.574 . S
C1142 H1136 0.949 . S
C1142 C1146 1.368 . S
C1143 C1124 1.429 . S
C1143 C1137 1.429 . S
C1143 C1144 1.523 1_554 S
C1144 C1125 1.368 . S
C1144 C1138 1.368 . S
C1144 C1143 1.523 1_556 S
C1145 C1129 1.429 . S
C1145 C1141 1.429 . S
C1145 C1146 1.523 . S
C1146 C1130 1.368 . S
C1146 C1142 1.368 . S
C1146 C1145 1.523 . S
H1147 C1122 0.950 . S
H1148 C1124 0.950 . S
H1149 C1125 0.949 . S
H1150 C1127 0.950 . S
H1151 C1129 0.950 . S
C1152 C1153 1.349 . S
C1152 C1154 1.327 . S
C1152 H1177 0.950 . S
C1153 C1152 1.349 . S
C1153 C1169 1.349 . S
C1154 C1152 1.327 . S
C1154 C1173 1.429 . S
C1154 H1178 0.950 . S
C1155 C1172 1.574 . S
C1155 C1174 1.368 . S
C1155 H1179 0.949 . S
H1156 C1160 0.949 . S
C1157 C1158 1.349 . S
C1157 C1159 1.327 . S
C1157 H1180 0.950 . S
C1158 C1157 1.349 . S
C1158 C1170 1.349 . S
C1159 C1157 1.327 . S
C1159 C1175 1.429 . S
C1159 H1181 0.950 . S
C1160 H1156 0.949 . S
C1160 C1168 1.574 . S
C1160 C1176 1.368 . S
H1161 C1169 0.950 . S
H1162 C1167 0.950 . S
H1163 C1168 0.949 . S
H1164 C1170 0.950 . S
H1165 C1171 0.950 . S
H1166 C1172 0.949 . S
C1167 H1162 0.950 . S
C1167 C1169 1.327 . S
C1167 C1173 1.429 . S
C1168 C1160 1.574 . S
C1168 H1163 0.949 . S
C1168 C1174 1.368 . S
C1169 C1153 1.349 . S
C1169 H1161 0.950 . S
C1169 C1167 1.327 . S
C1170 C1158 1.349 . S
C1170 H1164 0.950 . S
C1170 C1171 1.327 . S
C1171 H1165 0.950 . S
C1171 C1170 1.327 . S
C1171 C1175 1.429 . S
C1172 C1155 1.574 . S
C1172 H1166 0.949 . S
C1172 C1176 1.368 . S
C1173 C1154 1.429 . S
C1173 C1167 1.429 . S
C1173 C1174 1.523 . S
C1174 C1155 1.368 . S
C1174 C1168 1.368 . S
C1174 C1173 1.523 . S
C1175 C1159 1.429 . S
C1175 C1171 1.429 . S
C1175 C1176 1.523 . S
C1176 C1160 1.368 . S
C1176 C1172 1.368 . S
C1176 C1175 1.523 . S
H1177 C1152 0.950 . S
H1178 C1154 0.950 . S
H1179 C1155 0.949 . S
H1180 C1157 0.950 . S
H1181 C1159 0.950 . S
C1182 C1183 1.349 . S
C1182 C1184 1.327 . S
C1182 H1207 0.950 . S
C1183 C1182 1.349 . S
C1183 C1199 1.349 . S
C1184 C1182 1.327 . S
C1184 C1203 1.429 . S
C1184 H1208 0.950 . S
C1185 C1202 1.574 . S
C1185 C1204 1.368 . S
C1185 H1209 0.949 . S
H1186 C1190 0.949 . S
C1187 C1188 1.349 . S
C1187 C1189 1.327 . S
C1187 H1210 0.950 . S
C1188 C1187 1.349 . S
C1188 C1200 1.349 . S
C1189 C1187 1.327 . S
C1189 C1205 1.429 . S
C1189 H1211 0.950 . S
C1190 H1186 0.949 . S
C1190 C1198 1.574 . S
C1190 C1206 1.368 . S
H1191 C1199 0.950 . S
H1192 C1197 0.950 . S
H1193 C1198 0.949 . S
H1194 C1200 0.950 . S
H1195 C1201 0.950 . S
H1196 C1202 0.949 . S
C1197 H1192 0.950 . S
C1197 C1199 1.327 . S
C1197 C1203 1.429 . S
C1198 C1190 1.574 . S
C1198 H1193 0.949 . S
C1198 C1204 1.368 . S
C1199 C1183 1.349 . S
C1199 H1191 0.950 . S
C1199 C1197 1.327 . S
C1200 C1188 1.349 . S
C1200 H1194 0.950 . S
C1200 C1201 1.327 . S
C1201 H1195 0.950 . S
C1201 C1200 1.327 . S
C1201 C1205 1.429 . S
C1202 C1185 1.574 . S
C1202 H1196 0.949 . S
C1202 C1206 1.368 . S
C1203 C1184 1.429 . S
C1203 C1197 1.429 . S
C1203 C1204 1.523 . S
C1204 C1185 1.368 . S
C1204 C1198 1.368 . S
C1204 C1203 1.523 . S
C1205 C1189 1.429 . S
C1205 C1201 1.429 . S
C1205 C1206 1.523 . S
C1206 C1190 1.368 . S
C1206 C1202 1.368 . S
C1206 C1205 1.523 . S
H1207 C1182 0.950 . S
H1208 C1184 0.950 . S
H1209 C1185 0.949 . S
H1210 C1187 0.950 . S
H1211 C1189 0.950 . S
C1212 C1213 1.349 . S
C1212 C1214 1.327 . S
C1212 H1237 0.950 . S
C1213 C1212 1.349 . S
C1213 C1229 1.349 . S
C1214 C1212 1.327 . S
C1214 C1233 1.429 . S
C1214 H1238 0.950 . S
C1215 C1232 1.574 . S
C1215 C1234 1.368 . S
C1215 H1239 0.949 . S
H1216 C1220 0.949 . S
C1217 C1218 1.349 . S
C1217 C1219 1.327 . S
C1217 H1240 0.950 . S
C1218 C1217 1.349 . S
C1218 C1230 1.349 . S
C1219 C1217 1.327 . S
C1219 C1235 1.429 . S
C1219 H1241 0.950 . S
C1220 H1216 0.949 . S
C1220 C1228 1.574 . S
C1220 C1236 1.368 . S
H1221 C1229 0.950 . S
H1222 C1227 0.950 . S
H1223 C1228 0.949 . S
H1224 C1230 0.950 . S
H1225 C1231 0.950 . S
H1226 C1232 0.949 . S
C1227 H1222 0.950 . S
C1227 C1229 1.327 . S
C1227 C1233 1.429 . S
C1228 C1220 1.574 . S
C1228 H1223 0.949 . S
C1228 C1234 1.368 . S
C1229 C1213 1.349 . S
C1229 H1221 0.950 . S
C1229 C1227 1.327 . S
C1230 C1218 1.349 . S
C1230 H1224 0.950 . S
C1230 C1231 1.327 . S
C1231 H1225 0.950 . S
C1231 C1230 1.327 . S
C1231 C1235 1.429 . S
C1232 C1215 1.574 . S
C1232 H1226 0.949 . S
C1232 C1236 1.368 . S
C1233 C1214 1.429 . S
C1233 C1227 1.429 . S
C1233 C1234 1.523 . S
C1234 C1215 1.368 . S
C1234 C1228 1.368 . S
C1234 C1233 1.523 . S
C1235 C1219 1.429 . S
C1235 C1231 1.429 . S
C1235 C1236 1.523 . S
C1236 C1220 1.368 . S
C1236 C1232 1.368 . S
C1236 C1235 1.523 . S
H1237 C1212 0.950 . S
H1238 C1214 0.950 . S
H1239 C1215 0.949 . S
H1240 C1217 0.950 . S
H1241 C1219 0.950 . S
C1242 C1243 1.349 . S
C1242 C1244 1.327 . S
C1242 H1267 0.950 . S
C1243 C1242 1.349 . S
C1243 C1259 1.349 . S
C1244 C1242 1.327 . S
C1244 C1263 1.429 . S
C1244 H1268 0.950 . S
C1245 C1262 1.574 . S
C1245 C1264 1.368 . S
C1245 H1269 0.949 . S
H1246 C1250 0.949 . S
C1247 C1248 1.349 . S
C1247 C1249 1.327 . S
C1247 H1270 0.950 . S
C1248 C1247 1.349 . S
C1248 C1260 1.349 . S
C1249 C1247 1.327 . S
C1249 C1265 1.429 . S
C1249 H1271 0.950 . S
C1250 H1246 0.949 . S
C1250 C1258 1.574 . S
C1250 C1266 1.368 . S
H1251 C1259 0.950 . S
H1252 C1257 0.950 . S
H1253 C1258 0.949 . S
H1254 C1260 0.950 . S
H1255 C1261 0.950 . S
H1256 C1262 0.949 . S
C1257 H1252 0.950 . S
C1257 C1259 1.327 . S
C1257 C1263 1.429 . S
C1258 C1250 1.574 . S
C1258 H1253 0.949 . S
C1258 C1264 1.368 . S
C1259 C1243 1.349 . S
C1259 H1251 0.950 . S
C1259 C1257 1.327 . S
C1260 C1248 1.349 . S
C1260 H1254 0.950 . S
C1260 C1261 1.327 . S
C1261 H1255 0.950 . S
C1261 C1260 1.327 . S
C1261 C1265 1.429 . S
C1262 C1245 1.574 . S
C1262 H1256 0.949 . S
C1262 C1266 1.368 . S
C1263 C1244 1.429 . S
C1263 C1257 1.429 . S
C1263 C1264 1.523 . S
C1264 C1245 1.368 . S
C1264 C1258 1.368 . S
C1264 C1263 1.523 . S
C1265 C1249 1.429 . S
C1265 C1261 1.429 . S
C1265 C1266 1.523 . S
C1266 C1250 1.368 . S
C1266 C1262 1.368 . S
C1266 C1265 1.523 . S
H1267 C1242 0.950 . S
H1268 C1244 0.950 . S
H1269 C1245 0.949 . S
H1270 C1247 0.950 . S
H1271 C1249 0.950 . S
C1272 C1273 1.349 . S
C1272 C1274 1.327 . S
C1272 H1297 0.950 . S
C1273 C1272 1.349 . S
C1273 C1289 1.349 . S
C1274 C1272 1.327 . S
C1274 C1293 1.429 . S
C1274 H1298 0.950 . S
C1275 C1292 1.574 . S
C1275 C1294 1.368 . S
C1275 H1299 0.949 . S
H1276 C1280 0.949 . S
C1277 C1278 1.349 . S
C1277 C1279 1.327 . S
C1277 H1300 0.950 . S
C1278 C1277 1.349 . S
C1278 C1290 1.349 . S
C1279 C1277 1.327 . S
C1279 C1295 1.429 . S
C1279 H1301 0.950 . S
C1280 H1276 0.949 . S
C1280 C1288 1.574 . S
C1280 C1296 1.368 . S
H1281 C1289 0.950 . S
H1282 C1287 0.950 . S
H1283 C1288 0.949 . S
H1284 C1290 0.950 . S
H1285 C1291 0.950 . S
H1286 C1292 0.949 1_545 S
C1287 H1282 0.950 . S
C1287 C1289 1.327 . S
C1287 C1293 1.429 . S
C1288 C1280 1.574 . S
C1288 H1283 0.949 . S
C1288 C1294 1.368 . S
C1289 C1273 1.349 . S
C1289 H1281 0.950 . S
C1289 C1287 1.327 . S
C1290 C1278 1.349 . S
C1290 H1284 0.950 . S
C1290 C1291 1.327 . S
C1291 H1285 0.950 . S
C1291 C1290 1.327 . S
C1291 C1295 1.429 . S
C1292 C1275 1.574 . S
C1292 H1286 0.949 1_565 S
C1292 C1296 1.368 . S
C1293 C1274 1.429 . S
C1293 C1287 1.429 . S
C1293 C1294 1.523 . S
C1294 C1275 1.368 . S
C1294 C1288 1.368 . S
C1294 C1293 1.523 . S
C1295 C1279 1.429 . S
C1295 C1291 1.429 . S
C1295 C1296 1.523 1_545 S
C1296 C1280 1.368 . S
C1296 C1292 1.368 . S
C1296 C1295 1.523 1_565 S
H1297 C1272 0.950 . S
H1298 C1274 0.950 . S
H1299 C1275 0.949 . S
H1300 C1277 0.950 . S
H1301 C1279 0.950 . S
C1302 C1303 1.349 . S
C1302 C1304 1.327 . S
C1302 H1327 0.950 . S
C1303 C1302 1.349 . S
C1303 C1319 1.349 . S
C1304 C1302 1.327 . S
C1304 C1323 1.429 . S
C1304 H1328 0.950 . S
C1305 C1322 1.574 . S
C1305 C1324 1.368 . S
C1305 H1329 0.949 . S
H1306 C1310 0.949 . S
C1307 C1308 1.349 . S
C1307 C1309 1.327 . S
C1307 H1330 0.950 . S
C1308 C1307 1.349 . S
C1308 C1320 1.349 . S
C1309 C1307 1.327 . S
C1309 C1325 1.429 . S
C1309 H1331 0.950 . S
C1310 H1306 0.949 . S
C1310 C1318 1.574 . S
C1310 C1326 1.368 . S
H1311 C1319 0.950 . S
H1312 C1317 0.950 . S
H1313 C1318 0.949 . S
H1314 C1320 0.950 . S
H1315 C1321 0.950 . S
H1316 C1322 0.949 . S
C1317 H1312 0.950 . S
C1317 C1319 1.327 . S
C1317 C1323 1.429 . S
C1318 C1310 1.574 . S
C1318 H1313 0.949 . S
C1318 C1324 1.368 . S
C1319 C1303 1.349 . S
C1319 H1311 0.950 . S
C1319 C1317 1.327 . S
C1320 C1308 1.349 . S
C1320 H1314 0.950 . S
C1320 C1321 1.327 . S
C1321 H1315 0.950 . S
C1321 C1320 1.327 . S
C1321 C1325 1.429 . S
C1322 C1305 1.574 . S
C1322 H1316 0.949 . S
C1322 C1326 1.368 . S
C1323 C1304 1.429 . S
C1323 C1317 1.429 . S
C1323 C1324 1.523 . S
C1324 C1305 1.368 . S
C1324 C1318 1.368 . S
C1324 C1323 1.523 . S
C1325 C1309 1.429 . S
C1325 C1321 1.429 . S
C1325 C1326 1.523 . S
C1326 C1310 1.368 . S
C1326 C1322 1.368 . S
C1326 C1325 1.523 . S
H1327 C1302 0.950 . S
H1328 C1304 0.950 . S
H1329 C1305 0.949 . S
H1330 C1307 0.950 . S
H1331 C1309 0.950 . S
C1332 C1333 1.349 . S
C1332 C1334 1.327 . S
C1332 H1357 0.950 . S
C1333 C1332 1.349 . S
C1333 C1349 1.349 . S
C1334 C1332 1.327 . S
C1334 C1353 1.429 . S
C1334 H1358 0.950 . S
C1335 C1352 1.574 . S
C1335 C1354 1.368 . S
C1335 H1359 0.949 . S
H1336 C1340 0.949 . S
C1337 C1338 1.349 . S
C1337 C1339 1.327 . S
C1337 H1360 0.950 . S
C1338 C1337 1.349 . S
C1338 C1350 1.349 . S
C1339 C1337 1.327 . S
C1339 C1355 1.429 . S
C1339 H1361 0.950 . S
C1340 H1336 0.949 . S
C1340 C1348 1.574 . S
C1340 C1356 1.368 . S
H1341 C1349 0.950 . S
H1342 C1347 0.950 . S
H1343 C1348 0.949 . S
H1344 C1350 0.950 . S
H1345 C1351 0.950 . S
H1346 C1352 0.949 . S
C1347 H1342 0.950 . S
C1347 C1349 1.327 . S
C1347 C1353 1.429 . S
C1348 C1340 1.574 . S
C1348 H1343 0.949 . S
C1348 C1354 1.368 . S
C1349 C1333 1.349 . S
C1349 H1341 0.950 . S
C1349 C1347 1.327 . S
C1350 C1338 1.349 . S
C1350 H1344 0.950 . S
C1350 C1351 1.327 . S
C1351 H1345 0.950 . S
C1351 C1350 1.327 . S
C1351 C1355 1.429 . S
C1352 C1335 1.574 . S
C1352 H1346 0.949 . S
C1352 C1356 1.368 . S
C1353 C1334 1.429 . S
C1353 C1347 1.429 . S
C1353 C1354 1.523 . S
C1354 C1335 1.368 . S
C1354 C1348 1.368 . S
C1354 C1353 1.523 . S
C1355 C1339 1.429 . S
C1355 C1351 1.429 . S
C1355 C1356 1.523 . S
C1356 C1340 1.368 . S
C1356 C1352 1.368 . S
C1356 C1355 1.523 . S
H1357 C1332 0.950 . S
H1358 C1334 0.950 . S
H1359 C1335 0.949 . S
H1360 C1337 0.950 . S
H1361 C1339 0.950 . S
C1362 C1363 1.349 . S
C1362 C1364 1.327 . S
C1362 H1387 0.950 . S
C1363 C1362 1.349 . S
C1363 C1379 1.349 . S
C1364 C1362 1.327 . S
C1364 C1383 1.429 . S
C1364 H1388 0.950 . S
C1365 C1382 1.574 . S
C1365 C1384 1.368 . S
C1365 H1389 0.949 . S
H1366 C1370 0.949 . S
C1367 C1368 1.349 . S
C1367 C1369 1.327 . S
C1367 H1390 0.950 . S
C1368 C1367 1.349 . S
C1368 C1380 1.349 . S
C1369 C1367 1.327 . S
C1369 C1385 1.429 . S
C1369 H1391 0.950 . S
C1370 H1366 0.949 . S
C1370 C1378 1.574 . S
C1370 C1386 1.368 . S
H1371 C1379 0.950 . S
H1372 C1377 0.950 . S
H1373 C1378 0.949 . S
H1374 C1380 0.950 . S
H1375 C1381 0.950 . S
H1376 C1382 0.949 . S
C1377 H1372 0.950 . S
C1377 C1379 1.327 . S
C1377 C1383 1.429 . S
C1378 C1370 1.574 . S
C1378 H1373 0.949 . S
C1378 C1384 1.368 . S
C1379 C1363 1.349 . S
C1379 H1371 0.950 . S
C1379 C1377 1.327 . S
C1380 C1368 1.349 . S
C1380 H1374 0.950 . S
C1380 C1381 1.327 . S
C1381 H1375 0.950 . S
C1381 C1380 1.327 . S
C1381 C1385 1.429 . S
C1382 C1365 1.574 . S
C1382 H1376 0.949 . S
C1382 C1386 1.368 . S
C1383 C1364 1.429 . S
C1383 C1377 1.429 . S
C1383 C1384 1.523 . S
C1384 C1365 1.368 . S
C1384 C1378 1.368 . S
C1384 C1383 1.523 . S
C1385 C1369 1.429 . S
C1385 C1381 1.429 . S
C1385 C1386 1.523 . S
C1386 C1370 1.368 . S
C1386 C1382 1.368 . S
C1386 C1385 1.523 . S
H1387 C1362 0.950 . S
H1388 C1364 0.950 . S
H1389 C1365 0.949 . S
H1390 C1367 0.950 . S
H1391 C1369 0.950 . S
C1392 C1393 1.349 . S
C1392 C1394 1.327 . S
C1392 H1417 0.950 . S
C1393 C1392 1.349 . S
C1393 C1409 1.349 . S
C1394 C1392 1.327 . S
C1394 C1413 1.429 . S
C1394 H1418 0.950 . S
C1395 C1412 1.574 . S
C1395 C1414 1.368 . S
C1395 H1419 0.949 . S
H1396 C1400 0.949 . S
C1397 C1398 1.349 . S
C1397 C1399 1.327 . S
C1397 H1420 0.950 . S
C1398 C1397 1.349 . S
C1398 C1410 1.349 . S
C1399 C1397 1.327 . S
C1399 C1415 1.429 . S
C1399 H1421 0.950 . S
C1400 H1396 0.949 . S
C1400 C1408 1.574 . S
C1400 C1416 1.368 . S
H1401 C1409 0.950 . S
H1402 C1407 0.950 . S
H1403 C1408 0.949 . S
H1404 C1410 0.950 . S
H1405 C1411 0.950 . S
H1406 C1412 0.949 . S
C1407 H1402 0.950 . S
C1407 C1409 1.327 . S
C1407 C1413 1.429 . S
C1408 C1400 1.574 . S
C1408 H1403 0.949 . S
C1408 C1414 1.368 . S
C1409 C1393 1.349 . S
C1409 H1401 0.950 . S
C1409 C1407 1.327 . S
C1410 C1398 1.349 . S
C1410 H1404 0.950 . S
C1410 C1411 1.327 . S
C1411 H1405 0.950 . S
C1411 C1410 1.327 . S
C1411 C1415 1.429 . S
C1412 C1395 1.574 . S
C1412 H1406 0.949 . S
C1412 C1416 1.368 . S
C1413 C1394 1.429 . S
C1413 C1407 1.429 . S
C1413 C1414 1.523 . S
C1414 C1395 1.368 . S
C1414 C1408 1.368 . S
C1414 C1413 1.523 . S
C1415 C1399 1.429 . S
C1415 C1411 1.429 . S
C1415 C1416 1.523 . S
C1416 C1400 1.368 . S
C1416 C1412 1.368 . S
C1416 C1415 1.523 . S
H1417 C1392 0.950 . S
H1418 C1394 0.950 . S
H1419 C1395 0.949 . S
H1420 C1397 0.950 . S
H1421 C1399 0.950 . S
C1422 C1423 1.349 . S
C1422 C1424 1.327 . S
C1422 H1447 0.950 . S
C1423 C1422 1.349 . S
C1423 C1439 1.349 . S
C1424 C1422 1.327 . S
C1424 C1443 1.429 . S
C1424 H1448 0.950 . S
C1425 C1442 1.574 . S
C1425 C1444 1.368 1_455 S
C1425 H1449 0.955 . S
H1426 C1430 0.949 . S
C1427 C1428 1.349 . S
C1427 C1429 1.327 . S
C1427 H1450 0.950 . S
C1428 C1427 1.349 . S
C1428 C1440 1.349 . S
C1429 C1427 1.327 . S
C1429 C1445 1.429 . S
C1429 H1451 0.950 . S
C1430 H1426 0.949 . S
C1430 C1438 1.628 . S
C1430 C1446 1.368 . S
H1431 C1439 0.950 . S
H1432 C1437 0.950 . S
H1433 C1438 0.913 1_655 S
H1434 C1440 0.950 . S
H1435 C1441 0.950 . S
H1436 C1442 0.949 . S
C1437 H1432 0.950 . S
C1437 C1439 1.327 . S
C1437 C1443 1.429 . S
C1438 C1430 1.628 . S
C1438 H1433 0.913 1_455 S
C1438 C1444 1.356 1_455 S
C1439 C1423 1.349 . S
C1439 H1431 0.950 . S
C1439 C1437 1.327 . S
C1440 C1428 1.349 . S
C1440 H1434 0.950 . S
C1440 C1441 1.327 . S
C1441 H1435 0.950 . S
C1441 C1440 1.327 . S
C1441 C1445 1.429 . S
C1442 C1425 1.574 . S
C1442 H1436 0.949 . S
C1442 C1446 1.368 . S
C1443 C1424 1.429 . S
C1443 C1437 1.429 . S
C1443 C1444 1.523 . S
C1444 C1425 1.368 1_655 S
C1444 C1438 1.356 1_655 S
C1444 C1443 1.523 . S
C1445 C1429 1.429 . S
C1445 C1441 1.429 . S
C1445 C1446 1.523 . S
C1446 C1430 1.368 . S
C1446 C1442 1.368 . S
C1446 C1445 1.523 . S
H1447 C1422 0.950 . S
H1448 C1424 0.950 . S
H1449 C1425 0.955 . S
H1450 C1427 0.950 . S
H1451 C1429 0.950 . S
C1452 C1453 1.349 . S
C1452 C1454 1.327 . S
C1452 H1477 0.950 . S
C1453 C1452 1.349 . S
C1453 C1469 1.349 . S
C1454 C1452 1.327 . S
C1454 C1473 1.429 . S
C1454 H1478 0.950 . S
C1455 C1472 1.574 . S
C1455 C1474 1.368 . S
C1455 H1479 0.949 . S
H1456 C1460 0.949 . S
C1457 C1458 1.349 . S
C1457 C1459 1.327 . S
C1457 H1480 0.950 . S
C1458 C1457 1.349 . S
C1458 C1470 1.349 . S
C1459 C1457 1.327 . S
C1459 C1475 1.429 . S
C1459 H1481 0.950 . S
C1460 H1456 0.949 . S
C1460 C1468 1.574 . S
C1460 C1476 1.368 . S
H1461 C1469 0.950 . S
H1462 C1467 0.950 . S
H1463 C1468 0.949 . S
H1464 C1470 0.950 . S
H1465 C1471 0.950 . S
H1466 C1472 0.949 . S
C1467 H1462 0.950 . S
C1467 C1469 1.327 . S
C1467 C1473 1.429 . S
C1468 C1460 1.574 . S
C1468 H1463 0.949 . S
C1468 C1474 1.368 . S
C1469 C1453 1.349 . S
C1469 H1461 0.950 . S
C1469 C1467 1.327 . S
C1470 C1458 1.349 . S
C1470 H1464 0.950 . S
C1470 C1471 1.327 . S
C1471 H1465 0.950 . S
C1471 C1470 1.327 . S
C1471 C1475 1.429 . S
C1472 C1455 1.574 . S
C1472 H1466 0.949 . S
C1472 C1476 1.368 . S
C1473 C1454 1.429 . S
C1473 C1467 1.429 . S
C1473 C1474 1.523 . S
C1474 C1455 1.368 . S
C1474 C1468 1.368 . S
C1474 C1473 1.523 . S
C1475 C1459 1.429 . S
C1475 C1471 1.429 . S
C1475 C1476 1.523 . S
C1476 C1460 1.368 . S
C1476 C1472 1.368 . S
C1476 C1475 1.523 . S
H1477 C1452 0.950 . S
H1478 C1454 0.950 . S
H1479 C1455 0.949 . S
H1480 C1457 0.950 . S
H1481 C1459 0.950 . S
C1482 C1483 1.349 . S
C1482 C1484 1.327 . S
C1482 H1507 0.950 . S
C1483 C1482 1.349 . S
C1483 C1499 1.349 . S
C1484 C1482 1.327 . S
C1484 C1503 1.429 . S
C1484 H1508 0.950 . S
C1485 C1502 1.574 . S
C1485 C1504 1.368 . S
C1485 H1509 0.949 . S
H1486 C1490 0.949 . S
C1487 C1488 1.349 . S
C1487 C1489 1.327 . S
C1487 H1510 0.950 . S
C1488 C1487 1.349 . S
C1488 C1500 1.349 . S
C1489 C1487 1.327 . S
C1489 C1505 1.429 . S
C1489 H1511 0.950 . S
C1490 H1486 0.949 . S
C1490 C1498 1.574 . S
C1490 C1506 1.368 . S
H1491 C1499 0.950 . S
H1492 C1497 0.950 . S
H1493 C1498 0.949 . S
H1494 C1500 0.950 . S
H1495 C1501 0.950 . S
H1496 C1502 0.949 . S
C1497 H1492 0.950 . S
C1497 C1499 1.327 . S
C1497 C1503 1.429 . S
C1498 C1490 1.574 . S
C1498 H1493 0.949 . S
C1498 C1504 1.368 . S
C1499 C1483 1.349 . S
C1499 H1491 0.950 . S
C1499 C1497 1.327 . S
C1500 C1488 1.349 . S
C1500 H1494 0.950 . S
C1500 C1501 1.327 . S
C1501 H1495 0.950 . S
C1501 C1500 1.327 . S
C1501 C1505 1.429 . S
C1502 C1485 1.574 . S
C1502 H1496 0.949 . S
C1502 C1506 1.368 . S
C1503 C1484 1.429 . S
C1503 C1497 1.429 . S
C1503 C1504 1.523 . S
C1504 C1485 1.368 . S
C1504 C1498 1.368 . S
C1504 C1503 1.523 . S
C1505 C1489 1.429 . S
C1505 C1501 1.429 . S
C1505 C1506 1.523 . S
C1506 C1490 1.368 . S
C1506 C1502 1.368 . S
C1506 C1505 1.523 . S
H1507 C1482 0.950 . S
H1508 C1484 0.950 . S
H1509 C1485 0.949 . S
H1510 C1487 0.950 . S
H1511 C1489 0.950 . S
C1512 C1513 1.349 . S
C1512 C1514 1.327 . S
C1512 H1537 0.950 . S
C1513 C1512 1.349 . S
C1513 C1529 1.349 . S
C1514 C1512 1.327 . S
C1514 C1533 1.429 . S
C1514 H1538 0.950 . S
C1515 C1532 1.574 . S
C1515 C1534 1.368 . S
C1515 H1539 0.949 . S
H1516 C1520 0.949 . S
C1517 C1518 1.349 . S
C1517 C1519 1.327 . S
C1517 H1540 0.950 . S
C1518 C1517 1.349 . S
C1518 C1530 1.349 . S
C1519 C1517 1.327 . S
C1519 C1535 1.429 . S
C1519 H1541 0.950 . S
C1520 H1516 0.949 . S
C1520 C1528 1.574 . S
C1520 C1536 1.368 . S
H1521 C1529 0.950 . S
H1522 C1527 0.950 . S
H1523 C1528 0.949 . S
H1524 C1530 0.950 . S
H1525 C1531 0.950 . S
H1526 C1532 0.949 . S
C1527 H1522 0.950 . S
C1527 C1529 1.327 . S
C1527 C1533 1.429 . S
C1528 C1520 1.574 . S
C1528 H1523 0.949 . S
C1528 C1534 1.368 . S
C1529 C1513 1.349 . S
C1529 H1521 0.950 . S
C1529 C1527 1.327 . S
C1530 C1518 1.349 . S
C1530 H1524 0.950 . S
C1530 C1531 1.327 . S
C1531 H1525 0.950 . S
C1531 C1530 1.327 . S
C1531 C1535 1.429 . S
C1532 C1515 1.574 . S
C1532 H1526 0.949 . S
C1532 C1536 1.368 . S
C1533 C1514 1.429 . S
C1533 C1527 1.429 . S
C1533 C1534 1.523 . S
C1534 C1515 1.368 . S
C1534 C1528 1.368 . S
C1534 C1533 1.523 . S
C1535 C1519 1.429 . S
C1535 C1531 1.429 . S
C1535 C1536 1.523 . S
C1536 C1520 1.368 . S
C1536 C1532 1.368 . S
C1536 C1535 1.523 . S
H1537 C1512 0.950 . S
H1538 C1514 0.950 . S
H1539 C1515 0.949 . S
H1540 C1517 0.950 . S
H1541 C1519 0.950 . S
C1542 C1543 1.349 . S
C1542 C1544 1.327 . S
C1542 H1567 0.950 . S
C1543 C1542 1.349 . S
C1543 C1559 1.349 . S
C1544 C1542 1.327 . S
C1544 C1563 1.429 . S
C1544 H1568 0.950 . S
C1545 C1562 1.574 . S
C1545 C1564 1.368 . S
C1545 H1569 0.949 . S
H1546 C1550 0.949 . S
C1547 C1548 1.349 . S
C1547 C1549 1.327 . S
C1547 H1570 0.950 . S
C1548 C1547 1.349 . S
C1548 C1560 1.349 . S
C1549 C1547 1.327 . S
C1549 C1565 1.429 . S
C1549 H1571 0.950 . S
C1550 H1546 0.949 . S
C1550 C1558 1.574 . S
C1550 C1566 1.368 . S
H1551 C1559 0.950 . S
H1552 C1557 0.950 . S
H1553 C1558 0.949 . S
H1554 C1560 0.950 . S
H1555 C1561 0.950 . S
H1556 C1562 0.949 . S
C1557 H1552 0.950 . S
C1557 C1559 1.327 . S
C1557 C1563 1.429 . S
C1558 C1550 1.574 . S
C1558 H1553 0.949 . S
C1558 C1564 1.368 . S
C1559 C1543 1.349 . S
C1559 H1551 0.950 . S
C1559 C1557 1.327 . S
C1560 C1548 1.349 . S
C1560 H1554 0.950 . S
C1560 C1561 1.327 . S
C1561 H1555 0.950 . S
C1561 C1560 1.327 . S
C1561 C1565 1.429 . S
C1562 C1545 1.574 . S
C1562 H1556 0.949 . S
C1562 C1566 1.368 . S
C1563 C1544 1.429 . S
C1563 C1557 1.429 . S
C1563 C1564 1.523 . S
C1564 C1545 1.368 . S
C1564 C1558 1.368 . S
C1564 C1563 1.523 . S
C1565 C1549 1.429 . S
C1565 C1561 1.429 . S
C1565 C1566 1.523 . S
C1566 C1550 1.368 . S
C1566 C1562 1.368 . S
C1566 C1565 1.523 . S
H1567 C1542 0.950 . S
H1568 C1544 0.950 . S
H1569 C1545 0.949 . S
H1570 C1547 0.950 . S
H1571 C1549 0.950 . S
C1572 C1573 1.349 . S
C1572 C1574 1.327 . S
C1572 H1597 0.950 . S
C1573 C1572 1.349 . S
C1573 C1589 1.349 . S
C1574 C1572 1.327 . S
C1574 C1593 1.429 . S
C1574 H1598 0.950 . S
C1575 C1592 1.574 . S
C1575 C1594 1.368 . S
C1575 H1599 0.949 . S
H1576 C1580 0.949 . S
C1577 C1578 1.349 . S
C1577 C1579 1.327 . S
C1577 H1600 0.950 . S
C1578 C1577 1.349 . S
C1578 C1590 1.349 . S
C1579 C1577 1.327 . S
C1579 C1595 1.429 . S
C1579 H1601 0.950 . S
C1580 H1576 0.949 . S
C1580 C1588 1.574 . S
C1580 C1596 1.368 . S
H1581 C1589 0.950 . S
H1582 C1587 0.950 . S
H1583 C1588 0.949 . S
H1584 C1590 0.950 . S
H1585 C1591 0.950 . S
H1586 C1592 0.949 . S
C1587 H1582 0.950 . S
C1587 C1589 1.327 . S
C1587 C1593 1.429 . S
C1588 C1580 1.574 . S
C1588 H1583 0.949 . S
C1588 C1594 1.368 . S
C1589 C1573 1.349 . S
C1589 H1581 0.950 . S
C1589 C1587 1.327 . S
C1590 C1578 1.349 . S
C1590 H1584 0.950 . S
C1590 C1591 1.327 . S
C1591 H1585 0.950 . S
C1591 C1590 1.327 . S
C1591 C1595 1.429 . S
C1592 C1575 1.574 . S
C1592 H1586 0.949 . S
C1592 C1596 1.368 . S
C1593 C1574 1.429 . S
C1593 C1587 1.429 . S
C1593 C1594 1.523 . S
C1594 C1575 1.368 . S
C1594 C1588 1.368 . S
C1594 C1593 1.523 . S
C1595 C1579 1.429 . S
C1595 C1591 1.429 . S
C1595 C1596 1.523 . S
C1596 C1580 1.368 . S
C1596 C1592 1.368 . S
C1596 C1595 1.523 . S
H1597 C1572 0.950 . S
H1598 C1574 0.950 . S
H1599 C1575 0.949 . S
H1600 C1577 0.950 . S
H1601 C1579 0.950 . S
C1602 C1603 1.349 . S
C1602 C1604 1.327 . S
C1602 H1627 0.950 . S
C1603 C1602 1.349 . S
C1603 C1619 1.349 . S
C1604 C1602 1.327 . S
C1604 C1623 1.429 . S
C1604 H1628 0.950 . S
C1605 C1622 1.574 . S
C1605 C1624 1.368 . S
C1605 H1629 0.949 . S
H1606 C1610 0.949 . S
C1607 C1608 1.349 . S
C1607 C1609 1.327 . S
C1607 H1630 0.950 . S
C1608 C1607 1.349 . S
C1608 C1620 1.349 . S
C1609 C1607 1.327 . S
C1609 C1625 1.429 . S
C1609 H1631 0.950 . S
C1610 H1606 0.949 . S
C1610 C1618 1.574 . S
C1610 C1626 1.368 . S
H1611 C1619 0.950 . S
H1612 C1617 0.950 . S
H1613 C1618 0.949 . S
H1614 C1620 0.950 . S
H1615 C1621 0.950 . S
H1616 C1622 0.949 . S
C1617 H1612 0.950 . S
C1617 C1619 1.327 . S
C1617 C1623 1.429 . S
C1618 C1610 1.574 . S
C1618 H1613 0.949 . S
C1618 C1624 1.368 . S
C1619 C1603 1.349 . S
C1619 H1611 0.950 . S
C1619 C1617 1.327 . S
C1620 C1608 1.349 . S
C1620 H1614 0.950 . S
C1620 C1621 1.327 . S
C1621 H1615 0.950 . S
C1621 C1620 1.327 . S
C1621 C1625 1.429 . S
C1622 C1605 1.574 . S
C1622 H1616 0.949 . S
C1622 C1626 1.368 . S
C1623 C1604 1.429 . S
C1623 C1617 1.429 . S
C1623 C1624 1.523 . S
C1624 C1605 1.368 . S
C1624 C1618 1.368 . S
C1624 C1623 1.523 . S
C1625 C1609 1.429 . S
C1625 C1621 1.429 . S
C1625 C1626 1.523 1_655 S
C1626 C1610 1.368 . S
C1626 C1622 1.368 . S
C1626 C1625 1.523 1_455 S
H1627 C1602 0.950 . S
H1628 C1604 0.950 . S
H1629 C1605 0.949 . S
H1630 C1607 0.950 . S
H1631 C1609 0.950 . S
C1632 C1633 1.349 . S
C1632 C1634 1.327 . S
C1632 H1657 0.950 . S
C1633 C1632 1.349 . S
C1633 C1649 1.349 . S
C1634 C1632 1.327 . S
C1634 C1653 1.429 . S
C1634 H1658 0.950 . S
C1635 C1652 1.574 . S
C1635 C1654 1.368 . S
C1635 H1659 0.949 . S
H1636 C1640 0.949 . S
C1637 C1638 1.349 . S
C1637 C1639 1.327 . S
C1637 H1660 0.950 . S
C1638 C1637 1.349 . S
C1638 C1650 1.349 . S
C1639 C1637 1.327 . S
C1639 C1655 1.429 . S
C1639 H1661 0.950 . S
C1640 H1636 0.949 . S
C1640 C1648 1.574 . S
C1640 C1656 1.368 . S
H1641 C1649 0.950 . S
H1642 C1647 0.950 . S
H1643 C1648 0.949 . S
H1644 C1650 0.950 . S
H1645 C1651 0.950 . S
H1646 C1652 0.949 . S
C1647 H1642 0.950 . S
C1647 C1649 1.327 . S
C1647 C1653 1.429 . S
C1648 C1640 1.574 . S
C1648 H1643 0.949 . S
C1648 C1654 1.368 . S
C1649 C1633 1.349 . S
C1649 H1641 0.950 . S
C1649 C1647 1.327 . S
C1650 C1638 1.349 . S
C1650 H1644 0.950 . S
C1650 C1651 1.327 . S
C1651 H1645 0.950 . S
C1651 C1650 1.327 . S
C1651 C1655 1.429 . S
C1652 C1635 1.574 . S
C1652 H1646 0.949 . S
C1652 C1656 1.368 . S
C1653 C1634 1.429 . S
C1653 C1647 1.429 . S
C1653 C1654 1.523 . S
C1654 C1635 1.368 . S
C1654 C1648 1.368 . S
C1654 C1653 1.523 . S
C1655 C1639 1.429 . S
C1655 C1651 1.429 . S
C1655 C1656 1.523 . S
C1656 C1640 1.368 . S
C1656 C1652 1.368 . S
C1656 C1655 1.523 . S
H1657 C1632 0.950 . S
H1658 C1634 0.950 . S
H1659 C1635 0.949 . S
H1660 C1637 0.950 . S
H1661 C1639 0.950 . S
C1662 C1663 1.349 . S
C1662 C1664 1.327 . S
C1662 H1687 0.950 . S
C1663 C1662 1.349 . S
C1663 C1679 1.349 . S
C1664 C1662 1.327 . S
C1664 C1683 1.429 . S
C1664 H1688 0.950 . S
C1665 C1682 1.574 . S
C1665 C1684 1.368 . S
C1665 H1689 0.949 . S
H1666 C1670 0.949 . S
C1667 C1668 1.349 . S
C1667 C1669 1.327 . S
C1667 H1690 0.950 . S
C1668 C1667 1.349 . S
C1668 C1680 1.349 . S
C1669 C1667 1.327 . S
C1669 C1685 1.429 . S
C1669 H1691 0.950 . S
C1670 H1666 0.949 . S
C1670 C1678 1.574 . S
C1670 C1686 1.368 . S
H1671 C1679 0.950 . S
H1672 C1677 0.950 . S
H1673 C1678 0.949 . S
H1674 C1680 0.950 . S
H1675 C1681 0.950 . S
H1676 C1682 0.949 . S
C1677 H1672 0.950 . S
C1677 C1679 1.327 . S
C1677 C1683 1.429 . S
C1678 C1670 1.574 . S
C1678 H1673 0.949 . S
C1678 C1684 1.368 . S
C1679 C1663 1.349 . S
C1679 H1671 0.950 . S
C1679 C1677 1.327 . S
C1680 C1668 1.349 . S
C1680 H1674 0.950 . S
C1680 C1681 1.327 . S
C1681 H1675 0.950 . S
C1681 C1680 1.327 . S
C1681 C1685 1.429 . S
C1682 C1665 1.574 . S
C1682 H1676 0.949 . S
C1682 C1686 1.368 . S
C1683 C1664 1.429 . S
C1683 C1677 1.429 . S
C1683 C1684 1.523 . S
C1684 C1665 1.368 . S
C1684 C1678 1.368 . S
C1684 C1683 1.523 . S
C1685 C1669 1.429 . S
C1685 C1681 1.429 . S
C1685 C1686 1.523 . S
C1686 C1670 1.368 . S
C1686 C1682 1.368 . S
C1686 C1685 1.523 . S
H1687 C1662 0.950 . S
H1688 C1664 0.950 . S
H1689 C1665 0.949 . S
H1690 C1667 0.950 . S
H1691 C1669 0.950 . S
C1692 C1693 1.349 . S
C1692 C1694 1.327 . S
C1692 H1717 0.950 . S
C1693 C1692 1.349 . S
C1693 C1709 1.349 . S
C1694 C1692 1.327 . S
C1694 C1713 1.429 . S
C1694 H1718 0.950 . S
C1695 C1712 1.574 . S
C1695 C1714 1.368 . S
C1695 H1719 0.949 . S
H1696 C1700 0.949 . S
C1697 C1698 1.349 . S
C1697 C1699 1.327 . S
C1697 H1720 0.950 . S
C1698 C1697 1.349 . S
C1698 C1710 1.349 . S
C1699 C1697 1.327 . S
C1699 C1715 1.429 . S
C1699 H1721 0.950 . S
C1700 H1696 0.949 . S
C1700 C1708 1.574 . S
C1700 C1716 1.368 . S
H1701 C1709 0.950 . S
H1702 C1707 0.950 . S
H1703 C1708 0.949 . S
H1704 C1710 0.950 . S
H1705 C1711 0.950 . S
H1706 C1712 0.949 . S
C1707 H1702 0.950 . S
C1707 C1709 1.327 . S
C1707 C1713 1.429 . S
C1708 C1700 1.574 . S
C1708 H1703 0.949 . S
C1708 C1714 1.368 . S
C1709 C1693 1.349 . S
C1709 H1701 0.950 . S
C1709 C1707 1.327 . S
C1710 C1698 1.349 . S
C1710 H1704 0.950 . S
C1710 C1711 1.327 . S
C1711 H1705 0.950 . S
C1711 C1710 1.327 . S
C1711 C1715 1.429 . S
C1712 C1695 1.574 . S
C1712 H1706 0.949 . S
C1712 C1716 1.368 . S
C1713 C1694 1.429 . S
C1713 C1707 1.429 . S
C1713 C1714 1.523 . S
C1714 C1695 1.368 . S
C1714 C1708 1.368 . S
C1714 C1713 1.523 . S
C1715 C1699 1.429 . S
C1715 C1711 1.429 . S
C1715 C1716 1.523 . S
C1716 C1700 1.368 . S
C1716 C1712 1.368 . S
C1716 C1715 1.523 . S
H1717 C1692 0.950 . S
H1718 C1694 0.950 . S
H1719 C1695 0.949 . S
H1720 C1697 0.950 . S
H1721 C1699 0.950 . S
C1722 C1723 1.349 . S
C1722 C1724 1.327 . S
C1722 H1747 0.950 . S
C1723 C1722 1.349 . S
C1723 C1739 1.349 . S
C1724 C1722 1.327 . S
C1724 C1743 1.429 . S
C1724 H1748 0.950 . S
C1725 C1742 1.574 . S
C1725 C1744 1.368 . S
C1725 H1749 0.949 . S
H1726 C1730 0.949 1_554 S
C1727 C1728 1.349 . S
C1727 C1729 1.327 . S
C1727 H1750 0.950 . S
C1728 C1727 1.349 . S
C1728 C1740 1.349 . S
C1729 C1727 1.327 . S
C1729 C1745 1.429 . S
C1729 H1751 0.950 . S
C1730 H1726 0.949 1_556 S
C1730 C1738 1.574 . S
C1730 C1746 1.368 1_556 S
H1731 C1739 0.950 . S
H1732 C1737 0.950 . S
H1733 C1738 0.949 . S
H1734 C1740 0.950 . S
H1735 C1741 0.950 . S
H1736 C1742 0.949 . S
C1737 H1732 0.950 . S
C1737 C1739 1.327 . S
C1737 C1743 1.429 . S
C1738 C1730 1.574 . S
C1738 H1733 0.949 . S
C1738 C1744 1.368 . S
C1739 C1723 1.349 . S
C1739 H1731 0.950 . S
C1739 C1737 1.327 . S
C1740 C1728 1.349 . S
C1740 H1734 0.950 . S
C1740 C1741 1.327 . S
C1741 H1735 0.950 . S
C1741 C1740 1.327 . S
C1741 C1745 1.429 . S
C1742 C1725 1.574 . S
C1742 H1736 0.949 . S
C1742 C1746 1.368 1_556 S
C1743 C1724 1.429 . S
C1743 C1737 1.429 . S
C1743 C1744 1.523 . S
C1744 C1725 1.368 . S
C1744 C1738 1.368 . S
C1744 C1743 1.523 . S
C1745 C1729 1.429 . S
C1745 C1741 1.429 . S
C1745 C1746 1.523 . S
C1746 C1730 1.368 1_554 S
C1746 C1742 1.368 1_554 S
C1746 C1745 1.523 . S
H1747 C1722 0.950 . S
H1748 C1724 0.950 . S
H1749 C1725 0.949 . S
H1750 C1727 0.950 . S
H1751 C1729 0.950 . S
C1752 C1753 1.349 . S
C1752 C1754 1.327 . S
C1752 H1777 0.950 . S
C1753 C1752 1.349 . S
C1753 C1769 1.349 . S
C1754 C1752 1.327 . S
C1754 C1773 1.429 . S
C1754 H1778 0.950 . S
C1755 C1772 1.574 . S
C1755 C1774 1.368 . S
C1755 H1779 0.949 . S
H1756 C1760 0.949 . S
C1757 C1758 1.349 . S
C1757 C1759 1.327 . S
C1757 H1780 0.950 . S
C1758 C1757 1.349 . S
C1758 C1770 1.349 . S
C1759 C1757 1.327 . S
C1759 C1775 1.429 . S
C1759 H1781 0.950 . S
C1760 H1756 0.949 . S
C1760 C1768 1.574 . S
C1760 C1776 1.368 . S
H1761 C1769 0.950 . S
H1762 C1767 0.950 . S
H1763 C1768 0.949 . S
H1764 C1770 0.950 . S
H1765 C1771 0.950 . S
H1766 C1772 0.949 . S
C1767 H1762 0.950 . S
C1767 C1769 1.327 . S
C1767 C1773 1.429 . S
C1768 C1760 1.574 . S
C1768 H1763 0.949 . S
C1768 C1774 1.368 . S
C1769 C1753 1.349 . S
C1769 H1761 0.950 . S
C1769 C1767 1.327 . S
C1770 C1758 1.349 . S
C1770 H1764 0.950 . S
C1770 C1771 1.327 . S
C1771 H1765 0.950 . S
C1771 C1770 1.327 . S
C1771 C1775 1.429 . S
C1772 C1755 1.574 . S
C1772 H1766 0.949 . S
C1772 C1776 1.368 . S
C1773 C1754 1.429 . S
C1773 C1767 1.429 . S
C1773 C1774 1.523 . S
C1774 C1755 1.368 . S
C1774 C1768 1.368 . S
C1774 C1773 1.523 . S
C1775 C1759 1.429 . S
C1775 C1771 1.429 . S
C1775 C1776 1.523 . S
C1776 C1760 1.368 . S
C1776 C1772 1.368 . S
C1776 C1775 1.523 . S
H1777 C1752 0.950 . S
H1778 C1754 0.950 . S
H1779 C1755 0.949 . S
H1780 C1757 0.950 . S
H1781 C1759 0.950 . S
C1782 C1783 1.349 . S
C1782 C1784 1.327 . S
C1782 H1807 0.950 . S
C1783 C1782 1.349 . S
C1783 C1799 1.349 . S
C1784 C1782 1.327 . S
C1784 C1803 1.429 . S
C1784 H1808 0.950 . S
C1785 C1802 1.574 . S
C1785 C1804 1.368 . S
C1785 H1809 0.949 . S
H1786 C1790 0.949 . S
C1787 C1788 1.349 . S
C1787 C1789 1.327 . S
C1787 H1810 0.950 . S
C1788 C1787 1.349 . S
C1788 C1800 1.349 . S
C1789 C1787 1.327 . S
C1789 C1805 1.429 . S
C1789 H1811 0.950 . S
C1790 H1786 0.949 . S
C1790 C1798 1.574 . S
C1790 C1806 1.368 . S
H1791 C1799 0.950 . S
H1792 C1797 0.950 . S
H1793 C1798 0.949 . S
H1794 C1800 0.950 . S
H1795 C1801 0.950 . S
H1796 C1802 0.949 . S
C1797 H1792 0.950 . S
C1797 C1799 1.327 . S
C1797 C1803 1.429 . S
C1798 C1790 1.574 . S
C1798 H1793 0.949 . S
C1798 C1804 1.368 . S
C1799 C1783 1.349 . S
C1799 H1791 0.950 . S
C1799 C1797 1.327 . S
C1800 C1788 1.349 . S
C1800 H1794 0.950 . S
C1800 C1801 1.327 . S
C1801 H1795 0.950 . S
C1801 C1800 1.327 . S
C1801 C1805 1.429 . S
C1802 C1785 1.574 . S
C1802 H1796 0.949 . S
C1802 C1806 1.368 . S
C1803 C1784 1.429 . S
C1803 C1797 1.429 . S
C1803 C1804 1.523 . S
C1804 C1785 1.368 . S
C1804 C1798 1.368 . S
C1804 C1803 1.523 . S
C1805 C1789 1.429 . S
C1805 C1801 1.429 . S
C1805 C1806 1.523 . S
C1806 C1790 1.368 . S
C1806 C1802 1.368 . S
C1806 C1805 1.523 . S
H1807 C1782 0.950 . S
H1808 C1784 0.950 . S
H1809 C1785 0.949 . S
H1810 C1787 0.950 . S
H1811 C1789 0.950 . S
C1812 C1813 1.349 . S
C1812 C1814 1.327 . S
C1812 H1837 0.950 . S
C1813 C1812 1.349 . S
C1813 C1829 1.349 . S
C1814 C1812 1.327 . S
C1814 C1833 1.429 . S
C1814 H1838 0.950 . S
C1815 C1832 1.574 . S
C1815 C1834 1.368 . S
C1815 H1839 0.949 . S
H1816 C1820 0.949 . S
C1817 C1818 1.349 . S
C1817 C1819 1.327 . S
C1817 H1840 0.950 . S
C1818 C1817 1.349 . S
C1818 C1830 1.349 . S
C1819 C1817 1.327 . S
C1819 C1835 1.429 . S
C1819 H1841 0.950 . S
C1820 H1816 0.949 . S
C1820 C1828 1.574 . S
C1820 C1836 1.368 . S
H1821 C1829 0.950 . S
H1822 C1827 0.950 . S
H1823 C1828 0.949 . S
H1824 C1830 0.950 . S
H1825 C1831 0.950 . S
H1826 C1832 0.949 . S
C1827 H1822 0.950 . S
C1827 C1829 1.327 . S
C1827 C1833 1.429 . S
C1828 C1820 1.574 . S
C1828 H1823 0.949 . S
C1828 C1834 1.368 . S
C1829 C1813 1.349 . S
C1829 H1821 0.950 . S
C1829 C1827 1.327 . S
C1830 C1818 1.349 . S
C1830 H1824 0.950 . S
C1830 C1831 1.327 . S
C1831 H1825 0.950 . S
C1831 C1830 1.327 . S
C1831 C1835 1.429 . S
C1832 C1815 1.574 . S
C1832 H1826 0.949 . S
C1832 C1836 1.368 . S
C1833 C1814 1.429 . S
C1833 C1827 1.429 . S
C1833 C1834 1.523 . S
C1834 C1815 1.368 . S
C1834 C1828 1.368 . S
C1834 C1833 1.523 . S
C1835 C1819 1.429 . S
C1835 C1831 1.429 . S
C1835 C1836 1.523 . S
C1836 C1820 1.368 . S
C1836 C1832 1.368 . S
C1836 C1835 1.523 . S
H1837 C1812 0.950 . S
H1838 C1814 0.950 . S
H1839 C1815 0.949 . S
H1840 C1817 0.950 . S
H1841 C1819 0.950 . S
C1842 C1843 1.349 . S
C1842 C1844 1.327 . S
C1842 H1867 0.950 . S
C1843 C1842 1.349 . S
C1843 C1859 1.349 . S
C1844 C1842 1.327 . S
C1844 C1863 1.429 . S
C1844 H1868 0.950 . S
C1845 C1862 1.574 . S
C1845 C1864 1.368 1_554 S
C1845 H1869 0.949 . S
H1846 C1850 0.949 . S
C1847 C1848 1.349 . S
C1847 C1849 1.327 . S
C1847 H1870 0.950 . S
C1848 C1847 1.349 . S
C1848 C1860 1.349 . S
C1849 C1847 1.327 . S
C1849 C1865 1.429 . S
C1849 H1871 0.950 . S
C1850 H1846 0.949 . S
C1850 C1858 1.574 . S
C1850 C1866 1.368 . S
H1851 C1859 0.950 . S
H1852 C1857 0.950 . S
H1853 C1858 0.949 1_556 S
H1854 C1860 0.950 . S
H1855 C1861 0.950 . S
H1856 C1862 0.949 . S
C1857 H1852 0.950 . S
C1857 C1859 1.327 . S
C1857 C1863 1.429 . S
C1858 C1850 1.574 . S
C1858 H1853 0.949 1_554 S
C1858 C1864 1.368 1_554 S
C1859 C1843 1.349 . S
C1859 H1851 0.950 . S
C1859 C1857 1.327 . S
C1860 C1848 1.349 . S
C1860 H1854 0.950 . S
C1860 C1861 1.327 . S
C1861 H1855 0.950 . S
C1861 C1860 1.327 . S
C1861 C1865 1.429 . S
C1862 C1845 1.574 . S
C1862 H1856 0.949 . S
C1862 C1866 1.368 . S
C1863 C1844 1.429 . S
C1863 C1857 1.429 . S
C1863 C1864 1.523 . S
C1864 C1845 1.368 1_556 S
C1864 C1858 1.368 1_556 S
C1864 C1863 1.523 . S
C1865 C1849 1.429 . S
C1865 C1861 1.429 . S
C1865 C1866 1.523 . S
C1866 C1850 1.368 . S
C1866 C1862 1.368 . S
C1866 C1865 1.523 . S
H1867 C1842 0.950 . S
H1868 C1844 0.950 . S
H1869 C1845 0.949 . S
H1870 C1847 0.950 . S
H1871 C1849 0.950 . S
C1872 C1873 1.349 . S
C1872 C1874 1.327 . S
C1872 H1897 0.950 . S
C1873 C1872 1.349 . S
C1873 C1889 1.349 . S
C1874 C1872 1.327 . S
C1874 C1893 1.429 . S
C1874 H1898 0.950 . S
C1875 C1892 1.574 . S
C1875 C1894 1.368 . S
C1875 H1899 0.949 . S
H1876 C1880 0.949 . S
C1877 C1878 1.349 . S
C1877 C1879 1.327 . S
C1877 H1900 0.950 . S
C1878 C1877 1.349 . S
C1878 C1890 1.349 . S
C1879 C1877 1.327 . S
C1879 C1895 1.429 . S
C1879 H1901 0.950 . S
C1880 H1876 0.949 . S
C1880 C1888 1.574 . S
C1880 C1896 1.368 . S
H1881 C1889 0.950 . S
H1882 C1887 0.950 . S
H1883 C1888 0.949 . S
H1884 C1890 0.950 . S
H1885 C1891 0.950 . S
H1886 C1892 0.949 . S
C1887 H1882 0.950 . S
C1887 C1889 1.327 . S
C1887 C1893 1.429 . S
C1888 C1880 1.574 . S
C1888 H1883 0.949 . S
C1888 C1894 1.368 . S
C1889 C1873 1.349 . S
C1889 H1881 0.950 . S
C1889 C1887 1.327 . S
C1890 C1878 1.349 . S
C1890 H1884 0.950 . S
C1890 C1891 1.327 . S
C1891 H1885 0.950 . S
C1891 C1890 1.327 . S
C1891 C1895 1.429 . S
C1892 C1875 1.574 . S
C1892 H1886 0.949 . S
C1892 C1896 1.368 . S
C1893 C1874 1.429 . S
C1893 C1887 1.429 . S
C1893 C1894 1.523 . S
C1894 C1875 1.368 . S
C1894 C1888 1.368 . S
C1894 C1893 1.523 . S
C1895 C1879 1.429 . S
C1895 C1891 1.429 . S
C1895 C1896 1.523 . S
C1896 C1880 1.368 . S
C1896 C1892 1.368 . S
C1896 C1895 1.523 . S
H1897 C1872 0.950 . S
H1898 C1874 0.950 . S
H1899 C1875 0.949 . S
H1900 C1877 0.950 . S
H1901 C1879 0.950 . S
C1902 C1903 1.349 . S
C1902 C1904 1.327 . S
C1902 H1927 0.950 . S
C1903 C1902 1.349 . S
C1903 C1919 1.349 . S
C1904 C1902 1.327 . S
C1904 C1923 1.429 . S
C1904 H1928 0.950 . S
C1905 C1922 1.574 . S
C1905 C1924 1.368 . S
C1905 H1929 0.949 . S
H1906 C1910 0.949 . S
C1907 C1908 1.349 . S
C1907 C1909 1.327 . S
C1907 H1930 0.950 . S
C1908 C1907 1.349 . S
C1908 C1920 1.349 . S
C1909 C1907 1.327 . S
C1909 C1925 1.429 . S
C1909 H1931 0.950 . S
C1910 H1906 0.949 . S
C1910 C1918 1.574 . S
C1910 C1926 1.368 . S
H1911 C1919 0.950 . S
H1912 C1917 0.950 . S
H1913 C1918 0.949 . S
H1914 C1920 0.950 . S
H1915 C1921 0.950 . S
H1916 C1922 0.949 . S
C1917 H1912 0.950 . S
C1917 C1919 1.327 . S
C1917 C1923 1.429 . S
C1918 C1910 1.574 . S
C1918 H1913 0.949 . S
C1918 C1924 1.368 . S
C1919 C1903 1.349 . S
C1919 H1911 0.950 . S
C1919 C1917 1.327 . S
C1920 C1908 1.349 . S
C1920 H1914 0.950 . S
C1920 C1921 1.327 . S
C1921 H1915 0.950 . S
C1921 C1920 1.327 . S
C1921 C1925 1.429 . S
C1922 C1905 1.574 . S
C1922 H1916 0.949 . S
C1922 C1926 1.368 . S
C1923 C1904 1.429 . S
C1923 C1917 1.429 . S
C1923 C1924 1.523 . S
C1924 C1905 1.368 . S
C1924 C1918 1.368 . S
C1924 C1923 1.523 . S
C1925 C1909 1.429 . S
C1925 C1921 1.429 . S
C1925 C1926 1.523 . S
C1926 C1910 1.368 . S
C1926 C1922 1.368 . S
C1926 C1925 1.523 . S
H1927 C1902 0.950 . S
H1928 C1904 0.950 . S
H1929 C1905 0.949 . S
H1930 C1907 0.950 . S
H1931 C1909 0.950 . S
C1932 C1933 1.349 . S
C1932 C1934 1.327 . S
C1932 H1957 0.950 . S
C1933 C1932 1.349 . S
C1933 C1949 1.349 . S
C1934 C1932 1.327 . S
C1934 C1953 1.429 . S
C1934 H1958 0.950 . S
C1935 C1952 1.574 . S
C1935 C1954 1.368 . S
C1935 H1959 0.949 . S
H1936 C1940 0.949 . S
C1937 C1938 1.349 . S
C1937 C1939 1.327 . S
C1937 H1960 0.950 . S
C1938 C1937 1.349 . S
C1938 C1950 1.349 . S
C1939 C1937 1.327 . S
C1939 C1955 1.429 . S
C1939 H1961 0.950 . S
C1940 H1936 0.949 . S
C1940 C1948 1.574 . S
C1940 C1956 1.368 . S
H1941 C1949 0.950 . S
H1942 C1947 0.950 . S
H1943 C1948 0.949 . S
H1944 C1950 0.950 . S
H1945 C1951 0.950 . S
H1946 C1952 0.949 . S
C1947 H1942 0.950 . S
C1947 C1949 1.327 . S
C1947 C1953 1.429 . S
C1948 C1940 1.574 . S
C1948 H1943 0.949 . S
C1948 C1954 1.368 . S
C1949 C1933 1.349 . S
C1949 H1941 0.950 . S
C1949 C1947 1.327 . S
C1950 C1938 1.349 . S
C1950 H1944 0.950 . S
C1950 C1951 1.327 . S
C1951 H1945 0.950 . S
C1951 C1950 1.327 . S
C1951 C1955 1.429 . S
C1952 C1935 1.574 . S
C1952 H1946 0.949 . S
C1952 C1956 1.368 . S
C1953 C1934 1.429 . S
C1953 C1947 1.429 . S
C1953 C1954 1.523 . S
C1954 C1935 1.368 . S
C1954 C1948 1.368 . S
C1954 C1953 1.523 . S
C1955 C1939 1.429 . S
C1955 C1951 1.429 . S
C1955 C1956 1.523 . S
C1956 C1940 1.368 . S
C1956 C1952 1.368 . S
C1956 C1955 1.523 . S
H1957 C1932 0.950 . S
H1958 C1934 0.950 . S
H1959 C1935 0.949 . S
H1960 C1937 0.950 . S
H1961 C1939 0.950 . S
C1962 C1963 1.349 . S
C1962 C1964 1.327 . S
C1962 H1987 0.950 . S
C1963 C1962 1.349 . S
C1963 C1979 1.349 . S
C1964 C1962 1.327 . S
C1964 C1983 1.429 . S
C1964 H1988 0.950 . S
C1965 C1982 1.574 . S
C1965 C1984 1.368 . S
C1965 H1989 0.949 . S
H1966 C1970 0.949 . S
C1967 C1968 1.349 . S
C1967 C1969 1.327 . S
C1967 H1990 0.950 . S
C1968 C1967 1.349 . S
C1968 C1980 1.349 . S
C1969 C1967 1.327 . S
C1969 C1985 1.429 . S
C1969 H1991 0.950 . S
C1970 H1966 0.949 . S
C1970 C1978 1.574 . S
C1970 C1986 1.368 . S
H1971 C1979 0.950 . S
H1972 C1977 0.950 . S
H1973 C1978 0.949 . S
H1974 C1980 0.950 . S
H1975 C1981 0.950 . S
H1976 C1982 0.949 . S
C1977 H1972 0.950 . S
C1977 C1979 1.327 . S
C1977 C1983 1.429 . S
C1978 C1970 1.574 . S
C1978 H1973 0.949 . S
C1978 C1984 1.368 . S
C1979 C1963 1.349 . S
C1979 H1971 0.950 . S
C1979 C1977 1.327 . S
C1980 C1968 1.349 . S
C1980 H1974 0.950 . S
C1980 C1981 1.327 . S
C1981 H1975 0.950 . S
C1981 C1980 1.327 . S
C1981 C1985 1.429 . S
C1982 C1965 1.574 . S
C1982 H1976 0.949 . S
C1982 C1986 1.368 . S
C1983 C1964 1.429 . S
C1983 C1977 1.429 . S
C1983 C1984 1.523 . S
C1984 C1965 1.368 . S
C1984 C1978 1.368 . S
C1984 C1983 1.523 . S
C1985 C1969 1.429 . S
C1985 C1981 1.429 . S
C1985 C1986 1.523 . S
C1986 C1970 1.368 . S
C1986 C1982 1.368 . S
C1986 C1985 1.523 . S
H1987 C1962 0.950 . S
H1988 C1964 0.950 . S
H1989 C1965 0.949 . S
H1990 C1967 0.950 . S
H1991 C1969 0.950 . S
C1992 C1993 1.349 . S
C1992 C1994 1.327 . S
C1992 H2017 0.950 . S
C1993 C1992 1.349 . S
C1993 C2009 1.349 . S
C1994 C1992 1.327 . S
C1994 C2013 1.429 . S
C1994 H2018 0.950 . S
C1995 C2012 1.574 . S
C1995 C2014 1.368 . S
C1995 H2019 0.949 . S
H1996 C2000 0.949 . S
C1997 C1998 1.349 . S
C1997 C1999 1.327 . S
C1997 H2020 0.950 . S
C1998 C1997 1.349 . S
C1998 C2010 1.349 . S
C1999 C1997 1.327 . S
C1999 C2015 1.429 . S
C1999 H2021 0.950 . S
C2000 H1996 0.949 . S
C2000 C2008 1.574 . S
C2000 C2016 1.368 . S
H2001 C2009 0.950 . S
H2002 C2007 0.950 . S
H2003 C2008 0.949 . S
H2004 C2010 0.950 . S
H2005 C2011 0.950 . S
H2006 C2012 0.949 . S
C2007 H2002 0.950 . S
C2007 C2009 1.327 . S
C2007 C2013 1.429 . S
C2008 C2000 1.574 . S
C2008 H2003 0.949 . S
C2008 C2014 1.368 . S
C2009 C1993 1.349 . S
C2009 H2001 0.950 . S
C2009 C2007 1.327 . S
C2010 C1998 1.349 . S
C2010 H2004 0.950 . S
C2010 C2011 1.327 . S
C2011 H2005 0.950 . S
C2011 C2010 1.327 . S
C2011 C2015 1.429 . S
C2012 C1995 1.574 . S
C2012 H2006 0.949 . S
C2012 C2016 1.368 . S
C2013 C1994 1.429 . S
C2013 C2007 1.429 . S
C2013 C2014 1.523 1_565 S
C2014 C1995 1.368 . S
C2014 C2008 1.368 . S
C2014 C2013 1.523 1_545 S
C2015 C1999 1.429 . S
C2015 C2011 1.429 . S
C2015 C2016 1.523 . S
C2016 C2000 1.368 . S
C2016 C2012 1.368 . S
C2016 C2015 1.523 . S
H2017 C1992 0.950 . S
H2018 C1994 0.950 . S
H2019 C1995 0.949 . S
H2020 C1997 0.950 . S
H2021 C1999 0.950 . S
C2022 C2023 1.349 . S
C2022 C2024 1.327 . S
C2022 H2047 0.950 . S
C2023 C2022 1.349 . S
C2023 C2039 1.349 . S
C2024 C2022 1.327 . S
C2024 C2043 1.429 . S
C2024 H2048 0.950 . S
C2025 C2042 1.574 . S
C2025 C2044 1.368 . S
C2025 H2049 0.949 . S
H2026 C2030 0.949 . S
C2027 C2028 1.349 . S
C2027 C2029 1.327 . S
C2027 H2050 0.950 . S
C2028 C2027 1.349 . S
C2028 C2040 1.349 . S
C2029 C2027 1.327 . S
C2029 C2045 1.429 . S
C2029 H2051 0.950 . S
C2030 H2026 0.949 . S
C2030 C2038 1.574 . S
C2030 C2046 1.368 . S
H2031 C2039 0.950 . S
H2032 C2037 0.950 . S
H2033 C2038 0.949 . S
H2034 C2040 0.950 . S
H2035 C2041 0.950 . S
H2036 C2042 0.949 . S
C2037 H2032 0.950 . S
C2037 C2039 1.327 . S
C2037 C2043 1.429 . S
C2038 C2030 1.574 . S
C2038 H2033 0.949 . S
C2038 C2044 1.368 . S
C2039 C2023 1.349 . S
C2039 H2031 0.950 . S
C2039 C2037 1.327 . S
C2040 C2028 1.349 . S
C2040 H2034 0.950 . S
C2040 C2041 1.327 . S
C2041 H2035 0.950 . S
C2041 C2040 1.327 . S
C2041 C2045 1.429 . S
C2042 C2025 1.574 . S
C2042 H2036 0.949 . S
C2042 C2046 1.368 . S
C2043 C2024 1.429 . S
C2043 C2037 1.429 . S
C2043 C2044 1.523 . S
C2044 C2025 1.368 . S
C2044 C2038 1.368 . S
C2044 C2043 1.523 . S
C2045 C2029 1.429 . S
C2045 C2041 1.429 . S
C2045 C2046 1.523 . S
C2046 C2030 1.368 . S
C2046 C2042 1.368 . S
C2046 C2045 1.523 . S
H2047 C2022 0.950 . S
H2048 C2024 0.950 . S
H2049 C2025 0.949 . S
H2050 C2027 0.950 . S
H2051 C2029 0.950 . S
C2052 C2053 1.349 . S
C2052 C2054 1.327 . S
C2052 H2077 0.950 . S
C2053 C2052 1.349 . S
C2053 C2069 1.349 . S
C2054 C2052 1.327 . S
C2054 C2073 1.429 . S
C2054 H2078 0.950 . S
C2055 C2072 1.574 . S
C2055 C2074 1.368 . S
C2055 H2079 0.949 . S
H2056 C2060 0.949 . S
C2057 C2058 1.349 . S
C2057 C2059 1.327 . S
C2057 H2080 0.950 . S
C2058 C2057 1.349 . S
C2058 C2070 1.349 . S
C2059 C2057 1.327 . S
C2059 C2075 1.429 . S
C2059 H2081 0.950 . S
C2060 H2056 0.949 . S
C2060 C2068 1.574 . S
C2060 C2076 1.368 . S
H2061 C2069 0.950 . S
H2062 C2067 0.950 . S
H2063 C2068 0.949 . S
H2064 C2070 0.950 . S
H2065 C2071 0.950 . S
H2066 C2072 0.949 . S
C2067 H2062 0.950 . S
C2067 C2069 1.327 . S
C2067 C2073 1.429 . S
C2068 C2060 1.574 . S
C2068 H2063 0.949 . S
C2068 C2074 1.368 . S
C2069 C2053 1.349 . S
C2069 H2061 0.950 . S
C2069 C2067 1.327 . S
C2070 C2058 1.349 . S
C2070 H2064 0.950 . S
C2070 C2071 1.327 . S
C2071 H2065 0.950 . S
C2071 C2070 1.327 . S
C2071 C2075 1.429 . S
C2072 C2055 1.574 . S
C2072 H2066 0.949 . S
C2072 C2076 1.368 . S
C2073 C2054 1.429 . S
C2073 C2067 1.429 . S
C2073 C2074 1.523 . S
C2074 C2055 1.368 . S
C2074 C2068 1.368 . S
C2074 C2073 1.523 . S
C2075 C2059 1.429 . S
C2075 C2071 1.429 . S
C2075 C2076 1.523 . S
C2076 C2060 1.368 . S
C2076 C2072 1.368 . S
C2076 C2075 1.523 . S
H2077 C2052 0.950 . S
H2078 C2054 0.950 . S
H2079 C2055 0.949 . S
H2080 C2057 0.950 . S
H2081 C2059 0.950 . S
C2082 C2083 1.349 . S
C2082 C2084 1.327 . S
C2082 H2107 0.950 . S
C2083 C2082 1.349 . S
C2083 C2099 1.349 . S
C2084 C2082 1.327 . S
C2084 C2103 1.429 . S
C2084 H2108 0.950 . S
C2085 C2102 1.574 . S
C2085 C2104 1.368 . S
C2085 H2109 0.949 . S
H2086 C2090 0.949 . S
C2087 C2088 1.349 . S
C2087 C2089 1.327 . S
C2087 H2110 0.950 . S
C2088 C2087 1.349 . S
C2088 C2100 1.349 . S
C2089 C2087 1.327 . S
C2089 C2105 1.429 . S
C2089 H2111 0.950 . S
C2090 H2086 0.949 . S
C2090 C2098 1.574 . S
C2090 C2106 1.368 . S
H2091 C2099 0.950 . S
H2092 C2097 0.950 . S
H2093 C2098 0.949 . S
H2094 C2100 0.950 . S
H2095 C2101 0.950 . S
H2096 C2102 0.949 . S
C2097 H2092 0.950 . S
C2097 C2099 1.327 . S
C2097 C2103 1.429 . S
C2098 C2090 1.574 . S
C2098 H2093 0.949 . S
C2098 C2104 1.368 . S
C2099 C2083 1.349 . S
C2099 H2091 0.950 . S
C2099 C2097 1.327 . S
C2100 C2088 1.349 . S
C2100 H2094 0.950 . S
C2100 C2101 1.327 . S
C2101 H2095 0.950 . S
C2101 C2100 1.327 . S
C2101 C2105 1.429 . S
C2102 C2085 1.574 . S
C2102 H2096 0.949 . S
C2102 C2106 1.368 . S
C2103 C2084 1.429 . S
C2103 C2097 1.429 . S
C2103 C2104 1.523 . S
C2104 C2085 1.368 . S
C2104 C2098 1.368 . S
C2104 C2103 1.523 . S
C2105 C2089 1.429 . S
C2105 C2101 1.429 . S
C2105 C2106 1.523 . S
C2106 C2090 1.368 . S
C2106 C2102 1.368 . S
C2106 C2105 1.523 . S
H2107 C2082 0.950 . S
H2108 C2084 0.950 . S
H2109 C2085 0.949 . S
H2110 C2087 0.950 . S
H2111 C2089 0.950 . S
C2112 C2113 1.349 . S
C2112 C2114 1.327 . S
C2112 H2137 0.950 . S
C2113 C2112 1.349 . S
C2113 C2129 1.349 . S
C2114 C2112 1.327 . S
C2114 C2133 1.429 . S
C2114 H2138 0.950 . S
C2115 C2132 1.574 . S
C2115 C2134 1.368 . S
C2115 H2139 0.949 . S
H2116 C2120 0.949 . S
C2117 C2118 1.349 . S
C2117 C2119 1.327 . S
C2117 H2140 0.950 . S
C2118 C2117 1.349 . S
C2118 C2130 1.349 . S
C2119 C2117 1.327 . S
C2119 C2135 1.429 . S
C2119 H2141 0.950 . S
C2120 H2116 0.949 . S
C2120 C2128 1.574 . S
C2120 C2136 1.368 . S
H2121 C2129 0.950 . S
H2122 C2127 0.950 . S
H2123 C2128 0.949 . S
H2124 C2130 0.950 . S
H2125 C2131 0.950 . S
H2126 C2132 0.949 . S
C2127 H2122 0.950 . S
C2127 C2129 1.327 . S
C2127 C2133 1.429 . S
C2128 C2120 1.574 . S
C2128 H2123 0.949 . S
C2128 C2134 1.368 . S
C2129 C2113 1.349 . S
C2129 H2121 0.950 . S
C2129 C2127 1.327 . S
C2130 C2118 1.349 . S
C2130 H2124 0.950 . S
C2130 C2131 1.327 . S
C2131 H2125 0.950 . S
C2131 C2130 1.327 . S
C2131 C2135 1.429 . S
C2132 C2115 1.574 . S
C2132 H2126 0.949 . S
C2132 C2136 1.368 . S
C2133 C2114 1.429 . S
C2133 C2127 1.429 . S
C2133 C2134 1.523 . S
C2134 C2115 1.368 . S
C2134 C2128 1.368 . S
C2134 C2133 1.523 . S
C2135 C2119 1.429 . S
C2135 C2131 1.429 . S
C2135 C2136 1.523 . S
C2136 C2120 1.368 . S
C2136 C2132 1.368 . S
C2136 C2135 1.523 . S
H2137 C2112 0.950 . S
H2138 C2114 0.950 . S
H2139 C2115 0.949 . S
H2140 C2117 0.950 . S
H2141 C2119 0.950 . S
C2142 C2143 1.349 . S
C2142 C2144 1.327 . S
C2142 H2167 0.950 . S
C2143 C2142 1.349 . S
C2143 C2159 1.349 . S
C2144 C2142 1.327 . S
C2144 C2163 1.429 . S
C2144 H2168 0.950 . S
C2145 C2162 1.574 . S
C2145 C2164 1.368 . S
C2145 H2169 0.949 . S
H2146 C2150 0.949 . S
C2147 C2148 1.349 . S
C2147 C2149 1.327 . S
C2147 H2170 0.950 . S
C2148 C2147 1.349 . S
C2148 C2160 1.349 . S
C2149 C2147 1.327 . S
C2149 C2165 1.429 . S
C2149 H2171 0.950 . S
C2150 H2146 0.949 . S
C2150 C2158 1.574 . S
C2150 C2166 1.368 . S
H2151 C2159 0.950 . S
H2152 C2157 0.950 . S
H2153 C2158 0.949 . S
H2154 C2160 0.950 . S
H2155 C2161 0.950 . S
H2156 C2162 0.949 . S
C2157 H2152 0.950 . S
C2157 C2159 1.327 . S
C2157 C2163 1.429 . S
C2158 C2150 1.574 . S
C2158 H2153 0.949 . S
C2158 C2164 1.368 . S
C2159 C2143 1.349 . S
C2159 H2151 0.950 . S
C2159 C2157 1.327 . S
C2160 C2148 1.349 . S
C2160 H2154 0.950 . S
C2160 C2161 1.327 . S
C2161 H2155 0.950 . S
C2161 C2160 1.327 . S
C2161 C2165 1.429 . S
C2162 C2145 1.574 . S
C2162 H2156 0.949 . S
C2162 C2166 1.368 . S
C2163 C2144 1.429 . S
C2163 C2157 1.429 . S
C2163 C2164 1.523 . S
C2164 C2145 1.368 . S
C2164 C2158 1.368 . S
C2164 C2163 1.523 . S
C2165 C2149 1.429 . S
C2165 C2161 1.429 . S
C2165 C2166 1.523 . S
C2166 C2150 1.368 . S
C2166 C2162 1.368 . S
C2166 C2165 1.523 . S
H2167 C2142 0.950 . S
H2168 C2144 0.950 . S
H2169 C2145 0.949 . S
H2170 C2147 0.950 . S
H2171 C2149 0.950 . S
C2172 C2173 1.349 . S
C2172 C2174 1.327 . S
C2172 H2197 0.950 . S
C2173 C2172 1.349 . S
C2173 C2189 1.349 . S
C2174 C2172 1.327 . S
C2174 C2193 1.429 . S
C2174 H2198 0.950 . S
C2175 C2192 1.574 . S
C2175 C2194 1.368 . S
C2175 H2199 0.949 . S
H2176 C2180 0.949 . S
C2177 C2178 1.349 . S
C2177 C2179 1.327 . S
C2177 H2200 0.950 . S
C2178 C2177 1.349 . S
C2178 C2190 1.349 . S
C2179 C2177 1.327 . S
C2179 C2195 1.429 . S
C2179 H2201 0.950 . S
C2180 H2176 0.949 . S
C2180 C2188 1.574 . S
C2180 C2196 1.368 . S
H2181 C2189 0.950 . S
H2182 C2187 0.950 . S
H2183 C2188 0.949 . S
H2184 C2190 0.950 . S
H2185 C2191 0.950 . S
H2186 C2192 0.949 . S
C2187 H2182 0.950 . S
C2187 C2189 1.327 . S
C2187 C2193 1.429 . S
C2188 C2180 1.574 . S
C2188 H2183 0.949 . S
C2188 C2194 1.368 . S
C2189 C2173 1.349 . S
C2189 H2181 0.950 . S
C2189 C2187 1.327 . S
C2190 C2178 1.349 . S
C2190 H2184 0.950 . S
C2190 C2191 1.327 . S
C2191 H2185 0.950 . S
C2191 C2190 1.327 . S
C2191 C2195 1.429 . S
C2192 C2175 1.574 . S
C2192 H2186 0.949 . S
C2192 C2196 1.368 . S
C2193 C2174 1.429 . S
C2193 C2187 1.429 . S
C2193 C2194 1.523 . S
C2194 C2175 1.368 . S
C2194 C2188 1.368 . S
C2194 C2193 1.523 . S
C2195 C2179 1.429 . S
C2195 C2191 1.429 . S
C2195 C2196 1.523 . S
C2196 C2180 1.368 . S
C2196 C2192 1.368 . S
C2196 C2195 1.523 . S
H2197 C2172 0.950 . S
H2198 C2174 0.950 . S
H2199 C2175 0.949 . S
H2200 C2177 0.950 . S
H2201 C2179 0.950 . S
C2202 C2203 1.349 . S
C2202 C2204 1.327 . S
C2202 H2227 0.950 . S
C2203 C2202 1.349 . S
C2203 C2219 1.349 . S
C2204 C2202 1.327 . S
C2204 C2223 1.429 . S
C2204 H2228 0.950 . S
C2205 C2222 1.574 . S
C2205 C2224 1.368 . S
C2205 H2229 0.949 1_455 S
H2206 C2210 0.949 . S
C2207 C2208 1.349 . S
C2207 C2209 1.327 . S
C2207 H2230 0.950 . S
C2208 C2207 1.349 . S
C2208 C2220 1.349 . S
C2209 C2207 1.327 . S
C2209 C2225 1.429 . S
C2209 H2231 0.950 . S
C2210 H2206 0.949 . S
C2210 C2218 1.574 . S
C2210 C2226 1.368 . S
H2211 C2219 0.950 . S
H2212 C2217 0.950 . S
H2213 C2218 0.949 . S
H2214 C2220 0.950 . S
H2215 C2221 0.950 . S
H2216 C2222 0.949 . S
C2217 H2212 0.950 . S
C2217 C2219 1.327 . S
C2217 C2223 1.429 . S
C2218 C2210 1.574 . S
C2218 H2213 0.949 . S
C2218 C2224 1.368 . S
C2219 C2203 1.349 . S
C2219 H2211 0.950 . S
C2219 C2217 1.327 . S
C2220 C2208 1.349 . S
C2220 H2214 0.950 . S
C2220 C2221 1.327 . S
C2221 H2215 0.950 . S
C2221 C2220 1.327 . S
C2221 C2225 1.429 . S
C2222 C2205 1.574 . S
C2222 H2216 0.949 . S
C2222 C2226 1.368 . S
C2223 C2204 1.429 . S
C2223 C2217 1.429 . S
C2223 C2224 1.523 1_655 S
C2224 C2205 1.368 . S
C2224 C2218 1.368 . S
C2224 C2223 1.523 1_455 S
C2225 C2209 1.429 . S
C2225 C2221 1.429 . S
C2225 C2226 1.523 . S
C2226 C2210 1.368 . S
C2226 C2222 1.368 . S
C2226 C2225 1.523 . S
H2227 C2202 0.950 . S
H2228 C2204 0.950 . S
H2229 C2205 0.949 1_655 S
H2230 C2207 0.950 . S
H2231 C2209 0.950 . S
C2232 C2233 1.349 . S
C2232 C2234 1.327 . S
C2232 H2257 0.950 . S
C2233 C2232 1.349 . S
C2233 C2249 1.349 . S
C2234 C2232 1.327 . S
C2234 C2253 1.429 . S
C2234 H2258 0.950 . S
C2235 C2252 1.574 . S
C2235 C2254 1.368 . S
C2235 H2259 0.949 . S
H2236 C2240 0.949 . S
C2237 C2238 1.349 . S
C2237 C2239 1.327 . S
C2237 H2260 0.950 . S
C2238 C2237 1.349 . S
C2238 C2250 1.349 . S
C2239 C2237 1.327 . S
C2239 C2255 1.429 . S
C2239 H2261 0.950 . S
C2240 H2236 0.949 . S
C2240 C2248 1.574 . S
C2240 C2256 1.368 . S
H2241 C2249 0.950 . S
H2242 C2247 0.950 . S
H2243 C2248 0.949 . S
H2244 C2250 0.950 . S
H2245 C2251 0.950 . S
H2246 C2252 0.949 . S
C2247 H2242 0.950 . S
C2247 C2249 1.327 . S
C2247 C2253 1.429 . S
C2248 C2240 1.574 . S
C2248 H2243 0.949 . S
C2248 C2254 1.368 . S
C2249 C2233 1.349 . S
C2249 H2241 0.950 . S
C2249 C2247 1.327 . S
C2250 C2238 1.349 . S
C2250 H2244 0.950 . S
C2250 C2251 1.327 . S
C2251 H2245 0.950 . S
C2251 C2250 1.327 . S
C2251 C2255 1.429 . S
C2252 C2235 1.574 . S
C2252 H2246 0.949 . S
C2252 C2256 1.368 . S
C2253 C2234 1.429 . S
C2253 C2247 1.429 . S
C2253 C2254 1.523 . S
C2254 C2235 1.368 . S
C2254 C2248 1.368 . S
C2254 C2253 1.523 . S
C2255 C2239 1.429 . S
C2255 C2251 1.429 . S
C2255 C2256 1.523 . S
C2256 C2240 1.368 . S
C2256 C2252 1.368 . S
C2256 C2255 1.523 . S
H2257 C2232 0.950 . S
H2258 C2234 0.950 . S
H2259 C2235 0.949 . S
H2260 C2237 0.950 . S
H2261 C2239 0.950 . S
C2262 C2263 1.349 . S
C2262 C2264 1.327 . S
C2262 H2287 0.950 . S
C2263 C2262 1.349 . S
C2263 C2279 1.349 . S
C2264 C2262 1.327 . S
C2264 C2283 1.429 . S
C2264 H2288 0.950 . S
C2265 C2282 1.574 . S
C2265 C2284 1.368 . S
C2265 H2289 0.949 . S
H2266 C2270 0.949 1_655 S
C2267 C2268 1.349 . S
C2267 C2269 1.327 . S
C2267 H2290 0.950 . S
C2268 C2267 1.349 . S
C2268 C2280 1.349 . S
C2269 C2267 1.327 . S
C2269 C2285 1.429 . S
C2269 H2291 0.950 . S
C2270 H2266 0.949 1_455 S
C2270 C2278 1.574 . S
C2270 C2286 1.368 . S
H2271 C2279 0.950 . S
H2272 C2277 0.950 . S
H2273 C2278 0.949 . S
H2274 C2280 0.950 . S
H2275 C2281 0.950 . S
H2276 C2282 0.949 . S
C2277 H2272 0.950 . S
C2277 C2279 1.327 . S
C2277 C2283 1.429 . S
C2278 C2270 1.574 . S
C2278 H2273 0.949 . S
C2278 C2284 1.368 . S
C2279 C2263 1.349 . S
C2279 H2271 0.950 . S
C2279 C2277 1.327 . S
C2280 C2268 1.349 . S
C2280 H2274 0.950 . S
C2280 C2281 1.327 . S
C2281 H2275 0.950 . S
C2281 C2280 1.327 . S
C2281 C2285 1.429 . S
C2282 C2265 1.574 . S
C2282 H2276 0.949 . S
C2282 C2286 1.368 . S
C2283 C2264 1.429 . S
C2283 C2277 1.429 . S
C2283 C2284 1.523 . S
C2284 C2265 1.368 . S
C2284 C2278 1.368 . S
C2284 C2283 1.523 . S
C2285 C2269 1.429 . S
C2285 C2281 1.429 . S
C2285 C2286 1.523 1_655 S
C2286 C2270 1.368 . S
C2286 C2282 1.368 . S
C2286 C2285 1.523 1_455 S
H2287 C2262 0.950 . S
H2288 C2264 0.950 . S
H2289 C2265 0.949 . S
H2290 C2267 0.950 . S
H2291 C2269 0.950 . S
C2292 C2293 1.349 . S
C2292 C2294 1.327 . S
C2292 H2317 0.950 . S
C2293 C2292 1.349 . S
C2293 C2309 1.349 . S
C2294 C2292 1.327 . S
C2294 C2313 1.429 . S
C2294 H2318 0.950 . S
C2295 C2312 1.574 . S
C2295 C2314 1.368 . S
C2295 H2319 0.949 . S
H2296 C2300 0.949 . S
C2297 C2298 1.349 . S
C2297 C2299 1.327 . S
C2297 H2320 0.950 . S
C2298 C2297 1.349 . S
C2298 C2310 1.349 . S
C2299 C2297 1.327 . S
C2299 C2315 1.429 . S
C2299 H2321 0.950 . S
C2300 H2296 0.949 . S
C2300 C2308 1.574 . S
C2300 C2316 1.368 . S
H2301 C2309 0.950 . S
H2302 C2307 0.950 . S
H2303 C2308 0.949 . S
H2304 C2310 0.950 . S
H2305 C2311 0.950 . S
H2306 C2312 0.949 . S
C2307 H2302 0.950 . S
C2307 C2309 1.327 . S
C2307 C2313 1.429 . S
C2308 C2300 1.574 . S
C2308 H2303 0.949 . S
C2308 C2314 1.368 . S
C2309 C2293 1.349 . S
C2309 H2301 0.950 . S
C2309 C2307 1.327 . S
C2310 C2298 1.349 . S
C2310 H2304 0.950 . S
C2310 C2311 1.327 . S
C2311 H2305 0.950 . S
C2311 C2310 1.327 . S
C2311 C2315 1.429 . S
C2312 C2295 1.574 . S
C2312 H2306 0.949 . S
C2312 C2316 1.368 . S
C2313 C2294 1.429 . S
C2313 C2307 1.429 . S
C2313 C2314 1.523 . S
C2314 C2295 1.368 . S
C2314 C2308 1.368 . S
C2314 C2313 1.523 . S
C2315 C2299 1.429 . S
C2315 C2311 1.429 . S
C2315 C2316 1.523 . S
C2316 C2300 1.368 . S
C2316 C2312 1.368 . S
C2316 C2315 1.523 . S
H2317 C2292 0.950 . S
H2318 C2294 0.950 . S
H2319 C2295 0.949 . S
H2320 C2297 0.950 . S
H2321 C2299 0.950 . S
C2322 C2323 1.349 . S
C2322 C2324 1.327 . S
C2322 H2347 0.950 . S
C2323 C2322 1.349 . S
C2323 C2339 1.349 . S
C2324 C2322 1.327 . S
C2324 C2343 1.429 . S
C2324 H2348 0.950 . S
C2325 C2342 1.574 . S
C2325 C2344 1.368 . S
C2325 H2349 0.949 . S
H2326 C2330 0.949 . S
C2327 C2328 1.349 . S
C2327 C2329 1.327 . S
C2327 H2350 0.950 . S
C2328 C2327 1.349 . S
C2328 C2340 1.349 . S
C2329 C2327 1.327 . S
C2329 C2345 1.429 . S
C2329 H2351 0.950 . S
C2330 H2326 0.949 . S
C2330 C2338 1.574 . S
C2330 C2346 1.368 . S
H2331 C2339 0.950 . S
H2332 C2337 0.950 . S
H2333 C2338 0.949 . S
H2334 C2340 0.950 . S
H2335 C2341 0.950 . S
H2336 C2342 0.949 . S
C2337 H2332 0.950 . S
C2337 C2339 1.327 . S
C2337 C2343 1.429 . S
C2338 C2330 1.574 . S
C2338 H2333 0.949 . S
C2338 C2344 1.368 . S
C2339 C2323 1.349 . S
C2339 H2331 0.950 . S
C2339 C2337 1.327 . S
C2340 C2328 1.349 . S
C2340 H2334 0.950 . S
C2340 C2341 1.327 . S
C2341 H2335 0.950 . S
C2341 C2340 1.327 . S
C2341 C2345 1.429 . S
C2342 C2325 1.574 . S
C2342 H2336 0.949 . S
C2342 C2346 1.368 . S
C2343 C2324 1.429 . S
C2343 C2337 1.429 . S
C2343 C2344 1.523 . S
C2344 C2325 1.368 . S
C2344 C2338 1.368 . S
C2344 C2343 1.523 . S
C2345 C2329 1.429 . S
C2345 C2341 1.429 . S
C2345 C2346 1.523 . S
C2346 C2330 1.368 . S
C2346 C2342 1.368 . S
C2346 C2345 1.523 . S
H2347 C2322 0.950 . S
H2348 C2324 0.950 . S
H2349 C2325 0.949 . S
H2350 C2327 0.950 . S
H2351 C2329 0.950 . S
C2352 C2353 1.349 . S
C2352 C2354 1.327 . S
C2352 H2377 0.950 . S
C2353 C2352 1.349 . S
C2353 C2369 1.349 . S
C2354 C2352 1.327 . S
C2354 C2373 1.429 . S
C2354 H2378 0.950 . S
C2355 C2372 1.574 . S
C2355 C2374 1.368 . S
C2355 H2379 0.949 . S
H2356 C2360 0.949 . S
C2357 C2358 1.349 . S
C2357 C2359 1.327 . S
C2357 H2380 0.950 . S
C2358 C2357 1.349 . S
C2358 C2370 1.349 . S
C2359 C2357 1.327 . S
C2359 C2375 1.429 . S
C2359 H2381 0.950 . S
C2360 H2356 0.949 . S
C2360 C2368 1.574 . S
C2360 C2376 1.368 . S
H2361 C2369 0.950 . S
H2362 C2367 0.950 . S
H2363 C2368 0.949 . S
H2364 C2370 0.950 . S
H2365 C2371 0.950 . S
H2366 C2372 0.949 . S
C2367 H2362 0.950 . S
C2367 C2369 1.327 . S
C2367 C2373 1.429 . S
C2368 C2360 1.574 . S
C2368 H2363 0.949 . S
C2368 C2374 1.368 . S
C2369 C2353 1.349 . S
C2369 H2361 0.950 . S
C2369 C2367 1.327 . S
C2370 C2358 1.349 . S
C2370 H2364 0.950 . S
C2370 C2371 1.327 . S
C2371 H2365 0.950 . S
C2371 C2370 1.327 . S
C2371 C2375 1.429 . S
C2372 C2355 1.574 . S
C2372 H2366 0.949 . S
C2372 C2376 1.368 . S
C2373 C2354 1.429 . S
C2373 C2367 1.429 . S
C2373 C2374 1.523 . S
C2374 C2355 1.368 . S
C2374 C2368 1.368 . S
C2374 C2373 1.523 . S
C2375 C2359 1.429 . S
C2375 C2371 1.429 . S
C2375 C2376 1.523 . S
C2376 C2360 1.368 . S
C2376 C2372 1.368 . S
C2376 C2375 1.523 . S
H2377 C2352 0.950 . S
H2378 C2354 0.950 . S
H2379 C2355 0.949 . S
H2380 C2357 0.950 . S
H2381 C2359 0.950 . S
C2382 C2383 1.349 . S
C2382 C2384 1.327 . S
C2382 H2407 0.950 . S
C2383 C2382 1.349 . S
C2383 C2399 1.349 . S
C2384 C2382 1.327 . S
C2384 C2403 1.429 . S
C2384 H2408 0.950 . S
C2385 C2402 1.574 . S
C2385 C2404 1.368 . S
C2385 H2409 0.949 . S
H2386 C2390 0.949 . S
C2387 C2388 1.349 . S
C2387 C2389 1.327 . S
C2387 H2410 0.950 . S
C2388 C2387 1.349 . S
C2388 C2400 1.349 . S
C2389 C2387 1.327 . S
C2389 C2405 1.429 . S
C2389 H2411 0.950 . S
C2390 H2386 0.949 . S
C2390 C2398 1.574 . S
C2390 C2406 1.368 . S
H2391 C2399 0.950 . S
H2392 C2397 0.950 . S
H2393 C2398 0.949 . S
H2394 C2400 0.950 . S
H2395 C2401 0.950 . S
H2396 C2402 0.924 1_556 S
C2397 H2392 0.950 . S
C2397 C2399 1.327 . S
C2397 C2403 1.429 . S
C2398 C2390 1.574 . S
C2398 H2393 0.949 . S
C2398 C2404 1.368 . S
C2399 C2383 1.349 . S
C2399 H2391 0.950 . S
C2399 C2397 1.327 . S
C2400 C2388 1.349 . S
C2400 H2394 0.950 . S
C2400 C2401 1.327 . S
C2401 H2395 0.950 . S
C2401 C2400 1.327 . S
C2401 C2405 1.429 . S
C2402 C2385 1.574 . S
C2402 H2396 0.924 1_554 S
C2402 C2406 1.368 . S
C2403 C2384 1.429 . S
C2403 C2397 1.429 . S
C2403 C2404 1.523 . S
C2404 C2385 1.368 . S
C2404 C2398 1.368 . S
C2404 C2403 1.523 . S
C2405 C2389 1.429 . S
C2405 C2401 1.429 . S
C2405 C2406 1.523 1_556 S
C2406 C2390 1.368 . S
C2406 C2402 1.368 . S
C2406 C2405 1.523 1_554 S
H2407 C2382 0.950 . S
H2408 C2384 0.950 . S
H2409 C2385 0.949 . S
H2410 C2387 0.950 . S
H2411 C2389 0.950 . S
C2412 C2413 1.349 . S
C2412 C2414 1.327 . S
C2412 H2437 0.950 . S
C2413 C2412 1.349 . S
C2413 C2429 1.349 . S
C2414 C2412 1.327 . S
C2414 C2433 1.429 . S
C2414 H2438 0.950 . S
C2415 C2432 1.574 . S
C2415 C2434 1.368 . S
C2415 H2439 0.949 . S
H2416 C2420 0.949 . S
C2417 C2418 1.349 . S
C2417 C2419 1.327 . S
C2417 H2440 0.950 . S
C2418 C2417 1.349 . S
C2418 C2430 1.349 . S
C2419 C2417 1.327 . S
C2419 C2435 1.429 . S
C2419 H2441 0.950 . S
C2420 H2416 0.949 . S
C2420 C2428 1.574 . S
C2420 C2436 1.368 . S
H2421 C2429 0.950 . S
H2422 C2427 0.950 . S
H2423 C2428 0.949 . S
H2424 C2430 0.950 . S
H2425 C2431 0.950 . S
H2426 C2432 0.949 . S
C2427 H2422 0.950 . S
C2427 C2429 1.327 . S
C2427 C2433 1.429 . S
C2428 C2420 1.574 . S
C2428 H2423 0.949 . S
C2428 C2434 1.368 . S
C2429 C2413 1.349 . S
C2429 H2421 0.950 . S
C2429 C2427 1.327 . S
C2430 C2418 1.349 . S
C2430 H2424 0.950 . S
C2430 C2431 1.327 . S
C2431 H2425 0.950 . S
C2431 C2430 1.327 . S
C2431 C2435 1.429 . S
C2432 C2415 1.574 . S
C2432 H2426 0.949 . S
C2432 C2436 1.368 . S
C2433 C2414 1.429 . S
C2433 C2427 1.429 . S
C2433 C2434 1.523 . S
C2434 C2415 1.368 . S
C2434 C2428 1.368 . S
C2434 C2433 1.523 . S
C2435 C2419 1.429 . S
C2435 C2431 1.429 . S
C2435 C2436 1.523 . S
C2436 C2420 1.368 . S
C2436 C2432 1.368 . S
C2436 C2435 1.523 . S
H2437 C2412 0.950 . S
H2438 C2414 0.950 . S
H2439 C2415 0.949 . S
H2440 C2417 0.950 . S
H2441 C2419 0.950 . S
C2442 C2443 1.349 . S
C2442 C2444 1.327 . S
C2442 H2467 0.950 . S
C2443 C2442 1.349 . S
C2443 C2459 1.349 . S
C2444 C2442 1.327 . S
C2444 C2463 1.429 . S
C2444 H2468 0.950 . S
C2445 C2462 1.574 . S
C2445 C2464 1.368 . S
C2445 H2469 0.949 . S
H2446 C2450 0.949 . S
C2447 C2448 1.349 . S
C2447 C2449 1.327 . S
C2447 H2470 0.950 . S
C2448 C2447 1.349 . S
C2448 C2460 1.349 . S
C2449 C2447 1.327 . S
C2449 C2465 1.429 . S
C2449 H2471 0.950 . S
C2450 H2446 0.949 . S
C2450 C2458 1.574 . S
C2450 C2466 1.368 . S
H2451 C2459 0.950 . S
H2452 C2457 0.950 . S
H2453 C2458 0.949 . S
H2454 C2460 0.950 . S
H2455 C2461 0.950 . S
H2456 C2462 0.949 . S
C2457 H2452 0.950 . S
C2457 C2459 1.327 . S
C2457 C2463 1.429 . S
C2458 C2450 1.574 . S
C2458 H2453 0.949 . S
C2458 C2464 1.368 . S
C2459 C2443 1.349 . S
C2459 H2451 0.950 . S
C2459 C2457 1.327 . S
C2460 C2448 1.349 . S
C2460 H2454 0.950 . S
C2460 C2461 1.327 . S
C2461 H2455 0.950 . S
C2461 C2460 1.327 . S
C2461 C2465 1.429 . S
C2462 C2445 1.574 . S
C2462 H2456 0.949 . S
C2462 C2466 1.368 . S
C2463 C2444 1.429 . S
C2463 C2457 1.429 . S
C2463 C2464 1.523 . S
C2464 C2445 1.368 . S
C2464 C2458 1.368 . S
C2464 C2463 1.523 . S
C2465 C2449 1.429 . S
C2465 C2461 1.429 . S
C2465 C2466 1.523 . S
C2466 C2450 1.368 . S
C2466 C2462 1.368 . S
C2466 C2465 1.523 . S
H2467 C2442 0.950 . S
H2468 C2444 0.950 . S
H2469 C2445 0.949 . S
H2470 C2447 0.950 . S
H2471 C2449 0.950 . S
C2472 C2473 1.349 . S
C2472 C2474 1.327 . S
C2472 H2497 0.950 . S
C2473 C2472 1.349 . S
C2473 C2489 1.349 . S
C2474 C2472 1.327 . S
C2474 C2493 1.429 . S
C2474 H2498 0.950 . S
C2475 C2492 1.574 . S
C2475 C2494 1.368 . S
C2475 H2499 0.949 . S
H2476 C2480 0.949 . S
C2477 C2478 1.349 . S
C2477 C2479 1.327 . S
C2477 H2500 0.950 . S
C2478 C2477 1.349 . S
C2478 C2490 1.349 . S
C2479 C2477 1.327 . S
C2479 C2495 1.429 . S
C2479 H2501 0.950 . S
C2480 H2476 0.949 . S
C2480 C2488 1.574 . S
C2480 C2496 1.368 . S
H2481 C2489 0.950 . S
H2482 C2487 0.950 . S
H2483 C2488 0.949 . S
H2484 C2490 0.950 . S
H2485 C2491 0.950 . S
H2486 C2492 0.949 . S
C2487 H2482 0.950 . S
C2487 C2489 1.327 . S
C2487 C2493 1.429 . S
C2488 C2480 1.574 . S
C2488 H2483 0.949 . S
C2488 C2494 1.368 . S
C2489 C2473 1.349 . S
C2489 H2481 0.950 . S
C2489 C2487 1.327 . S
C2490 C2478 1.349 . S
C2490 H2484 0.950 . S
C2490 C2491 1.327 . S
C2491 H2485 0.950 . S
C2491 C2490 1.327 . S
C2491 C2495 1.429 . S
C2492 C2475 1.574 . S
C2492 H2486 0.949 . S
C2492 C2496 1.368 . S
C2493 C2474 1.429 . S
C2493 C2487 1.429 . S
C2493 C2494 1.523 . S
C2494 C2475 1.368 . S
C2494 C2488 1.368 . S
C2494 C2493 1.523 . S
C2495 C2479 1.429 . S
C2495 C2491 1.429 . S
C2495 C2496 1.523 . S
C2496 C2480 1.368 . S
C2496 C2492 1.368 . S
C2496 C2495 1.523 . S
H2497 C2472 0.950 . S
H2498 C2474 0.950 . S
H2499 C2475 0.949 . S
H2500 C2477 0.950 . S
H2501 C2479 0.950 . S
C2502 C2503 1.349 . S
C2502 C2504 1.327 . S
C2502 H2527 0.950 . S
C2503 C2502 1.349 . S
C2503 C2519 1.349 . S
C2504 C2502 1.327 . S
C2504 C2523 1.429 . S
C2504 H2528 0.950 . S
C2505 C2522 1.574 . S
C2505 C2524 1.368 . S
C2505 H2529 0.949 . S
H2506 C2510 0.949 . S
C2507 C2508 1.349 . S
C2507 C2509 1.327 . S
C2507 H2530 0.950 . S
C2508 C2507 1.349 . S
C2508 C2520 1.349 . S
C2509 C2507 1.327 . S
C2509 C2525 1.429 . S
C2509 H2531 0.950 . S
C2510 H2506 0.949 . S
C2510 C2518 1.574 . S
C2510 C2526 1.368 . S
H2511 C2519 0.950 . S
H2512 C2517 0.950 . S
H2513 C2518 0.949 . S
H2514 C2520 0.950 . S
H2515 C2521 0.950 . S
H2516 C2522 0.949 . S
C2517 H2512 0.950 . S
C2517 C2519 1.327 . S
C2517 C2523 1.429 . S
C2518 C2510 1.574 . S
C2518 H2513 0.949 . S
C2518 C2524 1.368 . S
C2519 C2503 1.349 . S
C2519 H2511 0.950 . S
C2519 C2517 1.327 . S
C2520 C2508 1.349 . S
C2520 H2514 0.950 . S
C2520 C2521 1.327 . S
C2521 H2515 0.950 . S
C2521 C2520 1.327 . S
C2521 C2525 1.429 . S
C2522 C2505 1.574 . S
C2522 H2516 0.949 . S
C2522 C2526 1.368 . S
C2523 C2504 1.429 . S
C2523 C2517 1.429 . S
C2523 C2524 1.523 . S
C2524 C2505 1.368 . S
C2524 C2518 1.368 . S
C2524 C2523 1.523 . S
C2525 C2509 1.429 . S
C2525 C2521 1.429 . S
C2525 C2526 1.523 1_554 S
C2526 C2510 1.368 . S
C2526 C2522 1.368 . S
C2526 C2525 1.523 1_556 S
H2527 C2502 0.950 . S
H2528 C2504 0.950 . S
H2529 C2505 0.949 . S
H2530 C2507 0.950 . S
H2531 C2509 0.950 . S
C2532 C2533 1.349 . S
C2532 C2534 1.327 . S
C2532 H2557 0.950 . S
C2533 C2532 1.349 . S
C2533 C2549 1.349 . S
C2534 C2532 1.327 . S
C2534 C2553 1.429 . S
C2534 H2558 0.950 . S
C2535 C2552 1.574 . S
C2535 C2554 1.368 . S
C2535 H2559 0.949 . S
H2536 C2540 0.949 . S
C2537 C2538 1.349 . S
C2537 C2539 1.327 . S
C2537 H2560 0.950 . S
C2538 C2537 1.349 . S
C2538 C2550 1.349 . S
C2539 C2537 1.327 . S
C2539 C2555 1.429 . S
C2539 H2561 0.950 . S
C2540 H2536 0.949 . S
C2540 C2548 1.574 . S
C2540 C2556 1.368 . S
H2541 C2549 0.950 . S
H2542 C2547 0.950 . S
H2543 C2548 0.949 . S
H2544 C2550 0.950 . S
H2545 C2551 0.950 . S
H2546 C2552 0.949 . S
C2547 H2542 0.950 . S
C2547 C2549 1.327 . S
C2547 C2553 1.429 . S
C2548 C2540 1.574 . S
C2548 H2543 0.949 . S
C2548 C2554 1.368 . S
C2549 C2533 1.349 . S
C2549 H2541 0.950 . S
C2549 C2547 1.327 . S
C2550 C2538 1.349 . S
C2550 H2544 0.950 . S
C2550 C2551 1.327 . S
C2551 H2545 0.950 . S
C2551 C2550 1.327 . S
C2551 C2555 1.429 . S
C2552 C2535 1.574 . S
C2552 H2546 0.949 . S
C2552 C2556 1.368 . S
C2553 C2534 1.429 . S
C2553 C2547 1.429 . S
C2553 C2554 1.523 . S
C2554 C2535 1.368 . S
C2554 C2548 1.368 . S
C2554 C2553 1.523 . S
C2555 C2539 1.429 . S
C2555 C2551 1.429 . S
C2555 C2556 1.523 . S
C2556 C2540 1.368 . S
C2556 C2552 1.368 . S
C2556 C2555 1.523 . S
H2557 C2532 0.950 . S
H2558 C2534 0.950 . S
H2559 C2535 0.949 . S
H2560 C2537 0.950 . S
H2561 C2539 0.950 . S
C2562 C2563 1.349 . S
C2562 C2564 1.327 . S
C2562 H2587 0.950 . S
C2563 C2562 1.349 . S
C2563 C2579 1.349 . S
C2564 C2562 1.327 . S
C2564 C2583 1.429 . S
C2564 H2588 0.950 . S
C2565 C2582 1.574 . S
C2565 C2584 1.368 . S
C2565 H2589 0.949 . S
H2566 C2570 0.949 . S
C2567 C2568 1.349 . S
C2567 C2569 1.327 . S
C2567 H2590 0.950 . S
C2568 C2567 1.349 . S
C2568 C2580 1.349 . S
C2569 C2567 1.327 . S
C2569 C2585 1.429 . S
C2569 H2591 0.950 . S
C2570 H2566 0.949 . S
C2570 C2578 1.574 . S
C2570 C2586 1.368 . S
H2571 C2579 0.950 . S
H2572 C2577 0.950 . S
H2573 C2578 0.949 . S
H2574 C2580 0.950 . S
H2575 C2581 0.950 . S
H2576 C2582 0.949 . S
C2577 H2572 0.950 . S
C2577 C2579 1.327 . S
C2577 C2583 1.429 . S
C2578 C2570 1.574 . S
C2578 H2573 0.949 . S
C2578 C2584 1.368 . S
C2579 C2563 1.349 . S
C2579 H2571 0.950 . S
C2579 C2577 1.327 . S
C2580 C2568 1.349 . S
C2580 H2574 0.950 . S
C2580 C2581 1.327 . S
C2581 H2575 0.950 . S
C2581 C2580 1.327 . S
C2581 C2585 1.429 . S
C2582 C2565 1.574 . S
C2582 H2576 0.949 . S
C2582 C2586 1.368 . S
C2583 C2564 1.429 . S
C2583 C2577 1.429 . S
C2583 C2584 1.523 . S
C2584 C2565 1.368 . S
C2584 C2578 1.368 . S
C2584 C2583 1.523 . S
C2585 C2569 1.429 . S
C2585 C2581 1.429 . S
C2585 C2586 1.523 . S
C2586 C2570 1.368 . S
C2586 C2582 1.368 . S
C2586 C2585 1.523 . S
H2587 C2562 0.950 . S
H2588 C2564 0.950 . S
H2589 C2565 0.949 . S
H2590 C2567 0.950 . S
H2591 C2569 0.950 . S
C2592 C2593 1.349 . S
C2592 C2594 1.327 . S
C2592 H2617 0.950 . S
C2593 C2592 1.349 . S
C2593 C2609 1.349 . S
C2594 C2592 1.327 . S
C2594 C2613 1.429 . S
C2594 H2618 0.950 . S
C2595 C2612 1.574 . S
C2595 C2614 1.368 . S
C2595 H2619 0.949 . S
H2596 C2600 0.949 . S
C2597 C2598 1.349 . S
C2597 C2599 1.327 . S
C2597 H2620 0.950 . S
C2598 C2597 1.349 . S
C2598 C2610 1.349 . S
C2599 C2597 1.327 . S
C2599 C2615 1.429 . S
C2599 H2621 0.950 . S
C2600 H2596 0.949 . S
C2600 C2608 1.574 . S
C2600 C2616 1.368 . S
H2601 C2609 0.950 . S
H2602 C2607 0.950 . S
H2603 C2608 0.949 . S
H2604 C2610 0.950 . S
H2605 C2611 0.950 . S
H2606 C2612 0.949 . S
C2607 H2602 0.950 . S
C2607 C2609 1.327 . S
C2607 C2613 1.429 . S
C2608 C2600 1.574 . S
C2608 H2603 0.949 . S
C2608 C2614 1.368 . S
C2609 C2593 1.349 . S
C2609 H2601 0.950 . S
C2609 C2607 1.327 . S
C2610 C2598 1.349 . S
C2610 H2604 0.950 . S
C2610 C2611 1.327 . S
C2611 H2605 0.950 . S
C2611 C2610 1.327 . S
C2611 C2615 1.429 . S
C2612 C2595 1.574 . S
C2612 H2606 0.949 . S
C2612 C2616 1.368 . S
C2613 C2594 1.429 . S
C2613 C2607 1.429 . S
C2613 C2614 1.523 . S
C2614 C2595 1.368 . S
C2614 C2608 1.368 . S
C2614 C2613 1.523 . S
C2615 C2599 1.429 . S
C2615 C2611 1.429 . S
C2615 C2616 1.523 . S
C2616 C2600 1.368 . S
C2616 C2612 1.368 . S
C2616 C2615 1.523 . S
H2617 C2592 0.950 . S
H2618 C2594 0.950 . S
H2619 C2595 0.949 . S
H2620 C2597 0.950 . S
H2621 C2599 0.950 . S
C2622 C2623 1.349 . S
C2622 C2624 1.327 . S
C2622 H2647 0.950 . S
C2623 C2622 1.349 . S
C2623 C2639 1.349 . S
C2624 C2622 1.327 . S
C2624 C2643 1.429 . S
C2624 H2648 0.950 . S
C2625 C2642 1.574 . S
C2625 C2644 1.368 . S
C2625 H2649 0.949 . S
H2626 C2630 0.949 . S
C2627 C2628 1.349 . S
C2627 C2629 1.327 . S
C2627 H2650 0.950 . S
C2628 C2627 1.349 . S
C2628 C2640 1.349 . S
C2629 C2627 1.327 . S
C2629 C2645 1.429 . S
C2629 H2651 0.950 . S
C2630 H2626 0.949 . S
C2630 C2638 1.574 . S
C2630 C2646 1.368 . S
H2631 C2639 0.950 . S
H2632 C2637 0.950 . S
H2633 C2638 0.949 . S
H2634 C2640 0.950 . S
H2635 C2641 0.950 . S
H2636 C2642 0.949 . S
C2637 H2632 0.950 . S
C2637 C2639 1.327 . S
C2637 C2643 1.429 . S
C2638 C2630 1.574 . S
C2638 H2633 0.949 . S
C2638 C2644 1.368 . S
C2639 C2623 1.349 . S
C2639 H2631 0.950 . S
C2639 C2637 1.327 . S
C2640 C2628 1.349 . S
C2640 H2634 0.950 . S
C2640 C2641 1.327 . S
C2641 H2635 0.950 . S
C2641 C2640 1.327 . S
C2641 C2645 1.429 . S
C2642 C2625 1.574 . S
C2642 H2636 0.949 . S
C2642 C2646 1.368 . S
C2643 C2624 1.429 . S
C2643 C2637 1.429 . S
C2643 C2644 1.523 . S
C2644 C2625 1.368 . S
C2644 C2638 1.368 . S
C2644 C2643 1.523 . S
C2645 C2629 1.429 . S
C2645 C2641 1.429 . S
C2645 C2646 1.523 . S
C2646 C2630 1.368 . S
C2646 C2642 1.368 . S
C2646 C2645 1.523 . S
H2647 C2622 0.950 . S
H2648 C2624 0.950 . S
H2649 C2625 0.949 . S
H2650 C2627 0.950 . S
H2651 C2629 0.950 . S
C2652 C2653 1.349 . S
C2652 C2654 1.327 . S
C2652 H2677 0.950 . S
C2653 C2652 1.349 . S
C2653 C2669 1.349 . S
C2654 C2652 1.327 . S
C2654 C2673 1.429 . S
C2654 H2678 0.950 . S
C2655 C2672 1.574 . S
C2655 C2674 1.368 . S
C2655 H2679 0.949 . S
H2656 C2660 0.949 . S
C2657 C2658 1.349 . S
C2657 C2659 1.327 . S
C2657 H2680 0.950 . S
C2658 C2657 1.349 . S
C2658 C2670 1.349 . S
C2659 C2657 1.327 . S
C2659 C2675 1.429 . S
C2659 H2681 0.950 . S
C2660 H2656 0.949 . S
C2660 C2668 1.574 . S
C2660 C2676 1.368 . S
H2661 C2669 0.950 . S
H2662 C2667 0.950 . S
H2663 C2668 0.949 . S
H2664 C2670 0.950 . S
H2665 C2671 0.950 . S
H2666 C2672 0.949 . S
C2667 H2662 0.950 . S
C2667 C2669 1.327 . S
C2667 C2673 1.429 . S
C2668 C2660 1.574 . S
C2668 H2663 0.949 . S
C2668 C2674 1.368 . S
C2669 C2653 1.349 . S
C2669 H2661 0.950 . S
C2669 C2667 1.327 . S
C2670 C2658 1.349 . S
C2670 H2664 0.950 . S
C2670 C2671 1.327 . S
C2671 H2665 0.950 . S
C2671 C2670 1.327 . S
C2671 C2675 1.429 . S
C2672 C2655 1.574 . S
C2672 H2666 0.949 . S
C2672 C2676 1.368 . S
C2673 C2654 1.429 . S
C2673 C2667 1.429 . S
C2673 C2674 1.523 . S
C2674 C2655 1.368 . S
C2674 C2668 1.368 . S
C2674 C2673 1.523 . S
C2675 C2659 1.429 . S
C2675 C2671 1.429 . S
C2675 C2676 1.523 1_565 S
C2676 C2660 1.368 . S
C2676 C2672 1.368 . S
C2676 C2675 1.523 1_545 S
H2677 C2652 0.950 . S
H2678 C2654 0.950 . S
H2679 C2655 0.949 . S
H2680 C2657 0.950 . S
H2681 C2659 0.950 . S
C2682 C2683 1.349 . S
C2682 C2684 1.327 . S
C2682 H2707 0.950 . S
C2683 C2682 1.349 . S
C2683 C2699 1.349 . S
C2684 C2682 1.327 . S
C2684 C2703 1.429 . S
C2684 H2708 0.950 . S
C2685 C2702 1.574 . S
C2685 C2704 1.368 . S
C2685 H2709 0.949 . S
H2686 C2690 0.949 . S
C2687 C2688 1.349 . S
C2687 C2689 1.327 . S
C2687 H2710 0.950 . S
C2688 C2687 1.349 . S
C2688 C2700 1.349 . S
C2689 C2687 1.327 . S
C2689 C2705 1.429 . S
C2689 H2711 0.950 . S
C2690 H2686 0.949 . S
C2690 C2698 1.574 . S
C2690 C2706 1.368 . S
H2691 C2699 0.950 . S
H2692 C2697 0.950 . S
H2693 C2698 0.949 . S
H2694 C2700 0.950 . S
H2695 C2701 0.950 . S
H2696 C2702 0.949 . S
C2697 H2692 0.950 . S
C2697 C2699 1.327 . S
C2697 C2703 1.429 . S
C2698 C2690 1.574 . S
C2698 H2693 0.949 . S
C2698 C2704 1.368 . S
C2699 C2683 1.349 . S
C2699 H2691 0.950 . S
C2699 C2697 1.327 . S
C2700 C2688 1.349 . S
C2700 H2694 0.950 . S
C2700 C2701 1.327 . S
C2701 H2695 0.950 . S
C2701 C2700 1.327 . S
C2701 C2705 1.429 . S
C2702 C2685 1.574 . S
C2702 H2696 0.949 . S
C2702 C2706 1.368 . S
C2703 C2684 1.429 . S
C2703 C2697 1.429 . S
C2703 C2704 1.523 . S
C2704 C2685 1.368 . S
C2704 C2698 1.368 . S
C2704 C2703 1.523 . S
C2705 C2689 1.429 . S
C2705 C2701 1.429 . S
C2705 C2706 1.523 . S
C2706 C2690 1.368 . S
C2706 C2702 1.368 . S
C2706 C2705 1.523 . S
H2707 C2682 0.950 . S
H2708 C2684 0.950 . S
H2709 C2685 0.949 . S
H2710 C2687 0.950 . S
H2711 C2689 0.950 . S
C2712 C2713 1.349 . S
C2712 C2714 1.327 . S
C2712 H2737 0.950 . S
C2713 C2712 1.349 . S
C2713 C2729 1.349 . S
C2714 C2712 1.327 . S
C2714 C2733 1.429 . S
C2714 H2738 0.950 . S
C2715 C2732 1.574 . S
C2715 C2734 1.368 . S
C2715 H2739 0.949 . S
H2716 C2720 0.949 . S
C2717 C2718 1.349 . S
C2717 C2719 1.327 . S
C2717 H2740 0.950 . S
C2718 C2717 1.349 . S
C2718 C2730 1.349 . S
C2719 C2717 1.327 . S
C2719 C2735 1.429 . S
C2719 H2741 0.950 . S
C2720 H2716 0.949 . S
C2720 C2728 1.574 . S
C2720 C2736 1.368 . S
H2721 C2729 0.950 . S
H2722 C2727 0.950 . S
H2723 C2728 0.949 . S
H2724 C2730 0.950 . S
H2725 C2731 0.950 . S
H2726 C2732 0.949 . S
C2727 H2722 0.950 . S
C2727 C2729 1.327 . S
C2727 C2733 1.429 . S
C2728 C2720 1.574 . S
C2728 H2723 0.949 . S
C2728 C2734 1.368 . S
C2729 C2713 1.349 . S
C2729 H2721 0.950 . S
C2729 C2727 1.327 . S
C2730 C2718 1.349 . S
C2730 H2724 0.950 . S
C2730 C2731 1.327 . S
C2731 H2725 0.950 . S
C2731 C2730 1.327 . S
C2731 C2735 1.429 . S
C2732 C2715 1.574 . S
C2732 H2726 0.949 . S
C2732 C2736 1.368 . S
C2733 C2714 1.429 . S
C2733 C2727 1.429 . S
C2733 C2734 1.523 . S
C2734 C2715 1.368 . S
C2734 C2728 1.368 . S
C2734 C2733 1.523 . S
C2735 C2719 1.429 . S
C2735 C2731 1.429 . S
C2735 C2736 1.523 . S
C2736 C2720 1.368 . S
C2736 C2732 1.368 . S
C2736 C2735 1.523 . S
H2737 C2712 0.950 . S
H2738 C2714 0.950 . S
H2739 C2715 0.949 . S
H2740 C2717 0.950 . S
H2741 C2719 0.950 . S
C2742 C2743 1.349 . S
C2742 C2744 1.327 . S
C2742 H2767 0.950 . S
C2743 C2742 1.349 . S
C2743 C2759 1.349 . S
C2744 C2742 1.327 . S
C2744 C2763 1.429 . S
C2744 H2768 0.950 . S
C2745 C2762 1.574 . S
C2745 C2764 1.368 . S
C2745 H2769 0.949 . S
H2746 C2750 0.949 . S
C2747 C2748 1.349 . S
C2747 C2749 1.327 . S
C2747 H2770 0.950 . S
C2748 C2747 1.349 . S
C2748 C2760 1.349 . S
C2749 C2747 1.327 . S
C2749 C2765 1.429 . S
C2749 H2771 0.950 . S
C2750 H2746 0.949 . S
C2750 C2758 1.574 . S
C2750 C2766 1.368 . S
H2751 C2759 0.950 . S
H2752 C2757 0.950 . S
H2753 C2758 0.949 . S
H2754 C2760 0.950 . S
H2755 C2761 0.950 . S
H2756 C2762 0.949 . S
C2757 H2752 0.950 . S
C2757 C2759 1.327 . S
C2757 C2763 1.429 . S
C2758 C2750 1.574 . S
C2758 H2753 0.949 . S
C2758 C2764 1.368 . S
C2759 C2743 1.349 . S
C2759 H2751 0.950 . S
C2759 C2757 1.327 . S
C2760 C2748 1.349 . S
C2760 H2754 0.950 . S
C2760 C2761 1.327 . S
C2761 H2755 0.950 . S
C2761 C2760 1.327 . S
C2761 C2765 1.429 . S
C2762 C2745 1.574 . S
C2762 H2756 0.949 . S
C2762 C2766 1.368 . S
C2763 C2744 1.429 . S
C2763 C2757 1.429 . S
C2763 C2764 1.523 . S
C2764 C2745 1.368 . S
C2764 C2758 1.368 . S
C2764 C2763 1.523 . S
C2765 C2749 1.429 . S
C2765 C2761 1.429 . S
C2765 C2766 1.523 . S
C2766 C2750 1.368 . S
C2766 C2762 1.368 . S
C2766 C2765 1.523 . S
H2767 C2742 0.950 . S
H2768 C2744 0.950 . S
H2769 C2745 0.949 . S
H2770 C2747 0.950 . S
H2771 C2749 0.950 . S
C2772 C2773 1.349 . S
C2772 C2774 1.327 . S
C2772 H2797 0.950 . S
C2773 C2772 1.349 . S
C2773 C2789 1.349 . S
C2774 C2772 1.327 . S
C2774 C2793 1.429 . S
C2774 H2798 0.950 . S
C2775 C2792 1.637 . S
C2775 C2794 1.351 1_565 S
C2775 H2799 0.911 1_565 S
H2776 C2780 0.949 . S
C2777 C2778 1.349 . S
C2777 C2779 1.327 . S
C2777 H2800 0.950 . S
C2778 C2777 1.349 . S
C2778 C2790 1.349 . S
C2779 C2777 1.327 . S
C2779 C2795 1.429 . S
C2779 H2801 0.950 . S
C2780 H2776 0.949 . S
C2780 C2788 1.574 . S
C2780 C2796 1.368 . S
H2781 C2789 0.950 . S
H2782 C2787 0.950 . S
H2783 C2788 0.949 1_545 S
H2784 C2790 0.950 . S
H2785 C2791 0.950 . S
H2786 C2792 0.949 . S
C2787 H2782 0.950 . S
C2787 C2789 1.327 . S
C2787 C2793 1.429 . S
C2788 C2780 1.574 . S
C2788 H2783 0.949 1_565 S
C2788 C2794 1.368 1_565 S
C2789 C2773 1.349 . S
C2789 H2781 0.950 . S
C2789 C2787 1.327 . S
C2790 C2778 1.349 . S
C2790 H2784 0.950 . S
C2790 C2791 1.327 . S
C2791 H2785 0.950 . S
C2791 C2790 1.327 . S
C2791 C2795 1.429 . S
C2792 C2775 1.637 . S
C2792 H2786 0.949 . S
C2792 C2796 1.368 . S
C2793 C2774 1.429 . S
C2793 C2787 1.429 . S
C2793 C2794 1.523 . S
C2794 C2775 1.351 1_545 S
C2794 C2788 1.368 1_545 S
C2794 C2793 1.523 . S
C2795 C2779 1.429 . S
C2795 C2791 1.429 . S
C2795 C2796 1.523 . S
C2796 C2780 1.368 . S
C2796 C2792 1.368 . S
C2796 C2795 1.523 . S
H2797 C2772 0.950 . S
H2798 C2774 0.950 . S
H2799 C2775 0.911 1_545 S
H2800 C2777 0.950 . S
H2801 C2779 0.950 . S
C2802 C2803 1.349 . S
C2802 C2804 1.327 . S
C2802 H2827 0.950 . S
C2803 C2802 1.349 . S
C2803 C2819 1.349 . S
C2804 C2802 1.327 . S
C2804 C2823 1.429 . S
C2804 H2828 0.950 . S
C2805 C2822 1.574 . S
C2805 C2824 1.368 . S
C2805 H2829 0.949 . S
H2806 C2810 0.949 1_565 S
C2807 C2808 1.349 . S
C2807 C2809 1.327 . S
C2807 H2830 0.950 . S
C2808 C2807 1.349 . S
C2808 C2820 1.349 . S
C2809 C2807 1.327 . S
C2809 C2825 1.429 . S
C2809 H2831 0.950 . S
C2810 H2806 0.949 1_545 S
C2810 C2818 1.574 . S
C2810 C2826 1.370 . S
H2811 C2819 0.950 . S
H2812 C2817 0.950 . S
H2813 C2818 0.949 . S
H2814 C2820 0.950 . S
H2815 C2821 0.950 . S
H2816 C2822 0.949 . S
C2817 H2812 0.950 . S
C2817 C2819 1.327 . S
C2817 C2823 1.429 . S
C2818 C2810 1.574 . S
C2818 H2813 0.949 . S
C2818 C2824 1.368 . S
C2819 C2803 1.349 . S
C2819 H2811 0.950 . S
C2819 C2817 1.327 . S
C2820 C2808 1.349 . S
C2820 H2814 0.950 . S
C2820 C2821 1.327 . S
C2821 H2815 0.950 . S
C2821 C2820 1.327 . S
C2821 C2825 1.429 . S
C2822 C2805 1.574 . S
C2822 H2816 0.949 . S
C2822 C2826 1.373 . S
C2823 C2804 1.429 . S
C2823 C2817 1.429 . S
C2823 C2824 1.523 . S
C2824 C2805 1.368 . S
C2824 C2818 1.368 . S
C2824 C2823 1.523 . S
C2825 C2809 1.429 . S
C2825 C2821 1.429 . S
C2825 C2826 1.515 1_565 S
C2826 C2810 1.370 . S
C2826 C2822 1.373 . S
C2826 C2825 1.515 1_545 S
H2827 C2802 0.950 . S
H2828 C2804 0.950 . S
H2829 C2805 0.949 . S
H2830 C2807 0.950 . S
H2831 C2809 0.950 . S
C2832 C2833 1.349 . S
C2832 C2834 1.327 . S
C2832 H2857 0.950 . S
C2833 C2832 1.349 . S
C2833 C2849 1.349 . S
C2834 C2832 1.327 . S
C2834 C2853 1.429 . S
C2834 H2858 0.950 . S
C2835 C2852 1.574 . S
C2835 C2854 1.368 . S
C2835 H2859 0.949 . S
H2836 C2840 0.949 . S
C2837 C2838 1.349 . S
C2837 C2839 1.327 . S
C2837 H2860 0.950 . S
C2838 C2837 1.349 . S
C2838 C2850 1.349 . S
C2839 C2837 1.327 . S
C2839 C2855 1.429 . S
C2839 H2861 0.950 . S
C2840 H2836 0.949 . S
C2840 C2848 1.574 . S
C2840 C2856 1.368 . S
H2841 C2849 0.950 . S
H2842 C2847 0.950 . S
H2843 C2848 0.949 . S
H2844 C2850 0.950 . S
H2845 C2851 0.950 . S
H2846 C2852 0.949 . S
C2847 H2842 0.950 . S
C2847 C2849 1.327 . S
C2847 C2853 1.429 . S
C2848 C2840 1.574 . S
C2848 H2843 0.949 . S
C2848 C2854 1.368 . S
C2849 C2833 1.349 . S
C2849 H2841 0.950 . S
C2849 C2847 1.327 . S
C2850 C2838 1.349 . S
C2850 H2844 0.950 . S
C2850 C2851 1.327 . S
C2851 H2845 0.950 . S
C2851 C2850 1.327 . S
C2851 C2855 1.429 . S
C2852 C2835 1.574 . S
C2852 H2846 0.949 . S
C2852 C2856 1.368 . S
C2853 C2834 1.429 . S
C2853 C2847 1.429 . S
C2853 C2854 1.523 . S
C2854 C2835 1.368 . S
C2854 C2848 1.368 . S
C2854 C2853 1.523 . S
C2855 C2839 1.429 . S
C2855 C2851 1.429 . S
C2855 C2856 1.523 . S
C2856 C2840 1.368 . S
C2856 C2852 1.368 . S
C2856 C2855 1.523 . S
H2857 C2832 0.950 . S
H2858 C2834 0.950 . S
H2859 C2835 0.949 . S
H2860 C2837 0.950 . S
H2861 C2839 0.950 . S
C2862 C2863 1.349 . S
C2862 C2864 1.327 . S
C2862 H2887 0.950 . S
C2863 C2862 1.349 . S
C2863 C2879 1.349 . S
C2864 C2862 1.327 . S
C2864 C2883 1.429 . S
C2864 H2888 0.950 . S
C2865 C2882 1.574 . S
C2865 C2884 1.368 . S
C2865 H2889 0.949 . S
H2866 C2870 0.949 . S
C2867 C2868 1.349 . S
C2867 C2869 1.327 . S
C2867 H2890 0.950 . S
C2868 C2867 1.349 . S
C2868 C2880 1.349 . S
C2869 C2867 1.327 . S
C2869 C2885 1.429 . S
C2869 H2891 0.950 . S
C2870 H2866 0.949 . S
C2870 C2878 1.574 . S
C2870 C2886 1.368 . S
H2871 C2879 0.950 . S
H2872 C2877 0.950 . S
H2873 C2878 0.949 . S
H2874 C2880 0.950 . S
H2875 C2881 0.950 . S
H2876 C2882 0.949 . S
C2877 H2872 0.950 . S
C2877 C2879 1.327 . S
C2877 C2883 1.429 . S
C2878 C2870 1.574 . S
C2878 H2873 0.949 . S
C2878 C2884 1.368 . S
C2879 C2863 1.349 . S
C2879 H2871 0.950 . S
C2879 C2877 1.327 . S
C2880 C2868 1.349 . S
C2880 H2874 0.950 . S
C2880 C2881 1.327 . S
C2881 H2875 0.950 . S
C2881 C2880 1.327 . S
C2881 C2885 1.429 . S
C2882 C2865 1.574 . S
C2882 H2876 0.949 . S
C2882 C2886 1.368 . S
C2883 C2864 1.429 . S
C2883 C2877 1.429 . S
C2883 C2884 1.523 . S
C2884 C2865 1.368 . S
C2884 C2878 1.368 . S
C2884 C2883 1.523 . S
C2885 C2869 1.429 . S
C2885 C2881 1.429 . S
C2885 C2886 1.523 . S
C2886 C2870 1.368 . S
C2886 C2882 1.368 . S
C2886 C2885 1.523 . S
H2887 C2862 0.950 . S
H2888 C2864 0.950 . S
H2889 C2865 0.949 . S
H2890 C2867 0.950 . S
H2891 C2869 0.950 . S
C2892 C2893 1.349 . S
C2892 C2894 1.327 . S
C2892 H2917 0.950 . S
C2893 C2892 1.349 . S
C2893 C2909 1.349 . S
C2894 C2892 1.327 . S
C2894 C2913 1.429 . S
C2894 H2918 0.950 . S
C2895 C2912 1.574 . S
C2895 C2914 1.368 . S
C2895 H2919 0.949 . S
H2896 C2900 0.949 . S
C2897 C2898 1.349 . S
C2897 C2899 1.327 . S
C2897 H2920 0.950 . S
C2898 C2897 1.349 . S
C2898 C2910 1.349 . S
C2899 C2897 1.327 . S
C2899 C2915 1.429 . S
C2899 H2921 0.950 . S
C2900 H2896 0.949 . S
C2900 C2908 1.574 . S
C2900 C2916 1.368 . S
H2901 C2909 0.950 . S
H2902 C2907 0.950 . S
H2903 C2908 0.949 . S
H2904 C2910 0.950 . S
H2905 C2911 0.950 . S
H2906 C2912 0.949 . S
C2907 H2902 0.950 . S
C2907 C2909 1.327 . S
C2907 C2913 1.429 . S
C2908 C2900 1.574 . S
C2908 H2903 0.949 . S
C2908 C2914 1.368 . S
C2909 C2893 1.349 . S
C2909 H2901 0.950 . S
C2909 C2907 1.327 . S
C2910 C2898 1.349 . S
C2910 H2904 0.950 . S
C2910 C2911 1.327 . S
C2911 H2905 0.950 . S
C2911 C2910 1.327 . S
C2911 C2915 1.429 . S
C2912 C2895 1.574 . S
C2912 H2906 0.949 . S
C2912 C2916 1.368 . S
C2913 C2894 1.429 . S
C2913 C2907 1.429 . S
C2913 C2914 1.523 . S
C2914 C2895 1.368 . S
C2914 C2908 1.368 . S
C2914 C2913 1.523 . S
C2915 C2899 1.429 . S
C2915 C2911 1.429 . S
C2915 C2916 1.523 . S
C2916 C2900 1.368 . S
C2916 C2912 1.368 . S
C2916 C2915 1.523 . S
H2917 C2892 0.950 . S
H2918 C2894 0.950 . S
H2919 C2895 0.949 . S
H2920 C2897 0.950 . S
H2921 C2899 0.950 . S
C2922 C2923 1.349 . S
C2922 C2924 1.327 . S
C2922 H2947 0.950 . S
C2923 C2922 1.349 . S
C2923 C2939 1.349 . S
C2924 C2922 1.327 . S
C2924 C2943 1.429 . S
C2924 H2948 0.950 . S
C2925 C2942 1.574 . S
C2925 C2944 1.368 . S
C2925 H2949 0.949 1_655 S
H2926 C2930 0.949 . S
C2927 C2928 1.349 . S
C2927 C2929 1.327 . S
C2927 H2950 0.950 . S
C2928 C2927 1.349 . S
C2928 C2940 1.349 . S
C2929 C2927 1.327 . S
C2929 C2945 1.429 . S
C2929 H2951 0.950 . S
C2930 H2926 0.949 . S
C2930 C2938 1.574 . S
C2930 C2946 1.368 . S
H2931 C2939 0.950 . S
H2932 C2937 0.950 . S
H2933 C2938 0.949 . S
H2934 C2940 0.950 . S
H2935 C2941 0.950 . S
H2936 C2942 0.949 . S
C2937 H2932 0.950 . S
C2937 C2939 1.327 . S
C2937 C2943 1.429 . S
C2938 C2930 1.574 . S
C2938 H2933 0.949 . S
C2938 C2944 1.368 . S
C2939 C2923 1.349 . S
C2939 H2931 0.950 . S
C2939 C2937 1.327 . S
C2940 C2928 1.349 . S
C2940 H2934 0.950 . S
C2940 C2941 1.327 . S
C2941 H2935 0.950 . S
C2941 C2940 1.327 . S
C2941 C2945 1.429 . S
C2942 C2925 1.574 . S
C2942 H2936 0.949 . S
C2942 C2946 1.368 . S
C2943 C2924 1.429 . S
C2943 C2937 1.429 . S
C2943 C2944 1.523 1_455 S
C2944 C2925 1.368 . S
C2944 C2938 1.368 . S
C2944 C2943 1.523 1_655 S
C2945 C2929 1.429 . S
C2945 C2941 1.429 . S
C2945 C2946 1.523 . S
C2946 C2930 1.368 . S
C2946 C2942 1.368 . S
C2946 C2945 1.523 . S
H2947 C2922 0.950 . S
H2948 C2924 0.950 . S
H2949 C2925 0.949 1_455 S
H2950 C2927 0.950 . S
H2951 C2929 0.950 . S
C2952 C2953 1.349 . S
C2952 C2954 1.327 . S
C2952 H2977 0.950 . S
C2953 C2952 1.349 . S
C2953 C2969 1.349 . S
C2954 C2952 1.327 . S
C2954 C2973 1.429 . S
C2954 H2978 0.950 . S
C2955 C2972 1.574 . S
C2955 C2974 1.368 . S
C2955 H2979 0.949 . S
H2956 C2960 0.949 . S
C2957 C2958 1.349 . S
C2957 C2959 1.327 . S
C2957 H2980 0.950 . S
C2958 C2957 1.349 . S
C2958 C2970 1.349 . S
C2959 C2957 1.327 . S
C2959 C2975 1.429 . S
C2959 H2981 0.950 . S
C2960 H2956 0.949 . S
C2960 C2968 1.574 . S
C2960 C2976 1.368 . S
H2961 C2969 0.950 . S
H2962 C2967 0.950 . S
H2963 C2968 0.949 . S
H2964 C2970 0.950 . S
H2965 C2971 0.950 . S
H2966 C2972 0.949 . S
C2967 H2962 0.950 . S
C2967 C2969 1.327 . S
C2967 C2973 1.429 . S
C2968 C2960 1.574 . S
C2968 H2963 0.949 . S
C2968 C2974 1.368 . S
C2969 C2953 1.349 . S
C2969 H2961 0.950 . S
C2969 C2967 1.327 . S
C2970 C2958 1.349 . S
C2970 H2964 0.950 . S
C2970 C2971 1.327 . S
C2971 H2965 0.950 . S
C2971 C2970 1.327 . S
C2971 C2975 1.429 . S
C2972 C2955 1.574 . S
C2972 H2966 0.949 . S
C2972 C2976 1.368 . S
C2973 C2954 1.429 . S
C2973 C2967 1.429 . S
C2973 C2974 1.523 . S
C2974 C2955 1.368 . S
C2974 C2968 1.368 . S
C2974 C2973 1.523 . S
C2975 C2959 1.429 . S
C2975 C2971 1.429 . S
C2975 C2976 1.523 . S
C2976 C2960 1.368 . S
C2976 C2972 1.368 . S
C2976 C2975 1.523 . S
H2977 C2952 0.950 . S
H2978 C2954 0.950 . S
H2979 C2955 0.949 . S
H2980 C2957 0.950 . S
H2981 C2959 0.950 . S
C2982 C2983 1.349 . S
C2982 C2984 1.327 . S
C2982 H3007 0.950 . S
C2983 C2982 1.349 . S
C2983 C2999 1.349 . S
C2984 C2982 1.327 . S
C2984 C3003 1.429 . S
C2984 H3008 0.950 . S
C2985 C3002 1.574 . S
C2985 C3004 1.368 . S
C2985 H3009 0.917 1_655 S
H2986 C2990 0.949 . S
C2987 C2988 1.349 . S
C2987 C2989 1.327 . S
C2987 H3010 0.950 . S
C2988 C2987 1.349 . S
C2988 C3000 1.349 . S
C2989 C2987 1.327 . S
C2989 C3005 1.429 . S
C2989 H3011 0.950 . S
C2990 H2986 0.949 . S
C2990 C2998 1.574 . S
C2990 C3006 1.368 . S
H2991 C2999 0.950 . S
H2992 C2997 0.950 . S
H2993 C2998 0.949 . S
H2994 C3000 0.950 . S
H2995 C3001 0.950 . S
H2996 C3002 0.949 . S
C2997 H2992 0.950 . S
C2997 C2999 1.327 . S
C2997 C3003 1.429 . S
C2998 C2990 1.574 . S
C2998 H2993 0.949 . S
C2998 C3004 1.368 . S
C2999 C2983 1.349 . S
C2999 H2991 0.950 . S
C2999 C2997 1.327 . S
C3000 C2988 1.349 . S
C3000 H2994 0.950 . S
C3000 C3001 1.327 . S
C3001 H2995 0.950 . S
C3001 C3000 1.327 . S
C3001 C3005 1.429 . S
C3002 C2985 1.574 . S
C3002 H2996 0.949 . S
C3002 C3006 1.368 . S
C3003 C2984 1.429 . S
C3003 C2997 1.429 . S
C3003 C3004 1.523 1_455 S
C3004 C2985 1.368 . S
C3004 C2998 1.368 . S
C3004 C3003 1.523 1_655 S
C3005 C2989 1.429 . S
C3005 C3001 1.429 . S
C3005 C3006 1.523 . S
C3006 C2990 1.368 . S
C3006 C3002 1.368 . S
C3006 C3005 1.523 . S
H3007 C2982 0.950 . S
H3008 C2984 0.950 . S
H3009 C2985 0.917 1_455 S
H3010 C2987 0.950 . S
H3011 C2989 0.950 . S
C3012 C3013 1.349 . S
C3012 C3014 1.327 . S
C3012 H3037 0.950 . S
C3013 C3012 1.349 . S
C3013 C3029 1.349 . S
C3014 C3012 1.327 . S
C3014 C3033 1.429 . S
C3014 H3038 0.950 . S
C3015 C3032 1.574 . S
C3015 C3034 1.368 . S
C3015 H3039 0.949 . S
H3016 C3020 0.949 . S
C3017 C3018 1.349 . S
C3017 C3019 1.327 . S
C3017 H3040 0.950 . S
C3018 C3017 1.349 . S
C3018 C3030 1.349 . S
C3019 C3017 1.327 . S
C3019 C3035 1.429 . S
C3019 H3041 0.950 . S
C3020 H3016 0.949 . S
C3020 C3028 1.574 . S
C3020 C3036 1.368 . S
H3021 C3029 0.950 . S
H3022 C3027 0.950 . S
H3023 C3028 0.949 . S
H3024 C3030 0.950 . S
H3025 C3031 0.950 . S
H3026 C3032 0.949 . S
C3027 H3022 0.950 . S
C3027 C3029 1.327 . S
C3027 C3033 1.429 . S
C3028 C3020 1.574 . S
C3028 H3023 0.949 . S
C3028 C3034 1.368 . S
C3029 C3013 1.349 . S
C3029 H3021 0.950 . S
C3029 C3027 1.327 . S
C3030 C3018 1.349 . S
C3030 H3024 0.950 . S
C3030 C3031 1.327 . S
C3031 H3025 0.950 . S
C3031 C3030 1.327 . S
C3031 C3035 1.429 . S
C3032 C3015 1.574 . S
C3032 H3026 0.949 . S
C3032 C3036 1.368 . S
C3033 C3014 1.429 . S
C3033 C3027 1.429 . S
C3033 C3034 1.523 . S
C3034 C3015 1.368 . S
C3034 C3028 1.368 . S
C3034 C3033 1.523 . S
C3035 C3019 1.429 . S
C3035 C3031 1.429 . S
C3035 C3036 1.523 . S
C3036 C3020 1.368 . S
C3036 C3032 1.368 . S
C3036 C3035 1.523 . S
H3037 C3012 0.950 . S
H3038 C3014 0.950 . S
H3039 C3015 0.949 . S
H3040 C3017 0.950 . S
H3041 C3019 0.950 . S
C3042 C3043 1.349 . S
C3042 C3044 1.327 . S
C3042 H3067 0.950 . S
C3043 C3042 1.349 . S
C3043 C3059 1.349 . S
C3044 C3042 1.327 . S
C3044 C3063 1.429 . S
C3044 H3068 0.950 . S
C3045 C3062 1.574 . S
C3045 C3064 1.368 . S
C3045 H3069 0.949 . S
H3046 C3050 0.949 . S
C3047 C3048 1.349 . S
C3047 C3049 1.327 . S
C3047 H3070 0.950 . S
C3048 C3047 1.349 . S
C3048 C3060 1.349 . S
C3049 C3047 1.327 . S
C3049 C3065 1.429 . S
C3049 H3071 0.950 . S
C3050 H3046 0.949 . S
C3050 C3058 1.574 . S
C3050 C3066 1.368 . S
H3051 C3059 0.950 . S
H3052 C3057 0.950 . S
H3053 C3058 0.949 . S
H3054 C3060 0.950 . S
H3055 C3061 0.950 . S
H3056 C3062 0.949 . S
C3057 H3052 0.950 . S
C3057 C3059 1.327 . S
C3057 C3063 1.429 . S
C3058 C3050 1.574 . S
C3058 H3053 0.949 . S
C3058 C3064 1.368 . S
C3059 C3043 1.349 . S
C3059 H3051 0.950 . S
C3059 C3057 1.327 . S
C3060 C3048 1.349 . S
C3060 H3054 0.950 . S
C3060 C3061 1.327 . S
C3061 H3055 0.950 . S
C3061 C3060 1.327 . S
C3061 C3065 1.429 . S
C3062 C3045 1.574 . S
C3062 H3056 0.949 . S
C3062 C3066 1.368 . S
C3063 C3044 1.429 . S
C3063 C3057 1.429 . S
C3063 C3064 1.523 . S
C3064 C3045 1.368 . S
C3064 C3058 1.368 . S
C3064 C3063 1.523 . S
C3065 C3049 1.429 . S
C3065 C3061 1.429 . S
C3065 C3066 1.523 . S
C3066 C3050 1.368 . S
C3066 C3062 1.368 . S
C3066 C3065 1.523 . S
H3067 C3042 0.950 . S
H3068 C3044 0.950 . S
H3069 C3045 0.949 . S
H3070 C3047 0.950 . S
H3071 C3049 0.950 . S
C3072 C3073 1.349 . S
C3072 C3074 1.327 . S
C3072 H3097 0.950 . S
C3073 C3072 1.349 . S
C3073 C3089 1.349 . S
C3074 C3072 1.327 . S
C3074 C3093 1.429 . S
C3074 H3098 0.950 . S
C3075 C3092 1.574 . S
C3075 C3094 1.368 . S
C3075 H3099 0.949 . S
H3076 C3080 0.949 . S
C3077 C3078 1.349 . S
C3077 C3079 1.327 . S
C3077 H3100 0.950 . S
C3078 C3077 1.349 . S
C3078 C3090 1.349 . S
C3079 C3077 1.327 . S
C3079 C3095 1.429 . S
C3079 H3101 0.950 . S
C3080 H3076 0.949 . S
C3080 C3088 1.574 . S
C3080 C3096 1.368 . S
H3081 C3089 0.950 . S
H3082 C3087 0.950 . S
H3083 C3088 0.949 . S
H3084 C3090 0.950 . S
H3085 C3091 0.950 . S
H3086 C3092 0.949 . S
C3087 H3082 0.950 . S
C3087 C3089 1.327 . S
C3087 C3093 1.429 . S
C3088 C3080 1.574 . S
C3088 H3083 0.949 . S
C3088 C3094 1.368 . S
C3089 C3073 1.349 . S
C3089 H3081 0.950 . S
C3089 C3087 1.327 . S
C3090 C3078 1.349 . S
C3090 H3084 0.950 . S
C3090 C3091 1.327 . S
C3091 H3085 0.950 . S
C3091 C3090 1.327 . S
C3091 C3095 1.429 . S
C3092 C3075 1.574 . S
C3092 H3086 0.949 . S
C3092 C3096 1.368 . S
C3093 C3074 1.429 . S
C3093 C3087 1.429 . S
C3093 C3094 1.523 . S
C3094 C3075 1.368 . S
C3094 C3088 1.368 . S
C3094 C3093 1.523 . S
C3095 C3079 1.429 . S
C3095 C3091 1.429 . S
C3095 C3096 1.523 . S
C3096 C3080 1.368 . S
C3096 C3092 1.368 . S
C3096 C3095 1.523 . S
H3097 C3072 0.950 . S
H3098 C3074 0.950 . S
H3099 C3075 0.949 . S
H3100 C3077 0.950 . S
H3101 C3079 0.950 . S
C3102 C3103 1.349 . S
C3102 C3104 1.327 . S
C3102 H3127 0.950 . S
C3103 C3102 1.349 . S
C3103 C3119 1.349 . S
C3104 C3102 1.327 . S
C3104 C3123 1.429 . S
C3104 H3128 0.950 . S
C3105 C3122 1.574 . S
C3105 C3124 1.368 . S
C3105 H3129 0.949 . S
H3106 C3110 0.949 1_554 S
C3107 C3108 1.349 . S
C3107 C3109 1.327 . S
C3107 H3130 0.950 . S
C3108 C3107 1.349 . S
C3108 C3120 1.349 . S
C3109 C3107 1.327 . S
C3109 C3125 1.429 . S
C3109 H3131 0.950 . S
C3110 H3106 0.949 1_556 S
C3110 C3118 1.574 . S
C3110 C3126 1.371 . S
H3111 C3119 0.950 . S
H3112 C3117 0.950 . S
H3113 C3118 0.949 . S
H3114 C3120 0.950 . S
H3115 C3121 0.950 . S
H3116 C3122 0.949 . S
C3117 H3112 0.950 . S
C3117 C3119 1.327 . S
C3117 C3123 1.429 . S
C3118 C3110 1.574 . S
C3118 H3113 0.949 . S
C3118 C3124 1.368 . S
C3119 C3103 1.349 . S
C3119 H3111 0.950 . S
C3119 C3117 1.327 . S
C3120 C3108 1.349 . S
C3120 H3114 0.950 . S
C3120 C3121 1.327 . S
C3121 H3115 0.950 . S
C3121 C3120 1.327 . S
C3121 C3125 1.429 . S
C3122 C3105 1.574 . S
C3122 H3116 0.949 . S
C3122 C3126 1.377 . S
C3123 C3104 1.429 . S
C3123 C3117 1.429 . S
C3123 C3124 1.523 . S
C3124 C3105 1.368 . S
C3124 C3118 1.368 . S
C3124 C3123 1.523 . S
C3125 C3109 1.429 . S
C3125 C3121 1.429 . S
C3125 C3126 1.508 1_554 S
C3126 C3110 1.371 . S
C3126 C3122 1.377 . S
C3126 C3125 1.508 1_556 S
H3127 C3102 0.950 . S
H3128 C3104 0.950 . S
H3129 C3105 0.949 . S
H3130 C3107 0.950 . S
H3131 C3109 0.950 . S
C3132 C3133 1.349 . S
C3132 C3134 1.327 . S
C3132 H3157 0.950 . S
C3133 C3132 1.349 . S
C3133 C3149 1.349 . S
C3134 C3132 1.327 . S
C3134 C3153 1.429 . S
C3134 H3158 0.950 . S
C3135 C3152 1.574 . S
C3135 C3154 1.368 . S
C3135 H3159 0.949 . S
H3136 C3140 0.949 . S
C3137 C3138 1.349 . S
C3137 C3139 1.327 . S
C3137 H3160 0.950 . S
C3138 C3137 1.349 . S
C3138 C3150 1.349 . S
C3139 C3137 1.327 . S
C3139 C3155 1.429 . S
C3139 H3161 0.950 . S
C3140 H3136 0.949 . S
C3140 C3148 1.574 . S
C3140 C3156 1.368 . S
H3141 C3149 0.950 . S
H3142 C3147 0.950 . S
H3143 C3148 0.949 . S
H3144 C3150 0.950 . S
H3145 C3151 0.950 . S
H3146 C3152 0.949 . S
C3147 H3142 0.950 . S
C3147 C3149 1.327 . S
C3147 C3153 1.429 . S
C3148 C3140 1.574 . S
C3148 H3143 0.949 . S
C3148 C3154 1.368 . S
C3149 C3133 1.349 . S
C3149 H3141 0.950 . S
C3149 C3147 1.327 . S
C3150 C3138 1.349 . S
C3150 H3144 0.950 . S
C3150 C3151 1.327 . S
C3151 H3145 0.950 . S
C3151 C3150 1.327 . S
C3151 C3155 1.429 . S
C3152 C3135 1.574 . S
C3152 H3146 0.949 . S
C3152 C3156 1.368 . S
C3153 C3134 1.429 . S
C3153 C3147 1.429 . S
C3153 C3154 1.523 . S
C3154 C3135 1.368 . S
C3154 C3148 1.368 . S
C3154 C3153 1.523 . S
C3155 C3139 1.429 . S
C3155 C3151 1.429 . S
C3155 C3156 1.523 . S
C3156 C3140 1.368 . S
C3156 C3152 1.368 . S
C3156 C3155 1.523 . S
H3157 C3132 0.950 . S
H3158 C3134 0.950 . S
H3159 C3135 0.949 . S
H3160 C3137 0.950 . S
H3161 C3139 0.950 . S
C3162 C3163 1.349 . S
C3162 C3164 1.327 . S
C3162 H3187 0.950 . S
C3163 C3162 1.349 . S
C3163 C3179 1.349 . S
C3164 C3162 1.327 . S
C3164 C3183 1.429 . S
C3164 H3188 0.950 . S
C3165 C3182 1.574 . S
C3165 C3184 1.368 . S
C3165 H3189 0.949 . S
H3166 C3170 0.949 . S
C3167 C3168 1.349 . S
C3167 C3169 1.327 . S
C3167 H3190 0.950 . S
C3168 C3167 1.349 . S
C3168 C3180 1.349 . S
C3169 C3167 1.327 . S
C3169 C3185 1.429 . S
C3169 H3191 0.950 . S
C3170 H3166 0.949 . S
C3170 C3178 1.574 . S
C3170 C3186 1.368 . S
H3171 C3179 0.950 . S
H3172 C3177 0.950 . S
H3173 C3178 0.949 . S
H3174 C3180 0.950 . S
H3175 C3181 0.950 . S
H3176 C3182 0.949 . S
C3177 H3172 0.950 . S
C3177 C3179 1.327 . S
C3177 C3183 1.429 . S
C3178 C3170 1.574 . S
C3178 H3173 0.949 . S
C3178 C3184 1.368 . S
C3179 C3163 1.349 . S
C3179 H3171 0.950 . S
C3179 C3177 1.327 . S
C3180 C3168 1.349 . S
C3180 H3174 0.950 . S
C3180 C3181 1.327 . S
C3181 H3175 0.950 . S
C3181 C3180 1.327 . S
C3181 C3185 1.429 . S
C3182 C3165 1.574 . S
C3182 H3176 0.949 . S
C3182 C3186 1.368 . S
C3183 C3164 1.429 . S
C3183 C3177 1.429 . S
C3183 C3184 1.523 . S
C3184 C3165 1.368 . S
C3184 C3178 1.368 . S
C3184 C3183 1.523 . S
C3185 C3169 1.429 . S
C3185 C3181 1.429 . S
C3185 C3186 1.523 . S
C3186 C3170 1.368 . S
C3186 C3182 1.368 . S
C3186 C3185 1.523 . S
H3187 C3162 0.950 . S
H3188 C3164 0.950 . S
H3189 C3165 0.949 . S
H3190 C3167 0.950 . S
H3191 C3169 0.950 . S
C3192 C3193 1.349 . S
C3192 C3194 1.327 . S
C3192 H3217 0.950 . S
C3193 C3192 1.349 . S
C3193 C3209 1.349 . S
C3194 C3192 1.327 . S
C3194 C3213 1.429 . S
C3194 H3218 0.950 . S
C3195 C3212 1.574 . S
C3195 C3214 1.368 . S
C3195 H3219 0.949 . S
H3196 C3200 0.949 . S
C3197 C3198 1.349 . S
C3197 C3199 1.327 . S
C3197 H3220 0.950 . S
C3198 C3197 1.349 . S
C3198 C3210 1.349 . S
C3199 C3197 1.327 . S
C3199 C3215 1.429 . S
C3199 H3221 0.950 . S
C3200 H3196 0.949 . S
C3200 C3208 1.574 . S
C3200 C3216 1.368 . S
H3201 C3209 0.950 . S
H3202 C3207 0.950 . S
H3203 C3208 0.949 . S
H3204 C3210 0.950 . S
H3205 C3211 0.950 . S
H3206 C3212 0.949 . S
C3207 H3202 0.950 . S
C3207 C3209 1.327 . S
C3207 C3213 1.429 . S
C3208 C3200 1.574 . S
C3208 H3203 0.949 . S
C3208 C3214 1.368 . S
C3209 C3193 1.349 . S
C3209 H3201 0.950 . S
C3209 C3207 1.327 . S
C3210 C3198 1.349 . S
C3210 H3204 0.950 . S
C3210 C3211 1.327 . S
C3211 H3205 0.950 . S
C3211 C3210 1.327 . S
C3211 C3215 1.429 . S
C3212 C3195 1.574 . S
C3212 H3206 0.949 . S
C3212 C3216 1.368 . S
C3213 C3194 1.429 . S
C3213 C3207 1.429 . S
C3213 C3214 1.523 . S
C3214 C3195 1.368 . S
C3214 C3208 1.368 . S
C3214 C3213 1.523 . S
C3215 C3199 1.429 . S
C3215 C3211 1.429 . S
C3215 C3216 1.523 . S
C3216 C3200 1.368 . S
C3216 C3212 1.368 . S
C3216 C3215 1.523 . S
H3217 C3192 0.950 . S
H3218 C3194 0.950 . S
H3219 C3195 0.949 . S
H3220 C3197 0.950 . S
H3221 C3199 0.950 . S
C3222 C3223 1.349 . S
C3222 C3224 1.327 . S
C3222 H3247 0.950 . S
C3223 C3222 1.349 . S
C3223 C3239 1.349 . S
C3224 C3222 1.327 . S
C3224 C3243 1.429 . S
C3224 H3248 0.950 . S
C3225 C3242 1.574 . S
C3225 C3244 1.368 . S
C3225 H3249 0.949 . S
H3226 C3230 0.949 . S
C3227 C3228 1.349 . S
C3227 C3229 1.327 . S
C3227 H3250 0.950 . S
C3228 C3227 1.349 . S
C3228 C3240 1.349 . S
C3229 C3227 1.327 . S
C3229 C3245 1.429 . S
C3229 H3251 0.950 . S
C3230 H3226 0.949 . S
C3230 C3238 1.574 . S
C3230 C3246 1.368 . S
H3231 C3239 0.950 . S
H3232 C3237 0.950 . S
H3233 C3238 0.949 . S
H3234 C3240 0.950 . S
H3235 C3241 0.950 . S
H3236 C3242 0.949 1_556 S
C3237 H3232 0.950 . S
C3237 C3239 1.327 . S
C3237 C3243 1.429 . S
C3238 C3230 1.574 . S
C3238 H3233 0.949 . S
C3238 C3244 1.368 . S
C3239 C3223 1.349 . S
C3239 H3231 0.950 . S
C3239 C3237 1.327 . S
C3240 C3228 1.349 . S
C3240 H3234 0.950 . S
C3240 C3241 1.327 . S
C3241 H3235 0.950 . S
C3241 C3240 1.327 . S
C3241 C3245 1.429 . S
C3242 C3225 1.574 . S
C3242 H3236 0.949 1_554 S
C3242 C3246 1.368 . S
C3243 C3224 1.429 . S
C3243 C3237 1.429 . S
C3243 C3244 1.523 . S
C3244 C3225 1.368 . S
C3244 C3238 1.368 . S
C3244 C3243 1.523 . S
C3245 C3229 1.429 . S
C3245 C3241 1.429 . S
C3245 C3246 1.523 1_556 S
C3246 C3230 1.368 . S
C3246 C3242 1.368 . S
C3246 C3245 1.523 1_554 S
H3247 C3222 0.950 . S
H3248 C3224 0.950 . S
H3249 C3225 0.949 . S
H3250 C3227 0.950 . S
H3251 C3229 0.950 . S
C3252 C3253 1.349 . S
C3252 C3254 1.327 . S
C3252 H3277 0.950 . S
C3253 C3252 1.349 . S
C3253 C3269 1.349 . S
C3254 C3252 1.327 . S
C3254 C3273 1.429 . S
C3254 H3278 0.950 . S
C3255 C3272 1.574 . S
C3255 C3274 1.368 . S
C3255 H3279 0.949 . S
H3256 C3260 0.949 . S
C3257 C3258 1.349 . S
C3257 C3259 1.327 . S
C3257 H3280 0.950 . S
C3258 C3257 1.349 . S
C3258 C3270 1.349 . S
C3259 C3257 1.327 . S
C3259 C3275 1.429 . S
C3259 H3281 0.950 . S
C3260 H3256 0.949 . S
C3260 C3268 1.574 . S
C3260 C3276 1.368 . S
H3261 C3269 0.950 . S
H3262 C3267 0.950 . S
H3263 C3268 0.949 . S
H3264 C3270 0.950 . S
H3265 C3271 0.950 . S
H3266 C3272 0.949 . S
C3267 H3262 0.950 . S
C3267 C3269 1.327 . S
C3267 C3273 1.429 . S
C3268 C3260 1.574 . S
C3268 H3263 0.949 . S
C3268 C3274 1.368 . S
C3269 C3253 1.349 . S
C3269 H3261 0.950 . S
C3269 C3267 1.327 . S
C3270 C3258 1.349 . S
C3270 H3264 0.950 . S
C3270 C3271 1.327 . S
C3271 H3265 0.950 . S
C3271 C3270 1.327 . S
C3271 C3275 1.429 . S
C3272 C3255 1.574 . S
C3272 H3266 0.949 . S
C3272 C3276 1.368 . S
C3273 C3254 1.429 . S
C3273 C3267 1.429 . S
C3273 C3274 1.523 . S
C3274 C3255 1.368 . S
C3274 C3268 1.368 . S
C3274 C3273 1.523 . S
C3275 C3259 1.429 . S
C3275 C3271 1.429 . S
C3275 C3276 1.523 . S
C3276 C3260 1.368 . S
C3276 C3272 1.368 . S
C3276 C3275 1.523 . S
H3277 C3252 0.950 . S
H3278 C3254 0.950 . S
H3279 C3255 0.949 . S
H3280 C3257 0.950 . S
H3281 C3259 0.950 . S
C3282 C3283 1.349 . S
C3282 C3284 1.327 . S
C3282 H3307 0.950 . S
C3283 C3282 1.349 . S
C3283 C3299 1.349 . S
C3284 C3282 1.327 . S
C3284 C3303 1.429 . S
C3284 H3308 0.950 . S
C3285 C3302 1.574 . S
C3285 C3304 1.368 . S
C3285 H3309 0.949 . S
H3286 C3290 0.949 . S
C3287 C3288 1.349 . S
C3287 C3289 1.327 . S
C3287 H3310 0.950 . S
C3288 C3287 1.349 . S
C3288 C3300 1.349 . S
C3289 C3287 1.327 . S
C3289 C3305 1.429 . S
C3289 H3311 0.950 . S
C3290 H3286 0.949 . S
C3290 C3298 1.574 . S
C3290 C3306 1.368 . S
H3291 C3299 0.950 . S
H3292 C3297 0.950 . S
H3293 C3298 0.949 . S
H3294 C3300 0.950 . S
H3295 C3301 0.950 . S
H3296 C3302 0.949 . S
C3297 H3292 0.950 . S
C3297 C3299 1.327 . S
C3297 C3303 1.429 . S
C3298 C3290 1.574 . S
C3298 H3293 0.949 . S
C3298 C3304 1.368 . S
C3299 C3283 1.349 . S
C3299 H3291 0.950 . S
C3299 C3297 1.327 . S
C3300 C3288 1.349 . S
C3300 H3294 0.950 . S
C3300 C3301 1.327 . S
C3301 H3295 0.950 . S
C3301 C3300 1.327 . S
C3301 C3305 1.429 . S
C3302 C3285 1.574 . S
C3302 H3296 0.949 . S
C3302 C3306 1.368 . S
C3303 C3284 1.429 . S
C3303 C3297 1.429 . S
C3303 C3304 1.523 . S
C3304 C3285 1.368 . S
C3304 C3298 1.368 . S
C3304 C3303 1.523 . S
C3305 C3289 1.429 . S
C3305 C3301 1.429 . S
C3305 C3306 1.523 . S
C3306 C3290 1.368 . S
C3306 C3302 1.368 . S
C3306 C3305 1.523 . S
H3307 C3282 0.950 . S
H3308 C3284 0.950 . S
H3309 C3285 0.949 . S
H3310 C3287 0.950 . S
H3311 C3289 0.950 . S
C3312 C3313 1.349 . S
C3312 C3314 1.327 . S
C3312 H3337 0.950 . S
C3313 C3312 1.349 . S
C3313 C3329 1.349 . S
C3314 C3312 1.327 . S
C3314 C3333 1.429 . S
C3314 H3338 0.950 . S
C3315 C3332 1.574 . S
C3315 C3334 1.368 . S
C3315 H3339 0.949 . S
H3316 C3320 0.949 . S
C3317 C3318 1.349 . S
C3317 C3319 1.327 . S
C3317 H3340 0.950 . S
C3318 C3317 1.349 . S
C3318 C3330 1.349 . S
C3319 C3317 1.327 . S
C3319 C3335 1.429 . S
C3319 H3341 0.950 . S
C3320 H3316 0.949 . S
C3320 C3328 1.574 . S
C3320 C3336 1.368 . S
H3321 C3329 0.950 . S
H3322 C3327 0.950 . S
H3323 C3328 0.949 . S
H3324 C3330 0.950 . S
H3325 C3331 0.950 . S
H3326 C3332 0.949 . S
C3327 H3322 0.950 . S
C3327 C3329 1.327 . S
C3327 C3333 1.429 . S
C3328 C3320 1.574 . S
C3328 H3323 0.949 . S
C3328 C3334 1.368 . S
C3329 C3313 1.349 . S
C3329 H3321 0.950 . S
C3329 C3327 1.327 . S
C3330 C3318 1.349 . S
C3330 H3324 0.950 . S
C3330 C3331 1.327 . S
C3331 H3325 0.950 . S
C3331 C3330 1.327 . S
C3331 C3335 1.429 . S
C3332 C3315 1.574 . S
C3332 H3326 0.949 . S
C3332 C3336 1.368 . S
C3333 C3314 1.429 . S
C3333 C3327 1.429 . S
C3333 C3334 1.523 . S
C3334 C3315 1.368 . S
C3334 C3328 1.368 . S
C3334 C3333 1.523 . S
C3335 C3319 1.429 . S
C3335 C3331 1.429 . S
C3335 C3336 1.523 . S
C3336 C3320 1.368 . S
C3336 C3332 1.368 . S
C3336 C3335 1.523 . S
H3337 C3312 0.950 . S
H3338 C3314 0.950 . S
H3339 C3315 0.949 . S
H3340 C3317 0.950 . S
H3341 C3319 0.950 . S
C3342 C3343 1.349 . S
C3342 C3344 1.327 . S
C3342 H3367 0.950 . S
C3343 C3342 1.349 . S
C3343 C3359 1.349 . S
C3344 C3342 1.327 . S
C3344 C3363 1.429 . S
C3344 H3368 0.950 . S
C3345 C3362 1.574 . S
C3345 C3364 1.368 . S
C3345 H3369 0.949 . S
H3346 C3350 0.949 . S
C3347 C3348 1.349 . S
C3347 C3349 1.327 . S
C3347 H3370 0.950 . S
C3348 C3347 1.349 . S
C3348 C3360 1.349 . S
C3349 C3347 1.327 . S
C3349 C3365 1.429 . S
C3349 H3371 0.950 . S
C3350 H3346 0.949 . S
C3350 C3358 1.574 . S
C3350 C3366 1.368 . S
H3351 C3359 0.950 . S
H3352 C3357 0.950 . S
H3353 C3358 0.949 . S
H3354 C3360 0.950 . S
H3355 C3361 0.950 . S
H3356 C3362 0.949 . S
C3357 H3352 0.950 . S
C3357 C3359 1.327 . S
C3357 C3363 1.429 . S
C3358 C3350 1.574 . S
C3358 H3353 0.949 . S
C3358 C3364 1.368 . S
C3359 C3343 1.349 . S
C3359 H3351 0.950 . S
C3359 C3357 1.327 . S
C3360 C3348 1.349 . S
C3360 H3354 0.950 . S
C3360 C3361 1.327 . S
C3361 H3355 0.950 . S
C3361 C3360 1.327 . S
C3361 C3365 1.429 . S
C3362 C3345 1.574 . S
C3362 H3356 0.949 . S
C3362 C3366 1.368 . S
C3363 C3344 1.429 . S
C3363 C3357 1.429 . S
C3363 C3364 1.523 . S
C3364 C3345 1.368 . S
C3364 C3358 1.368 . S
C3364 C3363 1.523 . S
C3365 C3349 1.429 . S
C3365 C3361 1.429 . S
C3365 C3366 1.523 . S
C3366 C3350 1.368 . S
C3366 C3362 1.368 . S
C3366 C3365 1.523 . S
H3367 C3342 0.950 . S
H3368 C3344 0.950 . S
H3369 C3345 0.949 . S
H3370 C3347 0.950 . S
H3371 C3349 0.950 . S
C3372 C3373 1.349 . S
C3372 C3374 1.327 . S
C3372 H3397 0.950 . S
C3373 C3372 1.349 . S
C3373 C3389 1.349 . S
C3374 C3372 1.327 . S
C3374 C3393 1.429 . S
C3374 H3398 0.950 . S
C3375 C3392 1.574 . S
C3375 C3394 1.368 . S
C3375 H3399 0.949 . S
H3376 C3380 0.926 1_545 S
C3377 C3378 1.349 . S
C3377 C3379 1.327 . S
C3377 H3400 0.950 . S
C3378 C3377 1.349 . S
C3378 C3390 1.349 . S
C3379 C3377 1.327 . S
C3379 C3395 1.429 . S
C3379 H3401 0.950 . S
C3380 H3376 0.926 1_565 S
C3380 C3388 1.574 . S
C3380 C3396 1.368 1_565 S
H3381 C3389 0.950 . S
H3382 C3387 0.950 . S
H3383 C3388 0.949 . S
H3384 C3390 0.950 . S
H3385 C3391 0.950 . S
H3386 C3392 0.949 1_545 S
C3387 H3382 0.950 . S
C3387 C3389 1.327 . S
C3387 C3393 1.429 . S
C3388 C3380 1.574 . S
C3388 H3383 0.949 . S
C3388 C3394 1.368 . S
C3389 C3373 1.349 . S
C3389 H3381 0.950 . S
C3389 C3387 1.327 . S
C3390 C3378 1.349 . S
C3390 H3384 0.950 . S
C3390 C3391 1.327 . S
C3391 H3385 0.950 . S
C3391 C3390 1.327 . S
C3391 C3395 1.429 . S
C3392 C3375 1.574 . S
C3392 H3386 0.949 1_565 S
C3392 C3396 1.368 1_565 S
C3393 C3374 1.429 . S
C3393 C3387 1.429 . S
C3393 C3394 1.523 . S
C3394 C3375 1.368 . S
C3394 C3388 1.368 . S
C3394 C3393 1.523 . S
C3395 C3379 1.429 . S
C3395 C3391 1.429 . S
C3395 C3396 1.523 . S
C3396 C3380 1.368 1_545 S
C3396 C3392 1.368 1_545 S
C3396 C3395 1.523 . S
H3397 C3372 0.950 . S
H3398 C3374 0.950 . S
H3399 C3375 0.949 . S
H3400 C3377 0.950 . S
H3401 C3379 0.950 . S
C3402 C3403 1.349 . S
C3402 C3404 1.327 . S
C3402 H3427 0.950 . S
C3403 C3402 1.349 . S
C3403 C3419 1.349 . S
C3404 C3402 1.327 . S
C3404 C3423 1.429 . S
C3404 H3428 0.950 . S
C3405 C3422 1.574 . S
C3405 C3424 1.368 . S
C3405 H3429 0.949 . S
H3406 C3410 0.949 . S
C3407 C3408 1.349 . S
C3407 C3409 1.327 . S
C3407 H3430 0.950 . S
C3408 C3407 1.349 . S
C3408 C3420 1.349 . S
C3409 C3407 1.327 . S
C3409 C3425 1.429 . S
C3409 H3431 0.950 . S
C3410 H3406 0.949 . S
C3410 C3418 1.574 . S
C3410 C3426 1.368 . S
H3411 C3419 0.950 . S
H3412 C3417 0.950 . S
H3413 C3418 0.949 . S
H3414 C3420 0.950 . S
H3415 C3421 0.950 . S
H3416 C3422 0.949 . S
C3417 H3412 0.950 . S
C3417 C3419 1.327 . S
C3417 C3423 1.429 . S
C3418 C3410 1.574 . S
C3418 H3413 0.949 . S
C3418 C3424 1.368 . S
C3419 C3403 1.349 . S
C3419 H3411 0.950 . S
C3419 C3417 1.327 . S
C3420 C3408 1.349 . S
C3420 H3414 0.950 . S
C3420 C3421 1.327 . S
C3421 H3415 0.950 . S
C3421 C3420 1.327 . S
C3421 C3425 1.429 . S
C3422 C3405 1.574 . S
C3422 H3416 0.949 . S
C3422 C3426 1.368 . S
C3423 C3404 1.429 . S
C3423 C3417 1.429 . S
C3423 C3424 1.523 . S
C3424 C3405 1.368 . S
C3424 C3418 1.368 . S
C3424 C3423 1.523 . S
C3425 C3409 1.429 . S
C3425 C3421 1.429 . S
C3425 C3426 1.523 . S
C3426 C3410 1.368 . S
C3426 C3422 1.368 . S
C3426 C3425 1.523 . S
H3427 C3402 0.950 . S
H3428 C3404 0.950 . S
H3429 C3405 0.949 . S
H3430 C3407 0.950 . S
H3431 C3409 0.950 . S
C3432 C3433 1.349 . S
C3432 C3434 1.327 . S
C3432 H3457 0.950 . S
C3433 C3432 1.349 . S
C3433 C3449 1.349 . S
C3434 C3432 1.327 . S
C3434 C3453 1.429 . S
C3434 H3458 0.950 . S
C3435 C3452 1.574 . S
C3435 C3454 1.368 . S
C3435 H3459 0.949 . S
H3436 C3440 0.949 . S
C3437 C3438 1.349 . S
C3437 C3439 1.327 . S
C3437 H3460 0.950 . S
C3438 C3437 1.349 . S
C3438 C3450 1.349 . S
C3439 C3437 1.327 . S
C3439 C3455 1.429 . S
C3439 H3461 0.950 . S
C3440 H3436 0.949 . S
C3440 C3448 1.574 . S
C3440 C3456 1.368 . S
H3441 C3449 0.950 . S
H3442 C3447 0.950 . S
H3443 C3448 0.949 . S
H3444 C3450 0.950 . S
H3445 C3451 0.950 . S
H3446 C3452 0.949 . S
C3447 H3442 0.950 . S
C3447 C3449 1.327 . S
C3447 C3453 1.429 . S
C3448 C3440 1.574 . S
C3448 H3443 0.949 . S
C3448 C3454 1.368 . S
C3449 C3433 1.349 . S
C3449 H3441 0.950 . S
C3449 C3447 1.327 . S
C3450 C3438 1.349 . S
C3450 H3444 0.950 . S
C3450 C3451 1.327 . S
C3451 H3445 0.950 . S
C3451 C3450 1.327 . S
C3451 C3455 1.429 . S
C3452 C3435 1.574 . S
C3452 H3446 0.949 . S
C3452 C3456 1.368 . S
C3453 C3434 1.429 . S
C3453 C3447 1.429 . S
C3453 C3454 1.523 . S
C3454 C3435 1.368 . S
C3454 C3448 1.368 . S
C3454 C3453 1.523 . S
C3455 C3439 1.429 . S
C3455 C3451 1.429 . S
C3455 C3456 1.523 . S
C3456 C3440 1.368 . S
C3456 C3452 1.368 . S
C3456 C3455 1.523 . S
H3457 C3432 0.950 . S
H3458 C3434 0.950 . S
H3459 C3435 0.949 . S
H3460 C3437 0.950 . S
H3461 C3439 0.950 . S
C3462 C3463 1.349 . S
C3462 C3464 1.327 . S
C3462 H3487 0.950 . S
C3463 C3462 1.349 . S
C3463 C3479 1.349 . S
C3464 C3462 1.327 . S
C3464 C3483 1.429 . S
C3464 H3488 0.950 . S
C3465 C3482 1.574 . S
C3465 C3484 1.368 . S
C3465 H3489 0.949 . S
H3466 C3470 0.949 . S
C3467 C3468 1.349 . S
C3467 C3469 1.327 . S
C3467 H3490 0.950 . S
C3468 C3467 1.349 . S
C3468 C3480 1.349 . S
C3469 C3467 1.327 . S
C3469 C3485 1.429 . S
C3469 H3491 0.950 . S
C3470 H3466 0.949 . S
C3470 C3478 1.574 . S
C3470 C3486 1.368 . S
H3471 C3479 0.950 . S
H3472 C3477 0.950 . S
H3473 C3478 0.949 . S
H3474 C3480 0.950 . S
H3475 C3481 0.950 . S
H3476 C3482 0.949 . S
C3477 H3472 0.950 . S
C3477 C3479 1.327 . S
C3477 C3483 1.429 . S
C3478 C3470 1.574 . S
C3478 H3473 0.949 . S
C3478 C3484 1.368 . S
C3479 C3463 1.349 . S
C3479 H3471 0.950 . S
C3479 C3477 1.327 . S
C3480 C3468 1.349 . S
C3480 H3474 0.950 . S
C3480 C3481 1.327 . S
C3481 H3475 0.950 . S
C3481 C3480 1.327 . S
C3481 C3485 1.429 . S
C3482 C3465 1.574 . S
C3482 H3476 0.949 . S
C3482 C3486 1.368 . S
C3483 C3464 1.429 . S
C3483 C3477 1.429 . S
C3483 C3484 1.523 . S
C3484 C3465 1.368 . S
C3484 C3478 1.368 . S
C3484 C3483 1.523 . S
C3485 C3469 1.429 . S
C3485 C3481 1.429 . S
C3485 C3486 1.523 . S
C3486 C3470 1.368 . S
C3486 C3482 1.368 . S
C3486 C3485 1.523 . S
H3487 C3462 0.950 . S
H3488 C3464 0.950 . S
H3489 C3465 0.949 . S
H3490 C3467 0.950 . S
H3491 C3469 0.950 . S
C3492 C3493 1.349 . S
C3492 C3494 1.327 . S
C3492 H3517 0.950 . S
C3493 C3492 1.349 . S
C3493 C3509 1.349 . S
C3494 C3492 1.327 . S
C3494 C3513 1.429 . S
C3494 H3518 0.950 . S
C3495 C3512 1.574 . S
C3495 C3514 1.380 . S
C3495 H3519 0.949 1_545 S
H3496 C3500 0.949 . S
C3497 C3498 1.349 . S
C3497 C3499 1.327 . S
C3497 H3520 0.950 . S
C3498 C3497 1.349 . S
C3498 C3510 1.349 . S
C3499 C3497 1.327 . S
C3499 C3515 1.429 . S
C3499 H3521 0.950 . S
C3500 H3496 0.949 . S
C3500 C3508 1.574 . S
C3500 C3516 1.368 . S
H3501 C3509 0.950 . S
H3502 C3507 0.950 . S
H3503 C3508 0.949 . S
H3504 C3510 0.950 . S
H3505 C3511 0.950 . S
H3506 C3512 0.949 . S
C3507 H3502 0.950 . S
C3507 C3509 1.327 . S
C3507 C3513 1.429 . S
C3508 C3500 1.574 . S
C3508 H3503 0.949 . S
C3508 C3514 1.398 . S
C3509 C3493 1.349 . S
C3509 H3501 0.950 . S
C3509 C3507 1.327 . S
C3510 C3498 1.349 . S
C3510 H3504 0.950 . S
C3510 C3511 1.327 . S
C3511 H3505 0.950 . S
C3511 C3510 1.327 . S
C3511 C3515 1.429 . S
C3512 C3495 1.574 . S
C3512 H3506 0.949 . S
C3512 C3516 1.368 . S
C3513 C3494 1.429 . S
C3513 C3507 1.429 . S
C3513 C3514 1.472 1_565 S
C3514 C3495 1.380 . S
C3514 C3508 1.398 . S
C3514 C3513 1.472 1_545 S
C3515 C3499 1.429 . S
C3515 C3511 1.429 . S
C3515 C3516 1.523 . S
C3516 C3500 1.368 . S
C3516 C3512 1.368 . S
C3516 C3515 1.523 . S
H3517 C3492 0.950 . S
H3518 C3494 0.950 . S
H3519 C3495 0.949 1_565 S
H3520 C3497 0.950 . S
H3521 C3499 0.950 . S
C3522 C3523 1.349 . S
C3522 C3524 1.327 . S
C3522 H3547 0.950 . S
C3523 C3522 1.349 . S
C3523 C3539 1.349 . S
C3524 C3522 1.327 . S
C3524 C3543 1.429 . S
C3524 H3548 0.950 . S
C3525 C3542 1.574 . S
C3525 C3544 1.368 . S
C3525 H3549 0.949 . S
H3526 C3530 0.949 1_545 S
C3527 C3528 1.349 . S
C3527 C3529 1.327 . S
C3527 H3550 0.950 . S
C3528 C3527 1.349 . S
C3528 C3540 1.349 . S
C3529 C3527 1.327 . S
C3529 C3545 1.429 . S
C3529 H3551 0.950 . S
C3530 H3526 0.949 1_565 S
C3530 C3538 1.574 . S
C3530 C3546 1.368 1_565 S
H3531 C3539 0.950 . S
H3532 C3537 0.950 . S
H3533 C3538 0.949 . S
H3534 C3540 0.950 . S
H3535 C3541 0.950 . S
H3536 C3542 0.949 1_545 S
C3537 H3532 0.950 . S
C3537 C3539 1.327 . S
C3537 C3543 1.429 . S
C3538 C3530 1.574 . S
C3538 H3533 0.949 . S
C3538 C3544 1.368 . S
C3539 C3523 1.349 . S
C3539 H3531 0.950 . S
C3539 C3537 1.327 . S
C3540 C3528 1.349 . S
C3540 H3534 0.950 . S
C3540 C3541 1.327 . S
C3541 H3535 0.950 . S
C3541 C3540 1.327 . S
C3541 C3545 1.429 . S
C3542 C3525 1.574 . S
C3542 H3536 0.949 1_565 S
C3542 C3546 1.368 1_565 S
C3543 C3524 1.429 . S
C3543 C3537 1.429 . S
C3543 C3544 1.523 . S
C3544 C3525 1.368 . S
C3544 C3538 1.368 . S
C3544 C3543 1.523 . S
C3545 C3529 1.429 . S
C3545 C3541 1.429 . S
C3545 C3546 1.523 . S
C3546 C3530 1.368 1_545 S
C3546 C3542 1.368 1_545 S
C3546 C3545 1.523 . S
H3547 C3522 0.950 . S
H3548 C3524 0.950 . S
H3549 C3525 0.949 . S
H3550 C3527 0.950 . S
H3551 C3529 0.950 . S
C673 C588 1.276 . S
C678 C11 1.278 . S
C703 C23 1.358 . S
C708 C219 1.335 . S
C733 C39 1.305 . S
C738 C560 1.304 . S
C763 C51 1.335 . S
C768 C247 1.310 . S
C793 C625 1.333 . S
C798 C61 1.357 . S
C823 C70 1.341 . S
C828 C294 1.342 . S
C853 C89 1.364 . S
C858 C653 1.339 . S
C883 C98 1.324 . S
C888 C266 1.324 . S
C913 C42 1.351 . S
C918 C658 1.351 . S
C943 C5 1.365 . S
C948 C350 1.354 . S
C973 C373 1.321 . S
C978 C14 1.335 . S
C1003 C33 1.351 . S
C1008 C336 1.340 . S
C1033 C79 1.304 . S
C1038 C345 1.282 . S
C1063 C95 1.290 . S
C1068 C667 1.273 . S
C1093 C107 1.327 . S
C1098 C359 1.309 . S
C1123 C67 1.289 . S
C1128 C364 1.284 . S
C1153 C546 1.301 . S
C1158 C112 1.299 . S
C1183 C126 1.370 . S
C1188 C275 1.352 . S
C1213 C121 1.309 . S
C1218 C616 1.304 . S
C1243 C303 1.317 . S
C1248 C140 1.331 . S
C1273 C308 1.336 . S
C1278 C154 1.334 . S
C1303 C574 1.302 . S
C1308 C177 1.311 . S
C1333 C597 1.293 . S
C1338 C182 1.309 . S
C1363 C569 1.294 . S
C1368 C205 1.315 . S
C1393 C473 1.356 . S
C1398 C221 1.349 . S
C1423 C229 1.312 . S
C1428 C9 1.295 . S
C1453 C249 1.308 . S
C1458 C445 1.316 . S
C1483 C37 1.321 . S
C1488 C257 1.338 . S
C1513 C271 1.376 . S
C1518 C495 1.369 . S
C1543 C84 1.256 . S
C1548 C291 1.253 . S
C1573 C299 1.358 . S
C1578 C523 1.351 . S
C1603 C56 1.274 . S
C1608 C319 1.271 . S
C1633 C543 1.253 . S
C1638 C263 1.248 . S
C1663 C215 1.405 . S
C1668 C145 1.399 . S
C1693 C159 1.321 . S
C1698 C235 1.318 . S
C1723 C131 1.442 . S
C1728 C243 1.449 . S
C1753 C137 1.354 . S
C1758 C285 1.357 . S
C1783 C305 1.306 . S
C1788 C537 1.308 . S
C1813 C151 1.309 . S
C1818 C313 1.311 . S
C1843 C277 1.247 . S
C1848 C165 1.251 . S
C1873 C333 1.246 . S
C1878 C420 1.248 . S
C1903 C341 1.296 . S
C1908 C65 1.275 . S
C1933 C327 1.291 . S
C1938 C501 1.288 . S
C1963 C355 1.339 . S
C1968 C93 1.319 . S
C1993 C375 1.256 . S
C1998 C109 1.261 . S
C2023 C448 1.330 . S
C2028 C383 1.336 . S
C2053 C397 1.401 . S
C2058 C467 1.393 . S
C2083 C417 1.334 . S
C2088 C439 1.336 . S
C2113 C431 1.281 . S
C2118 C252 1.279 . S
C2143 C443 1.349 . S
C2148 C555 1.325 . S
C2173 C224 1.331 . S
C2178 C459 1.333 . S
C2203 C471 1.330 . S
C2208 C583 1.307 . S
C2233 C481 1.333 . S
C2238 C289 1.308 . S
C2263 C630 1.301 . S
C2268 C490 1.299 . S
C2293 C509 1.362 . S
C2298 C317 1.339 . S
C2323 C602 1.333 . S
C2328 C518 1.333 . S
C2353 C322 1.348 . S
C2358 C462 1.350 . S
C2383 C406 1.349 . S
C2388 C425 1.358 . S
C2413 C434 1.334 . S
C2418 C387 1.322 . S
C2443 C401 1.357 . S
C2448 C453 1.386 . S
C2473 C499 1.309 . S
C2478 C392 1.302 . S
C2503 C331 1.281 . S
C2508 C515 1.298 . S
C2533 C527 1.322 . S
C2538 C415 1.305 . S
C2563 C487 1.265 . S
C2568 C378 1.261 . S
C2593 C532 1.319 . S
C2598 C210 1.320 . S
C2623 C191 1.359 . S
C2628 C611 1.331 . S
C2653 C280 1.317 . S
C2658 C541 1.324 . S
C2683 C639 1.294 . S
C2688 C196 1.307 . S
C2713 C644 1.334 . S
C2718 C168 1.333 . S
C2743 C163 1.306 . S
C2748 C238 1.299 . S
C2773 C135 1.347 . S
C2778 C261 1.322 . S
C2803 C233 1.302 . S
C2808 C149 1.324 . S
C2833 C557 1.316 . S
C2838 C53 1.323 . S
C2863 C429 1.312 . S
C2868 C565 1.329 . S
C2893 C585 1.286 . S
C2898 C25 1.295 . S
C2923 C593 1.306 . S
C2928 C457 1.288 . S
C2953 C75 1.358 . S
C2958 C607 1.365 . S
C2983 C627 1.298 . S
C2988 C504 1.301 . S
C3013 C635 1.364 . S
C3018 C103 1.357 . S
C3043 C476 1.239 . S
C3048 C655 1.237 . S
C3073 C599 1.206 . S
C3078 C123 1.209 . S
C3103 C201 1.395 . S
C3108 C551 1.401 . S
C3133 C173 1.325 . S
C3138 C571 1.322 . S
C3163 C579 1.366 . S
C3168 C193 1.364 . S
C3193 C621 1.418 . S
C3198 C187 1.410 . S
C3223 C117 1.300 . S
C3228 C641 1.297 . S
C3253 C207 1.303 . S
C3258 C649 1.306 . S
C3283 C613 1.303 . S
C3288 C179 1.307 . S
C3313 C0 1.241 . S
C3318 C669 1.239 . S
C3343 C403 1.229 . S
C3348 C485 1.219 . S
C3373 C81 1.314 . S
C3378 C663 1.317 . S
C3403 C513 1.333 . S
C3408 C411 1.354 . S
C3433 C529 1.252 . S
C3438 C389 1.247 . S
C3463 C369 1.314 . S
C3468 C28 1.306 . S
C3493 C347 1.297 . S
C3498 C47 1.299 . S
C3523 C19 1.342 . S
C3528 C361 1.338 . S
