# Generated by pormake.
# Topology bcs, (6)-cn, num edge types: 1
# Building blocks:
#     Node 0, Type 0, BuildingBlock: CUWYAW_clean_sbu_0, # of connection points: 6
#     Node 1, Type 0, BuildingBlock: CUWYAW_clean_sbu_0, # of connection points: 6
#     Node 2, Type 0, BuildingBlock: CUWYAW_clean_sbu_0, # of connection points: 6
#     Node 3, Type 0, BuildingBlock: CUWYAW_clean_sbu_0, # of connection points: 6
#     Node 4, Type 0, BuildingBlock: CUWYAW_clean_sbu_0, # of connection points: 6
#     Node 5, Type 0, BuildingBlock: CUWYAW_clean_sbu_0, # of connection points: 6
#     Node 6, Type 0, BuildingBlock: CUWYAW_clean_sbu_0, # of connection points: 6
#     Node 7, Type 0, BuildingBlock: CUWYAW_clean_sbu_0, # of connection points: 6
#     Node 8, Type 0, BuildingBlock: CUWYAW_clean_sbu_0, # of connection points: 6
#     Node 9, Type 0, BuildingBlock: CUWYAW_clean_sbu_0, # of connection points: 6
#     Node 10, Type 0, BuildingBlock: CUWYAW_clean_sbu_0, # of connection points: 6
#     Node 11, Type 0, BuildingBlock: CUWYAW_clean_sbu_0, # of connection points: 6
#     Node 12, Type 0, BuildingBlock: CUWYAW_clean_sbu_0, # of connection points: 6
#     Node 13, Type 0, BuildingBlock: CUWYAW_clean_sbu_0, # of connection points: 6
#     Node 14, Type 0, BuildingBlock: CUWYAW_clean_sbu_0, # of connection points: 6
#     Node 15, Type 0, BuildingBlock: CUWYAW_clean_sbu_0, # of connection points: 6
#     Edge 16, Type (0, 0), BuildingBlock: UVAHIK_clean_linker_0, # of connection points: 2
#     Edge 17, Type (0, 0), BuildingBlock: UVAHIK_clean_linker_0, # of connection points: 2
#     Edge 18, Type (0, 0), BuildingBlock: UVAHIK_clean_linker_0, # of connection points: 2
#     Edge 19, Type (0, 0), BuildingBlock: UVAHIK_clean_linker_0, # of connection points: 2
#     Edge 20, Type (0, 0), BuildingBlock: UVAHIK_clean_linker_0, # of connection points: 2
#     Edge 21, Type (0, 0), BuildingBlock: UVAHIK_clean_linker_0, # of connection points: 2
#     Edge 22, Type (0, 0), BuildingBlock: UVAHIK_clean_linker_0, # of connection points: 2
#     Edge 23, Type (0, 0), BuildingBlock: UVAHIK_clean_linker_0, # of connection points: 2
#     Edge 24, Type (0, 0), BuildingBlock: UVAHIK_clean_linker_0, # of connection points: 2
#     Edge 25, Type (0, 0), BuildingBlock: UVAHIK_clean_linker_0, # of connection points: 2
#     Edge 26, Type (0, 0), BuildingBlock: UVAHIK_clean_linker_0, # of connection points: 2
#     Edge 27, Type (0, 0), BuildingBlock: UVAHIK_clean_linker_0, # of connection points: 2
#     Edge 28, Type (0, 0), BuildingBlock: UVAHIK_clean_linker_0, # of connection points: 2
#     Edge 29, Type (0, 0), BuildingBlock: UVAHIK_clean_linker_0, # of connection points: 2
#     Edge 30, Type (0, 0), BuildingBlock: UVAHIK_clean_linker_0, # of connection points: 2
#     Edge 31, Type (0, 0), BuildingBlock: UVAHIK_clean_linker_0, # of connection points: 2
#     Edge 32, Type (0, 0), BuildingBlock: UVAHIK_clean_linker_0, # of connection points: 2
#     Edge 33, Type (0, 0), BuildingBlock: UVAHIK_clean_linker_0, # of connection points: 2
#     Edge 34, Type (0, 0), BuildingBlock: UVAHIK_clean_linker_0, # of connection points: 2
#     Edge 35, Type (0, 0), BuildingBlock: UVAHIK_clean_linker_0, # of connection points: 2
#     Edge 36, Type (0, 0), BuildingBlock: UVAHIK_clean_linker_0, # of connection points: 2
#     Edge 37, Type (0, 0), BuildingBlock: UVAHIK_clean_linker_0, # of connection points: 2
#     Edge 38, Type (0, 0), BuildingBlock: UVAHIK_clean_linker_0, # of connection points: 2
#     Edge 39, Type (0, 0), BuildingBlock: UVAHIK_clean_linker_0, # of connection points: 2
#     Edge 40, Type (0, 0), BuildingBlock: UVAHIK_clean_linker_0, # of connection points: 2
#     Edge 41, Type (0, 0), BuildingBlock: UVAHIK_clean_linker_0, # of connection points: 2
#     Edge 42, Type (0, 0), BuildingBlock: UVAHIK_clean_linker_0, # of connection points: 2
#     Edge 43, Type (0, 0), BuildingBlock: UVAHIK_clean_linker_0, # of connection points: 2
#     Edge 44, Type (0, 0), BuildingBlock: UVAHIK_clean_linker_0, # of connection points: 2
#     Edge 45, Type (0, 0), BuildingBlock: UVAHIK_clean_linker_0, # of connection points: 2
#     Edge 46, Type (0, 0), BuildingBlock: UVAHIK_clean_linker_0, # of connection points: 2
#     Edge 47, Type (0, 0), BuildingBlock: UVAHIK_clean_linker_0, # of connection points: 2
#     Edge 48, Type (0, 0), BuildingBlock: UVAHIK_clean_linker_0, # of connection points: 2
#     Edge 49, Type (0, 0), BuildingBlock: UVAHIK_clean_linker_0, # of connection points: 2
#     Edge 50, Type (0, 0), BuildingBlock: UVAHIK_clean_linker_0, # of connection points: 2
#     Edge 51, Type (0, 0), BuildingBlock: UVAHIK_clean_linker_0, # of connection points: 2
#     Edge 52, Type (0, 0), BuildingBlock: UVAHIK_clean_linker_0, # of connection points: 2
#     Edge 53, Type (0, 0), BuildingBlock: UVAHIK_clean_linker_0, # of connection points: 2
#     Edge 54, Type (0, 0), BuildingBlock: UVAHIK_clean_linker_0, # of connection points: 2
#     Edge 55, Type (0, 0), BuildingBlock: UVAHIK_clean_linker_0, # of connection points: 2
#     Edge 56, Type (0, 0), BuildingBlock: UVAHIK_clean_linker_0, # of connection points: 2
#     Edge 57, Type (0, 0), BuildingBlock: UVAHIK_clean_linker_0, # of connection points: 2
#     Edge 58, Type (0, 0), BuildingBlock: UVAHIK_clean_linker_0, # of connection points: 2
#     Edge 59, Type (0, 0), BuildingBlock: UVAHIK_clean_linker_0, # of connection points: 2
#     Edge 60, Type (0, 0), BuildingBlock: UVAHIK_clean_linker_0, # of connection points: 2
#     Edge 61, Type (0, 0), BuildingBlock: UVAHIK_clean_linker_0, # of connection points: 2
#     Edge 62, Type (0, 0), BuildingBlock: UVAHIK_clean_linker_0, # of connection points: 2
#     Edge 63, Type (0, 0), BuildingBlock: UVAHIK_clean_linker_0, # of connection points: 2
# Relax obj value: 0.203
# Max RMSD: 0.213
# Mean RMSD: 0.158
data_MOF--net-bcs--node1-CUWYAW_clean_sbu_0--edge1-UVAHIK_clean_linker_0
_symmetry_space_group_name_H-M    P1
_symmetry_Int_Tables_number       1
_symmetry_cell_setting            triclinic
loop_
_symmetry_equiv_pos_as_xyz
'x, y, z'
_cell_length_a     52.695347
_cell_length_b     51.954804
_cell_length_c     48.960757
_cell_angle_alpha  82.654648
_cell_angle_beta   109.69335
_cell_angle_gamma 105.03837
loop_
_atom_site_label
_atom_site_type_symbol
_atom_site_fract_x
_atom_site_fract_y
_atom_site_fract_z
_atom_type_partial_charge
C0 C 1.02585 0.06974 0.06212 0.0
Eu1 Eu 0.04678 0.04406 0.03306 0.0
C2 C 1.01109 0.08372 0.07717 0.0
C3 C 1.02528 0.102 0.09973 0.0
C4 C 1.01109 0.11509 0.11236 0.0
C5 C 0.98156 0.11095 0.10339 0.0
C6 C 0.96757 0.09248 0.08087 0.0
C7 C 0.98173 0.07949 0.0683 0.0
C8 C 0.0798 0.06614 0.99329 0.0
C9 C 1.00407 0.04539 0.96463 0.0
C10 C 0.06153 0.97327 0.95895 0.0
Eu11 Eu 1.0411 0.99889 0.98851 0.0
C12 C 0.07594 0.95926 0.94357 0.0
C13 C 0.06141 0.94104 0.92101 0.0
C14 C 0.07528 0.92784 0.90811 0.0
C15 C 0.10476 0.93181 0.91681 0.0
C16 C 0.11909 0.95023 0.93932 0.0
C17 C 0.10526 0.96333 0.95216 0.0
C18 C 1.00846 0.97642 0.02846 0.0
C19 C 0.08369 0.99739 0.05688 0.0
O20 O 1.01143 0.05307 0.04149 0.0
O21 O 0.05271 0.07204 0.06807 0.0
O22 O 0.07931 0.07725 0.01578 0.0
O23 O 0.06327 0.04281 0.99514 0.0
O24 O 1.01267 0.05234 0.99198 0.0
O25 O 1.01313 0.02627 0.95693 0.0
O26 O 0.0762 0.98997 0.9795 0.0
O27 O 1.03471 0.97099 0.95331 0.0
O28 O 1.00998 0.96509 1.00667 0.0
O29 O 1.02415 1.00018 0.02626 0.0
O30 O 0.07557 0.99099 0.02939 0.0
O31 O 0.07429 1.01623 0.06469 0.0
H32 H 0.0477 0.1065 0.10766 0.0
H33 H 1.02372 0.12891 0.12914 0.0
H34 H 0.9452 0.08754 0.0727 0.0
H35 H 0.96927 0.06588 0.05119 0.0
H36 H 1.03899 0.93667 0.91332 0.0
H37 H 0.06243 0.91405 0.89136 0.0
H38 H 0.14147 0.95504 0.94726 0.0
H39 H 0.11794 0.97688 0.96925 0.0
C40 C 0.3548 0.82344 0.23734 0.0
Eu41 Eu 0.31616 0.78571 0.24917 0.0
C42 C 0.3573 0.85145 0.22665 0.0
C43 C 0.33457 0.85978 0.20628 0.0
C44 C 0.33778 0.8856 0.19378 0.0
C45 C 0.36386 0.90353 0.20127 0.0
C46 C 0.38625 0.89561 0.22291 0.0
C47 C 0.38296 0.86973 0.23548 0.0
C48 C 0.28511 0.74368 0.21609 0.0
C49 C 0.2581 0.80803 0.22946 0.0
C50 C 0.22381 0.71843 0.27197 0.0
Eu51 Eu 0.2684 0.75216 0.26784 0.0
C52 C 0.21855 0.69281 0.28811 0.0
C53 C 0.1956 0.68554 0.29806 0.0
C54 C 0.19013 0.66095 0.31283 0.0
C55 C 0.20743 0.64307 0.31772 0.0
C56 C 0.23058 0.65059 0.30786 0.0
C57 C 0.23616 0.67527 0.29332 0.0
C58 C 0.30816 0.78321 0.30931 0.0
C59 C 0.32649 0.73137 0.28879 0.0
O60 O 0.35312 0.818 0.26362 0.0
O61 O 0.33761 0.80577 0.21883 0.0
O62 O 0.31193 0.75037 0.22329 0.0
O63 O 0.27646 0.75943 0.2262 0.0
O64 O 0.28385 0.81168 0.22855 0.0
O65 O 0.24759 0.78661 0.24383 0.0
O66 O 0.23459 0.71827 0.2515 0.0
O67 O 0.23515 0.73977 0.28736 0.0
O68 O 0.29512 0.7593 0.31482 0.0
O69 O 0.29871 0.78981 0.28287 0.0
O70 O 0.29887 0.72395 0.2809 0.0
O71 O 0.33844 0.75631 0.28241 0.0
H72 H 0.31458 0.84598 0.19911 0.0
H73 H 0.3201 0.89121 0.1774 0.0
H74 H 0.40668 0.90886 0.22891 0.0
H75 H 0.40072 0.86366 0.25123 0.0
H76 H 0.18191 0.69888 0.2944 0.0
H77 H 0.17249 0.65612 0.32073 0.0
H78 H 0.24423 0.6373 0.31103 0.0
H79 H 0.25412 0.68053 0.28591 0.0
C80 C 0.55837 1.00546 0.44107 0.0
Eu81 Eu 0.55058 1.01617 0.48729 0.0
C82 C 0.58151 0.99605 0.43869 0.0
C83 C 0.60894 1.00771 0.4548 0.0
C84 C 0.63029 0.99536 0.45767 0.0
C85 C 0.62455 0.97103 0.44476 0.0
C86 C 0.59736 0.96006 0.42747 0.0
C87 C 0.576 0.97253 0.42441 0.0
C88 C 0.58879 0.04964 0.5275 0.0
C89 C 0.57534 0.98264 0.54745 0.0
C90 C 0.52699 0.03996 0.5819 0.0
Eu91 Eu 0.53336 0.02182 0.53831 0.0
C92 C 0.52754 0.0666 0.58928 0.0
C93 C 0.51985 0.08607 0.56749 0.0
C94 C 0.5216 0.1117 0.57487 0.0
C95 C 0.53133 0.11828 0.60415 0.0
C96 C 0.53963 0.09887 0.62584 0.0
C97 C 0.53774 0.07323 0.61843 0.0
C98 C 0.50459 0.97735 0.50807 0.0
C99 C 0.50809 0.05572 0.4774 0.0
O100 O 0.54275 0.98828 0.45426 0.0
O101 O 0.56422 0.02989 0.44953 0.0
O102 O 0.59506 0.03376 0.51376 0.0
O103 O 0.56312 0.04798 0.51857 0.0
O104 O 0.5672 0.98269 0.5186 0.0
O105 O 0.56775 0.99912 0.56018 0.0
O106 O 0.55082 0.03696 0.5817 0.0
O107 O 0.50608 0.02915 0.55993 0.0
O108 O 0.51099 0.97771 0.53607 0.0
O109 O 0.51203 1.00036 0.49782 0.0
O110 O 0.51019 0.05058 0.50531 0.0
O111 O 0.52149 0.04445 0.46537 0.0
H112 H 0.61377 0.02565 0.46644 0.0
H113 H 0.65103 1.00416 0.47123 0.0
H114 H 0.59251 0.94148 0.41693 0.0
H115 H 0.55497 0.96309 0.41214 0.0
H116 H 0.51245 0.08151 0.5448 0.0
H117 H 0.51517 0.1263 0.55774 0.0
H118 H 0.54676 0.10323 0.64861 0.0
H119 H 0.54415 0.05854 0.63548 0.0
C120 C 0.2673 0.33382 0.76667 0.0
Eu121 Eu 0.28293 0.29195 0.76124 0.0
C122 C 0.24532 0.33534 0.77813 0.0
C123 C 0.21938 0.3172 0.76958 0.0
C124 C 0.20042 0.31518 0.78433 0.0
C125 C 0.20721 0.33098 0.80809 0.0
C126 C 0.23273 0.34978 0.81598 0.0
C127 C 0.25161 0.35199 0.80103 0.0
C128 C 0.25044 0.25383 0.72372 0.0
C129 C 0.26093 0.23762 0.80062 0.0
C130 C 0.32526 0.20909 0.75896 0.0
Eu131 Eu 0.30904 0.25088 0.76357 0.0
C132 C 0.34736 0.20735 0.74777 0.0
C133 C 0.36846 0.19493 0.76496 0.0
C134 C 0.3917 0.19667 0.75653 0.0
C135 C 0.39417 0.21082 0.73069 0.0
C136 C 0.3726 0.2226 0.71314 0.0
C137 C 0.34951 0.221 0.72164 0.0
C138 C 0.34164 0.28895 0.80116 0.0
C139 C 0.33043 0.30511 0.72364 0.0
O140 O 0.2884 0.32614 0.78589 0.0
O141 O 0.25931 0.32218 0.74203 0.0
O142 O 0.24168 0.26483 0.73997 0.0
O143 O 0.27589 0.26363 0.72745 0.0
O144 O 0.25985 0.26313 0.7923 0.0
O145 O 0.27835 0.22845 0.79141 0.0
O146 O 0.3035 0.21596 0.74 0.0
O147 O 0.3338 0.22158 0.78309 0.0
O148 O 0.35023 0.27804 0.78468 0.0
O149 O 0.31615 0.27918 0.79743 0.0
O150 O 0.33143 0.27955 0.73183 0.0
O151 O 0.31335 0.31438 0.73323 0.0
H152 H 0.21414 0.30373 0.75233 0.0
H153 H 0.18096 0.30043 0.77795 0.0
H154 H 0.23825 0.36242 0.83404 0.0
H155 H 0.27162 0.36586 0.80817 0.0
H156 H 0.3674 0.18468 0.7854 0.0
H157 H 0.40807 0.18756 0.77066 0.0
H158 H 0.37357 0.23317 0.69282 0.0
H159 H 0.3337 0.23106 0.70805 0.0
C160 C 0.13159 0.0288 0.53518 0.0
Eu161 Eu 0.07814 1.01592 0.51547 0.0
C162 C 0.14925 0.05147 0.52379 0.0
C163 C 0.14578 0.0539 0.49389 0.0
C164 C 0.15566 0.07824 0.48121 0.0
C165 C 0.16939 0.10055 0.49812 0.0
C166 C 0.17494 0.09787 0.52829 0.0
C167 C 0.16481 0.0734 0.54109 0.0
C168 C 1.04352 0.97231 0.48699 0.0
C169 C 0.0495 0.04177 0.45408 0.0
C170 C 0.96295 1.00291 0.47924 0.0
Eu171 Eu 1.0166 1.01391 0.49982 0.0
C172 C 0.94224 0.98472 0.49121 0.0
C173 C 0.93997 0.98985 0.51767 0.0
C174 C 0.92476 0.97031 0.53197 0.0
C175 C 0.91135 0.94519 0.52014 0.0
C176 C 0.91217 0.94061 0.49281 0.0
C177 C 0.92744 0.96025 0.47842 0.0
C178 C 0.05145 0.05702 0.52911 0.0
C179 C 0.0455 0.99064 0.56243 0.0
O180 O 0.11607 0.03563 0.54767 0.0
O181 O 0.11793 1.00909 0.51778 0.0
O182 O 0.0671 0.9839 0.48313 0.0
O183 O 1.04026 0.98314 0.50673 0.0
O184 O 0.07296 0.04341 0.47564 0.0
O185 O 1.02565 0.02829 0.45745 0.0
O186 O 0.97817 0.99128 0.47087 0.0
O187 O 0.97753 0.02432 0.49364 0.0
O188 O 1.02789 0.0453 0.533 0.0
O189 O 0.05448 0.04652 0.50902 0.0
O190 O 1.02162 0.98889 0.54142 0.0
O191 O 0.0694 1.00218 0.55798 0.0
H192 H 0.13375 0.03758 0.47979 0.0
H193 H 0.15144 0.07997 0.45788 0.0
H194 H 0.1856 0.11498 0.54161 0.0
H195 H 0.16743 0.07212 0.5641 0.0
H196 H 0.95114 1.00843 0.52824 0.0
H197 H 0.92493 0.97443 0.55318 0.0
H198 H 0.9018 0.92155 0.48301 0.0
H199 H 0.92884 0.9558 0.45802 0.0
C200 C 0.33786 0.74165 0.83513 0.0
Eu201 Eu 0.30258 0.75656 0.7882 0.0
C202 C 0.35879 0.72644 0.8389 0.0
C203 C 0.38259 0.72973 0.86323 0.0
C204 C 0.40437 0.71838 0.86459 0.0
C205 C 0.40306 0.70422 0.84117 0.0
C206 C 0.37854 0.70038 0.81729 0.0
C207 C 0.35658 0.71103 0.8164 0.0
C208 C 0.25515 0.72625 0.75503 0.0
C209 C 0.3229 0.74596 0.73172 0.0
C210 C 0.24321 0.79661 0.68443 0.0
Eu211 Eu 0.27912 0.78126 0.73011 0.0
C212 C 0.22344 0.81258 0.68287 0.0
C213 C 0.23107 0.83324 0.70204 0.0
C214 C 0.21108 0.84487 0.70487 0.0
C215 C 0.18301 0.83589 0.68885 0.0
C216 C 0.1756 0.8159 0.66883 0.0
C217 C 0.19566 0.80432 0.66593 0.0
C218 C 0.32605 0.81169 0.76411 0.0
C219 C 0.25908 0.79261 0.78641 0.0
O220 O 0.34261 0.76512 0.822 0.0
O221 O 0.31197 0.72857 0.82531 0.0
O222 O 0.26095 0.72763 0.78287 0.0
O223 O 0.27496 0.73966 0.74662 0.0
O224 O 0.32755 0.74561 0.7605 0.0
O225 O 0.30293 0.75744 0.71426 0.0
O226 O 0.23841 0.7731 0.69747 0.0
O227 O 0.26952 0.80881 0.6926 0.0
O228 O 0.3211 0.81025 0.7364 0.0
O229 O 0.30593 0.79808 0.77177 0.0
O230 O 0.25471 0.79338 0.75766 0.0
O231 O 0.27861 0.78054 0.80379 0.0
H232 H 0.3846 0.74153 0.88088 0.0
H233 H 0.42223 0.72101 0.88397 0.0
H234 H 0.37634 0.6899 0.79863 0.0
H235 H 0.33819 0.70793 0.79756 0.0
H236 H 0.25229 0.83958 0.71588 0.0
H237 H 0.2175 0.86004 0.72064 0.0
H238 H 0.15424 0.80898 0.65563 0.0
H239 H 0.18932 0.78817 0.65132 0.0
C240 C 0.54111 0.10347 0.97967 0.0
Eu241 Eu 0.54406 0.0541 0.99122 0.0
C242 C 0.52988 0.11947 0.9934 0.0
C243 C 0.50865 0.13174 0.97617 0.0
C244 C 0.49282 0.14095 0.98896 0.0
C245 C 0.49808 0.13802 0.01918 0.0
C246 C 0.52077 0.12764 0.03652 0.0
C247 C 0.53643 0.11832 0.02376 0.0
C248 C 0.51735 1.01272 0.9563 0.0
C249 C 0.50167 0.02623 0.02775 0.0
C250 C 0.55256 0.95165 0.0375 0.0
Eu251 Eu 0.54674 0.99995 0.02217 0.0
C252 C 0.5665 0.93614 0.02641 0.0
C253 C 0.5919 0.93094 0.04433 0.0
C254 C 0.6092 0.92321 0.03236 0.0
C255 C 0.60125 0.92031 1.00227 0.0
C256 C 0.57474 0.92313 0.9848 0.0
C257 C 0.55755 0.93105 0.99671 0.0
C258 C 0.57283 0.04221 0.05611 0.0
C259 C 0.58689 0.02614 0.98249 0.0
O260 O 0.56387 0.09638 0.99591 0.0
O261 O 0.52259 0.08381 0.96494 0.0
O262 O 0.52991 0.03564 0.94769 0.0
O263 O 0.51755 1.01333 0.98207 0.0
O264 O 0.51642 0.04874 0.01965 0.0
O265 O 0.50681 1.00294 0.02665 0.0
O266 O 0.52965 0.95704 0.0194 0.0
O267 O 0.56903 0.9724 0.05193 0.0
O268 O 0.55881 1.02008 0.06455 0.0
O269 O 0.57337 0.04061 0.03087 0.0
O270 O 0.5741 1.00422 0.99375 0.0
O271 O 0.58137 0.04953 0.98223 0.0
H272 H 0.5031 0.13255 0.95271 0.0
H273 H 0.4754 0.14875 0.97502 0.0
H274 H 0.52567 0.12564 0.05991 0.0
H275 H 0.55255 0.10877 0.03765 0.0
H276 H 0.59926 0.93477 0.06727 0.0
H277 H 0.62953 0.92125 0.04641 0.0
H278 H 0.56776 0.92037 0.96165 0.0
H279 H 0.53803 0.93475 0.98225 0.0
C280 C 0.31127 0.30656 0.34257 0.0
Eu281 Eu 0.30177 0.28871 0.29194 0.0
C282 C 0.29717 0.32034 0.35507 0.0
C283 C 0.3084 0.32655 0.38435 0.0
C284 C 0.29457 0.33895 0.39667 0.0
C285 C 0.26927 0.34522 0.37982 0.0
C286 C 0.25835 0.33927 0.35029 0.0
C287 C 0.27224 0.32695 0.33801 0.0
C288 C 0.33267 0.30515 0.25638 0.0
C289 C 0.25788 0.30855 0.23377 0.0
C290 C 0.27415 0.23772 0.1893 0.0
Eu291 Eu 0.28381 0.25501 0.24027 0.0
C292 C 0.28913 0.22714 0.17436 0.0
C293 C 0.28292 0.19966 0.17017 0.0
C294 C 0.29773 0.18946 0.15694 0.0
C295 C 0.31905 0.2066 0.14785 0.0
C296 C 0.32472 0.23412 0.15128 0.0
C297 C 0.30972 0.24432 0.16412 0.0
C298 C 0.25215 0.23984 0.27553 0.0
C299 C 0.32843 0.23566 0.298 0.0
O300 O 0.29847 0.28199 0.33552 0.0
O301 O 0.32136 0.32028 0.32272 0.0
O302 O 0.32685 0.32118 0.27039 0.0
O303 O 0.32372 0.28112 0.26324 0.0
O304 O 0.26818 0.30995 0.26252 0.0
O305 O 0.263 0.29034 0.2208 0.0
O306 O 0.2833 0.26292 0.19552 0.0
O307 O 0.26702 0.2226 0.21028 0.0
O308 O 0.25745 0.22314 0.26186 0.0
O309 O 0.26191 0.2634 0.26829 0.0
O310 O 0.3178 0.23421 0.26929 0.0
O311 O 0.32331 0.25374 0.31118 0.0
H312 H 0.32773 0.32163 0.39772 0.0
H313 H 0.30363 0.34357 0.41939 0.0
H314 H 0.23872 0.34349 0.33685 0.0
H315 H 0.26336 0.32228 0.3153 0.0
H316 H 0.26682 0.18601 0.17741 0.0
H317 H 0.29298 0.16815 0.15445 0.0
H318 H 0.34072 0.24779 0.14391 0.0
H319 H 0.31443 0.26567 0.16616 0.0
C320 C 0.63272 0.53382 0.04922 0.0
Eu321 Eu 0.57914 0.52072 0.0325 0.0
C322 C 0.64961 0.55346 0.034 0.0
C323 C 0.64277 0.55267 1.00373 0.0
C324 C 0.65234 0.57487 0.98771 0.0
C325 C 0.66912 0.5982 1.0016 0.0
C326 C 0.67793 0.59843 0.03201 0.0
C327 C 0.66806 0.57618 0.04816 0.0
C328 C 0.54519 0.47997 0.9987 0.0
C329 C 0.55887 0.55442 0.97128 0.0
C330 C 0.46496 0.51234 0.98767 0.0
Eu331 Eu 0.51869 0.52396 1.00567 0.0
C332 C 0.44576 0.4946 1.00176 0.0
C333 C 0.44776 0.49892 0.03022 0.0
C334 C 0.43432 0.47925 0.04602 0.0
C335 C 0.41856 0.45479 0.03377 0.0
C336 C 0.41524 0.45104 1.00473 0.0
C337 C 0.4287 0.47084 0.98882 0.0
C338 C 0.55249 0.56531 0.03844 0.0
C339 C 0.53895 0.48844 0.06595 0.0
O340 O 0.61806 0.54408 0.05989 0.0
O341 O 0.61837 0.51181 0.03585 0.0
O342 O 0.56495 0.47656 0.02241 0.0
O343 O 0.54528 0.50432 0.99366 0.0
O344 O 0.57902 0.55285 0.99592 0.0
O345 O 0.53306 0.54132 0.96786 0.0
O346 O 0.47961 0.50026 0.97902 0.0
O347 O 0.47983 0.53444 1.00058 0.0
O348 O 0.53255 0.56807 0.01471 0.0
O349 O 0.55271 0.54101 0.04434 0.0
O350 O 0.51881 0.4914 0.04166 0.0
O351 O 0.56488 0.50145 0.06988 0.0
H352 H 0.62838 0.53565 0.99204 0.0
H353 H 0.6456 0.57422 0.96426 0.0
H354 H 0.69097 0.6163 0.04306 0.0
H355 H 0.67329 0.57737 0.07141 0.0
H356 H 0.46098 0.51684 0.04102 0.0
H357 H 0.43771 0.48267 0.06847 0.0
H358 H 0.403 0.43249 0.99465 0.0
H359 H 0.427 0.46699 0.96696 0.0
C360 C 0.84818 0.25914 0.33956 0.0
Eu361 Eu 0.81174 0.26566 0.28984 0.0
C362 C 0.86955 0.244 0.34518 0.0
C363 C 0.86519 0.22386 0.32645 0.0
C364 C 0.88646 0.21184 0.32834 0.0
C365 C 0.91262 0.21943 0.34927 0.0
C366 C 0.91683 0.23929 0.36848 0.0
C367 C 0.89546 0.25161 0.36632 0.0
C368 C 0.76694 0.22853 0.26241 0.0
C369 C 0.82561 0.24864 0.23385 0.0
C370 C 0.74064 0.28664 0.18093 0.0
Eu371 Eu 0.77812 0.28324 0.23065 0.0
C372 C 0.71478 0.29524 0.17547 0.0
C373 C 0.71504 0.31693 0.19007 0.0
C374 C 0.69034 0.3228 0.18876 0.0
C375 C 0.66472 0.30701 0.17305 0.0
C376 C 0.66441 0.28561 0.1579 0.0
C377 C 0.6893 0.2797 0.15922 0.0
C378 C 0.82312 0.32057 0.25733 0.0
C379 C 0.76396 0.29999 0.28646 0.0
O380 O 0.85132 0.28055 0.32266 0.0
O381 O 0.82256 0.24499 0.33231 0.0
O382 O 0.79046 0.22306 0.27775 0.0
O383 O 0.76797 0.25293 0.26319 0.0
O384 O 0.83348 0.25054 0.26263 0.0
O385 O 0.80411 0.25888 0.21729 0.0
O386 O 0.74185 0.26418 0.19622 0.0
O387 O 0.76372 0.30496 0.18942 0.0
O388 O 0.79999 0.32626 0.24105 0.0
O389 O 0.82186 0.29603 0.25736 0.0
O390 O 0.75578 0.29766 0.25771 0.0
O391 O 0.7859 0.29036 0.30302 0.0
H392 H 0.8455 0.21792 0.30964 0.0
H393 H 0.88253 0.19708 0.31277 0.0
H394 H 0.93662 0.24538 0.3851 0.0
H395 H 0.89932 0.26742 0.38067 0.0
H396 H 0.73434 0.32901 0.20323 0.0
H397 H 0.69137 0.33981 0.20013 0.0
H398 H 0.64498 0.27307 0.14564 0.0
H399 H 0.68863 0.26253 0.14833 0.0
C400 C 0.04431 0.60188 0.49104 0.0
Eu401 Eu 1.04109 0.551 0.49817 0.0
C402 C 1.03011 0.6176 0.50165 0.0
C403 C 1.00408 0.62166 0.48407 0.0
C404 C 0.987 0.62958 0.49618 0.0
C405 C 0.99578 0.63392 0.52602 0.0
C406 C 1.02288 0.63248 0.54296 0.0
C407 C 1.03992 0.62443 0.53089 0.0
C408 C 1.01299 0.51385 0.45815 0.0
C409 C 0.99138 0.52483 0.52623 0.0
C410 C 1.03025 0.44247 0.52947 0.0
Eu411 Eu 1.03336 0.49334 0.52224 0.0
C412 C 0.04466 0.42664 0.5193 0.0
C413 C 0.06965 0.42104 0.53798 0.0
C414 C 0.08703 0.41234 0.52693 0.0
C415 C 0.0796 0.40883 0.49703 0.0
C416 C 0.0535 0.41212 0.4788 0.0
C417 C 1.03617 0.42091 0.4898 0.0
C418 C 0.06147 0.53066 0.56212 0.0
C419 C 0.08347 0.51978 0.4947 0.0
O420 O 0.06307 0.59149 0.51098 0.0
O421 O 1.02818 0.58495 0.47118 0.0
O422 O 1.03015 0.53552 0.45336 0.0
O423 O 1.01052 0.51354 0.48289 0.0
O424 O 1.00943 0.54661 0.52175 0.0
O425 O 0.99395 0.50075 0.52364 0.0
O426 O 1.01162 0.45285 0.50929 0.0
O427 O 0.04619 0.45942 0.54938 0.0
O428 O 0.04431 0.50905 0.56706 0.0
O429 O 0.06386 0.53071 0.53741 0.0
O430 O 0.06551 0.49789 0.49913 0.0
O431 O 0.08057 0.54377 0.49708 0.0
H432 H 0.99605 0.61684 0.46139 0.0
H433 H 0.96624 0.63052 0.48251 0.0
H434 H 1.03048 0.63641 0.56586 0.0
H435 H 0.06005 0.62193 0.54499 0.0
H436 H 0.07664 0.42506 0.56083 0.0
H437 H 0.10701 0.40998 0.54155 0.0
H438 H 0.04693 0.4089 0.45577 0.0
H439 H 1.01687 0.42467 0.47482 0.0
C440 C 0.79416 0.84028 0.2905 0.0
Eu441 Eu 0.78812 0.79513 0.26871 0.0
C442 C 0.79439 0.84747 0.3185 0.0
C443 C 0.79265 0.87316 0.32203 0.0
C444 C 0.79144 0.87961 0.3483 0.0
C445 C 0.79231 0.86051 0.37163 0.0
C446 C 0.79517 0.83504 0.36819 0.0
C447 C 0.79577 0.82849 0.34171 0.0
C448 C 0.74876 0.77205 0.22135 0.0
C449 C 0.75953 0.73788 0.30012 0.0
C450 C 0.79472 0.70434 0.23053 0.0
Eu451 Eu 0.79929 0.74809 0.2539 0.0
C452 C 0.79833 0.70122 0.20286 0.0
C453 C 0.80336 0.67762 0.19718 0.0
C454 C 0.81037 0.67639 0.17233 0.0
C455 C 0.8124 0.69878 0.15293 0.0
C456 C 0.80588 0.72185 0.15807 0.0
C457 C 0.7992 0.72311 0.18294 0.0
C458 C 0.839 0.77183 0.30055 0.0
C459 C 0.82813 0.80537 0.22275 0.0
O460 O 0.81491 0.83042 0.29149 0.0
O461 O 0.77037 0.82697 0.27404 0.0
O462 O 0.7433 0.78257 0.24075 0.0
O463 O 0.77458 0.77563 0.22698 0.0
O464 O 0.76493 0.76479 0.2988 0.0
O465 O 0.77054 0.72721 0.28415 0.0
O466 O 0.77344 0.71393 0.22832 0.0
O467 O 0.8173 0.71589 0.25024 0.0
O468 O 0.8442 0.76154 0.28079 0.0
O469 O 0.81322 0.76786 0.29557 0.0
O470 O 0.82221 0.77849 0.22363 0.0
O471 O 0.81755 0.81602 0.23913 0.0
H472 H 0.79145 0.88798 0.30421 0.0
H473 H 0.78858 0.89922 0.34977 0.0
H474 H 0.79621 0.81992 0.38568 0.0
H475 H 0.7967 0.80843 0.33912 0.0
H476 H 0.803 0.66063 0.2125 0.0
H477 H 0.81569 0.65844 0.1692 0.0
H478 H 0.80702 0.73931 0.14345 0.0
H479 H 0.79583 0.74161 0.18721 0.0
C480 C 0.85821 0.32932 0.74737 0.0
Eu481 Eu 0.81934 0.28915 0.75458 0.0
C482 C 0.85844 0.35484 0.73063 0.0
C483 C 0.83496 0.35867 0.70765 0.0
C484 C 0.83544 0.38294 0.69163 0.0
C485 C 0.85941 0.40378 0.69835 0.0
C486 C 0.88261 0.40005 0.72196 0.0
C487 C 0.88209 0.37576 0.73798 0.0
C488 C 0.78563 0.2518 0.71669 0.0
C489 C 0.75974 0.31029 0.73308 0.0
C490 C 0.73271 0.2159 0.78015 0.0
Eu491 Eu 0.77082 0.256 0.7715 0.0
C492 C 0.73304 0.19046 0.79738 0.0
C493 C 0.72039 0.185 0.81912 0.0
C494 C 0.72107 0.16145 0.83627 0.0
C495 C 0.73425 0.14274 0.83189 0.0
C496 C 0.74678 0.14805 0.80998 0.0
C497 C 0.74636 0.17181 0.79297 0.0
C498 C 0.80433 0.29364 0.80908 0.0
C499 C 0.83005 0.2344 0.79234 0.0
O500 O 0.84827 0.32686 0.76895 0.0
O501 O 0.84935 0.30787 0.73225 0.0
O502 O 0.81239 0.25797 0.72257 0.0
O503 O 0.77819 0.26645 0.72962 0.0
O504 O 0.78703 0.31602 0.73741 0.0
O505 O 0.74765 0.28657 0.7423 0.0
O506 O 0.74138 0.21852 0.75761 0.0
O507 O 0.7416 0.23754 0.79496 0.0
O508 O 0.77753 0.28766 0.80274 0.0
O509 O 0.81195 0.27876 0.79655 0.0
O510 O 0.80286 0.22897 0.78839 0.0
O511 O 0.84225 0.25803 0.78304 0.0
H512 H 0.81639 0.34278 0.70185 0.0
H513 H 0.81717 0.38529 0.67374 0.0
H514 H 0.90153 0.41556 0.72743 0.0
H515 H 0.9003 0.37316 0.75582 0.0
H516 H 0.70997 0.19901 0.82288 0.0
H517 H 0.71076 0.15762 0.85265 0.0
H518 H 0.75704 0.13393 0.80618 0.0
H519 H 0.7565 0.17556 0.77648 0.0
C520 C 0.81339 0.80568 0.83785 0.0
Eu521 Eu 0.80089 0.78592 0.78747 0.0
C522 C 0.80205 0.82214 0.85059 0.0
C523 C 0.81648 0.83112 0.87863 0.0
C524 C 0.80551 0.84636 0.89126 0.0
C525 C 0.77995 0.85279 0.87594 0.0
C526 C 0.76583 0.8441 0.84755 0.0
C527 C 0.77682 0.82887 0.83496 0.0
C528 C 0.82983 0.80181 0.74994 0.0
C529 C 0.75573 0.80492 0.73007 0.0
C530 C 0.76933 0.73112 0.6868 0.0
Eu531 Eu 0.78161 0.75131 0.7369 0.0
C532 C 0.78217 0.71582 0.67448 0.0
C533 C 0.76854 0.70618 0.6466 0.0
C534 C 0.78117 0.69229 0.63438 0.0
C535 C 0.8076 0.6879 0.64996 0.0
C536 C 0.8209 0.69719 0.67819 0.0
C537 C 0.80826 0.71104 0.69037 0.0
C538 C 0.75231 0.73624 0.77438 0.0
C539 C 0.82702 0.73255 0.79401 0.0
O540 O 0.7981 0.78172 0.83122 0.0
O541 O 0.82391 0.81757 0.81761 0.0
O542 O 0.82381 0.81805 0.7635 0.0
O543 O 0.82179 0.7779 0.75791 0.0
O544 O 0.76667 0.80674 0.75875 0.0
O545 O 0.7606 0.78652 0.71713 0.0
O546 O 0.78299 0.75573 0.69261 0.0
O547 O 0.75983 0.71878 0.70759 0.0
O548 O 0.75827 0.71958 0.7613 0.0
O549 O 0.76066 0.75986 0.76599 0.0
O550 O 0.81622 0.73095 0.76534 0.0
O551 O 0.82185 0.75065 0.80707 0.0
H552 H 0.8361 0.82616 0.89083 0.0
H553 H 0.81695 0.853 0.91306 0.0
H554 H 0.74591 0.84841 0.83539 0.0
H555 H 0.76549 0.82205 0.81321 0.0
H556 H 0.7483 0.70964 0.63419 0.0
H557 H 0.77035 0.68515 0.61269 0.0
H558 H 0.84144 0.69448 0.69055 0.0
H559 H 0.81901 0.7184 0.71198 0.0
C560 C 0.52665 0.56944 0.56254 0.0
Eu561 Eu 0.54789 0.54408 0.53356 0.0
C562 C 0.51177 0.58319 0.57764 0.0
C563 C 0.52587 0.60212 0.59954 0.0
C564 C 0.51154 0.61507 0.61214 0.0
C565 C 0.48198 0.6101 0.60378 0.0
C566 C 0.4681 0.59096 0.58194 0.0
C567 C 0.48239 0.57813 0.56939 0.0
C568 C 0.58023 0.56561 0.49334 0.0
C569 C 0.50502 0.54655 0.4647 0.0
C570 C 0.56187 0.47346 0.45919 0.0
Eu571 Eu 0.54046 0.49877 0.48807 0.0
C572 C 0.5761 0.46019 0.4429 0.0
C573 C 0.56469 0.43435 0.43144 0.0
C574 C 0.57917 0.42151 0.41895 0.0
C575 C 0.60595 0.43376 0.41648 0.0
C576 C 0.61706 0.45981 0.42756 0.0
C577 C 0.60285 0.47236 0.44056 0.0
C578 C 0.50824 0.47709 0.52844 0.0
C579 C 0.5829 0.49598 0.557 0.0
O580 O 0.51235 0.55226 0.54237 0.0
O581 O 0.55358 0.57237 0.56813 0.0
O582 O 0.5805 0.57689 0.5161 0.0
O583 O 0.56341 0.54245 0.49522 0.0
O584 O 0.51516 0.55414 0.49194 0.0
O585 O 0.51201 0.52599 0.45692 0.0
O586 O 0.57606 0.49231 0.47751 0.0
O587 O 0.53505 0.46905 0.45524 0.0
O588 O 0.508 0.46595 0.5056 0.0
O589 O 0.52494 0.50035 0.52656 0.0
O590 O 0.57295 0.48845 0.52974 0.0
O591 O 0.57594 0.51658 0.56471 0.0
H592 H 0.5483 0.60728 0.60695 0.0
H593 H 0.52407 0.62945 0.62838 0.0
H594 H 0.44573 0.58537 0.57429 0.0
H595 H 0.47002 0.56398 0.5528 0.0
H596 H 0.54454 0.42356 0.43268 0.0
H597 H 0.56901 0.40176 0.41093 0.0
H598 H 0.6374 0.47057 0.4269 0.0
H599 H 0.61317 0.49195 0.44905 0.0
C600 C 1.04057 0.49029 0.93844 0.0
Eu601 Eu 0.04772 0.5118 0.98633 0.0
C602 C 1.04156 0.46375 0.93253 0.0
C603 C 1.04128 0.45851 0.90512 0.0
C604 C 0.04445 0.43379 0.90029 0.0
C605 C 0.0477 0.41385 0.92279 0.0
C606 C 0.04665 0.41893 0.94986 0.0
C607 C 1.044 0.44379 0.95477 0.0
C608 C 0.08784 0.55272 0.01384 0.0
C609 C 0.07857 0.4854 0.04845 0.0
C610 C 1.03905 0.54837 0.08407 0.0
Eu611 Eu 1.03907 0.52832 0.03841 0.0
C612 C 1.02075 0.5652 0.08435 0.0
C613 C 0.99535 0.56308 0.06201 0.0
C614 C 0.97892 0.58084 0.05941 0.0
C615 C 0.98751 0.60112 0.07914 0.0
C616 C 1.01297 0.60327 0.10163 0.0
C617 C 1.02956 0.58539 0.10417 0.0
C618 C 0.9991 0.48775 1.0096 0.0
C619 C 1.00854 0.55582 0.97654 0.0
O620 O 1.02015 0.49094 0.94765 0.0
O621 O 0.06426 0.50509 0.95333 0.0
O622 O 0.09261 0.53456 1.00159 0.0
O623 O 0.06222 0.54951 1.00916 0.0
O624 O 0.06778 0.48195 0.02005 0.0
O625 O 0.07287 0.50431 0.05991 0.0
O626 O 0.05673 0.55926 0.07013 0.0
O627 O 1.02667 0.52364 0.07726 0.0
O628 O 0.99386 0.50684 0.01993 0.0
O629 O 1.02481 0.49063 0.01562 0.0
O630 O 1.016 0.55652 1.00521 0.0
O631 O 1.0174 0.5396 0.96465 0.0
H632 H 1.03954 0.47382 0.88778 0.0
H633 H 0.04572 0.43086 0.87933 0.0
H634 H 0.04876 0.40401 0.96757 0.0
H635 H 0.04467 0.44768 0.97619 0.0
H636 H 0.98842 0.54804 0.04602 0.0
H637 H 0.95971 0.57899 0.04153 0.0
H638 H 1.01996 0.61866 0.11724 0.0
H639 H 0.04938 0.5876 0.12119 0.0
C640 C 0.21646 0.22347 0.82083 0.0
C641 C 0.24219 0.21919 0.82016 0.0
C642 C 0.19941 0.20687 0.83786 0.0
C643 C 0.1987 0.15407 0.90495 0.0
H644 H 0.11874 0.14029 0.87621 0.0
C645 C 0.12529 0.09845 0.98295 0.0
C646 C 0.09859 0.08044 0.9722 0.0
C647 C 0.14197 0.11367 0.96498 0.0
C648 C 0.14103 0.14352 0.88538 0.0
H649 H 0.26808 0.1913 0.84049 0.0
H650 H 0.24024 0.16432 0.8703 0.0
H651 H 0.14686 0.16811 0.84713 0.0
H652 H 0.07 0.06769 0.93009 0.0
H653 H 0.09759 0.09425 0.89957 0.0
H654 H 0.19294 0.13049 0.94373 0.0
C655 C 0.23252 0.18058 0.85679 0.0
C656 C 0.15782 0.16018 0.86808 0.0
C657 C 0.2491 0.19663 0.83899 0.0
C658 C 0.09011 0.08 0.94101 0.0
C659 C 0.10645 0.09603 0.92284 0.0
C660 C 0.18196 0.1382 0.92267 0.0
C661 C 0.20652 0.18457 0.8571 0.0
C662 C 0.18767 0.16626 0.8767 0.0
C663 C 0.13346 0.11373 0.93381 0.0
C664 C 0.15211 0.13173 0.91386 0.0
H665 H 0.20891 0.23991 0.80753 0.0
H666 H 0.18033 0.21211 0.83615 0.0
H667 H 0.22098 0.15716 0.91407 0.0
H668 H 0.13378 0.10099 1.00613 0.0
H669 H 0.16183 0.12629 0.97602 0.0
C670 C 0.10735 0.97663 0.10832 0.0
C671 C 0.10383 0.98136 0.07825 0.0
C672 C 0.12408 0.95901 0.12599 0.0
C673 C 0.17901 0.92193 0.12575 0.0
H674 H 0.1619 0.88057 0.19144 0.0
C675 C 0.2513 0.85173 0.19876 0.0
C676 C 0.24056 0.82849 0.21363 0.0
C677 C 0.23521 0.87047 0.18375 0.0
C678 C 0.16716 0.89166 0.17308 0.0
H679 H 0.11654 0.97042 0.04435 0.0
H680 H 0.14463 0.94084 0.07408 0.0
H681 H 0.13409 0.91212 0.164 0.0
H682 H 0.20319 0.80788 0.22366 0.0
H683 H 0.17538 0.83994 0.19772 0.0
H684 H 0.21162 0.90136 0.13424 0.0
C685 C 0.13496 0.95069 0.08464 0.0
C686 C 0.1511 0.91033 0.15727 0.0
C687 C 0.11831 0.96793 0.06717 0.0
C688 C 0.21275 0.82523 0.21278 0.0
C689 C 0.1966 0.84403 0.19778 0.0
C690 C 0.19506 0.90343 0.14155 0.0
C691 C 0.13836 0.94544 0.11457 0.0
C692 C 0.15639 0.92592 0.13292 0.0
C693 C 0.20727 0.86723 0.18262 0.0
C694 C 0.18966 0.88758 0.16568 0.0
H695 H 0.09663 0.98598 0.11814 0.0
H696 H 0.12584 0.95613 0.14877 0.0
H697 H 0.18474 0.93335 0.10778 0.0
H698 H 0.27245 0.85566 0.19868 0.0
H699 H 0.24512 0.88786 0.17326 0.0
C700 C 0.47584 0.93025 0.50215 0.0
C701 C 0.48583 0.95515 0.48985 0.0
C702 C 0.45682 0.91003 0.48432 0.0
C703 C 0.40388 0.9015 0.41244 0.0
H704 H 0.41128 0.82835 0.42053 0.0
C705 C 0.33934 0.82786 0.32314 0.0
C706 C 0.32881 0.80143 0.33132 0.0
C707 C 0.35844 0.84545 0.34384 0.0
C708 C 0.4087 0.84861 0.41824 0.0
H709 H 0.48445 0.97821 0.44939 0.0
H710 H 0.45148 0.94316 0.41853 0.0
H711 H 0.44488 0.86101 0.45482 0.0
H712 H 0.33008 0.77251 0.36751 0.0
H713 H 0.36322 0.80344 0.40397 0.0
H714 H 0.36781 0.88938 0.37611 0.0
C715 C 0.45798 0.93925 0.44184 0.0
C716 C 0.42796 0.86729 0.43786 0.0
C717 C 0.47701 0.95927 0.45953 0.0
C718 C 0.3379 0.79282 0.36063 0.0
C719 C 0.35699 0.81048 0.38145 0.0
C720 C 0.38462 0.88289 0.39301 0.0
C721 C 0.44736 0.91454 0.454 0.0
C722 C 0.426 0.89404 0.4348 0.0
C723 C 0.36733 0.83709 0.37332 0.0
C724 C 0.38704 0.85632 0.3953 0.0
H725 H 0.4824 0.92656 0.52548 0.0
H726 H 0.44894 0.89117 0.49427 0.0
H727 H 0.40149 0.92185 0.40991 0.0
H728 H 0.33266 0.83508 0.30071 0.0
H729 H 0.36633 0.86562 0.33668 0.0
C730 C 0.43075 0.19106 0.72552 0.0
C731 C 0.41895 0.21309 0.72181 0.0
C732 C 0.45287 0.19251 0.71544 0.0
C733 C 0.48024 0.2247 0.65807 0.0
H734 H 0.5346 0.18283 0.69619 0.0
C735 C 0.55146 0.15783 0.63552 0.0
C736 C 0.53014 0.14423 0.61245 0.0
C737 C 0.5474 0.17871 0.64772 0.0
C738 C 0.52025 0.19533 0.68532 0.0
H739 H 0.42207 0.25441 0.70593 0.0
H740 H 0.46045 0.25665 0.68765 0.0
H741 H 0.50978 0.19583 0.72377 0.0
H742 H 0.48903 0.14348 0.58218 0.0
H743 H 0.48167 0.17923 0.60363 0.0
H744 H 0.48985 0.22317 0.61926 0.0
C745 C 0.45245 0.23829 0.69833 0.0
C746 C 0.50575 0.20248 0.70114 0.0
C747 C 0.43037 0.23691 0.70861 0.0
C748 C 0.50586 0.15361 0.59992 0.0
C749 C 0.50172 0.17431 0.6122 0.0
C750 C 0.49488 0.21767 0.64224 0.0
C751 C 0.46367 0.21598 0.70134 0.0
C752 C 0.48439 0.21571 0.68722 0.0
C753 C 0.52184 0.18611 0.63723 0.0
C754 C 0.51373 0.2014 0.65527 0.0
H755 H 0.42222 0.17232 0.73518 0.0
H756 H 0.46063 0.17475 0.7175 0.0
H757 H 0.46401 0.23509 0.64678 0.0
H758 H 0.57064 0.15133 0.64516 0.0
H759 H 0.56354 0.18781 0.66657 0.0
C760 C 0.07059 0.98233 0.61447 0.0
C761 C 0.04628 0.97661 0.59074 0.0
C762 C 0.07437 0.96522 0.63906 0.0
C763 C 0.05618 0.89416 0.64952 0.0
H764 H 0.11613 0.91242 0.72119 0.0
C765 C 0.13541 0.83121 0.69217 0.0
C766 C 0.16157 0.84738 0.69292 0.0
C767 C 0.11436 0.84256 0.69295 0.0
C768 C 0.09899 0.90676 0.70159 0.0
H769 H 1.00525 0.95065 0.57562 0.0
H770 H 1.01195 0.92048 0.61873 0.0
H771 H 0.08688 0.94366 0.69773 0.0
H772 H 0.18661 0.88793 0.69701 0.0
H773 H 0.15013 0.90764 0.69828 0.0
H774 H 0.06959 0.85836 0.65199 0.0
C775 C 1.02826 0.938 0.61812 0.0
C776 C 0.08223 0.92463 0.68814 0.0
C777 C 1.02443 0.95527 0.59344 0.0
C778 C 0.16679 0.87485 0.69653 0.0
C779 C 0.14586 0.88615 0.69749 0.0
C780 C 0.07278 0.87626 0.66305 0.0
C781 C 0.05395 0.9419 0.64039 0.0
C782 C 0.0623 0.91951 0.66065 0.0
C783 C 0.11913 0.87028 0.69468 0.0
C784 C 0.09576 0.88342 0.68788 0.0
H785 H 0.08755 0.99901 0.61326 0.0
H786 H 0.09448 0.96897 0.65562 0.0
H787 H 1.04094 0.88936 0.62849 0.0
H788 H 0.13096 0.80985 0.69022 0.0
H789 H 0.09402 0.82984 0.69093 0.0
C790 C 0.37462 0.83968 0.77976 0.0
C791 C 0.34809 0.83169 0.78265 0.0
C792 C 0.39558 0.85773 0.79889 0.0
C793 C 0.4332 0.906 0.83319 0.0
H794 H 0.42733 0.90811 0.90958 0.0
C795 C 0.49614 0.99427 0.90693 0.0
C796 C 0.50145 0.99048 0.93704 0.0
C797 C 0.48003 0.97352 0.8885 0.0
C798 C 0.42995 0.90763 0.88868 0.0
H799 H 0.32205 0.83695 0.80659 0.0
H800 H 0.35749 0.86951 0.83828 0.0
H801 H 0.39599 0.87395 0.8777 0.0
H802 H 0.49464 0.96201 0.97154 0.0
H803 H 0.46913 0.92513 0.94018 0.0
H804 H 0.46855 0.93858 0.84511 0.0
C805 C 0.36305 0.86102 0.82264 0.0
C806 C 0.4113 0.88824 0.86992 0.0
C807 C 0.34251 0.84252 0.8042 0.0
C808 C 0.49114 0.96539 0.94849 0.0
C809 C 0.47597 0.94435 0.93026 0.0
C810 C 0.45249 0.92497 0.85237 0.0
C811 C 0.39008 0.86854 0.82075 0.0
C812 C 0.41204 0.88761 0.84156 0.0
C813 C 0.46954 0.94821 0.89987 0.0
C814 C 0.45074 0.9265 0.88019 0.0
H815 H 0.37933 0.8314 0.76331 0.0
H816 H 0.41614 0.86277 0.79684 0.0
H817 H 0.43453 0.9063 0.81156 0.0
H818 H 0.50375 1.01353 0.89748 0.0
H819 H 0.47523 0.97772 0.86534 0.0
C820 C 0.47073 0.12544 0.05374 0.0
C821 C 0.47857 0.14338 0.03236 0.0
C822 C 0.45184 0.1298 0.06582 0.0
C823 C 0.39659 0.16504 0.053 0.0
H824 H 0.4148 0.15884 0.13687 0.0
C825 C 0.32313 0.17806 0.11273 0.0
C826 C 0.33584 0.19592 0.13529 0.0
C827 C 0.33923 0.16904 0.10013 0.0
C828 C 0.40944 0.16056 0.11343 0.0
H829 H 0.47263 0.17987 1.00674 0.0
H830 H 0.43948 0.18753 0.02794 0.0
H831 H 0.44561 0.14867 0.11422 0.0
H832 H 0.3751 0.2177 0.16311 0.0
H833 H 0.40323 0.20189 0.14121 0.0
H834 H 0.36068 0.17748 0.05234 0.0
C835 C 0.44786 0.16997 0.03511 0.0
C836 C 0.42694 0.15458 0.10046 0.0
C837 C 0.46687 0.16564 0.02307 0.0
C838 C 0.36484 0.20411 0.14555 0.0
C839 C 0.38091 0.19489 0.13322 0.0
C840 C 0.37895 0.17082 0.06597 0.0
C841 C 0.44027 0.15213 0.05667 0.0
C842 C 0.42088 0.15713 0.07016 0.0
C843 C 0.36825 0.17748 0.11023 0.0
C844 C 0.38548 0.16902 0.09632 0.0
H845 H 0.47886 0.10775 0.06084 0.0
H846 H 0.44605 0.11553 0.0821 0.0
H847 H 0.39131 0.16687 0.02957 0.0
H848 H 0.30077 0.17156 0.10443 0.0
H849 H 0.32903 0.15551 0.08252 0.0
C850 C 0.20304 0.13895 0.48434 0.0
C851 C 0.17574 0.12666 0.48324 0.0
C852 C 0.20816 0.15981 0.4644 0.0
C853 C 0.17333 0.17702 0.38957 0.0
H854 H 0.23979 0.23349 0.39834 0.0
C855 C 0.2354 0.25178 0.31321 0.0
C856 C 0.238 0.23225 0.29759 0.0
C857 C 0.22417 0.2443 0.33595 0.0
C858 C 0.22087 0.21812 0.39561 0.0
H859 H 0.1326 0.12766 0.4629 0.0
H860 H 0.1415 0.16441 0.4284 0.0
H861 H 0.22754 0.21285 0.44147 0.0
H862 H 0.22979 0.18981 0.2923 0.0
H863 H 0.20957 0.17673 0.33146 0.0
H864 H 0.16739 0.18131 0.34395 0.0
C865 C 0.15892 0.15782 0.44416 0.0
C866 C 0.21398 0.20622 0.42024 0.0
C867 C 0.15383 0.13693 0.46391 0.0
C868 C 0.22807 0.20523 0.30407 0.0
C869 C 0.21641 0.19777 0.32638 0.0
C870 C 0.18032 0.18874 0.36509 0.0
C871 C 0.186 0.16853 0.4432 0.0
C872 C 0.1906 0.18497 0.41749 0.0
C873 C 0.21475 0.21721 0.3428 0.0
C874 C 0.20464 0.20872 0.36797 0.0
H875 H 0.22013 0.1311 0.49902 0.0
H876 H 0.22924 0.16752 0.46408 0.0
H877 H 0.15534 0.1605 0.38667 0.0
H878 H 0.24259 0.27277 0.30829 0.0
H879 H 0.22298 0.25962 0.34825 0.0
C880 C 0.83488 0.23238 0.18977 0.0
C881 C 0.84152 0.23472 0.22015 0.0
C882 C 0.84956 0.21957 0.17754 0.0
C883 C 0.9143 0.18751 0.19742 0.0
H884 H 0.88375 0.1684 0.11717 0.0
C885 C 0.97819 0.13869 0.1437 0.0
C886 C 0.96564 0.12543 0.11696 0.0
C887 C 0.96363 0.15166 0.15592 0.0
C888 C 0.89309 0.17315 0.13977 0.0
H889 H 0.87032 0.22404 0.26075 0.0
H890 H 0.89501 0.20203 0.24027 0.0
H891 H 0.85879 0.1896 0.13775 0.0
H892 H 0.92578 0.11725 0.08296 0.0
H893 H 0.90118 0.13856 0.10379 0.0
H894 H 0.94835 0.1706 0.19957 0.0
C895 C 0.87856 0.21038 0.2252 0.0
C896 C 0.87841 0.18602 0.1519 0.0
C897 C 0.86392 0.22323 0.23737 0.0
C898 C 0.93726 0.12639 0.10351 0.0
C899 C 0.92272 0.13933 0.11572 0.0
C900 C 0.92898 0.17463 0.18529 0.0
C901 C 0.87207 0.20798 0.19472 0.0
C902 C 0.88833 0.19378 0.18129 0.0
C903 C 0.93522 0.15256 0.14247 0.0
C904 C 0.91904 0.16685 0.15591 0.0
H905 H 0.81811 0.24062 0.17505 0.0
H906 H 0.84309 0.21914 0.15416 0.0
H907 H 0.9239 0.19273 0.21986 0.0
H908 H 0.99961 0.13901 0.15582 0.0
H909 H 0.97521 0.16129 0.17619 0.0
C910 C 0.12889 0.53988 0.48723 0.0
C911 C 0.10636 0.51788 0.48474 0.0
C912 C 0.14808 0.54076 0.47319 0.0
C913 C 0.147 0.51799 0.40607 0.0
H914 H 0.21818 0.56856 0.4271 0.0
C915 C 0.17409 0.60276 0.32967 0.0
C916 C 0.20155 0.617 0.33362 0.0
C917 C 0.16822 0.5801 0.34711 0.0
C918 C 0.19874 0.55382 0.42068 0.0
H919 H 0.08769 0.47828 0.46809 0.0
H920 H 0.12138 0.4799 0.44312 0.0
H921 H 0.19968 0.54526 0.46483 0.0
H922 H 0.24458 0.61722 0.35758 0.0
H923 H 0.23438 0.57708 0.3873 0.0
H924 H 0.14583 0.52688 0.36188 0.0
C925 C 0.12397 0.49659 0.45577 0.0
C926 C 0.18797 0.54063 0.44245 0.0
C927 C 0.10474 0.49564 0.47009 0.0
C928 C 0.22315 0.60681 0.35396 0.0
C929 C 0.21728 0.58388 0.37122 0.0
C930 C 0.15803 0.53077 0.38429 0.0
C931 C 0.14519 0.51966 0.45619 0.0
C932 C 0.16097 0.52437 0.43523 0.0
C933 C 0.1897 0.5708 0.36878 0.0
C934 C 0.18295 0.5505 0.39124 0.0
H935 H 0.13094 0.55714 0.49879 0.0
H936 H 0.16385 0.55902 0.47386 0.0
H937 H 0.1263 0.50529 0.39963 0.0
H938 H 0.15697 0.60961 0.31368 0.0
H939 H 0.14668 0.57093 0.34463 0.0
C940 C 0.60318 0.96447 0.59672 0.0
C941 C 0.59366 0.96415 0.56605 0.0
C942 C 0.6204 0.94763 0.61416 0.0
C943 C 0.64612 0.88568 0.61228 0.0
H944 H 0.69962 0.9094 0.68607 0.0
C945 C 0.72656 0.82229 0.68114 0.0
C946 C 0.73719 0.82335 0.71174 0.0
C947 C 0.70941 0.83921 0.66382 0.0
C948 C 0.68464 0.90199 0.66577 0.0
H949 H 0.59571 0.94503 0.5303 0.0
H950 H 0.62548 0.91604 0.56028 0.0
H951 H 0.67015 0.93826 0.65598 0.0
H952 H 0.73722 0.84393 0.74751 0.0
H953 H 0.70729 0.87288 0.71779 0.0
H954 H 0.66043 0.84936 0.62208 0.0
C955 C 0.61939 0.92915 0.57114 0.0
C956 C 0.66746 0.91884 0.64821 0.0
C957 C 0.60222 0.94609 0.55368 0.0
C958 C 0.72978 0.84224 0.72417 0.0
C959 C 0.71253 0.85918 0.70683 0.0
C960 C 0.66324 0.8688 0.62988 0.0
C961 C 0.62901 0.92948 0.6019 0.0
C962 C 0.64771 0.91119 0.62094 0.0
C963 C 0.70181 0.85814 0.67612 0.0
C964 C 0.68305 0.87645 0.65713 0.0
H965 H 0.5973 0.97785 0.60748 0.0
H966 H 0.62661 0.94868 0.6375 0.0
H967 H 0.63116 0.87833 0.59194 0.0
H968 H 0.73163 0.80834 0.6703 0.0
H969 H 0.70248 0.83759 0.64052 0.0
C970 C 0.52069 0.43172 0.99114 0.0
C971 C 0.52375 0.45856 0.98117 0.0
C972 C 0.49959 0.41186 0.97458 0.0
C973 C 0.46462 0.37355 0.92581 0.0
H974 H 0.39256 0.38805 0.88358 0.0
C975 C 0.38916 0.3139 0.82776 0.0
C976 C 0.36069 0.30707 0.82428 0.0
C977 C 0.40773 0.3308 0.84945 0.0
C978 C 0.41243 0.38352 0.89548 0.0
H979 H 0.50755 0.48565 0.94593 0.0
H980 H 0.47097 0.45123 0.91715 0.0
H981 H 0.42728 0.4203 0.91734 0.0
H982 H 0.32926 0.31271 0.84075 0.0
H983 H 0.36188 0.34258 0.87883 0.0
H984 H 0.44987 0.33687 0.90384 0.0
C985 C 0.48442 0.44542 0.9379 0.0
C986 C 0.43245 0.40214 0.9146 0.0
C987 C 0.50552 0.46515 0.95433 0.0
C988 C 0.3511 0.31765 0.84293 0.0
C989 C 0.36977 0.33478 0.86465 0.0
C990 C 0.44465 0.35499 0.90662 0.0
C991 C 0.48111 0.41852 0.94779 0.0
C992 C 0.45898 0.39761 0.9296 0.0
C993 C 0.39835 0.34145 0.86822 0.0
C994 C 0.41849 0.35997 0.89079 0.0
H995 H 0.53438 0.42611 1.01184 0.0
H996 H 0.49752 0.39135 0.9829 0.0
H997 H 0.48484 0.36945 0.93688 0.0
H998 H 0.39721 0.30621 0.81364 0.0
H999 H 0.42947 0.33589 0.85116 0.0
C1000 C 0.88649 0.80079 0.31914 0.0
C1001 C 0.86024 0.79005 0.32225 0.0
C1002 C 0.90602 0.81971 0.3381 0.0
C1003 C 0.92518 0.84732 0.41011 0.0
H1004 H 0.96614 0.90837 0.37596 0.0
C1005 C 0.99823 0.9384 0.47632 0.0
C1006 C 1.02282 0.9503 0.46981 0.0
C1007 C 0.97808 0.91844 0.45913 0.0
C1008 C 0.95518 0.8913 0.38596 0.0
H1009 H 0.83433 0.78944 0.34848 0.0
H1010 H 0.86827 0.82297 0.38158 0.0
H1011 H 0.93173 0.87419 0.34488 0.0
H1012 H 0.04603 0.95009 0.44084 0.0
H1013 H 1.01131 0.91488 0.41126 0.0
H1014 H 0.94882 0.86443 0.45126 0.0
C1015 C 0.87377 0.81681 0.3644 0.0
C1016 C 0.93539 0.8717 0.36809 0.0
C1017 C 0.85418 0.79787 0.34532 0.0
C1018 C 1.0272 0.9414 0.44625 0.0
C1019 C 1.00716 0.92136 0.42917 0.0
C1020 C 0.9451 0.86694 0.42805 0.0
C1021 C 0.89979 0.82825 0.36073 0.0
C1022 C 0.92028 0.84936 0.37993 0.0
C1023 C 0.9822 0.9098 0.43517 0.0
C1024 C 0.96051 0.8891 0.41621 0.0
H1025 H 0.89179 0.79504 0.30155 0.0
H1026 H 0.92603 0.82772 0.33497 0.0
H1027 H 0.91405 0.83026 0.41995 0.0
H1028 H 0.99438 0.94475 0.49451 0.0
H1029 H 0.95905 0.91019 0.46428 0.0
C1030 C 0.47854 0.63841 0.64355 0.0
C1031 C 0.4659 0.62442 0.61727 0.0
C1032 C 0.46382 0.65124 0.6557 0.0
C1033 C 0.39245 0.67086 0.63988 0.0
H1034 H 0.42376 0.69243 0.71929 0.0
C1035 C 0.33308 0.72953 0.68854 0.0
C1036 C 0.33979 0.73257 0.7188 0.0
C1037 C 0.34812 0.71689 0.67668 0.0
C1038 C 0.41404 0.68664 0.69704 0.0
H1039 H 0.42569 0.61476 0.58402 0.0
H1040 H 0.40083 0.63581 0.60475 0.0
H1041 H 0.44862 0.6705 0.69925 0.0
H1042 H 0.36959 0.72406 0.75951 0.0
H1043 H 0.3949 0.70197 0.73974 0.0
H1044 H 0.35764 0.68648 0.63778 0.0
C1045 C 0.42257 0.63729 0.61634 0.0
C1046 C 0.42892 0.67388 0.68506 0.0
C1047 C 0.43727 0.62449 0.60422 0.0
C1048 C 0.36286 0.7222 0.73629 0.0
C1049 C 0.3779 0.70947 0.72449 0.0
C1050 C 0.37756 0.68359 0.65185 0.0
C1051 C 0.43516 0.65125 0.64263 0.0
C1052 C 0.41879 0.66541 0.65593 0.0
C1053 C 0.37116 0.7062 0.69412 0.0
C1054 C 0.38768 0.69208 0.68097 0.0
H1055 H 0.50017 0.63942 0.65535 0.0
H1056 H 0.47547 0.66147 0.67558 0.0
H1057 H 0.38293 0.66554 0.61747 0.0
H1058 H 0.31583 0.73696 0.6736 0.0
H1059 H 0.34146 0.71585 0.65334 0.0
C1060 C 0.60851 0.04182 0.9438 0.0
C1061 C 0.6062 0.02416 0.96745 0.0
C1062 C 0.62643 0.04037 0.92904 0.0
C1063 C 0.69197 0.03034 0.93935 0.0
H1064 H 0.66696 0.03926 0.8554 0.0
C1065 C 0.72384 0.09278 0.83578 0.0
C1066 C 0.73336 0.11727 0.84937 0.0
C1067 C 0.71653 0.06908 0.85138 0.0
C1068 C 0.67469 0.036 0.87874 0.0
H1069 H 0.62051 0.99086 0.99417 0.0
H1070 H 0.65357 0.98947 0.96904 0.0
H1071 H 0.63384 1.01803 0.88049 0.0
H1072 H 0.7463 0.13594 0.89046 0.0
H1073 H 0.7331 0.09509 0.91745 0.0
H1074 H 0.73248 0.05042 0.93778 0.0
C1075 C 0.64075 1.00384 0.96164 0.0
C1076 C 0.65556 0.02389 0.8931 0.0
C1077 C 0.62206 1.00477 0.97601 0.0
C1078 C 0.73846 0.11734 0.87938 0.0
C1079 C 0.73123 0.09375 0.89494 0.0
C1080 C 0.71121 0.04245 0.92496 0.0
C1081 C 0.64285 0.02155 0.93789 0.0
C1082 C 0.66371 0.02293 0.92352 0.0
C1083 C 0.71864 0.06957 0.88075 0.0
C1084 C 0.70229 0.0474 0.89465 0.0
H1085 H 0.59631 0.05674 0.93653 0.0
H1086 H 0.62808 0.0546 0.91114 0.0
H1087 H 0.69874 0.02963 0.96287 0.0
H1088 H 0.71991 0.09217 0.81266 0.0
H1089 H 0.70729 0.05072 0.83992 0.0
C1090 C 0.10342 0.44722 0.05629 0.0
C1091 C 0.09705 0.46744 0.06784 0.0
C1092 C 0.1205 0.43049 0.0742 0.0
C1093 C 0.17175 0.42333 0.15027 0.0
H1094 H 0.1606 0.35143 0.12784 0.0
C1095 C 0.23292 0.34662 0.22769 0.0
C1096 C 0.2395 0.32703 0.21539 0.0
C1097 C 0.21582 0.36364 0.21027 0.0
C1098 C 0.16451 0.37153 0.13455 0.0
H1099 H 0.10444 0.48522 0.1083 0.0
H1100 H 0.13357 0.45622 0.13926 0.0
H1101 H 0.13135 0.38025 0.09743 0.0
H1102 H 0.23258 0.31077 0.17418 0.0
H1103 H 0.20346 0.34005 0.14428 0.0
H1104 H 0.20488 0.41448 0.18749 0.0
C1105 C 0.12574 0.45338 0.11613 0.0
C1106 C 0.14745 0.38835 0.1168 0.0
C1107 C 0.10865 0.47013 0.09819 0.0
C1108 C 0.22818 0.3253 0.18489 0.0
C1109 C 0.21108 0.34222 0.16753 0.0
C1110 C 0.1888 0.40647 0.16806 0.0
C1111 C 0.13214 0.43305 0.10465 0.0
C1112 C 0.15061 0.41476 0.12409 0.0
C1113 C 0.20437 0.36185 0.17969 0.0
C1114 C 0.18571 0.38011 0.16066 0.0
H1115 H 0.09521 0.44427 0.03316 0.0
H1116 H 0.12487 0.41569 0.06384 0.0
H1117 H 0.17565 0.44343 0.15696 0.0
H1118 H 0.24095 0.34884 0.25094 0.0
H1119 H 0.21126 0.37799 0.22104 0.0
C1120 C 0.70275 0.63511 0.98529 0.0
C1121 C 0.67538 0.62251 0.98369 0.0
C1122 C 0.70804 0.655 0.96447 0.0
C1123 C 0.67442 0.67072 0.88833 0.0
H1124 H 0.73981 0.72865 0.89797 0.0
C1125 C 0.73559 0.7476 0.81253 0.0
C1126 C 0.73866 0.72839 0.79684 0.0
C1127 C 0.72453 0.73965 0.83538 0.0
C1128 C 0.72119 0.71286 0.89499 0.0
H1129 H 0.63219 0.62226 0.96138 0.0
H1130 H 0.64132 0.65731 0.92541 0.0
H1131 H 0.72719 0.70744 0.94073 0.0
H1132 H 0.73165 0.68604 0.79173 0.0
H1133 H 0.71184 0.6722 0.83104 0.0
H1134 H 0.66905 0.67534 0.84285 0.0
C1135 C 0.65871 0.6515 0.94209 0.0
C1136 C 0.71412 0.70059 0.91942 0.0
C1137 C 0.65346 0.63152 0.96265 0.0
C1138 C 0.72955 0.70124 0.80352 0.0
C1139 C 0.71811 0.69333 0.82592 0.0
C1140 C 0.68157 0.68284 0.86406 0.0
C1141 C 0.68598 0.66261 0.94198 0.0
C1142 C 0.6911 0.67887 0.91636 0.0
C1143 C 0.7158 0.71242 0.84227 0.0
C1144 C 0.70549 0.7034 0.86725 0.0
H1145 H 0.7199 0.6284 1.00141 0.0
H1146 H 0.72928 0.66305 0.96485 0.0
H1147 H 0.65674 0.65387 0.88517 0.0
H1148 H 0.74221 0.76868 0.80752 0.0
H1149 H 0.72285 0.7547 0.84767 0.0
C1150 C 0.63643 0.32273 0.19678 0.0
C1151 C 0.63872 0.31384 0.17193 0.0
C1152 C 0.61477 0.33447 0.19457 0.0
C1153 C 0.54955 0.35101 0.14551 0.0
H1154 H 0.58832 0.42312 0.16795 0.0
C1155 C 0.52031 0.44078 0.07625 0.0
C1156 C 0.53369 0.46632 0.08663 0.0
C1157 C 0.52301 0.41833 0.095 0.0
C1158 C 0.57645 0.40311 0.16224 0.0
H1159 H 0.61851 0.3077 0.12592 0.0
H1160 H 0.58063 0.32813 0.12209 0.0
H1161 H 0.61162 0.38748 0.18617 0.0
H1162 H 0.55656 0.48904 0.12495 0.0
H1163 H 0.55906 0.45005 0.15833 0.0
H1164 H 0.51444 0.36677 0.12106 0.0
C1165 C 0.59555 0.32597 0.14328 0.0
C1166 C 0.5901 0.38251 0.17274 0.0
C1167 C 0.61734 0.31437 0.14545 0.0
C1168 C 0.54648 0.46939 0.1165 0.0
C1169 C 0.54819 0.44697 0.13549 0.0
C1170 C 0.53555 0.3716 0.13552 0.0
C1171 C 0.59486 0.33731 0.16753 0.0
C1172 C 0.57736 0.35657 0.16318 0.0
C1173 C 0.53856 0.42111 0.12466 0.0
C1174 C 0.54944 0.39826 0.14221 0.0
H1175 H 0.6522 0.32191 0.21768 0.0
H1176 H 0.61454 0.34283 0.21364 0.0
H1177 H 0.53915 0.33104 0.13818 0.0
H1178 H 0.51033 0.43802 0.05318 0.0
H1179 H 0.51514 0.39903 0.08546 0.0
C1180 C 0.97697 0.47188 0.4435 0.0
C1181 C 0.99689 0.49321 0.43688 0.0
C1182 C 0.96132 0.45243 0.42338 0.0
C1183 C 0.93503 0.44167 0.34539 0.0
H1184 H 0.91883 0.36712 0.37073 0.0
C1185 C 0.86471 0.35847 0.26634 0.0
C1186 C 0.84565 0.33935 0.2769 0.0
C1187 C 0.88578 0.37673 0.28505 0.0
C1188 C 0.92302 0.38787 0.36333 0.0
H1189 H 1.01621 0.511 0.40413 0.0
H1190 H 0.98853 0.477 0.36864 0.0
H1191 H 0.95124 0.39995 0.4051 0.0
H1192 H 0.83266 0.32475 0.31457 0.0
H1193 H 0.86917 0.3564 0.34727 0.0
H1194 H 0.90626 0.42968 0.3038 0.0
C1195 C 0.98507 0.47536 0.38944 0.0
C1196 C 0.94161 0.40666 0.38301 0.0
C1197 C 1.00092 0.49475 0.40974 0.0
C1198 C 0.84759 0.33888 0.30617 0.0
C1199 C 0.86855 0.35701 0.32486 0.0
C1200 C 0.91633 0.42286 0.32569 0.0
C1201 C 0.96508 0.45401 0.39607 0.0
C1202 C 0.94743 0.43382 0.37441 0.0
C1203 C 0.88795 0.37615 0.31458 0.0
C1204 C 0.90972 0.39581 0.3346 0.0
H1205 H 0.97315 0.47039 0.4641 0.0
H1206 H 0.94577 0.43648 0.42895 0.0
H1207 H 0.93892 0.4625 0.3382 0.0
H1208 H 0.86333 0.35924 0.24368 0.0
H1209 H 0.90044 0.39115 0.27647 0.0
C1210 C 0.58704 0.58707 0.44145 0.0
C1211 C 0.59838 0.57949 0.47163 0.0
C1212 C 0.60343 0.6033 0.42353 0.0
C1213 C 0.67989 0.63134 0.41732 0.0
H1214 H 0.64924 0.68037 0.35645 0.0
C1215 C 0.74286 0.69286 0.33133 0.0
C1216 C 0.74101 0.71948 0.3198 0.0
C1217 C 0.72652 0.67663 0.34924 0.0
C1218 C 0.65887 0.66694 0.37315 0.0
H1219 H 0.63881 0.58634 0.50437 0.0
H1220 H 0.66649 0.61194 0.47391 0.0
H1221 H 0.6211 0.65247 0.38542 0.0
H1222 H 0.71708 0.74747 0.32039 0.0
H1223 H 0.68862 0.71972 0.34914 0.0
H1224 H 0.71729 0.64504 0.40432 0.0
C1225 C 0.64437 0.60543 0.4636 0.0
C1226 C 0.64206 0.65024 0.39036 0.0
C1227 C 0.6279 0.58999 0.4817 0.0
C1228 C 0.72052 0.72775 0.32781 0.0
C1229 C 0.70352 0.71119 0.34489 0.0
C1230 C 0.69638 0.64738 0.39947 0.0
C1231 C 0.63311 0.61336 0.43353 0.0
C1232 C 0.65165 0.63161 0.41367 0.0
C1233 C 0.70567 0.68472 0.35686 0.0
C1234 C 0.68696 0.66634 0.37649 0.0
H1235 H 0.56481 0.58112 0.43148 0.0
H1236 H 0.59235 0.60793 0.40118 0.0
H1237 H 0.68961 0.61806 0.43416 0.0
H1238 H 0.75761 0.68428 0.32684 0.0
H1239 H 0.73014 0.657 0.35683 0.0
C1240 C 0.85215 0.3153 0.83892 0.0
C1241 C 0.82356 0.31377 0.82974 0.0
C1242 C 0.87051 0.33427 0.85852 0.0
C1243 C 0.90665 0.38501 0.88735 0.0
H1244 H 0.88637 0.40276 0.95056 0.0
C1245 C 0.95021 0.46879 0.97963 0.0
C1246 C 0.97806 0.46715 0.99074 0.0
C1247 C 0.93071 0.45002 0.96036 0.0
C1248 C 0.8922 0.39815 0.93287 0.0
H1249 H 0.79166 0.33095 0.83354 0.0
H1250 H 0.82375 0.36462 0.86729 0.0
H1251 H 0.8536 0.37011 0.91607 0.0
H1252 H 1.0071 0.44403 0.9918 0.0
H1253 H 0.97333 0.41161 0.95759 0.0
H1254 H 0.94548 0.41267 0.90459 0.0
C1255 C 0.83202 0.3508 0.85988 0.0
C1256 C 0.87341 0.37951 0.91302 0.0
C1257 C 0.81363 0.33163 0.84042 0.0
C1258 C 0.98593 0.44609 0.9829 0.0
C1259 C 0.96658 0.42754 0.96341 0.0
C1260 C 0.9255 0.40342 0.90734 0.0
C1261 C 0.86073 0.35235 0.86921 0.0
C1262 C 0.88043 0.37262 0.89005 0.0
C1263 C 0.93881 0.42942 0.95174 0.0
C1264 C 0.91852 0.41012 0.93036 0.0
H1265 H 0.86036 0.30166 0.83112 0.0
H1266 H 0.89237 0.33449 0.86559 0.0
H1267 H 0.9126 0.38068 0.86962 0.0
H1268 H 0.9436 0.48484 0.9854 0.0
H1269 H 0.90947 0.45201 0.95161 0.0
C1270 C 0.85667 0.8132 0.18381 0.0
C1271 C 0.84668 0.82369 0.20303 0.0
C1272 C 0.87332 0.82944 0.16622 0.0
C1273 C 0.91231 0.90485 0.14758 0.0
H1274 H 0.9292 0.87166 0.09175 0.0
C1275 C 0.98611 0.97189 0.07332 0.0
C1276 C 0.99036 0.96119 0.0499 0.0
C1277 C 0.96943 0.95641 0.09147 0.0
C1278 C 0.9252 0.88221 0.10694 0.0
H1279 H 0.84922 0.86275 0.21624 0.0
H1280 H 0.87722 0.88999 0.18697 0.0
H1281 H 0.90146 0.845 0.12101 0.0
H1282 H 0.97774 0.92306 0.03001 0.0
H1283 H 0.95031 0.89745 0.06002 0.0
H1284 H 0.93623 0.9421 0.13346 0.0
C1285 C 0.87218 0.86861 0.18514 0.0
C1286 C 0.90857 0.86614 0.1246 0.0
C1287 C 0.85539 0.85236 0.20262 0.0
C1288 C 0.97616 0.9335 0.04693 0.0
C1289 C 0.95976 0.91812 0.06499 0.0
C1290 C 0.92911 0.92094 0.12999 0.0
C1291 C 0.88218 0.85818 0.16579 0.0
C1292 C 0.90101 0.87641 0.14602 0.0
C1293 C 0.95527 0.92849 0.08841 0.0
C1294 C 0.93656 0.91063 0.10849 0.0
H1295 H 0.85152 0.79177 0.18212 0.0
H1296 H 0.8794 0.81883 0.15274 0.0
H1297 H 0.90833 0.91529 0.16288 0.0
H1298 H 0.99575 0.99264 0.07789 0.0
H1299 H 0.96785 0.96681 0.10839 0.0
C1300 C 0.87594 0.21838 0.8121 0.0
C1301 C 0.84727 0.2138 0.80829 0.0
C1302 C 0.89188 0.19947 0.82704 0.0
C1303 C 0.89087 0.13707 0.87869 0.0
H1304 H 0.95551 0.13265 0.86023 0.0
C1305 C 0.96811 0.07336 0.95407 0.0
C1306 C 0.98366 0.06106 0.94324 0.0
C1307 C 0.95127 0.09044 0.93659 0.0
C1308 C 0.93747 0.13324 0.8658 0.0
H1309 H 0.8136 0.18437 0.81806 0.0
H1310 H 0.84083 0.1519 0.84364 0.0
H1311 H 0.92772 0.16426 0.83289 0.0
H1312 H 0.99273 0.05829 0.90392 0.0
H1313 H 0.96334 0.08798 0.87331 0.0
H1314 H 0.90034 0.10601 0.91135 0.0
C1315 C 0.8514 0.17035 0.83534 0.0
C1316 C 0.92142 0.15191 0.85008 0.0
C1317 C 0.83544 0.1892 0.82025 0.0
C1318 C 0.9811 0.06673 0.91347 0.0
C1319 C 0.96428 0.08425 0.89585 0.0
C1320 C 0.90698 0.11861 0.89449 0.0
C1321 C 0.88016 0.17488 0.83927 0.0
C1322 C 0.89762 0.15445 0.85608 0.0
C1323 C 0.94891 0.0967 0.907 0.0
C1324 C 0.93088 0.11616 0.88869 0.0
H1325 H 0.8863 0.23683 0.80354 0.0
H1326 H 0.91375 0.20454 0.82943 0.0
H1327 H 0.8732 0.13793 0.88478 0.0
H1328 H 0.96918 0.07007 0.97668 0.0
H1329 H 0.94063 0.09941 0.94687 0.0
C1330 C 0.73746 0.22824 0.69008 0.0
C1331 C 0.76612 0.23106 0.69692 0.0
C1332 C 0.7187 0.2084 0.67187 0.0
C1333 C 0.71239 0.1439 0.64327 0.0
H1334 H 0.64643 0.16035 0.58595 0.0
C1335 C 0.63762 0.07109 0.55495 0.0
C1336 C 0.60914 0.06932 0.54804 0.0
C1337 C 0.65698 0.09037 0.57361 0.0
C1338 C 0.66456 0.15533 0.60208 0.0
H1339 H 0.79772 0.2155 0.69002 0.0
H1340 H 0.76486 0.18083 0.65779 0.0
H1341 H 0.6801 0.19511 0.61692 0.0
H1342 H 0.57842 0.08581 0.55564 0.0
H1343 H 0.61218 0.11928 0.58853 0.0
H1344 H 0.69679 0.10408 0.62839 0.0
C1345 C 0.7569 0.1938 0.66682 0.0
C1346 C 0.6839 0.17527 0.61981 0.0
C1347 C 0.77571 0.21373 0.68508 0.0
C1348 C 0.60029 0.08685 0.56049 0.0
C1349 C 0.61964 0.10611 0.57917 0.0
C1350 C 0.69303 0.12393 0.62552 0.0
C1351 C 0.72816 0.19092 0.66001 0.0
C1352 C 0.708 0.16979 0.64069 0.0
C1353 C 0.64823 0.10826 0.58576 0.0
C1354 C 0.66884 0.12939 0.60477 0.0
H1355 H 0.72946 0.24134 0.69891 0.0
H1356 H 0.69674 0.20652 0.66743 0.0
H1357 H 0.73054 0.13892 0.65941 0.0
H1358 H 0.64497 0.0578 0.54564 0.0
H1359 H 0.67882 0.09165 0.57798 0.0
C1360 C 0.64151 0.92903 0.45786 0.0
C1361 C 0.64661 0.95649 0.45049 0.0
C1362 C 0.662 0.91506 0.46251 0.0
C1363 C 0.73668 0.92293 0.47185 0.0
H1364 H 0.70868 0.86076 0.42503 0.0
C1365 C 0.79515 0.89229 0.40773 0.0
C1366 C 0.7868 0.86624 0.39781 0.0
C1367 C 0.78382 0.89919 0.42696 0.0
C1368 C 0.71706 0.87752 0.43904 0.0
H1369 H 0.67735 0.99109 0.44324 0.0
H1370 H 0.71299 0.96658 0.45059 0.0
H1371 H 0.67649 0.88129 0.43435 0.0
H1372 H 0.76298 0.82615 0.40369 0.0
H1373 H 0.74459 0.8379 0.43828 0.0
H1374 H 0.77737 0.91979 0.47517 0.0
C1375 C 0.69338 0.95592 0.4534 0.0
C1376 C 0.69845 0.8894 0.4443 0.0
C1377 C 0.67291 0.96992 0.44891 0.0
C1378 C 0.76982 0.84649 0.41056 0.0
C1379 C 0.75895 0.85328 0.43022 0.0
C1380 C 0.75541 0.91093 0.46667 0.0
C1381 C 0.68795 0.92825 0.45971 0.0
C1382 C 0.70799 0.91285 0.45971 0.0
C1383 C 0.76428 0.88003 0.43702 0.0
C1384 C 0.74572 0.88875 0.44913 0.0
H1385 H 0.6216 0.91833 0.45992 0.0
H1386 H 0.65735 0.89381 0.46771 0.0
H1387 H 0.74462 0.94074 0.48428 0.0
H1388 H 0.80899 0.90781 0.39916 0.0
H1389 H 0.7886 0.91999 0.43182 0.0
C1390 C 0.96284 0.22113 0.35691 0.0
C1391 C 0.93515 0.2065 0.3507 0.0
C1392 C 0.98378 0.20863 0.35812 0.0
C1393 C 0.99561 0.14719 0.33822 0.0
H1394 H 0.05205 0.15081 0.41363 0.0
C1395 C 1.02416 0.05769 0.40476 0.0
C1396 C 0.04871 0.06011 0.42832 0.0
C1397 C 1.01978 0.07911 0.38492 0.0
C1398 C 1.03719 0.15003 0.39199 0.0
H1399 H 0.908 0.16716 0.34119 0.0
H1400 H 0.9442 0.14571 0.34283 0.0
H1401 H 1.02477 0.18423 0.39845 0.0
H1402 H 0.08967 0.08522 0.4471 0.0
H1403 H 0.08195 0.12273 0.41238 0.0
H1404 H 1.00674 0.11188 0.33262 0.0
C1405 C 0.94969 0.16692 0.34619 0.0
C1406 C 1.02144 0.16923 0.38335 0.0
C1407 C 0.92891 0.17925 0.34537 0.0
C1408 C 0.07031 0.08293 0.42941 0.0
C1409 C 0.06587 0.10448 0.40957 0.0
C1410 C 1.01148 0.12808 0.34677 0.0
C1411 C 0.97735 0.18139 0.35276 0.0
C1412 C 0.99931 0.16691 0.35726 0.0
C1413 C 1.03985 0.1034 0.38833 0.0
C1414 C 1.03108 0.12822 0.37463 0.0
H1415 H 0.96832 0.24224 0.3607 0.0
H1416 H 1.00499 0.22018 0.36341 0.0
H1417 H 0.97902 0.14534 0.31767 0.0
H1418 H 1.00734 0.04014 0.40306 0.0
H1419 H 0.99947 0.07744 0.36887 0.0
C1420 C 0.74901 0.18653 0.23572 0.0
C1421 C 0.74431 0.21001 0.24235 0.0
C1422 C 0.72856 0.17003 0.21481 0.0
C1423 C 0.69012 0.14968 0.15659 0.0
H1424 H 0.61294 0.13065 0.15308 0.0
C1425 C 0.60706 0.08609 0.06568 0.0
C1426 C 0.5889 0.0647 0.07495 0.0
C1427 C 0.62386 0.10632 0.08449 0.0
C1428 C 0.63443 0.1358 0.15381 0.0
H1429 H 0.71424 0.2341 0.23355 0.0
H1430 H 0.6784 0.20527 0.19665 0.0
H1431 H 0.64691 0.16021 0.19035 0.0
H1432 H 0.57304 0.04817 0.11051 0.0
H1433 H 0.60264 0.08328 0.14354 0.0
H1434 H 0.67796 0.12477 0.12071 0.0
C1435 C 0.69789 0.19964 0.20761 0.0
C1436 C 0.65382 0.15288 0.17498 0.0
C1437 C 0.71841 0.21618 0.22858 0.0
C1438 C 0.58701 0.06439 0.1029 0.0
C1439 C 0.60379 0.08461 0.12172 0.0
C1440 C 0.67078 0.13271 0.13542 0.0
C1441 C 0.70295 0.17661 0.20017 0.0
C1442 C 0.68195 0.15966 0.17686 0.0
C1443 C 0.62281 0.10553 0.11292 0.0
C1444 C 0.64276 0.12531 0.13399 0.0
H1445 H 0.76876 0.18124 0.24615 0.0
H1446 H 0.73288 0.15214 0.20998 0.0
H1447 H 0.71158 0.15487 0.15719 0.0
H1448 H 0.60881 0.08685 0.04415 0.0
H1449 H 0.63801 0.12238 0.07692 0.0
C1450 C 0.76712 0.85968 0.91868 0.0
C1451 C 0.76716 0.86706 0.89008 0.0
C1452 C 0.75263 0.87102 0.93113 0.0
C1453 C 0.69273 0.90068 0.90962 0.0
H1454 H 0.71619 0.91302 0.99185 0.0
C1455 C 0.6233 0.93122 0.96298 0.0
C1456 C 0.62141 0.91682 0.98885 0.0
C1457 C 0.64317 0.92917 0.95096 0.0
C1458 C 0.70939 0.9096 0.96886 0.0
H1459 H 0.75349 0.89321 0.85269 0.0
H1460 H 0.72812 0.91315 0.87453 0.0
H1461 H 0.74878 0.90392 0.97086 0.0
H1462 H 0.63867 0.88873 0.0222 0.0
H1463 H 0.67336 0.88502 1.00109 0.0
H1464 H 0.65319 0.9058 0.90773 0.0
C1465 C 0.73894 0.89826 0.88711 0.0
C1466 C 0.72801 0.90443 0.95685 0.0
C1467 C 0.75342 0.88686 0.87462 0.0
C1468 C 0.6398 0.90027 1.00242 0.0
C1469 C 0.65971 0.89825 0.99041 0.0
C1470 C 0.67416 0.90595 0.9216 0.0
C1471 C 0.73791 0.89002 0.91527 0.0
C1472 C 0.71965 0.89927 0.92724 0.0
C1473 C 0.66159 0.9127 0.96459 0.0
C1474 C 0.68212 0.90982 0.95146 0.0
H1475 H 0.77721 0.84422 0.931 0.0
H1476 H 0.75187 0.86392 0.95269 0.0
H1477 H 0.68552 0.89642 0.88682 0.0
H1478 H 0.60984 0.94461 0.95231 0.0
H1479 H 0.64438 0.94077 0.93122 0.0
C1480 C 0.88547 0.92884 0.55584 0.0
C1481 C 0.89923 0.92336 0.53793 0.0
C1482 C 0.87913 0.91002 0.57694 0.0
C1483 C 0.86276 0.84413 0.60292 0.0
H1484 H 0.90837 0.87006 0.6791 0.0
C1485 C 0.84587 0.79252 0.71014 0.0
C1486 C 0.84308 0.81072 0.72725 0.0
C1487 C 0.85626 0.80181 0.68694 0.0
C1488 C 0.89564 0.86243 0.658 0.0
H1489 H 0.91527 0.89303 0.52674 0.0
H1490 H 0.90329 0.85976 0.56338 0.0
H1491 H 0.91678 0.89437 0.63573 0.0
H1492 H 0.84993 0.85262 0.73451 0.0
H1493 H 0.86812 0.86871 0.6946 0.0
H1494 H 0.8404 0.81312 0.62517 0.0
C1495 C 0.89779 0.87881 0.56102 0.0
C1496 C 0.90049 0.87628 0.63331 0.0
C1497 C 0.90446 0.8978 0.54002 0.0
C1498 C 0.85183 0.83815 0.72166 0.0
C1499 C 0.86243 0.84737 0.69888 0.0
C1500 C 0.85772 0.83029 0.62775 0.0
C1501 C 0.88599 0.88524 0.58018 0.0
C1502 C 0.88352 0.86773 0.60565 0.0
C1503 C 0.86446 0.82937 0.68105 0.0
C1504 C 0.87347 0.83998 0.65544 0.0
H1505 H 0.8807 0.94813 0.5544 0.0
H1506 H 0.86983 0.91519 0.59151 0.0
H1507 H 0.8495 0.83733 0.58164 0.0
H1508 H 0.83946 0.77124 0.71425 0.0
H1509 H 0.85769 0.78754 0.67354 0.0
C1510 C 0.22068 0.81838 0.782 0.0
C1511 C 0.24262 0.80643 0.79943 0.0
C1512 C 0.20605 0.83144 0.79398 0.0
C1513 C 0.20596 0.85531 0.8674 0.0
H1514 H 0.13697 0.87262 0.81955 0.0
C1515 C 0.14858 0.91583 0.91634 0.0
C1516 C 0.12032 0.91719 0.90298 0.0
C1517 C 0.16282 0.90276 0.90392 0.0
C1518 C 0.15608 0.86803 0.83387 0.0
H1519 H 0.26508 0.79968 0.84468 0.0
H1520 H 0.24013 0.82136 0.86521 0.0
H1521 H 0.16107 0.85016 0.79905 0.0
H1522 H 0.08617 0.90421 0.86404 0.0
H1523 H 0.11008 0.88167 0.84328 0.0
H1524 H 0.20075 0.87268 0.90234 0.0
C1525 C 0.23406 0.8213 0.84183 0.0
C1526 C 0.17052 0.85497 0.82163 0.0
C1527 C 0.24869 0.80832 0.82979 0.0
C1528 C 0.10753 0.90419 0.87609 0.0
C1529 C 0.1218 0.89108 0.86365 0.0
C1530 C 0.19152 0.86834 0.87962 0.0
C1531 C 0.21214 0.83353 0.82447 0.0
C1532 C 0.19612 0.848 0.83787 0.0
C1533 C 0.15009 0.88978 0.87703 0.0
C1534 C 0.16594 0.87531 0.86342 0.0
H1535 H 0.21454 0.81758 0.75867 0.0
H1536 H 0.18993 0.84018 0.7788 0.0
H1537 H 0.22533 0.85124 0.88163 0.0
H1538 H 0.1602 0.92474 0.937 0.0
H1539 H 0.18432 0.90323 0.91579 0.0
C1540 C 0.94482 0.50666 0.5318 0.0
C1541 C 0.96895 0.52715 0.53665 0.0
C1542 C 0.92549 0.50621 0.54557 0.0
C1543 C 0.92754 0.52087 0.61511 0.0
H1544 H 0.84903 0.48833 0.5857 0.0
C1545 C 0.8751 0.45343 0.69086 0.0
C1546 C 0.86132 0.42829 0.67922 0.0
C1547 C 0.88099 0.47563 0.67269 0.0
C1548 C 0.87087 0.49763 0.59432 0.0
H1549 H 0.99093 0.56439 0.55787 0.0
H1550 H 0.9574 0.563 0.58303 0.0
H1551 H 0.8737 0.51103 0.55196 0.0
H1552 H 0.84137 0.40712 0.6393 0.0
H1553 H 0.85197 0.44534 0.60786 0.0
H1554 H 0.92562 0.50533 0.65699 0.0
C1555 C 0.95335 0.54755 0.5682 0.0
C1556 C 0.88492 0.51078 0.57501 0.0
C1557 C 0.9725 0.54828 0.55389 0.0
C1558 C 0.8518 0.42623 0.64896 0.0
C1559 C 0.85781 0.44832 0.63085 0.0
C1560 C 0.91359 0.5075 0.63437 0.0
C1561 C 0.93013 0.52603 0.56487 0.0
C1562 C 0.91371 0.52105 0.58508 0.0
C1563 C 0.87341 0.47308 0.64255 0.0
C1564 C 0.88548 0.49424 0.62395 0.0
H1565 H 0.94145 0.4903 0.51835 0.0
H1566 H 0.90799 0.4892 0.54283 0.0
H1567 H 0.94976 0.52853 0.62351 0.0
H1568 H 0.88222 0.45571 0.7141 0.0
H1569 H 0.89262 0.4945 0.68238 0.0
C1570 C 0.49018 0.08354 0.43062 0.0
C1571 C 0.48993 0.0744 0.459 0.0
C1572 C 0.47322 0.10075 0.41351 0.0
C1573 C 0.42544 0.14431 0.41742 0.0
H1574 H 0.40714 0.14776 0.33381 0.0
C1575 C 0.36239 0.2215 0.34555 0.0
C1576 C 0.34703 0.21721 0.316 0.0
C1577 C 0.37962 0.20449 0.36247 0.0
C1578 C 0.41151 0.14711 0.35707 0.0
H1579 H 0.47056 0.07674 0.49092 0.0
H1580 H 0.44072 0.10547 0.46134 0.0
H1581 H 0.43543 0.11791 0.36297 0.0
H1582 H 0.33824 0.19057 0.28173 0.0
H1583 H 0.36708 0.16069 0.31093 0.0
H1584 H 0.40048 0.17254 0.41148 0.0
C1585 C 0.45457 0.10015 0.45217 0.0
C1586 C 0.42852 0.12995 0.37422 0.0
C1587 C 0.47179 0.08322 0.46939 0.0
C1588 C 0.34966 0.19496 0.30422 0.0
C1589 C 0.36664 0.1777 0.32124 0.0
C1590 C 0.40818 0.16123 0.40026 0.0
C1591 C 0.45478 0.10951 0.42369 0.0
C1592 C 0.4361 0.12807 0.40496 0.0
C1593 C 0.38219 0.18196 0.35092 0.0
C1594 C 0.40076 0.16327 0.36955 0.0
H1595 H 0.50377 0.07757 0.42154 0.0
H1596 H 0.47505 0.1074 0.39227 0.0
H1597 H 0.43056 0.14437 0.44073 0.0
H1598 H 0.36135 0.23834 0.35575 0.0
H1599 H 0.39123 0.20949 0.38471 0.0
C1600 C 0.59229 0.5826 0.08216 0.0
C1601 C 0.57253 0.58761 0.05574 0.0
C1602 C 0.61155 0.60371 0.09825 0.0
C1603 C 0.62249 0.67458 0.11071 0.0
H1604 H 0.69977 0.6719 0.14495 0.0
C1605 C 0.73478 0.74592 0.17694 0.0
C1606 C 0.72775 0.75421 0.19906 0.0
C1607 C 0.71578 0.72683 0.15772 0.0
C1608 C 0.6783 0.67305 0.13535 0.0
H1609 H 0.55724 0.61862 0.02551 0.0
H1610 H 0.59061 0.65556 0.05387 0.0
H1611 H 0.66701 0.63584 0.11482 0.0
H1612 H 0.69484 0.75014 0.21756 0.0
H1613 H 0.66141 0.71719 0.18371 0.0
H1614 H 0.63373 0.71167 0.13145 0.0
C1615 C 0.59126 0.6353 0.06211 0.0
C1616 C 0.6595 0.65227 0.11833 0.0
C1617 C 0.5722 0.61416 0.04586 0.0
C1618 C 0.70086 0.74409 0.20072 0.0
C1619 C 0.68172 0.72523 0.18132 0.0
C1620 C 0.64124 0.69522 0.12799 0.0
C1621 C 0.61121 0.63032 0.08846 0.0
C1622 C 0.63135 0.65275 0.10591 0.0
C1623 C 0.68911 0.71602 0.15992 0.0
C1624 C 0.66935 0.69464 0.1406 0.0
H1625 H 0.59279 0.56234 0.09051 0.0
H1626 H 0.62641 0.59922 0.11865 0.0
H1627 H 0.60092 0.67545 0.1016 0.0
H1628 H 0.75504 0.75409 0.17462 0.0
H1629 H 0.72195 0.72054 0.14113 0.0
C1630 C 0.24136 0.22462 0.68256 0.0
C1631 C 0.23224 0.23329 0.7029 0.0
C1632 C 0.22349 0.20515 0.66302 0.0
C1633 C 0.16119 0.15032 0.65403 0.0
H1634 H 0.15077 0.16072 0.57148 0.0
C1635 C 0.06873 0.0859 0.57165 0.0
C1636 C 0.0728 0.07791 0.54744 0.0
C1637 C 0.0894 0.10465 0.58995 0.0
C1638 C 0.1537 0.15728 0.5945 0.0
H1639 H 0.19752 0.22835 0.71893 0.0
H1640 H 0.16666 0.19444 0.68523 0.0
H1641 H 0.18554 0.19327 0.60499 0.0
H1642 H 0.10135 0.08381 0.52281 0.0
H1643 H 0.13775 0.1162 0.55511 0.0
H1644 H 0.12967 0.1144 0.64389 0.0
C1645 C 0.18749 0.20253 0.68429 0.0
C1646 C 0.17362 0.17596 0.61368 0.0
C1647 C 0.20514 0.22209 0.70349 0.0
C1648 C 0.09773 0.08948 0.54148 0.0
C1649 C 0.11852 0.10817 0.55989 0.0
C1650 C 0.14149 0.1316 0.63497 0.0
C1651 C 0.19641 0.19379 0.66384 0.0
C1652 C 0.1772 0.17292 0.6436 0.0
C1653 C 0.11475 0.11579 0.58458 0.0
C1654 C 0.13705 0.13506 0.60488 0.0
H1655 H 0.26218 0.23294 0.68169 0.0
H1656 H 0.23096 0.1987 0.64757 0.0
H1657 H 0.16383 0.14717 0.67703 0.0
H1658 H 0.04965 0.07745 0.57665 0.0
H1659 H 0.08543 0.11047 0.6083 0.0
C1660 C 0.72804 0.32828 0.28307 0.0
C1661 C 0.74785 0.31364 0.30016 0.0
C1662 C 0.71334 0.34098 0.29532 0.0
C1663 C 0.69316 0.34319 0.36447 0.0
H1664 H 0.67113 0.40804 0.32811 0.0
C1665 C 0.61929 0.39161 0.40456 0.0
C1666 C 0.62206 0.41976 0.40291 0.0
C1667 C 0.63437 0.37899 0.39269 0.0
C1668 C 0.67695 0.38996 0.33899 0.0
H1669 H 0.76633 0.30168 0.34504 0.0
H1670 H 0.74076 0.32279 0.36596 0.0
H1671 H 0.69642 0.38662 0.30741 0.0
H1672 H 0.64418 0.4557 0.38555 0.0
H1673 H 0.66933 0.43419 0.36478 0.0
H1674 H 0.67331 0.34632 0.3958 0.0
C1675 C 0.73653 0.32473 0.34267 0.0
C1676 C 0.69163 0.37726 0.32669 0.0
C1677 C 0.75163 0.31244 0.33045 0.0
C1678 C 0.64087 0.43421 0.38807 0.0
C1679 C 0.6555 0.42155 0.37567 0.0
C1680 C 0.67797 0.35559 0.37643 0.0
C1681 C 0.71688 0.33963 0.32561 0.0
C1682 C 0.70048 0.35343 0.33902 0.0
C1683 C 0.65299 0.39344 0.37762 0.0
C1684 C 0.66938 0.37957 0.36427 0.0
H1685 H 0.72384 0.33017 0.25977 0.0
H1686 H 0.69864 0.35164 0.28059 0.0
H1687 H 0.69884 0.32503 0.37524 0.0
H1688 H 0.60559 0.379 0.41562 0.0
H1689 H 0.63097 0.35749 0.39507 0.0
C1690 C 0.4844 0.04807 0.05831 0.0
C1691 C 0.48046 0.02714 0.04064 0.0
C1692 C 0.46642 0.04658 0.07425 0.0
C1693 C 0.39905 1.01178 0.08283 0.0
H1694 H 0.43991 1.00085 0.16392 0.0
C1695 C 0.35802 0.92857 0.15345 0.0
C1696 C 0.36864 0.9288 0.18387 0.0
C1697 C 0.36639 0.9506 0.13645 0.0
C1698 C 0.42792 1.00462 0.14165 0.0
H1699 H 0.45369 0.98953 0.02377 0.0
H1700 H 0.42183 0.98733 0.05084 0.0
H1701 H 0.46466 0.02323 0.13057 0.0
H1702 H 0.39439 0.95318 0.22037 0.0
H1703 H 0.40872 0.9921 0.19059 0.0
H1704 H 0.36237 0.99231 0.09356 0.0
C1705 C 0.43888 1.00469 0.05266 0.0
C1706 C 0.44223 1.01745 0.12249 0.0
C1707 C 0.45721 1.0058 0.0374 0.0
C1708 C 0.38621 0.95233 0.19695 0.0
C1709 C 0.39441 0.97458 0.17987 0.0
C1710 C 0.38465 0.99941 0.10208 0.0
C1711 C 0.44383 0.02459 0.07195 0.0
C1712 C 0.42807 1.01965 0.09269 0.0
C1713 C 0.38549 0.97358 0.1494 0.0
C1714 C 0.39912 0.99405 0.13135 0.0
H1715 H 0.50228 0.06472 0.06117 0.0
H1716 H 0.47071 0.06201 0.0892 0.0
H1717 H 0.38771 1.01353 0.05993 0.0
H1718 H 0.34474 0.91065 0.14266 0.0
H1719 H 0.35937 0.94869 0.11317 0.0
C1720 C 0.98095 0.57366 0.9267 0.0
C1721 C 0.98999 0.57388 0.95736 0.0
C1722 C 0.9636 0.59035 0.90906 0.0
C1723 C 0.93695 0.65175 0.91101 0.0
H1724 H 0.88416 0.62854 0.83672 0.0
C1725 C 0.85604 0.71479 0.8428 0.0
C1726 C 0.84565 0.71414 0.81217 0.0
C1727 C 0.87328 0.69786 0.85992 0.0
C1728 C 0.89894 0.63581 0.85717 0.0
H1729 H 0.98686 0.59256 0.99285 0.0
H1730 H 0.95696 0.62114 0.96262 0.0
H1731 H 0.91389 0.59976 0.8666 0.0
H1732 H 0.8461 0.69427 0.77612 0.0
H1733 H 0.87619 0.66534 0.8055 0.0
H1734 H 0.92224 0.68783 0.90161 0.0
C1735 C 0.96352 0.60833 0.95188 0.0
C1736 C 0.91626 0.619 0.87461 0.0
C1737 C 0.98078 0.59159 0.96949 0.0
C1738 C 0.85336 0.69564 0.79949 0.0
C1739 C 0.87071 0.67871 0.81664 0.0
C1740 C 0.91971 0.66857 0.89356 0.0
C1741 C 0.95443 0.60821 0.92115 0.0
C1742 C 0.93572 0.62647 0.90207 0.0
C1743 C 0.88121 0.67935 0.84738 0.0
C1744 C 0.90012 0.66109 0.86615 0.0
H1745 H 0.98733 0.56052 0.91615 0.0
H1746 H 0.95773 0.58945 0.88573 0.0
H1747 H 0.95171 0.65898 0.93149 0.0
H1748 H 0.85073 0.72842 0.8538 0.0
H1749 H 0.88002 0.69915 0.88326 0.0
C1750 C 0.39769 0.43826 0.07344 0.0
C1751 C 0.40802 0.43275 0.0524 0.0
C1752 C 0.39255 0.41885 0.09453 0.0
C1753 C 0.374 0.35088 0.1152 0.0
H1754 H 0.41812 0.37383 0.19292 0.0
C1755 C 0.35145 0.29646 0.21856 0.0
C1756 C 0.3478 0.31438 0.23533 0.0
C1757 C 0.36384 0.30609 0.19688 0.0
C1758 C 0.40587 0.36698 0.17137 0.0
H1759 H 0.41939 0.40199 0.03592 0.0
H1760 H 0.40933 0.36761 0.07256 0.0
H1761 H 0.42777 0.39991 0.15094 0.0
H1762 H 0.35514 0.3561 0.24367 0.0
H1763 H 0.37652 0.37278 0.2062 0.0
H1764 H 0.35073 0.31899 0.13565 0.0
C1765 C 0.40569 0.38718 0.07268 0.0
C1766 C 0.41141 0.38186 0.14745 0.0
C1767 C 0.41121 0.40678 0.05168 0.0
C1768 C 0.35766 0.34184 0.23101 0.0
C1769 C 0.37012 0.35139 0.20968 0.0
C1770 C 0.36826 0.33603 0.13924 0.0
C1771 C 0.39721 0.39345 0.09473 0.0
C1772 C 0.3948 0.37452 0.11926 0.0
C1773 C 0.37298 0.33369 0.19209 0.0
C1774 C 0.38337 0.34472 0.16747 0.0
H1775 H 0.3945 0.45789 0.07423 0.0
H1776 H 0.38561 0.42389 0.11121 0.0
H1777 H 0.36102 0.34497 0.09352 0.0
H1778 H 0.34413 0.27514 0.22168 0.0
H1779 H 0.36593 0.29207 0.18365 0.0
C1780 C 0.57204 0.6006 0.95238 0.0
C1781 C 0.56406 0.5732 0.9478 0.0
C1782 C 0.56598 0.61876 0.9288 0.0
C1783 C 0.5058 0.6126 0.86643 0.0
H1784 H 0.52891 0.68966 0.86157 0.0
C1785 C 0.42281 0.67122 0.82566 0.0
C1786 C 0.42699 0.69355 0.84157 0.0
C1787 C 0.44493 0.66053 0.8271 0.0
C1788 C 0.52208 0.66814 0.86267 0.0
H1789 H 0.54824 0.54323 0.91561 0.0
H1790 H 0.53889 0.57496 0.87429 0.0
H1791 H 0.56341 0.66337 0.88528 0.0
H1792 H 0.45887 0.72325 0.86968 0.0
H1793 H 0.49649 0.70268 0.87505 0.0
H1794 H 0.46456 0.61674 0.84697 0.0
C1795 C 0.54887 0.58254 0.89589 0.0
C1796 C 0.54194 0.65311 0.87597 0.0
C1797 C 0.55425 0.56437 0.91945 0.0
C1798 C 0.4543 0.70541 0.85803 0.0
C1799 C 0.47627 0.69399 0.86044 0.0
C1800 C 0.48605 0.62749 0.85371 0.0
C1801 C 0.55203 0.6095 0.90057 0.0
C1802 C 0.53377 0.62521 0.87913 0.0
C1803 C 0.47175 0.67088 0.84565 0.0
C1804 C 0.49366 0.65553 0.85283 0.0
H1805 H 0.57969 0.6077 0.97421 0.0
H1806 H 0.56892 0.63941 0.93322 0.0
H1807 H 0.49851 0.59119 0.86882 0.0
H1808 H 0.40237 0.66109 0.81278 0.0
H1809 H 0.44061 0.64333 0.8145 0.0
C1810 C 0.07211 0.55141 0.60935 0.0
C1811 C 0.07698 0.55192 0.58278 0.0
C1812 C 0.08732 0.57156 0.62894 0.0
C1813 C 0.13078 0.64036 0.63335 0.0
H1814 H 0.16553 0.61984 0.71366 0.0
C1815 C 0.21061 0.69153 0.74748 0.0
C1816 C 0.23078 0.70817 0.73628 0.0
C1817 C 0.18822 0.67368 0.72961 0.0
C1818 C 0.15557 0.62598 0.69146 0.0
H1819 H 0.10154 0.57362 0.55586 0.0
H1820 H 0.12781 0.60877 0.58974 0.0
H1821 H 0.13245 0.58611 0.68062 0.0
H1822 H 0.24328 0.7195 0.69771 0.0
H1823 H 0.20447 0.6885 0.66668 0.0
H1824 H 0.15435 0.68005 0.64392 0.0
C1825 C 0.11207 0.59311 0.5954 0.0
C1826 C 0.13664 0.60666 0.67253 0.0
C1827 C 0.09708 0.57294 0.57601 0.0
C1828 C 0.22796 0.70701 0.7069 0.0
C1829 C 0.20561 0.68934 0.68907 0.0
C1830 C 0.14964 0.65964 0.65224 0.0
C1831 C 0.10747 0.59262 0.62213 0.0
C1832 C 0.12462 0.61354 0.6431 0.0
C1833 C 0.18556 0.67233 0.70022 0.0
C1834 C 0.16282 0.65255 0.68131 0.0
H1835 H 0.05666 0.53542 0.61503 0.0
H1836 H 0.08326 0.57073 0.64933 0.0
H1837 H 0.12142 0.64634 0.61092 0.0
H1838 H 0.2123 0.69209 0.77007 0.0
H1839 H 0.173 0.66094 0.73876 0.0
C1840 C 0.34208 0.34644 0.68565 0.0
C1841 C 0.34885 0.3235 0.70382 0.0
C1842 C 0.35838 0.36255 0.66763 0.0
C1843 C 0.43224 0.38213 0.65452 0.0
H1844 H 0.39644 0.41362 0.58021 0.0
C1845 C 0.4991 0.46263 0.58117 0.0
C1846 C 0.48988 0.46284 0.54992 0.0
C1847 C 0.48305 0.44652 0.59956 0.0
C1848 C 0.4076 0.40539 0.60087 0.0
H1849 H 0.3815 0.30212 0.71498 0.0
H1850 H 0.40965 0.33001 0.68597 0.0
H1851 H 0.3689 0.38678 0.61025 0.0
H1852 H 0.4538 0.44334 0.51612 0.0
H1853 H 0.42628 0.41792 0.54669 0.0
H1854 H 0.47103 0.40165 0.64563 0.0
C1855 C 0.3909 0.33552 0.68499 0.0
C1856 C 0.39116 0.38943 0.61882 0.0
C1857 C 0.37411 0.31887 0.70224 0.0
C1858 C 0.46282 0.44538 0.53936 0.0
C1859 C 0.44647 0.4301 0.55758 0.0
C1860 C 0.44875 0.39887 0.63701 0.0
C1861 C 0.38392 0.35822 0.66642 0.0
C1862 C 0.40246 0.3766 0.64659 0.0
C1863 C 0.4557 0.42939 0.58879 0.0
C1864 C 0.43739 0.41129 0.60899 0.0
H1865 H 0.32344 0.35204 0.68488 0.0
H1866 H 0.35082 0.37913 0.65469 0.0
H1867 H 0.44336 0.37369 0.67506 0.0
H1868 H 0.51953 0.47447 0.59191 0.0
H1869 H 0.49245 0.44778 0.62284 0.0
C1870 C 0.23794 0.721 0.18622 0.0
C1871 C 0.2666 0.72275 0.19599 0.0
C1872 C 0.21995 0.70165 0.16699 0.0
C1873 C 0.18462 0.6503 0.13954 0.0
H1874 H 0.20294 0.63532 0.07376 0.0
C1875 C 0.13738 0.57129 0.04197 0.0
C1876 C 0.10949 0.57279 0.03294 0.0
C1877 C 0.15763 0.5892 0.06171 0.0
C1878 C 0.19766 0.63911 0.09219 0.0
H1879 H 0.29902 0.70571 0.19328 0.0
H1880 H 0.26738 0.67143 0.15962 0.0
H1881 H 0.23667 0.66664 0.10935 0.0
H1882 H 0.08106 0.59489 0.03622 0.0
H1883 H 0.11632 0.62602 0.07085 0.0
H1884 H 0.14551 0.62316 0.12221 0.0
C1885 C 0.25889 0.68526 0.16672 0.0
C1886 C 0.21701 0.65698 0.11263 0.0
C1887 C 0.27699 0.70476 0.18606 0.0
C1888 C 0.10233 0.59298 0.04327 0.0
C1889 C 0.12251 0.61076 0.06311 0.0
C1890 C 0.1653 0.6326 0.11909 0.0
C1891 C 0.23013 0.68346 0.15703 0.0
C1892 C 0.21056 0.66306 0.13634 0.0
C1893 C 0.15034 0.60887 0.07285 0.0
C1894 C 0.17144 0.62703 0.09499 0.0
H1895 H 0.22934 0.73482 0.1932 0.0
H1896 H 0.19804 0.70126 0.15954 0.0
H1897 H 0.17919 0.65404 0.15788 0.0
H1898 H 0.14345 0.5559 0.03431 0.0
H1899 H 0.17886 0.58716 0.06889 0.0
C1900 C 0.71291 0.32388 0.70933 0.0
C1901 C 0.74215 0.33049 0.7167 0.0
C1902 C 0.69645 0.34218 0.69386 0.0
C1903 C 0.69923 0.41616 0.66978 0.0
H1904 H 0.62551 0.38808 0.61834 0.0
C1905 C 0.61958 0.48573 0.60669 0.0
C1906 C 0.60158 0.47866 0.57846 0.0
C1907 C 0.63701 0.46882 0.62466 0.0
C1908 C 0.64606 0.39668 0.63239 0.0
H1909 H 0.7763 0.36294 0.7128 0.0
H1910 H 0.74803 0.39453 0.68627 0.0
H1911 H 0.6544 0.35776 0.64551 0.0
H1912 H 0.58864 0.4469 0.54832 0.0
H1913 H 0.61785 0.41855 0.57865 0.0
H1914 H 0.69069 0.45523 0.65624 0.0
C1915 C 0.73757 0.37503 0.69259 0.0
C1916 C 0.66283 0.37891 0.64855 0.0
C1917 C 0.75404 0.3566 0.70789 0.0
C1918 C 0.60182 0.45378 0.56957 0.0
C1919 C 0.61877 0.43698 0.58742 0.0
C1920 C 0.68225 0.43401 0.65375 0.0
C1921 C 0.70821 0.36834 0.68494 0.0
C1922 C 0.69001 0.38802 0.66766 0.0
C1923 C 0.63694 0.44383 0.6155 0.0
C1924 C 0.65522 0.42479 0.63434 0.0
H1925 H 0.70247 0.30427 0.71545 0.0
H1926 H 0.67424 0.33571 0.68924 0.0
H1927 H 0.71966 0.42461 0.68416 0.0
H1928 H 0.62051 0.50448 0.61483 0.0
H1929 H 0.65034 0.47529 0.646 0.0
C1930 C 0.81848 0.67646 0.11386 0.0
C1931 C 0.82462 0.69922 0.12968 0.0
C1932 C 0.83407 0.67518 0.09624 0.0
C1933 C 0.90531 0.69906 0.09949 0.0
H1934 H 0.88182 0.65397 0.03409 0.0
C1935 C 0.98054 0.64713 0.07909 0.0
C1936 C 0.96949 0.61957 0.07612 0.0
C1937 C 0.96314 0.66427 0.07613 0.0
C1938 C 0.88873 0.66685 0.05219 0.0
H1939 H 0.85036 0.73937 0.13751 0.0
H1940 H 0.87724 0.73716 0.10647 0.0
H1941 H 0.84789 0.6722 0.04447 0.0
H1942 H 0.93175 0.58832 0.06781 0.0
H1943 H 0.90163 0.61794 0.06307 0.0
H1944 H 0.94559 0.69211 0.10866 0.0
C1945 C 0.86056 0.72026 0.10789 0.0
C1946 C 0.86934 0.6773 0.05806 0.0
C1947 C 0.84501 0.72154 0.12554 0.0
C1948 C 0.9408 0.60953 0.06977 0.0
C1949 C 0.9235 0.62656 0.06681 0.0
C1950 C 0.92463 0.68853 0.0937 0.0
C1951 C 0.85611 0.69663 0.09419 0.0
C1952 C 0.8772 0.69231 0.08269 0.0
C1953 C 0.93446 0.65408 0.07018 0.0
C1954 C 0.91619 0.67111 0.07098 0.0
H1955 H 0.80257 0.65915 0.11627 0.0
H1956 H 0.83024 0.6566 0.0861 0.0
H1957 H 0.91201 0.71041 0.11877 0.0
H1958 H 1.00256 0.65543 0.08358 0.0
H1959 H 0.97214 0.68541 0.07883 0.0
C1960 C 0.97508 0.62364 0.56637 0.0
C1961 C 0.97586 0.63729 0.53982 0.0
C1962 C 0.95501 0.62502 0.57844 0.0
C1963 C 0.88638 0.63963 0.55941 0.0
H1964 H 0.90863 0.65454 0.64083 0.0
C1965 C 0.82189 0.68282 0.60757 0.0
C1966 C 0.82214 0.67528 0.63623 0.0
C1967 C 0.83805 0.67333 0.59557 0.0
C1968 C 0.90194 0.64981 0.61821 0.0
H1969 H 0.95654 0.66351 0.50545 0.0
H1970 H 0.92147 0.66597 0.52663 0.0
H1971 H 0.94272 0.64799 0.62056 0.0
H1972 H 0.83815 0.65064 0.67421 0.0
H1973 H 0.86646 0.63398 0.65317 0.0
H1974 H 0.8457 0.64192 0.55692 0.0
C1975 C 0.93617 0.65388 0.53781 0.0
C1976 C 0.92149 0.64617 0.60659 0.0
C1977 C 0.9563 0.65257 0.52577 0.0
C1978 C 0.83793 0.65711 0.65222 0.0
C1979 C 0.85409 0.64759 0.64019 0.0
C1980 C 0.86679 0.64318 0.57104 0.0
C1981 C 0.93526 0.64 0.56417 0.0
C1982 C 0.91402 0.64161 0.57696 0.0
C1983 C 0.85478 0.65607 0.61197 0.0
C1984 C 0.87451 0.64887 0.60042 0.0
H1985 H 0.98949 0.61124 0.57744 0.0
H1986 H 0.9546 0.61392 0.59865 0.0
H1987 H 0.87998 0.63563 0.53659 0.0
H1988 H 0.81023 0.69706 0.59485 0.0
H1989 H 0.83844 0.68056 0.57393 0.0
C1990 C 0.4698 0.55784 0.41425 0.0
C1991 C 0.48591 0.56367 0.44342 0.0
C1992 C 0.45234 0.57474 0.39627 0.0
C1993 C 0.43995 0.64546 0.3918 0.0
H1994 H 0.37003 0.61818 0.33353 0.0
C1995 C 0.37372 0.71928 0.31571 0.0
C1996 C 0.34442 0.71144 0.30521 0.0
C1997 C 0.39039 0.70112 0.33115 0.0
C1998 C 0.38939 0.62644 0.34977 0.0
H1999 H 0.49515 0.59317 0.47529 0.0
H2000 H 0.46588 0.62139 0.44503 0.0
H2001 H 0.39907 0.58765 0.36149 0.0
H2002 H 0.31046 0.67697 0.3035 0.0
H2003 H 0.33908 0.64567 0.32998 0.0
H2004 H 0.43042 0.68406 0.38055 0.0
C2005 C 0.46658 0.60403 0.43547 0.0
C2006 C 0.40645 0.60866 0.36583 0.0
C2007 C 0.48359 0.58726 0.45328 0.0
C2008 C 0.33275 0.68428 0.31088 0.0
C2009 C 0.34946 0.66603 0.32617 0.0
C2010 C 0.42309 0.66318 0.37564 0.0
C2011 C 0.45042 0.5985 0.40639 0.0
C2012 C 0.43217 0.61761 0.38757 0.0
C2013 C 0.37884 0.6739 0.33693 0.0
C2014 C 0.39719 0.6543 0.3542 0.0
H2015 H 0.47052 0.54015 0.40528 0.0
H2016 H 0.44061 0.5693 0.37415 0.0
H2017 H 0.45948 0.65392 0.40769 0.0
H2018 H 0.38401 0.73973 0.31208 0.0
H2019 H 0.41264 0.70859 0.33823 0.0
C2020 C 0.1981 0.32502 0.85561 0.0
C2021 C 0.18809 0.32725 0.82517 0.0
C2022 C 0.18032 0.32271 0.87186 0.0
C2023 C 0.10609 0.31311 0.86639 0.0
H2024 H 0.137 0.36495 0.92619 0.0
C2025 C 0.04563 0.37783 0.89189 0.0
C2026 C 0.05566 0.38945 0.91903 0.0
C2027 C 0.05815 0.3593 0.88643 0.0
C2028 C 0.12803 0.34975 0.91024 0.0
H2029 H 0.15164 0.32777 0.78774 0.0
H2030 H 0.1207 0.32465 0.81607 0.0
H2031 H 0.16717 0.353 0.90481 0.0
H2032 H 0.08453 0.38815 0.96279 0.0
H2033 H 0.1054 0.35514 0.95354 0.0
H2034 H 0.06654 0.31128 0.8708 0.0
C2035 C 0.14208 0.32401 0.82746 0.0
C2036 C 0.14545 0.34291 0.89787 0.0
C2037 C 0.15982 0.32606 0.81121 0.0
C2038 C 0.07623 0.37977 0.94156 0.0
C2039 C 0.08845 0.36098 0.93621 0.0
C2040 C 0.08858 0.32001 0.8788 0.0
C2041 C 0.15226 0.32288 0.85798 0.0
C2042 C 0.13454 0.32537 0.87499 0.0
C2043 C 0.08073 0.35184 0.90812 0.0
C2044 C 0.09926 0.33924 0.90003 0.0
H2045 H 0.21973 0.32527 0.86684 0.0
H2046 H 0.1887 0.32145 0.89533 0.0
H2047 H 0.09718 0.29911 0.84917 0.0
H2048 H 1.02926 0.38427 0.8743 0.0
H2049 H 0.0516 0.35263 0.86453 0.0
C2050 C 0.23986 0.37673 0.37826 0.0
C2051 C 0.25363 0.35677 0.39323 0.0
C2052 C 0.22333 0.38603 0.39 0.0
C2053 C 0.20774 0.38749 0.45798 0.0
H2054 H 0.13455 0.39116 0.40587 0.0
C2055 C 0.11725 0.38669 0.49896 0.0
C2056 C 0.09992 0.40404 0.48461 0.0
C2057 C 0.13739 0.38345 0.48793 0.0
C2058 C 0.15505 0.3906 0.42061 0.0
H2059 H 0.26126 0.33128 0.43243 0.0
H2060 H 0.23249 0.34752 0.45289 0.0
H2061 H 0.16829 0.38214 0.38667 0.0
H2062 H 0.09046 0.43196 0.44773 0.0
H2063 H 0.12545 0.42612 0.42839 0.0
H2064 H 0.19423 0.39541 0.49202 0.0
C2065 C 0.23476 0.35625 0.43229 0.0
C2066 C 0.17439 0.3855 0.40961 0.0
C2067 C 0.25124 0.34694 0.42056 0.0
C2068 C 0.1031 0.41801 0.45896 0.0
C2069 C 0.12321 0.41477 0.44793 0.0
C2070 C 0.18838 0.39255 0.46899 0.0
C2071 C 0.22029 0.37559 0.41693 0.0
C2072 C 0.20079 0.3835 0.42825 0.0
C2073 C 0.1406 0.3975 0.46234 0.0
C2074 C 0.16171 0.39376 0.45047 0.0
H2075 H 0.24168 0.38499 0.35736 0.0
H2076 H 0.21273 0.40123 0.37787 0.0
H2077 H 0.22808 0.38646 0.47278 0.0
H2078 H 0.11513 0.37549 0.51862 0.0
H2079 H 0.15022 0.36967 0.49923 0.0
loop_
_geom_bond_atom_site_label_1
_geom_bond_atom_site_label_2
_geom_bond_distance
_geom_bond_site_symmetry_2
_ccdc_geom_bond_type
C0 Eu1 2.835 1_655 S
C0 C2 1.500 . S
C0 O20 1.257 . S
C0 O21 1.260 1_655 S
Eu1 C0 2.835 1_455 S
Eu1 O20 2.473 1_455 S
Eu1 O21 2.480 . S
Eu1 O22 2.430 . S
Eu1 O23 2.670 1_554 S
Eu1 O24 2.394 1_454 S
Eu1 O29 2.355 1_445 S
Eu1 O31 2.374 1_545 S
C2 C0 1.500 . S
C2 C3 1.377 . S
C2 C7 1.377 . S
C3 C2 1.377 . S
C3 C4 1.395 . S
C3 H32 0.931 1_655 S
C4 C3 1.395 . S
C4 C5 1.383 . S
C4 H33 0.931 . S
C5 C4 1.383 . S
C5 C6 1.394 . S
C6 C5 1.394 . S
C6 C7 1.378 . S
C6 H34 0.931 . S
C7 C2 1.377 . S
C7 C6 1.378 . S
C7 H35 0.931 . S
C8 O22 1.259 1_556 S
C8 O23 1.270 . S
C9 O24 1.251 . S
C9 O25 1.251 . S
C10 Eu11 2.835 1_455 S
C10 C12 1.500 . S
C10 O26 1.257 . S
C10 O27 1.260 1_455 S
Eu11 C10 2.835 1_655 S
Eu11 O23 2.355 1_665 S
Eu11 O25 2.374 1_565 S
Eu11 O26 2.473 1_655 S
Eu11 O27 2.480 . S
Eu11 O28 2.430 . S
Eu11 O29 2.670 1_556 S
Eu11 O30 2.394 1_656 S
C12 C10 1.500 . S
C12 C13 1.377 . S
C12 C17 1.377 . S
C13 C12 1.377 . S
C13 C14 1.395 . S
C13 H36 0.931 1_455 S
C14 C13 1.395 . S
C14 C15 1.383 . S
C14 H37 0.931 . S
C15 C14 1.383 . S
C15 C16 1.394 . S
C16 C15 1.394 . S
C16 C17 1.378 . S
C16 H38 0.931 . S
C17 C12 1.377 . S
C17 C16 1.378 . S
C17 H39 0.931 . S
C18 O28 1.259 1_554 S
C18 O29 1.270 . S
C19 O30 1.251 . S
C19 O31 1.251 . S
O20 C0 1.257 . S
O20 Eu1 2.473 1_655 S
O21 C0 1.260 1_455 S
O21 Eu1 2.480 . S
O22 Eu1 2.430 . S
O22 C8 1.259 1_554 S
O23 Eu1 2.670 1_556 S
O23 C8 1.270 . S
O23 Eu11 2.355 1_445 S
O24 Eu1 2.394 1_656 S
O24 C9 1.251 . S
O25 C9 1.251 . S
O25 Eu11 2.374 1_545 S
O26 C10 1.257 . S
O26 Eu11 2.473 1_455 S
O27 C10 1.260 1_655 S
O27 Eu11 2.480 . S
O28 Eu11 2.430 . S
O28 C18 1.259 1_556 S
O29 Eu1 2.355 1_665 S
O29 Eu11 2.670 1_554 S
O29 C18 1.270 . S
O30 Eu11 2.394 1_454 S
O30 C19 1.251 . S
O31 Eu1 2.374 1_565 S
O31 C19 1.251 . S
H32 C3 0.931 1_455 S
H33 C4 0.931 . S
H34 C6 0.931 . S
H35 C7 0.931 . S
H36 C13 0.931 1_655 S
H37 C14 0.931 . S
H38 C16 0.931 . S
H39 C17 0.931 . S
C40 Eu41 2.835 . S
C40 C42 1.500 . S
C40 O60 1.257 . S
C40 O61 1.260 . S
Eu41 C40 2.835 . S
Eu41 O60 2.473 . S
Eu41 O61 2.480 . S
Eu41 O62 2.430 . S
Eu41 O63 2.670 . S
Eu41 O64 2.394 . S
Eu41 O69 2.355 . S
Eu41 O71 2.374 . S
C42 C40 1.500 . S
C42 C43 1.377 . S
C42 C47 1.377 . S
C43 C42 1.377 . S
C43 C44 1.395 . S
C43 H72 0.931 . S
C44 C43 1.395 . S
C44 C45 1.383 . S
C44 H73 0.931 . S
C45 C44 1.383 . S
C45 C46 1.394 . S
C46 C45 1.394 . S
C46 C47 1.378 . S
C46 H74 0.931 . S
C47 C42 1.377 . S
C47 C46 1.378 . S
C47 H75 0.931 . S
C48 O62 1.259 . S
C48 O63 1.270 . S
C49 O64 1.251 . S
C49 O65 1.251 . S
C50 Eu51 2.835 . S
C50 C52 1.500 . S
C50 O66 1.257 . S
C50 O67 1.260 . S
Eu51 C50 2.835 . S
Eu51 O63 2.355 . S
Eu51 O65 2.374 . S
Eu51 O66 2.473 . S
Eu51 O67 2.480 . S
Eu51 O68 2.430 . S
Eu51 O69 2.670 . S
Eu51 O70 2.394 . S
C52 C50 1.500 . S
C52 C53 1.377 . S
C52 C57 1.377 . S
C53 C52 1.377 . S
C53 C54 1.395 . S
C53 H76 0.931 . S
C54 C53 1.395 . S
C54 C55 1.383 . S
C54 H77 0.931 . S
C55 C54 1.383 . S
C55 C56 1.394 . S
C56 C55 1.394 . S
C56 C57 1.378 . S
C56 H78 0.931 . S
C57 C52 1.377 . S
C57 C56 1.378 . S
C57 H79 0.931 . S
C58 O68 1.259 . S
C58 O69 1.270 . S
C59 O70 1.251 . S
C59 O71 1.251 . S
O60 C40 1.257 . S
O60 Eu41 2.473 . S
O61 C40 1.260 . S
O61 Eu41 2.480 . S
O62 Eu41 2.430 . S
O62 C48 1.259 . S
O63 Eu41 2.670 . S
O63 C48 1.270 . S
O63 Eu51 2.355 . S
O64 Eu41 2.394 . S
O64 C49 1.251 . S
O65 C49 1.251 . S
O65 Eu51 2.374 . S
O66 C50 1.257 . S
O66 Eu51 2.473 . S
O67 C50 1.260 . S
O67 Eu51 2.480 . S
O68 Eu51 2.430 . S
O68 C58 1.259 . S
O69 Eu41 2.355 . S
O69 Eu51 2.670 . S
O69 C58 1.270 . S
O70 Eu51 2.394 . S
O70 C59 1.251 . S
O71 Eu41 2.374 . S
O71 C59 1.251 . S
H72 C43 0.931 . S
H73 C44 0.931 . S
H74 C46 0.931 . S
H75 C47 0.931 . S
H76 C53 0.931 . S
H77 C54 0.931 . S
H78 C56 0.931 . S
H79 C57 0.931 . S
C80 Eu81 2.835 1_565 S
C80 C82 1.500 . S
C80 O100 1.257 . S
C80 O101 1.260 1_565 S
Eu81 C80 2.835 1_545 S
Eu81 O100 2.473 1_545 S
Eu81 O101 2.480 . S
Eu81 O102 2.430 . S
Eu81 O103 2.670 . S
Eu81 O104 2.394 1_545 S
Eu81 O109 2.355 1_545 S
Eu81 O111 2.374 . S
C82 C80 1.500 . S
C82 C83 1.377 . S
C82 C87 1.377 . S
C83 C82 1.377 . S
C83 C84 1.395 . S
C83 H112 0.931 . S
C84 C83 1.395 . S
C84 C85 1.383 . S
C84 H113 0.931 . S
C85 C84 1.383 . S
C85 C86 1.394 . S
C86 C85 1.394 . S
C86 C87 1.378 . S
C86 H114 0.931 . S
C87 C82 1.377 . S
C87 C86 1.378 . S
C87 H115 0.931 . S
C88 O102 1.259 . S
C88 O103 1.270 . S
C89 O104 1.251 . S
C89 O105 1.251 . S
C90 Eu91 2.835 1_545 S
C90 C92 1.500 . S
C90 O106 1.257 . S
C90 O107 1.260 1_545 S
Eu91 C90 2.835 1_565 S
Eu91 O103 2.355 1_565 S
Eu91 O105 2.374 . S
Eu91 O106 2.473 1_565 S
Eu91 O107 2.480 . S
Eu91 O108 2.430 . S
Eu91 O109 2.670 . S
Eu91 O110 2.394 1_565 S
C92 C90 1.500 . S
C92 C93 1.377 . S
C92 C97 1.377 . S
C93 C92 1.377 . S
C93 C94 1.395 . S
C93 H116 0.931 . S
C94 C93 1.395 . S
C94 C95 1.383 . S
C94 H117 0.931 . S
C95 C94 1.383 . S
C95 C96 1.394 . S
C96 C95 1.394 . S
C96 C97 1.378 . S
C96 H118 0.931 . S
C97 C92 1.377 . S
C97 C96 1.378 . S
C97 H119 0.931 . S
C98 O108 1.259 . S
C98 O109 1.270 . S
C99 O110 1.251 . S
C99 O111 1.251 . S
O100 C80 1.257 . S
O100 Eu81 2.473 1_565 S
O101 C80 1.260 1_545 S
O101 Eu81 2.480 . S
O102 Eu81 2.430 . S
O102 C88 1.259 . S
O103 Eu81 2.670 . S
O103 C88 1.270 . S
O103 Eu91 2.355 1_545 S
O104 Eu81 2.394 1_565 S
O104 C89 1.251 . S
O105 C89 1.251 . S
O105 Eu91 2.374 . S
O106 C90 1.257 . S
O106 Eu91 2.473 1_545 S
O107 C90 1.260 1_565 S
O107 Eu91 2.480 . S
O108 Eu91 2.430 . S
O108 C98 1.259 . S
O109 Eu81 2.355 1_565 S
O109 Eu91 2.670 . S
O109 C98 1.270 . S
O110 Eu91 2.394 1_545 S
O110 C99 1.251 . S
O111 Eu81 2.374 . S
O111 C99 1.251 . S
H112 C83 0.931 . S
H113 C84 0.931 . S
H114 C86 0.931 . S
H115 C87 0.931 . S
H116 C93 0.931 . S
H117 C94 0.931 . S
H118 C96 0.931 . S
H119 C97 0.931 . S
C120 Eu121 2.835 . S
C120 C122 1.500 . S
C120 O140 1.257 . S
C120 O141 1.260 . S
Eu121 C120 2.835 . S
Eu121 O140 2.473 . S
Eu121 O141 2.480 . S
Eu121 O142 2.430 . S
Eu121 O143 2.670 . S
Eu121 O144 2.394 . S
Eu121 O149 2.355 . S
Eu121 O151 2.374 . S
C122 C120 1.500 . S
C122 C123 1.377 . S
C122 C127 1.377 . S
C123 C122 1.377 . S
C123 C124 1.395 . S
C123 H152 0.931 . S
C124 C123 1.395 . S
C124 C125 1.383 . S
C124 H153 0.931 . S
C125 C124 1.383 . S
C125 C126 1.394 . S
C126 C125 1.394 . S
C126 C127 1.378 . S
C126 H154 0.931 . S
C127 C122 1.377 . S
C127 C126 1.378 . S
C127 H155 0.931 . S
C128 O142 1.259 . S
C128 O143 1.270 . S
C129 O144 1.251 . S
C129 O145 1.251 . S
C130 Eu131 2.835 . S
C130 C132 1.500 . S
C130 O146 1.257 . S
C130 O147 1.260 . S
Eu131 C130 2.835 . S
Eu131 O143 2.355 . S
Eu131 O145 2.374 . S
Eu131 O146 2.473 . S
Eu131 O147 2.480 . S
Eu131 O148 2.430 . S
Eu131 O149 2.670 . S
Eu131 O150 2.394 . S
C132 C130 1.500 . S
C132 C133 1.377 . S
C132 C137 1.377 . S
C133 C132 1.377 . S
C133 C134 1.395 . S
C133 H156 0.931 . S
C134 C133 1.395 . S
C134 C135 1.383 . S
C134 H157 0.931 . S
C135 C134 1.383 . S
C135 C136 1.394 . S
C136 C135 1.394 . S
C136 C137 1.378 . S
C136 H158 0.931 . S
C137 C132 1.377 . S
C137 C136 1.378 . S
C137 H159 0.931 . S
C138 O148 1.259 . S
C138 O149 1.270 . S
C139 O150 1.251 . S
C139 O151 1.251 . S
O140 C120 1.257 . S
O140 Eu121 2.473 . S
O141 C120 1.260 . S
O141 Eu121 2.480 . S
O142 Eu121 2.430 . S
O142 C128 1.259 . S
O143 Eu121 2.670 . S
O143 C128 1.270 . S
O143 Eu131 2.355 . S
O144 Eu121 2.394 . S
O144 C129 1.251 . S
O145 C129 1.251 . S
O145 Eu131 2.374 . S
O146 C130 1.257 . S
O146 Eu131 2.473 . S
O147 C130 1.260 . S
O147 Eu131 2.480 . S
O148 Eu131 2.430 . S
O148 C138 1.259 . S
O149 Eu121 2.355 . S
O149 Eu131 2.670 . S
O149 C138 1.270 . S
O150 Eu131 2.394 . S
O150 C139 1.251 . S
O151 Eu121 2.374 . S
O151 C139 1.251 . S
H152 C123 0.931 . S
H153 C124 0.931 . S
H154 C126 0.931 . S
H155 C127 0.931 . S
H156 C133 0.931 . S
H157 C134 0.931 . S
H158 C136 0.931 . S
H159 C137 0.931 . S
C160 Eu161 2.835 . S
C160 C162 1.500 . S
C160 O180 1.257 . S
C160 O181 1.260 . S
Eu161 C160 2.835 . S
Eu161 O180 2.473 . S
Eu161 O181 2.480 . S
Eu161 O182 2.430 1_445 S
Eu161 O183 2.670 1_445 S
Eu161 O184 2.394 1_455 S
Eu161 O189 2.355 . S
Eu161 O191 2.374 1_545 S
C162 C160 1.500 . S
C162 C163 1.377 . S
C162 C167 1.377 . S
C163 C162 1.377 . S
C163 C164 1.395 . S
C163 H192 0.931 . S
C164 C163 1.395 . S
C164 C165 1.383 . S
C164 H193 0.931 . S
C165 C164 1.383 . S
C165 C166 1.394 . S
C166 C165 1.394 . S
C166 C167 1.378 . S
C166 H194 0.931 . S
C167 C162 1.377 . S
C167 C166 1.378 . S
C167 H195 0.931 . S
C168 O182 1.259 . S
C168 O183 1.270 . S
C169 O184 1.251 . S
C169 O185 1.251 . S
C170 Eu171 2.835 . S
C170 C172 1.500 . S
C170 O186 1.257 . S
C170 O187 1.260 . S
Eu171 C170 2.835 . S
Eu171 O183 2.355 . S
Eu171 O185 2.374 1_565 S
Eu171 O186 2.473 . S
Eu171 O187 2.480 . S
Eu171 O188 2.430 1_665 S
Eu171 O189 2.670 1_665 S
Eu171 O190 2.394 1_655 S
C172 C170 1.500 . S
C172 C173 1.377 . S
C172 C177 1.377 . S
C173 C172 1.377 . S
C173 C174 1.395 . S
C173 H196 0.931 . S
C174 C173 1.395 . S
C174 C175 1.383 . S
C174 H197 0.931 . S
C175 C174 1.383 . S
C175 C176 1.394 . S
C176 C175 1.394 . S
C176 C177 1.378 . S
C176 H198 0.931 . S
C177 C172 1.377 . S
C177 C176 1.378 . S
C177 H199 0.931 . S
C178 O188 1.259 . S
C178 O189 1.270 . S
C179 O190 1.251 . S
C179 O191 1.251 . S
O180 C160 1.257 . S
O180 Eu161 2.473 . S
O181 C160 1.260 . S
O181 Eu161 2.480 . S
O182 Eu161 2.430 1_665 S
O182 C168 1.259 . S
O183 Eu161 2.670 1_665 S
O183 C168 1.270 . S
O183 Eu171 2.355 . S
O184 Eu161 2.394 1_655 S
O184 C169 1.251 . S
O185 C169 1.251 . S
O185 Eu171 2.374 1_545 S
O186 C170 1.257 . S
O186 Eu171 2.473 . S
O187 C170 1.260 . S
O187 Eu171 2.480 . S
O188 Eu171 2.430 1_445 S
O188 C178 1.259 . S
O189 Eu161 2.355 . S
O189 Eu171 2.670 1_445 S
O189 C178 1.270 . S
O190 Eu171 2.394 1_455 S
O190 C179 1.251 . S
O191 Eu161 2.374 1_565 S
O191 C179 1.251 . S
H192 C163 0.931 . S
H193 C164 0.931 . S
H194 C166 0.931 . S
H195 C167 0.931 . S
H196 C173 0.931 . S
H197 C174 0.931 . S
H198 C176 0.931 . S
H199 C177 0.931 . S
C200 Eu201 2.835 . S
C200 C202 1.500 . S
C200 O220 1.257 . S
C200 O221 1.260 . S
Eu201 C200 2.835 . S
Eu201 O220 2.473 . S
Eu201 O221 2.480 . S
Eu201 O222 2.430 . S
Eu201 O223 2.670 . S
Eu201 O224 2.394 . S
Eu201 O229 2.355 . S
Eu201 O231 2.374 . S
C202 C200 1.500 . S
C202 C203 1.377 . S
C202 C207 1.377 . S
C203 C202 1.377 . S
C203 C204 1.395 . S
C203 H232 0.931 . S
C204 C203 1.395 . S
C204 C205 1.383 . S
C204 H233 0.931 . S
C205 C204 1.383 . S
C205 C206 1.394 . S
C206 C205 1.394 . S
C206 C207 1.378 . S
C206 H234 0.931 . S
C207 C202 1.377 . S
C207 C206 1.378 . S
C207 H235 0.931 . S
C208 O222 1.259 . S
C208 O223 1.270 . S
C209 O224 1.251 . S
C209 O225 1.251 . S
C210 Eu211 2.835 . S
C210 C212 1.500 . S
C210 O226 1.257 . S
C210 O227 1.260 . S
Eu211 C210 2.835 . S
Eu211 O223 2.355 . S
Eu211 O225 2.374 . S
Eu211 O226 2.473 . S
Eu211 O227 2.480 . S
Eu211 O228 2.430 . S
Eu211 O229 2.670 . S
Eu211 O230 2.394 . S
C212 C210 1.500 . S
C212 C213 1.377 . S
C212 C217 1.377 . S
C213 C212 1.377 . S
C213 C214 1.395 . S
C213 H236 0.931 . S
C214 C213 1.395 . S
C214 C215 1.383 . S
C214 H237 0.931 . S
C215 C214 1.383 . S
C215 C216 1.394 . S
C216 C215 1.394 . S
C216 C217 1.378 . S
C216 H238 0.931 . S
C217 C212 1.377 . S
C217 C216 1.378 . S
C217 H239 0.931 . S
C218 O228 1.259 . S
C218 O229 1.270 . S
C219 O230 1.251 . S
C219 O231 1.251 . S
O220 C200 1.257 . S
O220 Eu201 2.473 . S
O221 C200 1.260 . S
O221 Eu201 2.480 . S
O222 Eu201 2.430 . S
O222 C208 1.259 . S
O223 Eu201 2.670 . S
O223 C208 1.270 . S
O223 Eu211 2.355 . S
O224 Eu201 2.394 . S
O224 C209 1.251 . S
O225 C209 1.251 . S
O225 Eu211 2.374 . S
O226 C210 1.257 . S
O226 Eu211 2.473 . S
O227 C210 1.260 . S
O227 Eu211 2.480 . S
O228 Eu211 2.430 . S
O228 C218 1.259 . S
O229 Eu201 2.355 . S
O229 Eu211 2.670 . S
O229 C218 1.270 . S
O230 Eu211 2.394 . S
O230 C219 1.251 . S
O231 Eu201 2.374 . S
O231 C219 1.251 . S
H232 C203 0.931 . S
H233 C204 0.931 . S
H234 C206 0.931 . S
H235 C207 0.931 . S
H236 C213 0.931 . S
H237 C214 0.931 . S
H238 C216 0.931 . S
H239 C217 0.931 . S
C240 Eu241 2.835 1_554 S
C240 C242 1.500 . S
C240 O260 1.257 . S
C240 O261 1.260 1_554 S
Eu241 C240 2.835 1_556 S
Eu241 O260 2.473 1_556 S
Eu241 O261 2.480 . S
Eu241 O262 2.430 1_545 S
Eu241 O263 2.670 1_545 S
Eu241 O264 2.394 1_546 S
Eu241 O269 2.355 1_556 S
Eu241 O271 2.374 . S
C242 C240 1.500 . S
C242 C243 1.377 . S
C242 C247 1.377 . S
C243 C242 1.377 . S
C243 C244 1.395 . S
C243 H272 0.931 . S
C244 C243 1.395 . S
C244 C245 1.383 . S
C244 H273 0.931 . S
C245 C244 1.383 . S
C245 C246 1.394 . S
C246 C245 1.394 . S
C246 C247 1.378 . S
C246 H274 0.931 . S
C247 C242 1.377 . S
C247 C246 1.378 . S
C247 H275 0.931 . S
C248 O262 1.259 . S
C248 O263 1.270 . S
C249 O264 1.251 . S
C249 O265 1.251 . S
C250 Eu251 2.835 1_556 S
C250 C252 1.500 . S
C250 O266 1.257 . S
C250 O267 1.260 1_556 S
Eu251 C250 2.835 1_554 S
Eu251 O263 2.355 1_554 S
Eu251 O265 2.374 . S
Eu251 O266 2.473 1_554 S
Eu251 O267 2.480 . S
Eu251 O268 2.430 1_565 S
Eu251 O269 2.670 1_565 S
Eu251 O270 2.394 1_564 S
C252 C250 1.500 . S
C252 C253 1.377 . S
C252 C257 1.377 . S
C253 C252 1.377 . S
C253 C254 1.395 . S
C253 H276 0.918 1_556 S
C254 C253 1.395 . S
C254 C255 1.383 . S
C254 H277 0.931 . S
C255 C254 1.383 . S
C255 C256 1.394 . S
C256 C255 1.394 . S
C256 C257 1.378 . S
C256 H278 0.931 . S
C257 C252 1.377 . S
C257 C256 1.378 . S
C257 H279 0.931 . S
C258 O268 1.259 . S
C258 O269 1.270 . S
C259 O270 1.251 . S
C259 O271 1.251 . S
O260 C240 1.257 . S
O260 Eu241 2.473 1_554 S
O261 C240 1.260 1_556 S
O261 Eu241 2.480 . S
O262 Eu241 2.430 1_565 S
O262 C248 1.259 . S
O263 Eu241 2.670 1_565 S
O263 C248 1.270 . S
O263 Eu251 2.355 1_556 S
O264 Eu241 2.394 1_564 S
O264 C249 1.251 . S
O265 C249 1.251 . S
O265 Eu251 2.374 . S
O266 C250 1.257 . S
O266 Eu251 2.473 1_556 S
O267 C250 1.260 1_554 S
O267 Eu251 2.480 . S
O268 Eu251 2.430 1_545 S
O268 C258 1.259 . S
O269 Eu241 2.355 1_554 S
O269 Eu251 2.670 1_545 S
O269 C258 1.270 . S
O270 Eu251 2.394 1_546 S
O270 C259 1.251 . S
O271 Eu241 2.374 . S
O271 C259 1.251 . S
H272 C243 0.931 . S
H273 C244 0.931 . S
H274 C246 0.931 . S
H275 C247 0.931 . S
H276 C253 0.918 1_554 S
H277 C254 0.931 . S
H278 C256 0.931 . S
H279 C257 0.931 . S
C280 Eu281 2.835 . S
C280 C282 1.500 . S
C280 O300 1.257 . S
C280 O301 1.260 . S
Eu281 C280 2.835 . S
Eu281 O300 2.473 . S
Eu281 O301 2.480 . S
Eu281 O302 2.430 . S
Eu281 O303 2.670 . S
Eu281 O304 2.394 . S
Eu281 O309 2.355 . S
Eu281 O311 2.374 . S
C282 C280 1.500 . S
C282 C283 1.377 . S
C282 C287 1.377 . S
C283 C282 1.377 . S
C283 C284 1.395 . S
C283 H312 0.931 . S
C284 C283 1.395 . S
C284 C285 1.383 . S
C284 H313 0.931 . S
C285 C284 1.383 . S
C285 C286 1.394 . S
C286 C285 1.394 . S
C286 C287 1.378 . S
C286 H314 0.931 . S
C287 C282 1.377 . S
C287 C286 1.378 . S
C287 H315 0.931 . S
C288 O302 1.259 . S
C288 O303 1.270 . S
C289 O304 1.251 . S
C289 O305 1.251 . S
C290 Eu291 2.835 . S
C290 C292 1.500 . S
C290 O306 1.257 . S
C290 O307 1.260 . S
Eu291 C290 2.835 . S
Eu291 O303 2.355 . S
Eu291 O305 2.374 . S
Eu291 O306 2.473 . S
Eu291 O307 2.480 . S
Eu291 O308 2.430 . S
Eu291 O309 2.670 . S
Eu291 O310 2.394 . S
C292 C290 1.500 . S
C292 C293 1.377 . S
C292 C297 1.377 . S
C293 C292 1.377 . S
C293 C294 1.395 . S
C293 H316 0.931 . S
C294 C293 1.395 . S
C294 C295 1.383 . S
C294 H317 0.931 . S
C295 C294 1.383 . S
C295 C296 1.394 . S
C296 C295 1.394 . S
C296 C297 1.378 . S
C296 H318 0.931 . S
C297 C292 1.377 . S
C297 C296 1.378 . S
C297 H319 0.931 . S
C298 O308 1.259 . S
C298 O309 1.270 . S
C299 O310 1.251 . S
C299 O311 1.251 . S
O300 C280 1.257 . S
O300 Eu281 2.473 . S
O301 C280 1.260 . S
O301 Eu281 2.480 . S
O302 Eu281 2.430 . S
O302 C288 1.259 . S
O303 Eu281 2.670 . S
O303 C288 1.270 . S
O303 Eu291 2.355 . S
O304 Eu281 2.394 . S
O304 C289 1.251 . S
O305 C289 1.251 . S
O305 Eu291 2.374 . S
O306 C290 1.257 . S
O306 Eu291 2.473 . S
O307 C290 1.260 . S
O307 Eu291 2.480 . S
O308 Eu291 2.430 . S
O308 C298 1.259 . S
O309 Eu281 2.355 . S
O309 Eu291 2.670 . S
O309 C298 1.270 . S
O310 Eu291 2.394 . S
O310 C299 1.251 . S
O311 Eu281 2.374 . S
O311 C299 1.251 . S
H312 C283 0.931 . S
H313 C284 0.931 . S
H314 C286 0.931 . S
H315 C287 0.931 . S
H316 C293 0.931 . S
H317 C294 0.931 . S
H318 C296 0.931 . S
H319 C297 0.931 . S
C320 Eu321 2.835 . S
C320 C322 1.500 . S
C320 O340 1.257 . S
C320 O341 1.260 . S
Eu321 C320 2.835 . S
Eu321 O340 2.473 . S
Eu321 O341 2.480 . S
Eu321 O342 2.430 . S
Eu321 O343 2.670 . S
Eu321 O344 2.394 . S
Eu321 O349 2.355 1_556 S
Eu321 O351 2.374 1_556 S
C322 C320 1.500 . S
C322 C323 1.377 . S
C322 C327 1.377 . S
C323 C322 1.377 . S
C323 C324 1.395 . S
C323 H352 0.931 . S
C324 C323 1.395 . S
C324 C325 1.383 . S
C324 H353 0.931 . S
C325 C324 1.383 . S
C325 C326 1.394 . S
C326 C325 1.394 . S
C326 C327 1.378 . S
C326 H354 0.931 . S
C327 C322 1.377 . S
C327 C326 1.378 . S
C327 H355 0.931 . S
C328 O342 1.259 . S
C328 O343 1.270 . S
C329 O344 1.251 . S
C329 O345 1.251 . S
C330 Eu331 2.835 . S
C330 C332 1.500 . S
C330 O346 1.257 . S
C330 O347 1.260 . S
Eu331 C330 2.835 . S
Eu331 O343 2.355 1_554 S
Eu331 O345 2.374 1_554 S
Eu331 O346 2.473 . S
Eu331 O347 2.480 . S
Eu331 O348 2.430 . S
Eu331 O349 2.670 . S
Eu331 O350 2.394 . S
C332 C330 1.500 . S
C332 C333 1.377 . S
C332 C337 1.377 . S
C333 C332 1.377 . S
C333 C334 1.395 . S
C333 H356 0.931 . S
C334 C333 1.395 . S
C334 C335 1.383 . S
C334 H357 0.931 . S
C335 C334 1.383 . S
C335 C336 1.394 . S
C336 C335 1.394 . S
C336 C337 1.378 . S
C336 H358 0.931 . S
C337 C332 1.377 . S
C337 C336 1.378 . S
C337 H359 0.931 . S
C338 O348 1.259 . S
C338 O349 1.270 . S
C339 O350 1.251 . S
C339 O351 1.251 . S
O340 C320 1.257 . S
O340 Eu321 2.473 . S
O341 C320 1.260 . S
O341 Eu321 2.480 . S
O342 Eu321 2.430 . S
O342 C328 1.259 . S
O343 Eu321 2.670 . S
O343 C328 1.270 . S
O343 Eu331 2.355 1_556 S
O344 Eu321 2.394 . S
O344 C329 1.251 . S
O345 C329 1.251 . S
O345 Eu331 2.374 1_556 S
O346 C330 1.257 . S
O346 Eu331 2.473 . S
O347 C330 1.260 . S
O347 Eu331 2.480 . S
O348 Eu331 2.430 . S
O348 C338 1.259 . S
O349 Eu321 2.355 1_554 S
O349 Eu331 2.670 . S
O349 C338 1.270 . S
O350 Eu331 2.394 . S
O350 C339 1.251 . S
O351 Eu321 2.374 1_554 S
O351 C339 1.251 . S
H352 C323 0.931 . S
H353 C324 0.931 . S
H354 C326 0.931 . S
H355 C327 0.931 . S
H356 C333 0.931 . S
H357 C334 0.931 . S
H358 C336 0.931 . S
H359 C337 0.931 . S
C360 Eu361 2.835 . S
C360 C362 1.500 . S
C360 O380 1.257 . S
C360 O381 1.260 . S
Eu361 C360 2.835 . S
Eu361 O380 2.473 . S
Eu361 O381 2.480 . S
Eu361 O382 2.430 . S
Eu361 O383 2.670 . S
Eu361 O384 2.394 . S
Eu361 O389 2.355 . S
Eu361 O391 2.374 . S
C362 C360 1.500 . S
C362 C363 1.377 . S
C362 C367 1.377 . S
C363 C362 1.377 . S
C363 C364 1.395 . S
C363 H392 0.931 . S
C364 C363 1.395 . S
C364 C365 1.383 . S
C364 H393 0.931 . S
C365 C364 1.383 . S
C365 C366 1.394 . S
C366 C365 1.394 . S
C366 C367 1.378 . S
C366 H394 0.931 . S
C367 C362 1.377 . S
C367 C366 1.378 . S
C367 H395 0.931 . S
C368 O382 1.259 . S
C368 O383 1.270 . S
C369 O384 1.251 . S
C369 O385 1.251 . S
C370 Eu371 2.835 . S
C370 C372 1.500 . S
C370 O386 1.257 . S
C370 O387 1.260 . S
Eu371 C370 2.835 . S
Eu371 O383 2.355 . S
Eu371 O385 2.374 . S
Eu371 O386 2.473 . S
Eu371 O387 2.480 . S
Eu371 O388 2.430 . S
Eu371 O389 2.670 . S
Eu371 O390 2.394 . S
C372 C370 1.500 . S
C372 C373 1.377 . S
C372 C377 1.377 . S
C373 C372 1.377 . S
C373 C374 1.395 . S
C373 H396 0.931 . S
C374 C373 1.395 . S
C374 C375 1.383 . S
C374 H397 0.931 . S
C375 C374 1.383 . S
C375 C376 1.394 . S
C376 C375 1.394 . S
C376 C377 1.378 . S
C376 H398 0.931 . S
C377 C372 1.377 . S
C377 C376 1.378 . S
C377 H399 0.931 . S
C378 O388 1.259 . S
C378 O389 1.270 . S
C379 O390 1.251 . S
C379 O391 1.251 . S
O380 C360 1.257 . S
O380 Eu361 2.473 . S
O381 C360 1.260 . S
O381 Eu361 2.480 . S
O382 Eu361 2.430 . S
O382 C368 1.259 . S
O383 Eu361 2.670 . S
O383 C368 1.270 . S
O383 Eu371 2.355 . S
O384 Eu361 2.394 . S
O384 C369 1.251 . S
O385 C369 1.251 . S
O385 Eu371 2.374 . S
O386 C370 1.257 . S
O386 Eu371 2.473 . S
O387 C370 1.260 . S
O387 Eu371 2.480 . S
O388 Eu371 2.430 . S
O388 C378 1.259 . S
O389 Eu361 2.355 . S
O389 Eu371 2.670 . S
O389 C378 1.270 . S
O390 Eu371 2.394 . S
O390 C379 1.251 . S
O391 Eu361 2.374 . S
O391 C379 1.251 . S
H392 C363 0.931 . S
H393 C364 0.931 . S
H394 C366 0.931 . S
H395 C367 0.931 . S
H396 C373 0.931 . S
H397 C374 0.931 . S
H398 C376 0.931 . S
H399 C377 0.931 . S
C400 Eu401 2.835 . S
C400 C402 1.500 . S
C400 O420 1.257 . S
C400 O421 1.260 . S
Eu401 C400 2.835 . S
Eu401 O420 2.473 . S
Eu401 O421 2.480 . S
Eu401 O422 2.430 . S
Eu401 O423 2.670 . S
Eu401 O424 2.394 . S
Eu401 O429 2.355 1_655 S
Eu401 O431 2.374 1_655 S
C402 C400 1.500 . S
C402 C403 1.377 . S
C402 C407 1.377 . S
C403 C402 1.377 . S
C403 C404 1.395 . S
C403 H432 0.931 . S
C404 C403 1.395 . S
C404 C405 1.383 . S
C404 H433 0.931 . S
C405 C404 1.383 . S
C405 C406 1.394 . S
C406 C405 1.394 . S
C406 C407 1.378 . S
C406 H434 0.931 . S
C407 C402 1.377 . S
C407 C406 1.378 . S
C407 H435 0.931 . S
C408 O422 1.259 . S
C408 O423 1.270 . S
C409 O424 1.251 . S
C409 O425 1.251 . S
C410 Eu411 2.835 . S
C410 C412 1.500 . S
C410 O426 1.257 . S
C410 O427 1.260 . S
Eu411 C410 2.835 . S
Eu411 O423 2.355 1_455 S
Eu411 O425 2.374 1_455 S
Eu411 O426 2.473 . S
Eu411 O427 2.480 . S
Eu411 O428 2.430 . S
Eu411 O429 2.670 . S
Eu411 O430 2.394 . S
C412 C410 1.500 . S
C412 C413 1.377 . S
C412 C417 1.377 . S
C413 C412 1.377 . S
C413 C414 1.395 . S
C413 H436 0.931 . S
C414 C413 1.395 . S
C414 C415 1.383 . S
C414 H437 0.931 . S
C415 C414 1.383 . S
C415 C416 1.394 . S
C416 C415 1.394 . S
C416 C417 1.378 . S
C416 H438 0.931 . S
C417 C412 1.377 . S
C417 C416 1.378 . S
C417 H439 0.931 . S
C418 O428 1.259 . S
C418 O429 1.270 . S
C419 O430 1.251 . S
C419 O431 1.251 . S
O420 C400 1.257 . S
O420 Eu401 2.473 . S
O421 C400 1.260 . S
O421 Eu401 2.480 . S
O422 Eu401 2.430 . S
O422 C408 1.259 . S
O423 Eu401 2.670 . S
O423 C408 1.270 . S
O423 Eu411 2.355 1_655 S
O424 Eu401 2.394 . S
O424 C409 1.251 . S
O425 C409 1.251 . S
O425 Eu411 2.374 1_655 S
O426 C410 1.257 . S
O426 Eu411 2.473 . S
O427 C410 1.260 . S
O427 Eu411 2.480 . S
O428 Eu411 2.430 . S
O428 C418 1.259 . S
O429 Eu401 2.355 1_455 S
O429 Eu411 2.670 . S
O429 C418 1.270 . S
O430 Eu411 2.394 . S
O430 C419 1.251 . S
O431 Eu401 2.374 1_455 S
O431 C419 1.251 . S
H432 C403 0.931 . S
H433 C404 0.931 . S
H434 C406 0.931 . S
H435 C407 0.931 . S
H436 C413 0.931 . S
H437 C414 0.931 . S
H438 C416 0.931 . S
H439 C417 0.931 . S
C440 Eu441 2.835 . S
C440 C442 1.500 . S
C440 O460 1.257 . S
C440 O461 1.260 . S
Eu441 C440 2.835 . S
Eu441 O460 2.473 . S
Eu441 O461 2.480 . S
Eu441 O462 2.430 . S
Eu441 O463 2.670 . S
Eu441 O464 2.394 . S
Eu441 O469 2.355 . S
Eu441 O471 2.374 . S
C442 C440 1.500 . S
C442 C443 1.377 . S
C442 C447 1.377 . S
C443 C442 1.377 . S
C443 C444 1.395 . S
C443 H472 0.931 . S
C444 C443 1.395 . S
C444 C445 1.383 . S
C444 H473 0.931 . S
C445 C444 1.383 . S
C445 C446 1.394 . S
C446 C445 1.394 . S
C446 C447 1.378 . S
C446 H474 0.931 . S
C447 C442 1.377 . S
C447 C446 1.378 . S
C447 H475 0.931 . S
C448 O462 1.259 . S
C448 O463 1.270 . S
C449 O464 1.251 . S
C449 O465 1.251 . S
C450 Eu451 2.835 . S
C450 C452 1.500 . S
C450 O466 1.257 . S
C450 O467 1.260 . S
Eu451 C450 2.835 . S
Eu451 O463 2.355 . S
Eu451 O465 2.374 . S
Eu451 O466 2.473 . S
Eu451 O467 2.480 . S
Eu451 O468 2.430 . S
Eu451 O469 2.670 . S
Eu451 O470 2.394 . S
C452 C450 1.500 . S
C452 C453 1.377 . S
C452 C457 1.377 . S
C453 C452 1.377 . S
C453 C454 1.395 . S
C453 H476 0.931 . S
C454 C453 1.395 . S
C454 C455 1.383 . S
C454 H477 0.931 . S
C455 C454 1.383 . S
C455 C456 1.394 . S
C456 C455 1.394 . S
C456 C457 1.378 . S
C456 H478 0.931 . S
C457 C452 1.377 . S
C457 C456 1.378 . S
C457 H479 0.931 . S
C458 O468 1.259 . S
C458 O469 1.270 . S
C459 O470 1.251 . S
C459 O471 1.251 . S
O460 C440 1.257 . S
O460 Eu441 2.473 . S
O461 C440 1.260 . S
O461 Eu441 2.480 . S
O462 Eu441 2.430 . S
O462 C448 1.259 . S
O463 Eu441 2.670 . S
O463 C448 1.270 . S
O463 Eu451 2.355 . S
O464 Eu441 2.394 . S
O464 C449 1.251 . S
O465 C449 1.251 . S
O465 Eu451 2.374 . S
O466 C450 1.257 . S
O466 Eu451 2.473 . S
O467 C450 1.260 . S
O467 Eu451 2.480 . S
O468 Eu451 2.430 . S
O468 C458 1.259 . S
O469 Eu441 2.355 . S
O469 Eu451 2.670 . S
O469 C458 1.270 . S
O470 Eu451 2.394 . S
O470 C459 1.251 . S
O471 Eu441 2.374 . S
O471 C459 1.251 . S
H472 C443 0.931 . S
H473 C444 0.931 . S
H474 C446 0.931 . S
H475 C447 0.931 . S
H476 C453 0.931 . S
H477 C454 0.931 . S
H478 C456 0.931 . S
H479 C457 0.931 . S
C480 Eu481 2.835 . S
C480 C482 1.500 . S
C480 O500 1.257 . S
C480 O501 1.260 . S
Eu481 C480 2.835 . S
Eu481 O500 2.473 . S
Eu481 O501 2.480 . S
Eu481 O502 2.430 . S
Eu481 O503 2.670 . S
Eu481 O504 2.394 . S
Eu481 O509 2.355 . S
Eu481 O511 2.374 . S
C482 C480 1.500 . S
C482 C483 1.377 . S
C482 C487 1.377 . S
C483 C482 1.377 . S
C483 C484 1.395 . S
C483 H512 0.931 . S
C484 C483 1.395 . S
C484 C485 1.383 . S
C484 H513 0.931 . S
C485 C484 1.383 . S
C485 C486 1.394 . S
C486 C485 1.394 . S
C486 C487 1.378 . S
C486 H514 0.931 . S
C487 C482 1.377 . S
C487 C486 1.378 . S
C487 H515 0.931 . S
C488 O502 1.259 . S
C488 O503 1.270 . S
C489 O504 1.251 . S
C489 O505 1.251 . S
C490 Eu491 2.835 . S
C490 C492 1.500 . S
C490 O506 1.257 . S
C490 O507 1.260 . S
Eu491 C490 2.835 . S
Eu491 O503 2.355 . S
Eu491 O505 2.374 . S
Eu491 O506 2.473 . S
Eu491 O507 2.480 . S
Eu491 O508 2.430 . S
Eu491 O509 2.670 . S
Eu491 O510 2.394 . S
C492 C490 1.500 . S
C492 C493 1.377 . S
C492 C497 1.377 . S
C493 C492 1.377 . S
C493 C494 1.395 . S
C493 H516 0.931 . S
C494 C493 1.395 . S
C494 C495 1.383 . S
C494 H517 0.931 . S
C495 C494 1.383 . S
C495 C496 1.394 . S
C496 C495 1.394 . S
C496 C497 1.378 . S
C496 H518 0.931 . S
C497 C492 1.377 . S
C497 C496 1.378 . S
C497 H519 0.931 . S
C498 O508 1.259 . S
C498 O509 1.270 . S
C499 O510 1.251 . S
C499 O511 1.251 . S
O500 C480 1.257 . S
O500 Eu481 2.473 . S
O501 C480 1.260 . S
O501 Eu481 2.480 . S
O502 Eu481 2.430 . S
O502 C488 1.259 . S
O503 Eu481 2.670 . S
O503 C488 1.270 . S
O503 Eu491 2.355 . S
O504 Eu481 2.394 . S
O504 C489 1.251 . S
O505 C489 1.251 . S
O505 Eu491 2.374 . S
O506 C490 1.257 . S
O506 Eu491 2.473 . S
O507 C490 1.260 . S
O507 Eu491 2.480 . S
O508 Eu491 2.430 . S
O508 C498 1.259 . S
O509 Eu481 2.355 . S
O509 Eu491 2.670 . S
O509 C498 1.270 . S
O510 Eu491 2.394 . S
O510 C499 1.251 . S
O511 Eu481 2.374 . S
O511 C499 1.251 . S
H512 C483 0.931 . S
H513 C484 0.931 . S
H514 C486 0.931 . S
H515 C487 0.931 . S
H516 C493 0.931 . S
H517 C494 0.931 . S
H518 C496 0.931 . S
H519 C497 0.931 . S
C520 Eu521 2.835 . S
C520 C522 1.500 . S
C520 O540 1.257 . S
C520 O541 1.260 . S
Eu521 C520 2.835 . S
Eu521 O540 2.473 . S
Eu521 O541 2.480 . S
Eu521 O542 2.430 . S
Eu521 O543 2.670 . S
Eu521 O544 2.394 . S
Eu521 O549 2.355 . S
Eu521 O551 2.374 . S
C522 C520 1.500 . S
C522 C523 1.377 . S
C522 C527 1.377 . S
C523 C522 1.377 . S
C523 C524 1.395 . S
C523 H552 0.931 . S
C524 C523 1.395 . S
C524 C525 1.383 . S
C524 H553 0.931 . S
C525 C524 1.383 . S
C525 C526 1.394 . S
C526 C525 1.394 . S
C526 C527 1.378 . S
C526 H554 0.931 . S
C527 C522 1.377 . S
C527 C526 1.378 . S
C527 H555 0.931 . S
C528 O542 1.259 . S
C528 O543 1.270 . S
C529 O544 1.251 . S
C529 O545 1.251 . S
C530 Eu531 2.835 . S
C530 C532 1.500 . S
C530 O546 1.257 . S
C530 O547 1.260 . S
Eu531 C530 2.835 . S
Eu531 O543 2.355 . S
Eu531 O545 2.374 . S
Eu531 O546 2.473 . S
Eu531 O547 2.480 . S
Eu531 O548 2.430 . S
Eu531 O549 2.670 . S
Eu531 O550 2.394 . S
C532 C530 1.500 . S
C532 C533 1.377 . S
C532 C537 1.377 . S
C533 C532 1.377 . S
C533 C534 1.395 . S
C533 H556 0.931 . S
C534 C533 1.395 . S
C534 C535 1.383 . S
C534 H557 0.931 . S
C535 C534 1.383 . S
C535 C536 1.394 . S
C536 C535 1.394 . S
C536 C537 1.378 . S
C536 H558 0.931 . S
C537 C532 1.377 . S
C537 C536 1.378 . S
C537 H559 0.931 . S
C538 O548 1.259 . S
C538 O549 1.270 . S
C539 O550 1.251 . S
C539 O551 1.251 . S
O540 C520 1.257 . S
O540 Eu521 2.473 . S
O541 C520 1.260 . S
O541 Eu521 2.480 . S
O542 Eu521 2.430 . S
O542 C528 1.259 . S
O543 Eu521 2.670 . S
O543 C528 1.270 . S
O543 Eu531 2.355 . S
O544 Eu521 2.394 . S
O544 C529 1.251 . S
O545 C529 1.251 . S
O545 Eu531 2.374 . S
O546 C530 1.257 . S
O546 Eu531 2.473 . S
O547 C530 1.260 . S
O547 Eu531 2.480 . S
O548 Eu531 2.430 . S
O548 C538 1.259 . S
O549 Eu521 2.355 . S
O549 Eu531 2.670 . S
O549 C538 1.270 . S
O550 Eu531 2.394 . S
O550 C539 1.251 . S
O551 Eu521 2.374 . S
O551 C539 1.251 . S
H552 C523 0.931 . S
H553 C524 0.931 . S
H554 C526 0.931 . S
H555 C527 0.931 . S
H556 C533 0.931 . S
H557 C534 0.931 . S
H558 C536 0.931 . S
H559 C537 0.931 . S
C560 Eu561 2.835 . S
C560 C562 1.500 . S
C560 O580 1.257 . S
C560 O581 1.260 . S
Eu561 C560 2.835 . S
Eu561 O580 2.473 . S
Eu561 O581 2.480 . S
Eu561 O582 2.430 . S
Eu561 O583 2.670 . S
Eu561 O584 2.394 . S
Eu561 O589 2.355 . S
Eu561 O591 2.374 . S
C562 C560 1.500 . S
C562 C563 1.377 . S
C562 C567 1.377 . S
C563 C562 1.377 . S
C563 C564 1.395 . S
C563 H592 0.931 . S
C564 C563 1.395 . S
C564 C565 1.383 . S
C564 H593 0.931 . S
C565 C564 1.383 . S
C565 C566 1.394 . S
C566 C565 1.394 . S
C566 C567 1.378 . S
C566 H594 0.931 . S
C567 C562 1.377 . S
C567 C566 1.378 . S
C567 H595 0.931 . S
C568 O582 1.259 . S
C568 O583 1.270 . S
C569 O584 1.251 . S
C569 O585 1.251 . S
C570 Eu571 2.835 . S
C570 C572 1.500 . S
C570 O586 1.257 . S
C570 O587 1.260 . S
Eu571 C570 2.835 . S
Eu571 O583 2.355 . S
Eu571 O585 2.374 . S
Eu571 O586 2.473 . S
Eu571 O587 2.480 . S
Eu571 O588 2.430 . S
Eu571 O589 2.670 . S
Eu571 O590 2.394 . S
C572 C570 1.500 . S
C572 C573 1.377 . S
C572 C577 1.377 . S
C573 C572 1.377 . S
C573 C574 1.395 . S
C573 H596 0.931 . S
C574 C573 1.395 . S
C574 C575 1.383 . S
C574 H597 0.931 . S
C575 C574 1.383 . S
C575 C576 1.394 . S
C576 C575 1.394 . S
C576 C577 1.378 . S
C576 H598 0.931 . S
C577 C572 1.377 . S
C577 C576 1.378 . S
C577 H599 0.931 . S
C578 O588 1.259 . S
C578 O589 1.270 . S
C579 O590 1.251 . S
C579 O591 1.251 . S
O580 C560 1.257 . S
O580 Eu561 2.473 . S
O581 C560 1.260 . S
O581 Eu561 2.480 . S
O582 Eu561 2.430 . S
O582 C568 1.259 . S
O583 Eu561 2.670 . S
O583 C568 1.270 . S
O583 Eu571 2.355 . S
O584 Eu561 2.394 . S
O584 C569 1.251 . S
O585 C569 1.251 . S
O585 Eu571 2.374 . S
O586 C570 1.257 . S
O586 Eu571 2.473 . S
O587 C570 1.260 . S
O587 Eu571 2.480 . S
O588 Eu571 2.430 . S
O588 C578 1.259 . S
O589 Eu561 2.355 . S
O589 Eu571 2.670 . S
O589 C578 1.270 . S
O590 Eu571 2.394 . S
O590 C579 1.251 . S
O591 Eu561 2.374 . S
O591 C579 1.251 . S
H592 C563 0.931 . S
H593 C564 0.931 . S
H594 C566 0.931 . S
H595 C567 0.931 . S
H596 C573 0.931 . S
H597 C574 0.931 . S
H598 C576 0.931 . S
H599 C577 0.931 . S
C600 Eu601 2.835 . S
C600 C602 1.500 . S
C600 O620 1.257 . S
C600 O621 1.260 . S
Eu601 C600 2.835 . S
Eu601 O620 2.473 . S
Eu601 O621 2.480 . S
Eu601 O622 2.430 1_556 S
Eu601 O623 2.670 1_556 S
Eu601 O624 2.394 1_556 S
Eu601 O629 2.355 1_455 S
Eu601 O631 2.374 1_455 S
C602 C600 1.500 . S
C602 C603 1.377 . S
C602 C607 1.377 . S
C603 C602 1.377 . S
C603 C604 1.395 . S
C603 H632 0.931 . S
C604 C603 1.395 . S
C604 C605 1.383 . S
C604 H633 0.931 . S
C605 C604 1.383 . S
C605 C606 1.394 . S
C606 C605 1.394 . S
C606 C607 1.378 . S
C606 H634 0.931 . S
C607 C602 1.377 . S
C607 C606 1.378 . S
C607 H635 0.931 . S
C608 O622 1.259 . S
C608 O623 1.270 . S
C609 O624 1.251 . S
C609 O625 1.251 . S
C610 Eu611 2.835 . S
C610 C612 1.500 . S
C610 O626 1.257 . S
C610 O627 1.260 . S
Eu611 C610 2.835 . S
Eu611 O623 2.355 1_655 S
Eu611 O625 2.374 1_655 S
Eu611 O626 2.473 . S
Eu611 O627 2.480 . S
Eu611 O628 2.430 1_554 S
Eu611 O629 2.670 1_554 S
Eu611 O630 2.394 1_554 S
C612 C610 1.500 . S
C612 C613 1.377 . S
C612 C617 1.377 . S
C613 C612 1.377 . S
C613 C614 1.395 . S
C613 H636 0.931 . S
C614 C613 1.395 . S
C614 C615 1.383 . S
C614 H637 0.931 . S
C615 C614 1.383 . S
C615 C616 1.394 . S
C616 C615 1.394 . S
C616 C617 1.378 . S
C616 H638 0.931 . S
C617 C612 1.377 . S
C617 C616 1.378 . S
C617 H639 0.931 . S
C618 O628 1.259 . S
C618 O629 1.270 . S
C619 O630 1.251 . S
C619 O631 1.251 . S
O620 C600 1.257 . S
O620 Eu601 2.473 . S
O621 C600 1.260 . S
O621 Eu601 2.480 . S
O622 Eu601 2.430 1_554 S
O622 C608 1.259 . S
O623 Eu601 2.670 1_554 S
O623 C608 1.270 . S
O623 Eu611 2.355 1_455 S
O624 Eu601 2.394 1_554 S
O624 C609 1.251 . S
O625 C609 1.251 . S
O625 Eu611 2.374 1_455 S
O626 C610 1.257 . S
O626 Eu611 2.473 . S
O627 C610 1.260 . S
O627 Eu611 2.480 . S
O628 Eu611 2.430 1_556 S
O628 C618 1.259 . S
O629 Eu601 2.355 1_655 S
O629 Eu611 2.670 1_556 S
O629 C618 1.270 . S
O630 Eu611 2.394 1_556 S
O630 C619 1.251 . S
O631 Eu601 2.374 1_655 S
O631 C619 1.251 . S
H632 C603 0.931 . S
H633 C604 0.931 . S
H634 C606 0.931 . S
H635 C607 0.931 . S
H636 C613 0.931 . S
H637 C614 0.931 . S
H638 C616 0.931 . S
H639 C617 0.931 . S
C640 C641 1.349 . S
C640 C642 1.327 . S
C640 H665 0.950 . S
C641 C640 1.349 . S
C641 C657 1.349 . S
C642 C640 1.327 . S
C642 C661 1.429 . S
C642 H666 0.950 . S
C643 C660 1.574 . S
C643 C662 1.368 . S
C643 H667 0.949 . S
H644 C648 0.949 . S
C645 C646 1.349 . S
C645 C647 1.327 . S
C645 H668 0.950 . S
C646 C645 1.349 . S
C646 C658 1.349 . S
C647 C645 1.327 . S
C647 C663 1.429 . S
C647 H669 0.950 . S
C648 H644 0.949 . S
C648 C656 1.574 . S
C648 C664 1.368 . S
H649 C657 0.950 . S
H650 C655 0.950 . S
H651 C656 0.949 . S
H652 C658 0.950 . S
H653 C659 0.950 . S
H654 C660 0.949 . S
C655 H650 0.950 . S
C655 C657 1.327 . S
C655 C661 1.429 . S
C656 C648 1.574 . S
C656 H651 0.949 . S
C656 C662 1.368 . S
C657 C641 1.349 . S
C657 H649 0.950 . S
C657 C655 1.327 . S
C658 C646 1.349 . S
C658 H652 0.950 . S
C658 C659 1.327 . S
C659 H653 0.950 . S
C659 C658 1.327 . S
C659 C663 1.429 . S
C660 C643 1.574 . S
C660 H654 0.949 . S
C660 C664 1.368 . S
C661 C642 1.429 . S
C661 C655 1.429 . S
C661 C662 1.523 . S
C662 C643 1.368 . S
C662 C656 1.368 . S
C662 C661 1.523 . S
C663 C647 1.429 . S
C663 C659 1.429 . S
C663 C664 1.523 . S
C664 C648 1.368 . S
C664 C660 1.368 . S
C664 C663 1.523 . S
H665 C640 0.950 . S
H666 C642 0.950 . S
H667 C643 0.949 . S
H668 C645 0.950 . S
H669 C647 0.950 . S
C670 C671 1.349 . S
C670 C672 1.327 . S
C670 H695 0.950 . S
C671 C670 1.349 . S
C671 C687 1.349 . S
C672 C670 1.327 . S
C672 C691 1.429 . S
C672 H696 0.950 . S
C673 C690 1.574 . S
C673 C692 1.368 . S
C673 H697 0.949 . S
H674 C678 0.949 . S
C675 C676 1.349 . S
C675 C677 1.327 . S
C675 H698 0.950 . S
C676 C675 1.349 . S
C676 C688 1.349 . S
C677 C675 1.327 . S
C677 C693 1.429 . S
C677 H699 0.950 . S
C678 H674 0.949 . S
C678 C686 1.574 . S
C678 C694 1.368 . S
H679 C687 0.950 . S
H680 C685 0.950 . S
H681 C686 0.949 . S
H682 C688 0.950 . S
H683 C689 0.950 . S
H684 C690 0.949 . S
C685 H680 0.950 . S
C685 C687 1.327 . S
C685 C691 1.429 . S
C686 C678 1.574 . S
C686 H681 0.949 . S
C686 C692 1.368 . S
C687 C671 1.349 . S
C687 H679 0.950 . S
C687 C685 1.327 . S
C688 C676 1.349 . S
C688 H682 0.950 . S
C688 C689 1.327 . S
C689 H683 0.950 . S
C689 C688 1.327 . S
C689 C693 1.429 . S
C690 C673 1.574 . S
C690 H684 0.949 . S
C690 C694 1.368 . S
C691 C672 1.429 . S
C691 C685 1.429 . S
C691 C692 1.523 . S
C692 C673 1.368 . S
C692 C686 1.368 . S
C692 C691 1.523 . S
C693 C677 1.429 . S
C693 C689 1.429 . S
C693 C694 1.523 . S
C694 C678 1.368 . S
C694 C690 1.368 . S
C694 C693 1.523 . S
H695 C670 0.950 . S
H696 C672 0.950 . S
H697 C673 0.949 . S
H698 C675 0.950 . S
H699 C677 0.950 . S
C700 C701 1.349 . S
C700 C702 1.327 . S
C700 H725 0.950 . S
C701 C700 1.349 . S
C701 C717 1.349 . S
C702 C700 1.327 . S
C702 C721 1.429 . S
C702 H726 0.950 . S
C703 C720 1.574 . S
C703 C722 1.368 . S
C703 H727 0.949 . S
H704 C708 0.949 . S
C705 C706 1.349 . S
C705 C707 1.327 . S
C705 H728 0.950 . S
C706 C705 1.349 . S
C706 C718 1.349 . S
C707 C705 1.327 . S
C707 C723 1.429 . S
C707 H729 0.950 . S
C708 H704 0.949 . S
C708 C716 1.574 . S
C708 C724 1.368 . S
H709 C717 0.950 . S
H710 C715 0.950 . S
H711 C716 0.949 . S
H712 C718 0.950 . S
H713 C719 0.950 . S
H714 C720 0.949 . S
C715 H710 0.950 . S
C715 C717 1.327 . S
C715 C721 1.429 . S
C716 C708 1.574 . S
C716 H711 0.949 . S
C716 C722 1.368 . S
C717 C701 1.349 . S
C717 H709 0.950 . S
C717 C715 1.327 . S
C718 C706 1.349 . S
C718 H712 0.950 . S
C718 C719 1.327 . S
C719 H713 0.950 . S
C719 C718 1.327 . S
C719 C723 1.429 . S
C720 C703 1.574 . S
C720 H714 0.949 . S
C720 C724 1.368 . S
C721 C702 1.429 . S
C721 C715 1.429 . S
C721 C722 1.523 . S
C722 C703 1.368 . S
C722 C716 1.368 . S
C722 C721 1.523 . S
C723 C707 1.429 . S
C723 C719 1.429 . S
C723 C724 1.523 . S
C724 C708 1.368 . S
C724 C720 1.368 . S
C724 C723 1.523 . S
H725 C700 0.950 . S
H726 C702 0.950 . S
H727 C703 0.949 . S
H728 C705 0.950 . S
H729 C707 0.950 . S
C730 C731 1.349 . S
C730 C732 1.327 . S
C730 H755 0.950 . S
C731 C730 1.349 . S
C731 C747 1.349 . S
C732 C730 1.327 . S
C732 C751 1.429 . S
C732 H756 0.950 . S
C733 C750 1.574 . S
C733 C752 1.368 . S
C733 H757 0.949 . S
H734 C738 0.949 . S
C735 C736 1.349 . S
C735 C737 1.327 . S
C735 H758 0.950 . S
C736 C735 1.349 . S
C736 C748 1.349 . S
C737 C735 1.327 . S
C737 C753 1.429 . S
C737 H759 0.950 . S
C738 H734 0.949 . S
C738 C746 1.574 . S
C738 C754 1.368 . S
H739 C747 0.950 . S
H740 C745 0.950 . S
H741 C746 0.949 . S
H742 C748 0.950 . S
H743 C749 0.950 . S
H744 C750 0.949 . S
C745 H740 0.950 . S
C745 C747 1.327 . S
C745 C751 1.429 . S
C746 C738 1.574 . S
C746 H741 0.949 . S
C746 C752 1.368 . S
C747 C731 1.349 . S
C747 H739 0.950 . S
C747 C745 1.327 . S
C748 C736 1.349 . S
C748 H742 0.950 . S
C748 C749 1.327 . S
C749 H743 0.950 . S
C749 C748 1.327 . S
C749 C753 1.429 . S
C750 C733 1.574 . S
C750 H744 0.949 . S
C750 C754 1.368 . S
C751 C732 1.429 . S
C751 C745 1.429 . S
C751 C752 1.523 . S
C752 C733 1.368 . S
C752 C746 1.368 . S
C752 C751 1.523 . S
C753 C737 1.429 . S
C753 C749 1.429 . S
C753 C754 1.523 . S
C754 C738 1.368 . S
C754 C750 1.368 . S
C754 C753 1.523 . S
H755 C730 0.950 . S
H756 C732 0.950 . S
H757 C733 0.949 . S
H758 C735 0.950 . S
H759 C737 0.950 . S
C760 C761 1.349 . S
C760 C762 1.327 . S
C760 H785 0.950 . S
C761 C760 1.349 . S
C761 C777 1.349 . S
C762 C760 1.327 . S
C762 C781 1.429 . S
C762 H786 0.950 . S
C763 C780 1.574 . S
C763 C782 1.368 . S
C763 H787 0.949 . S
H764 C768 0.949 . S
C765 C766 1.349 . S
C765 C767 1.327 . S
C765 H788 0.950 . S
C766 C765 1.349 . S
C766 C778 1.349 . S
C767 C765 1.327 . S
C767 C783 1.429 . S
C767 H789 0.950 . S
C768 H764 0.949 . S
C768 C776 1.574 . S
C768 C784 1.368 . S
H769 C777 0.950 . S
H770 C775 0.950 . S
H771 C776 0.949 . S
H772 C778 0.950 . S
H773 C779 0.950 . S
H774 C780 0.949 . S
C775 H770 0.950 . S
C775 C777 1.327 . S
C775 C781 1.429 . S
C776 C768 1.574 . S
C776 H771 0.949 . S
C776 C782 1.368 . S
C777 C761 1.349 . S
C777 H769 0.950 . S
C777 C775 1.327 . S
C778 C766 1.349 . S
C778 H772 0.950 . S
C778 C779 1.327 . S
C779 H773 0.950 . S
C779 C778 1.327 . S
C779 C783 1.429 . S
C780 C763 1.574 . S
C780 H774 0.949 . S
C780 C784 1.368 . S
C781 C762 1.429 . S
C781 C775 1.429 . S
C781 C782 1.523 . S
C782 C763 1.368 . S
C782 C776 1.368 . S
C782 C781 1.523 . S
C783 C767 1.429 . S
C783 C779 1.429 . S
C783 C784 1.523 . S
C784 C768 1.368 . S
C784 C780 1.368 . S
C784 C783 1.523 . S
H785 C760 0.950 . S
H786 C762 0.950 . S
H787 C763 0.949 . S
H788 C765 0.950 . S
H789 C767 0.950 . S
C790 C791 1.349 . S
C790 C792 1.327 . S
C790 H815 0.950 . S
C791 C790 1.349 . S
C791 C807 1.349 . S
C792 C790 1.327 . S
C792 C811 1.429 . S
C792 H816 0.950 . S
C793 C810 1.574 . S
C793 C812 1.368 . S
C793 H817 0.949 . S
H794 C798 0.949 . S
C795 C796 1.349 . S
C795 C797 1.327 . S
C795 H818 0.950 . S
C796 C795 1.349 . S
C796 C808 1.349 . S
C797 C795 1.327 . S
C797 C813 1.429 . S
C797 H819 0.950 . S
C798 H794 0.949 . S
C798 C806 1.574 . S
C798 C814 1.368 . S
H799 C807 0.950 . S
H800 C805 0.950 . S
H801 C806 0.949 . S
H802 C808 0.950 . S
H803 C809 0.950 . S
H804 C810 0.949 . S
C805 H800 0.950 . S
C805 C807 1.327 . S
C805 C811 1.429 . S
C806 C798 1.574 . S
C806 H801 0.949 . S
C806 C812 1.368 . S
C807 C791 1.349 . S
C807 H799 0.950 . S
C807 C805 1.327 . S
C808 C796 1.349 . S
C808 H802 0.950 . S
C808 C809 1.327 . S
C809 H803 0.950 . S
C809 C808 1.327 . S
C809 C813 1.429 . S
C810 C793 1.574 . S
C810 H804 0.949 . S
C810 C814 1.368 . S
C811 C792 1.429 . S
C811 C805 1.429 . S
C811 C812 1.523 . S
C812 C793 1.368 . S
C812 C806 1.368 . S
C812 C811 1.523 . S
C813 C797 1.429 . S
C813 C809 1.429 . S
C813 C814 1.523 . S
C814 C798 1.368 . S
C814 C810 1.368 . S
C814 C813 1.523 . S
H815 C790 0.950 . S
H816 C792 0.950 . S
H817 C793 0.949 . S
H818 C795 0.950 . S
H819 C797 0.950 . S
C820 C821 1.349 . S
C820 C822 1.327 . S
C820 H845 0.950 . S
C821 C820 1.349 . S
C821 C837 1.349 . S
C822 C820 1.327 . S
C822 C841 1.429 . S
C822 H846 0.950 . S
C823 C840 1.574 . S
C823 C842 1.368 . S
C823 H847 0.949 . S
H824 C828 0.949 . S
C825 C826 1.349 . S
C825 C827 1.327 . S
C825 H848 0.950 . S
C826 C825 1.349 . S
C826 C838 1.349 . S
C827 C825 1.327 . S
C827 C843 1.429 . S
C827 H849 0.950 . S
C828 H824 0.949 . S
C828 C836 1.574 . S
C828 C844 1.368 . S
H829 C837 0.950 . S
H830 C835 0.950 . S
H831 C836 0.949 . S
H832 C838 0.950 . S
H833 C839 0.950 . S
H834 C840 0.949 . S
C835 H830 0.950 . S
C835 C837 1.327 . S
C835 C841 1.429 . S
C836 C828 1.574 . S
C836 H831 0.949 . S
C836 C842 1.368 . S
C837 C821 1.349 . S
C837 H829 0.950 . S
C837 C835 1.327 . S
C838 C826 1.349 . S
C838 H832 0.950 . S
C838 C839 1.327 . S
C839 H833 0.950 . S
C839 C838 1.327 . S
C839 C843 1.429 . S
C840 C823 1.574 . S
C840 H834 0.949 . S
C840 C844 1.368 . S
C841 C822 1.429 . S
C841 C835 1.429 . S
C841 C842 1.523 . S
C842 C823 1.368 . S
C842 C836 1.368 . S
C842 C841 1.523 . S
C843 C827 1.429 . S
C843 C839 1.429 . S
C843 C844 1.523 . S
C844 C828 1.368 . S
C844 C840 1.368 . S
C844 C843 1.523 . S
H845 C820 0.950 . S
H846 C822 0.950 . S
H847 C823 0.949 . S
H848 C825 0.950 . S
H849 C827 0.950 . S
C850 C851 1.349 . S
C850 C852 1.327 . S
C850 H875 0.950 . S
C851 C850 1.349 . S
C851 C867 1.349 . S
C852 C850 1.327 . S
C852 C871 1.429 . S
C852 H876 0.950 . S
C853 C870 1.574 . S
C853 C872 1.368 . S
C853 H877 0.949 . S
H854 C858 0.949 . S
C855 C856 1.349 . S
C855 C857 1.327 . S
C855 H878 0.950 . S
C856 C855 1.349 . S
C856 C868 1.349 . S
C857 C855 1.327 . S
C857 C873 1.429 . S
C857 H879 0.950 . S
C858 H854 0.949 . S
C858 C866 1.574 . S
C858 C874 1.368 . S
H859 C867 0.950 . S
H860 C865 0.950 . S
H861 C866 0.949 . S
H862 C868 0.950 . S
H863 C869 0.950 . S
H864 C870 0.949 . S
C865 H860 0.950 . S
C865 C867 1.327 . S
C865 C871 1.429 . S
C866 C858 1.574 . S
C866 H861 0.949 . S
C866 C872 1.368 . S
C867 C851 1.349 . S
C867 H859 0.950 . S
C867 C865 1.327 . S
C868 C856 1.349 . S
C868 H862 0.950 . S
C868 C869 1.327 . S
C869 H863 0.950 . S
C869 C868 1.327 . S
C869 C873 1.429 . S
C870 C853 1.574 . S
C870 H864 0.949 . S
C870 C874 1.368 . S
C871 C852 1.429 . S
C871 C865 1.429 . S
C871 C872 1.523 . S
C872 C853 1.368 . S
C872 C866 1.368 . S
C872 C871 1.523 . S
C873 C857 1.429 . S
C873 C869 1.429 . S
C873 C874 1.523 . S
C874 C858 1.368 . S
C874 C870 1.368 . S
C874 C873 1.523 . S
H875 C850 0.950 . S
H876 C852 0.950 . S
H877 C853 0.949 . S
H878 C855 0.950 . S
H879 C857 0.950 . S
C880 C881 1.349 . S
C880 C882 1.327 . S
C880 H905 0.950 . S
C881 C880 1.349 . S
C881 C897 1.349 . S
C882 C880 1.327 . S
C882 C901 1.429 . S
C882 H906 0.950 . S
C883 C900 1.574 . S
C883 C902 1.368 . S
C883 H907 0.949 . S
H884 C888 0.949 . S
C885 C886 1.349 . S
C885 C887 1.327 . S
C885 H908 0.950 . S
C886 C885 1.349 . S
C886 C898 1.349 . S
C887 C885 1.327 . S
C887 C903 1.429 . S
C887 H909 0.950 . S
C888 H884 0.949 . S
C888 C896 1.574 . S
C888 C904 1.368 . S
H889 C897 0.950 . S
H890 C895 0.950 . S
H891 C896 0.949 . S
H892 C898 0.950 . S
H893 C899 0.950 . S
H894 C900 0.949 . S
C895 H890 0.950 . S
C895 C897 1.327 . S
C895 C901 1.429 . S
C896 C888 1.574 . S
C896 H891 0.949 . S
C896 C902 1.368 . S
C897 C881 1.349 . S
C897 H889 0.950 . S
C897 C895 1.327 . S
C898 C886 1.349 . S
C898 H892 0.950 . S
C898 C899 1.327 . S
C899 H893 0.950 . S
C899 C898 1.327 . S
C899 C903 1.429 . S
C900 C883 1.574 . S
C900 H894 0.949 . S
C900 C904 1.368 . S
C901 C882 1.429 . S
C901 C895 1.429 . S
C901 C902 1.523 . S
C902 C883 1.368 . S
C902 C896 1.368 . S
C902 C901 1.523 . S
C903 C887 1.429 . S
C903 C899 1.429 . S
C903 C904 1.523 . S
C904 C888 1.368 . S
C904 C900 1.368 . S
C904 C903 1.523 . S
H905 C880 0.950 . S
H906 C882 0.950 . S
H907 C883 0.949 . S
H908 C885 0.950 . S
H909 C887 0.950 . S
C910 C911 1.349 . S
C910 C912 1.327 . S
C910 H935 0.950 . S
C911 C910 1.349 . S
C911 C927 1.349 . S
C912 C910 1.327 . S
C912 C931 1.429 . S
C912 H936 0.950 . S
C913 C930 1.574 . S
C913 C932 1.368 . S
C913 H937 0.949 . S
H914 C918 0.949 . S
C915 C916 1.349 . S
C915 C917 1.327 . S
C915 H938 0.950 . S
C916 C915 1.349 . S
C916 C928 1.349 . S
C917 C915 1.327 . S
C917 C933 1.429 . S
C917 H939 0.950 . S
C918 H914 0.949 . S
C918 C926 1.574 . S
C918 C934 1.368 . S
H919 C927 0.950 . S
H920 C925 0.950 . S
H921 C926 0.949 . S
H922 C928 0.950 . S
H923 C929 0.950 . S
H924 C930 0.949 . S
C925 H920 0.950 . S
C925 C927 1.327 . S
C925 C931 1.429 . S
C926 C918 1.574 . S
C926 H921 0.949 . S
C926 C932 1.368 . S
C927 C911 1.349 . S
C927 H919 0.950 . S
C927 C925 1.327 . S
C928 C916 1.349 . S
C928 H922 0.950 . S
C928 C929 1.327 . S
C929 H923 0.950 . S
C929 C928 1.327 . S
C929 C933 1.429 . S
C930 C913 1.574 . S
C930 H924 0.949 . S
C930 C934 1.368 . S
C931 C912 1.429 . S
C931 C925 1.429 . S
C931 C932 1.523 . S
C932 C913 1.368 . S
C932 C926 1.368 . S
C932 C931 1.523 . S
C933 C917 1.429 . S
C933 C929 1.429 . S
C933 C934 1.523 . S
C934 C918 1.368 . S
C934 C930 1.368 . S
C934 C933 1.523 . S
H935 C910 0.950 . S
H936 C912 0.950 . S
H937 C913 0.949 . S
H938 C915 0.950 . S
H939 C917 0.950 . S
C940 C941 1.349 . S
C940 C942 1.327 . S
C940 H965 0.950 . S
C941 C940 1.349 . S
C941 C957 1.349 . S
C942 C940 1.327 . S
C942 C961 1.429 . S
C942 H966 0.950 . S
C943 C960 1.574 . S
C943 C962 1.368 . S
C943 H967 0.949 . S
H944 C948 0.949 . S
C945 C946 1.349 . S
C945 C947 1.327 . S
C945 H968 0.950 . S
C946 C945 1.349 . S
C946 C958 1.349 . S
C947 C945 1.327 . S
C947 C963 1.429 . S
C947 H969 0.950 . S
C948 H944 0.949 . S
C948 C956 1.574 . S
C948 C964 1.368 . S
H949 C957 0.950 . S
H950 C955 0.950 . S
H951 C956 0.949 . S
H952 C958 0.950 . S
H953 C959 0.950 . S
H954 C960 0.949 . S
C955 H950 0.950 . S
C955 C957 1.327 . S
C955 C961 1.429 . S
C956 C948 1.574 . S
C956 H951 0.949 . S
C956 C962 1.368 . S
C957 C941 1.349 . S
C957 H949 0.950 . S
C957 C955 1.327 . S
C958 C946 1.349 . S
C958 H952 0.950 . S
C958 C959 1.327 . S
C959 H953 0.950 . S
C959 C958 1.327 . S
C959 C963 1.429 . S
C960 C943 1.574 . S
C960 H954 0.949 . S
C960 C964 1.368 . S
C961 C942 1.429 . S
C961 C955 1.429 . S
C961 C962 1.523 . S
C962 C943 1.368 . S
C962 C956 1.368 . S
C962 C961 1.523 . S
C963 C947 1.429 . S
C963 C959 1.429 . S
C963 C964 1.523 . S
C964 C948 1.368 . S
C964 C960 1.368 . S
C964 C963 1.523 . S
H965 C940 0.950 . S
H966 C942 0.950 . S
H967 C943 0.949 . S
H968 C945 0.950 . S
H969 C947 0.950 . S
C970 C971 1.349 . S
C970 C972 1.327 . S
C970 H995 0.950 . S
C971 C970 1.349 . S
C971 C987 1.349 . S
C972 C970 1.327 . S
C972 C991 1.429 . S
C972 H996 0.950 . S
C973 C990 1.574 . S
C973 C992 1.368 . S
C973 H997 0.949 . S
H974 C978 0.949 . S
C975 C976 1.349 . S
C975 C977 1.327 . S
C975 H998 0.950 . S
C976 C975 1.349 . S
C976 C988 1.349 . S
C977 C975 1.327 . S
C977 C993 1.429 . S
C977 H999 0.950 . S
C978 H974 0.949 . S
C978 C986 1.574 . S
C978 C994 1.368 . S
H979 C987 0.950 . S
H980 C985 0.950 . S
H981 C986 0.949 . S
H982 C988 0.950 . S
H983 C989 0.950 . S
H984 C990 0.949 . S
C985 H980 0.950 . S
C985 C987 1.327 . S
C985 C991 1.429 . S
C986 C978 1.574 . S
C986 H981 0.949 . S
C986 C992 1.368 . S
C987 C971 1.349 . S
C987 H979 0.950 . S
C987 C985 1.327 . S
C988 C976 1.349 . S
C988 H982 0.950 . S
C988 C989 1.327 . S
C989 H983 0.950 . S
C989 C988 1.327 . S
C989 C993 1.429 . S
C990 C973 1.574 . S
C990 H984 0.949 . S
C990 C994 1.368 . S
C991 C972 1.429 . S
C991 C985 1.429 . S
C991 C992 1.523 . S
C992 C973 1.368 . S
C992 C986 1.368 . S
C992 C991 1.523 . S
C993 C977 1.429 . S
C993 C989 1.429 . S
C993 C994 1.523 . S
C994 C978 1.368 . S
C994 C990 1.368 . S
C994 C993 1.523 . S
H995 C970 0.950 . S
H996 C972 0.950 . S
H997 C973 0.949 . S
H998 C975 0.950 . S
H999 C977 0.950 . S
C1000 C1001 1.349 . S
C1000 C1002 1.327 . S
C1000 H1025 0.950 . S
C1001 C1000 1.349 . S
C1001 C1017 1.349 . S
C1002 C1000 1.327 . S
C1002 C1021 1.429 . S
C1002 H1026 0.950 . S
C1003 C1020 1.574 . S
C1003 C1022 1.368 . S
C1003 H1027 0.949 . S
H1004 C1008 0.949 . S
C1005 C1006 1.349 . S
C1005 C1007 1.327 . S
C1005 H1028 0.950 . S
C1006 C1005 1.349 . S
C1006 C1018 1.349 . S
C1007 C1005 1.327 . S
C1007 C1023 1.429 . S
C1007 H1029 0.950 . S
C1008 H1004 0.949 . S
C1008 C1016 1.574 . S
C1008 C1024 1.368 . S
H1009 C1017 0.950 . S
H1010 C1015 0.950 . S
H1011 C1016 0.949 . S
H1012 C1018 0.950 . S
H1013 C1019 0.950 . S
H1014 C1020 0.949 . S
C1015 H1010 0.950 . S
C1015 C1017 1.327 . S
C1015 C1021 1.429 . S
C1016 C1008 1.574 . S
C1016 H1011 0.949 . S
C1016 C1022 1.368 . S
C1017 C1001 1.349 . S
C1017 H1009 0.950 . S
C1017 C1015 1.327 . S
C1018 C1006 1.349 . S
C1018 H1012 0.950 . S
C1018 C1019 1.327 . S
C1019 H1013 0.950 . S
C1019 C1018 1.327 . S
C1019 C1023 1.429 . S
C1020 C1003 1.574 . S
C1020 H1014 0.949 . S
C1020 C1024 1.368 . S
C1021 C1002 1.429 . S
C1021 C1015 1.429 . S
C1021 C1022 1.523 . S
C1022 C1003 1.368 . S
C1022 C1016 1.368 . S
C1022 C1021 1.523 . S
C1023 C1007 1.429 . S
C1023 C1019 1.429 . S
C1023 C1024 1.523 . S
C1024 C1008 1.368 . S
C1024 C1020 1.368 . S
C1024 C1023 1.523 . S
H1025 C1000 0.950 . S
H1026 C1002 0.950 . S
H1027 C1003 0.949 . S
H1028 C1005 0.950 . S
H1029 C1007 0.950 . S
C1030 C1031 1.349 . S
C1030 C1032 1.327 . S
C1030 H1055 0.950 . S
C1031 C1030 1.349 . S
C1031 C1047 1.349 . S
C1032 C1030 1.327 . S
C1032 C1051 1.429 . S
C1032 H1056 0.950 . S
C1033 C1050 1.574 . S
C1033 C1052 1.368 . S
C1033 H1057 0.949 . S
H1034 C1038 0.949 . S
C1035 C1036 1.349 . S
C1035 C1037 1.327 . S
C1035 H1058 0.950 . S
C1036 C1035 1.349 . S
C1036 C1048 1.349 . S
C1037 C1035 1.327 . S
C1037 C1053 1.429 . S
C1037 H1059 0.950 . S
C1038 H1034 0.949 . S
C1038 C1046 1.574 . S
C1038 C1054 1.368 . S
H1039 C1047 0.950 . S
H1040 C1045 0.950 . S
H1041 C1046 0.949 . S
H1042 C1048 0.950 . S
H1043 C1049 0.950 . S
H1044 C1050 0.949 . S
C1045 H1040 0.950 . S
C1045 C1047 1.327 . S
C1045 C1051 1.429 . S
C1046 C1038 1.574 . S
C1046 H1041 0.949 . S
C1046 C1052 1.368 . S
C1047 C1031 1.349 . S
C1047 H1039 0.950 . S
C1047 C1045 1.327 . S
C1048 C1036 1.349 . S
C1048 H1042 0.950 . S
C1048 C1049 1.327 . S
C1049 H1043 0.950 . S
C1049 C1048 1.327 . S
C1049 C1053 1.429 . S
C1050 C1033 1.574 . S
C1050 H1044 0.949 . S
C1050 C1054 1.368 . S
C1051 C1032 1.429 . S
C1051 C1045 1.429 . S
C1051 C1052 1.523 . S
C1052 C1033 1.368 . S
C1052 C1046 1.368 . S
C1052 C1051 1.523 . S
C1053 C1037 1.429 . S
C1053 C1049 1.429 . S
C1053 C1054 1.523 . S
C1054 C1038 1.368 . S
C1054 C1050 1.368 . S
C1054 C1053 1.523 . S
H1055 C1030 0.950 . S
H1056 C1032 0.950 . S
H1057 C1033 0.949 . S
H1058 C1035 0.950 . S
H1059 C1037 0.950 . S
C1060 C1061 1.349 . S
C1060 C1062 1.327 . S
C1060 H1085 0.950 . S
C1061 C1060 1.349 . S
C1061 C1077 1.349 . S
C1062 C1060 1.327 . S
C1062 C1081 1.429 . S
C1062 H1086 0.950 . S
C1063 C1080 1.574 . S
C1063 C1082 1.368 . S
C1063 H1087 0.949 . S
H1064 C1068 0.949 . S
C1065 C1066 1.349 . S
C1065 C1067 1.327 . S
C1065 H1088 0.950 . S
C1066 C1065 1.349 . S
C1066 C1078 1.349 . S
C1067 C1065 1.327 . S
C1067 C1083 1.429 . S
C1067 H1089 0.950 . S
C1068 H1064 0.949 . S
C1068 C1076 1.574 . S
C1068 C1084 1.368 . S
H1069 C1077 0.950 . S
H1070 C1075 0.950 . S
H1071 C1076 0.949 . S
H1072 C1078 0.950 . S
H1073 C1079 0.950 . S
H1074 C1080 0.949 . S
C1075 H1070 0.950 . S
C1075 C1077 1.327 . S
C1075 C1081 1.429 . S
C1076 C1068 1.574 . S
C1076 H1071 0.949 . S
C1076 C1082 1.368 . S
C1077 C1061 1.349 . S
C1077 H1069 0.950 . S
C1077 C1075 1.327 . S
C1078 C1066 1.349 . S
C1078 H1072 0.950 . S
C1078 C1079 1.327 . S
C1079 H1073 0.950 . S
C1079 C1078 1.327 . S
C1079 C1083 1.429 . S
C1080 C1063 1.574 . S
C1080 H1074 0.949 . S
C1080 C1084 1.368 . S
C1081 C1062 1.429 . S
C1081 C1075 1.429 . S
C1081 C1082 1.523 . S
C1082 C1063 1.368 . S
C1082 C1076 1.368 . S
C1082 C1081 1.523 . S
C1083 C1067 1.429 . S
C1083 C1079 1.429 . S
C1083 C1084 1.523 . S
C1084 C1068 1.368 . S
C1084 C1080 1.368 . S
C1084 C1083 1.523 . S
H1085 C1060 0.950 . S
H1086 C1062 0.950 . S
H1087 C1063 0.949 . S
H1088 C1065 0.950 . S
H1089 C1067 0.950 . S
C1090 C1091 1.349 . S
C1090 C1092 1.327 . S
C1090 H1115 0.950 . S
C1091 C1090 1.349 . S
C1091 C1107 1.349 . S
C1092 C1090 1.327 . S
C1092 C1111 1.429 . S
C1092 H1116 0.950 . S
C1093 C1110 1.574 . S
C1093 C1112 1.368 . S
C1093 H1117 0.949 . S
H1094 C1098 0.949 . S
C1095 C1096 1.349 . S
C1095 C1097 1.327 . S
C1095 H1118 0.950 . S
C1096 C1095 1.349 . S
C1096 C1108 1.349 . S
C1097 C1095 1.327 . S
C1097 C1113 1.429 . S
C1097 H1119 0.950 . S
C1098 H1094 0.949 . S
C1098 C1106 1.574 . S
C1098 C1114 1.368 . S
H1099 C1107 0.950 . S
H1100 C1105 0.950 . S
H1101 C1106 0.949 . S
H1102 C1108 0.950 . S
H1103 C1109 0.950 . S
H1104 C1110 0.949 . S
C1105 H1100 0.950 . S
C1105 C1107 1.327 . S
C1105 C1111 1.429 . S
C1106 C1098 1.574 . S
C1106 H1101 0.949 . S
C1106 C1112 1.368 . S
C1107 C1091 1.349 . S
C1107 H1099 0.950 . S
C1107 C1105 1.327 . S
C1108 C1096 1.349 . S
C1108 H1102 0.950 . S
C1108 C1109 1.327 . S
C1109 H1103 0.950 . S
C1109 C1108 1.327 . S
C1109 C1113 1.429 . S
C1110 C1093 1.574 . S
C1110 H1104 0.949 . S
C1110 C1114 1.368 . S
C1111 C1092 1.429 . S
C1111 C1105 1.429 . S
C1111 C1112 1.523 . S
C1112 C1093 1.368 . S
C1112 C1106 1.368 . S
C1112 C1111 1.523 . S
C1113 C1097 1.429 . S
C1113 C1109 1.429 . S
C1113 C1114 1.523 . S
C1114 C1098 1.368 . S
C1114 C1110 1.368 . S
C1114 C1113 1.523 . S
H1115 C1090 0.950 . S
H1116 C1092 0.950 . S
H1117 C1093 0.949 . S
H1118 C1095 0.950 . S
H1119 C1097 0.950 . S
C1120 C1121 1.349 . S
C1120 C1122 1.327 . S
C1120 H1145 0.950 . S
C1121 C1120 1.349 . S
C1121 C1137 1.349 . S
C1122 C1120 1.327 . S
C1122 C1141 1.429 . S
C1122 H1146 0.950 . S
C1123 C1140 1.574 . S
C1123 C1142 1.368 . S
C1123 H1147 0.949 . S
H1124 C1128 0.949 . S
C1125 C1126 1.349 . S
C1125 C1127 1.327 . S
C1125 H1148 0.950 . S
C1126 C1125 1.349 . S
C1126 C1138 1.349 . S
C1127 C1125 1.327 . S
C1127 C1143 1.429 . S
C1127 H1149 0.950 . S
C1128 H1124 0.949 . S
C1128 C1136 1.574 . S
C1128 C1144 1.368 . S
H1129 C1137 0.950 . S
H1130 C1135 0.950 . S
H1131 C1136 0.949 . S
H1132 C1138 0.950 . S
H1133 C1139 0.950 . S
H1134 C1140 0.949 . S
C1135 H1130 0.950 . S
C1135 C1137 1.327 . S
C1135 C1141 1.429 . S
C1136 C1128 1.574 . S
C1136 H1131 0.949 . S
C1136 C1142 1.368 . S
C1137 C1121 1.349 . S
C1137 H1129 0.950 . S
C1137 C1135 1.327 . S
C1138 C1126 1.349 . S
C1138 H1132 0.950 . S
C1138 C1139 1.327 . S
C1139 H1133 0.950 . S
C1139 C1138 1.327 . S
C1139 C1143 1.429 . S
C1140 C1123 1.574 . S
C1140 H1134 0.949 . S
C1140 C1144 1.368 . S
C1141 C1122 1.429 . S
C1141 C1135 1.429 . S
C1141 C1142 1.523 . S
C1142 C1123 1.368 . S
C1142 C1136 1.368 . S
C1142 C1141 1.523 . S
C1143 C1127 1.429 . S
C1143 C1139 1.429 . S
C1143 C1144 1.523 . S
C1144 C1128 1.368 . S
C1144 C1140 1.368 . S
C1144 C1143 1.523 . S
H1145 C1120 0.950 . S
H1146 C1122 0.950 . S
H1147 C1123 0.949 . S
H1148 C1125 0.950 . S
H1149 C1127 0.950 . S
C1150 C1151 1.349 . S
C1150 C1152 1.327 . S
C1150 H1175 0.950 . S
C1151 C1150 1.349 . S
C1151 C1167 1.349 . S
C1152 C1150 1.327 . S
C1152 C1171 1.429 . S
C1152 H1176 0.950 . S
C1153 C1170 1.574 . S
C1153 C1172 1.368 . S
C1153 H1177 0.949 . S
H1154 C1158 0.949 . S
C1155 C1156 1.349 . S
C1155 C1157 1.327 . S
C1155 H1178 0.950 . S
C1156 C1155 1.349 . S
C1156 C1168 1.349 . S
C1157 C1155 1.327 . S
C1157 C1173 1.429 . S
C1157 H1179 0.950 . S
C1158 H1154 0.949 . S
C1158 C1166 1.574 . S
C1158 C1174 1.368 . S
H1159 C1167 0.950 . S
H1160 C1165 0.950 . S
H1161 C1166 0.949 . S
H1162 C1168 0.950 . S
H1163 C1169 0.950 . S
H1164 C1170 0.949 . S
C1165 H1160 0.950 . S
C1165 C1167 1.327 . S
C1165 C1171 1.429 . S
C1166 C1158 1.574 . S
C1166 H1161 0.949 . S
C1166 C1172 1.368 . S
C1167 C1151 1.349 . S
C1167 H1159 0.950 . S
C1167 C1165 1.327 . S
C1168 C1156 1.349 . S
C1168 H1162 0.950 . S
C1168 C1169 1.327 . S
C1169 H1163 0.950 . S
C1169 C1168 1.327 . S
C1169 C1173 1.429 . S
C1170 C1153 1.574 . S
C1170 H1164 0.949 . S
C1170 C1174 1.368 . S
C1171 C1152 1.429 . S
C1171 C1165 1.429 . S
C1171 C1172 1.523 . S
C1172 C1153 1.368 . S
C1172 C1166 1.368 . S
C1172 C1171 1.523 . S
C1173 C1157 1.429 . S
C1173 C1169 1.429 . S
C1173 C1174 1.523 . S
C1174 C1158 1.368 . S
C1174 C1170 1.368 . S
C1174 C1173 1.523 . S
H1175 C1150 0.950 . S
H1176 C1152 0.950 . S
H1177 C1153 0.949 . S
H1178 C1155 0.950 . S
H1179 C1157 0.950 . S
C1180 C1181 1.349 . S
C1180 C1182 1.327 . S
C1180 H1205 0.950 . S
C1181 C1180 1.349 . S
C1181 C1197 1.349 . S
C1182 C1180 1.327 . S
C1182 C1201 1.429 . S
C1182 H1206 0.950 . S
C1183 C1200 1.574 . S
C1183 C1202 1.368 . S
C1183 H1207 0.949 . S
H1184 C1188 0.949 . S
C1185 C1186 1.349 . S
C1185 C1187 1.327 . S
C1185 H1208 0.950 . S
C1186 C1185 1.349 . S
C1186 C1198 1.349 . S
C1187 C1185 1.327 . S
C1187 C1203 1.429 . S
C1187 H1209 0.950 . S
C1188 H1184 0.949 . S
C1188 C1196 1.574 . S
C1188 C1204 1.368 . S
H1189 C1197 0.950 . S
H1190 C1195 0.950 . S
H1191 C1196 0.949 . S
H1192 C1198 0.950 . S
H1193 C1199 0.950 . S
H1194 C1200 0.949 . S
C1195 H1190 0.950 . S
C1195 C1197 1.327 . S
C1195 C1201 1.429 . S
C1196 C1188 1.574 . S
C1196 H1191 0.949 . S
C1196 C1202 1.368 . S
C1197 C1181 1.349 . S
C1197 H1189 0.950 . S
C1197 C1195 1.327 . S
C1198 C1186 1.349 . S
C1198 H1192 0.950 . S
C1198 C1199 1.327 . S
C1199 H1193 0.950 . S
C1199 C1198 1.327 . S
C1199 C1203 1.429 . S
C1200 C1183 1.574 . S
C1200 H1194 0.949 . S
C1200 C1204 1.368 . S
C1201 C1182 1.429 . S
C1201 C1195 1.429 . S
C1201 C1202 1.523 . S
C1202 C1183 1.368 . S
C1202 C1196 1.368 . S
C1202 C1201 1.523 . S
C1203 C1187 1.429 . S
C1203 C1199 1.429 . S
C1203 C1204 1.523 . S
C1204 C1188 1.368 . S
C1204 C1200 1.368 . S
C1204 C1203 1.523 . S
H1205 C1180 0.950 . S
H1206 C1182 0.950 . S
H1207 C1183 0.949 . S
H1208 C1185 0.950 . S
H1209 C1187 0.950 . S
C1210 C1211 1.349 . S
C1210 C1212 1.327 . S
C1210 H1235 0.950 . S
C1211 C1210 1.349 . S
C1211 C1227 1.349 . S
C1212 C1210 1.327 . S
C1212 C1231 1.429 . S
C1212 H1236 0.950 . S
C1213 C1230 1.574 . S
C1213 C1232 1.368 . S
C1213 H1237 0.949 . S
H1214 C1218 0.949 . S
C1215 C1216 1.349 . S
C1215 C1217 1.327 . S
C1215 H1238 0.950 . S
C1216 C1215 1.349 . S
C1216 C1228 1.349 . S
C1217 C1215 1.327 . S
C1217 C1233 1.429 . S
C1217 H1239 0.950 . S
C1218 H1214 0.949 . S
C1218 C1226 1.574 . S
C1218 C1234 1.368 . S
H1219 C1227 0.950 . S
H1220 C1225 0.950 . S
H1221 C1226 0.949 . S
H1222 C1228 0.950 . S
H1223 C1229 0.950 . S
H1224 C1230 0.949 . S
C1225 H1220 0.950 . S
C1225 C1227 1.327 . S
C1225 C1231 1.429 . S
C1226 C1218 1.574 . S
C1226 H1221 0.949 . S
C1226 C1232 1.368 . S
C1227 C1211 1.349 . S
C1227 H1219 0.950 . S
C1227 C1225 1.327 . S
C1228 C1216 1.349 . S
C1228 H1222 0.950 . S
C1228 C1229 1.327 . S
C1229 H1223 0.950 . S
C1229 C1228 1.327 . S
C1229 C1233 1.429 . S
C1230 C1213 1.574 . S
C1230 H1224 0.949 . S
C1230 C1234 1.368 . S
C1231 C1212 1.429 . S
C1231 C1225 1.429 . S
C1231 C1232 1.523 . S
C1232 C1213 1.368 . S
C1232 C1226 1.368 . S
C1232 C1231 1.523 . S
C1233 C1217 1.429 . S
C1233 C1229 1.429 . S
C1233 C1234 1.523 . S
C1234 C1218 1.368 . S
C1234 C1230 1.368 . S
C1234 C1233 1.523 . S
H1235 C1210 0.950 . S
H1236 C1212 0.950 . S
H1237 C1213 0.949 . S
H1238 C1215 0.950 . S
H1239 C1217 0.950 . S
C1240 C1241 1.349 . S
C1240 C1242 1.327 . S
C1240 H1265 0.950 . S
C1241 C1240 1.349 . S
C1241 C1257 1.349 . S
C1242 C1240 1.327 . S
C1242 C1261 1.429 . S
C1242 H1266 0.950 . S
C1243 C1260 1.574 . S
C1243 C1262 1.368 . S
C1243 H1267 0.949 . S
H1244 C1248 0.949 . S
C1245 C1246 1.349 . S
C1245 C1247 1.327 . S
C1245 H1268 0.950 . S
C1246 C1245 1.349 . S
C1246 C1258 1.349 . S
C1247 C1245 1.327 . S
C1247 C1263 1.429 . S
C1247 H1269 0.950 . S
C1248 H1244 0.949 . S
C1248 C1256 1.574 . S
C1248 C1264 1.368 . S
H1249 C1257 0.950 . S
H1250 C1255 0.950 . S
H1251 C1256 0.949 . S
H1252 C1258 0.950 . S
H1253 C1259 0.950 . S
H1254 C1260 0.949 . S
C1255 H1250 0.950 . S
C1255 C1257 1.327 . S
C1255 C1261 1.429 . S
C1256 C1248 1.574 . S
C1256 H1251 0.949 . S
C1256 C1262 1.368 . S
C1257 C1241 1.349 . S
C1257 H1249 0.950 . S
C1257 C1255 1.327 . S
C1258 C1246 1.349 . S
C1258 H1252 0.950 . S
C1258 C1259 1.327 . S
C1259 H1253 0.950 . S
C1259 C1258 1.327 . S
C1259 C1263 1.429 . S
C1260 C1243 1.574 . S
C1260 H1254 0.949 . S
C1260 C1264 1.368 . S
C1261 C1242 1.429 . S
C1261 C1255 1.429 . S
C1261 C1262 1.523 . S
C1262 C1243 1.368 . S
C1262 C1256 1.368 . S
C1262 C1261 1.523 . S
C1263 C1247 1.429 . S
C1263 C1259 1.429 . S
C1263 C1264 1.523 . S
C1264 C1248 1.368 . S
C1264 C1260 1.368 . S
C1264 C1263 1.523 . S
H1265 C1240 0.950 . S
H1266 C1242 0.950 . S
H1267 C1243 0.949 . S
H1268 C1245 0.950 . S
H1269 C1247 0.950 . S
C1270 C1271 1.349 . S
C1270 C1272 1.327 . S
C1270 H1295 0.950 . S
C1271 C1270 1.349 . S
C1271 C1287 1.349 . S
C1272 C1270 1.327 . S
C1272 C1291 1.429 . S
C1272 H1296 0.950 . S
C1273 C1290 1.574 . S
C1273 C1292 1.368 . S
C1273 H1297 0.949 . S
H1274 C1278 0.949 . S
C1275 C1276 1.349 . S
C1275 C1277 1.327 . S
C1275 H1298 0.950 . S
C1276 C1275 1.349 . S
C1276 C1288 1.349 . S
C1277 C1275 1.327 . S
C1277 C1293 1.429 . S
C1277 H1299 0.950 . S
C1278 H1274 0.949 . S
C1278 C1286 1.574 . S
C1278 C1294 1.368 . S
H1279 C1287 0.950 . S
H1280 C1285 0.950 . S
H1281 C1286 0.949 . S
H1282 C1288 0.950 . S
H1283 C1289 0.950 . S
H1284 C1290 0.949 . S
C1285 H1280 0.950 . S
C1285 C1287 1.327 . S
C1285 C1291 1.429 . S
C1286 C1278 1.574 . S
C1286 H1281 0.949 . S
C1286 C1292 1.368 . S
C1287 C1271 1.349 . S
C1287 H1279 0.950 . S
C1287 C1285 1.327 . S
C1288 C1276 1.349 . S
C1288 H1282 0.950 . S
C1288 C1289 1.327 . S
C1289 H1283 0.950 . S
C1289 C1288 1.327 . S
C1289 C1293 1.429 . S
C1290 C1273 1.574 . S
C1290 H1284 0.949 . S
C1290 C1294 1.368 . S
C1291 C1272 1.429 . S
C1291 C1285 1.429 . S
C1291 C1292 1.523 . S
C1292 C1273 1.368 . S
C1292 C1286 1.368 . S
C1292 C1291 1.523 . S
C1293 C1277 1.429 . S
C1293 C1289 1.429 . S
C1293 C1294 1.523 . S
C1294 C1278 1.368 . S
C1294 C1290 1.368 . S
C1294 C1293 1.523 . S
H1295 C1270 0.950 . S
H1296 C1272 0.950 . S
H1297 C1273 0.949 . S
H1298 C1275 0.950 . S
H1299 C1277 0.950 . S
C1300 C1301 1.349 . S
C1300 C1302 1.327 . S
C1300 H1325 0.950 . S
C1301 C1300 1.349 . S
C1301 C1317 1.349 . S
C1302 C1300 1.327 . S
C1302 C1321 1.429 . S
C1302 H1326 0.950 . S
C1303 C1320 1.574 . S
C1303 C1322 1.368 . S
C1303 H1327 0.949 . S
H1304 C1308 0.949 . S
C1305 C1306 1.349 . S
C1305 C1307 1.327 . S
C1305 H1328 0.950 . S
C1306 C1305 1.349 . S
C1306 C1318 1.349 . S
C1307 C1305 1.327 . S
C1307 C1323 1.429 . S
C1307 H1329 0.950 . S
C1308 H1304 0.949 . S
C1308 C1316 1.574 . S
C1308 C1324 1.368 . S
H1309 C1317 0.950 . S
H1310 C1315 0.950 . S
H1311 C1316 0.949 . S
H1312 C1318 0.950 . S
H1313 C1319 0.950 . S
H1314 C1320 0.949 . S
C1315 H1310 0.950 . S
C1315 C1317 1.327 . S
C1315 C1321 1.429 . S
C1316 C1308 1.574 . S
C1316 H1311 0.949 . S
C1316 C1322 1.368 . S
C1317 C1301 1.349 . S
C1317 H1309 0.950 . S
C1317 C1315 1.327 . S
C1318 C1306 1.349 . S
C1318 H1312 0.950 . S
C1318 C1319 1.327 . S
C1319 H1313 0.950 . S
C1319 C1318 1.327 . S
C1319 C1323 1.429 . S
C1320 C1303 1.574 . S
C1320 H1314 0.949 . S
C1320 C1324 1.368 . S
C1321 C1302 1.429 . S
C1321 C1315 1.429 . S
C1321 C1322 1.523 . S
C1322 C1303 1.368 . S
C1322 C1316 1.368 . S
C1322 C1321 1.523 . S
C1323 C1307 1.429 . S
C1323 C1319 1.429 . S
C1323 C1324 1.523 . S
C1324 C1308 1.368 . S
C1324 C1320 1.368 . S
C1324 C1323 1.523 . S
H1325 C1300 0.950 . S
H1326 C1302 0.950 . S
H1327 C1303 0.949 . S
H1328 C1305 0.950 . S
H1329 C1307 0.950 . S
C1330 C1331 1.349 . S
C1330 C1332 1.327 . S
C1330 H1355 0.950 . S
C1331 C1330 1.349 . S
C1331 C1347 1.349 . S
C1332 C1330 1.327 . S
C1332 C1351 1.429 . S
C1332 H1356 0.950 . S
C1333 C1350 1.574 . S
C1333 C1352 1.368 . S
C1333 H1357 0.949 . S
H1334 C1338 0.949 . S
C1335 C1336 1.349 . S
C1335 C1337 1.327 . S
C1335 H1358 0.950 . S
C1336 C1335 1.349 . S
C1336 C1348 1.349 . S
C1337 C1335 1.327 . S
C1337 C1353 1.429 . S
C1337 H1359 0.950 . S
C1338 H1334 0.949 . S
C1338 C1346 1.574 . S
C1338 C1354 1.368 . S
H1339 C1347 0.950 . S
H1340 C1345 0.950 . S
H1341 C1346 0.949 . S
H1342 C1348 0.950 . S
H1343 C1349 0.950 . S
H1344 C1350 0.949 . S
C1345 H1340 0.950 . S
C1345 C1347 1.327 . S
C1345 C1351 1.429 . S
C1346 C1338 1.574 . S
C1346 H1341 0.949 . S
C1346 C1352 1.368 . S
C1347 C1331 1.349 . S
C1347 H1339 0.950 . S
C1347 C1345 1.327 . S
C1348 C1336 1.349 . S
C1348 H1342 0.950 . S
C1348 C1349 1.327 . S
C1349 H1343 0.950 . S
C1349 C1348 1.327 . S
C1349 C1353 1.429 . S
C1350 C1333 1.574 . S
C1350 H1344 0.949 . S
C1350 C1354 1.368 . S
C1351 C1332 1.429 . S
C1351 C1345 1.429 . S
C1351 C1352 1.523 . S
C1352 C1333 1.368 . S
C1352 C1346 1.368 . S
C1352 C1351 1.523 . S
C1353 C1337 1.429 . S
C1353 C1349 1.429 . S
C1353 C1354 1.523 . S
C1354 C1338 1.368 . S
C1354 C1350 1.368 . S
C1354 C1353 1.523 . S
H1355 C1330 0.950 . S
H1356 C1332 0.950 . S
H1357 C1333 0.949 . S
H1358 C1335 0.950 . S
H1359 C1337 0.950 . S
C1360 C1361 1.349 . S
C1360 C1362 1.327 . S
C1360 H1385 0.950 . S
C1361 C1360 1.349 . S
C1361 C1377 1.349 . S
C1362 C1360 1.327 . S
C1362 C1381 1.429 . S
C1362 H1386 0.950 . S
C1363 C1380 1.574 . S
C1363 C1382 1.368 . S
C1363 H1387 0.949 . S
H1364 C1368 0.949 . S
C1365 C1366 1.349 . S
C1365 C1367 1.327 . S
C1365 H1388 0.950 . S
C1366 C1365 1.349 . S
C1366 C1378 1.349 . S
C1367 C1365 1.327 . S
C1367 C1383 1.429 . S
C1367 H1389 0.950 . S
C1368 H1364 0.949 . S
C1368 C1376 1.574 . S
C1368 C1384 1.368 . S
H1369 C1377 0.950 . S
H1370 C1375 0.950 . S
H1371 C1376 0.949 . S
H1372 C1378 0.950 . S
H1373 C1379 0.950 . S
H1374 C1380 0.949 . S
C1375 H1370 0.950 . S
C1375 C1377 1.327 . S
C1375 C1381 1.429 . S
C1376 C1368 1.574 . S
C1376 H1371 0.949 . S
C1376 C1382 1.368 . S
C1377 C1361 1.349 . S
C1377 H1369 0.950 . S
C1377 C1375 1.327 . S
C1378 C1366 1.349 . S
C1378 H1372 0.950 . S
C1378 C1379 1.327 . S
C1379 H1373 0.950 . S
C1379 C1378 1.327 . S
C1379 C1383 1.429 . S
C1380 C1363 1.574 . S
C1380 H1374 0.949 . S
C1380 C1384 1.368 . S
C1381 C1362 1.429 . S
C1381 C1375 1.429 . S
C1381 C1382 1.523 . S
C1382 C1363 1.368 . S
C1382 C1376 1.368 . S
C1382 C1381 1.523 . S
C1383 C1367 1.429 . S
C1383 C1379 1.429 . S
C1383 C1384 1.523 . S
C1384 C1368 1.368 . S
C1384 C1380 1.368 . S
C1384 C1383 1.523 . S
H1385 C1360 0.950 . S
H1386 C1362 0.950 . S
H1387 C1363 0.949 . S
H1388 C1365 0.950 . S
H1389 C1367 0.950 . S
C1390 C1391 1.349 . S
C1390 C1392 1.327 . S
C1390 H1415 0.950 . S
C1391 C1390 1.349 . S
C1391 C1407 1.349 . S
C1392 C1390 1.327 . S
C1392 C1411 1.429 . S
C1392 H1416 0.950 . S
C1393 C1410 1.574 . S
C1393 C1412 1.368 . S
C1393 H1417 0.949 . S
H1394 C1398 0.949 . S
C1395 C1396 1.349 . S
C1395 C1397 1.327 . S
C1395 H1418 0.950 . S
C1396 C1395 1.349 . S
C1396 C1408 1.349 . S
C1397 C1395 1.327 . S
C1397 C1413 1.429 . S
C1397 H1419 0.950 . S
C1398 H1394 0.949 . S
C1398 C1406 1.574 . S
C1398 C1414 1.368 . S
H1399 C1407 0.950 . S
H1400 C1405 0.950 . S
H1401 C1406 0.949 . S
H1402 C1408 0.950 . S
H1403 C1409 0.950 . S
H1404 C1410 0.949 . S
C1405 H1400 0.950 . S
C1405 C1407 1.327 . S
C1405 C1411 1.429 . S
C1406 C1398 1.574 . S
C1406 H1401 0.949 . S
C1406 C1412 1.368 . S
C1407 C1391 1.349 . S
C1407 H1399 0.950 . S
C1407 C1405 1.327 . S
C1408 C1396 1.349 . S
C1408 H1402 0.950 . S
C1408 C1409 1.327 . S
C1409 H1403 0.950 . S
C1409 C1408 1.327 . S
C1409 C1413 1.429 . S
C1410 C1393 1.574 . S
C1410 H1404 0.949 . S
C1410 C1414 1.368 . S
C1411 C1392 1.429 . S
C1411 C1405 1.429 . S
C1411 C1412 1.523 . S
C1412 C1393 1.368 . S
C1412 C1406 1.368 . S
C1412 C1411 1.523 . S
C1413 C1397 1.429 . S
C1413 C1409 1.429 . S
C1413 C1414 1.523 . S
C1414 C1398 1.368 . S
C1414 C1410 1.368 . S
C1414 C1413 1.523 . S
H1415 C1390 0.950 . S
H1416 C1392 0.950 . S
H1417 C1393 0.949 . S
H1418 C1395 0.950 . S
H1419 C1397 0.950 . S
C1420 C1421 1.349 . S
C1420 C1422 1.327 . S
C1420 H1445 0.950 . S
C1421 C1420 1.349 . S
C1421 C1437 1.349 . S
C1422 C1420 1.327 . S
C1422 C1441 1.429 . S
C1422 H1446 0.950 . S
C1423 C1440 1.574 . S
C1423 C1442 1.368 . S
C1423 H1447 0.949 . S
H1424 C1428 0.949 . S
C1425 C1426 1.349 . S
C1425 C1427 1.327 . S
C1425 H1448 0.950 . S
C1426 C1425 1.349 . S
C1426 C1438 1.349 . S
C1427 C1425 1.327 . S
C1427 C1443 1.429 . S
C1427 H1449 0.950 . S
C1428 H1424 0.949 . S
C1428 C1436 1.574 . S
C1428 C1444 1.368 . S
H1429 C1437 0.950 . S
H1430 C1435 0.950 . S
H1431 C1436 0.949 . S
H1432 C1438 0.950 . S
H1433 C1439 0.950 . S
H1434 C1440 0.949 . S
C1435 H1430 0.950 . S
C1435 C1437 1.327 . S
C1435 C1441 1.429 . S
C1436 C1428 1.574 . S
C1436 H1431 0.949 . S
C1436 C1442 1.368 . S
C1437 C1421 1.349 . S
C1437 H1429 0.950 . S
C1437 C1435 1.327 . S
C1438 C1426 1.349 . S
C1438 H1432 0.950 . S
C1438 C1439 1.327 . S
C1439 H1433 0.950 . S
C1439 C1438 1.327 . S
C1439 C1443 1.429 . S
C1440 C1423 1.574 . S
C1440 H1434 0.949 . S
C1440 C1444 1.368 . S
C1441 C1422 1.429 . S
C1441 C1435 1.429 . S
C1441 C1442 1.523 . S
C1442 C1423 1.368 . S
C1442 C1436 1.368 . S
C1442 C1441 1.523 . S
C1443 C1427 1.429 . S
C1443 C1439 1.429 . S
C1443 C1444 1.523 . S
C1444 C1428 1.368 . S
C1444 C1440 1.368 . S
C1444 C1443 1.523 . S
H1445 C1420 0.950 . S
H1446 C1422 0.950 . S
H1447 C1423 0.949 . S
H1448 C1425 0.950 . S
H1449 C1427 0.950 . S
C1450 C1451 1.349 . S
C1450 C1452 1.327 . S
C1450 H1475 0.950 . S
C1451 C1450 1.349 . S
C1451 C1467 1.349 . S
C1452 C1450 1.327 . S
C1452 C1471 1.429 . S
C1452 H1476 0.950 . S
C1453 C1470 1.574 . S
C1453 C1472 1.368 . S
C1453 H1477 0.949 . S
H1454 C1458 0.949 . S
C1455 C1456 1.349 . S
C1455 C1457 1.327 . S
C1455 H1478 0.950 . S
C1456 C1455 1.349 . S
C1456 C1468 1.349 . S
C1457 C1455 1.327 . S
C1457 C1473 1.429 . S
C1457 H1479 0.950 . S
C1458 H1454 0.949 . S
C1458 C1466 1.574 . S
C1458 C1474 1.368 . S
H1459 C1467 0.950 . S
H1460 C1465 0.950 . S
H1461 C1466 0.949 . S
H1462 C1468 0.950 . S
H1463 C1469 0.950 . S
H1464 C1470 0.949 . S
C1465 H1460 0.950 . S
C1465 C1467 1.327 . S
C1465 C1471 1.429 . S
C1466 C1458 1.574 . S
C1466 H1461 0.949 . S
C1466 C1472 1.368 . S
C1467 C1451 1.349 . S
C1467 H1459 0.950 . S
C1467 C1465 1.327 . S
C1468 C1456 1.349 . S
C1468 H1462 0.950 . S
C1468 C1469 1.327 . S
C1469 H1463 0.950 . S
C1469 C1468 1.327 . S
C1469 C1473 1.429 . S
C1470 C1453 1.574 . S
C1470 H1464 0.949 . S
C1470 C1474 1.368 . S
C1471 C1452 1.429 . S
C1471 C1465 1.429 . S
C1471 C1472 1.523 . S
C1472 C1453 1.368 . S
C1472 C1466 1.368 . S
C1472 C1471 1.523 . S
C1473 C1457 1.429 . S
C1473 C1469 1.429 . S
C1473 C1474 1.523 . S
C1474 C1458 1.368 . S
C1474 C1470 1.368 . S
C1474 C1473 1.523 . S
H1475 C1450 0.950 . S
H1476 C1452 0.950 . S
H1477 C1453 0.949 . S
H1478 C1455 0.950 . S
H1479 C1457 0.950 . S
C1480 C1481 1.349 . S
C1480 C1482 1.327 . S
C1480 H1505 0.950 . S
C1481 C1480 1.349 . S
C1481 C1497 1.349 . S
C1482 C1480 1.327 . S
C1482 C1501 1.429 . S
C1482 H1506 0.950 . S
C1483 C1500 1.574 . S
C1483 C1502 1.368 . S
C1483 H1507 0.949 . S
H1484 C1488 0.949 . S
C1485 C1486 1.349 . S
C1485 C1487 1.327 . S
C1485 H1508 0.950 . S
C1486 C1485 1.349 . S
C1486 C1498 1.349 . S
C1487 C1485 1.327 . S
C1487 C1503 1.429 . S
C1487 H1509 0.950 . S
C1488 H1484 0.949 . S
C1488 C1496 1.574 . S
C1488 C1504 1.368 . S
H1489 C1497 0.950 . S
H1490 C1495 0.950 . S
H1491 C1496 0.949 . S
H1492 C1498 0.950 . S
H1493 C1499 0.950 . S
H1494 C1500 0.949 . S
C1495 H1490 0.950 . S
C1495 C1497 1.327 . S
C1495 C1501 1.429 . S
C1496 C1488 1.574 . S
C1496 H1491 0.949 . S
C1496 C1502 1.368 . S
C1497 C1481 1.349 . S
C1497 H1489 0.950 . S
C1497 C1495 1.327 . S
C1498 C1486 1.349 . S
C1498 H1492 0.950 . S
C1498 C1499 1.327 . S
C1499 H1493 0.950 . S
C1499 C1498 1.327 . S
C1499 C1503 1.429 . S
C1500 C1483 1.574 . S
C1500 H1494 0.949 . S
C1500 C1504 1.368 . S
C1501 C1482 1.429 . S
C1501 C1495 1.429 . S
C1501 C1502 1.523 . S
C1502 C1483 1.368 . S
C1502 C1496 1.368 . S
C1502 C1501 1.523 . S
C1503 C1487 1.429 . S
C1503 C1499 1.429 . S
C1503 C1504 1.523 . S
C1504 C1488 1.368 . S
C1504 C1500 1.368 . S
C1504 C1503 1.523 . S
H1505 C1480 0.950 . S
H1506 C1482 0.950 . S
H1507 C1483 0.949 . S
H1508 C1485 0.950 . S
H1509 C1487 0.950 . S
C1510 C1511 1.349 . S
C1510 C1512 1.327 . S
C1510 H1535 0.950 . S
C1511 C1510 1.349 . S
C1511 C1527 1.349 . S
C1512 C1510 1.327 . S
C1512 C1531 1.429 . S
C1512 H1536 0.950 . S
C1513 C1530 1.574 . S
C1513 C1532 1.368 . S
C1513 H1537 0.949 . S
H1514 C1518 0.949 . S
C1515 C1516 1.349 . S
C1515 C1517 1.327 . S
C1515 H1538 0.950 . S
C1516 C1515 1.349 . S
C1516 C1528 1.349 . S
C1517 C1515 1.327 . S
C1517 C1533 1.429 . S
C1517 H1539 0.950 . S
C1518 H1514 0.949 . S
C1518 C1526 1.574 . S
C1518 C1534 1.368 . S
H1519 C1527 0.950 . S
H1520 C1525 0.950 . S
H1521 C1526 0.949 . S
H1522 C1528 0.950 . S
H1523 C1529 0.950 . S
H1524 C1530 0.949 . S
C1525 H1520 0.950 . S
C1525 C1527 1.327 . S
C1525 C1531 1.429 . S
C1526 C1518 1.574 . S
C1526 H1521 0.949 . S
C1526 C1532 1.368 . S
C1527 C1511 1.349 . S
C1527 H1519 0.950 . S
C1527 C1525 1.327 . S
C1528 C1516 1.349 . S
C1528 H1522 0.950 . S
C1528 C1529 1.327 . S
C1529 H1523 0.950 . S
C1529 C1528 1.327 . S
C1529 C1533 1.429 . S
C1530 C1513 1.574 . S
C1530 H1524 0.949 . S
C1530 C1534 1.368 . S
C1531 C1512 1.429 . S
C1531 C1525 1.429 . S
C1531 C1532 1.523 . S
C1532 C1513 1.368 . S
C1532 C1526 1.368 . S
C1532 C1531 1.523 . S
C1533 C1517 1.429 . S
C1533 C1529 1.429 . S
C1533 C1534 1.523 . S
C1534 C1518 1.368 . S
C1534 C1530 1.368 . S
C1534 C1533 1.523 . S
H1535 C1510 0.950 . S
H1536 C1512 0.950 . S
H1537 C1513 0.949 . S
H1538 C1515 0.950 . S
H1539 C1517 0.950 . S
C1540 C1541 1.349 . S
C1540 C1542 1.327 . S
C1540 H1565 0.950 . S
C1541 C1540 1.349 . S
C1541 C1557 1.349 . S
C1542 C1540 1.327 . S
C1542 C1561 1.429 . S
C1542 H1566 0.950 . S
C1543 C1560 1.574 . S
C1543 C1562 1.368 . S
C1543 H1567 0.949 . S
H1544 C1548 0.949 . S
C1545 C1546 1.349 . S
C1545 C1547 1.327 . S
C1545 H1568 0.950 . S
C1546 C1545 1.349 . S
C1546 C1558 1.349 . S
C1547 C1545 1.327 . S
C1547 C1563 1.429 . S
C1547 H1569 0.950 . S
C1548 H1544 0.949 . S
C1548 C1556 1.574 . S
C1548 C1564 1.368 . S
H1549 C1557 0.950 . S
H1550 C1555 0.950 . S
H1551 C1556 0.949 . S
H1552 C1558 0.950 . S
H1553 C1559 0.950 . S
H1554 C1560 0.949 . S
C1555 H1550 0.950 . S
C1555 C1557 1.327 . S
C1555 C1561 1.429 . S
C1556 C1548 1.574 . S
C1556 H1551 0.949 . S
C1556 C1562 1.368 . S
C1557 C1541 1.349 . S
C1557 H1549 0.950 . S
C1557 C1555 1.327 . S
C1558 C1546 1.349 . S
C1558 H1552 0.950 . S
C1558 C1559 1.327 . S
C1559 H1553 0.950 . S
C1559 C1558 1.327 . S
C1559 C1563 1.429 . S
C1560 C1543 1.574 . S
C1560 H1554 0.949 . S
C1560 C1564 1.368 . S
C1561 C1542 1.429 . S
C1561 C1555 1.429 . S
C1561 C1562 1.523 . S
C1562 C1543 1.368 . S
C1562 C1556 1.368 . S
C1562 C1561 1.523 . S
C1563 C1547 1.429 . S
C1563 C1559 1.429 . S
C1563 C1564 1.523 . S
C1564 C1548 1.368 . S
C1564 C1560 1.368 . S
C1564 C1563 1.523 . S
H1565 C1540 0.950 . S
H1566 C1542 0.950 . S
H1567 C1543 0.949 . S
H1568 C1545 0.950 . S
H1569 C1547 0.950 . S
C1570 C1571 1.349 . S
C1570 C1572 1.327 . S
C1570 H1595 0.950 . S
C1571 C1570 1.349 . S
C1571 C1587 1.349 . S
C1572 C1570 1.327 . S
C1572 C1591 1.429 . S
C1572 H1596 0.950 . S
C1573 C1590 1.574 . S
C1573 C1592 1.368 . S
C1573 H1597 0.949 . S
H1574 C1578 0.949 . S
C1575 C1576 1.349 . S
C1575 C1577 1.327 . S
C1575 H1598 0.950 . S
C1576 C1575 1.349 . S
C1576 C1588 1.349 . S
C1577 C1575 1.327 . S
C1577 C1593 1.429 . S
C1577 H1599 0.950 . S
C1578 H1574 0.949 . S
C1578 C1586 1.574 . S
C1578 C1594 1.368 . S
H1579 C1587 0.950 . S
H1580 C1585 0.950 . S
H1581 C1586 0.949 . S
H1582 C1588 0.950 . S
H1583 C1589 0.950 . S
H1584 C1590 0.949 . S
C1585 H1580 0.950 . S
C1585 C1587 1.327 . S
C1585 C1591 1.429 . S
C1586 C1578 1.574 . S
C1586 H1581 0.949 . S
C1586 C1592 1.368 . S
C1587 C1571 1.349 . S
C1587 H1579 0.950 . S
C1587 C1585 1.327 . S
C1588 C1576 1.349 . S
C1588 H1582 0.950 . S
C1588 C1589 1.327 . S
C1589 H1583 0.950 . S
C1589 C1588 1.327 . S
C1589 C1593 1.429 . S
C1590 C1573 1.574 . S
C1590 H1584 0.949 . S
C1590 C1594 1.368 . S
C1591 C1572 1.429 . S
C1591 C1585 1.429 . S
C1591 C1592 1.523 . S
C1592 C1573 1.368 . S
C1592 C1586 1.368 . S
C1592 C1591 1.523 . S
C1593 C1577 1.429 . S
C1593 C1589 1.429 . S
C1593 C1594 1.523 . S
C1594 C1578 1.368 . S
C1594 C1590 1.368 . S
C1594 C1593 1.523 . S
H1595 C1570 0.950 . S
H1596 C1572 0.950 . S
H1597 C1573 0.949 . S
H1598 C1575 0.950 . S
H1599 C1577 0.950 . S
C1600 C1601 1.349 . S
C1600 C1602 1.327 . S
C1600 H1625 0.950 . S
C1601 C1600 1.349 . S
C1601 C1617 1.349 . S
C1602 C1600 1.327 . S
C1602 C1621 1.429 . S
C1602 H1626 0.950 . S
C1603 C1620 1.574 . S
C1603 C1622 1.368 . S
C1603 H1627 0.949 . S
H1604 C1608 0.949 . S
C1605 C1606 1.349 . S
C1605 C1607 1.327 . S
C1605 H1628 0.950 . S
C1606 C1605 1.349 . S
C1606 C1618 1.349 . S
C1607 C1605 1.327 . S
C1607 C1623 1.429 . S
C1607 H1629 0.950 . S
C1608 H1604 0.949 . S
C1608 C1616 1.574 . S
C1608 C1624 1.368 . S
H1609 C1617 0.950 . S
H1610 C1615 0.950 . S
H1611 C1616 0.949 . S
H1612 C1618 0.950 . S
H1613 C1619 0.950 . S
H1614 C1620 0.949 . S
C1615 H1610 0.950 . S
C1615 C1617 1.327 . S
C1615 C1621 1.429 . S
C1616 C1608 1.574 . S
C1616 H1611 0.949 . S
C1616 C1622 1.368 . S
C1617 C1601 1.349 . S
C1617 H1609 0.950 . S
C1617 C1615 1.327 . S
C1618 C1606 1.349 . S
C1618 H1612 0.950 . S
C1618 C1619 1.327 . S
C1619 H1613 0.950 . S
C1619 C1618 1.327 . S
C1619 C1623 1.429 . S
C1620 C1603 1.574 . S
C1620 H1614 0.949 . S
C1620 C1624 1.368 . S
C1621 C1602 1.429 . S
C1621 C1615 1.429 . S
C1621 C1622 1.523 . S
C1622 C1603 1.368 . S
C1622 C1616 1.368 . S
C1622 C1621 1.523 . S
C1623 C1607 1.429 . S
C1623 C1619 1.429 . S
C1623 C1624 1.523 . S
C1624 C1608 1.368 . S
C1624 C1620 1.368 . S
C1624 C1623 1.523 . S
H1625 C1600 0.950 . S
H1626 C1602 0.950 . S
H1627 C1603 0.949 . S
H1628 C1605 0.950 . S
H1629 C1607 0.950 . S
C1630 C1631 1.349 . S
C1630 C1632 1.327 . S
C1630 H1655 0.950 . S
C1631 C1630 1.349 . S
C1631 C1647 1.349 . S
C1632 C1630 1.327 . S
C1632 C1651 1.429 . S
C1632 H1656 0.950 . S
C1633 C1650 1.574 . S
C1633 C1652 1.368 . S
C1633 H1657 0.949 . S
H1634 C1638 0.949 . S
C1635 C1636 1.349 . S
C1635 C1637 1.327 . S
C1635 H1658 0.950 . S
C1636 C1635 1.349 . S
C1636 C1648 1.349 . S
C1637 C1635 1.327 . S
C1637 C1653 1.429 . S
C1637 H1659 0.950 . S
C1638 H1634 0.949 . S
C1638 C1646 1.574 . S
C1638 C1654 1.368 . S
H1639 C1647 0.950 . S
H1640 C1645 0.950 . S
H1641 C1646 0.949 . S
H1642 C1648 0.950 . S
H1643 C1649 0.950 . S
H1644 C1650 0.949 . S
C1645 H1640 0.950 . S
C1645 C1647 1.327 . S
C1645 C1651 1.429 . S
C1646 C1638 1.574 . S
C1646 H1641 0.949 . S
C1646 C1652 1.368 . S
C1647 C1631 1.349 . S
C1647 H1639 0.950 . S
C1647 C1645 1.327 . S
C1648 C1636 1.349 . S
C1648 H1642 0.950 . S
C1648 C1649 1.327 . S
C1649 H1643 0.950 . S
C1649 C1648 1.327 . S
C1649 C1653 1.429 . S
C1650 C1633 1.574 . S
C1650 H1644 0.949 . S
C1650 C1654 1.368 . S
C1651 C1632 1.429 . S
C1651 C1645 1.429 . S
C1651 C1652 1.523 . S
C1652 C1633 1.368 . S
C1652 C1646 1.368 . S
C1652 C1651 1.523 . S
C1653 C1637 1.429 . S
C1653 C1649 1.429 . S
C1653 C1654 1.523 . S
C1654 C1638 1.368 . S
C1654 C1650 1.368 . S
C1654 C1653 1.523 . S
H1655 C1630 0.950 . S
H1656 C1632 0.950 . S
H1657 C1633 0.949 . S
H1658 C1635 0.950 . S
H1659 C1637 0.950 . S
C1660 C1661 1.349 . S
C1660 C1662 1.327 . S
C1660 H1685 0.950 . S
C1661 C1660 1.349 . S
C1661 C1677 1.349 . S
C1662 C1660 1.327 . S
C1662 C1681 1.429 . S
C1662 H1686 0.950 . S
C1663 C1680 1.574 . S
C1663 C1682 1.368 . S
C1663 H1687 0.949 . S
H1664 C1668 0.949 . S
C1665 C1666 1.349 . S
C1665 C1667 1.327 . S
C1665 H1688 0.950 . S
C1666 C1665 1.349 . S
C1666 C1678 1.349 . S
C1667 C1665 1.327 . S
C1667 C1683 1.429 . S
C1667 H1689 0.950 . S
C1668 H1664 0.949 . S
C1668 C1676 1.574 . S
C1668 C1684 1.368 . S
H1669 C1677 0.950 . S
H1670 C1675 0.950 . S
H1671 C1676 0.949 . S
H1672 C1678 0.950 . S
H1673 C1679 0.950 . S
H1674 C1680 0.949 . S
C1675 H1670 0.950 . S
C1675 C1677 1.327 . S
C1675 C1681 1.429 . S
C1676 C1668 1.574 . S
C1676 H1671 0.949 . S
C1676 C1682 1.368 . S
C1677 C1661 1.349 . S
C1677 H1669 0.950 . S
C1677 C1675 1.327 . S
C1678 C1666 1.349 . S
C1678 H1672 0.950 . S
C1678 C1679 1.327 . S
C1679 H1673 0.950 . S
C1679 C1678 1.327 . S
C1679 C1683 1.429 . S
C1680 C1663 1.574 . S
C1680 H1674 0.949 . S
C1680 C1684 1.368 . S
C1681 C1662 1.429 . S
C1681 C1675 1.429 . S
C1681 C1682 1.523 . S
C1682 C1663 1.368 . S
C1682 C1676 1.368 . S
C1682 C1681 1.523 . S
C1683 C1667 1.429 . S
C1683 C1679 1.429 . S
C1683 C1684 1.523 . S
C1684 C1668 1.368 . S
C1684 C1680 1.368 . S
C1684 C1683 1.523 . S
H1685 C1660 0.950 . S
H1686 C1662 0.950 . S
H1687 C1663 0.949 . S
H1688 C1665 0.950 . S
H1689 C1667 0.950 . S
C1690 C1691 1.349 . S
C1690 C1692 1.327 . S
C1690 H1715 0.950 1_565 S
C1691 C1690 1.349 . S
C1691 C1707 1.349 . S
C1692 C1690 1.327 . S
C1692 C1711 1.429 . S
C1692 H1716 0.950 . S
C1693 C1710 1.574 . S
C1693 C1712 1.368 . S
C1693 H1717 0.949 . S
H1694 C1698 0.949 . S
C1695 C1696 1.349 . S
C1695 C1697 1.327 . S
C1695 H1718 0.950 . S
C1696 C1695 1.349 . S
C1696 C1708 1.349 . S
C1697 C1695 1.327 . S
C1697 C1713 1.429 . S
C1697 H1719 0.950 . S
C1698 H1694 0.949 . S
C1698 C1706 1.574 . S
C1698 C1714 1.368 . S
H1699 C1707 0.950 . S
H1700 C1705 0.950 . S
H1701 C1706 0.949 . S
H1702 C1708 0.950 . S
H1703 C1709 0.950 . S
H1704 C1710 0.949 . S
C1705 H1700 0.950 . S
C1705 C1707 1.327 . S
C1705 C1711 1.429 . S
C1706 C1698 1.574 . S
C1706 H1701 0.949 . S
C1706 C1712 1.368 . S
C1707 C1691 1.349 . S
C1707 H1699 0.950 . S
C1707 C1705 1.327 . S
C1708 C1696 1.349 . S
C1708 H1702 0.950 . S
C1708 C1709 1.327 . S
C1709 H1703 0.950 . S
C1709 C1708 1.327 . S
C1709 C1713 1.429 . S
C1710 C1693 1.574 . S
C1710 H1704 0.949 . S
C1710 C1714 1.368 . S
C1711 C1692 1.429 . S
C1711 C1705 1.429 . S
C1711 C1712 1.523 . S
C1712 C1693 1.368 . S
C1712 C1706 1.368 . S
C1712 C1711 1.523 . S
C1713 C1697 1.429 . S
C1713 C1709 1.429 . S
C1713 C1714 1.523 . S
C1714 C1698 1.368 . S
C1714 C1710 1.368 . S
C1714 C1713 1.523 . S
H1715 C1690 0.950 1_545 S
H1716 C1692 0.950 . S
H1717 C1693 0.949 . S
H1718 C1695 0.950 . S
H1719 C1697 0.950 . S
C1720 C1721 1.349 . S
C1720 C1722 1.327 . S
C1720 H1745 0.950 . S
C1721 C1720 1.349 . S
C1721 C1737 1.349 . S
C1722 C1720 1.327 . S
C1722 C1741 1.429 . S
C1722 H1746 0.950 . S
C1723 C1740 1.574 . S
C1723 C1742 1.368 . S
C1723 H1747 0.949 . S
H1724 C1728 0.949 . S
C1725 C1726 1.349 . S
C1725 C1727 1.327 . S
C1725 H1748 0.950 . S
C1726 C1725 1.349 . S
C1726 C1738 1.349 . S
C1727 C1725 1.327 . S
C1727 C1743 1.429 . S
C1727 H1749 0.950 . S
C1728 H1724 0.949 . S
C1728 C1736 1.574 . S
C1728 C1744 1.368 . S
H1729 C1737 0.950 . S
H1730 C1735 0.950 . S
H1731 C1736 0.949 . S
H1732 C1738 0.950 . S
H1733 C1739 0.950 . S
H1734 C1740 0.949 . S
C1735 H1730 0.950 . S
C1735 C1737 1.327 . S
C1735 C1741 1.429 . S
C1736 C1728 1.574 . S
C1736 H1731 0.949 . S
C1736 C1742 1.368 . S
C1737 C1721 1.349 . S
C1737 H1729 0.950 . S
C1737 C1735 1.327 . S
C1738 C1726 1.349 . S
C1738 H1732 0.950 . S
C1738 C1739 1.327 . S
C1739 H1733 0.950 . S
C1739 C1738 1.327 . S
C1739 C1743 1.429 . S
C1740 C1723 1.574 . S
C1740 H1734 0.949 . S
C1740 C1744 1.368 . S
C1741 C1722 1.429 . S
C1741 C1735 1.429 . S
C1741 C1742 1.523 . S
C1742 C1723 1.368 . S
C1742 C1736 1.368 . S
C1742 C1741 1.523 . S
C1743 C1727 1.429 . S
C1743 C1739 1.429 . S
C1743 C1744 1.523 . S
C1744 C1728 1.368 . S
C1744 C1740 1.368 . S
C1744 C1743 1.523 . S
H1745 C1720 0.950 . S
H1746 C1722 0.950 . S
H1747 C1723 0.949 . S
H1748 C1725 0.950 . S
H1749 C1727 0.950 . S
C1750 C1751 1.349 . S
C1750 C1752 1.327 . S
C1750 H1775 0.950 . S
C1751 C1750 1.349 . S
C1751 C1767 1.349 . S
C1752 C1750 1.327 . S
C1752 C1771 1.429 . S
C1752 H1776 0.950 . S
C1753 C1770 1.574 . S
C1753 C1772 1.368 . S
C1753 H1777 0.949 . S
H1754 C1758 0.949 . S
C1755 C1756 1.349 . S
C1755 C1757 1.327 . S
C1755 H1778 0.950 . S
C1756 C1755 1.349 . S
C1756 C1768 1.349 . S
C1757 C1755 1.327 . S
C1757 C1773 1.429 . S
C1757 H1779 0.950 . S
C1758 H1754 0.949 . S
C1758 C1766 1.574 . S
C1758 C1774 1.368 . S
H1759 C1767 0.950 . S
H1760 C1765 0.950 . S
H1761 C1766 0.949 . S
H1762 C1768 0.950 . S
H1763 C1769 0.950 . S
H1764 C1770 0.949 . S
C1765 H1760 0.950 . S
C1765 C1767 1.327 . S
C1765 C1771 1.429 . S
C1766 C1758 1.574 . S
C1766 H1761 0.949 . S
C1766 C1772 1.368 . S
C1767 C1751 1.349 . S
C1767 H1759 0.950 . S
C1767 C1765 1.327 . S
C1768 C1756 1.349 . S
C1768 H1762 0.950 . S
C1768 C1769 1.327 . S
C1769 H1763 0.950 . S
C1769 C1768 1.327 . S
C1769 C1773 1.429 . S
C1770 C1753 1.574 . S
C1770 H1764 0.949 . S
C1770 C1774 1.368 . S
C1771 C1752 1.429 . S
C1771 C1765 1.429 . S
C1771 C1772 1.523 . S
C1772 C1753 1.368 . S
C1772 C1766 1.368 . S
C1772 C1771 1.523 . S
C1773 C1757 1.429 . S
C1773 C1769 1.429 . S
C1773 C1774 1.523 . S
C1774 C1758 1.368 . S
C1774 C1770 1.368 . S
C1774 C1773 1.523 . S
H1775 C1750 0.950 . S
H1776 C1752 0.950 . S
H1777 C1753 0.949 . S
H1778 C1755 0.950 . S
H1779 C1757 0.950 . S
C1780 C1781 1.349 . S
C1780 C1782 1.327 . S
C1780 H1805 0.950 . S
C1781 C1780 1.349 . S
C1781 C1797 1.349 . S
C1782 C1780 1.327 . S
C1782 C1801 1.429 . S
C1782 H1806 0.950 . S
C1783 C1800 1.574 . S
C1783 C1802 1.368 . S
C1783 H1807 0.949 . S
H1784 C1788 0.949 . S
C1785 C1786 1.349 . S
C1785 C1787 1.327 . S
C1785 H1808 0.950 . S
C1786 C1785 1.349 . S
C1786 C1798 1.349 . S
C1787 C1785 1.327 . S
C1787 C1803 1.429 . S
C1787 H1809 0.950 . S
C1788 H1784 0.949 . S
C1788 C1796 1.574 . S
C1788 C1804 1.368 . S
H1789 C1797 0.950 . S
H1790 C1795 0.950 . S
H1791 C1796 0.949 . S
H1792 C1798 0.950 . S
H1793 C1799 0.950 . S
H1794 C1800 0.949 . S
C1795 H1790 0.950 . S
C1795 C1797 1.327 . S
C1795 C1801 1.429 . S
C1796 C1788 1.574 . S
C1796 H1791 0.949 . S
C1796 C1802 1.368 . S
C1797 C1781 1.349 . S
C1797 H1789 0.950 . S
C1797 C1795 1.327 . S
C1798 C1786 1.349 . S
C1798 H1792 0.950 . S
C1798 C1799 1.327 . S
C1799 H1793 0.950 . S
C1799 C1798 1.327 . S
C1799 C1803 1.429 . S
C1800 C1783 1.574 . S
C1800 H1794 0.949 . S
C1800 C1804 1.368 . S
C1801 C1782 1.429 . S
C1801 C1795 1.429 . S
C1801 C1802 1.523 . S
C1802 C1783 1.368 . S
C1802 C1796 1.368 . S
C1802 C1801 1.523 . S
C1803 C1787 1.429 . S
C1803 C1799 1.429 . S
C1803 C1804 1.523 . S
C1804 C1788 1.368 . S
C1804 C1800 1.368 . S
C1804 C1803 1.523 . S
H1805 C1780 0.950 . S
H1806 C1782 0.950 . S
H1807 C1783 0.949 . S
H1808 C1785 0.950 . S
H1809 C1787 0.950 . S
C1810 C1811 1.349 . S
C1810 C1812 1.327 . S
C1810 H1835 0.950 . S
C1811 C1810 1.349 . S
C1811 C1827 1.349 . S
C1812 C1810 1.327 . S
C1812 C1831 1.429 . S
C1812 H1836 0.950 . S
C1813 C1830 1.574 . S
C1813 C1832 1.368 . S
C1813 H1837 0.949 . S
H1814 C1818 0.949 . S
C1815 C1816 1.349 . S
C1815 C1817 1.327 . S
C1815 H1838 0.950 . S
C1816 C1815 1.349 . S
C1816 C1828 1.349 . S
C1817 C1815 1.327 . S
C1817 C1833 1.429 . S
C1817 H1839 0.950 . S
C1818 H1814 0.949 . S
C1818 C1826 1.574 . S
C1818 C1834 1.368 . S
H1819 C1827 0.950 . S
H1820 C1825 0.950 . S
H1821 C1826 0.949 . S
H1822 C1828 0.950 . S
H1823 C1829 0.950 . S
H1824 C1830 0.949 . S
C1825 H1820 0.950 . S
C1825 C1827 1.327 . S
C1825 C1831 1.429 . S
C1826 C1818 1.574 . S
C1826 H1821 0.949 . S
C1826 C1832 1.368 . S
C1827 C1811 1.349 . S
C1827 H1819 0.950 . S
C1827 C1825 1.327 . S
C1828 C1816 1.349 . S
C1828 H1822 0.950 . S
C1828 C1829 1.327 . S
C1829 H1823 0.950 . S
C1829 C1828 1.327 . S
C1829 C1833 1.429 . S
C1830 C1813 1.574 . S
C1830 H1824 0.949 . S
C1830 C1834 1.368 . S
C1831 C1812 1.429 . S
C1831 C1825 1.429 . S
C1831 C1832 1.523 . S
C1832 C1813 1.368 . S
C1832 C1826 1.368 . S
C1832 C1831 1.523 . S
C1833 C1817 1.429 . S
C1833 C1829 1.429 . S
C1833 C1834 1.523 . S
C1834 C1818 1.368 . S
C1834 C1830 1.368 . S
C1834 C1833 1.523 . S
H1835 C1810 0.950 . S
H1836 C1812 0.950 . S
H1837 C1813 0.949 . S
H1838 C1815 0.950 . S
H1839 C1817 0.950 . S
C1840 C1841 1.349 . S
C1840 C1842 1.327 . S
C1840 H1865 0.950 . S
C1841 C1840 1.349 . S
C1841 C1857 1.349 . S
C1842 C1840 1.327 . S
C1842 C1861 1.429 . S
C1842 H1866 0.950 . S
C1843 C1860 1.574 . S
C1843 C1862 1.368 . S
C1843 H1867 0.949 . S
H1844 C1848 0.949 . S
C1845 C1846 1.349 . S
C1845 C1847 1.327 . S
C1845 H1868 0.950 . S
C1846 C1845 1.349 . S
C1846 C1858 1.349 . S
C1847 C1845 1.327 . S
C1847 C1863 1.429 . S
C1847 H1869 0.950 . S
C1848 H1844 0.949 . S
C1848 C1856 1.574 . S
C1848 C1864 1.368 . S
H1849 C1857 0.950 . S
H1850 C1855 0.950 . S
H1851 C1856 0.949 . S
H1852 C1858 0.950 . S
H1853 C1859 0.950 . S
H1854 C1860 0.949 . S
C1855 H1850 0.950 . S
C1855 C1857 1.327 . S
C1855 C1861 1.429 . S
C1856 C1848 1.574 . S
C1856 H1851 0.949 . S
C1856 C1862 1.368 . S
C1857 C1841 1.349 . S
C1857 H1849 0.950 . S
C1857 C1855 1.327 . S
C1858 C1846 1.349 . S
C1858 H1852 0.950 . S
C1858 C1859 1.327 . S
C1859 H1853 0.950 . S
C1859 C1858 1.327 . S
C1859 C1863 1.429 . S
C1860 C1843 1.574 . S
C1860 H1854 0.949 . S
C1860 C1864 1.368 . S
C1861 C1842 1.429 . S
C1861 C1855 1.429 . S
C1861 C1862 1.523 . S
C1862 C1843 1.368 . S
C1862 C1856 1.368 . S
C1862 C1861 1.523 . S
C1863 C1847 1.429 . S
C1863 C1859 1.429 . S
C1863 C1864 1.523 . S
C1864 C1848 1.368 . S
C1864 C1860 1.368 . S
C1864 C1863 1.523 . S
H1865 C1840 0.950 . S
H1866 C1842 0.950 . S
H1867 C1843 0.949 . S
H1868 C1845 0.950 . S
H1869 C1847 0.950 . S
C1870 C1871 1.349 . S
C1870 C1872 1.327 . S
C1870 H1895 0.950 . S
C1871 C1870 1.349 . S
C1871 C1887 1.349 . S
C1872 C1870 1.327 . S
C1872 C1891 1.429 . S
C1872 H1896 0.950 . S
C1873 C1890 1.574 . S
C1873 C1892 1.368 . S
C1873 H1897 0.949 . S
H1874 C1878 0.949 . S
C1875 C1876 1.349 . S
C1875 C1877 1.327 . S
C1875 H1898 0.950 . S
C1876 C1875 1.349 . S
C1876 C1888 1.349 . S
C1877 C1875 1.327 . S
C1877 C1893 1.429 . S
C1877 H1899 0.950 . S
C1878 H1874 0.949 . S
C1878 C1886 1.574 . S
C1878 C1894 1.368 . S
H1879 C1887 0.950 . S
H1880 C1885 0.950 . S
H1881 C1886 0.949 . S
H1882 C1888 0.950 . S
H1883 C1889 0.950 . S
H1884 C1890 0.949 . S
C1885 H1880 0.950 . S
C1885 C1887 1.327 . S
C1885 C1891 1.429 . S
C1886 C1878 1.574 . S
C1886 H1881 0.949 . S
C1886 C1892 1.368 . S
C1887 C1871 1.349 . S
C1887 H1879 0.950 . S
C1887 C1885 1.327 . S
C1888 C1876 1.349 . S
C1888 H1882 0.950 . S
C1888 C1889 1.327 . S
C1889 H1883 0.950 . S
C1889 C1888 1.327 . S
C1889 C1893 1.429 . S
C1890 C1873 1.574 . S
C1890 H1884 0.949 . S
C1890 C1894 1.368 . S
C1891 C1872 1.429 . S
C1891 C1885 1.429 . S
C1891 C1892 1.523 . S
C1892 C1873 1.368 . S
C1892 C1886 1.368 . S
C1892 C1891 1.523 . S
C1893 C1877 1.429 . S
C1893 C1889 1.429 . S
C1893 C1894 1.523 . S
C1894 C1878 1.368 . S
C1894 C1890 1.368 . S
C1894 C1893 1.523 . S
H1895 C1870 0.950 . S
H1896 C1872 0.950 . S
H1897 C1873 0.949 . S
H1898 C1875 0.950 . S
H1899 C1877 0.950 . S
C1900 C1901 1.349 . S
C1900 C1902 1.327 . S
C1900 H1925 0.950 . S
C1901 C1900 1.349 . S
C1901 C1917 1.349 . S
C1902 C1900 1.327 . S
C1902 C1921 1.429 . S
C1902 H1926 0.950 . S
C1903 C1920 1.574 . S
C1903 C1922 1.368 . S
C1903 H1927 0.949 . S
H1904 C1908 0.949 . S
C1905 C1906 1.349 . S
C1905 C1907 1.327 . S
C1905 H1928 0.950 . S
C1906 C1905 1.349 . S
C1906 C1918 1.349 . S
C1907 C1905 1.327 . S
C1907 C1923 1.429 . S
C1907 H1929 0.950 . S
C1908 H1904 0.949 . S
C1908 C1916 1.574 . S
C1908 C1924 1.368 . S
H1909 C1917 0.950 . S
H1910 C1915 0.950 . S
H1911 C1916 0.949 . S
H1912 C1918 0.950 . S
H1913 C1919 0.950 . S
H1914 C1920 0.949 . S
C1915 H1910 0.950 . S
C1915 C1917 1.327 . S
C1915 C1921 1.429 . S
C1916 C1908 1.574 . S
C1916 H1911 0.949 . S
C1916 C1922 1.368 . S
C1917 C1901 1.349 . S
C1917 H1909 0.950 . S
C1917 C1915 1.327 . S
C1918 C1906 1.349 . S
C1918 H1912 0.950 . S
C1918 C1919 1.327 . S
C1919 H1913 0.950 . S
C1919 C1918 1.327 . S
C1919 C1923 1.429 . S
C1920 C1903 1.574 . S
C1920 H1914 0.949 . S
C1920 C1924 1.368 . S
C1921 C1902 1.429 . S
C1921 C1915 1.429 . S
C1921 C1922 1.523 . S
C1922 C1903 1.368 . S
C1922 C1916 1.368 . S
C1922 C1921 1.523 . S
C1923 C1907 1.429 . S
C1923 C1919 1.429 . S
C1923 C1924 1.523 . S
C1924 C1908 1.368 . S
C1924 C1920 1.368 . S
C1924 C1923 1.523 . S
H1925 C1900 0.950 . S
H1926 C1902 0.950 . S
H1927 C1903 0.949 . S
H1928 C1905 0.950 . S
H1929 C1907 0.950 . S
C1930 C1931 1.349 . S
C1930 C1932 1.327 . S
C1930 H1955 0.950 . S
C1931 C1930 1.349 . S
C1931 C1947 1.349 . S
C1932 C1930 1.327 . S
C1932 C1951 1.429 . S
C1932 H1956 0.950 . S
C1933 C1950 1.574 . S
C1933 C1952 1.368 . S
C1933 H1957 0.949 . S
H1934 C1938 0.949 . S
C1935 C1936 1.349 . S
C1935 C1937 1.327 . S
C1935 H1958 0.950 . S
C1936 C1935 1.349 . S
C1936 C1948 1.349 . S
C1937 C1935 1.327 . S
C1937 C1953 1.429 . S
C1937 H1959 0.950 . S
C1938 H1934 0.949 . S
C1938 C1946 1.574 . S
C1938 C1954 1.368 . S
H1939 C1947 0.950 . S
H1940 C1945 0.950 . S
H1941 C1946 0.949 . S
H1942 C1948 0.950 . S
H1943 C1949 0.950 . S
H1944 C1950 0.949 . S
C1945 H1940 0.950 . S
C1945 C1947 1.327 . S
C1945 C1951 1.429 . S
C1946 C1938 1.574 . S
C1946 H1941 0.949 . S
C1946 C1952 1.368 . S
C1947 C1931 1.349 . S
C1947 H1939 0.950 . S
C1947 C1945 1.327 . S
C1948 C1936 1.349 . S
C1948 H1942 0.950 . S
C1948 C1949 1.327 . S
C1949 H1943 0.950 . S
C1949 C1948 1.327 . S
C1949 C1953 1.429 . S
C1950 C1933 1.574 . S
C1950 H1944 0.949 . S
C1950 C1954 1.368 . S
C1951 C1932 1.429 . S
C1951 C1945 1.429 . S
C1951 C1952 1.523 . S
C1952 C1933 1.368 . S
C1952 C1946 1.368 . S
C1952 C1951 1.523 . S
C1953 C1937 1.429 . S
C1953 C1949 1.429 . S
C1953 C1954 1.523 . S
C1954 C1938 1.368 . S
C1954 C1950 1.368 . S
C1954 C1953 1.523 . S
H1955 C1930 0.950 . S
H1956 C1932 0.950 . S
H1957 C1933 0.949 . S
H1958 C1935 0.950 . S
H1959 C1937 0.950 . S
C1960 C1961 1.349 . S
C1960 C1962 1.327 . S
C1960 H1985 0.950 . S
C1961 C1960 1.349 . S
C1961 C1977 1.349 . S
C1962 C1960 1.327 . S
C1962 C1981 1.429 . S
C1962 H1986 0.950 . S
C1963 C1980 1.574 . S
C1963 C1982 1.368 . S
C1963 H1987 0.949 . S
H1964 C1968 0.949 . S
C1965 C1966 1.349 . S
C1965 C1967 1.327 . S
C1965 H1988 0.950 . S
C1966 C1965 1.349 . S
C1966 C1978 1.349 . S
C1967 C1965 1.327 . S
C1967 C1983 1.429 . S
C1967 H1989 0.950 . S
C1968 H1964 0.949 . S
C1968 C1976 1.574 . S
C1968 C1984 1.368 . S
H1969 C1977 0.950 . S
H1970 C1975 0.950 . S
H1971 C1976 0.949 . S
H1972 C1978 0.950 . S
H1973 C1979 0.950 . S
H1974 C1980 0.949 . S
C1975 H1970 0.950 . S
C1975 C1977 1.327 . S
C1975 C1981 1.429 . S
C1976 C1968 1.574 . S
C1976 H1971 0.949 . S
C1976 C1982 1.368 . S
C1977 C1961 1.349 . S
C1977 H1969 0.950 . S
C1977 C1975 1.327 . S
C1978 C1966 1.349 . S
C1978 H1972 0.950 . S
C1978 C1979 1.327 . S
C1979 H1973 0.950 . S
C1979 C1978 1.327 . S
C1979 C1983 1.429 . S
C1980 C1963 1.574 . S
C1980 H1974 0.949 . S
C1980 C1984 1.368 . S
C1981 C1962 1.429 . S
C1981 C1975 1.429 . S
C1981 C1982 1.523 . S
C1982 C1963 1.368 . S
C1982 C1976 1.368 . S
C1982 C1981 1.523 . S
C1983 C1967 1.429 . S
C1983 C1979 1.429 . S
C1983 C1984 1.523 . S
C1984 C1968 1.368 . S
C1984 C1980 1.368 . S
C1984 C1983 1.523 . S
H1985 C1960 0.950 . S
H1986 C1962 0.950 . S
H1987 C1963 0.949 . S
H1988 C1965 0.950 . S
H1989 C1967 0.950 . S
C1990 C1991 1.349 . S
C1990 C1992 1.327 . S
C1990 H2015 0.950 . S
C1991 C1990 1.349 . S
C1991 C2007 1.349 . S
C1992 C1990 1.327 . S
C1992 C2011 1.429 . S
C1992 H2016 0.950 . S
C1993 C2010 1.574 . S
C1993 C2012 1.368 . S
C1993 H2017 0.949 . S
H1994 C1998 0.949 . S
C1995 C1996 1.349 . S
C1995 C1997 1.327 . S
C1995 H2018 0.950 . S
C1996 C1995 1.349 . S
C1996 C2008 1.349 . S
C1997 C1995 1.327 . S
C1997 C2013 1.429 . S
C1997 H2019 0.950 . S
C1998 H1994 0.949 . S
C1998 C2006 1.574 . S
C1998 C2014 1.368 . S
H1999 C2007 0.950 . S
H2000 C2005 0.950 . S
H2001 C2006 0.949 . S
H2002 C2008 0.950 . S
H2003 C2009 0.950 . S
H2004 C2010 0.949 . S
C2005 H2000 0.950 . S
C2005 C2007 1.327 . S
C2005 C2011 1.429 . S
C2006 C1998 1.574 . S
C2006 H2001 0.949 . S
C2006 C2012 1.368 . S
C2007 C1991 1.349 . S
C2007 H1999 0.950 . S
C2007 C2005 1.327 . S
C2008 C1996 1.349 . S
C2008 H2002 0.950 . S
C2008 C2009 1.327 . S
C2009 H2003 0.950 . S
C2009 C2008 1.327 . S
C2009 C2013 1.429 . S
C2010 C1993 1.574 . S
C2010 H2004 0.949 . S
C2010 C2014 1.368 . S
C2011 C1992 1.429 . S
C2011 C2005 1.429 . S
C2011 C2012 1.523 . S
C2012 C1993 1.368 . S
C2012 C2006 1.368 . S
C2012 C2011 1.523 . S
C2013 C1997 1.429 . S
C2013 C2009 1.429 . S
C2013 C2014 1.523 . S
C2014 C1998 1.368 . S
C2014 C2010 1.368 . S
C2014 C2013 1.523 . S
H2015 C1990 0.950 . S
H2016 C1992 0.950 . S
H2017 C1993 0.949 . S
H2018 C1995 0.950 . S
H2019 C1997 0.950 . S
C2020 C2021 1.349 . S
C2020 C2022 1.327 . S
C2020 H2045 0.950 . S
C2021 C2020 1.349 . S
C2021 C2037 1.349 . S
C2022 C2020 1.327 . S
C2022 C2041 1.429 . S
C2022 H2046 0.950 . S
C2023 C2040 1.574 . S
C2023 C2042 1.368 . S
C2023 H2047 0.949 . S
H2024 C2028 0.949 . S
C2025 C2026 1.349 . S
C2025 C2027 1.327 . S
C2025 H2048 0.950 . S
C2026 C2025 1.349 . S
C2026 C2038 1.349 . S
C2027 C2025 1.327 . S
C2027 C2043 1.429 . S
C2027 H2049 0.950 . S
C2028 H2024 0.949 . S
C2028 C2036 1.574 . S
C2028 C2044 1.368 . S
H2029 C2037 0.950 . S
H2030 C2035 0.950 . S
H2031 C2036 0.949 . S
H2032 C2038 0.950 . S
H2033 C2039 0.950 . S
H2034 C2040 0.949 . S
C2035 H2030 0.950 . S
C2035 C2037 1.327 . S
C2035 C2041 1.429 . S
C2036 C2028 1.574 . S
C2036 H2031 0.949 . S
C2036 C2042 1.368 . S
C2037 C2021 1.349 . S
C2037 H2029 0.950 . S
C2037 C2035 1.327 . S
C2038 C2026 1.349 . S
C2038 H2032 0.950 . S
C2038 C2039 1.327 . S
C2039 H2033 0.950 . S
C2039 C2038 1.327 . S
C2039 C2043 1.429 . S
C2040 C2023 1.574 . S
C2040 H2034 0.949 . S
C2040 C2044 1.368 . S
C2041 C2022 1.429 . S
C2041 C2035 1.429 . S
C2041 C2042 1.523 . S
C2042 C2023 1.368 . S
C2042 C2036 1.368 . S
C2042 C2041 1.523 . S
C2043 C2027 1.429 . S
C2043 C2039 1.429 . S
C2043 C2044 1.523 . S
C2044 C2028 1.368 . S
C2044 C2040 1.368 . S
C2044 C2043 1.523 . S
H2045 C2020 0.950 . S
H2046 C2022 0.950 . S
H2047 C2023 0.949 . S
H2048 C2025 0.950 . S
H2049 C2027 0.950 . S
C2050 C2051 1.349 . S
C2050 C2052 1.327 . S
C2050 H2075 0.950 . S
C2051 C2050 1.349 . S
C2051 C2067 1.349 . S
C2052 C2050 1.327 . S
C2052 C2071 1.429 . S
C2052 H2076 0.950 . S
C2053 C2070 1.574 . S
C2053 C2072 1.368 . S
C2053 H2077 0.949 . S
H2054 C2058 0.949 . S
C2055 C2056 1.349 . S
C2055 C2057 1.327 . S
C2055 H2078 0.950 . S
C2056 C2055 1.349 . S
C2056 C2068 1.349 . S
C2057 C2055 1.327 . S
C2057 C2073 1.429 . S
C2057 H2079 0.950 . S
C2058 H2054 0.949 . S
C2058 C2066 1.574 . S
C2058 C2074 1.368 . S
H2059 C2067 0.950 . S
H2060 C2065 0.950 . S
H2061 C2066 0.949 . S
H2062 C2068 0.950 . S
H2063 C2069 0.950 . S
H2064 C2070 0.949 . S
C2065 H2060 0.950 . S
C2065 C2067 1.327 . S
C2065 C2071 1.429 . S
C2066 C2058 1.574 . S
C2066 H2061 0.949 . S
C2066 C2072 1.368 . S
C2067 C2051 1.349 . S
C2067 H2059 0.950 . S
C2067 C2065 1.327 . S
C2068 C2056 1.349 . S
C2068 H2062 0.950 . S
C2068 C2069 1.327 . S
C2069 H2063 0.950 . S
C2069 C2068 1.327 . S
C2069 C2073 1.429 . S
C2070 C2053 1.574 . S
C2070 H2064 0.949 . S
C2070 C2074 1.368 . S
C2071 C2052 1.429 . S
C2071 C2065 1.429 . S
C2071 C2072 1.523 . S
C2072 C2053 1.368 . S
C2072 C2066 1.368 . S
C2072 C2071 1.523 . S
C2073 C2057 1.429 . S
C2073 C2069 1.429 . S
C2073 C2074 1.523 . S
C2074 C2058 1.368 . S
C2074 C2070 1.368 . S
C2074 C2073 1.523 . S
H2075 C2050 0.950 . S
H2076 C2052 0.950 . S
H2077 C2053 0.949 . S
H2078 C2055 0.950 . S
H2079 C2057 0.950 . S
C641 C129 3.507 . S
C646 C8 3.529 . S
C671 C19 3.020 . S
C676 C49 3.032 . S
C701 C98 0.836 . S
C706 C58 0.833 . S
C731 C135 0.445 . S
C736 C95 0.439 . S
C761 C179 0.331 . S
C766 C215 0.096 . S
C791 C218 0.866 . S
C796 C248 0.875 . S
C821 C245 0.388 . S
C826 C295 0.412 . S
C851 C165 0.689 . S
C856 C298 0.688 . S
C881 C369 3.283 . S
C886 C5 3.297 . S
C911 C419 0.613 . S
C916 C55 0.596 . S
C941 C89 3.027 . S
C946 C529 2.995 . S
C971 C328 0.845 . S
C976 C138 0.849 . S
C1001 C458 0.849 . S
C1006 C168 0.846 . S
C1031 C565 3.296 . S
C1036 C209 3.283 . S
C1061 C259 0.613 . S
C1066 C495 0.596 . S
C1091 C609 3.027 . S
C1096 C289 2.995 . S
C1121 C325 0.689 . S
C1126 C538 0.689 . S
C1151 C375 0.096 . S
C1156 C339 0.331 . S
C1181 C408 0.875 . S
C1186 C378 0.866 . S
C1211 C568 3.529 . S
C1216 C449 3.507 . S
C1241 C498 0.833 . S
C1246 C618 0.836 . S
C1271 C459 3.507 . S
C1276 C18 3.530 . S
C1301 C499 3.032 . S
C1306 C9 3.020 . S
C1331 C488 0.833 . S
C1336 C88 0.836 . S
C1361 C85 0.439 . S
C1366 C445 0.445 . S
C1391 C365 0.096 . S
C1396 C169 0.330 . S
C1421 C368 0.866 . S
C1426 C258 0.875 . S
C1451 C525 0.412 . S
C1456 C255 0.388 . S
C1481 C175 0.689 . S
C1486 C528 0.689 . S
C1511 C219 3.283 . S
C1516 C15 3.296 . S
C1541 C409 0.613 . S
C1546 C485 0.596 . S
C1571 C99 3.027 . S
C1576 C299 2.995 . S
C1601 C338 0.845 . S
C1606 C448 0.849 . S
C1631 C128 0.849 . S
C1636 C178 0.845 . S
C1661 C379 3.283 . S
C1666 C575 3.297 . S
C1691 C249 0.613 . S
C1696 C45 0.596 . S
C1721 C619 3.027 . S
C1726 C539 2.996 . S
C1751 C335 0.689 . S
C1756 C288 0.689 . S
C1781 C329 0.331 . S
C1786 C205 0.096 . S
C1811 C418 0.875 . S
C1816 C208 0.866 . S
C1841 C139 3.507 . S
C1846 C578 3.529 . S
C1871 C48 0.833 . S
C1876 C608 0.836 . S
C1901 C489 3.033 . S
C1906 C579 3.020 . S
C1931 C455 0.445 . S
C1936 C615 0.440 . S
C1961 C405 0.388 . S
C1966 C535 0.413 . S
C1991 C569 3.020 . S
C1996 C59 3.032 . S
C2021 C125 0.445 . S
C2026 C605 0.439 . S
C2051 C285 0.412 . S
C2056 C415 0.387 . S
