# Generated by pormake.
# Topology sxg, (6)-cn, num edge types: 1
# Building blocks:
#     Node 0, Type 0, BuildingBlock: KUMBUR_clean_sbu_0, # of connection points: 6
#     Node 1, Type 0, BuildingBlock: KUMBUR_clean_sbu_0, # of connection points: 6
#     Node 2, Type 0, BuildingBlock: KUMBUR_clean_sbu_0, # of connection points: 6
#     Node 3, Type 0, BuildingBlock: KUMBUR_clean_sbu_0, # of connection points: 6
#     Node 4, Type 0, BuildingBlock: KUMBUR_clean_sbu_0, # of connection points: 6
#     Node 5, Type 0, BuildingBlock: KUMBUR_clean_sbu_0, # of connection points: 6
#     Node 6, Type 0, BuildingBlock: KUMBUR_clean_sbu_0, # of connection points: 6
#     Node 7, Type 0, BuildingBlock: KUMBUR_clean_sbu_0, # of connection points: 6
#     Node 8, Type 0, BuildingBlock: KUMBUR_clean_sbu_0, # of connection points: 6
#     Node 9, Type 0, BuildingBlock: KUMBUR_clean_sbu_0, # of connection points: 6
#     Node 10, Type 0, BuildingBlock: KUMBUR_clean_sbu_0, # of connection points: 6
#     Node 11, Type 0, BuildingBlock: KUMBUR_clean_sbu_0, # of connection points: 6
#     Node 12, Type 0, BuildingBlock: KUMBUR_clean_sbu_0, # of connection points: 6
#     Node 13, Type 0, BuildingBlock: KUMBUR_clean_sbu_0, # of connection points: 6
#     Node 14, Type 0, BuildingBlock: KUMBUR_clean_sbu_0, # of connection points: 6
#     Node 15, Type 0, BuildingBlock: KUMBUR_clean_sbu_0, # of connection points: 6
#     Node 16, Type 0, BuildingBlock: KUMBUR_clean_sbu_0, # of connection points: 6
#     Node 17, Type 0, BuildingBlock: KUMBUR_clean_sbu_0, # of connection points: 6
#     Node 18, Type 0, BuildingBlock: KUMBUR_clean_sbu_0, # of connection points: 6
#     Node 19, Type 0, BuildingBlock: KUMBUR_clean_sbu_0, # of connection points: 6
#     Node 20, Type 0, BuildingBlock: KUMBUR_clean_sbu_0, # of connection points: 6
#     Node 21, Type 0, BuildingBlock: KUMBUR_clean_sbu_0, # of connection points: 6
#     Node 22, Type 0, BuildingBlock: KUMBUR_clean_sbu_0, # of connection points: 6
#     Node 23, Type 0, BuildingBlock: KUMBUR_clean_sbu_0, # of connection points: 6
#     Edge 24, Type (0, 0), BuildingBlock: EZIPEK_clean_linker_0, # of connection points: 2
#     Edge 25, Type (0, 0), BuildingBlock: EZIPEK_clean_linker_0, # of connection points: 2
#     Edge 26, Type (0, 0), BuildingBlock: EZIPEK_clean_linker_0, # of connection points: 2
#     Edge 27, Type (0, 0), BuildingBlock: EZIPEK_clean_linker_0, # of connection points: 2
#     Edge 28, Type (0, 0), BuildingBlock: EZIPEK_clean_linker_0, # of connection points: 2
#     Edge 29, Type (0, 0), BuildingBlock: EZIPEK_clean_linker_0, # of connection points: 2
#     Edge 30, Type (0, 0), BuildingBlock: EZIPEK_clean_linker_0, # of connection points: 2
#     Edge 31, Type (0, 0), BuildingBlock: EZIPEK_clean_linker_0, # of connection points: 2
#     Edge 32, Type (0, 0), BuildingBlock: EZIPEK_clean_linker_0, # of connection points: 2
#     Edge 33, Type (0, 0), BuildingBlock: EZIPEK_clean_linker_0, # of connection points: 2
#     Edge 34, Type (0, 0), BuildingBlock: EZIPEK_clean_linker_0, # of connection points: 2
#     Edge 35, Type (0, 0), BuildingBlock: EZIPEK_clean_linker_0, # of connection points: 2
#     Edge 36, Type (0, 0), BuildingBlock: EZIPEK_clean_linker_0, # of connection points: 2
#     Edge 37, Type (0, 0), BuildingBlock: EZIPEK_clean_linker_0, # of connection points: 2
#     Edge 38, Type (0, 0), BuildingBlock: EZIPEK_clean_linker_0, # of connection points: 2
#     Edge 39, Type (0, 0), BuildingBlock: EZIPEK_clean_linker_0, # of connection points: 2
#     Edge 40, Type (0, 0), BuildingBlock: EZIPEK_clean_linker_0, # of connection points: 2
#     Edge 41, Type (0, 0), BuildingBlock: EZIPEK_clean_linker_0, # of connection points: 2
#     Edge 42, Type (0, 0), BuildingBlock: EZIPEK_clean_linker_0, # of connection points: 2
#     Edge 43, Type (0, 0), BuildingBlock: EZIPEK_clean_linker_0, # of connection points: 2
#     Edge 44, Type (0, 0), BuildingBlock: EZIPEK_clean_linker_0, # of connection points: 2
#     Edge 45, Type (0, 0), BuildingBlock: EZIPEK_clean_linker_0, # of connection points: 2
#     Edge 46, Type (0, 0), BuildingBlock: EZIPEK_clean_linker_0, # of connection points: 2
#     Edge 47, Type (0, 0), BuildingBlock: EZIPEK_clean_linker_0, # of connection points: 2
#     Edge 48, Type (0, 0), BuildingBlock: EZIPEK_clean_linker_0, # of connection points: 2
#     Edge 49, Type (0, 0), BuildingBlock: EZIPEK_clean_linker_0, # of connection points: 2
#     Edge 50, Type (0, 0), BuildingBlock: EZIPEK_clean_linker_0, # of connection points: 2
#     Edge 51, Type (0, 0), BuildingBlock: EZIPEK_clean_linker_0, # of connection points: 2
#     Edge 52, Type (0, 0), BuildingBlock: EZIPEK_clean_linker_0, # of connection points: 2
#     Edge 53, Type (0, 0), BuildingBlock: EZIPEK_clean_linker_0, # of connection points: 2
#     Edge 54, Type (0, 0), BuildingBlock: EZIPEK_clean_linker_0, # of connection points: 2
#     Edge 55, Type (0, 0), BuildingBlock: EZIPEK_clean_linker_0, # of connection points: 2
#     Edge 56, Type (0, 0), BuildingBlock: EZIPEK_clean_linker_0, # of connection points: 2
#     Edge 57, Type (0, 0), BuildingBlock: EZIPEK_clean_linker_0, # of connection points: 2
#     Edge 58, Type (0, 0), BuildingBlock: EZIPEK_clean_linker_0, # of connection points: 2
#     Edge 59, Type (0, 0), BuildingBlock: EZIPEK_clean_linker_0, # of connection points: 2
#     Edge 60, Type (0, 0), BuildingBlock: EZIPEK_clean_linker_0, # of connection points: 2
#     Edge 61, Type (0, 0), BuildingBlock: EZIPEK_clean_linker_0, # of connection points: 2
#     Edge 62, Type (0, 0), BuildingBlock: EZIPEK_clean_linker_0, # of connection points: 2
#     Edge 63, Type (0, 0), BuildingBlock: EZIPEK_clean_linker_0, # of connection points: 2
#     Edge 64, Type (0, 0), BuildingBlock: EZIPEK_clean_linker_0, # of connection points: 2
#     Edge 65, Type (0, 0), BuildingBlock: EZIPEK_clean_linker_0, # of connection points: 2
#     Edge 66, Type (0, 0), BuildingBlock: EZIPEK_clean_linker_0, # of connection points: 2
#     Edge 67, Type (0, 0), BuildingBlock: EZIPEK_clean_linker_0, # of connection points: 2
#     Edge 68, Type (0, 0), BuildingBlock: EZIPEK_clean_linker_0, # of connection points: 2
#     Edge 69, Type (0, 0), BuildingBlock: EZIPEK_clean_linker_0, # of connection points: 2
#     Edge 70, Type (0, 0), BuildingBlock: EZIPEK_clean_linker_0, # of connection points: 2
#     Edge 71, Type (0, 0), BuildingBlock: EZIPEK_clean_linker_0, # of connection points: 2
#     Edge 72, Type (0, 0), BuildingBlock: EZIPEK_clean_linker_0, # of connection points: 2
#     Edge 73, Type (0, 0), BuildingBlock: EZIPEK_clean_linker_0, # of connection points: 2
#     Edge 74, Type (0, 0), BuildingBlock: EZIPEK_clean_linker_0, # of connection points: 2
#     Edge 75, Type (0, 0), BuildingBlock: EZIPEK_clean_linker_0, # of connection points: 2
#     Edge 76, Type (0, 0), BuildingBlock: EZIPEK_clean_linker_0, # of connection points: 2
#     Edge 77, Type (0, 0), BuildingBlock: EZIPEK_clean_linker_0, # of connection points: 2
#     Edge 78, Type (0, 0), BuildingBlock: EZIPEK_clean_linker_0, # of connection points: 2
#     Edge 79, Type (0, 0), BuildingBlock: EZIPEK_clean_linker_0, # of connection points: 2
#     Edge 80, Type (0, 0), BuildingBlock: EZIPEK_clean_linker_0, # of connection points: 2
#     Edge 81, Type (0, 0), BuildingBlock: EZIPEK_clean_linker_0, # of connection points: 2
#     Edge 82, Type (0, 0), BuildingBlock: EZIPEK_clean_linker_0, # of connection points: 2
#     Edge 83, Type (0, 0), BuildingBlock: EZIPEK_clean_linker_0, # of connection points: 2
#     Edge 84, Type (0, 0), BuildingBlock: EZIPEK_clean_linker_0, # of connection points: 2
#     Edge 85, Type (0, 0), BuildingBlock: EZIPEK_clean_linker_0, # of connection points: 2
#     Edge 86, Type (0, 0), BuildingBlock: EZIPEK_clean_linker_0, # of connection points: 2
#     Edge 87, Type (0, 0), BuildingBlock: EZIPEK_clean_linker_0, # of connection points: 2
#     Edge 88, Type (0, 0), BuildingBlock: EZIPEK_clean_linker_0, # of connection points: 2
#     Edge 89, Type (0, 0), BuildingBlock: EZIPEK_clean_linker_0, # of connection points: 2
#     Edge 90, Type (0, 0), BuildingBlock: EZIPEK_clean_linker_0, # of connection points: 2
#     Edge 91, Type (0, 0), BuildingBlock: EZIPEK_clean_linker_0, # of connection points: 2
#     Edge 92, Type (0, 0), BuildingBlock: EZIPEK_clean_linker_0, # of connection points: 2
#     Edge 93, Type (0, 0), BuildingBlock: EZIPEK_clean_linker_0, # of connection points: 2
#     Edge 94, Type (0, 0), BuildingBlock: EZIPEK_clean_linker_0, # of connection points: 2
#     Edge 95, Type (0, 0), BuildingBlock: EZIPEK_clean_linker_0, # of connection points: 2
# Relax obj value: 0.129
# Max RMSD: 0.246
# Mean RMSD: 0.246
data_MOF--net-sxg--node1-KUMBUR_clean_sbu_0--edge1-EZIPEK_clean_linker_0
_symmetry_space_group_name_H-M    P1
_symmetry_Int_Tables_number       1
_symmetry_cell_setting            triclinic
loop_
_symmetry_equiv_pos_as_xyz
'x, y, z'
_cell_length_a     40.118714
_cell_length_b     40.195525
_cell_length_c     40.183913
_cell_angle_alpha  90.08075
_cell_angle_beta   90.163627
_cell_angle_gamma 89.875759
loop_
_atom_site_label
_atom_site_type_symbol
_atom_site_fract_x
_atom_site_fract_y
_atom_site_fract_z
_atom_type_partial_charge
Tb0 Tb 0.04643 0.4074 0.28069 0.0
C1 C 0.04855 0.29767 0.3658 0.0
C2 C 0.05623 0.32554 0.41881 0.0
C3 C 1.0182 0.27909 0.41448 0.0
C4 C 0.06345 0.32276 0.38458 0.0
C5 C 0.02736 0.27441 0.38132 0.0
C6 C 0.03215 0.30499 0.4329 0.0
C7 C 0.02479 0.24385 0.32995 0.0
N8 N 0.0551 0.29557 0.33274 0.0
C9 C 0.04514 0.26782 0.31534 0.0
C10 C 1.01527 0.2475 0.36295 0.0
Tb11 Tb 0.08919 0.33677 0.31262 0.0
N12 N 0.08532 0.34387 0.36972 0.0
C13 C 0.10477 0.3641 0.38951 0.0
C14 C 0.07328 0.34893 0.43803 0.0
C15 C 0.09841 0.36754 0.42348 0.0
H16 H 0.05218 0.26396 0.2898 0.0
H17 H 0.11334 0.38424 0.43851 0.0
H18 H 0.02427 0.30929 0.45795 0.0
H19 H 1.01639 0.22262 0.31563 0.0
H20 H 0.12639 0.37692 0.38049 0.0
H21 H 0.09728 0.42025 0.15662 0.0
H22 H 0.06826 0.35172 0.46438 0.0
H23 H 1.02339 0.4647 0.33658 0.0
H24 H 0.07478 0.39031 0.20418 0.0
H25 H 1.01317 0.52465 0.33717 0.0
H26 H 0.99974 0.26321 0.42561 0.0
H27 H 0.09902 0.48168 0.1571 0.0
H28 H 0.08277 0.53481 0.18545 0.0
H29 H 0.99902 0.22918 0.37417 0.0
H30 H 0.05643 0.56295 0.23302 0.0
N31 N 0.06952 0.43324 0.23505 0.0
C32 C 0.07784 0.41673 0.20643 0.0
C33 C 0.0907 0.46843 0.17901 0.0
C34 C 0.07876 0.48549 0.20682 0.0
C35 C 0.08982 0.43382 0.17868 0.0
C36 C 0.06861 0.46698 0.23489 0.0
H37 H 0.02901 0.55919 0.28892 0.0
N38 N 0.04597 0.46413 0.28844 0.0
C39 C 0.02499 0.51326 0.31581 0.0
C40 C 0.05491 0.48287 0.26191 0.0
C41 C 0.03127 0.47902 0.31541 0.0
C42 C 0.03377 0.53265 0.28848 0.0
C43 C 0.04934 0.51761 0.26123 0.0
O44 O 0.99608 0.42151 0.28938 0.0
O45 O 0.04178 0.363 0.31317 0.0
O46 O 0.04944 0.31987 0.27704 0.0
O47 O 0.04044 0.36707 0.2454 0.0
O48 O 0.02427 0.40677 0.33058 0.0
O49 O 1.01196 0.40515 0.24127 0.0
O50 O 0.1217 0.30174 0.2911 0.0
O51 O 0.09422 0.37872 0.27842 0.0
O52 O 0.08606 0.43151 0.30997 0.0
O53 O 0.11678 0.38455 0.3265 0.0
O54 O 0.11048 0.33248 0.26349 0.0
O55 O 0.12495 0.31086 0.3429 0.0
C56 C 0.02633 0.37589 0.3379 0.0
C57 C 0.96854 0.44562 0.24246 0.0
C58 C 0.91688 0.478 0.23537 0.0
C59 C 0.93537 0.45304 0.25218 0.0
C60 C 0.9322 0.49585 0.20964 0.0
C61 C 0.98267 0.4636 0.21605 0.0
C62 C 0.96479 0.48873 0.20013 0.0
C63 C 0.03678 0.33508 0.2504 0.0
C64 C 0.98762 0.41805 0.25836 0.0
C65 C 0.05993 0.53623 0.23371 0.0
C66 C 0.07506 0.52023 0.20673 0.0
C67 C 0.10885 0.36307 0.25434 0.0
C68 C 0.13808 0.25485 0.32375 0.0
C69 C 0.16214 0.23982 0.34536 0.0
C70 C 0.16632 0.20441 0.3462 0.0
C71 C 0.14503 0.18471 0.32674 0.0
C72 C 0.11893 0.23363 0.30341 0.0
C73 C 0.12164 0.19918 0.30565 0.0
C74 C 0.11156 0.41785 0.32631 0.0
C75 C 0.13533 0.29206 0.31873 0.0
H76 H 0.92382 0.4391 0.2721 0.0
H77 H 0.91864 0.51516 0.19654 0.0
H78 H 1.00742 0.45795 0.20716 0.0
H79 H 0.97611 0.50243 0.17995 0.0
H80 H 0.17857 0.25544 0.35999 0.0
H81 H 0.14754 0.15785 0.32676 0.0
H82 H 0.10254 0.24355 0.28456 0.0
H83 H 0.10634 0.18355 0.28987 0.0
Tb84 Tb 0.50324 0.6409 0.78392 0.0
C85 C 0.50168 0.74971 0.87295 0.0
C86 C 0.50336 0.71868 0.92444 0.0
C87 C 0.53507 0.76952 0.91915 0.0
C88 C 0.49225 0.72222 0.89132 0.0
C89 C 0.52186 0.77452 0.8874 0.0
C90 C 0.52616 0.74142 0.93742 0.0
C91 C 0.5145 0.80745 0.83801 0.0
N92 N 0.49064 0.75256 0.84125 0.0
C93 C 0.49489 0.78207 0.82461 0.0
C94 C 0.52875 0.80334 0.86932 0.0
Tb95 Tb 0.4594 0.70892 0.8216 0.0
N96 N 0.47214 0.69913 0.87695 0.0
C97 C 0.45916 0.67416 0.89632 0.0
C98 C 0.49182 0.69208 0.9434 0.0
C99 C 0.46895 0.6702 0.92947 0.0
H100 H 0.48313 0.78635 0.80085 0.0
H101 H 0.45888 0.65009 0.94421 0.0
H102 H 0.53739 0.73674 0.96119 0.0
H103 H 0.51844 0.83021 0.82423 0.0
H104 H 0.44056 0.65723 0.88764 0.0
H105 H 0.45546 0.63194 0.65829 0.0
H106 H 0.49987 0.68864 0.96893 0.0
H107 H 0.52444 0.58225 0.8391 0.0
H108 H 0.47657 0.66048 0.70783 0.0
H109 H 0.535 0.52225 0.83807 0.0
H110 H 0.55301 0.78678 0.92896 0.0
H111 H 0.45406 0.57048 0.65658 0.0
H112 H 0.46962 0.51647 0.68375 0.0
H113 H 0.54426 0.82285 0.87967 0.0
H114 H 0.49447 0.48692 0.73135 0.0
N115 N 0.48112 0.6165 0.73705 0.0
C116 C 0.47349 0.63395 0.70883 0.0
C117 C 0.46174 0.58307 0.67919 0.0
C118 C 0.47303 0.56515 0.70678 0.0
C119 C 0.4624 0.61771 0.68009 0.0
C120 C 0.4824 0.58281 0.73575 0.0
H121 H 0.52035 0.48907 0.78829 0.0
N122 N 0.50356 0.5841 0.79013 0.0
C123 C 0.52383 0.53425 0.81666 0.0
C124 C 0.49543 0.56614 0.7627 0.0
C125 C 0.51752 0.56851 0.81714 0.0
C126 C 0.51567 0.51562 0.78849 0.0
C127 C 0.50087 0.53143 0.76119 0.0
O128 O 0.55361 0.6259 0.78975 0.0
O129 O 0.50707 0.68284 0.81929 0.0
O130 O 0.49509 0.73014 0.78383 0.0
O131 O 0.50897 0.6839 0.75178 0.0
O132 O 0.53005 0.63985 0.83147 0.0
O133 O 0.53604 0.64697 0.74383 0.0
O134 O 0.43087 0.75303 0.81458 0.0
O135 O 0.45631 0.67008 0.78383 0.0
O136 O 0.46334 0.61523 0.81212 0.0
O137 O 0.43226 0.66059 0.83241 0.0
O138 O 0.43557 0.71569 0.77349 0.0
O139 O 0.41502 0.71609 0.84901 0.0
C140 C 0.52577 0.66969 0.84161 0.0
C141 C 0.57863 0.60603 0.73993 0.0
C142 C 0.62845 0.57198 0.73077 0.0
C143 C 0.61085 0.59572 0.74979 0.0
C144 C 0.61331 0.55808 0.70249 0.0
C145 C 0.56443 0.5922 0.71101 0.0
C146 C 0.5815 0.56813 0.69274 0.0
C147 C 0.50998 0.71612 0.75753 0.0
C148 C 0.56077 0.63222 0.75887 0.0
C149 C 0.49103 0.51363 0.73274 0.0
C150 C 0.47674 0.53042 0.70573 0.0
C151 C 0.44001 0.68635 0.76149 0.0
C152 C 0.40356 0.77295 0.8638 0.0
C153 C 0.38269 0.80116 0.85754 0.0
C154 C 0.37744 0.82588 0.88264 0.0
C155 C 0.39397 0.8222 0.91326 0.0
C156 C 0.41818 0.76998 0.89546 0.0
C157 C 0.41386 0.79448 0.91962 0.0
C158 C 0.43753 0.62757 0.82914 0.0
C159 C 0.40988 0.74627 0.83816 0.0
H160 H 0.62242 0.60649 0.77169 0.0
H161 H 0.62638 0.53969 0.68767 0.0
H162 H 0.54029 0.6002 0.70211 0.0
H163 H 0.5702 0.55756 0.67065 0.0
H164 H 0.37054 0.80376 0.83359 0.0
H165 H 0.39097 0.84073 0.93266 0.0
H166 H 0.43281 0.74843 0.90189 0.0
H167 H 0.4258 0.79179 0.94367 0.0
Tb168 Tb 0.54445 0.13443 0.7591 0.0
C169 C 0.54416 0.24569 0.67491 0.0
C170 C 0.54443 0.21705 0.62171 0.0
C171 C 0.51174 0.26721 0.62864 0.0
C172 C 0.55512 0.21931 0.65507 0.0
C173 C 0.5241 0.27099 0.66095 0.0
C174 C 0.52078 0.23948 0.60975 0.0
C175 C 0.52894 0.3016 0.71222 0.0
N176 N 0.55392 0.24724 0.70728 0.0
C177 C 0.54825 0.27577 0.72526 0.0
C178 C 0.51626 0.29894 0.6801 0.0
Tb179 Tb 0.58634 0.20337 0.72422 0.0
N180 N 0.5766 0.19643 0.66804 0.0
C181 C 0.59276 0.17498 0.64679 0.0
C182 C 0.55769 0.19229 0.60126 0.0
C183 C 0.58287 0.17194 0.61358 0.0
H184 H 0.55785 0.27864 0.75012 0.0
H185 H 0.59504 0.15415 0.59739 0.0
H186 H 0.50928 0.23511 0.58603 0.0
H187 H 0.52381 0.32352 0.72704 0.0
H188 H 0.61422 0.16069 0.65402 0.0
H189 H 0.59976 0.10246 0.87687 0.0
H190 H 0.54989 0.18982 0.57553 0.0
H191 H 0.53249 0.08542 0.6901 0.0
H192 H 0.58286 0.13972 0.83117 0.0
H193 H 0.51781 0.02709 0.6811 0.0
H194 H 0.49419 0.285 0.61873 0.0
H195 H 0.58828 0.0421 0.87229 0.0
H196 H 0.56399 0.99478 0.83886 0.0
H197 H 0.50087 0.31878 0.67012 0.0
H198 H 0.53936 0.97479 0.78629 0.0
N199 N 0.56726 0.10137 0.79931 0.0
C200 C 0.58065 0.11358 0.82792 0.0
C201 C 0.58236 0.05843 0.85167 0.0
C202 C 0.5675 0.04609 0.82266 0.0
C203 C 0.58913 0.09239 0.85423 0.0
C204 C 0.56066 0.06845 0.79647 0.0
H205 H 0.5215 0.98677 0.72739 0.0
N206 N 0.54331 0.07957 0.74197 0.0
C207 C 0.52571 0.03531 0.70553 0.0
C208 C 0.54729 0.05722 0.76695 0.0
C209 C 0.53391 0.06871 0.71096 0.0
C210 C 0.52772 1.01263 0.73173 0.0
C211 C 0.53967 0.02326 0.76267 0.0
O212 O 0.49359 0.12074 0.75586 0.0
O213 O 0.53912 0.17769 0.72564 0.0
O214 O 0.54793 0.22175 0.76108 0.0
O215 O 0.53968 0.17514 0.79431 0.0
O216 O 0.51566 0.13578 0.71239 0.0
O217 O 0.51533 0.13481 0.8027 0.0
O218 O 0.62997 0.22815 0.74072 0.0
O219 O 0.59257 0.1639 0.76106 0.0
O220 O 0.58691 0.10899 0.73651 0.0
O221 O 0.6111 0.15404 0.70883 0.0
O222 O 0.60425 0.21244 0.77397 0.0
O223 O 0.61531 0.23298 0.69083 0.0
C224 C 0.52011 0.16571 0.70298 0.0
C225 C 0.47092 0.09494 0.80419 0.0
C226 C 0.4201 0.06157 0.8121 0.0
C227 C 0.43764 0.08699 0.79514 0.0
C228 C 0.43661 0.04341 0.83698 0.0
C229 C 0.48591 0.07725 0.83043 0.0
C230 C 0.46922 0.05122 0.84603 0.0
C231 C 0.53567 0.20712 0.78841 0.0
C232 C 0.48895 0.1229 0.78781 0.0
C233 C 0.54515 1.00096 0.78905 0.0
C234 C 0.55925 1.01232 0.81895 0.0
C235 C 0.60567 0.18218 0.78455 0.0
C236 C 0.64035 0.28097 0.71625 0.0
C237 C 0.66118 0.29929 0.69419 0.0
C238 C 0.66628 0.33414 0.69893 0.0
C239 C 0.64931 0.35025 0.72481 0.0
C240 C 0.6256 0.2981 0.74296 0.0
C241 C 0.62929 0.33237 0.74663 0.0
C242 C 0.60937 0.12117 0.7159 0.0
C243 C 0.63545 0.24396 0.7134 0.0
H244 H 0.42503 0.10131 0.77604 0.0
H245 H 0.42371 0.02391 0.85034 0.0
H246 H 0.51038 0.08386 0.83947 0.0
H247 H 0.48133 0.03763 0.86593 0.0
H248 H 0.67432 0.28644 0.67447 0.0
H249 H 0.65282 0.37665 0.72909 0.0
H250 H 0.6116 0.28487 0.76164 0.0
H251 H 0.61733 0.34503 0.76719 0.0
Tb252 Tb 1.0 0.90892 0.26761 0.0
C253 C 0.99485 0.78636 0.19103 0.0
C254 C 0.99514 0.80841 0.13488 0.0
C255 C 1.01821 0.75366 0.14576 0.0
C256 C 0.98685 0.81174 0.16875 0.0
C257 C 1.01011 0.75682 0.17944 0.0
C258 C 1.01119 0.77963 0.12387 0.0
C259 C 1.00806 0.7351 0.23517 0.0
N260 N 0.98759 0.79038 0.2238 0.0
C261 C 0.99277 0.76454 0.24556 0.0
C262 C 1.01699 0.73129 0.20198 0.0
Tb263 Tb 0.95824 0.83795 0.2357 0.0
N264 N 0.97127 0.83965 0.18016 0.0
C265 C 0.96303 0.86466 0.15842 0.0
C266 C 0.98716 0.83408 0.11288 0.0
C267 C 0.97085 0.86221 0.12468 0.0
H268 H 0.98516 0.76633 0.27126 0.0
H269 H 0.96452 0.88226 0.10783 0.0
H270 H 1.01826 0.77751 0.0984 0.0
H271 H 1.01252 0.71519 0.25274 0.0
H272 H 0.95091 0.88706 0.16614 0.0
H273 H 0.94493 0.9343 0.38765 0.0
H274 H 0.99335 0.83239 0.08674 0.0
H275 H 1.0206 0.96101 0.20507 0.0
H276 H 0.96421 0.89948 0.34163 0.0
H277 H 0.03403 1.01991 0.19982 0.0
H278 H 0.03046 0.73147 0.13656 0.0
H279 H 0.95179 0.99536 0.38484 0.0
H280 H 0.97378 0.04487 0.35388 0.0
H281 H 0.02877 0.70838 0.19392 0.0
H282 H 1.0007 0.06771 0.30393 0.0
N283 N 0.97744 0.93969 0.31028 0.0
C284 C 0.96529 0.92583 0.33878 0.0
C285 C 0.95905 0.98005 0.36386 0.0
C286 C 0.97349 0.9941 0.3356 0.0
C287 C 0.95503 0.94567 0.36547 0.0
C288 C 0.98216 0.97301 0.30884 0.0
H289 H 0.02387 0.0585 0.24666 0.0
N290 N 1.00258 0.96476 0.25504 0.0
C291 C 0.02358 1.01067 0.22281 0.0
C292 C 0.99649 0.98585 0.28069 0.0
C293 C 1.01568 0.97694 0.22601 0.0
C294 C 1.01797 0.03235 0.24933 0.0
C295 C 1.00376 1.02016 0.27858 0.0
O296 O 0.05092 0.92176 0.26201 0.0
O297 O 1.00464 0.86476 0.23513 0.0
O298 O 0.99819 0.823 0.27258 0.0
O299 O 1.00412 0.87034 0.30493 0.0
O300 O 0.02786 0.90613 0.22039 0.0
O301 O 0.03178 0.90622 0.30927 0.0
O302 O 0.91852 0.80987 0.25488 0.0
O303 O 0.952 0.87967 0.27023 0.0
O304 O 0.95927 0.93205 0.23841 0.0
O305 O 0.93052 0.88474 0.21889 0.0
O306 O 0.93841 0.83246 0.28439 0.0
O307 O 0.92449 0.81268 0.20268 0.0
C308 C 1.02324 0.87591 0.21181 0.0
C309 C 0.0763 0.9455 0.31022 0.0
C310 C 0.12754 0.97831 0.31735 0.0
C311 C 0.1091 0.95367 0.3001 0.0
C312 C 0.11251 0.99515 0.34402 0.0
C313 C 0.0624 0.96246 0.33752 0.0
C314 C 0.08022 0.98731 0.35393 0.0
C315 C 1.00903 0.83845 0.30008 0.0
C316 C 0.05741 0.91828 0.29353 0.0
C317 C 0.99559 0.04128 0.30521 0.0
C318 C 0.98015 0.02832 0.33356 0.0
C319 C 0.93785 0.86293 0.29415 0.0
C320 C 0.90437 0.76055 0.22563 0.0
C321 C 0.88368 0.74417 0.20185 0.0
C322 C 0.87796 0.70916 0.20406 0.0
C323 C 0.89462 0.69088 0.2287 0.0
C324 C 0.91821 0.74117 0.25143 0.0
C325 C 0.91445 0.70679 0.25219 0.0
C326 C 0.93437 0.91814 0.2212 0.0
C327 C 0.90882 0.79779 0.22665 0.0
H328 H 0.12045 0.94058 0.27943 0.0
H329 H 0.12605 1.01423 0.35749 0.0
H330 H 0.03785 0.9563 0.34662 0.0
H331 H 0.06909 1.00025 0.37478 0.0
H332 H 0.87075 0.75861 0.18308 0.0
H333 H 0.89074 0.66429 0.23091 0.0
H334 H 0.93138 0.75261 0.27189 0.0
H335 H 0.92588 0.69251 0.272 0.0
Tb336 Tb 0.29187 0.03789 0.40361 0.0
C337 C 0.36165 0.07311 0.27707 0.0
C338 C 0.41799 0.07664 0.29847 0.0
C339 C 0.40853 0.07369 0.23883 0.0
C340 C 0.38331 0.07584 0.30374 0.0
C341 C 0.37409 0.07128 0.24429 0.0
C342 C 0.43031 0.07691 0.26591 0.0
C343 C 0.31746 0.06715 0.22458 0.0
N344 N 0.3284 0.07209 0.28335 0.0
C345 C 0.30626 0.07003 0.25738 0.0
C346 C 0.35152 0.06789 0.21797 0.0
Tb347 Tb 0.31345 0.08755 0.33625 0.0
N348 N 0.37027 0.07793 0.33482 0.0
C349 C 0.3911 0.07673 0.36179 0.0
C350 C 0.43924 0.07744 0.32606 0.0
C351 C 0.4257 0.07651 0.35789 0.0
H352 H 0.2798 0.07222 0.26146 0.0
H353 H 0.44186 0.07589 0.3795 0.0
H354 H 0.45664 0.07992 0.26158 0.0
H355 H 0.29971 0.06557 0.2043 0.0
H356 H 0.38144 0.075 0.38638 0.0
H357 H 0.15714 0.05489 0.40796 0.0
H358 H 0.46605 0.07803 0.32309 0.0
H359 H 0.3491 0.03264 0.46227 0.0
H360 H 0.21088 0.05439 0.38028 0.0
H361 H 0.34911 1.01827 0.52201 0.0
H362 H 0.41854 0.07332 0.21381 0.0
H363 H 0.15363 0.04865 0.46895 0.0
H364 H 0.18264 0.03908 0.52322 0.0
H365 H 0.3601 0.0664 0.19246 0.0
H366 H 0.23443 0.02771 0.55398 0.0
N367 N 0.23958 0.04784 0.42505 0.0
C368 C 0.21074 0.05133 0.40688 0.0
C369 C 0.17781 0.04864 0.45699 0.0
C370 C 0.20707 0.04487 0.47555 0.0
C371 C 0.17968 0.05192 0.42255 0.0
C372 C 0.238 0.04522 0.45884 0.0
H373 H 0.29615 1.018 0.5534 0.0
N374 N 0.29685 0.04174 0.45998 0.0
C375 C 0.32603 0.02505 0.50973 0.0
C376 C 0.26741 0.04084 0.47665 0.0
C377 C 0.32603 0.03387 0.47605 0.0
C378 C 0.29606 0.02469 0.52729 0.0
C379 C 0.26634 0.0331 0.51094 0.0
O380 O 0.31759 0.99535 0.41657 0.0
O381 O 0.3159 0.03623 0.35391 0.0
O382 O 0.27911 0.04882 0.31574 0.0
O383 O 0.25712 0.02483 0.36362 0.0
O384 O 0.34286 1.02061 0.39325 0.0
O385 O 0.26426 0.99373 0.41765 0.0
O386 O 0.28626 0.12391 0.31105 0.0
O387 O 0.28473 0.08906 0.38238 0.0
O388 O 0.31726 0.07977 0.42887 0.0
O389 O 0.33514 0.11179 0.38376 0.0
O390 O 0.26111 0.10053 0.33954 0.0
O391 O 0.33856 0.12975 0.31409 0.0
C392 C 0.34241 1.0202 0.36118 0.0
C393 C 0.2968 0.95539 0.4538 0.0
C394 C 0.28228 0.90675 0.48788 0.0
C395 C 0.27372 0.9303 0.46288 0.0
C396 C 0.31316 0.90901 0.50406 0.0
C397 C 0.32838 0.95528 0.46963 0.0
C398 C 0.336 0.93305 0.49494 0.0
C399 C 0.25618 0.03051 0.33123 0.0
C400 C 0.29185 0.97761 0.42418 0.0
C401 C 0.23566 0.03309 0.5276 0.0
C402 C 0.20617 0.03949 0.51006 0.0
C403 C 0.25759 0.10243 0.37123 0.0
C404 C 0.30963 0.14997 0.26347 0.0
C405 C 0.33584 0.16549 0.24491 0.0
C406 C 0.33019 0.17626 0.21123 0.0
C407 C 0.29875 0.17046 0.19689 0.0
C408 C 0.27861 0.14553 0.24736 0.0
C409 C 0.27351 0.15518 0.21461 0.0
C410 C 0.33418 0.10544 0.41692 0.0
C411 C 0.31142 0.14063 0.30006 0.0
H412 H 0.25001 0.92841 0.45006 0.0
H413 H 0.31991 0.89146 0.52342 0.0
H414 H 0.34809 0.97186 0.46201 0.0
H415 H 0.3602 0.93389 0.50691 0.0
H416 H 0.35979 0.16983 0.25659 0.0
H417 H 0.29343 0.17838 0.17165 0.0
H418 H 0.25756 0.13463 0.26011 0.0
H419 H 0.24943 0.15132 0.20302 0.0
Tb420 Tb 0.26288 1.00291 0.91326 0.0
C421 C 0.17733 1.00305 0.80304 0.0
C422 C 0.12513 1.00323 0.833 0.0
C423 C 0.13084 0.03586 0.78278 0.0
C424 C 0.15849 0.99271 0.82991 0.0
C425 C 0.16293 0.02327 0.7782 0.0
C426 C 0.11232 0.02638 0.81056 0.0
C427 C 0.21286 1.01677 0.74589 0.0
N428 N 0.20913 0.99215 0.80043 0.0
C429 C 0.22608 0.99688 0.77118 0.0
C430 C 0.18135 0.03068 0.74973 0.0
Tb431 Tb 0.22821 0.95974 0.84349 0.0
N432 N 0.17253 0.97181 0.85249 0.0
C433 C 0.1528 0.95792 0.87667 0.0
C434 C 0.10573 0.99069 0.85883 0.0
C435 C 0.11947 0.96731 0.88029 0.0
H436 H 0.2498 0.98509 0.76685 0.0
H437 H 0.10442 0.9565 0.89979 0.0
H438 H 0.08851 0.03745 0.81528 0.0
H439 H 0.22688 1.02104 0.72333 0.0
H440 H 0.16142 0.93891 0.89318 0.0
H441 H 0.39261 0.96509 0.90537 0.0
H442 H 0.08001 0.99833 0.86195 0.0
H443 H 0.2127 1.0129 0.97794 0.0
H444 H 0.33926 0.98426 0.88358 0.0
H445 H 0.21961 1.01876 0.03859 0.0
H446 H 0.12096 0.05385 0.76557 0.0
H447 H 0.40011 0.95653 0.9658 0.0
H448 H 0.37692 0.96248 0.02331 0.0
H449 H 0.17107 0.04625 0.73022 0.0
H450 H 0.33075 0.97975 0.05964 0.0
N451 N 0.31396 0.98261 0.93025 0.0
C452 C 0.34095 0.9792 0.90973 0.0
C453 C 0.37594 0.96386 0.95617 0.0
C454 C 0.3493 0.97032 0.97753 0.0
C455 C 0.37181 0.96868 0.92211 0.0
C456 C 0.3182 0.97942 0.96363 0.0
H457 H 0.27286 1.00284 0.06542 0.0
N458 N 0.26216 0.99509 0.9698 0.0
C459 C 0.24001 1.00943 0.02365 0.0
C460 C 0.29186 0.9874 0.98409 0.0
C461 C 0.23608 1.00565 0.98925 0.0
C462 C 0.27015 1.00065 0.03867 0.0
C463 C 0.2964 0.98898 1.01895 0.0
O464 O 0.2512 0.04641 0.9394 0.0
O465 O 0.22864 1.00739 0.87036 0.0
O466 O 0.2674 0.99398 0.82311 0.0
O467 O 0.29275 1.01652 0.87034 0.0
O468 O 0.21327 0.02571 0.91471 0.0
O469 O 0.29683 0.04389 0.91235 0.0
O470 O 0.23655 0.93166 0.79941 0.0
O471 O 0.26528 0.95614 0.88347 0.0
O472 O 0.23514 0.96103 0.93657 0.0
O473 O 0.21699 0.93047 0.89018 0.0
O474 O 0.27735 0.93813 0.83727 0.0
O475 O 0.20033 0.91582 0.83427 0.0
C476 C 0.20507 0.02419 0.88393 0.0
C477 C 0.27441 0.0982 0.92682 0.0
C478 C 0.28091 0.15564 0.94743 0.0
C479 C 0.28875 0.1213 0.94943 0.0
C480 C 0.25908 0.16649 0.92231 0.0
C481 C 0.252 0.10988 0.90267 0.0
C482 C 0.24478 0.14378 0.90015 0.0
C483 C 0.2909 1.01246 0.83781 0.0
C484 C 0.27848 0.06187 0.93231 0.0
C485 C 0.32702 0.97932 0.03292 0.0
C486 C 0.35326 0.96947 1.01225 0.0
C487 C 0.2887 0.94137 0.86707 0.0
C488 C 0.18847 0.90467 0.77649 0.0
C489 C 0.19322 0.87961 0.75163 0.0
C490 C 0.17049 0.87648 0.72418 0.0
C491 C 0.14427 0.89961 0.72172 0.0
C492 C 0.15992 0.92466 0.77411 0.0
C493 C 0.13867 0.92286 0.74675 0.0
C494 C 0.21928 0.93497 0.92331 0.0
C495 C 0.2127 0.91058 0.80475 0.0
H496 H 0.30529 0.11256 0.96892 0.0
H497 H 0.25292 0.19265 0.92002 0.0
H498 H 0.23947 0.09264 0.88627 0.0
H499 H 0.22755 0.15243 0.88125 0.0
H500 H 0.21415 0.86268 0.75369 0.0
H501 H 0.1271 0.89873 0.70087 0.0
H502 H 0.15365 0.94162 0.79361 0.0
H503 H 0.11735 0.93936 0.74518 0.0
Tb504 Tb 0.78341 0.50484 0.63909 0.0
C505 C 0.85871 0.46968 0.76362 0.0
C506 C 0.91414 0.4636 0.74074 0.0
C507 C 0.90664 0.46626 0.8006 0.0
C508 C 0.87941 0.46631 0.73635 0.0
C509 C 0.87226 0.47082 0.79604 0.0
C510 C 0.92734 0.4618 0.77295 0.0
C511 C 0.81647 0.47657 0.81738 0.0
N512 N 0.82527 0.47125 0.75833 0.0
C513 C 0.80408 0.47358 0.78497 0.0
C514 C 0.85073 0.47514 0.82297 0.0
Tb515 Tb 0.80845 0.45582 0.70591 0.0
N516 N 0.86539 0.46494 0.70559 0.0
C517 C 0.88549 0.46628 0.67813 0.0
C518 C 0.93452 0.46227 0.71264 0.0
C519 C 0.92015 0.46486 0.68119 0.0
H520 H 0.77746 0.47163 0.78172 0.0
H521 H 0.9357 0.46532 0.65923 0.0
H522 H 0.9535 0.45666 0.77654 0.0
H523 H 0.79948 0.4786 0.83816 0.0
H524 H 0.87531 0.46906 0.65371 0.0
H525 H 0.64896 0.48545 0.64763 0.0
H526 H 0.96133 0.46011 0.71491 0.0
H527 H 0.83382 0.51114 0.57529 0.0
H528 H 0.70499 0.48802 0.67022 0.0
H529 H 0.82731 0.52323 0.51543 0.0
H530 H 0.91736 0.46556 0.82537 0.0
H531 H 0.63941 0.4891 0.58705 0.0
H532 H 0.66281 0.49588 0.52996 0.0
H533 H 0.86023 0.47652 0.8482 0.0
H534 H 0.71109 0.50622 0.494 0.0
N535 N 0.72921 0.49379 0.62289 0.0
C536 C 0.70229 0.4902 0.64367 0.0
C537 C 0.66461 0.49025 0.59675 0.0
C538 C 0.69185 0.49371 0.57548 0.0
C539 C 0.66989 0.48837 0.63095 0.0
C540 C 0.72426 0.49496 0.58932 0.0
H541 H 0.77205 0.51814 0.4886 0.0
N542 N 0.78261 0.49968 0.58263 0.0
C543 C 0.80596 0.51558 0.52991 0.0
C544 C 0.75168 0.49882 0.56871 0.0
C545 C 0.80963 0.50828 0.56374 0.0
C546 C 0.77469 0.51294 0.51493 0.0
C547 C 0.74708 0.50435 0.53426 0.0
O548 O 0.80839 0.54667 0.62394 0.0
O549 O 0.81004 0.50694 0.68772 0.0
O550 O 0.77558 0.49483 0.72759 0.0
O551 O 0.75173 0.51948 0.68079 0.0
O552 O 0.83491 0.5221 0.64718 0.0
O553 O 0.75504 0.54884 0.62471 0.0
O554 O 0.78149 0.41956 0.73112 0.0
O555 O 0.77847 0.45377 0.66046 0.0
O556 O 0.80903 0.46333 0.61332 0.0
O557 O 0.82955 0.43234 0.65824 0.0
O558 O 0.75609 0.44226 0.70364 0.0
O559 O 0.83377 0.41354 0.72792 0.0
C560 C 0.83624 0.52272 0.67927 0.0
C561 C 0.78667 0.58793 0.5882 0.0
C562 C 0.77214 0.63938 0.55759 0.0
C563 C 0.76306 0.61306 0.57963 0.0
C564 C 0.80472 0.64003 0.54481 0.0
C565 C 0.81853 0.58937 0.57328 0.0
C566 C 0.82728 0.61495 0.55196 0.0
C567 C 0.7524 0.51369 0.71315 0.0
C568 C 0.78242 0.56461 0.61715 0.0
C569 C 0.71499 0.50257 0.52044 0.0
C570 C 0.68749 0.49683 0.54095 0.0
C571 C 0.75199 0.43994 0.67203 0.0
C572 C 0.80526 0.39391 0.77867 0.0
C573 C 0.83205 0.37959 0.79747 0.0
C574 C 0.82694 0.36947 0.83131 0.0
C575 C 0.79546 0.37458 0.84564 0.0
C576 C 0.77418 0.39782 0.79468 0.0
C577 C 0.76958 0.38869 0.82763 0.0
C578 C 0.82718 0.43829 0.62517 0.0
C579 C 0.80675 0.40282 0.74206 0.0
H580 H 0.7385 0.61283 0.59074 0.0
H581 H 0.81267 0.66001 0.5286 0.0
H582 H 0.83791 0.5716 0.57929 0.0
H583 H 0.85212 0.61577 0.54154 0.0
H584 H 0.85609 0.37576 0.7859 0.0
H585 H 0.79066 0.36707 0.87109 0.0
H586 H 0.75274 0.40791 0.7817 0.0
H587 H 0.74546 0.39211 0.83918 0.0
Tb588 Tb 0.75996 0.54192 0.14169 0.0
C589 C 0.68186 0.57262 0.26362 0.0
C590 C 0.6268 0.57619 0.23904 0.0
C591 C 0.63278 0.57205 0.29899 0.0
C592 C 0.66174 0.57593 0.23578 0.0
C593 C 0.66749 0.56988 0.29553 0.0
C594 C 0.6126 0.57573 0.27078 0.0
C595 C 0.72286 0.56661 0.31867 0.0
N596 N 0.71547 0.57276 0.25947 0.0
C597 C 0.73599 0.57066 0.28675 0.0
C598 C 0.68845 0.56638 0.32313 0.0
Tb599 Tb 0.73313 0.59005 0.20807 0.0
N600 N 0.67646 0.57953 0.20561 0.0
C601 C 0.65717 0.57884 0.17743 0.0
C602 C 0.6071 0.57743 0.21035 0.0
C603 C 0.62243 0.57776 0.17935 0.0
H604 H 0.76257 0.5737 0.28448 0.0
H605 H 0.60752 0.57749 0.15685 0.0
H606 H 0.58606 0.57881 0.27352 0.0
H607 H 0.73935 0.565 0.33997 0.0
H608 H 0.66809 0.57807 0.15326 0.0
H609 H 0.89381 0.56087 0.16287 0.0
H610 H 0.58014 0.57736 0.21185 0.0
H611 H 0.71575 0.53993 0.07268 0.0
H612 H 0.83611 0.55922 0.17992 0.0
H613 H 0.72743 0.5275 1.01371 0.0
H614 H 0.6214 0.57146 0.32339 0.0
H615 H 0.90894 0.55467 0.10375 0.0
H616 H 0.89077 0.54724 0.04477 0.0
H617 H 0.67835 0.56423 0.34801 0.0
H618 H 0.84568 0.5389 1.00415 0.0
N619 N 0.81611 0.55115 0.13084 0.0
C620 C 0.84111 0.5557 0.15392 0.0
C621 C 0.88296 0.55381 0.11099 0.0
C622 C 0.85775 0.55009 0.08728 0.0
C623 C 0.87453 0.55706 0.14437 0.0
C624 C 0.82418 0.54948 0.09795 0.0
H625 H 0.78507 0.53016 0.99257 0.0
N626 N 0.76663 0.54789 0.08558 0.0
C627 C 0.74766 0.53386 0.03042 0.0
C628 C 0.7987 0.54711 0.07474 0.0
C629 C 0.74114 0.54122 0.06381 0.0
C630 C 0.78022 0.53513 1.01862 0.0
C631 C 0.80624 0.54198 0.04077 0.0
O632 O 0.73212 0.50341 0.12299 0.0
O633 O 0.73253 0.53896 0.18974 0.0
O634 O 0.76786 0.55225 0.23009 0.0
O635 O 0.78965 0.52465 0.18389 0.0
O636 O 0.70829 0.52461 0.14839 0.0
O637 O 0.78522 0.49637 0.12693 0.0
O638 O 0.75791 0.62743 0.23432 0.0
O639 O 0.76408 0.59266 0.16368 0.0
O640 O 0.73586 0.58409 0.11545 0.0
O641 O 0.71357 0.61438 0.15984 0.0
O642 O 0.78526 0.60428 0.20784 0.0
O643 O 0.70556 0.63098 0.22974 0.0
C644 C 0.70664 0.52308 0.1804 0.0
C645 C 0.75218 0.46122 0.08771 0.0
C646 C 0.76449 0.40934 0.05764 0.0
C647 C 0.77424 0.43462 0.08041 0.0
C648 C 0.73286 0.41108 0.04261 0.0
C649 C 0.72111 0.46231 0.07099 0.0
C650 C 0.71173 0.43763 0.04875 0.0
C651 C 0.7899 0.53163 0.21607 0.0
C652 C 0.7569 0.48359 0.11711 0.0
C653 C 0.83951 0.5424 0.03017 0.0
C654 C 0.86518 0.5469 0.05331 0.0
C655 C 0.79016 0.60639 0.17633 0.0
C656 C 0.7316 0.65128 0.2815 0.0
C657 C 0.70478 0.66753 0.2985 0.0
C658 C 0.70845 0.67744 0.33265 0.0
C659 C 0.73845 0.66988 0.34912 0.0
C660 C 0.76124 0.64519 0.29957 0.0
C661 C 0.76431 0.65384 0.33286 0.0
C662 C 0.71719 0.60898 0.12673 0.0
C663 C 0.73168 0.64291 0.24471 0.0
H664 H 0.79812 0.43299 0.09297 0.0
H665 H 0.72467 0.39192 0.02544 0.0
H666 H 0.70284 0.48145 0.07615 0.0
H667 H 0.68756 0.43872 0.03675 0.0
H668 H 0.68193 0.67319 0.28526 0.0
H669 H 0.74221 0.67708 0.37487 0.0
H670 H 0.78272 0.63366 0.28802 0.0
H671 H 0.7873 0.64864 0.34605 0.0
Tb672 Tb 0.41294 0.28553 0.04221 0.0
C673 C 0.30088 0.36996 0.04158 0.0
C674 C 0.32863 0.42319 0.04117 0.0
C675 C 0.27961 0.41452 1.00698 0.0
C676 C 0.32675 0.39003 0.05209 0.0
C677 C 0.27594 0.38265 1.0203 0.0
C678 C 0.30653 0.43425 1.01672 0.0
C679 C 0.24535 0.33177 0.02781 0.0
N680 N 0.29942 0.3385 0.05323 0.0
C681 C 0.27093 0.32015 0.04844 0.0
C682 C 0.2482 0.36294 1.01302 0.0
Tb683 Tb 0.34404 0.32151 0.08504 0.0
N684 N 0.34985 0.37725 0.07321 0.0
C685 C 0.37212 0.39831 0.08837 0.0
C686 C 0.3532 0.44396 0.05436 0.0
C687 C 0.37444 0.43165 0.07885 0.0
H688 H 0.26803 0.29607 0.06008 0.0
H689 H 0.39259 0.44782 0.09051 0.0
H690 H 0.31077 0.45772 1.00488 0.0
H691 H 0.22348 0.31667 0.02335 0.0
H692 H 0.38754 0.39061 0.10879 0.0
H693 H 0.44904 0.16805 0.09505 0.0
H694 H 0.35535 0.46964 0.04651 0.0
H695 H 0.46083 0.35562 0.03282 0.0
H696 H 0.41065 0.21445 0.08242 0.0
H697 H 0.51832 0.36558 1.01504 0.0
H698 H 0.26178 0.42405 0.98927 0.0
H699 H 0.50822 0.17213 0.078 0.0
H700 H 0.5537 0.20587 0.05075 0.0
H701 H 0.22846 0.37192 0.99689 0.0
H702 H 0.572 0.25926 0.02692 0.0
N703 N 0.44755 0.24563 0.06313 0.0
C704 C 0.43647 0.21721 0.07754 0.0
C705 C 0.49149 0.19289 0.07377 0.0
C706 C 0.50268 0.222 0.05842 0.0
C707 C 0.45822 0.19063 0.08368 0.0
C708 C 0.47983 0.24832 0.05385 0.0
H709 H 0.55892 0.31917 1.01335 0.0
N710 N 0.46751 0.30333 0.03984 0.0
C711 C 0.51062 0.34073 1.0219 0.0
C712 C 0.49009 0.27822 0.04087 0.0
C713 C 0.47775 0.33483 0.03189 0.0
C714 C 0.53345 0.31447 1.02086 0.0
C715 C 0.52357 0.2829 0.03147 0.0
O716 O 0.42596 0.28821 0.99116 0.0
O717 O 0.37067 0.32062 0.03829 0.0
O718 O 0.32575 0.28467 0.04673 0.0
O719 O 0.37183 0.25084 0.03733 0.0
O720 O 0.41168 0.33188 1.0128 0.0
O721 O 0.41156 0.24177 1.01321 0.0
O722 O 0.29982 0.31392 0.11308 0.0
O723 O 0.38261 0.28319 0.08992 0.0
O724 O 0.43869 0.30663 0.08546 0.0
O725 O 0.39387 0.33492 0.11004 0.0
O726 O 0.33475 0.27259 0.10469 0.0
O727 O 0.33723 0.34677 0.13089 0.0
C728 C 0.38243 0.34279 1.01872 0.0
C729 C 0.4504 0.23905 0.96773 0.0
C730 C 0.48317 0.23068 0.91642 0.0
C731 C 0.45872 0.24861 0.9347 0.0
C732 C 0.49982 0.20418 0.93196 0.0
C733 C 0.46663 0.21131 0.98161 0.0
C734 C 0.49159 0.19461 0.96421 0.0
C735 C 0.33998 0.25769 0.03333 0.0
C736 C 0.42327 0.25626 0.98663 0.0
C737 C 0.54621 0.25628 0.03422 0.0
C738 C 0.53582 0.2259 0.04787 0.0
C739 C 0.36429 0.26037 0.10378 0.0
C740 C 0.28031 0.36172 0.14308 0.0
C741 C 0.25207 0.35483 0.16369 0.0
C742 C 0.22744 0.37988 0.17014 0.0
C743 C 0.23144 0.41119 0.15524 0.0
C744 C 0.28326 0.39385 0.12975 0.0
C745 C 0.25904 0.41807 0.13548 0.0
C746 C 0.4267 0.3272 0.10827 0.0
C747 C 0.30687 0.33616 0.13539 0.0
H748 H 0.44557 0.26903 0.92293 0.0
H749 H 0.51862 0.19013 0.91861 0.0
H750 H 0.45974 0.20203 1.00585 0.0
H751 H 0.50408 0.17356 0.97552 0.0
H752 H 0.24929 0.33038 0.17459 0.0
H753 H 0.21309 0.43062 0.15919 0.0
H754 H 0.30452 0.40059 0.11494 0.0
H755 H 0.2618 0.44254 0.12461 0.0
Tb756 Tb 0.90826 0.26571 1.00282 0.0
C757 C 0.7839 0.195 0.99677 0.0
C758 C 0.80273 0.13893 1.00848 0.0
C759 C 0.74821 0.15721 0.0274 0.0
C760 C 0.80837 0.17046 0.99466 0.0
C761 C 0.75294 0.18793 1.01175 0.0
C762 C 0.77331 0.1331 0.02608 0.0
C763 C 0.73149 0.23915 0.98896 0.0
N764 N 0.78902 0.2243 0.98085 0.0
C765 C 0.76237 0.24463 0.97395 0.0
C766 C 0.72704 0.21109 1.00881 0.0
Tb767 Tb 0.84049 0.22913 0.95688 0.0
N768 N 0.83675 0.17678 0.97728 0.0
C769 C 0.85847 0.1517 0.96982 0.0
C770 C 0.8266 0.11404 1.0037 0.0
C771 C 0.85395 0.12002 0.98328 0.0
H772 H 0.76526 0.26556 0.95753 0.0
H773 H 0.87181 0.10042 0.97833 0.0
H774 H 0.76965 0.10986 0.0383 0.0
H775 H 0.71102 0.25621 0.98469 0.0
H776 H 0.87931 0.15573 0.95363 0.0
H777 H 0.95506 0.37775 0.94667 0.0
H778 H 0.82383 0.09004 1.01508 0.0
H779 H 0.95087 0.19458 1.01877 0.0
H780 H 0.91412 0.33301 0.95573 0.0
H781 H 1.0069 0.18103 0.03973 0.0
H782 H 0.72501 0.15153 0.0399 0.0
H783 H 1.01144 0.37284 0.97167 0.0
H784 H 0.05274 0.33815 1.00456 0.0
H785 H 0.70294 0.20653 1.02001 0.0
H786 H 0.06672 0.28431 0.03062 0.0
N787 N 0.94668 0.30246 0.98273 0.0
C788 C 0.93867 0.33011 0.96502 0.0
C789 C 0.99355 0.35295 0.97485 0.0
C790 C 1.00194 0.32413 0.99247 0.0
C791 C 0.96189 0.35567 0.96051 0.0
C792 C 0.9777 0.29899 0.99552 0.0
H793 H 0.04996 0.22499 0.04315 0.0
N794 N 0.96149 0.24548 1.01006 0.0
C795 C 1.00113 0.20609 0.03171 0.0
C796 C 0.98543 0.26914 1.01007 0.0
C797 C 0.96924 0.21382 1.0197 0.0
C798 C 0.02533 0.23097 0.03376 0.0
C799 C 1.01782 0.26291 1.02217 0.0
O800 O 0.91525 0.2668 0.05484 0.0
O801 O 0.8711 0.22612 1.001 0.0
O802 O 0.81976 0.26589 0.99345 0.0
O803 O 0.86574 0.29932 1.00511 0.0
O804 O 0.90298 0.22512 0.0395 0.0
O805 O 0.90634 0.31209 0.02738 0.0
O806 O 0.83209 0.23553 0.9053 0.0
O807 O 0.87938 0.26724 0.95447 0.0
O808 O 0.93426 0.24242 0.96146 0.0
O809 O 0.89082 0.21069 0.93725 0.0
O810 O 0.83226 0.27821 0.93739 0.0
O811 O 0.80914 0.19566 0.92967 0.0
C812 C 0.87754 0.21005 0.02787 0.0
C813 C 0.94293 0.31505 0.0749 0.0
C814 C 0.97876 0.31893 0.12467 0.0
C815 C 0.95261 0.30328 0.10681 0.0
C816 C 0.99576 0.34548 0.10982 0.0
C817 C 0.95961 0.34272 0.06161 0.0
C818 C 0.98623 0.35724 0.07859 0.0
C819 C 0.83356 0.29303 1.00675 0.0
C820 C 0.915 0.2992 0.05608 0.0
C821 C 0.04176 0.28841 1.02109 0.0
C822 C 0.03381 0.31905 1.00624 0.0
C823 C 0.86196 0.29015 0.93961 0.0
C824 C 0.77605 0.22363 0.88869 0.0
C825 C 0.75191 0.20048 0.87649 0.0
C826 C 0.72091 0.21189 0.86307 0.0
C827 C 0.71436 0.2462 0.86302 0.0
C828 C 0.76829 0.25779 0.88721 0.0
C829 C 0.73775 0.2688 0.87492 0.0
C830 C 0.92321 0.22013 0.93972 0.0
C831 C 0.80927 0.21306 0.90278 0.0
H832 H 0.93924 0.28285 0.11816 0.0
H833 H 1.01578 0.35792 0.12302 0.0
H834 H 0.9522 0.35322 0.03795 0.0
H835 H 0.99912 0.37821 0.06775 0.0
H836 H 0.75741 0.1741 0.87675 0.0
H837 H 0.69112 0.25567 0.85293 0.0
H838 H 0.78579 0.2764 0.89562 0.0
H839 H 0.73233 0.29519 0.87423 0.0
Tb840 Tb 0.62958 0.78789 0.50174 0.0
C841 C 0.74371 0.86809 0.50185 0.0
C842 C 0.71839 0.92263 0.50269 0.0
C843 C 0.76726 0.91148 0.53648 0.0
C844 C 0.71859 0.88946 0.49168 0.0
C845 C 0.76937 0.87951 0.52301 0.0
C846 C 0.7412 0.93247 0.52693 0.0
C847 C 0.79794 0.82753 0.5146 0.0
N848 N 0.74384 0.83667 0.48988 0.0
C849 C 0.77184 0.81727 0.49394 0.0
C850 C 0.79632 0.85856 0.52992 0.0
Tb851 Tb 0.69849 0.82256 0.45768 0.0
N852 N 0.69448 0.8779 0.47099 0.0
C853 C 0.67258 0.8999 0.45662 0.0
C854 C 0.69453 0.9446 0.48999 0.0
C855 C 0.67208 0.93333 0.46611 0.0
H856 H 0.77415 0.7935 0.48148 0.0
H857 H 0.65434 0.95035 0.45498 0.0
H858 H 0.73789 0.95585 0.53904 0.0
H859 H 0.81935 0.81157 0.51851 0.0
H860 H 0.65621 0.8928 0.43673 0.0
H861 H 0.58222 0.67382 0.45009 0.0
H862 H 0.69365 0.97034 0.49794 0.0
H863 H 0.5869 0.86212 0.50761 0.0
H864 H 0.62406 0.71797 0.45916 0.0
H865 H 0.53037 0.87809 0.5243 0.0
H866 H 0.7856 0.92012 0.55414 0.0
H867 H 0.52469 0.68197 0.47106 0.0
H868 H 0.4829 0.71966 0.49961 0.0
H869 H 0.81652 0.86655 0.54598 0.0
H870 H 0.46921 0.77534 0.52171 0.0
N871 N 0.59099 0.75094 0.48214 0.0
C872 C 0.59911 0.72202 0.46666 0.0
C873 C 0.54299 0.70153 0.47414 0.0
C874 C 0.53453 0.7317 0.48937 0.0
C875 C 0.57534 0.69694 0.46212 0.0
C876 C 0.55935 0.75627 0.49247 0.0
H877 H 0.48655 0.83522 0.52991 0.0
N878 N 0.57637 0.81023 0.50454 0.0
C879 C 0.53618 0.85223 0.51945 0.0
C880 C 0.55183 0.78714 0.50488 0.0
C881 C 0.56851 0.84295 0.51014 0.0
C882 C 0.51154 0.82798 0.5227 0.0
C883 C 0.51901 0.79499 0.51459 0.0
O884 O 0.62013 0.79087 0.55349 0.0
O885 O 0.67269 0.82173 0.50492 0.0
O886 O 0.71693 0.78278 0.49256 0.0
O887 O 0.6697 0.75136 0.5043 0.0
O888 O 0.63236 0.83379 0.53162 0.0
O889 O 0.62911 0.74368 0.53009 0.0
O890 O 0.74256 0.81559 0.42922 0.0
O891 O 0.65908 0.78519 0.45371 0.0
O892 O 0.60416 0.80873 0.45842 0.0
O893 O 0.6487 0.83708 0.4336 0.0
O894 O 0.70488 0.77515 0.43383 0.0
O895 O 0.70505 0.84927 0.41274 0.0
C896 C 0.66164 0.84401 0.52493 0.0
C897 C 0.59243 0.74421 0.5775 0.0
C898 C 0.56044 0.7395 0.62979 0.0
C899 C 0.58609 0.75466 0.61077 0.0
C900 C 0.54064 0.71498 0.61473 0.0
C901 C 0.57301 0.71836 0.56415 0.0
C902 C 0.54691 0.70453 0.58226 0.0
C903 C 0.70225 0.75595 0.50545 0.0
C904 C 0.62028 0.75878 0.55753 0.0
C905 C 0.4945 0.77001 0.51393 0.0
C906 C 0.50224 0.73837 0.50119 0.0
C907 C 0.6758 0.76256 0.43752 0.0
C908 C 0.76199 0.86434 0.40103 0.0
C909 C 0.79062 0.8575 0.38101 0.0
C910 C 0.81561 0.88232 0.3757 0.0
C911 C 0.81166 0.91332 0.39137 0.0
C912 C 0.7588 0.89637 0.41469 0.0
C913 C 0.78348 0.92031 0.41031 0.0
C914 C 0.61597 0.8294 0.43576 0.0
C915 C 0.73542 0.83869 0.40782 0.0
H916 H 0.60166 0.77351 0.62215 0.0
H917 H 0.52093 0.70299 0.62865 0.0
H918 H 0.57817 0.70838 0.53973 0.0
H919 H 0.53196 0.68494 0.57134 0.0
H920 H 0.79348 0.83319 0.36971 0.0
H921 H 0.8304 0.93248 0.38853 0.0
H922 H 0.73707 0.90327 0.42872 0.0
H923 H 0.78062 0.94461 0.4216 0.0
Tb924 Tb 0.14088 0.7617 0.54581 0.0
C925 C 0.2415 0.67149 0.54299 0.0
C926 C 0.21258 0.619 0.54745 0.0
C927 C 0.25712 0.62532 0.50743 0.0
C928 C 0.21675 0.65234 0.55734 0.0
C929 C 0.26335 0.65732 0.51944 0.0
C930 C 0.23101 0.60675 0.52071 0.0
C931 C 0.29577 0.70745 0.52118 0.0
N932 N 0.24519 0.70337 0.55319 0.0
C933 C 0.2733 0.72059 0.54419 0.0
C934 C 0.29036 0.6759 0.50815 0.0
Tb935 Tb 0.20615 0.72237 0.59051 0.0
N936 N 0.19762 0.66598 0.58164 0.0
C937 C 0.17841 0.64526 0.60091 0.0
C938 C 0.18984 0.59907 0.5644 0.0
C939 C 0.17349 0.61201 0.592 0.0
H940 H 0.27923 0.74456 0.55469 0.0
H941 H 0.15742 0.59629 0.60675 0.0
H942 H 0.22467 0.58323 0.50992 0.0
H943 H 0.31736 0.72166 0.51366 0.0
H944 H 0.16729 0.65326 0.62395 0.0
H945 H 0.13554 0.88327 0.60447 0.0
H946 H 0.18592 0.57334 0.55733 0.0
H947 H 0.07928 0.71212 0.51615 0.0
H948 H 0.16239 0.83319 0.58318 0.0
H949 H 1.01985 0.71656 0.50609 0.0
H950 H 0.27174 0.61531 0.48726 0.0
H951 H 0.07432 0.88909 0.60086 0.0
H952 H 1.01987 0.86608 0.58114 0.0
H953 H 0.30766 0.66579 0.49019 0.0
H954 H 0.98875 0.82154 0.55301 0.0
N955 N 0.11791 0.80858 0.56982 0.0
C956 C 0.13605 0.83453 0.58208 0.0
C957 C 0.08618 0.86648 0.59212 0.0
C958 C 0.06755 0.8408 0.57792 0.0
C959 C 0.12066 0.86333 0.59411 0.0
C960 C 0.0842 0.81157 0.56744 0.0
H961 H 0.98867 0.76631 0.52431 0.0
N962 N 0.08343 0.75831 0.54277 0.0
C963 C 0.03259 0.7362 0.51944 0.0
C964 C 0.06645 0.78596 0.55279 0.0
C965 C 0.06677 0.73364 0.52594 0.0
C966 C 1.0151 0.76439 0.52958 0.0
C967 C 0.03194 0.78973 0.54645 0.0
O968 O 0.15998 0.76206 0.49695 0.0
O969 O 0.18015 0.72325 0.54296 0.0
O970 O 0.2274 0.76794 0.56418 0.0
O971 O 0.18203 0.7971 0.54203 0.0
O972 O 0.13437 0.70991 0.52842 0.0
O973 O 0.11676 0.78953 0.50729 0.0
O974 O 0.2542 0.73319 0.61045 0.0
O975 O 0.17551 0.76771 0.58924 0.0
O976 O 0.11354 0.73496 0.58567 0.0
O977 O 0.15688 0.70711 0.61333 0.0
O978 O 0.18811 0.74761 0.63409 0.0
O979 O 0.22289 0.69739 0.63344 0.0
C980 C 0.16462 0.69953 0.52846 0.0
C981 C 0.11922 0.76355 0.45394 0.0
C982 C 0.08777 0.76898 0.40152 0.0
C983 C 0.10258 0.78358 0.43011 0.0
C984 C 0.08969 0.73444 0.39707 0.0
C985 C 0.12059 0.729 0.44849 0.0
C986 C 0.10605 0.71465 0.4204 0.0
C987 C 0.21448 0.7935 0.54668 0.0
C988 C 0.13564 0.77845 0.4839 0.0
C989 C 1.01529 0.81855 0.55714 0.0
C990 C 0.033 0.84389 0.57316 0.0
C991 C 0.172 0.77182 0.62099 0.0
C992 C 0.28087 0.68691 0.6375 0.0
C993 C 0.30704 0.69272 0.66061 0.0
C994 C 0.33263 0.66863 0.66528 0.0
C995 C 0.3321 0.6394 0.64619 0.0
C996 C 0.28075 0.6567 0.61993 0.0
C997 C 0.30628 0.63348 0.6238 0.0
C998 C 0.12454 0.71495 0.6098 0.0
C999 C 0.25236 0.71067 0.63354 0.0
H1000 H 0.10103 0.81025 0.43378 0.0
H1001 H 0.07831 0.7228 0.37554 0.0
H1002 H 0.13298 0.71285 0.46583 0.0
H1003 H 0.10744 0.68799 0.41674 0.0
H1004 H 0.3073 0.71544 0.67515 0.0
H1005 H 0.35157 0.62087 0.64901 0.0
H1006 H 0.26047 0.65041 0.60379 0.0
H1007 H 0.30573 0.61049 0.60972 0.0
Tb1008 Tb 0.95768 0.70617 0.72777 0.0
C1009 C 0.98311 0.56169 0.7823 0.0
C1010 C 0.96396 0.56087 0.83938 0.0
C1011 C 0.98023 0.50941 0.81242 0.0
C1012 C 0.97271 0.57848 0.81032 0.0
C1013 C 0.98694 0.52686 0.78292 0.0
C1014 C 0.9676 0.52619 0.84018 0.0
C1015 C 1.00539 0.52944 0.72586 0.0
N1016 N 0.9914 0.5798 0.75508 0.0
C1017 C 1.00204 0.56406 0.72675 0.0
C1018 C 0.99863 0.51084 0.75432 0.0
Tb1019 Tb 0.99776 0.63585 0.76405 0.0
N1020 N 0.97382 0.61216 0.80996 0.0
C1021 C 0.96722 0.62951 0.83838 0.0
C1022 C 0.95432 0.57883 0.86756 0.0
C1023 C 0.95607 0.61342 0.86706 0.0
H1024 H 1.00854 0.57806 0.70486 0.0
H1025 H 0.95043 0.62765 0.88924 0.0
H1026 H 0.96212 0.5123 0.86259 0.0
H1027 H 1.01415 0.51721 0.70351 0.0
H1028 H 0.9722 0.65553 0.83968 0.0
H1029 H 0.9679 0.64523 0.6075 0.0
H1030 H 0.94718 0.56624 0.89027 0.0
H1031 H 0.9804 0.78256 0.75254 0.0
H1032 H 0.95546 0.64789 0.66658 0.0
H1033 H 1.0121 0.82947 0.72997 0.0
H1034 H 0.98499 0.48298 0.81428 0.0
H1035 H 1.00003 0.69039 0.58121 0.0
H1036 H 0.03424 0.74086 0.58987 0.0
H1037 H 1.0026 0.48419 0.75396 0.0
H1038 H 0.04546 0.79212 0.62199 0.0
N1039 N 0.97309 0.69751 0.67342 0.0
C1040 C 0.96576 0.66958 0.65527 0.0
C1041 C 0.99222 0.69278 0.6069 0.0
C1042 C 1.00149 0.72028 0.62606 0.0
C1043 C 0.97399 0.66738 0.62158 0.0
C1044 C 0.99046 0.72259 0.65919 0.0
H1045 H 0.03574 0.8261 0.67342 0.0
N1046 N 0.98792 0.7512 0.7102 0.0
C1047 C 1.00906 0.80704 0.71536 0.0
C1048 C 0.99851 0.75006 0.67829 0.0
C1049 C 0.9915 0.78002 0.72823 0.0
C1050 C 1.02228 0.80506 0.68344 0.0
C1051 C 1.01701 0.77636 0.66447 0.0
O1052 O 0.92812 0.74972 0.73372 0.0
O1053 O 0.9521 0.66799 0.76547 0.0
O1054 O 0.95491 0.61264 0.73931 0.0
O1055 O 0.92811 0.65915 0.71671 0.0
O1056 O 0.93651 0.71539 0.77665 0.0
O1057 O 0.91402 0.71219 0.69891 0.0
O1058 O 0.0468 0.61804 0.75633 0.0
O1059 O 1.00364 0.67745 0.72908 0.0
O1060 O 0.99408 0.72537 0.76576 0.0
O1061 O 1.00653 0.67788 0.79669 0.0
O1062 O 0.02484 0.63389 0.71642 0.0
O1063 O 0.03143 0.63509 0.80451 0.0
C1064 C 0.93768 0.6856 0.78825 0.0
C1065 C 0.90201 0.76864 0.68349 0.0
C1066 C 0.87767 0.82227 0.66472 0.0
C1067 C 0.88287 0.7979 0.69003 0.0
C1068 C 0.89247 0.81718 0.63349 0.0
C1069 C 0.91501 0.76424 0.65133 0.0
C1070 C 0.91073 0.78842 0.62687 0.0
C1071 C 0.92981 0.62615 0.72254 0.0
C1072 C 0.90805 0.74234 0.70942 0.0
C1073 C 0.02981 0.77304 0.63231 0.0
C1074 C 1.02267 0.74464 0.61357 0.0
C1075 C 1.02201 0.66404 0.70664 0.0
C1076 C 0.07295 0.59219 0.80262 0.0
C1077 C 0.10601 0.58431 0.7931 0.0
C1078 C 0.1234 0.55777 0.80856 0.0
C1079 C 0.1069 0.53844 0.8324 0.0
C1080 C 0.05775 0.5731 0.82757 0.0
C1081 C 0.07432 0.54607 0.84176 0.0
C1082 C 1.00834 0.71017 0.79172 0.0
C1083 C 0.0552 0.62099 0.78743 0.0
H1084 H 0.87198 0.80159 0.71439 0.0
H1085 H 0.88936 0.83541 0.61388 0.0
H1086 H 0.92834 0.74185 0.64476 0.0
H1087 H 0.92138 0.78466 0.60243 0.0
H1088 H 0.11861 0.59946 0.77475 0.0
H1089 H 0.11972 0.51806 0.84462 0.0
H1090 H 0.03329 0.57936 0.83667 0.0
H1091 H 0.06214 0.53146 0.86078 0.0
Tb1092 Tb 0.58954 0.33664 0.22908 0.0
C1093 C 0.55654 0.4811 0.28313 0.0
C1094 C 0.57943 0.48683 0.33856 0.0
C1095 C 0.55459 0.53462 0.3112 0.0
C1096 C 0.57083 0.467 0.31086 0.0
C1097 C 0.54899 0.51532 0.28254 0.0
C1098 C 0.57068 0.52064 0.33882 0.0
C1099 C 0.53136 0.50862 0.2255 0.0
N1100 N 0.54989 0.46101 0.25681 0.0
C1101 C 0.53821 0.47455 0.22773 0.0
C1102 C 0.53589 0.52896 0.25331 0.0
Tb1103 Tb 0.549 0.40503 0.26912 0.0
N1104 N 0.57541 0.43361 0.31098 0.0
C1105 C 0.58973 0.41876 0.33791 0.0
C1106 C 0.59514 0.47173 0.3657 0.0
C1107 C 0.60065 0.43748 0.36518 0.0
H1108 H 0.53387 0.45934 0.20614 0.0
H1109 H 0.61211 0.42527 0.38631 0.0
H1110 H 0.5759 0.53606 0.36034 0.0
H1111 H 0.52188 0.51905 0.20251 0.0
H1112 H 0.59163 0.39252 0.33915 0.0
H1113 H 0.56326 0.38206 0.10605 0.0
H1114 H 0.60243 0.48609 0.38736 0.0
H1115 H 0.58228 0.2611 0.26281 0.0
H1116 H 0.58063 0.38688 0.16467 0.0
H1117 H 0.55818 0.20693 0.24701 0.0
H1118 H 0.54738 0.56059 0.31199 0.0
H1119 H 0.53617 0.33047 0.0867 0.0
H1120 H 0.5172 0.27309 0.09959 0.0
H1121 H 0.52979 0.55518 0.25176 0.0
H1122 H 0.51459 0.22522 0.13735 0.0
N1123 N 0.56765 0.33737 0.17702 0.0
C1124 C 0.57139 0.36351 0.15574 0.0
C1125 C 0.54529 0.332 0.11189 0.0
C1126 C 0.54163 0.30534 0.13387 0.0
C1127 C 0.5607 0.36109 0.12272 0.0
C1128 C 0.55348 0.30867 0.16656 0.0
H1129 H 0.52985 0.20041 0.19265 0.0
N1130 N 0.56515 0.28605 0.21908 0.0
C1131 C 0.55579 0.22799 0.23043 0.0
C1132 C 0.55174 0.28225 0.18842 0.0
C1133 C 0.56918 0.25883 0.23934 0.0
C1134 C 0.53984 0.22442 0.19978 0.0
C1135 C 0.53843 0.25148 0.17802 0.0
O1136 O 0.62648 0.29887 0.23359 0.0
O1137 O 0.59608 0.37385 0.26801 0.0
O1138 O 0.58977 0.43028 0.24378 0.0
O1139 O 0.61461 0.38577 0.21543 0.0
O1140 O 0.61295 0.32603 0.27605 0.0
O1141 O 0.62901 0.33466 0.19444 0.0
O1142 O 0.49824 0.4193 0.26733 0.0
O1143 O 0.54405 0.36559 0.23166 0.0
O1144 O 0.55281 0.31652 0.26592 0.0
O1145 O 0.54312 0.3616 0.30084 0.0
O1146 O 0.51644 0.4066 0.22458 0.0
O1147 O 0.52087 0.40432 0.31345 0.0
C1148 C 0.61193 0.35514 0.28922 0.0
C1149 C 0.64625 0.2788 0.18091 0.0
C1150 C 0.67085 0.22458 0.16419 0.0
C1151 C 0.66593 0.25012 0.1884 0.0
C1152 C 0.65561 0.22796 0.13294 0.0
C1153 C 0.6322 0.28125 0.14888 0.0
C1154 C 0.6365 0.25598 0.12543 0.0
C1155 C 0.61305 0.41835 0.22374 0.0
C1156 C 0.64078 0.30649 0.20568 0.0
C1157 C 0.52537 0.24843 0.14583 0.0
C1158 C 0.52696 0.27544 0.12406 0.0
C1159 C 0.52235 0.37814 0.2117 0.0
C1160 C 0.47723 0.44548 0.31618 0.0
C1161 C 0.44433 0.45522 0.30712 0.0
C1162 C 0.42805 0.48176 0.32396 0.0
C1163 C 0.44547 0.49901 0.34886 0.0
C1164 C 0.49311 0.46254 0.34231 0.0
C1165 C 0.47766 0.48944 0.35793 0.0
C1166 C 0.54053 0.32958 0.29397 0.0
C1167 C 0.49428 0.41692 0.29935 0.0
H1168 H 0.67761 0.24786 0.21263 0.0
H1169 H 0.659 0.20899 0.11405 0.0
H1170 H 0.61797 0.30292 0.1416 0.0
H1171 H 0.62524 0.25837 0.10103 0.0
H1172 H 0.43112 0.4417 0.28785 0.0
H1173 H 0.43365 0.51935 0.3621 0.0
H1174 H 0.51741 0.45491 0.35109 0.0
H1175 H 0.49048 0.50251 0.37774 0.0
Tb1176 Tb 0.45991 0.83483 0.30459 0.0
C1177 C 0.49078 0.9807 0.25305 0.0
C1178 C 0.47174 0.9829 0.19591 0.0
C1179 C 0.48911 0.03355 0.2238 0.0
C1180 C 0.47978 0.96465 0.22483 0.0
C1181 C 0.49535 1.01543 0.25305 0.0
C1182 C 0.4765 1.01746 0.19555 0.0
C1183 C 0.51211 1.01157 0.31063 0.0
N1184 N 0.49731 0.96202 0.28039 0.0
C1185 C 0.50773 0.97709 0.30921 0.0
C1186 C 0.50653 0.03076 0.28225 0.0
Tb1187 Tb 0.50093 0.90566 0.27139 0.0
N1188 N 0.47802 0.93097 0.22548 0.0
C1189 C 0.46968 0.91411 0.19716 0.0
C1190 C 0.46079 0.96566 0.16773 0.0
C1191 C 0.45986 0.93101 0.16836 0.0
H1192 H 0.51309 0.96265 0.33116 0.0
H1193 H 0.453 0.91724 0.14622 0.0
H1194 H 0.47129 0.03184 0.17334 0.0
H1195 H 0.52048 0.02325 0.33345 0.0
H1196 H 0.4724 0.88772 0.19584 0.0
H1197 H 0.46493 0.89124 0.42736 0.0
H1198 H 0.45427 0.97873 0.14506 0.0
H1199 H 0.48866 0.76046 0.27654 0.0
H1200 H 0.45702 0.89153 0.36729 0.0
H1201 H 0.51536 0.71126 0.30009 0.0
H1202 H 0.49376 0.06005 0.22274 0.0
H1203 H 0.48894 0.84185 0.45491 0.0
H1204 H 0.51292 0.78526 0.44946 0.0
H1205 H 0.51076 0.05735 0.28321 0.0
H1206 H 0.52746 0.73668 0.41544 0.0
N1207 N 0.47192 0.84111 0.36006 0.0
C1208 C 0.46506 0.86883 0.37861 0.0
C1209 C 0.48422 0.84134 0.42837 0.0
C1210 C 0.49253 0.81355 0.40919 0.0
C1211 C 0.47048 0.86914 0.41297 0.0
C1212 C 0.48598 0.81403 0.37474 0.0
H1213 H 0.52889 0.7092 0.36001 0.0
N1214 N 0.48899 0.78843 0.32179 0.0
C1215 C 0.51012 0.7325 0.31583 0.0
C1216 C 0.49479 0.78698 0.35507 0.0
C1217 C 0.49526 0.76094 0.30247 0.0
C1218 C 0.5175 0.73135 0.34961 0.0
C1219 C 0.50951 0.75855 0.36972 0.0
O1220 O 0.42094 0.80512 0.28581 0.0
O1221 O 0.45432 0.87439 0.26783 0.0
O1222 O 0.46002 0.92889 0.29915 0.0
O1223 O 0.42949 0.88207 0.31538 0.0
O1224 O 0.44632 0.8254 0.25367 0.0
O1225 O 0.42429 0.8128 0.33771 0.0
O1226 O 0.55055 0.92169 0.27948 0.0
O1227 O 0.50498 0.86399 0.30626 0.0
O1228 O 0.50135 0.81747 0.27123 0.0
O1229 O 0.50994 0.86414 0.2383 0.0
O1230 O 0.52815 0.90642 0.31903 0.0
O1231 O 0.53469 0.90486 0.23131 0.0
C1232 C 0.44346 0.85577 0.24365 0.0
C1233 C 0.40414 0.75892 0.31871 0.0
C1234 C 0.37516 0.70995 0.34275 0.0
C1235 C 0.38099 0.74509 0.34185 0.0
C1236 C 0.39381 0.68926 0.32174 0.0
C1237 C 0.42001 0.73691 0.2965 0.0
C1238 C 0.41583 0.70264 0.29878 0.0
C1239 C 0.43336 0.91555 0.31324 0.0
C1240 C 0.40949 0.79592 0.3144 0.0
C1241 C 0.51584 0.75808 0.40395 0.0
C1242 C 0.50753 0.78559 0.42343 0.0
C1243 C 0.5234 0.87666 0.32909 0.0
C1244 C 0.57677 0.94685 0.23296 0.0
C1245 C 0.60929 0.95551 0.24368 0.0
C1246 C 0.62672 0.98178 0.2281 0.0
C1247 C 0.61084 1.00004 0.20289 0.0
C1248 C 0.56241 0.96461 0.20642 0.0
C1249 C 0.57895 0.99146 0.19214 0.0
C1250 C 0.51499 0.83257 0.24498 0.0
C1251 C 0.55876 0.91849 0.24838 0.0
H1252 H 0.3666 0.76142 0.35775 0.0
H1253 H 0.38994 0.66258 0.32187 0.0
H1254 H 0.43509 0.74613 0.27637 0.0
H1255 H 0.42884 0.68636 0.28168 0.0
H1256 H 0.62143 0.94118 0.26307 0.0
H1257 H 0.62376 1.02019 0.19055 0.0
H1258 H 0.53863 0.95744 0.19615 0.0
H1259 H 0.56736 1.00509 0.17196 0.0
Tb1260 Tb 0.08727 0.20878 0.82191 0.0
C1261 C 0.04337 0.06147 0.77653 0.0
C1262 C 0.06811 0.04787 0.72347 0.0
C1263 C 0.03956 1.00501 0.755 0.0
C1264 C 0.0603 0.07112 0.74861 0.0
C1265 C 0.03327 0.02812 0.78051 0.0
C1266 C 0.05712 1.01485 0.72655 0.0
C1267 C 1.0165 0.04205 0.83642 0.0
N1268 N 0.03956 0.08435 0.80103 0.0
C1269 C 0.02699 0.07482 0.83115 0.0
C1270 C 1.01903 1.01872 0.81077 0.0
Tb1271 Tb 0.04611 0.13867 0.7842 0.0
N1272 N 0.07045 0.10317 0.74693 0.0
C1273 C 0.08855 0.11368 0.72041 0.0
C1274 C 0.08724 0.05849 0.69648 0.0
C1275 C 0.09771 0.09157 0.69508 0.0
H1276 H 0.02466 0.09223 0.85123 0.0
H1277 H 0.11206 0.10029 0.67407 0.0
H1278 H 0.06265 0.99664 0.70744 0.0
H1279 H 1.00635 0.03485 0.86027 0.0
H1280 H 0.09438 0.13928 0.71795 0.0
H1281 H 0.07032 0.16735 0.94841 0.0
H1282 H 0.09402 0.04145 0.6767 0.0
H1283 H 0.07343 0.28251 0.78637 0.0
H1284 H 0.08906 0.16277 0.89093 0.0
H1285 H 0.04703 0.33573 0.80114 0.0
H1286 H 0.03198 0.97929 0.75754 0.0
H1287 H 0.04031 0.21768 0.96691 0.0
H1288 H 1.01992 0.27419 0.95347 0.0
H1289 H 1.01113 0.99332 0.81502 0.0
H1290 H 1.01305 0.32059 0.91413 0.0
N1291 N 0.06804 0.20893 0.87532 0.0
C1292 C 0.0752 0.18442 0.89783 0.0
C1293 C 0.04812 0.21555 0.94128 0.0
C1294 C 0.04249 0.24129 0.91864 0.0
C1295 C 0.06498 0.18713 0.93092 0.0
C1296 C 0.05283 0.23727 0.8855 0.0
H1297 H 1.0225 0.34339 0.857 0.0
N1298 N 0.06026 0.25829 0.83167 0.0
C1299 C 0.04684 0.3153 0.81865 0.0
C1300 C 0.04883 0.26283 0.86296 0.0
C1301 C 0.06123 0.28478 0.81015 0.0
C1302 C 0.03316 0.31956 0.85018 0.0
C1303 C 0.03485 0.29347 0.87304 0.0
O1304 O 0.12228 0.24784 0.81469 0.0
O1305 O 0.09366 0.16958 0.78466 0.0
O1306 O 0.08596 0.11327 0.81128 0.0
O1307 O 0.11098 0.15913 0.83811 0.0
O1308 O 0.10833 0.21765 0.77375 0.0
O1309 O 0.12924 0.21277 0.85371 0.0
O1310 O 0.99409 0.13089 0.78259 0.0
O1311 O 0.04406 0.17786 0.82182 0.0
O1312 O 0.04919 0.22596 0.78386 0.0
O1313 O 0.04453 0.17959 0.74952 0.0
O1314 O 1.00916 0.14275 0.82502 0.0
O1315 O 1.0218 0.13932 0.73757 0.0
C1316 C 0.10843 0.1878 0.76244 0.0
C1317 C 0.14578 0.26925 0.86542 0.0
C1318 C 0.17157 0.32343 0.88106 0.0
C1319 C 0.1663 0.29722 0.85745 0.0
C1320 C 0.1554 0.32137 0.91193 0.0
C1321 C 0.13156 0.26804 0.89733 0.0
C1322 C 0.13589 0.29394 0.91999 0.0
C1323 C 0.10834 0.12605 0.83202 0.0
C1324 C 0.13925 0.24104 0.84136 0.0
C1325 C 0.02401 0.29739 0.90589 0.0
C1326 C 0.02776 0.27119 0.92839 0.0
C1327 C 1.0184 0.16989 0.83871 0.0
C1328 C 0.97433 0.10301 0.73425 0.0
C1329 C 0.94116 0.09548 0.74388 0.0
C1330 C 0.92349 0.06922 0.7283 0.0
C1331 C 0.93953 0.05027 0.70374 0.0
C1332 C 0.98901 0.08425 0.70861 0.0
C1333 C 0.97197 0.05779 0.69398 0.0
C1334 C 0.0385 0.21109 0.75592 0.0
C1335 C 0.99303 0.13085 0.75022 0.0
H1336 H 0.17813 0.29853 0.8333 0.0
H1337 H 0.15837 0.341 0.93022 0.0
H1338 H 0.11708 0.24685 0.90513 0.0
H1339 H 0.12421 0.29259 0.9442 0.0
H1340 H 0.92896 0.11029 0.76284 0.0
H1341 H 0.92652 0.03007 0.69145 0.0
H1342 H 1.01372 0.09003 0.69964 0.0
H1343 H 0.9838 0.04334 0.67455 0.0
Tb1344 Tb 0.73612 0.95859 0.70488 0.0
C1345 C 0.78754 0.99262 0.55987 0.0
C1346 C 0.84236 0.96759 0.55821 0.0
C1347 C 0.81547 0.98451 0.50673 0.0
C1348 C 0.81433 0.97884 0.57626 0.0
C1349 C 0.78823 0.99667 0.52494 0.0
C1350 C 0.84234 0.96962 0.52332 0.0
C1351 C 0.73448 0.0234 0.52852 0.0
N1352 N 0.76118 1.00297 0.57827 0.0
C1353 C 0.73469 1.01827 0.56296 0.0
C1354 C 0.76136 1.01256 0.50939 0.0
Tb1355 Tb 0.76828 1.00274 0.63501 0.0
N1356 N 0.81422 0.97939 0.60999 0.0
C1357 C 0.843 0.97231 0.62687 0.0
C1358 C 0.87029 0.95646 0.57583 0.0
C1359 C 0.87082 0.95942 0.61037 0.0
H1360 H 0.71368 0.0272 0.577 0.0
H1361 H 0.89303 0.95284 0.62425 0.0
H1362 H 0.86353 0.96092 0.50906 0.0
H1363 H 0.71348 0.03562 0.51675 0.0
H1364 H 0.8451 0.97718 0.65308 0.0
H1365 H 0.60656 0.97588 0.66865 0.0
H1366 H 0.89221 0.9474 0.56296 0.0
H1367 H 0.77013 0.96177 0.78044 0.0
H1368 H 0.66271 0.95447 0.66163 0.0
H1369 H 0.75809 0.98893 0.83421 0.0
H1370 H 0.81613 0.98678 0.47987 0.0
H1371 H 0.59263 1.01008 0.71753 0.0
H1372 H 0.60981 0.03376 0.77197 0.0
H1373 H 0.76095 1.01624 0.48268 0.0
H1374 H 0.65023 0.03759 0.8177 0.0
N1375 N 0.68179 0.97585 0.70681 0.0
C1376 C 0.65767 0.96871 0.68365 0.0
C1377 C 0.61737 0.99996 0.7152 0.0
C1378 C 0.64137 1.00539 0.73981 0.0
C1379 C 0.62527 0.9808 0.68747 0.0
C1380 C 0.67372 0.99283 0.73508 0.0
H1381 H 0.70589 1.02105 0.84107 0.0
N1382 N 0.728 0.98236 0.75581 0.0
C1383 C 0.7412 0.99199 0.81339 0.0
C1384 C 0.69754 0.9964 0.76017 0.0
C1385 C 0.74834 0.97721 0.78274 0.0
C1386 C 0.71169 1.00997 0.81717 0.0
C1387 C 0.68887 1.01124 0.79082 0.0
O1388 O 0.74736 0.90787 0.71442 0.0
O1389 O 0.77131 0.95542 0.66373 0.0
O1390 O 0.73944 0.96215 0.61109 0.0
O1391 O 0.71601 0.93537 0.65761 0.0
O1392 O 0.78725 0.94264 0.71114 0.0
O1393 O 0.70531 0.92977 0.73693 0.0
O1394 O 0.76091 0.05296 0.62056 0.0
O1395 O 0.7339 1.00527 0.67736 0.0
O1396 O 0.7725 0.99614 0.72523 0.0
O1397 O 0.80129 1.01131 0.67724 0.0
O1398 O 0.7196 0.0279 0.63501 0.0
O1399 O 0.8084 0.03615 0.63859 0.0
C1400 C 0.79601 0.94273 0.68014 0.0
C1401 C 0.73552 0.89099 0.77026 0.0
C1402 C 0.7239 0.86449 0.82461 0.0
C1403 C 0.71257 0.877 0.79338 0.0
C1404 C 0.75793 0.86692 0.83239 0.0
C1405 C 0.76945 0.89227 0.77914 0.0
C1406 C 0.78038 0.88065 0.80993 0.0
C1407 C 0.7202 0.93859 0.62453 0.0
C1408 C 0.72471 0.90417 0.73699 0.0
C1409 C 0.65716 0.02526 0.79474 0.0
C1410 C 0.63381 0.02269 0.76903 0.0
C1411 C 0.71037 0.0232 0.66505 0.0
C1412 C 0.80893 0.07862 0.59735 0.0
C1413 C 0.8009 0.11215 0.59001 0.0
C1414 C 0.81792 0.12921 0.56441 0.0
C1415 C 0.842 0.1122 0.54568 0.0
C1416 C 0.83419 0.06286 0.57893 0.0
C1417 C 0.85007 0.0793 0.55294 0.0
C1418 C 0.79726 1.01213 0.70977 0.0
C1419 C 0.79208 0.06067 0.62491 0.0
H1420 H 0.68638 0.87539 0.787 0.0
H1421 H 0.7673 0.85763 0.85595 0.0
H1422 H 0.78779 0.9025 0.76236 0.0
H1423 H 0.80656 0.88207 0.81635 0.0
H1424 H 0.78228 0.12512 0.60462 0.0
H1425 H 0.8553 0.12481 0.52594 0.0
H1426 H 0.84225 0.03797 0.58488 0.0
H1427 H 0.86926 0.06667 0.53883 0.0
Tb1428 Tb 0.81676 0.08685 0.20491 0.0
C1429 C 0.77258 0.04734 0.05863 0.0
C1430 C 0.71658 0.06802 0.04947 0.0
C1431 C 0.7486 0.04638 1.00295 0.0
C1432 C 0.74349 0.06071 0.07098 0.0
C1433 C 0.77552 0.03989 0.02444 0.0
C1434 C 0.71929 0.06071 1.01539 0.0
C1435 C 0.83239 0.02333 0.03475 0.0
N1436 N 0.79824 0.04248 0.08016 0.0
C1437 C 0.82845 0.03166 0.06834 0.0
C1438 C 0.8056 0.02676 1.01282 0.0
Tb1439 Tb 0.78348 0.04389 0.13561 0.0
N1440 N 0.74142 0.06604 0.10421 0.0
C1441 C 0.71248 0.07756 0.11761 0.0
C1442 C 0.68765 0.08189 0.06301 0.0
C1443 C 0.68558 0.08663 0.09734 0.0
H1444 H 0.84981 0.02905 0.08439 0.0
H1445 H 0.66282 0.096 0.10835 0.0
H1446 H 0.69884 0.06592 0.9985 0.0
H1447 H 0.85618 1.01432 0.0258 0.0
H1448 H 0.70935 0.07769 0.14392 0.0
H1449 H 0.94442 0.09702 0.1586 0.0
H1450 H 0.66651 0.08812 0.04736 0.0
H1451 H 0.79091 0.0601 0.28046 0.0
H1452 H 0.88727 0.1155 0.16391 0.0
H1453 H 0.81281 0.02393 0.32448 0.0
H1454 H 0.7504 0.04089 0.97661 0.0
H1455 H 0.96582 0.05138 0.19373 0.0
H1456 H 0.95421 1.0091 0.23703 0.0
H1457 H 0.80882 1.02051 0.98679 0.0
H1458 H 0.9207 0.99186 0.28522 0.0
N1459 N 0.87308 0.07762 0.19899 0.0
C1460 C 0.89457 0.09412 0.17821 0.0
C1461 C 0.94002 0.05907 0.19589 0.0
C1462 C 0.91905 0.04498 0.21968 0.0
C1463 C 0.92795 0.08452 0.1758 0.0
C1464 C 0.88562 0.05547 0.22145 0.0
H1465 H 0.86868 0.99873 0.31893 0.0
N1466 N 0.83312 0.0542 0.24865 0.0
C1467 C 0.82759 0.0287 0.30252 0.0
C1468 C 0.86521 0.04358 0.24689 0.0
C1469 C 0.81524 0.04916 0.27727 0.0
C1470 C 0.85911 1.01455 0.29928 0.0
C1471 C 0.8785 1.0223 0.27151 0.0
O1472 O 0.79962 0.13001 0.22963 0.0
O1473 O 0.78107 0.09224 0.16424 0.0
O1474 O 0.8073 0.0854 0.11014 0.0
O1475 O 0.83228 0.11181 0.15587 0.0
O1476 O 0.76678 0.10554 0.21199 0.0
O1477 O 0.84946 0.11538 0.23613 0.0
O1478 O 0.78904 0.99315 0.12232 0.0
O1479 O 0.81618 0.03906 0.17973 0.0
O1480 O 0.77998 0.0489 0.22305 0.0
O1481 O 0.74784 0.03951 0.17578 0.0
O1482 O 0.83158 1.01779 0.13739 0.0
O1483 O 0.7413 1.01279 0.13628 0.0
C1484 C 0.75718 0.10598 0.18131 0.0
C1485 C 0.82217 0.1408 0.28312 0.0
C1486 C 0.83724 0.16782 0.33665 0.0
C1487 C 0.84452 0.16045 0.30262 0.0
C1488 C 0.80837 0.15406 0.35073 0.0
C1489 C 0.7933 0.12839 0.2985 0.0
C1490 C 0.78686 0.13446 0.33194 0.0
C1491 C 0.82669 0.1088 0.12275 0.0
C1492 C 0.82651 0.1355 0.24634 0.0
C1493 C 0.91076 1.00969 0.26775 0.0
C1494 C 0.93041 1.02029 0.24125 0.0
C1495 C 0.83993 1.02135 0.16781 0.0
C1496 C 0.74165 0.96869 0.09622 0.0
C1497 C 0.75194 0.9359 0.08814 0.0
C1498 C 0.73595 0.91809 0.0622 0.0
C1499 C 0.71071 0.93381 0.04376 0.0
C1500 C 0.71515 0.98294 0.07821 0.0
C1501 C 0.7004 0.96595 0.05177 0.0
C1502 C 0.75324 0.03607 0.20788 0.0
C1503 C 0.75729 0.98713 0.12439 0.0
H1504 H 0.86655 0.17091 0.2912 0.0
H1505 H 0.80198 0.15915 0.37643 0.0
H1506 H 0.77501 0.11449 0.28444 0.0
H1507 H 0.76448 0.12459 0.3432 0.0
H1508 H 0.77139 0.92391 0.10258 0.0
H1509 H 0.69811 0.92066 0.02382 0.0
H1510 H 0.70529 1.00706 0.08481 0.0
H1511 H 0.68028 0.97745 0.03793 0.0
Tb1512 Tb 0.23375 0.5849 0.34119 0.0
C1513 C 0.27899 0.54757 0.48605 0.0
C1514 C 0.33621 0.56665 0.48965 0.0
C1515 C 0.3065 0.55195 0.54002 0.0
C1516 C 0.30762 0.55911 0.47036 0.0
C1517 C 0.27889 0.54236 0.52087 0.0
C1518 C 0.335 0.56427 0.52447 0.0
C1519 C 0.22499 0.51638 0.51529 0.0
N1520 N 0.25244 0.53845 0.46691 0.0
C1521 C 0.22593 0.52231 0.48104 0.0
C1522 C 0.2514 0.52673 0.53536 0.0
Tb1523 Tb 0.26031 0.54106 0.41059 0.0
N1524 N 0.30844 0.56007 0.43635 0.0
C1525 C 0.33816 0.56668 0.42069 0.0
C1526 C 0.36588 0.57451 0.47346 0.0
C1527 C 0.36701 0.57382 0.43891 0.0
H1528 H 0.20557 0.51315 0.46618 0.0
H1529 H 0.39003 0.57949 0.42613 0.0
H1530 H 0.35657 0.57045 0.53953 0.0
H1531 H 0.20388 0.50373 0.52618 0.0
H1532 H 0.34054 0.56788 0.39409 0.0
H1533 H 0.10461 0.60655 0.3793 0.0
H1534 H 0.38831 0.58022 0.48741 0.0
H1535 H 0.26075 0.55348 0.26758 0.0
H1536 H 0.16294 0.62178 0.37506 0.0
H1537 H 0.23907 0.51544 0.22502 0.0
H1538 H 0.30647 0.5489 0.56682 0.0
H1539 H 0.08252 0.55905 0.34702 0.0
H1540 H 0.09422 0.51223 0.30798 0.0
H1541 H 0.25053 0.52215 0.56191 0.0
H1542 H 0.12862 0.49028 0.26219 0.0
N1543 N 0.17641 0.58072 0.34331 0.0
C1544 C 0.15498 0.5998 0.36198 0.0
C1545 C 0.10868 0.56547 0.34525 0.0
C1546 C 0.12985 0.54857 0.32345 0.0
C1547 C 0.12111 0.59199 0.36374 0.0
C1548 C 0.16368 0.55756 0.32209 0.0
H1549 H 0.18207 0.49287 0.22992 0.0
N1550 N 0.2172 0.5512 0.29813 0.0
C1551 C 0.22367 0.52223 0.24604 0.0
C1552 C 0.18454 0.54265 0.29876 0.0
C1553 C 0.23593 0.54366 0.27056 0.0
C1554 C 0.1915 0.50965 0.24884 0.0
C1555 C 0.17135 0.52021 0.27515 0.0
O1556 O 0.25729 0.61928 0.3101 0.0
O1557 O 0.26421 0.59148 0.38598 0.0
O1558 O 0.22748 0.57775 0.43536 0.0
O1559 O 0.21635 0.61148 0.38917 0.0
O1560 O 0.28459 0.60274 0.34125 0.0
O1561 O 0.20472 0.61878 0.31124 0.0
O1562 O 0.25784 0.49165 0.39243 0.0
O1563 O 0.22909 0.53726 0.36582 0.0
O1564 O 0.27114 0.54656 0.32484 0.0
O1565 O 0.29925 0.53606 0.37379 0.0
O1566 O 0.20756 0.52646 0.40989 0.0
O1567 O 0.28459 0.50176 0.43655 0.0
C1568 C 0.28936 0.6066 0.37269 0.0
C1569 C 0.2316 0.63412 0.25896 0.0
C1570 C 0.2139 0.6606 0.20583 0.0
C1571 C 0.20827 0.65361 0.24032 0.0
C1572 C 0.24239 0.64692 0.1907 0.0
C1573 C 0.25943 0.62101 0.24205 0.0
C1574 C 0.26446 0.62704 0.20843 0.0
C1575 C 0.21343 0.60471 0.42214 0.0
C1576 C 0.23058 0.63095 0.29636 0.0
C1577 C 0.13854 0.50912 0.27861 0.0
C1578 C 0.1184 0.52246 0.30358 0.0
C1579 C 0.20234 0.52513 0.37825 0.0
C1580 C 0.25566 0.45061 0.43488 0.0
C1581 C 0.27438 0.42677 0.45274 0.0
C1582 C 0.25842 0.39947 0.46805 0.0
C1583 C 0.22361 0.39671 0.46591 0.0
C1584 C 0.22083 0.44706 0.43318 0.0
C1585 C 0.20499 0.42046 0.44873 0.0
C1586 C 0.29694 0.53377 0.34137 0.0
C1587 C 0.2726 0.47864 0.41787 0.0
H1588 H 0.18677 0.66418 0.25271 0.0
H1589 H 0.24785 0.65191 0.16478 0.0
H1590 H 0.27839 0.60685 0.25501 0.0
H1591 H 0.28626 0.61694 0.19618 0.0
H1592 H 0.30129 0.4289 0.45401 0.0
H1593 H 0.21091 0.37582 0.47717 0.0
H1594 H 0.20566 0.46465 0.41975 0.0
H1595 H 0.17817 0.41801 0.44706 0.0
Tb1596 Tb 0.31739 0.45956 0.83601 0.0
C1597 C 0.26066 0.49384 0.97778 0.0
C1598 C 0.20554 0.46922 0.97677 0.0
C1599 C 0.2305 0.48493 0.02957 0.0
C1600 C 0.23409 0.48084 0.95981 0.0
C1601 C 0.25829 0.49755 1.01271 0.0
C1602 C 0.20441 0.47035 1.01167 0.0
C1603 C 0.31098 0.52634 1.01198 0.0
N1604 N 0.28765 0.5053 0.96084 0.0
C1605 C 0.31242 0.52196 0.97749 0.0
C1606 C 0.28389 0.51401 0.02972 0.0
Tb1607 Tb 0.28331 0.50437 0.90394 0.0
N1608 N 0.23505 0.4821 0.92591 0.0
C1609 C 0.20681 0.47459 0.90815 0.0
C1610 C 0.17822 0.45829 0.95821 0.0
C1611 C 0.17869 0.46149 0.92377 0.0
H1612 H 0.33308 0.53293 0.96455 0.0
H1613 H 0.15708 0.45451 0.90918 0.0
H1614 H 0.18282 0.46128 0.02498 0.0
H1615 H 0.33072 0.53947 0.02484 0.0
H1616 H 0.20522 0.47798 0.88173 0.0
H1617 H 0.44319 0.4508 0.88758 0.0
H1618 H 0.15605 0.44888 0.97029 0.0
H1619 H 0.29454 0.48693 0.75957 0.0
H1620 H 0.3859 0.4335 0.8809 0.0
H1621 H 0.31638 0.52515 0.71762 0.0
H1622 H 0.22872 0.48678 0.05641 0.0
H1623 H 0.46632 0.4953 0.85226 0.0
H1624 H 0.45582 0.53832 0.80899 0.0
H1625 H 0.28294 0.51739 0.05645 0.0
H1626 H 0.42339 0.5563 0.76006 0.0
N1627 N 0.37373 0.46943 0.84308 0.0
C1628 C 0.39414 0.45379 0.86574 0.0
C1629 C 0.44061 0.48772 0.84907 0.0
C1630 C 0.42049 0.50186 0.82446 0.0
C1631 C 0.42756 0.4629 0.86922 0.0
C1632 C 0.38721 0.49133 0.82125 0.0
H1633 H 0.37182 0.55073 0.72526 0.0
N1634 N 0.33586 0.4925 0.79295 0.0
C1635 C 0.33086 0.51983 0.73975 0.0
C1636 C 0.36765 0.50334 0.79555 0.0
C1637 C 0.31837 0.49848 0.7641 0.0
C1638 C 0.36216 0.53406 0.74406 0.0
C1639 C 0.3812 0.52537 0.77188 0.0
O1640 O 0.30992 0.43297 0.79085 0.0
O1641 O 0.28046 0.45626 0.87603 0.0
O1642 O 0.31429 0.46617 0.92941 0.0
O1643 O 0.32965 0.43278 0.88405 0.0
O1644 O 0.26847 0.43719 0.83026 0.0
O1645 O 0.3426 0.41393 0.82807 0.0
O1646 O 0.28408 0.5537 0.8861 0.0
O1647 O 0.31929 0.50683 0.86288 0.0
O1648 O 0.27884 0.49506 0.81619 0.0
O1649 O 0.24832 0.5098 0.86308 0.0
O1650 O 0.33501 0.52201 0.90815 0.0
O1651 O 0.25665 0.54262 0.92947 0.0
C1652 C 0.25736 0.44048 0.86008 0.0
C1653 C 0.35778 0.40316 0.77123 0.0
C1654 C 0.37584 0.3761 0.71875 0.0
C1655 C 0.35077 0.38279 0.74298 0.0
C1656 C 0.40741 0.39041 0.72286 0.0
C1657 C 0.39013 0.41614 0.77456 0.0
C1658 C 0.41443 0.41018 0.75051 0.0
C1659 C 0.32911 0.43907 0.91696 0.0
C1660 C 0.3321 0.41039 0.79754 0.0
C1661 C 0.41324 0.53802 0.77682 0.0
C1662 C 0.4323 0.52696 0.80371 0.0
C1663 C 0.34395 0.52105 0.87744 0.0
C1664 C 0.28214 0.59618 0.92752 0.0
C1665 C 0.26184 0.61904 0.94534 0.0
C1666 C 0.27591 0.64805 0.95984 0.0
C1667 C 0.31021 0.65377 0.95629 0.0
C1668 C 0.31642 0.60283 0.9248 0.0
C1669 C 0.33024 0.6313 0.93903 0.0
C1670 C 0.25289 0.50998 0.83064 0.0
C1671 C 0.26764 0.56625 0.91079 0.0
H1672 H 0.32626 0.37191 0.74007 0.0
H1673 H 0.42688 0.38577 0.70479 0.0
H1674 H 0.39702 0.43059 0.79603 0.0
H1675 H 0.4391 0.42064 0.75358 0.0
H1676 H 0.23535 0.61447 0.94771 0.0
H1677 H 0.32154 0.67576 0.96705 0.0
H1678 H 0.33273 0.58623 0.9114 0.0
H1679 H 0.35667 0.63603 0.93652 0.0
Tb1680 Tb 0.71051 0.72617 0.95981 0.0
C1681 C 0.56463 0.7754 1.00558 0.0
C1682 C 0.55123 0.82865 0.98116 0.0
C1683 C 0.50878 0.79824 1.01152 0.0
C1684 C 0.57422 0.80302 0.98821 0.0
C1685 C 0.53155 0.77215 1.01687 0.0
C1686 C 0.51859 0.82645 0.99354 0.0
C1687 C 0.54485 0.71587 0.03288 0.0
N1688 N 0.58719 0.75045 1.00861 0.0
C1689 C 0.57739 0.72047 1.02122 0.0
C1690 C 0.52199 0.74207 0.03137 0.0
Tb1691 Tb 0.64174 0.76638 1.00049 0.0
N1692 N 0.60585 0.80371 0.9766 0.0
C1693 C 0.61604 0.82945 0.9573 0.0
C1694 C 0.56162 0.85509 0.96115 0.0
C1695 C 0.59416 0.85529 0.94887 0.0
H1696 H 0.59443 0.70004 0.02279 0.0
H1697 H 0.60268 0.87575 0.93363 0.0
H1698 H 0.50057 0.84597 0.98865 0.0
H1699 H 0.5375 0.69213 0.04315 0.0
H1700 H 0.64134 0.83086 0.94995 0.0
H1701 H 0.6667 0.60134 0.97976 0.0
H1702 H 0.54475 0.87522 0.95488 0.0
H1703 H 0.78628 0.75888 0.97109 0.0
H1704 H 0.66545 0.65728 0.95597 0.0
H1705 H 0.83781 0.74494 1.00157 0.0
H1706 H 0.48328 0.79632 1.0201 0.0
H1707 H 0.71222 0.58532 1.01729 0.0
H1708 H 0.7681 0.59958 0.04352 0.0
H1709 H 0.49679 0.73838 0.04021 0.0
H1710 H 0.81532 0.63769 0.04864 0.0
N1711 N 0.70982 0.67338 0.98025 0.0
C1712 C 0.68556 0.65089 0.97235 0.0
C1713 C 0.71273 0.60951 1.00608 0.0
C1714 C 0.73887 0.63172 1.01201 0.0
C1715 C 0.68652 0.61874 0.98528 0.0
C1716 C 0.73682 0.66374 0.99816 0.0
H1717 H 0.84161 0.69221 0.03309 0.0
N1718 N 0.7598 0.71603 0.9875 0.0
C1719 C 0.81668 0.72828 1.00243 0.0
C1720 C 0.76264 0.68589 1.0021 0.0
C1721 C 0.78725 0.73624 0.98547 0.0
C1722 C 0.81876 0.69851 1.02008 0.0
C1723 C 0.79186 0.6765 1.01935 0.0
O1724 O 0.74932 0.73148 0.92437 0.0
O1725 O 0.6729 0.76524 0.95316 0.0
O1726 O 0.61539 0.7407 0.96071 0.0
O1727 O 0.66031 0.71165 0.93633 0.0
O1728 O 0.72125 0.77378 0.93804 0.0
O1729 O 0.71299 0.69331 0.9187 0.0
O1730 O 0.6366 0.76985 0.05245 0.0
O1731 O 0.67855 0.7263 1.00239 0.0
O1732 O 0.72904 0.76291 0.99802 0.0
O1733 O 0.68411 0.79911 1.0018 0.0
O1734 O 0.64485 0.72671 0.03884 0.0
O1735 O 0.64315 0.81399 0.02268 0.0
C1736 C 0.69197 0.78667 0.93815 0.0
C1737 C 0.76912 0.67973 0.90258 0.0
C1738 C 0.82271 0.66279 0.87692 0.0
C1739 C 0.79674 0.68665 0.88146 0.0
C1740 C 0.8209 0.63253 0.89411 0.0
C1741 C 0.76801 0.64855 0.91837 0.0
C1742 C 0.79374 0.62547 0.91446 0.0
C1743 C 0.62749 0.71937 0.93864 0.0
C1744 C 0.74158 0.70457 0.9083 0.0
C1745 C 0.7935 0.64518 0.03454 0.0
C1746 C 0.7668 0.62313 0.03123 0.0
C1747 C 0.6707 0.71091 0.02914 0.0
C1748 C 0.60831 0.818 0.07102 0.0
C1749 C 0.60014 0.80658 0.10328 0.0
C1750 C 0.57383 0.82139 0.12124 0.0
C1751 C 0.5554 0.84717 0.10649 0.0
C1752 C 0.59013 0.84468 0.05741 0.0
C1753 C 0.56355 0.85872 0.07483 0.0
C1754 C 0.71512 0.79125 1.0086 0.0
C1755 C 0.63593 0.80223 0.05213 0.0
H1756 H 0.79805 0.7103 0.86866 0.0
H1757 H 0.84043 0.61407 0.89133 0.0
H1758 H 0.74714 0.64171 0.93376 0.0
H1759 H 0.79248 0.60177 0.92717 0.0
H1760 H 0.61451 0.78673 0.11463 0.0
H1761 H 0.53516 0.85894 0.11992 0.0
H1762 H 0.59631 0.85472 0.03324 0.0
H1763 H 0.54948 0.87897 0.06391 0.0
Tb1764 Tb 0.20066 0.8143 0.0888 0.0
C1765 C 0.0543 0.77963 0.04139 0.0
C1766 C 0.03652 0.72533 0.06002 0.0
C1767 C 0.99656 0.76293 0.03408 0.0
C1768 C 0.06162 0.74937 0.0555 0.0
C1769 C 1.02151 0.78731 0.03137 0.0
C1770 C 1.00406 0.73194 0.04842 0.0
C1771 C 0.04026 0.84308 1.01962 0.0
N1772 N 0.07931 0.80209 0.03918 0.0
C1773 C 0.07256 0.83387 0.02921 0.0
C1774 C 1.01475 0.81948 1.01995 0.0
Tb1775 Tb 0.13184 0.77966 0.04363 0.0
N1776 N 0.09346 0.74392 0.06539 0.0
C1777 C 0.1017 0.71514 0.08115 0.0
C1778 C 0.04488 0.6957 0.07628 0.0
C1779 C 0.07759 0.69081 0.08734 0.0
H1780 H 0.09199 0.85207 0.02802 0.0
H1781 H 0.0845 0.66786 0.09963 0.0
H1782 H 0.98447 0.71366 0.05121 0.0
H1783 H 0.03519 0.86824 1.01146 0.0
H1784 H 0.12705 0.71022 0.0871 0.0
H1785 H 0.16072 0.94306 0.08816 0.0
H1786 H 0.02635 0.67662 0.08051 0.0
H1787 H 0.27752 0.78363 0.07391 0.0
H1788 H 0.16 0.88584 0.10772 0.0
H1789 H 0.3262 0.79994 0.04022 0.0
H1790 H 0.97125 0.76814 0.02615 0.0
H1791 H 0.20136 0.96029 0.04586 0.0
H1792 H 0.24884 0.94419 1.00849 0.0
H1793 H 0.98983 0.82657 1.01225 0.0
H1794 H 0.29742 0.90833 0.99963 0.0
N1795 N 0.19837 0.869 0.0747 0.0
C1796 C 0.17724 0.89203 0.08835 0.0
C1797 C 0.20148 0.9349 0.05447 0.0
C1798 C 0.22517 0.91196 0.04319 0.0
C1799 C 0.17815 0.92514 0.07804 0.0
C1800 C 0.2237 0.87904 0.05462 0.0
H1801 H 0.32571 0.8535 1.00991 0.0
N1802 N 0.24814 0.82556 0.05939 0.0
C1803 C 0.3044 0.81583 0.0411 0.0
C1804 C 0.24894 0.8566 0.0462 0.0
C1805 C 0.27662 0.80648 0.05976 0.0
C1806 C 0.30407 0.84608 0.02416 0.0
C1807 C 0.27669 0.86737 0.02764 0.0
O1808 O 0.20649 0.81219 0.14124 0.0
O1809 O 0.16272 0.77541 0.09053 0.0
O1810 O 0.10659 0.80228 0.08637 0.0
O1811 O 0.15126 0.8303 0.11233 0.0
O1812 O 0.21074 0.76458 0.10582 0.0
O1813 O 0.24052 0.83971 0.11264 0.0
O1814 O 0.12164 0.77977 0.9922 0.0
O1815 O 0.16932 0.81908 0.04556 0.0
O1816 O 0.22028 0.77765 0.05114 0.0
O1817 O 0.17389 0.74577 0.03732 0.0
O1818 O 0.13841 0.81989 1.00651 0.0
O1819 O 0.13057 0.73361 1.01825 0.0
C1820 C 0.18114 0.7522 0.1036 0.0
C1821 C 0.26339 0.81423 0.16049 0.0
C1822 C 0.31955 0.82024 0.18533 0.0
C1823 C 0.292 0.83391 0.16771 0.0
C1824 C 0.31802 0.78687 0.19544 0.0
C1825 C 0.26299 0.78094 0.17108 0.0
C1826 C 0.29003 0.76749 0.18841 0.0
C1827 C 0.11853 0.82253 0.10964 0.0
C1828 C 0.23433 0.82842 0.14185 0.0
C1829 C 0.27668 0.89946 1.01429 0.0
C1830 C 0.25007 0.92084 1.02077 0.0
C1831 C 0.16385 0.83485 1.01829 0.0
C1832 C 0.09314 0.73255 0.97115 0.0
C1833 C 0.08626 0.74279 0.93804 0.0
C1834 C 0.0599 0.72813 0.91972 0.0
C1835 C 0.03996 0.70408 0.93517 0.0
C1836 C 0.07355 0.70732 0.98522 0.0
C1837 C 0.04679 0.69378 0.96762 0.0
C1838 C 0.20614 0.75183 0.03565 0.0
C1839 C 0.12139 0.74742 0.99014 0.0
H1840 H 0.29288 0.8596 0.15966 0.0
H1841 H 0.33867 0.77576 0.20889 0.0
H1842 H 0.24181 0.76513 0.16596 0.0
H1843 H 0.28929 0.7418 0.19642 0.0
H1844 H 0.10187 0.76129 0.92626 0.0
H1845 H 1.01968 0.69246 0.92164 0.0
H1846 H 0.07898 0.6978 1.00977 0.0
H1847 H 0.03167 0.67465 0.97897 0.0
Tb1848 Tb 0.33786 0.2266 0.58235 0.0
C1849 C 0.48021 0.28374 0.54928 0.0
C1850 C 0.47962 0.33857 0.57441 0.0
C1851 C 0.53216 0.31416 0.55712 0.0
C1852 C 0.46251 0.30998 0.56297 0.0
C1853 C 0.51509 0.28627 0.54486 0.0
C1854 C 0.5145 0.34004 0.57231 0.0
C1855 C 0.51389 0.23351 0.51631 0.0
N1856 N 0.46297 0.25682 0.53804 0.0
C1857 C 0.47945 0.23199 0.52129 0.0
C1858 C 0.53183 0.26073 0.52813 0.0
Tb1859 Tb 0.40578 0.26128 0.53951 0.0
N1860 N 0.42859 0.30875 0.5624 0.0
C1861 C 0.41091 0.33668 0.57034 0.0
C1862 C 0.46111 0.36559 0.58607 0.0
C1863 C 0.42655 0.36483 0.58349 0.0
H1864 H 0.46646 0.21119 0.5106 0.0
H1865 H 0.41194 0.38638 0.59052 0.0
H1866 H 0.52794 0.36169 0.58115 0.0
H1867 H 0.52654 0.21377 0.50301 0.0
H1868 H 0.38487 0.33815 0.56575 0.0
H1869 H 0.38533 0.10048 0.59599 0.0
H1870 H 0.47326 0.38782 0.59534 0.0
H1871 H 0.26305 0.25184 0.54869 0.0
H1872 H 0.37947 0.15844 0.61165 0.0
H1873 H 0.22206 0.22974 0.50987 0.0
H1874 H 0.55897 0.31613 0.5546 0.0
H1875 H 0.3503 0.0769 0.55137 0.0
H1876 H 0.30565 0.08627 0.50907 0.0
H1877 H 0.55851 0.2618 0.5242 0.0
H1878 H 0.2589 0.11886 0.48838 0.0
N1879 N 0.34358 0.1703 0.57365 0.0
C1880 C 0.36491 0.14985 0.59091 0.0
C1881 C 0.34781 0.10292 0.55781 0.0
C1882 C 0.3239 0.12311 0.54252 0.0
C1883 C 0.36779 0.11619 0.5828 0.0
C1884 C 0.3217 0.15682 0.55162 0.0
H1885 H 0.22769 0.17249 0.48832 0.0
N1886 N 0.2956 0.20919 0.54675 0.0
C1887 C 0.24335 0.2147 0.51689 0.0
C1888 C 0.29698 0.17672 0.53789 0.0
C1889 C 0.26754 0.2274 0.53841 0.0
C1890 C 0.24642 0.18239 0.50509 0.0
C1891 C 0.27295 0.1628 0.51612 0.0
O1892 O 0.32894 0.20388 0.62944 0.0
O1893 O 0.37653 0.2647 0.58758 0.0
O1894 O 0.43253 0.23264 0.57769 0.0
O1895 O 0.38693 0.21404 0.60888 0.0
O1896 O 0.32915 0.27505 0.60396 0.0
O1897 O 0.28996 0.22849 0.6029 0.0
O1898 O 0.38991 0.2566 0.49002 0.0
O1899 O 0.36526 0.22471 0.53634 0.0
O1900 O 0.31913 0.26489 0.54671 0.0
O1901 O 0.36489 0.29662 0.5319 0.0
O1902 O 0.41113 0.20852 0.52504 0.0
O1903 O 0.43078 0.28764 0.50059 0.0
C1904 C 0.35859 0.28733 0.60221 0.0
C1905 C 0.2793 0.21957 0.65955 0.0
C1906 C 0.23102 0.21126 0.69612 0.0
C1907 C 0.25074 0.20111 0.66886 0.0
C1908 C 0.24078 0.23949 0.71435 0.0
C1909 C 0.28781 0.24812 0.67767 0.0
C1910 C 0.26891 0.25771 0.70518 0.0
C1911 C 0.42006 0.21676 0.60373 0.0
C1912 C 0.29719 0.21073 0.62868 0.0
C1913 C 0.27618 0.12976 0.50598 0.0
C1914 C 0.30226 0.11061 0.51839 0.0
C1915 C 0.38035 0.19972 0.5239 0.0
C1916 C 0.4322 0.25718 0.44927 0.0
C1917 C 0.44827 0.27601 0.42433 0.0
C1918 C 0.46495 0.25987 0.39771 0.0
C1919 C 0.46525 0.22499 0.39633 0.0
C1920 C 0.43263 0.22225 0.44658 0.0
C1921 C 0.44904 0.2064 0.42049 0.0
C1922 C 0.33245 0.29118 0.5319 0.0
C1923 C 0.41379 0.27355 0.47712 0.0
H1924 H 0.24338 0.17951 0.65445 0.0
H1925 H 0.22622 0.24775 0.73549 0.0
H1926 H 0.30848 0.26345 0.6701 0.0
H1927 H 0.27573 0.27975 0.71911 0.0
H1928 H 0.44804 0.30294 0.42567 0.0
H1929 H 0.47818 0.21214 0.37645 0.0
H1930 H 0.42021 0.20685 0.46449 0.0
H1931 H 0.44918 0.1795 0.41904 0.0
Tb1932 Tb 0.84494 0.31972 0.46058 0.0
C1933 C 0.99322 0.28293 0.50819 0.0
C1934 C 1.01118 0.23051 0.48481 0.0
C1935 C 0.05093 0.26533 0.51439 0.0
C1936 C 0.98603 0.25414 0.49141 0.0
C1937 C 0.02596 0.28942 0.51926 0.0
C1938 C 0.04357 0.23592 0.49703 0.0
C1939 C 1.00778 0.34471 0.53391 0.0
N1940 N 0.96849 0.30575 0.51092 0.0
C1941 C 0.97563 0.33677 0.52288 0.0
C1942 C 0.03294 0.3207 0.53278 0.0
Tb1943 Tb 0.91558 0.28464 0.5036 0.0
N1944 N 0.95444 0.25017 0.48021 0.0
C1945 C 0.94647 0.22324 0.46141 0.0
C1946 C 1.00299 0.20264 0.46558 0.0
C1947 C 0.97049 0.19922 0.45346 0.0
H1948 H 0.95672 0.3554 0.52454 0.0
H1949 H 0.96373 0.17775 0.43864 0.0
H1950 H 0.06321 0.21794 0.49252 0.0
H1951 H 1.01303 0.36929 0.54361 0.0
H1952 H 0.92144 0.21972 0.45389 0.0
H1953 H 0.88749 0.44622 0.47246 0.0
H1954 H 1.02154 0.18392 0.4597 0.0
H1955 H 0.76987 0.28659 0.47574 0.0
H1956 H 0.89025 0.38842 0.4536 0.0
H1957 H 0.71909 0.30175 0.50641 0.0
H1958 H 0.07623 0.26974 0.52279 0.0
H1959 H 0.84118 0.46466 0.50799 0.0
H1960 H 0.7875 0.45043 0.53732 0.0
H1961 H 0.05782 0.32692 0.54125 0.0
H1962 H 0.74089 0.4123 0.54563 0.0
N1963 N 0.84575 0.37358 0.47831 0.0
C1964 C 0.86974 0.39577 0.46904 0.0
C1965 C 0.84168 0.43933 0.49926 0.0
C1966 C 0.81631 0.41695 0.50726 0.0
C1967 C 0.86809 0.42891 0.47938 0.0
C1968 C 0.81874 0.38405 0.49565 0.0
H1969 H 0.71519 0.3565 0.53434 0.0
N1970 N 0.79629 0.33074 0.48885 0.0
C1971 C 0.73997 0.31874 0.50574 0.0
C1972 C 0.7933 0.36181 0.50141 0.0
C1973 C 0.76907 0.31006 0.48875 0.0
C1974 C 0.7378 0.34964 0.52131 0.0
C1975 C 0.76429 0.37195 0.51849 0.0
O1976 O 0.80474 0.31215 0.42681 0.0
O1977 O 0.88409 0.28169 0.45619 0.0
O1978 O 0.94038 0.31021 0.46262 0.0
O1979 O 0.89398 0.33344 0.43483 0.0
O1980 O 0.83612 0.27085 0.44099 0.0
O1981 O 0.84039 0.35019 0.41785 0.0
O1982 O 0.92385 0.28261 0.55547 0.0
O1983 O 0.87649 0.32259 0.50364 0.0
O1984 O 0.8276 0.28317 0.49914 0.0
O1985 O 0.87462 0.25009 0.50699 0.0
O1986 O 0.90889 0.32443 0.54142 0.0
O1987 O 0.91724 0.23762 0.52695 0.0
C1988 C 0.86574 0.25878 0.44224 0.0
C1989 C 0.78355 0.36239 0.40247 0.0
C1990 C 0.72964 0.37822 0.37613 0.0
C1991 C 0.75578 0.35459 0.38157 0.0
C1992 C 0.73128 0.40893 0.39265 0.0
C1993 C 0.78455 0.39415 0.41713 0.0
C1994 C 0.75855 0.41684 0.4127 0.0
C1995 C 0.92719 0.32836 0.43836 0.0
C1996 C 0.81157 0.33809 0.40894 0.0
C1997 C 0.76246 0.40419 0.53159 0.0
C1998 C 0.78872 0.4263 0.52638 0.0
C1999 C 0.88246 0.33848 0.53061 0.0
C2000 C 0.95334 0.235 0.57506 0.0
C2001 C 0.95998 0.24424 0.60863 0.0
C2002 C 0.98633 0.22897 0.62673 0.0
C2003 C 1.00625 0.20521 0.61062 0.0
C2004 C 0.97318 0.21019 0.56037 0.0
C2005 C 0.99969 0.19592 0.5778 0.0
C2006 C 0.84276 0.25623 0.51155 0.0
C2007 C 0.92512 0.25024 0.55601 0.0
H2008 H 0.75459 0.33053 0.36947 0.0
H2009 H 0.71159 0.42715 0.38945 0.0
H2010 H 0.80562 0.40181 0.43197 0.0
H2011 H 0.75974 0.44095 0.42468 0.0
H2012 H 0.94441 0.26262 0.6208 0.0
H2013 H 0.02656 0.19321 0.62382 0.0
H2014 H 0.9682 0.20155 0.53535 0.0
H2015 H 1.01495 0.17713 0.56594 0.0
C2016 C 0.12437 0.46769 0.36457 0.0
C2017 C 0.13631 0.44207 0.34303 0.0
C2018 C 0.19084 0.47152 0.3418 0.0
C2019 C 0.1795 0.49698 0.36422 0.0
N2020 N 0.13544 0.51432 0.40132 0.0
N2021 N 0.18554 0.41478 0.32181 0.0
C2022 C 0.1464 0.49318 0.37707 0.0
C2023 C 0.1709 0.44243 0.33513 0.0
N2024 N 0.09146 0.468 0.37313 0.0
N2025 N 0.22011 0.47519 0.32522 0.0
H2026 H 0.17261 0.39325 0.3157 0.0
H2027 H 0.2113 0.4121 0.31973 0.0
H2028 H 0.23529 0.49568 0.32789 0.0
H2029 H 0.22744 0.45971 0.30575 0.0
H2030 H 0.07956 0.48844 0.38378 0.0
H2031 H 0.07557 0.44814 0.36826 0.0
H2032 H 0.11418 0.5101 0.41549 0.0
H2033 H 0.14817 0.53573 0.40811 0.0
C2034 C 0.35816 0.57279 0.83973 0.0
C2035 C 0.36781 0.54861 0.86419 0.0
C2036 C 0.42288 0.57799 0.86724 0.0
C2037 C 0.4124 0.60261 0.84391 0.0
N2038 N 0.36472 0.62871 0.81807 0.0
N2039 N 0.40863 0.53411 0.90618 0.0
C2040 C 0.37845 0.60166 0.83342 0.0
C2041 C 0.39979 0.55337 0.8796 0.0
N2042 N 0.33012 0.56816 0.82119 0.0
N2043 N 0.4553 0.57781 0.87768 0.0
H2044 H 0.39481 0.51375 0.91406 0.0
H2045 H 0.42908 0.53917 0.92137 0.0
H2046 H 0.47195 0.59683 0.87204 0.0
H2047 H 0.46613 0.55801 0.89048 0.0
H2048 H 0.32427 0.58261 0.80046 0.0
H2049 H 0.31472 0.54778 0.8238 0.0
H2050 H 0.33922 0.63104 0.8136 0.0
H2051 H 0.37804 0.65017 0.81258 0.0
C2052 C 0.663 0.08663 0.72342 0.0
C2053 C 0.63567 0.0966 0.70298 0.0
C2054 C 0.65414 0.05418 0.66171 0.0
C2055 C 0.68379 0.04676 0.68052 0.0
N2056 N 0.71843 0.06298 0.727 0.0
N2057 N 0.60576 0.0898 0.65167 0.0
C2058 C 0.68882 0.06523 0.71057 0.0
C2059 C 0.63165 0.08044 0.67175 0.0
N2060 N 0.66348 0.09595 0.7561 0.0
N2061 N 0.64628 0.03471 0.6349 0.0
H2062 H 0.58725 0.10627 0.65943 0.0
H2063 H 0.60357 0.0829 0.6268 0.0
H2064 H 0.66065 1.01446 0.62759 0.0
H2065 H 0.62375 0.036 0.6221 0.0
H2066 H 0.68139 0.08783 0.77307 0.0
H2067 H 0.64403 0.10914 0.76715 0.0
H2068 H 0.72526 0.07888 0.74634 0.0
H2069 H 0.73692 0.04649 0.71995 0.0
C2070 C 0.91944 0.96631 0.18149 0.0
C2071 C 0.90891 0.942 0.20501 0.0
C2072 C 0.8543 0.97159 0.20777 0.0
C2073 C 0.86421 0.99551 0.18338 0.0
N2074 N 0.90549 1.01019 0.14225 0.0
N2075 N 0.86163 0.91638 0.23137 0.0
C2076 C 0.89643 0.99086 0.16867 0.0
C2077 C 0.87494 0.94306 0.21524 0.0
N2078 N 0.95189 0.96628 0.17135 0.0
N2079 N 0.82557 0.97636 0.22497 0.0
H2080 H 0.8754 0.89533 0.23766 0.0
H2081 H 0.83617 0.91377 0.23563 0.0
H2082 H 0.81078 0.99712 0.2215 0.0
H2083 H 0.8184 0.96188 0.24515 0.0
H2084 H 0.96285 0.98593 0.15858 0.0
H2085 H 0.96836 0.9471 0.17718 0.0
H2086 H 0.92616 1.00521 0.12742 0.0
H2087 H 0.89169 0.03062 0.13415 0.0
C2088 C 0.38464 0.14466 0.49055 0.0
C2089 C 0.36807 0.17595 0.49585 0.0
C2090 C 0.32932 0.16007 0.44987 0.0
C2091 C 0.34742 0.1305 0.44272 0.0
N2092 N 0.39351 0.09496 0.45679 0.0
N2093 N 0.32745 0.21502 0.47349 0.0
C2094 C 0.37548 0.12307 0.46321 0.0
C2095 C 0.34163 0.18422 0.47317 0.0
N2096 N 0.40818 0.13442 0.51292 0.0
N2097 N 0.29807 0.16362 0.43707 0.0
H2098 H 0.33174 0.23252 0.49176 0.0
H2099 H 0.3123 0.22381 0.4543 0.0
H2100 H 0.28649 0.1441 0.42488 0.0
H2101 H 0.282 0.18317 0.44278 0.0
H2102 H 0.4182 0.11054 0.51364 0.0
H2103 H 0.41572 0.14885 0.53294 0.0
H2104 H 0.41702 0.09022 0.46674 0.0
H2105 H 0.38557 0.0768 0.44015 0.0
C2106 C 0.18025 0.91849 0.97154 0.0
C2107 C 0.20429 0.90895 0.94715 0.0
C2108 C 0.20619 0.85304 0.97391 0.0
C2109 C 0.18146 0.86199 0.99773 0.0
N2110 N 0.14014 0.9023 1.01383 0.0
N2111 N 0.23068 0.86237 0.91962 0.0
C2112 C 0.16697 0.89438 0.99461 0.0
C2113 C 0.21441 0.87484 0.94669 0.0
N2114 N 0.16968 0.95079 0.97267 0.0
N2115 N 0.22268 0.82363 0.97757 0.0
H2116 H 0.23762 0.87673 0.8993 0.0
H2117 H 0.23465 0.837 0.91598 0.0
H2118 H 0.21798 0.8079 0.99745 0.0
H2119 H 0.24331 0.81684 0.96341 0.0
H2120 H 0.15603 0.9607 0.99234 0.0
H2121 H 0.17571 0.96818 0.95445 0.0
H2122 H 0.12514 0.9231 1.00986 0.0
H2123 H 0.13269 0.88749 0.03366 0.0
C2124 C 0.83621 0.35931 0.57013 0.0
C2125 C 0.86506 0.36606 0.55067 0.0
C2126 C 0.86944 0.42076 0.58027 0.0
C2127 C 0.84089 0.41335 0.59985 0.0
N2128 N 0.79057 0.38135 0.60257 0.0
N2129 N 0.91038 0.40334 0.53921 0.0
C2130 C 0.82267 0.38405 0.59197 0.0
C2131 C 0.88197 0.39686 0.55655 0.0
N2132 N 0.82167 0.32884 0.56829 0.0
N2133 N 0.88315 0.45179 0.58243 0.0
H2134 H 0.91675 0.38985 0.51806 0.0
H2135 H 0.92737 0.42185 0.54546 0.0
H2136 H 0.87402 0.47011 0.59831 0.0
H2137 H 0.90156 0.46064 0.5666 0.0
H2138 H 0.80375 0.32049 0.58501 0.0
H2139 H 0.82896 0.31141 0.55086 0.0
H2140 H 0.77453 0.36222 0.59559 0.0
H2141 H 0.77862 0.40105 0.61424 0.0
C2142 C 0.67687 0.62889 0.08067 0.0
C2143 C 0.70538 0.63468 0.10103 0.0
C2144 C 0.71466 0.68751 0.07014 0.0
C2145 C 0.68569 0.68252 0.05016 0.0
N2146 N 0.63772 0.64858 0.03873 0.0
N2147 N 0.75764 0.66331 0.10472 0.0
C2148 C 0.66637 0.65327 0.05642 0.0
C2149 C 0.72574 0.66255 0.09312 0.0
N2150 N 0.66141 0.59869 0.08236 0.0
N2151 N 0.73192 0.71642 0.06738 0.0
H2152 H 0.76785 0.64299 0.11683 0.0
H2153 H 0.77521 0.68112 0.09809 0.0
H2154 H 0.72719 0.73304 0.04836 0.0
H2155 H 0.7499 0.72423 0.08442 0.0
H2156 H 0.6428 0.59095 0.06604 0.0
H2157 H 0.66949 0.57974 0.09809 0.0
H2158 H 0.61935 0.63151 0.04508 0.0
H2159 H 0.63248 0.66224 1.0174 0.0
C2160 C 0.46619 0.37223 0.13166 0.0
C2161 C 0.45137 0.34019 0.13459 0.0
C2162 C 0.48124 0.33353 0.18853 0.0
C2163 C 0.49917 0.36373 0.18427 0.0
N2164 N 0.50855 0.41186 0.14969 0.0
N2165 N 0.45336 0.28696 0.16209 0.0
C2166 C 0.49113 0.38325 0.15538 0.0
C2167 C 0.46151 0.31989 0.16187 0.0
N2168 N 0.45694 0.39199 0.10558 0.0
N2169 N 0.48068 0.31892 0.21899 0.0
H2170 H 0.4405 0.27559 0.14258 0.0
H2171 H 0.46236 0.27042 0.17996 0.0
H2172 H 0.49242 0.32952 0.23955 0.0
H2173 H 0.46499 0.29904 0.22449 0.0
H2174 H 0.46282 0.41709 0.1036 0.0
H2175 H 0.44182 0.38348 0.08624 0.0
H2176 H 0.50663 0.42602 0.12814 0.0
H2177 H 0.52773 0.41998 0.16516 0.0
C2178 C 0.96063 0.22942 0.88912 0.0
C2179 C 0.94879 0.20786 0.91461 0.0
C2180 C 0.99004 0.16609 0.89539 0.0
C2181 C 0.99813 0.18575 0.86688 0.0
N2182 N 0.98346 0.23355 0.83379 0.0
N2183 N 0.95289 0.15492 0.94193 0.0
C2184 C 0.9811 0.21661 0.86294 0.0
C2185 C 0.9636 0.17587 0.91752 0.0
N2186 N 0.95359 0.26265 0.89032 0.0
N2187 N 1.0089 0.13866 0.90227 0.0
H2188 H 0.9361 0.16239 0.9602 0.0
H2189 H 0.95927 0.12984 0.94316 0.0
H2190 H 0.02967 0.13243 0.88813 0.0
H2191 H 1.00675 0.12459 0.92387 0.0
H2192 H 0.96315 0.27975 0.87342 0.0
H2193 H 0.94063 0.27375 0.90983 0.0
H2194 H 0.96855 0.25401 0.82793 0.0
H2195 H 0.99877 0.2256 0.81471 0.0
C2196 C 0.55147 0.88253 0.38641 0.0
C2197 C 0.54469 0.86212 0.35776 0.0
C2198 C 0.58149 0.81906 0.38307 0.0
C2199 C 0.5915 0.84098 0.40903 0.0
N2200 N 0.58595 0.89443 0.43512 0.0
N2201 N 0.56206 0.81377 0.32651 0.0
C2202 C 0.57652 0.87301 0.41043 0.0
C2203 C 0.56217 0.83118 0.35552 0.0
N2204 N 0.53295 0.91068 0.39157 0.0
N2205 N 0.58959 0.7861 0.38493 0.0
H2206 H 0.54874 0.82164 0.306 0.0
H2207 H 0.5774 0.79329 0.32207 0.0
H2208 H 0.60243 0.77584 0.40503 0.0
H2209 H 0.58105 0.7684 0.368 0.0
H2210 H 0.53381 0.92466 0.41336 0.0
H2211 H 0.51388 0.9184 0.37574 0.0
H2212 H 0.58001 0.91964 0.43534 0.0
H2213 H 0.60148 0.88728 0.45468 0.0
C2214 C 0.09662 0.71366 0.66824 0.0
C2215 C 0.09899 0.70111 0.63502 0.0
C2216 C 0.0535 0.66184 0.6502 0.0
C2217 C 0.04714 0.67869 0.68119 0.0
N2218 N 0.06256 0.72507 0.71629 0.0
N2219 N 0.07539 0.66476 0.59374 0.0
C2220 C 0.06846 0.70605 0.68891 0.0
C2221 C 0.07607 0.67571 0.6259 0.0
N2222 N 0.12234 0.73127 0.68148 0.0
N2223 N 0.03819 0.63224 0.64357 0.0
H2224 H 0.0919 0.67334 0.57572 0.0
H2225 H 0.0568 0.64923 0.58442 0.0
H2226 H 1.01967 0.62206 0.65848 0.0
H2227 H 0.04508 0.61692 0.6238 0.0
H2228 H 0.12376 0.73819 0.70645 0.0
H2229 H 0.14424 0.73499 0.66873 0.0
H2230 H 0.07434 0.74776 0.72063 0.0
H2231 H 0.04366 0.71997 0.73282 0.0
C2232 C 0.88072 0.60652 0.68485 0.0
C2233 C 0.90019 0.60344 0.7145 0.0
C2234 C 0.86412 0.55497 0.72925 0.0
C2235 C 0.85211 0.55353 0.6963 0.0
N2236 N 0.8252 0.59664 0.66614 0.0
N2237 N 0.90193 0.57897 0.76968 0.0
C2238 C 0.85382 0.58422 0.67925 0.0
C2239 C 0.88962 0.57861 0.73804 0.0
N2240 N 0.88589 0.6313 0.66238 0.0
N2241 N 0.84555 0.54043 0.75329 0.0
H2242 H 0.91382 0.5997 0.77971 0.0
H2243 H 0.89947 0.55894 0.78595 0.0
H2244 H 0.82214 0.53108 0.74737 0.0
H2245 H 0.85011 0.54297 0.77869 0.0
H2246 H 0.87405 0.63134 0.6392 0.0
H2247 H 0.90125 0.65152 0.66646 0.0
H2248 H 0.82334 0.62036 0.65576 0.0
H2249 H 0.80254 0.58559 0.67229 0.0
C2250 C 0.65814 0.44138 0.18345 0.0
C2251 C 0.64155 0.44231 0.21477 0.0
C2252 C 0.67988 0.48929 0.23001 0.0
C2253 C 0.68991 0.49224 0.19654 0.0
N2254 N 0.71276 0.44982 0.16242 0.0
N2255 N 0.64403 0.46419 0.27123 0.0
C2256 C 0.68562 0.46281 0.17772 0.0
C2257 C 0.65435 0.46569 0.23899 0.0
N2258 N 0.64943 0.41947 0.15912 0.0
N2259 N 0.69994 0.50259 0.25376 0.0
H2260 H 0.63272 0.4432 0.28115 0.0
H2261 H 0.6477 0.48354 0.28814 0.0
H2262 H 0.72286 0.51263 0.24724 0.0
H2263 H 0.69687 0.49881 0.27921 0.0
H2264 H 0.65998 0.4205 0.1354 0.0
H2265 H 0.63135 0.40147 0.16191 0.0
H2266 H 0.71258 0.42691 0.15014 0.0
H2267 H 0.7363 0.45858 0.16914 0.0
C2268 C 0.397 0.96873 0.30265 0.0
C2269 C 0.40482 0.93972 0.3227 0.0
C2270 C 0.35744 0.95742 0.35813 0.0
C2271 C 0.3569 0.98937 0.34333 0.0
N2272 N 0.35077 1.00343 0.28687 0.0
N2273 N 0.38685 0.90685 0.3705 0.0
C2274 C 0.36994 0.9901 0.31129 0.0
C2275 C 0.38347 0.93417 0.35072 0.0
N2276 N 0.41362 0.97584 0.27415 0.0
N2277 N 0.32856 0.94583 0.37113 0.0
H2278 H 0.40181 0.88661 0.36501 0.0
H2279 H 0.37455 0.90487 0.39327 0.0
H2280 H 0.30648 0.95885 0.36682 0.0
H2281 H 0.3254 0.92153 0.37963 0.0
H2282 H 0.41089 0.99861 0.26195 0.0
H2283 H 0.42912 0.95924 0.26236 0.0
H2284 H 0.35636 1.00097 0.26163 0.0
H2285 H 0.32662 1.01139 0.29215 0.0
C2286 C 0.15013 0.05763 0.8871 0.0
C2287 C 0.1805 0.05048 0.8695 0.0
C2288 C 0.16282 0.09285 0.82751 0.0
C2289 C 0.13405 0.10154 0.84622 0.0
N2290 N 0.10048 0.09207 0.89453 0.0
N2291 N 0.21735 0.06741 0.82514 0.0
C2292 C 0.12805 0.08403 0.87637 0.0
C2293 C 0.18738 0.07021 0.84064 0.0
N2294 N 0.141 0.03754 0.91298 0.0
N2295 N 0.16533 0.10384 0.79547 0.0
H2296 H 0.2345 0.04921 0.83116 0.0
H2297 H 0.22584 0.08431 0.80747 0.0
H2298 H 0.14627 0.11703 0.78373 0.0
H2299 H 0.18414 0.09663 0.77917 0.0
H2300 H 0.11797 0.03863 0.92472 0.0
H2301 H 0.15489 1.01713 0.92087 0.0
H2302 H 0.09654 0.08453 0.91895 0.0
H2303 H 0.08193 0.10776 0.88545 0.0
C2304 C 0.67965 0.92442 0.57668 0.0
C2305 C 0.70338 0.91357 0.60078 0.0
C2306 C 0.70309 0.85798 0.57297 0.0
C2307 C 0.67868 0.86848 0.54927 0.0
N2308 N 0.63819 0.91062 0.5348 0.0
N2309 N 0.72809 0.86582 0.62757 0.0
C2310 C 0.66506 0.90121 0.55348 0.0
C2311 C 0.71218 0.87912 0.60063 0.0
N2312 N 0.67139 0.95736 0.57525 0.0
N2313 N 0.71822 0.82786 0.5691 0.0
H2314 H 0.7353 0.87986 0.64814 0.0
H2315 H 0.73131 0.84031 0.63087 0.0
H2316 H 0.71246 0.81195 0.54959 0.0
H2317 H 0.73873 0.82029 0.58315 0.0
H2318 H 0.65784 0.9679 0.55579 0.0
H2319 H 0.68003 0.97464 0.59251 0.0
H2320 H 0.62408 0.93183 0.53974 0.0
H2321 H 0.62941 0.89666 0.51483 0.0
C2322 C 0.8318 0.18771 0.06706 0.0
C2323 C 0.86118 0.18205 0.04801 0.0
C2324 C 0.87033 0.13029 0.08145 0.0
C2325 C 0.83948 0.13482 0.09821 0.0
N2326 N 0.78648 0.16289 0.09808 0.0
N2327 N 0.90602 0.14458 0.03474 0.0
C2328 C 0.81906 0.16223 0.08858 0.0
C2329 C 0.87987 0.15245 0.05492 0.0
N2330 N 0.81589 0.21759 0.06488 0.0
N2331 N 0.89046 0.10441 0.09062 0.0
H2332 H 0.91139 0.15847 1.01363 0.0
H2333 H 0.91947 0.12248 0.0361 0.0
H2334 H 0.88325 0.08663 0.10802 0.0
H2335 H 0.91496 0.10157 0.08265 0.0
H2336 H 0.79674 0.22477 0.08084 0.0
H2337 H 0.82325 0.23579 0.04814 0.0
H2338 H 0.76963 0.18109 0.0904 0.0
H2339 H 0.77539 0.14305 0.11046 0.0
C2340 C 0.16061 0.64472 0.49408 0.0
C2341 C 0.17681 0.67607 0.49977 0.0
C2342 C 0.21449 0.66185 0.45213 0.0
C2343 C 0.1985 0.63075 0.44649 0.0
N2344 N 0.15184 0.59585 0.45878 0.0
N2345 N 0.21456 0.71661 0.47652 0.0
C2346 C 0.17017 0.62334 0.46653 0.0
C2347 C 0.20201 0.68526 0.47627 0.0
N2348 N 0.1371 0.63431 0.51627 0.0
N2349 N 0.24392 0.66805 0.43655 0.0
H2350 H 0.21019 0.73315 0.49561 0.0
H2351 H 0.22802 0.72664 0.45681 0.0
H2352 H 0.25468 0.65082 0.42078 0.0
H2353 H 0.25939 0.68811 0.44202 0.0
H2354 H 0.12686 0.61056 0.51631 0.0
H2355 H 0.12995 0.64831 0.53688 0.0
H2356 H 0.12888 0.59026 0.46933 0.0
H2357 H 0.15843 0.58004 0.43936 0.0
C2358 C 0.34162 0.35872 0.97042 0.0
C2359 C 0.36644 0.36803 0.99419 0.0
C2360 C 0.36819 0.42364 0.96605 0.0
C2361 C 0.34433 0.41359 0.94157 0.0
N2362 N 0.31881 0.36583 0.91502 0.0
N2363 N 0.40864 0.4083 1.00859 0.0
C2364 C 0.33433 0.37946 0.94205 0.0
C2365 C 0.38147 0.40004 0.98979 0.0
N2366 N 0.32399 0.33028 0.97504 0.0
N2367 N 0.37832 0.45603 0.96696 0.0
H2368 H 0.41708 0.39385 0.02839 0.0
H2369 H 0.42359 0.42886 1.00372 0.0
H2370 H 0.37189 0.47325 0.94873 0.0
H2371 H 0.39169 0.46624 0.98673 0.0
H2372 H 0.30347 0.3236 0.96062 0.0
H2373 H 0.32744 0.31544 0.99573 0.0
H2374 H 0.31511 0.3403 0.91239 0.0
H2375 H 0.31228 0.37915 0.89386 0.0
C2376 C 0.57021 0.71366 0.86065 0.0
C2377 C 0.55091 0.68443 0.86686 0.0
C2378 C 0.5852 0.67586 0.91842 0.0
C2379 C 0.60255 0.70619 0.91305 0.0
N2380 N 0.60464 0.75798 0.88324 0.0
N2381 N 0.53888 0.63929 0.90461 0.0
C2382 C 0.59329 0.72601 0.88518 0.0
C2383 C 0.55853 0.66582 0.89642 0.0
N2384 N 0.56689 0.72997 0.8312 0.0
N2385 N 0.59381 0.6568 0.94521 0.0
H2386 H 0.51858 0.63163 0.89037 0.0
H2387 H 0.5403 0.62657 0.92708 0.0
H2388 H 0.61012 0.66513 0.96358 0.0
H2389 H 0.58615 0.63235 0.94869 0.0
H2390 H 0.5834 0.74817 0.82305 0.0
H2391 H 0.54847 0.72417 0.81419 0.0
H2392 H 0.59662 0.775 0.86541 0.0
H2393 H 0.6194 0.76882 0.90165 0.0
C2394 C 0.05256 0.87815 0.15473 0.0
C2395 C 0.04526 0.85958 0.18441 0.0
C2396 C 0.08257 0.81513 0.16206 0.0
C2397 C 0.09337 0.83557 0.13529 0.0
N2398 N 0.08828 0.88759 0.10653 0.0
N2399 N 0.0613 0.81247 0.21809 0.0
C2400 C 0.0783 0.86745 0.13194 0.0
C2401 C 0.0627 0.82876 0.18855 0.0
N2402 N 0.03372 0.90553 0.14729 0.0
N2403 N 0.08977 0.78193 0.16156 0.0
H2404 H 0.04601 0.82034 0.23715 0.0
H2405 H 0.07669 0.79243 0.22412 0.0
H2406 H 0.10101 0.77035 0.14124 0.0
H2407 H 0.08145 0.76529 0.17952 0.0
H2408 H 0.03496 0.91815 0.12474 0.0
H2409 H 1.01405 0.91363 0.16204 0.0
H2410 H 0.08212 0.9127 0.10486 0.0
H2411 H 0.10446 0.87953 0.08792 0.0
C2412 C 0.48944 0.16356 0.64685 0.0
C2413 C 0.49576 0.18124 0.67724 0.0
C2414 C 0.45363 0.22296 0.65824 0.0
C2415 C 0.44506 0.20364 0.6298 0.0
N2416 N 0.45318 0.15301 0.59928 0.0
N2417 N 0.47723 0.22526 0.71372 0.0
C2418 C 0.46251 0.17316 0.62494 0.0
C2419 C 0.47559 0.20995 0.68358 0.0
N2420 N 0.51049 0.13836 0.63779 0.0
N2421 N 0.44322 0.25523 0.65974 0.0
H2422 H 0.49435 0.21829 0.73169 0.0
H2423 H 0.46043 0.24354 0.72133 0.0
H2424 H 0.43109 0.26668 0.63982 0.0
H2425 H 0.45026 0.2717 0.67849 0.0
H2426 H 0.50983 0.12675 0.61463 0.0
H2427 H 0.53123 0.13153 0.65186 0.0
H2428 H 0.46156 0.12866 0.59628 0.0
H2429 H 0.43474 0.15997 0.58247 0.0
C2430 C 0.95752 0.32206 0.3826 0.0
C2431 C 0.95152 0.34089 0.41196 0.0
C2432 C 0.99816 0.37798 0.39525 0.0
C2433 C 1.00189 0.36122 0.36389 0.0
N2434 N 0.97952 0.31947 0.32676 0.0
N2435 N 0.96536 0.38852 0.44528 0.0
C2436 C 0.97964 0.33419 0.35722 0.0
C2437 C 0.97159 0.36943 0.41783 0.0
N2438 N 0.94435 0.29086 0.38009 0.0
N2439 N 1.02144 0.40099 0.40453 0.0
H2440 H 0.94782 0.38196 0.46318 0.0
H2441 H 0.97581 0.41187 0.44925 0.0
H2442 H 0.0421 0.40664 0.39002 0.0
H2443 H 1.02264 0.41169 0.4281 0.0
H2444 H 0.94938 0.27458 0.36056 0.0
H2445 H 0.93154 0.2797 0.39962 0.0
H2446 H 0.96094 0.30322 0.31878 0.0
H2447 H 0.99742 0.3245 0.30909 0.0
C2448 C 0.21255 0.13884 0.39906 0.0
C2449 C 0.24262 0.1364 0.38107 0.0
C2450 C 0.22744 0.18824 0.35146 0.0
C2451 C 0.19445 0.18644 0.36397 0.0
N2452 N 0.15652 0.1617 0.40321 0.0
N2453 N 0.28486 0.17291 0.35982 0.0
C2454 C 0.18747 0.16251 0.38928 0.0
C2455 C 0.25204 0.16552 0.36327 0.0
N2456 N 0.21038 0.12225 0.42834 0.0
N2457 N 0.23509 0.20973 0.32633 0.0
H2458 H 0.30323 0.15761 0.3695 0.0
H2459 H 0.29337 0.19557 0.35057 0.0
H2460 H 0.21823 0.22685 0.31652 0.0
H2461 H 0.25768 0.20873 0.31357 0.0
H2462 H 0.19068 0.12497 0.44497 0.0
H2463 H 0.23108 0.10956 0.43758 0.0
H2464 H 0.1486 0.14256 0.41874 0.0
H2465 H 0.13846 0.17973 0.39807 0.0
C2466 C 0.34362 0.91183 0.85517 0.0
C2467 C 0.31607 0.91664 0.87728 0.0
C2468 C 0.32735 0.86067 0.90018 0.0
C2469 C 0.35499 0.85608 0.87842 0.0
N2470 N 0.39413 0.88138 0.84095 0.0
N2471 N 0.29253 0.9003 0.92932 0.0
C2472 C 0.36444 0.88285 0.8575 0.0
C2473 C 0.31109 0.89241 0.9023 0.0
N2474 N 0.34999 0.93536 0.83169 0.0
N2475 N 0.31623 0.83441 0.91859 0.0
H2476 H 0.28412 0.92436 0.93332 0.0
H2477 H 0.28936 0.88424 0.94927 0.0
H2478 H 0.3267 0.81069 0.91693 0.0
H2479 H 0.29479 0.83528 0.93307 0.0
H2480 H 0.36602 0.93181 0.81165 0.0
H2481 H 0.3383 0.95841 0.83221 0.0
H2482 H 0.40449 0.9015 0.82844 0.0
H2483 H 0.40989 0.86074 0.84185 0.0
C2484 C 0.74911 0.37654 0.67905 0.0
C2485 C 0.7378 0.4057 0.66228 0.0
C2486 C 0.68275 0.37886 0.65692 0.0
C2487 C 0.69219 0.35415 0.6806 0.0
N2488 N 0.7357 0.3298 0.71432 0.0
N2489 N 0.70247 0.41942 0.61685 0.0
C2490 C 0.72594 0.35263 0.69106 0.0
C2491 C 0.70671 0.40292 0.64598 0.0
N2492 N 0.78229 0.37018 0.68097 0.0
N2493 N 0.6507 0.38001 0.64562 0.0
H2494 H 0.72255 0.43182 0.60618 0.0
H2495 H 0.68173 0.41642 0.60147 0.0
H2496 H 0.63312 0.362 0.65196 0.0
H2497 H 0.6415 0.39958 0.63126 0.0
H2498 H 0.7922 0.34772 0.68941 0.0
H2499 H 0.79949 0.38599 0.67038 0.0
H2500 H 0.75882 0.33072 0.7262 0.0
H2501 H 0.72 0.31132 0.7234 0.0
C2502 C 0.79428 0.66954 0.18297 0.0
C2503 C 0.80523 0.64007 0.16664 0.0
C2504 C 0.86053 0.66593 0.16107 0.0
C2505 C 0.85154 0.69087 0.18467 0.0
N2506 N 0.8084 0.71634 0.21799 0.0
N2507 N 0.84027 0.62484 0.12159 0.0
C2508 C 0.81779 0.6932 0.19488 0.0
C2509 C 0.83626 0.64207 0.15035 0.0
N2510 N 0.76115 0.67625 0.18474 0.0
N2511 N 0.89252 0.6643 0.1498 0.0
H2512 H 0.81999 0.61256 0.11102 0.0
H2513 H 0.86106 0.62711 0.1063 0.0
H2514 H 0.91028 0.68226 0.15594 0.0
H2515 H 0.90147 0.64449 0.13561 0.0
H2516 H 0.75149 0.69886 0.19305 0.0
H2517 H 0.74378 0.66055 0.17405 0.0
H2518 H 0.78523 0.71594 0.22967 0.0
H2519 H 0.82437 0.73462 0.22713 0.0
C2520 C 0.36044 0.22928 0.19379 0.0
C2521 C 0.35469 0.19479 0.18914 0.0
C2522 C 0.36426 0.20205 0.12898 0.0
C2523 C 0.37131 0.23674 0.13288 0.0
N2524 N 0.37951 0.28183 0.17186 0.0
N2525 N 0.36314 0.1472 0.15422 0.0
C2526 C 0.37128 0.24951 0.16634 0.0
C2527 C 0.36158 0.18094 0.15745 0.0
N2528 N 0.35281 0.24342 0.22376 0.0
N2529 N 0.3562 0.18952 0.0984 0.0
H2530 H 0.36063 0.13145 0.17472 0.0
H2531 H 0.37024 0.1355 0.13216 0.0
H2532 H 0.35612 0.20384 0.07685 0.0
H2533 H 0.34697 0.16553 0.09494 0.0
H2534 H 0.3514 0.26898 0.22776 0.0
H2535 H 0.34616 0.22948 0.24451 0.0
H2536 H 0.38403 0.29186 0.19535 0.0
H2537 H 0.38468 0.29787 0.15261 0.0
C2538 C 0.14318 0.83 0.69041 0.0
C2539 C 0.17214 0.84922 0.69786 0.0
C2540 C 0.20155 0.81748 0.65448 0.0
C2541 C 0.17112 0.80302 0.6425 0.0
N2542 N 0.11194 0.79806 0.64983 0.0
N2543 N 0.2274 0.86516 0.68066 0.0
C2544 C 0.14163 0.81044 0.66057 0.0
C2545 C 0.20091 0.84405 0.67814 0.0
N2546 N 0.11782 0.82862 0.713 0.0
N2547 N 0.23157 0.80538 0.64415 0.0
H2548 H 0.22765 0.8857 0.69651 0.0
H2549 H 0.24763 0.86411 0.66445 0.0
H2550 H 0.23376 0.78862 0.62462 0.0
H2551 H 0.25406 0.81191 0.65547 0.0
H2552 H 0.09763 0.8125 0.71075 0.0
H2553 H 0.11894 0.84061 0.73601 0.0
H2554 H 0.0893 0.80559 0.6598 0.0
H2555 H 0.10991 0.78239 0.6293 0.0
C2556 C 0.85984 0.36777 0.88449 0.0
C2557 C 0.85234 0.35246 0.85358 0.0
C2558 C 0.87167 0.29935 0.87768 0.0
C2559 C 0.87078 0.31297 0.91064 0.0
N2560 N 0.85967 0.36171 0.94425 0.0
N2561 N 0.85135 0.3025 0.82072 0.0
C2562 C 0.86438 0.34784 0.91361 0.0
C2563 C 0.85926 0.31807 0.84991 0.0
N2564 N 0.86065 0.40164 0.88619 0.0
N2565 N 0.8829 0.26779 0.87294 0.0
H2566 H 0.84328 0.31535 0.79969 0.0
H2567 H 0.85107 0.27674 0.8179 0.0
H2568 H 0.89001 0.25291 0.89272 0.0
H2569 H 0.88771 0.25757 0.8496 0.0
H2570 H 0.86841 0.4146 0.90731 0.0
H2571 H 0.85686 0.41632 0.86511 0.0
H2572 H 0.85134 0.38602 0.94775 0.0
H2573 H 0.86221 0.34828 0.96622 0.0
C2574 C 0.67348 0.68326 0.38387 0.0
C2575 C 0.68327 0.69697 0.35301 0.0
C2576 C 0.66829 0.75226 0.37551 0.0
C2577 C 0.66639 0.73936 0.40883 0.0
N2578 N 0.6765 0.69071 0.44312 0.0
N2579 N 0.68975 0.74572 0.31925 0.0
C2580 C 0.67074 0.70417 0.41251 0.0
C2581 C 0.6796 0.73173 0.34848 0.0
N2582 N 0.66955 0.64967 0.38635 0.0
N2583 N 0.66173 0.78499 0.36993 0.0
H2584 H 0.6969 0.73164 0.2987 0.0
H2585 H 0.69274 0.7712 0.31582 0.0
H2586 H 0.65621 0.80117 0.38908 0.0
H2587 H 0.65874 0.79527 0.34633 0.0
H2588 H 0.66041 0.63824 0.40774 0.0
H2589 H 0.67228 0.63404 0.36572 0.0
H2590 H 0.6839 0.66607 0.44658 0.0
H2591 H 0.67646 0.70476 0.46481 0.0
C2592 C 0.19212 0.3952 0.22058 0.0
C2593 C 0.19675 0.37492 0.19178 0.0
C2594 C 0.13969 0.35317 0.19998 0.0
C2595 C 0.13506 0.3737 0.22876 0.0
N2596 N 0.15251 0.42352 0.25619 0.0
N2597 N 0.17134 0.3403 0.14993 0.0
C2598 C 0.16005 0.39741 0.23614 0.0
C2599 C 0.16948 0.35543 0.18036 0.0
N2600 N 0.21866 0.41209 0.23354 0.0
N2601 N 0.11511 0.33144 0.19118 0.0
H2602 H 0.19256 0.3411 0.13505 0.0
H2603 H 0.15115 0.32898 0.13821 0.0
H2604 H 0.09151 0.3325 0.20182 0.0
H2605 H 0.1182 0.31225 0.17403 0.0
H2606 H 0.21768 0.42496 0.25601 0.0
H2607 H 0.24255 0.41052 0.22345 0.0
H2608 H 0.16887 0.443 0.2609 0.0
H2609 H 0.12829 0.42779 0.26403 0.0
C2610 C 0.69816 0.18214 0.81237 0.0
C2611 C 0.69496 0.19 0.84655 0.0
C2612 C 0.63389 0.18463 0.84149 0.0
C2613 C 0.63618 0.17608 0.8069 0.0
N2614 N 0.67284 0.16746 0.75992 0.0
N2615 N 0.6612 0.18884 0.89546 0.0
C2616 C 0.66914 0.17422 0.79284 0.0
C2617 C 0.66327 0.18737 0.8616 0.0
N2618 N 0.72885 0.18512 0.79789 0.0
N2619 N 0.60392 0.19394 0.85466 0.0
H2620 H 0.68237 0.19128 0.91045 0.0
H2621 H 0.63924 0.18417 0.90843 0.0
H2622 H 0.58177 0.1937 0.84117 0.0
H2623 H 0.60143 0.20457 0.87819 0.0
H2624 H 0.73318 0.18481 0.7724 0.0
H2625 H 0.75053 0.18919 0.81164 0.0
H2626 H 0.69523 0.16102 0.74862 0.0
H2627 H 0.65286 0.16657 0.74398 0.0
C2628 C 0.85424 0.89878 0.32794 0.0
C2629 C 0.8467 0.87693 0.35474 0.0
C2630 C 0.8992 0.84721 0.34322 0.0
C2631 C 0.90891 0.87124 0.31815 0.0
N2632 N 0.89696 0.92538 0.29522 0.0
N2633 N 0.86808 0.83693 0.39379 0.0
C2634 C 0.88686 0.8987 0.3132 0.0
C2635 C 0.87096 0.85319 0.36408 0.0
N2636 N 0.82984 0.91927 0.31588 0.0
N2637 N 0.91572 0.81763 0.34708 0.0
H2638 H 0.84827 0.84069 0.41012 0.0
H2639 H 0.88717 0.82236 0.40379 0.0
H2640 H 0.93775 0.8109 0.33547 0.0
H2641 H 0.90601 0.79809 0.36105 0.0
H2642 H 0.83276 0.934 0.29485 0.0
H2643 H 0.80549 0.91903 0.3249 0.0
H2644 H 0.88294 0.947 0.29292 0.0
H2645 H 0.92075 0.92731 0.28573 0.0
C2646 C 0.41459 0.69775 0.70496 0.0
C2647 C 0.41766 0.67575 0.73271 0.0
C2648 C 0.36358 0.6512 0.7173 0.0
C2649 C 0.36073 0.67305 0.68963 0.0
N2650 N 0.38741 0.71175 0.65268 0.0
N2651 N 0.40094 0.62327 0.75529 0.0
C2652 C 0.38736 0.69485 0.6822 0.0
C2653 C 0.39384 0.65004 0.73603 0.0
N2654 N 0.43828 0.72141 0.70017 0.0
N2655 N 0.33706 0.63188 0.72612 0.0
H2656 H 0.4242 0.62026 0.766 0.0
H2657 H 0.38562 0.6025 0.75681 0.0
H2658 H 0.31439 0.63238 0.71333 0.0
H2659 H 0.33649 0.61782 0.74786 0.0
H2660 H 0.43566 0.74151 0.68404 0.0
H2661 H 0.46067 0.7206 0.71304 0.0
H2662 H 0.4078 0.72502 0.64385 0.0
H2663 H 0.36786 0.71058 0.63557 0.0
C2664 C 0.81302 0.89048 0.64658 0.0
C2665 C 0.82092 0.91558 0.67009 0.0
C2666 C 0.86899 0.88063 0.6884 0.0
C2667 C 0.85684 0.85344 0.66931 0.0
N2668 N 0.81444 0.83176 0.63267 0.0
N2669 N 0.85996 0.93607 0.71069 0.0
C2670 C 0.82799 0.85825 0.64915 0.0
C2671 C 0.85003 0.91091 0.6902 0.0
N2672 N 0.79331 0.89797 0.62013 0.0
N2673 N 0.89948 0.87813 0.70352 0.0
H2674 H 0.8501 0.95993 0.70849 0.0
H2675 H 0.87751 0.93339 0.72962 0.0
H2676 H 0.91385 0.85651 0.70295 0.0
H2677 H 0.91172 0.89802 0.71472 0.0
H2678 H 0.78915 0.88157 0.60051 0.0
H2679 H 0.78521 0.92203 0.61572 0.0
H2680 H 0.79196 0.83307 0.61971 0.0
H2681 H 0.82404 0.80769 0.63458 0.0
C2682 C 0.70012 0.13442 0.18146 0.0
C2683 C 0.73475 0.1357 0.17265 0.0
C2684 C 0.72749 0.19651 0.16254 0.0
C2685 C 0.69304 0.1946 0.16985 0.0
N2686 N 0.64536 0.16071 0.18194 0.0
N2687 N 0.78204 0.17303 0.16986 0.0
C2688 C 0.67911 0.16325 0.17815 0.0
C2689 C 0.74856 0.16815 0.16715 0.0
N2690 N 0.6877 0.10631 0.19593 0.0
N2691 N 0.74033 0.22545 0.15017 0.0
H2692 H 0.79862 0.15394 0.17427 0.0
H2693 H 0.79308 0.19645 0.17084 0.0
H2694 H 0.72637 0.24723 0.14765 0.0
H2695 H 0.76413 0.22707 0.13998 0.0
H2696 H 0.66445 0.10507 0.2073 0.0
H2697 H 0.7016 0.08465 0.19887 0.0
H2698 H 0.63283 0.13809 0.18317 0.0
H2699 H 0.62948 0.1813 0.18164 0.0
C2700 C 0.35425 0.67215 0.38916 0.0
C2701 C 0.34724 0.69338 0.36163 0.0
C2702 C 0.29111 0.66895 0.35928 0.0
C2703 C 0.30148 0.64221 0.3802 0.0
N2704 N 0.32995 0.63727 0.43178 0.0
N2705 N 0.30697 0.71295 0.32144 0.0
C2706 C 0.32975 0.64868 0.40007 0.0
C2707 C 0.31473 0.6927 0.34762 0.0
N2708 N 0.38466 0.6736 0.40429 0.0
N2709 N 0.25813 0.67305 0.35261 0.0
H2710 H 0.32301 0.73128 0.31266 0.0
H2711 H 0.28531 0.71021 0.30731 0.0
H2712 H 0.24038 0.65705 0.36226 0.0
H2713 H 0.24834 0.69391 0.34067 0.0
H2714 H 0.3923 0.65632 0.42211 0.0
H2715 H 0.40245 0.69137 0.39786 0.0
H2716 H 0.34804 0.644 0.4492 0.0
H2717 H 0.30934 0.62465 0.44118 0.0
C2718 C 0.22129 0.35975 0.89653 0.0
C2719 C 0.19357 0.35367 0.87509 0.0
C2720 C 0.20332 0.40877 0.84964 0.0
C2721 C 0.23122 0.41483 0.8711 0.0
N2722 N 0.25611 0.40097 0.92347 0.0
N2723 N 0.1537 0.3764 0.83646 0.0
C2724 C 0.23713 0.39174 0.89706 0.0
C2725 C 0.18338 0.37932 0.85301 0.0
N2726 N 0.23305 0.33456 0.91613 0.0
N2727 N 0.19548 0.43189 0.82613 0.0
H2728 H 0.13859 0.35541 0.83813 0.0
H2729 H 0.14271 0.3956 0.82295 0.0
H2730 H 0.2059 0.4555 0.82675 0.0
H2731 H 0.17922 0.42771 0.80633 0.0
H2732 H 0.25463 0.33646 0.93038 0.0
H2733 H 0.22299 0.31064 0.91569 0.0
H2734 H 0.25913 0.38626 0.94452 0.0
H2735 H 0.26537 0.42491 0.92583 0.0
C2736 C 0.69249 0.84354 0.91033 0.0
C2737 C 0.68548 0.80871 0.90795 0.0
C2738 C 0.69533 0.81289 0.84676 0.0
C2739 C 0.70198 0.84736 0.84987 0.0
N2740 N 0.69705 0.89701 0.88246 0.0
N2741 N 0.67822 0.76107 0.87195 0.0
C2742 C 0.69681 0.86308 0.88095 0.0
C2743 C 0.68549 0.79397 0.87538 0.0
N2744 N 0.69811 0.85769 0.94074 0.0
N2745 N 0.70109 0.79765 0.81686 0.0
H2746 H 0.67424 0.74586 0.8922 0.0
H2747 H 0.67365 0.74936 0.8493 0.0
H2748 H 0.70691 0.81085 0.79534 0.0
H2749 H 0.70163 0.77202 0.81335 0.0
H2750 H 0.70782 0.88152 0.94385 0.0
H2751 H 0.69509 0.84487 0.96296 0.0
H2752 H 0.69051 0.91033 0.90374 0.0
H2753 H 0.70045 0.91166 0.86129 0.0
C2754 C 0.85713 0.22578 0.35377 0.0
C2755 C 0.85751 0.19082 0.35877 0.0
C2756 C 0.87103 0.20026 0.41789 0.0
C2757 C 0.87288 0.23545 0.41317 0.0
N2758 N 0.87072 0.28084 0.37378 0.0
N2759 N 0.87564 0.14541 0.39311 0.0
C2760 C 0.86776 0.24768 0.37997 0.0
C2761 C 0.86869 0.17849 0.3899 0.0
N2762 N 0.8437 0.23845 0.32515 0.0
N2763 N 0.86828 0.18736 0.44917 0.0
H2764 H 0.87399 0.129 0.37299 0.0
H2765 H 0.88622 0.13532 0.41459 0.0
H2766 H 0.86935 0.20192 0.47052 0.0
H2767 H 0.86264 0.16247 0.45367 0.0
H2768 H 0.83801 0.26351 0.32182 0.0
H2769 H 0.83593 0.2237 0.3053 0.0
H2770 H 0.87146 0.29097 0.34995 0.0
H2771 H 0.87547 0.29792 0.39245 0.0
C2772 C 0.17889 0.69249 0.12474 0.0
C2773 C 0.1732 0.72703 0.13071 0.0
C2774 C 0.18757 0.71697 0.19008 0.0
C2775 C 0.192 0.68244 0.18387 0.0
N2776 N 0.17877 0.63668 0.14757 0.0
N2777 N 0.16272 0.76885 0.17242 0.0
C2778 C 0.18265 0.6701 0.15204 0.0
C2779 C 0.17379 0.73786 0.16461 0.0
N2780 N 0.18334 0.68106 0.09309 0.0
N2781 N 0.19916 0.73078 0.21894 0.0
H2782 H 0.15376 0.78487 0.15431 0.0
H2783 H 0.15955 0.77714 0.1968 0.0
H2784 H 0.2103 0.71705 0.23787 0.0
H2785 H 0.20034 0.75639 0.22283 0.0
H2786 H 0.1916 0.65702 0.08781 0.0
H2787 H 0.1807 0.6962 0.0723 0.0
H2788 H 0.16982 0.62644 0.12542 0.0
H2789 H 0.18117 0.61987 0.16723 0.0
C2790 C 0.35979 0.36623 0.65825 0.0
C2791 C 0.37051 0.35331 0.6893 0.0
C2792 C 0.37492 0.2977 0.66354 0.0
C2793 C 0.36711 0.31071 0.63122 0.0
N2794 N 0.33773 0.35543 0.60338 0.0
N2795 N 0.39373 0.30749 0.72012 0.0
C2796 C 0.35568 0.34457 0.63017 0.0
C2797 C 0.3798 0.31935 0.69139 0.0
N2798 N 0.35443 0.39968 0.65515 0.0
N2799 N 0.37328 0.26434 0.66908 0.0
H2800 H 0.39618 0.3218 0.74167 0.0
H2801 H 0.40504 0.28418 0.7218 0.0
H2802 H 0.36654 0.24773 0.65071 0.0
H2803 H 0.37446 0.25357 0.69262 0.0
H2804 H 0.35121 0.41146 0.63229 0.0
H2805 H 0.3557 0.4161 0.67525 0.0
H2806 H 0.32468 0.37785 0.60288 0.0
H2807 H 0.33348 0.34075 0.58256 0.0
C2808 C 0.87913 0.66247 0.79983 0.0
C2809 C 0.90949 0.67635 0.81196 0.0
C2810 C 0.88013 0.68719 0.86559 0.0
C2811 C 0.85222 0.66853 0.85438 0.0
N2812 N 0.82821 0.63302 0.81218 0.0
N2813 N 0.93725 0.70523 0.85685 0.0
C2814 C 0.85307 0.65394 0.82222 0.0
C2815 C 0.90938 0.68967 0.8451 0.0
N2816 N 0.87249 0.66266 0.76661 0.0
N2817 N 0.87843 0.70299 0.89572 0.0
H2818 H 0.95821 0.70888 0.84223 0.0
H2819 H 0.9408 0.71252 0.88144 0.0
H2820 H 0.85813 0.70062 0.91171 0.0
H2821 H 0.89597 0.71995 0.90435 0.0
H2822 H 0.85015 0.65426 0.75635 0.0
H2823 H 0.88605 0.67762 0.75064 0.0
H2824 H 0.8297 0.61918 0.79024 0.0
H2825 H 0.80743 0.62772 0.82676 0.0
C2826 C 0.352 0.86092 0.2216 0.0
C2827 C 0.35073 0.8396 0.19349 0.0
C2828 C 0.41217 0.84071 0.19083 0.0
C2829 C 0.41367 0.86058 0.22031 0.0
N2830 N 0.38449 0.90074 0.25278 0.0
N2831 N 0.3788 0.81771 0.14553 0.0
C2832 C 0.3833 0.87409 0.23232 0.0
C2833 C 0.38065 0.83254 0.17608 0.0
N2834 N 0.32356 0.86768 0.23894 0.0
N2835 N 0.44095 0.82803 0.17794 0.0
H2836 H 0.35608 0.81152 0.13442 0.0
H2837 H 0.39924 0.81443 0.12995 0.0
H2838 H 0.46431 0.83448 0.1872 0.0
H2839 H 0.44171 0.81013 0.15921 0.0
H2840 H 0.32358 0.87992 0.26183 0.0
H2841 H 0.30015 0.85929 0.23137 0.0
H2842 H 0.36361 0.91375 0.26109 0.0
H2843 H 0.40712 0.91238 0.2561 0.0
C2844 C 0.20019 0.1766 0.73719 0.0
C2845 C 0.19984 0.1934 0.70649 0.0
C2846 C 0.13831 0.19168 0.70744 0.0
C2847 C 0.13885 0.18063 0.74133 0.0
N2848 N 0.17397 0.17524 0.79031 0.0
N2849 N 0.16839 0.21779 0.66178 0.0
C2850 C 0.17075 0.17571 0.75661 0.0
C2851 C 0.16879 0.2005 0.69104 0.0
N2852 N 0.22932 0.16352 0.749 0.0
N2853 N 0.10847 0.19559 0.69145 0.0
H2854 H 0.19008 0.22359 0.6488 0.0
H2855 H 0.14693 0.22786 0.65119 0.0
H2856 H 0.08569 0.1918 0.70313 0.0
H2857 H 0.10622 0.20019 0.66606 0.0
H2858 H 0.23038 0.14895 0.77045 0.0
H2859 H 0.25142 0.16448 0.73537 0.0
H2860 H 0.19695 0.17547 0.80251 0.0
H2861 H 0.1539 0.1782 0.80594 0.0
C2862 C 0.66958 0.38155 0.30074 0.0
C2863 C 0.64162 0.36291 0.31209 0.0
C2864 C 0.67382 0.35061 0.36385 0.0
C2865 C 0.70006 0.37174 0.35348 0.0
N2866 N 0.72047 0.41142 0.31342 0.0
N2867 N 0.62675 0.3168 0.34809 0.0
C2868 C 0.69691 0.38873 0.32256 0.0
C2869 C 0.64634 0.3439 0.342 0.0
N2870 N 0.67328 0.38696 0.26754 0.0
N2871 N 0.67431 0.3378 0.39534 0.0
H2872 H 0.60769 0.30891 0.33238 0.0
H2873 H 0.63165 0.29975 0.36699 0.0
H2874 H 0.69402 0.34152 0.41191 0.0
H2875 H 0.65386 0.32603 0.40605 0.0
H2876 H 0.69401 0.39838 0.25701 0.0
H2877 H 0.65903 0.37402 0.25036 0.0
H2878 H 0.7171 0.42777 0.29356 0.0
H2879 H 0.74237 0.41539 0.32686 0.0
C2880 C 0.98332 0.33066 0.21816 0.0
C2881 C 1.01577 0.31778 0.22459 0.0
C2882 C 1.01636 0.29315 0.16839 0.0
C2883 C 0.98679 0.31107 0.16035 0.0
N2884 N 0.94053 0.34502 0.17779 0.0
N2885 N 0.05776 0.2777 0.21037 0.0
C2886 C 0.96924 0.32831 0.18566 0.0
C2887 C 0.03042 0.29577 0.20118 0.0
N2888 N 0.96602 0.34536 0.2434 0.0
N2889 N 0.03191 0.27538 0.14392 0.0
H2890 H 0.06831 0.27965 0.23402 0.0
H2891 H 0.06881 0.2595 0.19563 0.0
H2892 H 1.02132 0.27218 0.12036 0.0
H2893 H 0.0553 0.26447 0.14643 0.0
H2894 H 0.94094 0.35186 0.24206 0.0
H2895 H 0.97644 0.34929 0.26674 0.0
H2896 H 0.92897 0.36219 0.19337 0.0
H2897 H 0.92875 0.3428 0.15474 0.0
C2898 C 0.52683 0.76389 0.6774 0.0
C2899 C 0.55526 0.74572 0.66645 0.0
C2900 C 0.5616 0.72268 0.72279 0.0
C2901 C 0.52965 0.73532 0.73174 0.0
N2902 N 0.48835 0.77769 0.72234 0.0
N2903 N 0.60126 0.70939 0.67921 0.0
C2904 C 0.51454 0.75944 0.71068 0.0
C2905 C 0.57369 0.72648 0.68967 0.0
N2906 N 0.5104 0.78363 0.65506 0.0
N2907 N 0.58046 0.70695 0.74631 0.0
H2908 H 0.61166 0.71258 0.65569 0.0
H2909 H 0.61302 0.69093 0.69311 0.0
H2910 H 0.5718 0.70264 0.77025 0.0
H2911 H 0.60534 0.70035 0.74303 0.0
H2912 H 0.48741 0.79475 0.65948 0.0
H2913 H 0.51978 0.7882 0.6313 0.0
H2914 H 0.47761 0.79756 0.70966 0.0
H2915 H 0.47839 0.77394 0.74588 0.0
C2916 C 0.4712 0.22032 0.85582 0.0
C2917 C 0.49066 0.23674 0.88022 0.0
C2918 C 0.53416 0.24695 0.83778 0.0
C2919 C 0.51697 0.22575 0.81514 0.0
N2920 N 0.4652 0.19763 0.80146 0.0
N2921 N 0.53873 0.26926 0.89431 0.0
C2922 C 0.48432 0.21477 0.82357 0.0
C2923 C 0.52134 0.25174 0.87086 0.0
N2924 N 0.44049 0.20808 0.86379 0.0
N2925 N 0.56304 0.26174 0.82782 0.0
H2926 H 0.529 0.27412 0.9179 0.0
H2927 H 0.56256 0.27872 0.89095 0.0
H2928 H 0.57239 0.25881 0.80389 0.0
H2929 H 0.57673 0.27842 0.84211 0.0
H2930 H 0.42573 0.19499 0.84682 0.0
H2931 H 0.42961 0.21152 0.88708 0.0
H2932 H 0.47247 0.19225 0.77716 0.0
H2933 H 0.47247 0.19225 0.77716 0.0
C2934 C 0.03525 0.79815 0.38324 0.0
C2935 C 0.06868 0.78904 0.37651 0.0
C2936 C 0.06389 0.81446 0.32085 0.0
C2937 C 0.02945 0.82089 0.32636 0.0
N2938 N 0.98823 0.8324 0.36856 0.0
N2939 N 0.11446 0.78582 0.33796 0.0
C2940 C 1.01671 0.8165 0.35918 0.0
C2941 C 0.08286 0.79641 0.345 0.0
N2942 N 1.02054 0.78805 0.41218 0.0
N2943 N 0.0795 0.82926 0.29462 0.0
H2944 H 0.12987 0.7745 0.35559 0.0
H2945 H 0.12463 0.7864 0.31415 0.0
H2946 H 0.06754 0.84662 0.27948 0.0
H2947 H 0.1051 0.82816 0.29059 0.0
H2948 H 0.99501 0.78992 0.41649 0.0
H2949 H 0.03329 0.77533 0.43092 0.0
H2950 H 0.97988 0.8337 0.39305 0.0
H2951 H 0.97475 0.84739 0.35249 0.0
C2952 C 0.22281 0.97998 0.31805 0.0
C2953 C 0.22785 1.01443 0.31288 0.0
C2954 C 0.16914 1.01951 0.29557 0.0
C2955 C 0.16271 0.98738 0.30866 0.0
N2956 N 0.1838 0.93611 0.33176 0.0
N2957 N 0.20662 0.06671 0.2926 0.0
C2958 C 0.18977 0.96699 0.31901 0.0
C2959 C 0.20141 0.03396 0.29963 0.0
N2960 N 0.24997 0.95991 0.32215 0.0
N2961 N 0.14413 0.03613 0.27945 0.0
H2962 H 0.23032 0.07704 0.29204 0.0
H2963 H 0.18757 0.08366 0.28772 0.0
H2964 H 0.12049 0.02582 0.2761 0.0
H2965 H 0.14751 0.05849 0.26689 0.0
H2966 H 0.24863 0.9341 0.32384 0.0
H2967 H 0.27412 0.96927 0.31997 0.0
H2968 H 0.20204 0.92169 0.34333 0.0
H2969 H 0.16009 0.92558 0.33243 0.0
C2970 C 0.36047 0.07453 0.82609 0.0
C2971 C 0.38346 0.05542 0.80736 0.0
C2972 C 0.33901 1.01452 0.79515 0.0
C2973 C 0.31794 0.03065 0.8187 0.0
N2974 N 0.30372 0.08288 0.84432 0.0
N2975 N 0.39481 1.00883 0.77172 0.0
C2976 C 0.32722 0.06294 0.83009 0.0
C2977 C 0.37243 0.02633 0.79046 0.0
N2978 N 0.37115 0.10245 0.84241 0.0
N2979 N 0.32726 0.98823 0.77715 0.0
H2980 H 0.41867 1.01781 0.76669 0.0
H2981 H 0.39044 0.98515 0.76222 0.0
H2982 H 0.30373 0.97823 0.78067 0.0
H2983 H 0.33992 0.97747 0.7573 0.0
H2984 H 0.35729 0.11472 0.86055 0.0
H2985 H 0.39482 0.11255 0.83915 0.0
H2986 H 0.30733 0.10791 0.84991 0.0
H2987 H 0.27933 0.07505 0.84744 0.0
C2988 C 0.69938 0.51249 0.74656 0.0
C2989 C 0.72619 0.53094 0.73293 0.0
C2990 C 0.69071 0.58052 0.72911 0.0
C2991 C 0.66303 0.56114 0.73928 0.0
N2992 N 0.6425 0.51279 0.76755 0.0
N2993 N 0.751 0.58418 0.7236 0.0
C2994 C 0.66803 0.52847 0.75156 0.0
C2995 C 0.72297 0.56571 0.72865 0.0
N2996 N 0.70327 0.47934 0.75271 0.0
N2997 N 0.68587 0.6122 0.7178 0.0
H2998 H 0.77469 0.57334 0.72406 0.0
H2999 H 0.75111 0.61005 0.72242 0.0
H3000 H 0.66271 0.62402 0.71845 0.0
H3001 H 0.70437 0.6262 0.70637 0.0
H3002 H 0.68367 0.46331 0.75808 0.0
H3003 H 0.72642 0.46771 0.75192 0.0
H3004 H 0.64493 0.48992 0.77944 0.0
H3005 H 0.61945 0.52426 0.77141 0.0
C3006 C 0.85485 0.46676 0.23071 0.0
C3007 C 0.88133 0.48648 0.24339 0.0
C3008 C 0.84256 0.53337 0.25136 0.0
C3009 C 0.81682 0.51462 0.23577 0.0
N3010 N 0.79502 0.46074 0.22244 0.0
N3011 N 0.89823 0.5338 0.2757 0.0
C3012 C 0.82191 0.48021 0.22975 0.0
C3013 C 0.87425 0.51817 0.25727 0.0
N3014 N 0.86151 0.43615 0.21748 0.0
N3015 N 0.83768 0.56624 0.25837 0.0
H3016 H 0.92148 0.52295 0.28023 0.0
H3017 H 0.89411 0.55568 0.28898 0.0
H3018 H 0.81448 0.57762 0.25681 0.0
H3019 H 0.85679 0.58246 0.26494 0.0
H3020 H 0.84409 0.42225 0.2042 0.0
H3021 H 0.88511 0.42528 0.21837 0.0
H3022 H 0.79625 0.43496 0.22008 0.0
H3023 H 0.77081 0.47038 0.22211 0.0
C3024 C 0.29598 0.21257 0.02361 0.0
C3025 C 0.32098 0.23417 1.01099 0.0
C3026 C 0.32209 0.20149 0.95885 0.0
C3027 C 0.2959 0.18108 0.97057 0.0
N3028 N 0.25419 0.17016 1.01208 0.0
N3029 N 0.3514 0.25373 0.96321 0.0
C3030 C 0.28175 0.1875 1.00241 0.0
C3031 C 0.3321 0.22986 0.97762 0.0
N3032 N 0.28661 0.2152 0.05613 0.0
N3033 N 0.3382 0.19323 0.93004 0.0
H3034 H 0.3595 0.27471 0.97601 0.0
H3035 H 0.35701 0.25421 0.93792 0.0
H3036 H 0.33161 0.17271 0.91552 0.0
H3037 H 0.36001 0.2048 0.92217 0.0
H3038 H 0.2717 0.19781 0.06814 0.0
H3039 H 0.2954 0.23392 0.07177 0.0
H3040 H 0.24033 0.17599 0.03317 0.0
H3041 H 0.2438 0.15117 0.99771 0.0
C3042 C 0.79891 0.34493 0.99976 0.0
C3043 C 0.81263 0.3204 1.02119 0.0
C3044 C 0.79617 0.35526 0.06904 0.0
C3045 C 0.78656 0.38119 0.04698 0.0
N3046 N 0.78921 0.40367 0.99151 0.0
N3047 N 0.83044 0.30611 0.07691 0.0
C3048 C 0.79169 0.37698 1.01241 0.0
C3049 C 0.81324 0.32679 0.05609 0.0
N3050 N 0.79127 0.33751 0.96761 0.0
N3051 N 0.78795 0.35695 0.10193 0.0
H3052 H 0.84294 0.28498 0.06853 0.0
H3053 H 0.83446 0.31151 0.10197 0.0
H3054 H 0.77535 0.37715 0.11229 0.0
H3055 H 0.79134 0.33711 0.11828 0.0
H3056 H 0.77918 0.35405 0.95164 0.0
H3057 H 0.79252 0.31347 0.95867 0.0
H3058 H 0.79486 0.40231 0.96624 0.0
H3059 H 0.78497 0.42779 1.00024 0.0
C3060 C 0.73841 0.70445 0.49915 0.0
C3061 C 0.72252 0.72796 0.52025 0.0
C3062 C 0.73685 0.6917 0.56809 0.0
C3063 C 0.74914 0.66684 0.54602 0.0
N3064 N 0.75391 0.6476 0.48923 0.0
N3065 N 0.70172 0.74042 0.57526 0.0
C3066 C 0.74673 0.67252 0.51123 0.0
C3067 C 0.72008 0.72038 0.55487 0.0
N3068 N 0.74678 0.7117 0.46729 0.0
N3069 N 0.7427 0.68912 0.60148 0.0
H3070 H 0.69039 0.76225 0.56701 0.0
H3071 H 0.69589 0.73414 0.5997 0.0
H3072 H 0.75504 0.66894 0.61214 0.0
H3073 H 0.73766 0.70828 0.61823 0.0
H3074 H 0.74466 0.73534 0.457 0.0
H3075 H 0.74466 0.73534 0.457 0.0
H3076 H 0.75271 0.65102 0.46349 0.0
H3077 H 0.75869 0.62323 0.49688 0.0
C3078 C 0.23202 0.85431 0.54615 0.0
C3079 C 0.23588 0.82154 0.53313 0.0
C3080 C 0.26646 0.84623 0.48561 0.0
C3081 C 0.26038 0.87867 0.49834 0.0
N3082 N 0.23511 0.91374 0.53978 0.0
N3083 N 0.25687 0.7868 0.48918 0.0
C3084 C 0.24192 0.88259 0.52787 0.0
C3085 C 0.2532 0.81774 0.50241 0.0
N3086 N 0.22071 0.85947 0.57736 0.0
N3087 N 0.28624 0.84271 0.45816 0.0
H3088 H 0.25161 0.76578 0.50297 0.0
H3089 H 0.26478 0.78199 0.46501 0.0
H3090 H 0.29463 0.86305 0.44443 0.0
H3091 H 0.29538 0.82003 0.4496 0.0
H3092 H 0.21607 0.84008 0.59367 0.0
H3093 H 0.21607 0.84008 0.59367 0.0
H3094 H 0.22182 0.91776 0.56173 0.0
H3095 H 0.24154 0.93536 0.52695 0.0
C3096 C 0.05989 0.71438 0.82609 0.0
C3097 C 0.02825 0.72816 0.81791 0.0
C3098 C 0.02682 0.75489 0.87319 0.0
C3099 C 0.05416 0.73476 0.88338 0.0
N3100 N 0.09831 0.69664 0.8693 0.0
N3101 N 0.98429 0.76664 0.83127 0.0
C3102 C 0.07174 0.71564 0.85949 0.0
C3103 C 1.01296 0.75076 0.84046 0.0
N3104 N 0.07821 0.69931 0.80175 0.0
N3105 N 1.0139 0.7773 0.89527 0.0
H3106 H 0.97427 0.76448 0.80747 0.0
H3107 H 0.96979 0.78103 0.84717 0.0
H3108 H 0.02389 0.78046 0.91909 0.0
H3109 H 0.99513 0.79426 0.8896 0.0
H3110 H 0.10276 0.69147 0.8049 0.0
H3111 H 0.06958 0.69714 0.7774 0.0
H3112 H 0.10935 0.67854 0.85438 0.0
H3113 H 0.10845 0.69778 0.89319 0.0
C3114 C 0.49733 0.28581 0.31229 0.0
C3115 C 0.52369 0.30826 0.32046 0.0
C3116 C 0.51294 0.29614 0.38014 0.0
C3117 C 0.48372 0.27859 0.3716 0.0
N3118 N 0.44444 0.26227 0.32929 0.0
N3119 N 0.55369 0.33659 0.36487 0.0
C3120 C 0.47486 0.27511 0.33759 0.0
C3121 C 0.53039 0.31405 0.35517 0.0
N3122 N 0.49386 0.27354 0.28087 0.0
N3123 N 0.52537 0.29436 0.41184 0.0
H3124 H 0.57082 0.34631 0.34861 0.0
H3125 H 0.55546 0.34591 0.38904 0.0
H3126 H 0.51388 0.28113 0.43091 0.0
H3127 H 0.54884 0.30328 0.41848 0.0
H3128 H 0.4772 0.25461 0.2748 0.0
H3129 H 0.50997 0.2791 0.26167 0.0
H3130 H 0.43512 0.26236 0.30504 0.0
H3131 H 0.42709 0.25484 0.34708 0.0
C3132 C 0.53892 0.79164 0.16384 0.0
C3133 C 0.56645 0.81248 0.15656 0.0
C3134 C 0.5689 0.82967 0.21503 0.0
C3135 C 0.53704 0.8153 0.22039 0.0
N3136 N 0.49419 0.77768 0.20224 0.0
N3137 N 0.60975 0.84943 0.17531 0.0
C3138 C 0.52324 0.79396 0.19575 0.0
C3139 C 0.58266 0.83014 0.18246 0.0
N3140 N 0.52741 0.77058 0.1397 0.0
N3141 N 0.58539 0.84389 0.24115 0.0
H3142 H 0.62124 0.84934 0.15206 0.0
H3143 H 0.62002 0.86661 0.19179 0.0
H3144 H 0.57504 0.84533 0.26481 0.0
H3145 H 0.60997 0.85205 0.24007 0.0
H3146 H 0.50842 0.75338 0.14314 0.0
H3147 H 0.53872 0.76883 0.11639 0.0
H3148 H 0.48111 0.76346 0.18499 0.0
H3149 H 0.48238 0.77938 0.22515 0.0
C3150 C 1.02227 0.25328 0.67241 0.0
C3151 C 0.99312 0.23552 0.66306 0.0
C3152 C 0.98702 0.21711 0.72114 0.0
C3153 C 1.01961 0.22881 0.72872 0.0
N3154 N 0.06781 0.25993 0.71193 0.0
N3155 N 0.94713 0.20056 0.6787 0.0
C3156 C 0.03675 0.24822 0.70468 0.0
C3157 C 0.97485 0.21817 0.68771 0.0
N3158 N 0.03627 0.2746 0.65003 0.0
N3159 N 0.96795 0.20421 0.74602 0.0
H3160 H 0.93689 0.2015 0.65485 0.0
H3161 H 0.93529 0.18362 0.69425 0.0
H3162 H 0.97678 0.20178 0.77027 0.0
H3163 H 0.94285 0.19826 0.74328 0.0
H3164 H 0.05598 0.29044 0.65567 0.0
H3165 H 0.02603 0.27848 0.62643 0.0
H3166 H 0.08365 0.27057 0.69448 0.0
H3167 H 0.07836 0.25751 0.73545 0.0
C3168 C 0.84707 1.01819 0.74978 0.0
C3169 C 0.82333 0.03265 0.72763 0.0
C3170 C 0.86256 0.07838 0.71603 0.0
C3171 C 0.88742 0.06199 0.73501 0.0
N3172 N 0.90127 0.02247 0.77747 0.0
N3173 N 0.8043 0.08261 0.70056 0.0
C3174 C 0.87871 0.03408 0.75473 0.0
C3175 C 0.82975 0.06496 0.71469 0.0
N3176 N 0.84028 0.98841 0.76438 0.0
N3177 N 0.87089 0.1055 0.69735 0.0
H3178 H 0.78032 0.07304 0.6984 0.0
H3179 H 0.80623 0.10745 0.69352 0.0
H3180 H 0.89423 0.11679 0.69874 0.0
H3181 H 0.85532 0.11581 0.6793 0.0
H3182 H 0.85715 0.97489 0.77867 0.0
H3183 H 0.81802 0.97602 0.7603 0.0
H3184 H 0.89639 1.00362 0.79446 0.0
H3185 H 0.9244 0.03382 0.78107 0.0
C3186 C 0.71993 0.98401 0.21333 0.0
C3187 C 0.72718 1.01633 0.22581 0.0
C3188 C 0.67217 1.01734 0.25294 0.0
C3189 C 0.66284 0.98867 0.23447 0.0
N3190 N 0.67796 0.94331 0.19831 0.0
N3191 N 0.71227 0.06203 0.26149 0.0
C3192 C 0.68708 0.97104 0.21585 0.0
C3193 C 0.7042 0.0321 0.24761 0.0
N3194 N 0.74454 0.96598 0.19833 0.0
N3195 N 0.64993 0.03056 0.27499 0.0
H3196 H 0.73582 0.07249 0.25896 0.0
H3197 H 0.69571 0.07694 0.27468 0.0
H3198 H 0.62657 1.0199 0.27901 0.0
H3199 H 0.65523 0.05024 0.29097 0.0
H3200 H 0.74234 0.94095 0.19204 0.0
H3201 H 0.76815 0.97564 0.19411 0.0
H3202 H 0.69288 0.93203 0.18038 0.0
H3203 H 0.65456 0.93231 0.20048 0.0
C3204 C 0.38337 0.52137 0.30297 0.0
C3205 C 0.39195 0.49067 0.31842 0.0
C3206 C 0.33314 0.48322 0.33362 0.0
C3207 C 0.32588 0.51659 0.32444 0.0
N3208 N 0.34325 0.56661 0.2969 0.0
N3209 N 0.37481 0.44263 0.34985 0.0
C3210 C 0.35065 0.53523 0.3075 0.0
C3211 C 0.36664 0.47138 0.33358 0.0
N3212 N 0.40667 0.53715 0.284 0.0
N3213 N 0.30763 0.46255 0.34185 0.0
H3214 H 0.39879 0.4326 0.34993 0.0
H3215 H 0.35832 0.42987 0.36517 0.0
H3216 H 0.28302 0.4703 0.34024 0.0
H3217 H 0.31048 0.43714 0.34609 0.0
H3218 H 0.40179 0.55828 0.26985 0.0
H3219 H 0.43051 0.52736 0.28033 0.0
H3220 H 0.36091 0.58351 0.28846 0.0
H3221 H 0.31898 0.57582 0.29691 0.0
C3222 C 0.20427 0.51101 0.78916 0.0
C3223 C 0.22613 0.52797 0.81117 0.0
C3224 C 0.18351 0.57107 0.82046 0.0
C3225 C 0.15984 0.55146 0.80306 0.0
N3226 N 0.14768 0.5049 0.76748 0.0
N3227 N 0.24163 0.58145 0.83245 0.0
C3228 C 0.1705 0.52243 0.78566 0.0
C3229 C 0.21724 0.5604 0.82192 0.0
N3230 N 0.21588 0.48436 0.77158 0.0
N3231 N 0.17344 0.59865 0.83772 0.0
H3232 H 0.26656 0.57469 0.83102 0.0
H3233 H 0.23769 0.60642 0.83819 0.0
H3234 H 0.14918 0.60792 0.83687 0.0
H3235 H 0.18866 0.6112 0.85459 0.0
H3236 H 0.20238 0.47206 0.75321 0.0
H3237 H 0.24012 0.47554 0.77429 0.0
H3238 H 0.15218 0.48166 0.75701 0.0
H3239 H 0.12346 0.51361 0.76348 0.0
C3240 C 0.75373 0.841 1.01103 0.0
C3241 C 0.73367 0.81733 0.0279 0.0
C3242 C 0.72475 0.85758 0.07345 0.0
C3243 C 0.74245 0.88199 0.05526 0.0
N3244 N 0.78131 0.89502 1.01201 0.0
N3245 N 0.70809 0.80002 0.07912 0.0
C3246 C 0.75972 0.87283 0.02588 0.0
C3247 C 0.72231 0.8246 0.06063 0.0
N3248 N 0.76502 0.83393 0.97982 0.0
N3249 N 0.7079 0.86661 0.1016 0.0
H3250 H 0.70336 0.77651 0.06949 0.0
H3251 H 0.70276 0.80225 0.10436 0.0
H3252 H 0.71 0.89011 0.1124 0.0
H3253 H 0.69053 0.85151 0.11341 0.0
H3254 H 0.77611 0.85129 0.9642 0.0
H3255 H 0.76193 0.81064 0.96899 0.0
H3256 H 0.79679 0.88945 0.99201 0.0
H3257 H 0.78577 0.91834 0.02259 0.0
C3258 C 0.26097 0.676 1.01398 0.0
C3259 C 0.25581 0.6731 0.97918 0.0
C3260 C 0.22001 0.72318 0.98102 0.0
C3261 C 0.22659 0.72714 1.0158 0.0
N3262 N 0.2569 0.70671 0.06426 0.0
N3263 N 0.23467 0.69691 0.92842 0.0
C3264 C 0.2481 0.70374 0.03174 0.0
C3265 C 0.23631 0.69744 0.96241 0.0
N3266 N 0.2787 0.65212 0.03059 0.0
N3267 N 0.19771 0.74386 0.96566 0.0
H3268 H 0.2455 0.67817 0.91407 0.0
H3269 H 0.22462 0.71612 0.91421 0.0
H3270 H 0.18717 0.76443 0.97737 0.0
H3271 H 0.18815 0.73966 0.94192 0.0
H3272 H 0.28331 0.65327 0.05616 0.0
H3273 H 0.28769 0.63062 1.01907 0.0
H3274 H 0.25002 0.72653 0.0794 0.0
H3275 H 0.25002 0.72653 0.0794 0.0
C3276 C 0.31536 0.32403 0.4803 0.0
C3277 C 0.31023 0.31641 0.51461 0.0
C3278 C 0.27337 0.36539 0.5187 0.0
C3279 C 0.27778 0.37208 0.48434 0.0
N3280 N 0.29678 0.35309 0.43074 0.0
N3281 N 0.27483 0.32456 0.5627 0.0
C3282 C 0.29729 0.35027 0.4647 0.0
C3283 C 0.28624 0.33536 0.53265 0.0
N3284 N 0.33654 0.30514 0.46191 0.0
N3285 N 0.25785 0.38837 0.53843 0.0
H3286 H 0.28312 0.30288 0.57399 0.0
H3287 H 0.25482 0.33558 0.57501 0.0
H3288 H 0.24867 0.41088 0.52925 0.0
H3289 H 0.25713 0.38661 0.56429 0.0
H3290 H 0.34667 0.31265 0.43929 0.0
H3291 H 0.34285 0.28137 0.46922 0.0
H3292 H 0.3073 0.33564 0.41471 0.0
H3293 H 0.28332 0.37136 0.41811 0.0
C3294 C 0.80343 0.2067 0.51343 0.0
C3295 C 0.82453 0.22965 0.53031 0.0
C3296 C 0.83242 0.18904 0.57564 0.0
C3297 C 0.81323 0.16552 0.55765 0.0
N3298 N 0.77285 0.15443 0.51498 0.0
N3299 N 0.85138 0.24592 0.5815 0.0
C3300 C 0.79598 0.17541 0.52848 0.0
C3301 C 0.83608 0.2219 0.56294 0.0
N3302 N 0.79254 0.21365 0.48203 0.0
N3303 N 0.84926 0.17921 0.6036 0.0
H3304 H 0.85638 0.26952 0.57224 0.0
H3305 H 0.85714 0.24328 0.60663 0.0
H3306 H 0.84622 0.1558 0.61431 0.0
H3307 H 0.86748 0.19351 0.61529 0.0
H3308 H 0.78118 0.19629 0.46648 0.0
H3309 H 0.79617 0.23663 0.47097 0.0
H3310 H 0.75718 0.16093 0.49535 0.0
H3311 H 0.7673 0.13143 0.52566 0.0
loop_
_geom_bond_atom_site_label_1
_geom_bond_atom_site_label_2
_geom_bond_distance
_geom_bond_site_symmetry_2
_ccdc_geom_bond_type
Tb0 N31 2.660 . S
Tb0 N38 2.600 . S
Tb0 O44 2.546 1_455 S
Tb0 O45 2.610 . S
Tb0 O47 2.320 1_455 S
Tb0 O48 2.552 1_455 S
Tb0 O49 2.413 1_455 S
Tb0 O51 2.362 . S
Tb0 O52 2.421 . S
Tb0 C64 2.833 1_455 S
C1 C4 1.432 . S
C1 C5 1.414 1_455 S
C1 N8 1.359 . S
C2 C4 1.417 . S
C2 C6 1.432 1_455 S
C2 C14 1.410 . S
C3 C5 1.444 . S
C3 C6 1.317 . S
C3 H26 0.929 . S
C4 C1 1.432 . S
C4 C2 1.417 . S
C4 N12 1.360 . S
C5 C1 1.414 1_655 S
C5 C3 1.444 . S
C5 C10 1.385 . S
C6 C2 1.432 1_655 S
C6 C3 1.317 . S
C6 H18 0.930 . S
C7 C9 1.392 1_655 S
C7 C10 1.370 . S
C7 H19 0.931 . S
N8 C1 1.359 . S
N8 C9 1.327 . S
N8 Tb11 2.600 . S
C9 C7 1.392 1_455 S
C9 N8 1.327 . S
C9 H16 0.930 . S
C10 C5 1.385 . S
C10 C7 1.370 . S
C10 H29 0.930 . S
Tb11 N8 2.600 . S
Tb11 N12 2.660 . S
Tb11 O45 2.362 . S
Tb11 O46 2.421 . S
Tb11 O50 2.546 . S
Tb11 O51 2.610 . S
Tb11 O53 2.320 . S
Tb11 O54 2.552 . S
Tb11 O55 2.413 . S
Tb11 C75 2.833 . S
N12 C4 1.360 . S
N12 Tb11 2.660 . S
N12 C13 1.305 . S
C13 N12 1.305 . S
C13 C15 1.407 . S
C13 H20 0.930 . S
C14 C2 1.410 . S
C14 C15 1.345 . S
C14 H22 0.930 . S
C15 C13 1.407 . S
C15 C14 1.345 . S
C15 H17 0.930 . S
H16 C9 0.930 . S
H17 C15 0.930 . S
H18 C6 0.930 . S
H19 C7 0.931 . S
H20 C13 0.930 . S
H21 C35 0.930 . S
H22 C14 0.930 . S
H23 C41 0.930 . S
H24 C32 0.930 . S
H25 C39 0.931 . S
H26 C3 0.929 . S
H27 C33 0.930 . S
H28 C66 0.930 . S
H29 C10 0.930 . S
H30 C65 0.929 . S
N31 Tb0 2.660 . S
N31 C32 1.305 . S
N31 C36 1.360 . S
C32 H24 0.930 . S
C32 N31 1.305 . S
C32 C35 1.407 . S
C33 H27 0.930 . S
C33 C34 1.410 . S
C33 C35 1.345 . S
C34 C33 1.410 . S
C34 C36 1.417 . S
C34 C66 1.432 . S
C35 H21 0.930 . S
C35 C32 1.407 . S
C35 C33 1.345 . S
C36 N31 1.360 . S
C36 C34 1.417 . S
C36 C40 1.432 . S
H37 C42 0.930 . S
N38 Tb0 2.600 . S
N38 C40 1.359 . S
N38 C41 1.327 . S
C39 H25 0.931 . S
C39 C41 1.392 . S
C39 C42 1.370 . S
C40 C36 1.432 . S
C40 N38 1.359 . S
C40 C43 1.414 . S
C41 H23 0.930 . S
C41 N38 1.327 . S
C41 C39 1.392 . S
C42 H37 0.930 . S
C42 C39 1.370 . S
C42 C43 1.385 . S
C43 C40 1.414 . S
C43 C42 1.385 . S
C43 C65 1.444 . S
O44 Tb0 2.546 1_655 S
O44 C64 1.251 . S
O45 Tb0 2.610 . S
O45 Tb11 2.362 . S
O45 C56 1.283 1_455 S
O46 Tb11 2.421 . S
O46 C63 1.262 1_455 S
O47 Tb0 2.320 1_655 S
O47 C63 1.260 . S
O48 Tb0 2.552 1_655 S
O48 C56 1.243 . S
O49 Tb0 2.413 1_655 S
O49 C64 1.256 . S
O50 Tb11 2.546 . S
O50 C75 1.251 . S
O51 Tb0 2.362 . S
O51 Tb11 2.610 . S
O51 C67 1.283 . S
O52 Tb0 2.421 . S
O52 C74 1.262 . S
O53 Tb11 2.320 . S
O53 C74 1.260 . S
O54 Tb11 2.552 . S
O54 C67 1.243 . S
O55 Tb11 2.413 . S
O55 C75 1.256 . S
C56 O45 1.283 1_655 S
C56 O48 1.243 . S
C57 C59 1.382 . S
C57 C61 1.393 . S
C57 C64 1.500 . S
C58 C59 1.400 . S
C58 C60 1.384 . S
C59 C57 1.382 . S
C59 C58 1.400 . S
C59 H76 0.930 . S
C60 C58 1.384 . S
C60 C62 1.392 . S
C60 H77 0.931 . S
C61 C57 1.393 . S
C61 C62 1.401 . S
C61 H78 0.930 . S
C62 C60 1.392 . S
C62 C61 1.401 . S
C62 H79 0.930 . S
C63 O46 1.262 1_655 S
C63 O47 1.260 . S
C64 Tb0 2.833 1_655 S
C64 O44 1.251 . S
C64 O49 1.256 . S
C64 C57 1.500 . S
C65 H30 0.929 . S
C65 C43 1.444 . S
C65 C66 1.317 . S
C66 H28 0.930 . S
C66 C34 1.432 . S
C66 C65 1.317 . S
C67 O51 1.283 . S
C67 O54 1.243 . S
C68 C69 1.382 . S
C68 C72 1.393 . S
C68 C75 1.500 . S
C69 C68 1.382 . S
C69 C70 1.400 . S
C69 H80 0.930 . S
C70 C69 1.400 . S
C70 C71 1.384 . S
C71 C70 1.384 . S
C71 C73 1.392 . S
C71 H81 0.931 . S
C72 C68 1.393 . S
C72 C73 1.401 . S
C72 H82 0.930 . S
C73 C71 1.392 . S
C73 C72 1.401 . S
C73 H83 0.930 . S
C74 O52 1.262 . S
C74 O53 1.260 . S
C75 Tb11 2.833 . S
C75 O50 1.251 . S
C75 O55 1.256 . S
C75 C68 1.500 . S
H76 C59 0.930 . S
H77 C60 0.931 . S
H78 C61 0.930 . S
H79 C62 0.930 . S
H80 C69 0.930 . S
H81 C71 0.931 . S
H82 C72 0.930 . S
H83 C73 0.930 . S
Tb84 N115 2.660 . S
Tb84 N122 2.600 . S
Tb84 O128 2.546 . S
Tb84 O129 2.610 . S
Tb84 O131 2.320 . S
Tb84 O132 2.552 . S
Tb84 O133 2.413 . S
Tb84 O135 2.362 . S
Tb84 O136 2.421 . S
Tb84 C148 2.833 . S
C85 C88 1.432 . S
C85 C89 1.414 . S
C85 N92 1.359 . S
C86 C88 1.417 . S
C86 C90 1.432 . S
C86 C98 1.410 . S
C87 C89 1.444 . S
C87 C90 1.317 . S
C87 H110 0.929 . S
C88 C85 1.432 . S
C88 C86 1.417 . S
C88 N96 1.360 . S
C89 C85 1.414 . S
C89 C87 1.444 . S
C89 C94 1.385 . S
C90 C86 1.432 . S
C90 C87 1.317 . S
C90 H102 0.930 . S
C91 C93 1.392 . S
C91 C94 1.370 . S
C91 H103 0.931 . S
N92 C85 1.359 . S
N92 C93 1.327 . S
N92 Tb95 2.600 . S
C93 C91 1.392 . S
C93 N92 1.327 . S
C93 H100 0.930 . S
C94 C89 1.385 . S
C94 C91 1.370 . S
C94 H113 0.930 . S
Tb95 N92 2.600 . S
Tb95 N96 2.660 . S
Tb95 O129 2.362 . S
Tb95 O130 2.421 . S
Tb95 O134 2.546 . S
Tb95 O135 2.610 . S
Tb95 O137 2.320 . S
Tb95 O138 2.552 . S
Tb95 O139 2.413 . S
Tb95 C159 2.833 . S
N96 C88 1.360 . S
N96 Tb95 2.660 . S
N96 C97 1.305 . S
C97 N96 1.305 . S
C97 C99 1.407 . S
C97 H104 0.930 . S
C98 C86 1.410 . S
C98 C99 1.345 . S
C98 H106 0.930 . S
C99 C97 1.407 . S
C99 C98 1.345 . S
C99 H101 0.930 . S
H100 C93 0.930 . S
H101 C99 0.930 . S
H102 C90 0.930 . S
H103 C91 0.931 . S
H104 C97 0.930 . S
H105 C119 0.930 . S
H106 C98 0.930 . S
H107 C125 0.930 . S
H108 C116 0.930 . S
H109 C123 0.931 . S
H110 C87 0.929 . S
H111 C117 0.930 . S
H112 C150 0.930 . S
H113 C94 0.930 . S
H114 C149 0.929 . S
N115 Tb84 2.660 . S
N115 C116 1.305 . S
N115 C120 1.360 . S
C116 H108 0.930 . S
C116 N115 1.305 . S
C116 C119 1.407 . S
C117 H111 0.930 . S
C117 C118 1.410 . S
C117 C119 1.345 . S
C118 C117 1.410 . S
C118 C120 1.417 . S
C118 C150 1.432 . S
C119 H105 0.930 . S
C119 C116 1.407 . S
C119 C117 1.345 . S
C120 N115 1.360 . S
C120 C118 1.417 . S
C120 C124 1.432 . S
H121 C126 0.930 . S
N122 Tb84 2.600 . S
N122 C124 1.359 . S
N122 C125 1.327 . S
C123 H109 0.931 . S
C123 C125 1.392 . S
C123 C126 1.370 . S
C124 C120 1.432 . S
C124 N122 1.359 . S
C124 C127 1.414 . S
C125 H107 0.930 . S
C125 N122 1.327 . S
C125 C123 1.392 . S
C126 H121 0.930 . S
C126 C123 1.370 . S
C126 C127 1.385 . S
C127 C124 1.414 . S
C127 C126 1.385 . S
C127 C149 1.444 . S
O128 Tb84 2.546 . S
O128 C148 1.251 . S
O129 Tb84 2.610 . S
O129 Tb95 2.362 . S
O129 C140 1.283 . S
O130 Tb95 2.421 . S
O130 C147 1.262 . S
O131 Tb84 2.320 . S
O131 C147 1.260 . S
O132 Tb84 2.552 . S
O132 C140 1.243 . S
O133 Tb84 2.413 . S
O133 C148 1.256 . S
O134 Tb95 2.546 . S
O134 C159 1.251 . S
O135 Tb84 2.362 . S
O135 Tb95 2.610 . S
O135 C151 1.283 . S
O136 Tb84 2.421 . S
O136 C158 1.262 . S
O137 Tb95 2.320 . S
O137 C158 1.260 . S
O138 Tb95 2.552 . S
O138 C151 1.243 . S
O139 Tb95 2.413 . S
O139 C159 1.256 . S
C140 O129 1.283 . S
C140 O132 1.243 . S
C141 C143 1.382 . S
C141 C145 1.393 . S
C141 C148 1.500 . S
C142 C143 1.400 . S
C142 C144 1.384 . S
C143 C141 1.382 . S
C143 C142 1.400 . S
C143 H160 0.930 . S
C144 C142 1.384 . S
C144 C146 1.392 . S
C144 H161 0.931 . S
C145 C141 1.393 . S
C145 C146 1.401 . S
C145 H162 0.930 . S
C146 C144 1.392 . S
C146 C145 1.401 . S
C146 H163 0.930 . S
C147 O130 1.262 . S
C147 O131 1.260 . S
C148 Tb84 2.833 . S
C148 O128 1.251 . S
C148 O133 1.256 . S
C148 C141 1.500 . S
C149 H114 0.929 . S
C149 C127 1.444 . S
C149 C150 1.317 . S
C150 H112 0.930 . S
C150 C118 1.432 . S
C150 C149 1.317 . S
C151 O135 1.283 . S
C151 O138 1.243 . S
C152 C153 1.382 . S
C152 C156 1.393 . S
C152 C159 1.500 . S
C153 C152 1.382 . S
C153 C154 1.400 . S
C153 H164 0.930 . S
C154 C153 1.400 . S
C154 C155 1.384 . S
C155 C154 1.384 . S
C155 C157 1.392 . S
C155 H165 0.931 . S
C156 C152 1.393 . S
C156 C157 1.401 . S
C156 H166 0.930 . S
C157 C155 1.392 . S
C157 C156 1.401 . S
C157 H167 0.930 . S
C158 O136 1.262 . S
C158 O137 1.260 . S
C159 Tb95 2.833 . S
C159 O134 1.251 . S
C159 O139 1.256 . S
C159 C152 1.500 . S
H160 C143 0.930 . S
H161 C144 0.931 . S
H162 C145 0.930 . S
H163 C146 0.930 . S
H164 C153 0.930 . S
H165 C155 0.931 . S
H166 C156 0.930 . S
H167 C157 0.930 . S
Tb168 N199 2.660 . S
Tb168 N206 2.600 . S
Tb168 O212 2.546 . S
Tb168 O213 2.610 . S
Tb168 O215 2.320 . S
Tb168 O216 2.552 . S
Tb168 O217 2.413 . S
Tb168 O219 2.362 . S
Tb168 O220 2.421 . S
Tb168 C232 2.833 . S
C169 C172 1.432 . S
C169 C173 1.414 . S
C169 N176 1.359 . S
C170 C172 1.417 . S
C170 C174 1.432 . S
C170 C182 1.410 . S
C171 C173 1.444 . S
C171 C174 1.317 . S
C171 H194 0.929 . S
C172 C169 1.432 . S
C172 C170 1.417 . S
C172 N180 1.360 . S
C173 C169 1.414 . S
C173 C171 1.444 . S
C173 C178 1.385 . S
C174 C170 1.432 . S
C174 C171 1.317 . S
C174 H186 0.930 . S
C175 C177 1.392 . S
C175 C178 1.370 . S
C175 H187 0.931 . S
N176 C169 1.359 . S
N176 C177 1.327 . S
N176 Tb179 2.600 . S
C177 C175 1.392 . S
C177 N176 1.327 . S
C177 H184 0.930 . S
C178 C173 1.385 . S
C178 C175 1.370 . S
C178 H197 0.930 . S
Tb179 N176 2.600 . S
Tb179 N180 2.660 . S
Tb179 O213 2.362 . S
Tb179 O214 2.421 . S
Tb179 O218 2.546 . S
Tb179 O219 2.610 . S
Tb179 O221 2.320 . S
Tb179 O222 2.552 . S
Tb179 O223 2.413 . S
Tb179 C243 2.833 . S
N180 C172 1.360 . S
N180 Tb179 2.660 . S
N180 C181 1.305 . S
C181 N180 1.305 . S
C181 C183 1.407 . S
C181 H188 0.930 . S
C182 C170 1.410 . S
C182 C183 1.345 . S
C182 H190 0.930 . S
C183 C181 1.407 . S
C183 C182 1.345 . S
C183 H185 0.930 . S
H184 C177 0.930 . S
H185 C183 0.930 . S
H186 C174 0.930 . S
H187 C175 0.931 . S
H188 C181 0.930 . S
H189 C203 0.930 . S
H190 C182 0.930 . S
H191 C209 0.930 . S
H192 C200 0.930 . S
H193 C207 0.931 . S
H194 C171 0.929 . S
H195 C201 0.930 . S
H196 C234 0.930 . S
H197 C178 0.930 . S
H198 C233 0.929 . S
N199 Tb168 2.660 . S
N199 C200 1.305 . S
N199 C204 1.360 . S
C200 H192 0.930 . S
C200 N199 1.305 . S
C200 C203 1.407 . S
C201 H195 0.930 . S
C201 C202 1.410 . S
C201 C203 1.345 . S
C202 C201 1.410 . S
C202 C204 1.417 . S
C202 C234 1.432 . S
C203 H189 0.930 . S
C203 C200 1.407 . S
C203 C201 1.345 . S
C204 N199 1.360 . S
C204 C202 1.417 . S
C204 C208 1.432 . S
H205 C210 0.930 . S
N206 Tb168 2.600 . S
N206 C208 1.359 . S
N206 C209 1.327 . S
C207 H193 0.931 . S
C207 C209 1.392 . S
C207 C210 1.370 . S
C208 C204 1.432 . S
C208 N206 1.359 . S
C208 C211 1.414 . S
C209 H191 0.930 . S
C209 N206 1.327 . S
C209 C207 1.392 . S
C210 H205 0.930 . S
C210 C207 1.370 . S
C210 C211 1.385 . S
C211 C208 1.414 . S
C211 C210 1.385 . S
C211 C233 1.444 . S
O212 Tb168 2.546 . S
O212 C232 1.251 . S
O213 Tb168 2.610 . S
O213 Tb179 2.362 . S
O213 C224 1.283 . S
O214 Tb179 2.421 . S
O214 C231 1.262 . S
O215 Tb168 2.320 . S
O215 C231 1.260 . S
O216 Tb168 2.552 . S
O216 C224 1.243 . S
O217 Tb168 2.413 . S
O217 C232 1.256 . S
O218 Tb179 2.546 . S
O218 C243 1.251 . S
O219 Tb168 2.362 . S
O219 Tb179 2.610 . S
O219 C235 1.283 . S
O220 Tb168 2.421 . S
O220 C242 1.262 . S
O221 Tb179 2.320 . S
O221 C242 1.260 . S
O222 Tb179 2.552 . S
O222 C235 1.243 . S
O223 Tb179 2.413 . S
O223 C243 1.256 . S
C224 O213 1.283 . S
C224 O216 1.243 . S
C225 C227 1.382 . S
C225 C229 1.393 . S
C225 C232 1.500 . S
C226 C227 1.400 . S
C226 C228 1.384 . S
C227 C225 1.382 . S
C227 C226 1.400 . S
C227 H244 0.930 . S
C228 C226 1.384 . S
C228 C230 1.392 . S
C228 H245 0.931 . S
C229 C225 1.393 . S
C229 C230 1.401 . S
C229 H246 0.930 . S
C230 C228 1.392 . S
C230 C229 1.401 . S
C230 H247 0.930 1_545 S
C231 O214 1.262 . S
C231 O215 1.260 . S
C232 Tb168 2.833 . S
C232 O212 1.251 . S
C232 O217 1.256 . S
C232 C225 1.500 . S
C233 H198 0.929 . S
C233 C211 1.444 . S
C233 C234 1.317 . S
C234 H196 0.930 . S
C234 C202 1.432 . S
C234 C233 1.317 . S
C235 O219 1.283 . S
C235 O222 1.243 . S
C236 C237 1.382 . S
C236 C240 1.393 . S
C236 C243 1.500 . S
C237 C236 1.382 . S
C237 C238 1.400 . S
C237 H248 0.930 . S
C238 C237 1.400 . S
C238 C239 1.384 . S
C239 C238 1.384 . S
C239 C241 1.392 . S
C239 H249 0.931 . S
C240 C236 1.393 . S
C240 C241 1.401 . S
C240 H250 0.930 . S
C241 C239 1.392 . S
C241 C240 1.401 . S
C241 H251 0.930 . S
C242 O220 1.262 . S
C242 O221 1.260 . S
C243 Tb179 2.833 . S
C243 O218 1.251 . S
C243 O223 1.256 . S
C243 C236 1.500 . S
H244 C227 0.930 . S
H245 C228 0.931 . S
H246 C229 0.930 . S
H247 C230 0.930 1_565 S
H248 C237 0.930 . S
H249 C239 0.931 . S
H250 C240 0.930 . S
H251 C241 0.930 . S
Tb252 N283 2.660 . S
Tb252 N290 2.600 . S
Tb252 O296 2.546 1_655 S
Tb252 O297 2.610 . S
Tb252 O299 2.320 1_655 S
Tb252 O300 2.552 1_655 S
Tb252 O301 2.413 1_655 S
Tb252 O303 2.362 . S
Tb252 O304 2.421 . S
Tb252 C316 2.833 1_655 S
C253 C256 1.432 . S
C253 C257 1.414 1_655 S
C253 N260 1.359 . S
C254 C256 1.417 . S
C254 C258 1.432 1_655 S
C254 C266 1.410 . S
C255 C257 1.444 . S
C255 C258 1.317 . S
C255 H278 0.929 . S
C256 C253 1.432 . S
C256 C254 1.417 . S
C256 N264 1.360 . S
C257 C253 1.414 1_455 S
C257 C255 1.444 . S
C257 C262 1.385 . S
C258 C254 1.432 1_455 S
C258 C255 1.317 . S
C258 H270 0.930 . S
C259 C261 1.392 1_455 S
C259 C262 1.370 . S
C259 H271 0.931 . S
N260 C253 1.359 . S
N260 C261 1.327 . S
N260 Tb263 2.600 . S
C261 C259 1.392 1_655 S
C261 N260 1.327 . S
C261 H268 0.930 . S
C262 C257 1.385 . S
C262 C259 1.370 . S
C262 H281 0.930 . S
Tb263 N260 2.600 . S
Tb263 N264 2.660 . S
Tb263 O297 2.362 . S
Tb263 O298 2.421 . S
Tb263 O302 2.546 . S
Tb263 O303 2.610 . S
Tb263 O305 2.320 . S
Tb263 O306 2.552 . S
Tb263 O307 2.413 . S
Tb263 C327 2.833 . S
N264 C256 1.360 . S
N264 Tb263 2.660 . S
N264 C265 1.305 . S
C265 N264 1.305 . S
C265 C267 1.407 . S
C265 H272 0.930 . S
C266 C254 1.410 . S
C266 C267 1.345 . S
C266 H274 0.930 . S
C267 C265 1.407 . S
C267 C266 1.345 . S
C267 H269 0.930 . S
H268 C261 0.930 . S
H269 C267 0.930 . S
H270 C258 0.930 . S
H271 C259 0.931 . S
H272 C265 0.930 . S
H273 C287 0.930 . S
H274 C266 0.930 . S
H275 C293 0.930 . S
H276 C284 0.930 . S
H277 C291 0.931 . S
H278 C255 0.929 . S
H279 C285 0.930 . S
H280 C318 0.930 . S
H281 C262 0.930 . S
H282 C317 0.929 . S
N283 Tb252 2.660 . S
N283 C284 1.305 . S
N283 C288 1.360 . S
C284 H276 0.930 . S
C284 N283 1.305 . S
C284 C287 1.407 . S
C285 H279 0.930 . S
C285 C286 1.410 . S
C285 C287 1.345 . S
C286 C285 1.410 . S
C286 C288 1.417 . S
C286 C318 1.432 . S
C287 H273 0.930 . S
C287 C284 1.407 . S
C287 C285 1.345 . S
C288 N283 1.360 . S
C288 C286 1.417 . S
C288 C292 1.432 . S
H289 C294 0.930 . S
N290 Tb252 2.600 . S
N290 C292 1.359 . S
N290 C293 1.327 . S
C291 H277 0.931 . S
C291 C293 1.392 . S
C291 C294 1.370 . S
C292 C288 1.432 . S
C292 N290 1.359 . S
C292 C295 1.414 . S
C293 H275 0.930 . S
C293 N290 1.327 . S
C293 C291 1.392 . S
C294 H289 0.930 . S
C294 C291 1.370 . S
C294 C295 1.385 . S
C295 C292 1.414 . S
C295 C294 1.385 . S
C295 C317 1.444 . S
O296 Tb252 2.546 1_455 S
O296 C316 1.251 . S
O297 Tb252 2.610 . S
O297 Tb263 2.362 . S
O297 C308 1.283 1_655 S
O298 Tb263 2.421 . S
O298 C315 1.262 1_655 S
O299 Tb252 2.320 1_455 S
O299 C315 1.260 . S
O300 Tb252 2.552 1_455 S
O300 C308 1.243 . S
O301 Tb252 2.413 1_455 S
O301 C316 1.256 . S
O302 Tb263 2.546 . S
O302 C327 1.251 . S
O303 Tb252 2.362 . S
O303 Tb263 2.610 . S
O303 C319 1.283 . S
O304 Tb252 2.421 . S
O304 C326 1.262 . S
O305 Tb263 2.320 . S
O305 C326 1.260 . S
O306 Tb263 2.552 . S
O306 C319 1.243 . S
O307 Tb263 2.413 . S
O307 C327 1.256 . S
C308 O297 1.283 1_455 S
C308 O300 1.243 . S
C309 C311 1.382 . S
C309 C313 1.393 . S
C309 C316 1.500 . S
C310 C311 1.400 . S
C310 C312 1.384 . S
C311 C309 1.382 . S
C311 C310 1.400 . S
C311 H328 0.930 . S
C312 C310 1.384 . S
C312 C314 1.392 . S
C312 H329 0.931 . S
C313 C309 1.393 . S
C313 C314 1.401 . S
C313 H330 0.930 . S
C314 C312 1.392 . S
C314 C313 1.401 . S
C314 H331 0.930 1_565 S
C315 O298 1.262 1_455 S
C315 O299 1.260 . S
C316 Tb252 2.833 1_455 S
C316 O296 1.251 . S
C316 O301 1.256 . S
C316 C309 1.500 . S
C317 H282 0.929 . S
C317 C295 1.444 . S
C317 C318 1.317 . S
C318 H280 0.930 . S
C318 C286 1.432 . S
C318 C317 1.317 . S
C319 O303 1.283 . S
C319 O306 1.243 . S
C320 C321 1.382 . S
C320 C324 1.393 . S
C320 C327 1.500 . S
C321 C320 1.382 . S
C321 C322 1.400 . S
C321 H332 0.930 . S
C322 C321 1.400 . S
C322 C323 1.384 . S
C323 C322 1.384 . S
C323 C325 1.392 . S
C323 H333 0.931 . S
C324 C320 1.393 . S
C324 C325 1.401 . S
C324 H334 0.930 . S
C325 C323 1.392 . S
C325 C324 1.401 . S
C325 H335 0.930 . S
C326 O304 1.262 . S
C326 O305 1.260 . S
C327 Tb263 2.833 . S
C327 O302 1.251 . S
C327 O307 1.256 . S
C327 C320 1.500 . S
H328 C311 0.930 . S
H329 C312 0.931 . S
H330 C313 0.930 . S
H331 C314 0.930 1_545 S
H332 C321 0.930 . S
H333 C323 0.931 . S
H334 C324 0.930 . S
H335 C325 0.930 . S
Tb336 N367 2.660 . S
Tb336 N374 2.600 . S
Tb336 O380 2.546 1_545 S
Tb336 O381 2.610 . S
Tb336 O383 2.320 1_545 S
Tb336 O384 2.552 1_545 S
Tb336 O385 2.413 1_545 S
Tb336 O387 2.362 . S
Tb336 O388 2.421 . S
Tb336 C400 2.833 1_545 S
C337 C340 1.432 . S
C337 C341 1.414 1_545 S
C337 N344 1.359 . S
C338 C340 1.417 . S
C338 C342 1.432 1_545 S
C338 C350 1.410 . S
C339 C341 1.444 . S
C339 C342 1.317 . S
C339 H362 0.929 . S
C340 C337 1.432 . S
C340 C338 1.417 . S
C340 N348 1.360 . S
C341 C337 1.414 1_565 S
C341 C339 1.444 . S
C341 C346 1.385 . S
C342 C338 1.432 1_565 S
C342 C339 1.317 . S
C342 H354 0.930 . S
C343 C345 1.392 1_565 S
C343 C346 1.370 . S
C343 H355 0.931 . S
N344 C337 1.359 . S
N344 C345 1.327 . S
N344 Tb347 2.600 . S
C345 C343 1.392 1_545 S
C345 N344 1.327 . S
C345 H352 0.930 . S
C346 C341 1.385 . S
C346 C343 1.370 . S
C346 H365 0.930 . S
Tb347 N344 2.600 . S
Tb347 N348 2.660 . S
Tb347 O381 2.362 . S
Tb347 O382 2.421 . S
Tb347 O386 2.546 . S
Tb347 O387 2.610 . S
Tb347 O389 2.320 . S
Tb347 O390 2.552 . S
Tb347 O391 2.413 . S
Tb347 C411 2.833 . S
N348 C340 1.360 . S
N348 Tb347 2.660 . S
N348 C349 1.305 . S
C349 N348 1.305 . S
C349 C351 1.407 . S
C349 H356 0.930 . S
C350 C338 1.410 . S
C350 C351 1.345 . S
C350 H358 0.930 . S
C351 C349 1.407 . S
C351 C350 1.345 . S
C351 H353 0.930 . S
H352 C345 0.930 . S
H353 C351 0.930 . S
H354 C342 0.930 . S
H355 C343 0.931 . S
H356 C349 0.930 . S
H357 C371 0.930 . S
H358 C350 0.930 . S
H359 C377 0.930 . S
H360 C368 0.930 . S
H361 C375 0.931 . S
H362 C339 0.929 . S
H363 C369 0.930 . S
H364 C402 0.930 . S
H365 C346 0.930 . S
H366 C401 0.929 . S
N367 Tb336 2.660 . S
N367 C368 1.305 . S
N367 C372 1.360 . S
C368 H360 0.930 . S
C368 N367 1.305 . S
C368 C371 1.407 . S
C369 H363 0.930 . S
C369 C370 1.410 . S
C369 C371 1.345 . S
C370 C369 1.410 . S
C370 C372 1.417 . S
C370 C402 1.432 . S
C371 H357 0.930 . S
C371 C368 1.407 . S
C371 C369 1.345 . S
C372 N367 1.360 . S
C372 C370 1.417 . S
C372 C376 1.432 . S
H373 C378 0.930 . S
N374 Tb336 2.600 . S
N374 C376 1.359 . S
N374 C377 1.327 . S
C375 H361 0.931 . S
C375 C377 1.392 . S
C375 C378 1.370 . S
C376 C372 1.432 . S
C376 N374 1.359 . S
C376 C379 1.414 . S
C377 H359 0.930 . S
C377 N374 1.327 . S
C377 C375 1.392 . S
C378 H373 0.930 . S
C378 C375 1.370 . S
C378 C379 1.385 . S
C379 C376 1.414 . S
C379 C378 1.385 . S
C379 C401 1.444 . S
O380 Tb336 2.546 1_565 S
O380 C400 1.251 . S
O381 Tb336 2.610 . S
O381 Tb347 2.362 . S
O381 C392 1.283 1_545 S
O382 Tb347 2.421 . S
O382 C399 1.262 1_545 S
O383 Tb336 2.320 1_565 S
O383 C399 1.260 . S
O384 Tb336 2.552 1_565 S
O384 C392 1.243 . S
O385 Tb336 2.413 1_565 S
O385 C400 1.256 . S
O386 Tb347 2.546 . S
O386 C411 1.251 . S
O387 Tb336 2.362 . S
O387 Tb347 2.610 . S
O387 C403 1.283 . S
O388 Tb336 2.421 . S
O388 C410 1.262 . S
O389 Tb347 2.320 . S
O389 C410 1.260 . S
O390 Tb347 2.552 . S
O390 C403 1.243 . S
O391 Tb347 2.413 . S
O391 C411 1.256 . S
C392 O381 1.283 1_565 S
C392 O384 1.243 . S
C393 C395 1.382 . S
C393 C397 1.393 . S
C393 C400 1.500 . S
C394 C395 1.400 . S
C394 C396 1.384 . S
C395 C393 1.382 . S
C395 C394 1.400 . S
C395 H412 0.930 . S
C396 C394 1.384 . S
C396 C398 1.392 . S
C396 H413 0.931 . S
C397 C393 1.393 . S
C397 C398 1.401 . S
C397 H414 0.930 . S
C398 C396 1.392 . S
C398 C397 1.401 . S
C398 H415 0.930 . S
C399 O382 1.262 1_565 S
C399 O383 1.260 . S
C400 Tb336 2.833 1_565 S
C400 O380 1.251 . S
C400 O385 1.256 . S
C400 C393 1.500 . S
C401 H366 0.929 . S
C401 C379 1.444 . S
C401 C402 1.317 . S
C402 H364 0.930 . S
C402 C370 1.432 . S
C402 C401 1.317 . S
C403 O387 1.283 . S
C403 O390 1.243 . S
C404 C405 1.382 . S
C404 C408 1.393 . S
C404 C411 1.500 . S
C405 C404 1.382 . S
C405 C406 1.400 . S
C405 H416 0.930 . S
C406 C405 1.400 . S
C406 C407 1.384 . S
C407 C406 1.384 . S
C407 C409 1.392 . S
C407 H417 0.931 . S
C408 C404 1.393 . S
C408 C409 1.401 . S
C408 H418 0.930 . S
C409 C407 1.392 . S
C409 C408 1.401 . S
C409 H419 0.930 . S
C410 O388 1.262 . S
C410 O389 1.260 . S
C411 Tb347 2.833 . S
C411 O386 1.251 . S
C411 O391 1.256 . S
C411 C404 1.500 . S
H412 C395 0.930 . S
H413 C396 0.931 . S
H414 C397 0.930 . S
H415 C398 0.930 . S
H416 C405 0.930 . S
H417 C407 0.931 . S
H418 C408 0.930 . S
H419 C409 0.930 . S
Tb420 N451 2.660 . S
Tb420 N458 2.600 . S
Tb420 O464 2.546 1_565 S
Tb420 O465 2.610 . S
Tb420 O467 2.320 1_565 S
Tb420 O468 2.552 1_565 S
Tb420 O469 2.413 1_565 S
Tb420 O471 2.362 . S
Tb420 O472 2.421 . S
Tb420 C484 2.833 1_565 S
C421 C424 1.432 . S
C421 C425 1.414 1_565 S
C421 N428 1.359 . S
C422 C424 1.417 . S
C422 C426 1.432 1_565 S
C422 C434 1.410 . S
C423 C425 1.444 . S
C423 C426 1.317 . S
C423 H446 0.929 . S
C424 C421 1.432 . S
C424 C422 1.417 . S
C424 N432 1.360 . S
C425 C421 1.414 1_545 S
C425 C423 1.444 . S
C425 C430 1.385 . S
C426 C422 1.432 1_545 S
C426 C423 1.317 . S
C426 H438 0.930 . S
C427 C429 1.392 1_545 S
C427 C430 1.370 . S
C427 H439 0.931 . S
N428 C421 1.359 . S
N428 C429 1.327 . S
N428 Tb431 2.600 . S
C429 C427 1.392 1_565 S
C429 N428 1.327 . S
C429 H436 0.930 . S
C430 C425 1.385 . S
C430 C427 1.370 . S
C430 H449 0.930 . S
Tb431 N428 2.600 . S
Tb431 N432 2.660 . S
Tb431 O465 2.362 . S
Tb431 O466 2.421 . S
Tb431 O470 2.546 . S
Tb431 O471 2.610 . S
Tb431 O473 2.320 . S
Tb431 O474 2.552 . S
Tb431 O475 2.413 . S
Tb431 C495 2.833 . S
N432 C424 1.360 . S
N432 Tb431 2.660 . S
N432 C433 1.305 . S
C433 N432 1.305 . S
C433 C435 1.407 . S
C433 H440 0.930 . S
C434 C422 1.410 . S
C434 C435 1.345 . S
C434 H442 0.930 . S
C435 C433 1.407 . S
C435 C434 1.345 . S
C435 H437 0.930 . S
H436 C429 0.930 . S
H437 C435 0.930 . S
H438 C426 0.930 . S
H439 C427 0.931 . S
H440 C433 0.930 . S
H441 C455 0.930 . S
H442 C434 0.930 . S
H443 C461 0.930 . S
H444 C452 0.930 . S
H445 C459 0.931 . S
H446 C423 0.929 . S
H447 C453 0.930 . S
H448 C486 0.930 . S
H449 C430 0.930 . S
H450 C485 0.929 . S
N451 Tb420 2.660 . S
N451 C452 1.305 . S
N451 C456 1.360 . S
C452 H444 0.930 . S
C452 N451 1.305 . S
C452 C455 1.407 . S
C453 H447 0.930 . S
C453 C454 1.410 . S
C453 C455 1.345 . S
C454 C453 1.410 . S
C454 C456 1.417 . S
C454 C486 1.432 . S
C455 H441 0.930 . S
C455 C452 1.407 . S
C455 C453 1.345 . S
C456 N451 1.360 . S
C456 C454 1.417 . S
C456 C460 1.432 . S
H457 C462 0.930 . S
N458 Tb420 2.600 . S
N458 C460 1.359 . S
N458 C461 1.327 . S
C459 H445 0.931 . S
C459 C461 1.392 . S
C459 C462 1.370 . S
C460 C456 1.432 . S
C460 N458 1.359 . S
C460 C463 1.414 . S
C461 H443 0.930 . S
C461 N458 1.327 . S
C461 C459 1.392 . S
C462 H457 0.930 . S
C462 C459 1.370 . S
C462 C463 1.385 . S
C463 C460 1.414 . S
C463 C462 1.385 . S
C463 C485 1.444 . S
O464 Tb420 2.546 1_545 S
O464 C484 1.251 . S
O465 Tb420 2.610 . S
O465 Tb431 2.362 . S
O465 C476 1.283 1_565 S
O466 Tb431 2.421 . S
O466 C483 1.262 1_565 S
O467 Tb420 2.320 1_545 S
O467 C483 1.260 . S
O468 Tb420 2.552 1_545 S
O468 C476 1.243 . S
O469 Tb420 2.413 1_545 S
O469 C484 1.256 . S
O470 Tb431 2.546 . S
O470 C495 1.251 . S
O471 Tb420 2.362 . S
O471 Tb431 2.610 . S
O471 C487 1.283 . S
O472 Tb420 2.421 . S
O472 C494 1.262 . S
O473 Tb431 2.320 . S
O473 C494 1.260 . S
O474 Tb431 2.552 . S
O474 C487 1.243 . S
O475 Tb431 2.413 . S
O475 C495 1.256 . S
C476 O465 1.283 1_545 S
C476 O468 1.243 . S
C477 C479 1.382 . S
C477 C481 1.393 . S
C477 C484 1.500 . S
C478 C479 1.400 . S
C478 C480 1.384 . S
C479 C477 1.382 . S
C479 C478 1.400 . S
C479 H496 0.930 . S
C480 C478 1.384 . S
C480 C482 1.392 . S
C480 H497 0.931 . S
C481 C477 1.393 . S
C481 C482 1.401 . S
C481 H498 0.930 . S
C482 C480 1.392 . S
C482 C481 1.401 . S
C482 H499 0.930 1_556 S
C483 O466 1.262 1_545 S
C483 O467 1.260 . S
C484 Tb420 2.833 1_545 S
C484 O464 1.251 . S
C484 O469 1.256 . S
C484 C477 1.500 . S
C485 H450 0.929 . S
C485 C463 1.444 . S
C485 C486 1.317 . S
C486 H448 0.930 . S
C486 C454 1.432 . S
C486 C485 1.317 . S
C487 O471 1.283 . S
C487 O474 1.243 . S
C488 C489 1.382 . S
C488 C492 1.393 . S
C488 C495 1.500 . S
C489 C488 1.382 . S
C489 C490 1.400 . S
C489 H500 0.930 . S
C490 C489 1.400 . S
C490 C491 1.384 . S
C491 C490 1.384 . S
C491 C493 1.392 . S
C491 H501 0.931 . S
C492 C488 1.393 . S
C492 C493 1.401 . S
C492 H502 0.930 . S
C493 C491 1.392 . S
C493 C492 1.401 . S
C493 H503 0.930 . S
C494 O472 1.262 . S
C494 O473 1.260 . S
C495 Tb431 2.833 . S
C495 O470 1.251 . S
C495 O475 1.256 . S
C495 C488 1.500 . S
H496 C479 0.930 . S
H497 C480 0.931 . S
H498 C481 0.930 . S
H499 C482 0.930 1_554 S
H500 C489 0.930 . S
H501 C491 0.931 . S
H502 C492 0.930 . S
H503 C493 0.930 . S
Tb504 N535 2.660 . S
Tb504 N542 2.600 . S
Tb504 O548 2.546 . S
Tb504 O549 2.610 . S
Tb504 O551 2.320 . S
Tb504 O552 2.552 . S
Tb504 O553 2.413 . S
Tb504 O555 2.362 . S
Tb504 O556 2.421 . S
Tb504 C568 2.833 . S
C505 C508 1.432 . S
C505 C509 1.414 . S
C505 N512 1.359 . S
C506 C508 1.417 . S
C506 C510 1.432 . S
C506 C518 1.410 . S
C507 C509 1.444 . S
C507 C510 1.317 . S
C507 H530 0.929 . S
C508 C505 1.432 . S
C508 C506 1.417 . S
C508 N516 1.360 . S
C509 C505 1.414 . S
C509 C507 1.444 . S
C509 C514 1.385 . S
C510 C506 1.432 . S
C510 C507 1.317 . S
C510 H522 0.930 . S
C511 C513 1.392 . S
C511 C514 1.370 . S
C511 H523 0.931 . S
N512 C505 1.359 . S
N512 C513 1.327 . S
N512 Tb515 2.600 . S
C513 C511 1.392 . S
C513 N512 1.327 . S
C513 H520 0.930 . S
C514 C509 1.385 . S
C514 C511 1.370 . S
C514 H533 0.930 . S
Tb515 N512 2.600 . S
Tb515 N516 2.660 . S
Tb515 O549 2.362 . S
Tb515 O550 2.421 . S
Tb515 O554 2.546 . S
Tb515 O555 2.610 . S
Tb515 O557 2.320 . S
Tb515 O558 2.552 . S
Tb515 O559 2.413 . S
Tb515 C579 2.833 . S
N516 C508 1.360 . S
N516 Tb515 2.660 . S
N516 C517 1.305 . S
C517 N516 1.305 . S
C517 C519 1.407 . S
C517 H524 0.930 . S
C518 C506 1.410 . S
C518 C519 1.345 . S
C518 H526 0.930 . S
C519 C517 1.407 . S
C519 C518 1.345 . S
C519 H521 0.930 . S
H520 C513 0.930 . S
H521 C519 0.930 . S
H522 C510 0.930 . S
H523 C511 0.931 . S
H524 C517 0.930 . S
H525 C539 0.930 . S
H526 C518 0.930 . S
H527 C545 0.930 . S
H528 C536 0.930 . S
H529 C543 0.931 . S
H530 C507 0.929 . S
H531 C537 0.930 . S
H532 C570 0.930 . S
H533 C514 0.930 . S
H534 C569 0.929 . S
N535 Tb504 2.660 . S
N535 C536 1.305 . S
N535 C540 1.360 . S
C536 H528 0.930 . S
C536 N535 1.305 . S
C536 C539 1.407 . S
C537 H531 0.930 . S
C537 C538 1.410 . S
C537 C539 1.345 . S
C538 C537 1.410 . S
C538 C540 1.417 . S
C538 C570 1.432 . S
C539 H525 0.930 . S
C539 C536 1.407 . S
C539 C537 1.345 . S
C540 N535 1.360 . S
C540 C538 1.417 . S
C540 C544 1.432 . S
H541 C546 0.930 . S
N542 Tb504 2.600 . S
N542 C544 1.359 . S
N542 C545 1.327 . S
C543 H529 0.931 . S
C543 C545 1.392 . S
C543 C546 1.370 . S
C544 C540 1.432 . S
C544 N542 1.359 . S
C544 C547 1.414 . S
C545 H527 0.930 . S
C545 N542 1.327 . S
C545 C543 1.392 . S
C546 H541 0.930 . S
C546 C543 1.370 . S
C546 C547 1.385 . S
C547 C544 1.414 . S
C547 C546 1.385 . S
C547 C569 1.444 . S
O548 Tb504 2.546 . S
O548 C568 1.251 . S
O549 Tb504 2.610 . S
O549 Tb515 2.362 . S
O549 C560 1.283 . S
O550 Tb515 2.421 . S
O550 C567 1.262 . S
O551 Tb504 2.320 . S
O551 C567 1.260 . S
O552 Tb504 2.552 . S
O552 C560 1.243 . S
O553 Tb504 2.413 . S
O553 C568 1.256 . S
O554 Tb515 2.546 . S
O554 C579 1.251 . S
O555 Tb504 2.362 . S
O555 Tb515 2.610 . S
O555 C571 1.283 . S
O556 Tb504 2.421 . S
O556 C578 1.262 . S
O557 Tb515 2.320 . S
O557 C578 1.260 . S
O558 Tb515 2.552 . S
O558 C571 1.243 . S
O559 Tb515 2.413 . S
O559 C579 1.256 . S
C560 O549 1.283 . S
C560 O552 1.243 . S
C561 C563 1.382 . S
C561 C565 1.393 . S
C561 C568 1.500 . S
C562 C563 1.400 . S
C562 C564 1.384 . S
C563 C561 1.382 . S
C563 C562 1.400 . S
C563 H580 0.930 . S
C564 C562 1.384 . S
C564 C566 1.392 . S
C564 H581 0.931 . S
C565 C561 1.393 . S
C565 C566 1.401 . S
C565 H582 0.930 . S
C566 C564 1.392 . S
C566 C565 1.401 . S
C566 H583 0.930 . S
C567 O550 1.262 . S
C567 O551 1.260 . S
C568 Tb504 2.833 . S
C568 O548 1.251 . S
C568 O553 1.256 . S
C568 C561 1.500 . S
C569 H534 0.929 . S
C569 C547 1.444 . S
C569 C570 1.317 . S
C570 H532 0.930 . S
C570 C538 1.432 . S
C570 C569 1.317 . S
C571 O555 1.283 . S
C571 O558 1.243 . S
C572 C573 1.382 . S
C572 C576 1.393 . S
C572 C579 1.500 . S
C573 C572 1.382 . S
C573 C574 1.400 . S
C573 H584 0.930 . S
C574 C573 1.400 . S
C574 C575 1.384 . S
C575 C574 1.384 . S
C575 C577 1.392 . S
C575 H585 0.931 . S
C576 C572 1.393 . S
C576 C577 1.401 . S
C576 H586 0.930 . S
C577 C575 1.392 . S
C577 C576 1.401 . S
C577 H587 0.930 . S
C578 O556 1.262 . S
C578 O557 1.260 . S
C579 Tb515 2.833 . S
C579 O554 1.251 . S
C579 O559 1.256 . S
C579 C572 1.500 . S
H580 C563 0.930 . S
H581 C564 0.931 . S
H582 C565 0.930 . S
H583 C566 0.930 . S
H584 C573 0.930 . S
H585 C575 0.931 . S
H586 C576 0.930 . S
H587 C577 0.930 . S
Tb588 N619 2.660 . S
Tb588 N626 2.600 . S
Tb588 O632 2.546 . S
Tb588 O633 2.610 . S
Tb588 O635 2.320 . S
Tb588 O636 2.552 . S
Tb588 O637 2.413 . S
Tb588 O639 2.362 . S
Tb588 O640 2.421 . S
Tb588 C652 2.833 . S
C589 C592 1.432 . S
C589 C593 1.414 . S
C589 N596 1.359 . S
C590 C592 1.417 . S
C590 C594 1.432 . S
C590 C602 1.410 . S
C591 C593 1.444 . S
C591 C594 1.317 . S
C591 H614 0.929 . S
C592 C589 1.432 . S
C592 C590 1.417 . S
C592 N600 1.360 . S
C593 C589 1.414 . S
C593 C591 1.444 . S
C593 C598 1.385 . S
C594 C590 1.432 . S
C594 C591 1.317 . S
C594 H606 0.930 . S
C595 C597 1.392 . S
C595 C598 1.370 . S
C595 H607 0.931 . S
N596 C589 1.359 . S
N596 C597 1.327 . S
N596 Tb599 2.600 . S
C597 C595 1.392 . S
C597 N596 1.327 . S
C597 H604 0.930 . S
C598 C593 1.385 . S
C598 C595 1.370 . S
C598 H617 0.930 . S
Tb599 N596 2.600 . S
Tb599 N600 2.660 . S
Tb599 O633 2.362 . S
Tb599 O634 2.421 . S
Tb599 O638 2.546 . S
Tb599 O639 2.610 . S
Tb599 O641 2.320 . S
Tb599 O642 2.552 . S
Tb599 O643 2.413 . S
Tb599 C663 2.833 . S
N600 C592 1.360 . S
N600 Tb599 2.660 . S
N600 C601 1.305 . S
C601 N600 1.305 . S
C601 C603 1.407 . S
C601 H608 0.930 . S
C602 C590 1.410 . S
C602 C603 1.345 . S
C602 H610 0.930 . S
C603 C601 1.407 . S
C603 C602 1.345 . S
C603 H605 0.930 . S
H604 C597 0.930 . S
H605 C603 0.930 . S
H606 C594 0.930 . S
H607 C595 0.931 . S
H608 C601 0.930 . S
H609 C623 0.930 . S
H610 C602 0.930 . S
H611 C629 0.930 . S
H612 C620 0.930 . S
H613 C627 0.931 . S
H614 C591 0.929 . S
H615 C621 0.930 . S
H616 C654 0.930 . S
H617 C598 0.930 . S
H618 C653 0.929 . S
N619 Tb588 2.660 . S
N619 C620 1.305 . S
N619 C624 1.360 . S
C620 H612 0.930 . S
C620 N619 1.305 . S
C620 C623 1.407 . S
C621 H615 0.930 . S
C621 C622 1.410 . S
C621 C623 1.345 . S
C622 C621 1.410 . S
C622 C624 1.417 . S
C622 C654 1.432 . S
C623 H609 0.930 . S
C623 C620 1.407 . S
C623 C621 1.345 . S
C624 N619 1.360 . S
C624 C622 1.417 . S
C624 C628 1.432 . S
H625 C630 0.930 . S
N626 Tb588 2.600 . S
N626 C628 1.359 . S
N626 C629 1.327 . S
C627 H613 0.931 . S
C627 C629 1.392 . S
C627 C630 1.370 . S
C628 C624 1.432 . S
C628 N626 1.359 . S
C628 C631 1.414 . S
C629 H611 0.930 . S
C629 N626 1.327 . S
C629 C627 1.392 . S
C630 H625 0.930 . S
C630 C627 1.370 . S
C630 C631 1.385 . S
C631 C628 1.414 . S
C631 C630 1.385 . S
C631 C653 1.444 . S
O632 Tb588 2.546 . S
O632 C652 1.251 . S
O633 Tb588 2.610 . S
O633 Tb599 2.362 . S
O633 C644 1.283 . S
O634 Tb599 2.421 . S
O634 C651 1.262 . S
O635 Tb588 2.320 . S
O635 C651 1.260 . S
O636 Tb588 2.552 . S
O636 C644 1.243 . S
O637 Tb588 2.413 . S
O637 C652 1.256 . S
O638 Tb599 2.546 . S
O638 C663 1.251 . S
O639 Tb588 2.362 . S
O639 Tb599 2.610 . S
O639 C655 1.283 . S
O640 Tb588 2.421 . S
O640 C662 1.262 . S
O641 Tb599 2.320 . S
O641 C662 1.260 . S
O642 Tb599 2.552 . S
O642 C655 1.243 . S
O643 Tb599 2.413 . S
O643 C663 1.256 . S
C644 O633 1.283 . S
C644 O636 1.243 . S
C645 C647 1.382 . S
C645 C649 1.393 . S
C645 C652 1.500 . S
C646 C647 1.400 . S
C646 C648 1.384 . S
C647 C645 1.382 . S
C647 C646 1.400 . S
C647 H664 0.930 . S
C648 C646 1.384 . S
C648 C650 1.392 . S
C648 H665 0.931 . S
C649 C645 1.393 . S
C649 C650 1.401 . S
C649 H666 0.930 . S
C650 C648 1.392 . S
C650 C649 1.401 . S
C650 H667 0.930 1_554 S
C651 O634 1.262 . S
C651 O635 1.260 . S
C652 Tb588 2.833 . S
C652 O632 1.251 . S
C652 O637 1.256 . S
C652 C645 1.500 . S
C653 H618 0.929 . S
C653 C631 1.444 . S
C653 C654 1.317 . S
C654 H616 0.930 . S
C654 C622 1.432 . S
C654 C653 1.317 . S
C655 O639 1.283 . S
C655 O642 1.243 . S
C656 C657 1.382 . S
C656 C660 1.393 . S
C656 C663 1.500 . S
C657 C656 1.382 . S
C657 C658 1.400 . S
C657 H668 0.930 . S
C658 C657 1.400 . S
C658 C659 1.384 . S
C659 C658 1.384 . S
C659 C661 1.392 . S
C659 H669 0.931 . S
C660 C656 1.393 . S
C660 C661 1.401 . S
C660 H670 0.930 . S
C661 C659 1.392 . S
C661 C660 1.401 . S
C661 H671 0.930 . S
C662 O640 1.262 . S
C662 O641 1.260 . S
C663 Tb599 2.833 . S
C663 O638 1.251 . S
C663 O643 1.256 . S
C663 C656 1.500 . S
H664 C647 0.930 . S
H665 C648 0.931 . S
H666 C649 0.930 . S
H667 C650 0.930 1_556 S
H668 C657 0.930 . S
H669 C659 0.931 . S
H670 C660 0.930 . S
H671 C661 0.930 . S
Tb672 N703 2.660 . S
Tb672 N710 2.600 . S
Tb672 O716 2.546 1_554 S
Tb672 O717 2.610 . S
Tb672 O719 2.320 1_554 S
Tb672 O720 2.552 1_554 S
Tb672 O721 2.413 1_554 S
Tb672 O723 2.362 . S
Tb672 O724 2.421 . S
Tb672 C736 2.833 1_554 S
C673 C676 1.432 . S
C673 C677 1.414 1_554 S
C673 N680 1.359 . S
C674 C676 1.417 . S
C674 C678 1.432 1_554 S
C674 C686 1.410 . S
C675 C677 1.444 . S
C675 C678 1.317 . S
C675 H698 0.929 . S
C676 C673 1.432 . S
C676 C674 1.417 . S
C676 N684 1.360 . S
C677 C673 1.414 1_556 S
C677 C675 1.444 . S
C677 C682 1.385 . S
C678 C674 1.432 1_556 S
C678 C675 1.317 . S
C678 H690 0.930 . S
C679 C681 1.392 1_556 S
C679 C682 1.370 . S
C679 H691 0.931 . S
N680 C673 1.359 . S
N680 C681 1.327 . S
N680 Tb683 2.600 . S
C681 C679 1.392 1_554 S
C681 N680 1.327 . S
C681 H688 0.930 . S
C682 C677 1.385 . S
C682 C679 1.370 . S
C682 H701 0.930 . S
Tb683 N680 2.600 . S
Tb683 N684 2.660 . S
Tb683 O717 2.362 . S
Tb683 O718 2.421 . S
Tb683 O722 2.546 . S
Tb683 O723 2.610 . S
Tb683 O725 2.320 . S
Tb683 O726 2.552 . S
Tb683 O727 2.413 . S
Tb683 C747 2.833 . S
N684 C676 1.360 . S
N684 Tb683 2.660 . S
N684 C685 1.305 . S
C685 N684 1.305 . S
C685 C687 1.407 . S
C685 H692 0.930 . S
C686 C674 1.410 . S
C686 C687 1.345 . S
C686 H694 0.930 . S
C687 C685 1.407 . S
C687 C686 1.345 . S
C687 H689 0.930 . S
H688 C681 0.930 . S
H689 C687 0.930 . S
H690 C678 0.930 . S
H691 C679 0.931 . S
H692 C685 0.930 . S
H693 C707 0.930 . S
H694 C686 0.930 . S
H695 C713 0.930 . S
H696 C704 0.930 . S
H697 C711 0.931 . S
H698 C675 0.929 . S
H699 C705 0.930 . S
H700 C738 0.930 . S
H701 C682 0.930 . S
H702 C737 0.929 . S
N703 Tb672 2.660 . S
N703 C704 1.305 . S
N703 C708 1.360 . S
C704 H696 0.930 . S
C704 N703 1.305 . S
C704 C707 1.407 . S
C705 H699 0.930 . S
C705 C706 1.410 . S
C705 C707 1.345 . S
C706 C705 1.410 . S
C706 C708 1.417 . S
C706 C738 1.432 . S
C707 H693 0.930 . S
C707 C704 1.407 . S
C707 C705 1.345 . S
C708 N703 1.360 . S
C708 C706 1.417 . S
C708 C712 1.432 . S
H709 C714 0.930 . S
N710 Tb672 2.600 . S
N710 C712 1.359 . S
N710 C713 1.327 . S
C711 H697 0.931 . S
C711 C713 1.392 . S
C711 C714 1.370 . S
C712 C708 1.432 . S
C712 N710 1.359 . S
C712 C715 1.414 . S
C713 H695 0.930 . S
C713 N710 1.327 . S
C713 C711 1.392 . S
C714 H709 0.930 . S
C714 C711 1.370 . S
C714 C715 1.385 . S
C715 C712 1.414 . S
C715 C714 1.385 . S
C715 C737 1.444 . S
O716 Tb672 2.546 1_556 S
O716 C736 1.251 . S
O717 Tb672 2.610 . S
O717 Tb683 2.362 . S
O717 C728 1.283 1_554 S
O718 Tb683 2.421 . S
O718 C735 1.262 1_554 S
O719 Tb672 2.320 1_556 S
O719 C735 1.260 . S
O720 Tb672 2.552 1_556 S
O720 C728 1.243 . S
O721 Tb672 2.413 1_556 S
O721 C736 1.256 . S
O722 Tb683 2.546 . S
O722 C747 1.251 . S
O723 Tb672 2.362 . S
O723 Tb683 2.610 . S
O723 C739 1.283 . S
O724 Tb672 2.421 . S
O724 C746 1.262 . S
O725 Tb683 2.320 . S
O725 C746 1.260 . S
O726 Tb683 2.552 . S
O726 C739 1.243 . S
O727 Tb683 2.413 . S
O727 C747 1.256 . S
C728 O717 1.283 1_556 S
C728 O720 1.243 . S
C729 C731 1.382 . S
C729 C733 1.393 . S
C729 C736 1.500 . S
C730 C731 1.400 . S
C730 C732 1.384 . S
C731 C729 1.382 . S
C731 C730 1.400 . S
C731 H748 0.930 . S
C732 C730 1.384 . S
C732 C734 1.392 . S
C732 H749 0.931 . S
C733 C729 1.393 . S
C733 C734 1.401 . S
C733 H750 0.930 . S
C734 C732 1.392 . S
C734 C733 1.401 . S
C734 H751 0.930 . S
C735 O718 1.262 1_556 S
C735 O719 1.260 . S
C736 Tb672 2.833 1_556 S
C736 O716 1.251 . S
C736 O721 1.256 . S
C736 C729 1.500 . S
C737 H702 0.929 . S
C737 C715 1.444 . S
C737 C738 1.317 . S
C738 H700 0.930 . S
C738 C706 1.432 . S
C738 C737 1.317 . S
C739 O723 1.283 . S
C739 O726 1.243 . S
C740 C741 1.382 . S
C740 C744 1.393 . S
C740 C747 1.500 . S
C741 C740 1.382 . S
C741 C742 1.400 . S
C741 H752 0.930 . S
C742 C741 1.400 . S
C742 C743 1.384 . S
C743 C742 1.384 . S
C743 C745 1.392 . S
C743 H753 0.931 . S
C744 C740 1.393 . S
C744 C745 1.401 . S
C744 H754 0.930 . S
C745 C743 1.392 . S
C745 C744 1.401 . S
C745 H755 0.930 . S
C746 O724 1.262 . S
C746 O725 1.260 . S
C747 Tb683 2.833 . S
C747 O722 1.251 . S
C747 O727 1.256 . S
C747 C740 1.500 . S
H748 C731 0.930 . S
H749 C732 0.931 . S
H750 C733 0.930 . S
H751 C734 0.930 . S
H752 C741 0.930 . S
H753 C743 0.931 . S
H754 C744 0.930 . S
H755 C745 0.930 . S
Tb756 N787 2.660 . S
Tb756 N794 2.600 . S
Tb756 O800 2.546 1_556 S
Tb756 O801 2.610 . S
Tb756 O803 2.320 1_556 S
Tb756 O804 2.552 1_556 S
Tb756 O805 2.413 1_556 S
Tb756 O807 2.362 . S
Tb756 O808 2.421 . S
Tb756 C820 2.833 1_556 S
C757 C760 1.432 . S
C757 C761 1.414 1_556 S
C757 N764 1.359 . S
C758 C760 1.417 . S
C758 C762 1.432 1_556 S
C758 C770 1.410 . S
C759 C761 1.444 . S
C759 C762 1.317 . S
C759 H782 0.929 . S
C760 C757 1.432 . S
C760 C758 1.417 . S
C760 N768 1.360 . S
C761 C757 1.414 1_554 S
C761 C759 1.444 . S
C761 C766 1.385 . S
C762 C758 1.432 1_554 S
C762 C759 1.317 . S
C762 H774 0.930 . S
C763 C765 1.392 1_554 S
C763 C766 1.370 . S
C763 H775 0.931 . S
N764 C757 1.359 . S
N764 C765 1.327 . S
N764 Tb767 2.600 . S
C765 C763 1.392 1_556 S
C765 N764 1.327 . S
C765 H772 0.930 . S
C766 C761 1.385 . S
C766 C763 1.370 . S
C766 H785 0.930 . S
Tb767 N764 2.600 . S
Tb767 N768 2.660 . S
Tb767 O801 2.362 . S
Tb767 O802 2.421 . S
Tb767 O806 2.546 . S
Tb767 O807 2.610 . S
Tb767 O809 2.320 . S
Tb767 O810 2.552 . S
Tb767 O811 2.413 . S
Tb767 C831 2.833 . S
N768 C760 1.360 . S
N768 Tb767 2.660 . S
N768 C769 1.305 . S
C769 N768 1.305 . S
C769 C771 1.407 . S
C769 H776 0.930 . S
C770 C758 1.410 . S
C770 C771 1.345 . S
C770 H778 0.930 . S
C771 C769 1.407 . S
C771 C770 1.345 . S
C771 H773 0.930 . S
H772 C765 0.930 . S
H773 C771 0.930 . S
H774 C762 0.930 . S
H775 C763 0.931 . S
H776 C769 0.930 . S
H777 C791 0.930 . S
H778 C770 0.930 . S
H779 C797 0.930 . S
H780 C788 0.930 . S
H781 C795 0.931 . S
H782 C759 0.929 . S
H783 C789 0.930 . S
H784 C822 0.930 . S
H785 C766 0.930 . S
H786 C821 0.929 . S
N787 Tb756 2.660 . S
N787 C788 1.305 . S
N787 C792 1.360 . S
C788 H780 0.930 . S
C788 N787 1.305 . S
C788 C791 1.407 . S
C789 H783 0.930 . S
C789 C790 1.410 . S
C789 C791 1.345 . S
C790 C789 1.410 . S
C790 C792 1.417 . S
C790 C822 1.432 . S
C791 H777 0.930 . S
C791 C788 1.407 . S
C791 C789 1.345 . S
C792 N787 1.360 . S
C792 C790 1.417 . S
C792 C796 1.432 . S
H793 C798 0.930 . S
N794 Tb756 2.600 . S
N794 C796 1.359 . S
N794 C797 1.327 . S
C795 H781 0.931 . S
C795 C797 1.392 . S
C795 C798 1.370 . S
C796 C792 1.432 . S
C796 N794 1.359 . S
C796 C799 1.414 . S
C797 H779 0.930 . S
C797 N794 1.327 . S
C797 C795 1.392 . S
C798 H793 0.930 . S
C798 C795 1.370 . S
C798 C799 1.385 . S
C799 C796 1.414 . S
C799 C798 1.385 . S
C799 C821 1.444 . S
O800 Tb756 2.546 1_554 S
O800 C820 1.251 . S
O801 Tb756 2.610 . S
O801 Tb767 2.362 . S
O801 C812 1.283 1_556 S
O802 Tb767 2.421 . S
O802 C819 1.262 1_556 S
O803 Tb756 2.320 1_554 S
O803 C819 1.260 . S
O804 Tb756 2.552 1_554 S
O804 C812 1.243 . S
O805 Tb756 2.413 1_554 S
O805 C820 1.256 . S
O806 Tb767 2.546 . S
O806 C831 1.251 . S
O807 Tb756 2.362 . S
O807 Tb767 2.610 . S
O807 C823 1.283 . S
O808 Tb756 2.421 . S
O808 C830 1.262 . S
O809 Tb767 2.320 . S
O809 C830 1.260 . S
O810 Tb767 2.552 . S
O810 C823 1.243 . S
O811 Tb767 2.413 . S
O811 C831 1.256 . S
C812 O801 1.283 1_554 S
C812 O804 1.243 . S
C813 C815 1.382 . S
C813 C817 1.393 . S
C813 C820 1.500 . S
C814 C815 1.400 . S
C814 C816 1.384 . S
C815 C813 1.382 . S
C815 C814 1.400 . S
C815 H832 0.930 . S
C816 C814 1.384 . S
C816 C818 1.392 . S
C816 H833 0.931 . S
C817 C813 1.393 . S
C817 C818 1.401 . S
C817 H834 0.930 . S
C818 C816 1.392 . S
C818 C817 1.401 . S
C818 H835 0.930 1_655 S
C819 O802 1.262 1_554 S
C819 O803 1.260 . S
C820 Tb756 2.833 1_554 S
C820 O800 1.251 . S
C820 O805 1.256 . S
C820 C813 1.500 . S
C821 H786 0.929 . S
C821 C799 1.444 . S
C821 C822 1.317 . S
C822 H784 0.930 . S
C822 C790 1.432 . S
C822 C821 1.317 . S
C823 O807 1.283 . S
C823 O810 1.243 . S
C824 C825 1.382 . S
C824 C828 1.393 . S
C824 C831 1.500 . S
C825 C824 1.382 . S
C825 C826 1.400 . S
C825 H836 0.930 . S
C826 C825 1.400 . S
C826 C827 1.384 . S
C827 C826 1.384 . S
C827 C829 1.392 . S
C827 H837 0.931 . S
C828 C824 1.393 . S
C828 C829 1.401 . S
C828 H838 0.930 . S
C829 C827 1.392 . S
C829 C828 1.401 . S
C829 H839 0.930 . S
C830 O808 1.262 . S
C830 O809 1.260 . S
C831 Tb767 2.833 . S
C831 O806 1.251 . S
C831 O811 1.256 . S
C831 C824 1.500 . S
H832 C815 0.930 . S
H833 C816 0.931 . S
H834 C817 0.930 . S
H835 C818 0.930 1_455 S
H836 C825 0.930 . S
H837 C827 0.931 . S
H838 C828 0.930 . S
H839 C829 0.930 . S
Tb840 N871 2.660 . S
Tb840 N878 2.600 . S
Tb840 O884 2.546 . S
Tb840 O885 2.610 . S
Tb840 O887 2.320 . S
Tb840 O888 2.552 . S
Tb840 O889 2.413 . S
Tb840 O891 2.362 . S
Tb840 O892 2.421 . S
Tb840 C904 2.833 . S
C841 C844 1.432 . S
C841 C845 1.414 . S
C841 N848 1.359 . S
C842 C844 1.417 . S
C842 C846 1.432 . S
C842 C854 1.410 . S
C843 C845 1.444 . S
C843 C846 1.317 . S
C843 H866 0.929 . S
C844 C841 1.432 . S
C844 C842 1.417 . S
C844 N852 1.360 . S
C845 C841 1.414 . S
C845 C843 1.444 . S
C845 C850 1.385 . S
C846 C842 1.432 . S
C846 C843 1.317 . S
C846 H858 0.930 . S
C847 C849 1.392 . S
C847 C850 1.370 . S
C847 H859 0.931 . S
N848 C841 1.359 . S
N848 C849 1.327 . S
N848 Tb851 2.600 . S
C849 C847 1.392 . S
C849 N848 1.327 . S
C849 H856 0.930 . S
C850 C845 1.385 . S
C850 C847 1.370 . S
C850 H869 0.930 . S
Tb851 N848 2.600 . S
Tb851 N852 2.660 . S
Tb851 O885 2.362 . S
Tb851 O886 2.421 . S
Tb851 O890 2.546 . S
Tb851 O891 2.610 . S
Tb851 O893 2.320 . S
Tb851 O894 2.552 . S
Tb851 O895 2.413 . S
Tb851 C915 2.833 . S
N852 C844 1.360 . S
N852 Tb851 2.660 . S
N852 C853 1.305 . S
C853 N852 1.305 . S
C853 C855 1.407 . S
C853 H860 0.930 . S
C854 C842 1.410 . S
C854 C855 1.345 . S
C854 H862 0.930 . S
C855 C853 1.407 . S
C855 C854 1.345 . S
C855 H857 0.930 . S
H856 C849 0.930 . S
H857 C855 0.930 . S
H858 C846 0.930 . S
H859 C847 0.931 . S
H860 C853 0.930 . S
H861 C875 0.930 . S
H862 C854 0.930 . S
H863 C881 0.930 . S
H864 C872 0.930 . S
H865 C879 0.931 . S
H866 C843 0.929 . S
H867 C873 0.930 . S
H868 C906 0.930 . S
H869 C850 0.930 . S
H870 C905 0.929 . S
N871 Tb840 2.660 . S
N871 C872 1.305 . S
N871 C876 1.360 . S
C872 H864 0.930 . S
C872 N871 1.305 . S
C872 C875 1.407 . S
C873 H867 0.930 . S
C873 C874 1.410 . S
C873 C875 1.345 . S
C874 C873 1.410 . S
C874 C876 1.417 . S
C874 C906 1.432 . S
C875 H861 0.930 . S
C875 C872 1.407 . S
C875 C873 1.345 . S
C876 N871 1.360 . S
C876 C874 1.417 . S
C876 C880 1.432 . S
H877 C882 0.930 . S
N878 Tb840 2.600 . S
N878 C880 1.359 . S
N878 C881 1.327 . S
C879 H865 0.931 . S
C879 C881 1.392 . S
C879 C882 1.370 . S
C880 C876 1.432 . S
C880 N878 1.359 . S
C880 C883 1.414 . S
C881 H863 0.930 . S
C881 N878 1.327 . S
C881 C879 1.392 . S
C882 H877 0.930 . S
C882 C879 1.370 . S
C882 C883 1.385 . S
C883 C880 1.414 . S
C883 C882 1.385 . S
C883 C905 1.444 . S
O884 Tb840 2.546 . S
O884 C904 1.251 . S
O885 Tb840 2.610 . S
O885 Tb851 2.362 . S
O885 C896 1.283 . S
O886 Tb851 2.421 . S
O886 C903 1.262 . S
O887 Tb840 2.320 . S
O887 C903 1.260 . S
O888 Tb840 2.552 . S
O888 C896 1.243 . S
O889 Tb840 2.413 . S
O889 C904 1.256 . S
O890 Tb851 2.546 . S
O890 C915 1.251 . S
O891 Tb840 2.362 . S
O891 Tb851 2.610 . S
O891 C907 1.283 . S
O892 Tb840 2.421 . S
O892 C914 1.262 . S
O893 Tb851 2.320 . S
O893 C914 1.260 . S
O894 Tb851 2.552 . S
O894 C907 1.243 . S
O895 Tb851 2.413 . S
O895 C915 1.256 . S
C896 O885 1.283 . S
C896 O888 1.243 . S
C897 C899 1.382 . S
C897 C901 1.393 . S
C897 C904 1.500 . S
C898 C899 1.400 . S
C898 C900 1.384 . S
C899 C897 1.382 . S
C899 C898 1.400 . S
C899 H916 0.930 . S
C900 C898 1.384 . S
C900 C902 1.392 . S
C900 H917 0.931 . S
C901 C897 1.393 . S
C901 C902 1.401 . S
C901 H918 0.930 . S
C902 C900 1.392 . S
C902 C901 1.401 . S
C902 H919 0.930 . S
C903 O886 1.262 . S
C903 O887 1.260 . S
C904 Tb840 2.833 . S
C904 O884 1.251 . S
C904 O889 1.256 . S
C904 C897 1.500 . S
C905 H870 0.929 . S
C905 C883 1.444 . S
C905 C906 1.317 . S
C906 H868 0.930 . S
C906 C874 1.432 . S
C906 C905 1.317 . S
C907 O891 1.283 . S
C907 O894 1.243 . S
C908 C909 1.382 . S
C908 C912 1.393 . S
C908 C915 1.500 . S
C909 C908 1.382 . S
C909 C910 1.400 . S
C909 H920 0.930 . S
C910 C909 1.400 . S
C910 C911 1.384 . S
C911 C910 1.384 . S
C911 C913 1.392 . S
C911 H921 0.931 . S
C912 C908 1.393 . S
C912 C913 1.401 . S
C912 H922 0.930 . S
C913 C911 1.392 . S
C913 C912 1.401 . S
C913 H923 0.930 . S
C914 O892 1.262 . S
C914 O893 1.260 . S
C915 Tb851 2.833 . S
C915 O890 1.251 . S
C915 O895 1.256 . S
C915 C908 1.500 . S
H916 C899 0.930 . S
H917 C900 0.931 . S
H918 C901 0.930 . S
H919 C902 0.930 . S
H920 C909 0.930 . S
H921 C911 0.931 . S
H922 C912 0.930 . S
H923 C913 0.930 . S
Tb924 N955 2.660 . S
Tb924 N962 2.600 . S
Tb924 O968 2.546 . S
Tb924 O969 2.610 . S
Tb924 O971 2.320 . S
Tb924 O972 2.552 . S
Tb924 O973 2.413 . S
Tb924 O975 2.362 . S
Tb924 O976 2.421 . S
Tb924 C988 2.833 . S
C925 C928 1.432 . S
C925 C929 1.414 . S
C925 N932 1.359 . S
C926 C928 1.417 . S
C926 C930 1.432 . S
C926 C938 1.410 . S
C927 C929 1.444 . S
C927 C930 1.317 . S
C927 H950 0.929 . S
C928 C925 1.432 . S
C928 C926 1.417 . S
C928 N936 1.360 . S
C929 C925 1.414 . S
C929 C927 1.444 . S
C929 C934 1.385 . S
C930 C926 1.432 . S
C930 C927 1.317 . S
C930 H942 0.930 . S
C931 C933 1.392 . S
C931 C934 1.370 . S
C931 H943 0.931 . S
N932 C925 1.359 . S
N932 C933 1.327 . S
N932 Tb935 2.600 . S
C933 C931 1.392 . S
C933 N932 1.327 . S
C933 H940 0.930 . S
C934 C929 1.385 . S
C934 C931 1.370 . S
C934 H953 0.930 . S
Tb935 N932 2.600 . S
Tb935 N936 2.660 . S
Tb935 O969 2.362 . S
Tb935 O970 2.421 . S
Tb935 O974 2.546 . S
Tb935 O975 2.610 . S
Tb935 O977 2.320 . S
Tb935 O978 2.552 . S
Tb935 O979 2.413 . S
Tb935 C999 2.833 . S
N936 C928 1.360 . S
N936 Tb935 2.660 . S
N936 C937 1.305 . S
C937 N936 1.305 . S
C937 C939 1.407 . S
C937 H944 0.930 . S
C938 C926 1.410 . S
C938 C939 1.345 . S
C938 H946 0.930 . S
C939 C937 1.407 . S
C939 C938 1.345 . S
C939 H941 0.930 . S
H940 C933 0.930 . S
H941 C939 0.930 . S
H942 C930 0.930 . S
H943 C931 0.931 . S
H944 C937 0.930 . S
H945 C959 0.930 . S
H946 C938 0.930 . S
H947 C965 0.930 . S
H948 C956 0.930 . S
H949 C963 0.931 . S
H950 C927 0.929 . S
H951 C957 0.930 . S
H952 C990 0.930 . S
H953 C934 0.930 . S
H954 C989 0.929 . S
N955 Tb924 2.660 . S
N955 C956 1.305 . S
N955 C960 1.360 . S
C956 H948 0.930 . S
C956 N955 1.305 . S
C956 C959 1.407 . S
C957 H951 0.930 . S
C957 C958 1.410 . S
C957 C959 1.345 . S
C958 C957 1.410 . S
C958 C960 1.417 . S
C958 C990 1.432 . S
C959 H945 0.930 . S
C959 C956 1.407 . S
C959 C957 1.345 . S
C960 N955 1.360 . S
C960 C958 1.417 . S
C960 C964 1.432 . S
H961 C966 0.930 . S
N962 Tb924 2.600 . S
N962 C964 1.359 . S
N962 C965 1.327 . S
C963 H949 0.931 . S
C963 C965 1.392 . S
C963 C966 1.370 . S
C964 C960 1.432 . S
C964 N962 1.359 . S
C964 C967 1.414 . S
C965 H947 0.930 . S
C965 N962 1.327 . S
C965 C963 1.392 . S
C966 H961 0.930 . S
C966 C963 1.370 . S
C966 C967 1.385 . S
C967 C964 1.414 . S
C967 C966 1.385 . S
C967 C989 1.444 . S
O968 Tb924 2.546 . S
O968 C988 1.251 . S
O969 Tb924 2.610 . S
O969 Tb935 2.362 . S
O969 C980 1.283 . S
O970 Tb935 2.421 . S
O970 C987 1.262 . S
O971 Tb924 2.320 . S
O971 C987 1.260 . S
O972 Tb924 2.552 . S
O972 C980 1.243 . S
O973 Tb924 2.413 . S
O973 C988 1.256 . S
O974 Tb935 2.546 . S
O974 C999 1.251 . S
O975 Tb924 2.362 . S
O975 Tb935 2.610 . S
O975 C991 1.283 . S
O976 Tb924 2.421 . S
O976 C998 1.262 . S
O977 Tb935 2.320 . S
O977 C998 1.260 . S
O978 Tb935 2.552 . S
O978 C991 1.243 . S
O979 Tb935 2.413 . S
O979 C999 1.256 . S
C980 O969 1.283 . S
C980 O972 1.243 . S
C981 C983 1.382 . S
C981 C985 1.393 . S
C981 C988 1.500 . S
C982 C983 1.400 . S
C982 C984 1.384 . S
C983 C981 1.382 . S
C983 C982 1.400 . S
C983 H1000 0.930 . S
C984 C982 1.384 . S
C984 C986 1.392 . S
C984 H1001 0.931 . S
C985 C981 1.393 . S
C985 C986 1.401 . S
C985 H1002 0.930 . S
C986 C984 1.392 . S
C986 C985 1.401 . S
C986 H1003 0.930 1_455 S
C987 O970 1.262 . S
C987 O971 1.260 . S
C988 Tb924 2.833 . S
C988 O968 1.251 . S
C988 O973 1.256 . S
C988 C981 1.500 . S
C989 H954 0.929 . S
C989 C967 1.444 . S
C989 C990 1.317 . S
C990 H952 0.930 . S
C990 C958 1.432 . S
C990 C989 1.317 . S
C991 O975 1.283 . S
C991 O978 1.243 . S
C992 C993 1.382 . S
C992 C996 1.393 . S
C992 C999 1.500 . S
C993 C992 1.382 . S
C993 C994 1.400 . S
C993 H1004 0.930 . S
C994 C993 1.400 . S
C994 C995 1.384 . S
C995 C994 1.384 . S
C995 C997 1.392 . S
C995 H1005 0.931 . S
C996 C992 1.393 . S
C996 C997 1.401 . S
C996 H1006 0.930 . S
C997 C995 1.392 . S
C997 C996 1.401 . S
C997 H1007 0.930 . S
C998 O976 1.262 . S
C998 O977 1.260 . S
C999 Tb935 2.833 . S
C999 O974 1.251 . S
C999 O979 1.256 . S
C999 C992 1.500 . S
H1000 C983 0.930 . S
H1001 C984 0.931 . S
H1002 C985 0.930 . S
H1003 C986 0.930 1_655 S
H1004 C993 0.930 . S
H1005 C995 0.931 . S
H1006 C996 0.930 . S
H1007 C997 0.930 . S
Tb1008 N1039 2.660 . S
Tb1008 N1046 2.600 . S
Tb1008 O1052 2.546 . S
Tb1008 O1053 2.610 . S
Tb1008 O1055 2.320 . S
Tb1008 O1056 2.552 . S
Tb1008 O1057 2.413 . S
Tb1008 O1059 2.362 . S
Tb1008 O1060 2.421 . S
Tb1008 C1072 2.833 . S
C1009 C1012 1.432 . S
C1009 C1013 1.414 . S
C1009 N1016 1.359 . S
C1010 C1012 1.417 . S
C1010 C1014 1.432 . S
C1010 C1022 1.410 . S
C1011 C1013 1.444 . S
C1011 C1014 1.317 . S
C1011 H1034 0.929 . S
C1012 C1009 1.432 . S
C1012 C1010 1.417 . S
C1012 N1020 1.360 . S
C1013 C1009 1.414 . S
C1013 C1011 1.444 . S
C1013 C1018 1.385 . S
C1014 C1010 1.432 . S
C1014 C1011 1.317 . S
C1014 H1026 0.930 . S
C1015 C1017 1.392 . S
C1015 C1018 1.370 . S
C1015 H1027 0.931 . S
N1016 C1009 1.359 . S
N1016 C1017 1.327 . S
N1016 Tb1019 2.600 . S
C1017 C1015 1.392 . S
C1017 N1016 1.327 . S
C1017 H1024 0.930 . S
C1018 C1013 1.385 . S
C1018 C1015 1.370 . S
C1018 H1037 0.930 . S
Tb1019 N1016 2.600 . S
Tb1019 N1020 2.660 . S
Tb1019 O1053 2.362 . S
Tb1019 O1054 2.421 . S
Tb1019 O1058 2.546 1_655 S
Tb1019 O1059 2.610 . S
Tb1019 O1061 2.320 1_655 S
Tb1019 O1062 2.552 1_655 S
Tb1019 O1063 2.413 1_655 S
Tb1019 C1083 2.833 1_655 S
N1020 C1012 1.360 . S
N1020 Tb1019 2.660 . S
N1020 C1021 1.305 . S
C1021 N1020 1.305 . S
C1021 C1023 1.407 . S
C1021 H1028 0.930 . S
C1022 C1010 1.410 . S
C1022 C1023 1.345 . S
C1022 H1030 0.930 . S
C1023 C1021 1.407 . S
C1023 C1022 1.345 . S
C1023 H1025 0.930 . S
H1024 C1017 0.930 . S
H1025 C1023 0.930 . S
H1026 C1014 0.930 . S
H1027 C1015 0.931 . S
H1028 C1021 0.930 . S
H1029 C1043 0.930 . S
H1030 C1022 0.930 . S
H1031 C1049 0.930 . S
H1032 C1040 0.930 . S
H1033 C1047 0.931 . S
H1034 C1011 0.929 . S
H1035 C1041 0.930 . S
H1036 C1074 0.930 . S
H1037 C1018 0.930 . S
H1038 C1073 0.929 . S
N1039 Tb1008 2.660 . S
N1039 C1040 1.305 . S
N1039 C1044 1.360 . S
C1040 H1032 0.930 . S
C1040 N1039 1.305 . S
C1040 C1043 1.407 . S
C1041 H1035 0.930 . S
C1041 C1042 1.410 . S
C1041 C1043 1.345 . S
C1042 C1041 1.410 . S
C1042 C1044 1.417 . S
C1042 C1074 1.432 1_655 S
C1043 H1029 0.930 . S
C1043 C1040 1.407 . S
C1043 C1041 1.345 . S
C1044 N1039 1.360 . S
C1044 C1042 1.417 . S
C1044 C1048 1.432 . S
H1045 C1050 0.930 . S
N1046 Tb1008 2.600 . S
N1046 C1048 1.359 . S
N1046 C1049 1.327 . S
C1047 H1033 0.931 . S
C1047 C1049 1.392 1_455 S
C1047 C1050 1.370 . S
C1048 C1044 1.432 . S
C1048 N1046 1.359 . S
C1048 C1051 1.414 1_655 S
C1049 H1031 0.930 . S
C1049 N1046 1.327 . S
C1049 C1047 1.392 1_655 S
C1050 H1045 0.930 . S
C1050 C1047 1.370 . S
C1050 C1051 1.385 . S
C1051 C1048 1.414 1_455 S
C1051 C1050 1.385 . S
C1051 C1073 1.444 . S
O1052 Tb1008 2.546 . S
O1052 C1072 1.251 . S
O1053 Tb1008 2.610 . S
O1053 Tb1019 2.362 . S
O1053 C1064 1.283 . S
O1054 Tb1019 2.421 . S
O1054 C1071 1.262 . S
O1055 Tb1008 2.320 . S
O1055 C1071 1.260 . S
O1056 Tb1008 2.552 . S
O1056 C1064 1.243 . S
O1057 Tb1008 2.413 . S
O1057 C1072 1.256 . S
O1058 Tb1019 2.546 1_455 S
O1058 C1083 1.251 . S
O1059 Tb1008 2.362 . S
O1059 Tb1019 2.610 . S
O1059 C1075 1.283 1_655 S
O1060 Tb1008 2.421 . S
O1060 C1082 1.262 1_655 S
O1061 Tb1019 2.320 1_455 S
O1061 C1082 1.260 . S
O1062 Tb1019 2.552 1_455 S
O1062 C1075 1.243 . S
O1063 Tb1019 2.413 1_455 S
O1063 C1083 1.256 . S
C1064 O1053 1.283 . S
C1064 O1056 1.243 . S
C1065 C1067 1.382 . S
C1065 C1069 1.393 . S
C1065 C1072 1.500 . S
C1066 C1067 1.400 . S
C1066 C1068 1.384 . S
C1067 C1065 1.382 . S
C1067 C1066 1.400 . S
C1067 H1084 0.930 . S
C1068 C1066 1.384 . S
C1068 C1070 1.392 . S
C1068 H1085 0.931 . S
C1069 C1065 1.393 . S
C1069 C1070 1.401 . S
C1069 H1086 0.930 . S
C1070 C1068 1.392 . S
C1070 C1069 1.401 . S
C1070 H1087 0.930 . S
C1071 O1054 1.262 . S
C1071 O1055 1.260 . S
C1072 Tb1008 2.833 . S
C1072 O1052 1.251 . S
C1072 O1057 1.256 . S
C1072 C1065 1.500 . S
C1073 H1038 0.929 . S
C1073 C1051 1.444 . S
C1073 C1074 1.317 . S
C1074 H1036 0.930 . S
C1074 C1042 1.432 1_455 S
C1074 C1073 1.317 . S
C1075 O1059 1.283 1_455 S
C1075 O1062 1.243 . S
C1076 C1077 1.382 . S
C1076 C1080 1.393 . S
C1076 C1083 1.500 . S
C1077 C1076 1.382 . S
C1077 C1078 1.400 . S
C1077 H1088 0.930 . S
C1078 C1077 1.400 . S
C1078 C1079 1.384 . S
C1079 C1078 1.384 . S
C1079 C1081 1.392 . S
C1079 H1089 0.931 . S
C1080 C1076 1.393 . S
C1080 C1081 1.401 . S
C1080 H1090 0.930 . S
C1081 C1079 1.392 . S
C1081 C1080 1.401 . S
C1081 H1091 0.930 . S
C1082 O1060 1.262 1_455 S
C1082 O1061 1.260 . S
C1083 Tb1019 2.833 1_455 S
C1083 O1058 1.251 . S
C1083 O1063 1.256 . S
C1083 C1076 1.500 . S
H1084 C1067 0.930 . S
H1085 C1068 0.931 . S
H1086 C1069 0.930 . S
H1087 C1070 0.930 . S
H1088 C1077 0.930 . S
H1089 C1079 0.931 . S
H1090 C1080 0.930 . S
H1091 C1081 0.930 . S
Tb1092 N1123 2.660 . S
Tb1092 N1130 2.600 . S
Tb1092 O1136 2.546 . S
Tb1092 O1137 2.610 . S
Tb1092 O1139 2.320 . S
Tb1092 O1140 2.552 . S
Tb1092 O1141 2.413 . S
Tb1092 O1143 2.362 . S
Tb1092 O1144 2.421 . S
Tb1092 C1156 2.833 . S
C1093 C1096 1.432 . S
C1093 C1097 1.414 . S
C1093 N1100 1.359 . S
C1094 C1096 1.417 . S
C1094 C1098 1.432 . S
C1094 C1106 1.410 . S
C1095 C1097 1.444 . S
C1095 C1098 1.317 . S
C1095 H1118 0.929 . S
C1096 C1093 1.432 . S
C1096 C1094 1.417 . S
C1096 N1104 1.360 . S
C1097 C1093 1.414 . S
C1097 C1095 1.444 . S
C1097 C1102 1.385 . S
C1098 C1094 1.432 . S
C1098 C1095 1.317 . S
C1098 H1110 0.930 . S
C1099 C1101 1.392 . S
C1099 C1102 1.370 . S
C1099 H1111 0.931 . S
N1100 C1093 1.359 . S
N1100 C1101 1.327 . S
N1100 Tb1103 2.600 . S
C1101 C1099 1.392 . S
C1101 N1100 1.327 . S
C1101 H1108 0.930 . S
C1102 C1097 1.385 . S
C1102 C1099 1.370 . S
C1102 H1121 0.930 . S
Tb1103 N1100 2.600 . S
Tb1103 N1104 2.660 . S
Tb1103 O1137 2.362 . S
Tb1103 O1138 2.421 . S
Tb1103 O1142 2.546 . S
Tb1103 O1143 2.610 . S
Tb1103 O1145 2.320 . S
Tb1103 O1146 2.552 . S
Tb1103 O1147 2.413 . S
Tb1103 C1167 2.833 . S
N1104 C1096 1.360 . S
N1104 Tb1103 2.660 . S
N1104 C1105 1.305 . S
C1105 N1104 1.305 . S
C1105 C1107 1.407 . S
C1105 H1112 0.930 . S
C1106 C1094 1.410 . S
C1106 C1107 1.345 . S
C1106 H1114 0.930 . S
C1107 C1105 1.407 . S
C1107 C1106 1.345 . S
C1107 H1109 0.930 . S
H1108 C1101 0.930 . S
H1109 C1107 0.930 . S
H1110 C1098 0.930 . S
H1111 C1099 0.931 . S
H1112 C1105 0.930 . S
H1113 C1127 0.930 . S
H1114 C1106 0.930 . S
H1115 C1133 0.930 . S
H1116 C1124 0.930 . S
H1117 C1131 0.931 . S
H1118 C1095 0.929 . S
H1119 C1125 0.930 . S
H1120 C1158 0.930 . S
H1121 C1102 0.930 . S
H1122 C1157 0.929 . S
N1123 Tb1092 2.660 . S
N1123 C1124 1.305 . S
N1123 C1128 1.360 . S
C1124 H1116 0.930 . S
C1124 N1123 1.305 . S
C1124 C1127 1.407 . S
C1125 H1119 0.930 . S
C1125 C1126 1.410 . S
C1125 C1127 1.345 . S
C1126 C1125 1.410 . S
C1126 C1128 1.417 . S
C1126 C1158 1.432 . S
C1127 H1113 0.930 . S
C1127 C1124 1.407 . S
C1127 C1125 1.345 . S
C1128 N1123 1.360 . S
C1128 C1126 1.417 . S
C1128 C1132 1.432 . S
H1129 C1134 0.930 . S
N1130 Tb1092 2.600 . S
N1130 C1132 1.359 . S
N1130 C1133 1.327 . S
C1131 H1117 0.931 . S
C1131 C1133 1.392 . S
C1131 C1134 1.370 . S
C1132 C1128 1.432 . S
C1132 N1130 1.359 . S
C1132 C1135 1.414 . S
C1133 H1115 0.930 . S
C1133 N1130 1.327 . S
C1133 C1131 1.392 . S
C1134 H1129 0.930 . S
C1134 C1131 1.370 . S
C1134 C1135 1.385 . S
C1135 C1132 1.414 . S
C1135 C1134 1.385 . S
C1135 C1157 1.444 . S
O1136 Tb1092 2.546 . S
O1136 C1156 1.251 . S
O1137 Tb1092 2.610 . S
O1137 Tb1103 2.362 . S
O1137 C1148 1.283 . S
O1138 Tb1103 2.421 . S
O1138 C1155 1.262 . S
O1139 Tb1092 2.320 . S
O1139 C1155 1.260 . S
O1140 Tb1092 2.552 . S
O1140 C1148 1.243 . S
O1141 Tb1092 2.413 . S
O1141 C1156 1.256 . S
O1142 Tb1103 2.546 . S
O1142 C1167 1.251 . S
O1143 Tb1092 2.362 . S
O1143 Tb1103 2.610 . S
O1143 C1159 1.283 . S
O1144 Tb1092 2.421 . S
O1144 C1166 1.262 . S
O1145 Tb1103 2.320 . S
O1145 C1166 1.260 . S
O1146 Tb1103 2.552 . S
O1146 C1159 1.243 . S
O1147 Tb1103 2.413 . S
O1147 C1167 1.256 . S
C1148 O1137 1.283 . S
C1148 O1140 1.243 . S
C1149 C1151 1.382 . S
C1149 C1153 1.393 . S
C1149 C1156 1.500 . S
C1150 C1151 1.400 . S
C1150 C1152 1.384 . S
C1151 C1149 1.382 . S
C1151 C1150 1.400 . S
C1151 H1168 0.930 . S
C1152 C1150 1.384 . S
C1152 C1154 1.392 . S
C1152 H1169 0.931 . S
C1153 C1149 1.393 . S
C1153 C1154 1.401 . S
C1153 H1170 0.930 . S
C1154 C1152 1.392 . S
C1154 C1153 1.401 . S
C1154 H1171 0.930 . S
C1155 O1138 1.262 . S
C1155 O1139 1.260 . S
C1156 Tb1092 2.833 . S
C1156 O1136 1.251 . S
C1156 O1141 1.256 . S
C1156 C1149 1.500 . S
C1157 H1122 0.929 . S
C1157 C1135 1.444 . S
C1157 C1158 1.317 . S
C1158 H1120 0.930 . S
C1158 C1126 1.432 . S
C1158 C1157 1.317 . S
C1159 O1143 1.283 . S
C1159 O1146 1.243 . S
C1160 C1161 1.382 . S
C1160 C1164 1.393 . S
C1160 C1167 1.500 . S
C1161 C1160 1.382 . S
C1161 C1162 1.400 . S
C1161 H1172 0.930 . S
C1162 C1161 1.400 . S
C1162 C1163 1.384 . S
C1163 C1162 1.384 . S
C1163 C1165 1.392 . S
C1163 H1173 0.931 . S
C1164 C1160 1.393 . S
C1164 C1165 1.401 . S
C1164 H1174 0.930 . S
C1165 C1163 1.392 . S
C1165 C1164 1.401 . S
C1165 H1175 0.930 . S
C1166 O1144 1.262 . S
C1166 O1145 1.260 . S
C1167 Tb1103 2.833 . S
C1167 O1142 1.251 . S
C1167 O1147 1.256 . S
C1167 C1160 1.500 . S
H1168 C1151 0.930 . S
H1169 C1152 0.931 . S
H1170 C1153 0.930 . S
H1171 C1154 0.930 . S
H1172 C1161 0.930 . S
H1173 C1163 0.931 . S
H1174 C1164 0.930 . S
H1175 C1165 0.930 . S
Tb1176 N1207 2.660 . S
Tb1176 N1214 2.600 . S
Tb1176 O1220 2.546 . S
Tb1176 O1221 2.610 . S
Tb1176 O1223 2.320 . S
Tb1176 O1224 2.552 . S
Tb1176 O1225 2.413 . S
Tb1176 O1227 2.362 . S
Tb1176 O1228 2.421 . S
Tb1176 C1240 2.833 . S
C1177 C1180 1.432 . S
C1177 C1181 1.414 . S
C1177 N1184 1.359 . S
C1178 C1180 1.417 . S
C1178 C1182 1.432 . S
C1178 C1190 1.410 . S
C1179 C1181 1.444 . S
C1179 C1182 1.317 . S
C1179 H1202 0.929 . S
C1180 C1177 1.432 . S
C1180 C1178 1.417 . S
C1180 N1188 1.360 . S
C1181 C1177 1.414 . S
C1181 C1179 1.444 . S
C1181 C1186 1.385 . S
C1182 C1178 1.432 . S
C1182 C1179 1.317 . S
C1182 H1194 0.930 . S
C1183 C1185 1.392 . S
C1183 C1186 1.370 . S
C1183 H1195 0.931 . S
N1184 C1177 1.359 . S
N1184 C1185 1.327 . S
N1184 Tb1187 2.600 . S
C1185 C1183 1.392 . S
C1185 N1184 1.327 . S
C1185 H1192 0.930 . S
C1186 C1181 1.385 . S
C1186 C1183 1.370 . S
C1186 H1205 0.930 . S
Tb1187 N1184 2.600 . S
Tb1187 N1188 2.660 . S
Tb1187 O1221 2.362 . S
Tb1187 O1222 2.421 . S
Tb1187 O1226 2.546 . S
Tb1187 O1227 2.610 . S
Tb1187 O1229 2.320 . S
Tb1187 O1230 2.552 . S
Tb1187 O1231 2.413 . S
Tb1187 C1251 2.833 . S
N1188 C1180 1.360 . S
N1188 Tb1187 2.660 . S
N1188 C1189 1.305 . S
C1189 N1188 1.305 . S
C1189 C1191 1.407 . S
C1189 H1196 0.930 . S
C1190 C1178 1.410 . S
C1190 C1191 1.345 . S
C1190 H1198 0.930 . S
C1191 C1189 1.407 . S
C1191 C1190 1.345 . S
C1191 H1193 0.930 . S
H1192 C1185 0.930 . S
H1193 C1191 0.930 . S
H1194 C1182 0.930 . S
H1195 C1183 0.931 . S
H1196 C1189 0.930 . S
H1197 C1211 0.930 . S
H1198 C1190 0.930 . S
H1199 C1217 0.930 . S
H1200 C1208 0.930 . S
H1201 C1215 0.931 . S
H1202 C1179 0.929 . S
H1203 C1209 0.930 . S
H1204 C1242 0.930 . S
H1205 C1186 0.930 . S
H1206 C1241 0.929 . S
N1207 Tb1176 2.660 . S
N1207 C1208 1.305 . S
N1207 C1212 1.360 . S
C1208 H1200 0.930 . S
C1208 N1207 1.305 . S
C1208 C1211 1.407 . S
C1209 H1203 0.930 . S
C1209 C1210 1.410 . S
C1209 C1211 1.345 . S
C1210 C1209 1.410 . S
C1210 C1212 1.417 . S
C1210 C1242 1.432 . S
C1211 H1197 0.930 . S
C1211 C1208 1.407 . S
C1211 C1209 1.345 . S
C1212 N1207 1.360 . S
C1212 C1210 1.417 . S
C1212 C1216 1.432 . S
H1213 C1218 0.930 . S
N1214 Tb1176 2.600 . S
N1214 C1216 1.359 . S
N1214 C1217 1.327 . S
C1215 H1201 0.931 . S
C1215 C1217 1.392 . S
C1215 C1218 1.370 . S
C1216 C1212 1.432 . S
C1216 N1214 1.359 . S
C1216 C1219 1.414 . S
C1217 H1199 0.930 . S
C1217 N1214 1.327 . S
C1217 C1215 1.392 . S
C1218 H1213 0.930 . S
C1218 C1215 1.370 . S
C1218 C1219 1.385 . S
C1219 C1216 1.414 . S
C1219 C1218 1.385 . S
C1219 C1241 1.444 . S
O1220 Tb1176 2.546 . S
O1220 C1240 1.251 . S
O1221 Tb1176 2.610 . S
O1221 Tb1187 2.362 . S
O1221 C1232 1.283 . S
O1222 Tb1187 2.421 . S
O1222 C1239 1.262 . S
O1223 Tb1176 2.320 . S
O1223 C1239 1.260 . S
O1224 Tb1176 2.552 . S
O1224 C1232 1.243 . S
O1225 Tb1176 2.413 . S
O1225 C1240 1.256 . S
O1226 Tb1187 2.546 . S
O1226 C1251 1.251 . S
O1227 Tb1176 2.362 . S
O1227 Tb1187 2.610 . S
O1227 C1243 1.283 . S
O1228 Tb1176 2.421 . S
O1228 C1250 1.262 . S
O1229 Tb1187 2.320 . S
O1229 C1250 1.260 . S
O1230 Tb1187 2.552 . S
O1230 C1243 1.243 . S
O1231 Tb1187 2.413 . S
O1231 C1251 1.256 . S
C1232 O1221 1.283 . S
C1232 O1224 1.243 . S
C1233 C1235 1.382 . S
C1233 C1237 1.393 . S
C1233 C1240 1.500 . S
C1234 C1235 1.400 . S
C1234 C1236 1.384 . S
C1235 C1233 1.382 . S
C1235 C1234 1.400 . S
C1235 H1252 0.930 . S
C1236 C1234 1.384 . S
C1236 C1238 1.392 . S
C1236 H1253 0.931 . S
C1237 C1233 1.393 . S
C1237 C1238 1.401 . S
C1237 H1254 0.930 . S
C1238 C1236 1.392 . S
C1238 C1237 1.401 . S
C1238 H1255 0.930 . S
C1239 O1222 1.262 . S
C1239 O1223 1.260 . S
C1240 Tb1176 2.833 . S
C1240 O1220 1.251 . S
C1240 O1225 1.256 . S
C1240 C1233 1.500 . S
C1241 H1206 0.929 . S
C1241 C1219 1.444 . S
C1241 C1242 1.317 . S
C1242 H1204 0.930 . S
C1242 C1210 1.432 . S
C1242 C1241 1.317 . S
C1243 O1227 1.283 . S
C1243 O1230 1.243 . S
C1244 C1245 1.382 . S
C1244 C1248 1.393 . S
C1244 C1251 1.500 . S
C1245 C1244 1.382 . S
C1245 C1246 1.400 . S
C1245 H1256 0.930 . S
C1246 C1245 1.400 . S
C1246 C1247 1.384 . S
C1247 C1246 1.384 . S
C1247 C1249 1.392 . S
C1247 H1257 0.931 . S
C1248 C1244 1.393 . S
C1248 C1249 1.401 . S
C1248 H1258 0.930 . S
C1249 C1247 1.392 . S
C1249 C1248 1.401 . S
C1249 H1259 0.930 1_565 S
C1250 O1228 1.262 . S
C1250 O1229 1.260 . S
C1251 Tb1187 2.833 . S
C1251 O1226 1.251 . S
C1251 O1231 1.256 . S
C1251 C1244 1.500 . S
H1252 C1235 0.930 . S
H1253 C1236 0.931 . S
H1254 C1237 0.930 . S
H1255 C1238 0.930 . S
H1256 C1245 0.930 . S
H1257 C1247 0.931 . S
H1258 C1248 0.930 . S
H1259 C1249 0.930 1_545 S
Tb1260 N1291 2.660 . S
Tb1260 N1298 2.600 . S
Tb1260 O1304 2.546 . S
Tb1260 O1305 2.610 . S
Tb1260 O1307 2.320 . S
Tb1260 O1308 2.552 . S
Tb1260 O1309 2.413 . S
Tb1260 O1311 2.362 . S
Tb1260 O1312 2.421 . S
Tb1260 C1324 2.833 . S
C1261 C1264 1.432 . S
C1261 C1265 1.414 . S
C1261 N1268 1.359 . S
C1262 C1264 1.417 . S
C1262 C1266 1.432 . S
C1262 C1274 1.410 . S
C1263 C1265 1.444 . S
C1263 C1266 1.317 . S
C1263 H1286 0.929 . S
C1264 C1261 1.432 . S
C1264 C1262 1.417 . S
C1264 N1272 1.360 . S
C1265 C1261 1.414 . S
C1265 C1263 1.444 . S
C1265 C1270 1.385 . S
C1266 C1262 1.432 . S
C1266 C1263 1.317 . S
C1266 H1278 0.930 . S
C1267 C1269 1.392 . S
C1267 C1270 1.370 . S
C1267 H1279 0.931 . S
N1268 C1261 1.359 . S
N1268 C1269 1.327 . S
N1268 Tb1271 2.600 . S
C1269 C1267 1.392 . S
C1269 N1268 1.327 . S
C1269 H1276 0.930 . S
C1270 C1265 1.385 . S
C1270 C1267 1.370 . S
C1270 H1289 0.930 . S
Tb1271 N1268 2.600 . S
Tb1271 N1272 2.660 . S
Tb1271 O1305 2.362 . S
Tb1271 O1306 2.421 . S
Tb1271 O1310 2.546 1_455 S
Tb1271 O1311 2.610 . S
Tb1271 O1313 2.320 1_455 S
Tb1271 O1314 2.552 1_455 S
Tb1271 O1315 2.413 1_455 S
Tb1271 C1335 2.833 1_455 S
N1272 C1264 1.360 . S
N1272 Tb1271 2.660 . S
N1272 C1273 1.305 . S
C1273 N1272 1.305 . S
C1273 C1275 1.407 . S
C1273 H1280 0.930 . S
C1274 C1262 1.410 . S
C1274 C1275 1.345 . S
C1274 H1282 0.930 . S
C1275 C1273 1.407 . S
C1275 C1274 1.345 . S
C1275 H1277 0.930 . S
H1276 C1269 0.930 . S
H1277 C1275 0.930 . S
H1278 C1266 0.930 . S
H1279 C1267 0.931 . S
H1280 C1273 0.930 . S
H1281 C1295 0.930 . S
H1282 C1274 0.930 . S
H1283 C1301 0.930 . S
H1284 C1292 0.930 . S
H1285 C1299 0.931 . S
H1286 C1263 0.929 . S
H1287 C1293 0.930 . S
H1288 C1326 0.930 . S
H1289 C1270 0.930 . S
H1290 C1325 0.929 . S
N1291 Tb1260 2.660 . S
N1291 C1292 1.305 . S
N1291 C1296 1.360 . S
C1292 H1284 0.930 . S
C1292 N1291 1.305 . S
C1292 C1295 1.407 . S
C1293 H1287 0.930 . S
C1293 C1294 1.410 . S
C1293 C1295 1.345 . S
C1294 C1293 1.410 . S
C1294 C1296 1.417 . S
C1294 C1326 1.432 1_455 S
C1295 H1281 0.930 . S
C1295 C1292 1.407 . S
C1295 C1293 1.345 . S
C1296 N1291 1.360 . S
C1296 C1294 1.417 . S
C1296 C1300 1.432 . S
H1297 C1302 0.930 . S
N1298 Tb1260 2.600 . S
N1298 C1300 1.359 . S
N1298 C1301 1.327 . S
C1299 H1285 0.931 . S
C1299 C1301 1.392 1_655 S
C1299 C1302 1.370 . S
C1300 C1296 1.432 . S
C1300 N1298 1.359 . S
C1300 C1303 1.414 1_455 S
C1301 H1283 0.930 . S
C1301 N1298 1.327 . S
C1301 C1299 1.392 1_455 S
C1302 H1297 0.930 . S
C1302 C1299 1.370 . S
C1302 C1303 1.385 . S
C1303 C1300 1.414 1_655 S
C1303 C1302 1.385 . S
C1303 C1325 1.444 . S
O1304 Tb1260 2.546 . S
O1304 C1324 1.251 . S
O1305 Tb1260 2.610 . S
O1305 Tb1271 2.362 . S
O1305 C1316 1.283 . S
O1306 Tb1271 2.421 . S
O1306 C1323 1.262 . S
O1307 Tb1260 2.320 . S
O1307 C1323 1.260 . S
O1308 Tb1260 2.552 . S
O1308 C1316 1.243 . S
O1309 Tb1260 2.413 . S
O1309 C1324 1.256 . S
O1310 Tb1271 2.546 1_655 S
O1310 C1335 1.251 . S
O1311 Tb1260 2.362 . S
O1311 Tb1271 2.610 . S
O1311 C1327 1.283 1_455 S
O1312 Tb1260 2.421 . S
O1312 C1334 1.262 1_455 S
O1313 Tb1271 2.320 1_655 S
O1313 C1334 1.260 . S
O1314 Tb1271 2.552 1_655 S
O1314 C1327 1.243 . S
O1315 Tb1271 2.413 1_655 S
O1315 C1335 1.256 . S
C1316 O1305 1.283 . S
C1316 O1308 1.243 . S
C1317 C1319 1.382 . S
C1317 C1321 1.393 . S
C1317 C1324 1.500 . S
C1318 C1319 1.400 . S
C1318 C1320 1.384 . S
C1319 C1317 1.382 . S
C1319 C1318 1.400 . S
C1319 H1336 0.930 . S
C1320 C1318 1.384 . S
C1320 C1322 1.392 . S
C1320 H1337 0.931 . S
C1321 C1317 1.393 . S
C1321 C1322 1.401 . S
C1321 H1338 0.930 . S
C1322 C1320 1.392 . S
C1322 C1321 1.401 . S
C1322 H1339 0.930 . S
C1323 O1306 1.262 . S
C1323 O1307 1.260 . S
C1324 Tb1260 2.833 . S
C1324 O1304 1.251 . S
C1324 O1309 1.256 . S
C1324 C1317 1.500 . S
C1325 H1290 0.929 . S
C1325 C1303 1.444 . S
C1325 C1326 1.317 . S
C1326 H1288 0.930 . S
C1326 C1294 1.432 1_655 S
C1326 C1325 1.317 . S
C1327 O1311 1.283 1_655 S
C1327 O1314 1.243 . S
C1328 C1329 1.382 . S
C1328 C1332 1.393 . S
C1328 C1335 1.500 . S
C1329 C1328 1.382 . S
C1329 C1330 1.400 . S
C1329 H1340 0.930 . S
C1330 C1329 1.400 . S
C1330 C1331 1.384 . S
C1331 C1330 1.384 . S
C1331 C1333 1.392 . S
C1331 H1341 0.931 . S
C1332 C1328 1.393 . S
C1332 C1333 1.401 . S
C1332 H1342 0.930 . S
C1333 C1331 1.392 . S
C1333 C1332 1.401 . S
C1333 H1343 0.930 1_545 S
C1334 O1312 1.262 1_655 S
C1334 O1313 1.260 . S
C1335 Tb1271 2.833 1_655 S
C1335 O1310 1.251 . S
C1335 O1315 1.256 . S
C1335 C1328 1.500 . S
H1336 C1319 0.930 . S
H1337 C1320 0.931 . S
H1338 C1321 0.930 . S
H1339 C1322 0.930 . S
H1340 C1329 0.930 . S
H1341 C1331 0.931 . S
H1342 C1332 0.930 . S
H1343 C1333 0.930 1_565 S
Tb1344 N1375 2.660 . S
Tb1344 N1382 2.600 . S
Tb1344 O1388 2.546 . S
Tb1344 O1389 2.610 . S
Tb1344 O1391 2.320 . S
Tb1344 O1392 2.552 . S
Tb1344 O1393 2.413 . S
Tb1344 O1395 2.362 . S
Tb1344 O1396 2.421 . S
Tb1344 C1408 2.833 . S
C1345 C1348 1.432 . S
C1345 C1349 1.414 . S
C1345 N1352 1.359 . S
C1346 C1348 1.417 . S
C1346 C1350 1.432 . S
C1346 C1358 1.410 . S
C1347 C1349 1.444 . S
C1347 C1350 1.317 . S
C1347 H1370 0.929 . S
C1348 C1345 1.432 . S
C1348 C1346 1.417 . S
C1348 N1356 1.360 . S
C1349 C1345 1.414 . S
C1349 C1347 1.444 . S
C1349 C1354 1.385 . S
C1350 C1346 1.432 . S
C1350 C1347 1.317 . S
C1350 H1362 0.930 . S
C1351 C1353 1.392 . S
C1351 C1354 1.370 . S
C1351 H1363 0.931 . S
N1352 C1345 1.359 . S
N1352 C1353 1.327 . S
N1352 Tb1355 2.600 . S
C1353 C1351 1.392 . S
C1353 N1352 1.327 . S
C1353 H1360 0.930 . S
C1354 C1349 1.385 . S
C1354 C1351 1.370 . S
C1354 H1373 0.930 . S
Tb1355 N1352 2.600 . S
Tb1355 N1356 2.660 . S
Tb1355 O1389 2.362 . S
Tb1355 O1390 2.421 . S
Tb1355 O1394 2.546 1_565 S
Tb1355 O1395 2.610 . S
Tb1355 O1397 2.320 1_565 S
Tb1355 O1398 2.552 1_565 S
Tb1355 O1399 2.413 1_565 S
Tb1355 C1419 2.833 1_565 S
N1356 C1348 1.360 . S
N1356 Tb1355 2.660 . S
N1356 C1357 1.305 . S
C1357 N1356 1.305 . S
C1357 C1359 1.407 . S
C1357 H1364 0.930 . S
C1358 C1346 1.410 . S
C1358 C1359 1.345 . S
C1358 H1366 0.930 . S
C1359 C1357 1.407 . S
C1359 C1358 1.345 . S
C1359 H1361 0.930 . S
H1360 C1353 0.930 . S
H1361 C1359 0.930 . S
H1362 C1350 0.930 . S
H1363 C1351 0.931 . S
H1364 C1357 0.930 . S
H1365 C1379 0.930 . S
H1366 C1358 0.930 . S
H1367 C1385 0.930 . S
H1368 C1376 0.930 . S
H1369 C1383 0.931 . S
H1370 C1347 0.929 . S
H1371 C1377 0.930 . S
H1372 C1410 0.930 . S
H1373 C1354 0.930 . S
H1374 C1409 0.929 . S
N1375 Tb1344 2.660 . S
N1375 C1376 1.305 . S
N1375 C1380 1.360 . S
C1376 H1368 0.930 . S
C1376 N1375 1.305 . S
C1376 C1379 1.407 . S
C1377 H1371 0.930 . S
C1377 C1378 1.410 . S
C1377 C1379 1.345 . S
C1378 C1377 1.410 . S
C1378 C1380 1.417 . S
C1378 C1410 1.432 1_565 S
C1379 H1365 0.930 . S
C1379 C1376 1.407 . S
C1379 C1377 1.345 . S
C1380 N1375 1.360 . S
C1380 C1378 1.417 . S
C1380 C1384 1.432 . S
H1381 C1386 0.930 . S
N1382 Tb1344 2.600 . S
N1382 C1384 1.359 . S
N1382 C1385 1.327 . S
C1383 H1369 0.931 . S
C1383 C1385 1.392 1_545 S
C1383 C1386 1.370 . S
C1384 C1380 1.432 . S
C1384 N1382 1.359 . S
C1384 C1387 1.414 1_565 S
C1385 H1367 0.930 . S
C1385 N1382 1.327 . S
C1385 C1383 1.392 1_565 S
C1386 H1381 0.930 . S
C1386 C1383 1.370 . S
C1386 C1387 1.385 . S
C1387 C1384 1.414 1_545 S
C1387 C1386 1.385 . S
C1387 C1409 1.444 . S
O1388 Tb1344 2.546 . S
O1388 C1408 1.251 . S
O1389 Tb1344 2.610 . S
O1389 Tb1355 2.362 . S
O1389 C1400 1.283 . S
O1390 Tb1355 2.421 . S
O1390 C1407 1.262 . S
O1391 Tb1344 2.320 . S
O1391 C1407 1.260 . S
O1392 Tb1344 2.552 . S
O1392 C1400 1.243 . S
O1393 Tb1344 2.413 . S
O1393 C1408 1.256 . S
O1394 Tb1355 2.546 1_545 S
O1394 C1419 1.251 . S
O1395 Tb1344 2.362 . S
O1395 Tb1355 2.610 . S
O1395 C1411 1.283 1_565 S
O1396 Tb1344 2.421 . S
O1396 C1418 1.262 1_565 S
O1397 Tb1355 2.320 1_545 S
O1397 C1418 1.260 . S
O1398 Tb1355 2.552 1_545 S
O1398 C1411 1.243 . S
O1399 Tb1355 2.413 1_545 S
O1399 C1419 1.256 . S
C1400 O1389 1.283 . S
C1400 O1392 1.243 . S
C1401 C1403 1.382 . S
C1401 C1405 1.393 . S
C1401 C1408 1.500 . S
C1402 C1403 1.400 . S
C1402 C1404 1.384 . S
C1403 C1401 1.382 . S
C1403 C1402 1.400 . S
C1403 H1420 0.930 . S
C1404 C1402 1.384 . S
C1404 C1406 1.392 . S
C1404 H1421 0.931 . S
C1405 C1401 1.393 . S
C1405 C1406 1.401 . S
C1405 H1422 0.930 . S
C1406 C1404 1.392 . S
C1406 C1405 1.401 . S
C1406 H1423 0.930 . S
C1407 O1390 1.262 . S
C1407 O1391 1.260 . S
C1408 Tb1344 2.833 . S
C1408 O1388 1.251 . S
C1408 O1393 1.256 . S
C1408 C1401 1.500 . S
C1409 H1374 0.929 . S
C1409 C1387 1.444 . S
C1409 C1410 1.317 . S
C1410 H1372 0.930 . S
C1410 C1378 1.432 1_545 S
C1410 C1409 1.317 . S
C1411 O1395 1.283 1_545 S
C1411 O1398 1.243 . S
C1412 C1413 1.382 . S
C1412 C1416 1.393 . S
C1412 C1419 1.500 . S
C1413 C1412 1.382 . S
C1413 C1414 1.400 . S
C1413 H1424 0.930 . S
C1414 C1413 1.400 . S
C1414 C1415 1.384 . S
C1415 C1414 1.384 . S
C1415 C1417 1.392 . S
C1415 H1425 0.931 . S
C1416 C1412 1.393 . S
C1416 C1417 1.401 . S
C1416 H1426 0.930 . S
C1417 C1415 1.392 . S
C1417 C1416 1.401 . S
C1417 H1427 0.930 . S
C1418 O1396 1.262 1_545 S
C1418 O1397 1.260 . S
C1419 Tb1355 2.833 1_545 S
C1419 O1394 1.251 . S
C1419 O1399 1.256 . S
C1419 C1412 1.500 . S
H1420 C1403 0.930 . S
H1421 C1404 0.931 . S
H1422 C1405 0.930 . S
H1423 C1406 0.930 . S
H1424 C1413 0.930 . S
H1425 C1415 0.931 . S
H1426 C1416 0.930 . S
H1427 C1417 0.930 . S
Tb1428 N1459 2.660 . S
Tb1428 N1466 2.600 . S
Tb1428 O1472 2.546 . S
Tb1428 O1473 2.610 . S
Tb1428 O1475 2.320 . S
Tb1428 O1476 2.552 . S
Tb1428 O1477 2.413 . S
Tb1428 O1479 2.362 . S
Tb1428 O1480 2.421 . S
Tb1428 C1492 2.833 . S
C1429 C1432 1.432 . S
C1429 C1433 1.414 . S
C1429 N1436 1.359 . S
C1430 C1432 1.417 . S
C1430 C1434 1.432 . S
C1430 C1442 1.410 . S
C1431 C1433 1.444 . S
C1431 C1434 1.317 . S
C1431 H1454 0.929 . S
C1432 C1429 1.432 . S
C1432 C1430 1.417 . S
C1432 N1440 1.360 . S
C1433 C1429 1.414 . S
C1433 C1431 1.444 . S
C1433 C1438 1.385 . S
C1434 C1430 1.432 . S
C1434 C1431 1.317 . S
C1434 H1446 0.930 . S
C1435 C1437 1.392 . S
C1435 C1438 1.370 . S
C1435 H1447 0.931 . S
N1436 C1429 1.359 . S
N1436 C1437 1.327 . S
N1436 Tb1439 2.600 . S
C1437 C1435 1.392 . S
C1437 N1436 1.327 . S
C1437 H1444 0.930 . S
C1438 C1433 1.385 . S
C1438 C1435 1.370 . S
C1438 H1457 0.930 . S
Tb1439 N1436 2.600 . S
Tb1439 N1440 2.660 . S
Tb1439 O1473 2.362 . S
Tb1439 O1474 2.421 . S
Tb1439 O1478 2.546 1_545 S
Tb1439 O1479 2.610 . S
Tb1439 O1481 2.320 1_545 S
Tb1439 O1482 2.552 1_545 S
Tb1439 O1483 2.413 1_545 S
Tb1439 C1503 2.833 1_545 S
N1440 C1432 1.360 . S
N1440 Tb1439 2.660 . S
N1440 C1441 1.305 . S
C1441 N1440 1.305 . S
C1441 C1443 1.407 . S
C1441 H1448 0.930 . S
C1442 C1430 1.410 . S
C1442 C1443 1.345 . S
C1442 H1450 0.930 . S
C1443 C1441 1.407 . S
C1443 C1442 1.345 . S
C1443 H1445 0.930 . S
H1444 C1437 0.930 . S
H1445 C1443 0.930 . S
H1446 C1434 0.930 . S
H1447 C1435 0.931 . S
H1448 C1441 0.930 . S
H1449 C1463 0.930 . S
H1450 C1442 0.930 . S
H1451 C1469 0.930 . S
H1452 C1460 0.930 . S
H1453 C1467 0.931 . S
H1454 C1431 0.929 . S
H1455 C1461 0.930 . S
H1456 C1494 0.930 . S
H1457 C1438 0.930 . S
H1458 C1493 0.929 . S
N1459 Tb1428 2.660 . S
N1459 C1460 1.305 . S
N1459 C1464 1.360 . S
C1460 H1452 0.930 . S
C1460 N1459 1.305 . S
C1460 C1463 1.407 . S
C1461 H1455 0.930 . S
C1461 C1462 1.410 . S
C1461 C1463 1.345 . S
C1462 C1461 1.410 . S
C1462 C1464 1.417 . S
C1462 C1494 1.432 1_545 S
C1463 H1449 0.930 . S
C1463 C1460 1.407 . S
C1463 C1461 1.345 . S
C1464 N1459 1.360 . S
C1464 C1462 1.417 . S
C1464 C1468 1.432 . S
H1465 C1470 0.930 . S
N1466 Tb1428 2.600 . S
N1466 C1468 1.359 . S
N1466 C1469 1.327 . S
C1467 H1453 0.931 . S
C1467 C1469 1.392 1_565 S
C1467 C1470 1.370 . S
C1468 C1464 1.432 . S
C1468 N1466 1.359 . S
C1468 C1471 1.414 1_545 S
C1469 H1451 0.930 . S
C1469 N1466 1.327 . S
C1469 C1467 1.392 1_545 S
C1470 H1465 0.930 . S
C1470 C1467 1.370 . S
C1470 C1471 1.385 . S
C1471 C1468 1.414 1_565 S
C1471 C1470 1.385 . S
C1471 C1493 1.444 . S
O1472 Tb1428 2.546 . S
O1472 C1492 1.251 . S
O1473 Tb1428 2.610 . S
O1473 Tb1439 2.362 . S
O1473 C1484 1.283 . S
O1474 Tb1439 2.421 . S
O1474 C1491 1.262 . S
O1475 Tb1428 2.320 . S
O1475 C1491 1.260 . S
O1476 Tb1428 2.552 . S
O1476 C1484 1.243 . S
O1477 Tb1428 2.413 . S
O1477 C1492 1.256 . S
O1478 Tb1439 2.546 1_565 S
O1478 C1503 1.251 . S
O1479 Tb1428 2.362 . S
O1479 Tb1439 2.610 . S
O1479 C1495 1.283 1_545 S
O1480 Tb1428 2.421 . S
O1480 C1502 1.262 1_545 S
O1481 Tb1439 2.320 1_565 S
O1481 C1502 1.260 . S
O1482 Tb1439 2.552 1_565 S
O1482 C1495 1.243 . S
O1483 Tb1439 2.413 1_565 S
O1483 C1503 1.256 . S
C1484 O1473 1.283 . S
C1484 O1476 1.243 . S
C1485 C1487 1.382 . S
C1485 C1489 1.393 . S
C1485 C1492 1.500 . S
C1486 C1487 1.400 . S
C1486 C1488 1.384 . S
C1487 C1485 1.382 . S
C1487 C1486 1.400 . S
C1487 H1504 0.930 . S
C1488 C1486 1.384 . S
C1488 C1490 1.392 . S
C1488 H1505 0.931 . S
C1489 C1485 1.393 . S
C1489 C1490 1.401 . S
C1489 H1506 0.930 . S
C1490 C1488 1.392 . S
C1490 C1489 1.401 . S
C1490 H1507 0.930 . S
C1491 O1474 1.262 . S
C1491 O1475 1.260 . S
C1492 Tb1428 2.833 . S
C1492 O1472 1.251 . S
C1492 O1477 1.256 . S
C1492 C1485 1.500 . S
C1493 H1458 0.929 . S
C1493 C1471 1.444 . S
C1493 C1494 1.317 . S
C1494 H1456 0.930 . S
C1494 C1462 1.432 1_565 S
C1494 C1493 1.317 . S
C1495 O1479 1.283 1_565 S
C1495 O1482 1.243 . S
C1496 C1497 1.382 . S
C1496 C1500 1.393 . S
C1496 C1503 1.500 . S
C1497 C1496 1.382 . S
C1497 C1498 1.400 . S
C1497 H1508 0.930 . S
C1498 C1497 1.400 . S
C1498 C1499 1.384 . S
C1499 C1498 1.384 . S
C1499 C1501 1.392 . S
C1499 H1509 0.931 . S
C1500 C1496 1.393 . S
C1500 C1501 1.401 . S
C1500 H1510 0.930 . S
C1501 C1499 1.392 . S
C1501 C1500 1.401 . S
C1501 H1511 0.930 1_554 S
C1502 O1480 1.262 1_565 S
C1502 O1481 1.260 . S
C1503 Tb1439 2.833 1_565 S
C1503 O1478 1.251 . S
C1503 O1483 1.256 . S
C1503 C1496 1.500 . S
H1504 C1487 0.930 . S
H1505 C1488 0.931 . S
H1506 C1489 0.930 . S
H1507 C1490 0.930 . S
H1508 C1497 0.930 . S
H1509 C1499 0.931 . S
H1510 C1500 0.930 . S
H1511 C1501 0.930 1_556 S
Tb1512 N1543 2.660 . S
Tb1512 N1550 2.600 . S
Tb1512 O1556 2.546 . S
Tb1512 O1557 2.610 . S
Tb1512 O1559 2.320 . S
Tb1512 O1560 2.552 . S
Tb1512 O1561 2.413 . S
Tb1512 O1563 2.362 . S
Tb1512 O1564 2.421 . S
Tb1512 C1576 2.833 . S
C1513 C1516 1.432 . S
C1513 C1517 1.414 . S
C1513 N1520 1.359 . S
C1514 C1516 1.417 . S
C1514 C1518 1.432 . S
C1514 C1526 1.410 . S
C1515 C1517 1.444 . S
C1515 C1518 1.317 . S
C1515 H1538 0.929 . S
C1516 C1513 1.432 . S
C1516 C1514 1.417 . S
C1516 N1524 1.360 . S
C1517 C1513 1.414 . S
C1517 C1515 1.444 . S
C1517 C1522 1.385 . S
C1518 C1514 1.432 . S
C1518 C1515 1.317 . S
C1518 H1530 0.930 . S
C1519 C1521 1.392 . S
C1519 C1522 1.370 . S
C1519 H1531 0.931 . S
N1520 C1513 1.359 . S
N1520 C1521 1.327 . S
N1520 Tb1523 2.600 . S
C1521 C1519 1.392 . S
C1521 N1520 1.327 . S
C1521 H1528 0.930 . S
C1522 C1517 1.385 . S
C1522 C1519 1.370 . S
C1522 H1541 0.930 . S
Tb1523 N1520 2.600 . S
Tb1523 N1524 2.660 . S
Tb1523 O1557 2.362 . S
Tb1523 O1558 2.421 . S
Tb1523 O1562 2.546 . S
Tb1523 O1563 2.610 . S
Tb1523 O1565 2.320 . S
Tb1523 O1566 2.552 . S
Tb1523 O1567 2.413 . S
Tb1523 C1587 2.833 . S
N1524 C1516 1.360 . S
N1524 Tb1523 2.660 . S
N1524 C1525 1.305 . S
C1525 N1524 1.305 . S
C1525 C1527 1.407 . S
C1525 H1532 0.930 . S
C1526 C1514 1.410 . S
C1526 C1527 1.345 . S
C1526 H1534 0.930 . S
C1527 C1525 1.407 . S
C1527 C1526 1.345 . S
C1527 H1529 0.930 . S
H1528 C1521 0.930 . S
H1529 C1527 0.930 . S
H1530 C1518 0.930 . S
H1531 C1519 0.931 . S
H1532 C1525 0.930 . S
H1533 C1547 0.930 . S
H1534 C1526 0.930 . S
H1535 C1553 0.930 . S
H1536 C1544 0.930 . S
H1537 C1551 0.931 . S
H1538 C1515 0.929 . S
H1539 C1545 0.930 . S
H1540 C1578 0.930 . S
H1541 C1522 0.930 . S
H1542 C1577 0.929 . S
N1543 Tb1512 2.660 . S
N1543 C1544 1.305 . S
N1543 C1548 1.360 . S
C1544 H1536 0.930 . S
C1544 N1543 1.305 . S
C1544 C1547 1.407 . S
C1545 H1539 0.930 . S
C1545 C1546 1.410 . S
C1545 C1547 1.345 . S
C1546 C1545 1.410 . S
C1546 C1548 1.417 . S
C1546 C1578 1.432 . S
C1547 H1533 0.930 . S
C1547 C1544 1.407 . S
C1547 C1545 1.345 . S
C1548 N1543 1.360 . S
C1548 C1546 1.417 . S
C1548 C1552 1.432 . S
H1549 C1554 0.930 . S
N1550 Tb1512 2.600 . S
N1550 C1552 1.359 . S
N1550 C1553 1.327 . S
C1551 H1537 0.931 . S
C1551 C1553 1.392 . S
C1551 C1554 1.370 . S
C1552 C1548 1.432 . S
C1552 N1550 1.359 . S
C1552 C1555 1.414 . S
C1553 H1535 0.930 . S
C1553 N1550 1.327 . S
C1553 C1551 1.392 . S
C1554 H1549 0.930 . S
C1554 C1551 1.370 . S
C1554 C1555 1.385 . S
C1555 C1552 1.414 . S
C1555 C1554 1.385 . S
C1555 C1577 1.444 . S
O1556 Tb1512 2.546 . S
O1556 C1576 1.251 . S
O1557 Tb1512 2.610 . S
O1557 Tb1523 2.362 . S
O1557 C1568 1.283 . S
O1558 Tb1523 2.421 . S
O1558 C1575 1.262 . S
O1559 Tb1512 2.320 . S
O1559 C1575 1.260 . S
O1560 Tb1512 2.552 . S
O1560 C1568 1.243 . S
O1561 Tb1512 2.413 . S
O1561 C1576 1.256 . S
O1562 Tb1523 2.546 . S
O1562 C1587 1.251 . S
O1563 Tb1512 2.362 . S
O1563 Tb1523 2.610 . S
O1563 C1579 1.283 . S
O1564 Tb1512 2.421 . S
O1564 C1586 1.262 . S
O1565 Tb1523 2.320 . S
O1565 C1586 1.260 . S
O1566 Tb1523 2.552 . S
O1566 C1579 1.243 . S
O1567 Tb1523 2.413 . S
O1567 C1587 1.256 . S
C1568 O1557 1.283 . S
C1568 O1560 1.243 . S
C1569 C1571 1.382 . S
C1569 C1573 1.393 . S
C1569 C1576 1.500 . S
C1570 C1571 1.400 . S
C1570 C1572 1.384 . S
C1571 C1569 1.382 . S
C1571 C1570 1.400 . S
C1571 H1588 0.930 . S
C1572 C1570 1.384 . S
C1572 C1574 1.392 . S
C1572 H1589 0.931 . S
C1573 C1569 1.393 . S
C1573 C1574 1.401 . S
C1573 H1590 0.930 . S
C1574 C1572 1.392 . S
C1574 C1573 1.401 . S
C1574 H1591 0.930 . S
C1575 O1558 1.262 . S
C1575 O1559 1.260 . S
C1576 Tb1512 2.833 . S
C1576 O1556 1.251 . S
C1576 O1561 1.256 . S
C1576 C1569 1.500 . S
C1577 H1542 0.929 . S
C1577 C1555 1.444 . S
C1577 C1578 1.317 . S
C1578 H1540 0.930 . S
C1578 C1546 1.432 . S
C1578 C1577 1.317 . S
C1579 O1563 1.283 . S
C1579 O1566 1.243 . S
C1580 C1581 1.382 . S
C1580 C1584 1.393 . S
C1580 C1587 1.500 . S
C1581 C1580 1.382 . S
C1581 C1582 1.400 . S
C1581 H1592 0.930 . S
C1582 C1581 1.400 . S
C1582 C1583 1.384 . S
C1583 C1582 1.384 . S
C1583 C1585 1.392 . S
C1583 H1593 0.931 . S
C1584 C1580 1.393 . S
C1584 C1585 1.401 . S
C1584 H1594 0.930 . S
C1585 C1583 1.392 . S
C1585 C1584 1.401 . S
C1585 H1595 0.930 . S
C1586 O1564 1.262 . S
C1586 O1565 1.260 . S
C1587 Tb1523 2.833 . S
C1587 O1562 1.251 . S
C1587 O1567 1.256 . S
C1587 C1580 1.500 . S
H1588 C1571 0.930 . S
H1589 C1572 0.931 . S
H1590 C1573 0.930 . S
H1591 C1574 0.930 . S
H1592 C1581 0.930 . S
H1593 C1583 0.931 . S
H1594 C1584 0.930 . S
H1595 C1585 0.930 . S
Tb1596 N1627 2.660 . S
Tb1596 N1634 2.600 . S
Tb1596 O1640 2.546 . S
Tb1596 O1641 2.610 . S
Tb1596 O1643 2.320 . S
Tb1596 O1644 2.552 . S
Tb1596 O1645 2.413 . S
Tb1596 O1647 2.362 . S
Tb1596 O1648 2.421 . S
Tb1596 C1660 2.833 . S
C1597 C1600 1.432 . S
C1597 C1601 1.414 . S
C1597 N1604 1.359 . S
C1598 C1600 1.417 . S
C1598 C1602 1.432 . S
C1598 C1610 1.410 . S
C1599 C1601 1.444 . S
C1599 C1602 1.317 . S
C1599 H1622 0.929 . S
C1600 C1597 1.432 . S
C1600 C1598 1.417 . S
C1600 N1608 1.360 . S
C1601 C1597 1.414 . S
C1601 C1599 1.444 . S
C1601 C1606 1.385 . S
C1602 C1598 1.432 . S
C1602 C1599 1.317 . S
C1602 H1614 0.930 . S
C1603 C1605 1.392 . S
C1603 C1606 1.370 . S
C1603 H1615 0.931 . S
N1604 C1597 1.359 . S
N1604 C1605 1.327 . S
N1604 Tb1607 2.600 . S
C1605 C1603 1.392 . S
C1605 N1604 1.327 . S
C1605 H1612 0.930 . S
C1606 C1601 1.385 . S
C1606 C1603 1.370 . S
C1606 H1625 0.930 . S
Tb1607 N1604 2.600 . S
Tb1607 N1608 2.660 . S
Tb1607 O1641 2.362 . S
Tb1607 O1642 2.421 . S
Tb1607 O1646 2.546 . S
Tb1607 O1647 2.610 . S
Tb1607 O1649 2.320 . S
Tb1607 O1650 2.552 . S
Tb1607 O1651 2.413 . S
Tb1607 C1671 2.833 . S
N1608 C1600 1.360 . S
N1608 Tb1607 2.660 . S
N1608 C1609 1.305 . S
C1609 N1608 1.305 . S
C1609 C1611 1.407 . S
C1609 H1616 0.930 . S
C1610 C1598 1.410 . S
C1610 C1611 1.345 . S
C1610 H1618 0.930 . S
C1611 C1609 1.407 . S
C1611 C1610 1.345 . S
C1611 H1613 0.930 . S
H1612 C1605 0.930 . S
H1613 C1611 0.930 . S
H1614 C1602 0.930 . S
H1615 C1603 0.931 . S
H1616 C1609 0.930 . S
H1617 C1631 0.930 . S
H1618 C1610 0.930 . S
H1619 C1637 0.930 . S
H1620 C1628 0.930 . S
H1621 C1635 0.931 . S
H1622 C1599 0.929 . S
H1623 C1629 0.930 . S
H1624 C1662 0.930 . S
H1625 C1606 0.930 . S
H1626 C1661 0.929 . S
N1627 Tb1596 2.660 . S
N1627 C1628 1.305 . S
N1627 C1632 1.360 . S
C1628 H1620 0.930 . S
C1628 N1627 1.305 . S
C1628 C1631 1.407 . S
C1629 H1623 0.930 . S
C1629 C1630 1.410 . S
C1629 C1631 1.345 . S
C1630 C1629 1.410 . S
C1630 C1632 1.417 . S
C1630 C1662 1.432 . S
C1631 H1617 0.930 . S
C1631 C1628 1.407 . S
C1631 C1629 1.345 . S
C1632 N1627 1.360 . S
C1632 C1630 1.417 . S
C1632 C1636 1.432 . S
H1633 C1638 0.930 . S
N1634 Tb1596 2.600 . S
N1634 C1636 1.359 . S
N1634 C1637 1.327 . S
C1635 H1621 0.931 . S
C1635 C1637 1.392 . S
C1635 C1638 1.370 . S
C1636 C1632 1.432 . S
C1636 N1634 1.359 . S
C1636 C1639 1.414 . S
C1637 H1619 0.930 . S
C1637 N1634 1.327 . S
C1637 C1635 1.392 . S
C1638 H1633 0.930 . S
C1638 C1635 1.370 . S
C1638 C1639 1.385 . S
C1639 C1636 1.414 . S
C1639 C1638 1.385 . S
C1639 C1661 1.444 . S
O1640 Tb1596 2.546 . S
O1640 C1660 1.251 . S
O1641 Tb1596 2.610 . S
O1641 Tb1607 2.362 . S
O1641 C1652 1.283 . S
O1642 Tb1607 2.421 . S
O1642 C1659 1.262 . S
O1643 Tb1596 2.320 . S
O1643 C1659 1.260 . S
O1644 Tb1596 2.552 . S
O1644 C1652 1.243 . S
O1645 Tb1596 2.413 . S
O1645 C1660 1.256 . S
O1646 Tb1607 2.546 . S
O1646 C1671 1.251 . S
O1647 Tb1596 2.362 . S
O1647 Tb1607 2.610 . S
O1647 C1663 1.283 . S
O1648 Tb1596 2.421 . S
O1648 C1670 1.262 . S
O1649 Tb1607 2.320 . S
O1649 C1670 1.260 . S
O1650 Tb1607 2.552 . S
O1650 C1663 1.243 . S
O1651 Tb1607 2.413 . S
O1651 C1671 1.256 . S
C1652 O1641 1.283 . S
C1652 O1644 1.243 . S
C1653 C1655 1.382 . S
C1653 C1657 1.393 . S
C1653 C1660 1.500 . S
C1654 C1655 1.400 . S
C1654 C1656 1.384 . S
C1655 C1653 1.382 . S
C1655 C1654 1.400 . S
C1655 H1672 0.930 . S
C1656 C1654 1.384 . S
C1656 C1658 1.392 . S
C1656 H1673 0.931 . S
C1657 C1653 1.393 . S
C1657 C1658 1.401 . S
C1657 H1674 0.930 . S
C1658 C1656 1.392 . S
C1658 C1657 1.401 . S
C1658 H1675 0.930 . S
C1659 O1642 1.262 . S
C1659 O1643 1.260 . S
C1660 Tb1596 2.833 . S
C1660 O1640 1.251 . S
C1660 O1645 1.256 . S
C1660 C1653 1.500 . S
C1661 H1626 0.929 . S
C1661 C1639 1.444 . S
C1661 C1662 1.317 . S
C1662 H1624 0.930 . S
C1662 C1630 1.432 . S
C1662 C1661 1.317 . S
C1663 O1647 1.283 . S
C1663 O1650 1.243 . S
C1664 C1665 1.382 . S
C1664 C1668 1.393 . S
C1664 C1671 1.500 . S
C1665 C1664 1.382 . S
C1665 C1666 1.400 . S
C1665 H1676 0.930 . S
C1666 C1665 1.400 . S
C1666 C1667 1.384 . S
C1667 C1666 1.384 . S
C1667 C1669 1.392 . S
C1667 H1677 0.931 . S
C1668 C1664 1.393 . S
C1668 C1669 1.401 . S
C1668 H1678 0.930 . S
C1669 C1667 1.392 . S
C1669 C1668 1.401 . S
C1669 H1679 0.930 1_556 S
C1670 O1648 1.262 . S
C1670 O1649 1.260 . S
C1671 Tb1607 2.833 . S
C1671 O1646 1.251 . S
C1671 O1651 1.256 . S
C1671 C1664 1.500 . S
H1672 C1655 0.930 . S
H1673 C1656 0.931 . S
H1674 C1657 0.930 . S
H1675 C1658 0.930 . S
H1676 C1665 0.930 . S
H1677 C1667 0.931 . S
H1678 C1668 0.930 . S
H1679 C1669 0.930 1_554 S
Tb1680 N1711 2.660 . S
Tb1680 N1718 2.600 . S
Tb1680 O1724 2.546 . S
Tb1680 O1725 2.610 . S
Tb1680 O1727 2.320 . S
Tb1680 O1728 2.552 . S
Tb1680 O1729 2.413 . S
Tb1680 O1731 2.362 . S
Tb1680 O1732 2.421 . S
Tb1680 C1744 2.833 . S
C1681 C1684 1.432 . S
C1681 C1685 1.414 . S
C1681 N1688 1.359 . S
C1682 C1684 1.417 . S
C1682 C1686 1.432 . S
C1682 C1694 1.410 . S
C1683 C1685 1.444 . S
C1683 C1686 1.317 . S
C1683 H1706 0.929 . S
C1684 C1681 1.432 . S
C1684 C1682 1.417 . S
C1684 N1692 1.360 . S
C1685 C1681 1.414 . S
C1685 C1683 1.444 . S
C1685 C1690 1.385 . S
C1686 C1682 1.432 . S
C1686 C1683 1.317 . S
C1686 H1698 0.930 . S
C1687 C1689 1.392 . S
C1687 C1690 1.370 . S
C1687 H1699 0.931 . S
N1688 C1681 1.359 . S
N1688 C1689 1.327 . S
N1688 Tb1691 2.600 . S
C1689 C1687 1.392 . S
C1689 N1688 1.327 . S
C1689 H1696 0.930 . S
C1690 C1685 1.385 . S
C1690 C1687 1.370 . S
C1690 H1709 0.930 . S
Tb1691 N1688 2.600 . S
Tb1691 N1692 2.660 . S
Tb1691 O1725 2.362 . S
Tb1691 O1726 2.421 . S
Tb1691 O1730 2.546 1_556 S
Tb1691 O1731 2.610 . S
Tb1691 O1733 2.320 1_556 S
Tb1691 O1734 2.552 1_556 S
Tb1691 O1735 2.413 1_556 S
Tb1691 C1755 2.833 1_556 S
N1692 C1684 1.360 . S
N1692 Tb1691 2.660 . S
N1692 C1693 1.305 . S
C1693 N1692 1.305 . S
C1693 C1695 1.407 . S
C1693 H1700 0.930 . S
C1694 C1682 1.410 . S
C1694 C1695 1.345 . S
C1694 H1702 0.930 . S
C1695 C1693 1.407 . S
C1695 C1694 1.345 . S
C1695 H1697 0.930 . S
H1696 C1689 0.930 . S
H1697 C1695 0.930 . S
H1698 C1686 0.930 . S
H1699 C1687 0.931 . S
H1700 C1693 0.930 . S
H1701 C1715 0.930 . S
H1702 C1694 0.930 . S
H1703 C1721 0.930 . S
H1704 C1712 0.930 . S
H1705 C1719 0.931 . S
H1706 C1683 0.929 . S
H1707 C1713 0.930 . S
H1708 C1746 0.930 . S
H1709 C1690 0.930 . S
H1710 C1745 0.929 . S
N1711 Tb1680 2.660 . S
N1711 C1712 1.305 . S
N1711 C1716 1.360 . S
C1712 H1704 0.930 . S
C1712 N1711 1.305 . S
C1712 C1715 1.407 . S
C1713 H1707 0.930 . S
C1713 C1714 1.410 . S
C1713 C1715 1.345 . S
C1714 C1713 1.410 . S
C1714 C1716 1.417 . S
C1714 C1746 1.432 1_556 S
C1715 H1701 0.930 . S
C1715 C1712 1.407 . S
C1715 C1713 1.345 . S
C1716 N1711 1.360 . S
C1716 C1714 1.417 . S
C1716 C1720 1.432 . S
H1717 C1722 0.930 . S
N1718 Tb1680 2.600 . S
N1718 C1720 1.359 . S
N1718 C1721 1.327 . S
C1719 H1705 0.931 . S
C1719 C1721 1.392 1_554 S
C1719 C1722 1.370 . S
C1720 C1716 1.432 . S
C1720 N1718 1.359 . S
C1720 C1723 1.414 1_556 S
C1721 H1703 0.930 . S
C1721 N1718 1.327 . S
C1721 C1719 1.392 1_556 S
C1722 H1717 0.930 . S
C1722 C1719 1.370 . S
C1722 C1723 1.385 . S
C1723 C1720 1.414 1_554 S
C1723 C1722 1.385 . S
C1723 C1745 1.444 . S
O1724 Tb1680 2.546 . S
O1724 C1744 1.251 . S
O1725 Tb1680 2.610 . S
O1725 Tb1691 2.362 . S
O1725 C1736 1.283 . S
O1726 Tb1691 2.421 . S
O1726 C1743 1.262 . S
O1727 Tb1680 2.320 . S
O1727 C1743 1.260 . S
O1728 Tb1680 2.552 . S
O1728 C1736 1.243 . S
O1729 Tb1680 2.413 . S
O1729 C1744 1.256 . S
O1730 Tb1691 2.546 1_554 S
O1730 C1755 1.251 . S
O1731 Tb1680 2.362 . S
O1731 Tb1691 2.610 . S
O1731 C1747 1.283 1_556 S
O1732 Tb1680 2.421 . S
O1732 C1754 1.262 1_556 S
O1733 Tb1691 2.320 1_554 S
O1733 C1754 1.260 . S
O1734 Tb1691 2.552 1_554 S
O1734 C1747 1.243 . S
O1735 Tb1691 2.413 1_554 S
O1735 C1755 1.256 . S
C1736 O1725 1.283 . S
C1736 O1728 1.243 . S
C1737 C1739 1.382 . S
C1737 C1741 1.393 . S
C1737 C1744 1.500 . S
C1738 C1739 1.400 . S
C1738 C1740 1.384 . S
C1739 C1737 1.382 . S
C1739 C1738 1.400 . S
C1739 H1756 0.930 . S
C1740 C1738 1.384 . S
C1740 C1742 1.392 . S
C1740 H1757 0.931 . S
C1741 C1737 1.393 . S
C1741 C1742 1.401 . S
C1741 H1758 0.930 . S
C1742 C1740 1.392 . S
C1742 C1741 1.401 . S
C1742 H1759 0.930 . S
C1743 O1726 1.262 . S
C1743 O1727 1.260 . S
C1744 Tb1680 2.833 . S
C1744 O1724 1.251 . S
C1744 O1729 1.256 . S
C1744 C1737 1.500 . S
C1745 H1710 0.929 . S
C1745 C1723 1.444 . S
C1745 C1746 1.317 . S
C1746 H1708 0.930 . S
C1746 C1714 1.432 1_554 S
C1746 C1745 1.317 . S
C1747 O1731 1.283 1_554 S
C1747 O1734 1.243 . S
C1748 C1749 1.382 . S
C1748 C1752 1.393 . S
C1748 C1755 1.500 . S
C1749 C1748 1.382 . S
C1749 C1750 1.400 . S
C1749 H1760 0.930 . S
C1750 C1749 1.400 . S
C1750 C1751 1.384 . S
C1751 C1750 1.384 . S
C1751 C1753 1.392 . S
C1751 H1761 0.931 . S
C1752 C1748 1.393 . S
C1752 C1753 1.401 . S
C1752 H1762 0.930 . S
C1753 C1751 1.392 . S
C1753 C1752 1.401 . S
C1753 H1763 0.930 . S
C1754 O1732 1.262 1_554 S
C1754 O1733 1.260 . S
C1755 Tb1691 2.833 1_554 S
C1755 O1730 1.251 . S
C1755 O1735 1.256 . S
C1755 C1748 1.500 . S
H1756 C1739 0.930 . S
H1757 C1740 0.931 . S
H1758 C1741 0.930 . S
H1759 C1742 0.930 . S
H1760 C1749 0.930 . S
H1761 C1751 0.931 . S
H1762 C1752 0.930 . S
H1763 C1753 0.930 . S
Tb1764 N1795 2.660 . S
Tb1764 N1802 2.600 . S
Tb1764 O1808 2.546 . S
Tb1764 O1809 2.610 . S
Tb1764 O1811 2.320 . S
Tb1764 O1812 2.552 . S
Tb1764 O1813 2.413 . S
Tb1764 O1815 2.362 . S
Tb1764 O1816 2.421 . S
Tb1764 C1828 2.833 . S
C1765 C1768 1.432 . S
C1765 C1769 1.414 . S
C1765 N1772 1.359 . S
C1766 C1768 1.417 . S
C1766 C1770 1.432 . S
C1766 C1778 1.410 . S
C1767 C1769 1.444 . S
C1767 C1770 1.317 . S
C1767 H1790 0.929 . S
C1768 C1765 1.432 . S
C1768 C1766 1.417 . S
C1768 N1776 1.360 . S
C1769 C1765 1.414 . S
C1769 C1767 1.444 . S
C1769 C1774 1.385 . S
C1770 C1766 1.432 . S
C1770 C1767 1.317 . S
C1770 H1782 0.930 . S
C1771 C1773 1.392 . S
C1771 C1774 1.370 . S
C1771 H1783 0.931 . S
N1772 C1765 1.359 . S
N1772 C1773 1.327 . S
N1772 Tb1775 2.600 . S
C1773 C1771 1.392 . S
C1773 N1772 1.327 . S
C1773 H1780 0.930 . S
C1774 C1769 1.385 . S
C1774 C1771 1.370 . S
C1774 H1793 0.930 . S
Tb1775 N1772 2.600 . S
Tb1775 N1776 2.660 . S
Tb1775 O1809 2.362 . S
Tb1775 O1810 2.421 . S
Tb1775 O1814 2.546 1_554 S
Tb1775 O1815 2.610 . S
Tb1775 O1817 2.320 1_554 S
Tb1775 O1818 2.552 1_554 S
Tb1775 O1819 2.413 1_554 S
Tb1775 C1839 2.833 1_554 S
N1776 C1768 1.360 . S
N1776 Tb1775 2.660 . S
N1776 C1777 1.305 . S
C1777 N1776 1.305 . S
C1777 C1779 1.407 . S
C1777 H1784 0.930 . S
C1778 C1766 1.410 . S
C1778 C1779 1.345 . S
C1778 H1786 0.930 . S
C1779 C1777 1.407 . S
C1779 C1778 1.345 . S
C1779 H1781 0.930 . S
H1780 C1773 0.930 . S
H1781 C1779 0.930 . S
H1782 C1770 0.930 . S
H1783 C1771 0.931 . S
H1784 C1777 0.930 . S
H1785 C1799 0.930 . S
H1786 C1778 0.930 . S
H1787 C1805 0.930 . S
H1788 C1796 0.930 . S
H1789 C1803 0.931 . S
H1790 C1767 0.929 . S
H1791 C1797 0.930 . S
H1792 C1830 0.930 . S
H1793 C1774 0.930 . S
H1794 C1829 0.929 . S
N1795 Tb1764 2.660 . S
N1795 C1796 1.305 . S
N1795 C1800 1.360 . S
C1796 H1788 0.930 . S
C1796 N1795 1.305 . S
C1796 C1799 1.407 . S
C1797 H1791 0.930 . S
C1797 C1798 1.410 . S
C1797 C1799 1.345 . S
C1798 C1797 1.410 . S
C1798 C1800 1.417 . S
C1798 C1830 1.432 1_554 S
C1799 H1785 0.930 . S
C1799 C1796 1.407 . S
C1799 C1797 1.345 . S
C1800 N1795 1.360 . S
C1800 C1798 1.417 . S
C1800 C1804 1.432 . S
H1801 C1806 0.930 . S
N1802 Tb1764 2.600 . S
N1802 C1804 1.359 . S
N1802 C1805 1.327 . S
C1803 H1789 0.931 . S
C1803 C1805 1.392 1_556 S
C1803 C1806 1.370 . S
C1804 C1800 1.432 . S
C1804 N1802 1.359 . S
C1804 C1807 1.414 1_554 S
C1805 H1787 0.930 . S
C1805 N1802 1.327 . S
C1805 C1803 1.392 1_554 S
C1806 H1801 0.930 . S
C1806 C1803 1.370 . S
C1806 C1807 1.385 . S
C1807 C1804 1.414 1_556 S
C1807 C1806 1.385 . S
C1807 C1829 1.444 . S
O1808 Tb1764 2.546 . S
O1808 C1828 1.251 . S
O1809 Tb1764 2.610 . S
O1809 Tb1775 2.362 . S
O1809 C1820 1.283 . S
O1810 Tb1775 2.421 . S
O1810 C1827 1.262 . S
O1811 Tb1764 2.320 . S
O1811 C1827 1.260 . S
O1812 Tb1764 2.552 . S
O1812 C1820 1.243 . S
O1813 Tb1764 2.413 . S
O1813 C1828 1.256 . S
O1814 Tb1775 2.546 1_556 S
O1814 C1839 1.251 . S
O1815 Tb1764 2.362 . S
O1815 Tb1775 2.610 . S
O1815 C1831 1.283 1_554 S
O1816 Tb1764 2.421 . S
O1816 C1838 1.262 1_554 S
O1817 Tb1775 2.320 1_556 S
O1817 C1838 1.260 . S
O1818 Tb1775 2.552 1_556 S
O1818 C1831 1.243 . S
O1819 Tb1775 2.413 1_556 S
O1819 C1839 1.256 . S
C1820 O1809 1.283 . S
C1820 O1812 1.243 . S
C1821 C1823 1.382 . S
C1821 C1825 1.393 . S
C1821 C1828 1.500 . S
C1822 C1823 1.400 . S
C1822 C1824 1.384 . S
C1823 C1821 1.382 . S
C1823 C1822 1.400 . S
C1823 H1840 0.930 . S
C1824 C1822 1.384 . S
C1824 C1826 1.392 . S
C1824 H1841 0.931 . S
C1825 C1821 1.393 . S
C1825 C1826 1.401 . S
C1825 H1842 0.930 . S
C1826 C1824 1.392 . S
C1826 C1825 1.401 . S
C1826 H1843 0.930 . S
C1827 O1810 1.262 . S
C1827 O1811 1.260 . S
C1828 Tb1764 2.833 . S
C1828 O1808 1.251 . S
C1828 O1813 1.256 . S
C1828 C1821 1.500 . S
C1829 H1794 0.929 . S
C1829 C1807 1.444 . S
C1829 C1830 1.317 . S
C1830 H1792 0.930 . S
C1830 C1798 1.432 1_556 S
C1830 C1829 1.317 . S
C1831 O1815 1.283 1_556 S
C1831 O1818 1.243 . S
C1832 C1833 1.382 . S
C1832 C1836 1.393 . S
C1832 C1839 1.500 . S
C1833 C1832 1.382 . S
C1833 C1834 1.400 . S
C1833 H1844 0.930 . S
C1834 C1833 1.400 . S
C1834 C1835 1.384 . S
C1835 C1834 1.384 . S
C1835 C1837 1.392 . S
C1835 H1845 0.931 . S
C1836 C1832 1.393 . S
C1836 C1837 1.401 . S
C1836 H1846 0.930 . S
C1837 C1835 1.392 . S
C1837 C1836 1.401 . S
C1837 H1847 0.930 1_455 S
C1838 O1816 1.262 1_556 S
C1838 O1817 1.260 . S
C1839 Tb1775 2.833 1_556 S
C1839 O1814 1.251 . S
C1839 O1819 1.256 . S
C1839 C1832 1.500 . S
H1840 C1823 0.930 . S
H1841 C1824 0.931 . S
H1842 C1825 0.930 . S
H1843 C1826 0.930 . S
H1844 C1833 0.930 . S
H1845 C1835 0.931 . S
H1846 C1836 0.930 . S
H1847 C1837 0.930 1_655 S
Tb1848 N1879 2.660 . S
Tb1848 N1886 2.600 . S
Tb1848 O1892 2.546 . S
Tb1848 O1893 2.610 . S
Tb1848 O1895 2.320 . S
Tb1848 O1896 2.552 . S
Tb1848 O1897 2.413 . S
Tb1848 O1899 2.362 . S
Tb1848 O1900 2.421 . S
Tb1848 C1912 2.833 . S
C1849 C1852 1.432 . S
C1849 C1853 1.414 . S
C1849 N1856 1.359 . S
C1850 C1852 1.417 . S
C1850 C1854 1.432 . S
C1850 C1862 1.410 . S
C1851 C1853 1.444 . S
C1851 C1854 1.317 . S
C1851 H1874 0.929 . S
C1852 C1849 1.432 . S
C1852 C1850 1.417 . S
C1852 N1860 1.360 . S
C1853 C1849 1.414 . S
C1853 C1851 1.444 . S
C1853 C1858 1.385 . S
C1854 C1850 1.432 . S
C1854 C1851 1.317 . S
C1854 H1866 0.930 . S
C1855 C1857 1.392 . S
C1855 C1858 1.370 . S
C1855 H1867 0.931 . S
N1856 C1849 1.359 . S
N1856 C1857 1.327 . S
N1856 Tb1859 2.600 . S
C1857 C1855 1.392 . S
C1857 N1856 1.327 . S
C1857 H1864 0.930 . S
C1858 C1853 1.385 . S
C1858 C1855 1.370 . S
C1858 H1877 0.930 . S
Tb1859 N1856 2.600 . S
Tb1859 N1860 2.660 . S
Tb1859 O1893 2.362 . S
Tb1859 O1894 2.421 . S
Tb1859 O1898 2.546 . S
Tb1859 O1899 2.610 . S
Tb1859 O1901 2.320 . S
Tb1859 O1902 2.552 . S
Tb1859 O1903 2.413 . S
Tb1859 C1923 2.833 . S
N1860 C1852 1.360 . S
N1860 Tb1859 2.660 . S
N1860 C1861 1.305 . S
C1861 N1860 1.305 . S
C1861 C1863 1.407 . S
C1861 H1868 0.930 . S
C1862 C1850 1.410 . S
C1862 C1863 1.345 . S
C1862 H1870 0.930 . S
C1863 C1861 1.407 . S
C1863 C1862 1.345 . S
C1863 H1865 0.930 . S
H1864 C1857 0.930 . S
H1865 C1863 0.930 . S
H1866 C1854 0.930 . S
H1867 C1855 0.931 . S
H1868 C1861 0.930 . S
H1869 C1883 0.930 . S
H1870 C1862 0.930 . S
H1871 C1889 0.930 . S
H1872 C1880 0.930 . S
H1873 C1887 0.931 . S
H1874 C1851 0.929 . S
H1875 C1881 0.930 . S
H1876 C1914 0.930 . S
H1877 C1858 0.930 . S
H1878 C1913 0.929 . S
N1879 Tb1848 2.660 . S
N1879 C1880 1.305 . S
N1879 C1884 1.360 . S
C1880 H1872 0.930 . S
C1880 N1879 1.305 . S
C1880 C1883 1.407 . S
C1881 H1875 0.930 . S
C1881 C1882 1.410 . S
C1881 C1883 1.345 . S
C1882 C1881 1.410 . S
C1882 C1884 1.417 . S
C1882 C1914 1.432 . S
C1883 H1869 0.930 . S
C1883 C1880 1.407 . S
C1883 C1881 1.345 . S
C1884 N1879 1.360 . S
C1884 C1882 1.417 . S
C1884 C1888 1.432 . S
H1885 C1890 0.930 . S
N1886 Tb1848 2.600 . S
N1886 C1888 1.359 . S
N1886 C1889 1.327 . S
C1887 H1873 0.931 . S
C1887 C1889 1.392 . S
C1887 C1890 1.370 . S
C1888 C1884 1.432 . S
C1888 N1886 1.359 . S
C1888 C1891 1.414 . S
C1889 H1871 0.930 . S
C1889 N1886 1.327 . S
C1889 C1887 1.392 . S
C1890 H1885 0.930 . S
C1890 C1887 1.370 . S
C1890 C1891 1.385 . S
C1891 C1888 1.414 . S
C1891 C1890 1.385 . S
C1891 C1913 1.444 . S
O1892 Tb1848 2.546 . S
O1892 C1912 1.251 . S
O1893 Tb1848 2.610 . S
O1893 Tb1859 2.362 . S
O1893 C1904 1.283 . S
O1894 Tb1859 2.421 . S
O1894 C1911 1.262 . S
O1895 Tb1848 2.320 . S
O1895 C1911 1.260 . S
O1896 Tb1848 2.552 . S
O1896 C1904 1.243 . S
O1897 Tb1848 2.413 . S
O1897 C1912 1.256 . S
O1898 Tb1859 2.546 . S
O1898 C1923 1.251 . S
O1899 Tb1848 2.362 . S
O1899 Tb1859 2.610 . S
O1899 C1915 1.283 . S
O1900 Tb1848 2.421 . S
O1900 C1922 1.262 . S
O1901 Tb1859 2.320 . S
O1901 C1922 1.260 . S
O1902 Tb1859 2.552 . S
O1902 C1915 1.243 . S
O1903 Tb1859 2.413 . S
O1903 C1923 1.256 . S
C1904 O1893 1.283 . S
C1904 O1896 1.243 . S
C1905 C1907 1.382 . S
C1905 C1909 1.393 . S
C1905 C1912 1.500 . S
C1906 C1907 1.400 . S
C1906 C1908 1.384 . S
C1907 C1905 1.382 . S
C1907 C1906 1.400 . S
C1907 H1924 0.930 . S
C1908 C1906 1.384 . S
C1908 C1910 1.392 . S
C1908 H1925 0.931 . S
C1909 C1905 1.393 . S
C1909 C1910 1.401 . S
C1909 H1926 0.930 . S
C1910 C1908 1.392 . S
C1910 C1909 1.401 . S
C1910 H1927 0.930 . S
C1911 O1894 1.262 . S
C1911 O1895 1.260 . S
C1912 Tb1848 2.833 . S
C1912 O1892 1.251 . S
C1912 O1897 1.256 . S
C1912 C1905 1.500 . S
C1913 H1878 0.929 . S
C1913 C1891 1.444 . S
C1913 C1914 1.317 . S
C1914 H1876 0.930 . S
C1914 C1882 1.432 . S
C1914 C1913 1.317 . S
C1915 O1899 1.283 . S
C1915 O1902 1.243 . S
C1916 C1917 1.382 . S
C1916 C1920 1.393 . S
C1916 C1923 1.500 . S
C1917 C1916 1.382 . S
C1917 C1918 1.400 . S
C1917 H1928 0.930 . S
C1918 C1917 1.400 . S
C1918 C1919 1.384 . S
C1919 C1918 1.384 . S
C1919 C1921 1.392 . S
C1919 H1929 0.931 . S
C1920 C1916 1.393 . S
C1920 C1921 1.401 . S
C1920 H1930 0.930 . S
C1921 C1919 1.392 . S
C1921 C1920 1.401 . S
C1921 H1931 0.930 . S
C1922 O1900 1.262 . S
C1922 O1901 1.260 . S
C1923 Tb1859 2.833 . S
C1923 O1898 1.251 . S
C1923 O1903 1.256 . S
C1923 C1916 1.500 . S
H1924 C1907 0.930 . S
H1925 C1908 0.931 . S
H1926 C1909 0.930 . S
H1927 C1910 0.930 . S
H1928 C1917 0.930 . S
H1929 C1919 0.931 . S
H1930 C1920 0.930 . S
H1931 C1921 0.930 . S
Tb1932 N1963 2.660 . S
Tb1932 N1970 2.600 . S
Tb1932 O1976 2.546 . S
Tb1932 O1977 2.610 . S
Tb1932 O1979 2.320 . S
Tb1932 O1980 2.552 . S
Tb1932 O1981 2.413 . S
Tb1932 O1983 2.362 . S
Tb1932 O1984 2.421 . S
Tb1932 C1996 2.833 . S
C1933 C1936 1.432 . S
C1933 C1937 1.414 . S
C1933 N1940 1.359 . S
C1934 C1936 1.417 . S
C1934 C1938 1.432 . S
C1934 C1946 1.410 . S
C1935 C1937 1.444 . S
C1935 C1938 1.317 . S
C1935 H1958 0.929 . S
C1936 C1933 1.432 . S
C1936 C1934 1.417 . S
C1936 N1944 1.360 . S
C1937 C1933 1.414 . S
C1937 C1935 1.444 . S
C1937 C1942 1.385 . S
C1938 C1934 1.432 . S
C1938 C1935 1.317 . S
C1938 H1950 0.930 . S
C1939 C1941 1.392 . S
C1939 C1942 1.370 . S
C1939 H1951 0.931 . S
N1940 C1933 1.359 . S
N1940 C1941 1.327 . S
N1940 Tb1943 2.600 . S
C1941 C1939 1.392 . S
C1941 N1940 1.327 . S
C1941 H1948 0.930 . S
C1942 C1937 1.385 . S
C1942 C1939 1.370 . S
C1942 H1961 0.930 . S
Tb1943 N1940 2.600 . S
Tb1943 N1944 2.660 . S
Tb1943 O1977 2.362 . S
Tb1943 O1978 2.421 . S
Tb1943 O1982 2.546 . S
Tb1943 O1983 2.610 . S
Tb1943 O1985 2.320 . S
Tb1943 O1986 2.552 . S
Tb1943 O1987 2.413 . S
Tb1943 C2007 2.833 . S
N1944 C1936 1.360 . S
N1944 Tb1943 2.660 . S
N1944 C1945 1.305 . S
C1945 N1944 1.305 . S
C1945 C1947 1.407 . S
C1945 H1952 0.930 . S
C1946 C1934 1.410 . S
C1946 C1947 1.345 . S
C1946 H1954 0.930 . S
C1947 C1945 1.407 . S
C1947 C1946 1.345 . S
C1947 H1949 0.930 . S
H1948 C1941 0.930 . S
H1949 C1947 0.930 . S
H1950 C1938 0.930 . S
H1951 C1939 0.931 . S
H1952 C1945 0.930 . S
H1953 C1967 0.930 . S
H1954 C1946 0.930 . S
H1955 C1973 0.930 . S
H1956 C1964 0.930 . S
H1957 C1971 0.931 . S
H1958 C1935 0.929 . S
H1959 C1965 0.930 . S
H1960 C1998 0.930 . S
H1961 C1942 0.930 . S
H1962 C1997 0.929 . S
N1963 Tb1932 2.660 . S
N1963 C1964 1.305 . S
N1963 C1968 1.360 . S
C1964 H1956 0.930 . S
C1964 N1963 1.305 . S
C1964 C1967 1.407 . S
C1965 H1959 0.930 . S
C1965 C1966 1.410 . S
C1965 C1967 1.345 . S
C1966 C1965 1.410 . S
C1966 C1968 1.417 . S
C1966 C1998 1.432 . S
C1967 H1953 0.930 . S
C1967 C1964 1.407 . S
C1967 C1965 1.345 . S
C1968 N1963 1.360 . S
C1968 C1966 1.417 . S
C1968 C1972 1.432 . S
H1969 C1974 0.930 . S
N1970 Tb1932 2.600 . S
N1970 C1972 1.359 . S
N1970 C1973 1.327 . S
C1971 H1957 0.931 . S
C1971 C1973 1.392 . S
C1971 C1974 1.370 . S
C1972 C1968 1.432 . S
C1972 N1970 1.359 . S
C1972 C1975 1.414 . S
C1973 H1955 0.930 . S
C1973 N1970 1.327 . S
C1973 C1971 1.392 . S
C1974 H1969 0.930 . S
C1974 C1971 1.370 . S
C1974 C1975 1.385 . S
C1975 C1972 1.414 . S
C1975 C1974 1.385 . S
C1975 C1997 1.444 . S
O1976 Tb1932 2.546 . S
O1976 C1996 1.251 . S
O1977 Tb1932 2.610 . S
O1977 Tb1943 2.362 . S
O1977 C1988 1.283 . S
O1978 Tb1943 2.421 . S
O1978 C1995 1.262 . S
O1979 Tb1932 2.320 . S
O1979 C1995 1.260 . S
O1980 Tb1932 2.552 . S
O1980 C1988 1.243 . S
O1981 Tb1932 2.413 . S
O1981 C1996 1.256 . S
O1982 Tb1943 2.546 . S
O1982 C2007 1.251 . S
O1983 Tb1932 2.362 . S
O1983 Tb1943 2.610 . S
O1983 C1999 1.283 . S
O1984 Tb1932 2.421 . S
O1984 C2006 1.262 . S
O1985 Tb1943 2.320 . S
O1985 C2006 1.260 . S
O1986 Tb1943 2.552 . S
O1986 C1999 1.243 . S
O1987 Tb1943 2.413 . S
O1987 C2007 1.256 . S
C1988 O1977 1.283 . S
C1988 O1980 1.243 . S
C1989 C1991 1.382 . S
C1989 C1993 1.393 . S
C1989 C1996 1.500 . S
C1990 C1991 1.400 . S
C1990 C1992 1.384 . S
C1991 C1989 1.382 . S
C1991 C1990 1.400 . S
C1991 H2008 0.930 . S
C1992 C1990 1.384 . S
C1992 C1994 1.392 . S
C1992 H2009 0.931 . S
C1993 C1989 1.393 . S
C1993 C1994 1.401 . S
C1993 H2010 0.930 . S
C1994 C1992 1.392 . S
C1994 C1993 1.401 . S
C1994 H2011 0.930 . S
C1995 O1978 1.262 . S
C1995 O1979 1.260 . S
C1996 Tb1932 2.833 . S
C1996 O1976 1.251 . S
C1996 O1981 1.256 . S
C1996 C1989 1.500 . S
C1997 H1962 0.929 . S
C1997 C1975 1.444 . S
C1997 C1998 1.317 . S
C1998 H1960 0.930 . S
C1998 C1966 1.432 . S
C1998 C1997 1.317 . S
C1999 O1983 1.283 . S
C1999 O1986 1.243 . S
C2000 C2001 1.382 . S
C2000 C2004 1.393 . S
C2000 C2007 1.500 . S
C2001 C2000 1.382 . S
C2001 C2002 1.400 . S
C2001 H2012 0.930 . S
C2002 C2001 1.400 . S
C2002 C2003 1.384 . S
C2003 C2002 1.384 . S
C2003 C2005 1.392 . S
C2003 H2013 0.931 . S
C2004 C2000 1.393 . S
C2004 C2005 1.401 . S
C2004 H2014 0.930 . S
C2005 C2003 1.392 . S
C2005 C2004 1.401 . S
C2005 H2015 0.930 1_655 S
C2006 O1984 1.262 . S
C2006 O1985 1.260 . S
C2007 Tb1943 2.833 . S
C2007 O1982 1.251 . S
C2007 O1987 1.256 . S
C2007 C2000 1.500 . S
H2008 C1991 0.930 . S
H2009 C1992 0.931 . S
H2010 C1993 0.930 . S
H2011 C1994 0.930 . S
H2012 C2001 0.930 . S
H2013 C2003 0.931 . S
H2014 C2004 0.930 . S
H2015 C2005 0.930 1_455 S
C2016 C2017 1.363 . S
C2016 C2022 1.379 . S
C2016 N2024 1.356 . S
C2017 C2016 1.363 . S
C2017 C2023 1.363 . S
C2018 C2019 1.363 . S
C2018 C2023 1.379 . S
C2018 N2025 1.356 . S
C2019 C2018 1.363 . S
C2019 C2022 1.363 . S
N2020 C2022 1.356 . S
N2020 H2032 0.984 . S
N2020 H2033 0.985 . S
N2021 C2023 1.356 . S
N2021 H2026 0.984 . S
N2021 H2027 0.985 . S
C2022 C2016 1.379 . S
C2022 C2019 1.363 . S
C2022 N2020 1.356 . S
C2023 C2017 1.363 . S
C2023 C2018 1.379 . S
C2023 N2021 1.356 . S
N2024 C2016 1.356 . S
N2024 H2030 0.984 . S
N2024 H2031 0.984 . S
N2025 C2018 1.356 . S
N2025 H2028 0.984 . S
N2025 H2029 0.985 . S
H2026 N2021 0.984 . S
H2027 N2021 0.985 . S
H2028 N2025 0.984 . S
H2029 N2025 0.985 . S
H2030 N2024 0.984 . S
H2031 N2024 0.984 . S
H2032 N2020 0.984 . S
H2033 N2020 0.985 . S
C2034 C2035 1.363 . S
C2034 C2040 1.379 . S
C2034 N2042 1.356 . S
C2035 C2034 1.363 . S
C2035 C2041 1.363 . S
C2036 C2037 1.363 . S
C2036 C2041 1.379 . S
C2036 N2043 1.356 . S
C2037 C2036 1.363 . S
C2037 C2040 1.363 . S
N2038 C2040 1.356 . S
N2038 H2050 0.984 . S
N2038 H2051 0.985 . S
N2039 C2041 1.356 . S
N2039 H2044 0.984 . S
N2039 H2045 0.985 . S
C2040 C2034 1.379 . S
C2040 C2037 1.363 . S
C2040 N2038 1.356 . S
C2041 C2035 1.363 . S
C2041 C2036 1.379 . S
C2041 N2039 1.356 . S
N2042 C2034 1.356 . S
N2042 H2048 0.984 . S
N2042 H2049 0.984 . S
N2043 C2036 1.356 . S
N2043 H2046 0.984 . S
N2043 H2047 0.985 . S
H2044 N2039 0.984 . S
H2045 N2039 0.985 . S
H2046 N2043 0.984 . S
H2047 N2043 0.985 . S
H2048 N2042 0.984 . S
H2049 N2042 0.984 . S
H2050 N2038 0.984 . S
H2051 N2038 0.985 . S
C2052 C2053 1.363 . S
C2052 C2058 1.379 . S
C2052 N2060 1.356 . S
C2053 C2052 1.363 . S
C2053 C2059 1.363 . S
C2054 C2055 1.363 . S
C2054 C2059 1.379 . S
C2054 N2061 1.356 . S
C2055 C2054 1.363 . S
C2055 C2058 1.363 . S
N2056 C2058 1.356 . S
N2056 H2068 0.984 . S
N2056 H2069 0.985 . S
N2057 C2059 1.356 . S
N2057 H2062 0.984 . S
N2057 H2063 0.985 . S
C2058 C2052 1.379 . S
C2058 C2055 1.363 . S
C2058 N2056 1.356 . S
C2059 C2053 1.363 . S
C2059 C2054 1.379 . S
C2059 N2057 1.356 . S
N2060 C2052 1.356 . S
N2060 H2066 0.984 . S
N2060 H2067 0.984 . S
N2061 C2054 1.356 . S
N2061 H2064 0.984 . S
N2061 H2065 0.985 . S
H2062 N2057 0.984 . S
H2063 N2057 0.985 . S
H2064 N2061 0.984 . S
H2065 N2061 0.985 . S
H2066 N2060 0.984 . S
H2067 N2060 0.984 . S
H2068 N2056 0.984 . S
H2069 N2056 0.985 . S
C2070 C2071 1.363 . S
C2070 C2076 1.379 . S
C2070 N2078 1.356 . S
C2071 C2070 1.363 . S
C2071 C2077 1.363 . S
C2072 C2073 1.363 . S
C2072 C2077 1.379 . S
C2072 N2079 1.356 . S
C2073 C2072 1.363 . S
C2073 C2076 1.363 . S
N2074 C2076 1.356 . S
N2074 H2086 0.984 . S
N2074 H2087 0.985 . S
N2075 C2077 1.356 . S
N2075 H2080 0.984 . S
N2075 H2081 0.985 . S
C2076 C2070 1.379 . S
C2076 C2073 1.363 . S
C2076 N2074 1.356 . S
C2077 C2071 1.363 . S
C2077 C2072 1.379 . S
C2077 N2075 1.356 . S
N2078 C2070 1.356 . S
N2078 H2084 0.984 . S
N2078 H2085 0.984 . S
N2079 C2072 1.356 . S
N2079 H2082 0.984 . S
N2079 H2083 0.985 . S
H2080 N2075 0.984 . S
H2081 N2075 0.985 . S
H2082 N2079 0.984 . S
H2083 N2079 0.985 . S
H2084 N2078 0.984 . S
H2085 N2078 0.984 . S
H2086 N2074 0.984 . S
H2087 N2074 0.985 . S
C2088 C2089 1.363 . S
C2088 C2094 1.379 . S
C2088 N2096 1.356 . S
C2089 C2088 1.363 . S
C2089 C2095 1.363 . S
C2090 C2091 1.363 . S
C2090 C2095 1.379 . S
C2090 N2097 1.356 . S
C2091 C2090 1.363 . S
C2091 C2094 1.363 . S
N2092 C2094 1.356 . S
N2092 H2104 0.984 . S
N2092 H2105 0.985 . S
N2093 C2095 1.356 . S
N2093 H2098 0.984 . S
N2093 H2099 0.985 . S
C2094 C2088 1.379 . S
C2094 C2091 1.363 . S
C2094 N2092 1.356 . S
C2095 C2089 1.363 . S
C2095 C2090 1.379 . S
C2095 N2093 1.356 . S
N2096 C2088 1.356 . S
N2096 H2102 0.984 . S
N2096 H2103 0.984 . S
N2097 C2090 1.356 . S
N2097 H2100 0.984 . S
N2097 H2101 0.985 . S
H2098 N2093 0.984 . S
H2099 N2093 0.985 . S
H2100 N2097 0.984 . S
H2101 N2097 0.985 . S
H2102 N2096 0.984 . S
H2103 N2096 0.984 . S
H2104 N2092 0.984 . S
H2105 N2092 0.985 . S
C2106 C2107 1.363 . S
C2106 C2112 1.379 . S
C2106 N2114 1.356 . S
C2107 C2106 1.363 . S
C2107 C2113 1.363 . S
C2108 C2109 1.363 . S
C2108 C2113 1.379 . S
C2108 N2115 1.356 . S
C2109 C2108 1.363 . S
C2109 C2112 1.363 . S
N2110 C2112 1.356 . S
N2110 H2122 0.984 . S
N2110 H2123 0.985 . S
N2111 C2113 1.356 . S
N2111 H2116 0.984 . S
N2111 H2117 0.985 . S
C2112 C2106 1.379 . S
C2112 C2109 1.363 . S
C2112 N2110 1.356 . S
C2113 C2107 1.363 . S
C2113 C2108 1.379 . S
C2113 N2111 1.356 . S
N2114 C2106 1.356 . S
N2114 H2120 0.984 . S
N2114 H2121 0.984 . S
N2115 C2108 1.356 . S
N2115 H2118 0.984 . S
N2115 H2119 0.985 . S
H2116 N2111 0.984 . S
H2117 N2111 0.985 . S
H2118 N2115 0.984 . S
H2119 N2115 0.985 . S
H2120 N2114 0.984 . S
H2121 N2114 0.984 . S
H2122 N2110 0.984 . S
H2123 N2110 0.985 . S
C2124 C2125 1.363 . S
C2124 C2130 1.379 . S
C2124 N2132 1.356 . S
C2125 C2124 1.363 . S
C2125 C2131 1.363 . S
C2126 C2127 1.363 . S
C2126 C2131 1.379 . S
C2126 N2133 1.356 . S
C2127 C2126 1.363 . S
C2127 C2130 1.363 . S
N2128 C2130 1.356 . S
N2128 H2140 0.984 . S
N2128 H2141 0.985 . S
N2129 C2131 1.356 . S
N2129 H2134 0.984 . S
N2129 H2135 0.985 . S
C2130 C2124 1.379 . S
C2130 C2127 1.363 . S
C2130 N2128 1.356 . S
C2131 C2125 1.363 . S
C2131 C2126 1.379 . S
C2131 N2129 1.356 . S
N2132 C2124 1.356 . S
N2132 H2138 0.984 . S
N2132 H2139 0.984 . S
N2133 C2126 1.356 . S
N2133 H2136 0.984 . S
N2133 H2137 0.985 . S
H2134 N2129 0.984 . S
H2135 N2129 0.985 . S
H2136 N2133 0.984 . S
H2137 N2133 0.985 . S
H2138 N2132 0.984 . S
H2139 N2132 0.984 . S
H2140 N2128 0.984 . S
H2141 N2128 0.985 . S
C2142 C2143 1.363 . S
C2142 C2148 1.379 . S
C2142 N2150 1.356 . S
C2143 C2142 1.363 . S
C2143 C2149 1.363 . S
C2144 C2145 1.363 . S
C2144 C2149 1.379 . S
C2144 N2151 1.356 . S
C2145 C2144 1.363 . S
C2145 C2148 1.363 . S
N2146 C2148 1.356 . S
N2146 H2158 0.984 . S
N2146 H2159 0.985 . S
N2147 C2149 1.356 . S
N2147 H2152 0.984 . S
N2147 H2153 0.985 . S
C2148 C2142 1.379 . S
C2148 C2145 1.363 . S
C2148 N2146 1.356 . S
C2149 C2143 1.363 . S
C2149 C2144 1.379 . S
C2149 N2147 1.356 . S
N2150 C2142 1.356 . S
N2150 H2156 0.984 . S
N2150 H2157 0.984 . S
N2151 C2144 1.356 . S
N2151 H2154 0.984 . S
N2151 H2155 0.985 . S
H2152 N2147 0.984 . S
H2153 N2147 0.985 . S
H2154 N2151 0.984 . S
H2155 N2151 0.985 . S
H2156 N2150 0.984 . S
H2157 N2150 0.984 . S
H2158 N2146 0.984 . S
H2159 N2146 0.985 . S
C2160 C2161 1.363 . S
C2160 C2166 1.379 . S
C2160 N2168 1.356 . S
C2161 C2160 1.363 . S
C2161 C2167 1.363 . S
C2162 C2163 1.363 . S
C2162 C2167 1.379 . S
C2162 N2169 1.356 . S
C2163 C2162 1.363 . S
C2163 C2166 1.363 . S
N2164 C2166 1.356 . S
N2164 H2176 0.984 . S
N2164 H2177 0.985 . S
N2165 C2167 1.356 . S
N2165 H2170 0.984 . S
N2165 H2171 0.985 . S
C2166 C2160 1.379 . S
C2166 C2163 1.363 . S
C2166 N2164 1.356 . S
C2167 C2161 1.363 . S
C2167 C2162 1.379 . S
C2167 N2165 1.356 . S
N2168 C2160 1.356 . S
N2168 H2174 0.984 . S
N2168 H2175 0.984 . S
N2169 C2162 1.356 . S
N2169 H2172 0.984 . S
N2169 H2173 0.985 . S
H2170 N2165 0.984 . S
H2171 N2165 0.985 . S
H2172 N2169 0.984 . S
H2173 N2169 0.985 . S
H2174 N2168 0.984 . S
H2175 N2168 0.984 . S
H2176 N2164 0.984 . S
H2177 N2164 0.985 . S
C2178 C2179 1.363 . S
C2178 C2184 1.379 . S
C2178 N2186 1.356 . S
C2179 C2178 1.363 . S
C2179 C2185 1.363 . S
C2180 C2181 1.363 . S
C2180 C2185 1.379 . S
C2180 N2187 1.356 . S
C2181 C2180 1.363 . S
C2181 C2184 1.363 . S
N2182 C2184 1.356 . S
N2182 H2194 0.984 . S
N2182 H2195 0.985 . S
N2183 C2185 1.356 . S
N2183 H2188 0.984 . S
N2183 H2189 0.985 . S
C2184 C2178 1.379 . S
C2184 C2181 1.363 . S
C2184 N2182 1.356 . S
C2185 C2179 1.363 . S
C2185 C2180 1.379 . S
C2185 N2183 1.356 . S
N2186 C2178 1.356 . S
N2186 H2192 0.984 . S
N2186 H2193 0.984 . S
N2187 C2180 1.356 . S
N2187 H2190 0.984 . S
N2187 H2191 0.985 . S
H2188 N2183 0.984 . S
H2189 N2183 0.985 . S
H2190 N2187 0.984 . S
H2191 N2187 0.985 . S
H2192 N2186 0.984 . S
H2193 N2186 0.984 . S
H2194 N2182 0.984 . S
H2195 N2182 0.985 . S
C2196 C2197 1.363 . S
C2196 C2202 1.379 . S
C2196 N2204 1.356 . S
C2197 C2196 1.363 . S
C2197 C2203 1.363 . S
C2198 C2199 1.363 . S
C2198 C2203 1.379 . S
C2198 N2205 1.356 . S
C2199 C2198 1.363 . S
C2199 C2202 1.363 . S
N2200 C2202 1.356 . S
N2200 H2212 0.984 . S
N2200 H2213 0.985 . S
N2201 C2203 1.356 . S
N2201 H2206 0.984 . S
N2201 H2207 0.985 . S
C2202 C2196 1.379 . S
C2202 C2199 1.363 . S
C2202 N2200 1.356 . S
C2203 C2197 1.363 . S
C2203 C2198 1.379 . S
C2203 N2201 1.356 . S
N2204 C2196 1.356 . S
N2204 H2210 0.984 . S
N2204 H2211 0.984 . S
N2205 C2198 1.356 . S
N2205 H2208 0.984 . S
N2205 H2209 0.985 . S
H2206 N2201 0.984 . S
H2207 N2201 0.985 . S
H2208 N2205 0.984 . S
H2209 N2205 0.985 . S
H2210 N2204 0.984 . S
H2211 N2204 0.984 . S
H2212 N2200 0.984 . S
H2213 N2200 0.985 . S
C2214 C2215 1.363 . S
C2214 C2220 1.379 . S
C2214 N2222 1.356 . S
C2215 C2214 1.363 . S
C2215 C2221 1.363 . S
C2216 C2217 1.363 . S
C2216 C2221 1.379 . S
C2216 N2223 1.356 . S
C2217 C2216 1.363 . S
C2217 C2220 1.363 . S
N2218 C2220 1.356 . S
N2218 H2230 0.984 . S
N2218 H2231 0.985 . S
N2219 C2221 1.356 . S
N2219 H2224 0.984 . S
N2219 H2225 0.985 . S
C2220 C2214 1.379 . S
C2220 C2217 1.363 . S
C2220 N2218 1.356 . S
C2221 C2215 1.363 . S
C2221 C2216 1.379 . S
C2221 N2219 1.356 . S
N2222 C2214 1.356 . S
N2222 H2228 0.984 . S
N2222 H2229 0.984 . S
N2223 C2216 1.356 . S
N2223 H2226 0.984 . S
N2223 H2227 0.985 . S
H2224 N2219 0.984 . S
H2225 N2219 0.985 . S
H2226 N2223 0.984 . S
H2227 N2223 0.985 . S
H2228 N2222 0.984 . S
H2229 N2222 0.984 . S
H2230 N2218 0.984 . S
H2231 N2218 0.985 . S
C2232 C2233 1.363 . S
C2232 C2238 1.379 . S
C2232 N2240 1.356 . S
C2233 C2232 1.363 . S
C2233 C2239 1.363 . S
C2234 C2235 1.363 . S
C2234 C2239 1.379 . S
C2234 N2241 1.356 . S
C2235 C2234 1.363 . S
C2235 C2238 1.363 . S
N2236 C2238 1.356 . S
N2236 H2248 0.984 . S
N2236 H2249 0.985 . S
N2237 C2239 1.356 . S
N2237 H2242 0.984 . S
N2237 H2243 0.985 . S
C2238 C2232 1.379 . S
C2238 C2235 1.363 . S
C2238 N2236 1.356 . S
C2239 C2233 1.363 . S
C2239 C2234 1.379 . S
C2239 N2237 1.356 . S
N2240 C2232 1.356 . S
N2240 H2246 0.984 . S
N2240 H2247 0.984 . S
N2241 C2234 1.356 . S
N2241 H2244 0.984 . S
N2241 H2245 0.985 . S
H2242 N2237 0.984 . S
H2243 N2237 0.985 . S
H2244 N2241 0.984 . S
H2245 N2241 0.985 . S
H2246 N2240 0.984 . S
H2247 N2240 0.984 . S
H2248 N2236 0.984 . S
H2249 N2236 0.985 . S
C2250 C2251 1.363 . S
C2250 C2256 1.379 . S
C2250 N2258 1.356 . S
C2251 C2250 1.363 . S
C2251 C2257 1.363 . S
C2252 C2253 1.363 . S
C2252 C2257 1.379 . S
C2252 N2259 1.356 . S
C2253 C2252 1.363 . S
C2253 C2256 1.363 . S
N2254 C2256 1.356 . S
N2254 H2266 0.984 . S
N2254 H2267 0.985 . S
N2255 C2257 1.356 . S
N2255 H2260 0.984 . S
N2255 H2261 0.985 . S
C2256 C2250 1.379 . S
C2256 C2253 1.363 . S
C2256 N2254 1.356 . S
C2257 C2251 1.363 . S
C2257 C2252 1.379 . S
C2257 N2255 1.356 . S
N2258 C2250 1.356 . S
N2258 H2264 0.984 . S
N2258 H2265 0.984 . S
N2259 C2252 1.356 . S
N2259 H2262 0.984 . S
N2259 H2263 0.985 . S
H2260 N2255 0.984 . S
H2261 N2255 0.985 . S
H2262 N2259 0.984 . S
H2263 N2259 0.985 . S
H2264 N2258 0.984 . S
H2265 N2258 0.984 . S
H2266 N2254 0.984 . S
H2267 N2254 0.985 . S
C2268 C2269 1.363 . S
C2268 C2274 1.379 . S
C2268 N2276 1.356 . S
C2269 C2268 1.363 . S
C2269 C2275 1.363 . S
C2270 C2271 1.363 . S
C2270 C2275 1.379 . S
C2270 N2277 1.356 . S
C2271 C2270 1.363 . S
C2271 C2274 1.363 . S
N2272 C2274 1.356 . S
N2272 H2284 0.984 . S
N2272 H2285 0.985 . S
N2273 C2275 1.356 . S
N2273 H2278 0.984 . S
N2273 H2279 0.985 . S
C2274 C2268 1.379 . S
C2274 C2271 1.363 . S
C2274 N2272 1.356 . S
C2275 C2269 1.363 . S
C2275 C2270 1.379 . S
C2275 N2273 1.356 . S
N2276 C2268 1.356 . S
N2276 H2282 0.984 . S
N2276 H2283 0.984 . S
N2277 C2270 1.356 . S
N2277 H2280 0.984 . S
N2277 H2281 0.985 . S
H2278 N2273 0.984 . S
H2279 N2273 0.985 . S
H2280 N2277 0.984 . S
H2281 N2277 0.985 . S
H2282 N2276 0.984 . S
H2283 N2276 0.984 . S
H2284 N2272 0.984 . S
H2285 N2272 0.985 . S
C2286 C2287 1.363 . S
C2286 C2292 1.379 . S
C2286 N2294 1.356 . S
C2287 C2286 1.363 . S
C2287 C2293 1.363 . S
C2288 C2289 1.363 . S
C2288 C2293 1.379 . S
C2288 N2295 1.356 . S
C2289 C2288 1.363 . S
C2289 C2292 1.363 . S
N2290 C2292 1.356 . S
N2290 H2302 0.984 . S
N2290 H2303 0.985 . S
N2291 C2293 1.356 . S
N2291 H2296 0.984 . S
N2291 H2297 0.985 . S
C2292 C2286 1.379 . S
C2292 C2289 1.363 . S
C2292 N2290 1.356 . S
C2293 C2287 1.363 . S
C2293 C2288 1.379 . S
C2293 N2291 1.356 . S
N2294 C2286 1.356 . S
N2294 H2300 0.984 . S
N2294 H2301 0.984 . S
N2295 C2288 1.356 . S
N2295 H2298 0.984 . S
N2295 H2299 0.985 . S
H2296 N2291 0.984 . S
H2297 N2291 0.985 . S
H2298 N2295 0.984 . S
H2299 N2295 0.985 . S
H2300 N2294 0.984 . S
H2301 N2294 0.984 . S
H2302 N2290 0.984 . S
H2303 N2290 0.985 . S
C2304 C2305 1.363 . S
C2304 C2310 1.379 . S
C2304 N2312 1.356 . S
C2305 C2304 1.363 . S
C2305 C2311 1.363 . S
C2306 C2307 1.363 . S
C2306 C2311 1.379 . S
C2306 N2313 1.356 . S
C2307 C2306 1.363 . S
C2307 C2310 1.363 . S
N2308 C2310 1.356 . S
N2308 H2320 0.984 . S
N2308 H2321 0.985 . S
N2309 C2311 1.356 . S
N2309 H2314 0.984 . S
N2309 H2315 0.985 . S
C2310 C2304 1.379 . S
C2310 C2307 1.363 . S
C2310 N2308 1.356 . S
C2311 C2305 1.363 . S
C2311 C2306 1.379 . S
C2311 N2309 1.356 . S
N2312 C2304 1.356 . S
N2312 H2318 0.984 . S
N2312 H2319 0.984 . S
N2313 C2306 1.356 . S
N2313 H2316 0.984 . S
N2313 H2317 0.985 . S
H2314 N2309 0.984 . S
H2315 N2309 0.985 . S
H2316 N2313 0.984 . S
H2317 N2313 0.985 . S
H2318 N2312 0.984 . S
H2319 N2312 0.984 . S
H2320 N2308 0.984 . S
H2321 N2308 0.985 . S
C2322 C2323 1.363 . S
C2322 C2328 1.379 . S
C2322 N2330 1.356 . S
C2323 C2322 1.363 . S
C2323 C2329 1.363 . S
C2324 C2325 1.363 . S
C2324 C2329 1.379 . S
C2324 N2331 1.356 . S
C2325 C2324 1.363 . S
C2325 C2328 1.363 . S
N2326 C2328 1.356 . S
N2326 H2338 0.984 . S
N2326 H2339 0.985 . S
N2327 C2329 1.356 . S
N2327 H2332 0.984 . S
N2327 H2333 0.985 . S
C2328 C2322 1.379 . S
C2328 C2325 1.363 . S
C2328 N2326 1.356 . S
C2329 C2323 1.363 . S
C2329 C2324 1.379 . S
C2329 N2327 1.356 . S
N2330 C2322 1.356 . S
N2330 H2336 0.984 . S
N2330 H2337 0.984 . S
N2331 C2324 1.356 . S
N2331 H2334 0.984 . S
N2331 H2335 0.985 . S
H2332 N2327 0.984 . S
H2333 N2327 0.985 . S
H2334 N2331 0.984 . S
H2335 N2331 0.985 . S
H2336 N2330 0.984 . S
H2337 N2330 0.984 . S
H2338 N2326 0.984 . S
H2339 N2326 0.985 . S
C2340 C2341 1.363 . S
C2340 C2346 1.379 . S
C2340 N2348 1.356 . S
C2341 C2340 1.363 . S
C2341 C2347 1.363 . S
C2342 C2343 1.363 . S
C2342 C2347 1.379 . S
C2342 N2349 1.356 . S
C2343 C2342 1.363 . S
C2343 C2346 1.363 . S
N2344 C2346 1.356 . S
N2344 H2356 0.984 . S
N2344 H2357 0.985 . S
N2345 C2347 1.356 . S
N2345 H2350 0.984 . S
N2345 H2351 0.985 . S
C2346 C2340 1.379 . S
C2346 C2343 1.363 . S
C2346 N2344 1.356 . S
C2347 C2341 1.363 . S
C2347 C2342 1.379 . S
C2347 N2345 1.356 . S
N2348 C2340 1.356 . S
N2348 H2354 0.984 . S
N2348 H2355 0.984 . S
N2349 C2342 1.356 . S
N2349 H2352 0.984 . S
N2349 H2353 0.985 . S
H2350 N2345 0.984 . S
H2351 N2345 0.985 . S
H2352 N2349 0.984 . S
H2353 N2349 0.985 . S
H2354 N2348 0.984 . S
H2355 N2348 0.984 . S
H2356 N2344 0.984 . S
H2357 N2344 0.985 . S
C2358 C2359 1.363 . S
C2358 C2364 1.379 . S
C2358 N2366 1.356 . S
C2359 C2358 1.363 . S
C2359 C2365 1.363 . S
C2360 C2361 1.363 . S
C2360 C2365 1.379 . S
C2360 N2367 1.356 . S
C2361 C2360 1.363 . S
C2361 C2364 1.363 . S
N2362 C2364 1.356 . S
N2362 H2374 0.984 . S
N2362 H2375 0.985 . S
N2363 C2365 1.356 . S
N2363 H2368 0.984 . S
N2363 H2369 0.985 . S
C2364 C2358 1.379 . S
C2364 C2361 1.363 . S
C2364 N2362 1.356 . S
C2365 C2359 1.363 . S
C2365 C2360 1.379 . S
C2365 N2363 1.356 . S
N2366 C2358 1.356 . S
N2366 H2372 0.984 . S
N2366 H2373 0.984 . S
N2367 C2360 1.356 . S
N2367 H2370 0.984 . S
N2367 H2371 0.985 . S
H2368 N2363 0.984 . S
H2369 N2363 0.985 . S
H2370 N2367 0.984 . S
H2371 N2367 0.985 . S
H2372 N2366 0.984 . S
H2373 N2366 0.984 . S
H2374 N2362 0.984 . S
H2375 N2362 0.985 . S
C2376 C2377 1.363 . S
C2376 C2382 1.379 . S
C2376 N2384 1.356 . S
C2377 C2376 1.363 . S
C2377 C2383 1.363 . S
C2378 C2379 1.363 . S
C2378 C2383 1.379 . S
C2378 N2385 1.356 . S
C2379 C2378 1.363 . S
C2379 C2382 1.363 . S
N2380 C2382 1.356 . S
N2380 H2392 0.984 . S
N2380 H2393 0.985 . S
N2381 C2383 1.356 . S
N2381 H2386 0.984 . S
N2381 H2387 0.985 . S
C2382 C2376 1.379 . S
C2382 C2379 1.363 . S
C2382 N2380 1.356 . S
C2383 C2377 1.363 . S
C2383 C2378 1.379 . S
C2383 N2381 1.356 . S
N2384 C2376 1.356 . S
N2384 H2390 0.984 . S
N2384 H2391 0.984 . S
N2385 C2378 1.356 . S
N2385 H2388 0.984 . S
N2385 H2389 0.985 . S
H2386 N2381 0.984 . S
H2387 N2381 0.985 . S
H2388 N2385 0.984 . S
H2389 N2385 0.985 . S
H2390 N2384 0.984 . S
H2391 N2384 0.984 . S
H2392 N2380 0.984 . S
H2393 N2380 0.985 . S
C2394 C2395 1.363 . S
C2394 C2400 1.379 . S
C2394 N2402 1.356 . S
C2395 C2394 1.363 . S
C2395 C2401 1.363 . S
C2396 C2397 1.363 . S
C2396 C2401 1.379 . S
C2396 N2403 1.356 . S
C2397 C2396 1.363 . S
C2397 C2400 1.363 . S
N2398 C2400 1.356 . S
N2398 H2410 0.984 . S
N2398 H2411 0.985 . S
N2399 C2401 1.356 . S
N2399 H2404 0.984 . S
N2399 H2405 0.985 . S
C2400 C2394 1.379 . S
C2400 C2397 1.363 . S
C2400 N2398 1.356 . S
C2401 C2395 1.363 . S
C2401 C2396 1.379 . S
C2401 N2399 1.356 . S
N2402 C2394 1.356 . S
N2402 H2408 0.984 . S
N2402 H2409 0.984 . S
N2403 C2396 1.356 . S
N2403 H2406 0.984 . S
N2403 H2407 0.985 . S
H2404 N2399 0.984 . S
H2405 N2399 0.985 . S
H2406 N2403 0.984 . S
H2407 N2403 0.985 . S
H2408 N2402 0.984 . S
H2409 N2402 0.984 . S
H2410 N2398 0.984 . S
H2411 N2398 0.985 . S
C2412 C2413 1.363 . S
C2412 C2418 1.379 . S
C2412 N2420 1.356 . S
C2413 C2412 1.363 . S
C2413 C2419 1.363 . S
C2414 C2415 1.363 . S
C2414 C2419 1.379 . S
C2414 N2421 1.356 . S
C2415 C2414 1.363 . S
C2415 C2418 1.363 . S
N2416 C2418 1.356 . S
N2416 H2428 0.984 . S
N2416 H2429 0.985 . S
N2417 C2419 1.356 . S
N2417 H2422 0.984 . S
N2417 H2423 0.985 . S
C2418 C2412 1.379 . S
C2418 C2415 1.363 . S
C2418 N2416 1.356 . S
C2419 C2413 1.363 . S
C2419 C2414 1.379 . S
C2419 N2417 1.356 . S
N2420 C2412 1.356 . S
N2420 H2426 0.984 . S
N2420 H2427 0.984 . S
N2421 C2414 1.356 . S
N2421 H2424 0.984 . S
N2421 H2425 0.985 . S
H2422 N2417 0.984 . S
H2423 N2417 0.985 . S
H2424 N2421 0.984 . S
H2425 N2421 0.985 . S
H2426 N2420 0.984 . S
H2427 N2420 0.984 . S
H2428 N2416 0.984 . S
H2429 N2416 0.985 . S
C2430 C2431 1.363 . S
C2430 C2436 1.379 . S
C2430 N2438 1.356 . S
C2431 C2430 1.363 . S
C2431 C2437 1.363 . S
C2432 C2433 1.363 . S
C2432 C2437 1.379 . S
C2432 N2439 1.356 . S
C2433 C2432 1.363 . S
C2433 C2436 1.363 . S
N2434 C2436 1.356 . S
N2434 H2446 0.984 . S
N2434 H2447 0.985 . S
N2435 C2437 1.356 . S
N2435 H2440 0.984 . S
N2435 H2441 0.985 . S
C2436 C2430 1.379 . S
C2436 C2433 1.363 . S
C2436 N2434 1.356 . S
C2437 C2431 1.363 . S
C2437 C2432 1.379 . S
C2437 N2435 1.356 . S
N2438 C2430 1.356 . S
N2438 H2444 0.984 . S
N2438 H2445 0.984 . S
N2439 C2432 1.356 . S
N2439 H2442 0.984 . S
N2439 H2443 0.985 . S
H2440 N2435 0.984 . S
H2441 N2435 0.985 . S
H2442 N2439 0.984 . S
H2443 N2439 0.985 . S
H2444 N2438 0.984 . S
H2445 N2438 0.984 . S
H2446 N2434 0.984 . S
H2447 N2434 0.985 . S
C2448 C2449 1.363 . S
C2448 C2454 1.379 . S
C2448 N2456 1.356 . S
C2449 C2448 1.363 . S
C2449 C2455 1.363 . S
C2450 C2451 1.363 . S
C2450 C2455 1.379 . S
C2450 N2457 1.356 . S
C2451 C2450 1.363 . S
C2451 C2454 1.363 . S
N2452 C2454 1.356 . S
N2452 H2464 0.984 . S
N2452 H2465 0.985 . S
N2453 C2455 1.356 . S
N2453 H2458 0.984 . S
N2453 H2459 0.985 . S
C2454 C2448 1.379 . S
C2454 C2451 1.363 . S
C2454 N2452 1.356 . S
C2455 C2449 1.363 . S
C2455 C2450 1.379 . S
C2455 N2453 1.356 . S
N2456 C2448 1.356 . S
N2456 H2462 0.984 . S
N2456 H2463 0.984 . S
N2457 C2450 1.356 . S
N2457 H2460 0.984 . S
N2457 H2461 0.985 . S
H2458 N2453 0.984 . S
H2459 N2453 0.985 . S
H2460 N2457 0.984 . S
H2461 N2457 0.985 . S
H2462 N2456 0.984 . S
H2463 N2456 0.984 . S
H2464 N2452 0.984 . S
H2465 N2452 0.985 . S
C2466 C2467 1.363 . S
C2466 C2472 1.379 . S
C2466 N2474 1.356 . S
C2467 C2466 1.363 . S
C2467 C2473 1.363 . S
C2468 C2469 1.363 . S
C2468 C2473 1.379 . S
C2468 N2475 1.356 . S
C2469 C2468 1.363 . S
C2469 C2472 1.363 . S
N2470 C2472 1.356 . S
N2470 H2482 0.984 . S
N2470 H2483 0.985 . S
N2471 C2473 1.356 . S
N2471 H2476 0.984 . S
N2471 H2477 0.985 . S
C2472 C2466 1.379 . S
C2472 C2469 1.363 . S
C2472 N2470 1.356 . S
C2473 C2467 1.363 . S
C2473 C2468 1.379 . S
C2473 N2471 1.356 . S
N2474 C2466 1.356 . S
N2474 H2480 0.984 . S
N2474 H2481 0.984 . S
N2475 C2468 1.356 . S
N2475 H2478 0.984 . S
N2475 H2479 0.985 . S
H2476 N2471 0.984 . S
H2477 N2471 0.985 . S
H2478 N2475 0.984 . S
H2479 N2475 0.985 . S
H2480 N2474 0.984 . S
H2481 N2474 0.984 . S
H2482 N2470 0.984 . S
H2483 N2470 0.985 . S
C2484 C2485 1.363 . S
C2484 C2490 1.379 . S
C2484 N2492 1.356 . S
C2485 C2484 1.363 . S
C2485 C2491 1.363 . S
C2486 C2487 1.363 . S
C2486 C2491 1.379 . S
C2486 N2493 1.356 . S
C2487 C2486 1.363 . S
C2487 C2490 1.363 . S
N2488 C2490 1.356 . S
N2488 H2500 0.984 . S
N2488 H2501 0.985 . S
N2489 C2491 1.356 . S
N2489 H2494 0.984 . S
N2489 H2495 0.985 . S
C2490 C2484 1.379 . S
C2490 C2487 1.363 . S
C2490 N2488 1.356 . S
C2491 C2485 1.363 . S
C2491 C2486 1.379 . S
C2491 N2489 1.356 . S
N2492 C2484 1.356 . S
N2492 H2498 0.984 . S
N2492 H2499 0.984 . S
N2493 C2486 1.356 . S
N2493 H2496 0.984 . S
N2493 H2497 0.985 . S
H2494 N2489 0.984 . S
H2495 N2489 0.985 . S
H2496 N2493 0.984 . S
H2497 N2493 0.985 . S
H2498 N2492 0.984 . S
H2499 N2492 0.984 . S
H2500 N2488 0.984 . S
H2501 N2488 0.985 . S
C2502 C2503 1.363 . S
C2502 C2508 1.379 . S
C2502 N2510 1.356 . S
C2503 C2502 1.363 . S
C2503 C2509 1.363 . S
C2504 C2505 1.363 . S
C2504 C2509 1.379 . S
C2504 N2511 1.356 . S
C2505 C2504 1.363 . S
C2505 C2508 1.363 . S
N2506 C2508 1.356 . S
N2506 H2518 0.984 . S
N2506 H2519 0.985 . S
N2507 C2509 1.356 . S
N2507 H2512 0.984 . S
N2507 H2513 0.985 . S
C2508 C2502 1.379 . S
C2508 C2505 1.363 . S
C2508 N2506 1.356 . S
C2509 C2503 1.363 . S
C2509 C2504 1.379 . S
C2509 N2507 1.356 . S
N2510 C2502 1.356 . S
N2510 H2516 0.984 . S
N2510 H2517 0.984 . S
N2511 C2504 1.356 . S
N2511 H2514 0.984 . S
N2511 H2515 0.985 . S
H2512 N2507 0.984 . S
H2513 N2507 0.985 . S
H2514 N2511 0.984 . S
H2515 N2511 0.985 . S
H2516 N2510 0.984 . S
H2517 N2510 0.984 . S
H2518 N2506 0.984 . S
H2519 N2506 0.985 . S
C2520 C2521 1.363 . S
C2520 C2526 1.379 . S
C2520 N2528 1.356 . S
C2521 C2520 1.363 . S
C2521 C2527 1.363 . S
C2522 C2523 1.363 . S
C2522 C2527 1.379 . S
C2522 N2529 1.356 . S
C2523 C2522 1.363 . S
C2523 C2526 1.363 . S
N2524 C2526 1.356 . S
N2524 H2536 0.984 . S
N2524 H2537 0.985 . S
N2525 C2527 1.356 . S
N2525 H2530 0.984 . S
N2525 H2531 0.985 . S
C2526 C2520 1.379 . S
C2526 C2523 1.363 . S
C2526 N2524 1.356 . S
C2527 C2521 1.363 . S
C2527 C2522 1.379 . S
C2527 N2525 1.356 . S
N2528 C2520 1.356 . S
N2528 H2534 0.984 . S
N2528 H2535 0.984 . S
N2529 C2522 1.356 . S
N2529 H2532 0.984 . S
N2529 H2533 0.985 . S
H2530 N2525 0.984 . S
H2531 N2525 0.985 . S
H2532 N2529 0.984 . S
H2533 N2529 0.985 . S
H2534 N2528 0.984 . S
H2535 N2528 0.984 . S
H2536 N2524 0.984 . S
H2537 N2524 0.985 . S
C2538 C2539 1.363 . S
C2538 C2544 1.379 . S
C2538 N2546 1.356 . S
C2539 C2538 1.363 . S
C2539 C2545 1.363 . S
C2540 C2541 1.363 . S
C2540 C2545 1.379 . S
C2540 N2547 1.356 . S
C2541 C2540 1.363 . S
C2541 C2544 1.363 . S
N2542 C2544 1.356 . S
N2542 H2554 0.984 . S
N2542 H2555 0.985 . S
N2543 C2545 1.356 . S
N2543 H2548 0.984 . S
N2543 H2549 0.985 . S
C2544 C2538 1.379 . S
C2544 C2541 1.363 . S
C2544 N2542 1.356 . S
C2545 C2539 1.363 . S
C2545 C2540 1.379 . S
C2545 N2543 1.356 . S
N2546 C2538 1.356 . S
N2546 H2552 0.984 . S
N2546 H2553 0.984 . S
N2547 C2540 1.356 . S
N2547 H2550 0.984 . S
N2547 H2551 0.985 . S
H2548 N2543 0.984 . S
H2549 N2543 0.985 . S
H2550 N2547 0.984 . S
H2551 N2547 0.985 . S
H2552 N2546 0.984 . S
H2553 N2546 0.984 . S
H2554 N2542 0.984 . S
H2555 N2542 0.985 . S
C2556 C2557 1.363 . S
C2556 C2562 1.379 . S
C2556 N2564 1.356 . S
C2557 C2556 1.363 . S
C2557 C2563 1.363 . S
C2558 C2559 1.363 . S
C2558 C2563 1.379 . S
C2558 N2565 1.356 . S
C2559 C2558 1.363 . S
C2559 C2562 1.363 . S
N2560 C2562 1.356 . S
N2560 H2572 0.984 . S
N2560 H2573 0.985 . S
N2561 C2563 1.356 . S
N2561 H2566 0.984 . S
N2561 H2567 0.985 . S
C2562 C2556 1.379 . S
C2562 C2559 1.363 . S
C2562 N2560 1.356 . S
C2563 C2557 1.363 . S
C2563 C2558 1.379 . S
C2563 N2561 1.356 . S
N2564 C2556 1.356 . S
N2564 H2570 0.984 . S
N2564 H2571 0.984 . S
N2565 C2558 1.356 . S
N2565 H2568 0.984 . S
N2565 H2569 0.985 . S
H2566 N2561 0.984 . S
H2567 N2561 0.985 . S
H2568 N2565 0.984 . S
H2569 N2565 0.985 . S
H2570 N2564 0.984 . S
H2571 N2564 0.984 . S
H2572 N2560 0.984 . S
H2573 N2560 0.985 . S
C2574 C2575 1.363 . S
C2574 C2580 1.379 . S
C2574 N2582 1.356 . S
C2575 C2574 1.363 . S
C2575 C2581 1.363 . S
C2576 C2577 1.363 . S
C2576 C2581 1.379 . S
C2576 N2583 1.356 . S
C2577 C2576 1.363 . S
C2577 C2580 1.363 . S
N2578 C2580 1.356 . S
N2578 H2590 0.984 . S
N2578 H2591 0.985 . S
N2579 C2581 1.356 . S
N2579 H2584 0.984 . S
N2579 H2585 0.985 . S
C2580 C2574 1.379 . S
C2580 C2577 1.363 . S
C2580 N2578 1.356 . S
C2581 C2575 1.363 . S
C2581 C2576 1.379 . S
C2581 N2579 1.356 . S
N2582 C2574 1.356 . S
N2582 H2588 0.984 . S
N2582 H2589 0.984 . S
N2583 C2576 1.356 . S
N2583 H2586 0.984 . S
N2583 H2587 0.985 . S
H2584 N2579 0.984 . S
H2585 N2579 0.985 . S
H2586 N2583 0.984 . S
H2587 N2583 0.985 . S
H2588 N2582 0.984 . S
H2589 N2582 0.984 . S
H2590 N2578 0.984 . S
H2591 N2578 0.985 . S
C2592 C2593 1.363 . S
C2592 C2598 1.379 . S
C2592 N2600 1.356 . S
C2593 C2592 1.363 . S
C2593 C2599 1.363 . S
C2594 C2595 1.363 . S
C2594 C2599 1.379 . S
C2594 N2601 1.356 . S
C2595 C2594 1.363 . S
C2595 C2598 1.363 . S
N2596 C2598 1.356 . S
N2596 H2608 0.984 . S
N2596 H2609 0.985 . S
N2597 C2599 1.356 . S
N2597 H2602 0.984 . S
N2597 H2603 0.985 . S
C2598 C2592 1.379 . S
C2598 C2595 1.363 . S
C2598 N2596 1.356 . S
C2599 C2593 1.363 . S
C2599 C2594 1.379 . S
C2599 N2597 1.356 . S
N2600 C2592 1.356 . S
N2600 H2606 0.984 . S
N2600 H2607 0.984 . S
N2601 C2594 1.356 . S
N2601 H2604 0.984 . S
N2601 H2605 0.985 . S
H2602 N2597 0.984 . S
H2603 N2597 0.985 . S
H2604 N2601 0.984 . S
H2605 N2601 0.985 . S
H2606 N2600 0.984 . S
H2607 N2600 0.984 . S
H2608 N2596 0.984 . S
H2609 N2596 0.985 . S
C2610 C2611 1.363 . S
C2610 C2616 1.379 . S
C2610 N2618 1.356 . S
C2611 C2610 1.363 . S
C2611 C2617 1.363 . S
C2612 C2613 1.363 . S
C2612 C2617 1.379 . S
C2612 N2619 1.356 . S
C2613 C2612 1.363 . S
C2613 C2616 1.363 . S
N2614 C2616 1.356 . S
N2614 H2626 0.984 . S
N2614 H2627 0.985 . S
N2615 C2617 1.356 . S
N2615 H2620 0.984 . S
N2615 H2621 0.985 . S
C2616 C2610 1.379 . S
C2616 C2613 1.363 . S
C2616 N2614 1.356 . S
C2617 C2611 1.363 . S
C2617 C2612 1.379 . S
C2617 N2615 1.356 . S
N2618 C2610 1.356 . S
N2618 H2624 0.984 . S
N2618 H2625 0.984 . S
N2619 C2612 1.356 . S
N2619 H2622 0.984 . S
N2619 H2623 0.985 . S
H2620 N2615 0.984 . S
H2621 N2615 0.985 . S
H2622 N2619 0.984 . S
H2623 N2619 0.985 . S
H2624 N2618 0.984 . S
H2625 N2618 0.984 . S
H2626 N2614 0.984 . S
H2627 N2614 0.985 . S
C2628 C2629 1.363 . S
C2628 C2634 1.379 . S
C2628 N2636 1.356 . S
C2629 C2628 1.363 . S
C2629 C2635 1.363 . S
C2630 C2631 1.363 . S
C2630 C2635 1.379 . S
C2630 N2637 1.356 . S
C2631 C2630 1.363 . S
C2631 C2634 1.363 . S
N2632 C2634 1.356 . S
N2632 H2644 0.984 . S
N2632 H2645 0.985 . S
N2633 C2635 1.356 . S
N2633 H2638 0.984 . S
N2633 H2639 0.985 . S
C2634 C2628 1.379 . S
C2634 C2631 1.363 . S
C2634 N2632 1.356 . S
C2635 C2629 1.363 . S
C2635 C2630 1.379 . S
C2635 N2633 1.356 . S
N2636 C2628 1.356 . S
N2636 H2642 0.984 . S
N2636 H2643 0.984 . S
N2637 C2630 1.356 . S
N2637 H2640 0.984 . S
N2637 H2641 0.985 . S
H2638 N2633 0.984 . S
H2639 N2633 0.985 . S
H2640 N2637 0.984 . S
H2641 N2637 0.985 . S
H2642 N2636 0.984 . S
H2643 N2636 0.984 . S
H2644 N2632 0.984 . S
H2645 N2632 0.985 . S
C2646 C2647 1.363 . S
C2646 C2652 1.379 . S
C2646 N2654 1.356 . S
C2647 C2646 1.363 . S
C2647 C2653 1.363 . S
C2648 C2649 1.363 . S
C2648 C2653 1.379 . S
C2648 N2655 1.356 . S
C2649 C2648 1.363 . S
C2649 C2652 1.363 . S
N2650 C2652 1.356 . S
N2650 H2662 0.984 . S
N2650 H2663 0.985 . S
N2651 C2653 1.356 . S
N2651 H2656 0.984 . S
N2651 H2657 0.985 . S
C2652 C2646 1.379 . S
C2652 C2649 1.363 . S
C2652 N2650 1.356 . S
C2653 C2647 1.363 . S
C2653 C2648 1.379 . S
C2653 N2651 1.356 . S
N2654 C2646 1.356 . S
N2654 H2660 0.984 . S
N2654 H2661 0.984 . S
N2655 C2648 1.356 . S
N2655 H2658 0.984 . S
N2655 H2659 0.985 . S
H2656 N2651 0.984 . S
H2657 N2651 0.985 . S
H2658 N2655 0.984 . S
H2659 N2655 0.985 . S
H2660 N2654 0.984 . S
H2661 N2654 0.984 . S
H2662 N2650 0.984 . S
H2663 N2650 0.985 . S
C2664 C2665 1.363 . S
C2664 C2670 1.379 . S
C2664 N2672 1.356 . S
C2665 C2664 1.363 . S
C2665 C2671 1.363 . S
C2666 C2667 1.363 . S
C2666 C2671 1.379 . S
C2666 N2673 1.356 . S
C2667 C2666 1.363 . S
C2667 C2670 1.363 . S
N2668 C2670 1.356 . S
N2668 H2680 0.984 . S
N2668 H2681 0.985 . S
N2669 C2671 1.356 . S
N2669 H2674 0.984 . S
N2669 H2675 0.985 . S
C2670 C2664 1.379 . S
C2670 C2667 1.363 . S
C2670 N2668 1.356 . S
C2671 C2665 1.363 . S
C2671 C2666 1.379 . S
C2671 N2669 1.356 . S
N2672 C2664 1.356 . S
N2672 H2678 0.984 . S
N2672 H2679 0.984 . S
N2673 C2666 1.356 . S
N2673 H2676 0.984 . S
N2673 H2677 0.985 . S
H2674 N2669 0.984 . S
H2675 N2669 0.985 . S
H2676 N2673 0.984 . S
H2677 N2673 0.985 . S
H2678 N2672 0.984 . S
H2679 N2672 0.984 . S
H2680 N2668 0.984 . S
H2681 N2668 0.985 . S
C2682 C2683 1.363 . S
C2682 C2688 1.379 . S
C2682 N2690 1.356 . S
C2683 C2682 1.363 . S
C2683 C2689 1.363 . S
C2684 C2685 1.363 . S
C2684 C2689 1.379 . S
C2684 N2691 1.356 . S
C2685 C2684 1.363 . S
C2685 C2688 1.363 . S
N2686 C2688 1.356 . S
N2686 H2698 0.984 . S
N2686 H2699 0.985 . S
N2687 C2689 1.356 . S
N2687 H2692 0.984 . S
N2687 H2693 0.985 . S
C2688 C2682 1.379 . S
C2688 C2685 1.363 . S
C2688 N2686 1.356 . S
C2689 C2683 1.363 . S
C2689 C2684 1.379 . S
C2689 N2687 1.356 . S
N2690 C2682 1.356 . S
N2690 H2696 0.984 . S
N2690 H2697 0.984 . S
N2691 C2684 1.356 . S
N2691 H2694 0.984 . S
N2691 H2695 0.985 . S
H2692 N2687 0.984 . S
H2693 N2687 0.985 . S
H2694 N2691 0.984 . S
H2695 N2691 0.985 . S
H2696 N2690 0.984 . S
H2697 N2690 0.984 . S
H2698 N2686 0.984 . S
H2699 N2686 0.985 . S
C2700 C2701 1.363 . S
C2700 C2706 1.379 . S
C2700 N2708 1.356 . S
C2701 C2700 1.363 . S
C2701 C2707 1.363 . S
C2702 C2703 1.363 . S
C2702 C2707 1.379 . S
C2702 N2709 1.356 . S
C2703 C2702 1.363 . S
C2703 C2706 1.363 . S
N2704 C2706 1.356 . S
N2704 H2716 0.984 . S
N2704 H2717 0.985 . S
N2705 C2707 1.356 . S
N2705 H2710 0.984 . S
N2705 H2711 0.985 . S
C2706 C2700 1.379 . S
C2706 C2703 1.363 . S
C2706 N2704 1.356 . S
C2707 C2701 1.363 . S
C2707 C2702 1.379 . S
C2707 N2705 1.356 . S
N2708 C2700 1.356 . S
N2708 H2714 0.984 . S
N2708 H2715 0.984 . S
N2709 C2702 1.356 . S
N2709 H2712 0.984 . S
N2709 H2713 0.985 . S
H2710 N2705 0.984 . S
H2711 N2705 0.985 . S
H2712 N2709 0.984 . S
H2713 N2709 0.985 . S
H2714 N2708 0.984 . S
H2715 N2708 0.984 . S
H2716 N2704 0.984 . S
H2717 N2704 0.985 . S
C2718 C2719 1.363 . S
C2718 C2724 1.379 . S
C2718 N2726 1.356 . S
C2719 C2718 1.363 . S
C2719 C2725 1.363 . S
C2720 C2721 1.363 . S
C2720 C2725 1.379 . S
C2720 N2727 1.356 . S
C2721 C2720 1.363 . S
C2721 C2724 1.363 . S
N2722 C2724 1.356 . S
N2722 H2734 0.984 . S
N2722 H2735 0.985 . S
N2723 C2725 1.356 . S
N2723 H2728 0.984 . S
N2723 H2729 0.985 . S
C2724 C2718 1.379 . S
C2724 C2721 1.363 . S
C2724 N2722 1.356 . S
C2725 C2719 1.363 . S
C2725 C2720 1.379 . S
C2725 N2723 1.356 . S
N2726 C2718 1.356 . S
N2726 H2732 0.984 . S
N2726 H2733 0.984 . S
N2727 C2720 1.356 . S
N2727 H2730 0.984 . S
N2727 H2731 0.985 . S
H2728 N2723 0.984 . S
H2729 N2723 0.985 . S
H2730 N2727 0.984 . S
H2731 N2727 0.985 . S
H2732 N2726 0.984 . S
H2733 N2726 0.984 . S
H2734 N2722 0.984 . S
H2735 N2722 0.985 . S
C2736 C2737 1.363 . S
C2736 C2742 1.379 . S
C2736 N2744 1.356 . S
C2737 C2736 1.363 . S
C2737 C2743 1.363 . S
C2738 C2739 1.363 . S
C2738 C2743 1.379 . S
C2738 N2745 1.356 . S
C2739 C2738 1.363 . S
C2739 C2742 1.363 . S
N2740 C2742 1.356 . S
N2740 H2752 0.984 . S
N2740 H2753 0.985 . S
N2741 C2743 1.356 . S
N2741 H2746 0.984 . S
N2741 H2747 0.985 . S
C2742 C2736 1.379 . S
C2742 C2739 1.363 . S
C2742 N2740 1.356 . S
C2743 C2737 1.363 . S
C2743 C2738 1.379 . S
C2743 N2741 1.356 . S
N2744 C2736 1.356 . S
N2744 H2750 0.984 . S
N2744 H2751 0.984 . S
N2745 C2738 1.356 . S
N2745 H2748 0.984 . S
N2745 H2749 0.985 . S
H2746 N2741 0.984 . S
H2747 N2741 0.985 . S
H2748 N2745 0.984 . S
H2749 N2745 0.985 . S
H2750 N2744 0.984 . S
H2751 N2744 0.984 . S
H2752 N2740 0.984 . S
H2753 N2740 0.985 . S
C2754 C2755 1.363 . S
C2754 C2760 1.379 . S
C2754 N2762 1.356 . S
C2755 C2754 1.363 . S
C2755 C2761 1.363 . S
C2756 C2757 1.363 . S
C2756 C2761 1.379 . S
C2756 N2763 1.356 . S
C2757 C2756 1.363 . S
C2757 C2760 1.363 . S
N2758 C2760 1.356 . S
N2758 H2770 0.984 . S
N2758 H2771 0.985 . S
N2759 C2761 1.356 . S
N2759 H2764 0.984 . S
N2759 H2765 0.985 . S
C2760 C2754 1.379 . S
C2760 C2757 1.363 . S
C2760 N2758 1.356 . S
C2761 C2755 1.363 . S
C2761 C2756 1.379 . S
C2761 N2759 1.356 . S
N2762 C2754 1.356 . S
N2762 H2768 0.984 . S
N2762 H2769 0.984 . S
N2763 C2756 1.356 . S
N2763 H2766 0.984 . S
N2763 H2767 0.985 . S
H2764 N2759 0.984 . S
H2765 N2759 0.985 . S
H2766 N2763 0.984 . S
H2767 N2763 0.985 . S
H2768 N2762 0.984 . S
H2769 N2762 0.984 . S
H2770 N2758 0.984 . S
H2771 N2758 0.985 . S
C2772 C2773 1.363 . S
C2772 C2778 1.379 . S
C2772 N2780 1.356 . S
C2773 C2772 1.363 . S
C2773 C2779 1.363 . S
C2774 C2775 1.363 . S
C2774 C2779 1.379 . S
C2774 N2781 1.356 . S
C2775 C2774 1.363 . S
C2775 C2778 1.363 . S
N2776 C2778 1.356 . S
N2776 H2788 0.984 . S
N2776 H2789 0.985 . S
N2777 C2779 1.356 . S
N2777 H2782 0.984 . S
N2777 H2783 0.985 . S
C2778 C2772 1.379 . S
C2778 C2775 1.363 . S
C2778 N2776 1.356 . S
C2779 C2773 1.363 . S
C2779 C2774 1.379 . S
C2779 N2777 1.356 . S
N2780 C2772 1.356 . S
N2780 H2786 0.984 . S
N2780 H2787 0.984 . S
N2781 C2774 1.356 . S
N2781 H2784 0.984 . S
N2781 H2785 0.985 . S
H2782 N2777 0.984 . S
H2783 N2777 0.985 . S
H2784 N2781 0.984 . S
H2785 N2781 0.985 . S
H2786 N2780 0.984 . S
H2787 N2780 0.984 . S
H2788 N2776 0.984 . S
H2789 N2776 0.985 . S
C2790 C2791 1.363 . S
C2790 C2796 1.379 . S
C2790 N2798 1.356 . S
C2791 C2790 1.363 . S
C2791 C2797 1.363 . S
C2792 C2793 1.363 . S
C2792 C2797 1.379 . S
C2792 N2799 1.356 . S
C2793 C2792 1.363 . S
C2793 C2796 1.363 . S
N2794 C2796 1.356 . S
N2794 H2806 0.984 . S
N2794 H2807 0.985 . S
N2795 C2797 1.356 . S
N2795 H2800 0.984 . S
N2795 H2801 0.985 . S
C2796 C2790 1.379 . S
C2796 C2793 1.363 . S
C2796 N2794 1.356 . S
C2797 C2791 1.363 . S
C2797 C2792 1.379 . S
C2797 N2795 1.356 . S
N2798 C2790 1.356 . S
N2798 H2804 0.984 . S
N2798 H2805 0.984 . S
N2799 C2792 1.356 . S
N2799 H2802 0.984 . S
N2799 H2803 0.985 . S
H2800 N2795 0.984 . S
H2801 N2795 0.985 . S
H2802 N2799 0.984 . S
H2803 N2799 0.985 . S
H2804 N2798 0.984 . S
H2805 N2798 0.984 . S
H2806 N2794 0.984 . S
H2807 N2794 0.985 . S
C2808 C2809 1.363 . S
C2808 C2814 1.379 . S
C2808 N2816 1.356 . S
C2809 C2808 1.363 . S
C2809 C2815 1.363 . S
C2810 C2811 1.363 . S
C2810 C2815 1.379 . S
C2810 N2817 1.356 . S
C2811 C2810 1.363 . S
C2811 C2814 1.363 . S
N2812 C2814 1.356 . S
N2812 H2824 0.984 . S
N2812 H2825 0.985 . S
N2813 C2815 1.356 . S
N2813 H2818 0.984 . S
N2813 H2819 0.985 . S
C2814 C2808 1.379 . S
C2814 C2811 1.363 . S
C2814 N2812 1.356 . S
C2815 C2809 1.363 . S
C2815 C2810 1.379 . S
C2815 N2813 1.356 . S
N2816 C2808 1.356 . S
N2816 H2822 0.984 . S
N2816 H2823 0.984 . S
N2817 C2810 1.356 . S
N2817 H2820 0.984 . S
N2817 H2821 0.985 . S
H2818 N2813 0.984 . S
H2819 N2813 0.985 . S
H2820 N2817 0.984 . S
H2821 N2817 0.985 . S
H2822 N2816 0.984 . S
H2823 N2816 0.984 . S
H2824 N2812 0.984 . S
H2825 N2812 0.985 . S
C2826 C2827 1.363 . S
C2826 C2832 1.379 . S
C2826 N2834 1.356 . S
C2827 C2826 1.363 . S
C2827 C2833 1.363 . S
C2828 C2829 1.363 . S
C2828 C2833 1.379 . S
C2828 N2835 1.356 . S
C2829 C2828 1.363 . S
C2829 C2832 1.363 . S
N2830 C2832 1.356 . S
N2830 H2842 0.984 . S
N2830 H2843 0.985 . S
N2831 C2833 1.356 . S
N2831 H2836 0.984 . S
N2831 H2837 0.985 . S
C2832 C2826 1.379 . S
C2832 C2829 1.363 . S
C2832 N2830 1.356 . S
C2833 C2827 1.363 . S
C2833 C2828 1.379 . S
C2833 N2831 1.356 . S
N2834 C2826 1.356 . S
N2834 H2840 0.984 . S
N2834 H2841 0.984 . S
N2835 C2828 1.356 . S
N2835 H2838 0.984 . S
N2835 H2839 0.985 . S
H2836 N2831 0.984 . S
H2837 N2831 0.985 . S
H2838 N2835 0.984 . S
H2839 N2835 0.985 . S
H2840 N2834 0.984 . S
H2841 N2834 0.984 . S
H2842 N2830 0.984 . S
H2843 N2830 0.985 . S
C2844 C2845 1.363 . S
C2844 C2850 1.379 . S
C2844 N2852 1.356 . S
C2845 C2844 1.363 . S
C2845 C2851 1.363 . S
C2846 C2847 1.363 . S
C2846 C2851 1.379 . S
C2846 N2853 1.356 . S
C2847 C2846 1.363 . S
C2847 C2850 1.363 . S
N2848 C2850 1.356 . S
N2848 H2860 0.984 . S
N2848 H2861 0.985 . S
N2849 C2851 1.356 . S
N2849 H2854 0.984 . S
N2849 H2855 0.985 . S
C2850 C2844 1.379 . S
C2850 C2847 1.363 . S
C2850 N2848 1.356 . S
C2851 C2845 1.363 . S
C2851 C2846 1.379 . S
C2851 N2849 1.356 . S
N2852 C2844 1.356 . S
N2852 H2858 0.984 . S
N2852 H2859 0.984 . S
N2853 C2846 1.356 . S
N2853 H2856 0.984 . S
N2853 H2857 0.985 . S
H2854 N2849 0.984 . S
H2855 N2849 0.985 . S
H2856 N2853 0.984 . S
H2857 N2853 0.985 . S
H2858 N2852 0.984 . S
H2859 N2852 0.984 . S
H2860 N2848 0.984 . S
H2861 N2848 0.985 . S
C2862 C2863 1.363 . S
C2862 C2868 1.379 . S
C2862 N2870 1.356 . S
C2863 C2862 1.363 . S
C2863 C2869 1.363 . S
C2864 C2865 1.363 . S
C2864 C2869 1.379 . S
C2864 N2871 1.356 . S
C2865 C2864 1.363 . S
C2865 C2868 1.363 . S
N2866 C2868 1.356 . S
N2866 H2878 0.984 . S
N2866 H2879 0.985 . S
N2867 C2869 1.356 . S
N2867 H2872 0.984 . S
N2867 H2873 0.985 . S
C2868 C2862 1.379 . S
C2868 C2865 1.363 . S
C2868 N2866 1.356 . S
C2869 C2863 1.363 . S
C2869 C2864 1.379 . S
C2869 N2867 1.356 . S
N2870 C2862 1.356 . S
N2870 H2876 0.984 . S
N2870 H2877 0.984 . S
N2871 C2864 1.356 . S
N2871 H2874 0.984 . S
N2871 H2875 0.985 . S
H2872 N2867 0.984 . S
H2873 N2867 0.985 . S
H2874 N2871 0.984 . S
H2875 N2871 0.985 . S
H2876 N2870 0.984 . S
H2877 N2870 0.984 . S
H2878 N2866 0.984 . S
H2879 N2866 0.985 . S
C2880 C2881 1.363 . S
C2880 C2886 1.379 . S
C2880 N2888 1.356 . S
C2881 C2880 1.363 . S
C2881 C2887 1.363 . S
C2882 C2883 1.363 . S
C2882 C2887 1.379 . S
C2882 N2889 1.356 . S
C2883 C2882 1.363 . S
C2883 C2886 1.363 . S
N2884 C2886 1.356 . S
N2884 H2896 0.984 . S
N2884 H2897 0.985 . S
N2885 C2887 1.356 . S
N2885 H2890 0.984 . S
N2885 H2891 0.985 1_655 S
C2886 C2880 1.379 . S
C2886 C2883 1.363 . S
C2886 N2884 1.356 . S
C2887 C2881 1.363 . S
C2887 C2882 1.379 . S
C2887 N2885 1.356 . S
N2888 C2880 1.356 . S
N2888 H2894 0.984 . S
N2888 H2895 0.984 . S
N2889 C2882 1.356 . S
N2889 H2892 0.984 . S
N2889 H2893 0.985 . S
H2890 N2885 0.984 . S
H2891 N2885 0.985 1_455 S
H2892 N2889 0.984 . S
H2893 N2889 0.985 . S
H2894 N2888 0.984 . S
H2895 N2888 0.984 . S
H2896 N2884 0.984 . S
H2897 N2884 0.985 . S
C2898 C2899 1.363 . S
C2898 C2904 1.379 . S
C2898 N2906 1.356 . S
C2899 C2898 1.363 . S
C2899 C2905 1.363 . S
C2900 C2901 1.363 . S
C2900 C2905 1.379 . S
C2900 N2907 1.356 . S
C2901 C2900 1.363 . S
C2901 C2904 1.363 . S
N2902 C2904 1.356 . S
N2902 H2914 0.984 . S
N2902 H2915 0.985 . S
N2903 C2905 1.356 . S
N2903 H2908 0.984 . S
N2903 H2909 0.985 . S
C2904 C2898 1.379 . S
C2904 C2901 1.363 . S
C2904 N2902 1.356 . S
C2905 C2899 1.363 . S
C2905 C2900 1.379 . S
C2905 N2903 1.356 . S
N2906 C2898 1.356 . S
N2906 H2912 0.984 . S
N2906 H2913 0.984 . S
N2907 C2900 1.356 . S
N2907 H2910 0.984 . S
N2907 H2911 0.985 . S
H2908 N2903 0.984 . S
H2909 N2903 0.985 . S
H2910 N2907 0.984 . S
H2911 N2907 0.985 . S
H2912 N2906 0.984 . S
H2913 N2906 0.984 . S
H2914 N2902 0.984 . S
H2915 N2902 0.985 . S
C2916 C2917 1.363 . S
C2916 C2922 1.379 . S
C2916 N2924 1.356 . S
C2917 C2916 1.363 . S
C2917 C2923 1.363 . S
C2918 C2919 1.363 . S
C2918 C2923 1.379 . S
C2918 N2925 1.356 . S
C2919 C2918 1.363 . S
C2919 C2922 1.363 . S
N2920 C2922 1.356 . S
N2920 H2932 0.984 . S
N2920 H2933 0.985 . S
N2921 C2923 1.356 . S
N2921 H2926 0.984 . S
N2921 H2927 0.985 . S
C2922 C2916 1.379 . S
C2922 C2919 1.363 . S
C2922 N2920 1.356 . S
C2923 C2917 1.363 . S
C2923 C2918 1.379 . S
C2923 N2921 1.356 . S
N2924 C2916 1.356 . S
N2924 H2930 0.984 . S
N2924 H2931 0.984 . S
N2925 C2918 1.356 . S
N2925 H2928 0.984 . S
N2925 H2929 0.985 . S
H2926 N2921 0.984 . S
H2927 N2921 0.985 . S
H2928 N2925 0.984 . S
H2929 N2925 0.985 . S
H2930 N2924 0.984 . S
H2931 N2924 0.984 . S
H2932 N2920 0.984 . S
H2933 N2920 0.985 . S
C2934 C2935 1.363 . S
C2934 C2940 1.379 . S
C2934 N2942 1.356 . S
C2935 C2934 1.363 . S
C2935 C2941 1.363 . S
C2936 C2937 1.363 . S
C2936 C2941 1.379 . S
C2936 N2943 1.356 . S
C2937 C2936 1.363 . S
C2937 C2940 1.363 . S
N2938 C2940 1.356 1_655 S
N2938 H2950 0.984 . S
N2938 H2951 0.985 . S
N2939 C2941 1.356 . S
N2939 H2944 0.984 . S
N2939 H2945 0.985 . S
C2940 C2934 1.379 . S
C2940 C2937 1.363 . S
C2940 N2938 1.356 1_455 S
C2941 C2935 1.363 . S
C2941 C2936 1.379 . S
C2941 N2939 1.356 . S
N2942 C2934 1.356 . S
N2942 H2948 0.984 1_455 S
N2942 H2949 0.984 . S
N2943 C2936 1.356 . S
N2943 H2946 0.984 . S
N2943 H2947 0.985 . S
H2944 N2939 0.984 . S
H2945 N2939 0.985 . S
H2946 N2943 0.984 . S
H2947 N2943 0.985 . S
H2948 N2942 0.984 1_655 S
H2949 N2942 0.984 . S
H2950 N2938 0.984 . S
H2951 N2938 0.985 . S
C2952 C2953 1.363 . S
C2952 C2958 1.379 . S
C2952 N2960 1.356 . S
C2953 C2952 1.363 . S
C2953 C2959 1.363 . S
C2954 C2955 1.363 . S
C2954 C2959 1.379 . S
C2954 N2961 1.356 . S
C2955 C2954 1.363 . S
C2955 C2958 1.363 . S
N2956 C2958 1.356 . S
N2956 H2968 0.984 . S
N2956 H2969 0.985 . S
N2957 C2959 1.356 . S
N2957 H2962 0.984 . S
N2957 H2963 0.985 . S
C2958 C2952 1.379 . S
C2958 C2955 1.363 . S
C2958 N2956 1.356 . S
C2959 C2953 1.363 . S
C2959 C2954 1.379 . S
C2959 N2957 1.356 . S
N2960 C2952 1.356 . S
N2960 H2966 0.984 . S
N2960 H2967 0.984 . S
N2961 C2954 1.356 . S
N2961 H2964 0.984 . S
N2961 H2965 0.985 . S
H2962 N2957 0.984 . S
H2963 N2957 0.985 . S
H2964 N2961 0.984 . S
H2965 N2961 0.985 . S
H2966 N2960 0.984 . S
H2967 N2960 0.984 . S
H2968 N2956 0.984 . S
H2969 N2956 0.985 . S
C2970 C2971 1.363 . S
C2970 C2976 1.379 . S
C2970 N2978 1.356 . S
C2971 C2970 1.363 . S
C2971 C2977 1.363 . S
C2972 C2973 1.363 . S
C2972 C2977 1.379 . S
C2972 N2979 1.356 . S
C2973 C2972 1.363 . S
C2973 C2976 1.363 . S
N2974 C2976 1.356 . S
N2974 H2986 0.984 1_545 S
N2974 H2987 0.984 1_545 S
N2975 C2977 1.356 . S
N2975 H2980 0.984 . S
N2975 H2981 0.985 . S
C2976 C2970 1.379 . S
C2976 C2973 1.363 . S
C2976 N2974 1.356 . S
C2977 C2971 1.363 . S
C2977 C2972 1.379 . S
C2977 N2975 1.356 . S
N2978 C2970 1.356 . S
N2978 H2984 0.984 . S
N2978 H2985 0.984 . S
N2979 C2972 1.356 . S
N2979 H2982 0.984 . S
N2979 H2983 0.985 . S
H2980 N2975 0.984 . S
H2981 N2975 0.985 . S
H2982 N2979 0.984 . S
H2983 N2979 0.985 . S
H2984 N2978 0.984 . S
H2985 N2978 0.984 . S
H2986 N2974 0.984 1_565 S
H2987 N2974 0.984 1_565 S
C2988 C2989 1.363 . S
C2988 C2994 1.379 . S
C2988 N2996 1.356 . S
C2989 C2988 1.363 . S
C2989 C2995 1.363 . S
C2990 C2991 1.363 . S
C2990 C2995 1.379 . S
C2990 N2997 1.356 . S
C2991 C2990 1.363 . S
C2991 C2994 1.363 . S
N2992 C2994 1.356 . S
N2992 H3004 0.984 . S
N2992 H3005 0.985 . S
N2993 C2995 1.356 . S
N2993 H2998 0.984 . S
N2993 H2999 0.985 . S
C2994 C2988 1.379 . S
C2994 C2991 1.363 . S
C2994 N2992 1.356 . S
C2995 C2989 1.363 . S
C2995 C2990 1.379 . S
C2995 N2993 1.356 . S
N2996 C2988 1.356 . S
N2996 H3002 0.984 . S
N2996 H3003 0.984 . S
N2997 C2990 1.356 . S
N2997 H3000 0.984 . S
N2997 H3001 0.985 . S
H2998 N2993 0.984 . S
H2999 N2993 0.985 . S
H3000 N2997 0.984 . S
H3001 N2997 0.985 . S
H3002 N2996 0.984 . S
H3003 N2996 0.984 . S
H3004 N2992 0.984 . S
H3005 N2992 0.985 . S
C3006 C3007 1.363 . S
C3006 C3012 1.379 . S
C3006 N3014 1.356 . S
C3007 C3006 1.363 . S
C3007 C3013 1.363 . S
C3008 C3009 1.363 . S
C3008 C3013 1.379 . S
C3008 N3015 1.356 . S
C3009 C3008 1.363 . S
C3009 C3012 1.363 . S
N3010 C3012 1.356 . S
N3010 H3022 0.984 . S
N3010 H3023 0.985 . S
N3011 C3013 1.356 . S
N3011 H3016 0.984 . S
N3011 H3017 0.985 . S
C3012 C3006 1.379 . S
C3012 C3009 1.363 . S
C3012 N3010 1.356 . S
C3013 C3007 1.363 . S
C3013 C3008 1.379 . S
C3013 N3011 1.356 . S
N3014 C3006 1.356 . S
N3014 H3020 0.984 . S
N3014 H3021 0.984 . S
N3015 C3008 1.356 . S
N3015 H3018 0.984 . S
N3015 H3019 0.985 . S
H3016 N3011 0.984 . S
H3017 N3011 0.985 . S
H3018 N3015 0.984 . S
H3019 N3015 0.985 . S
H3020 N3014 0.984 . S
H3021 N3014 0.984 . S
H3022 N3010 0.984 . S
H3023 N3010 0.985 . S
C3024 C3025 1.363 . S
C3024 C3030 1.379 . S
C3024 N3032 1.356 1_556 S
C3025 C3024 1.363 . S
C3025 C3031 1.363 . S
C3026 C3027 1.363 . S
C3026 C3031 1.379 . S
C3026 N3033 1.356 . S
C3027 C3026 1.363 . S
C3027 C3030 1.363 . S
N3028 C3030 1.356 . S
N3028 H3040 0.984 1_556 S
N3028 H3041 0.985 . S
N3029 C3031 1.356 . S
N3029 H3034 0.984 . S
N3029 H3035 0.985 . S
C3030 C3024 1.379 . S
C3030 C3027 1.363 . S
C3030 N3028 1.356 . S
C3031 C3025 1.363 . S
C3031 C3026 1.379 . S
C3031 N3029 1.356 . S
N3032 C3024 1.356 1_554 S
N3032 H3038 0.984 . S
N3032 H3039 0.984 . S
N3033 C3026 1.356 . S
N3033 H3036 0.984 . S
N3033 H3037 0.985 . S
H3034 N3029 0.984 . S
H3035 N3029 0.985 . S
H3036 N3033 0.984 . S
H3037 N3033 0.985 . S
H3038 N3032 0.984 . S
H3039 N3032 0.984 . S
H3040 N3028 0.984 1_554 S
H3041 N3028 0.985 . S
C3042 C3043 1.363 . S
C3042 C3048 1.379 . S
C3042 N3050 1.356 1_554 S
C3043 C3042 1.363 . S
C3043 C3049 1.363 . S
C3044 C3045 1.363 . S
C3044 C3049 1.379 . S
C3044 N3051 1.356 . S
C3045 C3044 1.363 . S
C3045 C3048 1.363 . S
N3046 C3048 1.356 . S
N3046 H3058 0.984 1_554 S
N3046 H3059 0.985 . S
N3047 C3049 1.356 . S
N3047 H3052 0.984 . S
N3047 H3053 0.985 . S
C3048 C3042 1.379 . S
C3048 C3045 1.363 . S
C3048 N3046 1.356 . S
C3049 C3043 1.363 . S
C3049 C3044 1.379 . S
C3049 N3047 1.356 . S
N3050 C3042 1.356 1_556 S
N3050 H3056 0.984 . S
N3050 H3057 0.984 . S
N3051 C3044 1.356 . S
N3051 H3054 0.984 . S
N3051 H3055 0.985 . S
H3052 N3047 0.984 . S
H3053 N3047 0.985 . S
H3054 N3051 0.984 . S
H3055 N3051 0.985 . S
H3056 N3050 0.984 . S
H3057 N3050 0.984 . S
H3058 N3046 0.984 1_556 S
H3059 N3046 0.985 . S
C3060 C3061 1.363 . S
C3060 C3066 1.379 . S
C3060 N3068 1.356 . S
C3061 C3060 1.363 . S
C3061 C3067 1.363 . S
C3062 C3063 1.363 . S
C3062 C3067 1.379 . S
C3062 N3069 1.356 . S
C3063 C3062 1.363 . S
C3063 C3066 1.363 . S
N3064 C3066 1.356 . S
N3064 H3076 0.984 . S
N3064 H3077 0.985 . S
N3065 C3067 1.356 . S
N3065 H3070 0.984 . S
N3065 H3071 0.985 . S
C3066 C3060 1.379 . S
C3066 C3063 1.363 . S
C3066 N3064 1.356 . S
C3067 C3061 1.363 . S
C3067 C3062 1.379 . S
C3067 N3065 1.356 . S
N3068 C3060 1.356 . S
N3068 H3074 0.984 . S
N3068 H3075 0.984 . S
N3069 C3062 1.356 . S
N3069 H3072 0.984 . S
N3069 H3073 0.985 . S
H3070 N3065 0.984 . S
H3071 N3065 0.985 . S
H3072 N3069 0.984 . S
H3073 N3069 0.985 . S
H3074 N3068 0.984 . S
H3075 N3068 0.984 . S
H3076 N3064 0.984 . S
H3077 N3064 0.985 . S
C3078 C3079 1.363 . S
C3078 C3084 1.379 . S
C3078 N3086 1.356 . S
C3079 C3078 1.363 . S
C3079 C3085 1.363 . S
C3080 C3081 1.363 . S
C3080 C3085 1.379 . S
C3080 N3087 1.356 . S
C3081 C3080 1.363 . S
C3081 C3084 1.363 . S
N3082 C3084 1.356 . S
N3082 H3094 0.984 . S
N3082 H3095 0.985 . S
N3083 C3085 1.356 . S
N3083 H3088 0.984 . S
N3083 H3089 0.985 . S
C3084 C3078 1.379 . S
C3084 C3081 1.363 . S
C3084 N3082 1.356 . S
C3085 C3079 1.363 . S
C3085 C3080 1.379 . S
C3085 N3083 1.356 . S
N3086 C3078 1.356 . S
N3086 H3092 0.984 . S
N3086 H3093 0.984 . S
N3087 C3080 1.356 . S
N3087 H3090 0.984 . S
N3087 H3091 0.985 . S
H3088 N3083 0.984 . S
H3089 N3083 0.985 . S
H3090 N3087 0.984 . S
H3091 N3087 0.985 . S
H3092 N3086 0.984 . S
H3093 N3086 0.984 . S
H3094 N3082 0.984 . S
H3095 N3082 0.985 . S
C3096 C3097 1.363 . S
C3096 C3102 1.379 . S
C3096 N3104 1.356 . S
C3097 C3096 1.363 . S
C3097 C3103 1.363 . S
C3098 C3099 1.363 . S
C3098 C3103 1.379 . S
C3098 N3105 1.356 . S
C3099 C3098 1.363 . S
C3099 C3102 1.363 . S
N3100 C3102 1.356 . S
N3100 H3112 0.984 . S
N3100 H3113 0.985 . S
N3101 C3103 1.356 . S
N3101 H3106 0.984 . S
N3101 H3107 0.985 . S
C3102 C3096 1.379 . S
C3102 C3099 1.363 . S
C3102 N3100 1.356 . S
C3103 C3097 1.363 . S
C3103 C3098 1.379 . S
C3103 N3101 1.356 . S
N3104 C3096 1.356 . S
N3104 H3110 0.984 1_455 S
N3104 H3111 0.984 . S
N3105 C3098 1.356 . S
N3105 H3108 0.984 . S
N3105 H3109 0.985 . S
H3106 N3101 0.984 . S
H3107 N3101 0.985 . S
H3108 N3105 0.984 . S
H3109 N3105 0.985 . S
H3110 N3104 0.984 1_655 S
H3111 N3104 0.984 . S
H3112 N3100 0.984 . S
H3113 N3100 0.985 . S
C3114 C3115 1.363 . S
C3114 C3120 1.379 . S
C3114 N3122 1.356 . S
C3115 C3114 1.363 . S
C3115 C3121 1.363 . S
C3116 C3117 1.363 . S
C3116 C3121 1.379 . S
C3116 N3123 1.356 . S
C3117 C3116 1.363 . S
C3117 C3120 1.363 . S
N3118 C3120 1.356 . S
N3118 H3130 0.984 . S
N3118 H3131 0.985 . S
N3119 C3121 1.356 . S
N3119 H3124 0.984 . S
N3119 H3125 0.985 . S
C3120 C3114 1.379 . S
C3120 C3117 1.363 . S
C3120 N3118 1.356 . S
C3121 C3115 1.363 . S
C3121 C3116 1.379 . S
C3121 N3119 1.356 . S
N3122 C3114 1.356 . S
N3122 H3128 0.984 . S
N3122 H3129 0.984 . S
N3123 C3116 1.356 . S
N3123 H3126 0.984 . S
N3123 H3127 0.985 . S
H3124 N3119 0.984 . S
H3125 N3119 0.985 . S
H3126 N3123 0.984 . S
H3127 N3123 0.985 . S
H3128 N3122 0.984 . S
H3129 N3122 0.984 . S
H3130 N3118 0.984 . S
H3131 N3118 0.985 . S
C3132 C3133 1.363 . S
C3132 C3138 1.379 . S
C3132 N3140 1.356 . S
C3133 C3132 1.363 . S
C3133 C3139 1.363 . S
C3134 C3135 1.363 . S
C3134 C3139 1.379 . S
C3134 N3141 1.356 . S
C3135 C3134 1.363 . S
C3135 C3138 1.363 . S
N3136 C3138 1.356 . S
N3136 H3148 0.984 . S
N3136 H3149 0.985 . S
N3137 C3139 1.356 . S
N3137 H3142 0.984 . S
N3137 H3143 0.985 . S
C3138 C3132 1.379 . S
C3138 C3135 1.363 . S
C3138 N3136 1.356 . S
C3139 C3133 1.363 . S
C3139 C3134 1.379 . S
C3139 N3137 1.356 . S
N3140 C3132 1.356 . S
N3140 H3146 0.984 . S
N3140 H3147 0.984 . S
N3141 C3134 1.356 . S
N3141 H3144 0.984 . S
N3141 H3145 0.985 . S
H3142 N3137 0.984 . S
H3143 N3137 0.985 . S
H3144 N3141 0.984 . S
H3145 N3141 0.985 . S
H3146 N3140 0.984 . S
H3147 N3140 0.984 . S
H3148 N3136 0.984 . S
H3149 N3136 0.985 . S
C3150 C3151 1.363 . S
C3150 C3156 1.379 . S
C3150 N3158 1.356 . S
C3151 C3150 1.363 . S
C3151 C3157 1.363 . S
C3152 C3153 1.363 . S
C3152 C3157 1.379 . S
C3152 N3159 1.356 . S
C3153 C3152 1.363 . S
C3153 C3156 1.363 . S
N3154 C3156 1.356 . S
N3154 H3166 0.984 1_655 S
N3154 H3167 0.985 . S
N3155 C3157 1.356 . S
N3155 H3160 0.984 . S
N3155 H3161 0.985 . S
C3156 C3150 1.379 . S
C3156 C3153 1.363 . S
C3156 N3154 1.356 . S
C3157 C3151 1.363 . S
C3157 C3152 1.379 . S
C3157 N3155 1.356 . S
N3158 C3150 1.356 . S
N3158 H3164 0.984 . S
N3158 H3165 0.984 . S
N3159 C3152 1.356 . S
N3159 H3162 0.984 . S
N3159 H3163 0.985 . S
H3160 N3155 0.984 . S
H3161 N3155 0.985 . S
H3162 N3159 0.984 . S
H3163 N3159 0.985 . S
H3164 N3158 0.984 . S
H3165 N3158 0.984 . S
H3166 N3154 0.984 1_455 S
H3167 N3154 0.985 . S
C3168 C3169 1.363 . S
C3168 C3174 1.379 . S
C3168 N3176 1.356 . S
C3169 C3168 1.363 . S
C3169 C3175 1.363 . S
C3170 C3171 1.363 . S
C3170 C3175 1.379 . S
C3170 N3177 1.356 . S
C3171 C3170 1.363 . S
C3171 C3174 1.363 . S
N3172 C3174 1.356 . S
N3172 H3184 0.984 . S
N3172 H3185 0.985 . S
N3173 C3175 1.356 . S
N3173 H3178 0.984 . S
N3173 H3179 0.985 . S
C3174 C3168 1.379 . S
C3174 C3171 1.363 . S
C3174 N3172 1.356 . S
C3175 C3169 1.363 . S
C3175 C3170 1.379 . S
C3175 N3173 1.356 . S
N3176 C3168 1.356 . S
N3176 H3182 0.984 . S
N3176 H3183 0.984 . S
N3177 C3170 1.356 . S
N3177 H3180 0.984 . S
N3177 H3181 0.985 . S
H3178 N3173 0.984 . S
H3179 N3173 0.985 . S
H3180 N3177 0.984 . S
H3181 N3177 0.985 . S
H3182 N3176 0.984 . S
H3183 N3176 0.984 . S
H3184 N3172 0.984 . S
H3185 N3172 0.985 . S
C3186 C3187 1.363 . S
C3186 C3192 1.379 . S
C3186 N3194 1.356 . S
C3187 C3186 1.363 . S
C3187 C3193 1.363 . S
C3188 C3189 1.363 . S
C3188 C3193 1.379 . S
C3188 N3195 1.356 . S
C3189 C3188 1.363 . S
C3189 C3192 1.363 . S
N3190 C3192 1.356 . S
N3190 H3202 0.984 . S
N3190 H3203 0.985 . S
N3191 C3193 1.356 1_545 S
N3191 H3196 0.984 . S
N3191 H3197 0.985 . S
C3192 C3186 1.379 . S
C3192 C3189 1.363 . S
C3192 N3190 1.356 . S
C3193 C3187 1.363 . S
C3193 C3188 1.379 . S
C3193 N3191 1.356 1_565 S
N3194 C3186 1.356 . S
N3194 H3200 0.984 . S
N3194 H3201 0.984 . S
N3195 C3188 1.356 . S
N3195 H3198 0.984 . S
N3195 H3199 0.985 1_565 S
H3196 N3191 0.984 . S
H3197 N3191 0.985 . S
H3198 N3195 0.984 . S
H3199 N3195 0.985 1_545 S
H3200 N3194 0.984 . S
H3201 N3194 0.984 . S
H3202 N3190 0.984 . S
H3203 N3190 0.985 . S
C3204 C3205 1.363 . S
C3204 C3210 1.379 . S
C3204 N3212 1.356 . S
C3205 C3204 1.363 . S
C3205 C3211 1.363 . S
C3206 C3207 1.363 . S
C3206 C3211 1.379 . S
C3206 N3213 1.356 . S
C3207 C3206 1.363 . S
C3207 C3210 1.363 . S
N3208 C3210 1.356 . S
N3208 H3220 0.984 . S
N3208 H3221 0.985 . S
N3209 C3211 1.356 . S
N3209 H3214 0.984 . S
N3209 H3215 0.985 . S
C3210 C3204 1.379 . S
C3210 C3207 1.363 . S
C3210 N3208 1.356 . S
C3211 C3205 1.363 . S
C3211 C3206 1.379 . S
C3211 N3209 1.356 . S
N3212 C3204 1.356 . S
N3212 H3218 0.984 . S
N3212 H3219 0.984 . S
N3213 C3206 1.356 . S
N3213 H3216 0.984 . S
N3213 H3217 0.985 . S
H3214 N3209 0.984 . S
H3215 N3209 0.985 . S
H3216 N3213 0.984 . S
H3217 N3213 0.985 . S
H3218 N3212 0.984 . S
H3219 N3212 0.984 . S
H3220 N3208 0.984 . S
H3221 N3208 0.985 . S
C3222 C3223 1.363 . S
C3222 C3228 1.379 . S
C3222 N3230 1.356 . S
C3223 C3222 1.363 . S
C3223 C3229 1.363 . S
C3224 C3225 1.363 . S
C3224 C3229 1.379 . S
C3224 N3231 1.356 . S
C3225 C3224 1.363 . S
C3225 C3228 1.363 . S
N3226 C3228 1.356 . S
N3226 H3238 0.984 . S
N3226 H3239 0.985 . S
N3227 C3229 1.356 . S
N3227 H3232 0.984 . S
N3227 H3233 0.985 . S
C3228 C3222 1.379 . S
C3228 C3225 1.363 . S
C3228 N3226 1.356 . S
C3229 C3223 1.363 . S
C3229 C3224 1.379 . S
C3229 N3227 1.356 . S
N3230 C3222 1.356 . S
N3230 H3236 0.984 . S
N3230 H3237 0.984 . S
N3231 C3224 1.356 . S
N3231 H3234 0.984 . S
N3231 H3235 0.985 . S
H3232 N3227 0.984 . S
H3233 N3227 0.985 . S
H3234 N3231 0.984 . S
H3235 N3231 0.985 . S
H3236 N3230 0.984 . S
H3237 N3230 0.984 . S
H3238 N3226 0.984 . S
H3239 N3226 0.985 . S
C3240 C3241 1.363 . S
C3240 C3246 1.379 . S
C3240 N3248 1.356 1_554 S
C3241 C3240 1.363 . S
C3241 C3247 1.363 . S
C3242 C3243 1.363 . S
C3242 C3247 1.379 . S
C3242 N3249 1.356 . S
C3243 C3242 1.363 . S
C3243 C3246 1.363 . S
N3244 C3246 1.356 . S
N3244 H3256 0.972 1_554 S
N3244 H3257 0.985 . S
N3245 C3247 1.356 . S
N3245 H3250 0.984 . S
N3245 H3251 0.985 . S
C3246 C3240 1.379 . S
C3246 C3243 1.363 . S
C3246 N3244 1.356 . S
C3247 C3241 1.363 . S
C3247 C3242 1.379 . S
C3247 N3245 1.356 . S
N3248 C3240 1.356 1_556 S
N3248 H3254 0.984 . S
N3248 H3255 0.984 . S
N3249 C3242 1.356 . S
N3249 H3252 0.984 . S
N3249 H3253 0.985 . S
H3250 N3245 0.984 . S
H3251 N3245 0.985 . S
H3252 N3249 0.984 . S
H3253 N3249 0.985 . S
H3254 N3248 0.984 . S
H3255 N3248 0.984 . S
H3256 N3244 0.972 1_556 S
H3257 N3244 0.985 . S
C3258 C3259 1.363 . S
C3258 C3264 1.379 . S
C3258 N3266 1.356 . S
C3259 C3258 1.363 . S
C3259 C3265 1.363 . S
C3260 C3261 1.363 . S
C3260 C3265 1.379 . S
C3260 N3267 1.356 . S
C3261 C3260 1.363 . S
C3261 C3264 1.363 . S
N3262 C3264 1.356 1_554 S
N3262 H3274 0.984 . S
N3262 H3275 0.985 . S
N3263 C3265 1.356 . S
N3263 H3268 0.984 . S
N3263 H3269 0.985 . S
C3264 C3258 1.379 . S
C3264 C3261 1.363 . S
C3264 N3262 1.356 1_556 S
C3265 C3259 1.363 . S
C3265 C3260 1.379 . S
C3265 N3263 1.356 . S
N3266 C3258 1.356 . S
N3266 H3272 0.984 . S
N3266 H3273 0.984 . S
N3267 C3260 1.356 . S
N3267 H3270 0.984 . S
N3267 H3271 0.985 . S
H3268 N3263 0.984 . S
H3269 N3263 0.985 . S
H3270 N3267 0.984 . S
H3271 N3267 0.985 . S
H3272 N3266 0.984 . S
H3273 N3266 0.984 . S
H3274 N3262 0.984 . S
H3275 N3262 0.985 . S
C3276 C3277 1.363 . S
C3276 C3282 1.379 . S
C3276 N3284 1.356 . S
C3277 C3276 1.363 . S
C3277 C3283 1.363 . S
C3278 C3279 1.363 . S
C3278 C3283 1.379 . S
C3278 N3285 1.356 . S
C3279 C3278 1.363 . S
C3279 C3282 1.363 . S
N3280 C3282 1.356 . S
N3280 H3292 0.984 . S
N3280 H3293 0.985 . S
N3281 C3283 1.356 . S
N3281 H3286 0.984 . S
N3281 H3287 0.985 . S
C3282 C3276 1.379 . S
C3282 C3279 1.363 . S
C3282 N3280 1.356 . S
C3283 C3277 1.363 . S
C3283 C3278 1.379 . S
C3283 N3281 1.356 . S
N3284 C3276 1.356 . S
N3284 H3290 0.984 . S
N3284 H3291 0.984 . S
N3285 C3278 1.356 . S
N3285 H3288 0.984 . S
N3285 H3289 0.985 . S
H3286 N3281 0.984 . S
H3287 N3281 0.985 . S
H3288 N3285 0.984 . S
H3289 N3285 0.985 . S
H3290 N3284 0.984 . S
H3291 N3284 0.984 . S
H3292 N3280 0.984 . S
H3293 N3280 0.985 . S
C3294 C3295 1.363 . S
C3294 C3300 1.379 . S
C3294 N3302 1.356 . S
C3295 C3294 1.363 . S
C3295 C3301 1.363 . S
C3296 C3297 1.363 . S
C3296 C3301 1.379 . S
C3296 N3303 1.356 . S
C3297 C3296 1.363 . S
C3297 C3300 1.363 . S
N3298 C3300 1.356 . S
N3298 H3310 0.984 . S
N3298 H3311 0.985 . S
N3299 C3301 1.356 . S
N3299 H3304 0.984 . S
N3299 H3305 0.985 . S
C3300 C3294 1.379 . S
C3300 C3297 1.363 . S
C3300 N3298 1.356 . S
C3301 C3295 1.363 . S
C3301 C3296 1.379 . S
C3301 N3299 1.356 . S
N3302 C3294 1.356 . S
N3302 H3308 0.984 . S
N3302 H3309 0.984 . S
N3303 C3296 1.356 . S
N3303 H3306 0.984 . S
N3303 H3307 0.985 . S
H3304 N3299 0.984 . S
H3305 N3299 0.985 . S
H3306 N3303 0.984 . S
H3307 N3303 0.985 . S
H3308 N3302 0.984 . S
H3309 N3302 0.984 . S
H3310 N3298 0.984 . S
H3311 N3298 0.985 . S
C2017 C74 2.380 . S
C2019 C1579 2.403 . S
C2035 C1663 2.403 . S
C2037 C158 2.380 . S
C2053 C242 2.380 . S
C2055 C1411 2.403 . S
C2071 C326 2.380 . S
C2073 C1495 2.403 . S
C2089 C1915 2.403 . S
C2091 C410 2.380 . S
C2107 C494 2.380 . S
C2109 C1831 2.403 . S
C2125 C1999 2.403 . S
C2127 C578 2.380 . S
C2143 C662 2.380 . S
C2145 C1747 2.403 . S
C2161 C746 2.380 . S
C2163 C1159 2.403 . S
C2179 C830 2.380 . S
C2181 C1327 2.403 . S
C2197 C1243 2.403 . S
C2199 C914 2.380 . S
C2215 C998 2.380 . S
C2217 C1075 2.403 . S
C2233 C1071 2.380 . S
C2235 C560 2.403 . S
C2251 C1155 2.380 . S
C2253 C644 2.403 . S
C2269 C1239 2.380 . S
C2271 C392 2.403 . S
C2287 C476 2.403 . S
C2289 C1323 2.380 . S
C2305 C1407 2.380 . S
C2307 C896 2.403 . S
C2323 C812 2.403 . S
C2325 C1491 2.380 . S
C2341 C980 2.403 . S
C2343 C1575 2.380 . S
C2359 C728 2.403 . S
C2361 C1659 2.380 . S
C2377 C140 2.403 . S
C2379 C1743 2.380 . S
C2395 C308 2.403 . S
C2397 C1827 2.380 . S
C2413 C224 2.403 . S
C2415 C1911 2.380 . S
C2431 C1995 2.380 . S
C2433 C56 2.403 . S
C2449 C403 1.544 . S
C2451 C70 1.181 . S
C2467 C487 1.544 . S
C2469 C154 1.181 . S
C2485 C571 1.544 . S
C2487 C238 1.181 . S
C2503 C655 1.544 . S
C2505 C322 1.181 . S
C2521 C406 1.181 . S
C2523 C739 1.544 . S
C2539 C490 1.181 . S
C2541 C991 1.544 . S
C2557 C574 1.181 . S
C2559 C823 1.544 . S
C2575 C658 1.181 . S
C2577 C907 1.544 . S
C2593 C742 1.181 . S
C2595 C67 1.544 . S
C2611 C826 1.181 . S
C2613 C235 1.544 . S
C2629 C910 1.181 . S
C2631 C319 1.544 . S
C2647 C151 1.544 . S
C2649 C994 1.181 . S
C2665 C1400 1.544 . S
C2667 C1066 1.181 . S
C2683 C1484 1.544 . S
C2685 C1150 1.181 . S
C2701 C1234 1.181 . S
C2703 C1568 1.544 . S
C2719 C1318 1.181 . S
C2721 C1652 1.544 . S
C2737 C1736 1.544 . S
C2739 C1402 1.181 . S
C2755 C1486 1.181 . S
C2757 C1988 1.544 . S
C2773 C1820 1.544 . S
C2775 C1570 1.181 . S
C2791 C1654 1.181 . S
C2793 C1904 1.544 . S
C2809 C1064 1.544 . S
C2811 C1738 1.181 . S
C2827 C1822 1.181 . S
C2829 C1232 1.544 . S
C2845 C1906 1.181 . S
C2847 C1316 1.544 . S
C2863 C1148 1.544 . S
C2865 C1990 1.181 . S
C2881 C63 1.436 . S
C2883 C814 1.565 . S
C2899 C898 1.565 . S
C2901 C147 1.436 . S
C2917 C730 1.565 . S
C2919 C231 1.436 . S
C2935 C982 1.565 . S
C2937 C315 1.436 . S
C2953 C399 1.436 . S
C2955 C310 1.565 . S
C2971 C226 1.565 . S
C2973 C483 1.436 . S
C2989 C567 1.436 . S
C2991 C142 1.565 . S
C3007 C58 1.565 . S
C3009 C651 1.436 . S
C3025 C735 1.436 . S
C3027 C478 1.565 . S
C3043 C819 1.436 . S
C3045 C646 1.565 . S
C3061 C903 1.436 . S
C3063 C562 1.565 . S
C3079 C987 1.436 . S
C3081 C394 1.565 . S
C3097 C1082 1.436 . S
C3099 C1834 1.565 . S
C3115 C1166 1.436 . S
C3117 C1918 1.565 . S
C3133 C1750 1.565 . S
C3135 C1250 1.436 . S
C3151 C2002 1.565 . S
C3153 C1334 1.436 . S
C3169 C1418 1.436 . S
C3171 C1330 1.565 . S
C3187 C1502 1.436 . S
C3189 C1246 1.565 . S
C3205 C1162 1.565 . S
C3207 C1586 1.436 . S
C3223 C1670 1.436 . S
C3225 C1078 1.565 . S
C3241 C1754 1.436 . S
C3243 C1498 1.565 . S
C3259 C1666 1.565 . S
C3261 C1838 1.436 . S
C3277 C1922 1.436 . S
C3279 C1582 1.565 . S
C3295 C2006 1.436 . S
C3297 C1414 1.565 . S
