# Generated by pormake.
# Topology snz, (6)-cn, num edge types: 1
# Building blocks:
#     Node 0, Type 0, BuildingBlock: CUWYAW_clean_sbu_0, # of connection points: 6
#     Node 1, Type 0, BuildingBlock: CUWYAW_clean_sbu_0, # of connection points: 6
#     Node 2, Type 0, BuildingBlock: CUWYAW_clean_sbu_0, # of connection points: 6
#     Node 3, Type 0, BuildingBlock: CUWYAW_clean_sbu_0, # of connection points: 6
#     Node 4, Type 0, BuildingBlock: CUWYAW_clean_sbu_0, # of connection points: 6
#     Node 5, Type 0, BuildingBlock: CUWYAW_clean_sbu_0, # of connection points: 6
#     Node 6, Type 0, BuildingBlock: CUWYAW_clean_sbu_0, # of connection points: 6
#     Node 7, Type 0, BuildingBlock: CUWYAW_clean_sbu_0, # of connection points: 6
#     Node 8, Type 0, BuildingBlock: CUWYAW_clean_sbu_0, # of connection points: 6
#     Edge 9, Type (0, 0), BuildingBlock: TEMPAE_clean_linker_10, # of connection points: 2
#     Edge 10, Type (0, 0), BuildingBlock: TEMPAE_clean_linker_10, # of connection points: 2
#     Edge 11, Type (0, 0), BuildingBlock: TEMPAE_clean_linker_10, # of connection points: 2
#     Edge 12, Type (0, 0), BuildingBlock: TEMPAE_clean_linker_10, # of connection points: 2
#     Edge 13, Type (0, 0), BuildingBlock: TEMPAE_clean_linker_10, # of connection points: 2
#     Edge 14, Type (0, 0), BuildingBlock: TEMPAE_clean_linker_10, # of connection points: 2
#     Edge 15, Type (0, 0), BuildingBlock: TEMPAE_clean_linker_10, # of connection points: 2
#     Edge 16, Type (0, 0), BuildingBlock: TEMPAE_clean_linker_10, # of connection points: 2
#     Edge 17, Type (0, 0), BuildingBlock: TEMPAE_clean_linker_10, # of connection points: 2
#     Edge 18, Type (0, 0), BuildingBlock: TEMPAE_clean_linker_10, # of connection points: 2
#     Edge 19, Type (0, 0), BuildingBlock: TEMPAE_clean_linker_10, # of connection points: 2
#     Edge 20, Type (0, 0), BuildingBlock: TEMPAE_clean_linker_10, # of connection points: 2
#     Edge 21, Type (0, 0), BuildingBlock: TEMPAE_clean_linker_10, # of connection points: 2
#     Edge 22, Type (0, 0), BuildingBlock: TEMPAE_clean_linker_10, # of connection points: 2
#     Edge 23, Type (0, 0), BuildingBlock: TEMPAE_clean_linker_10, # of connection points: 2
#     Edge 24, Type (0, 0), BuildingBlock: TEMPAE_clean_linker_10, # of connection points: 2
#     Edge 25, Type (0, 0), BuildingBlock: TEMPAE_clean_linker_10, # of connection points: 2
#     Edge 26, Type (0, 0), BuildingBlock: TEMPAE_clean_linker_10, # of connection points: 2
#     Edge 27, Type (0, 0), BuildingBlock: TEMPAE_clean_linker_10, # of connection points: 2
#     Edge 28, Type (0, 0), BuildingBlock: TEMPAE_clean_linker_10, # of connection points: 2
#     Edge 29, Type (0, 0), BuildingBlock: TEMPAE_clean_linker_10, # of connection points: 2
#     Edge 30, Type (0, 0), BuildingBlock: TEMPAE_clean_linker_10, # of connection points: 2
#     Edge 31, Type (0, 0), BuildingBlock: TEMPAE_clean_linker_10, # of connection points: 2
#     Edge 32, Type (0, 0), BuildingBlock: TEMPAE_clean_linker_10, # of connection points: 2
#     Edge 33, Type (0, 0), BuildingBlock: TEMPAE_clean_linker_10, # of connection points: 2
#     Edge 34, Type (0, 0), BuildingBlock: TEMPAE_clean_linker_10, # of connection points: 2
#     Edge 35, Type (0, 0), BuildingBlock: TEMPAE_clean_linker_10, # of connection points: 2
# Relax obj value: 0.146
# Max RMSD: 0.213
# Mean RMSD: 0.196
data_MOF--net-snz--node1-CUWYAW_clean_sbu_0--edge1-TEMPAE_clean_linker_10
_symmetry_space_group_name_H-M    P1
_symmetry_Int_Tables_number       1
_symmetry_cell_setting            triclinic
loop_
_symmetry_equiv_pos_as_xyz
'x, y, z'
_cell_length_a     67.783916
_cell_length_b     67.911234
_cell_length_c     14.840697
_cell_angle_alpha  90.091415
_cell_angle_beta   89.876945
_cell_angle_gamma 119.97546
loop_
_atom_site_label
_atom_site_type_symbol
_atom_site_fract_x
_atom_site_fract_y
_atom_site_fract_z
_atom_type_partial_charge
C0 C 0.14457 0.50429 0.95522 0.0
Eu1 Eu 0.1789 0.49866 0.99472 0.0
C2 C 0.13744 0.52134 0.96474 0.0
C3 C 0.1143 0.51442 0.95719 0.0
C4 C 0.10717 0.53046 0.95828 0.0
C5 C 0.12313 0.55375 0.96676 0.0
C6 C 0.14632 0.56059 0.9769 0.0
C7 C 0.15343 0.54448 0.9761 0.0
C8 C 0.18895 0.49204 0.16658 0.0
C9 C 0.22335 0.54726 0.03342 0.0
C10 C 0.25737 0.49476 0.0628 0.0
Eu11 Eu 0.22319 0.49983 0.01414 0.0
C12 C 0.27712 0.49204 0.08884 0.0
C13 C 0.29519 0.49784 0.02817 0.0
C14 C 0.31375 0.49514 0.05184 0.0
C15 C 0.3149 0.48678 0.13728 0.0
C16 C 0.29688 0.48116 0.19827 0.0
C17 C 0.27819 0.48363 0.17418 0.0
C18 C 0.21456 0.50736 0.84174 0.0
C19 C 0.17649 0.45157 0.96047 0.0
O20 O 0.16171 0.50956 0.901 0.0
O21 O 0.14555 0.4943 0.02881 0.0
O22 O 0.16899 0.48041 0.13028 0.0
O23 O 0.20248 0.50647 0.11117 0.0
O24 O 0.20366 0.53652 0.9912 0.0
O25 O 0.23326 0.53583 0.06274 0.0
O26 O 0.23791 0.48516 0.10625 0.0
O27 O 0.25815 0.50706 0.99367 0.0
O28 O 0.23465 0.51701 0.87789 0.0
O29 O 0.20029 0.49314 0.89626 0.0
O30 O 0.19703 0.46105 -0.00136 0.0
O31 O 0.16709 0.46391 0.94086 0.0
H32 H 0.10177 0.49662 0.94807 0.0
H33 H 0.08925 0.52469 0.94911 0.0
H34 H 0.15897 0.5784 0.98441 0.0
H35 H 0.17139 0.55013 0.98238 0.0
H36 H 0.29495 0.50436 0.96188 0.0
H37 H 0.32735 0.49983 0.00339 0.0
H38 H 0.29704 0.47446 0.26428 0.0
H39 H 0.26458 0.47902 0.22255 0.0
C40 C 0.79437 0.62538 0.96642 0.0
Eu41 Eu 0.79971 0.66525 0.00397 0.0
C42 C 0.77611 0.60145 0.96642 0.0
C43 C 0.78075 0.58481 -0.0013 0.0
C44 C 0.76413 0.56184 0.99462 0.0
C45 C 0.74257 0.55512 0.9579 0.0
C46 C 0.73778 0.57189 0.92753 0.0
C47 C 0.7544 0.59487 0.9318 0.0
C48 C 0.80666 0.68286 0.17413 0.0
C49 C 0.75026 0.65986 0.04093 0.0
C50 C 0.80187 0.74689 0.06729 0.0
Eu51 Eu 0.79721 0.70766 0.02084 0.0
C52 C 0.80436 0.76935 0.0922 0.0
C53 C 0.79772 0.78094 0.03186 0.0
C54 C 0.80039 0.80225 0.05411 0.0
C55 C 0.80961 0.81256 0.13773 0.0
C56 C 0.81605 0.80083 0.19847 0.0
C57 C 0.81355 0.77958 0.17585 0.0
C58 C 0.79011 0.69105 0.84945 0.0
C59 C 0.84647 0.71007 0.97103 0.0
O60 O 0.79285 0.63868 0.90664 0.0
O61 O 0.80122 0.63514 0.045 0.0
O62 O 0.81862 0.67488 0.13766 0.0
O63 O 0.79166 0.68111 0.11966 0.0
O64 O 0.7617 0.65131 0.00094 0.0
O65 O 0.76094 0.6815 0.06676 0.0
O66 O 0.81117 0.7371 0.11286 0.0
O67 O 0.79003 0.73529 -0.0026 0.0
O68 O 0.77964 0.70073 0.88531 0.0
O69 O 0.80459 0.69163 0.90426 0.0
O70 O 0.83624 0.72104 0.00366 0.0
O71 O 0.83492 0.68814 0.95512 0.0
H72 H 0.79741 0.58956 0.02545 0.0
H73 H 0.76842 0.54931 0.01751 0.0
H74 H 0.72124 0.56722 0.89978 0.0
H75 H 0.75039 0.60742 0.90668 0.0
H76 H 0.79057 0.7736 0.96685 0.0
H77 H 0.79502 0.81059 0.00591 0.0
H78 H 0.82343 0.80828 0.26305 0.0
H79 H 0.81886 0.77116 0.22395 0.0
C80 C 0.6716 0.15119 0.94794 0.0
Eu81 Eu 0.63122 0.11908 0.99633 0.0
C82 C 0.69565 0.15669 0.95097 0.0
C83 C 0.71046 0.17159 0.01688 0.0
C84 C 0.73367 0.17859 0.01474 0.0
C85 C 0.74262 0.17099 0.9462 0.0
C86 C 0.72768 0.15556 0.88183 0.0
C87 C 0.70448 0.14852 0.88406 0.0
C88 C 0.61524 0.11014 0.16928 0.0
C89 C 0.63416 0.07394 0.03607 0.0
C90 C 0.54747 0.04133 0.06225 0.0
Eu91 Eu 0.58733 0.07524 0.01678 0.0
C92 C 0.52465 1.02177 0.08681 0.0
C93 C 0.51233 1.00405 0.02503 0.0
C94 C 0.49082 0.98567 0.04747 0.0
C95 C 0.48105 0.98431 0.13276 0.0
C96 C 0.4935 1.00199 0.19483 0.0
C97 C 0.51494 1.0205 0.17203 0.0
C98 C 0.60384 0.08455 0.84476 0.0
C99 C 0.5873 0.12331 0.96926 0.0
O100 O 0.65784 0.13455 0.89496 0.0
O101 O 0.66194 0.15147 0.024 0.0
O102 O 0.62576 0.13025 0.13356 0.0
O103 O 0.61468 0.09577 0.11384 0.0
O104 O 0.64335 0.09369 0.9946 0.0
O105 O 0.61258 0.06394 0.06316 0.0
O106 O 0.55775 0.06028 0.10854 0.0
O107 O 0.55883 0.04094 0.99161 0.0
O108 O 0.59441 0.06445 0.88045 0.0
O109 O 0.60344 0.09835 0.90039 0.0
O110 O 0.57565 0.10231 0.00338 0.0
O111 O 0.60909 0.13255 0.95055 0.0
H112 H 0.70422 0.17827 0.069 0.0
H113 H 0.74468 0.19026 0.06598 0.0
H114 H 0.73404 0.14961 0.82738 0.0
H115 H 0.69361 0.13719 0.83168 0.0
H116 H 0.51927 1.00442 0.95884 0.0
H117 H 0.48194 0.97234 -0.00185 0.0
H118 H 0.4865 1.00172 0.26077 0.0
H119 H 0.52394 0.0338 0.22135 0.0
C120 C 0.81242 0.02495 0.27695 0.0
Eu121 Eu 0.84723 1.02045 0.3211 0.0
C122 C 0.79241 0.02743 0.25259 0.0
C123 C 0.77425 1.02096 0.31347 0.0
C124 C 0.75558 1.02366 0.29152 0.0
C125 C 0.75443 0.03272 0.20767 0.0
C126 C 0.77253 0.03899 0.14646 0.0
C127 C 0.7913 0.03647 0.16876 0.0
C128 C 0.85792 1.01425 0.49104 0.0
C129 C 0.89445 0.07024 0.36137 0.0
C130 C 0.92667 1.01763 0.37691 0.0
Eu131 Eu 0.89244 1.02317 0.33567 0.0
C132 C 0.93194 0.9991 0.38278 0.0
C133 C 0.95146 1.00164 0.33939 0.0
C134 C 0.95746 0.98481 0.34671 0.0
C135 C 0.94412 0.96521 0.39823 0.0
C136 C 0.9243 0.96245 0.44038 0.0
C137 C 0.91818 0.97921 0.43238 0.0
C138 C 0.88194 0.02981 0.16541 0.0
C139 C 0.84836 0.97376 0.30197 0.0
O140 O 0.83148 0.03436 0.23088 0.0
O141 O 0.81233 1.0131 0.34652 0.0
O142 O 0.83767 1.00272 0.45682 0.0
O143 O 0.87127 0.02877 0.43511 0.0
O144 O 0.87235 0.05933 0.34012 0.0
O145 O 0.90579 0.05938 0.37043 0.0
O146 O 0.91253 1.01783 0.43659 0.0
O147 O 0.92337 1.02301 0.2961 0.0
O148 O 0.90215 0.04067 0.20031 0.0
O149 O 0.8683 1.01522 0.22064 0.0
O150 O 0.86839 0.98532 0.34108 0.0
O151 O 0.83725 0.98427 0.27594 0.0
H152 H 0.77452 1.01394 0.37864 0.0
H153 H 0.74192 1.01843 0.34009 0.0
H154 H 0.77242 0.04626 0.0817 0.0
H155 H 0.80497 0.04163 0.12023 0.0
H156 H 0.96229 1.01683 0.30082 0.0
H157 H 0.97294 0.98746 0.31426 0.0
H158 H 0.91361 0.94737 0.47975 0.0
H159 H 0.90287 0.97671 0.4658 0.0
C160 C 0.27232 0.77505 0.25923 0.0
Eu161 Eu 0.27365 0.81219 0.31758 0.0
C162 C 0.2657 0.75053 0.25442 0.0
C163 C 0.28225 0.74432 0.27222 0.0
C164 C 0.27797 0.72221 0.25489 0.0
C165 C 0.25696 0.70553 0.21924 0.0
C166 C 0.24006 0.71149 0.20431 0.0
C167 C 0.24443 0.73375 0.22101 0.0
C168 C 0.27955 0.82733 0.49158 0.0
C169 C 0.22358 0.80825 0.36595 0.0
C170 C 0.2753 0.89319 0.39289 0.0
Eu171 Eu 0.27024 0.8542 0.34199 0.0
C172 C 0.29354 0.91728 0.39786 0.0
C173 C 0.29662 0.93245 0.3277 0.0
C174 C 0.3129 0.9555 0.3351 0.0
C175 C 0.32629 0.96388 0.41312 0.0
C176 C 0.3235 0.94864 0.48249 0.0
C177 C 0.30727 0.92562 0.47511 0.0
C178 C 0.26437 0.83882 0.16804 0.0
C179 C 0.31991 0.86107 0.30182 0.0
O180 O 0.25869 0.78211 0.22975 0.0
O181 O 0.28611 0.78802 0.32257 0.0
O182 O 0.29049 0.81818 0.4555 0.0
O183 O 0.26519 0.82666 0.43617 0.0
O184 O 0.23438 0.79771 0.33407 0.0
O185 O 0.23461 0.83012 0.38349 0.0
O186 O 0.27695 0.87898 0.44753 0.0
O187 O 0.26802 0.88451 0.31286 0.0
O188 O 0.25326 0.84776 0.2047 0.0
O189 O 0.27874 0.83941 0.22335 0.0
O190 O 0.30831 0.86886 0.34553 0.0
O191 O 0.30936 0.83983 0.27142 0.0
H192 H 0.29892 0.75685 0.29676 0.0
H193 H 0.29131 0.71826 0.2684 0.0
H194 H 0.22373 0.69919 0.1763 0.0
H195 H 0.23139 0.73797 0.20521 0.0
H196 H 0.28616 0.92661 0.26771 0.0
H197 H 0.3145 0.96688 0.28093 0.0
H198 H 0.33378 0.95455 0.54295 0.0
H199 H 0.30527 0.91445 0.53067 0.0
C200 C 0.52277 0.48062 0.28473 0.0
Eu201 Eu 0.4831 0.44672 0.33207 0.0
C202 C 0.5455 0.50026 0.25964 0.0
C203 C 0.55744 0.51843 0.32002 0.0
C204 C 0.57887 0.53689 0.29727 0.0
C205 C 0.58896 0.53787 0.21306 0.0
C206 C 0.57689 0.51973 0.15238 0.0
C207 C 0.55552 0.50115 0.17551 0.0
C208 C 0.46633 0.43776 0.50336 0.0
C209 C 0.48333 0.39883 0.38084 0.0
C210 C 0.39859 0.36906 0.38317 0.0
Eu211 Eu 0.43937 0.40262 0.34847 0.0
C212 C 0.3751 0.36481 0.39022 0.0
C213 C 0.35733 0.34483 0.35317 0.0
C214 C 0.33477 0.33969 0.36302 0.0
C215 C 0.3295 0.35442 0.41061 0.0
C216 C 0.34742 0.37479 0.44556 0.0
C217 C 0.37003 0.37995 0.43548 0.0
C218 C 0.45717 0.41306 0.17844 0.0
C219 C 0.43613 0.44765 0.31641 0.0
O220 O 0.51266 0.46141 0.23992 0.0
O221 O 0.51128 0.48128 0.35444 0.0
O222 O 0.47737 0.45794 0.46852 0.0
O223 O 0.46608 0.42347 0.44826 0.0
O224 O 0.49509 0.42002 0.3488 0.0
O225 O 0.46131 0.38906 0.39527 0.0
O226 O 0.41295 0.38187 0.44525 0.0
O227 O 0.40764 0.37327 0.30274 0.0
O228 O 0.44874 0.39305 0.21443 0.0
O229 O 0.45601 0.4265 0.23379 0.0
O230 O 0.42735 0.42804 0.35878 0.0
O231 O 0.45751 0.45764 0.28704 0.0
H232 H 0.55027 0.51836 0.38539 0.0
H233 H 0.58745 0.55056 0.34551 0.0
H234 H 0.58414 0.5197 0.08733 0.0
H235 H 0.54683 0.48749 0.12732 0.0
H236 H 0.3609 0.33301 0.31756 0.0
H237 H 0.3214 0.32407 0.33385 0.0
H238 H 0.34394 0.38643 0.48301 0.0
H239 H 0.38349 0.39555 0.46444 0.0
C240 C 0.48326 0.19241 0.6488 0.0
Eu241 Eu 0.51137 0.23584 0.65574 0.0
C242 C 0.46623 0.17293 0.59547 0.0
C243 C 0.44299 0.16259 0.61744 0.0
C244 C 0.4274 0.14152 0.5803 0.0
C245 C 0.43488 0.13033 0.52162 0.0
C246 C 0.45786 0.14124 0.49575 0.0
C247 C 0.47338 0.16232 0.53217 0.0
C248 C 0.50903 0.27268 0.59003 0.0
C249 C 0.547 0.26013 0.49696 0.0
C250 C 0.58786 0.32889 0.69586 0.0
Eu251 Eu 0.55866 0.28576 0.69048 0.0
C252 C 0.60686 0.34783 0.74373 0.0
C253 C 0.6259 0.36335 0.69386 0.0
C254 C 0.64204 0.38395 0.73211 0.0
C255 C 0.63932 0.38945 0.82088 0.0
C256 C 0.62096 0.37329 0.87259 0.0
C257 C 0.60486 0.3526 0.83442 0.0
C258 C 0.56057 0.24897 0.76091 0.0
C259 C 0.52134 0.26367 0.84221 0.0
O260 O 0.50446 0.20216 0.62101 0.0
O261 O 0.47766 0.20674 0.68421 0.0
O262 O 0.49253 0.25172 0.58177 0.0
O263 O 0.5246 0.27196 0.63278 0.0
O264 O 0.53261 0.24029 0.53339 0.0
O265 O 0.55704 0.27956 0.54185 0.0
O266 O 0.56774 0.31956 0.73444 0.0
O267 O 0.59174 0.31439 0.65143 0.0
O268 O 0.57684 0.26997 0.76991 0.0
O269 O 0.54545 0.2496 0.71445 0.0
O270 O 0.5346 0.28277 0.79888 0.0
O271 O 0.51227 0.24333 0.80408 0.0
H272 H 0.43704 0.1702 0.66686 0.0
H273 H 0.40977 0.13336 0.60177 0.0
H274 H 0.46398 0.13302 0.45002 0.0
H275 H 0.49117 0.16969 0.51407 0.0
H276 H 0.62765 0.3601 0.62361 0.0
H277 H 0.6559 0.39614 0.69034 0.0
H278 H 0.61862 0.377 0.94154 0.0
H279 H 0.59034 0.34088 0.87454 0.0
C280 C 0.09399 0.25408 0.6205 0.0
Eu281 Eu 0.05643 0.25407 0.65748 0.0
C282 C 0.11749 0.26922 0.5894 0.0
C283 C 0.12664 0.26139 0.52305 0.0
C284 C 0.14941 0.27457 0.49707 0.0
C285 C 0.16351 0.2959 0.53701 0.0
C286 C 0.15409 0.304 0.6018 0.0
C287 C 0.13127 0.29075 0.6278 0.0
C288 C 1.01421 0.21742 0.62584 0.0
C289 C 0.04535 0.27965 0.50551 0.0
C290 C 0.97222 0.25139 0.67994 0.0
Eu291 Eu 1.01464 0.2618 0.68037 0.0
C292 C 0.95258 0.24854 0.73344 0.0
C293 C 0.94136 0.26024 0.7074 0.0
C294 C 0.92012 0.25443 0.744 0.0
C295 C 0.90957 0.23661 0.80677 0.0
C296 C 0.92149 0.22587 0.83693 0.0
C297 C 0.9428 0.23178 0.80072 0.0
C298 C 0.05298 0.29921 0.74508 0.0
C299 C 1.03449 0.24814 0.85071 0.0
O300 O 0.08861 0.25762 0.70144 0.0
O301 O 0.07774 0.2487 0.56155 0.0
O302 O 1.03047 0.2162 0.66631 0.0
O303 O 1.02121 0.23768 0.60296 0.0
O304 O 0.06191 0.28044 0.55446 0.0
O305 O 1.02445 0.27098 0.53657 0.0
O306 O 0.97905 0.23663 0.69341 0.0
O307 O 0.98892 0.27202 0.66236 0.0
O308 O 1.03278 0.29704 0.74528 0.0
O309 O 0.05149 0.28149 0.71063 0.0
O310 O 1.01589 0.24584 0.81197 0.0
O311 O 0.05325 0.2534 0.80573 0.0
H312 H 0.11631 0.24477 0.49289 0.0
H313 H 0.15616 0.26764 0.44805 0.0
H314 H 0.16443 0.32045 0.63319 0.0
H315 H 0.12454 0.2971 0.67916 0.0
H316 H 0.94849 0.27315 0.65542 0.0
H317 H 0.9116 0.26336 0.72069 0.0
H318 H 0.91383 0.21198 0.88471 0.0
H319 H 0.95099 0.22238 0.82213 0.0
C320 C 1.02037 0.81299 0.64901 0.0
Eu321 Eu 1.03441 0.78384 0.65233 0.0
C322 C 1.01885 0.83085 0.59857 0.0
C323 C 1.02604 0.8519 0.64031 0.0
C324 C 1.02045 0.86738 0.60327 0.0
C325 C 1.00737 0.86194 0.52421 0.0
C326 C 1.00138 0.84146 0.47948 0.0
C327 C 1.00711 0.82606 0.51618 0.0
C328 C 0.07335 0.78555 0.5849 0.0
C329 C 1.01892 0.74678 0.49385 0.0
C330 C 0.05205 0.70829 0.68545 0.0
Eu331 Eu 1.03582 0.73571 0.68084 0.0
C332 C 0.05568 0.69225 0.74029 0.0
C333 C 0.03891 0.66921 0.74743 0.0
C334 C 0.04396 0.65373 0.78865 0.0
C335 C 0.06588 0.661 0.82302 0.0
C336 C 0.08233 0.68418 0.81849 0.0
C337 C 0.07732 0.69958 0.77733 0.0
C338 C 0.99647 0.73342 0.74466 0.0
C339 C 0.04614 0.76965 0.84533 0.0
O340 O 1.00844 0.79209 0.6186 0.0
O341 O 0.04001 0.81771 0.68465 0.0
O342 O 0.06968 0.80263 0.58167 0.0
O343 O 0.05654 0.76981 0.62485 0.0
O344 O 1.01642 0.76317 0.53074 0.0
O345 O 1.02828 0.73615 0.53478 0.0
O346 O 0.06371 0.72979 0.70862 0.0
O347 O 1.03147 0.70206 0.65571 0.0
O348 O 1.00035 0.71645 0.7488 0.0
O349 O 1.01342 0.74949 0.70643 0.0
O350 O 0.05129 0.75522 0.80709 0.0
O351 O 0.03806 0.78104 0.80147 0.0
H352 H 1.03489 0.85587 0.7043 0.0
H353 H 1.02515 0.88296 0.63952 0.0
H354 H 0.99154 0.837 0.41784 0.0
H355 H 1.00135 0.80996 0.48229 0.0
H356 H 1.02214 0.66299 0.71877 0.0
H357 H 1.03088 0.63598 0.7918 0.0
H358 H 0.09949 0.69028 0.84279 0.0
H359 H 0.09075 0.71715 0.77134 0.0
C360 C 0.19121 0.50413 0.706 0.0
C361 C 0.21095 0.50573 0.74287 0.0
C362 C 0.18754 0.50236 0.61219 0.0
C363 C 0.20351 0.50106 0.55412 0.0
C364 C 0.22327 0.50218 0.59158 0.0
C365 C 0.22697 0.50498 0.68518 0.0
C366 C 0.16672 0.50217 0.57521 0.0
C367 C 0.24031 0.49999 0.53295 0.0
C368 C 0.18251 0.47491 0.32096 0.0
C369 C 0.19282 0.49411 0.26527 0.0
C370 C 0.18615 0.47686 0.41484 0.0
C371 C 0.19965 0.49864 0.45432 0.0
C372 C 0.20968 0.51812 0.3981 0.0
C373 C 0.20652 0.51556 0.30426 0.0
C374 C 0.17582 0.45558 0.47163 0.0
C375 C 0.22345 0.54172 0.43709 0.0
H376 H 0.17881 0.50469 0.7504 0.0
H377 H 0.24213 0.50588 0.71362 0.0
H378 H 0.17185 0.51581 0.52418 0.0
H379 H 0.15557 0.48577 0.54089 0.0
H380 H 0.15668 0.50465 0.62873 0.0
H381 H 0.25419 0.50007 0.57291 0.0
H382 H 0.2316 0.48396 0.49361 0.0
H383 H 0.24802 0.51419 0.48393 0.0
H384 H 0.17197 0.45832 0.29079 0.0
H385 H 0.2143 0.53048 0.26142 0.0
H386 H 0.16375 0.45594 0.52124 0.0
H387 H 0.18938 0.45474 0.51033 0.0
H388 H 0.1666 0.4399 0.43034 0.0
H389 H 0.21322 0.54463 0.48832 0.0
H390 H 0.22907 0.55516 0.38472 0.0
H391 H 0.23875 0.54351 0.47165 0.0
C392 C 0.78541 0.7007 0.69111 0.0
C393 C 0.7916 0.68867 0.75057 0.0
C394 C 0.7882 0.69996 0.59742 0.0
C395 C 0.79657 0.68616 0.56174 0.0
C396 C 0.80225 0.67348 0.62151 0.0
C397 C 0.80015 0.67527 0.71523 0.0
C398 C 0.78264 0.71435 0.53674 0.0
C399 C 0.81046 0.65793 0.58651 0.0
C400 C 0.78319 0.66981 0.3141 0.0
C401 C 0.80427 0.68386 0.27283 0.0
C402 C 0.78062 0.66989 0.40816 0.0
C403 C 0.79938 0.68509 0.462 0.0
C404 C 0.82065 0.69958 0.42008 0.0
C405 C 0.82296 0.69843 0.3261 0.0
C406 C 0.75789 0.65354 0.44993 0.0
C407 C 0.84085 0.71662 0.47425 0.0
H408 H 0.77904 0.71131 0.718 0.0
H409 H 0.80505 0.66603 0.76089 0.0
H410 H 0.79778 0.7258 0.49558 0.0
H411 H 0.76884 0.70337 0.48939 0.0
H412 H 0.77718 0.72486 0.57525 0.0
H413 H 0.81257 0.64799 0.64125 0.0
H414 H 0.79822 0.64593 0.53634 0.0
H415 H 0.82705 0.66803 0.55172 0.0
H416 H 0.76878 0.65835 0.27278 0.0
H417 H 0.83923 0.70932 0.29391 0.0
H418 H 0.7506 0.66307 0.48355 0.0
H419 H 0.76015 0.6432 0.5024 0.0
H420 H 0.74544 0.64189 0.39935 0.0
H421 H 0.83635 0.72803 0.5114 0.0
H422 H 0.85596 0.72716 0.43127 0.0
H423 H 0.84555 0.70774 0.52511 0.0
C424 C 0.59994 0.10327 0.70644 0.0
C425 C 0.60634 0.08859 0.74613 0.0
C426 C 0.60101 0.10649 0.61256 0.0
C427 C 0.60944 0.09535 0.55687 0.0
C428 C 0.61644 0.08087 0.59707 0.0
C429 C 0.61438 0.07732 0.69105 0.0
C430 C 0.5927 0.1215 0.57294 0.0
C431 C 0.62632 0.06932 0.54094 0.0
C432 C 0.5948 0.08732 0.30583 0.0
C433 C 0.61353 0.10641 0.26809 0.0
C434 C 0.59305 0.08368 0.39969 0.0
C435 C 0.61099 0.09894 0.45684 0.0
C436 C 0.63026 0.11792 0.41835 0.0
C437 C 0.63107 0.12167 0.32479 0.0
C438 C 0.57183 0.0637 0.43778 0.0
C439 C 0.65019 0.13411 0.47584 0.0
H440 H 0.59339 0.11171 0.74874 0.0
H441 H 0.61939 0.06601 0.72171 0.0
H442 H 0.57935 0.11189 0.52183 0.0
H443 H 0.5856 0.12803 0.62497 0.0
H444 H 0.60689 0.13621 0.53814 0.0
H445 H 0.63201 0.05954 0.5828 0.0
H446 H 0.61346 0.05755 0.49208 0.0
H447 H 0.64106 0.08218 0.50143 0.0
H448 H 0.58127 0.07549 0.26208 0.0
H449 H 0.64576 0.13626 0.29558 0.0
H450 H 0.56393 0.06973 0.48825 0.0
H451 H 0.57625 0.05205 0.47306 0.0
H452 H 0.55906 0.05396 0.38478 0.0
H453 H 0.64472 0.1428 0.52477 0.0
H454 H 0.66446 0.14723 0.43501 0.0
H455 H 0.65655 0.12455 0.51528 0.0
C456 C 0.87532 0.03765 0.62891 0.0
C457 C 0.86207 1.01622 0.58927 0.0
C458 C 0.87811 0.04002 0.72288 0.0
C459 C 0.86818 1.0204 0.77832 0.0
C460 C 0.85531 0.99865 0.73804 0.0
C461 C 0.85201 0.99686 0.6441 0.0
C462 C 0.89133 0.06358 0.76288 0.0
C463 C 0.84524 0.97724 0.79404 0.0
C464 C 0.89471 0.02713 0.01048 0.0
C465 C 0.87832 0.02759 0.06684 0.0
C466 C 0.89134 0.02421 0.9169 0.0
C467 C 0.87152 1.02266 0.87819 0.0
C468 C 0.85507 1.02349 0.93496 0.0
C469 C 0.85844 0.02542 0.02891 0.0
C470 C 0.90885 1.02247 0.85965 0.0
C471 C 0.8341 1.02269 0.89641 0.0
H472 H 0.8829 0.05267 0.58656 0.0
H473 H 0.84182 0.9803 0.61325 0.0
H474 H 0.88064 0.06611 0.8131 0.0
H475 H 0.90655 0.06558 0.79884 0.0
H476 H 0.89701 0.07711 0.7109 0.0
H477 H 0.83667 0.96163 0.75203 0.0
H478 H 0.85881 0.97679 0.83415 0.0
H479 H 0.83264 0.97705 0.84236 0.0
H480 H 0.90995 0.02846 0.03996 0.0
H481 H 0.84577 0.02574 0.07253 0.0
H482 H 0.91662 0.03679 0.81122 0.0
H483 H 0.90055 1.00652 0.81966 0.0
H484 H 0.92264 1.02268 0.90071 0.0
H485 H 0.83912 0.03645 0.84601 0.0
H486 H 0.82351 0.02459 0.94919 0.0
H487 H 0.82353 1.00632 0.86096 0.0
C488 C 0.25626 0.8172 0.63257 0.0
C489 C 0.27757 0.82915 0.59047 0.0
C490 C 0.25396 0.81821 0.72653 0.0
C491 C 0.27341 0.83207 0.77987 0.0
C492 C 0.29501 0.8444 0.73718 0.0
C493 C 0.29687 0.84246 0.64322 0.0
C494 C 0.23072 0.80425 0.76873 0.0
C495 C 0.31609 0.85991 0.79056 0.0
C496 C 0.26235 0.85045 0.00944 0.0
C497 C 0.26612 0.83665 0.06899 0.0
C498 C 0.26519 0.84952 0.91571 0.0
C499 C 0.27108 0.83375 0.87993 0.0
C500 C 0.27444 0.81943 0.93993 0.0
C501 C 0.27242 0.82141 0.03369 0.0
C502 C 0.26226 0.86569 0.85505 0.0
C503 C 0.27993 0.80183 0.90506 0.0
H504 H 0.24144 0.8065 0.59202 0.0
H505 H 0.31337 0.85172 0.61064 0.0
H506 H 0.23139 0.79347 0.82337 0.0
H507 H 0.22524 0.81564 0.79957 0.0
H508 H 0.21765 0.79314 0.7189 0.0
H509 H 0.33143 0.86891 0.74711 0.0
H510 H 0.31353 0.87273 0.82713 0.0
H511 H 0.3193 0.85 0.84187 0.0
H512 H 0.2578 0.8625 0.03639 0.0
H513 H 0.27541 0.81076 0.07947 0.0
H514 H 0.24795 0.85603 0.80774 0.0
H515 H 0.27784 0.87565 0.81385 0.0
H516 H 0.25882 0.8777 0.89359 0.0
H517 H 0.2667 0.79046 0.85634 0.0
H518 H 0.28097 0.79129 0.96003 0.0
H519 H 0.29642 0.81025 0.86855 0.0
C520 C 0.44473 0.4169 0.64134 0.0
C521 C 0.46473 0.43406 0.60192 0.0
C522 C 0.44318 0.41337 0.73526 0.0
C523 C 0.4624 0.42678 0.79046 0.0
C524 C 0.4828 0.44384 0.75019 0.0
C525 C 0.48358 0.44752 0.6567 0.0
C526 C 0.42088 0.39554 0.77552 0.0
C527 C 0.5039 0.45805 0.80573 0.0
C528 C 0.4553 0.43355 0.0417 0.0
C529 C 0.45937 0.41701 0.07971 0.0
C530 C 0.45576 0.43656 0.94782 0.0
C531 C 0.46118 0.42323 0.89037 0.0
C532 C 0.46579 0.40682 0.92868 0.0
C533 C 0.46446 0.40366 0.02279 0.0
C534 C 0.45011 0.45379 0.91008 0.0
C535 C 0.47228 0.39273 0.87027 0.0
H536 H 0.43014 0.40659 0.59894 0.0
H537 H 0.49916 0.46064 0.62598 0.0
H538 H 0.42321 0.38241 0.8104 0.0
H539 H 0.41502 0.40342 0.82675 0.0
H540 H 0.40735 0.38706 0.72386 0.0
H541 H 0.51869 0.46988 0.76366 0.0
H542 H 0.50058 0.46815 0.85597 0.0
H543 H 0.5085 0.44684 0.84361 0.0
H544 H 0.4511 0.44376 0.08534 0.0
H545 H 0.46762 0.39088 0.05202 0.0
H546 H 0.43587 0.44544 0.86128 0.0
H547 H 0.46497 0.46719 0.87299 0.0
H548 H 0.4452 0.46202 0.9635 0.0
H549 H 0.45829 0.3823 0.82271 0.0
H550 H 0.47606 0.38123 0.91055 0.0
H551 H 0.48751 0.40403 0.82926 0.0
C552 C 0.54619 0.24606 0.34209 0.0
C553 C 0.54543 0.26183 0.40021 0.0
C554 C 0.54138 0.24613 0.25052 0.0
C555 C 0.53457 0.26153 0.2193 0.0
C556 C 0.53334 0.27714 0.27863 0.0
C557 C 0.53939 0.27747 0.36821 0.0
C558 C 0.54373 0.22995 0.18734 0.0
C559 C 0.52538 0.29325 0.24799 0.0
C560 C 0.54429 0.27967 0.97779 0.0
C561 C 0.52302 0.2648 0.93989 0.0
C562 C 0.54831 0.27847 0.06877 0.0
C563 C 0.53032 0.2626 0.12328 0.0
C564 C 0.50846 0.24821 0.08648 0.0
C565 C 0.50517 0.24914 0.99389 0.0
C566 C 0.57201 0.2936 0.10569 0.0
C567 C 0.48878 0.23176 0.14453 0.0
H568 H 0.55053 0.23381 0.36827 0.0
H569 H 0.53828 0.28927 0.41435 0.0
H570 H 0.52713 0.21845 0.15498 0.0
H571 H 0.55597 0.23965 0.13271 0.0
H572 H 0.54971 0.21947 0.22247 0.0
H573 H 0.52352 0.30285 0.30496 0.0
H574 H 0.53769 0.30564 0.19905 0.0
H575 H 0.50874 0.28368 0.21313 0.0
H576 H 0.55829 0.29139 0.93526 0.0
H577 H 0.48886 0.23755 0.96359 0.0
H578 H 0.57844 0.28305 0.13682 0.0
H579 H 0.57162 0.30483 0.15913 0.0
H580 H 0.58426 0.30443 0.05282 0.0
H581 H 0.49242 0.21883 0.173 0.0
H582 H 0.47256 0.2229 0.1062 0.0
H583 H 0.48651 0.2409 0.2021 0.0
C584 C 0.04282 0.29088 0.34923 0.0
C585 C 0.04727 0.27783 0.40931 0.0
C586 C 0.04092 0.28592 0.25703 0.0
C587 C 0.04253 0.26696 0.22702 0.0
C588 C 0.0469 0.25373 0.28818 0.0
C589 C 0.04954 0.25959 0.37881 0.0
C590 C 0.03691 0.30065 0.19208 0.0
C591 C 0.04806 0.23302 0.25849 0.0
C592 C 1.01671 0.24117 0.00242 0.0
C593 C 1.03626 0.25006 0.94863 0.0
C594 C 1.01848 0.24632 0.09431 0.0
C595 C 0.04021 0.2611 0.13122 0.0
C596 C 0.05999 0.26976 0.07753 0.0
C597 C 0.05779 0.26385 0.9869 0.0
C598 C 0.99718 0.2363 0.15146 0.0
C599 C 0.08339 0.28577 0.11515 0.0
H600 H 0.04056 0.30463 0.37445 0.0
H601 H 0.05208 0.24904 0.42682 0.0
H602 H 0.05024 0.30725 0.13896 0.0
H603 H 1.02027 0.29038 0.15797 0.0
H604 H 0.03702 0.31527 0.22622 0.0
H605 H 0.05115 0.22437 0.31569 0.0
H606 H 1.03186 0.22068 0.22532 0.0
H607 H 0.06188 0.2379 0.2083 0.0
H608 H 1.0001 0.23058 0.97242 0.0
H609 H 0.07296 0.27108 0.94515 0.0
H610 H 0.99468 0.2501 0.17896 0.0
H611 H 0.99894 0.22707 0.20972 0.0
H612 H 0.98173 0.22439 0.1128 0.0
H613 H 0.08376 0.30104 0.14396 0.0
H614 H 0.09698 0.29137 0.06321 0.0
H615 H 0.0874 0.27739 0.17055 0.0
C616 C 1.00234 0.75107 0.35171 0.0
C617 C 1.01559 0.74369 0.39683 0.0
C618 C 1.004 0.75389 0.25832 0.0
C619 C 1.01968 0.74975 0.21117 0.0
C620 C 1.03172 0.74061 0.25552 0.0
C621 C 1.02919 0.73729 0.34811 0.0
C622 C 0.99012 0.76259 0.21128 0.0
C623 C 0.04866 0.73606 0.20668 0.0
C624 C 1.02227 0.74395 0.96271 0.0
C625 C 0.04009 0.76552 0.93951 0.0
C626 C 1.01396 0.73919 0.05018 0.0
C627 C 1.02476 0.7561 0.1164 0.0
C628 C 0.04261 0.77814 0.09322 0.0
C629 C 0.04978 0.7828 0.00343 0.0
C630 C 0.99428 0.71584 0.07206 0.0
C631 C 0.05471 0.79635 0.16362 0.0
H632 H 0.99159 0.75572 0.38974 0.0
H633 H 0.03945 0.73156 0.38297 0.0
H634 H 1.00128 0.78076 0.19366 0.0
H635 H 0.98282 0.75317 0.14758 0.0
H636 H 0.97603 0.76111 0.25449 0.0
H637 H 0.05622 0.72847 0.25139 0.0
H638 H 0.04037 0.72438 0.14914 0.0
H639 H 0.06266 0.75221 0.17896 0.0
H640 H 1.01459 0.73078 0.91202 0.0
H641 H 0.06323 0.79957 0.98369 0.0
H642 H 0.98193 0.71708 0.11756 0.0
H643 H 1.00071 0.70579 0.10742 0.0
H644 H 0.98515 0.70641 0.01039 0.0
H645 H 0.04223 0.79889 0.20297 0.0
H646 H 0.06742 0.81287 0.13352 0.0
H647 H 0.0636 0.7909 0.21157 0.0
C648 C 0.42765 0.47728 0.25096 0.0
C649 C 0.42024 0.45623 0.29305 0.0
C650 C 0.41195 0.48427 0.22535 0.0
C651 C 0.38825 0.46971 0.24061 0.0
C652 C 0.38079 0.44851 0.28322 0.0
C653 C 0.39676 0.44219 0.30934 0.0
C654 C 0.4207 0.50715 0.18134 0.0
C655 C 0.35577 0.43217 0.29988 0.0
C656 C 0.34484 0.49009 0.24745 0.0
C657 C 0.33462 0.48364 0.16209 0.0
C658 C 0.36296 0.48663 0.27235 0.0
C659 C 0.371 0.47615 0.21111 0.0
C660 C 0.361 0.46995 0.12432 0.0
C661 C 0.34311 0.47388 0.10079 0.0
C662 C 0.37318 0.49375 0.36513 0.0
C663 C 0.36861 0.45834 0.0573 0.0
H664 H 0.44565 0.48826 0.23769 0.0
H665 H 0.39058 0.42578 0.34098 0.0
H666 H 0.41377 0.5049 0.11206 0.0
H667 H 0.41472 0.51728 0.2194 0.0
H668 H 0.43959 0.51693 0.17766 0.0
H669 H 0.3527 0.41616 0.33251 0.0
H670 H 0.34853 0.44026 0.34356 0.0
H671 H 0.34633 0.42782 0.23519 0.0
H672 H 0.33867 0.49793 0.29495 0.0
H673 H 0.33525 0.46862 0.03503 0.0
H674 H 0.39199 0.50436 0.36028 0.0
H675 H 0.36935 0.47849 0.40536 0.0
H676 H 0.36651 0.50347 0.40185 0.0
H677 H 0.38732 0.46841 0.04754 0.0
H678 H 0.36021 0.45589 0.99078 0.0
H679 H 0.3646 0.44146 0.08374 0.0
C680 C 0.8077 0.84018 0.24736 0.0
C681 C 0.81284 0.83556 0.1608 0.0
C682 C 0.81129 0.8619 0.27048 0.0
C683 C 0.82051 0.8797 0.20606 0.0
C684 C 0.82539 0.87504 0.11815 0.0
C685 C 0.82141 0.85311 0.09657 0.0
C686 C 0.80561 0.86591 0.36467 0.0
C687 C 0.83558 0.89347 0.04754 0.0
C688 C 0.8185 0.93478 0.24395 0.0
C689 C 0.84016 0.94929 0.28018 0.0
C690 C 0.81165 0.912 0.22081 0.0
C691 C 0.82692 0.90358 0.23272 0.0
C692 C 0.84875 0.91819 0.26936 0.0
C693 C 0.85496 0.9406 0.29303 0.0
C694 C 0.78812 0.89695 0.18317 0.0
C695 C 0.86582 0.9103 0.28239 0.0
H696 H 0.80078 0.82673 0.29725 0.0
H697 H 0.82569 0.8499 0.02981 0.0
H698 H 0.82146 0.87809 0.40028 0.0
H699 H 0.79454 0.87361 0.36209 0.0
H700 H 0.79687 0.84998 0.40467 0.0
H701 H 0.83712 0.88687 0.98092 0.0
H702 H 0.82503 0.90164 0.03969 0.0
H703 H 0.85278 0.90687 0.06929 0.0
H704 H 0.8069 0.94119 0.23357 0.0
H705 H 0.87183 0.9515 0.32028 0.0
H706 H 0.77889 0.88136 0.22475 0.0
H707 H 0.78936 0.89147 0.11395 0.0
H708 H 0.77795 0.90566 0.18092 0.0
H709 H 0.85868 0.89534 0.3278 0.0
H710 H 0.88214 0.92376 0.31139 0.0
H711 H 0.86947 0.9049 0.21681 0.0
C712 C 0.43998 0.95633 0.09373 0.0
C713 C 0.45791 0.96471 0.15636 0.0
C714 C 0.418 0.93844 0.11577 0.0
C715 C 0.41365 0.92834 0.2025 0.0
C716 C 0.43181 0.93636 0.26531 0.0
C717 C 0.45357 0.95444 0.2418 0.0
C718 C 0.39922 0.93081 0.0469 0.0
C719 C 0.42816 0.92605 0.35813 0.0
C720 C 0.35295 0.90102 0.295 0.0
C721 C 0.34428 0.87768 0.27879 0.0
C722 C 0.37528 0.91746 0.27052 0.0
C723 C 0.38982 0.91065 0.22963 0.0
C724 C 0.38139 0.88711 0.21416 0.0
C725 C 0.35871 0.87095 0.23817 0.0
C726 C 0.38318 0.94226 0.28741 0.0
C727 C 0.39633 0.87901 0.17184 0.0
H728 H 0.44296 0.9642 0.02789 0.0
H729 H 0.46729 0.96047 0.29043 0.0
H730 H 0.391 0.91219 0.03614 0.0
H731 H 0.3859 0.93438 0.07217 0.0
H732 H 0.40553 0.9395 0.98105 0.0
H733 H 0.44427 0.93302 0.39698 0.0
H734 H 0.41604 0.92938 0.39638 0.0
H735 H 0.42048 0.90733 0.353 0.0
H736 H 0.34209 0.90666 0.32564 0.0
H737 H 0.3523 0.85306 0.22513 0.0
H738 H 0.38838 0.95179 0.22293 0.0
H739 H 0.39831 0.94976 0.33205 0.0
H740 H 0.36976 0.94483 0.31906 0.0
H741 H 0.40154 0.8863 0.10328 0.0
H742 H 0.3876 0.86019 0.16679 0.0
H743 H 0.41211 0.88505 0.21202 0.0
C744 C 0.56267 0.14124 0.99641 0.0
C745 C 0.57635 0.13655 0.93941 0.0
C746 C 0.55695 0.15803 0.97306 0.0
C747 C 0.56495 0.17021 0.89066 0.0
C748 C 0.57759 0.16442 0.83102 0.0
C749 C 0.58321 0.14792 0.85634 0.0
C750 C 0.54346 0.16362 0.03875 0.0
C751 C 0.58633 0.17654 0.74208 0.0
C752 C 0.54243 0.20655 0.78461 0.0
C753 C 0.5602 0.22867 0.80175 0.0
C754 C 0.54315 0.1873 0.8161 0.0
C755 C 0.56189 0.19017 0.86847 0.0
C756 C 0.57923 0.21256 0.89064 0.0
C757 C 0.57827 0.23144 0.85651 0.0
C758 C 0.52436 0.16392 0.78966 0.0
C759 C 0.59938 0.21662 0.9474 0.0
H760 H 0.5576 0.13282 0.06124 0.0
H761 H 0.59391 0.14455 0.81204 0.0
H762 H 0.55465 0.1807 0.06812 0.0
H763 H 0.52934 0.16424 0.00374 0.0
H764 H 0.53628 0.15106 0.09448 0.0
H765 H 0.5942 0.16873 0.70006 0.0
H766 H 0.57227 0.17638 0.70332 0.0
H767 H 0.59929 0.19458 0.75447 0.0
H768 H 0.5282 0.20424 0.74478 0.0
H769 H 0.59198 0.24845 0.87147 0.0
H770 H 0.51778 0.15279 0.84979 0.0
H771 H 0.53121 0.15604 0.7428 0.0
H772 H 0.50998 0.16441 0.75598 0.0
H773 H 0.59354 0.20612 0.00942 0.0
H774 H 0.61005 0.23476 0.96702 0.0
H775 H 0.61014 0.21145 0.90914 0.0
C776 C 0.09579 0.32367 0.76426 0.0
C777 C 0.07364 0.3192 0.78349 0.0
C778 C 0.11509 0.34381 0.79546 0.0
C779 C 0.11218 0.35961 0.84857 0.0
C780 C 0.0898 0.35454 0.87115 0.0
C781 C 0.07094 0.3346 0.838 0.0
C782 C 0.13859 0.34858 0.76949 0.0
C783 C 0.08566 0.37067 0.9275 0.0
C784 C 0.15948 0.40909 0.9832 0.0
C785 C 0.16416 0.42762 0.92764 0.0
C786 C 0.14349 0.38658 0.95659 0.0
C787 C 0.13207 0.38256 0.87243 0.0
C788 C 0.13801 0.40121 0.81413 0.0
C789 C 0.15379 0.42333 0.84252 0.0
C790 C 0.13779 0.36727 0.0208 0.0
C791 C 0.12662 0.39803 0.72365 0.0
H792 H 0.09803 0.31184 0.7224 0.0
H793 H 0.05391 0.33122 0.85397 0.0
H794 H 0.14796 0.36518 0.73434 0.0
H795 H 0.14839 0.34975 0.83101 0.0
H796 H 0.13813 0.33526 0.72482 0.0
H797 H 0.06741 0.36341 0.9456 0.0
H798 H 0.09579 0.37508 0.99044 0.0
H799 H 0.09126 0.3867 0.88971 0.0
H800 H 0.16721 0.41226 0.0494 0.0
H801 H 0.15738 0.43757 0.79901 0.0
H802 H 0.13756 0.35282 0.98488 0.0
H803 H 0.1205 0.36104 0.04906 0.0
H804 H 0.15009 0.37254 0.07746 0.0
H805 H 0.12705 0.38423 0.68518 0.0
H806 H 0.13482 0.41379 0.68244 0.0
H807 H 0.10847 0.39297 0.73379 0.0
C808 C 0.95855 0.7139 0.82284 0.0
C809 C 0.97618 0.73363 0.78326 0.0
C810 C 0.93889 0.71331 0.85773 0.0
C811 C 0.93655 0.73292 0.85272 0.0
C812 C 0.95462 0.7531 0.81498 0.0
C813 C 0.97425 0.75325 0.78163 0.0
C814 C 0.92033 0.69144 0.89806 0.0
C815 C 0.95302 0.77442 0.80804 0.0
C816 C 0.87465 0.71913 0.84876 0.0
C817 C 0.8705 0.72193 0.93924 0.0
C818 C 0.89633 0.72394 0.81892 0.0
C819 C 0.91454 0.73158 0.88118 0.0
C820 C 0.91078 0.73571 0.97189 0.0
C821 C 0.88878 0.73078 -7e-05 0.0
C822 C 0.89928 0.7193 0.72172 0.0
C823 C 0.92961 0.74387 0.04071 0.0
H824 H 0.95999 0.69872 0.82578 0.0
H825 H 0.98804 0.76873 0.75396 0.0
H826 H 0.91604 0.69458 0.9668 0.0
H827 H 0.90468 0.68483 0.85665 0.0
H828 H 0.92529 0.67815 0.9021 0.0
H829 H 0.96885 0.78898 0.78055 0.0
H830 H 0.9386 0.77129 0.76359 0.0
H831 H 0.94953 0.77915 0.87533 0.0
H832 H 0.86047 0.71187 0.80195 0.0
H833 H 0.88557 0.7324 0.07038 0.0
H834 H 0.90187 0.70442 0.718 0.0
H835 H 0.91458 0.73402 0.69223 0.0
H836 H 0.88424 0.71566 0.67995 0.0
H837 H 0.93328 0.73002 0.05573 0.0
H838 H 0.925 0.74911 0.10467 0.0
H839 H 0.94551 0.75841 0.01393 0.0
C840 C 0.06595 0.62436 0.80814 0.0
C841 C 0.07234 0.64442 0.85649 0.0
C842 C 0.07398 0.6097 0.83275 0.0
C843 C 0.08878 0.61524 0.90748 0.0
C844 C 0.09474 0.63508 0.95832 0.0
C845 C 0.08642 0.64943 0.93225 0.0
C846 C 0.06727 0.58869 0.77676 0.0
C847 C 0.11043 0.64148 0.03856 0.0
C848 C 0.0956 0.56715 0.00238 0.0
C849 C 0.11558 0.57077 0.95928 0.0
C850 C 0.08703 0.5819 0.9884 0.0
C851 C 0.09871 0.60069 0.9298 0.0
C852 C 0.11932 0.60489 0.88856 0.0
C853 C 0.12752 0.58988 0.90387 0.0
C854 C 0.0651 0.57699 0.034 0.0
C855 C 0.13225 0.62474 0.8255 0.0
H856 H 0.05537 0.62056 0.74873 0.0
H857 H 0.09122 0.6648 0.9704 0.0
H858 H 0.0826 0.59 0.74389 0.0
H859 H 0.05988 0.5734 0.82042 0.0
H860 H 0.0547 0.58621 0.72368 0.0
H861 H 0.11238 0.65679 0.07393 0.0
H862 H 0.10388 0.62718 0.08714 0.0
H863 H 0.1275 0.64493 0.01624 0.0
H864 H 0.08648 0.55255 0.04618 0.0
H865 H 0.14282 0.59262 0.86955 0.0
H866 H 0.05175 0.57287 0.98247 0.0
H867 H 0.06749 0.59223 0.07102 0.0
H868 H 0.05888 0.56254 0.08195 0.0
H869 H 0.12176 0.62257 0.76498 0.0
H870 H 0.14869 0.62643 0.8033 0.0
H871 H 0.13572 0.6408 0.85874 0.0
C872 C 0.71395 0.52266 0.8651 0.0
C873 C 0.72568 0.53064 0.94676 0.0
C874 C 0.69926 0.49937 0.85062 0.0
C875 C 0.69622 0.4837 0.91955 0.0
C876 C 0.70749 0.49169 0.00308 0.0
C877 C 0.72213 0.51509 0.01566 0.0
C878 C 0.68752 0.49149 0.76058 0.0
C879 C 0.70447 0.47547 0.07834 0.0
C880 C 0.64475 0.42465 0.8971 0.0
C881 C 0.65431 0.41278 0.85558 0.0
C882 C 0.65829 0.44762 0.9207 0.0
C883 C 0.68194 0.45892 0.90251 0.0
C884 C 0.69182 0.4468 0.86358 0.0
C885 C 0.67785 0.42387 0.8404 0.0
C886 C 0.64714 0.46001 0.96163 0.0
C887 C 0.71701 0.45827 0.84365 0.0
H888 H 0.71685 0.53457 0.81124 0.0
H889 H 0.73094 0.52123 0.07929 0.0
H890 H 0.6935 0.4809 0.72615 0.0
H891 H 0.66886 0.48074 0.77028 0.0
H892 H 0.69084 0.50592 0.71575 0.0
H893 H 0.71361 0.48449 0.1406 0.0
H894 H 0.68613 0.46455 0.09443 0.0
H895 H 0.71092 0.46408 0.05658 0.0
H896 H 0.62649 0.41624 0.90769 0.0
H897 H 0.6853 0.41467 0.80894 0.0
H898 H 0.64837 0.47316 0.91399 0.0
H899 H 0.6561 0.46889 0.02423 0.0
H900 H 0.62889 0.44838 0.97767 0.0
H901 H 0.72161 0.47182 0.79265 0.0
H902 H 0.7222 0.44616 0.81781 0.0
H903 H 0.72695 0.46652 0.90538 0.0
C904 C 0.86931 0.22554 0.77015 0.0
C905 C 0.88551 0.22792 0.83447 0.0
C906 C 0.84628 0.2162 0.79315 0.0
C907 C 0.83918 0.2089 0.88265 0.0
C908 C 0.8554 0.21132 0.94815 0.0
C909 C 0.87839 0.22084 0.92332 0.0
C910 C 0.8295 0.21388 0.72125 0.0
C911 C 0.84843 0.20372 0.04424 0.0
C912 C 0.78271 0.20357 0.95033 0.0
C913 C 0.76759 0.18025 0.93795 0.0
C914 C 0.80616 0.21299 0.93547 0.0
C915 C 0.81472 0.19878 0.90713 0.0
C916 C 0.79968 0.17513 0.89698 0.0
C917 C 0.77629 0.16615 0.91265 0.0
C918 C 0.82166 0.2383 0.94684 0.0
C919 C 0.80819 0.15943 0.86694 0.0
H920 H 0.87453 0.23048 0.70091 0.0
H921 H 0.89082 0.22276 0.97353 0.0
H922 H 0.81646 0.19571 0.71242 0.0
H923 H 0.82046 0.22298 0.74212 0.0
H924 H 0.83786 0.22074 0.6552 0.0
H925 H 0.86312 0.20681 0.08711 0.0
H926 H 0.8402 0.21283 0.07392 0.0
H927 H 0.83569 0.1853 0.04584 0.0
H928 H 0.77612 0.21466 0.96854 0.0
H929 H 0.76476 0.14807 0.90414 0.0
H930 H 0.82898 0.24611 0.88058 0.0
H931 H 0.83608 0.24175 0.99186 0.0
H932 H 0.81258 0.24673 0.97517 0.0
H933 H 0.81523 0.164 0.7977 0.0
H934 H 0.79451 0.14131 0.86722 0.0
H935 H 0.82218 0.16139 0.91148 0.0
C936 C 0.67348 0.07948 0.04865 0.0
C937 C 0.64984 0.06517 0.06042 0.0
C938 C 0.68921 0.0728 0.07413 0.0
C939 C 0.68139 0.05097 0.1115 0.0
C940 C 0.65756 0.0362 0.12266 0.0
C941 C 0.64208 0.04353 0.09779 0.0
C942 C 0.71436 0.08937 0.06199 0.0
C943 C 0.64845 1.01268 0.16106 0.0
C944 C 0.72489 0.03076 0.09833 0.0
C945 C 0.73464 0.03597 0.18474 0.0
C946 C 0.70687 0.03453 0.07498 0.0
C947 C 0.6984 0.04401 0.13903 0.0
C948 C 0.70786 0.04887 0.22694 0.0
C949 C 0.72571 0.04471 0.24874 0.0
C950 C 0.69728 0.02889 0.98076 0.0
C951 C 0.69975 0.05934 0.29713 0.0
H952 H 0.67995 0.09634 0.02071 0.0
H953 H 0.62395 0.03233 0.10744 0.0
H954 H 0.72317 0.09278 0.12791 0.0
H955 H 0.72203 0.08193 0.0171 0.0
H956 H 0.71771 0.10582 0.03278 0.0
H957 H 0.62954 1.00299 0.16327 0.0
H958 H 0.65449 1.00306 0.11994 0.0
H959 H 0.65505 1.01382 0.23036 0.0
H960 H 0.73136 1.02369 0.04864 0.0
H961 H 0.73319 0.04903 0.3154 0.0
H962 H 0.70141 0.04477 0.94451 0.0
H963 H 0.67845 1.01826 0.98325 0.0
H964 H 0.70419 1.01975 0.94144 0.0
H965 H 0.70405 0.07667 0.27545 0.0
H966 H 0.7076 0.06058 0.36407 0.0
H967 H 0.68097 0.0492 0.30423 0.0
C968 C 0.23255 0.66256 0.21434 0.0
C969 C 0.25319 0.6824 0.19453 0.0
C970 C 0.2289 0.64083 0.19071 0.0
C971 C 0.24615 0.63871 0.14477 0.0
C972 C 0.267 0.65868 0.12461 0.0
C973 C 0.27029 0.68014 0.15004 0.0
C974 C 0.20649 0.6201 0.21456 0.0
C975 C 0.2857 0.65742 0.07418 0.0
C976 C 0.24321 0.58068 0.13966 0.0
C977 C 0.232 0.57157 0.05773 0.0
C978 C 0.24804 0.60249 0.16878 0.0
C979 C 0.24195 0.61577 0.11396 0.0
C980 C 0.23139 0.6069 0.02969 0.0
C981 C 0.22637 0.58495 0.00327 0.0
C982 C 0.25889 0.61098 0.25979 0.0
C983 C 0.22488 0.62038 0.96803 0.0
H984 H 0.21928 0.66401 0.24934 0.0
H985 H 0.28618 0.69529 0.13304 0.0
H986 H 0.19736 0.61124 0.15217 0.0
H987 H 0.20952 0.60796 0.25378 0.0
H988 H 0.1953 0.62443 0.2545 0.0
H989 H 0.30113 0.67439 0.06552 0.0
H990 H 0.29056 0.6462 0.11044 0.0
H991 H 0.27948 0.64984 0.00661 0.0
H992 H 0.24724 0.57035 0.183 0.0
H993 H 0.21764 0.57806 0.93998 0.0
H994 H 0.24718 0.61367 0.30377 0.0
H995 H 0.27475 0.62763 0.2527 0.0
H996 H 0.26301 0.59891 0.29367 0.0
H997 H 0.21159 0.62296 0.00063 0.0
H998 H 0.21822 0.61177 0.90227 0.0
H999 H 0.23982 0.63745 0.95538 0.0
C1000 C 0.71703 0.62015 0.05274 0.0
C1001 C 0.72581 0.64366 0.06457 0.0
C1002 C 0.69464 0.60405 0.07767 0.0
C1003 C 0.68012 0.61135 0.1149 0.0
C1004 C 0.68865 0.63505 0.1263 0.0
C1005 C 0.71141 0.6509 0.10167 0.0
C1006 C 0.68663 0.57908 0.06505 0.0
C1007 C 0.67375 0.64363 0.1649 0.0
C1008 C 0.61649 0.56722 0.10259 0.0
C1009 C 0.61202 0.55755 0.18918 0.0
C1010 C 0.63822 0.58531 0.07876 0.0
C1011 C 0.65621 0.59396 0.14248 0.0
C1012 C 0.65171 0.58451 0.23043 0.0
C1013 C 0.62976 0.5666 0.25271 0.0
C1014 C 0.64205 0.59488 0.98455 0.0
C1015 C 0.67032 0.5928 0.30033 0.0
H1016 H 0.72784 0.6141 0.02526 0.0
H1017 H 0.71789 0.66891 0.11153 0.0
H1018 H 0.68094 0.57007 0.13051 0.0
H1019 H 0.6718 0.57133 0.01885 0.0
H1020 H 0.70014 0.57612 0.03707 0.0
H1021 H 0.68256 0.6625 0.16712 0.0
H1022 H 0.65805 0.63729 0.12396 0.0
H1023 H 0.66839 0.63698 0.23423 0.0
H1024 H 0.60292 0.56068 0.05321 0.0
H1025 H 0.62669 0.55919 0.31949 0.0
H1026 H 0.65417 0.59117 0.94836 0.0
H1027 H 0.64979 0.61363 0.98708 0.0
H1028 H 0.626 0.58764 0.94515 0.0
H1029 H 0.68366 0.58894 0.278 0.0
H1030 H 0.66384 0.58478 0.36715 0.0
H1031 H 0.67858 0.61152 0.30797 0.0
C1032 C 1.012 0.90018 0.49123 0.0
C1033 C 0.99811 0.8765 0.49405 0.0
C1034 C 1.00284 0.91416 0.47083 0.0
C1035 C 0.97921 0.90417 0.45368 0.0
C1036 C 0.9652 0.88024 0.45452 0.0
C1037 C 0.97484 0.86668 0.47448 0.0
C1038 C 1.01834 0.93963 0.46985 0.0
C1039 C 0.9399 0.86898 0.43731 0.0
C1040 C 0.95246 0.94075 0.49825 0.0
C1041 C 0.95159 0.94831 0.41136 0.0
C1042 C 0.96118 0.92614 0.51283 0.0
C1043 C 0.96902 0.91882 0.43855 0.0
C1044 C 0.9676 0.92591 0.35036 0.0
C1045 C 0.95898 0.94068 0.33785 0.0
C1046 C 0.96251 0.91901 0.60793 0.0
C1047 C 0.97552 0.9182 0.2695 0.0
H1048 H 1.03001 0.90778 0.50589 0.0
H1049 H 0.96397 0.84838 0.47808 0.0
H1050 H 1.01685 0.94673 0.4046 0.0
H1051 H 1.01312 0.94749 0.52355 0.0
H1052 H 1.03647 0.94464 0.48054 0.0
H1053 H 0.93162 0.85015 0.43554 0.0
H1054 H 0.93172 0.87382 0.49106 0.0
H1055 H 0.93665 0.87492 0.37239 0.0
H1056 H 0.94699 0.94684 0.55526 0.0
H1057 H 0.9581 0.94637 0.27053 0.0
H1058 H 0.98056 0.92532 0.62624 0.0
H1059 H 0.95346 0.9002 0.61284 0.0
H1060 H 0.95502 0.92562 0.65788 0.0
H1061 H 0.994 0.92427 0.27542 0.0
H1062 H 0.97249 0.9246 0.20517 0.0
H1063 H 0.96658 0.89936 0.26687 0.0
C1064 C 0.42618 0.09022 0.50904 0.0
C1065 C 0.41939 0.1064 0.49544 0.0
C1066 C 0.41131 0.06715 0.49134 0.0
C1067 C 0.38921 0.06014 0.45826 0.0
C1068 C 0.38247 0.07648 0.44203 0.0
C1069 C 0.39761 0.09946 0.46167 0.0
C1070 C 0.419 0.0502 0.51096 0.0
C1071 C 0.35912 0.06963 0.40569 0.0
C1072 C 0.35661 1.00143 0.35254 0.0
C1073 C 0.34245 0.98857 0.42394 0.0
C1074 C 0.37178 0.02483 0.3623 0.0
C1075 C 0.37279 0.03555 0.44542 0.0
C1076 C 0.35851 1.02267 0.51759 0.0
C1077 C 0.34348 0.99935 0.5059 0.0
C1078 C 0.38684 0.03805 0.28404 0.0
C1079 C 0.35916 0.03348 0.6074 0.0
H1080 H 0.44291 0.09554 0.53654 0.0
H1081 H 0.39242 0.11201 0.4509 0.0
H1082 H 0.40821 0.03839 0.56486 0.0
H1083 H 0.41695 0.0398 0.45026 0.0
H1084 H 0.43707 0.05856 0.53289 0.0
H1085 H 0.35702 0.08454 0.39167 0.0
H1086 H 0.35598 0.0597 0.34262 0.0
H1087 H 0.34592 0.0585 0.455 0.0
H1088 H 0.35602 0.99312 0.28936 0.0
H1089 H 0.33232 0.98957 0.56081 0.0
H1090 H 0.405 0.0454 0.30302 0.0
H1091 H 0.38416 0.05243 0.26688 0.0
H1092 H 0.38352 0.02731 0.22313 0.0
H1093 H 0.37652 0.0412 0.63647 0.0
H1094 H 0.34687 1.02107 0.65655 0.0
H1095 H 0.3552 0.04735 0.59819 0.0
C1096 C 0.20439 0.31875 0.58424 0.0
C1097 C 0.18823 0.30878 0.51519 0.0
C1098 C 0.22777 0.32854 0.56632 0.0
C1099 C 0.23517 0.32827 0.47729 0.0
C1100 C 0.21905 0.31925 0.40661 0.0
C1101 C 0.19578 0.30964 0.42639 0.0
C1102 C 0.24443 0.33806 0.64353 0.0
C1103 C 0.22627 0.31871 0.31074 0.0
C1104 C 0.29822 0.36409 0.42016 0.0
C1105 C 0.30535 0.34797 0.42687 0.0
C1106 C 0.27542 0.358 0.43636 0.0
C1107 C 0.25942 0.33527 0.45969 0.0
C1108 C 0.26654 0.31897 0.46661 0.0
C1109 C 0.28939 0.32553 0.45041 0.0
C1110 C 0.26844 0.37583 0.42848 0.0
C1111 C 0.25004 0.29456 0.49153 0.0
H1112 H 0.19872 0.31797 0.65316 0.0
H1113 H 0.18342 0.30232 0.37247 0.0
H1114 H 0.25183 0.32698 0.6561 0.0
H1115 H 0.2587 0.35521 0.62647 0.0
H1116 H 0.23625 0.33924 0.70669 0.0
H1117 H 0.21193 0.31308 0.26248 0.0
H1118 H 0.24013 0.33578 0.29023 0.0
H1119 H 0.23305 0.30688 0.30583 0.0
H1120 H 0.31042 0.38142 0.40128 0.0
H1121 H 0.29483 0.31307 0.45747 0.0
H1122 H 0.26112 0.37737 0.49328 0.0
H1123 H 0.25498 0.37069 0.37661 0.0
H1124 H 0.28296 0.39277 0.4102 0.0
H1125 H 0.24249 0.29383 0.55872 0.0
H1126 H 0.25828 0.28395 0.4933 0.0
H1127 H 0.23584 0.28701 0.4423 0.0
C1128 C 0.52696 0.31519 0.57235 0.0
C1129 C 0.50937 0.29319 0.55199 0.0
C1130 C 0.52654 0.33461 0.54106 0.0
C1131 C 0.50819 0.33203 0.48675 0.0
C1132 C 0.49095 0.30978 0.46237 0.0
C1133 C 0.49168 0.29072 0.49562 0.0
C1134 C 0.54527 0.35785 0.56926 0.0
C1135 C 0.4712 0.30604 0.40379 0.0
C1136 C 0.48729 0.37465 0.49603 0.0
C1137 C 0.49434 0.38582 0.41268 0.0
C1138 C 0.49268 0.35805 0.52244 0.0
C1139 C 0.50544 0.35214 0.46396 0.0
C1140 C 0.51378 0.36428 0.38166 0.0
C1141 C 0.50814 0.38103 0.3569 0.0
C1142 C 0.48349 0.34588 0.61097 0.0
C1143 C 0.52755 0.35866 0.31751 0.0
H1144 H 0.5408 0.31725 0.61459 0.0
H1145 H 0.47816 0.27378 0.47833 0.0
H1146 H 0.55209 0.36923 0.50989 0.0
H1147 H 0.53828 0.36556 0.6163 0.0
H1148 H 0.55949 0.35716 0.60333 0.0
H1149 H 0.46036 0.28793 0.38408 0.0
H1150 H 0.46048 0.31151 0.44056 0.0
H1151 H 0.4775 0.31649 0.34177 0.0
H1152 H 0.47659 0.37827 0.5395 0.0
H1153 H 0.51337 0.38933 0.2919 0.0
H1154 H 0.4973 0.34587 0.65089 0.0
H1155 H 0.47047 0.32789 0.59793 0.0
H1156 H 0.47554 0.35376 0.6521 0.0
H1157 H 0.54134 0.35775 0.35402 0.0
H1158 H 0.53521 0.37138 0.26249 0.0
H1159 H 0.51642 0.34171 0.28701 0.0
C1160 C 0.92971 0.10781 0.35122 0.0
C1161 C 0.90736 0.09487 0.38375 0.0
C1162 C 0.94511 0.12909 0.38845 0.0
C1163 C 0.93819 0.13775 0.46132 0.0
C1164 C 0.91518 0.1254 0.49098 0.0
C1165 C 0.89999 0.10408 0.45175 0.0
C1166 C 0.9693 0.14152 0.35374 0.0
C1167 C 0.907 0.1339 0.56831 0.0
C1168 C 0.9871 0.17537 0.61971 0.0
C1169 C 0.99319 0.19732 0.59051 0.0
C1170 C 0.96854 0.15597 0.5814 0.0
C1171 C 0.95574 0.15842 0.51122 0.0
C1172 C 0.96133 0.18062 0.48368 0.0
C1173 C 0.9799 0.19977 0.52383 0.0
C1174 C 0.96323 0.13274 0.61367 0.0
C1175 C 0.94833 0.18415 0.40911 0.0
H1176 H 0.93557 0.10064 0.29937 0.0
H1177 H 0.88293 0.09395 0.47872 0.0
H1178 H 0.97474 0.15957 0.3398 0.0
H1179 H 0.98091 0.1413 0.40587 0.0
H1180 H 0.97139 0.13371 0.29125 0.0
H1181 H 0.88814 0.12432 0.5746 0.0
H1182 H 0.9144 0.13203 0.63211 0.0
H1183 H 0.91277 0.15223 0.55988 0.0
H1184 H 0.99718 0.17331 0.67149 0.0
H1185 H 0.98447 0.21667 0.5008 0.0
H1186 H 0.96678 0.12379 0.5589 0.0
H1187 H 0.94491 0.12231 0.63104 0.0
H1188 H 0.97348 0.13369 0.67355 0.0
H1189 H 0.95174 0.17821 0.34433 0.0
H1190 H 0.95317 0.20229 0.40172 0.0
H1191 H 0.92974 0.17394 0.42189 0.0
C1192 C 0.09473 0.76512 0.54298 0.0
C1193 C 0.0936 0.78518 0.54657 0.0
C1194 C 0.11439 0.7651 0.51101 0.0
C1195 C 0.13322 0.78553 0.47864 0.0
C1196 C 0.13167 0.80562 0.47826 0.0
C1197 C 0.11205 0.80522 0.51263 0.0
C1198 C 0.11519 0.74331 0.51375 0.0
C1199 C 0.15102 0.82778 0.44335 0.0
C1200 C 0.19459 0.79778 0.48616 0.0
C1201 C 0.19933 0.79594 0.39539 0.0
C1202 C 0.17283 0.79299 0.51479 0.0
C1203 C 0.15514 0.78652 0.4509 0.0
C1204 C 0.15943 0.78339 0.35962 0.0
C1205 C 0.18149 0.78819 0.33289 0.0
C1206 C 0.16931 0.7965 0.61273 0.0
C1207 C 0.14121 0.77659 0.28893 0.0
H1208 H 0.08022 0.74939 0.56499 0.0
H1209 H 0.11126 0.82078 0.51371 0.0
H1210 H 0.11852 0.73904 0.44531 0.0
H1211 H 0.12942 0.74554 0.55753 0.0
H1212 H 0.0991 0.7288 0.53974 0.0
H1213 H 0.14658 0.84146 0.44148 0.0
H1214 H 0.16618 0.83342 0.48699 0.0
H1215 H 0.15587 0.82542 0.37442 0.0
H1216 H 0.2084 0.80442 0.53441 0.0
H1217 H 0.18514 0.78742 0.26224 0.0
H1218 H 0.15354 0.78168 0.63889 0.0
H1219 H 0.16725 0.81165 0.61946 0.0
H1220 H 0.18387 0.79911 0.65544 0.0
H1221 H 0.12487 0.7621 0.31271 0.0
H1222 H 0.14604 0.77182 0.22436 0.0
H1223 H 0.13827 0.79102 0.27612 0.0
loop_
_geom_bond_atom_site_label_1
_geom_bond_atom_site_label_2
_geom_bond_distance
_geom_bond_site_symmetry_2
_ccdc_geom_bond_type
C0 Eu1 2.835 . S
C0 C2 1.500 . S
C0 O20 1.257 . S
C0 O21 1.260 . S
Eu1 C0 2.835 . S
Eu1 O20 2.473 . S
Eu1 O21 2.480 . S
Eu1 O22 2.430 . S
Eu1 O23 2.670 . S
Eu1 O24 2.394 . S
Eu1 O29 2.355 . S
Eu1 O31 2.374 . S
C2 C0 1.500 . S
C2 C3 1.377 . S
C2 C7 1.377 . S
C3 C2 1.377 . S
C3 C4 1.395 . S
C3 H32 0.931 . S
C4 C3 1.395 . S
C4 C5 1.383 . S
C4 H33 0.931 . S
C5 C4 1.383 . S
C5 C6 1.394 1_554 S
C6 C5 1.394 1_556 S
C6 C7 1.378 1_556 S
C6 H34 0.931 . S
C7 C2 1.377 . S
C7 C6 1.378 1_554 S
C7 H35 0.931 1_554 S
C8 O22 1.259 . S
C8 O23 1.270 . S
C9 O24 1.251 . S
C9 O25 1.251 . S
C10 Eu11 2.835 . S
C10 C12 1.500 . S
C10 O26 1.257 . S
C10 O27 1.260 . S
Eu11 C10 2.835 . S
Eu11 O23 2.355 . S
Eu11 O25 2.374 . S
Eu11 O26 2.473 . S
Eu11 O27 2.480 . S
Eu11 O28 2.430 1_554 S
Eu11 O29 2.670 . S
Eu11 O30 2.394 . S
C12 C10 1.500 . S
C12 C13 1.377 . S
C12 C17 1.377 . S
C13 C12 1.377 . S
C13 C14 1.395 . S
C13 H36 0.931 . S
C14 C13 1.395 . S
C14 C15 1.383 . S
C14 H37 0.931 . S
C15 C14 1.383 . S
C15 C16 1.394 . S
C16 C15 1.394 . S
C16 C17 1.378 . S
C16 H38 0.931 . S
C17 C12 1.377 . S
C17 C16 1.378 . S
C17 H39 0.931 . S
C18 O28 1.259 . S
C18 O29 1.270 1_556 S
C19 O30 1.251 . S
C19 O31 1.251 . S
O20 C0 1.257 . S
O20 Eu1 2.473 . S
O21 C0 1.260 . S
O21 Eu1 2.480 . S
O22 Eu1 2.430 . S
O22 C8 1.259 . S
O23 Eu1 2.670 . S
O23 C8 1.270 . S
O23 Eu11 2.355 . S
O24 Eu1 2.394 . S
O24 C9 1.251 . S
O25 C9 1.251 . S
O25 Eu11 2.374 . S
O26 C10 1.257 . S
O26 Eu11 2.473 . S
O27 C10 1.260 . S
O27 Eu11 2.480 . S
O28 Eu11 2.430 1_556 S
O28 C18 1.259 . S
O29 Eu1 2.355 . S
O29 Eu11 2.670 . S
O29 C18 1.270 1_554 S
O30 Eu11 2.394 . S
O30 C19 1.251 . S
O31 Eu1 2.374 . S
O31 C19 1.251 . S
H32 C3 0.931 . S
H33 C4 0.931 . S
H34 C6 0.931 . S
H35 C7 0.931 1_556 S
H36 C13 0.931 . S
H37 C14 0.931 . S
H38 C16 0.931 . S
H39 C17 0.931 . S
C40 Eu41 2.835 . S
C40 C42 1.500 . S
C40 O60 1.257 . S
C40 O61 1.260 . S
Eu41 C40 2.835 . S
Eu41 O60 2.473 . S
Eu41 O61 2.480 . S
Eu41 O62 2.430 . S
Eu41 O63 2.670 . S
Eu41 O64 2.394 . S
Eu41 O69 2.355 . S
Eu41 O71 2.374 . S
C42 C40 1.500 . S
C42 C43 1.377 . S
C42 C47 1.377 . S
C43 C42 1.377 . S
C43 C44 1.395 . S
C43 H72 0.931 . S
C44 C43 1.395 . S
C44 C45 1.383 . S
C44 H73 0.931 . S
C45 C44 1.383 . S
C45 C46 1.394 1_554 S
C46 C45 1.394 1_556 S
C46 C47 1.378 1_556 S
C46 H74 0.931 . S
C47 C42 1.377 . S
C47 C46 1.378 1_554 S
C47 H75 0.931 1_554 S
C48 O62 1.259 . S
C48 O63 1.270 . S
C49 O64 1.251 . S
C49 O65 1.251 . S
C50 Eu51 2.835 . S
C50 C52 1.500 . S
C50 O66 1.257 . S
C50 O67 1.260 . S
Eu51 C50 2.835 . S
Eu51 O63 2.355 . S
Eu51 O65 2.374 . S
Eu51 O66 2.473 . S
Eu51 O67 2.480 . S
Eu51 O68 2.430 1_554 S
Eu51 O69 2.670 . S
Eu51 O70 2.394 . S
C52 C50 1.500 . S
C52 C53 1.377 . S
C52 C57 1.377 . S
C53 C52 1.377 . S
C53 C54 1.395 . S
C53 H76 0.931 . S
C54 C53 1.395 . S
C54 C55 1.383 . S
C54 H77 0.931 . S
C55 C54 1.383 . S
C55 C56 1.394 . S
C56 C55 1.394 . S
C56 C57 1.378 . S
C56 H78 0.931 . S
C57 C52 1.377 . S
C57 C56 1.378 . S
C57 H79 0.931 . S
C58 O68 1.259 . S
C58 O69 1.270 1_556 S
C59 O70 1.251 . S
C59 O71 1.251 . S
O60 C40 1.257 . S
O60 Eu41 2.473 . S
O61 C40 1.260 . S
O61 Eu41 2.480 . S
O62 Eu41 2.430 . S
O62 C48 1.259 . S
O63 Eu41 2.670 . S
O63 C48 1.270 . S
O63 Eu51 2.355 . S
O64 Eu41 2.394 . S
O64 C49 1.251 . S
O65 C49 1.251 . S
O65 Eu51 2.374 . S
O66 C50 1.257 . S
O66 Eu51 2.473 . S
O67 C50 1.260 . S
O67 Eu51 2.480 . S
O68 Eu51 2.430 1_556 S
O68 C58 1.259 . S
O69 Eu41 2.355 . S
O69 Eu51 2.670 . S
O69 C58 1.270 1_554 S
O70 Eu51 2.394 . S
O70 C59 1.251 . S
O71 Eu41 2.374 . S
O71 C59 1.251 . S
H72 C43 0.931 . S
H73 C44 0.931 . S
H74 C46 0.931 . S
H75 C47 0.931 1_556 S
H76 C53 0.931 . S
H77 C54 0.931 . S
H78 C56 0.931 . S
H79 C57 0.931 . S
C80 Eu81 2.835 . S
C80 C82 1.500 . S
C80 O100 1.257 . S
C80 O101 1.260 . S
Eu81 C80 2.835 . S
Eu81 O100 2.473 . S
Eu81 O101 2.480 . S
Eu81 O102 2.430 . S
Eu81 O103 2.670 . S
Eu81 O104 2.394 . S
Eu81 O109 2.355 . S
Eu81 O111 2.374 . S
C82 C80 1.500 . S
C82 C83 1.377 . S
C82 C87 1.377 . S
C83 C82 1.377 . S
C83 C84 1.395 . S
C83 H112 0.931 . S
C84 C83 1.395 . S
C84 C85 1.383 . S
C84 H113 0.931 . S
C85 C84 1.383 . S
C85 C86 1.394 1_554 S
C86 C85 1.394 1_556 S
C86 C87 1.378 1_556 S
C86 H114 0.931 . S
C87 C82 1.377 . S
C87 C86 1.378 1_554 S
C87 H115 0.931 1_554 S
C88 O102 1.259 . S
C88 O103 1.270 . S
C89 O104 1.251 . S
C89 O105 1.251 . S
C90 Eu91 2.835 . S
C90 C92 1.500 . S
C90 O106 1.257 . S
C90 O107 1.260 . S
Eu91 C90 2.835 . S
Eu91 O103 2.355 . S
Eu91 O105 2.374 . S
Eu91 O106 2.473 . S
Eu91 O107 2.480 . S
Eu91 O108 2.430 1_554 S
Eu91 O109 2.670 . S
Eu91 O110 2.394 . S
C92 C90 1.500 . S
C92 C93 1.377 . S
C92 C97 1.377 . S
C93 C92 1.377 . S
C93 C94 1.395 . S
C93 H116 0.931 . S
C94 C93 1.395 . S
C94 C95 1.383 . S
C94 H117 0.931 . S
C95 C94 1.383 . S
C95 C96 1.394 . S
C96 C95 1.394 . S
C96 C97 1.378 . S
C96 H118 0.931 . S
C97 C92 1.377 . S
C97 C96 1.378 . S
C97 H119 0.931 . S
C98 O108 1.259 . S
C98 O109 1.270 1_556 S
C99 O110 1.251 . S
C99 O111 1.251 . S
O100 C80 1.257 . S
O100 Eu81 2.473 . S
O101 C80 1.260 . S
O101 Eu81 2.480 . S
O102 Eu81 2.430 . S
O102 C88 1.259 . S
O103 Eu81 2.670 . S
O103 C88 1.270 . S
O103 Eu91 2.355 . S
O104 Eu81 2.394 . S
O104 C89 1.251 . S
O105 C89 1.251 . S
O105 Eu91 2.374 . S
O106 C90 1.257 . S
O106 Eu91 2.473 . S
O107 C90 1.260 . S
O107 Eu91 2.480 . S
O108 Eu91 2.430 1_556 S
O108 C98 1.259 . S
O109 Eu81 2.355 . S
O109 Eu91 2.670 . S
O109 C98 1.270 1_554 S
O110 Eu91 2.394 . S
O110 C99 1.251 . S
O111 Eu81 2.374 . S
O111 C99 1.251 . S
H112 C83 0.931 . S
H113 C84 0.931 . S
H114 C86 0.931 . S
H115 C87 0.931 1_556 S
H116 C93 0.931 . S
H117 C94 0.931 . S
H118 C96 0.931 . S
H119 C97 0.931 . S
C120 Eu121 2.835 1_545 S
C120 C122 1.500 . S
C120 O140 1.257 . S
C120 O141 1.260 . S
Eu121 C120 2.835 1_565 S
Eu121 O140 2.473 1_565 S
Eu121 O141 2.480 1_565 S
Eu121 O142 2.430 . S
Eu121 O143 2.670 . S
Eu121 O144 2.394 1_565 S
Eu121 O149 2.355 1_565 S
Eu121 O151 2.374 . S
C122 C120 1.500 . S
C122 C123 1.377 . S
C122 C127 1.377 . S
C123 C122 1.377 . S
C123 C124 1.395 . S
C123 H152 0.931 . S
C124 C123 1.395 . S
C124 C125 1.383 . S
C124 H153 0.931 . S
C125 C124 1.383 . S
C125 C126 1.394 . S
C126 C125 1.394 . S
C126 C127 1.378 . S
C126 H154 0.931 . S
C127 C122 1.377 . S
C127 C126 1.378 . S
C127 H155 0.931 . S
C128 O142 1.259 . S
C128 O143 1.270 . S
C129 O144 1.251 . S
C129 O145 1.251 . S
C130 Eu131 2.835 . S
C130 C132 1.500 . S
C130 O146 1.257 . S
C130 O147 1.260 . S
Eu131 C130 2.835 . S
Eu131 O143 2.355 . S
Eu131 O145 2.374 1_565 S
Eu131 O146 2.473 . S
Eu131 O147 2.480 . S
Eu131 O148 2.435 . S
Eu131 O149 2.670 1_565 S
Eu131 O150 2.394 . S
C132 C130 1.500 . S
C132 C133 1.377 . S
C132 C137 1.377 . S
C133 C132 1.377 . S
C133 C134 1.395 . S
C133 H156 0.931 . S
C134 C133 1.395 . S
C134 C135 1.383 . S
C134 H157 0.931 . S
C135 C134 1.383 . S
C135 C136 1.394 . S
C136 C135 1.394 . S
C136 C137 1.378 . S
C136 H158 0.931 . S
C137 C132 1.377 . S
C137 C136 1.378 . S
C137 H159 0.931 . S
C138 O148 1.249 . S
C138 O149 1.259 1_565 S
C139 O150 1.251 . S
C139 O151 1.251 . S
O140 C120 1.257 . S
O140 Eu121 2.473 1_545 S
O141 C120 1.260 . S
O141 Eu121 2.480 1_545 S
O142 Eu121 2.430 . S
O142 C128 1.259 . S
O143 Eu121 2.670 . S
O143 C128 1.270 . S
O143 Eu131 2.355 . S
O144 Eu121 2.394 1_545 S
O144 C129 1.251 . S
O145 C129 1.251 . S
O145 Eu131 2.374 1_545 S
O146 C130 1.257 . S
O146 Eu131 2.473 . S
O147 C130 1.260 . S
O147 Eu131 2.480 . S
O148 Eu131 2.435 . S
O148 C138 1.249 . S
O149 Eu121 2.355 1_545 S
O149 Eu131 2.670 1_545 S
O149 C138 1.259 1_545 S
O150 Eu131 2.394 . S
O150 C139 1.251 . S
O151 Eu121 2.374 . S
O151 C139 1.251 . S
H152 C123 0.931 . S
H153 C124 0.931 . S
H154 C126 0.931 . S
H155 C127 0.931 . S
H156 C133 0.931 . S
H157 C134 0.931 . S
H158 C136 0.931 . S
H159 C137 0.931 . S
C160 Eu161 2.835 . S
C160 C162 1.500 . S
C160 O180 1.257 . S
C160 O181 1.260 . S
Eu161 C160 2.835 . S
Eu161 O180 2.473 . S
Eu161 O181 2.480 . S
Eu161 O182 2.430 . S
Eu161 O183 2.670 . S
Eu161 O184 2.394 . S
Eu161 O189 2.355 . S
Eu161 O191 2.374 . S
C162 C160 1.500 . S
C162 C163 1.377 . S
C162 C167 1.377 . S
C163 C162 1.377 . S
C163 C164 1.395 . S
C163 H192 0.931 . S
C164 C163 1.395 . S
C164 C165 1.383 . S
C164 H193 0.931 . S
C165 C164 1.383 . S
C165 C166 1.394 . S
C166 C165 1.394 . S
C166 C167 1.378 . S
C166 H194 0.931 . S
C167 C162 1.377 . S
C167 C166 1.378 . S
C167 H195 0.931 . S
C168 O182 1.259 . S
C168 O183 1.270 . S
C169 O184 1.251 . S
C169 O185 1.251 . S
C170 Eu171 2.835 . S
C170 C172 1.500 . S
C170 O186 1.257 . S
C170 O187 1.260 . S
Eu171 C170 2.835 . S
Eu171 O183 2.355 . S
Eu171 O185 2.374 . S
Eu171 O186 2.473 . S
Eu171 O187 2.480 . S
Eu171 O188 2.430 . S
Eu171 O189 2.670 . S
Eu171 O190 2.394 . S
C172 C170 1.500 . S
C172 C173 1.377 . S
C172 C177 1.377 . S
C173 C172 1.377 . S
C173 C174 1.395 . S
C173 H196 0.931 . S
C174 C173 1.395 . S
C174 C175 1.383 . S
C174 H197 0.931 . S
C175 C174 1.383 . S
C175 C176 1.394 . S
C176 C175 1.394 . S
C176 C177 1.378 . S
C176 H198 0.931 . S
C177 C172 1.377 . S
C177 C176 1.378 . S
C177 H199 0.931 . S
C178 O188 1.259 . S
C178 O189 1.270 . S
C179 O190 1.251 . S
C179 O191 1.251 . S
O180 C160 1.257 . S
O180 Eu161 2.473 . S
O181 C160 1.260 . S
O181 Eu161 2.480 . S
O182 Eu161 2.430 . S
O182 C168 1.259 . S
O183 Eu161 2.670 . S
O183 C168 1.270 . S
O183 Eu171 2.355 . S
O184 Eu161 2.394 . S
O184 C169 1.251 . S
O185 C169 1.251 . S
O185 Eu171 2.374 . S
O186 C170 1.257 . S
O186 Eu171 2.473 . S
O187 C170 1.260 . S
O187 Eu171 2.480 . S
O188 Eu171 2.430 . S
O188 C178 1.259 . S
O189 Eu161 2.355 . S
O189 Eu171 2.670 . S
O189 C178 1.270 . S
O190 Eu171 2.394 . S
O190 C179 1.251 . S
O191 Eu161 2.374 . S
O191 C179 1.251 . S
H192 C163 0.931 . S
H193 C164 0.931 . S
H194 C166 0.931 . S
H195 C167 0.931 . S
H196 C173 0.931 . S
H197 C174 0.931 . S
H198 C176 0.931 . S
H199 C177 0.931 . S
C200 Eu201 2.835 . S
C200 C202 1.500 . S
C200 O220 1.257 . S
C200 O221 1.260 . S
Eu201 C200 2.835 . S
Eu201 O220 2.473 . S
Eu201 O221 2.480 . S
Eu201 O222 2.430 . S
Eu201 O223 2.670 . S
Eu201 O224 2.394 . S
Eu201 O229 2.355 . S
Eu201 O231 2.374 . S
C202 C200 1.500 . S
C202 C203 1.377 . S
C202 C207 1.377 . S
C203 C202 1.377 . S
C203 C204 1.395 . S
C203 H232 0.931 . S
C204 C203 1.395 . S
C204 C205 1.383 . S
C204 H233 0.931 . S
C205 C204 1.383 . S
C205 C206 1.394 . S
C206 C205 1.394 . S
C206 C207 1.378 . S
C206 H234 0.931 . S
C207 C202 1.377 . S
C207 C206 1.378 . S
C207 H235 0.931 . S
C208 O222 1.259 . S
C208 O223 1.270 . S
C209 O224 1.251 . S
C209 O225 1.251 . S
C210 Eu211 2.835 . S
C210 C212 1.500 . S
C210 O226 1.257 . S
C210 O227 1.260 . S
Eu211 C210 2.835 . S
Eu211 O223 2.355 . S
Eu211 O225 2.374 . S
Eu211 O226 2.473 . S
Eu211 O227 2.480 . S
Eu211 O228 2.430 . S
Eu211 O229 2.670 . S
Eu211 O230 2.394 . S
C212 C210 1.500 . S
C212 C213 1.377 . S
C212 C217 1.377 . S
C213 C212 1.377 . S
C213 C214 1.395 . S
C213 H236 0.931 . S
C214 C213 1.395 . S
C214 C215 1.383 . S
C214 H237 0.931 . S
C215 C214 1.383 . S
C215 C216 1.394 . S
C216 C215 1.394 . S
C216 C217 1.378 . S
C216 H238 0.931 . S
C217 C212 1.377 . S
C217 C216 1.378 . S
C217 H239 0.931 . S
C218 O228 1.259 . S
C218 O229 1.270 . S
C219 O230 1.251 . S
C219 O231 1.251 . S
O220 C200 1.257 . S
O220 Eu201 2.473 . S
O221 C200 1.260 . S
O221 Eu201 2.480 . S
O222 Eu201 2.430 . S
O222 C208 1.259 . S
O223 Eu201 2.670 . S
O223 C208 1.270 . S
O223 Eu211 2.355 . S
O224 Eu201 2.394 . S
O224 C209 1.251 . S
O225 C209 1.251 . S
O225 Eu211 2.374 . S
O226 C210 1.257 . S
O226 Eu211 2.473 . S
O227 C210 1.260 . S
O227 Eu211 2.480 . S
O228 Eu211 2.430 . S
O228 C218 1.259 . S
O229 Eu201 2.355 . S
O229 Eu211 2.670 . S
O229 C218 1.270 . S
O230 Eu211 2.394 . S
O230 C219 1.251 . S
O231 Eu201 2.374 . S
O231 C219 1.251 . S
H232 C203 0.931 . S
H233 C204 0.931 . S
H234 C206 0.931 . S
H235 C207 0.931 . S
H236 C213 0.931 . S
H237 C214 0.931 . S
H238 C216 0.931 . S
H239 C217 0.931 . S
C240 Eu241 2.835 . S
C240 C242 1.500 . S
C240 O260 1.257 . S
C240 O261 1.260 . S
Eu241 C240 2.835 . S
Eu241 O260 2.473 . S
Eu241 O261 2.480 . S
Eu241 O262 2.430 . S
Eu241 O263 2.670 . S
Eu241 O264 2.394 . S
Eu241 O269 2.355 . S
Eu241 O271 2.374 . S
C242 C240 1.500 . S
C242 C243 1.377 . S
C242 C247 1.377 . S
C243 C242 1.377 . S
C243 C244 1.395 . S
C243 H272 0.931 . S
C244 C243 1.395 . S
C244 C245 1.383 . S
C244 H273 0.931 . S
C245 C244 1.383 . S
C245 C246 1.394 . S
C246 C245 1.394 . S
C246 C247 1.378 . S
C246 H274 0.931 . S
C247 C242 1.377 . S
C247 C246 1.378 . S
C247 H275 0.931 . S
C248 O262 1.259 . S
C248 O263 1.270 . S
C249 O264 1.251 . S
C249 O265 1.251 . S
C250 Eu251 2.835 . S
C250 C252 1.500 . S
C250 O266 1.257 . S
C250 O267 1.260 . S
Eu251 C250 2.835 . S
Eu251 O263 2.355 . S
Eu251 O265 2.374 . S
Eu251 O266 2.473 . S
Eu251 O267 2.480 . S
Eu251 O268 2.430 . S
Eu251 O269 2.670 . S
Eu251 O270 2.394 . S
C252 C250 1.500 . S
C252 C253 1.377 . S
C252 C257 1.377 . S
C253 C252 1.377 . S
C253 C254 1.395 . S
C253 H276 0.931 . S
C254 C253 1.395 . S
C254 C255 1.383 . S
C254 H277 0.931 . S
C255 C254 1.383 . S
C255 C256 1.394 . S
C256 C255 1.394 . S
C256 C257 1.378 . S
C256 H278 0.931 . S
C257 C252 1.377 . S
C257 C256 1.378 . S
C257 H279 0.931 . S
C258 O268 1.259 . S
C258 O269 1.270 . S
C259 O270 1.251 . S
C259 O271 1.251 . S
O260 C240 1.257 . S
O260 Eu241 2.473 . S
O261 C240 1.260 . S
O261 Eu241 2.480 . S
O262 Eu241 2.430 . S
O262 C248 1.259 . S
O263 Eu241 2.670 . S
O263 C248 1.270 . S
O263 Eu251 2.355 . S
O264 Eu241 2.394 . S
O264 C249 1.251 . S
O265 C249 1.251 . S
O265 Eu251 2.374 . S
O266 C250 1.257 . S
O266 Eu251 2.473 . S
O267 C250 1.260 . S
O267 Eu251 2.480 . S
O268 Eu251 2.430 . S
O268 C258 1.259 . S
O269 Eu241 2.355 . S
O269 Eu251 2.670 . S
O269 C258 1.270 . S
O270 Eu251 2.394 . S
O270 C259 1.251 . S
O271 Eu241 2.374 . S
O271 C259 1.251 . S
H272 C243 0.931 . S
H273 C244 0.931 . S
H274 C246 0.931 . S
H275 C247 0.931 . S
H276 C253 0.931 . S
H277 C254 0.931 . S
H278 C256 0.931 . S
H279 C257 0.931 . S
C280 Eu281 2.835 . S
C280 C282 1.500 . S
C280 O300 1.257 . S
C280 O301 1.260 . S
Eu281 C280 2.835 . S
Eu281 O300 2.473 . S
Eu281 O301 2.480 . S
Eu281 O302 2.431 1_455 S
Eu281 O303 2.670 1_455 S
Eu281 O304 2.394 . S
Eu281 O309 2.355 . S
Eu281 O311 2.374 . S
C282 C280 1.500 . S
C282 C283 1.377 . S
C282 C287 1.377 . S
C283 C282 1.377 . S
C283 C284 1.395 . S
C283 H312 0.931 . S
C284 C283 1.395 . S
C284 C285 1.383 . S
C284 H313 0.931 . S
C285 C284 1.383 . S
C285 C286 1.394 . S
C286 C285 1.394 . S
C286 C287 1.378 . S
C286 H314 0.931 . S
C287 C282 1.377 . S
C287 C286 1.378 . S
C287 H315 0.931 . S
C288 O302 1.254 . S
C288 O303 1.270 . S
C289 O304 1.251 . S
C289 O305 1.251 1_455 S
C290 Eu291 2.835 . S
C290 C292 1.500 . S
C290 O306 1.257 . S
C290 O307 1.260 . S
Eu291 C290 2.835 . S
Eu291 O303 2.355 . S
Eu291 O305 2.374 . S
Eu291 O306 2.473 . S
Eu291 O307 2.480 . S
Eu291 O308 2.430 . S
Eu291 O309 2.670 1_655 S
Eu291 O310 2.394 . S
C292 C290 1.500 . S
C292 C293 1.377 . S
C292 C297 1.377 . S
C293 C292 1.377 . S
C293 C294 1.395 . S
C293 H316 0.931 . S
C294 C293 1.395 . S
C294 C295 1.383 . S
C294 H317 0.931 . S
C295 C294 1.383 . S
C295 C296 1.394 . S
C296 C295 1.394 . S
C296 C297 1.378 . S
C296 H318 0.931 . S
C297 C292 1.377 . S
C297 C296 1.378 . S
C297 H319 0.931 . S
C298 O308 1.259 1_455 S
C298 O309 1.270 . S
C299 O310 1.251 . S
C299 O311 1.251 1_655 S
O300 C280 1.257 . S
O300 Eu281 2.473 . S
O301 C280 1.260 . S
O301 Eu281 2.480 . S
O302 Eu281 2.431 1_655 S
O302 C288 1.254 . S
O303 Eu281 2.670 1_655 S
O303 C288 1.270 . S
O303 Eu291 2.355 . S
O304 Eu281 2.394 . S
O304 C289 1.251 . S
O305 C289 1.251 1_655 S
O305 Eu291 2.374 . S
O306 C290 1.257 . S
O306 Eu291 2.473 . S
O307 C290 1.260 . S
O307 Eu291 2.480 . S
O308 Eu291 2.430 . S
O308 C298 1.259 1_655 S
O309 Eu281 2.355 . S
O309 Eu291 2.670 1_455 S
O309 C298 1.270 . S
O310 Eu291 2.394 . S
O310 C299 1.251 . S
O311 Eu281 2.374 . S
O311 C299 1.251 1_455 S
H312 C283 0.931 . S
H313 C284 0.931 . S
H314 C286 0.931 . S
H315 C287 0.931 . S
H316 C293 0.931 . S
H317 C294 0.931 . S
H318 C296 0.931 . S
H319 C297 0.931 . S
C320 Eu321 2.806 1_655 S
C320 C322 1.500 . S
C320 O340 1.257 . S
C320 O341 1.260 1_655 S
Eu321 C320 2.806 1_455 S
Eu321 O340 2.434 1_455 S
Eu321 O341 2.467 . S
Eu321 O342 2.470 . S
Eu321 O343 2.708 . S
Eu321 O344 2.400 1_455 S
Eu321 O349 2.344 1_455 S
Eu321 O351 2.389 . S
C322 C320 1.500 . S
C322 C323 1.377 . S
C322 C327 1.377 . S
C323 C322 1.377 . S
C323 C324 1.395 . S
C323 H352 0.931 1_655 S
C324 C323 1.395 . S
C324 C325 1.383 . S
C324 H353 0.931 . S
C325 C324 1.383 . S
C325 C326 1.394 . S
C326 C325 1.394 . S
C326 C327 1.378 . S
C326 H354 0.931 . S
C327 C322 1.377 . S
C327 C326 1.378 . S
C327 H355 0.931 . S
C328 O342 1.259 . S
C328 O343 1.270 . S
C329 O344 1.251 . S
C329 O345 1.251 . S
C330 Eu331 2.835 1_455 S
C330 C332 1.500 . S
C330 O346 1.257 . S
C330 O347 1.260 1_455 S
Eu331 C330 2.835 1_655 S
Eu331 O343 2.355 1_655 S
Eu331 O345 2.374 . S
Eu331 O346 2.473 1_655 S
Eu331 O347 2.480 . S
Eu331 O348 2.430 . S
Eu331 O349 2.670 . S
Eu331 O350 2.394 . S
C332 C330 1.500 . S
C332 C333 1.377 . S
C332 C337 1.377 . S
C333 C332 1.377 . S
C333 C334 1.395 . S
C333 H356 0.931 1_455 S
C334 C333 1.395 . S
C334 C335 1.383 . S
C334 H357 0.931 1_455 S
C335 C334 1.383 . S
C335 C336 1.394 . S
C336 C335 1.394 . S
C336 C337 1.378 . S
C336 H358 0.931 . S
C337 C332 1.377 . S
C337 C336 1.378 . S
C337 H359 0.931 . S
C338 O348 1.259 . S
C338 O349 1.270 . S
C339 O350 1.251 1_455 S
C339 O351 1.251 . S
O340 C320 1.257 . S
O340 Eu321 2.434 1_655 S
O341 C320 1.260 1_455 S
O341 Eu321 2.467 . S
O342 Eu321 2.470 . S
O342 C328 1.259 . S
O343 Eu321 2.708 . S
O343 C328 1.270 . S
O343 Eu331 2.355 1_455 S
O344 Eu321 2.400 1_655 S
O344 C329 1.251 . S
O345 C329 1.251 . S
O345 Eu331 2.374 . S
O346 C330 1.257 . S
O346 Eu331 2.473 1_455 S
O347 C330 1.260 1_655 S
O347 Eu331 2.480 . S
O348 Eu331 2.430 . S
O348 C338 1.259 . S
O349 Eu321 2.344 1_655 S
O349 Eu331 2.670 . S
O349 C338 1.270 . S
O350 Eu331 2.394 . S
O350 C339 1.251 1_655 S
O351 Eu321 2.389 . S
O351 C339 1.251 . S
H352 C323 0.931 1_455 S
H353 C324 0.931 . S
H354 C326 0.931 . S
H355 C327 0.931 . S
H356 C333 0.931 1_655 S
H357 C334 0.931 1_655 S
H358 C336 0.931 . S
H359 C337 0.931 . S
C360 C361 1.391 . S
C360 C362 1.394 . S
C360 H376 0.931 . S
C361 C360 1.391 . S
C361 C365 1.376 . S
C362 C360 1.394 . S
C362 C363 1.369 . S
C362 C366 1.531 . S
C363 C362 1.369 . S
C363 C364 1.410 . S
C363 C371 1.503 . S
C364 C363 1.410 . S
C364 C365 1.392 . S
C364 C367 1.511 . S
C365 C361 1.376 . S
C365 C364 1.392 . S
C365 H377 0.929 . S
C366 C362 1.531 . S
C366 H378 0.960 . S
C366 H379 0.962 . S
C366 H380 0.960 . S
C367 C364 1.511 . S
C367 H381 0.961 . S
C367 H382 0.961 . S
C367 H383 0.961 . S
C368 C369 1.370 . S
C368 C370 1.363 . S
C368 H384 0.931 . S
C369 C368 1.370 . S
C369 C373 1.408 . S
C370 C368 1.363 . S
C370 C371 1.370 . S
C370 C374 1.524 . S
C371 C363 1.503 . S
C371 C370 1.370 . S
C371 C372 1.403 . S
C372 C371 1.403 . S
C372 C373 1.404 . S
C372 C375 1.539 . S
C373 C369 1.408 . S
C373 C372 1.404 . S
C373 H385 0.930 . S
C374 C370 1.524 . S
C374 H386 0.956 . S
C374 H387 0.961 . S
C374 H388 0.961 . S
C375 C372 1.539 . S
C375 H389 0.958 . S
C375 H390 0.961 . S
C375 H391 0.960 . S
H376 C360 0.931 . S
H377 C365 0.929 . S
H378 C366 0.960 . S
H379 C366 0.962 . S
H380 C366 0.960 . S
H381 C367 0.961 . S
H382 C367 0.961 . S
H383 C367 0.961 . S
H384 C368 0.931 . S
H385 C373 0.930 . S
H386 C374 0.956 . S
H387 C374 0.961 . S
H388 C374 0.961 . S
H389 C375 0.958 . S
H390 C375 0.961 . S
H391 C375 0.960 . S
C392 C393 1.391 . S
C392 C394 1.394 . S
C392 H408 0.931 . S
C393 C392 1.391 . S
C393 C397 1.376 . S
C394 C392 1.394 . S
C394 C395 1.369 . S
C394 C398 1.531 . S
C395 C394 1.369 . S
C395 C396 1.410 . S
C395 C403 1.503 . S
C396 C395 1.410 . S
C396 C397 1.392 . S
C396 C399 1.511 . S
C397 C393 1.376 . S
C397 C396 1.392 . S
C397 H409 0.929 . S
C398 C394 1.531 . S
C398 H410 0.960 . S
C398 H411 0.962 . S
C398 H412 0.960 . S
C399 C396 1.511 . S
C399 H413 0.961 . S
C399 H414 0.961 . S
C399 H415 0.961 . S
C400 C401 1.370 . S
C400 C402 1.363 . S
C400 H416 0.931 . S
C401 C400 1.370 . S
C401 C405 1.408 . S
C402 C400 1.363 . S
C402 C403 1.370 . S
C402 C406 1.524 . S
C403 C395 1.503 . S
C403 C402 1.370 . S
C403 C404 1.403 . S
C404 C403 1.403 . S
C404 C405 1.404 . S
C404 C407 1.539 . S
C405 C401 1.408 . S
C405 C404 1.404 . S
C405 H417 0.930 . S
C406 C402 1.524 . S
C406 H418 0.956 . S
C406 H419 0.961 . S
C406 H420 0.961 . S
C407 C404 1.539 . S
C407 H421 0.958 . S
C407 H422 0.961 . S
C407 H423 0.960 . S
H408 C392 0.931 . S
H409 C397 0.929 . S
H410 C398 0.960 . S
H411 C398 0.962 . S
H412 C398 0.960 . S
H413 C399 0.961 . S
H414 C399 0.961 . S
H415 C399 0.961 . S
H416 C400 0.931 . S
H417 C405 0.930 . S
H418 C406 0.956 . S
H419 C406 0.961 . S
H420 C406 0.961 . S
H421 C407 0.958 . S
H422 C407 0.961 . S
H423 C407 0.960 . S
C424 C425 1.391 . S
C424 C426 1.394 . S
C424 H440 0.931 . S
C425 C424 1.391 . S
C425 C429 1.376 . S
C426 C424 1.394 . S
C426 C427 1.369 . S
C426 C430 1.531 . S
C427 C426 1.369 . S
C427 C428 1.410 . S
C427 C435 1.503 . S
C428 C427 1.410 . S
C428 C429 1.392 . S
C428 C431 1.511 . S
C429 C425 1.376 . S
C429 C428 1.392 . S
C429 H441 0.929 . S
C430 C426 1.531 . S
C430 H442 0.960 . S
C430 H443 0.962 . S
C430 H444 0.960 . S
C431 C428 1.511 . S
C431 H445 0.961 . S
C431 H446 0.961 . S
C431 H447 0.961 . S
C432 C433 1.370 . S
C432 C434 1.363 . S
C432 H448 0.931 . S
C433 C432 1.370 . S
C433 C437 1.408 . S
C434 C432 1.363 . S
C434 C435 1.370 . S
C434 C438 1.524 . S
C435 C427 1.503 . S
C435 C434 1.370 . S
C435 C436 1.403 . S
C436 C435 1.403 . S
C436 C437 1.404 . S
C436 C439 1.539 . S
C437 C433 1.408 . S
C437 C436 1.404 . S
C437 H449 0.930 . S
C438 C434 1.524 . S
C438 H450 0.956 . S
C438 H451 0.961 . S
C438 H452 0.961 . S
C439 C436 1.539 . S
C439 H453 0.958 . S
C439 H454 0.961 . S
C439 H455 0.960 . S
H440 C424 0.931 . S
H441 C429 0.929 . S
H442 C430 0.960 . S
H443 C430 0.962 . S
H444 C430 0.960 . S
H445 C431 0.961 . S
H446 C431 0.961 . S
H447 C431 0.961 . S
H448 C432 0.931 . S
H449 C437 0.930 . S
H450 C438 0.956 . S
H451 C438 0.961 . S
H452 C438 0.961 . S
H453 C439 0.958 . S
H454 C439 0.961 . S
H455 C439 0.960 . S
C456 C457 1.391 1_545 S
C456 C458 1.394 . S
C456 H472 0.931 . S
C457 C456 1.391 1_565 S
C457 C461 1.376 . S
C458 C456 1.394 . S
C458 C459 1.369 1_545 S
C458 C462 1.531 . S
C459 C458 1.369 1_565 S
C459 C460 1.410 . S
C459 C467 1.503 . S
C460 C459 1.410 . S
C460 C461 1.392 . S
C460 C463 1.511 . S
C461 C457 1.376 . S
C461 C460 1.392 . S
C461 H473 0.929 . S
C462 C458 1.531 . S
C462 H474 0.960 . S
C462 H475 0.962 . S
C462 H476 0.960 . S
C463 C460 1.511 . S
C463 H477 0.961 . S
C463 H478 0.961 . S
C463 H479 0.961 . S
C464 C465 1.366 . S
C464 C466 1.364 . S
C464 H480 0.935 1_565 S
C465 C464 1.366 . S
C465 C469 1.408 . S
C466 C464 1.364 . S
C466 C467 1.370 . S
C466 C470 1.512 . S
C467 C459 1.503 . S
C467 C466 1.370 . S
C467 C468 1.403 . S
C468 C467 1.403 . S
C468 C469 1.404 . S
C468 C471 1.539 . S
C469 C465 1.408 . S
C469 C468 1.404 . S
C469 H481 0.930 . S
C470 C466 1.512 . S
C470 H482 0.931 1_565 S
C470 H483 0.985 . S
C470 H484 0.972 . S
C471 C468 1.539 . S
C471 H485 0.958 1_565 S
C471 H486 0.961 . S
C471 H487 0.960 . S
H472 C456 0.931 . S
H473 C461 0.929 . S
H474 C462 0.960 . S
H475 C462 0.962 . S
H476 C462 0.960 . S
H477 C463 0.961 . S
H478 C463 0.961 . S
H479 C463 0.961 . S
H480 C464 0.935 1_545 S
H481 C469 0.930 . S
H482 C470 0.931 1_545 S
H483 C470 0.985 . S
H484 C470 0.972 . S
H485 C471 0.958 1_545 S
H486 C471 0.961 . S
H487 C471 0.960 . S
C488 C489 1.391 . S
C488 C490 1.394 . S
C488 H504 0.931 . S
C489 C488 1.391 . S
C489 C493 1.376 . S
C490 C488 1.394 . S
C490 C491 1.369 . S
C490 C494 1.531 . S
C491 C490 1.369 . S
C491 C492 1.410 . S
C491 C499 1.503 . S
C492 C491 1.410 . S
C492 C493 1.392 . S
C492 C495 1.511 . S
C493 C489 1.376 . S
C493 C492 1.392 . S
C493 H505 0.929 . S
C494 C490 1.531 . S
C494 H506 0.960 . S
C494 H507 0.962 . S
C494 H508 0.960 . S
C495 C492 1.511 . S
C495 H509 0.961 . S
C495 H510 0.961 . S
C495 H511 0.961 . S
C496 C497 1.370 . S
C496 C498 1.363 . S
C496 H512 0.931 . S
C497 C496 1.370 . S
C497 C501 1.408 . S
C498 C496 1.363 . S
C498 C499 1.370 . S
C498 C502 1.524 . S
C499 C491 1.503 . S
C499 C498 1.370 . S
C499 C500 1.403 . S
C500 C499 1.403 . S
C500 C501 1.404 . S
C500 C503 1.539 . S
C501 C497 1.408 . S
C501 C500 1.404 . S
C501 H513 0.930 . S
C502 C498 1.524 . S
C502 H514 0.956 . S
C502 H515 0.961 . S
C502 H516 0.961 . S
C503 C500 1.539 . S
C503 H517 0.958 . S
C503 H518 0.961 . S
C503 H519 0.960 . S
H504 C488 0.931 . S
H505 C493 0.929 . S
H506 C494 0.960 . S
H507 C494 0.962 . S
H508 C494 0.960 . S
H509 C495 0.961 . S
H510 C495 0.961 . S
H511 C495 0.961 . S
H512 C496 0.931 . S
H513 C501 0.930 . S
H514 C502 0.956 . S
H515 C502 0.961 . S
H516 C502 0.961 . S
H517 C503 0.958 . S
H518 C503 0.961 . S
H519 C503 0.960 . S
C520 C521 1.391 . S
C520 C522 1.394 . S
C520 H536 0.931 . S
C521 C520 1.391 . S
C521 C525 1.376 . S
C522 C520 1.394 . S
C522 C523 1.369 . S
C522 C526 1.531 . S
C523 C522 1.369 . S
C523 C524 1.410 . S
C523 C531 1.503 . S
C524 C523 1.410 . S
C524 C525 1.392 . S
C524 C527 1.511 . S
C525 C521 1.376 . S
C525 C524 1.392 . S
C525 H537 0.929 . S
C526 C522 1.531 . S
C526 H538 0.960 . S
C526 H539 0.962 . S
C526 H540 0.960 . S
C527 C524 1.511 . S
C527 H541 0.961 . S
C527 H542 0.961 . S
C527 H543 0.961 . S
C528 C529 1.370 . S
C528 C530 1.363 . S
C528 H544 0.931 . S
C529 C528 1.370 . S
C529 C533 1.408 . S
C530 C528 1.363 . S
C530 C531 1.370 . S
C530 C534 1.524 . S
C531 C523 1.503 . S
C531 C530 1.370 . S
C531 C532 1.403 . S
C532 C531 1.403 . S
C532 C533 1.404 . S
C532 C535 1.539 . S
C533 C529 1.408 . S
C533 C532 1.404 . S
C533 H545 0.930 . S
C534 C530 1.524 . S
C534 H546 0.956 . S
C534 H547 0.961 . S
C534 H548 0.961 . S
C535 C532 1.539 . S
C535 H549 0.958 . S
C535 H550 0.961 . S
C535 H551 0.960 . S
H536 C520 0.931 . S
H537 C525 0.929 . S
H538 C526 0.960 . S
H539 C526 0.962 . S
H540 C526 0.960 . S
H541 C527 0.961 . S
H542 C527 0.961 . S
H543 C527 0.961 . S
H544 C528 0.931 . S
H545 C533 0.930 . S
H546 C534 0.956 . S
H547 C534 0.961 . S
H548 C534 0.961 . S
H549 C535 0.958 . S
H550 C535 0.961 . S
H551 C535 0.960 . S
C552 C553 1.391 . S
C552 C554 1.394 . S
C552 H568 0.931 . S
C553 C552 1.391 . S
C553 C557 1.376 . S
C554 C552 1.394 . S
C554 C555 1.369 . S
C554 C558 1.531 . S
C555 C554 1.369 . S
C555 C556 1.410 . S
C555 C563 1.503 . S
C556 C555 1.410 . S
C556 C557 1.392 . S
C556 C559 1.511 . S
C557 C553 1.376 . S
C557 C556 1.392 . S
C557 H569 0.929 . S
C558 C554 1.531 . S
C558 H570 0.960 . S
C558 H571 0.962 . S
C558 H572 0.960 . S
C559 C556 1.511 . S
C559 H573 0.961 . S
C559 H574 0.961 . S
C559 H575 0.961 . S
C560 C561 1.364 1_554 S
C560 C562 1.373 . S
C560 H576 0.927 1_554 S
C561 C560 1.364 1_556 S
C561 C565 1.408 . S
C562 C560 1.373 . S
C562 C563 1.370 . S
C562 C566 1.524 . S
C563 C555 1.503 . S
C563 C562 1.370 . S
C563 C564 1.403 . S
C564 C563 1.403 . S
C564 C565 1.404 1_554 S
C564 C567 1.539 . S
C565 C561 1.408 . S
C565 C564 1.404 1_556 S
C565 H577 0.930 . S
C566 C562 1.524 . S
C566 H578 0.956 . S
C566 H579 0.961 . S
C566 H580 0.961 . S
C567 C564 1.539 . S
C567 H581 0.958 . S
C567 H582 0.961 . S
C567 H583 0.960 . S
H568 C552 0.931 . S
H569 C557 0.929 . S
H570 C558 0.960 . S
H571 C558 0.962 . S
H572 C558 0.960 . S
H573 C559 0.961 . S
H574 C559 0.961 . S
H575 C559 0.961 . S
H576 C560 0.927 1_556 S
H577 C565 0.930 . S
H578 C566 0.956 . S
H579 C566 0.961 . S
H580 C566 0.961 . S
H581 C567 0.958 . S
H582 C567 0.961 . S
H583 C567 0.960 . S
C584 C585 1.391 . S
C584 C586 1.394 . S
C584 H600 0.931 . S
C585 C584 1.391 . S
C585 C589 1.376 . S
C586 C584 1.394 . S
C586 C587 1.369 . S
C586 C590 1.531 . S
C587 C586 1.369 . S
C587 C588 1.410 . S
C587 C595 1.495 1_455 S
C588 C587 1.410 . S
C588 C589 1.392 . S
C588 C591 1.511 1_455 S
C589 C585 1.376 . S
C589 C588 1.392 . S
C589 H601 0.929 . S
C590 C586 1.531 . S
C590 H602 0.960 . S
C590 H603 0.962 . S
C590 H604 0.960 . S
C591 C588 1.511 1_655 S
C591 H605 0.961 . S
C591 H606 0.961 . S
C591 H607 0.961 1_655 S
C592 C593 1.370 1_554 S
C592 C594 1.363 . S
C592 H608 0.931 1_554 S
C593 C592 1.370 1_556 S
C593 C597 1.408 1_655 S
C594 C592 1.363 . S
C594 C595 1.428 . S
C594 C598 1.524 . S
C595 C587 1.495 1_655 S
C595 C594 1.428 . S
C595 C596 1.356 1_655 S
C596 C595 1.356 1_455 S
C596 C597 1.404 1_554 S
C596 C599 1.539 . S
C597 C593 1.408 1_455 S
C597 C596 1.404 1_556 S
C597 H609 0.930 . S
C598 C594 1.524 . S
C598 H610 0.956 . S
C598 H611 0.961 . S
C598 H612 0.961 . S
C599 C596 1.539 . S
C599 H613 0.958 . S
C599 H614 0.961 . S
C599 H615 0.960 . S
H600 C584 0.931 . S
H601 C589 0.929 . S
H602 C590 0.960 . S
H603 C590 0.962 . S
H604 C590 0.960 . S
H605 C591 0.961 . S
H606 C591 0.961 . S
H607 C591 0.961 1_455 S
H608 C592 0.931 1_556 S
H609 C597 0.930 . S
H610 C598 0.956 . S
H611 C598 0.961 . S
H612 C598 0.961 . S
H613 C599 0.958 . S
H614 C599 0.961 . S
H615 C599 0.960 . S
C616 C617 1.391 . S
C616 C618 1.394 . S
C616 H632 0.931 . S
C617 C616 1.391 . S
C617 C621 1.376 1_655 S
C618 C616 1.394 . S
C618 C619 1.408 . S
C618 C622 1.531 . S
C619 C618 1.408 . S
C619 C620 1.381 1_655 S
C619 C627 1.495 1_655 S
C620 C619 1.381 1_455 S
C620 C621 1.392 . S
C620 C623 1.511 . S
C621 C617 1.376 1_455 S
C621 C620 1.392 . S
C621 H633 0.929 . S
C622 C618 1.531 . S
C622 H634 0.960 . S
C622 H635 0.962 . S
C622 H636 0.960 . S
C623 C620 1.511 . S
C623 H637 0.961 . S
C623 H638 0.961 . S
C623 H639 0.961 . S
C624 C625 1.370 1_655 S
C624 C626 1.363 1_556 S
C624 H640 0.931 . S
C625 C624 1.370 1_455 S
C625 C629 1.408 . S
C626 C624 1.363 1_554 S
C626 C627 1.370 1_655 S
C626 C630 1.524 . S
C627 C619 1.495 1_455 S
C627 C626 1.370 1_455 S
C627 C628 1.403 . S
C628 C627 1.403 . S
C628 C629 1.404 1_554 S
C628 C631 1.539 . S
C629 C625 1.408 . S
C629 C628 1.404 1_556 S
C629 H641 0.930 . S
C630 C626 1.524 . S
C630 H642 0.956 . S
C630 H643 0.961 . S
C630 H644 0.961 . S
C631 C628 1.539 . S
C631 H645 0.958 . S
C631 H646 0.961 . S
C631 H647 0.960 . S
H632 C616 0.931 . S
H633 C621 0.929 . S
H634 C622 0.960 . S
H635 C622 0.962 . S
H636 C622 0.960 . S
H637 C623 0.961 . S
H638 C623 0.961 . S
H639 C623 0.961 . S
H640 C624 0.931 . S
H641 C629 0.930 . S
H642 C630 0.956 . S
H643 C630 0.961 . S
H644 C630 0.961 . S
H645 C631 0.958 . S
H646 C631 0.961 . S
H647 C631 0.960 . S
C648 C649 1.391 . S
C648 C650 1.394 . S
C648 H664 0.931 . S
C649 C648 1.391 . S
C649 C653 1.376 . S
C650 C648 1.394 . S
C650 C651 1.369 . S
C650 C654 1.531 . S
C651 C650 1.369 . S
C651 C652 1.410 . S
C651 C659 1.503 . S
C652 C651 1.410 . S
C652 C653 1.392 . S
C652 C655 1.511 . S
C653 C649 1.376 . S
C653 C652 1.392 . S
C653 H665 0.929 . S
C654 C650 1.531 . S
C654 H666 0.960 . S
C654 H667 0.962 . S
C654 H668 0.960 . S
C655 C652 1.511 . S
C655 H669 0.961 . S
C655 H670 0.961 . S
C655 H671 0.961 . S
C656 C657 1.370 . S
C656 C658 1.363 . S
C656 H672 0.931 . S
C657 C656 1.370 . S
C657 C661 1.408 . S
C658 C656 1.363 . S
C658 C659 1.370 . S
C658 C662 1.524 . S
C659 C651 1.503 . S
C659 C658 1.370 . S
C659 C660 1.403 . S
C660 C659 1.403 . S
C660 C661 1.404 . S
C660 C663 1.539 . S
C661 C657 1.408 . S
C661 C660 1.404 . S
C661 H673 0.930 . S
C662 C658 1.524 . S
C662 H674 0.956 . S
C662 H675 0.961 . S
C662 H676 0.961 . S
C663 C660 1.539 . S
C663 H677 0.958 1_554 S
C663 H678 0.961 . S
C663 H679 0.960 . S
H664 C648 0.931 . S
H665 C653 0.929 . S
H666 C654 0.960 . S
H667 C654 0.962 . S
H668 C654 0.960 . S
H669 C655 0.961 . S
H670 C655 0.961 . S
H671 C655 0.961 . S
H672 C656 0.931 . S
H673 C661 0.930 . S
H674 C662 0.956 . S
H675 C662 0.961 . S
H676 C662 0.961 . S
H677 C663 0.958 1_556 S
H678 C663 0.961 . S
H679 C663 0.960 . S
C680 C681 1.391 . S
C680 C682 1.394 . S
C680 H696 0.931 . S
C681 C680 1.391 . S
C681 C685 1.376 . S
C682 C680 1.394 . S
C682 C683 1.369 . S
C682 C686 1.531 . S
C683 C682 1.369 . S
C683 C684 1.410 . S
C683 C691 1.503 . S
C684 C683 1.410 . S
C684 C685 1.392 . S
C684 C687 1.511 . S
C685 C681 1.376 . S
C685 C684 1.392 . S
C685 H697 0.929 . S
C686 C682 1.531 . S
C686 H698 0.960 . S
C686 H699 0.962 . S
C686 H700 0.960 . S
C687 C684 1.511 . S
C687 H701 0.961 . S
C687 H702 0.961 . S
C687 H703 0.961 1_554 S
C688 C689 1.370 . S
C688 C690 1.363 . S
C688 H704 0.931 . S
C689 C688 1.370 . S
C689 C693 1.408 . S
C690 C688 1.363 . S
C690 C691 1.370 . S
C690 C694 1.524 . S
C691 C683 1.503 . S
C691 C690 1.370 . S
C691 C692 1.403 . S
C692 C691 1.403 . S
C692 C693 1.404 . S
C692 C695 1.539 . S
C693 C689 1.408 . S
C693 C692 1.404 . S
C693 H705 0.930 . S
C694 C690 1.524 . S
C694 H706 0.956 . S
C694 H707 0.961 . S
C694 H708 0.961 . S
C695 C692 1.539 . S
C695 H709 0.958 . S
C695 H710 0.961 . S
C695 H711 0.960 . S
H696 C680 0.931 . S
H697 C685 0.929 . S
H698 C686 0.960 . S
H699 C686 0.962 . S
H700 C686 0.960 . S
H701 C687 0.961 . S
H702 C687 0.961 . S
H703 C687 0.961 1_556 S
H704 C688 0.931 . S
H705 C693 0.930 . S
H706 C694 0.956 . S
H707 C694 0.961 . S
H708 C694 0.961 . S
H709 C695 0.958 . S
H710 C695 0.961 . S
H711 C695 0.960 . S
C712 C713 1.391 . S
C712 C714 1.394 . S
C712 H728 0.931 . S
C713 C712 1.391 . S
C713 C717 1.376 . S
C714 C712 1.394 . S
C714 C715 1.369 . S
C714 C718 1.531 . S
C715 C714 1.369 . S
C715 C716 1.410 . S
C715 C723 1.503 . S
C716 C715 1.410 . S
C716 C717 1.392 . S
C716 C719 1.511 . S
C717 C713 1.376 . S
C717 C716 1.392 . S
C717 H729 0.929 . S
C718 C714 1.531 . S
C718 H730 0.960 . S
C718 H731 0.962 . S
C718 H732 0.960 1_554 S
C719 C716 1.511 . S
C719 H733 0.961 . S
C719 H734 0.961 . S
C719 H735 0.961 . S
C720 C721 1.370 . S
C720 C722 1.363 . S
C720 H736 0.931 . S
C721 C720 1.370 . S
C721 C725 1.408 . S
C722 C720 1.363 . S
C722 C723 1.370 . S
C722 C726 1.524 . S
C723 C715 1.503 . S
C723 C722 1.370 . S
C723 C724 1.403 . S
C724 C723 1.403 . S
C724 C725 1.404 . S
C724 C727 1.539 . S
C725 C721 1.408 . S
C725 C724 1.404 . S
C725 H737 0.930 . S
C726 C722 1.524 . S
C726 H738 0.956 . S
C726 H739 0.961 . S
C726 H740 0.961 . S
C727 C724 1.539 . S
C727 H741 0.958 . S
C727 H742 0.961 . S
C727 H743 0.960 . S
H728 C712 0.931 . S
H729 C717 0.929 . S
H730 C718 0.960 . S
H731 C718 0.962 . S
H732 C718 0.960 1_556 S
H733 C719 0.961 . S
H734 C719 0.961 . S
H735 C719 0.961 . S
H736 C720 0.931 . S
H737 C725 0.930 . S
H738 C726 0.956 . S
H739 C726 0.961 . S
H740 C726 0.961 . S
H741 C727 0.958 . S
H742 C727 0.961 . S
H743 C727 0.960 . S
C744 C745 1.391 . S
C744 C746 1.394 . S
C744 H760 0.931 . S
C745 C744 1.391 . S
C745 C749 1.376 1_554 S
C746 C744 1.394 . S
C746 C747 1.369 1_554 S
C746 C750 1.531 . S
C747 C746 1.369 1_556 S
C747 C748 1.410 . S
C747 C755 1.503 . S
C748 C747 1.410 . S
C748 C749 1.392 . S
C748 C751 1.511 . S
C749 C745 1.376 1_556 S
C749 C748 1.392 . S
C749 H761 0.929 . S
C750 C746 1.531 . S
C750 H762 0.960 . S
C750 H763 0.962 . S
C750 H764 0.960 . S
C751 C748 1.511 . S
C751 H765 0.961 . S
C751 H766 0.961 . S
C751 H767 0.961 . S
C752 C753 1.370 . S
C752 C754 1.363 . S
C752 H768 0.931 . S
C753 C752 1.370 . S
C753 C757 1.408 . S
C754 C752 1.363 . S
C754 C755 1.370 . S
C754 C758 1.524 . S
C755 C747 1.503 . S
C755 C754 1.370 . S
C755 C756 1.403 . S
C756 C755 1.403 . S
C756 C757 1.404 . S
C756 C759 1.539 . S
C757 C753 1.408 . S
C757 C756 1.404 . S
C757 H769 0.930 . S
C758 C754 1.524 . S
C758 H770 0.956 . S
C758 H771 0.961 . S
C758 H772 0.961 . S
C759 C756 1.539 . S
C759 H773 0.958 . S
C759 H774 0.961 . S
C759 H775 0.960 . S
H760 C744 0.931 . S
H761 C749 0.929 . S
H762 C750 0.960 . S
H763 C750 0.962 . S
H764 C750 0.960 . S
H765 C751 0.961 . S
H766 C751 0.961 . S
H767 C751 0.961 . S
H768 C752 0.931 . S
H769 C757 0.930 . S
H770 C758 0.956 . S
H771 C758 0.961 . S
H772 C758 0.961 . S
H773 C759 0.958 . S
H774 C759 0.961 . S
H775 C759 0.960 . S
C776 C777 1.391 . S
C776 C778 1.394 . S
C776 H792 0.931 . S
C777 C776 1.391 . S
C777 C781 1.376 . S
C778 C776 1.394 . S
C778 C779 1.369 . S
C778 C782 1.531 . S
C779 C778 1.369 . S
C779 C780 1.410 . S
C779 C787 1.503 . S
C780 C779 1.410 . S
C780 C781 1.392 . S
C780 C783 1.511 . S
C781 C777 1.376 . S
C781 C780 1.392 . S
C781 H793 0.929 . S
C782 C778 1.531 . S
C782 H794 0.960 . S
C782 H795 0.962 . S
C782 H796 0.960 . S
C783 C780 1.511 . S
C783 H797 0.961 1_556 S
C783 H798 0.961 1_556 S
C783 H799 0.961 . S
C784 C785 1.370 . S
C784 C786 1.363 1_554 S
C784 H800 0.931 . S
C785 C784 1.370 . S
C785 C789 1.408 1_554 S
C786 C784 1.363 1_556 S
C786 C787 1.370 . S
C786 C790 1.524 1_556 S
C787 C779 1.503 . S
C787 C786 1.370 . S
C787 C788 1.403 . S
C788 C787 1.403 . S
C788 C789 1.404 . S
C788 C791 1.539 . S
C789 C785 1.408 1_556 S
C789 C788 1.404 . S
C789 H801 0.930 . S
C790 C786 1.524 1_554 S
C790 H802 0.956 1_554 S
C790 H803 0.961 . S
C790 H804 0.961 . S
C791 C788 1.539 . S
C791 H805 0.958 . S
C791 H806 0.961 . S
C791 H807 0.960 . S
H792 C776 0.931 . S
H793 C781 0.929 . S
H794 C782 0.960 . S
H795 C782 0.962 . S
H796 C782 0.960 . S
H797 C783 0.961 1_554 S
H798 C783 0.961 1_554 S
H799 C783 0.961 . S
H800 C784 0.931 . S
H801 C789 0.930 . S
H802 C790 0.956 1_556 S
H803 C790 0.961 . S
H804 C790 0.961 . S
H805 C791 0.958 . S
H806 C791 0.961 . S
H807 C791 0.960 . S
C808 C809 1.391 . S
C808 C810 1.394 . S
C808 H824 0.931 . S
C809 C808 1.391 . S
C809 C813 1.376 . S
C810 C808 1.394 . S
C810 C811 1.369 . S
C810 C814 1.531 . S
C811 C810 1.369 . S
C811 C812 1.410 . S
C811 C819 1.503 . S
C812 C811 1.410 . S
C812 C813 1.392 . S
C812 C815 1.511 . S
C813 C809 1.376 . S
C813 C812 1.392 . S
C813 H825 0.929 . S
C814 C810 1.531 . S
C814 H826 0.960 . S
C814 H827 0.962 . S
C814 H828 0.960 . S
C815 C812 1.511 . S
C815 H829 0.961 . S
C815 H830 0.961 . S
C815 H831 0.961 1_556 S
C816 C817 1.370 1_556 S
C816 C818 1.363 . S
C816 H832 0.931 . S
C817 C816 1.370 1_554 S
C817 C821 1.408 . S
C818 C816 1.363 . S
C818 C819 1.370 . S
C818 C822 1.524 . S
C819 C811 1.503 . S
C819 C818 1.370 . S
C819 C820 1.403 1_556 S
C820 C819 1.403 1_554 S
C820 C821 1.404 . S
C820 C823 1.539 . S
C821 C817 1.408 . S
C821 C820 1.404 . S
C821 H833 0.930 . S
C822 C818 1.524 . S
C822 H834 0.956 . S
C822 H835 0.961 . S
C822 H836 0.961 . S
C823 C820 1.539 . S
C823 H837 0.958 . S
C823 H838 0.961 . S
C823 H839 0.960 . S
H824 C808 0.931 . S
H825 C813 0.929 . S
H826 C814 0.960 . S
H827 C814 0.962 . S
H828 C814 0.960 . S
H829 C815 0.961 . S
H830 C815 0.961 . S
H831 C815 0.961 1_554 S
H832 C816 0.931 . S
H833 C821 0.930 . S
H834 C822 0.956 . S
H835 C822 0.961 . S
H836 C822 0.961 . S
H837 C823 0.958 . S
H838 C823 0.961 . S
H839 C823 0.960 . S
C840 C841 1.391 . S
C840 C842 1.394 . S
C840 H856 0.931 . S
C841 C840 1.391 . S
C841 C845 1.376 . S
C842 C840 1.394 . S
C842 C843 1.369 . S
C842 C846 1.531 . S
C843 C842 1.369 . S
C843 C844 1.410 . S
C843 C851 1.503 . S
C844 C843 1.410 . S
C844 C845 1.392 . S
C844 C847 1.511 1_556 S
C845 C841 1.376 . S
C845 C844 1.392 . S
C845 H857 0.929 . S
C846 C842 1.531 . S
C846 H858 0.960 . S
C846 H859 0.962 . S
C846 H860 0.960 . S
C847 C844 1.511 1_554 S
C847 H861 0.961 . S
C847 H862 0.961 . S
C847 H863 0.961 1_554 S
C848 C849 1.370 . S
C848 C850 1.363 . S
C848 H864 0.931 . S
C849 C848 1.370 . S
C849 C853 1.408 1_554 S
C850 C848 1.363 . S
C850 C851 1.370 1_554 S
C850 C854 1.524 . S
C851 C843 1.503 . S
C851 C850 1.370 1_556 S
C851 C852 1.403 . S
C852 C851 1.403 . S
C852 C853 1.404 . S
C852 C855 1.539 . S
C853 C849 1.408 1_556 S
C853 C852 1.404 . S
C853 H865 0.930 . S
C854 C850 1.524 . S
C854 H866 0.956 . S
C854 H867 0.961 . S
C854 H868 0.961 . S
C855 C852 1.539 . S
C855 H869 0.958 . S
C855 H870 0.961 . S
C855 H871 0.960 . S
H856 C840 0.931 . S
H857 C845 0.929 . S
H858 C846 0.960 . S
H859 C846 0.962 . S
H860 C846 0.960 . S
H861 C847 0.961 . S
H862 C847 0.961 . S
H863 C847 0.961 1_556 S
H864 C848 0.931 . S
H865 C853 0.930 . S
H866 C854 0.956 . S
H867 C854 0.961 . S
H868 C854 0.961 . S
H869 C855 0.958 . S
H870 C855 0.961 . S
H871 C855 0.960 . S
C872 C873 1.391 1_556 S
C872 C874 1.394 . S
C872 H888 0.931 . S
C873 C872 1.391 1_554 S
C873 C877 1.376 . S
C874 C872 1.394 . S
C874 C875 1.369 1_556 S
C874 C878 1.531 . S
C875 C874 1.369 1_554 S
C875 C876 1.410 . S
C875 C883 1.503 1_554 S
C876 C875 1.410 . S
C876 C877 1.392 . S
C876 C879 1.511 . S
C877 C873 1.376 . S
C877 C876 1.392 . S
C877 H889 0.929 . S
C878 C874 1.531 . S
C878 H890 0.960 . S
C878 H891 0.962 . S
C878 H892 0.960 . S
C879 C876 1.511 . S
C879 H893 0.961 . S
C879 H894 0.961 . S
C879 H895 0.961 . S
C880 C881 1.370 . S
C880 C882 1.363 . S
C880 H896 0.931 . S
C881 C880 1.370 . S
C881 C885 1.408 . S
C882 C880 1.363 . S
C882 C883 1.370 . S
C882 C886 1.524 . S
C883 C875 1.503 1_556 S
C883 C882 1.370 . S
C883 C884 1.403 . S
C884 C883 1.403 . S
C884 C885 1.404 . S
C884 C887 1.539 1_556 S
C885 C881 1.408 . S
C885 C884 1.404 . S
C885 H897 0.930 . S
C886 C882 1.524 . S
C886 H898 0.956 . S
C886 H899 0.961 1_556 S
C886 H900 0.961 . S
C887 C884 1.539 1_554 S
C887 H901 0.958 1_554 S
C887 H902 0.961 . S
C887 H903 0.960 . S
H888 C872 0.931 . S
H889 C877 0.929 . S
H890 C878 0.960 . S
H891 C878 0.962 . S
H892 C878 0.960 . S
H893 C879 0.961 . S
H894 C879 0.961 . S
H895 C879 0.961 . S
H896 C880 0.931 . S
H897 C885 0.930 . S
H898 C886 0.956 . S
H899 C886 0.961 1_554 S
H900 C886 0.961 . S
H901 C887 0.958 1_556 S
H902 C887 0.961 . S
H903 C887 0.960 . S
C904 C905 1.391 . S
C904 C906 1.394 . S
C904 H920 0.931 . S
C905 C904 1.391 . S
C905 C909 1.376 1_556 S
C906 C904 1.394 . S
C906 C907 1.369 . S
C906 C910 1.531 . S
C907 C906 1.369 . S
C907 C908 1.410 1_556 S
C907 C915 1.503 . S
C908 C907 1.410 1_554 S
C908 C909 1.392 . S
C908 C911 1.511 . S
C909 C905 1.376 1_554 S
C909 C908 1.392 . S
C909 H921 0.929 . S
C910 C906 1.531 . S
C910 H922 0.960 . S
C910 H923 0.962 . S
C910 H924 0.960 . S
C911 C908 1.511 . S
C911 H925 0.961 . S
C911 H926 0.961 . S
C911 H927 0.961 . S
C912 C913 1.370 . S
C912 C914 1.363 . S
C912 H928 0.931 . S
C913 C912 1.370 . S
C913 C917 1.408 1_554 S
C914 C912 1.363 . S
C914 C915 1.370 1_554 S
C914 C918 1.524 . S
C915 C907 1.503 . S
C915 C914 1.370 1_556 S
C915 C916 1.403 . S
C916 C915 1.403 . S
C916 C917 1.404 . S
C916 C919 1.539 . S
C917 C913 1.408 1_556 S
C917 C916 1.404 . S
C917 H929 0.930 . S
C918 C914 1.524 . S
C918 H930 0.956 . S
C918 H931 0.961 . S
C918 H932 0.961 . S
C919 C916 1.539 . S
C919 H933 0.958 . S
C919 H934 0.961 . S
C919 H935 0.960 . S
H920 C904 0.931 . S
H921 C909 0.929 . S
H922 C910 0.960 . S
H923 C910 0.962 . S
H924 C910 0.960 . S
H925 C911 0.961 . S
H926 C911 0.961 . S
H927 C911 0.961 . S
H928 C912 0.931 . S
H929 C917 0.930 . S
H930 C918 0.956 . S
H931 C918 0.961 . S
H932 C918 0.961 . S
H933 C919 0.958 . S
H934 C919 0.961 . S
H935 C919 0.960 . S
C936 C937 1.391 . S
C936 C938 1.394 . S
C936 H952 0.931 . S
C937 C936 1.391 . S
C937 C941 1.376 . S
C938 C936 1.394 . S
C938 C939 1.369 . S
C938 C942 1.531 . S
C939 C938 1.369 . S
C939 C940 1.410 . S
C939 C947 1.503 . S
C940 C939 1.410 . S
C940 C941 1.392 . S
C940 C943 1.511 . S
C941 C937 1.376 . S
C941 C940 1.392 . S
C941 H953 0.929 . S
C942 C938 1.531 . S
C942 H954 0.960 . S
C942 H955 0.962 . S
C942 H956 0.960 . S
C943 C940 1.511 . S
C943 H957 0.961 . S
C943 H958 0.961 . S
C943 H959 0.961 . S
C944 C945 1.370 . S
C944 C946 1.363 . S
C944 H960 0.931 . S
C945 C944 1.370 . S
C945 C949 1.408 . S
C946 C944 1.363 . S
C946 C947 1.370 . S
C946 C950 1.524 1_554 S
C947 C939 1.503 . S
C947 C946 1.370 . S
C947 C948 1.403 . S
C948 C947 1.403 . S
C948 C949 1.404 . S
C948 C951 1.539 . S
C949 C945 1.408 . S
C949 C948 1.404 . S
C949 H961 0.930 . S
C950 C946 1.524 1_556 S
C950 H962 0.956 1_556 S
C950 H963 0.961 . S
C950 H964 0.961 . S
C951 C948 1.539 . S
C951 H965 0.958 . S
C951 H966 0.961 . S
C951 H967 0.960 . S
H952 C936 0.931 . S
H953 C941 0.929 . S
H954 C942 0.960 . S
H955 C942 0.962 . S
H956 C942 0.960 . S
H957 C943 0.961 . S
H958 C943 0.961 . S
H959 C943 0.961 . S
H960 C944 0.931 . S
H961 C949 0.930 . S
H962 C950 0.956 1_554 S
H963 C950 0.961 . S
H964 C950 0.961 . S
H965 C951 0.958 . S
H966 C951 0.961 . S
H967 C951 0.960 . S
C968 C969 1.391 . S
C968 C970 1.394 . S
C968 H984 0.931 . S
C969 C968 1.391 . S
C969 C973 1.376 . S
C970 C968 1.394 . S
C970 C971 1.369 . S
C970 C974 1.531 . S
C971 C970 1.369 . S
C971 C972 1.410 . S
C971 C979 1.503 . S
C972 C971 1.410 . S
C972 C973 1.392 . S
C972 C975 1.511 . S
C973 C969 1.376 . S
C973 C972 1.392 . S
C973 H985 0.929 . S
C974 C970 1.531 . S
C974 H986 0.960 . S
C974 H987 0.962 . S
C974 H988 0.960 . S
C975 C972 1.511 . S
C975 H989 0.961 . S
C975 H990 0.961 . S
C975 H991 0.961 . S
C976 C977 1.370 . S
C976 C978 1.363 . S
C976 H992 0.931 . S
C977 C976 1.370 . S
C977 C981 1.408 . S
C978 C976 1.363 . S
C978 C979 1.370 . S
C978 C982 1.524 . S
C979 C971 1.503 . S
C979 C978 1.370 . S
C979 C980 1.403 . S
C980 C979 1.403 . S
C980 C981 1.404 . S
C980 C983 1.539 1_554 S
C981 C977 1.408 . S
C981 C980 1.404 . S
C981 H993 0.930 . S
C982 C978 1.524 . S
C982 H994 0.956 . S
C982 H995 0.961 . S
C982 H996 0.961 . S
C983 C980 1.539 1_556 S
C983 H997 0.958 . S
C983 H998 0.961 . S
C983 H999 0.960 . S
H984 C968 0.931 . S
H985 C973 0.929 . S
H986 C974 0.960 . S
H987 C974 0.962 . S
H988 C974 0.960 . S
H989 C975 0.961 . S
H990 C975 0.961 . S
H991 C975 0.961 . S
H992 C976 0.931 . S
H993 C981 0.930 . S
H994 C982 0.956 . S
H995 C982 0.961 . S
H996 C982 0.961 . S
H997 C983 0.958 . S
H998 C983 0.961 . S
H999 C983 0.960 . S
C1000 C1001 1.391 . S
C1000 C1002 1.394 . S
C1000 H1016 0.931 . S
C1001 C1000 1.391 . S
C1001 C1005 1.376 . S
C1002 C1000 1.394 . S
C1002 C1003 1.369 . S
C1002 C1006 1.531 . S
C1003 C1002 1.369 . S
C1003 C1004 1.410 . S
C1003 C1011 1.503 . S
C1004 C1003 1.410 . S
C1004 C1005 1.392 . S
C1004 C1007 1.511 . S
C1005 C1001 1.376 . S
C1005 C1004 1.392 . S
C1005 H1017 0.929 . S
C1006 C1002 1.531 . S
C1006 H1018 0.960 . S
C1006 H1019 0.962 . S
C1006 H1020 0.960 . S
C1007 C1004 1.511 . S
C1007 H1021 0.961 . S
C1007 H1022 0.961 . S
C1007 H1023 0.961 . S
C1008 C1009 1.370 . S
C1008 C1010 1.363 . S
C1008 H1024 0.931 . S
C1009 C1008 1.370 . S
C1009 C1013 1.408 . S
C1010 C1008 1.363 . S
C1010 C1011 1.370 . S
C1010 C1014 1.524 1_554 S
C1011 C1003 1.503 . S
C1011 C1010 1.370 . S
C1011 C1012 1.403 . S
C1012 C1011 1.403 . S
C1012 C1013 1.404 . S
C1012 C1015 1.539 . S
C1013 C1009 1.408 . S
C1013 C1012 1.404 . S
C1013 H1025 0.930 . S
C1014 C1010 1.524 1_556 S
C1014 H1026 0.956 . S
C1014 H1027 0.961 . S
C1014 H1028 0.961 . S
C1015 C1012 1.539 . S
C1015 H1029 0.958 . S
C1015 H1030 0.961 . S
C1015 H1031 0.960 . S
H1016 C1000 0.931 . S
H1017 C1005 0.929 . S
H1018 C1006 0.960 . S
H1019 C1006 0.962 . S
H1020 C1006 0.960 . S
H1021 C1007 0.961 . S
H1022 C1007 0.961 . S
H1023 C1007 0.961 . S
H1024 C1008 0.931 . S
H1025 C1013 0.930 . S
H1026 C1014 0.956 . S
H1027 C1014 0.961 . S
H1028 C1014 0.961 . S
H1029 C1015 0.958 . S
H1030 C1015 0.961 . S
H1031 C1015 0.960 . S
C1032 C1033 1.391 . S
C1032 C1034 1.394 . S
C1032 H1048 0.931 . S
C1033 C1032 1.391 . S
C1033 C1037 1.376 . S
C1034 C1032 1.394 . S
C1034 C1035 1.369 . S
C1034 C1038 1.531 . S
C1035 C1034 1.369 . S
C1035 C1036 1.410 . S
C1035 C1043 1.503 . S
C1036 C1035 1.410 . S
C1036 C1037 1.392 . S
C1036 C1039 1.511 . S
C1037 C1033 1.376 . S
C1037 C1036 1.392 . S
C1037 H1049 0.929 . S
C1038 C1034 1.531 . S
C1038 H1050 0.960 . S
C1038 H1051 0.962 . S
C1038 H1052 0.960 . S
C1039 C1036 1.511 . S
C1039 H1053 0.961 . S
C1039 H1054 0.961 . S
C1039 H1055 0.961 . S
C1040 C1041 1.370 . S
C1040 C1042 1.363 . S
C1040 H1056 0.931 . S
C1041 C1040 1.370 . S
C1041 C1045 1.408 . S
C1042 C1040 1.363 . S
C1042 C1043 1.370 . S
C1042 C1046 1.524 . S
C1043 C1035 1.503 . S
C1043 C1042 1.370 . S
C1043 C1044 1.403 . S
C1044 C1043 1.403 . S
C1044 C1045 1.404 . S
C1044 C1047 1.539 . S
C1045 C1041 1.408 . S
C1045 C1044 1.404 . S
C1045 H1057 0.930 . S
C1046 C1042 1.524 . S
C1046 H1058 0.956 . S
C1046 H1059 0.961 . S
C1046 H1060 0.961 . S
C1047 C1044 1.539 . S
C1047 H1061 0.958 . S
C1047 H1062 0.961 . S
C1047 H1063 0.960 . S
H1048 C1032 0.931 . S
H1049 C1037 0.929 . S
H1050 C1038 0.960 . S
H1051 C1038 0.962 . S
H1052 C1038 0.960 . S
H1053 C1039 0.961 . S
H1054 C1039 0.961 . S
H1055 C1039 0.961 . S
H1056 C1040 0.931 . S
H1057 C1045 0.930 . S
H1058 C1046 0.956 . S
H1059 C1046 0.961 . S
H1060 C1046 0.961 . S
H1061 C1047 0.958 . S
H1062 C1047 0.961 . S
H1063 C1047 0.960 . S
C1064 C1065 1.391 . S
C1064 C1066 1.394 . S
C1064 H1080 0.931 . S
C1065 C1064 1.391 . S
C1065 C1069 1.376 . S
C1066 C1064 1.394 . S
C1066 C1067 1.369 . S
C1066 C1070 1.531 . S
C1067 C1066 1.369 . S
C1067 C1068 1.410 . S
C1067 C1075 1.503 . S
C1068 C1067 1.410 . S
C1068 C1069 1.392 . S
C1068 C1071 1.511 . S
C1069 C1065 1.376 . S
C1069 C1068 1.392 . S
C1069 H1081 0.929 . S
C1070 C1066 1.531 . S
C1070 H1082 0.960 . S
C1070 H1083 0.962 . S
C1070 H1084 0.960 . S
C1071 C1068 1.511 . S
C1071 H1085 0.961 . S
C1071 H1086 0.961 . S
C1071 H1087 0.961 . S
C1072 C1073 1.370 1_545 S
C1072 C1074 1.363 . S
C1072 H1088 0.931 1_545 S
C1073 C1072 1.370 1_565 S
C1073 C1077 1.383 1_565 S
C1074 C1072 1.363 . S
C1074 C1075 1.370 . S
C1074 C1078 1.524 . S
C1075 C1067 1.503 . S
C1075 C1074 1.370 . S
C1075 C1076 1.403 . S
C1076 C1075 1.403 . S
C1076 C1077 1.434 . S
C1076 C1079 1.539 . S
C1077 C1073 1.383 1_545 S
C1077 C1076 1.434 . S
C1077 H1089 0.927 1_545 S
C1078 C1074 1.524 . S
C1078 H1090 0.956 . S
C1078 H1091 0.961 . S
C1078 H1092 0.961 . S
C1079 C1076 1.539 . S
C1079 H1093 0.958 . S
C1079 H1094 0.961 . S
C1079 H1095 0.960 . S
H1080 C1064 0.931 . S
H1081 C1069 0.929 . S
H1082 C1070 0.960 . S
H1083 C1070 0.962 . S
H1084 C1070 0.960 . S
H1085 C1071 0.961 . S
H1086 C1071 0.961 . S
H1087 C1071 0.961 . S
H1088 C1072 0.931 1_565 S
H1089 C1077 0.927 1_565 S
H1090 C1078 0.956 . S
H1091 C1078 0.961 . S
H1092 C1078 0.961 . S
H1093 C1079 0.958 . S
H1094 C1079 0.961 . S
H1095 C1079 0.960 . S
C1096 C1097 1.391 . S
C1096 C1098 1.394 . S
C1096 H1112 0.931 . S
C1097 C1096 1.391 . S
C1097 C1101 1.376 . S
C1098 C1096 1.394 . S
C1098 C1099 1.369 . S
C1098 C1102 1.531 . S
C1099 C1098 1.369 . S
C1099 C1100 1.410 . S
C1099 C1107 1.503 . S
C1100 C1099 1.410 . S
C1100 C1101 1.392 . S
C1100 C1103 1.511 . S
C1101 C1097 1.376 . S
C1101 C1100 1.392 . S
C1101 H1113 0.929 . S
C1102 C1098 1.531 . S
C1102 H1114 0.960 . S
C1102 H1115 0.962 . S
C1102 H1116 0.960 . S
C1103 C1100 1.511 . S
C1103 H1117 0.961 . S
C1103 H1118 0.961 . S
C1103 H1119 0.961 . S
C1104 C1105 1.370 . S
C1104 C1106 1.363 . S
C1104 H1120 0.931 . S
C1105 C1104 1.370 . S
C1105 C1109 1.408 . S
C1106 C1104 1.363 . S
C1106 C1107 1.370 . S
C1106 C1110 1.524 . S
C1107 C1099 1.503 . S
C1107 C1106 1.370 . S
C1107 C1108 1.403 . S
C1108 C1107 1.403 . S
C1108 C1109 1.404 . S
C1108 C1111 1.539 . S
C1109 C1105 1.408 . S
C1109 C1108 1.404 . S
C1109 H1121 0.930 . S
C1110 C1106 1.524 . S
C1110 H1122 0.956 . S
C1110 H1123 0.961 . S
C1110 H1124 0.961 . S
C1111 C1108 1.539 . S
C1111 H1125 0.958 . S
C1111 H1126 0.961 . S
C1111 H1127 0.960 . S
H1112 C1096 0.931 . S
H1113 C1101 0.929 . S
H1114 C1102 0.960 . S
H1115 C1102 0.962 . S
H1116 C1102 0.960 . S
H1117 C1103 0.961 . S
H1118 C1103 0.961 . S
H1119 C1103 0.961 . S
H1120 C1104 0.931 . S
H1121 C1109 0.930 . S
H1122 C1110 0.956 . S
H1123 C1110 0.961 . S
H1124 C1110 0.961 . S
H1125 C1111 0.958 . S
H1126 C1111 0.961 . S
H1127 C1111 0.960 . S
C1128 C1129 1.391 . S
C1128 C1130 1.394 . S
C1128 H1144 0.931 . S
C1129 C1128 1.391 . S
C1129 C1133 1.376 . S
C1130 C1128 1.394 . S
C1130 C1131 1.369 . S
C1130 C1134 1.531 . S
C1131 C1130 1.369 . S
C1131 C1132 1.410 . S
C1131 C1139 1.503 . S
C1132 C1131 1.410 . S
C1132 C1133 1.392 . S
C1132 C1135 1.511 . S
C1133 C1129 1.376 . S
C1133 C1132 1.392 . S
C1133 H1145 0.929 . S
C1134 C1130 1.531 . S
C1134 H1146 0.960 . S
C1134 H1147 0.962 . S
C1134 H1148 0.960 . S
C1135 C1132 1.511 . S
C1135 H1149 0.961 . S
C1135 H1150 0.961 . S
C1135 H1151 0.961 . S
C1136 C1137 1.370 . S
C1136 C1138 1.363 . S
C1136 H1152 0.931 . S
C1137 C1136 1.370 . S
C1137 C1141 1.408 . S
C1138 C1136 1.363 . S
C1138 C1139 1.370 . S
C1138 C1142 1.524 . S
C1139 C1131 1.503 . S
C1139 C1138 1.370 . S
C1139 C1140 1.403 . S
C1140 C1139 1.403 . S
C1140 C1141 1.404 . S
C1140 C1143 1.539 . S
C1141 C1137 1.408 . S
C1141 C1140 1.404 . S
C1141 H1153 0.930 . S
C1142 C1138 1.524 . S
C1142 H1154 0.956 . S
C1142 H1155 0.961 . S
C1142 H1156 0.961 . S
C1143 C1140 1.539 . S
C1143 H1157 0.958 . S
C1143 H1158 0.961 . S
C1143 H1159 0.960 . S
H1144 C1128 0.931 . S
H1145 C1133 0.929 . S
H1146 C1134 0.960 . S
H1147 C1134 0.962 . S
H1148 C1134 0.960 . S
H1149 C1135 0.961 . S
H1150 C1135 0.961 . S
H1151 C1135 0.961 . S
H1152 C1136 0.931 . S
H1153 C1141 0.930 . S
H1154 C1142 0.956 . S
H1155 C1142 0.961 . S
H1156 C1142 0.961 . S
H1157 C1143 0.958 . S
H1158 C1143 0.961 . S
H1159 C1143 0.960 . S
C1160 C1161 1.391 . S
C1160 C1162 1.394 . S
C1160 H1176 0.931 . S
C1161 C1160 1.391 . S
C1161 C1165 1.376 . S
C1162 C1160 1.394 . S
C1162 C1163 1.369 . S
C1162 C1166 1.531 . S
C1163 C1162 1.369 . S
C1163 C1164 1.410 . S
C1163 C1171 1.503 . S
C1164 C1163 1.410 . S
C1164 C1165 1.392 . S
C1164 C1167 1.511 . S
C1165 C1161 1.376 . S
C1165 C1164 1.392 . S
C1165 H1177 0.929 . S
C1166 C1162 1.531 . S
C1166 H1178 0.960 . S
C1166 H1179 0.962 . S
C1166 H1180 0.960 . S
C1167 C1164 1.511 . S
C1167 H1181 0.961 . S
C1167 H1182 0.961 . S
C1167 H1183 0.961 . S
C1168 C1169 1.370 . S
C1168 C1170 1.363 . S
C1168 H1184 0.931 . S
C1169 C1168 1.370 . S
C1169 C1173 1.408 . S
C1170 C1168 1.363 . S
C1170 C1171 1.370 . S
C1170 C1174 1.524 . S
C1171 C1163 1.503 . S
C1171 C1170 1.370 . S
C1171 C1172 1.403 . S
C1172 C1171 1.403 . S
C1172 C1173 1.404 . S
C1172 C1175 1.539 . S
C1173 C1169 1.408 . S
C1173 C1172 1.404 . S
C1173 H1185 0.930 . S
C1174 C1170 1.524 . S
C1174 H1186 0.956 . S
C1174 H1187 0.961 . S
C1174 H1188 0.961 . S
C1175 C1172 1.539 . S
C1175 H1189 0.958 . S
C1175 H1190 0.961 . S
C1175 H1191 0.960 . S
H1176 C1160 0.931 . S
H1177 C1165 0.929 . S
H1178 C1166 0.960 . S
H1179 C1166 0.962 . S
H1180 C1166 0.960 . S
H1181 C1167 0.961 . S
H1182 C1167 0.961 . S
H1183 C1167 0.961 . S
H1184 C1168 0.931 . S
H1185 C1173 0.930 . S
H1186 C1174 0.956 . S
H1187 C1174 0.961 . S
H1188 C1174 0.961 . S
H1189 C1175 0.958 . S
H1190 C1175 0.961 . S
H1191 C1175 0.960 . S
C1192 C1193 1.391 . S
C1192 C1194 1.394 . S
C1192 H1208 0.931 . S
C1193 C1192 1.391 . S
C1193 C1197 1.376 . S
C1194 C1192 1.394 . S
C1194 C1195 1.369 . S
C1194 C1198 1.531 . S
C1195 C1194 1.369 . S
C1195 C1196 1.410 . S
C1195 C1203 1.503 . S
C1196 C1195 1.410 . S
C1196 C1197 1.392 . S
C1196 C1199 1.511 . S
C1197 C1193 1.376 . S
C1197 C1196 1.392 . S
C1197 H1209 0.929 . S
C1198 C1194 1.531 . S
C1198 H1210 0.960 . S
C1198 H1211 0.962 . S
C1198 H1212 0.960 . S
C1199 C1196 1.511 . S
C1199 H1213 0.961 . S
C1199 H1214 0.961 . S
C1199 H1215 0.961 . S
C1200 C1201 1.370 . S
C1200 C1202 1.363 . S
C1200 H1216 0.931 . S
C1201 C1200 1.370 . S
C1201 C1205 1.408 . S
C1202 C1200 1.363 . S
C1202 C1203 1.370 . S
C1202 C1206 1.524 . S
C1203 C1195 1.503 . S
C1203 C1202 1.370 . S
C1203 C1204 1.403 . S
C1204 C1203 1.403 . S
C1204 C1205 1.404 . S
C1204 C1207 1.539 . S
C1205 C1201 1.408 . S
C1205 C1204 1.404 . S
C1205 H1217 0.930 . S
C1206 C1202 1.524 . S
C1206 H1218 0.956 . S
C1206 H1219 0.961 . S
C1206 H1220 0.961 . S
C1207 C1204 1.539 . S
C1207 H1221 0.958 . S
C1207 H1222 0.961 . S
C1207 H1223 0.960 . S
H1208 C1192 0.931 . S
H1209 C1197 0.929 . S
H1210 C1198 0.960 . S
H1211 C1198 0.962 . S
H1212 C1198 0.960 . S
H1213 C1199 0.961 . S
H1214 C1199 0.961 . S
H1215 C1199 0.961 . S
H1216 C1200 0.931 . S
H1217 C1205 0.930 . S
H1218 C1206 0.956 . S
H1219 C1206 0.961 . S
H1220 C1206 0.961 . S
H1221 C1207 0.958 . S
H1222 C1207 0.961 . S
H1223 C1207 0.960 . S
C361 C18 1.403 . S
C369 C8 1.417 . S
C393 C58 1.396 . S
C401 C48 1.416 . S
C425 C98 1.434 . S
C433 C88 1.402 . S
C457 C128 1.383 . S
C465 C138 1.421 1_556 S
C489 C168 1.386 . S
C497 C178 1.421 1_556 S
C521 C208 1.420 . S
C529 C218 1.409 1_556 S
C553 C249 1.297 . S
C561 C259 1.291 . S
C585 C289 1.317 . S
C593 C299 1.282 . S
C617 C329 1.265 . S
C625 C339 1.303 . S
C649 C219 2.472 . S
C657 C15 2.454 . S
C681 C55 2.459 . S
C689 C139 2.483 . S
C713 C95 2.428 1_565 S
C721 C179 2.492 . S
C745 C99 2.157 . S
C753 C258 2.296 . S
C777 C298 2.289 . S
C785 C19 2.158 . S
C809 C338 2.283 . S
C817 C59 2.175 . S
C841 C335 0.991 . S
C849 C5 0.995 . S
C873 C45 1.025 . S
C881 C255 1.005 . S
C905 C295 0.998 . S
C913 C85 0.992 . S
C937 C89 2.480 . S
C945 C125 2.446 . S
C969 C165 2.449 . S
C977 C9 2.492 . S
C1001 C49 2.478 . S
C1009 C205 2.447 . S
C1033 C325 1.022 . S
C1041 C135 0.996 . S
C1065 C245 0.985 . S
C1073 C175 1.009 . S
C1097 C285 0.989 . S
C1105 C215 1.012 . S
C1129 C248 2.298 . S
C1137 C209 2.180 . S
C1161 C129 2.193 . S
C1169 C288 2.301 . S
C1193 C328 2.292 . S
C1201 C169 2.180 . S
