# Generated by pormake.
# Topology xfx, (5)-cn, num edge types: 1
# Building blocks:
#     Node 0, Type 0, BuildingBlock: BEQFEK_clean_sbu_0, # of connection points: 5
#     Node 1, Type 0, BuildingBlock: BEQFEK_clean_sbu_0, # of connection points: 5
#     Node 2, Type 0, BuildingBlock: BEQFEK_clean_sbu_0, # of connection points: 5
#     Node 3, Type 0, BuildingBlock: BEQFEK_clean_sbu_0, # of connection points: 5
#     Node 4, Type 0, BuildingBlock: BEQFEK_clean_sbu_0, # of connection points: 5
#     Node 5, Type 0, BuildingBlock: BEQFEK_clean_sbu_0, # of connection points: 5
#     Node 6, Type 0, BuildingBlock: BEQFEK_clean_sbu_0, # of connection points: 5
#     Node 7, Type 0, BuildingBlock: BEQFEK_clean_sbu_0, # of connection points: 5
#     Edge 8, Type (0, 0), BuildingBlock: XUDNAN_clean_linker_2, # of connection points: 2
#     Edge 9, Type (0, 0), BuildingBlock: XUDNAN_clean_linker_2, # of connection points: 2
#     Edge 10, Type (0, 0), BuildingBlock: XUDNAN_clean_linker_2, # of connection points: 2
#     Edge 11, Type (0, 0), BuildingBlock: XUDNAN_clean_linker_2, # of connection points: 2
#     Edge 12, Type (0, 0), BuildingBlock: XUDNAN_clean_linker_2, # of connection points: 2
#     Edge 13, Type (0, 0), BuildingBlock: XUDNAN_clean_linker_2, # of connection points: 2
#     Edge 14, Type (0, 0), BuildingBlock: XUDNAN_clean_linker_2, # of connection points: 2
#     Edge 15, Type (0, 0), BuildingBlock: XUDNAN_clean_linker_2, # of connection points: 2
#     Edge 16, Type (0, 0), BuildingBlock: XUDNAN_clean_linker_2, # of connection points: 2
#     Edge 17, Type (0, 0), BuildingBlock: XUDNAN_clean_linker_2, # of connection points: 2
#     Edge 18, Type (0, 0), BuildingBlock: XUDNAN_clean_linker_2, # of connection points: 2
#     Edge 19, Type (0, 0), BuildingBlock: XUDNAN_clean_linker_2, # of connection points: 2
#     Edge 20, Type (0, 0), BuildingBlock: XUDNAN_clean_linker_2, # of connection points: 2
#     Edge 21, Type (0, 0), BuildingBlock: XUDNAN_clean_linker_2, # of connection points: 2
#     Edge 22, Type (0, 0), BuildingBlock: XUDNAN_clean_linker_2, # of connection points: 2
#     Edge 23, Type (0, 0), BuildingBlock: XUDNAN_clean_linker_2, # of connection points: 2
#     Edge 24, Type (0, 0), BuildingBlock: XUDNAN_clean_linker_2, # of connection points: 2
#     Edge 25, Type (0, 0), BuildingBlock: XUDNAN_clean_linker_2, # of connection points: 2
#     Edge 26, Type (0, 0), BuildingBlock: XUDNAN_clean_linker_2, # of connection points: 2
#     Edge 27, Type (0, 0), BuildingBlock: XUDNAN_clean_linker_2, # of connection points: 2
# Relax obj value: 0.375
# Max RMSD: 0.212
# Mean RMSD: 0.212
data_MOF--net-xfx--node1-BEQFEK_clean_sbu_0--edge1-XUDNAN_clean_linker_2
_symmetry_space_group_name_H-M    P1
_symmetry_Int_Tables_number       1
_symmetry_cell_setting            triclinic
loop_
_symmetry_equiv_pos_as_xyz
'x, y, z'
_cell_length_a     39.110088
_cell_length_b     39.17816
_cell_length_c     33.036202
_cell_angle_alpha  90.024847
_cell_angle_beta   89.937349
_cell_angle_gamma 77.269856
loop_
_atom_site_label
_atom_site_type_symbol
_atom_site_fract_x
_atom_site_fract_y
_atom_site_fract_z
_atom_type_partial_charge
Co0 Co 0.35613 0.04409 0.40943 0.0
Co1 Co 0.34622 0.97605 0.45364 0.0
C2 C 0.36557 0.97572 0.36566 0.0
O3 O 0.36596 0.00803 0.36639 0.0
O4 O 0.35796 0.9602 0.39706 0.0
C5 C 0.33364 0.09535 0.35115 0.0
O6 O 0.31244 0.07444 0.34324 0.0
C7 C 0.31496 0.91543 0.46331 0.0
C8 C 0.30844 0.91194 0.52937 0.0
C9 C 0.29947 0.89874 0.49292 0.0
N10 N 0.3311 0.93844 0.48114 0.0
N11 N 0.32799 0.93548 0.52078 0.0
C12 C 0.31404 0.90997 0.4185 0.0
H13 H 0.34128 0.90331 0.40685 0.0
H14 H 0.29994 0.93449 0.40374 0.0
H15 H 0.30155 0.88814 0.4103 0.0
C16 C 0.28604 0.07224 0.44442 0.0
N17 N 0.31356 0.04555 0.43695 0.0
N18 N 0.30822 0.0169 0.45417 0.0
C19 C 0.27615 0.02433 0.47173 0.0
C20 C 0.2611 0.05967 0.46623 0.0
C21 C 0.28567 0.10985 0.43569 0.0
H22 H 0.31267 0.11431 0.43626 0.0
H23 H 0.27416 0.11676 0.40532 0.0
H24 H 0.26961 0.12739 0.45828 0.0
O25 O 0.39514 0.0352 0.44763 0.0
O26 O 0.39031 0.98633 0.47935 0.0
H27 H 0.27244 0.99119 0.5221 0.0
H28 H 0.23114 0.0083 0.49726 0.0
C29 C 0.25963 0.99805 0.49239 0.0
H30 H 0.26313 0.97414 0.47362 0.0
H31 H 0.33708 0.95122 0.54188 0.0
O32 O 0.35483 0.08815 0.38064 0.0
C33 C 0.40632 0.01116 0.47335 0.0
Co34 Co 0.99743 0.69 0.58498 0.0
Co35 Co 0.06395 0.69809 0.537 0.0
C36 C 0.06926 0.67864 0.62354 0.0
O37 O 0.03687 0.6781 0.62399 0.0
O38 O 0.08376 0.68743 0.59194 0.0
C39 C 0.95077 0.7128 0.64875 0.0
O40 O 0.97307 0.7329 0.65507 0.0
C41 C 0.12259 0.72954 0.51507 0.0
C42 C 0.12676 0.72041 0.44911 0.0
C43 C 0.1401 0.73682 0.48071 0.0
N44 N 0.09982 0.70999 0.5042 0.0
N45 N 0.10301 0.70395 0.46487 0.0
C46 C 0.12377 0.74495 0.55641 0.0
H47 H 0.09839 0.7469 0.57225 0.0
H48 H 0.12981 0.77129 0.55468 0.0
H49 H 0.14464 0.7277 0.57431 0.0
C50 C 0.96912 0.76015 0.55069 0.0
N51 N 0.99576 0.73245 0.55743 0.0
N52 N 0.02377 0.73668 0.5377 0.0
C53 C 0.01596 0.76797 0.51861 0.0
C54 C 0.98102 0.78389 0.5262 0.0
C55 C 0.93191 0.76152 0.56282 0.0
H56 H 0.92681 0.73481 0.56346 0.0
H57 H 0.92727 0.77314 0.59351 0.0
H58 H 0.91321 0.77777 0.54154 0.0
O59 O 1.00161 0.65182 0.54578 0.0
O60 O 0.05163 0.6541 0.5146 0.0
H61 H 0.04949 0.76562 0.46698 0.0
H62 H 0.03045 0.8097 0.48385 0.0
C63 C 0.04149 0.7825 0.49382 0.0
H64 H 0.06504 0.78276 0.51217 0.0
H65 H 0.08761 0.69021 0.44847 0.0
O66 O 0.95519 0.6925 0.61827 0.0
C67 C 0.02562 0.63978 0.52024 0.0
Co68 Co 0.68907 0.9958 0.40387 0.0
Co69 Co 0.70387 0.05926 0.45325 0.0
C70 C 0.67757 0.06767 0.36782 0.0
O71 O 0.67594 0.03571 0.36641 0.0
O72 O 0.68875 0.08048 0.39923 0.0
C73 C 0.70519 0.95261 0.3373 0.0
O74 O 0.72422 0.9757 0.32994 0.0
C75 C 0.74317 0.113 0.46566 0.0
C76 C 0.74282 0.1207 0.53183 0.0
C77 C 0.75715 0.13007 0.49619 0.0
N78 N 0.72241 0.09369 0.48237 0.0
N79 N 0.72176 0.09888 0.52195 0.0
C80 C 0.74877 0.11517 0.42095 0.0
H81 H 0.72342 0.12752 0.40675 0.0
H82 H 0.75746 0.08844 0.40819 0.0
H83 H 0.76766 0.13137 0.41297 0.0
C84 C 0.76212 0.96468 0.42677 0.0
N85 N 0.73395 0.99158 0.42641 0.0
N86 N 0.74084 0.0178 0.44748 0.0
C87 C 0.77414 0.00821 0.46152 0.0
C88 C 0.78864 0.97446 0.44833 0.0
C89 C 0.7629 0.92896 0.41007 0.0
H90 H 0.7369 0.92242 0.41353 0.0
H91 H 0.76994 0.92837 0.37752 0.0
H92 H 0.78281 0.90877 0.42582 0.0
O93 O 0.65416 1.00068 0.44707 0.0
O94 O 0.66103 0.04799 0.4811 0.0
H95 H 0.77518 0.04125 0.51286 0.0
H96 H 0.81778 0.01606 0.4979 0.0
C97 C 0.792 0.03077 0.48671 0.0
H98 H 0.79627 0.053 0.46816 0.0
H99 H 0.70832 0.08629 0.54237 0.0
O100 O 0.68749 0.9551 0.36986 0.0
C101 C 0.64516 0.02306 0.4752 0.0
Co102 Co 0.05039 0.35108 0.59301 0.0
Co103 Co 0.98749 0.3379 0.54191 0.0
C104 C 0.9774 0.36196 0.62737 0.0
O105 O 0.00952 0.36324 0.62939 0.0
O106 O 0.96474 0.35119 0.59557 0.0
C107 C 0.0934 0.33408 0.66042 0.0
O108 O 0.07009 0.31537 0.66809 0.0
C109 C 0.93246 0.30169 0.5203 0.0
C110 C 0.92954 0.30765 0.45386 0.0
C111 C 0.91651 0.29179 0.48615 0.0
N112 N 0.95395 0.32237 0.50876 0.0
N113 N 0.95154 0.32645 0.46908 0.0
C114 C 0.93083 0.28816 0.56248 0.0
H115 H 0.95579 0.28768 0.57863 0.0
H116 H 0.92543 0.26151 0.56229 0.0
H117 H 0.90931 0.30585 0.57909 0.0
C118 C 0.08147 0.27851 0.56775 0.0
N119 N 0.05481 0.3069 0.56841 0.0
N120 N 0.02864 0.30071 0.54666 0.0
C121 C 0.03806 0.26779 0.53159 0.0
C122 C 0.07162 0.2527 0.54498 0.0
C123 C 0.11683 0.27671 0.58605 0.0
H124 H 0.12409 0.30242 0.58359 0.0
H125 H 0.11616 0.26948 0.61844 0.0
H126 H 0.13719 0.2566 0.57076 0.0
O127 O 0.0458 0.3881 0.55224 0.0
O128 O 0.99904 0.38141 0.51747 0.0
H129 H 0.0055 0.26834 0.47947 0.0
H130 H 0.03016 0.22531 0.49333 0.0
C131 C 0.01551 0.25087 0.5052 0.0
H132 H 0.99286 0.24645 0.52298 0.0
H133 H 0.96633 0.3405 0.45219 0.0
O134 O 0.09087 0.35172 0.62788 0.0
C135 C 0.02314 0.39803 0.5246 0.0
Co136 Co 0.8511 0.55144 0.9103 0.0
Co137 Co 0.83912 0.48411 0.95489 0.0
C138 C 0.86193 0.48198 0.86809 0.0
O139 O 0.86309 0.51415 0.86846 0.0
O140 O 0.85259 0.46729 0.8992 0.0
C141 C 0.83758 0.60054 0.84723 0.0
O142 O 0.82198 0.57694 0.83209 0.0
C143 C 0.8077 0.42345 0.96473 0.0
C144 C 0.79766 0.4226 0.03036 0.0
C145 C 0.79065 0.40791 0.99397 0.0
N146 N 0.8228 0.44727 0.98259 0.0
N147 N 0.81759 0.44586 0.02207 0.0
C148 C 0.80916 0.41623 0.92018 0.0
H149 H 0.83692 0.40995 0.91029 0.0
H150 H 0.79516 0.43989 0.90372 0.0
H151 H 0.79774 0.3936 0.91225 0.0
C152 C 0.77911 0.57988 0.93934 0.0
N153 N 0.8072 0.55322 0.93476 0.0
N154 N 0.80121 0.52504 0.95249 0.0
C155 C 0.7682 0.53271 0.96751 0.0
C156 C 0.75317 0.56779 0.95996 0.0
C157 C 0.77886 0.61702 0.92829 0.0
H158 H 0.80523 0.6224 0.93294 0.0
H159 H 0.77174 0.62124 0.8959 0.0
H160 H 0.75974 0.63577 0.94682 0.0
O161 O 0.88762 0.54384 0.9517 0.0
O162 O 0.8824 0.49457 0.98247 0.0
H163 H 0.76133 0.50074 0.01792 0.0
H164 H 0.72184 0.51665 0.9891 0.0
C165 C 0.75062 0.50668 0.98703 0.0
H166 H 0.75569 0.48229 0.969 0.0
H167 H 0.82548 0.46249 0.04305 0.0
O168 O 0.85153 0.59559 0.88204 0.0
C169 C 0.8978 0.51999 0.97787 0.0
Co170 Co 0.49161 0.19434 0.08731 0.0
Co171 Co 0.55584 0.20484 0.03688 0.0
C172 C 0.56419 0.18125 0.12281 0.0
O173 O 0.53191 0.18041 0.12443 0.0
O174 O 0.57745 0.19152 0.09108 0.0
C175 C 0.44788 0.20658 0.15582 0.0
O176 O 0.47419 0.21869 0.17024 0.0
C177 C 0.6121 0.23963 0.01533 0.0
C178 C 0.61765 0.23002 0.94954 0.0
C179 C 0.62969 0.24739 0.98125 0.0
N180 N 0.59061 0.21881 0.00421 0.0
N181 N 0.59452 0.21263 0.96497 0.0
C182 C 0.61246 0.25499 0.0568 0.0
H183 H 0.58772 0.25456 0.07306 0.0
H184 H 0.61607 0.28226 0.05511 0.0
H185 H 0.63465 0.23917 0.07417 0.0
C186 C 0.46413 0.26789 0.0646 0.0
N187 N 0.4895 0.23848 0.06395 0.0
N188 N 0.51577 0.24341 0.04143 0.0
C189 C 0.50754 0.27651 0.02675 0.0
C190 C 0.4748 0.29309 0.04153 0.0
C191 C 0.42931 0.27125 0.08496 0.0
H192 H 0.41891 0.24762 0.07891 0.0
H193 H 0.43265 0.27365 0.11809 0.0
H194 H 0.40998 0.29459 0.07416 0.0
O195 O 0.49433 0.15869 0.04511 0.0
O196 O 0.54294 0.16209 0.01174 0.0
H197 H 0.54137 0.2735 0.9752 0.0
H198 H 0.51587 0.31701 0.98582 0.0
C199 C 0.5305 0.29224 -0.00046 0.0
H200 H 0.55253 0.29802 0.01736 0.0
H201 H 0.5802 0.19788 0.94842 0.0
O202 O 0.44941 0.19498 0.11983 0.0
C203 C 0.51697 0.1478 0.01772 0.0
Co204 Co 0.18944 0.49907 0.91479 0.0
Co205 Co 0.19738 0.56735 0.95943 0.0
C206 C 0.17902 0.56758 0.87124 0.0
O207 O 0.17927 0.53509 0.87172 0.0
O208 O 0.18593 0.58332 0.90283 0.0
C209 C 0.20721 0.44807 0.85399 0.0
O210 O 0.22301 0.4715 0.83879 0.0
C211 C 0.22551 0.62981 0.96981 0.0
C212 C 0.22261 0.63915 0.03573 0.0
C213 C 0.23328 0.65164 -0.0003 0.0
N214 N 0.21056 0.60563 0.98706 0.0
N215 N 0.20869 0.61147 0.02653 0.0
C216 C 0.23576 0.62956 0.92613 0.0
H217 H 0.24339 0.60226 0.91484 0.0
H218 H 0.25793 0.6426 0.9215 0.0
H219 H 0.21298 0.64379 0.9084 0.0
C220 C 0.2601 0.4728 0.9487 0.0
N221 N 0.2317 0.4987 0.94229 0.0
N222 N 0.23597 0.52741 0.96027 0.0
C223 C 0.268 0.52087 0.97775 0.0
C224 C 0.28441 0.48598 0.97098 0.0
C225 C 0.26206 0.43531 0.93766 0.0
H226 H 0.2359 0.42907 0.94083 0.0
H227 H 0.2707 0.43099 0.90571 0.0
H228 H 0.28077 0.41721 0.95725 0.0
O229 O 0.14992 0.50737 0.95252 0.0
O230 O 0.15335 0.55645 0.9845 0.0
H231 H 0.26848 0.55492 0.02821 0.0
H232 H 0.31124 0.53826 0.00599 0.0
C233 C 0.28294 0.54779 -0.00055 0.0
H234 H 0.27972 0.5716 0.98054 0.0
H235 H 0.19872 0.59608 0.04727 0.0
O236 O 0.19144 0.45407 0.88771 0.0
C237 C 0.13789 0.53131 0.97809 0.0
Co238 Co 0.54296 0.85798 0.07404 0.0
Co239 Co 0.47678 0.84637 0.02758 0.0
C240 C 0.47291 0.86712 0.11493 0.0
O241 O 0.50503 0.86861 0.11476 0.0
O242 O 0.45841 0.85781 0.08357 0.0
C243 C 0.59046 0.84421 0.13843 0.0
O244 O 0.56594 0.82962 0.15321 0.0
C245 C 0.41561 0.81645 0.01055 0.0
C246 C 0.41209 0.81956 0.94388 0.0
C247 C 0.39691 0.80799 0.97768 0.0
N248 N 0.44101 0.83167 -0.00331 0.0
N249 N 0.43861 0.83364 0.95682 0.0
C250 C 0.40809 0.81287 0.05462 0.0
H251 H 0.40171 0.8393 0.06844 0.0
H252 H 0.43183 0.79752 0.06985 0.0
H253 H 0.38553 0.8007 0.06009 0.0
C254 C 0.57145 0.78583 0.04639 0.0
N255 N 0.54544 0.81468 0.0483 0.0
N256 N 0.51791 0.80908 0.0287 0.0
C257 C 0.52565 0.77598 0.01407 0.0
C258 C 0.55979 0.76031 0.02499 0.0
C259 C 0.60719 0.78273 0.0642 0.0
H260 H 0.61649 0.80706 0.05858 0.0
H261 H 0.60584 0.77871 0.09733 0.0
H262 H 0.62632 0.76024 0.05108 0.0
O263 O 0.53529 0.89627 0.03487 0.0
O264 O 0.48667 0.89082 0.00319 0.0
H265 H 0.49207 0.77408 0.96359 0.0
H266 H 0.51255 0.73159 0.98376 0.0
C267 C 0.50051 0.75916 0.99169 0.0
H268 H 0.47696 0.75991 0.01068 0.0
H269 H 0.45539 0.84416 0.93841 0.0
O270 O 0.58658 0.85783 0.10341 0.0
C271 C 0.51117 0.90719 0.00918 0.0
H272 H 0.58437 0.0723 0.47692 0.0
H273 H 0.63258 0.96803 0.5179 0.0
H274 H 0.57431 0.95767 0.53566 0.0
H275 H 0.50469 0.08895 0.54851 0.0
H276 H 0.47686 0.11057 0.50848 0.0
H277 H 0.52219 0.11354 0.51064 0.0
H278 H 0.53109 0.08989 0.43727 0.0
H279 H 0.48617 0.0864 0.43502 0.0
H280 H 0.52066 0.04846 0.4252 0.0
H281 H 0.51104 0.95404 0.535 0.0
H282 H 0.44931 0.9575 0.51545 0.0
H283 H 0.44211 0.06365 0.47306 0.0
C284 C 0.58264 0.0482 0.49203 0.0
C285 C 0.61289 0.02141 0.49751 0.0
C286 C 0.60969 0.98922 0.51477 0.0
C287 C 0.57667 0.9831 0.5248 0.0
C288 C 0.547 0.00938 0.51709 0.0
C289 C 0.54972 0.0415 0.50144 0.0
C290 C 0.51405 0.06301 0.48942 0.0
C291 C 0.50385 0.09597 0.51585 0.0
C292 C 0.51296 0.07245 0.44406 0.0
C293 C 0.4912 0.03736 0.49873 0.0
C294 C 0.51044 0.00688 0.51555 0.0
C295 C 0.49553 0.97813 0.52276 0.0
C296 C 0.46039 0.9803 0.51157 0.0
C297 C 0.44069 0.01084 0.49281 0.0
C298 C 0.45622 0.03999 0.48767 0.0
H299 H 0.0762 0.58001 0.52215 0.0
H300 H 0.97114 0.62344 0.47932 0.0
H301 H 0.9639 0.56407 0.46177 0.0
H302 H 0.09781 0.50055 0.45194 0.0
H303 H 0.11971 0.47355 0.49246 0.0
H304 H 0.12041 0.5194 0.49064 0.0
H305 H 0.0948 0.52732 0.56328 0.0
H306 H 0.09378 0.48178 0.56522 0.0
H307 H 0.05419 0.5145 0.57403 0.0
H308 H 0.964 0.50022 0.46062 0.0
H309 H 0.96993 0.43826 0.47979 0.0
H310 H 0.07395 0.4361 0.52676 0.0
C311 C 0.05248 0.577 0.50701 0.0
C312 C 0.02463 0.60617 0.50075 0.0
C313 C 0.99305 0.60135 0.48326 0.0
C314 C 0.98876 0.56774 0.47321 0.0
C315 C 0.01619 0.53917 0.48129 0.0
C316 C 0.04752 0.54348 0.49777 0.0
C317 C 0.07037 0.50863 0.51026 0.0
C318 C 0.10407 0.50003 0.48479 0.0
C319 C 0.07874 0.50804 0.55588 0.0
C320 C 0.04637 0.4843 0.50006 0.0
C321 C 0.01566 0.50221 0.48233 0.0
C322 C 0.98824 0.48578 0.47372 0.0
C323 C 0.99186 0.4505 0.48468 0.0
C324 C 0.02242 0.43219 0.50472 0.0
C325 C 0.05038 0.44918 0.51112 0.0
H326 H 0.95893 0.47088 0.97646 0.0
H327 H 0.911 0.57358 0.02271 0.0
H328 H 0.96941 0.58337 0.0407 0.0
H329 H 0.03869 0.45167 0.04727 0.0
H330 H 0.06647 0.43141 0.00641 0.0
H331 H 0.0211 0.42852 0.00805 0.0
H332 H 0.01223 0.4548 0.93589 0.0
H333 H 0.05722 0.4582 0.93419 0.0
H334 H 0.02283 0.49655 0.92603 0.0
H335 H 0.03277 0.58688 0.04057 0.0
H336 H 0.09468 0.58373 0.02191 0.0
H337 H 0.10155 0.47924 0.97411 0.0
C338 C 0.96076 0.49446 0.99264 0.0
C339 C 0.93053 0.52099 -0.00041 0.0
C340 C 0.93388 0.55256 0.01835 0.0
C341 C 0.96698 0.55836 0.02853 0.0
C342 C 0.99659 0.5324 0.01949 0.0
C343 C 0.99377 0.50086 0.00229 0.0
C344 C 0.02941 0.47971 0.98949 0.0
C345 C 0.03951 0.44582 0.0143 0.0
C346 C 0.03046 0.47189 0.94371 0.0
C347 C 0.05237 0.50491 0.00027 0.0
C348 C 0.03319 0.53484 0.01837 0.0
C349 C 0.04823 0.56319 0.02729 0.0
C350 C 0.08348 0.5612 0.01659 0.0
C351 C 0.10319 0.53123 -0.00333 0.0
C352 C 0.08747 0.50244 0.98968 0.0
H353 H 0.56282 0.94414 0.00817 0.0
H354 H 0.45532 0.95016 0.971 0.0
H355 H 0.44905 0.01294 0.95554 0.0
H356 H 0.54784 0.01872 0.06118 0.0
H357 H 0.58766 0.03215 0.04809 0.0
H358 H 0.58648 0.98664 0.04674 0.0
H359 H 0.60662 0.98282 0.97183 0.0
H360 H 0.60808 0.0285 0.97298 0.0
H361 H 0.58226 0.0126 0.93515 0.0
H362 H 0.45019 0.07648 0.95981 0.0
H363 H 0.4596 0.13446 0.9801 0.0
H364 H 0.56701 0.08759 0.01169 0.0
C365 C 0.53833 0.9583 0.99531 0.0
C366 C 0.50957 0.9421 0.9907 0.0
C367 C 0.47785 0.96178 0.97438 0.0
C368 C 0.47406 0.99753 0.96555 0.0
C369 C 0.50242 0.01308 0.97246 0.0
C370 C 0.5342 0.99387 0.98629 0.0
C371 C 0.55924 0.01731 0.99601 0.0
C372 C 0.57095 0.01348 0.04063 0.0
C373 C 0.59093 0.00986 0.96726 0.0
C374 C 0.53595 0.05297 0.98781 0.0
C375 C 0.50342 0.04995 0.97365 0.0
C376 C 0.47591 0.07917 0.96943 0.0
C377 C 0.48145 0.11201 0.98098 0.0
C378 C 0.51433 0.11549 0.99616 0.0
C379 C 0.54217 0.08576 -0.00161 0.0
H380 H 0.09952 0.22323 0.47382 0.0
H381 H 0.09314 0.20339 0.6022 0.0
H382 H 0.1363 0.14722 0.59436 0.0
H383 H 0.11453 0.12967 0.43918 0.0
H384 H 0.14518 0.13625 0.40075 0.0
H385 H 0.10961 0.17182 0.41526 0.0
H386 H 0.15419 0.21012 0.43097 0.0
H387 H 0.18985 0.17466 0.41692 0.0
H388 H 0.18924 0.19439 0.46628 0.0
H389 H 0.18556 0.09791 0.57453 0.0
H390 H 0.23726 0.0586 0.54395 0.0
H391 H 0.21153 0.10929 0.4279 0.0
C392 C 0.10636 0.2063 0.49983 0.0
C393 C 0.09267 0.21694 0.53845 0.0
C394 C 0.10306 0.1951 0.57231 0.0
C395 C 0.1275 0.16326 0.56811 0.0
C396 C 0.14128 0.15372 0.5298 0.0
C397 C 0.13096 0.17446 0.49615 0.0
C398 C 0.15239 0.15989 0.45927 0.0
C399 C 0.12903 0.14874 0.42669 0.0
C400 C 0.1726 0.18634 0.44239 0.0
C401 C 0.17701 0.12843 0.47772 0.0
C402 C 0.16991 0.12511 0.51833 0.0
C403 C 0.19087 0.09971 0.54254 0.0
C404 C 0.22008 0.07738 0.5249 0.0
C405 C 0.22804 0.08059 0.48348 0.0
C406 C 0.20584 0.1061 0.45958 0.0
H407 H 0.29051 0.83987 0.53365 0.0
H408 H 0.24448 0.91403 0.44072 0.0
H409 H 0.20038 0.87954 0.42662 0.0
H410 H 0.27764 0.762 0.48513 0.0
H411 H 0.26539 0.74217 0.53056 0.0
H412 H 0.29405 0.77231 0.53356 0.0
H413 H 0.25171 0.81058 0.58445 0.0
H414 H 0.22302 0.78042 0.58179 0.0
H415 H 0.20629 0.82613 0.57097 0.0
H416 H 0.16369 0.83586 0.41931 0.0
H417 H 0.13108 0.78885 0.42528 0.0
H418 H 0.19689 0.74455 0.52625 0.0
C419 C 0.2711 0.8487 0.51039 0.0
C420 C 0.27192 0.87866 0.4869 0.0
C421 C 0.24548 0.89014 0.45758 0.0
C422 C 0.22008 0.87093 0.44961 0.0
C423 C 0.22077 0.84078 0.47204 0.0
C424 C 0.24505 0.83 0.5024 0.0
C425 C 0.23891 0.79713 0.52276 0.0
C426 C 0.27091 0.7666 0.51769 0.0
C427 C 0.22942 0.80399 0.56766 0.0
C428 C 0.20779 0.791 0.49865 0.0
C429 C 0.19804 0.81641 0.46934 0.0
C430 C 0.1708 0.81597 0.44237 0.0
C431 C 0.15262 0.78908 0.44579 0.0
C432 C 0.16143 0.76334 0.4763 0.0
C433 C 0.18948 0.76421 0.50293 0.0
H434 H 0.82025 0.94865 0.51934 0.0
H435 H 0.83572 0.94994 0.3896 0.0
H436 H 0.89104 0.90543 0.39641 0.0
H437 H 0.91556 0.93182 0.54853 0.0
H438 H 0.90947 0.90315 0.58928 0.0
H439 H 0.87423 0.93907 0.57496 0.0
H440 H 0.83357 0.89574 0.56484 0.0
H441 H 0.8687 0.8597 0.5786 0.0
H442 H 0.84677 0.85927 0.53072 0.0
H443 H 0.93895 0.85504 0.41569 0.0
H444 H 0.97811 0.80366 0.4467 0.0
H445 H 0.93382 0.83583 0.56466 0.0
C446 C 0.83613 0.94044 0.49272 0.0
C447 C 0.82439 0.95301 0.45403 0.0
C448 C 0.84483 0.94085 0.4195 0.0
C449 C 0.87618 0.91562 0.4231 0.0
C450 C 0.88671 0.9029 0.46152 0.0
C451 C 0.86754 0.9151 0.49584 0.0
C452 C 0.88304 0.89472 0.53299 0.0
C453 C 0.89638 0.91862 0.56323 0.0
C454 C 0.85643 0.87627 0.55294 0.0
C455 C 0.91317 0.86856 0.51399 0.0
C456 C 0.91494 0.8739 0.47277 0.0
C457 C 0.93853 0.85118 0.44811 0.0
C458 C 0.96083 0.82218 0.466 0.0
C459 C 0.9596 0.81629 0.50817 0.0
C460 C 0.93566 0.84004 0.53241 0.0
H461 H 0.76255 0.1919 0.53262 0.0
H462 H 0.81791 0.10937 0.45385 0.0
H463 H 0.86404 0.14217 0.44259 0.0
H464 H 0.78123 0.26415 0.47884 0.0
H465 H 0.78839 0.28861 0.52307 0.0
H466 H 0.75959 0.25859 0.52581 0.0
H467 H 0.79593 0.22601 0.58524 0.0
H468 H 0.8247 0.25612 0.58288 0.0
H469 H 0.84248 0.2097 0.57909 0.0
H470 H 0.9013 0.18558 0.43501 0.0
H471 H 0.93224 0.23412 0.43878 0.0
H472 H 0.85643 0.28691 0.52679 0.0
C473 C 0.78453 0.18078 0.51323 0.0
C474 C 0.78597 0.14886 0.49267 0.0
C475 C 0.8155 0.13458 0.46834 0.0
C476 C 0.84199 0.15285 0.46205 0.0
C477 C 0.83913 0.18495 0.48127 0.0
C478 C 0.81163 0.19854 0.50707 0.0
C479 C 0.81548 0.23338 0.52443 0.0
C480 C 0.78432 0.26292 0.5123 0.0
C481 C 0.81992 0.23115 0.57066 0.0
C482 C 0.84902 0.23741 0.50373 0.0
C483 C 0.862 0.20924 0.47873 0.0
C484 C 0.89171 0.20759 0.45487 0.0
C485 C 0.90894 0.23531 0.45696 0.0
C486 C 0.8967 0.26395 0.48314 0.0
C487 C 0.86639 0.26503 0.50684 0.0
H488 H 0.59053 0.73039 0.95557 0.0
H489 H 0.57572 0.71037 0.08247 0.0
H490 H 0.61904 0.65406 0.07732 0.0
H491 H 0.60817 0.63609 0.92033 0.0
H492 H 0.64112 0.64305 0.885 0.0
H493 H 0.60431 0.67828 0.89679 0.0
H494 H 0.64713 0.71722 0.91714 0.0
H495 H 0.684 0.68207 0.90604 0.0
H496 H 0.67971 0.70203 0.95548 0.0
H497 H 0.67043 0.60586 0.06157 0.0
H498 H 0.72465 0.56747 0.03549 0.0
H499 H 0.70554 0.61676 0.91774 0.0
C500 C 0.5954 0.71326 0.98164 0.0
C501 C 0.57936 0.72393 0.01916 0.0
C502 C 0.5873 0.70195 0.05333 0.0
C503 C 0.61189 0.67007 0.05066 0.0
C504 C 0.62823 0.66061 0.01355 0.0
C505 C 0.62006 0.68133 0.97945 0.0
C506 C 0.64404 0.66692 0.94443 0.0
C507 C 0.62316 0.65539 0.90958 0.0
C508 C 0.66495 0.69365 0.92995 0.0
C509 C 0.6677 0.63571 0.96457 0.0
C510 C 0.65794 0.63237 0.00433 0.0
C511 C 0.67775 0.60756 0.03016 0.0
C512 C 0.70844 0.58574 0.01504 0.0
C513 C 0.71898 0.58874 0.97444 0.0
C514 C 0.69795 0.61371 0.94883 0.0
H515 H 0.77872 0.35144 0.03722 0.0
H516 H 0.73891 0.42063 0.93732 0.0
H517 H 0.69489 0.38617 0.92278 0.0
H518 H 0.76695 0.27138 0.99266 0.0
H519 H 0.75201 0.25439 0.03851 0.0
H520 H 0.78115 0.28408 0.04121 0.0
H521 H 0.73685 0.32555 0.08731 0.0
H522 H 0.70762 0.29591 0.08486 0.0
H523 H 0.69232 0.34105 0.07039 0.0
H524 H 0.65746 0.34305 0.91628 0.0
H525 H 0.62382 0.29695 0.92303 0.0
H526 H 0.684 0.25728 0.02986 0.0
C527 C 0.76072 0.35917 0.01229 0.0
C528 C 0.76332 0.38767 0.98715 0.0
C529 C 0.73865 0.39776 0.9556 0.0
C530 C 0.71326 0.3786 0.94736 0.0
C531 C 0.71216 0.3499 0.97165 0.0
C532 C 0.73472 0.34049 0.00394 0.0
C533 C 0.7269 0.30902 0.02589 0.0
C534 C 0.75864 0.27788 0.02446 0.0
C535 C 0.71523 0.31846 0.06971 0.0
C536 C 0.69681 0.3021 0.0005 0.0
C537 C 0.68899 0.32593 0.96923 0.0
C538 C 0.66306 0.32442 0.94086 0.0
C539 C 0.64426 0.29805 0.94478 0.0
C540 C 0.65114 0.27388 0.97712 0.0
C541 C 0.67787 0.27584 0.00523 0.0
H542 H 0.44695 0.32426 0.9713 0.0
H543 H 0.45603 0.34219 0.09974 0.0
H544 H 0.41338 0.39883 0.09379 0.0
H545 H 0.43216 0.41912 0.93879 0.0
H546 H 0.40091 0.41318 0.90083 0.0
H547 H 0.43679 0.37742 0.91382 0.0
H548 H 0.39255 0.3387 0.92941 0.0
H549 H 0.3566 0.37435 0.91698 0.0
H550 H 0.35811 0.35362 0.96583 0.0
H551 H 0.36285 0.44752 0.07642 0.0
H552 H 0.30967 0.48611 0.04819 0.0
H553 H 0.3347 0.43898 0.93006 0.0
C554 C 0.44097 0.34095 -0.00233 0.0
C555 C 0.4551 0.3295 0.03582 0.0
C556 C 0.44578 0.35106 0.07019 0.0
C557 C 0.42162 0.38317 0.06707 0.0
C558 C 0.40718 0.39339 0.02926 0.0
C559 C 0.4168 0.37316 0.99501 0.0
C560 C 0.39474 0.38839 0.95892 0.0
C561 C 0.41751 0.40024 0.92615 0.0
C562 C 0.3743 0.36221 0.94181 0.0
C563 C 0.37037 0.41944 0.97858 0.0
C564 C 0.37819 0.42206 0.01908 0.0
C565 C 0.3571 0.44642 0.04447 0.0
C566 C 0.32703 0.46837 0.02816 0.0
C567 C 0.31842 0.46593 0.98684 0.0
C568 C 0.34087 0.44163 0.96169 0.0
H569 H 0.29205 0.66167 0.03842 0.0
H570 H 0.21508 0.70652 0.94795 0.0
H571 H 0.24748 0.75287 0.93417 0.0
H572 H 0.3102 0.74386 0.07628 0.0
H573 H 0.35646 0.72577 0.08203 0.0
H574 H 0.32565 0.69796 0.08719 0.0
H575 H 0.3588 0.65671 0.03175 0.0
H576 H 0.38965 0.68441 0.02637 0.0
H577 H 0.36586 0.6744 0.98285 0.0
H578 H 0.28963 0.79261 0.92809 0.0
H579 H 0.33861 0.82322 0.93039 0.0
H580 H 0.39 0.75025 0.02172 0.0
C581 C 0.28177 0.68172 0.01633 0.0
C582 C 0.25105 0.68089 0.99438 0.0
C583 C 0.23861 0.70693 0.96503 0.0
C584 C 0.25679 0.7333 0.95707 0.0
C585 C 0.28746 0.73307 0.9786 0.0
C586 C 0.29991 0.70796 0.0076 0.0
C587 C 0.33461 0.71244 0.02467 0.0
C588 C 0.33153 0.72049 0.07025 0.0
C589 C 0.36396 0.68007 0.01587 0.0
C590 C 0.33971 0.74391 0.00071 0.0
C591 C 0.3121 0.75557 0.97452 0.0
C592 C 0.31124 0.78393 0.94877 0.0
C593 C 0.33917 0.80106 0.95017 0.0
C594 C 0.36748 0.78983 0.97715 0.0
C595 C 0.36795 0.76046 0.00213 0.0
H596 H 0.38001 0.13803 0.35449 0.0
H597 H 0.29479 0.11524 0.28291 0.0
H598 H 0.30795 0.15354 0.22867 0.0
H599 H 0.37379 0.23127 0.31476 0.0
H600 H 0.42088 0.22468 0.31554 0.0
H601 H 0.39882 0.20372 0.35291 0.0
H602 H 0.43745 0.14354 0.33263 0.0
H603 H 0.45928 0.16408 0.29512 0.0
H604 H 0.43807 0.12951 0.28058 0.0
H605 H 0.3386 0.18126 0.17704 0.0
H606 H 0.38314 0.19817 0.13306 0.0
H607 H 0.44798 0.20422 0.23805 0.0
C608 C 0.36322 0.14222 0.3281 0.0
C609 C 0.33645 0.12367 0.32284 0.0
C610 C 0.31542 0.12928 0.2876 0.0
C611 C 0.32258 0.15115 0.25669 0.0
C612 C 0.35047 0.16757 0.26183 0.0
C613 C 0.37012 0.16385 0.29699 0.0
C614 C 0.4018 0.17985 0.29275 0.0
C615 C 0.39861 0.21179 0.32065 0.0
C616 C 0.43613 0.15261 0.3007 0.0
C617 C 0.39837 0.19073 0.24878 0.0
C618 C 0.36814 0.18422 0.23173 0.0
C619 C 0.36176 0.18754 0.19026 0.0
C620 C 0.38729 0.1969 0.16549 0.0
C621 C 0.41876 0.20271 0.18234 0.0
C622 C 0.42373 0.20076 0.22458 0.0
H623 H 0.06117 0.62804 0.67682 0.0
H624 H 0.126 0.70209 0.65123 0.0
H625 H 0.16169 0.68181 0.71219 0.0
H626 H 0.06134 0.63344 0.78487 0.0
H627 H 0.06437 0.58729 0.79223 0.0
H628 H 0.04355 0.6086 0.74756 0.0
H629 H 0.08582 0.56398 0.70252 0.0
H630 H 0.10684 0.54257 0.74706 0.0
H631 H 0.13249 0.5584 0.70896 0.0
H632 H 0.18822 0.65499 0.77823 0.0
H633 H 0.20678 0.62032 0.84026 0.0
H634 H 0.12768 0.56051 0.81838 0.0
C635 C 0.08273 0.64015 0.68425 0.0
C636 C 0.09064 0.66694 0.6598 0.0
C637 C 0.11951 0.68164 0.66982 0.0
C638 C 0.13982 0.67031 0.70433 0.0
C639 C 0.13132 0.64378 0.72786 0.0
C640 C 0.10376 0.62855 0.71786 0.0
C641 C 0.1009 0.5995 0.747 0.0
C642 C 0.06544 0.60772 0.76923 0.0
C643 C 0.10688 0.56402 0.72507 0.0
C644 C 0.13083 0.60105 0.7754 0.0
C645 C 0.14785 0.627 0.76417 0.0
C646 C 0.1753 0.63439 0.78704 0.0
C647 C 0.18556 0.61473 0.82227 0.0
C648 C 0.16879 0.5877 0.83378 0.0
C649 C 0.1413 0.58068 0.80982 0.0
H650 H 0.66112 0.90748 0.33872 0.0
H651 H 0.74051 0.9399 0.26551 0.0
H652 H 0.72717 0.90394 0.20899 0.0
H653 H 0.67108 0.81636 0.29251 0.0
H654 H 0.62441 0.81986 0.29547 0.0
H655 H 0.64621 0.84061 0.33326 0.0
H656 H 0.60366 0.89998 0.31829 0.0
H657 H 0.58198 0.87961 0.28047 0.0
H658 H 0.60001 0.91668 0.26724 0.0
H659 H 0.69683 0.87648 0.15688 0.0
H660 H 0.65254 0.85834 0.11366 0.0
H661 H 0.59357 0.84239 0.22057 0.0
C662 C 0.67661 0.90595 0.31132 0.0
C663 C 0.70181 0.92643 0.30644 0.0
C664 C 0.72108 0.92435 0.2699 0.0
C665 C 0.71385 0.90381 0.2377 0.0
C666 C 0.68765 0.88519 0.24279 0.0
C667 C 0.66962 0.88567 0.27891 0.0
C668 C 0.63937 0.8676 0.27486 0.0
C669 C 0.64566 0.83411 0.30055 0.0
C670 C 0.60421 0.89246 0.28583 0.0
C671 C 0.6417 0.85908 0.23018 0.0
C672 C 0.6702 0.8687 0.21238 0.0
C673 C 0.67506 0.86782 0.17056 0.0
C674 C 0.64969 0.85772 0.14626 0.0
C675 C 0.6199 0.84875 0.16394 0.0
C676 C 0.61657 0.84828 0.2064 0.0
H677 H 0.98473 0.41352 0.67954 0.0
H678 H 0.9178 0.3417 0.65258 0.0
H679 H 0.88018 0.36484 0.71139 0.0
H680 H 0.98055 0.41036 0.78718 0.0
H681 H 0.97919 0.45631 0.79378 0.0
H682 H 1.00079 0.4335 0.75028 0.0
H683 H 0.96159 0.47851 0.70294 0.0
H684 H 0.93982 0.50145 0.7463 0.0
H685 H 0.91457 0.4861 0.70744 0.0
H686 H 0.85209 0.39411 0.7759 0.0
H687 H 0.83283 0.43035 0.83666 0.0
H688 H 0.91574 0.48593 0.81705 0.0
C689 C 0.96224 0.40251 0.68611 0.0
C690 C 0.95433 0.37552 0.66192 0.0
C691 C 0.92431 0.3623 0.67091 0.0
C692 C 0.9029 0.37525 0.70422 0.0
C693 C 0.91156 0.40185 0.72756 0.0
C694 C 0.94026 0.41564 0.71848 0.0
C695 C 0.94339 0.44486 0.74729 0.0
C696 C 0.97803 0.43569 0.77104 0.0
C697 C 0.93961 0.47979 0.72463 0.0
C698 C 0.91223 0.44512 0.7745 0.0
C699 C 0.89436 0.41991 0.76296 0.0
C700 C 0.86567 0.41416 0.78489 0.0
C701 C 0.85503 0.4347 0.81943 0.0
C702 C 0.87269 0.46099 0.83126 0.0
C703 C 0.90144 0.46637 0.80825 0.0
H704 H 0.62328 0.06393 0.3179 0.0
H705 H 0.70435 0.12176 0.33778 0.0
H706 H 0.68483 0.15725 0.27654 0.0
H707 H 0.627 0.06113 0.21014 0.0
H708 H 0.58027 0.06726 0.20383 0.0
H709 H 0.60101 0.04647 0.24881 0.0
H710 H 0.55951 0.09228 0.29332 0.0
H711 H 0.53854 0.11311 0.24847 0.0
H712 H 0.55697 0.13823 0.28488 0.0
H713 H 0.65802 0.18388 0.20993 0.0
H714 H 0.62231 0.20362 0.14878 0.0
H715 H 0.55645 0.13102 0.17674 0.0
C716 C 0.63691 0.08409 0.30935 0.0
C717 C 0.66539 0.0901 0.33241 0.0
C718 C 0.68231 0.11696 0.32065 0.0
C719 C 0.67154 0.13706 0.2858 0.0
C720 C 0.64343 0.13031 0.26355 0.0
C721 C 0.62602 0.10481 0.27532 0.0
C722 C 0.5959 0.10332 0.24716 0.0
C723 C 0.60139 0.06742 0.22625 0.0
C724 C 0.56065 0.11228 0.26981 0.0
C725 C 0.59919 0.13175 0.2174 0.0
C726 C 0.62701 0.14676 0.22691 0.0
C727 C 0.63594 0.17257 0.20252 0.0
C728 C 0.61566 0.18352 0.16781 0.0
C729 C 0.58647 0.1691 0.15837 0.0
C730 C 0.57831 0.1429 0.18357 0.0
H731 H 0.14056 0.376 0.65705 0.0
H732 H 0.10539 0.3002 0.73313 0.0
H733 H 0.14278 0.31304 0.78852 0.0
H734 H 0.23262 0.36339 0.70168 0.0
H735 H 0.23092 0.4096 0.69745 0.0
H736 H 0.20874 0.38816 0.66072 0.0
H737 H 0.1506 0.43285 0.67563 0.0
H738 H 0.17242 0.45422 0.71232 0.0
H739 H 0.1344 0.43816 0.7269 0.0
H740 H 0.17214 0.34299 0.8392 0.0
H741 H 0.19195 0.38727 0.88082 0.0
H742 H 0.20964 0.44275 0.77199 0.0
C743 C 0.14172 0.36117 0.68486 0.0
C744 C 0.12011 0.33714 0.69084 0.0
C745 C 0.1218 0.31871 0.72787 0.0
C746 C 0.14315 0.32566 0.75944 0.0
C747 C 0.16298 0.3507 0.75323 0.0
C748 C 0.16283 0.36787 0.71663 0.0
C749 C 0.18232 0.39713 0.71944 0.0
C750 C 0.21564 0.38907 0.69327 0.0
C751 C 0.1585 0.43265 0.70793 0.0
C752 C 0.19127 0.39536 0.76402 0.0
C753 C 0.18064 0.36788 0.7828 0.0
C754 C 0.1816 0.36392 0.82474 0.0
C755 C 0.19269 0.38926 0.84814 0.0
C756 C 0.20258 0.41811 0.82946 0.0
C757 C 0.20313 0.42039 0.7869 0.0
H758 H 0.41783 0.98176 0.31346 0.0
H759 H 0.33681 0.92393 0.33379 0.0
H760 H 0.35486 0.88973 0.27123 0.0
H761 H 0.41302 0.98597 0.20497 0.0
H762 H 0.45976 0.97946 0.19827 0.0
H763 H 0.43939 1.00004 0.24362 0.0
H764 H 0.48092 0.95358 0.28716 0.0
H765 H 0.50135 0.93282 0.24193 0.0
H766 H 0.48282 0.90778 0.27836 0.0
H767 H 0.38091 0.86344 0.20453 0.0
H768 H 0.41582 0.84392 0.14275 0.0
H769 H 0.48239 0.91603 0.16986 0.0
C770 C 0.40375 0.96206 0.30452 0.0
C771 C 0.37579 0.95555 0.32814 0.0
C772 C 0.35838 0.92915 0.31607 0.0
C773 C 0.36836 0.90975 0.28055 0.0
C774 C 0.39621 0.9167 0.25795 0.0
C775 C 0.41393 0.94193 0.26978 0.0
C776 C 0.44395 0.9433 0.24132 0.0
C777 C 0.4387 0.97933 0.22083 0.0
C778 C 0.47935 0.9338 0.26352 0.0
C779 C 0.44016 0.91517 0.21133 0.0
C780 C 0.41226 0.90035 0.22109 0.0
C781 C 0.40299 0.87467 0.19681 0.0
C782 C 0.42283 0.86383 0.16174 0.0
C783 C 0.4519 0.87827 0.15176 0.0
C784 C 0.46061 0.90415 0.17707 0.0
H785 H 0.90443 0.66988 0.64734 0.0
H786 H 0.93842 0.74812 0.72068 0.0
H787 H 0.90239 0.73499 0.77739 0.0
H788 H 0.81328 0.68124 0.69349 0.0
H789 H 0.81583 0.63482 0.69033 0.0
H790 H 0.83727 0.65615 0.65273 0.0
H791 H 0.89606 0.6126 0.66777 0.0
H792 H 0.87501 0.59139 0.70545 0.0
H793 H 0.91266 0.60849 0.71886 0.0
H794 H 0.87419 0.70482 0.82965 0.0
H795 H 0.85404 0.66141 0.87245 0.0
H796 H 0.83685 0.60385 0.76502 0.0
C797 C 0.9033 0.68516 0.67482 0.0
C798 C 0.92422 0.70999 0.67962 0.0
C799 C 0.9225 0.72904 0.71627 0.0
C800 C 0.90198 0.72186 0.74863 0.0
C801 C 0.88295 0.69599 0.74358 0.0
C802 C 0.88297 0.6783 0.70733 0.0
C803 C 0.86412 0.64862 0.71121 0.0
C804 C 0.83063 0.65565 0.68541 0.0
C805 C 0.88842 0.61322 0.7002 0.0
C806 C 0.85547 0.65095 0.75588 0.0
C807 C 0.86594 0.67884 0.7739 0.0
C808 C 0.8649 0.68354 0.81576 0.0
C809 C 0.85362 0.65869 0.83983 0.0
C810 C 0.84359 0.62958 0.82191 0.0
C811 C 0.84348 0.62638 0.77941 0.0
loop_
_geom_bond_atom_site_label_1
_geom_bond_atom_site_label_2
_geom_bond_distance
_geom_bond_site_symmetry_2
_ccdc_geom_bond_type
Co0 O3 1.970 . S
Co0 N17 1.989 . S
Co0 O25 1.967 . S
Co0 O32 1.920 . S
Co1 O4 1.966 . S
Co1 N10 2.022 . S
Co1 N18 1.993 1_565 S
Co1 O26 1.941 . S
C2 O3 1.258 1_565 S
C2 O4 1.263 . S
O3 Co0 1.970 . S
O3 C2 1.258 1_545 S
O4 Co1 1.966 . S
O4 C2 1.263 . S
C5 O6 1.235 . S
C5 O32 1.289 . S
O6 C5 1.235 . S
C7 C9 1.400 . S
C7 N10 1.351 . S
C7 C12 1.501 . S
C8 C9 1.387 . S
C8 N11 1.341 . S
C9 C7 1.400 . S
C9 C8 1.387 . S
N10 Co1 2.022 . S
N10 C7 1.351 . S
N10 N11 1.365 . S
N11 C8 1.341 . S
N11 N10 1.365 . S
N11 H31 0.862 . S
C12 C7 1.501 . S
C12 H13 0.961 . S
C12 H14 0.961 . S
C12 H15 0.960 . S
H13 C12 0.961 . S
H14 C12 0.961 . S
H15 C12 0.960 . S
C16 N17 1.342 . S
C16 C20 1.401 . S
C16 C21 1.499 . S
N17 Co0 1.989 . S
N17 C16 1.342 . S
N17 N18 1.388 . S
N18 Co1 1.993 1_545 S
N18 N17 1.388 . S
N18 C19 1.346 . S
C19 N18 1.346 . S
C19 C20 1.396 . S
C19 C29 1.510 . S
C20 C16 1.401 . S
C20 C19 1.396 . S
C21 C16 1.499 . S
C21 H22 0.959 . S
C21 H23 0.960 . S
C21 H24 0.961 . S
H22 C21 0.959 . S
H23 C21 0.960 . S
H24 C21 0.961 . S
O25 Co0 1.967 . S
O25 C33 1.258 . S
O26 Co1 1.941 . S
O26 C33 1.266 1_565 S
H27 C29 0.959 . S
H28 C29 0.961 . S
C29 C19 1.510 . S
C29 H27 0.959 . S
C29 H28 0.961 . S
C29 H30 0.960 . S
H30 C29 0.960 . S
H31 N11 0.862 . S
O32 Co0 1.920 . S
O32 C5 1.289 . S
C33 O25 1.258 . S
C33 O26 1.266 1_545 S
Co34 O37 1.970 1_655 S
Co34 N51 1.989 . S
Co34 O59 1.967 1_655 S
Co34 O66 1.920 . S
Co35 O38 1.966 . S
Co35 N44 2.022 . S
Co35 N52 1.993 . S
Co35 O60 1.941 . S
C36 O37 1.258 . S
C36 O38 1.263 . S
O37 Co34 1.970 1_455 S
O37 C36 1.258 . S
O38 Co35 1.966 . S
O38 C36 1.263 . S
C39 O40 1.235 . S
C39 O66 1.289 . S
O40 C39 1.235 . S
C41 C43 1.400 . S
C41 N44 1.351 . S
C41 C46 1.501 . S
C42 C43 1.387 . S
C42 N45 1.341 . S
C43 C41 1.400 . S
C43 C42 1.387 . S
N44 Co35 2.022 . S
N44 C41 1.351 . S
N44 N45 1.365 . S
N45 C42 1.341 . S
N45 N44 1.365 . S
N45 H65 0.862 . S
C46 C41 1.501 . S
C46 H47 0.961 . S
C46 H48 0.961 . S
C46 H49 0.960 . S
H47 C46 0.961 . S
H48 C46 0.961 . S
H49 C46 0.960 . S
C50 N51 1.342 . S
C50 C54 1.401 . S
C50 C55 1.499 . S
N51 Co34 1.989 . S
N51 C50 1.342 . S
N51 N52 1.388 1_655 S
N52 Co35 1.993 . S
N52 N51 1.388 1_455 S
N52 C53 1.346 1_455 S
C53 N52 1.346 1_655 S
C53 C54 1.396 . S
C53 C63 1.510 1_655 S
C54 C50 1.401 . S
C54 C53 1.396 . S
C55 C50 1.499 . S
C55 H56 0.959 . S
C55 H57 0.960 . S
C55 H58 0.961 . S
H56 C55 0.959 . S
H57 C55 0.960 . S
H58 C55 0.961 . S
O59 Co34 1.967 1_455 S
O59 C67 1.258 . S
O60 Co35 1.941 . S
O60 C67 1.266 . S
H61 C63 0.959 . S
H62 C63 0.961 . S
C63 C53 1.510 1_455 S
C63 H61 0.959 . S
C63 H62 0.961 . S
C63 H64 0.960 . S
H64 C63 0.960 . S
H65 N45 0.862 . S
O66 Co34 1.920 . S
O66 C39 1.289 . S
C67 O59 1.258 . S
C67 O60 1.266 . S
Co68 O71 1.970 1_565 S
Co68 N85 1.989 . S
Co68 O93 1.967 1_565 S
Co68 O100 1.920 . S
Co69 O72 1.966 . S
Co69 N78 2.022 . S
Co69 N86 1.993 . S
Co69 O94 1.941 . S
C70 O71 1.258 . S
C70 O72 1.263 . S
O71 Co68 1.970 1_545 S
O71 C70 1.258 . S
O72 Co69 1.966 . S
O72 C70 1.263 . S
C73 O74 1.235 . S
C73 O100 1.289 . S
O74 C73 1.235 . S
C75 C77 1.400 . S
C75 N78 1.351 . S
C75 C80 1.501 . S
C76 C77 1.387 . S
C76 N79 1.341 . S
C77 C75 1.400 . S
C77 C76 1.387 . S
N78 Co69 2.022 . S
N78 C75 1.351 . S
N78 N79 1.365 . S
N79 C76 1.341 . S
N79 N78 1.365 . S
N79 H99 0.862 . S
C80 C75 1.501 . S
C80 H81 0.961 . S
C80 H82 0.961 . S
C80 H83 0.960 . S
H81 C80 0.961 . S
H82 C80 0.961 . S
H83 C80 0.960 . S
C84 N85 1.342 . S
C84 C88 1.401 . S
C84 C89 1.499 . S
N85 Co68 1.989 . S
N85 C84 1.342 . S
N85 N86 1.388 1_565 S
N86 Co69 1.993 . S
N86 N85 1.388 1_545 S
N86 C87 1.346 1_545 S
C87 N86 1.346 1_565 S
C87 C88 1.396 . S
C87 C97 1.510 1_565 S
C88 C84 1.401 . S
C88 C87 1.396 . S
C89 C84 1.499 . S
C89 H90 0.959 . S
C89 H91 0.960 . S
C89 H92 0.961 . S
H90 C89 0.959 . S
H91 C89 0.960 . S
H92 C89 0.961 . S
O93 Co68 1.967 1_545 S
O93 C101 1.258 . S
O94 Co69 1.941 . S
O94 C101 1.266 . S
H95 C97 0.959 . S
H96 C97 0.961 . S
C97 C87 1.510 1_545 S
C97 H95 0.959 . S
C97 H96 0.961 . S
C97 H98 0.960 . S
H98 C97 0.960 . S
H99 N79 0.862 . S
O100 Co68 1.920 . S
O100 C73 1.289 . S
C101 O93 1.258 . S
C101 O94 1.266 . S
Co102 O105 1.970 . S
Co102 N119 1.989 . S
Co102 O127 1.967 . S
Co102 O134 1.920 . S
Co103 O106 1.966 . S
Co103 N112 2.022 . S
Co103 N120 1.993 1_655 S
Co103 O128 1.941 . S
C104 O105 1.258 1_655 S
C104 O106 1.263 . S
O105 Co102 1.970 . S
O105 C104 1.258 1_455 S
O106 Co103 1.966 . S
O106 C104 1.263 . S
C107 O108 1.235 . S
C107 O134 1.289 . S
O108 C107 1.235 . S
C109 C111 1.400 . S
C109 N112 1.351 . S
C109 C114 1.501 . S
C110 C111 1.387 . S
C110 N113 1.341 . S
C111 C109 1.400 . S
C111 C110 1.387 . S
N112 Co103 2.022 . S
N112 C109 1.351 . S
N112 N113 1.365 . S
N113 C110 1.341 . S
N113 N112 1.365 . S
N113 H133 0.862 . S
C114 C109 1.501 . S
C114 H115 0.961 . S
C114 H116 0.961 . S
C114 H117 0.960 . S
H115 C114 0.961 . S
H116 C114 0.961 . S
H117 C114 0.960 . S
C118 N119 1.342 . S
C118 C122 1.401 . S
C118 C123 1.499 . S
N119 Co102 1.989 . S
N119 C118 1.342 . S
N119 N120 1.388 . S
N120 Co103 1.993 1_455 S
N120 N119 1.388 . S
N120 C121 1.346 . S
C121 N120 1.346 . S
C121 C122 1.396 . S
C121 C131 1.510 . S
C122 C118 1.401 . S
C122 C121 1.396 . S
C123 C118 1.499 . S
C123 H124 0.959 . S
C123 H125 0.960 . S
C123 H126 0.961 . S
H124 C123 0.959 . S
H125 C123 0.960 . S
H126 C123 0.961 . S
O127 Co102 1.967 . S
O127 C135 1.258 . S
O128 Co103 1.941 . S
O128 C135 1.266 1_655 S
H129 C131 0.959 . S
H130 C131 0.961 . S
C131 C121 1.510 . S
C131 H129 0.959 . S
C131 H130 0.961 . S
C131 H132 0.960 . S
H132 C131 0.960 . S
H133 N113 0.862 . S
O134 Co102 1.920 . S
O134 C107 1.289 . S
C135 O127 1.258 . S
C135 O128 1.266 1_455 S
Co136 O139 1.970 . S
Co136 N153 1.989 . S
Co136 O161 1.967 . S
Co136 O168 1.920 . S
Co137 O140 1.966 . S
Co137 N146 2.022 . S
Co137 N154 1.993 . S
Co137 O162 1.941 . S
C138 O139 1.258 . S
C138 O140 1.263 . S
O139 Co136 1.970 . S
O139 C138 1.258 . S
O140 Co137 1.966 . S
O140 C138 1.263 . S
C141 O142 1.235 . S
C141 O168 1.289 . S
O142 C141 1.235 . S
C143 C145 1.400 1_556 S
C143 N146 1.351 . S
C143 C148 1.501 . S
C144 C145 1.387 . S
C144 N147 1.341 . S
C145 C143 1.400 1_554 S
C145 C144 1.387 . S
N146 Co137 2.022 . S
N146 C143 1.351 . S
N146 N147 1.365 1_556 S
N147 C144 1.341 . S
N147 N146 1.365 1_554 S
N147 H167 0.862 . S
C148 C143 1.501 . S
C148 H149 0.961 . S
C148 H150 0.961 . S
C148 H151 0.960 . S
H149 C148 0.961 . S
H150 C148 0.961 . S
H151 C148 0.960 . S
C152 N153 1.342 . S
C152 C156 1.401 . S
C152 C157 1.499 . S
N153 Co136 1.989 . S
N153 C152 1.342 . S
N153 N154 1.388 . S
N154 Co137 1.993 . S
N154 N153 1.388 . S
N154 C155 1.346 . S
C155 N154 1.346 . S
C155 C156 1.396 . S
C155 C165 1.510 . S
C156 C152 1.401 . S
C156 C155 1.396 . S
C157 C152 1.499 . S
C157 H158 0.959 . S
C157 H159 0.960 . S
C157 H160 0.961 . S
H158 C157 0.959 . S
H159 C157 0.960 . S
H160 C157 0.961 . S
O161 Co136 1.967 . S
O161 C169 1.258 . S
O162 Co137 1.941 . S
O162 C169 1.266 . S
H163 C165 0.959 1_554 S
H164 C165 0.961 . S
C165 C155 1.510 . S
C165 H163 0.959 1_556 S
C165 H164 0.961 . S
C165 H166 0.960 . S
H166 C165 0.960 . S
H167 N147 0.862 . S
O168 Co136 1.920 . S
O168 C141 1.289 . S
C169 O161 1.258 . S
C169 O162 1.266 . S
Co170 O173 1.970 . S
Co170 N187 1.989 . S
Co170 O195 1.967 . S
Co170 O202 1.920 . S
Co171 O174 1.966 . S
Co171 N180 2.022 . S
Co171 N188 1.993 . S
Co171 O196 1.941 . S
C172 O173 1.258 . S
C172 O174 1.263 . S
O173 Co170 1.970 . S
O173 C172 1.258 . S
O174 Co171 1.966 . S
O174 C172 1.263 . S
C175 O176 1.235 . S
C175 O202 1.289 . S
O176 C175 1.235 . S
C177 C179 1.400 1_554 S
C177 N180 1.351 . S
C177 C182 1.501 . S
C178 C179 1.387 . S
C178 N181 1.341 . S
C179 C177 1.400 1_556 S
C179 C178 1.387 . S
N180 Co171 2.022 . S
N180 C177 1.351 . S
N180 N181 1.365 1_554 S
N181 C178 1.341 . S
N181 N180 1.365 1_556 S
N181 H201 0.862 . S
C182 C177 1.501 . S
C182 H183 0.961 . S
C182 H184 0.961 . S
C182 H185 0.960 . S
H183 C182 0.961 . S
H184 C182 0.961 . S
H185 C182 0.960 . S
C186 N187 1.342 . S
C186 C190 1.401 . S
C186 C191 1.499 . S
N187 Co170 1.989 . S
N187 C186 1.342 . S
N187 N188 1.388 . S
N188 Co171 1.993 . S
N188 N187 1.388 . S
N188 C189 1.346 . S
C189 N188 1.346 . S
C189 C190 1.396 . S
C189 C199 1.510 . S
C190 C186 1.401 . S
C190 C189 1.396 . S
C191 C186 1.499 . S
C191 H192 0.959 . S
C191 H193 0.960 . S
C191 H194 0.961 . S
H192 C191 0.959 . S
H193 C191 0.960 . S
H194 C191 0.961 . S
O195 Co170 1.967 . S
O195 C203 1.258 . S
O196 Co171 1.941 . S
O196 C203 1.266 . S
H197 C199 0.959 1_556 S
H198 C199 0.961 . S
C199 C189 1.510 . S
C199 H197 0.959 1_554 S
C199 H198 0.961 . S
C199 H200 0.960 . S
H200 C199 0.960 . S
H201 N181 0.862 . S
O202 Co170 1.920 . S
O202 C175 1.289 . S
C203 O195 1.258 . S
C203 O196 1.266 . S
Co204 O207 1.970 . S
Co204 N221 1.989 . S
Co204 O229 1.967 . S
Co204 O236 1.920 . S
Co205 O208 1.966 . S
Co205 N214 2.022 . S
Co205 N222 1.993 . S
Co205 O230 1.941 . S
C206 O207 1.258 . S
C206 O208 1.263 . S
O207 Co204 1.970 . S
O207 C206 1.258 . S
O208 Co205 1.966 . S
O208 C206 1.263 . S
C209 O210 1.235 . S
C209 O236 1.289 . S
O210 C209 1.235 . S
C211 C213 1.400 1_556 S
C211 N214 1.351 . S
C211 C216 1.501 . S
C212 C213 1.387 . S
C212 N215 1.341 . S
C213 C211 1.400 1_554 S
C213 C212 1.387 . S
N214 Co205 2.022 . S
N214 C211 1.351 . S
N214 N215 1.365 1_556 S
N215 C212 1.341 . S
N215 N214 1.365 1_554 S
N215 H235 0.862 . S
C216 C211 1.501 . S
C216 H217 0.961 . S
C216 H218 0.961 . S
C216 H219 0.960 . S
H217 C216 0.961 . S
H218 C216 0.961 . S
H219 C216 0.960 . S
C220 N221 1.342 . S
C220 C224 1.401 . S
C220 C225 1.499 . S
N221 Co204 1.989 . S
N221 C220 1.342 . S
N221 N222 1.388 . S
N222 Co205 1.993 . S
N222 N221 1.388 . S
N222 C223 1.346 . S
C223 N222 1.346 . S
C223 C224 1.396 . S
C223 C233 1.510 . S
C224 C220 1.401 . S
C224 C223 1.396 . S
C225 C220 1.499 . S
C225 H226 0.959 . S
C225 H227 0.960 . S
C225 H228 0.961 . S
H226 C225 0.959 . S
H227 C225 0.960 . S
H228 C225 0.961 . S
O229 Co204 1.967 . S
O229 C237 1.258 . S
O230 Co205 1.941 . S
O230 C237 1.266 . S
H231 C233 0.959 1_554 S
H232 C233 0.961 . S
C233 C223 1.510 . S
C233 H231 0.959 1_556 S
C233 H232 0.961 . S
C233 H234 0.960 . S
H234 C233 0.960 . S
H235 N215 0.862 . S
O236 Co204 1.920 . S
O236 C209 1.289 . S
C237 O229 1.258 . S
C237 O230 1.266 . S
Co238 O241 1.970 . S
Co238 N255 1.989 . S
Co238 O263 1.967 . S
Co238 O270 1.920 . S
Co239 O242 1.966 . S
Co239 N248 2.022 . S
Co239 N256 1.993 . S
Co239 O264 1.941 . S
C240 O241 1.258 . S
C240 O242 1.263 . S
O241 Co238 1.970 . S
O241 C240 1.258 . S
O242 Co239 1.966 . S
O242 C240 1.263 . S
C243 O244 1.235 . S
C243 O270 1.289 . S
O244 C243 1.235 . S
C245 C247 1.400 1_554 S
C245 N248 1.351 . S
C245 C250 1.501 . S
C246 C247 1.387 . S
C246 N249 1.341 . S
C247 C245 1.400 1_556 S
C247 C246 1.387 . S
N248 Co239 2.022 . S
N248 C245 1.351 . S
N248 N249 1.365 1_554 S
N249 C246 1.341 . S
N249 N248 1.365 1_556 S
N249 H269 0.862 . S
C250 C245 1.501 . S
C250 H251 0.961 . S
C250 H252 0.961 . S
C250 H253 0.960 . S
H251 C250 0.961 . S
H252 C250 0.961 . S
H253 C250 0.960 . S
C254 N255 1.342 . S
C254 C258 1.401 . S
C254 C259 1.499 . S
N255 Co238 1.989 . S
N255 C254 1.342 . S
N255 N256 1.388 . S
N256 Co239 1.993 . S
N256 N255 1.388 . S
N256 C257 1.346 . S
C257 N256 1.346 . S
C257 C258 1.396 . S
C257 C267 1.510 . S
C258 C254 1.401 . S
C258 C257 1.396 . S
C259 C254 1.499 . S
C259 H260 0.959 . S
C259 H261 0.960 . S
C259 H262 0.961 . S
H260 C259 0.959 . S
H261 C259 0.960 . S
H262 C259 0.961 . S
O263 Co238 1.967 . S
O263 C271 1.258 . S
O264 Co239 1.941 . S
O264 C271 1.266 . S
H265 C267 0.959 1_556 S
H266 C267 0.961 . S
C267 C257 1.510 . S
C267 H265 0.959 1_554 S
C267 H266 0.961 . S
C267 H268 0.960 . S
H268 C267 0.960 . S
H269 N249 0.862 . S
O270 Co238 1.920 . S
O270 C243 1.289 . S
C271 O263 1.258 . S
C271 O264 1.266 . S
H272 C284 0.930 . S
H273 C286 0.930 . S
H274 C287 0.930 1_565 S
H275 C291 0.959 . S
H276 C291 0.959 . S
H277 C291 0.961 . S
H278 C292 0.960 . S
H279 C292 0.961 . S
H280 C292 0.959 1_565 S
H281 C295 0.929 . S
H282 C296 0.931 . S
H283 C298 0.930 . S
C284 H272 0.930 . S
C284 C285 1.399 . S
C284 C289 1.399 . S
C285 C284 1.399 . S
C285 C286 1.376 . S
C286 H273 0.930 . S
C286 C285 1.376 . S
C286 C287 1.388 . S
C287 H274 0.930 1_545 S
C287 C286 1.388 . S
C287 C288 1.390 . S
C288 C287 1.390 . S
C288 C289 1.394 . S
C288 C294 1.465 . S
C289 C284 1.399 . S
C289 C288 1.394 . S
C289 C290 1.516 . S
C290 C289 1.516 . S
C290 C291 1.502 . S
C290 C292 1.561 . S
C290 C293 1.526 . S
C291 H275 0.959 . S
C291 H276 0.959 . S
C291 H277 0.961 . S
C291 C290 1.502 . S
C292 H278 0.960 . S
C292 H279 0.961 . S
C292 H280 0.959 1_545 S
C292 C290 1.561 . S
C293 C290 1.526 . S
C293 C294 1.396 . S
C293 C298 1.390 . S
C294 C288 1.465 . S
C294 C293 1.396 . S
C294 C295 1.399 1_545 S
C295 H281 0.929 . S
C295 C294 1.399 1_565 S
C295 C296 1.385 . S
C296 H282 0.931 . S
C296 C295 1.385 . S
C296 C297 1.390 . S
C297 C296 1.390 . S
C297 C298 1.385 1_565 S
C298 H283 0.930 . S
C298 C293 1.390 . S
C298 C297 1.385 1_545 S
H299 C311 0.930 . S
H300 C313 0.930 . S
H301 C314 0.930 1_655 S
H302 C318 0.959 . S
H303 C318 0.959 . S
H304 C318 0.961 . S
H305 C319 0.960 . S
H306 C319 0.961 . S
H307 C319 0.959 1_655 S
H308 C322 0.929 . S
H309 C323 0.931 . S
H310 C325 0.930 . S
C311 H299 0.930 . S
C311 C312 1.399 . S
C311 C316 1.399 . S
C312 C311 1.399 . S
C312 C313 1.376 . S
C313 H300 0.930 . S
C313 C312 1.376 . S
C313 C314 1.388 . S
C314 H301 0.930 1_455 S
C314 C313 1.388 . S
C314 C315 1.390 . S
C315 C314 1.390 . S
C315 C316 1.394 . S
C315 C321 1.465 . S
C316 C311 1.399 . S
C316 C315 1.394 . S
C316 C317 1.516 . S
C317 C316 1.516 . S
C317 C318 1.502 . S
C317 C319 1.561 . S
C317 C320 1.526 . S
C318 H302 0.959 . S
C318 H303 0.959 . S
C318 H304 0.961 . S
C318 C317 1.502 . S
C319 H305 0.960 . S
C319 H306 0.961 . S
C319 H307 0.959 1_455 S
C319 C317 1.561 . S
C320 C317 1.526 . S
C320 C321 1.396 . S
C320 C325 1.390 . S
C321 C315 1.465 . S
C321 C320 1.396 . S
C321 C322 1.399 1_455 S
C322 H308 0.929 . S
C322 C321 1.399 1_655 S
C322 C323 1.385 . S
C323 H309 0.931 . S
C323 C322 1.385 . S
C323 C324 1.389 . S
C324 C323 1.389 . S
C324 C325 1.387 1_655 S
C325 H310 0.930 . S
C325 C320 1.390 . S
C325 C324 1.387 1_455 S
H326 C338 0.930 . S
H327 C340 0.930 . S
H328 C341 0.930 . S
H329 C345 0.959 . S
H330 C345 0.959 . S
H331 C345 0.961 . S
H332 C346 0.960 . S
H333 C346 0.961 . S
H334 C346 0.959 . S
H335 C349 0.929 . S
H336 C350 0.931 . S
H337 C352 0.930 . S
C338 H326 0.930 . S
C338 C339 1.399 . S
C338 C343 1.399 . S
C339 C338 1.399 . S
C339 C340 1.376 1_556 S
C340 H327 0.930 . S
C340 C339 1.376 1_554 S
C340 C341 1.388 . S
C341 H328 0.930 . S
C341 C340 1.388 . S
C341 C342 1.390 1_554 S
C342 C341 1.390 1_556 S
C342 C343 1.394 . S
C342 C348 1.465 1_655 S
C343 C338 1.399 . S
C343 C342 1.394 . S
C343 C344 1.516 1_655 S
C344 C343 1.516 1_455 S
C344 C345 1.502 . S
C344 C346 1.561 . S
C344 C347 1.526 . S
C345 H329 0.959 . S
C345 H330 0.959 . S
C345 H331 0.961 . S
C345 C344 1.502 . S
C346 H332 0.960 . S
C346 H333 0.961 . S
C346 H334 0.959 . S
C346 C344 1.561 . S
C347 C344 1.526 . S
C347 C348 1.396 . S
C347 C352 1.390 . S
C348 C342 1.465 1_455 S
C348 C347 1.396 . S
C348 C349 1.399 1_556 S
C349 H335 0.929 . S
C349 C348 1.399 1_554 S
C349 C350 1.385 . S
C350 H336 0.931 . S
C350 C349 1.385 . S
C350 C351 1.389 1_554 S
C351 C350 1.389 1_556 S
C351 C352 1.387 . S
C352 H337 0.930 . S
C352 C347 1.390 . S
C352 C351 1.387 . S
H353 C365 0.930 . S
H354 C367 0.930 . S
H355 C368 0.930 . S
H356 C372 0.959 1_565 S
H357 C372 0.959 . S
H358 C372 0.961 1_565 S
H359 C373 0.960 . S
H360 C373 0.961 . S
H361 C373 0.959 . S
H362 C376 0.929 . S
H363 C377 0.931 . S
H364 C379 0.930 . S
C365 H353 0.930 . S
C365 C366 1.399 1_556 S
C365 C370 1.397 1_556 S
C366 C365 1.399 1_554 S
C366 C367 1.376 . S
C367 H354 0.930 . S
C367 C366 1.376 . S
C367 C368 1.388 . S
C368 H355 0.930 . S
C368 C367 1.388 . S
C368 C369 1.390 1_565 S
C369 C368 1.390 1_545 S
C369 C370 1.404 1_545 S
C369 C375 1.465 . S
C370 C365 1.397 1_554 S
C370 C369 1.404 1_565 S
C370 C371 1.509 1_564 S
C371 C370 1.509 1_546 S
C371 C372 1.502 . S
C371 C373 1.561 . S
C371 C374 1.512 1_556 S
C372 H356 0.959 1_545 S
C372 H357 0.959 . S
C372 H358 0.961 1_545 S
C372 C371 1.502 . S
C373 H359 0.960 . S
C373 H360 0.961 . S
C373 H361 0.959 . S
C373 C371 1.561 . S
C374 C371 1.512 1_554 S
C374 C375 1.417 . S
C374 C379 1.386 1_554 S
C375 C369 1.465 . S
C375 C374 1.417 . S
C375 C376 1.399 . S
C376 H362 0.929 . S
C376 C375 1.399 . S
C376 C377 1.385 . S
C377 H363 0.931 . S
C377 C376 1.385 . S
C377 C378 1.389 . S
C378 C377 1.389 . S
C378 C379 1.387 1_554 S
C379 H364 0.930 . S
C379 C374 1.386 1_556 S
C379 C378 1.387 1_556 S
H380 C392 0.930 . S
H381 C394 0.930 . S
H382 C395 0.930 . S
H383 C399 0.959 . S
H384 C399 0.959 . S
H385 C399 0.961 . S
H386 C400 0.960 . S
H387 C400 0.961 . S
H388 C400 0.959 . S
H389 C403 0.929 . S
H390 C404 0.931 . S
H391 C406 0.930 . S
C392 H380 0.930 . S
C392 C393 1.399 . S
C392 C397 1.399 . S
C393 C392 1.399 . S
C393 C394 1.376 . S
C394 H381 0.930 . S
C394 C393 1.376 . S
C394 C395 1.388 . S
C395 H382 0.930 . S
C395 C394 1.388 . S
C395 C396 1.390 . S
C396 C395 1.390 . S
C396 C397 1.394 . S
C396 C402 1.465 . S
C397 C392 1.399 . S
C397 C396 1.394 . S
C397 C398 1.516 . S
C398 C397 1.516 . S
C398 C399 1.502 . S
C398 C400 1.561 . S
C398 C401 1.526 . S
C399 H383 0.959 . S
C399 H384 0.959 . S
C399 H385 0.961 . S
C399 C398 1.502 . S
C400 H386 0.960 . S
C400 H387 0.961 . S
C400 H388 0.959 . S
C400 C398 1.561 . S
C401 C398 1.526 . S
C401 C402 1.396 . S
C401 C406 1.390 . S
C402 C396 1.465 . S
C402 C401 1.396 . S
C402 C403 1.399 . S
C403 H389 0.929 . S
C403 C402 1.399 . S
C403 C404 1.385 . S
C404 H390 0.931 . S
C404 C403 1.385 . S
C404 C405 1.389 . S
C405 C404 1.389 . S
C405 C406 1.387 . S
C406 H391 0.930 . S
C406 C401 1.390 . S
C406 C405 1.387 . S
H407 C419 0.930 . S
H408 C421 0.930 . S
H409 C422 0.930 . S
H410 C426 0.959 . S
H411 C426 0.959 . S
H412 C426 0.961 . S
H413 C427 0.960 . S
H414 C427 0.961 . S
H415 C427 0.959 . S
H416 C430 0.929 . S
H417 C431 0.931 . S
H418 C433 0.930 . S
C419 H407 0.930 . S
C419 C420 1.399 . S
C419 C424 1.399 . S
C420 C419 1.399 . S
C420 C421 1.376 . S
C421 H408 0.930 . S
C421 C420 1.376 . S
C421 C422 1.388 . S
C422 H409 0.930 . S
C422 C421 1.388 . S
C422 C423 1.390 . S
C423 C422 1.390 . S
C423 C424 1.394 . S
C423 C429 1.465 . S
C424 C419 1.399 . S
C424 C423 1.394 . S
C424 C425 1.516 . S
C425 C424 1.516 . S
C425 C426 1.502 . S
C425 C427 1.561 . S
C425 C428 1.526 . S
C426 H410 0.959 . S
C426 H411 0.959 . S
C426 H412 0.961 . S
C426 C425 1.502 . S
C427 H413 0.960 . S
C427 H414 0.961 . S
C427 H415 0.959 . S
C427 C425 1.561 . S
C428 C425 1.526 . S
C428 C429 1.396 . S
C428 C433 1.390 . S
C429 C423 1.465 . S
C429 C428 1.396 . S
C429 C430 1.399 . S
C430 H416 0.929 . S
C430 C429 1.399 . S
C430 C431 1.385 . S
C431 H417 0.931 . S
C431 C430 1.385 . S
C431 C432 1.389 . S
C432 C431 1.389 . S
C432 C433 1.387 . S
C433 H418 0.930 . S
C433 C428 1.390 . S
C433 C432 1.387 . S
H434 C446 0.930 . S
H435 C448 0.930 . S
H436 C449 0.930 . S
H437 C453 0.959 . S
H438 C453 0.959 . S
H439 C453 0.961 . S
H440 C454 0.960 . S
H441 C454 0.961 . S
H442 C454 0.959 . S
H443 C457 0.929 . S
H444 C458 0.931 . S
H445 C460 0.930 . S
C446 H434 0.930 . S
C446 C447 1.399 . S
C446 C451 1.399 . S
C447 C446 1.399 . S
C447 C448 1.376 . S
C448 H435 0.930 . S
C448 C447 1.376 . S
C448 C449 1.388 . S
C449 H436 0.930 . S
C449 C448 1.388 . S
C449 C450 1.390 . S
C450 C449 1.390 . S
C450 C451 1.394 . S
C450 C456 1.465 . S
C451 C446 1.399 . S
C451 C450 1.394 . S
C451 C452 1.516 . S
C452 C451 1.516 . S
C452 C453 1.502 . S
C452 C454 1.561 . S
C452 C455 1.526 . S
C453 H437 0.959 . S
C453 H438 0.959 . S
C453 H439 0.961 . S
C453 C452 1.502 . S
C454 H440 0.960 . S
C454 H441 0.961 . S
C454 H442 0.959 . S
C454 C452 1.561 . S
C455 C452 1.526 . S
C455 C456 1.396 . S
C455 C460 1.390 . S
C456 C450 1.465 . S
C456 C455 1.396 . S
C456 C457 1.399 . S
C457 H443 0.929 . S
C457 C456 1.399 . S
C457 C458 1.385 . S
C458 H444 0.931 . S
C458 C457 1.385 . S
C458 C459 1.389 . S
C459 C458 1.389 . S
C459 C460 1.387 . S
C460 H445 0.930 . S
C460 C455 1.390 . S
C460 C459 1.387 . S
H461 C473 0.930 . S
H462 C475 0.930 . S
H463 C476 0.930 . S
H464 C480 0.959 . S
H465 C480 0.959 . S
H466 C480 0.961 . S
H467 C481 0.960 . S
H468 C481 0.961 . S
H469 C481 0.959 . S
H470 C484 0.929 . S
H471 C485 0.931 . S
H472 C487 0.930 . S
C473 H461 0.930 . S
C473 C474 1.399 . S
C473 C478 1.399 . S
C474 C473 1.399 . S
C474 C475 1.376 . S
C475 H462 0.930 . S
C475 C474 1.376 . S
C475 C476 1.388 . S
C476 H463 0.930 . S
C476 C475 1.388 . S
C476 C477 1.390 . S
C477 C476 1.390 . S
C477 C478 1.394 . S
C477 C483 1.465 . S
C478 C473 1.399 . S
C478 C477 1.394 . S
C478 C479 1.516 . S
C479 C478 1.516 . S
C479 C480 1.502 . S
C479 C481 1.561 . S
C479 C482 1.526 . S
C480 H464 0.959 . S
C480 H465 0.959 . S
C480 H466 0.961 . S
C480 C479 1.502 . S
C481 H467 0.960 . S
C481 H468 0.961 . S
C481 H469 0.959 . S
C481 C479 1.561 . S
C482 C479 1.526 . S
C482 C483 1.396 . S
C482 C487 1.390 . S
C483 C477 1.465 . S
C483 C482 1.396 . S
C483 C484 1.399 . S
C484 H470 0.929 . S
C484 C483 1.399 . S
C484 C485 1.385 . S
C485 H471 0.931 . S
C485 C484 1.385 . S
C485 C486 1.389 . S
C486 C485 1.389 . S
C486 C487 1.387 . S
C487 H472 0.930 . S
C487 C482 1.390 . S
C487 C486 1.387 . S
H488 C500 0.930 . S
H489 C502 0.930 . S
H490 C503 0.930 . S
H491 C507 0.959 . S
H492 C507 0.959 . S
H493 C507 0.961 . S
H494 C508 0.960 . S
H495 C508 0.961 . S
H496 C508 0.959 . S
H497 C511 0.929 . S
H498 C512 0.931 . S
H499 C514 0.930 . S
C500 H488 0.930 . S
C500 C501 1.399 1_556 S
C500 C505 1.399 . S
C501 C500 1.399 1_554 S
C501 C502 1.376 . S
C502 H489 0.930 . S
C502 C501 1.376 . S
C502 C503 1.388 . S
C503 H490 0.930 . S
C503 C502 1.388 . S
C503 C504 1.390 . S
C504 C503 1.390 . S
C504 C505 1.394 1_554 S
C504 C510 1.465 . S
C505 C500 1.399 . S
C505 C504 1.394 1_556 S
C505 C506 1.516 . S
C506 C505 1.516 . S
C506 C507 1.502 . S
C506 C508 1.561 . S
C506 C509 1.526 . S
C507 H491 0.959 . S
C507 H492 0.959 . S
C507 H493 0.961 . S
C507 C506 1.502 . S
C508 H494 0.960 . S
C508 H495 0.961 . S
C508 H496 0.959 . S
C508 C506 1.561 . S
C509 C506 1.526 . S
C509 C510 1.396 1_556 S
C509 C514 1.390 . S
C510 C504 1.465 . S
C510 C509 1.396 1_554 S
C510 C511 1.399 . S
C511 H497 0.929 . S
C511 C510 1.399 . S
C511 C512 1.385 . S
C512 H498 0.931 . S
C512 C511 1.385 . S
C512 C513 1.389 1_554 S
C513 C512 1.389 1_556 S
C513 C514 1.387 . S
C514 H499 0.930 . S
C514 C509 1.390 . S
C514 C513 1.387 . S
H515 C527 0.930 . S
H516 C529 0.930 . S
H517 C530 0.930 . S
H518 C534 0.959 . S
H519 C534 0.959 . S
H520 C534 0.961 . S
H521 C535 0.960 . S
H522 C535 0.961 . S
H523 C535 0.959 . S
H524 C538 0.929 . S
H525 C539 0.931 . S
H526 C541 0.930 . S
C527 H515 0.930 . S
C527 C528 1.399 . S
C527 C532 1.399 . S
C528 C527 1.399 . S
C528 C529 1.376 1_554 S
C529 H516 0.930 . S
C529 C528 1.376 1_556 S
C529 C530 1.388 . S
C530 H517 0.930 . S
C530 C529 1.388 . S
C530 C531 1.390 . S
C531 C530 1.390 . S
C531 C532 1.394 1_556 S
C531 C537 1.465 . S
C532 C527 1.399 . S
C532 C531 1.394 1_554 S
C532 C533 1.516 . S
C533 C532 1.516 . S
C533 C534 1.502 . S
C533 C535 1.561 . S
C533 C536 1.526 . S
C534 H518 0.959 . S
C534 H519 0.959 . S
C534 H520 0.961 . S
C534 C533 1.502 . S
C535 H521 0.960 . S
C535 H522 0.961 . S
C535 H523 0.959 . S
C535 C533 1.561 . S
C536 C533 1.526 . S
C536 C537 1.396 1_554 S
C536 C541 1.390 . S
C537 C531 1.465 . S
C537 C536 1.396 1_556 S
C537 C538 1.399 . S
C538 H524 0.929 . S
C538 C537 1.399 . S
C538 C539 1.385 . S
C539 H525 0.931 . S
C539 C538 1.385 . S
C539 C540 1.389 . S
C540 C539 1.389 . S
C540 C541 1.387 1_556 S
C541 H526 0.930 . S
C541 C536 1.390 . S
C541 C540 1.387 1_554 S
H542 C554 0.930 . S
H543 C556 0.930 . S
H544 C557 0.930 . S
H545 C561 0.959 . S
H546 C561 0.959 . S
H547 C561 0.961 . S
H548 C562 0.960 . S
H549 C562 0.961 . S
H550 C562 0.959 . S
H551 C565 0.929 . S
H552 C566 0.931 . S
H553 C568 0.930 . S
C554 H542 0.930 . S
C554 C555 1.399 1_556 S
C554 C559 1.399 . S
C555 C554 1.399 1_554 S
C555 C556 1.376 . S
C556 H543 0.930 . S
C556 C555 1.376 . S
C556 C557 1.388 . S
C557 H544 0.930 . S
C557 C556 1.388 . S
C557 C558 1.390 . S
C558 C557 1.390 . S
C558 C559 1.394 1_554 S
C558 C564 1.465 . S
C559 C554 1.399 . S
C559 C558 1.394 1_556 S
C559 C560 1.516 . S
C560 C559 1.516 . S
C560 C561 1.502 . S
C560 C562 1.561 . S
C560 C563 1.526 . S
C561 H545 0.959 . S
C561 H546 0.959 . S
C561 H547 0.961 . S
C561 C560 1.502 . S
C562 H548 0.960 . S
C562 H549 0.961 . S
C562 H550 0.959 . S
C562 C560 1.561 . S
C563 C560 1.526 . S
C563 C564 1.396 1_556 S
C563 C568 1.390 . S
C564 C558 1.465 . S
C564 C563 1.396 1_554 S
C564 C565 1.399 . S
C565 H551 0.929 . S
C565 C564 1.399 . S
C565 C566 1.385 . S
C566 H552 0.931 . S
C566 C565 1.385 . S
C566 C567 1.389 1_554 S
C567 C566 1.389 1_556 S
C567 C568 1.387 . S
C568 H553 0.930 . S
C568 C563 1.390 . S
C568 C567 1.387 . S
H569 C581 0.930 . S
H570 C583 0.930 . S
H571 C584 0.930 . S
H572 C588 0.959 . S
H573 C588 0.959 . S
H574 C588 0.961 . S
H575 C589 0.960 . S
H576 C589 0.961 . S
H577 C589 0.959 . S
H578 C592 0.929 . S
H579 C593 0.931 . S
H580 C595 0.930 . S
C581 H569 0.930 . S
C581 C582 1.399 . S
C581 C586 1.399 . S
C582 C581 1.399 . S
C582 C583 1.376 1_554 S
C583 H570 0.930 . S
C583 C582 1.376 1_556 S
C583 C584 1.388 . S
C584 H571 0.930 . S
C584 C583 1.388 . S
C584 C585 1.390 . S
C585 C584 1.390 . S
C585 C586 1.394 1_556 S
C585 C591 1.465 . S
C586 C581 1.399 . S
C586 C585 1.394 1_554 S
C586 C587 1.516 . S
C587 C586 1.516 . S
C587 C588 1.502 . S
C587 C589 1.561 . S
C587 C590 1.526 . S
C588 H572 0.959 . S
C588 H573 0.959 . S
C588 H574 0.961 . S
C588 C587 1.502 . S
C589 H575 0.960 . S
C589 H576 0.961 . S
C589 H577 0.959 . S
C589 C587 1.561 . S
C590 C587 1.526 . S
C590 C591 1.396 1_554 S
C590 C595 1.390 . S
C591 C585 1.465 . S
C591 C590 1.396 1_556 S
C591 C592 1.399 . S
C592 H578 0.929 . S
C592 C591 1.399 . S
C592 C593 1.385 . S
C593 H579 0.931 . S
C593 C592 1.385 . S
C593 C594 1.389 . S
C594 C593 1.389 . S
C594 C595 1.387 1_556 S
C595 H580 0.930 . S
C595 C590 1.390 . S
C595 C594 1.387 1_554 S
H596 C608 0.930 . S
H597 C610 0.930 . S
H598 C611 0.930 . S
H599 C615 0.959 . S
H600 C615 0.959 . S
H601 C615 0.961 . S
H602 C616 0.960 . S
H603 C616 0.961 . S
H604 C616 0.959 . S
H605 C619 0.929 . S
H606 C620 0.931 . S
H607 C622 0.930 . S
C608 H596 0.930 . S
C608 C609 1.399 . S
C608 C613 1.399 . S
C609 C608 1.399 . S
C609 C610 1.376 . S
C610 H597 0.930 . S
C610 C609 1.376 . S
C610 C611 1.388 . S
C611 H598 0.930 . S
C611 C610 1.388 . S
C611 C612 1.390 . S
C612 C611 1.390 . S
C612 C613 1.394 . S
C612 C618 1.465 . S
C613 C608 1.399 . S
C613 C612 1.394 . S
C613 C614 1.516 . S
C614 C613 1.516 . S
C614 C615 1.502 . S
C614 C616 1.561 . S
C614 C617 1.526 . S
C615 H599 0.959 . S
C615 H600 0.959 . S
C615 H601 0.961 . S
C615 C614 1.502 . S
C616 H602 0.960 . S
C616 H603 0.961 . S
C616 H604 0.959 . S
C616 C614 1.561 . S
C617 C614 1.526 . S
C617 C618 1.396 . S
C617 C622 1.390 . S
C618 C612 1.465 . S
C618 C617 1.396 . S
C618 C619 1.399 . S
C619 H605 0.929 . S
C619 C618 1.399 . S
C619 C620 1.385 . S
C620 H606 0.931 . S
C620 C619 1.385 . S
C620 C621 1.389 . S
C621 C620 1.389 . S
C621 C622 1.387 . S
C622 H607 0.930 . S
C622 C617 1.390 . S
C622 C621 1.387 . S
H623 C635 0.930 . S
H624 C637 0.930 . S
H625 C638 0.930 . S
H626 C642 0.959 . S
H627 C642 0.959 . S
H628 C642 0.961 . S
H629 C643 0.960 . S
H630 C643 0.961 . S
H631 C643 0.959 . S
H632 C646 0.929 . S
H633 C647 0.931 . S
H634 C649 0.930 . S
C635 H623 0.930 . S
C635 C636 1.399 . S
C635 C640 1.399 . S
C636 C635 1.399 . S
C636 C637 1.376 . S
C637 H624 0.930 . S
C637 C636 1.376 . S
C637 C638 1.388 . S
C638 H625 0.930 . S
C638 C637 1.388 . S
C638 C639 1.390 . S
C639 C638 1.390 . S
C639 C640 1.394 . S
C639 C645 1.465 . S
C640 C635 1.399 . S
C640 C639 1.394 . S
C640 C641 1.516 . S
C641 C640 1.516 . S
C641 C642 1.502 . S
C641 C643 1.561 . S
C641 C644 1.526 . S
C642 H626 0.959 . S
C642 H627 0.959 . S
C642 H628 0.961 . S
C642 C641 1.502 . S
C643 H629 0.960 . S
C643 H630 0.961 . S
C643 H631 0.959 . S
C643 C641 1.561 . S
C644 C641 1.526 . S
C644 C645 1.396 . S
C644 C649 1.390 . S
C645 C639 1.465 . S
C645 C644 1.396 . S
C645 C646 1.399 . S
C646 H632 0.929 . S
C646 C645 1.399 . S
C646 C647 1.385 . S
C647 H633 0.931 . S
C647 C646 1.385 . S
C647 C648 1.389 . S
C648 C647 1.389 . S
C648 C649 1.387 . S
C649 H634 0.930 . S
C649 C644 1.390 . S
C649 C648 1.387 . S
H650 C662 0.930 . S
H651 C664 0.930 . S
H652 C665 0.930 . S
H653 C669 0.959 . S
H654 C669 0.959 . S
H655 C669 0.961 . S
H656 C670 0.960 . S
H657 C670 0.961 . S
H658 C670 0.959 . S
H659 C673 0.929 . S
H660 C674 0.931 . S
H661 C676 0.930 . S
C662 H650 0.930 . S
C662 C663 1.399 . S
C662 C667 1.399 . S
C663 C662 1.399 . S
C663 C664 1.376 . S
C664 H651 0.930 . S
C664 C663 1.376 . S
C664 C665 1.388 . S
C665 H652 0.930 . S
C665 C664 1.388 . S
C665 C666 1.390 . S
C666 C665 1.390 . S
C666 C667 1.394 . S
C666 C672 1.465 . S
C667 C662 1.399 . S
C667 C666 1.394 . S
C667 C668 1.516 . S
C668 C667 1.516 . S
C668 C669 1.502 . S
C668 C670 1.561 . S
C668 C671 1.526 . S
C669 H653 0.959 . S
C669 H654 0.959 . S
C669 H655 0.961 . S
C669 C668 1.502 . S
C670 H656 0.960 . S
C670 H657 0.961 . S
C670 H658 0.959 . S
C670 C668 1.561 . S
C671 C668 1.526 . S
C671 C672 1.396 . S
C671 C676 1.390 . S
C672 C666 1.465 . S
C672 C671 1.396 . S
C672 C673 1.399 . S
C673 H659 0.929 . S
C673 C672 1.399 . S
C673 C674 1.385 . S
C674 H660 0.931 . S
C674 C673 1.385 . S
C674 C675 1.389 . S
C675 C674 1.389 . S
C675 C676 1.387 . S
C676 H661 0.930 . S
C676 C671 1.390 . S
C676 C675 1.387 . S
H677 C689 0.930 . S
H678 C691 0.930 . S
H679 C692 0.930 . S
H680 C696 0.959 . S
H681 C696 0.959 . S
H682 C696 0.961 . S
H683 C697 0.960 . S
H684 C697 0.961 . S
H685 C697 0.959 . S
H686 C700 0.929 . S
H687 C701 0.931 . S
H688 C703 0.930 . S
C689 H677 0.930 . S
C689 C690 1.399 . S
C689 C694 1.399 . S
C690 C689 1.399 . S
C690 C691 1.376 . S
C691 H678 0.930 . S
C691 C690 1.376 . S
C691 C692 1.388 . S
C692 H679 0.930 . S
C692 C691 1.388 . S
C692 C693 1.390 . S
C693 C692 1.390 . S
C693 C694 1.394 . S
C693 C699 1.465 . S
C694 C689 1.399 . S
C694 C693 1.394 . S
C694 C695 1.516 . S
C695 C694 1.516 . S
C695 C696 1.502 . S
C695 C697 1.561 . S
C695 C698 1.526 . S
C696 H680 0.959 . S
C696 H681 0.959 . S
C696 H682 0.961 . S
C696 C695 1.502 . S
C697 H683 0.960 . S
C697 H684 0.961 . S
C697 H685 0.959 . S
C697 C695 1.561 . S
C698 C695 1.526 . S
C698 C699 1.396 . S
C698 C703 1.390 . S
C699 C693 1.465 . S
C699 C698 1.396 . S
C699 C700 1.399 . S
C700 H686 0.929 . S
C700 C699 1.399 . S
C700 C701 1.385 . S
C701 H687 0.931 . S
C701 C700 1.385 . S
C701 C702 1.389 . S
C702 C701 1.389 . S
C702 C703 1.387 . S
C703 H688 0.930 . S
C703 C698 1.390 . S
C703 C702 1.387 . S
H704 C716 0.930 . S
H705 C718 0.930 . S
H706 C719 0.930 . S
H707 C723 0.959 . S
H708 C723 0.959 . S
H709 C723 0.961 . S
H710 C724 0.960 . S
H711 C724 0.961 . S
H712 C724 0.959 . S
H713 C727 0.929 . S
H714 C728 0.931 . S
H715 C730 0.930 . S
C716 H704 0.930 . S
C716 C717 1.399 . S
C716 C721 1.399 . S
C717 C716 1.399 . S
C717 C718 1.376 . S
C718 H705 0.930 . S
C718 C717 1.376 . S
C718 C719 1.388 . S
C719 H706 0.930 . S
C719 C718 1.388 . S
C719 C720 1.390 . S
C720 C719 1.390 . S
C720 C721 1.394 . S
C720 C726 1.465 . S
C721 C716 1.399 . S
C721 C720 1.394 . S
C721 C722 1.516 . S
C722 C721 1.516 . S
C722 C723 1.502 . S
C722 C724 1.561 . S
C722 C725 1.526 . S
C723 H707 0.959 . S
C723 H708 0.959 . S
C723 H709 0.961 . S
C723 C722 1.502 . S
C724 H710 0.960 . S
C724 H711 0.961 . S
C724 H712 0.959 . S
C724 C722 1.561 . S
C725 C722 1.526 . S
C725 C726 1.396 . S
C725 C730 1.390 . S
C726 C720 1.465 . S
C726 C725 1.396 . S
C726 C727 1.399 . S
C727 H713 0.929 . S
C727 C726 1.399 . S
C727 C728 1.385 . S
C728 H714 0.931 . S
C728 C727 1.385 . S
C728 C729 1.389 . S
C729 C728 1.389 . S
C729 C730 1.387 . S
C730 H715 0.930 . S
C730 C725 1.390 . S
C730 C729 1.387 . S
H731 C743 0.930 . S
H732 C745 0.930 . S
H733 C746 0.930 . S
H734 C750 0.959 . S
H735 C750 0.959 . S
H736 C750 0.961 . S
H737 C751 0.960 . S
H738 C751 0.961 . S
H739 C751 0.959 . S
H740 C754 0.929 . S
H741 C755 0.931 . S
H742 C757 0.930 . S
C743 H731 0.930 . S
C743 C744 1.399 . S
C743 C748 1.399 . S
C744 C743 1.399 . S
C744 C745 1.376 . S
C745 H732 0.930 . S
C745 C744 1.376 . S
C745 C746 1.388 . S
C746 H733 0.930 . S
C746 C745 1.388 . S
C746 C747 1.390 . S
C747 C746 1.390 . S
C747 C748 1.394 . S
C747 C753 1.465 . S
C748 C743 1.399 . S
C748 C747 1.394 . S
C748 C749 1.516 . S
C749 C748 1.516 . S
C749 C750 1.502 . S
C749 C751 1.561 . S
C749 C752 1.526 . S
C750 H734 0.959 . S
C750 H735 0.959 . S
C750 H736 0.961 . S
C750 C749 1.502 . S
C751 H737 0.960 . S
C751 H738 0.961 . S
C751 H739 0.959 . S
C751 C749 1.561 . S
C752 C749 1.526 . S
C752 C753 1.396 . S
C752 C757 1.390 . S
C753 C747 1.465 . S
C753 C752 1.396 . S
C753 C754 1.399 . S
C754 H740 0.929 . S
C754 C753 1.399 . S
C754 C755 1.385 . S
C755 H741 0.931 . S
C755 C754 1.385 . S
C755 C756 1.389 . S
C756 C755 1.389 . S
C756 C757 1.387 . S
C757 H742 0.930 . S
C757 C752 1.390 . S
C757 C756 1.387 . S
H758 C770 0.930 . S
H759 C772 0.930 . S
H760 C773 0.930 . S
H761 C777 0.959 . S
H762 C777 0.959 . S
H763 C777 0.979 . S
H764 C778 0.960 . S
H765 C778 0.961 . S
H766 C778 0.959 . S
H767 C781 0.929 . S
H768 C782 0.931 . S
H769 C784 0.930 . S
C770 H758 0.930 . S
C770 C771 1.399 . S
C770 C775 1.399 . S
C771 C770 1.399 . S
C771 C772 1.376 . S
C772 H759 0.930 . S
C772 C771 1.376 . S
C772 C773 1.388 . S
C773 H760 0.930 . S
C773 C772 1.388 . S
C773 C774 1.390 . S
C774 C773 1.390 . S
C774 C775 1.394 . S
C774 C780 1.465 . S
C775 C770 1.399 . S
C775 C774 1.394 . S
C775 C776 1.516 . S
C776 C775 1.516 . S
C776 C777 1.502 . S
C776 C778 1.561 . S
C776 C779 1.526 . S
C777 H761 0.959 . S
C777 H762 0.959 . S
C777 H763 0.979 . S
C777 C776 1.502 . S
C778 H764 0.960 . S
C778 H765 0.961 . S
C778 H766 0.959 . S
C778 C776 1.561 . S
C779 C776 1.526 . S
C779 C780 1.396 . S
C779 C784 1.390 . S
C780 C774 1.465 . S
C780 C779 1.396 . S
C780 C781 1.399 . S
C781 H767 0.929 . S
C781 C780 1.399 . S
C781 C782 1.385 . S
C782 H768 0.931 . S
C782 C781 1.385 . S
C782 C783 1.389 . S
C783 C782 1.389 . S
C783 C784 1.387 . S
C784 H769 0.930 . S
C784 C779 1.390 . S
C784 C783 1.387 . S
H785 C797 0.930 . S
H786 C799 0.930 . S
H787 C800 0.930 . S
H788 C804 0.959 . S
H789 C804 0.959 . S
H790 C804 0.961 . S
H791 C805 0.960 . S
H792 C805 0.961 . S
H793 C805 0.959 . S
H794 C808 0.929 . S
H795 C809 0.931 . S
H796 C811 0.930 . S
C797 H785 0.930 . S
C797 C798 1.399 . S
C797 C802 1.399 . S
C798 C797 1.399 . S
C798 C799 1.376 . S
C799 H786 0.930 . S
C799 C798 1.376 . S
C799 C800 1.388 . S
C800 H787 0.930 . S
C800 C799 1.388 . S
C800 C801 1.390 . S
C801 C800 1.390 . S
C801 C802 1.394 . S
C801 C807 1.465 . S
C802 C797 1.399 . S
C802 C801 1.394 . S
C802 C803 1.516 . S
C803 C802 1.516 . S
C803 C804 1.502 . S
C803 C805 1.561 . S
C803 C806 1.526 . S
C804 H788 0.959 . S
C804 H789 0.959 . S
C804 H790 0.961 . S
C804 C803 1.502 . S
C805 H791 0.960 . S
C805 H792 0.961 . S
C805 H793 0.959 . S
C805 C803 1.561 . S
C806 C803 1.526 . S
C806 C807 1.396 . S
C806 C811 1.390 . S
C807 C801 1.465 . S
C807 C806 1.396 . S
C807 C808 1.399 . S
C808 H794 0.929 . S
C808 C807 1.399 . S
C808 C809 1.385 . S
C809 H795 0.931 . S
C809 C808 1.385 . S
C809 C810 1.389 . S
C810 C809 1.389 . S
C810 C811 1.387 . S
C811 H796 0.930 . S
C811 C806 1.390 . S
C811 C810 1.387 . S
C285 C101 1.072 . S
C297 C33 1.110 1_565 S
C312 C67 1.074 . S
C324 C135 1.110 1_655 S
C339 C169 1.041 . S
C351 C237 1.100 . S
C366 C271 1.035 . S
C378 C203 1.002 . S
C393 C122 1.538 . S
C405 C20 1.551 . S
C420 C9 1.755 . S
C432 C43 1.753 . S
C447 C88 1.531 . S
C459 C54 1.559 . S
C474 C77 1.754 . S
C486 C111 1.753 . S
C501 C258 1.532 . S
C513 C156 1.556 . S
C528 C145 1.754 . S
C540 C179 1.753 . S
C555 C190 1.531 . S
C567 C224 1.558 . S
C582 C213 1.753 . S
C594 C247 1.751 . S
C609 C5 0.575 . S
C621 C175 0.517 . S
C636 C36 1.351 . S
C648 C206 1.352 . S
C663 C73 0.512 . S
C675 C243 0.578 . S
C690 C104 1.351 . S
C702 C138 1.352 . S
C717 C70 1.330 . S
C729 C172 1.309 . S
C744 C107 0.429 . S
C756 C209 0.666 . S
C771 C2 1.345 . S
C783 C240 1.327 . S
C798 C39 0.438 . S
C810 C141 0.664 . S
