# Generated by pormake.
# Topology snz, (6)-cn, num edge types: 1
# Building blocks:
#     Node 0, Type 0, BuildingBlock: JUFBIX_clean_sbu_0, # of connection points: 6
#     Node 1, Type 0, BuildingBlock: JUFBIX_clean_sbu_0, # of connection points: 6
#     Node 2, Type 0, BuildingBlock: JUFBIX_clean_sbu_0, # of connection points: 6
#     Node 3, Type 0, BuildingBlock: JUFBIX_clean_sbu_0, # of connection points: 6
#     Node 4, Type 0, BuildingBlock: JUFBIX_clean_sbu_0, # of connection points: 6
#     Node 5, Type 0, BuildingBlock: JUFBIX_clean_sbu_0, # of connection points: 6
#     Node 6, Type 0, BuildingBlock: JUFBIX_clean_sbu_0, # of connection points: 6
#     Node 7, Type 0, BuildingBlock: JUFBIX_clean_sbu_0, # of connection points: 6
#     Node 8, Type 0, BuildingBlock: JUFBIX_clean_sbu_0, # of connection points: 6
#     Edge 9, Type (0, 0), BuildingBlock: AJUNOK_clean_linker_0, # of connection points: 2
#     Edge 10, Type (0, 0), BuildingBlock: AJUNOK_clean_linker_0, # of connection points: 2
#     Edge 11, Type (0, 0), BuildingBlock: AJUNOK_clean_linker_0, # of connection points: 2
#     Edge 12, Type (0, 0), BuildingBlock: AJUNOK_clean_linker_0, # of connection points: 2
#     Edge 13, Type (0, 0), BuildingBlock: AJUNOK_clean_linker_0, # of connection points: 2
#     Edge 14, Type (0, 0), BuildingBlock: AJUNOK_clean_linker_0, # of connection points: 2
#     Edge 15, Type (0, 0), BuildingBlock: AJUNOK_clean_linker_0, # of connection points: 2
#     Edge 16, Type (0, 0), BuildingBlock: AJUNOK_clean_linker_0, # of connection points: 2
#     Edge 17, Type (0, 0), BuildingBlock: AJUNOK_clean_linker_0, # of connection points: 2
#     Edge 18, Type (0, 0), BuildingBlock: AJUNOK_clean_linker_0, # of connection points: 2
#     Edge 19, Type (0, 0), BuildingBlock: AJUNOK_clean_linker_0, # of connection points: 2
#     Edge 20, Type (0, 0), BuildingBlock: AJUNOK_clean_linker_0, # of connection points: 2
#     Edge 21, Type (0, 0), BuildingBlock: AJUNOK_clean_linker_0, # of connection points: 2
#     Edge 22, Type (0, 0), BuildingBlock: AJUNOK_clean_linker_0, # of connection points: 2
#     Edge 23, Type (0, 0), BuildingBlock: AJUNOK_clean_linker_0, # of connection points: 2
#     Edge 24, Type (0, 0), BuildingBlock: AJUNOK_clean_linker_0, # of connection points: 2
#     Edge 25, Type (0, 0), BuildingBlock: AJUNOK_clean_linker_0, # of connection points: 2
#     Edge 26, Type (0, 0), BuildingBlock: AJUNOK_clean_linker_0, # of connection points: 2
#     Edge 27, Type (0, 0), BuildingBlock: AJUNOK_clean_linker_0, # of connection points: 2
#     Edge 28, Type (0, 0), BuildingBlock: AJUNOK_clean_linker_0, # of connection points: 2
#     Edge 29, Type (0, 0), BuildingBlock: AJUNOK_clean_linker_0, # of connection points: 2
#     Edge 30, Type (0, 0), BuildingBlock: AJUNOK_clean_linker_0, # of connection points: 2
#     Edge 31, Type (0, 0), BuildingBlock: AJUNOK_clean_linker_0, # of connection points: 2
#     Edge 32, Type (0, 0), BuildingBlock: AJUNOK_clean_linker_0, # of connection points: 2
#     Edge 33, Type (0, 0), BuildingBlock: AJUNOK_clean_linker_0, # of connection points: 2
#     Edge 34, Type (0, 0), BuildingBlock: AJUNOK_clean_linker_0, # of connection points: 2
#     Edge 35, Type (0, 0), BuildingBlock: AJUNOK_clean_linker_0, # of connection points: 2
# Relax obj value: 0.371
# Max RMSD: 0.288
# Mean RMSD: 0.227
data_MOF--net-snz--node1-JUFBIX_clean_sbu_0--edge1-AJUNOK_clean_linker_0
_symmetry_space_group_name_H-M    P1
_symmetry_Int_Tables_number       1
_symmetry_cell_setting            triclinic
loop_
_symmetry_equiv_pos_as_xyz
'x, y, z'
_cell_length_a     40.65951
_cell_length_b     44.726057
_cell_length_c     10.812799
_cell_angle_alpha  89.784971
_cell_angle_beta   89.593458
_cell_angle_gamma 120.0213
loop_
_atom_site_label
_atom_site_type_symbol
_atom_site_fract_x
_atom_site_fract_y
_atom_site_fract_z
_atom_type_partial_charge
Co0 Co 0.167 0.62274 0.83567 0.0
C1 C 0.1348 0.59662 0.06873 0.0
Co2 Co 0.11513 0.5707 0.83606 0.0
C3 C 0.22067 0.68904 0.93922 0.0
C4 C 0.24137 0.67878 0.77163 0.0
N5 N 0.21024 0.66635 0.84497 0.0
N6 N 0.25715 0.71473 0.92872 0.0
C7 C 0.27019 0.7084 0.82281 0.0
H8 H 0.20244 0.686 0.01728 0.0
H9 H 0.2439 0.66584 0.69091 0.0
C10 C 0.14691 0.59576 0.60306 0.0
N11 N 0.07429 0.52404 0.82754 0.0
C12 C 0.07694 0.49764 0.77499 0.0
C13 C 0.04065 0.5081 0.888 0.0
N14 N 0.04692 0.46584 0.80207 0.0
C15 C 1.02385 0.4727 0.87213 0.0
C16 C 0.1004 0.62642 0.80241 0.0
O17 O 0.17094 0.62268 0.66007 0.0
O18 O 0.12175 0.57023 0.66444 0.0
O19 O 0.0828 0.593 0.80715 0.0
O20 O 0.13608 0.64272 0.81965 0.0
O21 O 0.10895 0.57146 0.00917 0.0
H22 H 1.02998 0.52114 0.94573 0.0
H23 H 0.10127 0.50189 0.72025 0.0
O24 O 0.16179 0.62151 0.00987 0.0
O25 O 0.19855 0.60341 0.85204 0.0
O26 O 0.1488 0.55193 0.86606 0.0
C27 C 0.18473 0.57137 0.87074 0.0
H28 H 0.29919 0.72267 0.78894 0.0
H29 H 0.99749 0.45341 0.91487 0.0
Co30 Co 0.64195 0.56527 0.95996 0.0
C31 C 0.64152 0.59393 0.72625 0.0
Co32 Co 0.64823 0.61743 0.95716 0.0
C33 C 0.60598 0.48907 0.95043 0.0
C34 C 0.66283 0.51619 0.87926 0.0
N35 N 0.6365 0.52129 0.93716 0.0
N36 N 0.61264 0.46449 0.90334 0.0
C37 C 0.64852 0.4817 0.85968 0.0
H38 H 0.57915 0.48387 -0.00962 0.0
H39 H 0.69001 0.53625 0.84489 0.0
C40 C 0.64773 0.58861 0.19104 0.0
N41 N 0.65631 0.66194 -0.01791 0.0
C42 C 0.68537 0.68488 0.052 0.0
C43 C 0.63274 0.67493 0.97424 0.0
N44 N 0.6804 0.71074 0.09313 0.0
C45 C 0.64763 0.70509 0.04219 0.0
C46 C 0.57264 0.56456 -0.01771 0.0
O47 O 0.64314 0.56184 0.13487 0.0
O48 O 0.65239 0.61449 0.12886 0.0
O49 O 0.59388 0.59733 0.97919 0.0
O50 O 0.588 0.54587 0.96991 0.0
O51 O 0.64358 0.61958 0.78417 0.0
H52 H 0.60502 0.66182 0.93209 0.0
H53 H 0.70843 0.68111 0.08098 0.0
O54 O 0.64063 0.56912 0.78662 0.0
O55 O 0.69628 0.5859 0.95125 0.0
O56 O 0.70222 0.63687 0.93381 0.0
C57 C 0.71757 0.61819 0.93483 0.0
H58 H 0.66273 0.47033 0.81007 0.0
H59 H 0.63382 0.71995 0.06125 0.0
Co60 Co 0.69263 0.05487 0.23138 0.0
C61 C 0.69574 0.08322 0.46391 0.0
Co62 Co 0.68329 0.09928 0.23158 0.0
C63 C 0.73426 0.0215 0.30412 0.0
C64 C 0.68428 0.98643 0.20544 0.0
N65 N 0.70398 1.01935 0.24421 0.0
N66 N 0.73432 0.99132 0.30474 0.0
C67 C 0.70275 0.96913 0.24292 0.0
H68 H 0.75515 0.04457 0.35052 0.0
H69 H 0.6579 0.97558 0.15521 0.0
C70 C 0.68096 0.07073 -0.00091 0.0
N71 N 0.67446 0.1359 0.22327 0.0
C72 C 0.6524 0.14052 0.1418 0.0
C73 C 0.69137 0.16524 0.28952 0.0
N74 N 0.65499 0.17162 0.154 0.0
C75 C 0.67954 0.1873 0.24681 0.0
C76 C 0.7578 0.11937 0.1827 0.0
O77 O 0.68477 0.04824 0.05972 0.0
O78 O 0.67876 0.09434 0.05706 0.0
O79 O 0.73519 0.13022 0.20847 0.0
O80 O 0.7458 0.08712 0.1933 0.0
O81 O 0.68795 0.10363 0.40616 0.0
H82 H 0.71199 0.17071 0.36127 0.0
H83 H 0.63626 0.12209 0.07077 0.0
O84 O 0.70063 0.06161 0.40296 0.0
O85 O 0.63807 0.02321 0.26483 0.0
O86 O 0.63126 0.06875 0.25212 0.0
C87 C 0.61641 0.03639 0.26788 0.0
H88 H 0.69357 0.94224 0.22629 0.0
H89 H 0.68887 0.21315 0.27962 0.0
Co90 Co 0.91009 0.95613 0.55612 0.0
C91 C 0.87802 0.93009 0.7886 0.0
Co92 Co 0.85904 0.90325 0.55461 0.0
C93 C 0.94667 0.02956 0.6152 0.0
C94 C 0.98398 1.01926 0.50701 0.0
N95 N 0.94988 1.00323 0.5645 0.0
N96 N 0.97691 0.06141 0.58988 0.0
C97 C 1.00055 0.05463 0.52271 0.0
H98 H 0.92196 0.02517 0.66802 0.0
H99 H 0.99531 1.00627 0.452 0.0
C100 C 0.89204 0.92927 0.32265 0.0
N101 N 0.81742 0.85829 0.54485 0.0
C102 C 0.79658 0.8423 0.44374 0.0
C103 C 0.80268 0.83401 0.63485 0.0
N104 N 0.77021 0.80898 0.46628 0.0
C105 C 0.77364 0.80391 0.58738 0.0
C106 C 0.83914 0.95294 0.51673 0.0
O107 O 0.9164 0.95568 0.38121 0.0
O108 O 0.86585 0.90401 0.38231 0.0
O109 O 0.82595 0.9208 0.53192 0.0
O110 O 0.87486 0.97312 0.52684 0.0
O111 O 0.85384 0.90379 0.72916 0.0
H112 H 0.81275 0.83755 0.72857 0.0
H113 H 0.80128 0.85447 0.3538 0.0
O114 O 0.90339 0.95615 0.72941 0.0
O115 O 0.94403 0.93565 0.58456 0.0
O116 O 0.89155 0.88519 0.57678 0.0
C117 C 0.92725 0.90234 0.59251 0.0
H118 H 1.02731 0.07394 0.48223 0.0
H119 H 0.75657 0.78016 0.63866 0.0
Co120 Co 0.37576 0.91546 0.39306 0.0
C121 C 0.37508 0.94285 0.16036 0.0
Co122 Co 0.38414 0.96839 0.39451 0.0
C123 C 0.34119 0.84812 0.29367 0.0
C124 C 0.37936 0.85209 0.43601 0.0
N125 N 0.3652 0.87004 0.3788 0.0
N126 N 0.34028 0.81769 0.29303 0.0
C127 C 0.36393 0.81967 0.3832 0.0
H128 H 0.32517 0.8546 0.23023 0.0
H129 H 0.40039 0.86226 0.50821 0.0
C130 C 0.38562 0.94148 0.62617 0.0
N131 N 0.39346 1.01387 0.40354 0.0
C132 C 0.38923 0.0308 0.50068 0.0
C133 C 0.4076 0.0377 0.31168 0.0
N134 N 0.39958 0.06378 0.47159 0.0
C135 C 0.4112 0.06819 0.35289 0.0
C136 C 0.30847 0.9183 0.42573 0.0
O137 O 0.3792 0.91437 0.56814 0.0
O138 O 0.38957 0.96754 0.56633 0.0
O139 O 0.33079 0.95083 0.4185 0.0
O140 O 0.3223 0.89853 0.41176 0.0
O141 O 0.3788 0.96865 0.22037 0.0
H142 H 0.41598 0.03369 0.22129 0.0
H143 H 0.37917 1.01941 0.59141 0.0
O144 O 0.37263 0.91726 0.21884 0.0
O145 O 0.42982 0.93304 0.3755 0.0
O146 O 0.43718 0.98513 0.37187 0.0
C147 C 0.45171 0.96565 0.36543 0.0
H148 H 0.37081 0.79982 0.40532 0.0
H149 H 0.42309 0.09225 0.30142 0.0
Co150 Co 0.3443 0.4278 0.15819 0.0
C151 C 0.34837 0.45817 0.38957 0.0
Co152 Co 0.33359 0.47154 0.15591 0.0
C153 C 0.34144 0.36877 0.26827 0.0
C154 C 0.37635 0.38383 0.10524 0.0
N155 N 0.35365 0.39149 0.17306 0.0
N156 N 0.356 0.34754 0.26462 0.0
C157 C 0.378 0.35688 0.16171 0.0
H158 H 0.32342 0.36882 0.34237 0.0
H159 H 0.39229 0.39811 0.02415 0.0
C160 C 0.33052 0.44175 0.92443 0.0
N161 N 0.32161 0.50659 0.14026 0.0
C162 C 0.29075 0.50374 0.08205 0.0
C163 C 0.34137 0.5398 0.17578 0.0
N164 N 0.29042 0.53379 0.07948 0.0
C165 C 0.32239 0.5566 0.13807 0.0
C166 C 0.4099 0.49076 0.11033 0.0
O167 O 0.33744 0.42111 -0.01506 0.0
O168 O 0.32548 0.46374 -0.01715 0.0
O169 O 0.38781 0.5034 0.11962 0.0
O170 O 0.3961 0.45858 0.12821 0.0
O171 O 0.3417 0.47913 0.32975 0.0
H172 H 0.36814 0.55119 0.22391 0.0
H173 H 0.26959 0.48027 0.03831 0.0
O174 O 0.35166 0.43528 0.33088 0.0
O175 O 0.2924 0.39671 0.18992 0.0
O176 O 0.28091 0.43939 0.19534 0.0
C177 C 0.26952 0.4075 0.21272 0.0
H178 H 0.3961 0.34673 0.13381 0.0
H179 H 0.33151 0.58358 0.15214 0.0
Co180 Co 0.50766 0.25253 0.76665 0.0
C181 C 0.44371 0.18835 0.73407 0.0
Co182 Co 0.45458 0.25436 0.76643 0.0
C183 C 0.5565 0.22832 0.84874 0.0
C184 C 0.58553 0.27022 0.72032 0.0
N185 N 0.5516 0.2503 0.77623 0.0
N186 N 0.59212 0.23366 0.84128 0.0
C187 C 0.61064 0.26015 0.76086 0.0
H188 H 0.5346 0.20962 0.9097 0.0
H189 H 0.59178 0.29113 0.65654 0.0
C190 C 0.51926 0.31873 0.79794 0.0
N191 N 0.4107 0.25683 0.75257 0.0
C192 C 0.40832 0.28012 0.67945 0.0
C193 C 0.37438 0.23346 0.78232 0.0
N194 N 0.37225 0.27206 0.66015 0.0
C195 C 0.35051 0.24264 0.72396 0.0
C196 C 0.47474 0.2468 -0.00048 0.0
O197 O 0.53596 0.30127 0.78576 0.0
O198 O 0.48329 0.30329 0.79029 0.0
O199 O 0.44854 0.24843 0.9413 0.0
O200 O 0.50215 0.2478 0.93936 0.0
O201 O 0.42635 0.20536 0.7415 0.0
H202 H 0.36571 0.20983 0.83369 0.0
H203 H 0.43243 0.30082 0.63101 0.0
O204 O 0.47942 0.20399 0.748 0.0
O205 O 0.51282 0.25705 0.59283 0.0
O206 O 0.46083 0.26011 0.59247 0.0
C207 C 0.48732 0.25922 0.53324 0.0
H208 H 0.6403 0.2717 0.73468 0.0
H209 H 0.31982 0.22764 0.72096 0.0
Co210 Co 0.04311 0.27417 0.6943 0.0
C211 C 1.02179 0.32588 0.71156 0.0
Co212 Co 0.98113 0.25326 0.69621 0.0
C213 C 0.11545 0.31859 0.58238 0.0
C214 C 0.11952 0.28418 0.71136 0.0
N215 N 0.09529 0.29403 0.66895 0.0
N216 N 0.15098 0.32405 0.56698 0.0
C217 C 0.15371 0.30247 0.64842 0.0
H218 H 0.10326 0.33037 0.52494 0.0
H219 H 0.11212 0.26367 0.77821 0.0
C220 C 1.00243 0.20157 0.67907 0.0
N221 N 0.92894 0.23337 0.72118 0.0
C222 C 0.90842 0.20802 0.80483 0.0
C223 C 0.90534 0.24451 0.68368 0.0
N224 N 0.87356 0.20373 0.82455 0.0
C225 C 0.87129 0.22639 0.74743 0.0
C226 C 1.00754 0.2647 0.46336 0.0
O227 O 0.03608 0.22754 0.68399 0.0
O228 O 0.97479 0.20737 0.68439 0.0
O229 O 0.97662 0.25412 0.52337 0.0
O230 O 0.03802 0.2743 0.52188 0.0
O231 O 0.98817 0.29985 0.7081 0.0
H232 H 0.91321 0.26591 0.62055 0.0
H233 H 0.91999 0.19498 0.85835 0.0
O234 O 0.04948 0.32015 0.70461 0.0
O235 O 0.04754 0.27374 0.86991 0.0
O236 O 0.98606 0.25273 0.86648 0.0
C237 C 1.01609 0.2628 0.92761 0.0
H238 H 0.17819 0.29919 0.65844 0.0
H239 H 0.84738 0.23067 0.74172 0.0
Co240 Co 0.98479 0.7437 0.69983 0.0
C241 C 0.99149 0.81027 0.67895 0.0
Co242 Co 0.0445 0.7869 0.6938 0.0
C243 C 0.90441 0.70499 0.77281 0.0
C244 C 0.91992 0.67775 0.64417 0.0
N245 N 0.93411 0.7079 0.705 0.0
N246 N 0.87257 0.67398 0.75793 0.0
C247 C 0.88227 0.65695 0.67635 0.0
H248 H 0.90636 0.72482 0.83441 0.0
H249 H 0.93609 0.67114 0.58135 0.0
C250 C 0.03788 0.72027 0.71518 0.0
N251 N 0.09515 0.82303 0.68885 0.0
C252 C 0.12411 0.82839 0.61169 0.0
C253 C 0.10979 0.85131 0.76059 0.0
N254 N 0.15595 0.85915 0.63152 0.0
C255 C 0.14697 0.87335 0.72622 0.0
C256 C 1.01359 0.76759 0.92924 0.0
O257 O 1.00236 0.71 0.71383 0.0
O258 O 0.06108 0.75279 0.70581 0.0
O259 O 0.04353 0.78866 0.86971 0.0
O260 O 0.98449 0.74624 0.87046 0.0
O261 O 1.02699 0.82058 0.68099 0.0
H262 H 0.09424 0.85585 0.83263 0.0
H263 H 0.12163 0.81048 0.54035 0.0
O264 O 0.96829 0.77777 0.68698 0.0
O265 O 0.98561 0.74153 0.52665 0.0
O266 O 0.04447 0.78439 0.5205 0.0
C267 C 1.01491 0.76238 0.46449 0.0
H268 H 0.86338 0.63128 0.64179 0.0
H269 H 0.16604 0.89781 0.7689 0.0
C270 C 0.16377 0.62609 0.3982 0.0
C271 C 0.14517 0.59507 0.46647 0.0
C272 C 0.15946 0.62639 0.26993 0.0
C273 C 0.13627 0.59574 0.20508 0.0
H274 H 0.18124 0.65044 0.44424 0.0
H275 H 0.17439 0.65093 0.22134 0.0
S276 S 0.08373 0.50729 0.33926 0.0
N277 N 0.10426 0.53257 0.45863 0.0
N278 N 0.0961 0.53328 0.21783 0.0
C279 C 0.11795 0.56447 0.27186 0.0
C280 C 0.12249 0.5641 0.40237 0.0
C281 C 0.65132 0.56985 0.53085 0.0
C282 C 0.64214 0.59288 0.58979 0.0
C283 C 0.65285 0.56831 0.40182 0.0
C284 C 0.64531 0.58978 0.32703 0.0
H285 H 0.65789 0.55306 0.58471 0.0
H286 H 0.66049 0.55055 0.36061 0.0
S287 S 0.61633 0.65224 0.43491 0.0
N288 N 0.62345 0.63627 0.56321 0.0
N289 N 0.62541 0.63298 0.3207 0.0
C290 C 0.63512 0.61233 0.38462 0.0
C291 C 0.63383 0.61404 0.51599 0.0
C292 C 0.67291 0.09317 0.7965 0.0
C293 C 0.68382 0.07238 0.86252 0.0
C294 C 0.67806 0.09751 0.66813 0.0
C295 C 0.69447 0.08136 0.60073 0.0
H296 H 0.66021 0.10621 0.84428 0.0
H297 H 0.66844 0.11316 0.62132 0.0
S298 S 0.73066 0.02637 0.73086 0.0
N299 N 0.71356 0.03684 0.85154 0.0
N300 N 0.72338 0.04507 0.61064 0.0
C301 C 0.70622 0.06103 0.66595 0.0
C302 C 0.70078 0.05646 0.7966 0.0
C303 C 0.90095 0.96026 -0.00923 0.0
C304 C 0.88012 0.92923 0.92517 0.0
C305 C 0.90609 0.96013 0.11888 0.0
C306 C 0.89074 0.92896 0.18602 0.0
H307 H 0.91331 0.98491 0.94289 0.0
H308 H 0.92138 0.98465 0.16589 0.0
S309 S 0.83707 0.84055 0.05685 0.0
N310 N 0.84609 0.86646 0.93669 0.0
N311 N 0.85603 0.8662 0.1764 0.0
C312 C 0.87071 0.89775 0.12117 0.0
C313 C 0.86525 0.89788 -0.00886 0.0
C314 C 0.36379 0.91149 0.83034 0.0
C315 C 0.38504 0.94224 0.76242 0.0
C316 C 0.36 0.91202 0.95905 0.0
C317 C 0.37711 0.94334 0.0241 0.0
H318 H 0.34921 0.88693 0.78342 0.0
H319 H 0.34324 0.88774 0.0079 0.0
S320 S 0.43787 0.03087 0.88985 0.0
N321 N 0.42484 1.0048 0.76998 0.0
N322 N 0.41759 1.00571 0.01154 0.0
C323 C 0.39872 0.97425 0.95731 0.0
C324 C 0.40275 0.97371 0.82653 0.0
C325 C 0.32317 0.46577 0.59198 0.0
C326 C 0.34667 0.45642 0.52663 0.0
C327 C 0.31713 0.45993 0.72005 0.0
C328 C 0.33413 0.4443 0.78756 0.0
H329 H 0.30853 0.47686 0.54345 0.0
H330 H 0.29891 0.46768 0.76652 0.0
S331 S 0.40168 0.41876 0.66226 0.0
N332 N 0.38924 0.43311 0.54056 0.0
N333 N 0.37791 0.42217 0.78051 0.0
C334 C 0.35833 0.43551 0.72361 0.0
C335 C 0.36461 0.44159 0.5935 0.0
C336 C 0.46196 0.26593 0.33171 0.0
C337 C 0.48548 0.25671 0.39698 0.0
C338 C 0.45748 0.26151 0.20351 0.0
C339 C 0.47618 0.24752 0.13603 0.0
H340 H 0.44702 0.27686 0.37987 0.0
H341 H 0.44005 0.26994 0.15662 0.0
S342 S 0.53855 0.21659 0.26417 0.0
N343 N 0.52618 0.23131 0.38507 0.0
N344 N 0.51753 0.22275 0.14476 0.0
C345 C 0.49915 0.23752 0.20053 0.0
C346 C 0.50391 0.24222 0.33077 0.0
C347 C 0.04353 0.27419 0.26546 0.0
C348 C 1.00887 0.26468 0.32698 0.0
C349 C 0.04573 0.27333 0.13648 0.0
C350 C 1.01338 0.26295 0.06408 0.0
H351 H 0.06932 0.28222 0.31713 0.0
H352 H 0.07296 0.28084 0.09352 0.0
S353 S 0.91592 0.23649 0.18031 0.0
N354 N 0.94173 0.24518 0.30596 0.0
N355 N 0.94547 0.24369 0.064 0.0
C356 C 0.97852 0.25367 0.12465 0.0
C357 C 0.97637 0.25452 0.2559 0.0
C358 C 0.04609 0.78703 0.26091 0.0
C359 C 1.01402 0.76253 0.32824 0.0
C360 C 0.04556 0.78885 0.13197 0.0
C361 C 1.01295 0.76626 0.06557 0.0
H362 H 0.07186 0.80514 0.30793 0.0
H363 H 0.071 0.80804 0.08423 0.0
S364 S 0.92135 0.6972 0.19817 0.0
N365 N 0.94872 0.71503 0.3189 0.0
N366 N 0.94758 0.71846 0.07686 0.0
C367 C 0.9806 0.74159 0.13179 0.0
C368 C 0.98119 0.73969 0.26302 0.0
C369 C 0.27592 0.57243 0.95673 0.0
C370 C 0.26327 0.54095 0.01976 0.0
C371 C 0.25028 0.58098 0.90357 0.0
C372 C 0.21062 0.55857 0.91163 0.0
H373 H 0.30603 0.59081 0.94916 0.0
H374 H 0.26181 0.60594 0.85834 0.0
S375 S 0.16265 0.47276 0.06767 0.0
N376 N 0.20839 0.48694 0.0865 0.0
N377 N 0.16006 0.50305 -0.01234 0.0
C378 C 0.19752 0.52653 0.97201 0.0
C379 C 0.22382 0.51773 0.02576 0.0
C380 C 0.70981 0.76929 0.18378 0.0
C381 C 0.70176 0.73486 0.18979 0.0
C382 C 0.73191 0.79331 0.27473 0.0
C383 C 0.74629 0.78366 0.37622 0.0
H384 H 0.69959 0.77784 0.10683 0.0
H385 H 0.73772 0.81963 0.26573 0.0
S386 S 0.73203 0.69614 0.43747 0.0
N387 N 0.70873 0.69205 0.30864 0.0
N388 N 0.75067 0.73703 0.47652 0.0
C389 C 0.73788 0.74913 0.38408 0.0
C390 C 0.71556 0.7248 0.29169 0.0
C391 C 0.55378 0.03381 0.28974 0.0
C392 C 0.57432 1.01603 0.29148 0.0
C393 C 0.51473 1.01718 0.31417 0.0
C394 C 0.49358 0.98164 0.34145 0.0
H395 H 0.56793 0.06124 0.2695 0.0
H396 H 0.50105 0.03264 0.31089 0.0
S397 S 0.5328 0.9224 0.35697 0.0
N398 N 0.57009 0.96035 0.32242 0.0
N399 N 0.4962 0.92878 0.36773 0.0
C400 C 0.51338 0.96315 0.34275 0.0
C401 C 0.5537 0.98035 0.31801 0.0
C402 C 0.65983 0.22167 0.04104 0.0
C403 C 0.63861 0.18657 0.07493 0.0
C404 C 0.6448 0.23666 0.96233 0.0
C405 C 0.60788 0.21718 0.91535 0.0
H406 H 0.68844 0.23759 0.07466 0.0
H407 H 0.6619 0.26389 0.94022 0.0
S408 S 0.54076 0.12411 0.97502 0.0
N409 N 0.57875 0.13274 0.05603 0.0
N410 N 0.55081 0.16069 0.90549 0.0
C411 C 0.58646 0.18196 0.94762 0.0
C412 C 0.60176 0.16671 0.02786 0.0
C413 C 0.99852 0.36883 0.74304 0.0
C414 C 1.02893 0.36233 0.72858 0.0
C415 C 1.00464 0.40246 0.76494 0.0
C416 C 0.04152 0.4316 0.77323 0.0
H417 H 0.96952 0.34766 0.73874 0.0
H418 H 0.98005 0.4056 0.7754 0.0
S419 S 0.13139 0.4291 0.74379 0.0
N420 N 0.09776 0.38862 0.7241 0.0
N421 N 0.10908 0.45093 0.76671 0.0
C422 C 0.07224 0.42551 0.758 0.0
C423 C 0.06601 0.39127 0.73556 0.0
C424 C 0.81844 0.68168 0.82071 0.0
C425 C 0.83567 0.66117 0.81575 0.0
C426 C 0.78077 0.66802 0.86379 0.0
C427 C 0.75895 0.63337 0.90481 0.0
H428 H 0.83365 0.708 0.78617 0.0
H429 H 0.76831 0.68448 0.86105 0.0
S430 S 0.79353 0.57079 0.92798 0.0
N431 N 0.82973 0.60583 0.86719 0.0
N432 N 0.75956 0.58027 0.94962 0.0
C433 C 0.77689 0.61335 0.90692 0.0
C434 C 0.81501 0.62719 0.862 0.0
C435 C 1.0294 0.66088 0.77617 0.0
C436 C 0.05248 0.69501 0.72957 0.0
C437 C 0.04393 0.63806 0.79638 0.0
C438 C 0.08228 0.64823 0.77067 0.0
H439 H 1.00001 0.65194 0.80022 0.0
H440 H 1.02527 0.61271 0.83564 0.0
S441 S 0.15354 0.73313 0.63232 0.0
N442 N 0.11502 0.73621 0.64926 0.0
N443 N 0.14183 0.6943 0.68416 0.0
C444 C 0.10498 0.68179 0.71895 0.0
C445 C 0.09033 0.70481 0.69939 0.0
C446 C 0.60195 0.40532 0.89316 0.0
C447 C 0.5872 0.42783 0.88862 0.0
C448 C 0.57978 0.37037 0.86347 0.0
C449 C 0.5416 0.35611 0.82846 0.0
H450 H 0.63127 0.41498 0.91845 0.0
H451 H 0.59288 0.35444 0.86797 0.0
S452 S 0.48864 0.40368 0.80467 0.0
N453 N 0.5317 0.43327 0.84754 0.0
N454 N 0.48951 0.36724 0.79426 0.0
C455 C 0.52598 0.37807 0.82668 0.0
C456 C 0.54883 0.41394 0.85642 0.0
C457 C 0.83751 0.14908 0.94376 0.0
C458 C 0.84747 0.1837 0.92297 0.0
C459 C 0.81055 0.12881 0.03536 0.0
C460 C 0.79312 0.14267 0.11106 0.0
H461 H 0.84946 0.13724 0.88523 0.0
H462 H 0.80193 0.10168 0.04227 0.0
S463 S 0.81525 0.23404 0.10793 0.0
N464 N 0.84154 0.2321 -0.0053 0.0
N465 N 0.79203 0.1948 0.16846 0.0
C466 C 0.80529 0.17811 0.09685 0.0
C467 C 0.83203 0.19838 0.00225 0.0
C468 C 0.74814 0.9513 0.422 0.0
C469 C 0.76104 0.98361 0.36467 0.0
C470 C 0.7735 0.94246 0.47574 0.0
C471 C 0.8131 0.96543 0.47428 0.0
H472 H 0.71808 0.93255 0.42482 0.0
H473 H 0.76186 0.91694 0.51647 0.0
S474 S 0.86169 0.05331 0.33394 0.0
N475 N 0.81613 0.03881 0.30952 0.0
N476 N 0.86385 0.02226 0.41004 0.0
C477 C 0.82639 0.9982 0.4194 0.0
C478 C 0.80041 1.00725 0.36481 0.0
C479 C 0.29342 0.75774 0.23709 0.0
C480 C 0.32163 0.79119 0.20208 0.0
C481 C 0.27225 0.73288 0.14739 0.0
C482 C 0.27894 0.7406 0.01978 0.0
H483 H 0.28709 0.75115 0.33416 0.0
H484 H 0.25067 0.7074 0.17813 0.0
S485 S 0.35122 0.82434 0.88234 0.0
N486 N 0.35623 0.83052 0.0331 0.0
N487 N 0.31652 0.78417 0.86458 0.0
C488 C 0.30771 0.77387 -0.01553 0.0
C489 C 0.32899 0.79908 0.07559 0.0
C490 C 0.5085 0.51142 0.00215 0.0
C491 C 0.53072 0.54764 0.00736 0.0
C492 C 0.46983 0.49394 0.03409 0.0
C493 C 0.45097 0.5116 0.07301 0.0
H494 H 0.52111 0.49609 0.97449 0.0
H495 H 0.45466 0.46602 0.02847 0.0
S496 S 0.49539 0.60672 0.09914 0.0
N497 N 0.5305 0.60087 0.05193 0.0
N498 N 0.45751 0.56781 0.11121 0.0
C499 C 0.47241 0.54792 0.0758 0.0
C500 C 0.51222 0.56592 0.04337 0.0
C501 C 0.999 0.86885 0.61252 0.0
C502 C 0.97684 0.83545 0.66599 0.0
C503 C 0.98408 0.89135 0.59267 0.0
C504 C 0.94632 0.88158 0.62608 0.0
H505 H 1.02781 0.87731 0.58222 0.0
H506 H 1.0018 0.916 0.54716 0.0
S507 S 0.87814 0.79911 0.78569 0.0
N508 N 0.91618 0.79562 0.76183 0.0
N509 N 0.88876 0.83713 0.72814 0.0
C510 C 0.92478 0.84895 0.68542 0.0
C511 C 0.93975 0.82619 0.70426 0.0
C512 C 0.43681 0.12961 0.72341 0.0
C513 C 0.42467 0.15271 0.68583 0.0
C514 C 0.4259 0.09889 0.65871 0.0
C515 C 0.40338 0.09077 0.5525 0.0
H516 H 0.45634 0.13615 0.79965 0.0
H517 H 0.43734 0.08265 0.68635 0.0
S518 S 0.36284 0.14155 0.41893 0.0
N519 N 0.38704 0.16416 0.53967 0.0
N520 N 0.36765 0.107 0.41655 0.0
C521 C 0.38969 0.11277 0.51747 0.0
C522 C 0.40001 0.14359 0.58468 0.0
C523 C 0.19888 0.33156 0.40931 0.0
C524 C 0.17794 0.34436 0.47054 0.0
C525 C 0.22621 0.35118 0.3187 0.0
C526 C 0.23427 0.38479 0.28593 0.0
H527 H 0.19435 0.3062 0.43249 0.0
H528 H 0.2423 0.34032 0.27796 0.0
S529 S 0.18562 0.42957 0.41467 0.0
N530 N 0.16559 0.39201 0.48818 0.0
N531 N 0.21717 0.42916 0.31866 0.0
C532 C 0.21231 0.39735 0.34291 0.0
C533 C 0.18419 0.37714 0.43497 0.0
C534 C 0.35753 0.31577 0.58577 0.0
C535 C 0.36089 0.28662 0.56297 0.0
C536 C 0.35402 0.33454 0.48777 0.0
C537 C 0.35471 0.32525 0.36361 0.0
H538 H 0.35924 0.32483 0.67954 0.0
H539 H 0.35263 0.35745 0.5093 0.0
S540 S 0.35948 0.24872 0.25816 0.0
N541 N 0.36209 0.24764 0.41042 0.0
N542 N 0.35572 0.28299 0.22516 0.0
C543 C 0.35644 0.29516 0.34056 0.0
C544 C 0.35954 0.27586 0.4406 0.0
C545 C 1.01928 0.12476 0.62753 0.0
C546 C 0.98235 0.09569 0.61859 0.0
C547 C 1.02551 0.15844 0.64897 0.0
C548 C 0.99518 0.16507 0.66243 0.0
H549 H 0.04384 0.12155 0.61793 0.0
H550 H 0.05454 0.17955 0.65373 0.0
S551 S 0.89265 0.09854 0.64663 0.0
N552 N 0.91484 0.07657 0.62436 0.0
N553 N 0.92637 0.13899 0.66606 0.0
C554 C 0.95806 0.13621 0.65509 0.0
C555 C 0.9517 0.10191 0.63311 0.0
C556 C 0.20764 0.85296 0.53394 0.0
C557 C 0.1923 0.87385 0.56776 0.0
C558 C 0.24457 0.86741 0.4835 0.0
C559 C 0.26769 0.90337 0.46382 0.0
H560 H 0.19156 0.82539 0.55116 0.0
H561 H 0.25543 0.85022 0.46336 0.0
S562 S 0.23866 0.96879 0.52176 0.0
N563 N 0.20156 0.9319 0.56655 0.0
N564 N 0.27071 0.95905 0.47307 0.0
C565 C 0.25181 0.92429 0.49159 0.0
C566 C 0.21428 0.90957 0.54325 0.0
loop_
_geom_bond_atom_site_label_1
_geom_bond_atom_site_label_2
_geom_bond_distance
_geom_bond_site_symmetry_2
_ccdc_geom_bond_type
Co0 N5 2.057 . S
Co0 O17 2.021 1_554 S
Co0 O20 2.062 1_554 S
Co0 O24 2.117 . S
Co0 O25 2.020 . S
C1 O21 1.259 . S
C1 O24 1.258 . S
Co2 N11 2.057 1_554 S
Co2 O18 2.117 1_554 S
Co2 O19 2.020 1_554 S
Co2 O21 2.021 . S
Co2 O26 2.062 . S
C3 N5 1.316 . S
C3 N6 1.347 . S
C3 H8 0.931 1_554 S
C4 N5 1.375 . S
C4 C7 1.350 . S
C4 H9 0.930 . S
N5 Co0 2.057 . S
N5 C3 1.316 . S
N5 C4 1.375 . S
N6 C3 1.347 . S
N6 C7 1.373 . S
C7 C4 1.350 . S
C7 N6 1.373 . S
C7 H28 0.931 . S
H8 C3 0.931 1_556 S
H9 C4 0.930 . S
C10 O17 1.259 . S
C10 O18 1.258 . S
N11 Co2 2.057 1_556 S
N11 C12 1.316 1_456 S
N11 C13 1.375 . S
C12 N11 1.316 1_654 S
C12 N14 1.347 1_554 S
C12 H23 0.931 . S
C13 N11 1.375 . S
C13 C15 1.350 1_455 S
C13 H22 0.930 . S
N14 C12 1.347 1_556 S
N14 C15 1.373 . S
C15 C13 1.350 1_655 S
C15 N14 1.373 . S
C15 H29 0.931 . S
C16 O19 1.256 . S
C16 O20 1.255 . S
O17 Co0 2.021 1_556 S
O17 C10 1.259 . S
O18 Co2 2.117 1_556 S
O18 C10 1.258 . S
O19 Co2 2.020 1_556 S
O19 C16 1.256 . S
O20 Co0 2.062 1_556 S
O20 C16 1.255 . S
O21 C1 1.259 . S
O21 Co2 2.021 . S
H22 C13 0.930 . S
H23 C12 0.931 . S
O24 Co0 2.117 . S
O24 C1 1.258 . S
O25 Co0 2.020 . S
O25 C27 1.256 . S
O26 Co2 2.062 . S
O26 C27 1.255 . S
C27 O25 1.256 . S
C27 O26 1.255 . S
H28 C7 0.931 . S
H29 C15 0.931 . S
Co30 N35 2.057 . S
Co30 O47 2.021 . S
Co30 O50 2.062 . S
Co30 O54 2.117 1_554 S
Co30 O55 2.020 . S
C31 O51 1.259 . S
C31 O54 1.258 . S
Co32 N41 2.057 . S
Co32 O48 2.117 . S
Co32 O49 2.020 . S
Co32 O51 2.021 1_554 S
Co32 O56 2.062 . S
C33 N35 1.316 . S
C33 N36 1.347 . S
C33 H38 0.931 . S
C34 N35 1.375 1_556 S
C34 C37 1.350 . S
C34 H39 0.930 . S
N35 Co30 2.057 . S
N35 C33 1.316 . S
N35 C34 1.375 1_554 S
N36 C33 1.347 . S
N36 C37 1.373 1_554 S
C37 C34 1.350 . S
C37 N36 1.373 1_556 S
C37 H58 0.931 . S
H38 C33 0.931 . S
H39 C34 0.930 . S
C40 O47 1.259 . S
C40 O48 1.258 . S
N41 Co32 2.057 . S
N41 C42 1.316 . S
N41 C43 1.375 . S
C42 N41 1.316 . S
C42 N44 1.347 . S
C42 H53 0.931 . S
C43 N41 1.375 . S
C43 C45 1.350 . S
C43 H52 0.930 . S
N44 C42 1.347 . S
N44 C45 1.373 . S
C45 C43 1.350 . S
C45 N44 1.373 . S
C45 H59 0.931 . S
C46 O49 1.256 . S
C46 O50 1.255 . S
O47 Co30 2.021 . S
O47 C40 1.259 . S
O48 Co32 2.117 . S
O48 C40 1.258 . S
O49 Co32 2.020 . S
O49 C46 1.256 . S
O50 Co30 2.062 . S
O50 C46 1.255 . S
O51 C31 1.259 . S
O51 Co32 2.021 1_556 S
H52 C43 0.930 . S
H53 C42 0.931 . S
O54 Co30 2.117 1_556 S
O54 C31 1.258 . S
O55 Co30 2.020 . S
O55 C57 1.256 . S
O56 Co32 2.062 . S
O56 C57 1.255 . S
C57 O55 1.256 . S
C57 O56 1.255 . S
H58 C37 0.931 . S
H59 C45 0.931 . S
Co60 N65 2.057 1_545 S
Co60 O77 2.021 . S
Co60 O80 2.062 . S
Co60 O84 2.117 . S
Co60 O85 2.020 1_545 S
C61 O81 1.259 . S
C61 O84 1.258 . S
Co62 N71 2.057 . S
Co62 O78 2.117 . S
Co62 O79 2.020 . S
Co62 O81 2.021 . S
Co62 O86 2.062 . S
C63 N65 1.316 . S
C63 N66 1.347 . S
C63 H68 0.931 . S
C64 N65 1.375 . S
C64 C67 1.350 . S
C64 H69 0.930 . S
N65 Co60 2.057 1_565 S
N65 C63 1.316 . S
N65 C64 1.375 . S
N66 C63 1.347 . S
N66 C67 1.373 . S
C67 C64 1.350 . S
C67 N66 1.373 . S
C67 H88 0.931 . S
H68 C63 0.931 . S
H69 C64 0.930 . S
C70 O77 1.259 1_556 S
C70 O78 1.258 1_556 S
N71 Co62 2.057 . S
N71 C72 1.316 . S
N71 C73 1.375 1_554 S
C72 N71 1.316 . S
C72 N74 1.347 . S
C72 H83 0.931 . S
C73 N71 1.375 1_556 S
C73 C75 1.350 . S
C73 H82 0.930 . S
N74 C72 1.347 . S
N74 C75 1.373 1_554 S
C75 C73 1.350 . S
C75 N74 1.373 1_556 S
C75 H89 0.931 . S
C76 O79 1.256 . S
C76 O80 1.255 . S
O77 Co60 2.021 . S
O77 C70 1.259 1_554 S
O78 Co62 2.117 . S
O78 C70 1.258 1_554 S
O79 Co62 2.020 . S
O79 C76 1.256 . S
O80 Co60 2.062 . S
O80 C76 1.255 . S
O81 C61 1.259 . S
O81 Co62 2.021 . S
H82 C73 0.930 . S
H83 C72 0.931 . S
O84 Co60 2.117 . S
O84 C61 1.258 . S
O85 Co60 2.020 1_565 S
O85 C87 1.256 1_565 S
O86 Co62 2.062 . S
O86 C87 1.255 . S
C87 O85 1.256 1_545 S
C87 O86 1.255 . S
H88 C67 0.931 . S
H89 C75 0.931 . S
Co90 N95 2.057 1_565 S
Co90 O107 2.021 . S
Co90 O110 2.062 . S
Co90 O114 2.117 . S
Co90 O115 2.020 . S
C91 O111 1.259 . S
C91 O114 1.258 . S
Co92 N101 2.057 . S
Co92 O108 2.117 . S
Co92 O109 2.020 . S
Co92 O111 2.021 . S
Co92 O116 2.062 . S
C93 N95 1.316 . S
C93 N96 1.347 . S
C93 H98 0.931 . S
C94 N95 1.375 . S
C94 C97 1.350 . S
C94 H99 0.930 . S
N95 Co90 2.057 1_545 S
N95 C93 1.316 . S
N95 C94 1.375 . S
N96 C93 1.347 . S
N96 C97 1.373 . S
C97 C94 1.350 . S
C97 N96 1.373 . S
C97 H118 0.931 . S
H98 C93 0.931 . S
H99 C94 0.930 . S
C100 O107 1.259 . S
C100 O108 1.258 . S
N101 Co92 2.057 . S
N101 C102 1.316 . S
N101 C103 1.375 . S
C102 N101 1.316 . S
C102 N104 1.347 . S
C102 H113 0.931 . S
C103 N101 1.375 . S
C103 C105 1.350 . S
C103 H112 0.930 . S
N104 C102 1.347 . S
N104 C105 1.373 . S
C105 C103 1.350 . S
C105 N104 1.373 . S
C105 H119 0.931 . S
C106 O109 1.256 . S
C106 O110 1.255 . S
O107 Co90 2.021 . S
O107 C100 1.259 . S
O108 Co92 2.117 . S
O108 C100 1.258 . S
O109 Co92 2.020 . S
O109 C106 1.256 . S
O110 Co90 2.062 . S
O110 C106 1.255 . S
O111 C91 1.259 . S
O111 Co92 2.021 . S
H112 C103 0.930 . S
H113 C102 0.931 . S
O114 Co90 2.117 . S
O114 C91 1.258 . S
O115 Co90 2.020 . S
O115 C117 1.256 . S
O116 Co92 2.062 . S
O116 C117 1.255 . S
C117 O115 1.256 . S
C117 O116 1.255 . S
H118 C97 0.931 . S
H119 C105 0.931 . S
Co120 N125 2.057 . S
Co120 O137 2.021 . S
Co120 O140 2.062 . S
Co120 O144 2.117 . S
Co120 O145 2.020 . S
C121 O141 1.259 . S
C121 O144 1.258 . S
Co122 N131 2.057 1_565 S
Co122 O138 2.117 . S
Co122 O139 2.020 . S
Co122 O141 2.021 . S
Co122 O146 2.062 . S
C123 N125 1.316 . S
C123 N126 1.347 . S
C123 H128 0.931 . S
C124 N125 1.375 . S
C124 C127 1.350 . S
C124 H129 0.930 . S
N125 Co120 2.057 . S
N125 C123 1.316 . S
N125 C124 1.375 . S
N126 C123 1.347 . S
N126 C127 1.373 . S
C127 C124 1.350 . S
C127 N126 1.373 . S
C127 H148 0.931 . S
H128 C123 0.931 . S
H129 C124 0.930 . S
C130 O137 1.259 . S
C130 O138 1.258 . S
N131 Co122 2.057 1_545 S
N131 C132 1.316 . S
N131 C133 1.375 . S
C132 N131 1.316 . S
C132 N134 1.347 . S
C132 H143 0.931 . S
C133 N131 1.375 . S
C133 C135 1.350 . S
C133 H142 0.930 . S
N134 C132 1.347 . S
N134 C135 1.373 . S
C135 C133 1.350 . S
C135 N134 1.373 . S
C135 H149 0.931 . S
C136 O139 1.256 . S
C136 O140 1.255 . S
O137 Co120 2.021 . S
O137 C130 1.259 . S
O138 Co122 2.117 . S
O138 C130 1.258 . S
O139 Co122 2.020 . S
O139 C136 1.256 . S
O140 Co120 2.062 . S
O140 C136 1.255 . S
O141 C121 1.259 . S
O141 Co122 2.021 . S
H142 C133 0.930 . S
H143 C132 0.931 . S
O144 Co120 2.117 . S
O144 C121 1.258 . S
O145 Co120 2.020 . S
O145 C147 1.256 . S
O146 Co122 2.062 . S
O146 C147 1.255 . S
C147 O145 1.256 . S
C147 O146 1.255 . S
H148 C127 0.931 . S
H149 C135 0.931 . S
Co150 N155 2.057 . S
Co150 O167 2.021 . S
Co150 O170 2.062 . S
Co150 O174 2.117 . S
Co150 O175 2.020 . S
C151 O171 1.259 . S
C151 O174 1.258 . S
Co152 N161 2.057 . S
Co152 O168 2.117 . S
Co152 O169 2.020 . S
Co152 O171 2.021 . S
Co152 O176 2.062 . S
C153 N155 1.316 . S
C153 N156 1.347 . S
C153 H158 0.931 . S
C154 N155 1.375 . S
C154 C157 1.350 . S
C154 H159 0.930 . S
N155 Co150 2.057 . S
N155 C153 1.316 . S
N155 C154 1.375 . S
N156 C153 1.347 . S
N156 C157 1.373 . S
C157 C154 1.350 . S
C157 N156 1.373 . S
C157 H178 0.931 . S
H158 C153 0.931 . S
H159 C154 0.930 . S
C160 O167 1.259 1_556 S
C160 O168 1.258 1_556 S
N161 Co152 2.057 . S
N161 C162 1.316 . S
N161 C163 1.375 . S
C162 N161 1.316 . S
C162 N164 1.347 . S
C162 H173 0.931 . S
C163 N161 1.375 . S
C163 C165 1.350 . S
C163 H172 0.930 1_554 S
N164 C162 1.347 . S
N164 C165 1.373 . S
C165 C163 1.350 . S
C165 N164 1.373 . S
C165 H179 0.931 1_554 S
C166 O169 1.256 . S
C166 O170 1.255 . S
O167 Co150 2.021 . S
O167 C160 1.259 1_554 S
O168 Co152 2.117 . S
O168 C160 1.258 1_554 S
O169 Co152 2.020 . S
O169 C166 1.256 . S
O170 Co150 2.062 . S
O170 C166 1.255 . S
O171 C151 1.259 . S
O171 Co152 2.021 . S
H172 C163 0.930 1_556 S
H173 C162 0.931 . S
O174 Co150 2.117 . S
O174 C151 1.258 . S
O175 Co150 2.020 . S
O175 C177 1.256 . S
O176 Co152 2.062 . S
O176 C177 1.255 . S
C177 O175 1.256 . S
C177 O176 1.255 . S
H178 C157 0.931 . S
H179 C165 0.931 1_556 S
Co180 N185 2.057 . S
Co180 O197 2.021 . S
Co180 O200 2.062 . S
Co180 O204 2.117 . S
Co180 O205 2.020 . S
C181 O201 1.259 . S
C181 O204 1.258 . S
Co182 N191 2.057 . S
Co182 O198 2.117 . S
Co182 O199 2.020 . S
Co182 O201 2.021 . S
Co182 O206 2.062 . S
C183 N185 1.316 . S
C183 N186 1.347 . S
C183 H188 0.931 . S
C184 N185 1.375 . S
C184 C187 1.350 . S
C184 H189 0.930 . S
N185 Co180 2.057 . S
N185 C183 1.316 . S
N185 C184 1.375 . S
N186 C183 1.347 . S
N186 C187 1.373 . S
C187 C184 1.350 . S
C187 N186 1.373 . S
C187 H208 0.931 . S
H188 C183 0.931 . S
H189 C184 0.930 . S
C190 O197 1.259 . S
C190 O198 1.258 . S
N191 Co182 2.057 . S
N191 C192 1.316 . S
N191 C193 1.375 . S
C192 N191 1.316 . S
C192 N194 1.347 . S
C192 H203 0.931 . S
C193 N191 1.375 . S
C193 C195 1.350 . S
C193 H202 0.930 . S
N194 C192 1.347 . S
N194 C195 1.373 . S
C195 C193 1.350 . S
C195 N194 1.373 . S
C195 H209 0.931 . S
C196 O199 1.256 . S
C196 O200 1.255 . S
O197 Co180 2.021 . S
O197 C190 1.259 . S
O198 Co182 2.117 . S
O198 C190 1.258 . S
O199 Co182 2.020 . S
O199 C196 1.256 . S
O200 Co180 2.062 . S
O200 C196 1.255 . S
O201 C181 1.259 . S
O201 Co182 2.021 . S
H202 C193 0.930 . S
H203 C192 0.931 . S
O204 Co180 2.117 . S
O204 C181 1.258 . S
O205 Co180 2.020 . S
O205 C207 1.256 . S
O206 Co182 2.062 . S
O206 C207 1.255 . S
C207 O205 1.256 . S
C207 O206 1.255 . S
H208 C187 0.931 . S
H209 C195 0.931 . S
Co210 N215 2.057 . S
Co210 O227 2.021 . S
Co210 O230 2.062 1_455 S
Co210 O234 2.117 . S
Co210 O235 2.020 . S
C211 O231 1.259 . S
C211 O234 1.258 1_655 S
Co212 N221 2.057 . S
Co212 O228 2.117 . S
Co212 O229 2.020 . S
Co212 O231 2.021 . S
Co212 O236 2.062 . S
C213 N215 1.316 . S
C213 N216 1.347 . S
C213 H218 0.931 . S
C214 N215 1.375 . S
C214 C217 1.350 . S
C214 H219 0.930 . S
N215 Co210 2.057 . S
N215 C213 1.316 . S
N215 C214 1.375 . S
N216 C213 1.347 . S
N216 C217 1.373 . S
C217 C214 1.350 . S
C217 N216 1.373 . S
C217 H238 0.931 . S
H218 C213 0.931 . S
H219 C214 0.930 . S
C220 O227 1.259 1_655 S
C220 O228 1.258 . S
N221 Co212 2.057 . S
N221 C222 1.316 . S
N221 C223 1.375 . S
C222 N221 1.316 . S
C222 N224 1.347 . S
C222 H233 0.931 . S
C223 N221 1.375 . S
C223 C225 1.350 . S
C223 H232 0.930 . S
N224 C222 1.347 . S
N224 C225 1.373 . S
C225 C223 1.350 . S
C225 N224 1.373 . S
C225 H239 0.931 . S
C226 O229 1.256 . S
C226 O230 1.255 . S
O227 Co210 2.021 . S
O227 C220 1.259 1_455 S
O228 Co212 2.117 . S
O228 C220 1.258 . S
O229 Co212 2.020 . S
O229 C226 1.256 . S
O230 Co210 2.062 1_655 S
O230 C226 1.255 . S
O231 C211 1.259 . S
O231 Co212 2.021 . S
H232 C223 0.930 . S
H233 C222 0.931 . S
O234 Co210 2.117 . S
O234 C211 1.258 1_455 S
O235 Co210 2.020 . S
O235 C237 1.256 1_455 S
O236 Co212 2.062 . S
O236 C237 1.255 . S
C237 O235 1.256 1_655 S
C237 O236 1.255 . S
H238 C217 0.931 . S
H239 C225 0.931 . S
Co240 N245 2.057 . S
Co240 O257 2.021 . S
Co240 O260 2.062 . S
Co240 O264 2.117 . S
Co240 O265 2.020 . S
C241 O261 1.259 . S
C241 O264 1.258 . S
Co242 N251 2.057 . S
Co242 O258 2.117 . S
Co242 O259 2.020 . S
Co242 O261 2.021 1_455 S
Co242 O266 2.062 1_455 S
C243 N245 1.316 . S
C243 N246 1.347 . S
C243 H248 0.931 . S
C244 N245 1.375 . S
C244 C247 1.350 . S
C244 H249 0.930 . S
N245 Co240 2.057 . S
N245 C243 1.316 . S
N245 C244 1.375 . S
N246 C243 1.347 . S
N246 C247 1.373 . S
C247 C244 1.350 . S
C247 N246 1.373 . S
C247 H268 0.931 . S
H248 C243 0.931 . S
H249 C244 0.930 . S
C250 O257 1.259 . S
C250 O258 1.258 1_655 S
N251 Co242 2.057 . S
N251 C252 1.316 . S
N251 C253 1.375 . S
C252 N251 1.316 . S
C252 N254 1.347 . S
C252 H263 0.931 . S
C253 N251 1.375 . S
C253 C255 1.350 . S
C253 H262 0.930 . S
N254 C252 1.347 . S
N254 C255 1.373 . S
C255 C253 1.350 . S
C255 N254 1.373 . S
C255 H269 0.931 . S
C256 O259 1.256 1_655 S
C256 O260 1.255 . S
O257 Co240 2.021 . S
O257 C250 1.259 . S
O258 Co242 2.117 . S
O258 C250 1.258 1_455 S
O259 Co242 2.020 . S
O259 C256 1.256 1_455 S
O260 Co240 2.062 . S
O260 C256 1.255 . S
O261 C241 1.259 . S
O261 Co242 2.021 1_655 S
H262 C253 0.930 . S
H263 C252 0.931 . S
O264 Co240 2.117 . S
O264 C241 1.258 . S
O265 Co240 2.020 . S
O265 C267 1.256 . S
O266 Co242 2.062 1_655 S
O266 C267 1.255 . S
C267 O265 1.256 . S
C267 O266 1.255 . S
H268 C247 0.931 . S
H269 C255 0.931 . S
C270 C271 1.369 . S
C270 C272 1.419 . S
C270 H274 0.930 . S
C271 C270 1.369 . S
C271 C280 1.429 . S
C272 C270 1.419 . S
C272 C273 1.363 . S
C272 H275 0.929 . S
C273 C272 1.363 . S
C273 C279 1.428 . S
H274 C270 0.930 . S
H275 C272 0.929 . S
S276 N277 1.613 . S
S276 N278 1.610 . S
N277 S276 1.613 . S
N277 C280 1.350 . S
N278 S276 1.610 . S
N278 C279 1.351 . S
C279 C273 1.428 . S
C279 N278 1.351 . S
C279 C280 1.434 . S
C280 C271 1.429 . S
C280 N277 1.350 . S
C280 C279 1.434 . S
C281 C282 1.369 . S
C281 C283 1.419 . S
C281 H285 0.930 . S
C282 C281 1.369 . S
C282 C291 1.429 . S
C283 C281 1.419 . S
C283 C284 1.363 . S
C283 H286 0.929 . S
C284 C283 1.363 . S
C284 C290 1.428 . S
H285 C281 0.930 . S
H286 C283 0.929 . S
S287 N288 1.613 . S
S287 N289 1.610 . S
N288 S287 1.613 . S
N288 C291 1.350 . S
N289 S287 1.610 . S
N289 C290 1.351 . S
C290 C284 1.428 . S
C290 N289 1.351 . S
C290 C291 1.434 . S
C291 C282 1.429 . S
C291 N288 1.350 . S
C291 C290 1.434 . S
C292 C293 1.369 . S
C292 C294 1.419 . S
C292 H296 0.930 . S
C293 C292 1.369 . S
C293 C302 1.429 . S
C294 C292 1.419 . S
C294 C295 1.363 . S
C294 H297 0.929 . S
C295 C294 1.363 . S
C295 C301 1.428 . S
H296 C292 0.930 . S
H297 C294 0.929 . S
S298 N299 1.613 . S
S298 N300 1.610 . S
N299 S298 1.613 . S
N299 C302 1.350 . S
N300 S298 1.610 . S
N300 C301 1.351 . S
C301 C295 1.428 . S
C301 N300 1.351 . S
C301 C302 1.434 . S
C302 C293 1.429 . S
C302 N299 1.350 . S
C302 C301 1.434 . S
C303 C304 1.369 . S
C303 C305 1.419 . S
C303 H307 0.930 . S
C304 C303 1.369 . S
C304 C313 1.429 . S
C305 C303 1.419 . S
C305 C306 1.363 1_556 S
C305 H308 0.929 1_556 S
C306 C305 1.363 1_554 S
C306 C312 1.428 . S
H307 C303 0.930 . S
H308 C305 0.929 1_554 S
S309 N310 1.613 . S
S309 N311 1.610 1_556 S
N310 S309 1.613 . S
N310 C313 1.350 . S
N311 S309 1.610 1_554 S
N311 C312 1.351 . S
C312 C306 1.428 . S
C312 N311 1.351 . S
C312 C313 1.434 1_554 S
C313 C304 1.429 . S
C313 N310 1.350 . S
C313 C312 1.434 1_556 S
C314 C315 1.369 . S
C314 C316 1.419 . S
C314 H318 0.930 . S
C315 C314 1.369 . S
C315 C324 1.429 . S
C316 C314 1.419 . S
C316 C317 1.363 . S
C316 H319 0.929 . S
C317 C316 1.363 . S
C317 C323 1.428 . S
H318 C314 0.930 . S
H319 C316 0.929 . S
S320 N321 1.613 . S
S320 N322 1.610 . S
N321 S320 1.613 . S
N321 C324 1.350 . S
N322 S320 1.610 . S
N322 C323 1.351 . S
C323 C317 1.428 . S
C323 N322 1.351 . S
C323 C324 1.434 . S
C324 C315 1.429 . S
C324 N321 1.350 . S
C324 C323 1.434 . S
C325 C326 1.369 . S
C325 C327 1.419 . S
C325 H329 0.930 . S
C326 C325 1.369 . S
C326 C335 1.429 . S
C327 C325 1.419 . S
C327 C328 1.363 . S
C327 H330 0.929 . S
C328 C327 1.363 . S
C328 C334 1.428 . S
H329 C325 0.930 . S
H330 C327 0.929 . S
S331 N332 1.613 . S
S331 N333 1.610 . S
N332 S331 1.613 . S
N332 C335 1.350 . S
N333 S331 1.610 . S
N333 C334 1.351 . S
C334 C328 1.428 . S
C334 N333 1.351 . S
C334 C335 1.434 . S
C335 C326 1.429 . S
C335 N332 1.350 . S
C335 C334 1.434 . S
C336 C337 1.369 . S
C336 C338 1.419 . S
C336 H340 0.930 . S
C337 C336 1.369 . S
C337 C346 1.429 . S
C338 C336 1.419 . S
C338 C339 1.363 . S
C338 H341 0.929 . S
C339 C338 1.363 . S
C339 C345 1.428 . S
H340 C336 0.930 . S
H341 C338 0.929 . S
S342 N343 1.613 . S
S342 N344 1.610 . S
N343 S342 1.613 . S
N343 C346 1.350 . S
N344 S342 1.610 . S
N344 C345 1.351 . S
C345 C339 1.428 . S
C345 N344 1.351 . S
C345 C346 1.434 . S
C346 C337 1.429 . S
C346 N343 1.350 . S
C346 C345 1.434 . S
C347 C348 1.369 . S
C347 C349 1.417 1_655 S
C347 H351 0.930 1_655 S
C348 C347 1.369 . S
C348 C357 1.429 . S
C349 C347 1.417 1_455 S
C349 C350 1.359 1_455 S
C349 H352 0.935 . S
C350 C349 1.359 1_655 S
C350 C356 1.428 . S
H351 C347 0.930 1_455 S
H352 C349 0.935 . S
S353 N354 1.613 . S
S353 N355 1.610 . S
N354 S353 1.613 . S
N354 C357 1.350 . S
N355 S353 1.610 . S
N355 C356 1.351 . S
C356 C350 1.428 . S
C356 N355 1.351 . S
C356 C357 1.434 . S
C357 C348 1.429 . S
C357 N354 1.350 . S
C357 C356 1.434 . S
C358 C359 1.369 . S
C358 C360 1.419 . S
C358 H362 0.930 1_655 S
C359 C358 1.369 . S
C359 C368 1.429 . S
C360 C358 1.419 . S
C360 C361 1.363 . S
C360 H363 0.929 1_655 S
C361 C360 1.363 . S
C361 C367 1.428 . S
H362 C358 0.930 1_455 S
H363 C360 0.929 1_455 S
S364 N365 1.613 . S
S364 N366 1.610 . S
N365 S364 1.613 . S
N365 C368 1.350 . S
N366 S364 1.610 . S
N366 C367 1.351 . S
C367 C361 1.428 . S
C367 N366 1.351 . S
C367 C368 1.434 . S
C368 C359 1.429 . S
C368 N365 1.350 . S
C368 C367 1.434 . S
C369 C370 1.369 . S
C369 C371 1.419 1_554 S
C369 H373 0.930 1_554 S
C370 C369 1.369 . S
C370 C379 1.429 . S
C371 C369 1.419 1_556 S
C371 C372 1.363 1_556 S
C371 H374 0.929 . S
C372 C371 1.363 1_554 S
C372 C378 1.428 . S
H373 C369 0.930 1_556 S
H374 C371 0.929 . S
S375 N376 1.613 . S
S375 N377 1.610 . S
N376 S375 1.613 . S
N376 C379 1.350 . S
N377 S375 1.610 . S
N377 C378 1.351 . S
C378 C372 1.428 . S
C378 N377 1.351 . S
C378 C379 1.434 . S
C379 C370 1.429 . S
C379 N376 1.350 . S
C379 C378 1.434 . S
C380 C381 1.369 . S
C380 C382 1.419 . S
C380 H384 0.930 . S
C381 C380 1.369 . S
C381 C390 1.429 . S
C382 C380 1.419 . S
C382 C383 1.363 . S
C382 H385 0.929 . S
C383 C382 1.363 . S
C383 C389 1.428 . S
H384 C380 0.930 . S
H385 C382 0.929 . S
S386 N387 1.613 . S
S386 N388 1.610 . S
N387 S386 1.613 . S
N387 C390 1.350 . S
N388 S386 1.610 . S
N388 C389 1.351 . S
C389 C383 1.428 . S
C389 N388 1.351 . S
C389 C390 1.434 . S
C390 C381 1.429 . S
C390 N387 1.350 . S
C390 C389 1.434 . S
C391 C392 1.369 . S
C391 C393 1.419 . S
C391 H395 0.930 . S
C392 C391 1.369 . S
C392 C401 1.429 . S
C393 C391 1.419 . S
C393 C394 1.363 . S
C393 H396 0.929 . S
C394 C393 1.363 . S
C394 C400 1.428 . S
H395 C391 0.930 . S
H396 C393 0.929 . S
S397 N398 1.613 1_556 S
S397 N399 1.610 1_556 S
N398 S397 1.613 1_554 S
N398 C401 1.350 . S
N399 S397 1.610 1_554 S
N399 C400 1.351 . S
C400 C394 1.428 . S
C400 N399 1.351 . S
C400 C401 1.434 . S
C401 C392 1.429 . S
C401 N398 1.350 . S
C401 C400 1.434 . S
C402 C403 1.369 . S
C402 C404 1.419 1_554 S
C402 H406 0.930 . S
C403 C402 1.369 . S
C403 C412 1.429 . S
C404 C402 1.419 1_556 S
C404 C405 1.363 . S
C404 H407 0.929 . S
C405 C404 1.363 . S
C405 C411 1.428 . S
H406 C402 0.930 . S
H407 C404 0.929 . S
S408 N409 1.613 . S
S408 N410 1.610 1_554 S
N409 S408 1.613 . S
N409 C412 1.350 . S
N410 S408 1.610 1_556 S
N410 C411 1.351 . S
C411 C405 1.428 . S
C411 N410 1.351 . S
C411 C412 1.434 1_556 S
C412 C403 1.429 . S
C412 N409 1.350 . S
C412 C411 1.434 1_554 S
C413 C414 1.369 . S
C413 C415 1.419 . S
C413 H417 0.930 . S
C414 C413 1.369 . S
C414 C423 1.423 1_655 S
C415 C413 1.419 . S
C415 C416 1.363 . S
C415 H418 0.929 . S
C416 C415 1.363 . S
C416 C422 1.428 . S
H417 C413 0.930 . S
H418 C415 0.929 . S
S419 N420 1.613 1_554 S
S419 N421 1.610 . S
N420 S419 1.613 1_556 S
N420 C423 1.365 . S
N421 S419 1.610 . S
N421 C422 1.351 1_454 S
C422 C416 1.428 . S
C422 N421 1.351 1_656 S
C422 C423 1.425 1_655 S
C423 C414 1.423 1_455 S
C423 N420 1.365 . S
C423 C422 1.425 1_455 S
C424 C425 1.369 1_554 S
C424 C426 1.419 . S
C424 H428 0.930 . S
C425 C424 1.369 1_556 S
C425 C434 1.429 . S
C426 C424 1.419 . S
C426 C427 1.363 . S
C426 H429 0.929 . S
C427 C426 1.363 . S
C427 C433 1.428 1_554 S
H428 C424 0.930 . S
H429 C426 0.929 . S
S430 N431 1.613 . S
S430 N432 1.610 . S
N431 S430 1.613 . S
N431 C434 1.350 . S
N432 S430 1.610 . S
N432 C433 1.351 . S
C433 C427 1.428 1_556 S
C433 N432 1.351 . S
C433 C434 1.434 . S
C434 C425 1.429 . S
C434 N431 1.350 . S
C434 C433 1.434 . S
C435 C436 1.375 1_655 S
C435 C437 1.408 1_655 S
C435 H439 0.934 . S
C436 C435 1.375 1_455 S
C436 C445 1.428 . S
C437 C435 1.408 1_455 S
C437 C438 1.363 . S
C437 H440 0.929 . S
C438 C437 1.363 . S
C438 C444 1.428 1_556 S
H439 C435 0.934 . S
H440 C437 0.929 . S
S441 N442 1.613 . S
S441 N443 1.610 . S
N442 S441 1.613 . S
N442 C445 1.350 1_554 S
N443 S441 1.610 . S
N443 C444 1.351 . S
C444 C438 1.428 1_554 S
C444 N443 1.351 . S
C444 C445 1.434 1_554 S
C445 C436 1.428 . S
C445 N442 1.350 1_556 S
C445 C444 1.434 1_556 S
C446 C447 1.369 1_556 S
C446 C448 1.419 . S
C446 H450 0.930 . S
C447 C446 1.369 1_554 S
C447 C456 1.429 . S
C448 C446 1.419 . S
C448 C449 1.363 . S
C448 H451 0.929 . S
C449 C448 1.363 . S
C449 C455 1.428 . S
H450 C446 0.930 . S
H451 C448 0.929 . S
S452 N453 1.613 . S
S452 N454 1.610 1_554 S
N453 S452 1.613 . S
N453 C456 1.350 . S
N454 S452 1.610 1_556 S
N454 C455 1.351 . S
C455 C449 1.428 . S
C455 N454 1.351 . S
C455 C456 1.434 1_556 S
C456 C447 1.429 . S
C456 N453 1.350 . S
C456 C455 1.434 1_554 S
C457 C458 1.369 . S
C457 C459 1.419 1_556 S
C457 H461 0.930 . S
C458 C457 1.369 . S
C458 C467 1.429 1_556 S
C459 C457 1.419 1_554 S
C459 C460 1.363 . S
C459 H462 0.929 . S
C460 C459 1.363 . S
C460 C466 1.428 . S
H461 C457 0.930 . S
H462 C459 0.929 . S
S463 N464 1.613 . S
S463 N465 1.610 . S
N464 S463 1.613 . S
N464 C467 1.350 . S
N465 S463 1.610 . S
N465 C466 1.351 . S
C466 C460 1.428 . S
C466 N465 1.351 . S
C466 C467 1.434 . S
C467 C458 1.429 1_554 S
C467 N464 1.350 . S
C467 C466 1.434 . S
C468 C469 1.369 . S
C468 C470 1.419 . S
C468 H472 0.930 . S
C469 C468 1.369 . S
C469 C478 1.429 . S
C470 C468 1.419 . S
C470 C471 1.363 . S
C470 H473 0.929 . S
C471 C470 1.363 . S
C471 C477 1.428 . S
H472 C468 0.930 . S
H473 C470 0.929 . S
S474 N475 1.613 . S
S474 N476 1.636 . S
N475 S474 1.613 . S
N475 C478 1.350 1_545 S
N476 S474 1.636 . S
N476 C477 1.340 1_545 S
C477 C471 1.428 . S
C477 N476 1.340 1_565 S
C477 C478 1.434 . S
C478 C469 1.429 . S
C478 N475 1.350 1_565 S
C478 C477 1.434 . S
C479 C480 1.369 . S
C479 C481 1.419 . S
C479 H483 0.930 . S
C480 C479 1.369 . S
C480 C489 1.429 . S
C481 C479 1.419 . S
C481 C482 1.363 . S
C481 H484 0.929 . S
C482 C481 1.363 . S
C482 C488 1.428 . S
H483 C479 0.930 . S
H484 C481 0.929 . S
S485 N486 1.613 . S
S485 N487 1.610 1_554 S
N486 S485 1.613 . S
N486 C489 1.350 . S
N487 S485 1.610 1_556 S
N487 C488 1.351 1_556 S
C488 C482 1.428 . S
C488 N487 1.351 1_554 S
C488 C489 1.434 . S
C489 C480 1.429 . S
C489 N486 1.350 . S
C489 C488 1.434 . S
C490 C491 1.369 . S
C490 C492 1.419 . S
C490 H494 0.930 . S
C491 C490 1.369 . S
C491 C500 1.429 . S
C492 C490 1.419 . S
C492 C493 1.363 . S
C492 H495 0.929 . S
C493 C492 1.363 . S
C493 C499 1.428 . S
H494 C490 0.930 . S
H495 C492 0.929 . S
S496 N497 1.613 . S
S496 N498 1.610 . S
N497 S496 1.613 . S
N497 C500 1.350 . S
N498 S496 1.610 . S
N498 C499 1.351 . S
C499 C493 1.428 . S
C499 N498 1.351 . S
C499 C500 1.434 . S
C500 C491 1.429 . S
C500 N497 1.350 . S
C500 C499 1.434 . S
C501 C502 1.369 . S
C501 C503 1.419 . S
C501 H505 0.930 . S
C502 C501 1.369 . S
C502 C511 1.429 . S
C503 C501 1.419 . S
C503 C504 1.363 . S
C503 H506 0.929 . S
C504 C503 1.363 . S
C504 C510 1.428 . S
H505 C501 0.930 . S
H506 C503 0.929 . S
S507 N508 1.613 . S
S507 N509 1.610 . S
N508 S507 1.613 . S
N508 C511 1.350 . S
N509 S507 1.610 . S
N509 C510 1.351 . S
C510 C504 1.428 . S
C510 N509 1.351 . S
C510 C511 1.434 . S
C511 C502 1.429 . S
C511 N508 1.350 . S
C511 C510 1.434 . S
C512 C513 1.369 . S
C512 C514 1.419 . S
C512 H516 0.930 . S
C513 C512 1.369 . S
C513 C522 1.429 . S
C514 C512 1.419 . S
C514 C515 1.363 . S
C514 H517 0.929 . S
C515 C514 1.363 . S
C515 C521 1.428 . S
H516 C512 0.930 . S
H517 C514 0.929 . S
S518 N519 1.613 . S
S518 N520 1.610 . S
N519 S518 1.613 . S
N519 C522 1.350 . S
N520 S518 1.610 . S
N520 C521 1.351 . S
C521 C515 1.428 . S
C521 N520 1.351 . S
C521 C522 1.434 . S
C522 C513 1.429 . S
C522 N519 1.350 . S
C522 C521 1.434 . S
C523 C524 1.369 . S
C523 C525 1.419 . S
C523 H527 0.930 . S
C524 C523 1.369 . S
C524 C533 1.429 . S
C525 C523 1.419 . S
C525 C526 1.363 . S
C525 H528 0.929 . S
C526 C525 1.363 . S
C526 C532 1.428 . S
H527 C523 0.930 . S
H528 C525 0.929 . S
S529 N530 1.613 . S
S529 N531 1.610 . S
N530 S529 1.613 . S
N530 C533 1.350 . S
N531 S529 1.610 . S
N531 C532 1.351 . S
C532 C526 1.428 . S
C532 N531 1.351 . S
C532 C533 1.434 . S
C533 C524 1.429 . S
C533 N530 1.350 . S
C533 C532 1.434 . S
C534 C535 1.369 . S
C534 C536 1.419 . S
C534 H538 0.930 . S
C535 C534 1.369 . S
C535 C544 1.429 . S
C536 C534 1.419 . S
C536 C537 1.363 . S
C536 H539 0.929 . S
C537 C536 1.363 . S
C537 C543 1.428 . S
H538 C534 0.930 . S
H539 C536 0.929 . S
S540 N541 1.613 . S
S540 N542 1.610 . S
N541 S540 1.613 . S
N541 C544 1.350 . S
N542 S540 1.610 . S
N542 C543 1.351 . S
C543 C537 1.428 . S
C543 N542 1.351 . S
C543 C544 1.434 . S
C544 C535 1.429 . S
C544 N541 1.350 . S
C544 C543 1.434 . S
C545 C546 1.369 . S
C545 C547 1.419 . S
C545 H549 0.930 . S
C546 C545 1.369 . S
C546 C555 1.429 . S
C547 C545 1.419 . S
C547 C548 1.363 . S
C547 H550 0.929 . S
C548 C547 1.363 . S
C548 C554 1.428 . S
H549 C545 0.930 . S
H550 C547 0.929 . S
S551 N552 1.613 . S
S551 N553 1.610 . S
N552 S551 1.613 . S
N552 C555 1.350 . S
N553 S551 1.610 . S
N553 C554 1.351 . S
C554 C548 1.428 . S
C554 N553 1.351 . S
C554 C555 1.434 . S
C555 C546 1.429 . S
C555 N552 1.350 . S
C555 C554 1.434 . S
C556 C557 1.369 . S
C556 C558 1.419 . S
C556 H560 0.930 . S
C557 C556 1.369 . S
C557 C566 1.429 . S
C558 C556 1.419 . S
C558 C559 1.363 . S
C558 H561 0.929 . S
C559 C558 1.363 . S
C559 C565 1.428 . S
H560 C556 0.930 . S
H561 C558 0.929 . S
S562 N563 1.613 . S
S562 N564 1.610 . S
N563 S562 1.613 . S
N563 C566 1.350 . S
N564 S562 1.610 . S
N564 C565 1.351 . S
C565 C559 1.428 . S
C565 N564 1.351 . S
C565 C566 1.434 . S
C566 C557 1.429 . S
C566 N563 1.350 . S
C566 C565 1.434 . S
C271 C10 1.266 . S
C273 C1 1.264 . S
C282 C31 1.282 . S
C284 C40 1.276 . S
C293 C70 1.307 . S
C295 C61 1.307 . S
C304 C91 1.267 . S
C306 C100 1.263 . S
C315 C130 1.281 . S
C317 C121 1.278 1_556 S
C326 C151 1.303 . S
C328 C160 1.311 . S
C337 C207 1.315 . S
C339 C196 1.309 1_554 S
C348 C226 1.262 . S
C350 C237 1.255 1_554 S
C359 C267 1.218 . S
C361 C256 1.210 1_554 S
C370 N164 1.507 . S
C372 C27 1.585 . S
C381 N44 1.201 . S
C383 N104 1.177 . S
C392 C87 1.945 1_565 S
C394 C147 2.006 . S
C403 N74 0.963 . S
C405 N186 1.005 . S
C414 C211 1.729 . S
C416 N14 1.583 . S
C425 N246 1.489 . S
C427 C57 1.459 . S
C436 C250 2.070 1_455 S
C438 C16 2.004 . S
C447 N36 1.076 . S
C449 C190 1.173 . S
C458 N224 1.266 . S
C460 C76 1.309 . S
C469 N66 1.507 . S
C471 C106 1.585 . S
C480 N126 1.189 . S
C482 N6 1.186 . S
C491 C46 2.005 . S
C493 C166 1.949 . S
C502 C241 2.069 . S
C504 C117 2.003 . S
C513 C181 1.172 . S
C515 N134 1.074 . S
C524 N216 1.261 . S
C526 C177 1.312 . S
C535 N194 1.005 . S
C537 N156 0.967 . S
C546 N96 1.575 . S
C548 C220 1.731 . S
C557 N254 1.492 . S
C559 C136 1.461 . S
