# Generated by pormake.
# Topology usf, (4)-cn, num edge types: 1
# Building blocks:
#     Node 0, Type 0, BuildingBlock: KOZSID_clean_sbu_0, # of connection points: 4
#     Node 1, Type 0, BuildingBlock: KOZSID_clean_sbu_0, # of connection points: 4
#     Node 2, Type 0, BuildingBlock: KOZSID_clean_sbu_0, # of connection points: 4
#     Node 3, Type 0, BuildingBlock: KOZSID_clean_sbu_0, # of connection points: 4
#     Node 4, Type 0, BuildingBlock: KOZSID_clean_sbu_0, # of connection points: 4
#     Node 5, Type 0, BuildingBlock: KOZSID_clean_sbu_0, # of connection points: 4
#     Node 6, Type 0, BuildingBlock: KOZSID_clean_sbu_0, # of connection points: 4
#     Node 7, Type 0, BuildingBlock: KOZSID_clean_sbu_0, # of connection points: 4
#     Node 8, Type 0, BuildingBlock: KOZSID_clean_sbu_0, # of connection points: 4
#     Node 9, Type 0, BuildingBlock: KOZSID_clean_sbu_0, # of connection points: 4
#     Node 10, Type 0, BuildingBlock: KOZSID_clean_sbu_0, # of connection points: 4
#     Node 11, Type 0, BuildingBlock: KOZSID_clean_sbu_0, # of connection points: 4
#     Node 12, Type 0, BuildingBlock: KOZSID_clean_sbu_0, # of connection points: 4
#     Node 13, Type 0, BuildingBlock: KOZSID_clean_sbu_0, # of connection points: 4
#     Node 14, Type 0, BuildingBlock: KOZSID_clean_sbu_0, # of connection points: 4
#     Node 15, Type 0, BuildingBlock: KOZSID_clean_sbu_0, # of connection points: 4
#     Node 16, Type 0, BuildingBlock: KOZSID_clean_sbu_0, # of connection points: 4
#     Node 17, Type 0, BuildingBlock: KOZSID_clean_sbu_0, # of connection points: 4
#     Edge 18, Type (0, 0), BuildingBlock: XUDNAN_clean_linker_2, # of connection points: 2
#     Edge 19, Type (0, 0), BuildingBlock: XUDNAN_clean_linker_2, # of connection points: 2
#     Edge 20, Type (0, 0), BuildingBlock: XUDNAN_clean_linker_2, # of connection points: 2
#     Edge 21, Type (0, 0), BuildingBlock: XUDNAN_clean_linker_2, # of connection points: 2
#     Edge 22, Type (0, 0), BuildingBlock: XUDNAN_clean_linker_2, # of connection points: 2
#     Edge 23, Type (0, 0), BuildingBlock: XUDNAN_clean_linker_2, # of connection points: 2
#     Edge 24, Type (0, 0), BuildingBlock: XUDNAN_clean_linker_2, # of connection points: 2
#     Edge 25, Type (0, 0), BuildingBlock: XUDNAN_clean_linker_2, # of connection points: 2
#     Edge 26, Type (0, 0), BuildingBlock: XUDNAN_clean_linker_2, # of connection points: 2
#     Edge 27, Type (0, 0), BuildingBlock: XUDNAN_clean_linker_2, # of connection points: 2
#     Edge 28, Type (0, 0), BuildingBlock: XUDNAN_clean_linker_2, # of connection points: 2
#     Edge 29, Type (0, 0), BuildingBlock: XUDNAN_clean_linker_2, # of connection points: 2
#     Edge 30, Type (0, 0), BuildingBlock: XUDNAN_clean_linker_2, # of connection points: 2
#     Edge 31, Type (0, 0), BuildingBlock: XUDNAN_clean_linker_2, # of connection points: 2
#     Edge 32, Type (0, 0), BuildingBlock: XUDNAN_clean_linker_2, # of connection points: 2
#     Edge 33, Type (0, 0), BuildingBlock: XUDNAN_clean_linker_2, # of connection points: 2
#     Edge 34, Type (0, 0), BuildingBlock: XUDNAN_clean_linker_2, # of connection points: 2
#     Edge 35, Type (0, 0), BuildingBlock: XUDNAN_clean_linker_2, # of connection points: 2
#     Edge 36, Type (0, 0), BuildingBlock: XUDNAN_clean_linker_2, # of connection points: 2
#     Edge 37, Type (0, 0), BuildingBlock: XUDNAN_clean_linker_2, # of connection points: 2
#     Edge 38, Type (0, 0), BuildingBlock: XUDNAN_clean_linker_2, # of connection points: 2
#     Edge 39, Type (0, 0), BuildingBlock: XUDNAN_clean_linker_2, # of connection points: 2
#     Edge 40, Type (0, 0), BuildingBlock: XUDNAN_clean_linker_2, # of connection points: 2
#     Edge 41, Type (0, 0), BuildingBlock: XUDNAN_clean_linker_2, # of connection points: 2
#     Edge 42, Type (0, 0), BuildingBlock: XUDNAN_clean_linker_2, # of connection points: 2
#     Edge 43, Type (0, 0), BuildingBlock: XUDNAN_clean_linker_2, # of connection points: 2
#     Edge 44, Type (0, 0), BuildingBlock: XUDNAN_clean_linker_2, # of connection points: 2
#     Edge 45, Type (0, 0), BuildingBlock: XUDNAN_clean_linker_2, # of connection points: 2
#     Edge 46, Type (0, 0), BuildingBlock: XUDNAN_clean_linker_2, # of connection points: 2
#     Edge 47, Type (0, 0), BuildingBlock: XUDNAN_clean_linker_2, # of connection points: 2
#     Edge 48, Type (0, 0), BuildingBlock: XUDNAN_clean_linker_2, # of connection points: 2
#     Edge 49, Type (0, 0), BuildingBlock: XUDNAN_clean_linker_2, # of connection points: 2
#     Edge 50, Type (0, 0), BuildingBlock: XUDNAN_clean_linker_2, # of connection points: 2
#     Edge 51, Type (0, 0), BuildingBlock: XUDNAN_clean_linker_2, # of connection points: 2
#     Edge 52, Type (0, 0), BuildingBlock: XUDNAN_clean_linker_2, # of connection points: 2
#     Edge 53, Type (0, 0), BuildingBlock: XUDNAN_clean_linker_2, # of connection points: 2
# Relax obj value: 0.014
# Max RMSD: 0.050
# Mean RMSD: 0.025
data_MOF--net-usf--node1-KOZSID_clean_sbu_0--edge1-XUDNAN_clean_linker_2
_symmetry_space_group_name_H-M    P1
_symmetry_Int_Tables_number       1
_symmetry_cell_setting            triclinic
loop_
_symmetry_equiv_pos_as_xyz
'x, y, z'
_cell_length_a     60.955409
_cell_length_b     61.199919
_cell_length_c     34.321997
_cell_angle_alpha  90.149171
_cell_angle_beta   89.542408
_cell_angle_gamma 116.29652
loop_
_atom_site_label
_atom_site_type_symbol
_atom_site_fract_x
_atom_site_fract_y
_atom_site_fract_z
_atom_type_partial_charge
C0 C 0.012 0.4912 0.11039 0.0
C1 C 0.99376 0.46983 0.12573 0.0
C2 C 0.98023 0.45655 0.09511 0.0
C3 C 0.99069 0.47048 0.06281 0.0
N4 N 0.01011 0.49194 0.07077 0.0
Co5 Co 0.02935 0.51793 0.03144 0.0
N6 N 0.0084 0.49878 0.98656 0.0
C7 C 0.98846 0.47701 0.98941 0.0
C8 C 0.9774 0.468 0.95447 0.0
C9 C 0.9912 0.4849 0.92741 0.0
C10 C 0.01019 0.50328 0.94734 0.0
N11 N 0.04888 0.54366 0.99191 0.0
C12 C 0.0476 0.54384 0.9521 0.0
C13 C 0.06642 0.56474 0.93658 0.0
C14 C 0.07974 0.57826 0.9672 0.0
C15 C 0.06865 0.56489 0.99973 0.0
N16 N 0.05004 0.53724 0.07647 0.0
C17 C 0.06921 0.5596 0.07391 0.0
C18 C 0.07992 0.56879 0.10901 0.0
C19 C 0.06668 0.5514 0.13584 0.0
C20 C 0.04842 0.5325 0.11563 0.0
N21 N 0.05161 0.50219 0.02234 0.0
C22 C 0.08379 0.48113 1.00467 0.0
C23 C 0.09267 0.50564 0.01535 0.0
C24 C 0.07652 0.51563 0.024 0.0
C25 C 0.05834 0.46727 1.00338 0.0
C26 C 0.04273 0.47801 0.01253 0.0
N27 N 0.00717 0.53383 0.04062 0.0
C28 C 1.00149 0.56999 0.0548 0.0
C29 C 0.97623 0.55616 0.05998 0.0
C30 C 0.96679 0.53092 0.05441 0.0
C31 C 0.98235 0.52029 0.04478 0.0
C32 C 0.01639 0.55863 0.04501 0.0
H33 H 0.97385 0.50101 0.04128 0.0
H34 H 0.03538 0.57035 0.04137 0.0
H35 H 0.08472 0.53441 0.03162 0.0
H36 H 0.02353 0.46641 1.01135 0.0
C37 C 0.9815 0.46479 0.02504 0.0
C38 C 0.03022 0.51034 0.13505 0.0
C39 C 0.02941 0.52455 0.92752 0.0
C40 C 0.07697 0.57127 0.0379 0.0
H41 H 0.99018 0.46452 0.15603 0.0
H42 H 0.96421 0.4391 0.09639 0.0
H43 H 0.96143 0.45094 0.94919 0.0
H44 H 0.98771 0.48364 0.89644 0.0
H45 H 0.07048 0.56959 0.90619 0.0
H46 H 0.09599 0.59552 0.96583 0.0
H47 H 0.09557 0.58607 0.11445 0.0
H48 H 0.07021 0.55256 0.16679 0.0
H49 H 0.11216 0.51736 0.01647 0.0
H50 H 0.05042 0.44811 0.99588 0.0
H51 H 0.00981 0.58963 0.05784 0.0
H52 H 0.94743 0.51918 0.05821 0.0
C53 C 0.55662 0.52127 0.9302 0.0
C54 C 0.57379 0.51628 0.91031 0.0
C55 C 0.58976 0.51568 0.93746 0.0
C56 C 0.58144 0.52012 0.97239 0.0
N57 N 0.56101 0.52337 0.96941 0.0
Co58 Co 0.54347 0.53044 0.01412 0.0
N59 N 0.56851 0.53207 0.05346 0.0
C60 C 0.58896 0.52947 0.04541 0.0
C61 C 0.60245 0.53043 0.07766 0.0
C62 C 0.58987 0.53376 0.10833 0.0
C63 C 0.56931 0.5348 0.09311 0.0
N64 N 0.52548 0.53674 0.05911 0.0
C65 C 0.52978 0.5385 0.0984 0.0
C66 C 0.51171 0.54184 0.11867 0.0
C67 C 0.4953 0.54175 0.09174 0.0
C68 C 0.50417 0.53843 0.05653 0.0
N69 N 0.51881 0.52959 0.97454 0.0
C70 C 0.49907 0.53355 0.98221 0.0
C71 C 0.48629 0.53373 0.94965 0.0
C72 C 0.49873 0.52997 0.91915 0.0
C73 C 0.51844 0.52749 0.93479 0.0
N74 N 0.52416 0.49457 0.02436 0.0
C75 C 0.49625 0.4457 0.05012 0.0
C76 C 0.48507 0.46041 0.03953 0.0
C77 C 0.49911 0.48433 0.02666 0.0
C78 C 0.52166 0.45544 0.04502 0.0
C79 C 0.53516 0.47972 0.03216 0.0
N80 N 0.56254 0.5663 1.00374 0.0
C81 C 0.56223 0.60513 0.99089 0.0
C82 C 0.58584 0.61488 0.97498 0.0
C83 C 0.59837 0.60047 0.97661 0.0
C84 C 0.58647 0.5764 0.99109 0.0
C85 C 0.5512 0.58127 1.00536 0.0
H86 H 0.5967 0.56601 0.9906 0.0
H87 H 0.53312 0.57513 0.01655 0.0
H88 H 0.48921 0.49437 0.01969 0.0
H89 H 0.55454 0.48628 0.0297 0.0
C90 C 0.59359 0.5236 1.00786 0.0
C91 C 0.5366 0.5239 0.91031 0.0
C92 C 0.55073 0.53742 0.11796 0.0
C93 C 0.49313 0.53716 0.02042 0.0
H94 H 0.57489 0.51369 0.87929 0.0
H95 H 0.60593 0.51298 0.9322 0.0
H96 H 0.619 0.52805 0.07891 0.0
H97 H 0.59495 0.53461 0.13863 0.0
H98 H 0.51047 0.54409 0.14976 0.0
H99 H 0.47879 0.54379 0.0972 0.0
H100 H 0.47005 0.53664 0.94819 0.0
H101 H 0.49404 0.52954 0.88873 0.0
H102 H 0.46539 0.45361 0.04181 0.0
H103 H 0.53124 0.44477 0.05243 0.0
H104 H 0.55195 0.61574 0.99127 0.0
H105 H 0.61681 0.60727 0.96506 0.0
C106 C 0.50527 0.00851 0.10235 0.0
C107 C 0.49649 0.02308 0.12153 0.0
C108 C 0.49901 0.04121 0.09629 0.0
C109 C 0.50917 0.03672 0.06334 0.0
N110 N 0.51336 0.01684 0.06594 0.0
Co111 Co 0.52754 1.00351 0.02456 0.0
N112 N 0.53206 0.03073 0.98803 0.0
C113 C 0.52635 0.04939 0.99487 0.0
C114 C 0.53264 0.06594 0.96504 0.0
C115 C 0.54319 0.05747 0.93753 0.0
C116 C 0.54257 0.03606 0.95218 0.0
N117 N 0.54144 0.99001 0.98305 0.0
C118 C 0.55068 0.99898 0.9474 0.0
C119 C 0.5585 0.98383 0.92762 0.0
C120 C 0.55441 0.9648 0.95189 0.0
C121 C 0.54427 0.96932 0.98484 0.0
N122 N 0.52341 0.97652 0.06137 0.0
C123 C 0.52913 0.95786 0.05458 0.0
C124 C 0.5244 0.94226 0.08549 0.0
C125 C 0.51517 0.95152 0.11388 0.0
C126 C 0.51483 0.97232 0.0985 0.0
N127 N 0.4936 0.98347 1.0039 0.0
C128 C 0.44457 0.95433 0.97863 0.0
C129 C 0.46116 0.94442 0.98389 0.0
C130 C 0.48518 0.95907 0.99635 0.0
C131 C 0.45344 0.97941 0.98514 0.0
C132 C 0.47768 0.99345 0.99752 0.0
N133 N 0.56142 0.02358 0.04501 0.0
C134 C 0.60281 0.02909 0.0581 0.0
C135 C 0.61075 0.05374 0.06747 0.0
C136 C 0.59302 0.06251 0.06699 0.0
C137 C 0.56887 0.04739 0.05581 0.0
C138 C 0.57834 0.01448 0.04721 0.0
H139 H 0.55658 0.05549 0.05562 0.0
H140 H 0.57361 0.99595 0.04002 0.0
H141 H 0.49656 0.95013 0.99995 0.0
H142 H 0.483 0.01233 1.0022 0.0
C143 C 0.51569 0.05126 0.03001 0.0
C144 C 0.50615 0.98739 0.12037 0.0
C145 C 0.55255 0.0217 0.93115 0.0
C146 C 0.53856 0.95527 0.01868 0.0
H147 H 0.48918 0.02095 0.15086 0.0
H148 H 0.49424 0.05603 0.10147 0.0
H149 H 0.53021 0.0824 0.96373 0.0
H150 H 0.55075 0.06624 0.90997 0.0
H151 H 0.56656 0.98638 0.89877 0.0
H152 H 0.55874 0.94971 0.94646 0.0
H153 H 0.52726 0.92604 0.08713 0.0
H154 H 0.50927 0.94382 0.14263 0.0
H155 H 0.45573 0.92529 0.97841 0.0
H156 H 0.44158 0.98821 0.98175 0.0
H157 H 0.61555 0.02116 0.05796 0.0
H158 H 0.59769 0.08116 0.07506 0.0
C159 C 0.59127 0.03906 0.48255 0.0
C160 C 0.61295 0.05571 0.46543 0.0
C161 C 0.61384 0.0783 0.4704 0.0
C162 C 0.59268 0.07427 0.48998 0.0
N163 N 0.5784 0.05053 0.49748 0.0
Co164 Co 0.54598 0.03703 0.52445 0.0
N165 N 0.54255 0.06778 0.51743 0.0
C166 C 0.56041 0.08925 0.50522 0.0
C167 C 0.55218 0.10635 0.49796 0.0
C168 C 0.52775 0.09521 0.50701 0.0
C169 C 0.52246 0.07204 0.5207 0.0
N170 N 0.51391 0.02354 0.55253 0.0
C171 C 0.49779 0.03309 0.55863 0.0
C172 C 0.48083 0.01994 0.58742 0.0
C173 C 0.48599 1.00137 0.59866 0.0
C174 C 0.50607 1.00435 0.5771 0.0
N175 N 0.54915 0.00615 0.53077 0.0
C176 C 0.53647 0.98824 0.55628 0.0
C177 C 0.54246 0.96914 0.55463 0.0
C178 C 0.56024 0.97546 0.52644 0.0
C179 C 0.56411 0.99818 0.51244 0.0
N180 N 0.56237 0.04892 0.57421 0.0
C181 C 0.57716 0.05567 0.65172 0.0
C182 C 0.58802 0.04609 0.62491 0.0
C183 C 0.58054 0.04312 0.58605 0.0
C184 C 0.56102 0.06444 0.63796 0.0
C185 C 0.55385 0.06086 0.59923 0.0
N186 N 0.52967 0.02506 0.47488 0.0
C187 C 0.50271 0.99188 0.43467 0.0
C188 C 0.51199 0.00633 0.40138 0.0
C189 C 0.52901 0.03069 0.40588 0.0
C190 C 0.53753 0.03968 0.44274 0.0
C191 C 0.51184 1.00164 0.47131 0.0
H192 H 0.5512 0.05824 0.44485 0.0
H193 H 0.5052 0.99001 0.49654 0.0
H194 H 0.58833 0.03471 0.56625 0.0
H195 H 0.54019 0.06641 0.59046 0.0
C196 C 0.58346 0.09134 0.49464 0.0
C197 C 0.58414 0.01274 0.48554 0.0
C198 C 0.49933 0.05578 0.54082 0.0
C199 C 0.51738 0.9889 0.578 0.0
H200 H 0.62663 0.05195 0.45059 0.0
H201 H 0.62768 0.09545 0.45926 0.0
H202 H 0.56245 0.12441 0.48583 0.0
H203 H 0.51541 0.10343 0.50382 0.0
H204 H 0.46674 0.02376 0.60059 0.0
H205 H 0.47648 0.98761 0.62051 0.0
H206 H 0.53458 0.95244 0.57144 0.0
H207 H 0.5697 0.96482 0.51793 0.0
H208 H 0.60085 0.03938 0.6343 0.0
H209 H 0.55279 0.07267 0.65754 0.0
H210 H 0.48938 0.97297 0.43229 0.0
H211 H 0.53619 0.04261 0.38088 0.0
C212 C 0.04917 0.50337 0.45217 0.0
C213 C 0.07006 0.50293 0.43656 0.0
C214 C 0.08479 0.50422 0.46707 0.0
C215 C 0.07238 0.50568 0.49963 0.0
N216 N 0.0504 0.50509 0.49195 0.0
Co217 Co 0.02829 0.51004 0.53131 0.0
N218 N 0.05134 0.51458 0.57591 0.0
C219 C 0.07306 0.51366 0.57322 0.0
C220 C 0.08489 0.51686 0.60808 0.0
C221 C 0.06971 0.51969 0.63494 0.0
C222 C 0.04926 0.51788 0.61498 0.0
N223 N 0.0064 0.5154 0.57054 0.0
C224 C 0.00824 0.51856 0.61008 0.0
C225 C 0.98775 0.5199 0.62552 0.0
C226 C 0.97268 0.51779 0.59508 0.0
C227 C 0.98455 0.51505 0.56276 0.0
N228 N 1.00517 0.50525 0.48686 0.0
C229 C 0.98298 0.50508 0.48984 0.0
C230 C 0.97113 0.50184 0.455 0.0
C231 C 0.98681 0.50019 0.42785 0.0
C232 C 0.00759 0.50277 0.44765 0.0
N233 N 0.0116 0.47411 0.54318 0.0
C234 C 0.98929 0.42506 0.57058 0.0
C235 C 0.97521 0.43714 0.56093 0.0
C236 C 0.98663 0.46146 0.54753 0.0
C237 C 0.01454 0.43757 0.56404 0.0
C238 C 0.02512 0.46159 0.55002 0.0
N239 N 0.04503 0.54585 0.51927 0.0
C240 C 0.04403 0.58208 0.49181 0.0
C241 C 0.06955 0.59363 0.48758 0.0
C242 C 0.0825 0.58156 0.5025 0.0
C243 C 0.07008 0.55814 0.51836 0.0
C244 C 0.03222 0.55838 0.50775 0.0
H245 H 0.08123 0.55005 0.52847 0.0
H246 H 0.01268 0.5502 0.50928 0.0
H247 H 0.97492 0.46982 0.54177 0.0
H248 H 0.04441 0.46983 0.5458 0.0
C249 C 0.08176 0.50959 0.53744 0.0
C250 C 0.02917 0.503 0.42769 0.0
C251 C 0.02845 0.51952 0.63462 0.0
C252 C 0.97474 0.51003 0.52532 0.0
H253 H 0.07466 0.50248 0.40617 0.0
H254 H 0.10287 0.505 0.46556 0.0
H255 H 0.10242 0.51699 0.61339 0.0
H256 H 0.07335 0.52267 0.66578 0.0
H257 H 0.98369 0.52157 0.6558 0.0
H258 H 0.95477 0.51742 0.59652 0.0
H259 H 0.95345 0.50141 0.44978 0.0
H260 H 0.98342 0.49776 0.39688 0.0
H261 H 0.95555 0.42824 0.56523 0.0
H262 H 0.02626 0.42891 0.5702 0.0
H263 H 0.03313 0.59076 0.4812 0.0
H264 H 0.10231 0.58994 0.50106 0.0
C265 C 0.54083 0.5476 0.59783 0.0
C266 C 0.5379 0.56587 0.61787 0.0
C267 C 0.54274 0.58438 0.59189 0.0
C268 C 0.54815 0.57642 0.5574 0.0
N269 N 0.54666 0.55382 0.55953 0.0
Co270 Co 0.55417 0.53655 0.51538 0.0
N271 N 0.55523 0.56089 0.47557 0.0
C272 C 0.55585 0.58269 0.48367 0.0
C273 C 0.55545 0.59541 0.45107 0.0
C274 C 0.55463 0.58083 0.42028 0.0
C275 C 0.55482 0.55997 0.43573 0.0
N276 N 0.5618 0.51948 0.47118 0.0
C277 C 0.56104 0.52198 0.43167 0.0
C278 C 0.56822 0.50625 0.41232 0.0
C279 C 0.57363 0.49353 0.44036 0.0
C280 C 0.56956 0.50217 0.47526 0.0
N281 N 0.55316 0.51211 0.55507 0.0
C282 C 0.5616 0.49542 0.54896 0.0
C283 C 0.56018 0.48177 0.58136 0.0
C284 C 0.55063 0.49061 0.61011 0.0
C285 C 0.54667 0.50925 0.59368 0.0
N286 N 0.51874 0.51703 0.50519 0.0
C287 C 0.47009 0.48994 0.4788 0.0
C288 C 0.48576 0.47895 0.48426 0.0
C289 C 0.50972 0.49263 0.49765 0.0
C290 C 0.47898 0.51459 0.48915 0.0
C291 C 0.50329 0.52778 0.5021 0.0
N292 N 0.58982 0.55604 0.52526 0.0
C293 C 0.63143 0.57913 0.50158 0.0
C294 C 0.64085 0.58296 0.53969 0.0
C295 C 0.62388 0.5729 0.57024 0.0
C296 C 0.59875 0.5597 0.56251 0.0
C297 C 0.6061 0.56576 0.49506 0.0
H298 H 0.58667 0.55252 0.58708 0.0
H299 H 0.59975 0.56322 0.46539 0.0
H300 H 0.5212 0.48352 0.50049 0.0
H301 H 0.50976 0.54689 0.50824 0.0
C302 C 0.55297 0.58884 0.52192 0.0
C303 C 0.53986 0.52565 0.61716 0.0
C304 C 0.5558 0.54039 0.41134 0.0
C305 C 0.56946 0.49223 0.51192 0.0
H306 H 0.53324 0.56605 0.64831 0.0
H307 H 0.5422 0.60155 0.59745 0.0
H308 H 0.55478 0.61277 0.44984 0.0
H309 H 0.55383 0.58507 0.3899 0.0
H310 H 0.56965 0.50434 0.38117 0.0
H311 H 0.5792 0.4792 0.43579 0.0
H312 H 0.56561 0.46722 0.58388 0.0
H313 H 0.54784 0.48464 0.64017 0.0
H314 H 0.47972 0.45987 0.47738 0.0
H315 H 0.46767 0.52396 0.4855 0.0
H316 H 0.64354 0.58613 0.47666 0.0
H317 H 0.62982 0.57551 0.60025 0.0
C318 C 0.68826 0.84651 0.43018 0.0
C319 C 0.6678 0.82914 0.44913 0.0
C320 C 0.65121 0.81672 0.42096 0.0
C321 C 0.66231 0.82716 0.38643 0.0
N322 N 0.68521 0.84526 0.39064 0.0
Co323 Co 0.70658 0.86662 0.34744 0.0
N324 N 0.68114 0.84998 0.30641 0.0
C325 C 0.65864 0.83151 0.31261 0.0
C326 C 0.64535 0.82296 0.27922 0.0
C327 C 0.6604 0.83646 0.24974 0.0
C328 C 0.68221 0.85249 0.26678 0.0
N329 N 0.72787 0.88818 0.30438 0.0
C330 C 0.72466 0.88739 0.26491 0.0
C331 C 0.74497 0.90513 0.24616 0.0
C332 C 0.76157 0.91737 0.27438 0.0
C333 C 0.75064 0.90647 0.30874 0.0
N334 N 0.73211 0.8831 0.38838 0.0
C335 C 0.75486 0.90109 0.38205 0.0
C336 C 0.76828 0.90946 0.41536 0.0
C337 C 0.75307 0.89633 0.44493 0.0
C338 C 0.73105 0.88073 0.42801 0.0
N339 N 0.72028 0.84282 0.33668 0.0
C340 C 0.73794 0.80946 0.30989 0.0
C341 C 0.75376 0.8342 0.31501 0.0
C342 C 0.74466 0.85038 0.32844 0.0
C343 C 0.71343 0.80162 0.32085 0.0
C344 C 0.70512 0.81834 0.33415 0.0
N345 N 0.6928 0.89031 0.35814 0.0
C346 C 0.69899 0.93094 0.3766 0.0
C347 C 0.67397 0.92285 0.38433 0.0
C348 C 0.65844 0.89838 0.3764 0.0
C349 C 0.66812 0.88264 0.36328 0.0
C350 C 0.70789 0.9146 0.36356 0.0
H351 H 0.65527 0.86419 0.3585 0.0
H352 H 0.72715 0.92193 0.35891 0.0
H353 H 0.75762 0.86903 0.33092 0.0
H354 H 0.68619 0.81104 0.34133 0.0
C355 C 0.65106 0.82174 0.34992 0.0
C356 C 0.70952 0.86466 0.45119 0.0
C357 C 0.70348 0.86928 0.24372 0.0
C358 C 0.76218 0.9113 0.34499 0.0
H359 H 0.66479 0.82619 0.48017 0.0
H360 H 0.63285 0.80239 0.42528 0.0
H361 H 0.62709 0.80824 0.27651 0.0
H362 H 0.65598 0.83446 0.21906 0.0
H363 H 0.74794 0.90844 0.2152 0.0
H364 H 0.77988 0.93182 0.27016 0.0
H365 H 0.78664 0.924 0.41799 0.0
H366 H 0.75747 0.8984 0.47563 0.0
H367 H 0.77296 0.84132 0.30729 0.0
H368 H 0.70046 0.78257 0.31874 0.0
H369 H 0.71185 0.94984 0.38098 0.0
H370 H 0.63893 0.89103 0.38166 0.0
C371 C 0.22212 0.85396 0.42653 0.0
C372 C 0.24464 0.85802 0.44189 0.0
C373 C 0.25816 0.85528 0.41206 0.0
C374 C 0.24359 0.85043 0.37991 0.0
N375 N 0.22177 0.85045 0.38721 0.0
Co376 Co 0.19677 0.84734 0.34708 0.0
N377 N 0.21558 0.84087 0.30373 0.0
C378 C 0.23636 0.83829 0.30783 0.0
C379 C 0.24517 0.83368 0.2735 0.0
C380 C 0.22927 0.83362 0.24564 0.0
C381 C 0.21171 0.83851 0.26448 0.0
N382 N 0.17224 0.84512 0.30635 0.0
C383 C 0.17289 0.84362 0.26659 0.0
C384 C 0.15297 0.84517 0.24987 0.0
C385 C 0.13939 0.8478 0.27971 0.0
C386 C 0.15178 0.84793 0.31292 0.0
N387 N 0.17756 0.85282 0.39098 0.0
C388 C 0.15577 0.85337 0.38712 0.0
C389 C 0.1444 0.85294 0.42182 0.0
C390 C 0.15963 0.85175 0.44972 0.0
C391 C 0.18 0.85217 0.4306 0.0
N392 N 0.2149 0.88336 0.33666 0.0
C393 C 0.24173 0.93417 0.32066 0.0
C394 C 0.21676 0.92387 0.33048 0.0
C395 C 0.20382 0.89862 0.33851 0.0
C396 C 0.25264 0.91837 0.3183 0.0
C397 C 0.23918 0.89354 0.32626 0.0
N398 N 0.17885 0.81143 0.35769 0.0
C399 C 0.14132 0.77455 0.37077 0.0
C400 C 0.15443 0.7611 0.37793 0.0
C401 C 0.17995 0.77345 0.3747 0.0
C402 C 0.1916 0.79819 0.36474 0.0
C403 C 0.15376 0.79942 0.36043 0.0
H404 H 0.21105 0.80627 0.36337 0.0
H405 H 0.14274 0.80861 0.35491 0.0
H406 H 0.1849 0.89185 0.34627 0.0
H407 H 0.24902 0.883 0.32361 0.0
C408 C 0.2489 0.84373 0.34328 0.0
C409 C 0.20105 0.85153 0.451 0.0
C410 C 0.19247 0.84186 0.24338 0.0
C411 C 0.14518 0.85145 0.35057 0.0
H412 H 0.25046 0.86174 0.47188 0.0
H413 H 0.2762 0.85603 0.41386 0.0
H414 H 0.26178 0.83169 0.26898 0.0
H415 H 0.23084 0.831 0.21473 0.0
H416 H 0.14887 0.84502 0.21925 0.0
H417 H 0.1228 0.85003 0.2774 0.0
H418 H 0.12645 0.85214 0.42627 0.0
H419 H 0.15533 0.8497 0.48043 0.0
H420 H 0.20737 0.93525 0.33282 0.0
H421 H 0.27173 0.92511 0.31006 0.0
H422 H 0.12152 0.76586 0.37242 0.0
H423 H 0.19112 0.76412 0.38036 0.0
C424 C 0.19996 0.36343 0.44653 0.0
C425 C 0.19123 0.37862 0.46389 0.0
C426 C 0.18991 0.3934 0.43531 0.0
C427 C 0.1972 0.38604 0.40201 0.0
N428 N 0.20256 0.36711 0.40726 0.0
Co429 Co 0.21096 0.34924 0.36504 0.0
N430 N 0.21081 0.37216 0.32319 0.0
C431 C 0.20634 0.39171 0.32889 0.0
C432 C 0.20435 0.40251 0.29516 0.0
C433 C 0.20781 0.38919 0.26603 0.0
C434 C 0.21242 0.37118 0.28351 0.0
N435 N 0.21867 0.33089 0.32241 0.0
C436 C 0.22144 0.33458 0.283 0.0
C437 C 0.22773 0.31766 0.26535 0.0
C438 C 0.22772 0.30217 0.29386 0.0
C439 C 0.22191 0.31061 0.32745 0.0
N440 N 0.21174 0.32674 0.40735 0.0
C441 C 0.21656 0.3074 0.40184 0.0
C442 C 0.21962 0.29737 0.43573 0.0
C443 C 0.21688 0.31122 0.4648 0.0
C444 C 0.21175 0.32881 0.44714 0.0
N445 N 0.17506 0.32801 0.35591 0.0
C446 C 0.12597 0.29814 0.33194 0.0
C447 C 0.14192 0.28812 0.3417 0.0
C448 C 0.16595 0.30313 0.35377 0.0
C449 C 0.13474 0.32333 0.33673 0.0
C450 C 0.15902 0.33773 0.34861 0.0
N451 N 0.24683 0.37036 0.37396 0.0
C452 C 0.28797 0.374 0.38033 0.0
C453 C 0.29765 0.39879 0.38956 0.0
C454 C 0.28115 0.40909 0.39123 0.0
C455 C 0.25604 0.39471 0.38308 0.0
C456 C 0.26302 0.3604 0.37276 0.0
H457 H 0.24435 0.4036 0.38427 0.0
H458 H 0.25732 0.34171 0.36619 0.0
H459 H 0.17699 0.29418 0.36041 0.0
H460 H 0.1645 0.3568 0.35066 0.0
C461 C 0.20006 0.39703 0.36562 0.0
C462 C 0.20747 0.34742 0.4691 0.0
C463 C 0.21796 0.35352 0.26099 0.0
C464 C 0.22078 0.30078 0.36454 0.0
H465 H 0.18696 0.37948 0.49434 0.0
H466 H 0.18465 0.40805 0.43855 0.0
H467 H 0.19947 0.4174 0.29206 0.0
H468 H 0.20618 0.39211 0.23537 0.0
H469 H 0.23206 0.31652 0.23506 0.0
H470 H 0.23184 0.28678 0.29057 0.0
H471 H 0.22455 0.28251 0.43888 0.0
H472 H 0.2194 0.30893 0.49534 0.0
H473 H 0.13599 0.26865 0.33964 0.0
H474 H 0.12327 0.33213 0.32983 0.0
H475 H 0.29966 0.36487 0.37914 0.0
H476 H 0.28763 0.42824 0.39794 0.0
C477 C 0.19838 0.32675 0.94708 0.0
C478 C 0.17699 0.3101 0.96499 0.0
C479 C 0.16144 0.29709 0.93606 0.0
C480 C 0.17379 0.30666 0.90202 0.0
N481 N 0.19653 0.32483 0.90729 0.0
Co482 Co 0.21825 0.34684 0.86497 0.0
N483 N 0.19355 0.33036 0.82277 0.0
C484 C 0.17145 0.3111 0.82795 0.0
C485 C 0.15792 0.30378 0.79462 0.0
C486 C 0.1724 0.31894 0.76613 0.0
C487 C 0.19431 0.33454 0.78351 0.0
N488 N 0.23978 0.36943 0.82324 0.0
C489 C 0.23724 0.36906 0.78367 0.0
C490 C 0.25851 0.38624 0.76601 0.0
C491 C 0.27436 0.39845 0.79498 0.0
C492 C 0.26242 0.38782 0.82877 0.0
N493 N 0.2432 0.36284 0.90674 0.0
C494 C 0.26617 0.38054 0.90126 0.0
C495 C 0.28 0.3868 0.93434 0.0
C496 C 0.26474 0.37266 0.96302 0.0
C497 C 0.24213 0.35897 0.94593 0.0
N498 N 0.23283 0.32376 0.85396 0.0
C499 C 0.25301 0.29142 0.83245 0.0
C500 C 0.26758 0.31656 0.83479 0.0
C501 C 0.2573 0.33215 0.84562 0.0
C502 C 0.22814 0.28275 0.84197 0.0
C503 C 0.21856 0.29903 0.85259 0.0
N504 N 0.20363 0.36974 0.87612 0.0
C505 C 0.20796 0.40872 0.90039 0.0
C506 C 0.18251 0.39989 0.90439 0.0
C507 C 0.16793 0.37612 0.89159 0.0
C508 C 0.17873 0.3616 0.87754 0.0
C509 C 0.21803 0.39355 0.88612 0.0
H510 H 0.16646 0.34355 0.86914 0.0
H511 H 0.23754 0.40122 0.88431 0.0
H512 H 0.26967 0.35096 0.8467 0.0
H513 H 0.19948 0.29118 0.85915 0.0
C514 C 0.16345 0.30111 0.86494 0.0
C515 C 0.21978 0.34445 0.96876 0.0
C516 C 0.21536 0.35271 0.7614 0.0
C517 C 0.27364 0.39188 0.86513 0.0
H518 H 0.17238 0.30801 0.99561 0.0
H519 H 0.14276 0.28323 0.93944 0.0
H520 H 0.13956 0.28931 0.79149 0.0
H521 H 0.16716 0.31848 0.73602 0.0
H522 H 0.26276 0.38924 0.73529 0.0
H523 H 0.29301 0.41237 0.79164 0.0
H524 H 0.29875 0.40047 0.93746 0.0
H525 H 0.2695 0.3731 0.99341 0.0
H526 H 0.28703 0.32432 0.82869 0.0
H527 H 0.21588 0.26346 0.84055 0.0
H528 H 0.2202 0.42721 0.90868 0.0
H529 H 0.14818 0.36823 0.89384 0.0
C530 C 0.73204 0.87577 0.92863 0.0
C531 C 0.75285 0.87653 0.946 0.0
C532 C 0.7674 0.87507 0.91666 0.0
C533 C 0.75484 0.87365 0.88305 0.0
N534 N 0.73333 0.87459 0.88897 0.0
Co535 Co 0.70906 0.87181 0.84755 0.0
N536 N 0.72907 0.86664 0.80467 0.0
C537 C 0.75078 0.86602 0.80925 0.0
C538 C 0.76117 0.86361 0.77495 0.0
C539 C 0.74534 0.86299 0.74654 0.0
C540 C 0.726 0.86496 0.76513 0.0
N541 N 0.68463 0.86884 0.80616 0.0
C542 C 0.68548 0.8668 0.76658 0.0
C543 C 0.66453 0.86577 0.74933 0.0
C544 C 0.6503 0.86789 0.77861 0.0
C545 C 0.66317 0.86992 0.8121 0.0
N546 N 0.68904 0.87704 0.8904 0.0
C547 C 0.6676 0.87827 0.88573 0.0
C548 C 0.65713 0.88049 0.92007 0.0
C549 C 0.67255 0.88029 0.94856 0.0
C550 C 0.69176 0.87805 0.93 0.0
N551 N 0.7265 0.90793 0.83748 0.0
C552 C 0.74996 0.95731 0.81193 0.0
C553 C 0.72466 0.94524 0.81802 0.0
C554 C 0.71351 0.92104 0.8312 0.0
C555 C 0.76352 0.94461 0.82104 0.0
C556 C 0.75153 0.92012 0.83349 0.0
N557 N 0.69162 0.83576 0.85743 0.0
C558 C 0.65395 0.79943 0.87092 0.0
C559 C 0.6664 0.78509 0.8754 0.0
C560 C 0.6919 0.79677 0.87082 0.0
C561 C 0.70402 0.82184 0.86167 0.0
C562 C 0.66669 0.82428 0.86202 0.0
H563 H 0.72343 0.8296 0.8582 0.0
H564 H 0.65587 0.83385 0.85932 0.0
H565 H 0.69421 0.91315 0.83511 0.0
H566 H 0.76285 0.91124 0.83871 0.0
C567 C 0.76174 0.8695 0.84585 0.0
C568 C 0.71134 0.87549 0.95138 0.0
C569 C 0.70588 0.86648 0.74373 0.0
C570 C 0.65649 0.8746 0.84918 0.0
H571 H 0.75683 0.87751 0.9768 0.0
H572 H 0.78473 0.87432 0.91959 0.0
H573 H 0.77861 0.8632 0.77094 0.0
H574 H 0.74812 0.86188 0.71558 0.0
H575 H 0.66021 0.86413 0.71862 0.0
H576 H 0.63294 0.86856 0.7757 0.0
H577 H 0.63975 0.88105 0.92406 0.0
H578 H 0.66949 0.8809 0.97953 0.0
H579 H 0.71335 0.95438 0.8121 0.0
H580 H 0.7832 0.95316 0.81696 0.0
H581 H 0.63428 0.79159 0.87468 0.0
H582 H 0.70248 0.78657 0.87356 0.0
C583 C 0.18203 0.86159 0.92789 0.0
C584 C 0.18055 0.88164 0.94427 0.0
C585 C 0.1825 0.89707 0.9143 0.0
C586 C 0.18477 0.88554 0.88129 0.0
N587 N 0.18398 0.86349 0.88824 0.0
Co588 Co 0.18695 0.84109 0.84782 0.0
N589 N 0.19451 0.86568 0.80464 0.0
C590 C 0.1974 0.88873 0.8092 0.0
C591 C 0.20471 0.90245 0.77591 0.0
C592 C 0.20629 0.88718 0.74816 0.0
C593 C 0.1992 0.86462 0.76579 0.0
N594 N 0.18894 0.81831 0.80711 0.0
C595 C 0.19029 0.82014 0.76733 0.0
C596 C 0.18539 0.79775 0.75052 0.0
C597 C 0.18209 0.78179 0.78015 0.0
C598 C 0.18432 0.79486 0.81348 0.0
N599 N 0.18053 0.81696 0.8915 0.0
C600 C 0.17917 0.79443 0.88769 0.0
C601 C 0.17741 0.78276 0.92242 0.0
C602 C 0.17821 0.799 0.95036 0.0
C603 C 0.18017 0.81969 0.93105 0.0
N604 N 0.1509 0.82765 0.83642 0.0
C605 C 0.10183 0.80807 0.80812 0.0
C606 C 0.11152 0.79301 0.8235 0.0
C607 C 0.13568 0.80305 0.83761 0.0
C608 C 0.11688 0.83329 0.80972 0.0
C609 C 0.14095 0.84255 0.8238 0.0
N610 N 0.22283 0.8544 0.859 0.0
C611 C 0.25838 0.84763 0.87273 0.0
C612 C 0.2722 0.87195 0.88433 0.0
C613 C 0.261 0.88751 0.88101 0.0
C614 C 0.23664 0.8785 0.86833 0.0
C615 C 0.23409 0.83936 0.86023 0.0
H616 H 0.22917 0.8913 0.86724 0.0
H617 H 0.22453 0.82056 0.85237 0.0
H618 H 0.14175 0.7904 0.84852 0.0
H619 H 0.15132 0.86188 0.82343 0.0
C620 C 0.1918 0.89649 0.84466 0.0
C621 C 0.18272 0.84186 0.95153 0.0
C622 C 0.19623 0.84254 0.74419 0.0
C623 C 0.18063 0.7852 0.85109 0.0
H624 H 0.17911 0.88515 0.97488 0.0
H625 H 0.18351 0.91513 0.91657 0.0
H626 H 0.20824 0.92128 0.77214 0.0
H627 H 0.21192 0.89228 0.71829 0.0
H628 H 0.18371 0.793 0.71998 0.0
H629 H 0.17764 0.76265 0.77765 0.0
H630 H 0.17647 0.76487 0.92693 0.0
H631 H 0.17805 0.79603 0.98141 0.0
H632 H 0.1009 0.7734 0.82352 0.0
H633 H 0.11029 0.84608 0.79979 0.0
H634 H 0.26617 0.83481 0.87352 0.0
H635 H 0.27063 0.90647 0.88949 0.0
C636 C 0.36478 0.20983 0.71952 0.0
C637 C 0.37992 0.23145 0.73791 0.0
C638 C 0.40287 0.23277 0.73755 0.0
C639 C 0.40051 0.21193 0.71915 0.0
N640 N 0.37748 0.1975 0.70722 0.0
Co641 Co 0.36588 0.16474 0.68144 0.0
N642 N 0.39896 0.16513 0.68562 0.0
C643 C 0.41895 0.18269 0.70268 0.0
C644 C 0.43822 0.17701 0.70529 0.0
C645 C 0.43033 0.15476 0.68795 0.0
C646 C 0.40682 0.14838 0.67445 0.0
N647 N 0.35435 0.13219 0.65507 0.0
C648 C 0.36743 0.12076 0.6404 0.0
C649 C 0.35295 0.10162 0.61609 0.0
C650 C 0.32996 0.09996 0.61737 0.0
C651 C 0.33159 0.11861 0.641 0.0
N652 N 0.33268 0.16419 0.67773 0.0
C653 C 0.31237 0.14638 0.6619 0.0
C654 C 0.29206 0.15046 0.6646 0.0
C655 C 0.29965 0.17196 0.68419 0.0
C656 C 0.32423 0.17967 0.69254 0.0
N657 N 0.37531 0.18077 0.6297 0.0
C658 C 0.38972 0.19861 0.55369 0.0
C659 C 0.36572 0.18178 0.56191 0.0
C660 C 0.35896 0.17327 0.59969 0.0
C661 C 0.4061 0.20765 0.58451 0.0
C662 C 0.39852 0.19855 0.62219 0.0
N663 N 0.35638 0.1489 0.73327 0.0
C664 C 0.32359 0.12625 0.77856 0.0
C665 C 0.33887 0.13769 0.80979 0.0
C666 C 0.36356 0.15243 0.80249 0.0
C667 C 0.37191 0.15775 0.76421 0.0
C668 C 0.33295 0.13152 0.74055 0.0
H669 H 0.3906 0.17033 0.76064 0.0
H670 H 0.3206 0.1225 0.71748 0.0
H671 H 0.34051 0.16023 0.60349 0.0
H672 H 0.41187 0.20577 0.64452 0.0
C673 C 0.41878 0.20407 0.71682 0.0
C674 C 0.33825 0.20107 0.71648 0.0
C675 C 0.39338 0.12726 0.64891 0.0
C676 C 0.31295 0.12578 0.64554 0.0
H677 H 0.37483 0.24457 0.75133 0.0
H678 H 0.41913 0.24671 0.75076 0.0
H679 H 0.45587 0.18772 0.71842 0.0
H680 H 0.44098 0.14464 0.68532 0.0
H681 H 0.3583 0.09037 0.59786 0.0
H682 H 0.31425 0.08758 0.60094 0.0
H683 H 0.27379 0.13893 0.6543 0.0
H684 H 0.28825 0.1807 0.69228 0.0
H685 H 0.35216 0.17487 0.53907 0.0
H686 H 0.42484 0.22101 0.57943 0.0
H687 H 0.30433 0.11439 0.78332 0.0
H688 H 0.37597 0.16146 0.82619 0.0
C689 C 0.87629 0.2422 0.66846 0.0
C690 C 0.86303 0.25565 0.66588 0.0
C691 C 0.83975 0.24075 0.67787 0.0
C692 C 0.84005 0.21918 0.68742 0.0
N693 N 0.86207 0.2192 0.68192 0.0
Co694 Co 0.87062 0.19184 0.69529 0.0
N695 N 0.83657 0.17039 0.71471 0.0
C696 C 0.81756 0.17616 0.71586 0.0
C697 C 0.79632 0.15788 0.73015 0.0
C698 C 0.80193 0.1391 0.73802 0.0
C699 C 0.82634 0.14693 0.72778 0.0
N700 N 0.87931 0.16469 0.70945 0.0
C701 C 0.86514 0.14172 0.72305 0.0
C702 C 0.87871 0.1287 0.7274 0.0
C703 C 0.90213 0.14383 0.71631 0.0
C704 C 0.90163 0.16515 0.70563 0.0
N705 N 0.90452 0.21308 0.67507 0.0
C706 C 0.92325 0.20694 0.67261 0.0
C707 C 0.94419 0.22481 0.65676 0.0
C708 C 0.93864 0.24364 0.64895 0.0
C709 C 0.91459 0.23628 0.66091 0.0
N710 N 0.88042 0.20585 0.74797 0.0
C711 C 0.89239 0.22145 0.82526 0.0
C712 C 0.90869 0.21699 0.80166 0.0
C713 C 0.90242 0.20936 0.76332 0.0
C714 C 0.87069 0.21942 0.80889 0.0
C715 C 0.86514 0.21172 0.77047 0.0
N716 N 0.86077 0.17768 0.64274 0.0
C717 C 0.86731 0.15743 0.58662 0.0
C718 C 0.84671 0.15696 0.56847 0.0
C719 C 0.83293 0.16658 0.58844 0.0
C720 C 0.8402 0.17671 0.62534 0.0
C721 C 0.87403 0.16793 0.62325 0.0
H722 H 0.829 0.1838 0.63904 0.0
H723 H 0.89009 0.16795 0.63505 0.0
H724 H 0.91543 0.20585 0.74706 0.0
H725 H 0.84819 0.21019 0.75996 0.0
C726 C 0.82019 0.19884 0.70292 0.0
C727 C 0.90253 0.2524 0.65925 0.0
C728 C 0.83864 0.13107 0.73018 0.0
C729 C 0.92106 0.18488 0.68783 0.0
H730 H 0.8695 0.27444 0.65701 0.0
H731 H 0.82454 0.24531 0.68021 0.0
H732 H 0.77878 0.15809 0.73399 0.0
H733 H 0.78936 0.1215 0.74959 0.0
H734 H 0.87233 0.10997 0.73651 0.0
H735 H 0.91747 0.13944 0.71468 0.0
H736 H 0.9616 0.2244 0.65219 0.0
H737 H 0.95106 0.26101 0.63644 0.0
H738 H 0.92572 0.21826 0.81313 0.0
H739 H 0.85773 0.2232 0.82596 0.0
H740 H 0.8784 0.14989 0.57251 0.0
H741 H 0.81699 0.16693 0.57531 0.0
C742 C 0.82764 0.65065 0.63574 0.0
C743 C 0.82068 0.62835 0.61741 0.0
C744 C 0.83798 0.62061 0.6264 0.0
C745 C 0.85458 0.63856 0.64952 0.0
N746 N 0.84903 0.65732 0.6553 0.0
Co747 Co 0.86802 0.68639 0.68843 0.0
N748 N 0.89717 0.67959 0.6898 0.0
C749 C 0.89721 0.65824 0.68046 0.0
C750 C 0.91987 0.65877 0.68399 0.0
C751 C 0.93503 0.68184 0.69664 0.0
C752 C 0.92071 0.69415 0.70025 0.0
N753 N 0.88694 0.71533 0.72165 0.0
C754 C 0.9113 0.72694 0.72936 0.0
C755 C 0.91652 0.74622 0.75484 0.0
C756 C 0.89469 0.74664 0.76338 0.0
C757 C 0.87739 0.72763 0.74278 0.0
N758 N 0.8389 0.69322 0.68743 0.0
C759 C 0.83474 0.70808 0.71226 0.0
C760 C 0.81287 0.70879 0.70591 0.0
C761 C 0.80239 0.69318 0.67547 0.0
C762 C 0.81852 0.68375 0.66485 0.0
N763 N 0.85494 0.66636 0.73498 0.0
C764 C 0.83613 0.63887 0.80238 0.0
C765 C 0.82068 0.63725 0.77159 0.0
C766 C 0.8305 0.65089 0.7379 0.0
C767 C 0.86118 0.65406 0.79871 0.0
C768 C 0.87019 0.66784 0.76493 0.0
N769 N 0.88114 0.70631 0.64205 0.0
C770 C 0.88963 0.74252 0.60492 0.0
C771 C 0.90017 0.73446 0.5754 0.0
C772 C 0.90116 0.71223 0.57983 0.0
C773 C 0.8913 0.69832 0.61312 0.0
C774 C 0.88052 0.72829 0.6384 0.0
H775 H 0.89168 0.68096 0.61521 0.0
H776 H 0.87276 0.73494 0.66111 0.0
H777 H 0.81816 0.64917 0.71459 0.0
H778 H 0.88944 0.68002 0.76344 0.0
C779 C 0.87677 0.63975 0.66275 0.0
C780 C 0.81247 0.66387 0.63647 0.0
C781 C 0.92962 0.71904 0.71583 0.0
C782 C 0.85295 0.72305 0.73795 0.0
H783 H 0.80456 0.61849 0.59994 0.0
H784 H 0.83858 0.60404 0.61665 0.0
H785 H 0.925 0.6444 0.67687 0.0
H786 H 0.95435 0.68875 0.70261 0.0
H787 H 0.9342 0.7585 0.76639 0.0
H788 H 0.8919 0.7597 0.78153 0.0
H789 H 0.80554 0.71963 0.72119 0.0
H790 H 0.78462 0.68874 0.66317 0.0
H791 H 0.80115 0.62579 0.77379 0.0
H792 H 0.87355 0.65605 0.82244 0.0
H793 H 0.8883 0.75951 0.60199 0.0
H794 H 0.90867 0.70522 0.55701 0.0
C795 C 0.89846 0.67482 0.15202 0.0
C796 C 0.91836 0.68713 0.12749 0.0
C797 C 0.91913 0.70939 0.12035 0.0
C798 C 0.89967 0.70939 0.14067 0.0
N799 N 0.88681 0.68871 0.16116 0.0
Co800 Co 0.85549 0.68013 0.19093 0.0
N801 N 0.85523 0.71196 0.17729 0.0
C802 C 0.87254 0.73039 0.15654 0.0
C803 C 0.86834 0.75054 0.1536 0.0
C804 C 0.8473 0.74487 0.1743 0.0
C805 C 0.83985 0.72148 0.18882 0.0
N806 N 0.82364 0.67101 0.21926 0.0
C807 C 0.81066 0.68394 0.22565 0.0
C808 C 0.78968 0.67065 0.24754 0.0
C809 C 0.78941 0.64868 0.25532 0.0
C810 C 0.81016 0.64971 0.23792 0.0
N811 N 0.85635 0.6488 0.206 0.0
C812 C 0.84037 0.63134 0.22983 0.0
C813 C 0.84518 0.6116 0.23398 0.0
C814 C 0.86517 0.61653 0.21088 0.0
C815 C 0.87134 0.63901 0.19372 0.0
N816 N 0.8738 0.69588 0.23867 0.0
C817 C 0.89378 0.72245 0.30683 0.0
C818 C 0.87407 0.69931 0.30864 0.0
C819 C 0.86465 0.68633 0.27455 0.0
C820 C 0.90467 0.73131 0.27072 0.0
C821 C 0.89445 0.71774 0.23712 0.0
N822 N 0.83716 0.66449 0.14325 0.0
C823 C 0.81172 0.62781 0.10793 0.0
C824 C 0.81757 0.64068 0.07295 0.0
C825 C 0.83198 0.66584 0.07389 0.0
C826 C 0.84159 0.6773 0.10909 0.0
C827 C 0.82124 0.64013 0.14271 0.0
H828 H 0.8533 0.69635 0.10766 0.0
H829 H 0.81611 0.62938 0.16857 0.0
H830 H 0.84952 0.66892 0.27799 0.0
H831 H 0.90316 0.72563 0.21025 0.0
C832 C 0.89239 0.72806 0.13985 0.0
C833 C 0.89052 0.64949 0.16402 0.0
C834 C 0.81806 0.70919 0.21344 0.0
C835 C 0.819 0.63234 0.2427 0.0
H836 H 0.93066 0.68049 0.11518 0.0
H837 H 0.9319 0.7236 0.10159 0.0
H838 H 0.87936 0.76742 0.13844 0.0
H839 H 0.83854 0.75671 0.17845 0.0
H840 H 0.77631 0.67649 0.2579 0.0
H841 H 0.7762 0.63409 0.27301 0.0
H842 H 0.83459 0.595 0.25012 0.0
H843 H 0.87368 0.60454 0.20596 0.0
H844 H 0.86573 0.69133 0.33633 0.0
H845 H 0.9204 0.74895 0.26827 0.0
H846 H 0.80031 0.6083 0.10834 0.0
H847 H 0.83699 0.67647 0.04725 0.0
C848 C 0.40348 0.20314 0.24464 0.0
C849 C 0.42628 0.20476 0.25389 0.0
C850 C 0.43443 0.19739 0.2217 0.0
C851 C 0.41619 0.19168 0.19487 0.0
N852 N 0.39689 0.19503 0.2078 0.0
Co853 Co 0.36622 0.18855 0.17855 0.0
N854 N 0.37839 0.17807 0.13096 0.0
C855 C 0.40044 0.17803 0.12633 0.0
C856 C 0.40468 0.17213 0.0895 0.0
C857 C 0.38415 0.16816 0.06923 0.0
C858 C 0.36821 0.17144 0.09519 0.0
N859 N 0.3353 0.18148 0.14969 0.0
C860 C 0.32822 0.17233 0.11346 0.0
C861 C 0.30425 0.16801 0.10615 0.0
C862 C 0.29617 0.17542 0.13834 0.0
C863 C 0.3154 0.18342 0.16363 0.0
N864 N 0.3543 0.19963 0.22573 0.0
C865 C 0.33291 0.20109 0.22979 0.0
C866 C 0.33007 0.20994 0.26521 0.0
C867 C 0.35093 0.21445 0.28504 0.0
C868 C 0.36529 0.20801 0.26042 0.0
N869 N 0.38161 0.22299 0.15871 0.0
C870 C 0.40413 0.27316 0.13696 0.0
C871 C 0.37905 0.26078 0.14576 0.0
C872 C 0.36833 0.23609 0.15642 0.0
C873 C 0.41742 0.25946 0.13763 0.0
C874 C 0.40593 0.23469 0.14833 0.0
N875 N 0.35084 0.15415 0.19872 0.0
C876 C 0.31705 0.12008 0.23032 0.0
C877 C 0.32977 0.10587 0.22933 0.0
C878 C 0.35307 0.1162 0.21199 0.0
C879 C 0.36306 0.13998 0.19679 0.0
C880 C 0.32788 0.14397 0.21534 0.0
H881 H 0.38081 0.1466 0.18386 0.0
H882 H 0.31738 0.15393 0.21804 0.0
H883 H 0.34927 0.22804 0.1632 0.0
H884 H 0.41725 0.2255 0.14862 0.0
C885 C 0.41704 0.18409 0.15684 0.0
C886 C 0.38883 0.20945 0.27189 0.0
C887 C 0.34375 0.16827 0.08453 0.0
C888 C 0.31541 0.19307 0.20047 0.0
H889 H 0.43604 0.21078 0.28106 0.0
H890 H 0.45167 0.19649 0.21816 0.0
H891 H 0.42096 0.17124 0.07851 0.0
H892 H 0.3816 0.16371 0.0386 0.0
H893 H 0.29369 0.16046 0.0801 0.0
H894 H 0.27839 0.17501 0.14278 0.0
H895 H 0.31456 0.21252 0.27554 0.0
H896 H 0.35501 0.22145 0.31445 0.0
H897 H 0.36757 0.27011 0.14467 0.0
H898 H 0.43684 0.26793 0.13112 0.0
H899 H 0.29907 0.11311 0.24374 0.0
H900 H 0.36366 0.10594 0.21004 0.0
C901 C 0.88542 0.21635 0.13515 0.0
C902 C 0.88822 0.23977 0.12797 0.0
C903 C 0.88077 0.24712 0.1609 0.0
C904 C 0.87383 0.22783 0.18608 0.0
N905 N 0.87641 0.20857 0.17132 0.0
Co906 Co 0.86844 0.17671 0.19786 0.0
N907 N 0.85749 0.1876 0.24616 0.0
C908 C 0.85773 0.20951 0.25271 0.0
C909 C 0.8489 0.21155 0.28866 0.0
C910 C 0.84264 0.18963 0.30622 0.0
C911 C 0.84804 0.17544 0.27977 0.0
N912 N 0.86009 0.14471 0.22418 0.0
C913 C 0.85023 0.13661 0.25983 0.0
C914 C 0.84668 0.11292 0.26661 0.0
C915 C 0.85456 0.10571 0.23394 0.0
C916 C 0.86238 0.12532 0.20926 0.0
N917 N 0.87967 0.16594 0.14969 0.0
C918 C 0.88051 0.14446 0.14381 0.0
C919 C 0.88956 0.14255 0.10796 0.0
C920 C 0.89484 0.1641 0.08979 0.0
C921 C 0.88859 0.17792 0.11574 0.0
N922 N 0.90279 0.19049 0.21862 0.0
C923 C 0.9529 0.21078 0.24193 0.0
C924 C 0.93994 0.18624 0.23099 0.0
C925 C 0.91538 0.17668 0.21944 0.0
C926 C 0.93969 0.22461 0.24258 0.0
C927 C 0.91494 0.2142 0.23122 0.0
N928 N 0.83419 0.16295 0.17705 0.0
C929 C 0.79901 0.13004 0.14664 0.0
C930 C 0.78516 0.14315 0.1492 0.0
C931 C 0.79647 0.16637 0.16614 0.0
C932 C 0.82062 0.17577 0.17975 0.0
C933 C 0.82325 0.14023 0.1603 0.0
H934 H 0.82794 0.19349 0.19245 0.0
H935 H 0.83283 0.12939 0.15683 0.0
H936 H 0.90707 0.15803 0.21088 0.0
H937 H 0.90614 0.22585 0.23236 0.0
C938 C 0.86532 0.22744 0.22397 0.0
C939 C 0.89118 0.20214 0.10647 0.0
C940 C 0.84425 0.15073 0.28835 0.0
C941 C 0.87214 0.1262 0.17209 0.0
H942 H 0.89496 0.25044 0.10164 0.0
H943 H 0.88052 0.26447 0.16595 0.0
H944 H 0.847 0.22704 0.30051 0.0
H945 H 0.83491 0.18462 0.33521 0.0
H946 H 0.83916 0.10201 0.29252 0.0
H947 H 0.85457 0.08826 0.22878 0.0
H948 H 0.8919 0.12724 0.09635 0.0
H949 H 0.90235 0.1691 0.06067 0.0
H950 H 0.94865 0.1742 0.2311 0.0
H951 H 0.9485 0.24365 0.25079 0.0
H952 H 0.7914 0.11215 0.13335 0.0
H953 H 0.78665 0.17732 0.16933 0.0
H954 H 0.02629 0.53334 0.3688 0.0
H955 H 0.0326 0.46626 0.38605 0.0
H956 H 0.03474 0.4617 0.31467 0.0
H957 H 0.98693 0.51202 0.28344 0.0
H958 H 1.00036 0.54118 0.25921 0.0
H959 H 1.00016 0.53969 0.31166 0.0
H960 H 0.04717 0.56539 0.31197 0.0
H961 H 0.04753 0.56683 0.25951 0.0
H962 H 0.06615 0.55522 0.28424 0.0
H963 H 0.03765 0.46503 0.24057 0.0
H964 H 0.03744 0.47397 0.17036 0.0
H965 H 0.02598 0.53718 0.19884 0.0
C966 C 0.0281 0.51768 0.3575 0.0
C967 C 0.02972 0.50034 0.38351 0.0
C968 C 0.03179 0.48002 0.36715 0.0
C969 C 0.03295 0.47726 0.32647 0.0
C970 C 0.03161 0.49473 0.30175 0.0
C971 C 0.0289 0.51442 0.31661 0.0
C972 C 0.02703 0.53008 0.28335 0.0
C973 C 1.00214 0.53078 0.28449 0.0
C974 C 0.04823 0.55592 0.28487 0.0
C975 C 0.02927 0.51625 0.24757 0.0
C976 C 0.03213 0.49602 0.259 0.0
C977 C 0.03516 0.4807 0.23147 0.0
C978 C 0.035 0.48591 0.19148 0.0
C979 C 0.03146 0.50612 0.17861 0.0
C980 C 0.02869 0.52154 0.20743 0.0
H981 H 0.52584 0.51073 0.35168 0.0
H982 H 0.59293 0.57643 0.37042 0.0
H983 H 0.59832 0.58289 0.29919 0.0
H984 H 0.54725 0.4909 0.26471 0.0
H985 H 0.51815 0.47909 0.24041 0.0
H986 H 0.51929 0.47959 0.29288 0.0
H987 H 0.49405 0.50419 0.29479 0.0
H988 H 0.49292 0.50385 0.24232 0.0
H989 H 0.50479 0.53244 0.26812 0.0
H990 H 0.59617 0.58301 0.22504 0.0
H991 H 0.58779 0.57563 0.15457 0.0
H992 H 0.52277 0.50914 0.18107 0.0
C993 C 0.54165 0.52647 0.34071 0.0
C994 C 0.55878 0.54335 0.36714 0.0
C995 C 0.57934 0.56348 0.3512 0.0
C996 C 0.58257 0.56727 0.31059 0.0
C997 C 0.56525 0.55064 0.28542 0.0
C998 C 0.54525 0.53049 0.29981 0.0
C999 C 0.52961 0.51528 0.26602 0.0
C1000 C 0.52851 0.4897 0.26601 0.0
C1001 C 0.50381 0.51386 0.26794 0.0
C1002 C 0.54384 0.53003 0.23054 0.0
C1003 C 0.56432 0.55042 0.24258 0.0
C1004 C 0.58024 0.56701 0.21547 0.0
C1005 C 0.57534 0.56266 0.17532 0.0
C1006 C 0.55474 0.54177 0.16178 0.0
C1007 C 0.53871 0.52531 0.19017 0.0
H1008 H 0.53988 1.00063 0.17738 0.0
H1009 H 0.4618 0.96586 0.15751 0.0
H1010 H 0.45421 0.96251 0.22901 0.0
H1011 H 0.53933 0.96624 0.26657 0.0
H1012 H 0.56336 0.99269 0.28864 0.0
H1013 H 0.56224 0.98929 0.23641 0.0
H1014 H 0.56219 0.03143 0.22908 0.0
H1015 H 0.56324 0.03494 0.28115 0.0
H1016 H 0.53906 0.03709 0.25403 0.0
H1017 H 0.45567 0.96668 0.30275 0.0
H1018 H 0.46602 0.97917 0.37168 0.0
H1019 H 0.54319 0.01117 0.34173 0.0
C1020 C 0.52124 0.99182 0.18833 0.0
C1021 C 0.50136 0.98327 0.16263 0.0
C1022 C 0.47713 0.97227 0.1773 0.0
C1023 C 0.47273 0.97027 0.21766 0.0
C1024 C 0.49281 0.97926 0.24254 0.0
C1025 C 0.51659 0.98973 0.22834 0.0
C1026 C 0.53497 0.9998 0.26076 0.0
C1027 C 0.55091 0.98618 0.26324 0.0
C1028 C 0.55078 0.02745 0.25596 0.0
C1029 C 0.51788 0.99409 0.29538 0.0
C1030 C 0.49363 0.98191 0.28455 0.0
C1031 C 0.47461 0.97594 0.31162 0.0
C1032 C 0.4806 0.98303 0.35061 0.0
C1033 C 0.50535 0.99619 0.36173 0.0
C1034 C 0.5241 1.00123 0.33386 0.0
H1035 H 0.03051 0.49117 0.69742 0.0
H1036 H 0.0275 0.55899 0.67124 0.0
H1037 H 0.02683 0.56716 0.74179 0.0
H1038 H 0.99156 0.47499 0.78331 0.0
H1039 H 0.00932 0.46318 0.81004 0.0
H1040 H 0.0091 0.46225 0.75755 0.0
H1041 H 0.05633 0.48582 0.75604 0.0
H1042 H 0.05671 0.48672 0.80853 0.0
H1043 H 0.07117 0.51463 0.78098 0.0
H1044 H 0.02498 0.56741 0.81618 0.0
H1045 H 0.02506 0.56117 0.88738 0.0
H1046 H 0.03232 0.49474 0.86734 0.0
C1047 C 0.02978 0.50778 0.70658 0.0
C1048 C 0.02877 0.52433 0.67832 0.0
C1049 C 0.02797 0.54587 0.69192 0.0
C1050 C 0.02762 0.55069 0.73211 0.0
C1051 C 0.02844 0.534 0.75909 0.0
C1052 C 0.02978 0.51306 0.7469 0.0
C1053 C 0.0311 0.49847 0.78216 0.0
C1054 C 0.00895 0.47322 0.78332 0.0
C1055 C 0.05526 0.49628 0.7819 0.0
C1056 C 0.03017 0.51435 0.81598 0.0
C1057 C 0.02844 0.53467 0.80191 0.0
C1058 C 0.02662 0.55169 0.82734 0.0
C1059 C 0.02675 0.54803 0.86791 0.0
C1060 C 0.02905 0.52769 0.88344 0.0
C1061 C 0.0307 0.5106 0.85671 0.0
H1062 H 0.56791 0.55383 0.67929 0.0
H1063 H 0.50188 0.48827 0.65453 0.0
H1064 H 0.49399 0.48076 0.72539 0.0
H1065 H 0.586 0.53032 0.76396 0.0
H1066 H 0.59741 0.55857 0.79065 0.0
H1067 H 0.59784 0.55893 0.73814 0.0
H1068 H 0.57309 0.58404 0.73823 0.0
H1069 H 0.57263 0.5838 0.79074 0.0
H1070 H 0.54433 0.57266 0.76422 0.0
H1071 H 0.49316 0.48035 0.8002 0.0
H1072 H 0.49956 0.48691 0.8713 0.0
H1073 H 0.56613 0.55276 0.84935 0.0
C1074 C 0.55171 0.53797 0.68885 0.0
C1075 C 0.53535 0.5217 0.66094 0.0
C1076 C 0.51459 0.50104 0.67498 0.0
C1077 C 0.50998 0.49664 0.71534 0.0
C1078 C 0.52633 0.513 0.74201 0.0
C1079 C 0.54683 0.53328 0.72931 0.0
C1080 C 0.56154 0.54791 0.7642 0.0
C1081 C 0.58722 0.54899 0.76422 0.0
C1082 C 0.56298 0.57363 0.76435 0.0
C1083 C 0.54616 0.5328 0.79847 0.0
C1084 C 0.5259 0.51272 0.78492 0.0
C1085 C 0.50897 0.49606 0.8109 0.0
C1086 C 0.51272 0.49994 0.85141 0.0
C1087 C 0.53324 0.52036 0.86633 0.0
C1088 C 0.55021 0.53695 0.83913 0.0
H1089 H 0.52597 0.01908 0.86706 0.0
H1090 H 0.59999 0.03987 0.90568 0.0
H1091 H 0.61531 0.05157 0.83785 0.0
H1092 H 0.53098 0.99352 0.77541 0.0
H1093 H 0.51205 1.00457 0.75019 0.0
H1094 H 0.5075 0.99798 0.80153 0.0
H1095 H 0.51323 0.04194 0.81478 0.0
H1096 H 0.51789 0.0487 0.76349 0.0
H1097 H 0.54067 0.06749 0.7979 0.0
H1098 H 0.62187 0.06033 0.76474 0.0
H1099 H 0.61913 0.0659 0.69357 0.0
H1100 H 0.54058 0.03949 0.70538 0.0
C1101 C 0.54539 0.02616 0.86104 0.0
C1102 C 0.56194 0.02874 0.891 0.0
C1103 C 0.58721 0.0379 0.88263 0.0
C1104 C 0.59599 0.04455 0.84439 0.0
C1105 C 0.57915 0.0419 0.81528 0.0
C1106 C 0.55438 0.03294 0.82331 0.0
C1107 C 0.53998 0.03182 0.78722 0.0
C1108 C 0.52155 0.00541 0.77805 0.0
C1109 C 0.5272 0.04849 0.79109 0.0
C1110 C 0.56045 0.04154 0.7575 0.0
C1111 C 0.58293 0.04723 0.77397 0.0
C1112 C 0.60436 0.05606 0.75158 0.0
C1113 C 0.60266 0.05912 0.7113 0.0
C1114 C 0.57972 0.05353 0.69418 0.0
C1115 C 0.55847 0.04457 0.71777 0.0
H1116 H 0.70471 0.83487 0.68343 0.0
H1117 H 0.70956 0.90669 0.70433 0.0
H1118 H 0.71061 0.91372 0.63317 0.0
H1119 H 0.74554 0.85166 0.59875 0.0
H1120 H 0.72818 0.82351 0.57318 0.0
H1121 H 0.72779 0.82406 0.62568 0.0
H1122 H 0.68053 0.80566 0.62527 0.0
H1123 H 0.68079 0.80516 0.57277 0.0
H1124 H 0.66591 0.82075 0.59829 0.0
H1125 H 0.71095 0.91303 0.55881 0.0
H1126 H 0.71105 0.90487 0.48812 0.0
H1127 H 0.70653 0.83368 0.51341 0.0
C1128 C 0.70614 0.85212 0.67295 0.0
C1129 C 0.70715 0.87032 0.69981 0.0
C1130 C 0.70879 0.89252 0.68463 0.0
C1131 C 0.70939 0.89665 0.64411 0.0
C1132 C 0.70835 0.87844 0.61847 0.0
C1133 C 0.70682 0.85659 0.63227 0.0
C1134 C 0.70598 0.84009 0.59822 0.0
C1135 C 0.72819 0.8345 0.59901 0.0
C1136 C 0.68187 0.81652 0.59868 0.0
C1137 C 0.70725 0.856 0.5632 0.0
C1138 C 0.70858 0.87805 0.57566 0.0
C1139 C 0.70991 0.8958 0.54892 0.0
C1140 C 0.70996 0.89101 0.50868 0.0
C1141 C 0.70866 0.86863 0.49486 0.0
C1142 C 0.70731 0.85091 0.52282 0.0
H1143 H 0.17857 0.86188 0.68387 0.0
H1144 H 0.22425 0.82511 0.70297 0.0
H1145 H 0.22705 0.82048 0.63199 0.0
H1146 H 0.14878 0.83452 0.59603 0.0
H1147 H 0.15295 0.86231 0.57216 0.0
H1148 H 0.15157 0.86039 0.62458 0.0
H1149 H 0.19365 0.89813 0.6293 0.0
H1150 H 0.19489 0.90048 0.57691 0.0
H1151 H 0.21948 0.89843 0.60294 0.0
H1152 H 0.21905 0.81439 0.55819 0.0
H1153 H 0.21405 0.81932 0.48806 0.0
H1154 H 0.18826 0.87339 0.51513 0.0
C1155 C 0.18957 0.85322 0.67335 0.0
C1156 C 0.2002 0.8428 0.69997 0.0
C1157 C 0.2147 0.83206 0.68395 0.0
C1158 C 0.21658 0.82948 0.64341 0.0
C1159 C 0.20534 0.83929 0.61834 0.0
C1160 C 0.19333 0.85219 0.63266 0.0
C1161 C 0.18609 0.86399 0.59909 0.0
C1162 C 0.15819 0.85475 0.59792 0.0
C1163 C 0.19931 0.89192 0.60225 0.0
C1164 C 0.19516 0.85498 0.56375 0.0
C1165 C 0.20527 0.83992 0.57567 0.0
C1166 C 0.21214 0.82699 0.54864 0.0
C1167 C 0.20932 0.83004 0.5086 0.0
C1168 C 0.20114 0.84708 0.49495 0.0
C1169 C 0.19411 0.85981 0.52357 0.0
H1170 H 0.19121 0.3141 0.53258 0.0
H1171 H 0.2342 0.39086 0.50586 0.0
H1172 H 0.2375 0.4003 0.57604 0.0
H1173 H 0.16149 0.31736 0.61946 0.0
H1174 H 0.16643 0.2946 0.64609 0.0
H1175 H 0.16493 0.29335 0.59366 0.0
H1176 H 0.20753 0.29377 0.58978 0.0
H1177 H 0.2089 0.29445 0.64224 0.0
H1178 H 0.23308 0.31761 0.61406 0.0
H1179 H 0.23 0.40161 0.64933 0.0
H1180 H 0.22585 0.39481 0.72035 0.0
H1181 H 0.20132 0.31738 0.70162 0.0
C1182 C 0.20208 0.33283 0.5412 0.0
C1183 C 0.21204 0.35177 0.51279 0.0
C1184 C 0.22567 0.37601 0.52642 0.0
C1185 C 0.22771 0.38159 0.56642 0.0
C1186 C 0.21732 0.36265 0.59332 0.0
C1187 C 0.20594 0.33864 0.58138 0.0
C1188 C 0.19915 0.32171 0.61673 0.0
C1189 C 0.17135 0.30581 0.6191 0.0
C1190 C 0.21299 0.30595 0.61564 0.0
C1191 C 0.20791 0.33999 0.65025 0.0
C1192 C 0.21737 0.36348 0.6359 0.0
C1193 C 0.22375 0.38336 0.66083 0.0
C1194 C 0.22144 0.3793 0.70133 0.0
C1195 C 0.2144 0.35574 0.71735 0.0
C1196 C 0.20721 0.33576 0.69093 0.0
H1197 H 0.70653 0.90152 0.18356 0.0
H1198 H 0.70219 0.82991 0.20413 0.0
H1199 H 0.70326 0.82366 0.13294 0.0
H1200 H 0.66896 0.88588 0.0967 0.0
H1201 H 0.68707 0.91431 0.07211 0.0
H1202 H 0.68578 0.9132 0.12458 0.0
H1203 H 0.733 0.93158 0.12715 0.0
H1204 H 0.73444 0.93283 0.07469 0.0
H1205 H 0.74853 0.91692 0.10086 0.0
H1206 H 0.7049 0.82511 0.05852 0.0
H1207 H 0.70725 0.83425 0.98792 0.0
H1208 H 0.71146 0.9053 0.01383 0.0
C1209 C 0.70591 0.88457 0.17301 0.0
C1210 C 0.70434 0.86618 0.19979 0.0
C1211 C 0.70336 0.84423 0.1845 0.0
C1212 C 0.70399 0.84054 0.14398 0.0
C1213 C 0.70563 0.85898 0.11843 0.0
C1214 C 0.70662 0.88062 0.13235 0.0
C1215 C 0.70851 0.89752 0.09845 0.0
C1216 C 0.68625 0.90306 0.09794 0.0
C1217 C 0.73255 0.92111 0.10041 0.0
C1218 C 0.70841 0.88207 0.06336 0.0
C1219 C 0.70669 0.85986 0.07565 0.0
C1220 C 0.70624 0.84246 0.04877 0.0
C1221 C 0.7076 0.84781 1.00859 0.0
C1222 C 0.7094 0.87039 0.99497 0.0
C1223 C 0.70986 0.88776 0.02307 0.0
H1224 H 0.15416 0.81506 0.01505 0.0
H1225 H 0.22305 0.87689 0.98676 0.0
H1226 H 0.23246 0.88396 0.05704 0.0
H1227 H 0.14056 0.83998 0.10282 0.0
H1228 H 0.12805 0.81155 0.12918 0.0
H1229 H 0.12634 0.81152 0.07677 0.0
H1230 H 0.14829 0.7838 0.07255 0.0
H1231 H 0.14994 0.78363 0.12494 0.0
H1232 H 0.17744 0.79319 0.09598 0.0
H1233 H 0.23442 0.88459 0.1313 0.0
H1234 H 0.22939 0.87795 0.20259 0.0
H1235 H 0.16027 0.81445 0.18435 0.0
C1236 C 0.17132 0.82997 0.02367 0.0
C1237 C 0.18796 0.84538 0.99498 0.0
C1238 C 0.21001 0.86486 1.00786 0.0
C1239 C 0.21551 0.86899 0.04786 0.0
C1240 C 0.19887 0.85345 0.07528 0.0
C1241 C 0.17725 0.83422 0.06374 0.0
C1242 C 0.16276 0.81999 0.09931 0.0
C1243 C 0.13795 0.82081 0.10218 0.0
C1244 C 0.15941 0.79358 0.09812 0.0
C1245 C 0.17954 0.83421 0.1326 0.0
C1246 C 0.20022 0.85354 0.11798 0.0
C1247 C 0.2183 0.86945 0.14288 0.0
C1248 C 0.21531 0.86554 0.18347 0.0
C1249 C 0.19445 0.84577 0.19946 0.0
C1250 C 0.17635 0.82988 0.17332 0.0
H1251 H 0.2041 0.31184 0.03323 0.0
H1252 H 0.23463 0.38876 1.0042 0.0
H1253 H 0.24024 0.39896 0.07407 0.0
H1254 H 0.16716 0.31945 0.11532 0.0
H1255 H 0.1689 0.29563 0.14396 0.0
H1256 H 0.16942 0.29423 0.09151 0.0
H1257 H 0.21006 0.29057 0.09461 0.0
H1258 H 0.20996 0.29252 0.14701 0.0
H1259 H 0.2359 0.31374 0.11938 0.0
H1260 H 0.24873 0.40053 0.14722 0.0
H1261 H 0.24674 0.39448 0.21841 0.0
H1262 H 0.19793 0.31779 0.20227 0.0
C1263 C 0.21111 0.33082 0.04129 0.0
C1264 C 0.21927 0.34948 0.01231 0.0
C1265 C 0.22886 0.37405 0.02521 0.0
C1266 C 0.23211 0.38007 0.06503 0.0
C1267 C 0.22437 0.36136 0.0925 0.0
C1268 C 0.21286 0.33721 0.08129 0.0
C1269 C 0.20368 0.3208 0.11719 0.0
C1270 C 0.17562 0.30669 0.11698 0.0
C1271 C 0.21561 0.30337 0.11967 0.0
C1272 C 0.21244 0.3395 0.15014 0.0
C1273 C 0.22521 0.36267 0.13505 0.0
C1274 C 0.23774 0.38261 0.15932 0.0
C1275 C 0.23639 0.37899 0.19993 0.0
C1276 C 0.22129 0.35593 0.21676 0.0
C1277 C 0.20937 0.33583 0.19097 0.0
H1278 H 0.33932 0.12952 0.03904 0.0
H1279 H 0.33047 0.19597 0.0373 0.0
H1280 H 0.31897 0.18911 0.96796 0.0
H1281 H 0.37192 0.14299 0.95242 0.0
H1282 H 0.36064 0.11197 0.93572 0.0
H1283 H 0.36165 0.11827 0.98702 0.0
H1284 H 0.31531 0.08929 0.99295 0.0
H1285 H 0.31413 0.08304 0.94143 0.0
H1286 H 0.29391 0.09424 0.96261 0.0
H1287 H 0.31308 0.17808 0.89849 0.0
H1288 H 0.31994 0.16784 0.83144 0.0
H1289 H 0.33826 0.1118 0.87526 0.0
C1290 C 0.3345 0.14232 0.02408 0.0
C1291 C 0.33541 0.16308 0.04343 0.0
C1292 C 0.32943 0.17973 0.02301 0.0
C1293 C 0.32279 0.17592 0.98374 0.0
C1294 C 0.32273 0.15563 0.96513 0.0
C1295 C 0.3289 0.13935 0.98439 0.0
C1296 C 0.33199 0.12181 0.95613 0.0
C1297 C 0.3581 0.12391 0.95793 0.0
C1298 C 0.31268 0.09553 0.96374 0.0
C1299 C 0.32741 0.13133 0.91786 0.0
C1300 C 0.32114 0.15022 0.924 0.0
C1301 C 0.31752 0.16305 0.8933 0.0
C1302 C 0.32128 0.15703 0.85534 0.0
C1303 C 0.32895 0.1387 0.84852 0.0
C1304 C 0.33163 0.12536 0.87999 0.0
H1305 H 0.85941 0.20049 0.88366 0.0
H1306 H 0.93542 0.25086 0.86202 0.0
H1307 H 0.94312 0.25369 0.93303 0.0
H1308 H 0.85173 0.22844 0.97482 0.0
H1309 H 0.8324 0.19917 0.99603 0.0
H1310 H 0.8326 0.2034 0.94406 0.0
H1311 H 0.84324 0.16717 0.9337 0.0
H1312 H 0.84334 0.16301 0.98554 0.0
H1313 H 0.86995 0.16772 0.9568 0.0
H1314 H 0.94297 0.24813 1.00602 0.0
H1315 H 0.93466 0.23486 0.07522 0.0
H1316 H 0.85892 0.1884 0.04744 0.0
C1317 C 0.87751 0.21273 0.89385 0.0
C1318 C 0.89677 0.22566 0.86749 0.0
C1319 C 0.92042 0.2408 0.88188 0.0
C1320 C 0.92492 0.2426 0.92206 0.0
C1321 C 0.90554 0.22918 0.94722 0.0
C1322 C 0.88227 0.21466 0.93362 0.0
C1323 C 0.86494 0.20074 0.96618 0.0
C1324 C 0.8442 0.20841 0.97052 0.0
C1325 C 0.85479 0.17303 0.96018 0.0
C1326 C 0.88217 0.2093 1.00023 0.0
C1327 C 0.90548 0.22585 0.9889 0.0
C1328 C 0.92474 0.23543 0.0153 0.0
C1329 C 0.91995 0.22782 0.05427 0.0
C1330 C 0.89622 0.21082 0.06592 0.0
C1331 C 0.87714 0.20158 0.03879 0.0
H1332 H 0.79525 0.65061 1.01197 0.0
H1333 H 0.82759 0.60379 0.04856 0.0
H1334 H 0.82734 0.59047 0.98055 0.0
H1335 H 0.75844 0.61029 0.92564 0.0
H1336 H 0.76456 0.63722 0.89745 0.0
H1337 H 0.76066 0.63744 0.94958 0.0
H1338 H 0.80277 0.67524 0.95456 0.0
H1339 H 0.80697 0.67499 0.90285 0.0
H1340 H 0.82959 0.67366 0.93501 0.0
H1341 H 0.83483 0.59193 0.90941 0.0
H1342 H 0.84557 0.60499 0.84081 0.0
H1343 H 0.80612 0.6487 0.84937 0.0
C1344 C 0.80114 0.63666 1.00569 0.0
C1345 C 0.81121 0.62801 0.03516 0.0
C1346 C 0.81936 0.61023 0.02628 0.0
C1347 C 0.81931 0.6026 0.98774 0.0
C1348 C 0.81052 0.61253 0.95878 0.0
C1349 C 0.80095 0.62872 0.96745 0.0
C1350 C 0.79587 0.63937 0.93086 0.0
C1351 C 0.76824 0.63054 0.92557 0.0
C1352 C 0.80964 0.66746 0.93085 0.0
C1353 C 0.80605 0.62835 0.90047 0.0
C1354 C 0.814 0.61254 0.91701 0.0
C1355 C 0.82775 0.60339 0.89579 0.0
C1356 C 0.83387 0.61095 0.85702 0.0
C1357 C 0.82604 0.62726 0.84003 0.0
C1358 C 0.81139 0.63544 0.86159 0.0
H1359 H 0.37811 0.17474 0.32684 0.0
H1360 H 0.41436 0.25281 0.30928 0.0
H1361 H 0.42305 0.25894 0.38019 0.0
H1362 H 0.34808 0.17565 0.41259 0.0
H1363 H 0.35088 0.15045 0.43515 0.0
H1364 H 0.35055 0.15247 0.38293 0.0
H1365 H 0.39207 0.15036 0.37866 0.0
H1366 H 0.39252 0.14828 0.431 0.0
H1367 H 0.41789 0.17194 0.40559 0.0
H1368 H 0.42412 0.2561 0.45398 0.0
H1369 H 0.41631 0.24472 0.52384 0.0
H1370 H 0.37958 0.16843 0.49141 0.0
C1371 C 0.38833 0.19304 0.33805 0.0
C1372 C 0.39586 0.21335 0.31329 0.0
C1373 C 0.40875 0.23715 0.32835 0.0
C1374 C 0.41376 0.24072 0.36834 0.0
C1375 C 0.4058 0.22024 0.3924 0.0
C1376 C 0.39342 0.19686 0.37769 0.0
C1377 C 0.38506 0.17798 0.40968 0.0
C1378 C 0.35699 0.16329 0.4101 0.0
C1379 C 0.39765 0.16115 0.40601 0.0
C1380 C 0.39403 0.19435 0.44485 0.0
C1381 C 0.40624 0.21865 0.43448 0.0
C1382 C 0.41487 0.23711 0.46242 0.0
C1383 C 0.41044 0.23052 0.50195 0.0
C1384 C 0.39726 0.20574 0.51281 0.0
C1385 C 0.38957 0.18754 0.48385 0.0
H1386 H 0.8775 0.15968 0.34456 0.0
H1387 H 0.79967 0.1245 0.32273 0.0
H1388 H 0.79147 0.11689 0.39365 0.0
H1389 H 0.87748 0.12201 0.43095 0.0
H1390 H 0.90069 0.14831 0.45467 0.0
H1391 H 0.90014 0.14626 0.40225 0.0
H1392 H 0.89872 0.18791 0.39804 0.0
H1393 H 0.89901 0.19002 0.45025 0.0
H1394 H 0.87469 0.19194 0.4232 0.0
H1395 H 0.79211 0.11891 0.46697 0.0
H1396 H 0.80132 0.12985 0.53642 0.0
H1397 H 0.87891 0.16517 0.50858 0.0
C1398 C 0.85883 0.14954 0.35485 0.0
C1399 C 0.83915 0.14218 0.32894 0.0
C1400 C 0.81483 0.12975 0.34271 0.0
C1401 C 0.81009 0.12541 0.38272 0.0
C1402 C 0.82996 0.1336 0.40801 0.0
C1403 C 0.85387 0.14524 0.3945 0.0
C1404 C 0.87185 0.15497 0.42747 0.0
C1405 C 0.88852 0.14211 0.42892 0.0
C1406 C 0.88693 0.18285 0.42455 0.0
C1407 C 0.85436 0.14781 0.46165 0.0
C1408 C 0.8303 0.13518 0.45006 0.0
C1409 C 0.8109 0.12841 0.47648 0.0
C1410 C 0.81628 0.13489 0.51573 0.0
C1411 C 0.84084 0.14818 0.52791 0.0
C1412 C 0.86 0.15439 0.50044 0.0
H1413 H 0.8705 0.74035 0.52339 0.0
H1414 H 0.94557 0.75426 0.54222 0.0
H1415 H 0.9548 0.76398 0.47238 0.0
H1416 H 0.86242 0.70637 0.44761 0.0
H1417 H 0.84283 0.71535 0.41966 0.0
H1418 H 0.84404 0.71887 0.47151 0.0
H1419 H 0.85603 0.7649 0.46427 0.0
H1420 H 0.85448 0.76147 0.41201 0.0
H1421 H 0.88197 0.78378 0.43437 0.0
H1422 H 0.95319 0.76103 0.40068 0.0
H1423 H 0.94066 0.74481 0.33421 0.0
H1424 H 0.86618 0.73125 0.361 0.0
C1425 C 0.88917 0.74697 0.51298 0.0
C1426 C 0.90752 0.74724 0.53784 0.0
C1427 C 0.93152 0.75457 0.52342 0.0
C1428 C 0.93687 0.76015 0.48387 0.0
C1429 C 0.91797 0.7582 0.45928 0.0
C1430 C 0.89458 0.75204 0.47341 0.0
C1431 C 0.87638 0.74599 0.44059 0.0
C1432 C 0.85521 0.72012 0.44513 0.0
C1433 C 0.86665 0.76519 0.43764 0.0
C1434 C 0.8927 0.74764 0.40622 0.0
C1435 C 0.9168 0.75562 0.41728 0.0
C1436 C 0.93455 0.75549 0.39141 0.0
C1437 C 0.92732 0.74622 0.35377 0.0
C1438 C 0.90251 0.73683 0.34285 0.0
C1439 C 0.8853 0.7385 0.36884 0.0
H1440 H 0.08077 0.44805 0.94665 0.0
H1441 H 0.12632 0.48973 0.04243 0.0
H1442 H 0.15628 0.47414 0.02652 0.0
H1443 H 0.09237 0.39493 0.95866 0.0
H1444 H 0.09281 0.38953 0.90707 0.0
H1445 H 0.07467 0.40378 0.92604 0.0
H1446 H 0.09693 0.44034 0.8794 0.0
H1447 H 0.11522 0.42626 0.86043 0.0
H1448 H 0.12985 0.45663 0.88031 0.0
H1449 H 0.18178 0.45447 1.00013 0.0
H1450 H 0.20036 0.43115 0.9664 0.0
H1451 H 0.1389 0.40202 0.88696 0.0
C1452 C 0.09691 0.45371 0.96454 0.0
C1453 C 0.10114 0.47037 0.99571 0.0
C1454 C 0.12272 0.47739 0.01803 0.0
C1455 C 0.13986 0.46851 1.00933 0.0
C1456 C 0.13532 0.45248 0.97819 0.0
C1457 C 0.11434 0.44501 0.9562 0.0
C1458 C 0.11409 0.42767 0.92414 0.0
C1459 C 0.09218 0.40248 0.9293 0.0
C1460 C 0.11402 0.43837 0.88367 0.0
C1461 C 0.13816 0.42659 0.93161 0.0
C1462 C 0.1501 0.44109 0.96291 0.0
C1463 C 0.17262 0.44313 0.97547 0.0
C1464 C 0.18318 0.42992 0.95579 0.0
C1465 C 0.17135 0.41474 0.92363 0.0
C1466 C 0.14847 0.41323 0.91151 0.0
H1467 H 0.67795 0.75567 0.92541 0.0
H1468 H 0.62294 0.75321 0.84357 0.0
H1469 H 0.59786 0.70991 0.85893 0.0
H1470 H 0.67111 0.69376 0.90438 0.0
H1471 H 0.67533 0.68754 0.95435 0.0
H1472 H 0.6898 0.71837 0.9362 0.0
H1473 H 0.66923 0.7318 0.99134 0.0
H1474 H 0.65466 0.70102 1.00959 0.0
H1475 H 0.63643 0.71645 0.99716 0.0
H1476 H 0.57734 0.66767 0.88499 0.0
H1477 H 0.56311 0.62827 0.91896 0.0
H1478 H 0.63105 0.65581 0.98335 0.0
C1479 C 0.66079 0.74592 0.91033 0.0
C1480 C 0.65242 0.75819 0.88346 0.0
C1481 C 0.62968 0.74462 0.86476 0.0
C1482 C 0.6153 0.71986 0.87311 0.0
C1483 C 0.62379 0.70851 0.90013 0.0
C1484 C 0.64606 0.72094 0.91834 0.0
C1485 C 0.6504 0.70417 0.94686 0.0
C1486 C 0.67301 0.70076 0.93472 0.0
C1487 C 0.65282 0.71395 0.98872 0.0
C1488 C 0.62697 0.68056 0.94207 0.0
C1489 C 0.61197 0.68364 0.91487 0.0
C1490 C 0.58901 0.665 0.90615 0.0
C1491 C 0.58102 0.64267 0.92576 0.0
C1492 C 0.59586 0.63883 0.95389 0.0
C1493 C 0.61935 0.65806 0.96177 0.0
H1494 H 0.31324 0.9172 0.87656 0.0
H1495 H 0.28868 0.84642 0.93191 0.0
H1496 H 0.32941 0.85968 0.96076 0.0
H1497 H 0.375 0.92638 0.85481 0.0
H1498 H 0.38888 0.95856 0.86527 0.0
H1499 H 0.35779 0.94362 0.84828 0.0
H1500 H 0.34333 0.95914 0.90882 0.0
H1501 H 0.37438 0.97411 0.92602 0.0
H1502 H 0.35063 0.9525 0.95681 0.0
H1503 H 0.3727 0.88053 0.98493 0.0
H1504 H 0.41541 0.90725 1.00208 0.0
H1505 H 0.41326 0.96507 0.93146 0.0
C1506 C 0.31633 0.90448 0.89487 0.0
C1507 C 0.29744 0.88051 0.90139 0.0
C1508 C 0.30268 0.8646 0.92547 0.0
C1509 C 0.32583 0.87206 0.94238 0.0
C1510 C 0.34391 0.89562 0.93526 0.0
C1511 C 0.33951 0.91164 0.91207 0.0
C1512 C 0.36233 0.936 0.90924 0.0
C1513 C 0.37154 0.94146 0.86688 0.0
C1514 C 0.35736 0.95666 0.92624 0.0
C1515 C 0.38016 0.93114 0.93451 0.0
C1516 C 0.36906 0.9077 0.94918 0.0
C1517 C 0.3816 0.89887 0.97335 0.0
C1518 C 0.40608 0.91424 0.9827 0.0
C1519 C 0.41821 0.9384 0.96794 0.0
C1520 C 0.40477 0.94685 0.94357 0.0
H1521 H 0.50378 0.10109 0.56802 0.0
H1522 H 0.44957 0.02855 0.53604 0.0
H1523 H 0.41715 0.03774 0.56425 0.0
H1524 H 0.47857 0.11436 0.64876 0.0
H1525 H 0.48364 0.14463 0.63496 0.0
H1526 H 0.5034 0.13221 0.61613 0.0
H1527 H 0.49383 0.13943 0.54531 0.0
H1528 H 0.47466 0.15264 0.5639 0.0
H1529 H 0.46243 0.1276 0.53002 0.0
H1530 H 0.39377 0.05305 0.61269 0.0
H1531 H 0.37614 0.07708 0.64706 0.0
H1532 H 0.44017 0.14361 0.61573 0.0
C1533 C 0.4851 0.08737 0.56481 0.0
C1534 C 0.47956 0.06371 0.55031 0.0
C1535 C 0.45456 0.04649 0.54811 0.0
C1536 C 0.43598 0.05153 0.56409 0.0
C1537 C 0.44229 0.07471 0.57911 0.0
C1538 C 0.46596 0.09287 0.57672 0.0
C1539 C 0.46712 0.11722 0.58934 0.0
C1540 C 0.4842 0.12771 0.62437 0.0
C1541 C 0.47497 0.13529 0.5551 0.0
C1542 C 0.44058 0.10957 0.6009 0.0
C1543 C 0.42694 0.08473 0.59684 0.0
C1544 C 0.40362 0.07273 0.61324 0.0
C1545 C 0.39362 0.08663 0.6324 0.0
C1546 C 0.40576 0.11252 0.63207 0.0
C1547 C 0.42981 0.12397 0.61601 0.0
H1548 H 0.8991 0.28131 0.59911 0.0
H1549 H 0.94011 0.28437 0.70322 0.0
H1550 H 0.9662 0.32834 0.69197 0.0
H1551 H 0.94942 0.32361 0.54126 0.0
H1552 H 0.9323 0.3378 0.51896 0.0
H1553 H 0.91684 0.30655 0.53488 0.0
H1554 H 0.88742 0.31682 0.57746 0.0
H1555 H 0.90275 0.34811 0.56159 0.0
H1556 H 0.89985 0.34098 0.61286 0.0
H1557 H 0.98886 0.37164 0.66836 0.0
H1558 H 1.00535 0.41181 0.63606 0.0
H1559 H 0.94865 0.3824 0.54865 0.0
C1560 C 0.91346 0.29135 0.61966 0.0
C1561 C 0.91756 0.27935 0.65218 0.0
C1562 C 0.93667 0.29311 0.67817 0.0
C1563 C 0.95156 0.31811 0.672 0.0
C1564 C 0.94707 0.32939 0.63981 0.0
C1565 C 0.92835 0.31655 0.61421 0.0
C1566 C 0.92735 0.3333 0.58219 0.0
C1567 C 0.93174 0.3248 0.54194 0.0
C1568 C 0.90289 0.33489 0.58362 0.0
C1569 C 0.94856 0.35748 0.59357 0.0
C1570 C 0.95972 0.35467 0.62682 0.0
C1571 C 0.98016 0.37404 0.64245 0.0
C1572 C 0.98948 0.39683 0.62376 0.0
C1573 C 0.97839 0.40041 0.58977 0.0
C1574 C 0.95745 0.38038 0.57474 0.0
H1575 H 0.76897 0.62342 0.65377 0.0
H1576 H 0.80172 0.68312 0.57186 0.0
H1577 H 0.76203 0.66878 0.53763 0.0
H1578 H 0.72909 0.57797 0.58478 0.0
H1579 H 0.70414 0.56421 0.61906 0.0
H1580 H 0.73521 0.57879 0.6362 0.0
H1581 H 0.7241 0.60639 0.6814 0.0
H1582 H 0.69302 0.59196 0.6643 0.0
H1583 H 0.71052 0.62458 0.66088 0.0
H1584 H 0.71815 0.64801 0.51282 0.0
H1585 H 0.67421 0.62338 0.49997 0.0
H1586 H 0.66938 0.57661 0.59788 0.0
C1587 C 0.76775 0.63326 0.62835 0.0
C1588 C 0.78853 0.65424 0.61505 0.0
C1589 C 0.78614 0.66691 0.5822 0.0
C1590 C 0.76364 0.65888 0.56266 0.0
C1591 C 0.74347 0.63815 0.57639 0.0
C1592 C 0.74532 0.62551 0.60855 0.0
C1593 C 0.72072 0.60409 0.61783 0.0
C1594 C 0.72239 0.57983 0.61425 0.0
C1595 C 0.71155 0.60693 0.65852 0.0
C1596 C 0.70472 0.60662 0.58598 0.0
C1597 C 0.71825 0.62636 0.56234 0.0
C1598 C 0.70748 0.63245 0.5311 0.0
C1599 C 0.68239 0.61814 0.52383 0.0
C1600 C 0.6679 0.59775 0.54759 0.0
C1601 C 0.67954 0.59209 0.57915 0.0
H1602 H 0.9358 0.64954 0.17035 0.0
H1603 H 0.86606 0.61339 0.11203 0.0
H1604 H 0.88035 0.58603 0.07857 0.0
H1605 H 0.97353 0.64709 0.08945 0.0
H1606 H 0.99442 0.64142 0.11992 0.0
H1607 H 0.97882 0.6583 0.1388 0.0
H1608 H 0.96167 0.6278 0.19612 0.0
H1609 H 0.9772 0.61082 0.17743 0.0
H1610 H 0.94463 0.59571 0.18598 0.0
H1611 H 0.90223 0.56233 0.05186 0.0
H1612 H 0.92967 0.544 0.03387 0.0
H1613 H 0.98548 0.59502 0.1101 0.0
C1614 C 0.92368 0.63593 0.15032 0.0
C1615 C 0.89987 0.6336 0.14346 0.0
C1616 C 0.88437 0.61546 0.11746 0.0
C1617 C 0.89236 0.59987 0.09837 0.0
C1618 C 0.91593 0.60258 0.10565 0.0
C1619 C 0.9314 0.62015 0.13101 0.0
C1620 C 0.95574 0.61897 0.13399 0.0
C1621 C 0.97688 0.64286 0.11968 0.0
C1622 C 0.96006 0.61297 0.17587 0.0
C1623 C 0.95157 0.59802 0.10642 0.0
C1624 C 0.92848 0.58884 0.0904 0.0
C1625 C 0.92032 0.56936 0.06435 0.0
C1626 C 0.93606 0.55892 0.05449 0.0
C1627 C 0.95985 0.56784 0.07056 0.0
C1628 C 0.96759 0.58781 0.09683 0.0
H1629 H 0.44246 0.30015 0.08532 0.0
H1630 H 0.39374 0.30806 0.17125 0.0
H1631 H 0.41233 0.35213 0.15869 0.0
H1632 H 0.49581 0.35698 0.10931 0.0
H1633 H 0.5062 0.36385 0.05951 0.0
H1634 H 0.48918 0.33261 0.07486 0.0
H1635 H 0.45756 0.32554 0.0205 0.0
H1636 H 0.47448 0.35675 1.00498 0.0
H1637 H 0.44253 0.34508 0.01773 0.0
H1638 H 0.43533 0.39525 0.13678 0.0
H1639 H 0.46161 0.43497 0.10697 0.0
H1640 H 0.49703 0.40098 0.0357 0.0
C1641 C 0.43579 0.31113 0.10175 0.0
C1642 C 0.41621 0.30021 0.12904 0.0
C1643 C 0.40815 0.31553 0.14954 0.0
C1644 C 0.41879 0.34077 0.14286 0.0
C1645 C 0.43776 0.35082 0.11569 0.0
C1646 C 0.44632 0.33658 0.09548 0.0
C1647 C 0.46695 0.35228 0.0677 0.0
C1648 C 0.49096 0.35137 0.0785 0.0
C1649 C 0.45996 0.34444 0.02521 0.0
C1650 C 0.46848 0.37747 0.07538 0.0
C1651 C 0.4514 0.37605 0.10323 0.0
C1652 C 0.44876 0.39657 0.11494 0.0
C1653 C 0.46374 0.4191 0.09762 0.0
C1654 C 0.48136 0.42127 0.0687 0.0
C1655 C 0.48389 0.40006 0.05783 0.0
H1656 H 0.74723 0.09585 0.15339 0.0
H1657 H 0.76485 0.16799 0.10838 0.0
H1658 H 0.72302 0.15289 0.08283 0.0
H1659 H 0.70831 0.06181 0.073 0.0
H1660 H 0.68665 0.03803 0.10363 0.0
H1661 H 0.71816 0.05424 0.11823 0.0
H1662 H 0.70445 0.06573 0.18353 0.0
H1663 H 0.67291 0.04957 0.16913 0.0
H1664 H 0.68523 0.08119 0.18301 0.0
H1665 H 0.6793 0.13025 0.06161 0.0
H1666 H 0.63661 0.10196 0.04717 0.0
H1667 H 0.64564 0.04392 0.10666 0.0
C1668 C 0.74235 0.10844 0.13791 0.0
C1669 C 0.75958 0.13329 0.13324 0.0
C1670 C 0.75214 0.14906 0.11305 0.0
C1671 C 0.72835 0.14059 0.09814 0.0
C1672 C 0.71187 0.11617 0.1035 0.0
C1673 C 0.71847 0.10027 0.12294 0.0
C1674 C 0.69688 0.07497 0.12514 0.0
C1675 C 0.70286 0.05615 0.10372 0.0
C1676 C 0.68943 0.06742 0.16774 0.0
C1677 C 0.6772 0.07917 0.10388 0.0
C1678 C 0.68637 0.10309 0.09162 0.0
C1679 C 0.6719 0.11151 0.07136 0.0
C1680 C 0.64745 0.09522 0.06356 0.0
C1681 C 0.63723 0.07055 0.0761 0.0
C1682 C 0.65262 0.06252 0.09639 0.0
H1683 H 0.5776 0.97762 0.42988 0.0
H1684 H 0.62958 0.02483 0.51425 0.0
H1685 H 0.65831 0.00783 0.49636 0.0
H1686 H 0.58878 0.9255 0.44719 0.0
H1687 H 0.58567 0.916 0.39695 0.0
H1688 H 0.56955 0.93255 0.41502 0.0
H1689 H 0.58947 0.96506 0.3611 0.0
H1690 H 0.60561 0.94858 0.34277 0.0
H1691 H 0.62233 0.98018 0.35622 0.0
H1692 H 0.68102 0.98516 0.47063 0.0
H1693 H 0.6962 0.95815 0.4396 0.0
H1694 H 0.62988 0.92506 0.37094 0.0
C1695 C 0.59518 0.9845 0.44414 0.0
C1696 C 0.60167 1.00294 0.47285 0.0
C1697 C 0.62455 0.01113 0.49161 0.0
C1698 C 0.64091 1.00149 0.48173 0.0
C1699 C 0.6341 0.98345 0.4532 0.0
C1700 C 0.61179 0.97497 0.43465 0.0
C1701 C 0.60885 0.95498 0.40572 0.0
C1702 C 0.58691 0.93083 0.4169 0.0
C1703 C 0.60642 0.96267 0.36397 0.0
C1704 C 0.63293 0.95352 0.41103 0.0
C1705 C 0.6472 0.97019 0.4385 0.0
C1706 C 0.67008 0.97219 0.44883 0.0
C1707 C 0.67865 0.95681 0.43071 0.0
C1708 C 0.6645 0.93949 0.40232 0.0
C1709 C 0.64123 0.93794 0.39254 0.0
H1710 H 0.06548 0.63738 0.4932 0.0
H1711 H 0.10383 0.60272 0.43087 0.0
H1712 H 0.12765 0.64076 0.39471 0.0
H1713 H 0.06315 0.67524 0.41154 0.0
H1714 H 0.06852 0.70124 0.44173 0.0
H1715 H 0.05326 0.67092 0.46178 0.0
H1716 H 0.08556 0.68305 0.5164 0.0
H1717 H 0.10089 0.71339 0.49654 0.0
H1718 H 0.11756 0.69567 0.50354 0.0
H1719 H 0.14841 0.68241 0.36647 0.0
H1720 H 0.1657 0.72579 0.34862 0.0
H1721 H 0.1153 0.7355 0.42883 0.0
C1722 C 0.07871 0.63778 0.47162 0.0
C1723 C 0.08281 0.61693 0.46511 0.0
C1724 C 0.1005 0.61839 0.43683 0.0
C1725 C 0.11407 0.63993 0.41592 0.0
C1726 C 0.10992 0.66018 0.42336 0.0
C1727 C 0.09272 0.65943 0.45049 0.0
C1728 C 0.09279 0.68435 0.45359 0.0
C1729 C 0.06795 0.68284 0.44143 0.0
C1730 C 0.09961 0.69473 0.49498 0.0
C1731 C 0.11281 0.69913 0.42425 0.0
C1732 C 0.12225 0.68464 0.4071 0.0
C1733 C 0.14117 0.69394 0.37973 0.0
C1734 C 0.151 0.71873 0.36991 0.0
C1735 C 0.14211 0.73432 0.38739 0.0
C1736 C 0.12243 0.72415 0.41462 0.0
H1737 H 0.32308 0.43367 0.44673 0.0
H1738 H 0.33423 0.39671 0.34588 0.0
H1739 H 0.37859 0.41656 0.35728 0.0
H1740 H 0.37942 0.49136 0.4325 0.0
H1741 H 0.38562 0.49619 0.48388 0.0
H1742 H 0.35452 0.47997 0.46726 0.0
H1743 H 0.34842 0.44343 0.51126 0.0
H1744 H 0.37951 0.45947 0.52785 0.0
H1745 H 0.36902 0.42965 0.50639 0.0
H1746 H 0.42144 0.43809 0.38093 0.0
H1747 H 0.46071 0.46176 0.41377 0.0
H1748 H 0.42408 0.48674 0.49928 0.0
C1749 C 0.33491 0.43008 0.42671 0.0
C1750 C 0.32485 0.41328 0.39549 0.0
C1751 C 0.34117 0.40905 0.37033 0.0
C1752 C 0.36653 0.42038 0.37646 0.0
C1753 C 0.37576 0.43624 0.40785 0.0
C1754 C 0.36059 0.44136 0.43245 0.0
C1755 C 0.37562 0.4589 0.46444 0.0
C1756 C 0.37368 0.48304 0.46186 0.0
C1757 C 0.36767 0.44715 0.50488 0.0
C1758 C 0.40145 0.46251 0.45412 0.0
C1759 C 0.40092 0.44916 0.42131 0.0
C1760 C 0.42208 0.44871 0.40652 0.0
C1761 C 0.44436 0.46215 0.42561 0.0
C1762 C 0.4457 0.47613 0.45932 0.0
C1763 C 0.42381 0.47643 0.47347 0.0
H1764 H 0.82845 0.74786 0.26363 0.0
H1765 H 0.7727 0.69879 0.18583 0.0
H1766 H 0.7464 0.71897 0.20206 0.0
H1767 H 0.78728 0.75069 0.33789 0.0
H1768 H 0.80555 0.78256 0.34827 0.0
H1769 H 0.81997 0.76432 0.33058 0.0
H1770 H 0.83937 0.7945 0.27345 0.0
H1771 H 0.82501 0.81285 0.29093 0.0
H1772 H 0.81997 0.80154 0.24164 0.0
H1773 H 0.72618 0.74435 0.22672 0.0
H1774 H 0.71326 0.77324 0.25733 0.0
H1775 H 0.78192 0.80647 0.32001 0.0
C1776 C 0.81068 0.74146 0.2501 0.0
C1777 C 0.80246 0.72169 0.22358 0.0
C1778 C 0.77919 0.7138 0.20631 0.0
C1779 C 0.7642 0.72517 0.21535 0.0
C1780 C 0.77274 0.74455 0.24168 0.0
C1781 C 0.79545 0.75269 0.2588 0.0
C1782 C 0.80018 0.77396 0.28605 0.0
C1783 C 0.80343 0.76749 0.32819 0.0
C1784 C 0.82246 0.79708 0.27218 0.0
C1785 C 0.77658 0.77648 0.28161 0.0
C1786 C 0.76104 0.75927 0.2559 0.0
C1787 C 0.73817 0.75782 0.24703 0.0
C1788 C 0.73091 0.77427 0.26488 0.0
C1789 C 0.74636 0.79212 0.29155 0.0
C1790 C 0.76963 0.7932 0.29972 0.0
H1791 H 0.28274 0.06758 0.22447 0.0
H1792 H 0.35372 0.08795 0.27676 0.0
H1793 H 0.33806 0.0475 0.30781 0.0
H1794 H 0.24571 0.0309 0.30591 0.0
H1795 H 0.22339 0.00797 0.27528 0.0
H1796 H 0.23962 0.03891 0.25806 0.0
H1797 H 0.25427 0.02385 0.19721 0.0
H1798 H 0.23802 0.99288 0.21416 0.0
H1799 H 0.2703 0.00544 0.20341 0.0
H1800 H 0.31529 0.00506 0.33307 0.0
H1801 H 0.28766 0.96225 0.34795 0.0
H1802 H 0.23086 0.96727 0.27848 0.0
C1803 C 0.2949 0.06356 0.24271 0.0
C1804 C 0.31959 0.0811 0.24802 0.0
C1805 C 0.33491 0.07489 0.27179 0.0
C1806 C 0.3261 0.05196 0.28981 0.0
C1807 C 0.30184 0.03511 0.28385 0.0
C1808 C 0.28643 0.04047 0.26071 0.0
C1809 C 0.2614 0.01847 0.25804 0.0
C1810 C 0.24134 0.02442 0.27536 0.0
C1811 C 0.25567 0.00964 0.21569 0.0
C1812 C 0.26524 0.99995 0.28316 0.0
C1813 C 0.2887 0.01015 0.29792 0.0
C1814 C 0.29692 0.99687 0.32151 0.0
C1815 C 0.28104 0.97243 0.32966 0.0
C1816 C 0.25705 0.96106 0.31415 0.0
C1817 C 0.24896 0.97531 0.29105 0.0
H1818 H 0.08123 0.29948 0.34579 0.0
H1819 H 0.11432 0.26164 0.27824 0.0
H1820 H 0.07441 0.23604 0.24858 0.0
H1821 H 0.02349 0.24636 0.36438 0.0
H1822 H 1.00515 0.26262 0.3601 0.0
H1823 H 0.03639 0.27835 0.37617 0.0
H1824 H 0.04582 0.30993 0.32079 0.0
H1825 H 0.01461 0.29426 0.30451 0.0
H1826 H 0.03943 0.29958 0.27108 0.0
H1827 H 0.03128 0.21504 0.2245 0.0
H1828 H 0.98759 0.19876 0.2096 0.0
H1829 H 0.98048 0.2483 0.29415 0.0
C1830 C 0.0801 0.28586 0.32468 0.0
C1831 C 0.10118 0.2826 0.31472 0.0
C1832 C 0.09862 0.26437 0.28706 0.0
C1833 C 0.07596 0.24978 0.26975 0.0
C1834 C 0.05566 0.25338 0.28026 0.0
C1835 C 0.05739 0.27086 0.30722 0.0
C1836 C 0.03243 0.27053 0.3136 0.0
C1837 C 0.02386 0.26408 0.35609 0.0
C1838 C 0.03312 0.29504 0.30179 0.0
C1839 C 0.01651 0.25022 0.28593 0.0
C1840 C 0.03043 0.24073 0.26694 0.0
C1841 C 0.02016 0.22214 0.23959 0.0
C1842 C 0.99506 0.2128 0.23159 0.0
C1843 C 0.97995 0.22169 0.25104 0.0
C1844 C 0.99116 0.24092 0.27849 0.0
H1845 H 0.33932 0.24671 0.71021 0.0
H1846 H 0.30584 0.17914 0.77514 0.0
H1847 H 0.28131 0.19504 0.8131 0.0
H1848 H 0.34199 0.28733 0.79071 0.0
H1849 H 0.33467 0.30712 0.76029 0.0
H1850 H 0.35052 0.29088 0.73987 0.0
H1851 H 0.31688 0.27211 0.68757 0.0
H1852 H 0.30087 0.28817 0.70795 0.0
H1853 H 0.28535 0.25551 0.70267 0.0
H1854 H 0.25926 0.21781 0.84234 0.0
H1855 H 0.24181 0.24577 0.86152 0.0
H1856 H 0.28874 0.29859 0.77658 0.0
C1857 C 0.32713 0.23552 0.73294 0.0
C1858 C 0.32489 0.2119 0.74058 0.0
C1859 C 0.30825 0.19749 0.76971 0.0
C1860 C 0.29414 0.20632 0.79116 0.0
C1861 C 0.2967 0.22965 0.78297 0.0
C1862 C 0.31281 0.2441 0.75461 0.0
C1863 C 0.31145 0.26822 0.75085 0.0
C1864 C 0.33613 0.28966 0.76104 0.0
C1865 C 0.30314 0.27116 0.70982 0.0
C1866 C 0.29201 0.26502 0.78132 0.0
C1867 C 0.28377 0.24265 0.79951 0.0
C1868 C 0.2656 0.23539 0.82826 0.0
C1869 C 0.25564 0.25137 0.83878 0.0
C1870 C 0.26374 0.27449 0.82066 0.0
C1871 C 0.28226 0.28125 0.7915 0.0
H1872 H 0.84038 0.10142 0.79052 0.0
H1873 H 0.80287 0.09956 0.68294 0.0
H1874 H 0.77669 0.0554 0.69201 0.0
H1875 H 0.84053 0.04207 0.7768 0.0
H1876 H 0.83597 0.03425 0.82781 0.0
H1877 H 0.85166 0.06575 0.81314 0.0
H1878 H 0.82075 0.07526 0.85312 0.0
H1879 H 0.80492 0.04379 0.86781 0.0
H1880 H 0.78845 0.05817 0.84401 0.0
H1881 H 0.75337 0.0118 0.71396 0.0
H1882 H 0.73592 0.97124 0.74518 0.0
H1883 H 0.78978 0.99964 0.83695 0.0
C1884 C 0.82681 0.0916 0.76872 0.0
C1885 C 0.8237 0.10398 0.73586 0.0
C1886 C 0.80556 0.09051 0.70825 0.0
C1887 C 0.79062 0.06541 0.71319 0.0
C1888 C 0.79411 0.05374 0.74577 0.0
C1889 C 0.81191 0.0663 0.77292 0.0
C1890 C 0.81195 0.04917 0.80506 0.0
C1891 C 0.83649 0.04772 0.80573 0.0
C1892 C 0.80617 0.05707 0.84486 0.0
C1893 C 0.79125 0.0251 0.79195 0.0
C1894 C 0.78115 0.02829 0.75777 0.0
C1895 C 0.76127 0.00909 0.74056 0.0
C1896 C 0.7514 0.98609 0.75861 0.0
C1897 C 0.76144 0.98213 0.79347 0.0
C1898 C 0.78183 1.00198 0.81013 0.0
H1899 H 0.05921 0.76569 0.82661 0.0
H1900 H 0.08737 0.82659 0.74559 0.0
H1901 H 0.04716 0.81061 0.71413 0.0
H1902 H 0.02171 0.72041 0.75607 0.0
H1903 H 0.9972 0.70414 0.79012 0.0
H1904 H 0.02815 0.72049 0.80727 0.0
H1905 H 0.01436 0.74483 0.85515 0.0
H1906 H 0.98337 0.72853 0.8382 0.0
H1907 H 0.99842 0.76136 0.83673 0.0
H1908 H 1.00339 0.78823 0.69094 0.0
H1909 H 0.95977 0.76074 0.67798 0.0
H1910 H 0.95952 0.71341 0.77171 0.0
C1911 C 0.05708 0.77567 0.80212 0.0
C1912 C 0.07685 0.7978 0.78924 0.0
C1913 C 0.07274 0.81007 0.75708 0.0
C1914 C 0.04987 0.80097 0.7386 0.0
C1915 C 0.03091 0.77932 0.75211 0.0
C1916 C 0.03425 0.76675 0.78308 0.0
C1917 C 0.01074 0.74378 0.79163 0.0
C1918 C 0.01469 0.72085 0.78593 0.0
C1919 C 1.00116 0.74469 0.83288 0.0
C1920 C 0.99373 0.74544 0.7607 0.0
C1921 C 1.00578 0.76614 0.73824 0.0
C1922 C 0.99387 0.7719 0.70823 0.0
C1923 C 0.9691 0.75619 0.70098 0.0
C1924 C 0.95637 0.73479 0.72332 0.0
C1925 C 0.96892 0.72944 0.7537 0.0
loop_
_geom_bond_atom_site_label_1
_geom_bond_atom_site_label_2
_geom_bond_distance
_geom_bond_site_symmetry_2
_ccdc_geom_bond_type
C0 C1 1.443 . S
C0 N4 1.376 . S
C0 C38 1.382 1_655 S
C1 C0 1.443 . S
C1 C2 1.340 . S
C1 H41 0.951 . S
C2 C1 1.340 . S
C2 C3 1.439 . S
C2 H42 0.950 . S
C3 C2 1.439 . S
C3 N4 1.374 . S
C3 C37 1.395 . S
N4 C0 1.376 . S
N4 C3 1.374 . S
N4 Co5 2.008 1_655 S
Co5 N4 2.008 1_455 S
Co5 N6 1.994 1_454 S
Co5 N11 2.008 1_554 S
Co5 N16 1.995 . S
Co5 N21 2.283 1_554 S
Co5 N27 2.282 1_455 S
N6 Co5 1.994 1_656 S
N6 C7 1.376 . S
N6 C10 1.383 . S
C7 N6 1.376 . S
C7 C8 1.446 . S
C7 C37 1.391 1_556 S
C8 C7 1.446 . S
C8 C9 1.339 . S
C8 H43 0.949 . S
C9 C8 1.339 . S
C9 C10 1.439 . S
C9 H44 0.950 . S
C10 N6 1.383 . S
C10 C9 1.439 . S
C10 C39 1.392 . S
N11 Co5 2.008 1_556 S
N11 C12 1.376 . S
N11 C15 1.374 . S
C12 N11 1.376 . S
C12 C13 1.443 . S
C12 C39 1.389 1_455 S
C13 C12 1.443 . S
C13 C14 1.340 . S
C13 H45 0.951 . S
C14 C13 1.340 . S
C14 C15 1.439 . S
C14 H46 0.950 . S
C15 N11 1.374 . S
C15 C14 1.439 . S
C15 C40 1.395 1_556 S
N16 Co5 1.995 . S
N16 C17 1.376 . S
N16 C20 1.383 . S
C17 N16 1.376 . S
C17 C18 1.446 . S
C17 C40 1.391 . S
C18 C17 1.446 . S
C18 C19 1.339 . S
C18 H47 0.949 . S
C19 C18 1.339 . S
C19 C20 1.439 . S
C19 H48 0.950 . S
C20 N16 1.383 . S
C20 C19 1.439 . S
C20 C38 1.399 . S
N21 Co5 2.283 1_556 S
N21 C24 1.332 . S
N21 C26 1.332 . S
C22 C23 1.386 . S
C22 C25 1.388 . S
C23 C22 1.386 . S
C23 C24 1.382 . S
C23 H49 0.950 . S
C24 N21 1.332 . S
C24 C23 1.382 . S
C24 H35 0.952 1_556 S
C25 C22 1.388 . S
C25 C26 1.382 . S
C25 H50 0.950 . S
C26 N21 1.332 . S
C26 C25 1.382 . S
C26 H36 0.948 1_455 S
N27 Co5 2.282 1_655 S
N27 C31 1.332 . S
N27 C32 1.332 . S
C28 C29 1.388 . S
C28 C32 1.382 . S
C28 H51 0.950 . S
C29 C28 1.388 . S
C29 C30 1.386 . S
C30 C29 1.386 . S
C30 C31 1.382 . S
C30 H52 0.950 . S
C31 N27 1.332 . S
C31 C30 1.382 . S
C31 H33 0.952 . S
C32 N27 1.332 . S
C32 C28 1.382 . S
C32 H34 0.948 1_655 S
H33 C31 0.952 . S
H34 C32 0.948 1_455 S
H35 C24 0.952 1_554 S
H36 C26 0.948 1_655 S
C37 C3 1.395 . S
C37 C7 1.391 1_554 S
C38 C0 1.382 1_455 S
C38 C20 1.399 . S
C39 C10 1.392 . S
C39 C12 1.389 1_655 S
C40 C15 1.395 1_554 S
C40 C17 1.391 . S
H41 C1 0.951 . S
H42 C2 0.950 . S
H43 C8 0.949 . S
H44 C9 0.950 . S
H45 C13 0.951 . S
H46 C14 0.950 . S
H47 C18 0.949 . S
H48 C19 0.950 . S
H49 C23 0.950 . S
H50 C25 0.950 . S
H51 C28 0.950 . S
H52 C30 0.950 . S
C53 C54 1.443 . S
C53 N57 1.376 . S
C53 C91 1.389 . S
C54 C53 1.443 . S
C54 C55 1.340 . S
C54 H94 0.951 . S
C55 C54 1.340 . S
C55 C56 1.439 . S
C55 H95 0.950 . S
C56 C55 1.439 . S
C56 N57 1.374 . S
C56 C90 1.395 1_556 S
N57 C53 1.376 . S
N57 C56 1.374 . S
N57 Co58 2.008 1_556 S
Co58 N57 2.008 1_554 S
Co58 N59 1.995 . S
Co58 N64 2.008 . S
Co58 N69 1.995 1_554 S
Co58 N74 2.282 . S
Co58 N80 2.282 1_554 S
N59 Co58 1.995 . S
N59 C60 1.376 . S
N59 C63 1.383 . S
C60 N59 1.376 . S
C60 C61 1.446 . S
C60 C90 1.391 . S
C61 C60 1.446 . S
C61 C62 1.339 . S
C61 H96 0.949 . S
C62 C61 1.339 . S
C62 C63 1.439 . S
C62 H97 0.950 . S
C63 N59 1.383 . S
C63 C62 1.439 . S
C63 C92 1.392 . S
N64 Co58 2.008 . S
N64 C65 1.376 . S
N64 C68 1.374 . S
C65 N64 1.376 . S
C65 C66 1.443 . S
C65 C92 1.389 . S
C66 C65 1.443 . S
C66 C67 1.340 . S
C66 H98 0.951 . S
C67 C66 1.340 . S
C67 C68 1.439 . S
C67 H99 0.950 . S
C68 N64 1.374 . S
C68 C67 1.439 . S
C68 C93 1.395 . S
N69 Co58 1.995 1_556 S
N69 C70 1.376 . S
N69 C73 1.383 . S
C70 N69 1.376 . S
C70 C71 1.446 . S
C70 C93 1.391 1_556 S
C71 C70 1.446 . S
C71 C72 1.339 . S
C71 H100 0.949 . S
C72 C71 1.339 . S
C72 C73 1.439 . S
C72 H101 0.950 . S
C73 N69 1.383 . S
C73 C72 1.439 . S
C73 C91 1.392 . S
N74 Co58 2.282 . S
N74 C77 1.332 . S
N74 C79 1.332 . S
C75 C76 1.386 . S
C75 C78 1.388 . S
C76 C75 1.386 . S
C76 C77 1.382 . S
C76 H102 0.950 . S
C77 N74 1.332 . S
C77 C76 1.382 . S
C77 H88 0.952 . S
C78 C75 1.388 . S
C78 C79 1.382 . S
C78 H103 0.950 . S
C79 N74 1.332 . S
C79 C78 1.382 . S
C79 H89 0.948 . S
N80 Co58 2.282 1_556 S
N80 C84 1.332 . S
N80 C85 1.332 . S
C81 C82 1.388 . S
C81 C85 1.382 . S
C81 H104 0.950 . S
C82 C81 1.388 . S
C82 C83 1.386 . S
C83 C82 1.386 . S
C83 C84 1.382 . S
C83 H105 0.950 . S
C84 N80 1.332 . S
C84 C83 1.382 . S
C84 H86 0.952 1_556 S
C85 N80 1.332 . S
C85 C81 1.382 . S
C85 H87 0.948 . S
H86 C84 0.952 1_554 S
H87 C85 0.948 . S
H88 C77 0.952 . S
H89 C79 0.948 . S
C90 C56 1.395 1_554 S
C90 C60 1.391 . S
C91 C53 1.389 . S
C91 C73 1.392 . S
C92 C63 1.392 . S
C92 C65 1.389 . S
C93 C68 1.395 . S
C93 C70 1.391 1_554 S
H94 C54 0.951 . S
H95 C55 0.950 . S
H96 C61 0.949 . S
H97 C62 0.950 . S
H98 C66 0.951 . S
H99 C67 0.950 . S
H100 C71 0.949 . S
H101 C72 0.950 . S
H102 C76 0.950 . S
H103 C78 0.950 . S
H104 C81 0.950 . S
H105 C83 0.950 . S
C106 C107 1.443 . S
C106 N110 1.376 . S
C106 C144 1.389 . S
C107 C106 1.443 . S
C107 C108 1.340 . S
C107 H147 0.951 . S
C108 C107 1.340 . S
C108 C109 1.439 . S
C108 H148 0.950 . S
C109 C108 1.439 . S
C109 N110 1.374 . S
C109 C143 1.395 . S
N110 C106 1.376 . S
N110 C109 1.374 . S
N110 Co111 2.008 . S
Co111 N110 2.008 . S
Co111 N112 1.995 1_554 S
Co111 N117 2.008 1_544 S
Co111 N122 1.995 1_545 S
Co111 N127 2.282 1_544 S
Co111 N133 2.282 . S
N112 Co111 1.995 1_556 S
N112 C113 1.376 . S
N112 C116 1.383 . S
C113 N112 1.376 . S
C113 C114 1.446 . S
C113 C143 1.391 1_556 S
C114 C113 1.446 . S
C114 C115 1.339 . S
C114 H149 0.949 . S
C115 C114 1.339 . S
C115 C116 1.439 . S
C115 H150 0.950 . S
C116 N112 1.383 . S
C116 C115 1.439 . S
C116 C145 1.392 . S
N117 Co111 2.008 1_566 S
N117 C118 1.376 . S
N117 C121 1.374 . S
C118 N117 1.376 . S
C118 C119 1.443 . S
C118 C145 1.389 1_565 S
C119 C118 1.443 . S
C119 C120 1.340 . S
C119 H151 0.951 . S
C120 C119 1.340 . S
C120 C121 1.439 . S
C120 H152 0.950 . S
C121 N117 1.374 . S
C121 C120 1.439 . S
C121 C146 1.395 1_556 S
N122 Co111 1.995 1_565 S
N122 C123 1.376 . S
N122 C126 1.383 . S
C123 N122 1.376 . S
C123 C124 1.446 . S
C123 C146 1.391 . S
C124 C123 1.446 . S
C124 C125 1.339 . S
C124 H153 0.949 . S
C125 C124 1.339 . S
C125 C126 1.439 . S
C125 H154 0.950 . S
C126 N122 1.383 . S
C126 C125 1.439 . S
C126 C144 1.392 1_565 S
N127 Co111 2.282 1_566 S
N127 C130 1.332 . S
N127 C132 1.332 1_565 S
C128 C129 1.386 . S
C128 C131 1.388 . S
C129 C128 1.386 . S
C129 C130 1.382 . S
C129 H155 0.950 . S
C130 N127 1.332 . S
C130 C129 1.382 . S
C130 H141 0.952 1_556 S
C131 C128 1.388 . S
C131 C132 1.382 1_565 S
C131 H156 0.950 1_565 S
C132 N127 1.332 1_545 S
C132 C131 1.382 1_545 S
C132 H142 0.948 . S
N133 Co111 2.282 . S
N133 C137 1.332 . S
N133 C138 1.332 . S
C134 C135 1.388 . S
C134 C138 1.382 . S
C134 H157 0.950 . S
C135 C134 1.388 . S
C135 C136 1.386 . S
C136 C135 1.386 . S
C136 C137 1.382 . S
C136 H158 0.950 . S
C137 N133 1.332 . S
C137 C136 1.382 . S
C137 H139 0.952 . S
C138 N133 1.332 . S
C138 C134 1.382 . S
C138 H140 0.948 . S
H139 C137 0.952 . S
H140 C138 0.948 . S
H141 C130 0.952 1_554 S
H142 C132 0.948 . S
C143 C109 1.395 . S
C143 C113 1.391 1_554 S
C144 C106 1.389 . S
C144 C126 1.392 1_545 S
C145 C116 1.392 . S
C145 C118 1.389 1_545 S
C146 C121 1.395 1_554 S
C146 C123 1.391 . S
H147 C107 0.951 . S
H148 C108 0.950 . S
H149 C114 0.949 . S
H150 C115 0.950 . S
H151 C119 0.951 . S
H152 C120 0.950 . S
H153 C124 0.949 . S
H154 C125 0.950 . S
H155 C129 0.950 . S
H156 C131 0.950 1_545 S
H157 C134 0.950 . S
H158 C136 0.950 . S
C159 C160 1.443 . S
C159 N163 1.376 . S
C159 C197 1.389 1_545 S
C160 C159 1.443 . S
C160 C161 1.340 . S
C160 H200 0.951 . S
C161 C160 1.340 . S
C161 C162 1.439 . S
C161 H201 0.950 . S
C162 C161 1.439 . S
C162 N163 1.374 . S
C162 C196 1.395 . S
N163 C159 1.376 . S
N163 C162 1.374 . S
N163 Co164 2.008 . S
Co164 N163 2.008 . S
Co164 N165 1.995 . S
Co164 N170 2.008 . S
Co164 N175 1.995 1_545 S
Co164 N180 2.282 . S
Co164 N186 2.282 . S
N165 Co164 1.995 . S
N165 C166 1.376 . S
N165 C169 1.383 . S
C166 N165 1.376 . S
C166 C167 1.446 . S
C166 C196 1.391 . S
C167 C166 1.446 . S
C167 C168 1.339 . S
C167 H202 0.949 . S
C168 C167 1.339 . S
C168 C169 1.439 . S
C168 H203 0.950 . S
C169 N165 1.383 . S
C169 C168 1.439 . S
C169 C198 1.392 . S
N170 Co164 2.008 . S
N170 C171 1.376 . S
N170 C174 1.374 1_545 S
C171 N170 1.376 . S
C171 C172 1.443 . S
C171 C198 1.389 . S
C172 C171 1.443 . S
C172 C173 1.340 1_545 S
C172 H204 0.951 . S
C173 C172 1.340 1_565 S
C173 C174 1.439 . S
C173 H205 0.950 . S
C174 N170 1.374 1_565 S
C174 C173 1.439 . S
C174 C199 1.395 . S
N175 Co164 1.995 1_565 S
N175 C176 1.376 . S
N175 C179 1.383 . S
C176 N175 1.376 . S
C176 C177 1.446 . S
C176 C199 1.391 . S
C177 C176 1.446 . S
C177 C178 1.339 . S
C177 H206 0.949 . S
C178 C177 1.339 . S
C178 C179 1.439 . S
C178 H207 0.950 . S
C179 N175 1.383 . S
C179 C178 1.439 . S
C179 C197 1.392 . S
N180 Co164 2.282 . S
N180 C183 1.332 1_545 S
N180 C185 1.332 . S
C181 C182 1.386 1_545 S
C181 C184 1.388 . S
C182 C181 1.386 1_565 S
C182 C183 1.382 . S
C182 H208 0.950 . S
C183 N180 1.332 1_565 S
C183 C182 1.382 . S
C183 H194 0.952 . S
C184 C181 1.388 . S
C184 C185 1.382 . S
C184 H209 0.950 . S
C185 N180 1.332 . S
C185 C184 1.382 . S
C185 H195 0.948 . S
N186 Co164 2.282 . S
N186 C190 1.332 . S
N186 C191 1.332 1_545 S
C187 C188 1.388 1_565 S
C187 C191 1.382 . S
C187 H210 0.950 . S
C188 C187 1.388 1_545 S
C188 C189 1.386 . S
C189 C188 1.386 . S
C189 C190 1.382 . S
C189 H211 0.950 . S
C190 N186 1.332 . S
C190 C189 1.382 . S
C190 H192 0.952 . S
C191 N186 1.332 1_565 S
C191 C187 1.382 . S
C191 H193 0.948 . S
H192 C190 0.952 . S
H193 C191 0.948 . S
H194 C183 0.952 . S
H195 C185 0.948 . S
C196 C162 1.395 . S
C196 C166 1.391 . S
C197 C159 1.389 1_565 S
C197 C179 1.392 . S
C198 C169 1.392 . S
C198 C171 1.389 . S
C199 C174 1.395 . S
C199 C176 1.391 . S
H200 C160 0.951 . S
H201 C161 0.950 . S
H202 C167 0.949 . S
H203 C168 0.950 . S
H204 C172 0.951 . S
H205 C173 0.950 . S
H206 C177 0.949 . S
H207 C178 0.950 . S
H208 C182 0.950 . S
H209 C184 0.950 . S
H210 C187 0.950 . S
H211 C189 0.950 . S
C212 C213 1.443 . S
C212 N216 1.376 . S
C212 C250 1.385 1_455 S
C213 C212 1.443 . S
C213 C214 1.340 . S
C213 H253 0.951 . S
C214 C213 1.340 . S
C214 C215 1.439 . S
C214 H254 0.950 . S
C215 C214 1.439 . S
C215 N216 1.374 . S
C215 C249 1.395 . S
N216 C212 1.376 . S
N216 C215 1.374 . S
N216 Co217 2.008 . S
Co217 N216 2.008 . S
Co217 N218 1.995 . S
Co217 N223 2.008 1_455 S
Co217 N228 1.995 1_455 S
Co217 N233 2.282 1_455 S
Co217 N239 2.282 . S
N218 Co217 1.995 . S
N218 C219 1.376 . S
N218 C222 1.383 . S
C219 N218 1.376 . S
C219 C220 1.446 . S
C219 C249 1.391 . S
C220 C219 1.446 . S
C220 C221 1.339 . S
C220 H255 0.949 . S
C221 C220 1.339 . S
C221 C222 1.439 . S
C221 H256 0.950 . S
C222 N218 1.383 . S
C222 C221 1.439 . S
C222 C251 1.406 . S
N223 Co217 2.008 1_655 S
N223 C224 1.376 . S
N223 C227 1.374 . S
C224 N223 1.376 . S
C224 C225 1.443 . S
C224 C251 1.374 1_655 S
C225 C224 1.443 . S
C225 C226 1.340 . S
C225 H257 0.951 . S
C226 C225 1.340 . S
C226 C227 1.439 . S
C226 H258 0.950 . S
C227 N223 1.374 . S
C227 C226 1.439 . S
C227 C252 1.395 . S
N228 Co217 1.995 1_655 S
N228 C229 1.376 . S
N228 C232 1.383 . S
C229 N228 1.376 . S
C229 C230 1.446 . S
C229 C252 1.391 . S
C230 C229 1.446 . S
C230 C231 1.339 . S
C230 H259 0.949 . S
C231 C230 1.339 . S
C231 C232 1.439 . S
C231 H260 0.950 . S
C232 N228 1.383 . S
C232 C231 1.439 . S
C232 C250 1.396 . S
N233 Co217 2.282 1_655 S
N233 C236 1.332 . S
N233 C238 1.332 . S
C234 C235 1.386 . S
C234 C237 1.388 . S
C235 C234 1.386 . S
C235 C236 1.382 . S
C235 H261 0.950 . S
C236 N233 1.332 . S
C236 C235 1.382 . S
C236 H247 0.952 . S
C237 C234 1.388 . S
C237 C238 1.382 . S
C237 H262 0.950 . S
C238 N233 1.332 . S
C238 C237 1.382 . S
C238 H248 0.948 1_655 S
N239 Co217 2.282 . S
N239 C243 1.332 . S
N239 C244 1.332 . S
C240 C241 1.388 . S
C240 C244 1.382 . S
C240 H263 0.950 . S
C241 C240 1.388 . S
C241 C242 1.386 . S
C242 C241 1.386 . S
C242 C243 1.382 . S
C242 H264 0.950 . S
C243 N239 1.332 . S
C243 C242 1.382 . S
C243 H245 0.952 . S
C244 N239 1.332 . S
C244 C240 1.382 . S
C244 H246 0.948 1_455 S
H245 C243 0.952 . S
H246 C244 0.948 1_655 S
H247 C236 0.952 . S
H248 C238 0.948 1_455 S
C249 C215 1.395 . S
C249 C219 1.391 . S
C250 C212 1.385 1_655 S
C250 C232 1.396 . S
C251 C222 1.406 . S
C251 C224 1.374 1_455 S
C252 C227 1.395 . S
C252 C229 1.391 . S
H253 C213 0.951 . S
H254 C214 0.950 . S
H255 C220 0.949 . S
H256 C221 0.950 . S
H257 C225 0.951 . S
H258 C226 0.950 . S
H259 C230 0.949 . S
H260 C231 0.950 . S
H261 C235 0.950 . S
H262 C237 0.950 . S
H263 C240 0.950 . S
H264 C242 0.950 . S
C265 C266 1.443 . S
C265 N269 1.376 . S
C265 C303 1.389 . S
C266 C265 1.443 . S
C266 C267 1.340 . S
C266 H306 0.951 . S
C267 C266 1.340 . S
C267 C268 1.439 . S
C267 H307 0.950 . S
C268 C267 1.439 . S
C268 N269 1.374 . S
C268 C302 1.395 . S
N269 C265 1.376 . S
N269 C268 1.374 . S
N269 Co270 2.008 . S
Co270 N269 2.008 . S
Co270 N271 1.995 . S
Co270 N276 2.008 . S
Co270 N281 1.995 . S
Co270 N286 2.282 . S
Co270 N292 2.282 . S
N271 Co270 1.995 . S
N271 C272 1.376 . S
N271 C275 1.383 . S
C272 N271 1.376 . S
C272 C273 1.446 . S
C272 C302 1.391 . S
C273 C272 1.446 . S
C273 C274 1.339 . S
C273 H308 0.949 . S
C274 C273 1.339 . S
C274 C275 1.439 . S
C274 H309 0.950 . S
C275 N271 1.383 . S
C275 C274 1.439 . S
C275 C304 1.392 . S
N276 Co270 2.008 . S
N276 C277 1.376 . S
N276 C280 1.374 . S
C277 N276 1.376 . S
C277 C278 1.443 . S
C277 C304 1.389 . S
C278 C277 1.443 . S
C278 C279 1.340 . S
C278 H310 0.951 . S
C279 C278 1.340 . S
C279 C280 1.439 . S
C279 H311 0.950 . S
C280 N276 1.374 . S
C280 C279 1.439 . S
C280 C305 1.395 . S
N281 Co270 1.995 . S
N281 C282 1.376 . S
N281 C285 1.383 . S
C282 N281 1.376 . S
C282 C283 1.446 . S
C282 C305 1.391 . S
C283 C282 1.446 . S
C283 C284 1.339 . S
C283 H312 0.949 . S
C284 C283 1.339 . S
C284 C285 1.439 . S
C284 H313 0.950 . S
C285 N281 1.383 . S
C285 C284 1.439 . S
C285 C303 1.392 . S
N286 Co270 2.282 . S
N286 C289 1.332 . S
N286 C291 1.332 . S
C287 C288 1.386 . S
C287 C290 1.388 . S
C288 C287 1.386 . S
C288 C289 1.382 . S
C288 H314 0.950 . S
C289 N286 1.332 . S
C289 C288 1.382 . S
C289 H300 0.952 . S
C290 C287 1.388 . S
C290 C291 1.382 . S
C290 H315 0.950 . S
C291 N286 1.332 . S
C291 C290 1.382 . S
C291 H301 0.948 . S
N292 Co270 2.282 . S
N292 C296 1.332 . S
N292 C297 1.332 . S
C293 C294 1.388 . S
C293 C297 1.382 . S
C293 H316 0.950 . S
C294 C293 1.388 . S
C294 C295 1.386 . S
C295 C294 1.386 . S
C295 C296 1.382 . S
C295 H317 0.950 . S
C296 N292 1.332 . S
C296 C295 1.382 . S
C296 H298 0.952 . S
C297 N292 1.332 . S
C297 C293 1.382 . S
C297 H299 0.948 . S
H298 C296 0.952 . S
H299 C297 0.948 . S
H300 C289 0.952 . S
H301 C291 0.948 . S
C302 C268 1.395 . S
C302 C272 1.391 . S
C303 C265 1.389 . S
C303 C285 1.392 . S
C304 C275 1.392 . S
C304 C277 1.389 . S
C305 C280 1.395 . S
C305 C282 1.391 . S
H306 C266 0.951 . S
H307 C267 0.950 . S
H308 C273 0.949 . S
H309 C274 0.950 . S
H310 C278 0.951 . S
H311 C279 0.950 . S
H312 C283 0.949 . S
H313 C284 0.950 . S
H314 C288 0.950 . S
H315 C290 0.950 . S
H316 C293 0.950 . S
H317 C295 0.950 . S
C318 C319 1.443 . S
C318 N322 1.376 . S
C318 C356 1.389 . S
C319 C318 1.443 . S
C319 C320 1.340 . S
C319 H359 0.951 . S
C320 C319 1.340 . S
C320 C321 1.439 . S
C320 H360 0.950 . S
C321 C320 1.439 . S
C321 N322 1.374 . S
C321 C355 1.395 . S
N322 C318 1.376 . S
N322 C321 1.374 . S
N322 Co323 2.008 . S
Co323 N322 2.008 . S
Co323 N324 1.995 . S
Co323 N329 2.008 . S
Co323 N334 1.995 . S
Co323 N339 2.282 . S
Co323 N345 2.282 . S
N324 Co323 1.995 . S
N324 C325 1.376 . S
N324 C328 1.383 . S
C325 N324 1.376 . S
C325 C326 1.446 . S
C325 C355 1.391 . S
C326 C325 1.446 . S
C326 C327 1.339 . S
C326 H361 0.949 . S
C327 C326 1.339 . S
C327 C328 1.439 . S
C327 H362 0.950 . S
C328 N324 1.383 . S
C328 C327 1.439 . S
C328 C357 1.392 . S
N329 Co323 2.008 . S
N329 C330 1.376 . S
N329 C333 1.374 . S
C330 N329 1.376 . S
C330 C331 1.443 . S
C330 C357 1.389 . S
C331 C330 1.443 . S
C331 C332 1.340 . S
C331 H363 0.951 . S
C332 C331 1.340 . S
C332 C333 1.439 . S
C332 H364 0.950 . S
C333 N329 1.374 . S
C333 C332 1.439 . S
C333 C358 1.395 . S
N334 Co323 1.995 . S
N334 C335 1.376 . S
N334 C338 1.383 . S
C335 N334 1.376 . S
C335 C336 1.446 . S
C335 C358 1.391 . S
C336 C335 1.446 . S
C336 C337 1.339 . S
C336 H365 0.949 . S
C337 C336 1.339 . S
C337 C338 1.439 . S
C337 H366 0.950 . S
C338 N334 1.383 . S
C338 C337 1.439 . S
C338 C356 1.392 . S
N339 Co323 2.282 . S
N339 C342 1.332 . S
N339 C344 1.332 . S
C340 C341 1.386 . S
C340 C343 1.388 . S
C341 C340 1.386 . S
C341 C342 1.382 . S
C341 H367 0.950 . S
C342 N339 1.332 . S
C342 C341 1.382 . S
C342 H353 0.952 . S
C343 C340 1.388 . S
C343 C344 1.382 . S
C343 H368 0.950 . S
C344 N339 1.332 . S
C344 C343 1.382 . S
C344 H354 0.948 . S
N345 Co323 2.282 . S
N345 C349 1.332 . S
N345 C350 1.332 . S
C346 C347 1.388 . S
C346 C350 1.382 . S
C346 H369 0.950 . S
C347 C346 1.388 . S
C347 C348 1.386 . S
C348 C347 1.386 . S
C348 C349 1.382 . S
C348 H370 0.950 . S
C349 N345 1.332 . S
C349 C348 1.382 . S
C349 H351 0.952 . S
C350 N345 1.332 . S
C350 C346 1.382 . S
C350 H352 0.948 . S
H351 C349 0.952 . S
H352 C350 0.948 . S
H353 C342 0.952 . S
H354 C344 0.948 . S
C355 C321 1.395 . S
C355 C325 1.391 . S
C356 C318 1.389 . S
C356 C338 1.392 . S
C357 C328 1.392 . S
C357 C330 1.389 . S
C358 C333 1.395 . S
C358 C335 1.391 . S
H359 C319 0.951 . S
H360 C320 0.950 . S
H361 C326 0.949 . S
H362 C327 0.950 . S
H363 C331 0.951 . S
H364 C332 0.950 . S
H365 C336 0.949 . S
H366 C337 0.950 . S
H367 C341 0.950 . S
H368 C343 0.950 . S
H369 C346 0.950 . S
H370 C348 0.950 . S
C371 C372 1.443 . S
C371 N375 1.376 . S
C371 C409 1.389 . S
C372 C371 1.443 . S
C372 C373 1.340 . S
C372 H412 0.951 . S
C373 C372 1.340 . S
C373 C374 1.439 . S
C373 H413 0.950 . S
C374 C373 1.439 . S
C374 N375 1.374 . S
C374 C408 1.395 . S
N375 C371 1.376 . S
N375 C374 1.374 . S
N375 Co376 2.008 . S
Co376 N375 2.008 . S
Co376 N377 1.995 . S
Co376 N382 2.008 . S
Co376 N387 1.995 . S
Co376 N392 2.282 . S
Co376 N398 2.282 . S
N377 Co376 1.995 . S
N377 C378 1.376 . S
N377 C381 1.383 . S
C378 N377 1.376 . S
C378 C379 1.446 . S
C378 C408 1.391 . S
C379 C378 1.446 . S
C379 C380 1.339 . S
C379 H414 0.949 . S
C380 C379 1.339 . S
C380 C381 1.439 . S
C380 H415 0.950 . S
C381 N377 1.383 . S
C381 C380 1.439 . S
C381 C410 1.392 . S
N382 Co376 2.008 . S
N382 C383 1.376 . S
N382 C386 1.374 . S
C383 N382 1.376 . S
C383 C384 1.443 . S
C383 C410 1.389 . S
C384 C383 1.443 . S
C384 C385 1.340 . S
C384 H416 0.951 . S
C385 C384 1.340 . S
C385 C386 1.439 . S
C385 H417 0.950 . S
C386 N382 1.374 . S
C386 C385 1.439 . S
C386 C411 1.395 . S
N387 Co376 1.995 . S
N387 C388 1.376 . S
N387 C391 1.383 . S
C388 N387 1.376 . S
C388 C389 1.446 . S
C388 C411 1.391 . S
C389 C388 1.446 . S
C389 C390 1.339 . S
C389 H418 0.949 . S
C390 C389 1.339 . S
C390 C391 1.439 . S
C390 H419 0.950 . S
C391 N387 1.383 . S
C391 C390 1.439 . S
C391 C409 1.392 . S
N392 Co376 2.282 . S
N392 C395 1.332 . S
N392 C397 1.332 . S
C393 C394 1.386 . S
C393 C396 1.388 . S
C394 C393 1.386 . S
C394 C395 1.382 . S
C394 H420 0.950 . S
C395 N392 1.332 . S
C395 C394 1.382 . S
C395 H406 0.952 . S
C396 C393 1.388 . S
C396 C397 1.382 . S
C396 H421 0.950 . S
C397 N392 1.332 . S
C397 C396 1.382 . S
C397 H407 0.948 . S
N398 Co376 2.282 . S
N398 C402 1.332 . S
N398 C403 1.332 . S
C399 C400 1.388 . S
C399 C403 1.382 . S
C399 H422 0.950 . S
C400 C399 1.388 . S
C400 C401 1.386 . S
C401 C400 1.386 . S
C401 C402 1.382 . S
C401 H423 0.950 . S
C402 N398 1.332 . S
C402 C401 1.382 . S
C402 H404 0.952 . S
C403 N398 1.332 . S
C403 C399 1.382 . S
C403 H405 0.948 . S
H404 C402 0.952 . S
H405 C403 0.948 . S
H406 C395 0.952 . S
H407 C397 0.948 . S
C408 C374 1.395 . S
C408 C378 1.391 . S
C409 C371 1.389 . S
C409 C391 1.392 . S
C410 C381 1.392 . S
C410 C383 1.389 . S
C411 C386 1.395 . S
C411 C388 1.391 . S
H412 C372 0.951 . S
H413 C373 0.950 . S
H414 C379 0.949 . S
H415 C380 0.950 . S
H416 C384 0.951 . S
H417 C385 0.950 . S
H418 C389 0.949 . S
H419 C390 0.950 . S
H420 C394 0.950 . S
H421 C396 0.950 . S
H422 C399 0.950 . S
H423 C401 0.950 . S
C424 C425 1.443 . S
C424 N428 1.376 . S
C424 C462 1.389 . S
C425 C424 1.443 . S
C425 C426 1.340 . S
C425 H465 0.951 . S
C426 C425 1.340 . S
C426 C427 1.439 . S
C426 H466 0.950 . S
C427 C426 1.439 . S
C427 N428 1.374 . S
C427 C461 1.395 . S
N428 C424 1.376 . S
N428 C427 1.374 . S
N428 Co429 2.008 . S
Co429 N428 2.008 . S
Co429 N430 1.995 . S
Co429 N435 2.008 . S
Co429 N440 1.995 . S
Co429 N445 2.282 . S
Co429 N451 2.282 . S
N430 Co429 1.995 . S
N430 C431 1.376 . S
N430 C434 1.383 . S
C431 N430 1.376 . S
C431 C432 1.446 . S
C431 C461 1.391 . S
C432 C431 1.446 . S
C432 C433 1.339 . S
C432 H467 0.949 . S
C433 C432 1.339 . S
C433 C434 1.439 . S
C433 H468 0.950 . S
C434 N430 1.383 . S
C434 C433 1.439 . S
C434 C463 1.392 . S
N435 Co429 2.008 . S
N435 C436 1.376 . S
N435 C439 1.374 . S
C436 N435 1.376 . S
C436 C437 1.443 . S
C436 C463 1.389 . S
C437 C436 1.443 . S
C437 C438 1.340 . S
C437 H469 0.951 . S
C438 C437 1.340 . S
C438 C439 1.439 . S
C438 H470 0.950 . S
C439 N435 1.374 . S
C439 C438 1.439 . S
C439 C464 1.395 . S
N440 Co429 1.995 . S
N440 C441 1.376 . S
N440 C444 1.383 . S
C441 N440 1.376 . S
C441 C442 1.446 . S
C441 C464 1.391 . S
C442 C441 1.446 . S
C442 C443 1.339 . S
C442 H471 0.949 . S
C443 C442 1.339 . S
C443 C444 1.439 . S
C443 H472 0.950 . S
C444 N440 1.383 . S
C444 C443 1.439 . S
C444 C462 1.392 . S
N445 Co429 2.282 . S
N445 C448 1.332 . S
N445 C450 1.332 . S
C446 C447 1.386 . S
C446 C449 1.388 . S
C447 C446 1.386 . S
C447 C448 1.382 . S
C447 H473 0.950 . S
C448 N445 1.332 . S
C448 C447 1.382 . S
C448 H459 0.952 . S
C449 C446 1.388 . S
C449 C450 1.382 . S
C449 H474 0.950 . S
C450 N445 1.332 . S
C450 C449 1.382 . S
C450 H460 0.948 . S
N451 Co429 2.282 . S
N451 C455 1.332 . S
N451 C456 1.332 . S
C452 C453 1.388 . S
C452 C456 1.382 . S
C452 H475 0.950 . S
C453 C452 1.388 . S
C453 C454 1.386 . S
C454 C453 1.386 . S
C454 C455 1.382 . S
C454 H476 0.950 . S
C455 N451 1.332 . S
C455 C454 1.382 . S
C455 H457 0.952 . S
C456 N451 1.332 . S
C456 C452 1.382 . S
C456 H458 0.948 . S
H457 C455 0.952 . S
H458 C456 0.948 . S
H459 C448 0.952 . S
H460 C450 0.948 . S
C461 C427 1.395 . S
C461 C431 1.391 . S
C462 C424 1.389 . S
C462 C444 1.392 . S
C463 C434 1.392 . S
C463 C436 1.389 . S
C464 C439 1.395 . S
C464 C441 1.391 . S
H465 C425 0.951 . S
H466 C426 0.950 . S
H467 C432 0.949 . S
H468 C433 0.950 . S
H469 C437 0.951 . S
H470 C438 0.950 . S
H471 C442 0.949 . S
H472 C443 0.950 . S
H473 C447 0.950 . S
H474 C449 0.950 . S
H475 C452 0.950 . S
H476 C454 0.950 . S
C477 C478 1.443 . S
C477 N481 1.376 . S
C477 C515 1.389 . S
C478 C477 1.443 . S
C478 C479 1.340 . S
C478 H518 0.951 . S
C479 C478 1.340 . S
C479 C480 1.439 . S
C479 H519 0.950 . S
C480 C479 1.439 . S
C480 N481 1.374 . S
C480 C514 1.395 . S
N481 C477 1.376 . S
N481 C480 1.374 . S
N481 Co482 2.008 . S
Co482 N481 2.008 . S
Co482 N483 1.995 . S
Co482 N488 2.008 . S
Co482 N493 1.995 . S
Co482 N498 2.282 . S
Co482 N504 2.282 . S
N483 Co482 1.995 . S
N483 C484 1.376 . S
N483 C487 1.383 . S
C484 N483 1.376 . S
C484 C485 1.446 . S
C484 C514 1.391 . S
C485 C484 1.446 . S
C485 C486 1.339 . S
C485 H520 0.949 . S
C486 C485 1.339 . S
C486 C487 1.439 . S
C486 H521 0.950 . S
C487 N483 1.383 . S
C487 C486 1.439 . S
C487 C516 1.392 . S
N488 Co482 2.008 . S
N488 C489 1.376 . S
N488 C492 1.374 . S
C489 N488 1.376 . S
C489 C490 1.443 . S
C489 C516 1.389 . S
C490 C489 1.443 . S
C490 C491 1.340 . S
C490 H522 0.951 . S
C491 C490 1.340 . S
C491 C492 1.439 . S
C491 H523 0.950 . S
C492 N488 1.374 . S
C492 C491 1.439 . S
C492 C517 1.395 . S
N493 Co482 1.995 . S
N493 C494 1.376 . S
N493 C497 1.383 . S
C494 N493 1.376 . S
C494 C495 1.446 . S
C494 C517 1.391 . S
C495 C494 1.446 . S
C495 C496 1.339 . S
C495 H524 0.949 . S
C496 C495 1.339 . S
C496 C497 1.439 . S
C496 H525 0.950 . S
C497 N493 1.383 . S
C497 C496 1.439 . S
C497 C515 1.392 . S
N498 Co482 2.282 . S
N498 C501 1.332 . S
N498 C503 1.332 . S
C499 C500 1.386 . S
C499 C502 1.388 . S
C500 C499 1.386 . S
C500 C501 1.382 . S
C500 H526 0.950 . S
C501 N498 1.332 . S
C501 C500 1.382 . S
C501 H512 0.952 . S
C502 C499 1.388 . S
C502 C503 1.382 . S
C502 H527 0.950 . S
C503 N498 1.332 . S
C503 C502 1.382 . S
C503 H513 0.948 . S
N504 Co482 2.282 . S
N504 C508 1.332 . S
N504 C509 1.332 . S
C505 C506 1.388 . S
C505 C509 1.382 . S
C505 H528 0.950 . S
C506 C505 1.388 . S
C506 C507 1.386 . S
C507 C506 1.386 . S
C507 C508 1.382 . S
C507 H529 0.950 . S
C508 N504 1.332 . S
C508 C507 1.382 . S
C508 H510 0.952 . S
C509 N504 1.332 . S
C509 C505 1.382 . S
C509 H511 0.948 . S
H510 C508 0.952 . S
H511 C509 0.948 . S
H512 C501 0.952 . S
H513 C503 0.948 . S
C514 C480 1.395 . S
C514 C484 1.391 . S
C515 C477 1.389 . S
C515 C497 1.392 . S
C516 C487 1.392 . S
C516 C489 1.389 . S
C517 C492 1.395 . S
C517 C494 1.391 . S
H518 C478 0.951 . S
H519 C479 0.950 . S
H520 C485 0.949 . S
H521 C486 0.950 . S
H522 C490 0.951 . S
H523 C491 0.950 . S
H524 C495 0.949 . S
H525 C496 0.950 . S
H526 C500 0.950 . S
H527 C502 0.950 . S
H528 C505 0.950 . S
H529 C507 0.950 . S
C530 C531 1.443 . S
C530 N534 1.376 . S
C530 C568 1.389 . S
C531 C530 1.443 . S
C531 C532 1.340 . S
C531 H571 0.951 . S
C532 C531 1.340 . S
C532 C533 1.439 . S
C532 H572 0.950 . S
C533 C532 1.439 . S
C533 N534 1.374 . S
C533 C567 1.395 . S
N534 C530 1.376 . S
N534 C533 1.374 . S
N534 Co535 2.008 . S
Co535 N534 2.008 . S
Co535 N536 1.995 . S
Co535 N541 2.008 . S
Co535 N546 1.995 . S
Co535 N551 2.282 . S
Co535 N557 2.282 . S
N536 Co535 1.995 . S
N536 C537 1.376 . S
N536 C540 1.383 . S
C537 N536 1.376 . S
C537 C538 1.446 . S
C537 C567 1.391 . S
C538 C537 1.446 . S
C538 C539 1.339 . S
C538 H573 0.949 . S
C539 C538 1.339 . S
C539 C540 1.439 . S
C539 H574 0.950 . S
C540 N536 1.383 . S
C540 C539 1.439 . S
C540 C569 1.392 . S
N541 Co535 2.008 . S
N541 C542 1.376 . S
N541 C545 1.374 . S
C542 N541 1.376 . S
C542 C543 1.443 . S
C542 C569 1.389 . S
C543 C542 1.443 . S
C543 C544 1.340 . S
C543 H575 0.951 . S
C544 C543 1.340 . S
C544 C545 1.439 . S
C544 H576 0.950 . S
C545 N541 1.374 . S
C545 C544 1.439 . S
C545 C570 1.395 . S
N546 Co535 1.995 . S
N546 C547 1.376 . S
N546 C550 1.383 . S
C547 N546 1.376 . S
C547 C548 1.446 . S
C547 C570 1.391 . S
C548 C547 1.446 . S
C548 C549 1.339 . S
C548 H577 0.949 . S
C549 C548 1.339 . S
C549 C550 1.439 . S
C549 H578 0.950 . S
C550 N546 1.383 . S
C550 C549 1.439 . S
C550 C568 1.392 . S
N551 Co535 2.282 . S
N551 C554 1.332 . S
N551 C556 1.332 . S
C552 C553 1.386 . S
C552 C555 1.388 . S
C553 C552 1.386 . S
C553 C554 1.382 . S
C553 H579 0.950 . S
C554 N551 1.332 . S
C554 C553 1.382 . S
C554 H565 0.952 . S
C555 C552 1.388 . S
C555 C556 1.382 . S
C555 H580 0.950 . S
C556 N551 1.332 . S
C556 C555 1.382 . S
C556 H566 0.948 . S
N557 Co535 2.282 . S
N557 C561 1.332 . S
N557 C562 1.332 . S
C558 C559 1.388 . S
C558 C562 1.382 . S
C558 H581 0.950 . S
C559 C558 1.388 . S
C559 C560 1.386 . S
C560 C559 1.386 . S
C560 C561 1.382 . S
C560 H582 0.950 . S
C561 N557 1.332 . S
C561 C560 1.382 . S
C561 H563 0.952 . S
C562 N557 1.332 . S
C562 C558 1.382 . S
C562 H564 0.948 . S
H563 C561 0.952 . S
H564 C562 0.948 . S
H565 C554 0.952 . S
H566 C556 0.948 . S
C567 C533 1.395 . S
C567 C537 1.391 . S
C568 C530 1.389 . S
C568 C550 1.392 . S
C569 C540 1.392 . S
C569 C542 1.389 . S
C570 C545 1.395 . S
C570 C547 1.391 . S
H571 C531 0.951 . S
H572 C532 0.950 . S
H573 C538 0.949 . S
H574 C539 0.950 . S
H575 C543 0.951 . S
H576 C544 0.950 . S
H577 C548 0.949 . S
H578 C549 0.950 . S
H579 C553 0.950 . S
H580 C555 0.950 . S
H581 C558 0.950 . S
H582 C560 0.950 . S
C583 C584 1.443 . S
C583 N587 1.376 . S
C583 C621 1.389 . S
C584 C583 1.443 . S
C584 C585 1.340 . S
C584 H624 0.951 . S
C585 C584 1.340 . S
C585 C586 1.439 . S
C585 H625 0.950 . S
C586 C585 1.439 . S
C586 N587 1.374 . S
C586 C620 1.395 . S
N587 C583 1.376 . S
N587 C586 1.374 . S
N587 Co588 2.008 . S
Co588 N587 2.008 . S
Co588 N589 1.995 . S
Co588 N594 2.008 . S
Co588 N599 1.995 . S
Co588 N604 2.282 . S
Co588 N610 2.282 . S
N589 Co588 1.995 . S
N589 C590 1.376 . S
N589 C593 1.383 . S
C590 N589 1.376 . S
C590 C591 1.446 . S
C590 C620 1.391 . S
C591 C590 1.446 . S
C591 C592 1.339 . S
C591 H626 0.949 . S
C592 C591 1.339 . S
C592 C593 1.439 . S
C592 H627 0.950 . S
C593 N589 1.383 . S
C593 C592 1.439 . S
C593 C622 1.392 . S
N594 Co588 2.008 . S
N594 C595 1.376 . S
N594 C598 1.374 . S
C595 N594 1.376 . S
C595 C596 1.443 . S
C595 C622 1.389 . S
C596 C595 1.443 . S
C596 C597 1.340 . S
C596 H628 0.951 . S
C597 C596 1.340 . S
C597 C598 1.439 . S
C597 H629 0.950 . S
C598 N594 1.374 . S
C598 C597 1.439 . S
C598 C623 1.395 . S
N599 Co588 1.995 . S
N599 C600 1.376 . S
N599 C603 1.383 . S
C600 N599 1.376 . S
C600 C601 1.446 . S
C600 C623 1.391 . S
C601 C600 1.446 . S
C601 C602 1.339 . S
C601 H630 0.949 . S
C602 C601 1.339 . S
C602 C603 1.439 . S
C602 H631 0.950 . S
C603 N599 1.383 . S
C603 C602 1.439 . S
C603 C621 1.392 . S
N604 Co588 2.282 . S
N604 C607 1.332 . S
N604 C609 1.332 . S
C605 C606 1.386 . S
C605 C608 1.388 . S
C606 C605 1.386 . S
C606 C607 1.382 . S
C606 H632 0.950 . S
C607 N604 1.332 . S
C607 C606 1.382 . S
C607 H618 0.952 . S
C608 C605 1.388 . S
C608 C609 1.382 . S
C608 H633 0.950 . S
C609 N604 1.332 . S
C609 C608 1.382 . S
C609 H619 0.948 . S
N610 Co588 2.282 . S
N610 C614 1.332 . S
N610 C615 1.332 . S
C611 C612 1.388 . S
C611 C615 1.382 . S
C611 H634 0.950 . S
C612 C611 1.388 . S
C612 C613 1.386 . S
C613 C612 1.386 . S
C613 C614 1.382 . S
C613 H635 0.950 . S
C614 N610 1.332 . S
C614 C613 1.382 . S
C614 H616 0.952 . S
C615 N610 1.332 . S
C615 C611 1.382 . S
C615 H617 0.948 . S
H616 C614 0.952 . S
H617 C615 0.948 . S
H618 C607 0.952 . S
H619 C609 0.948 . S
C620 C586 1.395 . S
C620 C590 1.391 . S
C621 C583 1.389 . S
C621 C603 1.392 . S
C622 C593 1.392 . S
C622 C595 1.389 . S
C623 C598 1.395 . S
C623 C600 1.391 . S
H624 C584 0.951 . S
H625 C585 0.950 . S
H626 C591 0.949 . S
H627 C592 0.950 . S
H628 C596 0.951 . S
H629 C597 0.950 . S
H630 C601 0.949 . S
H631 C602 0.950 . S
H632 C606 0.950 . S
H633 C608 0.950 . S
H634 C611 0.950 . S
H635 C613 0.950 . S
C636 C637 1.443 . S
C636 N640 1.376 . S
C636 C674 1.389 . S
C637 C636 1.443 . S
C637 C638 1.340 . S
C637 H677 0.951 . S
C638 C637 1.340 . S
C638 C639 1.439 . S
C638 H678 0.950 . S
C639 C638 1.439 . S
C639 N640 1.374 . S
C639 C673 1.395 . S
N640 C636 1.376 . S
N640 C639 1.374 . S
N640 Co641 2.008 . S
Co641 N640 2.008 . S
Co641 N642 1.995 . S
Co641 N647 2.008 . S
Co641 N652 1.995 . S
Co641 N657 2.282 . S
Co641 N663 2.282 . S
N642 Co641 1.995 . S
N642 C643 1.376 . S
N642 C646 1.383 . S
C643 N642 1.376 . S
C643 C644 1.446 . S
C643 C673 1.391 . S
C644 C643 1.446 . S
C644 C645 1.339 . S
C644 H679 0.949 . S
C645 C644 1.339 . S
C645 C646 1.439 . S
C645 H680 0.950 . S
C646 N642 1.383 . S
C646 C645 1.439 . S
C646 C675 1.392 . S
N647 Co641 2.008 . S
N647 C648 1.376 . S
N647 C651 1.374 . S
C648 N647 1.376 . S
C648 C649 1.443 . S
C648 C675 1.389 . S
C649 C648 1.443 . S
C649 C650 1.340 . S
C649 H681 0.951 . S
C650 C649 1.340 . S
C650 C651 1.439 . S
C650 H682 0.950 . S
C651 N647 1.374 . S
C651 C650 1.439 . S
C651 C676 1.395 . S
N652 Co641 1.995 . S
N652 C653 1.376 . S
N652 C656 1.383 . S
C653 N652 1.376 . S
C653 C654 1.446 . S
C653 C676 1.391 . S
C654 C653 1.446 . S
C654 C655 1.339 . S
C654 H683 0.949 . S
C655 C654 1.339 . S
C655 C656 1.439 . S
C655 H684 0.950 . S
C656 N652 1.383 . S
C656 C655 1.439 . S
C656 C674 1.392 . S
N657 Co641 2.282 . S
N657 C660 1.332 . S
N657 C662 1.332 . S
C658 C659 1.386 . S
C658 C661 1.388 . S
C659 C658 1.386 . S
C659 C660 1.382 . S
C659 H685 0.950 . S
C660 N657 1.332 . S
C660 C659 1.382 . S
C660 H671 0.952 . S
C661 C658 1.388 . S
C661 C662 1.382 . S
C661 H686 0.950 . S
C662 N657 1.332 . S
C662 C661 1.382 . S
C662 H672 0.948 . S
N663 Co641 2.282 . S
N663 C667 1.332 . S
N663 C668 1.332 . S
C664 C665 1.388 . S
C664 C668 1.382 . S
C664 H687 0.950 . S
C665 C664 1.388 . S
C665 C666 1.386 . S
C666 C665 1.386 . S
C666 C667 1.382 . S
C666 H688 0.950 . S
C667 N663 1.332 . S
C667 C666 1.382 . S
C667 H669 0.952 . S
C668 N663 1.332 . S
C668 C664 1.382 . S
C668 H670 0.948 . S
H669 C667 0.952 . S
H670 C668 0.948 . S
H671 C660 0.952 . S
H672 C662 0.948 . S
C673 C639 1.395 . S
C673 C643 1.391 . S
C674 C636 1.389 . S
C674 C656 1.392 . S
C675 C646 1.392 . S
C675 C648 1.389 . S
C676 C651 1.395 . S
C676 C653 1.391 . S
H677 C637 0.951 . S
H678 C638 0.950 . S
H679 C644 0.949 . S
H680 C645 0.950 . S
H681 C649 0.951 . S
H682 C650 0.950 . S
H683 C654 0.949 . S
H684 C655 0.950 . S
H685 C659 0.950 . S
H686 C661 0.950 . S
H687 C664 0.950 . S
H688 C666 0.950 . S
C689 C690 1.443 . S
C689 N693 1.376 . S
C689 C727 1.389 . S
C690 C689 1.443 . S
C690 C691 1.340 . S
C690 H730 0.951 . S
C691 C690 1.340 . S
C691 C692 1.439 . S
C691 H731 0.950 . S
C692 C691 1.439 . S
C692 N693 1.374 . S
C692 C726 1.395 . S
N693 C689 1.376 . S
N693 C692 1.374 . S
N693 Co694 2.008 . S
Co694 N693 2.008 . S
Co694 N695 1.995 . S
Co694 N700 2.008 . S
Co694 N705 1.995 . S
Co694 N710 2.282 . S
Co694 N716 2.282 . S
N695 Co694 1.995 . S
N695 C696 1.376 . S
N695 C699 1.383 . S
C696 N695 1.376 . S
C696 C697 1.446 . S
C696 C726 1.391 . S
C697 C696 1.446 . S
C697 C698 1.339 . S
C697 H732 0.949 . S
C698 C697 1.339 . S
C698 C699 1.439 . S
C698 H733 0.950 . S
C699 N695 1.383 . S
C699 C698 1.439 . S
C699 C728 1.392 . S
N700 Co694 2.008 . S
N700 C701 1.376 . S
N700 C704 1.374 . S
C701 N700 1.376 . S
C701 C702 1.443 . S
C701 C728 1.389 . S
C702 C701 1.443 . S
C702 C703 1.340 . S
C702 H734 0.951 . S
C703 C702 1.340 . S
C703 C704 1.439 . S
C703 H735 0.950 . S
C704 N700 1.374 . S
C704 C703 1.439 . S
C704 C729 1.395 . S
N705 Co694 1.995 . S
N705 C706 1.376 . S
N705 C709 1.383 . S
C706 N705 1.376 . S
C706 C707 1.446 . S
C706 C729 1.391 . S
C707 C706 1.446 . S
C707 C708 1.339 . S
C707 H736 0.949 . S
C708 C707 1.339 . S
C708 C709 1.439 . S
C708 H737 0.950 . S
C709 N705 1.383 . S
C709 C708 1.439 . S
C709 C727 1.392 . S
N710 Co694 2.282 . S
N710 C713 1.332 . S
N710 C715 1.332 . S
C711 C712 1.386 . S
C711 C714 1.388 . S
C712 C711 1.386 . S
C712 C713 1.382 . S
C712 H738 0.950 . S
C713 N710 1.332 . S
C713 C712 1.382 . S
C713 H724 0.952 . S
C714 C711 1.388 . S
C714 C715 1.382 . S
C714 H739 0.950 . S
C715 N710 1.332 . S
C715 C714 1.382 . S
C715 H725 0.948 . S
N716 Co694 2.282 . S
N716 C720 1.332 . S
N716 C721 1.332 . S
C717 C718 1.388 . S
C717 C721 1.382 . S
C717 H740 0.950 . S
C718 C717 1.388 . S
C718 C719 1.386 . S
C719 C718 1.386 . S
C719 C720 1.382 . S
C719 H741 0.950 . S
C720 N716 1.332 . S
C720 C719 1.382 . S
C720 H722 0.952 . S
C721 N716 1.332 . S
C721 C717 1.382 . S
C721 H723 0.948 . S
H722 C720 0.952 . S
H723 C721 0.948 . S
H724 C713 0.952 . S
H725 C715 0.948 . S
C726 C692 1.395 . S
C726 C696 1.391 . S
C727 C689 1.389 . S
C727 C709 1.392 . S
C728 C699 1.392 . S
C728 C701 1.389 . S
C729 C704 1.395 . S
C729 C706 1.391 . S
H730 C690 0.951 . S
H731 C691 0.950 . S
H732 C697 0.949 . S
H733 C698 0.950 . S
H734 C702 0.951 . S
H735 C703 0.950 . S
H736 C707 0.949 . S
H737 C708 0.950 . S
H738 C712 0.950 . S
H739 C714 0.950 . S
H740 C717 0.950 . S
H741 C719 0.950 . S
C742 C743 1.443 . S
C742 N746 1.376 . S
C742 C780 1.389 . S
C743 C742 1.443 . S
C743 C744 1.340 . S
C743 H783 0.951 . S
C744 C743 1.340 . S
C744 C745 1.439 . S
C744 H784 0.950 . S
C745 C744 1.439 . S
C745 N746 1.374 . S
C745 C779 1.395 . S
N746 C742 1.376 . S
N746 C745 1.374 . S
N746 Co747 2.008 . S
Co747 N746 2.008 . S
Co747 N748 1.995 . S
Co747 N753 2.008 . S
Co747 N758 1.995 . S
Co747 N763 2.282 . S
Co747 N769 2.282 . S
N748 Co747 1.995 . S
N748 C749 1.376 . S
N748 C752 1.383 . S
C749 N748 1.376 . S
C749 C750 1.446 . S
C749 C779 1.391 . S
C750 C749 1.446 . S
C750 C751 1.339 . S
C750 H785 0.949 . S
C751 C750 1.339 . S
C751 C752 1.439 . S
C751 H786 0.950 . S
C752 N748 1.383 . S
C752 C751 1.439 . S
C752 C781 1.392 . S
N753 Co747 2.008 . S
N753 C754 1.376 . S
N753 C757 1.374 . S
C754 N753 1.376 . S
C754 C755 1.443 . S
C754 C781 1.389 . S
C755 C754 1.443 . S
C755 C756 1.340 . S
C755 H787 0.951 . S
C756 C755 1.340 . S
C756 C757 1.439 . S
C756 H788 0.950 . S
C757 N753 1.374 . S
C757 C756 1.439 . S
C757 C782 1.395 . S
N758 Co747 1.995 . S
N758 C759 1.376 . S
N758 C762 1.383 . S
C759 N758 1.376 . S
C759 C760 1.446 . S
C759 C782 1.391 . S
C760 C759 1.446 . S
C760 C761 1.339 . S
C760 H789 0.949 . S
C761 C760 1.339 . S
C761 C762 1.439 . S
C761 H790 0.950 . S
C762 N758 1.383 . S
C762 C761 1.439 . S
C762 C780 1.392 . S
N763 Co747 2.282 . S
N763 C766 1.332 . S
N763 C768 1.332 . S
C764 C765 1.386 . S
C764 C767 1.388 . S
C765 C764 1.386 . S
C765 C766 1.382 . S
C765 H791 0.950 . S
C766 N763 1.332 . S
C766 C765 1.382 . S
C766 H777 0.952 . S
C767 C764 1.388 . S
C767 C768 1.382 . S
C767 H792 0.950 . S
C768 N763 1.332 . S
C768 C767 1.382 . S
C768 H778 0.948 . S
N769 Co747 2.282 . S
N769 C773 1.332 . S
N769 C774 1.332 . S
C770 C771 1.388 . S
C770 C774 1.382 . S
C770 H793 0.950 . S
C771 C770 1.388 . S
C771 C772 1.386 . S
C772 C771 1.386 . S
C772 C773 1.382 . S
C772 H794 0.950 . S
C773 N769 1.332 . S
C773 C772 1.382 . S
C773 H775 0.952 . S
C774 N769 1.332 . S
C774 C770 1.382 . S
C774 H776 0.948 . S
H775 C773 0.952 . S
H776 C774 0.948 . S
H777 C766 0.952 . S
H778 C768 0.948 . S
C779 C745 1.395 . S
C779 C749 1.391 . S
C780 C742 1.389 . S
C780 C762 1.392 . S
C781 C752 1.392 . S
C781 C754 1.389 . S
C782 C757 1.395 . S
C782 C759 1.391 . S
H783 C743 0.951 . S
H784 C744 0.950 . S
H785 C750 0.949 . S
H786 C751 0.950 . S
H787 C755 0.951 . S
H788 C756 0.950 . S
H789 C760 0.949 . S
H790 C761 0.950 . S
H791 C765 0.950 . S
H792 C767 0.950 . S
H793 C770 0.950 . S
H794 C772 0.950 . S
C795 C796 1.443 . S
C795 N799 1.376 . S
C795 C833 1.389 . S
C796 C795 1.443 . S
C796 C797 1.340 . S
C796 H836 0.951 . S
C797 C796 1.340 . S
C797 C798 1.439 . S
C797 H837 0.950 . S
C798 C797 1.439 . S
C798 N799 1.374 . S
C798 C832 1.395 . S
N799 C795 1.376 . S
N799 C798 1.374 . S
N799 Co800 2.008 . S
Co800 N799 2.008 . S
Co800 N801 1.995 . S
Co800 N806 2.008 . S
Co800 N811 1.995 . S
Co800 N816 2.282 . S
Co800 N822 2.282 . S
N801 Co800 1.995 . S
N801 C802 1.376 . S
N801 C805 1.383 . S
C802 N801 1.376 . S
C802 C803 1.446 . S
C802 C832 1.391 . S
C803 C802 1.446 . S
C803 C804 1.339 . S
C803 H838 0.949 . S
C804 C803 1.339 . S
C804 C805 1.439 . S
C804 H839 0.950 . S
C805 N801 1.383 . S
C805 C804 1.439 . S
C805 C834 1.392 . S
N806 Co800 2.008 . S
N806 C807 1.376 . S
N806 C810 1.374 . S
C807 N806 1.376 . S
C807 C808 1.443 . S
C807 C834 1.389 . S
C808 C807 1.443 . S
C808 C809 1.340 . S
C808 H840 0.951 . S
C809 C808 1.340 . S
C809 C810 1.439 . S
C809 H841 0.950 . S
C810 N806 1.374 . S
C810 C809 1.439 . S
C810 C835 1.395 . S
N811 Co800 1.995 . S
N811 C812 1.376 . S
N811 C815 1.383 . S
C812 N811 1.376 . S
C812 C813 1.446 . S
C812 C835 1.391 . S
C813 C812 1.446 . S
C813 C814 1.339 . S
C813 H842 0.949 . S
C814 C813 1.339 . S
C814 C815 1.439 . S
C814 H843 0.950 . S
C815 N811 1.383 . S
C815 C814 1.439 . S
C815 C833 1.392 . S
N816 Co800 2.282 . S
N816 C819 1.332 . S
N816 C821 1.332 . S
C817 C818 1.386 . S
C817 C820 1.388 . S
C818 C817 1.386 . S
C818 C819 1.382 . S
C818 H844 0.950 . S
C819 N816 1.332 . S
C819 C818 1.382 . S
C819 H830 0.952 . S
C820 C817 1.388 . S
C820 C821 1.382 . S
C820 H845 0.950 . S
C821 N816 1.332 . S
C821 C820 1.382 . S
C821 H831 0.948 . S
N822 Co800 2.282 . S
N822 C826 1.332 . S
N822 C827 1.332 . S
C823 C824 1.388 . S
C823 C827 1.382 . S
C823 H846 0.950 . S
C824 C823 1.388 . S
C824 C825 1.386 . S
C825 C824 1.386 . S
C825 C826 1.382 . S
C825 H847 0.950 . S
C826 N822 1.332 . S
C826 C825 1.382 . S
C826 H828 0.952 . S
C827 N822 1.332 . S
C827 C823 1.382 . S
C827 H829 0.948 . S
H828 C826 0.952 . S
H829 C827 0.948 . S
H830 C819 0.952 . S
H831 C821 0.948 . S
C832 C798 1.395 . S
C832 C802 1.391 . S
C833 C795 1.389 . S
C833 C815 1.392 . S
C834 C805 1.392 . S
C834 C807 1.389 . S
C835 C810 1.395 . S
C835 C812 1.391 . S
H836 C796 0.951 . S
H837 C797 0.950 . S
H838 C803 0.949 . S
H839 C804 0.950 . S
H840 C808 0.951 . S
H841 C809 0.950 . S
H842 C813 0.949 . S
H843 C814 0.950 . S
H844 C818 0.950 . S
H845 C820 0.950 . S
H846 C823 0.950 . S
H847 C825 0.950 . S
C848 C849 1.443 . S
C848 N852 1.376 . S
C848 C886 1.389 . S
C849 C848 1.443 . S
C849 C850 1.340 . S
C849 H889 0.951 . S
C850 C849 1.340 . S
C850 C851 1.439 . S
C850 H890 0.950 . S
C851 C850 1.439 . S
C851 N852 1.374 . S
C851 C885 1.395 . S
N852 C848 1.376 . S
N852 C851 1.374 . S
N852 Co853 2.008 . S
Co853 N852 2.008 . S
Co853 N854 1.995 . S
Co853 N859 2.008 . S
Co853 N864 1.995 . S
Co853 N869 2.282 . S
Co853 N875 2.282 . S
N854 Co853 1.995 . S
N854 C855 1.376 . S
N854 C858 1.383 . S
C855 N854 1.376 . S
C855 C856 1.446 . S
C855 C885 1.391 . S
C856 C855 1.446 . S
C856 C857 1.339 . S
C856 H891 0.949 . S
C857 C856 1.339 . S
C857 C858 1.439 . S
C857 H892 0.950 . S
C858 N854 1.383 . S
C858 C857 1.439 . S
C858 C887 1.392 . S
N859 Co853 2.008 . S
N859 C860 1.376 . S
N859 C863 1.374 . S
C860 N859 1.376 . S
C860 C861 1.443 . S
C860 C887 1.389 . S
C861 C860 1.443 . S
C861 C862 1.340 . S
C861 H893 0.951 . S
C862 C861 1.340 . S
C862 C863 1.439 . S
C862 H894 0.950 . S
C863 N859 1.374 . S
C863 C862 1.439 . S
C863 C888 1.395 . S
N864 Co853 1.995 . S
N864 C865 1.376 . S
N864 C868 1.383 . S
C865 N864 1.376 . S
C865 C866 1.446 . S
C865 C888 1.391 . S
C866 C865 1.446 . S
C866 C867 1.339 . S
C866 H895 0.949 . S
C867 C866 1.339 . S
C867 C868 1.439 . S
C867 H896 0.950 . S
C868 N864 1.383 . S
C868 C867 1.439 . S
C868 C886 1.392 . S
N869 Co853 2.282 . S
N869 C872 1.332 . S
N869 C874 1.332 . S
C870 C871 1.386 . S
C870 C873 1.388 . S
C871 C870 1.386 . S
C871 C872 1.382 . S
C871 H897 0.950 . S
C872 N869 1.332 . S
C872 C871 1.382 . S
C872 H883 0.952 . S
C873 C870 1.388 . S
C873 C874 1.382 . S
C873 H898 0.950 . S
C874 N869 1.332 . S
C874 C873 1.382 . S
C874 H884 0.948 . S
N875 Co853 2.282 . S
N875 C879 1.332 . S
N875 C880 1.332 . S
C876 C877 1.388 . S
C876 C880 1.382 . S
C876 H899 0.950 . S
C877 C876 1.388 . S
C877 C878 1.386 . S
C878 C877 1.386 . S
C878 C879 1.382 . S
C878 H900 0.950 . S
C879 N875 1.332 . S
C879 C878 1.382 . S
C879 H881 0.952 . S
C880 N875 1.332 . S
C880 C876 1.382 . S
C880 H882 0.948 . S
H881 C879 0.952 . S
H882 C880 0.948 . S
H883 C872 0.952 . S
H884 C874 0.948 . S
C885 C851 1.395 . S
C885 C855 1.391 . S
C886 C848 1.389 . S
C886 C868 1.392 . S
C887 C858 1.392 . S
C887 C860 1.389 . S
C888 C863 1.395 . S
C888 C865 1.391 . S
H889 C849 0.951 . S
H890 C850 0.950 . S
H891 C856 0.949 . S
H892 C857 0.950 . S
H893 C861 0.951 . S
H894 C862 0.950 . S
H895 C866 0.949 . S
H896 C867 0.950 . S
H897 C871 0.950 . S
H898 C873 0.950 . S
H899 C876 0.950 . S
H900 C878 0.950 . S
C901 C902 1.443 . S
C901 N905 1.376 . S
C901 C939 1.389 . S
C902 C901 1.443 . S
C902 C903 1.340 . S
C902 H942 0.951 . S
C903 C902 1.340 . S
C903 C904 1.439 . S
C903 H943 0.950 . S
C904 C903 1.439 . S
C904 N905 1.374 . S
C904 C938 1.395 . S
N905 C901 1.376 . S
N905 C904 1.374 . S
N905 Co906 2.008 . S
Co906 N905 2.008 . S
Co906 N907 1.995 . S
Co906 N912 2.008 . S
Co906 N917 1.995 . S
Co906 N922 2.282 . S
Co906 N928 2.282 . S
N907 Co906 1.995 . S
N907 C908 1.376 . S
N907 C911 1.383 . S
C908 N907 1.376 . S
C908 C909 1.446 . S
C908 C938 1.391 . S
C909 C908 1.446 . S
C909 C910 1.339 . S
C909 H944 0.949 . S
C910 C909 1.339 . S
C910 C911 1.439 . S
C910 H945 0.950 . S
C911 N907 1.383 . S
C911 C910 1.439 . S
C911 C940 1.392 . S
N912 Co906 2.008 . S
N912 C913 1.376 . S
N912 C916 1.374 . S
C913 N912 1.376 . S
C913 C914 1.443 . S
C913 C940 1.389 . S
C914 C913 1.443 . S
C914 C915 1.340 . S
C914 H946 0.951 . S
C915 C914 1.340 . S
C915 C916 1.439 . S
C915 H947 0.950 . S
C916 N912 1.374 . S
C916 C915 1.439 . S
C916 C941 1.395 . S
N917 Co906 1.995 . S
N917 C918 1.376 . S
N917 C921 1.383 . S
C918 N917 1.376 . S
C918 C919 1.446 . S
C918 C941 1.391 . S
C919 C918 1.446 . S
C919 C920 1.339 . S
C919 H948 0.949 . S
C920 C919 1.339 . S
C920 C921 1.439 . S
C920 H949 0.950 . S
C921 N917 1.383 . S
C921 C920 1.439 . S
C921 C939 1.392 . S
N922 Co906 2.282 . S
N922 C925 1.332 . S
N922 C927 1.332 . S
C923 C924 1.386 . S
C923 C926 1.388 . S
C924 C923 1.386 . S
C924 C925 1.382 . S
C924 H950 0.950 . S
C925 N922 1.332 . S
C925 C924 1.382 . S
C925 H936 0.952 . S
C926 C923 1.388 . S
C926 C927 1.382 . S
C926 H951 0.950 . S
C927 N922 1.332 . S
C927 C926 1.382 . S
C927 H937 0.948 . S
N928 Co906 2.282 . S
N928 C932 1.332 . S
N928 C933 1.332 . S
C929 C930 1.388 . S
C929 C933 1.382 . S
C929 H952 0.950 . S
C930 C929 1.388 . S
C930 C931 1.386 . S
C931 C930 1.386 . S
C931 C932 1.382 . S
C931 H953 0.950 . S
C932 N928 1.332 . S
C932 C931 1.382 . S
C932 H934 0.952 . S
C933 N928 1.332 . S
C933 C929 1.382 . S
C933 H935 0.948 . S
H934 C932 0.952 . S
H935 C933 0.948 . S
H936 C925 0.952 . S
H937 C927 0.948 . S
C938 C904 1.395 . S
C938 C908 1.391 . S
C939 C901 1.389 . S
C939 C921 1.392 . S
C940 C911 1.392 . S
C940 C913 1.389 . S
C941 C916 1.395 . S
C941 C918 1.391 . S
H942 C902 0.951 . S
H943 C903 0.950 . S
H944 C909 0.949 . S
H945 C910 0.950 . S
H946 C914 0.951 . S
H947 C915 0.950 . S
H948 C919 0.949 . S
H949 C920 0.950 . S
H950 C924 0.950 . S
H951 C926 0.950 . S
H952 C929 0.950 . S
H953 C931 0.950 . S
H954 C966 0.930 . S
H955 C968 0.930 . S
H956 C969 0.930 . S
H957 C973 0.959 . S
H958 C973 0.959 . S
H959 C973 0.961 . S
H960 C974 0.960 . S
H961 C974 0.961 . S
H962 C974 0.959 . S
H963 C977 0.930 . S
H964 C978 0.948 . S
H965 C980 0.930 . S
C966 H954 0.930 . S
C966 C967 1.383 . S
C966 C971 1.399 . S
C967 C966 1.383 . S
C967 C968 1.400 . S
C968 H955 0.930 . S
C968 C967 1.400 . S
C968 C969 1.388 . S
C969 H956 0.930 . S
C969 C968 1.388 . S
C969 C970 1.390 . S
C970 C969 1.390 . S
C970 C971 1.394 . S
C970 C976 1.465 . S
C971 C966 1.399 . S
C971 C970 1.394 . S
C971 C972 1.516 . S
C972 C971 1.516 . S
C972 C973 1.502 1_455 S
C972 C974 1.561 . S
C972 C975 1.526 . S
C973 H957 0.959 . S
C973 H958 0.959 . S
C973 H959 0.961 . S
C973 C972 1.502 1_655 S
C974 H960 0.960 . S
C974 H961 0.961 . S
C974 H962 0.959 . S
C974 C972 1.561 . S
C975 C972 1.526 . S
C975 C976 1.396 . S
C975 C980 1.390 . S
C976 C970 1.465 . S
C976 C975 1.396 . S
C976 C977 1.385 . S
C977 H963 0.930 . S
C977 C976 1.385 . S
C977 C978 1.380 1_455 S
C978 H964 0.948 . S
C978 C977 1.380 1_655 S
C978 C979 1.396 1_655 S
C979 C978 1.396 1_455 S
C979 C980 1.381 . S
C980 H965 0.930 . S
C980 C975 1.390 . S
C980 C979 1.381 . S
H981 C993 0.930 . S
H982 C995 0.930 . S
H983 C996 0.930 . S
H984 C1000 0.959 . S
H985 C1000 0.959 . S
H986 C1000 0.961 . S
H987 C1001 0.960 . S
H988 C1001 0.961 . S
H989 C1001 0.959 . S
H990 C1004 0.929 . S
H991 C1005 0.931 . S
H992 C1007 0.930 . S
C993 H981 0.930 . S
C993 C994 1.399 . S
C993 C998 1.399 . S
C994 C993 1.399 . S
C994 C995 1.376 . S
C995 H982 0.930 . S
C995 C994 1.376 . S
C995 C996 1.388 . S
C996 H983 0.930 . S
C996 C995 1.388 . S
C996 C997 1.390 . S
C997 C996 1.390 . S
C997 C998 1.394 . S
C997 C1003 1.465 . S
C998 C993 1.399 . S
C998 C997 1.394 . S
C998 C999 1.516 . S
C999 C998 1.516 . S
C999 C1000 1.502 . S
C999 C1001 1.561 . S
C999 C1002 1.526 . S
C1000 H984 0.959 . S
C1000 H985 0.959 . S
C1000 H986 0.961 . S
C1000 C999 1.502 . S
C1001 H987 0.960 . S
C1001 H988 0.961 . S
C1001 H989 0.959 . S
C1001 C999 1.561 . S
C1002 C999 1.526 . S
C1002 C1003 1.396 . S
C1002 C1007 1.390 . S
C1003 C997 1.465 . S
C1003 C1002 1.396 . S
C1003 C1004 1.399 . S
C1004 H990 0.929 . S
C1004 C1003 1.399 . S
C1004 C1005 1.385 . S
C1005 H991 0.931 . S
C1005 C1004 1.385 . S
C1005 C1006 1.389 . S
C1006 C1005 1.389 . S
C1006 C1007 1.387 . S
C1007 H992 0.930 . S
C1007 C1002 1.390 . S
C1007 C1006 1.387 . S
H1008 C1020 0.930 . S
H1009 C1022 0.930 . S
H1010 C1023 0.930 . S
H1011 C1027 0.959 . S
H1012 C1027 0.959 . S
H1013 C1027 0.961 . S
H1014 C1028 0.960 . S
H1015 C1028 0.961 . S
H1016 C1028 0.959 . S
H1017 C1031 0.929 . S
H1018 C1032 0.931 . S
H1019 C1034 0.930 . S
C1020 H1008 0.930 . S
C1020 C1021 1.399 . S
C1020 C1025 1.399 . S
C1021 C1020 1.399 . S
C1021 C1022 1.376 1_545 S
C1022 H1009 0.930 . S
C1022 C1021 1.376 1_565 S
C1022 C1023 1.388 . S
C1023 H1010 0.930 . S
C1023 C1022 1.388 . S
C1023 C1024 1.390 1_565 S
C1024 C1023 1.390 1_545 S
C1024 C1025 1.394 . S
C1024 C1030 1.465 . S
C1025 C1020 1.399 . S
C1025 C1024 1.394 . S
C1025 C1026 1.516 . S
C1026 C1025 1.516 . S
C1026 C1027 1.502 . S
C1026 C1028 1.561 . S
C1026 C1029 1.526 . S
C1027 H1011 0.959 . S
C1027 H1012 0.959 . S
C1027 H1013 0.961 . S
C1027 C1026 1.502 . S
C1028 H1014 0.960 . S
C1028 H1015 0.961 . S
C1028 H1016 0.959 . S
C1028 C1026 1.561 . S
C1029 C1026 1.526 . S
C1029 C1030 1.396 . S
C1029 C1034 1.390 . S
C1030 C1024 1.465 . S
C1030 C1029 1.396 . S
C1030 C1031 1.399 1_545 S
C1031 H1017 0.929 . S
C1031 C1030 1.399 1_565 S
C1031 C1032 1.385 . S
C1032 H1018 0.931 . S
C1032 C1031 1.385 . S
C1032 C1033 1.389 1_565 S
C1033 C1032 1.389 1_545 S
C1033 C1034 1.387 . S
C1034 H1019 0.930 . S
C1034 C1029 1.390 . S
C1034 C1033 1.387 . S
H1035 C1047 0.930 . S
H1036 C1049 0.930 . S
H1037 C1050 0.930 . S
H1038 C1054 0.959 . S
H1039 C1054 0.959 . S
H1040 C1054 0.961 . S
H1041 C1055 0.960 . S
H1042 C1055 0.961 . S
H1043 C1055 0.959 1_455 S
H1044 C1058 0.929 . S
H1045 C1059 0.931 . S
H1046 C1061 0.930 . S
C1047 H1035 0.930 . S
C1047 C1048 1.399 1_655 S
C1047 C1052 1.399 . S
C1048 C1047 1.399 1_455 S
C1048 C1049 1.376 . S
C1049 H1036 0.930 . S
C1049 C1048 1.376 . S
C1049 C1050 1.388 . S
C1050 H1037 0.930 . S
C1050 C1049 1.388 . S
C1050 C1051 1.390 . S
C1051 C1050 1.390 . S
C1051 C1052 1.394 1_455 S
C1051 C1057 1.465 . S
C1052 C1047 1.399 . S
C1052 C1051 1.394 1_655 S
C1052 C1053 1.516 . S
C1053 C1052 1.516 . S
C1053 C1054 1.502 . S
C1053 C1055 1.561 . S
C1053 C1056 1.526 . S
C1054 H1038 0.959 . S
C1054 H1039 0.959 . S
C1054 H1040 0.961 . S
C1054 C1053 1.502 . S
C1055 H1041 0.960 . S
C1055 H1042 0.961 . S
C1055 H1043 0.959 1_655 S
C1055 C1053 1.561 . S
C1056 C1053 1.526 . S
C1056 C1057 1.396 1_655 S
C1056 C1061 1.390 . S
C1057 C1051 1.465 . S
C1057 C1056 1.396 1_455 S
C1057 C1058 1.399 . S
C1058 H1044 0.929 . S
C1058 C1057 1.399 . S
C1058 C1059 1.385 . S
C1059 H1045 0.931 . S
C1059 C1058 1.385 . S
C1059 C1060 1.389 . S
C1060 C1059 1.389 . S
C1060 C1061 1.387 1_455 S
C1061 H1046 0.930 . S
C1061 C1056 1.390 . S
C1061 C1060 1.387 1_655 S
H1062 C1074 0.930 . S
H1063 C1076 0.930 . S
H1064 C1077 0.930 . S
H1065 C1081 0.959 . S
H1066 C1081 0.959 . S
H1067 C1081 0.961 . S
H1068 C1082 0.960 . S
H1069 C1082 0.961 . S
H1070 C1082 0.959 . S
H1071 C1085 0.929 . S
H1072 C1086 0.931 . S
H1073 C1088 0.930 . S
C1074 H1062 0.930 . S
C1074 C1075 1.399 . S
C1074 C1079 1.399 . S
C1075 C1074 1.399 . S
C1075 C1076 1.376 . S
C1076 H1063 0.930 . S
C1076 C1075 1.376 . S
C1076 C1077 1.388 . S
C1077 H1064 0.930 . S
C1077 C1076 1.388 . S
C1077 C1078 1.390 . S
C1078 C1077 1.390 . S
C1078 C1079 1.394 . S
C1078 C1084 1.465 . S
C1079 C1074 1.399 . S
C1079 C1078 1.394 . S
C1079 C1080 1.516 . S
C1080 C1079 1.516 . S
C1080 C1081 1.502 . S
C1080 C1082 1.561 . S
C1080 C1083 1.526 . S
C1081 H1065 0.959 . S
C1081 H1066 0.959 . S
C1081 H1067 0.961 . S
C1081 C1080 1.502 . S
C1082 H1068 0.960 . S
C1082 H1069 0.961 . S
C1082 H1070 0.959 . S
C1082 C1080 1.561 . S
C1083 C1080 1.526 . S
C1083 C1084 1.396 . S
C1083 C1088 1.390 . S
C1084 C1078 1.465 . S
C1084 C1083 1.396 . S
C1084 C1085 1.399 . S
C1085 H1071 0.929 . S
C1085 C1084 1.399 . S
C1085 C1086 1.385 . S
C1086 H1072 0.931 . S
C1086 C1085 1.385 . S
C1086 C1087 1.389 . S
C1087 C1086 1.389 . S
C1087 C1088 1.387 . S
C1088 H1073 0.930 . S
C1088 C1083 1.390 . S
C1088 C1087 1.387 . S
H1089 C1101 0.930 . S
H1090 C1103 0.930 . S
H1091 C1104 0.930 . S
H1092 C1108 0.959 . S
H1093 C1108 0.959 . S
H1094 C1108 0.961 . S
H1095 C1109 0.960 . S
H1096 C1109 0.961 . S
H1097 C1109 0.959 . S
H1098 C1112 0.929 . S
H1099 C1113 0.931 . S
H1100 C1115 0.930 . S
C1101 H1089 0.930 . S
C1101 C1102 1.399 . S
C1101 C1106 1.399 . S
C1102 C1101 1.399 . S
C1102 C1103 1.376 1_545 S
C1103 H1090 0.930 . S
C1103 C1102 1.376 1_565 S
C1103 C1104 1.388 . S
C1104 H1091 0.930 . S
C1104 C1103 1.388 . S
C1104 C1105 1.390 1_565 S
C1105 C1104 1.390 1_545 S
C1105 C1106 1.394 . S
C1105 C1111 1.465 . S
C1106 C1101 1.399 . S
C1106 C1105 1.394 . S
C1106 C1107 1.516 . S
C1107 C1106 1.516 . S
C1107 C1108 1.502 . S
C1107 C1109 1.561 . S
C1107 C1110 1.526 . S
C1108 H1092 0.959 . S
C1108 H1093 0.959 . S
C1108 H1094 0.961 . S
C1108 C1107 1.502 . S
C1109 H1095 0.960 . S
C1109 H1096 0.961 . S
C1109 H1097 0.959 . S
C1109 C1107 1.561 . S
C1110 C1107 1.526 . S
C1110 C1111 1.396 . S
C1110 C1115 1.390 . S
C1111 C1105 1.465 . S
C1111 C1110 1.396 . S
C1111 C1112 1.399 1_545 S
C1112 H1098 0.929 . S
C1112 C1111 1.399 1_565 S
C1112 C1113 1.385 . S
C1113 H1099 0.931 . S
C1113 C1112 1.385 . S
C1113 C1114 1.389 1_565 S
C1114 C1113 1.389 1_545 S
C1114 C1115 1.387 . S
C1115 H1100 0.930 . S
C1115 C1110 1.390 . S
C1115 C1114 1.387 . S
H1116 C1128 0.930 . S
H1117 C1130 0.930 . S
H1118 C1131 0.930 . S
H1119 C1135 0.959 . S
H1120 C1135 0.959 . S
H1121 C1135 0.961 . S
H1122 C1136 0.960 . S
H1123 C1136 0.961 . S
H1124 C1136 0.959 . S
H1125 C1139 0.929 . S
H1126 C1140 0.931 . S
H1127 C1142 0.930 . S
C1128 H1116 0.930 . S
C1128 C1129 1.399 . S
C1128 C1133 1.399 . S
C1129 C1128 1.399 . S
C1129 C1130 1.376 . S
C1130 H1117 0.930 . S
C1130 C1129 1.376 . S
C1130 C1131 1.388 . S
C1131 H1118 0.930 . S
C1131 C1130 1.388 . S
C1131 C1132 1.390 . S
C1132 C1131 1.390 . S
C1132 C1133 1.394 . S
C1132 C1138 1.465 . S
C1133 C1128 1.399 . S
C1133 C1132 1.394 . S
C1133 C1134 1.516 . S
C1134 C1133 1.516 . S
C1134 C1135 1.502 . S
C1134 C1136 1.561 . S
C1134 C1137 1.526 . S
C1135 H1119 0.959 . S
C1135 H1120 0.959 . S
C1135 H1121 0.961 . S
C1135 C1134 1.502 . S
C1136 H1122 0.960 . S
C1136 H1123 0.961 . S
C1136 H1124 0.959 . S
C1136 C1134 1.561 . S
C1137 C1134 1.526 . S
C1137 C1138 1.396 . S
C1137 C1142 1.390 . S
C1138 C1132 1.465 . S
C1138 C1137 1.396 . S
C1138 C1139 1.399 . S
C1139 H1125 0.929 . S
C1139 C1138 1.399 . S
C1139 C1140 1.385 . S
C1140 H1126 0.931 . S
C1140 C1139 1.385 . S
C1140 C1141 1.389 . S
C1141 C1140 1.389 . S
C1141 C1142 1.387 . S
C1142 H1127 0.930 . S
C1142 C1137 1.390 . S
C1142 C1141 1.387 . S
H1143 C1155 0.930 . S
H1144 C1157 0.930 . S
H1145 C1158 0.930 . S
H1146 C1162 0.959 . S
H1147 C1162 0.959 . S
H1148 C1162 0.961 . S
H1149 C1163 0.960 . S
H1150 C1163 0.961 . S
H1151 C1163 0.959 . S
H1152 C1166 0.929 . S
H1153 C1167 0.931 . S
H1154 C1169 0.930 . S
C1155 H1143 0.930 . S
C1155 C1156 1.399 . S
C1155 C1160 1.399 . S
C1156 C1155 1.399 . S
C1156 C1157 1.376 . S
C1157 H1144 0.930 . S
C1157 C1156 1.376 . S
C1157 C1158 1.388 . S
C1158 H1145 0.930 . S
C1158 C1157 1.388 . S
C1158 C1159 1.390 . S
C1159 C1158 1.390 . S
C1159 C1160 1.394 . S
C1159 C1165 1.465 . S
C1160 C1155 1.399 . S
C1160 C1159 1.394 . S
C1160 C1161 1.516 . S
C1161 C1160 1.516 . S
C1161 C1162 1.502 . S
C1161 C1163 1.561 . S
C1161 C1164 1.526 . S
C1162 H1146 0.959 . S
C1162 H1147 0.959 . S
C1162 H1148 0.961 . S
C1162 C1161 1.502 . S
C1163 H1149 0.960 . S
C1163 H1150 0.961 . S
C1163 H1151 0.959 . S
C1163 C1161 1.561 . S
C1164 C1161 1.526 . S
C1164 C1165 1.396 . S
C1164 C1169 1.390 . S
C1165 C1159 1.465 . S
C1165 C1164 1.396 . S
C1165 C1166 1.399 . S
C1166 H1152 0.929 . S
C1166 C1165 1.399 . S
C1166 C1167 1.385 . S
C1167 H1153 0.931 . S
C1167 C1166 1.385 . S
C1167 C1168 1.389 . S
C1168 C1167 1.389 . S
C1168 C1169 1.387 . S
C1169 H1154 0.930 . S
C1169 C1164 1.390 . S
C1169 C1168 1.387 . S
H1170 C1182 0.930 . S
H1171 C1184 0.930 . S
H1172 C1185 0.930 . S
H1173 C1189 0.959 . S
H1174 C1189 0.959 . S
H1175 C1189 0.961 . S
H1176 C1190 0.960 . S
H1177 C1190 0.961 . S
H1178 C1190 0.959 . S
H1179 C1193 0.929 . S
H1180 C1194 0.931 . S
H1181 C1196 0.930 . S
C1182 H1170 0.930 . S
C1182 C1183 1.399 . S
C1182 C1187 1.399 . S
C1183 C1182 1.399 . S
C1183 C1184 1.376 . S
C1184 H1171 0.930 . S
C1184 C1183 1.376 . S
C1184 C1185 1.388 . S
C1185 H1172 0.930 . S
C1185 C1184 1.388 . S
C1185 C1186 1.390 . S
C1186 C1185 1.390 . S
C1186 C1187 1.394 . S
C1186 C1192 1.465 . S
C1187 C1182 1.399 . S
C1187 C1186 1.394 . S
C1187 C1188 1.516 . S
C1188 C1187 1.516 . S
C1188 C1189 1.502 . S
C1188 C1190 1.561 . S
C1188 C1191 1.526 . S
C1189 H1173 0.959 . S
C1189 H1174 0.959 . S
C1189 H1175 0.961 . S
C1189 C1188 1.502 . S
C1190 H1176 0.960 . S
C1190 H1177 0.961 . S
C1190 H1178 0.959 . S
C1190 C1188 1.561 . S
C1191 C1188 1.526 . S
C1191 C1192 1.396 . S
C1191 C1196 1.390 . S
C1192 C1186 1.465 . S
C1192 C1191 1.396 . S
C1192 C1193 1.399 . S
C1193 H1179 0.929 . S
C1193 C1192 1.399 . S
C1193 C1194 1.385 . S
C1194 H1180 0.931 . S
C1194 C1193 1.385 . S
C1194 C1195 1.389 . S
C1195 C1194 1.389 . S
C1195 C1196 1.387 . S
C1196 H1181 0.930 . S
C1196 C1191 1.390 . S
C1196 C1195 1.387 . S
H1197 C1209 0.930 . S
H1198 C1211 0.930 . S
H1199 C1212 0.930 . S
H1200 C1216 0.959 . S
H1201 C1216 0.959 . S
H1202 C1216 0.961 . S
H1203 C1217 0.960 . S
H1204 C1217 0.961 . S
H1205 C1217 0.959 . S
H1206 C1220 0.929 . S
H1207 C1221 0.931 1_556 S
H1208 C1223 0.930 . S
C1209 H1197 0.930 . S
C1209 C1210 1.399 . S
C1209 C1214 1.399 . S
C1210 C1209 1.399 . S
C1210 C1211 1.376 . S
C1211 H1198 0.930 . S
C1211 C1210 1.376 . S
C1211 C1212 1.388 . S
C1212 H1199 0.930 . S
C1212 C1211 1.388 . S
C1212 C1213 1.390 . S
C1213 C1212 1.390 . S
C1213 C1214 1.394 . S
C1213 C1219 1.465 . S
C1214 C1209 1.399 . S
C1214 C1213 1.394 . S
C1214 C1215 1.516 . S
C1215 C1214 1.516 . S
C1215 C1216 1.502 . S
C1215 C1217 1.561 . S
C1215 C1218 1.526 . S
C1216 H1200 0.959 . S
C1216 H1201 0.959 . S
C1216 H1202 0.961 . S
C1216 C1215 1.502 . S
C1217 H1203 0.960 . S
C1217 H1204 0.961 . S
C1217 H1205 0.959 . S
C1217 C1215 1.561 . S
C1218 C1215 1.526 . S
C1218 C1219 1.396 . S
C1218 C1223 1.390 . S
C1219 C1213 1.465 . S
C1219 C1218 1.396 . S
C1219 C1220 1.399 . S
C1220 H1206 0.929 . S
C1220 C1219 1.399 . S
C1220 C1221 1.385 . S
C1221 H1207 0.931 1_554 S
C1221 C1220 1.385 . S
C1221 C1222 1.389 1_554 S
C1222 C1221 1.389 1_556 S
C1222 C1223 1.387 1_556 S
C1223 H1208 0.930 . S
C1223 C1218 1.390 . S
C1223 C1222 1.387 1_554 S
H1224 C1236 0.930 . S
H1225 C1238 0.930 1_556 S
H1226 C1239 0.930 . S
H1227 C1243 0.959 . S
H1228 C1243 0.959 . S
H1229 C1243 0.961 . S
H1230 C1244 0.960 . S
H1231 C1244 0.961 . S
H1232 C1244 0.959 . S
H1233 C1247 0.929 . S
H1234 C1248 0.931 . S
H1235 C1250 0.930 . S
C1236 H1224 0.930 . S
C1236 C1237 1.399 1_554 S
C1236 C1241 1.399 . S
C1237 C1236 1.399 1_556 S
C1237 C1238 1.376 1_556 S
C1238 H1225 0.930 1_554 S
C1238 C1237 1.376 1_554 S
C1238 C1239 1.388 . S
C1239 H1226 0.930 . S
C1239 C1238 1.388 . S
C1239 C1240 1.390 . S
C1240 C1239 1.390 . S
C1240 C1241 1.394 . S
C1240 C1246 1.465 . S
C1241 C1236 1.399 . S
C1241 C1240 1.394 . S
C1241 C1242 1.516 . S
C1242 C1241 1.516 . S
C1242 C1243 1.502 . S
C1242 C1244 1.561 . S
C1242 C1245 1.526 . S
C1243 H1227 0.959 . S
C1243 H1228 0.959 . S
C1243 H1229 0.961 . S
C1243 C1242 1.502 . S
C1244 H1230 0.960 . S
C1244 H1231 0.961 . S
C1244 H1232 0.959 . S
C1244 C1242 1.561 . S
C1245 C1242 1.526 . S
C1245 C1246 1.396 . S
C1245 C1250 1.390 . S
C1246 C1240 1.465 . S
C1246 C1245 1.396 . S
C1246 C1247 1.399 . S
C1247 H1233 0.929 . S
C1247 C1246 1.399 . S
C1247 C1248 1.385 . S
C1248 H1234 0.931 . S
C1248 C1247 1.385 . S
C1248 C1249 1.389 . S
C1249 C1248 1.389 . S
C1249 C1250 1.387 . S
C1250 H1235 0.930 . S
C1250 C1245 1.390 . S
C1250 C1249 1.387 . S
H1251 C1263 0.930 . S
H1252 C1265 0.930 1_556 S
H1253 C1266 0.930 . S
H1254 C1270 0.959 . S
H1255 C1270 0.959 . S
H1256 C1270 0.961 . S
H1257 C1271 0.960 . S
H1258 C1271 0.961 . S
H1259 C1271 0.959 . S
H1260 C1274 0.929 . S
H1261 C1275 0.931 . S
H1262 C1277 0.930 . S
C1263 H1251 0.930 . S
C1263 C1264 1.399 1_554 S
C1263 C1268 1.399 . S
C1264 C1263 1.399 1_556 S
C1264 C1265 1.376 1_556 S
C1265 H1252 0.930 1_554 S
C1265 C1264 1.376 1_554 S
C1265 C1266 1.388 . S
C1266 H1253 0.930 . S
C1266 C1265 1.388 . S
C1266 C1267 1.390 . S
C1267 C1266 1.390 . S
C1267 C1268 1.394 . S
C1267 C1273 1.465 . S
C1268 C1263 1.399 . S
C1268 C1267 1.394 . S
C1268 C1269 1.516 . S
C1269 C1268 1.516 . S
C1269 C1270 1.502 . S
C1269 C1271 1.561 . S
C1269 C1272 1.526 . S
C1270 H1254 0.959 . S
C1270 H1255 0.959 . S
C1270 H1256 0.961 . S
C1270 C1269 1.502 . S
C1271 H1257 0.960 . S
C1271 H1258 0.961 . S
C1271 H1259 0.959 . S
C1271 C1269 1.561 . S
C1272 C1269 1.526 . S
C1272 C1273 1.396 . S
C1272 C1277 1.390 . S
C1273 C1267 1.465 . S
C1273 C1272 1.396 . S
C1273 C1274 1.399 . S
C1274 H1260 0.929 . S
C1274 C1273 1.399 . S
C1274 C1275 1.385 . S
C1275 H1261 0.931 . S
C1275 C1274 1.385 . S
C1275 C1276 1.389 . S
C1276 C1275 1.389 . S
C1276 C1277 1.387 . S
C1277 H1262 0.930 . S
C1277 C1272 1.390 . S
C1277 C1276 1.387 . S
H1278 C1290 0.930 . S
H1279 C1292 0.930 . S
H1280 C1293 0.930 . S
H1281 C1297 0.959 . S
H1282 C1297 0.959 . S
H1283 C1297 0.961 . S
H1284 C1298 0.960 . S
H1285 C1298 0.961 . S
H1286 C1298 0.959 . S
H1287 C1301 0.929 . S
H1288 C1302 0.931 . S
H1289 C1304 0.930 . S
C1290 H1278 0.930 . S
C1290 C1291 1.399 . S
C1290 C1295 1.399 1_554 S
C1291 C1290 1.399 . S
C1291 C1292 1.376 . S
C1292 H1279 0.930 . S
C1292 C1291 1.376 . S
C1292 C1293 1.388 1_554 S
C1293 H1280 0.930 . S
C1293 C1292 1.388 1_556 S
C1293 C1294 1.390 . S
C1294 C1293 1.390 . S
C1294 C1295 1.394 . S
C1294 C1300 1.465 . S
C1295 C1290 1.399 1_556 S
C1295 C1294 1.394 . S
C1295 C1296 1.516 . S
C1296 C1295 1.516 . S
C1296 C1297 1.502 . S
C1296 C1298 1.561 . S
C1296 C1299 1.526 . S
C1297 H1281 0.959 . S
C1297 H1282 0.959 . S
C1297 H1283 0.961 . S
C1297 C1296 1.502 . S
C1298 H1284 0.960 . S
C1298 H1285 0.961 . S
C1298 H1286 0.959 . S
C1298 C1296 1.561 . S
C1299 C1296 1.526 . S
C1299 C1300 1.396 . S
C1299 C1304 1.390 . S
C1300 C1294 1.465 . S
C1300 C1299 1.396 . S
C1300 C1301 1.399 . S
C1301 H1287 0.929 . S
C1301 C1300 1.399 . S
C1301 C1302 1.385 . S
C1302 H1288 0.931 . S
C1302 C1301 1.385 . S
C1302 C1303 1.389 . S
C1303 C1302 1.389 . S
C1303 C1304 1.387 . S
C1304 H1289 0.930 . S
C1304 C1299 1.390 . S
C1304 C1303 1.387 . S
H1305 C1317 0.930 . S
H1306 C1319 0.930 . S
H1307 C1320 0.930 . S
H1308 C1324 0.959 . S
H1309 C1324 0.959 . S
H1310 C1324 0.961 . S
H1311 C1325 0.960 . S
H1312 C1325 0.961 . S
H1313 C1325 0.959 . S
H1314 C1328 0.929 . S
H1315 C1329 0.931 . S
H1316 C1331 0.930 . S
C1317 H1305 0.930 . S
C1317 C1318 1.399 . S
C1317 C1322 1.399 . S
C1318 C1317 1.399 . S
C1318 C1319 1.376 . S
C1319 H1306 0.930 . S
C1319 C1318 1.376 . S
C1319 C1320 1.388 . S
C1320 H1307 0.930 . S
C1320 C1319 1.388 . S
C1320 C1321 1.390 . S
C1321 C1320 1.390 . S
C1321 C1322 1.394 . S
C1321 C1327 1.465 . S
C1322 C1317 1.399 . S
C1322 C1321 1.394 . S
C1322 C1323 1.516 . S
C1323 C1322 1.516 . S
C1323 C1324 1.502 . S
C1323 C1325 1.561 . S
C1323 C1326 1.526 . S
C1324 H1308 0.959 . S
C1324 H1309 0.959 . S
C1324 H1310 0.961 . S
C1324 C1323 1.502 . S
C1325 H1311 0.960 . S
C1325 H1312 0.961 . S
C1325 H1313 0.959 . S
C1325 C1323 1.561 . S
C1326 C1323 1.526 . S
C1326 C1327 1.396 . S
C1326 C1331 1.390 1_556 S
C1327 C1321 1.465 . S
C1327 C1326 1.396 . S
C1327 C1328 1.399 . S
C1328 H1314 0.929 . S
C1328 C1327 1.399 . S
C1328 C1329 1.385 1_556 S
C1329 H1315 0.931 . S
C1329 C1328 1.385 1_554 S
C1329 C1330 1.389 . S
C1330 C1329 1.389 . S
C1330 C1331 1.387 . S
C1331 H1316 0.930 . S
C1331 C1326 1.390 1_554 S
C1331 C1330 1.387 . S
H1332 C1344 0.930 1_554 S
H1333 C1346 0.930 . S
H1334 C1347 0.930 . S
H1335 C1351 0.959 . S
H1336 C1351 0.959 . S
H1337 C1351 0.961 . S
H1338 C1352 0.960 . S
H1339 C1352 0.961 . S
H1340 C1352 0.959 . S
H1341 C1355 0.929 . S
H1342 C1356 0.931 . S
H1343 C1358 0.930 . S
C1344 H1332 0.930 1_556 S
C1344 C1345 1.399 1_556 S
C1344 C1349 1.399 . S
C1345 C1344 1.399 1_554 S
C1345 C1346 1.376 . S
C1346 H1333 0.930 . S
C1346 C1345 1.376 . S
C1346 C1347 1.388 1_554 S
C1347 H1334 0.930 . S
C1347 C1346 1.388 1_556 S
C1347 C1348 1.390 . S
C1348 C1347 1.390 . S
C1348 C1349 1.394 . S
C1348 C1354 1.465 . S
C1349 C1344 1.399 . S
C1349 C1348 1.394 . S
C1349 C1350 1.516 . S
C1350 C1349 1.516 . S
C1350 C1351 1.502 . S
C1350 C1352 1.561 . S
C1350 C1353 1.526 . S
C1351 H1335 0.959 . S
C1351 H1336 0.959 . S
C1351 H1337 0.961 . S
C1351 C1350 1.502 . S
C1352 H1338 0.960 . S
C1352 H1339 0.961 . S
C1352 H1340 0.959 . S
C1352 C1350 1.561 . S
C1353 C1350 1.526 . S
C1353 C1354 1.396 . S
C1353 C1358 1.390 . S
C1354 C1348 1.465 . S
C1354 C1353 1.396 . S
C1354 C1355 1.399 . S
C1355 H1341 0.929 . S
C1355 C1354 1.399 . S
C1355 C1356 1.385 . S
C1356 H1342 0.931 . S
C1356 C1355 1.385 . S
C1356 C1357 1.389 . S
C1357 C1356 1.389 . S
C1357 C1358 1.387 . S
C1358 H1343 0.930 . S
C1358 C1353 1.390 . S
C1358 C1357 1.387 . S
H1359 C1371 0.930 . S
H1360 C1373 0.930 . S
H1361 C1374 0.930 . S
H1362 C1378 0.959 . S
H1363 C1378 0.959 . S
H1364 C1378 0.961 . S
H1365 C1379 0.960 . S
H1366 C1379 0.961 . S
H1367 C1379 0.959 . S
H1368 C1382 0.929 . S
H1369 C1383 0.931 . S
H1370 C1385 0.930 . S
C1371 H1359 0.930 . S
C1371 C1372 1.399 . S
C1371 C1376 1.399 . S
C1372 C1371 1.399 . S
C1372 C1373 1.376 . S
C1373 H1360 0.930 . S
C1373 C1372 1.376 . S
C1373 C1374 1.388 . S
C1374 H1361 0.930 . S
C1374 C1373 1.388 . S
C1374 C1375 1.390 . S
C1375 C1374 1.390 . S
C1375 C1376 1.394 . S
C1375 C1381 1.465 . S
C1376 C1371 1.399 . S
C1376 C1375 1.394 . S
C1376 C1377 1.516 . S
C1377 C1376 1.516 . S
C1377 C1378 1.502 . S
C1377 C1379 1.561 . S
C1377 C1380 1.526 . S
C1378 H1362 0.959 . S
C1378 H1363 0.959 . S
C1378 H1364 0.961 . S
C1378 C1377 1.502 . S
C1379 H1365 0.960 . S
C1379 H1366 0.961 . S
C1379 H1367 0.959 . S
C1379 C1377 1.561 . S
C1380 C1377 1.526 . S
C1380 C1381 1.396 . S
C1380 C1385 1.390 . S
C1381 C1375 1.465 . S
C1381 C1380 1.396 . S
C1381 C1382 1.399 . S
C1382 H1368 0.929 . S
C1382 C1381 1.399 . S
C1382 C1383 1.385 . S
C1383 H1369 0.931 . S
C1383 C1382 1.385 . S
C1383 C1384 1.389 . S
C1384 C1383 1.389 . S
C1384 C1385 1.387 . S
C1385 H1370 0.930 . S
C1385 C1380 1.390 . S
C1385 C1384 1.387 . S
H1386 C1398 0.930 . S
H1387 C1400 0.930 . S
H1388 C1401 0.930 . S
H1389 C1405 0.959 . S
H1390 C1405 0.959 . S
H1391 C1405 0.961 . S
H1392 C1406 0.960 . S
H1393 C1406 0.961 . S
H1394 C1406 0.959 . S
H1395 C1409 0.929 . S
H1396 C1410 0.931 . S
H1397 C1412 0.930 . S
C1398 H1386 0.930 . S
C1398 C1399 1.399 . S
C1398 C1403 1.399 . S
C1399 C1398 1.399 . S
C1399 C1400 1.376 . S
C1400 H1387 0.930 . S
C1400 C1399 1.376 . S
C1400 C1401 1.388 . S
C1401 H1388 0.930 . S
C1401 C1400 1.388 . S
C1401 C1402 1.390 . S
C1402 C1401 1.390 . S
C1402 C1403 1.394 . S
C1402 C1408 1.465 . S
C1403 C1398 1.399 . S
C1403 C1402 1.394 . S
C1403 C1404 1.516 . S
C1404 C1403 1.516 . S
C1404 C1405 1.502 . S
C1404 C1406 1.561 . S
C1404 C1407 1.526 . S
C1405 H1389 0.959 . S
C1405 H1390 0.959 . S
C1405 H1391 0.961 . S
C1405 C1404 1.502 . S
C1406 H1392 0.960 . S
C1406 H1393 0.961 . S
C1406 H1394 0.959 . S
C1406 C1404 1.561 . S
C1407 C1404 1.526 . S
C1407 C1408 1.396 . S
C1407 C1412 1.390 . S
C1408 C1402 1.465 . S
C1408 C1407 1.396 . S
C1408 C1409 1.399 . S
C1409 H1395 0.929 . S
C1409 C1408 1.399 . S
C1409 C1410 1.385 . S
C1410 H1396 0.931 . S
C1410 C1409 1.385 . S
C1410 C1411 1.389 . S
C1411 C1410 1.389 . S
C1411 C1412 1.387 . S
C1412 H1397 0.930 . S
C1412 C1407 1.390 . S
C1412 C1411 1.387 . S
H1413 C1425 0.930 . S
H1414 C1427 0.930 . S
H1415 C1428 0.930 . S
H1416 C1432 0.959 . S
H1417 C1432 0.959 . S
H1418 C1432 0.961 . S
H1419 C1433 0.960 . S
H1420 C1433 0.961 . S
H1421 C1433 0.959 . S
H1422 C1436 0.929 . S
H1423 C1437 0.931 . S
H1424 C1439 0.930 . S
C1425 H1413 0.930 . S
C1425 C1426 1.399 . S
C1425 C1430 1.399 . S
C1426 C1425 1.399 . S
C1426 C1427 1.376 . S
C1427 H1414 0.930 . S
C1427 C1426 1.376 . S
C1427 C1428 1.388 . S
C1428 H1415 0.930 . S
C1428 C1427 1.388 . S
C1428 C1429 1.390 . S
C1429 C1428 1.390 . S
C1429 C1430 1.394 . S
C1429 C1435 1.465 . S
C1430 C1425 1.399 . S
C1430 C1429 1.394 . S
C1430 C1431 1.516 . S
C1431 C1430 1.516 . S
C1431 C1432 1.502 . S
C1431 C1433 1.561 . S
C1431 C1434 1.526 . S
C1432 H1416 0.959 . S
C1432 H1417 0.959 . S
C1432 H1418 0.961 . S
C1432 C1431 1.502 . S
C1433 H1419 0.960 . S
C1433 H1420 0.961 . S
C1433 H1421 0.959 . S
C1433 C1431 1.561 . S
C1434 C1431 1.526 . S
C1434 C1435 1.396 . S
C1434 C1439 1.390 . S
C1435 C1429 1.465 . S
C1435 C1434 1.396 . S
C1435 C1436 1.399 . S
C1436 H1422 0.929 . S
C1436 C1435 1.399 . S
C1436 C1437 1.385 . S
C1437 H1423 0.931 . S
C1437 C1436 1.385 . S
C1437 C1438 1.389 . S
C1438 C1437 1.389 . S
C1438 C1439 1.387 . S
C1439 H1424 0.930 . S
C1439 C1434 1.390 . S
C1439 C1438 1.387 . S
H1440 C1452 0.930 . S
H1441 C1454 0.930 1_554 S
H1442 C1455 0.930 1_554 S
H1443 C1459 0.959 . S
H1444 C1459 0.959 . S
H1445 C1459 0.961 . S
H1446 C1460 0.960 . S
H1447 C1460 0.961 . S
H1448 C1460 0.959 . S
H1449 C1463 0.929 . S
H1450 C1464 0.931 . S
H1451 C1466 0.930 . S
C1452 H1440 0.930 . S
C1452 C1453 1.399 . S
C1452 C1457 1.399 . S
C1453 C1452 1.399 . S
C1453 C1454 1.376 . S
C1454 H1441 0.930 1_556 S
C1454 C1453 1.376 . S
C1454 C1455 1.388 . S
C1455 H1442 0.930 1_556 S
C1455 C1454 1.388 . S
C1455 C1456 1.390 . S
C1456 C1455 1.390 . S
C1456 C1457 1.394 . S
C1456 C1462 1.465 . S
C1457 C1452 1.399 . S
C1457 C1456 1.394 . S
C1457 C1458 1.516 . S
C1458 C1457 1.516 . S
C1458 C1459 1.502 . S
C1458 C1460 1.561 . S
C1458 C1461 1.526 . S
C1459 H1443 0.959 . S
C1459 H1444 0.959 . S
C1459 H1445 0.961 . S
C1459 C1458 1.502 . S
C1460 H1446 0.960 . S
C1460 H1447 0.961 . S
C1460 H1448 0.959 . S
C1460 C1458 1.561 . S
C1461 C1458 1.526 . S
C1461 C1462 1.396 . S
C1461 C1466 1.390 . S
C1462 C1456 1.465 . S
C1462 C1461 1.396 . S
C1462 C1463 1.399 . S
C1463 H1449 0.929 . S
C1463 C1462 1.399 . S
C1463 C1464 1.385 . S
C1464 H1450 0.931 . S
C1464 C1463 1.385 . S
C1464 C1465 1.389 . S
C1465 C1464 1.389 . S
C1465 C1466 1.387 . S
C1466 H1451 0.930 . S
C1466 C1461 1.390 . S
C1466 C1465 1.387 . S
H1467 C1479 0.930 . S
H1468 C1481 0.930 . S
H1469 C1482 0.930 . S
H1470 C1486 0.959 . S
H1471 C1486 0.959 . S
H1472 C1486 0.961 . S
H1473 C1487 0.960 . S
H1474 C1487 0.961 . S
H1475 C1487 0.959 . S
H1476 C1490 0.929 . S
H1477 C1491 0.931 . S
H1478 C1493 0.930 . S
C1479 H1467 0.930 . S
C1479 C1480 1.399 . S
C1479 C1484 1.399 . S
C1480 C1479 1.399 . S
C1480 C1481 1.376 . S
C1481 H1468 0.930 . S
C1481 C1480 1.376 . S
C1481 C1482 1.388 . S
C1482 H1469 0.930 . S
C1482 C1481 1.388 . S
C1482 C1483 1.390 . S
C1483 C1482 1.390 . S
C1483 C1484 1.394 . S
C1483 C1489 1.465 . S
C1484 C1479 1.399 . S
C1484 C1483 1.394 . S
C1484 C1485 1.516 . S
C1485 C1484 1.516 . S
C1485 C1486 1.502 . S
C1485 C1487 1.561 . S
C1485 C1488 1.526 . S
C1486 H1470 0.959 . S
C1486 H1471 0.959 . S
C1486 H1472 0.961 . S
C1486 C1485 1.502 . S
C1487 H1473 0.960 . S
C1487 H1474 0.961 . S
C1487 H1475 0.959 . S
C1487 C1485 1.561 . S
C1488 C1485 1.526 . S
C1488 C1489 1.396 . S
C1488 C1493 1.390 . S
C1489 C1483 1.465 . S
C1489 C1488 1.396 . S
C1489 C1490 1.399 . S
C1490 H1476 0.929 . S
C1490 C1489 1.399 . S
C1490 C1491 1.385 . S
C1491 H1477 0.931 . S
C1491 C1490 1.385 . S
C1491 C1492 1.389 . S
C1492 C1491 1.389 . S
C1492 C1493 1.387 . S
C1493 H1478 0.930 . S
C1493 C1488 1.390 . S
C1493 C1492 1.387 . S
H1494 C1506 0.930 . S
H1495 C1508 0.930 . S
H1496 C1509 0.930 . S
H1497 C1513 0.959 . S
H1498 C1513 0.959 . S
H1499 C1513 0.961 . S
H1500 C1514 0.960 . S
H1501 C1514 0.961 . S
H1502 C1514 0.959 . S
H1503 C1517 0.929 1_554 S
H1504 C1518 0.931 1_554 S
H1505 C1520 0.930 . S
C1506 H1494 0.930 . S
C1506 C1507 1.399 . S
C1506 C1511 1.399 . S
C1507 C1506 1.399 . S
C1507 C1508 1.376 . S
C1508 H1495 0.930 . S
C1508 C1507 1.376 . S
C1508 C1509 1.388 . S
C1509 H1496 0.930 . S
C1509 C1508 1.388 . S
C1509 C1510 1.390 . S
C1510 C1509 1.390 . S
C1510 C1511 1.394 . S
C1510 C1516 1.465 . S
C1511 C1506 1.399 . S
C1511 C1510 1.394 . S
C1511 C1512 1.516 . S
C1512 C1511 1.516 . S
C1512 C1513 1.502 . S
C1512 C1514 1.561 . S
C1512 C1515 1.526 . S
C1513 H1497 0.959 . S
C1513 H1498 0.959 . S
C1513 H1499 0.961 . S
C1513 C1512 1.502 . S
C1514 H1500 0.960 . S
C1514 H1501 0.961 . S
C1514 H1502 0.959 . S
C1514 C1512 1.561 . S
C1515 C1512 1.526 . S
C1515 C1516 1.396 . S
C1515 C1520 1.390 . S
C1516 C1510 1.465 . S
C1516 C1515 1.396 . S
C1516 C1517 1.399 . S
C1517 H1503 0.929 1_556 S
C1517 C1516 1.399 . S
C1517 C1518 1.385 . S
C1518 H1504 0.931 1_556 S
C1518 C1517 1.385 . S
C1518 C1519 1.389 . S
C1519 C1518 1.389 . S
C1519 C1520 1.387 . S
C1520 H1505 0.930 . S
C1520 C1515 1.390 . S
C1520 C1519 1.387 . S
H1521 C1533 0.930 . S
H1522 C1535 0.930 . S
H1523 C1536 0.930 . S
H1524 C1540 0.959 . S
H1525 C1540 0.959 . S
H1526 C1540 0.961 . S
H1527 C1541 0.960 . S
H1528 C1541 0.961 . S
H1529 C1541 0.959 . S
H1530 C1544 0.929 . S
H1531 C1545 0.931 . S
H1532 C1547 0.930 . S
C1533 H1521 0.930 . S
C1533 C1534 1.399 . S
C1533 C1538 1.399 . S
C1534 C1533 1.399 . S
C1534 C1535 1.376 . S
C1535 H1522 0.930 . S
C1535 C1534 1.376 . S
C1535 C1536 1.388 . S
C1536 H1523 0.930 . S
C1536 C1535 1.388 . S
C1536 C1537 1.390 . S
C1537 C1536 1.390 . S
C1537 C1538 1.394 . S
C1537 C1543 1.465 . S
C1538 C1533 1.399 . S
C1538 C1537 1.394 . S
C1538 C1539 1.516 . S
C1539 C1538 1.516 . S
C1539 C1540 1.502 . S
C1539 C1541 1.561 . S
C1539 C1542 1.526 . S
C1540 H1524 0.959 . S
C1540 H1525 0.959 . S
C1540 H1526 0.961 . S
C1540 C1539 1.502 . S
C1541 H1527 0.960 . S
C1541 H1528 0.961 . S
C1541 H1529 0.959 . S
C1541 C1539 1.561 . S
C1542 C1539 1.526 . S
C1542 C1543 1.396 . S
C1542 C1547 1.390 . S
C1543 C1537 1.465 . S
C1543 C1542 1.396 . S
C1543 C1544 1.399 . S
C1544 H1530 0.929 . S
C1544 C1543 1.399 . S
C1544 C1545 1.385 . S
C1545 H1531 0.931 . S
C1545 C1544 1.385 . S
C1545 C1546 1.389 . S
C1546 C1545 1.389 . S
C1546 C1547 1.387 . S
C1547 H1532 0.930 . S
C1547 C1542 1.390 . S
C1547 C1546 1.387 . S
H1548 C1560 0.930 . S
H1549 C1562 0.930 . S
H1550 C1563 0.930 . S
H1551 C1567 0.959 . S
H1552 C1567 0.959 . S
H1553 C1567 0.961 . S
H1554 C1568 0.960 . S
H1555 C1568 0.961 . S
H1556 C1568 0.959 . S
H1557 C1571 0.929 . S
H1558 C1572 0.931 . S
H1559 C1574 0.930 . S
C1560 H1548 0.930 . S
C1560 C1561 1.399 . S
C1560 C1565 1.399 . S
C1561 C1560 1.399 . S
C1561 C1562 1.376 . S
C1562 H1549 0.930 . S
C1562 C1561 1.376 . S
C1562 C1563 1.388 . S
C1563 H1550 0.930 . S
C1563 C1562 1.388 . S
C1563 C1564 1.390 . S
C1564 C1563 1.390 . S
C1564 C1565 1.394 . S
C1564 C1570 1.465 . S
C1565 C1560 1.399 . S
C1565 C1564 1.394 . S
C1565 C1566 1.516 . S
C1566 C1565 1.516 . S
C1566 C1567 1.502 . S
C1566 C1568 1.561 . S
C1566 C1569 1.526 . S
C1567 H1551 0.959 . S
C1567 H1552 0.959 . S
C1567 H1553 0.961 . S
C1567 C1566 1.502 . S
C1568 H1554 0.960 . S
C1568 H1555 0.961 . S
C1568 H1556 0.959 . S
C1568 C1566 1.561 . S
C1569 C1566 1.526 . S
C1569 C1570 1.396 . S
C1569 C1574 1.390 . S
C1570 C1564 1.465 . S
C1570 C1569 1.396 . S
C1570 C1571 1.399 . S
C1571 H1557 0.929 . S
C1571 C1570 1.399 . S
C1571 C1572 1.385 . S
C1572 H1558 0.931 . S
C1572 C1571 1.385 . S
C1572 C1573 1.389 . S
C1573 C1572 1.389 . S
C1573 C1574 1.387 . S
C1574 H1559 0.930 . S
C1574 C1569 1.390 . S
C1574 C1573 1.387 . S
H1575 C1587 0.930 . S
H1576 C1589 0.930 . S
H1577 C1590 0.930 . S
H1578 C1594 0.959 . S
H1579 C1594 0.959 . S
H1580 C1594 0.961 . S
H1581 C1595 0.960 . S
H1582 C1595 0.961 . S
H1583 C1595 0.959 . S
H1584 C1598 0.929 . S
H1585 C1599 0.931 . S
H1586 C1601 0.930 . S
C1587 H1575 0.930 . S
C1587 C1588 1.399 . S
C1587 C1592 1.399 . S
C1588 C1587 1.399 . S
C1588 C1589 1.376 . S
C1589 H1576 0.930 . S
C1589 C1588 1.376 . S
C1589 C1590 1.388 . S
C1590 H1577 0.930 . S
C1590 C1589 1.388 . S
C1590 C1591 1.390 . S
C1591 C1590 1.390 . S
C1591 C1592 1.394 . S
C1591 C1597 1.465 . S
C1592 C1587 1.399 . S
C1592 C1591 1.394 . S
C1592 C1593 1.516 . S
C1593 C1592 1.516 . S
C1593 C1594 1.502 . S
C1593 C1595 1.561 . S
C1593 C1596 1.526 . S
C1594 H1578 0.959 . S
C1594 H1579 0.959 . S
C1594 H1580 0.961 . S
C1594 C1593 1.502 . S
C1595 H1581 0.960 . S
C1595 H1582 0.961 . S
C1595 H1583 0.959 . S
C1595 C1593 1.561 . S
C1596 C1593 1.526 . S
C1596 C1597 1.396 . S
C1596 C1601 1.390 . S
C1597 C1591 1.465 . S
C1597 C1596 1.396 . S
C1597 C1598 1.399 . S
C1598 H1584 0.929 . S
C1598 C1597 1.399 . S
C1598 C1599 1.385 . S
C1599 H1585 0.931 . S
C1599 C1598 1.385 . S
C1599 C1600 1.389 . S
C1600 C1599 1.389 . S
C1600 C1601 1.387 . S
C1601 H1586 0.930 . S
C1601 C1596 1.390 . S
C1601 C1600 1.387 . S
H1602 C1614 0.930 . S
H1603 C1616 0.930 . S
H1604 C1617 0.930 . S
H1605 C1621 0.959 . S
H1606 C1621 0.959 . S
H1607 C1621 0.961 . S
H1608 C1622 0.960 . S
H1609 C1622 0.961 . S
H1610 C1622 0.959 . S
H1611 C1625 0.929 . S
H1612 C1626 0.931 . S
H1613 C1628 0.930 . S
C1614 H1602 0.930 . S
C1614 C1615 1.399 . S
C1614 C1619 1.399 . S
C1615 C1614 1.399 . S
C1615 C1616 1.376 . S
C1616 H1603 0.930 . S
C1616 C1615 1.376 . S
C1616 C1617 1.388 . S
C1617 H1604 0.930 . S
C1617 C1616 1.388 . S
C1617 C1618 1.390 . S
C1618 C1617 1.390 . S
C1618 C1619 1.394 . S
C1618 C1624 1.465 . S
C1619 C1614 1.399 . S
C1619 C1618 1.394 . S
C1619 C1620 1.516 . S
C1620 C1619 1.516 . S
C1620 C1621 1.502 . S
C1620 C1622 1.561 . S
C1620 C1623 1.526 . S
C1621 H1605 0.959 . S
C1621 H1606 0.959 . S
C1621 H1607 0.961 . S
C1621 C1620 1.502 . S
C1622 H1608 0.960 . S
C1622 H1609 0.961 . S
C1622 H1610 0.959 . S
C1622 C1620 1.561 . S
C1623 C1620 1.526 . S
C1623 C1624 1.396 . S
C1623 C1628 1.390 . S
C1624 C1618 1.465 . S
C1624 C1623 1.396 . S
C1624 C1625 1.399 . S
C1625 H1611 0.929 . S
C1625 C1624 1.399 . S
C1625 C1626 1.385 . S
C1626 H1612 0.931 . S
C1626 C1625 1.385 . S
C1626 C1627 1.389 . S
C1627 C1626 1.389 . S
C1627 C1628 1.387 . S
C1628 H1613 0.930 . S
C1628 C1623 1.390 . S
C1628 C1627 1.387 . S
H1629 C1641 0.930 . S
H1630 C1643 0.930 . S
H1631 C1644 0.930 . S
H1632 C1648 0.959 . S
H1633 C1648 0.959 . S
H1634 C1648 0.961 . S
H1635 C1649 0.960 . S
H1636 C1649 0.961 1_556 S
H1637 C1649 0.959 . S
H1638 C1652 0.929 . S
H1639 C1653 0.931 . S
H1640 C1655 0.930 . S
C1641 H1629 0.930 . S
C1641 C1642 1.399 . S
C1641 C1646 1.399 . S
C1642 C1641 1.399 . S
C1642 C1643 1.376 . S
C1643 H1630 0.930 . S
C1643 C1642 1.376 . S
C1643 C1644 1.388 . S
C1644 H1631 0.930 . S
C1644 C1643 1.388 . S
C1644 C1645 1.390 . S
C1645 C1644 1.390 . S
C1645 C1646 1.394 . S
C1645 C1651 1.465 . S
C1646 C1641 1.399 . S
C1646 C1645 1.394 . S
C1646 C1647 1.516 . S
C1647 C1646 1.516 . S
C1647 C1648 1.502 . S
C1647 C1649 1.561 . S
C1647 C1650 1.526 . S
C1648 H1632 0.959 . S
C1648 H1633 0.959 . S
C1648 H1634 0.961 . S
C1648 C1647 1.502 . S
C1649 H1635 0.960 . S
C1649 H1636 0.961 1_554 S
C1649 H1637 0.959 . S
C1649 C1647 1.561 . S
C1650 C1647 1.526 . S
C1650 C1651 1.396 . S
C1650 C1655 1.390 . S
C1651 C1645 1.465 . S
C1651 C1650 1.396 . S
C1651 C1652 1.399 . S
C1652 H1638 0.929 . S
C1652 C1651 1.399 . S
C1652 C1653 1.385 . S
C1653 H1639 0.931 . S
C1653 C1652 1.385 . S
C1653 C1654 1.389 . S
C1654 C1653 1.389 . S
C1654 C1655 1.387 . S
C1655 H1640 0.930 . S
C1655 C1650 1.390 . S
C1655 C1654 1.387 . S
H1656 C1668 0.930 . S
H1657 C1670 0.930 . S
H1658 C1671 0.930 . S
H1659 C1675 0.959 . S
H1660 C1675 0.959 . S
H1661 C1675 0.961 . S
H1662 C1676 0.960 . S
H1663 C1676 0.961 . S
H1664 C1676 0.959 . S
H1665 C1679 0.929 . S
H1666 C1680 0.931 . S
H1667 C1682 0.930 . S
C1668 H1656 0.930 . S
C1668 C1669 1.399 . S
C1668 C1673 1.399 . S
C1669 C1668 1.399 . S
C1669 C1670 1.376 . S
C1670 H1657 0.930 . S
C1670 C1669 1.376 . S
C1670 C1671 1.388 . S
C1671 H1658 0.930 . S
C1671 C1670 1.388 . S
C1671 C1672 1.390 . S
C1672 C1671 1.390 . S
C1672 C1673 1.394 . S
C1672 C1678 1.465 . S
C1673 C1668 1.399 . S
C1673 C1672 1.394 . S
C1673 C1674 1.516 . S
C1674 C1673 1.516 . S
C1674 C1675 1.502 . S
C1674 C1676 1.561 . S
C1674 C1677 1.526 . S
C1675 H1659 0.959 . S
C1675 H1660 0.959 . S
C1675 H1661 0.961 . S
C1675 C1674 1.502 . S
C1676 H1662 0.960 . S
C1676 H1663 0.961 . S
C1676 H1664 0.959 . S
C1676 C1674 1.561 . S
C1677 C1674 1.526 . S
C1677 C1678 1.396 . S
C1677 C1682 1.390 . S
C1678 C1672 1.465 . S
C1678 C1677 1.396 . S
C1678 C1679 1.399 . S
C1679 H1665 0.929 . S
C1679 C1678 1.399 . S
C1679 C1680 1.385 . S
C1680 H1666 0.931 . S
C1680 C1679 1.385 . S
C1680 C1681 1.389 . S
C1681 C1680 1.389 . S
C1681 C1682 1.387 . S
C1682 H1667 0.930 . S
C1682 C1677 1.390 . S
C1682 C1681 1.387 . S
H1683 C1695 0.930 . S
H1684 C1697 0.930 1_545 S
H1685 C1698 0.917 1_545 S
H1686 C1702 0.959 . S
H1687 C1702 0.959 . S
H1688 C1702 0.961 . S
H1689 C1703 0.960 . S
H1690 C1703 0.961 . S
H1691 C1703 0.959 . S
H1692 C1706 0.929 . S
H1693 C1707 0.931 . S
H1694 C1709 0.930 . S
C1695 H1683 0.930 . S
C1695 C1696 1.399 . S
C1695 C1700 1.399 . S
C1696 C1695 1.399 . S
C1696 C1697 1.376 . S
C1697 H1684 0.930 1_565 S
C1697 C1696 1.376 . S
C1697 C1698 1.388 . S
C1698 H1685 0.917 1_565 S
C1698 C1697 1.388 . S
C1698 C1699 1.390 . S
C1699 C1698 1.390 . S
C1699 C1700 1.394 . S
C1699 C1705 1.465 . S
C1700 C1695 1.399 . S
C1700 C1699 1.394 . S
C1700 C1701 1.516 . S
C1701 C1700 1.516 . S
C1701 C1702 1.502 . S
C1701 C1703 1.561 . S
C1701 C1704 1.526 . S
C1702 H1686 0.959 . S
C1702 H1687 0.959 . S
C1702 H1688 0.961 . S
C1702 C1701 1.502 . S
C1703 H1689 0.960 . S
C1703 H1690 0.961 . S
C1703 H1691 0.959 . S
C1703 C1701 1.561 . S
C1704 C1701 1.526 . S
C1704 C1705 1.396 . S
C1704 C1709 1.390 . S
C1705 C1699 1.465 . S
C1705 C1704 1.396 . S
C1705 C1706 1.399 . S
C1706 H1692 0.929 . S
C1706 C1705 1.399 . S
C1706 C1707 1.385 . S
C1707 H1693 0.931 . S
C1707 C1706 1.385 . S
C1707 C1708 1.389 . S
C1708 C1707 1.389 . S
C1708 C1709 1.387 . S
C1709 H1694 0.930 . S
C1709 C1704 1.390 . S
C1709 C1708 1.387 . S
H1710 C1722 0.930 . S
H1711 C1724 0.930 . S
H1712 C1725 0.930 . S
H1713 C1729 0.959 . S
H1714 C1729 0.959 . S
H1715 C1729 0.961 . S
H1716 C1730 0.960 . S
H1717 C1730 0.961 . S
H1718 C1730 0.959 . S
H1719 C1733 0.929 . S
H1720 C1734 0.931 . S
H1721 C1736 0.930 . S
C1722 H1710 0.930 . S
C1722 C1723 1.399 . S
C1722 C1727 1.399 . S
C1723 C1722 1.399 . S
C1723 C1724 1.376 . S
C1724 H1711 0.930 . S
C1724 C1723 1.376 . S
C1724 C1725 1.388 . S
C1725 H1712 0.930 . S
C1725 C1724 1.388 . S
C1725 C1726 1.390 . S
C1726 C1725 1.390 . S
C1726 C1727 1.394 . S
C1726 C1732 1.465 . S
C1727 C1722 1.399 . S
C1727 C1726 1.394 . S
C1727 C1728 1.516 . S
C1728 C1727 1.516 . S
C1728 C1729 1.502 . S
C1728 C1730 1.561 . S
C1728 C1731 1.526 . S
C1729 H1713 0.959 . S
C1729 H1714 0.959 . S
C1729 H1715 0.961 . S
C1729 C1728 1.502 . S
C1730 H1716 0.960 . S
C1730 H1717 0.961 . S
C1730 H1718 0.959 . S
C1730 C1728 1.561 . S
C1731 C1728 1.526 . S
C1731 C1732 1.396 . S
C1731 C1736 1.390 . S
C1732 C1726 1.465 . S
C1732 C1731 1.396 . S
C1732 C1733 1.399 . S
C1733 H1719 0.929 . S
C1733 C1732 1.399 . S
C1733 C1734 1.385 . S
C1734 H1720 0.931 . S
C1734 C1733 1.385 . S
C1734 C1735 1.389 . S
C1735 C1734 1.389 . S
C1735 C1736 1.387 . S
C1736 H1721 0.930 . S
C1736 C1731 1.390 . S
C1736 C1735 1.387 . S
H1737 C1749 0.930 . S
H1738 C1751 0.930 . S
H1739 C1752 0.930 . S
H1740 C1756 0.959 . S
H1741 C1756 0.959 . S
H1742 C1756 0.961 . S
H1743 C1757 0.960 . S
H1744 C1757 0.961 . S
H1745 C1757 0.959 . S
H1746 C1760 0.929 . S
H1747 C1761 0.931 . S
H1748 C1763 0.930 . S
C1749 H1737 0.930 . S
C1749 C1750 1.399 . S
C1749 C1754 1.399 . S
C1750 C1749 1.399 . S
C1750 C1751 1.376 . S
C1751 H1738 0.930 . S
C1751 C1750 1.376 . S
C1751 C1752 1.388 . S
C1752 H1739 0.930 . S
C1752 C1751 1.388 . S
C1752 C1753 1.390 . S
C1753 C1752 1.390 . S
C1753 C1754 1.394 . S
C1753 C1759 1.465 . S
C1754 C1749 1.399 . S
C1754 C1753 1.394 . S
C1754 C1755 1.516 . S
C1755 C1754 1.516 . S
C1755 C1756 1.502 . S
C1755 C1757 1.561 . S
C1755 C1758 1.526 . S
C1756 H1740 0.959 . S
C1756 H1741 0.959 . S
C1756 H1742 0.961 . S
C1756 C1755 1.502 . S
C1757 H1743 0.960 . S
C1757 H1744 0.961 . S
C1757 H1745 0.959 . S
C1757 C1755 1.561 . S
C1758 C1755 1.526 . S
C1758 C1759 1.396 . S
C1758 C1763 1.390 . S
C1759 C1753 1.465 . S
C1759 C1758 1.396 . S
C1759 C1760 1.399 . S
C1760 H1746 0.929 . S
C1760 C1759 1.399 . S
C1760 C1761 1.385 . S
C1761 H1747 0.931 . S
C1761 C1760 1.385 . S
C1761 C1762 1.389 . S
C1762 C1761 1.389 . S
C1762 C1763 1.387 . S
C1763 H1748 0.930 . S
C1763 C1758 1.390 . S
C1763 C1762 1.387 . S
H1764 C1776 0.930 . S
H1765 C1778 0.930 . S
H1766 C1779 0.930 . S
H1767 C1783 0.959 . S
H1768 C1783 0.959 . S
H1769 C1783 0.961 . S
H1770 C1784 0.960 . S
H1771 C1784 0.961 . S
H1772 C1784 0.959 . S
H1773 C1787 0.929 . S
H1774 C1788 0.931 . S
H1775 C1790 0.930 . S
C1776 H1764 0.930 . S
C1776 C1777 1.399 . S
C1776 C1781 1.399 . S
C1777 C1776 1.399 . S
C1777 C1778 1.376 . S
C1778 H1765 0.930 . S
C1778 C1777 1.376 . S
C1778 C1779 1.388 . S
C1779 H1766 0.930 . S
C1779 C1778 1.388 . S
C1779 C1780 1.390 . S
C1780 C1779 1.390 . S
C1780 C1781 1.394 . S
C1780 C1786 1.465 . S
C1781 C1776 1.399 . S
C1781 C1780 1.394 . S
C1781 C1782 1.516 . S
C1782 C1781 1.516 . S
C1782 C1783 1.502 . S
C1782 C1784 1.561 . S
C1782 C1785 1.526 . S
C1783 H1767 0.959 . S
C1783 H1768 0.959 . S
C1783 H1769 0.961 . S
C1783 C1782 1.502 . S
C1784 H1770 0.960 . S
C1784 H1771 0.961 . S
C1784 H1772 0.959 . S
C1784 C1782 1.561 . S
C1785 C1782 1.526 . S
C1785 C1786 1.396 . S
C1785 C1790 1.390 . S
C1786 C1780 1.465 . S
C1786 C1785 1.396 . S
C1786 C1787 1.399 . S
C1787 H1773 0.929 . S
C1787 C1786 1.399 . S
C1787 C1788 1.385 . S
C1788 H1774 0.931 . S
C1788 C1787 1.385 . S
C1788 C1789 1.389 . S
C1789 C1788 1.389 . S
C1789 C1790 1.387 . S
C1790 H1775 0.930 . S
C1790 C1785 1.390 . S
C1790 C1789 1.387 . S
H1791 C1803 0.930 . S
H1792 C1805 0.930 . S
H1793 C1806 0.930 . S
H1794 C1810 0.959 . S
H1795 C1810 0.959 1_565 S
H1796 C1810 0.961 . S
H1797 C1811 0.960 1_545 S
H1798 C1811 0.961 . S
H1799 C1811 0.959 . S
H1800 C1814 0.929 . S
H1801 C1815 0.931 . S
H1802 C1817 0.930 . S
C1803 H1791 0.930 . S
C1803 C1804 1.399 . S
C1803 C1808 1.399 . S
C1804 C1803 1.399 . S
C1804 C1805 1.376 . S
C1805 H1792 0.930 . S
C1805 C1804 1.376 . S
C1805 C1806 1.388 . S
C1806 H1793 0.930 . S
C1806 C1805 1.388 . S
C1806 C1807 1.390 . S
C1807 C1806 1.390 . S
C1807 C1808 1.394 . S
C1807 C1813 1.465 1_545 S
C1808 C1803 1.399 . S
C1808 C1807 1.394 . S
C1808 C1809 1.516 . S
C1809 C1808 1.516 . S
C1809 C1810 1.502 . S
C1809 C1811 1.561 1_545 S
C1809 C1812 1.526 1_545 S
C1810 H1794 0.959 . S
C1810 H1795 0.959 1_545 S
C1810 H1796 0.961 . S
C1810 C1809 1.502 . S
C1811 H1797 0.960 1_565 S
C1811 H1798 0.961 . S
C1811 H1799 0.959 . S
C1811 C1809 1.561 1_565 S
C1812 C1809 1.526 1_565 S
C1812 C1813 1.396 . S
C1812 C1817 1.390 . S
C1813 C1807 1.465 1_565 S
C1813 C1812 1.396 . S
C1813 C1814 1.399 . S
C1814 H1800 0.929 . S
C1814 C1813 1.399 . S
C1814 C1815 1.385 . S
C1815 H1801 0.931 . S
C1815 C1814 1.385 . S
C1815 C1816 1.389 . S
C1816 C1815 1.389 . S
C1816 C1817 1.387 . S
C1817 H1802 0.930 . S
C1817 C1812 1.390 . S
C1817 C1816 1.387 . S
H1818 C1830 0.930 . S
H1819 C1832 0.930 . S
H1820 C1833 0.930 . S
H1821 C1837 0.959 . S
H1822 C1837 0.959 . S
H1823 C1837 0.961 . S
H1824 C1838 0.960 . S
H1825 C1838 0.961 . S
H1826 C1838 0.959 . S
H1827 C1841 0.929 . S
H1828 C1842 0.931 . S
H1829 C1844 0.930 . S
C1830 H1818 0.930 . S
C1830 C1831 1.399 . S
C1830 C1835 1.399 . S
C1831 C1830 1.399 . S
C1831 C1832 1.376 . S
C1832 H1819 0.930 . S
C1832 C1831 1.376 . S
C1832 C1833 1.388 . S
C1833 H1820 0.930 . S
C1833 C1832 1.388 . S
C1833 C1834 1.390 . S
C1834 C1833 1.390 . S
C1834 C1835 1.394 . S
C1834 C1840 1.465 . S
C1835 C1830 1.399 . S
C1835 C1834 1.394 . S
C1835 C1836 1.516 . S
C1836 C1835 1.516 . S
C1836 C1837 1.502 . S
C1836 C1838 1.561 . S
C1836 C1839 1.526 . S
C1837 H1821 0.959 . S
C1837 H1822 0.959 . S
C1837 H1823 0.961 . S
C1837 C1836 1.502 . S
C1838 H1824 0.960 . S
C1838 H1825 0.961 . S
C1838 H1826 0.959 . S
C1838 C1836 1.561 . S
C1839 C1836 1.526 . S
C1839 C1840 1.396 . S
C1839 C1844 1.390 1_455 S
C1840 C1834 1.465 . S
C1840 C1839 1.396 . S
C1840 C1841 1.399 . S
C1841 H1827 0.929 . S
C1841 C1840 1.399 . S
C1841 C1842 1.385 1_455 S
C1842 H1828 0.931 . S
C1842 C1841 1.385 1_655 S
C1842 C1843 1.389 . S
C1843 C1842 1.389 . S
C1843 C1844 1.387 . S
C1844 H1829 0.930 . S
C1844 C1839 1.390 1_655 S
C1844 C1843 1.387 . S
H1845 C1857 0.930 . S
H1846 C1859 0.930 . S
H1847 C1860 0.930 . S
H1848 C1864 0.959 . S
H1849 C1864 0.959 . S
H1850 C1864 0.961 . S
H1851 C1865 0.960 . S
H1852 C1865 0.961 . S
H1853 C1865 0.959 . S
H1854 C1868 0.929 . S
H1855 C1869 0.931 . S
H1856 C1871 0.930 . S
C1857 H1845 0.930 . S
C1857 C1858 1.399 . S
C1857 C1862 1.399 . S
C1858 C1857 1.399 . S
C1858 C1859 1.376 . S
C1859 H1846 0.930 . S
C1859 C1858 1.376 . S
C1859 C1860 1.388 . S
C1860 H1847 0.930 . S
C1860 C1859 1.388 . S
C1860 C1861 1.390 . S
C1861 C1860 1.390 . S
C1861 C1862 1.394 . S
C1861 C1867 1.465 . S
C1862 C1857 1.399 . S
C1862 C1861 1.394 . S
C1862 C1863 1.516 . S
C1863 C1862 1.516 . S
C1863 C1864 1.502 . S
C1863 C1865 1.561 . S
C1863 C1866 1.526 . S
C1864 H1848 0.959 . S
C1864 H1849 0.959 . S
C1864 H1850 0.961 . S
C1864 C1863 1.502 . S
C1865 H1851 0.960 . S
C1865 H1852 0.961 . S
C1865 H1853 0.959 . S
C1865 C1863 1.561 . S
C1866 C1863 1.526 . S
C1866 C1867 1.396 . S
C1866 C1871 1.390 . S
C1867 C1861 1.465 . S
C1867 C1866 1.396 . S
C1867 C1868 1.399 . S
C1868 H1854 0.929 . S
C1868 C1867 1.399 . S
C1868 C1869 1.385 . S
C1869 H1855 0.931 . S
C1869 C1868 1.385 . S
C1869 C1870 1.389 . S
C1870 C1869 1.389 . S
C1870 C1871 1.387 . S
C1871 H1856 0.930 . S
C1871 C1866 1.390 . S
C1871 C1870 1.387 . S
H1872 C1884 0.930 . S
H1873 C1886 0.930 . S
H1874 C1887 0.930 . S
H1875 C1891 0.959 . S
H1876 C1891 0.959 . S
H1877 C1891 0.961 . S
H1878 C1892 0.960 . S
H1879 C1892 0.961 . S
H1880 C1892 0.959 . S
H1881 C1895 0.929 . S
H1882 C1896 0.931 . S
H1883 C1898 0.925 1_565 S
C1884 H1872 0.930 . S
C1884 C1885 1.399 . S
C1884 C1889 1.399 . S
C1885 C1884 1.399 . S
C1885 C1886 1.376 . S
C1886 H1873 0.930 . S
C1886 C1885 1.376 . S
C1886 C1887 1.388 . S
C1887 H1874 0.930 . S
C1887 C1886 1.388 . S
C1887 C1888 1.390 . S
C1888 C1887 1.390 . S
C1888 C1889 1.394 . S
C1888 C1894 1.465 . S
C1889 C1884 1.399 . S
C1889 C1888 1.394 . S
C1889 C1890 1.516 . S
C1890 C1889 1.516 . S
C1890 C1891 1.502 . S
C1890 C1892 1.561 . S
C1890 C1893 1.526 . S
C1891 H1875 0.959 . S
C1891 H1876 0.959 . S
C1891 H1877 0.961 . S
C1891 C1890 1.502 . S
C1892 H1878 0.960 . S
C1892 H1879 0.961 . S
C1892 H1880 0.959 . S
C1892 C1890 1.561 . S
C1893 C1890 1.526 . S
C1893 C1894 1.396 . S
C1893 C1898 1.409 . S
C1894 C1888 1.465 . S
C1894 C1893 1.396 . S
C1894 C1895 1.399 . S
C1895 H1881 0.929 . S
C1895 C1894 1.399 . S
C1895 C1896 1.385 1_545 S
C1896 H1882 0.931 . S
C1896 C1895 1.385 1_565 S
C1896 C1897 1.389 . S
C1897 C1896 1.389 . S
C1897 C1898 1.372 1_565 S
C1898 H1883 0.925 1_545 S
C1898 C1893 1.409 . S
C1898 C1897 1.372 1_545 S
H1899 C1911 0.930 . S
H1900 C1913 0.930 . S
H1901 C1914 0.930 . S
H1902 C1918 0.959 . S
H1903 C1918 0.959 . S
H1904 C1918 0.961 1_455 S
H1905 C1919 0.960 . S
H1906 C1919 0.961 1_655 S
H1907 C1919 0.959 . S
H1908 C1922 0.929 . S
H1909 C1923 0.931 . S
H1910 C1925 0.930 . S
C1911 H1899 0.930 . S
C1911 C1912 1.399 . S
C1911 C1916 1.399 . S
C1912 C1911 1.399 . S
C1912 C1913 1.376 . S
C1913 H1900 0.930 . S
C1913 C1912 1.376 . S
C1913 C1914 1.388 . S
C1914 H1901 0.930 . S
C1914 C1913 1.388 . S
C1914 C1915 1.390 . S
C1915 C1914 1.390 . S
C1915 C1916 1.394 . S
C1915 C1921 1.465 1_455 S
C1916 C1911 1.399 . S
C1916 C1915 1.394 . S
C1916 C1917 1.516 . S
C1917 C1916 1.516 . S
C1917 C1918 1.502 1_455 S
C1917 C1919 1.561 . S
C1917 C1920 1.526 1_455 S
C1918 H1902 0.959 . S
C1918 H1903 0.959 . S
C1918 H1904 0.961 1_655 S
C1918 C1917 1.502 1_655 S
C1919 H1905 0.960 . S
C1919 H1906 0.961 1_455 S
C1919 H1907 0.959 . S
C1919 C1917 1.561 . S
C1920 C1917 1.526 1_655 S
C1920 C1921 1.396 . S
C1920 C1925 1.390 . S
C1921 C1915 1.465 1_655 S
C1921 C1920 1.396 . S
C1921 C1922 1.399 . S
C1922 H1908 0.929 . S
C1922 C1921 1.399 . S
C1922 C1923 1.385 . S
C1923 H1909 0.931 . S
C1923 C1922 1.385 . S
C1923 C1924 1.389 . S
C1924 C1923 1.389 . S
C1924 C1925 1.387 . S
C1925 H1910 0.930 . S
C1925 C1920 1.390 . S
C1925 C1924 1.387 . S
C967 C250 1.960 1_455 S
C979 C38 1.960 . S
C994 C304 1.962 . S
C1006 C92 1.963 . S
C1021 C144 1.134 . S
C1033 C188 1.138 . S
C1048 C251 1.929 . S
C1060 C39 1.928 1_455 S
C1075 C303 1.927 . S
C1087 C91 1.926 . S
C1102 C145 1.095 . S
C1114 C181 1.100 . S
C1129 C569 1.923 . S
C1141 C356 1.924 . S
C1156 C622 1.918 . S
C1168 C409 1.921 . S
C1183 C462 1.923 . S
C1195 C516 1.919 . S
C1210 C357 1.975 . S
C1222 C568 1.974 . S
C1237 C621 1.974 . S
C1249 C410 1.976 . S
C1264 C515 1.973 . S
C1276 C463 1.971 . S
C1291 C887 1.130 . S
C1303 C665 1.130 . S
C1318 C711 1.131 . S
C1330 C939 1.125 . S
C1345 C824 0.336 . S
C1357 C764 0.318 . S
C1372 C886 1.106 . S
C1384 C658 1.110 . S
C1399 C940 1.102 . S
C1411 C718 1.107 . S
C1426 C771 0.304 . S
C1438 C817 0.310 . S
C1453 C22 1.515 . S
C1465 C506 1.535 . S
C1480 C559 1.503 . S
C1492 C82 1.493 . S
C1507 C612 1.499 . S
C1519 C128 1.493 . S
C1534 C198 1.522 . S
C1546 C675 1.508 . S
C1561 C727 1.511 . S
C1573 C234 1.499 . S
C1588 C780 1.497 . S
C1600 C294 1.501 . S
C1615 C833 1.533 . S
C1627 C29 1.536 . S
C1642 C870 1.500 . S
C1654 C75 1.510 . S
C1669 C930 1.496 . S
C1681 C135 1.494 . S
C1696 C197 1.510 . S
C1708 C347 1.529 . S
C1723 C241 1.505 . S
C1735 C400 1.498 . S
C1750 C453 1.503 . S
C1762 C287 1.507 . S
C1777 C834 1.504 . S
C1789 C340 1.499 . S
C1804 C877 1.531 . S
C1816 C393 1.512 . S
C1831 C446 1.503 . S
C1843 C923 1.502 . S
C1858 C674 1.495 . S
C1870 C499 1.493 . S
C1885 C728 1.499 . S
C1897 C552 1.506 . S
C1912 C605 1.507 . S
C1924 C781 1.501 . S
