# Generated by pormake.
# Topology rac, (4)-cn, num edge types: 1
# Building blocks:
#     Node 0, Type 0, BuildingBlock: TATPOV_clean_sbu_0, # of connection points: 4
#     Node 1, Type 0, BuildingBlock: TATPOV_clean_sbu_0, # of connection points: 4
#     Node 2, Type 0, BuildingBlock: TATPOV_clean_sbu_0, # of connection points: 4
#     Node 3, Type 0, BuildingBlock: TATPOV_clean_sbu_0, # of connection points: 4
#     Node 4, Type 0, BuildingBlock: TATPOV_clean_sbu_0, # of connection points: 4
#     Node 5, Type 0, BuildingBlock: TATPOV_clean_sbu_0, # of connection points: 4
#     Node 6, Type 0, BuildingBlock: TATPOV_clean_sbu_0, # of connection points: 4
#     Node 7, Type 0, BuildingBlock: TATPOV_clean_sbu_0, # of connection points: 4
#     Edge 8, Type (0, 0), BuildingBlock: CIFDUS_clean_linker_0, # of connection points: 2
#     Edge 9, Type (0, 0), BuildingBlock: CIFDUS_clean_linker_0, # of connection points: 2
#     Edge 10, Type (0, 0), BuildingBlock: CIFDUS_clean_linker_0, # of connection points: 2
#     Edge 11, Type (0, 0), BuildingBlock: CIFDUS_clean_linker_0, # of connection points: 2
#     Edge 12, Type (0, 0), BuildingBlock: CIFDUS_clean_linker_0, # of connection points: 2
#     Edge 13, Type (0, 0), BuildingBlock: CIFDUS_clean_linker_0, # of connection points: 2
#     Edge 14, Type (0, 0), BuildingBlock: CIFDUS_clean_linker_0, # of connection points: 2
#     Edge 15, Type (0, 0), BuildingBlock: CIFDUS_clean_linker_0, # of connection points: 2
#     Edge 16, Type (0, 0), BuildingBlock: CIFDUS_clean_linker_0, # of connection points: 2
#     Edge 17, Type (0, 0), BuildingBlock: CIFDUS_clean_linker_0, # of connection points: 2
#     Edge 18, Type (0, 0), BuildingBlock: CIFDUS_clean_linker_0, # of connection points: 2
#     Edge 19, Type (0, 0), BuildingBlock: CIFDUS_clean_linker_0, # of connection points: 2
#     Edge 20, Type (0, 0), BuildingBlock: CIFDUS_clean_linker_0, # of connection points: 2
#     Edge 21, Type (0, 0), BuildingBlock: CIFDUS_clean_linker_0, # of connection points: 2
#     Edge 22, Type (0, 0), BuildingBlock: CIFDUS_clean_linker_0, # of connection points: 2
#     Edge 23, Type (0, 0), BuildingBlock: CIFDUS_clean_linker_0, # of connection points: 2
# Relax obj value: 0.267
# Max RMSD: 0.122
# Mean RMSD: 0.122
data_MOF--net-rac--node1-TATPOV_clean_sbu_0--edge1-CIFDUS_clean_linker_0
_symmetry_space_group_name_H-M    P1
_symmetry_Int_Tables_number       1
_symmetry_cell_setting            triclinic
loop_
_symmetry_equiv_pos_as_xyz
'x, y, z'
_cell_length_a     33.055683
_cell_length_b     18.878884
_cell_length_c     38.28572
_cell_angle_alpha  89.675348
_cell_angle_beta   89.918443
_cell_angle_gamma 89.74966
loop_
_atom_site_label
_atom_site_type_symbol
_atom_site_fract_x
_atom_site_fract_y
_atom_site_fract_z
_atom_type_partial_charge
Zn0 Zn 0.36521 0.20766 0.01727 0.0
Zn1 Zn 0.37293 0.21505 0.08368 0.0
O2 O 0.41896 0.27691 0.06219 0.0
O3 O 0.41282 0.26988 1.00518 0.0
O4 O 0.38536 0.20705 0.13527 0.0
O5 O 0.36089 0.10149 0.01306 0.0
O6 O 0.35205 0.11571 0.06936 0.0
C7 C 0.42981 0.29661 0.0316 0.0
C8 C 0.30115 0.28369 0.05472 0.0
O9 O 0.32313 0.27478 0.08158 0.0
O10 O 0.31195 0.25873 0.02546 0.0
C11 C 0.38462 0.26239 0.15408 0.0
O12 O 0.37758 0.32401 0.13909 0.0
C13 C 0.34847 0.07762 0.04212 0.0
Zn14 Zn 0.11374 0.7112 0.02966 0.0
Zn15 Zn 0.09897 0.71806 0.0934 0.0
O16 O 0.05072 0.67375 0.06533 0.0
O17 O 0.05808 0.70027 1.00984 0.0
O18 O 0.07869 0.73401 0.14266 0.0
O19 O 0.14904 0.79645 0.02501 0.0
O20 O 0.13568 0.80552 0.08103 0.0
C21 C 0.038 0.67033 0.03386 0.0
C22 C 0.14913 0.59971 0.07398 0.0
O23 O 0.13701 0.63656 0.09955 0.0
O24 O 0.14157 0.61911 0.04289 0.0
C25 C 0.06509 0.68078 0.15944 0.0
O26 O 0.06204 0.61988 0.14321 0.0
C27 C 0.15469 0.82708 0.05386 0.0
Zn28 Zn 0.32947 0.18034 0.48612 0.0
Zn29 Zn 0.34587 0.1912 0.42321 0.0
O30 O 0.39288 0.1442 0.45232 0.0
O31 O 0.38446 0.17096 0.50755 0.0
O32 O 0.36789 0.21283 0.37502 0.0
O33 O 0.2922 0.26317 0.49117 0.0
O34 O 0.3078 0.27682 0.43578 0.0
C35 C 0.40482 0.14022 0.48403 0.0
C36 C 0.29782 0.07001 0.43958 0.0
O37 O 0.3091 0.10961 0.41459 0.0
O38 O 0.30454 0.08753 0.47096 0.0
C39 C 0.38159 0.16197 0.35676 0.0
O40 O 0.38403 0.09856 0.37096 0.0
C41 C 0.28743 0.29594 0.46258 0.0
Zn42 Zn 0.08563 0.68396 0.50012 0.0
Zn43 Zn 0.07419 0.69406 0.43365 0.0
O44 O 0.03009 0.75766 0.45685 0.0
O45 O 0.04038 0.75057 0.51347 0.0
O46 O 0.06062 0.69189 0.38211 0.0
O47 O 0.08577 0.57747 0.50335 0.0
O48 O 0.09245 0.59197 0.44675 0.0
C49 C 0.02176 0.77795 0.48784 0.0
C50 C 0.14963 0.75402 0.46053 0.0
O51 O 0.12557 0.74882 0.43486 0.0
O52 O 0.14016 0.72872 0.49016 0.0
C53 C 0.06176 0.74979 0.36494 0.0
O54 O 0.06939 0.80878 0.38171 0.0
C55 C 0.09594 0.5529 0.4739 0.0
Zn56 Zn 0.59566 0.76447 0.99982 0.0
Zn57 Zn 0.58043 0.76924 0.93508 0.0
O58 O 0.53911 0.69721 0.95657 0.0
O59 O 0.55349 0.69189 0.01252 0.0
O60 O 0.56198 0.79079 0.8858 0.0
O61 O 0.59447 0.86825 0.0116 0.0
O62 O 0.60013 0.86604 0.95456 0.0
C63 C 0.53351 0.66937 0.98672 0.0
C64 C 0.65817 0.70814 0.95235 0.0
O65 O 0.63191 0.71529 0.92842 0.0
O66 O 0.65032 0.72739 0.98334 0.0
C67 C 0.55983 0.7415 0.86336 0.0
O68 O 0.56705 0.67597 0.87339 0.0
C69 C 0.6042 0.89898 0.98337 0.0
Zn70 Zn 0.82761 0.29019 0.99796 0.0
Zn71 Zn 0.85172 0.26579 0.93711 0.0
O72 O 0.89649 0.31616 0.96702 0.0
O73 O 0.8807 0.30244 0.02237 0.0
O74 O 0.87758 0.23192 0.89224 0.0
O75 O 0.79025 0.2076 1.00427 0.0
O76 O 0.81304 0.18315 0.95182 0.0
C77 C 0.90464 0.32599 0.99929 0.0
C78 C 0.80235 0.39023 0.94243 0.0
O79 O 0.81616 0.34544 0.92093 0.0
O80 O 0.80531 0.37952 0.97507 0.0
C81 C 0.88963 0.27634 0.86941 0.0
O82 O 0.88881 0.34415 0.87696 0.0
C83 C 0.78971 0.16865 0.97753 0.0
Zn84 Zn 0.60582 0.74646 0.51989 0.0
Zn85 Zn 0.59189 0.74421 0.58458 0.0
O86 O 0.54306 0.78553 0.55631 0.0
O87 O 0.54909 0.75427 0.50143 0.0
O88 O 0.57241 0.72389 0.63376 0.0
O89 O 0.64238 0.66122 0.51707 0.0
O90 O 0.62912 0.65753 0.57323 0.0
C91 C 0.5296 0.78654 0.52503 0.0
C92 C 0.63804 0.86437 0.56194 0.0
O93 O 0.62791 0.82862 0.58873 0.0
O94 O 0.63093 0.8414 0.5315 0.0
C95 C 0.56438 0.77258 0.65558 0.0
O96 O 0.56619 0.83903 0.64533 0.0
C97 C 0.64796 0.63304 0.54674 0.0
Zn98 Zn 0.85179 0.23331 0.5301 0.0
Zn99 Zn 0.86955 0.24208 0.59256 0.0
O100 O 0.91188 0.17292 0.56921 0.0
O101 O 0.89577 0.16912 0.51363 0.0
O102 O 0.89133 0.2679 0.64016 0.0
O103 O 0.84551 0.33465 0.51581 0.0
O104 O 0.84346 0.33634 0.57305 0.0
C105 C 0.91733 0.14704 0.5387 0.0
C106 C 0.79586 0.16614 0.58051 0.0
O107 O 0.82191 0.18103 0.60358 0.0
O108 O 0.80137 0.18503 0.549 0.0
C109 C 0.89538 0.22065 0.66374 0.0
O110 O 0.8882 0.15425 0.65583 0.0
C111 C 0.83627 0.36645 0.54369 0.0
H112 H 0.29227 0.04582 0.0919 0.0
H113 H 0.33801 0.97636 0.99206 0.0
H114 H 0.28099 0.89528 0.98641 0.0
H115 H 0.21618 0.84956 1.00797 0.0
H116 H 0.16995 0.91888 0.10763 0.0
H117 H 0.22874 -0.00404 0.11474 0.0
C118 C 0.29039 0.01178 0.06924 0.0
C119 C 0.31974 0.0171 0.0425 0.0
C120 C 0.25678 0.96679 0.06565 0.0
C121 C 0.31619 0.97318 0.01314 0.0
C122 C 0.28329 0.92733 1.00972 0.0
C123 C 0.21861 0.88208 0.03113 0.0
C124 C 0.18816 0.87919 0.05698 0.0
C125 C 0.25291 0.92504 0.03538 0.0
C126 C 0.19254 0.92063 0.08712 0.0
C127 C 0.22635 0.96429 0.09132 0.0
H128 H 0.1519 0.52086 0.4242 0.0
H129 H 0.10346 0.44695 0.52255 0.0
H130 H 0.1594 0.36252 0.52806 0.0
H131 H 0.22451 0.31615 0.50723 0.0
H132 H 0.27372 0.39098 0.40934 0.0
H133 H 0.21541 0.46998 0.40183 0.0
C134 C 0.15289 0.48504 0.44643 0.0
C135 C 0.1232 0.49011 0.47286 0.0
C136 C 0.18598 0.43838 0.45005 0.0
C137 C 0.1256 0.44394 0.50172 0.0
C138 C 0.15789 0.39622 0.50508 0.0
C139 C 0.22278 0.3502 0.48436 0.0
C140 C 0.25395 0.3484 0.45916 0.0
C141 C 0.18883 0.39446 0.47992 0.0
C142 C 0.25054 0.39186 0.42937 0.0
C143 C 0.21701 0.43664 0.42493 0.0
H144 H 0.66125 0.93689 0.93604 0.0
H145 H 0.60996 -0.00161 0.03508 0.0
H146 H 0.66378 0.08578 0.04254 0.0
H147 H 0.72735 0.14009 0.0223 0.0
H148 H 0.77979 0.07418 0.92429 0.0
H149 H 0.72403 -0.00818 0.91555 0.0
C150 C 0.66118 0.97053 0.95891 0.0
C151 C 0.63114 0.9617 0.98476 0.0
C152 C 0.69311 0.01849 0.96368 0.0
C153 C 0.63234 0.00464 0.0146 0.0
C154 C 0.66339 0.05405 0.01905 0.0
C155 C 0.72687 0.10728 0.99915 0.0
C156 C 0.75811 0.11315 0.97413 0.0
C157 C 0.69442 0.06035 0.9941 0.0
C158 C 0.75651 0.07057 0.94415 0.0
C159 C 0.7244 0.02379 0.93898 0.0
H160 H 0.70822 0.59916 0.50117 0.0
H161 H 0.66206 0.54792 0.6037 0.0
H162 H 0.71908 0.46723 0.61346 0.0
H163 H 0.78122 0.40896 0.59228 0.0
H164 H 0.82666 0.45948 0.48945 0.0
H165 H 0.77143 0.54427 0.48088 0.0
C166 C 0.71033 0.56985 0.52555 0.0
C167 C 0.68046 0.57904 0.55148 0.0
C168 C 0.74359 0.52447 0.53123 0.0
C169 C 0.68428 0.54147 0.58314 0.0
C170 C 0.71709 0.49566 0.58884 0.0
C171 C 0.77964 0.43977 0.56832 0.0
C172 C 0.80837 0.42825 0.54166 0.0
C173 C 0.74701 0.48689 0.56312 0.0
C174 C 0.80523 0.46765 0.5105 0.0
C175 C 0.77338 0.51563 0.50544 0.0
H176 H 0.40225 0.1451 0.19319 0.0
H177 H 0.37424 0.36789 0.2018 0.0
H178 H 0.37362 0.35769 0.26533 0.0
H179 H 0.37642 0.284 0.3184 0.0
H180 H 0.40434 0.06115 0.30974 0.0
H181 H 0.40996 0.07325 0.24648 0.0
C182 C 0.39632 0.19157 0.20895 0.0
C183 C 0.38793 0.25699 0.19264 0.0
C184 C 0.39586 0.18536 0.24556 0.0
C185 C 0.38063 0.31675 0.21355 0.0
C186 C 0.38019 0.31099 0.24996 0.0
C187 C 0.38415 0.23819 0.30274 0.0
C188 C 0.38957 0.17166 0.31888 0.0
C189 C 0.38708 0.24533 0.26624 0.0
C190 C 0.39981 0.113 0.2981 0.0
C191 C 0.40293 0.11977 0.26184 0.0
H192 H 0.04416 0.63902 0.32213 0.0
H193 H 0.07252 0.86202 0.32069 0.0
H194 H 0.07354 0.86158 0.25701 0.0
H195 H 0.07081 0.79636 0.20169 0.0
H196 H 0.04241 0.57336 0.20315 0.0
H197 H 0.03667 0.57571 0.26662 0.0
C198 C 0.05024 0.68767 0.3079 0.0
C199 C 0.05859 0.75026 0.32628 0.0
C200 C 0.05093 0.68711 0.27117 0.0
C201 C 0.06612 0.81292 0.30733 0.0
C202 C 0.0668 0.81277 0.27084 0.0
C203 C 0.06297 0.74841 0.21584 0.0
C204 C 0.05742 0.68469 0.19758 0.0
C205 C 0.05992 0.74993 0.25248 0.0
C206 C 0.04706 0.62317 0.21643 0.0
C207 C 0.04385 0.62434 0.25281 0.0
H208 H 0.55724 0.6494 0.80896 0.0
H209 H 0.54979 0.87216 0.83316 0.0
H210 H 0.54754 0.90107 0.77095 0.0
H211 H 0.55278 0.86375 0.7097 0.0
H212 H 0.56148 0.64101 0.68568 0.0
H213 H 0.55783 0.61168 0.74773 0.0
C214 C 0.55472 0.70428 0.80069 0.0
C215 C 0.55403 0.75849 0.82579 0.0
C216 C 0.55388 0.72066 0.76484 0.0
C217 C 0.55055 0.82928 0.81449 0.0
C218 C 0.54936 0.84594 0.77887 0.0
C219 C 0.55346 0.80873 0.71797 0.0
C220 C 0.55775 0.75477 0.69297 0.0
C221 C 0.55178 0.79215 0.7538 0.0
C222 C 0.55841 0.68374 0.70427 0.0
C223 C 0.5564 0.66685 0.73981 0.0
H224 H 0.89739 0.13445 0.72101 0.0
H225 H 0.90919 0.35331 0.68943 0.0
H226 H 0.91257 0.38897 0.75053 0.0
H227 H 0.90582 0.35935 0.81276 0.0
H228 H 0.89176 0.14091 0.84431 0.0
H229 H 0.89611 0.10389 0.78343 0.0
C230 C 0.90121 0.1899 0.72742 0.0
C231 C 0.90262 0.24114 0.70057 0.0
C232 C 0.9025 0.21024 0.76267 0.0
C233 C 0.90776 0.31271 0.70949 0.0
C234 C 0.90961 0.33322 0.74447 0.0
C235 C 0.90426 0.30352 0.80643 0.0
C236 C 0.89807 0.25312 0.83314 0.0
C237 C 0.90605 0.28264 0.77127 0.0
C238 C 0.89627 0.18097 0.82434 0.0
C239 C 0.89864 0.15971 0.78947 0.0
H240 H 0.4355 0.38312 0.97459 0.0
H241 H 0.48037 0.35648 0.07967 0.0
H242 H 0.51425 0.47118 0.07573 0.0
H243 H 0.52969 0.58038 0.04308 0.0
H244 H 0.48398 0.60778 0.93828 0.0
H245 H 0.4511 0.49223 0.94188 0.0
C246 C 0.45329 0.40167 0.99645 0.0
C247 C 0.45572 0.36046 0.02728 0.0
C248 C 0.47177 0.46869 0.99436 0.0
C249 C 0.47826 0.38646 0.05553 0.0
C250 C 0.49736 0.45245 0.05339 0.0
C251 C 0.51212 0.56167 0.02112 0.0
C252 C 0.50911 0.60348 0.99052 0.0
C253 C 0.49384 0.49448 0.02314 0.0
C254 C 0.4866 0.5774 0.96226 0.0
C255 C 0.46804 0.51092 0.96419 0.0
H256 H 0.01367 0.5559 0.07203 0.0
H257 H -0.00432 0.66066 0.97275 0.0
H258 H 0.95633 0.5599 0.95212 0.0
H259 H 0.92842 0.44071 0.96165 0.0
H260 H 0.9454 0.33654 0.06112 0.0
H261 H -0.01517 0.43738 0.08188 0.0
C262 C 0.00042 0.55749 0.04613 0.0
C263 C 0.00733 0.61645 0.02413 0.0
C264 C -0.0213 0.49841 0.03407 0.0
C265 C -0.00945 0.61653 0.99039 0.0
C266 C 0.96842 0.55849 0.97842 0.0
C267 C 0.94152 0.43932 0.98761 0.0
C268 C 0.93467 0.38034 1.00956 0.0
C269 C 0.96293 0.4986 0.99979 0.0
C270 C 0.95079 0.38063 0.04351 0.0
C271 C 0.97293 0.43868 0.05552 0.0
H272 H 0.51092 0.90741 0.55978 0.0
H273 H 0.48419 0.79338 0.46528 0.0
H274 H 0.44664 0.8959 0.44276 0.0
H275 H 0.42284 0.0189 0.44933 0.0
H276 H 0.44974 0.13267 0.54385 0.0
H277 H 0.48704 0.02999 0.56642 0.0
C278 C 0.49612 0.90421 0.53457 0.0
C279 C 0.49989 0.84205 0.5145 0.0
C280 C 0.47576 0.9642 0.52131 0.0
C281 C 0.48133 0.83997 0.4815 0.0
C282 C 0.46028 0.89896 0.46843 0.0
C283 C 0.43764 0.02191 0.47454 0.0
C284 C 0.43406 0.0841 0.49461 0.0
C285 C 0.45792 0.96179 0.48783 0.0
C286 C 0.4525 0.08603 0.52765 0.0
C287 C 0.47341 0.02698 0.54074 0.0
H288 H 0.92115 0.06292 0.48126 0.0
H289 H 0.96931 0.08368 0.58545 0.0
H290 H 0.0032 0.9688 0.57981 0.0
H291 H 0.01826 0.86163 0.54565 0.0
H292 H 0.96995 0.84159 0.44148 0.0
H293 H 0.93612 0.95631 0.44723 0.0
C294 C 0.9395 0.04301 0.50265 0.0
C295 C 0.94287 0.08262 0.53368 0.0
C296 C 0.95814 0.97619 0.49953 0.0
C297 C 0.96641 0.05499 0.56116 0.0
C298 C -0.01448 -0.01111 0.55806 0.0
C299 C -0.0002 0.88169 0.52436 0.0
C300 C -0.00365 0.8423 0.49326 0.0
C301 C -0.01883 0.94862 0.52753 0.0
C302 C 0.97287 0.87015 0.4658 0.0
C303 C 0.95379 0.93614 0.46897 0.0
H304 H 0.15774 0.49211 0.02931 0.0
H305 H 0.19299 0.56274 0.13182 0.0
H306 H 0.24016 0.4629 0.13698 0.0
H307 H 0.27728 0.36601 0.10877 0.0
H308 H 0.24315 0.29992 1.00504 0.0
H309 H 0.18897 0.38758 1.00412 0.0
C310 C 0.17554 0.48533 0.0529 0.0
C311 C 0.17288 0.53518 0.07977 0.0
C312 C 0.20277 0.42909 0.05536 0.0
C313 C 0.19506 0.52508 0.11064 0.0
C314 C 0.22204 0.46831 0.11353 0.0
C315 C 0.25756 0.37003 0.08621 0.0
C316 C 0.26467 0.32786 0.05672 0.0
C317 C 0.22708 0.42151 0.08552 0.0
C318 C 0.23868 0.33286 0.02781 0.0
C319 C 0.20773 0.38288 0.02723 0.0
H320 H 0.29477 0.95662 0.48164 0.0
H321 H 0.25242 0.03673 0.38239 0.0
H322 H 0.20637 0.93603 0.3773 0.0
H323 H 0.17109 0.83756 0.40592 0.0
H324 H 0.21158 0.76288 0.50696 0.0
H325 H 0.26618 0.84902 0.50626 0.0
C326 C 0.27575 0.95156 0.4587 0.0
C327 C 0.27585 0.00446 0.43291 0.0
C328 C 0.24901 0.89503 0.45644 0.0
C329 C 0.25222 -0.00331 0.40278 0.0
C330 C 0.22588 0.93947 0.39995 0.0
C331 C 0.19233 0.83923 0.42747 0.0
C332 C 0.1868 0.79545 0.45686 0.0
C333 C 0.22288 0.89011 0.42736 0.0
C334 C 0.2148 0.79725 0.48438 0.0
C335 C 0.24597 0.84641 0.48403 0.0
H336 H 0.673 0.61299 0.9012 0.0
H337 H 0.72804 0.71862 0.98874 0.0
H338 H 0.78397 0.63423 0.9881 0.0
H339 H 0.80833 0.51764 0.97123 0.0
H340 H 0.75149 0.40598 0.88674 0.0
H341 H 0.70538 0.50631 0.87694 0.0
C342 C 0.69788 0.61862 0.91941 0.0
C343 C 0.69609 0.67027 0.94561 0.0
C344 C 0.7291 0.56832 0.91975 0.0
C345 C 0.72852 0.67792 0.96889 0.0
C346 C 0.7604 0.62976 0.96859 0.0
C347 C 0.78635 0.51616 0.9502 0.0
C348 C 0.78212 0.45466 0.93035 0.0
C349 C 0.7596 0.57255 0.94554 0.0
C350 C 0.75463 0.45309 0.90253 0.0
C351 C 0.72822 0.51007 0.89712 0.0
H352 H 0.685 0.90921 0.61553 0.0
H353 H 0.63447 0.97347 0.5163 0.0
H354 H 0.67391 0.08191 0.51727 0.0
H355 H 0.72952 0.1483 0.54149 0.0
H356 H 0.78532 0.08091 0.638 0.0
H357 H 0.73609 -0.01502 0.64363 0.0
C358 C 0.68226 0.94768 0.59451 0.0
C359 C 0.65781 0.93309 0.56553 0.0
C360 C 0.70595 0.00902 0.59471 0.0
C361 C 0.654 -0.01685 0.53847 0.0
C362 C 0.67633 0.04519 0.53905 0.0
C363 C 0.73056 0.1133 0.56406 0.0
C364 C 0.76143 0.12023 0.5888 0.0
C365 C 0.70353 0.0571 0.5663 0.0
C366 C 0.76192 0.0759 0.6184 0.0
C367 C 0.73404 0.0208 0.62148 0.0
loop_
_geom_bond_atom_site_label_1
_geom_bond_atom_site_label_2
_geom_bond_distance
_geom_bond_site_symmetry_2
_ccdc_geom_bond_type
Zn0 O3 2.031 . S
Zn0 O5 2.049 . S
Zn0 O10 2.067 . S
Zn1 O2 1.962 . S
Zn1 O4 1.986 . S
Zn1 O6 1.996 . S
Zn1 O9 1.943 . S
O2 Zn1 1.962 . S
O2 C7 1.254 . S
O3 Zn0 2.031 . S
O3 C7 1.269 . S
O4 Zn1 1.986 . S
O4 C11 1.262 . S
O5 Zn0 2.049 . S
O5 C13 1.260 . S
O6 Zn1 1.996 . S
O6 C13 1.257 . S
C7 O2 1.254 . S
C7 O3 1.269 . S
C8 O9 1.249 . S
C8 O10 1.270 . S
O9 Zn1 1.943 . S
O9 C8 1.249 . S
O10 Zn0 2.067 . S
O10 C8 1.270 . S
C11 O4 1.262 . S
C11 O12 1.232 . S
O12 C11 1.232 . S
C13 O5 1.260 . S
C13 O6 1.257 . S
Zn14 O17 2.031 . S
Zn14 O19 2.049 . S
Zn14 O24 2.067 . S
Zn15 O16 1.962 . S
Zn15 O18 1.986 . S
Zn15 O20 1.996 . S
Zn15 O23 1.943 . S
O16 Zn15 1.962 . S
O16 C21 1.254 . S
O17 Zn14 2.031 . S
O17 C21 1.269 . S
O18 Zn15 1.986 . S
O18 C25 1.262 . S
O19 Zn14 2.049 . S
O19 C27 1.260 . S
O20 Zn15 1.996 . S
O20 C27 1.257 . S
C21 O16 1.254 . S
C21 O17 1.269 . S
C22 O23 1.249 . S
C22 O24 1.270 . S
O23 Zn15 1.943 . S
O23 C22 1.249 . S
O24 Zn14 2.067 . S
O24 C22 1.270 . S
C25 O18 1.262 . S
C25 O26 1.232 . S
O26 C25 1.232 . S
C27 O19 1.260 . S
C27 O20 1.257 . S
Zn28 O31 2.031 . S
Zn28 O33 2.049 . S
Zn28 O38 2.067 . S
Zn29 O30 1.962 . S
Zn29 O32 1.986 . S
Zn29 O34 1.996 . S
Zn29 O37 1.943 . S
O30 Zn29 1.962 . S
O30 C35 1.254 . S
O31 Zn28 2.031 . S
O31 C35 1.269 . S
O32 Zn29 1.986 . S
O32 C39 1.262 . S
O33 Zn28 2.049 . S
O33 C41 1.260 . S
O34 Zn29 1.996 . S
O34 C41 1.257 . S
C35 O30 1.254 . S
C35 O31 1.269 . S
C36 O37 1.249 . S
C36 O38 1.270 . S
O37 Zn29 1.943 . S
O37 C36 1.249 . S
O38 Zn28 2.067 . S
O38 C36 1.270 . S
C39 O32 1.262 . S
C39 O40 1.232 . S
O40 C39 1.232 . S
C41 O33 1.260 . S
C41 O34 1.257 . S
Zn42 O45 2.031 . S
Zn42 O47 2.049 . S
Zn42 O52 2.067 . S
Zn43 O44 1.962 . S
Zn43 O46 1.986 . S
Zn43 O48 1.996 . S
Zn43 O51 1.943 . S
O44 Zn43 1.962 . S
O44 C49 1.254 . S
O45 Zn42 2.031 . S
O45 C49 1.269 . S
O46 Zn43 1.986 . S
O46 C53 1.262 . S
O47 Zn42 2.049 . S
O47 C55 1.260 . S
O48 Zn43 1.996 . S
O48 C55 1.257 . S
C49 O44 1.254 . S
C49 O45 1.269 . S
C50 O51 1.249 . S
C50 O52 1.270 . S
O51 Zn43 1.943 . S
O51 C50 1.249 . S
O52 Zn42 2.067 . S
O52 C50 1.270 . S
C53 O46 1.262 . S
C53 O54 1.232 . S
O54 C53 1.232 . S
C55 O47 1.260 . S
C55 O48 1.257 . S
Zn56 O59 2.031 . S
Zn56 O61 2.049 . S
Zn56 O66 2.067 . S
Zn57 O58 1.962 . S
Zn57 O60 1.986 . S
Zn57 O62 1.996 . S
Zn57 O65 1.943 . S
O58 Zn57 1.962 . S
O58 C63 1.254 . S
O59 Zn56 2.031 . S
O59 C63 1.269 . S
O60 Zn57 1.986 . S
O60 C67 1.262 . S
O61 Zn56 2.049 . S
O61 C69 1.260 . S
O62 Zn57 1.996 . S
O62 C69 1.257 . S
C63 O58 1.254 . S
C63 O59 1.269 . S
C64 O65 1.249 . S
C64 O66 1.270 . S
O65 Zn57 1.943 . S
O65 C64 1.249 . S
O66 Zn56 2.067 . S
O66 C64 1.270 . S
C67 O60 1.262 . S
C67 O68 1.232 . S
O68 C67 1.232 . S
C69 O61 1.260 . S
C69 O62 1.257 . S
Zn70 O73 2.031 . S
Zn70 O75 2.049 . S
Zn70 O80 2.067 . S
Zn71 O72 1.962 . S
Zn71 O74 1.986 . S
Zn71 O76 1.996 . S
Zn71 O79 1.943 . S
O72 Zn71 1.962 . S
O72 C77 1.254 . S
O73 Zn70 2.031 . S
O73 C77 1.269 . S
O74 Zn71 1.986 . S
O74 C81 1.262 . S
O75 Zn70 2.049 . S
O75 C83 1.260 . S
O76 Zn71 1.996 . S
O76 C83 1.257 . S
C77 O72 1.254 . S
C77 O73 1.269 . S
C78 O79 1.249 . S
C78 O80 1.270 . S
O79 Zn71 1.943 . S
O79 C78 1.249 . S
O80 Zn70 2.067 . S
O80 C78 1.270 . S
C81 O74 1.262 . S
C81 O82 1.232 . S
O82 C81 1.232 . S
C83 O75 1.260 . S
C83 O76 1.257 . S
Zn84 O87 2.031 . S
Zn84 O89 2.049 . S
Zn84 O94 2.067 . S
Zn85 O86 1.962 . S
Zn85 O88 1.986 . S
Zn85 O90 1.996 . S
Zn85 O93 1.943 . S
O86 Zn85 1.962 . S
O86 C91 1.254 . S
O87 Zn84 2.031 . S
O87 C91 1.269 . S
O88 Zn85 1.986 . S
O88 C95 1.262 . S
O89 Zn84 2.049 . S
O89 C97 1.260 . S
O90 Zn85 1.996 . S
O90 C97 1.257 . S
C91 O86 1.254 . S
C91 O87 1.269 . S
C92 O93 1.249 . S
C92 O94 1.270 . S
O93 Zn85 1.943 . S
O93 C92 1.249 . S
O94 Zn84 2.067 . S
O94 C92 1.270 . S
C95 O88 1.262 . S
C95 O96 1.232 . S
O96 C95 1.232 . S
C97 O89 1.260 . S
C97 O90 1.257 . S
Zn98 O101 2.031 . S
Zn98 O103 2.049 . S
Zn98 O108 2.067 . S
Zn99 O100 1.962 . S
Zn99 O102 1.986 . S
Zn99 O104 1.996 . S
Zn99 O107 1.943 . S
O100 Zn99 1.962 . S
O100 C105 1.254 . S
O101 Zn98 2.031 . S
O101 C105 1.269 . S
O102 Zn99 1.986 . S
O102 C109 1.262 . S
O103 Zn98 2.049 . S
O103 C111 1.260 . S
O104 Zn99 1.996 . S
O104 C111 1.257 . S
C105 O100 1.254 . S
C105 O101 1.269 . S
C106 O107 1.249 . S
C106 O108 1.270 . S
O107 Zn99 1.943 . S
O107 C106 1.249 . S
O108 Zn98 2.067 . S
O108 C106 1.270 . S
C109 O102 1.262 . S
C109 O110 1.232 . S
O110 C109 1.232 . S
C111 O103 1.260 . S
C111 O104 1.257 . S
H112 C118 0.930 1_565 S
H113 C121 0.930 . S
H114 C122 0.930 . S
H115 C123 0.930 1_545 S
H116 C126 0.930 . S
H117 C127 0.930 . S
C118 H112 0.930 1_545 S
C118 C119 1.355 . S
C118 C120 1.415 1_545 S
C119 C118 1.355 . S
C119 C121 1.419 . S
C120 C118 1.415 1_565 S
C120 C125 1.425 1_565 S
C120 C127 1.409 . S
C121 H113 0.930 . S
C121 C119 1.419 . S
C121 C122 1.362 . S
C122 H114 0.930 . S
C122 C121 1.362 . S
C122 C125 1.409 . S
C123 H115 0.930 1_565 S
C123 C124 1.355 . S
C123 C125 1.415 1_565 S
C124 C123 1.355 . S
C124 C126 1.419 . S
C125 C120 1.425 1_545 S
C125 C122 1.409 . S
C125 C123 1.415 1_545 S
C126 H116 0.930 . S
C126 C124 1.419 . S
C126 C127 1.362 . S
C127 H117 0.930 . S
C127 C120 1.409 . S
C127 C126 1.362 . S
H128 C134 0.930 . S
H129 C137 0.930 . S
H130 C138 0.930 . S
H131 C139 0.930 . S
H132 C142 0.930 . S
H133 C143 0.930 . S
C134 H128 0.930 . S
C134 C135 1.355 . S
C134 C136 1.415 . S
C135 C134 1.355 . S
C135 C137 1.419 . S
C136 C134 1.415 . S
C136 C141 1.425 . S
C136 C143 1.409 . S
C137 H129 0.930 . S
C137 C135 1.419 . S
C137 C138 1.362 . S
C138 H130 0.930 . S
C138 C137 1.362 . S
C138 C141 1.409 . S
C139 H131 0.930 . S
C139 C140 1.355 . S
C139 C141 1.415 . S
C140 C139 1.355 . S
C140 C142 1.419 . S
C141 C136 1.425 . S
C141 C138 1.409 . S
C141 C139 1.415 . S
C142 H132 0.930 . S
C142 C140 1.419 . S
C142 C143 1.362 . S
C143 H133 0.930 . S
C143 C136 1.409 . S
C143 C142 1.362 . S
H144 C150 0.930 1_545 S
H145 C153 0.930 . S
H146 C154 0.930 . S
H147 C155 0.930 1_565 S
H148 C158 0.930 . S
H149 C159 0.930 . S
C150 H144 0.930 1_565 S
C150 C151 1.355 . S
C150 C152 1.415 1_565 S
C151 C150 1.355 . S
C151 C153 1.419 . S
C152 C150 1.415 1_545 S
C152 C157 1.425 1_545 S
C152 C159 1.409 . S
C153 H145 0.930 . S
C153 C151 1.419 . S
C153 C154 1.362 . S
C154 H146 0.930 . S
C154 C153 1.362 . S
C154 C157 1.409 . S
C155 H147 0.930 1_545 S
C155 C156 1.355 . S
C155 C157 1.415 1_545 S
C156 C155 1.355 . S
C156 C158 1.419 . S
C157 C152 1.425 1_565 S
C157 C154 1.409 . S
C157 C155 1.415 1_565 S
C158 H148 0.930 . S
C158 C156 1.419 . S
C158 C159 1.362 . S
C159 H149 0.930 . S
C159 C152 1.409 . S
C159 C158 1.362 . S
H160 C166 0.930 . S
H161 C169 0.930 . S
H162 C170 0.930 . S
H163 C171 0.930 . S
H164 C174 0.930 . S
H165 C175 0.930 . S
C166 H160 0.930 . S
C166 C167 1.355 . S
C166 C168 1.415 . S
C167 C166 1.355 . S
C167 C169 1.419 . S
C168 C166 1.415 . S
C168 C173 1.425 . S
C168 C175 1.409 . S
C169 H161 0.930 . S
C169 C167 1.419 . S
C169 C170 1.362 . S
C170 H162 0.930 . S
C170 C169 1.362 . S
C170 C173 1.409 . S
C171 H163 0.930 . S
C171 C172 1.355 . S
C171 C173 1.415 . S
C172 C171 1.355 . S
C172 C174 1.419 . S
C173 C168 1.425 . S
C173 C170 1.409 . S
C173 C171 1.415 . S
C174 H164 0.930 . S
C174 C172 1.419 . S
C174 C175 1.362 . S
C175 H165 0.930 . S
C175 C168 1.409 . S
C175 C174 1.362 . S
H176 C182 0.930 . S
H177 C185 0.930 . S
H178 C186 0.930 . S
H179 C187 0.930 . S
H180 C190 0.930 . S
H181 C191 0.930 . S
C182 H176 0.930 . S
C182 C183 1.355 . S
C182 C184 1.415 . S
C183 C182 1.355 . S
C183 C185 1.419 . S
C184 C182 1.415 . S
C184 C189 1.425 . S
C184 C191 1.409 . S
C185 H177 0.930 . S
C185 C183 1.419 . S
C185 C186 1.362 . S
C186 H178 0.930 . S
C186 C185 1.362 . S
C186 C189 1.409 . S
C187 H179 0.930 . S
C187 C188 1.355 . S
C187 C189 1.415 . S
C188 C187 1.355 . S
C188 C190 1.419 . S
C189 C184 1.425 . S
C189 C186 1.409 . S
C189 C187 1.415 . S
C190 H180 0.930 . S
C190 C188 1.419 . S
C190 C191 1.362 . S
C191 H181 0.930 . S
C191 C184 1.409 . S
C191 C190 1.362 . S
H192 C198 0.930 . S
H193 C201 0.930 . S
H194 C202 0.930 . S
H195 C203 0.930 . S
H196 C206 0.930 . S
H197 C207 0.930 . S
C198 H192 0.930 . S
C198 C199 1.355 . S
C198 C200 1.415 . S
C199 C198 1.355 . S
C199 C201 1.419 . S
C200 C198 1.415 . S
C200 C205 1.425 . S
C200 C207 1.409 . S
C201 H193 0.930 . S
C201 C199 1.419 . S
C201 C202 1.362 . S
C202 H194 0.930 . S
C202 C201 1.362 . S
C202 C205 1.409 . S
C203 H195 0.930 . S
C203 C204 1.355 . S
C203 C205 1.415 . S
C204 C203 1.355 . S
C204 C206 1.419 . S
C205 C200 1.425 . S
C205 C202 1.409 . S
C205 C203 1.415 . S
C206 H196 0.930 . S
C206 C204 1.419 . S
C206 C207 1.362 . S
C207 H197 0.930 . S
C207 C200 1.409 . S
C207 C206 1.362 . S
H208 C214 0.930 . S
H209 C217 0.930 . S
H210 C218 0.930 . S
H211 C219 0.930 . S
H212 C222 0.930 . S
H213 C223 0.930 . S
C214 H208 0.930 . S
C214 C215 1.355 . S
C214 C216 1.415 . S
C215 C214 1.355 . S
C215 C217 1.419 . S
C216 C214 1.415 . S
C216 C221 1.425 . S
C216 C223 1.409 . S
C217 H209 0.930 . S
C217 C215 1.419 . S
C217 C218 1.362 . S
C218 H210 0.930 . S
C218 C217 1.362 . S
C218 C221 1.409 . S
C219 H211 0.930 . S
C219 C220 1.355 . S
C219 C221 1.415 . S
C220 C219 1.355 . S
C220 C222 1.419 . S
C221 C216 1.425 . S
C221 C218 1.409 . S
C221 C219 1.415 . S
C222 H212 0.930 . S
C222 C220 1.419 . S
C222 C223 1.362 . S
C223 H213 0.930 . S
C223 C216 1.409 . S
C223 C222 1.362 . S
H224 C230 0.930 . S
H225 C233 0.930 . S
H226 C234 0.930 . S
H227 C235 0.930 . S
H228 C238 0.930 . S
H229 C239 0.930 . S
C230 H224 0.930 . S
C230 C231 1.355 . S
C230 C232 1.415 . S
C231 C230 1.355 . S
C231 C233 1.419 . S
C232 C230 1.415 . S
C232 C237 1.425 . S
C232 C239 1.409 . S
C233 H225 0.930 . S
C233 C231 1.419 . S
C233 C234 1.362 . S
C234 H226 0.930 . S
C234 C233 1.362 . S
C234 C237 1.409 . S
C235 H227 0.930 . S
C235 C236 1.355 . S
C235 C237 1.415 . S
C236 C235 1.355 . S
C236 C238 1.419 . S
C237 C232 1.425 . S
C237 C234 1.409 . S
C237 C235 1.415 . S
C238 H228 0.930 . S
C238 C236 1.419 . S
C238 C239 1.362 . S
C239 H229 0.930 . S
C239 C232 1.409 . S
C239 C238 1.362 . S
H240 C246 0.930 . S
H241 C249 0.930 . S
H242 C250 0.930 . S
H243 C251 0.930 . S
H244 C254 0.930 . S
H245 C255 0.930 . S
C246 H240 0.930 . S
C246 C247 1.355 . S
C246 C248 1.415 . S
C247 C246 1.355 . S
C247 C249 1.419 . S
C248 C246 1.415 . S
C248 C253 1.425 1_554 S
C248 C255 1.409 1_554 S
C249 H241 0.930 . S
C249 C247 1.419 . S
C249 C250 1.362 . S
C250 H242 0.930 . S
C250 C249 1.362 . S
C250 C253 1.409 1_554 S
C251 H243 0.930 . S
C251 C252 1.355 . S
C251 C253 1.415 . S
C252 C251 1.355 . S
C252 C254 1.419 . S
C253 C248 1.425 1_556 S
C253 C250 1.409 1_556 S
C253 C251 1.415 . S
C254 H244 0.930 . S
C254 C252 1.419 . S
C254 C255 1.362 . S
C255 H245 0.930 . S
C255 C248 1.409 1_556 S
C255 C254 1.362 . S
H256 C262 0.930 . S
H257 C265 0.930 . S
H258 C266 0.930 . S
H259 C267 0.930 . S
H260 C270 0.930 . S
H261 C271 0.930 . S
C262 H256 0.930 . S
C262 C263 1.355 1_655 S
C262 C264 1.415 . S
C263 C262 1.355 1_455 S
C263 C265 1.419 . S
C264 C262 1.415 . S
C264 C269 1.425 1_654 S
C264 C271 1.409 . S
C265 H257 0.930 . S
C265 C263 1.419 . S
C265 C266 1.362 1_554 S
C266 H258 0.930 . S
C266 C265 1.362 1_556 S
C266 C269 1.409 . S
C267 H259 0.930 . S
C267 C268 1.355 1_455 S
C267 C269 1.415 . S
C268 C267 1.355 1_655 S
C268 C270 1.419 . S
C269 C264 1.425 1_456 S
C269 C266 1.409 . S
C269 C267 1.415 . S
C270 H260 0.930 . S
C270 C268 1.419 . S
C270 C271 1.362 1_556 S
C271 H261 0.930 . S
C271 C264 1.409 . S
C271 C270 1.362 1_554 S
H272 C278 0.930 . S
H273 C281 0.930 . S
H274 C282 0.930 . S
H275 C283 0.930 . S
H276 C286 0.930 . S
H277 C287 0.930 . S
C278 H272 0.930 . S
C278 C279 1.355 . S
C278 C280 1.415 1_565 S
C279 C278 1.355 . S
C279 C281 1.419 . S
C280 C278 1.415 1_545 S
C280 C285 1.425 1_545 S
C280 C287 1.409 . S
C281 H273 0.930 . S
C281 C279 1.419 . S
C281 C282 1.362 . S
C282 H274 0.930 . S
C282 C281 1.362 . S
C282 C285 1.409 . S
C283 H275 0.930 . S
C283 C284 1.355 . S
C283 C285 1.415 1_545 S
C284 C283 1.355 . S
C284 C286 1.419 . S
C285 C280 1.425 1_565 S
C285 C282 1.409 . S
C285 C283 1.415 1_565 S
C286 H276 0.930 . S
C286 C284 1.419 . S
C286 C287 1.362 . S
C287 H277 0.930 . S
C287 C280 1.409 . S
C287 C286 1.362 . S
H288 C294 0.930 . S
H289 C297 0.930 . S
H290 C298 0.930 1_565 S
H291 C299 0.930 . S
H292 C302 0.930 . S
H293 C303 0.930 1_545 S
C294 H288 0.930 . S
C294 C295 1.355 . S
C294 C296 1.415 . S
C295 C294 1.355 . S
C295 C297 1.419 . S
C296 C294 1.415 . S
C296 C301 1.425 1_645 S
C296 C303 1.409 1_545 S
C297 H289 0.930 . S
C297 C295 1.419 . S
C297 C298 1.362 1_655 S
C298 H290 0.930 1_545 S
C298 C297 1.362 1_455 S
C298 C301 1.409 1_545 S
C299 H291 0.930 . S
C299 C300 1.355 . S
C299 C301 1.415 . S
C300 C299 1.355 . S
C300 C302 1.419 . S
C301 C296 1.425 1_465 S
C301 C298 1.409 1_565 S
C301 C299 1.415 . S
C302 H292 0.930 . S
C302 C300 1.419 . S
C302 C303 1.362 1_455 S
C303 H293 0.930 1_565 S
C303 C296 1.409 1_565 S
C303 C302 1.362 1_655 S
H304 C310 0.930 . S
H305 C313 0.930 . S
H306 C314 0.930 . S
H307 C315 0.930 . S
H308 C318 0.930 . S
H309 C319 0.930 . S
C310 H304 0.930 . S
C310 C311 1.355 . S
C310 C312 1.415 . S
C311 C310 1.355 . S
C311 C313 1.419 . S
C312 C310 1.415 . S
C312 C317 1.425 . S
C312 C319 1.409 . S
C313 H305 0.930 . S
C313 C311 1.419 . S
C313 C314 1.362 . S
C314 H306 0.930 . S
C314 C313 1.362 . S
C314 C317 1.409 . S
C315 H307 0.930 . S
C315 C316 1.355 . S
C315 C317 1.415 . S
C316 C315 1.355 . S
C316 C318 1.419 . S
C317 C312 1.425 . S
C317 C314 1.409 . S
C317 C315 1.415 . S
C318 H308 0.930 . S
C318 C316 1.419 . S
C318 C319 1.362 . S
C319 H309 0.930 . S
C319 C312 1.409 . S
C319 C318 1.362 . S
H320 C326 0.930 . S
H321 C329 0.930 . S
H322 C330 0.930 . S
H323 C331 0.930 . S
H324 C334 0.930 . S
H325 C335 0.930 . S
C326 H320 0.930 . S
C326 C327 1.355 . S
C326 C328 1.415 . S
C327 C326 1.355 . S
C327 C329 1.419 . S
C328 C326 1.415 . S
C328 C333 1.425 1_545 S
C328 C335 1.409 . S
C329 H321 0.930 . S
C329 C327 1.419 . S
C329 C330 1.362 1_545 S
C330 H322 0.930 . S
C330 C329 1.362 1_565 S
C330 C333 1.409 . S
C331 H323 0.930 . S
C331 C332 1.355 . S
C331 C333 1.415 . S
C332 C331 1.355 . S
C332 C334 1.419 . S
C333 C328 1.425 1_565 S
C333 C330 1.409 . S
C333 C331 1.415 . S
C334 H324 0.930 . S
C334 C332 1.419 . S
C334 C335 1.362 1_565 S
C335 H325 0.930 . S
C335 C328 1.409 . S
C335 C334 1.362 1_545 S
H336 C342 0.930 . S
H337 C345 0.930 . S
H338 C346 0.930 1_554 S
H339 C347 0.930 . S
H340 C350 0.930 . S
H341 C351 0.930 . S
C342 H336 0.930 . S
C342 C343 1.355 . S
C342 C344 1.415 . S
C343 C342 1.355 . S
C343 C345 1.419 . S
C344 C342 1.415 . S
C344 C349 1.425 . S
C344 C351 1.409 . S
C345 H337 0.930 . S
C345 C343 1.419 . S
C345 C346 1.362 . S
C346 H338 0.930 1_556 S
C346 C345 1.362 . S
C346 C349 1.409 . S
C347 H339 0.930 . S
C347 C348 1.355 . S
C347 C349 1.415 . S
C348 C347 1.355 . S
C348 C350 1.419 . S
C349 C344 1.425 . S
C349 C346 1.409 . S
C349 C347 1.415 . S
C350 H340 0.930 . S
C350 C348 1.419 . S
C350 C351 1.362 . S
C351 H341 0.930 . S
C351 C344 1.409 . S
C351 C350 1.362 . S
H352 C358 0.930 . S
H353 C361 0.930 . S
H354 C362 0.930 . S
H355 C363 0.930 . S
H356 C366 0.930 . S
H357 C367 0.930 . S
C358 H352 0.930 . S
C358 C359 1.355 . S
C358 C360 1.415 1_565 S
C359 C358 1.355 . S
C359 C361 1.419 . S
C360 C358 1.415 1_545 S
C360 C365 1.425 1_545 S
C360 C367 1.409 . S
C361 H353 0.930 . S
C361 C359 1.419 . S
C361 C362 1.362 . S
C362 H354 0.930 . S
C362 C361 1.362 . S
C362 C365 1.409 . S
C363 H355 0.930 . S
C363 C364 1.355 . S
C363 C365 1.415 1_545 S
C364 C363 1.355 . S
C364 C366 1.419 . S
C365 C360 1.425 1_565 S
C365 C362 1.409 . S
C365 C363 1.415 1_565 S
C366 H356 0.930 . S
C366 C364 1.419 . S
C366 C367 1.362 . S
C367 H357 0.930 . S
C367 C360 1.409 . S
C367 C366 1.362 . S
C119 C13 1.343 . S
C124 C27 1.390 . S
C135 C55 1.433 . S
C140 C41 1.413 . S
C151 C69 1.356 . S
C156 C83 1.350 . S
C167 C97 1.426 . S
C172 C111 1.370 . S
C183 C11 1.558 . S
C188 C39 1.570 . S
C199 C53 1.564 . S
C204 C25 1.555 . S
C215 C67 1.579 . S
C220 C95 1.568 . S
C231 C109 1.567 . S
C236 C81 1.579 . S
C247 C7 1.534 . S
C252 C63 1.534 . S
C263 C21 1.453 . S
C268 C77 1.453 . S
C279 C91 1.533 . S
C284 C35 1.533 . S
C295 C105 1.482 . S
C300 C49 1.482 . S
C311 C22 1.045 . S
C316 C8 1.051 . S
C327 C36 1.049 . S
C332 C50 1.036 . S
C343 C64 1.024 . S
C348 C78 1.043 . S
C359 C92 0.983 . S
C364 C106 0.995 . S
