# Generated by pormake.
# Topology whr, (6)-cn, num edge types: 1
# Building blocks:
#     Node 0, Type 0, BuildingBlock: OJICUG_clean_sbu_0, # of connection points: 6
#     Node 1, Type 0, BuildingBlock: OJICUG_clean_sbu_0, # of connection points: 6
#     Node 2, Type 0, BuildingBlock: OJICUG_clean_sbu_0, # of connection points: 6
#     Node 3, Type 0, BuildingBlock: OJICUG_clean_sbu_0, # of connection points: 6
#     Node 4, Type 0, BuildingBlock: OJICUG_clean_sbu_0, # of connection points: 6
#     Node 5, Type 0, BuildingBlock: OJICUG_clean_sbu_0, # of connection points: 6
#     Node 6, Type 0, BuildingBlock: OJICUG_clean_sbu_0, # of connection points: 6
#     Node 7, Type 0, BuildingBlock: OJICUG_clean_sbu_0, # of connection points: 6
#     Node 8, Type 0, BuildingBlock: OJICUG_clean_sbu_0, # of connection points: 6
#     Node 9, Type 0, BuildingBlock: OJICUG_clean_sbu_0, # of connection points: 6
#     Node 10, Type 0, BuildingBlock: OJICUG_clean_sbu_0, # of connection points: 6
#     Node 11, Type 0, BuildingBlock: OJICUG_clean_sbu_0, # of connection points: 6
#     Node 12, Type 0, BuildingBlock: OJICUG_clean_sbu_0, # of connection points: 6
#     Node 13, Type 0, BuildingBlock: OJICUG_clean_sbu_0, # of connection points: 6
#     Node 14, Type 0, BuildingBlock: OJICUG_clean_sbu_0, # of connection points: 6
#     Node 15, Type 0, BuildingBlock: OJICUG_clean_sbu_0, # of connection points: 6
#     Edge 16, Type (0, 0), BuildingBlock: KIFKEQ_clean_linker_1, # of connection points: 2
#     Edge 17, Type (0, 0), BuildingBlock: KIFKEQ_clean_linker_1, # of connection points: 2
#     Edge 18, Type (0, 0), BuildingBlock: KIFKEQ_clean_linker_1, # of connection points: 2
#     Edge 19, Type (0, 0), BuildingBlock: KIFKEQ_clean_linker_1, # of connection points: 2
#     Edge 20, Type (0, 0), BuildingBlock: KIFKEQ_clean_linker_1, # of connection points: 2
#     Edge 21, Type (0, 0), BuildingBlock: KIFKEQ_clean_linker_1, # of connection points: 2
#     Edge 22, Type (0, 0), BuildingBlock: KIFKEQ_clean_linker_1, # of connection points: 2
#     Edge 23, Type (0, 0), BuildingBlock: KIFKEQ_clean_linker_1, # of connection points: 2
#     Edge 24, Type (0, 0), BuildingBlock: KIFKEQ_clean_linker_1, # of connection points: 2
#     Edge 25, Type (0, 0), BuildingBlock: KIFKEQ_clean_linker_1, # of connection points: 2
#     Edge 26, Type (0, 0), BuildingBlock: KIFKEQ_clean_linker_1, # of connection points: 2
#     Edge 27, Type (0, 0), BuildingBlock: KIFKEQ_clean_linker_1, # of connection points: 2
#     Edge 28, Type (0, 0), BuildingBlock: KIFKEQ_clean_linker_1, # of connection points: 2
#     Edge 29, Type (0, 0), BuildingBlock: KIFKEQ_clean_linker_1, # of connection points: 2
#     Edge 30, Type (0, 0), BuildingBlock: KIFKEQ_clean_linker_1, # of connection points: 2
#     Edge 31, Type (0, 0), BuildingBlock: KIFKEQ_clean_linker_1, # of connection points: 2
#     Edge 32, Type (0, 0), BuildingBlock: KIFKEQ_clean_linker_1, # of connection points: 2
#     Edge 33, Type (0, 0), BuildingBlock: KIFKEQ_clean_linker_1, # of connection points: 2
#     Edge 34, Type (0, 0), BuildingBlock: KIFKEQ_clean_linker_1, # of connection points: 2
#     Edge 35, Type (0, 0), BuildingBlock: KIFKEQ_clean_linker_1, # of connection points: 2
#     Edge 36, Type (0, 0), BuildingBlock: KIFKEQ_clean_linker_1, # of connection points: 2
#     Edge 37, Type (0, 0), BuildingBlock: KIFKEQ_clean_linker_1, # of connection points: 2
#     Edge 38, Type (0, 0), BuildingBlock: KIFKEQ_clean_linker_1, # of connection points: 2
#     Edge 39, Type (0, 0), BuildingBlock: KIFKEQ_clean_linker_1, # of connection points: 2
#     Edge 40, Type (0, 0), BuildingBlock: KIFKEQ_clean_linker_1, # of connection points: 2
#     Edge 41, Type (0, 0), BuildingBlock: KIFKEQ_clean_linker_1, # of connection points: 2
#     Edge 42, Type (0, 0), BuildingBlock: KIFKEQ_clean_linker_1, # of connection points: 2
#     Edge 43, Type (0, 0), BuildingBlock: KIFKEQ_clean_linker_1, # of connection points: 2
#     Edge 44, Type (0, 0), BuildingBlock: KIFKEQ_clean_linker_1, # of connection points: 2
#     Edge 45, Type (0, 0), BuildingBlock: KIFKEQ_clean_linker_1, # of connection points: 2
#     Edge 46, Type (0, 0), BuildingBlock: KIFKEQ_clean_linker_1, # of connection points: 2
#     Edge 47, Type (0, 0), BuildingBlock: KIFKEQ_clean_linker_1, # of connection points: 2
#     Edge 48, Type (0, 0), BuildingBlock: KIFKEQ_clean_linker_1, # of connection points: 2
#     Edge 49, Type (0, 0), BuildingBlock: KIFKEQ_clean_linker_1, # of connection points: 2
#     Edge 50, Type (0, 0), BuildingBlock: KIFKEQ_clean_linker_1, # of connection points: 2
#     Edge 51, Type (0, 0), BuildingBlock: KIFKEQ_clean_linker_1, # of connection points: 2
#     Edge 52, Type (0, 0), BuildingBlock: KIFKEQ_clean_linker_1, # of connection points: 2
#     Edge 53, Type (0, 0), BuildingBlock: KIFKEQ_clean_linker_1, # of connection points: 2
#     Edge 54, Type (0, 0), BuildingBlock: KIFKEQ_clean_linker_1, # of connection points: 2
#     Edge 55, Type (0, 0), BuildingBlock: KIFKEQ_clean_linker_1, # of connection points: 2
#     Edge 56, Type (0, 0), BuildingBlock: KIFKEQ_clean_linker_1, # of connection points: 2
#     Edge 57, Type (0, 0), BuildingBlock: KIFKEQ_clean_linker_1, # of connection points: 2
#     Edge 58, Type (0, 0), BuildingBlock: KIFKEQ_clean_linker_1, # of connection points: 2
#     Edge 59, Type (0, 0), BuildingBlock: KIFKEQ_clean_linker_1, # of connection points: 2
#     Edge 60, Type (0, 0), BuildingBlock: KIFKEQ_clean_linker_1, # of connection points: 2
#     Edge 61, Type (0, 0), BuildingBlock: KIFKEQ_clean_linker_1, # of connection points: 2
#     Edge 62, Type (0, 0), BuildingBlock: KIFKEQ_clean_linker_1, # of connection points: 2
#     Edge 63, Type (0, 0), BuildingBlock: KIFKEQ_clean_linker_1, # of connection points: 2
# Relax obj value: 0.342
# Max RMSD: 0.271
# Mean RMSD: 0.271
data_MOF--net-whr--node1-OJICUG_clean_sbu_0--edge1-KIFKEQ_clean_linker_1
_symmetry_space_group_name_H-M    P1
_symmetry_Int_Tables_number       1
_symmetry_cell_setting            triclinic
loop_
_symmetry_equiv_pos_as_xyz
'x, y, z'
_cell_length_a     49.446341
_cell_length_b     49.425958
_cell_length_c     30.201696
_cell_angle_alpha  89.960505
_cell_angle_beta   89.961491
_cell_angle_gamma 89.91544
loop_
_atom_site_label
_atom_site_type_symbol
_atom_site_fract_x
_atom_site_fract_y
_atom_site_fract_z
_atom_type_partial_charge
Sc0 Sc 0.1947 0.05949 0.10337 0.0
Sc1 Sc 0.23426 0.09993 0.0328 0.0
Sc2 Sc 0.25455 0.03273 0.05759 0.0
O3 O 0.22794 0.06409 0.06465 0.0
C4 C 0.23948 0.02765 0.15938 0.0
C5 C 0.21492 0.11896 0.12864 0.0
C6 C 0.29493 0.08266 0.0575 0.0
C7 C 0.16994 0.09594 0.0264 0.0
C8 C 0.19727 0.0024 0.05537 0.0
C9 C 0.25041 0.0564 0.9592 0.0
O10 O 0.21734 0.04041 0.15516 0.0
O11 O 0.22792 0.12347 0.09289 0.0
O12 O 0.2902 0.05774 0.06464 0.0
O13 O 0.16749 0.07821 0.05659 0.0
O14 O 0.22245 0.0038 0.04694 0.0
O15 O 0.24101 0.07962 0.9696 0.0
O16 O 0.18437 0.02102 0.07522 0.0
O17 O 0.19261 0.10565 0.01486 0.0
O18 O 0.25624 0.03842 0.98769 0.0
O19 O 0.20201 0.09721 0.136 0.0
O20 O 0.25559 0.02322 0.12739 0.0
O21 O 0.2768 0.0995 0.04628 0.0
Sc22 Sc 0.05785 0.8097 0.88392 0.0
Sc23 Sc 0.09728 0.77238 0.95862 0.0
Sc24 Sc 0.02882 0.75589 0.9422 0.0
O25 O 0.06138 0.77924 0.92816 0.0
C26 C 0.00233 0.81496 0.93398 0.0
C27 C 0.09679 0.83611 0.95688 0.0
C28 C 0.05405 0.76392 0.03644 0.0
C29 C 0.11533 0.78668 0.85907 0.0
C30 C 0.02226 0.76268 0.83973 0.0
C31 C 0.07738 0.71266 0.94619 0.0
O32 O 0.02271 0.82624 0.91623 0.0
O33 O 0.10171 0.81415 0.97733 0.0
O34 O 0.03369 0.76333 0.011 0.0
O35 O 0.09234 0.79581 0.84767 0.0
O36 O 0.02082 0.74732 0.87346 0.0
O37 O 0.09617 0.73006 0.94288 0.0
O38 O 0.03325 0.7859 0.84034 0.0
O39 O 0.12076 0.77937 0.89858 0.0
O40 O 0.05246 0.71903 0.9487 0.0
O41 O 0.08274 0.83712 0.92164 0.0
O42 O 0.00109 0.78964 0.94124 0.0
O43 O 0.07841 0.76466 0.02269 0.0
Sc44 Sc 0.74576 0.96693 0.05786 0.0
Sc45 Sc 0.7718 0.90175 0.03409 0.0
Sc46 Sc 0.80334 0.94226 0.11379 0.0
O47 O 0.7735 0.93699 0.0686 0.0
C48 C 0.80158 0.99969 0.06689 0.0
C49 C 0.75495 0.94519 0.96015 0.0
C50 C 0.83506 0.91057 0.03695 0.0
C51 C 0.70941 0.91348 0.0523 0.0
C52 C 0.75346 0.97159 0.16141 0.0
C53 C 0.78765 0.88135 0.13168 0.0
O54 O 0.77679 0.99779 0.05578 0.0
O55 O 0.76317 0.92184 0.97187 0.0
O56 O 0.83419 0.92373 0.07309 0.0
O57 O 0.7119 0.93904 0.05627 0.0
O58 O 0.77681 0.96098 0.16059 0.0
O59 O 0.78053 0.87677 0.09186 0.0
O60 O 0.7388 0.97452 0.12725 0.0
O61 O 0.72939 0.89753 0.04717 0.0
O62 O 0.79479 0.90449 0.14548 0.0
O63 O 0.74914 0.96369 0.98764 0.0
O64 O 0.81434 0.98088 0.08667 0.0
O65 O 0.81395 0.90276 0.01677 0.0
Sc66 Sc 0.96891 0.24677 0.92879 0.0
Sc67 Sc 0.90439 0.22561 0.96294 0.0
Sc68 Sc 0.9411 0.18781 0.88736 0.0
O69 O 0.93805 0.22028 0.92663 0.0
C70 C 0.97339 0.23195 0.83058 0.0
C71 C 0.91718 0.28574 0.93615 0.0
C72 C 0.88258 0.20661 0.86766 0.0
C73 C 0.95194 0.24394 0.02885 0.0
C74 C 0.99795 0.18844 0.92921 0.0
C75 C 0.90635 0.16318 0.96719 0.0
O76 O 0.97028 0.25112 0.85807 0.0
O77 O 0.90033 0.26653 0.94054 0.0
O78 O 0.90572 0.20049 0.85208 0.0
O79 O 0.97002 0.2446 -0.00101 0.0
O80 O 0.97649 0.17486 0.92249 0.0
O81 O 0.90515 0.18507 0.98904 0.0
O82 O 0.99886 0.21423 0.92619 0.0
O83 O 0.9271 0.23886 0.02083 0.0
O84 O 0.91637 0.16213 0.92852 0.0
O85 O 0.94266 0.282 0.93403 0.0
O86 O 0.96628 0.20785 0.8393 0.0
O87 O 0.87853 0.21268 0.90826 0.0
Sc88 Sc 0.75541 0.02853 0.55611 0.0
Sc89 Sc 0.77174 0.09619 0.5356 0.0
Sc90 Sc 0.80997 0.058 0.60929 0.0
O91 O 0.77894 0.06095 0.5669 0.0
C92 C 0.76555 0.02023 0.65571 0.0
C93 C 0.71255 0.07743 0.5522 0.0
C94 C 0.78704 0.11432 0.6345 0.0
C95 C 0.76138 0.05176 0.46057 0.0
C96 C 0.81525 0.0032 0.56038 0.0
C97 C 0.83445 0.09747 0.53524 0.0
O98 O 0.74761 0.02265 0.62579 0.0
O99 O 0.7302 0.09594 0.55604 0.0
O100 O 0.79387 0.0908 0.6474 0.0
O101 O 0.76241 0.03181 0.48695 0.0
O102 O 0.827 0.02469 0.57322 0.0
O103 O 0.81282 0.09915 0.51274 0.0
O104 O 0.78957 0.00089 0.55848 0.0
O105 O 0.76128 0.07637 0.47328 0.0
O106 O 0.83543 0.08573 0.57271 0.0
O107 O 0.71866 0.05245 0.54875 0.0
O108 O 0.78924 0.02985 0.65159 0.0
O109 O 0.78179 0.12 0.59416 0.0
Sc110 Sc 0.0575 0.1928 0.38538 0.0
Sc111 Sc 0.09981 0.22874 0.45751 0.0
Sc112 Sc 0.03395 0.25328 0.43443 0.0
O113 O 0.06376 0.22505 0.42573 0.0
C114 C 0.02838 0.24055 0.33211 0.0
C115 C 0.11803 0.20948 0.36094 0.0
C116 C 0.08647 0.29051 0.43464 0.0
C117 C 0.09134 0.16491 0.46293 0.0
C118 C 0.00064 0.19756 0.43374 0.0
C119 C 0.05739 0.24655 0.53195 0.0
O120 O 0.03934 0.21741 0.33533 0.0
O121 O 0.12324 0.22078 0.39788 0.0
O122 O 0.06109 0.28756 0.42972 0.0
O123 O 0.0751 0.16378 0.43041 0.0
O124 O 0.00316 0.22259 0.44271 0.0
O125 O 0.08022 0.23686 0.52038 0.0
O126 O 0.01878 0.18395 0.41392 0.0
O127 O 0.10157 0.18696 0.47634 0.0
O128 O 0.0391 0.25317 0.50454 0.0
O129 O 0.09532 0.19878 0.35217 0.0
O130 O 0.02523 0.25647 0.36473 0.0
O131 O 0.1024 0.27106 0.44337 0.0
Sc132 Sc 0.18951 0.94007 0.61235 0.0
Sc133 Sc 0.22722 0.90201 0.53721 0.0
Sc134 Sc 0.24377 0.96973 0.55761 0.0
O135 O 0.22028 0.93714 0.56924 0.0
C136 C 0.185 0.99641 0.56697 0.0
C137 C 0.16391 0.90212 0.53713 0.0
C138 C 0.23559 0.94715 0.46223 0.0
C139 C 0.21194 0.88252 0.63571 0.0
C140 C 0.23641 0.97499 0.65911 0.0
C141 C 0.28653 0.9209 0.55059 0.0
O142 O 0.1731 0.97483 0.5789 0.0
O143 O 0.18588 0.89868 0.516 0.0
O144 O 0.23493 0.967 0.48882 0.0
O145 O 0.20386 0.90568 0.64838 0.0
O146 O 0.25292 0.97499 0.62672 0.0
O147 O 0.26905 0.90238 0.55583 0.0
O148 O 0.21258 0.96536 0.65664 0.0
O149 O 0.21861 0.87746 0.59571 0.0
O150 O 0.28023 0.94581 0.54713 0.0
O151 O 0.16274 0.91465 0.57389 0.0
O152 O 0.21062 0.99805 0.56371 0.0
O153 O 0.23633 0.92249 0.47474 0.0
Sc154 Sc 0.9666 0.74484 0.4373 0.0
Sc155 Sc 0.90227 0.77164 0.46512 0.0
Sc156 Sc 0.94223 0.80373 0.38495 0.0
O157 O 0.937 0.77325 0.42908 0.0
C158 C -0.00048 0.80077 0.43215 0.0
C159 C 0.94606 0.75269 0.53652 0.0
C160 C 0.91097 0.83492 0.46275 0.0
C161 C 0.91295 0.70919 0.44295 0.0
C162 C 0.97144 0.755 0.33426 0.0
C163 C 0.88119 0.78826 0.36811 0.0
O164 O 0.99748 0.77575 0.44197 0.0
O165 O 0.92306 0.76265 0.52675 0.0
O166 O 0.92403 0.83413 0.42654 0.0
O167 O 0.93834 0.71127 0.43624 0.0
O168 O 0.96065 0.77821 0.33652 0.0
O169 O 0.87692 0.78069 0.40787 0.0
O170 O 0.97447 0.73965 0.36756 0.0
O171 O 0.89776 0.72928 0.45181 0.0
O172 O 0.90419 0.79566 0.35392 0.0
O173 O 0.96339 0.7461 0.50752 0.0
O174 O 0.98099 0.81396 0.41239 0.0
O175 O 0.90331 0.81375 0.48297 0.0
Sc176 Sc 0.68387 0.55684 0.59624 0.0
Sc177 Sc 0.72365 0.59611 0.52468 0.0
Sc178 Sc 0.74455 0.53024 0.55467 0.0
O179 O 0.71743 0.5611 0.55838 0.0
C180 C 0.72739 0.52406 0.65393 0.0
C181 C 0.70343 0.61581 0.6203 0.0
C182 C 0.78381 0.58142 0.55402 0.0
C183 C 0.66013 0.59294 0.51681 0.0
C184 C 0.68667 0.50016 0.5497 0.0
C185 C 0.74297 0.55114 0.45532 0.0
O186 O 0.70409 0.53388 0.64666 0.0
O187 O 0.71326 0.62063 0.58205 0.0
O188 O 0.77989 0.55612 0.55858 0.0
O189 O 0.65772 0.57895 0.55187 0.0
O190 O 0.71245 0.50053 0.54747 0.0
O191 O 0.73477 0.57503 0.46406 0.0
O192 O 0.6727 0.52006 0.56359 0.0
O193 O 0.68296 0.59892 0.5004 0.0
O194 O 0.7462 0.53304 0.48463 0.0
O195 O 0.69341 0.59316 0.63162 0.0
O196 O 0.74606 0.5241 0.62508 0.0
O197 O 0.7651 0.59801 0.54439 0.0
Sc198 Sc 0.55946 0.29933 0.37674 0.0
Sc199 Sc 0.59813 0.26616 0.45708 0.0
Sc200 Sc 0.53189 0.24339 0.43304 0.0
O201 O 0.56315 0.26946 0.42228 0.0
C202 C 0.50258 0.30136 0.42512 0.0
C203 C 0.59339 0.32949 0.45266 0.0
C204 C 0.55388 0.25115 0.53088 0.0
C205 C 0.61923 0.28083 0.35915 0.0
C206 C 0.52671 0.25151 0.32967 0.0
C207 C 0.58372 0.20448 0.43809 0.0
O208 O 0.52208 0.31308 0.40541 0.0
O209 O 0.59871 0.3083 0.47481 0.0
O210 O 0.53518 0.24655 0.50323 0.0
O211 O 0.5962 0.2877 0.34441 0.0
O212 O 0.52378 0.23669 0.36366 0.0
O213 O 0.60067 0.2236 0.44314 0.0
O214 O 0.53827 0.27437 0.33058 0.0
O215 O 0.62347 0.27458 0.39953 0.0
O216 O 0.55827 0.20822 0.43473 0.0
O217 O 0.5809 0.32889 0.4159 0.0
O218 O 0.50285 0.27629 0.43521 0.0
O219 O 0.57768 0.25803 0.51935 0.0
Sc220 Sc 0.25381 0.46872 0.55876 0.0
Sc221 Sc 0.27811 0.40511 0.52449 0.0
Sc222 Sc 0.3127 0.44182 0.60486 0.0
O223 O 0.28134 0.43851 0.56258 0.0
C224 C 0.31147 0.49912 0.56158 0.0
C225 C 0.26037 0.45242 0.45796 0.0
C226 C 0.34087 0.40888 0.52578 0.0
C227 C 0.2166 0.41623 0.54894 0.0
C228 C 0.26655 0.47323 0.65905 0.0
C229 C 0.29441 0.38232 0.62074 0.0
O230 O 0.28566 0.49895 0.55926 0.0
O231 O 0.26751 0.42803 0.4654 0.0
O232 O 0.34076 0.4191 0.56435 0.0
O233 O 0.21938 0.44161 0.55478 0.0
O234 O 0.29057 0.46502 0.65287 0.0
O235 O 0.28881 0.37873 0.57986 0.0
O236 O 0.24852 0.47167 0.62931 0.0
O237 O 0.23632 0.40038 0.54132 0.0
O238 O 0.30054 0.4052 0.63717 0.0
O239 O 0.25613 0.46941 0.48861 0.0
O240 O 0.32539 0.47874 0.57381 0.0
O241 O 0.31949 0.4064 0.50301 0.0
Sc242 Sc 0.46435 0.75337 0.42745 0.0
Sc243 Sc 0.39788 0.73185 0.45355 0.0
Sc244 Sc 0.43644 0.69629 0.37578 0.0
O245 O 0.43285 0.72733 0.41896 0.0
C246 C 0.46836 0.74347 0.32505 0.0
C247 C 0.4132 0.7931 0.4337 0.0
C248 C 0.3771 0.71652 0.35603 0.0
C249 C 0.44335 0.74591 0.52575 0.0
C250 C 0.49377 0.6953 0.4213 0.0
C251 C 0.40209 0.66819 0.45297 0.0
O252 O 0.47051 0.75952 0.35764 0.0
O253 O 0.39597 0.77431 0.43888 0.0
O254 O 0.3999 0.70772 0.34305 0.0
O255 O 0.46192 0.75012 0.49761 0.0
O256 O 0.47349 0.68286 0.40544 0.0
O257 O 0.39611 0.69002 0.47279 0.0
O258 O 0.49389 0.72078 0.42795 0.0
O259 O 0.4192 0.73968 0.51513 0.0
O260 O 0.41508 0.6677 0.41671 0.0
O261 O 0.43854 0.78887 0.43026 0.0
O262 O 0.45791 0.72012 0.32809 0.0
O263 O 0.37246 0.72409 0.39571 0.0
Sc264 Sc 0.24449 0.53509 0.05189 0.0
Sc265 Sc 0.26369 0.60266 0.02873 0.0
Sc266 Sc 0.3063 0.56123 0.09117 0.0
O267 O 0.2713 0.56629 0.05746 0.0
C268 C 0.26319 0.53108 0.1525 0.0
C269 C 0.20369 0.58462 0.05553 0.0
C270 C 0.28837 0.62136 0.11944 0.0
C271 C 0.247 0.56008 0.95434 0.0
C272 C 0.30078 0.50329 0.04595 0.0
C273 C 0.32776 0.59796 0.01421 0.0
O274 O 0.24634 0.52596 0.12174 0.0
O275 O 0.22134 0.60158 0.04322 0.0
O276 O 0.30333 0.60046 0.12154 0.0
O277 O 0.24091 0.5416 0.98197 0.0
O278 O 0.31424 0.52185 0.06467 0.0
O279 O 0.30511 0.6098 0.00975 0.0
O280 O 0.27555 0.50529 0.03858 0.0
O281 O 0.25682 0.58297 0.96554 0.0
O282 O 0.33101 0.57753 0.0391 0.0
O283 O 0.20894 0.55981 0.06243 0.0
O284 O 0.28502 0.54418 0.14643 0.0
O285 O 0.27027 0.62469 0.08993 0.0
Sc286 Sc 0.55773 0.68769 0.88546 0.0
Sc287 Sc 0.59564 0.72713 0.9578 0.0
Sc288 Sc 0.53096 0.74824 0.92353 0.0
O289 O 0.56157 0.72114 0.92254 0.0
C290 C 0.52691 0.73176 0.82574 0.0
C291 C 0.61669 0.70601 0.86331 0.0
C292 C 0.58261 0.78707 0.92967 0.0
C293 C 0.59241 0.66423 0.96654 0.0
C294 C 0.50053 0.69077 0.92579 0.0
C295 C 0.54808 0.74613 0.02376 0.0
O296 O 0.5338 0.7077 0.83549 0.0
O297 O 0.62121 0.7143 0.90267 0.0
O298 O 0.55717 0.78341 0.92743 0.0
O299 O 0.5807 0.66199 0.92933 0.0
O300 O 0.50035 0.71651 0.92212 0.0
O301 O 0.57287 0.74047 0.01588 0.0
O302 O 0.5217 0.67657 0.92015 0.0
O303 O 0.59625 0.68695 0.98498 0.0
O304 O 0.53005 0.74712 0.99383 0.0
O305 O 0.59369 0.698 0.84984 0.0
O306 O 0.52972 0.75131 0.85262 0.0
O307 O 0.59935 0.76783 0.93465 0.0
Sc308 Sc 0.69254 0.4391 0.10673 0.0
Sc309 Sc 0.7276 0.39963 0.02946 0.0
Sc310 Sc 0.75023 0.46584 0.05399 0.0
O311 O 0.7236 0.43483 0.06348 0.0
C312 C 0.69308 0.49673 0.06094 0.0
C313 C 0.6639 0.40585 0.02889 0.0
C314 C 0.74243 0.44419 0.95621 0.0
C315 C 0.7108 0.37889 0.12631 0.0
C316 C 0.74058 0.46998 0.15675 0.0
C317 C 0.78908 0.41398 0.04899 0.0
O318 O 0.68049 0.47699 0.07829 0.0
O319 O 0.68584 0.39839 0.0108 0.0
O320 O 0.7472 0.4629 0.98382 0.0
O321 O 0.70185 0.40164 0.13923 0.0
O322 O 0.7561 0.47262 0.12354 0.0
O323 O 0.76993 0.39716 0.04391 0.0
O324 O 0.71735 0.45914 0.1547 0.0
O325 O 0.7194 0.37456 0.08718 0.0
O326 O 0.78536 0.43942 0.0522 0.0
O327 O 0.66329 0.41958 0.06443 0.0
O328 O 0.71833 0.49604 0.05251 0.0
O329 O 0.73562 0.42033 0.96753 0.0
Sc330 Sc 0.46813 0.25296 0.93336 0.0
Sc331 Sc 0.40045 0.26964 0.95521 0.0
Sc332 Sc 0.43923 0.30867 0.88302 0.0
O333 O 0.43573 0.27697 0.92393 0.0
C334 C 0.49456 0.31203 0.92959 0.0
C335 C 0.44574 0.25963 0.02963 0.0
C336 C 0.39949 0.33294 0.95699 0.0
C337 C 0.41948 0.21026 0.93961 0.0
C338 C 0.47549 0.2637 0.83403 0.0
C339 C 0.38258 0.28595 0.85647 0.0
O340 O 0.49648 0.28632 0.92906 0.0
O341 O 0.42097 0.25994 0.01752 0.0
O342 O 0.41271 0.33442 0.92097 0.0
O343 O 0.44442 0.21641 0.94212 0.0
O344 O 0.46662 0.28765 0.83936 0.0
O345 O 0.37683 0.27906 0.89614 0.0
O346 O 0.4728 0.24539 0.86337 0.0
O347 O 0.40094 0.22788 0.93571 0.0
O348 O 0.40582 0.29426 0.84459 0.0
O349 O 0.4655 0.26005 0.00271 0.0
O350 O 0.47277 0.32433 0.9199 0.0
O351 O 0.39602 0.31078 0.97757 0.0
H352 H 0.21899 0.11214 0.21714 0.0
H353 H 0.2043 0.17284 0.11728 0.0
H354 H 0.20273 0.14291 0.27415 0.0
H355 H 0.18764 0.20387 0.17461 0.0
H356 H 0.17239 0.20127 0.37295 0.0
H357 H 0.20495 0.18689 0.31624 0.0
H358 H 0.14376 0.19718 0.21563 0.0
H359 H 0.11147 0.21122 0.27193 0.0
C360 C 0.21316 0.13249 0.20768 0.0
C361 C 0.21271 0.14011 0.16288 0.0
C362 C 0.20397 0.1502 0.24037 0.0
C363 C 0.19366 0.17575 0.22885 0.0
C364 C 0.19535 0.18423 0.18439 0.0
C365 C 0.20503 0.16659 0.15164 0.0
C366 C 0.16625 0.20125 0.33853 0.0
C367 C 0.13936 0.20699 0.32684 0.0
C368 C 0.18482 0.19295 0.30612 0.0
C369 C 0.17688 0.19077 0.26149 0.0
C370 C 0.15064 0.19888 0.24956 0.0
C371 C 0.13204 0.2067 0.2819 0.0
H372 H 0.16957 0.79412 0.87299 0.0
H373 H 0.11024 0.78363 0.76959 0.0
H374 H 0.20258 0.80912 0.81782 0.0
H375 H 0.14291 0.7987 0.71485 0.0
H376 H 0.20169 0.82895 0.61968 0.0
H377 H 0.18602 0.7957 0.674 0.0
H378 H 0.20081 0.85303 0.7791 0.0
H379 H 0.21652 0.88593 0.7252 0.0
C380 C 0.16387 0.79408 0.83836 0.0
C381 C 0.13719 0.78818 0.82567 0.0
C382 C 0.18272 0.80282 0.80681 0.0
C383 C 0.17526 0.80549 0.76204 0.0
C384 C 0.14944 0.79677 0.74893 0.0
C385 C 0.13058 0.78832 0.78042 0.0
C386 C 0.20253 0.83403 0.65454 0.0
C387 C 0.20988 0.86018 0.66817 0.0
C388 C 0.19341 0.81505 0.68561 0.0
C389 C 0.19181 0.82184 0.7308 0.0
C390 C 0.2019 0.84702 0.74467 0.0
C391 C 0.21072 0.86601 0.71368 0.0
H392 H 0.87166 0.76262 0.29011 0.0
H393 H 0.84066 0.82436 0.37699 0.0
H394 H 0.84055 0.77719 0.23212 0.0
H395 H 0.81136 0.84082 0.31854 0.0
H396 H 0.76279 0.87328 0.21085 0.0
H397 H 0.77728 0.84243 0.26929 0.0
H398 H 0.83907 0.8107 0.18167 0.0
H399 H 0.82262 0.83977 0.12284 0.0
C400 C 0.85766 0.77899 0.29692 0.0
C401 C 0.85825 0.79227 0.33789 0.0
C402 C 0.84012 0.78774 0.26348 0.0
C403 C 0.82365 0.81078 0.26965 0.0
C404 C 0.82321 0.82285 0.31202 0.0
C405 C 0.84012 0.81349 0.34584 0.0
C406 C 0.77872 0.85881 0.20392 0.0
C407 C 0.79151 0.85863 0.16249 0.0
C408 C 0.78744 0.84141 0.2376 0.0
C409 C 0.80998 0.82431 0.23118 0.0
C410 C 0.8215 0.82308 0.18841 0.0
C411 C 0.81214 0.83985 0.15438 0.0
H412 H 0.76464 0.1184 0.71652 0.0
H413 H 0.81798 0.15881 0.62514 0.0
H414 H 0.7788 0.14893 0.77545 0.0
H415 H 0.83433 0.18757 0.68415 0.0
H416 H 0.86859 0.23387 0.7928 0.0
H417 H 0.83585 0.21936 0.73724 0.0
H418 H 0.81477 0.1511 0.82056 0.0
H419 H 0.84547 0.16741 0.87689 0.0
C420 C 0.77908 0.13424 0.70905 0.0
C421 C 0.79028 0.13639 0.66658 0.0
C422 C 0.7876 0.1515 0.74291 0.0
C423 C 0.80848 0.1704 0.73546 0.0
C424 C 0.8181 0.17368 0.69177 0.0
C425 C 0.80881 0.15707 0.65763 0.0
C426 C 0.85605 0.21638 0.79949 0.0
C427 C 0.85926 0.20175 0.83885 0.0
C428 C 0.83756 0.20773 0.76747 0.0
C429 C 0.82286 0.18353 0.77339 0.0
C430 C 0.82513 0.16998 0.81439 0.0
C431 C 0.84291 0.1792 0.8469 0.0
H432 H 0.65558 0.66805 0.86877 0.0
H433 H 0.6273 0.73419 0.78819 0.0
H434 H 0.68422 0.65255 0.80864 0.0
H435 H 0.65763 0.72028 0.72851 0.0
H436 H 0.66918 0.65808 0.61563 0.0
H437 H 0.65535 0.68692 0.67659 0.0
H438 H 0.71855 0.65227 0.75826 0.0
H439 H 0.73064 0.62191 0.69759 0.0
C440 C 0.65661 0.68 0.83871 0.0
C441 C 0.63941 0.7022 0.83279 0.0
C442 C 0.67313 0.67123 0.80404 0.0
C443 C 0.67306 0.68481 0.76292 0.0
C444 C 0.65768 0.70874 0.75898 0.0
C445 C 0.6406 0.71703 0.79331 0.0
C446 C 0.68052 0.65731 0.6463 0.0
C447 C 0.70085 0.63794 0.65226 0.0
C448 C 0.67274 0.67395 0.68144 0.0
C449 C 0.68547 0.6718 0.7231 0.0
C450 C 0.70766 0.65403 0.72731 0.0
C451 C 0.71491 0.63688 0.69246 0.0
H452 H 0.62911 0.25654 0.27988 0.0
H453 H 0.65974 0.31651 0.37015 0.0
H454 H 0.66006 0.2725 0.22269 0.0
H455 H 0.68869 0.33447 0.31259 0.0
H456 H 0.73558 0.37062 0.20562 0.0
H457 H 0.72202 0.33851 0.26283 0.0
H458 H 0.661 0.30668 0.17409 0.0
H459 H 0.67665 0.33697 0.11649 0.0
C460 C 0.64299 0.27281 0.2876 0.0
C461 C 0.64231 0.28521 0.32929 0.0
C462 C 0.66042 0.28241 0.25461 0.0
C463 C 0.67659 0.30549 0.26196 0.0
C464 C 0.67706 0.31656 0.30505 0.0
C465 C 0.66034 0.3063 0.33841 0.0
C466 C 0.72001 0.35591 0.19821 0.0
C467 C 0.70725 0.35598 0.15682 0.0
C468 C 0.71182 0.33775 0.23118 0.0
C469 C 0.68978 0.32014 0.22411 0.0
C470 C 0.67823 0.31937 0.18137 0.0
C471 C 0.68709 0.33688 0.14804 0.0
H472 H 0.3792 0.26311 0.77478 0.0
H473 H 0.33799 0.31691 0.86448 0.0
H474 H 0.34943 0.27735 0.71479 0.0
H475 H 0.31 0.33336 0.80447 0.0
H476 H 0.26576 0.36845 0.69424 0.0
H477 H 0.27903 0.33535 0.75021 0.0
H478 H 0.34808 0.31324 0.66937 0.0
H479 H 0.33301 0.34434 0.61255 0.0
C480 C 0.36331 0.27763 0.78166 0.0
C481 C 0.36072 0.28894 0.82397 0.0
C482 C 0.34649 0.28622 0.74718 0.0
C483 C 0.32765 0.3073 0.75386 0.0
C484 C 0.32387 0.31699 0.7974 0.0
C485 C 0.34003 0.30764 0.83213 0.0
C486 C 0.28314 0.35559 0.68812 0.0
C487 C 0.29836 0.35866 0.64933 0.0
C488 C 0.29109 0.3369 0.72041 0.0
C489 C 0.31516 0.32183 0.71539 0.0
C490 C 0.32927 0.32391 0.67487 0.0
C491 C 0.32075 0.34191 0.64206 0.0
H492 H 0.33727 0.64325 0.12995 0.0
H493 H 0.25524 0.6488 0.17773 0.0
H494 H 0.35196 0.67498 0.1861 0.0
H495 H 0.27006 0.68099 0.23529 0.0
H496 H 0.32824 0.69156 0.3649 0.0
H497 H 0.30021 0.67553 0.30341 0.0
H498 H 0.34888 0.72182 0.21196 0.0
H499 H 0.37731 0.73686 0.27308 0.0
C500 C 0.32228 0.65179 0.15215 0.0
C501 C 0.2952 0.64366 0.14969 0.0
C502 C 0.33062 0.67017 0.18416 0.0
C503 C 0.31214 0.68073 0.21506 0.0
C504 C 0.28472 0.67324 0.21183 0.0
C505 C 0.27622 0.65501 0.17893 0.0
C506 C 0.33211 0.6992 0.33187 0.0
C507 C 0.35499 0.7152 0.32347 0.0
C508 C 0.31609 0.69002 0.29663 0.0
C509 C 0.32274 0.69693 0.25272 0.0
C510 C 0.3436 0.71571 0.24532 0.0
C511 C 0.35977 0.72448 0.28028 0.0
H512 H 0.15143 0.9818 0.09253 0.0
H513 H 0.2091 0.96794 0.98734 0.0
H514 H 0.12627 0.94158 0.0697 0.0
H515 H 0.18353 0.92801 0.96412 0.0
H516 H 0.10898 0.88103 0.90858 0.0
H517 H 0.13331 0.92128 0.9331 0.0
H518 H 0.13797 0.88856 0.06536 0.0
H519 H 0.11402 0.84787 0.04081 0.0
C520 C 0.15867 0.97022 0.06447 0.0
C521 C 0.18223 0.97799 0.04168 0.0
C522 C 0.14435 0.94719 0.05162 0.0
C523 C 0.153 0.93186 0.0152 0.0
C524 C 0.17643 0.93966 0.99221 0.0
C525 C 0.19109 0.96237 0.00562 0.0
C526 C 0.11496 0.88248 0.943 0.0
C527 C 0.10958 0.86129 0.97282 0.0
C528 C 0.12905 0.90541 0.95686 0.0
C529 C 0.13755 0.90784 0.00097 0.0
C530 C 0.13153 0.88709 0.03117 0.0
C531 C 0.11791 0.86386 0.01711 0.0
H532 H 0.88213 0.90471 0.08306 0.0
H533 H 0.84807 0.89614 0.95204 0.0
H534 H 0.92428 0.8843 0.05713 0.0
H535 H 0.89059 0.87618 0.92611 0.0
H536 H 0.9839 0.86213 0.89687 0.0
H537 H 0.94463 0.8891 0.9204 0.0
H538 H 0.93026 0.83309 0.02749 0.0
H539 H 0.96882 0.80587 0.00358 0.0
C540 C 0.88382 0.89904 0.04853 0.0
C541 C 0.8617 0.90187 0.01965 0.0
C542 C 0.9079 0.88727 0.03381 0.0
C543 C 0.91052 0.87865 0.98976 0.0
C544 C 0.88903 0.88282 0.9602 0.0
C545 C 0.86472 0.8941 0.97511 0.0
C546 C 0.97235 0.85568 0.92547 0.0
C547 C 0.97927 0.83185 0.94827 0.0
C548 C 0.94994 0.87103 0.93879 0.0
C549 C 0.93464 0.86315 0.97581 0.0
C550 C 0.94191 0.83966 -0.00095 0.0
C551 C 0.96382 0.82402 0.98517 0.0
H552 H 0.89154 0.15216 0.05315 0.0
H553 H 0.89035 0.11889 0.92076 0.0
H554 H 0.86596 0.11286 0.07983 0.0
H555 H 0.86468 0.08021 0.94738 0.0
H556 H 0.78955 0.03637 0.00212 0.0
H557 H 0.81576 0.07611 0.98045 0.0
H558 H 0.87344 0.05937 0.08411 0.0
H559 H 0.84749 0.01933 0.10562 0.0
C560 C 0.88602 0.13644 0.02988 0.0
C561 C 0.89303 0.13864 0.98488 0.0
C562 C 0.87144 0.11401 0.04514 0.0
C563 C 0.86319 0.09375 0.01549 0.0
C564 C 0.87056 0.09574 0.97077 0.0
C565 C 0.88547 0.1178 0.95569 0.0
C566 C 0.8077 0.04125 0.02052 0.0
C567 C 0.81653 0.02463 0.05542 0.0
C568 C 0.82273 0.0639 0.00799 0.0
C569 C 0.84661 0.07065 0.03058 0.0
C570 C 0.85503 0.0546 0.06634 0.0
C571 C 0.84026 0.03165 0.0784 0.0
H572 H 0.00321 0.14353 0.98071 0.0
H573 H 0.04903 0.20004 0.90192 0.0
H574 H 0.04477 0.12034 0.00153 0.0
H575 H 0.09048 0.17578 0.91949 0.0
H576 H 0.16288 0.14754 -0.00171 0.0
H577 H 0.12152 0.16897 0.97357 0.0
H578 H 0.07984 0.09221 0.98341 0.0
H579 H 0.12115 0.07135 0.01157 0.0
C580 C 0.02224 0.15068 0.96731 0.0
C581 C 0.02302 0.17369 0.94014 0.0
C582 C 0.04613 0.13724 0.97885 0.0
C583 C 0.07131 0.14607 0.96245 0.0
C584 C 0.07176 0.16869 0.93397 0.0
C585 C 0.04796 0.18257 0.92354 0.0
C586 C 0.14491 0.1352 -0.00524 0.0
C587 C 0.14523 0.10777 0.00683 0.0
C588 C 0.12109 0.14747 0.98025 0.0
C589 C 0.09701 0.13248 0.97624 0.0
C590 C 0.09766 0.1047 0.98695 0.0
C591 C 0.12141 0.09259 0.00268 0.0
H592 H 0.86441 0.98754 0.59319 0.0
H593 H 0.80344 0.96617 0.497 0.0
H594 H 0.89105 0.94764 0.57144 0.0
H595 H 0.83042 0.92699 0.47461 0.0
H596 H 0.90468 0.88151 0.41567 0.0
H597 H 0.88377 0.92364 0.44051 0.0
H598 H 0.87582 0.89101 0.57231 0.0
H599 H 0.89619 0.84834 0.54745 0.0
C600 C 0.85686 0.97447 0.56722 0.0
C601 C 0.83186 0.97982 0.54682 0.0
C602 C 0.87201 0.95171 0.55498 0.0
C603 C 0.86269 0.9345 0.52138 0.0
C604 C 0.83798 0.94012 0.5005 0.0
C605 C 0.82256 0.96241 0.51344 0.0
C606 C 0.89895 0.88341 0.45015 0.0
C607 C 0.90197 0.86155 0.47959 0.0
C608 C 0.88691 0.90747 0.46421 0.0
C609 C 0.87825 0.91036 0.50816 0.0
C610 C 0.88252 0.88916 0.53828 0.0
C611 C 0.89405 0.86481 0.52401 0.0
H612 H 0.87766 0.11433 0.5838 0.0
H613 H 0.84662 0.11226 0.45006 0.0
H614 H 0.91724 0.13921 0.55808 0.0
H615 H 0.8866 0.13695 0.42437 0.0
H616 H 0.97942 0.15153 0.39815 0.0
H617 H 0.93879 0.12733 0.42152 0.0
H618 H 0.92484 0.18704 0.52323 0.0
H619 H 0.96532 0.21156 0.49962 0.0
C620 C 0.87939 0.11896 0.54885 0.0
C621 C 0.85904 0.11126 0.51891 0.0
C622 C 0.90194 0.1334 0.53427 0.0
C623 C 0.90483 0.14006 0.48935 0.0
C624 C 0.8848 0.13197 0.45918 0.0
C625 C 0.86196 0.11791 0.47389 0.0
C626 C 0.96765 0.15956 0.42542 0.0
C627 C 0.97559 0.18343 0.44713 0.0
C628 C 0.94435 0.14578 0.43856 0.0
C629 C 0.92881 0.15533 0.47417 0.0
C630 C 0.93663 0.17922 0.49582 0.0
C631 C 0.95968 0.19329 0.48217 0.0
H632 H 0.08033 0.11263 0.43789 0.0
H633 H 0.12295 0.15947 0.53655 0.0
H634 H 0.10048 0.07127 0.46754 0.0
H635 H 0.14271 0.11821 0.56616 0.0
H636 H 0.20321 0.04791 0.55518 0.0
H637 H 0.17734 0.08772 0.53468 0.0
H638 H 0.10402 0.04035 0.53375 0.0
H639 H 0.13007 3e-05 0.55408 0.0
C640 C 0.09359 0.11411 0.46631 0.0
C641 C 0.10036 0.13945 0.48434 0.0
C642 C 0.10504 0.09039 0.48339 0.0
C643 C 0.12345 0.09159 0.51875 0.0
C644 C 0.12898 0.11674 0.53833 0.0
C645 C 0.11757 0.14038 0.52137 0.0
C646 C 0.18156 0.04587 0.55081 0.0
C647 C 0.16874 0.02072 0.5562 0.0
C648 C 0.16669 0.06879 0.5394 0.0
C649 C 0.13863 0.06718 0.53287 0.0
C650 C 0.12566 0.04212 0.53843 0.0
C651 C 0.14056 0.01911 0.55026 0.0
H652 H 0.15284 0.88696 0.45186 0.0
H653 H 0.11897 0.88771 0.58385 0.0
H654 H 0.11296 0.86262 0.42508 0.0
H655 H 0.07948 0.86307 0.55706 0.0
H656 H 0.03422 0.7883 0.49948 0.0
H657 H 0.0737 0.81403 0.52389 0.0
H658 H 0.06023 0.87208 0.41939 0.0
H659 H 0.02046 0.84667 0.39523 0.0
C660 C 0.13685 0.88207 0.47505 0.0
C661 C 0.13903 0.88927 0.51995 0.0
C662 C 0.11407 0.86822 0.45971 0.0
C663 C 0.09335 0.86086 0.48914 0.0
C664 C 0.09534 0.86833 0.53383 0.0
C665 C 0.11784 0.88261 0.54902 0.0
C666 C 0.03977 0.80645 0.48154 0.0
C667 C 0.02423 0.81549 0.44547 0.0
C668 C 0.06222 0.82124 0.49569 0.0
C669 C 0.06985 0.84503 0.47355 0.0
C670 C 0.05475 0.85375 0.43688 0.0
C671 C 0.03199 0.83926 0.42323 0.0
H672 H 0.63817 0.48166 0.58017 0.0
H673 H 0.70257 0.46278 0.48841 0.0
H674 H 0.61424 0.44056 0.55772 0.0
H675 H 0.6782 0.42204 0.46531 0.0
H676 H 0.60669 0.37323 0.40241 0.0
H677 H 0.62894 0.41479 0.42651 0.0
H678 H 0.62725 0.3866 0.5617 0.0
H679 H 0.6055 0.34454 0.53762 0.0
C680 C 0.64713 0.46881 0.55507 0.0
C681 C 0.67223 0.4754 0.536 0.0
C682 C 0.63349 0.4453 0.54246 0.0
C683 C 0.64442 0.42832 0.50982 0.0
C684 C 0.66937 0.43496 0.49044 0.0
C685 C 0.68332 0.45814 0.50378 0.0
C686 C 0.61075 0.37599 0.43735 0.0
C687 C 0.60431 0.35564 0.46817 0.0
C688 C 0.62366 0.39966 0.451 0.0
C689 C 0.62984 0.4037 0.49582 0.0
C690 C 0.6226 0.38387 0.52694 0.0
C691 C 0.61022 0.35987 0.51316 0.0
H692 H 0.38499 0.39352 0.57375 0.0
H693 H 0.35382 0.39581 0.44008 0.0
H694 H 0.42433 0.3682 0.54798 0.0
H695 H 0.39359 0.37071 0.41437 0.0
H696 H 0.4853 0.34889 0.38822 0.0
H697 H 0.44683 0.3768 0.41115 0.0
H698 H 0.42817 0.31937 0.51438 0.0
H699 H 0.4663 0.29121 0.49124 0.0
C700 C 0.38674 0.38907 0.53875 0.0
C701 C 0.36623 0.39666 0.50895 0.0
C702 C 0.40916 0.37437 0.52413 0.0
C703 C 0.41181 0.36736 0.47932 0.0
C704 C 0.39198 0.37593 0.44911 0.0
C705 C 0.36926 0.39024 0.46385 0.0
C706 C 0.47294 0.34218 0.41572 0.0
C707 C 0.47883 0.31784 0.43793 0.0
C708 C 0.45091 0.35811 0.42867 0.0
C709 C 0.43471 0.35027 0.46462 0.0
C710 C 0.44053 0.32595 0.48677 0.0
C711 C 0.46222 0.30977 0.47333 0.0
H712 H 0.36028 0.51779 0.59112 0.0
H713 H 0.29502 0.53625 0.50085 0.0
H714 H 0.38417 0.55872 0.56673 0.0
H715 H 0.31925 0.57656 0.4759 0.0
H716 H 0.39135 0.62191 0.40756 0.0
H717 H 0.37033 0.58064 0.43579 0.0
H718 H 0.36876 0.61459 0.56729 0.0
H719 H 0.38924 0.65638 0.53905 0.0
C720 C 0.35111 0.53055 0.5661 0.0
C721 C 0.32579 0.52393 0.54792 0.0
C722 C 0.3647 0.5539 0.55234 0.0
C723 C 0.35347 0.57052 0.51947 0.0
C724 C 0.32826 0.56389 0.50122 0.0
C725 C 0.3144 0.54096 0.51565 0.0
C726 C 0.38683 0.62051 0.4426 0.0
C727 C 0.39185 0.6424 0.47111 0.0
C728 C 0.37472 0.59697 0.4586 0.0
C729 C 0.36798 0.59466 0.50354 0.0
C730 C 0.37392 0.61602 0.5325 0.0
C731 C 0.38551 0.63986 0.51632 0.0
H732 H 0.49898 0.64017 0.42435 0.0
H733 H 0.54408 0.71414 0.44357 0.0
H734 H 0.53909 0.61385 0.44313 0.0
H735 H 0.5841 0.68768 0.46257 0.0
H736 H 0.65714 0.63198 0.45261 0.0
H737 H 0.61691 0.65577 0.42681 0.0
H738 H 0.56708 0.60557 0.51067 0.0
H739 H 0.60722 0.5816 0.53647 0.0
C740 C 0.51743 0.65086 0.43247 0.0
C741 C 0.51826 0.67933 0.43248 0.0
C742 C 0.54037 0.63573 0.4434 0.0
C743 C 0.56473 0.6487 0.4542 0.0
C744 C 0.56568 0.67712 0.45385 0.0
C745 C 0.54268 0.69228 0.44328 0.0
C746 C 0.63759 0.6257 0.46513 0.0
C747 C 0.63547 0.60493 0.49684 0.0
C748 C 0.61458 0.63951 0.45058 0.0
C749 C 0.5889 0.63271 0.46705 0.0
C750 C 0.5866 0.61119 0.49724 0.0
C751 C 0.60964 0.59751 0.5121 0.0
H752 H 0.41074 0.38509 0.93386 0.0
H753 H 0.3581 0.33724 0.01713 0.0
H754 H 0.38668 0.42592 0.95592 0.0
H755 H 0.33406 0.37835 0.03932 0.0
H756 H 0.27917 0.45444 0.02105 0.0
H757 H 0.30361 0.41297 0.00202 0.0
H758 H 0.37954 0.45391 0.02358 0.0
H759 H 0.35536 0.49524 0.04232 0.0
C760 C 0.39417 0.38328 0.95716 0.0
C761 C 0.38635 0.35787 0.97372 0.0
C762 C 0.38045 0.40672 0.96989 0.0
C763 C 0.35843 0.40529 -0.00082 0.0
C764 C 0.35079 0.37998 0.01631 0.0
C765 C 0.36473 0.35651 0.00393 0.0
C766 C 0.30107 0.45461 0.02158 0.0
C767 C 0.31528 0.4782 0.03317 0.0
C768 C 0.31504 0.43081 0.01105 0.0
C769 C 0.34347 0.43022 0.01142 0.0
C770 C 0.35763 0.45382 0.0227 0.0
C771 C 0.34373 0.47748 0.0336 0.0
H772 H 0.37489 0.57315 0.9894 0.0
H773 H 0.33521 0.65097 0.99413 0.0
H774 H 0.41615 0.59477 0.96293 0.0
H775 H 0.37663 0.67284 0.9707 0.0
H776 H 0.44966 0.70592 0.90168 0.0
H777 H 0.4075 0.68212 0.91599 0.0
H778 H 0.45165 0.62072 0.98848 0.0
H779 H 0.49382 0.64372 0.97135 0.0
C780 C 0.37502 0.59488 0.98463 0.0
C781 C 0.35185 0.61036 0.9937 0.0
C782 C 0.39874 0.60737 0.96992 0.0
C783 C 0.40001 0.6357 0.96505 0.0
C784 C 0.37649 0.65099 0.97316 0.0
C785 C 0.35265 0.63844 0.98682 0.0
C786 C 0.45024 0.68731 0.92062 0.0
C787 C 0.47494 0.6767 0.93558 0.0
C788 C 0.42606 0.67366 0.92904 0.0
C789 C 0.42595 0.64942 0.95361 0.0
C790 C 0.45081 0.63894 0.96863 0.0
C791 C 0.47504 0.65226 0.95924 0.0
H792 H 0.58094 0.6115 0.94702 0.0
H793 H 0.63125 0.66122 0.031 0.0
H794 H 0.60463 0.57123 0.97296 0.0
H795 H 0.65489 0.62078 0.05692 0.0
H796 H 0.71264 0.54679 0.03837 0.0
H797 H 0.68666 0.58737 0.02025 0.0
H798 H 0.61233 0.5435 0.04142 0.0
H799 H 0.63811 0.50292 0.0594 0.0
C800 C 0.5968 0.61382 0.97145 0.0
C801 C 0.60426 0.63961 0.98679 0.0
C802 C 0.61031 0.59072 0.9864 0.0
C803 C 0.63174 0.59291 0.01668 0.0
C804 C 0.63865 0.61856 0.03315 0.0
C805 C 0.62493 0.64167 0.01859 0.0
C806 C 0.69077 0.54578 0.03922 0.0
C807 C 0.6775 0.52155 0.05023 0.0
C808 C 0.6759 0.56909 0.02919 0.0
C809 C 0.64748 0.56858 0.02953 0.0
C810 C 0.63421 0.54442 0.04064 0.0
C811 C 0.64904 0.52121 0.05108 0.0
H812 H 0.49786 0.3664 0.94752 0.0
H813 H 0.54632 0.2937 0.93818 0.0
H814 H 0.53825 0.39213 0.96769 0.0
H815 H 0.58629 0.31931 0.95851 0.0
H816 H 0.65703 0.37557 0.95404 0.0
H817 H 0.61543 0.35538 0.92688 0.0
H818 H 0.57066 0.39398 0.03219 0.0
H819 H 0.6123 0.41452 0.05947 0.0
C820 C 0.51707 0.35593 0.9496 0.0
C821 C 0.51885 0.32798 0.94124 0.0
C822 C 0.54013 0.37065 0.96132 0.0
C823 C 0.56539 0.35774 0.96439 0.0
C824 C 0.56716 0.32989 0.95573 0.0
C825 C 0.54417 0.31517 0.94441 0.0
C826 C 0.63833 0.38007 0.97124 0.0
C827 C 0.63812 0.39641 0.00935 0.0
C828 C 0.61451 0.36839 0.9557 0.0
C829 C 0.58991 0.37283 0.97777 0.0
C830 C 0.58935 0.39029 0.01445 0.0
C831 C 0.61324 0.40194 0.03015 0.0
H832 H 0.22467 0.95696 0.74125 0.0
H833 H 0.26448 0.02206 0.67168 0.0
H834 H 0.23236 0.9801 0.81147 0.0
H835 H 0.27159 0.04573 0.74255 0.0
H836 H 0.23054 0.08155 0.88404 0.0
H837 H 0.23194 0.06369 0.80801 0.0
H838 H 0.27981 0.99602 0.85275 0.0
H839 H 0.27899 0.0136 0.92765 0.0
C840 C 0.23531 0.97612 0.74114 0.0
C841 C 0.2442 0.98766 0.70128 0.0
C842 C 0.23963 0.98935 0.78117 0.0
C843 C 0.25241 0.01467 0.78209 0.0
C844 C 0.26159 0.02624 0.74239 0.0
C845 C 0.25781 0.01262 0.70216 0.0
C846 C 0.24186 0.06321 0.8774 0.0
C847 C 0.25415 0.04874 0.91213 0.0
C848 C 0.24273 0.0531 0.83399 0.0
C849 C 0.25582 0.02844 0.82501 0.0
C850 C 0.26947 0.01498 0.85908 0.0
C851 C 0.2688 0.02507 0.90202 0.0
H852 H 0.02203 0.73524 0.31874 0.0
H853 H 0.9482 0.75963 0.25389 0.0
H854 H 0.04579 0.73634 0.24745 0.0
H855 H 0.97134 0.75962 0.18277 0.0
H856 H 0.02238 0.79837 0.08126 0.0
H857 H 0.00352 0.79184 0.15485 0.0
H858 H 0.05152 0.71928 0.17076 0.0
H859 H 0.07127 0.72667 0.09698 0.0
C860 C 0.0107 0.73973 0.28893 0.0
C861 C 0.98342 0.74753 0.29151 0.0
C862 C 0.0243 0.74052 0.24824 0.0
C863 C 0.01062 0.74892 0.20978 0.0
C864 C 0.98267 0.75402 0.21208 0.0
C865 C 0.96929 0.75366 0.2526 0.0
C866 C 0.02942 0.78148 0.10108 0.0
C867 C 0.04826 0.76309 0.08395 0.0
C868 C 0.01834 0.77744 0.14286 0.0
C869 C 0.02538 0.75453 0.16801 0.0
C870 C 0.04561 0.73702 0.15202 0.0
C871 C 0.05704 0.74132 0.11011 0.0
H872 H 0.72776 0.98769 0.92362 0.0
H873 H 0.77471 0.91691 0.88888 0.0
H874 H 0.72593 0.00084 0.84618 0.0
H875 H 0.77258 0.93012 0.81091 0.0
H876 H 0.80188 0.99208 0.70393 0.0
H877 H 0.79499 0.96913 0.77393 0.0
H878 H 0.70992 0.989 0.7693 0.0
H879 H 0.7169 0.01232 0.69826 0.0
C880 C 0.73747 0.97474 0.89941 0.0
C881 C 0.75186 0.95149 0.91254 0.0
C882 C 0.73607 0.98214 0.85493 0.0
C883 C 0.74916 0.96655 0.82259 0.0
C884 C 0.76245 0.94259 0.83532 0.0
C885 C 0.76369 0.93506 0.8799 0.0
C886 C 0.78161 0.99142 0.71757 0.0
C887 C 0.75997 0.00438 0.69606 0.0
C888 C 0.77763 0.97793 0.75743 0.0
C889 C 0.75194 0.97725 0.77703 0.0
C890 C 0.72998 0.98933 0.75485 0.0
C891 C 0.73392 0.00261 0.71433 0.0
H892 H 0.92487 0.23407 0.107 0.0
H893 H 0.99903 0.26741 0.05409 0.0
H894 H 0.9428 0.23955 0.1822 0.0
H895 H 0.01651 0.27285 0.12849 0.0
H896 H 0.05016 0.22834 0.25267 0.0
H897 H 0.02972 0.23448 0.18015 0.0
H898 H 0.96147 0.27497 0.24023 0.0
H899 H 0.98225 0.26897 0.31354 0.0
C900 C 0.94472 0.24291 0.11138 0.0
C901 C 0.96077 0.24967 0.07459 0.0
C902 C 0.95486 0.24622 0.15432 0.0
C903 C 0.98111 0.25635 0.16084 0.0
C904 C 0.99637 0.26465 0.12421 0.0
C905 C 0.98634 0.26136 0.08161 0.0
C906 C 0.03103 0.23898 0.25034 0.0
C907 C 0.01774 0.2482 0.28849 0.0
C908 C 0.01937 0.24257 0.2089 0.0
C909 C 0.99403 0.25516 0.20479 0.0
C910 C 0.981 0.26513 0.24276 0.0
C911 C 0.99296 0.26193 0.28443 0.0
H912 H 0.75311 0.94676 0.24083 0.0
H913 H 0.73619 0.02299 0.17693 0.0
H914 H 0.75177 0.96882 0.31284 0.0
H915 H 0.73613 0.04562 0.24916 0.0
H916 H 0.72568 0.07121 0.39892 0.0
H917 H 0.71763 0.05198 0.32494 0.0
H918 H 0.78566 0.9981 0.34352 0.0
H919 H 0.79284 0.01649 0.41706 0.0
C920 C 0.74841 0.96816 0.24248 0.0
C921 C 0.74482 0.98326 0.2037 0.0
C922 C 0.74801 0.9809 0.28354 0.0
C923 C 0.74479 0.00913 0.28649 0.0
C924 C 0.73879 0.02388 0.2479 0.0
C925 C 0.73869 0.01095 0.20665 0.0
C926 C 0.73914 0.05566 0.38645 0.0
C927 C 0.75979 0.04515 0.41334 0.0
C928 C 0.73445 0.04455 0.34442 0.0
C929 C 0.75049 0.02296 0.32902 0.0
C930 C 0.77229 0.01399 0.35504 0.0
C931 C 0.7767 0.02476 0.39686 0.0
H932 H 0.02065 0.28064 0.56893 0.0
H933 H 0.07886 0.21848 0.60185 0.0
H934 H 0.00373 0.27997 0.64455 0.0
H935 H 0.06193 0.21802 0.67803 0.0
H936 H 0.99159 0.19417 0.77229 0.0
H937 H 0.01674 0.20126 0.70444 0.0
H938 H 0.0141 0.28765 0.72538 0.0
H939 H 0.98863 0.28064 0.79406 0.0
C940 C 0.03016 0.26716 0.59258 0.0
C941 C 0.05076 0.24925 0.57935 0.0
C942 C 0.02061 0.26699 0.63598 0.0
C943 C 0.03133 0.24876 0.66692 0.0
C944 C 0.05313 0.23206 0.65453 0.0
C945 C 0.0629 0.23241 0.61109 0.0
C946 C 0.99627 0.21475 0.76264 0.0
C947 C 0.98788 0.23688 0.78852 0.0
C948 C 0.01105 0.21874 0.72399 0.0
C949 C 0.01766 0.24496 0.71 0.0
C950 C 0.00929 0.2672 0.73561 0.0
C951 C 0.99466 0.26319 0.77474 0.0
H952 H 0.27179 0.93104 0.39904 0.0
H953 H 0.20016 0.97922 0.42009 0.0
H954 H 0.27656 0.95035 0.32448 0.0
H955 H 0.20384 0.9974 0.34558 0.0
H956 H 0.23129 0.05112 0.23899 0.0
H957 H 0.23212 0.02933 0.31114 0.0
H958 H 0.25893 0.95479 0.25022 0.0
H959 H 0.2594 0.97735 0.17796 0.0
C960 C 0.25666 0.94512 0.38705 0.0
C961 C 0.23566 0.9538 0.41492 0.0
C962 C 0.2594 0.95626 0.34456 0.0
C963 C 0.24099 0.97599 0.32945 0.0
C964 C 0.21897 0.98305 0.35664 0.0
C965 C 0.21657 0.97237 0.39907 0.0
C966 C 0.23792 0.03025 0.24125 0.0
C967 C 0.24514 0.01583 0.20311 0.0
C968 C 0.23807 0.01762 0.28245 0.0
C969 C 0.24475 0.99002 0.28633 0.0
C970 C 0.25361 0.97602 0.24842 0.0
C971 C 0.25396 0.98892 0.2071 0.0
H972 H 0.97276 0.73965 0.82527 0.0
H973 H 0.04499 0.76756 0.75925 0.0
H974 H 0.95095 0.73272 0.75281 0.0
H975 H 0.02365 0.76026 0.68763 0.0
H976 H 0.98854 0.72331 0.56734 0.0
H977 H 0.00488 0.71995 0.64277 0.0
H978 H 0.93767 0.76831 0.68823 0.0
H979 H 0.92093 0.77188 0.6119 0.0
C980 C 0.98412 0.7436 0.79527 0.0
C981 C 0.0105 0.754 0.79748 0.0
C982 C 0.97162 0.73991 0.75408 0.0
C983 C 0.98568 0.74598 0.71488 0.0
C984 C 0.01247 0.75522 0.71737 0.0
C985 C 0.02466 0.75941 0.75825 0.0
C986 C 0.97697 0.73312 0.59324 0.0
C987 C 0.95371 0.74843 0.58339 0.0
C988 C 0.98633 0.73101 0.63649 0.0
C989 C 0.97265 0.74405 0.67105 0.0
C990 C 0.94845 0.75795 0.66199 0.0
C991 C 0.93902 0.76015 0.61837 0.0
H992 H 0.77389 0.50877 0.42927 0.0
H993 H 0.72676 0.57548 0.37747 0.0
H994 H 0.7793 0.49084 0.3551 0.0
H995 H 0.73257 0.55722 0.30237 0.0
H996 H 0.76585 0.5182 0.17052 0.0
H997 H 0.77145 0.54143 0.24191 0.0
H998 H 0.73785 0.47202 0.30904 0.0
H999 H 0.73173 0.44921 0.23819 0.0
C1000 C 0.7649 0.51982 0.40198 0.0
C1001 C 0.74925 0.54321 0.40933 0.0
C1002 C 0.76822 0.50957 0.35954 0.0
C1003 C 0.75613 0.52253 0.32344 0.0
C1004 C 0.74216 0.547 0.32997 0.0
C1005 C 0.73872 0.55733 0.37281 0.0
C1006 C 0.76027 0.50778 0.20075 0.0
C1007 C 0.74849 0.48194 0.19921 0.0
C1008 C 0.76321 0.52113 0.24128 0.0
C1009 C 0.75503 0.50843 0.28059 0.0
C1010 C 0.74445 0.4821 0.27907 0.0
C1011 C 0.74097 0.46907 0.23869 0.0
H1012 H 0.5806 0.27247 0.60252 0.0
H1013 H 0.51181 0.22324 0.56671 0.0
H1014 H 0.56596 0.27139 0.67997 0.0
H1015 H 0.49728 0.22236 0.64359 0.0
H1016 H 0.48455 0.21491 0.79226 0.0
H1017 H 0.50839 0.20779 0.72176 0.0
H1018 H 0.52548 0.29334 0.71432 0.0
H1019 H 0.50198 0.30042 0.78377 0.0
C1020 C 0.56263 0.26112 0.61121 0.0
C1021 C 0.54712 0.24836 0.57839 0.0
C1022 C 0.55425 0.26052 0.65547 0.0
C1023 C 0.53041 0.24688 0.66771 0.0
C1024 C 0.51584 0.23282 0.63526 0.0
C1025 C 0.52403 0.23364 0.5911 0.0
C1026 C 0.49365 0.23206 0.77564 0.0
C1027 C 0.49102 0.25825 0.79315 0.0
C1028 C 0.50726 0.22801 0.73542 0.0
C1029 C 0.51886 0.25003 0.71269 0.0
C1030 C 0.5171 0.27594 0.73128 0.0
C1031 C 0.50327 0.28001 0.77085 0.0
H1032 H 0.23438 0.48583 0.17485 0.0
H1033 H 0.28199 0.55074 0.23042 0.0
H1034 H 0.23101 0.46495 0.24841 0.0
H1035 H 0.27852 0.53003 0.30329 0.0
H1036 H 0.24334 0.5023 0.43206 0.0
H1037 H 0.24044 0.52034 0.35777 0.0
H1038 H 0.26638 0.44359 0.3044 0.0
H1039 H 0.26936 0.42501 0.37966 0.0
C1040 C 0.24373 0.49582 0.20283 0.0
C1041 C 0.25839 0.51993 0.19705 0.0
C1042 C 0.24204 0.48374 0.24465 0.0
C1043 C 0.25455 0.4959 0.28125 0.0
C1044 C 0.26854 0.52035 0.27558 0.0
C1045 C 0.27056 0.53217 0.23389 0.0
C1046 C 0.24834 0.48902 0.40474 0.0
C1047 C 0.25699 0.46222 0.41198 0.0
C1048 C 0.24663 0.49946 0.36213 0.0
C1049 C 0.25341 0.48342 0.32559 0.0
C1050 C 0.26095 0.45629 0.33225 0.0
C1051 C 0.2628 0.44575 0.37523 0.0
H1052 H 0.48286 0.77722 0.56079 0.0
H1053 H 0.42113 0.7194 0.5967 0.0
H1054 H 0.50017 0.77641 0.63616 0.0
H1055 H 0.43859 0.71864 0.67265 0.0
H1056 H 0.51389 0.78013 0.78597 0.0
H1057 H 0.48925 0.78665 0.71642 0.0
H1058 H 0.48325 0.70005 0.70059 0.0
H1059 H 0.50766 0.69342 0.76939 0.0
C1060 C 0.47275 0.76461 0.58503 0.0
C1061 C 0.45089 0.74806 0.57282 0.0
C1062 C 0.48254 0.76435 0.62826 0.0
C1063 C 0.47084 0.74733 0.66005 0.0
C1064 C 0.44809 0.73178 0.64851 0.0
C1065 C 0.43804 0.7323 0.60524 0.0
C1066 C 0.50732 0.76252 0.7676 0.0
C1067 C 0.51296 0.73628 0.78308 0.0
C1068 C 0.49318 0.76625 0.72795 0.0
C1069 C 0.48412 0.74383 0.70351 0.0
C1070 C 0.48955 0.71769 0.71918 0.0
C1071 C 0.50389 0.71394 0.75836 0.0
H1072 H 0.27568 0.58062 0.88455 0.0
H1073 H 0.21245 0.52375 0.91746 0.0
H1074 H 0.27718 0.56246 0.80925 0.0
H1075 H 0.21406 0.50567 0.84245 0.0
H1076 H 0.21707 0.48956 0.69153 0.0
H1077 H 0.2085 0.5155 0.75935 0.0
H1078 H 0.29403 0.51553 0.78794 0.0
H1079 H 0.30267 0.48977 0.72119 0.0
C1080 C 0.26165 0.56476 0.8754 0.0
C1081 C 0.24427 0.55329 0.90699 0.0
C1082 C 0.26261 0.55428 0.83247 0.0
C1083 C 0.24597 0.53245 0.82038 0.0
C1084 C 0.22705 0.52252 0.85089 0.0
C1085 C 0.2263 0.53276 0.89389 0.0
C1086 C 0.23398 0.49505 0.71242 0.0
C1087 C 0.26052 0.48745 0.70102 0.0
C1088 C 0.22908 0.50995 0.75103 0.0
C1089 C 0.25067 0.51786 0.77836 0.0
C1090 C 0.27708 0.51021 0.76697 0.0
C1091 C 0.28194 0.4951 0.72894 0.0
H1092 H 0.57422 0.7351 0.10244 0.0
H1093 H 0.50163 0.77122 0.04841 0.0
H1094 H 0.55569 0.74069 0.17736 0.0
H1095 H 0.48355 0.77669 0.12246 0.0
H1096 H 0.44745 0.73188 0.24484 0.0
H1097 H 0.46895 0.7378 0.17301 0.0
H1098 H 0.53701 0.77684 0.2356 0.0
H1099 H 0.5151 0.77116 0.30819 0.0
C1100 C 0.55462 0.74459 0.10652 0.0
C1101 C 0.53914 0.75208 0.06945 0.0
C1102 C 0.54413 0.74794 0.14929 0.0
C1103 C 0.5181 0.75884 0.15537 0.0
C1104 C 0.5035 0.7679 0.11852 0.0
C1105 C 0.51387 0.76459 0.07611 0.0
C1106 C 0.46675 0.7422 0.24319 0.0
C1107 C 0.47962 0.75115 0.28182 0.0
C1108 C 0.47903 0.74562 0.20215 0.0
C1109 C 0.50463 0.75772 0.19895 0.0
C1110 C 0.51729 0.76738 0.23742 0.0
C1111 C 0.50469 0.76438 0.27867 0.0
H1112 H 0.77394 0.48299 0.91916 0.0
H1113 H 0.71525 0.4214 0.88673 0.0
H1114 H 0.77292 0.49917 0.84299 0.0
H1115 H 0.71422 0.43779 0.81015 0.0
H1116 H 0.68923 0.50697 0.71237 0.0
H1117 H 0.69601 0.48329 0.78197 0.0
H1118 H 0.78246 0.48575 0.76221 0.0
H1119 H 0.77578 0.50952 0.6918 0.0
C1120 C 0.76109 0.47268 0.89554 0.0
C1121 C 0.74438 0.45118 0.9089 0.0
C1122 C 0.76072 0.48181 0.85191 0.0
C1123 C 0.74338 0.46982 0.82095 0.0
C1124 C 0.72762 0.44746 0.83366 0.0
C1125 C 0.72829 0.43804 0.87729 0.0
C1126 C 0.70974 0.50255 0.72273 0.0
C1127 C 0.73201 0.51035 0.69672 0.0
C1128 C 0.71355 0.48866 0.76233 0.0
C1129 C 0.73971 0.48249 0.7771 0.0
C1130 C 0.76207 0.49025 0.75133 0.0
C1131 C 0.75824 0.50388 0.71121 0.0
H1132 H 0.47447 0.23682 0.31445 0.0
H1133 H 0.55115 0.25013 0.24997 0.0
H1134 H 0.45174 0.23723 0.24226 0.0
H1135 H 0.52898 0.24921 0.17806 0.0
H1136 H 0.48296 0.2898 0.07118 0.0
H1137 H 0.50125 0.28315 0.14492 0.0
H1138 H 0.44426 0.21833 0.16766 0.0
H1139 H 0.42515 0.22592 0.09346 0.0
C1140 C 0.48653 0.23868 0.28464 0.0
C1141 C 0.51445 0.24356 0.28741 0.0
C1142 C 0.47355 0.23905 0.24339 0.0
C1143 C 0.48846 0.24408 0.20455 0.0
C1144 C 0.51678 0.24624 0.20745 0.0
C1145 C 0.52957 0.24637 0.24849 0.0
C1146 C 0.47403 0.27445 0.09226 0.0
C1147 C 0.45276 0.25833 0.07685 0.0
C1148 C 0.48473 0.27035 0.13427 0.0
C1149 C 0.47481 0.24959 0.16166 0.0
C1150 C 0.45244 0.23436 0.14721 0.0
C1151 C 0.44141 0.23877 0.105 0.0
H1152 H 0.43979 0.17876 0.00521 0.0
H1153 H 0.37855 0.1808 0.90346 0.0
H1154 H 0.41691 0.14029 0.04017 0.0
H1155 H 0.35643 0.14162 0.93743 0.0
H1156 H 0.3182 0.1268 0.09487 0.0
H1157 H 0.35751 0.15084 0.06522 0.0
H1158 H 0.37191 0.08555 0.97358 0.0
H1159 H 0.33329 0.06086 0.00464 0.0
C1160 C 0.42226 0.17011 0.98906 0.0
C1161 C 0.41095 0.18262 0.95151 0.0
C1162 C 0.40917 0.14823 0.00922 0.0
C1163 C 0.38512 0.13807 0.99122 0.0
C1164 C 0.37519 0.14899 0.95148 0.0
C1165 C 0.38781 0.17132 0.93206 0.0
C1166 C 0.33072 0.11693 0.07022 0.0
C1167 C 0.32301 0.0919 0.0524 0.0
C1168 C 0.35308 0.13069 0.05314 0.0
C1169 C 0.36756 0.11993 0.01722 0.0
C1170 C 0.36116 0.094 0.00162 0.0
C1171 C 0.33925 0.07986 0.01963 0.0
H1172 H 0.1649 0.56301 0.00364 0.0
H1173 H 0.18033 0.62795 0.09548 0.0
H1174 H 0.1255 0.58761 0.97499 0.0
H1175 H 0.14025 0.65188 0.06831 0.0
H1176 H 0.05818 0.68138 0.01279 0.0
H1177 H 0.08142 0.64248 0.04601 0.0
H1178 H 0.13919 0.64294 0.93902 0.0
H1179 H 0.11677 0.68255 0.90682 0.0
C1180 C 0.15888 0.58173 0.01953 0.0
C1181 C 0.1754 0.59355 0.05203 0.0
C1182 C 0.1365 0.59583 0.0029 0.0
C1183 C 0.12996 0.62148 0.01964 0.0
C1184 C 0.14478 0.63194 0.05537 0.0
C1185 C 0.16759 0.61824 0.07104 0.0
C1186 C 0.07514 0.67243 -0.00462 0.0
C1187 C 0.08567 0.6848 0.95711 0.0
C1188 C 0.08845 0.65031 0.01453 0.0
C1189 C 0.11188 0.63979 -0.00518 0.0
C1190 C 0.1209 0.65057 0.9544 0.0
C1191 C 0.10811 0.67315 0.93598 0.0
H1192 H 0.69238 0.86301 0.07395 0.0
H1193 H 0.66625 0.93693 0.01058 0.0
H1194 H 0.65491 0.83884 0.03951 0.0
H1195 H 0.62868 0.91239 0.9758 0.0
H1196 H 0.63087 0.8066 0.90154 0.0
H1197 H 0.65553 0.84389 0.93564 0.0
H1198 H 0.58461 0.86582 0.01061 0.0
H1199 H 0.55959 0.82848 0.97613 0.0
C1200 C 0.67802 0.8743 0.05409 0.0
C1201 C 0.68234 0.90179 0.04472 0.0
C1202 C 0.65668 0.86046 0.0343 0.0
C1203 C 0.6393 0.87383 0.00482 0.0
C1204 C 0.64188 0.90181 -0.00137 0.0
C1205 C 0.66324 0.91581 0.01877 0.0
C1206 C 0.62014 0.82012 0.92369 0.0
C1207 C 0.59339 0.81458 0.93635 0.0
C1208 C 0.63427 0.84134 0.9433 0.0
C1209 C 0.62191 0.85734 0.9759 0.0
C1210 C 0.59439 0.85373 0.98532 0.0
C1211 C 0.58009 0.83251 0.96534 0.0
H1212 H 0.82989 0.43648 0.00076 0.0
H1213 H 0.80935 0.36647 0.07939 0.0
H1214 H 0.86824 0.41162 0.9687 0.0
H1215 H 0.84784 0.34205 0.04802 0.0
H1216 H 0.93967 0.32668 0.98401 0.0
H1217 H 0.91486 0.3651 0.01593 0.0
H1218 H 0.84517 0.34447 0.93731 0.0
H1219 H 0.86954 0.30592 0.90604 0.0
C1220 C 0.8344 0.41634 0.0129 0.0
C1221 C 0.81667 0.40332 0.0425 0.0
C1222 C 0.8562 0.40215 -0.00565 0.0
C1223 C 0.86073 0.37505 0.006 0.0
C1224 C 0.84469 0.36302 0.03885 0.0
C1225 C 0.82277 0.37699 0.05684 0.0
C1226 C 0.91951 0.33114 0.97199 0.0
C1227 C 0.90645 0.31333 0.94262 0.0
C1228 C 0.90534 0.35299 0.99046 0.0
C1229 C 0.87824 0.35748 0.97896 0.0
C1230 C 0.86616 0.34135 0.94634 0.0
C1231 C 0.88009 0.31938 0.92843 0.0
H1232 H 0.68323 0.11729 0.59191 0.0
H1233 H 0.68083 0.05904 0.48559 0.0
H1234 H 0.64416 0.14069 0.5599 0.0
H1235 H 0.64245 0.08321 0.45263 0.0
H1236 H 0.62872 0.18174 0.40199 0.0
H1237 H 0.65304 0.14232 0.43093 0.0
H1238 H 0.58829 0.12755 0.52349 0.0
H1239 H 0.56332 0.16632 0.49322 0.0
C1240 C 0.67367 0.10892 0.56271 0.0
C1241 C 0.68484 0.08627 0.54143 0.0
C1242 C 0.65139 0.12228 0.5444 0.0
C1243 C 0.64044 0.11362 0.50395 0.0
C1244 C 0.65044 0.08999 0.48411 0.0
C1245 C 0.67225 0.07614 0.50313 0.0
C1246 C 0.61912 0.16927 0.42698 0.0
C1247 C 0.5941 0.17686 0.44512 0.0
C1248 C 0.63301 0.14681 0.44356 0.0
C1249 C 0.62241 0.13206 0.47931 0.0
C1250 C 0.59663 0.13853 0.49559 0.0
C1251 C 0.58235 0.16055 0.47809 0.0
H1252 H 0.0645 0.33387 0.47747 0.0
H1253 H 0.13526 0.30767 0.40538 0.0
H1254 H 0.09067 0.37122 0.50968 0.0
H1255 H 0.16107 0.34494 0.43714 0.0
H1256 H 0.17298 0.44 0.50906 0.0
H1257 H 0.13477 0.41562 0.47573 0.0
H1258 H 0.16163 0.34196 0.53845 0.0
H1259 H 0.19966 0.36598 0.57141 0.0
C1260 C 0.08516 0.33696 0.46665 0.0
C1261 C 0.09797 0.31786 0.43913 0.0
C1262 C 0.10011 0.35817 0.48533 0.0
C1263 C 0.1278 0.36054 0.47611 0.0
C1264 C 0.1397 0.34333 0.44471 0.0
C1265 C 0.12492 0.32214 0.42639 0.0
C1266 C 0.16996 0.41889 0.51736 0.0
C1267 C 0.18935 0.40477 0.54257 0.0
C1268 C 0.14825 0.40499 0.49804 0.0
C1269 C 0.14569 0.37699 0.50426 0.0
C1270 C 0.16341 0.36357 0.53314 0.0
C1271 C 0.18506 0.37732 0.55211 0.0
H1272 H 0.43423 0.83078 0.48889 0.0
H1273 H 0.36875 0.81675 0.39741 0.0
H1274 H 0.40994 0.86995 0.51917 0.0
H1275 H 0.34511 0.85657 0.42635 0.0
H1276 H 0.31704 0.88191 0.59015 0.0
H1277 H 0.35577 0.85852 0.55702 0.0
H1278 H 0.35459 0.91435 0.44726 0.0
H1279 H 0.31657 0.93854 0.48131 0.0
C1280 C 0.41535 0.83694 0.47371 0.0
C1281 C 0.40335 0.82091 0.44069 0.0
C1282 C 0.40145 0.85919 0.49121 0.0
C1283 C 0.37582 0.86617 0.47489 0.0
C1284 C 0.36504 0.8517 0.43903 0.0
C1285 C 0.37853 0.829 0.42245 0.0
C1286 C 0.32591 0.88994 0.56007 0.0
C1287 C 0.31404 0.91211 0.53846 0.0
C1288 C 0.348 0.87659 0.54113 0.0
C1289 C 0.35804 0.88477 0.49973 0.0
C1290 C 0.34731 0.90794 0.47944 0.0
C1291 C 0.32571 0.92181 0.49906 0.0
H1292 H 0.86207 0.69406 0.42115 0.0
H1293 H 0.93564 0.66437 0.48107 0.0
H1294 H 0.83711 0.65642 0.45363 0.0
H1295 H 0.91032 0.62654 0.5139 0.0
H1296 H 0.80234 0.62917 0.58543 0.0
H1297 H 0.8403 0.65437 0.55445 0.0
H1298 H 0.86474 0.58417 0.47976 0.0
H1299 H 0.82669 0.55862 0.51117 0.0
C1300 C 0.87309 0.67889 0.4398 0.0
C1301 C 0.90073 0.6822 0.44879 0.0
C1302 C 0.8588 0.65748 0.45853 0.0
C1303 C 0.87186 0.639 0.48661 0.0
C1304 C 0.89995 0.64062 0.49223 0.0
C1305 C 0.9144 0.6621 0.47318 0.0
C1306 C 0.81658 0.61869 0.56418 0.0
C1307 C 0.81157 0.59203 0.55059 0.0
C1308 C 0.83816 0.63313 0.54627 0.0
C1309 C 0.85504 0.62118 0.51444 0.0
C1310 C 0.85196 0.59366 0.50444 0.0
C1311 C 0.83036 0.57905 0.5227 0.0
loop_
_geom_bond_atom_site_label_1
_geom_bond_atom_site_label_2
_geom_bond_distance
_geom_bond_site_symmetry_2
_ccdc_geom_bond_type
Sc0 O3 2.025 . S
Sc0 O10 2.105 . S
Sc0 O13 2.105 . S
Sc0 O16 2.105 . S
Sc0 O19 2.105 . S
Sc1 O3 2.025 . S
Sc1 O11 2.105 . S
Sc1 O15 2.105 1_554 S
Sc1 O17 2.105 . S
Sc1 O21 2.105 . S
Sc2 O3 2.025 . S
Sc2 O12 2.105 . S
Sc2 O14 2.105 . S
Sc2 O18 2.105 1_554 S
Sc2 O20 2.105 . S
O3 Sc0 2.025 . S
O3 Sc1 2.025 . S
O3 Sc2 2.025 . S
C4 O10 1.268 . S
C4 O20 1.268 . S
C5 O11 1.268 . S
C5 O19 1.268 . S
C6 O12 1.268 . S
C6 O21 1.268 . S
C7 O13 1.268 . S
C7 O17 1.268 . S
C8 O14 1.268 1_565 S
C8 O16 1.268 1_565 S
C9 O15 1.268 . S
C9 O18 1.268 . S
O10 Sc0 2.105 . S
O10 C4 1.268 . S
O11 Sc1 2.105 . S
O11 C5 1.268 . S
O12 Sc2 2.105 . S
O12 C6 1.268 . S
O13 Sc0 2.105 . S
O13 C7 1.268 . S
O14 Sc2 2.105 . S
O14 C8 1.268 1_545 S
O15 Sc1 2.105 1_556 S
O15 C9 1.268 . S
O16 Sc0 2.105 . S
O16 C8 1.268 1_545 S
O17 Sc1 2.105 . S
O17 C7 1.268 . S
O18 Sc2 2.105 1_556 S
O18 C9 1.268 . S
O19 Sc0 2.105 . S
O19 C5 1.268 . S
O20 Sc2 2.105 . S
O20 C4 1.268 . S
O21 Sc1 2.105 . S
O21 C6 1.268 . S
Sc22 O25 2.025 . S
Sc22 O32 2.105 . S
Sc22 O35 2.105 . S
Sc22 O38 2.105 . S
Sc22 O41 2.105 . S
Sc23 O25 2.025 . S
Sc23 O33 2.105 . S
Sc23 O37 2.105 . S
Sc23 O39 2.105 . S
Sc23 O43 2.105 1_556 S
Sc24 O25 2.025 . S
Sc24 O34 2.105 1_556 S
Sc24 O36 2.105 . S
Sc24 O40 2.105 . S
Sc24 O42 2.105 . S
O25 Sc22 2.025 . S
O25 Sc23 2.025 . S
O25 Sc24 2.025 . S
C26 O32 1.268 1_655 S
C26 O42 1.268 1_655 S
C27 O33 1.268 . S
C27 O41 1.268 . S
C28 O34 1.268 . S
C28 O43 1.268 . S
C29 O35 1.268 . S
C29 O39 1.268 . S
C30 O36 1.268 . S
C30 O38 1.268 . S
C31 O37 1.268 . S
C31 O40 1.268 . S
O32 Sc22 2.105 . S
O32 C26 1.268 1_455 S
O33 Sc23 2.105 . S
O33 C27 1.268 . S
O34 Sc24 2.105 1_554 S
O34 C28 1.268 . S
O35 Sc22 2.105 . S
O35 C29 1.268 . S
O36 Sc24 2.105 . S
O36 C30 1.268 . S
O37 Sc23 2.105 . S
O37 C31 1.268 . S
O38 Sc22 2.105 . S
O38 C30 1.268 . S
O39 Sc23 2.105 . S
O39 C29 1.268 . S
O40 Sc24 2.105 . S
O40 C31 1.268 . S
O41 Sc22 2.105 . S
O41 C27 1.268 . S
O42 Sc24 2.105 . S
O42 C26 1.268 1_455 S
O43 Sc23 2.105 1_554 S
O43 C28 1.268 . S
Sc44 O47 2.025 . S
Sc44 O54 2.105 . S
Sc44 O57 2.105 . S
Sc44 O60 2.105 . S
Sc44 O63 2.105 1_554 S
Sc45 O47 2.025 . S
Sc45 O55 2.105 1_554 S
Sc45 O59 2.105 . S
Sc45 O61 2.105 . S
Sc45 O65 2.105 . S
Sc46 O47 2.025 . S
Sc46 O56 2.105 . S
Sc46 O58 2.105 . S
Sc46 O62 2.105 . S
Sc46 O64 2.105 . S
O47 Sc44 2.025 . S
O47 Sc45 2.025 . S
O47 Sc46 2.025 . S
C48 O54 1.268 1_545 S
C48 O64 1.268 1_545 S
C49 O55 1.268 . S
C49 O63 1.268 . S
C50 O56 1.268 . S
C50 O65 1.268 . S
C51 O57 1.268 . S
C51 O61 1.268 . S
C52 O58 1.268 . S
C52 O60 1.268 . S
C53 O59 1.268 . S
C53 O62 1.268 . S
O54 Sc44 2.105 . S
O54 C48 1.268 1_565 S
O55 Sc45 2.105 1_556 S
O55 C49 1.268 . S
O56 Sc46 2.105 . S
O56 C50 1.268 . S
O57 Sc44 2.105 . S
O57 C51 1.268 . S
O58 Sc46 2.105 . S
O58 C52 1.268 . S
O59 Sc45 2.105 . S
O59 C53 1.268 . S
O60 Sc44 2.105 . S
O60 C52 1.268 . S
O61 Sc45 2.105 . S
O61 C51 1.268 . S
O62 Sc46 2.105 . S
O62 C53 1.268 . S
O63 Sc44 2.105 1_556 S
O63 C49 1.268 . S
O64 Sc46 2.105 . S
O64 C48 1.268 1_565 S
O65 Sc45 2.105 . S
O65 C50 1.268 . S
Sc66 O69 2.025 . S
Sc66 O76 2.105 . S
Sc66 O79 2.105 1_556 S
Sc66 O82 2.105 . S
Sc66 O85 2.105 . S
Sc67 O69 2.025 . S
Sc67 O77 2.105 . S
Sc67 O81 2.105 . S
Sc67 O83 2.105 1_556 S
Sc67 O87 2.105 . S
Sc68 O69 2.025 . S
Sc68 O78 2.105 . S
Sc68 O80 2.105 . S
Sc68 O84 2.105 . S
Sc68 O86 2.105 . S
O69 Sc66 2.025 . S
O69 Sc67 2.025 . S
O69 Sc68 2.025 . S
C70 O76 1.268 . S
C70 O86 1.268 . S
C71 O77 1.268 . S
C71 O85 1.268 . S
C72 O78 1.268 . S
C72 O87 1.268 . S
C73 O79 1.268 . S
C73 O83 1.268 . S
C74 O80 1.268 1_455 S
C74 O82 1.268 1_455 S
C75 O81 1.268 . S
C75 O84 1.268 . S
O76 Sc66 2.105 . S
O76 C70 1.268 . S
O77 Sc67 2.105 . S
O77 C71 1.268 . S
O78 Sc68 2.105 . S
O78 C72 1.268 . S
O79 Sc66 2.105 1_554 S
O79 C73 1.268 . S
O80 Sc68 2.105 . S
O80 C74 1.268 1_655 S
O81 Sc67 2.105 . S
O81 C75 1.268 . S
O82 Sc66 2.105 . S
O82 C74 1.268 1_655 S
O83 Sc67 2.105 1_554 S
O83 C73 1.268 . S
O84 Sc68 2.105 . S
O84 C75 1.268 . S
O85 Sc66 2.105 . S
O85 C71 1.268 . S
O86 Sc68 2.105 . S
O86 C70 1.268 . S
O87 Sc67 2.105 . S
O87 C72 1.268 . S
Sc88 O91 2.025 . S
Sc88 O98 2.105 . S
Sc88 O101 2.105 . S
Sc88 O104 2.105 . S
Sc88 O107 2.105 . S
Sc89 O91 2.025 . S
Sc89 O99 2.105 . S
Sc89 O103 2.105 . S
Sc89 O105 2.105 . S
Sc89 O109 2.105 . S
Sc90 O91 2.025 . S
Sc90 O100 2.105 . S
Sc90 O102 2.105 . S
Sc90 O106 2.105 . S
Sc90 O108 2.105 . S
O91 Sc88 2.025 . S
O91 Sc89 2.025 . S
O91 Sc90 2.025 . S
C92 O98 1.268 . S
C92 O108 1.268 . S
C93 O99 1.268 . S
C93 O107 1.268 . S
C94 O100 1.268 . S
C94 O109 1.268 . S
C95 O101 1.268 . S
C95 O105 1.268 . S
C96 O102 1.268 1_565 S
C96 O104 1.268 1_565 S
C97 O103 1.268 . S
C97 O106 1.268 . S
O98 Sc88 2.105 . S
O98 C92 1.268 . S
O99 Sc89 2.105 . S
O99 C93 1.268 . S
O100 Sc90 2.105 . S
O100 C94 1.268 . S
O101 Sc88 2.105 . S
O101 C95 1.268 . S
O102 Sc90 2.105 . S
O102 C96 1.268 1_545 S
O103 Sc89 2.105 . S
O103 C97 1.268 . S
O104 Sc88 2.105 . S
O104 C96 1.268 1_545 S
O105 Sc89 2.105 . S
O105 C95 1.268 . S
O106 Sc90 2.105 . S
O106 C97 1.268 . S
O107 Sc88 2.105 . S
O107 C93 1.268 . S
O108 Sc90 2.105 . S
O108 C92 1.268 . S
O109 Sc89 2.105 . S
O109 C94 1.268 . S
Sc110 O113 2.025 . S
Sc110 O120 2.105 . S
Sc110 O123 2.105 . S
Sc110 O126 2.105 . S
Sc110 O129 2.105 . S
Sc111 O113 2.025 . S
Sc111 O121 2.105 . S
Sc111 O125 2.105 . S
Sc111 O127 2.105 . S
Sc111 O131 2.105 . S
Sc112 O113 2.025 . S
Sc112 O122 2.105 . S
Sc112 O124 2.105 . S
Sc112 O128 2.105 . S
Sc112 O130 2.105 . S
O113 Sc110 2.025 . S
O113 Sc111 2.025 . S
O113 Sc112 2.025 . S
C114 O120 1.268 . S
C114 O130 1.268 . S
C115 O121 1.268 . S
C115 O129 1.268 . S
C116 O122 1.268 . S
C116 O131 1.268 . S
C117 O123 1.268 . S
C117 O127 1.268 . S
C118 O124 1.268 1_655 S
C118 O126 1.268 1_655 S
C119 O125 1.268 . S
C119 O128 1.268 . S
O120 Sc110 2.105 . S
O120 C114 1.268 . S
O121 Sc111 2.105 . S
O121 C115 1.268 . S
O122 Sc112 2.105 . S
O122 C116 1.268 . S
O123 Sc110 2.105 . S
O123 C117 1.268 . S
O124 Sc112 2.105 . S
O124 C118 1.268 1_455 S
O125 Sc111 2.105 . S
O125 C119 1.268 . S
O126 Sc110 2.105 . S
O126 C118 1.268 1_455 S
O127 Sc111 2.105 . S
O127 C117 1.268 . S
O128 Sc112 2.105 . S
O128 C119 1.268 . S
O129 Sc110 2.105 . S
O129 C115 1.268 . S
O130 Sc112 2.105 . S
O130 C114 1.268 . S
O131 Sc111 2.105 . S
O131 C116 1.268 . S
Sc132 O135 2.025 . S
Sc132 O142 2.105 . S
Sc132 O145 2.105 . S
Sc132 O148 2.105 . S
Sc132 O151 2.105 . S
Sc133 O135 2.025 . S
Sc133 O143 2.105 . S
Sc133 O147 2.105 . S
Sc133 O149 2.105 . S
Sc133 O153 2.105 . S
Sc134 O135 2.025 . S
Sc134 O144 2.105 . S
Sc134 O146 2.105 . S
Sc134 O150 2.105 . S
Sc134 O152 2.105 . S
O135 Sc132 2.025 . S
O135 Sc133 2.025 . S
O135 Sc134 2.025 . S
C136 O142 1.268 1_545 S
C136 O152 1.268 1_545 S
C137 O143 1.268 . S
C137 O151 1.268 . S
C138 O144 1.268 . S
C138 O153 1.268 . S
C139 O145 1.268 . S
C139 O149 1.268 . S
C140 O146 1.268 . S
C140 O148 1.268 . S
C141 O147 1.268 . S
C141 O150 1.268 . S
O142 Sc132 2.105 . S
O142 C136 1.268 1_565 S
O143 Sc133 2.105 . S
O143 C137 1.268 . S
O144 Sc134 2.105 . S
O144 C138 1.268 . S
O145 Sc132 2.105 . S
O145 C139 1.268 . S
O146 Sc134 2.105 . S
O146 C140 1.268 . S
O147 Sc133 2.105 . S
O147 C141 1.268 . S
O148 Sc132 2.105 . S
O148 C140 1.268 . S
O149 Sc133 2.105 . S
O149 C139 1.268 . S
O150 Sc134 2.105 . S
O150 C141 1.268 . S
O151 Sc132 2.105 . S
O151 C137 1.268 . S
O152 Sc134 2.105 . S
O152 C136 1.268 1_565 S
O153 Sc133 2.105 . S
O153 C138 1.268 . S
Sc154 O157 2.025 . S
Sc154 O164 2.105 . S
Sc154 O167 2.105 . S
Sc154 O170 2.105 . S
Sc154 O173 2.105 . S
Sc155 O157 2.025 . S
Sc155 O165 2.105 . S
Sc155 O169 2.105 . S
Sc155 O171 2.105 . S
Sc155 O175 2.105 . S
Sc156 O157 2.025 . S
Sc156 O166 2.105 . S
Sc156 O168 2.105 . S
Sc156 O172 2.105 . S
Sc156 O174 2.105 . S
O157 Sc154 2.025 . S
O157 Sc155 2.025 . S
O157 Sc156 2.025 . S
C158 O164 1.268 1_455 S
C158 O174 1.268 1_455 S
C159 O165 1.268 . S
C159 O173 1.268 . S
C160 O166 1.268 . S
C160 O175 1.268 . S
C161 O167 1.268 . S
C161 O171 1.268 . S
C162 O168 1.268 . S
C162 O170 1.268 . S
C163 O169 1.268 . S
C163 O172 1.268 . S
O164 Sc154 2.105 . S
O164 C158 1.268 1_655 S
O165 Sc155 2.105 . S
O165 C159 1.268 . S
O166 Sc156 2.105 . S
O166 C160 1.268 . S
O167 Sc154 2.105 . S
O167 C161 1.268 . S
O168 Sc156 2.105 . S
O168 C162 1.268 . S
O169 Sc155 2.105 . S
O169 C163 1.268 . S
O170 Sc154 2.105 . S
O170 C162 1.268 . S
O171 Sc155 2.105 . S
O171 C161 1.268 . S
O172 Sc156 2.105 . S
O172 C163 1.268 . S
O173 Sc154 2.105 . S
O173 C159 1.268 . S
O174 Sc156 2.105 . S
O174 C158 1.268 1_655 S
O175 Sc155 2.105 . S
O175 C160 1.268 . S
Sc176 O179 2.025 . S
Sc176 O186 2.105 . S
Sc176 O189 2.105 . S
Sc176 O192 2.105 . S
Sc176 O195 2.105 . S
Sc177 O179 2.025 . S
Sc177 O187 2.105 . S
Sc177 O191 2.105 . S
Sc177 O193 2.105 . S
Sc177 O197 2.105 . S
Sc178 O179 2.025 . S
Sc178 O188 2.105 . S
Sc178 O190 2.105 . S
Sc178 O194 2.105 . S
Sc178 O196 2.105 . S
O179 Sc176 2.025 . S
O179 Sc177 2.025 . S
O179 Sc178 2.025 . S
C180 O186 1.268 . S
C180 O196 1.268 . S
C181 O187 1.268 . S
C181 O195 1.268 . S
C182 O188 1.268 . S
C182 O197 1.268 . S
C183 O189 1.268 . S
C183 O193 1.268 . S
C184 O190 1.268 . S
C184 O192 1.268 . S
C185 O191 1.268 . S
C185 O194 1.268 . S
O186 Sc176 2.105 . S
O186 C180 1.268 . S
O187 Sc177 2.105 . S
O187 C181 1.268 . S
O188 Sc178 2.105 . S
O188 C182 1.268 . S
O189 Sc176 2.105 . S
O189 C183 1.268 . S
O190 Sc178 2.105 . S
O190 C184 1.268 . S
O191 Sc177 2.105 . S
O191 C185 1.268 . S
O192 Sc176 2.105 . S
O192 C184 1.268 . S
O193 Sc177 2.105 . S
O193 C183 1.268 . S
O194 Sc178 2.105 . S
O194 C185 1.268 . S
O195 Sc176 2.105 . S
O195 C181 1.268 . S
O196 Sc178 2.105 . S
O196 C180 1.268 . S
O197 Sc177 2.105 . S
O197 C182 1.268 . S
Sc198 O201 2.025 . S
Sc198 O208 2.105 . S
Sc198 O211 2.105 . S
Sc198 O214 2.105 . S
Sc198 O217 2.105 . S
Sc199 O201 2.025 . S
Sc199 O209 2.105 . S
Sc199 O213 2.105 . S
Sc199 O215 2.105 . S
Sc199 O219 2.105 . S
Sc200 O201 2.025 . S
Sc200 O210 2.105 . S
Sc200 O212 2.105 . S
Sc200 O216 2.105 . S
Sc200 O218 2.105 . S
O201 Sc198 2.025 . S
O201 Sc199 2.025 . S
O201 Sc200 2.025 . S
C202 O208 1.268 . S
C202 O218 1.268 . S
C203 O209 1.268 . S
C203 O217 1.268 . S
C204 O210 1.268 . S
C204 O219 1.268 . S
C205 O211 1.268 . S
C205 O215 1.268 . S
C206 O212 1.268 . S
C206 O214 1.268 . S
C207 O213 1.268 . S
C207 O216 1.268 . S
O208 Sc198 2.105 . S
O208 C202 1.268 . S
O209 Sc199 2.105 . S
O209 C203 1.268 . S
O210 Sc200 2.105 . S
O210 C204 1.268 . S
O211 Sc198 2.105 . S
O211 C205 1.268 . S
O212 Sc200 2.105 . S
O212 C206 1.268 . S
O213 Sc199 2.105 . S
O213 C207 1.268 . S
O214 Sc198 2.105 . S
O214 C206 1.268 . S
O215 Sc199 2.105 . S
O215 C205 1.268 . S
O216 Sc200 2.105 . S
O216 C207 1.268 . S
O217 Sc198 2.105 . S
O217 C203 1.268 . S
O218 Sc200 2.105 . S
O218 C202 1.268 . S
O219 Sc199 2.105 . S
O219 C204 1.268 . S
Sc220 O223 2.025 . S
Sc220 O230 2.105 . S
Sc220 O233 2.105 . S
Sc220 O236 2.105 . S
Sc220 O239 2.105 . S
Sc221 O223 2.025 . S
Sc221 O231 2.105 . S
Sc221 O235 2.105 . S
Sc221 O237 2.105 . S
Sc221 O241 2.105 . S
Sc222 O223 2.025 . S
Sc222 O232 2.105 . S
Sc222 O234 2.105 . S
Sc222 O238 2.105 . S
Sc222 O240 2.105 . S
O223 Sc220 2.025 . S
O223 Sc221 2.025 . S
O223 Sc222 2.025 . S
C224 O230 1.268 . S
C224 O240 1.268 . S
C225 O231 1.268 . S
C225 O239 1.268 . S
C226 O232 1.268 . S
C226 O241 1.268 . S
C227 O233 1.268 . S
C227 O237 1.268 . S
C228 O234 1.268 . S
C228 O236 1.268 . S
C229 O235 1.268 . S
C229 O238 1.268 . S
O230 Sc220 2.105 . S
O230 C224 1.268 . S
O231 Sc221 2.105 . S
O231 C225 1.268 . S
O232 Sc222 2.105 . S
O232 C226 1.268 . S
O233 Sc220 2.105 . S
O233 C227 1.268 . S
O234 Sc222 2.105 . S
O234 C228 1.268 . S
O235 Sc221 2.105 . S
O235 C229 1.268 . S
O236 Sc220 2.105 . S
O236 C228 1.268 . S
O237 Sc221 2.105 . S
O237 C227 1.268 . S
O238 Sc222 2.105 . S
O238 C229 1.268 . S
O239 Sc220 2.105 . S
O239 C225 1.268 . S
O240 Sc222 2.105 . S
O240 C224 1.268 . S
O241 Sc221 2.105 . S
O241 C226 1.268 . S
Sc242 O245 2.025 . S
Sc242 O252 2.105 . S
Sc242 O255 2.105 . S
Sc242 O258 2.105 . S
Sc242 O261 2.105 . S
Sc243 O245 2.025 . S
Sc243 O253 2.105 . S
Sc243 O257 2.105 . S
Sc243 O259 2.105 . S
Sc243 O263 2.105 . S
Sc244 O245 2.025 . S
Sc244 O254 2.105 . S
Sc244 O256 2.105 . S
Sc244 O260 2.105 . S
Sc244 O262 2.105 . S
O245 Sc242 2.025 . S
O245 Sc243 2.025 . S
O245 Sc244 2.025 . S
C246 O252 1.268 . S
C246 O262 1.268 . S
C247 O253 1.268 . S
C247 O261 1.268 . S
C248 O254 1.268 . S
C248 O263 1.268 . S
C249 O255 1.268 . S
C249 O259 1.268 . S
C250 O256 1.268 . S
C250 O258 1.268 . S
C251 O257 1.268 . S
C251 O260 1.268 . S
O252 Sc242 2.105 . S
O252 C246 1.268 . S
O253 Sc243 2.105 . S
O253 C247 1.268 . S
O254 Sc244 2.105 . S
O254 C248 1.268 . S
O255 Sc242 2.105 . S
O255 C249 1.268 . S
O256 Sc244 2.105 . S
O256 C250 1.268 . S
O257 Sc243 2.105 . S
O257 C251 1.268 . S
O258 Sc242 2.105 . S
O258 C250 1.268 . S
O259 Sc243 2.105 . S
O259 C249 1.268 . S
O260 Sc244 2.105 . S
O260 C251 1.268 . S
O261 Sc242 2.105 . S
O261 C247 1.268 . S
O262 Sc244 2.105 . S
O262 C246 1.268 . S
O263 Sc243 2.105 . S
O263 C248 1.268 . S
Sc264 O267 2.025 . S
Sc264 O274 2.105 . S
Sc264 O277 2.105 1_554 S
Sc264 O280 2.105 . S
Sc264 O283 2.105 . S
Sc265 O267 2.025 . S
Sc265 O275 2.105 . S
Sc265 O279 2.105 . S
Sc265 O281 2.105 1_554 S
Sc265 O285 2.105 . S
Sc266 O267 2.025 . S
Sc266 O276 2.105 . S
Sc266 O278 2.105 . S
Sc266 O282 2.105 . S
Sc266 O284 2.105 . S
O267 Sc264 2.025 . S
O267 Sc265 2.025 . S
O267 Sc266 2.025 . S
C268 O274 1.268 . S
C268 O284 1.268 . S
C269 O275 1.268 . S
C269 O283 1.268 . S
C270 O276 1.268 . S
C270 O285 1.268 . S
C271 O277 1.268 . S
C271 O281 1.268 . S
C272 O278 1.268 . S
C272 O280 1.268 . S
C273 O279 1.268 . S
C273 O282 1.268 . S
O274 Sc264 2.105 . S
O274 C268 1.268 . S
O275 Sc265 2.105 . S
O275 C269 1.268 . S
O276 Sc266 2.105 . S
O276 C270 1.268 . S
O277 Sc264 2.105 1_556 S
O277 C271 1.268 . S
O278 Sc266 2.105 . S
O278 C272 1.268 . S
O279 Sc265 2.105 . S
O279 C273 1.268 . S
O280 Sc264 2.105 . S
O280 C272 1.268 . S
O281 Sc265 2.105 1_556 S
O281 C271 1.268 . S
O282 Sc266 2.105 . S
O282 C273 1.268 . S
O283 Sc264 2.105 . S
O283 C269 1.268 . S
O284 Sc266 2.105 . S
O284 C268 1.268 . S
O285 Sc265 2.105 . S
O285 C270 1.268 . S
Sc286 O289 2.025 . S
Sc286 O296 2.105 . S
Sc286 O299 2.105 . S
Sc286 O302 2.105 . S
Sc286 O305 2.105 . S
Sc287 O289 2.025 . S
Sc287 O297 2.105 . S
Sc287 O301 2.105 1_556 S
Sc287 O303 2.105 . S
Sc287 O307 2.105 . S
Sc288 O289 2.025 . S
Sc288 O298 2.105 . S
Sc288 O300 2.105 . S
Sc288 O304 2.105 1_556 S
Sc288 O306 2.105 . S
O289 Sc286 2.025 . S
O289 Sc287 2.025 . S
O289 Sc288 2.025 . S
C290 O296 1.268 . S
C290 O306 1.268 . S
C291 O297 1.268 . S
C291 O305 1.268 . S
C292 O298 1.268 . S
C292 O307 1.268 . S
C293 O299 1.268 . S
C293 O303 1.268 . S
C294 O300 1.268 . S
C294 O302 1.268 . S
C295 O301 1.268 . S
C295 O304 1.268 . S
O296 Sc286 2.105 . S
O296 C290 1.268 . S
O297 Sc287 2.105 . S
O297 C291 1.268 . S
O298 Sc288 2.105 . S
O298 C292 1.268 . S
O299 Sc286 2.105 . S
O299 C293 1.268 . S
O300 Sc288 2.105 . S
O300 C294 1.268 . S
O301 Sc287 2.105 1_554 S
O301 C295 1.268 . S
O302 Sc286 2.105 . S
O302 C294 1.268 . S
O303 Sc287 2.105 . S
O303 C293 1.268 . S
O304 Sc288 2.105 1_554 S
O304 C295 1.268 . S
O305 Sc286 2.105 . S
O305 C291 1.268 . S
O306 Sc288 2.105 . S
O306 C290 1.268 . S
O307 Sc287 2.105 . S
O307 C292 1.268 . S
Sc308 O311 2.025 . S
Sc308 O318 2.105 . S
Sc308 O321 2.105 . S
Sc308 O324 2.105 . S
Sc308 O327 2.105 . S
Sc309 O311 2.025 . S
Sc309 O319 2.105 . S
Sc309 O323 2.105 . S
Sc309 O325 2.105 . S
Sc309 O329 2.105 1_554 S
Sc310 O311 2.025 . S
Sc310 O320 2.105 1_554 S
Sc310 O322 2.105 . S
Sc310 O326 2.105 . S
Sc310 O328 2.105 . S
O311 Sc308 2.025 . S
O311 Sc309 2.025 . S
O311 Sc310 2.025 . S
C312 O318 1.268 . S
C312 O328 1.268 . S
C313 O319 1.268 . S
C313 O327 1.268 . S
C314 O320 1.268 . S
C314 O329 1.268 . S
C315 O321 1.268 . S
C315 O325 1.268 . S
C316 O322 1.268 . S
C316 O324 1.268 . S
C317 O323 1.268 . S
C317 O326 1.268 . S
O318 Sc308 2.105 . S
O318 C312 1.268 . S
O319 Sc309 2.105 . S
O319 C313 1.268 . S
O320 Sc310 2.105 1_556 S
O320 C314 1.268 . S
O321 Sc308 2.105 . S
O321 C315 1.268 . S
O322 Sc310 2.105 . S
O322 C316 1.268 . S
O323 Sc309 2.105 . S
O323 C317 1.268 . S
O324 Sc308 2.105 . S
O324 C316 1.268 . S
O325 Sc309 2.105 . S
O325 C315 1.268 . S
O326 Sc310 2.105 . S
O326 C317 1.268 . S
O327 Sc308 2.105 . S
O327 C313 1.268 . S
O328 Sc310 2.105 . S
O328 C312 1.268 . S
O329 Sc309 2.105 1_556 S
O329 C314 1.268 . S
Sc330 O333 2.025 . S
Sc330 O340 2.105 . S
Sc330 O343 2.105 . S
Sc330 O346 2.105 . S
Sc330 O349 2.105 1_556 S
Sc331 O333 2.025 . S
Sc331 O341 2.105 1_556 S
Sc331 O345 2.105 . S
Sc331 O347 2.105 . S
Sc331 O351 2.105 . S
Sc332 O333 2.025 . S
Sc332 O342 2.105 . S
Sc332 O344 2.105 . S
Sc332 O348 2.105 . S
Sc332 O350 2.105 . S
O333 Sc330 2.025 . S
O333 Sc331 2.025 . S
O333 Sc332 2.025 . S
C334 O340 1.268 . S
C334 O350 1.268 . S
C335 O341 1.268 . S
C335 O349 1.268 . S
C336 O342 1.268 . S
C336 O351 1.268 . S
C337 O343 1.268 . S
C337 O347 1.268 . S
C338 O344 1.268 . S
C338 O346 1.268 . S
C339 O345 1.268 . S
C339 O348 1.268 . S
O340 Sc330 2.105 . S
O340 C334 1.268 . S
O341 Sc331 2.105 1_554 S
O341 C335 1.268 . S
O342 Sc332 2.105 . S
O342 C336 1.268 . S
O343 Sc330 2.105 . S
O343 C337 1.268 . S
O344 Sc332 2.105 . S
O344 C338 1.268 . S
O345 Sc331 2.105 . S
O345 C339 1.268 . S
O346 Sc330 2.105 . S
O346 C338 1.268 . S
O347 Sc331 2.105 . S
O347 C337 1.268 . S
O348 Sc332 2.105 . S
O348 C339 1.268 . S
O349 Sc330 2.105 1_554 S
O349 C335 1.268 . S
O350 Sc332 2.105 . S
O350 C334 1.268 . S
O351 Sc331 2.105 . S
O351 C336 1.268 . S
H352 C360 0.950 . S
H353 C365 0.950 . S
H354 C362 0.950 . S
H355 C364 0.950 . S
H356 C366 0.950 . S
H357 C368 0.950 . S
H358 C370 0.950 . S
H359 C371 0.950 . S
C360 H352 0.950 . S
C360 C361 1.386 . S
C360 C362 1.391 . S
C361 C360 1.386 . S
C361 C365 1.393 . S
C362 H354 0.950 . S
C362 C360 1.391 . S
C362 C363 1.400 . S
C363 C362 1.400 . S
C363 C364 1.398 . S
C363 C369 1.491 . S
C364 H355 0.950 . S
C364 C363 1.398 . S
C364 C365 1.391 . S
C365 H353 0.950 . S
C365 C361 1.393 . S
C365 C364 1.391 . S
C366 H356 0.950 . S
C366 C367 1.386 . S
C366 C368 1.391 . S
C367 C366 1.386 . S
C367 C371 1.393 . S
C368 H357 0.950 . S
C368 C366 1.391 . S
C368 C369 1.400 . S
C369 C363 1.491 . S
C369 C368 1.400 . S
C369 C370 1.398 . S
C370 H358 0.950 . S
C370 C369 1.398 . S
C370 C371 1.391 . S
C371 H359 0.950 . S
C371 C367 1.393 . S
C371 C370 1.391 . S
H372 C380 0.950 . S
H373 C385 0.950 . S
H374 C382 0.950 . S
H375 C384 0.950 . S
H376 C386 0.950 . S
H377 C388 0.950 . S
H378 C390 0.950 . S
H379 C391 0.950 . S
C380 H372 0.950 . S
C380 C381 1.386 . S
C380 C382 1.391 . S
C381 C380 1.386 . S
C381 C385 1.393 . S
C382 H374 0.950 . S
C382 C380 1.391 . S
C382 C383 1.400 . S
C383 C382 1.400 . S
C383 C384 1.398 . S
C383 C389 1.491 . S
C384 H375 0.950 . S
C384 C383 1.398 . S
C384 C385 1.391 . S
C385 H373 0.950 . S
C385 C381 1.393 . S
C385 C384 1.391 . S
C386 H376 0.950 . S
C386 C387 1.386 . S
C386 C388 1.391 . S
C387 C386 1.386 . S
C387 C391 1.393 . S
C388 H377 0.950 . S
C388 C386 1.391 . S
C388 C389 1.400 . S
C389 C383 1.491 . S
C389 C388 1.400 . S
C389 C390 1.398 . S
C390 H378 0.950 . S
C390 C389 1.398 . S
C390 C391 1.391 . S
C391 H379 0.950 . S
C391 C387 1.393 . S
C391 C390 1.391 . S
H392 C400 0.950 . S
H393 C405 0.950 . S
H394 C402 0.950 . S
H395 C404 0.950 . S
H396 C406 0.950 . S
H397 C408 0.950 . S
H398 C410 0.950 . S
H399 C411 0.950 . S
C400 H392 0.950 . S
C400 C401 1.386 . S
C400 C402 1.391 . S
C401 C400 1.386 . S
C401 C405 1.393 . S
C402 H394 0.950 . S
C402 C400 1.391 . S
C402 C403 1.400 . S
C403 C402 1.400 . S
C403 C404 1.398 . S
C403 C409 1.491 . S
C404 H395 0.950 . S
C404 C403 1.398 . S
C404 C405 1.391 . S
C405 H393 0.950 . S
C405 C401 1.393 . S
C405 C404 1.391 . S
C406 H396 0.950 . S
C406 C407 1.386 . S
C406 C408 1.391 . S
C407 C406 1.386 . S
C407 C411 1.393 . S
C408 H397 0.950 . S
C408 C406 1.391 . S
C408 C409 1.400 . S
C409 C403 1.491 . S
C409 C408 1.400 . S
C409 C410 1.398 . S
C410 H398 0.950 . S
C410 C409 1.398 . S
C410 C411 1.391 . S
C411 H399 0.950 . S
C411 C407 1.393 . S
C411 C410 1.391 . S
H412 C420 0.950 . S
H413 C425 0.950 . S
H414 C422 0.950 . S
H415 C424 0.950 . S
H416 C426 0.950 . S
H417 C428 0.950 . S
H418 C430 0.950 . S
H419 C431 0.950 . S
C420 H412 0.950 . S
C420 C421 1.386 . S
C420 C422 1.391 . S
C421 C420 1.386 . S
C421 C425 1.393 . S
C422 H414 0.950 . S
C422 C420 1.391 . S
C422 C423 1.400 . S
C423 C422 1.400 . S
C423 C424 1.398 . S
C423 C429 1.491 . S
C424 H415 0.950 . S
C424 C423 1.398 . S
C424 C425 1.391 . S
C425 H413 0.950 . S
C425 C421 1.393 . S
C425 C424 1.391 . S
C426 H416 0.950 . S
C426 C427 1.386 . S
C426 C428 1.391 . S
C427 C426 1.386 . S
C427 C431 1.393 . S
C428 H417 0.950 . S
C428 C426 1.391 . S
C428 C429 1.400 . S
C429 C423 1.491 . S
C429 C428 1.400 . S
C429 C430 1.398 . S
C430 H418 0.950 . S
C430 C429 1.398 . S
C430 C431 1.391 . S
C431 H419 0.950 . S
C431 C427 1.393 . S
C431 C430 1.391 . S
H432 C440 0.950 . S
H433 C445 0.950 . S
H434 C442 0.950 . S
H435 C444 0.950 . S
H436 C446 0.950 . S
H437 C448 0.950 . S
H438 C450 0.950 . S
H439 C451 0.950 . S
C440 H432 0.950 . S
C440 C441 1.386 . S
C440 C442 1.391 . S
C441 C440 1.386 . S
C441 C445 1.393 . S
C442 H434 0.950 . S
C442 C440 1.391 . S
C442 C443 1.400 . S
C443 C442 1.400 . S
C443 C444 1.398 . S
C443 C449 1.491 . S
C444 H435 0.950 . S
C444 C443 1.398 . S
C444 C445 1.391 . S
C445 H433 0.950 . S
C445 C441 1.393 . S
C445 C444 1.391 . S
C446 H436 0.950 . S
C446 C447 1.386 . S
C446 C448 1.391 . S
C447 C446 1.386 . S
C447 C451 1.393 . S
C448 H437 0.950 . S
C448 C446 1.391 . S
C448 C449 1.400 . S
C449 C443 1.491 . S
C449 C448 1.400 . S
C449 C450 1.398 . S
C450 H438 0.950 . S
C450 C449 1.398 . S
C450 C451 1.391 . S
C451 H439 0.950 . S
C451 C447 1.393 . S
C451 C450 1.391 . S
H452 C460 0.950 . S
H453 C465 0.950 . S
H454 C462 0.950 . S
H455 C464 0.950 . S
H456 C466 0.950 . S
H457 C468 0.950 . S
H458 C470 0.950 . S
H459 C471 0.950 . S
C460 H452 0.950 . S
C460 C461 1.386 . S
C460 C462 1.391 . S
C461 C460 1.386 . S
C461 C465 1.393 . S
C462 H454 0.950 . S
C462 C460 1.391 . S
C462 C463 1.400 . S
C463 C462 1.400 . S
C463 C464 1.398 . S
C463 C469 1.491 . S
C464 H455 0.950 . S
C464 C463 1.398 . S
C464 C465 1.391 . S
C465 H453 0.950 . S
C465 C461 1.393 . S
C465 C464 1.391 . S
C466 H456 0.950 . S
C466 C467 1.386 . S
C466 C468 1.391 . S
C467 C466 1.386 . S
C467 C471 1.393 . S
C468 H457 0.950 . S
C468 C466 1.391 . S
C468 C469 1.400 . S
C469 C463 1.491 . S
C469 C468 1.400 . S
C469 C470 1.398 . S
C470 H458 0.950 . S
C470 C469 1.398 . S
C470 C471 1.391 . S
C471 H459 0.950 . S
C471 C467 1.393 . S
C471 C470 1.391 . S
H472 C480 0.950 . S
H473 C485 0.950 . S
H474 C482 0.950 . S
H475 C484 0.950 . S
H476 C486 0.950 . S
H477 C488 0.950 . S
H478 C490 0.950 . S
H479 C491 0.950 . S
C480 H472 0.950 . S
C480 C481 1.386 . S
C480 C482 1.391 . S
C481 C480 1.386 . S
C481 C485 1.393 . S
C482 H474 0.950 . S
C482 C480 1.391 . S
C482 C483 1.400 . S
C483 C482 1.400 . S
C483 C484 1.398 . S
C483 C489 1.491 . S
C484 H475 0.950 . S
C484 C483 1.398 . S
C484 C485 1.391 . S
C485 H473 0.950 . S
C485 C481 1.393 . S
C485 C484 1.391 . S
C486 H476 0.950 . S
C486 C487 1.386 . S
C486 C488 1.391 . S
C487 C486 1.386 . S
C487 C491 1.393 . S
C488 H477 0.950 . S
C488 C486 1.391 . S
C488 C489 1.400 . S
C489 C483 1.491 . S
C489 C488 1.400 . S
C489 C490 1.398 . S
C490 H478 0.950 . S
C490 C489 1.398 . S
C490 C491 1.391 . S
C491 H479 0.950 . S
C491 C487 1.393 . S
C491 C490 1.391 . S
H492 C500 0.950 . S
H493 C505 0.950 . S
H494 C502 0.950 . S
H495 C504 0.950 . S
H496 C506 0.950 . S
H497 C508 0.950 . S
H498 C510 0.950 . S
H499 C511 0.950 . S
C500 H492 0.950 . S
C500 C501 1.386 . S
C500 C502 1.391 . S
C501 C500 1.386 . S
C501 C505 1.393 . S
C502 H494 0.950 . S
C502 C500 1.391 . S
C502 C503 1.400 . S
C503 C502 1.400 . S
C503 C504 1.398 . S
C503 C509 1.491 . S
C504 H495 0.950 . S
C504 C503 1.398 . S
C504 C505 1.391 . S
C505 H493 0.950 . S
C505 C501 1.393 . S
C505 C504 1.391 . S
C506 H496 0.950 . S
C506 C507 1.386 . S
C506 C508 1.391 . S
C507 C506 1.386 . S
C507 C511 1.393 . S
C508 H497 0.950 . S
C508 C506 1.391 . S
C508 C509 1.400 . S
C509 C503 1.491 . S
C509 C508 1.400 . S
C509 C510 1.398 . S
C510 H498 0.950 . S
C510 C509 1.398 . S
C510 C511 1.391 . S
C511 H499 0.950 . S
C511 C507 1.393 . S
C511 C510 1.391 . S
H512 C520 0.950 . S
H513 C525 0.950 . S
H514 C522 0.950 . S
H515 C524 0.950 . S
H516 C526 0.950 . S
H517 C528 0.950 . S
H518 C530 0.950 . S
H519 C531 0.950 . S
C520 H512 0.950 . S
C520 C521 1.386 . S
C520 C522 1.391 . S
C521 C520 1.386 . S
C521 C525 1.393 1_554 S
C522 H514 0.950 . S
C522 C520 1.391 . S
C522 C523 1.400 . S
C523 C522 1.400 . S
C523 C524 1.398 1_554 S
C523 C529 1.491 . S
C524 H515 0.950 . S
C524 C523 1.398 1_556 S
C524 C525 1.391 . S
C525 H513 0.950 . S
C525 C521 1.393 1_556 S
C525 C524 1.391 . S
C526 H516 0.950 . S
C526 C527 1.386 . S
C526 C528 1.391 . S
C527 C526 1.386 . S
C527 C531 1.393 1_556 S
C528 H517 0.950 . S
C528 C526 1.391 . S
C528 C529 1.400 1_556 S
C529 C523 1.491 . S
C529 C528 1.400 1_554 S
C529 C530 1.398 . S
C530 H518 0.950 . S
C530 C529 1.398 . S
C530 C531 1.391 . S
C531 H519 0.950 . S
C531 C527 1.393 1_554 S
C531 C530 1.391 . S
H532 C540 0.950 . S
H533 C545 0.950 . S
H534 C542 0.950 . S
H535 C544 0.950 . S
H536 C546 0.950 . S
H537 C548 0.950 . S
H538 C550 0.950 . S
H539 C551 0.950 . S
C540 H532 0.950 . S
C540 C541 1.386 . S
C540 C542 1.391 . S
C541 C540 1.386 . S
C541 C545 1.393 1_554 S
C542 H534 0.950 . S
C542 C540 1.391 . S
C542 C543 1.400 1_554 S
C543 C542 1.400 1_556 S
C543 C544 1.398 . S
C543 C549 1.491 . S
C544 H535 0.950 . S
C544 C543 1.398 . S
C544 C545 1.391 . S
C545 H533 0.950 . S
C545 C541 1.393 1_556 S
C545 C544 1.391 . S
C546 H536 0.950 . S
C546 C547 1.386 . S
C546 C548 1.391 . S
C547 C546 1.386 . S
C547 C551 1.393 1_556 S
C548 H537 0.950 . S
C548 C546 1.391 . S
C548 C549 1.400 . S
C549 C543 1.491 . S
C549 C548 1.400 . S
C549 C550 1.398 1_556 S
C550 H538 0.950 . S
C550 C549 1.398 1_554 S
C550 C551 1.391 . S
C551 H539 0.950 . S
C551 C547 1.393 1_554 S
C551 C550 1.391 . S
H552 C560 0.950 . S
H553 C565 0.950 . S
H554 C562 0.950 . S
H555 C564 0.950 . S
H556 C566 0.950 . S
H557 C568 0.950 1_556 S
H558 C570 0.950 . S
H559 C571 0.950 . S
C560 H552 0.950 . S
C560 C561 1.386 1_554 S
C560 C562 1.391 . S
C561 C560 1.386 1_556 S
C561 C565 1.393 . S
C562 H554 0.950 . S
C562 C560 1.391 . S
C562 C563 1.400 . S
C563 C562 1.400 . S
C563 C564 1.398 1_554 S
C563 C569 1.491 . S
C564 H555 0.950 . S
C564 C563 1.398 1_556 S
C564 C565 1.391 . S
C565 H553 0.950 . S
C565 C561 1.393 . S
C565 C564 1.391 . S
C566 H556 0.950 . S
C566 C567 1.386 . S
C566 C568 1.391 . S
C567 C566 1.386 . S
C567 C571 1.393 . S
C568 H557 0.950 1_554 S
C568 C566 1.391 . S
C568 C569 1.400 . S
C569 C563 1.491 . S
C569 C568 1.400 . S
C569 C570 1.398 . S
C570 H558 0.950 . S
C570 C569 1.398 . S
C570 C571 1.391 . S
C571 H559 0.950 . S
C571 C567 1.393 . S
C571 C570 1.391 . S
H572 C580 0.950 . S
H573 C585 0.950 . S
H574 C582 0.950 . S
H575 C584 0.950 . S
H576 C586 0.950 . S
H577 C588 0.950 . S
H578 C590 0.950 . S
H579 C591 0.950 . S
C580 H572 0.950 . S
C580 C581 1.386 . S
C580 C582 1.391 . S
C581 C580 1.386 . S
C581 C585 1.393 . S
C582 H574 0.950 . S
C582 C580 1.391 . S
C582 C583 1.400 . S
C583 C582 1.400 . S
C583 C584 1.398 . S
C583 C589 1.491 . S
C584 H575 0.950 . S
C584 C583 1.398 . S
C584 C585 1.391 . S
C585 H573 0.950 . S
C585 C581 1.393 . S
C585 C584 1.391 . S
C586 H576 0.950 . S
C586 C587 1.386 . S
C586 C588 1.391 . S
C587 C586 1.386 . S
C587 C591 1.393 1_554 S
C588 H577 0.950 . S
C588 C586 1.391 . S
C588 C589 1.400 1_554 S
C589 C583 1.491 . S
C589 C588 1.400 1_556 S
C589 C590 1.398 . S
C590 H578 0.950 . S
C590 C589 1.398 . S
C590 C591 1.391 . S
C591 H579 0.950 . S
C591 C587 1.393 1_556 S
C591 C590 1.391 . S
H592 C600 0.950 . S
H593 C605 0.950 . S
H594 C602 0.950 . S
H595 C604 0.950 . S
H596 C606 0.950 . S
H597 C608 0.950 . S
H598 C610 0.950 . S
H599 C611 0.950 . S
C600 H592 0.950 . S
C600 C601 1.386 . S
C600 C602 1.391 . S
C601 C600 1.386 . S
C601 C605 1.393 . S
C602 H594 0.950 . S
C602 C600 1.391 . S
C602 C603 1.400 . S
C603 C602 1.400 . S
C603 C604 1.398 . S
C603 C609 1.491 . S
C604 H595 0.950 . S
C604 C603 1.398 . S
C604 C605 1.391 . S
C605 H593 0.950 . S
C605 C601 1.393 . S
C605 C604 1.391 . S
C606 H596 0.950 . S
C606 C607 1.386 . S
C606 C608 1.391 . S
C607 C606 1.386 . S
C607 C611 1.393 . S
C608 H597 0.950 . S
C608 C606 1.391 . S
C608 C609 1.400 . S
C609 C603 1.491 . S
C609 C608 1.400 . S
C609 C610 1.398 . S
C610 H598 0.950 . S
C610 C609 1.398 . S
C610 C611 1.391 . S
C611 H599 0.950 . S
C611 C607 1.393 . S
C611 C610 1.391 . S
H612 C620 0.950 . S
H613 C625 0.950 . S
H614 C622 0.950 . S
H615 C624 0.950 . S
H616 C626 0.950 . S
H617 C628 0.950 . S
H618 C630 0.950 . S
H619 C631 0.950 . S
C620 H612 0.950 . S
C620 C621 1.386 . S
C620 C622 1.391 . S
C621 C620 1.386 . S
C621 C625 1.393 . S
C622 H614 0.950 . S
C622 C620 1.391 . S
C622 C623 1.400 . S
C623 C622 1.400 . S
C623 C624 1.398 . S
C623 C629 1.491 . S
C624 H615 0.950 . S
C624 C623 1.398 . S
C624 C625 1.391 . S
C625 H613 0.950 . S
C625 C621 1.393 . S
C625 C624 1.391 . S
C626 H616 0.950 . S
C626 C627 1.386 . S
C626 C628 1.391 . S
C627 C626 1.386 . S
C627 C631 1.393 . S
C628 H617 0.950 . S
C628 C626 1.391 . S
C628 C629 1.400 . S
C629 C623 1.491 . S
C629 C628 1.400 . S
C629 C630 1.398 . S
C630 H618 0.950 . S
C630 C629 1.398 . S
C630 C631 1.391 . S
C631 H619 0.950 . S
C631 C627 1.393 . S
C631 C630 1.391 . S
H632 C640 0.950 . S
H633 C645 0.950 . S
H634 C642 0.950 . S
H635 C644 0.950 . S
H636 C646 0.950 . S
H637 C648 0.950 . S
H638 C650 0.950 . S
H639 C651 0.950 . S
C640 H632 0.950 . S
C640 C641 1.386 . S
C640 C642 1.391 . S
C641 C640 1.386 . S
C641 C645 1.393 . S
C642 H634 0.950 . S
C642 C640 1.391 . S
C642 C643 1.400 . S
C643 C642 1.400 . S
C643 C644 1.398 . S
C643 C649 1.491 . S
C644 H635 0.950 . S
C644 C643 1.398 . S
C644 C645 1.391 . S
C645 H633 0.950 . S
C645 C641 1.393 . S
C645 C644 1.391 . S
C646 H636 0.950 . S
C646 C647 1.386 . S
C646 C648 1.391 . S
C647 C646 1.386 . S
C647 C651 1.393 . S
C648 H637 0.950 . S
C648 C646 1.391 . S
C648 C649 1.400 . S
C649 C643 1.491 . S
C649 C648 1.400 . S
C649 C650 1.398 . S
C650 H638 0.950 . S
C650 C649 1.398 . S
C650 C651 1.391 . S
C651 H639 0.950 . S
C651 C647 1.393 . S
C651 C650 1.391 . S
H652 C660 0.950 . S
H653 C665 0.950 . S
H654 C662 0.950 . S
H655 C664 0.950 . S
H656 C666 0.950 . S
H657 C668 0.950 . S
H658 C670 0.950 . S
H659 C671 0.950 . S
C660 H652 0.950 . S
C660 C661 1.386 . S
C660 C662 1.391 . S
C661 C660 1.386 . S
C661 C665 1.393 . S
C662 H654 0.950 . S
C662 C660 1.391 . S
C662 C663 1.400 . S
C663 C662 1.400 . S
C663 C664 1.398 . S
C663 C669 1.491 . S
C664 H655 0.950 . S
C664 C663 1.398 . S
C664 C665 1.391 . S
C665 H653 0.950 . S
C665 C661 1.393 . S
C665 C664 1.391 . S
C666 H656 0.950 . S
C666 C667 1.386 . S
C666 C668 1.391 . S
C667 C666 1.386 . S
C667 C671 1.393 . S
C668 H657 0.950 . S
C668 C666 1.391 . S
C668 C669 1.400 . S
C669 C663 1.491 . S
C669 C668 1.400 . S
C669 C670 1.398 . S
C670 H658 0.950 . S
C670 C669 1.398 . S
C670 C671 1.391 . S
C671 H659 0.950 . S
C671 C667 1.393 . S
C671 C670 1.391 . S
H672 C680 0.950 . S
H673 C685 0.950 . S
H674 C682 0.950 . S
H675 C684 0.950 . S
H676 C686 0.950 . S
H677 C688 0.950 . S
H678 C690 0.950 . S
H679 C691 0.950 . S
C680 H672 0.950 . S
C680 C681 1.386 . S
C680 C682 1.391 . S
C681 C680 1.386 . S
C681 C685 1.393 . S
C682 H674 0.950 . S
C682 C680 1.391 . S
C682 C683 1.400 . S
C683 C682 1.400 . S
C683 C684 1.398 . S
C683 C689 1.491 . S
C684 H675 0.950 . S
C684 C683 1.398 . S
C684 C685 1.391 . S
C685 H673 0.950 . S
C685 C681 1.393 . S
C685 C684 1.391 . S
C686 H676 0.950 . S
C686 C687 1.386 . S
C686 C688 1.391 . S
C687 C686 1.386 . S
C687 C691 1.393 . S
C688 H677 0.950 . S
C688 C686 1.391 . S
C688 C689 1.400 . S
C689 C683 1.491 . S
C689 C688 1.400 . S
C689 C690 1.398 . S
C690 H678 0.950 . S
C690 C689 1.398 . S
C690 C691 1.391 . S
C691 H679 0.950 . S
C691 C687 1.393 . S
C691 C690 1.391 . S
H692 C700 0.950 . S
H693 C705 0.950 . S
H694 C702 0.950 . S
H695 C704 0.950 . S
H696 C706 0.950 . S
H697 C708 0.950 . S
H698 C710 0.950 . S
H699 C711 0.950 . S
C700 H692 0.950 . S
C700 C701 1.386 . S
C700 C702 1.391 . S
C701 C700 1.386 . S
C701 C705 1.393 . S
C702 H694 0.950 . S
C702 C700 1.391 . S
C702 C703 1.400 . S
C703 C702 1.400 . S
C703 C704 1.398 . S
C703 C709 1.491 . S
C704 H695 0.950 . S
C704 C703 1.398 . S
C704 C705 1.391 . S
C705 H693 0.950 . S
C705 C701 1.393 . S
C705 C704 1.391 . S
C706 H696 0.950 . S
C706 C707 1.386 . S
C706 C708 1.391 . S
C707 C706 1.386 . S
C707 C711 1.393 . S
C708 H697 0.950 . S
C708 C706 1.391 . S
C708 C709 1.400 . S
C709 C703 1.491 . S
C709 C708 1.400 . S
C709 C710 1.398 . S
C710 H698 0.950 . S
C710 C709 1.398 . S
C710 C711 1.391 . S
C711 H699 0.950 . S
C711 C707 1.393 . S
C711 C710 1.391 . S
H712 C720 0.950 . S
H713 C725 0.950 . S
H714 C722 0.950 . S
H715 C724 0.950 . S
H716 C726 0.950 . S
H717 C728 0.950 . S
H718 C730 0.950 . S
H719 C731 0.950 . S
C720 H712 0.950 . S
C720 C721 1.386 . S
C720 C722 1.391 . S
C721 C720 1.386 . S
C721 C725 1.393 . S
C722 H714 0.950 . S
C722 C720 1.391 . S
C722 C723 1.400 . S
C723 C722 1.400 . S
C723 C724 1.398 . S
C723 C729 1.491 . S
C724 H715 0.950 . S
C724 C723 1.398 . S
C724 C725 1.391 . S
C725 H713 0.950 . S
C725 C721 1.393 . S
C725 C724 1.391 . S
C726 H716 0.950 . S
C726 C727 1.386 . S
C726 C728 1.391 . S
C727 C726 1.386 . S
C727 C731 1.393 . S
C728 H717 0.950 . S
C728 C726 1.391 . S
C728 C729 1.400 . S
C729 C723 1.491 . S
C729 C728 1.400 . S
C729 C730 1.398 . S
C730 H718 0.950 . S
C730 C729 1.398 . S
C730 C731 1.391 . S
C731 H719 0.950 . S
C731 C727 1.393 . S
C731 C730 1.391 . S
H732 C740 0.950 . S
H733 C745 0.950 . S
H734 C742 0.950 . S
H735 C744 0.950 . S
H736 C746 0.950 . S
H737 C748 0.950 . S
H738 C750 0.950 . S
H739 C751 0.950 . S
C740 H732 0.950 . S
C740 C741 1.386 . S
C740 C742 1.391 . S
C741 C740 1.386 . S
C741 C745 1.393 . S
C742 H734 0.950 . S
C742 C740 1.391 . S
C742 C743 1.400 . S
C743 C742 1.400 . S
C743 C744 1.398 . S
C743 C749 1.491 . S
C744 H735 0.950 . S
C744 C743 1.398 . S
C744 C745 1.391 . S
C745 H733 0.950 . S
C745 C741 1.393 . S
C745 C744 1.391 . S
C746 H736 0.950 . S
C746 C747 1.386 . S
C746 C748 1.391 . S
C747 C746 1.386 . S
C747 C751 1.393 . S
C748 H737 0.950 . S
C748 C746 1.391 . S
C748 C749 1.400 . S
C749 C743 1.491 . S
C749 C748 1.400 . S
C749 C750 1.398 . S
C750 H738 0.950 . S
C750 C749 1.398 . S
C750 C751 1.391 . S
C751 H739 0.950 . S
C751 C747 1.393 . S
C751 C750 1.391 . S
H752 C760 0.950 . S
H753 C765 0.950 . S
H754 C762 0.950 . S
H755 C764 0.950 . S
H756 C766 0.950 . S
H757 C768 0.950 . S
H758 C770 0.950 1_556 S
H759 C771 0.950 1_556 S
C760 H752 0.950 . S
C760 C761 1.386 . S
C760 C762 1.391 . S
C761 C760 1.386 . S
C761 C765 1.393 1_556 S
C762 H754 0.950 . S
C762 C760 1.391 . S
C762 C763 1.400 1_556 S
C763 C762 1.400 1_554 S
C763 C764 1.398 . S
C763 C769 1.491 . S
C764 H755 0.950 . S
C764 C763 1.398 . S
C764 C765 1.391 . S
C765 H753 0.950 . S
C765 C761 1.393 1_554 S
C765 C764 1.391 . S
C766 H756 0.950 . S
C766 C767 1.386 . S
C766 C768 1.391 . S
C767 C766 1.386 . S
C767 C771 1.393 . S
C768 H757 0.950 . S
C768 C766 1.391 . S
C768 C769 1.400 . S
C769 C763 1.491 . S
C769 C768 1.400 . S
C769 C770 1.398 . S
C770 H758 0.950 1_554 S
C770 C769 1.398 . S
C770 C771 1.391 . S
C771 H759 0.950 1_554 S
C771 C767 1.393 . S
C771 C770 1.391 . S
H772 C780 0.950 . S
H773 C785 0.950 . S
H774 C782 0.950 . S
H775 C784 0.950 . S
H776 C786 0.950 . S
H777 C788 0.950 1_554 S
H778 C790 0.950 . S
H779 C791 0.950 . S
C780 H772 0.950 . S
C780 C781 1.386 1_556 S
C780 C782 1.391 . S
C781 C780 1.386 1_554 S
C781 C785 1.393 . S
C782 H774 0.950 . S
C782 C780 1.391 . S
C782 C783 1.400 . S
C783 C782 1.400 . S
C783 C784 1.398 1_556 S
C783 C789 1.491 . S
C784 H775 0.950 . S
C784 C783 1.398 1_554 S
C784 C785 1.391 . S
C785 H773 0.950 . S
C785 C781 1.393 . S
C785 C784 1.391 . S
C786 H776 0.950 . S
C786 C787 1.386 . S
C786 C788 1.391 . S
C787 C786 1.386 . S
C787 C791 1.393 . S
C788 H777 0.950 1_556 S
C788 C786 1.391 . S
C788 C789 1.400 . S
C789 C783 1.491 . S
C789 C788 1.400 . S
C789 C790 1.398 . S
C790 H778 0.950 . S
C790 C789 1.398 . S
C790 C791 1.391 . S
C791 H779 0.950 . S
C791 C787 1.393 . S
C791 C790 1.391 . S
H792 C800 0.950 . S
H793 C805 0.950 . S
H794 C802 0.950 . S
H795 C804 0.950 . S
H796 C806 0.950 . S
H797 C808 0.950 . S
H798 C810 0.950 . S
H799 C811 0.950 1_556 S
C800 H792 0.950 . S
C800 C801 1.386 . S
C800 C802 1.391 . S
C801 C800 1.386 . S
C801 C805 1.393 1_556 S
C802 H794 0.950 . S
C802 C800 1.391 . S
C802 C803 1.400 1_556 S
C803 C802 1.400 1_554 S
C803 C804 1.398 . S
C803 C809 1.491 . S
C804 H795 0.950 . S
C804 C803 1.398 . S
C804 C805 1.391 . S
C805 H793 0.950 . S
C805 C801 1.393 1_554 S
C805 C804 1.391 . S
C806 H796 0.950 . S
C806 C807 1.386 . S
C806 C808 1.391 . S
C807 C806 1.386 . S
C807 C811 1.393 . S
C808 H797 0.950 . S
C808 C806 1.391 . S
C808 C809 1.400 . S
C809 C803 1.491 . S
C809 C808 1.400 . S
C809 C810 1.398 1_554 S
C810 H798 0.950 . S
C810 C809 1.398 1_556 S
C810 C811 1.391 1_556 S
C811 H799 0.950 1_554 S
C811 C807 1.393 . S
C811 C810 1.391 1_554 S
H812 C820 0.950 1_554 S
H813 C825 0.950 . S
H814 C822 0.950 . S
H815 C824 0.950 . S
H816 C826 0.950 . S
H817 C828 0.950 . S
H818 C830 0.950 . S
H819 C831 0.950 . S
C820 H812 0.950 1_556 S
C820 C821 1.386 . S
C820 C822 1.391 1_556 S
C821 C820 1.386 . S
C821 C825 1.393 . S
C822 H814 0.950 . S
C822 C820 1.391 1_554 S
C822 C823 1.400 1_554 S
C823 C822 1.400 1_556 S
C823 C824 1.398 . S
C823 C829 1.491 . S
C824 H815 0.950 . S
C824 C823 1.398 . S
C824 C825 1.391 . S
C825 H813 0.950 . S
C825 C821 1.393 . S
C825 C824 1.391 . S
C826 H816 0.950 . S
C826 C827 1.386 1_556 S
C826 C828 1.391 . S
C827 C826 1.386 1_554 S
C827 C831 1.393 . S
C828 H817 0.950 . S
C828 C826 1.391 . S
C828 C829 1.400 . S
C829 C823 1.491 . S
C829 C828 1.400 . S
C829 C830 1.398 1_556 S
C830 H818 0.950 . S
C830 C829 1.398 1_554 S
C830 C831 1.391 . S
C831 H819 0.950 . S
C831 C827 1.393 . S
C831 C830 1.391 . S
H832 C840 0.950 . S
H833 C845 0.946 1_545 S
H834 C842 0.950 . S
H835 C844 0.950 . S
H836 C846 0.950 . S
H837 C848 0.950 . S
H838 C850 0.950 . S
H839 C851 0.950 . S
C840 H832 0.950 . S
C840 C841 1.386 . S
C840 C842 1.391 . S
C841 C840 1.386 . S
C841 C845 1.393 . S
C842 H834 0.950 . S
C842 C840 1.391 . S
C842 C843 1.400 1_565 S
C843 C842 1.400 1_545 S
C843 C844 1.398 . S
C843 C849 1.491 . S
C844 H835 0.950 . S
C844 C843 1.398 . S
C844 C845 1.391 1_545 S
C845 H833 0.946 1_565 S
C845 C841 1.393 . S
C845 C844 1.391 1_565 S
C846 H836 0.950 . S
C846 C847 1.386 . S
C846 C848 1.391 . S
C847 C846 1.386 . S
C847 C851 1.393 . S
C848 H837 0.950 . S
C848 C846 1.391 . S
C848 C849 1.400 . S
C849 C843 1.491 . S
C849 C848 1.400 . S
C849 C850 1.398 . S
C850 H838 0.950 . S
C850 C849 1.398 . S
C850 C851 1.391 . S
C851 H839 0.950 . S
C851 C847 1.393 . S
C851 C850 1.391 . S
H852 C860 0.950 . S
H853 C865 0.950 . S
H854 C862 0.950 . S
H855 C864 0.950 . S
H856 C866 0.950 . S
H857 C868 0.950 1_655 S
H858 C870 0.950 . S
H859 C871 0.950 . S
C860 H852 0.950 . S
C860 C861 1.386 1_455 S
C860 C862 1.391 . S
C861 C860 1.386 1_655 S
C861 C865 1.393 . S
C862 H854 0.950 . S
C862 C860 1.391 . S
C862 C863 1.400 . S
C863 C862 1.400 . S
C863 C864 1.398 1_455 S
C863 C869 1.491 . S
C864 H855 0.950 . S
C864 C863 1.398 1_655 S
C864 C865 1.391 . S
C865 H853 0.950 . S
C865 C861 1.393 . S
C865 C864 1.391 . S
C866 H856 0.950 . S
C866 C867 1.386 . S
C866 C868 1.391 . S
C867 C866 1.386 . S
C867 C871 1.393 . S
C868 H857 0.950 1_455 S
C868 C866 1.391 . S
C868 C869 1.400 . S
C869 C863 1.491 . S
C869 C868 1.400 . S
C869 C870 1.398 . S
C870 H858 0.950 . S
C870 C869 1.398 . S
C870 C871 1.391 . S
C871 H859 0.950 . S
C871 C867 1.393 . S
C871 C870 1.391 . S
H872 C880 0.950 . S
H873 C885 0.950 . S
H874 C882 0.950 1_545 S
H875 C884 0.950 . S
H876 C886 0.950 . S
H877 C888 0.950 . S
H878 C890 0.950 . S
H879 C891 0.950 . S
C880 H872 0.950 . S
C880 C881 1.386 . S
C880 C882 1.391 . S
C881 C880 1.386 . S
C881 C885 1.393 . S
C882 H874 0.950 1_565 S
C882 C880 1.391 . S
C882 C883 1.400 . S
C883 C882 1.400 . S
C883 C884 1.398 . S
C883 C889 1.491 . S
C884 H875 0.950 . S
C884 C883 1.398 . S
C884 C885 1.391 . S
C885 H873 0.950 . S
C885 C881 1.393 . S
C885 C884 1.391 . S
C886 H876 0.950 . S
C886 C887 1.386 1_565 S
C886 C888 1.391 . S
C887 C886 1.386 1_545 S
C887 C891 1.393 . S
C888 H877 0.950 . S
C888 C886 1.391 . S
C888 C889 1.400 . S
C889 C883 1.491 . S
C889 C888 1.400 . S
C889 C890 1.398 1_565 S
C890 H878 0.950 . S
C890 C889 1.398 1_545 S
C890 C891 1.391 . S
C891 H879 0.950 . S
C891 C887 1.393 . S
C891 C890 1.391 . S
H892 C900 0.950 . S
H893 C905 0.950 . S
H894 C902 0.950 . S
H895 C904 0.950 1_455 S
H896 C906 0.950 . S
H897 C908 0.950 . S
H898 C910 0.950 . S
H899 C911 0.950 . S
C900 H892 0.950 . S
C900 C901 1.386 . S
C900 C902 1.391 . S
C901 C900 1.386 . S
C901 C905 1.393 . S
C902 H894 0.950 . S
C902 C900 1.391 . S
C902 C903 1.400 . S
C903 C902 1.400 . S
C903 C904 1.398 . S
C903 C909 1.491 . S
C904 H895 0.950 1_655 S
C904 C903 1.398 . S
C904 C905 1.391 . S
C905 H893 0.950 . S
C905 C901 1.393 . S
C905 C904 1.391 . S
C906 H896 0.950 . S
C906 C907 1.386 . S
C906 C908 1.391 . S
C907 C906 1.386 . S
C907 C911 1.393 1_455 S
C908 H897 0.950 . S
C908 C906 1.391 . S
C908 C909 1.400 1_455 S
C909 C903 1.491 . S
C909 C908 1.400 1_655 S
C909 C910 1.398 . S
C910 H898 0.950 . S
C910 C909 1.398 . S
C910 C911 1.391 . S
C911 H899 0.950 . S
C911 C907 1.393 1_655 S
C911 C910 1.391 . S
H912 C920 0.950 . S
H913 C925 0.950 . S
H914 C922 0.950 . S
H915 C924 0.950 . S
H916 C926 0.950 . S
H917 C928 0.950 . S
H918 C930 0.950 1_565 S
H919 C931 0.950 . S
C920 H912 0.950 . S
C920 C921 1.386 . S
C920 C922 1.391 . S
C921 C920 1.386 . S
C921 C925 1.393 1_565 S
C922 H914 0.950 . S
C922 C920 1.391 . S
C922 C923 1.400 1_565 S
C923 C922 1.400 1_545 S
C923 C924 1.398 . S
C923 C929 1.491 . S
C924 H915 0.950 . S
C924 C923 1.398 . S
C924 C925 1.391 . S
C925 H913 0.950 . S
C925 C921 1.393 1_545 S
C925 C924 1.391 . S
C926 H916 0.950 . S
C926 C927 1.386 . S
C926 C928 1.391 . S
C927 C926 1.386 . S
C927 C931 1.393 . S
C928 H917 0.950 . S
C928 C926 1.391 . S
C928 C929 1.400 . S
C929 C923 1.491 . S
C929 C928 1.400 . S
C929 C930 1.398 . S
C930 H918 0.950 1_545 S
C930 C929 1.398 . S
C930 C931 1.391 . S
C931 H919 0.950 . S
C931 C927 1.393 . S
C931 C930 1.391 . S
H932 C940 0.950 . S
H933 C945 0.950 . S
H934 C942 0.950 . S
H935 C944 0.950 1_655 S
H936 C946 0.950 . S
H937 C948 0.950 . S
H938 C950 0.950 . S
H939 C951 0.950 . S
C940 H932 0.950 . S
C940 C941 1.386 . S
C940 C942 1.391 . S
C941 C940 1.386 . S
C941 C945 1.393 . S
C942 H934 0.950 . S
C942 C940 1.391 . S
C942 C943 1.400 . S
C943 C942 1.400 . S
C943 C944 1.398 . S
C943 C949 1.491 . S
C944 H935 0.950 1_455 S
C944 C943 1.398 . S
C944 C945 1.391 . S
C945 H933 0.950 . S
C945 C941 1.393 . S
C945 C944 1.391 . S
C946 H936 0.950 . S
C946 C947 1.386 . S
C946 C948 1.391 . S
C947 C946 1.386 . S
C947 C951 1.393 1_655 S
C948 H937 0.950 . S
C948 C946 1.391 . S
C948 C949 1.400 1_655 S
C949 C943 1.491 . S
C949 C948 1.400 1_455 S
C949 C950 1.398 . S
C950 H938 0.950 . S
C950 C949 1.398 . S
C950 C951 1.391 . S
C951 H939 0.950 . S
C951 C947 1.393 1_455 S
C951 C950 1.391 . S
H952 C960 0.950 . S
H953 C965 0.950 . S
H954 C962 0.950 . S
H955 C964 0.950 1_545 S
H956 C966 0.950 . S
H957 C968 0.950 . S
H958 C970 0.950 . S
H959 C971 0.950 . S
C960 H952 0.950 . S
C960 C961 1.386 . S
C960 C962 1.391 . S
C961 C960 1.386 . S
C961 C965 1.393 . S
C962 H954 0.950 . S
C962 C960 1.391 . S
C962 C963 1.400 . S
C963 C962 1.400 . S
C963 C964 1.398 . S
C963 C969 1.491 . S
C964 H955 0.950 1_565 S
C964 C963 1.398 . S
C964 C965 1.391 . S
C965 H953 0.950 . S
C965 C961 1.393 . S
C965 C964 1.391 . S
C966 H956 0.950 . S
C966 C967 1.386 . S
C966 C968 1.391 . S
C967 C966 1.386 . S
C967 C971 1.393 1_545 S
C968 H957 0.950 . S
C968 C966 1.391 . S
C968 C969 1.400 1_545 S
C969 C963 1.491 . S
C969 C968 1.400 1_565 S
C969 C970 1.398 . S
C970 H958 0.950 . S
C970 C969 1.398 . S
C970 C971 1.391 . S
C971 H959 0.950 . S
C971 C967 1.393 1_565 S
C971 C970 1.391 . S
H972 C980 0.950 . S
H973 C985 0.950 . S
H974 C982 0.950 . S
H975 C984 0.950 . S
H976 C986 0.950 . S
H977 C988 0.950 1_455 S
H978 C990 0.950 . S
H979 C991 0.950 . S
C980 H972 0.950 . S
C980 C981 1.386 1_655 S
C980 C982 1.391 . S
C981 C980 1.386 1_455 S
C981 C985 1.393 . S
C982 H974 0.950 . S
C982 C980 1.391 . S
C982 C983 1.400 . S
C983 C982 1.400 . S
C983 C984 1.398 1_655 S
C983 C989 1.491 . S
C984 H975 0.950 . S
C984 C983 1.398 1_455 S
C984 C985 1.391 . S
C985 H973 0.950 . S
C985 C981 1.393 . S
C985 C984 1.391 . S
C986 H976 0.950 . S
C986 C987 1.386 . S
C986 C988 1.391 . S
C987 C986 1.386 . S
C987 C991 1.393 . S
C988 H977 0.950 1_655 S
C988 C986 1.391 . S
C988 C989 1.400 . S
C989 C983 1.491 . S
C989 C988 1.400 . S
C989 C990 1.398 . S
C990 H978 0.950 . S
C990 C989 1.398 . S
C990 C991 1.391 . S
C991 H979 0.950 . S
C991 C987 1.393 . S
C991 C990 1.391 . S
H992 C1000 0.950 . S
H993 C1005 0.950 . S
H994 C1002 0.950 . S
H995 C1004 0.950 . S
H996 C1006 0.950 . S
H997 C1008 0.950 . S
H998 C1010 0.950 . S
H999 C1011 0.950 . S
C1000 H992 0.950 . S
C1000 C1001 1.386 . S
C1000 C1002 1.391 . S
C1001 C1000 1.386 . S
C1001 C1005 1.393 . S
C1002 H994 0.950 . S
C1002 C1000 1.391 . S
C1002 C1003 1.400 . S
C1003 C1002 1.400 . S
C1003 C1004 1.398 . S
C1003 C1009 1.491 . S
C1004 H995 0.950 . S
C1004 C1003 1.398 . S
C1004 C1005 1.391 . S
C1005 H993 0.950 . S
C1005 C1001 1.393 . S
C1005 C1004 1.391 . S
C1006 H996 0.950 . S
C1006 C1007 1.386 . S
C1006 C1008 1.391 . S
C1007 C1006 1.386 . S
C1007 C1011 1.393 . S
C1008 H997 0.950 . S
C1008 C1006 1.391 . S
C1008 C1009 1.400 . S
C1009 C1003 1.491 . S
C1009 C1008 1.400 . S
C1009 C1010 1.398 . S
C1010 H998 0.950 . S
C1010 C1009 1.398 . S
C1010 C1011 1.391 . S
C1011 H999 0.950 . S
C1011 C1007 1.393 . S
C1011 C1010 1.391 . S
H1012 C1020 0.950 . S
H1013 C1025 0.950 . S
H1014 C1022 0.950 . S
H1015 C1024 0.950 . S
H1016 C1026 0.950 . S
H1017 C1028 0.950 . S
H1018 C1030 0.950 . S
H1019 C1031 0.950 . S
C1020 H1012 0.950 . S
C1020 C1021 1.386 . S
C1020 C1022 1.391 . S
C1021 C1020 1.386 . S
C1021 C1025 1.393 . S
C1022 H1014 0.950 . S
C1022 C1020 1.391 . S
C1022 C1023 1.400 . S
C1023 C1022 1.400 . S
C1023 C1024 1.398 . S
C1023 C1029 1.491 . S
C1024 H1015 0.950 . S
C1024 C1023 1.398 . S
C1024 C1025 1.391 . S
C1025 H1013 0.950 . S
C1025 C1021 1.393 . S
C1025 C1024 1.391 . S
C1026 H1016 0.950 . S
C1026 C1027 1.386 . S
C1026 C1028 1.391 . S
C1027 C1026 1.386 . S
C1027 C1031 1.393 . S
C1028 H1017 0.950 . S
C1028 C1026 1.391 . S
C1028 C1029 1.400 . S
C1029 C1023 1.491 . S
C1029 C1028 1.400 . S
C1029 C1030 1.398 . S
C1030 H1018 0.950 . S
C1030 C1029 1.398 . S
C1030 C1031 1.391 . S
C1031 H1019 0.950 . S
C1031 C1027 1.393 . S
C1031 C1030 1.391 . S
H1032 C1040 0.950 . S
H1033 C1045 0.950 . S
H1034 C1042 0.950 . S
H1035 C1044 0.950 . S
H1036 C1046 0.950 . S
H1037 C1048 0.950 . S
H1038 C1050 0.950 . S
H1039 C1051 0.950 . S
C1040 H1032 0.950 . S
C1040 C1041 1.386 . S
C1040 C1042 1.391 . S
C1041 C1040 1.386 . S
C1041 C1045 1.393 . S
C1042 H1034 0.950 . S
C1042 C1040 1.391 . S
C1042 C1043 1.400 . S
C1043 C1042 1.400 . S
C1043 C1044 1.398 . S
C1043 C1049 1.491 . S
C1044 H1035 0.950 . S
C1044 C1043 1.398 . S
C1044 C1045 1.391 . S
C1045 H1033 0.950 . S
C1045 C1041 1.393 . S
C1045 C1044 1.391 . S
C1046 H1036 0.950 . S
C1046 C1047 1.386 . S
C1046 C1048 1.391 . S
C1047 C1046 1.386 . S
C1047 C1051 1.393 . S
C1048 H1037 0.950 . S
C1048 C1046 1.391 . S
C1048 C1049 1.400 . S
C1049 C1043 1.491 . S
C1049 C1048 1.400 . S
C1049 C1050 1.398 . S
C1050 H1038 0.950 . S
C1050 C1049 1.398 . S
C1050 C1051 1.391 . S
C1051 H1039 0.950 . S
C1051 C1047 1.393 . S
C1051 C1050 1.391 . S
H1052 C1060 0.950 . S
H1053 C1065 0.950 . S
H1054 C1062 0.950 . S
H1055 C1064 0.950 . S
H1056 C1066 0.950 . S
H1057 C1068 0.950 . S
H1058 C1070 0.950 . S
H1059 C1071 0.950 . S
C1060 H1052 0.950 . S
C1060 C1061 1.386 . S
C1060 C1062 1.391 . S
C1061 C1060 1.386 . S
C1061 C1065 1.393 . S
C1062 H1054 0.950 . S
C1062 C1060 1.391 . S
C1062 C1063 1.400 . S
C1063 C1062 1.400 . S
C1063 C1064 1.398 . S
C1063 C1069 1.491 . S
C1064 H1055 0.950 . S
C1064 C1063 1.398 . S
C1064 C1065 1.391 . S
C1065 H1053 0.950 . S
C1065 C1061 1.393 . S
C1065 C1064 1.391 . S
C1066 H1056 0.950 . S
C1066 C1067 1.386 . S
C1066 C1068 1.391 . S
C1067 C1066 1.386 . S
C1067 C1071 1.393 . S
C1068 H1057 0.950 . S
C1068 C1066 1.391 . S
C1068 C1069 1.400 . S
C1069 C1063 1.491 . S
C1069 C1068 1.400 . S
C1069 C1070 1.398 . S
C1070 H1058 0.950 . S
C1070 C1069 1.398 . S
C1070 C1071 1.391 . S
C1071 H1059 0.950 . S
C1071 C1067 1.393 . S
C1071 C1070 1.391 . S
H1072 C1080 0.950 . S
H1073 C1085 0.950 . S
H1074 C1082 0.950 . S
H1075 C1084 0.950 . S
H1076 C1086 0.950 . S
H1077 C1088 0.950 . S
H1078 C1090 0.950 . S
H1079 C1091 0.950 . S
C1080 H1072 0.950 . S
C1080 C1081 1.386 . S
C1080 C1082 1.391 . S
C1081 C1080 1.386 . S
C1081 C1085 1.393 . S
C1082 H1074 0.950 . S
C1082 C1080 1.391 . S
C1082 C1083 1.400 . S
C1083 C1082 1.400 . S
C1083 C1084 1.398 . S
C1083 C1089 1.491 . S
C1084 H1075 0.950 . S
C1084 C1083 1.398 . S
C1084 C1085 1.391 . S
C1085 H1073 0.950 . S
C1085 C1081 1.393 . S
C1085 C1084 1.391 . S
C1086 H1076 0.950 . S
C1086 C1087 1.386 . S
C1086 C1088 1.391 . S
C1087 C1086 1.386 . S
C1087 C1091 1.393 . S
C1088 H1077 0.950 . S
C1088 C1086 1.391 . S
C1088 C1089 1.400 . S
C1089 C1083 1.491 . S
C1089 C1088 1.400 . S
C1089 C1090 1.398 . S
C1090 H1078 0.950 . S
C1090 C1089 1.398 . S
C1090 C1091 1.391 . S
C1091 H1079 0.950 . S
C1091 C1087 1.393 . S
C1091 C1090 1.391 . S
H1092 C1100 0.950 . S
H1093 C1105 0.950 . S
H1094 C1102 0.950 . S
H1095 C1104 0.950 . S
H1096 C1106 0.950 . S
H1097 C1108 0.950 . S
H1098 C1110 0.950 . S
H1099 C1111 0.950 . S
C1100 H1092 0.950 . S
C1100 C1101 1.386 . S
C1100 C1102 1.391 . S
C1101 C1100 1.386 . S
C1101 C1105 1.393 . S
C1102 H1094 0.950 . S
C1102 C1100 1.391 . S
C1102 C1103 1.400 . S
C1103 C1102 1.400 . S
C1103 C1104 1.398 . S
C1103 C1109 1.491 . S
C1104 H1095 0.950 . S
C1104 C1103 1.398 . S
C1104 C1105 1.391 . S
C1105 H1093 0.950 . S
C1105 C1101 1.393 . S
C1105 C1104 1.391 . S
C1106 H1096 0.950 . S
C1106 C1107 1.386 . S
C1106 C1108 1.391 . S
C1107 C1106 1.386 . S
C1107 C1111 1.393 . S
C1108 H1097 0.950 . S
C1108 C1106 1.391 . S
C1108 C1109 1.400 . S
C1109 C1103 1.491 . S
C1109 C1108 1.400 . S
C1109 C1110 1.398 . S
C1110 H1098 0.950 . S
C1110 C1109 1.398 . S
C1110 C1111 1.391 . S
C1111 H1099 0.950 . S
C1111 C1107 1.393 . S
C1111 C1110 1.391 . S
H1112 C1120 0.950 . S
H1113 C1125 0.950 . S
H1114 C1122 0.950 . S
H1115 C1124 0.950 . S
H1116 C1126 0.950 . S
H1117 C1128 0.950 . S
H1118 C1130 0.950 . S
H1119 C1131 0.950 . S
C1120 H1112 0.950 . S
C1120 C1121 1.386 . S
C1120 C1122 1.391 . S
C1121 C1120 1.386 . S
C1121 C1125 1.393 . S
C1122 H1114 0.950 . S
C1122 C1120 1.391 . S
C1122 C1123 1.400 . S
C1123 C1122 1.400 . S
C1123 C1124 1.398 . S
C1123 C1129 1.491 . S
C1124 H1115 0.950 . S
C1124 C1123 1.398 . S
C1124 C1125 1.391 . S
C1125 H1113 0.950 . S
C1125 C1121 1.393 . S
C1125 C1124 1.391 . S
C1126 H1116 0.950 . S
C1126 C1127 1.386 . S
C1126 C1128 1.391 . S
C1127 C1126 1.386 . S
C1127 C1131 1.393 . S
C1128 H1117 0.950 . S
C1128 C1126 1.391 . S
C1128 C1129 1.400 . S
C1129 C1123 1.491 . S
C1129 C1128 1.400 . S
C1129 C1130 1.398 . S
C1130 H1118 0.950 . S
C1130 C1129 1.398 . S
C1130 C1131 1.391 . S
C1131 H1119 0.950 . S
C1131 C1127 1.393 . S
C1131 C1130 1.391 . S
H1132 C1140 0.950 . S
H1133 C1145 0.950 . S
H1134 C1142 0.950 . S
H1135 C1144 0.950 . S
H1136 C1146 0.950 . S
H1137 C1148 0.950 . S
H1138 C1150 0.950 . S
H1139 C1151 0.950 . S
C1140 H1132 0.950 . S
C1140 C1141 1.386 . S
C1140 C1142 1.391 . S
C1141 C1140 1.386 . S
C1141 C1145 1.393 . S
C1142 H1134 0.950 . S
C1142 C1140 1.391 . S
C1142 C1143 1.400 . S
C1143 C1142 1.400 . S
C1143 C1144 1.398 . S
C1143 C1149 1.491 . S
C1144 H1135 0.950 . S
C1144 C1143 1.398 . S
C1144 C1145 1.391 . S
C1145 H1133 0.950 . S
C1145 C1141 1.393 . S
C1145 C1144 1.391 . S
C1146 H1136 0.950 . S
C1146 C1147 1.386 . S
C1146 C1148 1.391 . S
C1147 C1146 1.386 . S
C1147 C1151 1.393 . S
C1148 H1137 0.950 . S
C1148 C1146 1.391 . S
C1148 C1149 1.400 . S
C1149 C1143 1.491 . S
C1149 C1148 1.400 . S
C1149 C1150 1.398 . S
C1150 H1138 0.950 . S
C1150 C1149 1.398 . S
C1150 C1151 1.391 . S
C1151 H1139 0.950 . S
C1151 C1147 1.393 . S
C1151 C1150 1.391 . S
H1152 C1160 0.950 . S
H1153 C1165 0.950 . S
H1154 C1162 0.950 1_554 S
H1155 C1164 0.950 . S
H1156 C1166 0.950 . S
H1157 C1168 0.950 1_556 S
H1158 C1170 0.950 . S
H1159 C1171 0.950 . S
C1160 H1152 0.950 . S
C1160 C1161 1.386 . S
C1160 C1162 1.391 . S
C1161 C1160 1.386 . S
C1161 C1165 1.393 . S
C1162 H1154 0.950 1_556 S
C1162 C1160 1.391 . S
C1162 C1163 1.400 . S
C1163 C1162 1.400 . S
C1163 C1164 1.398 . S
C1163 C1169 1.491 1_556 S
C1164 H1155 0.950 . S
C1164 C1163 1.398 . S
C1164 C1165 1.391 . S
C1165 H1153 0.950 . S
C1165 C1161 1.393 . S
C1165 C1164 1.391 . S
C1166 H1156 0.950 . S
C1166 C1167 1.386 . S
C1166 C1168 1.391 . S
C1167 C1166 1.386 . S
C1167 C1171 1.393 . S
C1168 H1157 0.950 1_554 S
C1168 C1166 1.391 . S
C1168 C1169 1.400 . S
C1169 C1163 1.491 1_554 S
C1169 C1168 1.400 . S
C1169 C1170 1.398 . S
C1170 H1158 0.950 . S
C1170 C1169 1.398 . S
C1170 C1171 1.391 . S
C1171 H1159 0.950 . S
C1171 C1167 1.393 . S
C1171 C1170 1.391 . S
H1172 C1180 0.950 1_556 S
H1173 C1185 0.950 . S
H1174 C1182 0.950 . S
H1175 C1184 0.950 . S
H1176 C1186 0.950 1_554 S
H1177 C1188 0.950 . S
H1178 C1190 0.950 . S
H1179 C1191 0.950 . S
C1180 H1172 0.950 1_554 S
C1180 C1181 1.386 . S
C1180 C1182 1.391 1_554 S
C1181 C1180 1.386 . S
C1181 C1185 1.393 . S
C1182 H1174 0.950 . S
C1182 C1180 1.391 1_556 S
C1182 C1183 1.400 1_556 S
C1183 C1182 1.400 1_554 S
C1183 C1184 1.398 . S
C1183 C1189 1.491 1_554 S
C1184 H1175 0.950 . S
C1184 C1183 1.398 . S
C1184 C1185 1.391 . S
C1185 H1173 0.950 . S
C1185 C1181 1.393 . S
C1185 C1184 1.391 . S
C1186 H1176 0.950 1_556 S
C1186 C1187 1.386 . S
C1186 C1188 1.391 1_556 S
C1187 C1186 1.386 . S
C1187 C1191 1.393 . S
C1188 H1177 0.950 . S
C1188 C1186 1.391 1_554 S
C1188 C1189 1.400 1_554 S
C1189 C1183 1.491 1_556 S
C1189 C1188 1.400 1_556 S
C1189 C1190 1.398 . S
C1190 H1178 0.950 . S
C1190 C1189 1.398 . S
C1190 C1191 1.391 . S
C1191 H1179 0.950 . S
C1191 C1187 1.393 . S
C1191 C1190 1.391 . S
H1192 C1200 0.950 . S
H1193 C1205 0.950 1_556 S
H1194 C1202 0.950 . S
H1195 C1204 0.950 . S
H1196 C1206 0.950 . S
H1197 C1208 0.950 . S
H1198 C1210 0.950 . S
H1199 C1211 0.950 1_554 S
C1200 H1192 0.950 . S
C1200 C1201 1.386 . S
C1200 C1202 1.391 . S
C1201 C1200 1.386 . S
C1201 C1205 1.393 . S
C1202 H1194 0.950 . S
C1202 C1200 1.391 . S
C1202 C1203 1.400 . S
C1203 C1202 1.400 . S
C1203 C1204 1.398 1_554 S
C1203 C1209 1.491 1_554 S
C1204 H1195 0.950 . S
C1204 C1203 1.398 1_556 S
C1204 C1205 1.391 1_556 S
C1205 H1193 0.950 1_554 S
C1205 C1201 1.393 . S
C1205 C1204 1.391 1_554 S
C1206 H1196 0.950 . S
C1206 C1207 1.386 . S
C1206 C1208 1.391 . S
C1207 C1206 1.386 . S
C1207 C1211 1.393 . S
C1208 H1197 0.950 . S
C1208 C1206 1.391 . S
C1208 C1209 1.400 . S
C1209 C1203 1.491 1_556 S
C1209 C1208 1.400 . S
C1209 C1210 1.398 1_556 S
C1210 H1198 0.950 . S
C1210 C1209 1.398 1_554 S
C1210 C1211 1.391 1_554 S
C1211 H1199 0.950 1_556 S
C1211 C1207 1.393 . S
C1211 C1210 1.391 1_556 S
H1212 C1220 0.950 1_556 S
H1213 C1225 0.950 . S
H1214 C1222 0.950 . S
H1215 C1224 0.950 . S
H1216 C1226 0.950 1_554 S
H1217 C1228 0.950 . S
H1218 C1230 0.950 . S
H1219 C1231 0.950 . S
C1220 H1212 0.950 1_554 S
C1220 C1221 1.386 . S
C1220 C1222 1.391 1_554 S
C1221 C1220 1.386 . S
C1221 C1225 1.393 . S
C1222 H1214 0.950 . S
C1222 C1220 1.391 1_556 S
C1222 C1223 1.400 1_556 S
C1223 C1222 1.400 1_554 S
C1223 C1224 1.398 . S
C1223 C1229 1.491 1_554 S
C1224 H1215 0.950 . S
C1224 C1223 1.398 . S
C1224 C1225 1.391 . S
C1225 H1213 0.950 . S
C1225 C1221 1.393 . S
C1225 C1224 1.391 . S
C1226 H1216 0.950 1_556 S
C1226 C1227 1.386 . S
C1226 C1228 1.391 1_556 S
C1227 C1226 1.386 . S
C1227 C1231 1.393 . S
C1228 H1217 0.950 . S
C1228 C1226 1.391 1_554 S
C1228 C1229 1.400 1_554 S
C1229 C1223 1.491 1_556 S
C1229 C1228 1.400 1_556 S
C1229 C1230 1.398 . S
C1230 H1218 0.950 . S
C1230 C1229 1.398 . S
C1230 C1231 1.391 . S
C1231 H1219 0.950 . S
C1231 C1227 1.393 . S
C1231 C1230 1.391 . S
H1232 C1240 0.950 . S
H1233 C1245 0.950 . S
H1234 C1242 0.950 . S
H1235 C1244 0.950 . S
H1236 C1246 0.950 . S
H1237 C1248 0.950 . S
H1238 C1250 0.950 . S
H1239 C1251 0.950 . S
C1240 H1232 0.950 . S
C1240 C1241 1.386 . S
C1240 C1242 1.391 . S
C1241 C1240 1.386 . S
C1241 C1245 1.393 . S
C1242 H1234 0.950 . S
C1242 C1240 1.391 . S
C1242 C1243 1.400 . S
C1243 C1242 1.400 . S
C1243 C1244 1.398 . S
C1243 C1249 1.491 . S
C1244 H1235 0.950 . S
C1244 C1243 1.398 . S
C1244 C1245 1.391 . S
C1245 H1233 0.950 . S
C1245 C1241 1.393 . S
C1245 C1244 1.391 . S
C1246 H1236 0.950 . S
C1246 C1247 1.386 . S
C1246 C1248 1.391 . S
C1247 C1246 1.386 . S
C1247 C1251 1.393 . S
C1248 H1237 0.950 . S
C1248 C1246 1.391 . S
C1248 C1249 1.400 . S
C1249 C1243 1.491 . S
C1249 C1248 1.400 . S
C1249 C1250 1.398 . S
C1250 H1238 0.950 . S
C1250 C1249 1.398 . S
C1250 C1251 1.391 . S
C1251 H1239 0.950 . S
C1251 C1247 1.393 . S
C1251 C1250 1.391 . S
H1252 C1260 0.950 . S
H1253 C1265 0.950 . S
H1254 C1262 0.950 . S
H1255 C1264 0.950 . S
H1256 C1266 0.950 . S
H1257 C1268 0.950 . S
H1258 C1270 0.950 . S
H1259 C1271 0.950 . S
C1260 H1252 0.950 . S
C1260 C1261 1.386 . S
C1260 C1262 1.391 . S
C1261 C1260 1.386 . S
C1261 C1265 1.393 . S
C1262 H1254 0.950 . S
C1262 C1260 1.391 . S
C1262 C1263 1.400 . S
C1263 C1262 1.400 . S
C1263 C1264 1.398 . S
C1263 C1269 1.491 . S
C1264 H1255 0.950 . S
C1264 C1263 1.398 . S
C1264 C1265 1.391 . S
C1265 H1253 0.950 . S
C1265 C1261 1.393 . S
C1265 C1264 1.391 . S
C1266 H1256 0.950 . S
C1266 C1267 1.386 . S
C1266 C1268 1.391 . S
C1267 C1266 1.386 . S
C1267 C1271 1.393 . S
C1268 H1257 0.950 . S
C1268 C1266 1.391 . S
C1268 C1269 1.400 . S
C1269 C1263 1.491 . S
C1269 C1268 1.400 . S
C1269 C1270 1.398 . S
C1270 H1258 0.950 . S
C1270 C1269 1.398 . S
C1270 C1271 1.391 . S
C1271 H1259 0.950 . S
C1271 C1267 1.393 . S
C1271 C1270 1.391 . S
H1272 C1280 0.950 . S
H1273 C1285 0.950 . S
H1274 C1282 0.950 . S
H1275 C1284 0.950 . S
H1276 C1286 0.950 . S
H1277 C1288 0.950 . S
H1278 C1290 0.950 . S
H1279 C1291 0.950 . S
C1280 H1272 0.950 . S
C1280 C1281 1.386 . S
C1280 C1282 1.391 . S
C1281 C1280 1.386 . S
C1281 C1285 1.393 . S
C1282 H1274 0.950 . S
C1282 C1280 1.391 . S
C1282 C1283 1.400 . S
C1283 C1282 1.400 . S
C1283 C1284 1.398 . S
C1283 C1289 1.491 . S
C1284 H1275 0.950 . S
C1284 C1283 1.398 . S
C1284 C1285 1.391 . S
C1285 H1273 0.950 . S
C1285 C1281 1.393 . S
C1285 C1284 1.391 . S
C1286 H1276 0.950 . S
C1286 C1287 1.386 . S
C1286 C1288 1.391 . S
C1287 C1286 1.386 . S
C1287 C1291 1.393 . S
C1288 H1277 0.950 . S
C1288 C1286 1.391 . S
C1288 C1289 1.400 . S
C1289 C1283 1.491 . S
C1289 C1288 1.400 . S
C1289 C1290 1.398 . S
C1290 H1278 0.950 . S
C1290 C1289 1.398 . S
C1290 C1291 1.391 . S
C1291 H1279 0.950 . S
C1291 C1287 1.393 . S
C1291 C1290 1.391 . S
H1292 C1300 0.950 . S
H1293 C1305 0.950 . S
H1294 C1302 0.950 . S
H1295 C1304 0.950 . S
H1296 C1306 0.950 . S
H1297 C1308 0.950 . S
H1298 C1310 0.950 . S
H1299 C1311 0.950 . S
C1300 H1292 0.950 . S
C1300 C1301 1.386 . S
C1300 C1302 1.391 . S
C1301 C1300 1.386 . S
C1301 C1305 1.393 . S
C1302 H1294 0.950 . S
C1302 C1300 1.391 . S
C1302 C1303 1.400 . S
C1303 C1302 1.400 . S
C1303 C1304 1.398 . S
C1303 C1309 1.491 . S
C1304 H1295 0.950 . S
C1304 C1303 1.398 . S
C1304 C1305 1.391 . S
C1305 H1293 0.950 . S
C1305 C1301 1.393 . S
C1305 C1304 1.391 . S
C1306 H1296 0.950 . S
C1306 C1307 1.386 . S
C1306 C1308 1.391 . S
C1307 C1306 1.386 . S
C1307 C1311 1.393 . S
C1308 H1297 0.950 . S
C1308 C1306 1.391 . S
C1308 C1309 1.400 . S
C1309 C1303 1.491 . S
C1309 C1308 1.400 . S
C1309 C1310 1.398 . S
C1310 H1298 0.950 . S
C1310 C1309 1.398 . S
C1310 C1311 1.391 . S
C1311 H1299 0.950 . S
C1311 C1307 1.393 . S
C1311 C1310 1.391 . S
C361 C5 1.259 . S
C367 C115 1.245 . S
C381 C29 1.261 . S
C387 C139 1.230 . S
C401 C163 1.261 . S
C407 C53 1.243 . S
C421 C94 1.234 . S
C427 C72 1.264 . S
C441 C291 1.234 . S
C447 C181 1.264 . S
C461 C205 1.236 . S
C467 C315 1.263 . S
C481 C339 1.254 . S
C487 C229 1.231 . S
C501 C270 1.258 . S
C507 C248 1.230 . S
C521 C8 1.338 . S
C527 C27 1.255 . S
C541 C50 1.250 . S
C547 C26 1.335 . S
C561 C75 1.260 . S
C567 C48 1.340 . S
C581 C74 1.330 . S
C587 C7 1.250 . S
C601 C96 1.331 . S
C607 C160 1.256 . S
C621 C97 1.258 . S
C627 C118 1.332 . S
C641 C117 1.238 . S
C647 C136 1.327 . S
C661 C137 1.252 . S
C667 C158 1.336 . S
C681 C184 1.333 . S
C687 C203 1.245 . S
C701 C226 1.250 . S
C707 C202 1.336 . S
C721 C224 1.335 . S
C727 C251 1.250 . S
C741 C250 1.329 . S
C747 C183 1.247 . S
C761 C336 1.237 . S
C767 C272 1.327 . S
C781 C273 1.261 . S
C787 C294 1.340 . S
C801 C293 1.237 . S
C807 C312 1.328 . S
C821 C334 1.342 . S
C827 C313 1.277 . S
C841 C140 1.412 . S
C847 C9 1.467 . S
C861 C162 1.430 . S
C867 C28 1.478 . S
C881 C49 1.474 . S
C887 C92 1.426 . S
C901 C73 1.470 . S
C907 C114 1.420 . S
C921 C52 1.399 . S
C927 C95 1.465 . S
C941 C119 1.464 . S
C947 C70 1.399 . S
C961 C138 1.478 . S
C967 C4 1.430 . S
C981 C30 1.408 . S
C987 C159 1.471 . S
C1001 C185 1.469 . S
C1007 C316 1.418 . S
C1021 C204 1.472 . S
C1027 C338 1.423 . S
C1041 C268 1.415 . S
C1047 C225 1.475 . S
C1061 C249 1.473 . S
C1067 C290 1.411 . S
C1081 C271 1.464 . S
C1087 C228 1.403 . S
C1101 C295 1.470 . S
C1107 C246 1.405 . S
C1121 C314 1.478 . S
C1127 C180 1.423 . S
C1141 C206 1.401 . S
C1147 C335 1.467 . S
C1161 C337 1.519 . S
C1167 C6 1.527 . S
C1181 C269 1.543 . S
C1187 C31 1.530 . S
C1201 C51 1.549 . S
C1207 C292 1.537 . S
C1221 C317 1.549 . S
C1227 C71 1.537 . S
C1241 C93 1.528 . S
C1247 C207 1.541 . S
C1261 C116 1.531 . S
C1267 C227 1.544 . S
C1281 C247 1.554 . S
C1287 C141 1.551 . S
C1301 C161 1.536 . S
C1307 C182 1.524 . S
