# Generated by pormake.
# Topology qtz-e, (6)-cn, num edge types: 1
# Building blocks:
#     Node 0, Type 0, BuildingBlock: KUMBUR_clean_sbu_0, # of connection points: 6
#     Node 1, Type 0, BuildingBlock: KUMBUR_clean_sbu_0, # of connection points: 6
#     Node 2, Type 0, BuildingBlock: KUMBUR_clean_sbu_0, # of connection points: 6
#     Node 3, Type 0, BuildingBlock: KUMBUR_clean_sbu_0, # of connection points: 6
#     Node 4, Type 0, BuildingBlock: KUMBUR_clean_sbu_0, # of connection points: 6
#     Node 5, Type 0, BuildingBlock: KUMBUR_clean_sbu_0, # of connection points: 6
#     Edge 6, Type (0, 0), BuildingBlock: MIFKUJ_clean_linker_0, # of connection points: 2
#     Edge 7, Type (0, 0), BuildingBlock: MIFKUJ_clean_linker_0, # of connection points: 2
#     Edge 8, Type (0, 0), BuildingBlock: MIFKUJ_clean_linker_0, # of connection points: 2
#     Edge 9, Type (0, 0), BuildingBlock: MIFKUJ_clean_linker_0, # of connection points: 2
#     Edge 10, Type (0, 0), BuildingBlock: MIFKUJ_clean_linker_0, # of connection points: 2
#     Edge 11, Type (0, 0), BuildingBlock: MIFKUJ_clean_linker_0, # of connection points: 2
#     Edge 12, Type (0, 0), BuildingBlock: MIFKUJ_clean_linker_0, # of connection points: 2
#     Edge 13, Type (0, 0), BuildingBlock: MIFKUJ_clean_linker_0, # of connection points: 2
#     Edge 14, Type (0, 0), BuildingBlock: MIFKUJ_clean_linker_0, # of connection points: 2
#     Edge 15, Type (0, 0), BuildingBlock: MIFKUJ_clean_linker_0, # of connection points: 2
#     Edge 16, Type (0, 0), BuildingBlock: MIFKUJ_clean_linker_0, # of connection points: 2
#     Edge 17, Type (0, 0), BuildingBlock: MIFKUJ_clean_linker_0, # of connection points: 2
#     Edge 18, Type (0, 0), BuildingBlock: MIFKUJ_clean_linker_0, # of connection points: 2
#     Edge 19, Type (0, 0), BuildingBlock: MIFKUJ_clean_linker_0, # of connection points: 2
#     Edge 20, Type (0, 0), BuildingBlock: MIFKUJ_clean_linker_0, # of connection points: 2
#     Edge 21, Type (0, 0), BuildingBlock: MIFKUJ_clean_linker_0, # of connection points: 2
#     Edge 22, Type (0, 0), BuildingBlock: MIFKUJ_clean_linker_0, # of connection points: 2
#     Edge 23, Type (0, 0), BuildingBlock: MIFKUJ_clean_linker_0, # of connection points: 2
# Relax obj value: 0.056
# Max RMSD: 0.138
# Mean RMSD: 0.138
data_MOF--net-qtz-e--node1-KUMBUR_clean_sbu_0--edge1-MIFKUJ_clean_linker_0
_symmetry_space_group_name_H-M    P1
_symmetry_Int_Tables_number       1
_symmetry_cell_setting            triclinic
loop_
_symmetry_equiv_pos_as_xyz
'x, y, z'
_cell_length_a     37.676595
_cell_length_b     37.736417
_cell_length_c     56.570379
_cell_angle_alpha  90.116017
_cell_angle_beta   89.819766
_cell_angle_gamma 119.62524
loop_
_atom_site_label
_atom_site_type_symbol
_atom_site_fract_x
_atom_site_fract_y
_atom_site_fract_z
_atom_type_partial_charge
Tb0 Tb 0.23503 0.47406 0.03141 0.0
C1 C 0.11953 0.29303 0.01752 0.0
C2 C 0.13679 0.26486 0.05102 0.0
C3 C 0.06899 0.22776 0.03386 0.0
C4 C 0.14742 0.29607 0.03421 0.0
C5 C 0.08018 0.25849 0.01681 0.0
C6 C 0.09732 0.23093 0.05091 0.0
C7 C 0.06796 0.28471 0.98069 0.0
N8 N 0.13208 0.32252 1.00087 0.0
C9 C 0.10757 0.31797 0.98195 0.0
C10 C 0.05401 0.25502 0.99836 0.0
Tb11 Tb 0.19761 0.37547 1.00388 0.0
N12 N 0.18575 0.32841 0.033 0.0
C13 C 0.21544 0.33057 0.04782 0.0
C14 C 0.16658 0.26793 0.06686 0.0
C15 C 0.20617 0.30079 0.06511 0.0
H16 H 0.11836 0.34074 0.96813 0.0
H17 H 0.22964 0.30321 0.07706 0.0
H18 H 0.08884 0.20646 0.06352 0.0
H19 H 0.04837 0.28183 0.966 0.0
H20 H 0.24624 0.35564 0.04699 0.0
H21 H 0.23644 0.57072 0.96027 0.0
H22 H 0.15958 0.24468 0.08011 0.0
H23 H 0.30263 0.49071 0.07359 0.0
H24 H 0.20539 0.51164 0.98668 0.0
H25 H 0.37312 0.54285 0.08352 0.0
H26 H 0.03894 0.20093 0.0336 0.0
H27 H 0.30901 0.6231 0.96494 0.0
H28 H 0.37414 0.64971 0.98805 0.0
H29 H 0.02352 0.22897 0.99719 0.0
H30 H 0.41116 0.64255 0.02184 0.0
N31 N 0.26029 0.52843 1.00581 0.0
C32 C 0.23717 0.53374 0.98905 0.0
C33 C 0.29562 0.5969 0.97659 0.0
C34 C 0.31844 0.59282 0.99475 0.0
C35 C 0.25467 0.56744 0.97393 0.0
C36 C 0.29959 0.55797 1.00931 0.0
H37 H 0.41089 0.60301 0.05768 0.0
N38 N 0.30061 0.52045 0.04205 0.0
C39 C 0.35868 0.54631 0.06786 0.0
C40 C 0.32031 0.55414 0.02828 0.0
C41 C 0.31867 0.51683 0.06218 0.0
C42 C 0.3799 0.58022 0.05323 0.0
C43 C 0.36061 0.58471 0.03329 0.0
O44 O 0.22812 0.4904 0.06603 0.0
O45 O 0.19736 0.40867 0.03493 0.0
O46 O 0.14441 0.38516 1.00809 0.0
O47 O 0.1772 0.456 0.01345 0.0
O48 O 0.23216 0.43891 0.06299 0.0
O49 O 0.20232 0.50521 0.03615 0.0
O50 O 0.19625 0.35815 0.96823 0.0
O51 O 0.23246 0.44041 1.00008 0.0
O52 O 0.28909 0.47044 0.02275 0.0
O53 O 0.26293 0.40099 0.01523 0.0
O54 O 0.19527 0.40815 0.97266 0.0
O55 O 0.23053 0.34595 0.99396 0.0
C56 C 0.20443 0.40359 0.05604 0.0
C57 C 0.22856 0.55291 0.06751 0.0
C58 C 0.24187 0.59918 0.10059 0.0
C59 C 0.22541 0.55941 0.09165 0.0
C60 C 0.26183 0.63252 0.08515 0.0
C61 C 0.24895 0.58664 0.05237 0.0
C62 C 0.2654 0.62617 0.06118 0.0
C63 C 0.14457 0.42053 1.00873 0.0
C64 C 0.21082 0.51086 0.05863 0.0
C65 C 0.38008 0.61884 0.01841 0.0
C66 C 0.35903 0.62288 0.99915 0.0
C67 C 0.22242 0.44403 0.97937 0.0
C68 C 0.20609 0.30198 0.96047 0.0
C69 C 0.22346 0.29972 0.93865 0.0
C70 C 0.21157 0.26155 0.92783 0.0
C71 C 0.18136 0.22608 0.93908 0.0
C72 C 0.17638 0.26598 0.97119 0.0
C73 C 0.16401 0.22837 0.96048 0.0
C74 C 0.29399 0.43852 0.01921 0.0
C75 C 0.21916 0.34191 0.97189 0.0
H76 H 0.20972 0.5335 0.10341 0.0
H77 H 0.27508 0.66347 0.0917 0.0
H78 H 0.25171 0.58266 0.03368 0.0
H79 H 0.28092 0.65196 0.04939 0.0
H80 H 0.24661 0.32748 0.93041 0.0
H81 H 0.17075 0.19635 0.9312 0.0
H82 H 0.16279 0.26692 0.98787 0.0
H83 H 0.14086 0.20074 0.96884 0.0
Tb84 Tb 0.75759 0.23568 0.37532 0.0
C85 C 0.82138 0.1244 0.34816 0.0
C86 C 0.86531 0.13362 0.3814 0.0
C87 C 0.83033 0.06808 0.36139 0.0
C88 C 0.8468 0.14875 0.36583 0.0
C89 C 0.81389 0.0842 0.34516 0.0
C90 C 0.85596 0.09277 0.37953 0.0
C91 C 0.77892 0.08085 0.30878 0.0
N92 N 0.8067 0.14134 0.33273 0.0
C93 C 0.78751 0.12099 0.31247 0.0
C94 C 0.79157 0.0621 0.32542 0.0
Tb95 Tb 0.82021 0.20632 0.34102 0.0
N96 N 0.85558 0.18816 0.36668 0.0
C97 C 0.88496 0.21493 0.38178 0.0
C98 C 0.89374 0.16038 0.39774 0.0
C99 C 0.90413 0.20139 0.39764 0.0
H100 H 0.77735 0.1353 0.29967 0.0
H101 H 0.92669 0.22255 0.40989 0.0
H102 H 0.86949 0.0804 0.3915 0.0
H103 H 0.76259 0.06443 0.29313 0.0
H104 H 0.89312 0.24661 0.38222 0.0
H105 H 0.65666 0.2509 0.31355 0.0
H106 H 0.90864 0.14999 0.41004 0.0
H107 H 0.8096 0.29309 0.42152 0.0
H108 H 0.69121 0.21742 0.33175 0.0
H109 H 0.82304 0.35744 0.43985 0.0
H110 H 0.82452 0.03707 0.3596 0.0
H111 H 0.66966 0.31789 0.32825 0.0
H112 H 0.70654 0.37621 0.35638 0.0
H113 H 0.78515 0.03111 0.32245 0.0
H114 H 0.75161 0.40513 0.39087 0.0
N115 N 0.72667 0.26618 0.35548 0.0
C116 C 0.69849 0.24717 0.33798 0.0
C117 C 0.68621 0.30402 0.33574 0.0
C118 C 0.71375 0.32275 0.35424 0.0
C119 C 0.6785 0.26602 0.32759 0.0
C120 C 0.73333 0.30257 0.36403 0.0
H121 H 0.79473 0.39809 0.42226 0.0
N122 N 0.77441 0.29684 0.39307 0.0
C123 C 0.80474 0.34687 0.42397 0.0
C124 C 0.75789 0.31838 0.38359 0.0
C125 C 0.79693 0.31016 0.41342 0.0
C126 C 0.78876 0.36975 0.41399 0.0
C127 C 0.76468 0.35543 0.39368 0.0
O128 O 0.73302 0.21952 0.4097 0.0
O129 O 0.78805 0.19968 0.37395 0.0
O130 O 0.75873 0.15221 0.34376 0.0
O131 O 0.71985 0.18324 0.35282 0.0
O132 O 0.7923 0.22954 0.40434 0.0
O133 O 0.69436 0.19753 0.37893 0.0
O134 O 0.83657 0.21218 0.3049 0.0
O135 O 0.78827 0.24009 0.34242 0.0
O136 O 0.81306 0.29204 0.36808 0.0
O137 O 0.85783 0.26876 0.35667 0.0
O138 O 0.78568 0.2115 0.31135 0.0
O139 O 0.88248 0.24062 0.33158 0.0
C140 C 0.80169 0.20456 0.39474 0.0
C141 C 0.66794 0.21396 0.41262 0.0
C142 C 0.63642 0.22358 0.44798 0.0
C143 C 0.66206 0.21107 0.43719 0.0
C144 C 0.61659 0.23906 0.43382 0.0
C145 C 0.64758 0.22926 0.39877 0.0
C146 C 0.62219 0.24182 0.40938 0.0
C147 C 0.72349 0.15206 0.34516 0.0
C148 C 0.69565 0.20129 0.40185 0.0
C149 C 0.74664 0.37655 0.38344 0.0
C150 C 0.72108 0.36014 0.36379 0.0
C151 C 0.77499 0.23524 0.3216 0.0
C152 C 0.90207 0.22171 0.29572 0.0
C153 C 0.92315 0.24302 0.27502 0.0
C154 C 0.94904 0.23194 0.26265 0.0
C155 C 0.95246 0.1987 0.27115 0.0
C156 C 0.90659 0.18902 0.30367 0.0
C157 C 0.93144 0.17754 0.29139 0.0
C158 C 0.85019 0.29832 0.36349 0.0
C159 C 0.87553 0.23359 0.30899 0.0
H160 H 0.67706 0.19861 0.44784 0.0
H161 H 0.59707 0.24942 0.44169 0.0
H162 H 0.65111 0.23156 0.37978 0.0
H163 H 0.60683 0.2538 0.39861 0.0
H164 H 0.92001 0.26851 0.26887 0.0
H165 H 0.97128 0.18873 0.26199 0.0
H166 H 0.89099 0.1724 0.31943 0.0
H167 H 0.93453 0.1521 0.29764 0.0
Tb168 Tb 0.52638 0.74451 0.69702 0.0
C169 C 0.70473 0.80526 0.67409 0.0
C170 C 0.73963 0.84536 0.70845 0.0
C171 C 0.7696 0.8117 0.68596 0.0
C172 C 0.70604 0.82896 0.69296 0.0
C173 C 0.73692 0.79712 0.66996 0.0
C174 C 0.77095 0.83581 0.7052 0.0
C175 C 0.70416 0.76463 0.63329 0.0
N176 N 0.67303 0.7924 0.65891 0.0
C177 C 0.67319 0.77387 0.6381 0.0
C178 C 0.73593 0.77583 0.64945 0.0
Tb179 Tb 0.6233 0.80804 0.66854 0.0
N180 N 0.6755 0.83792 0.69525 0.0
C181 C 0.678 0.86532 0.71194 0.0
C182 C 0.74138 0.87191 0.72623 0.0
C183 C 0.71061 0.88223 0.72788 0.0
H184 H 0.64864 0.76503 0.62556 0.0
H185 H 0.71204 0.90328 0.74136 0.0
H186 H 0.79684 0.8478 0.71708 0.0
H187 H 0.70358 0.74899 0.61712 0.0
H188 H 0.65449 0.87362 0.71341 0.0
H189 H 0.42389 0.65099 0.62792 0.0
H190 H 0.76697 0.88543 0.73826 0.0
H191 H 0.51423 0.79695 0.74091 0.0
H192 H 0.48729 0.68208 0.65086 0.0
H193 H 0.46101 0.81109 0.75524 0.0
H194 H 0.79448 0.80548 0.68325 0.0
H195 H 0.36865 0.66587 0.63787 0.0
H196 H 0.34153 0.69942 0.66516 0.0
H197 H 0.76006 0.76893 0.64562 0.0
H198 H 0.35139 0.7426 0.69995 0.0
N199 N 0.47003 0.71691 0.67299 0.0
C200 C 0.46414 0.68986 0.65525 0.0
C201 C 0.39684 0.68025 0.64785 0.0
C202 C 0.40197 0.70604 0.66686 0.0
C203 C 0.4279 0.67175 0.64221 0.0
C204 C 0.43933 0.72408 0.67923 0.0
H205 H 0.39575 0.7843 0.73358 0.0
N206 N 0.48034 0.76287 0.71084 0.0
C207 C 0.45602 0.79337 0.73929 0.0
C208 C 0.4445 0.74758 0.69897 0.0
C209 C 0.48619 0.78507 0.73109 0.0
C210 C 0.41928 0.77824 0.72704 0.0
C211 C 0.41299 0.75474 0.70672 0.0
O212 O 0.50985 0.71738 0.7307 0.0
O213 O 0.5924 0.77395 0.70001 0.0
O214 O 0.61612 0.74644 0.67187 0.0
O215 O 0.54519 0.7077 0.67619 0.0
O216 O 0.56115 0.77569 0.72863 0.0
O217 O 0.49925 0.68087 0.69931 0.0
O218 O 0.63587 0.82957 0.6334 0.0
O219 O 0.55836 0.77722 0.66602 0.0
O220 O 0.5278 0.80081 0.68835 0.0
O221 O 0.59801 0.84517 0.6855 0.0
O222 O 0.58847 0.77665 0.6367 0.0
O223 O 0.65399 0.87154 0.66245 0.0
C224 C 0.59705 0.78561 0.72128 0.0
C225 C 0.44921 0.65396 0.7295 0.0
C226 C 0.40034 0.62023 0.76148 0.0
C227 C 0.44084 0.644 0.7535 0.0
C228 C 0.36826 0.6072 0.74506 0.0
C229 C 0.41672 0.63918 0.71333 0.0
C230 C 0.37653 0.6164 0.72114 0.0
C231 C 0.58118 0.71129 0.67141 0.0
C232 C 0.49174 0.68069 0.72182 0.0
C233 C 0.37601 0.73753 0.69425 0.0
C234 C 0.37044 0.71305 0.67442 0.0
C235 C 0.55263 0.7659 0.64478 0.0
C236 C 0.69396 0.89415 0.6272 0.0
C237 C 0.69502 0.91567 0.60644 0.0
C238 C 0.73248 0.9412 0.59476 0.0
C239 C 0.7684 0.94386 0.60398 0.0
C240 C 0.73042 0.89784 0.6359 0.0
C241 C 0.76728 0.92238 0.62429 0.0
C242 C 0.55966 0.838 0.68812 0.0
C243 C 0.65483 0.86774 0.63954 0.0
H244 H 0.46602 0.65435 0.76582 0.0
H245 H 0.33669 0.58983 0.75065 0.0
H246 H 0.42211 0.64515 0.69466 0.0
H247 H 0.35169 0.60578 0.7086 0.0
H248 H 0.66694 0.91312 0.59972 0.0
H249 H 0.79755 0.96244 0.59534 0.0
H250 H 0.73044 0.88181 0.6517 0.0
H251 H 0.79523 0.92484 0.6311 0.0
Tb252 Tb 0.78328 0.52626 0.03803 0.0
C253 C 0.89615 0.70218 1.01043 0.0
C254 C 0.88349 0.73811 0.04179 0.0
C255 C 0.94928 0.76996 0.02185 0.0
C256 C 0.87053 0.70333 0.02741 0.0
C257 C 0.9356 0.73574 1.00708 0.0
C258 C 0.92318 0.77117 0.03915 0.0
C259 C 0.94298 0.70123 0.97301 0.0
N260 N 0.88123 0.66926 0.99605 0.0
C261 C 0.90336 0.66906 0.97684 0.0
C262 C 0.95938 0.73457 0.98837 0.0
Tb263 Tb 0.81619 0.61778 1.00352 0.0
N264 N 0.83196 0.67143 0.02871 0.0
C265 C 0.80415 0.67329 0.04356 0.0
C266 C 0.85568 0.73928 0.05774 0.0
C267 C 0.8157 0.70689 0.05843 0.0
H268 H 0.89073 0.64335 0.96486 0.0
H269 H 0.79371 0.70773 0.07044 0.0
H270 H 0.93353 0.79823 0.04995 0.0
H271 H 0.96071 0.7004 0.95815 0.0
H272 H 0.77313 0.64871 0.04459 0.0
H273 H 0.75782 0.40674 0.97641 0.0
H274 H 0.86447 0.76539 0.06916 0.0
H275 H 0.72425 0.53112 0.08123 0.0
H276 H 0.79591 0.4752 0.99425 0.0
H277 H 0.65948 0.48439 0.10054 0.0
H278 H 0.97952 0.79606 0.01961 0.0
H279 H 0.69133 0.35577 0.99319 0.0
H280 H 0.63797 0.3373 0.02482 0.0
H281 H 0.98989 0.75971 0.98522 0.0
H282 H 0.61097 0.35847 0.05832 0.0
N283 N 0.74906 0.46502 0.01891 0.0
C284 C 0.76589 0.45404 1.0009 0.0
C285 C 0.70728 0.38623 1.00058 0.0
C286 C 0.69126 0.3969 0.0199 0.0
C287 C 0.74478 0.41496 0.99105 0.0
C288 C 0.713 0.43709 0.02864 0.0
H289 H 0.61858 0.41327 0.08651 0.0
N290 N 0.72089 0.4874 0.05594 0.0
C291 C 0.67012 0.47388 0.08576 0.0
C292 C 0.69856 0.44853 0.04796 0.0
C293 C 0.70721 0.50032 0.07474 0.0
C294 C 0.64711 0.4338 0.07779 0.0
C295 C 0.66125 0.42063 0.0587 0.0
O296 O 0.79706 0.51419 0.07213 0.0
O297 O 0.81987 0.59192 0.0367 0.0
O298 O 0.86997 0.60911 1.0084 0.0
O299 O 0.83769 0.5395 0.01758 0.0
O300 O 0.79184 0.56768 0.06748 0.0
O301 O 0.81811 0.49711 0.04081 0.0
O302 O 0.81413 0.62982 0.96721 0.0
O303 O 0.78261 0.55275 1.00445 0.0
O304 O 0.72802 0.52552 0.02753 0.0
O305 O 0.75269 0.59405 0.01831 0.0
O306 O 0.81479 0.57835 0.97461 0.0
O307 O 0.77852 0.64129 0.9925 0.0
C308 C 0.8162 0.60158 0.05749 0.0
C309 C 0.8005 0.45334 0.07387 0.0
C310 C 0.79317 0.41115 0.10819 0.0
C311 C 0.80619 0.44968 0.09805 0.0
C312 C 0.77427 0.37626 0.09374 0.0
C313 C 0.78209 0.41809 0.05976 0.0
C314 C 0.76894 0.37984 0.06968 0.0
C315 C 0.87026 0.57426 0.01158 0.0
C316 C 0.81423 0.49406 0.06374 0.0
C317 C 0.63948 0.38051 0.05016 0.0
C318 C 0.65474 0.36853 0.03099 0.0
C319 C 0.78926 0.54401 0.984 0.0
C320 C 0.79861 0.68188 0.95772 0.0
C321 C 0.77834 0.68079 0.9364 0.0
C322 C 0.78596 0.71741 0.92517 0.0
C323 C 0.81458 0.75475 0.93532 0.0
C324 C 0.82714 0.71968 0.96724 0.0
C325 C 0.83513 0.7558 0.95604 0.0
C326 C 0.72223 0.5568 0.02379 0.0
C327 C 0.78903 0.64373 0.97032 0.0
H328 H 0.82114 0.47693 0.10885 0.0
H329 H 0.76311 0.34608 0.10107 0.0
H330 H 0.77789 0.41989 0.04106 0.0
H331 H 0.75453 0.35287 0.05867 0.0
H332 H 0.75607 0.65173 0.92896 0.0
H333 H 0.82118 0.78329 0.92711 0.0
H334 H 0.84293 0.72131 0.98348 0.0
H335 H 0.85713 0.78482 0.96359 0.0
Tb336 Tb 0.25023 0.7635 0.36817 0.0
C337 C 0.21878 0.90156 0.34062 0.0
C338 C 0.17353 0.89801 0.37198 0.0
C339 C 0.21885 0.96311 0.35337 0.0
C340 C 0.1896 0.87921 0.35721 0.0
C341 C 0.23291 0.94354 0.33787 0.0
C342 C 0.18922 0.94035 0.37047 0.0
C343 C 0.26981 0.94233 0.30316 0.0
N344 N 0.23097 0.8813 0.32592 0.0
C345 C 0.25481 0.9006 0.30667 0.0
C346 C 0.25939 0.96409 0.31908 0.0
Tb347 Tb 0.20681 0.81356 0.33355 0.0
N348 N 0.17493 0.83844 0.35767 0.0
C349 C 0.14151 0.81407 0.37125 0.0
C350 C 0.1412 0.87347 0.3871 0.0
C351 C 0.12461 0.83122 0.3864 0.0
H352 H 0.26338 0.88407 0.29446 0.0
H353 H 0.09893 0.81182 0.3976 0.0
H354 H 0.17766 0.95549 0.38185 0.0
H355 H 0.28952 0.95769 0.28825 0.0
H356 H 0.12843 0.78141 0.37114 0.0
H357 H 0.36185 0.75469 0.31147 0.0
H358 H 0.12801 0.88668 0.39879 0.0
H359 H 0.17905 0.6947 0.40359 0.0
H360 H 0.3309 0.78934 0.33266 0.0
H361 H 0.14908 0.62125 0.41195 0.0
H362 H 0.22969 0.99548 0.35178 0.0
H363 H 0.33211 0.68001 0.31483 0.0
H364 H 0.27941 0.614 0.33305 0.0
H365 H 0.27092 0.99636 0.3163 0.0
H366 H 0.22142 0.57764 0.36034 0.0
N367 N 0.28274 0.73487 0.34785 0.0
C368 C 0.31731 0.7568 0.33457 0.0
C369 C 0.31826 0.69508 0.32432 0.0
C370 C 0.28422 0.67303 0.33885 0.0
C371 C 0.33515 0.73722 0.3224 0.0
C372 C 0.26725 0.69414 0.3507 0.0
H373 H 0.1728 0.58016 0.38999 0.0
N374 N 0.21982 0.6954 0.37713 0.0
C375 C 0.17279 0.63557 0.39874 0.0
C376 C 0.23475 0.6737 0.36593 0.0
C377 C 0.19011 0.67726 0.39406 0.0
C378 C 0.18638 0.61247 0.38637 0.0
C379 C 0.21806 0.63156 0.36991 0.0
O380 O 0.26066 0.76306 0.40463 0.0
O381 O 0.22857 0.80697 0.36765 0.0
O382 O 0.27047 0.86114 0.34151 0.0
O383 O 0.29824 0.82032 0.35309 0.0
O384 O 0.21175 0.76877 0.39562 0.0
O385 O 0.31074 0.78839 0.37975 0.0
O386 O 0.19448 0.81092 0.297 0.0
O387 O 0.23217 0.77374 0.33406 0.0
O388 O 0.19437 0.71639 0.35302 0.0
O389 O 0.1595 0.75205 0.34672 0.0
O390 O 0.24485 0.81023 0.30517 0.0
O391 O 0.14557 0.7851 0.32219 0.0
C392 C 0.21043 0.7997 0.38728 0.0
C393 C 0.32197 0.81911 0.41725 0.0
C394 C 0.35769 0.84781 0.45425 0.0
C395 C 0.33902 0.81509 0.43825 0.0
C396 C 0.36005 0.88515 0.44843 0.0
C397 C 0.3247 0.85652 0.41165 0.0
C398 C 0.34389 0.88947 0.42714 0.0
C399 C 0.30203 0.85581 0.34672 0.0
C400 C 0.30016 0.78338 0.40195 0.0
C401 C 0.234 0.61009 0.35766 0.0
C402 C 0.26702 0.6308 0.34214 0.0
C403 C 0.25027 0.78215 0.31437 0.0
C404 C 0.13263 0.80811 0.28597 0.0
C405 C 0.10893 0.78605 0.26625 0.0
C406 C 0.0866 0.80039 0.25317 0.0
C407 C 0.08913 0.83747 0.26003 0.0
C408 C 0.1343 0.8448 0.29236 0.0
C409 C 0.11278 0.85938 0.27939 0.0
C410 C 0.16053 0.71739 0.34877 0.0
C411 C 0.15512 0.79249 0.2999 0.0
H412 H 0.33743 0.78621 0.44212 0.0
H413 H 0.3733 0.91061 0.46059 0.0
H414 H 0.31171 0.86009 0.39549 0.0
H415 H 0.34552 0.91818 0.42285 0.0
H416 H 0.10726 0.75747 0.26141 0.0
H417 H 0.07305 0.84983 0.25025 0.0
H418 H 0.15214 0.8621 0.3074 0.0
H419 H 0.11437 0.88783 0.2844 0.0
Tb420 Tb 0.46834 0.23575 0.71023 0.0
C421 C 0.30603 0.19242 0.67497 0.0
C422 C 0.26402 0.13827 0.70214 0.0
C423 C 0.24035 0.18351 0.68755 0.0
C424 C 0.30026 0.16021 0.68891 0.0
C425 C 0.27545 0.2035 0.67334 0.0
C426 C 0.23465 0.15091 0.70196 0.0
C427 C 0.31344 0.24837 0.64117 0.0
N428 N 0.33981 0.21008 0.66116 0.0
C429 C 0.34254 0.23581 0.64328 0.0
C430 C 0.28012 0.23276 0.65661 0.0
Tb431 Tb 0.38747 0.18974 0.66715 0.0
N432 N 0.32907 0.14869 0.68822 0.0
C433 C 0.32219 0.11357 0.69923 0.0
C434 C 0.25783 0.10351 0.7144 0.0
C435 C 0.2868 0.09081 0.71266 0.0
H436 H 0.36825 0.24794 0.63124 0.0
H437 H 0.28196 0.06355 0.72173 0.0
H438 H 0.2068 0.1348 0.71218 0.0
H439 H 0.31663 0.26992 0.62759 0.0
H440 H 0.34431 0.1034 0.69832 0.0
H441 H 0.60068 0.34596 0.65941 0.0
H442 H 0.23033 0.0856 0.72463 0.0
H443 H 0.46488 0.17767 0.75614 0.0
H444 H 0.53247 0.31812 0.67562 0.0
H445 H 0.50746 0.15092 0.77198 0.0
H446 H 0.21674 0.19193 0.68682 0.0
H447 H 0.64351 0.31552 0.66958 0.0
H448 H 0.65324 0.26547 0.69326 0.0
H449 H 0.25734 0.24216 0.65479 0.0
H450 H 0.62831 0.2129 0.72416 0.0
N451 N 0.53343 0.26902 0.69436 0.0
C452 C 0.5495 0.30332 0.68046 0.0
C453 C 0.61292 0.30251 0.6767 0.0
C454 C 0.59805 0.26991 0.6925 0.0
C455 C 0.58888 0.31981 0.67105 0.0
C456 C 0.558 0.25401 0.70146 0.0
H457 H 0.57448 0.17071 0.75388 0.0
N458 N 0.50627 0.2112 0.72819 0.0
C459 C 0.51797 0.17127 0.75693 0.0
C460 C 0.54416 0.22452 0.71901 0.0
C461 C 0.49377 0.18648 0.74774 0.0
C462 C 0.55578 0.18253 0.74668 0.0
C463 C 0.56969 0.21006 0.72781 0.0
O464 O 0.4513 0.27314 0.72905 0.0
O465 O 0.40355 0.20838 0.70363 0.0
O466 O 0.40254 0.25422 0.6727 0.0
O467 O 0.46775 0.28334 0.68928 0.0
O468 O 0.42067 0.19149 0.73355 0.0
O469 O 0.50608 0.27263 0.73801 0.0
O470 O 0.378 0.18382 0.63023 0.0
O471 O 0.45183 0.21617 0.67399 0.0
O472 O 0.46262 0.1767 0.70328 0.0
O473 O 0.40701 0.14465 0.67748 0.0
O474 O 0.4352 0.22882 0.64209 0.0
O475 O 0.36271 0.13143 0.65162 0.0
C476 C 0.3894 0.18783 0.72234 0.0
C477 C 0.47178 0.28559 0.76901 0.0
C478 C 0.49286 0.31502 0.80826 0.0
C479 C 0.50194 0.31318 0.78433 0.0
C480 C 0.4532 0.289 0.81676 0.0
C481 C 0.43253 0.25955 0.77792 0.0
C482 C 0.42324 0.26127 0.80161 0.0
C483 C 0.43741 0.28627 0.6797 0.0
C484 C 0.48146 0.28597 0.74373 0.0
C485 C 0.60853 0.2241 0.71787 0.0
C486 C 0.62268 0.25396 0.70025 0.0
C487 C 0.46596 0.23424 0.6546 0.0
C488 C 0.32392 0.12039 0.61674 0.0
C489 C 0.32252 0.09604 0.59726 0.0
C490 C 0.28555 0.07214 0.58481 0.0
C491 C 0.25063 0.07392 0.59193 0.0
C492 C 0.28838 0.12099 0.62339 0.0
C493 C 0.25212 0.09812 0.61099 0.0
C494 C 0.43695 0.14527 0.69037 0.0
C495 C 0.36209 0.14436 0.63039 0.0
H496 H 0.5323 0.33362 0.77755 0.0
H497 H 0.44559 0.2896 0.83519 0.0
H498 H 0.40901 0.23818 0.76658 0.0
H499 H 0.3928 0.24102 0.80823 0.0
H500 H 0.34977 0.09505 0.59217 0.0
H501 H 0.22199 0.05669 0.58261 0.0
H502 H 0.28852 0.13903 0.63823 0.0
H503 H 0.22493 0.09902 0.61624 0.0
H504 H 0.30122 0.80373 0.27701 0.0
H505 H 0.30229 0.75867 0.24625 0.0
H506 H 0.21762 0.65384 0.28688 0.0
H507 H 0.21386 0.69879 0.31625 0.0
H508 H 0.31679 0.69698 0.2391 0.0
H509 H 0.14918 0.58589 0.2516 0.0
H510 H 0.09008 0.58143 0.2733 0.0
H511 H 0.13573 0.70933 0.26225 0.0
H512 H 0.19482 0.7144 0.24033 0.0
H513 H 0.26006 0.56555 0.13808 0.0
H514 H 0.26012 0.58202 0.18011 0.0
H515 H 0.21651 0.66487 0.1621 0.0
H516 H 0.21635 0.64853 0.12023 0.0
H517 H 0.17928 0.61833 0.20296 0.0
H518 H 0.31477 0.70148 0.16786 0.0
H519 H 0.37649 0.71035 0.14731 0.0
H520 H 0.39675 0.64454 0.20258 0.0
H521 H 0.33476 0.63482 0.22328 0.0
C522 C 0.28347 0.77103 0.27953 0.0
C523 C 0.25763 0.75472 0.29918 0.0
C524 C 0.28436 0.74531 0.26208 0.0
C525 C 0.25948 0.70288 0.26409 0.0
C526 C 0.23655 0.6865 0.28476 0.0
C527 C 0.23468 0.71227 0.30177 0.0
C528 C 0.25273 0.67696 0.24307 0.0
C529 C 0.28665 0.67916 0.23141 0.0
C530 C 0.21335 0.65376 0.23301 0.0
C531 C 0.17638 0.6505 0.24443 0.0
C532 C 0.14627 0.61291 0.25357 0.0
C533 C 0.11288 0.61032 0.26597 0.0
C534 C 0.10917 0.64509 0.26916 0.0
C535 C 0.1386 0.68243 0.25975 0.0
C536 C 0.172 0.68516 0.2473 0.0
C537 C 0.24986 0.58674 0.14321 0.0
C538 C 0.23858 0.60614 0.12601 0.0
C539 C 0.24994 0.5961 0.16713 0.0
C540 C 0.23844 0.62471 0.1741 0.0
C541 C 0.22534 0.6426 0.15703 0.0
C542 C 0.22564 0.63358 0.13316 0.0
C543 C 0.2435 0.63924 0.19877 0.0
C544 C 0.20921 0.63494 0.21105 0.0
C545 C 0.28257 0.66084 0.20927 0.0
C546 C 0.31993 0.66699 0.19694 0.0
C547 C 0.33223 0.68864 0.17552 0.0
C548 C 0.36727 0.69386 0.16387 0.0
C549 C 0.39046 0.6779 0.17359 0.0
C550 C 0.37871 0.6568 0.19504 0.0
C551 C 0.34364 0.65143 0.20674 0.0
H552 H 0.41758 0.68198 0.16455 0.0
H553 H 0.0835 0.64309 0.27895 0.0
H554 H 0.51006 0.19531 0.66196 0.0
H555 H 0.56281 0.19725 0.63569 0.0
H556 H 0.55689 0.2894 0.59346 0.0
H557 H 0.5054 0.28819 0.62004 0.0
H558 H 0.54453 0.1724 0.5929 0.0
H559 H 0.63312 0.33975 0.55914 0.0
H560 H 0.66811 0.40948 0.57539 0.0
H561 H 0.68792 0.36465 0.6408 0.0
H562 H 0.6527 0.29439 0.62505 0.0
H563 H 0.56466 0.1948 0.47191 0.0
H564 H 0.55471 0.19517 0.51449 0.0
H565 H 0.68414 0.24563 0.52547 0.0
H566 H 0.69441 0.2461 0.48258 0.0
H567 H 0.65547 0.28798 0.54918 0.0
H568 H 0.6205 0.14998 0.54501 0.0
H569 H 0.58849 0.07948 0.53 0.0
H570 H 0.46954 0.06436 0.54336 0.0
H571 H 0.50076 0.13495 0.55811 0.0
C572 C 0.52141 0.21714 0.64767 0.0
C573 C 0.50399 0.24177 0.64301 0.0
C574 C 0.55145 0.21821 0.63262 0.0
C575 C 0.56414 0.24369 0.61263 0.0
C576 C 0.54855 0.27021 0.60901 0.0
C577 C 0.51875 0.26922 0.62406 0.0
C578 C 0.58657 0.23703 0.5931 0.0
C579 C 0.56951 0.19754 0.58367 0.0
C580 C 0.61947 0.26973 0.58114 0.0
C581 C 0.64024 0.31176 0.59089 0.0
C582 C 0.64502 0.34471 0.57698 0.0
C583 C 0.6647 0.38429 0.58615 0.0
C584 C 0.68003 0.3914 0.60916 0.0
C585 C 0.67565 0.35893 0.62307 0.0
C586 C 0.65569 0.3192 0.61406 0.0
C587 C 0.59098 0.20579 0.48339 0.0
C588 C 0.63031 0.22069 0.47394 0.0
C589 C 0.58523 0.20553 0.50774 0.0
C590 C 0.61864 0.22001 0.52319 0.0
C591 C 0.65793 0.23409 0.51387 0.0
C592 C 0.66371 0.23418 0.48941 0.0
C593 C 0.61223 0.22366 0.54873 0.0
C594 C 0.63184 0.26258 0.55903 0.0
C595 C 0.58221 0.19031 0.56176 0.0
C596 C 0.56305 0.1479 0.55259 0.0
C597 C 0.58751 0.13175 0.54457 0.0
C598 C 0.56949 0.09173 0.53614 0.0
C599 C 0.52701 0.06747 0.53571 0.0
C600 C 0.50245 0.08319 0.54371 0.0
C601 C 0.5203 0.1232 0.55213 0.0
H602 H 0.51313 0.03648 0.5292 0.0
H603 H 0.6954 0.42208 0.6162 0.0
H604 H 0.20062 0.45646 0.93636 0.0
H605 H 0.24573 0.4956 0.90372 0.0
H606 H 0.35026 0.53728 0.9494 0.0
H607 H 0.3057 0.4959 0.98154 0.0
H608 H 0.32751 0.59463 0.90999 0.0
H609 H 0.3608 0.48747 0.92606 0.0
H610 H 0.34603 0.41717 0.9334 0.0
H611 H 0.28252 0.37899 0.86729 0.0
H612 H 0.2951 0.44867 0.86012 0.0
H613 H 0.43912 0.66535 0.80107 0.0
H614 H 0.42384 0.64415 0.84241 0.0
H615 H 0.32473 0.52764 0.82013 0.0
H616 H 0.34165 0.54727 0.77906 0.0
H617 H 0.36287 0.51592 0.85363 0.0
H618 H 0.31279 0.61091 0.84049 0.0
H619 H 0.31975 0.67763 0.83038 0.0
H620 H 0.40541 0.7339 0.88698 0.0
H621 H 0.3993 0.66754 0.89724 0.0
C622 C 0.23319 0.47428 0.93949 0.0
C623 C 0.24958 0.47342 0.96157 0.0
C624 C 0.25881 0.49653 0.9209 0.0
C625 C 0.30113 0.51864 0.92422 0.0
C626 C 0.31758 0.51994 0.94657 0.0
C627 C 0.29202 0.4966 0.965 0.0
C628 C 0.32764 0.53844 0.90373 0.0
C629 C 0.33628 0.57796 0.89785 0.0
C630 C 0.33786 0.51591 0.88783 0.0
C631 C 0.32838 0.47339 0.89277 0.0
C632 C 0.34272 0.46396 0.9134 0.0
C633 C 0.33487 0.42418 0.91748 0.0
C634 C 0.31335 0.39363 0.90083 0.0
C635 C 0.29908 0.40265 0.88022 0.0
C636 C 0.30642 0.44227 0.87621 0.0
C637 C 0.41449 0.63497 0.80498 0.0
C638 C 0.39139 0.60812 0.7867 0.0
C639 C 0.40553 0.62309 0.82864 0.0
C640 C 0.37284 0.58448 0.8344 0.0
C641 C 0.35013 0.5576 0.81616 0.0
C642 C 0.35946 0.56913 0.79262 0.0
C643 C 0.36118 0.57154 0.85926 0.0
C644 C 0.35528 0.53322 0.86598 0.0
C645 C 0.35232 0.59461 0.8756 0.0
C646 C 0.35605 0.63444 0.8694 0.0
C647 C 0.33337 0.63759 0.85064 0.0
C648 C 0.33711 0.67531 0.84491 0.0
C649 C 0.36313 0.71001 0.85797 0.0
C650 C 0.38537 0.70703 0.87684 0.0
C651 C 0.38178 0.66938 0.88261 0.0
H652 H 0.36597 0.73919 0.85351 0.0
H653 H 0.308 0.36306 0.90381 0.0
H654 H 0.81434 0.31842 0.32668 0.0
H655 H 0.81801 0.3672 0.29717 0.0
H656 H 0.72869 0.26836 0.2548 0.0
H657 H 0.72575 0.21926 0.28406 0.0
H658 H 0.84301 0.35325 0.25023 0.0
H659 H 0.67723 0.30621 0.22799 0.0
H660 H 0.61362 0.29404 0.24776 0.0
H661 H 0.68359 0.37697 0.30323 0.0
H662 H 0.74742 0.3884 0.28424 0.0
H663 H 0.81522 0.35997 0.12944 0.0
H664 H 0.81689 0.34788 0.17154 0.0
H665 H 0.78725 0.44226 0.18724 0.0
H666 H 0.7831 0.45286 0.14497 0.0
H667 H 0.74019 0.37894 0.21138 0.0
H668 H 0.88351 0.45274 0.20078 0.0
H669 H 0.95122 0.47393 0.18346 0.0
H670 H 0.93615 0.35546 0.19744 0.0
H671 H 0.86809 0.3333 0.21448 0.0
C672 C 0.7943 0.30712 0.31162 0.0
C673 C 0.76965 0.26507 0.30763 0.0
C674 C 0.79647 0.33509 0.29474 0.0
C675 C 0.77347 0.32129 0.27394 0.0
C676 C 0.74625 0.27954 0.27093 0.0
C677 C 0.74476 0.25157 0.28752 0.0
C678 C 0.78392 0.34839 0.25328 0.0
C679 C 0.82121 0.36011 0.24195 0.0
C680 C 0.75525 0.3569 0.24263 0.0
C681 C 0.71693 0.34798 0.25478 0.0
C682 C 0.67893 0.32151 0.24453 0.0
C683 C 0.64286 0.3146 0.25565 0.0
C684 C 0.64454 0.33453 0.27682 0.0
C685 C 0.68229 0.36123 0.28696 0.0
C686 C 0.71838 0.36757 0.27618 0.0
C687 C 0.80903 0.37818 0.14183 0.0
C688 C 0.79858 0.40706 0.13382 0.0
C689 C 0.81071 0.37173 0.16594 0.0
C690 C 0.80274 0.39455 0.18261 0.0
C691 C 0.79371 0.42444 0.1747 0.0
C692 C 0.79162 0.43064 0.15053 0.0
C693 C 0.79965 0.38397 0.20803 0.0
C694 C 0.76324 0.3743 0.22003 0.0
C695 C 0.82989 0.37849 0.21961 0.0
C696 C 0.87047 0.39129 0.2088 0.0
C697 C 0.89442 0.43106 0.19995 0.0
C698 C 0.93293 0.44327 0.19022 0.0
C699 C 0.94795 0.41605 0.18932 0.0
C700 C 0.92447 0.37652 0.19813 0.0
C701 C 0.88593 0.36413 0.20785 0.0
H702 H 0.97781 0.4256 0.18183 0.0
H703 H 0.61662 0.32941 0.28531 0.0
H704 H 0.54212 0.83157 0.64227 0.0
H705 H 0.50417 0.84589 0.61315 0.0
H706 H 0.46265 0.72714 0.58199 0.0
H707 H 0.50499 0.71514 0.60991 0.0
H708 H 0.48219 0.77268 0.54953 0.0
H709 H 0.39266 0.76401 0.61438 0.0
H710 H 0.37152 0.77895 0.65277 0.0
H711 H 0.43828 0.90702 0.6379 0.0
H712 H 0.45839 0.89291 0.59893 0.0
H713 H 0.32526 0.78016 0.4826 0.0
H714 H 0.35578 0.76868 0.51756 0.0
H715 H 0.45628 0.89169 0.51341 0.0
H716 H 0.4272 0.90312 0.47749 0.0
H717 H 0.40515 0.84599 0.5633 0.0
H718 H 0.49104 0.8483 0.49649 0.0
H719 H 0.49821 0.82718 0.45627 0.0
H720 H 0.42793 0.70137 0.47655 0.0
H721 H 0.41982 0.72184 0.5168 0.0
C722 C 0.52343 0.80781 0.62994 0.0
C723 C 0.52422 0.77105 0.62935 0.0
C724 C 0.50154 0.81602 0.61313 0.0
C725 C 0.47894 0.78711 0.59568 0.0
C726 C 0.47942 0.75001 0.59531 0.0
C727 C 0.50311 0.74279 0.61144 0.0
C728 C 0.45922 0.79753 0.57618 0.0
C729 C 0.46476 0.788 0.55288 0.0
C730 C 0.43734 0.81876 0.57998 0.0
C731 C 0.42726 0.82741 0.60387 0.0
C732 C 0.40309 0.79536 0.61938 0.0
C733 C 0.39116 0.80364 0.64118 0.0
C734 C 0.40379 0.8438 0.64784 0.0
C735 C 0.42839 0.87589 0.63268 0.0
C736 C 0.4398 0.86778 0.61067 0.0
C737 C 0.35396 0.80485 0.48894 0.0
C738 C 0.37409 0.84242 0.47695 0.0
C739 C 0.37105 0.79828 0.50907 0.0
C740 C 0.40816 0.82931 0.51782 0.0
C741 C 0.42745 0.86752 0.50679 0.0
C742 C 0.4107 0.87398 0.48635 0.0
C743 C 0.42797 0.82044 0.53747 0.0
C744 C 0.4225 0.8304 0.56049 0.0
C745 C 0.44906 0.79883 0.53358 0.0
C746 C 0.45445 0.78659 0.50952 0.0
C747 C 0.47679 0.81615 0.49229 0.0
C748 C 0.4811 0.8043 0.46951 0.0
C749 C 0.46343 0.76296 0.46383 0.0
C750 C 0.44154 0.73338 0.48095 0.0
C751 C 0.4371 0.74509 0.50375 0.0
H752 H 0.46679 0.75384 0.44619 0.0
H753 H 0.39441 0.85002 0.66473 0.0
H754 H 0.71264 0.53171 0.98032 0.0
H755 H 0.66214 0.49253 0.9509 0.0
H756 H 0.74286 0.45342 0.92125 0.0
H757 H 0.79485 0.49489 0.95071 0.0
H758 H 0.71418 0.47953 0.88811 0.0
H759 H 0.64094 0.37611 0.95083 0.0
H760 H 0.61087 0.35457 0.9905 0.0
H761 H 0.54626 0.42086 0.98237 0.0
H762 H 0.57401 0.44066 0.94194 0.0
H763 H 0.56993 0.32715 0.81265 0.0
H764 H 0.62111 0.36929 0.84189 0.0
H765 H 0.53936 0.4086 0.86972 0.0
H766 H 0.48775 0.36588 0.84067 0.0
H767 H 0.56757 0.38391 0.90389 0.0
H768 H 0.62701 0.47517 0.83977 0.0
H769 H 0.65363 0.49845 0.79956 0.0
H770 H 0.74555 0.46438 0.81039 0.0
H771 H 0.71925 0.44057 0.85063 0.0
C772 C 0.71885 0.51301 0.96853 0.0
C773 C 0.75663 0.51424 0.96879 0.0
C774 C 0.68993 0.49074 0.95143 0.0
C775 C 0.69794 0.46869 0.93433 0.0
C776 C 0.73573 0.46966 0.93455 0.0
C777 C 0.7652 0.49295 0.95142 0.0
C778 C 0.66845 0.44818 0.91495 0.0
C779 C 0.68227 0.45793 0.89152 0.0
C780 C 0.62643 0.42189 0.91938 0.0
C781 C 0.6098 0.41011 0.94357 0.0
C782 C 0.62038 0.38611 0.95756 0.0
C783 C 0.60372 0.37419 0.98017 0.0
C784 C 0.57738 0.38704 0.98923 0.0
C785 C 0.56683 0.41107 0.97542 0.0
C786 C 0.58257 0.4222 0.95253 0.0
C787 C 0.56322 0.34538 0.82474 0.0
C788 C 0.52495 0.34324 0.82454 0.0
C789 C 0.59249 0.36952 0.84137 0.0
C790 C 0.58413 0.39232 0.85784 0.0
C791 C 0.54634 0.39116 0.85718 0.0
C792 C 0.51692 0.36674 0.84067 0.0
C793 C 0.61344 0.41443 0.87699 0.0
C794 C 0.59952 0.40527 0.90039 0.0
C795 C 0.65518 0.44186 0.87245 0.0
C796 C 0.6709 0.45573 0.84816 0.0
C797 C 0.65267 0.4723 0.83351 0.0
C798 C 0.66777 0.48569 0.81073 0.0
C799 C 0.70118 0.48278 0.80239 0.0
C800 C 0.71964 0.46657 0.81686 0.0
C801 C 0.70469 0.4532 0.83968 0.0
H802 H 0.71283 0.49316 0.78475 0.0
H803 H 0.5649 0.37809 1.00687 0.0
H804 H 0.36149 0.51253 0.01261 0.0
H805 H 0.43232 0.5303 0.0122 0.0
H806 H 0.39772 0.40365 0.0204 0.0
H807 H 0.32515 0.3854 0.02179 0.0
H808 H 0.45983 0.45021 0.04916 0.0
H809 H 0.44376 0.45458 0.9649 0.0
H810 H 0.42238 0.47188 0.92753 0.0
H811 H 0.48704 0.59878 0.94611 0.0
H812 H 0.51016 0.5823 0.98321 0.0
H813 H 0.65512 0.48119 0.023 0.0
H814 H 0.584 0.46233 0.02188 0.0
H815 H 0.61683 0.58912 0.02003 0.0
H816 H 0.68982 0.60889 0.02139 0.0
H817 H 0.55573 0.54165 0.98782 0.0
H818 H 0.57864 0.53439 0.07073 0.0
H819 H 0.60302 0.51385 0.10571 0.0
H820 H 0.52407 0.38775 0.08859 0.0
H821 H 0.4995 0.40754 0.05335 0.0
C822 C 0.36843 0.48812 0.01454 0.0
C823 C 0.33719 0.44742 0.01766 0.0
C824 C 0.40938 0.49845 0.01386 0.0
C825 C 0.42074 0.46841 0.01584 0.0
C826 C 0.38979 0.42747 0.0187 0.0
C827 C 0.34831 0.41701 0.01944 0.0
C828 C 0.46507 0.4808 0.01617 0.0
C829 C 0.48063 0.46957 0.03551 0.0
C830 C 0.49272 0.50708 0.99878 0.0
C831 C 0.47829 0.51718 0.97686 0.0
C832 C 0.45319 0.48614 0.96105 0.0
C833 C 0.44092 0.49581 0.93989 0.0
C834 C 0.45286 0.53635 0.93457 0.0
C835 C 0.47768 0.56738 0.95027 0.0
C836 C 0.4907 0.55794 0.97126 0.0
C837 C 0.64779 0.50552 0.02278 0.0
C838 C 0.67868 0.54686 0.02287 0.0
C839 C 0.60667 0.49442 0.02202 0.0
C840 C 0.5948 0.52416 0.02134 0.0
C841 C 0.62529 0.56558 0.02078 0.0
C842 C 0.66696 0.57688 0.0216 0.0
C843 C 0.55043 0.51119 0.02084 0.0
C844 C 0.53491 0.52232 1.00148 0.0
C845 C 0.52282 0.48446 0.0381 0.0
C846 C 0.53733 0.47246 0.05936 0.0
C847 C 0.5666 0.50228 0.07437 0.0
C848 C 0.58039 0.49077 0.09426 0.0
C849 C 0.56499 0.44953 0.09941 0.0
C850 C 0.53583 0.41969 0.08463 0.0
C851 C 0.52191 0.43103 0.06472 0.0
H852 H 0.57576 0.44069 0.1148 0.0
H853 H 0.44305 0.54371 0.91824 0.0
H854 H 0.07945 0.69517 0.35637 0.0
H855 H 0.02089 0.62504 0.356 0.0
H856 H 0.10078 0.57963 0.33399 0.0
H857 H 0.15805 0.64786 0.33442 0.0
H858 H 0.02819 0.53962 0.31164 0.0
H859 H 0.0788 0.5846 0.39208 0.0
H860 H 0.09271 0.62936 0.42684 0.0
H861 H 0.96587 0.59464 0.43103 0.0
H862 H 0.95135 0.55036 0.39607 0.0
H863 H 0.93026 0.3311 0.3481 0.0
H864 H 0.98056 0.40388 0.34349 0.0
H865 H 0.89366 0.43579 0.37187 0.0
H866 H 0.84436 0.36476 0.37649 0.0
H867 H 0.96479 0.48427 0.38968 0.0
H868 H 0.91036 0.43721 0.31316 0.0
H869 H 0.89166 0.39446 0.27755 0.0
H870 H 0.01796 0.43385 0.26399 0.0
H871 H 0.0375 0.47645 0.29997 0.0
C872 C 0.08412 0.6702 0.35103 0.0
C873 C 0.12348 0.67716 0.34565 0.0
C874 C 0.05081 0.63023 0.3509 0.0
C875 C 0.05663 0.59707 0.34518 0.0
C876 C 0.09545 0.60457 0.33842 0.0
C877 C 0.12838 0.64393 0.33878 0.0
C878 C 0.02395 0.55405 0.34803 0.0
C879 C 0.01436 0.52741 0.32871 0.0
C880 C 1.00529 0.53831 0.37017 0.0
C881 C 0.01411 0.56459 0.39133 0.0
C882 C 0.05398 0.58678 0.40034 0.0
C883 C 0.06196 0.61202 0.42005 0.0
C884 C 0.03023 0.61488 0.43108 0.0
C885 C 0.99043 0.59246 0.42244 0.0
C886 C 0.98231 0.56733 0.40267 0.0
C887 C 0.9222 0.35368 0.35369 0.0
C888 C 0.88315 0.34169 0.3629 0.0
C889 C 0.95082 0.39525 0.35087 0.0
C890 C 0.94075 0.42536 0.35719 0.0
C891 C 0.90234 0.41333 0.36697 0.0
C892 C 0.87401 0.37225 0.3697 0.0
C893 C 0.96943 0.46952 0.35336 0.0
C894 C 0.97832 0.49634 0.37253 0.0
C895 C 0.98683 0.48548 0.33097 0.0
C896 C 0.97535 0.4596 0.30947 0.0
C897 C 0.93416 0.43644 0.30276 0.0
C898 C 0.9234 0.41228 0.28244 0.0
C899 C 0.95354 0.41129 0.26848 0.0
C900 C 0.99461 0.43455 0.27484 0.0
C901 C 0.00556 0.45871 0.29522 0.0
H902 H 0.94509 0.39259 0.25272 0.0
H903 H 0.03648 0.6344 0.44634 0.0
H904 H 0.5114 0.15187 0.69551 0.0
H905 H 0.53072 0.09983 0.69303 0.0
H906 H 0.40662 0.01045 0.67598 0.0
H907 H 0.38653 0.06353 0.67896 0.0
H908 H 0.43996 0.98371 0.71035 0.0
H909 H 0.48087 0.04297 0.63336 0.0
H910 H 0.515 0.09664 0.60328 0.0
H911 H 0.6313 0.13284 0.63513 0.0
H912 H 0.59785 0.07959 0.66552 0.0
H913 H 0.48501 0.83072 0.68148 0.0
H914 H 0.46575 0.88265 0.68177 0.0
H915 H 0.59085 0.97483 0.69353 0.0
H916 H 0.61109 0.92174 0.69356 0.0
H917 H 0.55607 0.99958 0.66099 0.0
H918 H 0.51663 0.94409 0.73879 0.0
H919 H 0.48412 0.89069 0.76921 0.0
H920 H 0.36715 0.84895 0.73683 0.0
H921 H 0.399 0.90198 0.70612 0.0
C922 C 0.4878 0.12121 0.69155 0.0
C923 C 0.4471 0.11193 0.68799 0.0
C924 C 0.49921 0.09142 0.68971 0.0
C925 C 0.47038 0.0512 0.68404 0.0
C926 C 0.42953 0.04142 0.68027 0.0
C927 C 0.41804 0.07169 0.68196 0.0
C928 C 0.48325 0.01962 0.68342 0.0
C929 C 0.4648 0.98676 0.6992 0.0
C930 C 0.51681 0.02439 0.66958 0.0
C931 C 0.53679 0.0574 0.65181 0.0
C932 C 0.51367 0.06266 0.63411 0.0
C933 C 0.53293 0.09294 0.61695 0.0
C934 C 0.57531 0.11812 0.61729 0.0
C935 C 0.59849 0.11327 0.63487 0.0
C936 C 0.57941 0.083 0.65204 0.0
C937 C 0.50881 0.8618 0.68457 0.0
C938 C 0.54975 0.8717 0.68809 0.0
C939 C 0.49747 0.89168 0.68459 0.0
C940 C 0.52645 0.93267 0.68811 0.0
C941 C 0.56772 0.94325 0.69101 0.0
C942 C 0.57931 0.91296 0.69105 0.0
C943 C 0.51294 0.96383 0.68803 0.0
C944 C 0.53121 0.99653 0.67212 0.0
C945 C 0.47943 0.95918 0.70189 0.0
C946 C 0.46022 0.92693 0.72014 0.0
C947 C 0.484 0.92339 0.7381 0.0
C948 C 0.46568 0.89329 0.75543 0.0
C949 C 0.42358 0.86658 0.75501 0.0
C950 C 0.39972 0.86981 0.7372 0.0
C951 C 0.41788 0.89993 0.71986 0.0
H952 H 0.40946 0.84325 0.76843 0.0
H953 H 0.59033 0.14125 0.6039 0.0
H954 H 0.61039 0.67013 0.69677 0.0
H955 H 0.58794 0.59734 0.69282 0.0
H956 H 0.52377 0.59239 0.62871 0.0
H957 H 0.54501 0.66469 0.63329 0.0
H958 H 0.47432 0.53489 0.65599 0.0
H959 H 0.61028 0.57808 0.63008 0.0
H960 H 0.6855 0.6167 0.63153 0.0
H961 H 0.68366 0.55914 0.69727 0.0
H962 H 0.60839 0.5206 0.69641 0.0
H963 H 0.41575 0.3199 0.64265 0.0
H964 H 0.44186 0.39318 0.63568 0.0
H965 H 0.50509 0.4211 0.70244 0.0
H966 H 0.47946 0.34906 0.70936 0.0
H967 H 0.5559 0.46594 0.66741 0.0
H968 H 0.41989 0.42903 0.69488 0.0
H969 H 0.34466 0.39046 0.69334 0.0
H970 H 0.34743 0.43628 0.62354 0.0
H971 H 0.42276 0.4747 0.62455 0.0
C972 C 0.59303 0.65379 0.68133 0.0
C973 C 0.58014 0.67301 0.66504 0.0
C974 C 0.5799 0.61207 0.67911 0.0
C975 C 0.55412 0.58908 0.66038 0.0
C976 C 0.54347 0.60919 0.64333 0.0
C977 C 0.55611 0.65063 0.64574 0.0
C978 C 0.53515 0.54369 0.65981 0.0
C979 C 0.49237 0.51989 0.65798 0.0
C980 C 0.55832 0.52377 0.66276 0.0
C981 C 0.60364 0.54664 0.66325 0.0
C982 C 0.6259 0.57384 0.64493 0.0
C983 C 0.66855 0.5957 0.64563 0.0
C984 C 0.68934 0.59043 0.6645 0.0
C985 C 0.66752 0.5632 0.68267 0.0
C986 C 0.62485 0.5413 0.68206 0.0
C987 C 0.4343 0.34166 0.65604 0.0
C988 C 0.44552 0.32863 0.67653 0.0
C989 C 0.44952 0.38355 0.65198 0.0
C990 C 0.47592 0.41277 0.66844 0.0
C991 C 0.48534 0.39936 0.68932 0.0
C992 C 0.47036 0.35798 0.69331 0.0
C993 C 0.49525 0.45748 0.66407 0.0
C994 C 0.53807 0.48108 0.665 0.0
C995 C 0.47217 0.47718 0.66021 0.0
C996 C 0.42694 0.45431 0.65967 0.0
C997 C 0.40446 0.4306 0.67913 0.0
C998 C 0.36181 0.40882 0.67837 0.0
C999 C 0.34128 0.41081 0.65832 0.0
C1000 C 0.36337 0.4347 0.63903 0.0
C1001 C 0.40604 0.45649 0.63969 0.0
H1002 H 0.30826 0.39392 0.65776 0.0
H1003 H 0.72237 0.60739 0.66502 0.0
H1004 H 0.13145 0.45236 0.9694 0.0
H1005 H 0.0834 0.47795 0.96536 0.0
H1006 H 0.03013 0.4252 0.03288 0.0
H1007 H 0.07778 0.39878 0.03659 0.0
H1008 H 0.97242 0.42247 1.00403 0.0
H1009 H 0.10549 0.52473 0.02866 0.0
H1010 H 0.18012 0.56701 0.02667 0.0
H1011 H 0.17109 0.6151 0.95968 0.0
H1012 H 0.09595 0.57268 0.96119 0.0
H1013 H 0.90402 0.55185 0.04577 0.0
H1014 H 0.95112 0.52555 0.0405 0.0
H1015 H 0.96718 0.56176 0.96727 0.0
H1016 H 0.91892 0.58768 0.97248 0.0
H1017 H 0.04233 0.57296 0.99477 0.0
H1018 H 0.90637 0.47169 0.97258 0.0
H1019 H 0.83182 0.43094 0.97738 0.0
H1020 H 0.8473 0.38303 0.04294 0.0
H1021 H 0.92222 0.42382 0.03854 0.0
C1022 C 0.10821 0.44469 0.98285 0.0
C1023 C 0.10767 0.42289 1.00306 0.0
C1024 C 0.08118 0.45987 0.98072 0.0
C1025 C 0.05365 0.45438 0.99906 0.0
C1026 C 0.05106 0.42995 0.0185 0.0
C1027 C 0.07801 0.41447 0.02053 0.0
C1028 C 0.03036 0.47698 0.99894 0.0
C1029 C 0.98784 0.45535 1.00208 0.0
C1030 C 0.05013 0.51998 0.9961 0.0
C1031 C 0.09518 0.54523 0.99492 0.0
C1032 C 0.11941 0.54405 0.0134 0.0
C1033 C 0.16184 0.56811 0.01238 0.0
C1034 C 0.18049 0.59372 0.99305 0.0
C1035 C 0.15663 0.59524 0.97465 0.0
C1036 C 0.11408 0.57123 0.97558 0.0
C1037 C 0.91866 0.55547 0.02873 0.0
C1038 C 0.90814 0.57204 1.00956 0.0
C1039 C 0.94532 0.54016 0.0257 0.0
C1040 C 0.96218 0.54113 1.00343 0.0
C1041 C 0.95443 0.5607 0.98461 0.0
C1042 C 0.92727 0.57589 0.98762 0.0
C1043 C 0.98467 0.51837 0.99979 0.0
C1044 C 0.02698 0.54 0.9962 0.0
C1045 C 0.96481 0.47546 1.00244 0.0
C1046 C 0.91986 0.45095 1.00528 0.0
C1047 C 0.89389 0.45271 0.98811 0.0
C1048 C 0.85155 0.42953 0.99074 0.0
C1049 C 0.83478 0.40435 1.01045 0.0
C1050 C 0.86035 0.40246 0.02764 0.0
C1051 C 0.90277 0.42553 0.02506 0.0
H1052 H 0.80198 0.38616 0.01234 0.0
H1053 H 0.21338 0.61249 0.9924 0.0
H1054 H 0.36993 0.8552 0.36222 0.0
H1055 H 0.44023 0.90719 0.35888 0.0
H1056 H 0.40473 0.98729 0.32525 0.0
H1057 H 0.33237 0.9342 0.32858 0.0
H1058 H 0.46938 0.98306 0.30191 0.0
H1059 H 0.43989 0.00877 0.38008 0.0
H1060 H 0.41461 0.99452 0.42116 0.0
H1061 H 0.49345 0.9454 0.43599 0.0
H1062 H 0.51898 0.959 0.39493 0.0
H1063 H 0.66921 0.15318 0.31492 0.0
H1064 H 0.59755 0.1019 0.3115 0.0
H1065 H 0.61882 0.01946 0.35413 0.0
H1066 H 0.69093 0.07221 0.35846 0.0
H1067 H 0.55969 0.02807 0.37217 0.0
H1068 H 0.5887 1.00155 0.29359 0.0
H1069 H 0.61643 0.01913 0.25312 0.0
H1070 H 0.53922 0.07041 0.23898 0.0
H1071 H 0.5114 0.05365 0.27948 0.0
C1072 C 0.37632 0.88368 0.35413 0.0
C1073 C 0.34486 0.89005 0.34544 0.0
C1074 C 0.41701 0.91367 0.35238 0.0
C1075 C 0.42785 0.95125 0.34201 0.0
C1076 C 0.39691 0.95836 0.33337 0.0
C1077 C 0.35559 0.92806 0.33528 0.0
C1078 C 0.47186 0.98186 0.33988 0.0
C1079 C 0.48913 0.99366 0.31726 0.0
C1080 C 0.49771 0.9945 0.35989 0.0
C1081 C 0.48128 0.98484 0.38438 0.0
C1082 C 0.45156 0.99456 0.39202 0.0
C1083 C 0.4373 0.98674 0.41532 0.0
C1084 C 0.4526 0.96928 0.43118 0.0
C1085 C 0.4818 0.95911 0.4237 0.0
C1086 C 0.49622 0.96694 0.40043 0.0
C1087 C 0.65878 0.12374 0.32309 0.0
C1088 C 0.68529 0.11666 0.33716 0.0
C1089 C 0.61779 0.09423 0.32095 0.0
C1090 C 0.60254 0.05666 0.33254 0.0
C1091 C 0.62987 0.04829 0.34506 0.0
C1092 C 0.6711 0.07813 0.34732 0.0
C1093 C 0.55762 0.02882 0.33414 0.0
C1094 C 0.54011 0.01758 0.35673 0.0
C1095 C 0.53171 0.01679 0.31409 0.0
C1096 C 0.54819 0.02661 0.28965 0.0
C1097 C 0.57783 0.01683 0.28191 0.0
C1098 C 0.59353 0.02661 0.25895 0.0
C1099 C 0.57966 0.04595 0.2435 0.0
C1100 C 0.54995 0.05545 0.25096 0.0
C1101 C 0.53417 0.04577 0.27391 0.0
H1102 H 0.59186 0.05351 0.22574 0.0
H1103 H 0.44198 0.96381 0.44929 0.0
H1104 H 0.34939 0.13857 0.75935 0.0
H1105 H 0.31266 0.15161 0.7907 0.0
H1106 H 0.31996 0.25229 0.7508 0.0
H1107 H 0.3576 0.23963 0.71949 0.0
H1108 H 0.34526 0.27702 0.7943 0.0
H1109 H 0.22377 0.16404 0.76363 0.0
H1110 H 0.17838 0.09445 0.74874 0.0
H1111 H 0.19383 0.04406 0.81327 0.0
H1112 H 0.2387 0.11333 0.82876 0.0
H1113 H 0.22954 0.30802 0.88714 0.0
H1114 H 0.25428 0.29684 0.84913 0.0
H1115 H 0.25971 0.19459 0.87899 0.0
H1116 H 0.23543 0.20575 0.91676 0.0
H1117 H 0.2229 0.1738 0.83739 0.0
H1118 H 0.34724 0.28865 0.86698 0.0
H1119 H 0.38732 0.35857 0.88265 0.0
H1120 H 0.36432 0.40634 0.81929 0.0
H1121 H 0.3237 0.33661 0.80336 0.0
C1122 C 0.34172 0.16244 0.75682 0.0
C1123 C 0.35608 0.18768 0.73677 0.0
C1124 C 0.32076 0.17008 0.77486 0.0
C1125 C 0.3133 0.20307 0.77336 0.0
C1126 C 0.32531 0.22674 0.75258 0.0
C1127 C 0.3463 0.21906 0.73445 0.0
C1128 C 0.29635 0.21459 0.7943 0.0
C1129 C 0.31799 0.25456 0.8034 0.0
C1130 C 0.26118 0.18552 0.80667 0.0
C1131 C 0.23479 0.14384 0.79728 0.0
C1132 C 0.21766 0.13811 0.77459 0.0
C1133 C 0.19193 0.09875 0.76608 0.0
C1134 C 0.18351 0.06489 0.77996 0.0
C1135 C 0.20046 0.07032 0.80251 0.0
C1136 C 0.22582 0.10961 0.81123 0.0
C1137 C 0.23665 0.28359 0.8857 0.0
C1138 C 0.23017 0.25769 0.90509 0.0
C1139 C 0.25072 0.2771 0.86388 0.0
C1140 C 0.25891 0.24469 0.86097 0.0
C1141 C 0.25332 0.21952 0.88051 0.0
C1142 C 0.23933 0.22597 0.9022 0.0
C1143 C 0.2722 0.23586 0.83763 0.0
C1144 C 0.2499 0.19637 0.82812 0.0
C1145 C 0.30656 0.26544 0.82488 0.0
C1146 C 0.33213 0.30741 0.83408 0.0
C1147 C 0.35063 0.31407 0.85643 0.0
C1148 C 0.37346 0.35365 0.86535 0.0
C1149 C 0.37829 0.38686 0.85199 0.0
C1150 C 0.36053 0.38057 0.82962 0.0
C1151 C 0.33765 0.34103 0.82062 0.0
H1152 H 0.39579 0.41747 0.85898 0.0
H1153 H 0.16371 0.03446 0.77328 0.0
H1154 H 0.02881 0.25601 0.25256 0.0
H1155 H 0.06661 0.28529 0.2161 0.0
H1156 H 0.96265 0.28851 0.18696 0.0
H1157 H 0.92407 0.25821 0.22362 0.0
H1158 H 0.99465 0.25862 0.15465 0.0
H1159 H 0.04767 0.37657 0.20256 0.0
H1160 H 0.07708 0.41902 0.23807 0.0
H1161 H 0.18375 0.40613 0.23164 0.0
H1162 H 0.15471 0.36307 0.19627 0.0
H1163 H 0.12078 0.37054 0.05417 0.0
H1164 H 0.07279 0.34188 0.08713 0.0
H1165 H 0.16875 0.3467 0.13085 0.0
H1166 H 0.21719 0.37804 0.09829 0.0
H1167 H 0.13476 0.37738 0.15461 0.0
H1168 H 0.06211 0.23695 0.11556 0.0
H1169 H 0.02531 0.19005 0.0826 0.0
H1170 H 0.95591 0.25074 0.07138 0.0
H1171 H 0.99051 0.29628 0.10523 0.0
C1172 C 0.01386 0.26302 0.23847 0.0
C1173 C 0.97314 0.25439 0.24111 0.0
C1174 C 0.03574 0.28012 0.21758 0.0
C1175 C 0.0178 0.28944 0.19859 0.0
C1176 C 0.97734 0.28163 0.20125 0.0
C1177 C 0.95538 0.26463 0.22234 0.0
C1178 C 0.04128 0.30601 0.17593 0.0
C1179 C 0.02509 0.28499 0.15463 0.0
C1180 C 0.08114 0.34033 0.17559 0.0
C1181 C 0.09885 0.36631 0.19684 0.0
C1182 C 0.07727 0.38252 0.20881 0.0
C1183 C 0.0939 0.40674 0.2289 0.0
C1184 C 0.13223 0.41521 0.23713 0.0
C1185 C 0.15405 0.39953 0.22525 0.0
C1186 C 0.13753 0.37525 0.20516 0.0
C1187 C 0.13134 0.36439 0.07059 0.0
C1188 C 0.17286 0.37634 0.0735 0.0
C1189 C 0.10363 0.34764 0.08959 0.0
C1190 C 0.11649 0.34145 0.11185 0.0
C1191 C 0.15759 0.35121 0.11414 0.0
C1192 C 0.18537 0.36882 0.09539 0.0
C1193 C 0.08903 0.32881 0.13339 0.0
C1194 C 0.10439 0.35094 0.15456 0.0
C1195 C 0.04827 0.29588 0.13354 0.0
C1196 C 0.02935 0.27036 0.1125 0.0
C1197 C 0.03924 0.24042 0.1059 0.0
C1198 C 0.01858 0.21393 0.08721 0.0
C1199 C 0.9889 0.21792 0.07461 0.0
C1200 C 0.97913 0.24787 0.08102 0.0
C1201 C 0.99887 0.27368 0.10012 0.0
H1202 H 0.97323 0.19759 0.06002 0.0
H1203 H 0.14506 0.43397 0.25269 0.0
H1204 H 0.6829 0.91766 0.55516 0.0
H1205 H 0.69188 0.95738 0.51897 0.0
H1206 H 0.79793 0.05962 0.54939 0.0
H1207 H 0.78872 0.02064 0.58544 0.0
H1208 H 0.75192 0.08492 0.528 0.0
H1209 H 0.80453 0.99488 0.50753 0.0
H1210 H 0.79986 0.92785 0.50203 0.0
H1211 H 0.70305 0.8942 0.45187 0.0
H1212 H 0.7068 0.96088 0.45731 0.0
H1213 H 0.84678 0.21534 0.43377 0.0
H1214 H 0.83408 0.16605 0.46511 0.0
H1215 H 0.7373 0.07185 0.42377 0.0
H1216 H 0.75169 0.12111 0.39169 0.0
H1217 H 0.77102 0.03819 0.44939 0.0
H1218 H 0.71953 0.12805 0.46802 0.0
H1219 H 0.72152 0.19373 0.47398 0.0
H1220 H 0.81198 0.22611 0.52804 0.0
H1221 H 0.81107 0.16086 0.52223 0.0
C1222 C 0.70784 0.94876 0.55421 0.0
C1223 C 0.73525 0.96574 0.57324 0.0
C1224 C 0.71323 0.97135 0.53338 0.0
C1225 C 0.74603 0.01151 0.53115 0.0
C1226 C 0.77253 0.02875 0.55045 0.0
C1227 C 0.76732 0.00625 0.5711 0.0
C1228 C 0.75316 0.03613 0.50901 0.0
C1229 C 0.75648 0.07477 0.51088 0.0
C1230 C 0.75776 0.02262 0.48636 0.0
C1231 C 0.75564 0.98266 0.48302 0.0
C1232 C 0.78203 0.97305 0.49546 0.0
C1233 C 0.77959 0.93515 0.49233 0.0
C1234 C 0.75109 0.90673 0.47666 0.0
C1235 C 0.72506 0.91621 0.46403 0.0
C1236 C 0.72734 0.95406 0.46712 0.0
C1237 C 0.82374 0.18378 0.43102 0.0
C1238 C 0.80056 0.1721 0.41017 0.0
C1239 C 0.81601 0.15564 0.44914 0.0
C1240 C 0.78363 0.1153 0.44737 0.0
C1241 C 0.76217 0.10278 0.42583 0.0
C1242 C 0.77058 0.13092 0.40737 0.0
C1243 C 0.7709 0.08752 0.46854 0.0
C1244 C 0.7663 0.04829 0.46648 0.0
C1245 C 0.76472 0.10029 0.49109 0.0
C1246 C 0.76545 0.13966 0.49455 0.0
C1247 C 0.74006 0.14928 0.48106 0.0
C1248 C 0.74096 0.18642 0.48443 0.0
C1249 C 0.76684 0.21408 0.50133 0.0
C1250 C 0.79194 0.20466 0.51494 0.0
C1251 C 0.79124 0.16759 0.51163 0.0
H1252 H 0.76738 0.24278 0.5039 0.0
H1253 H 0.74925 0.87741 0.47426 0.0
H1254 H 0.61008 0.81529 0.76557 0.0
H1255 H 0.64582 0.80348 0.79758 0.0
H1256 H 0.68619 0.74191 0.74927 0.0
H1257 H 0.64758 0.75146 0.71728 0.0
H1258 H 0.66192 0.69935 0.78729 0.0
H1259 H 0.75569 0.84475 0.77776 0.0
H1260 H 0.77631 0.91792 0.77497 0.0
H1261 H 0.71834 0.91112 0.84146 0.0
H1262 H 0.69795 0.83837 0.8449 0.0
H1263 H 0.78461 0.68478 0.88132 0.0
H1264 H 0.75729 0.69588 0.84436 0.0
H1265 H 0.71042 0.76279 0.88298 0.0
H1266 H 0.73925 0.75324 0.91944 0.0
H1267 H 0.74525 0.80383 0.8469 0.0
H1268 H 0.6492 0.66111 0.85711 0.0
H1269 H 0.6276 0.58833 0.86237 0.0
H1270 H 0.68476 0.5883 0.7966 0.0
H1271 H 0.70714 0.66127 0.79107 0.0
C1272 C 0.62731 0.79999 0.7616 0.0
C1273 C 0.62653 0.78507 0.73869 0.0
C1274 C 0.64817 0.79346 0.78 0.0
C1275 C 0.66988 0.77252 0.77609 0.0
C1276 C 0.67008 0.75843 0.75296 0.0
C1277 C 0.64843 0.76438 0.73451 0.0
C1278 C 0.68944 0.76295 0.79652 0.0
C1279 C 0.68084 0.72248 0.80004 0.0
C1280 C 0.71328 0.79248 0.81382 0.0
C1281 C 0.72506 0.83608 0.81148 0.0
C1282 C 0.74715 0.85884 0.79169 0.0
C1283 C 0.75885 0.9002 0.79002 0.0
C1284 C 0.74833 0.91895 0.80788 0.0
C1285 C 0.72639 0.89654 0.8276 0.0
C1286 C 0.71496 0.85534 0.82949 0.0
C1287 C 0.7678 0.70119 0.88189 0.0
C1288 C 0.76397 0.71802 0.90332 0.0
C1289 C 0.75208 0.70755 0.86072 0.0
C1290 C 0.73141 0.73018 0.86058 0.0
C1291 C 0.72639 0.74555 0.88228 0.0
C1292 C 0.74265 0.73983 0.90324 0.0
C1293 C 0.71692 0.74012 0.83801 0.0
C1294 C 0.72663 0.78072 0.83405 0.0
C1295 C 0.69371 0.71061 0.82056 0.0
C1296 C 0.68025 0.66677 0.82382 0.0
C1297 C 0.65744 0.64567 0.84386 0.0
C1298 C 0.645 0.60438 0.84687 0.0
C1299 C 0.65492 0.58376 0.82986 0.0
C1300 C 0.67718 0.60435 0.80977 0.0
C1301 C 0.68972 0.64566 0.80669 0.0
H1302 H 0.64524 0.5518 0.83223 0.0
H1303 H 0.75735 0.95092 0.80649 0.0
H1304 H 0.00973 0.78611 0.24282 0.0
H1305 H 0.96856 0.75351 0.20788 0.0
H1306 H 0.06195 0.72927 0.18152 0.0
H1307 H 0.10387 0.76265 0.21657 0.0
H1308 H 0.03407 0.7594 0.14655 0.0
H1309 H 0.97381 0.65208 0.20275 0.0
H1310 H 0.94332 0.61909 0.24077 0.0
H1311 H 0.84488 0.64397 0.23043 0.0
H1312 H 0.87509 0.67764 0.19248 0.0
H1313 H 0.89887 0.63046 0.05415 0.0
H1314 H 0.94921 0.66578 0.08521 0.0
H1315 H 0.85886 0.67871 0.12561 0.0
H1316 H 0.80801 0.6408 0.09528 0.0
H1317 H 0.88966 0.65004 0.153 0.0
H1318 H 0.96315 0.77414 0.10232 0.0
H1319 H 0.99874 0.81167 0.06616 0.0
H1320 H 0.0703 0.75174 0.06556 0.0
H1321 H 0.03682 0.71567 0.10248 0.0
C1322 C 0.02164 0.77387 0.22964 0.0
C1323 C 0.06032 0.77726 0.23255 0.0
C1324 C 0.99784 0.75491 0.20966 0.0
C1325 C 0.01187 0.73861 0.19197 0.0
C1326 C 0.05034 0.74155 0.19486 0.0
C1327 C 0.07416 0.76035 0.21503 0.0
C1328 C 0.98643 0.7194 0.1704 0.0
C1329 C 1.00262 0.73509 0.14796 0.0
C1330 C 0.94522 0.68792 0.17201 0.0
C1331 C 0.92692 0.6677 0.19485 0.0
C1332 C 0.94583 0.65082 0.20866 0.0
C1333 C 0.92857 0.63194 0.23019 0.0
C1334 C 0.89223 0.62951 0.23804 0.0
C1335 C 0.87304 0.6459 0.22434 0.0
C1336 C 0.8902 0.66485 0.20281 0.0
C1337 C 0.89022 0.64219 0.06925 0.0
C1338 C 0.84956 0.63343 0.07206 0.0
C1339 C 0.91919 0.66257 0.08715 0.0
C1340 C 0.90838 0.67545 0.10806 0.0
C1341 C 0.86834 0.66903 0.10993 0.0
C1342 C 0.83926 0.64777 0.0924 0.0
C1343 C 0.93658 0.69126 0.12905 0.0
C1344 C 0.921 0.67451 0.15148 0.0
C1345 C 0.97831 0.72164 0.12741 0.0
C1346 C 0.99716 0.74189 0.10485 0.0
C1347 C 0.98629 0.76883 0.09435 0.0
C1348 C 0.0062 0.78996 0.07381 0.0
C1349 C 0.03615 0.78351 0.06331 0.0
C1350 C 0.04691 0.75652 0.07361 0.0
C1351 C 0.02784 0.7361 0.09447 0.0
H1352 H 0.05126 0.79968 0.04731 0.0
H1353 H 0.8789 0.61487 0.25471 0.0
H1354 H 0.33749 0.08844 0.54666 0.0
H1355 H 0.32695 0.045 0.5119 0.0
H1356 H 0.2147 0.951 0.54241 0.0
H1357 H 0.22541 0.99368 0.57706 0.0
H1358 H 0.25594 0.91814 0.52293 0.0
H1359 H 0.21663 0.01672 0.49872 0.0
H1360 H 0.22803 0.08606 0.49164 0.0
H1361 H 0.32546 0.1095 0.4434 0.0
H1362 H 0.31498 0.04045 0.45044 0.0
H1363 H 0.16465 0.78809 0.42661 0.0
H1364 H 0.17648 0.83675 0.45836 0.0
H1365 H 0.27726 0.93073 0.41898 0.0
H1366 H 0.26295 0.88287 0.38636 0.0
H1367 H 0.24704 0.96595 0.44273 0.0
H1368 H 0.28204 0.86485 0.46404 0.0
H1369 H 0.27066 0.79548 0.47081 0.0
H1370 H 0.18428 0.77712 0.52563 0.0
H1371 H 0.19394 0.84578 0.51852 0.0
C1372 C 0.31089 0.05829 0.54607 0.0
C1373 C 0.28214 0.04479 0.56462 0.0
C1374 C 0.30464 0.03358 0.52606 0.0
C1375 C 0.26959 0.99477 0.52422 0.0
C1376 C 0.24184 0.98077 0.54319 0.0
C1377 C 0.24793 0.00539 0.56301 0.0
C1378 C 0.26108 0.96856 0.50264 0.0
C1379 C 0.25361 0.92847 0.50542 0.0
C1380 C 0.25912 0.98219 0.4796 0.0
C1381 C 0.26533 0.02361 0.47531 0.0
C1382 C 0.24069 0.03678 0.48674 0.0
C1383 C 0.24695 0.076 0.48272 0.0
C1384 C 0.27753 0.10221 0.46714 0.0
C1385 C 0.30184 0.0892 0.4555 0.0
C1386 C 0.29574 0.05002 0.45949 0.0
C1387 C 0.18868 0.81943 0.42452 0.0
C1388 C 0.21312 0.83143 0.40408 0.0
C1389 C 0.19585 0.84722 0.44284 0.0
C1390 C 0.22905 0.88728 0.44177 0.0
C1391 C 0.25182 0.90001 0.42063 0.0
C1392 C 0.24369 0.8725 0.40191 0.0
C1393 C 0.24117 0.915 0.46299 0.0
C1394 C 0.24949 0.95546 0.46017 0.0
C1395 C 0.24415 0.90171 0.48606 0.0
C1396 C 0.23867 0.8605 0.49061 0.0
C1397 C 0.26062 0.846 0.47748 0.0
C1398 C 0.25441 0.80678 0.48136 0.0
C1399 C 0.22701 0.78201 0.49874 0.0
C1400 C 0.20556 0.79635 0.51219 0.0
C1401 C 0.21128 0.83539 0.50817 0.0
H1402 H 0.22233 0.75168 0.50175 0.0
H1403 H 0.28232 0.13256 0.46404 0.0
loop_
_geom_bond_atom_site_label_1
_geom_bond_atom_site_label_2
_geom_bond_distance
_geom_bond_site_symmetry_2
_ccdc_geom_bond_type
Tb0 N31 2.660 . S
Tb0 N38 2.600 . S
Tb0 O44 2.546 . S
Tb0 O45 2.610 . S
Tb0 O47 2.320 . S
Tb0 O48 2.552 . S
Tb0 O49 2.413 . S
Tb0 O51 2.362 1_554 S
Tb0 O52 2.421 . S
Tb0 C64 2.833 . S
C1 C4 1.432 . S
C1 C5 1.414 . S
C1 N8 1.359 1_554 S
C2 C4 1.417 . S
C2 C6 1.432 . S
C2 C14 1.410 . S
C3 C5 1.444 . S
C3 C6 1.317 . S
C3 H26 0.929 . S
C4 C1 1.432 . S
C4 C2 1.417 . S
C4 N12 1.360 . S
C5 C1 1.414 . S
C5 C3 1.444 . S
C5 C10 1.385 1_554 S
C6 C2 1.432 . S
C6 C3 1.317 . S
C6 H18 0.930 . S
C7 C9 1.392 . S
C7 C10 1.370 . S
C7 H19 0.931 . S
N8 C1 1.359 1_556 S
N8 C9 1.327 . S
N8 Tb11 2.600 . S
C9 C7 1.392 . S
C9 N8 1.327 . S
C9 H16 0.930 . S
C10 C5 1.385 1_556 S
C10 C7 1.370 . S
C10 H29 0.930 . S
Tb11 N8 2.600 . S
Tb11 N12 2.660 1_556 S
Tb11 O45 2.362 1_556 S
Tb11 O46 2.421 . S
Tb11 O50 2.546 . S
Tb11 O51 2.610 . S
Tb11 O53 2.320 1_556 S
Tb11 O54 2.552 . S
Tb11 O55 2.413 . S
Tb11 C75 2.833 . S
N12 C4 1.360 . S
N12 Tb11 2.660 1_554 S
N12 C13 1.305 . S
C13 N12 1.305 . S
C13 C15 1.407 . S
C13 H20 0.930 . S
C14 C2 1.410 . S
C14 C15 1.345 . S
C14 H22 0.930 . S
C15 C13 1.407 . S
C15 C14 1.345 . S
C15 H17 0.930 . S
H16 C9 0.930 . S
H17 C15 0.930 . S
H18 C6 0.930 . S
H19 C7 0.931 . S
H20 C13 0.930 . S
H21 C35 0.930 . S
H22 C14 0.930 . S
H23 C41 0.930 . S
H24 C32 0.930 . S
H25 C39 0.931 . S
H26 C3 0.929 . S
H27 C33 0.930 . S
H28 C66 0.930 . S
H29 C10 0.930 . S
H30 C65 0.929 . S
N31 Tb0 2.660 . S
N31 C32 1.305 1_554 S
N31 C36 1.361 . S
C32 H24 0.930 . S
C32 N31 1.305 1_556 S
C32 C35 1.407 . S
C33 H27 0.930 . S
C33 C34 1.410 . S
C33 C35 1.345 . S
C34 C33 1.410 . S
C34 C36 1.400 1_556 S
C34 C66 1.432 . S
C35 H21 0.930 . S
C35 C32 1.407 . S
C35 C33 1.345 . S
C36 N31 1.361 . S
C36 C34 1.400 1_554 S
C36 C40 1.448 . S
H37 C42 0.930 . S
N38 Tb0 2.600 . S
N38 C40 1.359 . S
N38 C41 1.327 . S
C39 H25 0.931 . S
C39 C41 1.392 . S
C39 C42 1.370 . S
C40 C36 1.448 . S
C40 N38 1.359 . S
C40 C43 1.414 . S
C41 H23 0.930 . S
C41 N38 1.327 . S
C41 C39 1.392 . S
C42 H37 0.930 . S
C42 C39 1.370 . S
C42 C43 1.385 . S
C43 C40 1.414 . S
C43 C42 1.385 . S
C43 C65 1.459 . S
O44 Tb0 2.546 . S
O44 C64 1.251 . S
O45 Tb0 2.610 . S
O45 Tb11 2.362 1_554 S
O45 C56 1.283 . S
O46 Tb11 2.421 . S
O46 C63 1.262 1_556 S
O47 Tb0 2.320 . S
O47 C63 1.260 . S
O48 Tb0 2.552 . S
O48 C56 1.243 . S
O49 Tb0 2.413 . S
O49 C64 1.256 . S
O50 Tb11 2.546 . S
O50 C75 1.251 . S
O51 Tb0 2.362 1_556 S
O51 Tb11 2.610 . S
O51 C67 1.283 . S
O52 Tb0 2.421 . S
O52 C74 1.262 . S
O53 Tb11 2.320 1_554 S
O53 C74 1.260 . S
O54 Tb11 2.552 . S
O54 C67 1.243 . S
O55 Tb11 2.413 . S
O55 C75 1.256 . S
C56 O45 1.283 . S
C56 O48 1.243 . S
C57 C59 1.382 . S
C57 C61 1.393 . S
C57 C64 1.500 . S
C58 C59 1.400 . S
C58 C60 1.384 . S
C59 C57 1.382 . S
C59 C58 1.400 . S
C59 H76 0.930 . S
C60 C58 1.384 . S
C60 C62 1.392 . S
C60 H77 0.931 . S
C61 C57 1.393 . S
C61 C62 1.401 . S
C61 H78 0.930 . S
C62 C60 1.392 . S
C62 C61 1.401 . S
C62 H79 0.930 . S
C63 O46 1.262 1_554 S
C63 O47 1.260 . S
C64 Tb0 2.833 . S
C64 O44 1.251 . S
C64 O49 1.256 . S
C64 C57 1.500 . S
C65 H30 0.929 . S
C65 C43 1.459 . S
C65 C66 1.302 1_554 S
C66 H28 0.930 . S
C66 C34 1.432 . S
C66 C65 1.302 1_556 S
C67 O51 1.283 . S
C67 O54 1.243 . S
C68 C69 1.382 . S
C68 C72 1.393 . S
C68 C75 1.500 . S
C69 C68 1.382 . S
C69 C70 1.400 . S
C69 H80 0.930 . S
C70 C69 1.400 . S
C70 C71 1.384 . S
C71 C70 1.384 . S
C71 C73 1.392 . S
C71 H81 0.931 . S
C72 C68 1.393 . S
C72 C73 1.401 . S
C72 H82 0.930 . S
C73 C71 1.392 . S
C73 C72 1.401 . S
C73 H83 0.930 . S
C74 O52 1.262 . S
C74 O53 1.260 . S
C75 Tb11 2.833 . S
C75 O50 1.251 . S
C75 O55 1.256 . S
C75 C68 1.500 . S
H76 C59 0.930 . S
H77 C60 0.931 . S
H78 C61 0.930 . S
H79 C62 0.930 . S
H80 C69 0.930 . S
H81 C71 0.931 . S
H82 C72 0.930 . S
H83 C73 0.930 . S
Tb84 N115 2.660 . S
Tb84 N122 2.600 . S
Tb84 O128 2.546 . S
Tb84 O129 2.610 . S
Tb84 O131 2.320 . S
Tb84 O132 2.552 . S
Tb84 O133 2.413 . S
Tb84 O135 2.362 . S
Tb84 O136 2.421 . S
Tb84 C148 2.833 . S
C85 C88 1.432 . S
C85 C89 1.414 . S
C85 N92 1.359 . S
C86 C88 1.417 . S
C86 C90 1.432 . S
C86 C98 1.410 . S
C87 C89 1.444 . S
C87 C90 1.317 . S
C87 H110 0.929 . S
C88 C85 1.432 . S
C88 C86 1.417 . S
C88 N96 1.360 . S
C89 C85 1.414 . S
C89 C87 1.444 . S
C89 C94 1.385 . S
C90 C86 1.432 . S
C90 C87 1.317 . S
C90 H102 0.930 . S
C91 C93 1.392 . S
C91 C94 1.370 . S
C91 H103 0.931 . S
N92 C85 1.359 . S
N92 C93 1.327 . S
N92 Tb95 2.600 . S
C93 C91 1.392 . S
C93 N92 1.327 . S
C93 H100 0.930 . S
C94 C89 1.385 . S
C94 C91 1.370 . S
C94 H113 0.930 . S
Tb95 N92 2.600 . S
Tb95 N96 2.660 . S
Tb95 O129 2.362 . S
Tb95 O130 2.421 . S
Tb95 O134 2.546 . S
Tb95 O135 2.610 . S
Tb95 O137 2.320 . S
Tb95 O138 2.552 . S
Tb95 O139 2.413 . S
Tb95 C159 2.833 . S
N96 C88 1.360 . S
N96 Tb95 2.660 . S
N96 C97 1.305 . S
C97 N96 1.305 . S
C97 C99 1.407 . S
C97 H104 0.930 . S
C98 C86 1.410 . S
C98 C99 1.345 . S
C98 H106 0.930 . S
C99 C97 1.407 . S
C99 C98 1.345 . S
C99 H101 0.930 . S
H100 C93 0.930 . S
H101 C99 0.930 . S
H102 C90 0.930 . S
H103 C91 0.931 . S
H104 C97 0.930 . S
H105 C119 0.930 . S
H106 C98 0.930 . S
H107 C125 0.930 . S
H108 C116 0.930 . S
H109 C123 0.931 . S
H110 C87 0.929 . S
H111 C117 0.930 . S
H112 C150 0.930 . S
H113 C94 0.930 . S
H114 C149 0.929 . S
N115 Tb84 2.660 . S
N115 C116 1.305 . S
N115 C120 1.360 . S
C116 H108 0.930 . S
C116 N115 1.305 . S
C116 C119 1.407 . S
C117 H111 0.930 . S
C117 C118 1.410 . S
C117 C119 1.345 . S
C118 C117 1.410 . S
C118 C120 1.417 . S
C118 C150 1.432 . S
C119 H105 0.930 . S
C119 C116 1.407 . S
C119 C117 1.345 . S
C120 N115 1.360 . S
C120 C118 1.417 . S
C120 C124 1.432 . S
H121 C126 0.930 . S
N122 Tb84 2.600 . S
N122 C124 1.359 . S
N122 C125 1.327 . S
C123 H109 0.931 . S
C123 C125 1.392 . S
C123 C126 1.370 . S
C124 C120 1.432 . S
C124 N122 1.359 . S
C124 C127 1.414 . S
C125 H107 0.930 . S
C125 N122 1.327 . S
C125 C123 1.392 . S
C126 H121 0.930 . S
C126 C123 1.370 . S
C126 C127 1.385 . S
C127 C124 1.414 . S
C127 C126 1.385 . S
C127 C149 1.444 . S
O128 Tb84 2.546 . S
O128 C148 1.251 . S
O129 Tb84 2.610 . S
O129 Tb95 2.362 . S
O129 C140 1.283 . S
O130 Tb95 2.421 . S
O130 C147 1.262 . S
O131 Tb84 2.320 . S
O131 C147 1.260 . S
O132 Tb84 2.552 . S
O132 C140 1.243 . S
O133 Tb84 2.413 . S
O133 C148 1.256 . S
O134 Tb95 2.546 . S
O134 C159 1.251 . S
O135 Tb84 2.362 . S
O135 Tb95 2.610 . S
O135 C151 1.283 . S
O136 Tb84 2.421 . S
O136 C158 1.262 . S
O137 Tb95 2.320 . S
O137 C158 1.260 . S
O138 Tb95 2.552 . S
O138 C151 1.243 . S
O139 Tb95 2.413 . S
O139 C159 1.256 . S
C140 O129 1.283 . S
C140 O132 1.243 . S
C141 C143 1.382 . S
C141 C145 1.393 . S
C141 C148 1.500 . S
C142 C143 1.400 . S
C142 C144 1.384 . S
C143 C141 1.382 . S
C143 C142 1.400 . S
C143 H160 0.930 . S
C144 C142 1.384 . S
C144 C146 1.392 . S
C144 H161 0.931 . S
C145 C141 1.393 . S
C145 C146 1.401 . S
C145 H162 0.930 . S
C146 C144 1.392 . S
C146 C145 1.401 . S
C146 H163 0.930 . S
C147 O130 1.262 . S
C147 O131 1.260 . S
C148 Tb84 2.833 . S
C148 O128 1.251 . S
C148 O133 1.256 . S
C148 C141 1.500 . S
C149 H114 0.929 . S
C149 C127 1.444 . S
C149 C150 1.317 . S
C150 H112 0.930 . S
C150 C118 1.432 . S
C150 C149 1.317 . S
C151 O135 1.283 . S
C151 O138 1.243 . S
C152 C153 1.382 . S
C152 C156 1.393 . S
C152 C159 1.500 . S
C153 C152 1.382 . S
C153 C154 1.400 . S
C153 H164 0.930 . S
C154 C153 1.400 . S
C154 C155 1.384 . S
C155 C154 1.384 . S
C155 C157 1.392 . S
C155 H165 0.931 . S
C156 C152 1.393 . S
C156 C157 1.401 . S
C156 H166 0.930 . S
C157 C155 1.392 . S
C157 C156 1.401 . S
C157 H167 0.930 . S
C158 O136 1.262 . S
C158 O137 1.260 . S
C159 Tb95 2.833 . S
C159 O134 1.251 . S
C159 O139 1.256 . S
C159 C152 1.500 . S
H160 C143 0.930 . S
H161 C144 0.931 . S
H162 C145 0.930 . S
H163 C146 0.930 . S
H164 C153 0.930 . S
H165 C155 0.931 . S
H166 C156 0.930 . S
H167 C157 0.930 . S
Tb168 N199 2.660 . S
Tb168 N206 2.600 . S
Tb168 O212 2.546 . S
Tb168 O213 2.610 . S
Tb168 O215 2.320 . S
Tb168 O216 2.552 . S
Tb168 O217 2.413 . S
Tb168 O219 2.362 . S
Tb168 O220 2.421 . S
Tb168 C232 2.833 . S
C169 C172 1.432 . S
C169 C173 1.414 . S
C169 N176 1.359 . S
C170 C172 1.417 . S
C170 C174 1.432 . S
C170 C182 1.410 . S
C171 C173 1.444 . S
C171 C174 1.317 . S
C171 H194 0.929 . S
C172 C169 1.432 . S
C172 C170 1.417 . S
C172 N180 1.360 . S
C173 C169 1.414 . S
C173 C171 1.444 . S
C173 C178 1.385 . S
C174 C170 1.432 . S
C174 C171 1.317 . S
C174 H186 0.930 . S
C175 C177 1.392 . S
C175 C178 1.370 . S
C175 H187 0.931 . S
N176 C169 1.359 . S
N176 C177 1.327 . S
N176 Tb179 2.600 . S
C177 C175 1.392 . S
C177 N176 1.327 . S
C177 H184 0.930 . S
C178 C173 1.385 . S
C178 C175 1.370 . S
C178 H197 0.930 . S
Tb179 N176 2.600 . S
Tb179 N180 2.660 . S
Tb179 O213 2.362 . S
Tb179 O214 2.421 . S
Tb179 O218 2.546 . S
Tb179 O219 2.610 . S
Tb179 O221 2.320 . S
Tb179 O222 2.552 . S
Tb179 O223 2.413 . S
Tb179 C243 2.833 . S
N180 C172 1.360 . S
N180 Tb179 2.660 . S
N180 C181 1.305 . S
C181 N180 1.305 . S
C181 C183 1.407 . S
C181 H188 0.930 . S
C182 C170 1.410 . S
C182 C183 1.345 . S
C182 H190 0.930 . S
C183 C181 1.407 . S
C183 C182 1.345 . S
C183 H185 0.930 . S
H184 C177 0.930 . S
H185 C183 0.930 . S
H186 C174 0.930 . S
H187 C175 0.931 . S
H188 C181 0.930 . S
H189 C203 0.930 . S
H190 C182 0.930 . S
H191 C209 0.930 . S
H192 C200 0.930 . S
H193 C207 0.931 . S
H194 C171 0.929 . S
H195 C201 0.930 . S
H196 C234 0.930 . S
H197 C178 0.930 . S
H198 C233 0.929 . S
N199 Tb168 2.660 . S
N199 C200 1.305 . S
N199 C204 1.360 . S
C200 H192 0.930 . S
C200 N199 1.305 . S
C200 C203 1.407 . S
C201 H195 0.930 . S
C201 C202 1.410 . S
C201 C203 1.345 . S
C202 C201 1.410 . S
C202 C204 1.417 . S
C202 C234 1.432 . S
C203 H189 0.930 . S
C203 C200 1.407 . S
C203 C201 1.345 . S
C204 N199 1.360 . S
C204 C202 1.417 . S
C204 C208 1.432 . S
H205 C210 0.930 . S
N206 Tb168 2.600 . S
N206 C208 1.359 . S
N206 C209 1.327 . S
C207 H193 0.931 . S
C207 C209 1.392 . S
C207 C210 1.370 . S
C208 C204 1.432 . S
C208 N206 1.359 . S
C208 C211 1.414 . S
C209 H191 0.930 . S
C209 N206 1.327 . S
C209 C207 1.392 . S
C210 H205 0.930 . S
C210 C207 1.370 . S
C210 C211 1.385 . S
C211 C208 1.414 . S
C211 C210 1.385 . S
C211 C233 1.444 . S
O212 Tb168 2.546 . S
O212 C232 1.251 . S
O213 Tb168 2.610 . S
O213 Tb179 2.362 . S
O213 C224 1.283 . S
O214 Tb179 2.421 . S
O214 C231 1.262 . S
O215 Tb168 2.320 . S
O215 C231 1.260 . S
O216 Tb168 2.552 . S
O216 C224 1.243 . S
O217 Tb168 2.413 . S
O217 C232 1.256 . S
O218 Tb179 2.546 . S
O218 C243 1.251 . S
O219 Tb168 2.362 . S
O219 Tb179 2.610 . S
O219 C235 1.283 . S
O220 Tb168 2.421 . S
O220 C242 1.262 . S
O221 Tb179 2.320 . S
O221 C242 1.260 . S
O222 Tb179 2.552 . S
O222 C235 1.243 . S
O223 Tb179 2.413 . S
O223 C243 1.256 . S
C224 O213 1.283 . S
C224 O216 1.243 . S
C225 C227 1.382 . S
C225 C229 1.393 . S
C225 C232 1.500 . S
C226 C227 1.400 . S
C226 C228 1.384 . S
C227 C225 1.382 . S
C227 C226 1.400 . S
C227 H244 0.930 . S
C228 C226 1.384 . S
C228 C230 1.392 . S
C228 H245 0.931 . S
C229 C225 1.393 . S
C229 C230 1.401 . S
C229 H246 0.930 . S
C230 C228 1.392 . S
C230 C229 1.401 . S
C230 H247 0.930 . S
C231 O214 1.262 . S
C231 O215 1.260 . S
C232 Tb168 2.833 . S
C232 O212 1.251 . S
C232 O217 1.256 . S
C232 C225 1.500 . S
C233 H198 0.929 . S
C233 C211 1.444 . S
C233 C234 1.317 . S
C234 H196 0.930 . S
C234 C202 1.432 . S
C234 C233 1.317 . S
C235 O219 1.283 . S
C235 O222 1.243 . S
C236 C237 1.382 . S
C236 C240 1.393 . S
C236 C243 1.500 . S
C237 C236 1.382 . S
C237 C238 1.400 . S
C237 H248 0.930 . S
C238 C237 1.400 . S
C238 C239 1.384 . S
C239 C238 1.384 . S
C239 C241 1.392 . S
C239 H249 0.931 . S
C240 C236 1.393 . S
C240 C241 1.401 . S
C240 H250 0.930 . S
C241 C239 1.392 . S
C241 C240 1.401 . S
C241 H251 0.930 . S
C242 O220 1.262 . S
C242 O221 1.260 . S
C243 Tb179 2.833 . S
C243 O218 1.251 . S
C243 O223 1.256 . S
C243 C236 1.500 . S
H244 C227 0.930 . S
H245 C228 0.931 . S
H246 C229 0.930 . S
H247 C230 0.930 . S
H248 C237 0.930 . S
H249 C239 0.931 . S
H250 C240 0.930 . S
H251 C241 0.930 . S
Tb252 N283 2.660 . S
Tb252 N290 2.600 . S
Tb252 O296 2.546 . S
Tb252 O297 2.610 . S
Tb252 O299 2.320 . S
Tb252 O300 2.552 . S
Tb252 O301 2.413 . S
Tb252 O303 2.362 1_554 S
Tb252 O304 2.421 . S
Tb252 C316 2.833 . S
C253 C256 1.432 . S
C253 C257 1.414 . S
C253 N260 1.359 1_554 S
C254 C256 1.417 . S
C254 C258 1.432 . S
C254 C266 1.410 . S
C255 C257 1.444 . S
C255 C258 1.317 . S
C255 H278 0.929 . S
C256 C253 1.432 . S
C256 C254 1.417 . S
C256 N264 1.360 . S
C257 C253 1.414 . S
C257 C255 1.444 . S
C257 C262 1.385 1_554 S
C258 C254 1.432 . S
C258 C255 1.317 . S
C258 H270 0.930 . S
C259 C261 1.392 . S
C259 C262 1.370 . S
C259 H271 0.931 . S
N260 C253 1.359 1_556 S
N260 C261 1.327 . S
N260 Tb263 2.600 . S
C261 C259 1.392 . S
C261 N260 1.327 . S
C261 H268 0.930 . S
C262 C257 1.385 1_556 S
C262 C259 1.370 . S
C262 H281 0.930 . S
Tb263 N260 2.600 . S
Tb263 N264 2.660 1_556 S
Tb263 O297 2.362 1_556 S
Tb263 O298 2.421 . S
Tb263 O302 2.546 . S
Tb263 O303 2.610 . S
Tb263 O305 2.320 1_556 S
Tb263 O306 2.552 . S
Tb263 O307 2.413 . S
Tb263 C327 2.833 . S
N264 C256 1.360 . S
N264 Tb263 2.660 1_554 S
N264 C265 1.305 . S
C265 N264 1.305 . S
C265 C267 1.407 . S
C265 H272 0.930 . S
C266 C254 1.410 . S
C266 C267 1.345 . S
C266 H274 0.930 . S
C267 C265 1.407 . S
C267 C266 1.345 . S
C267 H269 0.930 . S
H268 C261 0.930 . S
H269 C267 0.930 . S
H270 C258 0.930 . S
H271 C259 0.931 . S
H272 C265 0.930 . S
H273 C287 0.930 . S
H274 C266 0.930 . S
H275 C293 0.930 . S
H276 C284 0.930 . S
H277 C291 0.931 . S
H278 C255 0.929 . S
H279 C285 0.930 . S
H280 C318 0.930 . S
H281 C262 0.930 . S
H282 C317 0.929 . S
N283 Tb252 2.660 . S
N283 C284 1.305 1_554 S
N283 C288 1.361 . S
C284 H276 0.930 . S
C284 N283 1.305 1_556 S
C284 C287 1.407 . S
C285 H279 0.930 . S
C285 C286 1.410 . S
C285 C287 1.345 . S
C286 C285 1.410 . S
C286 C288 1.400 1_556 S
C286 C318 1.432 . S
C287 H273 0.930 . S
C287 C284 1.407 . S
C287 C285 1.345 . S
C288 N283 1.361 . S
C288 C286 1.400 1_554 S
C288 C292 1.448 . S
H289 C294 0.930 . S
N290 Tb252 2.600 . S
N290 C292 1.359 . S
N290 C293 1.327 . S
C291 H277 0.931 . S
C291 C293 1.392 . S
C291 C294 1.370 . S
C292 C288 1.448 . S
C292 N290 1.359 . S
C292 C295 1.414 . S
C293 H275 0.930 . S
C293 N290 1.327 . S
C293 C291 1.392 . S
C294 H289 0.930 . S
C294 C291 1.370 . S
C294 C295 1.385 . S
C295 C292 1.414 . S
C295 C294 1.385 . S
C295 C317 1.459 . S
O296 Tb252 2.546 . S
O296 C316 1.251 . S
O297 Tb252 2.610 . S
O297 Tb263 2.362 1_554 S
O297 C308 1.283 . S
O298 Tb263 2.421 . S
O298 C315 1.262 1_556 S
O299 Tb252 2.320 . S
O299 C315 1.260 . S
O300 Tb252 2.552 . S
O300 C308 1.243 . S
O301 Tb252 2.413 . S
O301 C316 1.256 . S
O302 Tb263 2.546 . S
O302 C327 1.251 . S
O303 Tb252 2.362 1_556 S
O303 Tb263 2.610 . S
O303 C319 1.283 . S
O304 Tb252 2.421 . S
O304 C326 1.262 . S
O305 Tb263 2.320 1_554 S
O305 C326 1.260 . S
O306 Tb263 2.552 . S
O306 C319 1.243 . S
O307 Tb263 2.413 . S
O307 C327 1.256 . S
C308 O297 1.283 . S
C308 O300 1.243 . S
C309 C311 1.382 . S
C309 C313 1.393 . S
C309 C316 1.500 . S
C310 C311 1.400 . S
C310 C312 1.384 . S
C311 C309 1.382 . S
C311 C310 1.400 . S
C311 H328 0.930 . S
C312 C310 1.384 . S
C312 C314 1.392 . S
C312 H329 0.931 . S
C313 C309 1.393 . S
C313 C314 1.401 . S
C313 H330 0.930 . S
C314 C312 1.392 . S
C314 C313 1.401 . S
C314 H331 0.930 . S
C315 O298 1.262 1_554 S
C315 O299 1.260 . S
C316 Tb252 2.833 . S
C316 O296 1.251 . S
C316 O301 1.256 . S
C316 C309 1.500 . S
C317 H282 0.929 . S
C317 C295 1.459 . S
C317 C318 1.302 1_554 S
C318 H280 0.930 . S
C318 C286 1.432 . S
C318 C317 1.302 1_556 S
C319 O303 1.283 . S
C319 O306 1.243 . S
C320 C321 1.382 . S
C320 C324 1.393 . S
C320 C327 1.500 . S
C321 C320 1.382 . S
C321 C322 1.400 . S
C321 H332 0.930 . S
C322 C321 1.400 . S
C322 C323 1.384 . S
C323 C322 1.384 . S
C323 C325 1.392 . S
C323 H333 0.931 . S
C324 C320 1.393 . S
C324 C325 1.401 . S
C324 H334 0.930 . S
C325 C323 1.392 . S
C325 C324 1.401 . S
C325 H335 0.930 . S
C326 O304 1.262 . S
C326 O305 1.260 . S
C327 Tb263 2.833 . S
C327 O302 1.251 . S
C327 O307 1.256 . S
C327 C320 1.500 . S
H328 C311 0.930 . S
H329 C312 0.931 . S
H330 C313 0.930 . S
H331 C314 0.930 . S
H332 C321 0.930 . S
H333 C323 0.931 . S
H334 C324 0.930 . S
H335 C325 0.930 . S
Tb336 N367 2.660 . S
Tb336 N374 2.600 . S
Tb336 O380 2.546 . S
Tb336 O381 2.610 . S
Tb336 O383 2.320 . S
Tb336 O384 2.552 . S
Tb336 O385 2.413 . S
Tb336 O387 2.362 . S
Tb336 O388 2.421 . S
Tb336 C400 2.833 . S
C337 C340 1.432 . S
C337 C341 1.414 . S
C337 N344 1.359 . S
C338 C340 1.417 . S
C338 C342 1.432 . S
C338 C350 1.410 . S
C339 C341 1.444 . S
C339 C342 1.317 . S
C339 H362 0.929 . S
C340 C337 1.432 . S
C340 C338 1.417 . S
C340 N348 1.360 . S
C341 C337 1.414 . S
C341 C339 1.444 . S
C341 C346 1.385 . S
C342 C338 1.432 . S
C342 C339 1.317 . S
C342 H354 0.930 . S
C343 C345 1.392 . S
C343 C346 1.370 . S
C343 H355 0.931 . S
N344 C337 1.359 . S
N344 C345 1.327 . S
N344 Tb347 2.600 . S
C345 C343 1.392 . S
C345 N344 1.327 . S
C345 H352 0.930 . S
C346 C341 1.385 . S
C346 C343 1.370 . S
C346 H365 0.930 . S
Tb347 N344 2.600 . S
Tb347 N348 2.660 . S
Tb347 O381 2.362 . S
Tb347 O382 2.421 . S
Tb347 O386 2.546 . S
Tb347 O387 2.610 . S
Tb347 O389 2.320 . S
Tb347 O390 2.552 . S
Tb347 O391 2.413 . S
Tb347 C411 2.833 . S
N348 C340 1.360 . S
N348 Tb347 2.660 . S
N348 C349 1.305 . S
C349 N348 1.305 . S
C349 C351 1.407 . S
C349 H356 0.930 . S
C350 C338 1.410 . S
C350 C351 1.345 . S
C350 H358 0.930 . S
C351 C349 1.407 . S
C351 C350 1.345 . S
C351 H353 0.930 . S
H352 C345 0.930 . S
H353 C351 0.930 . S
H354 C342 0.930 . S
H355 C343 0.931 . S
H356 C349 0.930 . S
H357 C371 0.930 . S
H358 C350 0.930 . S
H359 C377 0.930 . S
H360 C368 0.930 . S
H361 C375 0.931 . S
H362 C339 0.929 . S
H363 C369 0.930 . S
H364 C402 0.930 . S
H365 C346 0.930 . S
H366 C401 0.929 . S
N367 Tb336 2.660 . S
N367 C368 1.305 . S
N367 C372 1.360 . S
C368 H360 0.930 . S
C368 N367 1.305 . S
C368 C371 1.407 . S
C369 H363 0.930 . S
C369 C370 1.410 . S
C369 C371 1.345 . S
C370 C369 1.410 . S
C370 C372 1.417 . S
C370 C402 1.432 . S
C371 H357 0.930 . S
C371 C368 1.407 . S
C371 C369 1.345 . S
C372 N367 1.360 . S
C372 C370 1.417 . S
C372 C376 1.432 . S
H373 C378 0.930 . S
N374 Tb336 2.600 . S
N374 C376 1.359 . S
N374 C377 1.327 . S
C375 H361 0.931 . S
C375 C377 1.392 . S
C375 C378 1.370 . S
C376 C372 1.432 . S
C376 N374 1.359 . S
C376 C379 1.414 . S
C377 H359 0.930 . S
C377 N374 1.327 . S
C377 C375 1.392 . S
C378 H373 0.930 . S
C378 C375 1.370 . S
C378 C379 1.385 . S
C379 C376 1.414 . S
C379 C378 1.385 . S
C379 C401 1.444 . S
O380 Tb336 2.546 . S
O380 C400 1.251 . S
O381 Tb336 2.610 . S
O381 Tb347 2.362 . S
O381 C392 1.283 . S
O382 Tb347 2.421 . S
O382 C399 1.262 . S
O383 Tb336 2.320 . S
O383 C399 1.260 . S
O384 Tb336 2.552 . S
O384 C392 1.243 . S
O385 Tb336 2.413 . S
O385 C400 1.256 . S
O386 Tb347 2.546 . S
O386 C411 1.251 . S
O387 Tb336 2.362 . S
O387 Tb347 2.610 . S
O387 C403 1.283 . S
O388 Tb336 2.421 . S
O388 C410 1.262 . S
O389 Tb347 2.320 . S
O389 C410 1.260 . S
O390 Tb347 2.552 . S
O390 C403 1.243 . S
O391 Tb347 2.413 . S
O391 C411 1.256 . S
C392 O381 1.283 . S
C392 O384 1.243 . S
C393 C395 1.382 . S
C393 C397 1.393 . S
C393 C400 1.500 . S
C394 C395 1.400 . S
C394 C396 1.384 . S
C395 C393 1.382 . S
C395 C394 1.400 . S
C395 H412 0.930 . S
C396 C394 1.384 . S
C396 C398 1.392 . S
C396 H413 0.931 . S
C397 C393 1.393 . S
C397 C398 1.401 . S
C397 H414 0.930 . S
C398 C396 1.392 . S
C398 C397 1.401 . S
C398 H415 0.930 . S
C399 O382 1.262 . S
C399 O383 1.260 . S
C400 Tb336 2.833 . S
C400 O380 1.251 . S
C400 O385 1.256 . S
C400 C393 1.500 . S
C401 H366 0.929 . S
C401 C379 1.444 . S
C401 C402 1.317 . S
C402 H364 0.930 . S
C402 C370 1.432 . S
C402 C401 1.317 . S
C403 O387 1.283 . S
C403 O390 1.243 . S
C404 C405 1.382 . S
C404 C408 1.393 . S
C404 C411 1.500 . S
C405 C404 1.382 . S
C405 C406 1.400 . S
C405 H416 0.930 . S
C406 C405 1.400 . S
C406 C407 1.384 . S
C407 C406 1.384 . S
C407 C409 1.392 . S
C407 H417 0.931 . S
C408 C404 1.393 . S
C408 C409 1.401 . S
C408 H418 0.930 . S
C409 C407 1.392 . S
C409 C408 1.401 . S
C409 H419 0.930 . S
C410 O388 1.262 . S
C410 O389 1.260 . S
C411 Tb347 2.833 . S
C411 O386 1.251 . S
C411 O391 1.256 . S
C411 C404 1.500 . S
H412 C395 0.930 . S
H413 C396 0.931 . S
H414 C397 0.930 . S
H415 C398 0.930 . S
H416 C405 0.930 . S
H417 C407 0.931 . S
H418 C408 0.930 . S
H419 C409 0.930 . S
Tb420 N451 2.660 . S
Tb420 N458 2.600 . S
Tb420 O464 2.546 . S
Tb420 O465 2.610 . S
Tb420 O467 2.320 . S
Tb420 O468 2.552 . S
Tb420 O469 2.413 . S
Tb420 O471 2.362 . S
Tb420 O472 2.421 . S
Tb420 C484 2.833 . S
C421 C424 1.432 . S
C421 C425 1.414 . S
C421 N428 1.359 . S
C422 C424 1.417 . S
C422 C426 1.432 . S
C422 C434 1.410 . S
C423 C425 1.444 . S
C423 C426 1.317 . S
C423 H446 0.929 . S
C424 C421 1.432 . S
C424 C422 1.417 . S
C424 N432 1.360 . S
C425 C421 1.414 . S
C425 C423 1.444 . S
C425 C430 1.385 . S
C426 C422 1.432 . S
C426 C423 1.317 . S
C426 H438 0.930 . S
C427 C429 1.392 . S
C427 C430 1.370 . S
C427 H439 0.931 . S
N428 C421 1.359 . S
N428 C429 1.327 . S
N428 Tb431 2.600 . S
C429 C427 1.392 . S
C429 N428 1.327 . S
C429 H436 0.930 . S
C430 C425 1.385 . S
C430 C427 1.370 . S
C430 H449 0.930 . S
Tb431 N428 2.600 . S
Tb431 N432 2.660 . S
Tb431 O465 2.362 . S
Tb431 O466 2.421 . S
Tb431 O470 2.546 . S
Tb431 O471 2.610 . S
Tb431 O473 2.320 . S
Tb431 O474 2.552 . S
Tb431 O475 2.413 . S
Tb431 C495 2.833 . S
N432 C424 1.360 . S
N432 Tb431 2.660 . S
N432 C433 1.305 . S
C433 N432 1.305 . S
C433 C435 1.407 . S
C433 H440 0.930 . S
C434 C422 1.410 . S
C434 C435 1.345 . S
C434 H442 0.930 . S
C435 C433 1.407 . S
C435 C434 1.345 . S
C435 H437 0.930 . S
H436 C429 0.930 . S
H437 C435 0.930 . S
H438 C426 0.930 . S
H439 C427 0.931 . S
H440 C433 0.930 . S
H441 C455 0.930 . S
H442 C434 0.930 . S
H443 C461 0.930 . S
H444 C452 0.930 . S
H445 C459 0.931 . S
H446 C423 0.929 . S
H447 C453 0.930 . S
H448 C486 0.930 . S
H449 C430 0.930 . S
H450 C485 0.929 . S
N451 Tb420 2.660 . S
N451 C452 1.305 . S
N451 C456 1.360 . S
C452 H444 0.930 . S
C452 N451 1.305 . S
C452 C455 1.407 . S
C453 H447 0.930 . S
C453 C454 1.410 . S
C453 C455 1.345 . S
C454 C453 1.410 . S
C454 C456 1.417 . S
C454 C486 1.432 . S
C455 H441 0.930 . S
C455 C452 1.407 . S
C455 C453 1.345 . S
C456 N451 1.360 . S
C456 C454 1.417 . S
C456 C460 1.432 . S
H457 C462 0.930 . S
N458 Tb420 2.600 . S
N458 C460 1.359 . S
N458 C461 1.327 . S
C459 H445 0.931 . S
C459 C461 1.392 . S
C459 C462 1.370 . S
C460 C456 1.432 . S
C460 N458 1.359 . S
C460 C463 1.414 . S
C461 H443 0.930 . S
C461 N458 1.327 . S
C461 C459 1.392 . S
C462 H457 0.930 . S
C462 C459 1.370 . S
C462 C463 1.385 . S
C463 C460 1.414 . S
C463 C462 1.385 . S
C463 C485 1.444 . S
O464 Tb420 2.546 . S
O464 C484 1.251 . S
O465 Tb420 2.610 . S
O465 Tb431 2.362 . S
O465 C476 1.283 . S
O466 Tb431 2.421 . S
O466 C483 1.262 . S
O467 Tb420 2.320 . S
O467 C483 1.260 . S
O468 Tb420 2.552 . S
O468 C476 1.243 . S
O469 Tb420 2.413 . S
O469 C484 1.256 . S
O470 Tb431 2.546 . S
O470 C495 1.251 . S
O471 Tb420 2.362 . S
O471 Tb431 2.610 . S
O471 C487 1.283 . S
O472 Tb420 2.421 . S
O472 C494 1.262 . S
O473 Tb431 2.320 . S
O473 C494 1.260 . S
O474 Tb431 2.552 . S
O474 C487 1.243 . S
O475 Tb431 2.413 . S
O475 C495 1.256 . S
C476 O465 1.283 . S
C476 O468 1.243 . S
C477 C479 1.382 . S
C477 C481 1.393 . S
C477 C484 1.500 . S
C478 C479 1.400 . S
C478 C480 1.384 . S
C479 C477 1.382 . S
C479 C478 1.400 . S
C479 H496 0.930 . S
C480 C478 1.384 . S
C480 C482 1.392 . S
C480 H497 0.931 . S
C481 C477 1.393 . S
C481 C482 1.401 . S
C481 H498 0.930 . S
C482 C480 1.392 . S
C482 C481 1.401 . S
C482 H499 0.930 . S
C483 O466 1.262 . S
C483 O467 1.260 . S
C484 Tb420 2.833 . S
C484 O464 1.251 . S
C484 O469 1.256 . S
C484 C477 1.500 . S
C485 H450 0.929 . S
C485 C463 1.444 . S
C485 C486 1.317 . S
C486 H448 0.930 . S
C486 C454 1.432 . S
C486 C485 1.317 . S
C487 O471 1.283 . S
C487 O474 1.243 . S
C488 C489 1.382 . S
C488 C492 1.393 . S
C488 C495 1.500 . S
C489 C488 1.382 . S
C489 C490 1.400 . S
C489 H500 0.930 . S
C490 C489 1.400 . S
C490 C491 1.384 . S
C491 C490 1.384 . S
C491 C493 1.392 . S
C491 H501 0.931 . S
C492 C488 1.393 . S
C492 C493 1.401 . S
C492 H502 0.930 . S
C493 C491 1.392 . S
C493 C492 1.401 . S
C493 H503 0.930 . S
C494 O472 1.262 . S
C494 O473 1.260 . S
C495 Tb431 2.833 . S
C495 O470 1.251 . S
C495 O475 1.256 . S
C495 C488 1.500 . S
H496 C479 0.930 . S
H497 C480 0.931 . S
H498 C481 0.930 . S
H499 C482 0.930 . S
H500 C489 0.930 . S
H501 C491 0.931 . S
H502 C492 0.930 . S
H503 C493 0.930 . S
H504 C522 0.951 . S
H505 C524 0.951 . S
H506 C526 0.950 . S
H507 C527 0.950 . S
H508 C529 0.950 . S
H509 C532 0.950 . S
H510 C533 0.950 . S
H511 C535 0.950 . S
H512 C536 0.950 . S
H513 C537 0.951 . S
H514 C539 0.951 . S
H515 C541 0.950 . S
H516 C542 0.950 . S
H517 C544 0.950 . S
H518 C547 0.950 . S
H519 C548 0.950 . S
H520 C550 0.950 . S
H521 C551 0.950 . S
C522 H504 0.951 . S
C522 C523 1.366 . S
C522 C524 1.388 . S
C523 C522 1.366 . S
C523 C527 1.385 . S
C524 H505 0.951 . S
C524 C522 1.388 . S
C524 C525 1.366 . S
C525 C524 1.366 . S
C525 C526 1.414 . S
C525 C528 1.499 . S
C526 H506 0.950 . S
C526 C525 1.414 . S
C526 C527 1.374 . S
C527 H507 0.950 . S
C527 C523 1.385 . S
C527 C526 1.374 . S
C528 C525 1.499 . S
C528 C529 1.373 . S
C528 C530 1.389 . S
C529 H508 0.950 . S
C529 C528 1.373 . S
C529 C545 1.377 . S
C530 C528 1.389 . S
C530 C531 1.524 . S
C530 C544 1.377 . S
C531 C530 1.524 . S
C531 C532 1.397 . S
C531 C536 1.363 . S
C532 H509 0.950 . S
C532 C531 1.397 . S
C532 C533 1.334 . S
C533 H510 0.950 . S
C533 C532 1.334 . S
C533 C534 1.287 . S
C534 C533 1.287 . S
C534 C535 1.524 . S
C534 H553 0.913 . S
C535 H511 0.950 . S
C535 C534 1.524 . S
C535 C536 1.415 . S
C536 H512 0.950 . S
C536 C531 1.363 . S
C536 C535 1.415 . S
C537 H513 0.951 . S
C537 C538 1.366 . S
C537 C539 1.388 . S
C538 C537 1.366 . S
C538 C542 1.385 . S
C539 H514 0.951 . S
C539 C537 1.388 . S
C539 C540 1.366 . S
C540 C539 1.366 . S
C540 C541 1.414 . S
C540 C543 1.499 . S
C541 H515 0.950 . S
C541 C540 1.414 . S
C541 C542 1.374 . S
C542 H516 0.950 . S
C542 C538 1.385 . S
C542 C541 1.374 . S
C543 C540 1.499 . S
C543 C544 1.373 . S
C543 C545 1.389 . S
C544 H517 0.950 . S
C544 C530 1.377 . S
C544 C543 1.373 . S
C545 C529 1.377 . S
C545 C543 1.389 . S
C545 C546 1.524 . S
C546 C545 1.524 . S
C546 C547 1.397 . S
C546 C551 1.363 . S
C547 H518 0.950 . S
C547 C546 1.397 . S
C547 C548 1.334 . S
C548 H519 0.950 . S
C548 C547 1.334 . S
C548 C549 1.287 . S
C549 C548 1.287 . S
C549 C550 1.524 . S
C549 H552 0.999 . S
C550 H520 0.950 . S
C550 C549 1.524 . S
C550 C551 1.415 . S
C551 H521 0.950 . S
C551 C546 1.363 . S
C551 C550 1.415 . S
H552 C549 0.999 . S
H553 C534 0.913 . S
H554 C572 0.951 . S
H555 C574 0.951 . S
H556 C576 0.950 . S
H557 C577 0.950 . S
H558 C579 0.950 . S
H559 C582 0.950 . S
H560 C583 0.950 . S
H561 C585 0.950 . S
H562 C586 0.950 . S
H563 C587 0.951 . S
H564 C589 0.951 . S
H565 C591 0.950 . S
H566 C592 0.950 . S
H567 C594 0.950 . S
H568 C597 0.950 . S
H569 C598 0.950 . S
H570 C600 0.950 . S
H571 C601 0.950 . S
C572 H554 0.951 . S
C572 C573 1.366 . S
C572 C574 1.388 . S
C573 C572 1.366 . S
C573 C577 1.385 . S
C574 H555 0.951 . S
C574 C572 1.388 . S
C574 C575 1.366 . S
C575 C574 1.366 . S
C575 C576 1.414 . S
C575 C578 1.499 . S
C576 H556 0.950 . S
C576 C575 1.414 . S
C576 C577 1.374 . S
C577 H557 0.950 . S
C577 C573 1.385 . S
C577 C576 1.374 . S
C578 C575 1.499 . S
C578 C579 1.373 . S
C578 C580 1.389 . S
C579 H558 0.950 . S
C579 C578 1.373 . S
C579 C595 1.377 . S
C580 C578 1.389 . S
C580 C581 1.524 . S
C580 C594 1.377 . S
C581 C580 1.524 . S
C581 C582 1.397 . S
C581 C586 1.363 . S
C582 H559 0.950 . S
C582 C581 1.397 . S
C582 C583 1.334 . S
C583 H560 0.950 . S
C583 C582 1.334 . S
C583 C584 1.287 . S
C584 C583 1.287 . S
C584 C585 1.524 . S
C584 H603 0.913 . S
C585 H561 0.950 . S
C585 C584 1.524 . S
C585 C586 1.415 . S
C586 H562 0.950 . S
C586 C581 1.363 . S
C586 C585 1.415 . S
C587 H563 0.951 . S
C587 C588 1.366 . S
C587 C589 1.388 . S
C588 C587 1.366 . S
C588 C592 1.385 . S
C589 H564 0.951 . S
C589 C587 1.388 . S
C589 C590 1.366 . S
C590 C589 1.366 . S
C590 C591 1.414 . S
C590 C593 1.499 . S
C591 H565 0.950 . S
C591 C590 1.414 . S
C591 C592 1.374 . S
C592 H566 0.950 . S
C592 C588 1.385 . S
C592 C591 1.374 . S
C593 C590 1.499 . S
C593 C594 1.373 . S
C593 C595 1.389 . S
C594 H567 0.950 . S
C594 C580 1.377 . S
C594 C593 1.373 . S
C595 C579 1.377 . S
C595 C593 1.389 . S
C595 C596 1.524 . S
C596 C595 1.524 . S
C596 C597 1.397 . S
C596 C601 1.363 . S
C597 H568 0.950 . S
C597 C596 1.397 . S
C597 C598 1.334 . S
C598 H569 0.950 . S
C598 C597 1.334 . S
C598 C599 1.287 . S
C599 C598 1.287 . S
C599 C600 1.524 . S
C599 H602 0.999 . S
C600 H570 0.950 . S
C600 C599 1.524 . S
C600 C601 1.415 . S
C601 H571 0.950 . S
C601 C596 1.363 . S
C601 C600 1.415 . S
H602 C599 0.999 . S
H603 C584 0.913 . S
H604 C622 0.951 . S
H605 C624 0.951 . S
H606 C626 0.950 . S
H607 C627 0.950 . S
H608 C629 0.950 . S
H609 C632 0.950 . S
H610 C633 0.950 . S
H611 C635 0.950 . S
H612 C636 0.950 . S
H613 C637 0.951 . S
H614 C639 0.951 . S
H615 C641 0.950 . S
H616 C642 0.950 . S
H617 C644 0.950 . S
H618 C647 0.950 . S
H619 C648 0.950 . S
H620 C650 0.950 . S
H621 C651 0.950 . S
C622 H604 0.951 . S
C622 C623 1.366 . S
C622 C624 1.388 . S
C623 C622 1.366 . S
C623 C627 1.385 . S
C624 H605 0.951 . S
C624 C622 1.388 . S
C624 C625 1.366 . S
C625 C624 1.366 . S
C625 C626 1.414 . S
C625 C628 1.499 . S
C626 H606 0.950 . S
C626 C625 1.414 . S
C626 C627 1.374 . S
C627 H607 0.950 . S
C627 C623 1.385 . S
C627 C626 1.374 . S
C628 C625 1.499 . S
C628 C629 1.373 . S
C628 C630 1.389 . S
C629 H608 0.950 . S
C629 C628 1.373 . S
C629 C645 1.377 . S
C630 C628 1.389 . S
C630 C631 1.524 . S
C630 C644 1.377 . S
C631 C630 1.524 . S
C631 C632 1.397 . S
C631 C636 1.363 . S
C632 H609 0.950 . S
C632 C631 1.397 . S
C632 C633 1.334 . S
C633 H610 0.950 . S
C633 C632 1.334 . S
C633 C634 1.287 . S
C634 C633 1.287 . S
C634 C635 1.524 . S
C634 H653 0.913 . S
C635 H611 0.950 . S
C635 C634 1.524 . S
C635 C636 1.415 . S
C636 H612 0.950 . S
C636 C631 1.363 . S
C636 C635 1.415 . S
C637 H613 0.951 . S
C637 C638 1.366 . S
C637 C639 1.388 . S
C638 C637 1.366 . S
C638 C642 1.385 . S
C639 H614 0.951 . S
C639 C637 1.388 . S
C639 C640 1.366 . S
C640 C639 1.366 . S
C640 C641 1.414 . S
C640 C643 1.499 . S
C641 H615 0.950 . S
C641 C640 1.414 . S
C641 C642 1.374 . S
C642 H616 0.950 . S
C642 C638 1.385 . S
C642 C641 1.374 . S
C643 C640 1.499 . S
C643 C644 1.373 . S
C643 C645 1.389 . S
C644 H617 0.950 . S
C644 C630 1.377 . S
C644 C643 1.373 . S
C645 C629 1.377 . S
C645 C643 1.389 . S
C645 C646 1.524 . S
C646 C645 1.524 . S
C646 C647 1.397 . S
C646 C651 1.363 . S
C647 H618 0.950 . S
C647 C646 1.397 . S
C647 C648 1.334 . S
C648 H619 0.950 . S
C648 C647 1.334 . S
C648 C649 1.287 . S
C649 C648 1.287 . S
C649 C650 1.524 . S
C649 H652 0.999 . S
C650 H620 0.950 . S
C650 C649 1.524 . S
C650 C651 1.415 . S
C651 H621 0.950 . S
C651 C646 1.363 . S
C651 C650 1.415 . S
H652 C649 0.999 . S
H653 C634 0.913 . S
H654 C672 0.951 . S
H655 C674 0.951 . S
H656 C676 0.950 . S
H657 C677 0.950 . S
H658 C679 0.950 . S
H659 C682 0.950 . S
H660 C683 0.950 . S
H661 C685 0.950 . S
H662 C686 0.950 . S
H663 C687 0.951 . S
H664 C689 0.951 . S
H665 C691 0.950 . S
H666 C692 0.950 . S
H667 C694 0.950 . S
H668 C697 0.950 . S
H669 C698 0.950 . S
H670 C700 0.950 . S
H671 C701 0.950 . S
C672 H654 0.951 . S
C672 C673 1.366 . S
C672 C674 1.388 . S
C673 C672 1.366 . S
C673 C677 1.385 . S
C674 H655 0.951 . S
C674 C672 1.388 . S
C674 C675 1.366 . S
C675 C674 1.366 . S
C675 C676 1.414 . S
C675 C678 1.499 . S
C676 H656 0.950 . S
C676 C675 1.414 . S
C676 C677 1.374 . S
C677 H657 0.950 . S
C677 C673 1.385 . S
C677 C676 1.374 . S
C678 C675 1.499 . S
C678 C679 1.373 . S
C678 C680 1.389 . S
C679 H658 0.950 . S
C679 C678 1.373 . S
C679 C695 1.377 . S
C680 C678 1.389 . S
C680 C681 1.524 . S
C680 C694 1.377 . S
C681 C680 1.524 . S
C681 C682 1.397 . S
C681 C686 1.363 . S
C682 H659 0.950 . S
C682 C681 1.397 . S
C682 C683 1.334 . S
C683 H660 0.950 . S
C683 C682 1.334 . S
C683 C684 1.287 . S
C684 C683 1.287 . S
C684 C685 1.524 . S
C684 H703 0.913 . S
C685 H661 0.950 . S
C685 C684 1.524 . S
C685 C686 1.415 . S
C686 H662 0.950 . S
C686 C681 1.363 . S
C686 C685 1.415 . S
C687 H663 0.951 . S
C687 C688 1.366 . S
C687 C689 1.388 . S
C688 C687 1.366 . S
C688 C692 1.385 . S
C689 H664 0.951 . S
C689 C687 1.388 . S
C689 C690 1.366 . S
C690 C689 1.366 . S
C690 C691 1.414 . S
C690 C693 1.499 . S
C691 H665 0.950 . S
C691 C690 1.414 . S
C691 C692 1.374 . S
C692 H666 0.950 . S
C692 C688 1.385 . S
C692 C691 1.374 . S
C693 C690 1.499 . S
C693 C694 1.373 . S
C693 C695 1.389 . S
C694 H667 0.950 . S
C694 C680 1.377 . S
C694 C693 1.373 . S
C695 C679 1.377 . S
C695 C693 1.389 . S
C695 C696 1.524 . S
C696 C695 1.524 . S
C696 C697 1.397 . S
C696 C701 1.363 . S
C697 H668 0.950 . S
C697 C696 1.397 . S
C697 C698 1.334 . S
C698 H669 0.950 . S
C698 C697 1.334 . S
C698 C699 1.287 . S
C699 C698 1.287 . S
C699 C700 1.524 . S
C699 H702 0.999 . S
C700 H670 0.950 . S
C700 C699 1.524 . S
C700 C701 1.415 . S
C701 H671 0.950 . S
C701 C696 1.363 . S
C701 C700 1.415 . S
H702 C699 0.999 . S
H703 C684 0.913 . S
H704 C722 0.951 . S
H705 C724 0.951 . S
H706 C726 0.950 . S
H707 C727 0.950 . S
H708 C729 0.950 . S
H709 C732 0.950 . S
H710 C733 0.950 . S
H711 C735 0.950 . S
H712 C736 0.950 . S
H713 C737 0.951 . S
H714 C739 0.951 . S
H715 C741 0.950 . S
H716 C742 0.950 . S
H717 C744 0.950 . S
H718 C747 0.950 . S
H719 C748 0.950 . S
H720 C750 0.950 . S
H721 C751 0.950 . S
C722 H704 0.951 . S
C722 C723 1.366 . S
C722 C724 1.388 . S
C723 C722 1.366 . S
C723 C727 1.385 . S
C724 H705 0.951 . S
C724 C722 1.388 . S
C724 C725 1.366 . S
C725 C724 1.366 . S
C725 C726 1.414 . S
C725 C728 1.499 . S
C726 H706 0.950 . S
C726 C725 1.414 . S
C726 C727 1.374 . S
C727 H707 0.950 . S
C727 C723 1.385 . S
C727 C726 1.374 . S
C728 C725 1.499 . S
C728 C729 1.373 . S
C728 C730 1.389 . S
C729 H708 0.950 . S
C729 C728 1.373 . S
C729 C745 1.377 . S
C730 C728 1.389 . S
C730 C731 1.524 . S
C730 C744 1.377 . S
C731 C730 1.524 . S
C731 C732 1.397 . S
C731 C736 1.363 . S
C732 H709 0.950 . S
C732 C731 1.397 . S
C732 C733 1.334 . S
C733 H710 0.950 . S
C733 C732 1.334 . S
C733 C734 1.287 . S
C734 C733 1.287 . S
C734 C735 1.524 . S
C734 H753 0.913 . S
C735 H711 0.950 . S
C735 C734 1.524 . S
C735 C736 1.415 . S
C736 H712 0.950 . S
C736 C731 1.363 . S
C736 C735 1.415 . S
C737 H713 0.951 . S
C737 C738 1.366 . S
C737 C739 1.388 . S
C738 C737 1.366 . S
C738 C742 1.385 . S
C739 H714 0.951 . S
C739 C737 1.388 . S
C739 C740 1.366 . S
C740 C739 1.366 . S
C740 C741 1.414 . S
C740 C743 1.499 . S
C741 H715 0.950 . S
C741 C740 1.414 . S
C741 C742 1.374 . S
C742 H716 0.950 . S
C742 C738 1.385 . S
C742 C741 1.374 . S
C743 C740 1.499 . S
C743 C744 1.373 . S
C743 C745 1.389 . S
C744 H717 0.950 . S
C744 C730 1.377 . S
C744 C743 1.373 . S
C745 C729 1.377 . S
C745 C743 1.389 . S
C745 C746 1.524 . S
C746 C745 1.524 . S
C746 C747 1.397 . S
C746 C751 1.363 . S
C747 H718 0.950 . S
C747 C746 1.397 . S
C747 C748 1.334 . S
C748 H719 0.950 . S
C748 C747 1.334 . S
C748 C749 1.287 . S
C749 C748 1.287 . S
C749 C750 1.524 . S
C749 H752 0.999 . S
C750 H720 0.950 . S
C750 C749 1.524 . S
C750 C751 1.415 . S
C751 H721 0.950 . S
C751 C746 1.363 . S
C751 C750 1.415 . S
H752 C749 0.999 . S
H753 C734 0.913 . S
H754 C772 0.951 . S
H755 C774 0.951 . S
H756 C776 0.950 . S
H757 C777 0.950 . S
H758 C779 0.950 . S
H759 C782 0.950 . S
H760 C783 0.950 . S
H761 C785 0.950 . S
H762 C786 0.950 . S
H763 C787 0.951 . S
H764 C789 0.951 . S
H765 C791 0.950 . S
H766 C792 0.950 . S
H767 C794 0.950 . S
H768 C797 0.950 . S
H769 C798 0.950 . S
H770 C800 0.950 . S
H771 C801 0.950 . S
C772 H754 0.951 . S
C772 C773 1.366 . S
C772 C774 1.388 . S
C773 C772 1.366 . S
C773 C777 1.385 . S
C774 H755 0.951 . S
C774 C772 1.388 . S
C774 C775 1.366 . S
C775 C774 1.366 . S
C775 C776 1.414 . S
C775 C778 1.499 . S
C776 H756 0.950 . S
C776 C775 1.414 . S
C776 C777 1.374 . S
C777 H757 0.950 . S
C777 C773 1.385 . S
C777 C776 1.374 . S
C778 C775 1.499 . S
C778 C779 1.373 . S
C778 C780 1.389 . S
C779 H758 0.950 . S
C779 C778 1.373 . S
C779 C795 1.377 . S
C780 C778 1.389 . S
C780 C781 1.524 . S
C780 C794 1.377 . S
C781 C780 1.524 . S
C781 C782 1.397 . S
C781 C786 1.363 . S
C782 H759 0.950 . S
C782 C781 1.397 . S
C782 C783 1.334 . S
C783 H760 0.950 . S
C783 C782 1.334 . S
C783 C784 1.287 . S
C784 C783 1.287 . S
C784 C785 1.524 . S
C784 H803 0.913 . S
C785 H761 0.950 . S
C785 C784 1.524 . S
C785 C786 1.415 . S
C786 H762 0.950 . S
C786 C781 1.363 . S
C786 C785 1.415 . S
C787 H763 0.951 . S
C787 C788 1.366 . S
C787 C789 1.388 . S
C788 C787 1.366 . S
C788 C792 1.385 . S
C789 H764 0.951 . S
C789 C787 1.388 . S
C789 C790 1.366 . S
C790 C789 1.366 . S
C790 C791 1.414 . S
C790 C793 1.499 . S
C791 H765 0.950 . S
C791 C790 1.414 . S
C791 C792 1.374 . S
C792 H766 0.950 . S
C792 C788 1.385 . S
C792 C791 1.374 . S
C793 C790 1.499 . S
C793 C794 1.373 . S
C793 C795 1.389 . S
C794 H767 0.950 . S
C794 C780 1.377 . S
C794 C793 1.373 . S
C795 C779 1.377 . S
C795 C793 1.389 . S
C795 C796 1.524 . S
C796 C795 1.524 . S
C796 C797 1.397 . S
C796 C801 1.363 . S
C797 H768 0.950 . S
C797 C796 1.397 . S
C797 C798 1.334 . S
C798 H769 0.950 . S
C798 C797 1.334 . S
C798 C799 1.287 . S
C799 C798 1.287 . S
C799 C800 1.524 . S
C799 H802 0.999 . S
C800 H770 0.950 . S
C800 C799 1.524 . S
C800 C801 1.415 . S
C801 H771 0.950 . S
C801 C796 1.363 . S
C801 C800 1.415 . S
H802 C799 0.999 . S
H803 C784 0.913 . S
H804 C822 0.951 . S
H805 C824 0.951 . S
H806 C826 0.950 . S
H807 C827 0.950 . S
H808 C829 0.950 . S
H809 C832 0.950 . S
H810 C833 0.950 . S
H811 C835 0.950 . S
H812 C836 0.950 . S
H813 C837 0.951 . S
H814 C839 0.951 . S
H815 C841 0.950 . S
H816 C842 0.950 . S
H817 C844 0.950 . S
H818 C847 0.950 . S
H819 C848 0.950 . S
H820 C850 0.950 . S
H821 C851 0.950 . S
C822 H804 0.951 . S
C822 C823 1.366 . S
C822 C824 1.388 . S
C823 C822 1.366 . S
C823 C827 1.385 . S
C824 H805 0.951 . S
C824 C822 1.388 . S
C824 C825 1.366 . S
C825 C824 1.366 . S
C825 C826 1.414 . S
C825 C828 1.499 . S
C826 H806 0.950 . S
C826 C825 1.414 . S
C826 C827 1.374 . S
C827 H807 0.950 . S
C827 C823 1.385 . S
C827 C826 1.374 . S
C828 C825 1.499 . S
C828 C829 1.373 . S
C828 C830 1.389 1_554 S
C829 H808 0.950 . S
C829 C828 1.373 . S
C829 C845 1.377 . S
C830 C828 1.389 1_556 S
C830 C831 1.524 . S
C830 C844 1.377 . S
C831 C830 1.524 . S
C831 C832 1.397 . S
C831 C836 1.363 . S
C832 H809 0.950 . S
C832 C831 1.397 . S
C832 C833 1.334 . S
C833 H810 0.950 . S
C833 C832 1.334 . S
C833 C834 1.287 . S
C834 C833 1.287 . S
C834 C835 1.524 . S
C834 H853 0.913 . S
C835 H811 0.950 . S
C835 C834 1.524 . S
C835 C836 1.415 . S
C836 H812 0.950 . S
C836 C831 1.363 . S
C836 C835 1.415 . S
C837 H813 0.951 . S
C837 C838 1.366 . S
C837 C839 1.388 . S
C838 C837 1.366 . S
C838 C842 1.385 . S
C839 H814 0.951 . S
C839 C837 1.388 . S
C839 C840 1.366 . S
C840 C839 1.366 . S
C840 C841 1.414 . S
C840 C843 1.499 . S
C841 H815 0.950 . S
C841 C840 1.414 . S
C841 C842 1.374 . S
C842 H816 0.950 . S
C842 C838 1.385 . S
C842 C841 1.374 . S
C843 C840 1.499 . S
C843 C844 1.373 1_554 S
C843 C845 1.389 . S
C844 H817 0.950 . S
C844 C830 1.377 . S
C844 C843 1.373 1_556 S
C845 C829 1.377 . S
C845 C843 1.389 . S
C845 C846 1.524 . S
C846 C845 1.524 . S
C846 C847 1.397 . S
C846 C851 1.363 . S
C847 H818 0.950 . S
C847 C846 1.397 . S
C847 C848 1.334 . S
C848 H819 0.950 . S
C848 C847 1.334 . S
C848 C849 1.287 . S
C849 C848 1.287 . S
C849 C850 1.524 . S
C849 H852 0.999 . S
C850 H820 0.950 . S
C850 C849 1.524 . S
C850 C851 1.415 . S
C851 H821 0.950 . S
C851 C846 1.363 . S
C851 C850 1.415 . S
H852 C849 0.999 . S
H853 C834 0.913 . S
H854 C872 0.951 . S
H855 C874 0.951 . S
H856 C876 0.950 . S
H857 C877 0.950 . S
H858 C879 0.950 . S
H859 C882 0.950 . S
H860 C883 0.950 . S
H861 C885 0.950 . S
H862 C886 0.950 1_655 S
H863 C887 0.951 . S
H864 C889 0.951 . S
H865 C891 0.950 . S
H866 C892 0.950 . S
H867 C894 0.950 . S
H868 C897 0.950 . S
H869 C898 0.950 . S
H870 C900 0.950 . S
H871 C901 0.950 1_455 S
C872 H854 0.951 . S
C872 C873 1.366 . S
C872 C874 1.388 . S
C873 C872 1.366 . S
C873 C877 1.385 . S
C874 H855 0.951 . S
C874 C872 1.388 . S
C874 C875 1.366 . S
C875 C874 1.366 . S
C875 C876 1.414 . S
C875 C878 1.499 . S
C876 H856 0.950 . S
C876 C875 1.414 . S
C876 C877 1.374 . S
C877 H857 0.950 . S
C877 C873 1.385 . S
C877 C876 1.374 . S
C878 C875 1.499 . S
C878 C879 1.373 . S
C878 C880 1.389 . S
C879 H858 0.950 . S
C879 C878 1.373 . S
C879 C895 1.377 1_455 S
C880 C878 1.389 . S
C880 C881 1.524 . S
C880 C894 1.377 1_455 S
C881 C880 1.524 . S
C881 C882 1.397 . S
C881 C886 1.363 . S
C882 H859 0.950 . S
C882 C881 1.397 . S
C882 C883 1.334 . S
C883 H860 0.950 . S
C883 C882 1.334 . S
C883 C884 1.287 . S
C884 C883 1.287 . S
C884 C885 1.524 . S
C884 H903 0.913 . S
C885 H861 0.950 . S
C885 C884 1.524 . S
C885 C886 1.415 . S
C886 H862 0.950 1_455 S
C886 C881 1.363 . S
C886 C885 1.415 . S
C887 H863 0.951 . S
C887 C888 1.366 . S
C887 C889 1.388 . S
C888 C887 1.366 . S
C888 C892 1.385 . S
C889 H864 0.951 . S
C889 C887 1.388 . S
C889 C890 1.366 . S
C890 C889 1.366 . S
C890 C891 1.414 . S
C890 C893 1.499 . S
C891 H865 0.950 . S
C891 C890 1.414 . S
C891 C892 1.374 . S
C892 H866 0.950 . S
C892 C888 1.385 . S
C892 C891 1.374 . S
C893 C890 1.499 . S
C893 C894 1.373 . S
C893 C895 1.389 . S
C894 H867 0.950 . S
C894 C880 1.377 1_655 S
C894 C893 1.373 . S
C895 C879 1.377 1_655 S
C895 C893 1.389 . S
C895 C896 1.524 . S
C896 C895 1.524 . S
C896 C897 1.397 . S
C896 C901 1.363 . S
C897 H868 0.950 . S
C897 C896 1.397 . S
C897 C898 1.334 . S
C898 H869 0.950 . S
C898 C897 1.334 . S
C898 C899 1.287 . S
C899 C898 1.287 . S
C899 C900 1.524 . S
C899 H902 0.999 . S
C900 H870 0.950 . S
C900 C899 1.524 . S
C900 C901 1.415 . S
C901 H871 0.950 1_655 S
C901 C896 1.363 . S
C901 C900 1.415 . S
H902 C899 0.999 . S
H903 C884 0.913 . S
H904 C922 0.951 . S
H905 C924 0.951 . S
H906 C926 0.950 . S
H907 C927 0.950 . S
H908 C929 0.950 . S
H909 C932 0.950 . S
H910 C933 0.950 . S
H911 C935 0.950 . S
H912 C936 0.950 . S
H913 C937 0.951 . S
H914 C939 0.951 . S
H915 C941 0.950 . S
H916 C942 0.950 . S
H917 C944 0.950 . S
H918 C947 0.950 . S
H919 C948 0.950 . S
H920 C950 0.950 . S
H921 C951 0.950 . S
C922 H904 0.951 . S
C922 C923 1.366 . S
C922 C924 1.388 . S
C923 C922 1.366 . S
C923 C927 1.385 . S
C924 H905 0.951 . S
C924 C922 1.388 . S
C924 C925 1.366 . S
C925 C924 1.366 . S
C925 C926 1.414 . S
C925 C928 1.499 . S
C926 H906 0.950 . S
C926 C925 1.414 . S
C926 C927 1.374 . S
C927 H907 0.950 . S
C927 C923 1.385 . S
C927 C926 1.374 . S
C928 C925 1.499 . S
C928 C929 1.373 1_545 S
C928 C930 1.389 . S
C929 H908 0.950 . S
C929 C928 1.373 1_565 S
C929 C945 1.377 . S
C930 C928 1.389 . S
C930 C931 1.524 . S
C930 C944 1.377 . S
C931 C930 1.524 . S
C931 C932 1.397 . S
C931 C936 1.363 . S
C932 H909 0.950 . S
C932 C931 1.397 . S
C932 C933 1.334 . S
C933 H910 0.950 . S
C933 C932 1.334 . S
C933 C934 1.287 . S
C934 C933 1.287 . S
C934 C935 1.524 . S
C934 H953 0.913 . S
C935 H911 0.950 . S
C935 C934 1.524 . S
C935 C936 1.415 . S
C936 H912 0.950 . S
C936 C931 1.363 . S
C936 C935 1.415 . S
C937 H913 0.951 . S
C937 C938 1.366 . S
C937 C939 1.388 . S
C938 C937 1.366 . S
C938 C942 1.385 . S
C939 H914 0.951 . S
C939 C937 1.388 . S
C939 C940 1.366 . S
C940 C939 1.366 . S
C940 C941 1.414 . S
C940 C943 1.499 . S
C941 H915 0.950 . S
C941 C940 1.414 . S
C941 C942 1.374 . S
C942 H916 0.950 . S
C942 C938 1.385 . S
C942 C941 1.374 . S
C943 C940 1.499 . S
C943 C944 1.373 1_565 S
C943 C945 1.389 . S
C944 H917 0.950 . S
C944 C930 1.377 . S
C944 C943 1.373 1_545 S
C945 C929 1.377 . S
C945 C943 1.389 . S
C945 C946 1.524 . S
C946 C945 1.524 . S
C946 C947 1.397 . S
C946 C951 1.363 . S
C947 H918 0.950 . S
C947 C946 1.397 . S
C947 C948 1.334 . S
C948 H919 0.950 . S
C948 C947 1.334 . S
C948 C949 1.287 . S
C949 C948 1.287 . S
C949 C950 1.524 . S
C949 H952 0.999 . S
C950 H920 0.950 . S
C950 C949 1.524 . S
C950 C951 1.415 . S
C951 H921 0.950 . S
C951 C946 1.363 . S
C951 C950 1.415 . S
H952 C949 0.999 . S
H953 C934 0.913 . S
H954 C972 0.951 . S
H955 C974 0.951 . S
H956 C976 0.950 . S
H957 C977 0.950 . S
H958 C979 0.950 . S
H959 C982 0.950 . S
H960 C983 0.950 . S
H961 C985 0.950 . S
H962 C986 0.950 . S
H963 C987 0.951 . S
H964 C989 0.951 . S
H965 C991 0.950 . S
H966 C992 0.950 . S
H967 C994 0.950 . S
H968 C997 0.950 . S
H969 C998 0.950 . S
H970 C1000 0.950 . S
H971 C1001 0.950 . S
C972 H954 0.951 . S
C972 C973 1.366 . S
C972 C974 1.388 . S
C973 C972 1.366 . S
C973 C977 1.385 . S
C974 H955 0.951 . S
C974 C972 1.388 . S
C974 C975 1.366 . S
C975 C974 1.366 . S
C975 C976 1.414 . S
C975 C978 1.499 . S
C976 H956 0.950 . S
C976 C975 1.414 . S
C976 C977 1.374 . S
C977 H957 0.950 . S
C977 C973 1.385 . S
C977 C976 1.374 . S
C978 C975 1.499 . S
C978 C979 1.373 . S
C978 C980 1.389 . S
C979 H958 0.950 . S
C979 C978 1.373 . S
C979 C995 1.377 . S
C980 C978 1.389 . S
C980 C981 1.524 . S
C980 C994 1.377 . S
C981 C980 1.524 . S
C981 C982 1.397 . S
C981 C986 1.363 . S
C982 H959 0.950 . S
C982 C981 1.397 . S
C982 C983 1.334 . S
C983 H960 0.950 . S
C983 C982 1.334 . S
C983 C984 1.287 . S
C984 C983 1.287 . S
C984 C985 1.524 . S
C984 H1003 0.913 . S
C985 H961 0.950 . S
C985 C984 1.524 . S
C985 C986 1.415 . S
C986 H962 0.950 . S
C986 C981 1.363 . S
C986 C985 1.415 . S
C987 H963 0.951 . S
C987 C988 1.366 . S
C987 C989 1.388 . S
C988 C987 1.366 . S
C988 C992 1.385 . S
C989 H964 0.951 . S
C989 C987 1.388 . S
C989 C990 1.366 . S
C990 C989 1.366 . S
C990 C991 1.414 . S
C990 C993 1.499 . S
C991 H965 0.950 . S
C991 C990 1.414 . S
C991 C992 1.374 . S
C992 H966 0.950 . S
C992 C988 1.385 . S
C992 C991 1.374 . S
C993 C990 1.499 . S
C993 C994 1.373 . S
C993 C995 1.389 . S
C994 H967 0.950 . S
C994 C980 1.377 . S
C994 C993 1.373 . S
C995 C979 1.377 . S
C995 C993 1.389 . S
C995 C996 1.524 . S
C996 C995 1.524 . S
C996 C997 1.397 . S
C996 C1001 1.363 . S
C997 H968 0.950 . S
C997 C996 1.397 . S
C997 C998 1.334 . S
C998 H969 0.950 . S
C998 C997 1.334 . S
C998 C999 1.287 . S
C999 C998 1.287 . S
C999 C1000 1.524 . S
C999 H1002 0.999 . S
C1000 H970 0.950 . S
C1000 C999 1.524 . S
C1000 C1001 1.415 . S
C1001 H971 0.950 . S
C1001 C996 1.363 . S
C1001 C1000 1.415 . S
H1002 C999 0.999 . S
H1003 C984 0.913 . S
H1004 C1022 0.951 . S
H1005 C1024 0.951 . S
H1006 C1026 0.950 . S
H1007 C1027 0.950 . S
H1008 C1029 0.950 1_556 S
H1009 C1032 0.950 . S
H1010 C1033 0.950 . S
H1011 C1035 0.950 . S
H1012 C1036 0.950 . S
H1013 C1037 0.951 . S
H1014 C1039 0.951 . S
H1015 C1041 0.950 . S
H1016 C1042 0.950 . S
H1017 C1044 0.950 . S
H1018 C1047 0.950 . S
H1019 C1048 0.950 . S
H1020 C1050 0.950 . S
H1021 C1051 0.950 1_554 S
C1022 H1004 0.951 . S
C1022 C1023 1.366 1_556 S
C1022 C1024 1.388 . S
C1023 C1022 1.366 1_554 S
C1023 C1027 1.385 . S
C1024 H1005 0.951 . S
C1024 C1022 1.388 . S
C1024 C1025 1.366 1_556 S
C1025 C1024 1.366 1_554 S
C1025 C1026 1.414 . S
C1025 C1028 1.499 . S
C1026 H1006 0.950 . S
C1026 C1025 1.414 . S
C1026 C1027 1.374 . S
C1027 H1007 0.950 . S
C1027 C1023 1.385 . S
C1027 C1026 1.374 . S
C1028 C1025 1.499 . S
C1028 C1029 1.373 1_455 S
C1028 C1030 1.389 . S
C1029 H1008 0.950 1_554 S
C1029 C1028 1.373 1_655 S
C1029 C1045 1.376 1_554 S
C1030 C1028 1.389 . S
C1030 C1031 1.524 . S
C1030 C1044 1.377 . S
C1031 C1030 1.524 . S
C1031 C1032 1.397 . S
C1031 C1036 1.363 . S
C1032 H1009 0.950 . S
C1032 C1031 1.397 . S
C1032 C1033 1.334 . S
C1033 H1010 0.950 . S
C1033 C1032 1.334 . S
C1033 C1034 1.287 . S
C1034 C1033 1.287 . S
C1034 C1035 1.524 . S
C1034 H1053 0.913 . S
C1035 H1011 0.950 . S
C1035 C1034 1.524 . S
C1035 C1036 1.415 . S
C1036 H1012 0.950 . S
C1036 C1031 1.363 . S
C1036 C1035 1.415 . S
C1037 H1013 0.951 . S
C1037 C1038 1.366 . S
C1037 C1039 1.388 . S
C1038 C1037 1.366 . S
C1038 C1042 1.385 1_554 S
C1039 H1014 0.951 . S
C1039 C1037 1.388 . S
C1039 C1040 1.366 . S
C1040 C1039 1.366 . S
C1040 C1041 1.414 1_554 S
C1040 C1043 1.499 . S
C1041 H1015 0.950 . S
C1041 C1040 1.414 1_556 S
C1041 C1042 1.374 . S
C1042 H1016 0.950 . S
C1042 C1038 1.385 1_556 S
C1042 C1041 1.374 . S
C1043 C1040 1.499 . S
C1043 C1044 1.373 1_655 S
C1043 C1045 1.389 1_554 S
C1044 H1017 0.950 . S
C1044 C1030 1.377 . S
C1044 C1043 1.373 1_455 S
C1045 C1029 1.376 1_556 S
C1045 C1043 1.389 1_556 S
C1045 C1046 1.526 . S
C1046 C1045 1.526 . S
C1046 C1047 1.397 . S
C1046 C1051 1.363 . S
C1047 H1018 0.950 . S
C1047 C1046 1.397 . S
C1047 C1048 1.334 . S
C1048 H1019 0.950 . S
C1048 C1047 1.334 . S
C1048 C1049 1.287 . S
C1049 C1048 1.287 . S
C1049 C1050 1.524 . S
C1049 H1052 0.999 . S
C1050 H1020 0.950 . S
C1050 C1049 1.524 . S
C1050 C1051 1.415 . S
C1051 H1021 0.950 1_556 S
C1051 C1046 1.363 . S
C1051 C1050 1.415 . S
H1052 C1049 0.999 . S
H1053 C1034 0.913 . S
H1054 C1072 0.951 . S
H1055 C1074 0.951 . S
H1056 C1076 0.950 . S
H1057 C1077 0.950 . S
H1058 C1079 0.950 . S
H1059 C1082 0.950 . S
H1060 C1083 0.950 . S
H1061 C1085 0.950 . S
H1062 C1086 0.950 . S
H1063 C1087 0.951 . S
H1064 C1089 0.951 . S
H1065 C1091 0.950 . S
H1066 C1092 0.950 . S
H1067 C1094 0.950 . S
H1068 C1097 0.950 . S
H1069 C1098 0.950 . S
H1070 C1100 0.950 . S
H1071 C1101 0.950 . S
C1072 H1054 0.951 . S
C1072 C1073 1.366 . S
C1072 C1074 1.388 . S
C1073 C1072 1.366 . S
C1073 C1077 1.385 . S
C1074 H1055 0.951 . S
C1074 C1072 1.388 . S
C1074 C1075 1.366 . S
C1075 C1074 1.366 . S
C1075 C1076 1.414 . S
C1075 C1078 1.499 . S
C1076 H1056 0.950 . S
C1076 C1075 1.414 . S
C1076 C1077 1.374 . S
C1077 H1057 0.950 . S
C1077 C1073 1.385 . S
C1077 C1076 1.374 . S
C1078 C1075 1.499 . S
C1078 C1079 1.373 1_565 S
C1078 C1080 1.389 . S
C1079 H1058 0.950 . S
C1079 C1078 1.373 1_545 S
C1079 C1095 1.377 . S
C1080 C1078 1.389 . S
C1080 C1081 1.524 . S
C1080 C1094 1.377 . S
C1081 C1080 1.524 . S
C1081 C1082 1.397 . S
C1081 C1086 1.363 . S
C1082 H1059 0.950 . S
C1082 C1081 1.397 . S
C1082 C1083 1.334 . S
C1083 H1060 0.950 . S
C1083 C1082 1.334 . S
C1083 C1084 1.287 . S
C1084 C1083 1.287 . S
C1084 C1085 1.524 . S
C1084 H1103 0.913 . S
C1085 H1061 0.950 . S
C1085 C1084 1.524 . S
C1085 C1086 1.415 . S
C1086 H1062 0.950 . S
C1086 C1081 1.363 . S
C1086 C1085 1.415 . S
C1087 H1063 0.951 . S
C1087 C1088 1.366 . S
C1087 C1089 1.388 . S
C1088 C1087 1.366 . S
C1088 C1092 1.385 . S
C1089 H1064 0.951 . S
C1089 C1087 1.388 . S
C1089 C1090 1.366 . S
C1090 C1089 1.366 . S
C1090 C1091 1.414 . S
C1090 C1093 1.499 . S
C1091 H1065 0.950 . S
C1091 C1090 1.414 . S
C1091 C1092 1.374 . S
C1092 H1066 0.950 . S
C1092 C1088 1.385 . S
C1092 C1091 1.374 . S
C1093 C1090 1.499 . S
C1093 C1094 1.373 1_545 S
C1093 C1095 1.389 . S
C1094 H1067 0.950 . S
C1094 C1080 1.377 . S
C1094 C1093 1.373 1_565 S
C1095 C1079 1.377 . S
C1095 C1093 1.389 . S
C1095 C1096 1.524 . S
C1096 C1095 1.524 . S
C1096 C1097 1.397 . S
C1096 C1101 1.363 . S
C1097 H1068 0.950 . S
C1097 C1096 1.397 . S
C1097 C1098 1.334 . S
C1098 H1069 0.950 . S
C1098 C1097 1.334 . S
C1098 C1099 1.287 . S
C1099 C1098 1.287 . S
C1099 C1100 1.524 . S
C1099 H1102 0.999 . S
C1100 H1070 0.950 . S
C1100 C1099 1.524 . S
C1100 C1101 1.415 . S
C1101 H1071 0.950 . S
C1101 C1096 1.363 . S
C1101 C1100 1.415 . S
H1102 C1099 0.999 . S
H1103 C1084 0.913 . S
H1104 C1122 0.951 . S
H1105 C1124 0.951 . S
H1106 C1126 0.950 . S
H1107 C1127 0.950 . S
H1108 C1129 0.950 . S
H1109 C1132 0.950 . S
H1110 C1133 0.950 . S
H1111 C1135 0.950 . S
H1112 C1136 0.950 . S
H1113 C1137 0.951 . S
H1114 C1139 0.951 . S
H1115 C1141 0.950 . S
H1116 C1142 0.950 . S
H1117 C1144 0.950 . S
H1118 C1147 0.950 . S
H1119 C1148 0.950 . S
H1120 C1150 0.950 . S
H1121 C1151 0.950 . S
C1122 H1104 0.951 . S
C1122 C1123 1.366 . S
C1122 C1124 1.388 . S
C1123 C1122 1.366 . S
C1123 C1127 1.385 . S
C1124 H1105 0.951 . S
C1124 C1122 1.388 . S
C1124 C1125 1.366 . S
C1125 C1124 1.366 . S
C1125 C1126 1.414 . S
C1125 C1128 1.499 . S
C1126 H1106 0.950 . S
C1126 C1125 1.414 . S
C1126 C1127 1.374 . S
C1127 H1107 0.950 . S
C1127 C1123 1.385 . S
C1127 C1126 1.374 . S
C1128 C1125 1.499 . S
C1128 C1129 1.373 . S
C1128 C1130 1.389 . S
C1129 H1108 0.950 . S
C1129 C1128 1.373 . S
C1129 C1145 1.377 . S
C1130 C1128 1.389 . S
C1130 C1131 1.524 . S
C1130 C1144 1.377 . S
C1131 C1130 1.524 . S
C1131 C1132 1.397 . S
C1131 C1136 1.363 . S
C1132 H1109 0.950 . S
C1132 C1131 1.397 . S
C1132 C1133 1.334 . S
C1133 H1110 0.950 . S
C1133 C1132 1.334 . S
C1133 C1134 1.287 . S
C1134 C1133 1.287 . S
C1134 C1135 1.524 . S
C1134 H1153 0.913 . S
C1135 H1111 0.950 . S
C1135 C1134 1.524 . S
C1135 C1136 1.415 . S
C1136 H1112 0.950 . S
C1136 C1131 1.363 . S
C1136 C1135 1.415 . S
C1137 H1113 0.951 . S
C1137 C1138 1.366 . S
C1137 C1139 1.388 . S
C1138 C1137 1.366 . S
C1138 C1142 1.385 . S
C1139 H1114 0.951 . S
C1139 C1137 1.388 . S
C1139 C1140 1.366 . S
C1140 C1139 1.366 . S
C1140 C1141 1.414 . S
C1140 C1143 1.499 . S
C1141 H1115 0.950 . S
C1141 C1140 1.414 . S
C1141 C1142 1.374 . S
C1142 H1116 0.950 . S
C1142 C1138 1.385 . S
C1142 C1141 1.374 . S
C1143 C1140 1.499 . S
C1143 C1144 1.373 . S
C1143 C1145 1.389 . S
C1144 H1117 0.950 . S
C1144 C1130 1.377 . S
C1144 C1143 1.373 . S
C1145 C1129 1.377 . S
C1145 C1143 1.389 . S
C1145 C1146 1.524 . S
C1146 C1145 1.524 . S
C1146 C1147 1.397 . S
C1146 C1151 1.363 . S
C1147 H1118 0.950 . S
C1147 C1146 1.397 . S
C1147 C1148 1.334 . S
C1148 H1119 0.950 . S
C1148 C1147 1.334 . S
C1148 C1149 1.287 . S
C1149 C1148 1.287 . S
C1149 C1150 1.524 . S
C1149 H1152 0.999 . S
C1150 H1120 0.950 . S
C1150 C1149 1.524 . S
C1150 C1151 1.415 . S
C1151 H1121 0.950 . S
C1151 C1146 1.363 . S
C1151 C1150 1.415 . S
H1152 C1149 0.999 . S
H1153 C1134 0.913 . S
H1154 C1172 0.951 . S
H1155 C1174 0.951 . S
H1156 C1176 0.950 . S
H1157 C1177 0.950 . S
H1158 C1179 0.950 1_655 S
H1159 C1182 0.950 . S
H1160 C1183 0.950 . S
H1161 C1185 0.950 . S
H1162 C1186 0.950 . S
H1163 C1187 0.951 . S
H1164 C1189 0.951 . S
H1165 C1191 0.950 . S
H1166 C1192 0.950 . S
H1167 C1194 0.950 . S
H1168 C1197 0.950 . S
H1169 C1198 0.950 . S
H1170 C1200 0.950 . S
H1171 C1201 0.950 . S
C1172 H1154 0.951 . S
C1172 C1173 1.366 . S
C1172 C1174 1.388 1_655 S
C1173 C1172 1.366 . S
C1173 C1177 1.385 . S
C1174 H1155 0.951 . S
C1174 C1172 1.388 1_455 S
C1174 C1175 1.366 . S
C1175 C1174 1.366 . S
C1175 C1176 1.414 1_455 S
C1175 C1178 1.499 . S
C1176 H1156 0.950 . S
C1176 C1175 1.414 1_655 S
C1176 C1177 1.374 . S
C1177 H1157 0.950 . S
C1177 C1173 1.385 . S
C1177 C1176 1.374 . S
C1178 C1175 1.499 . S
C1178 C1179 1.373 . S
C1178 C1180 1.389 . S
C1179 H1158 0.950 1_455 S
C1179 C1178 1.373 . S
C1179 C1195 1.377 . S
C1180 C1178 1.389 . S
C1180 C1181 1.524 . S
C1180 C1194 1.377 . S
C1181 C1180 1.524 . S
C1181 C1182 1.397 . S
C1181 C1186 1.363 . S
C1182 H1159 0.950 . S
C1182 C1181 1.397 . S
C1182 C1183 1.334 . S
C1183 H1160 0.950 . S
C1183 C1182 1.334 . S
C1183 C1184 1.287 . S
C1184 C1183 1.287 . S
C1184 C1185 1.524 . S
C1184 H1203 0.913 . S
C1185 H1161 0.950 . S
C1185 C1184 1.524 . S
C1185 C1186 1.415 . S
C1186 H1162 0.950 . S
C1186 C1181 1.363 . S
C1186 C1185 1.415 . S
C1187 H1163 0.951 . S
C1187 C1188 1.366 . S
C1187 C1189 1.388 . S
C1188 C1187 1.366 . S
C1188 C1192 1.385 . S
C1189 H1164 0.951 . S
C1189 C1187 1.388 . S
C1189 C1190 1.366 . S
C1190 C1189 1.366 . S
C1190 C1191 1.414 . S
C1190 C1193 1.499 . S
C1191 H1165 0.950 . S
C1191 C1190 1.414 . S
C1191 C1192 1.374 . S
C1192 H1166 0.950 . S
C1192 C1188 1.385 . S
C1192 C1191 1.374 . S
C1193 C1190 1.499 . S
C1193 C1194 1.373 . S
C1193 C1195 1.389 . S
C1194 H1167 0.950 . S
C1194 C1180 1.377 . S
C1194 C1193 1.373 . S
C1195 C1179 1.377 . S
C1195 C1193 1.389 . S
C1195 C1196 1.524 . S
C1196 C1195 1.524 . S
C1196 C1197 1.397 . S
C1196 C1201 1.363 1_455 S
C1197 H1168 0.950 . S
C1197 C1196 1.397 . S
C1197 C1198 1.334 . S
C1198 H1169 0.950 . S
C1198 C1197 1.334 . S
C1198 C1199 1.287 1_455 S
C1199 C1198 1.287 1_655 S
C1199 C1200 1.524 . S
C1199 H1202 0.999 . S
C1200 H1170 0.950 . S
C1200 C1199 1.524 . S
C1200 C1201 1.415 . S
C1201 H1171 0.950 . S
C1201 C1196 1.363 1_655 S
C1201 C1200 1.415 . S
H1202 C1199 0.999 . S
H1203 C1184 0.913 . S
H1204 C1222 0.951 . S
H1205 C1224 0.951 . S
H1206 C1226 0.950 . S
H1207 C1227 0.950 1_545 S
H1208 C1229 0.950 . S
H1209 C1232 0.950 . S
H1210 C1233 0.950 . S
H1211 C1235 0.950 . S
H1212 C1236 0.950 . S
H1213 C1237 0.951 . S
H1214 C1239 0.951 . S
H1215 C1241 0.950 . S
H1216 C1242 0.950 . S
H1217 C1244 0.950 . S
H1218 C1247 0.950 . S
H1219 C1248 0.950 . S
H1220 C1250 0.950 . S
H1221 C1251 0.950 . S
C1222 H1204 0.951 . S
C1222 C1223 1.366 . S
C1222 C1224 1.388 . S
C1223 C1222 1.366 . S
C1223 C1227 1.385 . S
C1224 H1205 0.951 . S
C1224 C1222 1.388 . S
C1224 C1225 1.366 1_565 S
C1225 C1224 1.366 1_545 S
C1225 C1226 1.414 . S
C1225 C1228 1.499 . S
C1226 H1206 0.950 . S
C1226 C1225 1.414 . S
C1226 C1227 1.374 1_545 S
C1227 H1207 0.950 1_565 S
C1227 C1223 1.385 . S
C1227 C1226 1.374 1_565 S
C1228 C1225 1.499 . S
C1228 C1229 1.373 . S
C1228 C1230 1.389 . S
C1229 H1208 0.950 . S
C1229 C1228 1.373 . S
C1229 C1245 1.377 . S
C1230 C1228 1.389 . S
C1230 C1231 1.524 1_545 S
C1230 C1244 1.377 . S
C1231 C1230 1.524 1_565 S
C1231 C1232 1.397 . S
C1231 C1236 1.363 . S
C1232 H1209 0.950 . S
C1232 C1231 1.397 . S
C1232 C1233 1.334 . S
C1233 H1210 0.950 . S
C1233 C1232 1.334 . S
C1233 C1234 1.287 . S
C1234 C1233 1.287 . S
C1234 C1235 1.524 . S
C1234 H1253 0.913 . S
C1235 H1211 0.950 . S
C1235 C1234 1.524 . S
C1235 C1236 1.415 . S
C1236 H1212 0.950 . S
C1236 C1231 1.363 . S
C1236 C1235 1.415 . S
C1237 H1213 0.951 . S
C1237 C1238 1.366 . S
C1237 C1239 1.388 . S
C1238 C1237 1.366 . S
C1238 C1242 1.385 . S
C1239 H1214 0.951 . S
C1239 C1237 1.388 . S
C1239 C1240 1.366 . S
C1240 C1239 1.366 . S
C1240 C1241 1.414 . S
C1240 C1243 1.499 . S
C1241 H1215 0.950 . S
C1241 C1240 1.414 . S
C1241 C1242 1.374 . S
C1242 H1216 0.950 . S
C1242 C1238 1.385 . S
C1242 C1241 1.374 . S
C1243 C1240 1.499 . S
C1243 C1244 1.373 . S
C1243 C1245 1.389 . S
C1244 H1217 0.950 . S
C1244 C1230 1.377 . S
C1244 C1243 1.373 . S
C1245 C1229 1.377 . S
C1245 C1243 1.389 . S
C1245 C1246 1.524 . S
C1246 C1245 1.524 . S
C1246 C1247 1.397 . S
C1246 C1251 1.363 . S
C1247 H1218 0.950 . S
C1247 C1246 1.397 . S
C1247 C1248 1.334 . S
C1248 H1219 0.950 . S
C1248 C1247 1.334 . S
C1248 C1249 1.287 . S
C1249 C1248 1.287 . S
C1249 C1250 1.524 . S
C1249 H1252 0.999 . S
C1250 H1220 0.950 . S
C1250 C1249 1.524 . S
C1250 C1251 1.415 . S
C1251 H1221 0.950 . S
C1251 C1246 1.363 . S
C1251 C1250 1.415 . S
H1252 C1249 0.999 . S
H1253 C1234 0.913 . S
H1254 C1272 0.951 . S
H1255 C1274 0.951 . S
H1256 C1276 0.950 . S
H1257 C1277 0.950 . S
H1258 C1279 0.950 . S
H1259 C1282 0.950 . S
H1260 C1283 0.950 . S
H1261 C1285 0.950 . S
H1262 C1286 0.950 . S
H1263 C1287 0.951 . S
H1264 C1289 0.951 . S
H1265 C1291 0.950 . S
H1266 C1292 0.950 . S
H1267 C1294 0.950 . S
H1268 C1297 0.950 . S
H1269 C1298 0.950 . S
H1270 C1300 0.950 . S
H1271 C1301 0.950 . S
C1272 H1254 0.951 . S
C1272 C1273 1.366 . S
C1272 C1274 1.388 . S
C1273 C1272 1.366 . S
C1273 C1277 1.385 . S
C1274 H1255 0.951 . S
C1274 C1272 1.388 . S
C1274 C1275 1.366 . S
C1275 C1274 1.366 . S
C1275 C1276 1.414 . S
C1275 C1278 1.499 . S
C1276 H1256 0.950 . S
C1276 C1275 1.414 . S
C1276 C1277 1.374 . S
C1277 H1257 0.950 . S
C1277 C1273 1.385 . S
C1277 C1276 1.374 . S
C1278 C1275 1.499 . S
C1278 C1279 1.373 . S
C1278 C1280 1.389 . S
C1279 H1258 0.950 . S
C1279 C1278 1.373 . S
C1279 C1295 1.377 . S
C1280 C1278 1.389 . S
C1280 C1281 1.524 . S
C1280 C1294 1.377 . S
C1281 C1280 1.524 . S
C1281 C1282 1.397 . S
C1281 C1286 1.363 . S
C1282 H1259 0.950 . S
C1282 C1281 1.397 . S
C1282 C1283 1.334 . S
C1283 H1260 0.950 . S
C1283 C1282 1.334 . S
C1283 C1284 1.287 . S
C1284 C1283 1.287 . S
C1284 C1285 1.524 . S
C1284 H1303 0.913 . S
C1285 H1261 0.950 . S
C1285 C1284 1.524 . S
C1285 C1286 1.415 . S
C1286 H1262 0.950 . S
C1286 C1281 1.363 . S
C1286 C1285 1.415 . S
C1287 H1263 0.951 . S
C1287 C1288 1.366 . S
C1287 C1289 1.388 . S
C1288 C1287 1.366 . S
C1288 C1292 1.385 . S
C1289 H1264 0.951 . S
C1289 C1287 1.388 . S
C1289 C1290 1.366 . S
C1290 C1289 1.366 . S
C1290 C1291 1.414 . S
C1290 C1293 1.499 . S
C1291 H1265 0.950 . S
C1291 C1290 1.414 . S
C1291 C1292 1.374 . S
C1292 H1266 0.950 . S
C1292 C1288 1.385 . S
C1292 C1291 1.374 . S
C1293 C1290 1.499 . S
C1293 C1294 1.373 . S
C1293 C1295 1.389 . S
C1294 H1267 0.950 . S
C1294 C1280 1.377 . S
C1294 C1293 1.373 . S
C1295 C1279 1.377 . S
C1295 C1293 1.389 . S
C1295 C1296 1.524 . S
C1296 C1295 1.524 . S
C1296 C1297 1.397 . S
C1296 C1301 1.363 . S
C1297 H1268 0.950 . S
C1297 C1296 1.397 . S
C1297 C1298 1.334 . S
C1298 H1269 0.950 . S
C1298 C1297 1.334 . S
C1298 C1299 1.287 . S
C1299 C1298 1.287 . S
C1299 C1300 1.524 . S
C1299 H1302 0.999 . S
C1300 H1270 0.950 . S
C1300 C1299 1.524 . S
C1300 C1301 1.415 . S
C1301 H1271 0.950 . S
C1301 C1296 1.363 . S
C1301 C1300 1.415 . S
H1302 C1299 0.999 . S
H1303 C1284 0.913 . S
H1304 C1322 0.951 1_655 S
H1305 C1324 0.951 . S
H1306 C1326 0.950 . S
H1307 C1327 0.950 . S
H1308 C1329 0.950 1_455 S
H1309 C1332 0.950 . S
H1310 C1333 0.950 . S
H1311 C1335 0.950 . S
H1312 C1336 0.950 . S
H1313 C1337 0.951 . S
H1314 C1339 0.951 . S
H1315 C1341 0.950 . S
H1316 C1342 0.950 . S
H1317 C1344 0.950 . S
H1318 C1347 0.950 . S
H1319 C1348 0.950 . S
H1320 C1350 0.950 . S
H1321 C1351 0.950 . S
C1322 H1304 0.951 1_455 S
C1322 C1323 1.366 . S
C1322 C1324 1.388 1_455 S
C1323 C1322 1.366 . S
C1323 C1327 1.385 . S
C1324 H1305 0.951 . S
C1324 C1322 1.388 1_655 S
C1324 C1325 1.366 . S
C1325 C1324 1.366 . S
C1325 C1326 1.414 1_655 S
C1325 C1328 1.499 . S
C1326 H1306 0.950 . S
C1326 C1325 1.414 1_455 S
C1326 C1327 1.374 . S
C1327 H1307 0.950 . S
C1327 C1323 1.385 . S
C1327 C1326 1.374 . S
C1328 C1325 1.499 . S
C1328 C1329 1.373 . S
C1328 C1330 1.389 . S
C1329 H1308 0.950 1_655 S
C1329 C1328 1.373 . S
C1329 C1345 1.377 . S
C1330 C1328 1.389 . S
C1330 C1331 1.524 . S
C1330 C1344 1.377 . S
C1331 C1330 1.524 . S
C1331 C1332 1.397 . S
C1331 C1336 1.363 . S
C1332 H1309 0.950 . S
C1332 C1331 1.397 . S
C1332 C1333 1.334 . S
C1333 H1310 0.950 . S
C1333 C1332 1.334 . S
C1333 C1334 1.287 . S
C1334 C1333 1.287 . S
C1334 C1335 1.524 . S
C1334 H1353 0.913 . S
C1335 H1311 0.950 . S
C1335 C1334 1.524 . S
C1335 C1336 1.415 . S
C1336 H1312 0.950 . S
C1336 C1331 1.363 . S
C1336 C1335 1.415 . S
C1337 H1313 0.951 . S
C1337 C1338 1.366 . S
C1337 C1339 1.388 . S
C1338 C1337 1.366 . S
C1338 C1342 1.385 . S
C1339 H1314 0.951 . S
C1339 C1337 1.388 . S
C1339 C1340 1.366 . S
C1340 C1339 1.366 . S
C1340 C1341 1.414 . S
C1340 C1343 1.499 . S
C1341 H1315 0.950 . S
C1341 C1340 1.414 . S
C1341 C1342 1.374 . S
C1342 H1316 0.950 . S
C1342 C1338 1.385 . S
C1342 C1341 1.374 . S
C1343 C1340 1.499 . S
C1343 C1344 1.373 . S
C1343 C1345 1.389 . S
C1344 H1317 0.950 . S
C1344 C1330 1.377 . S
C1344 C1343 1.373 . S
C1345 C1329 1.377 . S
C1345 C1343 1.389 . S
C1345 C1346 1.524 . S
C1346 C1345 1.524 . S
C1346 C1347 1.397 . S
C1346 C1351 1.363 1_655 S
C1347 H1318 0.950 . S
C1347 C1346 1.397 . S
C1347 C1348 1.334 . S
C1348 H1319 0.950 . S
C1348 C1347 1.334 . S
C1348 C1349 1.287 1_655 S
C1349 C1348 1.287 1_455 S
C1349 C1350 1.524 . S
C1349 H1352 0.999 . S
C1350 H1320 0.950 . S
C1350 C1349 1.524 . S
C1350 C1351 1.415 . S
C1351 H1321 0.950 . S
C1351 C1346 1.363 1_455 S
C1351 C1350 1.415 . S
H1352 C1349 0.999 . S
H1353 C1334 0.913 . S
H1354 C1372 0.951 . S
H1355 C1374 0.951 . S
H1356 C1376 0.950 . S
H1357 C1377 0.950 . S
H1358 C1379 0.950 . S
H1359 C1382 0.950 . S
H1360 C1383 0.950 . S
H1361 C1385 0.948 . S
H1362 C1386 0.950 . S
H1363 C1387 0.951 . S
H1364 C1389 0.951 . S
H1365 C1391 0.950 . S
H1366 C1392 0.950 . S
H1367 C1394 0.950 . S
H1368 C1397 0.950 . S
H1369 C1398 0.950 . S
H1370 C1400 0.950 . S
H1371 C1401 0.950 . S
C1372 H1354 0.951 . S
C1372 C1373 1.366 . S
C1372 C1374 1.388 1_545 S
C1373 C1372 1.366 . S
C1373 C1377 1.385 . S
C1374 H1355 0.951 . S
C1374 C1372 1.388 1_565 S
C1374 C1375 1.366 . S
C1375 C1374 1.366 . S
C1375 C1376 1.414 1_565 S
C1375 C1378 1.499 . S
C1376 H1356 0.950 . S
C1376 C1375 1.414 1_545 S
C1376 C1377 1.374 . S
C1377 H1357 0.950 . S
C1377 C1373 1.385 . S
C1377 C1376 1.374 . S
C1378 C1375 1.499 . S
C1378 C1379 1.373 . S
C1378 C1380 1.389 . S
C1379 H1358 0.950 . S
C1379 C1378 1.373 . S
C1379 C1395 1.377 . S
C1380 C1378 1.389 . S
C1380 C1381 1.524 . S
C1380 C1394 1.377 . S
C1381 C1380 1.524 . S
C1381 C1382 1.397 1_565 S
C1381 C1386 1.363 . S
C1382 H1359 0.950 . S
C1382 C1381 1.397 1_545 S
C1382 C1383 1.334 . S
C1383 H1360 0.950 . S
C1383 C1382 1.334 . S
C1383 C1384 1.287 . S
C1384 C1383 1.287 . S
C1384 C1385 1.524 . S
C1384 H1403 0.913 . S
C1385 H1361 0.948 . S
C1385 C1384 1.524 . S
C1385 C1386 1.415 1_545 S
C1386 H1362 0.950 . S
C1386 C1381 1.363 . S
C1386 C1385 1.415 1_565 S
C1387 H1363 0.951 . S
C1387 C1388 1.366 . S
C1387 C1389 1.388 . S
C1388 C1387 1.366 . S
C1388 C1392 1.385 . S
C1389 H1364 0.951 . S
C1389 C1387 1.388 . S
C1389 C1390 1.366 . S
C1390 C1389 1.366 . S
C1390 C1391 1.414 . S
C1390 C1393 1.499 . S
C1391 H1365 0.950 . S
C1391 C1390 1.414 . S
C1391 C1392 1.374 . S
C1392 H1366 0.950 . S
C1392 C1388 1.385 . S
C1392 C1391 1.374 . S
C1393 C1390 1.499 . S
C1393 C1394 1.373 . S
C1393 C1395 1.389 . S
C1394 H1367 0.950 . S
C1394 C1380 1.377 . S
C1394 C1393 1.373 . S
C1395 C1379 1.377 . S
C1395 C1393 1.389 . S
C1395 C1396 1.524 . S
C1396 C1395 1.524 . S
C1396 C1397 1.397 . S
C1396 C1401 1.363 . S
C1397 H1368 0.950 . S
C1397 C1396 1.397 . S
C1397 C1398 1.334 . S
C1398 H1369 0.950 . S
C1398 C1397 1.334 . S
C1398 C1399 1.287 . S
C1399 C1398 1.287 . S
C1399 C1400 1.524 . S
C1399 H1402 0.999 . S
C1400 H1370 0.950 . S
C1400 C1399 1.524 . S
C1400 C1401 1.415 . S
C1401 H1371 0.950 . S
C1401 C1396 1.363 . S
C1401 C1400 1.415 . S
H1402 C1399 0.999 . S
H1403 C1384 0.913 . S
C523 C403 1.110 . S
C538 C58 0.991 . S
C573 C487 1.110 . S
C588 C142 0.988 . S
C623 C67 1.110 . S
C638 C226 0.991 . S
C673 C151 1.110 . S
C688 C310 0.989 . S
C723 C235 1.110 . S
C738 C394 0.989 . S
C773 C319 1.110 . S
C788 C478 0.989 . S
C823 C74 1.621 . S
C838 C326 1.621 . S
C873 C410 1.621 . S
C888 C158 1.621 . S
C923 C494 1.621 . S
C938 C242 1.621 . S
C973 C231 1.675 . S
C988 C483 1.675 . S
C1023 C63 1.676 . S
C1038 C315 1.676 . S
C1073 C399 1.676 . S
C1088 C147 1.676 . S
C1123 C476 1.195 . S
C1138 C70 1.182 . S
C1173 C154 1.182 . S
C1188 C56 1.195 . S
C1223 C238 1.184 . S
C1238 C140 1.197 . S
C1273 C224 1.196 . S
C1288 C322 1.183 . S
C1323 C406 1.182 . S
C1338 C308 1.195 . S
C1373 C490 1.182 . S
C1388 C392 1.196 . S
