# Generated by pormake.
# Topology qtz-e, (6)-cn, num edge types: 1
# Building blocks:
#     Node 0, Type 0, BuildingBlock: BETDIP_clean_sbu_0, # of connection points: 6
#     Node 1, Type 0, BuildingBlock: BETDIP_clean_sbu_0, # of connection points: 6
#     Node 2, Type 0, BuildingBlock: BETDIP_clean_sbu_0, # of connection points: 6
#     Node 3, Type 0, BuildingBlock: BETDIP_clean_sbu_0, # of connection points: 6
#     Node 4, Type 0, BuildingBlock: BETDIP_clean_sbu_0, # of connection points: 6
#     Node 5, Type 0, BuildingBlock: BETDIP_clean_sbu_0, # of connection points: 6
#     Edge 6, Type (0, 0), BuildingBlock: ZUJKAS_clean_linker_0, # of connection points: 2
#     Edge 7, Type (0, 0), BuildingBlock: ZUJKAS_clean_linker_0, # of connection points: 2
#     Edge 8, Type (0, 0), BuildingBlock: ZUJKAS_clean_linker_0, # of connection points: 2
#     Edge 9, Type (0, 0), BuildingBlock: ZUJKAS_clean_linker_0, # of connection points: 2
#     Edge 10, Type (0, 0), BuildingBlock: ZUJKAS_clean_linker_0, # of connection points: 2
#     Edge 11, Type (0, 0), BuildingBlock: ZUJKAS_clean_linker_0, # of connection points: 2
#     Edge 12, Type (0, 0), BuildingBlock: ZUJKAS_clean_linker_0, # of connection points: 2
#     Edge 13, Type (0, 0), BuildingBlock: ZUJKAS_clean_linker_0, # of connection points: 2
#     Edge 14, Type (0, 0), BuildingBlock: ZUJKAS_clean_linker_0, # of connection points: 2
#     Edge 15, Type (0, 0), BuildingBlock: ZUJKAS_clean_linker_0, # of connection points: 2
#     Edge 16, Type (0, 0), BuildingBlock: ZUJKAS_clean_linker_0, # of connection points: 2
#     Edge 17, Type (0, 0), BuildingBlock: ZUJKAS_clean_linker_0, # of connection points: 2
#     Edge 18, Type (0, 0), BuildingBlock: ZUJKAS_clean_linker_0, # of connection points: 2
#     Edge 19, Type (0, 0), BuildingBlock: ZUJKAS_clean_linker_0, # of connection points: 2
#     Edge 20, Type (0, 0), BuildingBlock: ZUJKAS_clean_linker_0, # of connection points: 2
#     Edge 21, Type (0, 0), BuildingBlock: ZUJKAS_clean_linker_0, # of connection points: 2
#     Edge 22, Type (0, 0), BuildingBlock: ZUJKAS_clean_linker_0, # of connection points: 2
#     Edge 23, Type (0, 0), BuildingBlock: ZUJKAS_clean_linker_0, # of connection points: 2
# Relax obj value: 0.132
# Max RMSD: 0.191
# Mean RMSD: 0.191
data_MOF--net-qtz-e--node1-BETDIP_clean_sbu_0--edge1-ZUJKAS_clean_linker_0
_symmetry_space_group_name_H-M    P1
_symmetry_Int_Tables_number       1
_symmetry_cell_setting            triclinic
loop_
_symmetry_equiv_pos_as_xyz
'x, y, z'
_cell_length_a     32.040145
_cell_length_b     32.034134
_cell_length_c     62.816238
_cell_angle_alpha  89.643934
_cell_angle_beta   90.430711
_cell_angle_gamma 120.18151
loop_
_atom_site_label
_atom_site_type_symbol
_atom_site_fract_x
_atom_site_fract_y
_atom_site_fract_z
_atom_type_partial_charge
Tb0 Tb 0.21333 0.4669 0.05964 0.0
Tb1 Tb 0.16088 0.36675 0.04006 0.0
C2 C 0.22867 0.54327 0.07762 0.0
C3 C 0.22596 0.55733 0.09961 0.0
C4 C 0.20473 0.58562 0.10338 0.0
C5 C 0.1999 0.59792 0.12415 0.0
C6 C 0.21645 0.58229 0.14154 0.0
C7 C 0.23764 0.55381 0.13772 0.0
C8 C 0.24208 0.54115 0.11694 0.0
C9 C 0.25804 0.41836 0.06434 0.0
C10 C 0.13207 0.37568 0.08629 0.0
C11 C 0.13899 0.29055 0.02001 0.0
C12 C 0.15618 0.27998 1.0001 0.0
C13 C 0.20535 0.30486 0.99471 0.0
C14 C 0.22057 0.2968 0.97512 0.0
C15 C 0.18697 0.26352 0.96051 0.0
C16 C 0.13784 0.23806 0.96614 0.0
C17 C 0.12265 0.24631 0.98571 0.0
C18 C 0.12088 0.42064 0.03524 0.0
C19 C 0.24443 0.45664 1.01431 0.0
O20 O 0.18725 0.51207 0.06915 0.0
O21 O 0.2628 0.53346 0.07336 0.0
O22 O 0.21291 0.40051 0.06492 0.0
O23 O 0.27936 0.46505 0.06399 0.0
O24 O 0.15935 0.42315 0.08384 0.0
O25 O 0.13035 0.34496 0.07179 0.0
O26 O 0.16917 0.3063 0.03613 0.0
O27 O 0.11618 0.31457 1.01769 0.0
O28 O 0.1646 0.43349 0.03429 0.0
O29 O 0.09614 0.37451 0.0388 0.0
O30 O 0.22138 0.40941 1.01808 0.0
O31 O 0.24022 0.48669 0.02733 0.0
H32 H 0.19161 0.598 0.09022 0.0
H33 H 0.18376 0.62019 0.12658 0.0
H34 H 0.25014 0.54075 0.15084 0.0
H35 H 0.25778 0.5185 0.11445 0.0
H36 H 0.23204 0.33107 1.00548 0.0
H37 H 0.25873 0.31659 0.97145 0.0
H38 H 0.11093 0.21257 0.9552 0.0
H39 H 0.08451 0.22692 0.98948 0.0
Tb40 Tb 0.73243 0.21796 0.39057 0.0
Tb41 Tb 0.80644 0.19183 0.37787 0.0
C42 C 0.65816 0.21372 0.40602 0.0
C43 C 0.63938 0.20758 0.42808 0.0
C44 C 0.62278 0.16395 0.43934 0.0
C45 C 0.6081 0.15989 0.46058 0.0
C46 C 0.60953 0.19929 0.47109 0.0
C47 C 0.6251 0.2425 0.45964 0.0
C48 C 0.6397 0.24652 0.43841 0.0
C49 C 0.82153 0.28422 0.39926 0.0
C50 C 0.76405 0.15863 0.42276 0.0
C51 C 0.87847 0.19362 0.36136 0.0
C52 C 0.8995 0.20683 0.33963 0.0
C53 C 0.93112 0.2553 0.33398 0.0
C54 C 0.9485 0.26771 0.31315 0.0
C55 C 0.93488 0.232 0.29741 0.0
C56 C 0.90399 0.18345 0.3032 0.0
C57 C 0.88671 0.17103 0.32403 0.0
C58 C 0.71568 0.12812 0.36944 0.0
C59 C 0.77866 0.25398 0.34622 0.0
O60 O 0.65843 0.17672 0.39742 0.0
O61 O 0.69799 0.25431 0.40207 0.0
O62 O 0.8043 0.23935 0.40101 0.0
O63 O 0.78765 0.29296 0.39378 0.0
O64 O 0.73165 0.17083 0.4168 0.0
O65 O 0.80201 0.16931 0.41081 0.0
O66 O 0.88145 0.22865 0.37316 0.0
O67 O 0.83609 0.15443 0.36284 0.0
O68 O 0.73631 0.17289 0.36743 0.0
O69 O 0.74658 0.11631 0.37634 0.0
O70 O 0.81101 0.2425 0.35286 0.0
O71 O 0.73899 0.24126 0.35737 0.0
H72 H 0.62179 0.13307 0.43189 0.0
H73 H 0.59666 0.12618 0.46892 0.0
H74 H 0.62585 0.27329 0.46706 0.0
H75 H 0.65187 0.28043 0.43011 0.0
H76 H 0.94212 0.28386 0.34559 0.0
H77 H 0.97291 0.30538 0.30944 0.0
H78 H 0.89228 0.15494 0.29152 0.0
H79 H 0.86262 0.13332 0.32781 0.0
Tb80 Tb 0.5251 0.75895 0.72457 0.0
Tb81 Tb 0.62854 0.821 0.71144 0.0
C82 C 0.44874 0.69136 0.74015 0.0
C83 C 0.43695 0.6722 0.76201 0.0
C84 C 0.39822 0.62559 0.76578 0.0
C85 C 0.38763 0.60709 0.78654 0.0
C86 C 0.41577 0.63489 0.80391 0.0
C87 C 0.45494 0.68146 0.79995 0.0
C88 C 0.46533 0.69994 0.77924 0.0
C89 C 0.56405 0.85124 0.73322 0.0
C90 C 0.61195 0.77212 0.75572 0.0
C91 C 0.70358 0.88892 0.69517 0.0
C92 C 0.71212 0.91455 0.67442 0.0
C93 C 0.69073 0.9426 0.6696 0.0
C94 C 0.69599 0.96342 0.64941 0.0
C95 C 0.72277 0.95681 0.63348 0.0
C96 C 0.7451 0.92968 0.6385 0.0
C97 C 0.73989 0.90893 0.65872 0.0
C98 C 0.58791 0.72887 0.70245 0.0
C99 C 0.54057 0.80647 0.6805 0.0
O100 O 0.48102 0.68472 0.73054 0.0
O101 O 0.45658 0.73528 0.73745 0.0
O102 O 0.58429 0.82651 0.7351 0.0
O103 O 0.51937 0.82326 0.72782 0.0
O104 O 0.56609 0.74666 0.74968 0.0
O105 O 0.64424 0.80875 0.74408 0.0
O106 O 0.67715 0.8955 0.7091 0.0
O107 O 0.69238 0.84364 0.69418 0.0
O108 O 0.56947 0.75508 0.70108 0.0
O109 O 0.6326 0.75459 0.70854 0.0
O110 O 0.58623 0.83399 0.68675 0.0
O111 O 0.50996 0.7684 0.69179 0.0
H112 H 0.3761 0.60356 0.75267 0.0
H113 H 0.3569 0.57131 0.78901 0.0
H114 H 0.47791 0.70355 0.81284 0.0
H115 H 0.49569 0.73593 0.77667 0.0
H116 H 0.66908 0.94783 0.68128 0.0
H117 H 0.67893 0.98469 0.6463 0.0
H118 H 0.76561 0.92336 0.62662 0.0
H119 H 0.7568 0.88753 0.66193 0.0
Tb120 Tb 0.79823 0.52738 0.05533 0.0
Tb121 Tb 0.76032 0.59581 0.0504 0.0
C122 C 0.84791 0.49123 0.06772 0.0
C123 C 0.85279 0.47465 0.08934 0.0
C124 C 0.88419 0.50746 0.10471 0.0
C125 C 0.8834 0.49271 0.12586 0.0
C126 C 0.85172 0.44462 0.1321 0.0
C127 C 0.82219 0.41138 0.11645 0.0
C128 C 0.82281 0.42616 0.09539 0.0
C129 C 0.70525 0.48747 0.06119 0.0
C130 C 0.79848 0.59185 0.09506 0.0
C131 C 0.7142 0.63504 0.03664 0.0
C132 C 0.70511 0.64444 1.01443 0.0
C133 C 0.66977 0.65679 1.0098 0.0
C134 C 0.66172 0.66608 0.98873 0.0
C135 C 0.6886 0.66279 0.9718 0.0
C136 C 0.7237 0.64996 0.97656 0.0
C137 C 0.73204 0.64122 0.9976 0.0
C138 C 0.85301 0.63188 0.04337 0.0
C139 C 0.75816 0.52974 1.01115 0.0
O140 O 0.86583 0.53779 0.06503 0.0
O141 O 0.80546 0.46615 0.05866 0.0
O142 O 0.73646 0.52936 0.06709 0.0
O143 O 0.72608 0.46522 0.0536 0.0
O144 O 0.81647 0.56758 0.08549 0.0
O145 O 0.76785 0.60179 0.08504 0.0
O146 O 0.69346 0.58961 0.04238 0.0
O147 O 0.75925 0.6592 0.04291 0.0
O148 O 0.81914 0.59152 0.03795 0.0
O149 O 0.8359 0.65523 0.05329 0.0
O150 O 0.73838 0.55192 0.02107 0.0
O151 O 0.79127 0.52301 0.02077 0.0
H152 H 0.90844 0.54491 0.10056 0.0
H153 H 0.90731 0.51913 0.13736 0.0
H154 H 0.79709 0.37415 0.12061 0.0
H155 H 0.79845 0.39976 0.08398 0.0
H156 H 0.64849 0.65942 0.02249 0.0
H157 H 0.63408 0.67539 0.98566 0.0
H158 H 0.74553 0.64765 0.96406 0.0
H159 H 0.75994 0.63231 1.00073 0.0
Tb160 Tb 0.24072 0.80005 0.39344 0.0
Tb161 Tb 0.14104 0.77988 0.38479 0.0
C162 C 0.32656 0.8372 0.40654 0.0
C163 C 0.34597 0.84203 0.4283 0.0
C164 C 0.39573 0.86287 0.43184 0.0
C165 C 0.41368 0.86544 0.45253 0.0
C166 C 0.3821 0.84733 0.47005 0.0
C167 C 0.33227 0.82741 0.46633 0.0
C168 C 0.31443 0.82451 0.44569 0.0
C169 C 0.17391 0.71248 0.4046 0.0
C170 C 0.18352 0.82433 0.42845 0.0
C171 C 0.05522 0.74532 0.37163 0.0
C172 C 0.03223 0.73303 0.3503 0.0
C173 C 0.98178 0.7088 0.34834 0.0
C174 C 0.95969 0.69739 0.32818 0.0
C175 C -0.01237 0.70974 0.30951 0.0
C176 C 0.0383 0.734 0.31161 0.0
C177 C 0.06032 0.74572 0.33177 0.0
C178 C 0.21131 0.86672 0.37386 0.0
C179 C 0.19802 0.75334 0.35035 0.0
O180 O 0.30522 0.86203 0.40245 0.0
O181 O 0.30144 0.79299 0.39948 0.0
O182 O 0.17097 0.75001 0.40663 0.0
O183 O 0.21607 0.72421 0.39751 0.0
O184 O 0.22521 0.83497 0.41975 0.0
O185 O 0.14218 0.79514 0.41868 0.0
O186 O 0.07309 0.7189 0.37856 0.0
O187 O 0.08459 0.79122 0.3752 0.0
O188 O 0.20977 0.82732 0.37153 0.0
O189 O 0.1722 0.85905 0.38314 0.0
O190 O 0.15607 0.74351 0.35865 0.0
O191 O 0.23915 0.78351 0.35995 0.0
H192 H 0.42061 0.87649 0.4186 0.0
H193 H 0.45217 0.88056 0.45471 0.0
H194 H 0.30687 0.81394 0.47937 0.0
H195 H 0.27584 0.80804 0.44331 0.0
H196 H 0.9594 0.69869 0.36242 0.0
H197 H 0.92065 0.67827 0.32723 0.0
H198 H 0.06106 0.74465 0.29765 0.0
H199 H 0.09935 0.76494 0.33287 0.0
Tb200 Tb 0.45198 0.23633 0.73016 0.0
Tb201 Tb 0.36072 0.14389 0.71873 0.0
C202 C 0.52276 0.31883 0.7366 0.0
C203 C 0.54445 0.34467 0.75668 0.0
C204 C 0.51625 0.33386 0.77512 0.0
C205 C 0.53753 0.35505 0.7946 0.0
C206 C 0.58759 0.38716 0.79615 0.0
C207 C 0.61564 0.39834 0.77757 0.0
C208 C 0.59422 0.37731 0.75802 0.0
C209 C 0.43641 0.1611 0.75351 0.0
C210 C 0.36105 0.19703 0.75961 0.0
C211 C 0.29883 0.06081 0.70595 0.0
C212 C 0.28967 0.03749 0.68491 0.0
C213 C 0.2626 0.98708 0.68312 0.0
C214 C 0.25205 0.96518 0.66302 0.0
C215 C 0.2687 -0.0066 0.64438 0.0
C216 C 0.29632 0.04391 0.64633 0.0
C217 C 0.30647 0.06569 0.66635 0.0
C218 C 0.36436 0.22482 0.70724 0.0
C219 C 0.45004 0.1851 0.68672 0.0
O220 O 0.47923 0.31095 0.73208 0.0
O221 O 0.52694 0.28066 0.73338 0.0
O222 O 0.4277 0.16075 0.73388 0.0
O223 O 0.45697 0.20504 0.76016 0.0
O224 O 0.39695 0.23618 0.75068 0.0
O225 O 0.34548 0.15348 0.75151 0.0
O226 O 0.33895 0.07018 0.7156 0.0
O227 O 0.29127 0.09716 0.70697 0.0
O228 O 0.39765 0.21535 0.70672 0.0
O229 O 0.3256 0.1876 0.71431 0.0
O230 O 0.40464 0.15206 0.69078 0.0
O231 O 0.47566 0.22163 0.69985 0.0
H232 H 0.47787 0.30812 0.77458 0.0
H233 H 0.51494 0.34501 0.80861 0.0
H234 H 0.65421 0.4232 0.77817 0.0
H235 H 0.61669 0.38579 0.74404 0.0
H236 H 0.2492 0.96469 0.69724 0.0
H237 H 0.23104 0.92617 0.66207 0.0
H238 H 0.30913 0.0668 0.63233 0.0
H239 H 0.32679 0.10471 0.66728 0.0
H240 H 0.12115 0.69914 0.32405 0.0
H241 H 0.12216 0.66675 0.28906 0.0
H242 H 0.2762 0.72737 0.29421 0.0
H243 H 0.27582 0.76058 0.32918 0.0
H244 H 0.18247 0.7253 0.25245 0.0
H245 H 0.21737 0.57951 0.27891 0.0
H246 H 0.19203 0.60572 0.29629 0.0
H247 H 0.25529 0.63833 0.2903 0.0
C248 C 0.15532 0.70565 0.3178 0.0
C249 C 0.19848 0.73264 0.3294 0.0
C250 C 0.15575 0.68702 0.29781 0.0
C251 C 0.19916 0.69436 0.2892 0.0
C252 C 0.24226 0.72093 0.30074 0.0
H253 H 0.28495 0.61595 0.17298 0.0
H254 H 0.27883 0.64202 0.2088 0.0
C255 C 0.24197 0.74 0.32067 0.0
C256 C 0.19964 0.67557 0.26782 0.0
H257 H 0.21922 0.59376 0.24185 0.0
C258 C 0.19026 0.69639 0.25007 0.0
C259 C 0.20993 0.63799 0.26489 0.0
C260 C 0.21893 0.61368 0.28357 0.0
C261 C 0.19213 0.68143 0.22932 0.0
C262 C 0.20242 0.64372 0.22633 0.0
C263 C 0.21134 0.62262 0.24416 0.0
C264 C 0.2052 0.62642 0.20482 0.0
C265 C 0.18459 0.70723 0.2108 0.0
C266 C 0.16552 0.60808 0.19083 0.0
C267 C 0.16905 0.59346 0.17033 0.0
C268 C 0.21209 0.5962 0.16354 0.0
C269 C 0.25126 0.61318 0.1778 0.0
C270 C 0.24784 0.6282 0.19824 0.0
H271 H 0.19046 0.74319 0.2155 0.0
H272 H 0.20929 0.71223 0.19748 0.0
H273 H 0.14689 0.6854 0.20495 0.0
H274 H 0.13182 0.6051 0.19577 0.0
H275 H 0.13799 0.5797 0.15981 0.0
H276 H 0.53371 0.25502 0.66796 0.0
H277 H 0.56236 0.25463 0.63193 0.0
H278 H 0.44167 0.1112 0.62201 0.0
H279 H 0.41258 0.11141 0.65777 0.0
H280 H 0.5881 0.19379 0.61139 0.0
H281 H 0.42829 0.18553 0.57221 0.0
H282 H 0.44149 0.19894 0.60014 0.0
H283 H 0.41368 0.13761 0.59093 0.0
C284 C 0.51343 0.22323 0.65819 0.0
C285 C 0.47045 0.1835 0.66573 0.0
C286 C 0.52985 0.2231 0.63756 0.0
C287 C 0.50361 0.18333 0.62405 0.0
C288 C 0.46188 0.14283 0.63189 0.0
H289 H 0.53338 0.12322 0.49143 0.0
H290 H 0.50962 0.11798 0.52876 0.0
C291 C 0.44539 0.14296 0.65244 0.0
C292 C 0.51935 0.18446 0.60169 0.0
H293 H 0.483 0.17746 0.54985 0.0
C294 C 0.5652 0.19039 0.59794 0.0
C295 C 0.48943 0.17992 0.58409 0.0
C296 C 0.44066 0.17558 0.58696 0.0
C297 C 0.58161 0.19117 0.57712 0.0
C298 C 0.55172 0.18678 0.55955 0.0
C299 C 0.50584 0.18068 0.56331 0.0
C300 C 0.56758 0.18932 0.53711 0.0
C301 C 0.63042 0.19574 0.57413 0.0
C302 C 0.6079 0.23127 0.5293 0.0
C303 C 0.62164 0.23435 0.50797 0.0
C304 C 0.59524 0.19559 0.49391 0.0
C305 C 0.5549 0.15354 0.50182 0.0
C306 C 0.5411 0.15057 0.52315 0.0
H307 H 0.64288 0.18564 0.58881 0.0
H308 H 0.62962 0.17265 0.56084 0.0
H309 H 0.65726 0.2338 0.57023 0.0
H310 H 0.62842 0.26199 0.53963 0.0
H311 H 0.65315 0.2671 0.50253 0.0
H312 H 0.28807 0.54922 0.99874 0.0
H313 H 0.32327 0.57733 0.96346 0.0
H314 H 0.29527 0.43439 0.9483 0.0
H315 H 0.25969 0.40589 0.9834 0.0
H316 H 0.40046 0.57539 0.94193 0.0
H317 H 0.2241 0.4635 0.90096 0.0
H318 H 0.2288 0.47418 0.92929 0.0
H319 H 0.24274 0.43099 0.91829 0.0
C320 C 0.28974 0.52379 0.988 0.0
C321 C 0.27048 0.47507 0.99387 0.0
C322 C 0.30992 0.53996 0.96783 0.0
C323 C 0.31108 0.50776 0.95312 0.0
C324 C 0.29387 0.45965 0.95925 0.0
H325 H 0.38621 0.54291 0.81812 0.0
H326 H 0.36427 0.5115 0.85444 0.0
C327 C 0.27368 0.44345 0.97939 0.0
C328 C 0.32869 0.52419 0.93116 0.0
H329 H 0.29203 0.50854 0.87916 0.0
C330 C 0.37682 0.56078 0.92819 0.0
C331 C 0.29781 0.50486 0.91325 0.0
C332 C 0.24537 0.46648 0.91551 0.0
C333 C 0.39493 0.57852 0.90776 0.0
C334 C 0.36375 0.55991 0.8899 0.0
C335 C 0.31587 0.52277 0.89286 0.0
C336 C 0.37941 0.57958 0.86809 0.0
C337 C 0.44746 0.61646 0.90543 0.0
C338 C 0.3948 0.62818 0.86365 0.0
C339 C 0.40705 0.64616 0.8429 0.0
C340 C 0.40389 0.61584 0.82609 0.0
C341 C 0.38855 0.56715 0.83062 0.0
C342 C 0.37629 0.54919 0.85139 0.0
H343 H 0.46921 0.61676 0.91935 0.0
H344 H 0.4629 0.61046 0.89079 0.0
H345 H 0.4508 0.65259 0.90427 0.0
H346 H 0.39627 0.65202 0.87615 0.0
H347 H 0.41783 0.68359 0.83996 0.0
H348 H 0.85267 0.27774 0.3185 0.0
H349 H 0.86505 0.3148 0.28347 0.0
H350 H 0.73559 0.32297 0.29057 0.0
H351 H 0.72226 0.28473 0.3258 0.0
H352 H 0.74016 0.28784 0.25162 0.0
H353 H 0.91376 0.45452 0.26807 0.0
H354 H 0.91548 0.4008 0.2746 0.0
H355 H 0.87591 0.41509 0.289 0.0
C356 C 0.82686 0.2877 0.31281 0.0
C357 C 0.78648 0.27838 0.32515 0.0
C358 C 0.83428 0.30929 0.29273 0.0
C359 C 0.80187 0.3227 0.28448 0.0
C360 C 0.76137 0.31334 0.29666 0.0
H361 H 0.85364 0.49458 0.16794 0.0
H362 H 0.84154 0.46666 0.20498 0.0
C363 C 0.7538 0.29152 0.31682 0.0
C364 C 0.8093 0.34436 0.26275 0.0
H365 H 0.892 0.43601 0.23134 0.0
C366 C 0.7732 0.32047 0.24726 0.0
C367 C 0.8522 0.38727 0.25702 0.0
C368 C 0.89135 0.4162 0.2731 0.0
C369 C 0.7794 0.33736 0.22613 0.0
C370 C 0.82323 0.37894 0.22018 0.0
C371 C 0.85868 0.40378 0.23581 0.0
C372 C 0.83294 0.39682 0.19777 0.0
C373 C 0.73877 0.31063 0.21039 0.0
C374 C 0.8336 0.36747 0.18142 0.0
C375 C 0.84083 0.3834 0.16025 0.0
C376 C 0.84783 0.42924 0.15489 0.0
C377 C 0.84878 0.45925 0.17142 0.0
C378 C 0.84156 0.44323 0.19263 0.0
H379 H 0.70363 0.28827 0.21852 0.0
H380 H 0.73551 0.33609 0.19937 0.0
H381 H 0.74623 0.28616 0.20079 0.0
H382 H 0.82832 0.33203 0.18503 0.0
H383 H 0.84088 0.35969 0.14805 0.0
H384 H 0.59243 0.88194 0.65306 0.0
H385 H 0.56736 0.89604 0.61814 0.0
H386 H 0.42887 0.76671 0.62545 0.0
H387 H 0.45321 0.75287 0.66049 0.0
H388 H 0.54203 0.84014 0.5829 0.0
H389 H 0.38862 0.86233 0.60712 0.0
H390 H 0.43204 0.86375 0.62601 0.0
H391 H 0.38297 0.80693 0.61679 0.0
C392 C 0.55646 0.85675 0.64736 0.0
C393 C 0.52481 0.81637 0.65968 0.0
C394 C 0.5422 0.86486 0.62735 0.0
C395 C 0.49593 0.83291 0.61926 0.0
C396 C 0.46429 0.79259 0.63153 0.0
H397 H 0.34079 0.77767 0.50101 0.0
H398 H 0.37057 0.77839 0.53695 0.0
C399 C 0.47843 0.78455 0.65156 0.0
C400 C 0.48155 0.84026 0.59757 0.0
H401 H 0.39307 0.84784 0.57007 0.0
C402 C 0.50977 0.8424 0.58012 0.0
C403 C 0.43956 0.84345 0.59391 0.0
C404 C 0.40933 0.84451 0.61197 0.0
C405 C 0.49609 0.84562 0.55911 0.0
C406 C 0.45331 0.84726 0.55545 0.0
C407 C 0.4257 0.84628 0.5729 0.0
C408 C 0.43546 0.84795 0.53361 0.0
C409 C 0.5266 0.84552 0.54095 0.0
C410 C 0.46178 0.88715 0.51981 0.0
C411 C 0.44459 0.88712 0.49921 0.0
C412 C 0.40063 0.8479 0.49202 0.0
C413 C 0.37434 0.80887 0.50602 0.0
C414 C 0.39145 0.80905 0.52658 0.0
H415 H 0.55276 0.83436 0.5462 0.0
H416 H 0.50351 0.82086 0.52811 0.0
H417 H 0.54728 0.88246 0.53415 0.0
H418 H 0.49544 0.91795 0.52502 0.0
H419 H 0.46545 0.91813 0.48905 0.0
H420 H 0.68558 0.53089 0.98874 0.0
H421 H 0.66289 0.50938 0.95165 0.0
H422 H 0.77701 0.47626 0.94484 0.0
H423 H 0.79953 0.49697 0.98233 0.0
H424 H 0.71241 0.54773 0.9157 0.0
H425 H 0.66342 0.35534 0.92133 0.0
H426 H 0.67396 0.39227 0.94455 0.0
H427 H 0.72403 0.39709 0.92973 0.0
C428 C 0.70585 0.5188 0.97946 0.0
C429 C 0.74429 0.51539 0.98861 0.0
C430 C 0.6928 0.50657 0.95817 0.0
C431 C 0.71769 0.49048 0.94546 0.0
C432 C 0.75645 0.48746 0.95444 0.0
H433 H 0.67168 0.39699 0.81246 0.0
H434 H 0.70677 0.42581 0.84784 0.0
C435 C 0.76945 0.49951 0.97586 0.0
C436 C 0.70306 0.47763 0.92279 0.0
H437 H 0.66173 0.38509 0.88699 0.0
C438 C 0.70142 0.51217 0.90943 0.0
C439 C 0.68857 0.43119 0.91457 0.0
C440 C 0.68709 0.39165 0.92831 0.0
C441 C 0.68574 0.50159 0.88816 0.0
C442 C 0.67089 0.45506 0.88003 0.0
C443 C 0.6733 0.4208 0.89324 0.0
C444 C 0.65115 0.44051 0.8581 0.0
C445 C 0.68549 0.54044 0.87454 0.0
C446 C 0.60817 0.43913 0.8521 0.0
C447 C 0.58805 0.42273 0.83188 0.0
C448 C 0.61045 0.40727 0.81722 0.0
C449 C 0.65384 0.40925 0.82322 0.0
C450 C 0.6738 0.42543 0.84349 0.0
H451 H 0.70984 0.57705 0.8811 0.0
H452 H 0.69665 0.53906 0.85799 0.0
H453 H 0.64837 0.53478 0.87401 0.0
H454 H 0.5896 0.44982 0.86322 0.0
H455 H 0.55479 0.42196 0.82776 0.0
H456 H 0.25932 0.34606 0.04264 0.0
H457 H 0.32132 0.32315 0.04598 0.0
H458 H 0.38024 0.41595 0.10078 0.0
H459 H 0.31772 0.4376 0.09767 0.0
H460 H 0.40969 0.39635 0.03922 0.0
H461 H 0.41283 0.31361 0.11587 0.0
H462 H 0.35883 0.31137 0.10567 0.0
H463 H 0.40307 0.36321 0.12038 0.0
C464 C 0.28361 0.35896 0.05613 0.0
C465 C 0.28375 0.39303 0.07003 0.0
C466 C 0.31923 0.34617 0.05798 0.0
C467 C 0.3552 0.3675 0.07374 0.0
C468 C 0.35227 0.39801 0.08884 0.0
H469 H 0.65499 0.52606 0.07936 0.0
H470 H 0.56682 0.48698 0.08284 0.0
C471 C 0.31684 0.41079 0.08694 0.0
C472 C 0.40165 0.36886 0.07129 0.0
H473 H 0.49255 0.37027 0.10052 0.0
C474 C 0.42722 0.38903 0.05238 0.0
C475 C 0.42465 0.35968 0.0885 0.0
C476 C 0.39808 0.33529 0.10864 0.0
C477 C 0.47626 0.40396 0.05087 0.0
C478 C 0.50005 0.39844 0.06869 0.0
C479 C 0.47399 0.37509 0.08705 0.0
C480 C 0.55266 0.41963 0.0687 0.0
C481 C 0.50326 0.42836 0.03077 0.0
C482 C 0.5731 0.39428 0.0597 0.0
C483 C 0.623 0.41649 0.05757 0.0
C484 C 0.653 0.4643 0.06443 0.0
C485 C 0.6325 0.48926 0.07391 0.0
C486 C 0.58244 0.46696 0.07602 0.0
H487 H 0.47906 0.42873 1.01809 0.0
H488 H 0.53141 0.46619 0.03432 0.0
H489 H 0.52183 0.40955 0.02464 0.0
H490 H 0.55037 0.35786 0.05384 0.0
H491 H 0.63803 0.39648 0.05022 0.0
H492 H 0.20991 0.66644 0.42796 0.0
H493 H 0.16434 0.58772 0.4454 0.0
H494 H 0.0311 0.58123 0.42702 0.0
H495 H 0.07681 0.66131 0.41055 0.0
H496 H 0.02547 0.53633 0.46643 0.0
H497 H 0.10752 0.47642 0.40405 0.0
H498 H 0.14667 0.52088 0.42301 0.0
H499 H 0.11538 0.53618 0.4034 0.0
C500 C 0.17084 0.64844 0.42799 0.0
C501 C 0.14646 0.66888 0.41747 0.0
C502 C 0.14499 0.60366 0.43799 0.0
C503 C 0.09451 0.57821 0.43698 0.0
C504 C 0.07018 0.60036 0.4279 0.0
H505 H 0.85042 0.37831 0.40406 0.0
H506 H 0.92094 0.43911 0.42298 0.0
C507 C 0.0961 0.64577 0.41835 0.0
C508 C 0.06672 0.52627 0.44213 0.0
H509 H 0.03417 0.41895 0.4182 0.0
C510 C 0.02828 0.51032 0.45646 0.0
C511 C 0.0712 0.49218 0.42952 0.0
C512 C 0.11224 0.50698 0.41407 0.0
C513 C -0.00936 0.46227 0.45628 0.0
C514 C -0.00844 0.4302 0.44122 0.0
C515 C 0.03352 0.44411 0.42949 0.0
C516 C 0.94627 0.39048 0.43251 0.0
C517 C 0.94773 0.44749 0.4705 0.0
C518 C 0.93811 0.34327 0.43091 0.0
C519 C 0.89752 0.30815 0.41989 0.0
C520 C 0.86553 0.32042 0.4101 0.0
C521 C 0.87434 0.3678 0.41155 0.0
C522 C 0.91423 0.40241 0.42266 0.0
H523 H 0.95925 0.4667 0.48598 0.0
H524 H 0.92275 0.45758 0.46278 0.0
H525 H 0.92787 0.40792 0.47345 0.0
H526 H 0.96328 0.33388 0.43794 0.0
H527 H 0.89128 0.27169 0.41894 0.0
H528 H 0.41436 0.07231 0.7389 0.0
H529 H 0.44373 0.02096 0.75361 0.0
H530 H 0.5066 0.11755 0.80692 0.0
H531 H 0.47641 0.16856 0.79253 0.0
H532 H 0.57276 0.1068 0.78029 0.0
H533 H 0.42109 0.92982 0.80526 0.0
H534 H 0.40802 0.95088 0.78095 0.0
H535 H 0.41751 0.98445 0.80513 0.0
C536 C 0.43283 0.08158 0.75413 0.0
C537 C 0.44373 0.12458 0.76443 0.0
C538 C 0.44939 0.05216 0.7626 0.0
C539 C 0.47709 0.0655 0.7814 0.0
C540 C 0.48494 0.10657 0.79251 0.0
H541 H 0.57961 0.86296 0.77571 0.0
H542 H 0.57572 0.925 0.79702 0.0
C543 C 0.46784 0.13567 0.78419 0.0
C544 C 0.50513 0.04185 0.78668 0.0
H545 H 0.48975 0.92897 0.78886 0.0
C546 C 0.55509 0.06815 0.78304 0.0
C547 C 0.48223 0.99181 0.79069 0.0
C548 C 0.42929 0.96267 0.79596 0.0
C549 C 0.58129 0.04441 0.78025 0.0
C550 C 0.5567 -0.00645 0.78117 0.0
C551 C 0.50847 0.96808 0.78794 0.0
C552 C 0.57478 0.96594 0.76969 0.0
C553 C 0.63383 0.07335 0.77427 0.0
C554 C 0.57714 0.96958 0.74739 0.0
C555 C 0.57823 0.93389 0.73531 0.0
C556 C 0.57809 0.89486 0.74543 0.0
C557 C 0.58059 0.89353 0.76772 0.0
C558 C 0.57835 0.92875 0.77986 0.0
H559 H 0.65117 0.11001 0.78139 0.0
H560 H 0.65373 0.05496 0.77951 0.0
H561 H 0.63681 0.07763 0.7567 0.0
H562 H 0.57329 -0.0026 0.73925 0.0
H563 H 0.57559 0.93489 0.71812 0.0
H564 H 0.50095 0.67712 0.6836 0.0
H565 H 0.44823 0.58964 0.68387 0.0
H566 H 0.55804 0.57422 0.71721 0.0
H567 H 0.61074 0.66246 0.71751 0.0
H568 H 0.46066 0.5198 0.66695 0.0
H569 H 0.43914 0.49669 0.75436 0.0
H570 H 0.46411 0.55491 0.7415 0.0
H571 H 0.50135 0.52856 0.74651 0.0
C572 C 0.51388 0.65503 0.69096 0.0
C573 C 0.55956 0.67621 0.70073 0.0
C574 C 0.48372 0.60519 0.69113 0.0
C575 C 0.49885 0.57573 0.701 0.0
C576 C 0.54532 0.59664 0.71002 0.0
H577 H 0.43696 0.29538 0.68511 0.0
H578 H 0.45776 0.37937 0.68216 0.0
C579 C 0.57557 0.64677 0.70994 0.0
C580 C 0.46643 0.52297 0.7012 0.0
H581 H 0.41684 0.42488 0.73405 0.0
C582 C 0.45042 0.49907 0.68164 0.0
C583 C 0.45183 0.49625 0.72039 0.0
C584 C 0.46453 0.52045 0.74188 0.0
C585 C 0.42306 0.44867 0.6807 0.0
C586 C 0.41249 0.42177 0.69979 0.0
C587 C 0.42541 0.44573 0.71943 0.0
C588 C 0.39541 0.36969 0.69957 0.0
C589 C 0.40709 0.42463 0.65926 0.0
C590 C 0.35351 0.33648 0.71049 0.0
C591 C 0.34152 0.28814 0.71224 0.0
C592 C 0.37192 0.27318 0.70339 0.0
C593 C 0.41295 0.30621 0.69201 0.0
C594 C 0.42466 0.35406 0.69017 0.0
H595 H 0.40213 0.4482 0.6477 0.0
H596 H 0.43534 0.41784 0.65287 0.0
H597 H 0.37278 0.38959 0.66042 0.0
H598 H 0.33092 0.34824 0.71806 0.0
H599 H 0.30992 0.26312 0.72122 0.0
H600 H 0.17115 0.51492 0.02469 0.0
H601 H 0.14947 0.5762 0.03123 0.0
H602 H 0.00783 0.4654 0.05165 0.0
H603 H 0.03175 0.40429 0.0473 0.0
H604 H 0.09418 0.59772 1.01565 0.0
H605 H 0.03422 0.55491 0.09857 0.0
H606 H 0.06387 0.527 0.08547 0.0
H607 H -0.00082 0.50128 0.08331 0.0
C608 C 0.13549 0.50366 0.0308 0.0
C609 C 0.10353 0.45517 0.0361 0.0
C610 C 0.12311 0.5388 0.03453 0.0
C611 C 0.07759 0.52591 0.04271 0.0
C612 C 0.04411 0.47673 0.04642 0.0
H613 H 0.89235 0.60966 1.0115 0.0
H614 H 0.96527 0.60498 1.01314 0.0
C615 C 0.05728 0.44163 0.04348 0.0
C616 C 0.06415 0.5635 0.0459 0.0
H617 H -0.00374 0.59211 0.07745 0.0
C618 C 0.07402 0.59727 0.02952 0.0
C619 C 0.03988 0.56518 0.06435 0.0
C620 C 0.03437 0.5355 0.08399 0.0
C621 C 0.05571 0.62871 0.03007 0.0
C622 C 0.02446 0.62432 0.04676 0.0
C623 C 0.01925 0.59474 0.06431 0.0
C624 C -0.01151 0.6399 0.04392 0.0
C625 C 0.0679 0.66444 1.01211 0.0
C626 C 0.97727 0.66185 0.06052 0.0
C627 C 0.93477 0.66416 0.05961 0.0
C628 C 0.90331 0.64401 0.04221 0.0
C629 C 0.91652 0.62576 0.02498 0.0
C630 C 0.95858 0.62354 0.02584 0.0
H631 H 0.10636 0.68015 1.00752 0.0
H632 H 0.04571 0.64551 0.99792 0.0
H633 H 0.06139 0.69423 1.01647 0.0
H634 H -0.00044 0.67413 0.07473 0.0
H635 H 0.92456 0.67765 0.0732 0.0
H636 H 0.26748 0.9026 0.33954 0.0
H637 H 0.35477 0.95691 0.34057 0.0
H638 H 0.3465 0.98258 0.40736 0.0
H639 H 0.25838 0.93069 0.4059 0.0
H640 H 0.42278 0.05868 0.38912 0.0
H641 H 0.41936 0.89019 0.3678 0.0
H642 H 0.3993 0.91072 0.34549 0.0
H643 H 0.36458 0.8925 0.36957 0.0
C644 C 0.28411 0.92202 0.35411 0.0
C645 C 0.25682 0.91244 0.37268 0.0
C646 C 0.33395 0.95238 0.35478 0.0
C647 C 0.35713 0.97164 0.37428 0.0
C648 C 0.32926 0.96724 0.39224 0.0
H649 H 0.66008 0.04732 0.39354 0.0
H650 H 0.57182 0.00739 0.39795 0.0
C651 C 0.27896 0.93796 0.39137 0.0
C652 C 0.40968 0.99083 0.37636 0.0
H653 H 0.49759 0.96327 0.36601 0.0
C654 C 0.43908 0.03769 0.38425 0.0
C655 C 0.43087 0.96281 0.37059 0.0
C656 C 0.40166 0.91113 0.36313 0.0
C657 C 0.48939 0.0583 0.38531 0.0
C658 C 0.51049 0.03142 0.37808 0.0
C659 C 0.48109 0.98376 0.37137 0.0
C660 C 0.56301 0.05367 0.37531 0.0
C661 C 0.51971 0.10886 0.39385 0.0
C662 C 0.58628 0.09103 0.36045 0.0
C663 C 0.63591 0.11312 0.35776 0.0
C664 C 0.66304 0.0981 0.36982 0.0
C665 C 0.63961 0.05906 0.38395 0.0
C666 C 0.58958 0.0368 0.38666 0.0
H667 H 0.49831 0.11906 0.4042 0.0
H668 H 0.55103 0.11246 0.40309 0.0
H669 H 0.53375 0.13475 0.38035 0.0
H670 H 0.56608 0.10354 0.35114 0.0
H671 H 0.65339 0.14316 0.34673 0.0
H672 H 0.38458 0.28054 0.78075 0.0
H673 H 0.35219 0.28935 0.81441 0.0
H674 H 0.25604 0.13529 0.81725 0.0
H675 H 0.28878 0.12592 0.78368 0.0
H676 H 0.25834 0.26377 0.82554 0.0
H677 H 0.32473 0.16455 0.87497 0.0
H678 H 0.34578 0.18468 0.84824 0.0
H679 H 0.2882 0.13131 0.85257 0.0
C680 C 0.35653 0.24841 0.78849 0.0
C681 C 0.33953 0.20242 0.77953 0.0
C682 C 0.33801 0.25359 0.80775 0.0
C683 C 0.30225 0.21295 0.81854 0.0
C684 C 0.28435 0.16708 0.80943 0.0
H685 H 0.15629 0.17803 0.93951 0.0
H686 H 0.18229 0.16579 0.9047 0.0
C687 C 0.3029 0.16183 0.79015 0.0
C688 C 0.28375 0.21883 0.83929 0.0
H689 H 0.27471 0.18872 0.89203 0.0
C690 C 0.26197 0.24742 0.84008 0.0
C691 C 0.28851 0.19749 0.85827 0.0
C692 C 0.31344 0.16813 0.85861 0.0
C693 C 0.24434 0.25481 0.85928 0.0
C694 C 0.24937 0.2337 0.87827 0.0
C695 C 0.27083 0.20483 0.87745 0.0
C696 C 0.23307 0.24151 0.89921 0.0
C697 C 0.21977 0.2845 0.85898 0.0
C698 C 0.25331 0.28811 0.90781 0.0
C699 C 0.23837 0.29526 0.92766 0.0
C700 C 0.20302 0.25588 0.93941 0.0
C701 C 0.18308 0.20921 0.93079 0.0
C702 C 0.19811 0.2021 0.91095 0.0
H703 H 0.20729 0.28698 0.84272 0.0
H704 H 0.18829 0.26898 0.86985 0.0
H705 H 0.24572 0.32169 0.8644 0.0
H706 H 0.28096 0.31898 0.89924 0.0
H707 H 0.25419 0.33173 0.93371 0.0
H708 H 0.96226 0.18367 0.26994 0.0
H709 H -0.00852 0.20578 0.23342 0.0
H710 H 0.9782 0.33278 0.23773 0.0
H711 H 0.94757 0.31039 0.27406 0.0
H712 H 0.94293 0.22704 0.19674 0.0
H713 H 0.123 0.37988 0.22009 0.0
H714 H 0.08561 0.33165 0.23827 0.0
H715 H 0.07109 0.37765 0.2321 0.0
C716 C 0.96493 0.21602 0.26309 0.0
C717 C 0.95268 0.24532 0.27509 0.0
C718 C 0.98188 0.22868 0.24222 0.0
C719 C 0.98738 0.27109 0.23295 0.0
C720 C 0.97478 0.3002 0.24471 0.0
H721 H 0.11392 0.4264 0.11592 0.0
H722 H 0.07567 0.39875 0.15055 0.0
C723 C 0.95755 0.28744 0.26553 0.0
C724 C 0.0068 0.28518 0.21106 0.0
H725 H 0.10539 0.36826 0.1834 0.0
C726 C 0.97848 0.25783 0.19376 0.0
C727 C 0.05307 0.32543 0.20727 0.0
C728 C 0.0853 0.35534 0.22536 0.0
C729 C -0.00515 0.2703 0.17267 0.0
C730 C 0.04142 0.31042 0.16885 0.0
C731 C 0.06973 0.33754 0.18626 0.0
C732 C 0.06155 0.3256 0.14701 0.0
C733 C 0.9615 0.24119 0.15472 0.0
C734 C 0.06624 0.29368 0.13328 0.0
C735 C 0.08772 0.30931 0.11323 0.0
C736 C 0.10574 0.35742 0.10669 0.0
C737 C 0.10061 0.38911 0.12042 0.0
C738 C 0.07874 0.37336 0.14029 0.0
H739 H 0.92315 0.22174 0.15982 0.0
H740 H 0.96519 0.26455 0.14089 0.0
H741 H 0.97072 0.21381 0.14946 0.0
H742 H 0.05443 0.257 0.13825 0.0
H743 H 0.09152 0.28411 0.10317 0.0
H744 H 0.80164 -0.00232 0.607 0.0
H745 H 0.8074 0.03055 0.57116 0.0
H746 H 0.65902 -0.00423 0.57455 0.0
H747 H 0.65265 0.96226 0.61024 0.0
H748 H 0.75094 0.98335 0.5343 0.0
H749 H 0.7319 0.13992 0.55768 0.0
H750 H 0.74626 0.10634 0.57664 0.0
H751 H 0.68532 0.08231 0.56728 0.0
C752 C 0.77007 -0.0033 0.60011 0.0
C753 C 0.72671 0.97742 0.61166 0.0
C754 C 0.77353 0.01574 0.57964 0.0
C755 C 0.73388 0.0163 0.57028 0.0
C756 C 0.69043 -0.00328 0.58162 0.0
H757 H 0.68721 0.12359 0.44998 0.0
H758 H 0.67957 0.08753 0.48514 0.0
C759 C 0.68689 0.9776 0.60207 0.0
C760 C 0.73777 0.03657 0.54851 0.0
H761 H 0.73226 0.12583 0.52078 0.0
C762 C 0.74704 0.01462 0.53133 0.0
C763 C 0.73239 0.07719 0.54463 0.0
C764 C 0.72381 0.10318 0.56252 0.0
C765 C 0.75032 0.03166 0.51035 0.0
C766 C 0.74543 0.07262 0.50648 0.0
C767 C 0.73605 0.09449 0.52369 0.0
C768 C 0.74991 0.09347 0.48474 0.0
C769 C 0.7577 0.00475 0.49251 0.0
C770 C 0.79212 0.10927 0.47274 0.0
C771 C 0.79648 0.1297 0.4525 0.0
C772 C 0.75895 0.13542 0.44392 0.0
C773 C 0.71685 0.11983 0.45603 0.0
C774 C 0.71242 0.09917 0.4762 0.0
H775 H 0.7463 0.96699 0.49716 0.0
H776 H 0.73726 0.00396 0.47802 0.0
H777 H 0.79664 0.02313 0.48848 0.0
H778 H 0.8221 0.1065 0.47915 0.0
H779 H 0.82961 0.14171 0.44375 0.0
H780 H 0.69429 0.82597 0.77996 0.0
H781 H 0.71022 0.80822 0.81625 0.0
H782 H 0.57449 0.67403 0.81562 0.0
H783 H 0.55815 0.69162 0.7798 0.0
H784 H 0.58445 0.72256 0.85144 0.0
H785 H 0.75142 0.7151 0.83803 0.0
H786 H 0.75551 0.77058 0.82942 0.0
H787 H 0.71387 0.71492 0.81643 0.0
C788 C 0.66821 0.79238 0.78745 0.0
C789 C 0.62494 0.76035 0.77688 0.0
C790 C 0.67742 0.78215 0.80821 0.0
C791 C 0.64379 0.73946 0.81872 0.0
C792 C 0.60107 0.70718 0.80797 0.0
H793 H 0.68587 0.61453 0.93524 0.0
H794 H 0.67467 0.63326 0.89852 0.0
C795 C 0.59181 0.71739 0.78738 0.0
C796 C 0.65143 0.729 0.8412 0.0
H797 H 0.72772 0.71239 0.87398 0.0
C798 C 0.61584 0.72037 0.85634 0.0
C799 C 0.69195 0.72534 0.84764 0.0
C800 C 0.73018 0.73149 0.83202 0.0
C801 C 0.61968 0.70857 0.87761 0.0
C802 C 0.66089 0.70631 0.88422 0.0
C803 C 0.69633 0.71451 0.86905 0.0
C804 C 0.66762 0.69497 0.9067 0.0
C805 C 0.57875 0.69729 0.89263 0.0
C806 C 0.66792 0.72356 0.92366 0.0
C807 C 0.67408 0.71277 0.94471 0.0
C808 C 0.68082 0.6735 0.94935 0.0
C809 C 0.68113 0.64525 0.93231 0.0
C810 C 0.67463 0.65589 0.91126 0.0
H811 H 0.54486 0.6877 0.88387 0.0
H812 H 0.57188 0.66703 0.90349 0.0
H813 H 0.58827 0.72961 0.90243 0.0
H814 H 0.66398 0.75471 0.92061 0.0
H815 H 0.67461 0.73591 0.95734 0.0
H816 H 0.90963 0.71629 0.29535 0.0
H817 H 0.87104 0.69547 0.26015 0.0
H818 H 0.97419 0.65553 0.23953 0.0
H819 H 0.01241 0.6754 0.27473 0.0
H820 H 0.91075 0.7332 0.21979 0.0
H821 H 0.84338 0.53692 0.22419 0.0
H822 H 0.86592 0.57554 0.24722 0.0
H823 H 0.90724 0.57267 0.22885 0.0
C824 C 0.92383 0.70259 0.28341 0.0
C825 C 0.9641 0.69735 0.28799 0.0
C826 C 0.90188 0.69099 0.26322 0.0
C827 C 0.91924 0.67331 0.24721 0.0
C828 C 0.9596 0.66838 0.25168 0.0
H829 H 0.87038 0.58848 0.1168 0.0
H830 H 0.89464 0.60842 0.1537 0.0
C831 C 0.98175 0.68024 0.27179 0.0
C832 C 0.89584 0.66076 0.22574 0.0
H833 H 0.84266 0.56871 0.18972 0.0
C834 C 0.89533 0.69712 0.21328 0.0
C835 C 0.87545 0.61361 0.21726 0.0
C836 C 0.87254 0.57232 0.23014 0.0
C837 C 0.87716 0.68818 0.19226 0.0
C838 C 0.85807 0.64133 0.18356 0.0
C839 C 0.85727 0.60467 0.1963 0.0
C840 C 0.84242 0.63022 0.16081 0.0
C841 C 0.88057 0.7295 0.17924 0.0
C842 C 0.80465 0.63567 0.15223 0.0
C843 C 0.79037 0.62403 0.13079 0.0
C844 C 0.81339 0.60638 0.11763 0.0
C845 C 0.85127 0.60136 0.12637 0.0
C846 C 0.8654 0.61291 0.14759 0.0
H847 H 0.90536 0.76506 0.18661 0.0
H848 H 0.89336 0.72918 0.16289 0.0
H849 H 0.84426 0.72568 0.17796 0.0
H850 H 0.78571 0.64818 0.16216 0.0
H851 H 0.76096 0.62815 0.12466 0.0
H852 H 0.18177 0.91924 0.63025 0.0
H853 H 0.16117 0.88459 0.59439 0.0
H854 H 0.3068 0.98265 0.57396 0.0
H855 H 0.32793 0.01675 0.60978 0.0
H856 H 0.16763 0.93411 0.55574 0.0
H857 H 0.2826 0.85026 0.55394 0.0
H858 H 0.26734 0.86872 0.57839 0.0
H859 H 0.31438 0.91264 0.56163 0.0
C860 C 0.20961 0.93287 0.61821 0.0
C861 C 0.25655 0.97067 0.62291 0.0
C862 C 0.19768 0.91326 0.5977 0.0
C863 C 0.23257 0.93066 0.58157 0.0
C864 C 0.27949 0.96815 0.58624 0.0
H865 H 0.26152 0.89498 0.44922 0.0
H866 H 0.26799 0.91829 0.4864 0.0
C867 C 0.29139 0.9879 0.60668 0.0
C868 C 0.21975 0.91098 0.55963 0.0
H869 H 0.25072 0.85786 0.52068 0.0
C870 C 0.18531 0.9169 0.54811 0.0
C871 C 0.24282 0.88846 0.54976 0.0
C872 C 0.27852 0.87916 0.5616 0.0
C873 C 0.17493 0.90287 0.52665 0.0
C874 C 0.19904 0.88158 0.5166 0.0
C875 C 0.23237 0.87435 0.52837 0.0
C876 C 0.19281 0.86922 0.49359 0.0
C877 C 0.13987 0.91282 0.51466 0.0
C878 C 0.14804 0.83425 0.48507 0.0
C879 C 0.14405 0.82084 0.46357 0.0
C880 C 0.18492 0.8419 0.45038 0.0
C881 C 0.22926 0.87779 0.45891 0.0
C882 C 0.23313 0.89118 0.48022 0.0
H883 H 0.13239 0.93852 0.52328 0.0
H884 H 0.15394 0.92778 0.4986 0.0
H885 H 0.1052 0.8785 0.51257 0.0
H886 H 0.11656 0.81626 0.49516 0.0
H887 H 0.10953 0.79281 0.45754 0.0
loop_
_geom_bond_atom_site_label_1
_geom_bond_atom_site_label_2
_geom_bond_distance
_geom_bond_site_symmetry_2
_ccdc_geom_bond_type
Tb0 C2 2.809 . S
Tb0 O20 2.484 . S
Tb0 O21 2.440 . S
Tb0 O22 2.658 . S
Tb0 O23 2.409 . S
Tb0 O24 2.378 . S
Tb0 O28 2.325 . S
Tb0 O31 2.341 . S
Tb1 C11 2.809 1_554 S
Tb1 O22 2.325 . S
Tb1 O25 2.341 . S
Tb1 O26 2.484 1_554 S
Tb1 O27 2.440 1_554 S
Tb1 O28 2.658 . S
Tb1 O29 2.409 . S
Tb1 O30 2.387 . S
C2 Tb0 2.809 . S
C2 C3 1.514 . S
C2 O20 1.248 . S
C2 O21 1.266 . S
C3 C2 1.514 . S
C3 C4 1.359 . S
C3 C8 1.348 . S
C4 C3 1.359 . S
C4 C5 1.380 . S
C4 H32 0.929 . S
C5 C4 1.380 . S
C5 C6 1.347 . S
C5 H33 0.931 . S
C6 C5 1.347 . S
C6 C7 1.369 . S
C7 C6 1.369 . S
C7 C8 1.408 . S
C7 H34 0.930 . S
C8 C3 1.348 . S
C8 C7 1.408 . S
C8 H35 0.930 . S
C9 O22 1.281 . S
C9 O23 1.254 . S
C10 O24 1.236 . S
C10 O25 1.266 . S
C11 Tb1 2.809 1_556 S
C11 C12 1.514 . S
C11 O26 1.248 . S
C11 O27 1.266 . S
C12 C11 1.514 . S
C12 C13 1.359 . S
C12 C17 1.348 . S
C13 C12 1.359 . S
C13 C14 1.380 . S
C13 H36 0.929 . S
C14 C13 1.380 . S
C14 C15 1.347 . S
C14 H37 0.931 . S
C15 C14 1.347 . S
C15 C16 1.369 . S
C16 C15 1.369 . S
C16 C17 1.408 . S
C16 H38 0.930 . S
C17 C12 1.348 . S
C17 C16 1.408 . S
C17 H39 0.930 . S
C18 O28 1.281 . S
C18 O29 1.254 . S
C19 O30 1.236 . S
C19 O31 1.308 . S
O20 Tb0 2.484 . S
O20 C2 1.248 . S
O21 Tb0 2.440 . S
O21 C2 1.266 . S
O22 Tb0 2.658 . S
O22 Tb1 2.325 . S
O22 C9 1.281 . S
O23 Tb0 2.409 . S
O23 C9 1.254 . S
O24 Tb0 2.378 . S
O24 C10 1.236 . S
O25 Tb1 2.341 . S
O25 C10 1.266 . S
O26 Tb1 2.484 1_556 S
O26 C11 1.248 . S
O27 Tb1 2.440 1_556 S
O27 C11 1.266 . S
O28 Tb0 2.325 . S
O28 Tb1 2.658 . S
O28 C18 1.281 . S
O29 Tb1 2.409 . S
O29 C18 1.254 . S
O30 Tb1 2.387 . S
O30 C19 1.236 . S
O31 Tb0 2.341 . S
O31 C19 1.308 . S
H32 C4 0.929 . S
H33 C5 0.931 . S
H34 C7 0.930 . S
H35 C8 0.930 . S
H36 C13 0.929 . S
H37 C14 0.931 . S
H38 C16 0.930 . S
H39 C17 0.930 . S
Tb40 C42 2.809 . S
Tb40 O60 2.484 . S
Tb40 O61 2.440 . S
Tb40 O62 2.658 . S
Tb40 O63 2.409 . S
Tb40 O64 2.378 . S
Tb40 O68 2.325 . S
Tb40 O71 2.341 . S
Tb41 C51 2.809 . S
Tb41 O62 2.325 . S
Tb41 O65 2.341 . S
Tb41 O66 2.484 . S
Tb41 O67 2.440 . S
Tb41 O68 2.658 . S
Tb41 O69 2.409 . S
Tb41 O70 2.378 . S
C42 Tb40 2.809 . S
C42 C43 1.514 . S
C42 O60 1.248 . S
C42 O61 1.266 . S
C43 C42 1.514 . S
C43 C44 1.359 . S
C43 C48 1.348 . S
C44 C43 1.359 . S
C44 C45 1.380 . S
C44 H72 0.929 . S
C45 C44 1.380 . S
C45 C46 1.347 . S
C45 H73 0.931 . S
C46 C45 1.347 . S
C46 C47 1.369 . S
C47 C46 1.369 . S
C47 C48 1.408 . S
C47 H74 0.930 . S
C48 C43 1.348 . S
C48 C47 1.408 . S
C48 H75 0.930 . S
C49 O62 1.281 . S
C49 O63 1.254 . S
C50 O64 1.236 . S
C50 O65 1.266 . S
C51 Tb41 2.809 . S
C51 C52 1.514 . S
C51 O66 1.248 . S
C51 O67 1.266 . S
C52 C51 1.514 . S
C52 C53 1.359 . S
C52 C57 1.348 . S
C53 C52 1.359 . S
C53 C54 1.380 . S
C53 H76 0.929 . S
C54 C53 1.380 . S
C54 C55 1.347 . S
C54 H77 0.931 . S
C55 C54 1.347 . S
C55 C56 1.369 . S
C56 C55 1.369 . S
C56 C57 1.408 . S
C56 H78 0.930 . S
C57 C52 1.348 . S
C57 C56 1.408 . S
C57 H79 0.930 . S
C58 O68 1.281 . S
C58 O69 1.254 . S
C59 O70 1.236 . S
C59 O71 1.266 . S
O60 Tb40 2.484 . S
O60 C42 1.248 . S
O61 Tb40 2.440 . S
O61 C42 1.266 . S
O62 Tb40 2.658 . S
O62 Tb41 2.325 . S
O62 C49 1.281 . S
O63 Tb40 2.409 . S
O63 C49 1.254 . S
O64 Tb40 2.378 . S
O64 C50 1.236 . S
O65 Tb41 2.341 . S
O65 C50 1.266 . S
O66 Tb41 2.484 . S
O66 C51 1.248 . S
O67 Tb41 2.440 . S
O67 C51 1.266 . S
O68 Tb40 2.325 . S
O68 Tb41 2.658 . S
O68 C58 1.281 . S
O69 Tb41 2.409 . S
O69 C58 1.254 . S
O70 Tb41 2.378 . S
O70 C59 1.236 . S
O71 Tb40 2.341 . S
O71 C59 1.266 . S
H72 C44 0.929 . S
H73 C45 0.931 . S
H74 C47 0.930 . S
H75 C48 0.930 . S
H76 C53 0.929 . S
H77 C54 0.931 . S
H78 C56 0.930 . S
H79 C57 0.930 . S
Tb80 C82 2.809 . S
Tb80 O100 2.484 . S
Tb80 O101 2.440 . S
Tb80 O102 2.658 . S
Tb80 O103 2.409 . S
Tb80 O104 2.378 . S
Tb80 O108 2.325 . S
Tb80 O111 2.341 . S
Tb81 C91 2.809 . S
Tb81 O102 2.325 . S
Tb81 O105 2.341 . S
Tb81 O106 2.484 . S
Tb81 O107 2.440 . S
Tb81 O108 2.658 . S
Tb81 O109 2.409 . S
Tb81 O110 2.378 . S
C82 Tb80 2.809 . S
C82 C83 1.514 . S
C82 O100 1.248 . S
C82 O101 1.266 . S
C83 C82 1.514 . S
C83 C84 1.359 . S
C83 C88 1.348 . S
C84 C83 1.359 . S
C84 C85 1.380 . S
C84 H112 0.929 . S
C85 C84 1.380 . S
C85 C86 1.347 . S
C85 H113 0.931 . S
C86 C85 1.347 . S
C86 C87 1.369 . S
C87 C86 1.369 . S
C87 C88 1.408 . S
C87 H114 0.930 . S
C88 C83 1.348 . S
C88 C87 1.408 . S
C88 H115 0.930 . S
C89 O102 1.281 . S
C89 O103 1.254 . S
C90 O104 1.236 . S
C90 O105 1.266 . S
C91 Tb81 2.809 . S
C91 C92 1.514 . S
C91 O106 1.248 . S
C91 O107 1.266 . S
C92 C91 1.514 . S
C92 C93 1.359 . S
C92 C97 1.348 . S
C93 C92 1.359 . S
C93 C94 1.380 . S
C93 H116 0.929 . S
C94 C93 1.380 . S
C94 C95 1.347 . S
C94 H117 0.931 . S
C95 C94 1.347 . S
C95 C96 1.369 . S
C96 C95 1.369 . S
C96 C97 1.408 . S
C96 H118 0.930 . S
C97 C92 1.348 . S
C97 C96 1.408 . S
C97 H119 0.930 . S
C98 O108 1.281 . S
C98 O109 1.254 . S
C99 O110 1.236 . S
C99 O111 1.266 . S
O100 Tb80 2.484 . S
O100 C82 1.248 . S
O101 Tb80 2.440 . S
O101 C82 1.266 . S
O102 Tb80 2.658 . S
O102 Tb81 2.325 . S
O102 C89 1.281 . S
O103 Tb80 2.409 . S
O103 C89 1.254 . S
O104 Tb80 2.378 . S
O104 C90 1.236 . S
O105 Tb81 2.341 . S
O105 C90 1.266 . S
O106 Tb81 2.484 . S
O106 C91 1.248 . S
O107 Tb81 2.440 . S
O107 C91 1.266 . S
O108 Tb80 2.325 . S
O108 Tb81 2.658 . S
O108 C98 1.281 . S
O109 Tb81 2.409 . S
O109 C98 1.254 . S
O110 Tb81 2.378 . S
O110 C99 1.236 . S
O111 Tb80 2.341 . S
O111 C99 1.266 . S
H112 C84 0.929 . S
H113 C85 0.931 . S
H114 C87 0.930 . S
H115 C88 0.930 . S
H116 C93 0.929 . S
H117 C94 0.931 . S
H118 C96 0.930 . S
H119 C97 0.930 . S
Tb120 C122 2.809 . S
Tb120 O140 2.484 . S
Tb120 O141 2.440 . S
Tb120 O142 2.658 . S
Tb120 O143 2.409 . S
Tb120 O144 2.378 . S
Tb120 O148 2.325 . S
Tb120 O151 2.341 . S
Tb121 C131 2.809 1_554 S
Tb121 O142 2.325 . S
Tb121 O145 2.341 . S
Tb121 O146 2.484 1_554 S
Tb121 O147 2.440 1_554 S
Tb121 O148 2.658 . S
Tb121 O149 2.409 . S
Tb121 O150 2.387 . S
C122 Tb120 2.809 . S
C122 C123 1.514 . S
C122 O140 1.248 . S
C122 O141 1.266 . S
C123 C122 1.514 . S
C123 C124 1.359 . S
C123 C128 1.348 . S
C124 C123 1.359 . S
C124 C125 1.380 . S
C124 H152 0.929 . S
C125 C124 1.380 . S
C125 C126 1.347 . S
C125 H153 0.931 . S
C126 C125 1.347 . S
C126 C127 1.369 . S
C127 C126 1.369 . S
C127 C128 1.408 . S
C127 H154 0.930 . S
C128 C123 1.348 . S
C128 C127 1.408 . S
C128 H155 0.930 . S
C129 O142 1.281 . S
C129 O143 1.254 . S
C130 O144 1.236 . S
C130 O145 1.266 . S
C131 Tb121 2.809 1_556 S
C131 C132 1.514 . S
C131 O146 1.248 . S
C131 O147 1.266 . S
C132 C131 1.514 . S
C132 C133 1.359 . S
C132 C137 1.348 . S
C133 C132 1.359 . S
C133 C134 1.380 . S
C133 H156 0.929 . S
C134 C133 1.380 . S
C134 C135 1.347 . S
C134 H157 0.931 . S
C135 C134 1.347 . S
C135 C136 1.369 . S
C136 C135 1.369 . S
C136 C137 1.408 . S
C136 H158 0.930 . S
C137 C132 1.348 . S
C137 C136 1.408 . S
C137 H159 0.930 . S
C138 O148 1.281 . S
C138 O149 1.254 . S
C139 O150 1.236 . S
C139 O151 1.308 . S
O140 Tb120 2.484 . S
O140 C122 1.248 . S
O141 Tb120 2.440 . S
O141 C122 1.266 . S
O142 Tb120 2.658 . S
O142 Tb121 2.325 . S
O142 C129 1.281 . S
O143 Tb120 2.409 . S
O143 C129 1.254 . S
O144 Tb120 2.378 . S
O144 C130 1.236 . S
O145 Tb121 2.341 . S
O145 C130 1.266 . S
O146 Tb121 2.484 1_556 S
O146 C131 1.248 . S
O147 Tb121 2.440 1_556 S
O147 C131 1.266 . S
O148 Tb120 2.325 . S
O148 Tb121 2.658 . S
O148 C138 1.281 . S
O149 Tb121 2.409 . S
O149 C138 1.254 . S
O150 Tb121 2.387 . S
O150 C139 1.236 . S
O151 Tb120 2.341 . S
O151 C139 1.308 . S
H152 C124 0.929 . S
H153 C125 0.931 . S
H154 C127 0.930 . S
H155 C128 0.930 . S
H156 C133 0.929 . S
H157 C134 0.931 . S
H158 C136 0.930 . S
H159 C137 0.930 . S
Tb160 C162 2.809 . S
Tb160 O180 2.484 . S
Tb160 O181 2.440 . S
Tb160 O182 2.658 . S
Tb160 O183 2.409 . S
Tb160 O184 2.378 . S
Tb160 O188 2.325 . S
Tb160 O191 2.341 . S
Tb161 C171 2.809 . S
Tb161 O182 2.325 . S
Tb161 O185 2.341 . S
Tb161 O186 2.484 . S
Tb161 O187 2.440 . S
Tb161 O188 2.658 . S
Tb161 O189 2.409 . S
Tb161 O190 2.378 . S
C162 Tb160 2.809 . S
C162 C163 1.514 . S
C162 O180 1.248 . S
C162 O181 1.266 . S
C163 C162 1.514 . S
C163 C164 1.359 . S
C163 C168 1.348 . S
C164 C163 1.359 . S
C164 C165 1.380 . S
C164 H192 0.929 . S
C165 C164 1.380 . S
C165 C166 1.347 . S
C165 H193 0.931 . S
C166 C165 1.347 . S
C166 C167 1.369 . S
C167 C166 1.369 . S
C167 C168 1.408 . S
C167 H194 0.930 . S
C168 C163 1.348 . S
C168 C167 1.408 . S
C168 H195 0.930 . S
C169 O182 1.281 . S
C169 O183 1.254 . S
C170 O184 1.236 . S
C170 O185 1.266 . S
C171 Tb161 2.809 . S
C171 C172 1.514 . S
C171 O186 1.248 . S
C171 O187 1.266 . S
C172 C171 1.514 . S
C172 C173 1.359 . S
C172 C177 1.348 . S
C173 C172 1.359 . S
C173 C174 1.380 . S
C173 H196 0.929 . S
C174 C173 1.380 . S
C174 C175 1.347 . S
C174 H197 0.931 . S
C175 C174 1.347 . S
C175 C176 1.369 . S
C176 C175 1.369 . S
C176 C177 1.408 . S
C176 H198 0.930 . S
C177 C172 1.348 . S
C177 C176 1.408 . S
C177 H199 0.930 . S
C178 O188 1.281 . S
C178 O189 1.254 . S
C179 O190 1.236 . S
C179 O191 1.266 . S
O180 Tb160 2.484 . S
O180 C162 1.248 . S
O181 Tb160 2.440 . S
O181 C162 1.266 . S
O182 Tb160 2.658 . S
O182 Tb161 2.325 . S
O182 C169 1.281 . S
O183 Tb160 2.409 . S
O183 C169 1.254 . S
O184 Tb160 2.378 . S
O184 C170 1.236 . S
O185 Tb161 2.341 . S
O185 C170 1.266 . S
O186 Tb161 2.484 . S
O186 C171 1.248 . S
O187 Tb161 2.440 . S
O187 C171 1.266 . S
O188 Tb160 2.325 . S
O188 Tb161 2.658 . S
O188 C178 1.281 . S
O189 Tb161 2.409 . S
O189 C178 1.254 . S
O190 Tb161 2.378 . S
O190 C179 1.236 . S
O191 Tb160 2.341 . S
O191 C179 1.266 . S
H192 C164 0.929 . S
H193 C165 0.931 . S
H194 C167 0.930 . S
H195 C168 0.930 . S
H196 C173 0.929 . S
H197 C174 0.931 . S
H198 C176 0.930 . S
H199 C177 0.930 . S
Tb200 C202 2.809 . S
Tb200 O220 2.484 . S
Tb200 O221 2.440 . S
Tb200 O222 2.658 . S
Tb200 O223 2.409 . S
Tb200 O224 2.378 . S
Tb200 O228 2.325 . S
Tb200 O231 2.341 . S
Tb201 C211 2.809 . S
Tb201 O222 2.325 . S
Tb201 O225 2.341 . S
Tb201 O226 2.484 . S
Tb201 O227 2.440 . S
Tb201 O228 2.658 . S
Tb201 O229 2.409 . S
Tb201 O230 2.378 . S
C202 Tb200 2.809 . S
C202 C203 1.514 . S
C202 O220 1.248 . S
C202 O221 1.266 . S
C203 C202 1.514 . S
C203 C204 1.359 . S
C203 C208 1.348 . S
C204 C203 1.359 . S
C204 C205 1.380 . S
C204 H232 0.929 . S
C205 C204 1.380 . S
C205 C206 1.347 . S
C205 H233 0.931 . S
C206 C205 1.347 . S
C206 C207 1.369 . S
C207 C206 1.369 . S
C207 C208 1.408 . S
C207 H234 0.930 . S
C208 C203 1.348 . S
C208 C207 1.408 . S
C208 H235 0.930 . S
C209 O222 1.281 . S
C209 O223 1.254 . S
C210 O224 1.236 . S
C210 O225 1.266 . S
C211 Tb201 2.809 . S
C211 C212 1.514 . S
C211 O226 1.248 . S
C211 O227 1.266 . S
C212 C211 1.514 . S
C212 C213 1.359 . S
C212 C217 1.348 . S
C213 C212 1.359 . S
C213 C214 1.380 . S
C213 H236 0.929 . S
C214 C213 1.380 . S
C214 C215 1.347 . S
C214 H237 0.931 . S
C215 C214 1.347 . S
C215 C216 1.369 . S
C216 C215 1.369 . S
C216 C217 1.408 . S
C216 H238 0.930 . S
C217 C212 1.348 . S
C217 C216 1.408 . S
C217 H239 0.930 . S
C218 O228 1.281 . S
C218 O229 1.254 . S
C219 O230 1.236 . S
C219 O231 1.266 . S
O220 Tb200 2.484 . S
O220 C202 1.248 . S
O221 Tb200 2.440 . S
O221 C202 1.266 . S
O222 Tb200 2.658 . S
O222 Tb201 2.325 . S
O222 C209 1.281 . S
O223 Tb200 2.409 . S
O223 C209 1.254 . S
O224 Tb200 2.378 . S
O224 C210 1.236 . S
O225 Tb201 2.341 . S
O225 C210 1.266 . S
O226 Tb201 2.484 . S
O226 C211 1.248 . S
O227 Tb201 2.440 . S
O227 C211 1.266 . S
O228 Tb200 2.325 . S
O228 Tb201 2.658 . S
O228 C218 1.281 . S
O229 Tb201 2.409 . S
O229 C218 1.254 . S
O230 Tb201 2.378 . S
O230 C219 1.236 . S
O231 Tb200 2.341 . S
O231 C219 1.266 . S
H232 C204 0.929 . S
H233 C205 0.931 . S
H234 C207 0.930 . S
H235 C208 0.930 . S
H236 C213 0.929 . S
H237 C214 0.931 . S
H238 C216 0.930 . S
H239 C217 0.930 . S
H240 C248 0.929 . S
H241 C250 0.930 . S
H242 C252 0.930 . S
H243 C255 0.929 . S
H244 C258 0.930 . S
H245 C260 0.960 . S
H246 C260 0.960 . S
H247 C260 0.960 . S
C248 H240 0.929 . S
C248 C249 1.377 . S
C248 C250 1.384 . S
C249 C248 1.377 . S
C249 C255 1.390 . S
C250 H241 0.930 . S
C250 C248 1.384 . S
C250 C251 1.372 . S
C251 C250 1.372 . S
C251 C252 1.400 . S
C251 C256 1.490 . S
C252 H242 0.930 . S
C252 C251 1.400 . S
C252 C255 1.386 . S
H253 C269 0.930 . S
H254 C270 0.931 . S
C255 H243 0.929 . S
C255 C249 1.390 . S
C255 C252 1.386 . S
C256 C251 1.490 . S
C256 C258 1.395 . S
C256 C259 1.403 . S
H257 C263 0.930 . S
C258 H244 0.930 . S
C258 C256 1.395 . S
C258 C261 1.403 . S
C259 C256 1.403 . S
C259 C260 1.524 . S
C259 C263 1.400 . S
C260 H245 0.960 . S
C260 H246 0.960 . S
C260 H247 0.960 . S
C260 C259 1.524 . S
C261 C258 1.403 . S
C261 C262 1.392 . S
C261 C265 1.495 . S
C262 C261 1.392 . S
C262 C263 1.385 . S
C262 C264 1.478 . S
C263 H257 0.930 . S
C263 C259 1.400 . S
C263 C262 1.385 . S
C264 C262 1.478 . S
C264 C266 1.381 . S
C264 C270 1.383 . S
C265 C261 1.495 . S
C265 H271 0.959 . S
C265 H272 0.961 . S
C265 H273 0.960 . S
C266 C264 1.381 . S
C266 C267 1.394 . S
C266 H274 0.930 . S
C267 C266 1.394 . S
C267 C268 1.383 . S
C267 H275 0.929 . S
C268 C267 1.383 . S
C268 C269 1.377 . S
C269 H253 0.930 . S
C269 C268 1.377 . S
C269 C270 1.379 . S
C270 H254 0.931 . S
C270 C264 1.383 . S
C270 C269 1.379 . S
H271 C265 0.959 . S
H272 C265 0.961 . S
H273 C265 0.960 . S
H274 C266 0.930 . S
H275 C267 0.929 . S
H276 C284 0.929 . S
H277 C286 0.930 . S
H278 C288 0.930 . S
H279 C291 0.929 . S
H280 C294 0.930 . S
H281 C296 0.960 . S
H282 C296 0.960 . S
H283 C296 0.960 . S
C284 H276 0.929 . S
C284 C285 1.377 . S
C284 C286 1.384 . S
C285 C284 1.377 . S
C285 C291 1.390 . S
C286 H277 0.930 . S
C286 C284 1.384 . S
C286 C287 1.372 . S
C287 C286 1.372 . S
C287 C288 1.400 . S
C287 C292 1.490 . S
C288 H278 0.930 . S
C288 C287 1.400 . S
C288 C291 1.386 . S
H289 C305 0.930 . S
H290 C306 0.931 . S
C291 H279 0.929 . S
C291 C285 1.390 . S
C291 C288 1.386 . S
C292 C287 1.490 . S
C292 C294 1.395 . S
C292 C295 1.403 . S
H293 C299 0.930 . S
C294 H280 0.930 . S
C294 C292 1.395 . S
C294 C297 1.403 . S
C295 C292 1.403 . S
C295 C296 1.524 . S
C295 C299 1.400 . S
C296 H281 0.960 . S
C296 H282 0.960 . S
C296 H283 0.960 . S
C296 C295 1.524 . S
C297 C294 1.403 . S
C297 C298 1.392 . S
C297 C301 1.495 . S
C298 C297 1.392 . S
C298 C299 1.385 . S
C298 C300 1.478 . S
C299 H293 0.930 . S
C299 C295 1.400 . S
C299 C298 1.385 . S
C300 C298 1.478 . S
C300 C302 1.381 . S
C300 C306 1.383 . S
C301 C297 1.495 . S
C301 H307 0.959 . S
C301 H308 0.961 . S
C301 H309 0.960 . S
C302 C300 1.381 . S
C302 C303 1.394 . S
C302 H310 0.930 . S
C303 C302 1.394 . S
C303 C304 1.383 . S
C303 H311 0.929 . S
C304 C303 1.383 . S
C304 C305 1.377 . S
C305 H289 0.930 . S
C305 C304 1.377 . S
C305 C306 1.379 . S
C306 H290 0.931 . S
C306 C300 1.383 . S
C306 C305 1.379 . S
H307 C301 0.959 . S
H308 C301 0.961 . S
H309 C301 0.960 . S
H310 C302 0.930 . S
H311 C303 0.929 . S
H312 C320 0.929 . S
H313 C322 0.930 . S
H314 C324 0.930 . S
H315 C327 0.929 . S
H316 C330 0.930 . S
H317 C332 0.960 . S
H318 C332 0.960 . S
H319 C332 0.960 . S
C320 H312 0.929 . S
C320 C321 1.377 . S
C320 C322 1.384 . S
C321 C320 1.377 . S
C321 C327 1.390 . S
C322 H313 0.930 . S
C322 C320 1.384 . S
C322 C323 1.372 . S
C323 C322 1.372 . S
C323 C324 1.400 . S
C323 C328 1.490 . S
C324 H314 0.930 . S
C324 C323 1.400 . S
C324 C327 1.386 . S
H325 C341 0.930 . S
H326 C342 0.931 . S
C327 H315 0.929 . S
C327 C321 1.390 . S
C327 C324 1.386 . S
C328 C323 1.490 . S
C328 C330 1.395 . S
C328 C331 1.403 . S
H329 C335 0.930 . S
C330 H316 0.930 . S
C330 C328 1.395 . S
C330 C333 1.403 . S
C331 C328 1.403 . S
C331 C332 1.524 . S
C331 C335 1.400 . S
C332 H317 0.960 . S
C332 H318 0.960 . S
C332 H319 0.960 . S
C332 C331 1.524 . S
C333 C330 1.403 . S
C333 C334 1.392 . S
C333 C337 1.495 . S
C334 C333 1.392 . S
C334 C335 1.385 . S
C334 C336 1.478 . S
C335 H329 0.930 . S
C335 C331 1.400 . S
C335 C334 1.385 . S
C336 C334 1.478 . S
C336 C338 1.381 . S
C336 C342 1.383 . S
C337 C333 1.495 . S
C337 H343 0.959 . S
C337 H344 0.961 . S
C337 H345 0.960 . S
C338 C336 1.381 . S
C338 C339 1.394 . S
C338 H346 0.930 . S
C339 C338 1.394 . S
C339 C340 1.383 . S
C339 H347 0.929 . S
C340 C339 1.383 . S
C340 C341 1.377 . S
C341 H325 0.930 . S
C341 C340 1.377 . S
C341 C342 1.379 . S
C342 H326 0.931 . S
C342 C336 1.383 . S
C342 C341 1.379 . S
H343 C337 0.959 . S
H344 C337 0.961 . S
H345 C337 0.960 . S
H346 C338 0.930 . S
H347 C339 0.929 . S
H348 C356 0.929 . S
H349 C358 0.930 . S
H350 C360 0.930 . S
H351 C363 0.929 . S
H352 C366 0.930 . S
H353 C368 0.960 . S
H354 C368 0.960 . S
H355 C368 0.960 . S
C356 H348 0.929 . S
C356 C357 1.377 . S
C356 C358 1.384 . S
C357 C356 1.377 . S
C357 C363 1.390 . S
C358 H349 0.930 . S
C358 C356 1.384 . S
C358 C359 1.372 . S
C359 C358 1.372 . S
C359 C360 1.400 . S
C359 C364 1.490 . S
C360 H350 0.930 . S
C360 C359 1.400 . S
C360 C363 1.386 . S
H361 C377 0.930 . S
H362 C378 0.931 . S
C363 H351 0.929 . S
C363 C357 1.390 . S
C363 C360 1.386 . S
C364 C359 1.490 . S
C364 C366 1.395 . S
C364 C367 1.403 . S
H365 C371 0.930 . S
C366 H352 0.930 . S
C366 C364 1.395 . S
C366 C369 1.403 . S
C367 C364 1.403 . S
C367 C368 1.524 . S
C367 C371 1.400 . S
C368 H353 0.960 . S
C368 H354 0.960 . S
C368 H355 0.960 . S
C368 C367 1.524 . S
C369 C366 1.403 . S
C369 C370 1.392 . S
C369 C373 1.495 . S
C370 C369 1.392 . S
C370 C371 1.385 . S
C370 C372 1.478 . S
C371 H365 0.930 . S
C371 C367 1.400 . S
C371 C370 1.385 . S
C372 C370 1.478 . S
C372 C374 1.381 . S
C372 C378 1.383 . S
C373 C369 1.495 . S
C373 H379 0.959 . S
C373 H380 0.961 . S
C373 H381 0.960 . S
C374 C372 1.381 . S
C374 C375 1.394 . S
C374 H382 0.930 . S
C375 C374 1.394 . S
C375 C376 1.383 . S
C375 H383 0.929 . S
C376 C375 1.383 . S
C376 C377 1.377 . S
C377 H361 0.930 . S
C377 C376 1.377 . S
C377 C378 1.379 . S
C378 H362 0.931 . S
C378 C372 1.383 . S
C378 C377 1.379 . S
H379 C373 0.959 . S
H380 C373 0.961 . S
H381 C373 0.960 . S
H382 C374 0.930 . S
H383 C375 0.929 . S
H384 C392 0.929 . S
H385 C394 0.930 . S
H386 C396 0.930 . S
H387 C399 0.929 . S
H388 C402 0.930 . S
H389 C404 0.960 . S
H390 C404 0.960 . S
H391 C404 0.960 . S
C392 H384 0.929 . S
C392 C393 1.377 . S
C392 C394 1.384 . S
C393 C392 1.377 . S
C393 C399 1.390 . S
C394 H385 0.930 . S
C394 C392 1.384 . S
C394 C395 1.372 . S
C395 C394 1.372 . S
C395 C396 1.400 . S
C395 C400 1.490 . S
C396 H386 0.930 . S
C396 C395 1.400 . S
C396 C399 1.386 . S
H397 C413 0.930 . S
H398 C414 0.931 . S
C399 H387 0.929 . S
C399 C393 1.390 . S
C399 C396 1.386 . S
C400 C395 1.490 . S
C400 C402 1.395 . S
C400 C403 1.403 . S
H401 C407 0.930 . S
C402 H388 0.930 . S
C402 C400 1.395 . S
C402 C405 1.403 . S
C403 C400 1.403 . S
C403 C404 1.524 . S
C403 C407 1.400 . S
C404 H389 0.960 . S
C404 H390 0.960 . S
C404 H391 0.960 . S
C404 C403 1.524 . S
C405 C402 1.403 . S
C405 C406 1.392 . S
C405 C409 1.495 . S
C406 C405 1.392 . S
C406 C407 1.385 . S
C406 C408 1.478 . S
C407 H401 0.930 . S
C407 C403 1.400 . S
C407 C406 1.385 . S
C408 C406 1.478 . S
C408 C410 1.381 . S
C408 C414 1.383 . S
C409 C405 1.495 . S
C409 H415 0.959 . S
C409 H416 0.961 . S
C409 H417 0.960 . S
C410 C408 1.381 . S
C410 C411 1.394 . S
C410 H418 0.930 . S
C411 C410 1.394 . S
C411 C412 1.383 . S
C411 H419 0.929 . S
C412 C411 1.383 . S
C412 C413 1.377 . S
C413 H397 0.930 . S
C413 C412 1.377 . S
C413 C414 1.379 . S
C414 H398 0.931 . S
C414 C408 1.383 . S
C414 C413 1.379 . S
H415 C409 0.959 . S
H416 C409 0.961 . S
H417 C409 0.960 . S
H418 C410 0.930 . S
H419 C411 0.929 . S
H420 C428 0.929 . S
H421 C430 0.930 . S
H422 C432 0.930 . S
H423 C435 0.929 . S
H424 C438 0.930 . S
H425 C440 0.960 . S
H426 C440 0.960 . S
H427 C440 0.960 . S
C428 H420 0.929 . S
C428 C429 1.377 . S
C428 C430 1.384 . S
C429 C428 1.377 . S
C429 C435 1.390 . S
C430 H421 0.930 . S
C430 C428 1.384 . S
C430 C431 1.372 . S
C431 C430 1.372 . S
C431 C432 1.400 . S
C431 C436 1.490 . S
C432 H422 0.930 . S
C432 C431 1.400 . S
C432 C435 1.386 . S
H433 C449 0.930 . S
H434 C450 0.931 . S
C435 H423 0.929 . S
C435 C429 1.390 . S
C435 C432 1.386 . S
C436 C431 1.490 . S
C436 C438 1.395 . S
C436 C439 1.403 . S
H437 C443 0.930 . S
C438 H424 0.930 . S
C438 C436 1.395 . S
C438 C441 1.403 . S
C439 C436 1.403 . S
C439 C440 1.524 . S
C439 C443 1.400 . S
C440 H425 0.960 . S
C440 H426 0.960 . S
C440 H427 0.960 . S
C440 C439 1.524 . S
C441 C438 1.403 . S
C441 C442 1.392 . S
C441 C445 1.495 . S
C442 C441 1.392 . S
C442 C443 1.385 . S
C442 C444 1.478 . S
C443 H437 0.930 . S
C443 C439 1.400 . S
C443 C442 1.385 . S
C444 C442 1.478 . S
C444 C446 1.381 . S
C444 C450 1.383 . S
C445 C441 1.495 . S
C445 H451 0.959 . S
C445 H452 0.961 . S
C445 H453 0.960 . S
C446 C444 1.381 . S
C446 C447 1.394 . S
C446 H454 0.930 . S
C447 C446 1.394 . S
C447 C448 1.383 . S
C447 H455 0.929 . S
C448 C447 1.383 . S
C448 C449 1.377 . S
C449 H433 0.930 . S
C449 C448 1.377 . S
C449 C450 1.379 . S
C450 H434 0.931 . S
C450 C444 1.383 . S
C450 C449 1.379 . S
H451 C445 0.959 . S
H452 C445 0.961 . S
H453 C445 0.960 . S
H454 C446 0.930 . S
H455 C447 0.929 . S
H456 C464 0.929 . S
H457 C466 0.930 . S
H458 C468 0.930 . S
H459 C471 0.929 . S
H460 C474 0.930 . S
H461 C476 0.960 . S
H462 C476 0.960 . S
H463 C476 0.960 . S
C464 H456 0.929 . S
C464 C465 1.377 . S
C464 C466 1.384 . S
C465 C464 1.377 . S
C465 C471 1.390 . S
C466 H457 0.930 . S
C466 C464 1.384 . S
C466 C467 1.372 . S
C467 C466 1.372 . S
C467 C468 1.400 . S
C467 C472 1.490 . S
C468 H458 0.930 . S
C468 C467 1.400 . S
C468 C471 1.386 . S
H469 C485 0.930 . S
H470 C486 0.931 . S
C471 H459 0.929 . S
C471 C465 1.390 . S
C471 C468 1.386 . S
C472 C467 1.490 . S
C472 C474 1.395 . S
C472 C475 1.403 . S
H473 C479 0.930 . S
C474 H460 0.930 . S
C474 C472 1.395 . S
C474 C477 1.403 . S
C475 C472 1.403 . S
C475 C476 1.524 . S
C475 C479 1.400 . S
C476 H461 0.960 . S
C476 H462 0.960 . S
C476 H463 0.960 . S
C476 C475 1.524 . S
C477 C474 1.403 . S
C477 C478 1.392 . S
C477 C481 1.495 . S
C478 C477 1.392 . S
C478 C479 1.385 . S
C478 C480 1.478 . S
C479 H473 0.930 . S
C479 C475 1.400 . S
C479 C478 1.385 . S
C480 C478 1.478 . S
C480 C482 1.381 . S
C480 C486 1.383 . S
C481 C477 1.495 . S
C481 H487 0.959 . S
C481 H488 0.961 . S
C481 H489 0.960 . S
C482 C480 1.381 . S
C482 C483 1.394 . S
C482 H490 0.930 . S
C483 C482 1.394 . S
C483 C484 1.383 . S
C483 H491 0.929 . S
C484 C483 1.383 . S
C484 C485 1.377 . S
C485 H469 0.930 . S
C485 C484 1.377 . S
C485 C486 1.379 . S
C486 H470 0.931 . S
C486 C480 1.383 . S
C486 C485 1.379 . S
H487 C481 0.959 . S
H488 C481 0.961 . S
H489 C481 0.960 . S
H490 C482 0.930 . S
H491 C483 0.929 . S
H492 C500 0.929 . S
H493 C502 0.930 . S
H494 C504 0.930 . S
H495 C507 0.929 . S
H496 C510 0.934 1_455 S
H497 C512 0.960 . S
H498 C512 0.960 . S
H499 C512 0.960 . S
C500 H492 0.929 . S
C500 C501 1.377 . S
C500 C502 1.384 . S
C501 C500 1.377 . S
C501 C507 1.390 . S
C502 H493 0.930 . S
C502 C500 1.384 . S
C502 C503 1.372 . S
C503 C502 1.372 . S
C503 C504 1.400 . S
C503 C508 1.490 . S
C504 H494 0.930 . S
C504 C503 1.400 . S
C504 C507 1.386 . S
H505 C521 0.930 . S
H506 C522 0.931 . S
C507 H495 0.929 . S
C507 C501 1.390 . S
C507 C504 1.386 . S
C508 C503 1.490 . S
C508 C510 1.394 1_455 S
C508 C511 1.403 . S
H509 C515 0.930 . S
C510 H496 0.934 1_655 S
C510 C508 1.394 1_655 S
C510 C513 1.404 . S
C511 C508 1.403 . S
C511 C512 1.524 . S
C511 C515 1.400 1_455 S
C512 H497 0.960 . S
C512 H498 0.960 . S
C512 H499 0.960 . S
C512 C511 1.524 . S
C513 C510 1.404 . S
C513 C514 1.392 . S
C513 C517 1.495 . S
C514 C513 1.392 . S
C514 C515 1.385 . S
C514 C516 1.478 . S
C515 H509 0.930 . S
C515 C511 1.400 1_655 S
C515 C514 1.385 . S
C516 C514 1.478 . S
C516 C518 1.381 . S
C516 C522 1.383 . S
C517 C513 1.495 . S
C517 H523 0.959 . S
C517 H524 0.961 . S
C517 H525 0.960 . S
C518 C516 1.381 . S
C518 C519 1.394 . S
C518 H526 0.930 . S
C519 C518 1.394 . S
C519 C520 1.383 . S
C519 H527 0.929 . S
C520 C519 1.383 . S
C520 C521 1.377 . S
C521 H505 0.930 . S
C521 C520 1.377 . S
C521 C522 1.379 . S
C522 H506 0.931 . S
C522 C516 1.383 . S
C522 C521 1.379 . S
H523 C517 0.959 . S
H524 C517 0.961 . S
H525 C517 0.960 . S
H526 C518 0.930 . S
H527 C519 0.929 . S
H528 C536 0.929 . S
H529 C538 0.930 1_565 S
H530 C540 0.930 . S
H531 C543 0.929 . S
H532 C546 0.930 . S
H533 C548 0.960 . S
H534 C548 0.960 . S
H535 C548 0.960 . S
C536 H528 0.929 . S
C536 C537 1.377 . S
C536 C538 1.384 . S
C537 C536 1.377 . S
C537 C543 1.390 . S
C538 H529 0.930 1_545 S
C538 C536 1.384 . S
C538 C539 1.372 . S
C539 C538 1.372 . S
C539 C540 1.400 . S
C539 C544 1.490 . S
C540 H530 0.930 . S
C540 C539 1.400 . S
C540 C543 1.386 . S
H541 C557 0.930 . S
H542 C558 0.910 1_545 S
C543 H531 0.929 . S
C543 C537 1.390 . S
C543 C540 1.386 . S
C544 C539 1.490 . S
C544 C546 1.395 1_545 S
C544 C547 1.403 . S
H545 C551 0.930 . S
C546 H532 0.930 . S
C546 C544 1.395 1_565 S
C546 C549 1.403 . S
C547 C544 1.403 . S
C547 C548 1.524 . S
C547 C551 1.400 1_545 S
C548 H533 0.960 . S
C548 H534 0.960 . S
C548 H535 0.960 . S
C548 C547 1.524 . S
C549 C546 1.403 . S
C549 C550 1.392 . S
C549 C553 1.495 . S
C550 C549 1.392 . S
C550 C551 1.385 . S
C550 C552 1.478 . S
C551 H545 0.930 . S
C551 C547 1.400 1_565 S
C551 C550 1.385 . S
C552 C550 1.478 . S
C552 C554 1.381 . S
C552 C558 1.383 . S
C553 C549 1.495 . S
C553 H559 0.959 . S
C553 H560 0.961 . S
C553 H561 0.960 . S
C554 C552 1.381 . S
C554 C555 1.394 . S
C554 H562 0.930 . S
C555 C554 1.394 . S
C555 C556 1.383 . S
C555 H563 0.929 . S
C556 C555 1.383 . S
C556 C557 1.377 . S
C557 H541 0.930 . S
C557 C556 1.377 . S
C557 C558 1.379 . S
C558 H542 0.910 1_565 S
C558 C552 1.383 . S
C558 C557 1.379 . S
H559 C553 0.959 . S
H560 C553 0.961 . S
H561 C553 0.960 . S
H562 C554 0.930 . S
H563 C555 0.929 . S
H564 C572 0.929 . S
H565 C574 0.930 . S
H566 C576 0.930 . S
H567 C579 0.929 . S
H568 C582 0.930 . S
H569 C584 0.960 . S
H570 C584 0.960 . S
H571 C584 0.960 . S
C572 H564 0.929 . S
C572 C573 1.377 . S
C572 C574 1.384 . S
C573 C572 1.377 . S
C573 C579 1.390 . S
C574 H565 0.930 . S
C574 C572 1.384 . S
C574 C575 1.372 . S
C575 C574 1.372 . S
C575 C576 1.400 . S
C575 C580 1.490 . S
C576 H566 0.930 . S
C576 C575 1.400 . S
C576 C579 1.386 . S
H577 C593 0.930 . S
H578 C594 0.931 . S
C579 H567 0.929 . S
C579 C573 1.390 . S
C579 C576 1.386 . S
C580 C575 1.490 . S
C580 C582 1.395 . S
C580 C583 1.403 . S
H581 C587 0.930 . S
C582 H568 0.930 . S
C582 C580 1.395 . S
C582 C585 1.403 . S
C583 C580 1.403 . S
C583 C584 1.524 . S
C583 C587 1.400 . S
C584 H569 0.960 . S
C584 H570 0.960 . S
C584 H571 0.960 . S
C584 C583 1.524 . S
C585 C582 1.403 . S
C585 C586 1.392 . S
C585 C589 1.495 . S
C586 C585 1.392 . S
C586 C587 1.385 . S
C586 C588 1.478 . S
C587 H581 0.930 . S
C587 C583 1.400 . S
C587 C586 1.385 . S
C588 C586 1.478 . S
C588 C590 1.381 . S
C588 C594 1.383 . S
C589 C585 1.495 . S
C589 H595 0.959 . S
C589 H596 0.961 . S
C589 H597 0.960 . S
C590 C588 1.381 . S
C590 C591 1.394 . S
C590 H598 0.930 . S
C591 C590 1.394 . S
C591 C592 1.383 . S
C591 H599 0.929 . S
C592 C591 1.383 . S
C592 C593 1.377 . S
C593 H577 0.930 . S
C593 C592 1.377 . S
C593 C594 1.379 . S
C594 H578 0.931 . S
C594 C588 1.383 . S
C594 C593 1.379 . S
H595 C589 0.959 . S
H596 C589 0.961 . S
H597 C589 0.960 . S
H598 C590 0.930 . S
H599 C591 0.929 . S
H600 C608 0.929 . S
H601 C610 0.930 . S
H602 C612 0.930 . S
H603 C615 0.929 . S
H604 C618 0.930 . S
H605 C620 0.960 . S
H606 C620 0.960 . S
H607 C620 0.960 . S
C608 H600 0.929 . S
C608 C609 1.377 . S
C608 C610 1.384 . S
C609 C608 1.377 . S
C609 C615 1.390 . S
C610 H601 0.930 . S
C610 C608 1.384 . S
C610 C611 1.372 . S
C611 C610 1.372 . S
C611 C612 1.400 . S
C611 C616 1.490 . S
C612 H602 0.930 . S
C612 C611 1.400 . S
C612 C615 1.386 . S
H613 C629 0.930 . S
H614 C630 0.931 . S
C615 H603 0.929 . S
C615 C609 1.390 . S
C615 C612 1.386 . S
C616 C611 1.490 . S
C616 C618 1.395 . S
C616 C619 1.403 1_455 S
H617 C623 0.930 . S
C618 H604 0.930 . S
C618 C616 1.395 . S
C618 C621 1.403 . S
C619 C616 1.403 1_655 S
C619 C620 1.524 . S
C619 C623 1.400 . S
C620 H605 0.960 . S
C620 H606 0.960 . S
C620 H607 0.960 . S
C620 C619 1.524 . S
C621 C618 1.403 . S
C621 C622 1.392 1_455 S
C621 C625 1.495 . S
C622 C621 1.392 1_655 S
C622 C623 1.385 . S
C622 C624 1.478 . S
C623 H617 0.930 . S
C623 C619 1.400 . S
C623 C622 1.385 . S
C624 C622 1.478 . S
C624 C626 1.381 . S
C624 C630 1.383 . S
C625 C621 1.495 . S
C625 H631 0.959 . S
C625 H632 0.966 . S
C625 H633 0.960 . S
C626 C624 1.381 . S
C626 C627 1.394 . S
C626 H634 0.930 . S
C627 C626 1.394 . S
C627 C628 1.383 . S
C627 H635 0.929 . S
C628 C627 1.383 . S
C628 C629 1.377 . S
C629 H613 0.930 . S
C629 C628 1.377 . S
C629 C630 1.379 . S
C630 H614 0.931 . S
C630 C624 1.383 . S
C630 C629 1.379 . S
H631 C625 0.959 . S
H632 C625 0.966 . S
H633 C625 0.960 . S
H634 C626 0.930 . S
H635 C627 0.929 . S
H636 C644 0.929 . S
H637 C646 0.930 . S
H638 C648 0.930 . S
H639 C651 0.929 . S
H640 C654 0.930 . S
H641 C656 0.960 . S
H642 C656 0.960 . S
H643 C656 0.960 . S
C644 H636 0.929 . S
C644 C645 1.377 . S
C644 C646 1.384 . S
C645 C644 1.377 . S
C645 C651 1.390 . S
C646 H637 0.930 . S
C646 C644 1.384 . S
C646 C647 1.372 . S
C647 C646 1.372 . S
C647 C648 1.400 . S
C647 C652 1.490 . S
C648 H638 0.930 . S
C648 C647 1.400 . S
C648 C651 1.386 . S
H649 C665 0.930 . S
H650 C666 0.931 . S
C651 H639 0.929 . S
C651 C645 1.390 . S
C651 C648 1.386 . S
C652 C647 1.490 . S
C652 C654 1.395 1_565 S
C652 C655 1.403 . S
H653 C659 0.930 . S
C654 H640 0.930 . S
C654 C652 1.395 1_545 S
C654 C657 1.403 . S
C655 C652 1.403 . S
C655 C656 1.524 . S
C655 C659 1.400 . S
C656 H641 0.960 . S
C656 H642 0.960 . S
C656 H643 0.960 . S
C656 C655 1.524 . S
C657 C654 1.403 . S
C657 C658 1.392 . S
C657 C661 1.495 . S
C658 C657 1.392 . S
C658 C659 1.385 1_545 S
C658 C660 1.478 . S
C659 H653 0.930 . S
C659 C655 1.400 . S
C659 C658 1.385 1_565 S
C660 C658 1.478 . S
C660 C662 1.381 . S
C660 C666 1.383 . S
C661 C657 1.495 . S
C661 H667 0.959 . S
C661 H668 0.961 . S
C661 H669 0.960 . S
C662 C660 1.381 . S
C662 C663 1.394 . S
C662 H670 0.930 . S
C663 C662 1.394 . S
C663 C664 1.383 . S
C663 H671 0.929 . S
C664 C663 1.383 . S
C664 C665 1.377 . S
C665 H649 0.930 . S
C665 C664 1.377 . S
C665 C666 1.379 . S
C666 H650 0.931 . S
C666 C660 1.383 . S
C666 C665 1.379 . S
H667 C661 0.959 . S
H668 C661 0.961 . S
H669 C661 0.960 . S
H670 C662 0.930 . S
H671 C663 0.929 . S
H672 C680 0.929 . S
H673 C682 0.930 . S
H674 C684 0.930 . S
H675 C687 0.929 . S
H676 C690 0.930 . S
H677 C692 0.960 . S
H678 C692 0.960 . S
H679 C692 0.960 . S
C680 H672 0.929 . S
C680 C681 1.377 . S
C680 C682 1.384 . S
C681 C680 1.377 . S
C681 C687 1.390 . S
C682 H673 0.930 . S
C682 C680 1.384 . S
C682 C683 1.372 . S
C683 C682 1.372 . S
C683 C684 1.400 . S
C683 C688 1.490 . S
C684 H674 0.930 . S
C684 C683 1.400 . S
C684 C687 1.386 . S
H685 C701 0.930 . S
H686 C702 0.931 . S
C687 H675 0.929 . S
C687 C681 1.390 . S
C687 C684 1.386 . S
C688 C683 1.490 . S
C688 C690 1.395 . S
C688 C691 1.403 . S
H689 C695 0.930 . S
C690 H676 0.930 . S
C690 C688 1.395 . S
C690 C693 1.403 . S
C691 C688 1.403 . S
C691 C692 1.524 . S
C691 C695 1.400 . S
C692 H677 0.960 . S
C692 H678 0.960 . S
C692 H679 0.960 . S
C692 C691 1.524 . S
C693 C690 1.403 . S
C693 C694 1.392 . S
C693 C697 1.495 . S
C694 C693 1.392 . S
C694 C695 1.385 . S
C694 C696 1.478 . S
C695 H689 0.930 . S
C695 C691 1.400 . S
C695 C694 1.385 . S
C696 C694 1.478 . S
C696 C698 1.381 . S
C696 C702 1.383 . S
C697 C693 1.495 . S
C697 H703 0.959 . S
C697 H704 0.961 . S
C697 H705 0.960 . S
C698 C696 1.381 . S
C698 C699 1.394 . S
C698 H706 0.930 . S
C699 C698 1.394 . S
C699 C700 1.383 . S
C699 H707 0.929 . S
C700 C699 1.383 . S
C700 C701 1.377 . S
C701 H685 0.930 . S
C701 C700 1.377 . S
C701 C702 1.379 . S
C702 H686 0.931 . S
C702 C696 1.383 . S
C702 C701 1.379 . S
H703 C697 0.959 . S
H704 C697 0.961 . S
H705 C697 0.960 . S
H706 C698 0.930 . S
H707 C699 0.929 . S
H708 C716 0.929 . S
H709 C718 0.930 . S
H710 C720 0.933 1_455 S
H711 C723 0.929 . S
H712 C726 0.930 1_655 S
H713 C728 0.960 . S
H714 C728 0.960 . S
H715 C728 0.960 . S
C716 H708 0.929 . S
C716 C717 1.377 . S
C716 C718 1.384 . S
C717 C716 1.377 . S
C717 C723 1.390 . S
C718 H709 0.930 . S
C718 C716 1.384 . S
C718 C719 1.372 1_655 S
C719 C718 1.372 1_455 S
C719 C720 1.390 1_455 S
C719 C724 1.490 . S
C720 H710 0.933 1_655 S
C720 C719 1.390 1_655 S
C720 C723 1.393 . S
H721 C737 0.930 . S
H722 C738 0.931 . S
C723 H711 0.929 . S
C723 C717 1.390 . S
C723 C720 1.393 . S
C724 C719 1.490 . S
C724 C726 1.395 . S
C724 C727 1.403 . S
H725 C731 0.930 . S
C726 H712 0.930 1_455 S
C726 C724 1.395 . S
C726 C729 1.403 . S
C727 C724 1.403 . S
C727 C728 1.524 . S
C727 C731 1.400 . S
C728 H713 0.960 . S
C728 H714 0.960 . S
C728 H715 0.960 . S
C728 C727 1.524 . S
C729 C726 1.403 . S
C729 C730 1.392 . S
C729 C733 1.495 1_455 S
C730 C729 1.392 . S
C730 C731 1.385 . S
C730 C732 1.478 . S
C731 H725 0.930 . S
C731 C727 1.400 . S
C731 C730 1.385 . S
C732 C730 1.478 . S
C732 C734 1.381 . S
C732 C738 1.383 . S
C733 C729 1.495 1_655 S
C733 H739 0.959 . S
C733 H740 0.961 . S
C733 H741 0.960 1_655 S
C734 C732 1.381 . S
C734 C735 1.394 . S
C734 H742 0.930 . S
C735 C734 1.394 . S
C735 C736 1.383 . S
C735 H743 0.929 . S
C736 C735 1.383 . S
C736 C737 1.377 . S
C737 H721 0.930 . S
C737 C736 1.377 . S
C737 C738 1.379 . S
C738 H722 0.931 . S
C738 C732 1.383 . S
C738 C737 1.379 . S
H739 C733 0.959 . S
H740 C733 0.961 . S
H741 C733 0.960 1_455 S
H742 C734 0.930 . S
H743 C735 0.929 . S
H744 C752 0.929 . S
H745 C754 0.930 . S
H746 C756 0.930 . S
H747 C759 0.929 . S
H748 C762 0.930 1_565 S
H749 C764 0.960 . S
H750 C764 0.960 . S
H751 C764 0.960 . S
C752 H744 0.929 . S
C752 C753 1.377 . S
C752 C754 1.384 1_565 S
C753 C752 1.377 . S
C753 C759 1.390 . S
C754 H745 0.930 . S
C754 C752 1.384 1_545 S
C754 C755 1.372 . S
C755 C754 1.372 . S
C755 C756 1.400 1_545 S
C755 C760 1.490 . S
C756 H746 0.930 . S
C756 C755 1.400 1_565 S
C756 C759 1.386 . S
H757 C773 0.930 . S
H758 C774 0.931 . S
C759 H747 0.929 . S
C759 C753 1.390 . S
C759 C756 1.386 . S
C760 C755 1.490 . S
C760 C762 1.395 . S
C760 C763 1.403 . S
H761 C767 0.930 . S
C762 H748 0.930 1_545 S
C762 C760 1.395 . S
C762 C765 1.403 . S
C763 C760 1.403 . S
C763 C764 1.524 . S
C763 C767 1.400 . S
C764 H749 0.960 . S
C764 H750 0.960 . S
C764 H751 0.960 . S
C764 C763 1.524 . S
C765 C762 1.403 . S
C765 C766 1.392 . S
C765 C769 1.495 . S
C766 C765 1.392 . S
C766 C767 1.385 . S
C766 C768 1.478 . S
C767 H761 0.930 . S
C767 C763 1.400 . S
C767 C766 1.385 . S
C768 C766 1.478 . S
C768 C770 1.381 . S
C768 C774 1.383 . S
C769 C765 1.495 . S
C769 H775 0.959 1_545 S
C769 H776 0.961 . S
C769 H777 0.960 . S
C770 C768 1.381 . S
C770 C771 1.394 . S
C770 H778 0.930 . S
C771 C770 1.394 . S
C771 C772 1.383 . S
C771 H779 0.929 . S
C772 C771 1.383 . S
C772 C773 1.377 . S
C773 H757 0.930 . S
C773 C772 1.377 . S
C773 C774 1.379 . S
C774 H758 0.931 . S
C774 C768 1.383 . S
C774 C773 1.379 . S
H775 C769 0.959 1_565 S
H776 C769 0.961 . S
H777 C769 0.960 . S
H778 C770 0.930 . S
H779 C771 0.929 . S
H780 C788 0.929 . S
H781 C790 0.930 . S
H782 C792 0.930 . S
H783 C795 0.929 . S
H784 C798 0.930 . S
H785 C800 0.960 . S
H786 C800 0.960 . S
H787 C800 0.960 . S
C788 H780 0.929 . S
C788 C789 1.377 . S
C788 C790 1.384 . S
C789 C788 1.377 . S
C789 C795 1.390 . S
C790 H781 0.930 . S
C790 C788 1.384 . S
C790 C791 1.372 . S
C791 C790 1.372 . S
C791 C792 1.400 . S
C791 C796 1.490 . S
C792 H782 0.930 . S
C792 C791 1.400 . S
C792 C795 1.386 . S
H793 C809 0.930 . S
H794 C810 0.931 . S
C795 H783 0.929 . S
C795 C789 1.390 . S
C795 C792 1.386 . S
C796 C791 1.490 . S
C796 C798 1.395 . S
C796 C799 1.403 . S
H797 C803 0.930 . S
C798 H784 0.930 . S
C798 C796 1.395 . S
C798 C801 1.403 . S
C799 C796 1.403 . S
C799 C800 1.524 . S
C799 C803 1.400 . S
C800 H785 0.960 . S
C800 H786 0.960 . S
C800 H787 0.960 . S
C800 C799 1.524 . S
C801 C798 1.403 . S
C801 C802 1.392 . S
C801 C805 1.495 . S
C802 C801 1.392 . S
C802 C803 1.385 . S
C802 C804 1.478 . S
C803 H797 0.930 . S
C803 C799 1.400 . S
C803 C802 1.385 . S
C804 C802 1.478 . S
C804 C806 1.381 . S
C804 C810 1.383 . S
C805 C801 1.495 . S
C805 H811 0.959 . S
C805 H812 0.961 . S
C805 H813 0.960 . S
C806 C804 1.381 . S
C806 C807 1.394 . S
C806 H814 0.930 . S
C807 C806 1.394 . S
C807 C808 1.383 . S
C807 H815 0.929 . S
C808 C807 1.383 . S
C808 C809 1.377 . S
C809 H793 0.930 . S
C809 C808 1.377 . S
C809 C810 1.379 . S
C810 H794 0.931 . S
C810 C804 1.383 . S
C810 C809 1.379 . S
H811 C805 0.959 . S
H812 C805 0.961 . S
H813 C805 0.960 . S
H814 C806 0.930 . S
H815 C807 0.929 . S
H816 C824 0.929 . S
H817 C826 0.930 . S
H818 C828 0.930 . S
H819 C831 0.929 . S
H820 C834 0.930 . S
H821 C836 0.960 . S
H822 C836 0.960 . S
H823 C836 0.960 1_455 S
C824 H816 0.929 . S
C824 C825 1.377 1_655 S
C824 C826 1.384 . S
C825 C824 1.377 1_455 S
C825 C831 1.390 . S
C826 H817 0.930 . S
C826 C824 1.384 . S
C826 C827 1.372 . S
C827 C826 1.372 . S
C827 C828 1.400 1_655 S
C827 C832 1.490 . S
C828 H818 0.930 . S
C828 C827 1.400 1_455 S
C828 C831 1.386 . S
H829 C845 0.930 . S
H830 C846 0.931 . S
C831 H819 0.929 . S
C831 C825 1.390 . S
C831 C828 1.386 . S
C832 C827 1.490 . S
C832 C834 1.395 . S
C832 C835 1.403 . S
H833 C839 0.930 . S
C834 H820 0.930 . S
C834 C832 1.395 . S
C834 C837 1.403 . S
C835 C832 1.403 . S
C835 C836 1.524 . S
C835 C839 1.400 . S
C836 H821 0.960 . S
C836 H822 0.960 . S
C836 H823 0.960 1_655 S
C836 C835 1.524 . S
C837 C834 1.403 . S
C837 C838 1.392 . S
C837 C841 1.495 . S
C838 C837 1.392 . S
C838 C839 1.385 . S
C838 C840 1.478 . S
C839 H833 0.930 . S
C839 C835 1.400 . S
C839 C838 1.385 . S
C840 C838 1.478 . S
C840 C842 1.381 . S
C840 C846 1.383 . S
C841 C837 1.495 . S
C841 H847 0.959 . S
C841 H848 0.961 . S
C841 H849 0.960 . S
C842 C840 1.381 . S
C842 C843 1.394 . S
C842 H850 0.930 . S
C843 C842 1.394 . S
C843 C844 1.383 . S
C843 H851 0.929 . S
C844 C843 1.383 . S
C844 C845 1.377 . S
C845 H829 0.930 . S
C845 C844 1.377 . S
C845 C846 1.379 . S
C846 H830 0.931 . S
C846 C840 1.383 . S
C846 C845 1.379 . S
H847 C841 0.959 . S
H848 C841 0.961 . S
H849 C841 0.960 . S
H850 C842 0.930 . S
H851 C843 0.929 . S
H852 C860 0.929 . S
H853 C862 0.930 . S
H854 C864 0.930 . S
H855 C867 0.929 . S
H856 C870 0.930 . S
H857 C872 0.960 . S
H858 C872 0.960 . S
H859 C872 0.960 . S
C860 H852 0.929 . S
C860 C861 1.377 1_565 S
C860 C862 1.384 . S
C861 C860 1.377 1_545 S
C861 C867 1.390 . S
C862 H853 0.930 . S
C862 C860 1.384 . S
C862 C863 1.372 . S
C863 C862 1.372 . S
C863 C864 1.400 1_565 S
C863 C868 1.490 . S
C864 H854 0.930 . S
C864 C863 1.400 1_545 S
C864 C867 1.386 . S
H865 C881 0.930 . S
H866 C882 0.931 . S
C867 H855 0.929 . S
C867 C861 1.390 . S
C867 C864 1.386 . S
C868 C863 1.490 . S
C868 C870 1.395 . S
C868 C871 1.403 . S
H869 C875 0.930 . S
C870 H856 0.930 . S
C870 C868 1.395 . S
C870 C873 1.403 . S
C871 C868 1.403 . S
C871 C872 1.524 . S
C871 C875 1.400 . S
C872 H857 0.960 . S
C872 H858 0.960 . S
C872 H859 0.960 . S
C872 C871 1.524 . S
C873 C870 1.403 . S
C873 C874 1.392 . S
C873 C877 1.495 . S
C874 C873 1.392 . S
C874 C875 1.385 . S
C874 C876 1.478 . S
C875 H869 0.930 . S
C875 C871 1.400 . S
C875 C874 1.385 . S
C876 C874 1.478 . S
C876 C878 1.381 . S
C876 C882 1.383 . S
C877 C873 1.495 . S
C877 H883 0.959 . S
C877 H884 0.961 . S
C877 H885 0.960 . S
C878 C876 1.381 . S
C878 C879 1.394 . S
C878 H886 0.930 . S
C879 C878 1.394 . S
C879 C880 1.383 . S
C879 H887 0.929 . S
C880 C879 1.383 . S
C880 C881 1.377 . S
C881 H865 0.930 . S
C881 C880 1.377 . S
C881 C882 1.379 . S
C882 H866 0.931 . S
C882 C876 1.383 . S
C882 C881 1.379 . S
H883 C877 0.959 . S
H884 C877 0.961 . S
H885 C877 0.960 . S
H886 C878 0.930 . S
H887 C879 0.929 . S
C249 C179 1.160 . S
C268 C6 1.163 . S
C285 C219 1.158 . S
C304 C46 1.161 . S
C321 C19 1.114 1_556 S
C340 C86 1.158 . S
C357 C59 1.160 . S
C376 C126 1.157 . S
C393 C99 1.162 . S
C412 C166 1.162 . S
C429 C139 1.118 1_556 S
C448 C206 1.160 . S
C465 C9 0.643 . S
C484 C129 0.734 . S
C501 C169 0.613 . S
C520 C49 0.590 . S
C537 C209 0.648 . S
C556 C89 0.610 . S
C573 C98 0.486 . S
C592 C218 0.482 . S
C609 C18 0.486 . S
C628 C138 0.482 . S
C645 C178 0.486 . S
C664 C58 0.495 . S
C681 C210 1.191 . S
C700 C15 1.170 . S
C717 C55 1.183 . S
C736 C10 1.195 . S
C753 C95 1.181 . S
C772 C50 1.195 . S
C789 C90 1.192 . S
C808 C135 1.160 . S
C825 C175 1.178 . S
C844 C130 1.193 . S
C861 C215 1.178 . S
C880 C170 1.193 . S
