# Generated by pormake.
# Topology mer, (4)-cn, num edge types: 1
# Building blocks:
#     Node 0, Type 0, BuildingBlock: ESEHIV_clean_sbu_0, # of connection points: 4
#     Node 1, Type 0, BuildingBlock: ESEHIV_clean_sbu_0, # of connection points: 4
#     Node 2, Type 0, BuildingBlock: ESEHIV_clean_sbu_0, # of connection points: 4
#     Node 3, Type 0, BuildingBlock: ESEHIV_clean_sbu_0, # of connection points: 4
#     Node 4, Type 0, BuildingBlock: ESEHIV_clean_sbu_0, # of connection points: 4
#     Node 5, Type 0, BuildingBlock: ESEHIV_clean_sbu_0, # of connection points: 4
#     Node 6, Type 0, BuildingBlock: ESEHIV_clean_sbu_0, # of connection points: 4
#     Node 7, Type 0, BuildingBlock: ESEHIV_clean_sbu_0, # of connection points: 4
#     Node 8, Type 0, BuildingBlock: ESEHIV_clean_sbu_0, # of connection points: 4
#     Node 9, Type 0, BuildingBlock: ESEHIV_clean_sbu_0, # of connection points: 4
#     Node 10, Type 0, BuildingBlock: ESEHIV_clean_sbu_0, # of connection points: 4
#     Node 11, Type 0, BuildingBlock: ESEHIV_clean_sbu_0, # of connection points: 4
#     Node 12, Type 0, BuildingBlock: ESEHIV_clean_sbu_0, # of connection points: 4
#     Node 13, Type 0, BuildingBlock: ESEHIV_clean_sbu_0, # of connection points: 4
#     Node 14, Type 0, BuildingBlock: ESEHIV_clean_sbu_0, # of connection points: 4
#     Node 15, Type 0, BuildingBlock: ESEHIV_clean_sbu_0, # of connection points: 4
#     Node 16, Type 0, BuildingBlock: ESEHIV_clean_sbu_0, # of connection points: 4
#     Node 17, Type 0, BuildingBlock: ESEHIV_clean_sbu_0, # of connection points: 4
#     Node 18, Type 0, BuildingBlock: ESEHIV_clean_sbu_0, # of connection points: 4
#     Node 19, Type 0, BuildingBlock: ESEHIV_clean_sbu_0, # of connection points: 4
#     Node 20, Type 0, BuildingBlock: ESEHIV_clean_sbu_0, # of connection points: 4
#     Node 21, Type 0, BuildingBlock: ESEHIV_clean_sbu_0, # of connection points: 4
#     Node 22, Type 0, BuildingBlock: ESEHIV_clean_sbu_0, # of connection points: 4
#     Node 23, Type 0, BuildingBlock: ESEHIV_clean_sbu_0, # of connection points: 4
#     Node 24, Type 0, BuildingBlock: ESEHIV_clean_sbu_0, # of connection points: 4
#     Node 25, Type 0, BuildingBlock: ESEHIV_clean_sbu_0, # of connection points: 4
#     Node 26, Type 0, BuildingBlock: ESEHIV_clean_sbu_0, # of connection points: 4
#     Node 27, Type 0, BuildingBlock: ESEHIV_clean_sbu_0, # of connection points: 4
#     Node 28, Type 0, BuildingBlock: ESEHIV_clean_sbu_0, # of connection points: 4
#     Node 29, Type 0, BuildingBlock: ESEHIV_clean_sbu_0, # of connection points: 4
#     Node 30, Type 0, BuildingBlock: ESEHIV_clean_sbu_0, # of connection points: 4
#     Node 31, Type 0, BuildingBlock: ESEHIV_clean_sbu_0, # of connection points: 4
#     Edge 32, Type (0, 0), BuildingBlock: OJICUG_clean_linker_0, # of connection points: 2
#     Edge 33, Type (0, 0), BuildingBlock: OJICUG_clean_linker_0, # of connection points: 2
#     Edge 34, Type (0, 0), BuildingBlock: OJICUG_clean_linker_0, # of connection points: 2
#     Edge 35, Type (0, 0), BuildingBlock: OJICUG_clean_linker_0, # of connection points: 2
#     Edge 36, Type (0, 0), BuildingBlock: OJICUG_clean_linker_0, # of connection points: 2
#     Edge 37, Type (0, 0), BuildingBlock: OJICUG_clean_linker_0, # of connection points: 2
#     Edge 38, Type (0, 0), BuildingBlock: OJICUG_clean_linker_0, # of connection points: 2
#     Edge 39, Type (0, 0), BuildingBlock: OJICUG_clean_linker_0, # of connection points: 2
#     Edge 40, Type (0, 0), BuildingBlock: OJICUG_clean_linker_0, # of connection points: 2
#     Edge 41, Type (0, 0), BuildingBlock: OJICUG_clean_linker_0, # of connection points: 2
#     Edge 42, Type (0, 0), BuildingBlock: OJICUG_clean_linker_0, # of connection points: 2
#     Edge 43, Type (0, 0), BuildingBlock: OJICUG_clean_linker_0, # of connection points: 2
#     Edge 44, Type (0, 0), BuildingBlock: OJICUG_clean_linker_0, # of connection points: 2
#     Edge 45, Type (0, 0), BuildingBlock: OJICUG_clean_linker_0, # of connection points: 2
#     Edge 46, Type (0, 0), BuildingBlock: OJICUG_clean_linker_0, # of connection points: 2
#     Edge 47, Type (0, 0), BuildingBlock: OJICUG_clean_linker_0, # of connection points: 2
#     Edge 48, Type (0, 0), BuildingBlock: OJICUG_clean_linker_0, # of connection points: 2
#     Edge 49, Type (0, 0), BuildingBlock: OJICUG_clean_linker_0, # of connection points: 2
#     Edge 50, Type (0, 0), BuildingBlock: OJICUG_clean_linker_0, # of connection points: 2
#     Edge 51, Type (0, 0), BuildingBlock: OJICUG_clean_linker_0, # of connection points: 2
#     Edge 52, Type (0, 0), BuildingBlock: OJICUG_clean_linker_0, # of connection points: 2
#     Edge 53, Type (0, 0), BuildingBlock: OJICUG_clean_linker_0, # of connection points: 2
#     Edge 54, Type (0, 0), BuildingBlock: OJICUG_clean_linker_0, # of connection points: 2
#     Edge 55, Type (0, 0), BuildingBlock: OJICUG_clean_linker_0, # of connection points: 2
#     Edge 56, Type (0, 0), BuildingBlock: OJICUG_clean_linker_0, # of connection points: 2
#     Edge 57, Type (0, 0), BuildingBlock: OJICUG_clean_linker_0, # of connection points: 2
#     Edge 58, Type (0, 0), BuildingBlock: OJICUG_clean_linker_0, # of connection points: 2
#     Edge 59, Type (0, 0), BuildingBlock: OJICUG_clean_linker_0, # of connection points: 2
#     Edge 60, Type (0, 0), BuildingBlock: OJICUG_clean_linker_0, # of connection points: 2
#     Edge 61, Type (0, 0), BuildingBlock: OJICUG_clean_linker_0, # of connection points: 2
#     Edge 62, Type (0, 0), BuildingBlock: OJICUG_clean_linker_0, # of connection points: 2
#     Edge 63, Type (0, 0), BuildingBlock: OJICUG_clean_linker_0, # of connection points: 2
#     Edge 64, Type (0, 0), BuildingBlock: OJICUG_clean_linker_0, # of connection points: 2
#     Edge 65, Type (0, 0), BuildingBlock: OJICUG_clean_linker_0, # of connection points: 2
#     Edge 66, Type (0, 0), BuildingBlock: OJICUG_clean_linker_0, # of connection points: 2
#     Edge 67, Type (0, 0), BuildingBlock: OJICUG_clean_linker_0, # of connection points: 2
#     Edge 68, Type (0, 0), BuildingBlock: OJICUG_clean_linker_0, # of connection points: 2
#     Edge 69, Type (0, 0), BuildingBlock: OJICUG_clean_linker_0, # of connection points: 2
#     Edge 70, Type (0, 0), BuildingBlock: OJICUG_clean_linker_0, # of connection points: 2
#     Edge 71, Type (0, 0), BuildingBlock: OJICUG_clean_linker_0, # of connection points: 2
#     Edge 72, Type (0, 0), BuildingBlock: OJICUG_clean_linker_0, # of connection points: 2
#     Edge 73, Type (0, 0), BuildingBlock: OJICUG_clean_linker_0, # of connection points: 2
#     Edge 74, Type (0, 0), BuildingBlock: OJICUG_clean_linker_0, # of connection points: 2
#     Edge 75, Type (0, 0), BuildingBlock: OJICUG_clean_linker_0, # of connection points: 2
#     Edge 76, Type (0, 0), BuildingBlock: OJICUG_clean_linker_0, # of connection points: 2
#     Edge 77, Type (0, 0), BuildingBlock: OJICUG_clean_linker_0, # of connection points: 2
#     Edge 78, Type (0, 0), BuildingBlock: OJICUG_clean_linker_0, # of connection points: 2
#     Edge 79, Type (0, 0), BuildingBlock: OJICUG_clean_linker_0, # of connection points: 2
#     Edge 80, Type (0, 0), BuildingBlock: OJICUG_clean_linker_0, # of connection points: 2
#     Edge 81, Type (0, 0), BuildingBlock: OJICUG_clean_linker_0, # of connection points: 2
#     Edge 82, Type (0, 0), BuildingBlock: OJICUG_clean_linker_0, # of connection points: 2
#     Edge 83, Type (0, 0), BuildingBlock: OJICUG_clean_linker_0, # of connection points: 2
#     Edge 84, Type (0, 0), BuildingBlock: OJICUG_clean_linker_0, # of connection points: 2
#     Edge 85, Type (0, 0), BuildingBlock: OJICUG_clean_linker_0, # of connection points: 2
#     Edge 86, Type (0, 0), BuildingBlock: OJICUG_clean_linker_0, # of connection points: 2
#     Edge 87, Type (0, 0), BuildingBlock: OJICUG_clean_linker_0, # of connection points: 2
#     Edge 88, Type (0, 0), BuildingBlock: OJICUG_clean_linker_0, # of connection points: 2
#     Edge 89, Type (0, 0), BuildingBlock: OJICUG_clean_linker_0, # of connection points: 2
#     Edge 90, Type (0, 0), BuildingBlock: OJICUG_clean_linker_0, # of connection points: 2
#     Edge 91, Type (0, 0), BuildingBlock: OJICUG_clean_linker_0, # of connection points: 2
#     Edge 92, Type (0, 0), BuildingBlock: OJICUG_clean_linker_0, # of connection points: 2
#     Edge 93, Type (0, 0), BuildingBlock: OJICUG_clean_linker_0, # of connection points: 2
#     Edge 94, Type (0, 0), BuildingBlock: OJICUG_clean_linker_0, # of connection points: 2
#     Edge 95, Type (0, 0), BuildingBlock: OJICUG_clean_linker_0, # of connection points: 2
# Relax obj value: 0.086
# Max RMSD: 0.225
# Mean RMSD: 0.225
data_MOF--net-mer--node1-ESEHIV_clean_sbu_0--edge1-OJICUG_clean_linker_0
_symmetry_space_group_name_H-M    P1
_symmetry_Int_Tables_number       1
_symmetry_cell_setting            triclinic
loop_
_symmetry_equiv_pos_as_xyz
'x, y, z'
_cell_length_a     54.50344
_cell_length_b     54.10404
_cell_length_c     39.376194
_cell_angle_alpha  90.283856
_cell_angle_beta   90.102286
_cell_angle_gamma 90.919217
loop_
_atom_site_label
_atom_site_type_symbol
_atom_site_fract_x
_atom_site_fract_y
_atom_site_fract_z
_atom_type_partial_charge
Cu0 Cu 0.12892 0.27819 0.43548 0.0
N1 N 0.14565 0.24851 0.43753 0.0
N2 N 0.17085 0.21728 0.42719 0.0
C3 C 0.16501 0.24077 0.41934 0.0
C4 C 0.15465 0.21014 0.45122 0.0
C5 C 0.13921 0.22944 0.45759 0.0
O6 O 0.14509 0.29983 0.4025 0.0
C7 C 0.12033 0.31121 0.49282 0.0
O8 O 0.10857 0.32566 0.47185 0.0
H9 H 0.1742 0.25185 0.40026 0.0
H10 H 0.12404 0.22954 0.47527 0.0
N11 N 0.09681 0.26996 0.42212 0.0
N12 N 0.05619 0.26919 0.41379 0.0
C13 C 0.07564 0.28219 0.42635 0.0
C14 C 0.09049 0.24869 0.40628 0.0
C15 C 0.06556 0.24815 0.40111 0.0
C16 C 0.14085 0.29801 0.3707 0.0
O17 O 0.12445 0.28177 0.3598 0.0
H18 H 0.07446 0.3 0.43874 0.0
H19 H 0.10323 0.23453 0.39888 0.0
O20 O 0.1299 0.29147 0.48165 0.0
H21 H 0.15412 0.19227 0.46347 0.0
H22 H 0.05522 0.23356 0.38844 0.0
Cu23 Cu 0.71004 0.12158 0.40744 0.0
N24 N 0.74397 0.12352 0.40132 0.0
N25 N 0.78117 0.14119 0.3958 0.0
C26 C 0.75731 0.1446 0.40358 0.0
C27 C 0.78281 0.11683 0.38851 0.0
C28 C 0.75981 0.106 0.39183 0.0
O29 O 0.696 0.14734 0.37933 0.0
C30 C 0.68288 0.11975 0.46943 0.0
O31 O 0.66537 0.11002 0.45042 0.0
H32 H 0.74947 0.16214 0.41062 0.0
H33 H 0.75492 0.08687 0.3869 0.0
N34 N 0.69636 0.09161 0.3918 0.0
N35 N 0.68714 0.05199 0.38013 0.0
C36 C 0.70258 0.0678 0.39678 0.0
C37 C 0.67629 0.09066 0.37193 0.0
C38 C 0.6706 0.06645 0.36469 0.0
C39 C 0.70125 0.14711 0.34776 0.0
O40 O 0.71623 0.1302 0.33632 0.0
H41 H 0.71808 0.06222 0.41197 0.0
H42 H 0.66627 0.10661 0.36353 0.0
O43 O 0.70303 0.12638 0.4556 0.0
H44 H 0.79925 0.10757 0.38036 0.0
H45 H 0.65508 0.05999 0.34972 0.0
Cu46 Cu 0.88566 0.73823 0.43313 0.0
N47 N 0.86923 0.76811 0.43556 0.0
N48 N 0.84383 0.79945 0.42725 0.0
C49 C 0.84897 0.77575 0.41926 0.0
C50 C 0.86137 0.8068 0.44947 0.0
C51 C 0.87692 0.78743 0.45458 0.0
O52 O 0.8707 0.71606 0.3991 0.0
C53 C 0.86605 0.72323 0.49615 0.0
O54 O 0.84523 0.72776 0.48067 0.0
H55 H 0.83854 0.76439 0.40152 0.0
H56 H 0.89295 0.78743 0.47082 0.0
N57 N 0.91772 0.74609 0.42 0.0
N58 N 0.95835 0.74581 0.41254 0.0
C59 C 0.93856 0.73358 0.42521 0.0
C60 C 0.92452 0.76677 0.40346 0.0
C61 C 0.94949 0.76667 0.3988 0.0
C62 C 0.87174 0.72159 0.36762 0.0
O63 O 0.88229 0.74259 0.3588 0.0
H64 H 0.93921 0.7161 0.4384 0.0
H65 H 0.9121 0.78096 0.39526 0.0
O66 O 0.88592 0.72495 0.47925 0.0
H67 H 0.8627 0.82482 0.46147 0.0
H68 H 0.9602 0.78069 0.38576 0.0
Cu69 Cu 0.30113 0.89236 0.41627 0.0
N70 N 0.26768 0.88845 0.40683 0.0
N71 N 0.23089 0.871 0.39686 0.0
C72 C 0.25454 0.8672 0.40549 0.0
C73 C 0.22918 0.89567 0.3926 0.0
C74 C 0.2519 0.90634 0.3987 0.0
O75 O 0.31917 0.88214 0.376 0.0
C76 C 0.29535 0.87204 0.48191 0.0
O77 O 0.27223 0.87743 0.47685 0.0
H78 H 0.26213 0.84938 0.41138 0.0
H79 H 0.25664 0.92578 0.39702 0.0
N80 N 0.30776 0.92558 0.4256 0.0
N81 N 0.3137 0.96639 0.42156 0.0
C82 C 0.3089 0.94509 0.40448 0.0
C83 C 0.31208 0.9348 0.45685 0.0
C84 C 0.31577 0.95989 0.45447 0.0
C85 C 0.31794 0.85994 0.36519 0.0
O86 O 0.30615 0.8433 0.38337 0.0
H87 H 0.30584 0.94371 0.37737 0.0
H88 H 0.31252 0.92399 0.47985 0.0
O89 O 0.31061 0.87505 0.4577 0.0
H90 H 0.21283 0.90532 0.38505 0.0
H91 H 0.31997 0.9723 0.47539 0.0
Cu92 Cu 0.13002 0.72825 0.68213 0.0
N93 N 0.1339 0.76259 0.68474 0.0
N94 N 0.15289 0.79939 0.69016 0.0
C95 C 0.15432 0.77475 0.69516 0.0
C96 C 0.13054 0.80281 0.67623 0.0
C97 C 0.11896 0.78007 0.67272 0.0
O98 O 0.15271 0.71273 0.71294 0.0
C99 C 0.14981 0.72731 0.61501 0.0
O100 O 0.16408 0.74565 0.62538 0.0
H101 H 0.17021 0.76551 0.70517 0.0
H102 H 0.1014 0.77643 0.66071 0.0
N103 N 0.09851 0.71751 0.69373 0.0
N104 N 0.05821 0.71499 0.70326 0.0
C105 C 0.0778 0.73027 0.69887 0.0
C106 C 0.0918 0.69352 0.69526 0.0
C107 C 0.06698 0.69187 0.70109 0.0
C108 C 0.15011 0.71621 0.74471 0.0
O109 O 0.13272 0.73089 0.75534 0.0
H110 H 0.0769 0.75021 0.6983 0.0
H111 H 0.10413 0.67827 0.69155 0.0
O112 O 0.13502 0.71717 0.63584 0.0
H113 H 0.12358 0.82028 0.66747 0.0
H114 H 0.0562 0.67499 0.70342 0.0
Cu115 Cu 0.29414 0.14117 0.64954 0.0
N116 N 0.26362 0.15486 0.64177 0.0
N117 N 0.22808 0.17393 0.64928 0.0
C118 C 0.25068 0.1699 0.66204 0.0
C119 C 0.22687 0.16101 0.61991 0.0
C120 C 0.24883 0.14927 0.61538 0.0
O121 O 0.31165 0.16123 0.68383 0.0
C122 C 0.31336 0.16121 0.58962 0.0
O123 O 0.30696 0.18181 0.60477 0.0
H124 H 0.25738 0.17701 0.68614 0.0
H125 H 0.25358 0.13705 0.59466 0.0
N126 N 0.28747 0.10912 0.66487 0.0
N127 N 0.28659 0.06814 0.67239 0.0
C128 C 0.29812 0.08748 0.65712 0.0
C129 C 0.26864 0.10327 0.68549 0.0
C130 C 0.26811 0.07815 0.69032 0.0
C131 C 0.31561 0.15416 0.71422 0.0
O132 O 0.30888 0.13174 0.72323 0.0
H133 H 0.31363 0.08596 0.64017 0.0
H134 H 0.25612 0.11648 0.69624 0.0
O135 O 0.31078 0.14092 0.60566 0.0
H136 H 0.21124 0.16013 0.60293 0.0
H137 H 0.25526 0.06814 0.70625 0.0
Cu138 Cu 0.88215 0.27193 0.68383 0.0
N139 N 0.86773 0.24081 0.67702 0.0
N140 N 0.84467 0.2064 0.67953 0.0
C141 C 0.84818 0.22965 0.69166 0.0
C142 C 0.86255 0.20302 0.65641 0.0
C143 C 0.87665 0.22422 0.65492 0.0
O144 O 0.86516 0.29182 0.71767 0.0
C145 C 0.86586 0.28588 0.61858 0.0
O146 O 0.84555 0.27448 0.628 0.0
H147 H 0.83699 0.23826 0.71093 0.0
H148 H 0.89244 0.22743 0.63883 0.0
N149 N 0.91423 0.26638 0.69788 0.0
N150 N 0.95467 0.27011 0.70529 0.0
C151 C 0.93394 0.28165 0.696 0.0
C152 C 0.92278 0.24467 0.70902 0.0
C153 C 0.94774 0.24688 0.71351 0.0
C154 C 0.86769 0.28815 0.74945 0.0
O155 O 0.88113 0.26967 0.7597 0.0
H156 H 0.93325 0.30049 0.68695 0.0
H157 H 0.91167 0.22819 0.71295 0.0
O158 O 0.88346 0.2881 0.63977 0.0
H159 H 0.86498 0.18657 0.64112 0.0
H160 H 0.95988 0.23257 0.72218 0.0
Cu161 Cu 0.6929 0.87524 0.67277 0.0
N162 N 0.72661 0.8771 0.6809 0.0
N163 N 0.76498 0.86438 0.68881 0.0
C164 C 0.74174 0.85768 0.68067 0.0
C165 C 0.7644 0.889 0.69443 0.0
C166 C 0.74069 0.89677 0.68972 0.0
O167 O 0.6798 0.85001 0.70324 0.0
C168 C 0.6684 0.8732 0.60861 0.0
O169 O 0.65003 0.88282 0.62538 0.0
H170 H 0.73574 0.83899 0.67469 0.0
H171 H 0.73421 0.91534 0.6933 0.0
N172 N 0.67755 0.90484 0.68408 0.0
N173 N 0.66883 0.94454 0.69337 0.0
C174 C 0.68464 0.92856 0.679 0.0
C175 C 0.65638 0.90595 0.70144 0.0
C176 C 0.65097 0.93029 0.70724 0.0
C177 C 0.68347 0.85357 0.73493 0.0
O178 O 0.69583 0.87343 0.74464 0.0
H179 H 0.70125 0.93398 0.66583 0.0
H180 H 0.64576 0.89004 0.70972 0.0
O181 O 0.68785 0.86768 0.62469 0.0
H182 H 0.77986 0.90047 0.70233 0.0
H183 H 0.6351 0.93697 0.72074 0.0
Cu184 Cu 0.88522 0.73814 0.70745 0.0
N185 N 0.87296 0.77018 0.70818 0.0
N186 N 0.8486 0.80295 0.70417 0.0
C187 C 0.84982 0.77796 0.70347 0.0
C188 C 0.87184 0.811 0.70972 0.0
C189 C 0.88674 0.79085 0.71201 0.0
O190 O 0.86733 0.717 0.73948 0.0
C191 C 0.86546 0.72286 0.6435 0.0
O192 O 0.84435 0.72479 0.65925 0.0
H193 H 0.83439 0.76559 0.69885 0.0
H194 H 0.90639 0.79128 0.71577 0.0
N195 N 0.91745 0.74051 0.72322 0.0
N196 N 0.95822 0.73873 0.72718 0.0
C197 C 0.93828 0.73366 0.70774 0.0
C198 C 0.9244 0.75001 0.75344 0.0
C199 C 0.94955 0.74905 0.75591 0.0
C200 C 0.8774 0.69725 0.74961 0.0
O201 O 0.89794 0.69046 0.73512 0.0
H202 H 0.93881 0.72533 0.68271 0.0
H203 H 0.91195 0.75717 0.77231 0.0
O204 O 0.88519 0.72646 0.66032 0.0
H205 H 0.87778 0.8301 0.71212 0.0
H206 H 0.96055 0.75501 0.77744 0.0
Cu207 Cu 0.30018 0.89232 0.68842 0.0
N208 N 0.26689 0.88988 0.69897 0.0
N209 N 0.22969 0.87217 0.70352 0.0
C210 C 0.25254 0.87031 0.6907 0.0
C211 C 0.22961 0.89404 0.72023 0.0
C212 C 0.25267 0.90489 0.71751 0.0
O213 O 0.31863 0.87874 0.72622 0.0
C214 C 0.3205 0.87945 0.62314 0.0
O215 O 0.33924 0.89384 0.63134 0.0
H216 H 0.25896 0.85482 0.67588 0.0
H217 H 0.2588 0.92214 0.72892 0.0
N218 N 0.31068 0.92519 0.68414 0.0
N219 N 0.31249 0.96624 0.67742 0.0
C220 C 0.29794 0.94568 0.67692 0.0
C221 C 0.3339 0.93302 0.68943 0.0
C222 C 0.33512 0.9582 0.68527 0.0
C223 C 0.3124 0.85933 0.7424 0.0
O224 O 0.29418 0.84542 0.73099 0.0
H225 H 0.27844 0.94548 0.67166 0.0
H226 H 0.34887 0.92116 0.6964 0.0
O227 O 0.30375 0.8753 0.64499 0.0
H228 H 0.21429 0.90128 0.73439 0.0
H229 H 0.3513 0.96976 0.68894 0.0
Cu230 Cu 0.1259 0.30407 0.70521 0.0
N231 N 0.13226 0.27054 0.7073 0.0
N232 N 0.15255 0.2355 0.69974 0.0
C233 C 0.15387 0.26039 0.69945 0.0
C234 C 0.12916 0.22975 0.70818 0.0
C235 C 0.11666 0.25148 0.71296 0.0
O236 O 0.14883 0.31989 0.73689 0.0
C237 C 0.11759 0.32555 0.63884 0.0
O238 O 0.09918 0.3374 0.65246 0.0
H239 H 0.1699 0.27111 0.69195 0.0
H240 H 0.09742 0.25324 0.719 0.0
N241 N 0.09342 0.30887 0.71874 0.0
N242 N 0.05253 0.306 0.72044 0.0
C243 C 0.07295 0.30104 0.70245 0.0
C244 C 0.08561 0.31856 0.74832 0.0
C245 C 0.0604 0.31711 0.74923 0.0
C246 C 0.14587 0.34084 0.75095 0.0
O247 O 0.12777 0.35489 0.74121 0.0
H248 H 0.07308 0.2913 0.67837 0.0
H249 H 0.09737 0.32509 0.76868 0.0
O250 O 0.13135 0.3126 0.65767 0.0
H251 H 0.12153 0.21121 0.71011 0.0
H252 H 0.04884 0.32242 0.77028 0.0
Cu253 Cu 0.69494 0.12053 0.6832 0.0
N254 N 0.72844 0.12104 0.69224 0.0
N255 N 0.76622 0.13702 0.69823 0.0
C256 C 0.74271 0.14144 0.68981 0.0
C257 C 0.76674 0.11279 0.70626 0.0
C258 C 0.74331 0.10298 0.7027 0.0
O259 O 0.68064 0.145 0.7134 0.0
C260 C 0.67395 0.11899 0.61632 0.0
O261 O 0.6562 0.10591 0.63036 0.0
H262 H 0.73595 0.15909 0.6814 0.0
H263 H 0.73756 0.08411 0.70754 0.0
N264 N 0.68028 0.09012 0.69388 0.0
N265 N 0.6712 0.04998 0.70017 0.0
C266 C 0.68722 0.06677 0.68713 0.0
C267 C 0.65915 0.08797 0.71123 0.0
C268 C 0.65352 0.06335 0.71519 0.0
C269 C 0.68551 0.14276 0.74495 0.0
O270 O 0.6997 0.12467 0.75458 0.0
H271 H 0.70376 0.06222 0.67344 0.0
H272 H 0.64852 0.10335 0.72034 0.0
O273 O 0.69115 0.12775 0.63496 0.0
H274 H 0.78282 0.1029 0.71433 0.0
H275 H 0.63742 0.05589 0.72781 0.0
Cu276 Cu 0.88182 0.28547 0.40665 0.0
N277 N 0.87666 0.25202 0.39649 0.0
N278 N 0.85722 0.21545 0.39128 0.0
C279 C 0.85539 0.23941 0.40068 0.0
C280 C 0.88062 0.21296 0.38076 0.0
C281 C 0.89254 0.23556 0.3839 0.0
O282 O 0.86225 0.30479 0.37541 0.0
C283 C 0.88502 0.30226 0.47588 0.0
O284 O 0.90527 0.31368 0.4663 0.0
H285 H 0.83899 0.24767 0.41085 0.0
H286 H 0.9114 0.23971 0.37728 0.0
N287 N 0.91467 0.2948 0.40031 0.0
N288 N 0.95569 0.29626 0.40176 0.0
C289 C 0.93519 0.28321 0.41009 0.0
C290 C 0.92241 0.31582 0.3854 0.0
C291 C 0.94764 0.31678 0.3862 0.0
C292 C 0.86534 0.30168 0.34359 0.0
O293 O 0.88108 0.28513 0.33322 0.0
H294 H 0.93504 0.26579 0.4235 0.0
H295 H 0.91046 0.32955 0.37473 0.0
O296 O 0.87216 0.29043 0.45393 0.0
H297 H 0.88848 0.19613 0.37095 0.0
H298 H 0.95914 0.33128 0.3756 0.0
Cu299 Cu 0.69142 0.87476 0.39654 0.0
N300 N 0.72498 0.87329 0.38847 0.0
N301 N 0.76312 0.8589 0.38886 0.0
C302 C 0.7396 0.85479 0.39813 0.0
C303 C 0.76328 0.88085 0.37268 0.0
C304 C 0.73966 0.88962 0.37231 0.0
O305 O 0.67543 0.85072 0.36627 0.0
C306 C 0.66753 0.87405 0.46122 0.0
O307 O 0.64948 0.88482 0.44515 0.0
H308 H 0.73313 0.8389 0.41233 0.0
H309 H 0.73363 0.90667 0.36104 0.0
N310 N 0.67979 0.9062 0.38633 0.0
N311 N 0.67643 0.94695 0.3789 0.0
C312 C 0.69001 0.92872 0.39238 0.0
C313 C 0.659 0.91042 0.36905 0.0
C314 C 0.6569 0.93545 0.36437 0.0
C315 C 0.67887 0.85312 0.33439 0.0
O316 O 0.69266 0.87163 0.32368 0.0
H317 H 0.70735 0.9316 0.40537 0.0
H318 H 0.64642 0.89618 0.36004 0.0
O319 O 0.68638 0.86757 0.44456 0.0
H320 H 0.77927 0.88983 0.36173 0.0
H321 H 0.6421 0.9445 0.35121 0.0
Cu322 Cu 0.13191 0.72762 0.40448 0.0
N323 N 0.13602 0.76069 0.39277 0.0
N324 N 0.15506 0.79721 0.38659 0.0
C325 C 0.15724 0.77344 0.39612 0.0
C326 C 0.13145 0.7995 0.37684 0.0
C327 C 0.11973 0.77685 0.38056 0.0
O328 O 0.15122 0.70805 0.37349 0.0
C329 C 0.13516 0.70886 0.4719 0.0
O330 O 0.11914 0.69202 0.46159 0.0
H331 H 0.17383 0.76546 0.40612 0.0
H332 H 0.10073 0.77253 0.37485 0.0
N333 N 0.09916 0.71741 0.40082 0.0
N334 N 0.05821 0.71622 0.40342 0.0
C335 C 0.07889 0.72942 0.41056 0.0
C336 C 0.09112 0.6959 0.38728 0.0
C337 C 0.0659 0.6951 0.38882 0.0
C338 C 0.14776 0.71094 0.34179 0.0
O339 O 0.13143 0.72694 0.33169 0.0
H340 H 0.07935 0.74742 0.42266 0.0
H341 H 0.10284 0.68189 0.37669 0.0
O342 O 0.14329 0.72475 0.45091 0.0
H343 H 0.12328 0.81626 0.36747 0.0
H344 H 0.05415 0.68039 0.37904 0.0
Cu345 Cu 0.31982 0.13823 0.3789 0.0
N346 N 0.28618 0.14241 0.37321 0.0
N347 N 0.24853 0.15767 0.37795 0.0
C348 C 0.27262 0.16126 0.38469 0.0
C349 C 0.24692 0.13577 0.36146 0.0
C350 C 0.27019 0.12645 0.3585 0.0
O351 O 0.33725 0.16036 0.34784 0.0
C352 C 0.3271 0.16265 0.44366 0.0
O353 O 0.32425 0.18345 0.42714 0.0
H354 H 0.28012 0.17685 0.39876 0.0
H355 H 0.27508 0.10904 0.34693 0.0
N356 N 0.32722 0.10565 0.36801 0.0
N357 N 0.32769 0.06444 0.37123 0.0
C358 C 0.31806 0.0855 0.38362 0.0
C359 C 0.34324 0.0972 0.34493 0.0
C360 C 0.34351 0.07175 0.34677 0.0
C361 C 0.33196 0.15812 0.31637 0.0
O362 O 0.31533 0.14153 0.30723 0.0
H363 H 0.30465 0.0864 0.4038 0.0
H364 H 0.35433 0.10873 0.32845 0.0
O365 O 0.32722 0.14238 0.42714 0.0
H366 H 0.23012 0.12704 0.35244 0.0
H367 H 0.3551 0.05969 0.33205 0.0
Cu368 Cu 0.62317 0.77278 0.89918 0.0
N369 N 0.63424 0.74053 0.89485 0.0
N370 N 0.65844 0.70784 0.89888 0.0
C371 C 0.65752 0.73273 0.89741 0.0
C372 C 0.63495 0.69974 0.897 0.0
C373 C 0.62008 0.71992 0.89462 0.0
O374 O 0.64102 0.79437 0.86797 0.0
C375 C 0.6218 0.80039 0.96327 0.0
O376 O 0.61295 0.81929 0.9467 0.0
H377 H 0.67323 0.74504 0.90045 0.0
H378 H 0.60025 0.7196 0.89473 0.0
N379 N 0.58996 0.77269 0.88739 0.0
N380 N 0.54954 0.77843 0.88771 0.0
C381 C 0.57114 0.78387 0.90305 0.0
C382 C 0.57985 0.76005 0.8612 0.0
C383 C 0.55493 0.76346 0.86142 0.0
C384 C 0.64278 0.78772 0.83694 0.0
O385 O 0.63361 0.76613 0.82766 0.0
H386 H 0.57307 0.79524 0.92557 0.0
H387 H 0.58986 0.74875 0.84346 0.0
O388 O 0.62748 0.78087 0.94712 0.0
H389 H 0.62891 0.68061 0.89854 0.0
H390 H 0.5418 0.75571 0.84349 0.0
Cu391 Cu 0.21633 0.63659 0.90273 0.0
N392 N 0.24988 0.63879 0.89511 0.0
N393 N 0.28696 0.65681 0.89308 0.0
C394 C 0.2632 0.65932 0.90169 0.0
C395 C 0.28865 0.63354 0.88076 0.0
C396 C 0.26564 0.62244 0.88198 0.0
O397 O 0.20056 0.65995 0.87294 0.0
C398 C 0.19529 0.63607 0.96939 0.0
O399 O 0.17962 0.61955 0.95727 0.0
H400 H 0.25541 0.67577 0.91274 0.0
H401 H 0.26069 0.60398 0.87349 0.0
N402 N 0.2035 0.60525 0.8927 0.0
N403 N 0.19594 0.56459 0.8894 0.0
C404 C 0.21089 0.5826 0.90215 0.0
C405 C 0.18327 0.60143 0.87375 0.0
C406 C 0.17855 0.5765 0.87166 0.0
C407 C 0.20523 0.65893 0.84129 0.0
O408 O 0.22086 0.6425 0.83025 0.0
H409 H 0.22685 0.57945 0.91784 0.0
H410 H 0.17247 0.6159 0.86258 0.0
O411 O 0.21138 0.64554 0.94987 0.0
H412 H 0.30514 0.62531 0.87082 0.0
H413 H 0.16308 0.5679 0.85873 0.0
Cu414 Cu 0.38498 0.23443 0.87436 0.0
N415 N 0.37455 0.26717 0.87315 0.0
N416 N 0.35377 0.30186 0.88244 0.0
C417 C 0.35399 0.27702 0.88616 0.0
C418 C 0.3749 0.30773 0.86635 0.0
C419 C 0.38763 0.28637 0.86072 0.0
O420 O 0.36533 0.21327 0.84404 0.0
C421 C 0.3657 0.21774 0.93819 0.0
O422 O 0.3443 0.21765 0.92277 0.0
H423 H 0.33986 0.2663 0.89889 0.0
H424 H 0.40541 0.28499 0.8488 0.0
N425 N 0.41744 0.23394 0.85945 0.0
N426 N 0.45837 0.23214 0.86011 0.0
C427 C 0.43757 0.23069 0.87868 0.0
C428 C 0.42573 0.23751 0.82766 0.0
C429 C 0.45097 0.23646 0.82798 0.0
C430 C 0.3595 0.22075 0.81446 0.0
O431 O 0.36542 0.24347 0.8057 0.0
H432 H 0.43695 0.22766 0.90581 0.0
H433 H 0.41426 0.24078 0.80578 0.0
O434 O 0.38488 0.22349 0.92144 0.0
H435 H 0.38074 0.32616 0.85904 0.0
H436 H 0.46289 0.2383 0.80616 0.0
Cu437 Cu 0.81243 0.37757 0.90894 0.0
N438 N 0.77918 0.37654 0.89745 0.0
N439 N 0.74117 0.36107 0.89034 0.0
C440 C 0.76353 0.35776 0.9044 0.0
C441 C 0.74291 0.38293 0.87402 0.0
C442 C 0.76638 0.39236 0.87834 0.0
O443 O 0.82884 0.35376 0.8796 0.0
C444 C 0.83483 0.37376 0.97409 0.0
O445 O 0.85494 0.38031 0.95791 0.0
H446 H 0.76871 0.34181 0.91907 0.0
H447 H 0.77382 0.40911 0.86725 0.0
N448 N 0.82598 0.40908 0.90173 0.0
N449 N 0.83127 0.4501 0.90017 0.0
C450 C 0.81529 0.4312 0.9057 0.0
C451 C 0.84944 0.41419 0.89341 0.0
C452 C 0.85279 0.43948 0.89251 0.0
C453 C 0.82667 0.35664 0.8476 0.0
O454 O 0.81439 0.37568 0.83646 0.0
H455 H 0.79633 0.43343 0.91308 0.0
H456 H 0.86321 0.40043 0.88863 0.0
O457 O 0.8151 0.37027 0.95724 0.0
H458 H 0.72862 0.39109 0.85885 0.0
H459 H 0.86961 0.4493 0.88615 0.0
Cu460 Cu 0.63468 0.22912 0.19118 0.0
N461 N 0.64068 0.26196 0.2041 0.0
N462 N 0.66059 0.29809 0.21093 0.0
C463 C 0.66204 0.27441 0.20017 0.0
C464 C 0.63734 0.30058 0.22209 0.0
C465 C 0.62512 0.27822 0.21792 0.0
O466 O 0.65473 0.20839 0.22009 0.0
C467 C 0.63379 0.24291 0.12351 0.0
O468 O 0.62267 0.26165 0.13774 0.0
H469 H 0.67814 0.26632 0.18888 0.0
H470 H 0.6062 0.27415 0.22433 0.0
N471 N 0.60184 0.22028 0.19847 0.0
N472 N 0.56083 0.21926 0.19596 0.0
C473 C 0.58162 0.2315 0.18688 0.0
C474 C 0.59363 0.20027 0.21537 0.0
C475 C 0.56839 0.1996 0.21395 0.0
C476 C 0.65236 0.21108 0.25213 0.0
O477 O 0.63699 0.22764 0.26352 0.0
H478 H 0.5822 0.24805 0.17161 0.0
H479 H 0.60523 0.18697 0.22769 0.0
O480 O 0.64146 0.22565 0.14253 0.0
H481 H 0.62975 0.31726 0.23275 0.0
H482 H 0.55656 0.18581 0.2256 0.0
Cu483 Cu 0.82173 0.63487 0.19944 0.0
N484 N 0.78805 0.63465 0.2076 0.0
N485 N 0.74927 0.64739 0.2094 0.0
C486 C 0.77227 0.65228 0.19829 0.0
C487 C 0.75074 0.62583 0.22638 0.0
C488 C 0.77469 0.61809 0.22535 0.0
O489 O 0.8364 0.65884 0.23137 0.0
C490 C 0.83709 0.62934 0.12975 0.0
O491 O 0.84715 0.60885 0.14024 0.0
H492 H 0.77761 0.6683 0.18353 0.0
H493 H 0.78193 0.60178 0.23726 0.0
N494 N 0.83465 0.60382 0.20907 0.0
N495 N 0.84004 0.56315 0.21497 0.0
C496 C 0.82505 0.58098 0.20346 0.0
C497 C 0.85641 0.60028 0.22422 0.0
C498 C 0.85978 0.57532 0.22793 0.0
C499 C 0.83331 0.65493 0.26307 0.0
O500 O 0.82085 0.63511 0.27238 0.0
H501 H 0.80737 0.57755 0.19164 0.0
H502 H 0.86894 0.61492 0.23208 0.0
O503 O 0.82666 0.6434 0.15134 0.0
H504 H 0.73571 0.61655 0.23927 0.0
H505 H 0.87574 0.56681 0.23896 0.0
Cu506 Cu 0.37772 0.79512 0.18915 0.0
N507 N 0.37306 0.76097 0.19308 0.0
N508 N 0.35392 0.72404 0.19438 0.0
C509 C 0.35221 0.74821 0.18616 0.0
C510 C 0.37686 0.72163 0.20689 0.0
C511 C 0.38854 0.74441 0.20619 0.0
O512 O 0.35885 0.80965 0.22602 0.0
C513 C 0.37637 0.82338 0.1282 0.0
O514 O 0.39106 0.83863 0.14491 0.0
H515 H 0.33604 0.75668 0.17569 0.0
H516 H 0.40676 0.74872 0.2156 0.0
N517 N 0.411 0.8031 0.19538 0.0
N518 N 0.45195 0.80144 0.19341 0.0
C519 C 0.4305 0.79097 0.18306 0.0
C520 C 0.42046 0.82187 0.21404 0.0
C521 C 0.44567 0.82095 0.21279 0.0
C522 C 0.35668 0.83249 0.23314 0.0
O523 O 0.36596 0.84919 0.21253 0.0
H524 H 0.42896 0.77462 0.1672 0.0
H525 H 0.40986 0.83501 0.22831 0.0
O526 O 0.36757 0.80451 0.14344 0.0
H527 H 0.38443 0.70483 0.21703 0.0
H528 H 0.45835 0.83307 0.2263 0.0
Cu529 Cu 0.20793 0.38472 0.21671 0.0
N530 N 0.24128 0.37763 0.21755 0.0
N531 N 0.27725 0.3598 0.20804 0.0
C532 C 0.25259 0.35698 0.20717 0.0
C533 C 0.28156 0.38293 0.21975 0.0
C534 C 0.25936 0.39385 0.22563 0.0
O535 O 0.18924 0.36125 0.24452 0.0
C536 C 0.19905 0.36945 0.1471 0.0
O537 O 0.20558 0.34728 0.15663 0.0
H538 H 0.24303 0.34071 0.19763 0.0
H539 H 0.25659 0.41265 0.23401 0.0
N540 N 0.20475 0.41626 0.23541 0.0
N541 N 0.20248 0.45736 0.2386 0.0
C542 C 0.20076 0.43727 0.21822 0.0
C543 C 0.20901 0.42333 0.26776 0.0
C544 C 0.20767 0.44869 0.26979 0.0
C545 C 0.19769 0.35548 0.27361 0.0
O546 O 0.21941 0.36407 0.2827 0.0
H547 H 0.19762 0.43788 0.19108 0.0
H548 H 0.21355 0.41104 0.28828 0.0
O549 O 0.19757 0.38663 0.16924 0.0
H550 H 0.29947 0.39156 0.22297 0.0
H551 H 0.21039 0.4599 0.29238 0.0
Cu552 Cu 0.3898 0.23423 0.14568 0.0
N553 N 0.37128 0.26255 0.14105 0.0
N554 N 0.34638 0.2941 0.1503 0.0
C555 C 0.35438 0.27221 0.16195 0.0
C556 C 0.35857 0.29819 0.12103 0.0
C557 C 0.37386 0.27867 0.11538 0.0
O558 O 0.37559 0.21284 0.1805 0.0
C559 C 0.37015 0.21535 0.085 0.0
O560 O 0.34952 0.21818 0.10169 0.0
H561 H 0.34867 0.26383 0.18562 0.0
H562 H 0.38638 0.2765 0.09433 0.0
N563 N 0.42134 0.24466 0.15834 0.0
N564 N 0.46146 0.24612 0.17027 0.0
C565 C 0.44232 0.23184 0.15952 0.0
C566 C 0.42737 0.26768 0.16873 0.0
C567 C 0.45201 0.26865 0.1761 0.0
C568 C 0.37821 0.21819 0.21191 0.0
O569 O 0.39079 0.23819 0.22045 0.0
H570 H 0.44349 0.21255 0.15241 0.0
H571 H 0.41462 0.2827 0.17112 0.0
O572 O 0.39035 0.2193 0.10058 0.0
H573 H 0.3566 0.3142 0.10493 0.0
H574 H 0.46204 0.28464 0.18572 0.0
Cu575 Cu 0.80798 0.38832 0.18469 0.0
N576 N 0.77451 0.38796 0.19435 0.0
N577 N 0.73732 0.37123 0.20336 0.0
C578 C 0.76044 0.36737 0.19257 0.0
C579 C 0.73682 0.39541 0.21208 0.0
C580 C 0.75987 0.40567 0.20665 0.0
O581 O 0.82246 0.36336 0.21367 0.0
C582 C 0.83229 0.38122 0.12112 0.0
O583 O 0.8524 0.38649 0.1383 0.0
H584 H 0.76728 0.3498 0.1838 0.0
H585 H 0.76565 0.42445 0.21224 0.0
N586 N 0.82368 0.41834 0.19573 0.0
N587 N 0.83379 0.45788 0.20643 0.0
C588 C 0.81651 0.4421 0.19365 0.0
C589 C 0.8462 0.41931 0.2097 0.0
C590 C 0.85246 0.4435 0.21633 0.0
C591 C 0.8188 0.36549 0.24553 0.0
O592 O 0.80549 0.3839 0.25655 0.0
H593 H 0.79894 0.44766 0.1837 0.0
H594 H 0.85725 0.40334 0.21497 0.0
O595 O 0.8118 0.38073 0.13658 0.0
H596 H 0.72122 0.40482 0.22271 0.0
H597 H 0.86957 0.45001 0.22743 0.0
Cu598 Cu 0.62284 0.76535 0.17168 0.0
N599 N 0.63759 0.73451 0.17401 0.0
N600 N 0.66372 0.70367 0.1821 0.0
C601 C 0.65949 0.72802 0.18692 0.0
C602 C 0.64384 0.6947 0.16539 0.0
C603 C 0.62789 0.71373 0.16031 0.0
O604 O 0.63815 0.78846 0.20384 0.0
C605 C 0.61995 0.79549 0.11051 0.0
O606 O 0.61052 0.81316 0.12912 0.0
H607 H 0.67202 0.74087 0.19941 0.0
H608 H 0.61051 0.71264 0.14705 0.0
N609 N 0.58972 0.7606 0.18276 0.0
N610 N 0.54907 0.76437 0.18721 0.0
C611 C 0.57018 0.77462 0.17541 0.0
C612 C 0.58064 0.74111 0.20003 0.0
C613 C 0.55565 0.74332 0.20271 0.0
C614 C 0.63632 0.78457 0.23567 0.0
O615 O 0.62439 0.76472 0.24607 0.0
H616 H 0.57134 0.79178 0.16147 0.0
H617 H 0.59151 0.72633 0.2102 0.0
O618 O 0.62619 0.77535 0.12443 0.0
H619 H 0.6413 0.67586 0.15651 0.0
H620 H 0.54332 0.73068 0.21572 0.0
Cu621 Cu 0.20708 0.62908 0.18015 0.0
N622 N 0.24127 0.63114 0.18262 0.0
N623 N 0.27854 0.64908 0.18522 0.0
C624 C 0.25427 0.65161 0.19113 0.0
C625 C 0.28078 0.62588 0.17284 0.0
C626 C 0.25776 0.61493 0.1711 0.0
O627 O 0.19311 0.65288 0.21103 0.0
C628 C 0.20713 0.65004 0.11389 0.0
O629 O 0.22453 0.66483 0.12567 0.0
H630 H 0.24582 0.66833 0.2002 0.0
H631 H 0.25324 0.59695 0.16047 0.0
N632 N 0.19432 0.5981 0.1915 0.0
N633 N 0.18874 0.55816 0.20347 0.0
C634 C 0.20526 0.57695 0.20059 0.0
C635 C 0.17026 0.59249 0.18897 0.0
C636 C 0.16674 0.56791 0.19626 0.0
C637 C 0.19736 0.65047 0.24262 0.0
O638 O 0.21157 0.63252 0.25268 0.0
H639 H 0.22486 0.57514 0.20392 0.0
H640 H 0.1563 0.60541 0.18159 0.0
O641 O 0.19687 0.63459 0.13373 0.0
H642 H 0.29762 0.61779 0.16385 0.0
H643 H 0.14937 0.55792 0.19615 0.0
Cu644 Cu 0.38015 0.80342 0.91767 0.0
N645 N 0.37874 0.76931 0.91079 0.0
N646 N 0.36149 0.73185 0.90419 0.0
C647 C 0.35883 0.75497 0.91658 0.0
C648 C 0.38407 0.73159 0.89025 0.0
C649 C 0.39457 0.7548 0.89403 0.0
O650 O 0.35974 0.81637 0.8814 0.0
C651 C 0.37618 0.82841 0.98141 0.0
O652 O 0.38968 0.8456 0.96673 0.0
H653 H 0.3423 0.76178 0.92831 0.0
H654 H 0.41183 0.76099 0.88333 0.0
N655 N 0.41263 0.81459 0.91281 0.0
N656 N 0.45356 0.81413 0.91068 0.0
C657 C 0.43293 0.80155 0.91922 0.0
C658 C 0.42079 0.83634 0.9003 0.0
C659 C 0.44603 0.83613 0.89904 0.0
C660 C 0.35564 0.83874 0.8738 0.0
O661 O 0.36384 0.85662 0.89365 0.0
H662 H 0.43258 0.78294 0.92914 0.0
H663 H 0.4093 0.85106 0.89156 0.0
O664 O 0.36886 0.80984 0.96391 0.0
H665 H 0.39177 0.71628 0.8763 0.0
H666 H 0.45783 0.85044 0.88855 0.0
Cu667 Cu 0.20974 0.39012 0.93398 0.0
N668 N 0.24374 0.38865 0.92753 0.0
N669 N 0.28028 0.37164 0.91772 0.0
C670 C 0.25675 0.36766 0.92735 0.0
C671 C 0.28209 0.39618 0.91188 0.0
C672 C 0.25958 0.40656 0.91778 0.0
O673 O 0.19365 0.36925 0.89962 0.0
C674 C 0.20073 0.39566 1.00441 0.0
O675 O 0.20361 0.41918 0.99711 0.0
H676 H 0.24876 0.34972 0.93302 0.0
H677 H 0.25495 0.42556 0.91332 0.0
N678 N 0.1967 0.42129 0.92528 0.0
N679 N 0.1903 0.46095 0.91302 0.0
C680 C 0.20631 0.44449 0.92562 0.0
C681 C 0.17384 0.42348 0.91285 0.0
C682 C 0.16986 0.44777 0.90517 0.0
C683 C 0.20268 0.36761 0.86981 0.0
O684 O 0.22434 0.37748 0.86357 0.0
H685 H 0.22471 0.4492 0.93389 0.0
H686 H 0.16116 0.40819 0.90865 0.0
O687 O 0.20213 0.37973 0.98051 0.0
H688 H 0.29812 0.40581 0.90216 0.0
H689 H 0.15336 0.45516 0.89407 0.0
Cu690 Cu 0.63069 0.22589 0.9099 0.0
N691 N 0.63738 0.25834 0.89595 0.0
N692 N 0.65968 0.29299 0.88866 0.0
C693 C 0.6581 0.27084 0.90422 0.0
C694 C 0.63901 0.29451 0.86989 0.0
C695 C 0.62537 0.27304 0.87425 0.0
O696 O 0.64801 0.20411 0.879 0.0
C697 C 0.63045 0.2394 0.97661 0.0
O698 O 0.61559 0.25534 0.96263 0.0
H699 H 0.67195 0.26351 0.92094 0.0
H700 H 0.6085 0.26816 0.86127 0.0
N701 N 0.59753 0.21662 0.90831 0.0
N702 N 0.55681 0.21452 0.90183 0.0
C703 C 0.57733 0.22868 0.89825 0.0
C704 C 0.58947 0.19427 0.91857 0.0
C705 C 0.56444 0.19289 0.91464 0.0
C706 C 0.6417 0.20507 0.84781 0.0
O707 O 0.62417 0.22016 0.83901 0.0
H708 H 0.57749 0.24744 0.889 0.0
H709 H 0.60114 0.17988 0.92812 0.0
O710 O 0.64045 0.22338 0.9575 0.0
H711 H 0.63459 0.30953 0.85301 0.0
H712 H 0.55284 0.17699 0.92009 0.0
Cu713 Cu 0.81183 0.62568 0.91902 0.0
N714 N 0.77869 0.63141 0.92583 0.0
N715 N 0.74096 0.64704 0.92533 0.0
C716 C 0.76486 0.65079 0.91707 0.0
C717 C 0.74005 0.62438 0.93968 0.0
C718 C 0.76324 0.61491 0.93999 0.0
O719 O 0.8254 0.64909 0.88593 0.0
C720 C 0.82218 0.64344 0.98506 0.0
O721 O 0.80829 0.66163 0.97494 0.0
H722 H 0.77227 0.66711 0.90482 0.0
H723 H 0.76851 0.59697 0.94928 0.0
N724 N 0.81265 0.59417 0.89952 0.0
N725 N 0.81404 0.55338 0.89119 0.0
C726 C 0.81971 0.57235 0.91245 0.0
C727 C 0.80241 0.58875 0.86923 0.0
C728 C 0.8032 0.56366 0.86403 0.0
C729 C 0.84418 0.64301 0.86873 0.0
O730 O 0.85528 0.62238 0.87639 0.0
H731 H 0.82781 0.57028 0.93738 0.0
H732 H 0.79421 0.60217 0.85259 0.0
O733 O 0.82753 0.62647 0.96381 0.0
H734 H 0.72378 0.61481 0.94866 0.0
H735 H 0.79616 0.55366 0.84211 0.0
C736 C 0.20582 0.16224 0.39735 0.0
C737 C 0.22857 0.17297 0.3887 0.0
H738 H 0.16959 0.168 0.41632 0.0
C739 C 0.23174 0.19874 0.39168 0.0
H740 H 0.20288 0.14244 0.39559 0.0
C741 C 0.2126 0.21342 0.40347 0.0
C742 C 0.19008 0.20255 0.41298 0.0
H743 H 0.24902 0.20752 0.38491 0.0
H744 H 0.21561 0.23317 0.40603 0.0
C745 C 0.18684 0.17684 0.40953 0.0
C746 C 0.79476 0.18498 0.39061 0.0
C747 C 0.80045 0.15986 0.39441 0.0
H748 H 0.8082 0.22218 0.38622 0.0
C749 C 0.8253 0.15338 0.39681 0.0
H750 H 0.77595 0.19075 0.38794 0.0
C751 C 0.84389 0.17153 0.39562 0.0
C752 C 0.83812 0.19664 0.39213 0.0
H753 H 0.83043 0.13431 0.40014 0.0
H754 H 0.86278 0.16592 0.39806 0.0
C755 C 0.81332 0.2031 0.38957 0.0
C756 C 0.82681 0.83981 0.41168 0.0
C757 C 0.82382 0.8141 0.41524 0.0
H758 H 0.80985 0.8742 0.40039 0.0
C759 C 0.80079 0.8032 0.40836 0.0
H760 H 0.84444 0.84868 0.41642 0.0
C761 C 0.78093 0.81785 0.39924 0.0
C762 C 0.78382 0.84364 0.39641 0.0
H763 H 0.79795 0.78345 0.41105 0.0
H764 H 0.76328 0.80902 0.39454 0.0
C765 C 0.80707 0.8544 0.40219 0.0
C766 C 0.19877 0.80973 0.38406 0.0
C767 C 0.17401 0.81608 0.38768 0.0
H768 H 0.23613 0.82213 0.38337 0.0
C769 C 0.16819 0.84095 0.39335 0.0
H770 H 0.20383 0.79081 0.37901 0.0
C771 C 0.18678 0.85899 0.39612 0.0
C772 C 0.21161 0.85257 0.39309 0.0
H773 H 0.14931 0.84638 0.3966 0.0
H774 H 0.18166 0.87786 0.40142 0.0
C775 C 0.21732 0.82773 0.38665 0.0
C776 C 0.19694 0.81093 0.69389 0.0
C777 C 0.17217 0.81774 0.69488 0.0
H778 H 0.23447 0.82268 0.69625 0.0
C779 C 0.16663 0.84285 0.69957 0.0
H780 H 0.20198 0.79187 0.68995 0.0
C781 C 0.18543 0.8607 0.70284 0.0
C782 C 0.21018 0.85385 0.70124 0.0
H783 H 0.14777 0.84873 0.70076 0.0
H784 H 0.18058 0.87989 0.70595 0.0
C785 C 0.21566 0.82871 0.69702 0.0
C786 C 0.21491 0.21003 0.68276 0.0
C787 C 0.20902 0.18863 0.66393 0.0
H788 H 0.20137 0.24176 0.70905 0.0
C789 C 0.18421 0.18217 0.65876 0.0
H790 H 0.23386 0.21548 0.68701 0.0
C791 C 0.16565 0.19709 0.67151 0.0
C792 C 0.17154 0.21894 0.68932 0.0
H793 H 0.17915 0.1656 0.64473 0.0
H794 H 0.14671 0.19197 0.66643 0.0
C795 C 0.19634 0.22512 0.69514 0.0
C796 C 0.81026 0.14631 0.6894 0.0
C797 C 0.78651 0.1544 0.69681 0.0
H798 H 0.84746 0.15656 0.67849 0.0
C799 C 0.78266 0.1799 0.70109 0.0
H800 H 0.81384 0.12685 0.68587 0.0
C801 C 0.80194 0.19696 0.69673 0.0
C802 C 0.82541 0.18889 0.68776 0.0
H803 H 0.76466 0.18669 0.70737 0.0
H804 H 0.79824 0.21649 0.69909 0.0
C805 C 0.82947 0.16336 0.68484 0.0
C806 C 0.8035 0.80863 0.70511 0.0
C807 C 0.82731 0.81812 0.69937 0.0
H808 H 0.76501 0.81597 0.70656 0.0
C809 C 0.83004 0.84294 0.68926 0.0
H810 H 0.80066 0.78973 0.71324 0.0
C811 C 0.80963 0.85797 0.68567 0.0
C812 C 0.78591 0.84859 0.6918 0.0
H813 H 0.84794 0.85082 0.68381 0.0
H814 H 0.81243 0.87693 0.67772 0.0
C815 C 0.78303 0.82368 0.70129 0.0
C816 C 0.70241 0.69878 0.89153 0.0
C817 C 0.67951 0.69309 0.90598 0.0
H818 H 0.73982 0.68843 0.88559 0.0
C819 C 0.67734 0.67272 0.92767 0.0
H820 H 0.70448 0.71443 0.87469 0.0
C821 C 0.69752 0.65807 0.93449 0.0
C822 C 0.72044 0.66312 0.91934 0.0
H823 H 0.66002 0.66828 0.93978 0.0
H824 H 0.69494 0.64284 0.95181 0.0
C825 C 0.72265 0.68384 0.89792 0.0
C826 C 0.29986 0.70073 0.89646 0.0
C827 C 0.306 0.67558 0.89566 0.0
H828 H 0.31254 0.73816 0.89952 0.0
C829 C 0.33089 0.66924 0.89765 0.0
H830 H 0.28101 0.70643 0.89412 0.0
C831 C 0.34913 0.68766 0.90061 0.0
C832 C 0.34284 0.71275 0.90179 0.0
H833 H 0.33626 0.65008 0.8974 0.0
H834 H 0.36813 0.68228 0.9024 0.0
C835 C 0.318 0.71903 0.8996 0.0
C836 C 0.34175 0.34341 0.90196 0.0
C837 C 0.33527 0.31888 0.89354 0.0
H838 H 0.32955 0.37913 0.91707 0.0
C839 C 0.31045 0.31158 0.8951 0.0
H840 H 0.36076 0.3495 0.90177 0.0
C841 C 0.29242 0.32868 0.90375 0.0
C842 C 0.29886 0.35345 0.91121 0.0
H843 H 0.30486 0.29288 0.88854 0.0
H844 H 0.27342 0.32262 0.90346 0.0
C845 C 0.32381 0.36043 0.91076 0.0
C846 C 0.70397 0.30212 0.8963 0.0
C847 C 0.68009 0.31032 0.88973 0.0
H848 H 0.74198 0.31149 0.90102 0.0
C849 C 0.6766 0.33561 0.88374 0.0
H850 H 0.70745 0.28273 0.90036 0.0
C851 C 0.69653 0.35228 0.88425 0.0
C852 C 0.72046 0.34403 0.89063 0.0
H853 H 0.65841 0.34258 0.87899 0.0
H854 H 0.69311 0.37165 0.87992 0.0
C855 C 0.72386 0.31871 0.89669 0.0
C856 C 0.70456 0.3099 0.2112 0.0
C857 C 0.67982 0.31673 0.21006 0.0
H858 H 0.74208 0.32171 0.21078 0.0
C859 C 0.67426 0.34196 0.20756 0.0
H860 H 0.70951 0.29072 0.21385 0.0
C861 C 0.69305 0.35988 0.20565 0.0
C862 C 0.71782 0.35296 0.20623 0.0
H863 H 0.6554 0.34784 0.20629 0.0
H864 H 0.68816 0.37907 0.20298 0.0
C865 C 0.72328 0.32775 0.20938 0.0
C866 C 0.72951 0.68758 0.19852 0.0
C867 C 0.72764 0.66193 0.20398 0.0
H868 H 0.7106 0.72105 0.18743 0.0
C869 C 0.70428 0.65059 0.2036 0.0
H870 H 0.74719 0.69697 0.19911 0.0
C871 C 0.68337 0.6644 0.19717 0.0
C872 C 0.68525 0.68994 0.19103 0.0
H873 H 0.70214 0.63089 0.20749 0.0
H874 H 0.66569 0.65501 0.19687 0.0
C875 C 0.70852 0.70146 0.19224 0.0
C876 C 0.32248 0.66159 0.18956 0.0
C877 C 0.29757 0.66797 0.18808 0.0
H878 H 0.35982 0.67422 0.19216 0.0
C879 C 0.29164 0.69319 0.18873 0.0
H880 H 0.32783 0.64243 0.18941 0.0
C881 C 0.31002 0.71147 0.19077 0.0
C882 C 0.33492 0.70511 0.19209 0.0
H883 H 0.27279 0.69901 0.1872 0.0
H884 H 0.30459 0.73059 0.19163 0.0
C885 C 0.34089 0.67989 0.19149 0.0
C886 C 0.29165 0.31733 0.19765 0.0
C887 C 0.29511 0.34303 0.19483 0.0
H888 H 0.30568 0.28142 0.18588 0.0
C889 C 0.31598 0.35226 0.17798 0.0
H890 H 0.27576 0.3098 0.21066 0.0
C891 C 0.33282 0.33617 0.16366 0.0
C892 C 0.32934 0.31048 0.16622 0.0
H893 H 0.31898 0.37196 0.17508 0.0
H894 H 0.34865 0.34381 0.1506 0.0
C895 C 0.30878 0.30117 0.18373 0.0
C896 C 0.99957 0.30774 0.40908 0.0
C897 C 0.98091 0.2895 0.40705 0.0
H898 H 0.03813 0.31563 0.41279 0.0
C899 C 0.98743 0.26454 0.40906 0.0
H900 H 0.99519 0.32716 0.40813 0.0
C901 C 0.01202 0.25796 0.41199 0.0
C902 C 0.03075 0.27616 0.41308 0.0
H903 H 0.97359 0.25001 0.40742 0.0
H904 H 0.01637 0.23854 0.41321 0.0
C905 C 0.0242 0.30116 0.41214 0.0
C906 C 0.69591 0.01121 0.40618 0.0
C907 C 0.68724 0.02529 0.37883 0.0
H908 H 0.69916 0.97491 0.42773 0.0
C909 C 0.67704 0.01286 0.3506 0.0
H910 H 0.70384 0.02023 0.4283 0.0
C911 C 0.67422 0.98723 0.3504 0.0
C912 C 0.68169 0.97317 0.37831 0.0
H913 H 0.67084 0.02301 0.32867 0.0
H914 H 0.66593 0.97838 0.3284 0.0
C915 C 0.6932 0.98531 0.40588 0.0
C916 C 0.0141 0.7059 0.41076 0.0
C917 C 0.03313 0.72367 0.4081 0.0
H918 H 0.97539 0.69897 0.41419 0.0
C919 C 0.02714 0.74883 0.40873 0.0
H920 H 0.01808 0.68638 0.41084 0.0
C921 C 1.0027 0.75602 0.41094 0.0
C922 C 0.98361 0.73827 0.41262 0.0
H923 H 0.04125 0.76301 0.40652 0.0
H924 H 0.99877 0.77556 0.41111 0.0
C925 C 0.98962 0.71312 0.41306 0.0
C926 C 0.32403 0.99499 0.37453 0.0
C927 C 0.31619 0.99104 0.40808 0.0
H928 H 0.33369 0.02146 0.33637 0.0
C929 C 0.31144 0.01164 0.42878 0.0
H930 H 0.32796 0.97953 0.35797 0.0
C931 C 0.31495 0.03558 0.41659 0.0
C932 C 0.32325 0.03963 0.38327 0.0
H933 H 0.30501 0.00931 0.45456 0.0
H934 H 0.31165 0.05089 0.43366 0.0
C935 C 0.32757 0.01903 0.36228 0.0
C936 C 0.01396 0.70652 0.69498 0.0
C937 C 0.03299 0.72166 0.70803 0.0
H938 H 0.97519 0.70021 0.6907 0.0
C939 C 0.027 0.74303 0.72638 0.0
H940 H 0.01805 0.6901 0.68038 0.0
C941 C 1.00245 0.74877 0.73236 0.0
C942 C 0.98344 0.73344 0.7197 0.0
H943 H 0.04129 0.75496 0.73681 0.0
H944 H 0.99833 0.76522 0.7469 0.0
C945 C 0.98944 0.71243 0.70057 0.0
C946 C 0.32295 0.00993 0.6644 0.0
C947 C 0.30542 0.99168 0.67328 0.0
H948 H 0.33085 0.04843 0.65738 0.0
C949 C 0.28124 0.99896 0.67966 0.0
H950 H 0.34165 1.00501 0.65867 0.0
C951 C 0.27497 0.0239 0.67845 0.0
C952 C 0.29272 0.04226 0.6709 0.0
H953 H 0.26725 0.98553 0.68665 0.0
H954 H 0.25619 0.02875 0.68379 0.0
C955 C 0.31669 0.03489 0.66326 0.0
C956 C 0.00796 0.3129 0.72226 0.0
C957 C 0.0278 0.29797 0.7133 0.0
H958 H 0.96882 0.31573 0.72612 0.0
C959 C 0.02313 0.27435 0.69962 0.0
H960 H 0.01118 0.33121 0.73274 0.0
C961 C 0.99907 0.26541 0.69639 0.0
C962 C 0.97924 0.2801 0.70614 0.0
H963 H 0.03813 0.26243 0.69281 0.0
H964 H 0.99591 0.24689 0.68663 0.0
C965 C 0.98384 0.30415 0.71834 0.0
C966 C 0.6612 0.00935 0.72497 0.0
C967 C 0.6723 0.02337 0.69911 0.0
H968 H 0.6518 0.97354 0.74371 0.0
C969 C 0.68354 0.01093 0.67197 0.0
H970 H 0.65297 0.01827 0.74671 0.0
C971 C 0.68286 0.985 0.67022 0.0
C972 C 0.67091 0.97111 0.69559 0.0
H973 H 0.69217 0.02121 0.65161 0.0
H974 H 0.69103 0.97588 0.64859 0.0
C975 C 0.6605 0.98363 0.72322 0.0
C976 C 0.50505 0.77115 0.89289 0.0
C977 C 0.52558 0.7869 0.8968 0.0
H978 H 0.46597 0.76745 0.89464 0.0
C979 C 0.5222 0.81133 0.90781 0.0
H980 H 0.50724 0.75217 0.88473 0.0
C981 C 0.49854 0.82017 0.91326 0.0
C982 C 0.47796 0.80456 0.90842 0.0
H983 H 0.53777 0.82383 0.91085 0.0
H984 H 0.49625 0.83927 0.92074 0.0
C985 C 0.48149 0.77982 0.89889 0.0
C986 C 0.20673 0.5024 0.929 0.0
C987 C 0.19432 0.48675 0.90591 0.0
H988 H 0.21672 0.53981 0.94214 0.0
C989 C 0.18456 0.49683 0.87616 0.0
H990 H 0.21442 0.49499 0.95211 0.0
C991 C 0.18608 0.52215 0.87024 0.0
C992 C 0.19716 0.53819 0.89412 0.0
H993 H 0.17546 0.48508 0.85754 0.0
H994 H 0.1782 0.52917 0.84705 0.0
C995 C 0.20806 0.52799 0.92323 0.0
C996 C 0.48802 0.21376 0.89983 0.0
C997 C 0.48319 0.22891 0.8718 0.0
H998 H 0.51521 0.19754 0.93153 0.0
C999 C 0.50304 0.2403 0.85487 0.0
H1000 H 0.4732 0.2046 0.9133 0.0
C1001 C 0.52718 0.2362 0.8653 0.0
C1002 C 0.53199 0.22044 0.89268 0.0
H1003 H 0.49991 0.25233 0.83347 0.0
H1004 H 0.5421 0.24476 0.85129 0.0
C1005 C 0.51212 0.20953 0.91007 0.0
C1006 C 0.80381 0.48476 0.88812 0.0
C1007 C 0.82626 0.47615 0.90048 0.0
H1008 H 0.78243 0.51629 0.87535 0.0
C1009 C 0.84412 0.4934 0.91168 0.0
H1010 H 0.7898 0.47189 0.87915 0.0
C1011 C 0.83976 0.51881 0.90996 0.0
C1012 C 0.8177 0.52738 0.89628 0.0
H1013 H 0.86151 0.4872 0.92157 0.0
H1014 H 0.85394 0.53179 0.91811 0.0
C1015 C 0.79967 0.51011 0.88573 0.0
C1016 C 0.50564 0.25692 0.17466 0.0
C1017 C 0.48663 0.23904 0.17536 0.0
H1018 H 0.5439 0.26482 0.18102 0.0
C1019 C 0.49259 0.21435 0.18201 0.0
H1020 H 0.50184 0.27605 0.16912 0.0
C1021 C 0.5169 0.20783 0.18844 0.0
C1022 C 0.53584 0.22582 0.18834 0.0
H1023 H 0.47845 0.20012 0.18296 0.0
H1024 H 0.5208 0.18865 0.19343 0.0
C1025 C 0.5299 0.25042 0.1811 0.0
C1026 C 0.82241 0.52505 0.18818 0.0
C1027 C 0.83627 0.53666 0.21411 0.0
H1028 H 0.8108 0.49061 0.16524 0.0
C1029 C 0.84743 0.52186 0.23873 0.0
H1030 H 0.81362 0.53594 0.1688 0.0
C1031 C 0.84583 0.49616 0.23668 0.0
C1032 C 0.83302 0.48443 0.20996 0.0
H1033 H 0.85763 0.53013 0.25958 0.0
H1034 H 0.85488 0.48542 0.25599 0.0
C1035 C 0.82078 0.49913 0.18613 0.0
C1036 C 0.49676 0.80861 0.1885 0.0
C1037 C 0.47639 0.79231 0.18834 0.0
H1038 H 0.53599 0.81247 0.18798 0.0
C1039 C 0.48038 0.76681 0.18529 0.0
H1040 H 0.49424 0.82837 0.19045 0.0
C1041 C 0.50422 0.75776 0.18395 0.0
C1042 C 0.52461 0.77398 0.1853 0.0
H1043 H 0.46512 0.75376 0.18531 0.0
H1044 H 0.50673 0.73798 0.18234 0.0
C1045 C 0.52064 0.79955 0.18679 0.0
C1046 C 0.21393 0.50158 0.2446 0.0
C1047 C 0.19977 0.48277 0.22893 0.0
H1048 H 0.22174 0.54054 0.24825 0.0
C1049 C 0.18267 0.48914 0.20391 0.0
H1050 H 0.22744 0.49711 0.2637 0.0
C1051 C 0.1793 0.51385 0.19536 0.0
C1052 C 0.19324 0.53269 0.21125 0.0
H1053 H 0.17148 0.47503 0.19156 0.0
H1054 H 0.16578 0.51827 0.17626 0.0
C1055 C 0.21086 0.52633 0.23559 0.0
C1056 C 0.10589 0.33463 0.54438 0.0
C1057 C 0.12125 0.31681 0.52984 0.0
H1058 H 0.09267 0.35144 0.59016 0.0
C1059 C 0.13675 0.30341 0.55132 0.0
H1060 H 0.09374 0.3453 0.5286 0.0
C1061 C 0.13633 0.3071 0.58651 0.0
C1062 C 0.12021 0.32413 0.60125 0.0
H1063 H 0.14894 0.28966 0.54102 0.0
H1064 H 0.1481 0.29594 0.60221 0.0
C1065 C 0.10529 0.33815 0.57971 0.0
C1066 C 0.65644 0.11145 0.558 0.0
C1067 C 0.6753 0.12126 0.57871 0.0
H1068 H 0.64394 0.10341 0.5075 0.0
C1069 C 0.69612 0.13184 0.56303 0.0
H1070 H 0.64013 0.1032 0.56915 0.0
C1071 C 0.69836 0.13186 0.52758 0.0
C1072 C 0.6798 0.1214 0.50691 0.0
H1073 H 0.71101 0.13956 0.57815 0.0
H1074 H 0.71487 0.13968 0.51642 0.0
C1075 C 0.65864 0.11157 0.52257 0.0
C1076 C 0.88852 0.72051 0.55216 0.0
C1077 C 0.86638 0.71973 0.53368 0.0
H1078 H 0.90569 0.72201 0.60126 0.0
C1079 C 0.8442 0.71775 0.55175 0.0
H1080 H 0.90595 0.72205 0.53913 0.0
C1081 C 0.84405 0.7177 0.5873 0.0
C1082 C 0.86607 0.7197 0.60587 0.0
H1083 H 0.82679 0.71699 0.53845 0.0
H1084 H 0.82652 0.71691 0.60021 0.0
C1085 C 0.88836 0.72052 0.58784 0.0
C1086 C 0.29319 0.86273 0.5768 0.0
C1087 C 0.31618 0.87239 0.58703 0.0
H1088 H 0.26871 0.85484 0.53543 0.0
C1089 C 0.33368 0.87806 0.56188 0.0
H1090 H 0.27928 0.85798 0.59539 0.0
C1091 C 0.32766 0.87593 0.52732 0.0
C1092 C 0.30392 0.86835 0.51727 0.0
H1093 H 0.35161 0.8854 0.56883 0.0
H1094 H 0.34102 0.88189 0.50862 0.0
C1095 C 0.2871 0.8609 0.54236 0.0
C1096 C 0.1294 0.69663 0.53274 0.0
C1097 C 0.14138 0.71139 0.50843 0.0
H1098 H 0.12277 0.68996 0.58546 0.0
C1099 C 0.15797 0.72992 0.51956 0.0
H1100 H 0.11658 0.68214 0.52506 0.0
C1101 C 0.16157 0.73438 0.55424 0.0
C1102 C 0.14859 0.72048 0.57855 0.0
H1103 H 0.16763 0.74154 0.5015 0.0
H1104 H 0.17385 0.74933 0.56192 0.0
C1105 C 0.13293 0.70115 0.56741 0.0
C1106 C 0.32474 0.18448 0.50006 0.0
C1107 C 0.32683 0.16236 0.48149 0.0
H1108 H 0.31916 0.20147 0.54855 0.0
C1109 C 0.32667 0.13985 0.49936 0.0
H1110 H 0.32487 0.20215 0.48726 0.0
C1111 C 0.32335 0.13945 0.53468 0.0
C1112 C 0.32012 0.16153 0.55299 0.0
H1113 H 0.32827 0.12243 0.48594 0.0
H1114 H 0.32247 0.12176 0.54742 0.0
C1115 C 0.32145 0.18407 0.53532 0.0
C1116 C 0.89555 0.30916 0.53737 0.0
C1117 C 0.87876 0.30074 0.51253 0.0
H1118 H 0.9047 0.31115 0.59029 0.0
C1119 C 0.85676 0.28932 0.52316 0.0
H1120 H 0.91268 0.31808 0.53013 0.0
C1121 C 0.85211 0.28552 0.55771 0.0
C1122 C 0.86944 0.29285 0.58246 0.0
H1123 H 0.84337 0.28271 0.50475 0.0
H1124 H 0.83528 0.27601 0.56488 0.0
C1125 C 0.891 0.30517 0.57192 0.0
C1126 C 0.68753 0.86247 0.55234 0.0
C1127 C 0.66736 0.87115 0.57093 0.0
H1128 H 0.70338 0.8564 0.50328 0.0
C1129 C 0.64667 0.87925 0.553 0.0
H1130 H 0.70376 0.85604 0.56526 0.0
C1131 C 0.64646 0.8795 0.51744 0.0
C1132 C 0.66692 0.87161 0.49884 0.0
H1133 H 0.63077 0.88601 0.56641 0.0
H1134 H 0.63041 0.88642 0.50456 0.0
C1135 C 0.6873 0.86267 0.51674 0.0
C1136 C 0.61285 0.81875 0.05597 0.0
C1137 C 0.62204 0.79803 0.073 0.0
H1138 H 0.60563 0.83591 1.00799 0.0
C1139 C 0.63247 0.779 0.05362 0.0
H1140 H 0.60474 0.83378 0.07008 0.0
C1141 C 0.633 0.78022 1.0182 0.0
C1142 C 0.62313 0.80053 1.00103 0.0
H1143 H 0.63986 0.7628 0.06577 0.0
H1144 H 0.64076 0.76492 1.00426 0.0
C1145 C 0.61339 0.81999 1.02036 0.0
C1146 C 0.18126 0.62855 1.02915 0.0
C1147 C 0.19609 0.6418 1.00622 0.0
H1148 H 0.17297 0.62087 0.08117 0.0
C1149 C 0.21295 0.65949 1.01903 0.0
H1150 H 0.16803 0.61487 1.02015 0.0
C1151 C 0.21576 0.66299 0.05402 0.0
C1152 C 0.20182 0.64884 0.077 0.0
H1153 H 0.22456 0.67015 1.00205 0.0
H1154 H 0.22948 0.67617 0.06301 0.0
C1155 C 0.18412 0.632 0.06417 0.0
C1156 C 0.39113 0.2147 1.02807 0.0
C1157 C 0.36958 0.21222 0.04745 0.0
H1158 H 0.40686 0.21832 0.97848 0.0
C1159 C 0.34703 0.20926 1.03033 0.0
H1160 H 0.40882 0.21702 1.04036 0.0
C1161 C 0.34589 0.21004 0.99483 0.0
C1162 C 0.36727 0.21384 0.9755 0.0
H1163 H 0.33006 0.2072 1.04438 0.0
H1164 H 0.3281 0.20851 0.98262 0.0
C1165 C 0.38998 0.21553 0.99253 0.0
C1166 C 0.85549 0.38006 0.066 0.0
C1167 C 0.83323 0.37734 0.08371 0.0
H1168 H 0.87349 0.38091 1.01772 0.0
C1169 C 0.81174 0.3718 0.06513 0.0
H1170 H 0.87241 0.38425 0.07945 0.0
C1171 C 0.81238 0.36978 1.02965 0.0
C1172 C 0.83451 0.37332 1.01186 0.0
H1173 H 0.79428 0.36946 0.07791 0.0
H1174 H 0.79538 0.36606 1.01614 0.0
C1175 C 0.85611 0.37811 1.03053 0.0
C1176 C 0.6435 0.22077 0.06822 0.0
C1177 C 0.63571 0.24195 0.08587 0.0
H1178 H 0.64816 0.20322 1.01944 0.0
C1179 C 0.62825 0.26251 0.06704 0.0
H1180 H 0.64942 0.20464 0.08199 0.0
C1181 C 0.62748 0.26167 1.03172 0.0
C1182 C 0.63424 0.24029 1.01394 0.0
H1183 H 0.62239 0.27927 0.07958 0.0
H1184 H 0.62107 0.27779 1.01834 0.0
C1185 C 0.64283 0.21997 1.03246 0.0
C1186 C 0.82358 0.65539 0.08039 0.0
C1187 C 0.83566 0.63446 0.09262 0.0
H1188 H 0.81014 0.67477 1.03707 0.0
C1189 C 0.845 0.61748 0.06886 0.0
H1190 H 0.81619 0.66888 0.09785 0.0
C1191 C 0.84147 0.6208 1.0339 0.0
C1192 C 0.82857 0.64124 1.02174 0.0
H1193 H 0.85447 0.60115 0.07727 0.0
H1194 H 0.84826 0.60696 1.01648 0.0
C1195 C 0.82013 0.65875 1.04543 0.0
C1196 C 0.38331 0.84802 1.03859 0.0
C1197 C 0.37288 0.82877 1.01893 0.0
H1198 H 0.39241 0.86154 0.08828 0.0
C1199 C 0.36132 0.80888 1.03578 0.0
H1200 H 0.39227 0.86369 1.02656 0.0
C1201 C 0.36137 0.80766 0.07136 0.0
C1202 C 0.37303 0.82628 0.09092 0.0
H1203 H 0.35303 0.79375 1.0215 0.0
H1204 H 0.35313 0.79163 0.08344 0.0
C1205 C 0.38341 0.84678 0.07409 0.0
C1206 C 0.19342 0.40615 0.06559 0.0
C1207 C 0.19768 0.38813 1.04048 0.0
H1208 H 0.19014 0.41442 0.11855 0.0
C1209 C 0.20039 0.36343 0.05062 0.0
H1210 H 0.19105 0.42533 0.05876 0.0
C1211 C 0.19994 0.35714 0.08518 0.0
C1212 C 0.19662 0.37538 0.11035 0.0
H1213 H 0.20368 0.34909 1.03197 0.0
H1214 H 0.20289 0.33808 0.09219 0.0
C1215 C 0.19282 0.39986 0.1 0.0
C1216 C 0.16138 0.32805 0.28805 0.0
C1217 C 0.18294 0.34067 0.29812 0.0
H1218 H 0.13125 0.3046 0.30301 0.0
C1219 C 0.19028 0.33943 0.33236 0.0
H1220 H 0.1552 0.32864 0.26192 0.0
C1221 C 0.17643 0.32597 0.35598 0.0
C1222 C 0.15503 0.31312 0.34591 0.0
H1223 H 0.20672 0.34904 0.3411 0.0
H1224 H 0.1827 0.32539 0.38208 0.0
C1225 C 0.14767 0.31428 0.31164 0.0
C1226 C 0.66134 0.19758 0.31168 0.0
C1227 C 0.66567 0.19531 0.27655 0.0
H1228 H 0.6691 0.18427 0.36169 0.0
C1229 C 0.68236 0.17758 0.26524 0.0
H1230 H 0.6486 0.21106 0.32133 0.0
C1231 C 0.69418 0.16228 0.28847 0.0
C1232 C 0.68953 0.16427 0.32355 0.0
H1233 H 0.68617 0.17537 0.23842 0.0
H1234 H 0.70676 0.14865 0.2788 0.0
C1235 C 0.67309 0.18222 0.33489 0.0
C1236 C 0.85543 0.69429 0.28086 0.0
C1237 C 0.84329 0.67212 0.28957 0.0
H1238 H 0.87376 0.72725 0.29851 0.0
C1239 C 0.84052 0.66642 0.32426 0.0
H1240 H 0.85787 0.69932 0.25448 0.0
C1241 C 0.84966 0.68239 0.34957 0.0
C1242 C 0.86176 0.70458 0.3409 0.0
H1243 H 0.83128 0.6495 0.33201 0.0
H1244 H 0.84721 0.67733 0.37594 0.0
C1245 C 0.8645 0.71034 0.30621 0.0
C1246 C 0.33576 0.8219 0.28804 0.0
C1247 C 0.34601 0.83987 0.26635 0.0
H1248 H 0.3191 0.81407 0.33602 0.0
C1249 C 0.34706 0.8646 0.27755 0.0
H1250 H 0.33468 0.80266 0.28036 0.0
C1251 C 0.33825 0.87115 0.30976 0.0
C1252 C 0.3281 0.85312 0.33146 0.0
H1253 H 0.35495 0.8789 0.26161 0.0
H1254 H 0.33933 0.89035 0.31758 0.0
C1255 C 0.32689 0.82844 0.32011 0.0
C1256 C 0.19669 0.67256 0.7818 0.0
C1257 C 0.19216 0.67476 0.81684 0.0
H1258 H 0.18709 0.68393 0.73158 0.0
C1259 C 0.17447 0.69155 0.828 0.0
H1260 H 0.21025 0.65985 0.77232 0.0
C1261 C 0.1612 0.70539 0.80458 0.0
C1262 C 0.16531 0.70273 0.7695 0.0
H1263 H 0.17057 0.69373 0.8548 0.0
H1264 H 0.14742 0.71788 0.81402 0.0
C1265 C 0.18341 0.68638 0.7584 0.0
C1266 C 0.33178 0.16303 0.773 0.0
C1267 C 0.3269 0.17123 0.7398 0.0
H1268 H 0.34573 0.17208 0.82256 0.0
C1269 C 0.33245 0.19595 0.73167 0.0
H1270 H 0.3277 0.14413 0.78024 0.0
C1271 C 0.34269 0.21202 0.75605 0.0
C1272 C 0.3477 0.20379 0.78919 0.0
H1273 H 0.32885 0.20296 0.70645 0.0
H1274 H 0.34682 0.23091 0.74877 0.0
C1275 C 0.34207 0.17909 0.79737 0.0
C1276 C 0.84331 0.32578 0.76404 0.0
C1277 C 0.8567 0.30525 0.77473 0.0
H1278 H 0.82352 0.35796 0.77844 0.0
C1279 C 0.86007 0.30163 0.80984 0.0
H1280 H 0.84036 0.3292 0.73727 0.0
C1281 C 0.85039 0.31821 0.83362 0.0
C1282 C 0.83714 0.33883 0.82284 0.0
H1283 H 0.87032 0.28602 0.81902 0.0
H1284 H 0.85336 0.31491 0.86041 0.0
C1285 C 0.83368 0.34233 0.78775 0.0
C1286 C 0.66206 0.81391 0.7515 0.0
C1287 C 0.67345 0.83637 0.76089 0.0
H1288 H 0.64366 0.7809 0.7681 0.0
C1289 C 0.67509 0.84252 0.79564 0.0
H1290 H 0.66053 0.80858 0.72502 0.0
C1291 C 0.66531 0.82673 0.82039 0.0
C1292 C 0.65382 0.80431 0.81101 0.0
H1293 H 0.68373 0.85971 0.80382 0.0
H1294 H 0.6667 0.83215 0.84685 0.0
C1295 C 0.65244 0.79802 0.77628 0.0
C1296 C 0.84762 0.6914 0.7984 0.0
C1297 C 0.86792 0.6833 0.77951 0.0
H1298 H 0.82421 0.68524 0.84157 0.0
C1299 C 0.88021 0.66213 0.79052 0.0
H1300 H 0.8378 0.70771 0.79077 0.0
C1301 C 0.87261 0.64946 0.81959 0.0
C1302 C 0.85242 0.6575 0.83863 0.0
H1303 H 0.89595 0.65533 0.7768 0.0
H1304 H 0.88264 0.63324 0.82704 0.0
C1305 C 0.83994 0.67861 0.82765 0.0
C1306 C 0.33063 0.82585 0.82293 0.0
C1307 C 0.34385 0.84434 0.84076 0.0
H1308 H 0.31033 0.81607 0.77803 0.0
C1309 C 0.34688 0.8677 0.82576 0.0
H1310 H 0.32801 0.80763 0.83373 0.0
C1311 C 0.33717 0.87237 0.79349 0.0
C1312 C 0.32386 0.85391 0.77573 0.0
H1313 H 0.35715 0.88227 0.83865 0.0
H1314 H 0.33985 0.89058 0.78267 0.0
C1315 C 0.32057 0.83065 0.79093 0.0
C1316 C 0.18506 0.34047 0.78429 0.0
C1317 C 0.16045 0.34748 0.78146 0.0
H1318 H 0.21785 0.34164 0.81459 0.0
C1319 C 0.14941 0.35978 0.80886 0.0
H1320 H 0.19393 0.33081 0.76363 0.0
C1321 C 0.16277 0.36504 0.8385 0.0
C1322 C 0.18761 0.35874 0.84088 0.0
H1323 H 0.13035 0.36506 0.80754 0.0
H1324 H 0.15394 0.37487 0.85904 0.0
C1325 C 0.19865 0.34647 0.81348 0.0
C1326 C 0.68155 0.15703 0.80535 0.0
C1327 C 0.67483 0.15934 0.77095 0.0
H1328 H 0.67649 0.16959 0.85655 0.0
C1329 C 0.65753 0.17714 0.76207 0.0
H1330 H 0.69488 0.14354 0.81311 0.0
C1331 C 0.64694 0.19202 0.78707 0.0
C1332 C 0.65347 0.18952 0.82152 0.0
H1333 H 0.65194 0.1794 0.73588 0.0
H1334 H 0.63352 0.20542 0.77933 0.0
C1335 C 0.67102 0.17197 0.83033 0.0
C1336 C 0.82551 0.3513 0.30529 0.0
C1337 C 0.82997 0.34838 0.27029 0.0
H1338 H 0.83302 0.33892 0.35578 0.0
C1339 C 0.84554 0.32944 0.25959 0.0
H1340 H 0.81356 0.36565 0.31447 0.0
C1341 C 0.85671 0.31407 0.28339 0.0
C1342 C 0.85255 0.31727 0.31842 0.0
H1343 H 0.84935 0.32666 0.23287 0.0
H1344 H 0.86884 0.29984 0.27427 0.0
C1345 C 0.83666 0.33594 0.32905 0.0
C1346 C 0.66083 0.82295 0.25039 0.0
C1347 C 0.64719 0.80213 0.26092 0.0
H1348 H 0.68145 0.85523 0.26516 0.0
C1349 C 0.64392 0.79825 0.296 0.0
H1350 H 0.66372 0.82655 0.22364 0.0
C1351 C 0.65405 0.81477 0.31992 0.0
C1352 C 0.66776 0.83555 0.30935 0.0
H1353 H 0.63349 0.78242 0.30507 0.0
H1354 H 0.6512 0.81121 0.34667 0.0
C1355 C 0.67101 0.83942 0.27428 0.0
C1356 C 0.17791 0.67808 0.32685 0.0
C1357 C 0.16123 0.69609 0.31649 0.0
H1358 H 0.20245 0.64962 0.31167 0.0
C1359 C 0.15716 0.69953 0.28157 0.0
H1360 H 0.1815 0.675 0.35355 0.0
C1361 C 0.16918 0.68502 0.25754 0.0
C1362 C 0.18553 0.66671 0.2679 0.0
H1363 H 0.14448 0.71331 0.2727 0.0
H1364 H 0.16541 0.68796 0.23086 0.0
C1365 C 0.18992 0.66354 0.30281 0.0
C1366 C 0.33986 0.1684 0.25532 0.0
C1367 C 0.34428 0.1734 0.28995 0.0
H1368 H 0.3471 0.17838 0.20368 0.0
C1369 C 0.36027 0.19304 0.29868 0.0
H1370 H 0.32771 0.15336 0.2476 0.0
C1371 C 0.37135 0.2075 0.27334 0.0
C1372 C 0.36681 0.20254 0.2387 0.0
H1373 H 0.36407 0.1974 0.32506 0.0
H1374 H 0.38345 0.22261 0.28095 0.0
C1375 C 0.35103 0.18273 0.23003 0.0
loop_
_geom_bond_atom_site_label_1
_geom_bond_atom_site_label_2
_geom_bond_distance
_geom_bond_site_symmetry_2
_ccdc_geom_bond_type
Cu0 N1 1.999 . S
Cu0 O6 1.974 . S
Cu0 N11 1.985 . S
Cu0 O20 1.959 . S
N1 Cu0 1.999 . S
N1 C3 1.263 . S
N1 C5 1.389 . S
N2 C3 1.358 . S
N2 C4 1.400 . S
C3 N1 1.263 . S
C3 N2 1.358 . S
C3 H9 0.930 . S
C4 N2 1.400 . S
C4 C5 1.351 . S
C4 H21 0.930 . S
C5 N1 1.389 . S
C5 C4 1.351 . S
C5 H10 0.930 . S
O6 Cu0 1.974 . S
O6 C16 1.282 . S
C7 O8 1.261 . S
C7 O20 1.251 . S
O8 C7 1.261 . S
H9 C3 0.930 . S
H10 C5 0.930 . S
N11 Cu0 1.985 . S
N11 C13 1.335 . S
N11 C14 1.390 . S
N12 C13 1.345 . S
N12 C15 1.336 . S
C13 N11 1.335 . S
C13 N12 1.345 . S
C13 H18 0.930 . S
C14 N11 1.390 . S
C14 C15 1.346 . S
C14 H19 0.930 . S
C15 N12 1.336 . S
C15 C14 1.346 . S
C15 H22 0.929 . S
C16 O6 1.282 . S
C16 O17 1.216 . S
O17 C16 1.216 . S
H18 C13 0.930 . S
H19 C14 0.930 . S
O20 Cu0 1.959 . S
O20 C7 1.251 . S
H21 C4 0.930 . S
H22 C15 0.929 . S
Cu23 N24 1.999 . S
Cu23 O29 1.974 . S
Cu23 N34 1.985 . S
Cu23 O43 1.959 . S
N24 Cu23 1.999 . S
N24 C26 1.263 . S
N24 C28 1.389 . S
N25 C26 1.358 . S
N25 C27 1.400 . S
C26 N24 1.263 . S
C26 N25 1.358 . S
C26 H32 0.930 . S
C27 N25 1.400 . S
C27 C28 1.351 . S
C27 H44 0.930 . S
C28 N24 1.389 . S
C28 C27 1.351 . S
C28 H33 0.930 . S
O29 Cu23 1.974 . S
O29 C39 1.282 . S
C30 O31 1.261 . S
C30 O43 1.251 . S
O31 C30 1.261 . S
H32 C26 0.930 . S
H33 C28 0.930 . S
N34 Cu23 1.985 . S
N34 C36 1.335 . S
N34 C37 1.390 . S
N35 C36 1.345 . S
N35 C38 1.336 . S
C36 N34 1.335 . S
C36 N35 1.345 . S
C36 H41 0.930 . S
C37 N34 1.390 . S
C37 C38 1.346 . S
C37 H42 0.930 . S
C38 N35 1.336 . S
C38 C37 1.346 . S
C38 H45 0.929 . S
C39 O29 1.282 . S
C39 O40 1.216 . S
O40 C39 1.216 . S
H41 C36 0.930 . S
H42 C37 0.930 . S
O43 Cu23 1.959 . S
O43 C30 1.251 . S
H44 C27 0.930 . S
H45 C38 0.929 . S
Cu46 N47 1.999 . S
Cu46 O52 1.974 . S
Cu46 N57 1.985 . S
Cu46 O66 1.959 . S
N47 Cu46 1.999 . S
N47 C49 1.263 . S
N47 C51 1.389 . S
N48 C49 1.358 . S
N48 C50 1.400 . S
C49 N47 1.263 . S
C49 N48 1.358 . S
C49 H55 0.930 . S
C50 N48 1.400 . S
C50 C51 1.351 . S
C50 H67 0.930 . S
C51 N47 1.389 . S
C51 C50 1.351 . S
C51 H56 0.930 . S
O52 Cu46 1.974 . S
O52 C62 1.282 . S
C53 O54 1.261 . S
C53 O66 1.251 . S
O54 C53 1.261 . S
H55 C49 0.930 . S
H56 C51 0.930 . S
N57 Cu46 1.985 . S
N57 C59 1.335 . S
N57 C60 1.390 . S
N58 C59 1.345 . S
N58 C61 1.336 . S
C59 N57 1.335 . S
C59 N58 1.345 . S
C59 H64 0.930 . S
C60 N57 1.390 . S
C60 C61 1.346 . S
C60 H65 0.930 . S
C61 N58 1.336 . S
C61 C60 1.346 . S
C61 H68 0.929 . S
C62 O52 1.282 . S
C62 O63 1.216 . S
O63 C62 1.216 . S
H64 C59 0.930 . S
H65 C60 0.930 . S
O66 Cu46 1.959 . S
O66 C53 1.251 . S
H67 C50 0.930 . S
H68 C61 0.929 . S
Cu69 N70 1.999 . S
Cu69 O75 1.974 . S
Cu69 N80 1.985 . S
Cu69 O89 1.959 . S
N70 Cu69 1.999 . S
N70 C72 1.263 . S
N70 C74 1.389 . S
N71 C72 1.358 . S
N71 C73 1.400 . S
C72 N70 1.263 . S
C72 N71 1.358 . S
C72 H78 0.930 . S
C73 N71 1.400 . S
C73 C74 1.351 . S
C73 H90 0.930 . S
C74 N70 1.389 . S
C74 C73 1.351 . S
C74 H79 0.930 . S
O75 Cu69 1.974 . S
O75 C85 1.282 . S
C76 O77 1.261 . S
C76 O89 1.251 . S
O77 C76 1.261 . S
H78 C72 0.930 . S
H79 C74 0.930 . S
N80 Cu69 1.985 . S
N80 C82 1.335 . S
N80 C83 1.390 . S
N81 C82 1.345 . S
N81 C84 1.336 . S
C82 N80 1.335 . S
C82 N81 1.345 . S
C82 H87 0.930 . S
C83 N80 1.390 . S
C83 C84 1.346 . S
C83 H88 0.930 . S
C84 N81 1.336 . S
C84 C83 1.346 . S
C84 H91 0.929 . S
C85 O75 1.282 . S
C85 O86 1.216 . S
O86 C85 1.216 . S
H87 C82 0.930 . S
H88 C83 0.930 . S
O89 Cu69 1.959 . S
O89 C76 1.251 . S
H90 C73 0.930 . S
H91 C84 0.929 . S
Cu92 N93 1.999 . S
Cu92 O98 1.974 . S
Cu92 N103 1.985 . S
Cu92 O112 1.959 . S
N93 Cu92 1.999 . S
N93 C95 1.263 . S
N93 C97 1.389 . S
N94 C95 1.358 . S
N94 C96 1.400 . S
C95 N93 1.263 . S
C95 N94 1.358 . S
C95 H101 0.930 . S
C96 N94 1.400 . S
C96 C97 1.351 . S
C96 H113 0.930 . S
C97 N93 1.389 . S
C97 C96 1.351 . S
C97 H102 0.930 . S
O98 Cu92 1.974 . S
O98 C108 1.282 . S
C99 O100 1.261 . S
C99 O112 1.251 . S
O100 C99 1.261 . S
H101 C95 0.930 . S
H102 C97 0.930 . S
N103 Cu92 1.985 . S
N103 C105 1.335 . S
N103 C106 1.390 . S
N104 C105 1.345 . S
N104 C107 1.336 . S
C105 N103 1.335 . S
C105 N104 1.345 . S
C105 H110 0.930 . S
C106 N103 1.390 . S
C106 C107 1.346 . S
C106 H111 0.930 . S
C107 N104 1.336 . S
C107 C106 1.346 . S
C107 H114 0.929 . S
C108 O98 1.282 . S
C108 O109 1.216 . S
O109 C108 1.216 . S
H110 C105 0.930 . S
H111 C106 0.930 . S
O112 Cu92 1.959 . S
O112 C99 1.251 . S
H113 C96 0.930 . S
H114 C107 0.929 . S
Cu115 N116 1.999 . S
Cu115 O121 1.974 . S
Cu115 N126 1.985 . S
Cu115 O135 1.959 . S
N116 Cu115 1.999 . S
N116 C118 1.263 . S
N116 C120 1.389 . S
N117 C118 1.358 . S
N117 C119 1.400 . S
C118 N116 1.263 . S
C118 N117 1.358 . S
C118 H124 0.930 . S
C119 N117 1.400 . S
C119 C120 1.351 . S
C119 H136 0.930 . S
C120 N116 1.389 . S
C120 C119 1.351 . S
C120 H125 0.930 . S
O121 Cu115 1.974 . S
O121 C131 1.282 . S
C122 O123 1.261 . S
C122 O135 1.251 . S
O123 C122 1.261 . S
H124 C118 0.930 . S
H125 C120 0.930 . S
N126 Cu115 1.985 . S
N126 C128 1.335 . S
N126 C129 1.390 . S
N127 C128 1.345 . S
N127 C130 1.336 . S
C128 N126 1.335 . S
C128 N127 1.345 . S
C128 H133 0.930 . S
C129 N126 1.390 . S
C129 C130 1.346 . S
C129 H134 0.930 . S
C130 N127 1.336 . S
C130 C129 1.346 . S
C130 H137 0.929 . S
C131 O121 1.282 . S
C131 O132 1.216 . S
O132 C131 1.216 . S
H133 C128 0.930 . S
H134 C129 0.930 . S
O135 Cu115 1.959 . S
O135 C122 1.251 . S
H136 C119 0.930 . S
H137 C130 0.929 . S
Cu138 N139 1.999 . S
Cu138 O144 1.974 . S
Cu138 N149 1.985 . S
Cu138 O158 1.959 . S
N139 Cu138 1.999 . S
N139 C141 1.263 . S
N139 C143 1.389 . S
N140 C141 1.358 . S
N140 C142 1.400 . S
C141 N139 1.263 . S
C141 N140 1.358 . S
C141 H147 0.930 . S
C142 N140 1.400 . S
C142 C143 1.351 . S
C142 H159 0.930 . S
C143 N139 1.389 . S
C143 C142 1.351 . S
C143 H148 0.930 . S
O144 Cu138 1.974 . S
O144 C154 1.282 . S
C145 O146 1.261 . S
C145 O158 1.251 . S
O146 C145 1.261 . S
H147 C141 0.930 . S
H148 C143 0.930 . S
N149 Cu138 1.985 . S
N149 C151 1.335 . S
N149 C152 1.390 . S
N150 C151 1.345 . S
N150 C153 1.336 . S
C151 N149 1.335 . S
C151 N150 1.345 . S
C151 H156 0.930 . S
C152 N149 1.390 . S
C152 C153 1.346 . S
C152 H157 0.930 . S
C153 N150 1.336 . S
C153 C152 1.346 . S
C153 H160 0.929 . S
C154 O144 1.282 . S
C154 O155 1.216 . S
O155 C154 1.216 . S
H156 C151 0.930 . S
H157 C152 0.930 . S
O158 Cu138 1.959 . S
O158 C145 1.251 . S
H159 C142 0.930 . S
H160 C153 0.929 . S
Cu161 N162 1.999 . S
Cu161 O167 1.974 . S
Cu161 N172 1.985 . S
Cu161 O181 1.959 . S
N162 Cu161 1.999 . S
N162 C164 1.263 . S
N162 C166 1.389 . S
N163 C164 1.358 . S
N163 C165 1.400 . S
C164 N162 1.263 . S
C164 N163 1.358 . S
C164 H170 0.930 . S
C165 N163 1.400 . S
C165 C166 1.351 . S
C165 H182 0.930 . S
C166 N162 1.389 . S
C166 C165 1.351 . S
C166 H171 0.930 . S
O167 Cu161 1.974 . S
O167 C177 1.282 . S
C168 O169 1.261 . S
C168 O181 1.251 . S
O169 C168 1.261 . S
H170 C164 0.930 . S
H171 C166 0.930 . S
N172 Cu161 1.985 . S
N172 C174 1.335 . S
N172 C175 1.390 . S
N173 C174 1.345 . S
N173 C176 1.336 . S
C174 N172 1.335 . S
C174 N173 1.345 . S
C174 H179 0.930 . S
C175 N172 1.390 . S
C175 C176 1.346 . S
C175 H180 0.930 . S
C176 N173 1.336 . S
C176 C175 1.346 . S
C176 H183 0.929 . S
C177 O167 1.282 . S
C177 O178 1.216 . S
O178 C177 1.216 . S
H179 C174 0.930 . S
H180 C175 0.930 . S
O181 Cu161 1.959 . S
O181 C168 1.251 . S
H182 C165 0.930 . S
H183 C176 0.929 . S
Cu184 N185 1.999 . S
Cu184 O190 1.974 . S
Cu184 N195 1.985 . S
Cu184 O204 1.959 . S
N185 Cu184 1.999 . S
N185 C187 1.263 . S
N185 C189 1.389 . S
N186 C187 1.358 . S
N186 C188 1.400 . S
C187 N185 1.263 . S
C187 N186 1.358 . S
C187 H193 0.930 . S
C188 N186 1.400 . S
C188 C189 1.351 . S
C188 H205 0.930 . S
C189 N185 1.389 . S
C189 C188 1.351 . S
C189 H194 0.930 . S
O190 Cu184 1.974 . S
O190 C200 1.282 . S
C191 O192 1.261 . S
C191 O204 1.251 . S
O192 C191 1.261 . S
H193 C187 0.930 . S
H194 C189 0.930 . S
N195 Cu184 1.985 . S
N195 C197 1.335 . S
N195 C198 1.390 . S
N196 C197 1.345 . S
N196 C199 1.336 . S
C197 N195 1.335 . S
C197 N196 1.345 . S
C197 H202 0.930 . S
C198 N195 1.390 . S
C198 C199 1.346 . S
C198 H203 0.930 . S
C199 N196 1.336 . S
C199 C198 1.346 . S
C199 H206 0.929 . S
C200 O190 1.282 . S
C200 O201 1.216 . S
O201 C200 1.216 . S
H202 C197 0.930 . S
H203 C198 0.930 . S
O204 Cu184 1.959 . S
O204 C191 1.251 . S
H205 C188 0.930 . S
H206 C199 0.929 . S
Cu207 N208 1.999 . S
Cu207 O213 1.974 . S
Cu207 N218 1.985 . S
Cu207 O227 1.959 . S
N208 Cu207 1.999 . S
N208 C210 1.263 . S
N208 C212 1.389 . S
N209 C210 1.358 . S
N209 C211 1.400 . S
C210 N208 1.263 . S
C210 N209 1.358 . S
C210 H216 0.930 . S
C211 N209 1.400 . S
C211 C212 1.351 . S
C211 H228 0.930 . S
C212 N208 1.389 . S
C212 C211 1.351 . S
C212 H217 0.930 . S
O213 Cu207 1.974 . S
O213 C223 1.282 . S
C214 O215 1.261 . S
C214 O227 1.251 . S
O215 C214 1.261 . S
H216 C210 0.930 . S
H217 C212 0.930 . S
N218 Cu207 1.985 . S
N218 C220 1.335 . S
N218 C221 1.390 . S
N219 C220 1.345 . S
N219 C222 1.336 . S
C220 N218 1.335 . S
C220 N219 1.345 . S
C220 H225 0.930 . S
C221 N218 1.390 . S
C221 C222 1.346 . S
C221 H226 0.930 . S
C222 N219 1.336 . S
C222 C221 1.346 . S
C222 H229 0.929 . S
C223 O213 1.282 . S
C223 O224 1.216 . S
O224 C223 1.216 . S
H225 C220 0.930 . S
H226 C221 0.930 . S
O227 Cu207 1.959 . S
O227 C214 1.251 . S
H228 C211 0.930 . S
H229 C222 0.929 . S
Cu230 N231 1.999 . S
Cu230 O236 1.974 . S
Cu230 N241 1.985 . S
Cu230 O250 1.959 . S
N231 Cu230 1.999 . S
N231 C233 1.263 . S
N231 C235 1.389 . S
N232 C233 1.358 . S
N232 C234 1.400 . S
C233 N231 1.263 . S
C233 N232 1.358 . S
C233 H239 0.930 . S
C234 N232 1.400 . S
C234 C235 1.351 . S
C234 H251 0.930 . S
C235 N231 1.389 . S
C235 C234 1.351 . S
C235 H240 0.930 . S
O236 Cu230 1.974 . S
O236 C246 1.282 . S
C237 O238 1.261 . S
C237 O250 1.251 . S
O238 C237 1.261 . S
H239 C233 0.930 . S
H240 C235 0.930 . S
N241 Cu230 1.985 . S
N241 C243 1.335 . S
N241 C244 1.390 . S
N242 C243 1.345 . S
N242 C245 1.336 . S
C243 N241 1.335 . S
C243 N242 1.345 . S
C243 H248 0.930 . S
C244 N241 1.390 . S
C244 C245 1.346 . S
C244 H249 0.930 . S
C245 N242 1.336 . S
C245 C244 1.346 . S
C245 H252 0.929 . S
C246 O236 1.282 . S
C246 O247 1.216 . S
O247 C246 1.216 . S
H248 C243 0.930 . S
H249 C244 0.930 . S
O250 Cu230 1.959 . S
O250 C237 1.251 . S
H251 C234 0.930 . S
H252 C245 0.929 . S
Cu253 N254 1.999 . S
Cu253 O259 1.974 . S
Cu253 N264 1.985 . S
Cu253 O273 1.959 . S
N254 Cu253 1.999 . S
N254 C256 1.263 . S
N254 C258 1.389 . S
N255 C256 1.358 . S
N255 C257 1.400 . S
C256 N254 1.263 . S
C256 N255 1.358 . S
C256 H262 0.930 . S
C257 N255 1.400 . S
C257 C258 1.351 . S
C257 H274 0.930 . S
C258 N254 1.389 . S
C258 C257 1.351 . S
C258 H263 0.930 . S
O259 Cu253 1.974 . S
O259 C269 1.282 . S
C260 O261 1.261 . S
C260 O273 1.251 . S
O261 C260 1.261 . S
H262 C256 0.930 . S
H263 C258 0.930 . S
N264 Cu253 1.985 . S
N264 C266 1.335 . S
N264 C267 1.390 . S
N265 C266 1.345 . S
N265 C268 1.336 . S
C266 N264 1.335 . S
C266 N265 1.345 . S
C266 H271 0.930 . S
C267 N264 1.390 . S
C267 C268 1.346 . S
C267 H272 0.930 . S
C268 N265 1.336 . S
C268 C267 1.346 . S
C268 H275 0.929 . S
C269 O259 1.282 . S
C269 O270 1.216 . S
O270 C269 1.216 . S
H271 C266 0.930 . S
H272 C267 0.930 . S
O273 Cu253 1.959 . S
O273 C260 1.251 . S
H274 C257 0.930 . S
H275 C268 0.929 . S
Cu276 N277 1.999 . S
Cu276 O282 1.974 . S
Cu276 N287 1.985 . S
Cu276 O296 1.959 . S
N277 Cu276 1.999 . S
N277 C279 1.263 . S
N277 C281 1.389 . S
N278 C279 1.358 . S
N278 C280 1.400 . S
C279 N277 1.263 . S
C279 N278 1.358 . S
C279 H285 0.930 . S
C280 N278 1.400 . S
C280 C281 1.351 . S
C280 H297 0.930 . S
C281 N277 1.389 . S
C281 C280 1.351 . S
C281 H286 0.930 . S
O282 Cu276 1.974 . S
O282 C292 1.282 . S
C283 O284 1.261 . S
C283 O296 1.251 . S
O284 C283 1.261 . S
H285 C279 0.930 . S
H286 C281 0.930 . S
N287 Cu276 1.985 . S
N287 C289 1.335 . S
N287 C290 1.390 . S
N288 C289 1.345 . S
N288 C291 1.336 . S
C289 N287 1.335 . S
C289 N288 1.345 . S
C289 H294 0.930 . S
C290 N287 1.390 . S
C290 C291 1.346 . S
C290 H295 0.930 . S
C291 N288 1.336 . S
C291 C290 1.346 . S
C291 H298 0.929 . S
C292 O282 1.282 . S
C292 O293 1.216 . S
O293 C292 1.216 . S
H294 C289 0.930 . S
H295 C290 0.930 . S
O296 Cu276 1.959 . S
O296 C283 1.251 . S
H297 C280 0.930 . S
H298 C291 0.929 . S
Cu299 N300 1.999 . S
Cu299 O305 1.974 . S
Cu299 N310 1.985 . S
Cu299 O319 1.959 . S
N300 Cu299 1.999 . S
N300 C302 1.263 . S
N300 C304 1.389 . S
N301 C302 1.358 . S
N301 C303 1.400 . S
C302 N300 1.263 . S
C302 N301 1.358 . S
C302 H308 0.930 . S
C303 N301 1.400 . S
C303 C304 1.351 . S
C303 H320 0.930 . S
C304 N300 1.389 . S
C304 C303 1.351 . S
C304 H309 0.930 . S
O305 Cu299 1.974 . S
O305 C315 1.282 . S
C306 O307 1.261 . S
C306 O319 1.251 . S
O307 C306 1.261 . S
H308 C302 0.930 . S
H309 C304 0.930 . S
N310 Cu299 1.985 . S
N310 C312 1.335 . S
N310 C313 1.390 . S
N311 C312 1.345 . S
N311 C314 1.336 . S
C312 N310 1.335 . S
C312 N311 1.345 . S
C312 H317 0.930 . S
C313 N310 1.390 . S
C313 C314 1.346 . S
C313 H318 0.930 . S
C314 N311 1.336 . S
C314 C313 1.346 . S
C314 H321 0.929 . S
C315 O305 1.282 . S
C315 O316 1.216 . S
O316 C315 1.216 . S
H317 C312 0.930 . S
H318 C313 0.930 . S
O319 Cu299 1.959 . S
O319 C306 1.251 . S
H320 C303 0.930 . S
H321 C314 0.929 . S
Cu322 N323 1.999 . S
Cu322 O328 1.974 . S
Cu322 N333 1.985 . S
Cu322 O342 1.959 . S
N323 Cu322 1.999 . S
N323 C325 1.263 . S
N323 C327 1.389 . S
N324 C325 1.358 . S
N324 C326 1.400 . S
C325 N323 1.263 . S
C325 N324 1.358 . S
C325 H331 0.930 . S
C326 N324 1.400 . S
C326 C327 1.351 . S
C326 H343 0.930 . S
C327 N323 1.389 . S
C327 C326 1.351 . S
C327 H332 0.930 . S
O328 Cu322 1.974 . S
O328 C338 1.282 . S
C329 O330 1.261 . S
C329 O342 1.251 . S
O330 C329 1.261 . S
H331 C325 0.930 . S
H332 C327 0.930 . S
N333 Cu322 1.985 . S
N333 C335 1.335 . S
N333 C336 1.390 . S
N334 C335 1.345 . S
N334 C337 1.336 . S
C335 N333 1.335 . S
C335 N334 1.345 . S
C335 H340 0.930 . S
C336 N333 1.390 . S
C336 C337 1.346 . S
C336 H341 0.930 . S
C337 N334 1.336 . S
C337 C336 1.346 . S
C337 H344 0.929 . S
C338 O328 1.282 . S
C338 O339 1.216 . S
O339 C338 1.216 . S
H340 C335 0.930 . S
H341 C336 0.930 . S
O342 Cu322 1.959 . S
O342 C329 1.251 . S
H343 C326 0.930 . S
H344 C337 0.929 . S
Cu345 N346 1.999 . S
Cu345 O351 1.974 . S
Cu345 N356 1.985 . S
Cu345 O365 1.959 . S
N346 Cu345 1.999 . S
N346 C348 1.263 . S
N346 C350 1.389 . S
N347 C348 1.358 . S
N347 C349 1.400 . S
C348 N346 1.263 . S
C348 N347 1.358 . S
C348 H354 0.930 . S
C349 N347 1.400 . S
C349 C350 1.351 . S
C349 H366 0.930 . S
C350 N346 1.389 . S
C350 C349 1.351 . S
C350 H355 0.930 . S
O351 Cu345 1.974 . S
O351 C361 1.282 . S
C352 O353 1.261 . S
C352 O365 1.251 . S
O353 C352 1.261 . S
H354 C348 0.930 . S
H355 C350 0.930 . S
N356 Cu345 1.985 . S
N356 C358 1.335 . S
N356 C359 1.390 . S
N357 C358 1.345 . S
N357 C360 1.336 . S
C358 N356 1.335 . S
C358 N357 1.345 . S
C358 H363 0.930 . S
C359 N356 1.390 . S
C359 C360 1.346 . S
C359 H364 0.930 . S
C360 N357 1.336 . S
C360 C359 1.346 . S
C360 H367 0.929 . S
C361 O351 1.282 . S
C361 O362 1.216 . S
O362 C361 1.216 . S
H363 C358 0.930 . S
H364 C359 0.930 . S
O365 Cu345 1.959 . S
O365 C352 1.251 . S
H366 C349 0.930 . S
H367 C360 0.929 . S
Cu368 N369 1.999 . S
Cu368 O374 1.974 . S
Cu368 N379 1.985 . S
Cu368 O388 1.959 . S
N369 Cu368 1.999 . S
N369 C371 1.263 . S
N369 C373 1.389 . S
N370 C371 1.358 . S
N370 C372 1.400 . S
C371 N369 1.263 . S
C371 N370 1.358 . S
C371 H377 0.930 . S
C372 N370 1.400 . S
C372 C373 1.351 . S
C372 H389 0.930 . S
C373 N369 1.389 . S
C373 C372 1.351 . S
C373 H378 0.930 . S
O374 Cu368 1.974 . S
O374 C384 1.282 . S
C375 O376 1.261 . S
C375 O388 1.251 . S
O376 C375 1.261 . S
H377 C371 0.930 . S
H378 C373 0.930 . S
N379 Cu368 1.985 . S
N379 C381 1.335 . S
N379 C382 1.390 . S
N380 C381 1.345 . S
N380 C383 1.336 . S
C381 N379 1.335 . S
C381 N380 1.345 . S
C381 H386 0.930 . S
C382 N379 1.390 . S
C382 C383 1.346 . S
C382 H387 0.930 . S
C383 N380 1.336 . S
C383 C382 1.346 . S
C383 H390 0.929 . S
C384 O374 1.282 . S
C384 O385 1.216 . S
O385 C384 1.216 . S
H386 C381 0.930 . S
H387 C382 0.930 . S
O388 Cu368 1.959 . S
O388 C375 1.251 . S
H389 C372 0.930 . S
H390 C383 0.929 . S
Cu391 N392 1.999 . S
Cu391 O397 1.974 . S
Cu391 N402 1.985 . S
Cu391 O411 1.959 . S
N392 Cu391 1.999 . S
N392 C394 1.263 . S
N392 C396 1.389 . S
N393 C394 1.358 . S
N393 C395 1.400 . S
C394 N392 1.263 . S
C394 N393 1.358 . S
C394 H400 0.930 . S
C395 N393 1.400 . S
C395 C396 1.351 . S
C395 H412 0.930 . S
C396 N392 1.389 . S
C396 C395 1.351 . S
C396 H401 0.930 . S
O397 Cu391 1.974 . S
O397 C407 1.282 . S
C398 O399 1.261 . S
C398 O411 1.251 . S
O399 C398 1.261 . S
H400 C394 0.930 . S
H401 C396 0.930 . S
N402 Cu391 1.985 . S
N402 C404 1.335 . S
N402 C405 1.390 . S
N403 C404 1.345 . S
N403 C406 1.336 . S
C404 N402 1.335 . S
C404 N403 1.345 . S
C404 H409 0.930 . S
C405 N402 1.390 . S
C405 C406 1.346 . S
C405 H410 0.930 . S
C406 N403 1.336 . S
C406 C405 1.346 . S
C406 H413 0.929 . S
C407 O397 1.282 . S
C407 O408 1.216 . S
O408 C407 1.216 . S
H409 C404 0.930 . S
H410 C405 0.930 . S
O411 Cu391 1.959 . S
O411 C398 1.251 . S
H412 C395 0.930 . S
H413 C406 0.929 . S
Cu414 N415 1.999 . S
Cu414 O420 1.974 . S
Cu414 N425 1.985 . S
Cu414 O434 1.959 . S
N415 Cu414 1.999 . S
N415 C417 1.263 . S
N415 C419 1.389 . S
N416 C417 1.358 . S
N416 C418 1.400 . S
C417 N415 1.263 . S
C417 N416 1.358 . S
C417 H423 0.930 . S
C418 N416 1.400 . S
C418 C419 1.351 . S
C418 H435 0.930 . S
C419 N415 1.389 . S
C419 C418 1.351 . S
C419 H424 0.930 . S
O420 Cu414 1.974 . S
O420 C430 1.282 . S
C421 O422 1.261 . S
C421 O434 1.251 . S
O422 C421 1.261 . S
H423 C417 0.930 . S
H424 C419 0.930 . S
N425 Cu414 1.985 . S
N425 C427 1.335 . S
N425 C428 1.390 . S
N426 C427 1.345 . S
N426 C429 1.336 . S
C427 N425 1.335 . S
C427 N426 1.345 . S
C427 H432 0.930 . S
C428 N425 1.390 . S
C428 C429 1.346 . S
C428 H433 0.930 . S
C429 N426 1.336 . S
C429 C428 1.346 . S
C429 H436 0.929 . S
C430 O420 1.282 . S
C430 O431 1.216 . S
O431 C430 1.216 . S
H432 C427 0.930 . S
H433 C428 0.930 . S
O434 Cu414 1.959 . S
O434 C421 1.251 . S
H435 C418 0.930 . S
H436 C429 0.929 . S
Cu437 N438 1.999 . S
Cu437 O443 1.974 . S
Cu437 N448 1.985 . S
Cu437 O457 1.959 . S
N438 Cu437 1.999 . S
N438 C440 1.263 . S
N438 C442 1.389 . S
N439 C440 1.358 . S
N439 C441 1.400 . S
C440 N438 1.263 . S
C440 N439 1.358 . S
C440 H446 0.930 . S
C441 N439 1.400 . S
C441 C442 1.351 . S
C441 H458 0.930 . S
C442 N438 1.389 . S
C442 C441 1.351 . S
C442 H447 0.930 . S
O443 Cu437 1.974 . S
O443 C453 1.282 . S
C444 O445 1.261 . S
C444 O457 1.251 . S
O445 C444 1.261 . S
H446 C440 0.930 . S
H447 C442 0.930 . S
N448 Cu437 1.985 . S
N448 C450 1.335 . S
N448 C451 1.390 . S
N449 C450 1.345 . S
N449 C452 1.336 . S
C450 N448 1.335 . S
C450 N449 1.345 . S
C450 H455 0.930 . S
C451 N448 1.390 . S
C451 C452 1.346 . S
C451 H456 0.930 . S
C452 N449 1.336 . S
C452 C451 1.346 . S
C452 H459 0.929 . S
C453 O443 1.282 . S
C453 O454 1.216 . S
O454 C453 1.216 . S
H455 C450 0.930 . S
H456 C451 0.930 . S
O457 Cu437 1.959 . S
O457 C444 1.251 . S
H458 C441 0.930 . S
H459 C452 0.929 . S
Cu460 N461 1.999 . S
Cu460 O466 1.974 . S
Cu460 N471 1.985 . S
Cu460 O480 1.959 . S
N461 Cu460 1.999 . S
N461 C463 1.263 . S
N461 C465 1.389 . S
N462 C463 1.358 . S
N462 C464 1.400 . S
C463 N461 1.263 . S
C463 N462 1.358 . S
C463 H469 0.930 . S
C464 N462 1.400 . S
C464 C465 1.351 . S
C464 H481 0.930 . S
C465 N461 1.389 . S
C465 C464 1.351 . S
C465 H470 0.930 . S
O466 Cu460 1.974 . S
O466 C476 1.282 . S
C467 O468 1.261 . S
C467 O480 1.251 . S
O468 C467 1.261 . S
H469 C463 0.930 . S
H470 C465 0.930 . S
N471 Cu460 1.985 . S
N471 C473 1.335 . S
N471 C474 1.390 . S
N472 C473 1.345 . S
N472 C475 1.336 . S
C473 N471 1.335 . S
C473 N472 1.345 . S
C473 H478 0.930 . S
C474 N471 1.390 . S
C474 C475 1.346 . S
C474 H479 0.930 . S
C475 N472 1.336 . S
C475 C474 1.346 . S
C475 H482 0.929 . S
C476 O466 1.282 . S
C476 O477 1.216 . S
O477 C476 1.216 . S
H478 C473 0.930 . S
H479 C474 0.930 . S
O480 Cu460 1.959 . S
O480 C467 1.251 . S
H481 C464 0.930 . S
H482 C475 0.929 . S
Cu483 N484 1.999 . S
Cu483 O489 1.974 . S
Cu483 N494 1.985 . S
Cu483 O503 1.959 . S
N484 Cu483 1.999 . S
N484 C486 1.263 . S
N484 C488 1.389 . S
N485 C486 1.358 . S
N485 C487 1.400 . S
C486 N484 1.263 . S
C486 N485 1.358 . S
C486 H492 0.930 . S
C487 N485 1.400 . S
C487 C488 1.351 . S
C487 H504 0.930 . S
C488 N484 1.389 . S
C488 C487 1.351 . S
C488 H493 0.930 . S
O489 Cu483 1.974 . S
O489 C499 1.282 . S
C490 O491 1.261 . S
C490 O503 1.251 . S
O491 C490 1.261 . S
H492 C486 0.930 . S
H493 C488 0.930 . S
N494 Cu483 1.985 . S
N494 C496 1.335 . S
N494 C497 1.390 . S
N495 C496 1.345 . S
N495 C498 1.336 . S
C496 N494 1.335 . S
C496 N495 1.345 . S
C496 H501 0.930 . S
C497 N494 1.390 . S
C497 C498 1.346 . S
C497 H502 0.930 . S
C498 N495 1.336 . S
C498 C497 1.346 . S
C498 H505 0.929 . S
C499 O489 1.282 . S
C499 O500 1.216 . S
O500 C499 1.216 . S
H501 C496 0.930 . S
H502 C497 0.930 . S
O503 Cu483 1.959 . S
O503 C490 1.251 . S
H504 C487 0.930 . S
H505 C498 0.929 . S
Cu506 N507 1.999 . S
Cu506 O512 1.974 . S
Cu506 N517 1.985 . S
Cu506 O526 1.959 . S
N507 Cu506 1.999 . S
N507 C509 1.263 . S
N507 C511 1.389 . S
N508 C509 1.358 . S
N508 C510 1.400 . S
C509 N507 1.263 . S
C509 N508 1.358 . S
C509 H515 0.930 . S
C510 N508 1.400 . S
C510 C511 1.351 . S
C510 H527 0.930 . S
C511 N507 1.389 . S
C511 C510 1.351 . S
C511 H516 0.930 . S
O512 Cu506 1.974 . S
O512 C522 1.282 . S
C513 O514 1.261 . S
C513 O526 1.251 . S
O514 C513 1.261 . S
H515 C509 0.930 . S
H516 C511 0.930 . S
N517 Cu506 1.985 . S
N517 C519 1.335 . S
N517 C520 1.390 . S
N518 C519 1.345 . S
N518 C521 1.336 . S
C519 N517 1.335 . S
C519 N518 1.345 . S
C519 H524 0.930 . S
C520 N517 1.390 . S
C520 C521 1.346 . S
C520 H525 0.930 . S
C521 N518 1.336 . S
C521 C520 1.346 . S
C521 H528 0.929 . S
C522 O512 1.282 . S
C522 O523 1.216 . S
O523 C522 1.216 . S
H524 C519 0.930 . S
H525 C520 0.930 . S
O526 Cu506 1.959 . S
O526 C513 1.251 . S
H527 C510 0.930 . S
H528 C521 0.929 . S
Cu529 N530 1.999 . S
Cu529 O535 1.974 . S
Cu529 N540 1.985 . S
Cu529 O549 1.959 . S
N530 Cu529 1.999 . S
N530 C532 1.263 . S
N530 C534 1.389 . S
N531 C532 1.358 . S
N531 C533 1.400 . S
C532 N530 1.263 . S
C532 N531 1.358 . S
C532 H538 0.930 . S
C533 N531 1.400 . S
C533 C534 1.351 . S
C533 H550 0.930 . S
C534 N530 1.389 . S
C534 C533 1.351 . S
C534 H539 0.930 . S
O535 Cu529 1.974 . S
O535 C545 1.282 . S
C536 O537 1.261 . S
C536 O549 1.251 . S
O537 C536 1.261 . S
H538 C532 0.930 . S
H539 C534 0.930 . S
N540 Cu529 1.985 . S
N540 C542 1.335 . S
N540 C543 1.390 . S
N541 C542 1.345 . S
N541 C544 1.336 . S
C542 N540 1.335 . S
C542 N541 1.345 . S
C542 H547 0.930 . S
C543 N540 1.390 . S
C543 C544 1.346 . S
C543 H548 0.930 . S
C544 N541 1.336 . S
C544 C543 1.346 . S
C544 H551 0.929 . S
C545 O535 1.282 . S
C545 O546 1.216 . S
O546 C545 1.216 . S
H547 C542 0.930 . S
H548 C543 0.930 . S
O549 Cu529 1.959 . S
O549 C536 1.251 . S
H550 C533 0.930 . S
H551 C544 0.929 . S
Cu552 N553 1.999 . S
Cu552 O558 1.974 . S
Cu552 N563 1.985 . S
Cu552 O572 1.959 . S
N553 Cu552 1.999 . S
N553 C555 1.263 . S
N553 C557 1.389 . S
N554 C555 1.358 . S
N554 C556 1.400 . S
C555 N553 1.263 . S
C555 N554 1.358 . S
C555 H561 0.930 . S
C556 N554 1.400 . S
C556 C557 1.351 . S
C556 H573 0.930 . S
C557 N553 1.389 . S
C557 C556 1.351 . S
C557 H562 0.930 . S
O558 Cu552 1.974 . S
O558 C568 1.282 . S
C559 O560 1.261 . S
C559 O572 1.251 . S
O560 C559 1.261 . S
H561 C555 0.930 . S
H562 C557 0.930 . S
N563 Cu552 1.985 . S
N563 C565 1.335 . S
N563 C566 1.390 . S
N564 C565 1.345 . S
N564 C567 1.336 . S
C565 N563 1.335 . S
C565 N564 1.345 . S
C565 H570 0.930 . S
C566 N563 1.390 . S
C566 C567 1.346 . S
C566 H571 0.930 . S
C567 N564 1.336 . S
C567 C566 1.346 . S
C567 H574 0.929 . S
C568 O558 1.282 . S
C568 O569 1.216 . S
O569 C568 1.216 . S
H570 C565 0.930 . S
H571 C566 0.930 . S
O572 Cu552 1.959 . S
O572 C559 1.251 . S
H573 C556 0.930 . S
H574 C567 0.929 . S
Cu575 N576 1.999 . S
Cu575 O581 1.974 . S
Cu575 N586 1.985 . S
Cu575 O595 1.959 . S
N576 Cu575 1.999 . S
N576 C578 1.263 . S
N576 C580 1.389 . S
N577 C578 1.358 . S
N577 C579 1.400 . S
C578 N576 1.263 . S
C578 N577 1.358 . S
C578 H584 0.930 . S
C579 N577 1.400 . S
C579 C580 1.351 . S
C579 H596 0.930 . S
C580 N576 1.389 . S
C580 C579 1.351 . S
C580 H585 0.930 . S
O581 Cu575 1.974 . S
O581 C591 1.282 . S
C582 O583 1.261 . S
C582 O595 1.251 . S
O583 C582 1.261 . S
H584 C578 0.930 . S
H585 C580 0.930 . S
N586 Cu575 1.985 . S
N586 C588 1.335 . S
N586 C589 1.390 . S
N587 C588 1.345 . S
N587 C590 1.336 . S
C588 N586 1.335 . S
C588 N587 1.345 . S
C588 H593 0.930 . S
C589 N586 1.390 . S
C589 C590 1.346 . S
C589 H594 0.930 . S
C590 N587 1.336 . S
C590 C589 1.346 . S
C590 H597 0.929 . S
C591 O581 1.282 . S
C591 O592 1.216 . S
O592 C591 1.216 . S
H593 C588 0.930 . S
H594 C589 0.930 . S
O595 Cu575 1.959 . S
O595 C582 1.251 . S
H596 C579 0.930 . S
H597 C590 0.929 . S
Cu598 N599 1.999 . S
Cu598 O604 1.974 . S
Cu598 N609 1.985 . S
Cu598 O618 1.959 . S
N599 Cu598 1.999 . S
N599 C601 1.263 . S
N599 C603 1.389 . S
N600 C601 1.358 . S
N600 C602 1.400 . S
C601 N599 1.263 . S
C601 N600 1.358 . S
C601 H607 0.930 . S
C602 N600 1.400 . S
C602 C603 1.351 . S
C602 H619 0.930 . S
C603 N599 1.389 . S
C603 C602 1.351 . S
C603 H608 0.930 . S
O604 Cu598 1.974 . S
O604 C614 1.282 . S
C605 O606 1.261 . S
C605 O618 1.251 . S
O606 C605 1.261 . S
H607 C601 0.930 . S
H608 C603 0.930 . S
N609 Cu598 1.985 . S
N609 C611 1.335 . S
N609 C612 1.390 . S
N610 C611 1.345 . S
N610 C613 1.336 . S
C611 N609 1.335 . S
C611 N610 1.345 . S
C611 H616 0.930 . S
C612 N609 1.390 . S
C612 C613 1.346 . S
C612 H617 0.930 . S
C613 N610 1.336 . S
C613 C612 1.346 . S
C613 H620 0.929 . S
C614 O604 1.282 . S
C614 O615 1.216 . S
O615 C614 1.216 . S
H616 C611 0.930 . S
H617 C612 0.930 . S
O618 Cu598 1.959 . S
O618 C605 1.251 . S
H619 C602 0.930 . S
H620 C613 0.929 . S
Cu621 N622 1.999 . S
Cu621 O627 1.974 . S
Cu621 N632 1.985 . S
Cu621 O641 1.959 . S
N622 Cu621 1.999 . S
N622 C624 1.263 . S
N622 C626 1.389 . S
N623 C624 1.358 . S
N623 C625 1.400 . S
C624 N622 1.263 . S
C624 N623 1.358 . S
C624 H630 0.930 . S
C625 N623 1.400 . S
C625 C626 1.351 . S
C625 H642 0.930 . S
C626 N622 1.389 . S
C626 C625 1.351 . S
C626 H631 0.930 . S
O627 Cu621 1.974 . S
O627 C637 1.282 . S
C628 O629 1.261 . S
C628 O641 1.251 . S
O629 C628 1.261 . S
H630 C624 0.930 . S
H631 C626 0.930 . S
N632 Cu621 1.985 . S
N632 C634 1.335 . S
N632 C635 1.390 . S
N633 C634 1.345 . S
N633 C636 1.336 . S
C634 N632 1.335 . S
C634 N633 1.345 . S
C634 H639 0.930 . S
C635 N632 1.390 . S
C635 C636 1.346 . S
C635 H640 0.930 . S
C636 N633 1.336 . S
C636 C635 1.346 . S
C636 H643 0.929 . S
C637 O627 1.282 . S
C637 O638 1.216 . S
O638 C637 1.216 . S
H639 C634 0.930 . S
H640 C635 0.930 . S
O641 Cu621 1.959 . S
O641 C628 1.251 . S
H642 C625 0.930 . S
H643 C636 0.929 . S
Cu644 N645 1.999 . S
Cu644 O650 1.974 . S
Cu644 N655 1.985 . S
Cu644 O664 1.959 . S
N645 Cu644 1.999 . S
N645 C647 1.263 . S
N645 C649 1.389 . S
N646 C647 1.358 . S
N646 C648 1.400 . S
C647 N645 1.263 . S
C647 N646 1.358 . S
C647 H653 0.930 . S
C648 N646 1.400 . S
C648 C649 1.351 . S
C648 H665 0.930 . S
C649 N645 1.389 . S
C649 C648 1.351 . S
C649 H654 0.930 . S
O650 Cu644 1.974 . S
O650 C660 1.282 . S
C651 O652 1.261 . S
C651 O664 1.251 . S
O652 C651 1.261 . S
H653 C647 0.930 . S
H654 C649 0.930 . S
N655 Cu644 1.985 . S
N655 C657 1.335 . S
N655 C658 1.390 . S
N656 C657 1.345 . S
N656 C659 1.336 . S
C657 N655 1.335 . S
C657 N656 1.345 . S
C657 H662 0.930 . S
C658 N655 1.390 . S
C658 C659 1.346 . S
C658 H663 0.930 . S
C659 N656 1.336 . S
C659 C658 1.346 . S
C659 H666 0.929 . S
C660 O650 1.282 . S
C660 O661 1.216 . S
O661 C660 1.216 . S
H662 C657 0.930 . S
H663 C658 0.930 . S
O664 Cu644 1.959 . S
O664 C651 1.251 . S
H665 C648 0.930 . S
H666 C659 0.929 . S
Cu667 N668 1.999 . S
Cu667 O673 1.974 . S
Cu667 N678 1.985 . S
Cu667 O687 1.959 . S
N668 Cu667 1.999 . S
N668 C670 1.263 . S
N668 C672 1.389 . S
N669 C670 1.358 . S
N669 C671 1.400 . S
C670 N668 1.263 . S
C670 N669 1.358 . S
C670 H676 0.930 . S
C671 N669 1.400 . S
C671 C672 1.351 . S
C671 H688 0.930 . S
C672 N668 1.389 . S
C672 C671 1.351 . S
C672 H677 0.930 . S
O673 Cu667 1.974 . S
O673 C683 1.282 . S
C674 O675 1.261 . S
C674 O687 1.251 . S
O675 C674 1.261 . S
H676 C670 0.930 . S
H677 C672 0.930 . S
N678 Cu667 1.985 . S
N678 C680 1.335 . S
N678 C681 1.390 . S
N679 C680 1.345 . S
N679 C682 1.336 . S
C680 N678 1.335 . S
C680 N679 1.345 . S
C680 H685 0.930 . S
C681 N678 1.390 . S
C681 C682 1.346 . S
C681 H686 0.930 . S
C682 N679 1.336 . S
C682 C681 1.346 . S
C682 H689 0.929 . S
C683 O673 1.282 . S
C683 O684 1.216 . S
O684 C683 1.216 . S
H685 C680 0.930 . S
H686 C681 0.930 . S
O687 Cu667 1.959 . S
O687 C674 1.251 . S
H688 C671 0.930 . S
H689 C682 0.929 . S
Cu690 N691 1.999 . S
Cu690 O696 1.974 . S
Cu690 N701 1.985 . S
Cu690 O710 1.959 . S
N691 Cu690 1.999 . S
N691 C693 1.263 . S
N691 C695 1.389 . S
N692 C693 1.358 . S
N692 C694 1.400 . S
C693 N691 1.263 . S
C693 N692 1.358 . S
C693 H699 0.930 . S
C694 N692 1.400 . S
C694 C695 1.351 . S
C694 H711 0.930 . S
C695 N691 1.389 . S
C695 C694 1.351 . S
C695 H700 0.930 . S
O696 Cu690 1.974 . S
O696 C706 1.282 . S
C697 O698 1.261 . S
C697 O710 1.251 . S
O698 C697 1.261 . S
H699 C693 0.930 . S
H700 C695 0.930 . S
N701 Cu690 1.985 . S
N701 C703 1.335 . S
N701 C704 1.390 . S
N702 C703 1.345 . S
N702 C705 1.336 . S
C703 N701 1.335 . S
C703 N702 1.345 . S
C703 H708 0.930 . S
C704 N701 1.390 . S
C704 C705 1.346 . S
C704 H709 0.930 . S
C705 N702 1.336 . S
C705 C704 1.346 . S
C705 H712 0.929 . S
C706 O696 1.282 . S
C706 O707 1.216 . S
O707 C706 1.216 . S
H708 C703 0.930 . S
H709 C704 0.930 . S
O710 Cu690 1.959 . S
O710 C697 1.251 . S
H711 C694 0.930 . S
H712 C705 0.929 . S
Cu713 N714 1.999 . S
Cu713 O719 1.974 . S
Cu713 N724 1.985 . S
Cu713 O733 1.959 . S
N714 Cu713 1.999 . S
N714 C716 1.263 . S
N714 C718 1.389 . S
N715 C716 1.358 . S
N715 C717 1.400 . S
C716 N714 1.263 . S
C716 N715 1.358 . S
C716 H722 0.930 . S
C717 N715 1.400 . S
C717 C718 1.351 . S
C717 H734 0.930 . S
C718 N714 1.389 . S
C718 C717 1.351 . S
C718 H723 0.930 . S
O719 Cu713 1.974 . S
O719 C729 1.282 . S
C720 O721 1.261 . S
C720 O733 1.251 . S
O721 C720 1.261 . S
H722 C716 0.930 . S
H723 C718 0.930 . S
N724 Cu713 1.985 . S
N724 C726 1.335 . S
N724 C727 1.390 . S
N725 C726 1.345 . S
N725 C728 1.336 . S
C726 N724 1.335 . S
C726 N725 1.345 . S
C726 H731 0.930 . S
C727 N724 1.390 . S
C727 C728 1.346 . S
C727 H732 0.930 . S
C728 N725 1.336 . S
C728 C727 1.346 . S
C728 H735 0.929 . S
C729 O719 1.282 . S
C729 O730 1.216 . S
O730 C729 1.216 . S
H731 C726 0.930 . S
H732 C727 0.930 . S
O733 Cu713 1.959 . S
O733 C720 1.251 . S
H734 C717 0.930 . S
H735 C728 0.929 . S
C736 C737 1.387 . S
C736 H740 0.950 . S
C736 C745 1.390 . S
C737 C736 1.387 . S
C737 C739 1.387 . S
H738 C745 0.950 . S
C739 C737 1.387 . S
C739 C741 1.390 . S
C739 H743 0.950 . S
H740 C736 0.950 . S
C741 C739 1.390 . S
C741 C742 1.387 . S
C741 H744 0.950 . S
C742 C741 1.387 . S
C742 C745 1.387 . S
H743 C739 0.950 . S
H744 C741 0.950 . S
C745 C736 1.390 . S
C745 H738 0.950 . S
C745 C742 1.387 . S
C746 C747 1.387 . S
C746 H750 0.950 . S
C746 C755 1.390 . S
C747 C746 1.387 . S
C747 C749 1.387 . S
H748 C755 0.950 . S
C749 C747 1.387 . S
C749 C751 1.390 . S
C749 H753 0.950 . S
H750 C746 0.950 . S
C751 C749 1.390 . S
C751 C752 1.387 . S
C751 H754 0.950 . S
C752 C751 1.387 . S
C752 C755 1.387 . S
H753 C749 0.950 . S
H754 C751 0.950 . S
C755 C746 1.390 . S
C755 H748 0.950 . S
C755 C752 1.387 . S
C756 C757 1.387 . S
C756 H760 0.950 . S
C756 C765 1.390 . S
C757 C756 1.387 . S
C757 C759 1.387 . S
H758 C765 0.950 . S
C759 C757 1.387 . S
C759 C761 1.390 . S
C759 H763 0.950 . S
H760 C756 0.950 . S
C761 C759 1.390 . S
C761 C762 1.387 . S
C761 H764 0.950 . S
C762 C761 1.387 . S
C762 C765 1.387 . S
H763 C759 0.950 . S
H764 C761 0.950 . S
C765 C756 1.390 . S
C765 H758 0.950 . S
C765 C762 1.387 . S
C766 C767 1.387 . S
C766 H770 0.950 . S
C766 C775 1.390 . S
C767 C766 1.387 . S
C767 C769 1.387 . S
H768 C775 0.950 . S
C769 C767 1.387 . S
C769 C771 1.390 . S
C769 H773 0.950 . S
H770 C766 0.950 . S
C771 C769 1.390 . S
C771 C772 1.387 . S
C771 H774 0.950 . S
C772 C771 1.387 . S
C772 C775 1.387 . S
H773 C769 0.950 . S
H774 C771 0.950 . S
C775 C766 1.390 . S
C775 H768 0.950 . S
C775 C772 1.387 . S
C776 C777 1.387 . S
C776 H780 0.950 . S
C776 C785 1.390 . S
C777 C776 1.387 . S
C777 C779 1.387 . S
H778 C785 0.950 . S
C779 C777 1.387 . S
C779 C781 1.390 . S
C779 H783 0.950 . S
H780 C776 0.950 . S
C781 C779 1.390 . S
C781 C782 1.387 . S
C781 H784 0.950 . S
C782 C781 1.387 . S
C782 C785 1.387 . S
H783 C779 0.950 . S
H784 C781 0.950 . S
C785 C776 1.390 . S
C785 H778 0.950 . S
C785 C782 1.387 . S
C786 C787 1.387 . S
C786 H790 0.950 . S
C786 C795 1.390 . S
C787 C786 1.387 . S
C787 C789 1.387 . S
H788 C795 0.950 . S
C789 C787 1.387 . S
C789 C791 1.390 . S
C789 H793 0.950 . S
H790 C786 0.950 . S
C791 C789 1.390 . S
C791 C792 1.387 . S
C791 H794 0.950 . S
C792 C791 1.387 . S
C792 C795 1.387 . S
H793 C789 0.950 . S
H794 C791 0.950 . S
C795 C786 1.390 . S
C795 H788 0.950 . S
C795 C792 1.387 . S
C796 C797 1.387 . S
C796 H800 0.950 . S
C796 C805 1.390 . S
C797 C796 1.387 . S
C797 C799 1.387 . S
H798 C805 0.950 . S
C799 C797 1.387 . S
C799 C801 1.390 . S
C799 H803 0.950 . S
H800 C796 0.950 . S
C801 C799 1.390 . S
C801 C802 1.387 . S
C801 H804 0.950 . S
C802 C801 1.387 . S
C802 C805 1.387 . S
H803 C799 0.950 . S
H804 C801 0.950 . S
C805 C796 1.390 . S
C805 H798 0.950 . S
C805 C802 1.387 . S
C806 C807 1.387 . S
C806 H810 0.950 . S
C806 C815 1.390 . S
C807 C806 1.387 . S
C807 C809 1.387 . S
H808 C815 0.950 . S
C809 C807 1.387 . S
C809 C811 1.390 . S
C809 H813 0.950 . S
H810 C806 0.950 . S
C811 C809 1.390 . S
C811 C812 1.387 . S
C811 H814 0.950 . S
C812 C811 1.387 . S
C812 C815 1.387 . S
H813 C809 0.950 . S
H814 C811 0.950 . S
C815 C806 1.390 . S
C815 H808 0.950 . S
C815 C812 1.387 . S
C816 C817 1.387 . S
C816 H820 0.950 . S
C816 C825 1.390 . S
C817 C816 1.387 . S
C817 C819 1.387 . S
H818 C825 0.950 . S
C819 C817 1.387 . S
C819 C821 1.390 . S
C819 H823 0.950 . S
H820 C816 0.950 . S
C821 C819 1.390 . S
C821 C822 1.387 . S
C821 H824 0.950 . S
C822 C821 1.387 . S
C822 C825 1.387 . S
H823 C819 0.950 . S
H824 C821 0.950 . S
C825 C816 1.390 . S
C825 H818 0.950 . S
C825 C822 1.387 . S
C826 C827 1.387 . S
C826 H830 0.950 . S
C826 C835 1.390 . S
C827 C826 1.387 . S
C827 C829 1.387 . S
H828 C835 0.950 . S
C829 C827 1.387 . S
C829 C831 1.390 . S
C829 H833 0.950 . S
H830 C826 0.950 . S
C831 C829 1.390 . S
C831 C832 1.387 . S
C831 H834 0.950 . S
C832 C831 1.387 . S
C832 C835 1.387 . S
H833 C829 0.950 . S
H834 C831 0.950 . S
C835 C826 1.390 . S
C835 H828 0.950 . S
C835 C832 1.387 . S
C836 C837 1.387 . S
C836 H840 0.950 . S
C836 C845 1.390 . S
C837 C836 1.387 . S
C837 C839 1.387 . S
H838 C845 0.950 . S
C839 C837 1.387 . S
C839 C841 1.390 . S
C839 H843 0.950 . S
H840 C836 0.950 . S
C841 C839 1.390 . S
C841 C842 1.387 . S
C841 H844 0.950 . S
C842 C841 1.387 . S
C842 C845 1.387 . S
H843 C839 0.950 . S
H844 C841 0.950 . S
C845 C836 1.390 . S
C845 H838 0.950 . S
C845 C842 1.387 . S
C846 C847 1.387 . S
C846 H850 0.950 . S
C846 C855 1.390 . S
C847 C846 1.387 . S
C847 C849 1.387 . S
H848 C855 0.950 . S
C849 C847 1.387 . S
C849 C851 1.390 . S
C849 H853 0.950 . S
H850 C846 0.950 . S
C851 C849 1.390 . S
C851 C852 1.387 . S
C851 H854 0.950 . S
C852 C851 1.387 . S
C852 C855 1.387 . S
H853 C849 0.950 . S
H854 C851 0.950 . S
C855 C846 1.390 . S
C855 H848 0.950 . S
C855 C852 1.387 . S
C856 C857 1.387 . S
C856 H860 0.950 . S
C856 C865 1.390 . S
C857 C856 1.387 . S
C857 C859 1.387 . S
H858 C865 0.950 . S
C859 C857 1.387 . S
C859 C861 1.390 . S
C859 H863 0.950 . S
H860 C856 0.950 . S
C861 C859 1.390 . S
C861 C862 1.387 . S
C861 H864 0.950 . S
C862 C861 1.387 . S
C862 C865 1.387 . S
H863 C859 0.950 . S
H864 C861 0.950 . S
C865 C856 1.390 . S
C865 H858 0.950 . S
C865 C862 1.387 . S
C866 C867 1.387 . S
C866 H870 0.950 . S
C866 C875 1.390 . S
C867 C866 1.387 . S
C867 C869 1.387 . S
H868 C875 0.950 . S
C869 C867 1.387 . S
C869 C871 1.390 . S
C869 H873 0.950 . S
H870 C866 0.950 . S
C871 C869 1.390 . S
C871 C872 1.387 . S
C871 H874 0.950 . S
C872 C871 1.387 . S
C872 C875 1.387 . S
H873 C869 0.950 . S
H874 C871 0.950 . S
C875 C866 1.390 . S
C875 H868 0.950 . S
C875 C872 1.387 . S
C876 C877 1.387 . S
C876 H880 0.950 . S
C876 C885 1.390 . S
C877 C876 1.387 . S
C877 C879 1.387 . S
H878 C885 0.950 . S
C879 C877 1.387 . S
C879 C881 1.390 . S
C879 H883 0.950 . S
H880 C876 0.950 . S
C881 C879 1.390 . S
C881 C882 1.387 . S
C881 H884 0.950 . S
C882 C881 1.387 . S
C882 C885 1.387 . S
H883 C879 0.950 . S
H884 C881 0.950 . S
C885 C876 1.390 . S
C885 H878 0.950 . S
C885 C882 1.387 . S
C886 C887 1.387 . S
C886 H890 0.950 . S
C886 C895 1.390 . S
C887 C886 1.387 . S
C887 C889 1.387 . S
H888 C895 0.950 . S
C889 C887 1.387 . S
C889 C891 1.390 . S
C889 H893 0.950 . S
H890 C886 0.950 . S
C891 C889 1.390 . S
C891 C892 1.387 . S
C891 H894 0.950 . S
C892 C891 1.387 . S
C892 C895 1.387 . S
H893 C889 0.950 . S
H894 C891 0.950 . S
C895 C886 1.390 . S
C895 H888 0.950 . S
C895 C892 1.387 . S
C896 C897 1.387 . S
C896 H900 0.950 . S
C896 C905 1.390 1_655 S
C897 C896 1.387 . S
C897 C899 1.387 . S
H898 C905 0.950 . S
C899 C897 1.387 . S
C899 C901 1.390 1_655 S
C899 H903 0.950 . S
H900 C896 0.950 . S
C901 C899 1.390 1_455 S
C901 C902 1.387 . S
C901 H904 0.950 . S
C902 C901 1.387 . S
C902 C905 1.387 . S
H903 C899 0.950 . S
H904 C901 0.950 . S
C905 C896 1.390 1_455 S
C905 H898 0.950 . S
C905 C902 1.387 . S
C906 C907 1.387 . S
C906 H910 0.950 . S
C906 C915 1.390 1_545 S
C907 C906 1.387 . S
C907 C909 1.387 . S
H908 C915 0.950 . S
C909 C907 1.387 . S
C909 C911 1.390 1_545 S
C909 H913 0.950 . S
H910 C906 0.950 . S
C911 C909 1.390 1_565 S
C911 C912 1.387 . S
C911 H914 0.950 . S
C912 C911 1.387 . S
C912 C915 1.387 . S
H913 C909 0.950 . S
H914 C911 0.950 . S
C915 C906 1.390 1_565 S
C915 H908 0.950 . S
C915 C912 1.387 . S
C916 C917 1.387 . S
C916 H920 0.950 . S
C916 C925 1.390 1_455 S
C917 C916 1.387 . S
C917 C919 1.387 . S
H918 C925 0.950 . S
C919 C917 1.387 . S
C919 C921 1.390 1_455 S
C919 H923 0.950 . S
H920 C916 0.950 . S
C921 C919 1.390 1_655 S
C921 C922 1.387 . S
C921 H924 0.950 . S
C922 C921 1.387 . S
C922 C925 1.387 . S
H923 C919 0.950 . S
H924 C921 0.950 . S
C925 C916 1.390 1_655 S
C925 H918 0.950 . S
C925 C922 1.387 . S
C926 C927 1.387 . S
C926 H930 0.950 . S
C926 C935 1.390 1_565 S
C927 C926 1.387 . S
C927 C929 1.387 . S
H928 C935 0.950 . S
C929 C927 1.387 . S
C929 C931 1.390 1_565 S
C929 H933 0.950 . S
H930 C926 0.950 . S
C931 C929 1.390 1_545 S
C931 C932 1.387 . S
C931 H934 0.950 . S
C932 C931 1.387 . S
C932 C935 1.387 . S
H933 C929 0.950 . S
H934 C931 0.950 . S
C935 C926 1.390 1_545 S
C935 H928 0.950 . S
C935 C932 1.387 . S
C936 C937 1.387 . S
C936 H940 0.950 . S
C936 C945 1.390 1_455 S
C937 C936 1.387 . S
C937 C939 1.387 . S
H938 C945 0.950 . S
C939 C937 1.387 . S
C939 C941 1.390 1_455 S
C939 H943 0.950 . S
H940 C936 0.950 . S
C941 C939 1.390 1_655 S
C941 C942 1.387 . S
C941 H944 0.950 . S
C942 C941 1.387 . S
C942 C945 1.387 . S
H943 C939 0.950 . S
H944 C941 0.950 . S
C945 C936 1.390 1_655 S
C945 H938 0.950 . S
C945 C942 1.387 . S
C946 C947 1.387 . S
C946 H950 0.950 . S
C946 C955 1.390 1_565 S
C947 C946 1.387 . S
C947 C949 1.387 . S
H948 C955 0.950 . S
C949 C947 1.387 . S
C949 C951 1.390 1_565 S
C949 H953 0.950 . S
H950 C946 0.950 . S
C951 C949 1.390 1_545 S
C951 C952 1.387 . S
C951 H954 0.950 . S
C952 C951 1.387 . S
C952 C955 1.387 . S
H953 C949 0.950 . S
H954 C951 0.950 . S
C955 C946 1.390 1_545 S
C955 H948 0.950 . S
C955 C952 1.387 . S
C956 C957 1.387 . S
C956 H960 0.950 . S
C956 C965 1.390 1_455 S
C957 C956 1.387 . S
C957 C959 1.387 . S
H958 C965 0.950 . S
C959 C957 1.387 . S
C959 C961 1.390 1_455 S
C959 H963 0.950 . S
H960 C956 0.950 . S
C961 C959 1.390 1_655 S
C961 C962 1.387 . S
C961 H964 0.950 . S
C962 C961 1.387 . S
C962 C965 1.387 . S
H963 C959 0.950 . S
H964 C961 0.950 . S
C965 C956 1.390 1_655 S
C965 H958 0.950 . S
C965 C962 1.387 . S
C966 C967 1.387 . S
C966 H970 0.950 . S
C966 C975 1.390 1_545 S
C967 C966 1.387 . S
C967 C969 1.387 . S
H968 C975 0.950 . S
C969 C967 1.387 . S
C969 C971 1.390 1_545 S
C969 H973 0.950 . S
H970 C966 0.950 . S
C971 C969 1.390 1_565 S
C971 C972 1.387 . S
C971 H974 0.950 . S
C972 C971 1.387 . S
C972 C975 1.387 . S
H973 C969 0.950 . S
H974 C971 0.950 . S
C975 C966 1.390 1_565 S
C975 H968 0.950 . S
C975 C972 1.387 . S
C976 C977 1.387 . S
C976 H980 0.950 . S
C976 C985 1.390 . S
C977 C976 1.387 . S
C977 C979 1.387 . S
H978 C985 0.950 . S
C979 C977 1.387 . S
C979 C981 1.390 . S
C979 H983 0.950 . S
H980 C976 0.950 . S
C981 C979 1.390 . S
C981 C982 1.387 . S
C981 H984 0.950 . S
C982 C981 1.387 . S
C982 C985 1.387 . S
H983 C979 0.950 . S
H984 C981 0.950 . S
C985 C976 1.390 . S
C985 H978 0.950 . S
C985 C982 1.387 . S
C986 C987 1.387 . S
C986 H990 0.950 . S
C986 C995 1.390 . S
C987 C986 1.387 . S
C987 C989 1.387 . S
H988 C995 0.950 . S
C989 C987 1.387 . S
C989 C991 1.390 . S
C989 H993 0.950 . S
H990 C986 0.950 . S
C991 C989 1.390 . S
C991 C992 1.387 . S
C991 H994 0.950 . S
C992 C991 1.387 . S
C992 C995 1.387 . S
H993 C989 0.950 . S
H994 C991 0.950 . S
C995 C986 1.390 . S
C995 H988 0.950 . S
C995 C992 1.387 . S
C996 C997 1.387 . S
C996 H1000 0.950 . S
C996 C1005 1.390 . S
C997 C996 1.387 . S
C997 C999 1.387 . S
H998 C1005 0.950 . S
C999 C997 1.387 . S
C999 C1001 1.390 . S
C999 H1003 0.950 . S
H1000 C996 0.950 . S
C1001 C999 1.390 . S
C1001 C1002 1.387 . S
C1001 H1004 0.950 . S
C1002 C1001 1.387 . S
C1002 C1005 1.387 . S
H1003 C999 0.950 . S
H1004 C1001 0.950 . S
C1005 C996 1.390 . S
C1005 H998 0.950 . S
C1005 C1002 1.387 . S
C1006 C1007 1.387 . S
C1006 H1010 0.950 . S
C1006 C1015 1.390 . S
C1007 C1006 1.387 . S
C1007 C1009 1.387 . S
H1008 C1015 0.950 . S
C1009 C1007 1.387 . S
C1009 C1011 1.390 . S
C1009 H1013 0.950 . S
H1010 C1006 0.950 . S
C1011 C1009 1.390 . S
C1011 C1012 1.387 . S
C1011 H1014 0.950 . S
C1012 C1011 1.387 . S
C1012 C1015 1.387 . S
H1013 C1009 0.950 . S
H1014 C1011 0.950 . S
C1015 C1006 1.390 . S
C1015 H1008 0.950 . S
C1015 C1012 1.387 . S
C1016 C1017 1.387 . S
C1016 H1020 0.950 . S
C1016 C1025 1.390 . S
C1017 C1016 1.387 . S
C1017 C1019 1.387 . S
H1018 C1025 0.950 . S
C1019 C1017 1.387 . S
C1019 C1021 1.390 . S
C1019 H1023 0.950 . S
H1020 C1016 0.950 . S
C1021 C1019 1.390 . S
C1021 C1022 1.387 . S
C1021 H1024 0.950 . S
C1022 C1021 1.387 . S
C1022 C1025 1.387 . S
H1023 C1019 0.950 . S
H1024 C1021 0.950 . S
C1025 C1016 1.390 . S
C1025 H1018 0.950 . S
C1025 C1022 1.387 . S
C1026 C1027 1.387 . S
C1026 H1030 0.950 . S
C1026 C1035 1.390 . S
C1027 C1026 1.387 . S
C1027 C1029 1.387 . S
H1028 C1035 0.950 . S
C1029 C1027 1.387 . S
C1029 C1031 1.390 . S
C1029 H1033 0.950 . S
H1030 C1026 0.950 . S
C1031 C1029 1.390 . S
C1031 C1032 1.387 . S
C1031 H1034 0.950 . S
C1032 C1031 1.387 . S
C1032 C1035 1.387 . S
H1033 C1029 0.950 . S
H1034 C1031 0.950 . S
C1035 C1026 1.390 . S
C1035 H1028 0.950 . S
C1035 C1032 1.387 . S
C1036 C1037 1.387 . S
C1036 H1040 0.950 . S
C1036 C1045 1.390 . S
C1037 C1036 1.387 . S
C1037 C1039 1.387 . S
H1038 C1045 0.950 . S
C1039 C1037 1.387 . S
C1039 C1041 1.390 . S
C1039 H1043 0.950 . S
H1040 C1036 0.950 . S
C1041 C1039 1.390 . S
C1041 C1042 1.387 . S
C1041 H1044 0.950 . S
C1042 C1041 1.387 . S
C1042 C1045 1.387 . S
H1043 C1039 0.950 . S
H1044 C1041 0.950 . S
C1045 C1036 1.390 . S
C1045 H1038 0.950 . S
C1045 C1042 1.387 . S
C1046 C1047 1.387 . S
C1046 H1050 0.950 . S
C1046 C1055 1.390 . S
C1047 C1046 1.387 . S
C1047 C1049 1.387 . S
H1048 C1055 0.950 . S
C1049 C1047 1.387 . S
C1049 C1051 1.390 . S
C1049 H1053 0.950 . S
H1050 C1046 0.950 . S
C1051 C1049 1.390 . S
C1051 C1052 1.387 . S
C1051 H1054 0.950 . S
C1052 C1051 1.387 . S
C1052 C1055 1.387 . S
H1053 C1049 0.950 . S
H1054 C1051 0.950 . S
C1055 C1046 1.390 . S
C1055 H1048 0.950 . S
C1055 C1052 1.387 . S
C1056 C1057 1.387 . S
C1056 H1060 0.950 . S
C1056 C1065 1.390 . S
C1057 C1056 1.387 . S
C1057 C1059 1.387 . S
H1058 C1065 0.950 . S
C1059 C1057 1.387 . S
C1059 C1061 1.390 . S
C1059 H1063 0.950 . S
H1060 C1056 0.950 . S
C1061 C1059 1.390 . S
C1061 C1062 1.387 . S
C1061 H1064 0.950 . S
C1062 C1061 1.387 . S
C1062 C1065 1.387 . S
H1063 C1059 0.950 . S
H1064 C1061 0.950 . S
C1065 C1056 1.390 . S
C1065 H1058 0.950 . S
C1065 C1062 1.387 . S
C1066 C1067 1.387 . S
C1066 H1070 0.950 . S
C1066 C1075 1.390 . S
C1067 C1066 1.387 . S
C1067 C1069 1.387 . S
H1068 C1075 0.950 . S
C1069 C1067 1.387 . S
C1069 C1071 1.390 . S
C1069 H1073 0.950 . S
H1070 C1066 0.950 . S
C1071 C1069 1.390 . S
C1071 C1072 1.387 . S
C1071 H1074 0.950 . S
C1072 C1071 1.387 . S
C1072 C1075 1.387 . S
H1073 C1069 0.950 . S
H1074 C1071 0.950 . S
C1075 C1066 1.390 . S
C1075 H1068 0.950 . S
C1075 C1072 1.387 . S
C1076 C1077 1.387 . S
C1076 H1080 0.950 . S
C1076 C1085 1.390 . S
C1077 C1076 1.387 . S
C1077 C1079 1.387 . S
H1078 C1085 0.950 . S
C1079 C1077 1.387 . S
C1079 C1081 1.390 . S
C1079 H1083 0.950 . S
H1080 C1076 0.950 . S
C1081 C1079 1.390 . S
C1081 C1082 1.387 . S
C1081 H1084 0.950 . S
C1082 C1081 1.387 . S
C1082 C1085 1.387 . S
H1083 C1079 0.950 . S
H1084 C1081 0.950 . S
C1085 C1076 1.390 . S
C1085 H1078 0.950 . S
C1085 C1082 1.387 . S
C1086 C1087 1.387 . S
C1086 H1090 0.950 . S
C1086 C1095 1.390 . S
C1087 C1086 1.387 . S
C1087 C1089 1.387 . S
H1088 C1095 0.950 . S
C1089 C1087 1.387 . S
C1089 C1091 1.390 . S
C1089 H1093 0.950 . S
H1090 C1086 0.950 . S
C1091 C1089 1.390 . S
C1091 C1092 1.387 . S
C1091 H1094 0.950 . S
C1092 C1091 1.387 . S
C1092 C1095 1.387 . S
H1093 C1089 0.950 . S
H1094 C1091 0.950 . S
C1095 C1086 1.390 . S
C1095 H1088 0.950 . S
C1095 C1092 1.387 . S
C1096 C1097 1.387 . S
C1096 H1100 0.950 . S
C1096 C1105 1.390 . S
C1097 C1096 1.387 . S
C1097 C1099 1.387 . S
H1098 C1105 0.950 . S
C1099 C1097 1.387 . S
C1099 C1101 1.390 . S
C1099 H1103 0.950 . S
H1100 C1096 0.950 . S
C1101 C1099 1.390 . S
C1101 C1102 1.387 . S
C1101 H1104 0.950 . S
C1102 C1101 1.387 . S
C1102 C1105 1.387 . S
H1103 C1099 0.950 . S
H1104 C1101 0.950 . S
C1105 C1096 1.390 . S
C1105 H1098 0.950 . S
C1105 C1102 1.387 . S
C1106 C1107 1.387 . S
C1106 H1110 0.950 . S
C1106 C1115 1.390 . S
C1107 C1106 1.387 . S
C1107 C1109 1.387 . S
H1108 C1115 0.950 . S
C1109 C1107 1.387 . S
C1109 C1111 1.390 . S
C1109 H1113 0.950 . S
H1110 C1106 0.950 . S
C1111 C1109 1.390 . S
C1111 C1112 1.387 . S
C1111 H1114 0.950 . S
C1112 C1111 1.387 . S
C1112 C1115 1.387 . S
H1113 C1109 0.950 . S
H1114 C1111 0.950 . S
C1115 C1106 1.390 . S
C1115 H1108 0.950 . S
C1115 C1112 1.387 . S
C1116 C1117 1.387 . S
C1116 H1120 0.950 . S
C1116 C1125 1.390 . S
C1117 C1116 1.387 . S
C1117 C1119 1.387 . S
H1118 C1125 0.950 . S
C1119 C1117 1.387 . S
C1119 C1121 1.390 . S
C1119 H1123 0.950 . S
H1120 C1116 0.950 . S
C1121 C1119 1.390 . S
C1121 C1122 1.387 . S
C1121 H1124 0.950 . S
C1122 C1121 1.387 . S
C1122 C1125 1.387 . S
H1123 C1119 0.950 . S
H1124 C1121 0.950 . S
C1125 C1116 1.390 . S
C1125 H1118 0.950 . S
C1125 C1122 1.387 . S
C1126 C1127 1.387 . S
C1126 H1130 0.950 . S
C1126 C1135 1.390 . S
C1127 C1126 1.387 . S
C1127 C1129 1.387 . S
H1128 C1135 0.950 . S
C1129 C1127 1.387 . S
C1129 C1131 1.390 . S
C1129 H1133 0.950 . S
H1130 C1126 0.950 . S
C1131 C1129 1.390 . S
C1131 C1132 1.387 . S
C1131 H1134 0.950 . S
C1132 C1131 1.387 . S
C1132 C1135 1.387 . S
H1133 C1129 0.950 . S
H1134 C1131 0.950 . S
C1135 C1126 1.390 . S
C1135 H1128 0.950 . S
C1135 C1132 1.387 . S
C1136 C1137 1.387 . S
C1136 H1140 0.950 . S
C1136 C1145 1.390 1_554 S
C1137 C1136 1.387 . S
C1137 C1139 1.387 . S
H1138 C1145 0.950 . S
C1139 C1137 1.387 . S
C1139 C1141 1.390 1_554 S
C1139 H1143 0.950 . S
H1140 C1136 0.950 . S
C1141 C1139 1.390 1_556 S
C1141 C1142 1.387 . S
C1141 H1144 0.950 . S
C1142 C1141 1.387 . S
C1142 C1145 1.387 . S
H1143 C1139 0.950 . S
H1144 C1141 0.950 . S
C1145 C1136 1.390 1_556 S
C1145 H1138 0.950 . S
C1145 C1142 1.387 . S
C1146 C1147 1.387 . S
C1146 H1150 0.950 . S
C1146 C1155 1.390 1_556 S
C1147 C1146 1.387 . S
C1147 C1149 1.387 . S
H1148 C1155 0.950 . S
C1149 C1147 1.387 . S
C1149 C1151 1.390 1_556 S
C1149 H1153 0.950 . S
H1150 C1146 0.950 . S
C1151 C1149 1.390 1_554 S
C1151 C1152 1.387 . S
C1151 H1154 0.950 . S
C1152 C1151 1.387 . S
C1152 C1155 1.387 . S
H1153 C1149 0.950 . S
H1154 C1151 0.950 . S
C1155 C1146 1.390 1_554 S
C1155 H1148 0.950 . S
C1155 C1152 1.387 . S
C1156 C1157 1.387 . S
C1156 H1160 0.950 . S
C1156 C1165 1.390 1_554 S
C1157 C1156 1.387 . S
C1157 C1159 1.387 . S
H1158 C1165 0.950 . S
C1159 C1157 1.387 . S
C1159 C1161 1.390 1_554 S
C1159 H1163 0.950 . S
H1160 C1156 0.950 . S
C1161 C1159 1.390 1_556 S
C1161 C1162 1.387 . S
C1161 H1164 0.950 . S
C1162 C1161 1.387 . S
C1162 C1165 1.387 . S
H1163 C1159 0.950 . S
H1164 C1161 0.950 . S
C1165 C1156 1.390 1_556 S
C1165 H1158 0.950 . S
C1165 C1162 1.387 . S
C1166 C1167 1.387 . S
C1166 H1170 0.950 . S
C1166 C1175 1.390 1_554 S
C1167 C1166 1.387 . S
C1167 C1169 1.387 . S
H1168 C1175 0.950 . S
C1169 C1167 1.387 . S
C1169 C1171 1.390 1_554 S
C1169 H1173 0.950 . S
H1170 C1166 0.950 . S
C1171 C1169 1.390 1_556 S
C1171 C1172 1.387 . S
C1171 H1174 0.950 . S
C1172 C1171 1.387 . S
C1172 C1175 1.387 . S
H1173 C1169 0.950 . S
H1174 C1171 0.950 . S
C1175 C1166 1.390 1_556 S
C1175 H1168 0.950 . S
C1175 C1172 1.387 . S
C1176 C1177 1.387 . S
C1176 H1180 0.950 . S
C1176 C1185 1.390 1_554 S
C1177 C1176 1.387 . S
C1177 C1179 1.387 . S
H1178 C1185 0.950 . S
C1179 C1177 1.387 . S
C1179 C1181 1.390 1_554 S
C1179 H1183 0.950 . S
H1180 C1176 0.950 . S
C1181 C1179 1.390 1_556 S
C1181 C1182 1.387 . S
C1181 H1184 0.950 . S
C1182 C1181 1.387 . S
C1182 C1185 1.387 . S
H1183 C1179 0.950 . S
H1184 C1181 0.950 . S
C1185 C1176 1.390 1_556 S
C1185 H1178 0.950 . S
C1185 C1182 1.387 . S
C1186 C1187 1.387 . S
C1186 H1190 0.950 . S
C1186 C1195 1.390 1_554 S
C1187 C1186 1.387 . S
C1187 C1189 1.387 . S
H1188 C1195 0.950 . S
C1189 C1187 1.387 . S
C1189 C1191 1.390 1_554 S
C1189 H1193 0.950 . S
H1190 C1186 0.950 . S
C1191 C1189 1.390 1_556 S
C1191 C1192 1.387 . S
C1191 H1194 0.950 . S
C1192 C1191 1.387 . S
C1192 C1195 1.387 . S
H1193 C1189 0.950 . S
H1194 C1191 0.950 . S
C1195 C1186 1.390 1_556 S
C1195 H1188 0.950 . S
C1195 C1192 1.387 . S
C1196 C1197 1.387 . S
C1196 H1200 0.950 . S
C1196 C1205 1.390 1_556 S
C1197 C1196 1.387 . S
C1197 C1199 1.387 . S
H1198 C1205 0.950 . S
C1199 C1197 1.387 . S
C1199 C1201 1.390 1_556 S
C1199 H1203 0.950 . S
H1200 C1196 0.950 . S
C1201 C1199 1.390 1_554 S
C1201 C1202 1.387 . S
C1201 H1204 0.950 . S
C1202 C1201 1.387 . S
C1202 C1205 1.387 . S
H1203 C1199 0.950 . S
H1204 C1201 0.950 . S
C1205 C1196 1.390 1_554 S
C1205 H1198 0.950 . S
C1205 C1202 1.387 . S
C1206 C1207 1.387 . S
C1206 H1210 0.950 . S
C1206 C1215 1.390 1_556 S
C1207 C1206 1.387 . S
C1207 C1209 1.387 . S
H1208 C1215 0.950 . S
C1209 C1207 1.387 . S
C1209 C1211 1.390 1_556 S
C1209 H1213 0.950 . S
H1210 C1206 0.950 . S
C1211 C1209 1.390 1_554 S
C1211 C1212 1.387 . S
C1211 H1214 0.950 . S
C1212 C1211 1.387 . S
C1212 C1215 1.387 . S
H1213 C1209 0.950 . S
H1214 C1211 0.950 . S
C1215 C1206 1.390 1_554 S
C1215 H1208 0.950 . S
C1215 C1212 1.387 . S
C1216 C1217 1.387 . S
C1216 H1220 0.950 . S
C1216 C1225 1.390 . S
C1217 C1216 1.387 . S
C1217 C1219 1.387 . S
H1218 C1225 0.950 . S
C1219 C1217 1.387 . S
C1219 C1221 1.390 . S
C1219 H1223 0.950 . S
H1220 C1216 0.950 . S
C1221 C1219 1.390 . S
C1221 C1222 1.387 . S
C1221 H1224 0.950 . S
C1222 C1221 1.387 . S
C1222 C1225 1.387 . S
H1223 C1219 0.950 . S
H1224 C1221 0.950 . S
C1225 C1216 1.390 . S
C1225 H1218 0.950 . S
C1225 C1222 1.387 . S
C1226 C1227 1.387 . S
C1226 H1230 0.950 . S
C1226 C1235 1.390 . S
C1227 C1226 1.387 . S
C1227 C1229 1.387 . S
H1228 C1235 0.950 . S
C1229 C1227 1.387 . S
C1229 C1231 1.390 . S
C1229 H1233 0.950 . S
H1230 C1226 0.950 . S
C1231 C1229 1.390 . S
C1231 C1232 1.387 . S
C1231 H1234 0.950 . S
C1232 C1231 1.387 . S
C1232 C1235 1.387 . S
H1233 C1229 0.950 . S
H1234 C1231 0.950 . S
C1235 C1226 1.390 . S
C1235 H1228 0.950 . S
C1235 C1232 1.387 . S
C1236 C1237 1.387 . S
C1236 H1240 0.950 . S
C1236 C1245 1.390 . S
C1237 C1236 1.387 . S
C1237 C1239 1.387 . S
H1238 C1245 0.950 . S
C1239 C1237 1.387 . S
C1239 C1241 1.390 . S
C1239 H1243 0.950 . S
H1240 C1236 0.950 . S
C1241 C1239 1.390 . S
C1241 C1242 1.387 . S
C1241 H1244 0.950 . S
C1242 C1241 1.387 . S
C1242 C1245 1.387 . S
H1243 C1239 0.950 . S
H1244 C1241 0.950 . S
C1245 C1236 1.390 . S
C1245 H1238 0.950 . S
C1245 C1242 1.387 . S
C1246 C1247 1.387 . S
C1246 H1250 0.950 . S
C1246 C1255 1.390 . S
C1247 C1246 1.387 . S
C1247 C1249 1.387 . S
H1248 C1255 0.950 . S
C1249 C1247 1.387 . S
C1249 C1251 1.390 . S
C1249 H1253 0.950 . S
H1250 C1246 0.950 . S
C1251 C1249 1.390 . S
C1251 C1252 1.387 . S
C1251 H1254 0.950 . S
C1252 C1251 1.387 . S
C1252 C1255 1.387 . S
H1253 C1249 0.950 . S
H1254 C1251 0.950 . S
C1255 C1246 1.390 . S
C1255 H1248 0.950 . S
C1255 C1252 1.387 . S
C1256 C1257 1.387 . S
C1256 H1260 0.950 . S
C1256 C1265 1.390 . S
C1257 C1256 1.387 . S
C1257 C1259 1.387 . S
H1258 C1265 0.950 . S
C1259 C1257 1.387 . S
C1259 C1261 1.390 . S
C1259 H1263 0.950 . S
H1260 C1256 0.950 . S
C1261 C1259 1.390 . S
C1261 C1262 1.387 . S
C1261 H1264 0.950 . S
C1262 C1261 1.387 . S
C1262 C1265 1.387 . S
H1263 C1259 0.950 . S
H1264 C1261 0.950 . S
C1265 C1256 1.390 . S
C1265 H1258 0.950 . S
C1265 C1262 1.387 . S
C1266 C1267 1.387 . S
C1266 H1270 0.950 . S
C1266 C1275 1.390 . S
C1267 C1266 1.387 . S
C1267 C1269 1.387 . S
H1268 C1275 0.950 . S
C1269 C1267 1.387 . S
C1269 C1271 1.390 . S
C1269 H1273 0.950 . S
H1270 C1266 0.950 . S
C1271 C1269 1.390 . S
C1271 C1272 1.387 . S
C1271 H1274 0.950 . S
C1272 C1271 1.387 . S
C1272 C1275 1.387 . S
H1273 C1269 0.950 . S
H1274 C1271 0.950 . S
C1275 C1266 1.390 . S
C1275 H1268 0.950 . S
C1275 C1272 1.387 . S
C1276 C1277 1.387 . S
C1276 H1280 0.950 . S
C1276 C1285 1.390 . S
C1277 C1276 1.387 . S
C1277 C1279 1.387 . S
H1278 C1285 0.950 . S
C1279 C1277 1.387 . S
C1279 C1281 1.390 . S
C1279 H1283 0.950 . S
H1280 C1276 0.950 . S
C1281 C1279 1.390 . S
C1281 C1282 1.387 . S
C1281 H1284 0.950 . S
C1282 C1281 1.387 . S
C1282 C1285 1.387 . S
H1283 C1279 0.950 . S
H1284 C1281 0.950 . S
C1285 C1276 1.390 . S
C1285 H1278 0.950 . S
C1285 C1282 1.387 . S
C1286 C1287 1.387 . S
C1286 H1290 0.950 . S
C1286 C1295 1.390 . S
C1287 C1286 1.387 . S
C1287 C1289 1.387 . S
H1288 C1295 0.950 . S
C1289 C1287 1.387 . S
C1289 C1291 1.390 . S
C1289 H1293 0.950 . S
H1290 C1286 0.950 . S
C1291 C1289 1.390 . S
C1291 C1292 1.387 . S
C1291 H1294 0.950 . S
C1292 C1291 1.387 . S
C1292 C1295 1.387 . S
H1293 C1289 0.950 . S
H1294 C1291 0.950 . S
C1295 C1286 1.390 . S
C1295 H1288 0.950 . S
C1295 C1292 1.387 . S
C1296 C1297 1.387 . S
C1296 H1300 0.950 . S
C1296 C1305 1.390 . S
C1297 C1296 1.387 . S
C1297 C1299 1.387 . S
H1298 C1305 0.950 . S
C1299 C1297 1.387 . S
C1299 C1301 1.390 . S
C1299 H1303 0.950 . S
H1300 C1296 0.950 . S
C1301 C1299 1.390 . S
C1301 C1302 1.387 . S
C1301 H1304 0.950 . S
C1302 C1301 1.387 . S
C1302 C1305 1.387 . S
H1303 C1299 0.950 . S
H1304 C1301 0.950 . S
C1305 C1296 1.390 . S
C1305 H1298 0.950 . S
C1305 C1302 1.387 . S
C1306 C1307 1.387 . S
C1306 H1310 0.950 . S
C1306 C1315 1.390 . S
C1307 C1306 1.387 . S
C1307 C1309 1.387 . S
H1308 C1315 0.950 . S
C1309 C1307 1.387 . S
C1309 C1311 1.390 . S
C1309 H1313 0.950 . S
H1310 C1306 0.950 . S
C1311 C1309 1.390 . S
C1311 C1312 1.387 . S
C1311 H1314 0.950 . S
C1312 C1311 1.387 . S
C1312 C1315 1.387 . S
H1313 C1309 0.950 . S
H1314 C1311 0.950 . S
C1315 C1306 1.390 . S
C1315 H1308 0.950 . S
C1315 C1312 1.387 . S
C1316 C1317 1.387 . S
C1316 H1320 0.950 . S
C1316 C1325 1.390 . S
C1317 C1316 1.387 . S
C1317 C1319 1.387 . S
H1318 C1325 0.950 . S
C1319 C1317 1.387 . S
C1319 C1321 1.390 . S
C1319 H1323 0.950 . S
H1320 C1316 0.950 . S
C1321 C1319 1.390 . S
C1321 C1322 1.387 . S
C1321 H1324 0.950 . S
C1322 C1321 1.387 . S
C1322 C1325 1.387 . S
H1323 C1319 0.950 . S
H1324 C1321 0.950 . S
C1325 C1316 1.390 . S
C1325 H1318 0.950 . S
C1325 C1322 1.387 . S
C1326 C1327 1.387 . S
C1326 H1330 0.950 . S
C1326 C1335 1.390 . S
C1327 C1326 1.387 . S
C1327 C1329 1.387 . S
H1328 C1335 0.950 . S
C1329 C1327 1.387 . S
C1329 C1331 1.390 . S
C1329 H1333 0.950 . S
H1330 C1326 0.950 . S
C1331 C1329 1.390 . S
C1331 C1332 1.387 . S
C1331 H1334 0.950 . S
C1332 C1331 1.387 . S
C1332 C1335 1.387 . S
H1333 C1329 0.950 . S
H1334 C1331 0.950 . S
C1335 C1326 1.390 . S
C1335 H1328 0.950 . S
C1335 C1332 1.387 . S
C1336 C1337 1.387 . S
C1336 H1340 0.950 . S
C1336 C1345 1.390 . S
C1337 C1336 1.387 . S
C1337 C1339 1.387 . S
H1338 C1345 0.950 . S
C1339 C1337 1.387 . S
C1339 C1341 1.390 . S
C1339 H1343 0.950 . S
H1340 C1336 0.950 . S
C1341 C1339 1.390 . S
C1341 C1342 1.387 . S
C1341 H1344 0.950 . S
C1342 C1341 1.387 . S
C1342 C1345 1.387 . S
H1343 C1339 0.950 . S
H1344 C1341 0.950 . S
C1345 C1336 1.390 . S
C1345 H1338 0.950 . S
C1345 C1342 1.387 . S
C1346 C1347 1.387 . S
C1346 H1350 0.950 . S
C1346 C1355 1.390 . S
C1347 C1346 1.387 . S
C1347 C1349 1.387 . S
H1348 C1355 0.950 . S
C1349 C1347 1.387 . S
C1349 C1351 1.390 . S
C1349 H1353 0.950 . S
H1350 C1346 0.950 . S
C1351 C1349 1.390 . S
C1351 C1352 1.387 . S
C1351 H1354 0.950 . S
C1352 C1351 1.387 . S
C1352 C1355 1.387 . S
H1353 C1349 0.950 . S
H1354 C1351 0.950 . S
C1355 C1346 1.390 . S
C1355 H1348 0.950 . S
C1355 C1352 1.387 . S
C1356 C1357 1.387 . S
C1356 H1360 0.950 . S
C1356 C1365 1.390 . S
C1357 C1356 1.387 . S
C1357 C1359 1.387 . S
H1358 C1365 0.950 . S
C1359 C1357 1.387 . S
C1359 C1361 1.390 . S
C1359 H1363 0.950 . S
H1360 C1356 0.950 . S
C1361 C1359 1.390 . S
C1361 C1362 1.387 . S
C1361 H1364 0.950 . S
C1362 C1361 1.387 . S
C1362 C1365 1.387 . S
H1363 C1359 0.950 . S
H1364 C1361 0.950 . S
C1365 C1356 1.390 . S
C1365 H1358 0.950 . S
C1365 C1362 1.387 . S
C1366 C1367 1.387 . S
C1366 H1370 0.950 . S
C1366 C1375 1.390 . S
C1367 C1366 1.387 . S
C1367 C1369 1.387 . S
H1368 C1375 0.950 . S
C1369 C1367 1.387 . S
C1369 C1371 1.390 . S
C1369 H1373 0.950 . S
H1370 C1366 0.950 . S
C1371 C1369 1.390 . S
C1371 C1372 1.387 . S
C1371 H1374 0.950 . S
C1372 C1371 1.387 . S
C1372 C1375 1.387 . S
H1373 C1369 0.950 . S
H1374 C1371 0.950 . S
C1375 C1366 1.390 . S
C1375 H1368 0.950 . S
C1375 C1372 1.387 . S
C737 N347 1.874 . S
C742 N2 1.878 . S
C747 N25 1.874 . S
C752 N278 1.878 . S
C757 N48 1.878 . S
C762 N301 1.874 . S
C767 N324 1.878 . S
C772 N71 1.874 . S
C777 N94 1.874 . S
C782 N209 1.878 . S
C787 N117 1.874 . S
C792 N232 1.878 . S
C797 N255 1.874 . S
C802 N140 1.878 . S
C807 N186 1.878 . S
C812 N163 1.874 . S
C817 N370 1.874 . S
C822 N715 1.878 . S
C827 N393 1.874 . S
C832 N646 1.878 . S
C837 N416 1.878 . S
C842 N669 1.874 . S
C847 N692 1.878 . S
C852 N439 1.874 . S
C857 N462 1.874 . S
C862 N577 1.878 . S
C867 N485 1.874 . S
C872 N600 1.878 . S
C877 N623 1.874 . S
C882 N508 1.878 . S
C887 N531 1.874 . S
C892 N554 1.878 . S
C897 N288 1.956 . S
C902 N12 1.957 . S
C907 N35 1.956 . S
C912 N311 1.957 . S
C917 N334 1.956 . S
C922 N58 1.958 . S
C927 N81 1.957 . S
C932 N357 1.957 . S
C937 N104 1.958 . S
C942 N196 1.956 . S
C947 N219 1.957 . S
C952 N127 1.957 . S
C957 N242 1.957 . S
C962 N150 1.956 . S
C967 N265 1.957 . S
C972 N173 1.957 . S
C977 N380 1.956 . S
C982 N656 1.958 . S
C987 N679 1.957 . S
C992 N403 1.956 . S
C997 N426 1.956 . S
C1002 N702 1.957 . S
C1007 N449 1.958 . S
C1012 N725 1.956 . S
C1017 N564 1.958 . S
C1022 N472 1.956 . S
C1027 N495 1.956 . S
C1032 N587 1.957 . S
C1037 N518 1.957 . S
C1042 N610 1.957 . S
C1047 N541 1.957 . S
C1052 N633 1.957 . S
C1057 C7 1.566 . S
C1062 C237 1.568 . S
C1067 C260 1.567 . S
C1072 C30 1.567 . S
C1077 C53 1.567 . S
C1082 C191 1.567 . S
C1087 C214 1.566 . S
C1092 C76 1.568 . S
C1097 C329 1.568 . S
C1102 C99 1.566 . S
C1107 C352 1.567 . S
C1112 C122 1.567 . S
C1117 C283 1.568 . S
C1122 C145 1.566 . S
C1127 C168 1.567 . S
C1132 C306 1.567 . S
C1137 C605 1.568 . S
C1142 C375 1.566 . S
C1147 C398 1.566 . S
C1152 C628 1.568 . S
C1157 C559 1.567 . S
C1162 C421 1.567 . S
C1167 C582 1.568 . S
C1172 C444 1.566 . S
C1177 C467 1.568 . S
C1182 C697 1.566 . S
C1187 C490 1.567 . S
C1192 C720 1.566 . S
C1197 C651 1.568 . S
C1202 C513 1.566 . S
C1207 C674 1.567 . S
C1212 C536 1.567 . S
C1217 C545 1.524 . S
C1222 C16 1.522 . S
C1227 C476 1.522 . S
C1232 C39 1.523 . S
C1237 C499 1.523 . S
C1242 C62 1.522 . S
C1247 C522 1.522 . S
C1252 C85 1.521 . S
C1257 C407 1.521 . S
C1262 C108 1.523 . S
C1267 C131 1.522 . S
C1272 C430 1.523 . S
C1277 C154 1.522 . S
C1282 C453 1.521 . S
C1287 C177 1.524 . S
C1292 C384 1.523 . S
C1297 C200 1.523 . S
C1302 C729 1.524 . S
C1307 C660 1.523 . S
C1312 C223 1.524 . S
C1317 C246 1.523 . S
C1322 C683 1.524 . S
C1327 C269 1.524 . S
C1332 C706 1.522 . S
C1337 C591 1.523 . S
C1342 C292 1.522 . S
C1347 C614 1.523 . S
C1352 C315 1.524 . S
C1357 C338 1.523 . S
C1362 C637 1.524 . S
C1367 C361 1.524 . S
C1372 C568 1.523 . S
