# Generated by pormake.
# Topology wjb, (6)-cn, num edge types: 1
# Building blocks:
#     Node 0, Type 0, BuildingBlock: IZENUY_clean_sbu_0, # of connection points: 6
#     Node 1, Type 0, BuildingBlock: IZENUY_clean_sbu_0, # of connection points: 6
#     Node 2, Type 0, BuildingBlock: IZENUY_clean_sbu_0, # of connection points: 6
#     Node 3, Type 0, BuildingBlock: IZENUY_clean_sbu_0, # of connection points: 6
#     Node 4, Type 0, BuildingBlock: IZENUY_clean_sbu_0, # of connection points: 6
#     Node 5, Type 0, BuildingBlock: IZENUY_clean_sbu_0, # of connection points: 6
#     Node 6, Type 0, BuildingBlock: IZENUY_clean_sbu_0, # of connection points: 6
#     Node 7, Type 0, BuildingBlock: IZENUY_clean_sbu_0, # of connection points: 6
#     Node 8, Type 0, BuildingBlock: IZENUY_clean_sbu_0, # of connection points: 6
#     Node 9, Type 0, BuildingBlock: IZENUY_clean_sbu_0, # of connection points: 6
#     Node 10, Type 0, BuildingBlock: IZENUY_clean_sbu_0, # of connection points: 6
#     Node 11, Type 0, BuildingBlock: IZENUY_clean_sbu_0, # of connection points: 6
#     Node 12, Type 0, BuildingBlock: IZENUY_clean_sbu_0, # of connection points: 6
#     Node 13, Type 0, BuildingBlock: IZENUY_clean_sbu_0, # of connection points: 6
#     Node 14, Type 0, BuildingBlock: IZENUY_clean_sbu_0, # of connection points: 6
#     Node 15, Type 0, BuildingBlock: IZENUY_clean_sbu_0, # of connection points: 6
#     Node 16, Type 0, BuildingBlock: IZENUY_clean_sbu_0, # of connection points: 6
#     Node 17, Type 0, BuildingBlock: IZENUY_clean_sbu_0, # of connection points: 6
#     Node 18, Type 0, BuildingBlock: IZENUY_clean_sbu_0, # of connection points: 6
#     Node 19, Type 0, BuildingBlock: IZENUY_clean_sbu_0, # of connection points: 6
#     Node 20, Type 0, BuildingBlock: IZENUY_clean_sbu_0, # of connection points: 6
#     Node 21, Type 0, BuildingBlock: IZENUY_clean_sbu_0, # of connection points: 6
#     Node 22, Type 0, BuildingBlock: IZENUY_clean_sbu_0, # of connection points: 6
#     Node 23, Type 0, BuildingBlock: IZENUY_clean_sbu_0, # of connection points: 6
#     Edge 24, Type (0, 0), BuildingBlock: CIFDUS_clean_linker_0, # of connection points: 2
#     Edge 25, Type (0, 0), BuildingBlock: CIFDUS_clean_linker_0, # of connection points: 2
#     Edge 26, Type (0, 0), BuildingBlock: CIFDUS_clean_linker_0, # of connection points: 2
#     Edge 27, Type (0, 0), BuildingBlock: CIFDUS_clean_linker_0, # of connection points: 2
#     Edge 28, Type (0, 0), BuildingBlock: CIFDUS_clean_linker_0, # of connection points: 2
#     Edge 29, Type (0, 0), BuildingBlock: CIFDUS_clean_linker_0, # of connection points: 2
#     Edge 30, Type (0, 0), BuildingBlock: CIFDUS_clean_linker_0, # of connection points: 2
#     Edge 31, Type (0, 0), BuildingBlock: CIFDUS_clean_linker_0, # of connection points: 2
#     Edge 32, Type (0, 0), BuildingBlock: CIFDUS_clean_linker_0, # of connection points: 2
#     Edge 33, Type (0, 0), BuildingBlock: CIFDUS_clean_linker_0, # of connection points: 2
#     Edge 34, Type (0, 0), BuildingBlock: CIFDUS_clean_linker_0, # of connection points: 2
#     Edge 35, Type (0, 0), BuildingBlock: CIFDUS_clean_linker_0, # of connection points: 2
#     Edge 36, Type (0, 0), BuildingBlock: CIFDUS_clean_linker_0, # of connection points: 2
#     Edge 37, Type (0, 0), BuildingBlock: CIFDUS_clean_linker_0, # of connection points: 2
#     Edge 38, Type (0, 0), BuildingBlock: CIFDUS_clean_linker_0, # of connection points: 2
#     Edge 39, Type (0, 0), BuildingBlock: CIFDUS_clean_linker_0, # of connection points: 2
#     Edge 40, Type (0, 0), BuildingBlock: CIFDUS_clean_linker_0, # of connection points: 2
#     Edge 41, Type (0, 0), BuildingBlock: CIFDUS_clean_linker_0, # of connection points: 2
#     Edge 42, Type (0, 0), BuildingBlock: CIFDUS_clean_linker_0, # of connection points: 2
#     Edge 43, Type (0, 0), BuildingBlock: CIFDUS_clean_linker_0, # of connection points: 2
#     Edge 44, Type (0, 0), BuildingBlock: CIFDUS_clean_linker_0, # of connection points: 2
#     Edge 45, Type (0, 0), BuildingBlock: CIFDUS_clean_linker_0, # of connection points: 2
#     Edge 46, Type (0, 0), BuildingBlock: CIFDUS_clean_linker_0, # of connection points: 2
#     Edge 47, Type (0, 0), BuildingBlock: CIFDUS_clean_linker_0, # of connection points: 2
#     Edge 48, Type (0, 0), BuildingBlock: CIFDUS_clean_linker_0, # of connection points: 2
#     Edge 49, Type (0, 0), BuildingBlock: CIFDUS_clean_linker_0, # of connection points: 2
#     Edge 50, Type (0, 0), BuildingBlock: CIFDUS_clean_linker_0, # of connection points: 2
#     Edge 51, Type (0, 0), BuildingBlock: CIFDUS_clean_linker_0, # of connection points: 2
#     Edge 52, Type (0, 0), BuildingBlock: CIFDUS_clean_linker_0, # of connection points: 2
#     Edge 53, Type (0, 0), BuildingBlock: CIFDUS_clean_linker_0, # of connection points: 2
#     Edge 54, Type (0, 0), BuildingBlock: CIFDUS_clean_linker_0, # of connection points: 2
#     Edge 55, Type (0, 0), BuildingBlock: CIFDUS_clean_linker_0, # of connection points: 2
#     Edge 56, Type (0, 0), BuildingBlock: CIFDUS_clean_linker_0, # of connection points: 2
#     Edge 57, Type (0, 0), BuildingBlock: CIFDUS_clean_linker_0, # of connection points: 2
#     Edge 58, Type (0, 0), BuildingBlock: CIFDUS_clean_linker_0, # of connection points: 2
#     Edge 59, Type (0, 0), BuildingBlock: CIFDUS_clean_linker_0, # of connection points: 2
#     Edge 60, Type (0, 0), BuildingBlock: CIFDUS_clean_linker_0, # of connection points: 2
#     Edge 61, Type (0, 0), BuildingBlock: CIFDUS_clean_linker_0, # of connection points: 2
#     Edge 62, Type (0, 0), BuildingBlock: CIFDUS_clean_linker_0, # of connection points: 2
#     Edge 63, Type (0, 0), BuildingBlock: CIFDUS_clean_linker_0, # of connection points: 2
#     Edge 64, Type (0, 0), BuildingBlock: CIFDUS_clean_linker_0, # of connection points: 2
#     Edge 65, Type (0, 0), BuildingBlock: CIFDUS_clean_linker_0, # of connection points: 2
#     Edge 66, Type (0, 0), BuildingBlock: CIFDUS_clean_linker_0, # of connection points: 2
#     Edge 67, Type (0, 0), BuildingBlock: CIFDUS_clean_linker_0, # of connection points: 2
#     Edge 68, Type (0, 0), BuildingBlock: CIFDUS_clean_linker_0, # of connection points: 2
#     Edge 69, Type (0, 0), BuildingBlock: CIFDUS_clean_linker_0, # of connection points: 2
#     Edge 70, Type (0, 0), BuildingBlock: CIFDUS_clean_linker_0, # of connection points: 2
#     Edge 71, Type (0, 0), BuildingBlock: CIFDUS_clean_linker_0, # of connection points: 2
#     Edge 72, Type (0, 0), BuildingBlock: CIFDUS_clean_linker_0, # of connection points: 2
#     Edge 73, Type (0, 0), BuildingBlock: CIFDUS_clean_linker_0, # of connection points: 2
#     Edge 74, Type (0, 0), BuildingBlock: CIFDUS_clean_linker_0, # of connection points: 2
#     Edge 75, Type (0, 0), BuildingBlock: CIFDUS_clean_linker_0, # of connection points: 2
#     Edge 76, Type (0, 0), BuildingBlock: CIFDUS_clean_linker_0, # of connection points: 2
#     Edge 77, Type (0, 0), BuildingBlock: CIFDUS_clean_linker_0, # of connection points: 2
#     Edge 78, Type (0, 0), BuildingBlock: CIFDUS_clean_linker_0, # of connection points: 2
#     Edge 79, Type (0, 0), BuildingBlock: CIFDUS_clean_linker_0, # of connection points: 2
#     Edge 80, Type (0, 0), BuildingBlock: CIFDUS_clean_linker_0, # of connection points: 2
#     Edge 81, Type (0, 0), BuildingBlock: CIFDUS_clean_linker_0, # of connection points: 2
#     Edge 82, Type (0, 0), BuildingBlock: CIFDUS_clean_linker_0, # of connection points: 2
#     Edge 83, Type (0, 0), BuildingBlock: CIFDUS_clean_linker_0, # of connection points: 2
#     Edge 84, Type (0, 0), BuildingBlock: CIFDUS_clean_linker_0, # of connection points: 2
#     Edge 85, Type (0, 0), BuildingBlock: CIFDUS_clean_linker_0, # of connection points: 2
#     Edge 86, Type (0, 0), BuildingBlock: CIFDUS_clean_linker_0, # of connection points: 2
#     Edge 87, Type (0, 0), BuildingBlock: CIFDUS_clean_linker_0, # of connection points: 2
#     Edge 88, Type (0, 0), BuildingBlock: CIFDUS_clean_linker_0, # of connection points: 2
#     Edge 89, Type (0, 0), BuildingBlock: CIFDUS_clean_linker_0, # of connection points: 2
#     Edge 90, Type (0, 0), BuildingBlock: CIFDUS_clean_linker_0, # of connection points: 2
#     Edge 91, Type (0, 0), BuildingBlock: CIFDUS_clean_linker_0, # of connection points: 2
#     Edge 92, Type (0, 0), BuildingBlock: CIFDUS_clean_linker_0, # of connection points: 2
#     Edge 93, Type (0, 0), BuildingBlock: CIFDUS_clean_linker_0, # of connection points: 2
#     Edge 94, Type (0, 0), BuildingBlock: CIFDUS_clean_linker_0, # of connection points: 2
#     Edge 95, Type (0, 0), BuildingBlock: CIFDUS_clean_linker_0, # of connection points: 2
# Relax obj value: 0.471
# Max RMSD: 0.193
# Mean RMSD: 0.193
data_MOF--net-wjb--node1-IZENUY_clean_sbu_0--edge1-CIFDUS_clean_linker_0
_symmetry_space_group_name_H-M    P1
_symmetry_Int_Tables_number       1
_symmetry_cell_setting            triclinic
loop_
_symmetry_equiv_pos_as_xyz
'x, y, z'
_cell_length_a     45.903719
_cell_length_b     45.881185
_cell_length_c     48.696711
_cell_angle_alpha  90.115909
_cell_angle_beta   89.963093
_cell_angle_gamma 120.04468
loop_
_atom_site_label
_atom_site_type_symbol
_atom_site_fract_x
_atom_site_fract_y
_atom_site_fract_z
_atom_type_partial_charge
Fe0 Fe 0.1658 0.46024 0.12561 0.0
Fe1 Fe 0.13968 0.51036 0.12343 0.0
O2 O 0.16747 0.49682 0.1116 0.0
Fe3 Fe 0.19728 0.52021 0.08603 0.0
O4 O 0.22963 0.51159 0.09903 0.0
O5 O 0.20895 0.48449 0.13785 0.0
O6 O 0.15275 0.46592 0.16039 0.0
C7 C 0.15629 0.49242 0.17192 0.0
C8 C 0.18051 0.45762 0.06858 0.0
O9 O 0.15609 0.51537 0.15786 0.0
C10 C 0.1389 0.5207 0.06849 0.0
O11 O 0.12211 0.43359 0.11459 0.0
O12 O 0.1053 0.46766 0.13067 0.0
O13 O 0.18013 0.48426 0.06314 0.0
O14 O 0.17966 0.44871 0.09345 0.0
C15 C 0.20115 0.57172 0.1172 0.0
O16 O 0.12155 0.50629 0.08946 0.0
O17 O 0.17048 0.53329 0.06854 0.0
C18 C 0.09876 0.43906 0.12174 0.0
O19 O 0.1693 0.55583 0.11866 0.0
O20 O 0.21638 0.55761 0.10735 0.0
C21 C 0.23368 0.50304 0.12274 0.0
Fe22 Fe 0.66181 0.19047 0.58891 0.0
Fe23 Fe 0.70032 0.17063 0.62882 0.0
O24 O 0.66164 0.16337 0.61456 0.0
Fe25 Fe 0.62297 0.12894 0.62612 0.0
O26 O 0.59815 0.14981 0.62112 0.0
O27 O 0.63567 0.20149 0.60948 0.0
O28 O 0.69803 0.22815 0.60291 0.0
C29 C 0.7101 0.23476 0.62694 0.0
C30 C 0.61111 0.12587 0.57099 0.0
O31 O 0.71013 0.21216 0.64187 0.0
C32 C 0.66598 0.10206 0.62207 0.0
O33 O 0.68803 0.1815 0.56646 0.0
O34 O 0.72547 0.18972 0.5979 0.0
O35 O 0.61172 0.11023 0.59205 0.0
O36 O 0.62548 0.15763 0.57064 0.0
C37 C 0.65681 0.15068 0.67458 0.0
O38 O 0.6923 0.12953 0.6162 0.0
O39 O 0.6408 0.10181 0.6329 0.0
C40 C 0.71722 0.18788 0.57294 0.0
O41 O 0.68259 0.15343 0.66267 0.0
O42 O 0.63121 0.14522 0.66093 0.0
C43 C 0.60711 0.1806 0.61881 0.0
Fe44 Fe 0.47079 0.66659 0.09365 0.0
Fe45 Fe 0.53653 0.70606 0.12554 0.0
O46 O 0.50021 0.66733 0.11714 0.0
Fe47 Fe 0.49317 0.62928 0.13216 0.0
O48 O 0.44667 0.60885 0.13204 0.0
O49 O 0.43795 0.64968 0.11926 0.0
O50 O 0.47776 0.70826 0.10298 0.0
C51 C 0.488 0.72391 0.12545 0.0
C52 C 0.47463 0.60925 0.07941 0.0
O53 O 0.51078 0.72282 0.13914 0.0
C54 C 0.56277 0.66431 0.121 0.0
O55 O 0.50207 0.68344 0.06686 0.0
O56 O 0.54004 0.72561 0.09133 0.0
O57 O 0.49378 0.61161 0.09884 0.0
O58 O 0.45838 0.62476 0.08008 0.0
C59 C 0.51652 0.67113 0.17648 0.0
O60 O 0.56395 0.6909 0.11246 0.0
O61 O 0.53804 0.64288 0.13499 0.0
C62 C 0.52826 0.71194 0.06815 0.0
O63 O 0.53911 0.69355 0.16122 0.0
O64 O 0.49247 0.64483 0.16613 0.0
C65 C 0.42804 0.62198 0.1312 0.0
Fe66 Fe 0.80511 0.4753 0.59244 0.0
Fe67 Fe 0.83476 0.54095 0.62502 0.0
O68 O 0.836 0.50423 0.61518 0.0
Fe69 Fe 0.86778 0.49638 0.62747 0.0
O70 O 0.83756 0.45573 0.64202 0.0
O71 O 0.80543 0.43802 0.60549 0.0
O72 O 0.77263 0.46664 0.61711 0.0
C73 C 0.76628 0.48859 0.62619 0.0
C74 C 0.8615 0.47902 0.57066 0.0
O75 O 0.78796 0.51979 0.62415 0.0
C76 C 0.9049 0.56466 0.61917 0.0
O77 O 0.79822 0.50649 0.5746 0.0
O78 O 0.83881 0.55508 0.58946 0.0
O79 O 0.87089 0.47684 0.59482 0.0
O80 O 0.83654 0.48295 0.56688 0.0
C81 C 0.8502 0.52288 0.67418 0.0
O82 O 0.88099 0.56821 0.62836 0.0
O83 O 0.90061 0.53592 0.61385 0.0
C84 C 0.81809 0.53755 0.57104 0.0
O85 O 0.83079 0.52954 0.66075 0.0
O86 O 0.86973 0.51471 0.66203 0.0
C87 C 0.81434 0.43221 0.62842 0.0
Fe88 Fe 0.37188 0.87278 0.13145 0.0
Fe89 Fe 0.3344 0.81239 0.09266 0.0
O90 O 0.33352 0.8399 0.11764 0.0
Fe91 Fe 0.29434 0.83456 0.1291 0.0
O92 O 0.30915 0.84976 0.16406 0.0
O93 O 0.35966 0.85559 0.1658 0.0
O94 O 0.39532 0.85029 0.12832 0.0
C95 C 0.38571 0.8194 0.12569 0.0
C96 C 0.33228 0.90333 0.12494 0.0
O97 O 0.3574 0.79942 0.11534 0.0
C98 C 0.28236 0.81848 0.07218 0.0
O99 O 0.38685 0.89212 0.09793 0.0
O100 O 0.3729 0.84446 0.07657 0.0
O101 O 0.30583 0.87695 0.11727 0.0
O102 O 0.35585 0.90166 0.13681 0.0
C103 C 0.28079 0.76894 0.1272 0.0
O104 O 0.31143 0.82299 0.06791 0.0
O105 O 0.27215 0.81778 0.09644 0.0
C106 C 0.38825 0.87624 0.07725 0.0
O107 O 0.29612 0.77554 0.10452 0.0
O108 O 0.28045 0.79185 0.14155 0.0
C109 C 0.33324 0.85102 0.17771 0.0
Fe110 Fe 0.52595 0.33614 0.59186 0.0
Fe111 Fe 0.46008 0.29764 0.62378 0.0
O112 O 0.49697 0.33606 0.61564 0.0
Fe113 Fe 0.50535 0.37433 0.63136 0.0
O114 O 0.55171 0.39329 0.63139 0.0
O115 O 0.55871 0.35161 0.61756 0.0
O116 O 0.51763 0.29379 0.60017 0.0
C117 C 0.50696 0.27767 0.62231 0.0
C118 C 0.52503 0.39536 0.57886 0.0
O119 O 0.48501 0.27962 0.63645 0.0
C120 C 0.43497 0.34053 0.62143 0.0
O121 O 0.49462 0.32059 0.56497 0.0
O122 O 0.45588 0.27869 0.58911 0.0
O123 O 0.50583 0.39318 0.59825 0.0
O124 O 0.53991 0.37851 0.57908 0.0
C125 C 0.4811 0.3312 0.6752 0.0
O126 O 0.43289 0.31375 0.61215 0.0
O127 O 0.46091 0.36213 0.63421 0.0
C128 C 0.46825 0.29219 0.56601 0.0
O129 O 0.45827 0.30942 0.65973 0.0
O130 O 0.50515 0.3579 0.6653 0.0
C131 C 0.5694 0.37916 0.63009 0.0
Fe132 Fe 0.53091 0.83712 0.89054 0.0
Fe133 Fe 0.48649 0.86982 0.8877 0.0
O134 O 0.49348 0.83734 0.89949 0.0
Fe135 Fe 0.46276 0.80537 0.92028 0.0
O136 O 0.45652 0.77358 0.89545 0.0
O137 O 0.51015 0.79035 0.88868 0.0
O138 O 0.52173 0.83629 0.85403 0.0
C139 C 0.51562 0.85709 0.84218 0.0
C140 C 0.52377 0.81624 0.94402 0.0
O141 O 0.51033 0.87726 0.856 0.0
C142 C 0.46193 0.85973 0.94163 0.0
O143 O 0.55769 0.88388 0.89114 0.0
O144 O 0.52297 0.90054 0.90614 0.0
O145 O 0.49249 0.79815 0.93998 0.0
O146 O 0.54263 0.83755 0.92644 0.0
C147 C 0.4247 0.81527 0.87993 0.0
O148 O 0.46134 0.86874 0.91727 0.0
O149 O 0.46728 0.8358 0.94644 0.0
C150 C 0.5524 0.90559 0.90302 0.0
O151 O 0.44916 0.8403 0.86872 0.0
O152 O 0.42721 0.80611 0.9039 0.0
C153 C 0.47913 0.76824 0.88642 0.0
Fe154 Fe 0.70736 0.53931 0.38643 0.0
Fe155 Fe 0.63026 0.50136 0.39438 0.0
O156 O 0.67027 0.50619 0.40144 0.0
Fe157 Fe 0.67361 0.47817 0.42414 0.0
O158 O 0.69059 0.46407 0.39722 0.0
O159 O 0.72979 0.51494 0.38526 0.0
O160 O 0.69216 0.52378 0.35216 0.0
C161 C 0.66418 0.51802 0.34255 0.0
C162 C 0.72924 0.5404 0.43862 0.0
O163 O 0.64068 0.51518 0.35824 0.0
C164 C 0.62859 0.48947 0.45182 0.0
O165 O 0.69146 0.56911 0.38427 0.0
O166 O 0.64362 0.54342 0.4067 0.0
O167 O 0.71558 0.5088 0.43682 0.0
O168 O 0.72465 0.55706 0.42024 0.0
C169 C 0.61375 0.43551 0.39526 0.0
O170 O 0.61328 0.48651 0.42933 0.0
O171 O 0.65682 0.49111 0.45204 0.0
C172 C 0.66789 0.56994 0.39715 0.0
O173 O 0.61357 0.45869 0.38166 0.0
O174 O 0.63238 0.44195 0.41606 0.0
C175 C 0.71799 0.48322 0.38529 0.0
Fe176 Fe 0.13962 0.63097 0.88763 0.0
Fe177 Fe 0.20105 0.68183 0.9202 0.0
O178 O 0.16866 0.67326 0.89665 0.0
Fe179 Fe 0.16555 0.70713 0.88216 0.0
O180 O 0.14838 0.68562 0.84904 0.0
O181 O 0.15138 0.63929 0.85188 0.0
O182 O 0.17008 0.6159 0.89059 0.0
C183 C 0.202 0.63238 0.8897 0.0
C184 C 0.09942 0.66194 0.89157 0.0
O185 O 0.21801 0.6623 0.89822 0.0
C186 C 0.18581 0.72849 0.93754 0.0
O187 O 0.12565 0.61966 0.92293 0.0
O188 O 0.17666 0.64349 0.94025 0.0
O189 O 0.12358 0.69122 0.89642 0.0
O190 O 0.10454 0.63883 0.88285 0.0
C191 C 0.23321 0.73236 0.8802 0.0
O192 O 0.18582 0.70186 0.94348 0.0
O193 O 0.18316 0.73513 0.91265 0.0
C194 C 0.14523 0.62474 0.94276 0.0
O195 O 0.23162 0.72181 0.90441 0.0
O196 O 0.20701 0.72493 0.86668 0.0
C197 C 0.14969 0.66135 0.83767 0.0
Fe198 Fe 0.53924 0.19216 0.42137 0.0
Fe199 Fe 0.47451 0.17351 0.38959 0.0
O200 O 0.50817 0.16635 0.39742 0.0
Fe201 Fe 0.51129 0.13336 0.38138 0.0
O202 O 0.55156 0.16279 0.36585 0.0
O203 O 0.57339 0.18854 0.40488 0.0
O204 O 0.55164 0.22854 0.40023 0.0
C205 C 0.53251 0.23893 0.3918 0.0
C206 C 0.53088 0.13167 0.43616 0.0
O207 O 0.50062 0.22012 0.39254 0.0
C208 C 0.44414 0.10198 0.39295 0.0
O209 O 0.5116 0.20152 0.44215 0.0
O210 O 0.46103 0.16915 0.42531 0.0
O211 O 0.53185 0.1257 0.41084 0.0
O212 O 0.5281 0.1565 0.44361 0.0
C213 C 0.48768 0.15787 0.33848 0.0
O214 O 0.44326 0.12799 0.38505 0.0
O215 O 0.47167 0.10254 0.39604 0.0
C216 C 0.48 0.18654 0.4447 0.0
O217 O 0.48525 0.17892 0.35348 0.0
O218 O 0.49121 0.13463 0.34903 0.0
C219 C 0.57675 0.18273 0.38 0.0
Fe220 Fe 0.30105 0.46651 0.88424 0.0
Fe221 Fe 0.37833 0.50665 0.8923 0.0
O222 O 0.33767 0.50005 0.89963 0.0
Fe223 Fe 0.3336 0.52735 0.9228 0.0
O224 O 0.31655 0.54152 0.89604 0.0
O225 O 0.27838 0.49054 0.88269 0.0
O226 O 0.31656 0.4821 0.85001 0.0
C227 C 0.34492 0.48918 0.84041 0.0
C228 C 0.27707 0.46472 0.93603 0.0
O229 O 0.36874 0.49319 0.85612 0.0
C230 C 0.37871 0.51617 0.94992 0.0
O231 O 0.3178 0.43715 0.88268 0.0
O232 O 0.36661 0.46484 0.90386 0.0
O233 O 0.29162 0.49639 0.93485 0.0
O234 O 0.28232 0.4483 0.91771 0.0
C235 C 0.39333 0.57201 0.89475 0.0
O236 O 0.39469 0.52108 0.92748 0.0
O237 O 0.35017 0.51382 0.95031 0.0
C238 C 0.34253 0.4377 0.8949 0.0
O239 O 0.39347 0.54943 0.88015 0.0
O240 O 0.37494 0.56429 0.91581 0.0
C241 C 0.28947 0.52214 0.88362 0.0
Fe242 Fe 0.86351 0.36977 0.38485 0.0
Fe243 Fe 0.80237 0.322 0.4193 0.0
O244 O 0.83475 0.32847 0.3963 0.0
Fe245 Fe 0.83823 0.2935 0.38478 0.0
O246 O 0.8554 0.31166 0.35105 0.0
O247 O 0.85144 0.35743 0.34916 0.0
O248 O 0.83304 0.38487 0.38548 0.0
C249 C 0.80114 0.36879 0.38552 0.0
C250 C 0.9043 0.34058 0.39411 0.0
O251 O 0.78515 0.33956 0.39543 0.0
C252 C 0.81827 0.27728 0.44057 0.0
O253 O 0.87758 0.38464 0.41984 0.0
O254 O 0.82673 0.36202 0.43736 0.0
O255 O 0.88042 0.31124 0.39942 0.0
O256 O 0.89892 0.36212 0.38246 0.0
C257 C 0.77014 0.26779 0.3822 0.0
O258 O 0.81762 0.30403 0.44458 0.0
O259 O 0.82099 0.26857 0.41642 0.0
C260 C 0.85815 0.38099 0.43953 0.0
O261 O 0.77189 0.28073 0.40549 0.0
O262 O 0.79638 0.27373 0.36921 0.0
C263 C 0.85263 0.33351 0.33724 0.0
Fe264 Fe 0.8088 0.47662 0.92129 0.0
Fe265 Fe 0.83756 0.54065 0.88682 0.0
O266 O 0.83941 0.50496 0.89823 0.0
Fe267 Fe 0.8713 0.49708 0.88644 0.0
O268 O 0.84465 0.45083 0.88692 0.0
O269 O 0.7944 0.44302 0.89635 0.0
O270 O 0.77508 0.48369 0.90902 0.0
C271 C 0.77116 0.49265 0.88545 0.0
C272 C 0.8683 0.47844 0.93952 0.0
O273 O 0.79603 0.5141 0.87185 0.0
C274 C 0.90515 0.56745 0.89502 0.0
O275 O 0.82169 0.50903 0.94723 0.0
O276 O 0.81942 0.54584 0.91973 0.0
O277 O 0.88666 0.49818 0.921 0.0
O278 O 0.83659 0.46385 0.9377 0.0
C279 C 0.85699 0.51845 0.83879 0.0
O280 O 0.87921 0.5691 0.90093 0.0
O281 O 0.90308 0.54168 0.8836 0.0
C282 C 0.81946 0.53507 0.94389 0.0
O283 O 0.85482 0.54132 0.85198 0.0
O284 O 0.8584 0.49526 0.85134 0.0
C285 C 0.81286 0.433 0.88568 0.0
Fe286 Fe 0.3092 0.84037 0.38662 0.0
Fe287 Fe 0.38657 0.87477 0.38992 0.0
O288 O 0.34606 0.84244 0.40045 0.0
Fe289 Fe 0.34242 0.81219 0.42451 0.0
O290 O 0.30426 0.77769 0.40932 0.0
O291 O 0.29484 0.79875 0.37193 0.0
O292 O 0.32841 0.85798 0.35297 0.0
C293 C 0.35307 0.85807 0.34105 0.0
C294 C 0.29068 0.8202 0.44224 0.0
O295 O 0.37748 0.86057 0.35474 0.0
C296 C 0.39696 0.87314 0.44486 0.0
O297 O 0.32145 0.88188 0.40068 0.0
O298 O 0.37336 0.90609 0.38478 0.0
O299 O 0.31879 0.82319 0.44804 0.0
O300 O 0.28298 0.82155 0.41747 0.0
C301 C 0.39481 0.81779 0.3935 0.0
O302 O 0.39865 0.89098 0.4246 0.0
O303 O 0.38007 0.84133 0.4438 0.0
C304 C 0.34919 0.90802 0.39538 0.0
O305 O 0.40722 0.8494 0.39318 0.0
O306 O 0.3656 0.79887 0.40267 0.0
C307 C 0.29186 0.77396 0.3855 0.0
Fe308 Fe 0.51169 0.37622 0.88817 0.0
Fe309 Fe 0.53398 0.33312 0.91917 0.0
O310 O 0.5043 0.33597 0.898 0.0
Fe311 Fe 0.46748 0.29873 0.88719 0.0
O312 O 0.47793 0.30925 0.85103 0.0
O313 O 0.49189 0.36254 0.8544 0.0
O314 O 0.55153 0.38728 0.87172 0.0
C315 C 0.57567 0.38814 0.88468 0.0
C316 C 0.44413 0.34433 0.89937 0.0
O317 O 0.57037 0.37202 0.90685 0.0
C318 C 0.47265 0.28119 0.94007 0.0
O319 O 0.53251 0.39693 0.9204 0.0
O320 O 0.52664 0.35544 0.94675 0.0
O321 O 0.43983 0.31766 0.88767 0.0
O322 O 0.47314 0.36857 0.90407 0.0
C323 C 0.52029 0.28304 0.88262 0.0
O324 O 0.50376 0.29366 0.93592 0.0
O325 O 0.45449 0.28546 0.92286 0.0
C326 C 0.53063 0.38463 0.94404 0.0
O327 O 0.54244 0.31084 0.89257 0.0
O328 O 0.48911 0.27367 0.88469 0.0
C329 C 0.48544 0.33704 0.83994 0.0
Fe330 Fe 0.16703 0.46469 0.38806 0.0
Fe331 Fe 0.14437 0.51686 0.37981 0.0
O332 O 0.17106 0.50444 0.39572 0.0
Fe333 Fe 0.20213 0.53167 0.41905 0.0
O334 O 0.23228 0.5184 0.40947 0.0
O335 O 0.20942 0.48523 0.37366 0.0
O336 O 0.15153 0.46251 0.35264 0.0
C337 C 0.15622 0.48624 0.33658 0.0
C338 C 0.18385 0.47322 0.44519 0.0
O339 O 0.15877 0.51302 0.34608 0.0
C340 C 0.14645 0.53937 0.43198 0.0
O341 O 0.12422 0.44282 0.40193 0.0
O342 O 0.10828 0.47385 0.37878 0.0
O343 O 0.18419 0.50076 0.44622 0.0
O344 O 0.18269 0.4598 0.42205 0.0
C345 C 0.20771 0.57756 0.38077 0.0
O346 O 0.12819 0.52162 0.41248 0.0
O347 O 0.17766 0.5499 0.43252 0.0
C348 C 0.1014 0.44875 0.39395 0.0
O349 O 0.17591 0.56222 0.37855 0.0
O350 O 0.22202 0.56428 0.39345 0.0
C351 C 0.23505 0.50624 0.38696 0.0
Fe352 Fe 0.7108 0.16945 0.88748 0.0
Fe353 Fe 0.63376 0.1379 0.88067 0.0
O354 O 0.67259 0.16892 0.89488 0.0
Fe355 Fe 0.67303 0.19969 0.91675 0.0
O356 O 0.69933 0.23228 0.89305 0.0
O357 O 0.73682 0.21605 0.88805 0.0
O358 O 0.70563 0.17307 0.85097 0.0
C359 C 0.67973 0.15432 0.83701 0.0
C360 C 0.7211 0.18717 0.94178 0.0
O361 O 0.6521 0.13422 0.84844 0.0
C362 C 0.61749 0.14411 0.93528 0.0
O363 O 0.69097 0.12305 0.88519 0.0
O364 O 0.6381 0.10479 0.89661 0.0
O365 O 0.70927 0.20621 0.93703 0.0
O366 O 0.71918 0.16628 0.92389 0.0
C367 C 0.62547 0.19244 0.87681 0.0
O368 O 0.60857 0.13608 0.91056 0.0
O369 O 0.64652 0.16784 0.94119 0.0
C370 C 0.66261 0.0999 0.89377 0.0
O371 O 0.62653 0.16923 0.86378 0.0
O372 O 0.63704 0.20001 0.90088 0.0
C373 C 0.72784 0.23797 0.88508 0.0
Fe374 Fe 0.4982 0.61865 0.38881 0.0
Fe375 Fe 0.47307 0.65613 0.42513 0.0
O376 O 0.50135 0.65691 0.40026 0.0
Fe377 Fe 0.53281 0.69593 0.38642 0.0
O378 O 0.53332 0.67849 0.35229 0.0
O379 O 0.49049 0.62687 0.35401 0.0
O380 O 0.45246 0.59282 0.39305 0.0
C381 C 0.43025 0.60133 0.39419 0.0
C382 C 0.56779 0.66286 0.39375 0.0
O383 O 0.43703 0.62962 0.4036 0.0
C384 C 0.52943 0.71261 0.44237 0.0
O385 O 0.50515 0.60758 0.42309 0.0
O386 O 0.46983 0.6199 0.4436 0.0
O387 O 0.56578 0.6886 0.39977 0.0
O388 O 0.54345 0.63744 0.38257 0.0
C389 C 0.47817 0.70483 0.38703 0.0
O390 O 0.50707 0.68301 0.44845 0.0
O391 O 0.53745 0.72078 0.41752 0.0
C392 C 0.48767 0.60597 0.44368 0.0
O393 O 0.47118 0.69186 0.41073 0.0
O394 O 0.50145 0.70535 0.37274 0.0
C395 C 0.51017 0.65264 0.34032 0.0
Fe396 Fe 0.53347 0.19754 0.0957 0.0
Fe397 Fe 0.4663 0.16529 0.12644 0.0
O398 O 0.50361 0.16524 0.11681 0.0
Fe399 Fe 0.51138 0.13293 0.12777 0.0
O400 O 0.55049 0.16264 0.14521 0.0
O401 O 0.56982 0.19645 0.10974 0.0
O402 O 0.54077 0.22845 0.12146 0.0
C403 C 0.51853 0.2339 0.13121 0.0
C404 C 0.53258 0.14329 0.07275 0.0
O405 O 0.48738 0.21204 0.12887 0.0
C406 C 0.4443 0.09643 0.1145 0.0
O407 O 0.50354 0.20587 0.07751 0.0
O408 O 0.45404 0.16519 0.09051 0.0
O409 O 0.53415 0.13365 0.09672 0.0
O410 O 0.52735 0.1675 0.06901 0.0
C411 C 0.48219 0.14482 0.1745 0.0
O412 O 0.4393 0.1186 0.12577 0.0
O413 O 0.47366 0.10149 0.11088 0.0
C414 C 0.47248 0.18726 0.0732 0.0
O415 O 0.47581 0.16554 0.16281 0.0
O416 O 0.48965 0.12613 0.16064 0.0
C417 C 0.5745 0.18707 0.13287 0.0
Fe418 Fe 0.30795 0.47533 0.62427 0.0
Fe419 Fe 0.38485 0.50898 0.63159 0.0
O420 O 0.34928 0.50813 0.61629 0.0
Fe421 Fe 0.35504 0.54004 0.59313 0.0
O422 O 0.3168 0.54011 0.60324 0.0
O423 O 0.29621 0.50515 0.63811 0.0
O424 O 0.31849 0.47002 0.65984 0.0
C425 C 0.34214 0.49031 0.67554 0.0
C426 C 0.30335 0.48626 0.56717 0.0
O427 O 0.3704 0.51159 0.66576 0.0
C428 C 0.40742 0.52711 0.57903 0.0
O429 O 0.31758 0.44375 0.61077 0.0
O430 O 0.36502 0.46313 0.63381 0.0
O431 O 0.33351 0.5098 0.56574 0.0
O432 O 0.28966 0.47511 0.59035 0.0
C433 C 0.40345 0.57788 0.63081 0.0
O434 O 0.40191 0.5066 0.59831 0.0
O435 O 0.39447 0.54578 0.57905 0.0
C436 C 0.34185 0.44052 0.61932 0.0
O437 O 0.41126 0.55511 0.63202 0.0
O438 O 0.37686 0.57253 0.61889 0.0
C439 C 0.30008 0.5308 0.6253 0.0
Fe440 Fe 0.87622 0.38435 0.12626 0.0
Fe441 Fe 0.8152 0.34842 0.08869 0.0
O442 O 0.84213 0.34636 0.11328 0.0
Fe443 Fe 0.83511 0.30675 0.12514 0.0
O444 O 0.8501 0.32231 0.16057 0.0
O445 O 0.85855 0.37405 0.16029 0.0
O446 O 0.85581 0.40967 0.12214 0.0
C447 C 0.82494 0.40061 0.12141 0.0
C448 C 0.90395 0.34224 0.12122 0.0
O449 O 0.80383 0.37227 0.11179 0.0
C450 C 0.82047 0.29592 0.06776 0.0
O451 O 0.89562 0.397 0.09252 0.0
O452 O 0.84834 0.38642 0.07234 0.0
O453 O 0.87707 0.31654 0.1134 0.0
O454 O 0.90317 0.36638 0.13298 0.0
C455 C 0.77046 0.29582 0.12344 0.0
O456 O 0.82484 0.32499 0.06411 0.0
O457 O 0.81827 0.28439 0.09189 0.0
C458 C 0.88 0.39928 0.07206 0.0
O459 O 0.77742 0.31071 0.10054 0.0
O460 O 0.79287 0.29452 0.13755 0.0
C461 C 0.85214 0.34768 0.17318 0.0
Fe462 Fe 0.54709 0.84095 0.62926 0.0
Fe463 Fe 0.49895 0.86931 0.63295 0.0
O464 O 0.50947 0.84002 0.61906 0.0
Fe465 Fe 0.48212 0.80915 0.59555 0.0
O466 O 0.49113 0.77662 0.60745 0.0
O467 O 0.52311 0.79889 0.64386 0.0
O468 O 0.54787 0.85701 0.66393 0.0
C469 C 0.52377 0.85423 0.67847 0.0
C470 C 0.54074 0.8216 0.57265 0.0
O471 O 0.49911 0.85481 0.66758 0.0
C472 C 0.4796 0.86746 0.57983 0.0
O473 O 0.57308 0.88364 0.61582 0.0
O474 O 0.54295 0.90311 0.63571 0.0
O475 O 0.51471 0.82386 0.56951 0.0
O476 O 0.55277 0.82386 0.59653 0.0
C477 C 0.43586 0.80867 0.63127 0.0
O478 O 0.4978 0.88572 0.59924 0.0
O479 O 0.4678 0.83595 0.57987 0.0
C480 C 0.5697 0.90809 0.62386 0.0
O481 O 0.45288 0.84052 0.63261 0.0
O482 O 0.44786 0.79225 0.61999 0.0
C483 C 0.50173 0.77353 0.63058 0.0
Fe484 Fe 0.70246 0.54158 0.1263 0.0
Fe485 Fe 0.62649 0.49245 0.13441 0.0
O486 O 0.66538 0.503 0.11865 0.0
Fe487 Fe 0.66742 0.4744 0.09559 0.0
O488 O 0.71064 0.48595 0.10401 0.0
O489 O 0.72298 0.51935 0.13966 0.0
O490 O 0.69044 0.54344 0.16225 0.0
C491 C 0.66942 0.52044 0.17801 0.0
C492 C 0.70845 0.53235 0.06855 0.0
O493 O 0.64371 0.49504 0.16838 0.0
C494 C 0.60503 0.46916 0.08283 0.0
O495 O 0.68371 0.56623 0.11417 0.0
O496 O 0.63574 0.5361 0.13627 0.0
O497 O 0.68109 0.50475 0.06791 0.0
O498 O 0.72151 0.54609 0.09151 0.0
C499 C 0.6262 0.43051 0.13448 0.0
O500 O 0.6063 0.48893 0.10142 0.0
O501 O 0.62462 0.45734 0.0829 0.0
C502 C 0.6564 0.56263 0.12364 0.0
O503 O 0.61054 0.44671 0.1355 0.0
O504 O 0.6539 0.44243 0.12197 0.0
C505 C 0.72647 0.49794 0.1261 0.0
Fe506 Fe 0.17005 0.70519 0.62474 0.0
Fe507 Fe 0.13759 0.6273 0.6284 0.0
O508 O 0.16948 0.66714 0.61623 0.0
Fe509 Fe 0.20128 0.6687 0.59492 0.0
O510 O 0.23249 0.69228 0.62052 0.0
O511 O 0.21693 0.73017 0.62735 0.0
O512 O 0.16996 0.69754 0.66099 0.0
C513 C 0.1506 0.67116 0.67402 0.0
C514 C 0.19318 0.7208 0.57223 0.0
O515 O 0.13295 0.64321 0.66188 0.0
C516 C 0.14586 0.61602 0.57247 0.0
O517 O 0.12345 0.68607 0.62385 0.0
O518 O 0.10529 0.63292 0.6129 0.0
O519 O 0.21055 0.70712 0.57683 0.0
O520 O 0.1705 0.71697 0.58883 0.0
C521 C 0.19117 0.61756 0.63199 0.0
O522 O 0.13654 0.60466 0.59662 0.0
O523 O 0.17072 0.64511 0.56864 0.0
C524 C 0.10063 0.65762 0.61491 0.0
O525 O 0.16768 0.61806 0.64493 0.0
O526 O 0.19965 0.63086 0.60858 0.0
C527 C 0.23853 0.7205 0.62974 0.0
H528 H 0.11554 0.55751 0.95131 0.0
H529 H 0.14934 0.65248 0.99217 0.0
H530 H 0.14286 0.62576 0.03686 0.0
H531 H 0.1383 0.57818 0.0631 0.0
H532 H 0.11034 0.48455 0.02226 0.0
H533 H 0.10309 0.5073 0.97886 0.0
C534 C 0.12022 0.57188 0.97014 0.0
C535 C 0.13264 0.60669 0.96876 0.0
C536 C 0.11785 0.55656 0.99568 0.0
C537 C 0.13952 0.62554 0.99302 0.0
C538 C 0.13603 0.61033 0.01849 0.0
C539 C 0.12926 0.56246 0.04487 0.0
C540 C 0.12429 0.52976 0.04566 0.0
C541 C 0.12671 0.57625 0.01996 0.0
C542 C 0.1136 0.50963 0.02199 0.0
C543 C 0.10987 0.52278 0.99718 0.0
H544 H 0.62469 0.11694 0.51899 0.0
H545 H 0.54396 0.09886 0.57401 0.0
H546 H 0.50814 0.09399 0.53507 0.0
H547 H 0.50533 0.10788 0.48654 0.0
H548 H 0.58562 0.12443 0.43137 0.0
H549 H 0.616 0.11625 0.46899 0.0
C550 C 0.59865 0.11015 0.52223 0.0
C551 C 0.58676 0.10821 0.54907 0.0
C552 C 0.57851 0.10791 0.49976 0.0
C553 C 0.55329 0.10001 0.55336 0.0
C554 C 0.53304 0.09775 0.53114 0.0
C555 C 0.52892 0.10848 0.4827 0.0
C556 C 0.54357 0.11716 0.45652 0.0
C557 C 0.54614 0.10363 0.5044 0.0
C558 C 0.57397 0.11775 0.45147 0.0
C559 C 0.59144 0.11331 0.47299 0.0
H560 H 0.44576 0.55358 0.96134 0.0
H561 H 0.34896 0.48872 0.99839 0.0
H562 H 0.37313 0.50714 0.04399 0.0
H563 H 0.41835 0.55035 0.0721 0.0
H564 H 0.51429 0.61779 0.03553 0.0
H565 H 0.49437 0.58943 0.99106 0.0
C566 C 0.4303 0.54268 0.97945 0.0
C567 C 0.39555 0.5204 0.97659 0.0
C568 C 0.44418 0.55418 1.00567 0.0
C569 C 0.3757 0.50639 1.00016 0.0
C570 C 0.38946 0.51695 0.02623 0.0
C571 C 0.43522 0.55772 0.05459 0.0
C572 C 0.46761 0.5857 0.05678 0.0
C573 C 0.42318 0.54211 0.02911 0.0
C574 C 0.48936 0.59583 0.03413 0.0
C575 C 0.47781 0.57991 0.0087 0.0
H576 H 0.86793 0.42398 0.56213 0.0
H577 H 0.88298 0.51496 0.5238 0.0
H578 H 0.88951 0.4948 0.479 0.0
H579 H 0.88076 0.44702 0.44982 0.0
H580 H 0.86117 0.35433 0.48781 0.0
H581 H 0.86713 0.37919 0.53342 0.0
C582 C 0.87392 0.43981 0.54409 0.0
C583 C 0.87499 0.47086 0.54613 0.0
C584 C 0.87636 0.42741 0.51819 0.0
C585 C 0.88198 0.49092 0.52258 0.0
C586 C 0.88554 0.47931 0.49695 0.0
C587 C 0.87911 0.43286 0.46814 0.0
C588 C 0.871 0.39916 0.46566 0.0
C589 C 0.88131 0.44698 0.49431 0.0
C590 C 0.86787 0.38052 0.48941 0.0
C591 C 0.87101 0.39465 0.51547 0.0
H592 H 0.48742 0.88047 0.9928 0.0
H593 H 0.40703 0.86662 0.93883 0.0
H594 H 0.38027 0.8801 0.97624 0.0
H595 H 0.37491 0.88557 0.0258 0.0
H596 H 0.45521 0.90039 0.07995 0.0
H597 H 0.48779 0.89837 0.04091 0.0
C598 C 0.46433 0.88096 0.9893 0.0
C599 C 0.44867 0.87188 0.96351 0.0
C600 C 0.44941 0.88933 0.01079 0.0
C601 C 0.41921 0.87324 0.95875 0.0
C602 C 0.40397 0.881 0.98006 0.0
C603 C 0.40036 0.89028 0.02874 0.0
C604 C 0.41284 0.89313 0.05544 0.0
C605 C 0.41825 0.88794 1.00636 0.0
C606 C 0.44545 0.89855 0.05938 0.0
C607 C 0.46372 0.89668 0.03714 0.0
H608 H 0.56091 0.45549 0.46231 0.0
H609 H 0.65798 0.51205 0.50144 0.0
H610 H 0.63209 0.49317 0.54637 0.0
H611 H 0.58418 0.45179 0.57325 0.0
H612 H 0.48759 0.39232 0.5347 0.0
H613 H 0.51051 0.42152 0.49102 0.0
C614 C 0.57618 0.46447 0.48074 0.0
C615 C 0.61138 0.4846 0.47853 0.0
C616 C 0.56117 0.45273 0.50663 0.0
C617 C 0.63089 0.49608 0.50258 0.0
C618 C 0.61613 0.48527 0.52831 0.0
C619 C 0.5679 0.44642 0.55553 0.0
C620 C 0.53433 0.4204 0.55701 0.0
C621 C 0.58161 0.46233 0.53044 0.0
C622 C 0.51341 0.41283 0.53397 0.0
C623 C 0.52667 0.42916 0.50895 0.0
H624 H 0.90273 0.50608 0.98675 0.0
H625 H 0.86375 0.41821 0.93498 0.0
H626 H 0.87334 0.38719 0.97114 0.0
H627 H 0.88058 0.38163 0.02014 0.0
H628 H 0.91529 0.46752 0.07349 0.0
H629 H 0.92092 0.50327 0.03419 0.0
C630 C 0.89757 0.48056 0.98325 0.0
C631 C 0.8825 0.46417 0.95855 0.0
C632 C 0.90226 0.46258 1.00451 0.0
C633 C 0.87539 0.43106 0.95401 0.0
C634 C 0.88075 0.41334 0.97467 0.0
C635 C 0.89105 0.40855 0.02281 0.0
C636 C 0.8978 0.42217 0.04935 0.0
C637 C 0.89254 0.42831 1.00041 0.0
C638 C 0.91062 0.45682 0.05301 0.0
C639 C 0.91319 0.47706 0.03062 0.0
H640 H 0.50584 0.90209 0.53253 0.0
H641 H 0.41778 0.85897 0.58406 0.0
H642 H 0.38445 0.86312 0.54684 0.0
H643 H 0.37815 0.86795 0.4974 0.0
H644 H 0.46527 0.90978 0.44495 0.0
H645 H 0.50152 0.91803 0.48465 0.0
C646 C 0.47973 0.89501 0.53578 0.0
C647 C 0.4641 0.88038 0.56079 0.0
C648 C 0.46054 0.89678 0.514 0.0
C649 C 0.43016 0.87058 0.56491 0.0
C650 C 0.41108 0.87266 0.54359 0.0
C651 C 0.40526 0.88009 0.49496 0.0
C652 C 0.41923 0.88825 0.46858 0.0
C653 C 0.42562 0.88412 0.5177 0.0
C654 C 0.45422 0.9037 0.46528 0.0
C655 C 0.47482 0.90802 0.4879 0.0
H656 H 0.60135 0.49507 0.03449 0.0
H657 H 0.54951 0.4083 0.08669 0.0
H658 H 0.51789 0.37369 0.04738 0.0
H659 H 0.5139 0.36622 0.99725 0.0
H660 H 0.56644 0.45317 0.94492 0.0
H661 H 0.58875 0.48964 0.98502 0.0
C662 C 0.58183 0.46902 0.03733 0.0
C663 C 0.57727 0.45416 0.06323 0.0
C664 C 0.56478 0.44908 0.01447 0.0
C665 C 0.55275 0.42021 0.06685 0.0
C666 C 0.53517 0.40033 0.04433 0.0
C667 C 0.52981 0.39321 0.99469 0.0
C668 C 0.53935 0.40685 0.96824 0.0
C669 C 0.54241 0.41412 0.01786 0.0
C670 C 0.55924 0.44195 0.96511 0.0
C671 C 0.57199 0.46289 0.98803 0.0
H672 H 0.12091 0.51121 0.48077 0.0
H673 H 0.14536 0.5974 0.43029 0.0
H674 H 0.14165 0.62786 0.47022 0.0
H675 H 0.14239 0.63331 0.52029 0.0
H676 H 0.12042 0.54799 0.57133 0.0
H677 H 0.11144 0.5134 0.53045 0.0
C678 C 0.12396 0.53612 0.47851 0.0
C679 C 0.13304 0.55218 0.45293 0.0
C680 C 0.12289 0.55373 0.50169 0.0
C681 C 0.1378 0.58464 0.44991 0.0
C682 C 0.13608 0.60211 0.47274 0.0
C683 C 0.13489 0.60692 0.52239 0.0
C684 C 0.13276 0.59331 0.54861 0.0
C685 C 0.13034 0.58748 0.49889 0.0
C686 C 0.12242 0.55901 0.55127 0.0
C687 C 0.11749 0.5393 0.52792 0.0
H688 H 0.62302 0.12677 0.98668 0.0
H689 H 0.5555 0.13716 0.93139 0.0
H690 H 0.51948 0.13319 0.9699 0.0
H691 H 0.51334 0.13688 0.01975 0.0
H692 H 0.58056 0.12547 0.07482 0.0
H693 H 0.61035 0.11907 0.0359 0.0
C694 C 0.59987 0.12715 0.98314 0.0
C695 C 0.59191 0.13269 0.95667 0.0
C696 C 0.57958 0.12509 1.00526 0.0
C697 C 0.56186 0.13286 0.95184 0.0
C698 C 0.5415 0.13092 0.9738 0.0
C699 C 0.53406 0.13225 0.02309 0.0
C700 C 0.54534 0.13234 0.04981 0.0
C701 C 0.55102 0.12861 1.00069 0.0
C702 C 0.57169 0.1257 0.05425 0.0
C703 C 0.58882 0.12221 0.03206 0.0
H704 H 0.40135 0.49917 0.52898 0.0
H705 H 0.47231 0.57552 0.58357 0.0
H706 H 0.50903 0.60565 0.54493 0.0
H707 H 0.51331 0.61652 0.49503 0.0
H708 H 0.44303 0.53972 0.44033 0.0
H709 H 0.41395 0.50299 0.47932 0.0
C710 C 0.42571 0.52142 0.53245 0.0
C711 C 0.43425 0.53531 0.55891 0.0
C712 C 0.44642 0.53881 0.50998 0.0
C713 C 0.46546 0.56447 0.56329 0.0
C714 C 0.48626 0.58186 0.54115 0.0
C715 C 0.49267 0.59109 0.49171 0.0
C716 C 0.48012 0.58068 0.46507 0.0
C717 C 0.47599 0.57028 0.51428 0.0
C718 C 0.45306 0.54799 0.46079 0.0
C719 C 0.43628 0.52715 0.48309 0.0
H720 H 0.27318 0.5646 0.14252 0.0
H721 H 0.27137 0.47233 0.12254 0.0
H722 H 0.33283 0.50051 0.12781 0.0
H723 H 0.38733 0.55367 0.13113 0.0
H724 H 0.3879 0.64645 0.14728 0.0
H725 H 0.32683 0.61598 0.15094 0.0
C726 C 0.28631 0.55057 0.14017 0.0
C727 C 0.26823 0.5166 0.13251 0.0
C728 C 0.32144 0.56721 0.14225 0.0
C729 C 0.28508 0.49847 0.12894 0.0
C730 C 0.32014 0.51467 0.13168 0.0
C731 C 0.3741 0.56701 0.13621 0.0
C732 C 0.39211 0.60231 0.13882 0.0
C733 C 0.3387 0.54936 0.13735 0.0
C734 C 0.37462 0.61935 0.14508 0.0
C735 C 0.33966 0.60195 0.14709 0.0
H736 H 0.7488 0.38542 0.63027 0.0
H737 H 0.84751 0.39957 0.64502 0.0
H738 H 0.8234 0.33847 0.65014 0.0
H739 H 0.77448 0.28035 0.64372 0.0
H740 H 0.67631 0.26807 0.62925 0.0
H741 H 0.69958 0.32878 0.63146 0.0
C742 C 0.76489 0.3751 0.63522 0.0
C743 C 0.79979 0.39674 0.63707 0.0
C744 C 0.75084 0.34016 0.63816 0.0
C745 C 0.82049 0.38328 0.64363 0.0
C746 C 0.8067 0.34834 0.64637 0.0
C747 C 0.75816 0.29104 0.64208 0.0
C748 C 0.72372 0.26983 0.63638 0.0
C749 C 0.77196 0.32637 0.64283 0.0
C750 C 0.70286 0.28394 0.63373 0.0
C751 C 0.71619 0.31868 0.63477 0.0
H752 H 0.50286 0.78707 0.11248 0.0
H753 H 0.43445 0.69966 0.159 0.0
H754 H 0.39562 0.72142 0.1639 0.0
H755 H 0.37856 0.76273 0.15012 0.0
H756 H 0.44942 0.85225 0.10668 0.0
H757 H 0.49004 0.83271 0.10552 0.0
C758 C 0.48004 0.77355 0.12456 0.0
C759 C 0.47132 0.74199 0.13549 0.0
C760 C 0.45808 0.78638 0.12739 0.0
C761 C 0.44148 0.72415 0.15061 0.0
C762 C 0.41924 0.73646 0.1532 0.0
C763 C 0.4031 0.77805 0.1408 0.0
C764 C 0.41094 0.80864 0.12824 0.0
C765 C 0.42676 0.76705 0.14086 0.0
C766 C 0.4429 0.82858 0.11646 0.0
C767 C 0.46612 0.81741 0.11574 0.0
H768 H 0.72181 0.42781 0.64623 0.0
H769 H 0.73134 0.5228 0.62286 0.0
H770 H 0.67009 0.49809 0.62615 0.0
H771 H 0.6135 0.44694 0.62879 0.0
H772 H 0.60562 0.35172 0.64894 0.0
H773 H 0.6665 0.37904 0.65401 0.0
C774 C 0.71055 0.44331 0.64231 0.0
C775 C 0.73095 0.4769 0.63393 0.0
C776 C 0.67552 0.42872 0.64343 0.0
C777 C 0.71613 0.49684 0.62934 0.0
C778 C 0.68109 0.48262 0.63099 0.0
C779 C 0.62513 0.43244 0.63501 0.0
C780 C 0.60516 0.39732 0.63835 0.0
C781 C 0.66044 0.44823 0.63702 0.0
C782 C 0.62051 0.37871 0.64611 0.0
C783 C 0.65531 0.3943 0.64894 0.0
H784 H 0.17761 0.61395 0.13275 0.0
H785 H 0.26928 0.61194 0.117 0.0
H786 H 0.30213 0.67255 0.12321 0.0
H787 H 0.30466 0.72671 0.12764 0.0
H788 H 0.21428 0.7308 0.14231 0.0
H789 H 0.18116 0.66887 0.14264 0.0
C790 C 0.20479 0.62673 0.13098 0.0
C791 C 0.22078 0.60826 0.1239 0.0
C792 C 0.22379 0.662 0.13442 0.0
C793 C 0.25611 0.62533 0.12201 0.0
C794 C 0.27504 0.6601 0.12561 0.0
C795 C 0.27779 0.71397 0.13162 0.0
C796 C 0.26184 0.73307 0.13499 0.0
C797 C 0.2591 0.67872 0.13107 0.0
C798 C 0.22709 0.71651 0.14005 0.0
C799 C 0.20817 0.68115 0.13985 0.0
H800 H 0.61109 0.2325 0.64854 0.0
H801 H 0.54628 0.15147 0.59423 0.0
H802 H 0.50632 0.172 0.59303 0.0
H803 H 0.49336 0.21695 0.60334 0.0
H804 H 0.55601 0.29593 0.65988 0.0
H805 H 0.59309 0.27214 0.6649 0.0
C806 C 0.58792 0.21917 0.63686 0.0
C807 C 0.58158 0.19083 0.62129 0.0
C808 C 0.56474 0.23069 0.63679 0.0
C809 C 0.55147 0.17336 0.60638 0.0
C810 C 0.52871 0.18512 0.60563 0.0
C811 C 0.51443 0.22807 0.61752 0.0
C812 C 0.52204 0.25781 0.63144 0.0
C813 C 0.53545 0.21418 0.62027 0.0
C814 C 0.54967 0.27267 0.64933 0.0
C815 C 0.57099 0.2593 0.65195 0.0
H816 H 0.39018 0.61522 0.85888 0.0
H817 H 0.45158 0.60858 0.92254 0.0
H818 H 0.4884 0.66991 0.92204 0.0
H819 H 0.49817 0.7258 0.90794 0.0
H820 H 0.43329 0.73221 0.84741 0.0
H821 H 0.40336 0.67103 0.84158 0.0
C822 C 0.41222 0.62729 0.872 0.0
C823 C 0.41861 0.60769 0.89044 0.0
C824 C 0.43257 0.66262 0.87218 0.0
C825 C 0.44662 0.62338 0.90794 0.0
C826 C 0.46752 0.6584 0.90775 0.0
C827 C 0.47829 0.71379 0.8928 0.0
C828 C 0.46817 0.73337 0.87785 0.0
C829 C 0.46018 0.67839 0.89052 0.0
C830 C 0.44169 0.71754 0.85887 0.0
C831 C 0.42439 0.68256 0.85573 0.0
H832 H 0.69676 0.41812 0.37342 0.0
H833 H 0.78685 0.51518 0.38052 0.0
H834 H 0.82134 0.48827 0.37779 0.0
H835 H 0.82515 0.43642 0.37992 0.0
H836 H 0.73412 0.33962 0.37488 0.0
H837 H 0.70082 0.36722 0.37018 0.0
C838 C 0.72399 0.4335 0.37391 0.0
C839 C 0.73919 0.46855 0.37756 0.0
C840 C 0.74348 0.41782 0.37308 0.0
C841 C 0.77449 0.48814 0.37775 0.0
C842 C 0.79421 0.47272 0.37643 0.0
C843 C 0.7981 0.42139 0.37728 0.0
C844 C 0.78213 0.38597 0.37822 0.0
C845 C 0.7789 0.43746 0.37509 0.0
C846 C 0.74704 0.36689 0.37467 0.0
C847 C 0.72794 0.38265 0.37196 0.0
H848 H 0.27461 0.71397 0.85821 0.0
H849 H 0.26658 0.80066 0.87964 0.0
H850 H 0.32778 0.83693 0.87557 0.0
H851 H 0.38362 0.84119 0.87542 0.0
H852 H 0.39079 0.75272 0.85911 0.0
H853 H 0.33008 0.71974 0.85117 0.0
C854 C 0.28634 0.741 0.86094 0.0
C855 C 0.26661 0.75492 0.86896 0.0
C856 C 0.32143 0.76115 0.85982 0.0
C857 C 0.28159 0.78975 0.87299 0.0
C858 C 0.31652 0.81032 0.87099 0.0
C859 C 0.37187 0.81505 0.86901 0.0
C860 C 0.39123 0.79923 0.86749 0.0
C861 C 0.33678 0.796 0.86575 0.0
C862 C 0.37608 0.76522 0.85999 0.0
C863 C 0.34144 0.74639 0.85569 0.0
H864 H 0.63225 0.39286 0.37612 0.0
H865 H 0.54539 0.39913 0.4002 0.0
H866 H 0.51027 0.33743 0.39809 0.0
H867 H 0.50668 0.28154 0.39526 0.0
H868 H 0.59519 0.27729 0.37178 0.0
H869 H 0.62708 0.33813 0.36723 0.0
C870 C 0.60542 0.38062 0.38015 0.0
C871 C 0.59119 0.40006 0.38815 0.0
C872 C 0.5858 0.34547 0.37923 0.0
C873 C 0.55658 0.38435 0.39365 0.0
C874 C 0.53666 0.34915 0.39267 0.0
C875 C 0.53267 0.29395 0.38851 0.0
C876 C 0.54866 0.27494 0.38426 0.0
C877 C 0.55126 0.32935 0.38632 0.0
C878 C 0.58241 0.29136 0.37556 0.0
C879 C 0.60075 0.3262 0.37296 0.0
H880 H 0.17925 0.56486 0.88345 0.0
H881 H 0.26886 0.66283 0.87864 0.0
H882 H 0.30308 0.63678 0.87165 0.0
H883 H 0.30877 0.58685 0.87278 0.0
H884 H 0.2205 0.48848 0.87982 0.0
H885 H 0.1846 0.51389 0.87935 0.0
C886 C 0.20618 0.58046 0.88046 0.0
C887 C 0.22145 0.61578 0.88201 0.0
C888 C 0.22604 0.56525 0.87693 0.0
C889 C 0.2564 0.63562 0.87791 0.0
C890 C 0.27609 0.62075 0.87389 0.0
C891 C 0.28161 0.57089 0.8737 0.0
C892 C 0.26735 0.53592 0.87671 0.0
C893 C 0.26133 0.58568 0.87424 0.0
C894 C 0.23212 0.5155 0.8775 0.0
C895 C 0.2116 0.53007 0.87751 0.0
H896 H 0.61963 0.15951 0.38802 0.0
H897 H 0.61047 0.23858 0.34894 0.0
H898 H 0.67139 0.2705 0.34113 0.0
H899 H 0.7277 0.27976 0.35295 0.0
H900 H 0.7368 0.20104 0.39276 0.0
H901 H 0.67555 0.16449 0.39215 0.0
C902 C 0.631 0.18319 0.37696 0.0
C903 C 0.61098 0.19689 0.36901 0.0
C904 C 0.66599 0.20137 0.37279 0.0
C905 C 0.62565 0.2277 0.35505 0.0
C906 C 0.66043 0.24594 0.35073 0.0
C907 C 0.71621 0.25402 0.36028 0.0
C908 C 0.73646 0.24274 0.37253 0.0
C909 C 0.68097 0.2336 0.36047 0.0
C910 C 0.72154 0.20983 0.38279 0.0
C911 C 0.68655 0.18916 0.38275 0.0
H912 H 0.62375 0.39117 0.85001 0.0
H913 H 0.60419 0.44701 0.91129 0.0
H914 H 0.66411 0.4883 0.91428 0.0
H915 H 0.72242 0.50303 0.90492 0.0
H916 H 0.7431 0.44808 0.84368 0.0
H917 H 0.68265 0.41219 0.83472 0.0
C918 C 0.63269 0.41308 0.86322 0.0
C919 C 0.60989 0.41637 0.88034 0.0
C920 C 0.66738 0.43657 0.86502 0.0
C921 C 0.6215 0.44436 0.89781 0.0
C922 C 0.65572 0.46779 0.89965 0.0
C923 C 0.71358 0.48394 0.88895 0.0
C924 C 0.73677 0.47811 0.87482 0.0
C925 C 0.67897 0.46343 0.88415 0.0
C926 C 0.72542 0.45312 0.85445 0.0
C927 C 0.69091 0.43244 0.84956 0.0
H928 H 0.3143 0.73105 0.37856 0.0
H929 H 0.22544 0.73938 0.37059 0.0
H930 H 0.19094 0.67804 0.36458 0.0
H931 H 0.18578 0.62177 0.36866 0.0
H932 H 0.27589 0.61497 0.37714 0.0
H933 H 0.31032 0.676 0.3753 0.0
C934 C 0.28752 0.71943 0.37468 0.0
C935 C 0.27229 0.73936 0.37495 0.0
C936 C 0.2681 0.68443 0.37166 0.0
C937 C 0.23761 0.72435 0.37012 0.0
C938 C 0.21793 0.68931 0.36698 0.0
C939 C 0.21297 0.6336 0.36943 0.0
C940 C 0.22814 0.61375 0.3736 0.0
C941 C 0.2328 0.66898 0.36872 0.0
C942 C 0.26346 0.62956 0.37441 0.0
C943 C 0.28324 0.66452 0.37339 0.0
H944 H 0.57988 0.29759 0.85993 0.0
H945 H 0.48551 0.21437 0.88744 0.0
H946 H 0.50849 0.17654 0.88343 0.0
H947 H 0.55854 0.16956 0.87941 0.0
H948 H 0.65285 0.25336 0.853 0.0
H949 H 0.62687 0.28845 0.8488 0.0
C950 C 0.56411 0.27099 0.86444 0.0
C951 C 0.53119 0.25888 0.87427 0.0
C952 C 0.57762 0.24954 0.86237 0.0
C953 C 0.51091 0.22432 0.87979 0.0
C954 C 0.52414 0.20272 0.8777 0.0
C955 C 0.57288 0.19508 0.87165 0.0
C956 C 0.60737 0.20889 0.8661 0.0
C957 C 0.55786 0.21532 0.86997 0.0
C958 C 0.62615 0.24222 0.85689 0.0
C959 C 0.61136 0.26233 0.85478 0.0
H960 H 0.27952 0.48696 0.40126 0.0
H961 H 0.26682 0.5572 0.35144 0.0
H962 H 0.32789 0.59319 0.34757 0.0
H963 H 0.38441 0.60859 0.36469 0.0
H964 H 0.39723 0.53724 0.41301 0.0
H965 H 0.3367 0.49749 0.4111 0.0
C966 C 0.29029 0.50934 0.38851 0.0
C967 C 0.26909 0.51937 0.37629 0.0
C968 C 0.32536 0.53002 0.38673 0.0
C969 C 0.28295 0.54882 0.36045 0.0
C970 C 0.31779 0.5696 0.35861 0.0
C971 C 0.37387 0.58406 0.37433 0.0
C972 C 0.39486 0.57588 0.38933 0.0
C973 C 0.33918 0.56114 0.37267 0.0
C974 C 0.38133 0.54398 0.40146 0.0
C975 C 0.34677 0.5213 0.4004 0.0
H976 H 0.83745 0.39005 0.88875 0.0
H977 H 0.752 0.39753 0.86146 0.0
H978 H 0.72025 0.33699 0.85323 0.0
H979 H 0.71371 0.28179 0.86111 0.0
H980 H 0.79633 0.2726 0.89291 0.0
H981 H 0.83276 0.33399 0.89137 0.0
C982 C 0.81217 0.37843 0.88043 0.0
C983 C 0.79679 0.39794 0.87607 0.0
C984 C 0.79358 0.34336 0.87676 0.0
C985 C 0.76406 0.38279 0.86529 0.0
C986 C 0.74594 0.34824 0.8606 0.0
C987 C 0.7399 0.29321 0.86718 0.0
C988 C 0.75224 0.27296 0.87755 0.0
C989 C 0.75996 0.32822 0.86739 0.0
C990 C 0.78631 0.2878 0.88489 0.0
C991 C 0.80699 0.32288 0.88428 0.0
H992 H 0.37391 0.75285 0.38039 0.0
H993 H 0.4636 0.8496 0.39071 0.0
H994 H 0.49848 0.8236 0.3847 0.0
H995 H 0.5029 0.772 0.38261 0.0
H996 H 0.41272 0.67553 0.37414 0.0
H997 H 0.37857 0.7027 0.37265 0.0
C998 C 0.40107 0.76832 0.38102 0.0
C999 C 0.41606 0.80298 0.38645 0.0
C1000 C 0.42089 0.7532 0.3777 0.0
C1001 C 0.45138 0.82279 0.38673 0.0
C1002 C 0.47136 0.80793 0.38334 0.0
C1003 C 0.47593 0.75724 0.37937 0.0
C1004 C 0.4602 0.722 0.37802 0.0
C1005 C 0.45636 0.77301 0.37955 0.0
C1006 C 0.42519 0.70278 0.37472 0.0
C1007 C 0.40569 0.71826 0.3742 0.0
H1008 H 0.5798 0.27844 0.15049 0.0
H1009 H 0.48339 0.26807 0.13106 0.0
H1010 H 0.50787 0.32928 0.13473 0.0
H1011 H 0.55877 0.38588 0.13592 0.0
H1012 H 0.65561 0.39482 0.15079 0.0
H1013 H 0.62891 0.334 0.15649 0.0
C1014 C 0.56394 0.28949 0.14753 0.0
C1015 C 0.52998 0.26885 0.14008 0.0
C1016 C 0.57846 0.32452 0.14849 0.0
C1017 C 0.50961 0.28342 0.13679 0.0
C1018 C 0.52371 0.31844 0.13861 0.0
C1019 C 0.57387 0.37454 0.14106 0.0
C1020 C 0.60917 0.39476 0.14275 0.0
C1021 C 0.55842 0.33931 0.14331 0.0
C1022 C 0.62848 0.37976 0.1492 0.0
C1023 C 0.61323 0.34499 0.15242 0.0
H1024 H 0.23546 0.50928 0.64325 0.0
H1025 H 0.33167 0.59794 0.62818 0.0
H1026 H 0.30687 0.63362 0.63378 0.0
H1027 H 0.25673 0.63894 0.63507 0.0
H1028 H 0.15949 0.55162 0.64868 0.0
H1029 H 0.1855 0.51612 0.65197 0.0
C1030 C 0.25098 0.53644 0.642 0.0
C1031 C 0.28523 0.55101 0.63499 0.0
C1032 C 0.23627 0.55699 0.64461 0.0
C1033 C 0.30517 0.58621 0.63324 0.0
C1034 C 0.29102 0.60665 0.63638 0.0
C1035 C 0.24141 0.61227 0.63959 0.0
C1036 C 0.20641 0.59778 0.64158 0.0
C1037 C 0.25643 0.59222 0.64088 0.0
C1038 C 0.18661 0.56327 0.64734 0.0
C1039 C 0.20146 0.54298 0.64891 0.0
H1040 H 0.72744 0.23158 0.14245 0.0
H1041 H 0.73477 0.32725 0.1254 0.0
H1042 H 0.67443 0.30268 0.13206 0.0
H1043 H 0.61894 0.25272 0.13517 0.0
H1044 H 0.60908 0.15575 0.15001 0.0
H1045 H 0.67069 0.18184 0.15234 0.0
C1046 C 0.71579 0.24705 0.14095 0.0
C1047 C 0.73539 0.2811 0.13321 0.0
C1048 C 0.68056 0.23242 0.14413 0.0
C1049 C 0.72009 0.30093 0.13109 0.0
C1050 C 0.68558 0.28691 0.13485 0.0
C1051 C 0.63032 0.23747 0.13976 0.0
C1052 C 0.6097 0.20249 0.14242 0.0
C1053 C 0.66545 0.25248 0.14027 0.0
C1054 C 0.62454 0.18284 0.14823 0.0
C1055 C 0.65977 0.19774 0.1492 0.0
H1056 H 0.52055 0.72688 0.62286 0.0
H1057 H 0.44738 0.74462 0.66302 0.0
H1058 H 0.40961 0.68391 0.66865 0.0
H1059 H 0.39446 0.62599 0.65529 0.0
H1060 H 0.4701 0.60831 0.61951 0.0
H1061 H 0.51033 0.66869 0.61942 0.0
C1062 C 0.49695 0.71734 0.63385 0.0
C1063 C 0.48626 0.73968 0.64229 0.0
C1064 C 0.47574 0.68251 0.63735 0.0
C1065 C 0.45563 0.72743 0.65623 0.0
C1066 C 0.43408 0.69284 0.65932 0.0
C1067 C 0.42002 0.63542 0.64813 0.0
C1068 C 0.42918 0.613 0.63681 0.0
C1069 C 0.4433 0.67011 0.64885 0.0
C1070 C 0.46245 0.62524 0.62798 0.0
C1071 C 0.48544 0.65976 0.62788 0.0
H1072 H 0.77291 0.39541 0.15142 0.0
H1073 H 0.85485 0.46266 0.09903 0.0
H1074 H 0.83434 0.50264 0.0992 0.0
H1075 H 0.78862 0.51442 0.10924 0.0
H1076 H 0.70834 0.44894 0.16348 0.0
H1077 H 0.73289 0.41253 0.1683 0.0
C1078 C 0.78646 0.41913 0.14051 0.0
C1079 C 0.81494 0.42613 0.12498 0.0
C1080 C 0.77491 0.44225 0.14117 0.0
C1081 C 0.83277 0.45694 0.11109 0.0
C1082 C 0.82105 0.47972 0.11113 0.0
C1083 C 0.77747 0.49296 0.123 0.0
C1084 C 0.74709 0.48425 0.13621 0.0
C1085 C 0.79165 0.47221 0.1255 0.0
C1086 C 0.73211 0.45612 0.15353 0.0
C1087 C 0.74589 0.43515 0.15599 0.0
H1088 H 0.39136 0.83209 0.63231 0.0
H1089 H 0.39916 0.74348 0.64688 0.0
H1090 H 0.33867 0.70992 0.65309 0.0
H1091 H 0.28338 0.70383 0.64809 0.0
H1092 H 0.27326 0.79004 0.62888 0.0
H1093 H 0.33461 0.82657 0.63145 0.0
C1094 C 0.37982 0.8056 0.63742 0.0
C1095 C 0.39985 0.79031 0.6391 0.0
C1096 C 0.34452 0.78596 0.63991 0.0
C1097 C 0.38448 0.7559 0.64549 0.0
C1098 C 0.34979 0.73661 0.64896 0.0
C1099 C 0.2945 0.73073 0.64489 0.0
C1100 C 0.27384 0.7441 0.63783 0.0
C1101 C 0.32955 0.75112 0.64528 0.0
C1102 C 0.28859 0.77907 0.63425 0.0
C1103 C 0.32371 0.7999 0.63547 0.0
H1104 H 0.14867 0.44571 0.21091 0.0
H1105 H 0.16808 0.54756 0.20158 0.0
H1106 H 0.16999 0.55443 0.25111 0.0
H1107 H 0.1656 0.53193 0.29715 0.0
H1108 H 0.14618 0.43036 0.30771 0.0
H1109 H 0.14495 0.42317 0.25782 0.0
C1110 C 0.15339 0.46942 0.21972 0.0
C1111 C 0.15804 0.49596 0.20234 0.0
C1112 C 0.15443 0.47334 0.24853 0.0
C1113 C 0.16417 0.52653 0.21426 0.0
C1114 C 0.16533 0.53058 0.24269 0.0
C1115 C 0.16106 0.50814 0.28864 0.0
C1116 C 0.15584 0.4817 0.30629 0.0
C1117 C 0.16035 0.50416 0.26001 0.0
C1118 C 0.15021 0.45117 0.2947 0.0
C1119 C 0.14949 0.44702 0.26613 0.0
H1120 H 0.62764 0.13404 0.80175 0.0
H1121 H 0.73559 0.17797 0.80441 0.0
H1122 H 0.73789 0.18079 0.75423 0.0
H1123 H 0.70917 0.17079 0.70982 0.0
H1124 H 0.6014 0.12881 0.70745 0.0
H1125 H 0.59916 0.12545 0.7575 0.0
C1126 C 0.65167 0.144 0.79136 0.0
C1127 C 0.68138 0.15545 0.80673 0.0
C1128 C 0.65284 0.14608 0.76264 0.0
C1129 C 0.71237 0.16889 0.79301 0.0
C1130 C 0.71369 0.17053 0.76435 0.0
C1131 C 0.68516 0.16087 0.72024 0.0
C1132 C 0.65547 0.14987 0.7049 0.0
C1133 C 0.68408 0.15922 0.74899 0.0
C1134 C 0.62464 0.13746 0.71874 0.0
C1135 C 0.62331 0.13542 0.74735 0.0
H1136 H 0.47615 0.62483 0.21414 0.0
H1137 H 0.56481 0.72312 0.20733 0.0
H1138 H 0.57079 0.72625 0.25736 0.0
H1139 H 0.55094 0.70069 0.30313 0.0
H1140 H 0.46244 0.60201 0.30894 0.0
H1141 H 0.45651 0.59954 0.25923 0.0
C1142 C 0.49682 0.64704 0.22349 0.0
C1143 C 0.52001 0.67368 0.20687 0.0
C1144 C 0.50023 0.64858 0.25218 0.0
C1145 C 0.54659 0.70219 0.21954 0.0
C1146 C 0.55004 0.70399 0.24818 0.0
C1147 C 0.53039 0.67862 0.29353 0.0
C1148 C 0.50728 0.65153 0.3099 0.0
C1149 C 0.52705 0.67726 0.26472 0.0
C1150 C 0.48075 0.62319 0.297 0.0
C1151 C 0.47725 0.62174 0.2685 0.0
H1152 H 0.87819 0.50062 0.71267 0.0
H1153 H 0.82382 0.55433 0.70439 0.0
H1154 H 0.82281 0.55974 0.75406 0.0
H1155 H 0.83532 0.54737 0.80054 0.0
H1156 H 0.88761 0.49161 0.80862 0.0
H1157 H 0.89158 0.4892 0.75893 0.0
C1158 C 0.86632 0.51369 0.72172 0.0
C1159 C 0.85107 0.5269 0.70462 0.0
C1160 C 0.86534 0.51639 0.75053 0.0
C1161 C 0.83563 0.54364 0.71688 0.0
C1162 C 0.83505 0.54686 0.74541 0.0
C1163 C 0.84786 0.53502 0.79139 0.0
C1164 C 0.86102 0.51967 0.80841 0.0
C1165 C 0.84955 0.53308 0.76253 0.0
C1166 C 0.87697 0.50347 0.79612 0.0
C1167 C 0.87931 0.50206 0.7676 0.0
H1168 H 0.30493 0.85093 0.30461 0.0
H1169 H 0.40461 0.86364 0.30915 0.0
H1170 H 0.40712 0.86212 0.25922 0.0
H1171 H 0.38124 0.8574 0.21416 0.0
H1172 H 0.28143 0.84442 0.20969 0.0
H1173 H 0.27887 0.84572 0.2596 0.0
C1174 C 0.32726 0.85348 0.2947 0.0
C1175 C 0.35455 0.85756 0.31068 0.0
C1176 C 0.32855 0.85245 0.26593 0.0
C1177 C 0.3832 0.86057 0.29743 0.0
C1178 C 0.38469 0.85967 0.26883 0.0
C1179 C 0.3589 0.85481 0.22408 0.0
C1180 C 0.33166 0.85093 0.2081 0.0
C1181 C 0.35753 0.85563 0.25286 0.0
C1182 C 0.30287 0.84752 0.22139 0.0
C1183 C 0.30134 0.84829 0.24998 0.0
H1184 H 0.51019 0.37918 0.71488 0.0
H1185 H 0.44526 0.27227 0.70358 0.0
H1186 H 0.44102 0.26412 0.75339 0.0
H1187 H 0.45606 0.28757 0.80051 0.0
H1188 H 0.51882 0.39505 0.81094 0.0
H1189 H 0.5235 0.40263 0.76139 0.0
C1190 C 0.49515 0.35407 0.72328 0.0
C1191 C 0.4782 0.32639 0.70546 0.0
C1192 C 0.49236 0.34963 0.75193 0.0
C1193 C 0.45851 0.29407 0.71679 0.0
C1194 C 0.45613 0.28937 0.74531 0.0
C1195 C 0.47071 0.31261 0.7919 0.0
C1196 C 0.487 0.34065 0.80955 0.0
C1197 C 0.47296 0.31698 0.76313 0.0
C1198 C 0.50576 0.37298 0.79797 0.0
C1199 C 0.50859 0.37739 0.76955 0.0
H1200 H 0.54632 0.83729 0.80421 0.0
H1201 H 0.4816 0.87996 0.81231 0.0
H1202 H 0.47769 0.88212 0.7626 0.0
H1203 H 0.49256 0.87214 0.7167 0.0
H1204 H 0.55973 0.83253 0.70787 0.0
H1205 H 0.56282 0.82898 0.75779 0.0
C1206 C 0.53141 0.84704 0.79502 0.0
C1207 C 0.51438 0.8585 0.81192 0.0
C1208 C 0.5297 0.8488 0.76626 0.0
C1209 C 0.49526 0.87126 0.79976 0.0
C1210 C 0.49286 0.87241 0.77132 0.0
C1211 C 0.50782 0.86267 0.72571 0.0
C1212 C 0.5258 0.85255 0.70866 0.0
C1213 C 0.50998 0.86129 0.75436 0.0
C1214 C 0.54576 0.84065 0.72061 0.0
C1215 C 0.54747 0.83852 0.74914 0.0
H1216 H 0.62095 0.49305 0.21746 0.0
H1217 H 0.72807 0.55656 0.2065 0.0
H1218 H 0.73599 0.56127 0.25633 0.0
H1219 H 0.71256 0.54651 0.30308 0.0
H1220 H 0.60513 0.48575 0.31402 0.0
H1221 H 0.59724 0.48089 0.2642 0.0
C1222 C 0.64604 0.50793 0.22598 0.0
C1223 C 0.67392 0.52426 0.20825 0.0
C1224 C 0.65034 0.51102 0.25467 0.0
C1225 C 0.70619 0.54381 0.21965 0.0
C1226 C 0.71074 0.54643 0.24816 0.0
C1227 C 0.68741 0.53221 0.29456 0.0
C1228 C 0.65947 0.51632 0.31229 0.0
C1229 C 0.68302 0.53001 0.26587 0.0
C1230 C 0.62704 0.49828 0.30088 0.0
C1231 C 0.62253 0.49541 0.27238 0.0
H1232 H 0.15842 0.70829 0.79957 0.0
H1233 H 0.13393 0.60481 0.80785 0.0
H1234 H 0.12967 0.59794 0.75806 0.0
H1235 H 0.1349 0.62189 0.71188 0.0
H1236 H 0.1625 0.72623 0.70377 0.0
H1237 H 0.16325 0.73206 0.75361 0.0
C1238 C 0.15195 0.68418 0.79049 0.0
C1239 C 0.14652 0.65717 0.80745 0.0
C1240 C 0.15008 0.68051 0.76179 0.0
C1241 C 0.13842 0.62614 0.79531 0.0
C1242 C 0.13589 0.62212 0.7668 0.0
C1243 C 0.14069 0.64575 0.72107 0.0
C1244 C 0.14855 0.67353 0.70417 0.0
C1245 C 0.1419 0.6492 0.74981 0.0
C1246 C 0.15647 0.70447 0.71634 0.0
C1247 C 0.15692 0.70786 0.74484 0.0
H1248 H 0.48666 0.11412 0.30016 0.0
H1249 H 0.48153 0.20513 0.3087 0.0
H1250 H 0.4777 0.20835 0.2589 0.0
H1251 H 0.47769 0.18633 0.21264 0.0
H1252 H 0.48347 0.09557 0.20471 0.0
H1253 H 0.48496 0.09132 0.2544 0.0
C1254 C 0.48462 0.13464 0.29119 0.0
C1255 C 0.48448 0.15934 0.30825 0.0
C1256 C 0.48252 0.13645 0.26254 0.0
C1257 C 0.48172 0.1857 0.29614 0.0
C1258 C 0.47953 0.18761 0.26761 0.0
C1259 C 0.47895 0.16546 0.22179 0.0
C1260 C 0.48053 0.1414 0.20484 0.0
C1261 C 0.48012 0.16323 0.25057 0.0
C1262 C 0.48236 0.11461 0.21714 0.0
C1263 C 0.48324 0.1121 0.24562 0.0
H1264 H 0.39036 0.51381 0.71565 0.0
H1265 H 0.28275 0.45965 0.70363 0.0
H1266 H 0.2741 0.45474 0.75328 0.0
H1267 H 0.29694 0.46595 0.80023 0.0
H1268 H 0.40452 0.51802 0.81235 0.0
H1269 H 0.41323 0.52347 0.76269 0.0
C1270 C 0.36501 0.50097 0.72388 0.0
C1271 C 0.33726 0.48721 0.70583 0.0
C1272 C 0.36017 0.49778 0.75254 0.0
C1273 C 0.30459 0.47039 0.71695 0.0
C1274 C 0.2996 0.46761 0.74539 0.0
C1275 C 0.32232 0.47851 0.79204 0.0
C1276 C 0.35002 0.49163 0.81012 0.0
C1277 C 0.32718 0.48122 0.76339 0.0
C1278 C 0.3827 0.50756 0.79901 0.0
C1279 C 0.38773 0.51078 0.77057 0.0
H1280 H 0.85461 0.30411 0.21029 0.0
H1281 H 0.84585 0.39332 0.20463 0.0
H1282 H 0.84527 0.39698 0.25446 0.0
H1283 H 0.84804 0.37556 0.29995 0.0
H1284 H 0.85723 0.2866 0.30581 0.0
H1285 H 0.8569 0.28235 0.25595 0.0
C1286 C 0.85241 0.32424 0.21996 0.0
C1287 C 0.85044 0.34843 0.20361 0.0
C1288 C 0.85233 0.32644 0.24882 0.0
C1289 C 0.84768 0.37442 0.2166 0.0
C1290 C 0.84732 0.37658 0.24518 0.0
C1291 C 0.85005 0.35528 0.29035 0.0
C1292 C 0.85282 0.3316 0.30677 0.0
C1293 C 0.84985 0.35288 0.26153 0.0
C1294 C 0.85521 0.30537 0.29382 0.0
C1295 C 0.85496 0.30282 0.26522 0.0
H1296 H 0.95023 0.3562 0.16023 0.0
H1297 H 0.93299 0.3384 0.07341 0.0
H1298 H 0.9937 0.36285 0.06565 0.0
H1299 H 0.05224 0.399 0.08322 0.0
H1300 H 0.06776 0.41795 0.1702 0.0
H1301 H 0.00748 0.38296 0.17844 0.0
C1302 C 0.95973 0.35652 0.13975 0.0
C1303 C 0.93735 0.34548 0.11744 0.0
C1304 C 0.99453 0.37135 0.1355 0.0
C1305 C 0.94979 0.3463 0.09093 0.0
C1306 C 0.98455 0.36074 0.08649 0.0
C1307 C 0.04237 0.39436 0.10398 0.0
C1308 C 0.06424 0.4109 0.12613 0.0
C1309 C 0.00731 0.37475 0.10851 0.0
C1310 C 0.05128 0.40532 0.15292 0.0
C1311 C 0.01682 0.38549 0.15762 0.0
H1312 H 0.60327 0.95388 0.58309 0.0
H1313 H 0.60002 0.93914 0.67062 0.0
H1314 H 0.63658 0.99951 0.67778 0.0
H1315 H 0.65973 0.05675 0.65982 0.0
H1316 H 0.66217 0.07284 0.57266 0.0
H1317 H 0.63649 0.0121 0.56445 0.0
C1318 C 0.61175 0.9639 0.60356 0.0
C1319 C 0.59917 0.94225 0.62633 0.0
C1320 C 0.6323 0.99899 0.60757 0.0
C1321 C 0.60966 0.95544 0.65285 0.0
C1322 C 0.63035 0.98997 0.65696 0.0
C1323 C 0.65601 0.04699 0.63901 0.0
C1324 C 0.66312 0.06907 0.61686 0.0
C1325 C 0.64052 0.01208 0.6346 0.0
C1326 C 0.65753 0.05627 0.58998 0.0
C1327 C 0.64236 0.02148 0.58533 0.0
H1328 H 0.64556 0.59726 0.08287 0.0
H1329 H 0.65343 0.59122 0.17062 0.0
H1330 H 0.62979 0.62785 0.1776 0.0
H1331 H 0.59779 0.65286 0.15918 0.0
H1332 H 0.58794 0.65868 0.07179 0.0
H1333 H 0.62174 0.6315 0.06403 0.0
C1334 C 0.64316 0.60506 0.10338 0.0
C1335 C 0.65115 0.59168 0.12624 0.0
C1336 C 0.62871 0.62566 0.10728 0.0
C1337 C 0.64747 0.60137 0.15279 0.0
C1338 C 0.63376 0.62212 0.1568 0.0
C1339 C 0.60409 0.64919 0.13845 0.0
C1340 C 0.59063 0.65771 0.11609 0.0
C1341 C 0.62295 0.63316 0.13428 0.0
C1342 C 0.59853 0.65266 0.08929 0.0
C1343 C 0.61751 0.63678 0.08489 0.0
H1344 H 0.05623 0.6668 0.64645 0.0
H1345 H 0.06811 0.63082 0.56777 0.0
H1346 H 0.00752 0.60215 0.56022 0.0
H1347 H 0.95097 0.57887 0.57954 0.0
H1348 H 0.93744 0.6135 0.65817 0.0
H1349 H 0.99847 0.65132 0.66215 0.0
C1350 C 0.04556 0.65385 0.62723 0.0
C1351 C 0.06655 0.65093 0.60765 0.0
C1352 C 0.01028 0.63652 0.6233 0.0
C1353 C 0.0524 0.63349 0.58304 0.0
C1354 C 0.01771 0.61681 0.57882 0.0
C1355 C 0.96137 0.59543 0.59718 0.0
C1356 C 0.93989 0.59328 0.6186 0.0
C1357 C 0.99635 0.61682 0.59934 0.0
C1358 C 0.95353 0.61488 0.64134 0.0
C1359 C 0.98846 0.63629 0.64371 0.0
H1360 H 0.38882 0.05571 0.14569 0.0
H1361 H 0.43816 0.06002 0.06922 0.0
H1362 H 0.40115 0.99966 0.06252 0.0
H1363 H 0.36261 0.94454 0.08258 0.0
H1364 H 0.31643 0.93875 0.16076 0.0
H1365 H 0.34338 1.00033 0.16248 0.0
C1366 C 0.39058 0.04353 0.12716 0.0
C1367 C 0.41623 0.06224 0.108 0.0
C1368 C 0.36986 0.00834 0.12389 0.0
C1369 C 0.41867 0.04608 0.08428 0.0
C1370 C 0.3976 0.01153 0.08048 0.0
C1371 C 0.35724 0.95681 0.09931 0.0
C1372 C 0.337 0.93728 0.12119 0.0
C1373 C 0.37412 0.99218 0.1007 0.0
C1374 C 0.33119 0.95334 0.14335 0.0
C1375 C 0.34706 0.98858 0.1445 0.0
H1376 H 0.40558 0.35641 0.57984 0.0
H1377 H 0.39996 0.33656 0.66667 0.0
H1378 H 0.36341 0.36048 0.67307 0.0
H1379 H 0.34325 0.39724 0.65551 0.0
H1380 H 0.34995 0.41943 0.56917 0.0
H1381 H 0.37511 0.38399 0.56073 0.0
C1382 C 0.39509 0.35609 0.59988 0.0
C1383 C 0.40515 0.34462 0.62277 0.0
C1384 C 0.37471 0.37081 0.6035 0.0
C1385 C 0.39219 0.345 0.64879 0.0
C1386 C 0.37155 0.35894 0.65248 0.0
C1387 C 0.34888 0.39304 0.63471 0.0
C1388 C 0.34461 0.41058 0.61296 0.0
C1389 C 0.36403 0.37337 0.63023 0.0
C1390 C 0.35249 0.40561 0.58613 0.0
C1391 C 0.36733 0.38574 0.5814 0.0
H1392 H 0.60872 0.94689 0.87288 0.0
H1393 H 0.55668 0.94103 0.94825 0.0
H1394 H 0.5912 1.00168 0.95454 0.0
H1395 H 0.62804 0.05683 0.93425 0.0
H1396 H 0.67975 0.06444 0.85848 0.0
H1397 H 0.65413 0.00292 0.85681 0.0
C1398 C 0.60592 0.95884 0.89113 0.0
C1399 C 0.58003 0.93967 0.90996 0.0
C1400 C 0.62537 0.99413 0.89427 0.0
C1401 C 0.57633 0.95541 0.93342 0.0
C1402 C 0.59591 0.9901 0.93695 0.0
C1403 C 0.63445 0.045 0.91782 0.0
C1404 C 0.65541 0.06488 0.89642 0.0
C1405 C 0.61927 0.00983 0.91684 0.0
C1406 C 0.66375 0.04951 0.87525 0.0
C1407 C 0.64883 0.01434 0.87418 0.0
H1408 H 0.6147 0.66394 0.35962 0.0
H1409 H 0.58386 0.65197 0.44429 0.0
H1410 H 0.61766 0.62565 0.45443 0.0
H1411 H 0.64614 0.59594 0.43675 0.0
H1412 H 0.67796 0.60881 0.35221 0.0
H1413 H 0.65443 0.64559 0.34446 0.0
C1414 C 0.61678 0.65699 0.38051 0.0
C1415 C 0.59721 0.66001 0.40128 0.0
C1416 C 0.63593 0.64151 0.38604 0.0
C1417 C 0.59932 0.65038 0.42818 0.0
C1418 C 0.61824 0.6349 0.43386 0.0
C1419 C 0.64891 0.60781 0.41692 0.0
C1420 C 0.66338 0.59951 0.395 0.0
C1421 C 0.63523 0.62883 0.41264 0.0
C1422 C 0.66703 0.615 0.3694 0.0
C1423 C 0.65328 0.63576 0.3649 0.0
H1424 H 0.95059 0.6022 0.85627 0.0
H1425 H 0.93569 0.59458 0.94377 0.0
H1426 H 0.99669 0.62908 0.95109 0.0
H1427 H 0.0544 0.65222 0.93201 0.0
H1428 H 0.06786 0.65722 0.84424 0.0
H1429 H 0.00748 0.63364 0.83738 0.0
C1430 C 0.96075 0.60927 0.87689 0.0
C1431 C 0.93905 0.59624 0.89946 0.0
C1432 C 0.99564 0.62828 0.88079 0.0
C1433 C 0.95214 0.60492 0.92615 0.0
C1434 C 0.98699 0.62424 0.93028 0.0
C1435 C 0.04405 0.64917 0.9115 0.0
C1436 C 0.0652 0.65637 0.88861 0.0
C1437 C 0.00907 0.63479 0.90774 0.0
C1438 C 0.0518 0.65191 0.86205 0.0
C1439 C 0.01733 0.63827 0.85814 0.0
H1440 H 0.34537 0.95313 0.36179 0.0
H1441 H 0.36945 0.93877 0.44428 0.0
H1442 H 0.39683 0.99938 0.45287 0.0
H1443 H 0.42302 0.05661 0.4338 0.0
H1444 H 0.39924 0.07165 0.35142 0.0
H1445 H 0.36186 0.01078 0.34594 0.0
C1446 C 0.35541 0.9633 0.38195 0.0
C1447 C 0.35526 0.94176 0.40252 0.0
C1448 C 0.37146 0.99829 0.38658 0.0
C1449 C 0.3689 0.95499 0.42839 0.0
C1450 C 0.38484 0.98965 0.43318 0.0
C1451 C 0.40852 0.04656 0.41509 0.0
C1452 C 0.4137 0.06837 0.39305 0.0
C1453 C 0.38755 0.01161 0.41204 0.0
C1454 C 0.3952 0.05528 0.36876 0.0
C1455 C 0.37421 0.02045 0.36552 0.0
H1456 H 0.36793 0.4175 0.93558 0.0
H1457 H 0.32994 0.39304 0.85291 0.0
H1458 H 0.35345 0.35559 0.84821 0.0
H1459 H 0.3941 0.33858 0.86506 0.0
H1460 H 0.43287 0.36547 0.94745 0.0
H1461 H 0.3993 0.39238 0.95511 0.0
C1462 C 0.36391 0.40312 0.91684 0.0
C1463 C 0.34747 0.40816 0.89458 0.0
C1464 C 0.37799 0.38223 0.91419 0.0
C1465 C 0.34232 0.38939 0.87041 0.0
C1466 C 0.35611 0.36825 0.86763 0.0
C1467 C 0.39402 0.34913 0.88499 0.0
C1468 C 0.41588 0.35005 0.90571 0.0
C1469 C 0.37528 0.36561 0.889 0.0
C1470 C 0.41614 0.3644 0.93128 0.0
C1471 C 0.39717 0.38005 0.93559 0.0
H1472 H 0.95019 0.39679 0.41894 0.0
H1473 H 0.93783 0.30709 0.37983 0.0
H1474 H 0.99927 0.33097 0.37945 0.0
H1475 H 0.05686 0.38147 0.38443 0.0
H1476 H 0.06679 0.47072 0.42293 0.0
H1477 H 0.00625 0.44293 0.42984 0.0
C1478 C 0.96098 0.38216 0.41094 0.0
C1479 C 0.93976 0.35042 0.39932 0.0
C1480 C 0.99601 0.3962 0.41052 0.0
C1481 C 0.9538 0.33155 0.38905 0.0
C1482 C 0.98892 0.34536 0.38862 0.0
C1483 C 0.04569 0.39429 0.39503 0.0
C1484 C 0.06616 0.42813 0.4031 0.0
C1485 C 0.01038 0.37821 0.39847 0.0
C1486 C 0.05149 0.44475 0.41647 0.0
C1487 C 0.01685 0.42892 0.42035 0.0
H1488 H 0.27672 0.4412 0.98734 0.0
H1489 H 0.21509 0.45571 0.9286 0.0
H1490 H 0.17555 0.44955 0.96485 0.0
H1491 H 0.16473 0.45093 0.01426 0.0
H1492 H 0.226 0.43618 0.07336 0.0
H1493 H 0.2589 0.4308 0.03621 0.0
C1494 C 0.25375 0.44132 0.98237 0.0
C1495 C 0.24845 0.44829 0.95527 0.0
C1496 C 0.23138 0.43839 1.00355 0.0
C1497 C 0.21922 0.44957 0.94919 0.0
C1498 C 0.19686 0.44653 0.97 0.0
C1499 C 0.18453 0.44534 0.01894 0.0
C1500 C 0.19294 0.4441 0.04656 0.0
C1501 C 0.20352 0.4425 0.99743 0.0
C1502 C 0.21874 0.43694 0.05232 0.0
C1503 C 0.23785 0.43423 0.03103 0.0
H1504 H 0.83224 0.28674 0.49482 0.0
H1505 H 0.771 0.2113 0.43512 0.0
H1506 H 0.73473 0.17454 0.47162 0.0
H1507 H 0.71547 0.16822 0.51987 0.0
H1508 H 0.77886 0.24256 0.57963 0.0
H1509 H 0.8194 0.2752 0.54393 0.0
C1510 C 0.81163 0.26176 0.48998 0.0
C1511 C 0.80405 0.2518 0.46244 0.0
C1512 C 0.79093 0.24081 0.51105 0.0
C1513 C 0.77737 0.2194 0.45625 0.0
C1514 C 0.75639 0.19854 0.47708 0.0
C1515 C 0.73856 0.19116 0.52505 0.0
C1516 C 0.74405 0.20321 0.55216 0.0
C1517 C 0.7621 0.20962 0.50444 0.0
C1518 C 0.77415 0.23277 0.55885 0.0
C1519 C 0.79728 0.25156 0.53844 0.0
H1520 H 0.55022 0.77891 0.06108 0.0
H1521 H 0.52846 0.68839 0.01729 0.0
H1522 H 0.53073 0.71547 0.97366 0.0
H1523 H 0.52912 0.76108 0.9489 0.0
H1524 H 0.54778 0.85073 0.99204 0.0
H1525 H 0.55699 0.82827 0.03489 0.0
C1526 C 0.54721 0.76562 0.0419 0.0
C1527 C 0.53906 0.73165 0.04239 0.0
C1528 C 0.54749 0.78108 0.01681 0.0
C1529 C 0.53467 0.71451 0.01741 0.0
C1530 C 0.53576 0.72991 0.99247 0.0
C1531 C 0.53631 0.77607 0.96755 0.0
C1532 C 0.5381 0.8075 0.96747 0.0
C1533 C 0.54069 0.76261 0.99203 0.0
C1534 C 0.54683 0.82666 0.99169 0.0
C1535 C 0.55175 0.81365 0.01618 0.0
H1536 H 0.77549 0.56064 0.5597 0.0
H1537 H 0.85218 0.54448 0.52432 0.0
H1538 H 0.83488 0.55034 0.47811 0.0
H1539 H 0.79069 0.54874 0.44834 0.0
H1540 H 0.71366 0.5646 0.48344 0.0
H1541 H 0.73851 0.57103 0.52914 0.0
C1542 C 0.78927 0.55994 0.54183 0.0
C1543 C 0.81522 0.55244 0.54519 0.0
C1544 C 0.77877 0.56289 0.51532 0.0
C1545 C 0.83245 0.55068 0.52205 0.0
C1546 C 0.82233 0.55372 0.49566 0.0
C1547 C 0.7804 0.55521 0.46586 0.0
C1548 C 0.75072 0.5566 0.46268 0.0
C1549 C 0.79455 0.55829 0.49205 0.0
C1550 C 0.73692 0.5641 0.48547 0.0
C1551 C 0.75088 0.56732 0.51163 0.0
H1552 H 0.16728 0.72582 0.99053 0.0
H1553 H 0.24053 0.79056 0.93103 0.0
H1554 H 0.27707 0.82674 0.96788 0.0
H1555 H 0.29172 0.83446 0.01746 0.0
H1556 H 0.21658 0.77094 0.07653 0.0
H1557 H 0.17724 0.74012 0.0396 0.0
C1558 C 0.19062 0.74864 0.98566 0.0
C1559 C 0.20115 0.75565 0.95819 0.0
C1560 C 0.21152 0.76918 1.00695 0.0
C1561 C 0.23164 0.785 0.95204 0.0
C1562 C 0.25278 0.8054 0.97314 0.0
C1563 C 0.26647 0.81436 0.02217 0.0
C1564 C 0.25725 0.8048 0.04968 0.0
C1565 C 0.24358 0.79693 1.00074 0.0
C1566 C 0.22434 0.7789 0.05555 0.0
C1567 C 0.20181 0.76109 0.03443 0.0
H1568 H 0.45156 0.22655 0.56061 0.0
H1569 H 0.46674 0.31303 0.51427 0.0
H1570 H 0.46664 0.2851 0.47146 0.0
H1571 H 0.47123 0.24002 0.44801 0.0
H1572 H 0.46066 0.15547 0.49431 0.0
H1573 H 0.44974 0.1783 0.53625 0.0
C1574 C 0.45358 0.2387 0.54105 0.0
C1575 C 0.45888 0.27172 0.54056 0.0
C1576 C 0.45491 0.22298 0.51653 0.0
C1577 C 0.4624 0.28755 0.51512 0.0
C1578 C 0.46262 0.27169 0.49066 0.0
C1579 C 0.46546 0.22617 0.46717 0.0
C1580 C 0.46617 0.19595 0.4682 0.0
C1581 C 0.46022 0.23999 0.49121 0.0
C1582 C 0.45962 0.17851 0.49312 0.0
C1583 C 0.45363 0.19171 0.51707 0.0
H1584 H 0.77485 0.55232 0.06205 0.0
H1585 H 0.6863 0.53331 0.01695 0.0
H1586 H 0.71535 0.53843 0.97351 0.0
H1587 H 0.7632 0.54037 0.94851 0.0
H1588 H 0.84898 0.55256 0.99405 0.0
H1589 H 0.82435 0.5586 0.0368 0.0
C1590 C 0.76234 0.55043 0.04269 0.0
C1591 C 0.72858 0.54294 0.04276 0.0
C1592 C 0.77876 0.55185 0.01773 0.0
C1593 C 0.71237 0.53944 0.01746 0.0
C1594 C 0.72893 0.54215 0.99259 0.0
C1595 C 0.77695 0.54554 0.96769 0.0
C1596 C 0.80821 0.54672 0.96805 0.0
C1597 C 0.76178 0.5473 0.99245 0.0
C1598 C 0.82518 0.55213 0.9932 0.0
C1599 C 0.81094 0.5553 0.01769 0.0
H1600 H 0.17385 0.7209 0.51937 0.0
H1601 H 0.2463 0.78211 0.58085 0.0
H1602 H 0.28215 0.82186 0.54573 0.0
H1603 H 0.29716 0.83358 0.49691 0.0
H1604 H 0.22461 0.77322 0.43505 0.0
H1605 H 0.18436 0.73925 0.47069 0.0
C1606 C 0.19676 0.74374 0.52507 0.0
C1607 C 0.20736 0.74891 0.55259 0.0
C1608 C 0.21754 0.76632 0.5046 0.0
C1609 C 0.2375 0.77805 0.55979 0.0
C1610 C 0.25818 0.80056 0.53968 0.0
C1611 C 0.27217 0.81359 0.4913 0.0
C1612 C 0.264 0.80575 0.46344 0.0
C1613 C 0.24915 0.79415 0.51191 0.0
C1614 C 0.23149 0.77988 0.45638 0.0
C1615 C 0.20852 0.76023 0.47677 0.0
H1616 H 0.45523 0.2347 0.06235 0.0
H1617 H 0.46369 0.15393 0.02545 0.0
H1618 H 0.45955 0.17343 0.97961 0.0
H1619 H 0.46302 0.21901 0.95024 0.0
H1620 H 0.45456 0.29986 0.98694 0.0
H1621 H 0.44858 0.27477 0.03249 0.0
C1622 C 0.45467 0.22061 0.04425 0.0
C1623 C 0.45907 0.19251 0.04722 0.0
C1624 C 0.45271 0.23233 0.01789 0.0
C1625 C 0.45947 0.17507 0.02364 0.0
C1626 C 0.45752 0.1865 0.99742 0.0
C1627 C 0.45845 0.23029 0.96813 0.0
C1628 C 0.45861 0.2609 0.96526 0.0
C1629 C 0.45539 0.21581 0.99428 0.0
C1630 C 0.45367 0.27588 0.98861 0.0
C1631 C 0.45068 0.26172 0.01469 0.0
H1632 H 0.24091 0.47012 0.44879 0.0
H1633 H 0.15756 0.46013 0.49675 0.0
H1634 H 0.18568 0.45866 0.53909 0.0
H1635 H 0.23702 0.46739 0.56265 0.0
H1636 H 0.32319 0.48468 0.51465 0.0
H1637 H 0.29118 0.47606 0.47227 0.0
C1638 C 0.22849 0.46647 0.46849 0.0
C1639 C 0.19683 0.46434 0.46968 0.0
C1640 C 0.24571 0.46762 0.49279 0.0
C1641 C 0.18157 0.46106 0.49536 0.0
C1642 C 0.19783 0.46057 0.51955 0.0
C1643 C 0.24853 0.46853 0.54293 0.0
C1644 C 0.28243 0.4765 0.54183 0.0
C1645 C 0.23035 0.46486 0.51859 0.0
C1646 C 0.29717 0.47858 0.51606 0.0
C1647 C 0.27888 0.47369 0.49182 0.0
H1648 H 0.77311 0.229 0.06166 0.0
H1649 H 0.84948 0.31509 0.01787 0.0
H1650 H 0.82889 0.28549 0.97433 0.0
H1651 H 0.78341 0.23944 0.94828 0.0
H1652 H 0.70451 0.15457 0.99094 0.0
H1653 H 0.73188 0.1787 0.03512 0.0
C1654 C 0.78588 0.24074 0.04264 0.0
C1655 C 0.81274 0.27428 0.04301 0.0
C1656 C 0.77316 0.2238 0.01737 0.0
C1657 C 0.82869 0.28939 0.01814 0.0
C1658 C 0.81685 0.27251 0.99318 0.0
C1659 C 0.77308 0.22561 0.96722 0.0
C1660 C 0.74246 0.19499 0.96643 0.0
C1661 C 0.7883 0.2403 0.99246 0.0
C1662 C 0.72856 0.17775 0.99107 0.0
C1663 C 0.74399 0.19183 0.01634 0.0
H1664 H 0.54526 0.71316 0.49657 0.0
H1665 H 0.53257 0.77239 0.43412 0.0
H1666 H 0.53801 0.81356 0.46854 0.0
H1667 H 0.54031 0.82959 0.51724 0.0
H1668 H 0.55713 0.77278 0.57935 0.0
H1669 H 0.55684 0.73443 0.54441 0.0
C1670 C 0.54437 0.73545 0.49052 0.0
C1671 C 0.5384 0.73965 0.4629 0.0
C1672 C 0.54821 0.75951 0.5104 0.0
C1673 C 0.53742 0.7687 0.45524 0.0
C1674 C 0.54032 0.79219 0.47495 0.0
C1675 C 0.54482 0.80935 0.52297 0.0
C1676 C 0.54871 0.80409 0.55083 0.0
C1677 C 0.54494 0.78748 0.50269 0.0
C1678 C 0.55447 0.77769 0.55801 0.0
C1679 C 0.55394 0.75546 0.53805 0.0
loop_
_geom_bond_atom_site_label_1
_geom_bond_atom_site_label_2
_geom_bond_distance
_geom_bond_site_symmetry_2
_ccdc_geom_bond_type
Fe0 O2 1.918 . S
Fe0 O5 1.997 . S
Fe0 O6 2.002 . S
Fe0 O11 1.976 . S
Fe0 O14 1.996 . S
Fe1 O2 1.918 . S
Fe1 O9 1.997 . S
Fe1 O12 1.996 . S
Fe1 O16 1.976 . S
Fe1 O19 2.002 . S
O2 Fe0 1.918 . S
O2 Fe1 1.918 . S
O2 Fe3 1.918 . S
Fe3 O2 1.918 . S
Fe3 O4 2.002 . S
Fe3 O13 1.976 . S
Fe3 O17 1.996 . S
Fe3 O20 1.997 . S
O4 Fe3 2.002 . S
O4 C21 1.295 . S
O5 Fe0 1.997 . S
O5 C21 1.235 . S
O6 Fe0 2.002 . S
O6 C7 1.295 . S
C7 O6 1.295 . S
C7 O9 1.235 . S
C8 O13 1.287 . S
C8 O14 1.255 . S
O9 Fe1 1.997 . S
O9 C7 1.235 . S
C10 O16 1.287 . S
C10 O17 1.255 . S
O11 Fe0 1.976 . S
O11 C18 1.287 . S
O12 Fe1 1.996 . S
O12 C18 1.255 . S
O13 Fe3 1.976 . S
O13 C8 1.287 . S
O14 Fe0 1.996 . S
O14 C8 1.255 . S
C15 O19 1.295 . S
C15 O20 1.235 . S
O16 Fe1 1.976 . S
O16 C10 1.287 . S
O17 Fe3 1.996 . S
O17 C10 1.255 . S
C18 O11 1.287 . S
C18 O12 1.255 . S
O19 Fe1 2.002 . S
O19 C15 1.295 . S
O20 Fe3 1.997 . S
O20 C15 1.235 . S
C21 O4 1.295 . S
C21 O5 1.235 . S
Fe22 O24 1.918 . S
Fe22 O27 1.997 . S
Fe22 O28 2.002 . S
Fe22 O33 1.976 . S
Fe22 O36 1.996 . S
Fe23 O24 1.918 . S
Fe23 O31 1.997 . S
Fe23 O34 1.996 . S
Fe23 O38 1.976 . S
Fe23 O41 2.002 . S
O24 Fe22 1.918 . S
O24 Fe23 1.918 . S
O24 Fe25 1.918 . S
Fe25 O24 1.918 . S
Fe25 O26 2.002 . S
Fe25 O35 1.976 . S
Fe25 O39 1.996 . S
Fe25 O42 1.997 . S
O26 Fe25 2.002 . S
O26 C43 1.295 . S
O27 Fe22 1.997 . S
O27 C43 1.235 . S
O28 Fe22 2.002 . S
O28 C29 1.295 . S
C29 O28 1.295 . S
C29 O31 1.235 . S
C30 O35 1.287 . S
C30 O36 1.255 . S
O31 Fe23 1.997 . S
O31 C29 1.235 . S
C32 O38 1.287 . S
C32 O39 1.255 . S
O33 Fe22 1.976 . S
O33 C40 1.287 . S
O34 Fe23 1.996 . S
O34 C40 1.255 . S
O35 Fe25 1.976 . S
O35 C30 1.287 . S
O36 Fe22 1.996 . S
O36 C30 1.255 . S
C37 O41 1.295 . S
C37 O42 1.235 . S
O38 Fe23 1.976 . S
O38 C32 1.287 . S
O39 Fe25 1.996 . S
O39 C32 1.255 . S
C40 O33 1.287 . S
C40 O34 1.255 . S
O41 Fe23 2.002 . S
O41 C37 1.295 . S
O42 Fe25 1.997 . S
O42 C37 1.235 . S
C43 O26 1.295 . S
C43 O27 1.235 . S
Fe44 O46 1.918 . S
Fe44 O49 1.997 . S
Fe44 O50 2.002 . S
Fe44 O55 1.976 . S
Fe44 O58 1.996 . S
Fe45 O46 1.918 . S
Fe45 O53 1.997 . S
Fe45 O56 1.996 . S
Fe45 O60 1.976 . S
Fe45 O63 2.002 . S
O46 Fe44 1.918 . S
O46 Fe45 1.918 . S
O46 Fe47 1.918 . S
Fe47 O46 1.918 . S
Fe47 O48 2.002 . S
Fe47 O57 1.976 . S
Fe47 O61 1.996 . S
Fe47 O64 1.997 . S
O48 Fe47 2.002 . S
O48 C65 1.295 . S
O49 Fe44 1.997 . S
O49 C65 1.235 . S
O50 Fe44 2.002 . S
O50 C51 1.295 . S
C51 O50 1.295 . S
C51 O53 1.235 . S
C52 O57 1.287 . S
C52 O58 1.255 . S
O53 Fe45 1.997 . S
O53 C51 1.235 . S
C54 O60 1.287 . S
C54 O61 1.255 . S
O55 Fe44 1.976 . S
O55 C62 1.287 . S
O56 Fe45 1.996 . S
O56 C62 1.255 . S
O57 Fe47 1.976 . S
O57 C52 1.287 . S
O58 Fe44 1.996 . S
O58 C52 1.255 . S
C59 O63 1.295 . S
C59 O64 1.235 . S
O60 Fe45 1.976 . S
O60 C54 1.287 . S
O61 Fe47 1.996 . S
O61 C54 1.255 . S
C62 O55 1.287 . S
C62 O56 1.255 . S
O63 Fe45 2.002 . S
O63 C59 1.295 . S
O64 Fe47 1.997 . S
O64 C59 1.235 . S
C65 O48 1.295 . S
C65 O49 1.235 . S
Fe66 O68 1.918 . S
Fe66 O71 1.997 . S
Fe66 O72 2.002 . S
Fe66 O77 1.976 . S
Fe66 O80 1.996 . S
Fe67 O68 1.918 . S
Fe67 O75 1.997 . S
Fe67 O78 1.996 . S
Fe67 O82 1.976 . S
Fe67 O85 2.002 . S
O68 Fe66 1.918 . S
O68 Fe67 1.918 . S
O68 Fe69 1.918 . S
Fe69 O68 1.918 . S
Fe69 O70 2.002 . S
Fe69 O79 1.976 . S
Fe69 O83 1.996 . S
Fe69 O86 1.997 . S
O70 Fe69 2.002 . S
O70 C87 1.295 . S
O71 Fe66 1.997 . S
O71 C87 1.235 . S
O72 Fe66 2.002 . S
O72 C73 1.295 . S
C73 O72 1.295 . S
C73 O75 1.235 . S
C74 O79 1.287 . S
C74 O80 1.255 . S
O75 Fe67 1.997 . S
O75 C73 1.235 . S
C76 O82 1.287 . S
C76 O83 1.255 . S
O77 Fe66 1.976 . S
O77 C84 1.287 . S
O78 Fe67 1.996 . S
O78 C84 1.255 . S
O79 Fe69 1.976 . S
O79 C74 1.287 . S
O80 Fe66 1.996 . S
O80 C74 1.255 . S
C81 O85 1.295 . S
C81 O86 1.235 . S
O82 Fe67 1.976 . S
O82 C76 1.287 . S
O83 Fe69 1.996 . S
O83 C76 1.255 . S
C84 O77 1.287 . S
C84 O78 1.255 . S
O85 Fe67 2.002 . S
O85 C81 1.295 . S
O86 Fe69 1.997 . S
O86 C81 1.235 . S
C87 O70 1.295 . S
C87 O71 1.235 . S
Fe88 O90 1.918 . S
Fe88 O93 1.997 . S
Fe88 O94 2.002 . S
Fe88 O99 1.976 . S
Fe88 O102 1.996 . S
Fe89 O90 1.918 . S
Fe89 O97 1.997 . S
Fe89 O100 1.996 . S
Fe89 O104 1.976 . S
Fe89 O107 2.002 . S
O90 Fe88 1.918 . S
O90 Fe89 1.918 . S
O90 Fe91 1.918 . S
Fe91 O90 1.918 . S
Fe91 O92 2.002 . S
Fe91 O101 1.976 . S
Fe91 O105 1.996 . S
Fe91 O108 1.997 . S
O92 Fe91 2.002 . S
O92 C109 1.295 . S
O93 Fe88 1.997 . S
O93 C109 1.235 . S
O94 Fe88 2.002 . S
O94 C95 1.295 . S
C95 O94 1.295 . S
C95 O97 1.235 . S
C96 O101 1.287 . S
C96 O102 1.255 . S
O97 Fe89 1.997 . S
O97 C95 1.235 . S
C98 O104 1.287 . S
C98 O105 1.255 . S
O99 Fe88 1.976 . S
O99 C106 1.287 . S
O100 Fe89 1.996 . S
O100 C106 1.255 . S
O101 Fe91 1.976 . S
O101 C96 1.287 . S
O102 Fe88 1.996 . S
O102 C96 1.255 . S
C103 O107 1.295 . S
C103 O108 1.235 . S
O104 Fe89 1.976 . S
O104 C98 1.287 . S
O105 Fe91 1.996 . S
O105 C98 1.255 . S
C106 O99 1.287 . S
C106 O100 1.255 . S
O107 Fe89 2.002 . S
O107 C103 1.295 . S
O108 Fe91 1.997 . S
O108 C103 1.235 . S
C109 O92 1.295 . S
C109 O93 1.235 . S
Fe110 O112 1.918 . S
Fe110 O115 1.997 . S
Fe110 O116 2.002 . S
Fe110 O121 1.976 . S
Fe110 O124 1.996 . S
Fe111 O112 1.918 . S
Fe111 O119 1.997 . S
Fe111 O122 1.996 . S
Fe111 O126 1.976 . S
Fe111 O129 2.002 . S
O112 Fe110 1.918 . S
O112 Fe111 1.918 . S
O112 Fe113 1.918 . S
Fe113 O112 1.918 . S
Fe113 O114 2.002 . S
Fe113 O123 1.976 . S
Fe113 O127 1.996 . S
Fe113 O130 1.997 . S
O114 Fe113 2.002 . S
O114 C131 1.295 . S
O115 Fe110 1.997 . S
O115 C131 1.235 . S
O116 Fe110 2.002 . S
O116 C117 1.295 . S
C117 O116 1.295 . S
C117 O119 1.235 . S
C118 O123 1.287 . S
C118 O124 1.255 . S
O119 Fe111 1.997 . S
O119 C117 1.235 . S
C120 O126 1.287 . S
C120 O127 1.255 . S
O121 Fe110 1.976 . S
O121 C128 1.287 . S
O122 Fe111 1.996 . S
O122 C128 1.255 . S
O123 Fe113 1.976 . S
O123 C118 1.287 . S
O124 Fe110 1.996 . S
O124 C118 1.255 . S
C125 O129 1.295 . S
C125 O130 1.235 . S
O126 Fe111 1.976 . S
O126 C120 1.287 . S
O127 Fe113 1.996 . S
O127 C120 1.255 . S
C128 O121 1.287 . S
C128 O122 1.255 . S
O129 Fe111 2.002 . S
O129 C125 1.295 . S
O130 Fe113 1.997 . S
O130 C125 1.235 . S
C131 O114 1.295 . S
C131 O115 1.235 . S
Fe132 O134 1.918 . S
Fe132 O137 1.997 . S
Fe132 O138 2.002 . S
Fe132 O143 1.976 . S
Fe132 O146 1.996 . S
Fe133 O134 1.918 . S
Fe133 O141 1.997 . S
Fe133 O144 1.996 . S
Fe133 O148 1.976 . S
Fe133 O151 2.002 . S
O134 Fe132 1.918 . S
O134 Fe133 1.918 . S
O134 Fe135 1.918 . S
Fe135 O134 1.918 . S
Fe135 O136 2.002 . S
Fe135 O145 1.976 . S
Fe135 O149 1.996 . S
Fe135 O152 1.997 . S
O136 Fe135 2.002 . S
O136 C153 1.295 . S
O137 Fe132 1.997 . S
O137 C153 1.235 . S
O138 Fe132 2.002 . S
O138 C139 1.295 . S
C139 O138 1.295 . S
C139 O141 1.235 . S
C140 O145 1.287 . S
C140 O146 1.255 . S
O141 Fe133 1.997 . S
O141 C139 1.235 . S
C142 O148 1.287 . S
C142 O149 1.255 . S
O143 Fe132 1.976 . S
O143 C150 1.287 . S
O144 Fe133 1.996 . S
O144 C150 1.255 . S
O145 Fe135 1.976 . S
O145 C140 1.287 . S
O146 Fe132 1.996 . S
O146 C140 1.255 . S
C147 O151 1.295 . S
C147 O152 1.235 . S
O148 Fe133 1.976 . S
O148 C142 1.287 . S
O149 Fe135 1.996 . S
O149 C142 1.255 . S
C150 O143 1.287 . S
C150 O144 1.255 . S
O151 Fe133 2.002 . S
O151 C147 1.295 . S
O152 Fe135 1.997 . S
O152 C147 1.235 . S
C153 O136 1.295 . S
C153 O137 1.235 . S
Fe154 O156 1.918 . S
Fe154 O159 1.997 . S
Fe154 O160 2.002 . S
Fe154 O165 1.976 . S
Fe154 O168 1.996 . S
Fe155 O156 1.918 . S
Fe155 O163 1.997 . S
Fe155 O166 1.996 . S
Fe155 O170 1.976 . S
Fe155 O173 2.002 . S
O156 Fe154 1.918 . S
O156 Fe155 1.918 . S
O156 Fe157 1.918 . S
Fe157 O156 1.918 . S
Fe157 O158 2.002 . S
Fe157 O167 1.976 . S
Fe157 O171 1.996 . S
Fe157 O174 1.997 . S
O158 Fe157 2.002 . S
O158 C175 1.295 . S
O159 Fe154 1.997 . S
O159 C175 1.235 . S
O160 Fe154 2.002 . S
O160 C161 1.295 . S
C161 O160 1.295 . S
C161 O163 1.235 . S
C162 O167 1.287 . S
C162 O168 1.255 . S
O163 Fe155 1.997 . S
O163 C161 1.235 . S
C164 O170 1.287 . S
C164 O171 1.255 . S
O165 Fe154 1.976 . S
O165 C172 1.287 . S
O166 Fe155 1.996 . S
O166 C172 1.255 . S
O167 Fe157 1.976 . S
O167 C162 1.287 . S
O168 Fe154 1.996 . S
O168 C162 1.255 . S
C169 O173 1.295 . S
C169 O174 1.235 . S
O170 Fe155 1.976 . S
O170 C164 1.287 . S
O171 Fe157 1.996 . S
O171 C164 1.255 . S
C172 O165 1.287 . S
C172 O166 1.255 . S
O173 Fe155 2.002 . S
O173 C169 1.295 . S
O174 Fe157 1.997 . S
O174 C169 1.235 . S
C175 O158 1.295 . S
C175 O159 1.235 . S
Fe176 O178 1.918 . S
Fe176 O181 1.997 . S
Fe176 O182 2.002 . S
Fe176 O187 1.976 . S
Fe176 O190 1.996 . S
Fe177 O178 1.918 . S
Fe177 O185 1.997 . S
Fe177 O188 1.996 . S
Fe177 O192 1.976 . S
Fe177 O195 2.002 . S
O178 Fe176 1.918 . S
O178 Fe177 1.918 . S
O178 Fe179 1.918 . S
Fe179 O178 1.918 . S
Fe179 O180 2.002 . S
Fe179 O189 1.976 . S
Fe179 O193 1.996 . S
Fe179 O196 1.997 . S
O180 Fe179 2.002 . S
O180 C197 1.295 . S
O181 Fe176 1.997 . S
O181 C197 1.235 . S
O182 Fe176 2.002 . S
O182 C183 1.295 . S
C183 O182 1.295 . S
C183 O185 1.235 . S
C184 O189 1.287 . S
C184 O190 1.255 . S
O185 Fe177 1.997 . S
O185 C183 1.235 . S
C186 O192 1.287 . S
C186 O193 1.255 . S
O187 Fe176 1.976 . S
O187 C194 1.287 . S
O188 Fe177 1.996 . S
O188 C194 1.255 . S
O189 Fe179 1.976 . S
O189 C184 1.287 . S
O190 Fe176 1.996 . S
O190 C184 1.255 . S
C191 O195 1.295 . S
C191 O196 1.235 . S
O192 Fe177 1.976 . S
O192 C186 1.287 . S
O193 Fe179 1.996 . S
O193 C186 1.255 . S
C194 O187 1.287 . S
C194 O188 1.255 . S
O195 Fe177 2.002 . S
O195 C191 1.295 . S
O196 Fe179 1.997 . S
O196 C191 1.235 . S
C197 O180 1.295 . S
C197 O181 1.235 . S
Fe198 O200 1.918 . S
Fe198 O203 1.997 . S
Fe198 O204 2.002 . S
Fe198 O209 1.976 . S
Fe198 O212 1.996 . S
Fe199 O200 1.918 . S
Fe199 O207 1.997 . S
Fe199 O210 1.996 . S
Fe199 O214 1.976 . S
Fe199 O217 2.002 . S
O200 Fe198 1.918 . S
O200 Fe199 1.918 . S
O200 Fe201 1.918 . S
Fe201 O200 1.918 . S
Fe201 O202 2.002 . S
Fe201 O211 1.976 . S
Fe201 O215 1.996 . S
Fe201 O218 1.997 . S
O202 Fe201 2.002 . S
O202 C219 1.295 . S
O203 Fe198 1.997 . S
O203 C219 1.235 . S
O204 Fe198 2.002 . S
O204 C205 1.295 . S
C205 O204 1.295 . S
C205 O207 1.235 . S
C206 O211 1.287 . S
C206 O212 1.255 . S
O207 Fe199 1.997 . S
O207 C205 1.235 . S
C208 O214 1.287 . S
C208 O215 1.255 . S
O209 Fe198 1.976 . S
O209 C216 1.287 . S
O210 Fe199 1.996 . S
O210 C216 1.255 . S
O211 Fe201 1.976 . S
O211 C206 1.287 . S
O212 Fe198 1.996 . S
O212 C206 1.255 . S
C213 O217 1.295 . S
C213 O218 1.235 . S
O214 Fe199 1.976 . S
O214 C208 1.287 . S
O215 Fe201 1.996 . S
O215 C208 1.255 . S
C216 O209 1.287 . S
C216 O210 1.255 . S
O217 Fe199 2.002 . S
O217 C213 1.295 . S
O218 Fe201 1.997 . S
O218 C213 1.235 . S
C219 O202 1.295 . S
C219 O203 1.235 . S
Fe220 O222 1.918 . S
Fe220 O225 1.997 . S
Fe220 O226 2.002 . S
Fe220 O231 1.976 . S
Fe220 O234 1.996 . S
Fe221 O222 1.918 . S
Fe221 O229 1.997 . S
Fe221 O232 1.996 . S
Fe221 O236 1.976 . S
Fe221 O239 2.002 . S
O222 Fe220 1.918 . S
O222 Fe221 1.918 . S
O222 Fe223 1.918 . S
Fe223 O222 1.918 . S
Fe223 O224 2.002 . S
Fe223 O233 1.976 . S
Fe223 O237 1.996 . S
Fe223 O240 1.997 . S
O224 Fe223 2.002 . S
O224 C241 1.295 . S
O225 Fe220 1.997 . S
O225 C241 1.235 . S
O226 Fe220 2.002 . S
O226 C227 1.295 . S
C227 O226 1.295 . S
C227 O229 1.235 . S
C228 O233 1.287 . S
C228 O234 1.255 . S
O229 Fe221 1.997 . S
O229 C227 1.235 . S
C230 O236 1.287 . S
C230 O237 1.255 . S
O231 Fe220 1.976 . S
O231 C238 1.287 . S
O232 Fe221 1.996 . S
O232 C238 1.255 . S
O233 Fe223 1.976 . S
O233 C228 1.287 . S
O234 Fe220 1.996 . S
O234 C228 1.255 . S
C235 O239 1.295 . S
C235 O240 1.235 . S
O236 Fe221 1.976 . S
O236 C230 1.287 . S
O237 Fe223 1.996 . S
O237 C230 1.255 . S
C238 O231 1.287 . S
C238 O232 1.255 . S
O239 Fe221 2.002 . S
O239 C235 1.295 . S
O240 Fe223 1.997 . S
O240 C235 1.235 . S
C241 O224 1.295 . S
C241 O225 1.235 . S
Fe242 O244 1.918 . S
Fe242 O247 1.997 . S
Fe242 O248 2.002 . S
Fe242 O253 1.976 . S
Fe242 O256 1.996 . S
Fe243 O244 1.918 . S
Fe243 O251 1.997 . S
Fe243 O254 1.996 . S
Fe243 O258 1.976 . S
Fe243 O261 2.002 . S
O244 Fe242 1.918 . S
O244 Fe243 1.918 . S
O244 Fe245 1.918 . S
Fe245 O244 1.918 . S
Fe245 O246 2.002 . S
Fe245 O255 1.976 . S
Fe245 O259 1.996 . S
Fe245 O262 1.997 . S
O246 Fe245 2.002 . S
O246 C263 1.295 . S
O247 Fe242 1.997 . S
O247 C263 1.235 . S
O248 Fe242 2.002 . S
O248 C249 1.295 . S
C249 O248 1.295 . S
C249 O251 1.235 . S
C250 O255 1.287 . S
C250 O256 1.255 . S
O251 Fe243 1.997 . S
O251 C249 1.235 . S
C252 O258 1.287 . S
C252 O259 1.255 . S
O253 Fe242 1.976 . S
O253 C260 1.287 . S
O254 Fe243 1.996 . S
O254 C260 1.255 . S
O255 Fe245 1.976 . S
O255 C250 1.287 . S
O256 Fe242 1.996 . S
O256 C250 1.255 . S
C257 O261 1.295 . S
C257 O262 1.235 . S
O258 Fe243 1.976 . S
O258 C252 1.287 . S
O259 Fe245 1.996 . S
O259 C252 1.255 . S
C260 O253 1.287 . S
C260 O254 1.255 . S
O261 Fe243 2.002 . S
O261 C257 1.295 . S
O262 Fe245 1.997 . S
O262 C257 1.235 . S
C263 O246 1.295 . S
C263 O247 1.235 . S
Fe264 O266 1.918 . S
Fe264 O269 1.997 . S
Fe264 O270 2.002 . S
Fe264 O275 1.976 . S
Fe264 O278 1.996 . S
Fe265 O266 1.918 . S
Fe265 O273 1.997 . S
Fe265 O276 1.996 . S
Fe265 O280 1.976 . S
Fe265 O283 2.002 . S
O266 Fe264 1.918 . S
O266 Fe265 1.918 . S
O266 Fe267 1.918 . S
Fe267 O266 1.918 . S
Fe267 O268 2.002 . S
Fe267 O277 1.976 . S
Fe267 O281 1.996 . S
Fe267 O284 1.997 . S
O268 Fe267 2.002 . S
O268 C285 1.295 . S
O269 Fe264 1.997 . S
O269 C285 1.235 . S
O270 Fe264 2.002 . S
O270 C271 1.295 . S
C271 O270 1.295 . S
C271 O273 1.235 . S
C272 O277 1.287 . S
C272 O278 1.255 . S
O273 Fe265 1.997 . S
O273 C271 1.235 . S
C274 O280 1.287 . S
C274 O281 1.255 . S
O275 Fe264 1.976 . S
O275 C282 1.287 . S
O276 Fe265 1.996 . S
O276 C282 1.255 . S
O277 Fe267 1.976 . S
O277 C272 1.287 . S
O278 Fe264 1.996 . S
O278 C272 1.255 . S
C279 O283 1.295 . S
C279 O284 1.235 . S
O280 Fe265 1.976 . S
O280 C274 1.287 . S
O281 Fe267 1.996 . S
O281 C274 1.255 . S
C282 O275 1.287 . S
C282 O276 1.255 . S
O283 Fe265 2.002 . S
O283 C279 1.295 . S
O284 Fe267 1.997 . S
O284 C279 1.235 . S
C285 O268 1.295 . S
C285 O269 1.235 . S
Fe286 O288 1.918 . S
Fe286 O291 1.997 . S
Fe286 O292 2.002 . S
Fe286 O297 1.976 . S
Fe286 O300 1.996 . S
Fe287 O288 1.918 . S
Fe287 O295 1.997 . S
Fe287 O298 1.996 . S
Fe287 O302 1.976 . S
Fe287 O305 2.002 . S
O288 Fe286 1.918 . S
O288 Fe287 1.918 . S
O288 Fe289 1.918 . S
Fe289 O288 1.918 . S
Fe289 O290 2.002 . S
Fe289 O299 1.976 . S
Fe289 O303 1.996 . S
Fe289 O306 1.997 . S
O290 Fe289 2.002 . S
O290 C307 1.295 . S
O291 Fe286 1.997 . S
O291 C307 1.235 . S
O292 Fe286 2.002 . S
O292 C293 1.295 . S
C293 O292 1.295 . S
C293 O295 1.235 . S
C294 O299 1.287 . S
C294 O300 1.255 . S
O295 Fe287 1.997 . S
O295 C293 1.235 . S
C296 O302 1.287 . S
C296 O303 1.255 . S
O297 Fe286 1.976 . S
O297 C304 1.287 . S
O298 Fe287 1.996 . S
O298 C304 1.255 . S
O299 Fe289 1.976 . S
O299 C294 1.287 . S
O300 Fe286 1.996 . S
O300 C294 1.255 . S
C301 O305 1.295 . S
C301 O306 1.235 . S
O302 Fe287 1.976 . S
O302 C296 1.287 . S
O303 Fe289 1.996 . S
O303 C296 1.255 . S
C304 O297 1.287 . S
C304 O298 1.255 . S
O305 Fe287 2.002 . S
O305 C301 1.295 . S
O306 Fe289 1.997 . S
O306 C301 1.235 . S
C307 O290 1.295 . S
C307 O291 1.235 . S
Fe308 O310 1.918 . S
Fe308 O313 1.997 . S
Fe308 O314 2.002 . S
Fe308 O319 1.976 . S
Fe308 O322 1.996 . S
Fe309 O310 1.918 . S
Fe309 O317 1.997 . S
Fe309 O320 1.996 . S
Fe309 O324 1.976 . S
Fe309 O327 2.002 . S
O310 Fe308 1.918 . S
O310 Fe309 1.918 . S
O310 Fe311 1.918 . S
Fe311 O310 1.918 . S
Fe311 O312 2.002 . S
Fe311 O321 1.976 . S
Fe311 O325 1.996 . S
Fe311 O328 1.997 . S
O312 Fe311 2.002 . S
O312 C329 1.295 . S
O313 Fe308 1.997 . S
O313 C329 1.235 . S
O314 Fe308 2.002 . S
O314 C315 1.295 . S
C315 O314 1.295 . S
C315 O317 1.235 . S
C316 O321 1.287 . S
C316 O322 1.255 . S
O317 Fe309 1.997 . S
O317 C315 1.235 . S
C318 O324 1.287 . S
C318 O325 1.255 . S
O319 Fe308 1.976 . S
O319 C326 1.287 . S
O320 Fe309 1.996 . S
O320 C326 1.255 . S
O321 Fe311 1.976 . S
O321 C316 1.287 . S
O322 Fe308 1.996 . S
O322 C316 1.255 . S
C323 O327 1.295 . S
C323 O328 1.235 . S
O324 Fe309 1.976 . S
O324 C318 1.287 . S
O325 Fe311 1.996 . S
O325 C318 1.255 . S
C326 O319 1.287 . S
C326 O320 1.255 . S
O327 Fe309 2.002 . S
O327 C323 1.295 . S
O328 Fe311 1.997 . S
O328 C323 1.235 . S
C329 O312 1.295 . S
C329 O313 1.235 . S
Fe330 O332 1.918 . S
Fe330 O335 1.997 . S
Fe330 O336 2.002 . S
Fe330 O341 1.976 . S
Fe330 O344 1.996 . S
Fe331 O332 1.918 . S
Fe331 O339 1.997 . S
Fe331 O342 1.996 . S
Fe331 O346 1.976 . S
Fe331 O349 2.002 . S
O332 Fe330 1.918 . S
O332 Fe331 1.918 . S
O332 Fe333 1.918 . S
Fe333 O332 1.918 . S
Fe333 O334 2.002 . S
Fe333 O343 1.976 . S
Fe333 O347 1.996 . S
Fe333 O350 1.997 . S
O334 Fe333 2.002 . S
O334 C351 1.295 . S
O335 Fe330 1.997 . S
O335 C351 1.235 . S
O336 Fe330 2.002 . S
O336 C337 1.295 . S
C337 O336 1.295 . S
C337 O339 1.235 . S
C338 O343 1.287 . S
C338 O344 1.255 . S
O339 Fe331 1.997 . S
O339 C337 1.235 . S
C340 O346 1.287 . S
C340 O347 1.255 . S
O341 Fe330 1.976 . S
O341 C348 1.287 . S
O342 Fe331 1.996 . S
O342 C348 1.255 . S
O343 Fe333 1.976 . S
O343 C338 1.287 . S
O344 Fe330 1.996 . S
O344 C338 1.255 . S
C345 O349 1.295 . S
C345 O350 1.235 . S
O346 Fe331 1.976 . S
O346 C340 1.287 . S
O347 Fe333 1.996 . S
O347 C340 1.255 . S
C348 O341 1.287 . S
C348 O342 1.255 . S
O349 Fe331 2.002 . S
O349 C345 1.295 . S
O350 Fe333 1.997 . S
O350 C345 1.235 . S
C351 O334 1.295 . S
C351 O335 1.235 . S
Fe352 O354 1.918 . S
Fe352 O357 1.997 . S
Fe352 O358 2.002 . S
Fe352 O363 1.976 . S
Fe352 O366 1.996 . S
Fe353 O354 1.918 . S
Fe353 O361 1.997 . S
Fe353 O364 1.996 . S
Fe353 O368 1.976 . S
Fe353 O371 2.002 . S
O354 Fe352 1.918 . S
O354 Fe353 1.918 . S
O354 Fe355 1.918 . S
Fe355 O354 1.918 . S
Fe355 O356 2.002 . S
Fe355 O365 1.976 . S
Fe355 O369 1.996 . S
Fe355 O372 1.997 . S
O356 Fe355 2.002 . S
O356 C373 1.295 . S
O357 Fe352 1.997 . S
O357 C373 1.235 . S
O358 Fe352 2.002 . S
O358 C359 1.295 . S
C359 O358 1.295 . S
C359 O361 1.235 . S
C360 O365 1.287 . S
C360 O366 1.255 . S
O361 Fe353 1.997 . S
O361 C359 1.235 . S
C362 O368 1.287 . S
C362 O369 1.255 . S
O363 Fe352 1.976 . S
O363 C370 1.287 . S
O364 Fe353 1.996 . S
O364 C370 1.255 . S
O365 Fe355 1.976 . S
O365 C360 1.287 . S
O366 Fe352 1.996 . S
O366 C360 1.255 . S
C367 O371 1.295 . S
C367 O372 1.235 . S
O368 Fe353 1.976 . S
O368 C362 1.287 . S
O369 Fe355 1.996 . S
O369 C362 1.255 . S
C370 O363 1.287 . S
C370 O364 1.255 . S
O371 Fe353 2.002 . S
O371 C367 1.295 . S
O372 Fe355 1.997 . S
O372 C367 1.235 . S
C373 O356 1.295 . S
C373 O357 1.235 . S
Fe374 O376 1.918 . S
Fe374 O379 1.997 . S
Fe374 O380 2.002 . S
Fe374 O385 1.976 . S
Fe374 O388 1.996 . S
Fe375 O376 1.918 . S
Fe375 O383 1.997 . S
Fe375 O386 1.996 . S
Fe375 O390 1.976 . S
Fe375 O393 2.002 . S
O376 Fe374 1.918 . S
O376 Fe375 1.918 . S
O376 Fe377 1.918 . S
Fe377 O376 1.918 . S
Fe377 O378 2.002 . S
Fe377 O387 1.976 . S
Fe377 O391 1.996 . S
Fe377 O394 1.997 . S
O378 Fe377 2.002 . S
O378 C395 1.295 . S
O379 Fe374 1.997 . S
O379 C395 1.235 . S
O380 Fe374 2.002 . S
O380 C381 1.295 . S
C381 O380 1.295 . S
C381 O383 1.235 . S
C382 O387 1.287 . S
C382 O388 1.255 . S
O383 Fe375 1.997 . S
O383 C381 1.235 . S
C384 O390 1.287 . S
C384 O391 1.255 . S
O385 Fe374 1.976 . S
O385 C392 1.287 . S
O386 Fe375 1.996 . S
O386 C392 1.255 . S
O387 Fe377 1.976 . S
O387 C382 1.287 . S
O388 Fe374 1.996 . S
O388 C382 1.255 . S
C389 O393 1.295 . S
C389 O394 1.235 . S
O390 Fe375 1.976 . S
O390 C384 1.287 . S
O391 Fe377 1.996 . S
O391 C384 1.255 . S
C392 O385 1.287 . S
C392 O386 1.255 . S
O393 Fe375 2.002 . S
O393 C389 1.295 . S
O394 Fe377 1.997 . S
O394 C389 1.235 . S
C395 O378 1.295 . S
C395 O379 1.235 . S
Fe396 O398 1.918 . S
Fe396 O401 1.997 . S
Fe396 O402 2.002 . S
Fe396 O407 1.976 . S
Fe396 O410 1.996 . S
Fe397 O398 1.918 . S
Fe397 O405 1.997 . S
Fe397 O408 1.996 . S
Fe397 O412 1.976 . S
Fe397 O415 2.002 . S
O398 Fe396 1.918 . S
O398 Fe397 1.918 . S
O398 Fe399 1.918 . S
Fe399 O398 1.918 . S
Fe399 O400 2.002 . S
Fe399 O409 1.976 . S
Fe399 O413 1.996 . S
Fe399 O416 1.997 . S
O400 Fe399 2.002 . S
O400 C417 1.295 . S
O401 Fe396 1.997 . S
O401 C417 1.235 . S
O402 Fe396 2.002 . S
O402 C403 1.295 . S
C403 O402 1.295 . S
C403 O405 1.235 . S
C404 O409 1.287 . S
C404 O410 1.255 . S
O405 Fe397 1.997 . S
O405 C403 1.235 . S
C406 O412 1.287 . S
C406 O413 1.255 . S
O407 Fe396 1.976 . S
O407 C414 1.287 . S
O408 Fe397 1.996 . S
O408 C414 1.255 . S
O409 Fe399 1.976 . S
O409 C404 1.287 . S
O410 Fe396 1.996 . S
O410 C404 1.255 . S
C411 O415 1.295 . S
C411 O416 1.235 . S
O412 Fe397 1.976 . S
O412 C406 1.287 . S
O413 Fe399 1.996 . S
O413 C406 1.255 . S
C414 O407 1.287 . S
C414 O408 1.255 . S
O415 Fe397 2.002 . S
O415 C411 1.295 . S
O416 Fe399 1.997 . S
O416 C411 1.235 . S
C417 O400 1.295 . S
C417 O401 1.235 . S
Fe418 O420 1.918 . S
Fe418 O423 1.997 . S
Fe418 O424 2.002 . S
Fe418 O429 1.976 . S
Fe418 O432 1.996 . S
Fe419 O420 1.918 . S
Fe419 O427 1.997 . S
Fe419 O430 1.996 . S
Fe419 O434 1.976 . S
Fe419 O437 2.002 . S
O420 Fe418 1.918 . S
O420 Fe419 1.918 . S
O420 Fe421 1.918 . S
Fe421 O420 1.918 . S
Fe421 O422 2.002 . S
Fe421 O431 1.976 . S
Fe421 O435 1.996 . S
Fe421 O438 1.997 . S
O422 Fe421 2.002 . S
O422 C439 1.295 . S
O423 Fe418 1.997 . S
O423 C439 1.235 . S
O424 Fe418 2.002 . S
O424 C425 1.295 . S
C425 O424 1.295 . S
C425 O427 1.235 . S
C426 O431 1.287 . S
C426 O432 1.255 . S
O427 Fe419 1.997 . S
O427 C425 1.235 . S
C428 O434 1.287 . S
C428 O435 1.255 . S
O429 Fe418 1.976 . S
O429 C436 1.287 . S
O430 Fe419 1.996 . S
O430 C436 1.255 . S
O431 Fe421 1.976 . S
O431 C426 1.287 . S
O432 Fe418 1.996 . S
O432 C426 1.255 . S
C433 O437 1.295 . S
C433 O438 1.235 . S
O434 Fe419 1.976 . S
O434 C428 1.287 . S
O435 Fe421 1.996 . S
O435 C428 1.255 . S
C436 O429 1.287 . S
C436 O430 1.255 . S
O437 Fe419 2.002 . S
O437 C433 1.295 . S
O438 Fe421 1.997 . S
O438 C433 1.235 . S
C439 O422 1.295 . S
C439 O423 1.235 . S
Fe440 O442 1.918 . S
Fe440 O445 1.997 . S
Fe440 O446 2.002 . S
Fe440 O451 1.976 . S
Fe440 O454 1.996 . S
Fe441 O442 1.918 . S
Fe441 O449 1.997 . S
Fe441 O452 1.996 . S
Fe441 O456 1.976 . S
Fe441 O459 2.002 . S
O442 Fe440 1.918 . S
O442 Fe441 1.918 . S
O442 Fe443 1.918 . S
Fe443 O442 1.918 . S
Fe443 O444 2.002 . S
Fe443 O453 1.976 . S
Fe443 O457 1.996 . S
Fe443 O460 1.997 . S
O444 Fe443 2.002 . S
O444 C461 1.295 . S
O445 Fe440 1.997 . S
O445 C461 1.235 . S
O446 Fe440 2.002 . S
O446 C447 1.295 . S
C447 O446 1.295 . S
C447 O449 1.235 . S
C448 O453 1.287 . S
C448 O454 1.255 . S
O449 Fe441 1.997 . S
O449 C447 1.235 . S
C450 O456 1.287 . S
C450 O457 1.255 . S
O451 Fe440 1.976 . S
O451 C458 1.287 . S
O452 Fe441 1.996 . S
O452 C458 1.255 . S
O453 Fe443 1.976 . S
O453 C448 1.287 . S
O454 Fe440 1.996 . S
O454 C448 1.255 . S
C455 O459 1.295 . S
C455 O460 1.235 . S
O456 Fe441 1.976 . S
O456 C450 1.287 . S
O457 Fe443 1.996 . S
O457 C450 1.255 . S
C458 O451 1.287 . S
C458 O452 1.255 . S
O459 Fe441 2.002 . S
O459 C455 1.295 . S
O460 Fe443 1.997 . S
O460 C455 1.235 . S
C461 O444 1.295 . S
C461 O445 1.235 . S
Fe462 O464 1.918 . S
Fe462 O467 1.997 . S
Fe462 O468 2.002 . S
Fe462 O473 1.976 . S
Fe462 O476 1.996 . S
Fe463 O464 1.918 . S
Fe463 O471 1.997 . S
Fe463 O474 1.996 . S
Fe463 O478 1.976 . S
Fe463 O481 2.002 . S
O464 Fe462 1.918 . S
O464 Fe463 1.918 . S
O464 Fe465 1.918 . S
Fe465 O464 1.918 . S
Fe465 O466 2.002 . S
Fe465 O475 1.976 . S
Fe465 O479 1.996 . S
Fe465 O482 1.997 . S
O466 Fe465 2.002 . S
O466 C483 1.295 . S
O467 Fe462 1.997 . S
O467 C483 1.235 . S
O468 Fe462 2.002 . S
O468 C469 1.295 . S
C469 O468 1.295 . S
C469 O471 1.235 . S
C470 O475 1.287 . S
C470 O476 1.255 . S
O471 Fe463 1.997 . S
O471 C469 1.235 . S
C472 O478 1.287 . S
C472 O479 1.255 . S
O473 Fe462 1.976 . S
O473 C480 1.287 . S
O474 Fe463 1.996 . S
O474 C480 1.255 . S
O475 Fe465 1.976 . S
O475 C470 1.287 . S
O476 Fe462 1.996 . S
O476 C470 1.255 . S
C477 O481 1.295 . S
C477 O482 1.235 . S
O478 Fe463 1.976 . S
O478 C472 1.287 . S
O479 Fe465 1.996 . S
O479 C472 1.255 . S
C480 O473 1.287 . S
C480 O474 1.255 . S
O481 Fe463 2.002 . S
O481 C477 1.295 . S
O482 Fe465 1.997 . S
O482 C477 1.235 . S
C483 O466 1.295 . S
C483 O467 1.235 . S
Fe484 O486 1.918 . S
Fe484 O489 1.997 . S
Fe484 O490 2.002 . S
Fe484 O495 1.976 . S
Fe484 O498 1.996 . S
Fe485 O486 1.918 . S
Fe485 O493 1.997 . S
Fe485 O496 1.996 . S
Fe485 O500 1.976 . S
Fe485 O503 2.002 . S
O486 Fe484 1.918 . S
O486 Fe485 1.918 . S
O486 Fe487 1.918 . S
Fe487 O486 1.918 . S
Fe487 O488 2.002 . S
Fe487 O497 1.976 . S
Fe487 O501 1.996 . S
Fe487 O504 1.997 . S
O488 Fe487 2.002 . S
O488 C505 1.295 . S
O489 Fe484 1.997 . S
O489 C505 1.235 . S
O490 Fe484 2.002 . S
O490 C491 1.295 . S
C491 O490 1.295 . S
C491 O493 1.235 . S
C492 O497 1.287 . S
C492 O498 1.255 . S
O493 Fe485 1.997 . S
O493 C491 1.235 . S
C494 O500 1.287 . S
C494 O501 1.255 . S
O495 Fe484 1.976 . S
O495 C502 1.287 . S
O496 Fe485 1.996 . S
O496 C502 1.255 . S
O497 Fe487 1.976 . S
O497 C492 1.287 . S
O498 Fe484 1.996 . S
O498 C492 1.255 . S
C499 O503 1.295 . S
C499 O504 1.235 . S
O500 Fe485 1.976 . S
O500 C494 1.287 . S
O501 Fe487 1.996 . S
O501 C494 1.255 . S
C502 O495 1.287 . S
C502 O496 1.255 . S
O503 Fe485 2.002 . S
O503 C499 1.295 . S
O504 Fe487 1.997 . S
O504 C499 1.235 . S
C505 O488 1.295 . S
C505 O489 1.235 . S
Fe506 O508 1.918 . S
Fe506 O511 1.997 . S
Fe506 O512 2.002 . S
Fe506 O517 1.976 . S
Fe506 O520 1.996 . S
Fe507 O508 1.918 . S
Fe507 O515 1.997 . S
Fe507 O518 1.996 . S
Fe507 O522 1.976 . S
Fe507 O525 2.002 . S
O508 Fe506 1.918 . S
O508 Fe507 1.918 . S
O508 Fe509 1.918 . S
Fe509 O508 1.918 . S
Fe509 O510 2.002 . S
Fe509 O519 1.976 . S
Fe509 O523 1.996 . S
Fe509 O526 1.997 . S
O510 Fe509 2.002 . S
O510 C527 1.295 . S
O511 Fe506 1.997 . S
O511 C527 1.235 . S
O512 Fe506 2.002 . S
O512 C513 1.295 . S
C513 O512 1.295 . S
C513 O515 1.235 . S
C514 O519 1.287 . S
C514 O520 1.255 . S
O515 Fe507 1.997 . S
O515 C513 1.235 . S
C516 O522 1.287 . S
C516 O523 1.255 . S
O517 Fe506 1.976 . S
O517 C524 1.287 . S
O518 Fe507 1.996 . S
O518 C524 1.255 . S
O519 Fe509 1.976 . S
O519 C514 1.287 . S
O520 Fe506 1.996 . S
O520 C514 1.255 . S
C521 O525 1.295 . S
C521 O526 1.235 . S
O522 Fe507 1.976 . S
O522 C516 1.287 . S
O523 Fe509 1.996 . S
O523 C516 1.255 . S
C524 O517 1.287 . S
C524 O518 1.255 . S
O525 Fe507 2.002 . S
O525 C521 1.295 . S
O526 Fe509 1.997 . S
O526 C521 1.235 . S
C527 O510 1.295 . S
C527 O511 1.235 . S
H528 C534 0.930 . S
H529 C537 0.930 . S
H530 C538 0.930 . S
H531 C539 0.930 . S
H532 C542 0.930 . S
H533 C543 0.930 . S
C534 H528 0.930 . S
C534 C535 1.355 . S
C534 C536 1.415 . S
C535 C534 1.355 . S
C535 C537 1.419 . S
C536 C534 1.415 . S
C536 C541 1.425 1_556 S
C536 C543 1.409 . S
C537 H529 0.930 . S
C537 C535 1.419 . S
C537 C538 1.362 1_556 S
C538 H530 0.930 . S
C538 C537 1.362 1_554 S
C538 C541 1.409 . S
C539 H531 0.930 . S
C539 C540 1.355 . S
C539 C541 1.415 . S
C540 C539 1.355 . S
C540 C542 1.419 . S
C541 C536 1.425 1_554 S
C541 C538 1.409 . S
C541 C539 1.415 . S
C542 H532 0.930 . S
C542 C540 1.419 . S
C542 C543 1.362 1_554 S
C543 H533 0.930 . S
C543 C536 1.409 . S
C543 C542 1.362 1_556 S
H544 C550 0.930 . S
H545 C553 0.930 . S
H546 C554 0.930 . S
H547 C555 0.930 . S
H548 C558 0.930 . S
H549 C559 0.930 . S
C550 H544 0.930 . S
C550 C551 1.355 . S
C550 C552 1.415 . S
C551 C550 1.355 . S
C551 C553 1.419 . S
C552 C550 1.415 . S
C552 C557 1.425 . S
C552 C559 1.409 . S
C553 H545 0.930 . S
C553 C551 1.419 . S
C553 C554 1.362 . S
C554 H546 0.930 . S
C554 C553 1.362 . S
C554 C557 1.409 . S
C555 H547 0.930 . S
C555 C556 1.355 . S
C555 C557 1.415 . S
C556 C555 1.355 . S
C556 C558 1.419 . S
C557 C552 1.425 . S
C557 C554 1.409 . S
C557 C555 1.415 . S
C558 H548 0.930 . S
C558 C556 1.419 . S
C558 C559 1.362 . S
C559 H549 0.930 . S
C559 C552 1.409 . S
C559 C558 1.362 . S
H560 C566 0.930 . S
H561 C569 0.930 . S
H562 C570 0.930 . S
H563 C571 0.930 . S
H564 C574 0.930 . S
H565 C575 0.930 . S
C566 H560 0.930 . S
C566 C567 1.355 . S
C566 C568 1.415 . S
C567 C566 1.355 . S
C567 C569 1.419 . S
C568 C566 1.415 . S
C568 C573 1.425 1_556 S
C568 C575 1.409 . S
C569 H561 0.930 . S
C569 C567 1.419 . S
C569 C570 1.362 1_556 S
C570 H562 0.930 . S
C570 C569 1.362 1_554 S
C570 C573 1.409 . S
C571 H563 0.930 . S
C571 C572 1.355 . S
C571 C573 1.415 . S
C572 C571 1.355 . S
C572 C574 1.419 . S
C573 C568 1.425 1_554 S
C573 C570 1.409 . S
C573 C571 1.415 . S
C574 H564 0.930 . S
C574 C572 1.419 . S
C574 C575 1.362 1_554 S
C575 H565 0.930 . S
C575 C568 1.409 . S
C575 C574 1.362 1_556 S
H576 C582 0.930 . S
H577 C585 0.930 . S
H578 C586 0.930 . S
H579 C587 0.930 . S
H580 C590 0.930 . S
H581 C591 0.930 . S
C582 H576 0.930 . S
C582 C583 1.355 . S
C582 C584 1.415 . S
C583 C582 1.355 . S
C583 C585 1.419 . S
C584 C582 1.415 . S
C584 C589 1.425 . S
C584 C591 1.409 . S
C585 H577 0.930 . S
C585 C583 1.419 . S
C585 C586 1.362 . S
C586 H578 0.930 . S
C586 C585 1.362 . S
C586 C589 1.409 . S
C587 H579 0.930 . S
C587 C588 1.355 . S
C587 C589 1.415 . S
C588 C587 1.355 . S
C588 C590 1.419 . S
C589 C584 1.425 . S
C589 C586 1.409 . S
C589 C587 1.415 . S
C590 H580 0.930 . S
C590 C588 1.419 . S
C590 C591 1.362 . S
C591 H581 0.930 . S
C591 C584 1.409 . S
C591 C590 1.362 . S
H592 C598 0.930 . S
H593 C601 0.930 . S
H594 C602 0.930 . S
H595 C603 0.930 . S
H596 C606 0.930 . S
H597 C607 0.930 . S
C598 H592 0.930 . S
C598 C599 1.355 . S
C598 C600 1.415 1_556 S
C599 C598 1.355 . S
C599 C601 1.419 . S
C600 C598 1.415 1_554 S
C600 C605 1.425 1_554 S
C600 C607 1.409 . S
C601 H593 0.930 . S
C601 C599 1.419 . S
C601 C602 1.362 . S
C602 H594 0.930 . S
C602 C601 1.362 . S
C602 C605 1.409 . S
C603 H595 0.930 . S
C603 C604 1.355 . S
C603 C605 1.415 1_554 S
C604 C603 1.355 . S
C604 C606 1.419 . S
C605 C600 1.425 1_556 S
C605 C602 1.409 . S
C605 C603 1.415 1_556 S
C606 H596 0.930 . S
C606 C604 1.419 . S
C606 C607 1.362 . S
C607 H597 0.930 . S
C607 C600 1.409 . S
C607 C606 1.362 . S
H608 C614 0.930 . S
H609 C617 0.930 . S
H610 C618 0.930 . S
H611 C619 0.930 . S
H612 C622 0.930 . S
H613 C623 0.930 . S
C614 H608 0.930 . S
C614 C615 1.355 . S
C614 C616 1.415 . S
C615 C614 1.355 . S
C615 C617 1.419 . S
C616 C614 1.415 . S
C616 C621 1.425 . S
C616 C623 1.409 . S
C617 H609 0.930 . S
C617 C615 1.419 . S
C617 C618 1.362 . S
C618 H610 0.930 . S
C618 C617 1.362 . S
C618 C621 1.409 . S
C619 H611 0.930 . S
C619 C620 1.355 . S
C619 C621 1.415 . S
C620 C619 1.355 . S
C620 C622 1.419 . S
C621 C616 1.425 . S
C621 C618 1.409 . S
C621 C619 1.415 . S
C622 H612 0.930 . S
C622 C620 1.419 . S
C622 C623 1.362 . S
C623 H613 0.930 . S
C623 C616 1.409 . S
C623 C622 1.362 . S
H624 C630 0.930 . S
H625 C633 0.930 . S
H626 C634 0.930 . S
H627 C635 0.930 . S
H628 C638 0.930 . S
H629 C639 0.930 . S
C630 H624 0.930 . S
C630 C631 1.355 . S
C630 C632 1.415 1_556 S
C631 C630 1.355 . S
C631 C633 1.419 . S
C632 C630 1.415 1_554 S
C632 C637 1.425 1_554 S
C632 C639 1.409 . S
C633 H625 0.930 . S
C633 C631 1.419 . S
C633 C634 1.362 . S
C634 H626 0.930 . S
C634 C633 1.362 . S
C634 C637 1.409 . S
C635 H627 0.930 . S
C635 C636 1.355 . S
C635 C637 1.415 1_554 S
C636 C635 1.355 . S
C636 C638 1.419 . S
C637 C632 1.425 1_556 S
C637 C634 1.409 . S
C637 C635 1.415 1_556 S
C638 H628 0.930 . S
C638 C636 1.419 . S
C638 C639 1.362 . S
C639 H629 0.930 . S
C639 C632 1.409 . S
C639 C638 1.362 . S
H640 C646 0.930 . S
H641 C649 0.930 . S
H642 C650 0.930 . S
H643 C651 0.930 . S
H644 C654 0.930 . S
H645 C655 0.930 . S
C646 H640 0.930 . S
C646 C647 1.355 . S
C646 C648 1.415 . S
C647 C646 1.355 . S
C647 C649 1.419 . S
C648 C646 1.415 . S
C648 C653 1.425 . S
C648 C655 1.409 . S
C649 H641 0.930 . S
C649 C647 1.419 . S
C649 C650 1.362 . S
C650 H642 0.930 . S
C650 C649 1.362 . S
C650 C653 1.409 . S
C651 H643 0.930 . S
C651 C652 1.355 . S
C651 C653 1.415 . S
C652 C651 1.355 . S
C652 C654 1.419 . S
C653 C648 1.425 . S
C653 C650 1.409 . S
C653 C651 1.415 . S
C654 H644 0.930 . S
C654 C652 1.419 . S
C654 C655 1.362 . S
C655 H645 0.930 . S
C655 C648 1.409 . S
C655 C654 1.362 . S
H656 C662 0.930 . S
H657 C665 0.930 . S
H658 C666 0.930 . S
H659 C667 0.930 . S
H660 C670 0.930 . S
H661 C671 0.930 . S
C662 H656 0.930 . S
C662 C663 1.355 . S
C662 C664 1.415 1_554 S
C663 C662 1.355 . S
C663 C665 1.419 . S
C664 C662 1.415 1_556 S
C664 C669 1.425 1_556 S
C664 C671 1.409 . S
C665 H657 0.930 . S
C665 C663 1.419 . S
C665 C666 1.362 . S
C666 H658 0.930 . S
C666 C665 1.362 . S
C666 C669 1.409 . S
C667 H659 0.930 . S
C667 C668 1.355 . S
C667 C669 1.415 1_556 S
C668 C667 1.355 . S
C668 C670 1.419 . S
C669 C664 1.425 1_554 S
C669 C666 1.409 . S
C669 C667 1.415 1_554 S
C670 H660 0.930 . S
C670 C668 1.419 . S
C670 C671 1.362 . S
C671 H661 0.930 . S
C671 C664 1.409 . S
C671 C670 1.362 . S
H672 C678 0.930 . S
H673 C681 0.930 . S
H674 C682 0.930 . S
H675 C683 0.930 . S
H676 C686 0.930 . S
H677 C687 0.930 . S
C678 H672 0.930 . S
C678 C679 1.355 . S
C678 C680 1.415 . S
C679 C678 1.355 . S
C679 C681 1.419 . S
C680 C678 1.415 . S
C680 C685 1.425 . S
C680 C687 1.409 . S
C681 H673 0.930 . S
C681 C679 1.419 . S
C681 C682 1.362 . S
C682 H674 0.930 . S
C682 C681 1.362 . S
C682 C685 1.409 . S
C683 H675 0.930 . S
C683 C684 1.355 . S
C683 C685 1.415 . S
C684 C683 1.355 . S
C684 C686 1.419 . S
C685 C680 1.425 . S
C685 C682 1.409 . S
C685 C683 1.415 . S
C686 H676 0.930 . S
C686 C684 1.419 . S
C686 C687 1.362 . S
C687 H677 0.930 . S
C687 C680 1.409 . S
C687 C686 1.362 . S
H688 C694 0.930 . S
H689 C697 0.930 . S
H690 C698 0.930 . S
H691 C699 0.930 . S
H692 C702 0.930 . S
H693 C703 0.930 . S
C694 H688 0.930 . S
C694 C695 1.355 . S
C694 C696 1.415 1_556 S
C695 C694 1.355 . S
C695 C697 1.419 . S
C696 C694 1.415 1_554 S
C696 C701 1.425 1_554 S
C696 C703 1.409 . S
C697 H689 0.930 . S
C697 C695 1.419 . S
C697 C698 1.362 . S
C698 H690 0.930 . S
C698 C697 1.362 . S
C698 C701 1.409 . S
C699 H691 0.930 . S
C699 C700 1.355 . S
C699 C701 1.415 1_554 S
C700 C699 1.355 . S
C700 C702 1.419 . S
C701 C696 1.425 1_556 S
C701 C698 1.409 . S
C701 C699 1.415 1_556 S
C702 H692 0.930 . S
C702 C700 1.419 . S
C702 C703 1.362 . S
C703 H693 0.930 . S
C703 C696 1.409 . S
C703 C702 1.362 . S
H704 C710 0.930 . S
H705 C713 0.930 . S
H706 C714 0.930 . S
H707 C715 0.930 . S
H708 C718 0.930 . S
H709 C719 0.930 . S
C710 H704 0.930 . S
C710 C711 1.355 . S
C710 C712 1.415 . S
C711 C710 1.355 . S
C711 C713 1.419 . S
C712 C710 1.415 . S
C712 C717 1.425 . S
C712 C719 1.409 . S
C713 H705 0.930 . S
C713 C711 1.419 . S
C713 C714 1.362 . S
C714 H706 0.930 . S
C714 C713 1.362 . S
C714 C717 1.409 . S
C715 H707 0.930 . S
C715 C716 1.355 . S
C715 C717 1.415 . S
C716 C715 1.355 . S
C716 C718 1.419 . S
C717 C712 1.425 . S
C717 C714 1.409 . S
C717 C715 1.415 . S
C718 H708 0.930 . S
C718 C716 1.419 . S
C718 C719 1.362 . S
C719 H709 0.930 . S
C719 C712 1.409 . S
C719 C718 1.362 . S
H720 C726 0.930 . S
H721 C729 0.930 . S
H722 C730 0.930 . S
H723 C731 0.930 . S
H724 C734 0.930 . S
H725 C735 0.930 . S
C726 H720 0.930 . S
C726 C727 1.355 . S
C726 C728 1.415 . S
C727 C726 1.355 . S
C727 C729 1.419 . S
C728 C726 1.415 . S
C728 C733 1.425 . S
C728 C735 1.409 . S
C729 H721 0.930 . S
C729 C727 1.419 . S
C729 C730 1.362 . S
C730 H722 0.930 . S
C730 C729 1.362 . S
C730 C733 1.409 . S
C731 H723 0.930 . S
C731 C732 1.355 . S
C731 C733 1.415 . S
C732 C731 1.355 . S
C732 C734 1.419 . S
C733 C728 1.425 . S
C733 C730 1.409 . S
C733 C731 1.415 . S
C734 H724 0.930 . S
C734 C732 1.419 . S
C734 C735 1.362 . S
C735 H725 0.930 . S
C735 C728 1.409 . S
C735 C734 1.362 . S
H736 C742 0.930 . S
H737 C745 0.930 . S
H738 C746 0.930 . S
H739 C747 0.930 . S
H740 C750 0.930 . S
H741 C751 0.930 . S
C742 H736 0.930 . S
C742 C743 1.355 . S
C742 C744 1.415 . S
C743 C742 1.355 . S
C743 C745 1.419 . S
C744 C742 1.415 . S
C744 C749 1.425 . S
C744 C751 1.409 . S
C745 H737 0.930 . S
C745 C743 1.419 . S
C745 C746 1.362 . S
C746 H738 0.930 . S
C746 C745 1.362 . S
C746 C749 1.409 . S
C747 H739 0.930 . S
C747 C748 1.355 . S
C747 C749 1.415 . S
C748 C747 1.355 . S
C748 C750 1.419 . S
C749 C744 1.425 . S
C749 C746 1.409 . S
C749 C747 1.415 . S
C750 H740 0.930 . S
C750 C748 1.419 . S
C750 C751 1.362 . S
C751 H741 0.930 . S
C751 C744 1.409 . S
C751 C750 1.362 . S
H752 C758 0.930 . S
H753 C761 0.930 . S
H754 C762 0.930 . S
H755 C763 0.930 . S
H756 C766 0.930 . S
H757 C767 0.930 . S
C758 H752 0.930 . S
C758 C759 1.355 . S
C758 C760 1.415 . S
C759 C758 1.355 . S
C759 C761 1.419 . S
C760 C758 1.415 . S
C760 C765 1.425 . S
C760 C767 1.409 . S
C761 H753 0.930 . S
C761 C759 1.419 . S
C761 C762 1.362 . S
C762 H754 0.930 . S
C762 C761 1.362 . S
C762 C765 1.409 . S
C763 H755 0.930 . S
C763 C764 1.355 . S
C763 C765 1.415 . S
C764 C763 1.355 . S
C764 C766 1.419 . S
C765 C760 1.425 . S
C765 C762 1.409 . S
C765 C763 1.415 . S
C766 H756 0.930 . S
C766 C764 1.419 . S
C766 C767 1.362 . S
C767 H757 0.930 . S
C767 C760 1.409 . S
C767 C766 1.362 . S
H768 C774 0.930 . S
H769 C777 0.930 . S
H770 C778 0.930 . S
H771 C779 0.930 . S
H772 C782 0.930 . S
H773 C783 0.930 . S
C774 H768 0.930 . S
C774 C775 1.355 . S
C774 C776 1.415 . S
C775 C774 1.355 . S
C775 C777 1.419 . S
C776 C774 1.415 . S
C776 C781 1.425 . S
C776 C783 1.409 . S
C777 H769 0.930 . S
C777 C775 1.419 . S
C777 C778 1.362 . S
C778 H770 0.930 . S
C778 C777 1.362 . S
C778 C781 1.409 . S
C779 H771 0.930 . S
C779 C780 1.355 . S
C779 C781 1.415 . S
C780 C779 1.355 . S
C780 C782 1.419 . S
C781 C776 1.425 . S
C781 C778 1.409 . S
C781 C779 1.415 . S
C782 H772 0.930 . S
C782 C780 1.419 . S
C782 C783 1.362 . S
C783 H773 0.930 . S
C783 C776 1.409 . S
C783 C782 1.362 . S
H784 C790 0.930 . S
H785 C793 0.930 . S
H786 C794 0.930 . S
H787 C795 0.930 . S
H788 C798 0.930 . S
H789 C799 0.930 . S
C790 H784 0.930 . S
C790 C791 1.355 . S
C790 C792 1.415 . S
C791 C790 1.355 . S
C791 C793 1.419 . S
C792 C790 1.415 . S
C792 C797 1.425 . S
C792 C799 1.409 . S
C793 H785 0.930 . S
C793 C791 1.419 . S
C793 C794 1.362 . S
C794 H786 0.930 . S
C794 C793 1.362 . S
C794 C797 1.409 . S
C795 H787 0.930 . S
C795 C796 1.355 . S
C795 C797 1.415 . S
C796 C795 1.355 . S
C796 C798 1.419 . S
C797 C792 1.425 . S
C797 C794 1.409 . S
C797 C795 1.415 . S
C798 H788 0.930 . S
C798 C796 1.419 . S
C798 C799 1.362 . S
C799 H789 0.930 . S
C799 C792 1.409 . S
C799 C798 1.362 . S
H800 C806 0.930 . S
H801 C809 0.930 . S
H802 C810 0.930 . S
H803 C811 0.930 . S
H804 C814 0.930 . S
H805 C815 0.930 . S
C806 H800 0.930 . S
C806 C807 1.355 . S
C806 C808 1.415 . S
C807 C806 1.355 . S
C807 C809 1.419 . S
C808 C806 1.415 . S
C808 C813 1.425 . S
C808 C815 1.409 . S
C809 H801 0.930 . S
C809 C807 1.419 . S
C809 C810 1.362 . S
C810 H802 0.930 . S
C810 C809 1.362 . S
C810 C813 1.409 . S
C811 H803 0.930 . S
C811 C812 1.355 . S
C811 C813 1.415 . S
C812 C811 1.355 . S
C812 C814 1.419 . S
C813 C808 1.425 . S
C813 C810 1.409 . S
C813 C811 1.415 . S
C814 H804 0.930 . S
C814 C812 1.419 . S
C814 C815 1.362 . S
C815 H805 0.930 . S
C815 C808 1.409 . S
C815 C814 1.362 . S
H816 C822 0.930 . S
H817 C825 0.930 . S
H818 C826 0.930 . S
H819 C827 0.930 . S
H820 C830 0.930 . S
H821 C831 0.930 . S
C822 H816 0.930 . S
C822 C823 1.355 . S
C822 C824 1.415 . S
C823 C822 1.355 . S
C823 C825 1.419 . S
C824 C822 1.415 . S
C824 C829 1.425 . S
C824 C831 1.409 . S
C825 H817 0.930 . S
C825 C823 1.419 . S
C825 C826 1.362 . S
C826 H818 0.930 . S
C826 C825 1.362 . S
C826 C829 1.409 . S
C827 H819 0.930 . S
C827 C828 1.355 . S
C827 C829 1.415 . S
C828 C827 1.355 . S
C828 C830 1.419 . S
C829 C824 1.425 . S
C829 C826 1.409 . S
C829 C827 1.415 . S
C830 H820 0.930 . S
C830 C828 1.419 . S
C830 C831 1.362 . S
C831 H821 0.930 . S
C831 C824 1.409 . S
C831 C830 1.362 . S
H832 C838 0.930 . S
H833 C841 0.930 . S
H834 C842 0.930 . S
H835 C843 0.930 . S
H836 C846 0.930 . S
H837 C847 0.930 . S
C838 H832 0.930 . S
C838 C839 1.355 . S
C838 C840 1.415 . S
C839 C838 1.355 . S
C839 C841 1.419 . S
C840 C838 1.415 . S
C840 C845 1.425 . S
C840 C847 1.409 . S
C841 H833 0.930 . S
C841 C839 1.419 . S
C841 C842 1.362 . S
C842 H834 0.930 . S
C842 C841 1.362 . S
C842 C845 1.409 . S
C843 H835 0.930 . S
C843 C844 1.355 . S
C843 C845 1.415 . S
C844 C843 1.355 . S
C844 C846 1.419 . S
C845 C840 1.425 . S
C845 C842 1.409 . S
C845 C843 1.415 . S
C846 H836 0.930 . S
C846 C844 1.419 . S
C846 C847 1.362 . S
C847 H837 0.930 . S
C847 C840 1.409 . S
C847 C846 1.362 . S
H848 C854 0.930 . S
H849 C857 0.930 . S
H850 C858 0.930 . S
H851 C859 0.930 . S
H852 C862 0.930 . S
H853 C863 0.930 . S
C854 H848 0.930 . S
C854 C855 1.355 . S
C854 C856 1.415 . S
C855 C854 1.355 . S
C855 C857 1.419 . S
C856 C854 1.415 . S
C856 C861 1.425 . S
C856 C863 1.409 . S
C857 H849 0.930 . S
C857 C855 1.419 . S
C857 C858 1.362 . S
C858 H850 0.930 . S
C858 C857 1.362 . S
C858 C861 1.409 . S
C859 H851 0.930 . S
C859 C860 1.355 . S
C859 C861 1.415 . S
C860 C859 1.355 . S
C860 C862 1.419 . S
C861 C856 1.425 . S
C861 C858 1.409 . S
C861 C859 1.415 . S
C862 H852 0.930 . S
C862 C860 1.419 . S
C862 C863 1.362 . S
C863 H853 0.930 . S
C863 C856 1.409 . S
C863 C862 1.362 . S
H864 C870 0.930 . S
H865 C873 0.930 . S
H866 C874 0.930 . S
H867 C875 0.930 . S
H868 C878 0.930 . S
H869 C879 0.930 . S
C870 H864 0.930 . S
C870 C871 1.355 . S
C870 C872 1.415 . S
C871 C870 1.355 . S
C871 C873 1.419 . S
C872 C870 1.415 . S
C872 C877 1.425 . S
C872 C879 1.409 . S
C873 H865 0.930 . S
C873 C871 1.419 . S
C873 C874 1.362 . S
C874 H866 0.930 . S
C874 C873 1.362 . S
C874 C877 1.409 . S
C875 H867 0.930 . S
C875 C876 1.355 . S
C875 C877 1.415 . S
C876 C875 1.355 . S
C876 C878 1.419 . S
C877 C872 1.425 . S
C877 C874 1.409 . S
C877 C875 1.415 . S
C878 H868 0.930 . S
C878 C876 1.419 . S
C878 C879 1.362 . S
C879 H869 0.930 . S
C879 C872 1.409 . S
C879 C878 1.362 . S
H880 C886 0.930 . S
H881 C889 0.930 . S
H882 C890 0.930 . S
H883 C891 0.930 . S
H884 C894 0.930 . S
H885 C895 0.930 . S
C886 H880 0.930 . S
C886 C887 1.355 . S
C886 C888 1.415 . S
C887 C886 1.355 . S
C887 C889 1.419 . S
C888 C886 1.415 . S
C888 C893 1.425 . S
C888 C895 1.409 . S
C889 H881 0.930 . S
C889 C887 1.419 . S
C889 C890 1.362 . S
C890 H882 0.930 . S
C890 C889 1.362 . S
C890 C893 1.409 . S
C891 H883 0.930 . S
C891 C892 1.355 . S
C891 C893 1.415 . S
C892 C891 1.355 . S
C892 C894 1.419 . S
C893 C888 1.425 . S
C893 C890 1.409 . S
C893 C891 1.415 . S
C894 H884 0.930 . S
C894 C892 1.419 . S
C894 C895 1.362 . S
C895 H885 0.930 . S
C895 C888 1.409 . S
C895 C894 1.362 . S
H896 C902 0.930 . S
H897 C905 0.930 . S
H898 C906 0.930 . S
H899 C907 0.930 . S
H900 C910 0.930 . S
H901 C911 0.930 . S
C902 H896 0.930 . S
C902 C903 1.355 . S
C902 C904 1.415 . S
C903 C902 1.355 . S
C903 C905 1.419 . S
C904 C902 1.415 . S
C904 C909 1.425 . S
C904 C911 1.409 . S
C905 H897 0.930 . S
C905 C903 1.419 . S
C905 C906 1.362 . S
C906 H898 0.930 . S
C906 C905 1.362 . S
C906 C909 1.409 . S
C907 H899 0.930 . S
C907 C908 1.355 . S
C907 C909 1.415 . S
C908 C907 1.355 . S
C908 C910 1.419 . S
C909 C904 1.425 . S
C909 C906 1.409 . S
C909 C907 1.415 . S
C910 H900 0.930 . S
C910 C908 1.419 . S
C910 C911 1.362 . S
C911 H901 0.930 . S
C911 C904 1.409 . S
C911 C910 1.362 . S
H912 C918 0.930 . S
H913 C921 0.930 . S
H914 C922 0.930 . S
H915 C923 0.930 . S
H916 C926 0.930 . S
H917 C927 0.930 . S
C918 H912 0.930 . S
C918 C919 1.355 . S
C918 C920 1.415 . S
C919 C918 1.355 . S
C919 C921 1.419 . S
C920 C918 1.415 . S
C920 C925 1.425 . S
C920 C927 1.409 . S
C921 H913 0.930 . S
C921 C919 1.419 . S
C921 C922 1.362 . S
C922 H914 0.930 . S
C922 C921 1.362 . S
C922 C925 1.409 . S
C923 H915 0.930 . S
C923 C924 1.355 . S
C923 C925 1.415 . S
C924 C923 1.355 . S
C924 C926 1.419 . S
C925 C920 1.425 . S
C925 C922 1.409 . S
C925 C923 1.415 . S
C926 H916 0.930 . S
C926 C924 1.419 . S
C926 C927 1.362 . S
C927 H917 0.930 . S
C927 C920 1.409 . S
C927 C926 1.362 . S
H928 C934 0.930 . S
H929 C937 0.930 . S
H930 C938 0.930 . S
H931 C939 0.930 . S
H932 C942 0.930 . S
H933 C943 0.930 . S
C934 H928 0.930 . S
C934 C935 1.355 . S
C934 C936 1.415 . S
C935 C934 1.355 . S
C935 C937 1.419 . S
C936 C934 1.415 . S
C936 C941 1.425 . S
C936 C943 1.409 . S
C937 H929 0.930 . S
C937 C935 1.419 . S
C937 C938 1.362 . S
C938 H930 0.930 . S
C938 C937 1.362 . S
C938 C941 1.409 . S
C939 H931 0.930 . S
C939 C940 1.355 . S
C939 C941 1.415 . S
C940 C939 1.355 . S
C940 C942 1.419 . S
C941 C936 1.425 . S
C941 C938 1.409 . S
C941 C939 1.415 . S
C942 H932 0.930 . S
C942 C940 1.419 . S
C942 C943 1.362 . S
C943 H933 0.930 . S
C943 C936 1.409 . S
C943 C942 1.362 . S
H944 C950 0.930 . S
H945 C953 0.930 . S
H946 C954 0.930 . S
H947 C955 0.930 . S
H948 C958 0.930 . S
H949 C959 0.930 . S
C950 H944 0.930 . S
C950 C951 1.355 . S
C950 C952 1.415 . S
C951 C950 1.355 . S
C951 C953 1.419 . S
C952 C950 1.415 . S
C952 C957 1.425 . S
C952 C959 1.409 . S
C953 H945 0.930 . S
C953 C951 1.419 . S
C953 C954 1.362 . S
C954 H946 0.930 . S
C954 C953 1.362 . S
C954 C957 1.409 . S
C955 H947 0.930 . S
C955 C956 1.355 . S
C955 C957 1.415 . S
C956 C955 1.355 . S
C956 C958 1.419 . S
C957 C952 1.425 . S
C957 C954 1.409 . S
C957 C955 1.415 . S
C958 H948 0.930 . S
C958 C956 1.419 . S
C958 C959 1.362 . S
C959 H949 0.930 . S
C959 C952 1.409 . S
C959 C958 1.362 . S
H960 C966 0.930 . S
H961 C969 0.930 . S
H962 C970 0.930 . S
H963 C971 0.930 . S
H964 C974 0.930 . S
H965 C975 0.930 . S
C966 H960 0.930 . S
C966 C967 1.355 . S
C966 C968 1.415 . S
C967 C966 1.355 . S
C967 C969 1.419 . S
C968 C966 1.415 . S
C968 C973 1.425 . S
C968 C975 1.409 . S
C969 H961 0.930 . S
C969 C967 1.419 . S
C969 C970 1.362 . S
C970 H962 0.930 . S
C970 C969 1.362 . S
C970 C973 1.409 . S
C971 H963 0.930 . S
C971 C972 1.355 . S
C971 C973 1.415 . S
C972 C971 1.355 . S
C972 C974 1.419 . S
C973 C968 1.425 . S
C973 C970 1.409 . S
C973 C971 1.415 . S
C974 H964 0.930 . S
C974 C972 1.419 . S
C974 C975 1.362 . S
C975 H965 0.930 . S
C975 C968 1.409 . S
C975 C974 1.362 . S
H976 C982 0.930 . S
H977 C985 0.930 . S
H978 C986 0.930 . S
H979 C987 0.930 . S
H980 C990 0.930 . S
H981 C991 0.930 . S
C982 H976 0.930 . S
C982 C983 1.355 . S
C982 C984 1.415 . S
C983 C982 1.355 . S
C983 C985 1.419 . S
C984 C982 1.415 . S
C984 C989 1.425 . S
C984 C991 1.409 . S
C985 H977 0.930 . S
C985 C983 1.419 . S
C985 C986 1.362 . S
C986 H978 0.930 . S
C986 C985 1.362 . S
C986 C989 1.409 . S
C987 H979 0.930 . S
C987 C988 1.355 . S
C987 C989 1.415 . S
C988 C987 1.355 . S
C988 C990 1.419 . S
C989 C984 1.425 . S
C989 C986 1.409 . S
C989 C987 1.415 . S
C990 H980 0.930 . S
C990 C988 1.419 . S
C990 C991 1.362 . S
C991 H981 0.930 . S
C991 C984 1.409 . S
C991 C990 1.362 . S
H992 C998 0.930 . S
H993 C1001 0.930 . S
H994 C1002 0.930 . S
H995 C1003 0.930 . S
H996 C1006 0.930 . S
H997 C1007 0.930 . S
C998 H992 0.930 . S
C998 C999 1.355 . S
C998 C1000 1.415 . S
C999 C998 1.355 . S
C999 C1001 1.419 . S
C1000 C998 1.415 . S
C1000 C1005 1.425 . S
C1000 C1007 1.409 . S
C1001 H993 0.930 . S
C1001 C999 1.419 . S
C1001 C1002 1.362 . S
C1002 H994 0.930 . S
C1002 C1001 1.362 . S
C1002 C1005 1.409 . S
C1003 H995 0.930 . S
C1003 C1004 1.355 . S
C1003 C1005 1.415 . S
C1004 C1003 1.355 . S
C1004 C1006 1.419 . S
C1005 C1000 1.425 . S
C1005 C1002 1.409 . S
C1005 C1003 1.415 . S
C1006 H996 0.930 . S
C1006 C1004 1.419 . S
C1006 C1007 1.362 . S
C1007 H997 0.930 . S
C1007 C1000 1.409 . S
C1007 C1006 1.362 . S
H1008 C1014 0.930 . S
H1009 C1017 0.930 . S
H1010 C1018 0.930 . S
H1011 C1019 0.930 . S
H1012 C1022 0.930 . S
H1013 C1023 0.930 . S
C1014 H1008 0.930 . S
C1014 C1015 1.355 . S
C1014 C1016 1.415 . S
C1015 C1014 1.355 . S
C1015 C1017 1.419 . S
C1016 C1014 1.415 . S
C1016 C1021 1.425 . S
C1016 C1023 1.409 . S
C1017 H1009 0.930 . S
C1017 C1015 1.419 . S
C1017 C1018 1.362 . S
C1018 H1010 0.930 . S
C1018 C1017 1.362 . S
C1018 C1021 1.409 . S
C1019 H1011 0.930 . S
C1019 C1020 1.355 . S
C1019 C1021 1.415 . S
C1020 C1019 1.355 . S
C1020 C1022 1.419 . S
C1021 C1016 1.425 . S
C1021 C1018 1.409 . S
C1021 C1019 1.415 . S
C1022 H1012 0.930 . S
C1022 C1020 1.419 . S
C1022 C1023 1.362 . S
C1023 H1013 0.930 . S
C1023 C1016 1.409 . S
C1023 C1022 1.362 . S
H1024 C1030 0.930 . S
H1025 C1033 0.930 . S
H1026 C1034 0.930 . S
H1027 C1035 0.930 . S
H1028 C1038 0.930 . S
H1029 C1039 0.930 . S
C1030 H1024 0.930 . S
C1030 C1031 1.355 . S
C1030 C1032 1.415 . S
C1031 C1030 1.355 . S
C1031 C1033 1.419 . S
C1032 C1030 1.415 . S
C1032 C1037 1.425 . S
C1032 C1039 1.409 . S
C1033 H1025 0.930 . S
C1033 C1031 1.419 . S
C1033 C1034 1.362 . S
C1034 H1026 0.930 . S
C1034 C1033 1.362 . S
C1034 C1037 1.409 . S
C1035 H1027 0.930 . S
C1035 C1036 1.355 . S
C1035 C1037 1.415 . S
C1036 C1035 1.355 . S
C1036 C1038 1.419 . S
C1037 C1032 1.425 . S
C1037 C1034 1.409 . S
C1037 C1035 1.415 . S
C1038 H1028 0.930 . S
C1038 C1036 1.419 . S
C1038 C1039 1.362 . S
C1039 H1029 0.930 . S
C1039 C1032 1.409 . S
C1039 C1038 1.362 . S
H1040 C1046 0.930 . S
H1041 C1049 0.930 . S
H1042 C1050 0.930 . S
H1043 C1051 0.930 . S
H1044 C1054 0.930 . S
H1045 C1055 0.930 . S
C1046 H1040 0.930 . S
C1046 C1047 1.355 . S
C1046 C1048 1.415 . S
C1047 C1046 1.355 . S
C1047 C1049 1.419 . S
C1048 C1046 1.415 . S
C1048 C1053 1.425 . S
C1048 C1055 1.409 . S
C1049 H1041 0.930 . S
C1049 C1047 1.419 . S
C1049 C1050 1.362 . S
C1050 H1042 0.930 . S
C1050 C1049 1.362 . S
C1050 C1053 1.409 . S
C1051 H1043 0.930 . S
C1051 C1052 1.355 . S
C1051 C1053 1.415 . S
C1052 C1051 1.355 . S
C1052 C1054 1.419 . S
C1053 C1048 1.425 . S
C1053 C1050 1.409 . S
C1053 C1051 1.415 . S
C1054 H1044 0.930 . S
C1054 C1052 1.419 . S
C1054 C1055 1.362 . S
C1055 H1045 0.930 . S
C1055 C1048 1.409 . S
C1055 C1054 1.362 . S
H1056 C1062 0.930 . S
H1057 C1065 0.930 . S
H1058 C1066 0.930 . S
H1059 C1067 0.930 . S
H1060 C1070 0.930 . S
H1061 C1071 0.930 . S
C1062 H1056 0.930 . S
C1062 C1063 1.355 . S
C1062 C1064 1.415 . S
C1063 C1062 1.355 . S
C1063 C1065 1.419 . S
C1064 C1062 1.415 . S
C1064 C1069 1.425 . S
C1064 C1071 1.409 . S
C1065 H1057 0.930 . S
C1065 C1063 1.419 . S
C1065 C1066 1.362 . S
C1066 H1058 0.930 . S
C1066 C1065 1.362 . S
C1066 C1069 1.409 . S
C1067 H1059 0.930 . S
C1067 C1068 1.355 . S
C1067 C1069 1.415 . S
C1068 C1067 1.355 . S
C1068 C1070 1.419 . S
C1069 C1064 1.425 . S
C1069 C1066 1.409 . S
C1069 C1067 1.415 . S
C1070 H1060 0.930 . S
C1070 C1068 1.419 . S
C1070 C1071 1.362 . S
C1071 H1061 0.930 . S
C1071 C1064 1.409 . S
C1071 C1070 1.362 . S
H1072 C1078 0.930 . S
H1073 C1081 0.930 . S
H1074 C1082 0.930 . S
H1075 C1083 0.930 . S
H1076 C1086 0.930 . S
H1077 C1087 0.930 . S
C1078 H1072 0.930 . S
C1078 C1079 1.355 . S
C1078 C1080 1.415 . S
C1079 C1078 1.355 . S
C1079 C1081 1.419 . S
C1080 C1078 1.415 . S
C1080 C1085 1.425 . S
C1080 C1087 1.409 . S
C1081 H1073 0.930 . S
C1081 C1079 1.419 . S
C1081 C1082 1.362 . S
C1082 H1074 0.930 . S
C1082 C1081 1.362 . S
C1082 C1085 1.409 . S
C1083 H1075 0.930 . S
C1083 C1084 1.355 . S
C1083 C1085 1.415 . S
C1084 C1083 1.355 . S
C1084 C1086 1.419 . S
C1085 C1080 1.425 . S
C1085 C1082 1.409 . S
C1085 C1083 1.415 . S
C1086 H1076 0.930 . S
C1086 C1084 1.419 . S
C1086 C1087 1.362 . S
C1087 H1077 0.930 . S
C1087 C1080 1.409 . S
C1087 C1086 1.362 . S
H1088 C1094 0.930 . S
H1089 C1097 0.930 . S
H1090 C1098 0.930 . S
H1091 C1099 0.930 . S
H1092 C1102 0.930 . S
H1093 C1103 0.930 . S
C1094 H1088 0.930 . S
C1094 C1095 1.355 . S
C1094 C1096 1.415 . S
C1095 C1094 1.355 . S
C1095 C1097 1.419 . S
C1096 C1094 1.415 . S
C1096 C1101 1.425 . S
C1096 C1103 1.409 . S
C1097 H1089 0.930 . S
C1097 C1095 1.419 . S
C1097 C1098 1.362 . S
C1098 H1090 0.930 . S
C1098 C1097 1.362 . S
C1098 C1101 1.409 . S
C1099 H1091 0.930 . S
C1099 C1100 1.355 . S
C1099 C1101 1.415 . S
C1100 C1099 1.355 . S
C1100 C1102 1.419 . S
C1101 C1096 1.425 . S
C1101 C1098 1.409 . S
C1101 C1099 1.415 . S
C1102 H1092 0.930 . S
C1102 C1100 1.419 . S
C1102 C1103 1.362 . S
C1103 H1093 0.930 . S
C1103 C1096 1.409 . S
C1103 C1102 1.362 . S
H1104 C1110 0.930 . S
H1105 C1113 0.930 . S
H1106 C1114 0.930 . S
H1107 C1115 0.930 . S
H1108 C1118 0.930 . S
H1109 C1119 0.930 . S
C1110 H1104 0.930 . S
C1110 C1111 1.355 . S
C1110 C1112 1.415 . S
C1111 C1110 1.355 . S
C1111 C1113 1.419 . S
C1112 C1110 1.415 . S
C1112 C1117 1.425 . S
C1112 C1119 1.409 . S
C1113 H1105 0.930 . S
C1113 C1111 1.419 . S
C1113 C1114 1.362 . S
C1114 H1106 0.930 . S
C1114 C1113 1.362 . S
C1114 C1117 1.409 . S
C1115 H1107 0.930 . S
C1115 C1116 1.355 . S
C1115 C1117 1.415 . S
C1116 C1115 1.355 . S
C1116 C1118 1.419 . S
C1117 C1112 1.425 . S
C1117 C1114 1.409 . S
C1117 C1115 1.415 . S
C1118 H1108 0.930 . S
C1118 C1116 1.419 . S
C1118 C1119 1.362 . S
C1119 H1109 0.930 . S
C1119 C1112 1.409 . S
C1119 C1118 1.362 . S
H1120 C1126 0.930 . S
H1121 C1129 0.930 . S
H1122 C1130 0.930 . S
H1123 C1131 0.930 . S
H1124 C1134 0.930 . S
H1125 C1135 0.930 . S
C1126 H1120 0.930 . S
C1126 C1127 1.355 . S
C1126 C1128 1.415 . S
C1127 C1126 1.355 . S
C1127 C1129 1.419 . S
C1128 C1126 1.415 . S
C1128 C1133 1.425 . S
C1128 C1135 1.409 . S
C1129 H1121 0.930 . S
C1129 C1127 1.419 . S
C1129 C1130 1.362 . S
C1130 H1122 0.930 . S
C1130 C1129 1.362 . S
C1130 C1133 1.409 . S
C1131 H1123 0.930 . S
C1131 C1132 1.355 . S
C1131 C1133 1.415 . S
C1132 C1131 1.355 . S
C1132 C1134 1.419 . S
C1133 C1128 1.425 . S
C1133 C1130 1.409 . S
C1133 C1131 1.415 . S
C1134 H1124 0.930 . S
C1134 C1132 1.419 . S
C1134 C1135 1.362 . S
C1135 H1125 0.930 . S
C1135 C1128 1.409 . S
C1135 C1134 1.362 . S
H1136 C1142 0.930 . S
H1137 C1145 0.930 . S
H1138 C1146 0.930 . S
H1139 C1147 0.930 . S
H1140 C1150 0.930 . S
H1141 C1151 0.930 . S
C1142 H1136 0.930 . S
C1142 C1143 1.355 . S
C1142 C1144 1.415 . S
C1143 C1142 1.355 . S
C1143 C1145 1.419 . S
C1144 C1142 1.415 . S
C1144 C1149 1.425 . S
C1144 C1151 1.409 . S
C1145 H1137 0.930 . S
C1145 C1143 1.419 . S
C1145 C1146 1.362 . S
C1146 H1138 0.930 . S
C1146 C1145 1.362 . S
C1146 C1149 1.409 . S
C1147 H1139 0.930 . S
C1147 C1148 1.355 . S
C1147 C1149 1.415 . S
C1148 C1147 1.355 . S
C1148 C1150 1.419 . S
C1149 C1144 1.425 . S
C1149 C1146 1.409 . S
C1149 C1147 1.415 . S
C1150 H1140 0.930 . S
C1150 C1148 1.419 . S
C1150 C1151 1.362 . S
C1151 H1141 0.930 . S
C1151 C1144 1.409 . S
C1151 C1150 1.362 . S
H1152 C1158 0.930 . S
H1153 C1161 0.930 . S
H1154 C1162 0.930 . S
H1155 C1163 0.930 . S
H1156 C1166 0.930 . S
H1157 C1167 0.930 . S
C1158 H1152 0.930 . S
C1158 C1159 1.355 . S
C1158 C1160 1.415 . S
C1159 C1158 1.355 . S
C1159 C1161 1.419 . S
C1160 C1158 1.415 . S
C1160 C1165 1.425 . S
C1160 C1167 1.409 . S
C1161 H1153 0.930 . S
C1161 C1159 1.419 . S
C1161 C1162 1.362 . S
C1162 H1154 0.930 . S
C1162 C1161 1.362 . S
C1162 C1165 1.409 . S
C1163 H1155 0.930 . S
C1163 C1164 1.355 . S
C1163 C1165 1.415 . S
C1164 C1163 1.355 . S
C1164 C1166 1.419 . S
C1165 C1160 1.425 . S
C1165 C1162 1.409 . S
C1165 C1163 1.415 . S
C1166 H1156 0.930 . S
C1166 C1164 1.419 . S
C1166 C1167 1.362 . S
C1167 H1157 0.930 . S
C1167 C1160 1.409 . S
C1167 C1166 1.362 . S
H1168 C1174 0.930 . S
H1169 C1177 0.930 . S
H1170 C1178 0.930 . S
H1171 C1179 0.930 . S
H1172 C1182 0.930 . S
H1173 C1183 0.930 . S
C1174 H1168 0.930 . S
C1174 C1175 1.355 . S
C1174 C1176 1.415 . S
C1175 C1174 1.355 . S
C1175 C1177 1.419 . S
C1176 C1174 1.415 . S
C1176 C1181 1.425 . S
C1176 C1183 1.409 . S
C1177 H1169 0.930 . S
C1177 C1175 1.419 . S
C1177 C1178 1.362 . S
C1178 H1170 0.930 . S
C1178 C1177 1.362 . S
C1178 C1181 1.409 . S
C1179 H1171 0.930 . S
C1179 C1180 1.355 . S
C1179 C1181 1.415 . S
C1180 C1179 1.355 . S
C1180 C1182 1.419 . S
C1181 C1176 1.425 . S
C1181 C1178 1.409 . S
C1181 C1179 1.415 . S
C1182 H1172 0.930 . S
C1182 C1180 1.419 . S
C1182 C1183 1.362 . S
C1183 H1173 0.930 . S
C1183 C1176 1.409 . S
C1183 C1182 1.362 . S
H1184 C1190 0.930 . S
H1185 C1193 0.930 . S
H1186 C1194 0.930 . S
H1187 C1195 0.930 . S
H1188 C1198 0.930 . S
H1189 C1199 0.930 . S
C1190 H1184 0.930 . S
C1190 C1191 1.355 . S
C1190 C1192 1.415 . S
C1191 C1190 1.355 . S
C1191 C1193 1.419 . S
C1192 C1190 1.415 . S
C1192 C1197 1.425 . S
C1192 C1199 1.409 . S
C1193 H1185 0.930 . S
C1193 C1191 1.419 . S
C1193 C1194 1.362 . S
C1194 H1186 0.930 . S
C1194 C1193 1.362 . S
C1194 C1197 1.409 . S
C1195 H1187 0.930 . S
C1195 C1196 1.355 . S
C1195 C1197 1.415 . S
C1196 C1195 1.355 . S
C1196 C1198 1.419 . S
C1197 C1192 1.425 . S
C1197 C1194 1.409 . S
C1197 C1195 1.415 . S
C1198 H1188 0.930 . S
C1198 C1196 1.419 . S
C1198 C1199 1.362 . S
C1199 H1189 0.930 . S
C1199 C1192 1.409 . S
C1199 C1198 1.362 . S
H1200 C1206 0.930 . S
H1201 C1209 0.930 . S
H1202 C1210 0.930 . S
H1203 C1211 0.930 . S
H1204 C1214 0.930 . S
H1205 C1215 0.930 . S
C1206 H1200 0.930 . S
C1206 C1207 1.355 . S
C1206 C1208 1.415 . S
C1207 C1206 1.355 . S
C1207 C1209 1.419 . S
C1208 C1206 1.415 . S
C1208 C1213 1.425 . S
C1208 C1215 1.409 . S
C1209 H1201 0.930 . S
C1209 C1207 1.419 . S
C1209 C1210 1.362 . S
C1210 H1202 0.930 . S
C1210 C1209 1.362 . S
C1210 C1213 1.409 . S
C1211 H1203 0.930 . S
C1211 C1212 1.355 . S
C1211 C1213 1.415 . S
C1212 C1211 1.355 . S
C1212 C1214 1.419 . S
C1213 C1208 1.425 . S
C1213 C1210 1.409 . S
C1213 C1211 1.415 . S
C1214 H1204 0.930 . S
C1214 C1212 1.419 . S
C1214 C1215 1.362 . S
C1215 H1205 0.930 . S
C1215 C1208 1.409 . S
C1215 C1214 1.362 . S
H1216 C1222 0.930 . S
H1217 C1225 0.930 . S
H1218 C1226 0.930 . S
H1219 C1227 0.930 . S
H1220 C1230 0.930 . S
H1221 C1231 0.930 . S
C1222 H1216 0.930 . S
C1222 C1223 1.355 . S
C1222 C1224 1.415 . S
C1223 C1222 1.355 . S
C1223 C1225 1.419 . S
C1224 C1222 1.415 . S
C1224 C1229 1.425 . S
C1224 C1231 1.409 . S
C1225 H1217 0.930 . S
C1225 C1223 1.419 . S
C1225 C1226 1.362 . S
C1226 H1218 0.930 . S
C1226 C1225 1.362 . S
C1226 C1229 1.409 . S
C1227 H1219 0.930 . S
C1227 C1228 1.355 . S
C1227 C1229 1.415 . S
C1228 C1227 1.355 . S
C1228 C1230 1.419 . S
C1229 C1224 1.425 . S
C1229 C1226 1.409 . S
C1229 C1227 1.415 . S
C1230 H1220 0.930 . S
C1230 C1228 1.419 . S
C1230 C1231 1.362 . S
C1231 H1221 0.930 . S
C1231 C1224 1.409 . S
C1231 C1230 1.362 . S
H1232 C1238 0.930 . S
H1233 C1241 0.930 . S
H1234 C1242 0.930 . S
H1235 C1243 0.930 . S
H1236 C1246 0.930 . S
H1237 C1247 0.930 . S
C1238 H1232 0.930 . S
C1238 C1239 1.355 . S
C1238 C1240 1.415 . S
C1239 C1238 1.355 . S
C1239 C1241 1.419 . S
C1240 C1238 1.415 . S
C1240 C1245 1.425 . S
C1240 C1247 1.409 . S
C1241 H1233 0.930 . S
C1241 C1239 1.419 . S
C1241 C1242 1.362 . S
C1242 H1234 0.930 . S
C1242 C1241 1.362 . S
C1242 C1245 1.409 . S
C1243 H1235 0.930 . S
C1243 C1244 1.355 . S
C1243 C1245 1.415 . S
C1244 C1243 1.355 . S
C1244 C1246 1.419 . S
C1245 C1240 1.425 . S
C1245 C1242 1.409 . S
C1245 C1243 1.415 . S
C1246 H1236 0.930 . S
C1246 C1244 1.419 . S
C1246 C1247 1.362 . S
C1247 H1237 0.930 . S
C1247 C1240 1.409 . S
C1247 C1246 1.362 . S
H1248 C1254 0.930 . S
H1249 C1257 0.930 . S
H1250 C1258 0.930 . S
H1251 C1259 0.930 . S
H1252 C1262 0.930 . S
H1253 C1263 0.930 . S
C1254 H1248 0.930 . S
C1254 C1255 1.355 . S
C1254 C1256 1.415 . S
C1255 C1254 1.355 . S
C1255 C1257 1.419 . S
C1256 C1254 1.415 . S
C1256 C1261 1.425 . S
C1256 C1263 1.409 . S
C1257 H1249 0.930 . S
C1257 C1255 1.419 . S
C1257 C1258 1.362 . S
C1258 H1250 0.930 . S
C1258 C1257 1.362 . S
C1258 C1261 1.409 . S
C1259 H1251 0.930 . S
C1259 C1260 1.355 . S
C1259 C1261 1.415 . S
C1260 C1259 1.355 . S
C1260 C1262 1.419 . S
C1261 C1256 1.425 . S
C1261 C1258 1.409 . S
C1261 C1259 1.415 . S
C1262 H1252 0.930 . S
C1262 C1260 1.419 . S
C1262 C1263 1.362 . S
C1263 H1253 0.930 . S
C1263 C1256 1.409 . S
C1263 C1262 1.362 . S
H1264 C1270 0.930 . S
H1265 C1273 0.930 . S
H1266 C1274 0.930 . S
H1267 C1275 0.930 . S
H1268 C1278 0.930 . S
H1269 C1279 0.930 . S
C1270 H1264 0.930 . S
C1270 C1271 1.355 . S
C1270 C1272 1.415 . S
C1271 C1270 1.355 . S
C1271 C1273 1.419 . S
C1272 C1270 1.415 . S
C1272 C1277 1.425 . S
C1272 C1279 1.409 . S
C1273 H1265 0.930 . S
C1273 C1271 1.419 . S
C1273 C1274 1.362 . S
C1274 H1266 0.930 . S
C1274 C1273 1.362 . S
C1274 C1277 1.409 . S
C1275 H1267 0.930 . S
C1275 C1276 1.355 . S
C1275 C1277 1.415 . S
C1276 C1275 1.355 . S
C1276 C1278 1.419 . S
C1277 C1272 1.425 . S
C1277 C1274 1.409 . S
C1277 C1275 1.415 . S
C1278 H1268 0.930 . S
C1278 C1276 1.419 . S
C1278 C1279 1.362 . S
C1279 H1269 0.930 . S
C1279 C1272 1.409 . S
C1279 C1278 1.362 . S
H1280 C1286 0.930 . S
H1281 C1289 0.930 . S
H1282 C1290 0.930 . S
H1283 C1291 0.930 . S
H1284 C1294 0.930 . S
H1285 C1295 0.930 . S
C1286 H1280 0.930 . S
C1286 C1287 1.355 . S
C1286 C1288 1.415 . S
C1287 C1286 1.355 . S
C1287 C1289 1.419 . S
C1288 C1286 1.415 . S
C1288 C1293 1.425 . S
C1288 C1295 1.409 . S
C1289 H1281 0.930 . S
C1289 C1287 1.419 . S
C1289 C1290 1.362 . S
C1290 H1282 0.930 . S
C1290 C1289 1.362 . S
C1290 C1293 1.409 . S
C1291 H1283 0.930 . S
C1291 C1292 1.355 . S
C1291 C1293 1.415 . S
C1292 C1291 1.355 . S
C1292 C1294 1.419 . S
C1293 C1288 1.425 . S
C1293 C1290 1.409 . S
C1293 C1291 1.415 . S
C1294 H1284 0.930 . S
C1294 C1292 1.419 . S
C1294 C1295 1.362 . S
C1295 H1285 0.930 . S
C1295 C1288 1.409 . S
C1295 C1294 1.362 . S
H1296 C1302 0.930 . S
H1297 C1305 0.930 . S
H1298 C1306 0.930 . S
H1299 C1307 0.930 . S
H1300 C1310 0.930 . S
H1301 C1311 0.930 . S
C1302 H1296 0.930 . S
C1302 C1303 1.355 . S
C1302 C1304 1.415 . S
C1303 C1302 1.355 . S
C1303 C1305 1.419 . S
C1304 C1302 1.415 . S
C1304 C1309 1.425 1_655 S
C1304 C1311 1.409 1_655 S
C1305 H1297 0.930 . S
C1305 C1303 1.419 . S
C1305 C1306 1.362 . S
C1306 H1298 0.930 . S
C1306 C1305 1.362 . S
C1306 C1309 1.409 1_655 S
C1307 H1299 0.930 . S
C1307 C1308 1.355 . S
C1307 C1309 1.415 . S
C1308 C1307 1.355 . S
C1308 C1310 1.419 . S
C1309 C1304 1.425 1_455 S
C1309 C1306 1.409 1_455 S
C1309 C1307 1.415 . S
C1310 H1300 0.930 . S
C1310 C1308 1.419 . S
C1310 C1311 1.362 . S
C1311 H1301 0.930 . S
C1311 C1304 1.409 1_455 S
C1311 C1310 1.362 . S
H1312 C1318 0.930 . S
H1313 C1321 0.930 . S
H1314 C1322 0.930 . S
H1315 C1323 0.930 . S
H1316 C1326 0.930 . S
H1317 C1327 0.930 . S
C1318 H1312 0.930 . S
C1318 C1319 1.355 . S
C1318 C1320 1.415 . S
C1319 C1318 1.355 . S
C1319 C1321 1.419 . S
C1320 C1318 1.415 . S
C1320 C1325 1.425 1_565 S
C1320 C1327 1.409 1_565 S
C1321 H1313 0.930 . S
C1321 C1319 1.419 . S
C1321 C1322 1.362 . S
C1322 H1314 0.930 . S
C1322 C1321 1.362 . S
C1322 C1325 1.409 1_565 S
C1323 H1315 0.930 . S
C1323 C1324 1.355 . S
C1323 C1325 1.415 . S
C1324 C1323 1.355 . S
C1324 C1326 1.419 . S
C1325 C1320 1.425 1_545 S
C1325 C1322 1.409 1_545 S
C1325 C1323 1.415 . S
C1326 H1316 0.930 . S
C1326 C1324 1.419 . S
C1326 C1327 1.362 . S
C1327 H1317 0.930 . S
C1327 C1320 1.409 1_545 S
C1327 C1326 1.362 . S
H1328 C1334 0.930 . S
H1329 C1337 0.930 . S
H1330 C1338 0.930 . S
H1331 C1339 0.930 . S
H1332 C1342 0.930 . S
H1333 C1343 0.930 . S
C1334 H1328 0.930 . S
C1334 C1335 1.355 . S
C1334 C1336 1.415 . S
C1335 C1334 1.355 . S
C1335 C1337 1.419 . S
C1336 C1334 1.415 . S
C1336 C1341 1.425 . S
C1336 C1343 1.409 . S
C1337 H1329 0.930 . S
C1337 C1335 1.419 . S
C1337 C1338 1.362 . S
C1338 H1330 0.930 . S
C1338 C1337 1.362 . S
C1338 C1341 1.409 . S
C1339 H1331 0.930 . S
C1339 C1340 1.355 . S
C1339 C1341 1.415 . S
C1340 C1339 1.355 . S
C1340 C1342 1.419 . S
C1341 C1336 1.425 . S
C1341 C1338 1.409 . S
C1341 C1339 1.415 . S
C1342 H1332 0.930 . S
C1342 C1340 1.419 . S
C1342 C1343 1.362 . S
C1343 H1333 0.930 . S
C1343 C1336 1.409 . S
C1343 C1342 1.362 . S
H1344 C1350 0.930 . S
H1345 C1353 0.930 . S
H1346 C1354 0.930 . S
H1347 C1355 0.930 . S
H1348 C1358 0.930 . S
H1349 C1359 0.930 . S
C1350 H1344 0.930 . S
C1350 C1351 1.355 . S
C1350 C1352 1.415 . S
C1351 C1350 1.355 . S
C1351 C1353 1.419 . S
C1352 C1350 1.415 . S
C1352 C1357 1.425 1_455 S
C1352 C1359 1.409 1_455 S
C1353 H1345 0.930 . S
C1353 C1351 1.419 . S
C1353 C1354 1.362 . S
C1354 H1346 0.930 . S
C1354 C1353 1.362 . S
C1354 C1357 1.409 1_455 S
C1355 H1347 0.930 . S
C1355 C1356 1.355 . S
C1355 C1357 1.415 . S
C1356 C1355 1.355 . S
C1356 C1358 1.419 . S
C1357 C1352 1.425 1_655 S
C1357 C1354 1.409 1_655 S
C1357 C1355 1.415 . S
C1358 H1348 0.930 . S
C1358 C1356 1.419 . S
C1358 C1359 1.362 . S
C1359 H1349 0.930 . S
C1359 C1352 1.409 1_655 S
C1359 C1358 1.362 . S
H1360 C1366 0.930 . S
H1361 C1369 0.930 . S
H1362 C1370 0.930 . S
H1363 C1371 0.930 . S
H1364 C1374 0.930 . S
H1365 C1375 0.930 . S
C1366 H1360 0.930 . S
C1366 C1367 1.355 . S
C1366 C1368 1.415 . S
C1367 C1366 1.355 . S
C1367 C1369 1.419 . S
C1368 C1366 1.415 . S
C1368 C1373 1.425 1_545 S
C1368 C1375 1.409 1_545 S
C1369 H1361 0.930 . S
C1369 C1367 1.419 . S
C1369 C1370 1.362 . S
C1370 H1362 0.930 . S
C1370 C1369 1.362 . S
C1370 C1373 1.409 1_545 S
C1371 H1363 0.930 . S
C1371 C1372 1.355 . S
C1371 C1373 1.415 . S
C1372 C1371 1.355 . S
C1372 C1374 1.419 . S
C1373 C1368 1.425 1_565 S
C1373 C1370 1.409 1_565 S
C1373 C1371 1.415 . S
C1374 H1364 0.930 . S
C1374 C1372 1.419 . S
C1374 C1375 1.362 . S
C1375 H1365 0.930 . S
C1375 C1368 1.409 1_565 S
C1375 C1374 1.362 . S
H1376 C1382 0.930 . S
H1377 C1385 0.930 . S
H1378 C1386 0.930 . S
H1379 C1387 0.930 . S
H1380 C1390 0.930 . S
H1381 C1391 0.930 . S
C1382 H1376 0.930 . S
C1382 C1383 1.355 . S
C1382 C1384 1.415 . S
C1383 C1382 1.355 . S
C1383 C1385 1.419 . S
C1384 C1382 1.415 . S
C1384 C1389 1.425 . S
C1384 C1391 1.409 . S
C1385 H1377 0.930 . S
C1385 C1383 1.419 . S
C1385 C1386 1.362 . S
C1386 H1378 0.930 . S
C1386 C1385 1.362 . S
C1386 C1389 1.409 . S
C1387 H1379 0.930 . S
C1387 C1388 1.355 . S
C1387 C1389 1.415 . S
C1388 C1387 1.355 . S
C1388 C1390 1.419 . S
C1389 C1384 1.425 . S
C1389 C1386 1.409 . S
C1389 C1387 1.415 . S
C1390 H1380 0.930 . S
C1390 C1388 1.419 . S
C1390 C1391 1.362 . S
C1391 H1381 0.930 . S
C1391 C1384 1.409 . S
C1391 C1390 1.362 . S
H1392 C1398 0.930 . S
H1393 C1401 0.930 . S
H1394 C1402 0.930 . S
H1395 C1403 0.930 . S
H1396 C1406 0.930 . S
H1397 C1407 0.930 . S
C1398 H1392 0.930 . S
C1398 C1399 1.355 . S
C1398 C1400 1.415 . S
C1399 C1398 1.355 . S
C1399 C1401 1.419 . S
C1400 C1398 1.415 . S
C1400 C1405 1.425 1_565 S
C1400 C1407 1.409 1_565 S
C1401 H1393 0.930 . S
C1401 C1399 1.419 . S
C1401 C1402 1.362 . S
C1402 H1394 0.930 . S
C1402 C1401 1.362 . S
C1402 C1405 1.409 1_565 S
C1403 H1395 0.930 . S
C1403 C1404 1.355 . S
C1403 C1405 1.415 . S
C1404 C1403 1.355 . S
C1404 C1406 1.419 . S
C1405 C1400 1.425 1_545 S
C1405 C1402 1.409 1_545 S
C1405 C1403 1.415 . S
C1406 H1396 0.930 . S
C1406 C1404 1.419 . S
C1406 C1407 1.362 . S
C1407 H1397 0.930 . S
C1407 C1400 1.409 1_545 S
C1407 C1406 1.362 . S
H1408 C1414 0.930 . S
H1409 C1417 0.930 . S
H1410 C1418 0.930 . S
H1411 C1419 0.930 . S
H1412 C1422 0.930 . S
H1413 C1423 0.930 . S
C1414 H1408 0.930 . S
C1414 C1415 1.355 . S
C1414 C1416 1.415 . S
C1415 C1414 1.355 . S
C1415 C1417 1.419 . S
C1416 C1414 1.415 . S
C1416 C1421 1.425 . S
C1416 C1423 1.409 . S
C1417 H1409 0.930 . S
C1417 C1415 1.419 . S
C1417 C1418 1.362 . S
C1418 H1410 0.930 . S
C1418 C1417 1.362 . S
C1418 C1421 1.409 . S
C1419 H1411 0.930 . S
C1419 C1420 1.355 . S
C1419 C1421 1.415 . S
C1420 C1419 1.355 . S
C1420 C1422 1.419 . S
C1421 C1416 1.425 . S
C1421 C1418 1.409 . S
C1421 C1419 1.415 . S
C1422 H1412 0.930 . S
C1422 C1420 1.419 . S
C1422 C1423 1.362 . S
C1423 H1413 0.930 . S
C1423 C1416 1.409 . S
C1423 C1422 1.362 . S
H1424 C1430 0.930 . S
H1425 C1433 0.930 . S
H1426 C1434 0.930 . S
H1427 C1435 0.930 . S
H1428 C1438 0.930 . S
H1429 C1439 0.930 . S
C1430 H1424 0.930 . S
C1430 C1431 1.355 . S
C1430 C1432 1.415 . S
C1431 C1430 1.355 . S
C1431 C1433 1.419 . S
C1432 C1430 1.415 . S
C1432 C1437 1.425 1_655 S
C1432 C1439 1.409 1_655 S
C1433 H1425 0.930 . S
C1433 C1431 1.419 . S
C1433 C1434 1.362 . S
C1434 H1426 0.930 . S
C1434 C1433 1.362 . S
C1434 C1437 1.409 1_655 S
C1435 H1427 0.930 . S
C1435 C1436 1.355 . S
C1435 C1437 1.415 . S
C1436 C1435 1.355 . S
C1436 C1438 1.419 . S
C1437 C1432 1.425 1_455 S
C1437 C1434 1.409 1_455 S
C1437 C1435 1.415 . S
C1438 H1428 0.930 . S
C1438 C1436 1.419 . S
C1438 C1439 1.362 . S
C1439 H1429 0.930 . S
C1439 C1432 1.409 1_455 S
C1439 C1438 1.362 . S
H1440 C1446 0.930 . S
H1441 C1449 0.930 . S
H1442 C1450 0.930 . S
H1443 C1451 0.930 . S
H1444 C1454 0.930 . S
H1445 C1455 0.930 . S
C1446 H1440 0.930 . S
C1446 C1447 1.355 . S
C1446 C1448 1.415 . S
C1447 C1446 1.355 . S
C1447 C1449 1.419 . S
C1448 C1446 1.415 . S
C1448 C1453 1.425 1_565 S
C1448 C1455 1.409 1_565 S
C1449 H1441 0.930 . S
C1449 C1447 1.419 . S
C1449 C1450 1.362 . S
C1450 H1442 0.930 . S
C1450 C1449 1.362 . S
C1450 C1453 1.409 1_565 S
C1451 H1443 0.930 . S
C1451 C1452 1.355 . S
C1451 C1453 1.415 . S
C1452 C1451 1.355 . S
C1452 C1454 1.419 . S
C1453 C1448 1.425 1_545 S
C1453 C1450 1.409 1_545 S
C1453 C1451 1.415 . S
C1454 H1444 0.930 . S
C1454 C1452 1.419 . S
C1454 C1455 1.362 . S
C1455 H1445 0.930 . S
C1455 C1448 1.409 1_545 S
C1455 C1454 1.362 . S
H1456 C1462 0.930 . S
H1457 C1465 0.930 . S
H1458 C1466 0.930 . S
H1459 C1467 0.930 . S
H1460 C1470 0.930 . S
H1461 C1471 0.930 . S
C1462 H1456 0.930 . S
C1462 C1463 1.355 . S
C1462 C1464 1.415 . S
C1463 C1462 1.355 . S
C1463 C1465 1.419 . S
C1464 C1462 1.415 . S
C1464 C1469 1.425 . S
C1464 C1471 1.409 . S
C1465 H1457 0.930 . S
C1465 C1463 1.419 . S
C1465 C1466 1.362 . S
C1466 H1458 0.930 . S
C1466 C1465 1.362 . S
C1466 C1469 1.409 . S
C1467 H1459 0.930 . S
C1467 C1468 1.355 . S
C1467 C1469 1.415 . S
C1468 C1467 1.355 . S
C1468 C1470 1.419 . S
C1469 C1464 1.425 . S
C1469 C1466 1.409 . S
C1469 C1467 1.415 . S
C1470 H1460 0.930 . S
C1470 C1468 1.419 . S
C1470 C1471 1.362 . S
C1471 H1461 0.930 . S
C1471 C1464 1.409 . S
C1471 C1470 1.362 . S
H1472 C1478 0.930 . S
H1473 C1481 0.930 . S
H1474 C1482 0.930 . S
H1475 C1483 0.930 . S
H1476 C1486 0.930 . S
H1477 C1487 0.930 . S
C1478 H1472 0.930 . S
C1478 C1479 1.355 . S
C1478 C1480 1.415 . S
C1479 C1478 1.355 . S
C1479 C1481 1.419 . S
C1480 C1478 1.415 . S
C1480 C1485 1.425 1_655 S
C1480 C1487 1.409 1_655 S
C1481 H1473 0.930 . S
C1481 C1479 1.419 . S
C1481 C1482 1.362 . S
C1482 H1474 0.930 . S
C1482 C1481 1.362 . S
C1482 C1485 1.409 1_655 S
C1483 H1475 0.930 . S
C1483 C1484 1.355 . S
C1483 C1485 1.415 . S
C1484 C1483 1.355 . S
C1484 C1486 1.419 . S
C1485 C1480 1.425 1_455 S
C1485 C1482 1.409 1_455 S
C1485 C1483 1.415 . S
C1486 H1476 0.930 . S
C1486 C1484 1.419 . S
C1486 C1487 1.362 . S
C1487 H1477 0.930 . S
C1487 C1480 1.409 1_455 S
C1487 C1486 1.362 . S
H1488 C1494 0.930 . S
H1489 C1497 0.930 . S
H1490 C1498 0.930 . S
H1491 C1499 0.930 . S
H1492 C1502 0.930 . S
H1493 C1503 0.930 . S
C1494 H1488 0.930 . S
C1494 C1495 1.355 . S
C1494 C1496 1.415 1_556 S
C1495 C1494 1.355 . S
C1495 C1497 1.419 . S
C1496 C1494 1.415 1_554 S
C1496 C1501 1.425 1_554 S
C1496 C1503 1.409 . S
C1497 H1489 0.930 . S
C1497 C1495 1.419 . S
C1497 C1498 1.362 . S
C1498 H1490 0.930 . S
C1498 C1497 1.362 . S
C1498 C1501 1.409 . S
C1499 H1491 0.930 . S
C1499 C1500 1.355 . S
C1499 C1501 1.415 1_554 S
C1500 C1499 1.355 . S
C1500 C1502 1.419 . S
C1501 C1496 1.425 1_556 S
C1501 C1498 1.409 . S
C1501 C1499 1.415 1_556 S
C1502 H1492 0.930 . S
C1502 C1500 1.419 . S
C1502 C1503 1.362 . S
C1503 H1493 0.930 . S
C1503 C1496 1.409 . S
C1503 C1502 1.362 . S
H1504 C1510 0.930 . S
H1505 C1513 0.930 . S
H1506 C1514 0.930 . S
H1507 C1515 0.930 . S
H1508 C1518 0.930 . S
H1509 C1519 0.930 . S
C1510 H1504 0.930 . S
C1510 C1511 1.355 . S
C1510 C1512 1.415 . S
C1511 C1510 1.355 . S
C1511 C1513 1.419 . S
C1512 C1510 1.415 . S
C1512 C1517 1.425 . S
C1512 C1519 1.409 . S
C1513 H1505 0.930 . S
C1513 C1511 1.419 . S
C1513 C1514 1.362 . S
C1514 H1506 0.930 . S
C1514 C1513 1.362 . S
C1514 C1517 1.409 . S
C1515 H1507 0.930 . S
C1515 C1516 1.355 . S
C1515 C1517 1.415 . S
C1516 C1515 1.355 . S
C1516 C1518 1.419 . S
C1517 C1512 1.425 . S
C1517 C1514 1.409 . S
C1517 C1515 1.415 . S
C1518 H1508 0.930 . S
C1518 C1516 1.419 . S
C1518 C1519 1.362 . S
C1519 H1509 0.930 . S
C1519 C1512 1.409 . S
C1519 C1518 1.362 . S
H1520 C1526 0.930 . S
H1521 C1529 0.930 . S
H1522 C1530 0.930 . S
H1523 C1531 0.930 . S
H1524 C1534 0.930 . S
H1525 C1535 0.930 . S
C1526 H1520 0.930 . S
C1526 C1527 1.355 . S
C1526 C1528 1.415 . S
C1527 C1526 1.355 . S
C1527 C1529 1.419 . S
C1528 C1526 1.415 . S
C1528 C1533 1.425 1_554 S
C1528 C1535 1.409 . S
C1529 H1521 0.930 . S
C1529 C1527 1.419 . S
C1529 C1530 1.362 1_554 S
C1530 H1522 0.930 . S
C1530 C1529 1.362 1_556 S
C1530 C1533 1.409 . S
C1531 H1523 0.930 . S
C1531 C1532 1.355 . S
C1531 C1533 1.415 . S
C1532 C1531 1.355 . S
C1532 C1534 1.419 . S
C1533 C1528 1.425 1_556 S
C1533 C1530 1.409 . S
C1533 C1531 1.415 . S
C1534 H1524 0.930 . S
C1534 C1532 1.419 . S
C1534 C1535 1.362 1_556 S
C1535 H1525 0.930 . S
C1535 C1528 1.409 . S
C1535 C1534 1.362 1_554 S
H1536 C1542 0.930 . S
H1537 C1545 0.930 . S
H1538 C1546 0.930 . S
H1539 C1547 0.930 . S
H1540 C1550 0.930 . S
H1541 C1551 0.930 . S
C1542 H1536 0.930 . S
C1542 C1543 1.355 . S
C1542 C1544 1.415 . S
C1543 C1542 1.355 . S
C1543 C1545 1.419 . S
C1544 C1542 1.415 . S
C1544 C1549 1.425 . S
C1544 C1551 1.409 . S
C1545 H1537 0.930 . S
C1545 C1543 1.419 . S
C1545 C1546 1.362 . S
C1546 H1538 0.930 . S
C1546 C1545 1.362 . S
C1546 C1549 1.409 . S
C1547 H1539 0.930 . S
C1547 C1548 1.355 . S
C1547 C1549 1.415 . S
C1548 C1547 1.355 . S
C1548 C1550 1.419 . S
C1549 C1544 1.425 . S
C1549 C1546 1.409 . S
C1549 C1547 1.415 . S
C1550 H1540 0.930 . S
C1550 C1548 1.419 . S
C1550 C1551 1.362 . S
C1551 H1541 0.930 . S
C1551 C1544 1.409 . S
C1551 C1550 1.362 . S
H1552 C1558 0.930 . S
H1553 C1561 0.930 . S
H1554 C1562 0.930 . S
H1555 C1563 0.930 . S
H1556 C1566 0.930 . S
H1557 C1567 0.930 . S
C1558 H1552 0.930 . S
C1558 C1559 1.355 . S
C1558 C1560 1.415 . S
C1559 C1558 1.355 . S
C1559 C1561 1.419 . S
C1560 C1558 1.415 . S
C1560 C1565 1.425 1_556 S
C1560 C1567 1.409 1_556 S
C1561 H1553 0.930 . S
C1561 C1559 1.419 . S
C1561 C1562 1.362 . S
C1562 H1554 0.930 . S
C1562 C1561 1.362 . S
C1562 C1565 1.409 1_556 S
C1563 H1555 0.930 . S
C1563 C1564 1.355 . S
C1563 C1565 1.415 . S
C1564 C1563 1.355 . S
C1564 C1566 1.419 . S
C1565 C1560 1.425 1_554 S
C1565 C1562 1.409 1_554 S
C1565 C1563 1.415 . S
C1566 H1556 0.930 . S
C1566 C1564 1.419 . S
C1566 C1567 1.362 . S
C1567 H1557 0.930 . S
C1567 C1560 1.409 1_554 S
C1567 C1566 1.362 . S
H1568 C1574 0.930 . S
H1569 C1577 0.930 . S
H1570 C1578 0.930 . S
H1571 C1579 0.930 . S
H1572 C1582 0.930 . S
H1573 C1583 0.930 . S
C1574 H1568 0.930 . S
C1574 C1575 1.355 . S
C1574 C1576 1.415 . S
C1575 C1574 1.355 . S
C1575 C1577 1.419 . S
C1576 C1574 1.415 . S
C1576 C1581 1.425 . S
C1576 C1583 1.409 . S
C1577 H1569 0.930 . S
C1577 C1575 1.419 . S
C1577 C1578 1.362 . S
C1578 H1570 0.930 . S
C1578 C1577 1.362 . S
C1578 C1581 1.409 . S
C1579 H1571 0.930 . S
C1579 C1580 1.355 . S
C1579 C1581 1.415 . S
C1580 C1579 1.355 . S
C1580 C1582 1.419 . S
C1581 C1576 1.425 . S
C1581 C1578 1.409 . S
C1581 C1579 1.415 . S
C1582 H1572 0.930 . S
C1582 C1580 1.419 . S
C1582 C1583 1.362 . S
C1583 H1573 0.930 . S
C1583 C1576 1.409 . S
C1583 C1582 1.362 . S
H1584 C1590 0.930 . S
H1585 C1593 0.930 . S
H1586 C1594 0.932 1_556 S
H1587 C1595 0.930 . S
H1588 C1598 0.930 . S
H1589 C1599 0.932 1_554 S
C1590 H1584 0.930 . S
C1590 C1591 1.355 . S
C1590 C1592 1.415 . S
C1591 C1590 1.355 . S
C1591 C1593 1.419 . S
C1592 C1590 1.415 . S
C1592 C1597 1.425 1_554 S
C1592 C1599 1.410 1_554 S
C1593 H1585 0.930 . S
C1593 C1591 1.419 . S
C1593 C1594 1.360 . S
C1594 H1586 0.932 1_554 S
C1594 C1593 1.360 . S
C1594 C1597 1.410 1_554 S
C1595 H1587 0.930 . S
C1595 C1596 1.355 . S
C1595 C1597 1.415 . S
C1596 C1595 1.355 . S
C1596 C1598 1.419 . S
C1597 C1592 1.425 1_556 S
C1597 C1594 1.410 1_556 S
C1597 C1595 1.415 . S
C1598 H1588 0.930 . S
C1598 C1596 1.419 . S
C1598 C1599 1.360 . S
C1599 H1589 0.932 1_556 S
C1599 C1592 1.410 1_556 S
C1599 C1598 1.360 . S
H1600 C1606 0.930 . S
H1601 C1609 0.930 . S
H1602 C1610 0.930 . S
H1603 C1611 0.930 . S
H1604 C1614 0.930 . S
H1605 C1615 0.930 . S
C1606 H1600 0.930 . S
C1606 C1607 1.355 . S
C1606 C1608 1.415 . S
C1607 C1606 1.355 . S
C1607 C1609 1.419 . S
C1608 C1606 1.415 . S
C1608 C1613 1.425 . S
C1608 C1615 1.409 . S
C1609 H1601 0.930 . S
C1609 C1607 1.419 . S
C1609 C1610 1.362 . S
C1610 H1602 0.930 . S
C1610 C1609 1.362 . S
C1610 C1613 1.409 . S
C1611 H1603 0.930 . S
C1611 C1612 1.355 . S
C1611 C1613 1.415 . S
C1612 C1611 1.355 . S
C1612 C1614 1.419 . S
C1613 C1608 1.425 . S
C1613 C1610 1.409 . S
C1613 C1611 1.415 . S
C1614 H1604 0.930 . S
C1614 C1612 1.419 . S
C1614 C1615 1.362 . S
C1615 H1605 0.930 . S
C1615 C1608 1.409 . S
C1615 C1614 1.362 . S
H1616 C1622 0.930 . S
H1617 C1625 0.930 . S
H1618 C1626 0.930 . S
H1619 C1627 0.930 . S
H1620 C1630 0.930 . S
H1621 C1631 0.930 . S
C1622 H1616 0.930 . S
C1622 C1623 1.355 . S
C1622 C1624 1.415 . S
C1623 C1622 1.355 . S
C1623 C1625 1.419 . S
C1624 C1622 1.415 . S
C1624 C1629 1.425 1_554 S
C1624 C1631 1.409 . S
C1625 H1617 0.930 . S
C1625 C1623 1.419 . S
C1625 C1626 1.362 1_554 S
C1626 H1618 0.930 . S
C1626 C1625 1.362 1_556 S
C1626 C1629 1.409 . S
C1627 H1619 0.930 . S
C1627 C1628 1.355 . S
C1627 C1629 1.415 . S
C1628 C1627 1.355 . S
C1628 C1630 1.419 . S
C1629 C1624 1.425 1_556 S
C1629 C1626 1.409 . S
C1629 C1627 1.415 . S
C1630 H1620 0.930 . S
C1630 C1628 1.419 . S
C1630 C1631 1.362 1_556 S
C1631 H1621 0.930 . S
C1631 C1624 1.409 . S
C1631 C1630 1.362 1_554 S
H1632 C1638 0.930 . S
H1633 C1641 0.930 . S
H1634 C1642 0.930 . S
H1635 C1643 0.930 . S
H1636 C1646 0.930 . S
H1637 C1647 0.930 . S
C1638 H1632 0.930 . S
C1638 C1639 1.355 . S
C1638 C1640 1.415 . S
C1639 C1638 1.355 . S
C1639 C1641 1.419 . S
C1640 C1638 1.415 . S
C1640 C1645 1.425 . S
C1640 C1647 1.409 . S
C1641 H1633 0.930 . S
C1641 C1639 1.419 . S
C1641 C1642 1.362 . S
C1642 H1634 0.930 . S
C1642 C1641 1.362 . S
C1642 C1645 1.409 . S
C1643 H1635 0.930 . S
C1643 C1644 1.355 . S
C1643 C1645 1.415 . S
C1644 C1643 1.355 . S
C1644 C1646 1.419 . S
C1645 C1640 1.425 . S
C1645 C1642 1.409 . S
C1645 C1643 1.415 . S
C1646 H1636 0.930 . S
C1646 C1644 1.419 . S
C1646 C1647 1.362 . S
C1647 H1637 0.930 . S
C1647 C1640 1.409 . S
C1647 C1646 1.362 . S
H1648 C1654 0.930 . S
H1649 C1657 0.930 . S
H1650 C1658 0.930 . S
H1651 C1659 0.930 . S
H1652 C1662 0.930 . S
H1653 C1663 0.930 . S
C1654 H1648 0.930 . S
C1654 C1655 1.355 . S
C1654 C1656 1.415 . S
C1655 C1654 1.355 . S
C1655 C1657 1.419 . S
C1656 C1654 1.415 . S
C1656 C1661 1.425 1_554 S
C1656 C1663 1.409 . S
C1657 H1649 0.930 . S
C1657 C1655 1.419 . S
C1657 C1658 1.362 1_554 S
C1658 H1650 0.930 . S
C1658 C1657 1.362 1_556 S
C1658 C1661 1.409 . S
C1659 H1651 0.930 . S
C1659 C1660 1.355 . S
C1659 C1661 1.415 . S
C1660 C1659 1.355 . S
C1660 C1662 1.419 . S
C1661 C1656 1.425 1_556 S
C1661 C1658 1.409 . S
C1661 C1659 1.415 . S
C1662 H1652 0.930 . S
C1662 C1660 1.419 . S
C1662 C1663 1.362 1_556 S
C1663 H1653 0.930 . S
C1663 C1656 1.409 . S
C1663 C1662 1.362 1_554 S
H1664 C1670 0.930 . S
H1665 C1673 0.930 . S
H1666 C1674 0.930 . S
H1667 C1675 0.930 . S
H1668 C1678 0.930 . S
H1669 C1679 0.930 . S
C1670 H1664 0.930 . S
C1670 C1671 1.355 . S
C1670 C1672 1.415 . S
C1671 C1670 1.355 . S
C1671 C1673 1.419 . S
C1672 C1670 1.415 . S
C1672 C1677 1.425 . S
C1672 C1679 1.409 . S
C1673 H1665 0.930 . S
C1673 C1671 1.419 . S
C1673 C1674 1.362 . S
C1674 H1666 0.930 . S
C1674 C1673 1.362 . S
C1674 C1677 1.409 . S
C1675 H1667 0.930 . S
C1675 C1676 1.355 . S
C1675 C1677 1.415 . S
C1676 C1675 1.355 . S
C1676 C1678 1.419 . S
C1677 C1672 1.425 . S
C1677 C1674 1.409 . S
C1677 C1675 1.415 . S
C1678 H1668 0.930 . S
C1678 C1676 1.419 . S
C1678 C1679 1.362 . S
C1679 H1669 0.930 . S
C1679 C1672 1.409 . S
C1679 C1678 1.362 . S
C535 C194 1.041 . S
C540 C10 1.076 . S
C551 C30 1.065 . S
C556 C206 1.058 . S
C567 C230 1.046 . S
C572 C52 1.071 . S
C583 C74 1.075 . S
C588 C260 1.042 . S
C599 C142 1.065 . S
C604 C106 1.058 . S
C615 C164 1.095 . S
C620 C118 1.022 . S
C631 C272 1.092 . S
C636 C458 1.029 . S
C647 C472 1.084 . S
C652 C296 1.038 . S
C663 C494 1.088 . S
C668 C326 1.034 . S
C679 C340 1.099 . S
C684 C516 1.020 . S
C695 C362 1.062 . S
C700 C404 1.061 . S
C711 C428 1.069 . S
C716 C392 1.054 . S
C727 C21 1.197 . S
C732 C65 1.257 . S
C743 C87 1.243 . S
C748 C29 1.147 . S
C759 C51 1.203 . S
C764 C95 1.186 . S
C775 C73 1.214 . S
C780 C131 1.251 . S
C791 C15 1.210 . S
C796 C103 1.244 . S
C807 C43 1.234 . S
C812 C117 1.144 . S
C823 C235 1.202 . S
C828 C153 1.163 . S
C839 C175 1.144 . S
C844 C249 1.235 . S
C855 C191 1.235 . S
C860 C147 1.235 . S
C871 C169 1.207 . S
C876 C205 1.157 . S
C887 C183 1.245 . S
C892 C241 1.148 . S
C903 C219 1.224 . S
C908 C257 1.241 . S
C919 C315 1.192 . S
C924 C271 1.180 . S
C935 C307 1.242 . S
C940 C345 1.203 . S
C951 C323 1.241 . S
C956 C367 1.225 . S
C967 C351 1.144 . S
C972 C381 1.234 . S
C983 C285 1.249 . S
C988 C373 1.217 . S
C999 C301 1.187 . S
C1004 C389 1.224 . S
C1015 C403 1.177 . S
C1020 C499 1.258 . S
C1031 C439 1.144 . S
C1036 C521 1.231 . S
C1047 C455 1.144 . S
C1052 C417 1.229 . S
C1063 C483 1.148 . S
C1068 C433 1.245 . S
C1079 C447 1.198 . S
C1084 C505 1.169 . S
C1095 C477 1.256 . S
C1100 C527 1.198 . S
C1111 C7 1.490 . S
C1116 C337 1.483 . S
C1127 C359 1.484 . S
C1132 C37 1.489 . S
C1143 C59 1.483 . S
C1148 C395 1.490 . S
C1159 C81 1.486 . S
C1164 C279 1.487 . S
C1175 C293 1.489 . S
C1180 C109 1.484 . S
C1191 C125 1.483 . S
C1196 C329 1.489 . S
C1207 C139 1.483 . S
C1212 C469 1.490 . S
C1223 C491 1.484 . S
C1228 C161 1.489 . S
C1239 C197 1.488 . S
C1244 C513 1.485 . S
C1255 C213 1.488 . S
C1260 C411 1.485 . S
C1271 C425 1.484 . S
C1276 C227 1.489 . S
C1287 C461 1.487 . S
C1292 C263 1.486 . S
C1303 C448 1.268 . S
C1308 C18 1.330 . S
C1319 C480 1.291 . S
C1324 C32 1.308 . S
C1335 C502 1.314 . S
C1340 C54 1.285 . S
C1351 C524 1.330 . S
C1356 C76 1.269 . S
C1367 C406 1.267 . S
C1372 C96 1.331 . S
C1383 C120 1.326 . S
C1388 C436 1.272 . S
C1399 C150 1.308 . S
C1404 C370 1.290 . S
C1415 C382 1.302 . S
C1420 C172 1.296 . S
C1431 C274 1.273 . S
C1436 C184 1.325 . S
C1447 C304 1.299 . S
C1452 C208 1.299 . S
C1463 C238 1.268 . S
C1468 C316 1.330 . S
C1479 C250 1.303 . S
C1484 C348 1.296 . S
C1495 C228 1.176 . S
C1500 C8 1.101 . S
C1511 C252 1.171 . S
C1516 C40 1.105 . S
C1527 C62 1.168 . S
C1532 C140 1.130 . S
C1543 C84 1.138 . S
C1548 C162 1.161 . S
C1559 C186 1.098 . S
C1564 C98 1.184 . S
C1575 C128 1.177 . S
C1580 C216 1.118 . S
C1591 C492 1.185 . S
C1596 C282 1.104 . S
C1607 C514 1.127 . S
C1612 C294 1.145 . S
C1623 C414 1.150 . S
C1628 C318 1.150 . S
C1639 C338 1.186 . S
C1644 C426 1.098 . S
C1655 C450 1.182 . S
C1660 C360 1.111 . S
C1671 C384 1.177 . S
C1676 C470 1.100 . S
