# Generated by pormake.
# Topology uos, (4)-cn, num edge types: 1
# Building blocks:
#     Node 0, Type 0, BuildingBlock: NAHDIM_clean_sbu_0, # of connection points: 4
#     Node 1, Type 0, BuildingBlock: NAHDIM_clean_sbu_0, # of connection points: 4
#     Node 2, Type 0, BuildingBlock: NAHDIM_clean_sbu_0, # of connection points: 4
#     Node 3, Type 0, BuildingBlock: NAHDIM_clean_sbu_0, # of connection points: 4
#     Node 4, Type 0, BuildingBlock: NAHDIM_clean_sbu_0, # of connection points: 4
#     Node 5, Type 0, BuildingBlock: NAHDIM_clean_sbu_0, # of connection points: 4
#     Node 6, Type 0, BuildingBlock: NAHDIM_clean_sbu_0, # of connection points: 4
#     Node 7, Type 0, BuildingBlock: NAHDIM_clean_sbu_0, # of connection points: 4
#     Node 8, Type 0, BuildingBlock: NAHDIM_clean_sbu_0, # of connection points: 4
#     Node 9, Type 0, BuildingBlock: NAHDIM_clean_sbu_0, # of connection points: 4
#     Node 10, Type 0, BuildingBlock: NAHDIM_clean_sbu_0, # of connection points: 4
#     Node 11, Type 0, BuildingBlock: NAHDIM_clean_sbu_0, # of connection points: 4
#     Node 12, Type 0, BuildingBlock: NAHDIM_clean_sbu_0, # of connection points: 4
#     Node 13, Type 0, BuildingBlock: NAHDIM_clean_sbu_0, # of connection points: 4
#     Node 14, Type 0, BuildingBlock: NAHDIM_clean_sbu_0, # of connection points: 4
#     Node 15, Type 0, BuildingBlock: NAHDIM_clean_sbu_0, # of connection points: 4
#     Node 16, Type 0, BuildingBlock: NAHDIM_clean_sbu_0, # of connection points: 4
#     Node 17, Type 0, BuildingBlock: NAHDIM_clean_sbu_0, # of connection points: 4
#     Node 18, Type 0, BuildingBlock: NAHDIM_clean_sbu_0, # of connection points: 4
#     Node 19, Type 0, BuildingBlock: NAHDIM_clean_sbu_0, # of connection points: 4
#     Node 20, Type 0, BuildingBlock: NAHDIM_clean_sbu_0, # of connection points: 4
#     Node 21, Type 0, BuildingBlock: NAHDIM_clean_sbu_0, # of connection points: 4
#     Node 22, Type 0, BuildingBlock: NAHDIM_clean_sbu_0, # of connection points: 4
#     Node 23, Type 0, BuildingBlock: NAHDIM_clean_sbu_0, # of connection points: 4
#     Node 24, Type 0, BuildingBlock: NAHDIM_clean_sbu_0, # of connection points: 4
#     Node 25, Type 0, BuildingBlock: NAHDIM_clean_sbu_0, # of connection points: 4
#     Node 26, Type 0, BuildingBlock: NAHDIM_clean_sbu_0, # of connection points: 4
#     Node 27, Type 0, BuildingBlock: NAHDIM_clean_sbu_0, # of connection points: 4
#     Node 28, Type 0, BuildingBlock: NAHDIM_clean_sbu_0, # of connection points: 4
#     Node 29, Type 0, BuildingBlock: NAHDIM_clean_sbu_0, # of connection points: 4
#     Node 30, Type 0, BuildingBlock: NAHDIM_clean_sbu_0, # of connection points: 4
#     Node 31, Type 0, BuildingBlock: NAHDIM_clean_sbu_0, # of connection points: 4
#     Edge 32, Type (0, 0), BuildingBlock: AJUNOK_clean_linker_0, # of connection points: 2
#     Edge 33, Type (0, 0), BuildingBlock: AJUNOK_clean_linker_0, # of connection points: 2
#     Edge 34, Type (0, 0), BuildingBlock: AJUNOK_clean_linker_0, # of connection points: 2
#     Edge 35, Type (0, 0), BuildingBlock: AJUNOK_clean_linker_0, # of connection points: 2
#     Edge 36, Type (0, 0), BuildingBlock: AJUNOK_clean_linker_0, # of connection points: 2
#     Edge 37, Type (0, 0), BuildingBlock: AJUNOK_clean_linker_0, # of connection points: 2
#     Edge 38, Type (0, 0), BuildingBlock: AJUNOK_clean_linker_0, # of connection points: 2
#     Edge 39, Type (0, 0), BuildingBlock: AJUNOK_clean_linker_0, # of connection points: 2
#     Edge 40, Type (0, 0), BuildingBlock: AJUNOK_clean_linker_0, # of connection points: 2
#     Edge 41, Type (0, 0), BuildingBlock: AJUNOK_clean_linker_0, # of connection points: 2
#     Edge 42, Type (0, 0), BuildingBlock: AJUNOK_clean_linker_0, # of connection points: 2
#     Edge 43, Type (0, 0), BuildingBlock: AJUNOK_clean_linker_0, # of connection points: 2
#     Edge 44, Type (0, 0), BuildingBlock: AJUNOK_clean_linker_0, # of connection points: 2
#     Edge 45, Type (0, 0), BuildingBlock: AJUNOK_clean_linker_0, # of connection points: 2
#     Edge 46, Type (0, 0), BuildingBlock: AJUNOK_clean_linker_0, # of connection points: 2
#     Edge 47, Type (0, 0), BuildingBlock: AJUNOK_clean_linker_0, # of connection points: 2
#     Edge 48, Type (0, 0), BuildingBlock: AJUNOK_clean_linker_0, # of connection points: 2
#     Edge 49, Type (0, 0), BuildingBlock: AJUNOK_clean_linker_0, # of connection points: 2
#     Edge 50, Type (0, 0), BuildingBlock: AJUNOK_clean_linker_0, # of connection points: 2
#     Edge 51, Type (0, 0), BuildingBlock: AJUNOK_clean_linker_0, # of connection points: 2
#     Edge 52, Type (0, 0), BuildingBlock: AJUNOK_clean_linker_0, # of connection points: 2
#     Edge 53, Type (0, 0), BuildingBlock: AJUNOK_clean_linker_0, # of connection points: 2
#     Edge 54, Type (0, 0), BuildingBlock: AJUNOK_clean_linker_0, # of connection points: 2
#     Edge 55, Type (0, 0), BuildingBlock: AJUNOK_clean_linker_0, # of connection points: 2
#     Edge 56, Type (0, 0), BuildingBlock: AJUNOK_clean_linker_0, # of connection points: 2
#     Edge 57, Type (0, 0), BuildingBlock: AJUNOK_clean_linker_0, # of connection points: 2
#     Edge 58, Type (0, 0), BuildingBlock: AJUNOK_clean_linker_0, # of connection points: 2
#     Edge 59, Type (0, 0), BuildingBlock: AJUNOK_clean_linker_0, # of connection points: 2
#     Edge 60, Type (0, 0), BuildingBlock: AJUNOK_clean_linker_0, # of connection points: 2
#     Edge 61, Type (0, 0), BuildingBlock: AJUNOK_clean_linker_0, # of connection points: 2
#     Edge 62, Type (0, 0), BuildingBlock: AJUNOK_clean_linker_0, # of connection points: 2
#     Edge 63, Type (0, 0), BuildingBlock: AJUNOK_clean_linker_0, # of connection points: 2
#     Edge 64, Type (0, 0), BuildingBlock: AJUNOK_clean_linker_0, # of connection points: 2
#     Edge 65, Type (0, 0), BuildingBlock: AJUNOK_clean_linker_0, # of connection points: 2
#     Edge 66, Type (0, 0), BuildingBlock: AJUNOK_clean_linker_0, # of connection points: 2
#     Edge 67, Type (0, 0), BuildingBlock: AJUNOK_clean_linker_0, # of connection points: 2
#     Edge 68, Type (0, 0), BuildingBlock: AJUNOK_clean_linker_0, # of connection points: 2
#     Edge 69, Type (0, 0), BuildingBlock: AJUNOK_clean_linker_0, # of connection points: 2
#     Edge 70, Type (0, 0), BuildingBlock: AJUNOK_clean_linker_0, # of connection points: 2
#     Edge 71, Type (0, 0), BuildingBlock: AJUNOK_clean_linker_0, # of connection points: 2
#     Edge 72, Type (0, 0), BuildingBlock: AJUNOK_clean_linker_0, # of connection points: 2
#     Edge 73, Type (0, 0), BuildingBlock: AJUNOK_clean_linker_0, # of connection points: 2
#     Edge 74, Type (0, 0), BuildingBlock: AJUNOK_clean_linker_0, # of connection points: 2
#     Edge 75, Type (0, 0), BuildingBlock: AJUNOK_clean_linker_0, # of connection points: 2
#     Edge 76, Type (0, 0), BuildingBlock: AJUNOK_clean_linker_0, # of connection points: 2
#     Edge 77, Type (0, 0), BuildingBlock: AJUNOK_clean_linker_0, # of connection points: 2
#     Edge 78, Type (0, 0), BuildingBlock: AJUNOK_clean_linker_0, # of connection points: 2
#     Edge 79, Type (0, 0), BuildingBlock: AJUNOK_clean_linker_0, # of connection points: 2
#     Edge 80, Type (0, 0), BuildingBlock: AJUNOK_clean_linker_0, # of connection points: 2
#     Edge 81, Type (0, 0), BuildingBlock: AJUNOK_clean_linker_0, # of connection points: 2
#     Edge 82, Type (0, 0), BuildingBlock: AJUNOK_clean_linker_0, # of connection points: 2
#     Edge 83, Type (0, 0), BuildingBlock: AJUNOK_clean_linker_0, # of connection points: 2
#     Edge 84, Type (0, 0), BuildingBlock: AJUNOK_clean_linker_0, # of connection points: 2
#     Edge 85, Type (0, 0), BuildingBlock: AJUNOK_clean_linker_0, # of connection points: 2
#     Edge 86, Type (0, 0), BuildingBlock: AJUNOK_clean_linker_0, # of connection points: 2
#     Edge 87, Type (0, 0), BuildingBlock: AJUNOK_clean_linker_0, # of connection points: 2
#     Edge 88, Type (0, 0), BuildingBlock: AJUNOK_clean_linker_0, # of connection points: 2
#     Edge 89, Type (0, 0), BuildingBlock: AJUNOK_clean_linker_0, # of connection points: 2
#     Edge 90, Type (0, 0), BuildingBlock: AJUNOK_clean_linker_0, # of connection points: 2
#     Edge 91, Type (0, 0), BuildingBlock: AJUNOK_clean_linker_0, # of connection points: 2
#     Edge 92, Type (0, 0), BuildingBlock: AJUNOK_clean_linker_0, # of connection points: 2
#     Edge 93, Type (0, 0), BuildingBlock: AJUNOK_clean_linker_0, # of connection points: 2
#     Edge 94, Type (0, 0), BuildingBlock: AJUNOK_clean_linker_0, # of connection points: 2
#     Edge 95, Type (0, 0), BuildingBlock: AJUNOK_clean_linker_0, # of connection points: 2
# Relax obj value: 0.049
# Max RMSD: 0.082
# Mean RMSD: 0.082
data_MOF--net-uos--node1-NAHDIM_clean_sbu_0--edge1-AJUNOK_clean_linker_0
_symmetry_space_group_name_H-M    P1
_symmetry_Int_Tables_number       1
_symmetry_cell_setting            triclinic
loop_
_symmetry_equiv_pos_as_xyz
'x, y, z'
_cell_length_a     62.61322
_cell_length_b     62.609229
_cell_length_c     17.648385
_cell_angle_alpha  89.979016
_cell_angle_beta   89.979019
_cell_angle_gamma 90.019147
loop_
_atom_site_label
_atom_site_type_symbol
_atom_site_fract_x
_atom_site_fract_y
_atom_site_fract_z
_atom_type_partial_charge
C0 C 0.15344 0.13452 0.00815 0.0
O1 O 0.15171 0.12203 0.06766 0.0
O2 O 0.16769 0.19656 0.11559 0.0
Zn3 Zn 0.1708 0.16465 0.1176 0.0
O4 O 0.15172 0.15277 0.19953 0.0
C5 C 0.20889 0.16398 0.20489 0.0
O6 O 0.19565 0.17265 0.25382 0.0
O7 O 0.16166 0.15295 0.01616 0.0
C8 C 0.15735 0.13677 0.23905 0.0
O9 O 0.17575 0.12751 0.22508 0.0
C10 C 0.14964 0.20562 0.12237 0.0
O11 O 0.1325 0.19372 0.1301 0.0
O12 O 0.2018 0.15843 0.1403 0.0
C13 C 0.10078 0.89216 0.24558 0.0
O14 O 0.08878 0.88021 0.28959 0.0
O15 O 0.05742 0.91355 0.35062 0.0
Zn16 Zn 0.08896 0.91914 0.36121 0.0
O17 O 0.10269 0.90046 0.43889 0.0
C18 C 0.07748 0.95771 0.43288 0.0
O19 O 0.06127 0.94544 0.45103 0.0
O20 O 0.10346 0.91168 0.26303 0.0
C21 C 0.0985 0.89991 0.50913 0.0
O22 O 0.08309 0.91195 0.53604 0.0
C23 C 0.0466 0.89852 0.37998 0.0
O24 O 0.05642 0.88344 0.41824 0.0
O25 O 0.09258 0.95002 0.39298 0.0
C26 C 0.3568 0.84842 0.49964 0.0
O27 O 0.36894 0.83558 0.53978 0.0
O28 O 0.33632 0.80486 0.60544 0.0
Zn29 Zn 0.33148 0.83651 0.61982 0.0
O30 O 0.35205 0.84904 0.69477 0.0
C31 C 0.29389 0.82633 0.70182 0.0
O32 O 0.30558 0.80928 0.7143 0.0
O33 O 0.33772 0.85169 0.52153 0.0
C34 C 0.35177 0.84558 0.76558 0.0
O35 O 0.33756 0.83233 0.79364 0.0
C36 C 0.35146 0.79411 0.63444 0.0
O37 O 0.36602 0.804 0.67495 0.0
O38 O 0.30135 0.84096 0.65922 0.0
C39 C 0.39773 0.10932 0.77488 0.0
O40 O 0.40821 0.12162 0.82228 0.0
O41 O 0.44315 0.08763 0.87547 0.0
Zn42 Zn 0.41167 0.08048 0.88502 0.0
O43 O 0.39725 0.0956 0.97132 0.0
C44 C 0.42394 0.04145 0.95012 0.0
O45 O 0.4388 0.05446 0.97507 0.0
O46 O 0.3966 0.08941 0.78874 0.0
C47 C 0.40534 0.09932 0.03596 0.0
O48 O 0.42517 0.09375 0.04988 0.0
C49 C 0.45303 0.1043 0.89716 0.0
O50 O 0.44227 0.11993 0.92878 0.0
O51 O 0.40939 0.0488 0.90706 0.0
C52 C 0.13964 0.85068 0.98513 0.0
O53 O 0.1277 0.83742 0.9459 0.0
O54 O 0.16071 0.80726 0.87697 0.0
Zn55 Zn 0.1662 0.83893 0.86677 0.0
O56 O 0.1469 0.85111 0.78716 0.0
C57 C 0.21091 0.82979 0.85135 0.0
O58 O 0.20561 0.81369 0.8953 0.0
O59 O 0.15872 0.85397 0.96359 0.0
C60 C 0.1532 0.85405 0.71959 0.0
O61 O 0.17278 0.84866 0.70097 0.0
C62 C 0.15966 0.7958 0.81768 0.0
O63 O 0.16162 0.80506 0.75127 0.0
O64 O 0.1968 0.84358 0.8349 0.0
C65 C 0.3964 0.88784 0.23628 0.0
O66 O 0.40856 0.87562 0.19385 0.0
O67 O 0.44185 0.9082 0.13994 0.0
Zn68 Zn 0.41058 0.91459 0.12297 0.0
O69 O 0.39821 0.89584 0.04217 0.0
C70 C 0.42392 0.9535 0.05584 0.0
O71 O 0.44058 0.94132 0.04281 0.0
O72 O 0.39441 0.90742 0.21844 0.0
C73 C 0.40255 0.89708 0.97206 0.0
O74 O 0.41647 0.91133 0.94876 0.0
C75 C 0.45248 0.89348 0.10776 0.0
O76 O 0.44261 0.88014 0.0623 0.0
O77 O 0.40793 0.94562 0.09066 0.0
C78 C 0.36175 0.14978 0.50698 0.0
O79 O 0.37407 0.16301 0.46911 0.0
O80 O 0.33907 0.19348 0.39735 0.0
Zn81 Zn 0.33499 0.16167 0.38656 0.0
O82 O 0.35448 0.15043 0.30556 0.0
C83 C 0.29858 0.16112 0.28985 0.0
O84 O 0.31307 0.16807 0.24196 0.0
O85 O 0.34284 0.14656 0.48351 0.0
C86 C 0.35022 0.13312 0.27133 0.0
O87 O 0.33253 0.12282 0.28783 0.0
C88 C 0.35485 0.20363 0.36965 0.0
O89 O 0.36982 0.193 0.33366 0.0
O90 O 0.30417 0.1568 0.35744 0.0
C91 C 0.11316 0.10814 0.72518 0.0
O92 O 0.10951 0.12201 0.67084 0.0
O93 O 0.06039 0.09022 0.62561 0.0
Zn94 Zn 0.09164 0.08245 0.61811 0.0
O95 O 0.10736 0.09783 0.5352 0.0
C96 C 0.07909 0.0449 0.54395 0.0
O97 O 0.06514 0.05872 0.51785 0.0
O98 O 0.10651 0.08908 0.71689 0.0
C99 C 0.1003 0.1035 0.47086 0.0
O100 O 0.08006 0.10052 0.45445 0.0
C101 C 0.05134 0.10793 0.61144 0.0
O102 O 0.06303 0.1244 0.59121 0.0
O103 O 0.09309 0.05115 0.59121 0.0
C104 C 0.86125 0.85097 0.99784 0.0
O105 O 0.87279 0.83704 0.9602 0.0
O106 O 0.83737 0.81041 0.88098 0.0
Zn107 Zn 0.83534 0.84254 0.87211 0.0
O108 O 0.85596 0.8538 0.79484 0.0
C109 C 0.7957 0.83727 0.79475 0.0
O110 O 0.80502 0.81913 0.77762 0.0
O111 O 0.84315 0.85636 0.97153 0.0
C112 C 0.85558 0.84798 0.72598 0.0
O113 O 0.84192 0.83326 0.70472 0.0
C114 C 0.85306 0.79893 0.86007 0.0
O115 O 0.87025 0.80813 0.83256 0.0
O116 O 0.80537 0.85029 0.83823 0.0
C117 C 0.90457 0.11519 0.74512 0.0
O118 O 0.9161 0.12777 0.70182 0.0
O119 O 0.94836 0.09174 0.63499 0.0
Zn120 Zn 0.9164 0.08751 0.62726 0.0
O121 O 0.90444 0.10658 0.54628 0.0
C122 C 0.91449 0.0504 0.53283 0.0
O123 O 0.92199 0.06424 0.48359 0.0
O124 O 0.90209 0.09582 0.72544 0.0
C125 C 0.88694 0.10191 0.51401 0.0
O126 O 0.87695 0.08424 0.53281 0.0
C127 C 0.95812 0.10774 0.60696 0.0
O128 O 0.94705 0.12256 0.57195 0.0
O129 O 0.91072 0.05663 0.60017 0.0
C130 C 0.63903 0.14819 0.4778 0.0
O131 O 0.62715 0.16143 0.43834 0.0
O132 O 0.65983 0.19196 0.37321 0.0
Zn133 Zn 0.66588 0.16039 0.35992 0.0
O134 O 0.6471 0.14797 0.2793 0.0
C135 C 0.70577 0.17231 0.29443 0.0
O136 O 0.69477 0.18991 0.28383 0.0
O137 O 0.65815 0.14485 0.45644 0.0
C138 C 0.65049 0.15024 0.20885 0.0
O139 O 0.66691 0.16165 0.1864 0.0
C140 C 0.64502 0.20191 0.33877 0.0
O141 O 0.63202 0.19118 0.29456 0.0
O142 O 0.69693 0.15667 0.32829 0.0
C143 C 0.59878 0.88947 0.24839 0.0
O144 O 0.58567 0.87726 0.20962 0.0
O145 O 0.55554 0.91087 0.13983 0.0
Zn146 Zn 0.58711 0.91611 0.12831 0.0
O147 O 0.59928 0.89711 0.04774 0.0
C148 C 0.58785 0.95319 0.03207 0.0
O149 O 0.58353 0.93878 0.98021 0.0
O150 O 0.60212 0.90843 0.22547 0.0
C151 C 0.61703 0.90162 0.0169 0.0
O152 O 0.62698 0.91929 0.03601 0.0
C153 C 0.54544 0.89594 0.10668 0.0
O154 O 0.55598 0.88267 0.06284 0.0
O155 O 0.5908 0.94721 0.10021 0.0
C156 C 0.86353 0.14866 0.0162 0.0
O157 O 0.87509 0.15842 0.06768 0.0
O158 O 0.84008 0.19254 0.117 0.0
Zn159 Zn 0.83357 0.16086 0.12433 0.0
O160 O 0.84877 0.14668 0.21086 0.0
C161 C 0.79353 0.17198 0.18631 0.0
O162 O 0.80548 0.18803 0.20855 0.0
O163 O 0.84354 0.14675 0.02732 0.0
C164 C 0.85133 0.15485 0.27608 0.0
O165 O 0.84435 0.17425 0.2897 0.0
C166 C 0.85632 0.20276 0.14061 0.0
O167 O 0.8719 0.19235 0.17407 0.0
O168 O 0.80184 0.15749 0.14516 0.0
C169 C 0.60019 0.109 0.74304 0.0
O170 O 0.59126 0.12197 0.79211 0.0
O171 O 0.5551 0.08632 0.8576 0.0
Zn172 Zn 0.587 0.0807 0.85732 0.0
O173 O 0.6022 0.09856 0.93523 0.0
C174 C 0.58245 0.04237 0.94123 0.0
O175 O 0.56979 0.0552 0.97912 0.0
O176 O 0.60008 0.08904 0.7566 0.0
C177 C 0.59564 0.10353 0.00098 0.0
O178 O 0.57698 0.0966 0.02438 0.0
C179 C 0.54606 0.10364 0.87747 0.0
O180 O 0.55789 0.11994 0.89815 0.0
O181 O 0.59184 0.04944 0.88238 0.0
C182 C 0.6388 0.85252 0.51557 0.0
O183 O 0.62685 0.84071 0.56017 0.0
O184 O 0.6608 0.80912 0.62418 0.0
Zn185 Zn 0.66809 0.84056 0.62838 0.0
O186 O 0.65387 0.85539 0.71543 0.0
C187 C 0.70912 0.85442 0.69017 0.0
O188 O 0.6976 0.86858 0.72687 0.0
O189 O 0.65841 0.85498 0.5321 0.0
C190 C 0.65284 0.84785 0.7821 0.0
O191 O 0.66097 0.82895 0.79669 0.0
C192 C 0.6449 0.79941 0.65289 0.0
O193 O 0.63041 0.81028 0.69041 0.0
O194 O 0.69998 0.84205 0.64311 0.0
C195 C 0.89667 0.89081 0.26738 0.0
O196 O 0.90293 0.8789 0.32436 0.0
O197 O 0.94332 0.91718 0.3679 0.0
Zn198 Zn 0.9114 0.92139 0.37119 0.0
O199 O 0.89795 0.90382 0.45369 0.0
C200 C 0.90812 0.96005 0.45692 0.0
O201 O 0.91191 0.94648 0.51198 0.0
O202 O 0.89841 0.91101 0.27274 0.0
C203 C 0.90663 0.89716 0.51425 0.0
O204 O 0.92626 0.9029 0.53075 0.0
C205 C 0.95355 0.89983 0.37706 0.0
O206 O 0.94299 0.88213 0.39086 0.0
O207 O 0.90628 0.95295 0.38967 0.0
C208 C 0.63973 0.6382 0.5099 0.0
O209 O 0.62774 0.63339 0.56856 0.0
O210 O 0.65682 0.69569 0.61414 0.0
Zn211 Zn 0.66268 0.66414 0.62026 0.0
O212 O 0.64648 0.65007 0.70542 0.0
C213 C 0.69969 0.66452 0.71268 0.0
O214 O 0.68514 0.67037 0.76213 0.0
O215 O 0.6556 0.65062 0.51911 0.0
C216 C 0.65309 0.6317 0.72521 0.0
O217 O 0.6686 0.62286 0.68613 0.0
C218 C 0.64471 0.70636 0.6578 0.0
O219 O 0.63419 0.69636 0.71159 0.0
O220 O 0.69401 0.66096 0.64459 0.0
C221 C 0.59967 0.38321 0.76526 0.0
O222 O 0.59356 0.37106 0.82188 0.0
O223 O 0.55372 0.40882 0.87246 0.0
Zn224 Zn 0.58565 0.41374 0.87094 0.0
O225 O 0.60096 0.39726 0.95221 0.0
C226 C 0.58791 0.45294 0.95285 0.0
O227 O 0.58264 0.43984 0.00785 0.0
O228 O 0.59795 0.40338 0.77155 0.0
C229 C 0.59383 0.39089 0.01565 0.0
O230 O 0.57418 0.39561 0.03563 0.0
C231 C 0.54407 0.39133 0.88585 0.0
O232 O 0.55528 0.37416 0.90122 0.0
O233 O 0.59068 0.44537 0.88665 0.0
C234 C 0.85845 0.36273 0.03374 0.0
O235 O 0.87296 0.36027 0.08675 0.0
O236 O 0.83933 0.3061 0.12048 0.0
Zn237 Zn 0.83389 0.33739 0.13836 0.0
O238 O 0.85253 0.34807 0.22323 0.0
C239 C 0.79677 0.33937 0.23628 0.0
O240 O 0.81116 0.33745 0.28994 0.0
O241 O 0.84021 0.35413 0.04277 0.0
C242 C 0.84947 0.36641 0.25194 0.0
O243 O 0.8337 0.37825 0.22642 0.0
C244 C 0.85511 0.29579 0.14715 0.0
O245 O 0.86955 0.30602 0.18715 0.0
O246 O 0.80274 0.34004 0.16739 0.0
C247 C 0.89144 0.61478 0.26543 0.0
O248 O 0.89316 0.62966 0.31754 0.0
O249 O 0.9468 0.59465 0.3649 0.0
Zn250 Zn 0.91506 0.59001 0.37579 0.0
O251 O 0.90336 0.60841 0.45943 0.0
C252 C 0.91347 0.55233 0.47008 0.0
O253 O 0.91936 0.56599 0.52258 0.0
O254 O 0.89982 0.5966 0.27763 0.0
C255 C 0.88539 0.60394 0.48876 0.0
O256 O 0.87456 0.58758 0.4624 0.0
C257 C 0.95691 0.60924 0.39994 0.0
O258 O 0.94619 0.62258 0.44294 0.0
O259 O 0.91047 0.55904 0.40289 0.0
C260 C 0.63728 0.3442 0.49799 0.0
O261 O 0.62604 0.33086 0.45673 0.0
O262 O 0.66101 0.30433 0.3796 0.0
Zn263 Zn 0.66561 0.33633 0.37739 0.0
O264 O 0.64754 0.34991 0.29625 0.0
C265 C 0.7071 0.3298 0.31332 0.0
O266 O 0.69713 0.31339 0.28339 0.0
O267 O 0.65596 0.34925 0.47622 0.0
C268 C 0.64998 0.34659 0.2258 0.0
O269 O 0.66503 0.33349 0.20308 0.0
C270 C 0.64545 0.29502 0.34714 0.0
O271 O 0.63115 0.3066 0.31149 0.0
O272 O 0.69693 0.34224 0.35744 0.0
C273 C 0.87966 0.40444 0.74776 0.0
O274 O 0.86811 0.39986 0.6878 0.0
O275 O 0.93917 0.41931 0.63391 0.0
Zn276 Zn 0.90755 0.42473 0.63687 0.0
O277 O 0.8921 0.409 0.55328 0.0
C278 C 0.90838 0.46225 0.55092 0.0
O279 O 0.91465 0.44778 0.50189 0.0
O280 O 0.89655 0.41548 0.73943 0.0
C281 C 0.90121 0.39862 0.50048 0.0
O282 O 0.92212 0.39727 0.49938 0.0
C283 C 0.94831 0.40154 0.64626 0.0
O284 O 0.93668 0.38449 0.65968 0.0
O285 O 0.90382 0.45632 0.61799 0.0
C286 C 0.8472 0.63563 0.98359 0.0
O287 O 0.84701 0.62257 0.92537 0.0
O288 O 0.83249 0.69606 0.8658 0.0
Zn289 Zn 0.82818 0.66436 0.8745 0.0
O290 O 0.8428 0.64824 0.79055 0.0
C291 C 0.78968 0.6632 0.79513 0.0
O292 O 0.80339 0.66906 0.74271 0.0
O293 O 0.8393 0.65422 0.97579 0.0
C294 C 0.85374 0.65627 0.73705 0.0
O295 O 0.85715 0.67696 0.73569 0.0
C296 C 0.84964 0.70611 0.88013 0.0
O297 O 0.8668 0.69536 0.89964 0.0
O298 O 0.79658 0.6595 0.86167 0.0
C299 C 0.61235 0.60766 0.21332 0.0
O300 O 0.61532 0.61936 0.15248 0.0
O301 O 0.55578 0.58738 0.11544 0.0
Zn302 Zn 0.58734 0.58191 0.10936 0.0
O303 O 0.60005 0.59792 0.0212 0.0
C304 C 0.58727 0.54387 0.02216 0.0
O305 O 0.58082 0.55774 0.97121 0.0
O306 O 0.60113 0.59077 0.20829 0.0
C307 C 0.61831 0.59213 0.99747 0.0
O308 O 0.62838 0.57682 0.03372 0.0
C309 C 0.54669 0.6039 0.08883 0.0
O310 O 0.55838 0.61873 0.05635 0.0
O311 O 0.5912 0.55039 0.08903 0.0
C312 C 0.34558 0.36729 0.49865 0.0
O313 O 0.34627 0.38034 0.44039 0.0
O314 O 0.33535 0.3057 0.38422 0.0
Zn315 Zn 0.3309 0.33749 0.38534 0.0
O316 O 0.35024 0.3517 0.30976 0.0
C317 C 0.29364 0.35286 0.30104 0.0
O318 O 0.3079 0.36238 0.25821 0.0
O319 O 0.33859 0.34843 0.48892 0.0
C320 C 0.35358 0.34439 0.24373 0.0
O321 O 0.34416 0.32655 0.22325 0.0
C322 C 0.35348 0.29669 0.37899 0.0
O323 O 0.37072 0.30856 0.37396 0.0
O324 O 0.29986 0.34256 0.35918 0.0
C325 C 0.40078 0.61061 0.23349 0.0
O326 O 0.41233 0.62275 0.18865 0.0
O327 O 0.44406 0.59033 0.12736 0.0
Zn328 Zn 0.41264 0.5834 0.11786 0.0
O329 O 0.39902 0.60176 0.03858 0.0
C330 C 0.42519 0.5439 0.05333 0.0
O331 O 0.44139 0.55612 0.03447 0.0
O332 O 0.39809 0.5911 0.21579 0.0
C333 C 0.39945 0.59826 0.96783 0.0
O334 O 0.40948 0.58131 0.94218 0.0
C335 C 0.45365 0.60489 0.09037 0.0
O336 O 0.44257 0.61729 0.04504 0.0
O337 O 0.40972 0.55205 0.09013 0.0
C338 C 0.14058 0.65075 0.0028 0.0
O339 O 0.12884 0.66523 0.96855 0.0
O340 O 0.16108 0.69218 0.88429 0.0
Zn341 Zn 0.1659 0.66044 0.87626 0.0
O342 O 0.14629 0.64814 0.79783 0.0
C343 C 0.20287 0.65692 0.77831 0.0
O344 O 0.18852 0.65918 0.72465 0.0
O345 O 0.15864 0.64597 0.97474 0.0
C346 C 0.15 0.62984 0.76991 0.0
O347 O 0.1671 0.61928 0.79131 0.0
C348 C 0.15727 0.70281 0.82445 0.0
O349 O 0.15576 0.69257 0.75972 0.0
O350 O 0.19682 0.65619 0.84711 0.0
C351 C 0.09672 0.38939 0.74083 0.0
O352 O 0.08208 0.37748 0.70836 0.0
O353 O 0.05287 0.41063 0.63895 0.0
Zn354 Zn 0.08434 0.41406 0.61756 0.0
O355 O 0.09453 0.39336 0.539 0.0
C356 C 0.07363 0.45321 0.54508 0.0
O357 O 0.05561 0.4427 0.53749 0.0
O358 O 0.10095 0.40756 0.71244 0.0
C359 C 0.09041 0.39546 0.46901 0.0
O360 O 0.07794 0.41112 0.44702 0.0
C361 C 0.04073 0.3956 0.61698 0.0
O362 O 0.04893 0.37937 0.57984 0.0
O363 O 0.08916 0.44427 0.57918 0.0
C364 C 0.36052 0.64707 0.50045 0.0
O365 O 0.37243 0.65626 0.55221 0.0
O366 O 0.33519 0.69073 0.60671 0.0
Zn367 Zn 0.33086 0.65871 0.61055 0.0
O368 O 0.34845 0.64476 0.69224 0.0
C369 C 0.29201 0.66332 0.68897 0.0
O370 O 0.30421 0.6772 0.72397 0.0
O371 O 0.3405 0.64571 0.51161 0.0
C372 C 0.35242 0.65225 0.75761 0.0
O373 O 0.34498 0.67113 0.77626 0.0
C374 C 0.35177 0.70106 0.6265 0.0
O375 O 0.36839 0.69064 0.65277 0.0
O376 O 0.29966 0.65301 0.63309 0.0
C377 C 0.10465 0.61009 0.27054 0.0
O378 O 0.095 0.62236 0.32018 0.0
O379 O 0.05852 0.58922 0.37052 0.0
Zn380 Zn 0.08969 0.58057 0.37701 0.0
O381 O 0.1046 0.59428 0.46494 0.0
C382 C 0.07603 0.54049 0.43306 0.0
O383 O 0.05991 0.55266 0.45299 0.0
O384 O 0.10481 0.59001 0.28158 0.0
C385 C 0.09661 0.59584 0.53084 0.0
O386 O 0.07716 0.58887 0.54368 0.0
C387 C 0.04995 0.60591 0.39813 0.0
O388 O 0.062 0.62004 0.43269 0.0
O389 O 0.09132 0.54868 0.39545 0.0
C390 C 0.13741 0.3554 0.01087 0.0
O391 O 0.12472 0.34844 0.06469 0.0
O392 O 0.16453 0.30898 0.11669 0.0
Zn393 Zn 0.16701 0.34121 0.11983 0.0
O394 O 0.14775 0.35376 0.19916 0.0
C395 C 0.20512 0.34165 0.20629 0.0
O396 O 0.19294 0.32931 0.24818 0.0
O397 O 0.15752 0.35394 0.01992 0.0
C398 C 0.14143 0.3452 0.2604 0.0
O399 O 0.14836 0.32613 0.27927 0.0
C400 C 0.1471 0.29879 0.12495 0.0
O401 O 0.12937 0.30951 0.13605 0.0
O402 O 0.1975 0.34913 0.14498 0.0
C403 C 0.38941 0.39198 0.77616 0.0
O404 O 0.39625 0.37726 0.8233 0.0
O405 O 0.44163 0.40973 0.86893 0.0
Zn406 Zn 0.41053 0.41667 0.88587 0.0
O407 O 0.39791 0.39736 0.965 0.0
C408 C 0.42437 0.45512 0.95597 0.0
O409 O 0.4408 0.44268 0.96964 0.0
O410 O 0.39408 0.41141 0.78939 0.0
C411 C 0.40165 0.3981 0.03558 0.0
O412 O 0.41472 0.41271 0.06203 0.0
C413 C 0.45096 0.39296 0.89239 0.0
O414 O 0.43969 0.37813 0.92666 0.0
O415 O 0.40842 0.44749 0.92043 0.0
C416 C 0.25967 0.16149 0.32195 0.0
C417 C 0.27584 0.15997 0.26689 0.0
C418 C 0.23808 0.16239 0.30126 0.0
C419 C 0.23176 0.16146 0.22477 0.0
H420 H 0.26372 0.16267 0.38148 0.0
H421 H 0.22627 0.16404 0.34573 0.0
S422 S 0.26783 0.15575 0.05901 0.0
N423 N 0.28404 0.15645 0.13273 0.0
N424 N 0.24345 0.15784 0.09391 0.0
C425 C 0.24773 0.15911 0.16927 0.0
C426 C 0.26976 0.15847 0.19031 0.0
C427 C 0.09722 0.98997 0.47919 0.0
C428 C 0.07785 0.98006 0.45939 0.0
C429 C 0.09752 0.01084 0.50845 0.0
C430 C 0.07852 0.02259 0.51697 0.0
H431 H 0.11217 0.98142 0.47341 0.0
H432 H 0.11274 0.01793 0.52322 0.0
S433 S 0.02372 0.00392 0.47187 0.0
N434 N 0.03926 0.98354 0.45008 0.0
N435 N 0.03988 0.0228 0.50315 0.0
C436 C 0.05911 0.0129 0.49655 0.0
C437 C 0.05877 0.9916 0.46826 0.0
C438 C 0.24697 0.81389 0.83041 0.0
C439 C 0.23235 0.83039 0.81528 0.0
C440 C 0.26671 0.81289 0.79354 0.0
C441 C 0.27283 0.82839 0.73992 0.0
H442 H 0.24308 0.80134 0.87039 0.0
H443 H 0.2772 0.7997 0.80728 0.0
S444 S 0.24072 0.87539 0.6811 0.0
N445 N 0.22558 0.86299 0.74384 0.0
N446 N 0.26282 0.86112 0.67468 0.0
C447 C 0.25858 0.84525 0.72504 0.0
C448 C 0.23834 0.84626 0.76265 0.0
C449 C 0.40487 0.0074 0.98271 0.0
C450 C 0.42409 0.01883 0.97437 0.0
C451 C 0.40482 0.98636 0.01053 0.0
C452 C 0.42401 0.97592 0.02933 0.0
H453 H 0.38976 0.0149 0.96919 0.0
H454 H 0.38969 0.97813 0.01642 0.0
S455 S 0.47862 0.99877 0.01599 0.0
N456 N 0.46277 0.0181 0.98639 0.0
N457 N 0.46271 0.97862 0.03728 0.0
C458 C 0.44332 0.98713 0.02027 0.0
C459 C 0.44334 0.00857 0.99316 0.0
C460 C 0.76193 0.85883 0.79554 0.0
C461 C 0.77423 0.84229 0.76384 0.0
C462 C 0.74117 0.86308 0.7697 0.0
C463 C 0.7319 0.85105 0.7108 0.0
H464 H 0.76816 0.86827 0.84197 0.0
H465 H 0.73219 0.87562 0.79746 0.0
S466 S 0.75825 0.8073 0.60349 0.0
N467 N 0.77617 0.81476 0.66667 0.0
N468 N 0.73732 0.82278 0.61802 0.0
C469 C 0.74437 0.835 0.67658 0.0
C470 C 0.76546 0.83061 0.70315 0.0
C471 C 0.90743 0.99033 0.54923 0.0
C472 C 0.90788 0.98333 0.47339 0.0
C473 C 0.90902 0.01203 0.56768 0.0
C474 C 0.91133 0.02769 0.51113 0.0
H475 H 0.90616 0.97892 0.59518 0.0
H476 H 0.90897 0.01647 0.627 0.0
S477 S 0.91196 0.01807 0.30341 0.0
N478 N 0.90968 0.99402 0.34097 0.0
N479 N 0.91277 0.03481 0.37559 0.0
C480 C 0.91117 0.02103 0.43486 0.0
C481 C 0.90939 0.99888 0.41601 0.0
C482 C 0.73948 0.19037 0.25623 0.0
C483 C 0.72809 0.17124 0.26684 0.0
C484 C 0.76049 0.1903 0.22939 0.0
C485 C 0.77091 0.17114 0.21064 0.0
H486 H 0.73221 0.20561 0.26964 0.0
H487 H 0.7686 0.20549 0.2231 0.0
S488 S 0.74805 0.11664 0.2262 0.0
N489 N 0.7287 0.13252 0.25575 0.0
N490 N 0.76824 0.13243 0.20382 0.0
C491 C 0.75967 0.15185 0.21979 0.0
C492 C 0.73827 0.15189 0.24846 0.0
C493 C 0.59042 0.00389 0.91387 0.0
C494 C 0.58518 0.01994 0.96639 0.0
C495 C 0.59155 0.98237 0.9359 0.0
C496 C 0.58794 0.97616 0.01155 0.0
H497 H 0.59305 0.00788 0.85487 0.0
H498 H 0.59516 0.9705 0.89314 0.0
S499 S 0.57499 0.01224 0.17192 0.0
N500 N 0.57717 0.02827 0.09803 0.0
N501 N 0.57967 0.98796 0.13951 0.0
C502 C 0.5834 0.99215 0.06509 0.0
C503 C 0.5819 0.014 0.04246 0.0
C504 C 0.73851 0.66336 0.67997 0.0
C505 C 0.72241 0.66284 0.73545 0.0
C506 C 0.76014 0.66308 0.70006 0.0
C507 C 0.7666 0.66204 0.77643 0.0
H508 H 0.73442 0.6645 0.62047 0.0
H509 H 0.77189 0.6639 0.65506 0.0
S510 S 0.73067 0.65872 0.94338 0.0
N511 N 0.71436 0.6601 0.87006 0.0
N512 N 0.75504 0.65945 0.90775 0.0
C513 C 0.75067 0.6608 0.83247 0.0
C514 C 0.72859 0.66126 0.81201 0.0
C515 C 0.58896 0.48357 0.04359 0.0
C516 C 0.58934 0.47622 0.96816 0.0
C517 C 0.58887 0.50544 0.06051 0.0
C518 C 0.58893 0.52088 0.00269 0.0
H519 H 0.58847 0.47237 0.09033 0.0
H520 H 0.58819 0.51022 0.11945 0.0
S521 S 0.59135 0.51021 0.79583 0.0
N522 N 0.59089 0.48627 0.83505 0.0
N523 N 0.59058 0.52735 0.86681 0.0
C524 C 0.58989 0.51381 0.927 0.0
C525 C 0.59016 0.49151 0.90974 0.0
C526 C 0.73771 0.32671 0.22368 0.0
C527 C 0.72976 0.33371 0.29399 0.0
C528 C 0.75926 0.32934 0.2044 0.0
C529 C 0.77378 0.33862 0.25545 0.0
H530 H 0.72721 0.31909 0.18309 0.0
H531 H 0.76469 0.32343 0.15002 0.0
S532 S 0.76096 0.36019 0.44589 0.0
N533 N 0.73793 0.35105 0.41377 0.0
N534 N 0.77861 0.35546 0.37839 0.0
C535 C 0.76601 0.34596 0.32556 0.0
C536 C 0.74394 0.34367 0.34458 0.0
C537 C 0.90918 0.5011 0.58504 0.0
C538 C 0.90812 0.48514 0.52915 0.0
C539 C 0.91067 0.52277 0.56536 0.0
C540 C 0.9109 0.52935 0.48901 0.0
H541 H 0.90943 0.49684 0.64453 0.0
H542 H 0.91181 0.53442 0.61054 0.0
S543 S 0.90701 0.49385 0.32096 0.0
N544 N 0.90638 0.47744 0.39413 0.0
N545 N 0.90902 0.51806 0.35719 0.0
C546 C 0.90918 0.51356 0.43256 0.0
C547 C 0.90785 0.4915 0.45261 0.0
C548 C 0.25607 0.34071 0.32278 0.0
C549 C 0.27082 0.35196 0.27776 0.0
C550 C 0.23489 0.33784 0.29955 0.0
C551 C 0.22744 0.3461 0.23021 0.0
H552 H 0.26096 0.33363 0.37604 0.0
H553 H 0.22438 0.32875 0.33614 0.0
S554 S 0.25921 0.37792 0.09284 0.0
N555 N 0.27618 0.37229 0.16155 0.0
N556 N 0.23634 0.36688 0.11799 0.0
C557 C 0.24181 0.35795 0.18545 0.0
C558 C 0.26347 0.36089 0.20918 0.0
C559 C 0.40576 0.51018 0.0191 0.0
C560 C 0.42511 0.52114 0.03065 0.0
C561 C 0.40558 0.48888 0.99403 0.0
C562 C 0.42474 0.47768 0.98118 0.0
H563 H 0.39066 0.51822 0.02809 0.0
H564 H 0.39033 0.48107 0.98538 0.0
S565 S 0.47967 0.49905 0.00502 0.0
N566 N 0.46391 0.51912 0.02828 0.0
N567 N 0.46358 0.47918 0.98238 0.0
C568 C 0.44417 0.48842 0.99354 0.0
C569 C 0.44436 0.51012 0.01792 0.0
C570 C 0.25394 0.65349 0.66253 0.0
C571 C 0.26966 0.66022 0.7141 0.0
C572 C 0.23241 0.65208 0.68422 0.0
C573 C 0.22589 0.65694 0.75865 0.0
H574 H 0.25817 0.64991 0.60437 0.0
H575 H 0.22078 0.64733 0.64206 0.0
S576 S 0.26119 0.67383 0.91668 0.0
N577 N 0.27744 0.67081 0.84381 0.0
N578 N 0.23714 0.66786 0.88479 0.0
C579 C 0.24161 0.66293 0.81147 0.0
C580 C 0.26344 0.66467 0.7891 0.0
C581 C 0.05631 0.48688 0.50261 0.0
C582 C 0.07519 0.47525 0.51519 0.0
C583 C 0.05686 0.50778 0.47492 0.0
C584 C 0.07631 0.51787 0.45742 0.0
H585 H 0.04087 0.47992 0.5154 0.0
H586 H 0.04185 0.51611 0.46731 0.0
S587 S 0.13034 0.49424 0.47777 0.0
N588 N 0.11397 0.47522 0.50681 0.0
N589 N 0.115 0.51458 0.45348 0.0
C590 C 0.09536 0.50635 0.46825 0.0
C591 C 0.09481 0.48506 0.49765 0.0
C592 C 0.1342 0.10779 0.92734 0.0
C593 C 0.14445 0.12774 0.93397 0.0
C594 C 0.12444 0.10144 0.85945 0.0
C595 C 0.12443 0.11482 0.79537 0.0
H596 H 0.1334 0.09702 0.9753 0.0
H597 H 0.11652 0.08607 0.85776 0.0
S598 S 0.15026 0.16812 0.78098 0.0
N599 N 0.15483 0.16043 0.86892 0.0
N600 N 0.13651 0.14856 0.74172 0.0
C601 C 0.13505 0.13461 0.80055 0.0
C602 C 0.14506 0.14104 0.86962 0.0
C603 C 0.11212 0.85332 0.08644 0.0
C604 C 0.13053 0.86171 0.05189 0.0
C605 C 0.10266 0.86342 0.14858 0.0
C606 C 0.11102 0.88252 0.17819 0.0
H607 H 0.10497 0.83868 0.06575 0.0
H608 H 0.08857 0.85618 0.1733 0.0
S609 S 0.15889 0.91134 0.10793 0.0
N610 N 0.15682 0.89036 0.05168 0.0
N611 N 0.1388 0.90954 0.1683 0.0
C612 C 0.12934 0.89126 0.14397 0.0
C613 C 0.13918 0.88078 0.08102 0.0
C614 C 0.39337 0.85925 0.33349 0.0
C615 C 0.38566 0.87857 0.30347 0.0
C616 C 0.38373 0.84967 0.3963 0.0
C617 C 0.36575 0.85881 0.43129 0.0
H618 H 0.40717 0.85147 0.30881 0.0
H619 H 0.39046 0.83488 0.4174 0.0
S620 S 0.33898 0.90917 0.37421 0.0
N621 N 0.35882 0.90653 0.3132 0.0
N622 N 0.34045 0.88828 0.43119 0.0
C623 C 0.35764 0.87802 0.40155 0.0
C624 C 0.36769 0.88799 0.33783 0.0
C625 C 0.3962 0.13829 0.67846 0.0
C626 C 0.38809 0.11883 0.70608 0.0
C627 C 0.38752 0.14806 0.6142 0.0
C628 C 0.37011 0.139 0.57555 0.0
H629 H 0.40956 0.14601 0.70624 0.0
H630 H 0.39446 0.16298 0.5951 0.0
S631 S 0.34276 0.08827 0.62507 0.0
N632 N 0.36164 0.09077 0.68984 0.0
N633 N 0.345 0.10938 0.56946 0.0
C634 C 0.36168 0.11961 0.60274 0.0
C635 C 0.37078 0.10944 0.66777 0.0
C636 C 0.8641 0.88166 0.08848 0.0
C637 C 0.8698 0.86071 0.06785 0.0
C638 C 0.87312 0.89152 0.15241 0.0
C639 C 0.88778 0.88058 0.19872 0.0
H640 H 0.85293 0.89066 0.05417 0.0
H641 H 0.86839 0.9077 0.16613 0.0
S642 S 0.90752 0.82524 0.17008 0.0
N643 N 0.89084 0.8293 0.09914 0.0
N644 N 0.90747 0.84759 0.21961 0.0
C645 C 0.89337 0.85953 0.17911 0.0
C646 C 0.88447 0.84965 0.11358 0.0
C647 C 0.86549 0.1226 0.90831 0.0
C648 C 0.87386 0.14044 0.94659 0.0
C649 C 0.87571 0.11423 0.8439 0.0
C650 C 0.89437 0.1237 0.81462 0.0
H651 H 0.85115 0.11484 0.92893 0.0
H652 H 0.86876 0.10043 0.81627 0.0
S653 S 0.92239 0.17105 0.89308 0.0
N654 N 0.90181 0.16742 0.95009 0.0
N655 N 0.92071 0.15198 0.82882 0.0
C656 C 0.90273 0.14168 0.852 0.0
C657 C 0.89256 0.14997 0.91804 0.0
C658 C 0.603 0.13768 0.64602 0.0
C659 C 0.61026 0.11796 0.67411 0.0
C660 C 0.61247 0.1472 0.58267 0.0
C661 C 0.6299 0.13763 0.54558 0.0
H662 H 0.58975 0.14583 0.6729 0.0
H663 H 0.60618 0.16235 0.56314 0.0
S664 S 0.65521 0.08605 0.5971 0.0
N665 N 0.63591 0.08908 0.66006 0.0
N666 N 0.65408 0.10725 0.54148 0.0
C667 C 0.63747 0.11796 0.57325 0.0
C668 C 0.62752 0.10803 0.63724 0.0
C669 C 0.61022 0.85404 0.41757 0.0
C670 C 0.6293 0.86244 0.44722 0.0
C671 C 0.60056 0.86297 0.3535 0.0
C672 C 0.60937 0.8809 0.31701 0.0
H673 H 0.60271 0.84028 0.44357 0.0
H674 H 0.58594 0.85578 0.33278 0.0
S675 S 0.65904 0.90923 0.37252 0.0
N676 N 0.65669 0.88981 0.43535 0.0
N677 N 0.63831 0.90683 0.31528 0.0
C678 C 0.62836 0.88963 0.34631 0.0
C679 C 0.6384 0.88032 0.41118 0.0
C680 C 0.61869 0.61366 0.4264 0.0
C681 C 0.63411 0.62991 0.43354 0.0
C682 C 0.6122 0.6062 0.35516 0.0
C683 C 0.62067 0.61483 0.28792 0.0
H684 H 0.61139 0.6067 0.47628 0.0
H685 H 0.60005 0.59389 0.35294 0.0
S686 S 0.66227 0.65698 0.27497 0.0
N687 N 0.65832 0.65385 0.36677 0.0
N688 N 0.646 0.63994 0.23304 0.0
C689 C 0.63643 0.63078 0.2941 0.0
C690 C 0.64319 0.63827 0.36677 0.0
C691 C 0.62447 0.38405 0.65385 0.0
C692 C 0.6088 0.37332 0.69647 0.0
C693 C 0.634 0.37435 0.59058 0.0
C694 C 0.62782 0.3538 0.56682 0.0
H695 H 0.62967 0.39989 0.67025 0.0
H696 H 0.64603 0.38315 0.55937 0.0
S697 S 0.58721 0.31916 0.65835 0.0
N698 N 0.58749 0.34106 0.71035 0.0
N699 N 0.60503 0.32308 0.5908 0.0
C700 C 0.61203 0.34302 0.60857 0.0
C701 C 0.60262 0.35271 0.67358 0.0
C702 C 0.85542 0.38269 0.83051 0.0
C703 C 0.87394 0.3953 0.82293 0.0
C704 C 0.85032 0.37262 0.89916 0.0
C705 C 0.86359 0.37459 0.9631 0.0
H706 H 0.84486 0.38027 0.78269 0.0
H707 H 0.83607 0.36282 0.90145 0.0
S708 S 0.9132 0.40698 0.97529 0.0
N709 N 0.90505 0.41007 0.88706 0.0
N710 N 0.8955 0.39111 0.0157 0.0
C711 C 0.88187 0.3876 0.95706 0.0
C712 C 0.88702 0.39796 0.8872 0.0
C713 C 0.87066 0.63954 0.18187 0.0
C714 C 0.87984 0.61928 0.19362 0.0
C715 C 0.85987 0.6445 0.11455 0.0
C716 C 0.85779 0.62943 0.05581 0.0
H717 H 0.87188 0.65183 0.22482 0.0
H718 H 0.85333 0.66042 0.10839 0.0
S719 S 0.87831 0.57374 0.05875 0.0
N720 N 0.88566 0.5838 0.14113 0.0
N721 N 0.86542 0.5931 0.01477 0.0
C722 C 0.86663 0.60898 0.0671 0.0
C723 C 0.87763 0.60392 0.13583 0.0
C724 C 0.36413 0.39422 0.58059 0.0
C725 C 0.35502 0.37376 0.57243 0.0
C726 C 0.3748 0.40017 0.64719 0.0
C727 C 0.37692 0.38586 0.70817 0.0
H728 H 0.36343 0.40566 0.53462 0.0
H729 H 0.38189 0.41593 0.65002 0.0
S730 S 0.35433 0.33106 0.71877 0.0
N731 N 0.34766 0.33967 0.63362 0.0
N732 N 0.36773 0.35082 0.75831 0.0
C733 C 0.36728 0.36561 0.70189 0.0
C734 C 0.35632 0.35958 0.63426 0.0
C735 C 0.3617 0.62037 0.39469 0.0
C736 C 0.37058 0.63821 0.43151 0.0
C737 C 0.37177 0.61119 0.33147 0.0
C738 C 0.3908 0.61984 0.30201 0.0
H739 H 0.34709 0.61322 0.41566 0.0
H740 H 0.36444 0.59743 0.30486 0.0
S741 S 0.42021 0.66679 0.37695 0.0
N742 N 0.39938 0.66428 0.43358 0.0
N743 N 0.41805 0.64732 0.31438 0.0
C744 C 0.39967 0.63782 0.33791 0.0
C745 C 0.38964 0.64692 0.40277 0.0
C746 C 0.11629 0.64999 0.11456 0.0
C747 C 0.1324 0.64004 0.07179 0.0
C748 C 0.10762 0.64017 0.17879 0.0
C749 C 0.11443 0.61981 0.2023 0.0
H750 H 0.11033 0.6656 0.09855 0.0
H751 H 0.09525 0.64856 0.20967 0.0
S752 S 0.1562 0.58681 0.10996 0.0
N753 N 0.15499 0.60866 0.05768 0.0
N754 N 0.13838 0.59001 0.17805 0.0
C755 C 0.13051 0.60959 0.16007 0.0
C756 C 0.1396 0.61977 0.09505 0.0
C757 C 0.09738 0.36628 0.85528 0.0
C758 C 0.10769 0.38149 0.80951 0.0
C759 C 0.10723 0.35802 0.92002 0.0
C760 C 0.12796 0.36432 0.94092 0.0
H761 H 0.08144 0.36079 0.84147 0.0
H762 H 0.09852 0.34643 0.95359 0.0
S763 S 0.16204 0.40352 0.83973 0.0
N764 N 0.13983 0.40259 0.78935 0.0
N765 N 0.15858 0.38666 0.91073 0.0
C766 C 0.1386 0.37938 0.89541 0.0
C767 C 0.12838 0.38811 0.8299 0.0
C768 C 0.16627 0.26391 0.11221 0.0
C769 C 0.14703 0.27506 0.12367 0.0
C770 C 0.16687 0.24156 0.11161 0.0
C771 C 0.14825 0.22931 0.1224 0.0
H772 H 0.18112 0.27248 0.1038 0.0
H773 H 0.18216 0.23386 0.10272 0.0
S774 S 0.09362 0.25062 0.15458 0.0
N775 N 0.10875 0.27207 0.14591 0.0
N776 N 0.10989 0.23007 0.14476 0.0
C777 C 0.12883 0.24021 0.13365 0.0
C778 C 0.12822 0.26304 0.1343 0.0
C779 C 0.98859 0.88113 0.39453 0.0
C780 C 0.97725 0.89974 0.37477 0.0
C781 C 0.01098 0.8808 0.39531 0.0
C782 C 0.02295 0.89899 0.37567 0.0
H783 H 0.98015 0.86672 0.41053 0.0
H784 H 0.01895 0.86615 0.41165 0.0
S785 S 0.00105 0.95182 0.31889 0.0
N786 N 0.9798 0.93687 0.33448 0.0
N787 N 0.02174 0.93621 0.33555 0.0
C788 C 0.01182 0.91766 0.35483 0.0
C789 C 0.98904 0.91804 0.35452 0.0
C790 C 0.36806 0.75861 0.66289 0.0
C791 C 0.35183 0.77047 0.62721 0.0
C792 C 0.36813 0.73623 0.66105 0.0
C793 C 0.35191 0.72475 0.62374 0.0
H794 H 0.38071 0.76661 0.69362 0.0
H795 H 0.3808 0.72789 0.69053 0.0
S796 S 0.30643 0.74814 0.51706 0.0
N797 N 0.3196 0.76897 0.55012 0.0
N798 N 0.31971 0.72699 0.54691 0.0
C799 C 0.33586 0.7364 0.58616 0.0
C800 C 0.33582 0.75921 0.58779 0.0
C801 C 0.48777 0.0877 0.8594 0.0
C802 C 0.47667 0.10525 0.89008 0.0
C803 C 0.51008 0.08752 0.85473 0.0
C804 C 0.52237 0.10489 0.88041 0.0
H805 H 0.47921 0.07376 0.83942 0.0
H806 H 0.51772 0.07348 0.83127 0.0
S807 S 0.50121 0.15509 0.964 0.0
N808 N 0.47974 0.14073 0.94535 0.0
N809 N 0.52169 0.14041 0.93654 0.0
C810 C 0.51151 0.12273 0.91019 0.0
C811 C 0.4887 0.1229 0.91505 0.0
C812 C 0.1558 0.76018 0.75555 0.0
C813 C 0.15756 0.77221 0.82258 0.0
C814 C 0.15515 0.73785 0.75717 0.0
C815 C 0.15632 0.72651 0.8259 0.0
H816 H 0.15521 0.76802 0.70086 0.0
H817 H 0.15417 0.72944 0.70365 0.0
S818 S 0.15972 0.75038 0.0182 0.0
N819 N 0.15945 0.7711 0.96033 0.0
N820 N 0.15828 0.72908 0.96337 0.0
C821 C 0.15747 0.73831 0.89372 0.0
C822 C 0.15807 0.76114 0.89207 0.0
C823 C 0.48813 0.87914 0.0684 0.0
C824 C 0.47613 0.89302 0.11445 0.0
C825 C 0.51051 0.87982 0.06785 0.0
C826 C 0.52184 0.89441 0.11329 0.0
H827 H 0.48023 0.86799 0.03078 0.0
H828 H 0.51892 0.86913 0.02994 0.0
S829 S 0.49807 0.93289 0.2496 0.0
N830 N 0.47735 0.92083 0.21081 0.0
N831 N 0.51932 0.9221 0.20974 0.0
C832 C 0.51006 0.90781 0.16193 0.0
C833 C 0.48726 0.90711 0.16252 0.0
C834 C 0.33715 0.23854 0.39727 0.0
C835 C 0.35549 0.2273 0.37416 0.0
C836 C 0.33678 0.26088 0.39895 0.0
C837 C 0.3548 0.27301 0.37826 0.0
H838 H 0.32275 0.23005 0.41316 0.0
H839 H 0.32216 0.26867 0.41658 0.0
S840 S 0.40715 0.25143 0.31578 0.0
N841 N 0.39239 0.23004 0.33165 0.0
N842 N 0.39172 0.27208 0.33525 0.0
C843 C 0.37341 0.26203 0.35628 0.0
C844 C 0.37374 0.23919 0.35405 0.0
C845 C 0.99346 0.09155 0.63977 0.0
C846 C 0.98183 0.10896 0.61083 0.0
C847 C 0.01582 0.09164 0.64089 0.0
C848 C 0.02762 0.10918 0.61346 0.0
H849 H 0.98529 0.07749 0.66074 0.0
H850 H 0.02388 0.07764 0.66283 0.0
S851 S 0.00492 0.15929 0.53481 0.0
N852 N 0.98385 0.14464 0.5563 0.0
N853 N 0.02589 0.14479 0.55858 0.0
C854 C 0.01623 0.12695 0.58597 0.0
C855 C 0.99337 0.12683 0.58456 0.0
C856 C 0.86974 0.74064 0.87091 0.0
C857 C 0.85011 0.72976 0.87518 0.0
C858 C 0.87055 0.76299 0.86561 0.0
C859 C 0.85178 0.77534 0.86561 0.0
H860 H 0.88464 0.73185 0.87091 0.0
H861 H 0.88605 0.77064 0.86219 0.0
S862 S 0.79624 0.75468 0.87592 0.0
N863 N 0.81137 0.73312 0.87892 0.0
N864 N 0.81293 0.775 0.86986 0.0
C865 C 0.83203 0.76468 0.87025 0.0
C866 C 0.83119 0.74193 0.87473 0.0
C867 C 0.65965 0.23692 0.38333 0.0
C868 C 0.64376 0.22557 0.34381 0.0
C869 C 0.65982 0.25928 0.385 0.0
C870 C 0.64408 0.27132 0.34736 0.0
H871 H 0.67239 0.22852 0.41224 0.0
H872 H 0.67264 0.26714 0.41533 0.0
S873 S 0.59814 0.2494 0.23909 0.0
N874 N 0.61128 0.22812 0.26858 0.0
N875 N 0.61158 0.27012 0.27175 0.0
C876 C 0.62774 0.2602 0.30917 0.0
C877 C 0.62759 0.23736 0.30739 0.0
C878 C 0.87177 0.26048 0.17876 0.0
C879 C 0.85619 0.27218 0.13896 0.0
C880 C 0.87207 0.23809 0.17722 0.0
C881 C 0.85677 0.22644 0.13591 0.0
H882 H 0.88359 0.26862 0.21304 0.0
H883 H 0.88408 0.22988 0.21041 0.0
S884 S 0.81377 0.24939 0.01584 0.0
N885 N 0.82593 0.27036 0.05249 0.0
N886 N 0.82648 0.22838 0.04971 0.0
C887 C 0.84158 0.23794 0.09348 0.0
C888 C 0.84129 0.26075 0.09495 0.0
C889 C 0.6311 0.74193 0.70215 0.0
C890 C 0.64373 0.73003 0.65136 0.0
C891 C 0.63104 0.76434 0.70074 0.0
C892 C 0.64373 0.77577 0.64883 0.0
H893 H 0.62145 0.73393 0.74446 0.0
H894 H 0.62145 0.77274 0.7422 0.0
S895 S 0.67823 0.75237 0.49916 0.0
N896 N 0.66821 0.73153 0.54408 0.0
N897 N 0.66815 0.77351 0.54191 0.0
C898 C 0.65587 0.7641 0.59603 0.0
C899 C 0.65585 0.7413 0.59714 0.0
C900 C 0.50884 0.40899 0.86316 0.0
C901 C 0.52034 0.39071 0.8853 0.0
C902 C 0.4865 0.40931 0.86402 0.0
C903 C 0.47459 0.3914 0.8874 0.0
H904 H 0.51712 0.42334 0.84545 0.0
H905 H 0.47855 0.42395 0.84743 0.0
S906 S 0.49686 0.33915 0.94813 0.0
N907 N 0.51805 0.3539 0.92916 0.0
N908 N 0.47601 0.35454 0.93097 0.0
C909 C 0.48583 0.37284 0.90844 0.0
C910 C 0.50867 0.37248 0.90731 0.0
C911 C 0.99173 0.59472 0.35318 0.0
C912 C 0.98063 0.60998 0.39651 0.0
C913 C 0.01407 0.59391 0.35284 0.0
C914 C 0.02636 0.60836 0.39561 0.0
H915 H 0.98313 0.58296 0.32009 0.0
H916 H 0.02172 0.58158 0.31941 0.0
S917 S 0.00524 0.65215 0.51624 0.0
N918 N 0.98374 0.64048 0.48144 0.0
N919 N 0.02574 0.63894 0.4807 0.0
C920 C 0.01554 0.62412 0.43762 0.0
C921 C 0.9927 0.62493 0.43811 0.0
C922 C 0.98192 0.38054 0.62631 0.0
C923 C 0.9719 0.40011 0.64273 0.0
C924 C 0.00419 0.37915 0.61878 0.0
C925 C 0.01731 0.39721 0.62865 0.0
H926 H 0.97246 0.36627 0.61744 0.0
H927 H 0.01115 0.36381 0.6048 0.0
S928 S 0.99894 0.45205 0.6763 0.0
N929 N 0.97682 0.43781 0.67116 0.0
N930 N 0.01855 0.43521 0.65812 0.0
C931 C 0.00748 0.41678 0.64706 0.0
C932 C 0.98483 0.41823 0.65374 0.0
C933 C 0.48889 0.59054 0.13282 0.0
C934 C 0.47732 0.60625 0.09321 0.0
C935 C 0.51123 0.59024 0.13206 0.0
C936 C 0.52304 0.60567 0.09192 0.0
H937 H 0.48069 0.57801 0.16356 0.0
H938 H 0.51924 0.57755 0.16257 0.0
S939 S 0.50053 0.65107 0.98248 0.0
N940 N 0.47941 0.63827 0.01529 0.0
N941 N 0.52145 0.63772 0.01398 0.0
C942 C 0.51173 0.62188 0.05383 0.0
C943 C 0.48889 0.62216 0.05442 0.0
C944 C 0.121 0.1318 0.29508 0.0
C945 C 0.1432 0.12856 0.29944 0.0
C946 C 0.10722 0.12366 0.35074 0.0
C947 C 0.11518 0.11235 0.41355 0.0
H948 H 0.11415 0.14036 0.2476 0.0
H949 H 0.09022 0.12634 0.34456 0.0
S950 S 0.17226 0.10034 0.45285 0.0
N951 N 0.1726 0.1137 0.37223 0.0
N952 N 0.14687 0.09868 0.47736 0.0
C953 C 0.13744 0.10934 0.41919 0.0
C954 C 0.1514 0.11736 0.36197 0.0
C955 C 0.10728 0.88623 0.63854 0.0
C956 C 0.11193 0.8869 0.56062 0.0
C957 C 0.12046 0.87517 0.68917 0.0
C958 C 0.13891 0.86446 0.66399 0.0
H959 H 0.09351 0.89457 0.66105 0.0
H960 H 0.11637 0.87546 0.74881 0.0
S961 S 0.1575 0.85999 0.46489 0.0
N962 N 0.13578 0.87484 0.46008 0.0
N963 N 0.16055 0.85422 0.55546 0.0
C964 C 0.14347 0.8645 0.58601 0.0
C965 C 0.12998 0.87565 0.53429 0.0
C966 C 0.37554 0.86876 0.94491 0.0
C967 C 0.39109 0.88312 0.91777 0.0
C968 C 0.36337 0.85629 0.89537 0.0
C969 C 0.3662 0.85764 0.81651 0.0
H970 H 0.37238 0.86735 0.00505 0.0
H971 H 0.35132 0.84587 0.91932 0.0
S972 S 0.40605 0.89141 0.71626 0.0
N973 N 0.40954 0.89702 0.80678 0.0
N974 N 0.38669 0.87354 0.7135 0.0
C975 C 0.38221 0.87138 0.7885 0.0
C976 C 0.39464 0.88411 0.83912 0.0
C977 C 0.36964 0.10476 0.09512 0.0
C978 C 0.3918 0.10846 0.0963 0.0
C979 C 0.35636 0.11265 0.15243 0.0
C980 C 0.36469 0.12492 0.21212 0.0
H981 H 0.36249 0.09539 0.0502 0.0
H982 H 0.33941 0.10929 0.14942 0.0
S983 S 0.42157 0.13953 0.24065 0.0
N984 N 0.42152 0.12524 0.16201 0.0
N985 N 0.39645 0.14056 0.269 0.0
C986 C 0.38678 0.12899 0.21358 0.0
C987 C 0.40038 0.1206 0.15591 0.0
C988 C 0.89927 0.88299 0.6439 0.0
C989 C 0.89434 0.88337 0.56628 0.0
C990 C 0.88689 0.87113 0.69492 0.0
C991 C 0.86934 0.85893 0.67 0.0
H992 H 0.9124 0.89241 0.66583 0.0
H993 H 0.89099 0.87173 0.75452 0.0
S994 S 0.85089 0.8532 0.4711 0.0
N995 N 0.87147 0.86962 0.46603 0.0
N996 N 0.84836 0.84714 0.56169 0.0
C997 C 0.86475 0.85853 0.59201 0.0
C998 C 0.87719 0.87082 0.54023 0.0
C999 C 0.85792 0.11961 0.33696 0.0
C1000 C 0.86083 0.14189 0.33716 0.0
C1001 C 0.86624 0.10684 0.39497 0.0
C1002 C 0.8782 0.11584 0.45424 0.0
H1003 H 0.84884 0.11197 0.29227 0.0
H1004 H 0.86351 0.08976 0.39279 0.0
S1005 S 0.89072 0.1733 0.48017 0.0
N1006 N 0.87646 0.17244 0.40151 0.0
N1007 N 0.89266 0.14834 0.5097 0.0
C1008 C 0.88147 0.13807 0.4547 0.0
C1009 C 0.8726 0.15113 0.39642 0.0
C1010 C 0.61818 0.12832 0.17965 0.0
C1011 C 0.63631 0.13945 0.15356 0.0
C1012 C 0.60493 0.11713 0.12972 0.0
C1013 C 0.60931 0.11647 0.05167 0.0
H1014 H 0.61423 0.12802 0.2394 0.0
H1015 H 0.59138 0.10857 0.15292 0.0
S1016 S 0.654 0.14401 0.9533 0.0
N1017 N 0.65738 0.1499 0.04365 0.0
N1018 N 0.63248 0.12881 0.94978 0.0
C1019 C 0.6271 0.12792 0.02436 0.0
C1020 C 0.64057 0.13943 0.07526 0.0
C1021 C 0.64637 0.88329 0.84136 0.0
C1022 C 0.64367 0.861 0.84315 0.0
C1023 C 0.63797 0.89628 0.89857 0.0
C1024 C 0.62609 0.88747 0.95844 0.0
H1025 H 0.65529 0.89076 0.79586 0.0
H1026 H 0.64049 0.91338 0.89516 0.0
S1027 S 0.61429 0.83003 0.98873 0.0
N1028 N 0.62851 0.83061 0.90988 0.0
N1029 N 0.61206 0.85513 0.01648 0.0
C1030 C 0.62312 0.86522 0.96066 0.0
C1031 C 0.63212 0.85194 0.90328 0.0
C1032 C 0.61794 0.62003 0.89579 0.0
C1033 C 0.6276 0.60191 0.92835 0.0
C1034 C 0.62621 0.62946 0.82999 0.0
C1035 C 0.64437 0.62107 0.79367 0.0
H1036 H 0.6039 0.6271 0.92143 0.0
H1037 H 0.61823 0.64344 0.80746 0.0
S1038 S 0.67559 0.5737 0.85557 0.0
N1039 N 0.65633 0.57586 0.91891 0.0
N1040 N 0.6718 0.59351 0.79538 0.0
C1041 C 0.65414 0.60289 0.82541 0.0
C1042 C 0.6458 0.59335 0.8927 0.0
C1043 C 0.61699 0.36744 0.19587 0.0
C1044 C 0.63572 0.35723 0.1705 0.0
C1045 C 0.60332 0.37793 0.14526 0.0
C1046 C 0.60797 0.37884 0.06743 0.0
H1047 H 0.61278 0.36735 0.25542 0.0
H1048 H 0.58921 0.3857 0.16765 0.0
S1049 S 0.65462 0.35412 0.97133 0.0
N1050 N 0.65789 0.34826 0.06176 0.0
N1051 N 0.63229 0.36805 0.96678 0.0
C1052 C 0.62651 0.3685 0.04104 0.0
C1053 C 0.64034 0.35766 0.09251 0.0
C1054 C 0.86762 0.3976 0.42429 0.0
C1055 C 0.8883 0.38966 0.43778 0.0
C1056 C 0.85528 0.39008 0.36377 0.0
C1057 C 0.86299 0.37408 0.31504 0.0
H1058 H 0.86097 0.40999 0.46004 0.0
H1059 H 0.83949 0.39676 0.35558 0.0
S1060 S 0.91597 0.34767 0.32643 0.0
N1061 N 0.91591 0.36478 0.39762 0.0
N1062 N 0.89258 0.35043 0.28439 0.0
C1063 C 0.88355 0.36581 0.32828 0.0
C1064 C 0.89624 0.37367 0.38943 0.0
C1065 C 0.87753 0.65011 0.62525 0.0
C1066 C 0.86171 0.64247 0.67493 0.0
C1067 C 0.88516 0.63749 0.56552 0.0
C1068 C 0.87704 0.61686 0.55245 0.0
H1069 H 0.88421 0.66594 0.63268 0.0
H1070 H 0.89738 0.64409 0.52886 0.0
S1071 S 0.83547 0.58927 0.66621 0.0
N1072 N 0.83821 0.6128 0.70718 0.0
N1073 N 0.85243 0.58923 0.59463 0.0
C1074 C 0.86118 0.60901 0.60156 0.0
C1075 C 0.85357 0.62176 0.6629 0.0
C1076 C 0.37834 0.3747 0.21571 0.0
C1077 C 0.36682 0.35681 0.18972 0.0
C1078 C 0.38998 0.38761 0.16579 0.0
C1079 C 0.39046 0.38328 0.08767 0.0
H1080 H 0.3782 0.37899 0.27517 0.0
H1081 H 0.39824 0.40138 0.18858 0.0
S1082 S 0.36414 0.33762 0.99083 0.0
N1083 N 0.35748 0.33487 0.0808 0.0
N1084 N 0.37929 0.35916 0.98693 0.0
C1085 C 0.37949 0.36512 0.06101 0.0
C1086 C 0.36772 0.35187 0.112 0.0
C1087 C 0.38596 0.60723 0.83846 0.0
C1088 C 0.38814 0.61283 0.91519 0.0
C1089 C 0.3746 0.62021 0.78805 0.0
C1090 C 0.36501 0.63939 0.81215 0.0
H1091 H 0.39281 0.59254 0.81707 0.0
H1092 H 0.37324 0.61502 0.72971 0.0
S1093 S 0.36676 0.66182 0.00684 0.0
N1094 N 0.38031 0.63928 0.01258 0.0
N1095 N 0.35896 0.66364 0.91777 0.0
C1096 C 0.36741 0.64543 0.88846 0.0
C1097 C 0.37895 0.63216 0.93996 0.0
C1098 C 0.14468 0.60869 0.65214 0.0
C1099 C 0.13593 0.62108 0.71074 0.0
C1100 C 0.13181 0.60079 0.5937 0.0
C1101 C 0.10967 0.60454 0.59298 0.0
H1102 H 0.16167 0.60542 0.65057 0.0
H1103 H 0.13924 0.59146 0.54919 0.0
S1104 S 0.07888 0.63558 0.73453 0.0
N1105 N 0.10381 0.63669 0.76495 0.0
N1106 N 0.07947 0.6212 0.6561 0.0
C1107 C 0.10065 0.61659 0.6519 0.0
C1108 C 0.11383 0.62507 0.71051 0.0
C1109 C 0.12564 0.35179 0.38822 0.0
C1110 C 0.12686 0.35711 0.31101 0.0
C1111 C 0.11327 0.36391 0.43839 0.0
C1112 C 0.10146 0.38169 0.41314 0.0
H1113 H 0.13483 0.33857 0.4107 0.0
H1114 H 0.11334 0.35951 0.49776 0.0
S1115 S 0.09753 0.40092 0.21451 0.0
N1116 N 0.11399 0.38038 0.21035 0.0
N1117 N 0.09065 0.40308 0.30446 0.0
C1118 C 0.10177 0.38659 0.33533 0.0
C1119 C 0.11452 0.37434 0.28435 0.0
loop_
_geom_bond_atom_site_label_1
_geom_bond_atom_site_label_2
_geom_bond_distance
_geom_bond_site_symmetry_2
_ccdc_geom_bond_type
C0 O1 1.160 . S
C0 O7 1.185 . S
O1 C0 1.160 . S
O2 Zn3 1.899 . S
O2 C10 1.284 . S
Zn3 O2 1.899 . S
Zn3 O4 2.032 . S
Zn3 O7 2.086 . S
Zn3 O12 1.977 . S
O4 Zn3 2.032 . S
O4 C8 1.278 . S
C5 O6 1.203 . S
C5 O12 1.267 . S
O6 C5 1.203 . S
O7 C0 1.185 . S
O7 Zn3 2.086 . S
C8 O4 1.278 . S
C8 O9 1.211 . S
O9 C8 1.211 . S
C10 O2 1.284 . S
C10 O11 1.273 . S
O11 C10 1.273 . S
O12 Zn3 1.977 . S
O12 C5 1.267 . S
C13 O14 1.160 . S
C13 O20 1.185 . S
O14 C13 1.160 . S
O15 Zn16 1.899 . S
O15 C23 1.284 . S
Zn16 O15 1.899 . S
Zn16 O17 2.032 . S
Zn16 O20 2.086 . S
Zn16 O25 1.977 . S
O17 Zn16 2.032 . S
O17 C21 1.278 . S
C18 O19 1.203 . S
C18 O25 1.267 . S
O19 C18 1.203 . S
O20 C13 1.185 . S
O20 Zn16 2.086 . S
C21 O17 1.278 . S
C21 O22 1.211 . S
O22 C21 1.211 . S
C23 O15 1.284 . S
C23 O24 1.273 . S
O24 C23 1.273 . S
O25 Zn16 1.977 . S
O25 C18 1.267 . S
C26 O27 1.160 . S
C26 O33 1.185 . S
O27 C26 1.160 . S
O28 Zn29 1.899 . S
O28 C36 1.284 . S
Zn29 O28 1.899 . S
Zn29 O30 2.032 . S
Zn29 O33 2.086 . S
Zn29 O38 1.977 . S
O30 Zn29 2.032 . S
O30 C34 1.278 . S
C31 O32 1.203 . S
C31 O38 1.267 . S
O32 C31 1.203 . S
O33 C26 1.185 . S
O33 Zn29 2.086 . S
C34 O30 1.278 . S
C34 O35 1.211 . S
O35 C34 1.211 . S
C36 O28 1.284 . S
C36 O37 1.273 . S
O37 C36 1.273 . S
O38 Zn29 1.977 . S
O38 C31 1.267 . S
C39 O40 1.160 . S
C39 O46 1.185 . S
O40 C39 1.160 . S
O41 Zn42 1.899 . S
O41 C49 1.284 . S
Zn42 O41 1.899 . S
Zn42 O43 2.032 . S
Zn42 O46 2.086 . S
Zn42 O51 1.977 . S
O43 Zn42 2.032 . S
O43 C47 1.278 1_556 S
C44 O45 1.203 . S
C44 O51 1.267 . S
O45 C44 1.203 . S
O46 C39 1.185 . S
O46 Zn42 2.086 . S
C47 O43 1.278 1_554 S
C47 O48 1.211 . S
O48 C47 1.211 . S
C49 O41 1.284 . S
C49 O50 1.273 . S
O50 C49 1.273 . S
O51 Zn42 1.977 . S
O51 C44 1.267 . S
C52 O53 1.160 . S
C52 O59 1.185 . S
O53 C52 1.160 . S
O54 Zn55 1.899 . S
O54 C62 1.284 . S
Zn55 O54 1.899 . S
Zn55 O56 2.032 . S
Zn55 O59 2.086 . S
Zn55 O64 1.977 . S
O56 Zn55 2.032 . S
O56 C60 1.278 . S
C57 O58 1.203 . S
C57 O64 1.267 . S
O58 C57 1.203 . S
O59 C52 1.185 . S
O59 Zn55 2.086 . S
C60 O56 1.278 . S
C60 O61 1.211 . S
O61 C60 1.211 . S
C62 O54 1.284 . S
C62 O63 1.273 . S
O63 C62 1.273 . S
O64 Zn55 1.977 . S
O64 C57 1.267 . S
C65 O66 1.160 . S
C65 O72 1.185 . S
O66 C65 1.160 . S
O67 Zn68 1.899 . S
O67 C75 1.284 . S
Zn68 O67 1.899 . S
Zn68 O69 2.032 . S
Zn68 O72 2.086 . S
Zn68 O77 1.977 . S
O69 Zn68 2.032 . S
O69 C73 1.278 1_554 S
C70 O71 1.203 . S
C70 O77 1.267 . S
O71 C70 1.203 . S
O72 C65 1.185 . S
O72 Zn68 2.086 . S
C73 O69 1.278 1_556 S
C73 O74 1.211 . S
O74 C73 1.211 . S
C75 O67 1.284 . S
C75 O76 1.273 . S
O76 C75 1.273 . S
O77 Zn68 1.977 . S
O77 C70 1.267 . S
C78 O79 1.160 . S
C78 O85 1.185 . S
O79 C78 1.160 . S
O80 Zn81 1.899 . S
O80 C88 1.284 . S
Zn81 O80 1.899 . S
Zn81 O82 2.032 . S
Zn81 O85 2.086 . S
Zn81 O90 1.977 . S
O82 Zn81 2.032 . S
O82 C86 1.278 . S
C83 O84 1.203 . S
C83 O90 1.267 . S
O84 C83 1.203 . S
O85 C78 1.185 . S
O85 Zn81 2.086 . S
C86 O82 1.278 . S
C86 O87 1.211 . S
O87 C86 1.211 . S
C88 O80 1.284 . S
C88 O89 1.273 . S
O89 C88 1.273 . S
O90 Zn81 1.977 . S
O90 C83 1.267 . S
C91 O92 1.160 . S
C91 O98 1.185 . S
O92 C91 1.160 . S
O93 Zn94 1.899 . S
O93 C101 1.284 . S
Zn94 O93 1.899 . S
Zn94 O95 2.032 . S
Zn94 O98 2.086 . S
Zn94 O103 1.977 . S
O95 Zn94 2.032 . S
O95 C99 1.278 . S
C96 O97 1.203 . S
C96 O103 1.267 . S
O97 C96 1.203 . S
O98 C91 1.185 . S
O98 Zn94 2.086 . S
C99 O95 1.278 . S
C99 O100 1.211 . S
O100 C99 1.211 . S
C101 O93 1.284 . S
C101 O102 1.273 . S
O102 C101 1.273 . S
O103 Zn94 1.977 . S
O103 C96 1.267 . S
C104 O105 1.160 . S
C104 O111 1.185 . S
O105 C104 1.160 . S
O106 Zn107 1.899 . S
O106 C114 1.284 . S
Zn107 O106 1.899 . S
Zn107 O108 2.032 . S
Zn107 O111 2.086 . S
Zn107 O116 1.977 . S
O108 Zn107 2.032 . S
O108 C112 1.278 . S
C109 O110 1.203 . S
C109 O116 1.267 . S
O110 C109 1.203 . S
O111 C104 1.185 . S
O111 Zn107 2.086 . S
C112 O108 1.278 . S
C112 O113 1.211 . S
O113 C112 1.211 . S
C114 O106 1.284 . S
C114 O115 1.273 . S
O115 C114 1.273 . S
O116 Zn107 1.977 . S
O116 C109 1.267 . S
C117 O118 1.160 . S
C117 O124 1.185 . S
O118 C117 1.160 . S
O119 Zn120 1.899 . S
O119 C127 1.284 . S
Zn120 O119 1.899 . S
Zn120 O121 2.032 . S
Zn120 O124 2.086 . S
Zn120 O129 1.977 . S
O121 Zn120 2.032 . S
O121 C125 1.278 . S
C122 O123 1.203 . S
C122 O129 1.267 . S
O123 C122 1.203 . S
O124 C117 1.185 . S
O124 Zn120 2.086 . S
C125 O121 1.278 . S
C125 O126 1.211 . S
O126 C125 1.211 . S
C127 O119 1.284 . S
C127 O128 1.273 . S
O128 C127 1.273 . S
O129 Zn120 1.977 . S
O129 C122 1.267 . S
C130 O131 1.160 . S
C130 O137 1.185 . S
O131 C130 1.160 . S
O132 Zn133 1.899 . S
O132 C140 1.284 . S
Zn133 O132 1.899 . S
Zn133 O134 2.032 . S
Zn133 O137 2.086 . S
Zn133 O142 1.977 . S
O134 Zn133 2.032 . S
O134 C138 1.278 . S
C135 O136 1.203 . S
C135 O142 1.267 . S
O136 C135 1.203 . S
O137 C130 1.185 . S
O137 Zn133 2.086 . S
C138 O134 1.278 . S
C138 O139 1.211 . S
O139 C138 1.211 . S
C140 O132 1.284 . S
C140 O141 1.273 . S
O141 C140 1.273 . S
O142 Zn133 1.977 . S
O142 C135 1.267 . S
C143 O144 1.160 . S
C143 O150 1.185 . S
O144 C143 1.160 . S
O145 Zn146 1.899 . S
O145 C153 1.284 . S
Zn146 O145 1.899 . S
Zn146 O147 2.032 . S
Zn146 O150 2.086 . S
Zn146 O155 1.977 . S
O147 Zn146 2.032 . S
O147 C151 1.278 1_554 S
C148 O149 1.203 . S
C148 O155 1.267 . S
O149 C148 1.203 . S
O150 C143 1.185 . S
O150 Zn146 2.086 . S
C151 O147 1.278 1_556 S
C151 O152 1.211 . S
O152 C151 1.211 . S
C153 O145 1.284 . S
C153 O154 1.273 . S
O154 C153 1.273 . S
O155 Zn146 1.977 . S
O155 C148 1.267 . S
C156 O157 1.160 . S
C156 O163 1.185 . S
O157 C156 1.160 . S
O158 Zn159 1.899 . S
O158 C166 1.284 . S
Zn159 O158 1.899 . S
Zn159 O160 2.032 . S
Zn159 O163 2.086 . S
Zn159 O168 1.977 . S
O160 Zn159 2.032 . S
O160 C164 1.278 . S
C161 O162 1.203 . S
C161 O168 1.267 . S
O162 C161 1.203 . S
O163 C156 1.185 . S
O163 Zn159 2.086 . S
C164 O160 1.278 . S
C164 O165 1.211 . S
O165 C164 1.211 . S
C166 O158 1.284 . S
C166 O167 1.273 . S
O167 C166 1.273 . S
O168 Zn159 1.977 . S
O168 C161 1.267 . S
C169 O170 1.160 . S
C169 O176 1.185 . S
O170 C169 1.160 . S
O171 Zn172 1.899 . S
O171 C179 1.284 . S
Zn172 O171 1.899 . S
Zn172 O173 2.032 . S
Zn172 O176 2.086 . S
Zn172 O181 1.977 . S
O173 Zn172 2.032 . S
O173 C177 1.278 1_556 S
C174 O175 1.203 . S
C174 O181 1.267 . S
O175 C174 1.203 . S
O176 C169 1.185 . S
O176 Zn172 2.086 . S
C177 O173 1.278 1_554 S
C177 O178 1.211 . S
O178 C177 1.211 . S
C179 O171 1.284 . S
C179 O180 1.273 . S
O180 C179 1.273 . S
O181 Zn172 1.977 . S
O181 C174 1.267 . S
C182 O183 1.160 . S
C182 O189 1.185 . S
O183 C182 1.160 . S
O184 Zn185 1.899 . S
O184 C192 1.284 . S
Zn185 O184 1.899 . S
Zn185 O186 2.032 . S
Zn185 O189 2.086 . S
Zn185 O194 1.977 . S
O186 Zn185 2.032 . S
O186 C190 1.278 . S
C187 O188 1.203 . S
C187 O194 1.267 . S
O188 C187 1.203 . S
O189 C182 1.185 . S
O189 Zn185 2.086 . S
C190 O186 1.278 . S
C190 O191 1.211 . S
O191 C190 1.211 . S
C192 O184 1.284 . S
C192 O193 1.273 . S
O193 C192 1.273 . S
O194 Zn185 1.977 . S
O194 C187 1.267 . S
C195 O196 1.160 . S
C195 O202 1.185 . S
O196 C195 1.160 . S
O197 Zn198 1.899 . S
O197 C205 1.284 . S
Zn198 O197 1.899 . S
Zn198 O199 2.032 . S
Zn198 O202 2.086 . S
Zn198 O207 1.977 . S
O199 Zn198 2.032 . S
O199 C203 1.278 . S
C200 O201 1.203 . S
C200 O207 1.267 . S
O201 C200 1.203 . S
O202 C195 1.185 . S
O202 Zn198 2.086 . S
C203 O199 1.278 . S
C203 O204 1.211 . S
O204 C203 1.211 . S
C205 O197 1.284 . S
C205 O206 1.273 . S
O206 C205 1.273 . S
O207 Zn198 1.977 . S
O207 C200 1.267 . S
C208 O209 1.160 . S
C208 O215 1.185 . S
O209 C208 1.160 . S
O210 Zn211 1.899 . S
O210 C218 1.284 . S
Zn211 O210 1.899 . S
Zn211 O212 2.032 . S
Zn211 O215 2.086 . S
Zn211 O220 1.977 . S
O212 Zn211 2.032 . S
O212 C216 1.278 . S
C213 O214 1.203 . S
C213 O220 1.267 . S
O214 C213 1.203 . S
O215 C208 1.185 . S
O215 Zn211 2.086 . S
C216 O212 1.278 . S
C216 O217 1.211 . S
O217 C216 1.211 . S
C218 O210 1.284 . S
C218 O219 1.273 . S
O219 C218 1.273 . S
O220 Zn211 1.977 . S
O220 C213 1.267 . S
C221 O222 1.160 . S
C221 O228 1.185 . S
O222 C221 1.160 . S
O223 Zn224 1.899 . S
O223 C231 1.284 . S
Zn224 O223 1.899 . S
Zn224 O225 2.032 . S
Zn224 O228 2.086 . S
Zn224 O233 1.977 . S
O225 Zn224 2.032 . S
O225 C229 1.278 1_556 S
C226 O227 1.203 . S
C226 O233 1.267 . S
O227 C226 1.203 . S
O228 C221 1.185 . S
O228 Zn224 2.086 . S
C229 O225 1.278 1_554 S
C229 O230 1.211 . S
O230 C229 1.211 . S
C231 O223 1.284 . S
C231 O232 1.273 . S
O232 C231 1.273 . S
O233 Zn224 1.977 . S
O233 C226 1.267 . S
C234 O235 1.160 . S
C234 O241 1.185 . S
O235 C234 1.160 . S
O236 Zn237 1.899 . S
O236 C244 1.284 . S
Zn237 O236 1.899 . S
Zn237 O238 2.032 . S
Zn237 O241 2.086 . S
Zn237 O246 1.977 . S
O238 Zn237 2.032 . S
O238 C242 1.278 . S
C239 O240 1.203 . S
C239 O246 1.267 . S
O240 C239 1.203 . S
O241 C234 1.185 . S
O241 Zn237 2.086 . S
C242 O238 1.278 . S
C242 O243 1.211 . S
O243 C242 1.211 . S
C244 O236 1.284 . S
C244 O245 1.273 . S
O245 C244 1.273 . S
O246 Zn237 1.977 . S
O246 C239 1.267 . S
C247 O248 1.160 . S
C247 O254 1.185 . S
O248 C247 1.160 . S
O249 Zn250 1.899 . S
O249 C257 1.284 . S
Zn250 O249 1.899 . S
Zn250 O251 2.032 . S
Zn250 O254 2.086 . S
Zn250 O259 1.977 . S
O251 Zn250 2.032 . S
O251 C255 1.278 . S
C252 O253 1.203 . S
C252 O259 1.267 . S
O253 C252 1.203 . S
O254 C247 1.185 . S
O254 Zn250 2.086 . S
C255 O251 1.278 . S
C255 O256 1.211 . S
O256 C255 1.211 . S
C257 O249 1.284 . S
C257 O258 1.273 . S
O258 C257 1.273 . S
O259 Zn250 1.977 . S
O259 C252 1.267 . S
C260 O261 1.160 . S
C260 O267 1.185 . S
O261 C260 1.160 . S
O262 Zn263 1.899 . S
O262 C270 1.284 . S
Zn263 O262 1.899 . S
Zn263 O264 2.032 . S
Zn263 O267 2.086 . S
Zn263 O272 1.977 . S
O264 Zn263 2.032 . S
O264 C268 1.278 . S
C265 O266 1.203 . S
C265 O272 1.267 . S
O266 C265 1.203 . S
O267 C260 1.185 . S
O267 Zn263 2.086 . S
C268 O264 1.278 . S
C268 O269 1.211 . S
O269 C268 1.211 . S
C270 O262 1.284 . S
C270 O271 1.273 . S
O271 C270 1.273 . S
O272 Zn263 1.977 . S
O272 C265 1.267 . S
C273 O274 1.160 . S
C273 O280 1.185 . S
O274 C273 1.160 . S
O275 Zn276 1.899 . S
O275 C283 1.284 . S
Zn276 O275 1.899 . S
Zn276 O277 2.032 . S
Zn276 O280 2.086 . S
Zn276 O285 1.977 . S
O277 Zn276 2.032 . S
O277 C281 1.278 . S
C278 O279 1.203 . S
C278 O285 1.267 . S
O279 C278 1.203 . S
O280 C273 1.185 . S
O280 Zn276 2.086 . S
C281 O277 1.278 . S
C281 O282 1.211 . S
O282 C281 1.211 . S
C283 O275 1.284 . S
C283 O284 1.273 . S
O284 C283 1.273 . S
O285 Zn276 1.977 . S
O285 C278 1.267 . S
C286 O287 1.160 . S
C286 O293 1.185 . S
O287 C286 1.160 . S
O288 Zn289 1.899 . S
O288 C296 1.284 . S
Zn289 O288 1.899 . S
Zn289 O290 2.032 . S
Zn289 O293 2.086 . S
Zn289 O298 1.977 . S
O290 Zn289 2.032 . S
O290 C294 1.278 . S
C291 O292 1.203 . S
C291 O298 1.267 . S
O292 C291 1.203 . S
O293 C286 1.185 . S
O293 Zn289 2.086 . S
C294 O290 1.278 . S
C294 O295 1.211 . S
O295 C294 1.211 . S
C296 O288 1.284 . S
C296 O297 1.273 . S
O297 C296 1.273 . S
O298 Zn289 1.977 . S
O298 C291 1.267 . S
C299 O300 1.160 . S
C299 O306 1.185 . S
O300 C299 1.160 . S
O301 Zn302 1.899 . S
O301 C309 1.284 . S
Zn302 O301 1.899 . S
Zn302 O303 2.032 . S
Zn302 O306 2.086 . S
Zn302 O311 1.977 . S
O303 Zn302 2.032 . S
O303 C307 1.278 1_554 S
C304 O305 1.203 . S
C304 O311 1.267 . S
O305 C304 1.203 . S
O306 C299 1.185 . S
O306 Zn302 2.086 . S
C307 O303 1.278 1_556 S
C307 O308 1.211 . S
O308 C307 1.211 . S
C309 O301 1.284 . S
C309 O310 1.273 . S
O310 C309 1.273 . S
O311 Zn302 1.977 . S
O311 C304 1.267 . S
C312 O313 1.160 . S
C312 O319 1.185 . S
O313 C312 1.160 . S
O314 Zn315 1.899 . S
O314 C322 1.284 . S
Zn315 O314 1.899 . S
Zn315 O316 2.032 . S
Zn315 O319 2.086 . S
Zn315 O324 1.977 . S
O316 Zn315 2.032 . S
O316 C320 1.278 . S
C317 O318 1.203 . S
C317 O324 1.267 . S
O318 C317 1.203 . S
O319 C312 1.185 . S
O319 Zn315 2.086 . S
C320 O316 1.278 . S
C320 O321 1.211 . S
O321 C320 1.211 . S
C322 O314 1.284 . S
C322 O323 1.273 . S
O323 C322 1.273 . S
O324 Zn315 1.977 . S
O324 C317 1.267 . S
C325 O326 1.160 . S
C325 O332 1.185 . S
O326 C325 1.160 . S
O327 Zn328 1.899 . S
O327 C335 1.284 . S
Zn328 O327 1.899 . S
Zn328 O329 2.032 . S
Zn328 O332 2.086 . S
Zn328 O337 1.977 . S
O329 Zn328 2.032 . S
O329 C333 1.278 1_554 S
C330 O331 1.203 . S
C330 O337 1.267 . S
O331 C330 1.203 . S
O332 C325 1.185 . S
O332 Zn328 2.086 . S
C333 O329 1.278 1_556 S
C333 O334 1.211 . S
O334 C333 1.211 . S
C335 O327 1.284 . S
C335 O336 1.273 . S
O336 C335 1.273 . S
O337 Zn328 1.977 . S
O337 C330 1.267 . S
C338 O339 1.160 . S
C338 O345 1.185 . S
O339 C338 1.160 . S
O340 Zn341 1.899 . S
O340 C348 1.284 . S
Zn341 O340 1.899 . S
Zn341 O342 2.032 . S
Zn341 O345 2.086 . S
Zn341 O350 1.977 . S
O342 Zn341 2.032 . S
O342 C346 1.278 . S
C343 O344 1.203 . S
C343 O350 1.267 . S
O344 C343 1.203 . S
O345 C338 1.185 . S
O345 Zn341 2.086 . S
C346 O342 1.278 . S
C346 O347 1.211 . S
O347 C346 1.211 . S
C348 O340 1.284 . S
C348 O349 1.273 . S
O349 C348 1.273 . S
O350 Zn341 1.977 . S
O350 C343 1.267 . S
C351 O352 1.160 . S
C351 O358 1.185 . S
O352 C351 1.160 . S
O353 Zn354 1.899 . S
O353 C361 1.284 . S
Zn354 O353 1.899 . S
Zn354 O355 2.032 . S
Zn354 O358 2.086 . S
Zn354 O363 1.977 . S
O355 Zn354 2.032 . S
O355 C359 1.278 . S
C356 O357 1.203 . S
C356 O363 1.267 . S
O357 C356 1.203 . S
O358 C351 1.185 . S
O358 Zn354 2.086 . S
C359 O355 1.278 . S
C359 O360 1.211 . S
O360 C359 1.211 . S
C361 O353 1.284 . S
C361 O362 1.273 . S
O362 C361 1.273 . S
O363 Zn354 1.977 . S
O363 C356 1.267 . S
C364 O365 1.160 . S
C364 O371 1.185 . S
O365 C364 1.160 . S
O366 Zn367 1.899 . S
O366 C374 1.284 . S
Zn367 O366 1.899 . S
Zn367 O368 2.032 . S
Zn367 O371 2.086 . S
Zn367 O376 1.977 . S
O368 Zn367 2.032 . S
O368 C372 1.278 . S
C369 O370 1.203 . S
C369 O376 1.267 . S
O370 C369 1.203 . S
O371 C364 1.185 . S
O371 Zn367 2.086 . S
C372 O368 1.278 . S
C372 O373 1.211 . S
O373 C372 1.211 . S
C374 O366 1.284 . S
C374 O375 1.273 . S
O375 C374 1.273 . S
O376 Zn367 1.977 . S
O376 C369 1.267 . S
C377 O378 1.160 . S
C377 O384 1.185 . S
O378 C377 1.160 . S
O379 Zn380 1.899 . S
O379 C387 1.284 . S
Zn380 O379 1.899 . S
Zn380 O381 2.032 . S
Zn380 O384 2.086 . S
Zn380 O389 1.977 . S
O381 Zn380 2.032 . S
O381 C385 1.278 . S
C382 O383 1.203 . S
C382 O389 1.267 . S
O383 C382 1.203 . S
O384 C377 1.185 . S
O384 Zn380 2.086 . S
C385 O381 1.278 . S
C385 O386 1.211 . S
O386 C385 1.211 . S
C387 O379 1.284 . S
C387 O388 1.273 . S
O388 C387 1.273 . S
O389 Zn380 1.977 . S
O389 C382 1.267 . S
C390 O391 1.160 . S
C390 O397 1.185 . S
O391 C390 1.160 . S
O392 Zn393 1.899 . S
O392 C400 1.284 . S
Zn393 O392 1.899 . S
Zn393 O394 2.032 . S
Zn393 O397 2.086 . S
Zn393 O402 1.977 . S
O394 Zn393 2.032 . S
O394 C398 1.278 . S
C395 O396 1.203 . S
C395 O402 1.267 . S
O396 C395 1.203 . S
O397 C390 1.185 . S
O397 Zn393 2.086 . S
C398 O394 1.278 . S
C398 O399 1.211 . S
O399 C398 1.211 . S
C400 O392 1.284 . S
C400 O401 1.273 . S
O401 C400 1.273 . S
O402 Zn393 1.977 . S
O402 C395 1.267 . S
C403 O404 1.160 . S
C403 O410 1.185 . S
O404 C403 1.160 . S
O405 Zn406 1.899 . S
O405 C413 1.284 . S
Zn406 O405 1.899 . S
Zn406 O407 2.032 . S
Zn406 O410 2.086 . S
Zn406 O415 1.977 . S
O407 Zn406 2.032 . S
O407 C411 1.278 1_556 S
C408 O409 1.203 . S
C408 O415 1.267 . S
O409 C408 1.203 . S
O410 C403 1.185 . S
O410 Zn406 2.086 . S
C411 O407 1.278 1_554 S
C411 O412 1.211 . S
O412 C411 1.211 . S
C413 O405 1.284 . S
C413 O414 1.273 . S
O414 C413 1.273 . S
O415 Zn406 1.977 . S
O415 C408 1.267 . S
C416 C417 1.369 . S
C416 C418 1.419 . S
C416 H420 0.930 . S
C417 C416 1.369 . S
C417 C426 1.429 . S
C418 C416 1.419 . S
C418 C419 1.363 . S
C418 H421 0.929 . S
C419 C418 1.363 . S
C419 C425 1.428 . S
H420 C416 0.930 . S
H421 C418 0.929 . S
S422 N423 1.613 . S
S422 N424 1.610 . S
N423 S422 1.613 . S
N423 C426 1.350 . S
N424 S422 1.610 . S
N424 C425 1.351 . S
C425 C419 1.428 . S
C425 N424 1.351 . S
C425 C426 1.434 . S
C426 C417 1.429 . S
C426 N423 1.350 . S
C426 C425 1.434 . S
C427 C428 1.369 . S
C427 C429 1.419 1_565 S
C427 H431 0.930 . S
C428 C427 1.369 . S
C428 C437 1.429 . S
C429 C427 1.419 1_545 S
C429 C430 1.363 . S
C429 H432 0.929 . S
C430 C429 1.363 . S
C430 C436 1.428 . S
H431 C427 0.930 . S
H432 C429 0.929 . S
S433 N434 1.613 . S
S433 N435 1.610 1_565 S
N434 S433 1.613 . S
N434 C437 1.350 . S
N435 S433 1.610 1_545 S
N435 C436 1.351 . S
C436 C430 1.428 . S
C436 N435 1.351 . S
C436 C437 1.434 1_545 S
C437 C428 1.429 . S
C437 N434 1.350 . S
C437 C436 1.434 1_565 S
C438 C439 1.369 . S
C438 C440 1.419 . S
C438 H442 0.930 . S
C439 C438 1.369 . S
C439 C448 1.429 . S
C440 C438 1.419 . S
C440 C441 1.363 . S
C440 H443 0.929 . S
C441 C440 1.363 . S
C441 C447 1.428 . S
H442 C438 0.930 . S
H443 C440 0.929 . S
S444 N445 1.613 . S
S444 N446 1.610 . S
N445 S444 1.613 . S
N445 C448 1.350 . S
N446 S444 1.610 . S
N446 C447 1.351 . S
C447 C441 1.428 . S
C447 N446 1.351 . S
C447 C448 1.434 . S
C448 C439 1.429 . S
C448 N445 1.350 . S
C448 C447 1.434 . S
C449 C450 1.369 1_554 S
C449 C451 1.419 1_545 S
C449 H453 0.930 . S
C450 C449 1.369 1_556 S
C450 C459 1.429 . S
C451 C449 1.419 1_565 S
C451 C452 1.363 . S
C451 H454 0.929 . S
C452 C451 1.363 . S
C452 C458 1.428 1_554 S
H453 C449 0.930 . S
H454 C451 0.929 . S
S455 N456 1.613 1_565 S
S455 N457 1.610 . S
N456 S455 1.613 1_545 S
N456 C459 1.350 . S
N457 S455 1.610 . S
N457 C458 1.351 . S
C458 C452 1.428 1_556 S
C458 N457 1.351 . S
C458 C459 1.434 1_565 S
C459 C450 1.429 . S
C459 N456 1.350 . S
C459 C458 1.434 1_545 S
C460 C461 1.369 . S
C460 C462 1.419 . S
C460 H464 0.930 . S
C461 C460 1.369 . S
C461 C470 1.429 . S
C462 C460 1.419 . S
C462 C463 1.363 . S
C462 H465 0.929 . S
C463 C462 1.363 . S
C463 C469 1.428 . S
H464 C460 0.930 . S
H465 C462 0.929 . S
S466 N467 1.613 . S
S466 N468 1.610 . S
N467 S466 1.613 . S
N467 C470 1.350 . S
N468 S466 1.610 . S
N468 C469 1.351 . S
C469 C463 1.428 . S
C469 N468 1.351 . S
C469 C470 1.434 . S
C470 C461 1.429 . S
C470 N467 1.350 . S
C470 C469 1.434 . S
C471 C472 1.369 . S
C471 C473 1.419 1_565 S
C471 H475 0.930 . S
C472 C471 1.369 . S
C472 C481 1.429 . S
C473 C471 1.419 1_545 S
C473 C474 1.363 . S
C473 H476 0.929 . S
C474 C473 1.363 . S
C474 C480 1.428 . S
H475 C471 0.930 . S
H476 C473 0.929 . S
S477 N478 1.613 1_545 S
S477 N479 1.610 . S
N478 S477 1.613 1_565 S
N478 C481 1.350 . S
N479 S477 1.610 . S
N479 C480 1.351 . S
C480 C474 1.428 . S
C480 N479 1.351 . S
C480 C481 1.434 1_545 S
C481 C472 1.429 . S
C481 N478 1.350 . S
C481 C480 1.434 1_565 S
C482 C483 1.369 . S
C482 C484 1.419 . S
C482 H486 0.930 . S
C483 C482 1.369 . S
C483 C492 1.429 . S
C484 C482 1.419 . S
C484 C485 1.363 . S
C484 H487 0.929 . S
C485 C484 1.363 . S
C485 C491 1.428 . S
H486 C482 0.930 . S
H487 C484 0.929 . S
S488 N489 1.613 . S
S488 N490 1.610 . S
N489 S488 1.613 . S
N489 C492 1.350 . S
N490 S488 1.610 . S
N490 C491 1.351 . S
C491 C485 1.428 . S
C491 N490 1.351 . S
C491 C492 1.434 . S
C492 C483 1.429 . S
C492 N489 1.350 . S
C492 C491 1.434 . S
C493 C494 1.369 . S
C493 C495 1.419 1_545 S
C493 H497 0.930 . S
C494 C493 1.369 . S
C494 C503 1.429 1_556 S
C495 C493 1.419 1_565 S
C495 C496 1.363 1_556 S
C495 H498 0.929 . S
C496 C495 1.363 1_554 S
C496 C502 1.428 . S
H497 C493 0.930 . S
H498 C495 0.929 . S
S499 N500 1.613 . S
S499 N501 1.610 1_545 S
N500 S499 1.613 . S
N500 C503 1.350 . S
N501 S499 1.610 1_565 S
N501 C502 1.351 . S
C502 C496 1.428 . S
C502 N501 1.351 . S
C502 C503 1.434 1_565 S
C503 C494 1.429 1_554 S
C503 N500 1.350 . S
C503 C502 1.434 1_545 S
C504 C505 1.369 . S
C504 C506 1.419 . S
C504 H508 0.930 . S
C505 C504 1.369 . S
C505 C514 1.429 . S
C506 C504 1.419 . S
C506 C507 1.363 . S
C506 H509 0.929 . S
C507 C506 1.363 . S
C507 C513 1.428 . S
H508 C504 0.930 . S
H509 C506 0.929 . S
S510 N511 1.613 . S
S510 N512 1.610 . S
N511 S510 1.613 . S
N511 C514 1.350 . S
N512 S510 1.610 . S
N512 C513 1.351 . S
C513 C507 1.428 . S
C513 N512 1.351 . S
C513 C514 1.434 . S
C514 C505 1.429 . S
C514 N511 1.350 . S
C514 C513 1.434 . S
C515 C516 1.369 1_554 S
C515 C517 1.419 . S
C515 H519 0.930 . S
C516 C515 1.369 1_556 S
C516 C525 1.429 . S
C517 C515 1.419 . S
C517 C518 1.363 . S
C517 H520 0.929 . S
C518 C517 1.363 . S
C518 C524 1.428 1_554 S
H519 C515 0.930 . S
H520 C517 0.929 . S
S521 N522 1.613 . S
S521 N523 1.610 . S
N522 S521 1.613 . S
N522 C525 1.350 . S
N523 S521 1.610 . S
N523 C524 1.351 . S
C524 C518 1.428 1_556 S
C524 N523 1.351 . S
C524 C525 1.434 . S
C525 C516 1.429 . S
C525 N522 1.350 . S
C525 C524 1.434 . S
C526 C527 1.369 . S
C526 C528 1.419 . S
C526 H530 0.930 . S
C527 C526 1.369 . S
C527 C536 1.429 . S
C528 C526 1.419 . S
C528 C529 1.363 . S
C528 H531 0.929 . S
C529 C528 1.363 . S
C529 C535 1.428 . S
H530 C526 0.930 . S
H531 C528 0.929 . S
S532 N533 1.613 . S
S532 N534 1.610 . S
N533 S532 1.613 . S
N533 C536 1.350 . S
N534 S532 1.610 . S
N534 C535 1.351 . S
C535 C529 1.428 . S
C535 N534 1.351 . S
C535 C536 1.434 . S
C536 C527 1.429 . S
C536 N533 1.350 . S
C536 C535 1.434 . S
C537 C538 1.369 . S
C537 C539 1.419 . S
C537 H541 0.930 . S
C538 C537 1.369 . S
C538 C547 1.429 . S
C539 C537 1.419 . S
C539 C540 1.363 . S
C539 H542 0.929 . S
C540 C539 1.363 . S
C540 C546 1.428 . S
H541 C537 0.930 . S
H542 C539 0.929 . S
S543 N544 1.613 . S
S543 N545 1.610 . S
N544 S543 1.613 . S
N544 C547 1.350 . S
N545 S543 1.610 . S
N545 C546 1.351 . S
C546 C540 1.428 . S
C546 N545 1.351 . S
C546 C547 1.434 . S
C547 C538 1.429 . S
C547 N544 1.350 . S
C547 C546 1.434 . S
C548 C549 1.369 . S
C548 C550 1.419 . S
C548 H552 0.930 . S
C549 C548 1.369 . S
C549 C558 1.429 . S
C550 C548 1.419 . S
C550 C551 1.363 . S
C550 H553 0.929 . S
C551 C550 1.363 . S
C551 C557 1.428 . S
H552 C548 0.930 . S
H553 C550 0.929 . S
S554 N555 1.613 . S
S554 N556 1.610 . S
N555 S554 1.613 . S
N555 C558 1.350 . S
N556 S554 1.610 . S
N556 C557 1.351 . S
C557 C551 1.428 . S
C557 N556 1.351 . S
C557 C558 1.434 . S
C558 C549 1.429 . S
C558 N555 1.350 . S
C558 C557 1.434 . S
C559 C560 1.369 . S
C559 C561 1.419 . S
C559 H563 0.930 . S
C560 C559 1.369 . S
C560 C569 1.429 1_554 S
C561 C559 1.419 . S
C561 C562 1.363 1_554 S
C561 H564 0.929 . S
C562 C561 1.363 1_556 S
C562 C568 1.428 . S
H563 C559 0.930 . S
H564 C561 0.929 . S
S565 N566 1.613 . S
S565 N567 1.610 . S
N566 S565 1.613 . S
N566 C569 1.350 . S
N567 S565 1.610 . S
N567 C568 1.351 . S
C568 C562 1.428 . S
C568 N567 1.351 . S
C568 C569 1.434 . S
C569 C560 1.429 1_556 S
C569 N566 1.350 . S
C569 C568 1.434 . S
C570 C571 1.369 . S
C570 C572 1.419 . S
C570 H574 0.930 . S
C571 C570 1.369 . S
C571 C580 1.429 . S
C572 C570 1.419 . S
C572 C573 1.363 . S
C572 H575 0.929 . S
C573 C572 1.363 . S
C573 C579 1.428 . S
H574 C570 0.930 . S
H575 C572 0.929 . S
S576 N577 1.613 . S
S576 N578 1.610 . S
N577 S576 1.613 . S
N577 C580 1.350 . S
N578 S576 1.610 . S
N578 C579 1.351 . S
C579 C573 1.428 . S
C579 N578 1.351 . S
C579 C580 1.434 . S
C580 C571 1.429 . S
C580 N577 1.350 . S
C580 C579 1.434 . S
C581 C582 1.369 . S
C581 C583 1.419 . S
C581 H585 0.930 . S
C582 C581 1.369 . S
C582 C591 1.429 . S
C583 C581 1.419 . S
C583 C584 1.363 . S
C583 H586 0.929 . S
C584 C583 1.363 . S
C584 C590 1.428 . S
H585 C581 0.930 . S
H586 C583 0.929 . S
S587 N588 1.613 . S
S587 N589 1.610 . S
N588 S587 1.613 . S
N588 C591 1.350 . S
N589 S587 1.610 . S
N589 C590 1.351 . S
C590 C584 1.428 . S
C590 N589 1.351 . S
C590 C591 1.434 . S
C591 C582 1.429 . S
C591 N588 1.350 . S
C591 C590 1.434 . S
C592 C593 1.369 . S
C592 C594 1.419 . S
C592 H596 0.930 . S
C593 C592 1.369 . S
C593 C602 1.429 . S
C594 C592 1.419 . S
C594 C595 1.363 . S
C594 H597 0.929 . S
C595 C594 1.363 . S
C595 C601 1.428 . S
H596 C592 0.930 . S
H597 C594 0.929 . S
S598 N599 1.613 . S
S598 N600 1.610 . S
N599 S598 1.613 . S
N599 C602 1.350 . S
N600 S598 1.610 . S
N600 C601 1.351 . S
C601 C595 1.428 . S
C601 N600 1.351 . S
C601 C602 1.434 . S
C602 C593 1.429 . S
C602 N599 1.350 . S
C602 C601 1.434 . S
C603 C604 1.369 . S
C603 C605 1.419 . S
C603 H607 0.930 . S
C604 C603 1.369 . S
C604 C613 1.429 . S
C605 C603 1.419 . S
C605 C606 1.363 . S
C605 H608 0.929 . S
C606 C605 1.363 . S
C606 C612 1.428 . S
H607 C603 0.930 . S
H608 C605 0.929 . S
S609 N610 1.613 . S
S609 N611 1.610 . S
N610 S609 1.613 . S
N610 C613 1.350 . S
N611 S609 1.610 . S
N611 C612 1.351 . S
C612 C606 1.428 . S
C612 N611 1.351 . S
C612 C613 1.434 . S
C613 C604 1.429 . S
C613 N610 1.350 . S
C613 C612 1.434 . S
C614 C615 1.369 . S
C614 C616 1.419 . S
C614 H618 0.930 . S
C615 C614 1.369 . S
C615 C624 1.429 . S
C616 C614 1.419 . S
C616 C617 1.363 . S
C616 H619 0.929 . S
C617 C616 1.363 . S
C617 C623 1.428 . S
H618 C614 0.930 . S
H619 C616 0.929 . S
S620 N621 1.613 . S
S620 N622 1.610 . S
N621 S620 1.613 . S
N621 C624 1.350 . S
N622 S620 1.610 . S
N622 C623 1.351 . S
C623 C617 1.428 . S
C623 N622 1.351 . S
C623 C624 1.434 . S
C624 C615 1.429 . S
C624 N621 1.350 . S
C624 C623 1.434 . S
C625 C626 1.369 . S
C625 C627 1.419 . S
C625 H629 0.930 . S
C626 C625 1.369 . S
C626 C635 1.429 . S
C627 C625 1.419 . S
C627 C628 1.363 . S
C627 H630 0.929 . S
C628 C627 1.363 . S
C628 C634 1.428 . S
H629 C625 0.930 . S
H630 C627 0.929 . S
S631 N632 1.613 . S
S631 N633 1.610 . S
N632 S631 1.613 . S
N632 C635 1.350 . S
N633 S631 1.610 . S
N633 C634 1.351 . S
C634 C628 1.428 . S
C634 N633 1.351 . S
C634 C635 1.434 . S
C635 C626 1.429 . S
C635 N632 1.350 . S
C635 C634 1.434 . S
C636 C637 1.369 . S
C636 C638 1.419 . S
C636 H640 0.930 . S
C637 C636 1.369 . S
C637 C646 1.429 . S
C638 C636 1.419 . S
C638 C639 1.363 . S
C638 H641 0.929 . S
C639 C638 1.363 . S
C639 C645 1.428 . S
H640 C636 0.930 . S
H641 C638 0.929 . S
S642 N643 1.613 . S
S642 N644 1.610 . S
N643 S642 1.613 . S
N643 C646 1.350 . S
N644 S642 1.610 . S
N644 C645 1.351 . S
C645 C639 1.428 . S
C645 N644 1.351 . S
C645 C646 1.434 . S
C646 C637 1.429 . S
C646 N643 1.350 . S
C646 C645 1.434 . S
C647 C648 1.369 . S
C647 C649 1.419 . S
C647 H651 0.930 . S
C648 C647 1.369 . S
C648 C657 1.429 . S
C649 C647 1.419 . S
C649 C650 1.363 . S
C649 H652 0.929 . S
C650 C649 1.363 . S
C650 C656 1.428 . S
H651 C647 0.930 . S
H652 C649 0.929 . S
S653 N654 1.613 . S
S653 N655 1.610 . S
N654 S653 1.613 . S
N654 C657 1.350 . S
N655 S653 1.610 . S
N655 C656 1.351 . S
C656 C650 1.428 . S
C656 N655 1.351 . S
C656 C657 1.434 . S
C657 C648 1.429 . S
C657 N654 1.350 . S
C657 C656 1.434 . S
C658 C659 1.369 . S
C658 C660 1.419 . S
C658 H662 0.930 . S
C659 C658 1.369 . S
C659 C668 1.429 . S
C660 C658 1.419 . S
C660 C661 1.363 . S
C660 H663 0.929 . S
C661 C660 1.363 . S
C661 C667 1.428 . S
H662 C658 0.930 . S
H663 C660 0.929 . S
S664 N665 1.613 . S
S664 N666 1.610 . S
N665 S664 1.613 . S
N665 C668 1.350 . S
N666 S664 1.610 . S
N666 C667 1.351 . S
C667 C661 1.428 . S
C667 N666 1.351 . S
C667 C668 1.434 . S
C668 C659 1.429 . S
C668 N665 1.350 . S
C668 C667 1.434 . S
C669 C670 1.369 . S
C669 C671 1.419 . S
C669 H673 0.930 . S
C670 C669 1.369 . S
C670 C679 1.429 . S
C671 C669 1.419 . S
C671 C672 1.363 . S
C671 H674 0.929 . S
C672 C671 1.363 . S
C672 C678 1.428 . S
H673 C669 0.930 . S
H674 C671 0.929 . S
S675 N676 1.613 . S
S675 N677 1.610 . S
N676 S675 1.613 . S
N676 C679 1.350 . S
N677 S675 1.610 . S
N677 C678 1.351 . S
C678 C672 1.428 . S
C678 N677 1.351 . S
C678 C679 1.434 . S
C679 C670 1.429 . S
C679 N676 1.350 . S
C679 C678 1.434 . S
C680 C681 1.369 . S
C680 C682 1.419 . S
C680 H684 0.930 . S
C681 C680 1.369 . S
C681 C690 1.429 . S
C682 C680 1.419 . S
C682 C683 1.363 . S
C682 H685 0.929 . S
C683 C682 1.363 . S
C683 C689 1.428 . S
H684 C680 0.930 . S
H685 C682 0.929 . S
S686 N687 1.613 . S
S686 N688 1.610 . S
N687 S686 1.613 . S
N687 C690 1.350 . S
N688 S686 1.610 . S
N688 C689 1.351 . S
C689 C683 1.428 . S
C689 N688 1.351 . S
C689 C690 1.434 . S
C690 C681 1.429 . S
C690 N687 1.350 . S
C690 C689 1.434 . S
C691 C692 1.369 . S
C691 C693 1.419 . S
C691 H695 0.930 . S
C692 C691 1.369 . S
C692 C701 1.429 . S
C693 C691 1.419 . S
C693 C694 1.363 . S
C693 H696 0.929 . S
C694 C693 1.363 . S
C694 C700 1.428 . S
H695 C691 0.930 . S
H696 C693 0.929 . S
S697 N698 1.613 . S
S697 N699 1.610 . S
N698 S697 1.613 . S
N698 C701 1.350 . S
N699 S697 1.610 . S
N699 C700 1.351 . S
C700 C694 1.428 . S
C700 N699 1.351 . S
C700 C701 1.434 . S
C701 C692 1.429 . S
C701 N698 1.350 . S
C701 C700 1.434 . S
C702 C703 1.369 . S
C702 C704 1.419 . S
C702 H706 0.930 . S
C703 C702 1.369 . S
C703 C712 1.429 . S
C704 C702 1.419 . S
C704 C705 1.363 . S
C704 H707 0.929 . S
C705 C704 1.363 . S
C705 C711 1.428 . S
H706 C702 0.930 . S
H707 C704 0.929 . S
S708 N709 1.613 . S
S708 N710 1.610 1_556 S
N709 S708 1.613 . S
N709 C712 1.350 . S
N710 S708 1.610 1_554 S
N710 C711 1.351 1_554 S
C711 C705 1.428 . S
C711 N710 1.351 1_556 S
C711 C712 1.434 . S
C712 C703 1.429 . S
C712 N709 1.350 . S
C712 C711 1.434 . S
C713 C714 1.369 . S
C713 C715 1.419 . S
C713 H717 0.930 . S
C714 C713 1.369 . S
C714 C723 1.429 . S
C715 C713 1.419 . S
C715 C716 1.363 . S
C715 H718 0.929 . S
C716 C715 1.363 . S
C716 C722 1.428 . S
H717 C713 0.930 . S
H718 C715 0.929 . S
S719 N720 1.613 . S
S719 N721 1.610 1_554 S
N720 S719 1.613 . S
N720 C723 1.350 . S
N721 S719 1.610 1_556 S
N721 C722 1.351 1_556 S
C722 C716 1.428 . S
C722 N721 1.351 1_554 S
C722 C723 1.434 . S
C723 C714 1.429 . S
C723 N720 1.350 . S
C723 C722 1.434 . S
C724 C725 1.369 . S
C724 C726 1.419 . S
C724 H728 0.930 . S
C725 C724 1.369 . S
C725 C734 1.429 . S
C726 C724 1.419 . S
C726 C727 1.363 . S
C726 H729 0.929 . S
C727 C726 1.363 . S
C727 C733 1.428 . S
H728 C724 0.930 . S
H729 C726 0.929 . S
S730 N731 1.613 . S
S730 N732 1.610 . S
N731 S730 1.613 . S
N731 C734 1.350 . S
N732 S730 1.610 . S
N732 C733 1.351 . S
C733 C727 1.428 . S
C733 N732 1.351 . S
C733 C734 1.434 . S
C734 C725 1.429 . S
C734 N731 1.350 . S
C734 C733 1.434 . S
C735 C736 1.369 . S
C735 C737 1.419 . S
C735 H739 0.930 . S
C736 C735 1.369 . S
C736 C745 1.429 . S
C737 C735 1.419 . S
C737 C738 1.363 . S
C737 H740 0.929 . S
C738 C737 1.363 . S
C738 C744 1.428 . S
H739 C735 0.930 . S
H740 C737 0.929 . S
S741 N742 1.613 . S
S741 N743 1.610 . S
N742 S741 1.613 . S
N742 C745 1.350 . S
N743 S741 1.610 . S
N743 C744 1.351 . S
C744 C738 1.428 . S
C744 N743 1.351 . S
C744 C745 1.434 . S
C745 C736 1.429 . S
C745 N742 1.350 . S
C745 C744 1.434 . S
C746 C747 1.369 . S
C746 C748 1.419 . S
C746 H750 0.930 . S
C747 C746 1.369 . S
C747 C756 1.429 . S
C748 C746 1.419 . S
C748 C749 1.363 . S
C748 H751 0.929 . S
C749 C748 1.363 . S
C749 C755 1.428 . S
H750 C746 0.930 . S
H751 C748 0.929 . S
S752 N753 1.613 . S
S752 N754 1.610 . S
N753 S752 1.613 . S
N753 C756 1.350 . S
N754 S752 1.610 . S
N754 C755 1.351 . S
C755 C749 1.428 . S
C755 N754 1.351 . S
C755 C756 1.434 . S
C756 C747 1.429 . S
C756 N753 1.350 . S
C756 C755 1.434 . S
C757 C758 1.369 . S
C757 C759 1.419 . S
C757 H761 0.930 . S
C758 C757 1.369 . S
C758 C767 1.429 . S
C759 C757 1.419 . S
C759 C760 1.363 . S
C759 H762 0.929 . S
C760 C759 1.363 . S
C760 C766 1.428 . S
H761 C757 0.930 . S
H762 C759 0.929 . S
S763 N764 1.613 . S
S763 N765 1.610 . S
N764 S763 1.613 . S
N764 C767 1.350 . S
N765 S763 1.610 . S
N765 C766 1.351 . S
C766 C760 1.428 . S
C766 N765 1.351 . S
C766 C767 1.434 . S
C767 C758 1.429 . S
C767 N764 1.350 . S
C767 C766 1.434 . S
C768 C769 1.369 . S
C768 C770 1.419 . S
C768 H772 0.930 . S
C769 C768 1.369 . S
C769 C778 1.429 . S
C770 C768 1.419 . S
C770 C771 1.363 . S
C770 H773 0.929 . S
C771 C770 1.363 . S
C771 C777 1.428 . S
H772 C768 0.930 . S
H773 C770 0.929 . S
S774 N775 1.613 . S
S774 N776 1.610 . S
N775 S774 1.613 . S
N775 C778 1.350 . S
N776 S774 1.610 . S
N776 C777 1.351 . S
C777 C771 1.428 . S
C777 N776 1.351 . S
C777 C778 1.434 . S
C778 C769 1.429 . S
C778 N775 1.350 . S
C778 C777 1.434 . S
C779 C780 1.369 . S
C779 C781 1.419 1_655 S
C779 H783 0.930 . S
C780 C779 1.369 . S
C780 C789 1.429 . S
C781 C779 1.419 1_455 S
C781 C782 1.363 . S
C781 H784 0.929 . S
C782 C781 1.363 . S
C782 C788 1.428 . S
H783 C779 0.930 . S
H784 C781 0.929 . S
S785 N786 1.617 1_455 S
S785 N787 1.606 . S
N786 S785 1.617 1_655 S
N786 C789 1.350 . S
N787 S785 1.606 . S
N787 C788 1.351 . S
C788 C782 1.428 . S
C788 N787 1.351 . S
C788 C789 1.434 1_455 S
C789 C780 1.429 . S
C789 N786 1.350 . S
C789 C788 1.434 1_655 S
C790 C791 1.369 . S
C790 C792 1.419 . S
C790 H794 0.930 . S
C791 C790 1.369 . S
C791 C800 1.429 . S
C792 C790 1.419 . S
C792 C793 1.363 . S
C792 H795 0.929 . S
C793 C792 1.363 . S
C793 C799 1.428 . S
H794 C790 0.930 . S
H795 C792 0.929 . S
S796 N797 1.613 . S
S796 N798 1.610 . S
N797 S796 1.613 . S
N797 C800 1.350 . S
N798 S796 1.610 . S
N798 C799 1.351 . S
C799 C793 1.428 . S
C799 N798 1.351 . S
C799 C800 1.434 . S
C800 C791 1.429 . S
C800 N797 1.350 . S
C800 C799 1.434 . S
C801 C802 1.369 . S
C801 C803 1.419 . S
C801 H805 0.930 . S
C802 C801 1.369 . S
C802 C811 1.429 . S
C803 C801 1.419 . S
C803 C804 1.363 . S
C803 H806 0.929 . S
C804 C803 1.363 . S
C804 C810 1.428 . S
H805 C801 0.930 . S
H806 C803 0.929 . S
S807 N808 1.613 . S
S807 N809 1.610 . S
N808 S807 1.613 . S
N808 C811 1.350 1_554 S
N809 S807 1.610 . S
N809 C810 1.351 1_554 S
C810 C804 1.428 . S
C810 N809 1.351 1_556 S
C810 C811 1.434 . S
C811 C802 1.429 . S
C811 N808 1.350 1_556 S
C811 C810 1.434 . S
C812 C813 1.369 . S
C812 C814 1.419 . S
C812 H816 0.930 . S
C813 C812 1.369 . S
C813 C822 1.429 . S
C814 C812 1.419 . S
C814 C815 1.363 . S
C814 H817 0.929 . S
C815 C814 1.363 . S
C815 C821 1.428 . S
H816 C812 0.930 . S
H817 C814 0.929 . S
S818 N819 1.613 . S
S818 N820 1.610 . S
N819 S818 1.613 . S
N819 C822 1.350 . S
N820 S818 1.610 . S
N820 C821 1.351 . S
C821 C815 1.428 . S
C821 N820 1.351 . S
C821 C822 1.434 . S
C822 C813 1.429 . S
C822 N819 1.350 . S
C822 C821 1.434 . S
C823 C824 1.369 . S
C823 C825 1.419 . S
C823 H827 0.930 1_554 S
C824 C823 1.369 . S
C824 C833 1.429 . S
C825 C823 1.419 . S
C825 C826 1.363 . S
C825 H828 0.929 1_554 S
C826 C825 1.363 . S
C826 C832 1.428 . S
H827 C823 0.930 1_556 S
H828 C825 0.929 1_556 S
S829 N830 1.613 . S
S829 N831 1.610 . S
N830 S829 1.613 . S
N830 C833 1.350 . S
N831 S829 1.610 . S
N831 C832 1.351 . S
C832 C826 1.428 . S
C832 N831 1.351 . S
C832 C833 1.434 . S
C833 C824 1.429 . S
C833 N830 1.350 . S
C833 C832 1.434 . S
C834 C835 1.369 . S
C834 C836 1.419 . S
C834 H838 0.930 . S
C835 C834 1.369 . S
C835 C844 1.429 . S
C836 C834 1.419 . S
C836 C837 1.363 . S
C836 H839 0.929 . S
C837 C836 1.363 . S
C837 C843 1.428 . S
H838 C834 0.930 . S
H839 C836 0.929 . S
S840 N841 1.613 . S
S840 N842 1.610 . S
N841 S840 1.613 . S
N841 C844 1.350 . S
N842 S840 1.610 . S
N842 C843 1.351 . S
C843 C837 1.428 . S
C843 N842 1.351 . S
C843 C844 1.434 . S
C844 C835 1.429 . S
C844 N841 1.350 . S
C844 C843 1.434 . S
C845 C846 1.369 . S
C845 C847 1.419 1_655 S
C845 H849 0.930 . S
C846 C845 1.369 . S
C846 C855 1.429 . S
C847 C845 1.419 1_455 S
C847 C848 1.363 . S
C847 H850 0.929 . S
C848 C847 1.363 . S
C848 C854 1.428 . S
H849 C845 0.930 . S
H850 C847 0.929 . S
S851 N852 1.617 1_455 S
S851 N853 1.606 . S
N852 S851 1.617 1_655 S
N852 C855 1.350 . S
N853 S851 1.606 . S
N853 C854 1.351 . S
C854 C848 1.428 . S
C854 N853 1.351 . S
C854 C855 1.434 1_455 S
C855 C846 1.429 . S
C855 N852 1.350 . S
C855 C854 1.434 1_655 S
C856 C857 1.369 . S
C856 C858 1.419 . S
C856 H860 0.930 . S
C857 C856 1.369 . S
C857 C866 1.429 . S
C858 C856 1.419 . S
C858 C859 1.363 . S
C858 H861 0.929 . S
C859 C858 1.363 . S
C859 C865 1.428 . S
H860 C856 0.930 . S
H861 C858 0.929 . S
S862 N863 1.613 . S
S862 N864 1.610 . S
N863 S862 1.613 . S
N863 C866 1.350 . S
N864 S862 1.610 . S
N864 C865 1.351 . S
C865 C859 1.428 . S
C865 N864 1.351 . S
C865 C866 1.434 . S
C866 C857 1.429 . S
C866 N863 1.350 . S
C866 C865 1.434 . S
C867 C868 1.369 . S
C867 C869 1.419 . S
C867 H871 0.930 . S
C868 C867 1.369 . S
C868 C877 1.429 . S
C869 C867 1.419 . S
C869 C870 1.363 . S
C869 H872 0.929 . S
C870 C869 1.363 . S
C870 C876 1.428 . S
H871 C867 0.930 . S
H872 C869 0.929 . S
S873 N874 1.613 . S
S873 N875 1.610 . S
N874 S873 1.613 . S
N874 C877 1.350 . S
N875 S873 1.610 . S
N875 C876 1.351 . S
C876 C870 1.428 . S
C876 N875 1.351 . S
C876 C877 1.434 . S
C877 C868 1.429 . S
C877 N874 1.350 . S
C877 C876 1.434 . S
C878 C879 1.369 . S
C878 C880 1.419 . S
C878 H882 0.930 . S
C879 C878 1.369 . S
C879 C888 1.429 . S
C880 C878 1.419 . S
C880 C881 1.363 . S
C880 H883 0.929 . S
C881 C880 1.363 . S
C881 C887 1.428 . S
H882 C878 0.930 . S
H883 C880 0.929 . S
S884 N885 1.613 . S
S884 N886 1.610 . S
N885 S884 1.613 . S
N885 C888 1.350 . S
N886 S884 1.610 . S
N886 C887 1.351 . S
C887 C881 1.428 . S
C887 N886 1.351 . S
C887 C888 1.434 . S
C888 C879 1.429 . S
C888 N885 1.350 . S
C888 C887 1.434 . S
C889 C890 1.369 . S
C889 C891 1.419 . S
C889 H893 0.930 . S
C890 C889 1.369 . S
C890 C899 1.429 . S
C891 C889 1.419 . S
C891 C892 1.363 . S
C891 H894 0.929 . S
C892 C891 1.363 . S
C892 C898 1.428 . S
H893 C889 0.930 . S
H894 C891 0.929 . S
S895 N896 1.613 . S
S895 N897 1.610 . S
N896 S895 1.613 . S
N896 C899 1.350 . S
N897 S895 1.610 . S
N897 C898 1.351 . S
C898 C892 1.428 . S
C898 N897 1.351 . S
C898 C899 1.434 . S
C899 C890 1.429 . S
C899 N896 1.350 . S
C899 C898 1.434 . S
C900 C901 1.369 . S
C900 C902 1.419 . S
C900 H904 0.930 . S
C901 C900 1.369 . S
C901 C910 1.429 . S
C902 C900 1.419 . S
C902 C903 1.363 . S
C902 H905 0.929 . S
C903 C902 1.363 . S
C903 C909 1.428 . S
H904 C900 0.930 . S
H905 C902 0.929 . S
S906 N907 1.613 . S
S906 N908 1.610 . S
N907 S906 1.613 . S
N907 C910 1.350 . S
N908 S906 1.610 . S
N908 C909 1.351 . S
C909 C903 1.428 . S
C909 N908 1.351 . S
C909 C910 1.434 . S
C910 C901 1.429 . S
C910 N907 1.350 . S
C910 C909 1.434 . S
C911 C912 1.369 . S
C911 C913 1.419 1_655 S
C911 H915 0.930 . S
C912 C911 1.369 . S
C912 C921 1.429 . S
C913 C911 1.419 1_455 S
C913 C914 1.363 . S
C913 H916 0.929 . S
C914 C913 1.363 . S
C914 C920 1.428 . S
H915 C911 0.930 . S
H916 C913 0.929 . S
S917 N918 1.617 1_455 S
S917 N919 1.606 . S
N918 S917 1.617 1_655 S
N918 C921 1.350 . S
N919 S917 1.606 . S
N919 C920 1.351 . S
C920 C914 1.428 . S
C920 N919 1.351 . S
C920 C921 1.434 1_455 S
C921 C912 1.429 . S
C921 N918 1.350 . S
C921 C920 1.434 1_655 S
C922 C923 1.369 . S
C922 C924 1.419 1_655 S
C922 H926 0.930 . S
C923 C922 1.369 . S
C923 C932 1.429 . S
C924 C922 1.419 1_455 S
C924 C925 1.363 . S
C924 H927 0.929 . S
C925 C924 1.363 . S
C925 C931 1.428 . S
H926 C922 0.930 . S
H927 C924 0.929 . S
S928 N929 1.617 1_455 S
S928 N930 1.606 . S
N929 S928 1.617 1_655 S
N929 C932 1.350 . S
N930 S928 1.606 . S
N930 C931 1.351 . S
C931 C925 1.428 . S
C931 N930 1.351 . S
C931 C932 1.434 1_455 S
C932 C923 1.429 . S
C932 N929 1.350 . S
C932 C931 1.434 1_655 S
C933 C934 1.369 . S
C933 C935 1.419 . S
C933 H937 0.930 . S
C934 C933 1.369 . S
C934 C943 1.429 . S
C935 C933 1.419 . S
C935 C936 1.363 . S
C935 H938 0.929 . S
C936 C935 1.363 . S
C936 C942 1.428 . S
H937 C933 0.930 . S
H938 C935 0.929 . S
S939 N940 1.613 . S
S939 N941 1.610 . S
N940 S939 1.613 . S
N940 C943 1.350 1_556 S
N941 S939 1.610 . S
N941 C942 1.351 1_556 S
C942 C936 1.428 . S
C942 N941 1.351 1_554 S
C942 C943 1.434 . S
C943 C934 1.429 . S
C943 N940 1.350 1_554 S
C943 C942 1.434 . S
C944 C945 1.369 . S
C944 C946 1.419 . S
C944 H948 0.930 . S
C945 C944 1.369 . S
C945 C954 1.429 . S
C946 C944 1.419 . S
C946 C947 1.363 . S
C946 H949 0.929 . S
C947 C946 1.363 . S
C947 C953 1.428 . S
H948 C944 0.930 . S
H949 C946 0.929 . S
S950 N951 1.613 . S
S950 N952 1.610 . S
N951 S950 1.613 . S
N951 C954 1.350 . S
N952 S950 1.610 . S
N952 C953 1.351 . S
C953 C947 1.428 . S
C953 N952 1.351 . S
C953 C954 1.434 . S
C954 C945 1.429 . S
C954 N951 1.350 . S
C954 C953 1.434 . S
C955 C956 1.369 . S
C955 C957 1.419 . S
C955 H959 0.930 . S
C956 C955 1.369 . S
C956 C965 1.429 . S
C957 C955 1.419 . S
C957 C958 1.363 . S
C957 H960 0.929 . S
C958 C957 1.363 . S
C958 C964 1.428 . S
H959 C955 0.930 . S
H960 C957 0.929 . S
S961 N962 1.613 . S
S961 N963 1.610 . S
N962 S961 1.613 . S
N962 C965 1.350 . S
N963 S961 1.610 . S
N963 C964 1.351 . S
C964 C958 1.428 . S
C964 N963 1.351 . S
C964 C965 1.434 . S
C965 C956 1.429 . S
C965 N962 1.350 . S
C965 C964 1.434 . S
C966 C967 1.369 . S
C966 C968 1.419 . S
C966 H970 0.930 . S
C967 C966 1.369 . S
C967 C976 1.429 . S
C968 C966 1.419 . S
C968 C969 1.363 . S
C968 H971 0.929 . S
C969 C968 1.363 . S
C969 C975 1.428 . S
H970 C966 0.930 . S
H971 C968 0.929 . S
S972 N973 1.613 . S
S972 N974 1.610 . S
N973 S972 1.613 . S
N973 C976 1.350 . S
N974 S972 1.610 . S
N974 C975 1.351 . S
C975 C969 1.428 . S
C975 N974 1.351 . S
C975 C976 1.434 . S
C976 C967 1.429 . S
C976 N973 1.350 . S
C976 C975 1.434 . S
C977 C978 1.369 . S
C977 C979 1.419 . S
C977 H981 0.930 . S
C978 C977 1.369 . S
C978 C987 1.429 . S
C979 C977 1.419 . S
C979 C980 1.363 . S
C979 H982 0.929 . S
C980 C979 1.363 . S
C980 C986 1.428 . S
H981 C977 0.930 . S
H982 C979 0.929 . S
S983 N984 1.613 . S
S983 N985 1.610 . S
N984 S983 1.613 . S
N984 C987 1.350 . S
N985 S983 1.610 . S
N985 C986 1.351 . S
C986 C980 1.428 . S
C986 N985 1.351 . S
C986 C987 1.434 . S
C987 C978 1.429 . S
C987 N984 1.350 . S
C987 C986 1.434 . S
C988 C989 1.369 . S
C988 C990 1.419 . S
C988 H992 0.930 . S
C989 C988 1.369 . S
C989 C998 1.429 . S
C990 C988 1.419 . S
C990 C991 1.363 . S
C990 H993 0.929 . S
C991 C990 1.363 . S
C991 C997 1.428 . S
H992 C988 0.930 . S
H993 C990 0.929 . S
S994 N995 1.613 . S
S994 N996 1.610 . S
N995 S994 1.613 . S
N995 C998 1.350 . S
N996 S994 1.610 . S
N996 C997 1.351 . S
C997 C991 1.428 . S
C997 N996 1.351 . S
C997 C998 1.434 . S
C998 C989 1.429 . S
C998 N995 1.350 . S
C998 C997 1.434 . S
C999 C1000 1.369 . S
C999 C1001 1.419 . S
C999 H1003 0.930 . S
C1000 C999 1.369 . S
C1000 C1009 1.429 . S
C1001 C999 1.419 . S
C1001 C1002 1.363 . S
C1001 H1004 0.929 . S
C1002 C1001 1.363 . S
C1002 C1008 1.428 . S
H1003 C999 0.930 . S
H1004 C1001 0.929 . S
S1005 N1006 1.613 . S
S1005 N1007 1.610 . S
N1006 S1005 1.613 . S
N1006 C1009 1.350 . S
N1007 S1005 1.610 . S
N1007 C1008 1.351 . S
C1008 C1002 1.428 . S
C1008 N1007 1.351 . S
C1008 C1009 1.434 . S
C1009 C1000 1.429 . S
C1009 N1006 1.350 . S
C1009 C1008 1.434 . S
C1010 C1011 1.369 . S
C1010 C1012 1.419 . S
C1010 H1014 0.930 . S
C1011 C1010 1.369 . S
C1011 C1020 1.429 . S
C1012 C1010 1.419 . S
C1012 C1013 1.363 . S
C1012 H1015 0.929 . S
C1013 C1012 1.363 . S
C1013 C1019 1.428 . S
H1014 C1010 0.930 . S
H1015 C1012 0.929 . S
S1016 N1017 1.613 . S
S1016 N1018 1.610 1_554 S
N1017 S1016 1.613 . S
N1017 C1020 1.350 . S
N1018 S1016 1.610 1_556 S
N1018 C1019 1.351 1_556 S
C1019 C1013 1.428 . S
C1019 N1018 1.351 1_554 S
C1019 C1020 1.434 . S
C1020 C1011 1.429 . S
C1020 N1017 1.350 . S
C1020 C1019 1.434 . S
C1021 C1022 1.369 . S
C1021 C1023 1.419 . S
C1021 H1025 0.930 . S
C1022 C1021 1.369 . S
C1022 C1031 1.429 . S
C1023 C1021 1.419 . S
C1023 C1024 1.363 . S
C1023 H1026 0.929 . S
C1024 C1023 1.363 . S
C1024 C1030 1.428 . S
H1025 C1021 0.930 . S
H1026 C1023 0.929 . S
S1027 N1028 1.613 . S
S1027 N1029 1.610 . S
N1028 S1027 1.613 . S
N1028 C1031 1.350 . S
N1029 S1027 1.610 . S
N1029 C1030 1.351 . S
C1030 C1024 1.428 . S
C1030 N1029 1.351 . S
C1030 C1031 1.434 . S
C1031 C1022 1.429 . S
C1031 N1028 1.350 . S
C1031 C1030 1.434 . S
C1032 C1033 1.369 . S
C1032 C1034 1.419 . S
C1032 H1036 0.930 . S
C1033 C1032 1.369 . S
C1033 C1042 1.429 . S
C1034 C1032 1.419 . S
C1034 C1035 1.363 . S
C1034 H1037 0.929 . S
C1035 C1034 1.363 . S
C1035 C1041 1.428 . S
H1036 C1032 0.930 . S
H1037 C1034 0.929 . S
S1038 N1039 1.613 . S
S1038 N1040 1.610 . S
N1039 S1038 1.613 . S
N1039 C1042 1.350 . S
N1040 S1038 1.610 . S
N1040 C1041 1.351 . S
C1041 C1035 1.428 . S
C1041 N1040 1.351 . S
C1041 C1042 1.434 . S
C1042 C1033 1.429 . S
C1042 N1039 1.350 . S
C1042 C1041 1.434 . S
C1043 C1044 1.369 . S
C1043 C1045 1.419 . S
C1043 H1047 0.930 . S
C1044 C1043 1.369 . S
C1044 C1053 1.429 . S
C1045 C1043 1.419 . S
C1045 C1046 1.363 . S
C1045 H1048 0.929 . S
C1046 C1045 1.363 . S
C1046 C1052 1.428 . S
H1047 C1043 0.930 . S
H1048 C1045 0.929 . S
S1049 N1050 1.613 . S
S1049 N1051 1.610 1_554 S
N1050 S1049 1.613 . S
N1050 C1053 1.350 . S
N1051 S1049 1.610 1_556 S
N1051 C1052 1.351 1_556 S
C1052 C1046 1.428 . S
C1052 N1051 1.351 1_554 S
C1052 C1053 1.434 . S
C1053 C1044 1.429 . S
C1053 N1050 1.350 . S
C1053 C1052 1.434 . S
C1054 C1055 1.369 . S
C1054 C1056 1.419 . S
C1054 H1058 0.930 . S
C1055 C1054 1.369 . S
C1055 C1064 1.429 . S
C1056 C1054 1.419 . S
C1056 C1057 1.363 . S
C1056 H1059 0.929 . S
C1057 C1056 1.363 . S
C1057 C1063 1.428 . S
H1058 C1054 0.930 . S
H1059 C1056 0.929 . S
S1060 N1061 1.613 . S
S1060 N1062 1.610 . S
N1061 S1060 1.613 . S
N1061 C1064 1.350 . S
N1062 S1060 1.610 . S
N1062 C1063 1.351 . S
C1063 C1057 1.428 . S
C1063 N1062 1.351 . S
C1063 C1064 1.434 . S
C1064 C1055 1.429 . S
C1064 N1061 1.350 . S
C1064 C1063 1.434 . S
C1065 C1066 1.369 . S
C1065 C1067 1.419 . S
C1065 H1069 0.930 . S
C1066 C1065 1.369 . S
C1066 C1075 1.429 . S
C1067 C1065 1.419 . S
C1067 C1068 1.363 . S
C1067 H1070 0.929 . S
C1068 C1067 1.363 . S
C1068 C1074 1.428 . S
H1069 C1065 0.930 . S
H1070 C1067 0.929 . S
S1071 N1072 1.613 . S
S1071 N1073 1.610 . S
N1072 S1071 1.613 . S
N1072 C1075 1.350 . S
N1073 S1071 1.610 . S
N1073 C1074 1.351 . S
C1074 C1068 1.428 . S
C1074 N1073 1.351 . S
C1074 C1075 1.434 . S
C1075 C1066 1.429 . S
C1075 N1072 1.350 . S
C1075 C1074 1.434 . S
C1076 C1077 1.369 . S
C1076 C1078 1.419 . S
C1076 H1080 0.930 . S
C1077 C1076 1.369 . S
C1077 C1086 1.429 . S
C1078 C1076 1.419 . S
C1078 C1079 1.363 . S
C1078 H1081 0.929 . S
C1079 C1078 1.363 . S
C1079 C1085 1.428 . S
H1080 C1076 0.930 . S
H1081 C1078 0.929 . S
S1082 N1083 1.613 . S
S1082 N1084 1.610 1_554 S
N1083 S1082 1.613 . S
N1083 C1086 1.350 . S
N1084 S1082 1.610 1_556 S
N1084 C1085 1.351 1_556 S
C1085 C1079 1.428 . S
C1085 N1084 1.351 1_554 S
C1085 C1086 1.434 . S
C1086 C1077 1.429 . S
C1086 N1083 1.350 . S
C1086 C1085 1.434 . S
C1087 C1088 1.369 . S
C1087 C1089 1.419 . S
C1087 H1091 0.930 . S
C1088 C1087 1.369 . S
C1088 C1097 1.429 . S
C1089 C1087 1.419 . S
C1089 C1090 1.363 . S
C1089 H1092 0.929 . S
C1090 C1089 1.363 . S
C1090 C1096 1.428 . S
H1091 C1087 0.930 . S
H1092 C1089 0.929 . S
S1093 N1094 1.614 . S
S1093 N1095 1.610 . S
N1094 S1093 1.614 . S
N1094 C1097 1.353 . S
N1095 S1093 1.610 . S
N1095 C1096 1.351 . S
C1096 C1090 1.428 . S
C1096 N1095 1.351 . S
C1096 C1097 1.434 . S
C1097 C1088 1.429 . S
C1097 N1094 1.353 . S
C1097 C1096 1.434 . S
C1098 C1099 1.369 . S
C1098 C1100 1.419 . S
C1098 H1102 0.930 . S
C1099 C1098 1.369 . S
C1099 C1108 1.429 . S
C1100 C1098 1.419 . S
C1100 C1101 1.363 . S
C1100 H1103 0.929 . S
C1101 C1100 1.363 . S
C1101 C1107 1.428 . S
H1102 C1098 0.930 . S
H1103 C1100 0.929 . S
S1104 N1105 1.613 . S
S1104 N1106 1.610 . S
N1105 S1104 1.613 . S
N1105 C1108 1.350 . S
N1106 S1104 1.610 . S
N1106 C1107 1.351 . S
C1107 C1101 1.428 . S
C1107 N1106 1.351 . S
C1107 C1108 1.434 . S
C1108 C1099 1.429 . S
C1108 N1105 1.350 . S
C1108 C1107 1.434 . S
C1109 C1110 1.369 . S
C1109 C1111 1.419 . S
C1109 H1113 0.930 . S
C1110 C1109 1.369 . S
C1110 C1119 1.429 . S
C1111 C1109 1.419 . S
C1111 C1112 1.363 . S
C1111 H1114 0.929 . S
C1112 C1111 1.363 . S
C1112 C1118 1.428 . S
H1113 C1109 0.930 . S
H1114 C1111 0.929 . S
S1115 N1116 1.613 . S
S1115 N1117 1.610 . S
N1116 S1115 1.613 . S
N1116 C1119 1.350 . S
N1117 S1115 1.610 . S
N1117 C1118 1.351 . S
C1118 C1112 1.428 . S
C1118 N1117 1.351 . S
C1118 C1119 1.434 . S
C1119 C1110 1.429 . S
C1119 N1116 1.350 . S
C1119 C1118 1.434 . S
C417 C83 1.449 . S
C419 C5 1.456 . S
C428 C18 1.451 . S
C430 C96 1.450 . S
C439 C57 1.455 . S
C441 C31 1.457 . S
C450 C44 1.453 . S
C452 C70 1.450 . S
C461 C109 1.450 . S
C463 C187 1.455 . S
C472 C200 1.453 . S
C474 C122 1.450 . S
C483 C135 1.458 . S
C485 C161 1.453 . S
C494 C174 1.450 . S
C496 C148 1.456 . S
C505 C213 1.449 . S
C507 C291 1.454 . S
C516 C226 1.455 . S
C518 C304 1.450 . S
C527 C265 1.457 . S
C529 C239 1.451 . S
C538 C278 1.449 . S
C540 C252 1.455 . S
C549 C317 1.453 . S
C551 C395 1.457 . S
C560 C330 1.449 . S
C562 C408 1.454 . S
C571 C369 1.452 . S
C573 C343 1.457 . S
C582 C356 1.458 . S
C584 C382 1.453 . S
C593 C0 1.498 1_556 S
C595 C91 1.501 . S
C604 C52 1.503 1_554 S
C606 C13 1.502 . S
C615 C65 1.500 . S
C617 C26 1.502 . S
C626 C39 1.503 . S
C628 C78 1.503 . S
C637 C104 1.498 1_554 S
C639 C195 1.500 . S
C648 C156 1.497 1_556 S
C650 C117 1.498 . S
C659 C169 1.503 . S
C661 C130 1.502 . S
C670 C182 1.503 . S
C672 C143 1.500 . S
C681 C208 1.498 . S
C683 C299 1.500 . S
C692 C221 1.499 . S
C694 C260 1.498 . S
C703 C273 1.498 . S
C705 C234 1.501 1_556 S
C714 C247 1.499 . S
C716 C286 1.501 1_554 S
C725 C312 1.499 . S
C727 C403 1.501 . S
C736 C364 1.497 . S
C738 C325 1.498 . S
C747 C338 1.503 1_554 S
C749 C377 1.503 . S
C758 C351 1.502 . S
C760 C390 1.500 1_556 S
C769 C400 1.452 . S
C771 C10 1.453 . S
C780 C205 1.454 . S
C782 C23 1.454 . S
C791 C36 1.456 . S
C793 C374 1.455 . S
C802 C49 1.453 . S
C804 C179 1.453 . S
C813 C62 1.456 . S
C815 C348 1.455 . S
C824 C75 1.456 . S
C826 C153 1.456 . S
C835 C88 1.453 . S
C837 C322 1.453 . S
C846 C127 1.452 . S
C848 C101 1.453 . S
C857 C296 1.453 . S
C859 C114 1.454 . S
C868 C140 1.454 . S
C870 C270 1.454 . S
C879 C244 1.455 . S
C881 C166 1.455 . S
C890 C218 1.456 . S
C892 C192 1.455 . S
C901 C231 1.455 . S
C903 C413 1.455 . S
C912 C257 1.452 . S
C914 C387 1.453 . S
C923 C283 1.456 . S
C925 C361 1.456 . S
C934 C335 1.452 . S
C936 C309 1.453 . S
C945 C8 1.135 . S
C947 C99 1.137 . S
C956 C21 1.139 . S
C958 C60 1.135 . S
C967 C73 1.135 . S
C969 C34 1.142 . S
C978 C47 1.135 . S
C980 C86 1.142 . S
C989 C203 1.138 . S
C991 C112 1.135 . S
C1000 C164 1.143 . S
C1002 C125 1.142 . S
C1011 C138 1.138 . S
C1013 C177 1.143 . S
C1022 C190 1.142 . S
C1024 C151 1.143 . S
C1033 C307 1.137 . S
C1035 C216 1.136 . S
C1044 C268 1.136 . S
C1046 C229 1.143 . S
C1055 C281 1.135 . S
C1057 C242 1.142 . S
C1066 C294 1.140 . S
C1068 C255 1.135 . S
C1077 C320 1.138 . S
C1079 C411 1.143 . S
C1088 C333 1.144 . S
C1090 C372 1.137 . S
C1099 C346 1.144 . S
C1101 C385 1.140 . S
C1110 C398 1.143 . S
C1112 C359 1.136 . S
