# Generated by pormake.
# Topology qtz-x, (6)-cn, num edge types: 1
# Building blocks:
#     Node 0, Type 0, BuildingBlock: KUMJIN_clean_sbu_1, # of connection points: 6
#     Node 1, Type 0, BuildingBlock: KUMJIN_clean_sbu_1, # of connection points: 6
#     Node 2, Type 0, BuildingBlock: KUMJIN_clean_sbu_1, # of connection points: 6
#     Edge 3, Type (0, 0), BuildingBlock: FUNLAD_clean_linker_0, # of connection points: 2
#     Edge 4, Type (0, 0), BuildingBlock: FUNLAD_clean_linker_0, # of connection points: 2
#     Edge 5, Type (0, 0), BuildingBlock: FUNLAD_clean_linker_0, # of connection points: 2
#     Edge 6, Type (0, 0), BuildingBlock: FUNLAD_clean_linker_0, # of connection points: 2
#     Edge 7, Type (0, 0), BuildingBlock: FUNLAD_clean_linker_0, # of connection points: 2
#     Edge 8, Type (0, 0), BuildingBlock: FUNLAD_clean_linker_0, # of connection points: 2
#     Edge 9, Type (0, 0), BuildingBlock: FUNLAD_clean_linker_0, # of connection points: 2
#     Edge 10, Type (0, 0), BuildingBlock: FUNLAD_clean_linker_0, # of connection points: 2
#     Edge 11, Type (0, 0), BuildingBlock: FUNLAD_clean_linker_0, # of connection points: 2
# Relax obj value: 0.204
# Max RMSD: 0.278
# Mean RMSD: 0.278
data_MOF--net-qtz-x--node1-KUMJIN_clean_sbu_1--edge1-FUNLAD_clean_linker_0
_symmetry_space_group_name_H-M    P1
_symmetry_Int_Tables_number       1
_symmetry_cell_setting            triclinic
loop_
_symmetry_equiv_pos_as_xyz
'x, y, z'
_cell_length_a     17.39424
_cell_length_b     17.35436
_cell_length_c     58.953555
_cell_angle_alpha  89.841706
_cell_angle_beta   90.05768
_cell_angle_gamma 119.87689
loop_
_atom_site_label
_atom_site_type_symbol
_atom_site_fract_x
_atom_site_fract_y
_atom_site_fract_z
_atom_type_partial_charge
Eu0 Eu 0.99628 0.41365 0.14539 0.0
C1 C 0.40223 0.54632 0.15082 0.0
N2 N 0.33622 0.47745 0.16248 0.0
C3 C 0.39809 0.38483 0.15364 0.0
C4 C 0.46802 0.53593 0.13957 0.0
C5 C 0.33377 0.39782 0.16435 0.0
C6 C 0.46527 0.45401 0.14111 0.0
C7 C 0.47126 0.69935 0.13796 0.0
C8 C 0.40294 0.62687 0.14987 0.0
C9 C 0.53571 0.68859 0.12632 0.0
C10 C 0.53413 0.60717 0.12713 0.0
Eu11 Eu 0.23078 0.50498 0.18013 0.0
N12 N 0.33957 0.63563 0.16132 0.0
C13 C 0.47458 0.78148 0.13866 0.0
C14 C 0.3481 0.71787 0.16377 0.0
C15 C 0.41379 0.79114 0.152 0.0
H16 H 0.28182 0.34443 0.17406 0.0
H17 H 0.41868 0.85555 0.15363 0.0
H18 H 0.9651 0.58526 0.13486 0.0
H19 H 0.79573 0.1109 0.19516 0.0
H20 H 0.30662 0.72896 0.17529 0.0
H21 H 0.52602 0.83869 0.12977 0.0
H22 H 0.92125 0.21329 0.17142 0.0
H23 H 0.39572 0.32148 0.15502 0.0
H24 H 0.58813 0.74342 0.11697 0.0
H25 H 0.58489 0.60026 0.11826 0.0
H26 H 0.85535 0.63211 0.14361 0.0
H27 H 0.51479 0.44359 0.13274 0.0
H28 H 0.67954 0.14705 0.20537 0.0
N29 N 0.89695 0.46476 0.15339 0.0
C30 C 0.82436 0.40949 0.16586 0.0
C31 C 0.84605 0.56957 0.15006 0.0
C32 C 0.75951 0.43291 0.17105 0.0
C33 C 0.90856 0.54353 0.14535 0.0
C34 C 0.77112 0.51401 0.16295 0.0
N35 N 0.88091 0.31035 0.16915 0.0
C36 C 0.87327 0.23193 0.17622 0.0
C37 C 0.74201 0.27241 0.18726 0.0
C38 C 0.81603 0.33018 0.17395 0.0
C39 C 0.73543 0.19321 0.19513 0.0
C40 C 0.80111 0.17277 0.18949 0.0
H41 H 0.72268 0.53427 0.16655 0.0
H42 H 0.63505 0.39198 0.18831 0.0
H43 H 0.61963 0.25154 0.20246 0.0
O44 O 0.93063 0.30666 0.12065 0.0
O45 O 0.99495 0.45588 0.18201 0.0
O46 O 0.09459 0.41903 0.1949 0.0
O47 O 0.94123 0.43437 0.11422 0.0
O48 O 0.05075 0.31802 0.14866 0.0
O49 O 0.12958 0.35857 0.18229 0.0
O50 O 0.28548 0.58605 0.21114 0.0
O51 O 0.22408 0.45663 0.14398 0.0
O52 O 0.12963 0.49743 0.12847 0.0
O53 O 0.29897 0.46905 0.20521 0.0
O54 O 0.17095 0.59585 0.17792 0.0
O55 O 0.10116 0.55895 0.14312 0.0
C56 C 0.03874 0.44678 0.19892 0.0
C57 C 0.81927 0.31014 0.09795 0.0
C58 C 0.72291 0.29285 0.06595 0.0
C59 C 0.64936 0.23143 0.0787 0.0
C60 C 0.74527 0.24975 0.11064 0.0
C61 C 0.66067 0.21044 0.10095 0.0
C62 C 0.80768 0.33155 0.07577 0.0
C63 C 0.09287 0.30316 0.16525 0.0
C64 C 0.90949 0.35318 0.10727 0.0
C65 C 0.68566 0.37521 0.18421 0.0
C66 C 0.67694 0.29524 0.19228 0.0
C67 C 0.19022 0.47424 0.12621 0.0
C68 C 0.36529 0.54928 0.23965 0.0
C69 C 0.39545 0.59916 0.27889 0.0
C70 C 0.45171 0.56299 0.28084 0.0
C71 C 0.42204 0.51383 0.24192 0.0
C72 C 0.35318 0.59328 0.2581 0.0
C73 C 0.46532 0.52119 0.26239 0.0
C74 C 0.13442 0.61319 0.16047 0.0
C75 C 0.31527 0.53491 0.21847 0.0
H76 H 0.58321 0.20076 0.07159 0.0
H77 H 0.75287 0.23302 0.12789 0.0
H78 H 0.60364 0.16371 0.11074 0.0
H79 H 0.86526 0.37794 0.06602 0.0
H80 H 0.48555 0.56757 0.29665 0.0
H81 H 0.43252 0.47985 0.22791 0.0
H82 H 0.30855 0.61972 0.25659 0.0
H83 H 0.50888 0.49367 0.26402 0.0
Eu84 Eu 0.62196 0.16635 0.4808 0.0
C85 C 0.32976 0.76942 0.48653 0.0
N86 N 0.33876 0.83949 0.49889 0.0
C87 C 0.18754 0.79758 0.49098 0.0
C88 C 0.25021 0.71314 0.47494 0.0
C89 C 0.26743 0.85074 0.50235 0.0
C90 C 0.1794 0.72947 0.47685 0.0
C91 C 0.39054 0.67674 0.47468 0.0
C92 C 0.39865 0.75096 0.48648 0.0
C93 C 0.31288 0.62271 0.46235 0.0
C94 C 0.24289 0.6409 0.46246 0.0
Eu95 Eu 0.479 0.9292 0.51617 0.0
N96 N 0.47365 0.80549 0.49816 0.0
C97 C 0.46057 0.6588 0.47579 0.0
C98 C 0.54078 0.7867 0.50005 0.0
C99 C 0.5356 0.7135 0.48874 0.0
H100 H 0.27097 0.89906 0.51434 0.0
H101 H 0.58947 0.6994 0.48998 0.0
H102 H 0.8324 0.23105 0.49268 0.0
H103 H 0.43733 0.34202 0.49534 0.0
H104 H 0.59865 0.82877 0.51011 0.0
H105 H 0.45689 0.60236 0.46698 0.0
H106 H 0.46844 0.23321 0.47722 0.0
H107 H 0.13185 0.80819 0.49344 0.0
H108 H 0.30572 0.56589 0.45297 0.0
H109 H 0.18259 0.5975 0.45328 0.0
H110 H 0.95674 0.34822 0.51488 0.0
H111 H 0.11714 0.68775 0.46824 0.0
H112 H 0.54547 0.45212 0.52213 0.0
N113 N 0.74271 0.27549 0.5016 0.0
C114 C 0.73086 0.33856 0.51198 0.0
C115 C 0.89339 0.34583 0.51434 0.0
C116 C 0.79962 0.40645 0.52477 0.0
C117 C 0.82324 0.27974 0.50185 0.0
C118 C 0.88126 0.4089 0.52605 0.0
N119 N 0.58707 0.27204 0.49587 0.0
C120 C 0.51346 0.27655 0.48997 0.0
C121 C 0.63711 0.40232 0.51929 0.0
C122 C 0.65029 0.33597 0.50931 0.0
C123 C 0.55809 0.40227 0.51481 0.0
C124 C 0.49672 0.34002 0.49977 0.0
H125 H 0.9358 0.46016 0.53568 0.0
H126 H 0.83716 0.52287 0.54547 0.0
H127 H 0.69497 0.51941 0.54065 0.0
O128 O 0.6425 0.2621 0.45415 0.0
O129 O 0.65742 0.15887 0.51761 0.0
O130 O 0.51737 0.0672 0.52703 0.0
O131 O 0.71236 0.18875 0.45248 0.0
O132 O 0.47082 0.09662 0.47885 0.0
O133 O 0.42314 0.02319 0.5133 0.0
O134 O 0.5239 0.89771 0.54837 0.0
O135 O 0.52413 0.92883 0.48017 0.0
O136 O 0.51395 0.04288 0.46328 0.0
O137 O 0.38321 0.84742 0.54164 0.0
O138 O 0.62895 0.98832 0.51607 0.0
O139 O 0.68008 0.07484 0.483 0.0
C140 C 0.59833 0.11974 0.53349 0.0
C141 C 0.78066 0.33133 0.43542 0.0
C142 C 0.87912 0.41435 0.40408 0.0
C143 C 0.92663 0.48693 0.41867 0.0
C144 C 0.82874 0.40428 0.44978 0.0
C145 C 0.90172 0.48153 0.44142 0.0
C146 C 0.80638 0.3365 0.41269 0.0
C147 C 0.41074 0.05978 0.49501 0.0
C148 C 0.70107 0.25068 0.44332 0.0
C149 C 0.78534 0.47046 0.53545 0.0
C150 C 0.70426 0.46835 0.53274 0.0
C151 C 0.5087 0.9647 0.46239 0.0
C152 C 0.41652 0.806 0.57794 0.0
C153 C 0.45135 0.78272 0.61662 0.0
C154 C 0.36027 0.72887 0.621 0.0
C155 C 0.3258 0.75117 0.58277 0.0
C156 C 0.4796 0.8204 0.59489 0.0
C157 C 0.29812 0.71275 0.60412 0.0
C158 C 0.6891 0.03014 0.50004 0.0
C159 C 0.44266 0.85206 0.5558 0.0
H160 H 0.98337 0.54741 0.41253 0.0
H161 H 0.80937 0.40206 0.4673 0.0
H162 H 0.93869 0.53764 0.45257 0.0
H163 H 0.76822 0.28053 0.40154 0.0
H164 H 0.33717 0.69832 0.6375 0.0
H165 H 0.27576 0.73868 0.57011 0.0
H166 H 0.54974 0.86269 0.59149 0.0
H167 H 0.22812 0.6709 0.60765 0.0
Eu168 Eu 0.72645 0.43434 0.80862 0.0
C169 C 0.65967 0.75169 0.82031 0.0
N170 N 0.70832 0.72888 0.83389 0.0
C171 C 0.82701 0.88005 0.83404 0.0
C172 C 0.6948 0.83932 0.81213 0.0
C173 C 0.78838 0.79261 0.84203 0.0
C174 C 0.78074 0.90314 0.81863 0.0
C175 C 0.51698 0.71198 0.80372 0.0
C176 C 0.57199 0.68901 0.81613 0.0
C177 C 0.55303 0.79774 0.79444 0.0
C178 C 0.64185 0.86126 0.79859 0.0
Eu179 Eu 0.64059 0.57737 0.84461 0.0
N180 N 0.53932 0.60653 0.82515 0.0
C181 C 0.42697 0.64863 0.80148 0.0
C182 C 0.45099 0.54585 0.82402 0.0
C183 C 0.39359 0.56565 0.81197 0.0
H184 H 0.82228 0.77626 0.85485 0.0
H185 H 0.32383 0.51688 0.81071 0.0
H186 H 0.58426 0.22701 0.82593 0.0
H187 H 0.08894 0.62028 0.81606 0.0
H188 H 0.42542 0.48168 0.83208 0.0
H189 H 0.38245 0.66371 0.79211 0.0
H190 H 0.94466 0.5838 0.79971 0.0
H191 H 0.8918 0.92978 0.84004 0.0
H192 H 0.51219 0.81632 0.78456 0.0
H193 H 0.668 0.92796 0.79193 0.0
H194 H 0.58395 0.1112 0.85064 0.0
H195 H 0.81025 0.97118 0.8127 0.0
H196 H 0.09795 0.52284 0.84534 0.0
N197 N 0.72036 0.31951 0.83157 0.0
C198 C 0.79769 0.33533 0.84129 0.0
C199 C 0.64438 0.17401 0.84822 0.0
C200 C 0.80042 0.27173 0.85569 0.0
C201 C 0.64478 0.23915 0.83415 0.0
C202 C 0.72227 0.19077 0.85928 0.0
N203 N 0.87047 0.47226 0.8214 0.0
C204 C 0.94663 0.54298 0.81329 0.0
C205 C 0.95643 0.43112 0.84551 0.0
C206 C 0.87462 0.41441 0.8363 0.0
C207 C 0.03386 0.50769 0.83867 0.0
C208 C 0.02904 0.56297 0.82218 0.0
H209 H 0.72174 0.14022 0.87021 0.0
H210 H 0.88438 0.24234 0.87693 0.0
H211 H 0.02103 0.38175 0.86798 0.0
O212 O 0.79241 0.39381 0.78348 0.0
O213 O 0.6804 0.40287 0.84532 0.0
O214 O 0.73961 0.5424 0.85878 0.0
O215 O 0.65402 0.35323 0.77961 0.0
O216 O 0.80995 0.58487 0.80685 0.0
O217 O 0.78882 0.62761 0.84223 0.0
O218 O 0.56413 0.5148 0.87537 0.0
O219 O 0.5981 0.53836 0.80792 0.0
O220 O 0.7198 0.54669 0.7905 0.0
O221 O 0.62717 0.65691 0.87122 0.0
O222 O 0.54115 0.42965 0.84195 0.0
O223 O 0.57785 0.37495 0.81004 0.0
C224 C 0.71481 0.4589 0.86211 0.0
C225 C 0.70199 0.26019 0.7633 0.0
C226 C 0.70942 0.17408 0.73144 0.0
C227 C 0.64977 0.09545 0.74302 0.0
C228 C 0.64216 0.18122 0.77438 0.0
C229 C 0.61779 0.09928 0.76448 0.0
C230 C 0.73784 0.2561 0.7424 0.0
C231 C 0.83547 0.64263 0.82353 0.0
C232 C 0.72073 0.34763 0.77166 0.0
C233 C 0.88109 0.29006 0.86566 0.0
C234 C 0.95888 0.36956 0.8606 0.0
C235 C 0.65224 0.56089 0.79052 0.0
C236 C 0.62679 0.60248 0.90779 0.0
C237 C 0.61012 0.57973 0.94877 0.0
C238 C 0.70294 0.62173 0.95083 0.0
C239 C 0.71927 0.64479 0.91023 0.0
C240 C 0.5725 0.56992 0.92704 0.0
C241 C 0.75695 0.65411 0.93166 0.0
C242 C 0.5225 0.36896 0.82613 0.0
C243 C 0.58688 0.59029 0.88516 0.0
H244 H 0.62448 0.03084 0.73529 0.0
H245 H 0.61228 0.18272 0.79027 0.0
H246 H 0.57099 0.03849 0.77303 0.0
H247 H 0.78545 0.3179 0.73439 0.0
H248 H 0.734 0.63117 0.96729 0.0
H249 H 0.7623 0.66986 0.89554 0.0
H250 H 0.5011 0.53641 0.92504 0.0
H251 H 0.82828 0.6865 0.93342 0.0
C252 C 0.14162 0.74583 0.17917 0.0
C253 C 0.1369 0.69932 0.15932 0.0
C254 C 0.13849 0.8247 0.17801 0.0
C255 C 0.13028 0.85828 0.15689 0.0
C256 C 0.12901 0.81326 0.13705 0.0
C257 C 0.13211 0.73458 0.13823 0.0
C258 C 0.12438 0.94048 0.15471 0.0
C259 C 0.09638 0.97281 0.17152 0.0
C260 C 0.09245 0.05587 0.1693 0.0
C261 C 0.10548 0.10711 0.18876 0.0
C262 C 0.10472 0.1869 0.18741 0.0
C263 C 0.08925 0.21647 0.16658 0.0
H264 H 0.06194 0.04494 0.13328 0.0
C265 C 0.0732 0.16387 0.14718 0.0
C266 C 0.075 0.08427 0.1485 0.0
H267 H 0.06079 0.18493 0.13094 0.0
H268 H 0.14623 0.72052 0.19564 0.0
H269 H 0.1432 0.85903 0.19367 0.0
H270 H 0.1241 0.83822 0.12056 0.0
H271 H 0.12981 0.70085 0.12259 0.0
H272 H 0.1426 0.97461 0.13846 0.0
H273 H 0.07832 0.93953 0.18786 0.0
H274 H 0.11808 0.08622 0.20502 0.0
H275 H 0.11655 0.22552 0.20273 0.0
C276 C 0.28435 0.06405 0.51352 0.0
C277 C 0.33006 0.06688 0.49365 0.0
C278 C 0.20563 0.06646 0.51232 0.0
C279 C 0.17125 0.07184 0.49117 0.0
C280 C 0.2188 0.0783 0.47137 0.0
C281 C 0.29739 0.07528 0.47256 0.0
C282 C 0.08666 0.07202 0.48927 0.0
C283 C 0.01889 0.02702 0.5038 0.0
C284 C 0.93318 0.02563 0.50217 0.0
C285 C 0.87873 0.00232 0.52146 0.0
C286 C 0.79842 0.0022 0.52078 0.0
C287 C 0.77119 0.02532 0.50071 0.0
H288 H 0.94183 0.06036 0.46634 0.0
C289 C 0.82443 0.04625 0.48125 0.0
C290 C 0.90417 0.04576 0.48189 0.0
H291 H 0.80447 0.06284 0.4654 0.0
H292 H 0.30919 0.0595 0.53004 0.0
H293 H 0.17245 0.06493 0.52798 0.0
H294 H 0.19403 0.08364 0.45491 0.0
H295 H 0.33173 0.07801 0.457 0.0
H296 H 0.0803 0.10855 0.47514 0.0
H297 H 0.02646 0.99024 0.51774 0.0
H298 H 0.89905 0.98557 0.53724 0.0
H299 H 0.75871 0.98579 0.53606 0.0
C300 C 0.97002 0.7688 0.84052 0.0
C301 C 0.91939 0.72636 0.82126 0.0
C302 C 0.04659 0.85141 0.83855 0.0
C303 C 0.0734 0.89307 0.81722 0.0
C304 C 0.02438 0.84873 0.79789 0.0
C305 C 0.94791 0.76596 0.79987 0.0
C306 C 0.15388 0.98093 0.8144 0.0
C307 C 0.18855 0.04107 0.8312 0.0
C308 C 0.27237 0.1266 0.82878 0.0
C309 C 0.29059 0.1957 0.844 0.0
C310 C 0.37112 0.2755 0.84295 0.0
C311 C 0.43498 0.2874 0.82663 0.0
H312 H 0.32686 0.08639 0.80093 0.0
C313 C 0.4162 0.21847 0.81127 0.0
C314 C 0.33637 0.13878 0.81245 0.0
H315 H 0.46407 0.22476 0.7986 0.0
H316 H 0.95006 0.73829 0.85713 0.0
H317 H 0.08474 0.88159 0.85372 0.0
H318 H 0.04451 0.87879 0.78123 0.0
H319 H 0.90997 0.73402 0.78477 0.0
H320 H 0.18334 0.99715 0.79761 0.0
H321 H 0.1538 0.02836 0.84728 0.0
H322 H 0.24272 0.18766 0.85688 0.0
H323 H 0.38359 0.32717 0.85509 0.0
C324 C 0.48052 0.56292 0.9714 0.0
C325 C 0.55316 0.54897 0.96932 0.0
C326 C 0.43001 0.53888 0.99126 0.0
C327 C 0.45144 0.5008 0.00957 0.0
C328 C 0.52187 0.48379 0.00716 0.0
C329 C 0.57256 0.50813 0.98733 0.0
C330 C 0.40221 0.47834 0.03139 0.0
C331 C 0.36243 0.52271 0.03921 0.0
C332 C 0.31645 0.50522 0.06147 0.0
C333 C 0.25891 0.53886 0.06512 0.0
C334 C 0.21674 0.52752 0.086 0.0
C335 C 0.23179 0.4828 0.10382 0.0
H336 H 0.37613 0.43436 0.07755 0.0
C337 C 0.28839 0.44808 0.10015 0.0
C338 C 0.33089 0.45966 0.07929 0.0
H339 H 0.30027 0.41217 0.11344 0.0
H340 H 0.46387 0.59444 0.95789 0.0
H341 H 0.37429 0.55019 0.99212 0.0
H342 H 0.53909 0.45344 0.02087 0.0
H343 H 0.62722 0.49533 0.98618 0.0
H344 H 0.40239 0.42619 0.04152 0.0
H345 H 0.36401 0.57559 0.02898 0.0
H346 H 0.24679 0.57458 0.05178 0.0
H347 H 0.17348 0.55514 0.08825 0.0
C348 C 0.92178 0.49383 0.36654 0.0
C349 C 0.90431 0.41949 0.37986 0.0
C350 C 0.94249 0.49684 0.3435 0.0
C351 C 0.94663 0.42561 0.33339 0.0
C352 C 0.93102 0.35237 0.34686 0.0
C353 C 0.90938 0.34894 0.36978 0.0
C354 C 0.97061 0.42648 0.30919 0.0
C355 C 0.95545 0.47143 0.29273 0.0
C356 C 0.97907 0.4686 0.26863 0.0
C357 C 0.92829 0.47641 0.25115 0.0
C358 C 0.94759 0.47027 0.22836 0.0
C359 C 0.01852 0.45682 0.22272 0.0
H360 H 0.09489 0.45591 0.27577 0.0
C361 C 0.07102 0.4522 0.24023 0.0
C362 C 0.05195 0.45852 0.26286 0.0
H363 H 0.12714 0.44344 0.2365 0.0
H364 H 0.91819 0.54911 0.37389 0.0
H365 H 0.95647 0.55542 0.33379 0.0
H366 H 0.93485 0.29711 0.33958 0.0
H367 H 0.89733 0.29131 0.37968 0.0
H368 H 0.99753 0.38401 0.30462 0.0
H369 H 0.92031 0.50679 0.29669 0.0
H370 H 0.87248 0.4854 0.25514 0.0
H371 H 0.90636 0.47481 0.21524 0.0
C372 C 0.70669 0.65857 0.75601 0.0
C373 C 0.63643 0.6021 0.77039 0.0
C374 C 0.69169 0.69943 0.73732 0.0
C375 C 0.60577 0.68398 0.73261 0.0
C376 C 0.53591 0.62745 0.74705 0.0
C377 C 0.55086 0.58628 0.76554 0.0
C378 C 0.58526 0.72494 0.71301 0.0
C379 C 0.63447 0.75432 0.69392 0.0
C380 C 0.60215 0.78039 0.67351 0.0
C381 C 0.62004 0.75964 0.65182 0.0
C382 C 0.57645 0.76751 0.6327 0.0
C383 C 0.51472 0.79664 0.63507 0.0
H384 H 0.5355 0.83918 0.69169 0.0
C385 C 0.50376 0.8259 0.65637 0.0
C386 C 0.54757 0.81856 0.6754 0.0
H387 H 0.45759 0.85011 0.6585 0.0
H388 H 0.77354 0.6723 0.75941 0.0
H389 H 0.74765 0.74392 0.72692 0.0
H390 H 0.469 0.61408 0.74386 0.0
H391 H 0.49513 0.54147 0.77597 0.0
H392 H 0.52198 0.72321 0.71362 0.0
H393 H 0.69361 0.74875 0.69213 0.0
H394 H 0.66302 0.73154 0.64985 0.0
H395 H 0.58604 0.74474 0.61642 0.0
C396 C 0.76839 0.48407 0.90205 0.0
C397 C 0.71094 0.42645 0.88544 0.0
C398 C 0.76232 0.45552 0.92447 0.0
C399 C 0.69812 0.36852 0.93078 0.0
C400 C 0.64304 0.30986 0.91393 0.0
C401 C 0.64912 0.33858 0.89147 0.0
C402 C 0.68865 0.33642 0.95459 0.0
C403 C 0.71085 0.39124 0.97258 0.0
C404 C 0.70699 0.36303 0.99663 0.0
C405 C 0.7555 0.42886 0.01281 0.0
C406 C 0.75873 0.40614 0.03537 0.0
C407 C 0.71268 0.3169 0.04239 0.0
H408 H 0.61714 0.2211 0.99217 0.0
C409 C 0.66064 0.25111 0.02652 0.0
C410 C 0.65776 0.2738 0.00383 0.0
H411 H 0.62421 0.18179 0.03148 0.0
H412 H 0.81834 0.55139 0.89768 0.0
H413 H 0.80885 0.50167 0.93667 0.0
H414 H 0.59397 0.24213 0.91823 0.0
H415 H 0.60401 0.29263 0.87899 0.0
H416 H 0.6619 0.26568 0.95709 0.0
H417 H 0.73611 0.4616 0.96966 0.0
H418 H 0.7929 0.49822 0.00788 0.0
H419 H 0.79808 0.45852 0.04732 0.0
C420 C 0.35671 0.59627 0.31966 0.0
C421 C 0.38085 0.64159 0.29884 0.0
C422 C 0.35393 0.63938 0.33929 0.0
C423 C 0.3773 0.72957 0.33859 0.0
C424 C 0.39532 0.77291 0.31747 0.0
C425 C 0.39705 0.72923 0.29771 0.0
C426 C 0.38817 0.78109 0.35964 0.0
C427 C 0.4133 0.76102 0.3794 0.0
C428 C 0.43611 0.81553 0.40035 0.0
C429 C 0.48413 0.80051 0.41723 0.0
C430 C 0.5086 0.84997 0.43716 0.0
C431 C 0.4846 0.91498 0.44088 0.0
H432 H 0.37317 0.89326 0.39174 0.0
C433 C 0.43636 0.93037 0.42411 0.0
C434 C 0.41188 0.88082 0.40403 0.0
H435 H 0.41627 0.97962 0.42666 0.0
H436 H 0.34179 0.52785 0.3208 0.0
H437 H 0.33525 0.60223 0.35503 0.0
H438 H 0.41214 0.8419 0.31639 0.0
H439 H 0.4153 0.76525 0.28177 0.0
H440 H 0.3841 0.84126 0.35812 0.0
H441 H 0.42445 0.7048 0.37998 0.0
H442 H 0.50371 0.75073 0.41494 0.0
H443 H 0.54698 0.83757 0.44961 0.0
C444 C 0.73379 0.09588 0.6982 0.0
C445 C 0.73461 0.1715 0.70728 0.0
C446 C 0.7456 0.08987 0.67491 0.0
C447 C 0.76146 0.16056 0.6604 0.0
C448 C 0.76838 0.23801 0.66951 0.0
C449 C 0.75337 0.24287 0.69251 0.0
C450 C 0.76173 0.15289 0.63548 0.0
C451 C 0.69531 0.08321 0.62482 0.0
C452 C 0.67324 0.08943 0.60089 0.0
C453 C 0.58386 0.05419 0.59509 0.0
C454 C 0.56013 0.06607 0.57333 0.0
C455 C 0.62525 0.11117 0.55668 0.0
H456 H 0.80837 0.16201 0.58833 0.0
C457 C 0.71496 0.14542 0.56235 0.0
C458 C 0.73884 0.1348 0.58432 0.0
H459 H 0.7666 0.18014 0.54984 0.0
H460 H 0.72213 0.04029 0.70888 0.0
H461 H 0.7408 0.02957 0.66819 0.0
H462 H 0.77967 0.29292 0.65854 0.0
H463 H 0.75227 0.30142 0.69823 0.0
H464 H 0.80483 0.21283 0.62592 0.0
H465 H 0.64637 0.02752 0.63482 0.0
H466 H 0.53222 0.01954 0.60762 0.0
H467 H 0.49048 0.0394 0.56952 0.0
loop_
_geom_bond_atom_site_label_1
_geom_bond_atom_site_label_2
_geom_bond_distance
_geom_bond_site_symmetry_2
_ccdc_geom_bond_type
Eu0 N29 2.600 . S
Eu0 N35 2.562 . S
Eu0 O44 2.462 . S
Eu0 O45 2.373 . S
Eu0 O47 2.432 . S
Eu0 O48 2.291 . S
Eu0 O52 2.335 1_655 S
Eu0 O55 2.372 . S
Eu0 C64 2.787 . S
C1 N2 1.365 . S
C1 C4 1.405 . S
C1 C8 1.448 . S
N2 C1 1.365 . S
N2 C5 1.319 . S
N2 Eu11 2.600 . S
C3 C5 1.397 . S
C3 C6 1.367 . S
C3 H23 0.931 . S
C4 C1 1.405 . S
C4 C6 1.403 . S
C4 C10 1.439 . S
C5 N2 1.319 . S
C5 C3 1.397 . S
C5 H16 0.930 . S
C6 C3 1.367 . S
C6 C4 1.403 . S
C6 H27 0.929 . S
C7 C8 1.430 . S
C7 C9 1.387 . S
C7 C13 1.404 . S
C8 C1 1.448 . S
C8 C7 1.430 . S
C8 N12 1.351 . S
C9 C7 1.387 . S
C9 C10 1.374 . S
C9 H24 0.931 . S
C10 C4 1.439 . S
C10 C9 1.374 . S
C10 H25 0.931 . S
Eu11 N2 2.600 . S
Eu11 N12 2.562 . S
Eu11 O46 2.335 1_455 S
Eu11 O49 2.372 . S
Eu11 O50 2.462 . S
Eu11 O51 2.373 . S
Eu11 O53 2.432 . S
Eu11 O54 2.291 . S
Eu11 C75 2.787 . S
N12 C8 1.351 . S
N12 Eu11 2.562 . S
N12 C14 1.325 . S
C13 C7 1.404 . S
C13 C15 1.366 . S
C13 H21 0.930 . S
C14 N12 1.325 . S
C14 C15 1.416 . S
C14 H20 0.929 . S
C15 C13 1.366 . S
C15 C14 1.416 . S
C15 H17 0.930 . S
H16 C5 0.930 . S
H17 C15 0.930 . S
H18 C33 0.930 . S
H19 C40 0.930 . S
H20 C14 0.929 . S
H21 C13 0.930 . S
H22 C36 0.929 . S
H23 C3 0.931 . S
H24 C9 0.931 . S
H25 C10 0.931 . S
H26 C31 0.931 . S
H27 C6 0.929 . S
H28 C39 0.930 . S
N29 Eu0 2.600 . S
N29 C30 1.365 . S
N29 C33 1.319 . S
C30 N29 1.365 . S
C30 C32 1.405 . S
C30 C38 1.448 . S
C31 H26 0.931 . S
C31 C33 1.397 . S
C31 C34 1.367 . S
C32 C30 1.405 . S
C32 C34 1.403 . S
C32 C65 1.439 . S
C33 H18 0.930 . S
C33 N29 1.319 . S
C33 C31 1.397 . S
C34 C31 1.367 . S
C34 C32 1.403 . S
C34 H41 0.929 . S
N35 Eu0 2.562 . S
N35 C36 1.325 . S
N35 C38 1.351 . S
C36 H22 0.929 . S
C36 N35 1.325 . S
C36 C40 1.416 . S
C37 C38 1.430 . S
C37 C39 1.404 . S
C37 C66 1.387 . S
C38 C30 1.448 . S
C38 N35 1.351 . S
C38 C37 1.430 . S
C39 H28 0.930 . S
C39 C37 1.404 . S
C39 C40 1.366 . S
C40 H19 0.930 . S
C40 C36 1.416 . S
C40 C39 1.366 . S
H41 C34 0.929 . S
H42 C65 0.931 . S
H43 C66 0.931 . S
O44 Eu0 2.462 . S
O44 C64 1.252 . S
O45 Eu0 2.373 . S
O45 C56 1.249 . S
O46 Eu11 2.335 1_655 S
O46 C56 1.264 . S
O47 Eu0 2.432 . S
O47 C64 1.268 . S
O48 Eu0 2.291 . S
O48 C63 1.255 . S
O49 Eu11 2.372 . S
O49 C63 1.257 1_455 S
O50 Eu11 2.462 . S
O50 C75 1.252 . S
O51 Eu11 2.373 . S
O51 C67 1.249 . S
O52 Eu0 2.335 1_455 S
O52 C67 1.264 . S
O53 Eu11 2.432 . S
O53 C75 1.268 . S
O54 Eu11 2.291 . S
O54 C74 1.255 . S
O55 Eu0 2.372 . S
O55 C74 1.257 1_655 S
C56 O45 1.249 . S
C56 O46 1.264 . S
C57 C60 1.382 . S
C57 C62 1.390 . S
C57 C64 1.506 . S
C58 C59 1.398 . S
C58 C62 1.392 . S
C59 C58 1.398 . S
C59 C61 1.372 . S
C59 H76 0.931 . S
C60 C57 1.382 . S
C60 C61 1.390 . S
C60 H77 0.931 . S
C61 C59 1.372 . S
C61 C60 1.390 . S
C61 H78 0.929 . S
C62 C57 1.390 . S
C62 C58 1.392 . S
C62 H79 0.930 . S
C63 O48 1.255 . S
C63 O49 1.257 1_655 S
C64 Eu0 2.787 . S
C64 O44 1.252 . S
C64 O47 1.268 . S
C64 C57 1.506 . S
C65 C32 1.439 . S
C65 H42 0.931 . S
C65 C66 1.374 . S
C66 C37 1.387 . S
C66 H43 0.931 . S
C66 C65 1.374 . S
C67 O51 1.249 . S
C67 O52 1.264 . S
C68 C71 1.382 . S
C68 C72 1.390 . S
C68 C75 1.506 . S
C69 C70 1.398 . S
C69 C72 1.392 . S
C70 C69 1.398 . S
C70 C73 1.372 . S
C70 H80 0.931 . S
C71 C68 1.382 . S
C71 C73 1.390 . S
C71 H81 0.931 . S
C72 C68 1.390 . S
C72 C69 1.392 . S
C72 H82 0.930 . S
C73 C70 1.372 . S
C73 C71 1.390 . S
C73 H83 0.929 . S
C74 O54 1.255 . S
C74 O55 1.257 1_455 S
C75 Eu11 2.787 . S
C75 O50 1.252 . S
C75 O53 1.268 . S
C75 C68 1.506 . S
H76 C59 0.931 . S
H77 C60 0.931 . S
H78 C61 0.929 . S
H79 C62 0.930 . S
H80 C70 0.931 . S
H81 C71 0.931 . S
H82 C72 0.930 . S
H83 C73 0.929 . S
Eu84 N113 2.600 . S
Eu84 N119 2.562 . S
Eu84 O128 2.462 . S
Eu84 O129 2.373 . S
Eu84 O131 2.432 . S
Eu84 O132 2.291 . S
Eu84 O136 2.335 . S
Eu84 O139 2.372 . S
Eu84 C148 2.787 . S
C85 N86 1.365 . S
C85 C88 1.405 . S
C85 C92 1.448 . S
N86 C85 1.365 . S
N86 C89 1.319 . S
N86 Eu95 2.600 1_565 S
C87 C89 1.397 . S
C87 C90 1.367 . S
C87 H107 0.931 . S
C88 C85 1.405 . S
C88 C90 1.403 . S
C88 C94 1.439 . S
C89 N86 1.319 . S
C89 C87 1.397 . S
C89 H100 0.930 . S
C90 C87 1.367 . S
C90 C88 1.403 . S
C90 H111 0.929 . S
C91 C92 1.430 . S
C91 C93 1.387 . S
C91 C97 1.404 . S
C92 C85 1.448 . S
C92 C91 1.430 . S
C92 N96 1.351 . S
C93 C91 1.387 . S
C93 C94 1.374 . S
C93 H108 0.931 . S
C94 C88 1.439 . S
C94 C93 1.374 . S
C94 H109 0.931 . S
Eu95 N86 2.600 1_545 S
Eu95 N96 2.562 1_545 S
Eu95 O130 2.335 . S
Eu95 O133 2.372 . S
Eu95 O134 2.462 1_545 S
Eu95 O135 2.373 1_545 S
Eu95 O137 2.432 1_545 S
Eu95 O138 2.291 . S
Eu95 C159 2.787 1_545 S
N96 C92 1.351 . S
N96 Eu95 2.562 1_565 S
N96 C98 1.325 . S
C97 C91 1.404 . S
C97 C99 1.366 . S
C97 H105 0.930 . S
C98 N96 1.325 . S
C98 C99 1.416 . S
C98 H104 0.929 . S
C99 C97 1.366 . S
C99 C98 1.416 . S
C99 H101 0.930 . S
H100 C89 0.930 . S
H101 C99 0.930 . S
H102 C117 0.929 . S
H103 C124 0.930 . S
H104 C98 0.929 . S
H105 C97 0.930 . S
H106 C120 0.929 . S
H107 C87 0.931 . S
H108 C93 0.931 . S
H109 C94 0.931 . S
H110 C115 0.931 . S
H111 C90 0.929 . S
H112 C123 0.930 . S
N113 Eu84 2.600 . S
N113 C114 1.365 . S
N113 C117 1.321 . S
C114 N113 1.365 . S
C114 C116 1.405 1_655 S
C114 C122 1.448 . S
C115 H110 0.931 . S
C115 C117 1.396 1_455 S
C115 C118 1.367 . S
C116 C114 1.405 1_455 S
C116 C118 1.403 . S
C116 C149 1.439 . S
C117 H102 0.929 . S
C117 N113 1.321 . S
C117 C115 1.396 1_655 S
C118 C115 1.367 . S
C118 C116 1.403 . S
C118 H125 0.929 . S
N119 Eu84 2.562 . S
N119 C120 1.325 . S
N119 C122 1.351 . S
C120 H106 0.929 . S
C120 N119 1.325 . S
C120 C124 1.416 . S
C121 C122 1.430 . S
C121 C123 1.404 . S
C121 C150 1.387 . S
C122 C114 1.448 . S
C122 N119 1.351 . S
C122 C121 1.430 . S
C123 H112 0.930 . S
C123 C121 1.404 . S
C123 C124 1.366 . S
C124 H103 0.930 . S
C124 C120 1.416 . S
C124 C123 1.366 . S
H125 C118 0.929 . S
H126 C149 0.931 . S
H127 C150 0.931 . S
O128 Eu84 2.462 . S
O128 C148 1.252 . S
O129 Eu84 2.373 . S
O129 C140 1.249 . S
O130 Eu95 2.335 . S
O130 C140 1.264 . S
O131 Eu84 2.432 . S
O131 C148 1.268 . S
O132 Eu84 2.291 . S
O132 C147 1.255 . S
O133 Eu95 2.372 . S
O133 C147 1.257 . S
O134 Eu95 2.462 1_565 S
O134 C159 1.252 . S
O135 Eu95 2.373 1_565 S
O135 C151 1.249 1_565 S
O136 Eu84 2.335 . S
O136 C151 1.264 . S
O137 Eu95 2.432 1_565 S
O137 C159 1.268 . S
O138 Eu95 2.291 . S
O138 C158 1.255 . S
O139 Eu84 2.372 . S
O139 C158 1.257 . S
C140 O129 1.249 . S
C140 O130 1.264 . S
C141 C144 1.382 . S
C141 C146 1.390 . S
C141 C148 1.506 . S
C142 C143 1.398 . S
C142 C146 1.392 . S
C143 C142 1.398 . S
C143 C145 1.372 . S
C143 H160 0.931 . S
C144 C141 1.382 . S
C144 C145 1.390 . S
C144 H161 0.931 . S
C145 C143 1.372 . S
C145 C144 1.390 . S
C145 H162 0.929 . S
C146 C141 1.390 . S
C146 C142 1.392 . S
C146 H163 0.930 . S
C147 O132 1.255 . S
C147 O133 1.257 . S
C148 Eu84 2.787 . S
C148 O128 1.252 . S
C148 O131 1.268 . S
C148 C141 1.506 . S
C149 C116 1.439 . S
C149 H126 0.931 . S
C149 C150 1.374 1_455 S
C150 C121 1.387 . S
C150 H127 0.931 . S
C150 C149 1.374 1_655 S
C151 O135 1.249 1_545 S
C151 O136 1.264 . S
C152 C155 1.382 . S
C152 C156 1.390 . S
C152 C159 1.506 . S
C153 C154 1.398 . S
C153 C156 1.392 . S
C154 C153 1.398 . S
C154 C157 1.372 . S
C154 H164 0.931 . S
C155 C152 1.382 . S
C155 C157 1.390 . S
C155 H165 0.931 . S
C156 C152 1.390 . S
C156 C153 1.392 . S
C156 H166 0.930 . S
C157 C154 1.372 . S
C157 C155 1.390 . S
C157 H167 0.929 . S
C158 O138 1.255 . S
C158 O139 1.257 . S
C159 Eu95 2.787 1_565 S
C159 O134 1.252 . S
C159 O137 1.268 . S
C159 C152 1.506 . S
H160 C143 0.931 . S
H161 C144 0.931 . S
H162 C145 0.929 . S
H163 C146 0.930 . S
H164 C154 0.931 . S
H165 C155 0.931 . S
H166 C156 0.930 . S
H167 C157 0.929 . S
Eu168 N197 2.600 . S
Eu168 N203 2.562 . S
Eu168 O212 2.462 . S
Eu168 O213 2.373 . S
Eu168 O215 2.432 . S
Eu168 O216 2.291 . S
Eu168 O220 2.335 . S
Eu168 O223 2.372 . S
Eu168 C232 2.787 . S
C169 N170 1.365 . S
C169 C172 1.405 . S
C169 C176 1.448 . S
N170 C169 1.365 . S
N170 C173 1.319 . S
N170 Eu179 2.600 . S
C171 C173 1.397 . S
C171 C174 1.367 . S
C171 H191 0.931 . S
C172 C169 1.405 . S
C172 C174 1.403 . S
C172 C178 1.439 . S
C173 N170 1.319 . S
C173 C171 1.397 . S
C173 H184 0.930 . S
C174 C171 1.367 . S
C174 C172 1.403 . S
C174 H195 0.929 . S
C175 C176 1.430 . S
C175 C177 1.387 . S
C175 C181 1.404 . S
C176 C169 1.448 . S
C176 C175 1.430 . S
C176 N180 1.351 . S
C177 C175 1.387 . S
C177 C178 1.374 . S
C177 H192 0.931 . S
C178 C172 1.439 . S
C178 C177 1.374 . S
C178 H193 0.931 . S
Eu179 N170 2.600 . S
Eu179 N180 2.562 . S
Eu179 O214 2.335 . S
Eu179 O217 2.372 . S
Eu179 O218 2.462 . S
Eu179 O219 2.373 . S
Eu179 O221 2.432 . S
Eu179 O222 2.291 . S
Eu179 C243 2.787 . S
N180 C176 1.351 . S
N180 Eu179 2.562 . S
N180 C182 1.325 . S
C181 C175 1.404 . S
C181 C183 1.366 . S
C181 H189 0.930 . S
C182 N180 1.325 . S
C182 C183 1.416 . S
C182 H188 0.929 . S
C183 C181 1.366 . S
C183 C182 1.416 . S
C183 H185 0.930 . S
H184 C173 0.930 . S
H185 C183 0.930 . S
H186 C201 0.930 . S
H187 C208 0.930 . S
H188 C182 0.929 . S
H189 C181 0.930 . S
H190 C204 0.929 . S
H191 C171 0.931 . S
H192 C177 0.931 . S
H193 C178 0.931 . S
H194 C199 0.931 1_565 S
H195 C174 0.929 . S
H196 C207 0.930 1_455 S
N197 Eu168 2.600 . S
N197 C198 1.365 . S
N197 C201 1.319 . S
C198 N197 1.365 . S
C198 C200 1.405 . S
C198 C206 1.448 . S
C199 H194 0.931 1_545 S
C199 C201 1.397 . S
C199 C202 1.367 . S
C200 C198 1.405 . S
C200 C202 1.403 . S
C200 C233 1.439 . S
C201 H186 0.930 . S
C201 N197 1.319 . S
C201 C199 1.397 . S
C202 C199 1.367 . S
C202 C200 1.403 . S
C202 H209 0.929 1_545 S
N203 Eu168 2.562 . S
N203 C204 1.325 . S
N203 C206 1.351 . S
C204 H190 0.929 . S
C204 N203 1.325 . S
C204 C208 1.416 1_655 S
C205 C206 1.430 . S
C205 C207 1.404 . S
C205 C234 1.387 . S
C206 C198 1.448 . S
C206 N203 1.351 . S
C206 C205 1.430 . S
C207 H196 0.930 1_655 S
C207 C205 1.404 . S
C207 C208 1.366 1_655 S
C208 H187 0.930 . S
C208 C204 1.416 1_455 S
C208 C207 1.366 1_455 S
H209 C202 0.929 1_565 S
H210 C233 0.931 . S
H211 C234 0.931 . S
O212 Eu168 2.462 . S
O212 C232 1.252 . S
O213 Eu168 2.373 . S
O213 C224 1.249 . S
O214 Eu179 2.335 . S
O214 C224 1.264 . S
O215 Eu168 2.432 . S
O215 C232 1.268 . S
O216 Eu168 2.291 . S
O216 C231 1.255 . S
O217 Eu179 2.372 . S
O217 C231 1.257 . S
O218 Eu179 2.462 . S
O218 C243 1.252 . S
O219 Eu179 2.373 . S
O219 C235 1.249 . S
O220 Eu168 2.335 . S
O220 C235 1.264 . S
O221 Eu179 2.432 . S
O221 C243 1.268 . S
O222 Eu179 2.291 . S
O222 C242 1.255 . S
O223 Eu168 2.372 . S
O223 C242 1.257 . S
C224 O213 1.249 . S
C224 O214 1.264 . S
C225 C228 1.382 . S
C225 C230 1.390 . S
C225 C232 1.506 . S
C226 C227 1.398 . S
C226 C230 1.392 . S
C227 C226 1.398 . S
C227 C229 1.372 . S
C227 H244 0.931 . S
C228 C225 1.382 . S
C228 C229 1.390 . S
C228 H245 0.931 . S
C229 C227 1.372 . S
C229 C228 1.390 . S
C229 H246 0.929 . S
C230 C225 1.390 . S
C230 C226 1.392 . S
C230 H247 0.930 . S
C231 O216 1.255 . S
C231 O217 1.257 . S
C232 Eu168 2.787 . S
C232 O212 1.252 . S
C232 O215 1.268 . S
C232 C225 1.506 . S
C233 C200 1.439 . S
C233 H210 0.931 . S
C233 C234 1.374 . S
C234 C205 1.387 . S
C234 H211 0.931 . S
C234 C233 1.374 . S
C235 O219 1.249 . S
C235 O220 1.264 . S
C236 C239 1.382 . S
C236 C240 1.390 . S
C236 C243 1.506 . S
C237 C238 1.398 . S
C237 C240 1.392 . S
C238 C237 1.398 . S
C238 C241 1.372 . S
C238 H248 0.931 . S
C239 C236 1.382 . S
C239 C241 1.390 . S
C239 H249 0.931 . S
C240 C236 1.390 . S
C240 C237 1.392 . S
C240 H250 0.930 . S
C241 C238 1.372 . S
C241 C239 1.390 . S
C241 H251 0.929 . S
C242 O222 1.255 . S
C242 O223 1.257 . S
C243 Eu179 2.787 . S
C243 O218 1.252 . S
C243 O221 1.268 . S
C243 C236 1.506 . S
H244 C227 0.931 . S
H245 C228 0.931 . S
H246 C229 0.929 . S
H247 C230 0.930 . S
H248 C238 0.931 . S
H249 C239 0.931 . S
H250 C240 0.930 . S
H251 C241 0.929 . S
C252 C253 1.386 1_655 S
C252 C254 1.383 . S
C252 H268 0.951 . S
C253 C252 1.386 1_455 S
C253 C257 1.383 . S
C254 C252 1.383 . S
C254 C255 1.402 1_655 S
C254 H269 0.951 . S
C255 C254 1.402 1_455 S
C255 C256 1.375 . S
C255 C258 1.481 . S
C256 C255 1.375 . S
C256 C257 1.367 . S
C256 H270 0.951 . S
C257 C253 1.383 . S
C257 C256 1.367 . S
C257 H271 0.950 . S
C258 C255 1.481 . S
C258 C259 1.297 . S
C258 H272 0.950 . S
C259 C258 1.297 . S
C259 C260 1.480 1_565 S
C259 H273 0.950 1_455 S
C260 C259 1.480 1_545 S
C260 C261 1.375 1_455 S
C260 C266 1.404 . S
C261 C260 1.375 1_655 S
C261 C262 1.369 . S
C261 H274 0.950 . S
C262 C261 1.369 . S
C262 C263 1.392 . S
C262 H275 0.951 . S
C263 C262 1.392 . S
C263 C265 1.384 1_655 S
H264 C266 0.949 . S
C265 C263 1.384 1_455 S
C265 C266 1.385 . S
C265 H267 0.950 . S
C266 C260 1.404 . S
C266 H264 0.949 . S
C266 C265 1.385 . S
H267 C265 0.950 . S
H268 C252 0.951 . S
H269 C254 0.951 . S
H270 C256 0.951 . S
H271 C257 0.950 . S
H272 C258 0.950 . S
H273 C259 0.950 1_655 S
H274 C261 0.950 . S
H275 C262 0.951 . S
C276 C277 1.386 . S
C276 C278 1.383 . S
C276 H292 0.951 . S
C277 C276 1.386 . S
C277 C281 1.383 . S
C278 C276 1.383 . S
C278 C279 1.402 . S
C278 H293 0.951 . S
C279 C278 1.402 . S
C279 C280 1.375 . S
C279 C282 1.481 . S
C280 C279 1.375 . S
C280 C281 1.367 . S
C280 H294 0.951 . S
C281 C277 1.383 . S
C281 C280 1.367 . S
C281 H295 0.950 . S
C282 C279 1.481 . S
C282 C283 1.297 . S
C282 H296 0.950 . S
C283 C282 1.297 . S
C283 C284 1.479 . S
C283 H297 0.950 . S
C284 C283 1.479 . S
C284 C285 1.375 . S
C284 C290 1.404 . S
C285 C284 1.375 . S
C285 C286 1.369 1_455 S
C285 H298 0.950 . S
C286 C285 1.369 1_655 S
C286 C287 1.392 . S
C286 H299 0.951 . S
C287 C286 1.392 . S
C287 C289 1.384 . S
H288 C290 0.949 . S
C289 C287 1.384 . S
C289 C290 1.385 1_655 S
C289 H291 0.950 . S
C290 C284 1.404 . S
C290 H288 0.949 . S
C290 C289 1.385 1_455 S
H291 C289 0.950 . S
H292 C276 0.951 . S
H293 C278 0.951 . S
H294 C280 0.951 . S
H295 C281 0.950 . S
H296 C282 0.950 . S
H297 C283 0.950 . S
H298 C285 0.950 . S
H299 C286 0.951 . S
C300 C301 1.386 1_455 S
C300 C302 1.383 . S
C300 H316 0.951 . S
C301 C300 1.386 1_655 S
C301 C305 1.383 . S
C302 C300 1.383 . S
C302 C303 1.402 . S
C302 H317 0.951 . S
C303 C302 1.402 . S
C303 C304 1.375 1_455 S
C303 C306 1.481 . S
C304 C303 1.375 1_655 S
C304 C305 1.367 . S
C304 H318 0.951 . S
C305 C301 1.383 . S
C305 C304 1.367 . S
C305 H319 0.950 . S
C306 C303 1.481 . S
C306 C307 1.297 . S
C306 H320 0.950 . S
C307 C306 1.297 . S
C307 C308 1.479 1_565 S
C307 H321 0.950 . S
C308 C307 1.479 1_545 S
C308 C309 1.375 . S
C308 C314 1.404 . S
C309 C308 1.375 . S
C309 C310 1.369 . S
C309 H322 0.950 . S
C310 C309 1.369 . S
C310 C311 1.392 . S
C310 H323 0.951 . S
C311 C310 1.392 . S
C311 C313 1.384 . S
H312 C314 0.949 . S
C313 C311 1.384 . S
C313 C314 1.385 . S
C313 H315 0.950 . S
C314 C308 1.404 . S
C314 H312 0.949 . S
C314 C313 1.385 . S
H315 C313 0.950 . S
H316 C300 0.951 . S
H317 C302 0.951 . S
H318 C304 0.951 . S
H319 C305 0.950 . S
H320 C306 0.950 . S
H321 C307 0.950 . S
H322 C309 0.950 . S
H323 C310 0.951 . S
C324 C325 1.386 . S
C324 C326 1.383 . S
C324 H340 0.951 . S
C325 C324 1.386 . S
C325 C329 1.383 . S
C326 C324 1.383 . S
C326 C327 1.402 1_556 S
C326 H341 0.951 . S
C327 C326 1.402 1_554 S
C327 C328 1.375 1_554 S
C327 C330 1.481 . S
C328 C327 1.375 1_556 S
C328 C329 1.367 . S
C328 H342 0.951 1_556 S
C329 C325 1.383 . S
C329 C328 1.367 . S
C329 H343 0.950 . S
C330 C327 1.481 . S
C330 C331 1.297 . S
C330 H344 0.950 . S
C331 C330 1.297 . S
C331 C332 1.479 . S
C331 H345 0.950 . S
C332 C331 1.479 . S
C332 C333 1.375 . S
C332 C338 1.404 . S
C333 C332 1.375 . S
C333 C334 1.369 . S
C333 H346 0.950 . S
C334 C333 1.369 . S
C334 C335 1.392 . S
C334 H347 0.951 . S
C335 C334 1.392 . S
C335 C337 1.384 . S
H336 C338 0.949 . S
C337 C335 1.384 . S
C337 C338 1.385 . S
C337 H339 0.950 . S
C338 C332 1.404 . S
C338 H336 0.949 . S
C338 C337 1.385 . S
H339 C337 0.950 . S
H340 C324 0.951 . S
H341 C326 0.951 . S
H342 C328 0.951 1_554 S
H343 C329 0.950 . S
H344 C330 0.950 . S
H345 C331 0.950 . S
H346 C333 0.950 . S
H347 C334 0.951 . S
C348 C349 1.386 . S
C348 C350 1.383 . S
C348 H364 0.951 . S
C349 C348 1.386 . S
C349 C353 1.383 . S
C350 C348 1.383 . S
C350 C351 1.402 . S
C350 H365 0.951 . S
C351 C350 1.402 . S
C351 C352 1.375 . S
C351 C354 1.481 . S
C352 C351 1.375 . S
C352 C353 1.367 . S
C352 H366 0.951 . S
C353 C349 1.383 . S
C353 C352 1.367 . S
C353 H367 0.950 . S
C354 C351 1.481 . S
C354 C355 1.297 . S
C354 H368 0.950 . S
C355 C354 1.297 . S
C355 C356 1.479 . S
C355 H369 0.950 . S
C356 C355 1.479 . S
C356 C357 1.375 . S
C356 C362 1.404 . S
C357 C356 1.375 . S
C357 C358 1.369 . S
C357 H370 0.950 . S
C358 C357 1.369 . S
C358 C359 1.392 . S
C358 H371 0.951 . S
C359 C358 1.392 . S
C359 C361 1.384 . S
H360 C362 0.949 . S
C361 C359 1.384 . S
C361 C362 1.385 . S
C361 H363 0.950 . S
C362 C356 1.404 . S
C362 H360 0.949 . S
C362 C361 1.385 . S
H363 C361 0.950 . S
H364 C348 0.951 . S
H365 C350 0.951 . S
H366 C352 0.951 . S
H367 C353 0.950 . S
H368 C354 0.950 . S
H369 C355 0.950 . S
H370 C357 0.950 . S
H371 C358 0.951 . S
C372 C373 1.386 . S
C372 C374 1.383 . S
C372 H388 0.951 . S
C373 C372 1.386 . S
C373 C377 1.383 . S
C374 C372 1.383 . S
C374 C375 1.402 . S
C374 H389 0.951 . S
C375 C374 1.402 . S
C375 C376 1.375 . S
C375 C378 1.481 . S
C376 C375 1.375 . S
C376 C377 1.367 . S
C376 H390 0.951 . S
C377 C373 1.383 . S
C377 C376 1.367 . S
C377 H391 0.950 . S
C378 C375 1.481 . S
C378 C379 1.297 . S
C378 H392 0.950 . S
C379 C378 1.297 . S
C379 C380 1.479 . S
C379 H393 0.950 . S
C380 C379 1.479 . S
C380 C381 1.375 . S
C380 C386 1.404 . S
C381 C380 1.375 . S
C381 C382 1.369 . S
C381 H394 0.950 . S
C382 C381 1.369 . S
C382 C383 1.392 . S
C382 H395 0.951 . S
C383 C382 1.392 . S
C383 C385 1.384 . S
H384 C386 0.949 . S
C385 C383 1.384 . S
C385 C386 1.385 . S
C385 H387 0.950 . S
C386 C380 1.404 . S
C386 H384 0.949 . S
C386 C385 1.385 . S
H387 C385 0.950 . S
H388 C372 0.951 . S
H389 C374 0.951 . S
H390 C376 0.951 . S
H391 C377 0.950 . S
H392 C378 0.950 . S
H393 C379 0.950 . S
H394 C381 0.950 . S
H395 C382 0.951 . S
C396 C397 1.386 . S
C396 C398 1.383 . S
C396 H412 0.951 . S
C397 C396 1.386 . S
C397 C401 1.383 . S
C398 C396 1.383 . S
C398 C399 1.402 . S
C398 H413 0.951 . S
C399 C398 1.402 . S
C399 C400 1.375 . S
C399 C402 1.481 . S
C400 C399 1.375 . S
C400 C401 1.367 . S
C400 H414 0.951 . S
C401 C397 1.383 . S
C401 C400 1.367 . S
C401 H415 0.950 . S
C402 C399 1.481 . S
C402 C403 1.297 . S
C402 H416 0.950 . S
C403 C402 1.297 . S
C403 C404 1.479 . S
C403 H417 0.950 . S
C404 C403 1.479 . S
C404 C405 1.375 1_556 S
C404 C410 1.404 1_556 S
C405 C404 1.375 1_554 S
C405 C406 1.369 . S
C405 H418 0.950 . S
C406 C405 1.369 . S
C406 C407 1.392 . S
C406 H419 0.951 . S
C407 C406 1.392 . S
C407 C409 1.384 . S
H408 C410 0.949 1_556 S
C409 C407 1.384 . S
C409 C410 1.385 . S
C409 H411 0.950 . S
C410 C404 1.404 1_554 S
C410 H408 0.949 1_554 S
C410 C409 1.385 . S
H411 C409 0.950 . S
H412 C396 0.951 . S
H413 C398 0.951 . S
H414 C400 0.951 . S
H415 C401 0.950 . S
H416 C402 0.950 . S
H417 C403 0.950 . S
H418 C405 0.950 . S
H419 C406 0.951 . S
C420 C421 1.386 . S
C420 C422 1.383 . S
C420 H436 0.951 . S
C421 C420 1.386 . S
C421 C425 1.383 . S
C422 C420 1.383 . S
C422 C423 1.402 . S
C422 H437 0.951 . S
C423 C422 1.402 . S
C423 C424 1.375 . S
C423 C426 1.481 . S
C424 C423 1.375 . S
C424 C425 1.367 . S
C424 H438 0.951 . S
C425 C421 1.383 . S
C425 C424 1.367 . S
C425 H439 0.950 . S
C426 C423 1.481 . S
C426 C427 1.297 . S
C426 H440 0.950 . S
C427 C426 1.297 . S
C427 C428 1.479 . S
C427 H441 0.950 . S
C428 C427 1.479 . S
C428 C429 1.375 . S
C428 C434 1.404 . S
C429 C428 1.375 . S
C429 C430 1.369 . S
C429 H442 0.950 . S
C430 C429 1.369 . S
C430 C431 1.392 . S
C430 H443 0.951 . S
C431 C430 1.392 . S
C431 C433 1.384 1_565 S
H432 C434 0.949 1_545 S
C433 C431 1.384 1_545 S
C433 C434 1.385 1_545 S
C433 H435 0.950 . S
C434 C428 1.404 . S
C434 H432 0.949 1_565 S
C434 C433 1.385 1_565 S
H435 C433 0.950 . S
H436 C420 0.951 . S
H437 C422 0.951 . S
H438 C424 0.951 . S
H439 C425 0.950 . S
H440 C426 0.950 . S
H441 C427 0.950 . S
H442 C429 0.950 . S
H443 C430 0.951 . S
C444 C445 1.386 . S
C444 C446 1.383 . S
C444 H460 0.951 . S
C445 C444 1.386 . S
C445 C449 1.383 . S
C446 C444 1.383 . S
C446 C447 1.402 . S
C446 H461 0.951 . S
C447 C446 1.402 . S
C447 C448 1.375 . S
C447 C450 1.481 . S
C448 C447 1.375 . S
C448 C449 1.367 . S
C448 H462 0.951 . S
C449 C445 1.383 . S
C449 C448 1.367 . S
C449 H463 0.950 . S
C450 C447 1.481 . S
C450 C451 1.297 . S
C450 H464 0.950 . S
C451 C450 1.297 . S
C451 C452 1.479 . S
C451 H465 0.950 . S
C452 C451 1.479 . S
C452 C453 1.375 . S
C452 C458 1.404 . S
C453 C452 1.375 . S
C453 C454 1.369 . S
C453 H466 0.950 . S
C454 C453 1.369 . S
C454 C455 1.392 . S
C454 H467 0.951 . S
C455 C454 1.392 . S
C455 C457 1.384 . S
H456 C458 0.949 . S
C457 C455 1.384 . S
C457 C458 1.385 . S
C457 H459 0.950 . S
C458 C452 1.404 . S
C458 H456 0.949 . S
C458 C457 1.385 . S
H459 C457 0.950 . S
H460 C444 0.951 . S
H461 C446 0.951 . S
H462 C448 0.951 . S
H463 C449 0.950 . S
H464 C450 0.950 . S
H465 C451 0.950 . S
H466 C453 0.950 . S
H467 C454 0.951 . S
C253 C74 1.497 . S
C263 C63 1.423 . S
C277 C147 1.498 . S
C287 C158 1.490 . S
C301 C231 1.484 . S
C311 C242 1.428 . S
C325 C237 1.524 . S
C335 C67 1.602 . S
C349 C142 0.835 . S
C359 C56 1.163 . S
C373 C235 1.634 . S
C383 C153 1.439 . S
C397 C224 1.188 . S
C407 C58 0.821 . S
C421 C69 1.495 . S
C431 C151 1.644 1_565 S
C445 C226 0.897 . S
C455 C140 1.229 . S
