# Generated by pormake.
# Topology snz, (6)-cn, num edge types: 1
# Building blocks:
#     Node 0, Type 0, BuildingBlock: FUNLAD_clean_sbu_0, # of connection points: 6
#     Node 1, Type 0, BuildingBlock: FUNLAD_clean_sbu_0, # of connection points: 6
#     Node 2, Type 0, BuildingBlock: FUNLAD_clean_sbu_0, # of connection points: 6
#     Node 3, Type 0, BuildingBlock: FUNLAD_clean_sbu_0, # of connection points: 6
#     Node 4, Type 0, BuildingBlock: FUNLAD_clean_sbu_0, # of connection points: 6
#     Node 5, Type 0, BuildingBlock: FUNLAD_clean_sbu_0, # of connection points: 6
#     Node 6, Type 0, BuildingBlock: FUNLAD_clean_sbu_0, # of connection points: 6
#     Node 7, Type 0, BuildingBlock: FUNLAD_clean_sbu_0, # of connection points: 6
#     Node 8, Type 0, BuildingBlock: FUNLAD_clean_sbu_0, # of connection points: 6
#     Edge 9, Type (0, 0), BuildingBlock: AJUNOK_clean_linker_0, # of connection points: 2
#     Edge 10, Type (0, 0), BuildingBlock: AJUNOK_clean_linker_0, # of connection points: 2
#     Edge 11, Type (0, 0), BuildingBlock: AJUNOK_clean_linker_0, # of connection points: 2
#     Edge 12, Type (0, 0), BuildingBlock: AJUNOK_clean_linker_0, # of connection points: 2
#     Edge 13, Type (0, 0), BuildingBlock: AJUNOK_clean_linker_0, # of connection points: 2
#     Edge 14, Type (0, 0), BuildingBlock: AJUNOK_clean_linker_0, # of connection points: 2
#     Edge 15, Type (0, 0), BuildingBlock: AJUNOK_clean_linker_0, # of connection points: 2
#     Edge 16, Type (0, 0), BuildingBlock: AJUNOK_clean_linker_0, # of connection points: 2
#     Edge 17, Type (0, 0), BuildingBlock: AJUNOK_clean_linker_0, # of connection points: 2
#     Edge 18, Type (0, 0), BuildingBlock: AJUNOK_clean_linker_0, # of connection points: 2
#     Edge 19, Type (0, 0), BuildingBlock: AJUNOK_clean_linker_0, # of connection points: 2
#     Edge 20, Type (0, 0), BuildingBlock: AJUNOK_clean_linker_0, # of connection points: 2
#     Edge 21, Type (0, 0), BuildingBlock: AJUNOK_clean_linker_0, # of connection points: 2
#     Edge 22, Type (0, 0), BuildingBlock: AJUNOK_clean_linker_0, # of connection points: 2
#     Edge 23, Type (0, 0), BuildingBlock: AJUNOK_clean_linker_0, # of connection points: 2
#     Edge 24, Type (0, 0), BuildingBlock: AJUNOK_clean_linker_0, # of connection points: 2
#     Edge 25, Type (0, 0), BuildingBlock: AJUNOK_clean_linker_0, # of connection points: 2
#     Edge 26, Type (0, 0), BuildingBlock: AJUNOK_clean_linker_0, # of connection points: 2
#     Edge 27, Type (0, 0), BuildingBlock: AJUNOK_clean_linker_0, # of connection points: 2
#     Edge 28, Type (0, 0), BuildingBlock: AJUNOK_clean_linker_0, # of connection points: 2
#     Edge 29, Type (0, 0), BuildingBlock: AJUNOK_clean_linker_0, # of connection points: 2
#     Edge 30, Type (0, 0), BuildingBlock: AJUNOK_clean_linker_0, # of connection points: 2
#     Edge 31, Type (0, 0), BuildingBlock: AJUNOK_clean_linker_0, # of connection points: 2
#     Edge 32, Type (0, 0), BuildingBlock: AJUNOK_clean_linker_0, # of connection points: 2
#     Edge 33, Type (0, 0), BuildingBlock: AJUNOK_clean_linker_0, # of connection points: 2
#     Edge 34, Type (0, 0), BuildingBlock: AJUNOK_clean_linker_0, # of connection points: 2
#     Edge 35, Type (0, 0), BuildingBlock: AJUNOK_clean_linker_0, # of connection points: 2
# Relax obj value: 0.871
# Max RMSD: 0.301
# Mean RMSD: 0.272
data_MOF--net-snz--node1-FUNLAD_clean_sbu_0--edge1-AJUNOK_clean_linker_0
_symmetry_space_group_name_H-M    P1
_symmetry_Int_Tables_number       1
_symmetry_cell_setting            triclinic
loop_
_symmetry_equiv_pos_as_xyz
'x, y, z'
_cell_length_a     35.688741
_cell_length_b     41.033222
_cell_length_c     13.180771
_cell_angle_alpha  89.300527
_cell_angle_beta   89.194915
_cell_angle_gamma 120.70418
loop_
_atom_site_label
_atom_site_type_symbol
_atom_site_fract_x
_atom_site_fract_y
_atom_site_fract_z
_atom_type_partial_charge
C0 C -0.00803 0.53205 1.03197 0.0
N1 N 0.11545 0.54247 0.96343 0.0
C2 C 0.10901 0.56561 0.9008 0.0
C3 C 0.09276 0.5528 0.8048 0.0
C4 C 0.08797 0.51833 0.77358 0.0
C5 C 0.10883 0.50271 0.82738 0.0
C6 C 0.12353 0.51608 0.92408 0.0
Zn7 Zn 0.06832 0.51937 0.07647 0.0
C8 C 0.08078 0.57438 0.23522 0.0
N9 N 0.9644 0.46705 0.2894 0.0
C10 C 0.95766 0.48817 0.35728 0.0
C11 C 0.95478 0.43111 0.31302 0.0
C12 C 0.95 0.4196 0.41409 0.0
C13 C 0.95522 0.44574 0.48745 0.0
C14 C 0.95195 0.47736 0.45913 0.0
Zn15 Zn 0.01155 0.49429 0.1825 0.0
O16 O 0.02899 0.5384 0.99992 0.0
C17 C -0.0049 0.44345 1.01313 0.0
O18 O 0.97704 0.51531 0.11668 0.0
H19 H 0.95966 0.4144 0.25752 0.0
H20 H 0.10579 0.5883 0.93239 0.0
H21 H 0.9645 0.51626 0.3359 0.0
O22 O 0.0345 0.46786 0.99053 0.0
O23 O 0.97816 0.44746 0.09308 0.0
H24 H 0.13134 0.49934 0.97376 0.0
O25 O 0.04547 0.46966 0.25188 0.0
O26 O 0.10413 0.49801 0.15468 0.0
O27 O 0.0452 0.54581 0.26842 0.0
O28 O 0.0997 0.57086 0.15722 0.0
C29 C 0.08262 0.47491 0.22711 0.0
H30 H 0.07839 0.56639 0.76267 0.0
H31 H 0.10743 0.47702 0.80285 0.0
H32 H 0.95151 0.39461 0.4341 0.0
H33 H 0.95482 0.49776 0.51455 0.0
C34 C 0.40118 0.47958 0.15514 0.0
N35 N 0.52842 0.50674 0.229 0.0
C36 C 0.50089 0.47089 0.26525 0.0
C37 C 0.4755 0.46621 0.35144 0.0
C38 C 0.48376 0.49879 0.40358 0.0
C39 C 0.52353 0.53269 0.38357 0.0
C40 C 0.54648 0.53585 0.29426 0.0
Zn41 Zn 0.49854 0.51792 0.11226 0.0
C42 C 0.4704 0.45833 0.95679 0.0
N43 N 0.43079 0.53465 0.87285 0.0
C44 C 0.38776 0.50917 0.85807 0.0
C45 C 0.45387 0.56397 0.80611 0.0
C46 C 0.437 0.56336 0.71129 0.0
C47 C 0.39644 0.53179 0.68624 0.0
C48 C 0.36902 0.50893 0.76605 0.0
Zn49 Zn 0.46326 0.52644 0.98682 0.0
O50 O 0.43671 0.48609 0.19291 0.0
C51 C 0.49675 0.59052 0.13227 0.0
O52 O 0.40226 0.49428 0.06941 0.0
H53 H 0.48701 0.58556 0.82169 0.0
H54 H 0.49012 0.44706 0.21584 0.0
H55 H 0.36865 0.48654 0.91227 0.0
O56 O 0.50965 0.57053 0.17774 0.0
O57 O 0.47525 0.57803 1.05167 0.0
H58 H 0.57179 0.56366 0.26752 0.0
O59 O 0.52559 0.5563 0.90423 0.0
O60 O 0.55728 0.54675 1.03372 0.0
O61 O 0.45347 0.47615 0.91764 0.0
O62 O 0.48904 0.4689 1.0411 0.0
C63 C 0.55933 0.55865 0.9435 0.0
H64 H 0.44627 0.43899 0.3649 0.0
H65 H 0.533 0.55782 0.42727 0.0
H66 H 0.45884 0.58366 0.65421 0.0
H67 H 0.33614 0.4864 0.75199 0.0
C68 C 0.54366 0.03036 0.86369 0.0
N69 N 0.42377 0.93063 0.7958 0.0
C70 C 0.45391 0.92294 0.75703 0.0
C71 C 0.47687 0.94225 0.66912 0.0
C72 C 0.46475 0.96592 0.62068 0.0
C73 C 0.42412 0.96189 0.64481 0.0
C74 C 0.40245 0.94178 0.73301 0.0
Zn75 Zn 0.45079 0.96833 0.91145 0.0
C76 C 0.49139 0.94136 1.05554 0.0
N77 N 0.50945 0.04641 0.14476 0.0
C78 C 0.55285 0.06014 0.15705 0.0
C79 C 0.48643 0.05532 0.20985 0.0
C80 C 0.50478 0.0722 0.3011 0.0
C81 C 0.54581 0.0774 0.32519 0.0
C82 C 0.57268 0.07826 0.24575 0.0
Zn83 Zn 0.479 0.00914 1.03396 0.0
O84 O 0.51459 -0.00132 0.82962 0.0
C85 C 0.43837 0.0367 0.89041 0.0
O86 O 0.5356 0.04157 0.94523 0.0
H87 H 0.45256 0.04568 0.19617 0.0
H88 H 0.46734 0.90988 0.80426 0.0
H89 H 0.5712 0.05344 0.1042 0.0
O90 O 0.43277 0.00728 0.84544 0.0
O91 O 0.45579 0.04397 0.97679 0.0
H92 H 0.3752 0.94379 0.76205 0.0
O93 O 0.41973 0.97528 0.12458 0.0
O94 O 0.3907 0.93907 0.99347 0.0
O95 O 0.50331 0.97357 0.09352 0.0
O96 O 0.46794 0.93178 0.97814 0.0
C97 C 0.38728 0.94672 0.08517 0.0
H98 H 0.50691 0.94311 0.64899 0.0
H99 H 0.41244 0.97797 0.60425 0.0
H100 H 0.48352 0.07318 0.3589 0.0
H101 H 0.60515 0.08366 0.26059 0.0
C102 C 0.54247 0.83991 0.23471 0.0
N103 N 0.66474 0.85064 0.17908 0.0
C104 C 0.66769 0.88304 0.14232 0.0
C105 C 0.64732 0.8815 1.05167 0.0
C106 C 0.62935 0.84784 0.99708 0.0
C107 C 0.64213 0.82142 1.02086 0.0
C108 C 0.66148 0.8241 0.1137 0.0
Zn109 Zn 0.61606 0.82687 0.28967 0.0
C110 C 0.62959 0.88216 0.44506 0.0
N111 N 0.51389 0.78282 0.51199 0.0
C112 C 0.49581 0.80389 0.53819 0.0
C113 C 0.51184 0.75584 0.57616 0.0
C114 C 0.50224 0.75656 0.67826 0.0
C115 C 0.49529 0.7856 0.71157 0.0
C116 C 0.48407 0.80427 0.63916 0.0
Zn117 Zn 0.56112 0.80324 0.40253 0.0
O118 O 0.57926 0.84531 0.20627 0.0
C119 C 0.54938 0.74401 0.25802 0.0
O120 O 0.5243 0.82036 0.31471 0.0
H121 H 0.52462 0.73819 0.55235 0.0
H122 H 0.67474 0.90595 0.19278 0.0
H123 H 0.49662 0.82462 0.48549 0.0
O124 O 0.58383 0.77184 0.21845 0.0
O125 O 0.53174 0.7493 0.33545 0.0
H126 H 0.66357 0.80019 0.14171 0.0
O127 O 0.60089 0.78958 0.4927 0.0
O128 O 0.6528 0.81136 0.37544 0.0
O129 O 0.59221 0.85598 0.47577 0.0
O130 O 0.64656 0.87807 0.365 0.0
C131 C 0.63907 0.79797 0.46442 0.0
H132 H 0.63971 0.90335 1.03521 0.0
H133 H 0.63139 0.79622 0.97652 0.0
H134 H 0.5089 0.73973 0.73075 0.0
H135 H 0.47504 0.8247 0.66169 0.0
C136 C 0.07295 0.76591 0.53702 0.0
N137 N 0.20165 0.78847 0.59645 0.0
C138 C 0.17996 0.75727 0.65781 0.0
C139 C 0.19686 0.75661 0.75156 0.0
C140 C 0.23515 0.78942 0.78221 0.0
C141 C 0.26252 0.81474 0.70559 0.0
C142 C 0.24382 0.81539 0.61417 0.0
Zn143 Zn 0.16829 0.79558 0.4845 0.0
C144 C 0.13238 0.72881 0.34735 0.0
N145 N 0.09884 0.81052 0.24524 0.0
C146 C 0.07959 0.7806 0.18269 0.0
C147 C 0.12525 0.84599 0.20564 0.0
C148 C 0.14855 0.84993 0.11652 0.0
C149 C 0.13918 0.81698 0.06448 0.0
C150 C 0.10011 0.78309 0.08995 0.0
Zn151 Zn 0.13033 0.80131 0.36155 0.0
O152 O 0.10683 0.76745 0.57322 0.0
C153 C 0.16194 0.8639 0.50949 0.0
O154 O 0.07331 0.77546 0.4452 0.0
H155 H 0.13699 0.87036 0.25334 0.0
H156 H 0.14764 0.73482 0.63901 0.0
H157 H 0.05522 0.75298 0.21275 0.0
O158 O 0.17901 0.84636 0.54945 0.0
O159 O 0.14223 0.85233 0.42668 0.0
H160 H 0.26177 0.83935 0.56279 0.0
O161 O 0.1913 0.83103 0.27447 0.0
O162 O 0.22802 0.82658 0.39917 0.0
O163 O 0.11637 0.7467 0.30369 0.0
O164 O 0.15651 0.74345 0.42306 0.0
C165 C 0.22768 0.83927 0.31143 0.0
H166 H 0.17572 0.73414 0.80484 0.0
H167 H 0.2945 0.83826 0.72271 0.0
H168 H 0.17729 0.87719 0.10055 0.0
H169 H 0.08965 0.75752 1.04751 0.0
C170 C 0.24001 0.37145 0.37387 0.0
N171 N 0.12239 0.27038 0.31571 0.0
C172 C 0.15088 0.26248 0.26864 0.0
C173 C 0.15886 0.26993 0.16532 0.0
C174 C 0.13699 0.28537 0.11532 0.0
C175 C 0.09882 0.28133 0.15933 0.0
C176 C 0.09171 0.27315 0.26283 0.0
Zn177 Zn 0.14898 0.30744 0.42932 0.0
C178 C 0.19308 0.28238 0.57331 0.0
N179 N 0.20719 0.38603 0.65873 0.0
C180 C 0.24903 0.39651 0.68082 0.0
C181 C 0.18467 0.39826 0.7145 0.0
C182 C 0.2005 0.4142 0.80813 0.0
C183 C 0.23537 0.41131 0.84551 0.0
C184 C 0.26525 0.41189 0.77475 0.0
Zn185 Zn 0.17764 0.34804 0.55115 0.0
O186 O 0.20914 0.34113 0.33755 0.0
C187 C 0.13351 0.37367 0.4111 0.0
O188 O 0.23504 0.38006 0.46275 0.0
H189 H 0.15248 0.39161 0.69244 0.0
H190 H 0.17417 0.25909 0.31199 0.0
H191 H 0.26736 0.38808 0.63316 0.0
O192 O 0.12448 0.34278 0.36918 0.0
O193 O 0.15523 0.38277 0.49147 0.0
H194 H 0.06803 0.27764 0.30248 0.0
O195 O 0.11699 0.31437 0.64196 0.0
O196 O 0.09182 0.27517 0.51545 0.0
O197 O 0.2017 0.31324 0.61465 0.0
O198 O 0.17215 0.27343 0.4916 0.0
C199 C 0.08657 0.2838 0.6044 0.0
H200 H 0.18774 0.27165 0.13177 0.0
H201 H 0.08051 0.29198 0.12055 0.0
H202 H 0.17883 0.41773 0.85923 0.0
H203 H 0.29455 0.41283 0.80002 0.0
C204 C 0.31505 0.15895 0.98218 0.0
N205 N 0.39463 0.24497 0.7421 0.0
C206 C 0.38156 0.25942 0.81799 0.0
C207 C 0.40458 0.29749 0.83879 0.0
C208 C 0.44143 0.32184 0.78027 0.0
C209 C 0.455 0.30716 0.70139 0.0
C210 C 0.43076 0.26792 0.68347 0.0
Zn211 Zn 0.34889 0.18856 0.72989 0.0
C212 C 0.37477 0.13373 0.74398 0.0
N213 N 0.24126 0.07803 0.72174 0.0
C214 C 0.20509 0.05547 0.78064 0.0
C215 C 0.25346 0.06336 0.64473 0.0
C216 C 0.2295 0.02539 0.62312 0.0
C217 C 0.19268 0.0014 0.6822 0.0
C218 C 0.18002 0.01633 0.76222 0.0
Zn219 Zn 0.2874 0.13417 0.73407 0.0
O220 O 0.34514 0.18507 0.92285 0.0
C221 C 0.26123 0.18857 0.7187 0.0
O222 O 0.2843 0.13227 0.92869 0.0
H223 H 0.2832 0.08073 0.60161 0.0
H224 H 0.35181 0.24176 0.86083 0.0
H225 H 0.19637 0.06749 0.84275 0.0
O226 O 0.30253 0.20699 0.72054 0.0
O227 O 0.24128 0.15259 0.72666 0.0
H228 H 0.44013 0.2561 0.62201 0.0
O229 O 0.29099 0.13791 0.54056 0.0
O230 O 0.35224 0.19036 0.53575 0.0
O231 O 0.3335 0.11564 0.74162 0.0
O232 O 0.39514 0.16981 0.73873 0.0
C233 C 0.32141 0.16399 0.48175 0.0
H234 H 0.39289 0.30809 0.89898 0.0
H235 H 0.48335 0.32567 0.65426 0.0
H236 H 0.2406 0.01453 0.56235 0.0
H237 H 0.15181 -0.00195 0.81002 0.0
C238 C 0.82025 0.15252 0.52253 0.0
N239 N 0.80816 0.07101 0.76781 0.0
C240 C 0.77342 0.04397 0.82319 0.0
C241 C 0.74797 0.00776 0.78458 0.0
C242 C 0.75897 4e-05 0.68903 0.0
C243 C 0.79861 0.02664 0.64161 0.0
C244 C 0.8232 0.06232 0.68327 0.0
Zn245 Zn 0.8202 0.12466 0.77361 0.0
C246 C 0.91087 0.18393 0.76253 0.0
N247 N 0.8372 0.23346 0.77966 0.0
C248 C 0.83028 0.25532 0.7125 0.0
C249 C 0.86525 0.2494 0.85725 0.0
C250 C 0.8879 0.28797 0.86977 0.0
C251 C 0.88247 0.31126 0.8016 0.0
C252 C 0.85275 0.29503 0.72273 0.0
Zn253 Zn 0.82078 0.17798 0.7706 0.0
O254 O 0.81925 0.12617 0.58089 0.0
C255 C 0.72991 0.11937 0.77656 0.0
O256 O 0.82147 0.17948 0.57689 0.0
H257 H 0.87325 0.23275 0.90593 0.0
H258 H 0.76181 0.05185 0.88935 0.0
H259 H 0.809 0.24234 0.6493 0.0
O260 O 0.75036 0.10147 0.77832 0.0
O261 O 0.75195 0.15549 0.77345 0.0
H262 H 0.85081 0.08443 0.64059 0.0
O263 O 0.81823 0.17431 0.96514 0.0
O264 O 0.82091 0.12335 0.96713 0.0
O265 O 0.88959 0.20084 0.76517 0.0
O266 O 0.88987 0.14789 0.7651 0.0
C267 C 0.81951 0.14888 1.02263 0.0
H268 H 0.71739 0.98781 0.82259 0.0
H269 H 0.80795 0.0213 0.56787 0.0
H270 H 0.91074 0.29972 0.9311 0.0
H271 H 0.84796 0.31268 0.66903 0.0
C272 C 0.81985 0.67388 0.99769 0.0
N273 N 0.84054 0.60744 0.76398 0.0
C274 C 0.87148 0.62071 0.83631 0.0
C275 C 0.89476 0.60328 0.85682 0.0
C276 C 0.88612 0.57117 0.80404 0.0
C277 C 0.85339 0.55664 0.73115 0.0
C278 C 0.83095 0.57589 0.71098 0.0
Zn279 Zn 0.81949 0.64481 0.74765 0.0
C280 C 0.73146 0.61989 0.76624 0.0
N281 N 0.7991 0.73592 0.73289 0.0
C282 C 0.80926 0.76755 0.7863 0.0
C283 C 0.76781 0.7229 0.66147 0.0
C284 C 0.74495 0.74086 0.64185 0.0
C285 C 0.75427 0.77316 0.69486 0.0
C286 C 0.7871 0.78719 0.76746 0.0
Zn287 Zn 0.81979 0.69806 0.74791 0.0
O288 O 0.81867 0.64758 0.94111 0.0
C289 C 0.90803 0.72204 0.72966 0.0
O290 O 0.82108 0.70087 0.94135 0.0
H291 H 0.75907 0.69742 0.62099 0.0
H292 H 0.87977 0.64608 0.87678 0.0
H293 H 0.83384 0.77718 0.84369 0.0
O294 O 0.88624 0.68627 0.73425 0.0
O295 O 0.88779 0.74008 0.73491 0.0
H296 H 0.80654 0.56599 0.65313 0.0
O297 O 0.81992 0.69504 0.55404 0.0
O298 O 0.81872 0.64221 0.55468 0.0
O299 O 0.75203 0.65581 0.76256 0.0
O300 O 0.75282 0.60295 0.75892 0.0
C301 C 0.81935 0.66885 0.49793 0.0
H302 H 0.91927 0.61471 0.91477 0.0
H303 H 0.84568 0.53124 0.69059 0.0
H304 H 0.71999 0.72954 0.58492 0.0
H305 H 0.79512 0.81249 0.80885 0.0
C306 C 0.06029 0.4802 0.61723 0.0
C307 C 0.05222 0.49409 0.70627 0.0
C308 C 0.02644 0.4592 0.55065 0.0
C309 C 0.98363 0.45113 0.57261 0.0
H310 H 0.09314 0.48733 0.59646 0.0
H311 H 0.03465 0.45226 0.47775 0.0
S312 S 0.94416 0.47331 0.80541 0.0
N313 N -0.00271 0.49327 0.81987 0.0
N314 N 0.93377 0.45249 0.69507 0.0
C315 C 0.97452 0.46103 0.66619 0.0
C316 C 0.00888 0.48315 0.73269 0.0
C317 C 0.41664 0.5391 0.50407 0.0
C318 C 0.39411 0.51447 0.58644 0.0
C319 C 0.44408 0.53259 0.44225 0.0
C320 C 0.44838 0.5006 0.45825 0.0
H321 H 0.41857 0.56627 0.4974 0.0
H322 H 0.46345 0.55364 0.38436 0.0
S323 S 0.37442 0.4167 0.61987 0.0
N324 N 0.36175 0.44896 0.64848 0.0
N325 N 0.41434 0.43715 0.53417 0.0
C326 C 0.4179 0.4716 0.52342 0.0
C327 C 0.38959 0.47815 0.58563 0.0
C328 C 0.51992 -0.00596 0.48071 0.0
C329 C 0.49713 -0.00114 0.56045 0.0
C330 C 0.54496 0.02388 0.41266 0.0
C331 C 0.54658 0.05894 0.42104 0.0
H332 H 0.51551 0.96638 0.46588 0.0
H333 H 0.55758 0.01735 0.34563 0.0
S334 S 0.5066 0.08924 0.63935 0.0
N335 N 0.48861 0.0439 0.66255 0.0
N336 N 0.53446 0.09982 0.53079 0.0
C337 C 0.53056 0.06584 0.51054 0.0
C338 C 0.50539 0.03556 0.58055 0.0
C339 C 0.51889 0.78389 0.88675 0.0
C340 C 0.51818 0.80557 0.80442 0.0
C341 C 0.55439 0.79857 0.95069 0.0
C342 C 0.59014 0.83566 0.93589 0.0
H343 H 0.49393 0.75425 0.89586 0.0
H344 H 0.55457 0.78006 1.00973 0.0
S345 S 0.59623 0.90873 0.75725 0.0
N346 N 0.55086 0.86948 0.7293 0.0
N347 N 0.61708 0.8969 0.8517 0.0
C348 C 0.58646 0.85961 0.86529 0.0
C349 C 0.55038 0.84464 0.79929 0.0
C350 C 0.20792 0.77841 0.96032 0.0
C351 C 0.23253 0.80467 0.88234 0.0
C352 C 0.17811 0.78301 1.0187 0.0
C353 C 0.17358 0.81505 1.00508 0.0
H354 H 0.20706 0.75167 0.96639 0.0
H355 H 0.15772 0.76066 0.07315 0.0
S356 S 0.25055 0.90214 0.85673 0.0
N357 N 0.26504 0.87106 0.8283 0.0
N358 N 0.20798 0.87944 0.93464 0.0
C359 C 0.20486 0.8451 0.94319 0.0
C360 C 0.2355 0.84037 0.88465 0.0
C361 C 0.20918 0.34475 0.89758 0.0
C362 C 0.22089 0.38195 0.92578 0.0
C363 C 0.18111 0.31337 0.9581 0.0
C364 C 0.16364 0.31808 1.04814 0.0
H365 H 0.2194 0.33931 0.82526 0.0
H366 H 0.17233 0.28529 0.93349 0.0
S367 S 0.1906 0.40937 0.1646 0.0
N368 N 0.21755 0.42177 1.05485 0.0
N369 N 0.16472 0.3626 0.17078 0.0
C370 C 0.17747 0.35509 0.0809 0.0
C371 C 0.2063 0.38706 1.01938 0.0
C372 C 0.2865 0.13327 0.29392 0.0
C373 C 0.32025 0.16311 0.35375 0.0
C374 C 0.28482 0.13194 0.18096 0.0
C375 C 0.31666 0.16029 0.11014 0.0
H376 H 0.25998 0.10966 0.33551 0.0
H377 H 0.25724 0.10748 0.14863 0.0
S378 S 0.41343 0.24636 0.21576 0.0
N379 N 0.38733 0.22289 0.3209 0.0
N380 N 0.38439 0.22061 0.12015 0.0
C381 C 0.35056 0.19034 0.16888 0.0
C382 C 0.35227 0.19167 0.28396 0.0
C383 C 0.8213 0.17999 0.326 0.0
C384 C 0.81998 0.15141 0.39454 0.0
C385 C 0.82105 0.17902 0.21294 0.0
C386 C 0.81957 0.14938 0.15072 0.0
H387 H 0.82258 0.20435 0.36034 0.0
H388 H 0.8222 0.20277 0.17328 0.0
S389 S 0.81497 0.06556 0.2821 0.0
N390 N 0.81655 0.09105 0.3798 0.0
N391 N 0.81632 0.08942 0.17882 0.0
C392 C 0.81817 0.12057 0.21825 0.0
C393 C 0.8183 0.12151 0.33345 0.0
C394 C 0.8198 0.69913 0.30612 0.0
C395 C 0.81947 0.66979 0.3698 0.0
C396 C 0.81994 0.70043 0.19298 0.0
C397 C 0.81976 0.67254 0.1258 0.0
H398 H 0.81994 0.72233 0.34465 0.0
H399 H 0.82017 0.72445 0.15747 0.0
S400 S 0.81922 0.58824 0.24252 0.0
N401 N 0.81919 0.6112 0.34464 0.0
N402 N 0.81942 0.61345 0.14356 0.0
C403 C 0.81949 0.64305 0.1884 0.0
C404 C 0.81936 0.64175 0.30367 0.0
C405 C 0.0805 0.38585 0.31918 0.0
C406 C 0.12112 0.39995 0.36477 0.0
C407 C 0.06833 0.41055 0.27624 0.0
C408 C 0.09697 0.45015 0.2737 0.0
H409 H 0.05768 0.35558 0.31826 0.0
H410 H 0.03642 0.39852 0.2433 0.0
S411 S 0.20775 0.50134 0.37854 0.0
N412 N 0.19013 0.45619 0.40423 0.0
N413 N 0.16794 0.50222 0.31847 0.0
C414 C 0.13797 0.46457 0.31692 0.0
C415 C 0.14982 0.43957 0.36388 0.0
C416 C 0.50682 0.65526 0.10006 0.0
C417 C 0.509 0.6292 0.16746 0.0
C418 C 0.52005 0.69251 0.12882 0.0
C419 C 0.5347 0.70476 0.22707 0.0
H420 H 0.49565 0.64712 1.02347 0.0
H421 H 0.51847 0.71168 0.07421 0.0
S422 S 0.54792 0.64898 0.43202 0.0
N423 N 0.52915 0.61974 0.3361 0.0
N424 N 0.55136 0.68867 0.39143 0.0
C425 C 0.53673 0.67918 0.29541 0.0
C426 C 0.52459 0.64172 0.26535 0.0
C427 C 0.31188 0.8894 0.09814 0.0
C428 C 0.34672 0.9206 0.14566 0.0
C429 C 0.27407 0.86302 0.15267 0.0
C430 C 0.2692 0.86632 0.25699 0.0
H431 H 0.31388 0.88493 1.01794 0.0
H432 H 0.24878 0.83932 0.11346 0.0
S433 S 0.34991 0.94237 0.41937 0.0
N434 N 0.37339 0.953 0.30526 0.0
N435 N 0.30217 0.90324 0.40688 0.0
C436 C 0.30364 0.89707 0.30624 0.0
C437 C 0.34227 0.92425 0.25077 0.0
C438 C 0.44343 0.10015 0.87589 0.0
C439 C 0.42515 0.06248 0.84317 0.0
C440 C 0.42968 0.12441 0.8372 0.0
C441 C 0.39663 0.11178 0.7653 0.0
H442 H 0.46805 0.11083 0.93347 0.0
H443 H 0.44324 0.15246 0.86815 0.0
S444 S 0.34045 0.01694 0.64843 0.0
N445 N 0.37427 0.01487 0.72882 0.0
N446 N 0.34803 0.05999 0.65784 0.0
C447 C 0.37945 0.07479 0.72876 0.0
C448 C 0.3938 0.0503 0.76711 0.0
C449 C 0.89268 0.36628 0.89405 0.0
C450 C 0.90868 0.35205 0.81993 0.0
C451 C 0.92115 0.39613 0.95481 0.0
C452 C 0.96677 0.41318 0.94301 0.0
H453 H 0.85805 0.35178 0.91206 0.0
H454 H 0.90708 0.4051 1.01365 0.0
S455 S 0.02455 0.38957 0.74817 0.0
N456 N 0.97233 0.35951 0.72932 0.0
N457 N 0.02628 0.41606 0.84343 0.0
C458 C 0.98308 0.4013 0.86307 0.0
C459 C 0.9539 0.37082 0.80101 0.0
C460 C 0.66079 0.61873 0.78027 0.0
C461 C 0.68423 0.59973 0.79274 0.0
C462 C 0.61904 0.60438 0.82416 0.0
C463 C 0.59973 0.57091 0.88339 0.0
H464 H 0.6756 0.64581 0.73997 0.0
H465 H 0.60296 0.62062 0.81653 0.0
S466 S 0.64394 0.50747 0.92728 0.0
N467 N 0.68235 0.54336 0.85909 0.0
N468 N 0.60428 0.51667 0.94241 0.0
C469 C 0.62135 0.55032 0.89063 0.0
C470 C 0.66348 0.5646 0.84487 0.0
C471 C 0.95539 0.57214 0.82078 0.0
C472 C 0.90989 0.55265 0.83661 0.0
C473 C 0.98199 0.56537 0.88412 0.0
C474 C 0.96387 0.53935 0.96618 0.0
H475 H 0.97065 0.59468 0.76374 0.0
H476 H 0.01696 0.58149 0.87083 0.0
S477 S 0.8458 0.47815 1.03131 0.0
N478 N 0.84753 0.50431 0.93321 0.0
N479 N 0.89698 0.4912 1.05303 0.0
C480 C 0.91808 0.51824 0.97904 0.0
C481 C 0.8912 0.52479 0.91345 0.0
C482 C 0.45097 0.41588 0.80754 0.0
C483 C 0.47031 0.42673 0.90294 0.0
C484 C 0.44694 0.38401 0.75918 0.0
C485 C 0.46272 0.36228 0.80407 0.0
H486 H 0.43716 0.43115 0.7722 0.0
H487 H 0.42825 0.37453 0.69058 0.0
S488 S 0.52192 0.38154 1.04473 0.0
N489 N 0.51021 0.41549 1.03419 0.0
N490 N 0.5022 0.3556 0.94292 0.0
C491 C 0.48543 0.37463 0.89469 0.0
C492 C 0.48932 0.40684 0.94439 0.0
C493 C 0.65775 0.0577 0.77421 0.0
C494 C 0.68106 0.09764 0.78245 0.0
C495 C 0.61225 0.03592 0.79117 0.0
C496 C 0.5883 0.05318 0.81817 0.0
H497 H 0.67496 0.04288 0.75805 0.0
H498 H 0.59629 0.00529 0.78975 0.0
S499 S 0.6318 0.15653 0.83707 0.0
N500 N 0.6751 0.1534 0.80904 0.0
N501 N 0.5902 0.11253 0.84252 0.0
C502 C 0.61059 0.09304 0.82042 0.0
C503 C 0.65673 0.11525 0.80216 0.0
C504 C 0.53147 0.92548 0.18399 0.0
C505 C 0.50354 0.91465 0.10089 0.0
C506 C 0.54316 0.9006 0.22751 0.0
C507 C 0.52715 0.86396 0.19018 0.0
H508 H 0.54465 0.95342 0.2154 0.0
H509 H 0.56522 0.91021 0.29055 0.0
S510 S 0.45235 0.82079 0.97719 0.0
N511 N 0.45962 0.86377 0.98446 0.0
N512 N 0.48189 0.81756 0.06773 0.0
C513 C 0.49913 0.85248 0.1083 0.0
C514 C 0.48721 0.87769 0.06338 0.0
C515 C 0.07618 0.66161 0.30953 0.0
C516 C 0.12031 0.68989 0.3172 0.0
C517 C 0.06376 0.62384 0.28901 0.0
C518 C 0.09502 0.61305 0.27253 0.0
H519 H 0.051 0.66861 0.32116 0.0
H520 H 0.02938 0.60318 0.28249 0.0
S521 S 0.21489 0.67654 0.28286 0.0
N522 N 0.19531 0.70442 0.30873 0.0
N523 N 0.17213 0.63405 0.26433 0.0
C524 C 0.13927 0.64117 0.27913 0.0
C525 C 0.15184 0.67937 0.30314 0.0
C526 C 0.349 0.45988 0.30325 0.0
C527 C 0.35907 0.45241 0.20643 0.0
C528 C 0.3107 0.43345 0.35607 0.0
C529 C 0.28067 0.39812 0.31446 0.0
H530 H 0.37067 0.48657 0.33797 0.0
H531 H 0.30466 0.44103 0.43042 0.0
S532 S 0.29389 0.36406 0.06437 0.0
N533 N 0.33717 0.40702 0.07131 0.0
N534 N 0.26525 0.3569 0.17051 0.0
C535 C 0.29065 0.39024 0.2173 0.0
C536 C 0.32971 0.41747 0.16331 0.0
C537 C 0.74412 0.81384 0.57562 0.0
C538 C 0.72994 0.79155 0.66499 0.0
C539 C 0.71442 0.81622 0.51258 0.0
C540 C 0.66948 0.79663 0.53712 0.0
H541 H 0.77765 0.82629 0.54902 0.0
H542 H 0.72675 0.83236 0.44199 0.0
S543 S 0.61754 0.74053 0.77376 0.0
N544 N 0.66953 0.7537 0.78242 0.0
N545 N 0.61343 0.75908 0.66554 0.0
C546 C 0.65561 0.77752 0.63181 0.0
C547 C 0.68599 0.77491 0.69561 0.0
C548 C 0.18822 0.93986 0.70308 0.0
C549 C 0.17123 0.96088 0.65983 0.0
C550 C 0.18388 0.90788 0.65507 0.0
C551 C 0.1628 0.89602 0.56192 0.0
H552 H 0.20813 0.95005 0.76973 0.0
H553 H 0.19882 0.89329 0.68867 0.0
S554 S 0.10758 0.93903 0.42542 0.0
N555 N 0.12897 0.96597 0.52492 0.0
N556 N 0.12006 0.90552 0.43478 0.0
C557 C 0.14266 0.9152 0.52224 0.0
C558 C 0.14703 0.94769 0.57139 0.0
C559 C 0.97809 0.19454 0.67031 0.0
C560 C 0.95868 0.20689 0.74148 0.0
C561 C 0.02015 0.21937 0.63014 0.0
C562 C 0.04492 0.25748 0.66041 0.0
H563 H 0.95964 0.16626 0.64035 0.0
H564 H 0.03278 0.20883 0.57208 0.0
S565 S 0.01133 0.30188 0.85723 0.0
N566 N 0.96899 0.25848 0.84892 0.0
N567 N 0.04841 0.30481 0.77511 0.0
C568 C 0.02718 0.26929 0.73744 0.0
C569 C -0.01602 0.24412 0.77729 0.0
C570 C 0.2587 0.24849 0.71965 0.0
C571 C 0.23868 0.2098 0.6954 0.0
C572 C 0.24286 0.27145 0.68326 0.0
C573 C 0.20694 0.25689 0.61905 0.0
H574 H 0.28773 0.26148 0.76491 0.0
H575 H 0.26001 0.30117 0.70228 0.0
S576 S 0.14078 0.15685 0.53882 0.0
N577 N 0.17919 0.1575 0.60868 0.0
N578 N 0.1498 0.20054 0.53878 0.0
C579 C 0.18555 0.2179 0.5975 0.0
C580 C 0.20125 0.19439 0.63614 0.0
C581 C 0.67893 0.94998 0.48126 0.0
C582 C 0.65803 0.91196 0.51367 0.0
C583 C 0.71178 0.97823 0.53893 0.0
C584 C 0.72525 0.96912 0.62951 0.0
H585 H 0.67029 0.95779 0.41029 0.0
H586 H 0.72689 0.00744 0.51238 0.0
S587 S 0.68383 0.87304 0.73993 0.0
N588 N 0.65457 0.86608 0.63776 0.0
N589 N 0.71682 0.91942 0.74601 0.0
C590 C 0.70486 0.93113 0.66212 0.0
C591 C 0.67116 0.90241 0.60383 0.0
C592 C 0.97631 0.7193 0.72157 0.0
C593 C 0.95507 0.73991 0.70263 0.0
C594 C 0.01599 0.7289 0.67267 0.0
C595 C 0.03547 0.75916 0.60224 0.0
H596 H 0.96085 0.69411 0.77013 0.0
H597 H 0.02995 0.71118 0.68525 0.0
S598 S -0.00185 0.82653 0.54028 0.0
N599 N 0.96015 0.79518 0.61944 0.0
N600 N 0.0346 0.81336 0.52765 0.0
C601 C 0.01673 0.78202 0.58961 0.0
C602 C 0.97662 0.77246 0.64004 0.0
loop_
_geom_bond_atom_site_label_1
_geom_bond_atom_site_label_2
_geom_bond_distance
_geom_bond_site_symmetry_2
_ccdc_geom_bond_type
C0 O16 1.251 1_554 S
C0 O18 1.254 . S
N1 C2 1.333 . S
N1 C6 1.307 . S
N1 Zn7 2.020 . S
C2 N1 1.333 . S
C2 C3 1.379 . S
C2 H20 0.952 . S
C3 C2 1.379 . S
C3 C4 1.390 . S
C3 H30 0.949 . S
C4 C3 1.390 . S
C4 C5 1.357 . S
C5 C4 1.357 . S
C5 C6 1.370 . S
C5 H31 0.950 . S
C6 N1 1.307 . S
C6 C5 1.370 . S
C6 H24 0.948 . S
Zn7 N1 2.020 . S
Zn7 O16 2.039 . S
Zn7 O22 2.034 . S
Zn7 O26 2.025 1_556 S
Zn7 O28 2.024 1_556 S
C8 O27 1.246 . S
C8 O28 1.249 . S
N9 C10 1.307 1_455 S
N9 C11 1.333 . S
N9 Zn15 2.020 . S
C10 N9 1.307 1_655 S
C10 C14 1.370 . S
C10 H21 0.948 . S
C11 N9 1.333 . S
C11 C12 1.379 . S
C11 H19 0.952 . S
C12 C11 1.379 . S
C12 C13 1.390 1_455 S
C12 H32 0.949 . S
C13 C12 1.390 1_655 S
C13 C14 1.357 . S
C14 C10 1.370 . S
C14 C13 1.357 . S
C14 H33 0.950 . S
Zn15 N9 2.020 . S
Zn15 O18 2.025 . S
Zn15 O23 2.024 . S
Zn15 O25 2.039 . S
Zn15 O27 2.034 . S
O16 C0 1.251 1_556 S
O16 Zn7 2.039 . S
C17 O22 1.246 1_554 S
C17 O23 1.249 . S
O18 C0 1.254 . S
O18 Zn15 2.025 . S
H19 C11 0.952 . S
H20 C2 0.952 . S
H21 C10 0.948 . S
O22 Zn7 2.034 . S
O22 C17 1.246 1_556 S
O23 Zn15 2.024 . S
O23 C17 1.249 . S
H24 C6 0.948 . S
O25 Zn15 2.039 . S
O25 C29 1.251 . S
O26 Zn7 2.025 1_554 S
O26 C29 1.254 . S
O27 C8 1.246 . S
O27 Zn15 2.034 . S
O28 Zn7 2.024 1_554 S
O28 C8 1.249 . S
C29 O25 1.251 . S
C29 O26 1.254 . S
H30 C3 0.949 . S
H31 C5 0.950 . S
H32 C12 0.949 . S
H33 C14 0.950 . S
C34 O50 1.251 . S
C34 O52 1.248 1_554 S
N35 C36 1.333 . S
N35 C40 1.307 . S
N35 Zn41 2.020 . S
C36 N35 1.333 . S
C36 C37 1.379 . S
C36 H54 0.952 . S
C37 C36 1.379 . S
C37 C38 1.390 . S
C37 H64 0.949 . S
C38 C37 1.390 . S
C38 C39 1.357 . S
C39 C38 1.357 . S
C39 C40 1.370 . S
C39 H65 0.950 . S
C40 N35 1.307 . S
C40 C39 1.370 . S
C40 H58 0.948 . S
Zn41 N35 2.020 . S
Zn41 O50 2.039 . S
Zn41 O56 2.034 . S
Zn41 O60 2.025 . S
Zn41 O62 2.024 . S
C42 O61 1.246 . S
C42 O62 1.249 1_556 S
N43 C44 1.307 . S
N43 C45 1.333 . S
N43 Zn49 2.020 . S
C44 N43 1.307 . S
C44 C48 1.370 . S
C44 H55 0.948 . S
C45 N43 1.333 . S
C45 C46 1.379 . S
C45 H53 0.952 . S
C46 C45 1.379 . S
C46 C47 1.390 . S
C46 H66 0.949 . S
C47 C46 1.390 . S
C47 C48 1.357 . S
C48 C44 1.370 . S
C48 C47 1.357 . S
C48 H67 0.950 . S
Zn49 N43 2.020 . S
Zn49 O52 2.028 . S
Zn49 O57 2.024 . S
Zn49 O59 2.039 . S
Zn49 O61 2.034 . S
O50 C34 1.251 . S
O50 Zn41 2.039 . S
C51 O56 1.246 . S
C51 O57 1.249 1_554 S
O52 C34 1.248 1_556 S
O52 Zn49 2.028 . S
H53 C45 0.952 . S
H54 C36 0.952 . S
H55 C44 0.948 . S
O56 Zn41 2.034 . S
O56 C51 1.246 . S
O57 Zn49 2.024 . S
O57 C51 1.249 1_556 S
H58 C40 0.948 . S
O59 Zn49 2.039 . S
O59 C63 1.251 . S
O60 Zn41 2.025 . S
O60 C63 1.254 1_554 S
O61 C42 1.246 . S
O61 Zn49 2.034 . S
O62 Zn41 2.024 . S
O62 C42 1.249 1_554 S
C63 O59 1.251 . S
C63 O60 1.254 1_556 S
H64 C37 0.949 . S
H65 C39 0.950 . S
H66 C46 0.949 . S
H67 C48 0.950 . S
C68 O84 1.251 . S
C68 O86 1.254 1_556 S
N69 C70 1.333 1_565 S
N69 C74 1.307 . S
N69 Zn75 2.017 1_565 S
C70 N69 1.333 1_545 S
C70 C71 1.379 . S
C70 H88 0.952 . S
C71 C70 1.379 . S
C71 C72 1.390 1_545 S
C71 H98 0.949 . S
C72 C71 1.390 1_565 S
C72 C73 1.357 . S
C73 C72 1.357 . S
C73 C74 1.370 . S
C73 H99 0.950 . S
C74 N69 1.307 . S
C74 C73 1.370 . S
C74 H92 0.948 . S
Zn75 N69 2.017 1_545 S
Zn75 O84 2.042 . S
Zn75 O90 2.044 . S
Zn75 O94 2.024 1_545 S
Zn75 O96 2.016 1_545 S
C76 O95 1.246 . S
C76 O96 1.249 1_554 S
N77 C78 1.307 . S
N77 C79 1.333 . S
N77 Zn83 2.020 . S
C78 N77 1.307 . S
C78 C82 1.370 . S
C78 H89 0.948 . S
C79 N77 1.333 . S
C79 C80 1.379 . S
C79 H87 0.952 1_545 S
C80 C79 1.379 . S
C80 C81 1.390 . S
C80 H100 0.949 . S
C81 C80 1.390 . S
C81 C82 1.357 . S
C82 C78 1.370 . S
C82 C81 1.357 . S
C82 H101 0.950 . S
Zn83 N77 2.020 . S
Zn83 O86 2.025 . S
Zn83 O91 2.024 . S
Zn83 O93 2.039 1_545 S
Zn83 O95 2.034 1_545 S
O84 C68 1.251 . S
O84 Zn75 2.042 . S
C85 O90 1.246 . S
C85 O91 1.249 1_556 S
O86 C68 1.254 1_554 S
O86 Zn83 2.025 . S
H87 C79 0.952 1_565 S
H88 C70 0.952 . S
H89 C78 0.948 . S
O90 Zn75 2.044 . S
O90 C85 1.246 . S
O91 Zn83 2.024 . S
O91 C85 1.249 1_554 S
H92 C74 0.948 . S
O93 Zn83 2.039 1_565 S
O93 C97 1.251 . S
O94 Zn75 2.024 1_565 S
O94 C97 1.254 1_556 S
O95 C76 1.246 . S
O95 Zn83 2.034 1_565 S
O96 Zn75 2.016 1_565 S
O96 C76 1.249 1_556 S
C97 O93 1.251 . S
C97 O94 1.254 1_554 S
H98 C71 0.949 . S
H99 C73 0.950 . S
H100 C80 0.949 . S
H101 C82 0.950 . S
C102 O118 1.251 . S
C102 O120 1.254 . S
N103 C104 1.333 . S
N103 C108 1.307 . S
N103 Zn109 2.020 . S
C104 N103 1.333 . S
C104 C105 1.379 1_554 S
C104 H122 0.952 . S
C105 C104 1.379 1_556 S
C105 C106 1.390 . S
C105 H132 0.949 . S
C106 C105 1.390 . S
C106 C107 1.357 . S
C107 C106 1.357 . S
C107 C108 1.370 1_556 S
C107 H133 0.950 . S
C108 N103 1.307 . S
C108 C107 1.370 1_554 S
C108 H126 0.948 . S
Zn109 N103 2.020 . S
Zn109 O118 2.039 . S
Zn109 O124 2.034 . S
Zn109 O128 2.025 . S
Zn109 O130 2.024 . S
C110 O129 1.246 . S
C110 O130 1.249 . S
N111 C112 1.307 . S
N111 C113 1.333 . S
N111 Zn117 2.020 . S
C112 N111 1.307 . S
C112 C116 1.370 . S
C112 H123 0.948 . S
C113 N111 1.333 . S
C113 C114 1.379 . S
C113 H121 0.952 . S
C114 C113 1.379 . S
C114 C115 1.390 . S
C114 H134 0.949 . S
C115 C114 1.390 . S
C115 C116 1.357 . S
C116 C112 1.370 . S
C116 C115 1.357 . S
C116 H135 0.950 . S
Zn117 N111 2.020 . S
Zn117 O120 2.025 . S
Zn117 O125 2.024 . S
Zn117 O127 2.039 . S
Zn117 O129 2.034 . S
O118 C102 1.251 . S
O118 Zn109 2.039 . S
C119 O124 1.246 . S
C119 O125 1.249 . S
O120 C102 1.254 . S
O120 Zn117 2.025 . S
H121 C113 0.952 . S
H122 C104 0.952 . S
H123 C112 0.948 . S
O124 Zn109 2.034 . S
O124 C119 1.246 . S
O125 Zn117 2.024 . S
O125 C119 1.249 . S
H126 C108 0.948 . S
O127 Zn117 2.039 . S
O127 C131 1.251 . S
O128 Zn109 2.025 . S
O128 C131 1.254 . S
O129 C110 1.246 . S
O129 Zn117 2.034 . S
O130 Zn109 2.024 . S
O130 C110 1.249 . S
C131 O127 1.251 . S
C131 O128 1.254 . S
H132 C105 0.949 . S
H133 C107 0.950 . S
H134 C114 0.949 . S
H135 C116 0.950 . S
C136 O152 1.251 . S
C136 O154 1.254 . S
N137 C138 1.333 . S
N137 C142 1.307 . S
N137 Zn143 2.020 . S
C138 N137 1.333 . S
C138 C139 1.379 . S
C138 H156 0.952 . S
C139 C138 1.379 . S
C139 C140 1.390 . S
C139 H166 0.949 . S
C140 C139 1.390 . S
C140 C141 1.357 . S
C141 C140 1.357 . S
C141 C142 1.370 . S
C141 H167 0.950 . S
C142 N137 1.307 . S
C142 C141 1.370 . S
C142 H160 0.948 . S
Zn143 N137 2.020 . S
Zn143 O152 2.039 . S
Zn143 O158 2.034 . S
Zn143 O162 2.025 . S
Zn143 O164 2.024 . S
C144 O163 1.246 . S
C144 O164 1.249 . S
N145 C146 1.307 . S
N145 C147 1.333 . S
N145 Zn151 2.020 . S
C146 N145 1.307 . S
C146 C150 1.370 1_554 S
C146 H157 0.948 . S
C147 N145 1.333 . S
C147 C148 1.379 1_554 S
C147 H155 0.952 . S
C148 C147 1.379 1_556 S
C148 C149 1.390 . S
C148 H168 0.949 . S
C149 C148 1.390 . S
C149 C150 1.357 . S
C150 C146 1.370 1_556 S
C150 C149 1.357 . S
C150 H169 0.950 . S
Zn151 N145 2.020 . S
Zn151 O154 2.025 . S
Zn151 O159 2.024 . S
Zn151 O161 2.039 . S
Zn151 O163 2.034 . S
O152 C136 1.251 . S
O152 Zn143 2.039 . S
C153 O158 1.246 . S
C153 O159 1.249 . S
O154 C136 1.254 . S
O154 Zn151 2.025 . S
H155 C147 0.952 . S
H156 C138 0.952 . S
H157 C146 0.948 . S
O158 Zn143 2.034 . S
O158 C153 1.246 . S
O159 Zn151 2.024 . S
O159 C153 1.249 . S
H160 C142 0.948 . S
O161 Zn151 2.039 . S
O161 C165 1.251 . S
O162 Zn143 2.025 . S
O162 C165 1.254 . S
O163 C144 1.246 . S
O163 Zn151 2.034 . S
O164 Zn143 2.024 . S
O164 C144 1.249 . S
C165 O161 1.251 . S
C165 O162 1.254 . S
H166 C139 0.949 . S
H167 C141 0.950 . S
H168 C148 0.949 . S
H169 C150 0.950 . S
C170 O186 1.251 . S
C170 O188 1.254 . S
N171 C172 1.333 . S
N171 C176 1.307 . S
N171 Zn177 2.020 . S
C172 N171 1.333 . S
C172 C173 1.379 1_554 S
C172 H190 0.952 . S
C173 C172 1.379 1_556 S
C173 C174 1.390 . S
C173 H200 0.949 . S
C174 C173 1.390 . S
C174 C175 1.357 1_556 S
C175 C174 1.357 1_554 S
C175 C176 1.370 . S
C175 H201 0.950 . S
C176 N171 1.307 . S
C176 C175 1.370 . S
C176 H194 0.948 . S
Zn177 N171 2.020 . S
Zn177 O186 2.039 . S
Zn177 O192 2.034 . S
Zn177 O196 2.025 . S
Zn177 O198 2.024 . S
C178 O197 1.246 . S
C178 O198 1.249 . S
N179 C180 1.307 . S
N179 C181 1.333 . S
N179 Zn185 2.020 . S
C180 N179 1.307 . S
C180 C184 1.370 . S
C180 H191 0.948 . S
C181 N179 1.333 . S
C181 C182 1.379 . S
C181 H189 0.952 . S
C182 C181 1.379 . S
C182 C183 1.390 . S
C182 H202 0.949 . S
C183 C182 1.390 . S
C183 C184 1.357 . S
C184 C180 1.370 . S
C184 C183 1.357 . S
C184 H203 0.950 . S
Zn185 N179 2.020 . S
Zn185 O188 2.025 . S
Zn185 O193 2.024 . S
Zn185 O195 2.039 . S
Zn185 O197 2.034 . S
O186 C170 1.251 . S
O186 Zn177 2.039 . S
C187 O192 1.246 . S
C187 O193 1.249 . S
O188 C170 1.254 . S
O188 Zn185 2.025 . S
H189 C181 0.952 . S
H190 C172 0.952 . S
H191 C180 0.948 . S
O192 Zn177 2.034 . S
O192 C187 1.246 . S
O193 Zn185 2.024 . S
O193 C187 1.249 . S
H194 C176 0.948 . S
O195 Zn185 2.039 . S
O195 C199 1.251 . S
O196 Zn177 2.025 . S
O196 C199 1.254 . S
O197 C178 1.246 . S
O197 Zn185 2.034 . S
O198 Zn177 2.024 . S
O198 C178 1.249 . S
C199 O195 1.251 . S
C199 O196 1.254 . S
H200 C173 0.949 . S
H201 C175 0.950 . S
H202 C182 0.949 . S
H203 C184 0.950 . S
C204 O220 1.251 . S
C204 O222 1.254 . S
N205 C206 1.333 . S
N205 C210 1.307 . S
N205 Zn211 2.020 . S
C206 N205 1.333 . S
C206 C207 1.379 . S
C206 H224 0.952 . S
C207 C206 1.379 . S
C207 C208 1.390 . S
C207 H234 0.949 . S
C208 C207 1.390 . S
C208 C209 1.357 . S
C209 C208 1.357 . S
C209 C210 1.370 . S
C209 H235 0.950 . S
C210 N205 1.307 . S
C210 C209 1.370 . S
C210 H228 0.948 . S
Zn211 N205 2.020 . S
Zn211 O220 2.039 . S
Zn211 O226 2.034 . S
Zn211 O230 2.025 . S
Zn211 O232 2.024 . S
C212 O231 1.246 . S
C212 O232 1.249 . S
N213 C214 1.307 . S
N213 C215 1.333 . S
N213 Zn219 2.020 . S
C214 N213 1.307 . S
C214 C218 1.370 . S
C214 H225 0.948 . S
C215 N213 1.333 . S
C215 C216 1.379 . S
C215 H223 0.952 . S
C216 C215 1.379 . S
C216 C217 1.390 1_545 S
C216 H236 0.949 . S
C217 C216 1.390 1_565 S
C217 C218 1.357 1_565 S
C218 C214 1.370 . S
C218 C217 1.357 1_545 S
C218 H237 0.949 1_545 S
Zn219 N213 2.020 . S
Zn219 O222 2.025 . S
Zn219 O227 2.024 . S
Zn219 O229 2.039 . S
Zn219 O231 2.034 . S
O220 C204 1.251 . S
O220 Zn211 2.039 . S
C221 O226 1.246 . S
C221 O227 1.249 . S
O222 C204 1.254 . S
O222 Zn219 2.025 . S
H223 C215 0.952 . S
H224 C206 0.952 . S
H225 C214 0.948 . S
O226 Zn211 2.034 . S
O226 C221 1.246 . S
O227 Zn219 2.024 . S
O227 C221 1.249 . S
H228 C210 0.948 . S
O229 Zn219 2.039 . S
O229 C233 1.251 . S
O230 Zn211 2.025 . S
O230 C233 1.254 . S
O231 C212 1.246 . S
O231 Zn219 2.034 . S
O232 Zn211 2.024 . S
O232 C212 1.249 . S
C233 O229 1.251 . S
C233 O230 1.254 . S
H234 C207 0.949 . S
H235 C209 0.950 . S
H236 C216 0.949 . S
H237 C218 0.949 1_565 S
C238 O254 1.251 . S
C238 O256 1.254 . S
N239 C240 1.333 . S
N239 C244 1.307 . S
N239 Zn245 2.020 . S
C240 N239 1.333 . S
C240 C241 1.379 . S
C240 H258 0.952 . S
C241 C240 1.379 . S
C241 C242 1.375 1_545 S
C241 H268 0.949 . S
C242 C241 1.375 1_565 S
C242 C243 1.355 1_565 S
C243 C242 1.355 1_545 S
C243 C244 1.370 . S
C243 H269 0.959 . S
C244 N239 1.307 . S
C244 C243 1.370 . S
C244 H262 0.948 . S
Zn245 N239 2.020 . S
Zn245 O254 2.039 . S
Zn245 O260 2.034 . S
Zn245 O264 2.025 . S
Zn245 O266 2.024 . S
C246 O265 1.246 . S
C246 O266 1.249 . S
N247 C248 1.307 . S
N247 C249 1.333 . S
N247 Zn253 2.020 . S
C248 N247 1.307 . S
C248 C252 1.370 . S
C248 H259 0.948 . S
C249 N247 1.333 . S
C249 C250 1.379 . S
C249 H257 0.952 . S
C250 C249 1.379 . S
C250 C251 1.390 . S
C250 H270 0.949 . S
C251 C250 1.390 . S
C251 C252 1.357 . S
C252 C248 1.370 . S
C252 C251 1.357 . S
C252 H271 0.950 . S
Zn253 N247 2.020 . S
Zn253 O256 2.025 . S
Zn253 O261 2.024 . S
Zn253 O263 2.039 . S
Zn253 O265 2.034 . S
O254 C238 1.251 . S
O254 Zn245 2.039 . S
C255 O260 1.246 . S
C255 O261 1.249 . S
O256 C238 1.254 . S
O256 Zn253 2.025 . S
H257 C249 0.952 . S
H258 C240 0.952 . S
H259 C248 0.948 . S
O260 Zn245 2.034 . S
O260 C255 1.246 . S
O261 Zn253 2.024 . S
O261 C255 1.249 . S
H262 C244 0.948 . S
O263 Zn253 2.039 . S
O263 C267 1.251 . S
O264 Zn245 2.025 . S
O264 C267 1.254 . S
O265 C246 1.246 . S
O265 Zn253 2.034 . S
O266 Zn245 2.024 . S
O266 C246 1.249 . S
C267 O263 1.251 . S
C267 O264 1.254 . S
H268 C241 0.949 . S
H269 C243 0.959 . S
H270 C250 0.949 . S
H271 C252 0.950 . S
C272 O288 1.251 . S
C272 O290 1.254 . S
N273 C274 1.333 . S
N273 C278 1.307 . S
N273 Zn279 2.020 . S
C274 N273 1.333 . S
C274 C275 1.379 . S
C274 H292 0.952 . S
C275 C274 1.379 . S
C275 C276 1.390 . S
C275 H302 0.949 . S
C276 C275 1.390 . S
C276 C277 1.357 . S
C277 C276 1.357 . S
C277 C278 1.370 . S
C277 H303 0.950 . S
C278 N273 1.307 . S
C278 C277 1.370 . S
C278 H296 0.948 . S
Zn279 N273 2.020 . S
Zn279 O288 2.039 . S
Zn279 O294 2.034 . S
Zn279 O298 2.025 . S
Zn279 O300 2.024 . S
C280 O299 1.246 . S
C280 O300 1.249 . S
N281 C282 1.307 . S
N281 C283 1.333 . S
N281 Zn287 2.020 . S
C282 N281 1.307 . S
C282 C286 1.370 . S
C282 H293 0.948 . S
C283 N281 1.333 . S
C283 C284 1.379 . S
C283 H291 0.952 . S
C284 C283 1.379 . S
C284 C285 1.390 . S
C284 H304 0.949 . S
C285 C284 1.390 . S
C285 C286 1.357 . S
C286 C282 1.370 . S
C286 C285 1.357 . S
C286 H305 0.950 . S
Zn287 N281 2.020 . S
Zn287 O290 2.025 . S
Zn287 O295 2.024 . S
Zn287 O297 2.039 . S
Zn287 O299 2.034 . S
O288 C272 1.251 . S
O288 Zn279 2.039 . S
C289 O294 1.246 . S
C289 O295 1.249 . S
O290 C272 1.254 . S
O290 Zn287 2.025 . S
H291 C283 0.952 . S
H292 C274 0.952 . S
H293 C282 0.948 . S
O294 Zn279 2.034 . S
O294 C289 1.246 . S
O295 Zn287 2.024 . S
O295 C289 1.249 . S
H296 C278 0.948 . S
O297 Zn287 2.039 . S
O297 C301 1.251 . S
O298 Zn279 2.025 . S
O298 C301 1.254 . S
O299 C280 1.246 . S
O299 Zn287 2.034 . S
O300 Zn279 2.024 . S
O300 C280 1.249 . S
C301 O297 1.251 . S
C301 O298 1.254 . S
H302 C275 0.949 . S
H303 C277 0.950 . S
H304 C284 0.949 . S
H305 C286 0.950 . S
C306 C307 1.369 . S
C306 C308 1.419 . S
C306 H310 0.930 . S
C307 C306 1.369 . S
C307 C316 1.429 . S
C308 C306 1.419 . S
C308 C309 1.363 . S
C308 H311 0.929 . S
C309 C308 1.363 . S
C309 C315 1.428 . S
H310 C306 0.930 . S
H311 C308 0.929 . S
S312 N313 1.613 . S
S312 N314 1.610 1_455 S
N313 S312 1.613 . S
N313 C316 1.350 . S
N314 S312 1.610 1_655 S
N314 C315 1.351 1_655 S
C315 C309 1.428 . S
C315 N314 1.351 1_455 S
C315 C316 1.434 . S
C316 C307 1.429 . S
C316 N313 1.350 . S
C316 C315 1.434 . S
C317 C318 1.369 . S
C317 C319 1.419 . S
C317 H321 0.930 . S
C318 C317 1.369 . S
C318 C327 1.429 . S
C319 C317 1.419 . S
C319 C320 1.363 . S
C319 H322 0.929 . S
C320 C319 1.363 . S
C320 C326 1.428 . S
H321 C317 0.930 . S
H322 C319 0.929 . S
S323 N324 1.613 . S
S323 N325 1.610 . S
N324 S323 1.613 . S
N324 C327 1.350 . S
N325 S323 1.610 . S
N325 C326 1.351 . S
C326 C320 1.428 . S
C326 N325 1.351 . S
C326 C327 1.434 . S
C327 C318 1.429 . S
C327 N324 1.350 . S
C327 C326 1.434 . S
C328 C329 1.369 . S
C328 C330 1.419 1_565 S
C328 H332 0.930 . S
C329 C328 1.369 . S
C329 C338 1.429 1_565 S
C330 C328 1.419 1_545 S
C330 C331 1.363 . S
C330 H333 0.929 . S
C331 C330 1.363 . S
C331 C337 1.428 . S
H332 C328 0.930 . S
H333 C330 0.929 . S
S334 N335 1.613 1_545 S
S334 N336 1.610 . S
N335 S334 1.613 1_565 S
N335 C338 1.350 1_565 S
N336 S334 1.610 . S
N336 C337 1.351 . S
C337 C331 1.428 . S
C337 N336 1.351 . S
C337 C338 1.434 . S
C338 C329 1.429 1_545 S
C338 N335 1.350 1_545 S
C338 C337 1.434 . S
C339 C340 1.369 . S
C339 C341 1.419 . S
C339 H343 0.930 . S
C340 C339 1.369 . S
C340 C349 1.429 . S
C341 C339 1.419 . S
C341 C342 1.363 . S
C341 H344 0.929 . S
C342 C341 1.363 . S
C342 C348 1.428 . S
H343 C339 0.930 . S
H344 C341 0.929 . S
S345 N346 1.613 . S
S345 N347 1.610 . S
N346 S345 1.613 . S
N346 C349 1.350 . S
N347 S345 1.610 . S
N347 C348 1.351 . S
C348 C342 1.428 . S
C348 N347 1.351 . S
C348 C349 1.434 . S
C349 C340 1.429 . S
C349 N346 1.350 . S
C349 C348 1.434 . S
C350 C351 1.369 . S
C350 C352 1.419 . S
C350 H354 0.930 . S
C351 C350 1.369 . S
C351 C360 1.429 . S
C352 C350 1.419 . S
C352 C353 1.363 . S
C352 H355 0.929 . S
C353 C352 1.363 . S
C353 C359 1.428 . S
H354 C350 0.930 . S
H355 C352 0.929 . S
S356 N357 1.613 . S
S356 N358 1.610 . S
N357 S356 1.613 . S
N357 C360 1.350 . S
N358 S356 1.610 . S
N358 C359 1.351 . S
C359 C353 1.428 . S
C359 N358 1.351 . S
C359 C360 1.434 . S
C360 C351 1.429 . S
C360 N357 1.350 . S
C360 C359 1.434 . S
C361 C362 1.369 . S
C361 C363 1.419 . S
C361 H365 0.930 . S
C362 C361 1.369 . S
C362 C371 1.429 . S
C363 C361 1.419 . S
C363 C364 1.363 . S
C363 H366 0.929 . S
C364 C363 1.363 . S
C364 C370 1.428 . S
H365 C361 0.930 . S
H366 C363 0.929 . S
S367 N368 1.613 . S
S367 N369 1.610 . S
N368 S367 1.613 . S
N368 C371 1.350 . S
N369 S367 1.610 . S
N369 C370 1.351 . S
C370 C364 1.428 . S
C370 N369 1.351 . S
C370 C371 1.434 . S
C371 C362 1.429 . S
C371 N368 1.350 . S
C371 C370 1.434 . S
C372 C373 1.369 . S
C372 C374 1.419 . S
C372 H376 0.930 . S
C373 C372 1.369 . S
C373 C382 1.429 . S
C374 C372 1.419 . S
C374 C375 1.363 . S
C374 H377 0.929 . S
C375 C374 1.363 . S
C375 C381 1.428 . S
H376 C372 0.930 . S
H377 C374 0.929 . S
S378 N379 1.613 . S
S378 N380 1.610 . S
N379 S378 1.613 . S
N379 C382 1.350 . S
N380 S378 1.610 . S
N380 C381 1.351 . S
C381 C375 1.428 . S
C381 N380 1.351 . S
C381 C382 1.434 . S
C382 C373 1.429 . S
C382 N379 1.350 . S
C382 C381 1.434 . S
C383 C384 1.369 . S
C383 C385 1.419 . S
C383 H387 0.930 . S
C384 C383 1.369 . S
C384 C393 1.429 . S
C385 C383 1.419 . S
C385 C386 1.363 . S
C385 H388 0.929 . S
C386 C385 1.363 . S
C386 C392 1.428 . S
H387 C383 0.930 . S
H388 C385 0.929 . S
S389 N390 1.613 . S
S389 N391 1.610 . S
N390 S389 1.613 . S
N390 C393 1.350 . S
N391 S389 1.610 . S
N391 C392 1.351 . S
C392 C386 1.428 . S
C392 N391 1.351 . S
C392 C393 1.434 . S
C393 C384 1.429 . S
C393 N390 1.350 . S
C393 C392 1.434 . S
C394 C395 1.369 . S
C394 C396 1.419 . S
C394 H398 0.930 . S
C395 C394 1.369 . S
C395 C404 1.429 . S
C396 C394 1.419 . S
C396 C397 1.363 . S
C396 H399 0.929 . S
C397 C396 1.363 . S
C397 C403 1.428 . S
H398 C394 0.930 . S
H399 C396 0.929 . S
S400 N401 1.613 . S
S400 N402 1.610 . S
N401 S400 1.613 . S
N401 C404 1.350 . S
N402 S400 1.610 . S
N402 C403 1.351 . S
C403 C397 1.428 . S
C403 N402 1.351 . S
C403 C404 1.434 . S
C404 C395 1.429 . S
C404 N401 1.350 . S
C404 C403 1.434 . S
C405 C406 1.369 . S
C405 C407 1.419 . S
C405 H409 0.930 . S
C406 C405 1.369 . S
C406 C415 1.429 . S
C407 C405 1.419 . S
C407 C408 1.363 . S
C407 H410 0.929 . S
C408 C407 1.363 . S
C408 C414 1.428 . S
H409 C405 0.930 . S
H410 C407 0.929 . S
S411 N412 1.613 . S
S411 N413 1.610 . S
N412 S411 1.613 . S
N412 C415 1.350 . S
N413 S411 1.610 . S
N413 C414 1.351 . S
C414 C408 1.428 . S
C414 N413 1.351 . S
C414 C415 1.434 . S
C415 C406 1.429 . S
C415 N412 1.350 . S
C415 C414 1.434 . S
C416 C417 1.369 . S
C416 C418 1.419 . S
C416 H420 0.930 . S
C417 C416 1.369 . S
C417 C426 1.429 . S
C418 C416 1.419 . S
C418 C419 1.363 . S
C418 H421 0.929 . S
C419 C418 1.363 . S
C419 C425 1.428 . S
H420 C416 0.930 . S
H421 C418 0.929 . S
S422 N423 1.613 . S
S422 N424 1.610 . S
N423 S422 1.613 . S
N423 C426 1.350 . S
N424 S422 1.610 . S
N424 C425 1.351 . S
C425 C419 1.428 . S
C425 N424 1.351 . S
C425 C426 1.434 . S
C426 C417 1.429 . S
C426 N423 1.350 . S
C426 C425 1.434 . S
C427 C428 1.369 . S
C427 C429 1.419 . S
C427 H431 0.930 . S
C428 C427 1.369 . S
C428 C437 1.429 . S
C429 C427 1.419 . S
C429 C430 1.363 . S
C429 H432 0.929 . S
C430 C429 1.363 . S
C430 C436 1.428 . S
H431 C427 0.930 . S
H432 C429 0.929 . S
S433 N434 1.613 . S
S433 N435 1.610 . S
N434 S433 1.613 . S
N434 C437 1.350 . S
N435 S433 1.610 . S
N435 C436 1.351 . S
C436 C430 1.428 . S
C436 N435 1.351 . S
C436 C437 1.434 . S
C437 C428 1.429 . S
C437 N434 1.350 . S
C437 C436 1.434 . S
C438 C439 1.369 . S
C438 C440 1.419 . S
C438 H442 0.930 . S
C439 C438 1.369 . S
C439 C448 1.429 . S
C440 C438 1.419 . S
C440 C441 1.363 . S
C440 H443 0.929 . S
C441 C440 1.363 . S
C441 C447 1.428 . S
H442 C438 0.930 . S
H443 C440 0.929 . S
S444 N445 1.613 . S
S444 N446 1.610 . S
N445 S444 1.613 . S
N445 C448 1.350 . S
N446 S444 1.610 . S
N446 C447 1.351 . S
C447 C441 1.428 . S
C447 N446 1.351 . S
C447 C448 1.434 . S
C448 C439 1.429 . S
C448 N445 1.350 . S
C448 C447 1.434 . S
C449 C450 1.369 . S
C449 C451 1.419 . S
C449 H453 0.930 . S
C450 C449 1.369 . S
C450 C459 1.429 . S
C451 C449 1.419 . S
C451 C452 1.363 . S
C451 H454 0.929 1_556 S
C452 C451 1.363 . S
C452 C458 1.428 . S
H453 C449 0.930 . S
H454 C451 0.929 1_554 S
S455 N456 1.613 1_455 S
S455 N457 1.610 . S
N456 S455 1.613 1_655 S
N456 C459 1.350 . S
N457 S455 1.610 . S
N457 C458 1.351 1_455 S
C458 C452 1.428 . S
C458 N457 1.351 1_655 S
C458 C459 1.434 . S
C459 C450 1.429 . S
C459 N456 1.350 . S
C459 C458 1.434 . S
C460 C461 1.369 . S
C460 C462 1.419 . S
C460 H464 0.930 . S
C461 C460 1.369 . S
C461 C470 1.429 . S
C462 C460 1.419 . S
C462 C463 1.363 . S
C462 H465 0.929 . S
C463 C462 1.363 . S
C463 C469 1.428 . S
H464 C460 0.930 . S
H465 C462 0.929 . S
S466 N467 1.613 . S
S466 N468 1.610 . S
N467 S466 1.613 . S
N467 C470 1.350 . S
N468 S466 1.610 . S
N468 C469 1.351 . S
C469 C463 1.428 . S
C469 N468 1.351 . S
C469 C470 1.434 . S
C470 C461 1.429 . S
C470 N467 1.350 . S
C470 C469 1.434 . S
C471 C472 1.369 . S
C471 C473 1.419 . S
C471 H475 0.930 . S
C472 C471 1.369 . S
C472 C481 1.429 . S
C473 C471 1.419 . S
C473 C474 1.363 . S
C473 H476 0.929 1_655 S
C474 C473 1.363 . S
C474 C480 1.430 . S
H475 C471 0.930 . S
H476 C473 0.929 1_455 S
S477 N478 1.613 1_554 S
S477 N479 1.610 . S
N478 S477 1.613 1_556 S
N478 C481 1.350 . S
N479 S477 1.610 . S
N479 C480 1.346 1_554 S
C480 C474 1.430 . S
C480 N479 1.346 1_556 S
C480 C481 1.438 . S
C481 C472 1.429 . S
C481 N478 1.350 . S
C481 C480 1.438 . S
C482 C483 1.369 . S
C482 C484 1.419 . S
C482 H486 0.930 . S
C483 C482 1.369 . S
C483 C492 1.429 . S
C484 C482 1.419 . S
C484 C485 1.363 . S
C484 H487 0.929 . S
C485 C484 1.363 . S
C485 C491 1.428 . S
H486 C482 0.930 . S
H487 C484 0.929 . S
S488 N489 1.613 . S
S488 N490 1.610 1_554 S
N489 S488 1.613 . S
N489 C492 1.350 1_554 S
N490 S488 1.610 1_556 S
N490 C491 1.351 . S
C491 C485 1.428 . S
C491 N490 1.351 . S
C491 C492 1.434 . S
C492 C483 1.429 . S
C492 N489 1.350 1_556 S
C492 C491 1.434 . S
C493 C494 1.369 . S
C493 C495 1.419 . S
C493 H497 0.930 . S
C494 C493 1.369 . S
C494 C503 1.429 . S
C495 C493 1.419 . S
C495 C496 1.363 . S
C495 H498 0.929 . S
C496 C495 1.363 . S
C496 C502 1.428 . S
H497 C493 0.930 . S
H498 C495 0.929 . S
S499 N500 1.613 . S
S499 N501 1.610 . S
N500 S499 1.613 . S
N500 C503 1.350 . S
N501 S499 1.610 . S
N501 C502 1.351 . S
C502 C496 1.428 . S
C502 N501 1.351 . S
C502 C503 1.434 . S
C503 C494 1.429 . S
C503 N500 1.350 . S
C503 C502 1.434 . S
C504 C505 1.369 . S
C504 C506 1.419 . S
C504 H508 0.930 . S
C505 C504 1.369 . S
C505 C514 1.429 . S
C506 C504 1.419 . S
C506 C507 1.363 . S
C506 H509 0.929 . S
C507 C506 1.363 . S
C507 C513 1.428 . S
H508 C504 0.930 . S
H509 C506 0.929 . S
S510 N511 1.613 . S
S510 N512 1.610 1_556 S
N511 S510 1.613 . S
N511 C514 1.350 1_556 S
N512 S510 1.610 1_554 S
N512 C513 1.351 . S
C513 C507 1.428 . S
C513 N512 1.351 . S
C513 C514 1.434 . S
C514 C505 1.429 . S
C514 N511 1.350 1_554 S
C514 C513 1.434 . S
C515 C516 1.369 . S
C515 C517 1.419 . S
C515 H519 0.930 . S
C516 C515 1.369 . S
C516 C525 1.429 . S
C517 C515 1.419 . S
C517 C518 1.363 . S
C517 H520 0.929 . S
C518 C517 1.363 . S
C518 C524 1.428 . S
H519 C515 0.930 . S
H520 C517 0.929 . S
S521 N522 1.613 . S
S521 N523 1.610 . S
N522 S521 1.613 . S
N522 C525 1.350 . S
N523 S521 1.610 . S
N523 C524 1.351 . S
C524 C518 1.428 . S
C524 N523 1.351 . S
C524 C525 1.434 . S
C525 C516 1.429 . S
C525 N522 1.350 . S
C525 C524 1.434 . S
C526 C527 1.369 . S
C526 C528 1.419 . S
C526 H530 0.930 . S
C527 C526 1.369 . S
C527 C536 1.429 . S
C528 C526 1.419 . S
C528 C529 1.363 . S
C528 H531 0.929 . S
C529 C528 1.363 . S
C529 C535 1.428 . S
H530 C526 0.930 . S
H531 C528 0.929 . S
S532 N533 1.613 . S
S532 N534 1.610 . S
N533 S532 1.613 . S
N533 C536 1.350 . S
N534 S532 1.610 . S
N534 C535 1.351 . S
C535 C529 1.428 . S
C535 N534 1.351 . S
C535 C536 1.434 . S
C536 C527 1.429 . S
C536 N533 1.350 . S
C536 C535 1.434 . S
C537 C538 1.369 . S
C537 C539 1.419 . S
C537 H541 0.930 . S
C538 C537 1.369 . S
C538 C547 1.429 . S
C539 C537 1.419 . S
C539 C540 1.363 . S
C539 H542 0.929 . S
C540 C539 1.363 . S
C540 C546 1.428 . S
H541 C537 0.930 . S
H542 C539 0.929 . S
S543 N544 1.613 . S
S543 N545 1.610 . S
N544 S543 1.613 . S
N544 C547 1.350 . S
N545 S543 1.610 . S
N545 C546 1.351 . S
C546 C540 1.428 . S
C546 N545 1.351 . S
C546 C547 1.434 . S
C547 C538 1.429 . S
C547 N544 1.350 . S
C547 C546 1.434 . S
C548 C549 1.369 . S
C548 C550 1.419 . S
C548 H552 0.930 . S
C549 C548 1.369 . S
C549 C558 1.429 . S
C550 C548 1.419 . S
C550 C551 1.363 . S
C550 H553 0.929 . S
C551 C550 1.363 . S
C551 C557 1.428 . S
H552 C548 0.930 . S
H553 C550 0.929 . S
S554 N555 1.613 . S
S554 N556 1.610 . S
N555 S554 1.613 . S
N555 C558 1.350 . S
N556 S554 1.610 . S
N556 C557 1.351 . S
C557 C551 1.428 . S
C557 N556 1.351 . S
C557 C558 1.434 . S
C558 C549 1.429 . S
C558 N555 1.350 . S
C558 C557 1.434 . S
C559 C560 1.369 . S
C559 C561 1.403 1_655 S
C559 H563 0.930 . S
C560 C559 1.369 . S
C560 C569 1.429 1_655 S
C561 C559 1.403 1_455 S
C561 C562 1.380 . S
C561 H564 0.929 1_455 S
C562 C561 1.380 . S
C562 C568 1.428 . S
H563 C559 0.930 . S
H564 C561 0.929 1_655 S
S565 N566 1.613 . S
S565 N567 1.610 . S
N566 S565 1.613 . S
N566 C569 1.350 . S
N567 S565 1.610 . S
N567 C568 1.351 . S
C568 C562 1.428 . S
C568 N567 1.351 . S
C568 C569 1.434 . S
C569 C560 1.429 1_455 S
C569 N566 1.350 . S
C569 C568 1.434 . S
C570 C571 1.369 . S
C570 C572 1.419 . S
C570 H574 0.930 . S
C571 C570 1.369 . S
C571 C580 1.429 . S
C572 C570 1.419 . S
C572 C573 1.363 . S
C572 H575 0.929 . S
C573 C572 1.363 . S
C573 C579 1.428 . S
H574 C570 0.930 . S
H575 C572 0.929 . S
S576 N577 1.613 . S
S576 N578 1.610 . S
N577 S576 1.613 . S
N577 C580 1.350 . S
N578 S576 1.610 . S
N578 C579 1.351 . S
C579 C573 1.428 . S
C579 N578 1.351 . S
C579 C580 1.434 . S
C580 C571 1.429 . S
C580 N577 1.350 . S
C580 C579 1.434 . S
C581 C582 1.369 . S
C581 C583 1.419 . S
C581 H585 0.930 . S
C582 C581 1.369 . S
C582 C591 1.429 . S
C583 C581 1.419 . S
C583 C584 1.363 . S
C583 H586 0.929 1_565 S
C584 C583 1.363 . S
C584 C590 1.428 . S
H585 C581 0.930 . S
H586 C583 0.929 1_545 S
S587 N588 1.613 . S
S587 N589 1.610 . S
N588 S587 1.613 . S
N588 C591 1.350 . S
N589 S587 1.610 . S
N589 C590 1.351 . S
C590 C584 1.428 . S
C590 N589 1.351 . S
C590 C591 1.434 . S
C591 C582 1.429 . S
C591 N588 1.350 . S
C591 C590 1.434 . S
C592 C593 1.369 . S
C592 C594 1.419 1_655 S
C592 H596 0.930 1_655 S
C593 C592 1.369 . S
C593 C602 1.429 . S
C594 C592 1.419 1_455 S
C594 C595 1.363 . S
C594 H597 0.929 . S
C595 C594 1.363 . S
C595 C601 1.428 1_455 S
H596 C592 0.930 1_455 S
H597 C594 0.929 . S
S598 N599 1.613 . S
S598 N600 1.610 . S
N599 S598 1.613 . S
N599 C602 1.350 . S
N600 S598 1.610 . S
N600 C601 1.351 . S
C601 C595 1.428 1_655 S
C601 N600 1.351 . S
C601 C602 1.434 . S
C602 C593 1.429 . S
C602 N599 1.350 . S
C602 C601 1.434 . S
C307 C4 1.154 . S
C309 C13 1.174 1_455 S
C318 C47 1.041 . S
C320 C38 1.057 . S
C329 C72 0.949 . S
C331 C81 0.961 . S
C340 C115 1.154 . S
C342 C106 1.174 . S
C351 C140 1.046 . S
C353 C149 1.054 . S
C362 C183 0.960 . S
C364 C174 0.953 . S
C373 C233 3.519 . S
C375 C204 3.521 1_554 S
C384 C238 3.525 . S
C386 C267 3.527 1_554 S
C395 C301 3.541 . S
C397 C272 3.538 1_554 S
C406 C187 1.821 . S
C408 C29 1.784 . S
C417 C51 1.849 . S
C419 C119 1.817 . S
C428 C97 1.809 . S
C430 C165 1.793 . S
C439 C85 1.778 . S
C441 C212 1.788 . S
C450 C251 1.321 . S
C452 C17 1.332 1_656 S
C461 C280 1.548 . S
C463 C63 1.536 . S
C472 C276 1.231 . S
C474 C0 1.258 1_656 S
C483 C42 1.381 . S
C485 C208 1.366 . S
C494 C255 1.700 . S
C496 C68 1.692 . S
C505 C76 1.822 . S
C507 C102 1.784 . S
C516 C144 1.848 . S
C518 C8 1.819 . S
C527 C34 1.788 . S
C529 C170 1.813 . S
C538 C285 1.231 . S
C540 C131 1.255 . S
C549 C217 1.368 . S
C551 C153 1.380 . S
C560 C246 1.701 . S
C562 C199 1.688 . S
C571 C221 1.792 . S
C573 C178 1.776 . S
C582 C110 1.323 . S
C584 C242 1.342 . S
C593 C289 1.543 . S
C595 C136 1.540 . S
