# Generated by pormake.
# Topology umc, (4)-cn, num edge types: 1
# Building blocks:
#     Node 0, Type 0, BuildingBlock: CEKHIL_clean_sbu_0, # of connection points: 4
#     Node 1, Type 0, BuildingBlock: CEKHIL_clean_sbu_0, # of connection points: 4
#     Node 2, Type 0, BuildingBlock: CEKHIL_clean_sbu_0, # of connection points: 4
#     Node 3, Type 0, BuildingBlock: CEKHIL_clean_sbu_0, # of connection points: 4
#     Node 4, Type 0, BuildingBlock: CEKHIL_clean_sbu_0, # of connection points: 4
#     Node 5, Type 0, BuildingBlock: CEKHIL_clean_sbu_0, # of connection points: 4
#     Node 6, Type 0, BuildingBlock: CEKHIL_clean_sbu_0, # of connection points: 4
#     Node 7, Type 0, BuildingBlock: CEKHIL_clean_sbu_0, # of connection points: 4
#     Node 8, Type 0, BuildingBlock: CEKHIL_clean_sbu_0, # of connection points: 4
#     Node 9, Type 0, BuildingBlock: CEKHIL_clean_sbu_0, # of connection points: 4
#     Node 10, Type 0, BuildingBlock: CEKHIL_clean_sbu_0, # of connection points: 4
#     Node 11, Type 0, BuildingBlock: CEKHIL_clean_sbu_0, # of connection points: 4
#     Node 12, Type 0, BuildingBlock: CEKHIL_clean_sbu_0, # of connection points: 4
#     Node 13, Type 0, BuildingBlock: CEKHIL_clean_sbu_0, # of connection points: 4
#     Node 14, Type 0, BuildingBlock: CEKHIL_clean_sbu_0, # of connection points: 4
#     Node 15, Type 0, BuildingBlock: CEKHIL_clean_sbu_0, # of connection points: 4
#     Edge 16, Type (0, 0), BuildingBlock: CIFDUS_clean_linker_0, # of connection points: 2
#     Edge 17, Type (0, 0), BuildingBlock: CIFDUS_clean_linker_0, # of connection points: 2
#     Edge 18, Type (0, 0), BuildingBlock: CIFDUS_clean_linker_0, # of connection points: 2
#     Edge 19, Type (0, 0), BuildingBlock: CIFDUS_clean_linker_0, # of connection points: 2
#     Edge 20, Type (0, 0), BuildingBlock: CIFDUS_clean_linker_0, # of connection points: 2
#     Edge 21, Type (0, 0), BuildingBlock: CIFDUS_clean_linker_0, # of connection points: 2
#     Edge 22, Type (0, 0), BuildingBlock: CIFDUS_clean_linker_0, # of connection points: 2
#     Edge 23, Type (0, 0), BuildingBlock: CIFDUS_clean_linker_0, # of connection points: 2
#     Edge 24, Type (0, 0), BuildingBlock: CIFDUS_clean_linker_0, # of connection points: 2
#     Edge 25, Type (0, 0), BuildingBlock: CIFDUS_clean_linker_0, # of connection points: 2
#     Edge 26, Type (0, 0), BuildingBlock: CIFDUS_clean_linker_0, # of connection points: 2
#     Edge 27, Type (0, 0), BuildingBlock: CIFDUS_clean_linker_0, # of connection points: 2
#     Edge 28, Type (0, 0), BuildingBlock: CIFDUS_clean_linker_0, # of connection points: 2
#     Edge 29, Type (0, 0), BuildingBlock: CIFDUS_clean_linker_0, # of connection points: 2
#     Edge 30, Type (0, 0), BuildingBlock: CIFDUS_clean_linker_0, # of connection points: 2
#     Edge 31, Type (0, 0), BuildingBlock: CIFDUS_clean_linker_0, # of connection points: 2
#     Edge 32, Type (0, 0), BuildingBlock: CIFDUS_clean_linker_0, # of connection points: 2
#     Edge 33, Type (0, 0), BuildingBlock: CIFDUS_clean_linker_0, # of connection points: 2
#     Edge 34, Type (0, 0), BuildingBlock: CIFDUS_clean_linker_0, # of connection points: 2
#     Edge 35, Type (0, 0), BuildingBlock: CIFDUS_clean_linker_0, # of connection points: 2
#     Edge 36, Type (0, 0), BuildingBlock: CIFDUS_clean_linker_0, # of connection points: 2
#     Edge 37, Type (0, 0), BuildingBlock: CIFDUS_clean_linker_0, # of connection points: 2
#     Edge 38, Type (0, 0), BuildingBlock: CIFDUS_clean_linker_0, # of connection points: 2
#     Edge 39, Type (0, 0), BuildingBlock: CIFDUS_clean_linker_0, # of connection points: 2
#     Edge 40, Type (0, 0), BuildingBlock: CIFDUS_clean_linker_0, # of connection points: 2
#     Edge 41, Type (0, 0), BuildingBlock: CIFDUS_clean_linker_0, # of connection points: 2
#     Edge 42, Type (0, 0), BuildingBlock: CIFDUS_clean_linker_0, # of connection points: 2
#     Edge 43, Type (0, 0), BuildingBlock: CIFDUS_clean_linker_0, # of connection points: 2
#     Edge 44, Type (0, 0), BuildingBlock: CIFDUS_clean_linker_0, # of connection points: 2
#     Edge 45, Type (0, 0), BuildingBlock: CIFDUS_clean_linker_0, # of connection points: 2
#     Edge 46, Type (0, 0), BuildingBlock: CIFDUS_clean_linker_0, # of connection points: 2
#     Edge 47, Type (0, 0), BuildingBlock: CIFDUS_clean_linker_0, # of connection points: 2
# Relax obj value: 0.082
# Max RMSD: 0.168
# Mean RMSD: 0.168
data_MOF--net-umc--node1-CEKHIL_clean_sbu_0--edge1-CIFDUS_clean_linker_0
_symmetry_space_group_name_H-M    P1
_symmetry_Int_Tables_number       1
_symmetry_cell_setting            triclinic
loop_
_symmetry_equiv_pos_as_xyz
'x, y, z'
_cell_length_a     39.955235
_cell_length_b     28.955786
_cell_length_c     48.377981
_cell_angle_alpha  90.009766
_cell_angle_beta   90.004269
_cell_angle_gamma 89.825892
loop_
_atom_site_label
_atom_site_type_symbol
_atom_site_fract_x
_atom_site_fract_y
_atom_site_fract_z
_atom_type_partial_charge
Co0 Co 0.33691 0.07925 0.37013 0.0
O1 O 0.29483 0.1122 0.37069 0.0
O2 O 0.34341 0.14242 0.38266 0.0
C3 C 0.33065 0.04824 0.32788 0.0
O4 O 0.38558 0.05552 0.37111 0.0
Co5 Co 0.337 0.97262 0.369 0.0
O6 O 0.38585 0.97886 0.36331 0.0
C7 C 0.32235 0.02005 0.42118 0.0
C8 C 0.3113 0.14795 0.37922 0.0
C9 C 0.4012 0.01685 0.36703 0.0
O10 O 0.32914 0.05847 0.40919 0.0
O11 O 0.32206 0.98131 0.40843 0.0
O12 O 0.3413 0.09025 0.33082 0.0
O13 O 0.32085 0.02784 0.35031 0.0
Co14 Co 0.66667 0.91422 0.3654 0.0
O15 O 0.71119 0.88998 0.3638 0.0
O16 O 0.66801 0.85173 0.38069 0.0
C17 C 0.66563 0.94049 0.32181 0.0
O18 O 0.61664 0.93135 0.36907 0.0
Co19 Co 0.66147 0.01996 0.36189 0.0
O20 O 0.61304 0.00715 0.35875 0.0
C21 C 0.68319 0.97893 0.41386 0.0
C22 C 0.70001 0.85285 0.37526 0.0
C23 C 0.59938 0.96858 0.36446 0.0
O24 O 0.67657 0.93963 0.40302 0.0
O25 O 0.68084 0.01682 0.40038 0.0
O26 O 0.65894 0.89767 0.32727 0.0
O27 O 0.67659 0.96483 0.34244 0.0
Co28 Co 0.33292 0.95264 0.12558 0.0
O29 O 0.29308 0.91562 0.12227 0.0
O30 O 0.34373 0.89204 0.11045 0.0
C31 C 0.3235 0.97736 0.16899 0.0
O32 O 0.37986 0.9819 0.12712 0.0
Co33 Co 0.32527 0.05888 0.13231 0.0
O34 O 0.37363 0.05571 0.14099 0.0
C35 C 0.31757 0.01787 0.07714 0.0
C36 C 0.31196 0.88279 0.1128 0.0
C37 C 0.39208 0.02114 0.13499 0.0
O38 O 0.32539 0.97822 0.08734 0.0
O39 O 0.31435 0.05438 0.09184 0.0
O40 O 0.33656 0.93695 0.16458 0.0
O41 O 0.31317 0.99911 0.14721 0.0
Co42 Co 0.65518 0.09082 0.13135 0.0
O43 O 0.69737 0.1215 0.1336 0.0
O44 O 0.6516 0.15298 0.11597 0.0
C45 C 0.65546 0.06449 0.175 0.0
O46 O 0.607 0.06684 0.12683 0.0
Co47 Co 0.65822 0.98493 0.13503 0.0
O48 O 0.60887 0.99 0.1346 0.0
C49 C 0.67805 0.02872 0.08339 0.0
C50 C 0.68337 0.15664 0.12185 0.0
C51 C 0.59269 0.02702 0.12948 0.0
O52 O 0.668 0.06693 0.09392 0.0
O53 O 0.67845 0.99083 0.097 0.0
O54 O 0.64528 0.106 0.16938 0.0
O55 O 0.66869 0.04196 0.1545 0.0
Co56 Co 0.68185 0.93831 0.626 0.0
O57 O 0.72594 0.91093 0.62447 0.0
O58 O 0.67981 0.87521 0.61166 0.0
C59 C 0.68628 0.96653 0.6693 0.0
O60 O 0.63183 0.95619 0.62575 0.0
Co61 Co 0.67544 0.04507 0.63165 0.0
O62 O 0.62718 0.03184 0.63624 0.0
C63 C 0.69158 0.00497 0.57736 0.0
C64 C 0.71213 0.87361 0.61517 0.0
C65 C 0.6141 0.99273 0.63098 0.0
O66 O 0.68775 0.96417 0.58751 0.0
O67 O 0.69003 0.04174 0.59201 0.0
O68 O 0.67853 0.92357 0.66522 0.0
O69 O 0.69449 0.98948 0.64742 0.0
Co70 Co 0.34522 0.07485 0.629 0.0
O71 O 0.30005 0.09738 0.62884 0.0
O72 O 0.34275 0.13508 0.6108 0.0
C73 C 0.34582 0.05462 0.67379 0.0
O74 O 0.39571 0.06003 0.6267 0.0
Co75 Co 0.35423 0.97008 0.63915 0.0
O76 O 0.40224 0.98631 0.64087 0.0
C77 C 0.33229 0.00127 0.58458 0.0
C78 C 0.31076 0.13369 0.61614 0.0
C79 C 0.41435 0.02483 0.63304 0.0
O80 O 0.33684 0.04297 0.59279 0.0
O81 O 0.33576 0.96629 0.6005 0.0
O82 O 0.35158 0.09695 0.66648 0.0
O83 O 0.33629 0.02719 0.65415 0.0
Co84 Co 0.67612 0.06706 0.87138 0.0
O85 O 0.71762 0.10109 0.87332 0.0
O86 O 0.66818 0.12882 0.88552 0.0
C87 C 0.68324 0.03927 0.82828 0.0
O88 O 0.62784 0.04337 0.87122 0.0
Co89 Co 0.67574 0.96033 0.8659 0.0
O90 O 0.62678 0.96764 0.86084 0.0
C91 C 0.68943 0.0022 0.9202 0.0
C92 C 0.7001 0.13582 0.88228 0.0
C93 C 0.61188 0.00567 0.86592 0.0
O94 O 0.68334 0.04242 0.90995 0.0
O95 O 0.68991 0.96528 0.90564 0.0
O96 O 0.67229 0.08102 0.83218 0.0
O97 O 0.69269 0.01738 0.85028 0.0
Co98 Co 0.34548 0.9158 0.86736 0.0
O99 O 0.30094 0.89208 0.86615 0.0
O100 O 0.34431 0.85427 0.88361 0.0
C101 C 0.34685 0.93991 0.82338 0.0
O102 O 0.39541 0.93166 0.8708 0.0
Co103 Co 0.35189 0.021 0.86201 0.0
O104 O 0.40018 0.0066 0.85896 0.0
C105 C 0.32923 0.98328 0.91452 0.0
C106 C 0.31235 0.85534 0.87806 0.0
C107 C 0.41319 0.96781 0.86538 0.0
O108 O 0.33559 0.94328 0.90446 0.0
O109 O 0.33207 0.02039 0.90037 0.0
O110 O 0.35331 0.89728 0.82965 0.0
O111 O 0.33588 0.96552 0.8435 0.0
Co112 Co 0.84045 0.55837 0.36986 0.0
O113 O 0.79629 0.583 0.36593 0.0
O114 O 0.83907 0.62248 0.38255 0.0
C115 C 0.84325 0.52616 0.32804 0.0
O116 O 0.89003 0.54078 0.37565 0.0
Co117 Co 0.84417 0.45128 0.37076 0.0
O118 O 0.89294 0.46306 0.37125 0.0
C119 C 0.81868 0.49989 0.41911 0.0
C120 C 0.80725 0.62108 0.3764 0.0
C121 C 0.90671 0.50234 0.37466 0.0
O122 O 0.82857 0.5375 0.4079 0.0
O123 O 0.82016 0.46074 0.40689 0.0
O124 O 0.84991 0.56969 0.33127 0.0
O125 O 0.8312 0.50524 0.34947 0.0
Co126 Co 0.16784 0.43708 0.36353 0.0
O127 O 0.2092 0.40295 0.36535 0.0
O128 O 0.16093 0.37733 0.38128 0.0
C129 C 0.17283 0.45721 0.31886 0.0
O130 O 0.11989 0.46377 0.3641 0.0
Co131 Co 0.17131 0.54238 0.35277 0.0
O132 O 0.12253 0.53597 0.3469 0.0
C133 C 0.18537 0.5075 0.40858 0.0
C134 C 0.19271 0.36986 0.37699 0.0
C135 C 0.10577 0.50142 0.35545 0.0
O136 O 0.17797 0.46666 0.40017 0.0
O137 O 0.18601 0.54268 0.39256 0.0
O138 O 0.16113 0.41707 0.32568 0.0
O139 O 0.18425 0.48203 0.33902 0.0
Co140 Co 0.85035 0.41874 0.12876 0.0
O141 O 0.80702 0.39079 0.13051 0.0
O142 O 0.85266 0.35538 0.11542 0.0
C143 C 0.84924 0.44954 0.17099 0.0
O144 O 0.89951 0.4389 0.12521 0.0
Co145 Co 0.85219 0.52583 0.12986 0.0
O146 O 0.90108 0.51567 0.13313 0.0
C147 C 0.82976 0.47861 0.07988 0.0
C148 C 0.82057 0.35387 0.12039 0.0
C149 C 0.91571 0.47713 0.1288 0.0
O150 O 0.83991 0.4406 0.09059 0.0
O151 O 0.83002 0.5171 0.09289 0.0
O152 O 0.85776 0.40661 0.16762 0.0
O153 O 0.83805 0.47062 0.14928 0.0
Co154 Co 0.17737 0.58772 0.12391 0.0
O155 O 0.21928 0.62052 0.12109 0.0
O156 O 0.17111 0.64591 0.10455 0.0
C157 C 0.18174 0.57075 0.16913 0.0
O158 O 0.12891 0.56399 0.12403 0.0
Co159 Co 0.17707 0.48322 0.13842 0.0
O160 O 0.12795 0.49137 0.1407 0.0
C161 C 0.19234 0.51181 0.08143 0.0
C162 C 0.20282 0.65331 0.10886 0.0
C163 C 0.11301 0.52735 0.13179 0.0
O164 O 0.18668 0.55418 0.08816 0.0
O165 O 0.19178 0.47852 0.09884 0.0
O166 O 0.1712 0.61107 0.16126 0.0
O167 O 0.19245 0.54378 0.14969 0.0
Co168 Co 0.16847 0.42619 0.62269 0.0
O169 O 0.21361 0.40361 0.6238 0.0
O170 O 0.17051 0.36226 0.6097 0.0
C171 C 0.16862 0.45744 0.66514 0.0
O172 O 0.11793 0.44048 0.61996 0.0
Co173 Co 0.15981 0.53222 0.62309 0.0
O174 O 0.11188 0.51687 0.62772 0.0
C175 C 0.18163 0.48741 0.57209 0.0
C176 C 0.20267 0.36486 0.61417 0.0
C177 C 0.0995 0.47689 0.62376 0.0
O178 O 0.17621 0.44853 0.58397 0.0
O179 O 0.17877 0.52612 0.58466 0.0
O180 O 0.16286 0.41373 0.66177 0.0
O181 O 0.17787 0.47962 0.64316 0.0
Co182 Co 0.8313 0.56066 0.6264 0.0
O183 O 0.78719 0.58807 0.6267 0.0
O184 O 0.83219 0.62281 0.6106 0.0
C185 C 0.83011 0.53464 0.67006 0.0
O186 O 0.88123 0.54265 0.62382 0.0
Co187 Co 0.8387 0.45392 0.63464 0.0
O188 O 0.88712 0.46798 0.63628 0.0
C189 C 0.81536 0.4905 0.58132 0.0
C190 C 0.80021 0.62473 0.61583 0.0
C191 C 0.89955 0.50671 0.6292 0.0
O192 O 0.822 0.53198 0.58926 0.0
O193 O 0.81759 0.45524 0.59716 0.0
O194 O 0.83762 0.57749 0.66513 0.0
O195 O 0.82047 0.51083 0.64903 0.0
Co196 Co 0.17098 0.56479 0.86531 0.0
O197 O 0.21615 0.58603 0.8629 0.0
O198 O 0.17356 0.62892 0.87713 0.0
C199 C 0.16945 0.53114 0.82362 0.0
O200 O 0.1206 0.55244 0.86928 0.0
Co201 Co 0.16154 0.45978 0.86832 0.0
O202 O 0.11377 0.47594 0.86319 0.0
C203 C 0.18491 0.50756 0.91753 0.0
C204 C 0.2056 0.62525 0.87233 0.0
C205 C 0.10181 0.51647 0.86632 0.0
O206 O 0.1796 0.54517 0.90431 0.0
O207 O 0.18119 0.46777 0.90647 0.0
O208 O 0.16423 0.57516 0.82633 0.0
O209 O 0.17941 0.50976 0.84576 0.0
Co210 Co 0.83622 0.4327 0.87097 0.0
O211 O 0.79416 0.39973 0.87233 0.0
O212 O 0.84286 0.37133 0.88594 0.0
C213 C 0.83094 0.45982 0.82786 0.0
O214 O 0.88487 0.45476 0.87165 0.0
Co215 Co 0.83932 0.53952 0.86397 0.0
O216 O 0.8882 0.52969 0.8597 0.0
C217 C 0.82083 0.49975 0.91779 0.0
C218 C 0.81099 0.36491 0.88208 0.0
C219 C 0.90196 0.49126 0.86581 0.0
O220 O 0.82789 0.45903 0.90876 0.0
O221 O 0.82136 0.53592 0.9026 0.0
O222 O 0.84104 0.41768 0.83203 0.0
O223 O 0.82129 0.48236 0.84948 0.0
H224 H 0.32689 0.94862 0.45811 0.0
H225 H 0.30504 0.09452 0.4523 0.0
H226 H 0.30279 0.10011 0.50242 0.0
H227 H 0.31229 0.06584 0.54763 0.0
H228 H 0.3361 0.92077 0.55449 0.0
H229 H 0.33167 0.91252 0.50427 0.0
C230 C 0.32111 0.98145 0.46781 0.0
C231 C 0.31658 0.02118 0.45142 0.0
C232 C 0.3204 0.98471 0.49684 0.0
C233 C 0.3091 0.06348 0.46437 0.0
C234 C 0.30778 0.06677 0.49307 0.0
C235 C 0.31627 0.03223 0.53825 0.0
C236 C 0.32502 0.99415 0.55482 0.0
C237 C 0.3143 0.02794 0.50947 0.0
C238 C 0.32948 0.95075 0.54226 0.0
C239 C 0.32711 0.94605 0.5135 0.0
H240 H 0.70566 0.93748 0.54002 0.0
H241 H 0.68537 0.08364 0.5462 0.0
H242 H 0.684 0.08974 0.4959 0.0
H243 H 0.68312 0.05198 0.45009 0.0
H244 H 0.70323 0.90555 0.44477 0.0
H245 H 0.71027 0.90152 0.49456 0.0
C246 C 0.70125 0.9708 0.53042 0.0
C247 C 0.69521 0.00983 0.54696 0.0
C248 C 0.70021 0.97408 0.50149 0.0
C249 C 0.69 0.05286 0.53405 0.0
C250 C 0.68907 0.05641 0.50522 0.0
C251 C 0.68955 0.01938 0.45979 0.0
C252 C 0.69205 0.97909 0.44365 0.0
C253 C 0.69334 0.01702 0.48871 0.0
C254 C 0.70056 0.9371 0.45663 0.0
C255 C 0.70464 0.93464 0.48518 0.0
H256 H 0.3047 0.94886 0.04103 0.0
H257 H 0.32371 0.0953 0.04488 0.0
H258 H 0.32614 0.09884 0.99439 0.0
H259 H 0.32832 0.05847 0.94927 0.0
H260 H 0.30905 0.91174 0.94665 0.0
H261 H 0.30113 0.91048 0.99635 0.0
C262 C 0.30908 0.98168 0.03085 0.0
C263 C 0.31445 0.02158 0.04672 0.0
C264 C 0.31065 0.98342 0.00193 0.0
C265 C 0.31954 0.06397 0.03316 0.0
C266 C 0.32111 0.066 0.00427 0.0
C267 C 0.3219 0.02641 0.95953 0.0
C268 C 0.31993 0.98519 0.94419 0.0
C269 C 0.3175 0.02568 0.98843 0.0
C270 C 0.31136 0.94395 0.95788 0.0
C271 C 0.30676 0.94308 0.98639 0.0
H272 H 0.69903 0.0714 0.95732 0.0
H273 H 0.68844 0.92337 0.95162 0.0
H274 H 0.68731 0.91765 0.00194 0.0
H275 H 0.68355 0.95564 0.04756 0.0
H276 H 0.69362 0.10393 0.05242 0.0
H277 H 0.70094 0.10826 0.00264 0.0
C278 C 0.6968 0.03778 0.96702 0.0
C279 C 0.69337 0.99803 0.95061 0.0
C280 C 0.69583 0.03471 0.99596 0.0
C281 C 0.69099 0.95469 0.96367 0.0
C282 C 0.6902 0.95134 0.99251 0.0
C283 C 0.6879 0.98878 0.03777 0.0
C284 C 0.68747 0.02939 0.05375 0.0
C285 C 0.69176 0.99126 0.00887 0.0
C286 C 0.69326 0.07208 0.04067 0.0
C287 C 0.69748 0.0747 0.01213 0.0
H288 H 0.79804 0.55422 0.54276 0.0
H289 H 0.81631 0.40825 0.55351 0.0
H290 H 0.81412 0.39684 0.50365 0.0
H291 H 0.81518 0.43019 0.45693 0.0
H292 H 0.79798 0.57653 0.44666 0.0
H293 H 0.7912 0.5856 0.4963 0.0
C294 C 0.8011 0.5198 0.53424 0.0
C295 C 0.80805 0.48242 0.5518 0.0
C296 C 0.80029 0.5135 0.50556 0.0
C297 C 0.81124 0.43783 0.54046 0.0
C298 C 0.81013 0.43122 0.5119 0.0
C299 C 0.80922 0.46383 0.46551 0.0
C300 C 0.8079 0.50271 0.44822 0.0
C301 C 0.80589 0.46908 0.49422 0.0
C302 C 0.79988 0.54611 0.45961 0.0
C303 C 0.79599 0.55142 0.48801 0.0
H304 H 0.18144 0.55931 0.53509 0.0
H305 H 0.20013 0.41263 0.54167 0.0
H306 H 0.20628 0.40714 0.49185 0.0
H307 H 0.20092 0.44182 0.44624 0.0
H308 H 0.18156 0.58794 0.43851 0.0
H309 H 0.18178 0.59582 0.48887 0.0
C310 C 0.18733 0.5263 0.52566 0.0
C311 C 0.18969 0.48637 0.54217 0.0
C312 C 0.19057 0.52313 0.49674 0.0
C313 C 0.19757 0.44389 0.52954 0.0
C314 C 0.20115 0.44062 0.50098 0.0
C315 C 0.19708 0.47554 0.45551 0.0
C316 C 0.19074 0.51407 0.43862 0.0
C317 C 0.19679 0.4797 0.48436 0.0
C318 C 0.1864 0.55763 0.45102 0.0
C319 C 0.18633 0.56213 0.47984 0.0
H320 H 0.80728 0.43264 0.95505 0.0
H321 H 0.82103 0.58 0.94778 0.0
H322 H 0.82078 0.58749 -0.00199 0.0
H323 H 0.82422 0.55067 0.04378 0.0
H324 H 0.81193 0.40287 0.05028 0.0
H325 H 0.80384 0.39732 0.00061 0.0
C326 C 0.80983 0.46651 0.96441 0.0
C327 C 0.81485 0.50549 0.94771 0.0
C328 C 0.81027 0.4705 0.99321 0.0
C329 C 0.81741 0.54927 0.96016 0.0
C330 C 0.81743 0.5536 0.98891 0.0
C331 C 0.81917 0.51741 0.03438 0.0
C332 C 0.81943 0.47721 0.05062 0.0
C333 C 0.81504 0.51423 0.00563 0.0
C334 C 0.81258 0.43433 0.03817 0.0
C335 C 0.8079 0.43103 0.00975 0.0
H336 H 0.20909 0.57052 0.04005 0.0
H337 H 0.18483 0.42788 0.056 0.0
H338 H 0.18342 0.4123 0.00638 0.0
H339 H 0.18314 0.44143 0.9583 0.0
H340 H 0.20754 0.58458 0.94339 0.0
H341 H 0.21496 0.59732 0.99256 0.0
C342 C 0.20386 0.53587 0.03272 0.0
C343 C 0.19665 0.50066 0.05174 0.0
C344 C 0.2028 0.52721 0.00422 0.0
C345 C 0.19042 0.45577 0.04184 0.0
C346 C 0.18942 0.44683 0.01342 0.0
C347 C 0.1906 0.47517 0.96579 0.0
C348 C 0.19409 0.51209 0.94712 0.0
C349 C 0.19469 0.4826 0.99437 0.0
C350 C 0.204 0.55559 0.95724 0.0
C351 C 0.20833 0.56304 0.98543 0.0
H352 H 0.55818 0.04334 0.3659 0.0
H353 H 0.5562 0.89423 0.36678 0.0
H354 H 0.49481 0.89629 0.36768 0.0
H355 H 0.44192 0.94063 0.36739 0.0
H356 H 0.44487 0.08979 0.36706 0.0
H357 H 0.50597 0.08727 0.36669 0.0
C358 C 0.54452 0.01105 0.36624 0.0
C359 C 0.56206 0.96854 0.36607 0.0
C360 C 0.50938 0.01255 0.36679 0.0
C361 C 0.54356 0.92738 0.36688 0.0
C362 C 0.50842 0.92859 0.36733 0.0
C363 C 0.45583 0.97271 0.36719 0.0
C364 C 0.43854 0.01547 0.36711 0.0
C365 C 0.49108 0.97102 0.36713 0.0
C366 C 0.45726 0.05646 0.36711 0.0
C367 C 0.49227 0.05503 0.36688 0.0
H368 H 0.44221 0.96422 0.11604 0.0
H369 H 0.42532 0.09546 0.15618 0.0
H370 H 0.48509 0.11081 0.15618 0.0
H371 H 0.54303 0.08685 0.14549 0.0
H372 H 0.55996 0.95477 0.1067 0.0
H373 H 0.4999 0.94049 0.10517 0.0
C374 C 0.45158 0.99605 0.12491 0.0
C375 C 0.429 0.02843 0.13606 0.0
C376 C 0.48627 0.00494 0.12488 0.0
C377 C 0.44186 0.06968 0.14735 0.0
C378 C 0.47619 0.07871 0.14734 0.0
C379 C 0.53346 0.05532 0.13637 0.0
C380 C 0.55595 0.02206 0.12618 0.0
C381 C 0.49871 0.0467 0.1361 0.0
C382 C 0.54318 0.98095 0.11479 0.0
C383 C 0.50879 0.97262 0.11395 0.0
H384 H 0.57012 0.06497 0.62906 0.0
H385 H 0.57383 0.91591 0.63134 0.0
H386 H 0.51263 0.91331 0.63165 0.0
H387 H 0.45843 0.95311 0.63224 0.0
H388 H 0.45431 0.10206 0.62912 0.0
H389 H 0.51562 0.10482 0.62801 0.0
C390 C 0.55766 0.03178 0.62968 0.0
C391 C 0.5768 0.99058 0.63041 0.0
C392 C 0.52244 0.03055 0.62967 0.0
C393 C 0.55995 0.94809 0.63081 0.0
C394 C 0.5249 0.94661 0.63102 0.0
C395 C 0.47079 0.98636 0.63135 0.0
C396 C 0.45156 0.02745 0.63102 0.0
C397 C 0.50595 0.98762 0.63062 0.0
C398 C 0.46829 0.06996 0.62943 0.0
C399 C 0.50338 0.07151 0.62887 0.0
H400 H 0.56971 0.93135 0.8663 0.0
H401 H 0.57007 0.08058 0.86658 0.0
H402 H 0.50903 0.08135 0.86696 0.0
H403 H 0.4559 0.04031 0.86669 0.0
H404 H 0.4544 0.89122 0.86715 0.0
H405 H 0.51579 0.88987 0.86723 0.0
C406 C 0.55649 0.96411 0.86637 0.0
C407 C 0.57465 0.00592 0.86625 0.0
C408 C 0.52125 0.96434 0.86681 0.0
C409 C 0.55693 0.04791 0.86666 0.0
C410 C 0.52197 0.04839 0.86686 0.0
C411 C 0.46884 0.00733 0.86677 0.0
C412 C 0.45039 0.96584 0.86671 0.0
C413 C 0.50393 0.00687 0.86686 0.0
C414 C 0.46784 0.92364 0.8672 0.0
C415 C 0.50296 0.92289 0.86716 0.0
H416 H 0.95243 0.55884 0.34973 0.0
H417 H 0.94373 0.44187 0.40428 0.0
H418 H 1.00422 0.43007 0.40297 0.0
H419 H 0.05973 0.45057 0.38457 0.0
H420 H 0.06818 0.56648 0.32892 0.0
H421 H 0.00827 0.58053 0.33218 0.0
C422 C 0.96395 0.5315 0.36178 0.0
C423 C 0.94367 0.50159 0.37727 0.0
C424 C 0.99884 0.524 0.36032 0.0
C425 C 0.95886 0.46555 0.39229 0.0
C426 C 0.99346 0.45853 0.39141 0.0
C427 C 0.04845 0.47868 0.37301 0.0
C428 C 0.06868 0.50716 0.35647 0.0
C429 C 0.01371 0.48696 0.37507 0.0
C430 C 0.05345 0.54382 0.34188 0.0
C431 C 0.01905 0.55211 0.34377 0.0
H432 H 0.07301 0.45125 0.13413 0.0
H433 H 0.06918 0.59948 0.12459 0.0
H434 H 0.00811 0.59639 0.12213 0.0
H435 H 0.95604 0.55209 0.12366 0.0
H436 H 0.95949 0.40373 0.13238 0.0
H437 H 0.02074 0.40648 0.13396 0.0
C438 C 0.0589 0.48301 0.13158 0.0
C439 C 0.07584 0.52569 0.12979 0.0
C440 C 0.02377 0.48092 0.12996 0.0
C441 C 0.05697 0.56624 0.12608 0.0
C442 C 0.022 0.56447 0.1247 0.0
C443 C 0.97006 0.52018 0.1259 0.0
C444 C 0.95298 0.47769 0.12811 0.0
C445 C 0.00518 0.52205 0.12676 0.0
C446 C 0.97182 0.43685 0.13062 0.0
C447 C 0.00687 0.43846 0.13163 0.0
H448 H 0.94403 0.43493 0.62912 0.0
H449 H 0.93915 0.58369 0.62359 0.0
H450 H 1.00025 0.58692 0.62086 0.0
H451 H 0.05477 0.54789 0.62102 0.0
H452 H 0.05992 0.39911 0.62597 0.0
H453 H 0.99869 0.39564 0.62779 0.0
C454 C 0.9562 0.4682 0.62735 0.0
C455 C 0.93676 0.50914 0.62678 0.0
C456 C 0.99136 0.46978 0.62566 0.0
C457 C 0.95325 0.55169 0.62413 0.0
C458 C 0.98824 0.55354 0.6226 0.0
C459 C 0.04267 0.51453 0.6225 0.0
C460 C 0.06221 0.47372 0.62355 0.0
C461 C 0.00751 0.51283 0.6235 0.0
C462 C 0.04573 0.43102 0.62513 0.0
C463 C 0.01068 0.42906 0.62624 0.0
H464 H 0.05659 0.4471 0.87008 0.0
H465 H 0.06318 0.59553 0.86361 0.0
H466 H 1.00192 0.60079 0.86278 0.0
H467 H 0.9466 0.56281 0.86324 0.0
H468 H 0.94126 0.41424 0.87033 0.0
H469 H 1.00215 0.40968 0.87146 0.0
C470 C 0.04482 0.48079 0.86844 0.0
C471 C 0.06468 0.52091 0.86675 0.0
C472 C 0.00977 0.4835 0.86802 0.0
C473 C 0.04866 0.56409 0.86495 0.0
C474 C 0.0136 0.56708 0.86441 0.0
C475 C 0.9587 0.52937 0.86498 0.0
C476 C 0.93916 0.48886 0.86659 0.0
C477 C 0.99391 0.52695 0.8658 0.0
C478 C 0.95546 0.44597 0.86907 0.0
C479 C 0.99035 0.44331 0.8697 0.0
H480 H 0.25933 0.35393 0.38181 0.0
H481 H 0.16386 0.28501 0.3846 0.0
H482 H 0.19233 0.21001 0.38708 0.0
H483 H 0.24441 0.16398 0.38447 0.0
H484 H 0.33976 0.23344 0.38272 0.0
H485 H 0.3113 0.30833 0.38397 0.0
C486 C 0.24472 0.32253 0.38329 0.0
C487 C 0.20947 0.32504 0.38276 0.0
C488 C 0.26127 0.27964 0.38468 0.0
C489 C 0.19096 0.28407 0.38501 0.0
C490 C 0.20726 0.24117 0.38625 0.0
C491 C 0.25898 0.19552 0.38462 0.0
C492 C 0.29421 0.1931 0.38319 0.0
C493 C 0.2424 0.2385 0.38547 0.0
C494 C 0.31269 0.23427 0.38375 0.0
C495 C 0.29639 0.27713 0.38437 0.0
H496 H 0.68607 0.76094 0.38118 0.0
H497 H 0.76711 0.85895 0.38167 0.0
H498 H 0.80785 0.79639 0.38469 0.0
H499 H 0.82099 0.71318 0.38281 0.0
H500 H 0.73987 0.61532 0.38016 0.0
H501 H 0.69912 0.67781 0.3826 0.0
C502 C 0.7126 0.76849 0.38243 0.0
C503 C 0.7235 0.81441 0.38098 0.0
C504 C 0.73612 0.73218 0.38351 0.0
C505 C 0.75803 0.82375 0.38246 0.0
C506 C 0.78144 0.78799 0.38418 0.0
C507 C 0.79442 0.70564 0.38315 0.0
C508 C 0.78357 0.65976 0.381 0.0
C509 C 0.77087 0.74196 0.38401 0.0
C510 C 0.74898 0.65047 0.38142 0.0
C511 C 0.72554 0.68619 0.38286 0.0
H512 H 0.26948 0.67316 0.10797 0.0
H513 H 0.17208 0.73562 0.09777 0.0
H514 H 0.19767 0.81214 0.0961 0.0
H515 H 0.24711 0.86173 0.10207 0.0
H516 H 0.34474 0.79967 0.11107 0.0
H517 H 0.31976 0.72262 0.10842 0.0
C518 C 0.25389 0.70348 0.10498 0.0
C519 C 0.21883 0.69863 0.10328 0.0
C520 C 0.26882 0.74748 0.10404 0.0
C521 C 0.19907 0.73825 0.09914 0.0
C522 C 0.2137 0.7821 0.09834 0.0
C523 C 0.26298 0.83133 0.10311 0.0
C524 C 0.29772 0.83644 0.10708 0.0
C525 C 0.24844 0.7872 0.10147 0.0
C526 C 0.31797 0.79673 0.10803 0.0
C527 C 0.30365 0.75265 0.10666 0.0
H528 H 0.75023 0.16009 0.11542 0.0
H529 H 0.66198 0.24628 0.11583 0.0
H530 H 0.69727 0.3154 0.11333 0.0
H531 H 0.7532 0.35075 0.11545 0.0
H532 H 0.8413 0.26417 0.1147 0.0
H533 H 0.80592 0.19529 0.1127 0.0
C534 C 0.73867 0.19402 0.11471 0.0
C535 C 0.70357 0.19826 0.11621 0.0
C536 C 0.75907 0.23327 0.11339 0.0
C537 C 0.68891 0.24225 0.11475 0.0
C538 C 0.7091 0.28167 0.11349 0.0
C539 C 0.76469 0.31679 0.11462 0.0
C540 C 0.79983 0.31242 0.11564 0.0
C541 C 0.7442 0.27754 0.1135 0.0
C542 C 0.81436 0.26836 0.11405 0.0
C543 C 0.79413 0.22904 0.11301 0.0
H544 H 0.69102 0.78372 0.61145 0.0
H545 H 0.77972 0.86812 0.60928 0.0
H546 H 0.81484 0.79916 0.60683 0.0
H547 H 0.82092 0.71428 0.60882 0.0
H548 H 0.73231 0.62998 0.61348 0.0
H549 H 0.69701 0.69878 0.61122 0.0
C550 C 0.718 0.78699 0.61003 0.0
C551 C 0.73261 0.83117 0.61059 0.0
C552 C 0.73827 0.74693 0.60926 0.0
C553 C 0.7677 0.83464 0.609 0.0
C554 C 0.7879 0.79512 0.60763 0.0
C555 C 0.79389 0.71096 0.60893 0.0
C556 C 0.7794 0.66689 0.61136 0.0
C557 C 0.77356 0.75099 0.60826 0.0
C558 C 0.74425 0.66339 0.61174 0.0
C559 C 0.72395 0.70282 0.61048 0.0
H560 H 0.18924 0.27252 0.60842 0.0
H561 H 0.27006 0.37091 0.60927 0.0
H562 H 0.31095 0.30853 0.60668 0.0
H563 H 0.32426 0.22544 0.60869 0.0
H564 H 0.24356 0.12697 0.61011 0.0
H565 H 0.20258 0.1893 0.60693 0.0
C566 C 0.21576 0.28022 0.60763 0.0
C567 C 0.22649 0.32629 0.60931 0.0
C568 C 0.23939 0.24396 0.60669 0.0
C569 C 0.26104 0.33571 0.60833 0.0
C570 C 0.28455 0.30002 0.60682 0.0
C571 C 0.29774 0.21769 0.60775 0.0
C572 C 0.28703 0.17169 0.60978 0.0
C573 C 0.27411 0.25392 0.60665 0.0
C574 C 0.25251 0.16218 0.60879 0.0
C575 C 0.22897 0.19783 0.60702 0.0
H576 H 0.76628 0.15605 0.88755 0.0
H577 H 0.66846 0.21938 0.88578 0.0
H578 H 0.69399 0.29603 0.88688 0.0
H579 H 0.74434 0.34515 0.88503 0.0
H580 H 0.84206 0.2816 0.88844 0.0
H581 H 0.81639 0.20518 0.89023 0.0
C582 C 0.75053 0.18663 0.88768 0.0
C583 C 0.7155 0.18195 0.88634 0.0
C584 C 0.7654 0.23064 0.88848 0.0
C585 C 0.69547 0.22193 0.88681 0.0
C586 C 0.71008 0.26583 0.88732 0.0
C587 C 0.76001 0.31459 0.88644 0.0
C588 C 0.79511 0.31914 0.88635 0.0
C589 C 0.74504 0.27063 0.88764 0.0
C590 C 0.81501 0.27918 0.88846 0.0
C591 C 0.80034 0.23539 0.88937 0.0
H592 H 0.19237 0.71603 0.88334 0.0
H593 H 0.27333 0.61871 0.87253 0.0
H594 H 0.3141 0.68051 0.87695 0.0
H595 H 0.32689 0.76345 0.87964 0.0
H596 H 0.24593 0.8612 0.888 0.0
H597 H 0.20539 0.79842 0.8893 0.0
C598 C 0.21893 0.70839 0.88224 0.0
C599 C 0.2297 0.66299 0.87728 0.0
C600 C 0.24241 0.74431 0.88436 0.0
C601 C 0.26426 0.65353 0.87598 0.0
C602 C 0.28771 0.68884 0.87858 0.0
C603 C 0.30045 0.77078 0.88233 0.0
C604 C 0.28938 0.8167 0.8836 0.0
C605 C 0.2771 0.73453 0.8822 0.0
C606 C 0.25501 0.82595 0.88679 0.0
C607 C 0.23177 0.79012 0.88745 0.0
H608 H 0.32496 0.09279 0.27929 0.0
H609 H 0.33055 0.95637 0.31476 0.0
H610 H 0.32873 0.92223 0.26837 0.0
H611 H 0.32687 0.93175 0.21774 0.0
H612 H 0.31785 0.06832 0.18282 0.0
H613 H 0.31956 0.10207 0.22913 0.0
C614 C 0.32578 0.05556 0.27685 0.0
C615 C 0.3282 0.02703 0.30027 0.0
C616 C 0.32409 0.03638 0.25029 0.0
C617 C 0.3287 0.9789 0.29695 0.0
C618 C 0.32773 0.95947 0.27047 0.0
C619 C 0.32519 0.9689 0.22032 0.0
C620 C 0.32252 0.99761 0.19695 0.0
C621 C 0.32563 0.98793 0.24701 0.0
C622 C 0.31993 0.04558 0.20051 0.0
C623 C 0.321 0.06486 0.22695 0.0
H624 H 0.66373 0.97634 0.1933 0.0
H625 H 0.64914 0.11639 0.22136 0.0
H626 H 0.65215 0.09116 0.26933 0.0
H627 H 0.65902 0.02907 0.30368 0.0
H628 H 0.67006 0.88851 0.27554 0.0
H629 H 0.66845 0.91401 0.22757 0.0
C630 C 0.66123 1.0012 0.20996 0.0
C631 C 0.65637 0.04803 0.20382 0.0
C632 C 0.66241 0.9864 0.23759 0.0
C633 C 0.65282 0.07998 0.22556 0.0
C634 C 0.65463 0.06568 0.25304 0.0
C635 C 0.66119 0.00423 0.28699 0.0
C636 C 0.66481 0.95718 0.29307 0.0
C637 C 0.65949 0.01898 0.25934 0.0
C638 C 0.66716 0.92505 0.27133 0.0
C639 C 0.66629 0.93953 0.24387 0.0
H640 H 0.68102 0.08378 0.77915 0.0
H641 H 0.68772 0.94778 0.81515 0.0
H642 H 0.68838 0.91324 0.76899 0.0
H643 H 0.68714 0.92185 0.71842 0.0
H644 H 0.68371 0.0581 0.68246 0.0
H645 H 0.68168 0.09252 0.72862 0.0
C646 C 0.68257 0.04657 0.77687 0.0
C647 C 0.68416 0.01831 0.80047 0.0
C648 C 0.68354 0.02709 0.75031 0.0
C649 C 0.68653 0.97022 0.79726 0.0
C650 C 0.68684 0.95048 0.77089 0.0
C651 C 0.68587 0.95908 0.72072 0.0
C652 C 0.6854 0.98744 0.69712 0.0
C653 C 0.68536 0.97859 0.74728 0.0
C654 C 0.68414 0.03559 0.70034 0.0
C655 C 0.68293 0.05526 0.7267 0.0
H656 H 0.34616 0.02796 0.80325 0.0
H657 H 0.34987 0.88492 0.77827 0.0
H658 H 0.3499 0.90747 0.72987 0.0
H659 H 0.34787 0.96759 0.69432 0.0
H660 H 0.3469 0.11085 0.71874 0.0
H661 H 0.34692 0.08857 0.7674 0.0
C662 C 0.34698 0.00189 0.78715 0.0
C663 C 0.3478 0.95498 0.79431 0.0
C664 C 0.34748 0.01506 0.75919 0.0
C665 C 0.34924 0.9214 0.77331 0.0
C666 C 0.34919 0.93417 0.74557 0.0
C667 C 0.3477 0.99384 0.71032 0.0
C668 C 0.34717 0.04063 0.70302 0.0
C669 C 0.34816 0.98085 0.73825 0.0
C670 C 0.34733 0.07445 0.7239 0.0
C671 C 0.34725 0.0618 0.75174 0.0
H672 H 0.85078 0.40599 0.22009 0.0
H673 H 0.8492 0.54145 0.18291 0.0
H674 H 0.8491 0.57703 0.2288 0.0
H675 H 0.84763 0.56926 0.27907 0.0
H676 H 0.84528 0.43395 0.31637 0.0
H677 H 0.84884 0.39823 0.27053 0.0
C678 C 0.85064 0.44331 0.22207 0.0
C679 C 0.85008 0.47124 0.19834 0.0
C680 C 0.84977 0.4633 0.24837 0.0
C681 C 0.84952 0.51944 0.20101 0.0
C682 C 0.8495 0.5397 0.22717 0.0
C683 C 0.84812 0.53193 0.27717 0.0
C684 C 0.8463 0.5041 0.30089 0.0
C685 C 0.84936 0.51191 0.25092 0.0
C686 C 0.84657 0.45588 0.29826 0.0
C687 C 0.84863 0.43556 0.27215 0.0
H688 H 0.1775 0.54453 0.29854 0.0
H689 H 0.17207 0.40157 0.2739 0.0
H690 H 0.17564 0.42378 0.22536 0.0
H691 H 0.17996 0.48382 0.18978 0.0
H692 H 0.1813 0.62713 0.21396 0.0
H693 H 0.17973 0.60496 0.26271 0.0
C694 C 0.1772 0.51837 0.28249 0.0
C695 C 0.17471 0.47158 0.28971 0.0
C696 C 0.17852 0.53143 0.25455 0.0
C697 C 0.1739 0.4379 0.26879 0.0
C698 C 0.17602 0.45052 0.24104 0.0
C699 C 0.18005 0.5101 0.20575 0.0
C700 C 0.18096 0.55692 0.19841 0.0
C701 C 0.17832 0.49716 0.23366 0.0
C702 C 0.18058 0.59078 0.21922 0.0
C703 C 0.17972 0.57816 0.24706 0.0
H704 H 0.16728 0.5749 0.77455 0.0
H705 H 0.16863 0.43888 0.81099 0.0
H706 H 0.1671 0.40416 0.76474 0.0
H707 H 0.16659 0.41295 0.7142 0.0
H708 H 0.16825 0.54922 0.67808 0.0
H709 H 0.16735 0.5837 0.72429 0.0
C710 C 0.16709 0.53761 0.77243 0.0
C711 C 0.16798 0.50936 0.7961 0.0
C712 C 0.16682 0.51815 0.74594 0.0
C713 C 0.16803 0.46121 0.79303 0.0
C714 C 0.16712 0.44145 0.76664 0.0
C715 C 0.16659 0.45023 0.71644 0.0
C716 C 0.1674 0.47863 0.69282 0.0
C717 C 0.16669 0.46964 0.74299 0.0
C718 C 0.1677 0.52676 0.69598 0.0
C719 C 0.16716 0.54641 0.72235 0.0
H720 H 0.83012 0.57932 0.71913 0.0
H721 H 0.83595 0.44357 0.68264 0.0
H722 H 0.83839 0.40857 0.72844 0.0
H723 H 0.83686 0.41633 0.77879 0.0
H724 H 0.82714 0.55151 0.8155 0.0
H725 H 0.8282 0.58704 0.76971 0.0
C726 C 0.83218 0.54212 0.72129 0.0
C727 C 0.83293 0.51402 0.69768 0.0
C728 C 0.83268 0.52217 0.74768 0.0
C729 C 0.83523 0.46587 0.70059 0.0
C730 C 0.83664 0.44583 0.72675 0.0
C731 C 0.83514 0.45357 0.77674 0.0
C732 C 0.83199 0.4813 0.80036 0.0
C733 C 0.83505 0.47361 0.75041 0.0
C734 C 0.82949 0.52946 0.79752 0.0
C735 C 0.83014 0.5498 0.77138 0.0
loop_
_geom_bond_atom_site_label_1
_geom_bond_atom_site_label_2
_geom_bond_distance
_geom_bond_site_symmetry_2
_ccdc_geom_bond_type
Co0 O1 2.216 . S
Co0 O2 2.091 . S
Co0 O4 2.004 . S
Co0 O10 2.021 . S
Co0 O12 2.137 . S
Co0 O13 2.244 1_545 S
O1 Co0 2.216 . S
O1 C8 1.247 . S
O2 Co0 2.091 . S
O2 C8 1.261 . S
C3 O12 1.247 . S
C3 O13 1.272 1_545 S
O4 Co0 2.004 . S
O4 C9 1.259 . S
Co5 O6 2.061 . S
Co5 O11 2.052 . S
Co5 O13 2.135 . S
O6 Co5 2.061 . S
O6 C9 1.235 1_565 S
C7 O10 1.238 . S
C7 O11 1.241 1_545 S
C8 O1 1.247 . S
C8 O2 1.261 . S
C9 O4 1.259 . S
C9 O6 1.235 1_545 S
O10 Co0 2.021 . S
O10 C7 1.238 . S
O11 Co5 2.052 . S
O11 C7 1.241 1_565 S
O12 Co0 2.137 . S
O12 C3 1.247 . S
O13 Co0 2.244 1_565 S
O13 C3 1.272 1_565 S
O13 Co5 2.135 . S
Co14 O15 2.216 . S
Co14 O16 2.091 . S
Co14 O18 2.004 . S
Co14 O24 2.021 . S
Co14 O26 2.137 . S
Co14 O27 2.244 1_565 S
O15 Co14 2.216 . S
O15 C22 1.247 . S
O16 Co14 2.091 . S
O16 C22 1.261 . S
C17 O26 1.247 . S
C17 O27 1.272 1_565 S
O18 Co14 2.004 . S
O18 C23 1.259 . S
Co19 O20 2.061 . S
Co19 O25 2.052 . S
Co19 O27 2.135 . S
O20 Co19 2.061 . S
O20 C23 1.235 1_545 S
C21 O24 1.238 . S
C21 O25 1.241 1_565 S
C22 O15 1.247 . S
C22 O16 1.261 . S
C23 O18 1.259 . S
C23 O20 1.235 1_565 S
O24 Co14 2.021 . S
O24 C21 1.238 . S
O25 Co19 2.052 . S
O25 C21 1.241 1_545 S
O26 Co14 2.137 . S
O26 C17 1.247 . S
O27 Co14 2.244 1_545 S
O27 C17 1.272 1_545 S
O27 Co19 2.135 . S
Co28 O29 2.216 . S
Co28 O30 2.091 . S
Co28 O32 2.004 . S
Co28 O38 2.021 . S
Co28 O40 2.137 . S
Co28 O41 2.244 1_565 S
O29 Co28 2.216 . S
O29 C36 1.247 . S
O30 Co28 2.091 . S
O30 C36 1.261 . S
C31 O40 1.247 . S
C31 O41 1.272 1_565 S
O32 Co28 2.004 . S
O32 C37 1.259 . S
Co33 O34 2.061 . S
Co33 O39 2.052 . S
Co33 O41 2.135 . S
O34 Co33 2.061 . S
O34 C37 1.235 1_545 S
C35 O38 1.238 . S
C35 O39 1.241 1_565 S
C36 O29 1.247 . S
C36 O30 1.261 . S
C37 O32 1.259 . S
C37 O34 1.235 1_565 S
O38 Co28 2.021 . S
O38 C35 1.238 . S
O39 Co33 2.052 . S
O39 C35 1.241 1_545 S
O40 Co28 2.137 . S
O40 C31 1.247 . S
O41 Co28 2.244 1_545 S
O41 C31 1.272 1_545 S
O41 Co33 2.135 . S
Co42 O43 2.216 . S
Co42 O44 2.091 . S
Co42 O46 2.004 . S
Co42 O52 2.021 . S
Co42 O54 2.137 . S
Co42 O55 2.244 1_545 S
O43 Co42 2.216 . S
O43 C50 1.247 . S
O44 Co42 2.091 . S
O44 C50 1.261 . S
C45 O54 1.247 . S
C45 O55 1.272 1_545 S
O46 Co42 2.004 . S
O46 C51 1.259 . S
Co47 O48 2.061 . S
Co47 O53 2.052 . S
Co47 O55 2.135 . S
O48 Co47 2.061 . S
O48 C51 1.235 1_565 S
C49 O52 1.238 . S
C49 O53 1.241 1_545 S
C50 O43 1.247 . S
C50 O44 1.261 . S
C51 O46 1.259 . S
C51 O48 1.235 1_545 S
O52 Co42 2.021 . S
O52 C49 1.238 . S
O53 Co47 2.052 . S
O53 C49 1.241 1_565 S
O54 Co42 2.137 . S
O54 C45 1.247 . S
O55 Co42 2.244 1_565 S
O55 C45 1.272 1_565 S
O55 Co47 2.135 . S
Co56 O57 2.216 . S
Co56 O58 2.091 . S
Co56 O60 2.004 . S
Co56 O66 2.021 . S
Co56 O68 2.137 . S
Co56 O69 2.244 1_565 S
O57 Co56 2.216 . S
O57 C64 1.247 . S
O58 Co56 2.091 . S
O58 C64 1.261 . S
C59 O68 1.247 . S
C59 O69 1.272 1_565 S
O60 Co56 2.004 . S
O60 C65 1.259 . S
Co61 O62 2.061 . S
Co61 O67 2.052 . S
Co61 O69 2.135 . S
O62 Co61 2.061 . S
O62 C65 1.235 1_545 S
C63 O66 1.238 . S
C63 O67 1.241 1_565 S
C64 O57 1.247 . S
C64 O58 1.261 . S
C65 O60 1.259 . S
C65 O62 1.235 1_565 S
O66 Co56 2.021 . S
O66 C63 1.238 . S
O67 Co61 2.052 . S
O67 C63 1.241 1_545 S
O68 Co56 2.137 . S
O68 C59 1.247 . S
O69 Co56 2.244 1_545 S
O69 C59 1.272 1_545 S
O69 Co61 2.135 . S
Co70 O71 2.216 . S
Co70 O72 2.091 . S
Co70 O74 2.004 . S
Co70 O80 2.021 . S
Co70 O82 2.137 . S
Co70 O83 2.244 1_545 S
O71 Co70 2.216 . S
O71 C78 1.247 . S
O72 Co70 2.091 . S
O72 C78 1.261 . S
C73 O82 1.247 . S
C73 O83 1.272 1_545 S
O74 Co70 2.004 . S
O74 C79 1.259 . S
Co75 O76 2.061 . S
Co75 O81 2.052 . S
Co75 O83 2.135 . S
O76 Co75 2.061 . S
O76 C79 1.235 1_565 S
C77 O80 1.238 . S
C77 O81 1.241 1_545 S
C78 O71 1.247 . S
C78 O72 1.261 . S
C79 O74 1.259 . S
C79 O76 1.235 1_545 S
O80 Co70 2.021 . S
O80 C77 1.238 . S
O81 Co75 2.052 . S
O81 C77 1.241 1_565 S
O82 Co70 2.137 . S
O82 C73 1.247 . S
O83 Co70 2.244 1_565 S
O83 C73 1.272 1_565 S
O83 Co75 2.135 . S
Co84 O85 2.216 . S
Co84 O86 2.091 . S
Co84 O88 2.004 . S
Co84 O94 2.021 . S
Co84 O96 2.137 . S
Co84 O97 2.244 1_545 S
O85 Co84 2.216 . S
O85 C92 1.247 . S
O86 Co84 2.091 . S
O86 C92 1.261 . S
C87 O96 1.247 . S
C87 O97 1.272 1_545 S
O88 Co84 2.004 . S
O88 C93 1.259 . S
Co89 O90 2.061 . S
Co89 O95 2.052 . S
Co89 O97 2.135 . S
O90 Co89 2.061 . S
O90 C93 1.235 1_565 S
C91 O94 1.238 . S
C91 O95 1.241 1_545 S
C92 O85 1.247 . S
C92 O86 1.261 . S
C93 O88 1.259 . S
C93 O90 1.235 1_545 S
O94 Co84 2.021 . S
O94 C91 1.238 . S
O95 Co89 2.052 . S
O95 C91 1.241 1_565 S
O96 Co84 2.137 . S
O96 C87 1.247 . S
O97 Co84 2.244 1_565 S
O97 C87 1.272 1_565 S
O97 Co89 2.135 . S
Co98 O99 2.216 . S
Co98 O100 2.091 . S
Co98 O102 2.004 . S
Co98 O108 2.021 . S
Co98 O110 2.137 . S
Co98 O111 2.244 1_565 S
O99 Co98 2.216 . S
O99 C106 1.247 . S
O100 Co98 2.091 . S
O100 C106 1.261 . S
C101 O110 1.247 . S
C101 O111 1.272 1_565 S
O102 Co98 2.004 . S
O102 C107 1.259 . S
Co103 O104 2.061 . S
Co103 O109 2.052 . S
Co103 O111 2.135 . S
O104 Co103 2.061 . S
O104 C107 1.235 1_545 S
C105 O108 1.238 . S
C105 O109 1.241 1_565 S
C106 O99 1.247 . S
C106 O100 1.261 . S
C107 O102 1.259 . S
C107 O104 1.235 1_565 S
O108 Co98 2.021 . S
O108 C105 1.238 . S
O109 Co103 2.052 . S
O109 C105 1.241 1_545 S
O110 Co98 2.137 . S
O110 C101 1.247 . S
O111 Co98 2.244 1_545 S
O111 C101 1.272 1_545 S
O111 Co103 2.135 . S
Co112 O113 2.216 . S
Co112 O114 2.091 . S
Co112 O116 2.004 . S
Co112 O122 2.021 . S
Co112 O124 2.137 . S
Co112 O125 2.244 . S
O113 Co112 2.216 . S
O113 C120 1.247 . S
O114 Co112 2.091 . S
O114 C120 1.261 . S
C115 O124 1.247 . S
C115 O125 1.272 . S
O116 Co112 2.004 . S
O116 C121 1.259 . S
Co117 O118 2.061 . S
Co117 O123 2.052 . S
Co117 O125 2.135 . S
O118 Co117 2.061 . S
O118 C121 1.235 . S
C119 O122 1.238 . S
C119 O123 1.241 . S
C120 O113 1.247 . S
C120 O114 1.261 . S
C121 O116 1.259 . S
C121 O118 1.235 . S
O122 Co112 2.021 . S
O122 C119 1.238 . S
O123 Co117 2.052 . S
O123 C119 1.241 . S
O124 Co112 2.137 . S
O124 C115 1.247 . S
O125 Co112 2.244 . S
O125 C115 1.272 . S
O125 Co117 2.135 . S
Co126 O127 2.216 . S
Co126 O128 2.091 . S
Co126 O130 2.004 . S
Co126 O136 2.021 . S
Co126 O138 2.137 . S
Co126 O139 2.244 . S
O127 Co126 2.216 . S
O127 C134 1.247 . S
O128 Co126 2.091 . S
O128 C134 1.261 . S
C129 O138 1.247 . S
C129 O139 1.272 . S
O130 Co126 2.004 . S
O130 C135 1.259 . S
Co131 O132 2.061 . S
Co131 O137 2.052 . S
Co131 O139 2.135 . S
O132 Co131 2.061 . S
O132 C135 1.235 . S
C133 O136 1.238 . S
C133 O137 1.241 . S
C134 O127 1.247 . S
C134 O128 1.261 . S
C135 O130 1.259 . S
C135 O132 1.235 . S
O136 Co126 2.021 . S
O136 C133 1.238 . S
O137 Co131 2.052 . S
O137 C133 1.241 . S
O138 Co126 2.137 . S
O138 C129 1.247 . S
O139 Co126 2.244 . S
O139 C129 1.272 . S
O139 Co131 2.135 . S
Co140 O141 2.216 . S
Co140 O142 2.091 . S
Co140 O144 2.004 . S
Co140 O150 2.021 . S
Co140 O152 2.137 . S
Co140 O153 2.244 . S
O141 Co140 2.216 . S
O141 C148 1.247 . S
O142 Co140 2.091 . S
O142 C148 1.261 . S
C143 O152 1.247 . S
C143 O153 1.272 . S
O144 Co140 2.004 . S
O144 C149 1.259 . S
Co145 O146 2.061 . S
Co145 O151 2.052 . S
Co145 O153 2.135 . S
O146 Co145 2.061 . S
O146 C149 1.235 . S
C147 O150 1.238 . S
C147 O151 1.241 . S
C148 O141 1.247 . S
C148 O142 1.261 . S
C149 O144 1.259 . S
C149 O146 1.235 . S
O150 Co140 2.021 . S
O150 C147 1.238 . S
O151 Co145 2.052 . S
O151 C147 1.241 . S
O152 Co140 2.137 . S
O152 C143 1.247 . S
O153 Co140 2.244 . S
O153 C143 1.272 . S
O153 Co145 2.135 . S
Co154 O155 2.216 . S
Co154 O156 2.091 . S
Co154 O158 2.004 . S
Co154 O164 2.021 . S
Co154 O166 2.137 . S
Co154 O167 2.244 . S
O155 Co154 2.216 . S
O155 C162 1.247 . S
O156 Co154 2.091 . S
O156 C162 1.261 . S
C157 O166 1.247 . S
C157 O167 1.272 . S
O158 Co154 2.004 . S
O158 C163 1.259 . S
Co159 O160 2.061 . S
Co159 O165 2.052 . S
Co159 O167 2.135 . S
O160 Co159 2.061 . S
O160 C163 1.235 . S
C161 O164 1.238 . S
C161 O165 1.241 . S
C162 O155 1.247 . S
C162 O156 1.261 . S
C163 O158 1.259 . S
C163 O160 1.235 . S
O164 Co154 2.021 . S
O164 C161 1.238 . S
O165 Co159 2.052 . S
O165 C161 1.241 . S
O166 Co154 2.137 . S
O166 C157 1.247 . S
O167 Co154 2.244 . S
O167 C157 1.272 . S
O167 Co159 2.135 . S
Co168 O169 2.216 . S
Co168 O170 2.091 . S
Co168 O172 2.004 . S
Co168 O178 2.021 . S
Co168 O180 2.137 . S
Co168 O181 2.244 . S
O169 Co168 2.216 . S
O169 C176 1.247 . S
O170 Co168 2.091 . S
O170 C176 1.261 . S
C171 O180 1.247 . S
C171 O181 1.272 . S
O172 Co168 2.004 . S
O172 C177 1.259 . S
Co173 O174 2.061 . S
Co173 O179 2.052 . S
Co173 O181 2.135 . S
O174 Co173 2.061 . S
O174 C177 1.235 . S
C175 O178 1.238 . S
C175 O179 1.241 . S
C176 O169 1.247 . S
C176 O170 1.261 . S
C177 O172 1.259 . S
C177 O174 1.235 . S
O178 Co168 2.021 . S
O178 C175 1.238 . S
O179 Co173 2.052 . S
O179 C175 1.241 . S
O180 Co168 2.137 . S
O180 C171 1.247 . S
O181 Co168 2.244 . S
O181 C171 1.272 . S
O181 Co173 2.135 . S
Co182 O183 2.216 . S
Co182 O184 2.091 . S
Co182 O186 2.004 . S
Co182 O192 2.021 . S
Co182 O194 2.137 . S
Co182 O195 2.244 . S
O183 Co182 2.216 . S
O183 C190 1.247 . S
O184 Co182 2.091 . S
O184 C190 1.261 . S
C185 O194 1.247 . S
C185 O195 1.272 . S
O186 Co182 2.004 . S
O186 C191 1.259 . S
Co187 O188 2.061 . S
Co187 O193 2.052 . S
Co187 O195 2.135 . S
O188 Co187 2.061 . S
O188 C191 1.235 . S
C189 O192 1.238 . S
C189 O193 1.241 . S
C190 O183 1.247 . S
C190 O184 1.261 . S
C191 O186 1.259 . S
C191 O188 1.235 . S
O192 Co182 2.021 . S
O192 C189 1.238 . S
O193 Co187 2.052 . S
O193 C189 1.241 . S
O194 Co182 2.137 . S
O194 C185 1.247 . S
O195 Co182 2.244 . S
O195 C185 1.272 . S
O195 Co187 2.135 . S
Co196 O197 2.216 . S
Co196 O198 2.091 . S
Co196 O200 2.004 . S
Co196 O206 2.021 . S
Co196 O208 2.137 . S
Co196 O209 2.244 . S
O197 Co196 2.216 . S
O197 C204 1.247 . S
O198 Co196 2.091 . S
O198 C204 1.261 . S
C199 O208 1.247 . S
C199 O209 1.272 . S
O200 Co196 2.004 . S
O200 C205 1.259 . S
Co201 O202 2.061 . S
Co201 O207 2.052 . S
Co201 O209 2.135 . S
O202 Co201 2.061 . S
O202 C205 1.235 . S
C203 O206 1.238 . S
C203 O207 1.241 . S
C204 O197 1.247 . S
C204 O198 1.261 . S
C205 O200 1.259 . S
C205 O202 1.235 . S
O206 Co196 2.021 . S
O206 C203 1.238 . S
O207 Co201 2.052 . S
O207 C203 1.241 . S
O208 Co196 2.137 . S
O208 C199 1.247 . S
O209 Co196 2.244 . S
O209 C199 1.272 . S
O209 Co201 2.135 . S
Co210 O211 2.216 . S
Co210 O212 2.091 . S
Co210 O214 2.004 . S
Co210 O220 2.021 . S
Co210 O222 2.137 . S
Co210 O223 2.244 . S
O211 Co210 2.216 . S
O211 C218 1.247 . S
O212 Co210 2.091 . S
O212 C218 1.261 . S
C213 O222 1.247 . S
C213 O223 1.272 . S
O214 Co210 2.004 . S
O214 C219 1.259 . S
Co215 O216 2.061 . S
Co215 O221 2.052 . S
Co215 O223 2.135 . S
O216 Co215 2.061 . S
O216 C219 1.235 . S
C217 O220 1.238 . S
C217 O221 1.241 . S
C218 O211 1.247 . S
C218 O212 1.261 . S
C219 O214 1.259 . S
C219 O216 1.235 . S
O220 Co210 2.021 . S
O220 C217 1.238 . S
O221 Co215 2.052 . S
O221 C217 1.241 . S
O222 Co210 2.137 . S
O222 C213 1.247 . S
O223 Co210 2.244 . S
O223 C213 1.272 . S
O223 Co215 2.135 . S
H224 C230 0.930 . S
H225 C233 0.930 . S
H226 C234 0.930 . S
H227 C235 0.930 . S
H228 C238 0.930 . S
H229 C239 0.930 . S
C230 H224 0.930 . S
C230 C231 1.355 1_565 S
C230 C232 1.415 . S
C231 C230 1.355 1_545 S
C231 C233 1.419 . S
C232 C230 1.415 . S
C232 C237 1.425 1_565 S
C232 C239 1.409 . S
C233 H225 0.930 . S
C233 C231 1.419 . S
C233 C234 1.362 . S
C234 H226 0.930 . S
C234 C233 1.362 . S
C234 C237 1.409 . S
C235 H227 0.930 . S
C235 C236 1.355 . S
C235 C237 1.415 . S
C236 C235 1.355 . S
C236 C238 1.419 1_545 S
C237 C232 1.425 1_545 S
C237 C234 1.409 . S
C237 C235 1.415 . S
C238 H228 0.930 . S
C238 C236 1.419 1_565 S
C238 C239 1.362 . S
C239 H229 0.930 . S
C239 C232 1.409 . S
C239 C238 1.362 . S
H240 C246 0.930 . S
H241 C249 0.930 . S
H242 C250 0.930 . S
H243 C251 0.930 . S
H244 C254 0.930 . S
H245 C255 0.930 . S
C246 H240 0.930 . S
C246 C247 1.355 . S
C246 C248 1.415 . S
C247 C246 1.355 . S
C247 C249 1.419 1_565 S
C248 C246 1.415 . S
C248 C253 1.425 1_565 S
C248 C255 1.409 . S
C249 H241 0.930 . S
C249 C247 1.419 1_545 S
C249 C250 1.362 . S
C250 H242 0.930 . S
C250 C249 1.362 . S
C250 C253 1.409 . S
C251 H243 0.930 . S
C251 C252 1.355 1_545 S
C251 C253 1.415 . S
C252 C251 1.355 1_565 S
C252 C254 1.419 . S
C253 C248 1.425 1_545 S
C253 C250 1.409 . S
C253 C251 1.415 . S
C254 H244 0.930 . S
C254 C252 1.419 . S
C254 C255 1.362 . S
C255 H245 0.930 . S
C255 C248 1.409 . S
C255 C254 1.362 . S
H256 C262 0.930 . S
H257 C265 0.930 . S
H258 C266 0.930 . S
H259 C267 0.930 . S
H260 C270 0.930 . S
H261 C271 0.930 . S
C262 H256 0.930 . S
C262 C263 1.355 . S
C262 C264 1.415 . S
C263 C262 1.355 . S
C263 C265 1.419 1_565 S
C264 C262 1.415 . S
C264 C269 1.425 1_564 S
C264 C271 1.409 1_554 S
C265 H257 0.930 . S
C265 C263 1.419 1_545 S
C265 C266 1.362 . S
C266 H258 0.930 . S
C266 C265 1.362 . S
C266 C269 1.409 1_554 S
C267 H259 0.930 . S
C267 C268 1.355 1_545 S
C267 C269 1.415 . S
C268 C267 1.355 1_565 S
C268 C270 1.419 . S
C269 C264 1.425 1_546 S
C269 C266 1.409 1_556 S
C269 C267 1.415 . S
C270 H260 0.930 . S
C270 C268 1.419 . S
C270 C271 1.362 . S
C271 H261 0.930 . S
C271 C264 1.409 1_556 S
C271 C270 1.362 . S
H272 C278 0.930 . S
H273 C281 0.930 . S
H274 C282 0.930 . S
H275 C283 0.918 1_565 S
H276 C286 0.930 . S
H277 C287 0.930 . S
C278 H272 0.930 . S
C278 C279 1.355 . S
C278 C280 1.415 . S
C279 C278 1.355 . S
C279 C281 1.419 1_545 S
C280 C278 1.415 . S
C280 C285 1.425 1_556 S
C280 C287 1.409 1_556 S
C281 H273 0.930 . S
C281 C279 1.419 1_565 S
C281 C282 1.362 . S
C282 H274 0.930 . S
C282 C281 1.362 . S
C282 C285 1.409 1_566 S
C283 H275 0.918 1_545 S
C283 C284 1.365 . S
C283 C285 1.416 . S
C284 C283 1.365 . S
C284 C286 1.419 . S
C285 C280 1.425 1_554 S
C285 C282 1.409 1_544 S
C285 C283 1.416 . S
C286 H276 0.930 . S
C286 C284 1.419 . S
C286 C287 1.362 . S
C287 H277 0.930 . S
C287 C280 1.409 1_554 S
C287 C286 1.362 . S
H288 C294 0.930 . S
H289 C297 0.930 . S
H290 C298 0.930 . S
H291 C299 0.930 . S
H292 C302 0.930 . S
H293 C303 0.930 . S
C294 H288 0.930 . S
C294 C295 1.355 . S
C294 C296 1.415 . S
C295 C294 1.355 . S
C295 C297 1.419 . S
C296 C294 1.415 . S
C296 C301 1.425 . S
C296 C303 1.409 . S
C297 H289 0.930 . S
C297 C295 1.419 . S
C297 C298 1.362 . S
C298 H290 0.930 . S
C298 C297 1.362 . S
C298 C301 1.409 . S
C299 H291 0.930 . S
C299 C300 1.355 . S
C299 C301 1.415 . S
C300 C299 1.355 . S
C300 C302 1.419 . S
C301 C296 1.425 . S
C301 C298 1.409 . S
C301 C299 1.415 . S
C302 H292 0.930 . S
C302 C300 1.419 . S
C302 C303 1.362 . S
C303 H293 0.930 . S
C303 C296 1.409 . S
C303 C302 1.362 . S
H304 C310 0.930 . S
H305 C313 0.930 . S
H306 C314 0.930 . S
H307 C315 0.930 . S
H308 C318 0.930 . S
H309 C319 0.930 . S
C310 H304 0.930 . S
C310 C311 1.355 . S
C310 C312 1.415 . S
C311 C310 1.355 . S
C311 C313 1.419 . S
C312 C310 1.415 . S
C312 C317 1.425 . S
C312 C319 1.409 . S
C313 H305 0.930 . S
C313 C311 1.419 . S
C313 C314 1.362 . S
C314 H306 0.930 . S
C314 C313 1.362 . S
C314 C317 1.409 . S
C315 H307 0.930 . S
C315 C316 1.355 . S
C315 C317 1.415 . S
C316 C315 1.355 . S
C316 C318 1.419 . S
C317 C312 1.425 . S
C317 C314 1.409 . S
C317 C315 1.415 . S
C318 H308 0.930 . S
C318 C316 1.419 . S
C318 C319 1.362 . S
C319 H309 0.930 . S
C319 C312 1.409 . S
C319 C318 1.362 . S
H320 C326 0.930 . S
H321 C329 0.930 . S
H322 C330 0.930 . S
H323 C331 0.930 . S
H324 C334 0.930 . S
H325 C335 0.930 . S
C326 H320 0.930 . S
C326 C327 1.355 . S
C326 C328 1.415 . S
C327 C326 1.355 . S
C327 C329 1.419 . S
C328 C326 1.415 . S
C328 C333 1.425 1_556 S
C328 C335 1.409 1_556 S
C329 H321 0.930 . S
C329 C327 1.419 . S
C329 C330 1.362 . S
C330 H322 0.930 . S
C330 C329 1.362 . S
C330 C333 1.409 1_556 S
C331 H323 0.930 . S
C331 C332 1.355 . S
C331 C333 1.415 . S
C332 C331 1.355 . S
C332 C334 1.419 . S
C333 C328 1.425 1_554 S
C333 C330 1.409 1_554 S
C333 C331 1.415 . S
C334 H324 0.930 . S
C334 C332 1.419 . S
C334 C335 1.362 . S
C335 H325 0.930 . S
C335 C328 1.409 1_554 S
C335 C334 1.362 . S
H336 C342 0.930 . S
H337 C345 0.930 . S
H338 C346 0.930 . S
H339 C347 0.930 . S
H340 C350 0.930 . S
H341 C351 0.930 . S
C342 H336 0.930 . S
C342 C343 1.355 . S
C342 C344 1.415 . S
C343 C342 1.355 . S
C343 C345 1.419 . S
C344 C342 1.415 . S
C344 C349 1.425 1_554 S
C344 C351 1.409 1_554 S
C345 H337 0.930 . S
C345 C343 1.419 . S
C345 C346 1.362 . S
C346 H338 0.930 . S
C346 C345 1.362 . S
C346 C349 1.409 1_554 S
C347 H339 0.930 . S
C347 C348 1.355 . S
C347 C349 1.415 . S
C348 C347 1.355 . S
C348 C350 1.419 . S
C349 C344 1.425 1_556 S
C349 C346 1.409 1_556 S
C349 C347 1.415 . S
C350 H340 0.930 . S
C350 C348 1.419 . S
C350 C351 1.362 . S
C351 H341 0.930 . S
C351 C344 1.409 1_556 S
C351 C350 1.362 . S
H352 C358 0.930 . S
H353 C361 0.930 . S
H354 C362 0.930 . S
H355 C363 0.930 . S
H356 C366 0.930 . S
H357 C367 0.930 . S
C358 H352 0.930 . S
C358 C359 1.355 1_545 S
C358 C360 1.415 . S
C359 C358 1.355 1_565 S
C359 C361 1.419 . S
C360 C358 1.415 . S
C360 C365 1.425 1_545 S
C360 C367 1.409 . S
C361 H353 0.930 . S
C361 C359 1.419 . S
C361 C362 1.362 . S
C362 H354 0.930 . S
C362 C361 1.362 . S
C362 C365 1.409 . S
C363 H355 0.930 . S
C363 C364 1.355 1_565 S
C363 C365 1.415 . S
C364 C363 1.355 1_545 S
C364 C366 1.419 . S
C365 C360 1.425 1_565 S
C365 C362 1.409 . S
C365 C363 1.415 . S
C366 H356 0.930 . S
C366 C364 1.419 . S
C366 C367 1.362 . S
C367 H357 0.930 . S
C367 C360 1.409 . S
C367 C366 1.362 . S
H368 C374 0.930 . S
H369 C377 0.930 . S
H370 C378 0.930 . S
H371 C379 0.930 . S
H372 C382 0.930 . S
H373 C383 0.930 . S
C374 H368 0.930 . S
C374 C375 1.355 . S
C374 C376 1.415 . S
C375 C374 1.355 . S
C375 C377 1.419 1_565 S
C376 C374 1.415 . S
C376 C381 1.425 1_565 S
C376 C383 1.409 . S
C377 H369 0.930 . S
C377 C375 1.419 1_545 S
C377 C378 1.362 . S
C378 H370 0.930 . S
C378 C377 1.362 . S
C378 C381 1.409 . S
C379 H371 0.930 . S
C379 C380 1.355 . S
C379 C381 1.415 . S
C380 C379 1.355 . S
C380 C382 1.419 1_545 S
C381 C376 1.425 1_545 S
C381 C378 1.409 . S
C381 C379 1.415 . S
C382 H372 0.930 . S
C382 C380 1.419 1_565 S
C382 C383 1.362 . S
C383 H373 0.930 . S
C383 C376 1.409 . S
C383 C382 1.362 . S
H384 C390 0.930 . S
H385 C393 0.930 . S
H386 C394 0.930 . S
H387 C395 0.930 . S
H388 C398 0.930 . S
H389 C399 0.930 . S
C390 H384 0.930 . S
C390 C391 1.355 . S
C390 C392 1.415 . S
C391 C390 1.355 . S
C391 C393 1.419 . S
C392 C390 1.415 . S
C392 C397 1.425 1_565 S
C392 C399 1.409 1_565 S
C393 H385 0.930 . S
C393 C391 1.419 . S
C393 C394 1.362 . S
C394 H386 0.930 . S
C394 C393 1.362 . S
C394 C397 1.409 1_565 S
C395 H387 0.930 . S
C395 C396 1.355 . S
C395 C397 1.415 . S
C396 C395 1.355 . S
C396 C398 1.419 . S
C397 C392 1.425 1_545 S
C397 C394 1.409 1_545 S
C397 C395 1.415 . S
C398 H388 0.930 . S
C398 C396 1.419 . S
C398 C399 1.362 . S
C399 H389 0.930 . S
C399 C392 1.409 1_545 S
C399 C398 1.362 . S
H400 C406 0.930 . S
H401 C409 0.930 . S
H402 C410 0.930 . S
H403 C411 0.930 . S
H404 C414 0.930 . S
H405 C415 0.930 . S
C406 H400 0.930 . S
C406 C407 1.355 1_565 S
C406 C408 1.415 . S
C407 C406 1.355 1_545 S
C407 C409 1.419 . S
C408 C406 1.415 . S
C408 C413 1.425 1_565 S
C408 C415 1.409 . S
C409 H401 0.930 . S
C409 C407 1.419 . S
C409 C410 1.362 . S
C410 H402 0.930 . S
C410 C409 1.362 . S
C410 C413 1.409 . S
C411 H403 0.930 . S
C411 C412 1.355 1_545 S
C411 C413 1.415 . S
C412 C411 1.355 1_565 S
C412 C414 1.419 . S
C413 C408 1.425 1_545 S
C413 C410 1.409 . S
C413 C411 1.415 . S
C414 H404 0.930 . S
C414 C412 1.419 . S
C414 C415 1.362 . S
C415 H405 0.930 . S
C415 C408 1.409 . S
C415 C414 1.362 . S
H416 C422 0.930 . S
H417 C425 0.930 . S
H418 C426 0.930 . S
H419 C427 0.930 . S
H420 C430 0.930 . S
H421 C431 0.930 . S
C422 H416 0.930 . S
C422 C423 1.355 . S
C422 C424 1.415 . S
C423 C422 1.355 . S
C423 C425 1.419 . S
C424 C422 1.415 . S
C424 C429 1.425 1_655 S
C424 C431 1.409 1_655 S
C425 H417 0.930 . S
C425 C423 1.419 . S
C425 C426 1.362 . S
C426 H418 0.930 . S
C426 C425 1.362 . S
C426 C429 1.409 1_655 S
C427 H419 0.930 . S
C427 C428 1.355 . S
C427 C429 1.415 . S
C428 C427 1.355 . S
C428 C430 1.419 . S
C429 C424 1.425 1_455 S
C429 C426 1.409 1_455 S
C429 C427 1.415 . S
C430 H420 0.930 . S
C430 C428 1.419 . S
C430 C431 1.362 . S
C431 H421 0.930 . S
C431 C424 1.409 1_455 S
C431 C430 1.362 . S
H432 C438 0.930 . S
H433 C441 0.930 . S
H434 C442 0.930 1_655 S
H435 C443 0.930 . S
H436 C446 0.930 . S
H437 C447 0.930 1_455 S
C438 H432 0.930 . S
C438 C439 1.355 . S
C438 C440 1.415 . S
C439 C438 1.355 . S
C439 C441 1.419 . S
C440 C438 1.415 . S
C440 C445 1.425 1_455 S
C440 C447 1.409 1_455 S
C441 H433 0.930 . S
C441 C439 1.419 . S
C441 C442 1.362 . S
C442 H434 0.930 1_455 S
C442 C441 1.362 . S
C442 C445 1.409 1_455 S
C443 H435 0.930 . S
C443 C444 1.355 . S
C443 C445 1.415 . S
C444 C443 1.355 . S
C444 C446 1.419 . S
C445 C440 1.425 1_655 S
C445 C442 1.409 1_655 S
C445 C443 1.415 . S
C446 H436 0.930 . S
C446 C444 1.419 . S
C446 C447 1.362 . S
C447 H437 0.930 1_655 S
C447 C440 1.409 1_655 S
C447 C446 1.362 . S
H448 C454 0.930 . S
H449 C457 0.930 . S
H450 C458 0.930 . S
H451 C459 0.930 . S
H452 C462 0.930 . S
H453 C463 0.930 . S
C454 H448 0.930 . S
C454 C455 1.355 . S
C454 C456 1.415 . S
C455 C454 1.355 . S
C455 C457 1.419 . S
C456 C454 1.415 . S
C456 C461 1.425 1_655 S
C456 C463 1.409 1_655 S
C457 H449 0.930 . S
C457 C455 1.419 . S
C457 C458 1.362 . S
C458 H450 0.930 . S
C458 C457 1.362 . S
C458 C461 1.409 1_655 S
C459 H451 0.930 . S
C459 C460 1.355 . S
C459 C461 1.415 . S
C460 C459 1.355 . S
C460 C462 1.419 . S
C461 C456 1.425 1_455 S
C461 C458 1.409 1_455 S
C461 C459 1.415 . S
C462 H452 0.930 . S
C462 C460 1.419 . S
C462 C463 1.362 . S
C463 H453 0.930 . S
C463 C456 1.409 1_455 S
C463 C462 1.362 . S
H464 C470 0.930 . S
H465 C473 0.930 . S
H466 C474 0.930 . S
H467 C475 0.930 . S
H468 C478 0.930 . S
H469 C479 0.930 . S
C470 H464 0.930 . S
C470 C471 1.355 . S
C470 C472 1.415 . S
C471 C470 1.355 . S
C471 C473 1.419 . S
C472 C470 1.415 . S
C472 C477 1.425 1_455 S
C472 C479 1.409 1_455 S
C473 H465 0.930 . S
C473 C471 1.419 . S
C473 C474 1.362 . S
C474 H466 0.930 . S
C474 C473 1.362 . S
C474 C477 1.409 1_455 S
C475 H467 0.930 . S
C475 C476 1.355 . S
C475 C477 1.415 . S
C476 C475 1.355 . S
C476 C478 1.419 . S
C477 C472 1.425 1_655 S
C477 C474 1.409 1_655 S
C477 C475 1.415 . S
C478 H468 0.930 . S
C478 C476 1.419 . S
C478 C479 1.362 . S
C479 H469 0.930 . S
C479 C472 1.409 1_655 S
C479 C478 1.362 . S
H480 C486 0.930 . S
H481 C489 0.930 . S
H482 C490 0.930 . S
H483 C491 0.930 . S
H484 C494 0.930 . S
H485 C495 0.930 . S
C486 H480 0.930 . S
C486 C487 1.355 . S
C486 C488 1.415 . S
C487 C486 1.355 . S
C487 C489 1.419 . S
C488 C486 1.415 . S
C488 C493 1.425 . S
C488 C495 1.409 . S
C489 H481 0.930 . S
C489 C487 1.419 . S
C489 C490 1.362 . S
C490 H482 0.930 . S
C490 C489 1.362 . S
C490 C493 1.409 . S
C491 H483 0.930 . S
C491 C492 1.355 . S
C491 C493 1.415 . S
C492 C491 1.355 . S
C492 C494 1.419 . S
C493 C488 1.425 . S
C493 C490 1.409 . S
C493 C491 1.415 . S
C494 H484 0.930 . S
C494 C492 1.419 . S
C494 C495 1.362 . S
C495 H485 0.930 . S
C495 C488 1.409 . S
C495 C494 1.362 . S
H496 C502 0.930 . S
H497 C505 0.930 . S
H498 C506 0.930 . S
H499 C507 0.930 . S
H500 C510 0.930 . S
H501 C511 0.930 . S
C502 H496 0.930 . S
C502 C503 1.355 . S
C502 C504 1.415 . S
C503 C502 1.355 . S
C503 C505 1.419 . S
C504 C502 1.415 . S
C504 C509 1.425 . S
C504 C511 1.409 . S
C505 H497 0.930 . S
C505 C503 1.419 . S
C505 C506 1.362 . S
C506 H498 0.930 . S
C506 C505 1.362 . S
C506 C509 1.409 . S
C507 H499 0.930 . S
C507 C508 1.355 . S
C507 C509 1.415 . S
C508 C507 1.355 . S
C508 C510 1.419 . S
C509 C504 1.425 . S
C509 C506 1.409 . S
C509 C507 1.415 . S
C510 H500 0.930 . S
C510 C508 1.419 . S
C510 C511 1.362 . S
C511 H501 0.930 . S
C511 C504 1.409 . S
C511 C510 1.362 . S
H512 C518 0.930 . S
H513 C521 0.930 . S
H514 C522 0.930 . S
H515 C523 0.930 . S
H516 C526 0.930 . S
H517 C527 0.930 . S
C518 H512 0.930 . S
C518 C519 1.355 . S
C518 C520 1.415 . S
C519 C518 1.355 . S
C519 C521 1.419 . S
C520 C518 1.415 . S
C520 C525 1.425 . S
C520 C527 1.409 . S
C521 H513 0.930 . S
C521 C519 1.419 . S
C521 C522 1.362 . S
C522 H514 0.930 . S
C522 C521 1.362 . S
C522 C525 1.409 . S
C523 H515 0.930 . S
C523 C524 1.355 . S
C523 C525 1.415 . S
C524 C523 1.355 . S
C524 C526 1.419 . S
C525 C520 1.425 . S
C525 C522 1.409 . S
C525 C523 1.415 . S
C526 H516 0.930 . S
C526 C524 1.419 . S
C526 C527 1.362 . S
C527 H517 0.930 . S
C527 C520 1.409 . S
C527 C526 1.362 . S
H528 C534 0.930 . S
H529 C537 0.930 . S
H530 C538 0.930 . S
H531 C539 0.930 . S
H532 C542 0.930 . S
H533 C543 0.930 . S
C534 H528 0.930 . S
C534 C535 1.355 . S
C534 C536 1.415 . S
C535 C534 1.355 . S
C535 C537 1.419 . S
C536 C534 1.415 . S
C536 C541 1.425 . S
C536 C543 1.409 . S
C537 H529 0.930 . S
C537 C535 1.419 . S
C537 C538 1.362 . S
C538 H530 0.930 . S
C538 C537 1.362 . S
C538 C541 1.409 . S
C539 H531 0.930 . S
C539 C540 1.355 . S
C539 C541 1.415 . S
C540 C539 1.355 . S
C540 C542 1.419 . S
C541 C536 1.425 . S
C541 C538 1.409 . S
C541 C539 1.415 . S
C542 H532 0.930 . S
C542 C540 1.419 . S
C542 C543 1.362 . S
C543 H533 0.930 . S
C543 C536 1.409 . S
C543 C542 1.362 . S
H544 C550 0.930 . S
H545 C553 0.930 . S
H546 C554 0.930 . S
H547 C555 0.930 . S
H548 C558 0.930 . S
H549 C559 0.930 . S
C550 H544 0.930 . S
C550 C551 1.355 . S
C550 C552 1.415 . S
C551 C550 1.355 . S
C551 C553 1.419 . S
C552 C550 1.415 . S
C552 C557 1.425 . S
C552 C559 1.409 . S
C553 H545 0.930 . S
C553 C551 1.419 . S
C553 C554 1.362 . S
C554 H546 0.930 . S
C554 C553 1.362 . S
C554 C557 1.409 . S
C555 H547 0.930 . S
C555 C556 1.355 . S
C555 C557 1.415 . S
C556 C555 1.355 . S
C556 C558 1.419 . S
C557 C552 1.425 . S
C557 C554 1.409 . S
C557 C555 1.415 . S
C558 H548 0.930 . S
C558 C556 1.419 . S
C558 C559 1.362 . S
C559 H549 0.930 . S
C559 C552 1.409 . S
C559 C558 1.362 . S
H560 C566 0.930 . S
H561 C569 0.930 . S
H562 C570 0.930 . S
H563 C571 0.930 . S
H564 C574 0.930 . S
H565 C575 0.930 . S
C566 H560 0.930 . S
C566 C567 1.355 . S
C566 C568 1.415 . S
C567 C566 1.355 . S
C567 C569 1.419 . S
C568 C566 1.415 . S
C568 C573 1.425 . S
C568 C575 1.409 . S
C569 H561 0.930 . S
C569 C567 1.419 . S
C569 C570 1.362 . S
C570 H562 0.930 . S
C570 C569 1.362 . S
C570 C573 1.409 . S
C571 H563 0.930 . S
C571 C572 1.355 . S
C571 C573 1.415 . S
C572 C571 1.355 . S
C572 C574 1.419 . S
C573 C568 1.425 . S
C573 C570 1.409 . S
C573 C571 1.415 . S
C574 H564 0.930 . S
C574 C572 1.419 . S
C574 C575 1.362 . S
C575 H565 0.930 . S
C575 C568 1.409 . S
C575 C574 1.362 . S
H576 C582 0.930 . S
H577 C585 0.930 . S
H578 C586 0.930 . S
H579 C587 0.930 . S
H580 C590 0.930 . S
H581 C591 0.930 . S
C582 H576 0.930 . S
C582 C583 1.355 . S
C582 C584 1.415 . S
C583 C582 1.355 . S
C583 C585 1.419 . S
C584 C582 1.415 . S
C584 C589 1.425 . S
C584 C591 1.409 . S
C585 H577 0.930 . S
C585 C583 1.419 . S
C585 C586 1.362 . S
C586 H578 0.930 . S
C586 C585 1.362 . S
C586 C589 1.409 . S
C587 H579 0.930 . S
C587 C588 1.355 . S
C587 C589 1.415 . S
C588 C587 1.355 . S
C588 C590 1.419 . S
C589 C584 1.425 . S
C589 C586 1.409 . S
C589 C587 1.415 . S
C590 H580 0.930 . S
C590 C588 1.419 . S
C590 C591 1.362 . S
C591 H581 0.930 . S
C591 C584 1.409 . S
C591 C590 1.362 . S
H592 C598 0.930 . S
H593 C601 0.930 . S
H594 C602 0.930 . S
H595 C603 0.930 . S
H596 C606 0.930 . S
H597 C607 0.930 . S
C598 H592 0.930 . S
C598 C599 1.355 . S
C598 C600 1.415 . S
C599 C598 1.355 . S
C599 C601 1.419 . S
C600 C598 1.415 . S
C600 C605 1.425 . S
C600 C607 1.409 . S
C601 H593 0.930 . S
C601 C599 1.419 . S
C601 C602 1.362 . S
C602 H594 0.930 . S
C602 C601 1.362 . S
C602 C605 1.409 . S
C603 H595 0.930 . S
C603 C604 1.355 . S
C603 C605 1.415 . S
C604 C603 1.355 . S
C604 C606 1.419 . S
C605 C600 1.425 . S
C605 C602 1.409 . S
C605 C603 1.415 . S
C606 H596 0.930 . S
C606 C604 1.419 . S
C606 C607 1.362 . S
C607 H597 0.930 . S
C607 C600 1.409 . S
C607 C606 1.362 . S
H608 C614 0.930 . S
H609 C617 0.930 . S
H610 C618 0.930 . S
H611 C619 0.930 . S
H612 C622 0.930 . S
H613 C623 0.930 . S
C614 H608 0.930 . S
C614 C615 1.355 1_545 S
C614 C616 1.415 . S
C615 C614 1.355 1_565 S
C615 C617 1.419 . S
C616 C614 1.415 . S
C616 C621 1.425 1_545 S
C616 C623 1.409 . S
C617 H609 0.930 . S
C617 C615 1.419 . S
C617 C618 1.362 . S
C618 H610 0.930 . S
C618 C617 1.362 . S
C618 C621 1.409 . S
C619 H611 0.930 . S
C619 C620 1.355 1_565 S
C619 C621 1.415 . S
C620 C619 1.355 1_545 S
C620 C622 1.419 . S
C621 C616 1.425 1_565 S
C621 C618 1.409 . S
C621 C619 1.415 . S
C622 H612 0.930 . S
C622 C620 1.419 . S
C622 C623 1.362 . S
C623 H613 0.930 . S
C623 C616 1.409 . S
C623 C622 1.362 . S
H624 C630 0.930 . S
H625 C633 0.930 . S
H626 C634 0.930 . S
H627 C635 0.930 . S
H628 C638 0.930 . S
H629 C639 0.930 . S
C630 H624 0.930 . S
C630 C631 1.355 1_565 S
C630 C632 1.415 . S
C631 C630 1.355 1_545 S
C631 C633 1.419 . S
C632 C630 1.415 . S
C632 C637 1.425 1_565 S
C632 C639 1.409 . S
C633 H625 0.930 . S
C633 C631 1.419 . S
C633 C634 1.362 . S
C634 H626 0.930 . S
C634 C633 1.362 . S
C634 C637 1.409 . S
C635 H627 0.930 . S
C635 C636 1.355 1_545 S
C635 C637 1.415 . S
C636 C635 1.355 1_565 S
C636 C638 1.419 . S
C637 C632 1.425 1_545 S
C637 C634 1.409 . S
C637 C635 1.415 . S
C638 H628 0.930 . S
C638 C636 1.419 . S
C638 C639 1.362 . S
C639 H629 0.930 . S
C639 C632 1.409 . S
C639 C638 1.362 . S
H640 C646 0.930 . S
H641 C649 0.930 . S
H642 C650 0.930 . S
H643 C651 0.930 . S
H644 C654 0.930 . S
H645 C655 0.930 . S
C646 H640 0.930 . S
C646 C647 1.355 1_545 S
C646 C648 1.415 . S
C647 C646 1.355 1_565 S
C647 C649 1.419 . S
C648 C646 1.415 . S
C648 C653 1.425 1_545 S
C648 C655 1.409 . S
C649 H641 0.930 . S
C649 C647 1.419 . S
C649 C650 1.362 . S
C650 H642 0.930 . S
C650 C649 1.362 . S
C650 C653 1.409 . S
C651 H643 0.930 . S
C651 C652 1.355 1_565 S
C651 C653 1.415 . S
C652 C651 1.355 1_545 S
C652 C654 1.419 . S
C653 C648 1.425 1_565 S
C653 C650 1.409 . S
C653 C651 1.415 . S
C654 H644 0.930 . S
C654 C652 1.419 . S
C654 C655 1.362 . S
C655 H645 0.930 . S
C655 C648 1.409 . S
C655 C654 1.362 . S
H656 C662 0.930 . S
H657 C665 0.930 . S
H658 C666 0.930 . S
H659 C667 0.930 . S
H660 C670 0.930 . S
H661 C671 0.930 . S
C662 H656 0.930 . S
C662 C663 1.355 1_545 S
C662 C664 1.415 . S
C663 C662 1.355 1_565 S
C663 C665 1.419 . S
C664 C662 1.415 . S
C664 C669 1.425 1_545 S
C664 C671 1.409 . S
C665 H657 0.930 . S
C665 C663 1.419 . S
C665 C666 1.362 . S
C666 H658 0.930 . S
C666 C665 1.362 . S
C666 C669 1.409 . S
C667 H659 0.930 . S
C667 C668 1.355 1_565 S
C667 C669 1.415 . S
C668 C667 1.355 1_545 S
C668 C670 1.419 . S
C669 C664 1.425 1_565 S
C669 C666 1.409 . S
C669 C667 1.415 . S
C670 H660 0.930 . S
C670 C668 1.419 . S
C670 C671 1.362 . S
C671 H661 0.930 . S
C671 C664 1.409 . S
C671 C670 1.362 . S
H672 C678 0.930 . S
H673 C681 0.930 . S
H674 C682 0.930 . S
H675 C683 0.930 . S
H676 C686 0.930 . S
H677 C687 0.930 . S
C678 H672 0.930 . S
C678 C679 1.355 . S
C678 C680 1.415 . S
C679 C678 1.355 . S
C679 C681 1.419 . S
C680 C678 1.415 . S
C680 C685 1.425 . S
C680 C687 1.409 . S
C681 H673 0.930 . S
C681 C679 1.419 . S
C681 C682 1.362 . S
C682 H674 0.930 . S
C682 C681 1.362 . S
C682 C685 1.409 . S
C683 H675 0.930 . S
C683 C684 1.355 . S
C683 C685 1.415 . S
C684 C683 1.355 . S
C684 C686 1.419 . S
C685 C680 1.425 . S
C685 C682 1.409 . S
C685 C683 1.415 . S
C686 H676 0.930 . S
C686 C684 1.419 . S
C686 C687 1.362 . S
C687 H677 0.930 . S
C687 C680 1.409 . S
C687 C686 1.362 . S
H688 C694 0.930 . S
H689 C697 0.930 . S
H690 C698 0.930 . S
H691 C699 0.930 . S
H692 C702 0.930 . S
H693 C703 0.930 . S
C694 H688 0.930 . S
C694 C695 1.355 . S
C694 C696 1.415 . S
C695 C694 1.355 . S
C695 C697 1.419 . S
C696 C694 1.415 . S
C696 C701 1.425 . S
C696 C703 1.409 . S
C697 H689 0.930 . S
C697 C695 1.419 . S
C697 C698 1.362 . S
C698 H690 0.930 . S
C698 C697 1.362 . S
C698 C701 1.409 . S
C699 H691 0.930 . S
C699 C700 1.355 . S
C699 C701 1.415 . S
C700 C699 1.355 . S
C700 C702 1.419 . S
C701 C696 1.425 . S
C701 C698 1.409 . S
C701 C699 1.415 . S
C702 H692 0.930 . S
C702 C700 1.419 . S
C702 C703 1.362 . S
C703 H693 0.930 . S
C703 C696 1.409 . S
C703 C702 1.362 . S
H704 C710 0.930 . S
H705 C713 0.930 . S
H706 C714 0.930 . S
H707 C715 0.930 . S
H708 C718 0.930 . S
H709 C719 0.930 . S
C710 H704 0.930 . S
C710 C711 1.355 . S
C710 C712 1.415 . S
C711 C710 1.355 . S
C711 C713 1.419 . S
C712 C710 1.415 . S
C712 C717 1.425 . S
C712 C719 1.409 . S
C713 H705 0.930 . S
C713 C711 1.419 . S
C713 C714 1.362 . S
C714 H706 0.930 . S
C714 C713 1.362 . S
C714 C717 1.409 . S
C715 H707 0.930 . S
C715 C716 1.355 . S
C715 C717 1.415 . S
C716 C715 1.355 . S
C716 C718 1.419 . S
C717 C712 1.425 . S
C717 C714 1.409 . S
C717 C715 1.415 . S
C718 H708 0.930 . S
C718 C716 1.419 . S
C718 C719 1.362 . S
C719 H709 0.930 . S
C719 C712 1.409 . S
C719 C718 1.362 . S
H720 C726 0.930 . S
H721 C729 0.930 . S
H722 C730 0.930 . S
H723 C731 0.930 . S
H724 C734 0.930 . S
H725 C735 0.930 . S
C726 H720 0.930 . S
C726 C727 1.355 . S
C726 C728 1.415 . S
C727 C726 1.355 . S
C727 C729 1.419 . S
C728 C726 1.415 . S
C728 C733 1.425 . S
C728 C735 1.409 . S
C729 H721 0.930 . S
C729 C727 1.419 . S
C729 C730 1.362 . S
C730 H722 0.930 . S
C730 C729 1.362 . S
C730 C733 1.409 . S
C731 H723 0.930 . S
C731 C732 1.355 . S
C731 C733 1.415 . S
C732 C731 1.355 . S
C732 C734 1.419 . S
C733 C728 1.425 . S
C733 C730 1.409 . S
C733 C731 1.415 . S
C734 H724 0.930 . S
C734 C732 1.419 . S
C734 C735 1.362 . S
C735 H725 0.930 . S
C735 C728 1.409 . S
C735 C734 1.362 . S
C231 C7 1.320 . S
C236 C77 1.290 . S
C247 C63 1.313 . S
C252 C21 1.297 . S
C263 C35 1.282 . S
C268 C105 1.327 . S
C279 C91 1.284 . S
C284 C49 1.325 . S
C295 C189 1.286 . S
C300 C119 1.323 . S
C311 C175 1.284 . S
C316 C133 1.326 . S
C327 C217 1.280 . S
C332 C147 1.329 . S
C343 C161 1.279 . S
C348 C203 1.330 . S
C359 C23 1.497 . S
C364 C9 1.497 . S
C375 C37 1.469 . S
C380 C51 1.471 . S
C391 C65 1.473 . S
C396 C79 1.474 . S
C407 C93 1.501 . S
C412 C107 1.501 . S
C423 C121 1.462 . S
C428 C135 1.463 . S
C439 C163 1.500 . S
C444 C149 1.499 . S
C455 C191 1.466 . S
C460 C177 1.467 . S
C471 C205 1.489 . S
C476 C219 1.488 . S
C487 C134 1.511 . S
C492 C8 1.509 . S
C503 C22 1.513 . S
C508 C120 1.511 . S
C519 C162 1.503 . S
C524 C36 1.503 . S
C535 C50 1.503 . S
C540 C148 1.504 . S
C551 C64 1.510 . S
C556 C190 1.513 . S
C567 C176 1.516 . S
C572 C78 1.516 . S
C583 C92 1.503 . S
C588 C218 1.503 . S
C599 C204 1.509 . S
C604 C106 1.512 . S
C615 C3 1.357 1_565 S
C620 C31 1.329 1_545 S
C631 C45 1.263 . S
C636 C17 1.283 . S
C647 C87 1.335 1_565 S
C652 C59 1.358 1_545 S
C663 C101 1.264 . S
C668 C73 1.290 . S
C679 C143 1.359 . S
C684 C115 1.343 . S
C695 C129 1.284 . S
C700 C157 1.325 . S
C711 C199 1.263 . S
C716 C171 1.286 . S
C727 C185 1.314 . S
C732 C213 1.350 . S
