# Generated by pormake.
# Topology wfy, (7)-cn, num edge types: 1
# Building blocks:
#     Node 0, Type 0, BuildingBlock: HICVOG_clean_sbu_0, # of connection points: 7
#     Node 1, Type 0, BuildingBlock: HICVOG_clean_sbu_0, # of connection points: 7
#     Node 2, Type 0, BuildingBlock: HICVOG_clean_sbu_0, # of connection points: 7
#     Node 3, Type 0, BuildingBlock: HICVOG_clean_sbu_0, # of connection points: 7
#     Node 4, Type 0, BuildingBlock: HICVOG_clean_sbu_0, # of connection points: 7
#     Node 5, Type 0, BuildingBlock: HICVOG_clean_sbu_0, # of connection points: 7
#     Node 6, Type 0, BuildingBlock: HICVOG_clean_sbu_0, # of connection points: 7
#     Node 7, Type 0, BuildingBlock: HICVOG_clean_sbu_0, # of connection points: 7
#     Edge 8, Type (0, 0), BuildingBlock: KIFKEQ_clean_linker_1, # of connection points: 2
#     Edge 9, Type (0, 0), BuildingBlock: KIFKEQ_clean_linker_1, # of connection points: 2
#     Edge 10, Type (0, 0), BuildingBlock: KIFKEQ_clean_linker_1, # of connection points: 2
#     Edge 11, Type (0, 0), BuildingBlock: KIFKEQ_clean_linker_1, # of connection points: 2
#     Edge 12, Type (0, 0), BuildingBlock: KIFKEQ_clean_linker_1, # of connection points: 2
#     Edge 13, Type (0, 0), BuildingBlock: KIFKEQ_clean_linker_1, # of connection points: 2
#     Edge 14, Type (0, 0), BuildingBlock: KIFKEQ_clean_linker_1, # of connection points: 2
#     Edge 15, Type (0, 0), BuildingBlock: KIFKEQ_clean_linker_1, # of connection points: 2
#     Edge 16, Type (0, 0), BuildingBlock: KIFKEQ_clean_linker_1, # of connection points: 2
#     Edge 17, Type (0, 0), BuildingBlock: KIFKEQ_clean_linker_1, # of connection points: 2
#     Edge 18, Type (0, 0), BuildingBlock: KIFKEQ_clean_linker_1, # of connection points: 2
#     Edge 19, Type (0, 0), BuildingBlock: KIFKEQ_clean_linker_1, # of connection points: 2
#     Edge 20, Type (0, 0), BuildingBlock: KIFKEQ_clean_linker_1, # of connection points: 2
#     Edge 21, Type (0, 0), BuildingBlock: KIFKEQ_clean_linker_1, # of connection points: 2
#     Edge 22, Type (0, 0), BuildingBlock: KIFKEQ_clean_linker_1, # of connection points: 2
#     Edge 23, Type (0, 0), BuildingBlock: KIFKEQ_clean_linker_1, # of connection points: 2
#     Edge 24, Type (0, 0), BuildingBlock: KIFKEQ_clean_linker_1, # of connection points: 2
#     Edge 25, Type (0, 0), BuildingBlock: KIFKEQ_clean_linker_1, # of connection points: 2
#     Edge 26, Type (0, 0), BuildingBlock: KIFKEQ_clean_linker_1, # of connection points: 2
#     Edge 27, Type (0, 0), BuildingBlock: KIFKEQ_clean_linker_1, # of connection points: 2
#     Edge 28, Type (0, 0), BuildingBlock: KIFKEQ_clean_linker_1, # of connection points: 2
#     Edge 29, Type (0, 0), BuildingBlock: KIFKEQ_clean_linker_1, # of connection points: 2
#     Edge 30, Type (0, 0), BuildingBlock: KIFKEQ_clean_linker_1, # of connection points: 2
#     Edge 31, Type (0, 0), BuildingBlock: KIFKEQ_clean_linker_1, # of connection points: 2
#     Edge 32, Type (0, 0), BuildingBlock: KIFKEQ_clean_linker_1, # of connection points: 2
#     Edge 33, Type (0, 0), BuildingBlock: KIFKEQ_clean_linker_1, # of connection points: 2
#     Edge 34, Type (0, 0), BuildingBlock: KIFKEQ_clean_linker_1, # of connection points: 2
#     Edge 35, Type (0, 0), BuildingBlock: KIFKEQ_clean_linker_1, # of connection points: 2
# Relax obj value: 0.129
# Max RMSD: 0.240
# Mean RMSD: 0.240
data_MOF--net-wfy--node1-HICVOG_clean_sbu_0--edge1-KIFKEQ_clean_linker_1
_symmetry_space_group_name_H-M    P1
_symmetry_Int_Tables_number       1
_symmetry_cell_setting            triclinic
loop_
_symmetry_equiv_pos_as_xyz
'x, y, z'
_cell_length_a     39.058516
_cell_length_b     39.0498
_cell_length_c     25.013578
_cell_angle_alpha  90.05148
_cell_angle_beta   89.949334
_cell_angle_gamma 90.053073
loop_
_atom_site_label
_atom_site_type_symbol
_atom_site_fract_x
_atom_site_fract_y
_atom_site_fract_z
_atom_type_partial_charge
Zn0 Zn 0.3303 0.09312 0.07473 0.0
C1 C 0.30271 0.19152 0.06537 0.0
N2 N 0.33615 0.19687 0.07581 0.0
C3 C 0.34962 0.16536 0.07352 0.0
N4 N 0.32562 0.1416 0.06276 0.0
N5 N 0.29624 0.15792 0.05604 0.0
C6 C 0.19419 0.15838 0.03538 0.0
O7 O 0.1992 0.13179 0.06657 0.0
O8 O 0.37953 0.07717 0.06267 0.0
Zn9 Zn 0.26342 0.14163 1.00279 0.0
N10 N 0.31816 0.08526 0.14845 0.0
C11 C 0.28278 0.09775 0.22317 0.0
C12 C 0.29149 0.10287 0.16982 0.0
C13 C 0.3364 0.06252 0.17797 0.0
N14 N 0.30069 0.07472 0.25256 0.0
C15 C 0.32735 0.05659 0.23165 0.0
O16 O 0.25153 0.09019 1.00615 0.0
C17 C 0.26808 0.06248 0.01431 0.0
O18 O 0.29799 0.06265 0.03432 0.0
H19 H 0.2772 0.12075 0.14562 0.0
H20 H 0.35781 0.04982 0.1594 0.0
C21 C 0.27714 0.17159 0.89578 0.0
C22 C 0.29805 0.1758 0.84999 0.0
C23 C 0.33614 0.13374 0.88401 0.0
C24 C 0.31548 0.12964 0.92887 0.0
N25 N 0.28657 0.14867 0.93431 0.0
N26 N 0.32706 0.15668 0.84594 0.0
H27 H 0.25429 0.18683 0.90139 0.0
C28 C 0.38558 0.04581 0.0524 0.0
O29 O 0.3597 0.0245 0.04811 0.0
O30 O 0.21856 0.16837 1.00523 0.0
H31 H 0.32271 0.11175 0.95981 0.0
H32 H 0.26172 0.11166 0.24099 0.0
H33 H 0.35936 0.11893 0.87956 0.0
Zn34 Zn 0.14107 0.75851 0.02283 0.0
C35 C 0.16406 0.67108 0.95441 0.0
N36 N 0.19583 0.68408 0.95416 0.0
C37 C 0.19092 0.71769 0.96335 0.0
N38 N 0.15724 0.72466 0.97073 0.0
N39 N 0.14037 0.69555 0.96322 0.0
C40 C 0.07693 0.6232 0.98672 0.0
O41 O 0.1016 0.62824 0.02151 0.0
O42 O 0.16849 0.80313 0.01951 0.0
Zn43 Zn 0.09232 0.69353 0.94362 0.0
N44 N 0.14635 0.73625 0.09252 0.0
C45 C 0.1233 0.69178 0.14671 0.0
C46 C 0.12329 0.71059 0.09958 0.0
C47 C 0.1701 0.74367 0.13105 0.0
N48 N 0.1465 0.69927 0.18523 0.0
C49 C 0.17019 0.7246 0.17929 0.0
O50 O 0.06226 0.72736 0.98077 0.0
C51 C 0.06204 0.75606 1.00473 0.0
O52 O 0.08978 0.77114 0.01812 0.0
H53 H 0.10497 0.70477 0.06849 0.0
H54 H 0.18811 0.76431 0.12453 0.0
C55 C 0.06487 0.69255 0.83711 0.0
C56 C 0.06372 0.7013 0.78257 0.0
C57 C 0.11229 0.73711 0.79491 0.0
C58 C 0.11326 0.72833 0.8488 0.0
N59 N 0.08966 0.70619 0.8688 0.0
N60 N 0.08758 0.72354 0.76322 0.0
H61 H 0.04609 0.6756 0.85474 0.0
C62 C 0.15799 0.82744 0.98974 0.0
O63 O 0.1307 0.82239 0.96008 0.0
O64 O 0.07001 0.64643 0.95273 0.0
H65 H 0.13266 0.7391 0.87444 0.0
H66 H 0.10497 0.67136 0.15274 0.0
H67 H 0.13091 0.75469 0.7784 0.0
Zn68 Zn 0.69134 0.92813 0.09099 0.0
C69 C 0.71756 0.83122 0.07288 0.0
N70 N 0.68441 0.82649 0.0861 0.0
C71 C 0.67114 0.85802 0.08249 0.0
N72 N 0.69499 0.88122 0.06923 0.0
N73 N 0.72413 0.86459 0.06179 0.0
C74 C 0.82746 0.8654 0.04212 0.0
O75 O 0.82282 0.89224 0.07299 0.0
O76 O 0.64322 0.94709 0.08216 0.0
Zn77 Zn 0.75769 0.88157 1.01014 0.0
N78 N 0.70071 0.92912 0.16671 0.0
C79 C 0.72644 0.90516 0.24417 0.0
C80 C 0.72095 0.90481 0.18919 0.0
C81 C 0.68616 0.95417 0.19679 0.0
N82 N 0.71189 0.93015 0.2743 0.0
C83 C 0.69173 0.95489 0.25237 0.0
O84 O 0.76835 0.93334 0.01573 0.0
C85 C 0.75338 0.96069 0.03139 0.0
O86 O 0.72501 0.9598 0.05638 0.0
H87 H 0.73243 0.88512 0.16478 0.0
H88 H 0.67116 0.97359 0.17691 0.0
C89 C 0.74495 0.85166 0.90261 0.0
C90 C 0.72469 0.84808 0.85602 0.0
C91 C 0.68768 0.8917 0.88834 0.0
C92 C 0.70774 0.89521 0.93395 0.0
N93 N 0.73574 0.87507 0.94065 0.0
N94 N 0.69651 0.86828 0.85075 0.0
H95 H 0.7671 0.83558 0.90917 0.0
C96 C 0.62478 0.94644 0.04032 0.0
O97 O 0.63665 0.93172 0.99688 0.0
O98 O 0.8028 0.85522 1.01277 0.0
H99 H 0.70083 0.91354 0.96449 0.0
H100 H 0.74229 0.88586 0.26278 0.0
H101 H 0.66514 0.90739 0.88291 0.0
Zn102 Zn 0.92863 0.33028 0.94453 0.0
C103 C 0.83014 0.3051 0.96187 0.0
N104 N 0.82496 0.33876 0.95343 0.0
C105 C 0.85661 0.35203 0.95431 0.0
N106 N 0.88043 0.32768 0.96275 0.0
N107 N 0.86385 0.29834 0.96938 0.0
C108 C 0.86144 0.1959 0.99024 0.0
O109 O 0.88747 0.20035 0.95765 0.0
O110 O 0.95058 0.37745 0.95509 0.0
Zn111 Zn 0.88033 0.26483 0.02161 0.0
N112 N 0.93227 0.31849 0.86952 0.0
C113 C 0.91085 0.28977 0.79265 0.0
C114 C 0.90896 0.29702 0.8471 0.0
C115 C 0.9577 0.33276 0.83988 0.0
N116 N 0.93628 0.30395 0.76298 0.0
C117 C 0.96008 0.32521 0.78501 0.0
O118 O 0.93139 0.25162 0.01582 0.0
C119 C 0.95909 0.26712 1.00337 0.0
O120 O 0.95875 0.29627 0.98087 0.0
H121 H 0.88891 0.28587 0.87114 0.0
H122 H 0.97532 0.35024 0.85904 0.0
C123 C 0.85212 0.27994 0.1296 0.0
C124 C 0.85209 0.29879 0.17801 0.0
C125 C 0.89888 0.33179 0.14557 0.0
C126 C 0.89881 0.31318 0.09817 0.0
N127 N 0.87577 0.28751 0.09101 0.0
N128 N 0.87577 0.32411 0.18419 0.0
H129 H 0.83414 0.25928 0.12297 0.0
C130 C 0.94324 0.40097 0.98844 0.0
O131 O 0.918 0.39637 0.02241 0.0
O132 O 0.8525 0.22054 0.02063 0.0
H133 H 0.91708 0.31912 0.06701 0.0
H134 H 0.89234 0.27292 0.7741 0.0
H135 H 0.91721 0.3522 0.15172 0.0
Zn136 Zn 0.83004 0.59415 0.58758 0.0
C137 C 0.80479 0.69198 0.56979 0.0
N138 N 0.83835 0.69682 0.57994 0.0
C139 C 0.85129 0.66509 0.57804 0.0
N140 N 0.82694 0.64167 0.56803 0.0
N141 N 0.79779 0.65839 0.56114 0.0
C142 C 0.69556 0.6605 0.53896 0.0
O143 O 0.6999 0.63467 0.57189 0.0
O144 O 0.87759 0.57322 0.57822 0.0
Zn145 Zn 0.76493 0.64205 0.5078 0.0
N146 N 0.81911 0.5918 0.66272 0.0
C147 C 0.7901 0.6133 0.73931 0.0
C148 C 0.79718 0.61483 0.68477 0.0
C149 C 0.83392 0.56698 0.69277 0.0
N150 N 0.80461 0.58828 0.76932 0.0
C151 C 0.82623 0.56469 0.7476 0.0
O152 O 0.75286 0.59058 0.51203 0.0
C153 C 0.7677 0.56298 0.52667 0.0
O154 O 0.79611 0.56349 0.55147 0.0
H155 H 0.78553 0.63437 0.66037 0.0
H156 H 0.8516 0.54949 0.67381 0.0
C157 C 0.77911 0.67139 0.40086 0.0
C158 C 0.80001 0.67534 0.35503 0.0
C159 C 0.83781 0.63308 0.38928 0.0
C160 C 0.81708 0.62918 0.43413 0.0
N161 N 0.78835 0.64848 0.43948 0.0
N162 N 0.8289 0.65601 0.35108 0.0
H163 H 0.75638 0.68682 0.40642 0.0
C164 C 0.90035 0.5793 0.54305 0.0
O165 O 0.89453 0.60246 0.50611 0.0
O166 O 0.72028 0.66929 0.50862 0.0
H167 H 0.82409 0.61122 0.46513 0.0
H168 H 0.77295 0.63164 0.75759 0.0
H169 H 0.86092 0.61809 0.38491 0.0
Zn170 Zn 0.64046 0.2588 0.51997 0.0
C171 C 0.66466 0.17305 0.44519 0.0
N172 N 0.69572 0.18729 0.43981 0.0
C173 C 0.69041 0.2201 0.45441 0.0
N174 N 0.6572 0.22554 0.46774 0.0
N175 N 0.64113 0.19601 0.46066 0.0
C176 C 0.57615 0.12401 0.49214 0.0
O177 O 0.59266 0.13471 0.53473 0.0
O178 O 0.66704 0.30387 0.51759 0.0
Zn179 Zn 0.59381 0.1914 0.4408 0.0
N180 N 0.64724 0.23658 0.58928 0.0
C181 C 0.63133 0.18804 0.64118 0.0
C182 C 0.6275 0.20824 0.5958 0.0
C183 C 0.67059 0.24598 0.62729 0.0
N184 N 0.6547 0.19705 0.67871 0.0
C185 C 0.67453 0.22556 0.67364 0.0
O186 O 0.56238 0.22548 0.47532 0.0
C187 C 0.56145 0.25415 0.49954 0.0
O188 O 0.58877 0.26946 0.51453 0.0
H189 H 0.60923 0.20114 0.56527 0.0
H190 H 0.68638 0.26839 0.62087 0.0
C191 C 0.56572 0.18621 0.33596 0.0
C192 C 0.56355 0.19263 0.28071 0.0
C193 C 0.61412 0.22627 0.28635 0.0
C194 C 0.61557 0.2205 0.34124 0.0
N195 N 0.59154 0.20038 0.36487 0.0
N196 N 0.58818 0.21237 0.25748 0.0
H197 H 0.54732 0.17004 0.35613 0.0
C198 C 0.6581 0.32825 0.48678 0.0
O199 O 0.63227 0.32345 0.45399 0.0
O200 O 0.57464 0.14321 0.45115 0.0
H201 H 0.6359 0.2316 0.36464 0.0
H202 H 0.61596 0.16523 0.64647 0.0
H203 H 0.63329 0.24192 0.26687 0.0
Zn204 Zn 0.19281 0.43025 0.58228 0.0
C205 C 0.21776 0.33169 0.56475 0.0
N206 N 0.18426 0.32648 0.57461 0.0
C207 C 0.17107 0.35814 0.57435 0.0
N208 N 0.19531 0.38197 0.56496 0.0
N209 N 0.22452 0.3654 0.5572 0.0
C210 C 0.32645 0.36329 0.53497 0.0
O211 O 0.32186 0.38963 0.5669 0.0
O212 O 0.14549 0.45196 0.57301 0.0
Zn213 Zn 0.25727 0.38124 0.50324 0.0
N214 N 0.20557 0.43442 0.65671 0.0
C215 C 0.23614 0.414 0.73238 0.0
C216 C 0.2282 0.41191 0.6782 0.0
C217 C 0.19085 0.45928 0.68698 0.0
N218 N 0.22146 0.43882 0.76271 0.0
C219 C 0.19907 0.46183 0.74156 0.0
O220 O 0.26981 0.43251 0.50594 0.0
C221 C 0.25473 0.46025 0.5192 0.0
O222 O 0.22629 0.46003 0.54388 0.0
H223 H 0.23974 0.39235 0.65362 0.0
H224 H 0.17249 0.47628 0.66859 0.0
C225 C 0.24294 0.3512 0.39665 0.0
C226 C 0.22177 0.34678 0.35127 0.0
C227 C 0.18366 0.38868 0.38595 0.0
C228 C 0.20463 0.39303 0.43038 0.0
N229 N 0.23365 0.37414 0.43529 0.0
N230 N 0.19261 0.36572 0.34775 0.0
H231 H 0.26591 0.33609 0.40186 0.0
C232 C 0.1215 0.44433 0.5407 0.0
O233 O 0.12555 0.41874 0.50718 0.0
O234 O 0.30188 0.35392 0.50477 0.0
H235 H 0.19758 0.41101 0.46139 0.0
H236 H 0.25391 0.39611 0.75021 0.0
H237 H 0.16032 0.40335 0.38194 0.0
Zn238 Zn 0.38172 0.76381 0.52284 0.0
C239 C 0.35576 0.84816 0.44425 0.0
N240 N 0.3251 0.83296 0.43967 0.0
C241 C 0.33091 0.80089 0.457 0.0
N242 N 0.36413 0.7967 0.4712 0.0
N243 N 0.37964 0.82636 0.46237 0.0
C244 C 0.45445 0.89394 0.49535 0.0
O245 O 0.44931 0.87787 0.54076 0.0
O246 O 0.35571 0.71855 0.51987 0.0
Zn247 Zn 0.42687 0.83128 0.44082 0.0
N248 N 0.37509 0.78579 0.5924 0.0
C249 C 0.39121 0.83426 0.64437 0.0
C250 C 0.39487 0.8141 0.59886 0.0
C251 C 0.35178 0.77643 0.63053 0.0
N252 N 0.3679 0.82529 0.68204 0.0
C253 C 0.34797 0.79684 0.67699 0.0
O254 O 0.45896 0.7969 0.47333 0.0
C255 C 0.46037 0.76866 0.49864 0.0
O256 O 0.43337 0.75379 0.51595 0.0
H257 H 0.413 0.8212 0.56813 0.0
H258 H 0.3359 0.75408 0.6241 0.0
C259 C 0.45337 0.83789 0.33489 0.0
C260 C 0.45361 0.83362 0.27897 0.0
C261 C 0.40212 0.80139 0.28553 0.0
C262 C 0.40224 0.80555 0.34078 0.0
N263 N 0.42768 0.82387 0.36434 0.0
N264 N 0.42776 0.81533 0.25607 0.0
H265 H 0.4736 0.85148 0.35539 0.0
C266 C 0.36492 0.69475 0.48808 0.0
O267 O 0.39071 0.70032 0.45545 0.0
O268 O 0.44615 0.87936 0.45173 0.0
H269 H 0.38201 0.79459 0.36457 0.0
H270 H 0.40664 0.85703 0.64963 0.0
H271 H 0.38192 0.78705 0.26617 0.0
H272 H 0.3239 0.04951 0.34003 0.0
H273 H 0.36928 1.00233 0.19998 0.0
H274 H 0.34159 1.00072 0.39327 0.0
H275 H 0.38835 0.95505 0.25401 0.0
H276 H 0.34746 0.85733 0.33902 0.0
H277 H 0.35214 0.91036 0.28914 0.0
H278 H 0.38526 0.96291 0.43239 0.0
H279 H 0.37987 0.90904 0.48266 0.0
C280 C 0.33834 0.02934 0.32065 0.0
C281 C 0.34437 0.03004 0.26514 0.0
C282 C 0.34892 1.00152 0.35152 0.0
C283 C 0.36595 0.9738 0.32766 0.0
C284 C 0.37473 0.97583 0.27332 0.0
C285 C 0.36388 1.00341 0.24229 0.0
C286 C 0.35654 0.88007 0.35944 0.0
C287 C 0.36367 0.87933 0.41424 0.0
C288 C 0.35951 0.91043 0.33087 0.0
C289 C 0.36922 0.9409 0.35674 0.0
C290 C 0.37762 0.93985 0.41146 0.0
C291 C 0.37478 0.90917 0.4401 0.0
H292 H 0.02848 0.63976 0.78616 0.0
H293 H 0.0375 0.73379 0.69612 0.0
H294 H 0.98082 0.6221 0.72946 0.0
H295 H 0.98995 0.71641 0.64023 0.0
H296 H 0.91207 0.67795 0.53063 0.0
H297 H 0.96825 0.67844 0.57377 0.0
H298 H 0.92214 0.64005 0.71912 0.0
H299 H 0.86665 0.63899 0.67524 0.0
C300 C 0.02026 0.65676 0.75453 0.0
C301 C 0.03637 0.68861 0.74647 0.0
C302 C 0.99307 0.6465 0.7218 0.0
C303 C 0.98145 0.66783 0.68033 0.0
C304 C 0.99852 0.69898 0.67108 0.0
C305 C 0.0257 0.70913 0.70353 0.0
C306 C 0.91442 0.66848 0.57117 0.0
C307 C 0.8854 0.65763 0.59938 0.0
C308 C 0.94641 0.66902 0.59607 0.0
C309 C 0.94967 0.6597 0.65018 0.0
C310 C 0.92078 0.6469 0.67723 0.0
C311 C 0.8889 0.64604 0.65206 0.0
H312 H 0.66029 0.11217 0.4966 0.0
H313 H 0.65349 0.15907 0.34112 0.0
H314 H 0.6574 0.05527 0.45503 0.0
H315 H 0.65058 0.10273 0.29936 0.0
H316 H 0.63517 0.99688 0.23661 0.0
H317 H 0.61953 0.04739 0.28822 0.0
H318 H 0.70127 0.02629 0.39946 0.0
H319 H 0.71747 0.97627 0.34774 0.0
C320 C 0.65716 0.11016 0.45367 0.0
C321 C 0.65655 0.13964 0.42186 0.0
C322 C 0.65568 0.07777 0.42989 0.0
C323 C 0.65386 0.07455 0.37392 0.0
C324 C 0.6514 0.10431 0.34257 0.0
C325 C 0.65306 0.13658 0.36636 0.0
C326 C 0.65003 1.00297 0.27183 0.0
C327 C 0.67849 0.983 0.28681 0.0
C328 C 0.64074 0.03177 0.30173 0.0
C329 C 0.65936 0.04097 0.34757 0.0
C330 C 0.6862 0.01973 0.36458 0.0
C331 C 0.69563 0.9911 0.33461 0.0
H332 H 0.02562 0.34289 0.81491 0.0
H333 H 0.95854 0.33738 0.67767 0.0
H334 H 0.07248 0.35991 0.75756 0.0
H335 H 1.006 0.35449 0.61988 0.0
H336 H 0.11323 0.32583 0.54402 0.0
H337 H 0.05845 0.32551 0.59103 0.0
H338 H 0.09622 0.40332 0.6989 0.0
H339 H 0.15109 0.40212 0.65322 0.0
C340 C 0.02047 0.34627 0.77276 0.0
C341 C 0.98808 0.33893 0.75106 0.0
C342 C 0.04751 0.3561 0.73971 0.0
C343 C 0.04295 0.3587 0.68413 0.0
C344 C 1.01035 0.35246 0.66252 0.0
C345 C 0.98322 0.34264 0.69564 0.0
C346 C 0.10935 0.34354 0.57685 0.0
C347 C 0.13624 0.3645 0.59452 0.0
C348 C 0.07795 0.34351 0.60362 0.0
C349 C 0.07307 0.36423 0.649 0.0
C350 C 0.09929 0.38682 0.66439 0.0
C351 C 0.13067 0.38665 0.63769 0.0
H352 H 0.84435 0.49937 0.71723 0.0
H353 H 0.83709 0.56569 0.8554 0.0
H354 H 0.86053 0.45225 0.7742 0.0
H355 H 0.85331 0.51782 0.91292 0.0
H356 H 0.82369 0.40949 0.98518 0.0
H357 H 0.82397 0.46483 0.93979 0.0
H358 H 0.90325 0.42841 0.83347 0.0
H359 H 0.90134 0.37305 0.87721 0.0
C360 C 0.84723 0.50434 0.75954 0.0
C361 C 0.83968 0.53662 0.78154 0.0
C362 C 0.85654 0.47711 0.7924 0.0
C363 C 0.85839 0.48131 0.84812 0.0
C364 C 0.85189 0.51377 0.87014 0.0
C365 C 0.84261 0.54114 0.83717 0.0
C366 C 0.84181 0.41378 0.95303 0.0
C367 C 0.863 0.38711 0.93521 0.0
C368 C 0.84214 0.44549 0.92723 0.0
C369 C 0.86348 0.45092 0.88273 0.0
C370 C 0.88627 0.42492 0.8673 0.0
C371 C 0.88566 0.39323 0.89291 0.0
H372 H 0.56371 0.17838 0.17384 0.0
H373 H 0.49726 0.17953 0.31222 0.0
H374 H 0.51494 0.16322 0.11746 0.0
H375 H 0.4491 0.16457 0.25632 0.0
H376 H 0.36749 0.12473 0.15661 0.0
H377 H 0.42247 0.12177 0.20138 0.0
H378 H 0.46385 0.19351 0.08675 0.0
H379 H 0.40891 0.19415 0.03999 0.0
C380 C 0.53887 0.17498 0.19238 0.0
C381 C 0.53462 0.1799 0.24773 0.0
C382 C 0.51096 0.16634 0.16004 0.0
C383 C 0.47815 0.16253 0.18236 0.0
C384 C 0.47413 0.16647 0.2379 0.0
C385 C 0.50195 0.17507 0.27015 0.0
C386 C 0.38881 0.13794 0.13902 0.0
C387 C 0.38429 0.15843 0.09372 0.0
C388 C 0.42021 0.13709 0.16547 0.0
C389 C 0.44754 0.15766 0.14798 0.0
C390 C 0.44351 0.17698 0.10094 0.0
C391 C 0.41206 0.17749 0.07425 0.0
H392 H 0.17961 0.52694 0.7127 0.0
H393 H 0.18752 0.45941 0.84905 0.0
H394 H 0.16189 0.57313 0.77084 0.0
H395 H 0.16955 0.50612 0.90767 0.0
H396 H 0.1964 0.61335 0.98464 0.0
H397 H 0.19712 0.55875 0.93726 0.0
H398 H 0.1189 0.59608 0.83008 0.0
H399 H 0.11983 0.65085 0.87598 0.0
C400 C 0.17659 0.52154 0.75486 0.0
C401 C 0.18483 0.48926 0.77607 0.0
C402 C 0.16634 0.54817 0.78837 0.0
C403 C 0.16416 0.5433 0.84395 0.0
C404 C 0.17125 0.51074 0.86506 0.0
C405 C 0.18156 0.48403 0.83147 0.0
C406 C 0.17868 0.6094 0.9519 0.0
C407 C 0.15759 0.63621 0.93442 0.0
C408 C 0.17893 0.57809 0.92489 0.0
C409 C 0.15826 0.57316 0.87953 0.0
C410 C 0.13542 0.5992 0.8645 0.0
C411 C 0.13544 0.63053 0.89135 0.0
H412 H 0.47371 0.80846 0.1826 0.0
H413 H 0.49781 0.88826 0.29669 0.0
H414 H 0.52373 0.82395 0.13051 0.0
H415 H 0.54823 0.90344 0.2444 0.0
H416 H 0.60973 0.86305 0.03264 0.0
H417 H 0.55336 0.8667 0.07568 0.0
H418 H 0.60259 0.87278 0.23014 0.0
H419 H 0.65836 0.8693 0.18687 0.0
C420 C 0.48934 0.82965 0.1963 0.0
C421 C 0.48214 0.8463 0.2449 0.0
C422 C 0.51797 0.8387 0.16609 0.0
C423 C 0.54013 0.86473 0.18357 0.0
C424 C 0.53193 0.88284 0.23044 0.0
C425 C 0.50315 0.87385 0.26069 0.0
C426 C 0.60823 0.86616 0.07562 0.0
C427 C 0.63806 0.86649 0.10664 0.0
C428 C 0.57613 0.86807 0.10027 0.0
C429 C 0.57352 0.86988 0.15635 0.0
C430 C 0.60366 0.872 0.18688 0.0
C431 C 0.63563 0.87002 0.16221 0.0
H432 H 0.4455 0.0786 0.07911 0.0
H433 H 0.40615 0.98314 0.01681 0.0
H434 H 0.5037 0.05539 0.07536 0.0
H435 H 0.46402 0.9601 1.01325 0.0
H436 H 0.57558 0.94319 0.96257 0.0
H437 H 0.51847 0.96854 0.96392 0.0
H438 H 0.538 1.00973 0.12121 0.0
H439 H 0.59518 0.98449 0.11993 0.0
C440 C 0.44926 0.05279 0.06434 0.0
C441 C 0.42116 0.03275 0.0482 0.0
C442 C 0.48256 0.03942 0.06253 0.0
C443 C 0.48849 1.00589 0.04396 0.0
C444 C 0.4604 0.98612 0.02719 0.0
C445 C 0.42718 0.99931 0.0295 0.0
C446 C 0.56776 0.95771 0.99741 0.0
C447 C 0.59002 0.96183 0.04107 0.0
C448 C 0.53495 0.97212 0.99827 0.0
C449 C 0.5237 0.99124 0.04263 0.0
C450 C 0.54603 0.99553 0.08617 0.0
C451 C 0.57873 0.98085 0.08553 0.0
H452 H 0.92236 0.4639 0.02387 0.0
H453 H 1.00813 0.41187 0.95127 0.0
H454 H 0.95466 0.51775 0.02243 0.0
H455 H 0.04059 0.46554 0.95096 0.0
H456 H 0.09705 0.56094 0.02561 0.0
H457 H 0.06472 0.50712 0.02515 0.0
H458 H 0.98031 0.55793 0.94746 0.0
H459 H 0.01283 0.61158 0.9468 0.0
C460 C 0.94815 0.46392 1.00794 0.0
C461 C 0.96275 0.43361 0.98791 0.0
C462 C 0.96655 0.49476 1.00684 0.0
C463 C 1.00018 0.49579 0.98676 0.0
C464 C 0.01483 0.46544 0.96703 0.0
C465 C 0.99618 0.43478 0.96703 0.0
C466 C 0.0716 0.56062 1.00846 0.0
C467 C 0.05745 0.59054 0.98643 0.0
C468 C 0.05318 0.52979 1.00796 0.0
C469 C 0.01996 0.52839 0.98645 0.0
C470 C 1.00575 0.55833 0.96466 0.0
C471 C 0.02444 0.58897 0.96409 0.0
H472 H 0.96216 0.59832 0.50074 0.0
H473 H 0.91236 0.51638 0.58678 0.0
H474 H 0.01584 0.56578 0.50116 0.0
H475 H 0.96578 0.48364 0.58604 0.0
H476 H 0.05795 0.42332 0.5084 0.0
H477 H 1.00446 0.45612 0.5101 0.0
H478 H 0.05838 0.54292 0.57584 0.0
H479 H 0.1117 0.50997 0.57536 0.0
C480 C 0.96264 0.57333 0.5195 0.0
C481 C 0.933 0.55988 0.54356 0.0
C482 C 0.99337 0.5548 0.51995 0.0
C483 C 0.99491 0.52213 0.54343 0.0
C484 C 0.96526 0.50864 0.56732 0.0
C485 C 0.93475 0.52747 0.56793 0.0
C486 C 0.05838 0.44941 0.52316 0.0
C487 C 0.08906 0.4641 0.54155 0.0
C488 C 0.02775 0.46809 0.52438 0.0
C489 C 0.02732 0.50211 0.54292 0.0
C490 C 0.05803 0.51685 0.561 0.0
C491 C 0.08848 0.49793 0.56092 0.0
H492 H 0.53245 0.09816 0.41665 0.0
H493 H 0.58036 0.07299 0.56705 0.0
H494 H 0.50219 0.04367 0.41766 0.0
H495 H 0.55115 0.01781 0.56718 0.0
H496 H 0.46875 0.93597 0.58027 0.0
H497 H 0.49746 0.99138 0.5791 0.0
H498 H 0.508 0.98423 0.40739 0.0
H499 H 0.47804 0.92956 0.40852 0.0
C500 C 0.53678 0.08085 0.44977 0.0
C501 C 0.55875 0.0901 0.49192 0.0
C502 C 0.51953 0.04938 0.45021 0.0
C503 C 0.524 0.02607 0.49258 0.0
C504 C 0.54641 0.03522 0.53436 0.0
C505 C 0.56343 0.06684 0.53413 0.0
C506 C 0.47706 0.94631 0.54224 0.0
C507 C 0.4711 0.92822 0.49454 0.0
C508 C 0.49383 0.97805 0.54156 0.0
C509 C 0.50541 0.99247 0.49318 0.0
C510 C 0.49913 0.97439 0.44541 0.0
C511 C 0.48207 0.94282 0.44606 0.0
H512 H 0.27601 0.34456 0.623 0.0
H513 H 0.21287 0.26266 0.56213 0.0
H514 H 0.29912 0.30589 0.69087 0.0
H515 H 0.23558 0.22425 0.63019 0.0
H516 H 0.23489 0.19249 0.8086 0.0
H517 H 0.22287 0.22832 0.73075 0.0
H518 H 0.33076 0.2491 0.7124 0.0
H519 H 0.3429 0.2131 0.79016 0.0
C520 C 0.26831 0.31793 0.6223 0.0
C521 C 0.24242 0.30676 0.58732 0.0
C522 C 0.28121 0.29586 0.66176 0.0
C523 C 0.26828 0.26236 0.66692 0.0
C524 C 0.24536 0.25018 0.62807 0.0
C525 C 0.2328 0.27205 0.58848 0.0
C526 C 0.25601 0.20503 0.78851 0.0
C527 C 0.28983 0.20004 0.80588 0.0
C528 C 0.2492 0.2252 0.74342 0.0
C529 C 0.27595 0.2412 0.71502 0.0
C530 C 0.30965 0.23706 0.7333 0.0
C531 C 0.31653 0.21642 0.77782 0.0
H532 H 0.2372 0.74849 0.17624 0.0
H533 H 0.15848 0.71412 0.28518 0.0
H534 H 0.27612 0.75673 0.2519 0.0
H535 H 0.19738 0.72201 0.36019 0.0
H536 H 0.26258 0.79616 0.47129 0.0
H537 H 0.22336 0.77244 0.40523 0.0
H538 H 0.30826 0.72405 0.32461 0.0
H539 H 0.34741 0.74722 0.39192 0.0
C540 C 0.22805 0.74291 0.21615 0.0
C541 C 0.19443 0.73105 0.22443 0.0
C542 C 0.25058 0.74707 0.2595 0.0
C543 C 0.23994 0.73979 0.31217 0.0
C544 C 0.20642 0.72789 0.32028 0.0
C545 C 0.18411 0.72338 0.27709 0.0
C546 C 0.2726 0.77876 0.44135 0.0
C547 C 0.30807 0.77355 0.43695 0.0
C548 C 0.25017 0.76557 0.40287 0.0
C549 C 0.26279 0.74715 0.35871 0.0
C550 C 0.29783 0.73878 0.35751 0.0
C551 C 0.32021 0.7515 0.39673 0.0
H552 H 0.74619 0.67924 0.62754 0.0
H553 H 0.81036 0.76094 0.56877 0.0
H554 H 0.72315 0.7177 0.69604 0.0
H555 H 0.78778 0.79909 0.63746 0.0
H556 H 0.78789 0.82964 0.81651 0.0
H557 H 0.79997 0.79365 0.73869 0.0
H558 H 0.69186 0.7755 0.71737 0.0
H559 H 0.67966 0.81178 0.795 0.0
C560 C 0.75415 0.70579 0.62746 0.0
C561 C 0.78029 0.71696 0.59285 0.0
C562 C 0.7413 0.72773 0.66727 0.0
C563 C 0.75453 0.76107 0.67317 0.0
C564 C 0.77775 0.77327 0.63475 0.0
C565 C 0.79024 0.75156 0.59481 0.0
C566 C 0.76672 0.81762 0.79579 0.0
C567 C 0.73282 0.82348 0.81224 0.0
C568 C 0.77358 0.79736 0.75075 0.0
C569 C 0.74679 0.78207 0.72151 0.0
C570 C 0.71299 0.78699 0.73894 0.0
C571 C 0.70608 0.80777 0.78339 0.0
H572 H 0.78486 0.27599 0.17426 0.0
H573 H 0.86417 0.30738 0.28421 0.0
H574 H 0.74597 0.26673 0.24974 0.0
H575 H 0.8253 0.29832 0.35917 0.0
H576 H 0.75915 0.22168 0.4656 0.0
H577 H 0.79866 0.24616 0.40052 0.0
H578 H 0.7147 0.29909 0.32499 0.0
H579 H 0.67526 0.27517 0.39136 0.0
C580 C 0.79413 0.28071 0.21437 0.0
C581 C 0.82789 0.292 0.22303 0.0
C582 C 0.77164 0.27596 0.25762 0.0
C583 C 0.78248 0.28202 0.31051 0.0
C584 C 0.81614 0.29341 0.31903 0.0
C585 C 0.83841 0.29857 0.27592 0.0
C586 C 0.74944 0.24005 0.43694 0.0
C587 C 0.71412 0.24648 0.43367 0.0
C588 C 0.77201 0.25376 0.39913 0.0
C589 C 0.75968 0.27385 0.3567 0.0
C590 C 0.72486 0.28312 0.3566 0.0
C591 C 0.70235 0.26991 0.39523 0.0
H592 H 0.73682 0.69226 0.31414 0.0
H593 H 0.84487 0.71219 0.29436 0.0
H594 H 0.72463 0.7281 0.23644 0.0
H595 H 0.83253 0.74826 0.21667 0.0
H596 H 0.77653 0.84433 0.12889 0.0
H597 H 0.80058 0.80548 0.19582 0.0
H598 H 0.73701 0.7237 0.13566 0.0
H599 H 0.71334 0.76231 0.06868 0.0
C600 C 0.75793 0.70465 0.29378 0.0
C601 C 0.7918 0.69948 0.31076 0.0
C602 C 0.751 0.72483 0.24877 0.0
C603 C 0.77769 0.74067 0.22002 0.0
C604 C 0.81147 0.73633 0.23785 0.0
C605 C 0.81846 0.71565 0.28232 0.0
C606 C 0.76911 0.81762 0.128 0.0
C607 C 0.74292 0.80641 0.09358 0.0
C608 C 0.78251 0.79545 0.16693 0.0
C609 C 0.76981 0.76186 0.17205 0.0
C610 C 0.74665 0.74969 0.13354 0.0
C611 C 0.73356 0.77165 0.09454 0.0
H612 H 0.76114 0.31042 0.96205 0.0
H613 H 0.84325 0.24717 0.9024 0.0
H614 H 0.72333 0.28826 0.89265 0.0
H615 H 0.8051 0.22453 0.8332 0.0
H616 H 0.71147 0.18068 0.7338 0.0
H617 H 0.74772 0.19291 0.81134 0.0
H618 H 0.72839 0.30092 0.79163 0.0
H619 H 0.6924 0.28882 0.71386 0.0
C620 C 0.77071 0.29062 0.9356 0.0
C621 C 0.80533 0.2808 0.93763 0.0
C622 C 0.74918 0.27837 0.89524 0.0
C623 C 0.76155 0.2555 0.85644 0.0
C624 C 0.79493 0.24243 0.86225 0.0
C625 C 0.8167 0.25505 0.90245 0.0
C626 C 0.7152 0.2071 0.74573 0.0
C627 C 0.69914 0.2338 0.71734 0.0
C628 C 0.73599 0.21403 0.79014 0.0
C629 C 0.74059 0.2478 0.80803 0.0
C630 C 0.72496 0.27455 0.77923 0.0
C631 C 0.70468 0.26768 0.73422 0.0
H632 H 0.28482 0.33076 0.30877 0.0
H633 H 0.17695 0.30887 0.29227 0.0
H634 H 0.29679 0.29488 0.23084 0.0
H635 H 0.18906 0.27275 0.21443 0.0
H636 H 0.24537 0.17756 0.12496 0.0
H637 H 0.2218 0.21606 0.19294 0.0
H638 H 0.28309 0.2988 0.13031 0.0
H639 H 0.30616 0.26057 0.0621 0.0
C640 C 0.26372 0.31792 0.28909 0.0
C641 C 0.22995 0.32257 0.30703 0.0
C642 C 0.27051 0.29772 0.24397 0.0
C643 C 0.24378 0.28132 0.2161 0.0
C644 C 0.21014 0.28512 0.23493 0.0
C645 C 0.20327 0.30582 0.27948 0.0
C646 C 0.25234 0.20438 0.12379 0.0
C647 C 0.27768 0.21601 0.08814 0.0
C648 C 0.23924 0.22635 0.16333 0.0
C649 C 0.25146 0.26016 0.16794 0.0
C650 C 0.27383 0.27266 0.12855 0.0
C651 C 0.28659 0.2509 0.08889 0.0
H652 H 0.25985 0.71176 0.96427 0.0
H653 H 0.17871 0.77628 0.90513 0.0
H654 H 0.29819 0.73389 0.89551 0.0
H655 H 0.21736 0.79884 0.83654 0.0
H656 H 0.31141 0.84189 0.7376 0.0
H657 H 0.27496 0.82982 0.81504 0.0
H658 H 0.29342 0.72169 0.79449 0.0
H659 H 0.32962 0.73365 0.71686 0.0
C660 C 0.25062 0.73183 0.9381 0.0
C661 C 0.21608 0.74198 0.94 0.0
C662 C 0.27244 0.74406 0.89809 0.0
C663 C 0.26047 0.76725 0.85955 0.0
C664 C 0.22722 0.78067 0.86537 0.0
C665 C 0.20516 0.76808 0.90522 0.0
C666 C 0.30746 0.81549 0.74934 0.0
C667 C 0.32332 0.78871 0.72075 0.0
C668 C 0.28656 0.80864 0.79369 0.0
C669 C 0.28164 0.77488 0.8113 0.0
C670 C 0.2971 0.74805 0.78232 0.0
C671 C 0.3175 0.75485 0.73737 0.0
H672 H 0.19999 0.04753 0.99596 0.0
H673 H 0.29941 1.00008 1.01008 0.0
H674 H 0.17367 0.99082 0.98828 0.0
H675 H 0.27341 0.94392 1.00151 0.0
H676 H 0.21296 0.84856 0.04976 0.0
H677 H 0.23888 0.90539 0.05273 0.0
H678 H 0.16769 0.9405 0.93265 0.0
H679 H 0.14133 0.88393 0.93056 0.0
C680 C 0.21629 0.02512 0.9967 0.0
C681 C 0.25183 0.02852 1.00412 0.0
C682 C 0.20122 0.99254 0.99224 0.0
C683 C 0.22134 0.9626 0.99492 0.0
C684 C 0.25695 0.96621 1.00055 0.0
C685 C 0.27192 0.9986 1.00515 0.0
C686 C 0.20291 0.86835 0.02385 0.0
C687 C 0.17502 0.86157 0.98999 0.0
C688 C 0.21788 0.90098 0.02533 0.0
C689 C 0.20543 0.92773 0.9929 0.0
C690 C 0.1777 0.9208 0.95874 0.0
C691 C 0.16273 0.88818 0.95728 0.0
H692 H 0.04759 0.82299 0.03258 0.0
H693 H 0.99933 0.72555 1.00042 0.0
H694 H 0.99107 0.84924 0.04303 0.0
H695 H 0.9434 0.7513 1.01229 0.0
H696 H 0.84845 0.81405 0.97486 0.0
H697 H 0.90516 0.78856 0.96792 0.0
H698 H 0.94056 0.85266 0.09753 0.0
H699 H 0.88403 0.87886 0.10335 0.0
C700 C 0.02502 0.80709 0.02836 0.0
C701 C 0.02814 0.77221 0.01521 0.0
C702 C 0.99255 0.8221 0.03451 0.0
C703 C 0.96245 0.80253 0.02796 0.0
C704 C 0.96579 0.76746 0.01635 0.0
C705 C 0.99806 0.7526 1.00989 0.0
C706 C 0.86827 0.82263 1.00204 0.0
C707 C 0.86158 0.84853 0.03965 0.0
C708 C 0.90087 0.80788 0.99826 0.0
C709 C 0.92767 0.81843 0.03223 0.0
C710 C 0.92083 0.84417 0.07016 0.0
C711 C 0.88825 0.85903 0.07377 0.0
H712 H 0.81907 0.9759 0.99813 0.0
H713 H 0.72327 0.02331 0.04256 0.0
H714 H 0.84478 0.03262 0.98716 0.0
H715 H 0.74843 0.07951 0.03012 0.0
H716 H 0.87173 0.1399 0.92634 0.0
H717 H 0.84566 0.08338 0.93371 0.0
H718 H 0.78747 0.11782 0.07056 0.0
H719 H 0.8128 0.17459 0.06209 0.0
C720 C 0.8034 0.99834 1.00504 0.0
C721 C 0.76915 0.99489 0.0216 0.0
C722 C 0.81808 0.03094 0.99854 0.0
C723 C 0.79882 0.06088 1.00813 0.0
C724 C 0.76439 0.05724 0.02353 0.0
C725 C 0.74984 0.02482 0.03034 0.0
C726 C 0.85322 0.13548 0.95784 0.0
C727 C 0.84435 0.1619 0.99358 0.0
C728 C 0.83844 0.10289 0.96234 0.0
C729 C 0.81444 0.09576 1.00282 0.0
C730 C 0.80543 0.12234 0.03832 0.0
C731 C 0.82008 0.15497 0.03365 0.0
H732 H 0.97386 0.19998 0.0295 0.0
H733 H 0.02171 0.29781 0.99882 0.0
H734 H 0.03052 0.17382 0.03856 0.0
H735 H 0.07775 0.27212 1.0092 0.0
H736 H 0.1726 0.20976 0.9688 0.0
H737 H 0.11574 0.23506 0.96308 0.0
H738 H 0.08137 0.17052 0.09272 0.0
H739 H 0.13804 0.14457 0.09741 0.0
C740 C 0.99636 0.21598 0.02528 0.0
C741 C 0.99308 0.25096 1.01298 0.0
C742 C 0.02891 0.20103 0.03063 0.0
C743 C 0.05891 0.22074 0.02405 0.0
C744 C 0.05542 0.25587 1.01327 0.0
C745 C 0.02309 0.2707 1.00766 0.0
C746 C 0.15298 0.20104 0.99624 0.0
C747 C 0.16 0.17511 0.03355 0.0
C748 C 0.1203 0.21567 0.99316 0.0
C749 C 0.09375 0.20493 0.0275 0.0
C750 C 0.10091 0.17914 0.06509 0.0
C751 C 0.13357 0.16443 0.06805 0.0
H752 H 0.7072 0.34967 0.55766 0.0
H753 H 0.64726 0.38433 0.42322 0.0
H754 H 0.73279 0.40634 0.56547 0.0
H755 H 0.6736 0.44082 0.42998 0.0
H756 H 0.70167 0.54835 0.49428 0.0
H757 H 0.67544 0.49182 0.4834 0.0
H758 H 0.77178 0.44414 0.52374 0.0
H759 H 0.79747 0.50012 0.53603 0.0
C760 C 0.69972 0.36927 0.52937 0.0
C761 C 0.67513 0.36233 0.48983 0.0
C762 C 0.71454 0.40185 0.53367 0.0
C763 C 0.70538 0.4284 0.49831 0.0
C764 C 0.68098 0.4213 0.45844 0.0
C765 C 0.66604 0.38874 0.4543 0.0
C766 C 0.71723 0.52578 0.50059 0.0
C767 C 0.75163 0.52894 0.51644 0.0
C768 C 0.70224 0.49329 0.49416 0.0
C769 C 0.72134 0.46318 0.50315 0.0
C770 C 0.75594 0.46655 0.51767 0.0
C771 C 0.77079 0.49884 0.52439 0.0
H772 H 0.34795 0.31366 0.46487 0.0
H773 H 0.38218 0.37432 0.59902 0.0
H774 H 0.40463 0.28801 0.4579 0.0
H775 H 0.43858 0.34794 0.59317 0.0
H776 H 0.49876 0.22396 0.48879 0.0
H777 H 0.44258 0.2494 0.49987 0.0
H778 H 0.48962 0.34616 0.5405 0.0
H779 H 0.54626 0.32021 0.53091 0.0
C780 C 0.36745 0.32127 0.49327 0.0
C781 C 0.36042 0.34611 0.53244 0.0
C782 C 0.40003 0.30642 0.48947 0.0
C783 C 0.42645 0.31582 0.52497 0.0
C784 C 0.4192 0.34041 0.56455 0.0
C785 C 0.38668 0.35537 0.56817 0.0
C786 C 0.49728 0.25068 0.50025 0.0
C787 C 0.52724 0.27003 0.50874 0.0
C788 C 0.46488 0.26538 0.50626 0.0
C789 C 0.46129 0.30002 0.52058 0.0
C790 C 0.49125 0.31932 0.52995 0.0
C791 C 0.52381 0.30448 0.52425 0.0
H792 H 0.32147 0.4747 0.49033 0.0
H793 H 0.22437 0.52296 0.52434 0.0
H794 H 0.34794 0.53126 0.48094 0.0
H795 H 0.25037 0.57894 0.5137 0.0
H796 H 0.37757 0.63926 0.42391 0.0
H797 H 0.35108 0.58271 0.42764 0.0
H798 H 0.2884 0.61595 0.56027 0.0
H799 H 0.31423 0.67264 0.5556 0.0
C800 C 0.30568 0.49728 0.49511 0.0
C801 C 0.27085 0.49416 0.50856 0.0
C802 C 0.32081 0.52976 0.48961 0.0
C803 C 0.30142 0.55984 0.4972 0.0
C804 C 0.26637 0.55651 0.50887 0.0
C805 C 0.25137 0.52424 0.51462 0.0
C806 C 0.358 0.63456 0.45373 0.0
C807 C 0.34801 0.66061 0.48941 0.0
C808 C 0.34297 0.60198 0.4561 0.0
C809 C 0.31753 0.59457 0.49423 0.0
C810 C 0.30749 0.62074 0.52976 0.0
C811 C 0.32244 0.65331 0.52729 0.0
H812 H 0.67415 0.70796 0.46542 0.0
H813 H 0.63982 0.65158 0.6039 0.0
H814 H 0.61749 0.73338 0.4566 0.0
H815 H 0.58346 0.67781 0.59625 0.0
H816 H 0.47586 0.70357 0.53381 0.0
H817 H 0.53252 0.67793 0.54416 0.0
H818 H 0.57928 0.77316 0.49493 0.0
H819 H 0.523 0.79823 0.48299 0.0
C820 C 0.65463 0.70128 0.49439 0.0
C821 C 0.66162 0.67766 0.53531 0.0
C822 C 0.62206 0.71599 0.48951 0.0
C823 C 0.59561 0.70772 0.52568 0.0
C824 C 0.60284 0.68442 0.56705 0.0
C825 C 0.63535 0.66955 0.57171 0.0
C826 C 0.49825 0.71902 0.52531 0.0
C827 C 0.4947 0.75293 0.50727 0.0
C828 C 0.53084 0.70437 0.53149 0.0
C829 C 0.56074 0.72333 0.52016 0.0
C830 C 0.55704 0.75742 0.50299 0.0
C831 C 0.52458 0.77192 0.49645 0.0
loop_
_geom_bond_atom_site_label_1
_geom_bond_atom_site_label_2
_geom_bond_distance
_geom_bond_site_symmetry_2
_ccdc_geom_bond_type
Zn0 N4 2.020 . S
Zn0 O8 2.019 . S
Zn0 N10 2.119 . S
Zn0 O18 1.975 . S
C1 N2 1.334 . S
C1 N5 1.336 . S
N2 C1 1.334 . S
N2 C3 1.334 . S
C3 N2 1.334 . S
C3 N4 1.336 . S
N4 Zn0 2.020 . S
N4 C3 1.336 . S
N4 N5 1.354 . S
N5 C1 1.336 . S
N5 N4 1.354 . S
N5 Zn9 2.020 . S
C6 O7 1.244 . S
C6 O30 1.257 . S
O7 C6 1.244 . S
O8 Zn0 2.019 . S
O8 C28 1.257 . S
Zn9 N5 2.020 . S
Zn9 O16 1.975 . S
Zn9 N25 2.119 1_554 S
Zn9 O30 2.019 . S
N10 Zn0 2.119 . S
N10 C12 1.334 . S
N10 C13 1.328 . S
C11 C12 1.391 . S
C11 N14 1.329 1_545 S
C11 H32 0.930 . S
C12 N10 1.334 . S
C12 C11 1.391 . S
C12 H19 0.930 . S
C13 N10 1.328 . S
C13 C15 1.392 1_545 S
C13 H20 0.930 . S
N14 C11 1.329 1_565 S
N14 C15 1.331 . S
C15 C13 1.392 1_565 S
C15 N14 1.331 . S
O16 Zn9 1.975 . S
O16 C17 1.252 . S
C17 O16 1.252 . S
C17 O18 1.252 . S
O18 Zn0 1.975 . S
O18 C17 1.252 . S
H19 C12 0.930 . S
H20 C13 0.930 . S
C21 C22 1.392 . S
C21 N25 1.328 . S
C21 H27 0.930 . S
C22 C21 1.392 . S
C22 N26 1.331 . S
C23 C24 1.391 . S
C23 N26 1.329 . S
C23 H33 0.930 . S
C24 C23 1.391 . S
C24 N25 1.334 . S
C24 H31 0.930 . S
N25 Zn9 2.119 1_556 S
N25 C21 1.328 . S
N25 C24 1.334 . S
N26 C22 1.331 . S
N26 C23 1.329 . S
H27 C21 0.930 . S
C28 O8 1.257 . S
C28 O29 1.244 . S
O29 C28 1.244 . S
O30 C6 1.257 . S
O30 Zn9 2.019 . S
H31 C24 0.930 . S
H32 C11 0.930 . S
H33 C23 0.930 . S
Zn34 N38 2.020 . S
Zn34 O42 2.019 . S
Zn34 N44 2.119 1_556 S
Zn34 O52 1.975 . S
C35 N36 1.334 . S
C35 N39 1.336 . S
N36 C35 1.334 . S
N36 C37 1.334 . S
C37 N36 1.334 . S
C37 N38 1.336 . S
N38 Zn34 2.020 . S
N38 C37 1.336 . S
N38 N39 1.354 . S
N39 C35 1.336 . S
N39 N38 1.354 . S
N39 Zn43 2.020 . S
C40 O41 1.244 . S
C40 O64 1.257 . S
O41 C40 1.244 . S
O42 Zn34 2.019 . S
O42 C62 1.257 . S
Zn43 N39 2.020 . S
Zn43 O50 1.975 . S
Zn43 N59 2.119 . S
Zn43 O64 2.019 . S
N44 Zn34 2.119 1_554 S
N44 C46 1.334 . S
N44 C47 1.328 . S
C45 C46 1.391 . S
C45 N48 1.329 . S
C45 H66 0.930 . S
C46 N44 1.334 . S
C46 C45 1.391 . S
C46 H53 0.930 . S
C47 N44 1.328 . S
C47 C49 1.392 . S
C47 H54 0.930 . S
N48 C45 1.329 . S
N48 C49 1.331 . S
C49 C47 1.392 . S
C49 N48 1.331 . S
O50 Zn43 1.975 . S
O50 C51 1.252 . S
C51 O50 1.252 . S
C51 O52 1.252 . S
O52 Zn34 1.975 . S
O52 C51 1.252 . S
H53 C46 0.930 . S
H54 C47 0.930 . S
C55 C56 1.392 1_455 S
C55 N59 1.328 . S
C55 H61 0.930 . S
C56 C55 1.392 1_655 S
C56 N60 1.331 . S
C57 C58 1.391 . S
C57 N60 1.329 1_455 S
C57 H67 0.930 . S
C58 C57 1.391 . S
C58 N59 1.334 . S
C58 H65 0.930 . S
N59 Zn43 2.119 . S
N59 C55 1.328 . S
N59 C58 1.334 . S
N60 C56 1.331 . S
N60 C57 1.329 1_655 S
H61 C55 0.930 . S
C62 O42 1.257 . S
C62 O63 1.244 . S
O63 C62 1.244 . S
O64 C40 1.257 . S
O64 Zn43 2.019 . S
H65 C58 0.930 . S
H66 C45 0.930 . S
H67 C57 0.930 . S
Zn68 N72 2.020 . S
Zn68 O76 2.019 . S
Zn68 N78 2.119 . S
Zn68 O86 1.975 . S
C69 N70 1.334 . S
C69 N73 1.336 . S
N70 C69 1.334 . S
N70 C71 1.334 . S
C71 N70 1.334 . S
C71 N72 1.336 . S
N72 Zn68 2.020 . S
N72 C71 1.336 . S
N72 N73 1.354 . S
N73 C69 1.336 . S
N73 N72 1.354 . S
N73 Zn77 2.020 . S
C74 O75 1.244 . S
C74 O98 1.257 . S
O75 C74 1.244 . S
O76 Zn68 2.019 . S
O76 C96 1.257 . S
Zn77 N73 2.020 . S
Zn77 O84 1.975 . S
Zn77 N93 2.119 1_554 S
Zn77 O98 2.019 . S
N78 Zn68 2.119 . S
N78 C80 1.334 . S
N78 C81 1.328 . S
C79 C80 1.391 . S
C79 N82 1.329 1_565 S
C79 H100 0.930 . S
C80 N78 1.334 . S
C80 C79 1.391 . S
C80 H87 0.930 . S
C81 N78 1.328 . S
C81 C83 1.392 1_565 S
C81 H88 0.930 . S
N82 C79 1.329 1_545 S
N82 C83 1.331 . S
C83 C81 1.392 1_545 S
C83 N82 1.331 . S
O84 Zn77 1.975 . S
O84 C85 1.252 . S
C85 O84 1.252 . S
C85 O86 1.252 . S
O86 Zn68 1.975 . S
O86 C85 1.252 . S
H87 C80 0.930 . S
H88 C81 0.930 . S
C89 C90 1.392 . S
C89 N93 1.328 . S
C89 H95 0.930 . S
C90 C89 1.392 . S
C90 N94 1.331 . S
C91 C92 1.391 . S
C91 N94 1.329 . S
C91 H101 0.930 . S
C92 C91 1.391 . S
C92 N93 1.334 . S
C92 H99 0.930 . S
N93 Zn77 2.119 1_556 S
N93 C89 1.328 . S
N93 C92 1.334 . S
N94 C90 1.331 . S
N94 C91 1.329 . S
H95 C89 0.930 . S
C96 O76 1.257 . S
C96 O97 1.244 . S
O97 C96 1.244 . S
O98 C74 1.257 . S
O98 Zn77 2.019 . S
H99 C92 0.930 . S
H100 C79 0.930 . S
H101 C91 0.930 . S
Zn102 N106 2.020 . S
Zn102 O110 2.019 . S
Zn102 N112 2.119 . S
Zn102 O120 1.975 . S
C103 N104 1.334 . S
C103 N107 1.336 . S
N104 C103 1.334 . S
N104 C105 1.334 . S
C105 N104 1.334 . S
C105 N106 1.336 . S
N106 Zn102 2.020 . S
N106 C105 1.336 . S
N106 N107 1.354 . S
N107 C103 1.336 . S
N107 N106 1.354 . S
N107 Zn111 2.020 . S
C108 O109 1.244 . S
C108 O132 1.257 . S
O109 C108 1.244 . S
O110 Zn102 2.019 . S
O110 C130 1.257 . S
Zn111 N107 2.020 . S
Zn111 O118 1.975 . S
Zn111 N127 2.119 1_556 S
Zn111 O132 2.019 . S
N112 Zn102 2.119 . S
N112 C114 1.334 . S
N112 C115 1.328 . S
C113 C114 1.391 . S
C113 N116 1.329 1_655 S
C113 H134 0.930 . S
C114 N112 1.334 . S
C114 C113 1.391 . S
C114 H121 0.930 . S
C115 N112 1.328 . S
C115 C117 1.392 1_655 S
C115 H122 0.930 . S
N116 C113 1.329 1_455 S
N116 C117 1.331 . S
C117 C115 1.392 1_455 S
C117 N116 1.331 . S
O118 Zn111 1.975 . S
O118 C119 1.252 . S
C119 O118 1.252 . S
C119 O120 1.252 . S
O120 Zn102 1.975 . S
O120 C119 1.252 . S
H121 C114 0.930 . S
H122 C115 0.930 . S
C123 C124 1.392 . S
C123 N127 1.328 . S
C123 H129 0.930 . S
C124 C123 1.392 . S
C124 N128 1.331 . S
C125 C126 1.391 . S
C125 N128 1.329 . S
C125 H135 0.930 . S
C126 C125 1.391 . S
C126 N127 1.334 . S
C126 H133 0.930 . S
N127 Zn111 2.119 1_554 S
N127 C123 1.328 . S
N127 C126 1.334 . S
N128 C124 1.331 . S
N128 C125 1.329 . S
H129 C123 0.930 . S
C130 O110 1.257 . S
C130 O131 1.244 . S
O131 C130 1.244 . S
O132 C108 1.257 . S
O132 Zn111 2.019 . S
H133 C126 0.930 . S
H134 C113 0.930 . S
H135 C125 0.930 . S
Zn136 N140 2.020 . S
Zn136 O144 2.019 . S
Zn136 N146 2.119 . S
Zn136 O154 1.975 . S
C137 N138 1.334 . S
C137 N141 1.336 . S
N138 C137 1.334 . S
N138 C139 1.334 . S
C139 N138 1.334 . S
C139 N140 1.336 . S
N140 Zn136 2.020 . S
N140 C139 1.336 . S
N140 N141 1.354 . S
N141 C137 1.336 . S
N141 N140 1.354 . S
N141 Zn145 2.020 . S
C142 O143 1.244 . S
C142 O166 1.257 . S
O143 C142 1.244 . S
O144 Zn136 2.019 . S
O144 C164 1.257 . S
Zn145 N141 2.020 . S
Zn145 O152 1.975 . S
Zn145 N161 2.119 . S
Zn145 O166 2.019 . S
N146 Zn136 2.119 . S
N146 C148 1.334 . S
N146 C149 1.328 . S
C147 C148 1.391 . S
C147 N150 1.329 . S
C147 H168 0.930 . S
C148 N146 1.334 . S
C148 C147 1.391 . S
C148 H155 0.930 . S
C149 N146 1.328 . S
C149 C151 1.392 . S
C149 H156 0.930 . S
N150 C147 1.329 . S
N150 C151 1.331 . S
C151 C149 1.392 . S
C151 N150 1.331 . S
O152 Zn145 1.975 . S
O152 C153 1.252 . S
C153 O152 1.252 . S
C153 O154 1.252 . S
O154 Zn136 1.975 . S
O154 C153 1.252 . S
H155 C148 0.930 . S
H156 C149 0.930 . S
C157 C158 1.392 . S
C157 N161 1.328 . S
C157 H163 0.930 . S
C158 C157 1.392 . S
C158 N162 1.331 . S
C159 C160 1.391 . S
C159 N162 1.329 . S
C159 H169 0.930 . S
C160 C159 1.391 . S
C160 N161 1.334 . S
C160 H167 0.930 . S
N161 Zn145 2.119 . S
N161 C157 1.328 . S
N161 C160 1.334 . S
N162 C158 1.331 . S
N162 C159 1.329 . S
H163 C157 0.930 . S
C164 O144 1.257 . S
C164 O165 1.244 . S
O165 C164 1.244 . S
O166 C142 1.257 . S
O166 Zn145 2.019 . S
H167 C160 0.930 . S
H168 C147 0.930 . S
H169 C159 0.930 . S
Zn170 N174 2.020 . S
Zn170 O178 2.019 . S
Zn170 N180 2.119 . S
Zn170 O188 1.975 . S
C171 N172 1.334 . S
C171 N175 1.336 . S
N172 C171 1.334 . S
N172 C173 1.334 . S
C173 N172 1.334 . S
C173 N174 1.336 . S
N174 Zn170 2.020 . S
N174 C173 1.336 . S
N174 N175 1.354 . S
N175 C171 1.336 . S
N175 N174 1.354 . S
N175 Zn179 2.020 . S
C176 O177 1.244 . S
C176 O200 1.257 . S
O177 C176 1.244 . S
O178 Zn170 2.019 . S
O178 C198 1.257 . S
Zn179 N175 2.020 . S
Zn179 O186 1.975 . S
Zn179 N195 2.119 . S
Zn179 O200 2.019 . S
N180 Zn170 2.119 . S
N180 C182 1.334 . S
N180 C183 1.328 . S
C181 C182 1.391 . S
C181 N184 1.329 . S
C181 H202 0.930 . S
C182 N180 1.334 . S
C182 C181 1.391 . S
C182 H189 0.930 . S
C183 N180 1.328 . S
C183 C185 1.392 . S
C183 H190 0.930 . S
N184 C181 1.329 . S
N184 C185 1.331 . S
C185 C183 1.392 . S
C185 N184 1.331 . S
O186 Zn179 1.975 . S
O186 C187 1.252 . S
C187 O186 1.252 . S
C187 O188 1.252 . S
O188 Zn170 1.975 . S
O188 C187 1.252 . S
H189 C182 0.930 . S
H190 C183 0.930 . S
C191 C192 1.392 . S
C191 N195 1.328 . S
C191 H197 0.930 . S
C192 C191 1.392 . S
C192 N196 1.331 . S
C193 C194 1.391 . S
C193 N196 1.329 . S
C193 H203 0.930 . S
C194 C193 1.391 . S
C194 N195 1.334 . S
C194 H201 0.930 . S
N195 Zn179 2.119 . S
N195 C191 1.328 . S
N195 C194 1.334 . S
N196 C192 1.331 . S
N196 C193 1.329 . S
H197 C191 0.930 . S
C198 O178 1.257 . S
C198 O199 1.244 . S
O199 C198 1.244 . S
O200 C176 1.257 . S
O200 Zn179 2.019 . S
H201 C194 0.930 . S
H202 C181 0.930 . S
H203 C193 0.930 . S
Zn204 N208 2.020 . S
Zn204 O212 2.019 . S
Zn204 N214 2.119 . S
Zn204 O222 1.975 . S
C205 N206 1.334 . S
C205 N209 1.336 . S
N206 C205 1.334 . S
N206 C207 1.334 . S
C207 N206 1.334 . S
C207 N208 1.336 . S
N208 Zn204 2.020 . S
N208 C207 1.336 . S
N208 N209 1.354 . S
N209 C205 1.336 . S
N209 N208 1.354 . S
N209 Zn213 2.020 . S
C210 O211 1.244 . S
C210 O234 1.257 . S
O211 C210 1.244 . S
O212 Zn204 2.019 . S
O212 C232 1.257 . S
Zn213 N209 2.020 . S
Zn213 O220 1.975 . S
Zn213 N229 2.119 . S
Zn213 O234 2.019 . S
N214 Zn204 2.119 . S
N214 C216 1.334 . S
N214 C217 1.328 . S
C215 C216 1.391 . S
C215 N218 1.329 . S
C215 H236 0.930 . S
C216 N214 1.334 . S
C216 C215 1.391 . S
C216 H223 0.930 . S
C217 N214 1.328 . S
C217 C219 1.392 . S
C217 H224 0.930 . S
N218 C215 1.329 . S
N218 C219 1.331 . S
C219 C217 1.392 . S
C219 N218 1.331 . S
O220 Zn213 1.975 . S
O220 C221 1.252 . S
C221 O220 1.252 . S
C221 O222 1.252 . S
O222 Zn204 1.975 . S
O222 C221 1.252 . S
H223 C216 0.930 . S
H224 C217 0.930 . S
C225 C226 1.392 . S
C225 N229 1.328 . S
C225 H231 0.930 . S
C226 C225 1.392 . S
C226 N230 1.331 . S
C227 C228 1.391 . S
C227 N230 1.329 . S
C227 H237 0.930 . S
C228 C227 1.391 . S
C228 N229 1.334 . S
C228 H235 0.930 . S
N229 Zn213 2.119 . S
N229 C225 1.328 . S
N229 C228 1.334 . S
N230 C226 1.331 . S
N230 C227 1.329 . S
H231 C225 0.930 . S
C232 O212 1.257 . S
C232 O233 1.244 . S
O233 C232 1.244 . S
O234 C210 1.257 . S
O234 Zn213 2.019 . S
H235 C228 0.930 . S
H236 C215 0.930 . S
H237 C227 0.930 . S
Zn238 N242 2.020 . S
Zn238 O246 2.019 . S
Zn238 N248 2.119 . S
Zn238 O256 1.975 . S
C239 N240 1.334 . S
C239 N243 1.336 . S
N240 C239 1.334 . S
N240 C241 1.334 . S
C241 N240 1.334 . S
C241 N242 1.336 . S
N242 Zn238 2.020 . S
N242 C241 1.336 . S
N242 N243 1.354 . S
N243 C239 1.336 . S
N243 N242 1.354 . S
N243 Zn247 2.020 . S
C244 O245 1.244 . S
C244 O268 1.257 . S
O245 C244 1.244 . S
O246 Zn238 2.019 . S
O246 C266 1.257 . S
Zn247 N243 2.020 . S
Zn247 O254 1.975 . S
Zn247 N263 2.119 . S
Zn247 O268 2.019 . S
N248 Zn238 2.119 . S
N248 C250 1.334 . S
N248 C251 1.328 . S
C249 C250 1.391 . S
C249 N252 1.329 . S
C249 H270 0.930 . S
C250 N248 1.334 . S
C250 C249 1.391 . S
C250 H257 0.930 . S
C251 N248 1.328 . S
C251 C253 1.392 . S
C251 H258 0.930 . S
N252 C249 1.329 . S
N252 C253 1.331 . S
C253 C251 1.392 . S
C253 N252 1.331 . S
O254 Zn247 1.975 . S
O254 C255 1.252 . S
C255 O254 1.252 . S
C255 O256 1.252 . S
O256 Zn238 1.975 . S
O256 C255 1.252 . S
H257 C250 0.930 . S
H258 C251 0.930 . S
C259 C260 1.392 . S
C259 N263 1.328 . S
C259 H265 0.930 . S
C260 C259 1.392 . S
C260 N264 1.331 . S
C261 C262 1.391 . S
C261 N264 1.329 . S
C261 H271 0.930 . S
C262 C261 1.391 . S
C262 N263 1.334 . S
C262 H269 0.930 . S
N263 Zn247 2.119 . S
N263 C259 1.328 . S
N263 C262 1.334 . S
N264 C260 1.331 . S
N264 C261 1.329 . S
H265 C259 0.930 . S
C266 O246 1.257 . S
C266 O267 1.244 . S
O267 C266 1.244 . S
O268 C244 1.257 . S
O268 Zn247 2.019 . S
H269 C262 0.930 . S
H270 C249 0.930 . S
H271 C261 0.930 . S
H272 C280 0.950 . S
H273 C285 0.950 . S
H274 C282 0.950 . S
H275 C284 0.950 . S
H276 C286 0.950 . S
H277 C288 0.950 . S
H278 C290 0.950 . S
H279 C291 0.950 . S
C280 H272 0.950 . S
C280 C281 1.386 . S
C280 C282 1.391 . S
C281 C280 1.386 . S
C281 C285 1.393 . S
C282 H274 0.950 . S
C282 C280 1.391 . S
C282 C283 1.400 . S
C283 C282 1.400 . S
C283 C284 1.398 . S
C283 C289 1.491 . S
C284 H275 0.950 . S
C284 C283 1.398 . S
C284 C285 1.391 . S
C285 H273 0.950 . S
C285 C281 1.393 . S
C285 C284 1.391 . S
C286 H276 0.950 . S
C286 C287 1.386 . S
C286 C288 1.391 . S
C287 C286 1.386 . S
C287 C291 1.393 . S
C288 H277 0.950 . S
C288 C286 1.391 . S
C288 C289 1.400 . S
C289 C283 1.491 . S
C289 C288 1.400 . S
C289 C290 1.398 . S
C290 H278 0.950 . S
C290 C289 1.398 . S
C290 C291 1.391 . S
C291 H279 0.950 . S
C291 C287 1.393 . S
C291 C290 1.391 . S
H292 C300 0.950 . S
H293 C305 0.950 . S
H294 C302 0.950 . S
H295 C304 0.950 . S
H296 C306 0.950 . S
H297 C308 0.950 . S
H298 C310 0.950 . S
H299 C311 0.950 . S
C300 H292 0.950 . S
C300 C301 1.386 . S
C300 C302 1.391 . S
C301 C300 1.386 . S
C301 C305 1.393 . S
C302 H294 0.950 . S
C302 C300 1.391 . S
C302 C303 1.400 . S
C303 C302 1.400 . S
C303 C304 1.398 . S
C303 C309 1.491 . S
C304 H295 0.950 . S
C304 C303 1.398 . S
C304 C305 1.391 . S
C305 H293 0.950 . S
C305 C301 1.393 . S
C305 C304 1.391 . S
C306 H296 0.950 . S
C306 C307 1.386 . S
C306 C308 1.391 . S
C307 C306 1.386 . S
C307 C311 1.393 . S
C308 H297 0.950 . S
C308 C306 1.391 . S
C308 C309 1.400 . S
C309 C303 1.491 . S
C309 C308 1.400 . S
C309 C310 1.398 . S
C310 H298 0.950 . S
C310 C309 1.398 . S
C310 C311 1.391 . S
C311 H299 0.950 . S
C311 C307 1.393 . S
C311 C310 1.391 . S
H312 C320 0.950 . S
H313 C325 0.950 . S
H314 C322 0.950 . S
H315 C324 0.950 . S
H316 C326 0.950 . S
H317 C328 0.950 . S
H318 C330 0.950 . S
H319 C331 0.950 . S
C320 H312 0.950 . S
C320 C321 1.386 . S
C320 C322 1.391 . S
C321 C320 1.386 . S
C321 C325 1.393 . S
C322 H314 0.950 . S
C322 C320 1.391 . S
C322 C323 1.400 . S
C323 C322 1.400 . S
C323 C324 1.398 . S
C323 C329 1.491 . S
C324 H315 0.950 . S
C324 C323 1.398 . S
C324 C325 1.391 . S
C325 H313 0.950 . S
C325 C321 1.393 . S
C325 C324 1.391 . S
C326 H316 0.950 . S
C326 C327 1.386 . S
C326 C328 1.391 . S
C327 C326 1.386 . S
C327 C331 1.393 . S
C328 H317 0.950 . S
C328 C326 1.391 . S
C328 C329 1.400 . S
C329 C323 1.491 . S
C329 C328 1.400 . S
C329 C330 1.398 . S
C330 H318 0.950 . S
C330 C329 1.398 . S
C330 C331 1.391 . S
C331 H319 0.950 . S
C331 C327 1.393 . S
C331 C330 1.391 . S
H332 C340 0.950 . S
H333 C345 0.950 1_655 S
H334 C342 0.950 . S
H335 C344 0.950 . S
H336 C346 0.950 . S
H337 C348 0.950 . S
H338 C350 0.950 . S
H339 C351 0.950 . S
C340 H332 0.950 . S
C340 C341 1.386 . S
C340 C342 1.391 . S
C341 C340 1.386 . S
C341 C345 1.393 . S
C342 H334 0.950 . S
C342 C340 1.391 . S
C342 C343 1.400 . S
C343 C342 1.400 . S
C343 C344 1.398 . S
C343 C349 1.491 . S
C344 H335 0.950 . S
C344 C343 1.398 . S
C344 C345 1.391 . S
C345 H333 0.950 1_455 S
C345 C341 1.393 . S
C345 C344 1.391 . S
C346 H336 0.950 . S
C346 C347 1.386 . S
C346 C348 1.391 . S
C347 C346 1.386 . S
C347 C351 1.393 . S
C348 H337 0.950 . S
C348 C346 1.391 . S
C348 C349 1.400 . S
C349 C343 1.491 . S
C349 C348 1.400 . S
C349 C350 1.398 . S
C350 H338 0.950 . S
C350 C349 1.398 . S
C350 C351 1.391 . S
C351 H339 0.950 . S
C351 C347 1.393 . S
C351 C350 1.391 . S
H352 C360 0.950 . S
H353 C365 0.950 . S
H354 C362 0.950 . S
H355 C364 0.950 . S
H356 C366 0.950 . S
H357 C368 0.950 . S
H358 C370 0.950 . S
H359 C371 0.950 . S
C360 H352 0.950 . S
C360 C361 1.386 . S
C360 C362 1.391 . S
C361 C360 1.386 . S
C361 C365 1.393 . S
C362 H354 0.950 . S
C362 C360 1.391 . S
C362 C363 1.400 . S
C363 C362 1.400 . S
C363 C364 1.398 . S
C363 C369 1.491 . S
C364 H355 0.950 . S
C364 C363 1.398 . S
C364 C365 1.391 . S
C365 H353 0.950 . S
C365 C361 1.393 . S
C365 C364 1.391 . S
C366 H356 0.950 . S
C366 C367 1.386 . S
C366 C368 1.391 . S
C367 C366 1.386 . S
C367 C371 1.393 . S
C368 H357 0.950 . S
C368 C366 1.391 . S
C368 C369 1.400 . S
C369 C363 1.491 . S
C369 C368 1.400 . S
C369 C370 1.398 . S
C370 H358 0.950 . S
C370 C369 1.398 . S
C370 C371 1.391 . S
C371 H359 0.950 . S
C371 C367 1.393 . S
C371 C370 1.391 . S
H372 C380 0.950 . S
H373 C385 0.950 . S
H374 C382 0.950 . S
H375 C384 0.950 . S
H376 C386 0.950 . S
H377 C388 0.950 . S
H378 C390 0.950 . S
H379 C391 0.950 . S
C380 H372 0.950 . S
C380 C381 1.386 . S
C380 C382 1.391 . S
C381 C380 1.386 . S
C381 C385 1.393 . S
C382 H374 0.950 . S
C382 C380 1.391 . S
C382 C383 1.400 . S
C383 C382 1.400 . S
C383 C384 1.398 . S
C383 C389 1.491 . S
C384 H375 0.950 . S
C384 C383 1.398 . S
C384 C385 1.391 . S
C385 H373 0.950 . S
C385 C381 1.393 . S
C385 C384 1.391 . S
C386 H376 0.950 . S
C386 C387 1.386 . S
C386 C388 1.391 . S
C387 C386 1.386 . S
C387 C391 1.393 . S
C388 H377 0.950 . S
C388 C386 1.391 . S
C388 C389 1.400 . S
C389 C383 1.491 . S
C389 C388 1.400 . S
C389 C390 1.398 . S
C390 H378 0.950 . S
C390 C389 1.398 . S
C390 C391 1.391 . S
C391 H379 0.950 . S
C391 C387 1.393 . S
C391 C390 1.391 . S
H392 C400 0.950 . S
H393 C405 0.950 . S
H394 C402 0.950 . S
H395 C404 0.950 . S
H396 C406 0.950 . S
H397 C408 0.950 . S
H398 C410 0.950 . S
H399 C411 0.950 . S
C400 H392 0.950 . S
C400 C401 1.386 . S
C400 C402 1.391 . S
C401 C400 1.386 . S
C401 C405 1.393 . S
C402 H394 0.950 . S
C402 C400 1.391 . S
C402 C403 1.400 . S
C403 C402 1.400 . S
C403 C404 1.398 . S
C403 C409 1.491 . S
C404 H395 0.950 . S
C404 C403 1.398 . S
C404 C405 1.391 . S
C405 H393 0.950 . S
C405 C401 1.393 . S
C405 C404 1.391 . S
C406 H396 0.950 . S
C406 C407 1.386 . S
C406 C408 1.391 . S
C407 C406 1.386 . S
C407 C411 1.393 . S
C408 H397 0.950 . S
C408 C406 1.391 . S
C408 C409 1.400 . S
C409 C403 1.491 . S
C409 C408 1.400 . S
C409 C410 1.398 . S
C410 H398 0.950 . S
C410 C409 1.398 . S
C410 C411 1.391 . S
C411 H399 0.950 . S
C411 C407 1.393 . S
C411 C410 1.391 . S
H412 C420 0.950 . S
H413 C425 0.950 . S
H414 C422 0.950 . S
H415 C424 0.950 . S
H416 C426 0.950 . S
H417 C428 0.950 . S
H418 C430 0.950 . S
H419 C431 0.950 . S
C420 H412 0.950 . S
C420 C421 1.386 . S
C420 C422 1.391 . S
C421 C420 1.386 . S
C421 C425 1.393 . S
C422 H414 0.950 . S
C422 C420 1.391 . S
C422 C423 1.400 . S
C423 C422 1.400 . S
C423 C424 1.398 . S
C423 C429 1.491 . S
C424 H415 0.950 . S
C424 C423 1.398 . S
C424 C425 1.391 . S
C425 H413 0.950 . S
C425 C421 1.393 . S
C425 C424 1.391 . S
C426 H416 0.950 . S
C426 C427 1.386 . S
C426 C428 1.391 . S
C427 C426 1.386 . S
C427 C431 1.393 . S
C428 H417 0.950 . S
C428 C426 1.391 . S
C428 C429 1.400 . S
C429 C423 1.491 . S
C429 C428 1.400 . S
C429 C430 1.398 . S
C430 H418 0.950 . S
C430 C429 1.398 . S
C430 C431 1.391 . S
C431 H419 0.950 . S
C431 C427 1.393 . S
C431 C430 1.391 . S
H432 C440 0.950 . S
H433 C445 0.950 1_556 S
H434 C442 0.950 . S
H435 C444 0.950 1_556 S
H436 C446 0.950 1_556 S
H437 C448 0.950 1_556 S
H438 C450 0.950 . S
H439 C451 0.950 . S
C440 H432 0.950 . S
C440 C441 1.386 . S
C440 C442 1.391 . S
C441 C440 1.386 . S
C441 C445 1.393 1_545 S
C442 H434 0.950 . S
C442 C440 1.391 . S
C442 C443 1.400 . S
C443 C442 1.400 . S
C443 C444 1.398 1_545 S
C443 C449 1.491 1_545 S
C444 H435 0.950 1_554 S
C444 C443 1.398 1_565 S
C444 C445 1.391 . S
C445 H433 0.950 1_554 S
C445 C441 1.393 1_565 S
C445 C444 1.391 . S
C446 H436 0.950 1_554 S
C446 C447 1.386 . S
C446 C448 1.391 . S
C447 C446 1.386 . S
C447 C451 1.393 1_565 S
C448 H437 0.950 1_554 S
C448 C446 1.391 . S
C448 C449 1.400 . S
C449 C443 1.491 1_565 S
C449 C448 1.400 . S
C449 C450 1.398 1_565 S
C450 H438 0.950 . S
C450 C449 1.398 1_545 S
C450 C451 1.391 . S
C451 H439 0.950 . S
C451 C447 1.393 1_545 S
C451 C450 1.391 . S
H452 C460 0.950 . S
H453 C465 0.950 . S
H454 C462 0.950 . S
H455 C464 0.950 . S
H456 C466 0.950 . S
H457 C468 0.950 . S
H458 C470 0.950 . S
H459 C471 0.950 . S
C460 H452 0.950 . S
C460 C461 1.386 . S
C460 C462 1.391 . S
C461 C460 1.386 . S
C461 C465 1.393 1_655 S
C462 H454 0.950 . S
C462 C460 1.391 . S
C462 C463 1.400 . S
C463 C462 1.400 . S
C463 C464 1.398 1_655 S
C463 C469 1.491 1_655 S
C464 H455 0.950 . S
C464 C463 1.398 1_455 S
C464 C465 1.391 . S
C465 H453 0.950 . S
C465 C461 1.393 1_455 S
C465 C464 1.391 . S
C466 H456 0.950 . S
C466 C467 1.386 . S
C466 C468 1.391 . S
C467 C466 1.386 . S
C467 C471 1.393 1_455 S
C468 H457 0.950 . S
C468 C466 1.391 . S
C468 C469 1.400 . S
C469 C463 1.491 1_455 S
C469 C468 1.400 . S
C469 C470 1.398 1_455 S
C470 H458 0.950 . S
C470 C469 1.398 1_655 S
C470 C471 1.391 . S
C471 H459 0.950 . S
C471 C467 1.393 1_655 S
C471 C470 1.391 . S
H472 C480 0.950 . S
H473 C485 0.950 . S
H474 C482 0.950 . S
H475 C484 0.950 . S
H476 C486 0.950 . S
H477 C488 0.950 . S
H478 C490 0.950 . S
H479 C491 0.950 . S
C480 H472 0.950 . S
C480 C481 1.386 . S
C480 C482 1.391 . S
C481 C480 1.386 . S
C481 C485 1.393 . S
C482 H474 0.950 . S
C482 C480 1.391 . S
C482 C483 1.400 . S
C483 C482 1.400 . S
C483 C484 1.398 . S
C483 C489 1.491 1_655 S
C484 H475 0.950 . S
C484 C483 1.398 . S
C484 C485 1.391 . S
C485 H473 0.950 . S
C485 C481 1.393 . S
C485 C484 1.391 . S
C486 H476 0.950 . S
C486 C487 1.386 . S
C486 C488 1.391 . S
C487 C486 1.386 . S
C487 C491 1.393 . S
C488 H477 0.950 . S
C488 C486 1.391 . S
C488 C489 1.400 . S
C489 C483 1.491 1_455 S
C489 C488 1.400 . S
C489 C490 1.398 . S
C490 H478 0.950 . S
C490 C489 1.398 . S
C490 C491 1.391 . S
C491 H479 0.950 . S
C491 C487 1.393 . S
C491 C490 1.391 . S
H492 C500 0.950 . S
H493 C505 0.950 . S
H494 C502 0.950 . S
H495 C504 0.950 . S
H496 C506 0.950 . S
H497 C508 0.950 . S
H498 C510 0.950 . S
H499 C511 0.950 . S
C500 H492 0.950 . S
C500 C501 1.386 . S
C500 C502 1.391 . S
C501 C500 1.386 . S
C501 C505 1.393 . S
C502 H494 0.950 . S
C502 C500 1.391 . S
C502 C503 1.400 . S
C503 C502 1.400 . S
C503 C504 1.398 . S
C503 C509 1.491 1_545 S
C504 H495 0.950 . S
C504 C503 1.398 . S
C504 C505 1.391 . S
C505 H493 0.950 . S
C505 C501 1.393 . S
C505 C504 1.391 . S
C506 H496 0.950 . S
C506 C507 1.386 . S
C506 C508 1.391 . S
C507 C506 1.386 . S
C507 C511 1.393 . S
C508 H497 0.950 . S
C508 C506 1.391 . S
C508 C509 1.400 . S
C509 C503 1.491 1_565 S
C509 C508 1.400 . S
C509 C510 1.398 . S
C510 H498 0.950 . S
C510 C509 1.398 . S
C510 C511 1.391 . S
C511 H499 0.950 . S
C511 C507 1.393 . S
C511 C510 1.391 . S
H512 C520 0.950 . S
H513 C525 0.950 . S
H514 C522 0.950 . S
H515 C524 0.950 . S
H516 C526 0.950 . S
H517 C528 0.950 . S
H518 C530 0.950 . S
H519 C531 0.950 . S
C520 H512 0.950 . S
C520 C521 1.386 . S
C520 C522 1.391 . S
C521 C520 1.386 . S
C521 C525 1.393 . S
C522 H514 0.950 . S
C522 C520 1.391 . S
C522 C523 1.400 . S
C523 C522 1.400 . S
C523 C524 1.398 . S
C523 C529 1.491 . S
C524 H515 0.950 . S
C524 C523 1.398 . S
C524 C525 1.391 . S
C525 H513 0.950 . S
C525 C521 1.393 . S
C525 C524 1.391 . S
C526 H516 0.950 . S
C526 C527 1.386 . S
C526 C528 1.391 . S
C527 C526 1.386 . S
C527 C531 1.393 . S
C528 H517 0.950 . S
C528 C526 1.391 . S
C528 C529 1.400 . S
C529 C523 1.491 . S
C529 C528 1.400 . S
C529 C530 1.398 . S
C530 H518 0.950 . S
C530 C529 1.398 . S
C530 C531 1.391 . S
C531 H519 0.950 . S
C531 C527 1.393 . S
C531 C530 1.391 . S
H532 C540 0.950 . S
H533 C545 0.950 . S
H534 C542 0.950 . S
H535 C544 0.950 . S
H536 C546 0.950 . S
H537 C548 0.950 . S
H538 C550 0.950 . S
H539 C551 0.950 . S
C540 H532 0.950 . S
C540 C541 1.386 . S
C540 C542 1.391 . S
C541 C540 1.386 . S
C541 C545 1.393 . S
C542 H534 0.950 . S
C542 C540 1.391 . S
C542 C543 1.400 . S
C543 C542 1.400 . S
C543 C544 1.398 . S
C543 C549 1.491 . S
C544 H535 0.950 . S
C544 C543 1.398 . S
C544 C545 1.391 . S
C545 H533 0.950 . S
C545 C541 1.393 . S
C545 C544 1.391 . S
C546 H536 0.950 . S
C546 C547 1.386 . S
C546 C548 1.391 . S
C547 C546 1.386 . S
C547 C551 1.393 . S
C548 H537 0.950 . S
C548 C546 1.391 . S
C548 C549 1.400 . S
C549 C543 1.491 . S
C549 C548 1.400 . S
C549 C550 1.398 . S
C550 H538 0.950 . S
C550 C549 1.398 . S
C550 C551 1.391 . S
C551 H539 0.950 . S
C551 C547 1.393 . S
C551 C550 1.391 . S
H552 C560 0.950 . S
H553 C565 0.950 . S
H554 C562 0.950 . S
H555 C564 0.950 . S
H556 C566 0.950 . S
H557 C568 0.950 . S
H558 C570 0.950 . S
H559 C571 0.950 . S
C560 H552 0.950 . S
C560 C561 1.386 . S
C560 C562 1.391 . S
C561 C560 1.386 . S
C561 C565 1.393 . S
C562 H554 0.950 . S
C562 C560 1.391 . S
C562 C563 1.400 . S
C563 C562 1.400 . S
C563 C564 1.398 . S
C563 C569 1.491 . S
C564 H555 0.950 . S
C564 C563 1.398 . S
C564 C565 1.391 . S
C565 H553 0.950 . S
C565 C561 1.393 . S
C565 C564 1.391 . S
C566 H556 0.950 . S
C566 C567 1.386 . S
C566 C568 1.391 . S
C567 C566 1.386 . S
C567 C571 1.393 . S
C568 H557 0.950 . S
C568 C566 1.391 . S
C568 C569 1.400 . S
C569 C563 1.491 . S
C569 C568 1.400 . S
C569 C570 1.398 . S
C570 H558 0.950 . S
C570 C569 1.398 . S
C570 C571 1.391 . S
C571 H559 0.950 . S
C571 C567 1.393 . S
C571 C570 1.391 . S
H572 C580 0.950 . S
H573 C585 0.950 . S
H574 C582 0.950 . S
H575 C584 0.950 . S
H576 C586 0.950 . S
H577 C588 0.950 . S
H578 C590 0.950 . S
H579 C591 0.950 . S
C580 H572 0.950 . S
C580 C581 1.386 . S
C580 C582 1.391 . S
C581 C580 1.386 . S
C581 C585 1.393 . S
C582 H574 0.950 . S
C582 C580 1.391 . S
C582 C583 1.400 . S
C583 C582 1.400 . S
C583 C584 1.398 . S
C583 C589 1.491 . S
C584 H575 0.950 . S
C584 C583 1.398 . S
C584 C585 1.391 . S
C585 H573 0.950 . S
C585 C581 1.393 . S
C585 C584 1.391 . S
C586 H576 0.950 . S
C586 C587 1.386 . S
C586 C588 1.391 . S
C587 C586 1.386 . S
C587 C591 1.393 . S
C588 H577 0.950 . S
C588 C586 1.391 . S
C588 C589 1.400 . S
C589 C583 1.491 . S
C589 C588 1.400 . S
C589 C590 1.398 . S
C590 H578 0.950 . S
C590 C589 1.398 . S
C590 C591 1.391 . S
C591 H579 0.950 . S
C591 C587 1.393 . S
C591 C590 1.391 . S
H592 C600 0.950 . S
H593 C605 0.950 . S
H594 C602 0.950 . S
H595 C604 0.950 . S
H596 C606 0.950 . S
H597 C608 0.950 . S
H598 C610 0.950 . S
H599 C611 0.950 . S
C600 H592 0.950 . S
C600 C601 1.386 . S
C600 C602 1.391 . S
C601 C600 1.386 . S
C601 C605 1.393 . S
C602 H594 0.950 . S
C602 C600 1.391 . S
C602 C603 1.400 . S
C603 C602 1.400 . S
C603 C604 1.398 . S
C603 C609 1.491 . S
C604 H595 0.950 . S
C604 C603 1.398 . S
C604 C605 1.391 . S
C605 H593 0.950 . S
C605 C601 1.393 . S
C605 C604 1.391 . S
C606 H596 0.950 . S
C606 C607 1.386 . S
C606 C608 1.391 . S
C607 C606 1.386 . S
C607 C611 1.393 . S
C608 H597 0.950 . S
C608 C606 1.391 . S
C608 C609 1.400 . S
C609 C603 1.491 . S
C609 C608 1.400 . S
C609 C610 1.398 . S
C610 H598 0.950 . S
C610 C609 1.398 . S
C610 C611 1.391 . S
C611 H599 0.950 . S
C611 C607 1.393 . S
C611 C610 1.391 . S
H612 C620 0.950 . S
H613 C625 0.950 . S
H614 C622 0.950 . S
H615 C624 0.950 . S
H616 C626 0.950 . S
H617 C628 0.950 . S
H618 C630 0.950 . S
H619 C631 0.950 . S
C620 H612 0.950 . S
C620 C621 1.386 . S
C620 C622 1.391 . S
C621 C620 1.386 . S
C621 C625 1.393 . S
C622 H614 0.950 . S
C622 C620 1.391 . S
C622 C623 1.400 . S
C623 C622 1.400 . S
C623 C624 1.398 . S
C623 C629 1.491 . S
C624 H615 0.950 . S
C624 C623 1.398 . S
C624 C625 1.391 . S
C625 H613 0.950 . S
C625 C621 1.393 . S
C625 C624 1.391 . S
C626 H616 0.950 . S
C626 C627 1.386 . S
C626 C628 1.391 . S
C627 C626 1.386 . S
C627 C631 1.393 . S
C628 H617 0.950 . S
C628 C626 1.391 . S
C628 C629 1.400 . S
C629 C623 1.491 . S
C629 C628 1.400 . S
C629 C630 1.398 . S
C630 H618 0.950 . S
C630 C629 1.398 . S
C630 C631 1.391 . S
C631 H619 0.950 . S
C631 C627 1.393 . S
C631 C630 1.391 . S
H632 C640 0.950 . S
H633 C645 0.950 . S
H634 C642 0.950 . S
H635 C644 0.950 . S
H636 C646 0.950 . S
H637 C648 0.950 . S
H638 C650 0.950 . S
H639 C651 0.950 . S
C640 H632 0.950 . S
C640 C641 1.386 . S
C640 C642 1.391 . S
C641 C640 1.386 . S
C641 C645 1.393 . S
C642 H634 0.950 . S
C642 C640 1.391 . S
C642 C643 1.400 . S
C643 C642 1.400 . S
C643 C644 1.398 . S
C643 C649 1.491 . S
C644 H635 0.950 . S
C644 C643 1.398 . S
C644 C645 1.391 . S
C645 H633 0.950 . S
C645 C641 1.393 . S
C645 C644 1.391 . S
C646 H636 0.950 . S
C646 C647 1.386 . S
C646 C648 1.391 . S
C647 C646 1.386 . S
C647 C651 1.393 . S
C648 H637 0.950 . S
C648 C646 1.391 . S
C648 C649 1.400 . S
C649 C643 1.491 . S
C649 C648 1.400 . S
C649 C650 1.398 . S
C650 H638 0.950 . S
C650 C649 1.398 . S
C650 C651 1.391 . S
C651 H639 0.950 . S
C651 C647 1.393 . S
C651 C650 1.391 . S
H652 C660 0.950 . S
H653 C665 0.950 . S
H654 C662 0.950 . S
H655 C664 0.950 . S
H656 C666 0.950 . S
H657 C668 0.950 . S
H658 C670 0.950 . S
H659 C671 0.950 . S
C660 H652 0.950 . S
C660 C661 1.386 . S
C660 C662 1.391 . S
C661 C660 1.386 . S
C661 C665 1.393 . S
C662 H654 0.950 . S
C662 C660 1.391 . S
C662 C663 1.400 . S
C663 C662 1.400 . S
C663 C664 1.398 . S
C663 C669 1.491 . S
C664 H655 0.950 . S
C664 C663 1.398 . S
C664 C665 1.391 . S
C665 H653 0.950 . S
C665 C661 1.393 . S
C665 C664 1.391 . S
C666 H656 0.950 . S
C666 C667 1.386 . S
C666 C668 1.391 . S
C667 C666 1.386 . S
C667 C671 1.393 . S
C668 H657 0.950 . S
C668 C666 1.391 . S
C668 C669 1.400 . S
C669 C663 1.491 . S
C669 C668 1.400 . S
C669 C670 1.398 . S
C670 H658 0.950 . S
C670 C669 1.398 . S
C670 C671 1.391 . S
C671 H659 0.950 . S
C671 C667 1.393 . S
C671 C670 1.391 . S
H672 C680 0.950 . S
H673 C685 0.950 . S
H674 C682 0.950 . S
H675 C684 0.950 . S
H676 C686 0.950 1_554 S
H677 C688 0.950 1_554 S
H678 C690 0.950 . S
H679 C691 0.950 . S
C680 H672 0.950 . S
C680 C681 1.386 . S
C680 C682 1.391 1_545 S
C681 C680 1.386 . S
C681 C685 1.393 1_546 S
C682 H674 0.950 . S
C682 C680 1.391 1_565 S
C682 C683 1.400 . S
C683 C682 1.400 . S
C683 C684 1.398 1_556 S
C683 C689 1.491 . S
C684 H675 0.950 . S
C684 C683 1.398 1_554 S
C684 C685 1.391 . S
C685 H673 0.950 . S
C685 C681 1.393 1_564 S
C685 C684 1.391 . S
C686 H676 0.950 1_556 S
C686 C687 1.386 . S
C686 C688 1.391 . S
C687 C686 1.386 . S
C687 C691 1.393 . S
C688 H677 0.950 1_556 S
C688 C686 1.391 . S
C688 C689 1.400 . S
C689 C683 1.491 . S
C689 C688 1.400 . S
C689 C690 1.398 . S
C690 H678 0.950 . S
C690 C689 1.398 . S
C690 C691 1.391 . S
C691 H679 0.950 . S
C691 C687 1.393 . S
C691 C690 1.391 . S
H692 C700 0.950 1_556 S
H693 C705 0.950 . S
H694 C702 0.950 . S
H695 C704 0.950 . S
H696 C706 0.950 . S
H697 C708 0.950 . S
H698 C710 0.950 . S
H699 C711 0.950 . S
C700 H692 0.950 1_554 S
C700 C701 1.386 . S
C700 C702 1.391 1_455 S
C701 C700 1.386 . S
C701 C705 1.393 1_455 S
C702 H694 0.950 . S
C702 C700 1.391 1_655 S
C702 C703 1.400 . S
C703 C702 1.400 . S
C703 C704 1.398 . S
C703 C709 1.491 . S
C704 H695 0.950 . S
C704 C703 1.398 . S
C704 C705 1.391 . S
C705 H693 0.950 . S
C705 C701 1.393 1_655 S
C705 C704 1.391 . S
C706 H696 0.950 . S
C706 C707 1.386 . S
C706 C708 1.391 . S
C707 C706 1.386 . S
C707 C711 1.393 . S
C708 H697 0.950 . S
C708 C706 1.391 . S
C708 C709 1.400 . S
C709 C703 1.491 . S
C709 C708 1.400 . S
C709 C710 1.398 . S
C710 H698 0.950 . S
C710 C709 1.398 . S
C710 C711 1.391 . S
C711 H699 0.950 . S
C711 C707 1.393 . S
C711 C710 1.391 . S
H712 C720 0.958 . S
H713 C725 0.950 1_565 S
H714 C722 0.950 . S
H715 C724 0.950 . S
H716 C726 0.950 . S
H717 C728 0.950 . S
H718 C730 0.950 . S
H719 C731 0.950 1_554 S
C720 H712 0.958 . S
C720 C721 1.386 1_544 S
C720 C722 1.391 . S
C721 C720 1.386 1_566 S
C721 C725 1.393 1_565 S
C722 H714 0.950 . S
C722 C720 1.391 . S
C722 C723 1.400 1_554 S
C723 C722 1.400 1_556 S
C723 C724 1.398 . S
C723 C729 1.491 . S
C724 H715 0.950 . S
C724 C723 1.398 . S
C724 C725 1.391 . S
C725 H713 0.950 1_545 S
C725 C721 1.393 1_545 S
C725 C724 1.391 . S
C726 H716 0.950 . S
C726 C727 1.386 . S
C726 C728 1.391 . S
C727 C726 1.386 . S
C727 C731 1.393 . S
C728 H717 0.950 . S
C728 C726 1.391 . S
C728 C729 1.400 . S
C729 C723 1.491 . S
C729 C728 1.400 . S
C729 C730 1.398 1_556 S
C730 H718 0.950 . S
C730 C729 1.398 1_554 S
C730 C731 1.391 1_554 S
C731 H719 0.950 1_556 S
C731 C727 1.393 . S
C731 C730 1.391 1_556 S
H732 C740 0.950 1_556 S
H733 C745 0.950 . S
H734 C742 0.953 . S
H735 C744 0.950 . S
H736 C746 0.950 . S
H737 C748 0.950 . S
H738 C750 0.950 . S
H739 C751 0.950 . S
C740 H732 0.950 1_554 S
C740 C741 1.386 . S
C740 C742 1.391 1_655 S
C741 C740 1.386 . S
C741 C745 1.393 1_655 S
C742 H734 0.953 . S
C742 C740 1.391 1_455 S
C742 C743 1.400 . S
C743 C742 1.400 . S
C743 C744 1.398 . S
C743 C749 1.491 . S
C744 H735 0.950 . S
C744 C743 1.398 . S
C744 C745 1.391 . S
C745 H733 0.950 . S
C745 C741 1.393 1_455 S
C745 C744 1.391 . S
C746 H736 0.950 . S
C746 C747 1.386 . S
C746 C748 1.391 . S
C747 C746 1.386 . S
C747 C751 1.393 . S
C748 H737 0.950 . S
C748 C746 1.391 . S
C748 C749 1.400 . S
C749 C743 1.491 . S
C749 C748 1.400 . S
C749 C750 1.398 . S
C750 H738 0.950 . S
C750 C749 1.398 . S
C750 C751 1.391 . S
C751 H739 0.950 . S
C751 C747 1.393 . S
C751 C750 1.391 . S
H752 C760 0.950 . S
H753 C765 0.950 . S
H754 C762 0.950 . S
H755 C764 0.950 . S
H756 C766 0.950 . S
H757 C768 0.950 . S
H758 C770 0.950 . S
H759 C771 0.950 . S
C760 H752 0.950 . S
C760 C761 1.386 . S
C760 C762 1.391 . S
C761 C760 1.386 . S
C761 C765 1.393 . S
C762 H754 0.950 . S
C762 C760 1.391 . S
C762 C763 1.400 . S
C763 C762 1.400 . S
C763 C764 1.398 . S
C763 C769 1.491 . S
C764 H755 0.950 . S
C764 C763 1.398 . S
C764 C765 1.391 . S
C765 H753 0.950 . S
C765 C761 1.393 . S
C765 C764 1.391 . S
C766 H756 0.950 . S
C766 C767 1.386 . S
C766 C768 1.391 . S
C767 C766 1.386 . S
C767 C771 1.393 . S
C768 H757 0.950 . S
C768 C766 1.391 . S
C768 C769 1.400 . S
C769 C763 1.491 . S
C769 C768 1.400 . S
C769 C770 1.398 . S
C770 H758 0.950 . S
C770 C769 1.398 . S
C770 C771 1.391 . S
C771 H759 0.950 . S
C771 C767 1.393 . S
C771 C770 1.391 . S
H772 C780 0.950 . S
H773 C785 0.950 . S
H774 C782 0.950 . S
H775 C784 0.950 . S
H776 C786 0.950 . S
H777 C788 0.950 . S
H778 C790 0.950 . S
H779 C791 0.950 . S
C780 H772 0.950 . S
C780 C781 1.386 . S
C780 C782 1.391 . S
C781 C780 1.386 . S
C781 C785 1.393 . S
C782 H774 0.950 . S
C782 C780 1.391 . S
C782 C783 1.400 . S
C783 C782 1.400 . S
C783 C784 1.398 . S
C783 C789 1.491 . S
C784 H775 0.950 . S
C784 C783 1.398 . S
C784 C785 1.391 . S
C785 H773 0.950 . S
C785 C781 1.393 . S
C785 C784 1.391 . S
C786 H776 0.950 . S
C786 C787 1.386 . S
C786 C788 1.391 . S
C787 C786 1.386 . S
C787 C791 1.393 . S
C788 H777 0.950 . S
C788 C786 1.391 . S
C788 C789 1.400 . S
C789 C783 1.491 . S
C789 C788 1.400 . S
C789 C790 1.398 . S
C790 H778 0.950 . S
C790 C789 1.398 . S
C790 C791 1.391 . S
C791 H779 0.950 . S
C791 C787 1.393 . S
C791 C790 1.391 . S
H792 C800 0.950 . S
H793 C805 0.950 . S
H794 C802 0.950 . S
H795 C804 0.950 . S
H796 C806 0.950 . S
H797 C808 0.950 . S
H798 C810 0.950 . S
H799 C811 0.950 . S
C800 H792 0.950 . S
C800 C801 1.386 . S
C800 C802 1.391 . S
C801 C800 1.386 . S
C801 C805 1.393 . S
C802 H794 0.950 . S
C802 C800 1.391 . S
C802 C803 1.400 . S
C803 C802 1.400 . S
C803 C804 1.398 . S
C803 C809 1.491 . S
C804 H795 0.950 . S
C804 C803 1.398 . S
C804 C805 1.391 . S
C805 H793 0.950 . S
C805 C801 1.393 . S
C805 C804 1.391 . S
C806 H796 0.950 . S
C806 C807 1.386 . S
C806 C808 1.391 . S
C807 C806 1.386 . S
C807 C811 1.393 . S
C808 H797 0.950 . S
C808 C806 1.391 . S
C808 C809 1.400 . S
C809 C803 1.491 . S
C809 C808 1.400 . S
C809 C810 1.398 . S
C810 H798 0.950 . S
C810 C809 1.398 . S
C810 C811 1.391 . S
C811 H799 0.950 . S
C811 C807 1.393 . S
C811 C810 1.391 . S
H812 C820 0.950 . S
H813 C825 0.950 . S
H814 C822 0.950 . S
H815 C824 0.950 . S
H816 C826 0.950 . S
H817 C828 0.950 . S
H818 C830 0.950 . S
H819 C831 0.950 . S
C820 H812 0.950 . S
C820 C821 1.386 . S
C820 C822 1.391 . S
C821 C820 1.386 . S
C821 C825 1.393 . S
C822 H814 0.950 . S
C822 C820 1.391 . S
C822 C823 1.400 . S
C823 C822 1.400 . S
C823 C824 1.398 . S
C823 C829 1.491 . S
C824 H815 0.950 . S
C824 C823 1.398 . S
C824 C825 1.391 . S
C825 H813 0.950 . S
C825 C821 1.393 . S
C825 C824 1.391 . S
C826 H816 0.950 . S
C826 C827 1.386 . S
C826 C828 1.391 . S
C827 C826 1.386 . S
C827 C831 1.393 . S
C828 H817 0.950 . S
C828 C826 1.391 . S
C828 C829 1.400 . S
C829 C823 1.491 . S
C829 C828 1.400 . S
C829 C830 1.398 . S
C830 H818 0.950 . S
C830 C829 1.398 . S
C830 C831 1.391 . S
C831 H819 0.950 . S
C831 C827 1.393 . S
C831 C830 1.391 . S
C281 C15 0.625 . S
C287 C239 0.714 . S
C301 C56 0.638 . S
C307 C139 0.679 . S
C321 C171 0.701 . S
C327 C83 0.632 . S
C341 C117 0.625 . S
C347 C207 0.695 . S
C361 C151 0.641 . S
C367 C105 0.634 . S
C381 C192 0.643 . S
C387 C3 0.639 . S
C401 C219 0.643 . S
C407 C35 0.635 . S
C421 C260 0.627 . S
C427 C71 0.682 . S
C441 C28 1.557 . S
C447 C96 1.565 . S
C461 C130 1.565 . S
C467 C40 1.555 . S
C481 C164 1.553 . S
C487 C232 1.563 . S
C501 C176 1.560 . S
C507 C244 1.554 . S
C521 C205 1.523 . S
C527 C22 1.688 . S
C541 C49 1.698 . S
C547 C241 1.541 . S
C561 C137 1.522 . S
C567 C90 1.686 . S
C581 C124 1.702 . S
C587 C173 1.556 . S
C601 C158 1.702 . S
C607 C69 1.557 . S
C621 C103 1.517 . S
C627 C185 1.682 . S
C641 C226 1.693 . S
C647 C1 1.532 . S
C661 C37 1.518 . S
C667 C253 1.683 . S
C681 C17 1.914 1_556 S
C687 C62 1.941 . S
C701 C51 1.903 1_554 S
C707 C74 1.943 . S
C721 C85 1.910 1_556 S
C727 C108 1.930 . S
C741 C119 1.903 1_554 S
C747 C6 1.943 . S
C761 C198 1.941 . S
C767 C153 1.901 . S
C781 C210 1.944 . S
C787 C187 1.905 . S
C801 C221 1.910 . S
C807 C266 1.930 . S
C821 C142 1.939 . S
C827 C255 1.917 . S
