# Generated by pormake.
# Topology uov, (4)-cn, num edge types: 1
# Building blocks:
#     Node 0, Type 0, BuildingBlock: ICAMEG_clean_sbu_1, # of connection points: 4
#     Node 1, Type 0, BuildingBlock: ICAMEG_clean_sbu_1, # of connection points: 4
#     Node 2, Type 0, BuildingBlock: ICAMEG_clean_sbu_1, # of connection points: 4
#     Node 3, Type 0, BuildingBlock: ICAMEG_clean_sbu_1, # of connection points: 4
#     Node 4, Type 0, BuildingBlock: ICAMEG_clean_sbu_1, # of connection points: 4
#     Node 5, Type 0, BuildingBlock: ICAMEG_clean_sbu_1, # of connection points: 4
#     Node 6, Type 0, BuildingBlock: ICAMEG_clean_sbu_1, # of connection points: 4
#     Node 7, Type 0, BuildingBlock: ICAMEG_clean_sbu_1, # of connection points: 4
#     Edge 8, Type (0, 0), BuildingBlock: XUDNAN_clean_linker_2, # of connection points: 2
#     Edge 9, Type (0, 0), BuildingBlock: XUDNAN_clean_linker_2, # of connection points: 2
#     Edge 10, Type (0, 0), BuildingBlock: XUDNAN_clean_linker_2, # of connection points: 2
#     Edge 11, Type (0, 0), BuildingBlock: XUDNAN_clean_linker_2, # of connection points: 2
#     Edge 12, Type (0, 0), BuildingBlock: XUDNAN_clean_linker_2, # of connection points: 2
#     Edge 13, Type (0, 0), BuildingBlock: XUDNAN_clean_linker_2, # of connection points: 2
#     Edge 14, Type (0, 0), BuildingBlock: XUDNAN_clean_linker_2, # of connection points: 2
#     Edge 15, Type (0, 0), BuildingBlock: XUDNAN_clean_linker_2, # of connection points: 2
#     Edge 16, Type (0, 0), BuildingBlock: XUDNAN_clean_linker_2, # of connection points: 2
#     Edge 17, Type (0, 0), BuildingBlock: XUDNAN_clean_linker_2, # of connection points: 2
#     Edge 18, Type (0, 0), BuildingBlock: XUDNAN_clean_linker_2, # of connection points: 2
#     Edge 19, Type (0, 0), BuildingBlock: XUDNAN_clean_linker_2, # of connection points: 2
#     Edge 20, Type (0, 0), BuildingBlock: XUDNAN_clean_linker_2, # of connection points: 2
#     Edge 21, Type (0, 0), BuildingBlock: XUDNAN_clean_linker_2, # of connection points: 2
#     Edge 22, Type (0, 0), BuildingBlock: XUDNAN_clean_linker_2, # of connection points: 2
#     Edge 23, Type (0, 0), BuildingBlock: XUDNAN_clean_linker_2, # of connection points: 2
# Relax obj value: 0.050
# Max RMSD: 0.045
# Mean RMSD: 0.045
data_MOF--net-uov--node1-ICAMEG_clean_sbu_1--edge1-XUDNAN_clean_linker_2
_symmetry_space_group_name_H-M    P1
_symmetry_Int_Tables_number       1
_symmetry_cell_setting            triclinic
loop_
_symmetry_equiv_pos_as_xyz
'x, y, z'
_cell_length_a     31.858643
_cell_length_b     31.86816
_cell_length_c     47.269223
_cell_angle_alpha  89.998411
_cell_angle_beta   90.016267
_cell_angle_gamma 89.969885
loop_
_atom_site_label
_atom_site_type_symbol
_atom_site_fract_x
_atom_site_fract_y
_atom_site_fract_z
_atom_type_partial_charge
Co0 Co 0.04612 0.2098 0.60696 0.0
Co1 Co 0.10283 0.28964 0.57534 0.0
O2 O 0.07442 0.26437 0.6079 0.0
C3 C 0.10504 0.20152 0.6558 0.0
O4 O 0.13357 0.22253 0.64168 0.0
C5 C 0.04283 0.35974 0.58821 0.0
O6 O 0.01097 0.3346 0.58344 0.0
O7 O 0.05301 0.27967 0.5504 0.0
O8 O 0.02313 0.2218 0.56875 0.0
H9 H 0.14997 0.29748 0.47406 0.0
H10 H 0.03352 0.26633 0.65596 0.0
O11 O 0.06874 0.19535 0.64528 0.0
H12 H 0.89259 0.24517 0.61521 0.0
H13 H 0.96441 0.08998 0.64938 0.0
H14 H 0.03254 0.14426 0.56327 0.0
H15 H 0.95441 0.21042 0.59425 0.0
H16 H 0.99878 0.1593 0.64954 0.0
O17 O 0.0804 0.34626 0.58631 0.0
H18 H 0.11518 0.26545 0.51538 0.0
H19 H 0.15016 0.36938 0.56645 0.0
H20 H 0.99833 0.07496 0.56206 0.0
H21 H 0.9725 0.30149 0.67772 0.0
H22 H 0.96404 0.04727 0.60542 0.0
H23 H 0.90143 0.29101 0.65729 0.0
O24 O 0.09564 0.1826 0.58916 0.0
H25 H 0.17627 0.3372 0.66381 0.0
H26 H 0.19477 0.27425 0.56933 0.0
H27 H 0.25655 0.28484 0.59996 0.0
H28 H 0.2475 0.31662 0.64756 0.0
H29 H 0.11528 0.32554 0.63262 0.0
H30 H 0.185 0.40269 0.52564 0.0
H31 H 0.18517 0.36662 0.47906 0.0
O32 O 0.12679 0.23395 0.56404 0.0
C33 C 0.0266 0.2496 0.54958 0.0
C34 C 0.15022 0.31345 0.49427 0.0
C35 C 0.16983 0.37253 0.52321 0.0
N36 N 0.13089 0.31537 0.54333 0.0
C37 C 0.13068 0.29541 0.51775 0.0
C38 C 0.14996 0.35355 0.54623 0.0
C39 C 0.16992 0.35226 0.49708 0.0
C40 C 0.00263 0.26141 0.6471 0.0
N41 N 0.99747 0.23617 0.624 0.0
C42 C 0.96823 0.28149 0.65944 0.0
C43 C 0.92837 0.27564 0.64795 0.0
C44 C 0.92339 0.24993 0.62433 0.0
C45 C 0.95851 0.2304 0.61253 0.0
C46 C 0.97929 0.10166 0.63037 0.0
C47 C 0.01761 0.13254 0.58216 0.0
C48 C 0.99893 0.14085 0.63035 0.0
N49 N 0.01781 0.15582 0.60643 0.0
C50 C 0.99828 0.09324 0.58137 0.0
C51 C 0.97906 0.07773 0.60569 0.0
C52 C 0.12296 0.19568 0.57155 0.0
C53 C 0.18062 0.32337 0.6431 0.0
C54 C 0.19055 0.28779 0.5901 0.0
C55 C 0.22566 0.29388 0.6073 0.0
C56 C 0.22057 0.31176 0.63399 0.0
N57 N 0.15146 0.29919 0.5992 0.0
C58 C 0.14623 0.31684 0.62531 0.0
Co59 Co 0.21557 0.9504 0.39052 0.0
Co60 Co 0.28756 0.90256 0.4334 0.0
O61 O 0.27052 0.92395 0.39622 0.0
C62 C 0.21599 0.88921 0.34258 0.0
O63 O 0.22469 0.85878 0.36039 0.0
C64 C 0.36152 0.95308 0.41557 0.0
O65 O 0.33584 0.98156 0.40543 0.0
O66 O 0.27704 0.95842 0.45067 0.0
O67 O 0.21636 0.97535 0.4295 0.0
H68 H 0.27279 0.88219 0.53833 0.0
H69 H 0.28248 0.9649 0.34815 0.0
O70 O 0.21276 0.92689 0.35131 0.0
H71 H 0.24573 0.1053 0.38438 0.0
H72 H 0.10531 0.02772 0.33457 0.0
H73 H 0.13874 0.95949 0.42546 0.0
H74 H 0.20913 0.04238 0.40203 0.0
H75 H 0.17491 0.99589 0.34253 0.0
O76 O 0.34725 0.9193 0.42625 0.0
H77 H 0.25197 0.90813 0.49124 0.0
H78 H 0.3606 0.85304 0.45469 0.0
H79 H 0.06897 0.99138 0.41852 0.0
H80 H 0.31952 0.02708 0.32964 0.0
H81 H 0.05181 0.0257 0.37277 0.0
H82 H 0.3013 0.09788 0.34787 0.0
O83 O 0.18692 0.89971 0.40546 0.0
H84 H 0.34485 0.80557 0.35913 0.0
H85 H 0.26372 0.81444 0.44777 0.0
H86 H 0.27497 0.74547 0.42536 0.0
H87 H 0.31586 0.74072 0.38074 0.0
H88 H 0.33256 0.87399 0.38217 0.0
H89 H 0.38291 0.82697 0.50148 0.0
H90 H 0.33875 0.84133 0.54369 0.0
O91 O 0.22859 0.88497 0.44237 0.0
C92 C 0.24368 0.98029 0.44895 0.0
C93 C 0.29224 0.87561 0.52009 0.0
C94 C 0.35406 0.84466 0.49941 0.0
N95 N 0.30481 0.88176 0.47019 0.0
C96 C 0.28053 0.89009 0.49334 0.0
C97 C 0.34131 0.85958 0.47298 0.0
C98 C 0.32926 0.85272 0.52308 0.0
C99 C 0.2741 0.99566 0.35597 0.0
N100 N 0.24365 0.99999 0.3761 0.0
C101 C 0.2953 0.03073 0.3455 0.0
C102 C 0.2851 0.07044 0.35577 0.0
C103 C 0.25396 0.07461 0.37628 0.0
C104 C 0.23345 0.03884 0.38627 0.0
C105 C 0.11242 0.01288 0.3546 0.0
C106 C 0.13166 0.97464 0.40556 0.0
C107 C 0.15174 0.9947 0.3592 0.0
N108 N 0.161 0.97604 0.38449 0.0
C109 C 0.09203 0.99253 0.40173 0.0
C110 C 0.08242 0.01176 0.37605 0.0
C111 C 0.19412 0.88129 0.42886 0.0
C112 C 0.32708 0.80722 0.37861 0.0
C113 C 0.28146 0.81265 0.42832 0.0
C114 C 0.2878 0.77349 0.41576 0.0
C115 C 0.31076 0.77085 0.39073 0.0
N116 N 0.29767 0.84816 0.41633 0.0
C117 C 0.32016 0.84584 0.39179 0.0
Co118 Co 0.95145 0.79768 0.61261 0.0
Co119 Co 0.90179 0.71994 0.57338 0.0
O120 O 0.92407 0.7429 0.60903 0.0
C121 C 0.88969 0.79431 0.66146 0.0
O122 O 0.87224 0.75973 0.65213 0.0
C123 C 0.9653 0.65836 0.59146 0.0
O124 O 0.98948 0.69091 0.59628 0.0
O125 O 0.95297 0.73615 0.55177 0.0
O126 O 0.98272 0.78813 0.57669 0.0
H127 H 0.86653 0.72162 0.46974 0.0
H128 H 0.95536 0.73647 0.65995 0.0
O129 O 0.92083 0.81074 0.64868 0.0
H130 H 0.10266 0.76516 0.63464 0.0
H131 H 0.0233 0.9158 0.66439 0.0
H132 H 0.97067 0.86612 0.57217 0.0
H133 H 0.04491 0.80073 0.60953 0.0
H134 H 0.98972 0.84635 0.66012 0.0
O135 O 0.92811 0.66393 0.58221 0.0
H136 H 0.89458 0.75054 0.51427 0.0
H137 H 0.86171 0.63869 0.55777 0.0
H138 H 0.00456 0.93552 0.57543 0.0
H139 H 0.0121 0.70054 0.68583 0.0
H140 H 0.03102 0.96084 0.62181 0.0
H141 H 0.08641 0.71468 0.67315 0.0
O142 O 0.90504 0.82509 0.5915 0.0
H143 H 0.82157 0.65201 0.65265 0.0
H144 H 0.81018 0.73292 0.56405 0.0
H145 H 0.74586 0.71335 0.58988 0.0
H146 H 0.75132 0.67248 0.63448 0.0
H147 H 0.88512 0.67284 0.62639 0.0
H148 H 0.83372 0.60832 0.51363 0.0
H149 H 0.83586 0.64996 0.46922 0.0
O150 O 0.87602 0.77554 0.5636 0.0
C151 C 0.98088 0.76433 0.55509 0.0
C152 C 0.86526 0.70322 0.48896 0.0
C153 C 0.8469 0.63962 0.51359 0.0
N154 N 0.87939 0.69652 0.53864 0.0
C155 C 0.88093 0.71952 0.51428 0.0
C156 C 0.86287 0.65695 0.53851 0.0
C157 C 0.8481 0.663 0.48869 0.0
C158 C 0.98756 0.74325 0.65455 0.0
N159 N 0.99674 0.77098 0.6334 0.0
C160 C 0.01959 0.72261 0.66918 0.0
C161 C 0.06127 0.7305 0.66202 0.0
C162 C 0.07041 0.75879 0.64041 0.0
C163 C 0.03756 0.77878 0.62622 0.0
C164 C 0.01194 0.90509 0.64405 0.0
C165 C 0.98244 0.87675 0.59239 0.0
C166 C 0.9928 0.86584 0.64152 0.0
N167 N 0.97853 0.85204 0.61588 0.0
C168 C 0.00147 0.91614 0.59412 0.0
C169 C 0.01629 0.93034 0.62015 0.0
C170 C 0.87931 0.8133 0.57242 0.0
C171 C 0.81878 0.66976 0.63322 0.0
C172 C 0.81285 0.71549 0.58358 0.0
C173 C 0.7763 0.70431 0.59804 0.0
C174 C 0.77938 0.68132 0.62304 0.0
N175 N 0.85138 0.70407 0.59372 0.0
C176 C 0.85465 0.68146 0.61817 0.0
Co177 Co 0.79911 0.05901 0.38739 0.0
Co178 Co 0.72221 0.10814 0.42762 0.0
O179 O 0.74321 0.08404 0.39217 0.0
C180 C 0.79675 0.13065 0.34758 0.0
O181 O 0.77704 0.15177 0.36736 0.0
C182 C 0.65397 0.04955 0.4067 0.0
O183 O 0.67609 0.03878 0.38449 0.0
O184 O 0.74528 0.06023 0.44995 0.0
O185 O 0.791 0.02514 0.42245 0.0
H186 H 0.73474 0.15322 0.52912 0.0
H187 H 0.74039 0.05705 0.33861 0.0
O188 O 0.80831 0.09293 0.35207 0.0
H189 H 0.76992 0.9088 0.36097 0.0
H190 H 0.91809 0.99678 0.33114 0.0
H191 H 0.8691 0.03762 0.42619 0.0
H192 H 0.80278 0.96555 0.38864 0.0
H193 H 0.84755 0.02721 0.33778 0.0
O194 O 0.66763 0.07626 0.42456 0.0
H195 H 0.75993 0.12366 0.48398 0.0
H196 H 0.6401 0.14317 0.44682 0.0
H197 H 0.93972 0.00702 0.42054 0.0
H198 H 0.70743 0.0013 0.31006 0.0
H199 H 0.96469 0.98646 0.37272 0.0
H200 H 0.72197 0.92654 0.32128 0.0
O201 O 0.8265 0.10418 0.41003 0.0
H202 H 0.64586 0.17638 0.34625 0.0
H203 H 0.72443 0.20085 0.43456 0.0
H204 H 0.69821 0.26127 0.40726 0.0
H205 H 0.65848 0.24925 0.36278 0.0
H206 H 0.67298 0.11703 0.37396 0.0
H207 H 0.61351 0.17264 0.49163 0.0
H208 H 0.66103 0.17795 0.53315 0.0
O209 O 0.77567 0.13992 0.43255 0.0
C210 C 0.77059 0.02989 0.44545 0.0
C211 C 0.71377 0.15121 0.51116 0.0
C212 C 0.64571 0.16204 0.49012 0.0
N213 N 0.70162 0.13201 0.46274 0.0
C214 C 0.7279 0.13462 0.48552 0.0
C215 C 0.66092 0.14524 0.46483 0.0
C216 C 0.6724 0.16503 0.51341 0.0
C217 C 0.74724 0.02461 0.34343 0.0
N218 N 0.77344 0.01459 0.3653 0.0
C219 C 0.72831 0.99317 0.32728 0.0
C220 C 0.73642 0.95123 0.33361 0.0
C221 C 0.76327 0.94126 0.35591 0.0
C222 C 0.7816 0.97353 0.37161 0.0
C223 C 0.90756 0.00558 0.35209 0.0
C224 C 0.87961 0.02847 0.40534 0.0
C225 C 0.86768 0.0229 0.35597 0.0
N226 N 0.85415 0.034 0.38237 0.0
C227 C 0.91968 0.01127 0.40226 0.0
C228 C 0.93368 0.99977 0.37543 0.0
C229 C 0.81396 0.13398 0.42591 0.0
C230 C 0.66282 0.18202 0.36573 0.0
C231 C 0.70704 0.19526 0.41529 0.0
C232 C 0.69228 0.22965 0.39991 0.0
C233 C 0.67 0.2229 0.37497 0.0
N234 N 0.69959 0.15518 0.40625 0.0
C235 C 0.67799 0.14839 0.38169 0.0
Co236 Co 0.94934 0.20789 0.11383 0.0
Co237 Co 0.89841 0.27932 0.07005 0.0
O238 O 0.92262 0.26244 0.10651 0.0
C239 C 0.88048 0.21312 0.15542 0.0
O240 O 0.85722 0.22823 0.13489 0.0
C241 C 0.94897 0.35404 0.09055 0.0
O242 O 0.95996 0.3346 0.11383 0.0
O243 O 0.94926 0.25997 0.04962 0.0
O244 O 0.98025 0.21113 0.07691 0.0
H245 H 0.86117 0.25846 0.9677 0.0
H246 H 0.95453 0.27274 0.15875 0.0
O247 O 0.91865 0.20327 0.15082 0.0
H248 H 0.10109 0.2429 0.13193 0.0
H249 H 0.01942 0.09891 0.17486 0.0
H250 H 0.96821 0.13277 0.07907 0.0
H251 H 0.04266 0.20552 0.10886 0.0
H252 H 0.98656 0.16747 0.16495 0.0
O253 O 0.9247 0.33676 0.07252 0.0
H254 H 0.89113 0.23854 0.0139 0.0
H255 H 0.85587 0.35641 0.04842 0.0
H256 H 0.00131 0.06402 0.08798 0.0
H257 H 0.01206 0.31031 0.18277 0.0
H258 H 0.0271 0.04669 0.13618 0.0
H259 H 0.08597 0.29564 0.16926 0.0
O260 O 0.90256 0.17705 0.09521 0.0
H261 H 0.81836 0.35293 0.14758 0.0
H262 H 0.80684 0.267 0.06122 0.0
H263 H 0.74261 0.28843 0.08638 0.0
H264 H 0.74809 0.33183 0.12986 0.0
H265 H 0.88163 0.33046 0.12202 0.0
H266 H 0.82603 0.3779 0.00247 0.0
H267 H 0.82834 0.32865 0.96176 0.0
O268 O 0.87237 0.22278 0.0653 0.0
C269 C 0.97763 0.23255 0.05413 0.0
C270 C 0.85975 0.28013 0.98531 0.0
C271 C 0.8401 0.34718 0.00482 0.0
N272 N 0.87466 0.296 0.03394 0.0
C273 C 0.87646 0.26892 0.01156 0.0
C274 C 0.8571 0.33486 0.03077 0.0
C275 C 0.8414 0.31953 0.98199 0.0
C276 C 0.98661 0.2659 0.15294 0.0
N277 N 0.99518 0.23716 0.1323 0.0
C278 C 0.01906 0.28741 0.16653 0.0
C279 C 0.06051 0.27921 0.15891 0.0
C280 C 0.06902 0.24969 0.13793 0.0
C281 C 0.03577 0.22882 0.1248 0.0
C282 C 0.00837 0.10612 0.15376 0.0
C283 C 0.97968 0.12559 0.10005 0.0
C284 C 0.98966 0.14485 0.14803 0.0
N285 N 0.97578 0.15421 0.1214 0.0
C286 C 0.99825 0.08655 0.10499 0.0
C287 C 0.01269 0.07684 0.13205 0.0
C288 C 0.87589 0.18632 0.07612 0.0
C289 C 0.81554 0.33433 0.12851 0.0
C290 C 0.80958 0.286 0.08007 0.0
C291 C 0.77304 0.29804 0.09423 0.0
C292 C 0.77613 0.3224 0.11861 0.0
N293 N 0.84819 0.29812 0.08975 0.0
C294 C 0.85139 0.32179 0.11376 0.0
Co295 Co 0.20481 0.04128 0.89143 0.0
Co296 Co 0.28388 0.09611 0.92562 0.0
O297 O 0.2598 0.0682 0.89233 0.0
C298 C 0.19961 0.10058 0.84238 0.0
O299 O 0.21816 0.12988 0.85738 0.0
C300 C 0.34412 0.02938 0.91205 0.0
O301 O 0.31102 0.00508 0.91002 0.0
O302 O 0.2683 0.04899 0.95128 0.0
O303 O 0.21404 0.01707 0.92978 0.0
H304 H 0.28645 0.14895 0.02583 0.0
H305 H 0.2649 0.02762 0.84454 0.0
O306 O 0.19357 0.0642 0.85276 0.0
H307 H 0.23574 0.8868 0.88308 0.0
H308 H 0.08593 0.96144 0.84624 0.0
H309 H 0.13567 0.03187 0.93287 0.0
H310 H 0.20054 0.94925 0.90277 0.0
H311 H 0.15607 0.99408 0.84782 0.0
O312 O 0.33944 0.0682 0.91783 0.0
H313 H 0.25558 0.11384 0.98428 0.0
H314 H 0.36587 0.13792 0.93659 0.0
H315 H 0.06548 0.99924 0.93232 0.0
H316 H 0.30046 0.96595 0.82394 0.0
H317 H 0.04015 0.96379 0.88875 0.0
H318 H 0.2861 0.89496 0.84334 0.0
O319 O 0.17817 0.09181 0.9085 0.0
H320 H 0.34476 0.16182 0.83815 0.0
H321 H 0.2724 0.18877 0.92857 0.0
H322 H 0.28958 0.24815 0.89715 0.0
H323 H 0.32608 0.23483 0.8516 0.0
H324 H 0.32667 0.10334 0.87011 0.0
H325 H 0.39821 0.17293 0.97772 0.0
H326 H 0.35834 0.17877 0.02271 0.0
O327 O 0.22869 0.12322 0.93442 0.0
C328 C 0.23915 0.02168 0.95051 0.0
C329 C 0.3041 0.14673 0.00632 0.0
C330 C 0.36684 0.16014 0.97933 0.0
N331 N 0.30873 0.12412 0.95798 0.0
C332 C 0.2867 0.127 0.98269 0.0
C333 C 0.3484 0.1402 0.95613 0.0
C334 C 0.34445 0.16341 0.00456 0.0
C335 C 0.25823 0.99676 0.8529 0.0
N336 N 0.23078 0.99202 0.87486 0.0
C337 C 0.27856 0.96199 0.84123 0.0
C338 C 0.27053 0.92217 0.85215 0.0
C339 C 0.24231 0.91757 0.87446 0.0
C340 C 0.22261 0.95306 0.88561 0.0
C341 C 0.09661 0.97678 0.86536 0.0
C342 C 0.12498 0.01627 0.91389 0.0
C343 C 0.13625 0.99544 0.86634 0.0
N344 N 0.15001 0.01474 0.89044 0.0
C345 C 0.08516 0.99794 0.91368 0.0
C346 C 0.07095 0.97808 0.88922 0.0
C347 C 0.19073 0.11941 0.92612 0.0
C348 C 0.32896 0.16803 0.85798 0.0
C349 C 0.28818 0.18273 0.90874 0.0
C350 C 0.29791 0.21648 0.89107 0.0
C351 C 0.31842 0.20899 0.86552 0.0
N352 N 0.29872 0.14269 0.90122 0.0
C353 C 0.31879 0.13507 0.87621 0.0
Co354 Co 0.05007 0.78453 0.11316 0.0
Co355 Co 0.10657 0.71597 0.07037 0.0
O356 O 0.08147 0.73224 0.10685 0.0
C357 C 0.11465 0.78211 0.16026 0.0
O358 O 0.13346 0.74915 0.14956 0.0
C359 C 0.04871 0.64544 0.08474 0.0
O360 O 0.02467 0.67161 0.09873 0.0
O361 O 0.05583 0.73377 0.04882 0.0
O362 O 0.01811 0.77537 0.07746 0.0
H363 H 0.14582 0.73708 0.96841 0.0
H364 H 0.05331 0.72048 0.15885 0.0
O365 O 0.08156 0.79717 0.14899 0.0
H366 H 0.90322 0.7374 0.13626 0.0
H367 H 0.97093 0.89123 0.17102 0.0
H368 H 0.02299 0.85439 0.07596 0.0
H369 H 0.9567 0.77906 0.11118 0.0
H370 H 0.01035 0.82557 0.16329 0.0
O371 O 0.08249 0.65795 0.07308 0.0
H372 H 0.11382 0.75633 0.01408 0.0
H373 H 0.15256 0.6403 0.0497 0.0
H374 H 0.98321 0.92005 0.08268 0.0
H375 H 1.00088 0.67859 0.18472 0.0
H376 H 0.95699 0.9389 0.1305 0.0
H377 H 0.92519 0.68679 0.1734 0.0
O378 O 0.09304 0.81805 0.09251 0.0
H379 H 0.18446 0.63835 0.14663 0.0
H380 H 0.19822 0.73321 0.06473 0.0
H381 H 0.26159 0.71168 0.09096 0.0
H382 H 0.25495 0.66379 0.13217 0.0
H383 H 0.12184 0.6612 0.12007 0.0
H384 H 0.1845 0.61946 0.00429 0.0
H385 H 0.18145 0.66813 0.96328 0.0
O386 O 0.1307 0.77319 0.06598 0.0
C387 C 0.02398 0.75672 0.05396 0.0
C388 C 0.14757 0.71568 0.98615 0.0
C389 C 0.16923 0.64966 0.00629 0.0
N390 N 0.13193 0.69981 0.03467 0.0
C391 C 0.12971 0.72653 0.01212 0.0
C392 C 0.15106 0.66162 0.03195 0.0
C393 C 0.16751 0.67698 0.98329 0.0
C394 C 0.02047 0.72471 0.15407 0.0
N395 N 0.00815 0.75248 0.13368 0.0
C396 C 0.9909 0.70068 0.16867 0.0
C397 C 0.94844 0.70523 0.16227 0.0
C398 C 0.9361 0.73359 0.14142 0.0
C399 C 0.96656 0.75702 0.12723 0.0
C400 C 0.98216 0.88334 0.15007 0.0
C401 C 0.01138 0.8622 0.0968 0.0
C402 C 0.00459 0.84625 0.14558 0.0
N403 N 0.01869 0.836 0.11915 0.0
C404 C 0.98901 0.8995 0.10049 0.0
C405 C 0.97432 0.91006 0.12733 0.0
C406 C 0.12251 0.8099 0.07511 0.0
C407 C 0.18777 0.65914 0.12866 0.0
C408 C 0.19502 0.71264 0.08278 0.0
C409 C 0.23104 0.70041 0.09747 0.0
C410 C 0.2273 0.67349 0.12057 0.0
N411 N 0.15636 0.6984 0.09084 0.0
C412 C 0.15244 0.672 0.11345 0.0
Co413 Co 0.78457 0.95445 0.89524 0.0
Co414 Co 0.71521 0.89375 0.93351 0.0
O415 O 0.73285 0.92223 0.89883 0.0
C416 C 0.79231 0.8943 0.84703 0.0
O417 O 0.78298 0.86321 0.86414 0.0
C418 C 0.64149 0.94776 0.92084 0.0
O419 O 0.66683 0.98024 0.92059 0.0
O420 O 0.72452 0.94524 0.95673 0.0
O421 O 0.77673 0.97858 0.93386 0.0
H422 H 0.72584 0.84994 0.03543 0.0
H423 H 0.71724 0.96051 0.85219 0.0
O424 O 0.79343 0.93186 0.85622 0.0
H425 H 0.739 0.10523 0.88608 0.0
H426 H 0.89027 0.04386 0.84375 0.0
H427 H 0.85599 0.97268 0.93344 0.0
H428 H 0.78221 0.04708 0.90447 0.0
H429 H 0.82422 0.00423 0.8488 0.0
O430 O 0.65579 0.91109 0.92573 0.0
H431 H 0.74859 0.88596 0.99191 0.0
H432 H 0.6414 0.84059 0.94819 0.0
H433 H 0.92213 0.01245 0.92944 0.0
H434 H 0.67359 0.01775 0.8329 0.0
H435 H 0.93967 0.04831 0.88431 0.0
H436 H 0.68422 0.0907 0.84997 0.0
O437 O 0.81814 0.9072 0.91129 0.0
H438 H 0.66282 0.81157 0.84992 0.0
H439 H 0.74075 0.80423 0.93995 0.0
H440 H 0.73206 0.74019 0.91124 0.0
H441 H 0.6928 0.74361 0.86589 0.0
H442 H 0.67253 0.87492 0.87917 0.0
H443 H 0.61715 0.80443 0.99134 0.0
H444 H 0.6596 0.80883 0.03533 0.0
O445 O 0.77402 0.87596 0.9419 0.0
C446 C 0.75205 0.97421 0.9549 0.0
C447 C 0.70709 0.84771 0.01638 0.0
C448 C 0.64608 0.82222 0.99164 0.0
N449 N 0.69651 0.86521 0.9675 0.0
C450 C 0.7199 0.86796 0.99165 0.0
C451 C 0.6599 0.84287 0.9673 0.0
C452 C 0.66992 0.82468 0.01632 0.0
C453 C 0.72214 0.99221 0.85963 0.0
N454 N 0.75197 1.00042 0.87964 0.0
C455 C 0.6973 0.02447 0.84866 0.0
C456 C 0.70325 0.06539 0.85827 0.0
C457 C 0.73393 0.07355 0.87855 0.0
C458 C 0.75813 0.04048 0.88905 0.0
C459 C 0.88298 0.02838 0.86353 0.0
C460 C 0.86327 0.98845 0.9138 0.0
C461 C 0.8457 0.00575 0.86647 0.0
N462 N 0.83618 0.9863 0.89143 0.0
C463 C 0.90082 0.01082 0.91163 0.0
C464 C 0.91066 0.03089 0.8863 0.0
C465 C 0.81036 0.88128 0.93118 0.0
C466 C 0.67988 0.80965 0.86968 0.0
C467 C 0.7237 0.80599 0.92021 0.0
C468 C 0.71881 0.76961 0.90407 0.0
C469 C 0.69676 0.77155 0.87863 0.0
N470 N 0.70697 0.84323 0.91131 0.0
C471 C 0.68534 0.84538 0.88638 0.0
H472 H 0.92766 0.58271 0.57848 0.0
H473 H 0.04084 0.63669 0.61455 0.0
H474 H 0.07062 0.56584 0.62025 0.0
H475 H 0.92524 0.4887 0.62335 0.0
H476 H 0.90699 0.45524 0.59517 0.0
H477 H 0.89322 0.5101 0.59539 0.0
H478 H 0.92465 0.51859 0.54519 0.0
H479 H 0.9385 0.46381 0.54481 0.0
H480 H 0.97825 0.50305 0.53882 0.0
H481 H 0.09028 0.49021 0.6193 0.0
H482 H 0.09843 0.41406 0.61216 0.0
H483 H 0.97235 0.40771 0.57751 0.0
C484 C 0.95851 0.5796 0.58788 0.0
C485 C 0.9819 0.61538 0.59606 0.0
C486 C 0.0223 0.60989 0.60806 0.0
C487 C 0.03949 0.56971 0.61147 0.0
C488 C 0.01587 0.5352 0.60292 0.0
C489 C 0.97621 0.53961 0.59147 0.0
C490 C 0.95823 0.49728 0.58305 0.0
C491 C 0.91857 0.48725 0.60027 0.0
C492 C 0.9494 0.4956 0.55107 0.0
C493 C 0.99429 0.46853 0.59115 0.0
C494 C 0.02712 0.49116 0.60267 0.0
C495 C 0.06464 0.47207 0.61058 0.0
C496 C 0.06898 0.42877 0.60638 0.0
C497 C 0.03595 0.40482 0.59444 0.0
C498 C 0.99791 0.42502 0.58708 0.0
H499 H 0.58352 0.05469 0.37375 0.0
H500 H 0.63233 0.00138 0.4514 0.0
H501 H 0.56338 0.96837 0.46088 0.0
H502 H 0.48258 0.08118 0.40283 0.0
H503 H 0.45395 0.07008 0.3708 0.0
H504 H 0.50788 0.08677 0.36892 0.0
H505 H 0.52645 0.0203 0.33996 0.0
H506 H 0.47256 0.00339 0.34176 0.0
H507 H 0.51386 0.96926 0.35404 0.0
H508 H 0.49036 0.94002 0.46127 0.0
H509 H 0.41508 0.92412 0.45576 0.0
H510 H 0.4106 0.00142 0.38021 0.0
C511 C 0.57955 0.03565 0.39254 0.0
C512 C 0.61301 0.02978 0.41172 0.0
C513 C 0.60688 0.00573 0.43647 0.0
C514 C 0.56798 0.98688 0.44194 0.0
C515 C 0.53541 0.99321 0.4227 0.0
C516 C 0.54049 0.01752 0.39871 0.0
C517 C 0.49948 0.0216 0.38258 0.0
C518 C 0.48513 0.06764 0.38122 0.0
C519 C 0.50333 0.00249 0.35282 0.0
C520 C 0.47064 0.99566 0.40119 0.0
C521 C 0.49231 0.97904 0.42393 0.0
C522 C 0.47297 0.95306 0.44367 0.0
C523 C 0.43025 0.94408 0.44028 0.0
C524 C 0.40702 0.96168 0.41763 0.0
C525 C 0.42756 0.98784 0.39784 0.0
H526 H 0.95839 0.41967 0.1276 0.0
H527 H 0.97565 0.38362 0.03991 0.0
H528 H 0.00408 0.45404 0.02923 0.0
H529 H 0.92262 0.52501 0.11168 0.0
H530 H 0.94752 0.54831 0.14211 0.0
H531 H 0.93057 0.49441 0.14331 0.0
H532 H 0.00582 0.47121 0.15703 0.0
H533 H 0.023 0.52503 0.15586 0.0
H534 H 0.04934 0.48594 0.13477 0.0
H535 H 0.03416 0.52639 0.02868 0.0
H536 H 0.05629 0.59972 0.03674 0.0
H537 H 0.0123 0.59234 0.12342 0.0
C538 C 0.96843 0.4267 0.10623 0.0
C539 C 0.96541 0.39631 0.08458 0.0
C540 C 0.97791 0.40662 0.05673 0.0
C541 C 0.99416 0.4464 0.05051 0.0
C542 C 0.99677 0.47577 0.07227 0.0
C543 C 0.98359 0.46677 0.09946 0.0
C544 C 0.98769 0.50489 0.1185 0.0
C545 C 0.94453 0.51898 0.12954 0.0
C546 C 0.01829 0.49624 0.14299 0.0
C547 C 0.00571 0.53651 0.09783 0.0
C548 C 0.01128 0.51874 0.07141 0.0
C549 C 0.02944 0.54085 0.04914 0.0
C550 C 0.042 0.58236 0.05393 0.0
C551 C 0.0355 0.60158 0.08056 0.0
C552 C 0.01695 0.57843 0.10274 0.0
H553 H 0.42087 0.0683 0.91899 0.0
H554 H 0.36353 0.94832 0.89878 0.0
H555 H 0.43351 0.91564 0.89678 0.0
H556 H 0.51377 0.05504 0.87387 0.0
H557 H 0.54835 0.08039 0.89874 0.0
H558 H 0.49379 0.0952 0.89712 0.0
H559 H 0.48595 0.07948 0.95062 0.0
H560 H 0.5404 0.06453 0.9524 0.0
H561 H 0.50036 0.02845 0.96394 0.0
H562 H 0.50861 0.89461 0.90011 0.0
H563 H 0.58494 0.88701 0.9069 0.0
H564 H 0.5949 0.0206 0.92373 0.0
C565 C 0.42307 0.03527 0.9138 0.0
C566 C 0.3866 0.01089 0.90908 0.0
C567 C 0.39089 0.9677 0.90254 0.0
C568 C 0.43055 0.9488 0.9013 0.0
C569 C 0.46576 0.9735 0.90646 0.0
C570 C 0.46254 0.01584 0.91238 0.0
C571 C 0.50546 0.03485 0.91786 0.0
C572 C 0.51596 0.06835 0.89556 0.0
C573 C 0.50818 0.05288 0.948 0.0
C574 C 0.53314 0.9964 0.91454 0.0
C575 C 0.5095 0.96141 0.90793 0.0
C576 C 0.52755 0.92185 0.905 0.0
C577 C 0.57094 0.91784 0.90899 0.0
C578 C 0.59595 0.95322 0.91573 0.0
C579 C 0.57671 0.99307 0.91828 0.0
H580 H 0.16753 0.00206 0.47041 0.0
H581 H 0.30031 0.03053 0.47638 0.0
H582 H 0.28449 0.08764 0.51042 0.0
H583 H 0.12899 0.10552 0.47333 0.0
H584 H 0.08401 0.09289 0.49482 0.0
H585 H 0.10624 0.05378 0.47178 0.0
H586 H 0.11529 0.00337 0.51442 0.0
H587 H 0.09303 0.0424 0.53757 0.0
H588 H 0.14407 0.02067 0.54511 0.0
H589 H 0.2527 0.1463 0.53992 0.0
H590 H 0.20833 0.19692 0.56631 0.0
H591 H 0.09761 0.1255 0.54383 0.0
C592 C 0.19329 0.02018 0.47903 0.0
C593 C 0.23511 0.01227 0.47073 0.0
C594 C 0.26809 0.03617 0.48263 0.0
C595 C 0.25936 0.06865 0.50186 0.0
C596 C 0.21763 0.07602 0.50936 0.0
C597 C 0.18523 0.05193 0.49866 0.0
C598 C 0.14314 0.06591 0.51012 0.0
C599 C 0.11389 0.08039 0.48608 0.0
C600 C 0.12269 0.03101 0.52786 0.0
C601 C 0.15674 0.10234 0.52846 0.0
C602 C 0.19977 0.10796 0.52761 0.0
C603 C 0.21911 0.14167 0.5412 0.0
C604 C 0.19377 0.17029 0.55602 0.0
C605 C 0.14982 0.16446 0.55749 0.0
C606 C 0.13126 0.12991 0.54373 0.0
H607 H 0.17882 0.87454 0.48515 0.0
H608 H 0.13197 0.8353 0.40319 0.0
H609 H 0.07463 0.79592 0.42683 0.0
H610 H 0.15503 0.78049 0.52454 0.0
H611 H 0.13886 0.80891 0.55565 0.0
H612 H 0.17757 0.83109 0.53225 0.0
H613 H 0.13203 0.89805 0.52659 0.0
H614 H 0.09329 0.87618 0.55004 0.0
H615 H 0.0783 0.89316 0.5151 0.0
H616 H 0.02218 0.76115 0.46013 0.0
H617 H 0.97509 0.74046 0.49932 0.0
H618 H 0.05532 0.80674 0.5586 0.0
C619 C 0.15688 0.85713 0.47217 0.0
C620 C 0.16007 0.85727 0.4424 0.0
C621 C 0.13006 0.83526 0.42607 0.0
C622 C 0.09761 0.81273 0.43931 0.0
C623 C 0.09542 0.81319 0.46881 0.0
C624 C 0.12399 0.83536 0.48496 0.0
C625 C 0.11316 0.83371 0.51607 0.0
C626 C 0.14825 0.81226 0.53312 0.0
C627 C 0.10362 0.87789 0.52762 0.0
C628 C 0.07406 0.80693 0.51502 0.0
C629 C 0.06451 0.79491 0.48768 0.0
C630 C 0.0294 0.77039 0.48162 0.0
C631 C 0.00294 0.75862 0.50404 0.0
C632 C 0.01146 0.77194 0.53208 0.0
C633 C 0.04786 0.79593 0.53748 0.0
H634 H 0.80532 0.95112 0.44161 0.0
H635 H 0.75387 0.04017 0.5019 0.0
H636 H 0.77165 0.99197 0.54098 0.0
H637 H 0.76951 0.85619 0.47857 0.0
H638 H 0.81621 0.82711 0.46961 0.0
H639 H 0.79727 0.86762 0.44624 0.0
H640 H 0.86964 0.90458 0.44857 0.0
H641 H 0.88877 0.86423 0.4719 0.0
H642 H 0.89132 0.91848 0.48253 0.0
H643 H 0.80238 0.93779 0.57377 0.0
H644 H 0.83895 0.8789 0.59752 0.0
H645 H 0.86539 0.82292 0.51588 0.0
C646 C 0.7973 0.96032 0.46299 0.0
C647 C 0.7782 0.99951 0.46864 0.0
C648 C 0.76827 0.01026 0.49697 0.0
C649 C 0.77831 0.9831 0.51934 0.0
C650 C 0.79761 0.94499 0.51303 0.0
C651 C 0.80648 0.93332 0.48551 0.0
C652 C 0.82821 0.89104 0.48449 0.0
C653 C 0.80117 0.85857 0.4688 0.0
C654 C 0.87208 0.89483 0.47109 0.0
C655 C 0.83097 0.88114 0.51577 0.0
C656 C 0.81335 0.91276 0.5319 0.0
C657 C 0.81541 0.91239 0.56137 0.0
C658 C 0.83623 0.87894 0.57467 0.0
C659 C 0.85401 0.84607 0.55851 0.0
C660 C 0.85084 0.847 0.52873 0.0
H661 H 0.89132 0.11188 0.44523 0.0
H662 H 0.80708 0.21799 0.43698 0.0
H663 H 0.85817 0.26283 0.46243 0.0
H664 H 0.91836 0.13303 0.51509 0.0
H665 H 0.97185 0.11515 0.51209 0.0
H666 H 0.93212 0.09374 0.48926 0.0
H667 H 0.97597 0.1152 0.44537 0.0
H668 H 0.0158 0.1368 0.46821 0.0
H669 H 0.99218 0.16905 0.44121 0.0
H670 H 0.91672 0.29471 0.49194 0.0
H671 H 0.97314 0.30823 0.5271 0.0
H672 H 0.01566 0.17982 0.51821 0.0
C673 C 0.88424 0.14486 0.44806 0.0
C674 C 0.84575 0.1618 0.4387 0.0
C675 C 0.83669 0.20464 0.44377 0.0
C676 C 0.86558 0.23032 0.45806 0.0
C677 C 0.90311 0.2125 0.46743 0.0
C678 C 0.91223 0.17057 0.46284 0.0
C679 C 0.95195 0.15758 0.47806 0.0
C680 C 0.94301 0.12284 0.49992 0.0
C681 C 0.98599 0.14386 0.45694 0.0
C682 C 0.96342 0.1985 0.4923 0.0
C683 C 0.9355 0.23015 0.48548 0.0
C684 C 0.93898 0.27027 0.4972 0.0
C685 C 0.97113 0.2778 0.51699 0.0
C686 C 0.99854 0.24507 0.52509 0.0
C687 C 0.99509 0.20536 0.51215 0.0
H688 H 0.77159 0.05712 0.95211 0.0
H689 H 0.74752 0.9567 0.01168 0.0
H690 H 0.77103 0.00257 0.05091 0.0
H691 H 0.86349 0.09229 0.98129 0.0
H692 H 0.85419 0.14728 0.97489 0.0
H693 H 0.83031 0.10855 0.9524 0.0
H694 H 0.7567 0.13931 0.96316 0.0
H695 H 0.78043 0.17852 0.98551 0.0
H696 H 0.73984 0.14491 0.99938 0.0
H697 H 0.80875 0.05594 0.08203 0.0
H698 H 0.84937 0.11457 0.10297 0.0
H699 H 0.84363 0.18077 0.02291 0.0
C700 C 0.77036 0.04504 0.97344 0.0
C701 C 0.75795 0.00335 0.97886 0.0
C702 C 0.75664 0.98869 0.00711 0.0
C703 C 0.77009 0.01449 0.02949 0.0
C704 C 0.78371 0.05507 0.02321 0.0
C705 C 0.78294 0.07051 0.99589 0.0
C706 C 0.80106 0.11428 0.99428 0.0
C707 C 0.83953 0.11564 0.97456 0.0
C708 C 0.76749 0.14614 0.98504 0.0
C709 C 0.81347 0.12069 0.02482 0.0
C710 C 0.80341 0.08624 0.04126 0.0
C711 C 0.81577 0.0835 0.06953 0.0
C712 C 0.83898 0.1168 0.08119 0.0
C713 C 0.84909 0.15248 0.06467 0.0
C714 C 0.83555 0.15446 0.03629 0.0
H715 H 0.18005 0.12974 0.98255 0.0
H716 H 0.12748 0.16409 0.90126 0.0
H717 H 0.06973 0.20196 0.92556 0.0
H718 H 0.08291 0.10629 0.01402 0.0
H719 H 0.09707 0.12477 0.04877 0.0
H720 H 0.13702 0.1055 0.02518 0.0
H721 H 0.17762 0.17558 0.02991 0.0
H722 H 0.1379 0.19503 0.05369 0.0
H723 H 0.15117 0.22433 0.02233 0.0
H724 H 0.01698 0.23404 0.95891 0.0
H725 H 0.96955 0.25276 0.99809 0.0
H726 H 0.0538 0.19185 0.05756 0.0
C727 C 0.15703 0.14634 0.96994 0.0
C728 C 0.1586 0.14524 0.94012 0.0
C729 C 0.12697 0.16541 0.92416 0.0
C730 C 0.09422 0.18693 0.93778 0.0
C731 C 0.0933 0.18712 0.96731 0.0
C732 C 0.12365 0.16695 0.98319 0.0
C733 C 0.11322 0.16812 0.01446 0.0
C734 C 0.10719 0.12352 0.02629 0.0
C735 C 0.14699 0.19221 0.03107 0.0
C736 C 0.07217 0.19204 0.01373 0.0
C737 C 0.06159 0.20329 0.9864 0.0
C738 C 0.02497 0.22542 0.98039 0.0
C739 C 0.99823 0.23596 0.00285 0.0
C740 C 0.00782 0.22375 0.03099 0.0
C741 C 0.04549 0.20166 0.03637 0.0
H742 H 0.15943 0.81388 0.02328 0.0
H743 H 0.13901 0.8863 0.09971 0.0
H744 H 0.17573 0.94674 0.07788 0.0
H745 H 0.261 0.85764 0.00241 0.0
H746 H 0.24716 0.85801 0.96543 0.0
H747 H 0.22512 0.81895 0.98864 0.0
H748 H 0.15014 0.84145 0.97371 0.0
H749 H 0.17188 0.88044 0.95045 0.0
H750 H 0.13471 0.89563 0.9773 0.0
H751 H 0.21144 1.00053 0.04617 0.0
H752 H 0.2351 0.04479 0.00608 0.0
H753 H 0.22646 0.93756 0.95008 0.0
C754 C 0.1634 0.84206 0.03572 0.0
C755 C 0.14688 0.84523 0.06332 0.0
C756 C 0.15174 0.88317 0.07857 0.0
C757 C 0.17271 0.91752 0.0664 0.0
C758 C 0.18809 0.91347 0.03889 0.0
C759 C 0.18319 0.87674 0.02368 0.0
C760 C 0.19783 0.88163 0.99344 0.0
C761 C 0.235 0.85232 0.98713 0.0
C762 C 0.16147 0.87438 0.97251 0.0
C763 C 0.21136 0.92704 0.99383 0.0
C764 C 0.20642 0.94474 0.02033 0.0
C765 C 0.21571 0.98688 0.02541 0.0
C766 C 0.22933 0.0117 0.00262 0.0
C767 C 0.23256 0.99437 0.97516 0.0
C768 C 0.22421 0.95144 0.97091 0.0
H769 H 0.82072 0.8614 0.98662 0.0
H770 H 0.87966 0.84889 0.90441 0.0
H771 H 0.93836 0.80938 0.92646 0.0
H772 H 0.91522 0.88136 0.02392 0.0
H773 H 0.89886 0.8542 0.05547 0.0
H774 H 0.86026 0.87787 0.03269 0.0
H775 H 0.82214 0.80634 0.02815 0.0
H776 H 0.86077 0.78236 0.05084 0.0
H777 H 0.85094 0.76099 0.01615 0.0
H778 H 0.99078 0.77164 0.95815 0.0
H779 H 0.03653 0.74673 0.99687 0.0
H780 H 0.94426 0.78849 0.05832 0.0
C781 C 0.84563 0.84975 0.97317 0.0
C782 C 0.84544 0.85746 0.94377 0.0
C783 C 0.87924 0.84299 0.92698 0.0
C784 C 0.91248 0.82039 0.9393 0.0
C785 C 0.91161 0.81322 0.96844 0.0
C786 C 0.8793 0.82807 0.98517 0.0
C787 C 0.88727 0.81945 0.0162 0.0
C788 C 0.89061 0.86067 0.03305 0.0
C789 C 0.85326 0.79056 0.02855 0.0
C790 C 0.92919 0.79734 0.0144 0.0
C791 C 0.94247 0.79343 0.98669 0.0
C792 C 0.98065 0.77455 0.97992 0.0
C793 C 0.00635 0.7603 0.00208 0.0
C794 C 0.99407 0.76567 0.03069 0.0
C795 C 0.9546 0.78382 0.03673 0.0
H796 H 0.16245 0.22644 0.69653 0.0
H797 H 0.07103 0.12995 0.6763 0.0
H798 H 0.08713 0.09385 0.72096 0.0
H799 H 0.23848 0.15913 0.73138 0.0
H800 H 0.25103 0.19642 0.75878 0.0
H801 H 0.23386 0.21462 0.72459 0.0
H802 H 0.17393 0.25678 0.74827 0.0
H803 H 0.19093 0.23875 0.78254 0.0
H804 H 0.13755 0.23016 0.77131 0.0
H805 H 0.11281 0.06729 0.76646 0.0
H806 H 0.14353 0.0534 0.81304 0.0
H807 H 0.21663 0.16819 0.80699 0.0
C808 C 0.14608 0.19761 0.70155 0.0
C809 C 0.11554 0.18092 0.68293 0.0
C810 C 0.09432 0.14344 0.6903 0.0
C811 C 0.10338 0.12257 0.71557 0.0
C812 C 0.13338 0.13977 0.73351 0.0
C813 C 0.15419 0.17661 0.72714 0.0
C814 C 0.1837 0.18885 0.75107 0.0
C815 C 0.22949 0.18979 0.74084 0.0
C816 C 0.17074 0.23115 0.76407 0.0
C817 C 0.17629 0.15291 0.77164 0.0
C818 C 0.14736 0.12494 0.76078 0.0
C819 C 0.13541 0.08898 0.7753 0.0
C820 C 0.15325 0.08133 0.80179 0.0
C821 C 0.18256 0.10967 0.81381 0.0
C822 C 0.19421 0.14602 0.79845 0.0
H823 H 0.15314 0.7491 0.20771 0.0
H824 H 0.11652 0.86605 0.16768 0.0
H825 H 0.14434 0.90562 0.20834 0.0
H826 H 0.12194 0.77991 0.27697 0.0
H827 H 0.1641 0.75335 0.29505 0.0
H828 H 0.1456 0.73389 0.26154 0.0
H829 H 0.221 0.73854 0.24129 0.0
H830 H 0.23973 0.7581 0.27478 0.0
H831 H 0.24891 0.78768 0.24288 0.0
H832 H 0.1734 0.93262 0.25301 0.0
H833 H 0.19694 0.94615 0.30156 0.0
H834 H 0.21169 0.81209 0.31544 0.0
C835 C 0.15171 0.78305 0.20744 0.0
C836 C 0.13309 0.80467 0.18451 0.0
C837 C 0.13072 0.849 0.18506 0.0
C838 C 0.14663 0.87174 0.20797 0.0
C839 C 0.16439 0.84968 0.23038 0.0
C840 C 0.16672 0.80636 0.23057 0.0
C841 C 0.18421 0.79064 0.25855 0.0
C842 C 0.15204 0.76281 0.27394 0.0
C843 C 0.22595 0.76736 0.2541 0.0
C844 C 0.19088 0.8319 0.27403 0.0
C845 C 0.1798 0.86543 0.25708 0.0
C846 C 0.18225 0.90667 0.26652 0.0
C847 C 0.19566 0.91398 0.29424 0.0
C848 C 0.20606 0.88021 0.3125 0.0
C849 C 0.20416 0.8386 0.30203 0.0
H850 H 0.85076 0.75999 0.70839 0.0
H851 H 0.89173 0.87784 0.67153 0.0
H852 H 0.86703 0.91569 0.71374 0.0
H853 H 0.75762 0.80079 0.74519 0.0
H854 H 0.76553 0.76863 0.7761 0.0
H855 H 0.78308 0.75047 0.74198 0.0
H856 H 0.85825 0.74071 0.76181 0.0
H857 H 0.84094 0.75884 0.79595 0.0
H858 H 0.88425 0.78441 0.77852 0.0
H859 H 0.84029 0.94093 0.75945 0.0
H860 H 0.8165 0.9525 0.80814 0.0
H861 H 0.79512 0.81857 0.81802 0.0
C862 C 0.85388 0.79381 0.70914 0.0
C863 C 0.87287 0.81607 0.68663 0.0
C864 C 0.87729 0.86019 0.68853 0.0
C865 C 0.86319 0.88201 0.71236 0.0
C866 C 0.84507 0.85927 0.7343 0.0
C867 C 0.84056 0.81618 0.73314 0.0
C868 C 0.82248 0.79946 0.76069 0.0
C869 C 0.77963 0.7786 0.75568 0.0
C870 C 0.85333 0.76906 0.77509 0.0
C871 C 0.81794 0.8399 0.77745 0.0
C872 C 0.83073 0.87393 0.76154 0.0
C873 C 0.83013 0.91458 0.77216 0.0
C874 C 0.81654 0.92077 0.79996 0.0
C875 C 0.80402 0.88646 0.8171 0.0
C876 C 0.80443 0.84546 0.80551 0.0
H877 H 0.85561 0.1085 0.30801 0.0
H878 H 0.7542 0.19636 0.32395 0.0
H879 H 0.76461 0.22723 0.27648 0.0
H880 H 0.92201 0.1821 0.27048 0.0
H881 H 0.94132 0.14326 0.246 0.0
H882 H 0.92554 0.12788 0.28109 0.0
H883 H 0.87384 0.07366 0.25981 0.0
H884 H 0.8894 0.08891 0.22466 0.0
H885 H 0.83485 0.09083 0.23469 0.0
H886 H 0.78374 0.24597 0.22626 0.0
H887 H 0.81401 0.25511 0.17846 0.0
H888 H 0.90586 0.15816 0.19657 0.0
C889 C 0.83562 0.13426 0.3015 0.0
C890 C 0.80399 0.14998 0.31958 0.0
C891 C 0.77873 0.18396 0.31045 0.0
C892 C 0.78431 0.20159 0.2835 0.0
C893 C 0.81567 0.18526 0.26613 0.0
C894 C 0.84126 0.15271 0.27489 0.0
C895 C 0.87326 0.14156 0.2524 0.0
C896 C 0.91819 0.14917 0.26314 0.0
C897 C 0.86747 0.09604 0.2423 0.0
C898 C 0.86141 0.17263 0.22951 0.0
C899 C 0.82786 0.1973 0.23773 0.0
C900 C 0.81028 0.22713 0.2197 0.0
C901 C 0.82756 0.232 0.19258 0.0
C902 C 0.86241 0.20757 0.18395 0.0
C903 C 0.87955 0.17765 0.20275 0.0
loop_
_geom_bond_atom_site_label_1
_geom_bond_atom_site_label_2
_geom_bond_distance
_geom_bond_site_symmetry_2
_ccdc_geom_bond_type
Co0 O2 2.143 . S
Co0 O8 2.074 . S
Co0 O11 2.093 . S
Co0 O24 2.097 . S
Co0 N41 2.151 . S
Co0 N49 2.214 . S
Co1 O2 2.160 . S
Co1 O7 2.058 . S
Co1 O17 2.057 . S
Co1 O32 2.037 . S
Co1 N36 2.145 . S
Co1 N57 2.257 . S
O2 Co0 2.143 . S
O2 Co1 2.160 . S
C3 O4 1.278 . S
C3 O11 1.224 . S
O4 C3 1.278 . S
C5 O6 1.245 . S
C5 O17 1.232 . S
O6 C5 1.245 . S
O7 Co1 2.058 . S
O7 C33 1.269 . S
O8 Co0 2.074 . S
O8 C33 1.257 . S
H9 C34 0.930 . S
H10 C40 0.930 . S
O11 Co0 2.093 . S
O11 C3 1.224 . S
H12 C44 0.929 . S
H13 C46 0.930 . S
H14 C47 0.930 . S
H15 C45 0.929 . S
H16 C48 0.928 . S
O17 Co1 2.057 . S
O17 C5 1.232 . S
H18 C37 0.929 . S
H19 C38 0.929 . S
H20 C50 0.931 . S
H21 C42 0.929 . S
H22 C51 0.930 . S
H23 C43 0.931 . S
O24 Co0 2.097 . S
O24 C52 1.214 . S
H25 C53 0.929 . S
H26 C54 0.929 . S
H27 C55 0.930 . S
H28 C56 0.929 . S
H29 C58 0.930 . S
H30 C35 0.930 . S
H31 C39 0.930 . S
O32 Co1 2.037 . S
O32 C52 1.234 . S
C33 O7 1.269 . S
C33 O8 1.257 . S
C34 H9 0.930 . S
C34 C37 1.388 . S
C34 C39 1.418 . S
C35 H30 0.930 . S
C35 C38 1.404 . S
C35 C39 1.353 . S
N36 Co1 2.145 . S
N36 C37 1.397 . S
N36 C38 1.334 . S
C37 H18 0.929 . S
C37 C34 1.388 . S
C37 N36 1.397 . S
C38 H19 0.929 . S
C38 C35 1.404 . S
C38 N36 1.334 . S
C39 H31 0.930 . S
C39 C34 1.418 . S
C39 C35 1.353 . S
C40 H10 0.930 . S
C40 N41 1.330 . S
C40 C42 1.446 1_455 S
N41 Co0 2.151 . S
N41 C40 1.330 . S
N41 C45 1.418 1_455 S
C42 H21 0.929 . S
C42 C40 1.446 1_655 S
C42 C43 1.332 . S
C43 H23 0.931 . S
C43 C42 1.332 . S
C43 C44 1.267 . S
C44 H12 0.929 . S
C44 C43 1.267 . S
C44 C45 1.251 . S
C45 H15 0.929 . S
C45 N41 1.418 1_655 S
C45 C44 1.251 . S
C46 H13 0.930 . S
C46 C48 1.406 . S
C46 C51 1.261 . S
C47 H14 0.930 . S
C47 N49 1.325 . S
C47 C50 1.357 . S
C48 H16 0.928 . S
C48 C46 1.406 . S
C48 N49 1.261 . S
N49 Co0 2.214 . S
N49 C47 1.325 . S
N49 C48 1.261 . S
C50 H20 0.931 . S
C50 C47 1.357 . S
C50 C51 1.312 . S
C51 H22 0.930 . S
C51 C46 1.261 . S
C51 C50 1.312 . S
C52 O24 1.214 . S
C52 O32 1.234 . S
C53 H25 0.929 . S
C53 C56 1.391 . S
C53 C58 1.391 . S
C54 H26 0.929 . S
C54 C55 1.390 . S
C54 N57 1.391 . S
C55 H27 0.930 . S
C55 C54 1.390 . S
C55 C56 1.392 . S
C56 H28 0.929 . S
C56 C53 1.391 . S
C56 C55 1.392 . S
N57 Co1 2.257 . S
N57 C54 1.391 . S
N57 C58 1.388 . S
C58 H29 0.930 . S
C58 C53 1.391 . S
C58 N57 1.388 . S
Co59 O61 2.143 . S
Co59 O67 2.074 . S
Co59 O70 2.093 . S
Co59 O83 2.097 . S
Co59 N100 2.151 . S
Co59 N108 2.214 . S
Co60 O61 2.160 . S
Co60 O66 2.058 . S
Co60 O76 2.057 . S
Co60 O91 2.037 . S
Co60 N95 2.145 . S
Co60 N116 2.257 . S
O61 Co59 2.143 . S
O61 Co60 2.160 . S
C62 O63 1.278 . S
C62 O70 1.224 . S
O63 C62 1.278 . S
C64 O65 1.245 . S
C64 O76 1.232 . S
O65 C64 1.245 . S
O66 Co60 2.058 . S
O66 C92 1.269 . S
O67 Co59 2.074 . S
O67 C92 1.257 . S
H68 C93 0.930 . S
H69 C99 0.930 . S
O70 Co59 2.093 . S
O70 C62 1.224 . S
H71 C103 0.929 . S
H72 C105 0.930 . S
H73 C106 0.930 . S
H74 C104 0.929 . S
H75 C107 0.928 . S
O76 Co60 2.057 . S
O76 C64 1.232 . S
H77 C96 0.929 . S
H78 C97 0.929 . S
H79 C109 0.931 . S
H80 C101 0.929 . S
H81 C110 0.930 . S
H82 C102 0.931 . S
O83 Co59 2.097 . S
O83 C111 1.214 . S
H84 C112 0.929 . S
H85 C113 0.929 . S
H86 C114 0.930 . S
H87 C115 0.929 . S
H88 C117 0.930 . S
H89 C94 0.930 . S
H90 C98 0.930 . S
O91 Co60 2.037 . S
O91 C111 1.234 . S
C92 O66 1.269 . S
C92 O67 1.257 . S
C93 H68 0.930 . S
C93 C96 1.388 . S
C93 C98 1.418 . S
C94 H89 0.930 . S
C94 C97 1.404 . S
C94 C98 1.353 . S
N95 Co60 2.145 . S
N95 C96 1.397 . S
N95 C97 1.334 . S
C96 H77 0.929 . S
C96 C93 1.388 . S
C96 N95 1.397 . S
C97 H78 0.929 . S
C97 C94 1.404 . S
C97 N95 1.334 . S
C98 H90 0.930 . S
C98 C93 1.418 . S
C98 C94 1.353 . S
C99 H69 0.930 . S
C99 N100 1.330 . S
C99 C101 1.446 1_565 S
N100 Co59 2.151 . S
N100 C99 1.330 . S
N100 C104 1.418 1_565 S
C101 H80 0.929 . S
C101 C99 1.446 1_545 S
C101 C102 1.332 . S
C102 H82 0.931 . S
C102 C101 1.332 . S
C102 C103 1.267 . S
C103 H71 0.929 . S
C103 C102 1.267 . S
C103 C104 1.251 . S
C104 H74 0.929 . S
C104 N100 1.418 1_545 S
C104 C103 1.251 . S
C105 H72 0.930 . S
C105 C107 1.406 . S
C105 C110 1.261 . S
C106 H73 0.930 . S
C106 N108 1.325 . S
C106 C109 1.357 . S
C107 H75 0.928 . S
C107 C105 1.406 . S
C107 N108 1.261 . S
N108 Co59 2.214 . S
N108 C106 1.325 . S
N108 C107 1.261 . S
C109 H79 0.931 . S
C109 C106 1.357 . S
C109 C110 1.312 . S
C110 H81 0.930 . S
C110 C105 1.261 . S
C110 C109 1.312 . S
C111 O83 1.214 . S
C111 O91 1.234 . S
C112 H84 0.929 . S
C112 C115 1.391 . S
C112 C117 1.391 . S
C113 H85 0.929 . S
C113 C114 1.390 . S
C113 N116 1.391 . S
C114 H86 0.930 . S
C114 C113 1.390 . S
C114 C115 1.392 . S
C115 H87 0.929 . S
C115 C112 1.391 . S
C115 C114 1.392 . S
N116 Co60 2.257 . S
N116 C113 1.391 . S
N116 C117 1.388 . S
C117 H88 0.930 . S
C117 C112 1.391 . S
C117 N116 1.388 . S
Co118 O120 2.143 . S
Co118 O126 2.074 . S
Co118 O129 2.093 . S
Co118 O142 2.097 . S
Co118 N159 2.151 . S
Co118 N167 2.214 . S
Co119 O120 2.160 . S
Co119 O125 2.058 . S
Co119 O135 2.057 . S
Co119 O150 2.037 . S
Co119 N154 2.145 . S
Co119 N175 2.257 . S
O120 Co118 2.143 . S
O120 Co119 2.160 . S
C121 O122 1.278 . S
C121 O129 1.224 . S
O122 C121 1.278 . S
C123 O124 1.245 . S
C123 O135 1.232 . S
O124 C123 1.245 . S
O125 Co119 2.058 . S
O125 C151 1.269 . S
O126 Co118 2.074 . S
O126 C151 1.257 . S
H127 C152 0.930 . S
H128 C158 0.930 . S
O129 Co118 2.093 . S
O129 C121 1.224 . S
H130 C162 0.929 . S
H131 C164 0.930 . S
H132 C165 0.930 . S
H133 C163 0.929 . S
H134 C166 0.928 . S
O135 Co119 2.057 . S
O135 C123 1.232 . S
H136 C155 0.929 . S
H137 C156 0.929 . S
H138 C168 0.931 . S
H139 C160 0.929 . S
H140 C169 0.930 . S
H141 C161 0.931 . S
O142 Co118 2.097 . S
O142 C170 1.214 . S
H143 C171 0.929 . S
H144 C172 0.929 . S
H145 C173 0.930 . S
H146 C174 0.929 . S
H147 C176 0.930 . S
H148 C153 0.930 . S
H149 C157 0.930 . S
O150 Co119 2.037 . S
O150 C170 1.234 . S
C151 O125 1.269 . S
C151 O126 1.257 . S
C152 H127 0.930 . S
C152 C155 1.388 . S
C152 C157 1.418 . S
C153 H148 0.930 . S
C153 C156 1.404 . S
C153 C157 1.353 . S
N154 Co119 2.145 . S
N154 C155 1.397 . S
N154 C156 1.334 . S
C155 H136 0.929 . S
C155 C152 1.388 . S
C155 N154 1.397 . S
C156 H137 0.929 . S
C156 C153 1.404 . S
C156 N154 1.334 . S
C157 H149 0.930 . S
C157 C152 1.418 . S
C157 C153 1.353 . S
C158 H128 0.930 . S
C158 N159 1.330 . S
C158 C160 1.446 1_655 S
N159 Co118 2.151 . S
N159 C158 1.330 . S
N159 C163 1.418 1_655 S
C160 H139 0.929 . S
C160 C158 1.446 1_455 S
C160 C161 1.332 . S
C161 H141 0.931 . S
C161 C160 1.332 . S
C161 C162 1.267 . S
C162 H130 0.929 . S
C162 C161 1.267 . S
C162 C163 1.251 . S
C163 H133 0.929 . S
C163 N159 1.418 1_455 S
C163 C162 1.251 . S
C164 H131 0.930 . S
C164 C166 1.406 . S
C164 C169 1.261 . S
C165 H132 0.930 . S
C165 N167 1.325 . S
C165 C168 1.357 . S
C166 H134 0.928 . S
C166 C164 1.406 . S
C166 N167 1.261 . S
N167 Co118 2.214 . S
N167 C165 1.325 . S
N167 C166 1.261 . S
C168 H138 0.931 . S
C168 C165 1.357 . S
C168 C169 1.312 . S
C169 H140 0.930 . S
C169 C164 1.261 . S
C169 C168 1.312 . S
C170 O142 1.214 . S
C170 O150 1.234 . S
C171 H143 0.929 . S
C171 C174 1.391 . S
C171 C176 1.391 . S
C172 H144 0.929 . S
C172 C173 1.390 . S
C172 N175 1.391 . S
C173 H145 0.930 . S
C173 C172 1.390 . S
C173 C174 1.392 . S
C174 H146 0.929 . S
C174 C171 1.391 . S
C174 C173 1.392 . S
N175 Co119 2.257 . S
N175 C172 1.391 . S
N175 C176 1.388 . S
C176 H147 0.930 . S
C176 C171 1.391 . S
C176 N175 1.388 . S
Co177 O179 2.143 . S
Co177 O185 2.074 . S
Co177 O188 2.093 . S
Co177 O201 2.097 . S
Co177 N218 2.151 . S
Co177 N226 2.214 . S
Co178 O179 2.160 . S
Co178 O184 2.058 . S
Co178 O194 2.057 . S
Co178 O209 2.037 . S
Co178 N213 2.145 . S
Co178 N234 2.257 . S
O179 Co177 2.143 . S
O179 Co178 2.160 . S
C180 O181 1.278 . S
C180 O188 1.224 . S
O181 C180 1.278 . S
C182 O183 1.245 . S
C182 O194 1.232 . S
O183 C182 1.245 . S
O184 Co178 2.058 . S
O184 C210 1.269 . S
O185 Co177 2.074 . S
O185 C210 1.257 . S
H186 C211 0.930 . S
H187 C217 0.930 . S
O188 Co177 2.093 . S
O188 C180 1.224 . S
H189 C221 0.929 . S
H190 C223 0.930 . S
H191 C224 0.930 . S
H192 C222 0.929 . S
H193 C225 0.928 . S
O194 Co178 2.057 . S
O194 C182 1.232 . S
H195 C214 0.929 . S
H196 C215 0.929 . S
H197 C227 0.931 . S
H198 C219 0.929 . S
H199 C228 0.930 . S
H200 C220 0.931 . S
O201 Co177 2.097 . S
O201 C229 1.214 . S
H202 C230 0.929 . S
H203 C231 0.929 . S
H204 C232 0.930 . S
H205 C233 0.929 . S
H206 C235 0.930 . S
H207 C212 0.930 . S
H208 C216 0.930 . S
O209 Co178 2.037 . S
O209 C229 1.234 . S
C210 O184 1.269 . S
C210 O185 1.257 . S
C211 H186 0.930 . S
C211 C214 1.388 . S
C211 C216 1.418 . S
C212 H207 0.930 . S
C212 C215 1.404 . S
C212 C216 1.353 . S
N213 Co178 2.145 . S
N213 C214 1.397 . S
N213 C215 1.334 . S
C214 H195 0.929 . S
C214 C211 1.388 . S
C214 N213 1.397 . S
C215 H196 0.929 . S
C215 C212 1.404 . S
C215 N213 1.334 . S
C216 H208 0.930 . S
C216 C211 1.418 . S
C216 C212 1.353 . S
C217 H187 0.930 . S
C217 N218 1.330 . S
C217 C219 1.446 1_545 S
N218 Co177 2.151 . S
N218 C217 1.330 . S
N218 C222 1.418 1_545 S
C219 H198 0.929 . S
C219 C217 1.446 1_565 S
C219 C220 1.332 . S
C220 H200 0.931 . S
C220 C219 1.332 . S
C220 C221 1.267 . S
C221 H189 0.929 . S
C221 C220 1.267 . S
C221 C222 1.251 . S
C222 H192 0.929 . S
C222 N218 1.418 1_565 S
C222 C221 1.251 . S
C223 H190 0.930 . S
C223 C225 1.406 . S
C223 C228 1.261 . S
C224 H191 0.930 . S
C224 N226 1.325 . S
C224 C227 1.357 . S
C225 H193 0.928 . S
C225 C223 1.406 . S
C225 N226 1.261 . S
N226 Co177 2.214 . S
N226 C224 1.325 . S
N226 C225 1.261 . S
C227 H197 0.931 . S
C227 C224 1.357 . S
C227 C228 1.312 . S
C228 H199 0.930 . S
C228 C223 1.261 . S
C228 C227 1.312 . S
C229 O201 1.214 . S
C229 O209 1.234 . S
C230 H202 0.929 . S
C230 C233 1.391 . S
C230 C235 1.391 . S
C231 H203 0.929 . S
C231 C232 1.390 . S
C231 N234 1.391 . S
C232 H204 0.930 . S
C232 C231 1.390 . S
C232 C233 1.392 . S
C233 H205 0.929 . S
C233 C230 1.391 . S
C233 C232 1.392 . S
N234 Co178 2.257 . S
N234 C231 1.391 . S
N234 C235 1.388 . S
C235 H206 0.930 . S
C235 C230 1.391 . S
C235 N234 1.388 . S
Co236 O238 2.143 . S
Co236 O244 2.074 . S
Co236 O247 2.093 . S
Co236 O260 2.097 . S
Co236 N277 2.151 . S
Co236 N285 2.214 . S
Co237 O238 2.160 . S
Co237 O243 2.058 . S
Co237 O253 2.057 . S
Co237 O268 2.037 . S
Co237 N272 2.145 . S
Co237 N293 2.257 . S
O238 Co236 2.143 . S
O238 Co237 2.160 . S
C239 O240 1.278 . S
C239 O247 1.224 . S
O240 C239 1.278 . S
C241 O242 1.245 . S
C241 O253 1.232 . S
O242 C241 1.245 . S
O243 Co237 2.058 . S
O243 C269 1.269 . S
O244 Co236 2.074 . S
O244 C269 1.257 . S
H245 C270 0.930 . S
H246 C276 0.930 . S
O247 Co236 2.093 . S
O247 C239 1.224 . S
H248 C280 0.929 . S
H249 C282 0.930 . S
H250 C283 0.930 . S
H251 C281 0.929 . S
H252 C284 0.928 . S
O253 Co237 2.057 . S
O253 C241 1.232 . S
H254 C273 0.929 . S
H255 C274 0.929 . S
H256 C286 0.931 . S
H257 C278 0.929 . S
H258 C287 0.930 . S
H259 C279 0.931 . S
O260 Co236 2.097 . S
O260 C288 1.214 . S
H261 C289 0.929 . S
H262 C290 0.929 . S
H263 C291 0.930 . S
H264 C292 0.929 . S
H265 C294 0.930 . S
H266 C271 0.930 . S
H267 C275 0.930 . S
O268 Co237 2.037 . S
O268 C288 1.234 . S
C269 O243 1.269 . S
C269 O244 1.257 . S
C270 H245 0.930 . S
C270 C273 1.388 . S
C270 C275 1.418 . S
C271 H266 0.930 . S
C271 C274 1.404 1_556 S
C271 C275 1.353 . S
N272 Co237 2.145 . S
N272 C273 1.397 1_554 S
N272 C274 1.334 . S
C273 H254 0.929 . S
C273 C270 1.388 . S
C273 N272 1.397 1_556 S
C274 H255 0.929 . S
C274 C271 1.404 1_554 S
C274 N272 1.334 . S
C275 H267 0.930 . S
C275 C270 1.418 . S
C275 C271 1.353 . S
C276 H246 0.930 . S
C276 N277 1.330 . S
C276 C278 1.446 1_655 S
N277 Co236 2.151 . S
N277 C276 1.330 . S
N277 C281 1.418 1_655 S
C278 H257 0.929 . S
C278 C276 1.446 1_455 S
C278 C279 1.332 . S
C279 H259 0.931 . S
C279 C278 1.332 . S
C279 C280 1.267 . S
C280 H248 0.929 . S
C280 C279 1.267 . S
C280 C281 1.251 . S
C281 H251 0.929 . S
C281 N277 1.418 1_455 S
C281 C280 1.251 . S
C282 H249 0.930 . S
C282 C284 1.406 . S
C282 C287 1.261 . S
C283 H250 0.930 . S
C283 N285 1.325 . S
C283 C286 1.357 . S
C284 H252 0.928 . S
C284 C282 1.406 . S
C284 N285 1.261 . S
N285 Co236 2.214 . S
N285 C283 1.325 . S
N285 C284 1.261 . S
C286 H256 0.931 . S
C286 C283 1.357 . S
C286 C287 1.312 . S
C287 H258 0.930 . S
C287 C282 1.261 . S
C287 C286 1.312 . S
C288 O260 1.214 . S
C288 O268 1.234 . S
C289 H261 0.929 . S
C289 C292 1.391 . S
C289 C294 1.391 . S
C290 H262 0.929 . S
C290 C291 1.390 . S
C290 N293 1.391 . S
C291 H263 0.930 . S
C291 C290 1.390 . S
C291 C292 1.392 . S
C292 H264 0.929 . S
C292 C289 1.391 . S
C292 C291 1.392 . S
N293 Co237 2.257 . S
N293 C290 1.391 . S
N293 C294 1.388 . S
C294 H265 0.930 . S
C294 C289 1.391 . S
C294 N293 1.388 . S
Co295 O297 2.143 . S
Co295 O303 2.074 . S
Co295 O306 2.093 . S
Co295 O319 2.097 . S
Co295 N336 2.151 . S
Co295 N344 2.214 . S
Co296 O297 2.160 . S
Co296 O302 2.058 . S
Co296 O312 2.057 . S
Co296 O327 2.037 . S
Co296 N331 2.145 . S
Co296 N352 2.257 . S
O297 Co295 2.143 . S
O297 Co296 2.160 . S
C298 O299 1.278 . S
C298 O306 1.224 . S
O299 C298 1.278 . S
C300 O301 1.245 . S
C300 O312 1.232 . S
O301 C300 1.245 . S
O302 Co296 2.058 . S
O302 C328 1.269 . S
O303 Co295 2.074 . S
O303 C328 1.257 . S
H304 C329 0.930 . S
H305 C335 0.930 . S
O306 Co295 2.093 . S
O306 C298 1.224 . S
H307 C339 0.929 . S
H308 C341 0.930 . S
H309 C342 0.930 . S
H310 C340 0.929 . S
H311 C343 0.928 . S
O312 Co296 2.057 . S
O312 C300 1.232 . S
H313 C332 0.929 . S
H314 C333 0.929 . S
H315 C345 0.931 . S
H316 C337 0.929 . S
H317 C346 0.930 . S
H318 C338 0.931 . S
O319 Co295 2.097 . S
O319 C347 1.214 . S
H320 C348 0.929 . S
H321 C349 0.929 . S
H322 C350 0.930 . S
H323 C351 0.929 . S
H324 C353 0.930 . S
H325 C330 0.930 . S
H326 C334 0.930 . S
O327 Co296 2.037 . S
O327 C347 1.234 . S
C328 O302 1.269 . S
C328 O303 1.257 . S
C329 H304 0.930 . S
C329 C332 1.388 . S
C329 C334 1.418 . S
C330 H325 0.930 . S
C330 C333 1.404 1_554 S
C330 C334 1.353 . S
N331 Co296 2.145 . S
N331 C332 1.397 1_556 S
N331 C333 1.334 . S
C332 H313 0.929 . S
C332 C329 1.388 . S
C332 N331 1.397 1_554 S
C333 H314 0.929 . S
C333 C330 1.404 1_556 S
C333 N331 1.334 . S
C334 H326 0.930 . S
C334 C329 1.418 . S
C334 C330 1.353 . S
C335 H305 0.930 . S
C335 N336 1.330 . S
C335 C337 1.446 1_545 S
N336 Co295 2.151 . S
N336 C335 1.330 . S
N336 C340 1.418 1_545 S
C337 H316 0.929 . S
C337 C335 1.446 1_565 S
C337 C338 1.332 . S
C338 H318 0.931 . S
C338 C337 1.332 . S
C338 C339 1.267 . S
C339 H307 0.929 . S
C339 C338 1.267 . S
C339 C340 1.251 . S
C340 H310 0.929 . S
C340 N336 1.418 1_565 S
C340 C339 1.251 . S
C341 H308 0.930 . S
C341 C343 1.406 . S
C341 C346 1.261 . S
C342 H309 0.930 . S
C342 N344 1.325 . S
C342 C345 1.357 . S
C343 H311 0.928 . S
C343 C341 1.406 . S
C343 N344 1.261 . S
N344 Co295 2.214 . S
N344 C342 1.325 . S
N344 C343 1.261 . S
C345 H315 0.931 . S
C345 C342 1.357 . S
C345 C346 1.312 . S
C346 H317 0.930 . S
C346 C341 1.261 . S
C346 C345 1.312 . S
C347 O319 1.214 . S
C347 O327 1.234 . S
C348 H320 0.929 . S
C348 C351 1.391 . S
C348 C353 1.391 . S
C349 H321 0.929 . S
C349 C350 1.390 . S
C349 N352 1.391 . S
C350 H322 0.930 . S
C350 C349 1.390 . S
C350 C351 1.392 . S
C351 H323 0.929 . S
C351 C348 1.391 . S
C351 C350 1.392 . S
N352 Co296 2.257 . S
N352 C349 1.391 . S
N352 C353 1.388 . S
C353 H324 0.930 . S
C353 C348 1.391 . S
C353 N352 1.388 . S
Co354 O356 2.143 . S
Co354 O362 2.074 . S
Co354 O365 2.093 . S
Co354 O378 2.097 . S
Co354 N395 2.151 . S
Co354 N403 2.214 . S
Co355 O356 2.160 . S
Co355 O361 2.058 . S
Co355 O371 2.057 . S
Co355 O386 2.037 . S
Co355 N390 2.145 . S
Co355 N411 2.257 . S
O356 Co354 2.143 . S
O356 Co355 2.160 . S
C357 O358 1.278 . S
C357 O365 1.224 . S
O358 C357 1.278 . S
C359 O360 1.245 . S
C359 O371 1.232 . S
O360 C359 1.245 . S
O361 Co355 2.058 . S
O361 C387 1.269 . S
O362 Co354 2.074 . S
O362 C387 1.257 . S
H363 C388 0.930 . S
H364 C394 0.930 . S
O365 Co354 2.093 . S
O365 C357 1.224 . S
H366 C398 0.929 . S
H367 C400 0.930 . S
H368 C401 0.930 . S
H369 C399 0.929 . S
H370 C402 0.928 . S
O371 Co355 2.057 . S
O371 C359 1.232 . S
H372 C391 0.929 . S
H373 C392 0.929 . S
H374 C404 0.931 . S
H375 C396 0.929 . S
H376 C405 0.930 . S
H377 C397 0.931 . S
O378 Co354 2.097 . S
O378 C406 1.214 . S
H379 C407 0.929 . S
H380 C408 0.929 . S
H381 C409 0.930 . S
H382 C410 0.929 . S
H383 C412 0.930 . S
H384 C389 0.930 . S
H385 C393 0.930 . S
O386 Co355 2.037 . S
O386 C406 1.234 . S
C387 O361 1.269 . S
C387 O362 1.257 . S
C388 H363 0.930 . S
C388 C391 1.388 . S
C388 C393 1.418 . S
C389 H384 0.930 . S
C389 C392 1.404 1_556 S
C389 C393 1.353 . S
N390 Co355 2.145 . S
N390 C391 1.397 1_554 S
N390 C392 1.334 . S
C391 H372 0.929 . S
C391 C388 1.388 . S
C391 N390 1.397 1_556 S
C392 H373 0.929 . S
C392 C389 1.404 1_554 S
C392 N390 1.334 . S
C393 H385 0.930 . S
C393 C388 1.418 . S
C393 C389 1.353 . S
C394 H364 0.930 . S
C394 N395 1.330 . S
C394 C396 1.446 1_455 S
N395 Co354 2.151 . S
N395 C394 1.330 . S
N395 C399 1.418 1_455 S
C396 H375 0.929 . S
C396 C394 1.446 1_655 S
C396 C397 1.332 . S
C397 H377 0.931 . S
C397 C396 1.332 . S
C397 C398 1.267 . S
C398 H366 0.929 . S
C398 C397 1.267 . S
C398 C399 1.251 . S
C399 H369 0.929 . S
C399 N395 1.418 1_655 S
C399 C398 1.251 . S
C400 H367 0.930 . S
C400 C402 1.406 . S
C400 C405 1.261 . S
C401 H368 0.930 . S
C401 N403 1.325 . S
C401 C404 1.357 . S
C402 H370 0.928 . S
C402 C400 1.406 . S
C402 N403 1.261 . S
N403 Co354 2.214 . S
N403 C401 1.325 . S
N403 C402 1.261 . S
C404 H374 0.931 . S
C404 C401 1.357 . S
C404 C405 1.312 . S
C405 H376 0.930 . S
C405 C400 1.261 . S
C405 C404 1.312 . S
C406 O378 1.214 . S
C406 O386 1.234 . S
C407 H379 0.929 . S
C407 C410 1.391 . S
C407 C412 1.391 . S
C408 H380 0.929 . S
C408 C409 1.390 . S
C408 N411 1.391 . S
C409 H381 0.930 . S
C409 C408 1.390 . S
C409 C410 1.392 . S
C410 H382 0.929 . S
C410 C407 1.391 . S
C410 C409 1.392 . S
N411 Co355 2.257 . S
N411 C408 1.391 . S
N411 C412 1.388 . S
C412 H383 0.930 . S
C412 C407 1.391 . S
C412 N411 1.388 . S
Co413 O415 2.143 . S
Co413 O421 2.074 . S
Co413 O424 2.093 . S
Co413 O437 2.097 . S
Co413 N454 2.151 . S
Co413 N462 2.214 . S
Co414 O415 2.160 . S
Co414 O420 2.058 . S
Co414 O430 2.057 . S
Co414 O445 2.037 . S
Co414 N449 2.145 . S
Co414 N470 2.257 . S
O415 Co413 2.143 . S
O415 Co414 2.160 . S
C416 O417 1.278 . S
C416 O424 1.224 . S
O417 C416 1.278 . S
C418 O419 1.245 . S
C418 O430 1.232 . S
O419 C418 1.245 . S
O420 Co414 2.058 . S
O420 C446 1.269 . S
O421 Co413 2.074 . S
O421 C446 1.257 . S
H422 C447 0.930 . S
H423 C453 0.930 . S
O424 Co413 2.093 . S
O424 C416 1.224 . S
H425 C457 0.929 . S
H426 C459 0.930 . S
H427 C460 0.930 . S
H428 C458 0.929 . S
H429 C461 0.928 . S
O430 Co414 2.057 . S
O430 C418 1.232 . S
H431 C450 0.929 . S
H432 C451 0.929 . S
H433 C463 0.931 . S
H434 C455 0.929 . S
H435 C464 0.930 . S
H436 C456 0.931 . S
O437 Co413 2.097 . S
O437 C465 1.214 . S
H438 C466 0.929 . S
H439 C467 0.929 . S
H440 C468 0.930 . S
H441 C469 0.929 . S
H442 C471 0.930 . S
H443 C448 0.930 . S
H444 C452 0.930 . S
O445 Co414 2.037 . S
O445 C465 1.234 . S
C446 O420 1.269 . S
C446 O421 1.257 . S
C447 H422 0.930 . S
C447 C450 1.388 . S
C447 C452 1.418 . S
C448 H443 0.930 . S
C448 C451 1.404 1_554 S
C448 C452 1.353 . S
N449 Co414 2.145 . S
N449 C450 1.397 1_556 S
N449 C451 1.334 . S
C450 H431 0.929 . S
C450 C447 1.388 . S
C450 N449 1.397 1_554 S
C451 H432 0.929 . S
C451 C448 1.404 1_556 S
C451 N449 1.334 . S
C452 H444 0.930 . S
C452 C447 1.418 . S
C452 C448 1.353 . S
C453 H423 0.930 . S
C453 N454 1.330 . S
C453 C455 1.446 1_565 S
N454 Co413 2.151 . S
N454 C453 1.330 . S
N454 C458 1.418 1_565 S
C455 H434 0.929 . S
C455 C453 1.446 1_545 S
C455 C456 1.332 . S
C456 H436 0.931 . S
C456 C455 1.332 . S
C456 C457 1.267 . S
C457 H425 0.929 . S
C457 C456 1.267 . S
C457 C458 1.251 . S
C458 H428 0.929 . S
C458 N454 1.418 1_545 S
C458 C457 1.251 . S
C459 H426 0.930 . S
C459 C461 1.406 . S
C459 C464 1.261 . S
C460 H427 0.930 . S
C460 N462 1.325 . S
C460 C463 1.357 . S
C461 H429 0.928 . S
C461 C459 1.406 . S
C461 N462 1.261 . S
N462 Co413 2.214 . S
N462 C460 1.325 . S
N462 C461 1.261 . S
C463 H433 0.931 . S
C463 C460 1.357 . S
C463 C464 1.312 . S
C464 H435 0.930 . S
C464 C459 1.261 . S
C464 C463 1.312 . S
C465 O437 1.214 . S
C465 O445 1.234 . S
C466 H438 0.929 . S
C466 C469 1.391 . S
C466 C471 1.391 . S
C467 H439 0.929 . S
C467 C468 1.390 . S
C467 N470 1.391 . S
C468 H440 0.930 . S
C468 C467 1.390 . S
C468 C469 1.392 . S
C469 H441 0.929 . S
C469 C466 1.391 . S
C469 C468 1.392 . S
N470 Co414 2.257 . S
N470 C467 1.391 . S
N470 C471 1.388 . S
C471 H442 0.930 . S
C471 C466 1.391 . S
C471 N470 1.388 . S
H472 C484 0.930 . S
H473 C486 0.930 . S
H474 C487 0.933 . S
H475 C491 0.959 . S
H476 C491 0.959 . S
H477 C491 0.961 . S
H478 C492 0.960 1_655 S
H479 C492 0.961 . S
H480 C492 0.959 . S
H481 C495 0.929 . S
H482 C496 0.931 . S
H483 C498 0.930 . S
C484 H472 0.930 . S
C484 C485 1.399 . S
C484 C489 1.399 . S
C485 C484 1.399 . S
C485 C486 1.376 . S
C486 H473 0.930 . S
C486 C485 1.376 . S
C486 C487 1.385 1_655 S
C487 H474 0.933 . S
C487 C486 1.385 1_455 S
C487 C488 1.390 . S
C488 C487 1.390 . S
C488 C489 1.381 1_455 S
C488 C494 1.476 . S
C489 C484 1.399 . S
C489 C488 1.381 1_655 S
C489 C490 1.516 . S
C490 C489 1.516 . S
C490 C491 1.502 . S
C490 C492 1.561 1_655 S
C490 C493 1.526 1_655 S
C491 H475 0.959 . S
C491 H476 0.959 . S
C491 H477 0.961 . S
C491 C490 1.502 . S
C492 H478 0.960 1_455 S
C492 H479 0.961 . S
C492 H480 0.959 . S
C492 C490 1.561 1_455 S
C493 C490 1.526 1_455 S
C493 C494 1.396 . S
C493 C498 1.390 . S
C494 C488 1.476 . S
C494 C493 1.396 . S
C494 C495 1.399 . S
C495 H481 0.929 . S
C495 C494 1.399 . S
C495 C496 1.385 . S
C496 H482 0.931 . S
C496 C495 1.385 . S
C496 C497 1.389 . S
C497 C496 1.389 . S
C497 C498 1.387 . S
C498 H483 0.930 . S
C498 C493 1.390 . S
C498 C497 1.387 . S
H499 C511 0.930 . S
H500 C513 0.930 . S
H501 C514 0.930 . S
H502 C518 0.959 . S
H503 C518 0.959 . S
H504 C518 0.961 . S
H505 C519 0.960 . S
H506 C519 0.961 . S
H507 C519 0.959 . S
H508 C522 0.929 . S
H509 C523 0.931 . S
H510 C525 0.930 . S
C511 H499 0.930 . S
C511 C512 1.399 . S
C511 C516 1.399 . S
C512 C511 1.399 . S
C512 C513 1.376 . S
C513 H500 0.930 . S
C513 C512 1.376 . S
C513 C514 1.388 . S
C514 H501 0.930 . S
C514 C513 1.388 . S
C514 C515 1.390 . S
C515 C514 1.390 . S
C515 C516 1.394 . S
C515 C521 1.465 1_545 S
C516 C511 1.399 . S
C516 C515 1.394 . S
C516 C517 1.516 1_545 S
C517 C516 1.516 1_565 S
C517 C518 1.502 1_565 S
C517 C519 1.561 . S
C517 C520 1.526 . S
C518 H502 0.959 . S
C518 H503 0.959 . S
C518 H504 0.961 . S
C518 C517 1.502 1_545 S
C519 H505 0.960 . S
C519 H506 0.961 . S
C519 H507 0.959 . S
C519 C517 1.561 . S
C520 C517 1.526 . S
C520 C521 1.396 . S
C520 C525 1.390 . S
C521 C515 1.465 1_565 S
C521 C520 1.396 . S
C521 C522 1.399 . S
C522 H508 0.929 . S
C522 C521 1.399 . S
C522 C523 1.385 . S
C523 H509 0.931 . S
C523 C522 1.385 . S
C523 C524 1.389 . S
C524 C523 1.389 . S
C524 C525 1.387 . S
C525 H510 0.930 . S
C525 C520 1.390 . S
C525 C524 1.387 . S
H526 C538 0.930 . S
H527 C540 0.930 . S
H528 C541 0.930 . S
H529 C545 0.959 . S
H530 C545 0.959 . S
H531 C545 0.961 . S
H532 C546 0.960 . S
H533 C546 0.961 . S
H534 C546 0.959 . S
H535 C549 0.929 . S
H536 C550 0.931 . S
H537 C552 0.930 . S
C538 H526 0.930 . S
C538 C539 1.399 . S
C538 C543 1.399 . S
C539 C538 1.399 . S
C539 C540 1.376 . S
C540 H527 0.930 . S
C540 C539 1.376 . S
C540 C541 1.388 . S
C541 H528 0.930 . S
C541 C540 1.388 . S
C541 C542 1.390 . S
C542 C541 1.390 . S
C542 C543 1.394 . S
C542 C548 1.465 1_655 S
C543 C538 1.399 . S
C543 C542 1.394 . S
C543 C544 1.512 1_655 S
C544 C543 1.512 1_455 S
C544 C545 1.494 1_455 S
C544 C546 1.569 . S
C544 C547 1.530 . S
C545 H529 0.959 . S
C545 H530 0.959 . S
C545 H531 0.961 . S
C545 C544 1.494 1_655 S
C546 H532 0.960 . S
C546 H533 0.961 . S
C546 H534 0.959 . S
C546 C544 1.569 . S
C547 C544 1.530 . S
C547 C548 1.396 . S
C547 C552 1.390 . S
C548 C542 1.465 1_455 S
C548 C547 1.396 . S
C548 C549 1.399 . S
C549 H535 0.929 . S
C549 C548 1.399 . S
C549 C550 1.385 . S
C550 H536 0.931 . S
C550 C549 1.385 . S
C550 C551 1.389 . S
C551 C550 1.389 . S
C551 C552 1.387 . S
C552 H537 0.930 . S
C552 C547 1.390 . S
C552 C551 1.387 . S
H553 C565 0.930 . S
H554 C567 0.930 . S
H555 C568 0.930 . S
H556 C572 0.959 . S
H557 C572 0.959 . S
H558 C572 0.961 . S
H559 C573 0.960 . S
H560 C573 0.961 . S
H561 C573 0.959 . S
H562 C576 0.929 . S
H563 C577 0.931 . S
H564 C579 0.930 . S
C565 H553 0.930 . S
C565 C566 1.399 . S
C565 C570 1.399 . S
C566 C565 1.399 . S
C566 C567 1.376 . S
C567 H554 0.930 . S
C567 C566 1.376 . S
C567 C568 1.388 . S
C568 H555 0.930 . S
C568 C567 1.388 . S
C568 C569 1.390 . S
C569 C568 1.390 . S
C569 C570 1.394 . S
C569 C575 1.465 1_545 S
C570 C565 1.399 . S
C570 C569 1.394 . S
C570 C571 1.511 1_545 S
C571 C570 1.511 1_565 S
C571 C572 1.493 1_565 S
C571 C573 1.571 . S
C571 C574 1.531 . S
C572 H556 0.959 . S
C572 H557 0.959 . S
C572 H558 0.961 . S
C572 C571 1.493 1_545 S
C573 H559 0.960 . S
C573 H560 0.961 . S
C573 H561 0.959 . S
C573 C571 1.571 . S
C574 C571 1.531 . S
C574 C575 1.396 . S
C574 C579 1.390 . S
C575 C569 1.465 1_565 S
C575 C574 1.396 . S
C575 C576 1.399 . S
C576 H562 0.929 . S
C576 C575 1.399 . S
C576 C577 1.385 . S
C577 H563 0.931 . S
C577 C576 1.385 . S
C577 C578 1.389 . S
C578 C577 1.389 . S
C578 C579 1.387 . S
C579 H564 0.930 . S
C579 C574 1.390 . S
C579 C578 1.387 . S
H580 C592 0.930 1_565 S
H581 C594 0.930 . S
H582 C595 0.930 . S
H583 C599 0.959 . S
H584 C599 0.959 . S
H585 C599 0.961 . S
H586 C600 0.960 . S
H587 C600 0.961 . S
H588 C600 0.959 . S
H589 C603 0.929 . S
H590 C604 0.931 . S
H591 C606 0.930 . S
C592 H580 0.930 1_545 S
C592 C593 1.399 . S
C592 C597 1.399 . S
C593 C592 1.399 . S
C593 C594 1.376 . S
C594 H581 0.930 . S
C594 C593 1.376 . S
C594 C595 1.388 . S
C595 H582 0.930 . S
C595 C594 1.388 . S
C595 C596 1.390 . S
C596 C595 1.390 . S
C596 C597 1.394 . S
C596 C602 1.465 . S
C597 C592 1.399 . S
C597 C596 1.394 . S
C597 C598 1.516 . S
C598 C597 1.516 . S
C598 C599 1.502 . S
C598 C600 1.561 . S
C598 C601 1.526 . S
C599 H583 0.959 . S
C599 H584 0.959 . S
C599 H585 0.961 . S
C599 C598 1.502 . S
C600 H586 0.960 . S
C600 H587 0.961 . S
C600 H588 0.959 . S
C600 C598 1.561 . S
C601 C598 1.526 . S
C601 C602 1.396 . S
C601 C606 1.390 . S
C602 C596 1.465 . S
C602 C601 1.396 . S
C602 C603 1.399 . S
C603 H589 0.929 . S
C603 C602 1.399 . S
C603 C604 1.385 . S
C604 H590 0.931 . S
C604 C603 1.385 . S
C604 C605 1.389 . S
C605 C604 1.389 . S
C605 C606 1.387 . S
C606 H591 0.930 . S
C606 C601 1.390 . S
C606 C605 1.387 . S
H607 C619 0.930 . S
H608 C621 0.930 . S
H609 C622 0.930 . S
H610 C626 0.959 . S
H611 C626 0.959 . S
H612 C626 0.961 . S
H613 C627 0.960 . S
H614 C627 0.961 . S
H615 C627 0.959 . S
H616 C630 0.929 . S
H617 C631 0.931 . S
H618 C633 0.930 . S
C619 H607 0.930 . S
C619 C620 1.399 . S
C619 C624 1.399 . S
C620 C619 1.399 . S
C620 C621 1.376 . S
C621 H608 0.930 . S
C621 C620 1.376 . S
C621 C622 1.388 . S
C622 H609 0.930 . S
C622 C621 1.388 . S
C622 C623 1.390 . S
C623 C622 1.390 . S
C623 C624 1.394 . S
C623 C629 1.465 . S
C624 C619 1.399 . S
C624 C623 1.394 . S
C624 C625 1.516 . S
C625 C624 1.516 . S
C625 C626 1.502 . S
C625 C627 1.561 . S
C625 C628 1.526 . S
C626 H610 0.959 . S
C626 H611 0.959 . S
C626 H612 0.961 . S
C626 C625 1.502 . S
C627 H613 0.960 . S
C627 H614 0.961 . S
C627 H615 0.959 . S
C627 C625 1.561 . S
C628 C625 1.526 . S
C628 C629 1.396 . S
C628 C633 1.390 . S
C629 C623 1.465 . S
C629 C628 1.396 . S
C629 C630 1.399 . S
C630 H616 0.929 . S
C630 C629 1.399 . S
C630 C631 1.385 1_455 S
C631 H617 0.931 . S
C631 C630 1.385 1_655 S
C631 C632 1.389 1_655 S
C632 C631 1.389 1_455 S
C632 C633 1.387 . S
C633 H618 0.930 . S
C633 C628 1.390 . S
C633 C632 1.387 . S
H634 C646 0.930 . S
H635 C648 0.930 . S
H636 C649 0.930 . S
H637 C653 0.959 . S
H638 C653 0.959 . S
H639 C653 0.961 . S
H640 C654 0.960 . S
H641 C654 0.961 . S
H642 C654 0.959 . S
H643 C657 0.929 . S
H644 C658 0.931 . S
H645 C660 0.930 . S
C646 H634 0.930 . S
C646 C647 1.399 . S
C646 C651 1.399 . S
C647 C646 1.399 . S
C647 C648 1.376 1_565 S
C648 H635 0.930 . S
C648 C647 1.376 1_545 S
C648 C649 1.388 1_545 S
C649 H636 0.930 . S
C649 C648 1.388 1_565 S
C649 C650 1.390 . S
C650 C649 1.390 . S
C650 C651 1.394 . S
C650 C656 1.465 . S
C651 C646 1.399 . S
C651 C650 1.394 . S
C651 C652 1.516 . S
C652 C651 1.516 . S
C652 C653 1.502 . S
C652 C654 1.561 . S
C652 C655 1.526 . S
C653 H637 0.959 . S
C653 H638 0.959 . S
C653 H639 0.961 . S
C653 C652 1.502 . S
C654 H640 0.960 . S
C654 H641 0.961 . S
C654 H642 0.959 . S
C654 C652 1.561 . S
C655 C652 1.526 . S
C655 C656 1.396 . S
C655 C660 1.390 . S
C656 C650 1.465 . S
C656 C655 1.396 . S
C656 C657 1.399 . S
C657 H643 0.929 . S
C657 C656 1.399 . S
C657 C658 1.385 . S
C658 H644 0.931 . S
C658 C657 1.385 . S
C658 C659 1.389 . S
C659 C658 1.389 . S
C659 C660 1.387 . S
C660 H645 0.930 . S
C660 C655 1.390 . S
C660 C659 1.387 . S
H661 C673 0.930 . S
H662 C675 0.930 . S
H663 C676 0.930 . S
H664 C680 0.959 . S
H665 C680 0.959 . S
H666 C680 0.961 . S
H667 C681 0.960 . S
H668 C681 0.961 . S
H669 C681 0.959 . S
H670 C684 0.929 . S
H671 C685 0.931 . S
H672 C687 0.930 1_455 S
C673 H661 0.930 . S
C673 C674 1.399 . S
C673 C678 1.399 . S
C674 C673 1.399 . S
C674 C675 1.376 . S
C675 H662 0.930 . S
C675 C674 1.376 . S
C675 C676 1.388 . S
C676 H663 0.930 . S
C676 C675 1.388 . S
C676 C677 1.390 . S
C677 C676 1.390 . S
C677 C678 1.394 . S
C677 C683 1.465 . S
C678 C673 1.399 . S
C678 C677 1.394 . S
C678 C679 1.516 . S
C679 C678 1.516 . S
C679 C680 1.502 . S
C679 C681 1.561 . S
C679 C682 1.526 . S
C680 H664 0.959 . S
C680 H665 0.959 . S
C680 H666 0.961 . S
C680 C679 1.502 . S
C681 H667 0.960 . S
C681 H668 0.961 . S
C681 H669 0.959 . S
C681 C679 1.561 . S
C682 C679 1.526 . S
C682 C683 1.396 . S
C682 C687 1.390 . S
C683 C677 1.465 . S
C683 C682 1.396 . S
C683 C684 1.399 . S
C684 H670 0.929 . S
C684 C683 1.399 . S
C684 C685 1.385 . S
C685 H671 0.931 . S
C685 C684 1.385 . S
C685 C686 1.389 . S
C686 C685 1.389 . S
C686 C687 1.387 . S
C687 H672 0.930 1_655 S
C687 C682 1.390 . S
C687 C686 1.387 . S
H688 C700 0.930 . S
H689 C702 0.930 . S
H690 C703 0.930 . S
H691 C707 0.959 . S
H692 C707 0.959 . S
H693 C707 0.961 . S
H694 C708 0.960 . S
H695 C708 0.961 . S
H696 C708 0.959 . S
H697 C711 0.929 . S
H698 C712 0.931 . S
H699 C714 0.930 . S
C700 H688 0.930 . S
C700 C701 1.399 . S
C700 C705 1.399 . S
C701 C700 1.399 . S
C701 C702 1.376 1_545 S
C702 H689 0.930 . S
C702 C701 1.376 1_565 S
C702 C703 1.388 1_566 S
C703 H690 0.930 . S
C703 C702 1.388 1_544 S
C703 C704 1.390 . S
C704 C703 1.390 . S
C704 C705 1.394 1_554 S
C704 C710 1.465 . S
C705 C700 1.399 . S
C705 C704 1.394 1_556 S
C705 C706 1.516 . S
C706 C705 1.516 . S
C706 C707 1.502 . S
C706 C708 1.561 . S
C706 C709 1.526 1_556 S
C707 H691 0.959 . S
C707 H692 0.959 . S
C707 H693 0.961 . S
C707 C706 1.502 . S
C708 H694 0.960 . S
C708 H695 0.961 . S
C708 H696 0.959 . S
C708 C706 1.561 . S
C709 C706 1.526 1_554 S
C709 C710 1.396 . S
C709 C714 1.390 . S
C710 C704 1.465 . S
C710 C709 1.396 . S
C710 C711 1.399 . S
C711 H697 0.929 . S
C711 C710 1.399 . S
C711 C712 1.385 . S
C712 H698 0.931 . S
C712 C711 1.385 . S
C712 C713 1.389 . S
C713 C712 1.389 . S
C713 C714 1.387 . S
C714 H699 0.930 . S
C714 C709 1.390 . S
C714 C713 1.387 . S
H715 C727 0.930 . S
H716 C729 0.930 . S
H717 C730 0.930 . S
H718 C734 0.959 1_556 S
H719 C734 0.959 . S
H720 C734 0.951 1_556 S
H721 C735 0.960 . S
H722 C735 0.961 . S
H723 C735 0.959 . S
H724 C738 0.929 1_556 S
H725 C739 0.931 . S
H726 C741 0.930 . S
C727 H715 0.930 . S
C727 C728 1.399 . S
C727 C732 1.399 . S
C728 C727 1.399 . S
C728 C729 1.376 . S
C729 H716 0.930 . S
C729 C728 1.376 . S
C729 C730 1.388 . S
C730 H717 0.930 . S
C730 C729 1.388 . S
C730 C731 1.390 . S
C731 C730 1.390 . S
C731 C732 1.394 . S
C731 C737 1.465 1_556 S
C732 C727 1.399 . S
C732 C731 1.394 . S
C732 C733 1.516 1_556 S
C733 C732 1.516 1_554 S
C733 C734 1.502 . S
C733 C735 1.561 . S
C733 C736 1.526 . S
C734 H718 0.959 1_554 S
C734 H719 0.959 . S
C734 H720 0.951 1_554 S
C734 C733 1.502 . S
C735 H721 0.960 . S
C735 H722 0.961 . S
C735 H723 0.959 . S
C735 C733 1.561 . S
C736 C733 1.526 . S
C736 C737 1.396 . S
C736 C741 1.390 . S
C737 C731 1.465 1_554 S
C737 C736 1.396 . S
C737 C738 1.399 . S
C738 H724 0.929 1_554 S
C738 C737 1.399 . S
C738 C739 1.385 . S
C739 H725 0.931 . S
C739 C738 1.385 . S
C739 C740 1.389 . S
C740 C739 1.389 . S
C740 C741 1.387 . S
C741 H726 0.930 . S
C741 C736 1.390 . S
C741 C740 1.387 . S
H742 C754 0.930 . S
H743 C756 0.930 . S
H744 C757 0.930 . S
H745 C761 0.959 . S
H746 C761 0.959 . S
H747 C761 0.961 . S
H748 C762 0.960 . S
H749 C762 0.961 . S
H750 C762 0.959 . S
H751 C765 0.929 . S
H752 C766 0.931 . S
H753 C768 0.930 . S
C754 H742 0.930 . S
C754 C755 1.399 . S
C754 C759 1.399 . S
C755 C754 1.399 . S
C755 C756 1.376 . S
C756 H743 0.930 . S
C756 C755 1.376 . S
C756 C757 1.388 . S
C757 H744 0.930 . S
C757 C756 1.388 . S
C757 C758 1.390 . S
C758 C757 1.390 . S
C758 C759 1.394 . S
C758 C764 1.465 . S
C759 C754 1.399 . S
C759 C758 1.394 . S
C759 C760 1.516 1_554 S
C760 C759 1.516 1_556 S
C760 C761 1.502 . S
C760 C762 1.561 . S
C760 C763 1.526 . S
C761 H745 0.959 . S
C761 H746 0.959 . S
C761 H747 0.961 . S
C761 C760 1.502 . S
C762 H748 0.960 . S
C762 H749 0.961 . S
C762 H750 0.959 . S
C762 C760 1.561 . S
C763 C760 1.526 . S
C763 C764 1.396 1_556 S
C763 C768 1.390 . S
C764 C758 1.465 . S
C764 C763 1.396 1_554 S
C764 C765 1.399 . S
C765 H751 0.929 . S
C765 C764 1.399 . S
C765 C766 1.385 1_564 S
C766 H752 0.931 . S
C766 C765 1.385 1_546 S
C766 C767 1.389 1_545 S
C767 C766 1.389 1_565 S
C767 C768 1.387 . S
C768 H753 0.930 . S
C768 C763 1.390 . S
C768 C767 1.387 . S
H769 C781 0.930 . S
H770 C783 0.930 . S
H771 C784 0.930 . S
H772 C788 0.959 1_556 S
H773 C788 0.959 . S
H774 C788 0.961 . S
H775 C789 0.960 . S
H776 C789 0.961 . S
H777 C789 0.959 . S
H778 C792 0.929 1_556 S
H779 C793 0.933 . S
H780 C795 0.930 . S
C781 H769 0.930 . S
C781 C782 1.399 . S
C781 C786 1.399 . S
C782 C781 1.399 . S
C782 C783 1.376 . S
C783 H770 0.930 . S
C783 C782 1.376 . S
C783 C784 1.388 . S
C784 H771 0.930 . S
C784 C783 1.388 . S
C784 C785 1.390 . S
C785 C784 1.390 . S
C785 C786 1.394 . S
C785 C791 1.465 1_556 S
C786 C781 1.399 . S
C786 C785 1.394 . S
C786 C787 1.516 1_556 S
C787 C786 1.516 1_554 S
C787 C788 1.502 . S
C787 C789 1.561 . S
C787 C790 1.526 . S
C788 H772 0.959 1_554 S
C788 H773 0.959 . S
C788 H774 0.961 . S
C788 C787 1.502 . S
C789 H775 0.960 . S
C789 H776 0.961 . S
C789 H777 0.959 . S
C789 C787 1.561 . S
C790 C787 1.526 . S
C790 C791 1.396 . S
C790 C795 1.390 . S
C791 C785 1.465 1_554 S
C791 C790 1.396 . S
C791 C792 1.399 . S
C792 H778 0.929 1_554 S
C792 C791 1.399 . S
C792 C793 1.385 . S
C793 H779 0.933 . S
C793 C792 1.385 . S
C793 C794 1.389 . S
C794 C793 1.389 . S
C794 C795 1.387 . S
C795 H780 0.930 . S
C795 C790 1.390 . S
C795 C794 1.387 . S
H796 C808 0.930 . S
H797 C810 0.930 . S
H798 C811 0.930 . S
H799 C815 0.959 . S
H800 C815 0.959 . S
H801 C815 0.961 . S
H802 C816 0.960 . S
H803 C816 0.961 . S
H804 C816 0.959 . S
H805 C819 0.929 . S
H806 C820 0.931 . S
H807 C822 0.930 . S
C808 H796 0.930 . S
C808 C809 1.399 . S
C808 C813 1.399 . S
C809 C808 1.399 . S
C809 C810 1.376 . S
C810 H797 0.930 . S
C810 C809 1.376 . S
C810 C811 1.388 . S
C811 H798 0.930 . S
C811 C810 1.388 . S
C811 C812 1.390 . S
C812 C811 1.390 . S
C812 C813 1.394 . S
C812 C818 1.465 . S
C813 C808 1.399 . S
C813 C812 1.394 . S
C813 C814 1.516 . S
C814 C813 1.516 . S
C814 C815 1.502 . S
C814 C816 1.561 . S
C814 C817 1.526 . S
C815 H799 0.959 . S
C815 H800 0.959 . S
C815 H801 0.961 . S
C815 C814 1.502 . S
C816 H802 0.960 . S
C816 H803 0.961 . S
C816 H804 0.959 . S
C816 C814 1.561 . S
C817 C814 1.526 . S
C817 C818 1.396 . S
C817 C822 1.390 . S
C818 C812 1.465 . S
C818 C817 1.396 . S
C818 C819 1.399 . S
C819 H805 0.929 . S
C819 C818 1.399 . S
C819 C820 1.385 . S
C820 H806 0.931 . S
C820 C819 1.385 . S
C820 C821 1.389 . S
C821 C820 1.389 . S
C821 C822 1.387 . S
C822 H807 0.930 . S
C822 C817 1.390 . S
C822 C821 1.387 . S
H823 C835 0.930 . S
H824 C837 0.930 . S
H825 C838 0.930 . S
H826 C842 0.959 . S
H827 C842 0.959 . S
H828 C842 0.961 . S
H829 C843 0.960 . S
H830 C843 0.961 . S
H831 C843 0.959 . S
H832 C846 0.929 . S
H833 C847 0.931 . S
H834 C849 0.930 . S
C835 H823 0.930 . S
C835 C836 1.399 . S
C835 C840 1.399 . S
C836 C835 1.399 . S
C836 C837 1.376 . S
C837 H824 0.930 . S
C837 C836 1.376 . S
C837 C838 1.388 . S
C838 H825 0.930 . S
C838 C837 1.388 . S
C838 C839 1.390 . S
C839 C838 1.390 . S
C839 C840 1.394 . S
C839 C845 1.465 . S
C840 C835 1.399 . S
C840 C839 1.394 . S
C840 C841 1.516 . S
C841 C840 1.516 . S
C841 C842 1.502 . S
C841 C843 1.561 . S
C841 C844 1.526 . S
C842 H826 0.959 . S
C842 H827 0.959 . S
C842 H828 0.961 . S
C842 C841 1.502 . S
C843 H829 0.960 . S
C843 H830 0.961 . S
C843 H831 0.959 . S
C843 C841 1.561 . S
C844 C841 1.526 . S
C844 C845 1.396 . S
C844 C849 1.390 . S
C845 C839 1.465 . S
C845 C844 1.396 . S
C845 C846 1.399 . S
C846 H832 0.929 . S
C846 C845 1.399 . S
C846 C847 1.385 . S
C847 H833 0.931 . S
C847 C846 1.385 . S
C847 C848 1.389 . S
C848 C847 1.389 . S
C848 C849 1.387 . S
C849 H834 0.930 . S
C849 C844 1.390 . S
C849 C848 1.387 . S
H850 C862 0.930 . S
H851 C864 0.930 . S
H852 C865 0.930 . S
H853 C869 0.959 . S
H854 C869 0.959 . S
H855 C869 0.961 . S
H856 C870 0.960 . S
H857 C870 0.961 . S
H858 C870 0.959 . S
H859 C873 0.929 . S
H860 C874 0.931 . S
H861 C876 0.930 . S
C862 H850 0.930 . S
C862 C863 1.399 . S
C862 C867 1.399 . S
C863 C862 1.399 . S
C863 C864 1.376 . S
C864 H851 0.930 . S
C864 C863 1.376 . S
C864 C865 1.388 . S
C865 H852 0.930 . S
C865 C864 1.388 . S
C865 C866 1.390 . S
C866 C865 1.390 . S
C866 C867 1.394 . S
C866 C872 1.465 . S
C867 C862 1.399 . S
C867 C866 1.394 . S
C867 C868 1.516 . S
C868 C867 1.516 . S
C868 C869 1.502 . S
C868 C870 1.561 . S
C868 C871 1.526 . S
C869 H853 0.959 . S
C869 H854 0.959 . S
C869 H855 0.961 . S
C869 C868 1.502 . S
C870 H856 0.960 . S
C870 H857 0.961 . S
C870 H858 0.959 . S
C870 C868 1.561 . S
C871 C868 1.526 . S
C871 C872 1.396 . S
C871 C876 1.390 . S
C872 C866 1.465 . S
C872 C871 1.396 . S
C872 C873 1.399 . S
C873 H859 0.929 . S
C873 C872 1.399 . S
C873 C874 1.385 . S
C874 H860 0.931 . S
C874 C873 1.385 . S
C874 C875 1.389 . S
C875 C874 1.389 . S
C875 C876 1.387 . S
C876 H861 0.930 . S
C876 C871 1.390 . S
C876 C875 1.387 . S
H877 C889 0.930 . S
H878 C891 0.930 . S
H879 C892 0.930 . S
H880 C896 0.959 . S
H881 C896 0.959 . S
H882 C896 0.961 . S
H883 C897 0.960 . S
H884 C897 0.961 . S
H885 C897 0.959 . S
H886 C900 0.929 . S
H887 C901 0.931 . S
H888 C903 0.930 . S
C889 H877 0.930 . S
C889 C890 1.399 . S
C889 C894 1.399 . S
C890 C889 1.399 . S
C890 C891 1.376 . S
C891 H878 0.930 . S
C891 C890 1.376 . S
C891 C892 1.388 . S
C892 H879 0.930 . S
C892 C891 1.388 . S
C892 C893 1.390 . S
C893 C892 1.390 . S
C893 C894 1.394 . S
C893 C899 1.465 . S
C894 C889 1.399 . S
C894 C893 1.394 . S
C894 C895 1.516 . S
C895 C894 1.516 . S
C895 C896 1.502 . S
C895 C897 1.561 . S
C895 C898 1.526 . S
C896 H880 0.959 . S
C896 H881 0.959 . S
C896 H882 0.961 . S
C896 C895 1.502 . S
C897 H883 0.960 . S
C897 H884 0.961 . S
C897 H885 0.959 . S
C897 C895 1.561 . S
C898 C895 1.526 . S
C898 C899 1.396 . S
C898 C903 1.390 . S
C899 C893 1.465 . S
C899 C898 1.396 . S
C899 C900 1.399 . S
C900 H886 0.929 . S
C900 C899 1.399 . S
C900 C901 1.385 . S
C901 H887 0.931 . S
C901 C900 1.385 . S
C901 C902 1.389 . S
C902 C901 1.389 . S
C902 C903 1.387 . S
C903 H888 0.930 . S
C903 C898 1.390 . S
C903 C902 1.387 . S
C485 C123 1.460 . S
C497 C5 1.503 . S
C512 C182 1.461 . S
C524 C64 1.481 . S
C539 C241 1.460 . S
C551 C359 1.482 . S
C566 C300 1.471 . S
C578 C418 1.494 . S
C593 C92 1.367 1_545 S
C605 C52 1.370 . S
C620 C111 1.344 . S
C632 C151 1.361 1_455 S
C647 C210 1.360 1_565 S
C659 C170 1.336 . S
C674 C229 1.372 . S
C686 C33 1.367 1_655 S
C701 C446 1.361 1_545 S
C713 C288 1.347 . S
C728 C347 1.373 . S
C740 C269 1.365 1_455 S
C755 C406 1.341 . S
C767 C328 1.361 1_565 S
C782 C465 1.372 . S
C794 C387 1.364 1_655 S
C809 C3 1.622 . S
C821 C298 1.639 . S
C836 C357 1.620 . S
C848 C62 1.650 . S
C863 C121 1.626 . S
C875 C416 1.634 . S
C890 C180 1.650 . S
C902 C239 1.657 . S
