# Generated by pormake.
# Topology wkb, (5)-cn, num edge types: 1
# Building blocks:
#     Node 0, Type 0, BuildingBlock: XOMCOT_clean_sbu_0, # of connection points: 5
#     Node 1, Type 0, BuildingBlock: XOMCOT_clean_sbu_0, # of connection points: 5
#     Node 2, Type 0, BuildingBlock: XOMCOT_clean_sbu_0, # of connection points: 5
#     Node 3, Type 0, BuildingBlock: XOMCOT_clean_sbu_0, # of connection points: 5
#     Node 4, Type 0, BuildingBlock: XOMCOT_clean_sbu_0, # of connection points: 5
#     Node 5, Type 0, BuildingBlock: XOMCOT_clean_sbu_0, # of connection points: 5
#     Node 6, Type 0, BuildingBlock: XOMCOT_clean_sbu_0, # of connection points: 5
#     Node 7, Type 0, BuildingBlock: XOMCOT_clean_sbu_0, # of connection points: 5
#     Node 8, Type 0, BuildingBlock: XOMCOT_clean_sbu_0, # of connection points: 5
#     Node 9, Type 0, BuildingBlock: XOMCOT_clean_sbu_0, # of connection points: 5
#     Node 10, Type 0, BuildingBlock: XOMCOT_clean_sbu_0, # of connection points: 5
#     Node 11, Type 0, BuildingBlock: XOMCOT_clean_sbu_0, # of connection points: 5
#     Edge 12, Type (0, 0), BuildingBlock: XIVTED_clean_linker_0, # of connection points: 2
#     Edge 13, Type (0, 0), BuildingBlock: XIVTED_clean_linker_0, # of connection points: 2
#     Edge 14, Type (0, 0), BuildingBlock: XIVTED_clean_linker_0, # of connection points: 2
#     Edge 15, Type (0, 0), BuildingBlock: XIVTED_clean_linker_0, # of connection points: 2
#     Edge 16, Type (0, 0), BuildingBlock: XIVTED_clean_linker_0, # of connection points: 2
#     Edge 17, Type (0, 0), BuildingBlock: XIVTED_clean_linker_0, # of connection points: 2
#     Edge 18, Type (0, 0), BuildingBlock: XIVTED_clean_linker_0, # of connection points: 2
#     Edge 19, Type (0, 0), BuildingBlock: XIVTED_clean_linker_0, # of connection points: 2
#     Edge 20, Type (0, 0), BuildingBlock: XIVTED_clean_linker_0, # of connection points: 2
#     Edge 21, Type (0, 0), BuildingBlock: XIVTED_clean_linker_0, # of connection points: 2
#     Edge 22, Type (0, 0), BuildingBlock: XIVTED_clean_linker_0, # of connection points: 2
#     Edge 23, Type (0, 0), BuildingBlock: XIVTED_clean_linker_0, # of connection points: 2
#     Edge 24, Type (0, 0), BuildingBlock: XIVTED_clean_linker_0, # of connection points: 2
#     Edge 25, Type (0, 0), BuildingBlock: XIVTED_clean_linker_0, # of connection points: 2
#     Edge 26, Type (0, 0), BuildingBlock: XIVTED_clean_linker_0, # of connection points: 2
#     Edge 27, Type (0, 0), BuildingBlock: XIVTED_clean_linker_0, # of connection points: 2
#     Edge 28, Type (0, 0), BuildingBlock: XIVTED_clean_linker_0, # of connection points: 2
#     Edge 29, Type (0, 0), BuildingBlock: XIVTED_clean_linker_0, # of connection points: 2
#     Edge 30, Type (0, 0), BuildingBlock: XIVTED_clean_linker_0, # of connection points: 2
#     Edge 31, Type (0, 0), BuildingBlock: XIVTED_clean_linker_0, # of connection points: 2
#     Edge 32, Type (0, 0), BuildingBlock: XIVTED_clean_linker_0, # of connection points: 2
#     Edge 33, Type (0, 0), BuildingBlock: XIVTED_clean_linker_0, # of connection points: 2
#     Edge 34, Type (0, 0), BuildingBlock: XIVTED_clean_linker_0, # of connection points: 2
#     Edge 35, Type (0, 0), BuildingBlock: XIVTED_clean_linker_0, # of connection points: 2
#     Edge 36, Type (0, 0), BuildingBlock: XIVTED_clean_linker_0, # of connection points: 2
#     Edge 37, Type (0, 0), BuildingBlock: XIVTED_clean_linker_0, # of connection points: 2
#     Edge 38, Type (0, 0), BuildingBlock: XIVTED_clean_linker_0, # of connection points: 2
#     Edge 39, Type (0, 0), BuildingBlock: XIVTED_clean_linker_0, # of connection points: 2
#     Edge 40, Type (0, 0), BuildingBlock: XIVTED_clean_linker_0, # of connection points: 2
#     Edge 41, Type (0, 0), BuildingBlock: XIVTED_clean_linker_0, # of connection points: 2
# Relax obj value: 0.108
# Max RMSD: 0.143
# Mean RMSD: 0.143
data_MOF--net-wkb--node1-XOMCOT_clean_sbu_0--edge1-XIVTED_clean_linker_0
_symmetry_space_group_name_H-M    P1
_symmetry_Int_Tables_number       1
_symmetry_cell_setting            triclinic
loop_
_symmetry_equiv_pos_as_xyz
'x, y, z'
_cell_length_a     46.840644
_cell_length_b     46.837311
_cell_length_c     36.471073
_cell_angle_alpha  89.913879
_cell_angle_beta   89.944453
_cell_angle_gamma 120.13534
loop_
_atom_site_label
_atom_site_type_symbol
_atom_site_fract_x
_atom_site_fract_y
_atom_site_fract_z
_atom_type_partial_charge
Co0 Co 0.05062 0.322 0.08057 0.0
C1 C 0.03783 0.32449 0.99996 0.0
C2 C 1.00588 0.2768 0.02303 0.0
C3 C 0.99999 0.27537 0.98602 0.0
N4 N 1.02972 0.30768 0.03219 0.0
N5 N 1.02023 0.30529 0.97142 0.0
H6 H 0.05606 0.35026 0.99715 0.0
H7 H 0.99405 0.25591 0.04135 0.0
C8 C 0.11294 0.34331 0.03602 0.0
O9 O 0.11 0.36687 0.0203 0.0
N10 N 0.07123 0.33505 0.12832 0.0
C11 C 0.06663 0.35344 0.15345 0.0
C12 C 0.08713 0.35854 0.18283 0.0
C13 C 0.09377 0.32848 0.14304 0.0
N14 N 0.10405 0.34277 0.17624 0.0
C15 C 0.04005 0.37445 0.05972 0.0
C16 C 0.10086 0.4262 0.0806 0.0
C17 C 0.07597 0.43305 0.07045 0.0
C18 C 0.04544 0.40658 0.05931 0.0
C19 C 0.09446 0.39354 0.08046 0.0
N20 N 0.06428 0.36806 0.07008 0.0
H21 H 1.01567 0.3543 0.05332 0.0
H22 H 0.11335 0.38857 0.09016 0.0
H23 H 0.05011 0.36311 0.1502 0.0
H24 H 0.10313 0.31434 0.12936 0.0
O25 O 1.00868 0.3102 0.10254 0.0
O26 O 1.02859 0.27633 0.09712 0.0
O27 O 0.09218 0.32463 0.06026 0.0
C28 C 1.00491 0.28115 0.1085 0.0
H29 H 0.98326 0.25345 0.97079 0.0
H30 H 0.0895 0.3728 0.20714 0.0
H31 H 0.12483 0.44576 0.08941 0.0
H32 H 1.0251 0.4103 0.05218 0.0
Co33 Co 0.74296 0.04008 0.24898 0.0
C34 C 0.73681 0.0302 0.1682 0.0
C35 C 0.72296 0.9848 0.19621 0.0
C36 C 0.71946 0.97877 0.1592 0.0
N37 N 0.73404 1.01714 0.20208 0.0
N38 N 0.72805 1.00724 0.14139 0.0
H39 H 0.74453 0.05588 0.16344 0.0
H40 H 0.71741 0.96633 0.21701 0.0
C41 C 0.79735 0.11114 0.23388 0.0
O42 O 0.78967 0.12153 0.26364 0.0
N43 N 0.75174 0.06228 0.296 0.0
C44 C 0.73055 0.06627 0.31743 0.0
C45 C 0.74701 0.08327 0.34854 0.0
C46 C 0.78027 0.07554 0.31509 0.0
N47 N 0.7784 0.08945 0.34678 0.0
C48 C 0.67777 0.02549 0.2338 0.0
C49 C 0.68778 0.08876 0.23112 0.0
C50 C 0.65532 0.06207 0.22958 0.0
C51 C 0.65071 0.03009 0.23021 0.0
C52 C 0.71433 0.08302 0.23455 0.0
N53 N 0.70913 0.05162 0.23713 0.0
H54 H 0.67332 1.00054 0.23482 0.0
H55 H 0.73856 0.10405 0.23581 0.0
H56 H 0.70506 0.05789 0.31078 0.0
H57 H 0.80239 0.07628 0.30507 0.0
O58 O 0.71465 0.99928 0.2744 0.0
O59 O 0.76801 1.01928 0.26511 0.0
O60 O 0.78046 0.0808 0.22402 0.0
C61 C 0.74036 0.99605 0.27905 0.0
H62 H 0.71152 0.95508 0.14656 0.0
H63 H 0.73701 0.09166 0.37001 0.0
H64 H 0.69268 0.11393 0.2299 0.0
H65 H 0.62622 1.00857 0.22928 0.0
Co66 Co 0.73062 0.73929 0.41796 0.0
C67 C 0.73774 0.73595 0.33616 0.0
C68 C 0.7571 0.70973 0.36522 0.0
C69 C 0.76097 0.70689 0.32833 0.0
N70 N 0.74229 0.72788 0.37051 0.0
N71 N 0.74876 0.72336 0.31 0.0
H72 H 0.7263 0.75027 0.32992 0.0
H73 H 0.76432 0.69855 0.38645 0.0
C74 C 0.70799 0.78025 0.37459 0.0
O75 O 0.6816 0.7536 0.36287 0.0
N76 N 0.72027 0.75122 0.46495 0.0
C77 C 0.70614 0.73098 0.49388 0.0
C78 C 0.70433 0.74911 0.52255 0.0
C79 C 0.72696 0.78139 0.47638 0.0
N80 N 0.71739 0.78076 0.51151 0.0
C81 C 0.67608 0.67693 0.39769 0.0
C82 C 0.62579 0.6869 0.42165 0.0
C83 C 0.61767 0.65557 0.40831 0.0
C84 C 0.64353 0.65101 0.39621 0.0
C85 C 0.65895 0.71235 0.42274 0.0
N86 N 0.68372 0.70741 0.41019 0.0
H87 H 0.69533 0.67177 0.39039 0.0
H88 H 0.66468 0.73603 0.43386 0.0
H89 H 0.69768 0.70483 0.49408 0.0
H90 H 0.73915 0.80345 0.45966 0.0
O91 O 0.74132 0.70965 0.44297 0.0
O92 O 0.7771 0.7623 0.43154 0.0
O93 O 0.72917 0.77801 0.39468 0.0
C94 C 0.77128 0.73437 0.44598 0.0
H95 H 0.77219 0.69388 0.31606 0.0
H96 H 0.69383 0.73962 0.54933 0.0
H97 H 0.6068 0.69172 0.43145 0.0
H98 H 0.63897 0.62709 0.3871 0.0
Co99 Co 1.01355 0.71397 0.58159 0.0
C100 C 1.0235 0.71969 0.5007 0.0
C101 C 0.06969 0.74103 0.5292 0.0
C102 C 0.07592 0.74371 0.49216 0.0
N103 N 0.03678 0.72613 0.53474 0.0
N104 N 0.04691 0.73026 0.47416 0.0
H105 H 0.99724 0.70673 0.49541 0.0
H106 H 0.08826 0.74917 0.55034 0.0
C107 C 0.94261 0.69604 0.56581 0.0
O108 O 0.93212 0.67609 0.59424 0.0
N109 N 0.99108 0.70208 0.6286 0.0
C110 C 0.98751 0.67781 0.65137 0.0
C111 C 0.97001 0.67767 0.68183 0.0
C112 C 0.97673 0.71709 0.64607 0.0
N113 N 0.96292 0.70213 0.67827 0.0
C114 C 1.02709 0.66161 0.57635 0.0
C115 C 0.96413 0.60957 0.56473 0.0
C116 C 0.9894 0.60283 0.57302 0.0
C117 C 1.0214 0.62946 0.57734 0.0
C118 C 0.97092 0.64244 0.56419 0.0
N119 N 1.00181 0.66799 0.57229 0.0
H120 H 0.05211 0.68141 0.57998 0.0
H121 H 0.95111 0.64663 0.55749 0.0
H122 H 0.99653 0.66102 0.64609 0.0
H123 H 0.97536 0.73773 0.63471 0.0
O124 O 0.05413 0.72741 0.60763 0.0
O125 O 0.03474 0.76064 0.59538 0.0
O126 O 0.97307 0.71043 0.55621 0.0
C127 C 0.05787 0.75668 0.6101 0.0
H128 H 0.10009 0.75493 0.47954 0.0
H129 H 0.96195 0.66002 0.70414 0.0
H130 H 0.93916 0.58965 0.56004 0.0
H131 H 0.04197 0.62549 0.5822 0.0
Co132 Co 0.3147 1.00268 0.7507 0.0
C133 C 0.31812 1.01342 0.66879 0.0
C134 C 0.34194 0.05906 0.69805 0.0
C135 C 0.34465 0.06595 0.66121 0.0
N136 N 0.32527 0.02595 0.70323 0.0
N137 N 0.32971 0.03726 0.6427 0.0
H138 H 0.30526 0.98758 0.66245 0.0
H139 H 0.35222 0.07753 0.71927 0.0
C140 C 0.2734 0.93916 0.70746 0.0
O141 O 0.29998 0.9393 0.69579 0.0
N142 N 0.30374 0.98028 0.79774 0.0
C143 C 0.32512 0.98517 0.82501 0.0
C144 C 0.30822 0.96369 0.85322 0.0
C145 C 0.27396 0.95643 0.81004 0.0
N146 N 0.27612 0.94567 0.84379 0.0
C147 C 0.3773 1.01182 0.72997 0.0
C148 C 0.36884 0.95282 0.75682 0.0
C149 C 0.40059 0.9777 0.74654 0.0
C150 C 0.40433 1.00703 0.73191 0.0
C151 C 0.34229 0.9587 0.75464 0.0
N152 N 0.34673 0.98817 0.74173 0.0
H153 H 0.38172 0.03576 0.72151 0.0
H154 H 0.31845 0.94006 0.76493 0.0
H155 H 0.35135 1.0026 0.82402 0.0
H156 H 0.25139 0.94648 0.7943 0.0
O157 O 0.34468 0.04308 0.77532 0.0
O158 O 0.29176 0.02577 0.76568 0.0
O159 O 0.27575 0.96244 0.72785 0.0
C160 C 0.31997 0.04809 0.77938 0.0
H161 H 0.35657 0.09037 0.64913 0.0
H162 H 0.31876 0.96137 0.87868 0.0
H163 H 0.36492 0.92986 0.76855 0.0
H164 H 0.42839 0.02687 0.72353 0.0
Co165 Co 0.33853 0.30901 0.91382 0.0
C166 C 0.3319 0.31056 0.83179 0.0
C167 C 0.30791 0.33306 0.85937 0.0
C168 C 0.30373 0.33452 0.8223 0.0
N169 N 0.3256 0.31792 0.86571 0.0
N170 N 0.31878 0.32034 0.80489 0.0
H171 H 0.34551 0.29816 0.82648 0.0
H172 H 0.29896 0.3432 0.87993 0.0
C173 C 0.36188 0.2673 0.87345 0.0
O174 O 0.38899 0.29354 0.86219 0.0
N175 N 0.34985 0.29917 0.96147 0.0
C176 C 0.3646 0.32034 0.9894 0.0
C177 C 0.36663 0.30304 0.01892 0.0
C178 C 0.34275 0.2693 0.97444 0.0
N179 N 0.35289 0.27093 0.00949 0.0
C180 C 0.39181 0.37077 0.88899 0.0
C181 C 0.44287 0.36539 0.91959 0.0
C182 C 0.44974 0.39596 0.90494 0.0
C183 C 0.42376 0.39784 0.88827 0.0
C184 C 0.41041 0.33851 0.91918 0.0
N185 N 0.3851 0.34146 0.90445 0.0
H186 H 0.37218 0.37431 0.87894 0.0
H187 H 0.40553 0.31563 0.9319 0.0
H188 H 0.37334 0.34654 0.98832 0.0
H189 H 0.32976 0.24674 0.95878 0.0
O190 O 0.32706 0.3388 0.93713 0.0
O191 O 0.29247 0.28535 0.92862 0.0
O192 O 0.34054 0.27015 0.89251 0.0
C193 C 0.29759 0.31347 0.94159 0.0
H194 H 0.29117 0.34588 0.80921 0.0
H195 H 0.37775 0.31346 0.04514 0.0
H196 H 0.46197 0.36262 0.93295 0.0
H197 H 0.42769 0.42058 0.87591 0.0
Co198 Co 0.72546 1.00366 0.76178 0.0
C199 C 0.72921 1.0141 0.84241 0.0
C200 C 0.76083 0.05937 0.81411 0.0
C201 C 0.76338 0.0656 0.85108 0.0
N202 N 0.73953 0.02697 0.80846 0.0
N203 N 0.74346 0.0372 0.86907 0.0
H204 H 0.71121 0.98843 0.84732 0.0
H205 H 0.77377 0.07772 0.79316 0.0
C206 C 0.70854 0.93275 0.77795 0.0
O207 O 0.69027 0.9219 0.74836 0.0
N208 N 0.71193 0.98106 0.71499 0.0
C209 C 0.68708 0.9775 0.6933 0.0
C210 C 0.68635 0.96028 0.66233 0.0
C211 C 0.72684 0.96727 0.6962 0.0
N212 N 0.71111 0.95351 0.66444 0.0
C213 C 0.67516 1.01877 0.7762 0.0
C214 C 0.62134 0.95567 0.77869 0.0
C215 C 0.61587 0.98252 0.77971 0.0
C216 C 0.64352 1.0144 0.7792 0.0
C217 C 0.65362 0.96117 0.77581 0.0
N218 N 0.68009 0.99249 0.77333 0.0
H219 H 0.69587 0.04365 0.77518 0.0
H220 H 0.65663 0.94006 0.77481 0.0
H221 H 0.67037 0.98642 0.69963 0.0
H222 H 0.74795 0.96616 0.70641 0.0
O223 O 0.7385 0.04432 0.73584 0.0
O224 O 0.77139 0.02398 0.74584 0.0
O225 O 0.7219 0.96317 0.78737 0.0
C226 C 0.76737 0.04725 0.73151 0.0
H227 H 0.77915 0.08937 0.86357 0.0
H228 H 0.66815 0.95221 0.64068 0.0
H229 H 0.60084 0.93056 0.77984 0.0
H230 H 0.64083 0.03604 0.7797 0.0
Co231 Co 0.75162 0.72212 0.92921 0.0
C232 C 0.74859 0.72784 0.01114 0.0
C233 C 0.72555 0.75113 0.98321 0.0
C234 C 0.72334 0.75482 0.02026 0.0
N235 N 0.74145 0.73414 0.97713 0.0
N236 N 0.73785 0.74019 0.03787 0.0
H237 H 0.76159 0.71486 0.01668 0.0
H238 H 0.71537 0.75989 0.96247 0.0
C239 C 0.79201 0.69781 0.97025 0.0
O240 O 0.76514 0.6709 0.98066 0.0
N241 N 0.76278 0.71176 0.88172 0.0
C242 C 0.74257 0.69861 0.85268 0.0
C243 C 0.7605 0.69673 0.82375 0.0
C244 C 0.79273 0.71792 0.87005 0.0
N245 N 0.79201 0.70883 0.83473 0.0
C246 C 0.68956 0.6683 0.95231 0.0
C247 C 0.69509 0.61788 0.92021 0.0
C248 C 0.66431 0.61089 0.93431 0.0
C249 C 0.66235 0.63647 0.9518 0.0
C250 C 0.72213 0.65025 0.92183 0.0
N251 N 0.71911 0.67529 0.93729 0.0
H252 H 0.68586 0.68766 0.96283 0.0
H253 H 0.7452 0.65529 0.90949 0.0
H254 H 0.71658 0.69084 0.85258 0.0
H255 H 0.81476 0.72944 0.88675 0.0
O256 O 0.72197 0.73327 0.90527 0.0
O257 O 0.77496 0.76863 0.91534 0.0
O258 O 0.79016 0.71993 0.95152 0.0
C259 C 0.7469 0.76303 0.90156 0.0
H260 H 0.71128 0.76675 0.03318 0.0
H261 H 0.75095 0.6868 0.79686 0.0
H262 H 0.69789 0.59901 0.90634 0.0
H263 H 0.6394 0.63237 0.96372 0.0
Co264 Co 0.05156 0.73277 0.09473 0.0
C265 C 0.04146 0.73057 0.17545 0.0
C266 C 0.99542 0.71066 0.14687 0.0
C267 C 0.98921 0.70867 0.18388 0.0
N268 N 1.02826 0.72468 0.14137 0.0
N269 N 1.01813 0.72122 0.20196 0.0
H270 H 0.06758 0.74139 0.18074 0.0
H271 H 0.97677 0.7017 0.12577 0.0
C272 C 0.123 0.78598 0.11018 0.0
O273 O 0.1336 0.77744 0.08121 0.0
N274 N 0.07408 0.7404 0.04789 0.0
C275 C 0.07746 0.71806 0.02796 0.0
C276 C 0.09589 0.73338 0.99721 0.0
C277 C 0.08895 0.76858 0.02789 0.0
N278 N 0.10341 0.76521 0.99736 0.0
C279 C 0.03486 0.6668 0.10869 0.0
C280 C 0.09743 0.67492 0.1102 0.0
C281 C 0.07017 0.64289 0.10737 0.0
C282 C 0.03857 0.63908 0.10835 0.0
C283 C 0.09259 0.70221 0.11034 0.0
N284 N 0.06158 0.69799 0.10734 0.0
H285 H 1.01017 0.66304 0.1081 0.0
H286 H 0.11397 0.72626 0.11128 0.0
H287 H 0.06772 0.69247 0.03543 0.0
H288 H 0.09122 0.79165 0.03691 0.0
O289 O 1.01078 0.7053 0.06916 0.0
O290 O 1.03215 0.7589 0.0779 0.0
O291 O 0.09249 0.76973 0.11953 0.0
C292 C 1.00839 0.73148 0.06432 0.0
H293 H 0.96505 0.69792 0.19645 0.0
H294 H 0.10376 0.72211 0.97666 0.0
H295 H 0.12232 0.67899 0.11024 0.0
H296 H 1.01674 0.61477 0.10752 0.0
Co297 Co 0.33321 0.03988 0.26213 0.0
C298 C 0.32441 0.03051 0.34424 0.0
C299 C 0.31002 0.98515 0.31641 0.0
C300 C 0.30533 0.97875 0.35334 0.0
N301 N 0.3224 1.01781 0.31031 0.0
N302 N 0.31445 1.00729 0.37089 0.0
H303 H 0.33215 0.05587 0.34984 0.0
H304 H 0.30524 0.96684 0.2957 0.0
C305 C 0.35774 0.10389 0.30482 0.0
O306 O 0.38282 0.10185 0.31773 0.0
N307 N 0.3428 0.06097 0.21438 0.0
C308 C 0.35701 0.05444 0.18596 0.0
C309 C 0.3594 0.07427 0.15687 0.0
C310 C 0.33653 0.08452 0.20218 0.0
N311 N 0.34654 0.0932 0.16704 0.0
C312 C 0.38768 0.03115 0.27885 0.0
C313 C 0.43724 0.09084 0.25191 0.0
C314 C 0.44476 0.06627 0.26113 0.0
C315 C 0.41966 0.03654 0.2757 0.0
C316 C 0.40461 0.08434 0.25527 0.0
N317 N 0.38012 0.05458 0.26839 0.0
H318 H 0.36857 1.007 0.28728 0.0
H319 H 0.39881 0.10273 0.24583 0.0
H320 H 0.36544 0.03677 0.18654 0.0
H321 H 0.3246 0.09481 0.21851 0.0
O322 O 0.32127 0.99879 0.23827 0.0
O323 O 0.28636 1.0165 0.25 0.0
O324 O 0.3363 0.0811 0.28427 0.0
C325 C 0.29142 0.99378 0.236 0.0
H326 H 0.29663 0.95498 0.36629 0.0
H327 H 0.37042 0.07511 0.13051 0.0
H328 H 0.4559 0.11408 0.24021 0.0
H329 H 0.42438 1.0169 0.28319 0.0
Co330 Co 0.31962 0.3284 0.4245 0.0
C331 C 0.32142 0.31928 0.50642 0.0
C332 C 0.35059 0.30345 0.47724 0.0
C333 C 0.35317 0.29906 0.51406 0.0
N334 N 0.33085 0.31652 0.47205 0.0
N335 N 0.33492 0.30912 0.53251 0.0
H336 H 0.30535 0.32871 0.51278 0.0
H337 H 0.3631 0.2979 0.45599 0.0
C338 C 0.27939 0.35139 0.46888 0.0
O339 O 0.30618 0.37676 0.48207 0.0
N340 N 0.30828 0.3392 0.37744 0.0
C341 C 0.32959 0.35702 0.3505 0.0
C342 C 0.31223 0.36077 0.32229 0.0
C343 C 0.27813 0.33159 0.36492 0.0
N344 N 0.27995 0.34473 0.33137 0.0
C345 C 0.38323 0.38241 0.44171 0.0
C346 C 0.37262 0.43299 0.42032 0.0
C347 C 0.40476 0.4404 0.42906 0.0
C348 C 0.40973 0.4147 0.44045 0.0
C349 C 0.34668 0.40006 0.42139 0.0
N350 N 0.3521 0.37512 0.43216 0.0
H351 H 0.38833 0.36296 0.44816 0.0
H352 H 0.32246 0.39449 0.4123 0.0
H353 H 0.35604 0.36726 0.35174 0.0
H354 H 0.25549 0.31754 0.38036 0.0
O355 O 0.34854 0.31654 0.39953 0.0
O356 O 0.29564 0.28196 0.41114 0.0
O357 O 0.28135 0.33078 0.44755 0.0
C358 C 0.32332 0.2868 0.39701 0.0
H359 H 0.36737 0.28905 0.52617 0.0
H360 H 0.32251 0.37429 0.29704 0.0
H361 H 0.36791 0.45216 0.41079 0.0
H362 H 0.43425 0.41937 0.44706 0.0
Co363 Co 1.01409 0.30416 0.59225 0.0
C364 C 1.02422 0.31189 0.67427 0.0
C365 C 0.07005 0.33367 0.64511 0.0
C366 C 0.07674 0.3392 0.68185 0.0
N367 N 0.03696 0.31659 0.63989 0.0
N368 N 0.04796 0.32561 0.70024 0.0
H369 H 0.99834 0.29955 0.6806 0.0
H370 H 0.08866 0.34261 0.62393 0.0
C371 C 0.95015 0.26382 0.63548 0.0
O372 O 0.94996 0.29061 0.64554 0.0
N373 N 0.99209 0.29135 0.54511 0.0
C374 C 0.99876 0.31107 0.51561 0.0
C375 C 0.97874 0.29262 0.48715 0.0
C376 C 0.96814 0.26113 0.53423 0.0
N377 N 0.95948 0.26126 0.49888 0.0
C378 C 1.02127 0.3665 0.61138 0.0
C379 C 0.96159 0.35591 0.58447 0.0
C380 C 0.98435 0.38731 0.59799 0.0
C381 C 1.0144 0.39221 0.61175 0.0
C382 C 0.96938 0.33062 0.58482 0.0
N383 N 0.99884 0.33589 0.59865 0.0
H384 H 0.04552 0.37188 0.61979 0.0
H385 H 0.95168 0.30679 0.57376 0.0
H386 H 1.01684 0.33713 0.5149 0.0
H387 H 0.95766 0.23939 0.55153 0.0
O388 O 0.05476 0.33362 0.56726 0.0
O389 O 0.03767 0.28113 0.57963 0.0
O390 O 0.97382 0.26574 0.61605 0.0
C391 C 0.05996 0.30889 0.5649 0.0
H392 H 0.10106 0.35224 0.69406 0.0
H393 H 0.97807 0.30172 0.46005 0.0
H394 H 0.93807 0.35095 0.57347 0.0
H395 H 0.03328 0.41626 0.62128 0.0
H396 H 0.21858 0.29218 0.32122 0.0
H397 H 0.1509 0.39421 0.21467 0.0
H398 H 0.28119 0.39472 0.29315 0.0
H399 H 0.11439 0.29171 0.18994 0.0
H400 H 0.19365 0.39429 0.25357 0.0
H401 H 0.17452 0.29077 0.2829 0.0
C402 C 0.22288 0.31438 0.30717 0.0
C403 C 0.25348 0.34357 0.31013 0.0
C404 C 0.17625 0.37178 0.23965 0.0
C405 C 0.20345 0.34232 0.26699 0.0
C406 C 0.15182 0.37168 0.21766 0.0
C407 C 0.12919 0.34292 0.19912 0.0
C408 C 0.17762 0.34269 0.24383 0.0
C409 C 0.13159 0.31441 0.20361 0.0
C410 C 0.19794 0.31353 0.28521 0.0
C411 C 0.25803 0.37169 0.29125 0.0
N412 N 0.15522 0.3149 0.22581 0.0
N413 N 0.23322 0.37046 0.27074 0.0
H414 H 0.77536 0.0997 0.41967 0.0
H415 H 0.96025 0.25135 0.42586 0.0
H416 H 0.84288 0.12869 0.32834 0.0
H417 H 0.90208 0.20906 0.52356 0.0
H418 H 0.91681 0.20702 0.38969 0.0
H419 H 0.82058 0.13975 0.45834 0.0
C420 C 0.79972 0.11434 0.40782 0.0
C421 C 0.80529 0.11078 0.37069 0.0
C422 C 0.91355 0.20725 0.41906 0.0
C423 C 0.85712 0.1568 0.41468 0.0
C424 C 0.93829 0.2327 0.4397 0.0
C425 C 0.93472 0.23403 0.47777 0.0
C426 C 0.88468 0.18302 0.43644 0.0
C427 C 0.90592 0.20886 0.49432 0.0
C428 C 0.82555 0.13709 0.42993 0.0
C429 C 0.83746 0.13023 0.35686 0.0
N430 N 0.88186 0.18456 0.47353 0.0
N431 N 0.86201 0.15255 0.37873 0.0
H432 H 0.7263 0.7892 0.58493 0.0
H433 H 0.69886 0.94411 0.59136 0.0
H434 H 0.71458 0.83424 0.48725 0.0
H435 H 0.73449 0.91291 0.68323 0.0
H436 H 0.70325 0.90369 0.55268 0.0
H437 H 0.72796 0.83368 0.62149 0.0
C438 C 0.72406 0.80847 0.57118 0.0
C439 C 0.72011 0.80789 0.53299 0.0
C440 C 0.71041 0.90593 0.58122 0.0
C441 C 0.72199 0.85905 0.57474 0.0
C442 C 0.70779 0.9289 0.60332 0.0
C443 C 0.71632 0.93194 0.6406 0.0
C444 C 0.7212 0.88546 0.59661 0.0
C445 C 0.728 0.91175 0.6546 0.0
C446 C 0.72522 0.834 0.59204 0.0
C447 C 0.71784 0.83383 0.51657 0.0
N448 N 0.7298 0.88921 0.63272 0.0
N449 N 0.71851 0.8582 0.53756 0.0
H450 H 0.92202 0.72474 0.6579 0.0
H451 H 0.84525 0.70581 0.85916 0.0
H452 H 0.95376 0.69171 0.75166 0.0
H453 H 0.8005 0.71708 0.76105 0.0
H454 H 0.88961 0.70768 0.82169 0.0
H455 H 0.88207 0.72951 0.69686 0.0
C456 C 0.92095 0.71896 0.6868 0.0
C457 C 0.94127 0.70776 0.70153 0.0
C458 C 0.87012 0.70983 0.80839 0.0
C459 C 0.89526 0.71281 0.74627 0.0
C460 C 0.8449 0.70897 0.82979 0.0
C461 C 0.81899 0.71113 0.81322 0.0
C462 C 0.86967 0.71322 0.77012 0.0
C463 C 0.81967 0.71484 0.77494 0.0
C464 C 0.89791 0.7214 0.70897 0.0
C465 C 0.93835 0.7001 0.7391 0.0
N466 N 0.84456 0.71579 0.75474 0.0
N467 N 0.91577 0.70273 0.76015 0.0
H468 H 0.28168 0.90115 0.88561 0.0
H469 H 0.10234 0.82 0.97437 0.0
H470 H 0.21184 0.92963 0.84981 0.0
H471 H 0.15798 0.76973 0.96644 0.0
H472 H 0.14377 0.86443 0.93504 0.0
H473 H 0.23836 0.85681 0.92225 0.0
C474 C 0.25719 0.8981 0.88562 0.0
C475 C 0.25032 0.9191 0.86474 0.0
C476 C 0.14666 0.8435 0.94178 0.0
C477 C 0.20054 0.86844 0.90679 0.0
C478 C 0.12319 0.81831 0.96428 0.0
C479 C 0.12662 0.79105 0.97344 0.0
C480 C 0.17408 0.84169 0.92916 0.0
C481 C 0.15406 0.78999 0.95964 0.0
C482 C 0.23242 0.87268 0.90634 0.0
C483 C 0.21802 0.91379 0.86538 0.0
N484 N 0.1768 0.81501 0.93851 0.0
N485 N 0.19431 0.88913 0.88636 0.0
H486 H 0.34741 0.21308 0.98668 0.0
H487 H 0.34504 0.1476 0.19069 0.0
H488 H 0.35172 0.26732 0.08407 0.0
H489 H 0.34432 0.09571 0.09272 0.0
H490 H 0.34466 0.19038 0.1524 0.0
H491 H 0.34357 0.16866 0.02528 0.0
C492 C 0.3473 0.21561 0.01615 0.0
C493 C 0.34996 0.24415 0.03203 0.0
C494 C 0.34452 0.16958 0.1393 0.0
C495 C 0.34589 0.19329 0.07661 0.0
C496 C 0.34452 0.14501 0.16118 0.0
C497 C 0.34489 0.118 0.14498 0.0
C498 C 0.34476 0.16714 0.10089 0.0
C499 C 0.3446 0.11627 0.10649 0.0
C500 C 0.3453 0.19026 0.03824 0.0
C501 C 0.35018 0.24608 0.07052 0.0
N502 N 0.3446 0.14046 0.08584 0.0
N503 N 0.3482 0.22106 0.09144 0.0
H504 H 0.10904 0.47993 0.12393 0.0
H505 H 0.0381 0.59452 0.05673 0.0
H506 H 0.05304 0.46358 0.02448 0.0
H507 H 0.1115 0.62498 0.14184 0.0
H508 H 0.04295 0.54583 0.04594 0.0
H509 H 0.11097 0.53286 0.13165 0.0
C510 C 0.09757 0.4876 0.10339 0.0
C511 C 0.08058 0.46694 0.07362 0.0
C512 C 0.05813 0.56312 0.06694 0.0
C513 C 0.08219 0.52733 0.08279 0.0
C514 C 0.05517 0.59086 0.07332 0.0
C515 C 0.07413 0.61371 0.10055 0.0
C516 C 0.08004 0.55776 0.0881 0.0
C517 C 0.09639 0.60798 0.12061 0.0
C518 C 0.09852 0.51777 0.108 0.0
C519 C 0.06584 0.4782 0.04826 0.0
N520 N 0.09852 0.5804 0.11422 0.0
N521 N 0.06677 0.50737 0.0536 0.0
H522 H 0.50693 0.11788 0.27775 0.0
H523 H 0.59773 0.02704 0.19082 0.0
H524 H 0.45696 0.0227 0.22515 0.0
H525 H 0.64625 0.10831 0.2665 0.0
H526 H 0.54795 0.03106 0.19528 0.0
H527 H 0.56008 0.12047 0.26632 0.0
C528 C 0.50719 0.09771 0.26357 0.0
C529 C 0.47751 0.06985 0.25279 0.0
C530 C 0.56952 0.04815 0.2108 0.0
C531 C 0.53791 0.07272 0.2394 0.0
C532 C 0.598 0.04581 0.20836 0.0
C533 C 0.62622 0.06703 0.22874 0.0
C534 C 0.56902 0.07198 0.23372 0.0
C535 C 0.62518 0.09146 0.2502 0.0
C536 C 0.53744 0.09912 0.25719 0.0
C537 C 0.4792 0.04438 0.2345 0.0
N538 N 0.59698 0.09311 0.25235 0.0
N539 N 0.50877 0.04642 0.22845 0.0
H540 H 0.56818 0.63977 0.45951 0.0
H541 H 0.45817 0.4568 0.38621 0.0
H542 H 0.58774 0.60579 0.35765 0.0
H543 H 0.41723 0.49981 0.45848 0.0
H544 H 0.50752 0.51099 0.3786 0.0
H545 H 0.51398 0.58924 0.46229 0.0
C546 C 0.56102 0.62205 0.43745 0.0
C547 C 0.58302 0.62704 0.40855 0.0
C548 C 0.48772 0.50876 0.39594 0.0
C549 C 0.52121 0.56879 0.41211 0.0
C550 C 0.45962 0.4778 0.4004 0.0
C551 C 0.4337 0.47387 0.42309 0.0
C552 C 0.49037 0.5361 0.41482 0.0
C553 C 0.43671 0.50191 0.44068 0.0
C554 C 0.53009 0.5931 0.4392 0.0
C555 C 0.57222 0.60282 0.38102 0.0
N556 N 0.46476 0.53185 0.43655 0.0
N557 N 0.5424 0.57472 0.38374 0.0
H558 H 1.0104 0.58055 0.62979 0.0
H559 H 0.95568 0.40423 0.54232 0.0
H560 H 0.95395 0.54743 0.52989 0.0
H561 H 0.99908 0.43514 0.64962 0.0
H562 H 0.95189 0.45451 0.53771 0.0
H563 H 1.00427 0.52614 0.63777 0.0
C564 C 0.99661 0.56169 0.60951 0.0
C565 C 0.98299 0.56866 0.5789 0.0
C566 C 0.96194 0.45009 0.56238 0.0
C567 C 0.97582 0.50588 0.58784 0.0
C568 C 0.96394 0.42128 0.56515 0.0
C569 C 0.97809 0.41554 0.59626 0.0
C570 C 0.97423 0.47337 0.5909 0.0
C571 C 0.98863 0.43875 0.62478 0.0
C572 C 0.99298 0.53051 0.61416 0.0
C573 C 0.96487 0.54308 0.55386 0.0
N574 N 0.98674 0.46663 0.62127 0.0
N575 N 0.96211 0.51288 0.55864 0.0
H576 H 0.4112 0.92599 0.73117 0.0
H577 H 0.59343 1.01838 0.81693 0.0
H578 H 0.45754 0.02293 0.7797 0.0
H579 H 0.5605 0.93604 0.74277 0.0
H580 H 0.53986 1.01472 0.81133 0.0
H581 H 0.46199 0.9239 0.74254 0.0
C582 C 0.43196 0.9467 0.74435 0.0
C583 C 0.43031 0.97485 0.75407 0.0
C584 C 0.54425 0.99733 0.79637 0.0
C585 C 0.48811 0.97251 0.76749 0.0
C586 C 0.57495 0.99946 0.79947 0.0
C587 C 0.58186 0.97782 0.77987 0.0
C588 C 0.51992 0.97325 0.77363 0.0
C589 C 0.55638 0.95322 0.75851 0.0
C590 C 0.46091 0.94555 0.75072 0.0
C591 C 0.45791 1.00099 0.77113 0.0
N592 N 0.52663 0.95174 0.75575 0.0
N593 N 0.48553 0.99917 0.77728 0.0
H594 H 0.51234 0.40308 0.9024 0.0
H595 H 0.60269 0.59967 0.91765 0.0
H596 H 0.46275 0.45881 0.91863 0.0
H597 H 0.65571 0.54766 0.93633 0.0
H598 H 0.55203 0.54729 0.91083 0.0
H599 H 0.56568 0.45452 0.90911 0.0
C600 C 0.51254 0.42596 0.90737 0.0
C601 C 0.48277 0.42647 0.90926 0.0
C602 C 0.57464 0.54716 0.91661 0.0
C603 C 0.54369 0.48534 0.91655 0.0
C604 C 0.60372 0.57721 0.92077 0.0
C605 C 0.63364 0.57831 0.92852 0.0
C606 C 0.57507 0.51751 0.91974 0.0
C607 C 0.63328 0.5481 0.93057 0.0
C608 C 0.54301 0.4553 0.91108 0.0
C609 C 0.48479 0.45702 0.91573 0.0
N610 N 0.60441 0.51888 0.92634 0.0
N611 N 0.51453 0.485 0.91891 0.0
H612 H 0.0893 0.37291 0.74761 0.0
H613 H 0.07641 0.35045 0.93685 0.0
H614 H 0.99727 0.28065 0.74264 0.0
H615 H 0.97448 0.27767 0.91741 0.0
H616 H 0.08489 0.35931 0.87115 0.0
H617 H 0.08396 0.37309 0.81376 0.0
C618 C 0.06811 0.35241 0.76055 0.0
C619 C 0.04398 0.32645 0.73945 0.0
C620 C 0.06038 0.34195 0.88093 0.0
C621 C 0.03783 0.32599 0.81609 0.0
C622 C 0.05558 0.33688 0.91875 0.0
C623 C 1.02468 0.3133 0.9328 0.0
C624 C 0.03397 0.32348 0.85675 0.0
C625 C 0.99881 0.29586 0.90783 0.0
C626 C 0.06509 0.35241 0.79862 0.0
C627 C 1.01649 0.30114 0.75774 0.0
N628 N 1.00408 0.30116 0.87114 0.0
N629 N 1.01429 0.30147 0.79497 0.0
H630 H 0.7591 0.08504 0.92066 0.0
H631 H 0.69553 0.9596 0.08972 0.0
H632 H 0.71754 0.97977 0.90854 0.0
H633 H 0.76012 0.06476 0.1021 0.0
H634 H 0.69811 0.96674 0.02355 0.0
H635 H 0.75435 0.07801 0.98687 0.0
C636 C 0.74911 0.0604 0.93168 0.0
C637 C 0.73908 0.03299 0.90847 0.0
C638 C 0.71173 0.98825 0.04074 0.0
C639 C 0.73299 0.02482 0.98502 0.0
C640 C 0.71044 0.98424 0.07875 0.0
C641 C 0.728 1.01158 0.10202 0.0
C642 C 0.73042 1.01988 0.02549 0.0
C643 C 0.74605 0.04292 0.08561 0.0
C644 C 0.74628 0.05645 0.96971 0.0
C645 C 0.72549 1.00167 0.92496 0.0
N646 N 0.74682 0.04618 0.04843 0.0
N647 N 0.7229 0.99848 0.96214 0.0
H648 H 0.74389 0.69336 0.07583 0.0
H649 H 0.74559 0.77173 0.27173 0.0
H650 H 0.73819 0.78184 0.08991 0.0
H651 H 0.74888 0.6819 0.25787 0.0
H652 H 0.74342 0.77615 0.20519 0.0
H653 H 0.74722 0.68951 0.14237 0.0
C654 C 0.74357 0.71212 0.09281 0.0
C655 C 0.74066 0.73793 0.07708 0.0
C656 C 0.74464 0.75547 0.21673 0.0
C657 C 0.74411 0.73347 0.15351 0.0
C658 C 0.74568 0.75282 0.25482 0.0
C659 C 0.74744 0.72639 0.27066 0.0
C660 C 0.74533 0.73153 0.19415 0.0
C661 C 0.74801 0.70295 0.24707 0.0
C662 C 0.74526 0.70979 0.13088 0.0
C663 C 0.73991 0.76124 0.1007 0.0
N664 N 0.74693 0.70606 0.2101 0.0
N665 N 0.74161 0.75845 0.13762 0.0
H666 H 0.08839 0.729 0.42278 0.0
H667 H 0.97712 0.72333 0.25336 0.0
H668 H 0.99526 0.72593 0.43516 0.0
H669 H 0.06909 0.72397 0.2411 0.0
H670 H 0.9835 0.72458 0.31974 0.0
H671 H 0.08185 0.72746 0.3564 0.0
C672 C 0.06659 0.72814 0.41162 0.0
C673 C 0.04244 0.72783 0.43482 0.0
C674 C 1.00231 0.72444 0.30257 0.0
C675 C 0.03466 0.72575 0.35834 0.0
C676 C 0.99861 0.72356 0.26453 0.0
C677 C 1.02248 0.7233 0.24133 0.0
C678 C 1.03012 0.7251 0.31784 0.0
C679 C 0.05016 0.72438 0.25769 0.0
C680 C 0.06281 0.7271 0.37358 0.0
C681 C 1.0144 0.72598 0.4185 0.0
N682 N 0.05315 0.72515 0.29488 0.0
N683 N 1.01135 0.72513 0.38132 0.0
H684 H 0.36942 0.08141 0.59098 0.0
H685 H 0.27515 0.9623 0.42197 0.0
H686 H 0.28448 0.98391 0.6037 0.0
H687 H 0.35471 0.06277 0.40969 0.0
H688 H 0.2783 0.96949 0.48845 0.0
H689 H 0.36446 0.07478 0.52471 0.0
C690 C 0.34955 0.05865 0.57997 0.0
C691 C 0.32725 0.03324 0.60329 0.0
C692 C 0.295 0.99002 0.47123 0.0
C693 C 0.32172 0.02533 0.52684 0.0
C694 C 0.29331 0.98589 0.43322 0.0
C695 C 0.3148 1.01192 0.41008 0.0
C696 C 0.31846 1.02038 0.48642 0.0
C697 C 0.33745 0.0421 0.42632 0.0
C698 C 0.34684 0.05483 0.54196 0.0
C699 C 0.30247 1.00407 0.58704 0.0
N700 N 0.3388 0.04543 0.46344 0.0
N701 N 0.30039 1.00093 0.54988 0.0
H702 H 0.28509 0.30944 0.57106 0.0
H703 H 0.36598 0.3151 0.7667 0.0
H704 H 0.37724 0.31062 0.58464 0.0
H705 H 0.27598 0.31804 0.75306 0.0
H706 H 0.36939 0.31124 0.70016 0.0
H707 H 0.28063 0.31129 0.63765 0.0
C708 C 0.30447 0.31021 0.58789 0.0
C709 C 0.3316 0.30984 0.57192 0.0
C710 C 0.34887 0.31271 0.71174 0.0
C711 C 0.32642 0.31161 0.64853 0.0
C712 C 0.3468 0.3147 0.74982 0.0
C713 C 0.32072 0.31705 0.76568 0.0
C714 C 0.32464 0.31296 0.68921 0.0
C715 C 0.29682 0.31682 0.74218 0.0
C716 C 0.3018 0.31108 0.62603 0.0
C717 C 0.35564 0.31038 0.59547 0.0
N718 N 0.29938 0.31485 0.70524 0.0
N719 N 0.35249 0.31127 0.63245 0.0
H720 H 0.2992 0.37097 0.95773 0.0
H721 H 0.11883 0.28828 0.04601 0.0
H722 H 0.2354 0.26526 0.96313 0.0
H723 H 0.16983 0.38678 1.00068 0.0
H724 H 0.1641 0.28021 0.02479 0.0
H725 H 0.25481 0.37795 0.98283 0.0
C726 C 0.27588 0.34918 0.96439 0.0
C727 C 0.27095 0.31746 0.95819 0.0
C728 C 0.1653 0.30356 0.01961 0.0
C729 C 0.21997 0.32535 0.98714 0.0
C730 C 0.13961 0.30826 0.03183 0.0
C731 C 0.14051 0.33823 0.025 0.0
C732 C 0.1923 0.32922 1.00102 0.0
C733 C 0.16797 0.36321 1.00637 0.0
C734 C 0.2505 0.35321 0.9786 0.0
C735 C 0.24016 0.29015 0.96733 0.0
N736 N 0.19277 0.35819 0.99519 0.0
N737 N 0.21579 0.29471 0.98145 0.0
H738 H 0.98279 0.21446 0.1132 0.0
H739 H 0.82672 0.17804 0.23596 0.0
H740 H 0.95718 0.28794 0.14295 0.0
H741 H 0.83414 0.0997 0.18291 0.0
H742 H 0.87664 0.21839 0.20451 0.0
H743 H 0.93091 0.17179 0.14128 0.0
C744 C 0.96635 0.22162 0.12572 0.0
C745 C 0.97435 0.25481 0.12584 0.0
C746 C 0.86736 0.19241 0.19947 0.0
C747 C 0.91522 0.20633 0.15786 0.0
C748 C 0.83879 0.16927 0.2175 0.0
C749 C 0.8262 0.13537 0.21214 0.0
C750 C 0.88397 0.18178 0.17609 0.0
C751 C 0.84293 0.1256 0.18773 0.0
C752 C 0.93671 0.19727 0.14152 0.0
C753 C 0.95207 0.2627 0.1422 0.0
N754 N 0.87118 0.14872 0.1708 0.0
N755 N 0.92371 0.23872 0.15763 0.0
H756 H 0.76593 0.84009 0.37763 0.0
H757 H 0.68347 0.9414 0.30004 0.0
H758 H 0.66423 0.79542 0.34352 0.0
H759 H 0.78885 0.98109 0.29653 0.0
H760 H 0.67645 0.88994 0.3246 0.0
H761 H 0.77516 0.89381 0.35596 0.0
C762 C 0.74553 0.84156 0.36571 0.0
C763 C 0.71424 0.81313 0.3623 0.0
C764 C 0.70116 0.90987 0.31856 0.0
C765 C 0.72463 0.87448 0.33785 0.0
C766 C 0.70524 0.93941 0.30466 0.0
C767 C 0.73684 0.96565 0.29607 0.0
C768 C 0.72885 0.90637 0.32436 0.0
C769 C 0.76406 0.96145 0.30267 0.0
C770 C 0.75088 0.87219 0.35325 0.0
C771 C 0.68879 0.81655 0.34656 0.0
N772 N 0.75946 0.93233 0.31649 0.0
N773 N 0.69451 0.84659 0.33512 0.0
H774 H 0.76263 0.6815 0.48567 0.0
H775 H 0.95467 0.7434 0.5133 0.0
H776 H 0.83894 0.77615 0.44568 0.0
H777 H 0.87553 0.66191 0.57192 0.0
H778 H 0.91372 0.75384 0.48334 0.0
H779 H 0.80468 0.67218 0.51278 0.0
C780 C 0.78831 0.70043 0.48264 0.0
C781 C 0.79724 0.72972 0.46344 0.0
C782 C 0.90544 0.73367 0.50273 0.0
C783 C 0.84588 0.71903 0.49442 0.0
C784 C 0.92874 0.72757 0.51967 0.0
C785 C 0.91857 0.70174 0.54524 0.0
C786 C 0.87175 0.71358 0.51116 0.0
C787 C 0.88465 0.68215 0.55253 0.0
C788 C 0.81238 0.69508 0.49819 0.0
C789 C 0.83097 0.7533 0.46044 0.0
N790 N 0.8626 0.68845 0.53561 0.0
N791 N 0.85414 0.74741 0.47568 0.0
H792 H 0.21397 0.93799 0.70964 0.0
H793 H 0.11217 0.75452 0.63141 0.0
H794 H 0.25793 0.88035 0.67594 0.0
H795 H 0.07342 0.82079 0.62597 0.0
H796 H 0.16346 0.79887 0.65609 0.0
H797 H 0.16036 0.89409 0.68684 0.0
C798 C 0.21236 0.91611 0.69759 0.0
C799 C 0.24055 0.91287 0.69466 0.0
C800 C 0.14382 0.80384 0.64956 0.0
C801 C 0.17937 0.86264 0.66889 0.0
C802 C 0.11435 0.77843 0.63557 0.0
C803 C 0.08838 0.78392 0.62647 0.0
C804 C 0.14756 0.83517 0.65498 0.0
C805 C 0.09285 0.81553 0.6325 0.0
C806 C 0.18181 0.89119 0.68447 0.0
C807 C 0.23699 0.88404 0.67868 0.0
N808 N 0.12192 0.84004 0.64649 0.0
N809 N 0.20703 0.86007 0.66661 0.0
H810 H 0.30283 0.20882 0.87649 0.0
H811 H 0.37839 0.10134 0.79912 0.0
H812 H 0.40444 0.25004 0.84295 0.0
H813 H 0.27377 0.06612 0.79676 0.0
H814 H 0.38803 0.15386 0.82329 0.0
H815 H 0.29154 0.15452 0.85503 0.0
C816 C 0.3228 0.20647 0.86475 0.0
C817 C 0.35467 0.23411 0.86144 0.0
C818 C 0.36293 0.13468 0.81756 0.0
C819 C 0.34187 0.17202 0.83713 0.0
C820 C 0.35734 0.10455 0.80389 0.0
C821 C 0.32517 0.07925 0.7958 0.0
C822 C 0.33618 0.13966 0.82363 0.0
C823 C 0.29896 0.08499 0.80254 0.0
C824 C 0.31626 0.17549 0.8524 0.0
C825 C 0.3795 0.22954 0.84592 0.0
N826 N 0.30502 0.11463 0.81614 0.0
N827 N 0.37261 0.19913 0.8345 0.0
H828 H 0.69371 0.75423 0.86288 0.0
H829 H 0.75576 0.94583 0.83085 0.0
H830 H 0.78902 0.83071 0.90053 0.0
H831 H 0.67414 0.86569 0.774 0.0
H832 H 0.76625 0.90535 0.86213 0.0
H833 H 0.68427 0.79602 0.83539 0.0
C834 C 0.71276 0.77991 0.86533 0.0
C835 C 0.74227 0.78895 0.88397 0.0
C836 C 0.74603 0.89677 0.84285 0.0
C837 C 0.73146 0.83733 0.85248 0.0
C838 C 0.73989 0.91979 0.82519 0.0
C839 C 0.71407 0.90916 0.79966 0.0
C840 C 0.72595 0.86295 0.83519 0.0
C841 C 0.69442 0.87514 0.79326 0.0
C842 C 0.70734 0.80383 0.84955 0.0
C843 C 0.766 0.82267 0.8862 0.0
N844 N 0.70076 0.85339 0.81086 0.0
N845 N 0.76006 0.84574 0.87071 0.0
H846 H 0.80633 0.65274 0.99935 0.0
H847 H 0.99462 0.78096 0.04766 0.0
H848 H 0.85208 0.75561 0.96914 0.0
H849 H 0.95337 0.67538 0.04279 0.0
H850 H 0.94246 0.77377 0.02296 0.0
H851 H 0.85973 0.66203 0.02026 0.0
C852 C 0.82761 0.67733 0.99712 0.0
C853 C 0.82464 0.70342 0.98247 0.0
C854 C 0.94505 0.75228 0.02713 0.0
C855 C 0.88613 0.71431 1.00662 0.0
C856 C 0.97475 0.75637 0.04121 0.0
C857 C 0.97837 0.72875 0.04734 0.0
C858 C 0.91877 0.72034 0.01968 0.0
C859 C 0.9518 0.69743 0.03855 0.0
C860 C 0.85818 0.6826 0.00896 0.0
C861 C 0.85323 0.73474 0.98017 0.0
N862 N 0.92318 0.69411 0.02547 0.0
N863 N 0.88278 0.73939 0.99234 0.0
H864 H 0.19008 0.81699 0.10693 0.0
H865 H 0.22404 0.96974 0.23451 0.0
H866 H 0.1109 0.82189 0.16164 0.0
H867 H 0.29879 0.94785 0.19861 0.0
H868 H 0.18173 0.91796 0.20596 0.0
H869 H 0.22982 0.86699 0.13841 0.0
C870 C 0.181 0.82851 0.12573 0.0
C871 C 0.14703 0.81515 0.13157 0.0
C872 C 0.20742 0.92457 0.20449 0.0
C873 C 0.19276 0.87305 0.16775 0.0
C874 C 0.23155 0.95414 0.22061 0.0
C875 C 0.26501 0.96318 0.21889 0.0
C876 C 0.21698 0.90422 0.18629 0.0
C877 C 0.27335 0.94198 0.20069 0.0
C878 C 0.20379 0.85716 0.14378 0.0
C879 C 0.13687 0.83127 0.15641 0.0
N880 N 0.2496 0.9137 0.18508 0.0
N881 N 0.15965 0.85955 0.17343 0.0
H882 H 0.27483 0.22374 0.37891 0.0
H883 H 0.40242 0.16182 0.33756 0.0
H884 H 0.38053 0.28802 0.37974 0.0
H885 H 0.30155 0.10846 0.29988 0.0
H886 H 0.39358 0.20631 0.35857 0.0
H887 H 0.28273 0.17912 0.35495 0.0
C888 C 0.29964 0.22849 0.37396 0.0
C889 C 0.32705 0.25966 0.38129 0.0
C890 C 0.37339 0.18491 0.34561 0.0
C891 C 0.33626 0.20876 0.3544 0.0
C892 C 0.37839 0.15942 0.3337 0.0
C893 C 0.35271 0.1313 0.31693 0.0
C894 C 0.34232 0.18219 0.34124 0.0
C895 C 0.32211 0.12971 0.31257 0.0
C896 C 0.30413 0.20307 0.36024 0.0
C897 C 0.35866 0.26445 0.37437 0.0
N898 N 0.31769 0.15469 0.32488 0.0
N899 N 0.36239 0.23926 0.3616 0.0
H900 H 0.07654 0.26171 0.5474 0.0
H901 H 0.26437 0.39449 0.50211 0.0
H902 H 0.11463 0.36686 0.54624 0.0
H903 H 0.21961 0.29364 0.46498 0.0
H904 H 0.21051 0.38344 0.52427 0.0
H905 H 0.1296 0.27142 0.52258 0.0
C906 C 0.09597 0.28677 0.54187 0.0
C907 C 0.09113 0.3135 0.54888 0.0
C908 C 0.21242 0.36373 0.51118 0.0
C909 C 0.15179 0.32477 0.52102 0.0
C910 C 0.24322 0.37 0.49861 0.0
C911 C 0.24657 0.34498 0.48162 0.0
C912 C 0.1847 0.33205 0.50729 0.0
C913 C 0.21816 0.31372 0.47777 0.0
C914 C 0.12617 0.29228 0.52765 0.0
C915 C 0.11716 0.34547 0.54118 0.0
N916 N 0.18846 0.30806 0.49073 0.0
N917 N 0.14635 0.3502 0.52795 0.0
H918 H 0.89094 0.24941 0.66531 0.0
H919 H 0.83076 0.06138 0.71494 0.0
H920 H 0.94786 0.20381 0.63474 0.0
H921 H 0.76619 0.10213 0.70958 0.0
H922 H 0.87577 0.11357 0.68988 0.0
H923 H 0.84684 0.19603 0.68678 0.0
C924 C 0.89422 0.22817 0.66314 0.0
C925 C 0.92322 0.23118 0.6482 0.0
C926 C 0.85165 0.11088 0.69403 0.0
C927 C 0.8726 0.16968 0.67299 0.0
C928 C 0.826 0.08116 0.70832 0.0
C929 C 0.79467 0.07738 0.71441 0.0
C930 C 0.84594 0.13703 0.68632 0.0
C931 C 0.78988 0.10383 0.70537 0.0
C932 C 0.86892 0.1976 0.67529 0.0
C933 C 0.92589 0.20262 0.64599 0.0
N934 N 0.81522 0.13249 0.69209 0.0
N935 N 0.90098 0.17307 0.65846 0.0
loop_
_geom_bond_atom_site_label_1
_geom_bond_atom_site_label_2
_geom_bond_distance
_geom_bond_site_symmetry_2
_ccdc_geom_bond_type
Co0 N4 2.148 1_554 S
Co0 N10 2.128 . S
Co0 N20 2.194 . S
Co0 O25 2.351 . S
Co0 O26 2.155 . S
Co0 O27 2.096 . S
C1 N4 1.301 . S
C1 N5 1.328 . S
C1 H6 0.930 . S
C2 C3 1.333 . S
C2 N4 1.317 . S
C2 H7 0.930 . S
C3 C2 1.333 . S
C3 N5 1.350 . S
C3 H29 0.931 . S
N4 Co0 2.148 1_556 S
N4 C1 1.301 . S
N4 C2 1.317 . S
N5 C1 1.328 . S
N5 C3 1.350 . S
H6 C1 0.930 . S
H7 C2 0.930 . S
C8 O9 1.224 . S
C8 O27 1.247 . S
O9 C8 1.224 . S
N10 Co0 2.128 . S
N10 C11 1.355 . S
N10 C13 1.311 . S
C11 N10 1.355 . S
C11 C12 1.363 . S
C11 H23 0.929 . S
C12 C11 1.363 . S
C12 N14 1.375 . S
C12 H30 0.931 . S
C13 N10 1.311 . S
C13 N14 1.347 . S
C13 H24 0.929 . S
N14 C12 1.375 . S
N14 C13 1.347 . S
C15 C18 1.365 . S
C15 N20 1.328 . S
C15 H21 0.929 . S
C16 C17 1.362 . S
C16 C19 1.378 . S
C16 H31 0.929 . S
C17 C16 1.362 . S
C17 C18 1.366 . S
C18 C15 1.365 . S
C18 C17 1.366 . S
C18 H32 0.930 . S
C19 C16 1.378 . S
C19 N20 1.315 . S
C19 H22 0.930 . S
N20 Co0 2.194 . S
N20 C15 1.328 . S
N20 C19 1.315 . S
H21 C15 0.929 . S
H22 C19 0.930 . S
H23 C11 0.929 . S
H24 C13 0.929 . S
O25 Co0 2.351 . S
O25 C28 1.244 . S
O26 Co0 2.155 . S
O26 C28 1.240 . S
O27 Co0 2.096 . S
O27 C8 1.247 . S
C28 O25 1.244 . S
C28 O26 1.240 . S
H29 C3 0.931 . S
H30 C12 0.931 . S
H31 C16 0.929 . S
H32 C18 0.930 . S
Co33 N37 2.148 . S
Co33 N43 2.128 . S
Co33 N53 2.194 . S
Co33 O58 2.351 . S
Co33 O59 2.155 . S
Co33 O60 2.096 . S
C34 N37 1.301 . S
C34 N38 1.328 . S
C34 H39 0.930 . S
C35 C36 1.333 . S
C35 N37 1.317 . S
C35 H40 0.930 . S
C36 C35 1.333 . S
C36 N38 1.350 . S
C36 H62 0.931 . S
N37 Co33 2.148 . S
N37 C34 1.301 . S
N37 C35 1.317 . S
N38 C34 1.328 . S
N38 C36 1.350 . S
H39 C34 0.930 . S
H40 C35 0.930 . S
C41 O42 1.224 . S
C41 O60 1.247 . S
O42 C41 1.224 . S
N43 Co33 2.128 . S
N43 C44 1.355 . S
N43 C46 1.311 . S
C44 N43 1.355 . S
C44 C45 1.363 . S
C44 H56 0.929 . S
C45 C44 1.363 . S
C45 N47 1.375 . S
C45 H63 0.931 . S
C46 N43 1.311 . S
C46 N47 1.347 . S
C46 H57 0.929 . S
N47 C45 1.375 . S
N47 C46 1.347 . S
C48 C51 1.365 . S
C48 N53 1.328 . S
C48 H54 0.929 . S
C49 C50 1.362 . S
C49 C52 1.378 . S
C49 H64 0.929 . S
C50 C49 1.362 . S
C50 C51 1.366 . S
C51 C48 1.365 . S
C51 C50 1.366 . S
C51 H65 0.930 . S
C52 C49 1.378 . S
C52 N53 1.315 . S
C52 H55 0.930 . S
N53 Co33 2.194 . S
N53 C48 1.328 . S
N53 C52 1.315 . S
H54 C48 0.929 . S
H55 C52 0.930 . S
H56 C44 0.929 . S
H57 C46 0.929 . S
O58 Co33 2.351 . S
O58 C61 1.244 . S
O59 Co33 2.155 . S
O59 C61 1.240 . S
O60 Co33 2.096 . S
O60 C41 1.247 . S
C61 O58 1.244 . S
C61 O59 1.240 . S
H62 C36 0.931 . S
H63 C45 0.931 . S
H64 C49 0.929 . S
H65 C51 0.930 . S
Co66 N70 2.148 . S
Co66 N76 2.128 . S
Co66 N86 2.194 . S
Co66 O91 2.351 . S
Co66 O92 2.155 . S
Co66 O93 2.096 . S
C67 N70 1.301 . S
C67 N71 1.328 . S
C67 H72 0.930 . S
C68 C69 1.333 . S
C68 N70 1.317 . S
C68 H73 0.930 . S
C69 C68 1.333 . S
C69 N71 1.350 . S
C69 H95 0.931 . S
N70 Co66 2.148 . S
N70 C67 1.301 . S
N70 C68 1.317 . S
N71 C67 1.328 . S
N71 C69 1.350 . S
H72 C67 0.930 . S
H73 C68 0.930 . S
C74 O75 1.224 . S
C74 O93 1.247 . S
O75 C74 1.224 . S
N76 Co66 2.128 . S
N76 C77 1.355 . S
N76 C79 1.311 . S
C77 N76 1.355 . S
C77 C78 1.363 . S
C77 H89 0.929 . S
C78 C77 1.363 . S
C78 N80 1.375 . S
C78 H96 0.931 . S
C79 N76 1.311 . S
C79 N80 1.347 . S
C79 H90 0.929 . S
N80 C78 1.375 . S
N80 C79 1.347 . S
C81 C84 1.365 . S
C81 N86 1.328 . S
C81 H87 0.929 . S
C82 C83 1.362 . S
C82 C85 1.378 . S
C82 H97 0.929 . S
C83 C82 1.362 . S
C83 C84 1.366 . S
C84 C81 1.365 . S
C84 C83 1.366 . S
C84 H98 0.930 . S
C85 C82 1.378 . S
C85 N86 1.315 . S
C85 H88 0.930 . S
N86 Co66 2.194 . S
N86 C81 1.328 . S
N86 C85 1.315 . S
H87 C81 0.929 . S
H88 C85 0.930 . S
H89 C77 0.929 . S
H90 C79 0.929 . S
O91 Co66 2.351 . S
O91 C94 1.244 . S
O92 Co66 2.155 . S
O92 C94 1.240 . S
O93 Co66 2.096 . S
O93 C74 1.247 . S
C94 O91 1.244 . S
C94 O92 1.240 . S
H95 C69 0.931 . S
H96 C78 0.931 . S
H97 C82 0.929 . S
H98 C84 0.930 . S
Co99 N103 2.148 . S
Co99 N109 2.128 . S
Co99 N119 2.194 . S
Co99 O124 2.351 . S
Co99 O125 2.155 . S
Co99 O126 2.096 . S
C100 N103 1.301 . S
C100 N104 1.328 . S
C100 H105 0.930 . S
C101 C102 1.333 . S
C101 N103 1.317 . S
C101 H106 0.930 . S
C102 C101 1.333 . S
C102 N104 1.350 . S
C102 H128 0.931 . S
N103 Co99 2.148 . S
N103 C100 1.301 . S
N103 C101 1.317 . S
N104 C100 1.328 . S
N104 C102 1.350 . S
H105 C100 0.930 . S
H106 C101 0.930 . S
C107 O108 1.224 . S
C107 O126 1.247 . S
O108 C107 1.224 . S
N109 Co99 2.128 . S
N109 C110 1.355 . S
N109 C112 1.311 . S
C110 N109 1.355 . S
C110 C111 1.363 . S
C110 H122 0.929 . S
C111 C110 1.363 . S
C111 N113 1.375 . S
C111 H129 0.931 . S
C112 N109 1.311 . S
C112 N113 1.347 . S
C112 H123 0.929 . S
N113 C111 1.375 . S
N113 C112 1.347 . S
C114 C117 1.365 . S
C114 N119 1.328 . S
C114 H120 0.929 . S
C115 C116 1.362 . S
C115 C118 1.378 . S
C115 H130 0.929 . S
C116 C115 1.362 . S
C116 C117 1.366 . S
C117 C114 1.365 . S
C117 C116 1.366 . S
C117 H131 0.930 . S
C118 C115 1.378 . S
C118 N119 1.315 . S
C118 H121 0.930 . S
N119 Co99 2.194 . S
N119 C114 1.328 . S
N119 C118 1.315 . S
H120 C114 0.929 . S
H121 C118 0.930 . S
H122 C110 0.929 . S
H123 C112 0.929 . S
O124 Co99 2.351 . S
O124 C127 1.244 . S
O125 Co99 2.155 . S
O125 C127 1.240 . S
O126 Co99 2.096 . S
O126 C107 1.247 . S
C127 O124 1.244 . S
C127 O125 1.240 . S
H128 C102 0.931 . S
H129 C111 0.931 . S
H130 C115 0.929 . S
H131 C117 0.930 . S
Co132 N136 2.148 . S
Co132 N142 2.128 . S
Co132 N152 2.194 . S
Co132 O157 2.351 . S
Co132 O158 2.155 . S
Co132 O159 2.096 . S
C133 N136 1.301 . S
C133 N137 1.328 . S
C133 H138 0.930 . S
C134 C135 1.333 . S
C134 N136 1.317 . S
C134 H139 0.930 . S
C135 C134 1.333 . S
C135 N137 1.350 . S
C135 H161 0.931 . S
N136 Co132 2.148 . S
N136 C133 1.301 . S
N136 C134 1.317 . S
N137 C133 1.328 . S
N137 C135 1.350 . S
H138 C133 0.930 . S
H139 C134 0.930 . S
C140 O141 1.224 . S
C140 O159 1.247 . S
O141 C140 1.224 . S
N142 Co132 2.128 . S
N142 C143 1.355 . S
N142 C145 1.311 . S
C143 N142 1.355 . S
C143 C144 1.363 . S
C143 H155 0.929 . S
C144 C143 1.363 . S
C144 N146 1.375 . S
C144 H162 0.931 . S
C145 N142 1.311 . S
C145 N146 1.347 . S
C145 H156 0.929 . S
N146 C144 1.375 . S
N146 C145 1.347 . S
C147 C150 1.365 . S
C147 N152 1.328 . S
C147 H153 0.929 . S
C148 C149 1.362 . S
C148 C151 1.378 . S
C148 H163 0.929 . S
C149 C148 1.362 . S
C149 C150 1.366 . S
C150 C147 1.365 . S
C150 C149 1.366 . S
C150 H164 0.930 . S
C151 C148 1.378 . S
C151 N152 1.315 . S
C151 H154 0.930 . S
N152 Co132 2.194 . S
N152 C147 1.328 . S
N152 C151 1.315 . S
H153 C147 0.929 . S
H154 C151 0.930 . S
H155 C143 0.929 . S
H156 C145 0.929 . S
O157 Co132 2.351 . S
O157 C160 1.244 . S
O158 Co132 2.155 . S
O158 C160 1.240 . S
O159 Co132 2.096 . S
O159 C140 1.247 . S
C160 O157 1.244 . S
C160 O158 1.240 . S
H161 C135 0.931 . S
H162 C144 0.931 . S
H163 C148 0.929 . S
H164 C150 0.930 . S
Co165 N169 2.148 . S
Co165 N175 2.128 . S
Co165 N185 2.194 . S
Co165 O190 2.351 . S
Co165 O191 2.155 . S
Co165 O192 2.096 . S
C166 N169 1.301 . S
C166 N170 1.328 . S
C166 H171 0.930 . S
C167 C168 1.333 . S
C167 N169 1.317 . S
C167 H172 0.930 . S
C168 C167 1.333 . S
C168 N170 1.350 . S
C168 H194 0.931 . S
N169 Co165 2.148 . S
N169 C166 1.301 . S
N169 C167 1.317 . S
N170 C166 1.328 . S
N170 C168 1.350 . S
H171 C166 0.930 . S
H172 C167 0.930 . S
C173 O174 1.224 . S
C173 O192 1.247 . S
O174 C173 1.224 . S
N175 Co165 2.128 . S
N175 C176 1.355 . S
N175 C178 1.311 . S
C176 N175 1.355 . S
C176 C177 1.363 . S
C176 H188 0.929 . S
C177 C176 1.363 . S
C177 N179 1.375 . S
C177 H195 0.931 1_556 S
C178 N175 1.311 . S
C178 N179 1.347 . S
C178 H189 0.929 . S
N179 C177 1.375 . S
N179 C178 1.347 . S
C180 C183 1.365 . S
C180 N185 1.328 . S
C180 H186 0.929 . S
C181 C182 1.362 . S
C181 C184 1.378 . S
C181 H196 0.929 . S
C182 C181 1.362 . S
C182 C183 1.366 . S
C183 C180 1.365 . S
C183 C182 1.366 . S
C183 H197 0.930 . S
C184 C181 1.378 . S
C184 N185 1.315 . S
C184 H187 0.930 . S
N185 Co165 2.194 . S
N185 C180 1.328 . S
N185 C184 1.315 . S
H186 C180 0.929 . S
H187 C184 0.930 . S
H188 C176 0.929 . S
H189 C178 0.929 . S
O190 Co165 2.351 . S
O190 C193 1.244 . S
O191 Co165 2.155 . S
O191 C193 1.240 . S
O192 Co165 2.096 . S
O192 C173 1.247 . S
C193 O190 1.244 . S
C193 O191 1.240 . S
H194 C168 0.931 . S
H195 C177 0.931 1_554 S
H196 C181 0.929 . S
H197 C183 0.930 . S
Co198 N202 2.148 . S
Co198 N208 2.128 . S
Co198 N218 2.194 . S
Co198 O223 2.351 . S
Co198 O224 2.155 . S
Co198 O225 2.096 . S
C199 N202 1.301 . S
C199 N203 1.328 . S
C199 H204 0.930 . S
C200 C201 1.333 . S
C200 N202 1.317 . S
C200 H205 0.930 . S
C201 C200 1.333 . S
C201 N203 1.350 . S
C201 H227 0.931 . S
N202 Co198 2.148 . S
N202 C199 1.301 . S
N202 C200 1.317 . S
N203 C199 1.328 . S
N203 C201 1.350 . S
H204 C199 0.930 . S
H205 C200 0.930 . S
C206 O207 1.224 . S
C206 O225 1.247 . S
O207 C206 1.224 . S
N208 Co198 2.128 . S
N208 C209 1.355 . S
N208 C211 1.311 . S
C209 N208 1.355 . S
C209 C210 1.363 . S
C209 H221 0.929 . S
C210 C209 1.363 . S
C210 N212 1.375 . S
C210 H228 0.931 . S
C211 N208 1.311 . S
C211 N212 1.347 . S
C211 H222 0.929 . S
N212 C210 1.375 . S
N212 C211 1.347 . S
C213 C216 1.365 . S
C213 N218 1.328 . S
C213 H219 0.929 . S
C214 C215 1.362 . S
C214 C217 1.378 . S
C214 H229 0.929 . S
C215 C214 1.362 . S
C215 C216 1.366 . S
C216 C213 1.365 . S
C216 C215 1.366 . S
C216 H230 0.930 . S
C217 C214 1.378 . S
C217 N218 1.315 . S
C217 H220 0.930 . S
N218 Co198 2.194 . S
N218 C213 1.328 . S
N218 C217 1.315 . S
H219 C213 0.929 . S
H220 C217 0.930 . S
H221 C209 0.929 . S
H222 C211 0.929 . S
O223 Co198 2.351 . S
O223 C226 1.244 . S
O224 Co198 2.155 . S
O224 C226 1.240 . S
O225 Co198 2.096 . S
O225 C206 1.247 . S
C226 O223 1.244 . S
C226 O224 1.240 . S
H227 C201 0.931 . S
H228 C210 0.931 . S
H229 C214 0.929 . S
H230 C216 0.930 . S
Co231 N235 2.148 . S
Co231 N241 2.128 . S
Co231 N251 2.194 . S
Co231 O256 2.351 . S
Co231 O257 2.155 . S
Co231 O258 2.096 . S
C232 N235 1.301 1_554 S
C232 N236 1.328 . S
C232 H237 0.930 1_554 S
C233 C234 1.333 . S
C233 N235 1.317 1_554 S
C233 H238 0.930 . S
C234 C233 1.333 . S
C234 N236 1.350 . S
C234 H260 0.931 . S
N235 Co231 2.148 . S
N235 C232 1.301 1_556 S
N235 C233 1.317 1_556 S
N236 C232 1.328 . S
N236 C234 1.350 . S
H237 C232 0.930 1_556 S
H238 C233 0.930 . S
C239 O240 1.224 . S
C239 O258 1.247 . S
O240 C239 1.224 . S
N241 Co231 2.128 . S
N241 C242 1.355 . S
N241 C244 1.311 . S
C242 N241 1.355 . S
C242 C243 1.363 . S
C242 H254 0.929 . S
C243 C242 1.363 . S
C243 N245 1.375 . S
C243 H261 0.931 . S
C244 N241 1.311 . S
C244 N245 1.347 . S
C244 H255 0.929 . S
N245 C243 1.375 . S
N245 C244 1.347 . S
C246 C249 1.365 . S
C246 N251 1.328 . S
C246 H252 0.929 . S
C247 C248 1.362 . S
C247 C250 1.378 . S
C247 H262 0.929 . S
C248 C247 1.362 . S
C248 C249 1.366 . S
C249 C246 1.365 . S
C249 C248 1.366 . S
C249 H263 0.930 . S
C250 C247 1.378 . S
C250 N251 1.315 . S
C250 H253 0.930 . S
N251 Co231 2.194 . S
N251 C246 1.328 . S
N251 C250 1.315 . S
H252 C246 0.929 . S
H253 C250 0.930 . S
H254 C242 0.929 . S
H255 C244 0.929 . S
O256 Co231 2.351 . S
O256 C259 1.244 . S
O257 Co231 2.155 . S
O257 C259 1.240 . S
O258 Co231 2.096 . S
O258 C239 1.247 . S
C259 O256 1.244 . S
C259 O257 1.240 . S
H260 C234 0.931 . S
H261 C243 0.931 . S
H262 C247 0.929 . S
H263 C249 0.930 . S
Co264 N268 2.148 . S
Co264 N274 2.128 . S
Co264 N284 2.194 . S
Co264 O289 2.351 . S
Co264 O290 2.155 . S
Co264 O291 2.096 . S
C265 N268 1.301 . S
C265 N269 1.328 . S
C265 H270 0.930 . S
C266 C267 1.333 . S
C266 N268 1.317 . S
C266 H271 0.930 . S
C267 C266 1.333 . S
C267 N269 1.350 . S
C267 H293 0.931 . S
N268 Co264 2.148 . S
N268 C265 1.301 . S
N268 C266 1.317 . S
N269 C265 1.328 . S
N269 C267 1.350 . S
H270 C265 0.930 . S
H271 C266 0.930 . S
C272 O273 1.224 . S
C272 O291 1.247 . S
O273 C272 1.224 . S
N274 Co264 2.128 . S
N274 C275 1.355 . S
N274 C277 1.311 . S
C275 N274 1.355 . S
C275 C276 1.363 . S
C275 H287 0.929 . S
C276 C275 1.363 . S
C276 N278 1.375 . S
C276 H294 0.931 1_554 S
C277 N274 1.311 . S
C277 N278 1.347 . S
C277 H288 0.929 . S
N278 C276 1.375 . S
N278 C277 1.347 . S
C279 C282 1.365 . S
C279 N284 1.328 . S
C279 H285 0.929 . S
C280 C281 1.362 . S
C280 C283 1.378 . S
C280 H295 0.929 . S
C281 C280 1.362 . S
C281 C282 1.366 . S
C282 C279 1.365 . S
C282 C281 1.366 . S
C282 H296 0.930 . S
C283 C280 1.378 . S
C283 N284 1.315 . S
C283 H286 0.930 . S
N284 Co264 2.194 . S
N284 C279 1.328 . S
N284 C283 1.315 . S
H285 C279 0.929 . S
H286 C283 0.930 . S
H287 C275 0.929 . S
H288 C277 0.929 . S
O289 Co264 2.351 . S
O289 C292 1.244 . S
O290 Co264 2.155 . S
O290 C292 1.240 . S
O291 Co264 2.096 . S
O291 C272 1.247 . S
C292 O289 1.244 . S
C292 O290 1.240 . S
H293 C267 0.931 . S
H294 C276 0.931 1_556 S
H295 C280 0.929 . S
H296 C282 0.930 . S
Co297 N301 2.148 . S
Co297 N307 2.128 . S
Co297 N317 2.194 . S
Co297 O322 2.351 . S
Co297 O323 2.155 . S
Co297 O324 2.096 . S
C298 N301 1.301 . S
C298 N302 1.328 . S
C298 H303 0.930 . S
C299 C300 1.333 . S
C299 N301 1.317 . S
C299 H304 0.930 . S
C300 C299 1.333 . S
C300 N302 1.350 . S
C300 H326 0.931 . S
N301 Co297 2.148 . S
N301 C298 1.301 . S
N301 C299 1.317 . S
N302 C298 1.328 . S
N302 C300 1.350 . S
H303 C298 0.930 . S
H304 C299 0.930 . S
C305 O306 1.224 . S
C305 O324 1.247 . S
O306 C305 1.224 . S
N307 Co297 2.128 . S
N307 C308 1.355 . S
N307 C310 1.311 . S
C308 N307 1.355 . S
C308 C309 1.363 . S
C308 H320 0.929 . S
C309 C308 1.363 . S
C309 N311 1.375 . S
C309 H327 0.931 . S
C310 N307 1.311 . S
C310 N311 1.347 . S
C310 H321 0.929 . S
N311 C309 1.375 . S
N311 C310 1.347 . S
C312 C315 1.365 . S
C312 N317 1.328 . S
C312 H318 0.929 . S
C313 C314 1.362 . S
C313 C316 1.378 . S
C313 H328 0.929 . S
C314 C313 1.362 . S
C314 C315 1.366 . S
C315 C312 1.365 . S
C315 C314 1.366 . S
C315 H329 0.930 . S
C316 C313 1.378 . S
C316 N317 1.315 . S
C316 H319 0.930 . S
N317 Co297 2.194 . S
N317 C312 1.328 . S
N317 C316 1.315 . S
H318 C312 0.929 . S
H319 C316 0.930 . S
H320 C308 0.929 . S
H321 C310 0.929 . S
O322 Co297 2.351 . S
O322 C325 1.244 . S
O323 Co297 2.155 . S
O323 C325 1.240 . S
O324 Co297 2.096 . S
O324 C305 1.247 . S
C325 O322 1.244 . S
C325 O323 1.240 . S
H326 C300 0.931 . S
H327 C309 0.931 . S
H328 C313 0.929 . S
H329 C315 0.930 . S
Co330 N334 2.148 . S
Co330 N340 2.128 . S
Co330 N350 2.194 . S
Co330 O355 2.351 . S
Co330 O356 2.155 . S
Co330 O357 2.096 . S
C331 N334 1.301 . S
C331 N335 1.328 . S
C331 H336 0.930 . S
C332 C333 1.333 . S
C332 N334 1.317 . S
C332 H337 0.930 . S
C333 C332 1.333 . S
C333 N335 1.350 . S
C333 H359 0.931 . S
N334 Co330 2.148 . S
N334 C331 1.301 . S
N334 C332 1.317 . S
N335 C331 1.328 . S
N335 C333 1.350 . S
H336 C331 0.930 . S
H337 C332 0.930 . S
C338 O339 1.224 . S
C338 O357 1.247 . S
O339 C338 1.224 . S
N340 Co330 2.128 . S
N340 C341 1.355 . S
N340 C343 1.311 . S
C341 N340 1.355 . S
C341 C342 1.363 . S
C341 H353 0.929 . S
C342 C341 1.363 . S
C342 N344 1.375 . S
C342 H360 0.931 . S
C343 N340 1.311 . S
C343 N344 1.347 . S
C343 H354 0.929 . S
N344 C342 1.375 . S
N344 C343 1.347 . S
C345 C348 1.365 . S
C345 N350 1.328 . S
C345 H351 0.929 . S
C346 C347 1.362 . S
C346 C349 1.378 . S
C346 H361 0.929 . S
C347 C346 1.362 . S
C347 C348 1.366 . S
C348 C345 1.365 . S
C348 C347 1.366 . S
C348 H362 0.930 . S
C349 C346 1.378 . S
C349 N350 1.315 . S
C349 H352 0.930 . S
N350 Co330 2.194 . S
N350 C345 1.328 . S
N350 C349 1.315 . S
H351 C345 0.929 . S
H352 C349 0.930 . S
H353 C341 0.929 . S
H354 C343 0.929 . S
O355 Co330 2.351 . S
O355 C358 1.244 . S
O356 Co330 2.155 . S
O356 C358 1.240 . S
O357 Co330 2.096 . S
O357 C338 1.247 . S
C358 O355 1.244 . S
C358 O356 1.240 . S
H359 C333 0.931 . S
H360 C342 0.931 . S
H361 C346 0.929 . S
H362 C348 0.930 . S
Co363 N367 2.148 . S
Co363 N373 2.128 . S
Co363 N383 2.194 . S
Co363 O388 2.351 . S
Co363 O389 2.155 . S
Co363 O390 2.096 . S
C364 N367 1.301 . S
C364 N368 1.328 . S
C364 H369 0.930 . S
C365 C366 1.333 . S
C365 N367 1.317 . S
C365 H370 0.930 . S
C366 C365 1.333 . S
C366 N368 1.350 . S
C366 H392 0.931 . S
N367 Co363 2.148 . S
N367 C364 1.301 . S
N367 C365 1.317 . S
N368 C364 1.328 . S
N368 C366 1.350 . S
H369 C364 0.930 . S
H370 C365 0.930 . S
C371 O372 1.224 . S
C371 O390 1.247 . S
O372 C371 1.224 . S
N373 Co363 2.128 . S
N373 C374 1.355 . S
N373 C376 1.311 . S
C374 N373 1.355 . S
C374 C375 1.363 . S
C374 H386 0.929 . S
C375 C374 1.363 . S
C375 N377 1.375 . S
C375 H393 0.931 . S
C376 N373 1.311 . S
C376 N377 1.347 . S
C376 H387 0.929 . S
N377 C375 1.375 . S
N377 C376 1.347 . S
C378 C381 1.365 . S
C378 N383 1.328 . S
C378 H384 0.929 . S
C379 C380 1.362 . S
C379 C382 1.378 . S
C379 H394 0.929 . S
C380 C379 1.362 . S
C380 C381 1.366 . S
C381 C378 1.365 . S
C381 C380 1.366 . S
C381 H395 0.930 . S
C382 C379 1.378 . S
C382 N383 1.315 . S
C382 H385 0.930 . S
N383 Co363 2.194 . S
N383 C378 1.328 . S
N383 C382 1.315 . S
H384 C378 0.929 . S
H385 C382 0.930 . S
H386 C374 0.929 . S
H387 C376 0.929 . S
O388 Co363 2.351 . S
O388 C391 1.244 . S
O389 Co363 2.155 . S
O389 C391 1.240 . S
O390 Co363 2.096 . S
O390 C371 1.247 . S
C391 O388 1.244 . S
C391 O389 1.240 . S
H392 C366 0.931 . S
H393 C375 0.931 . S
H394 C379 0.929 . S
H395 C381 0.930 . S
H396 C402 0.930 . S
H397 C406 0.930 . S
H398 C411 0.929 . S
H399 C409 0.929 . S
H400 C404 0.929 . S
H401 C410 0.929 . S
C402 H396 0.930 . S
C402 C403 1.367 . S
C402 C410 1.378 . S
C403 C402 1.367 . S
C403 C411 1.433 . S
C404 H400 0.929 . S
C404 C406 1.378 . S
C404 C408 1.350 . S
C405 C408 1.463 . S
C405 C410 1.350 . S
C405 N413 1.427 . S
C406 H397 0.930 . S
C406 C404 1.378 . S
C406 C407 1.367 . S
C407 C406 1.367 . S
C407 C409 1.433 . S
C408 C404 1.350 . S
C408 C405 1.463 . S
C408 N412 1.427 . S
C409 H399 0.929 . S
C409 C407 1.433 . S
C409 N412 1.384 . S
C410 H401 0.929 . S
C410 C402 1.378 . S
C410 C405 1.350 . S
C411 H398 0.929 . S
C411 C403 1.433 . S
C411 N413 1.384 . S
N412 C408 1.427 . S
N412 C409 1.384 . S
N413 C405 1.427 . S
N413 C411 1.384 . S
H414 C420 0.930 . S
H415 C424 0.930 . S
H416 C429 0.929 . S
H417 C427 0.929 . S
H418 C422 0.929 . S
H419 C428 0.929 . S
C420 H414 0.930 . S
C420 C421 1.367 . S
C420 C428 1.378 . S
C421 C420 1.367 . S
C421 C429 1.433 . S
C422 H418 0.929 . S
C422 C424 1.378 . S
C422 C426 1.350 . S
C423 C426 1.463 . S
C423 C428 1.350 . S
C423 N431 1.427 . S
C424 H415 0.930 . S
C424 C422 1.378 . S
C424 C425 1.367 . S
C425 C424 1.367 . S
C425 C427 1.433 . S
C426 C422 1.350 . S
C426 C423 1.463 . S
C426 N430 1.427 . S
C427 H417 0.929 . S
C427 C425 1.433 . S
C427 N430 1.384 . S
C428 H419 0.929 . S
C428 C420 1.378 . S
C428 C423 1.350 . S
C429 H416 0.929 . S
C429 C421 1.433 . S
C429 N431 1.384 . S
N430 C426 1.427 . S
N430 C427 1.384 . S
N431 C423 1.427 . S
N431 C429 1.384 . S
H432 C438 0.930 . S
H433 C442 0.930 . S
H434 C447 0.929 . S
H435 C445 0.929 . S
H436 C440 0.929 . S
H437 C446 0.929 . S
C438 H432 0.930 . S
C438 C439 1.367 . S
C438 C446 1.378 . S
C439 C438 1.367 . S
C439 C447 1.433 . S
C440 H436 0.929 . S
C440 C442 1.378 . S
C440 C444 1.350 . S
C441 C444 1.463 . S
C441 C446 1.350 . S
C441 N449 1.427 . S
C442 H433 0.930 . S
C442 C440 1.378 . S
C442 C443 1.367 . S
C443 C442 1.367 . S
C443 C445 1.433 . S
C444 C440 1.350 . S
C444 C441 1.463 . S
C444 N448 1.427 . S
C445 H435 0.929 . S
C445 C443 1.433 . S
C445 N448 1.384 . S
C446 H437 0.929 . S
C446 C438 1.378 . S
C446 C441 1.350 . S
C447 H434 0.929 . S
C447 C439 1.433 . S
C447 N449 1.384 . S
N448 C444 1.427 . S
N448 C445 1.384 . S
N449 C441 1.427 . S
N449 C447 1.384 . S
H450 C456 0.930 . S
H451 C460 0.930 . S
H452 C465 0.929 . S
H453 C463 0.929 . S
H454 C458 0.929 . S
H455 C464 0.929 . S
C456 H450 0.930 . S
C456 C457 1.367 . S
C456 C464 1.378 . S
C457 C456 1.367 . S
C457 C465 1.433 . S
C458 H454 0.929 . S
C458 C460 1.378 . S
C458 C462 1.350 . S
C459 C462 1.463 . S
C459 C464 1.350 . S
C459 N467 1.427 . S
C460 H451 0.930 . S
C460 C458 1.378 . S
C460 C461 1.367 . S
C461 C460 1.367 . S
C461 C463 1.433 . S
C462 C458 1.350 . S
C462 C459 1.463 . S
C462 N466 1.427 . S
C463 H453 0.929 . S
C463 C461 1.433 . S
C463 N466 1.384 . S
C464 H455 0.929 . S
C464 C456 1.378 . S
C464 C459 1.350 . S
C465 H452 0.929 . S
C465 C457 1.433 . S
C465 N467 1.384 . S
N466 C462 1.427 . S
N466 C463 1.384 . S
N467 C459 1.427 . S
N467 C465 1.384 . S
H468 C474 0.930 . S
H469 C478 0.930 . S
H470 C483 0.929 . S
H471 C481 0.929 . S
H472 C476 0.929 . S
H473 C482 0.929 . S
C474 H468 0.930 . S
C474 C475 1.367 . S
C474 C482 1.378 . S
C475 C474 1.367 . S
C475 C483 1.433 . S
C476 H472 0.929 . S
C476 C478 1.378 . S
C476 C480 1.350 . S
C477 C480 1.463 . S
C477 C482 1.350 . S
C477 N485 1.427 . S
C478 H469 0.930 . S
C478 C476 1.378 . S
C478 C479 1.367 . S
C479 C478 1.367 . S
C479 C481 1.433 . S
C480 C476 1.350 . S
C480 C477 1.463 . S
C480 N484 1.427 . S
C481 H471 0.929 . S
C481 C479 1.433 . S
C481 N484 1.384 . S
C482 H473 0.929 . S
C482 C474 1.378 . S
C482 C477 1.350 . S
C483 H470 0.929 . S
C483 C475 1.433 . S
C483 N485 1.384 . S
N484 C480 1.427 . S
N484 C481 1.384 . S
N485 C477 1.427 . S
N485 C483 1.384 . S
H486 C492 0.930 1_556 S
H487 C496 0.930 . S
H488 C501 0.929 . S
H489 C499 0.929 . S
H490 C494 0.929 . S
H491 C500 0.929 . S
C492 H486 0.930 1_554 S
C492 C493 1.367 . S
C492 C500 1.378 . S
C493 C492 1.367 . S
C493 C501 1.433 . S
C494 H490 0.929 . S
C494 C496 1.378 . S
C494 C498 1.350 . S
C495 C498 1.463 . S
C495 C500 1.350 . S
C495 N503 1.427 . S
C496 H487 0.930 . S
C496 C494 1.378 . S
C496 C497 1.367 . S
C497 C496 1.367 . S
C497 C499 1.433 . S
C498 C494 1.350 . S
C498 C495 1.463 . S
C498 N502 1.427 . S
C499 H489 0.929 . S
C499 C497 1.433 . S
C499 N502 1.384 . S
C500 H491 0.929 . S
C500 C492 1.378 . S
C500 C495 1.350 . S
C501 H488 0.929 . S
C501 C493 1.433 . S
C501 N503 1.384 . S
N502 C498 1.427 . S
N502 C499 1.384 . S
N503 C495 1.427 . S
N503 C501 1.384 . S
H504 C510 0.930 . S
H505 C514 0.930 . S
H506 C519 0.929 . S
H507 C517 0.929 . S
H508 C512 0.929 . S
H509 C518 0.929 . S
C510 H504 0.930 . S
C510 C511 1.367 . S
C510 C518 1.378 . S
C511 C510 1.367 . S
C511 C519 1.433 . S
C512 H508 0.929 . S
C512 C514 1.378 . S
C512 C516 1.350 . S
C513 C516 1.463 . S
C513 C518 1.350 . S
C513 N521 1.427 . S
C514 H505 0.930 . S
C514 C512 1.378 . S
C514 C515 1.367 . S
C515 C514 1.367 . S
C515 C517 1.433 . S
C516 C512 1.350 . S
C516 C513 1.463 . S
C516 N520 1.427 . S
C517 H507 0.929 . S
C517 C515 1.433 . S
C517 N520 1.384 . S
C518 H509 0.929 . S
C518 C510 1.378 . S
C518 C513 1.350 . S
C519 H506 0.929 . S
C519 C511 1.433 . S
C519 N521 1.384 . S
N520 C516 1.427 . S
N520 C517 1.384 . S
N521 C513 1.427 . S
N521 C519 1.384 . S
H522 C528 0.930 . S
H523 C532 0.930 . S
H524 C537 0.929 . S
H525 C535 0.929 . S
H526 C530 0.929 . S
H527 C536 0.929 . S
C528 H522 0.930 . S
C528 C529 1.367 . S
C528 C536 1.378 . S
C529 C528 1.367 . S
C529 C537 1.433 . S
C530 H526 0.929 . S
C530 C532 1.378 . S
C530 C534 1.350 . S
C531 C534 1.463 . S
C531 C536 1.350 . S
C531 N539 1.427 . S
C532 H523 0.930 . S
C532 C530 1.378 . S
C532 C533 1.367 . S
C533 C532 1.367 . S
C533 C535 1.433 . S
C534 C530 1.350 . S
C534 C531 1.463 . S
C534 N538 1.427 . S
C535 H525 0.929 . S
C535 C533 1.433 . S
C535 N538 1.384 . S
C536 H527 0.929 . S
C536 C528 1.378 . S
C536 C531 1.350 . S
C537 H524 0.929 . S
C537 C529 1.433 . S
C537 N539 1.384 . S
N538 C534 1.427 . S
N538 C535 1.384 . S
N539 C531 1.427 . S
N539 C537 1.384 . S
H540 C546 0.930 . S
H541 C550 0.930 . S
H542 C555 0.929 . S
H543 C553 0.929 . S
H544 C548 0.929 . S
H545 C554 0.929 . S
C546 H540 0.930 . S
C546 C547 1.367 . S
C546 C554 1.378 . S
C547 C546 1.367 . S
C547 C555 1.433 . S
C548 H544 0.929 . S
C548 C550 1.378 . S
C548 C552 1.350 . S
C549 C552 1.463 . S
C549 C554 1.350 . S
C549 N557 1.427 . S
C550 H541 0.930 . S
C550 C548 1.378 . S
C550 C551 1.367 . S
C551 C550 1.367 . S
C551 C553 1.433 . S
C552 C548 1.350 . S
C552 C549 1.463 . S
C552 N556 1.427 . S
C553 H543 0.929 . S
C553 C551 1.433 . S
C553 N556 1.384 . S
C554 H545 0.929 . S
C554 C546 1.378 . S
C554 C549 1.350 . S
C555 H542 0.929 . S
C555 C547 1.433 . S
C555 N557 1.384 . S
N556 C552 1.427 . S
N556 C553 1.384 . S
N557 C549 1.427 . S
N557 C555 1.384 . S
H558 C564 0.930 . S
H559 C568 0.930 . S
H560 C573 0.929 . S
H561 C571 0.929 . S
H562 C566 0.929 . S
H563 C572 0.929 . S
C564 H558 0.930 . S
C564 C565 1.367 . S
C564 C572 1.378 . S
C565 C564 1.367 . S
C565 C573 1.433 . S
C566 H562 0.929 . S
C566 C568 1.378 . S
C566 C570 1.350 . S
C567 C570 1.463 . S
C567 C572 1.350 . S
C567 N575 1.427 . S
C568 H559 0.930 . S
C568 C566 1.378 . S
C568 C569 1.367 . S
C569 C568 1.367 . S
C569 C571 1.433 . S
C570 C566 1.350 . S
C570 C567 1.463 . S
C570 N574 1.427 . S
C571 H561 0.929 . S
C571 C569 1.433 . S
C571 N574 1.384 . S
C572 H563 0.929 . S
C572 C564 1.378 . S
C572 C567 1.350 . S
C573 H560 0.929 . S
C573 C565 1.433 . S
C573 N575 1.384 . S
N574 C570 1.427 . S
N574 C571 1.384 . S
N575 C567 1.427 . S
N575 C573 1.384 . S
H576 C582 0.930 . S
H577 C586 0.930 . S
H578 C591 0.929 . S
H579 C589 0.929 . S
H580 C584 0.929 . S
H581 C590 0.929 . S
C582 H576 0.930 . S
C582 C583 1.367 . S
C582 C590 1.378 . S
C583 C582 1.367 . S
C583 C591 1.433 . S
C584 H580 0.929 . S
C584 C586 1.378 . S
C584 C588 1.350 . S
C585 C588 1.463 . S
C585 C590 1.350 . S
C585 N593 1.427 . S
C586 H577 0.930 . S
C586 C584 1.378 . S
C586 C587 1.367 . S
C587 C586 1.367 . S
C587 C589 1.433 . S
C588 C584 1.350 . S
C588 C585 1.463 . S
C588 N592 1.427 . S
C589 H579 0.929 . S
C589 C587 1.433 . S
C589 N592 1.384 . S
C590 H581 0.929 . S
C590 C582 1.378 . S
C590 C585 1.350 . S
C591 H578 0.929 . S
C591 C583 1.433 . S
C591 N593 1.384 . S
N592 C588 1.427 . S
N592 C589 1.384 . S
N593 C585 1.427 . S
N593 C591 1.384 . S
H594 C600 0.930 . S
H595 C604 0.930 . S
H596 C609 0.929 . S
H597 C607 0.929 . S
H598 C602 0.929 . S
H599 C608 0.929 . S
C600 H594 0.930 . S
C600 C601 1.367 . S
C600 C608 1.378 . S
C601 C600 1.367 . S
C601 C609 1.433 . S
C602 H598 0.929 . S
C602 C604 1.378 . S
C602 C606 1.350 . S
C603 C606 1.463 . S
C603 C608 1.350 . S
C603 N611 1.427 . S
C604 H595 0.930 . S
C604 C602 1.378 . S
C604 C605 1.367 . S
C605 C604 1.367 . S
C605 C607 1.433 . S
C606 C602 1.350 . S
C606 C603 1.463 . S
C606 N610 1.427 . S
C607 H597 0.929 . S
C607 C605 1.433 . S
C607 N610 1.384 . S
C608 H599 0.929 . S
C608 C600 1.378 . S
C608 C603 1.350 . S
C609 H596 0.929 . S
C609 C601 1.433 . S
C609 N611 1.384 . S
N610 C606 1.427 . S
N610 C607 1.384 . S
N611 C603 1.427 . S
N611 C609 1.384 . S
H612 C618 0.930 . S
H613 C622 0.930 . S
H614 C627 0.929 . S
H615 C625 0.929 . S
H616 C620 0.918 1_655 S
H617 C626 0.918 1_455 S
C618 H612 0.930 . S
C618 C619 1.367 . S
C618 C626 1.381 . S
C619 C618 1.367 . S
C619 C627 1.433 . S
C620 H616 0.918 1_455 S
C620 C622 1.381 . S
C620 C624 1.358 . S
C621 C624 1.463 1_655 S
C621 C626 1.358 . S
C621 N629 1.427 . S
C622 H613 0.930 . S
C622 C620 1.381 . S
C622 C623 1.367 . S
C623 C622 1.367 . S
C623 C625 1.433 . S
C624 C620 1.358 . S
C624 C621 1.463 1_455 S
C624 N628 1.427 . S
C625 H615 0.929 . S
C625 C623 1.433 . S
C625 N628 1.384 . S
C626 H617 0.918 1_655 S
C626 C618 1.381 . S
C626 C621 1.358 . S
C627 H614 0.929 . S
C627 C619 1.433 . S
C627 N629 1.384 . S
N628 C624 1.427 . S
N628 C625 1.384 . S
N629 C621 1.427 . S
N629 C627 1.384 . S
H630 C636 0.930 . S
H631 C640 0.930 . S
H632 C645 0.929 . S
H633 C643 0.929 . S
H634 C638 0.929 . S
H635 C644 0.929 . S
C636 H630 0.930 . S
C636 C637 1.367 1_545 S
C636 C644 1.378 . S
C637 C636 1.367 1_565 S
C637 C645 1.433 . S
C638 H634 0.929 . S
C638 C640 1.378 . S
C638 C642 1.350 1_565 S
C639 C642 1.463 1_566 S
C639 C644 1.350 1_565 S
C639 N647 1.427 . S
C640 H631 0.930 . S
C640 C638 1.378 . S
C640 C641 1.367 1_565 S
C641 C640 1.367 1_545 S
C641 C643 1.433 . S
C642 C638 1.350 1_545 S
C642 C639 1.463 1_544 S
C642 N646 1.427 . S
C643 H633 0.929 . S
C643 C641 1.433 . S
C643 N646 1.384 . S
C644 H635 0.929 . S
C644 C636 1.378 . S
C644 C639 1.350 1_545 S
C645 H632 0.929 . S
C645 C637 1.433 . S
C645 N647 1.384 . S
N646 C642 1.427 . S
N646 C643 1.384 . S
N647 C639 1.427 . S
N647 C645 1.384 . S
H648 C654 0.930 . S
H649 C658 0.930 . S
H650 C663 0.929 . S
H651 C661 0.929 . S
H652 C656 0.929 . S
H653 C662 0.929 . S
C654 H648 0.930 . S
C654 C655 1.367 . S
C654 C662 1.378 . S
C655 C654 1.367 . S
C655 C663 1.433 . S
C656 H652 0.929 . S
C656 C658 1.378 . S
C656 C660 1.350 . S
C657 C660 1.463 . S
C657 C662 1.350 . S
C657 N665 1.427 . S
C658 H649 0.930 . S
C658 C656 1.378 . S
C658 C659 1.367 . S
C659 C658 1.367 . S
C659 C661 1.433 . S
C660 C656 1.350 . S
C660 C657 1.463 . S
C660 N664 1.427 . S
C661 H651 0.929 . S
C661 C659 1.433 . S
C661 N664 1.384 . S
C662 H653 0.929 . S
C662 C654 1.378 . S
C662 C657 1.350 . S
C663 H650 0.929 . S
C663 C655 1.433 . S
C663 N665 1.384 . S
N664 C660 1.427 . S
N664 C661 1.384 . S
N665 C657 1.427 . S
N665 C663 1.384 . S
H666 C672 0.930 . S
H667 C676 0.930 . S
H668 C681 0.929 . S
H669 C679 0.929 . S
H670 C674 0.929 . S
H671 C680 0.929 . S
C672 H666 0.930 . S
C672 C673 1.367 1_455 S
C672 C680 1.378 . S
C673 C672 1.367 1_655 S
C673 C681 1.433 . S
C674 H670 0.929 . S
C674 C676 1.378 . S
C674 C678 1.350 1_655 S
C675 C678 1.463 1_655 S
C675 C680 1.350 1_655 S
C675 N683 1.427 . S
C676 H667 0.930 . S
C676 C674 1.378 . S
C676 C677 1.367 1_655 S
C677 C676 1.367 1_455 S
C677 C679 1.433 . S
C678 C674 1.350 1_455 S
C678 C675 1.463 1_455 S
C678 N682 1.427 . S
C679 H669 0.929 . S
C679 C677 1.433 . S
C679 N682 1.384 . S
C680 H671 0.929 . S
C680 C672 1.378 . S
C680 C675 1.350 1_455 S
C681 H668 0.929 . S
C681 C673 1.433 . S
C681 N683 1.384 . S
N682 C678 1.427 . S
N682 C679 1.384 . S
N683 C675 1.427 . S
N683 C681 1.384 . S
H684 C690 0.937 1_545 S
H685 C694 0.937 1_565 S
H686 C699 0.929 . S
H687 C697 0.929 . S
H688 C692 0.929 . S
H689 C698 0.929 . S
C690 H684 0.937 1_565 S
C690 C691 1.366 . S
C690 C698 1.373 1_565 S
C691 C690 1.366 . S
C691 C699 1.433 . S
C692 H688 0.929 . S
C692 C694 1.373 1_565 S
C692 C696 1.350 1_565 S
C693 C696 1.463 1_565 S
C693 C698 1.350 1_565 S
C693 N701 1.427 . S
C694 H685 0.937 1_545 S
C694 C692 1.373 1_545 S
C694 C695 1.366 . S
C695 C694 1.366 . S
C695 C697 1.433 . S
C696 C692 1.350 1_545 S
C696 C693 1.463 1_545 S
C696 N700 1.427 . S
C697 H687 0.929 . S
C697 C695 1.433 . S
C697 N700 1.384 . S
C698 H689 0.929 . S
C698 C690 1.373 1_545 S
C698 C693 1.350 1_545 S
C699 H686 0.929 . S
C699 C691 1.433 . S
C699 N701 1.384 . S
N700 C696 1.427 . S
N700 C697 1.384 . S
N701 C693 1.427 . S
N701 C699 1.384 . S
H702 C708 0.930 . S
H703 C712 0.930 . S
H704 C717 0.929 . S
H705 C715 0.929 . S
H706 C710 0.929 . S
H707 C716 0.929 . S
C708 H702 0.930 . S
C708 C709 1.367 . S
C708 C716 1.378 . S
C709 C708 1.367 . S
C709 C717 1.433 . S
C710 H706 0.929 . S
C710 C712 1.378 . S
C710 C714 1.350 . S
C711 C714 1.463 . S
C711 C716 1.350 . S
C711 N719 1.427 . S
C712 H703 0.930 . S
C712 C710 1.378 . S
C712 C713 1.367 . S
C713 C712 1.367 . S
C713 C715 1.433 . S
C714 C710 1.350 . S
C714 C711 1.463 . S
C714 N718 1.427 . S
C715 H705 0.929 . S
C715 C713 1.433 . S
C715 N718 1.384 . S
C716 H707 0.929 . S
C716 C708 1.378 . S
C716 C711 1.350 . S
C717 H704 0.929 . S
C717 C709 1.433 . S
C717 N719 1.384 . S
N718 C714 1.427 . S
N718 C715 1.384 . S
N719 C711 1.427 . S
N719 C717 1.384 . S
H720 C726 0.930 . S
H721 C730 0.930 . S
H722 C735 0.929 . S
H723 C733 0.929 . S
H724 C728 0.929 . S
H725 C734 0.929 . S
C726 H720 0.930 . S
C726 C727 1.367 . S
C726 C734 1.378 . S
C727 C726 1.367 . S
C727 C735 1.433 . S
C728 H724 0.929 . S
C728 C730 1.378 . S
C728 C732 1.350 1_554 S
C729 C732 1.463 . S
C729 C734 1.350 . S
C729 N737 1.427 . S
C730 H721 0.930 . S
C730 C728 1.378 . S
C730 C731 1.367 . S
C731 C730 1.367 . S
C731 C733 1.433 1_554 S
C732 C728 1.350 1_556 S
C732 C729 1.463 . S
C732 N736 1.427 . S
C733 H723 0.929 . S
C733 C731 1.433 1_556 S
C733 N736 1.384 . S
C734 H725 0.929 . S
C734 C726 1.378 . S
C734 C729 1.350 . S
C735 H722 0.929 . S
C735 C727 1.433 . S
C735 N737 1.384 . S
N736 C732 1.427 . S
N736 C733 1.384 . S
N737 C729 1.427 . S
N737 C735 1.384 . S
H738 C744 0.930 . S
H739 C748 0.930 . S
H740 C753 0.929 . S
H741 C751 0.929 . S
H742 C746 0.929 . S
H743 C752 0.929 . S
C744 H738 0.930 . S
C744 C745 1.367 . S
C744 C752 1.378 . S
C745 C744 1.367 . S
C745 C753 1.433 . S
C746 H742 0.929 . S
C746 C748 1.378 . S
C746 C750 1.350 . S
C747 C750 1.463 . S
C747 C752 1.350 . S
C747 N755 1.427 . S
C748 H739 0.930 . S
C748 C746 1.378 . S
C748 C749 1.367 . S
C749 C748 1.367 . S
C749 C751 1.433 . S
C750 C746 1.350 . S
C750 C747 1.463 . S
C750 N754 1.427 . S
C751 H741 0.929 . S
C751 C749 1.433 . S
C751 N754 1.384 . S
C752 H743 0.929 . S
C752 C744 1.378 . S
C752 C747 1.350 . S
C753 H740 0.929 . S
C753 C745 1.433 . S
C753 N755 1.384 . S
N754 C750 1.427 . S
N754 C751 1.384 . S
N755 C747 1.427 . S
N755 C753 1.384 . S
H756 C762 0.930 . S
H757 C766 0.930 . S
H758 C771 0.929 . S
H759 C769 0.929 . S
H760 C764 0.929 . S
H761 C770 0.929 . S
C762 H756 0.930 . S
C762 C763 1.367 . S
C762 C770 1.378 . S
C763 C762 1.367 . S
C763 C771 1.433 . S
C764 H760 0.929 . S
C764 C766 1.378 . S
C764 C768 1.350 . S
C765 C768 1.463 . S
C765 C770 1.350 . S
C765 N773 1.427 . S
C766 H757 0.930 . S
C766 C764 1.378 . S
C766 C767 1.367 . S
C767 C766 1.367 . S
C767 C769 1.433 . S
C768 C764 1.350 . S
C768 C765 1.463 . S
C768 N772 1.427 . S
C769 H759 0.929 . S
C769 C767 1.433 . S
C769 N772 1.384 . S
C770 H761 0.929 . S
C770 C762 1.378 . S
C770 C765 1.350 . S
C771 H758 0.929 . S
C771 C763 1.433 . S
C771 N773 1.384 . S
N772 C768 1.427 . S
N772 C769 1.384 . S
N773 C765 1.427 . S
N773 C771 1.384 . S
H774 C780 0.930 . S
H775 C784 0.930 . S
H776 C789 0.929 . S
H777 C787 0.929 . S
H778 C782 0.929 . S
H779 C788 0.929 . S
C780 H774 0.930 . S
C780 C781 1.367 . S
C780 C788 1.378 . S
C781 C780 1.367 . S
C781 C789 1.433 . S
C782 H778 0.929 . S
C782 C784 1.378 . S
C782 C786 1.350 . S
C783 C786 1.463 . S
C783 C788 1.350 . S
C783 N791 1.427 . S
C784 H775 0.930 . S
C784 C782 1.378 . S
C784 C785 1.367 . S
C785 C784 1.367 . S
C785 C787 1.433 . S
C786 C782 1.350 . S
C786 C783 1.463 . S
C786 N790 1.427 . S
C787 H777 0.929 . S
C787 C785 1.433 . S
C787 N790 1.384 . S
C788 H779 0.929 . S
C788 C780 1.378 . S
C788 C783 1.350 . S
C789 H776 0.929 . S
C789 C781 1.433 . S
C789 N791 1.384 . S
N790 C786 1.427 . S
N790 C787 1.384 . S
N791 C783 1.427 . S
N791 C789 1.384 . S
H792 C798 0.930 . S
H793 C802 0.930 . S
H794 C807 0.929 . S
H795 C805 0.929 . S
H796 C800 0.929 . S
H797 C806 0.929 . S
C798 H792 0.930 . S
C798 C799 1.367 . S
C798 C806 1.378 . S
C799 C798 1.367 . S
C799 C807 1.433 . S
C800 H796 0.929 . S
C800 C802 1.378 . S
C800 C804 1.350 . S
C801 C804 1.463 . S
C801 C806 1.350 . S
C801 N809 1.427 . S
C802 H793 0.930 . S
C802 C800 1.378 . S
C802 C803 1.367 . S
C803 C802 1.367 . S
C803 C805 1.433 . S
C804 C800 1.350 . S
C804 C801 1.463 . S
C804 N808 1.427 . S
C805 H795 0.929 . S
C805 C803 1.433 . S
C805 N808 1.384 . S
C806 H797 0.929 . S
C806 C798 1.378 . S
C806 C801 1.350 . S
C807 H794 0.929 . S
C807 C799 1.433 . S
C807 N809 1.384 . S
N808 C804 1.427 . S
N808 C805 1.384 . S
N809 C801 1.427 . S
N809 C807 1.384 . S
H810 C816 0.930 . S
H811 C820 0.930 . S
H812 C825 0.929 . S
H813 C823 0.929 . S
H814 C818 0.929 . S
H815 C824 0.929 . S
C816 H810 0.930 . S
C816 C817 1.367 . S
C816 C824 1.378 . S
C817 C816 1.367 . S
C817 C825 1.433 . S
C818 H814 0.929 . S
C818 C820 1.378 . S
C818 C822 1.350 . S
C819 C822 1.463 . S
C819 C824 1.350 . S
C819 N827 1.427 . S
C820 H811 0.930 . S
C820 C818 1.378 . S
C820 C821 1.367 . S
C821 C820 1.367 . S
C821 C823 1.433 . S
C822 C818 1.350 . S
C822 C819 1.463 . S
C822 N826 1.427 . S
C823 H813 0.929 . S
C823 C821 1.433 . S
C823 N826 1.384 . S
C824 H815 0.929 . S
C824 C816 1.378 . S
C824 C819 1.350 . S
C825 H812 0.929 . S
C825 C817 1.433 . S
C825 N827 1.384 . S
N826 C822 1.427 . S
N826 C823 1.384 . S
N827 C819 1.427 . S
N827 C825 1.384 . S
H828 C834 0.930 . S
H829 C838 0.930 . S
H830 C843 0.929 . S
H831 C841 0.929 . S
H832 C836 0.929 . S
H833 C842 0.929 . S
C834 H828 0.930 . S
C834 C835 1.367 . S
C834 C842 1.378 . S
C835 C834 1.367 . S
C835 C843 1.433 . S
C836 H832 0.929 . S
C836 C838 1.378 . S
C836 C840 1.350 . S
C837 C840 1.463 . S
C837 C842 1.350 . S
C837 N845 1.427 . S
C838 H829 0.930 . S
C838 C836 1.378 . S
C838 C839 1.367 . S
C839 C838 1.367 . S
C839 C841 1.433 . S
C840 C836 1.350 . S
C840 C837 1.463 . S
C840 N844 1.427 . S
C841 H831 0.929 . S
C841 C839 1.433 . S
C841 N844 1.384 . S
C842 H833 0.929 . S
C842 C834 1.378 . S
C842 C837 1.350 . S
C843 H830 0.929 . S
C843 C835 1.433 . S
C843 N845 1.384 . S
N844 C840 1.427 . S
N844 C841 1.384 . S
N845 C837 1.427 . S
N845 C843 1.384 . S
H846 C852 0.930 . S
H847 C856 0.930 . S
H848 C861 0.929 . S
H849 C859 0.929 . S
H850 C854 0.929 . S
H851 C860 0.929 . S
C852 H846 0.930 . S
C852 C853 1.367 1_554 S
C852 C860 1.378 . S
C853 C852 1.367 1_556 S
C853 C861 1.433 . S
C854 H850 0.929 . S
C854 C856 1.378 . S
C854 C858 1.350 . S
C855 C858 1.463 . S
C855 C860 1.350 . S
C855 N863 1.427 1_554 S
C856 H847 0.930 . S
C856 C854 1.378 . S
C856 C857 1.367 . S
C857 C856 1.367 . S
C857 C859 1.433 . S
C858 C854 1.350 . S
C858 C855 1.463 . S
C858 N862 1.427 . S
C859 H849 0.929 . S
C859 C857 1.433 . S
C859 N862 1.384 . S
C860 H851 0.929 . S
C860 C852 1.378 . S
C860 C855 1.350 . S
C861 H848 0.929 . S
C861 C853 1.433 . S
C861 N863 1.384 . S
N862 C858 1.427 . S
N862 C859 1.384 . S
N863 C855 1.427 1_556 S
N863 C861 1.384 . S
H864 C870 0.930 . S
H865 C874 0.930 . S
H866 C879 0.929 . S
H867 C877 0.929 . S
H868 C872 0.929 . S
H869 C878 0.929 . S
C870 H864 0.930 . S
C870 C871 1.367 . S
C870 C878 1.378 . S
C871 C870 1.367 . S
C871 C879 1.433 . S
C872 H868 0.929 . S
C872 C874 1.378 . S
C872 C876 1.350 . S
C873 C876 1.463 . S
C873 C878 1.350 . S
C873 N881 1.427 . S
C874 H865 0.930 . S
C874 C872 1.378 . S
C874 C875 1.367 . S
C875 C874 1.367 . S
C875 C877 1.433 . S
C876 C872 1.350 . S
C876 C873 1.463 . S
C876 N880 1.427 . S
C877 H867 0.929 . S
C877 C875 1.433 . S
C877 N880 1.384 . S
C878 H869 0.929 . S
C878 C870 1.378 . S
C878 C873 1.350 . S
C879 H866 0.929 . S
C879 C871 1.433 . S
C879 N881 1.384 . S
N880 C876 1.427 . S
N880 C877 1.384 . S
N881 C873 1.427 . S
N881 C879 1.384 . S
H882 C888 0.930 . S
H883 C892 0.930 . S
H884 C897 0.929 . S
H885 C895 0.929 . S
H886 C890 0.929 . S
H887 C896 0.929 . S
C888 H882 0.930 . S
C888 C889 1.367 . S
C888 C896 1.378 . S
C889 C888 1.367 . S
C889 C897 1.433 . S
C890 H886 0.929 . S
C890 C892 1.378 . S
C890 C894 1.350 . S
C891 C894 1.463 . S
C891 C896 1.350 . S
C891 N899 1.427 . S
C892 H883 0.930 . S
C892 C890 1.378 . S
C892 C893 1.367 . S
C893 C892 1.367 . S
C893 C895 1.433 . S
C894 C890 1.350 . S
C894 C891 1.463 . S
C894 N898 1.427 . S
C895 H885 0.929 . S
C895 C893 1.433 . S
C895 N898 1.384 . S
C896 H887 0.929 . S
C896 C888 1.378 . S
C896 C891 1.350 . S
C897 H884 0.929 . S
C897 C889 1.433 . S
C897 N899 1.384 . S
N898 C894 1.427 . S
N898 C895 1.384 . S
N899 C891 1.427 . S
N899 C897 1.384 . S
H900 C906 0.930 . S
H901 C910 0.930 . S
H902 C915 0.929 . S
H903 C913 0.929 . S
H904 C908 0.929 . S
H905 C914 0.929 . S
C906 H900 0.930 . S
C906 C907 1.367 . S
C906 C914 1.378 . S
C907 C906 1.367 . S
C907 C915 1.433 . S
C908 H904 0.929 . S
C908 C910 1.378 . S
C908 C912 1.350 . S
C909 C912 1.463 . S
C909 C914 1.350 . S
C909 N917 1.427 . S
C910 H901 0.930 . S
C910 C908 1.378 . S
C910 C911 1.367 . S
C911 C910 1.367 . S
C911 C913 1.433 . S
C912 C908 1.350 . S
C912 C909 1.463 . S
C912 N916 1.427 . S
C913 H903 0.929 . S
C913 C911 1.433 . S
C913 N916 1.384 . S
C914 H905 0.929 . S
C914 C906 1.378 . S
C914 C909 1.350 . S
C915 H902 0.929 . S
C915 C907 1.433 . S
C915 N917 1.384 . S
N916 C912 1.427 . S
N916 C913 1.384 . S
N917 C909 1.427 . S
N917 C915 1.384 . S
H918 C924 0.930 . S
H919 C928 0.930 . S
H920 C933 0.929 . S
H921 C931 0.929 . S
H922 C926 0.929 . S
H923 C932 0.929 . S
C924 H918 0.930 . S
C924 C925 1.367 . S
C924 C932 1.378 . S
C925 C924 1.367 . S
C925 C933 1.433 . S
C926 H922 0.929 . S
C926 C928 1.378 . S
C926 C930 1.350 . S
C927 C930 1.463 . S
C927 C932 1.350 . S
C927 N935 1.427 . S
C928 H919 0.930 . S
C928 C926 1.378 . S
C928 C929 1.367 . S
C929 C928 1.367 . S
C929 C931 1.433 . S
C930 C926 1.350 . S
C930 C927 1.463 . S
C930 N934 1.427 . S
C931 H921 0.929 . S
C931 C929 1.433 . S
C931 N934 1.384 . S
C932 H923 0.929 . S
C932 C924 1.378 . S
C932 C927 1.350 . S
C933 H920 0.929 . S
C933 C925 1.433 . S
C933 N935 1.384 . S
N934 C930 1.427 . S
N934 C931 1.384 . S
N935 C927 1.427 . S
N935 C933 1.384 . S
C403 N344 0.995 . S
C407 N14 0.997 . S
C421 N47 0.990 . S
C425 N377 0.991 . S
C439 N80 0.989 . S
C443 N212 0.989 . S
C457 N113 1.002 . S
C461 N245 1.001 . S
C475 N146 0.998 . S
C479 N278 0.997 1_556 S
C493 N179 1.002 1_554 S
C497 N311 1.002 . S
C511 C17 1.494 . S
C515 C281 1.492 . S
C529 C314 1.496 . S
C533 C50 1.492 . S
C547 C83 1.494 . S
C551 C347 1.491 . S
C565 C116 1.491 . S
C569 C380 1.495 . S
C583 C149 1.496 . S
C587 C215 1.490 . S
C601 C182 1.495 . S
C605 C248 1.490 . S
C619 N368 1.170 . S
C623 N5 1.181 . S
C637 N203 1.183 . S
C641 N38 1.185 . S
C655 N236 1.170 . S
C659 N71 1.161 . S
C673 N104 1.185 . S
C677 N269 1.180 . S
C691 N137 1.183 . S
C695 N302 1.172 . S
C709 N335 1.163 . S
C713 N170 1.173 . S
C727 C193 2.047 . S
C731 C8 2.056 . S
C745 C28 2.047 1_655 S
C749 C41 2.057 . S
C763 C74 2.056 . S
C767 C61 2.046 1_565 S
C781 C94 2.046 . S
C785 C107 2.055 . S
C799 C140 2.055 . S
C803 C127 2.044 1_455 S
C817 C173 2.056 . S
C821 C160 2.046 1_545 S
C835 C259 2.043 . S
C839 C206 2.054 . S
C853 C239 2.056 . S
C857 C292 2.045 1_655 S
C871 C272 2.055 . S
C875 C325 2.045 1_565 S
C889 C358 2.044 . S
C893 C305 2.055 . S
C907 C391 2.044 1_455 S
C911 C338 2.055 . S
C925 C371 2.055 . S
C929 C226 2.044 1_545 S
