# Generated by pormake.
# Topology wjd, (6)-cn, num edge types: 1
# Building blocks:
#     Node 0, Type 0, BuildingBlock: BETDAH_clean_sbu_0, # of connection points: 6
#     Node 1, Type 0, BuildingBlock: BETDAH_clean_sbu_0, # of connection points: 6
#     Node 2, Type 0, BuildingBlock: BETDAH_clean_sbu_0, # of connection points: 6
#     Node 3, Type 0, BuildingBlock: BETDAH_clean_sbu_0, # of connection points: 6
#     Node 4, Type 0, BuildingBlock: BETDAH_clean_sbu_0, # of connection points: 6
#     Node 5, Type 0, BuildingBlock: BETDAH_clean_sbu_0, # of connection points: 6
#     Node 6, Type 0, BuildingBlock: BETDAH_clean_sbu_0, # of connection points: 6
#     Node 7, Type 0, BuildingBlock: BETDAH_clean_sbu_0, # of connection points: 6
#     Node 8, Type 0, BuildingBlock: BETDAH_clean_sbu_0, # of connection points: 6
#     Node 9, Type 0, BuildingBlock: BETDAH_clean_sbu_0, # of connection points: 6
#     Node 10, Type 0, BuildingBlock: BETDAH_clean_sbu_0, # of connection points: 6
#     Node 11, Type 0, BuildingBlock: BETDAH_clean_sbu_0, # of connection points: 6
#     Edge 12, Type (0, 0), BuildingBlock: UVAHIK_clean_linker_0, # of connection points: 2
#     Edge 13, Type (0, 0), BuildingBlock: UVAHIK_clean_linker_0, # of connection points: 2
#     Edge 14, Type (0, 0), BuildingBlock: UVAHIK_clean_linker_0, # of connection points: 2
#     Edge 15, Type (0, 0), BuildingBlock: UVAHIK_clean_linker_0, # of connection points: 2
#     Edge 16, Type (0, 0), BuildingBlock: UVAHIK_clean_linker_0, # of connection points: 2
#     Edge 17, Type (0, 0), BuildingBlock: UVAHIK_clean_linker_0, # of connection points: 2
#     Edge 18, Type (0, 0), BuildingBlock: UVAHIK_clean_linker_0, # of connection points: 2
#     Edge 19, Type (0, 0), BuildingBlock: UVAHIK_clean_linker_0, # of connection points: 2
#     Edge 20, Type (0, 0), BuildingBlock: UVAHIK_clean_linker_0, # of connection points: 2
#     Edge 21, Type (0, 0), BuildingBlock: UVAHIK_clean_linker_0, # of connection points: 2
#     Edge 22, Type (0, 0), BuildingBlock: UVAHIK_clean_linker_0, # of connection points: 2
#     Edge 23, Type (0, 0), BuildingBlock: UVAHIK_clean_linker_0, # of connection points: 2
#     Edge 24, Type (0, 0), BuildingBlock: UVAHIK_clean_linker_0, # of connection points: 2
#     Edge 25, Type (0, 0), BuildingBlock: UVAHIK_clean_linker_0, # of connection points: 2
#     Edge 26, Type (0, 0), BuildingBlock: UVAHIK_clean_linker_0, # of connection points: 2
#     Edge 27, Type (0, 0), BuildingBlock: UVAHIK_clean_linker_0, # of connection points: 2
#     Edge 28, Type (0, 0), BuildingBlock: UVAHIK_clean_linker_0, # of connection points: 2
#     Edge 29, Type (0, 0), BuildingBlock: UVAHIK_clean_linker_0, # of connection points: 2
#     Edge 30, Type (0, 0), BuildingBlock: UVAHIK_clean_linker_0, # of connection points: 2
#     Edge 31, Type (0, 0), BuildingBlock: UVAHIK_clean_linker_0, # of connection points: 2
#     Edge 32, Type (0, 0), BuildingBlock: UVAHIK_clean_linker_0, # of connection points: 2
#     Edge 33, Type (0, 0), BuildingBlock: UVAHIK_clean_linker_0, # of connection points: 2
#     Edge 34, Type (0, 0), BuildingBlock: UVAHIK_clean_linker_0, # of connection points: 2
#     Edge 35, Type (0, 0), BuildingBlock: UVAHIK_clean_linker_0, # of connection points: 2
#     Edge 36, Type (0, 0), BuildingBlock: UVAHIK_clean_linker_0, # of connection points: 2
#     Edge 37, Type (0, 0), BuildingBlock: UVAHIK_clean_linker_0, # of connection points: 2
#     Edge 38, Type (0, 0), BuildingBlock: UVAHIK_clean_linker_0, # of connection points: 2
#     Edge 39, Type (0, 0), BuildingBlock: UVAHIK_clean_linker_0, # of connection points: 2
#     Edge 40, Type (0, 0), BuildingBlock: UVAHIK_clean_linker_0, # of connection points: 2
#     Edge 41, Type (0, 0), BuildingBlock: UVAHIK_clean_linker_0, # of connection points: 2
#     Edge 42, Type (0, 0), BuildingBlock: UVAHIK_clean_linker_0, # of connection points: 2
#     Edge 43, Type (0, 0), BuildingBlock: UVAHIK_clean_linker_0, # of connection points: 2
#     Edge 44, Type (0, 0), BuildingBlock: UVAHIK_clean_linker_0, # of connection points: 2
#     Edge 45, Type (0, 0), BuildingBlock: UVAHIK_clean_linker_0, # of connection points: 2
#     Edge 46, Type (0, 0), BuildingBlock: UVAHIK_clean_linker_0, # of connection points: 2
#     Edge 47, Type (0, 0), BuildingBlock: UVAHIK_clean_linker_0, # of connection points: 2
# Relax obj value: 0.098
# Max RMSD: 0.207
# Mean RMSD: 0.207
data_MOF--net-wjd--node1-BETDAH_clean_sbu_0--edge1-UVAHIK_clean_linker_0
_symmetry_space_group_name_H-M    P1
_symmetry_Int_Tables_number       1
_symmetry_cell_setting            triclinic
loop_
_symmetry_equiv_pos_as_xyz
'x, y, z'
_cell_length_a     49.314567
_cell_length_b     49.352437
_cell_length_c     66.919182
_cell_angle_alpha  90.034431
_cell_angle_beta   90.175867
_cell_angle_gamma 119.96691
loop_
_atom_site_label
_atom_site_type_symbol
_atom_site_fract_x
_atom_site_fract_y
_atom_site_fract_z
_atom_type_partial_charge
Ho0 Ho 0.36788 0.17456 0.1381 0.0
Ho1 Ho 0.32971 0.10152 0.14937 0.0
C2 C 0.40513 0.13783 0.14949 0.0
C3 C 0.40299 0.23422 0.13361 0.0
C4 C 0.43285 0.26291 0.13779 0.0
C5 C 0.44802 0.2689 0.15643 0.0
C6 C 0.47435 0.29824 0.16037 0.0
C7 C 0.48554 0.32197 0.14581 0.0
C8 C 0.47086 0.3153 0.127 0.0
C9 C 0.44484 0.2861 0.12305 0.0
C10 C 0.34262 0.13211 0.10798 0.0
C11 C 0.29422 0.14256 0.14529 0.0
C12 C 0.29372 0.04212 0.14425 0.0
C13 C 0.26103 0.01905 0.14869 0.0
C14 C 0.24812 0.9889 0.14069 0.0
C15 C 0.2161 0.96778 0.14246 0.0
C16 C 0.19634 0.97645 0.15227 0.0
C17 C 0.20961 1.0066 0.16068 0.0
C18 C 0.24171 0.02776 0.15887 0.0
C19 C 0.34417 0.13785 0.18257 0.0
O20 O 0.40527 0.16482 0.14919 0.0
O21 O 0.37912 0.11026 0.14728 0.0
O22 O 0.4033 0.21372 0.1213 0.0
O23 O 0.38307 0.22149 0.14833 0.0
O24 O 0.34385 0.15898 0.1078 0.0
O25 O 0.35544 0.12987 0.12362 0.0
O26 O 0.29181 0.11448 0.14493 0.0
O27 O 0.32141 0.1689 0.14512 0.0
O28 O 0.31303 0.05405 0.15947 0.0
O29 O 0.29709 0.06314 0.13107 0.0
O30 O 0.33022 0.10749 0.18305 0.0
O31 O 0.34921 0.14606 0.16458 0.0
H32 H 0.43907 0.25129 0.16804 0.0
H33 H 0.48522 0.30275 0.175 0.0
H34 H 0.47926 0.33288 0.11537 0.0
H35 H 0.43346 0.28193 0.10859 0.0
H36 H 0.26263 0.98201 0.13249 0.0
H37 H 0.20668 0.94502 0.13547 0.0
H38 H 0.19516 0.01395 0.16849 0.0
H39 H 0.25131 0.05115 0.16494 0.0
Ho40 Ho 0.79472 0.70086 0.41833 0.0
Ho41 Ho 0.82949 0.66139 0.42621 0.0
C42 C 0.87112 0.73551 0.42196 0.0
C43 C 0.77206 0.73669 0.4262 0.0
C44 C 0.78246 0.76998 0.42284 0.0
C45 C 0.78518 0.78875 0.43934 0.0
C46 C 0.79863 0.82108 0.43723 0.0
C47 C 0.80934 0.83525 0.41852 0.0
C48 C 0.80565 0.81635 0.40184 0.0
C49 C 0.79255 0.78398 0.404 0.0
C50 C 0.8183 0.69217 0.3839 0.0
C51 C 0.75524 0.62565 0.41496 0.0
C52 C 0.85298 0.62489 0.42721 0.0
C53 C 0.84879 0.59415 0.42126 0.0
C54 C 0.87023 0.59313 0.40796 0.0
C55 C 0.87067 0.56535 0.4049 0.0
C56 C 0.8498 0.53795 0.4152 0.0
C57 C 0.82722 0.53856 0.4277 0.0
C58 C 0.82674 0.56639 0.43073 0.0
C59 C 0.81265 0.68353 0.45813 0.0
O60 O 0.84552 0.73782 0.42389 0.0
O61 O 0.87026 0.7084 0.42035 0.0
O62 O 0.76321 0.71794 0.4106 0.0
O63 O 0.7898 0.73189 0.43862 0.0
O64 O 0.80377 0.70801 0.38501 0.0
O65 O 0.81923 0.68257 0.40113 0.0
O66 O 0.78192 0.62514 0.41512 0.0
O67 O 0.75382 0.65158 0.41796 0.0
O68 O 0.83465 0.62551 0.44113 0.0
O69 O 0.85951 0.6458 0.41318 0.0
O70 O 0.83843 0.6825 0.45748 0.0
O71 O 0.79751 0.67229 0.44227 0.0
H72 H 0.7777 0.77846 0.45403 0.0
H73 H 0.80085 0.83505 0.45028 0.0
H74 H 0.81386 0.82674 0.38726 0.0
H75 H 0.7911 0.7701 0.39106 0.0
H76 H 0.88762 0.6142 0.40056 0.0
H77 H 0.888 0.56556 0.3949 0.0
H78 H 0.81094 0.51796 0.43598 0.0
H79 H 0.81002 0.56639 0.44119 0.0
Ho80 Ho 0.85823 0.19506 0.13897 0.0
Ho81 Ho 0.92635 0.23224 0.15198 0.0
C82 C 0.89057 0.26988 0.14624 0.0
C83 C 0.79827 0.1678 0.1329 0.0
C84 C 0.77003 0.17076 0.13471 0.0
C85 C 0.76457 0.18458 0.15144 0.0
C86 C 0.73574 0.18348 0.15366 0.0
C87 C 0.71187 0.16841 0.13924 0.0
C88 C 0.71801 0.15566 0.12222 0.0
C89 C 0.74673 0.15681 0.12001 0.0
C90 C 0.90151 0.21031 0.10969 0.0
C91 C 0.8915 0.15639 0.14835 0.0
C92 C 0.98613 0.25521 0.15596 0.0
C93 C 1.00752 0.24259 0.15432 0.0
C94 C 0.99972 0.21601 0.14263 0.0
C95 C 0.02018 0.20412 0.14145 0.0
C96 C 0.04886 0.21867 0.15187 0.0
C97 C 0.05638 0.24517 0.16366 0.0
C98 C 0.03588 0.25697 0.16488 0.0
C99 C 0.88499 0.21947 0.18172 0.0
O100 O 0.86451 0.24234 0.14651 0.0
O101 O 0.91857 0.27237 0.14556 0.0
O102 O 0.81895 0.18484 0.11944 0.0
O103 O 0.81102 0.16515 0.1494 0.0
O104 O 0.87581 0.18358 0.1106 0.0
O105 O 0.90229 0.22741 0.12381 0.0
O106 O 0.91821 0.18316 0.14703 0.0
O107 O 0.8643 0.15528 0.14805 0.0
O108 O 0.96662 0.24478 0.17094 0.0
O109 O 0.97284 0.25669 0.13938 0.0
O110 O 0.91145 0.24538 0.18012 0.0
O111 O 0.88236 0.20079 0.16791 0.0
H112 H 0.7822 0.19545 0.16302 0.0
H113 H 0.73175 0.19345 0.16698 0.0
H114 H 0.70045 0.14444 0.11064 0.0
H115 H 0.75045 0.14601 0.10699 0.0
H116 H 0.97793 0.20455 0.13433 0.0
H117 H 1.01381 0.18389 0.13207 0.0
H118 H 0.07804 0.25668 0.17211 0.0
H119 H 0.04218 0.27734 0.1741 0.0
Ho120 Ho 0.32928 0.10328 0.41499 0.0
Ho121 Ho 0.36379 0.17082 0.42808 0.0
C122 C 0.29122 0.14099 0.42174 0.0
C123 C 0.29085 0.04391 0.41098 0.0
C124 C 0.25671 0.023 0.41217 0.0
C125 C 0.23848 0.02772 0.42635 0.0
C126 C 0.20609 1.00733 0.4272 0.0
C127 C 0.19134 0.98195 0.41382 0.0
C128 C 0.20974 0.9778 0.39944 0.0
C129 C 0.24206 0.99804 0.39869 0.0
C130 C 0.35758 0.14386 0.38482 0.0
C131 C 0.40288 0.13586 0.41918 0.0
C132 C 0.39969 0.23047 0.43376 0.0
C133 C 0.42999 0.25815 0.4282 0.0
C134 C 0.43077 0.27883 0.41347 0.0
C135 C 0.45802 0.30742 0.41012 0.0
C136 C 0.48517 0.31619 0.42153 0.0
C137 C 0.48472 0.29504 0.43581 0.0
C138 C 0.45743 0.26639 0.43915 0.0
C139 C 0.33636 0.12785 0.4577 0.0
O140 O 0.28983 0.11347 0.42132 0.0
O141 O 0.31814 0.1673 0.42191 0.0
O142 O 0.30078 0.06338 0.39597 0.0
O143 O 0.30547 0.05685 0.42767 0.0
O144 O 0.35582 0.11685 0.38637 0.0
O145 O 0.3431 0.14785 0.3991 0.0
O146 O 0.40256 0.16246 0.41813 0.0
O147 O 0.37663 0.10868 0.42097 0.0
O148 O 0.4 0.2092 0.44526 0.0
O149 O 0.37801 0.2184 0.41995 0.0
O150 O 0.33714 0.15448 0.45745 0.0
O151 O 0.35111 0.12632 0.44295 0.0
H152 H 0.24927 0.04703 0.43684 0.0
H153 H 0.19273 0.01113 0.43855 0.0
H154 H 0.19916 0.95897 0.38862 0.0
H155 H 0.25566 0.99422 0.38751 0.0
H156 H 0.40991 0.2735 0.405 0.0
H157 H 0.45733 0.32324 0.3992 0.0
H158 H 0.50534 0.30087 0.44468 0.0
H159 H 0.45759 0.25118 0.45075 0.0
Ho160 Ho 0.82906 0.66188 0.14161 0.0
Ho161 Ho 0.7971 0.70342 0.14997 0.0
C162 C 0.75622 0.62873 0.15495 0.0
C163 C 0.85066 0.62386 0.13964 0.0
C164 C 0.84739 0.59395 0.14668 0.0
C165 C 0.86818 0.59423 0.16119 0.0
C166 C 0.86967 0.56721 0.16518 0.0
C167 C 0.85055 0.53936 0.15463 0.0
C168 C 0.82859 0.53866 0.14088 0.0
C169 C 0.82708 0.56569 0.1369 0.0
C170 C 0.81164 0.684 0.1099 0.0
C171 C 0.87304 0.73576 0.14523 0.0
C172 C 0.77521 0.73996 0.14228 0.0
C173 C 0.78645 0.77353 0.1454 0.0
C174 C 0.79292 0.79287 0.12863 0.0
C175 C 0.80651 0.82518 0.13089 0.0
C176 C 0.81353 0.83878 0.15001 0.0
C177 C 0.80616 0.81939 0.16686 0.0
C178 C 0.79291 0.78702 0.16458 0.0
C179 C 0.8212 0.69466 0.1842 0.0
O180 O 0.78249 0.62749 0.15475 0.0
O181 O 0.75539 0.65476 0.15119 0.0
O182 O 0.82931 0.62275 0.1274 0.0
O183 O 0.86103 0.64717 0.15237 0.0
O184 O 0.83701 0.68224 0.11021 0.0
O185 O 0.79715 0.67351 0.12597 0.0
O186 O 0.848 0.73914 0.1437 0.0
O187 O 0.87109 0.70818 0.14693 0.0
O188 O 0.76679 0.7217 0.15806 0.0
O189 O 0.79182 0.73411 0.12958 0.0
O190 O 0.80746 0.71126 0.18313 0.0
O191 O 0.82132 0.68444 0.16701 0.0
H192 H 0.88435 0.61569 0.16885 0.0
H193 H 0.88651 0.5684 0.17608 0.0
H194 H 0.81373 0.51769 0.13235 0.0
H195 H 0.81106 0.56472 0.12544 0.0
H196 H 0.7881 0.783 0.11369 0.0
H197 H 0.81154 0.83956 0.11768 0.0
H198 H 0.81142 0.82936 0.18176 0.0
H199 H 0.78836 0.77274 0.17779 0.0
Ho200 Ho 0.92391 0.22983 0.4178 0.0
Ho201 Ho 0.85455 0.18946 0.42649 0.0
C202 C 0.89096 0.15374 0.41774 0.0
C203 C 0.98401 0.25416 0.41884 0.0
C204 C 1.00513 0.24113 0.4199 0.0
C205 C 0.0325 0.25638 0.43143 0.0
C206 C 0.05266 0.2442 0.43283 0.0
C207 C 0.04593 0.21652 0.42265 0.0
C208 C 0.01816 0.20105 0.41131 0.0
C209 C 0.99791 0.21317 0.41001 0.0
C210 C 0.88673 0.21764 0.38565 0.0
C211 C 0.88544 0.26502 0.42268 0.0
C212 C 0.794 0.15998 0.42883 0.0
C213 C 0.76614 0.16379 0.42928 0.0
C214 C 0.76043 0.18058 0.4145 0.0
C215 C 0.73178 0.18011 0.41392 0.0
C216 C 0.70831 0.1628 0.42806 0.0
C217 C 0.71474 0.14713 0.44327 0.0
C218 C 0.74328 0.14758 0.44383 0.0
C219 C 0.89442 0.20457 0.45797 0.0
O220 O 0.91687 0.18075 0.42102 0.0
O221 O 0.86344 0.15183 0.41643 0.0
O222 O 0.96804 0.24917 0.40226 0.0
O223 O 0.96716 0.25023 0.43477 0.0
O224 O 0.91239 0.24396 0.3887 0.0
O225 O 0.88288 0.19828 0.39926 0.0
O226 O 0.8599 0.23711 0.42127 0.0
O227 O 0.91373 0.26834 0.42424 0.0
O228 O 0.8124 0.16927 0.44448 0.0
O229 O 0.80933 0.16572 0.41201 0.0
O230 O 0.87057 0.1768 0.45525 0.0
O231 O 0.89545 0.22217 0.44416 0.0
H232 H 0.03825 0.27771 0.43941 0.0
H233 H 0.07343 0.2564 0.44206 0.0
H234 H 1.0123 0.17986 0.40314 0.0
H235 H 0.97669 0.20074 0.4012 0.0
H236 H 0.77765 0.19326 0.40306 0.0
H237 H 0.72757 0.19232 0.40194 0.0
H238 H 0.69749 0.1341 0.45464 0.0
H239 H 0.74713 0.13443 0.45535 0.0
Ho240 Ho 0.10213 0.3205 0.64789 0.0
Ho241 Ho 0.17627 0.35424 0.63993 0.0
C242 C 0.13938 0.28141 0.64871 0.0
C243 C 0.04313 0.2864 0.64057 0.0
C244 C 0.02201 0.25228 0.64184 0.0
C245 C 0.03291 0.23174 0.63681 0.0
C246 C 1.01304 0.19947 0.63772 0.0
C247 C 0.98174 0.1869 0.64366 0.0
C248 C 0.97093 0.20747 0.649 0.0
C249 C 0.99093 0.23993 0.64807 0.0
C250 C 0.13468 0.33092 0.68258 0.0
C251 C 0.14218 0.39574 0.64821 0.0
C252 C 0.23653 0.38616 0.63735 0.0
C253 C 0.26501 0.41696 0.63937 0.0
C254 C 0.27028 0.43694 0.6557 0.0
C255 C 0.29916 0.46463 0.65782 0.0
C256 C 0.32312 0.47251 0.64374 0.0
C257 C 0.31719 0.45284 0.62714 0.0
C258 C 0.28848 0.4254 0.62502 0.0
C259 C 0.13637 0.3286 0.60866 0.0
O260 O 0.11282 0.28098 0.64449 0.0
O261 O 0.16654 0.30757 0.65046 0.0
O262 O 0.05396 0.30131 0.65755 0.0
O263 O 0.06469 0.29551 0.62678 0.0
O264 O 0.10432 0.3166 0.68161 0.0
O265 O 0.14492 0.33832 0.66511 0.0
O266 O 0.16845 0.39446 0.64703 0.0
O267 O 0.11372 0.37064 0.64734 0.0
O268 O 0.21777 0.3824 0.6224 0.0
O269 O 0.22173 0.37158 0.65365 0.0
O270 O 0.16154 0.32674 0.61081 0.0
O271 O 0.13403 0.34378 0.62296 0.0
H272 H 0.05678 0.24056 0.63198 0.0
H273 H 0.02226 0.18432 0.63381 0.0
H274 H 0.94685 0.19849 0.65348 0.0
H275 H 0.98208 0.25536 0.65205 0.0
H276 H 0.25245 0.43086 0.66697 0.0
H277 H 0.30308 0.47933 0.67078 0.0
H278 H 0.33491 0.45854 0.61584 0.0
H279 H 0.28484 0.41032 0.6123 0.0
Ho280 Ho 0.20095 0.84726 0.92766 0.0
Ho281 Ho 0.23513 0.92069 0.91853 0.0
C282 C 0.2745 0.88482 0.91539 0.0
C283 C 0.17701 0.78746 0.931 0.0
C284 C 0.17909 0.75928 0.92669 0.0
C285 C 0.1876 0.75337 0.90785 0.0
C286 C 0.18565 0.72449 0.90394 0.0
C287 C 0.17486 0.70112 0.91873 0.0
C288 C 0.16746 0.70773 0.93771 0.0
C289 C 0.16957 0.73647 0.94162 0.0
C290 C 0.21875 0.88773 0.95894 0.0
C291 C 0.15886 0.87909 0.92241 0.0
C292 C 0.25795 0.97943 0.92581 0.0
C293 C 0.24772 1.00259 0.92262 0.0
C294 C 0.24261 0.01655 0.93938 0.0
C295 C 0.23009 0.03624 0.93719 0.0
C296 C 0.22278 0.04275 0.91814 0.0
C297 C 0.22882 0.02961 0.90127 0.0
C298 C 0.24099 1.00949 0.90348 0.0
C299 C 0.21108 0.88739 0.88445 0.0
O300 O 0.24783 0.8577 0.91591 0.0
O301 O 0.27604 0.91225 0.91824 0.0
O302 O 0.19686 0.80751 0.94395 0.0
O303 O 0.17035 0.80069 0.91626 0.0
O304 O 0.19275 0.86119 0.95855 0.0
O305 O 0.2335 0.89084 0.94309 0.0
O306 O 0.18441 0.90707 0.92408 0.0
O307 O 0.15987 0.85289 0.92126 0.0
O308 O 0.26608 0.96904 0.91015 0.0
O309 O 0.24075 0.95727 0.93849 0.0
O310 O 0.22567 0.91775 0.88527 0.0
O311 O 0.21017 0.87718 0.90181 0.0
H312 H 0.19497 0.77066 0.89608 0.0
H313 H 0.1915 0.72003 0.88917 0.0
H314 H 0.15965 0.69047 0.94952 0.0
H315 H 0.16289 0.74057 0.95624 0.0
H316 H 0.24767 0.01163 0.95429 0.0
H317 H 0.2261 0.0464 0.95043 0.0
H318 H 0.22331 0.03422 0.88641 0.0
H319 H 0.2445 0.99892 0.89028 0.0
Ho320 Ho 0.70094 0.7909 0.64969 0.0
Ho321 Ho 0.66675 0.82457 0.63621 0.0
C322 C 0.73962 0.86653 0.6422 0.0
C323 C 0.7387 0.76895 0.65312 0.0
C324 C 0.77282 0.78176 0.65242 0.0
C325 C 0.78457 0.7631 0.64506 0.0
C326 C 0.81683 0.77462 0.64439 0.0
C327 C 0.83805 0.80509 0.65109 0.0
C328 C 0.82614 0.82396 0.65815 0.0
C329 C 0.79382 0.8124 0.6588 0.0
C330 C 0.67322 0.80456 0.67943 0.0
C331 C 0.62722 0.75059 0.6457 0.0
C332 C 0.63215 0.84959 0.62996 0.0
C333 C 0.60151 0.8473 0.63312 0.0
C334 C 0.58513 0.83695 0.65122 0.0
C335 C 0.55825 0.83925 0.6545 0.0
C336 C 0.54757 0.85218 0.6398 0.0
C337 C 0.5634 0.86126 0.62145 0.0
C338 C 0.59005 0.85883 0.61817 0.0
C339 C 0.69343 0.80763 0.60693 0.0
O340 O 0.74072 0.84035 0.64396 0.0
O341 O 0.71301 0.86654 0.64111 0.0
O342 O 0.72789 0.77719 0.66837 0.0
O343 O 0.72547 0.76937 0.63627 0.0
O344 O 0.67483 0.77916 0.67841 0.0
O345 O 0.68789 0.82263 0.66505 0.0
O346 O 0.62755 0.77758 0.64598 0.0
O347 O 0.65335 0.74935 0.64418 0.0
O348 O 0.63353 0.82981 0.61758 0.0
O349 O 0.65047 0.85584 0.64551 0.0
O350 O 0.69321 0.83377 0.6069 0.0
O351 O 0.67869 0.79184 0.62184 0.0
H352 H 0.76875 0.73953 0.63986 0.0
H353 H 0.82516 0.75964 0.63852 0.0
H354 H 0.84176 0.84743 0.66358 0.0
H355 H 0.78522 0.82726 0.66446 0.0
H356 H 0.59361 0.82801 0.663 0.0
H357 H 0.54658 0.8321 0.66881 0.0
H358 H 0.55546 0.87074 0.60969 0.0
H359 H 0.60235 0.86696 0.60411 0.0
Ho360 Ho 0.17598 0.35655 0.9242 0.0
Ho361 Ho 0.10189 0.31902 0.91631 0.0
C362 C 0.13935 0.39399 0.91302 0.0
C363 C 0.23607 0.39201 0.92583 0.0
C364 C 0.26315 0.4218 0.91913 0.0
C365 C 0.28498 0.42098 0.90608 0.0
C366 C 0.31352 0.44802 0.90229 0.0
C367 C 0.321 0.47648 0.91161 0.0
C368 C 0.29849 0.47763 0.92389 0.0
C369 C 0.26988 0.45056 0.92765 0.0
C370 C 0.13726 0.33385 0.95619 0.0
C371 C 0.14186 0.28272 0.91816 0.0
C372 C 0.04299 0.28495 0.92361 0.0
C373 C 0.01935 0.25237 0.91938 0.0
C374 C 0.99255 0.23773 0.93128 0.0
C375 C 0.97194 0.20562 0.9295 0.0
C376 C 0.97776 0.18751 0.91575 0.0
C377 C 1.00439 0.20253 0.90349 0.0
C378 C 0.0251 0.2347 0.90536 0.0
C379 C 0.1338 0.32789 0.8817 0.0
O380 O 0.16601 0.3935 0.91271 0.0
O381 O 0.11178 0.36875 0.9166 0.0
O382 O 0.21691 0.39331 0.93882 0.0
O383 O 0.22179 0.36973 0.91252 0.0
O384 O 0.16371 0.33425 0.95501 0.0
O385 O 0.13342 0.346 0.94076 0.0
O386 O 0.11445 0.28108 0.92115 0.0
O387 O 0.16844 0.30948 0.91649 0.0
O388 O 0.05384 0.30408 0.90831 0.0
O389 O 0.06498 0.288 0.93596 0.0
O390 O 0.10345 0.31246 0.88284 0.0
O391 O 0.14445 0.33691 0.89899 0.0
H392 H 0.28055 0.39912 0.89942 0.0
H393 H 0.33011 0.44644 0.89248 0.0
H394 H 0.30357 0.49908 0.93144 0.0
H395 H 0.2537 0.45197 0.93792 0.0
H396 H 0.98813 0.25094 0.94246 0.0
H397 H 0.95207 0.19483 0.93948 0.0
H398 H 1.00943 0.18939 0.89263 0.0
H399 H 0.04603 0.24561 0.89627 0.0
Ho400 Ho 0.23575 0.92312 0.6496 0.0
Ho401 Ho 0.20277 0.84937 0.64127 0.0
C402 C 0.15955 0.88014 0.64576 0.0
C403 C 0.2577 0.98157 0.64203 0.0
C404 C 0.24718 1.00439 0.64541 0.0
C405 C 0.24361 0.01977 0.62885 0.0
C406 C 0.23042 0.03887 0.63106 0.0
C407 C 0.22084 0.04326 0.64994 0.0
C408 C 0.22533 0.0287 0.66666 0.0
C409 C 0.23817 1.00918 0.66441 0.0
C410 C 0.21285 0.89051 0.68398 0.0
C411 C 0.27646 0.88878 0.65327 0.0
C412 C 0.18083 0.78964 0.6396 0.0
C413 C 0.18447 0.7631 0.6465 0.0
C414 C 0.16451 0.74296 0.66136 0.0
C415 C 0.16335 0.71461 0.66539 0.0
C416 C 0.18197 0.70561 0.65455 0.0
C417 C 0.20308 0.72648 0.64039 0.0
C418 C 0.20425 0.75486 0.63636 0.0
C419 C 0.2191 0.88867 0.60949 0.0
O420 O 0.18474 0.90833 0.64393 0.0
O421 O 0.16115 0.85428 0.64724 0.0
O422 O 0.26664 0.9717 0.6576 0.0
O423 O 0.24014 0.95907 0.62954 0.0
O424 O 0.2267 0.92082 0.68292 0.0
O425 O 0.21206 0.8801 0.6667 0.0
O426 O 0.25005 0.86142 0.65344 0.0
O427 O 0.27729 0.91572 0.64981 0.0
O428 O 0.20141 0.80949 0.62695 0.0
O429 O 0.17133 0.80302 0.65258 0.0
O430 O 0.19379 0.86152 0.60999 0.0
O431 O 0.23415 0.89267 0.6254 0.0
H432 H 0.25031 0.01634 0.61406 0.0
H433 H 0.22759 0.05015 0.61797 0.0
H434 H 0.21802 0.03164 0.68137 0.0
H435 H 0.24035 0.99734 0.67741 0.0
H436 H 0.14874 0.74845 0.6693 0.0
H437 H 0.14718 0.6993 0.67661 0.0
H438 H 0.21755 0.72018 0.63162 0.0
H439 H 0.21962 0.7696 0.62463 0.0
Ho440 Ho 0.66766 0.8248 0.9288 0.0
Ho441 Ho 0.70121 0.79087 0.91508 0.0
C442 C 0.62748 0.75094 0.91887 0.0
C443 C 0.6334 0.85005 0.93559 0.0
C444 C 0.60255 0.8474 0.93261 0.0
C445 C 0.5854 0.83593 0.91478 0.0
C446 C 0.55808 0.83751 0.91166 0.0
C447 C 0.54764 0.85076 0.92626 0.0
C448 C 0.56435 0.86108 0.94435 0.0
C449 C 0.59148 0.85942 0.94746 0.0
C450 C 0.69463 0.80768 0.95788 0.0
C451 C 0.74022 0.86661 0.92207 0.0
C452 C 0.73878 0.76876 0.91169 0.0
C453 C 0.7729 0.78167 0.91275 0.0
C454 C 0.78467 0.76315 0.92035 0.0
C455 C 0.81695 0.7748 0.92139 0.0
C456 C 0.83815 0.80529 0.91481 0.0
C457 C 0.82622 0.82403 0.90751 0.0
C458 C 0.79389 0.81232 0.9065 0.0
C459 C 0.67307 0.80454 0.88545 0.0
O460 O 0.62807 0.77805 0.91893 0.0
O461 O 0.65349 0.74941 0.92018 0.0
O462 O 0.63522 0.83042 0.94786 0.0
O463 O 0.65124 0.85615 0.91989 0.0
O464 O 0.69501 0.83412 0.95791 0.0
O465 O 0.67949 0.79188 0.943 0.0
O466 O 0.74127 0.84034 0.92092 0.0
O467 O 0.71354 0.86648 0.92292 0.0
O468 O 0.72821 0.77734 0.89644 0.0
O469 O 0.72525 0.76873 0.92845 0.0
O470 O 0.67463 0.77911 0.88638 0.0
O471 O 0.68814 0.82263 0.89981 0.0
H472 H 0.59357 0.82659 0.90309 0.0
H473 H 0.54578 0.82943 0.89755 0.0
H474 H 0.55664 0.87082 0.95605 0.0
H475 H 0.60437 0.86839 0.96132 0.0
H476 H 0.76886 0.73957 0.92545 0.0
H477 H 0.8253 0.75993 0.92743 0.0
H478 H 0.84183 0.84749 0.90217 0.0
H479 H 0.78529 0.8271 0.90066 0.0
C480 C 0.10345 0.22793 0.14817 0.0
C481 C 0.07123 0.20683 0.15013 0.0
C482 C 0.12465 0.21711 0.14646 0.0
C483 C 0.13559 0.1499 0.157 0.0
H484 H 0.20477 0.19279 0.12018 0.0
C485 C 0.2353 0.11912 0.14565 0.0
C486 C 0.26562 0.14544 0.14554 0.0
C487 C 0.20884 0.12287 0.14527 0.0
C488 C 0.18562 0.18058 0.13056 0.0
H489 H 0.0361 0.15768 0.15204 0.0
H490 H 0.07329 0.13873 0.14886 0.0
H491 H 0.16371 0.20643 0.12113 0.0
H492 H 0.29161 0.19633 0.14544 0.0
H493 H 0.24609 0.20257 0.14482 0.0
H494 H 0.15812 0.12443 0.16663 0.0
C495 C 0.08206 0.1637 0.14874 0.0
C496 C 0.16212 0.18846 0.13114 0.0
C497 C 0.06075 0.17455 0.15037 0.0
C498 C 0.26878 0.1754 0.14536 0.0
C499 C 0.24258 0.17907 0.14487 0.0
C500 C 0.15923 0.14196 0.1564 0.0
C501 C 0.11426 0.18489 0.14665 0.0
C502 C 0.13725 0.17384 0.14472 0.0
C503 C 0.21231 0.15296 0.14459 0.0
C504 C 0.18493 0.15787 0.14355 0.0
H505 H 0.11232 0.2529 0.14772 0.0
H506 H 0.14933 0.23412 0.14517 0.0
H507 H 0.11677 0.13823 0.16766 0.0
H508 H 0.23199 0.09572 0.14586 0.0
H509 H 0.18574 0.10229 0.1451 0.0
C510 C 0.13559 0.96979 0.41895 0.0
C511 C 0.15703 0.95951 0.41491 0.0
C512 C 0.10333 0.9485 0.4193 0.0
C513 C 0.0452 0.87083 0.40003 0.0
H514 H 0.99175 0.86909 0.44301 0.0
C515 C 0.9288 0.7616 0.41653 0.0
C516 C 0.90235 0.76423 0.42099 0.0
C517 C 0.95833 0.78806 0.41508 0.0
C518 C 1.00627 0.86964 0.43073 0.0
H519 H 0.1612 0.9185 0.40902 0.0
H520 H 0.10528 0.88174 0.40934 0.0
H521 H 0.04675 0.91077 0.44199 0.0
H522 H 0.8865 0.79708 0.42767 0.0
H523 H 0.9387 0.84375 0.42523 0.0
H524 H 1.00521 0.82958 0.38891 0.0
C525 C 0.11332 0.9063 0.41187 0.0
C526 C 0.03774 0.89344 0.43016 0.0
C527 C 0.14543 0.92743 0.41164 0.0
C528 C 0.90635 0.79421 0.42418 0.0
C529 C 0.93621 0.8209 0.42285 0.0
C530 C 1.01391 0.84721 0.40057 0.0
C531 C 0.09186 0.91658 0.41549 0.0
C532 C 0.05772 0.89373 0.41509 0.0
C533 C 0.96245 0.81804 0.41807 0.0
C534 C 0.99431 0.84578 0.41622 0.0
H535 H 0.14367 0.99435 0.42139 0.0
H536 H 0.08733 0.95711 0.42208 0.0
H537 H 0.05979 0.87085 0.38795 0.0
H538 H 0.92682 0.739 0.41399 0.0
H539 H 0.97811 0.78497 0.41177 0.0
C540 C 0.91596 0.12275 0.14348 0.0
C541 C 0.89158 0.12676 0.15093 0.0
C542 C 0.91435 0.09366 0.14507 0.0
C543 C 0.87707 0.01997 0.17314 0.0
H544 H 0.87753 0.97984 0.12344 0.0
C545 C 0.81669 0.88638 0.16565 0.0
C546 C 0.82866 0.87317 0.15223 0.0
C547 C 0.82992 0.91882 0.1669 0.0
C548 C 0.87801 0.9908 0.13756 0.0
H549 H 0.84729 0.10418 0.16669 0.0
H550 H 0.84487 0.05393 0.16977 0.0
H551 H 0.89249 0.03497 0.1235 0.0
H552 H 0.86467 0.88337 0.13025 0.0
H553 H 0.88835 0.94006 0.13276 0.0
H554 H 0.86237 0.97597 0.18726 0.0
C555 C 0.86501 0.073 0.16257 0.0
C556 C 0.88658 0.02242 0.13754 0.0
C557 C 0.86628 0.10169 0.16063 0.0
C558 C 0.85471 0.893 0.14051 0.0
C559 C 0.8682 0.92546 0.14193 0.0
C560 C 0.86891 0.9885 0.17322 0.0
C561 C 0.88876 0.06854 0.15458 0.0
C562 C 0.88528 0.03699 0.15523 0.0
C563 C 0.8557 0.9388 0.15493 0.0
C564 C 0.86832 0.97323 0.15532 0.0
H565 H 0.93572 0.14174 0.13594 0.0
H566 H 0.93293 0.0907 0.13879 0.0
H567 H 0.87618 0.03083 0.18701 0.0
H568 H 0.79645 0.87159 0.17471 0.0
H569 H 0.81923 0.92813 0.1768 0.0
C570 C 0.23224 0.11663 0.42322 0.0
C571 C 0.26233 0.14325 0.42248 0.0
C572 C 0.20557 0.11993 0.42458 0.0
C573 C 0.18281 0.1776 0.44037 0.0
H574 H 0.11114 0.13375 0.40516 0.0
C575 C 0.10059 0.22507 0.42367 0.0
C576 C 0.0681 0.20427 0.42361 0.0
C577 C 0.12157 0.21393 0.42486 0.0
C578 C 0.1308 0.14583 0.41529 0.0
H579 H 0.28769 0.19412 0.42212 0.0
H580 H 0.24185 0.1996 0.42439 0.0
H581 H 0.15259 0.12 0.40507 0.0
H582 H 0.03235 0.15519 0.42461 0.0
H583 H 0.06926 0.13574 0.42633 0.0
H584 H 0.16175 0.20403 0.45021 0.0
C585 C 0.23868 0.17623 0.42427 0.0
C586 C 0.15446 0.13792 0.41526 0.0
C587 C 0.26504 0.173 0.42283 0.0
C588 C 0.0572 0.17191 0.42442 0.0
C589 C 0.0783 0.16072 0.42546 0.0
C590 C 0.15935 0.18553 0.44035 0.0
C591 C 0.20866 0.14986 0.4254 0.0
C592 C 0.18117 0.15441 0.42739 0.0
C593 C 0.11072 0.18167 0.42589 0.0
C594 C 0.13352 0.17039 0.42742 0.0
H595 H 0.22932 0.09338 0.42294 0.0
H596 H 0.18267 0.09916 0.42538 0.0
H597 H 0.20275 0.19026 0.45022 0.0
H598 H 0.10992 0.25007 0.42256 0.0
H599 H 0.14643 0.23066 0.42473 0.0
C600 C 0.14058 0.96514 0.14987 0.0
C601 C 0.16194 0.95443 0.15288 0.0
C602 C 0.10835 0.94398 0.14877 0.0
C603 C 0.05388 0.86212 0.13589 0.0
H604 H 0.99105 0.87224 0.16431 0.0
C605 C 0.93103 0.7594 0.14709 0.0
C606 C 0.90495 0.76361 0.1452 0.0
C607 C 0.9613 0.78488 0.14706 0.0
C608 C 1.00828 0.86938 0.15602 0.0
H609 H 0.16586 0.91317 0.15821 0.0
H610 H 0.1099 0.87639 0.15601 0.0
H611 H 0.04635 0.91291 0.16676 0.0
H612 H 0.8905 0.79831 0.14203 0.0
H613 H 0.94401 0.84328 0.14186 0.0
H614 H 0.01627 0.81877 0.12517 0.0
C615 C 0.11812 0.90111 0.15419 0.0
C616 C 0.03991 0.89258 0.15748 0.0
C617 C 0.1502 0.9222 0.15542 0.0
C618 C 0.91005 0.79423 0.14345 0.0
C619 C 0.94065 0.81996 0.14344 0.0
C620 C 0.02245 0.83916 0.13434 0.0
C621 C 0.09688 0.91169 0.1505 0.0
C622 C 0.06308 0.88874 0.14782 0.0
C623 C 0.9666 0.81545 0.14506 0.0
C624 C 0.99933 0.84205 0.1448 0.0
H625 H 0.14879 0.98977 0.14764 0.0
H626 H 0.09252 0.95277 0.14585 0.0
H627 H 0.07111 0.85889 0.12787 0.0
H628 H 0.92825 0.7363 0.14866 0.0
H629 H 0.98067 0.78056 0.14881 0.0
C630 C 0.81593 0.88339 0.40148 0.0
C631 C 0.82486 0.86972 0.4166 0.0
C632 C 0.82965 0.91591 0.40029 0.0
C633 C 0.87289 0.98746 0.43134 0.0
H634 H 0.88165 0.02864 0.3805 0.0
C635 C 0.9145 0.11987 0.425 0.0
C636 C 0.89222 0.12474 0.415 0.0
C637 C 0.91281 0.09067 0.42392 0.0
C638 C 0.87957 0.01746 0.39479 0.0
H639 H 0.85609 0.87923 0.44178 0.0
H640 H 0.8807 0.93598 0.43943 0.0
H641 H 0.86634 0.97338 0.38113 0.0
H642 H 0.85207 0.10388 0.39507 0.0
H643 H 0.84961 0.0535 0.39285 0.0
H644 H 0.88591 0.03168 0.44492 0.0
C645 C 0.86244 0.9217 0.42883 0.0
C646 C 0.87052 0.98574 0.39519 0.0
C647 C 0.84842 0.88919 0.43016 0.0
C648 C 0.86939 0.10067 0.40309 0.0
C649 C 0.86811 0.0719 0.40168 0.0
C650 C 0.88233 0.01929 0.43091 0.0
C651 C 0.85297 0.93552 0.41404 0.0
C652 C 0.86617 0.97008 0.41349 0.0
C653 C 0.88934 0.06634 0.4124 0.0
C654 C 0.88491 0.03436 0.41266 0.0
H655 H 0.79765 0.8689 0.39093 0.0
H656 H 0.82127 0.92557 0.38893 0.0
H657 H 0.86946 0.97623 0.44574 0.0
H658 H 0.93233 0.13809 0.43428 0.0
H659 H 0.92948 0.08693 0.43229 0.0
C660 C 0.18159 0.05825 0.63886 0.0
C661 C 0.20576 0.06264 0.65197 0.0
C662 C 0.16822 0.07736 0.6401 0.0
C663 C 0.16328 0.13612 0.67277 0.0
H664 H 0.14614 0.16425 0.62267 0.0
C665 C 0.1624 0.25125 0.6636 0.0
C666 C 0.13929 0.25171 0.65153 0.0
C667 C 0.16444 0.22417 0.66526 0.0
C668 C 0.15026 0.15618 0.63679 0.0
H669 H 0.23466 0.09009 0.67682 0.0
H670 H 0.21211 0.12417 0.67867 0.0
H671 H 0.16196 0.12476 0.6224 0.0
H672 H 0.09957 0.22398 0.63215 0.0
H673 H 0.1036 0.17645 0.63471 0.0
H674 H 0.15311 0.16894 0.687 0.0
C675 C 0.20281 0.10548 0.66772 0.0
C676 C 0.15932 0.13349 0.63668 0.0
C677 C 0.2159 0.08609 0.66662 0.0
C678 C 0.11758 0.22422 0.64158 0.0
C679 C 0.11997 0.19715 0.64297 0.0
C680 C 0.15457 0.15907 0.67285 0.0
C681 C 0.17898 0.10156 0.65434 0.0
C682 C 0.16653 0.12357 0.65465 0.0
C683 C 0.14366 0.19703 0.65467 0.0
C684 C 0.14853 0.16972 0.65484 0.0
H685 H 0.173 0.03998 0.62762 0.0
H686 H 0.14951 0.07318 0.62983 0.0
H687 H 0.16793 0.12858 0.68693 0.0
H688 H 0.17929 0.27202 0.67159 0.0
H689 H 0.18311 0.22487 0.67423 0.0
C690 C 0.10128 0.84739 0.91633 0.0
C691 C 0.12754 0.87641 0.92122 0.0
C692 C 0.07164 0.84415 0.91476 0.0
C693 C 0.02301 0.87636 0.93114 0.0
H694 H 0.97036 0.82684 0.88698 0.0
C695 C 0.894 0.84805 0.92058 0.0
C696 C 0.87246 0.81703 0.91504 0.0
C697 C 0.92623 0.85885 0.92062 0.0
C698 C 0.98465 0.84055 0.89948 0.0
H699 H 0.14296 0.92483 0.92849 0.0
H700 H 0.09055 0.91895 0.92591 0.0
H701 H 0.0249 0.83993 0.88829 0.0
H702 H 0.8681 0.77324 0.90494 0.0
H703 H 0.92391 0.79174 0.90543 0.0
H704 H 0.98234 0.8762 0.94259 0.0
C705 C 0.09329 0.89879 0.92327 0.0
C706 C 0.01594 0.84814 0.90019 0.0
C707 C 0.12325 0.90216 0.92468 0.0
C708 C 0.88393 0.79714 0.90953 0.0
C709 C 0.91603 0.8079 0.90954 0.0
C710 C 0.99152 0.86865 0.93046 0.0
C711 C 0.06724 0.86975 0.91811 0.0
C712 C 0.03528 0.86545 0.91626 0.0
C713 C 0.93762 0.83891 0.915 0.0
C714 C 0.97179 0.84998 0.91486 0.0
H715 H 0.1035 0.82696 0.91355 0.0
H716 H 0.052 0.82134 0.91111 0.0
H717 H 0.03733 0.88962 0.94375 0.0
H718 H 0.88594 0.86392 0.92508 0.0
H719 H 0.94224 0.88289 0.92481 0.0
C720 C 0.76782 0.92258 0.63247 0.0
C721 C 0.76876 0.89714 0.64114 0.0
C722 C 0.7944 0.95213 0.6321 0.0
C723 C 0.86652 1.00239 0.65868 0.0
H724 H 0.88598 0.05329 0.61095 0.0
C725 C 0.93918 0.13773 0.65942 0.0
C726 C 0.96044 0.15247 0.64373 0.0
C727 C 0.91905 0.10531 0.65924 0.0
C728 C 0.88116 0.03934 0.62435 0.0
H729 H 0.79854 0.88265 0.656 0.0
H730 H 0.84539 0.93499 0.65563 0.0
H731 H 0.84578 0.99827 0.60964 0.0
H732 H 0.97717 0.1447 0.61555 0.0
H733 H 0.94229 0.08826 0.61534 0.0
H734 H 0.90154 0.04379 0.67349 0.0
C735 C 0.82385 0.93172 0.64907 0.0
C736 C 0.858 1.00788 0.62362 0.0
C737 C 0.79716 0.90182 0.64919 0.0
C738 C 0.96128 0.13406 0.62796 0.0
C739 C 0.94112 0.10174 0.62775 0.0
C740 C 0.88961 0.03403 0.65946 0.0
C741 C 0.82262 0.95714 0.64053 0.0
C742 C 0.85003 0.98922 0.64084 0.0
C743 C 0.91964 0.08701 0.64331 0.0
C744 C 0.89683 0.05294 0.64236 0.0
H745 H 0.74638 0.91976 0.62601 0.0
H746 H 0.79264 0.97131 0.62562 0.0
H747 H 0.86068 0.98857 0.67221 0.0
H748 H 0.93819 0.15124 0.67186 0.0
H749 H 0.90252 0.09468 0.67134 0.0
C750 C 0.12079 0.22546 0.92489 0.0
C751 C 0.14333 0.25365 0.91613 0.0
C752 C 0.12392 0.19877 0.92377 0.0
C753 C 0.16213 0.16325 0.89527 0.0
H754 H 0.16335 0.12427 0.94526 0.0
C755 C 0.22073 0.08779 0.90238 0.0
C756 C 0.20862 0.06297 0.91606 0.0
C757 C 0.20843 0.10788 0.90128 0.0
C758 C 0.16248 0.13435 0.93108 0.0
H759 H 0.18592 0.27561 0.89855 0.0
H760 H 0.19102 0.22919 0.89639 0.0
H761 H 0.14802 0.16419 0.94501 0.0
H762 H 0.17328 0.03877 0.93867 0.0
H763 H 0.15119 0.0732 0.93641 0.0
H764 H 0.17663 0.13364 0.88126 0.0
C765 C 0.17112 0.22767 0.90423 0.0
C766 C 0.15371 0.15728 0.93098 0.0
C767 C 0.16832 0.25434 0.90564 0.0
C768 C 0.18337 0.05805 0.9282 0.0
C769 C 0.1708 0.07787 0.92694 0.0
C770 C 0.17054 0.14008 0.89531 0.0
C771 C 0.14923 0.19973 0.91348 0.0
C772 C 0.15416 0.17245 0.91315 0.0
C773 C 0.18344 0.10334 0.91367 0.0
C774 C 0.17156 0.12582 0.91329 0.0
H775 H 0.10129 0.22427 0.93305 0.0
H776 H 0.10668 0.17744 0.93099 0.0
H777 H 0.16234 0.17436 0.88127 0.0
H778 H 0.24037 0.09226 0.89297 0.0
H779 H 0.21919 0.12751 0.89112 0.0
C780 C 0.102 0.84778 0.65163 0.0
C781 C 0.12798 0.87691 0.64672 0.0
C782 C 0.07215 0.84411 0.65296 0.0
C783 C 0.02285 0.87553 0.63595 0.0
H784 H 0.97013 0.82599 0.67979 0.0
C785 C 0.89402 0.84765 0.64572 0.0
C786 C 0.87234 0.8167 0.65119 0.0
C787 C 0.92623 0.85829 0.6459 0.0
C788 C 0.98443 0.83968 0.66737 0.0
H789 H 0.1427 0.92505 0.63917 0.0
H790 H 0.09002 0.91842 0.64136 0.0
H791 H 0.0247 0.83914 0.6788 0.0
H792 H 0.86771 0.77289 0.66142 0.0
H793 H 0.92348 0.79111 0.66131 0.0
H794 H 0.98221 0.87535 0.62427 0.0
C795 C 0.09308 0.89851 0.64418 0.0
C796 C 0.01575 0.8473 0.66684 0.0
C797 C 0.12322 0.9023 0.64301 0.0
C798 C 0.88366 0.79674 0.65688 0.0
C799 C 0.91573 0.80734 0.65708 0.0
C800 C 0.99136 0.86779 0.63644 0.0
C801 C 0.06729 0.86937 0.64935 0.0
C802 C 0.03515 0.86468 0.65091 0.0
C803 C 0.93746 0.83826 0.65166 0.0
C804 C 0.97161 0.84915 0.65194 0.0
H805 H 0.10459 0.82763 0.6546 0.0
H806 H 0.05273 0.82123 0.65663 0.0
H807 H 0.03719 0.88883 0.62343 0.0
H808 H 0.8861 0.86358 0.6411 0.0
H809 H 0.94233 0.88228 0.64174 0.0
C810 C 0.96902 0.13276 0.91276 0.0
C811 C 0.95677 0.15298 0.91498 0.0
C812 C 0.94939 0.10028 0.91379 0.0
C813 C 0.87585 0.04256 0.93632 0.0
H814 H 0.87139 0.98395 0.89598 0.0
C815 C 0.76711 0.92433 0.92642 0.0
C816 C 0.7693 0.89748 0.92254 0.0
C817 C 0.79367 0.95381 0.92669 0.0
C818 C 0.87286 0.99996 0.90757 0.0
H819 H 0.91396 0.15466 0.91886 0.0
H820 H 0.88002 0.09825 0.92112 0.0
H821 H 0.91124 0.03955 0.89337 0.0
H822 H 0.80145 0.88074 0.91593 0.0
H823 H 0.84846 0.93303 0.91631 0.0
H824 H 0.8374 1.00353 0.9504 0.0
C825 C 0.90486 0.10758 0.91882 0.0
C826 C 0.89552 0.03172 0.90603 0.0
C827 C 0.92433 0.1399 0.91758 0.0
C828 C 0.79898 0.90095 0.91897 0.0
C829 C 0.82582 0.93082 0.91913 0.0
C830 C 0.85351 0.01099 0.93794 0.0
C831 C 0.91724 0.08748 0.91729 0.0
C832 C 0.89642 0.0534 0.92003 0.0
C833 C 0.82334 0.9575 0.92312 0.0
C834 C 0.85096 0.98953 0.92321 0.0
H835 H 0.99393 0.14201 0.91094 0.0
H836 H 0.95947 0.08524 0.91258 0.0
H837 H 0.87653 0.0587 0.94756 0.0
H838 H 0.74475 0.92275 0.92924 0.0
H839 H 0.79083 0.9739 0.9294 0.0
C840 C 0.35098 0.1774 0.35907 0.0
C841 C 0.36563 0.16079 0.36559 0.0
C842 C 0.3546 0.18801 0.33924 0.0
C843 C 0.40133 0.19954 0.29279 0.0
H844 H 0.32255 0.17234 0.2653 0.0
C845 C 0.3773 0.15297 0.21282 0.0
C846 C 0.35706 0.15764 0.20043 0.0
C847 C 0.38383 0.16506 0.23221 0.0
C848 C 0.3449 0.18083 0.27273 0.0
H849 H 0.3971 0.14414 0.35712 0.0
H850 H 0.40364 0.16267 0.3229 0.0
H851 H 0.324 0.17263 0.30173 0.0
H852 H 0.32832 0.17922 0.19812 0.0
H853 H 0.33946 0.20035 0.23238 0.0
H854 H 0.42186 0.206 0.26376 0.0
C855 C 0.3894 0.16767 0.33284 0.0
C856 C 0.34575 0.18101 0.29367 0.0
C857 C 0.3855 0.15685 0.35245 0.0
C858 C 0.34451 0.1759 0.20736 0.0
C859 C 0.35063 0.18765 0.22698 0.0
C860 C 0.40046 0.19927 0.27189 0.0
C861 C 0.3733 0.18258 0.32575 0.0
C862 C 0.37374 0.18914 0.30395 0.0
C863 C 0.3697 0.18159 0.23981 0.0
C864 C 0.37202 0.18873 0.26161 0.0
H865 H 0.33543 0.18065 0.36891 0.0
H866 H 0.34206 0.19962 0.3343 0.0
H867 H 0.42342 0.20657 0.30022 0.0
H868 H 0.38678 0.13848 0.20785 0.0
H869 H 0.39823 0.15953 0.2417 0.0
C870 C 0.83042 0.66002 0.36021 0.0
C871 C 0.83222 0.68846 0.36539 0.0
C872 C 0.83851 0.6556 0.34082 0.0
C873 C 0.87988 0.69822 0.29489 0.0
H874 H 0.81021 0.63242 0.26547 0.0
C875 C 0.84691 0.7147 0.21682 0.0
C876 C 0.83473 0.69036 0.20276 0.0
C877 C 0.85511 0.71011 0.23593 0.0
C878 C 0.83031 0.65038 0.27347 0.0
H879 H 0.84547 0.73501 0.35512 0.0
H880 H 0.86054 0.72785 0.32186 0.0
H881 H 0.80962 0.63202 0.30204 0.0
H882 H 0.82236 0.64231 0.19726 0.0
H883 H 0.83595 0.63378 0.23133 0.0
H884 H 0.89958 0.71778 0.26642 0.0
C885 C 0.85275 0.70882 0.33245 0.0
C886 C 0.82996 0.65015 0.29443 0.0
C887 C 0.84398 0.7129 0.35148 0.0
C888 C 0.83203 0.66151 0.20786 0.0
C889 C 0.83961 0.65662 0.22732 0.0
C890 C 0.88025 0.69843 0.27402 0.0
C891 C 0.84934 0.6799 0.32667 0.0
C892 C 0.85398 0.67499 0.30531 0.0
C893 C 0.85076 0.68081 0.24164 0.0
C894 C 0.85469 0.67544 0.26308 0.0
H895 H 0.82107 0.64074 0.37069 0.0
H896 H 0.83556 0.63304 0.33673 0.0
H897 H 0.89892 0.71743 0.30289 0.0
H898 H 0.84909 0.73712 0.21324 0.0
H899 H 0.86315 0.7291 0.24662 0.0
C900 C 0.87043 0.234 0.2137 0.0
C901 C 0.86784 0.2104 0.20081 0.0
C902 C 0.85953 0.22702 0.23327 0.0
C903 C 0.84985 0.1722 0.27272 0.0
H904 H 0.82081 0.22044 0.30224 0.0
C905 C 0.85443 0.17843 0.35918 0.0
C906 C 0.87074 0.20949 0.36606 0.0
C907 C 0.8436 0.17186 0.33937 0.0
C908 C 0.8287 0.2066 0.29421 0.0
H909 H 0.85021 0.16065 0.19779 0.0
H910 H 0.83118 0.14829 0.23233 0.0
H911 H 0.81951 0.22026 0.26577 0.0
H912 H 0.88683 0.25772 0.35824 0.0
H913 H 0.86773 0.24638 0.32397 0.0
H914 H 0.8604 0.15974 0.30117 0.0
C915 C 0.84176 0.17227 0.22724 0.0
C916 C 0.82798 0.2065 0.27332 0.0
C917 C 0.85241 0.17927 0.20746 0.0
C918 C 0.8744 0.23358 0.35327 0.0
C919 C 0.86325 0.22703 0.33367 0.0
C920 C 0.85048 0.17223 0.29364 0.0
C921 C 0.84596 0.19624 0.24052 0.0
C922 C 0.8398 0.1904 0.26232 0.0
C923 C 0.84843 0.19621 0.3263 0.0
C924 C 0.84115 0.1905 0.30459 0.0
H925 H 0.88219 0.25819 0.2089 0.0
H926 H 0.86354 0.24616 0.24308 0.0
H927 H 0.85935 0.15973 0.26474 0.0
H928 H 0.85135 0.15943 0.36878 0.0
H929 H 0.83214 0.14788 0.33414 0.0
C930 C 0.17964 0.36147 0.70622 0.0
C931 C 0.15232 0.33365 0.70097 0.0
C932 C 0.19218 0.36525 0.7256 0.0
C933 C 0.18859 0.32135 0.77163 0.0
H934 H 0.18829 0.38915 0.80073 0.0
C935 C 0.13788 0.30727 0.84895 0.0
C936 C 0.15129 0.33131 0.86318 0.0
C937 C 0.15087 0.31126 0.82999 0.0
C938 C 0.18942 0.37058 0.79283 0.0
H939 H 0.11788 0.28743 0.71103 0.0
H940 H 0.14008 0.29344 0.74428 0.0
H941 H 0.18861 0.38966 0.76417 0.0
H942 H 0.1893 0.37816 0.86915 0.0
H943 H 0.21176 0.38576 0.8353 0.0
H944 H 0.18705 0.30111 0.80019 0.0
C945 C 0.15186 0.31249 0.73377 0.0
C946 C 0.18961 0.37087 0.77187 0.0
C947 C 0.13901 0.30907 0.71475 0.0
C948 C 0.17876 0.3592 0.8584 0.0
C949 C 0.19145 0.36357 0.83908 0.0
C950 C 0.18839 0.32105 0.79251 0.0
C951 C 0.17802 0.34089 0.73967 0.0
C952 C 0.18748 0.3454 0.76109 0.0
C953 C 0.17727 0.33971 0.8246 0.0
C954 C 0.18709 0.34481 0.80331 0.0
H955 H 0.19007 0.38084 0.69582 0.0
H956 H 0.21232 0.3874 0.72977 0.0
H957 H 0.18742 0.30163 0.76372 0.0
H958 H 0.11665 0.28557 0.8523 0.0
H959 H 0.13909 0.29261 0.81915 0.0
C960 C 0.18418 0.88123 0.85226 0.0
C961 C 0.1973 0.86949 0.86593 0.0
C962 C 0.17634 0.86904 0.83297 0.0
C963 C 0.20332 0.83698 0.79454 0.0
H964 H 0.13383 0.83414 0.76541 0.0
C965 C 0.20243 0.84679 0.70773 0.0
C966 C 0.1995 0.87279 0.70255 0.0
C967 C 0.19493 0.83439 0.72718 0.0
C968 C 0.15316 0.83439 0.77332 0.0
H969 H 0.21178 0.83517 0.87055 0.0
H970 H 0.19872 0.81406 0.83622 0.0
H971 H 0.13309 0.83308 0.80187 0.0
H972 H 0.18489 0.90505 0.71291 0.0
H973 H 0.17083 0.88299 0.74625 0.0
H974 H 0.22424 0.84031 0.76589 0.0
C975 C 0.19405 0.83244 0.84065 0.0
C976 C 0.15276 0.83381 0.7942 0.0
C977 C 0.20128 0.84429 0.86028 0.0
C978 C 0.18724 0.88492 0.71654 0.0
C979 C 0.17906 0.87216 0.73563 0.0
C980 C 0.2037 0.83751 0.77357 0.0
C981 C 0.18203 0.84516 0.82668 0.0
C982 C 0.17854 0.83673 0.80507 0.0
C983 C 0.18357 0.84733 0.7414 0.0
C984 C 0.17931 0.83782 0.76279 0.0
H985 H 0.18109 0.90081 0.85625 0.0
H986 H 0.1676 0.87975 0.82259 0.0
H987 H 0.22361 0.83941 0.80245 0.0
H988 H 0.21219 0.8373 0.69721 0.0
H989 H 0.19871 0.81529 0.73125 0.0
C990 C 0.63826 0.79137 0.70848 0.0
C991 C 0.66475 0.8138 0.69827 0.0
C992 C 0.63374 0.79584 0.7285 0.0
C993 C 0.66354 0.85093 0.77192 0.0
H994 H 0.64118 0.77425 0.80041 0.0
C995 C 0.68555 0.84196 0.85704 0.0
C996 C 0.66465 0.81387 0.8666 0.0
C997 C 0.68138 0.84624 0.83675 0.0
C998 C 0.64681 0.79578 0.7928 0.0
H999 H 0.70636 0.85941 0.70034 0.0
H1000 H 0.69906 0.86699 0.73577 0.0
H1001 H 0.64121 0.7742 0.76438 0.0
H1002 H 0.62162 0.76973 0.8634 0.0
H1003 H 0.61338 0.77772 0.8285 0.0
H1004 H 0.67006 0.87255 0.80081 0.0
C1005 C 0.68136 0.84621 0.72821 0.0
C1006 C 0.64682 0.79576 0.772 0.0
C1007 C 0.68556 0.84194 0.70793 0.0
C1008 C 0.63809 0.79153 0.85626 0.0
C1009 C 0.6336 0.79601 0.83622 0.0
C1010 C 0.66353 0.85095 0.79294 0.0
C1011 C 0.65613 0.82248 0.73895 0.0
C1012 C 0.65506 0.82322 0.76121 0.0
C1013 C 0.65608 0.82258 0.82588 0.0
C1014 C 0.65504 0.82327 0.80362 0.0
H1015 H 0.62187 0.76953 0.70126 0.0
H1016 H 0.61355 0.7775 0.73612 0.0
H1017 H 0.67006 0.8725 0.76408 0.0
H1018 H 0.70641 0.85937 0.86473 0.0
H1019 H 0.69914 0.86698 0.82927 0.0
C1020 C 0.25993 0.93754 0.97446 0.0
C1021 C 0.22942 0.91168 0.97498 0.0
C1022 C 0.26996 0.96128 0.98879 0.0
C1023 C 0.27664 0.01646 1.01353 0.0
H1024 H 0.26676 0.99607 0.06995 0.0
C1025 C 0.31075 0.10973 0.07662 0.0
C1026 C 0.3284 0.10749 0.09239 0.0
C1027 C 0.29696 0.08589 0.06221 0.0
C1028 C 0.26963 1.00212 0.05424 0.0
H1029 H 0.18596 0.88967 0.99151 0.0
H1030 H 0.20388 0.93092 1.01709 0.0
H1031 H 0.24549 0.95398 0.04506 0.0
H1032 H 0.34633 0.07909 0.10504 0.0
H1033 H 0.32176 0.03732 0.08026 0.0
H1034 H 0.30095 0.06459 1.02269 0.0
C1035 C 0.21978 0.93301 1.00527 0.0
C1036 C 0.25725 0.97802 0.04001 0.0
C1037 C 0.20952 0.90943 0.99067 0.0
C1038 C 0.33241 0.08125 0.09326 0.0
C1039 C 0.31826 0.05726 0.0791 0.0
C1040 C 0.2886 0.04056 1.02776 0.0
C1041 C 0.25 0.95941 1.00432 0.0
C1042 C 0.26106 0.98492 1.01948 0.0
C1043 C 0.30031 0.05923 0.06342 0.0
C1044 C 0.28567 0.03367 0.04828 0.0
H1045 H 0.27599 0.9397 0.96273 0.0
H1046 H 0.29354 0.98101 0.98784 0.0
H1047 H 0.2797 0.02251 0.99781 0.0
H1048 H 0.30742 0.12977 0.0755 0.0
H1049 H 0.28325 0.08807 0.0503 0.0
C1050 C 0.77226 0.69264 0.47417 0.0
C1051 C 0.80272 0.69708 0.47435 0.0
C1052 C 0.76296 0.70681 0.48858 0.0
C1053 C 0.77758 0.73731 0.5395 0.0
H1054 H 0.73459 0.78111 0.52226 0.0
C1055 C 0.70357 0.7668 0.59252 0.0
C1056 C 0.70783 0.79713 0.59162 0.0
C1057 C 0.71765 0.75677 0.57849 0.0
C1058 C 0.74677 0.76918 0.5273 0.0
H1059 H 0.84684 0.71854 0.49037 0.0
H1060 H 0.83018 0.74269 0.51611 0.0
H1061 H 0.75477 0.7594 0.49735 0.0
H1062 H 0.72947 0.84048 0.57496 0.0
H1063 H 0.75351 0.82261 0.54998 0.0
H1064 H 0.76888 0.74642 0.56946 0.0
C1065 C 0.81378 0.72871 0.50449 0.0
C1066 C 0.75811 0.75656 0.51306 0.0
C1067 C 0.8233 0.7149 0.4898 0.0
C1068 C 0.72589 0.81702 0.57606 0.0
C1069 C 0.73961 0.80679 0.56179 0.0
C1070 C 0.7658 0.74952 0.55376 0.0
C1071 C 0.78363 0.72517 0.50383 0.0
C1072 C 0.77339 0.74023 0.519 0.0
C1073 C 0.73582 0.77661 0.56295 0.0
C1074 C 0.75002 0.76536 0.54782 0.0
H1075 H 0.7557 0.6786 0.46262 0.0
H1076 H 0.73942 0.70319 0.48787 0.0
H1077 H 0.78913 0.72475 0.54452 0.0
H1078 H 0.68921 0.75067 0.60406 0.0
H1079 H 0.71381 0.73321 0.57959 0.0
C1080 C 0.11764 0.30236 0.98778 0.0
C1081 C 0.11416 0.32005 0.97259 0.0
C1082 C 0.09503 0.28862 1.00284 0.0
C1083 C 0.05224 0.28052 0.03888 0.0
H1084 H 0.9645 0.23543 1.02366 0.0
C1085 C 0.9514 0.25106 0.09419 0.0
C1086 C 0.92578 0.22041 0.09397 0.0
C1087 C 0.97472 0.26098 0.07964 0.0
C1088 C 0.98889 0.24774 1.02813 0.0
H1089 H 0.08496 0.33825 0.96171 0.0
H1090 H 0.04518 0.31362 0.98758 0.0
H1091 H 1.00487 0.25729 0.99778 0.0
H1092 H 0.9041 0.1763 0.078 0.0
H1093 H 0.94457 0.194 0.05206 0.0
H1094 H 0.03624 0.27174 0.06924 0.0
C1095 C 0.06519 0.31012 0.9878 0.0
C1096 C 1.01198 0.26044 1.01334 0.0
C1097 C 0.08802 0.32428 0.97301 0.0
C1098 C 0.92364 0.20002 0.0786 0.0
C1099 C 0.94676 0.21014 0.06377 0.0
C1100 C 0.02913 0.26828 0.05368 0.0
C1101 C 0.06834 0.29203 1.00285 0.0
C1102 C 0.04392 0.27717 1.01855 0.0
C1103 C 0.97267 0.2407 0.06422 0.0
C1104 C 0.99719 0.25194 0.04847 0.0
H1105 H 0.13765 0.29887 0.98791 0.0
H1106 H 0.0981 0.27484 1.01427 0.0
H1107 H 0.07662 0.2934 0.04336 0.0
H1108 H 0.95335 0.26759 0.10553 0.0
H1109 H 0.99407 0.2848 0.08021 0.0
C1110 C 0.3047 0.10608 0.48908 0.0
C1111 C 0.32199 0.1034 0.47332 0.0
C1112 C 0.29123 0.08264 0.50369 0.0
C1113 C 0.26485 0.99916 0.51275 0.0
H1114 H 0.27664 0.02204 0.56885 0.0
C1115 C 0.20852 0.90857 0.57743 0.0
C1116 C 0.22886 0.91208 0.59323 0.0
C1117 C 0.21789 0.93158 0.56255 0.0
C1118 C 0.27312 0.01528 0.55324 0.0
H1119 H 0.33938 0.07449 0.46083 0.0
H1120 H 0.31532 0.03341 0.48589 0.0
H1121 H 0.29638 0.06299 0.54337 0.0
H1122 H 0.27534 0.94179 0.60541 0.0
H1123 H 0.29138 0.98204 0.5798 0.0
H1124 H 0.24185 0.95145 0.52263 0.0
C1125 C 0.31185 0.05338 0.48691 0.0
C1126 C 0.2842 0.03874 0.53865 0.0
C1127 C 0.32563 0.07694 0.47253 0.0
C1128 C 0.25893 0.93865 0.5936 0.0
C1129 C 0.2681 0.96179 0.57897 0.0
C1130 C 0.25339 0.9757 0.52734 0.0
C1131 C 0.2945 0.05591 0.50269 0.0
C1132 C 0.28064 0.03098 0.51823 0.0
C1133 C 0.24768 0.95865 0.5633 0.0
C1134 C 0.25783 0.98348 0.54776 0.0
H1135 H 0.30156 0.12625 0.4901 0.0
H1136 H 0.27795 0.08525 0.51565 0.0
H1137 H 0.2615 0.99241 0.49714 0.0
H1138 H 0.18527 0.88826 0.57669 0.0
H1139 H 0.20163 0.92848 0.55066 0.0
C1140 C 0.77048 0.69199 0.09386 0.0
C1141 C 0.80116 0.6971 0.09368 0.0
C1142 C 0.76023 0.70483 0.0791 0.0
C1143 C 0.78792 0.76654 0.04031 0.0
H1144 H 0.70298 0.71631 1.02054 0.0
C1145 C 0.72759 0.81623 0.98862 0.0
C1146 C 0.70828 0.79646 0.97331 0.0
C1147 C 0.74016 0.80499 1.00311 0.0
C1148 C 0.72685 0.73064 1.02573 0.0
H1149 H 0.8451 0.71926 0.0777 0.0
H1150 H 0.82703 0.74143 0.05151 0.0
H1151 H 0.72287 0.69469 0.04536 0.0
H1152 H 0.68689 0.74947 0.9612 0.0
H1153 H 0.70912 0.73013 0.98602 0.0
H1154 H 0.79193 0.80231 1.02027 0.0
C1155 C 0.81105 0.72791 0.06334 0.0
C1156 C 0.73818 0.71833 0.04019 0.0
C1157 C 0.82134 0.71501 0.07821 0.0
C1158 C 0.70183 0.76535 0.97275 0.0
C1159 C 0.71437 0.75417 0.98712 0.0
C1160 C 0.77654 0.7789 1.02578 0.0
C1161 C 0.7803 0.72293 0.06359 0.0
C1162 C 0.76881 0.7361 0.04775 0.0
C1163 C 0.73354 0.77371 1.0026 0.0
C1164 C 0.74585 0.76106 1.01828 0.0
H1165 H 0.75436 0.67824 0.10559 0.0
H1166 H 0.7366 0.70086 0.08001 0.0
H1167 H 0.81153 0.78101 0.04591 0.0
H1168 H 0.73292 0.84032 0.98942 0.0
H1169 H 0.75457 0.82063 1.01491 0.0
C1170 C 0.1071 0.28589 0.58341 0.0
C1171 C 0.11277 0.31388 0.59258 0.0
C1172 C 0.0837 0.27167 0.56872 0.0
C1173 C 0.04427 0.2889 0.5296 0.0
H1174 H 0.97151 0.20684 0.53723 0.0
C1175 C 0.93697 0.2464 0.4784 0.0
C1176 C 0.91845 0.21448 0.47389 0.0
C1177 C 0.96076 0.25671 0.49272 0.0
C1178 C 0.99189 0.22952 0.53459 0.0
H1179 H 0.09895 0.34917 0.59352 0.0
H1180 H 0.05911 0.3251 0.56729 0.0
H1181 H 1.0137 0.22779 0.5621 0.0
H1182 H 0.91026 0.16817 0.48078 0.0
H1183 H 0.95276 0.18617 0.50538 0.0
H1184 H 0.02357 0.29072 0.50197 0.0
C1185 C 0.07231 0.31389 0.57167 0.0
C1186 C 0.01598 0.24152 0.54893 0.0
C1187 C 0.09506 0.32763 0.58664 0.0
C1188 C 0.92408 0.19292 0.4841 0.0
C1189 C 0.94841 0.20332 0.49825 0.0
C1190 C 0.02063 0.27672 0.51509 0.0
C1191 C 0.06628 0.28572 0.56263 0.0
C1192 C 0.04208 0.27157 0.54672 0.0
C1193 C 0.96729 0.23547 0.50269 0.0
C1194 C 0.99364 0.24714 0.51755 0.0
H1195 H 0.12031 0.27474 0.58786 0.0
H1196 H 0.07948 0.24998 0.56193 0.0
H1197 H 0.06434 0.312 0.52745 0.0
H1198 H 0.93298 0.26353 0.47087 0.0
H1199 H 0.97389 0.28149 0.49601 0.0
C1200 C 0.67693 0.1898 0.14947 0.0
C1201 C 0.6803 0.16495 0.14211 0.0
C1202 C 0.64716 0.18649 0.15166 0.0
C1203 C 0.56281 0.12699 0.15573 0.0
H1204 H 0.55012 0.19472 0.13828 0.0
C1205 C 0.43921 0.11329 0.14666 0.0
C1206 C 0.43586 0.13924 0.15135 0.0
C1207 C 0.46886 0.11585 0.1468 0.0
C1208 C 0.55327 0.1757 0.14352 0.0
H1209 H 0.6548 0.11677 0.13191 0.0
H1210 H 0.60311 0.11117 0.13546 0.0
H1211 H 0.60209 0.20062 0.13642 0.0
H1212 H 0.46104 0.18787 0.16076 0.0
H1213 H 0.51224 0.19207 0.16141 0.0
H1214 H 0.51394 0.10204 0.16281 0.0
C1215 C 0.62343 0.13321 0.13961 0.0
C1216 C 0.58315 0.17912 0.14243 0.0
C1217 C 0.65313 0.13657 0.13734 0.0
C1218 C 0.46269 0.16745 0.15683 0.0
C1219 C 0.4922 0.16995 0.15708 0.0
C1220 C 0.53291 0.1236 0.15689 0.0
C1221 C 0.62002 0.15817 0.14669 0.0
C1222 C 0.58832 0.15479 0.14845 0.0
C1223 C 0.49582 0.14438 0.15173 0.0
C1224 C 0.5277 0.1479 0.15077 0.0
H1225 H 0.69733 0.21201 0.15321 0.0
H1226 H 0.64539 0.2061 0.15735 0.0
H1227 H 0.56602 0.10791 0.16074 0.0
H1228 H 0.41909 0.09124 0.14229 0.0
H1229 H 0.47073 0.09571 0.14244 0.0
C1230 C 0.69639 0.59235 0.41576 0.0
C1231 C 0.72585 0.59524 0.41237 0.0
C1232 C 0.66911 0.56296 0.41494 0.0
C1233 C 0.63801 0.48125 0.39694 0.0
H1234 H 0.5774 0.46042 0.43934 0.0
C1235 C 0.52258 0.36195 0.40041 0.0
C1236 C 0.51307 0.348 0.41934 0.0
C1237 C 0.54771 0.39251 0.39853 0.0
C1238 C 0.59418 0.46579 0.42745 0.0
H1239 H 0.74946 0.56941 0.40481 0.0
H1240 H 0.70228 0.51861 0.40355 0.0
H1241 H 0.6223 0.51319 0.43735 0.0
H1242 H 0.52268 0.35548 0.45113 0.0
H1243 H 0.56687 0.40835 0.44783 0.0
H1244 H 0.61043 0.43361 0.38741 0.0
C1245 C 0.70008 0.53896 0.40668 0.0
C1246 C 0.61971 0.4962 0.42615 0.0
C1247 C 0.72725 0.5682 0.40755 0.0
C1248 C 0.52957 0.36528 0.4363 0.0
C1249 C 0.55465 0.39582 0.43443 0.0
C1250 C 0.61246 0.45086 0.39823 0.0
C1251 C 0.67069 0.53585 0.41061 0.0
C1252 C 0.64217 0.50422 0.41102 0.0
C1253 C 0.56392 0.40993 0.41554 0.0
C1254 C 0.59041 0.44263 0.41364 0.0
H1255 H 0.69441 0.61265 0.4195 0.0
H1256 H 0.64679 0.56143 0.41782 0.0
H1257 H 0.65466 0.4867 0.38496 0.0
H1258 H 0.51058 0.34925 0.38701 0.0
H1259 H 0.55407 0.40268 0.38376 0.0
C1260 C 0.91465 0.32832 0.1486 0.0
C1261 C 0.8879 0.29842 0.1476 0.0
C1262 C 0.91171 0.35499 0.15048 0.0
C1263 C 0.85547 0.37991 0.16611 0.0
H1264 H 0.90824 0.4541 0.13504 0.0
C1265 C 0.82973 0.48135 0.15665 0.0
C1266 C 0.85532 0.51202 0.15666 0.0
C1267 C 0.83453 0.45571 0.15695 0.0
C1268 C 0.8936 0.43372 0.14403 0.0
H1269 H 0.83704 0.27323 0.14756 0.0
H1270 H 0.83202 0.31955 0.15057 0.0
H1271 H 0.91545 0.4088 0.13264 0.0
H1272 H 0.90604 0.53975 0.15715 0.0
H1273 H 0.91434 0.4951 0.15809 0.0
H1274 H 0.8334 0.40472 0.17735 0.0
C1275 C 0.85528 0.32242 0.15025 0.0
C1276 C 0.89774 0.40775 0.14265 0.0
C1277 C 0.8582 0.29584 0.14837 0.0
C1278 C 0.88578 0.51645 0.1574 0.0
C1279 C 0.89057 0.49085 0.15766 0.0
C1280 C 0.85131 0.40586 0.16748 0.0
C1281 C 0.88196 0.3523 0.15144 0.0
C1282 C 0.87855 0.38045 0.15354 0.0
C1283 C 0.86502 0.46018 0.1572 0.0
C1284 C 0.87018 0.43299 0.15635 0.0
H1285 H 0.93788 0.33114 0.14811 0.0
H1286 H 0.93273 0.37767 0.15152 0.0
H1287 H 0.84065 0.35944 0.17498 0.0
H1288 H 0.80598 0.47714 0.15622 0.0
H1289 H 0.81433 0.43238 0.15643 0.0
C1290 C 0.46099 0.16575 0.41467 0.0
C1291 C 0.43361 0.13719 0.41856 0.0
C1292 C 0.4903 0.16788 0.41504 0.0
C1293 C 0.52988 0.12089 0.41288 0.0
H1294 H 0.59853 0.19466 0.43738 0.0
C1295 C 0.64964 0.13097 0.43009 0.0
C1296 C 0.67681 0.15991 0.42656 0.0
C1297 C 0.61997 0.12797 0.42869 0.0
C1298 C 0.57974 0.17409 0.43026 0.0
H1299 H 0.41567 0.08828 0.42559 0.0
H1300 H 0.46704 0.09207 0.42646 0.0
H1301 H 0.54677 0.18935 0.43575 0.0
H1302 H 0.6939 0.2084 0.41876 0.0
H1303 H 0.64204 0.20308 0.41605 0.0
H1304 H 0.56294 0.1056 0.4075 0.0
C1305 C 0.46572 0.11278 0.4229 0.0
C1306 C 0.55 0.17102 0.42933 0.0
C1307 C 0.43626 0.11061 0.42247 0.0
C1308 C 0.6735 0.18575 0.42147 0.0
C1309 C 0.64377 0.18276 0.42011 0.0
C1310 C 0.55966 0.12395 0.41384 0.0
C1311 C 0.49314 0.14155 0.4194 0.0
C1312 C 0.52469 0.14443 0.42057 0.0
C1313 C 0.61663 0.15382 0.42373 0.0
C1314 C 0.58497 0.15062 0.42252 0.0
H1315 H 0.45991 0.18669 0.41143 0.0
H1316 H 0.5108 0.19025 0.41186 0.0
H1317 H 0.51106 0.10032 0.40579 0.0
H1318 H 0.65126 0.11045 0.43375 0.0
H1319 H 0.59964 0.10542 0.43176 0.0
C1320 C 0.53936 0.35897 0.15941 0.0
C1321 C 0.51162 0.35403 0.15019 0.0
C1322 C 0.56451 0.38939 0.1622 0.0
C1323 C 0.59596 0.46976 0.14238 0.0
H1324 H 0.65077 0.49354 0.18861 0.0
C1325 C 0.6975 0.59622 0.15338 0.0
C1326 C 0.72653 0.59902 0.15829 0.0
C1327 C 0.66995 0.56716 0.1545 0.0
C1328 C 0.63571 0.4872 0.17558 0.0
H1329 H 0.48778 0.37707 0.13774 0.0
H1330 H 0.53118 0.4299 0.14289 0.0
H1331 H 0.60525 0.44096 0.18659 0.0
H1332 H 0.74911 0.57369 0.16914 0.0
H1333 H 0.70124 0.52329 0.17109 0.0
H1334 H 0.62646 0.51588 0.13133 0.0
C1335 C 0.53406 0.41041 0.14742 0.0
C1336 C 0.60968 0.45703 0.17438 0.0
C1337 C 0.50912 0.38011 0.14451 0.0
C1338 C 0.7272 0.57241 0.16515 0.0
C1339 C 0.69969 0.54348 0.1664 0.0
C1340 C 0.62184 0.49992 0.14364 0.0
C1341 C 0.5623 0.4155 0.15597 0.0
C1342 C 0.58957 0.44785 0.1577 0.0
C1343 C 0.67082 0.54036 0.16072 0.0
C1344 C 0.64216 0.50894 0.16017 0.0
H1345 H 0.54199 0.3393 0.16387 0.0
H1346 H 0.58598 0.39238 0.16867 0.0
H1347 H 0.58141 0.46341 0.12911 0.0
H1348 H 0.69612 0.61621 0.14805 0.0
H1349 H 0.648 0.56557 0.15024 0.0
C1350 C 0.82685 0.47947 0.41365 0.0
C1351 C 0.85323 0.50967 0.41416 0.0
C1352 C 0.83036 0.45302 0.41391 0.0
C1353 C 0.88656 0.42783 0.42882 0.0
H1354 H 0.83464 0.35528 0.39589 0.0
C1355 C 0.90843 0.32338 0.4224 0.0
C1356 C 0.88202 0.2932 0.42202 0.0
C1357 C 0.90503 0.34984 0.42123 0.0
C1358 C 0.8491 0.37522 0.40536 0.0
H1359 H 0.904 0.53563 0.41535 0.0
H1360 H 0.91007 0.48965 0.41537 0.0
H1361 H 0.8283 0.40117 0.3939 0.0
H1362 H 0.83124 0.2673 0.42031 0.0
H1363 H 0.82539 0.31334 0.41856 0.0
H1364 H 0.90726 0.40189 0.44036 0.0
C1365 C 0.88666 0.48637 0.41496 0.0
C1366 C 0.84546 0.40152 0.40419 0.0
C1367 C 0.88317 0.51276 0.41466 0.0
C1368 C 0.85214 0.29015 0.42058 0.0
C1369 C 0.84877 0.31658 0.41943 0.0
C1370 C 0.89017 0.40152 0.43 0.0
C1371 C 0.86032 0.45617 0.41478 0.0
C1372 C 0.86416 0.42816 0.41591 0.0
C1373 C 0.87516 0.34676 0.41967 0.0
C1374 C 0.87147 0.37487 0.4183 0.0
H1375 H 0.80347 0.47626 0.41313 0.0
H1376 H 0.80956 0.43009 0.4139 0.0
H1377 H 0.90099 0.44775 0.4383 0.0
H1378 H 0.93179 0.32662 0.42341 0.0
H1379 H 0.92588 0.37273 0.42122 0.0
C1380 C 0.20335 0.66875 0.6564 0.0
C1381 C 0.17762 0.67366 0.65683 0.0
C1382 C 0.19885 0.63842 0.65711 0.0
C1383 C 0.13932 0.55653 0.64622 0.0
H1384 H 0.19461 0.53717 0.6765 0.0
C1385 C 0.11861 0.43048 0.65195 0.0
C1386 C 0.1452 0.42708 0.65046 0.0
C1387 C 0.12177 0.46019 0.65389 0.0
C1388 C 0.17912 0.54225 0.66782 0.0
H1389 H 0.12695 0.65041 0.65845 0.0
H1390 H 0.11919 0.59772 0.66006 0.0
H1391 H 0.20187 0.58979 0.67798 0.0
H1392 H 0.19606 0.45252 0.64993 0.0
H1393 H 0.20144 0.50398 0.65301 0.0
H1394 H 0.11681 0.50916 0.63585 0.0
C1395 C 0.14284 0.61728 0.65901 0.0
C1396 C 0.18329 0.57242 0.66868 0.0
C1397 C 0.14734 0.64756 0.65835 0.0
C1398 C 0.17499 0.4541 0.65107 0.0
C1399 C 0.17813 0.48372 0.65299 0.0
C1400 C 0.13518 0.52639 0.64533 0.0
C1401 C 0.1685 0.6123 0.65817 0.0
C1402 C 0.16355 0.57998 0.6578 0.0
C1403 C 0.15159 0.48718 0.6544 0.0
C1404 C 0.15516 0.51891 0.65601 0.0
H1405 H 0.22699 0.68834 0.65538 0.0
H1406 H 0.21912 0.63542 0.65629 0.0
H1407 H 0.12398 0.56167 0.63741 0.0
H1408 H 0.0953 0.41023 0.65161 0.0
H1409 H 0.10084 0.46198 0.65516 0.0
C1410 C 0.33303 0.90902 0.9181 0.0
C1411 C 0.30375 0.88364 0.91266 0.0
C1412 C 0.35998 0.90628 0.91748 0.0
C1413 C 0.38341 0.84558 0.91831 0.0
H1414 H 0.46508 0.91441 0.90414 0.0
C1415 C 0.49268 0.83109 0.91365 0.0
C1416 C 0.52015 0.85492 0.92256 0.0
C1417 C 0.46662 0.83492 0.91086 0.0
C1418 C 0.44244 0.89501 0.90826 0.0
H1419 H 0.28017 0.83607 0.90123 0.0
H1420 H 0.32699 0.83161 0.89973 0.0
H1421 H 0.41925 0.92096 0.90186 0.0
H1422 H 0.54211 0.90189 0.93483 0.0
H1423 H 0.49668 0.90838 0.9302 0.0
H1424 H 0.40657 0.81968 0.92478 0.0
C1425 C 0.32914 0.85333 0.90504 0.0
C1426 C 0.41617 0.89879 0.90699 0.0
C1427 C 0.30226 0.85599 0.90579 0.0
C1428 C 0.52116 0.88288 0.92819 0.0
C1429 C 0.49523 0.88677 0.92531 0.0
C1430 C 0.40962 0.84177 0.9195 0.0
C1431 C 0.35826 0.87816 0.91129 0.0
C1432 C 0.3863 0.87415 0.91208 0.0
C1433 C 0.46754 0.86276 0.91676 0.0
C1434 C 0.4395 0.86648 0.9146 0.0
H1435 H 0.33499 0.9306 0.92354 0.0
H1436 H 0.38195 0.92582 0.92255 0.0
H1437 H 0.36093 0.82626 0.92275 0.0
H1438 H 0.4911 0.80924 0.9092 0.0
H1439 H 0.44574 0.81608 0.90404 0.0
C1440 C 0.56936 0.72252 0.65147 0.0
C1441 C 0.59667 0.72129 0.64729 0.0
C1442 C 0.54031 0.69514 0.65254 0.0
C1443 C 0.49853 0.61363 0.63507 0.0
H1444 H 0.43828 0.60308 0.67584 0.0
C1445 C 0.3816 0.49852 0.64273 0.0
C1446 C 0.35462 0.50055 0.64639 0.0
C1447 C 0.41131 0.52498 0.6441 0.0
C1448 C 0.45471 0.6058 0.66423 0.0
H1449 H 0.61482 0.69016 0.64117 0.0
H1450 H 0.56396 0.64225 0.64301 0.0
H1451 H 0.49003 0.64991 0.67596 0.0
H1452 H 0.33771 0.53189 0.65478 0.0
H1453 H 0.38972 0.57837 0.65701 0.0
H1454 H 0.46321 0.56987 0.62312 0.0
C1455 C 0.5651 0.66452 0.64534 0.0
C1456 C 0.48438 0.63261 0.66432 0.0
C1457 C 0.59426 0.69196 0.64439 0.0
C1458 C 0.35807 0.52956 0.65199 0.0
C1459 C 0.38788 0.55616 0.65328 0.0
C1460 C 0.46886 0.58691 0.63493 0.0
C1461 C 0.53778 0.66582 0.64935 0.0
C1462 C 0.50661 0.63686 0.64971 0.0
C1463 C 0.41485 0.55424 0.64911 0.0
C1464 C 0.44653 0.58265 0.64949 0.0
H1465 H 0.57031 0.74469 0.65384 0.0
H1466 H 0.5197 0.697 0.65543 0.0
H1467 H 0.51491 0.61644 0.6234 0.0
H1468 H 0.37976 0.47636 0.63879 0.0
H1469 H 0.43155 0.52246 0.64124 0.0
C1470 C 0.19328 0.66577 0.90461 0.0
C1471 C 0.17025 0.66952 0.91448 0.0
C1472 C 0.18943 0.63589 0.90187 0.0
C1473 C 0.12996 0.55147 0.90157 0.0
H1474 H 0.19985 0.54012 0.9159 0.0
C1475 C 0.11621 0.42924 0.9153 0.0
C1476 C 0.14112 0.4246 0.90991 0.0
C1477 C 0.11921 0.45894 0.91379 0.0
C1478 C 0.1802 0.54286 0.91149 0.0
H1479 H 0.12452 0.64483 0.92837 0.0
H1480 H 0.11789 0.5929 0.92368 0.0
H1481 H 0.20635 0.59235 0.91635 0.0
H1482 H 0.1882 0.44729 0.89782 0.0
H1483 H 0.19308 0.49857 0.89475 0.0
H1484 H 0.10375 0.50196 0.89678 0.0
C1485 C 0.13893 0.61294 0.91807 0.0
C1486 C 0.18397 0.57287 0.91177 0.0
C1487 C 0.14288 0.64273 0.92094 0.0
C1488 C 0.16864 0.45005 0.90235 0.0
C1489 C 0.17154 0.47959 0.90069 0.0
C1490 C 0.12623 0.52144 0.90117 0.0
C1491 C 0.1623 0.60916 0.90873 0.0
C1492 C 0.15882 0.57751 0.90702 0.0
C1493 C 0.14711 0.48461 0.90672 0.0
C1494 C 0.15123 0.51668 0.9063 0.0
H1495 H 0.21463 0.68598 0.89951 0.0
H1496 H 0.20774 0.63371 0.89446 0.0
H1497 H 0.11023 0.55432 0.8976 0.0
H1498 H 0.09474 0.41018 0.92126 0.0
H1499 H 0.1 0.46194 0.91877 0.0
C1500 C 0.33506 0.91441 0.65044 0.0
C1501 C 0.30622 0.88845 0.65581 0.0
C1502 C 0.3625 0.91257 0.6508 0.0
C1503 C 0.39733 0.86636 0.67054 0.0
H1504 H 0.44963 0.89676 0.62345 0.0
C1505 C 0.49335 0.83464 0.65285 0.0
C1506 C 0.52095 0.85759 0.6437 0.0
C1507 C 0.46806 0.83968 0.65572 0.0
C1508 C 0.43563 0.88856 0.63688 0.0
H1509 H 0.28396 0.84063 0.66663 0.0
H1510 H 0.33165 0.83754 0.66726 0.0
H1511 H 0.40478 0.90443 0.62663 0.0
H1512 H 0.54416 0.9044 0.63131 0.0
H1513 H 0.50046 0.91334 0.63652 0.0
H1514 H 0.42815 0.85039 0.68075 0.0
C1515 C 0.33313 0.85933 0.6628 0.0
C1516 C 0.40987 0.89299 0.63869 0.0
C1517 C 0.30571 0.86108 0.66231 0.0
C1518 C 0.52298 0.88596 0.638 0.0
C1519 C 0.49786 0.89107 0.64097 0.0
C1520 C 0.42323 0.86206 0.66877 0.0
C1521 C 0.36176 0.88483 0.65669 0.0
C1522 C 0.39027 0.88177 0.65547 0.0
C1523 C 0.46989 0.86788 0.64964 0.0
C1524 C 0.44263 0.87295 0.65186 0.0
H1525 H 0.33632 0.93584 0.64536 0.0
H1526 H 0.38428 0.93276 0.64622 0.0
H1527 H 0.38287 0.85771 0.68375 0.0
H1528 H 0.49101 0.81248 0.65731 0.0
H1529 H 0.44679 0.82114 0.66225 0.0
C1530 C 0.5944 0.69229 0.91704 0.0
C1531 C 0.59677 0.72188 0.91683 0.0
C1532 C 0.56518 0.66507 0.91516 0.0
C1533 C 0.48385 0.63691 0.89789 0.0
H1534 H 0.46348 0.56626 0.93241 0.0
C1535 C 0.35736 0.53452 0.90814 0.0
C1536 C 0.35294 0.50418 0.90974 0.0
C1537 C 0.38754 0.56057 0.90767 0.0
C1538 C 0.46892 0.58561 0.92246 0.0
H1539 H 0.57015 0.74597 0.91442 0.0
H1540 H 0.51952 0.69875 0.91136 0.0
H1541 H 0.51553 0.61238 0.93404 0.0
H1542 H 0.37693 0.4775 0.91206 0.0
H1543 H 0.42941 0.52278 0.9108 0.0
H1544 H 0.43714 0.61026 0.88644 0.0
C1545 C 0.5402 0.6965 0.9127 0.0
C1546 C 0.49878 0.61205 0.9234 0.0
C1547 C 0.5693 0.72362 0.91462 0.0
C1548 C 0.37943 0.50049 0.91054 0.0
C1549 C 0.40956 0.52649 0.9101 0.0
C1550 C 0.45399 0.61048 0.89695 0.0
C1551 C 0.53774 0.66689 0.91295 0.0
C1552 C 0.50652 0.63813 0.91125 0.0
C1553 C 0.414 0.55687 0.90885 0.0
C1554 C 0.44609 0.5846 0.90933 0.0
H1555 H 0.61508 0.6901 0.91868 0.0
H1556 H 0.56411 0.64261 0.91523 0.0
H1557 H 0.48921 0.6564 0.88809 0.0
H1558 H 0.33747 0.53818 0.90735 0.0
H1559 H 0.39012 0.58366 0.90687 0.0
loop_
_geom_bond_atom_site_label_1
_geom_bond_atom_site_label_2
_geom_bond_distance
_geom_bond_site_symmetry_2
_ccdc_geom_bond_type
Ho0 C3 2.811 . S
Ho0 O20 2.322 . S
Ho0 O22 2.378 . S
Ho0 O23 2.524 . S
Ho0 O24 2.381 . S
Ho0 O25 2.669 . S
Ho0 O27 2.346 . S
Ho0 O31 2.305 . S
Ho1 C12 2.811 . S
Ho1 O21 2.346 . S
Ho1 O25 2.305 . S
Ho1 O26 2.322 . S
Ho1 O28 2.378 . S
Ho1 O29 2.524 . S
Ho1 O30 2.381 . S
Ho1 O31 2.669 . S
C2 O20 1.259 . S
C2 O21 1.268 . S
C3 Ho0 2.811 . S
C3 C4 1.488 . S
C3 O22 1.215 . S
C3 O23 1.289 . S
C4 C3 1.488 . S
C4 C5 1.348 . S
C4 C9 1.413 . S
C5 C4 1.348 . S
C5 C6 1.442 . S
C5 H32 0.930 . S
C6 C5 1.442 . S
C6 C7 1.381 . S
C6 H33 0.931 . S
C7 C6 1.381 . S
C7 C8 1.321 . S
C8 C7 1.321 . S
C8 C9 1.403 . S
C8 H34 0.934 . S
C9 C4 1.413 . S
C9 C8 1.403 . S
C9 H35 0.930 . S
C10 O24 1.275 . S
C10 O25 1.256 . S
C11 O26 1.259 . S
C11 O27 1.268 . S
C12 Ho1 2.811 . S
C12 C13 1.488 . S
C12 O28 1.215 . S
C12 O29 1.289 . S
C13 C12 1.488 . S
C13 C14 1.348 . S
C13 C18 1.413 . S
C14 C13 1.348 . S
C14 C15 1.442 1_545 S
C14 H36 0.930 . S
C15 C14 1.442 1_565 S
C15 C16 1.381 . S
C15 H37 0.931 . S
C16 C15 1.381 . S
C16 C17 1.321 . S
C17 C16 1.321 . S
C17 C18 1.403 1_565 S
C17 H38 0.934 . S
C18 C13 1.413 . S
C18 C17 1.403 1_545 S
C18 H39 0.930 . S
C19 O30 1.275 . S
C19 O31 1.256 . S
O20 Ho0 2.322 . S
O20 C2 1.259 . S
O21 Ho1 2.346 . S
O21 C2 1.268 . S
O22 Ho0 2.378 . S
O22 C3 1.215 . S
O23 Ho0 2.524 . S
O23 C3 1.289 . S
O24 Ho0 2.381 . S
O24 C10 1.275 . S
O25 Ho0 2.669 . S
O25 Ho1 2.305 . S
O25 C10 1.256 . S
O26 Ho1 2.322 . S
O26 C11 1.259 . S
O27 Ho0 2.346 . S
O27 C11 1.268 . S
O28 Ho1 2.378 . S
O28 C12 1.215 . S
O29 Ho1 2.524 . S
O29 C12 1.289 . S
O30 Ho1 2.381 . S
O30 C19 1.275 . S
O31 Ho0 2.305 . S
O31 Ho1 2.669 . S
O31 C19 1.256 . S
H32 C5 0.930 . S
H33 C6 0.931 . S
H34 C8 0.934 . S
H35 C9 0.930 . S
H36 C14 0.930 . S
H37 C15 0.931 . S
H38 C17 0.934 . S
H39 C18 0.930 . S
Ho40 C43 2.811 . S
Ho40 O60 2.322 . S
Ho40 O62 2.378 . S
Ho40 O63 2.524 . S
Ho40 O64 2.381 . S
Ho40 O65 2.669 . S
Ho40 O67 2.346 . S
Ho40 O71 2.305 . S
Ho41 C52 2.811 . S
Ho41 O61 2.346 . S
Ho41 O65 2.305 . S
Ho41 O66 2.322 . S
Ho41 O68 2.378 . S
Ho41 O69 2.524 . S
Ho41 O70 2.381 . S
Ho41 O71 2.669 . S
C42 O60 1.259 . S
C42 O61 1.268 . S
C43 Ho40 2.811 . S
C43 C44 1.488 . S
C43 O62 1.215 . S
C43 O63 1.289 . S
C44 C43 1.488 . S
C44 C45 1.348 . S
C44 C49 1.413 . S
C45 C44 1.348 . S
C45 C46 1.442 . S
C45 H72 0.930 . S
C46 C45 1.442 . S
C46 C47 1.381 . S
C46 H73 0.931 . S
C47 C46 1.381 . S
C47 C48 1.321 . S
C48 C47 1.321 . S
C48 C49 1.403 . S
C48 H74 0.934 . S
C49 C44 1.413 . S
C49 C48 1.403 . S
C49 H75 0.930 . S
C50 O64 1.275 . S
C50 O65 1.256 . S
C51 O66 1.259 . S
C51 O67 1.268 . S
C52 Ho41 2.811 . S
C52 C53 1.488 . S
C52 O68 1.215 . S
C52 O69 1.289 . S
C53 C52 1.488 . S
C53 C54 1.348 . S
C53 C58 1.413 . S
C54 C53 1.348 . S
C54 C55 1.442 . S
C54 H76 0.930 . S
C55 C54 1.442 . S
C55 C56 1.381 . S
C55 H77 0.931 . S
C56 C55 1.381 . S
C56 C57 1.321 . S
C57 C56 1.321 . S
C57 C58 1.403 . S
C57 H78 0.934 . S
C58 C53 1.413 . S
C58 C57 1.403 . S
C58 H79 0.930 . S
C59 O70 1.275 . S
C59 O71 1.256 . S
O60 Ho40 2.322 . S
O60 C42 1.259 . S
O61 Ho41 2.346 . S
O61 C42 1.268 . S
O62 Ho40 2.378 . S
O62 C43 1.215 . S
O63 Ho40 2.524 . S
O63 C43 1.289 . S
O64 Ho40 2.381 . S
O64 C50 1.275 . S
O65 Ho40 2.669 . S
O65 Ho41 2.305 . S
O65 C50 1.256 . S
O66 Ho41 2.322 . S
O66 C51 1.259 . S
O67 Ho40 2.346 . S
O67 C51 1.268 . S
O68 Ho41 2.378 . S
O68 C52 1.215 . S
O69 Ho41 2.524 . S
O69 C52 1.289 . S
O70 Ho41 2.381 . S
O70 C59 1.275 . S
O71 Ho40 2.305 . S
O71 Ho41 2.669 . S
O71 C59 1.256 . S
H72 C45 0.930 . S
H73 C46 0.931 . S
H74 C48 0.934 . S
H75 C49 0.930 . S
H76 C54 0.930 . S
H77 C55 0.931 . S
H78 C57 0.934 . S
H79 C58 0.930 . S
Ho80 C83 2.811 . S
Ho80 O100 2.322 . S
Ho80 O102 2.378 . S
Ho80 O103 2.524 . S
Ho80 O104 2.381 . S
Ho80 O105 2.669 . S
Ho80 O107 2.346 . S
Ho80 O111 2.305 . S
Ho81 C92 2.811 . S
Ho81 O101 2.346 . S
Ho81 O105 2.305 . S
Ho81 O106 2.322 . S
Ho81 O108 2.378 . S
Ho81 O109 2.524 . S
Ho81 O110 2.381 . S
Ho81 O111 2.669 . S
C82 O100 1.259 . S
C82 O101 1.268 . S
C83 Ho80 2.811 . S
C83 C84 1.488 . S
C83 O102 1.215 . S
C83 O103 1.289 . S
C84 C83 1.488 . S
C84 C85 1.348 . S
C84 C89 1.413 . S
C85 C84 1.348 . S
C85 C86 1.442 . S
C85 H112 0.930 . S
C86 C85 1.442 . S
C86 C87 1.381 . S
C86 H113 0.931 . S
C87 C86 1.381 . S
C87 C88 1.321 . S
C88 C87 1.321 . S
C88 C89 1.403 . S
C88 H114 0.934 . S
C89 C84 1.413 . S
C89 C88 1.403 . S
C89 H115 0.930 . S
C90 O104 1.275 . S
C90 O105 1.256 . S
C91 O106 1.259 . S
C91 O107 1.268 . S
C92 Ho81 2.811 . S
C92 C93 1.488 . S
C92 O108 1.215 . S
C92 O109 1.289 . S
C93 C92 1.488 . S
C93 C94 1.348 . S
C93 C98 1.413 . S
C94 C93 1.348 . S
C94 C95 1.442 1_655 S
C94 H116 0.930 . S
C95 C94 1.442 1_455 S
C95 C96 1.381 . S
C95 H117 0.931 . S
C96 C95 1.381 . S
C96 C97 1.321 . S
C97 C96 1.321 . S
C97 C98 1.403 1_455 S
C97 H118 0.934 . S
C98 C93 1.413 . S
C98 C97 1.403 1_655 S
C98 H119 0.930 . S
C99 O110 1.275 . S
C99 O111 1.256 . S
O100 Ho80 2.322 . S
O100 C82 1.259 . S
O101 Ho81 2.346 . S
O101 C82 1.268 . S
O102 Ho80 2.378 . S
O102 C83 1.215 . S
O103 Ho80 2.524 . S
O103 C83 1.289 . S
O104 Ho80 2.381 . S
O104 C90 1.275 . S
O105 Ho80 2.669 . S
O105 Ho81 2.305 . S
O105 C90 1.256 . S
O106 Ho81 2.322 . S
O106 C91 1.259 . S
O107 Ho80 2.346 . S
O107 C91 1.268 . S
O108 Ho81 2.378 . S
O108 C92 1.215 . S
O109 Ho81 2.524 . S
O109 C92 1.289 . S
O110 Ho81 2.381 . S
O110 C99 1.275 . S
O111 Ho80 2.305 . S
O111 Ho81 2.669 . S
O111 C99 1.256 . S
H112 C85 0.930 . S
H113 C86 0.931 . S
H114 C88 0.934 . S
H115 C89 0.930 . S
H116 C94 0.930 . S
H117 C95 0.931 . S
H118 C97 0.934 . S
H119 C98 0.930 . S
Ho120 C123 2.811 . S
Ho120 O140 2.322 . S
Ho120 O142 2.378 . S
Ho120 O143 2.524 . S
Ho120 O144 2.381 . S
Ho120 O145 2.669 . S
Ho120 O147 2.346 . S
Ho120 O151 2.305 . S
Ho121 C132 2.811 . S
Ho121 O141 2.346 . S
Ho121 O145 2.305 . S
Ho121 O146 2.322 . S
Ho121 O148 2.378 . S
Ho121 O149 2.524 . S
Ho121 O150 2.381 . S
Ho121 O151 2.669 . S
C122 O140 1.259 . S
C122 O141 1.268 . S
C123 Ho120 2.811 . S
C123 C124 1.488 . S
C123 O142 1.215 . S
C123 O143 1.289 . S
C124 C123 1.488 . S
C124 C125 1.348 . S
C124 C129 1.413 . S
C125 C124 1.348 . S
C125 C126 1.442 1_545 S
C125 H152 0.930 . S
C126 C125 1.442 1_565 S
C126 C127 1.381 . S
C126 H153 0.931 . S
C127 C126 1.381 . S
C127 C128 1.321 . S
C128 C127 1.321 . S
C128 C129 1.403 1_565 S
C128 H154 0.934 . S
C129 C124 1.413 . S
C129 C128 1.403 1_545 S
C129 H155 0.930 . S
C130 O144 1.275 . S
C130 O145 1.256 . S
C131 O146 1.259 . S
C131 O147 1.268 . S
C132 Ho121 2.811 . S
C132 C133 1.488 . S
C132 O148 1.215 . S
C132 O149 1.289 . S
C133 C132 1.488 . S
C133 C134 1.348 . S
C133 C138 1.413 . S
C134 C133 1.348 . S
C134 C135 1.442 . S
C134 H156 0.930 . S
C135 C134 1.442 . S
C135 C136 1.381 . S
C135 H157 0.931 . S
C136 C135 1.381 . S
C136 C137 1.321 . S
C137 C136 1.321 . S
C137 C138 1.403 . S
C137 H158 0.934 . S
C138 C133 1.413 . S
C138 C137 1.403 . S
C138 H159 0.930 . S
C139 O150 1.275 . S
C139 O151 1.256 . S
O140 Ho120 2.322 . S
O140 C122 1.259 . S
O141 Ho121 2.346 . S
O141 C122 1.268 . S
O142 Ho120 2.378 . S
O142 C123 1.215 . S
O143 Ho120 2.524 . S
O143 C123 1.289 . S
O144 Ho120 2.381 . S
O144 C130 1.275 . S
O145 Ho120 2.669 . S
O145 Ho121 2.305 . S
O145 C130 1.256 . S
O146 Ho121 2.322 . S
O146 C131 1.259 . S
O147 Ho120 2.346 . S
O147 C131 1.268 . S
O148 Ho121 2.378 . S
O148 C132 1.215 . S
O149 Ho121 2.524 . S
O149 C132 1.289 . S
O150 Ho121 2.381 . S
O150 C139 1.275 . S
O151 Ho120 2.305 . S
O151 Ho121 2.669 . S
O151 C139 1.256 . S
H152 C125 0.930 . S
H153 C126 0.931 . S
H154 C128 0.934 . S
H155 C129 0.930 . S
H156 C134 0.930 . S
H157 C135 0.931 . S
H158 C137 0.934 . S
H159 C138 0.930 . S
Ho160 C163 2.811 . S
Ho160 O180 2.322 . S
Ho160 O182 2.378 . S
Ho160 O183 2.524 . S
Ho160 O184 2.381 . S
Ho160 O185 2.669 . S
Ho160 O187 2.346 . S
Ho160 O191 2.305 . S
Ho161 C172 2.811 . S
Ho161 O181 2.346 . S
Ho161 O185 2.305 . S
Ho161 O186 2.322 . S
Ho161 O188 2.378 . S
Ho161 O189 2.524 . S
Ho161 O190 2.381 . S
Ho161 O191 2.669 . S
C162 O180 1.259 . S
C162 O181 1.268 . S
C163 Ho160 2.811 . S
C163 C164 1.488 . S
C163 O182 1.215 . S
C163 O183 1.289 . S
C164 C163 1.488 . S
C164 C165 1.348 . S
C164 C169 1.413 . S
C165 C164 1.348 . S
C165 C166 1.442 . S
C165 H192 0.930 . S
C166 C165 1.442 . S
C166 C167 1.381 . S
C166 H193 0.931 . S
C167 C166 1.381 . S
C167 C168 1.321 . S
C168 C167 1.321 . S
C168 C169 1.403 . S
C168 H194 0.934 . S
C169 C164 1.413 . S
C169 C168 1.403 . S
C169 H195 0.930 . S
C170 O184 1.275 . S
C170 O185 1.256 . S
C171 O186 1.259 . S
C171 O187 1.268 . S
C172 Ho161 2.811 . S
C172 C173 1.488 . S
C172 O188 1.215 . S
C172 O189 1.289 . S
C173 C172 1.488 . S
C173 C174 1.348 . S
C173 C178 1.413 . S
C174 C173 1.348 . S
C174 C175 1.442 . S
C174 H196 0.930 . S
C175 C174 1.442 . S
C175 C176 1.381 . S
C175 H197 0.931 . S
C176 C175 1.381 . S
C176 C177 1.321 . S
C177 C176 1.321 . S
C177 C178 1.403 . S
C177 H198 0.934 . S
C178 C173 1.413 . S
C178 C177 1.403 . S
C178 H199 0.930 . S
C179 O190 1.275 . S
C179 O191 1.256 . S
O180 Ho160 2.322 . S
O180 C162 1.259 . S
O181 Ho161 2.346 . S
O181 C162 1.268 . S
O182 Ho160 2.378 . S
O182 C163 1.215 . S
O183 Ho160 2.524 . S
O183 C163 1.289 . S
O184 Ho160 2.381 . S
O184 C170 1.275 . S
O185 Ho160 2.669 . S
O185 Ho161 2.305 . S
O185 C170 1.256 . S
O186 Ho161 2.322 . S
O186 C171 1.259 . S
O187 Ho160 2.346 . S
O187 C171 1.268 . S
O188 Ho161 2.378 . S
O188 C172 1.215 . S
O189 Ho161 2.524 . S
O189 C172 1.289 . S
O190 Ho161 2.381 . S
O190 C179 1.275 . S
O191 Ho160 2.305 . S
O191 Ho161 2.669 . S
O191 C179 1.256 . S
H192 C165 0.930 . S
H193 C166 0.931 . S
H194 C168 0.934 . S
H195 C169 0.930 . S
H196 C174 0.930 . S
H197 C175 0.931 . S
H198 C177 0.934 . S
H199 C178 0.930 . S
Ho200 C203 2.811 . S
Ho200 O220 2.322 . S
Ho200 O222 2.378 . S
Ho200 O223 2.524 . S
Ho200 O224 2.381 . S
Ho200 O225 2.669 . S
Ho200 O227 2.346 . S
Ho200 O231 2.305 . S
Ho201 C212 2.811 . S
Ho201 O221 2.346 . S
Ho201 O225 2.305 . S
Ho201 O226 2.322 . S
Ho201 O228 2.378 . S
Ho201 O229 2.524 . S
Ho201 O230 2.381 . S
Ho201 O231 2.669 . S
C202 O220 1.259 . S
C202 O221 1.268 . S
C203 Ho200 2.811 . S
C203 C204 1.488 . S
C203 O222 1.215 . S
C203 O223 1.289 . S
C204 C203 1.488 . S
C204 C205 1.348 . S
C204 C209 1.413 . S
C205 C204 1.348 . S
C205 C206 1.442 1_655 S
C205 H232 0.930 . S
C206 C205 1.442 1_455 S
C206 C207 1.381 . S
C206 H233 0.931 . S
C207 C206 1.381 . S
C207 C208 1.321 . S
C208 C207 1.321 . S
C208 C209 1.403 1_455 S
C208 H234 0.934 . S
C209 C204 1.413 . S
C209 C208 1.403 1_655 S
C209 H235 0.930 . S
C210 O224 1.275 . S
C210 O225 1.256 . S
C211 O226 1.259 . S
C211 O227 1.268 . S
C212 Ho201 2.811 . S
C212 C213 1.488 . S
C212 O228 1.215 . S
C212 O229 1.289 . S
C213 C212 1.488 . S
C213 C214 1.348 . S
C213 C218 1.413 . S
C214 C213 1.348 . S
C214 C215 1.442 . S
C214 H236 0.930 . S
C215 C214 1.442 . S
C215 C216 1.381 . S
C215 H237 0.931 . S
C216 C215 1.381 . S
C216 C217 1.321 . S
C217 C216 1.321 . S
C217 C218 1.403 . S
C217 H238 0.934 . S
C218 C213 1.413 . S
C218 C217 1.403 . S
C218 H239 0.930 . S
C219 O230 1.275 . S
C219 O231 1.256 . S
O220 Ho200 2.322 . S
O220 C202 1.259 . S
O221 Ho201 2.346 . S
O221 C202 1.268 . S
O222 Ho200 2.378 . S
O222 C203 1.215 . S
O223 Ho200 2.524 . S
O223 C203 1.289 . S
O224 Ho200 2.381 . S
O224 C210 1.275 . S
O225 Ho200 2.669 . S
O225 Ho201 2.305 . S
O225 C210 1.256 . S
O226 Ho201 2.322 . S
O226 C211 1.259 . S
O227 Ho200 2.346 . S
O227 C211 1.268 . S
O228 Ho201 2.378 . S
O228 C212 1.215 . S
O229 Ho201 2.524 . S
O229 C212 1.289 . S
O230 Ho201 2.381 . S
O230 C219 1.275 . S
O231 Ho200 2.305 . S
O231 Ho201 2.669 . S
O231 C219 1.256 . S
H232 C205 0.930 . S
H233 C206 0.931 . S
H234 C208 0.934 . S
H235 C209 0.930 . S
H236 C214 0.930 . S
H237 C215 0.931 . S
H238 C217 0.934 . S
H239 C218 0.930 . S
Ho240 C243 2.811 . S
Ho240 O260 2.322 . S
Ho240 O262 2.378 . S
Ho240 O263 2.524 . S
Ho240 O264 2.381 . S
Ho240 O265 2.669 . S
Ho240 O267 2.346 . S
Ho240 O271 2.305 . S
Ho241 C252 2.811 . S
Ho241 O261 2.346 . S
Ho241 O265 2.305 . S
Ho241 O266 2.322 . S
Ho241 O268 2.378 . S
Ho241 O269 2.524 . S
Ho241 O270 2.381 . S
Ho241 O271 2.669 . S
C242 O260 1.259 . S
C242 O261 1.268 . S
C243 Ho240 2.811 . S
C243 C244 1.488 . S
C243 O262 1.215 . S
C243 O263 1.289 . S
C244 C243 1.488 . S
C244 C245 1.348 . S
C244 C249 1.413 . S
C245 C244 1.348 . S
C245 C246 1.442 1_455 S
C245 H272 0.930 . S
C246 C245 1.442 1_655 S
C246 C247 1.381 . S
C246 H273 0.931 . S
C247 C246 1.381 . S
C247 C248 1.321 . S
C248 C247 1.321 . S
C248 C249 1.403 1_655 S
C248 H274 0.934 . S
C249 C244 1.413 . S
C249 C248 1.403 1_455 S
C249 H275 0.930 . S
C250 O264 1.275 . S
C250 O265 1.256 . S
C251 O266 1.259 . S
C251 O267 1.268 . S
C252 Ho241 2.811 . S
C252 C253 1.488 . S
C252 O268 1.215 . S
C252 O269 1.289 . S
C253 C252 1.488 . S
C253 C254 1.348 . S
C253 C258 1.413 . S
C254 C253 1.348 . S
C254 C255 1.442 . S
C254 H276 0.930 . S
C255 C254 1.442 . S
C255 C256 1.381 . S
C255 H277 0.931 . S
C256 C255 1.381 . S
C256 C257 1.321 . S
C257 C256 1.321 . S
C257 C258 1.403 . S
C257 H278 0.934 . S
C258 C253 1.413 . S
C258 C257 1.403 . S
C258 H279 0.930 . S
C259 O270 1.275 . S
C259 O271 1.256 . S
O260 Ho240 2.322 . S
O260 C242 1.259 . S
O261 Ho241 2.346 . S
O261 C242 1.268 . S
O262 Ho240 2.378 . S
O262 C243 1.215 . S
O263 Ho240 2.524 . S
O263 C243 1.289 . S
O264 Ho240 2.381 . S
O264 C250 1.275 . S
O265 Ho240 2.669 . S
O265 Ho241 2.305 . S
O265 C250 1.256 . S
O266 Ho241 2.322 . S
O266 C251 1.259 . S
O267 Ho240 2.346 . S
O267 C251 1.268 . S
O268 Ho241 2.378 . S
O268 C252 1.215 . S
O269 Ho241 2.524 . S
O269 C252 1.289 . S
O270 Ho241 2.381 . S
O270 C259 1.275 . S
O271 Ho240 2.305 . S
O271 Ho241 2.669 . S
O271 C259 1.256 . S
H272 C245 0.930 . S
H273 C246 0.931 . S
H274 C248 0.934 . S
H275 C249 0.930 . S
H276 C254 0.930 . S
H277 C255 0.931 . S
H278 C257 0.934 . S
H279 C258 0.930 . S
Ho280 C283 2.811 . S
Ho280 O300 2.322 . S
Ho280 O302 2.378 . S
Ho280 O303 2.524 . S
Ho280 O304 2.381 . S
Ho280 O305 2.669 . S
Ho280 O307 2.346 . S
Ho280 O311 2.305 . S
Ho281 C292 2.811 . S
Ho281 O301 2.346 . S
Ho281 O305 2.305 . S
Ho281 O306 2.322 . S
Ho281 O308 2.378 . S
Ho281 O309 2.524 . S
Ho281 O310 2.381 . S
Ho281 O311 2.669 . S
C282 O300 1.259 . S
C282 O301 1.268 . S
C283 Ho280 2.811 . S
C283 C284 1.488 . S
C283 O302 1.215 . S
C283 O303 1.289 . S
C284 C283 1.488 . S
C284 C285 1.348 . S
C284 C289 1.413 . S
C285 C284 1.348 . S
C285 C286 1.442 . S
C285 H312 0.930 . S
C286 C285 1.442 . S
C286 C287 1.381 . S
C286 H313 0.931 . S
C287 C286 1.381 . S
C287 C288 1.321 . S
C288 C287 1.321 . S
C288 C289 1.403 . S
C288 H314 0.934 . S
C289 C284 1.413 . S
C289 C288 1.403 . S
C289 H315 0.930 . S
C290 O304 1.275 . S
C290 O305 1.256 . S
C291 O306 1.259 . S
C291 O307 1.268 . S
C292 Ho281 2.811 . S
C292 C293 1.488 . S
C292 O308 1.215 . S
C292 O309 1.289 . S
C293 C292 1.488 . S
C293 C294 1.348 . S
C293 C298 1.413 . S
C294 C293 1.348 . S
C294 C295 1.442 1_565 S
C294 H316 0.930 . S
C295 C294 1.442 1_545 S
C295 C296 1.381 . S
C295 H317 0.931 . S
C296 C295 1.381 . S
C296 C297 1.321 . S
C297 C296 1.321 . S
C297 C298 1.403 1_545 S
C297 H318 0.934 . S
C298 C293 1.413 . S
C298 C297 1.403 1_565 S
C298 H319 0.930 . S
C299 O310 1.275 . S
C299 O311 1.256 . S
O300 Ho280 2.322 . S
O300 C282 1.259 . S
O301 Ho281 2.346 . S
O301 C282 1.268 . S
O302 Ho280 2.378 . S
O302 C283 1.215 . S
O303 Ho280 2.524 . S
O303 C283 1.289 . S
O304 Ho280 2.381 . S
O304 C290 1.275 . S
O305 Ho280 2.669 . S
O305 Ho281 2.305 . S
O305 C290 1.256 . S
O306 Ho281 2.322 . S
O306 C291 1.259 . S
O307 Ho280 2.346 . S
O307 C291 1.268 . S
O308 Ho281 2.378 . S
O308 C292 1.215 . S
O309 Ho281 2.524 . S
O309 C292 1.289 . S
O310 Ho281 2.381 . S
O310 C299 1.275 . S
O311 Ho280 2.305 . S
O311 Ho281 2.669 . S
O311 C299 1.256 . S
H312 C285 0.930 . S
H313 C286 0.931 . S
H314 C288 0.934 . S
H315 C289 0.930 . S
H316 C294 0.930 . S
H317 C295 0.931 . S
H318 C297 0.934 . S
H319 C298 0.930 . S
Ho320 C323 2.811 . S
Ho320 O340 2.322 . S
Ho320 O342 2.378 . S
Ho320 O343 2.524 . S
Ho320 O344 2.381 . S
Ho320 O345 2.669 . S
Ho320 O347 2.346 . S
Ho320 O351 2.305 . S
Ho321 C332 2.811 . S
Ho321 O341 2.346 . S
Ho321 O345 2.305 . S
Ho321 O346 2.322 . S
Ho321 O348 2.378 . S
Ho321 O349 2.524 . S
Ho321 O350 2.381 . S
Ho321 O351 2.669 . S
C322 O340 1.259 . S
C322 O341 1.268 . S
C323 Ho320 2.811 . S
C323 C324 1.488 . S
C323 O342 1.215 . S
C323 O343 1.289 . S
C324 C323 1.488 . S
C324 C325 1.348 . S
C324 C329 1.413 . S
C325 C324 1.348 . S
C325 C326 1.442 . S
C325 H352 0.930 . S
C326 C325 1.442 . S
C326 C327 1.381 . S
C326 H353 0.931 . S
C327 C326 1.381 . S
C327 C328 1.321 . S
C328 C327 1.321 . S
C328 C329 1.403 . S
C328 H354 0.934 . S
C329 C324 1.413 . S
C329 C328 1.403 . S
C329 H355 0.930 . S
C330 O344 1.275 . S
C330 O345 1.256 . S
C331 O346 1.259 . S
C331 O347 1.268 . S
C332 Ho321 2.811 . S
C332 C333 1.488 . S
C332 O348 1.215 . S
C332 O349 1.289 . S
C333 C332 1.488 . S
C333 C334 1.348 . S
C333 C338 1.413 . S
C334 C333 1.348 . S
C334 C335 1.442 . S
C334 H356 0.930 . S
C335 C334 1.442 . S
C335 C336 1.381 . S
C335 H357 0.931 . S
C336 C335 1.381 . S
C336 C337 1.321 . S
C337 C336 1.321 . S
C337 C338 1.403 . S
C337 H358 0.934 . S
C338 C333 1.413 . S
C338 C337 1.403 . S
C338 H359 0.930 . S
C339 O350 1.275 . S
C339 O351 1.256 . S
O340 Ho320 2.322 . S
O340 C322 1.259 . S
O341 Ho321 2.346 . S
O341 C322 1.268 . S
O342 Ho320 2.378 . S
O342 C323 1.215 . S
O343 Ho320 2.524 . S
O343 C323 1.289 . S
O344 Ho320 2.381 . S
O344 C330 1.275 . S
O345 Ho320 2.669 . S
O345 Ho321 2.305 . S
O345 C330 1.256 . S
O346 Ho321 2.322 . S
O346 C331 1.259 . S
O347 Ho320 2.346 . S
O347 C331 1.268 . S
O348 Ho321 2.378 . S
O348 C332 1.215 . S
O349 Ho321 2.524 . S
O349 C332 1.289 . S
O350 Ho321 2.381 . S
O350 C339 1.275 . S
O351 Ho320 2.305 . S
O351 Ho321 2.669 . S
O351 C339 1.256 . S
H352 C325 0.930 . S
H353 C326 0.931 . S
H354 C328 0.934 . S
H355 C329 0.930 . S
H356 C334 0.930 . S
H357 C335 0.931 . S
H358 C337 0.934 . S
H359 C338 0.930 . S
Ho360 C363 2.811 . S
Ho360 O380 2.322 . S
Ho360 O382 2.378 . S
Ho360 O383 2.524 . S
Ho360 O384 2.381 . S
Ho360 O385 2.669 . S
Ho360 O387 2.346 . S
Ho360 O391 2.305 . S
Ho361 C372 2.811 . S
Ho361 O381 2.346 . S
Ho361 O385 2.305 . S
Ho361 O386 2.322 . S
Ho361 O388 2.378 . S
Ho361 O389 2.524 . S
Ho361 O390 2.381 . S
Ho361 O391 2.669 . S
C362 O380 1.259 . S
C362 O381 1.268 . S
C363 Ho360 2.811 . S
C363 C364 1.488 . S
C363 O382 1.215 . S
C363 O383 1.289 . S
C364 C363 1.488 . S
C364 C365 1.348 . S
C364 C369 1.413 . S
C365 C364 1.348 . S
C365 C366 1.442 . S
C365 H392 0.930 . S
C366 C365 1.442 . S
C366 C367 1.381 . S
C366 H393 0.931 . S
C367 C366 1.381 . S
C367 C368 1.321 . S
C368 C367 1.321 . S
C368 C369 1.403 . S
C368 H394 0.934 . S
C369 C364 1.413 . S
C369 C368 1.403 . S
C369 H395 0.930 . S
C370 O384 1.275 . S
C370 O385 1.256 . S
C371 O386 1.259 . S
C371 O387 1.268 . S
C372 Ho361 2.811 . S
C372 C373 1.488 . S
C372 O388 1.215 . S
C372 O389 1.289 . S
C373 C372 1.488 . S
C373 C374 1.348 . S
C373 C378 1.413 . S
C374 C373 1.348 . S
C374 C375 1.442 1_455 S
C374 H396 0.930 . S
C375 C374 1.442 1_655 S
C375 C376 1.381 . S
C375 H397 0.931 . S
C376 C375 1.381 . S
C376 C377 1.321 . S
C377 C376 1.321 . S
C377 C378 1.403 1_655 S
C377 H398 0.934 . S
C378 C373 1.413 . S
C378 C377 1.403 1_455 S
C378 H399 0.930 . S
C379 O390 1.275 . S
C379 O391 1.256 . S
O380 Ho360 2.322 . S
O380 C362 1.259 . S
O381 Ho361 2.346 . S
O381 C362 1.268 . S
O382 Ho360 2.378 . S
O382 C363 1.215 . S
O383 Ho360 2.524 . S
O383 C363 1.289 . S
O384 Ho360 2.381 . S
O384 C370 1.275 . S
O385 Ho360 2.669 . S
O385 Ho361 2.305 . S
O385 C370 1.256 . S
O386 Ho361 2.322 . S
O386 C371 1.259 . S
O387 Ho360 2.346 . S
O387 C371 1.268 . S
O388 Ho361 2.378 . S
O388 C372 1.215 . S
O389 Ho361 2.524 . S
O389 C372 1.289 . S
O390 Ho361 2.381 . S
O390 C379 1.275 . S
O391 Ho360 2.305 . S
O391 Ho361 2.669 . S
O391 C379 1.256 . S
H392 C365 0.930 . S
H393 C366 0.931 . S
H394 C368 0.934 . S
H395 C369 0.930 . S
H396 C374 0.930 . S
H397 C375 0.931 . S
H398 C377 0.934 . S
H399 C378 0.930 . S
Ho400 C403 2.811 . S
Ho400 O420 2.322 . S
Ho400 O422 2.378 . S
Ho400 O423 2.524 . S
Ho400 O424 2.381 . S
Ho400 O425 2.669 . S
Ho400 O427 2.346 . S
Ho400 O431 2.305 . S
Ho401 C412 2.811 . S
Ho401 O421 2.346 . S
Ho401 O425 2.305 . S
Ho401 O426 2.322 . S
Ho401 O428 2.378 . S
Ho401 O429 2.524 . S
Ho401 O430 2.381 . S
Ho401 O431 2.669 . S
C402 O420 1.259 . S
C402 O421 1.268 . S
C403 Ho400 2.811 . S
C403 C404 1.488 . S
C403 O422 1.215 . S
C403 O423 1.289 . S
C404 C403 1.488 . S
C404 C405 1.348 . S
C404 C409 1.413 . S
C405 C404 1.348 . S
C405 C406 1.442 1_565 S
C405 H432 0.930 . S
C406 C405 1.442 1_545 S
C406 C407 1.381 . S
C406 H433 0.931 . S
C407 C406 1.381 . S
C407 C408 1.321 . S
C408 C407 1.321 . S
C408 C409 1.403 1_545 S
C408 H434 0.934 . S
C409 C404 1.413 . S
C409 C408 1.403 1_565 S
C409 H435 0.930 . S
C410 O424 1.275 . S
C410 O425 1.256 . S
C411 O426 1.259 . S
C411 O427 1.268 . S
C412 Ho401 2.811 . S
C412 C413 1.488 . S
C412 O428 1.215 . S
C412 O429 1.289 . S
C413 C412 1.488 . S
C413 C414 1.348 . S
C413 C418 1.413 . S
C414 C413 1.348 . S
C414 C415 1.442 . S
C414 H436 0.930 . S
C415 C414 1.442 . S
C415 C416 1.381 . S
C415 H437 0.931 . S
C416 C415 1.381 . S
C416 C417 1.321 . S
C417 C416 1.321 . S
C417 C418 1.403 . S
C417 H438 0.934 . S
C418 C413 1.413 . S
C418 C417 1.403 . S
C418 H439 0.930 . S
C419 O430 1.275 . S
C419 O431 1.256 . S
O420 Ho400 2.322 . S
O420 C402 1.259 . S
O421 Ho401 2.346 . S
O421 C402 1.268 . S
O422 Ho400 2.378 . S
O422 C403 1.215 . S
O423 Ho400 2.524 . S
O423 C403 1.289 . S
O424 Ho400 2.381 . S
O424 C410 1.275 . S
O425 Ho400 2.669 . S
O425 Ho401 2.305 . S
O425 C410 1.256 . S
O426 Ho401 2.322 . S
O426 C411 1.259 . S
O427 Ho400 2.346 . S
O427 C411 1.268 . S
O428 Ho401 2.378 . S
O428 C412 1.215 . S
O429 Ho401 2.524 . S
O429 C412 1.289 . S
O430 Ho401 2.381 . S
O430 C419 1.275 . S
O431 Ho400 2.305 . S
O431 Ho401 2.669 . S
O431 C419 1.256 . S
H432 C405 0.930 . S
H433 C406 0.931 . S
H434 C408 0.934 . S
H435 C409 0.930 . S
H436 C414 0.930 . S
H437 C415 0.931 . S
H438 C417 0.934 . S
H439 C418 0.930 . S
Ho440 C443 2.811 . S
Ho440 O460 2.322 . S
Ho440 O462 2.378 . S
Ho440 O463 2.524 . S
Ho440 O464 2.381 . S
Ho440 O465 2.669 . S
Ho440 O467 2.346 . S
Ho440 O471 2.305 . S
Ho441 C452 2.811 . S
Ho441 O461 2.346 . S
Ho441 O465 2.305 . S
Ho441 O466 2.322 . S
Ho441 O468 2.378 . S
Ho441 O469 2.524 . S
Ho441 O470 2.381 . S
Ho441 O471 2.669 . S
C442 O460 1.259 . S
C442 O461 1.268 . S
C443 Ho440 2.811 . S
C443 C444 1.488 . S
C443 O462 1.215 . S
C443 O463 1.289 . S
C444 C443 1.488 . S
C444 C445 1.348 . S
C444 C449 1.413 . S
C445 C444 1.348 . S
C445 C446 1.442 . S
C445 H472 0.930 . S
C446 C445 1.442 . S
C446 C447 1.381 . S
C446 H473 0.931 . S
C447 C446 1.381 . S
C447 C448 1.321 . S
C448 C447 1.321 . S
C448 C449 1.403 . S
C448 H474 0.934 . S
C449 C444 1.413 . S
C449 C448 1.403 . S
C449 H475 0.930 . S
C450 O464 1.275 . S
C450 O465 1.256 . S
C451 O466 1.259 . S
C451 O467 1.268 . S
C452 Ho441 2.811 . S
C452 C453 1.488 . S
C452 O468 1.215 . S
C452 O469 1.289 . S
C453 C452 1.488 . S
C453 C454 1.348 . S
C453 C458 1.413 . S
C454 C453 1.348 . S
C454 C455 1.442 . S
C454 H476 0.930 . S
C455 C454 1.442 . S
C455 C456 1.381 . S
C455 H477 0.931 . S
C456 C455 1.381 . S
C456 C457 1.321 . S
C457 C456 1.321 . S
C457 C458 1.403 . S
C457 H478 0.934 . S
C458 C453 1.413 . S
C458 C457 1.403 . S
C458 H479 0.930 . S
C459 O470 1.275 . S
C459 O471 1.256 . S
O460 Ho440 2.322 . S
O460 C442 1.259 . S
O461 Ho441 2.346 . S
O461 C442 1.268 . S
O462 Ho440 2.378 . S
O462 C443 1.215 . S
O463 Ho440 2.524 . S
O463 C443 1.289 . S
O464 Ho440 2.381 . S
O464 C450 1.275 . S
O465 Ho440 2.669 . S
O465 Ho441 2.305 . S
O465 C450 1.256 . S
O466 Ho441 2.322 . S
O466 C451 1.259 . S
O467 Ho440 2.346 . S
O467 C451 1.268 . S
O468 Ho441 2.378 . S
O468 C452 1.215 . S
O469 Ho441 2.524 . S
O469 C452 1.289 . S
O470 Ho441 2.381 . S
O470 C459 1.275 . S
O471 Ho440 2.305 . S
O471 Ho441 2.669 . S
O471 C459 1.256 . S
H472 C445 0.930 . S
H473 C446 0.931 . S
H474 C448 0.934 . S
H475 C449 0.930 . S
H476 C454 0.930 . S
H477 C455 0.931 . S
H478 C457 0.934 . S
H479 C458 0.930 . S
C480 C481 1.349 . S
C480 C482 1.327 . S
C480 H505 0.950 . S
C481 C480 1.349 . S
C481 C497 1.349 . S
C482 C480 1.327 . S
C482 C501 1.429 . S
C482 H506 0.950 . S
C483 C500 1.574 . S
C483 C502 1.368 . S
C483 H507 0.949 . S
H484 C488 0.949 . S
C485 C486 1.349 . S
C485 C487 1.327 . S
C485 H508 0.950 . S
C486 C485 1.349 . S
C486 C498 1.349 . S
C487 C485 1.327 . S
C487 C503 1.429 . S
C487 H509 0.950 . S
C488 H484 0.949 . S
C488 C496 1.574 . S
C488 C504 1.368 . S
H489 C497 0.950 . S
H490 C495 0.950 . S
H491 C496 0.949 . S
H492 C498 0.950 . S
H493 C499 0.950 . S
H494 C500 0.949 . S
C495 H490 0.950 . S
C495 C497 1.327 . S
C495 C501 1.429 . S
C496 C488 1.574 . S
C496 H491 0.949 . S
C496 C502 1.368 . S
C497 C481 1.349 . S
C497 H489 0.950 . S
C497 C495 1.327 . S
C498 C486 1.349 . S
C498 H492 0.950 . S
C498 C499 1.327 . S
C499 H493 0.950 . S
C499 C498 1.327 . S
C499 C503 1.429 . S
C500 C483 1.574 . S
C500 H494 0.949 . S
C500 C504 1.368 . S
C501 C482 1.429 . S
C501 C495 1.429 . S
C501 C502 1.523 . S
C502 C483 1.368 . S
C502 C496 1.368 . S
C502 C501 1.523 . S
C503 C487 1.429 . S
C503 C499 1.429 . S
C503 C504 1.523 . S
C504 C488 1.368 . S
C504 C500 1.368 . S
C504 C503 1.523 . S
H505 C480 0.950 . S
H506 C482 0.950 . S
H507 C483 0.949 . S
H508 C485 0.950 . S
H509 C487 0.950 . S
C510 C511 1.349 . S
C510 C512 1.327 . S
C510 H535 0.950 . S
C511 C510 1.349 . S
C511 C527 1.349 . S
C512 C510 1.327 . S
C512 C531 1.429 . S
C512 H536 0.950 . S
C513 C530 1.574 1_455 S
C513 C532 1.368 . S
C513 H537 0.949 . S
H514 C518 0.949 . S
C515 C516 1.349 . S
C515 C517 1.327 . S
C515 H538 0.950 . S
C516 C515 1.349 . S
C516 C528 1.349 . S
C517 C515 1.327 . S
C517 C533 1.429 . S
C517 H539 0.950 . S
C518 H514 0.949 . S
C518 C526 1.574 1_655 S
C518 C534 1.368 . S
H519 C527 0.950 . S
H520 C525 0.950 . S
H521 C526 0.949 . S
H522 C528 0.950 . S
H523 C529 0.950 . S
H524 C530 0.949 . S
C525 H520 0.950 . S
C525 C527 1.327 . S
C525 C531 1.429 . S
C526 C518 1.574 1_455 S
C526 H521 0.949 . S
C526 C532 1.368 . S
C527 C511 1.349 . S
C527 H519 0.950 . S
C527 C525 1.327 . S
C528 C516 1.349 . S
C528 H522 0.950 . S
C528 C529 1.327 . S
C529 H523 0.950 . S
C529 C528 1.327 . S
C529 C533 1.429 . S
C530 C513 1.574 1_655 S
C530 H524 0.949 . S
C530 C534 1.368 . S
C531 C512 1.429 . S
C531 C525 1.429 . S
C531 C532 1.523 . S
C532 C513 1.368 . S
C532 C526 1.368 . S
C532 C531 1.523 . S
C533 C517 1.429 . S
C533 C529 1.429 . S
C533 C534 1.523 . S
C534 C518 1.368 . S
C534 C530 1.368 . S
C534 C533 1.523 . S
H535 C510 0.950 . S
H536 C512 0.950 . S
H537 C513 0.949 . S
H538 C515 0.950 . S
H539 C517 0.950 . S
C540 C541 1.349 . S
C540 C542 1.327 . S
C540 H565 0.950 . S
C541 C540 1.349 . S
C541 C557 1.349 . S
C542 C540 1.327 . S
C542 C561 1.429 . S
C542 H566 0.950 . S
C543 C560 1.574 1_545 S
C543 C562 1.368 . S
C543 H567 0.949 . S
H544 C548 0.949 . S
C545 C546 1.349 . S
C545 C547 1.327 . S
C545 H568 0.950 . S
C546 C545 1.349 . S
C546 C558 1.349 . S
C547 C545 1.327 . S
C547 C563 1.429 . S
C547 H569 0.950 . S
C548 H544 0.949 . S
C548 C556 1.574 1_565 S
C548 C564 1.368 . S
H549 C557 0.950 . S
H550 C555 0.950 . S
H551 C556 0.949 . S
H552 C558 0.950 . S
H553 C559 0.950 . S
H554 C560 0.949 . S
C555 H550 0.950 . S
C555 C557 1.327 . S
C555 C561 1.429 . S
C556 C548 1.574 1_545 S
C556 H551 0.949 . S
C556 C562 1.368 . S
C557 C541 1.349 . S
C557 H549 0.950 . S
C557 C555 1.327 . S
C558 C546 1.349 . S
C558 H552 0.950 . S
C558 C559 1.327 . S
C559 H553 0.950 . S
C559 C558 1.327 . S
C559 C563 1.429 . S
C560 C543 1.574 1_565 S
C560 H554 0.949 . S
C560 C564 1.368 . S
C561 C542 1.429 . S
C561 C555 1.429 . S
C561 C562 1.523 . S
C562 C543 1.368 . S
C562 C556 1.368 . S
C562 C561 1.523 . S
C563 C547 1.429 . S
C563 C559 1.429 . S
C563 C564 1.523 . S
C564 C548 1.368 . S
C564 C560 1.368 . S
C564 C563 1.523 . S
H565 C540 0.950 . S
H566 C542 0.950 . S
H567 C543 0.949 . S
H568 C545 0.950 . S
H569 C547 0.950 . S
C570 C571 1.349 . S
C570 C572 1.327 . S
C570 H595 0.950 . S
C571 C570 1.349 . S
C571 C587 1.349 . S
C572 C570 1.327 . S
C572 C591 1.429 . S
C572 H596 0.950 . S
C573 C590 1.574 . S
C573 C592 1.368 . S
C573 H597 0.949 . S
H574 C578 0.949 . S
C575 C576 1.349 . S
C575 C577 1.327 . S
C575 H598 0.950 . S
C576 C575 1.349 . S
C576 C588 1.349 . S
C577 C575 1.327 . S
C577 C593 1.429 . S
C577 H599 0.950 . S
C578 H574 0.949 . S
C578 C586 1.574 . S
C578 C594 1.368 . S
H579 C587 0.950 . S
H580 C585 0.950 . S
H581 C586 0.949 . S
H582 C588 0.950 . S
H583 C589 0.950 . S
H584 C590 0.949 . S
C585 H580 0.950 . S
C585 C587 1.327 . S
C585 C591 1.429 . S
C586 C578 1.574 . S
C586 H581 0.949 . S
C586 C592 1.368 . S
C587 C571 1.349 . S
C587 H579 0.950 . S
C587 C585 1.327 . S
C588 C576 1.349 . S
C588 H582 0.950 . S
C588 C589 1.327 . S
C589 H583 0.950 . S
C589 C588 1.327 . S
C589 C593 1.429 . S
C590 C573 1.574 . S
C590 H584 0.949 . S
C590 C594 1.368 . S
C591 C572 1.429 . S
C591 C585 1.429 . S
C591 C592 1.523 . S
C592 C573 1.368 . S
C592 C586 1.368 . S
C592 C591 1.523 . S
C593 C577 1.429 . S
C593 C589 1.429 . S
C593 C594 1.523 . S
C594 C578 1.368 . S
C594 C590 1.368 . S
C594 C593 1.523 . S
H595 C570 0.950 . S
H596 C572 0.950 . S
H597 C573 0.949 . S
H598 C575 0.950 . S
H599 C577 0.950 . S
C600 C601 1.349 . S
C600 C602 1.327 . S
C600 H625 0.950 . S
C601 C600 1.349 . S
C601 C617 1.349 . S
C602 C600 1.327 . S
C602 C621 1.429 . S
C602 H626 0.950 . S
C603 C620 1.574 1_455 S
C603 C622 1.368 . S
C603 H627 0.949 . S
H604 C608 0.949 . S
C605 C606 1.349 . S
C605 C607 1.327 . S
C605 H628 0.950 . S
C606 C605 1.349 . S
C606 C618 1.349 . S
C607 C605 1.327 . S
C607 C623 1.429 . S
C607 H629 0.950 . S
C608 H604 0.949 . S
C608 C616 1.574 1_655 S
C608 C624 1.368 . S
H609 C617 0.950 . S
H610 C615 0.950 . S
H611 C616 0.949 . S
H612 C618 0.950 . S
H613 C619 0.950 . S
H614 C620 0.949 . S
C615 H610 0.950 . S
C615 C617 1.327 . S
C615 C621 1.429 . S
C616 C608 1.574 1_455 S
C616 H611 0.949 . S
C616 C622 1.368 . S
C617 C601 1.349 . S
C617 H609 0.950 . S
C617 C615 1.327 . S
C618 C606 1.349 . S
C618 H612 0.950 . S
C618 C619 1.327 . S
C619 H613 0.950 . S
C619 C618 1.327 . S
C619 C623 1.429 . S
C620 C603 1.574 1_655 S
C620 H614 0.949 . S
C620 C624 1.368 . S
C621 C602 1.429 . S
C621 C615 1.429 . S
C621 C622 1.523 . S
C622 C603 1.368 . S
C622 C616 1.368 . S
C622 C621 1.523 . S
C623 C607 1.429 . S
C623 C619 1.429 . S
C623 C624 1.523 . S
C624 C608 1.368 . S
C624 C620 1.368 . S
C624 C623 1.523 . S
H625 C600 0.950 . S
H626 C602 0.950 . S
H627 C603 0.949 . S
H628 C605 0.950 . S
H629 C607 0.950 . S
C630 C631 1.349 . S
C630 C632 1.327 . S
C630 H655 0.950 . S
C631 C630 1.349 . S
C631 C647 1.349 . S
C632 C630 1.327 . S
C632 C651 1.429 . S
C632 H656 0.950 . S
C633 C650 1.574 1_565 S
C633 C652 1.368 . S
C633 H657 0.949 . S
H634 C638 0.949 . S
C635 C636 1.349 . S
C635 C637 1.327 . S
C635 H658 0.950 . S
C636 C635 1.349 . S
C636 C648 1.349 . S
C637 C635 1.327 . S
C637 C653 1.429 . S
C637 H659 0.950 . S
C638 H634 0.949 . S
C638 C646 1.574 1_545 S
C638 C654 1.368 . S
H639 C647 0.950 . S
H640 C645 0.950 . S
H641 C646 0.949 . S
H642 C648 0.950 . S
H643 C649 0.950 . S
H644 C650 0.949 . S
C645 H640 0.950 . S
C645 C647 1.327 . S
C645 C651 1.429 . S
C646 C638 1.574 1_565 S
C646 H641 0.949 . S
C646 C652 1.368 . S
C647 C631 1.349 . S
C647 H639 0.950 . S
C647 C645 1.327 . S
C648 C636 1.349 . S
C648 H642 0.950 . S
C648 C649 1.327 . S
C649 H643 0.950 . S
C649 C648 1.327 . S
C649 C653 1.429 . S
C650 C633 1.574 1_545 S
C650 H644 0.949 . S
C650 C654 1.368 . S
C651 C632 1.429 . S
C651 C645 1.429 . S
C651 C652 1.523 . S
C652 C633 1.368 . S
C652 C646 1.368 . S
C652 C651 1.523 . S
C653 C637 1.429 . S
C653 C649 1.429 . S
C653 C654 1.523 . S
C654 C638 1.368 . S
C654 C650 1.368 . S
C654 C653 1.523 . S
H655 C630 0.950 . S
H656 C632 0.950 . S
H657 C633 0.949 . S
H658 C635 0.950 . S
H659 C637 0.950 . S
C660 C661 1.349 . S
C660 C662 1.327 . S
C660 H685 0.950 . S
C661 C660 1.349 . S
C661 C677 1.349 . S
C662 C660 1.327 . S
C662 C681 1.429 . S
C662 H686 0.950 . S
C663 C680 1.574 . S
C663 C682 1.368 . S
C663 H687 0.949 . S
H664 C668 0.949 . S
C665 C666 1.349 . S
C665 C667 1.327 . S
C665 H688 0.950 . S
C666 C665 1.349 . S
C666 C678 1.349 . S
C667 C665 1.327 . S
C667 C683 1.429 . S
C667 H689 0.950 . S
C668 H664 0.949 . S
C668 C676 1.574 . S
C668 C684 1.368 . S
H669 C677 0.950 . S
H670 C675 0.950 . S
H671 C676 0.949 . S
H672 C678 0.950 . S
H673 C679 0.950 . S
H674 C680 0.949 . S
C675 H670 0.950 . S
C675 C677 1.327 . S
C675 C681 1.429 . S
C676 C668 1.574 . S
C676 H671 0.949 . S
C676 C682 1.368 . S
C677 C661 1.349 . S
C677 H669 0.950 . S
C677 C675 1.327 . S
C678 C666 1.349 . S
C678 H672 0.950 . S
C678 C679 1.327 . S
C679 H673 0.950 . S
C679 C678 1.327 . S
C679 C683 1.429 . S
C680 C663 1.574 . S
C680 H674 0.949 . S
C680 C684 1.368 . S
C681 C662 1.429 . S
C681 C675 1.429 . S
C681 C682 1.523 . S
C682 C663 1.368 . S
C682 C676 1.368 . S
C682 C681 1.523 . S
C683 C667 1.429 . S
C683 C679 1.429 . S
C683 C684 1.523 . S
C684 C668 1.368 . S
C684 C680 1.368 . S
C684 C683 1.523 . S
H685 C660 0.950 . S
H686 C662 0.950 . S
H687 C663 0.949 . S
H688 C665 0.950 . S
H689 C667 0.950 . S
C690 C691 1.349 . S
C690 C692 1.327 . S
C690 H715 0.950 . S
C691 C690 1.349 . S
C691 C707 1.349 . S
C692 C690 1.327 . S
C692 C711 1.429 . S
C692 H716 0.950 . S
C693 C710 1.574 1_455 S
C693 C712 1.368 . S
C693 H717 0.949 . S
H694 C698 0.949 . S
C695 C696 1.349 . S
C695 C697 1.327 . S
C695 H718 0.950 . S
C696 C695 1.349 . S
C696 C708 1.349 . S
C697 C695 1.327 . S
C697 C713 1.429 . S
C697 H719 0.950 . S
C698 H694 0.949 . S
C698 C706 1.574 1_655 S
C698 C714 1.368 . S
H699 C707 0.950 . S
H700 C705 0.950 . S
H701 C706 0.949 . S
H702 C708 0.950 . S
H703 C709 0.950 . S
H704 C710 0.949 . S
C705 H700 0.950 . S
C705 C707 1.327 . S
C705 C711 1.429 . S
C706 C698 1.574 1_455 S
C706 H701 0.949 . S
C706 C712 1.368 . S
C707 C691 1.349 . S
C707 H699 0.950 . S
C707 C705 1.327 . S
C708 C696 1.349 . S
C708 H702 0.950 . S
C708 C709 1.327 . S
C709 H703 0.950 . S
C709 C708 1.327 . S
C709 C713 1.429 . S
C710 C693 1.574 1_655 S
C710 H704 0.949 . S
C710 C714 1.368 . S
C711 C692 1.429 . S
C711 C705 1.429 . S
C711 C712 1.523 . S
C712 C693 1.368 . S
C712 C706 1.368 . S
C712 C711 1.523 . S
C713 C697 1.429 . S
C713 C709 1.429 . S
C713 C714 1.523 . S
C714 C698 1.368 . S
C714 C710 1.368 . S
C714 C713 1.523 . S
H715 C690 0.950 . S
H716 C692 0.950 . S
H717 C693 0.949 . S
H718 C695 0.950 . S
H719 C697 0.950 . S
C720 C721 1.349 . S
C720 C722 1.327 . S
C720 H745 0.950 . S
C721 C720 1.349 . S
C721 C737 1.349 . S
C722 C720 1.327 . S
C722 C741 1.429 . S
C722 H746 0.950 . S
C723 C740 1.574 1_565 S
C723 C742 1.368 . S
C723 H747 0.949 . S
H724 C728 0.949 . S
C725 C726 1.349 . S
C725 C727 1.327 . S
C725 H748 0.950 . S
C726 C725 1.349 . S
C726 C738 1.349 . S
C727 C725 1.327 . S
C727 C743 1.429 . S
C727 H749 0.950 . S
C728 H724 0.949 . S
C728 C736 1.574 1_545 S
C728 C744 1.368 . S
H729 C737 0.950 . S
H730 C735 0.950 . S
H731 C736 0.949 . S
H732 C738 0.950 . S
H733 C739 0.950 . S
H734 C740 0.949 . S
C735 H730 0.950 . S
C735 C737 1.327 . S
C735 C741 1.429 . S
C736 C728 1.574 1_565 S
C736 H731 0.949 . S
C736 C742 1.368 . S
C737 C721 1.349 . S
C737 H729 0.950 . S
C737 C735 1.327 . S
C738 C726 1.349 . S
C738 H732 0.950 . S
C738 C739 1.327 . S
C739 H733 0.950 . S
C739 C738 1.327 . S
C739 C743 1.429 . S
C740 C723 1.574 1_545 S
C740 H734 0.949 . S
C740 C744 1.368 . S
C741 C722 1.429 . S
C741 C735 1.429 . S
C741 C742 1.523 . S
C742 C723 1.368 . S
C742 C736 1.368 . S
C742 C741 1.523 . S
C743 C727 1.429 . S
C743 C739 1.429 . S
C743 C744 1.523 . S
C744 C728 1.368 . S
C744 C740 1.368 . S
C744 C743 1.523 . S
H745 C720 0.950 . S
H746 C722 0.950 . S
H747 C723 0.949 . S
H748 C725 0.950 . S
H749 C727 0.950 . S
C750 C751 1.349 . S
C750 C752 1.327 . S
C750 H775 0.950 . S
C751 C750 1.349 . S
C751 C767 1.349 . S
C752 C750 1.327 . S
C752 C771 1.429 . S
C752 H776 0.950 . S
C753 C770 1.574 . S
C753 C772 1.368 . S
C753 H777 0.949 . S
H754 C758 0.949 . S
C755 C756 1.349 . S
C755 C757 1.327 . S
C755 H778 0.950 . S
C756 C755 1.349 . S
C756 C768 1.349 . S
C757 C755 1.327 . S
C757 C773 1.429 . S
C757 H779 0.950 . S
C758 H754 0.949 . S
C758 C766 1.574 . S
C758 C774 1.368 . S
H759 C767 0.950 . S
H760 C765 0.950 . S
H761 C766 0.949 . S
H762 C768 0.950 . S
H763 C769 0.950 . S
H764 C770 0.949 . S
C765 H760 0.950 . S
C765 C767 1.327 . S
C765 C771 1.429 . S
C766 C758 1.574 . S
C766 H761 0.949 . S
C766 C772 1.368 . S
C767 C751 1.349 . S
C767 H759 0.950 . S
C767 C765 1.327 . S
C768 C756 1.349 . S
C768 H762 0.950 . S
C768 C769 1.327 . S
C769 H763 0.950 . S
C769 C768 1.327 . S
C769 C773 1.429 . S
C770 C753 1.574 . S
C770 H764 0.949 . S
C770 C774 1.368 . S
C771 C752 1.429 . S
C771 C765 1.429 . S
C771 C772 1.523 . S
C772 C753 1.368 . S
C772 C766 1.368 . S
C772 C771 1.523 . S
C773 C757 1.429 . S
C773 C769 1.429 . S
C773 C774 1.523 . S
C774 C758 1.368 . S
C774 C770 1.368 . S
C774 C773 1.523 . S
H775 C750 0.950 . S
H776 C752 0.950 . S
H777 C753 0.949 . S
H778 C755 0.950 . S
H779 C757 0.950 . S
C780 C781 1.349 . S
C780 C782 1.327 . S
C780 H805 0.950 . S
C781 C780 1.349 . S
C781 C797 1.349 . S
C782 C780 1.327 . S
C782 C801 1.429 . S
C782 H806 0.950 . S
C783 C800 1.574 1_455 S
C783 C802 1.368 . S
C783 H807 0.949 . S
H784 C788 0.949 . S
C785 C786 1.349 . S
C785 C787 1.327 . S
C785 H808 0.950 . S
C786 C785 1.349 . S
C786 C798 1.349 . S
C787 C785 1.327 . S
C787 C803 1.429 . S
C787 H809 0.950 . S
C788 H784 0.949 . S
C788 C796 1.574 1_655 S
C788 C804 1.368 . S
H789 C797 0.950 . S
H790 C795 0.950 . S
H791 C796 0.949 . S
H792 C798 0.950 . S
H793 C799 0.950 . S
H794 C800 0.949 . S
C795 H790 0.950 . S
C795 C797 1.327 . S
C795 C801 1.429 . S
C796 C788 1.574 1_455 S
C796 H791 0.949 . S
C796 C802 1.368 . S
C797 C781 1.349 . S
C797 H789 0.950 . S
C797 C795 1.327 . S
C798 C786 1.349 . S
C798 H792 0.950 . S
C798 C799 1.327 . S
C799 H793 0.950 . S
C799 C798 1.327 . S
C799 C803 1.429 . S
C800 C783 1.574 1_655 S
C800 H794 0.949 . S
C800 C804 1.368 . S
C801 C782 1.429 . S
C801 C795 1.429 . S
C801 C802 1.523 . S
C802 C783 1.368 . S
C802 C796 1.368 . S
C802 C801 1.523 . S
C803 C787 1.429 . S
C803 C799 1.429 . S
C803 C804 1.523 . S
C804 C788 1.368 . S
C804 C800 1.368 . S
C804 C803 1.523 . S
H805 C780 0.950 . S
H806 C782 0.950 . S
H807 C783 0.949 . S
H808 C785 0.950 . S
H809 C787 0.950 . S
C810 C811 1.349 . S
C810 C812 1.327 . S
C810 H835 0.950 . S
C811 C810 1.349 . S
C811 C827 1.349 . S
C812 C810 1.327 . S
C812 C831 1.429 . S
C812 H836 0.950 . S
C813 C830 1.574 1_545 S
C813 C832 1.368 . S
C813 H837 0.949 . S
H814 C818 0.949 . S
C815 C816 1.349 . S
C815 C817 1.327 . S
C815 H838 0.950 . S
C816 C815 1.349 . S
C816 C828 1.349 . S
C817 C815 1.327 . S
C817 C833 1.429 . S
C817 H839 0.950 . S
C818 H814 0.949 . S
C818 C826 1.574 1_565 S
C818 C834 1.368 . S
H819 C827 0.950 . S
H820 C825 0.950 . S
H821 C826 0.949 . S
H822 C828 0.950 . S
H823 C829 0.950 . S
H824 C830 0.949 . S
C825 H820 0.950 . S
C825 C827 1.327 . S
C825 C831 1.429 . S
C826 C818 1.574 1_545 S
C826 H821 0.949 . S
C826 C832 1.368 . S
C827 C811 1.349 . S
C827 H819 0.950 . S
C827 C825 1.327 . S
C828 C816 1.349 . S
C828 H822 0.950 . S
C828 C829 1.327 . S
C829 H823 0.950 . S
C829 C828 1.327 . S
C829 C833 1.429 . S
C830 C813 1.574 1_565 S
C830 H824 0.949 . S
C830 C834 1.368 . S
C831 C812 1.429 . S
C831 C825 1.429 . S
C831 C832 1.523 . S
C832 C813 1.368 . S
C832 C826 1.368 . S
C832 C831 1.523 . S
C833 C817 1.429 . S
C833 C829 1.429 . S
C833 C834 1.523 . S
C834 C818 1.368 . S
C834 C830 1.368 . S
C834 C833 1.523 . S
H835 C810 0.950 . S
H836 C812 0.950 . S
H837 C813 0.949 . S
H838 C815 0.950 . S
H839 C817 0.950 . S
C840 C841 1.349 . S
C840 C842 1.327 . S
C840 H865 0.950 . S
C841 C840 1.349 . S
C841 C857 1.349 . S
C842 C840 1.327 . S
C842 C861 1.429 . S
C842 H866 0.950 . S
C843 C860 1.574 . S
C843 C862 1.368 . S
C843 H867 0.949 . S
H844 C848 0.949 . S
C845 C846 1.349 . S
C845 C847 1.327 . S
C845 H868 0.950 . S
C846 C845 1.349 . S
C846 C858 1.349 . S
C847 C845 1.327 . S
C847 C863 1.429 . S
C847 H869 0.950 . S
C848 H844 0.949 . S
C848 C856 1.574 . S
C848 C864 1.368 . S
H849 C857 0.950 . S
H850 C855 0.950 . S
H851 C856 0.949 . S
H852 C858 0.950 . S
H853 C859 0.950 . S
H854 C860 0.949 . S
C855 H850 0.950 . S
C855 C857 1.327 . S
C855 C861 1.429 . S
C856 C848 1.574 . S
C856 H851 0.949 . S
C856 C862 1.368 . S
C857 C841 1.349 . S
C857 H849 0.950 . S
C857 C855 1.327 . S
C858 C846 1.349 . S
C858 H852 0.950 . S
C858 C859 1.327 . S
C859 H853 0.950 . S
C859 C858 1.327 . S
C859 C863 1.429 . S
C860 C843 1.574 . S
C860 H854 0.949 . S
C860 C864 1.368 . S
C861 C842 1.429 . S
C861 C855 1.429 . S
C861 C862 1.523 . S
C862 C843 1.368 . S
C862 C856 1.368 . S
C862 C861 1.523 . S
C863 C847 1.429 . S
C863 C859 1.429 . S
C863 C864 1.523 . S
C864 C848 1.368 . S
C864 C860 1.368 . S
C864 C863 1.523 . S
H865 C840 0.950 . S
H866 C842 0.950 . S
H867 C843 0.949 . S
H868 C845 0.950 . S
H869 C847 0.950 . S
C870 C871 1.349 . S
C870 C872 1.327 . S
C870 H895 0.950 . S
C871 C870 1.349 . S
C871 C887 1.349 . S
C872 C870 1.327 . S
C872 C891 1.429 . S
C872 H896 0.950 . S
C873 C890 1.574 . S
C873 C892 1.368 . S
C873 H897 0.949 . S
H874 C878 0.949 . S
C875 C876 1.349 . S
C875 C877 1.327 . S
C875 H898 0.950 . S
C876 C875 1.349 . S
C876 C888 1.349 . S
C877 C875 1.327 . S
C877 C893 1.429 . S
C877 H899 0.950 . S
C878 H874 0.949 . S
C878 C886 1.574 . S
C878 C894 1.368 . S
H879 C887 0.950 . S
H880 C885 0.950 . S
H881 C886 0.949 . S
H882 C888 0.950 . S
H883 C889 0.950 . S
H884 C890 0.949 . S
C885 H880 0.950 . S
C885 C887 1.327 . S
C885 C891 1.429 . S
C886 C878 1.574 . S
C886 H881 0.949 . S
C886 C892 1.368 . S
C887 C871 1.349 . S
C887 H879 0.950 . S
C887 C885 1.327 . S
C888 C876 1.349 . S
C888 H882 0.950 . S
C888 C889 1.327 . S
C889 H883 0.950 . S
C889 C888 1.327 . S
C889 C893 1.429 . S
C890 C873 1.574 . S
C890 H884 0.949 . S
C890 C894 1.368 . S
C891 C872 1.429 . S
C891 C885 1.429 . S
C891 C892 1.523 . S
C892 C873 1.368 . S
C892 C886 1.368 . S
C892 C891 1.523 . S
C893 C877 1.429 . S
C893 C889 1.429 . S
C893 C894 1.523 . S
C894 C878 1.368 . S
C894 C890 1.368 . S
C894 C893 1.523 . S
H895 C870 0.950 . S
H896 C872 0.950 . S
H897 C873 0.949 . S
H898 C875 0.950 . S
H899 C877 0.950 . S
C900 C901 1.349 . S
C900 C902 1.327 . S
C900 H925 0.950 . S
C901 C900 1.349 . S
C901 C917 1.349 . S
C902 C900 1.327 . S
C902 C921 1.429 . S
C902 H926 0.950 . S
C903 C920 1.574 . S
C903 C922 1.368 . S
C903 H927 0.949 . S
H904 C908 0.949 . S
C905 C906 1.349 . S
C905 C907 1.327 . S
C905 H928 0.950 . S
C906 C905 1.349 . S
C906 C918 1.349 . S
C907 C905 1.327 . S
C907 C923 1.429 . S
C907 H929 0.950 . S
C908 H904 0.949 . S
C908 C916 1.574 . S
C908 C924 1.368 . S
H909 C917 0.950 . S
H910 C915 0.950 . S
H911 C916 0.949 . S
H912 C918 0.950 . S
H913 C919 0.950 . S
H914 C920 0.949 . S
C915 H910 0.950 . S
C915 C917 1.327 . S
C915 C921 1.429 . S
C916 C908 1.574 . S
C916 H911 0.949 . S
C916 C922 1.368 . S
C917 C901 1.349 . S
C917 H909 0.950 . S
C917 C915 1.327 . S
C918 C906 1.349 . S
C918 H912 0.950 . S
C918 C919 1.327 . S
C919 H913 0.950 . S
C919 C918 1.327 . S
C919 C923 1.429 . S
C920 C903 1.574 . S
C920 H914 0.949 . S
C920 C924 1.368 . S
C921 C902 1.429 . S
C921 C915 1.429 . S
C921 C922 1.523 . S
C922 C903 1.368 . S
C922 C916 1.368 . S
C922 C921 1.523 . S
C923 C907 1.429 . S
C923 C919 1.429 . S
C923 C924 1.523 . S
C924 C908 1.368 . S
C924 C920 1.368 . S
C924 C923 1.523 . S
H925 C900 0.950 . S
H926 C902 0.950 . S
H927 C903 0.949 . S
H928 C905 0.950 . S
H929 C907 0.950 . S
C930 C931 1.349 . S
C930 C932 1.327 . S
C930 H955 0.950 . S
C931 C930 1.349 . S
C931 C947 1.349 . S
C932 C930 1.327 . S
C932 C951 1.429 . S
C932 H956 0.950 . S
C933 C950 1.574 . S
C933 C952 1.368 . S
C933 H957 0.949 . S
H934 C938 0.949 . S
C935 C936 1.349 . S
C935 C937 1.327 . S
C935 H958 0.950 . S
C936 C935 1.349 . S
C936 C948 1.349 . S
C937 C935 1.327 . S
C937 C953 1.429 . S
C937 H959 0.950 . S
C938 H934 0.949 . S
C938 C946 1.574 . S
C938 C954 1.368 . S
H939 C947 0.950 . S
H940 C945 0.950 . S
H941 C946 0.949 . S
H942 C948 0.950 . S
H943 C949 0.950 . S
H944 C950 0.949 . S
C945 H940 0.950 . S
C945 C947 1.327 . S
C945 C951 1.429 . S
C946 C938 1.574 . S
C946 H941 0.949 . S
C946 C952 1.368 . S
C947 C931 1.349 . S
C947 H939 0.950 . S
C947 C945 1.327 . S
C948 C936 1.349 . S
C948 H942 0.950 . S
C948 C949 1.327 . S
C949 H943 0.950 . S
C949 C948 1.327 . S
C949 C953 1.429 . S
C950 C933 1.574 . S
C950 H944 0.949 . S
C950 C954 1.368 . S
C951 C932 1.429 . S
C951 C945 1.429 . S
C951 C952 1.523 . S
C952 C933 1.368 . S
C952 C946 1.368 . S
C952 C951 1.523 . S
C953 C937 1.429 . S
C953 C949 1.429 . S
C953 C954 1.523 . S
C954 C938 1.368 . S
C954 C950 1.368 . S
C954 C953 1.523 . S
H955 C930 0.950 . S
H956 C932 0.950 . S
H957 C933 0.949 . S
H958 C935 0.950 . S
H959 C937 0.950 . S
C960 C961 1.349 . S
C960 C962 1.327 . S
C960 H985 0.950 . S
C961 C960 1.349 . S
C961 C977 1.349 . S
C962 C960 1.327 . S
C962 C981 1.429 . S
C962 H986 0.950 . S
C963 C980 1.574 . S
C963 C982 1.368 . S
C963 H987 0.949 . S
H964 C968 0.949 . S
C965 C966 1.349 . S
C965 C967 1.327 . S
C965 H988 0.950 . S
C966 C965 1.349 . S
C966 C978 1.349 . S
C967 C965 1.327 . S
C967 C983 1.429 . S
C967 H989 0.950 . S
C968 H964 0.949 . S
C968 C976 1.574 . S
C968 C984 1.368 . S
H969 C977 0.950 . S
H970 C975 0.950 . S
H971 C976 0.949 . S
H972 C978 0.950 . S
H973 C979 0.950 . S
H974 C980 0.949 . S
C975 H970 0.950 . S
C975 C977 1.327 . S
C975 C981 1.429 . S
C976 C968 1.574 . S
C976 H971 0.949 . S
C976 C982 1.368 . S
C977 C961 1.349 . S
C977 H969 0.950 . S
C977 C975 1.327 . S
C978 C966 1.349 . S
C978 H972 0.950 . S
C978 C979 1.327 . S
C979 H973 0.950 . S
C979 C978 1.327 . S
C979 C983 1.429 . S
C980 C963 1.574 . S
C980 H974 0.949 . S
C980 C984 1.368 . S
C981 C962 1.429 . S
C981 C975 1.429 . S
C981 C982 1.523 . S
C982 C963 1.368 . S
C982 C976 1.368 . S
C982 C981 1.523 . S
C983 C967 1.429 . S
C983 C979 1.429 . S
C983 C984 1.523 . S
C984 C968 1.368 . S
C984 C980 1.368 . S
C984 C983 1.523 . S
H985 C960 0.950 . S
H986 C962 0.950 . S
H987 C963 0.949 . S
H988 C965 0.950 . S
H989 C967 0.950 . S
C990 C991 1.349 . S
C990 C992 1.327 . S
C990 H1015 0.950 . S
C991 C990 1.349 . S
C991 C1007 1.349 . S
C992 C990 1.327 . S
C992 C1011 1.429 . S
C992 H1016 0.950 . S
C993 C1010 1.574 . S
C993 C1012 1.368 . S
C993 H1017 0.949 . S
H994 C998 0.949 . S
C995 C996 1.349 . S
C995 C997 1.327 . S
C995 H1018 0.950 . S
C996 C995 1.349 . S
C996 C1008 1.349 . S
C997 C995 1.327 . S
C997 C1013 1.429 . S
C997 H1019 0.950 . S
C998 H994 0.949 . S
C998 C1006 1.574 . S
C998 C1014 1.368 . S
H999 C1007 0.950 . S
H1000 C1005 0.950 . S
H1001 C1006 0.949 . S
H1002 C1008 0.950 . S
H1003 C1009 0.950 . S
H1004 C1010 0.949 . S
C1005 H1000 0.950 . S
C1005 C1007 1.327 . S
C1005 C1011 1.429 . S
C1006 C998 1.574 . S
C1006 H1001 0.949 . S
C1006 C1012 1.368 . S
C1007 C991 1.349 . S
C1007 H999 0.950 . S
C1007 C1005 1.327 . S
C1008 C996 1.349 . S
C1008 H1002 0.950 . S
C1008 C1009 1.327 . S
C1009 H1003 0.950 . S
C1009 C1008 1.327 . S
C1009 C1013 1.429 . S
C1010 C993 1.574 . S
C1010 H1004 0.949 . S
C1010 C1014 1.368 . S
C1011 C992 1.429 . S
C1011 C1005 1.429 . S
C1011 C1012 1.523 . S
C1012 C993 1.368 . S
C1012 C1006 1.368 . S
C1012 C1011 1.523 . S
C1013 C997 1.429 . S
C1013 C1009 1.429 . S
C1013 C1014 1.523 . S
C1014 C998 1.368 . S
C1014 C1010 1.368 . S
C1014 C1013 1.523 . S
H1015 C990 0.950 . S
H1016 C992 0.950 . S
H1017 C993 0.949 . S
H1018 C995 0.950 . S
H1019 C997 0.950 . S
C1020 C1021 1.349 . S
C1020 C1022 1.327 . S
C1020 H1045 0.950 . S
C1021 C1020 1.349 . S
C1021 C1037 1.349 . S
C1022 C1020 1.327 . S
C1022 C1041 1.429 . S
C1022 H1046 0.950 . S
C1023 C1040 1.574 . S
C1023 C1042 1.368 1_545 S
C1023 H1047 0.949 . S
H1024 C1028 0.949 . S
C1025 C1026 1.349 . S
C1025 C1027 1.327 . S
C1025 H1048 0.950 . S
C1026 C1025 1.349 . S
C1026 C1038 1.349 . S
C1027 C1025 1.327 . S
C1027 C1043 1.429 . S
C1027 H1049 0.950 . S
C1028 H1024 0.949 . S
C1028 C1036 1.574 . S
C1028 C1044 1.368 1_565 S
H1029 C1037 0.950 . S
H1030 C1035 0.950 . S
H1031 C1036 0.949 . S
H1032 C1038 0.950 . S
H1033 C1039 0.950 . S
H1034 C1040 0.949 . S
C1035 H1030 0.950 . S
C1035 C1037 1.327 . S
C1035 C1041 1.429 . S
C1036 C1028 1.574 . S
C1036 H1031 0.949 . S
C1036 C1042 1.368 1_554 S
C1037 C1021 1.349 . S
C1037 H1029 0.950 . S
C1037 C1035 1.327 . S
C1038 C1026 1.349 . S
C1038 H1032 0.950 . S
C1038 C1039 1.327 . S
C1039 H1033 0.950 . S
C1039 C1038 1.327 . S
C1039 C1043 1.429 . S
C1040 C1023 1.574 . S
C1040 H1034 0.949 . S
C1040 C1044 1.368 1_556 S
C1041 C1022 1.429 . S
C1041 C1035 1.429 . S
C1041 C1042 1.523 . S
C1042 C1023 1.368 1_565 S
C1042 C1036 1.368 1_556 S
C1042 C1041 1.523 . S
C1043 C1027 1.429 . S
C1043 C1039 1.429 . S
C1043 C1044 1.523 . S
C1044 C1028 1.368 1_545 S
C1044 C1040 1.368 1_554 S
C1044 C1043 1.523 . S
H1045 C1020 0.950 . S
H1046 C1022 0.950 . S
H1047 C1023 0.949 . S
H1048 C1025 0.950 . S
H1049 C1027 0.950 . S
C1050 C1051 1.349 . S
C1050 C1052 1.327 . S
C1050 H1075 0.950 . S
C1051 C1050 1.349 . S
C1051 C1067 1.349 . S
C1052 C1050 1.327 . S
C1052 C1071 1.429 . S
C1052 H1076 0.950 . S
C1053 C1070 1.574 . S
C1053 C1072 1.368 . S
C1053 H1077 0.949 . S
H1054 C1058 0.949 . S
C1055 C1056 1.349 . S
C1055 C1057 1.327 . S
C1055 H1078 0.950 . S
C1056 C1055 1.349 . S
C1056 C1068 1.349 . S
C1057 C1055 1.327 . S
C1057 C1073 1.429 . S
C1057 H1079 0.950 . S
C1058 H1054 0.949 . S
C1058 C1066 1.574 . S
C1058 C1074 1.368 . S
H1059 C1067 0.950 . S
H1060 C1065 0.950 . S
H1061 C1066 0.949 . S
H1062 C1068 0.950 . S
H1063 C1069 0.950 . S
H1064 C1070 0.949 . S
C1065 H1060 0.950 . S
C1065 C1067 1.327 . S
C1065 C1071 1.429 . S
C1066 C1058 1.574 . S
C1066 H1061 0.949 . S
C1066 C1072 1.368 . S
C1067 C1051 1.349 . S
C1067 H1059 0.950 . S
C1067 C1065 1.327 . S
C1068 C1056 1.349 . S
C1068 H1062 0.950 . S
C1068 C1069 1.327 . S
C1069 H1063 0.950 . S
C1069 C1068 1.327 . S
C1069 C1073 1.429 . S
C1070 C1053 1.574 . S
C1070 H1064 0.949 . S
C1070 C1074 1.368 . S
C1071 C1052 1.429 . S
C1071 C1065 1.429 . S
C1071 C1072 1.523 . S
C1072 C1053 1.368 . S
C1072 C1066 1.368 . S
C1072 C1071 1.523 . S
C1073 C1057 1.429 . S
C1073 C1069 1.429 . S
C1073 C1074 1.523 . S
C1074 C1058 1.368 . S
C1074 C1070 1.368 . S
C1074 C1073 1.523 . S
H1075 C1050 0.950 . S
H1076 C1052 0.950 . S
H1077 C1053 0.949 . S
H1078 C1055 0.950 . S
H1079 C1057 0.950 . S
C1080 C1081 1.349 . S
C1080 C1082 1.327 . S
C1080 H1105 0.950 . S
C1081 C1080 1.349 . S
C1081 C1097 1.349 . S
C1082 C1080 1.327 . S
C1082 C1101 1.429 . S
C1082 H1106 0.950 . S
C1083 C1100 1.584 . S
C1083 C1102 1.368 1_554 S
C1083 H1107 0.949 . S
H1084 C1088 0.949 . S
C1085 C1086 1.349 . S
C1085 C1087 1.327 . S
C1085 H1108 0.950 . S
C1086 C1085 1.349 . S
C1086 C1098 1.349 . S
C1087 C1085 1.327 . S
C1087 C1103 1.429 . S
C1087 H1109 0.950 . S
C1088 H1084 0.949 . S
C1088 C1096 1.584 . S
C1088 C1104 1.368 1_556 S
H1089 C1097 0.950 . S
H1090 C1095 0.950 . S
H1091 C1096 0.945 . S
H1092 C1098 0.950 . S
H1093 C1099 0.950 . S
H1094 C1100 0.945 . S
C1095 H1090 0.950 . S
C1095 C1097 1.327 . S
C1095 C1101 1.429 . S
C1096 C1088 1.584 . S
C1096 H1091 0.945 . S
C1096 C1102 1.364 1_655 S
C1097 C1081 1.349 . S
C1097 H1089 0.950 . S
C1097 C1095 1.327 . S
C1098 C1086 1.349 . S
C1098 H1092 0.950 . S
C1098 C1099 1.327 . S
C1099 H1093 0.950 . S
C1099 C1098 1.327 . S
C1099 C1103 1.429 . S
C1100 C1083 1.584 . S
C1100 H1094 0.945 . S
C1100 C1104 1.364 1_455 S
C1101 C1082 1.429 . S
C1101 C1095 1.429 . S
C1101 C1102 1.523 . S
C1102 C1083 1.368 1_556 S
C1102 C1096 1.364 1_455 S
C1102 C1101 1.523 . S
C1103 C1087 1.429 . S
C1103 C1099 1.429 . S
C1103 C1104 1.523 . S
C1104 C1088 1.368 1_554 S
C1104 C1100 1.364 1_655 S
C1104 C1103 1.523 . S
H1105 C1080 0.950 . S
H1106 C1082 0.950 . S
H1107 C1083 0.949 . S
H1108 C1085 0.950 . S
H1109 C1087 0.950 . S
C1110 C1111 1.349 . S
C1110 C1112 1.327 . S
C1110 H1135 0.950 . S
C1111 C1110 1.349 . S
C1111 C1127 1.349 . S
C1112 C1110 1.327 . S
C1112 C1131 1.429 . S
C1112 H1136 0.950 . S
C1113 C1130 1.574 . S
C1113 C1132 1.368 1_565 S
C1113 H1137 0.949 . S
H1114 C1118 0.949 . S
C1115 C1116 1.349 . S
C1115 C1117 1.327 . S
C1115 H1138 0.950 . S
C1116 C1115 1.349 . S
C1116 C1128 1.349 . S
C1117 C1115 1.327 . S
C1117 C1133 1.429 . S
C1117 H1139 0.950 . S
C1118 H1114 0.949 . S
C1118 C1126 1.574 . S
C1118 C1134 1.368 1_545 S
H1119 C1127 0.950 . S
H1120 C1125 0.950 . S
H1121 C1126 0.949 . S
H1122 C1128 0.950 . S
H1123 C1129 0.950 . S
H1124 C1130 0.949 . S
C1125 H1120 0.950 . S
C1125 C1127 1.327 . S
C1125 C1131 1.429 . S
C1126 C1118 1.574 . S
C1126 H1121 0.949 . S
C1126 C1132 1.368 . S
C1127 C1111 1.349 . S
C1127 H1119 0.950 . S
C1127 C1125 1.327 . S
C1128 C1116 1.349 . S
C1128 H1122 0.950 . S
C1128 C1129 1.327 . S
C1129 H1123 0.950 . S
C1129 C1128 1.327 . S
C1129 C1133 1.429 . S
C1130 C1113 1.574 . S
C1130 H1124 0.949 . S
C1130 C1134 1.368 . S
C1131 C1112 1.429 . S
C1131 C1125 1.429 . S
C1131 C1132 1.523 . S
C1132 C1113 1.368 1_545 S
C1132 C1126 1.368 . S
C1132 C1131 1.523 . S
C1133 C1117 1.429 . S
C1133 C1129 1.429 . S
C1133 C1134 1.523 . S
C1134 C1118 1.368 1_565 S
C1134 C1130 1.368 . S
C1134 C1133 1.523 . S
H1135 C1110 0.950 . S
H1136 C1112 0.950 . S
H1137 C1113 0.949 . S
H1138 C1115 0.950 . S
H1139 C1117 0.950 . S
C1140 C1141 1.349 . S
C1140 C1142 1.327 . S
C1140 H1165 0.950 . S
C1141 C1140 1.349 . S
C1141 C1157 1.349 . S
C1142 C1140 1.327 . S
C1142 C1161 1.429 . S
C1142 H1166 0.950 . S
C1143 C1160 1.574 1_554 S
C1143 C1162 1.368 . S
C1143 H1167 0.949 . S
H1144 C1148 0.949 . S
C1145 C1146 1.349 . S
C1145 C1147 1.327 . S
C1145 H1168 0.950 . S
C1146 C1145 1.349 . S
C1146 C1158 1.349 . S
C1147 C1145 1.327 . S
C1147 C1163 1.429 . S
C1147 H1169 0.950 . S
C1148 H1144 0.949 . S
C1148 C1156 1.574 1_556 S
C1148 C1164 1.368 . S
H1149 C1157 0.950 . S
H1150 C1155 0.950 . S
H1151 C1156 0.949 . S
H1152 C1158 0.950 . S
H1153 C1159 0.950 . S
H1154 C1160 0.949 . S
C1155 H1150 0.950 . S
C1155 C1157 1.327 . S
C1155 C1161 1.429 . S
C1156 C1148 1.574 1_554 S
C1156 H1151 0.949 . S
C1156 C1162 1.368 . S
C1157 C1141 1.349 . S
C1157 H1149 0.950 . S
C1157 C1155 1.327 . S
C1158 C1146 1.349 . S
C1158 H1152 0.950 . S
C1158 C1159 1.327 . S
C1159 H1153 0.950 . S
C1159 C1158 1.327 . S
C1159 C1163 1.429 . S
C1160 C1143 1.574 1_556 S
C1160 H1154 0.949 . S
C1160 C1164 1.368 . S
C1161 C1142 1.429 . S
C1161 C1155 1.429 . S
C1161 C1162 1.523 . S
C1162 C1143 1.368 . S
C1162 C1156 1.368 . S
C1162 C1161 1.523 . S
C1163 C1147 1.429 . S
C1163 C1159 1.429 . S
C1163 C1164 1.523 . S
C1164 C1148 1.368 . S
C1164 C1160 1.368 . S
C1164 C1163 1.523 . S
H1165 C1140 0.950 . S
H1166 C1142 0.950 . S
H1167 C1143 0.949 . S
H1168 C1145 0.950 . S
H1169 C1147 0.950 . S
C1170 C1171 1.349 . S
C1170 C1172 1.327 . S
C1170 H1195 0.950 . S
C1171 C1170 1.349 . S
C1171 C1187 1.349 . S
C1172 C1170 1.327 . S
C1172 C1191 1.429 . S
C1172 H1196 0.950 . S
C1173 C1190 1.574 . S
C1173 C1192 1.368 . S
C1173 H1197 0.949 . S
H1174 C1178 0.949 . S
C1175 C1176 1.349 . S
C1175 C1177 1.327 . S
C1175 H1198 0.950 . S
C1176 C1175 1.349 . S
C1176 C1188 1.349 . S
C1177 C1175 1.327 . S
C1177 C1193 1.429 . S
C1177 H1199 0.950 . S
C1178 H1174 0.949 . S
C1178 C1186 1.574 . S
C1178 C1194 1.368 . S
H1179 C1187 0.950 . S
H1180 C1185 0.950 . S
H1181 C1186 0.949 . S
H1182 C1188 0.950 . S
H1183 C1189 0.950 . S
H1184 C1190 0.949 . S
C1185 H1180 0.950 . S
C1185 C1187 1.327 . S
C1185 C1191 1.429 . S
C1186 C1178 1.574 . S
C1186 H1181 0.949 . S
C1186 C1192 1.368 1_655 S
C1187 C1171 1.349 . S
C1187 H1179 0.950 . S
C1187 C1185 1.327 . S
C1188 C1176 1.349 . S
C1188 H1182 0.950 . S
C1188 C1189 1.327 . S
C1189 H1183 0.950 . S
C1189 C1188 1.327 . S
C1189 C1193 1.429 . S
C1190 C1173 1.574 . S
C1190 H1184 0.949 . S
C1190 C1194 1.368 1_455 S
C1191 C1172 1.429 . S
C1191 C1185 1.429 . S
C1191 C1192 1.523 . S
C1192 C1173 1.368 . S
C1192 C1186 1.368 1_455 S
C1192 C1191 1.523 . S
C1193 C1177 1.429 . S
C1193 C1189 1.429 . S
C1193 C1194 1.523 . S
C1194 C1178 1.368 . S
C1194 C1190 1.368 1_655 S
C1194 C1193 1.523 . S
H1195 C1170 0.950 . S
H1196 C1172 0.950 . S
H1197 C1173 0.949 . S
H1198 C1175 0.950 . S
H1199 C1177 0.950 . S
C1200 C1201 1.349 . S
C1200 C1202 1.327 . S
C1200 H1225 0.950 . S
C1201 C1200 1.349 . S
C1201 C1217 1.349 . S
C1202 C1200 1.327 . S
C1202 C1221 1.429 . S
C1202 H1226 0.950 . S
C1203 C1220 1.574 . S
C1203 C1222 1.368 . S
C1203 H1227 0.949 . S
H1204 C1208 0.949 . S
C1205 C1206 1.349 . S
C1205 C1207 1.327 . S
C1205 H1228 0.950 . S
C1206 C1205 1.349 . S
C1206 C1218 1.349 . S
C1207 C1205 1.327 . S
C1207 C1223 1.429 . S
C1207 H1229 0.950 . S
C1208 H1204 0.949 . S
C1208 C1216 1.574 . S
C1208 C1224 1.368 . S
H1209 C1217 0.950 . S
H1210 C1215 0.950 . S
H1211 C1216 0.949 . S
H1212 C1218 0.950 . S
H1213 C1219 0.950 . S
H1214 C1220 0.949 . S
C1215 H1210 0.950 . S
C1215 C1217 1.327 . S
C1215 C1221 1.429 . S
C1216 C1208 1.574 . S
C1216 H1211 0.949 . S
C1216 C1222 1.368 . S
C1217 C1201 1.349 . S
C1217 H1209 0.950 . S
C1217 C1215 1.327 . S
C1218 C1206 1.349 . S
C1218 H1212 0.950 . S
C1218 C1219 1.327 . S
C1219 H1213 0.950 . S
C1219 C1218 1.327 . S
C1219 C1223 1.429 . S
C1220 C1203 1.574 . S
C1220 H1214 0.949 . S
C1220 C1224 1.368 . S
C1221 C1202 1.429 . S
C1221 C1215 1.429 . S
C1221 C1222 1.523 . S
C1222 C1203 1.368 . S
C1222 C1216 1.368 . S
C1222 C1221 1.523 . S
C1223 C1207 1.429 . S
C1223 C1219 1.429 . S
C1223 C1224 1.523 . S
C1224 C1208 1.368 . S
C1224 C1220 1.368 . S
C1224 C1223 1.523 . S
H1225 C1200 0.950 . S
H1226 C1202 0.950 . S
H1227 C1203 0.949 . S
H1228 C1205 0.950 . S
H1229 C1207 0.950 . S
C1230 C1231 1.349 . S
C1230 C1232 1.327 . S
C1230 H1255 0.950 . S
C1231 C1230 1.349 . S
C1231 C1247 1.349 . S
C1232 C1230 1.327 . S
C1232 C1251 1.429 . S
C1232 H1256 0.950 . S
C1233 C1250 1.574 . S
C1233 C1252 1.368 . S
C1233 H1257 0.949 . S
H1234 C1238 0.949 . S
C1235 C1236 1.349 . S
C1235 C1237 1.327 . S
C1235 H1258 0.950 . S
C1236 C1235 1.349 . S
C1236 C1248 1.349 . S
C1237 C1235 1.327 . S
C1237 C1253 1.429 . S
C1237 H1259 0.950 . S
C1238 H1234 0.949 . S
C1238 C1246 1.574 . S
C1238 C1254 1.368 . S
H1239 C1247 0.950 . S
H1240 C1245 0.950 . S
H1241 C1246 0.949 . S
H1242 C1248 0.950 . S
H1243 C1249 0.950 . S
H1244 C1250 0.949 . S
C1245 H1240 0.950 . S
C1245 C1247 1.327 . S
C1245 C1251 1.429 . S
C1246 C1238 1.574 . S
C1246 H1241 0.949 . S
C1246 C1252 1.368 . S
C1247 C1231 1.349 . S
C1247 H1239 0.950 . S
C1247 C1245 1.327 . S
C1248 C1236 1.349 . S
C1248 H1242 0.950 . S
C1248 C1249 1.327 . S
C1249 H1243 0.950 . S
C1249 C1248 1.327 . S
C1249 C1253 1.429 . S
C1250 C1233 1.574 . S
C1250 H1244 0.949 . S
C1250 C1254 1.368 . S
C1251 C1232 1.429 . S
C1251 C1245 1.429 . S
C1251 C1252 1.523 . S
C1252 C1233 1.368 . S
C1252 C1246 1.368 . S
C1252 C1251 1.523 . S
C1253 C1237 1.429 . S
C1253 C1249 1.429 . S
C1253 C1254 1.523 . S
C1254 C1238 1.368 . S
C1254 C1250 1.368 . S
C1254 C1253 1.523 . S
H1255 C1230 0.950 . S
H1256 C1232 0.950 . S
H1257 C1233 0.949 . S
H1258 C1235 0.950 . S
H1259 C1237 0.950 . S
C1260 C1261 1.349 . S
C1260 C1262 1.327 . S
C1260 H1285 0.950 . S
C1261 C1260 1.349 . S
C1261 C1277 1.349 . S
C1262 C1260 1.327 . S
C1262 C1281 1.429 . S
C1262 H1286 0.950 . S
C1263 C1280 1.574 . S
C1263 C1282 1.368 . S
C1263 H1287 0.949 . S
H1264 C1268 0.949 . S
C1265 C1266 1.349 . S
C1265 C1267 1.327 . S
C1265 H1288 0.950 . S
C1266 C1265 1.349 . S
C1266 C1278 1.349 . S
C1267 C1265 1.327 . S
C1267 C1283 1.429 . S
C1267 H1289 0.950 . S
C1268 H1264 0.949 . S
C1268 C1276 1.574 . S
C1268 C1284 1.368 . S
H1269 C1277 0.950 . S
H1270 C1275 0.950 . S
H1271 C1276 0.949 . S
H1272 C1278 0.950 . S
H1273 C1279 0.950 . S
H1274 C1280 0.949 . S
C1275 H1270 0.950 . S
C1275 C1277 1.327 . S
C1275 C1281 1.429 . S
C1276 C1268 1.574 . S
C1276 H1271 0.949 . S
C1276 C1282 1.368 . S
C1277 C1261 1.349 . S
C1277 H1269 0.950 . S
C1277 C1275 1.327 . S
C1278 C1266 1.349 . S
C1278 H1272 0.950 . S
C1278 C1279 1.327 . S
C1279 H1273 0.950 . S
C1279 C1278 1.327 . S
C1279 C1283 1.429 . S
C1280 C1263 1.574 . S
C1280 H1274 0.949 . S
C1280 C1284 1.368 . S
C1281 C1262 1.429 . S
C1281 C1275 1.429 . S
C1281 C1282 1.523 . S
C1282 C1263 1.368 . S
C1282 C1276 1.368 . S
C1282 C1281 1.523 . S
C1283 C1267 1.429 . S
C1283 C1279 1.429 . S
C1283 C1284 1.523 . S
C1284 C1268 1.368 . S
C1284 C1280 1.368 . S
C1284 C1283 1.523 . S
H1285 C1260 0.950 . S
H1286 C1262 0.950 . S
H1287 C1263 0.949 . S
H1288 C1265 0.950 . S
H1289 C1267 0.950 . S
C1290 C1291 1.349 . S
C1290 C1292 1.327 . S
C1290 H1315 0.950 . S
C1291 C1290 1.349 . S
C1291 C1307 1.349 . S
C1292 C1290 1.327 . S
C1292 C1311 1.429 . S
C1292 H1316 0.950 . S
C1293 C1310 1.574 . S
C1293 C1312 1.368 . S
C1293 H1317 0.949 . S
H1294 C1298 0.949 . S
C1295 C1296 1.349 . S
C1295 C1297 1.327 . S
C1295 H1318 0.950 . S
C1296 C1295 1.349 . S
C1296 C1308 1.349 . S
C1297 C1295 1.327 . S
C1297 C1313 1.429 . S
C1297 H1319 0.950 . S
C1298 H1294 0.949 . S
C1298 C1306 1.574 . S
C1298 C1314 1.368 . S
H1299 C1307 0.950 . S
H1300 C1305 0.950 . S
H1301 C1306 0.949 . S
H1302 C1308 0.950 . S
H1303 C1309 0.950 . S
H1304 C1310 0.949 . S
C1305 H1300 0.950 . S
C1305 C1307 1.327 . S
C1305 C1311 1.429 . S
C1306 C1298 1.574 . S
C1306 H1301 0.949 . S
C1306 C1312 1.368 . S
C1307 C1291 1.349 . S
C1307 H1299 0.950 . S
C1307 C1305 1.327 . S
C1308 C1296 1.349 . S
C1308 H1302 0.950 . S
C1308 C1309 1.327 . S
C1309 H1303 0.950 . S
C1309 C1308 1.327 . S
C1309 C1313 1.429 . S
C1310 C1293 1.574 . S
C1310 H1304 0.949 . S
C1310 C1314 1.368 . S
C1311 C1292 1.429 . S
C1311 C1305 1.429 . S
C1311 C1312 1.523 . S
C1312 C1293 1.368 . S
C1312 C1306 1.368 . S
C1312 C1311 1.523 . S
C1313 C1297 1.429 . S
C1313 C1309 1.429 . S
C1313 C1314 1.523 . S
C1314 C1298 1.368 . S
C1314 C1310 1.368 . S
C1314 C1313 1.523 . S
H1315 C1290 0.950 . S
H1316 C1292 0.950 . S
H1317 C1293 0.949 . S
H1318 C1295 0.950 . S
H1319 C1297 0.950 . S
C1320 C1321 1.349 . S
C1320 C1322 1.327 . S
C1320 H1345 0.950 . S
C1321 C1320 1.349 . S
C1321 C1337 1.349 . S
C1322 C1320 1.327 . S
C1322 C1341 1.429 . S
C1322 H1346 0.950 . S
C1323 C1340 1.574 . S
C1323 C1342 1.368 . S
C1323 H1347 0.949 . S
H1324 C1328 0.949 . S
C1325 C1326 1.349 . S
C1325 C1327 1.327 . S
C1325 H1348 0.950 . S
C1326 C1325 1.349 . S
C1326 C1338 1.349 . S
C1327 C1325 1.327 . S
C1327 C1343 1.429 . S
C1327 H1349 0.950 . S
C1328 H1324 0.949 . S
C1328 C1336 1.574 . S
C1328 C1344 1.368 . S
H1329 C1337 0.950 . S
H1330 C1335 0.950 . S
H1331 C1336 0.949 . S
H1332 C1338 0.950 . S
H1333 C1339 0.950 . S
H1334 C1340 0.949 . S
C1335 H1330 0.950 . S
C1335 C1337 1.327 . S
C1335 C1341 1.429 . S
C1336 C1328 1.574 . S
C1336 H1331 0.949 . S
C1336 C1342 1.368 . S
C1337 C1321 1.349 . S
C1337 H1329 0.950 . S
C1337 C1335 1.327 . S
C1338 C1326 1.349 . S
C1338 H1332 0.950 . S
C1338 C1339 1.327 . S
C1339 H1333 0.950 . S
C1339 C1338 1.327 . S
C1339 C1343 1.429 . S
C1340 C1323 1.574 . S
C1340 H1334 0.949 . S
C1340 C1344 1.368 . S
C1341 C1322 1.429 . S
C1341 C1335 1.429 . S
C1341 C1342 1.523 . S
C1342 C1323 1.368 . S
C1342 C1336 1.368 . S
C1342 C1341 1.523 . S
C1343 C1327 1.429 . S
C1343 C1339 1.429 . S
C1343 C1344 1.523 . S
C1344 C1328 1.368 . S
C1344 C1340 1.368 . S
C1344 C1343 1.523 . S
H1345 C1320 0.950 . S
H1346 C1322 0.950 . S
H1347 C1323 0.949 . S
H1348 C1325 0.950 . S
H1349 C1327 0.950 . S
C1350 C1351 1.349 . S
C1350 C1352 1.327 . S
C1350 H1375 0.950 . S
C1351 C1350 1.349 . S
C1351 C1367 1.349 . S
C1352 C1350 1.327 . S
C1352 C1371 1.429 . S
C1352 H1376 0.950 . S
C1353 C1370 1.574 . S
C1353 C1372 1.368 . S
C1353 H1377 0.949 . S
H1354 C1358 0.949 . S
C1355 C1356 1.349 . S
C1355 C1357 1.327 . S
C1355 H1378 0.950 . S
C1356 C1355 1.349 . S
C1356 C1368 1.349 . S
C1357 C1355 1.327 . S
C1357 C1373 1.429 . S
C1357 H1379 0.950 . S
C1358 H1354 0.949 . S
C1358 C1366 1.574 . S
C1358 C1374 1.368 . S
H1359 C1367 0.950 . S
H1360 C1365 0.950 . S
H1361 C1366 0.949 . S
H1362 C1368 0.950 . S
H1363 C1369 0.950 . S
H1364 C1370 0.949 . S
C1365 H1360 0.950 . S
C1365 C1367 1.327 . S
C1365 C1371 1.429 . S
C1366 C1358 1.574 . S
C1366 H1361 0.949 . S
C1366 C1372 1.368 . S
C1367 C1351 1.349 . S
C1367 H1359 0.950 . S
C1367 C1365 1.327 . S
C1368 C1356 1.349 . S
C1368 H1362 0.950 . S
C1368 C1369 1.327 . S
C1369 H1363 0.950 . S
C1369 C1368 1.327 . S
C1369 C1373 1.429 . S
C1370 C1353 1.574 . S
C1370 H1364 0.949 . S
C1370 C1374 1.368 . S
C1371 C1352 1.429 . S
C1371 C1365 1.429 . S
C1371 C1372 1.523 . S
C1372 C1353 1.368 . S
C1372 C1366 1.368 . S
C1372 C1371 1.523 . S
C1373 C1357 1.429 . S
C1373 C1369 1.429 . S
C1373 C1374 1.523 . S
C1374 C1358 1.368 . S
C1374 C1370 1.368 . S
C1374 C1373 1.523 . S
H1375 C1350 0.950 . S
H1376 C1352 0.950 . S
H1377 C1353 0.949 . S
H1378 C1355 0.950 . S
H1379 C1357 0.950 . S
C1380 C1381 1.349 . S
C1380 C1382 1.327 . S
C1380 H1405 0.950 . S
C1381 C1380 1.349 . S
C1381 C1397 1.349 . S
C1382 C1380 1.327 . S
C1382 C1401 1.429 . S
C1382 H1406 0.950 . S
C1383 C1400 1.574 . S
C1383 C1402 1.368 . S
C1383 H1407 0.949 . S
H1384 C1388 0.949 . S
C1385 C1386 1.349 . S
C1385 C1387 1.327 . S
C1385 H1408 0.950 . S
C1386 C1385 1.349 . S
C1386 C1398 1.349 . S
C1387 C1385 1.327 . S
C1387 C1403 1.429 . S
C1387 H1409 0.950 . S
C1388 H1384 0.949 . S
C1388 C1396 1.574 . S
C1388 C1404 1.368 . S
H1389 C1397 0.950 . S
H1390 C1395 0.950 . S
H1391 C1396 0.949 . S
H1392 C1398 0.950 . S
H1393 C1399 0.950 . S
H1394 C1400 0.949 . S
C1395 H1390 0.950 . S
C1395 C1397 1.327 . S
C1395 C1401 1.429 . S
C1396 C1388 1.574 . S
C1396 H1391 0.949 . S
C1396 C1402 1.368 . S
C1397 C1381 1.349 . S
C1397 H1389 0.950 . S
C1397 C1395 1.327 . S
C1398 C1386 1.349 . S
C1398 H1392 0.950 . S
C1398 C1399 1.327 . S
C1399 H1393 0.950 . S
C1399 C1398 1.327 . S
C1399 C1403 1.429 . S
C1400 C1383 1.574 . S
C1400 H1394 0.949 . S
C1400 C1404 1.368 . S
C1401 C1382 1.429 . S
C1401 C1395 1.429 . S
C1401 C1402 1.523 . S
C1402 C1383 1.368 . S
C1402 C1396 1.368 . S
C1402 C1401 1.523 . S
C1403 C1387 1.429 . S
C1403 C1399 1.429 . S
C1403 C1404 1.523 . S
C1404 C1388 1.368 . S
C1404 C1400 1.368 . S
C1404 C1403 1.523 . S
H1405 C1380 0.950 . S
H1406 C1382 0.950 . S
H1407 C1383 0.949 . S
H1408 C1385 0.950 . S
H1409 C1387 0.950 . S
C1410 C1411 1.349 . S
C1410 C1412 1.327 . S
C1410 H1435 0.950 . S
C1411 C1410 1.349 . S
C1411 C1427 1.349 . S
C1412 C1410 1.327 . S
C1412 C1431 1.429 . S
C1412 H1436 0.950 . S
C1413 C1430 1.574 . S
C1413 C1432 1.368 . S
C1413 H1437 0.949 . S
H1414 C1418 0.949 . S
C1415 C1416 1.349 . S
C1415 C1417 1.327 . S
C1415 H1438 0.950 . S
C1416 C1415 1.349 . S
C1416 C1428 1.349 . S
C1417 C1415 1.327 . S
C1417 C1433 1.429 . S
C1417 H1439 0.950 . S
C1418 H1414 0.949 . S
C1418 C1426 1.574 . S
C1418 C1434 1.368 . S
H1419 C1427 0.950 . S
H1420 C1425 0.950 . S
H1421 C1426 0.949 . S
H1422 C1428 0.950 . S
H1423 C1429 0.950 . S
H1424 C1430 0.949 . S
C1425 H1420 0.950 . S
C1425 C1427 1.327 . S
C1425 C1431 1.429 . S
C1426 C1418 1.574 . S
C1426 H1421 0.949 . S
C1426 C1432 1.368 . S
C1427 C1411 1.349 . S
C1427 H1419 0.950 . S
C1427 C1425 1.327 . S
C1428 C1416 1.349 . S
C1428 H1422 0.950 . S
C1428 C1429 1.327 . S
C1429 H1423 0.950 . S
C1429 C1428 1.327 . S
C1429 C1433 1.429 . S
C1430 C1413 1.574 . S
C1430 H1424 0.949 . S
C1430 C1434 1.368 . S
C1431 C1412 1.429 . S
C1431 C1425 1.429 . S
C1431 C1432 1.523 . S
C1432 C1413 1.368 . S
C1432 C1426 1.368 . S
C1432 C1431 1.523 . S
C1433 C1417 1.429 . S
C1433 C1429 1.429 . S
C1433 C1434 1.523 . S
C1434 C1418 1.368 . S
C1434 C1430 1.368 . S
C1434 C1433 1.523 . S
H1435 C1410 0.950 . S
H1436 C1412 0.950 . S
H1437 C1413 0.949 . S
H1438 C1415 0.950 . S
H1439 C1417 0.950 . S
C1440 C1441 1.349 . S
C1440 C1442 1.327 . S
C1440 H1465 0.950 . S
C1441 C1440 1.349 . S
C1441 C1457 1.349 . S
C1442 C1440 1.327 . S
C1442 C1461 1.429 . S
C1442 H1466 0.950 . S
C1443 C1460 1.574 . S
C1443 C1462 1.368 . S
C1443 H1467 0.949 . S
H1444 C1448 0.949 . S
C1445 C1446 1.349 . S
C1445 C1447 1.327 . S
C1445 H1468 0.950 . S
C1446 C1445 1.349 . S
C1446 C1458 1.349 . S
C1447 C1445 1.327 . S
C1447 C1463 1.429 . S
C1447 H1469 0.950 . S
C1448 H1444 0.949 . S
C1448 C1456 1.574 . S
C1448 C1464 1.368 . S
H1449 C1457 0.950 . S
H1450 C1455 0.950 . S
H1451 C1456 0.949 . S
H1452 C1458 0.950 . S
H1453 C1459 0.950 . S
H1454 C1460 0.949 . S
C1455 H1450 0.950 . S
C1455 C1457 1.327 . S
C1455 C1461 1.429 . S
C1456 C1448 1.574 . S
C1456 H1451 0.949 . S
C1456 C1462 1.368 . S
C1457 C1441 1.349 . S
C1457 H1449 0.950 . S
C1457 C1455 1.327 . S
C1458 C1446 1.349 . S
C1458 H1452 0.950 . S
C1458 C1459 1.327 . S
C1459 H1453 0.950 . S
C1459 C1458 1.327 . S
C1459 C1463 1.429 . S
C1460 C1443 1.574 . S
C1460 H1454 0.949 . S
C1460 C1464 1.368 . S
C1461 C1442 1.429 . S
C1461 C1455 1.429 . S
C1461 C1462 1.523 . S
C1462 C1443 1.368 . S
C1462 C1456 1.368 . S
C1462 C1461 1.523 . S
C1463 C1447 1.429 . S
C1463 C1459 1.429 . S
C1463 C1464 1.523 . S
C1464 C1448 1.368 . S
C1464 C1460 1.368 . S
C1464 C1463 1.523 . S
H1465 C1440 0.950 . S
H1466 C1442 0.950 . S
H1467 C1443 0.949 . S
H1468 C1445 0.950 . S
H1469 C1447 0.950 . S
C1470 C1471 1.349 . S
C1470 C1472 1.327 . S
C1470 H1495 0.950 . S
C1471 C1470 1.349 . S
C1471 C1487 1.349 . S
C1472 C1470 1.327 . S
C1472 C1491 1.429 . S
C1472 H1496 0.950 . S
C1473 C1490 1.574 . S
C1473 C1492 1.368 . S
C1473 H1497 0.949 . S
H1474 C1478 0.949 . S
C1475 C1476 1.349 . S
C1475 C1477 1.327 . S
C1475 H1498 0.950 . S
C1476 C1475 1.349 . S
C1476 C1488 1.349 . S
C1477 C1475 1.327 . S
C1477 C1493 1.429 . S
C1477 H1499 0.950 . S
C1478 H1474 0.949 . S
C1478 C1486 1.574 . S
C1478 C1494 1.368 . S
H1479 C1487 0.950 . S
H1480 C1485 0.950 . S
H1481 C1486 0.949 . S
H1482 C1488 0.950 . S
H1483 C1489 0.950 . S
H1484 C1490 0.949 . S
C1485 H1480 0.950 . S
C1485 C1487 1.327 . S
C1485 C1491 1.429 . S
C1486 C1478 1.574 . S
C1486 H1481 0.949 . S
C1486 C1492 1.368 . S
C1487 C1471 1.349 . S
C1487 H1479 0.950 . S
C1487 C1485 1.327 . S
C1488 C1476 1.349 . S
C1488 H1482 0.950 . S
C1488 C1489 1.327 . S
C1489 H1483 0.950 . S
C1489 C1488 1.327 . S
C1489 C1493 1.429 . S
C1490 C1473 1.574 . S
C1490 H1484 0.949 . S
C1490 C1494 1.368 . S
C1491 C1472 1.429 . S
C1491 C1485 1.429 . S
C1491 C1492 1.523 . S
C1492 C1473 1.368 . S
C1492 C1486 1.368 . S
C1492 C1491 1.523 . S
C1493 C1477 1.429 . S
C1493 C1489 1.429 . S
C1493 C1494 1.523 . S
C1494 C1478 1.368 . S
C1494 C1490 1.368 . S
C1494 C1493 1.523 . S
H1495 C1470 0.950 . S
H1496 C1472 0.950 . S
H1497 C1473 0.949 . S
H1498 C1475 0.950 . S
H1499 C1477 0.950 . S
C1500 C1501 1.349 . S
C1500 C1502 1.327 . S
C1500 H1525 0.950 . S
C1501 C1500 1.349 . S
C1501 C1517 1.349 . S
C1502 C1500 1.327 . S
C1502 C1521 1.429 . S
C1502 H1526 0.950 . S
C1503 C1520 1.574 . S
C1503 C1522 1.368 . S
C1503 H1527 0.949 . S
H1504 C1508 0.949 . S
C1505 C1506 1.349 . S
C1505 C1507 1.327 . S
C1505 H1528 0.950 . S
C1506 C1505 1.349 . S
C1506 C1518 1.349 . S
C1507 C1505 1.327 . S
C1507 C1523 1.429 . S
C1507 H1529 0.950 . S
C1508 H1504 0.949 . S
C1508 C1516 1.574 . S
C1508 C1524 1.368 . S
H1509 C1517 0.950 . S
H1510 C1515 0.950 . S
H1511 C1516 0.949 . S
H1512 C1518 0.950 . S
H1513 C1519 0.950 . S
H1514 C1520 0.949 . S
C1515 H1510 0.950 . S
C1515 C1517 1.327 . S
C1515 C1521 1.429 . S
C1516 C1508 1.574 . S
C1516 H1511 0.949 . S
C1516 C1522 1.368 . S
C1517 C1501 1.349 . S
C1517 H1509 0.950 . S
C1517 C1515 1.327 . S
C1518 C1506 1.349 . S
C1518 H1512 0.950 . S
C1518 C1519 1.327 . S
C1519 H1513 0.950 . S
C1519 C1518 1.327 . S
C1519 C1523 1.429 . S
C1520 C1503 1.574 . S
C1520 H1514 0.949 . S
C1520 C1524 1.368 . S
C1521 C1502 1.429 . S
C1521 C1515 1.429 . S
C1521 C1522 1.523 . S
C1522 C1503 1.368 . S
C1522 C1516 1.368 . S
C1522 C1521 1.523 . S
C1523 C1507 1.429 . S
C1523 C1519 1.429 . S
C1523 C1524 1.523 . S
C1524 C1508 1.368 . S
C1524 C1520 1.368 . S
C1524 C1523 1.523 . S
H1525 C1500 0.950 . S
H1526 C1502 0.950 . S
H1527 C1503 0.949 . S
H1528 C1505 0.950 . S
H1529 C1507 0.950 . S
C1530 C1531 1.349 . S
C1530 C1532 1.327 . S
C1530 H1555 0.950 . S
C1531 C1530 1.349 . S
C1531 C1547 1.349 . S
C1532 C1530 1.327 . S
C1532 C1551 1.429 . S
C1532 H1556 0.950 . S
C1533 C1550 1.574 . S
C1533 C1552 1.368 . S
C1533 H1557 0.949 . S
H1534 C1538 0.949 . S
C1535 C1536 1.349 . S
C1535 C1537 1.327 . S
C1535 H1558 0.950 . S
C1536 C1535 1.349 . S
C1536 C1548 1.349 . S
C1537 C1535 1.327 . S
C1537 C1553 1.429 . S
C1537 H1559 0.950 . S
C1538 H1534 0.949 . S
C1538 C1546 1.574 . S
C1538 C1554 1.368 . S
H1539 C1547 0.950 . S
H1540 C1545 0.950 . S
H1541 C1546 0.949 . S
H1542 C1548 0.950 . S
H1543 C1549 0.950 . S
H1544 C1550 0.949 . S
C1545 H1540 0.950 . S
C1545 C1547 1.327 . S
C1545 C1551 1.429 . S
C1546 C1538 1.574 . S
C1546 H1541 0.949 . S
C1546 C1552 1.368 . S
C1547 C1531 1.349 . S
C1547 H1539 0.950 . S
C1547 C1545 1.327 . S
C1548 C1536 1.349 . S
C1548 H1542 0.950 . S
C1548 C1549 1.327 . S
C1549 H1543 0.950 . S
C1549 C1548 1.327 . S
C1549 C1553 1.429 . S
C1550 C1533 1.574 . S
C1550 H1544 0.949 . S
C1550 C1554 1.368 . S
C1551 C1532 1.429 . S
C1551 C1545 1.429 . S
C1551 C1552 1.523 . S
C1552 C1533 1.368 . S
C1552 C1546 1.368 . S
C1552 C1551 1.523 . S
C1553 C1537 1.429 . S
C1553 C1549 1.429 . S
C1553 C1554 1.523 . S
C1554 C1538 1.368 . S
C1554 C1550 1.368 . S
C1554 C1553 1.523 . S
H1555 C1530 0.950 . S
H1556 C1532 0.950 . S
H1557 C1533 0.949 . S
H1558 C1535 0.950 . S
H1559 C1537 0.950 . S
C481 C96 1.245 . S
C486 C11 1.215 . S
C511 C127 1.245 . S
C516 C42 1.215 . S
C541 C91 1.215 . S
C546 C176 1.245 . S
C571 C122 1.215 . S
C576 C207 1.245 . S
C601 C16 1.245 . S
C606 C171 1.215 . S
C631 C47 1.245 . S
C636 C202 1.215 . S
C661 C407 1.245 . S
C666 C242 1.215 . S
C691 C291 1.215 . S
C696 C456 1.245 . S
C721 C322 1.215 . S
C726 C247 1.245 . S
C751 C371 1.215 . S
C756 C296 1.245 . S
C781 C402 1.215 . S
C786 C327 1.245 . S
C811 C376 1.245 . S
C816 C451 1.215 . S
C841 C130 1.747 . S
C846 C19 1.747 . S
C871 C50 1.747 . S
C876 C179 1.747 . S
C901 C99 1.747 . S
C906 C210 1.747 . S
C931 C250 1.747 . S
C936 C379 1.747 . S
C961 C299 1.747 . S
C966 C410 1.747 . S
C991 C330 1.747 . S
C996 C459 1.747 . S
C1021 C290 2.275 . S
C1026 C10 2.275 . S
C1051 C59 2.275 . S
C1056 C339 2.275 . S
C1081 C370 2.275 . S
C1086 C90 2.275 . S
C1111 C139 2.275 . S
C1116 C419 2.275 . S
C1141 C170 2.275 . S
C1146 C450 2.275 . S
C1171 C259 2.275 . S
C1176 C219 2.275 . S
C1201 C87 1.760 . S
C1206 C2 1.767 . S
C1231 C51 1.767 . S
C1236 C136 1.760 . S
C1261 C82 1.767 . S
C1266 C167 1.760 . S
C1291 C131 1.767 . S
C1296 C216 1.760 . S
C1321 C7 1.760 . S
C1326 C162 1.767 . S
C1351 C56 1.760 . S
C1356 C211 1.767 . S
C1381 C416 1.760 . S
C1386 C251 1.767 . S
C1411 C282 1.767 . S
C1416 C447 1.760 . S
C1441 C331 1.767 . S
C1446 C256 1.760 . S
C1471 C287 1.760 . S
C1476 C362 1.767 . S
C1501 C411 1.767 . S
C1506 C336 1.760 . S
C1531 C442 1.767 . S
C1536 C367 1.760 . S
