# Generated by pormake.
# Topology ukc, (4)-cn, num edge types: 1
# Building blocks:
#     Node 0, Type 0, BuildingBlock: ICAMEG_clean_sbu_1, # of connection points: 4
#     Node 1, Type 0, BuildingBlock: ICAMEG_clean_sbu_1, # of connection points: 4
#     Node 2, Type 0, BuildingBlock: ICAMEG_clean_sbu_1, # of connection points: 4
#     Node 3, Type 0, BuildingBlock: ICAMEG_clean_sbu_1, # of connection points: 4
#     Node 4, Type 0, BuildingBlock: ICAMEG_clean_sbu_1, # of connection points: 4
#     Node 5, Type 0, BuildingBlock: ICAMEG_clean_sbu_1, # of connection points: 4
#     Node 6, Type 0, BuildingBlock: ICAMEG_clean_sbu_1, # of connection points: 4
#     Node 7, Type 0, BuildingBlock: ICAMEG_clean_sbu_1, # of connection points: 4
#     Node 8, Type 0, BuildingBlock: ICAMEG_clean_sbu_1, # of connection points: 4
#     Node 9, Type 0, BuildingBlock: ICAMEG_clean_sbu_1, # of connection points: 4
#     Node 10, Type 0, BuildingBlock: ICAMEG_clean_sbu_1, # of connection points: 4
#     Node 11, Type 0, BuildingBlock: ICAMEG_clean_sbu_1, # of connection points: 4
#     Node 12, Type 0, BuildingBlock: ICAMEG_clean_sbu_1, # of connection points: 4
#     Node 13, Type 0, BuildingBlock: ICAMEG_clean_sbu_1, # of connection points: 4
#     Node 14, Type 0, BuildingBlock: ICAMEG_clean_sbu_1, # of connection points: 4
#     Node 15, Type 0, BuildingBlock: ICAMEG_clean_sbu_1, # of connection points: 4
#     Node 16, Type 0, BuildingBlock: ICAMEG_clean_sbu_1, # of connection points: 4
#     Node 17, Type 0, BuildingBlock: ICAMEG_clean_sbu_1, # of connection points: 4
#     Node 18, Type 0, BuildingBlock: ICAMEG_clean_sbu_1, # of connection points: 4
#     Node 19, Type 0, BuildingBlock: ICAMEG_clean_sbu_1, # of connection points: 4
#     Node 20, Type 0, BuildingBlock: ICAMEG_clean_sbu_1, # of connection points: 4
#     Node 21, Type 0, BuildingBlock: ICAMEG_clean_sbu_1, # of connection points: 4
#     Node 22, Type 0, BuildingBlock: ICAMEG_clean_sbu_1, # of connection points: 4
#     Node 23, Type 0, BuildingBlock: ICAMEG_clean_sbu_1, # of connection points: 4
#     Node 24, Type 0, BuildingBlock: ICAMEG_clean_sbu_1, # of connection points: 4
#     Node 25, Type 0, BuildingBlock: ICAMEG_clean_sbu_1, # of connection points: 4
#     Node 26, Type 0, BuildingBlock: ICAMEG_clean_sbu_1, # of connection points: 4
#     Node 27, Type 0, BuildingBlock: ICAMEG_clean_sbu_1, # of connection points: 4
#     Node 28, Type 0, BuildingBlock: ICAMEG_clean_sbu_1, # of connection points: 4
#     Node 29, Type 0, BuildingBlock: ICAMEG_clean_sbu_1, # of connection points: 4
#     Node 30, Type 0, BuildingBlock: ICAMEG_clean_sbu_1, # of connection points: 4
#     Node 31, Type 0, BuildingBlock: ICAMEG_clean_sbu_1, # of connection points: 4
#     Edge 32, Type (0, 0), BuildingBlock: OJICUG_clean_linker_0, # of connection points: 2
#     Edge 33, Type (0, 0), BuildingBlock: OJICUG_clean_linker_0, # of connection points: 2
#     Edge 34, Type (0, 0), BuildingBlock: OJICUG_clean_linker_0, # of connection points: 2
#     Edge 35, Type (0, 0), BuildingBlock: OJICUG_clean_linker_0, # of connection points: 2
#     Edge 36, Type (0, 0), BuildingBlock: OJICUG_clean_linker_0, # of connection points: 2
#     Edge 37, Type (0, 0), BuildingBlock: OJICUG_clean_linker_0, # of connection points: 2
#     Edge 38, Type (0, 0), BuildingBlock: OJICUG_clean_linker_0, # of connection points: 2
#     Edge 39, Type (0, 0), BuildingBlock: OJICUG_clean_linker_0, # of connection points: 2
#     Edge 40, Type (0, 0), BuildingBlock: OJICUG_clean_linker_0, # of connection points: 2
#     Edge 41, Type (0, 0), BuildingBlock: OJICUG_clean_linker_0, # of connection points: 2
#     Edge 42, Type (0, 0), BuildingBlock: OJICUG_clean_linker_0, # of connection points: 2
#     Edge 43, Type (0, 0), BuildingBlock: OJICUG_clean_linker_0, # of connection points: 2
#     Edge 44, Type (0, 0), BuildingBlock: OJICUG_clean_linker_0, # of connection points: 2
#     Edge 45, Type (0, 0), BuildingBlock: OJICUG_clean_linker_0, # of connection points: 2
#     Edge 46, Type (0, 0), BuildingBlock: OJICUG_clean_linker_0, # of connection points: 2
#     Edge 47, Type (0, 0), BuildingBlock: OJICUG_clean_linker_0, # of connection points: 2
#     Edge 48, Type (0, 0), BuildingBlock: OJICUG_clean_linker_0, # of connection points: 2
#     Edge 49, Type (0, 0), BuildingBlock: OJICUG_clean_linker_0, # of connection points: 2
#     Edge 50, Type (0, 0), BuildingBlock: OJICUG_clean_linker_0, # of connection points: 2
#     Edge 51, Type (0, 0), BuildingBlock: OJICUG_clean_linker_0, # of connection points: 2
#     Edge 52, Type (0, 0), BuildingBlock: OJICUG_clean_linker_0, # of connection points: 2
#     Edge 53, Type (0, 0), BuildingBlock: OJICUG_clean_linker_0, # of connection points: 2
#     Edge 54, Type (0, 0), BuildingBlock: OJICUG_clean_linker_0, # of connection points: 2
#     Edge 55, Type (0, 0), BuildingBlock: OJICUG_clean_linker_0, # of connection points: 2
#     Edge 56, Type (0, 0), BuildingBlock: OJICUG_clean_linker_0, # of connection points: 2
#     Edge 57, Type (0, 0), BuildingBlock: OJICUG_clean_linker_0, # of connection points: 2
#     Edge 58, Type (0, 0), BuildingBlock: OJICUG_clean_linker_0, # of connection points: 2
#     Edge 59, Type (0, 0), BuildingBlock: OJICUG_clean_linker_0, # of connection points: 2
#     Edge 60, Type (0, 0), BuildingBlock: OJICUG_clean_linker_0, # of connection points: 2
#     Edge 61, Type (0, 0), BuildingBlock: OJICUG_clean_linker_0, # of connection points: 2
#     Edge 62, Type (0, 0), BuildingBlock: OJICUG_clean_linker_0, # of connection points: 2
#     Edge 63, Type (0, 0), BuildingBlock: OJICUG_clean_linker_0, # of connection points: 2
#     Edge 64, Type (0, 0), BuildingBlock: OJICUG_clean_linker_0, # of connection points: 2
#     Edge 65, Type (0, 0), BuildingBlock: OJICUG_clean_linker_0, # of connection points: 2
#     Edge 66, Type (0, 0), BuildingBlock: OJICUG_clean_linker_0, # of connection points: 2
#     Edge 67, Type (0, 0), BuildingBlock: OJICUG_clean_linker_0, # of connection points: 2
#     Edge 68, Type (0, 0), BuildingBlock: OJICUG_clean_linker_0, # of connection points: 2
#     Edge 69, Type (0, 0), BuildingBlock: OJICUG_clean_linker_0, # of connection points: 2
#     Edge 70, Type (0, 0), BuildingBlock: OJICUG_clean_linker_0, # of connection points: 2
#     Edge 71, Type (0, 0), BuildingBlock: OJICUG_clean_linker_0, # of connection points: 2
#     Edge 72, Type (0, 0), BuildingBlock: OJICUG_clean_linker_0, # of connection points: 2
#     Edge 73, Type (0, 0), BuildingBlock: OJICUG_clean_linker_0, # of connection points: 2
#     Edge 74, Type (0, 0), BuildingBlock: OJICUG_clean_linker_0, # of connection points: 2
#     Edge 75, Type (0, 0), BuildingBlock: OJICUG_clean_linker_0, # of connection points: 2
#     Edge 76, Type (0, 0), BuildingBlock: OJICUG_clean_linker_0, # of connection points: 2
#     Edge 77, Type (0, 0), BuildingBlock: OJICUG_clean_linker_0, # of connection points: 2
#     Edge 78, Type (0, 0), BuildingBlock: OJICUG_clean_linker_0, # of connection points: 2
#     Edge 79, Type (0, 0), BuildingBlock: OJICUG_clean_linker_0, # of connection points: 2
#     Edge 80, Type (0, 0), BuildingBlock: OJICUG_clean_linker_0, # of connection points: 2
#     Edge 81, Type (0, 0), BuildingBlock: OJICUG_clean_linker_0, # of connection points: 2
#     Edge 82, Type (0, 0), BuildingBlock: OJICUG_clean_linker_0, # of connection points: 2
#     Edge 83, Type (0, 0), BuildingBlock: OJICUG_clean_linker_0, # of connection points: 2
#     Edge 84, Type (0, 0), BuildingBlock: OJICUG_clean_linker_0, # of connection points: 2
#     Edge 85, Type (0, 0), BuildingBlock: OJICUG_clean_linker_0, # of connection points: 2
#     Edge 86, Type (0, 0), BuildingBlock: OJICUG_clean_linker_0, # of connection points: 2
#     Edge 87, Type (0, 0), BuildingBlock: OJICUG_clean_linker_0, # of connection points: 2
#     Edge 88, Type (0, 0), BuildingBlock: OJICUG_clean_linker_0, # of connection points: 2
#     Edge 89, Type (0, 0), BuildingBlock: OJICUG_clean_linker_0, # of connection points: 2
#     Edge 90, Type (0, 0), BuildingBlock: OJICUG_clean_linker_0, # of connection points: 2
#     Edge 91, Type (0, 0), BuildingBlock: OJICUG_clean_linker_0, # of connection points: 2
#     Edge 92, Type (0, 0), BuildingBlock: OJICUG_clean_linker_0, # of connection points: 2
#     Edge 93, Type (0, 0), BuildingBlock: OJICUG_clean_linker_0, # of connection points: 2
#     Edge 94, Type (0, 0), BuildingBlock: OJICUG_clean_linker_0, # of connection points: 2
#     Edge 95, Type (0, 0), BuildingBlock: OJICUG_clean_linker_0, # of connection points: 2
# Relax obj value: 0.064
# Max RMSD: 0.144
# Mean RMSD: 0.144
data_MOF--net-ukc--node1-ICAMEG_clean_sbu_1--edge1-OJICUG_clean_linker_0
_symmetry_space_group_name_H-M    P1
_symmetry_Int_Tables_number       1
_symmetry_cell_setting            triclinic
loop_
_symmetry_equiv_pos_as_xyz
'x, y, z'
_cell_length_a     36.074875
_cell_length_b     35.906941
_cell_length_c     66.591185
_cell_angle_alpha  90.015642
_cell_angle_beta   90.093872
_cell_angle_gamma 90.052731
loop_
_atom_site_label
_atom_site_type_symbol
_atom_site_fract_x
_atom_site_fract_y
_atom_site_fract_z
_atom_type_partial_charge
Co0 Co 0.06138 0.41074 0.0634 0.0
Co1 Co 0.13321 0.35429 0.04889 0.0
O2 O 0.10369 0.40015 0.04547 0.0
C3 C 0.04088 0.44536 0.02356 0.0
O4 O 0.07 0.43111 0.01466 0.0
C5 C 0.1885 0.41122 0.03142 0.0
O6 O 0.16402 0.43819 0.03065 0.0
O7 O 0.14463 0.36973 0.07717 0.0
O8 O 0.08746 0.38708 0.0865 0.0
H9 H 0.17392 0.23922 0.08582 0.0
H10 H 0.10155 0.47161 0.04157 0.0
O11 O 0.03308 0.43665 0.04157 0.0
H12 H 0.09896 0.51099 0.11237 0.0
H13 H 0.95591 0.48605 0.09207 0.0
H14 H 0.02183 0.36586 0.09395 0.0
H15 H 0.07089 0.45144 0.10212 0.0
H16 H 0.01006 0.47514 0.07034 0.0
O17 O 0.18004 0.3797 0.03909 0.0
H18 H 0.13658 0.29575 0.08022 0.0
H19 H 0.19321 0.31647 0.02553 0.0
H20 H 0.9681 0.37582 0.11612 0.0
H21 H 0.12974 0.53127 0.05112 0.0
H22 H 0.93471 0.43626 0.11526 0.0
H23 H 0.12859 0.55151 0.08678 0.0
O24 O 0.03859 0.36212 0.05562 0.0
H25 H 0.11499 0.37366 0.9744 0.0
H26 H 0.10935 0.28307 0.02983 0.0
H27 H 0.09303 0.26302 0.99563 0.0
H28 H 0.09598 0.3084 0.96754 0.0
H29 H 0.13042 0.39259 0.00881 0.0
H30 H 0.23141 0.2604 0.03058 0.0
H31 H 0.22181 0.22123 0.06088 0.0
O32 O 0.08842 0.32549 0.05834 0.0
C33 C 0.12116 0.3797 0.0905 0.0
C34 C 0.17844 0.2561 0.07258 0.0
C35 C 0.21072 0.26801 0.0416 0.0
N36 N 0.16282 0.30962 0.05269 0.0
C37 C 0.15739 0.28818 0.06937 0.0
C38 C 0.18913 0.29988 0.03889 0.0
C39 C 0.2053 0.24602 0.05859 0.0
C40 C 0.10046 0.48009 0.05704 0.0
N41 N 0.08387 0.45803 0.07114 0.0
C42 C 0.1167 0.514 0.0624 0.0
C43 C 0.11609 0.52532 0.0824 0.0
C44 C 0.09945 0.50263 0.09675 0.0
C45 C 0.08355 0.46888 0.09083 0.0
C46 C 0.97023 0.45959 0.09258 0.0
C47 C 1.00759 0.39232 0.09354 0.0
C48 C 1.00081 0.45316 0.08022 0.0
N49 N 0.01922 0.41989 0.08087 0.0
C50 C 0.97711 0.39776 0.10611 0.0
C51 C 0.95837 0.43166 0.1056 0.0
C52 C 0.05338 0.32993 0.05705 0.0
C53 C 0.11377 0.35356 0.98649 0.0
C54 C 0.11055 0.30314 0.01779 0.0
C55 C 0.10136 0.29154 0.9984 0.0
C56 C 0.10304 0.31698 0.98265 0.0
N57 N 0.12128 0.33907 0.0215 0.0
C58 C 0.12274 0.36413 1.00609 0.0
Co59 Co 0.86888 0.8173 0.30927 0.0
Co60 Co 0.92345 0.89096 0.29752 0.0
O61 O 0.87788 0.8619 0.29261 0.0
C62 C 0.82909 0.80168 0.27019 0.0
O63 O 0.84119 0.83246 0.26182 0.0
C64 C 0.86692 0.94868 0.28239 0.0
O65 O 0.83813 0.92762 0.28636 0.0
O66 O 0.90608 0.89949 0.32602 0.0
O67 O 0.8968 0.83923 0.33199 0.0
H68 H 0.03453 0.92723 0.33871 0.0
H69 H 0.80545 0.86004 0.29158 0.0
O70 O 0.83984 0.79225 0.28762 0.0
H71 H 0.77938 0.85289 0.36403 0.0
H72 H 0.79486 0.70977 0.33697 0.0
H73 H 0.91663 0.77215 0.33633 0.0
H74 H 0.83549 0.82389 0.35009 0.0
H75 H 0.80451 0.76658 0.3169 0.0
O76 O 0.89945 0.93873 0.28778 0.0
H77 H 0.97818 0.8913 0.33065 0.0
H78 H 0.96431 0.95269 0.27666 0.0
H79 H 0.90803 0.71565 0.35675 0.0
H80 H 0.74884 0.88886 0.30483 0.0
H81 H 0.84679 0.68401 0.35717 0.0
H82 H 0.73541 0.88554 0.34135 0.0
O83 O 0.91562 0.79549 0.29883 0.0
H84 H 0.90533 0.87966 0.22282 0.0
H85 H 0.99544 0.8701 0.27823 0.0
H86 H 0.01576 0.85736 0.24364 0.0
H87 H 0.97059 0.8623 0.21558 0.0
H88 H 0.88616 0.89163 0.25766 0.0
H89 H 0.02022 0.98955 0.28424 0.0
H90 H 0.0559 0.97679 0.31542 0.0
O91 O 0.95151 0.8446 0.30587 0.0
C92 C 0.90007 0.87249 0.33814 0.0
C93 C 0.01924 0.93303 0.32506 0.0
C94 C 0.01117 0.96805 0.29452 0.0
N95 N 0.96789 0.9198 0.30318 0.0
C96 C 0.98732 0.91274 0.3204 0.0
C97 C 0.97937 0.94719 0.29035 0.0
C98 C 0.0312 0.96085 0.312 0.0
C99 C 0.79974 0.85779 0.30738 0.0
N100 N 0.82368 0.83956 0.31988 0.0
C101 C 0.76763 0.87447 0.31486 0.0
C102 C 0.76014 0.87266 0.33534 0.0
C103 C 0.78478 0.85435 0.34807 0.0
C104 C 0.81656 0.83796 0.34005 0.0
C105 C 0.82168 0.7233 0.33691 0.0
C106 C 0.88985 0.75869 0.33644 0.0
C107 C 0.82739 0.75541 0.32549 0.0
N108 N 0.86114 0.77282 0.32542 0.0
C109 C 0.88517 0.72663 0.34803 0.0
C110 C 0.85081 0.70887 0.34825 0.0
C111 C 0.94749 0.80996 0.30185 0.0
C112 C 0.92531 0.87747 0.2349 0.0
C113 C 0.97552 0.872 0.26619 0.0
C114 C 0.98724 0.8649 0.24658 0.0
C115 C 0.96191 0.8677 0.23085 0.0
N116 N 0.9396 0.88173 0.27008 0.0
C117 C 0.91461 0.88431 0.25471 0.0
Co118 Co 0.45289 0.60692 0.56267 0.0
Co119 Co 0.38084 0.66311 0.54837 0.0
O120 O 0.41048 0.61739 0.5447 0.0
C121 C 0.47318 0.57164 0.52303 0.0
O122 O 0.44379 0.58542 0.51412 0.0
C123 C 0.32567 0.607 0.52991 0.0
O124 O 0.35031 0.58027 0.52846 0.0
O125 O 0.36947 0.64689 0.57652 0.0
O126 O 0.42712 0.63101 0.58565 0.0
H127 H 0.33984 0.77708 0.58616 0.0
H128 H 0.41228 0.54591 0.54111 0.0
O129 O 0.4811 0.58072 0.54097 0.0
H130 H 0.41506 0.50769 0.61209 0.0
H131 H 0.55839 0.53173 0.59156 0.0
H132 H 0.4927 0.65206 0.59314 0.0
H133 H 0.44335 0.56694 0.60159 0.0
H134 H 0.50421 0.54256 0.56975 0.0
O135 O 0.334 0.63793 0.53831 0.0
H136 H 0.3773 0.72079 0.58017 0.0
H137 H 0.3206 0.70132 0.52526 0.0
H138 H 0.54648 0.64218 0.61537 0.0
H139 H 0.38391 0.48651 0.55092 0.0
H140 H 0.57974 0.58167 0.61467 0.0
H141 H 0.38516 0.46686 0.58667 0.0
O142 O 0.47557 0.65543 0.55475 0.0
H143 H 0.40035 0.6458 0.47382 0.0
H144 H 0.40395 0.73507 0.52995 0.0
H145 H 0.42037 0.75621 0.496 0.0
H146 H 0.41844 0.71151 0.46755 0.0
H147 H 0.38479 0.6258 0.50798 0.0
H148 H 0.28226 0.75714 0.53071 0.0
H149 H 0.29184 0.79558 0.56131 0.0
O150 O 0.42563 0.69172 0.5581 0.0
C151 C 0.39333 0.63735 0.58977 0.0
C152 C 0.33535 0.76054 0.57278 0.0
C153 C 0.30301 0.74933 0.54168 0.0
N154 N 0.35111 0.70761 0.55249 0.0
C155 C 0.35649 0.72861 0.56934 0.0
C156 C 0.3247 0.7176 0.53874 0.0
C157 C 0.30843 0.7709 0.55884 0.0
C158 C 0.4135 0.53763 0.55661 0.0
N159 N 0.43033 0.55981 0.57061 0.0
C160 C 0.39712 0.5039 0.56213 0.0
C161 C 0.39778 0.49291 0.58218 0.0
C162 C 0.41457 0.51577 0.59643 0.0
C163 C 0.43062 0.54933 0.59036 0.0
C164 C 0.54412 0.55822 0.59201 0.0
C165 C 0.50688 0.62557 0.59279 0.0
C166 C 0.5135 0.5646 0.57961 0.0
N167 N 0.49515 0.59791 0.58018 0.0
C168 C 0.53739 0.62018 0.6054 0.0
C169 C 0.55607 0.58624 0.60498 0.0
C170 C 0.46066 0.68751 0.55651 0.0
C171 C 0.40108 0.66563 0.48606 0.0
C172 C 0.40311 0.7153 0.51775 0.0
C173 C 0.41239 0.72752 0.4985 0.0
C174 C 0.41129 0.70246 0.48256 0.0
N175 N 0.3928 0.67914 0.52113 0.0
C176 C 0.392 0.65444 0.50553 0.0
Co177 Co 0.65698 0.19913 0.81136 0.0
Co178 Co 0.59898 0.13066 0.79429 0.0
O179 O 0.64562 0.15912 0.792 0.0
C180 C 0.69203 0.22406 0.77252 0.0
O181 O 0.67803 0.19574 0.76262 0.0
C182 C 0.65354 0.06912 0.78124 0.0
O183 O 0.68037 0.07997 0.79325 0.0
O184 O 0.61416 0.11454 0.82205 0.0
O185 O 0.63247 0.17067 0.83324 0.0
H186 H 0.48361 0.08738 0.82957 0.0
H187 H 0.71588 0.15885 0.78831 0.0
O188 O 0.68354 0.22966 0.79077 0.0
H189 H 0.75543 0.1532 0.85906 0.0
H190 H 0.73411 0.29963 0.84412 0.0
H191 H 0.61317 0.23556 0.84343 0.0
H192 H 0.69716 0.18434 0.84974 0.0
H193 H 0.722 0.24873 0.82016 0.0
O194 O 0.62235 0.0857 0.78134 0.0
H195 H 0.54125 0.12351 0.82566 0.0
H196 H 0.55846 0.07636 0.768 0.0
H197 H 0.62437 0.28595 0.86785 0.0
H198 H 0.77435 0.12776 0.79695 0.0
H199 H 0.6852 0.31837 0.8683 0.0
H200 H 0.79465 0.12474 0.83256 0.0
O201 O 0.6093 0.2241 0.80425 0.0
H202 H 0.62051 0.15603 0.72101 0.0
H203 H 0.52957 0.16159 0.77605 0.0
H204 H 0.51176 0.18371 0.74239 0.0
H205 H 0.55738 0.18091 0.71453 0.0
H206 H 0.63724 0.13469 0.75501 0.0
H207 H 0.50124 0.03945 0.7713 0.0
H208 H 0.46325 0.0449 0.80224 0.0
O209 O 0.57204 0.17455 0.80609 0.0
C210 C 0.62418 0.13668 0.83618 0.0
C211 C 0.49996 0.08467 0.81603 0.0
C212 C 0.50988 0.05776 0.78335 0.0
N213 N 0.55348 0.10192 0.79674 0.0
C214 C 0.53268 0.10505 0.81377 0.0
C215 C 0.54243 0.07859 0.78163 0.0
C216 C 0.48855 0.06085 0.8007 0.0
C217 C 0.72456 0.15838 0.80378 0.0
N218 N 0.70333 0.17445 0.81838 0.0
C219 C 0.75771 0.14039 0.80862 0.0
C220 C 0.76905 0.13863 0.8286 0.0
C221 C 0.7471 0.15462 0.84346 0.0
C222 C 0.71411 0.17233 0.83805 0.0
C223 C 0.70749 0.2857 0.84408 0.0
C224 C 0.63979 0.24937 0.84358 0.0
C225 C 0.70038 0.25696 0.83046 0.0
N226 N 0.66692 0.239 0.83042 0.0
C227 C 0.64593 0.27797 0.85742 0.0
C228 C 0.68005 0.29618 0.85765 0.0
C229 C 0.57702 0.2097 0.80542 0.0
C230 C 0.60041 0.15753 0.73303 0.0
C231 C 0.54976 0.16082 0.76413 0.0
C232 C 0.53943 0.17313 0.74504 0.0
C233 C 0.56501 0.1715 0.72941 0.0
N234 N 0.58461 0.14735 0.76762 0.0
C235 C 0.60975 0.1455 0.75233 0.0
Co236 Co 0.06081 0.61176 0.4534 0.0
Co237 Co 0.13076 0.66948 0.46886 0.0
O238 O 0.10135 0.62365 0.47215 0.0
C239 C 0.0376 0.57827 0.49301 0.0
O240 O 0.06661 0.59206 0.50231 0.0
C241 C 0.19416 0.6155 0.47948 0.0
O242 O 0.1866 0.59207 0.46489 0.0
O243 O 0.14545 0.65239 0.44124 0.0
O244 O 0.08925 0.63367 0.43063 0.0
H245 H 0.17533 0.78309 0.43191 0.0
H246 H 0.10276 0.55451 0.4772 0.0
O247 O 0.03054 0.58731 0.47494 0.0
H248 H 0.10028 0.5068 0.4079 0.0
H249 H 0.95703 0.53504 0.42361 0.0
H250 H 0.02469 0.65429 0.4207 0.0
H251 H 0.07123 0.56684 0.41608 0.0
H252 H 0.00928 0.54724 0.44657 0.0
O253 O 0.17491 0.6449 0.48178 0.0
H254 H 0.13754 0.72668 0.43698 0.0
H255 H 0.18768 0.70897 0.49385 0.0
H256 H 0.97298 0.64293 0.39723 0.0
H257 H 0.1319 0.49448 0.46968 0.0
H258 H 0.93872 0.58296 0.39861 0.0
H259 H 0.1308 0.46999 0.43481 0.0
O260 O 0.03737 0.66096 0.4596 0.0
H261 H 0.10762 0.65244 0.54269 0.0
H262 H 0.10263 0.74096 0.48624 0.0
H263 H 0.08231 0.76125 0.51979 0.0
H264 H 0.08482 0.71684 0.54836 0.0
H265 H 0.12723 0.63325 0.50879 0.0
H266 H 0.22621 0.76498 0.48941 0.0
H267 H 0.22014 0.80258 0.45827 0.0
O268 O 0.08745 0.69726 0.45703 0.0
C269 C 0.12321 0.64131 0.42743 0.0
C270 C 0.17838 0.76685 0.44551 0.0
C271 C 0.20694 0.75668 0.47776 0.0
N272 N 0.16067 0.71413 0.46551 0.0
C273 C 0.15711 0.73478 0.4484 0.0
C274 C 0.18518 0.72478 0.48012 0.0
C275 C 0.20349 0.77778 0.4603 0.0
C276 C 0.10136 0.5441 0.46207 0.0
N277 N 0.08399 0.56398 0.44729 0.0
C278 C 0.11829 0.51002 0.45786 0.0
C279 C 0.11774 0.49633 0.43829 0.0
C280 C 0.10058 0.51693 0.42321 0.0
C281 C 0.08399 0.55092 0.42799 0.0
C282 C 0.97173 0.56128 0.42287 0.0
C283 C 0.01008 0.62802 0.42133 0.0
C284 C 1.00122 0.56847 0.43593 0.0
N285 N 0.02016 0.60145 0.43498 0.0
C286 C 0.98074 0.6218 0.40803 0.0
C287 C 0.9615 0.58817 0.40883 0.0
C288 C 0.05237 0.69306 0.45794 0.0
C289 C 0.10623 0.67201 0.53035 0.0
C290 C 0.10325 0.72131 0.49847 0.0
C291 C 0.09197 0.73304 0.5175 0.0
C292 C 0.09344 0.70814 0.53352 0.0
N293 N 0.11552 0.68575 0.49543 0.0
C294 C 0.11725 0.66128 0.51111 0.0
Co295 Co 0.65475 0.80736 0.70246 0.0
Co296 Co 0.60295 0.88398 0.712 0.0
O297 O 0.64706 0.85357 0.718 0.0
C298 C 0.69437 0.79451 0.74184 0.0
O299 O 0.68305 0.82628 0.74938 0.0
C300 C 0.6598 0.93944 0.72888 0.0
O301 O 0.68527 0.9137 0.73113 0.0
O302 O 0.62135 0.88889 0.68352 0.0
O303 O 0.62764 0.82802 0.67902 0.0
H304 H 0.49457 0.9209 0.66897 0.0
H305 H 0.71857 0.85113 0.71899 0.0
O306 O 0.68297 0.7835 0.7248 0.0
H307 H 0.74682 0.83356 0.64731 0.0
H308 H 0.72484 0.6947 0.67791 0.0
H309 H 0.60537 0.76121 0.67678 0.0
H310 H 0.68979 0.80744 0.66181 0.0
H311 H 0.71736 0.75385 0.69622 0.0
O312 O 0.62932 0.93188 0.71988 0.0
H313 H 0.54871 0.88299 0.67864 0.0
H314 H 0.56525 0.95002 0.73047 0.0
H315 H 0.6118 0.70236 0.65812 0.0
H316 H 0.77606 0.87722 0.7052 0.0
H317 H 0.67187 0.66864 0.65859 0.0
H318 H 0.79062 0.86863 0.66907 0.0
O319 O 0.60737 0.78829 0.71345 0.0
H320 H 0.61692 0.87586 0.78741 0.0
H321 H 0.52909 0.87042 0.73082 0.0
H322 H 0.50607 0.86189 0.76522 0.0
H323 H 0.55005 0.86486 0.79391 0.0
H324 H 0.63874 0.88356 0.75284 0.0
H325 H 0.51161 0.98892 0.72123 0.0
H326 H 0.47572 0.97432 0.69034 0.0
O327 O 0.57298 0.83779 0.70508 0.0
C328 C 0.62701 0.86087 0.67207 0.0
C329 C 0.50995 0.92751 0.68249 0.0
C330 C 0.51956 0.96573 0.71179 0.0
N331 N 0.56012 0.9142 0.7051 0.0
C332 C 0.5406 0.9061 0.68806 0.0
C333 C 0.55006 0.94372 0.71688 0.0
C334 C 0.49941 0.9575 0.69447 0.0
C335 C 0.72467 0.84671 0.70337 0.0
N336 N 0.70079 0.82717 0.6914 0.0
C337 C 0.75733 0.86179 0.69559 0.0
C338 C 0.76546 0.85702 0.67531 0.0
C339 C 0.74092 0.83735 0.66311 0.0
C340 C 0.70858 0.82262 0.67144 0.0
C341 C 0.69852 0.70913 0.67759 0.0
C342 C 0.63165 0.74684 0.67705 0.0
C343 C 0.69404 0.74257 0.68801 0.0
N344 N 0.66095 0.76113 0.68758 0.0
C345 C 0.63511 0.71345 0.66645 0.0
C346 C 0.6688 0.69453 0.66674 0.0
C347 C 0.57594 0.80352 0.71024 0.0
C348 C 0.5974 0.87483 0.77506 0.0
C349 C 0.54854 0.87174 0.74311 0.0
C350 C 0.53526 0.86691 0.76263 0.0
C351 C 0.55992 0.86858 0.7787 0.0
N352 N 0.58533 0.87835 0.73958 0.0
C353 C 0.60964 0.87949 0.75533 0.0
Co354 Co 0.4505 0.41193 0.95317 0.0
Co355 Co 0.38142 0.35322 0.96813 0.0
O356 O 0.40928 0.40007 0.9715 0.0
C357 C 0.47111 0.4479 0.99268 0.0
O358 O 0.44251 0.43316 1.00187 0.0
C359 C 0.31983 0.40776 0.98091 0.0
O360 O 0.33246 0.43588 0.97033 0.0
O361 O 0.36744 0.36937 0.94022 0.0
O362 O 0.42431 0.38711 0.9305 0.0
H363 H 0.34155 0.23837 0.93064 0.0
H364 H 0.40793 0.47084 0.97522 0.0
O365 O 0.47867 0.43901 0.97465 0.0
H366 H 0.40756 0.51019 0.90439 0.0
H367 H 0.55213 0.49077 0.92312 0.0
H368 H 0.49026 0.36829 0.92217 0.0
H369 H 0.4383 0.45197 0.91447 0.0
H370 H 0.49931 0.47805 0.94553 0.0
O371 O 0.3356 0.37607 0.98015 0.0
H372 H 0.37691 0.29627 0.93602 0.0
H373 H 0.32574 0.31132 0.99274 0.0
H374 H 0.54264 0.38005 0.89931 0.0
H375 H 0.37725 0.52928 0.96582 0.0
H376 H 0.574 0.44165 0.8997 0.0
H377 H 0.37688 0.54948 0.93016 0.0
O378 O 0.47519 0.36402 0.96075 0.0
H379 H 0.40109 0.37296 0.0421 0.0
H380 H 0.41082 0.283 0.98649 0.0
H381 H 0.43028 0.26425 0.02048 0.0
H382 H 0.42536 0.30938 0.04863 0.0
H383 H 0.38244 0.39063 0.00779 0.0
H384 H 0.28954 0.25382 0.98798 0.0
H385 H 0.2974 0.21677 0.95677 0.0
O386 O 0.42611 0.32671 0.95713 0.0
C387 C 0.39053 0.37971 0.92671 0.0
C388 C 0.33778 0.2543 0.94429 0.0
C389 C 0.30858 0.263 0.97644 0.0
N390 N 0.35326 0.30746 0.96454 0.0
C391 C 0.35771 0.28718 0.94737 0.0
C392 C 0.32902 0.29572 0.979 0.0
C393 C 0.31303 0.24221 0.95894 0.0
C394 C 0.40869 0.47951 0.95976 0.0
N395 N 0.42604 0.45826 0.94558 0.0
C396 C 0.39089 0.51263 0.95448 0.0
C397 C 0.39061 0.52391 0.93447 0.0
C398 C 0.40785 0.50192 0.92002 0.0
C399 C 0.42532 0.46896 0.92586 0.0
C400 C 0.53872 0.4638 0.92282 0.0
C401 C 0.50363 0.39522 0.9224 0.0
C402 C 0.50892 0.45634 0.93557 0.0
N403 N 0.49164 0.42242 0.93519 0.0
C404 C 0.53334 0.40169 0.90943 0.0
C405 C 0.55095 0.43625 0.90967 0.0
C406 C 0.46102 0.33161 0.95876 0.0
C407 C 0.40351 0.35308 0.02996 0.0
C408 C 0.40916 0.30298 0.99854 0.0
C409 C 0.41995 0.29211 0.01782 0.0
C410 C 0.41713 0.31742 0.03361 0.0
N411 N 0.39602 0.33807 0.99503 0.0
C412 C 0.39302 0.36294 0.01048 0.0
Co413 Co 0.86265 0.21017 0.20279 0.0
Co414 Co 0.91593 0.13423 0.21144 0.0
O415 O 0.87165 0.16396 0.21815 0.0
C416 C 0.82385 0.22274 0.24259 0.0
O417 O 0.83485 0.19077 0.25004 0.0
C418 C 0.86108 0.07765 0.2292 0.0
O419 O 0.83487 0.10268 0.23121 0.0
O420 O 0.89584 0.12903 0.1832 0.0
O421 O 0.88872 0.18987 0.17892 0.0
H422 H 0.02123 0.09852 0.16613 0.0
H423 H 0.80031 0.16524 0.22001 0.0
O424 O 0.83524 0.23374 0.22554 0.0
H425 H 0.76791 0.18347 0.14885 0.0
H426 H 0.79004 0.3219 0.17907 0.0
H427 H 0.91039 0.25715 0.17675 0.0
H428 H 0.82544 0.21001 0.16263 0.0
H429 H 0.79901 0.26272 0.19714 0.0
O430 O 0.89107 0.08578 0.2199 0.0
H431 H 0.96726 0.13556 0.17687 0.0
H432 H 0.95717 0.07001 0.22964 0.0
H433 H 0.90245 0.31602 0.15828 0.0
H434 H 0.74236 0.13875 0.20696 0.0
H435 H 0.84193 0.34887 0.15937 0.0
H436 H 0.72569 0.14768 0.17109 0.0
O437 O 0.91049 0.22977 0.21321 0.0
H438 H 0.90553 0.14297 0.28692 0.0
H439 H 0.99069 0.14873 0.22932 0.0
H440 H 0.01516 0.15806 0.2634 0.0
H441 H 0.97254 0.15492 0.2926 0.0
H442 H 0.88222 0.13453 0.25263 0.0
H443 H 0.01068 0.0319 0.21935 0.0
H444 H 0.04324 0.04621 0.18742 0.0
O445 O 0.94477 0.18078 0.20402 0.0
C446 C 0.88924 0.15706 0.17187 0.0
C447 C 1.00726 0.09199 0.18006 0.0
C448 C 1.00128 0.05454 0.2099 0.0
N449 N 0.95889 0.10484 0.20381 0.0
C450 C 0.97669 0.11288 0.18623 0.0
C451 C 0.97078 0.07602 0.21558 0.0
C452 C 0.01957 0.06262 0.19201 0.0
C453 C 0.79329 0.16987 0.20452 0.0
N454 N 0.81627 0.18987 0.1923 0.0
C455 C 0.76038 0.15452 0.19714 0.0
C456 C 0.75107 0.15947 0.17701 0.0
C457 C 0.77472 0.17955 0.16455 0.0
C458 C 0.80735 0.19453 0.17247 0.0
C459 C 0.81656 0.30788 0.1785 0.0
C460 C 0.88393 0.27115 0.1773 0.0
C461 C 0.82188 0.27443 0.1888 0.0
N462 N 0.85523 0.25638 0.18805 0.0
C463 C 0.87961 0.30454 0.1668 0.0
C464 C 0.84567 0.32297 0.16743 0.0
C465 C 0.9419 0.21483 0.20957 0.0
C466 C 0.92447 0.1441 0.27435 0.0
C467 C 0.97182 0.1474 0.24183 0.0
C468 C 0.98592 0.15264 0.26116 0.0
C469 C 0.96203 0.15088 0.27752 0.0
N470 N 0.93497 0.14029 0.23875 0.0
C471 C 0.91139 0.13903 0.25478 0.0
Co472 Co 0.95333 0.61551 0.95343 0.0
Co473 Co 0.88026 0.67058 0.96658 0.0
O474 O 0.91026 0.62538 0.9709 0.0
C475 C 0.97193 0.57927 0.99314 0.0
O476 O 0.94238 0.59314 1.0018 0.0
C477 C 0.82552 0.61406 0.98468 0.0
O478 O 0.85054 0.58772 0.98635 0.0
O479 O 0.87001 0.65332 0.93848 0.0
O480 O 0.92864 0.64034 0.93032 0.0
H481 H 0.83882 0.78221 0.92697 0.0
H482 H 0.91244 0.55351 0.97389 0.0
O483 O 0.98055 0.58869 0.97534 0.0
H484 H 0.91699 0.51819 0.9025 0.0
H485 H 0.05972 0.54101 0.92521 0.0
H486 H 0.99461 0.66166 0.92403 0.0
H487 H 0.94494 0.57702 0.91396 0.0
H488 H 1.00462 0.55125 0.94631 0.0
O489 O 0.8335 0.64505 0.97629 0.0
H490 H 0.87673 0.7266 0.93397 0.0
H491 H 0.81897 0.709 0.98867 0.0
H492 H 0.04935 0.65241 0.90252 0.0
H493 H 0.88443 0.49447 0.96311 0.0
H494 H 0.08234 0.59174 0.90301 0.0
H495 H 0.88656 0.47629 0.92715 0.0
O496 O 0.97528 0.664 0.96202 0.0
H497 H 0.89775 0.65518 0.04141 0.0
H498 H 0.90135 0.7434 0.98484 0.0
H499 H 0.91634 0.76552 0.01884 0.0
H500 H 0.9144 0.72134 0.04751 0.0
H501 H 0.8836 0.63422 0.0072 0.0
H502 H 0.78016 0.76414 0.98218 0.0
H503 H 0.79008 0.80131 0.95118 0.0
O504 O 0.92514 0.69955 0.95724 0.0
C505 C 0.8948 0.64471 0.92562 0.0
C506 C 0.83425 0.76627 0.94054 0.0
C507 C 0.8013 0.7561 0.9715 0.0
N508 N 0.85017 0.71453 0.96168 0.0
C509 C 0.85567 0.73477 0.94458 0.0
C510 C 0.82327 0.72477 0.97504 0.0
C511 C 0.80689 0.77696 0.95412 0.0
C512 C 0.91407 0.54585 0.95831 0.0
N513 N 0.9312 0.5686 0.94474 0.0
C514 C 0.89788 0.51232 0.95224 0.0
C515 C 0.89903 0.50216 0.93207 0.0
C516 C 0.91613 0.52562 0.91824 0.0
C517 C 0.93198 0.55894 0.92486 0.0
C518 C 0.04561 0.56758 0.92487 0.0
C519 C 0.0087 0.63512 0.92431 0.0
C520 C 0.01449 0.57364 0.93688 0.0
N521 N 0.99633 0.60705 0.93644 0.0
C522 C 0.03974 0.63008 0.91211 0.0
C523 C 0.05826 0.59604 0.91241 0.0
C524 C 0.96012 0.69587 0.95967 0.0
C525 C 0.89849 0.67478 0.02907 0.0
C526 C 0.90054 0.72386 0.99713 0.0
C527 C 0.909 0.73663 0.01641 0.0
C528 C 0.90789 0.71186 0.03248 0.0
N529 N 0.89103 0.68745 0.99385 0.0
C530 C 0.89022 0.66304 0.00957 0.0
Co531 Co 0.15287 0.20745 0.70539 0.0
Co532 Co 0.09896 0.13286 0.71629 0.0
O533 O 0.14445 0.16197 0.72151 0.0
C534 C 0.1948 0.22108 0.74413 0.0
O535 O 0.18357 0.18964 0.75213 0.0
C536 C 0.15521 0.07515 0.73177 0.0
O537 O 0.18381 0.0973 0.72941 0.0
O538 O 0.11632 0.12582 0.68766 0.0
O539 O 0.12451 0.18642 0.68249 0.0
H540 H 0.98815 0.09821 0.6745 0.0
H541 H 0.21646 0.16309 0.72181 0.0
O542 O 0.18252 0.23166 0.72718 0.0
H543 H 0.24167 0.17607 0.64952 0.0
H544 H 0.22539 0.31689 0.67867 0.0
H545 H 0.10401 0.25374 0.67953 0.0
H546 H 0.18585 0.20407 0.66433 0.0
H547 H 0.21676 0.2589 0.69788 0.0
O548 O 0.12317 0.08463 0.72533 0.0
H549 H 0.04426 0.13399 0.68318 0.0
H550 H 0.05827 0.06981 0.73619 0.0
H551 H 0.11157 0.31144 0.65998 0.0
H552 H 0.27277 0.13521 0.70769 0.0
H553 H 0.17261 0.34347 0.65945 0.0
H554 H 0.2858 0.14148 0.67125 0.0
O555 O 0.10618 0.22837 0.71651 0.0
H556 H 0.11735 0.14242 0.7911 0.0
H557 H 0.02663 0.15123 0.73597 0.0
H558 H 1.00623 0.16231 0.77069 0.0
H559 H 0.0517 0.15772 0.79862 0.0
H560 H 0.1366 0.1321 0.75615 0.0
H561 H 1.00261 0.03307 0.72799 0.0
H562 H 0.96696 0.0473 0.69698 0.0
O563 O 0.07061 0.17944 0.7087 0.0
C564 C 0.12212 0.15338 0.67586 0.0
C565 C 1.00342 0.09176 0.68807 0.0
C566 C 0.01158 0.05515 0.71805 0.0
N567 N 0.05463 0.10409 0.7102 0.0
C568 C 0.03521 0.11197 0.69308 0.0
C569 C 0.04326 0.07594 0.72257 0.0
C570 C 0.99157 0.06318 0.70067 0.0
C571 C 0.22196 0.16663 0.70607 0.0
N572 N 0.19795 0.18597 0.69411 0.0
C573 C 0.25392 0.15047 0.69809 0.0
C574 C 0.26119 0.15393 0.67764 0.0
C575 C 0.23646 0.17334 0.66545 0.0
C576 C 0.20484 0.18916 0.67397 0.0
C577 C 0.19864 0.30321 0.67879 0.0
C578 C 0.1307 0.26738 0.67937 0.0
C579 C 0.19352 0.27043 0.68973 0.0
N580 N 0.15988 0.2528 0.68986 0.0
C581 C 0.1348 0.30011 0.66827 0.0
C582 C 0.16904 0.31809 0.668 0.0
C583 C 0.07435 0.21378 0.71346 0.0
C584 C 0.09723 0.14439 0.77908 0.0
C585 C 0.04668 0.14941 0.74794 0.0
C586 C 0.03491 0.1556 0.76763 0.0
C587 C 0.06041 0.153 0.78329 0.0
N588 N 0.0828 0.14071 0.74389 0.0
C589 C 0.10797 0.13844 0.75919 0.0
Co590 Co 0.55639 0.40032 0.45288 0.0
Co591 Co 0.63077 0.34548 0.46202 0.0
O592 O 0.60172 0.39037 0.4687 0.0
C593 C 0.5433 0.43826 0.49286 0.0
O594 O 0.57459 0.42599 0.50046 0.0
C595 C 0.68868 0.40142 0.47774 0.0
O596 O 0.66763 0.43057 0.4745 0.0
O597 O 0.63784 0.36653 0.43419 0.0
O598 O 0.57757 0.37472 0.42901 0.0
H599 H 0.66641 0.23995 0.41652 0.0
H600 H 0.6009 0.46222 0.47124 0.0
O601 O 0.53237 0.42747 0.47565 0.0
H602 H 0.58564 0.49682 0.40019 0.0
H603 H 0.44651 0.47474 0.42864 0.0
H604 H 0.51061 0.35368 0.4256 0.0
H605 H 0.55828 0.43889 0.41312 0.0
H606 H 0.50458 0.46472 0.4474 0.0
O607 O 0.67849 0.36909 0.47191 0.0
H608 H 0.63031 0.29483 0.42704 0.0
H609 H 0.69339 0.30263 0.48077 0.0
H610 H 0.45287 0.36269 0.40643 0.0
H611 H 0.62811 0.5206 0.45904 0.0
H612 H 0.42035 0.42357 0.40788 0.0
H613 H 0.62073 0.53836 0.42322 0.0
O614 O 0.53593 0.3521 0.46258 0.0
H615 H 0.62293 0.3555 0.53724 0.0
H616 H 0.61195 0.27076 0.47934 0.0
H617 H 0.60114 0.24656 0.51342 0.0
H618 H 0.6068 0.28902 0.54272 0.0
H619 H 0.63297 0.37858 0.50288 0.0
H620 H 0.73038 0.2481 0.47077 0.0
H621 H 0.71688 0.21621 0.43846 0.0
O622 O 0.58447 0.31749 0.45343 0.0
C623 C 0.61066 0.37431 0.42254 0.0
C624 C 0.67253 0.25355 0.43065 0.0
C625 C 0.70848 0.25818 0.46107 0.0
N626 N 0.65963 0.30197 0.45453 0.0
C627 C 0.65214 0.28463 0.4367 0.0
C628 C 0.68753 0.28921 0.46662 0.0
C629 C 0.70086 0.24028 0.44295 0.0
C630 C 0.59689 0.46973 0.45576 0.0
N631 N 0.57735 0.44708 0.4431 0.0
C632 C 0.61266 0.50288 0.44887 0.0
C633 C 0.60858 0.5128 0.42878 0.0
C634 C 0.58891 0.48953 0.41586 0.0
C635 C 0.57348 0.45665 0.42331 0.0
C636 C 0.46039 0.44807 0.4279 0.0
C637 C 0.49675 0.3803 0.4263 0.0
C638 C 0.4932 0.44214 0.43859 0.0
N639 N 0.51107 0.40861 0.43764 0.0
C640 C 0.464 0.38522 0.41541 0.0
C641 C 0.44575 0.41937 0.41624 0.0
C642 C 0.55047 0.32049 0.45867 0.0
C643 C 0.62041 0.33669 0.5246 0.0
C644 C 0.61413 0.28952 0.49193 0.0
C645 C 0.60814 0.2756 0.51124 0.0
C646 C 0.61134 0.29941 0.52767 0.0
N647 N 0.62312 0.32611 0.48901 0.0
C648 C 0.62614 0.34961 0.50507 0.0
Co649 Co 0.36663 0.81513 0.20488 0.0
Co650 Co 0.41941 0.89013 0.21672 0.0
O651 O 0.37431 0.86026 0.22144 0.0
C652 C 0.32494 0.79987 0.24335 0.0
O653 O 0.33597 0.83112 0.25166 0.0
C654 C 0.36335 0.94676 0.23352 0.0
O655 O 0.33661 0.92206 0.23481 0.0
O656 O 0.40244 0.89748 0.18809 0.0
O657 O 0.39517 0.837 0.18235 0.0
H658 H 0.53025 0.9279 0.17594 0.0
H659 H 0.30276 0.85873 0.22132 0.0
O660 O 0.33699 0.79006 0.22625 0.0
H661 H 0.27799 0.84705 0.14886 0.0
H662 H 0.29567 0.70558 0.17692 0.0
H663 H 0.4163 0.7701 0.17888 0.0
H664 H 0.33389 0.81907 0.1637 0.0
H665 H 0.30342 0.76313 0.19664 0.0
O666 O 0.39416 0.9382 0.22521 0.0
H667 H 0.47463 0.89081 0.18391 0.0
H668 H 0.45884 0.95272 0.23757 0.0
H669 H 0.40959 0.71288 0.15882 0.0
H670 H 0.24638 0.88663 0.20717 0.0
H671 H 0.34894 0.68016 0.15773 0.0
H672 H 0.23358 0.881 0.17065 0.0
O673 O 0.41328 0.79437 0.21612 0.0
H674 H 0.40112 0.87762 0.29158 0.0
H675 H 0.49176 0.87241 0.23645 0.0
H676 H 0.51249 0.86066 0.27104 0.0
H677 H 0.46709 0.86349 0.299 0.0
H678 H 0.38155 0.88853 0.25679 0.0
H679 H 0.51394 0.99084 0.23003 0.0
H680 H 0.55021 0.97839 0.19907 0.0
O681 O 0.4485 0.844 0.20916 0.0
C682 C 0.39698 0.87026 0.17604 0.0
C683 C 0.51467 0.93361 0.18947 0.0
C684 C 0.50548 0.96899 0.2198 0.0
N685 N 0.46337 0.91965 0.21114 0.0
C686 C 0.48316 0.91268 0.19408 0.0
C687 C 0.47412 0.94748 0.22392 0.0
C688 C 0.52584 0.96196 0.20245 0.0
C689 C 0.29735 0.8555 0.20553 0.0
N690 N 0.32152 0.83649 0.19353 0.0
C691 C 0.26536 0.87165 0.19754 0.0
C692 C 0.25822 0.86855 0.17705 0.0
C693 C 0.2831 0.8495 0.16483 0.0
C694 C 0.31476 0.83366 0.17336 0.0
C695 C 0.32224 0.71958 0.17727 0.0
C696 C 0.38976 0.75618 0.17848 0.0
C697 C 0.32687 0.75212 0.1885 0.0
N698 N 0.3603 0.77013 0.18893 0.0
C699 C 0.38615 0.72371 0.16709 0.0
C700 C 0.35213 0.70535 0.1665 0.0
C701 C 0.44499 0.80941 0.21346 0.0
C702 C 0.42126 0.87663 0.27956 0.0
C703 C 0.47172 0.87368 0.24842 0.0
C704 C 0.48369 0.86703 0.26805 0.0
C705 C 0.45824 0.86862 0.28371 0.0
N706 N 0.43544 0.88201 0.24441 0.0
C707 C 0.41032 0.8831 0.25973 0.0
Co708 Co 0.94727 0.40739 0.56175 0.0
Co709 Co 0.87599 0.35015 0.548 0.0
O710 O 0.90467 0.39643 0.54398 0.0
C711 C 0.96596 0.44475 0.52228 0.0
O712 O 0.93632 0.43135 0.51341 0.0
C713 C 0.81921 0.40475 0.52961 0.0
O714 O 0.8426 0.43277 0.52935 0.0
O715 O 0.86446 0.36703 0.57609 0.0
O716 O 0.92256 0.38212 0.58468 0.0
H717 H 0.83642 0.23769 0.58747 0.0
H718 H 0.90489 0.46818 0.54099 0.0
O719 O 0.97444 0.43472 0.54002 0.0
H720 H 0.90835 0.50415 0.61231 0.0
H721 H 0.05158 0.48439 0.59065 0.0
H722 H 0.98878 0.36239 0.5916 0.0
H723 H 0.93762 0.44592 0.60107 0.0
H724 H 0.99714 0.47282 0.56914 0.0
O725 O 0.82854 0.37368 0.53754 0.0
H726 H 0.87242 0.29478 0.58091 0.0
H727 H 0.81842 0.30821 0.52471 0.0
H728 H 0.04284 0.37298 0.61354 0.0
H729 H 0.87557 0.52661 0.55154 0.0
H730 H 0.07467 0.43434 0.61316 0.0
H731 H 0.87715 0.54513 0.58746 0.0
O732 O 0.97065 0.35939 0.5534 0.0
H733 H 0.89501 0.36738 0.47353 0.0
H734 H 0.9008 0.27842 0.52972 0.0
H735 H 0.91793 0.25764 0.49579 0.0
H736 H 0.91489 0.3022 0.46731 0.0
H737 H 0.87877 0.38705 0.50771 0.0
H738 H 0.78147 0.25156 0.53073 0.0
H739 H 0.79048 0.21574 0.56228 0.0
O740 O 0.92131 0.32272 0.55793 0.0
C741 C 0.88879 0.37649 0.58914 0.0
C742 C 0.83218 0.25308 0.57369 0.0
C743 C 0.80131 0.26089 0.54186 0.0
N744 N 0.8474 0.30502 0.55253 0.0
C745 C 0.8525 0.28545 0.5699 0.0
C746 C 0.82214 0.29312 0.5386 0.0
C747 C 0.8064 0.24079 0.55955 0.0
C748 C 0.90634 0.47601 0.55656 0.0
N749 N 0.92394 0.45379 0.57022 0.0
C750 C 0.88938 0.50918 0.56249 0.0
C751 C 0.89022 0.51953 0.58265 0.0
C752 C 0.90774 0.49659 0.59658 0.0
C753 C 0.92436 0.46361 0.59008 0.0
C754 C 0.03797 0.45752 0.59094 0.0
C755 C 1.00236 0.38922 0.59137 0.0
C756 C 1.00724 0.45071 0.57869 0.0
N757 N 0.98972 0.41692 0.57906 0.0
C758 C 0.03302 0.39503 0.60382 0.0
C759 C 0.05089 0.42944 0.60358 0.0
C760 C 0.95621 0.32717 0.55575 0.0
C761 C 0.89626 0.34762 0.48578 0.0
C762 C 0.89956 0.29811 0.51751 0.0
C763 C 0.9092 0.28611 0.49827 0.0
C764 C 0.90747 0.31109 0.48231 0.0
N765 N 0.88831 0.33396 0.52085 0.0
C766 C 0.88684 0.35861 0.50524 0.0
Co767 Co 0.36852 0.20992 0.31182 0.0
Co768 Co 0.42282 0.13597 0.30064 0.0
O769 O 0.37755 0.16519 0.29523 0.0
C770 C 0.32816 0.22496 0.2728 0.0
O771 O 0.33981 0.19385 0.26461 0.0
C772 C 0.36664 0.07787 0.28521 0.0
O773 O 0.33754 0.09841 0.28926 0.0
O774 O 0.40394 0.12735 0.3288 0.0
O775 O 0.39575 0.18767 0.3348 0.0
H776 H 0.53149 0.09863 0.34333 0.0
H777 H 0.30574 0.16594 0.29407 0.0
O778 O 0.33991 0.23511 0.28995 0.0
H779 H 0.27685 0.17682 0.36605 0.0
H780 H 0.29542 0.31857 0.33891 0.0
H781 H 0.41634 0.25473 0.33902 0.0
H782 H 0.3334 0.20529 0.35233 0.0
H783 H 0.30461 0.26141 0.31906 0.0
O784 O 0.39905 0.08837 0.29051 0.0
H785 H 0.47579 0.13492 0.33457 0.0
H786 H 0.46445 0.07446 0.28009 0.0
H787 H 0.40818 0.31156 0.35924 0.0
H788 H 0.24871 0.13764 0.30708 0.0
H789 H 0.34737 0.34394 0.35928 0.0
H790 H 0.23382 0.14283 0.34337 0.0
O791 O 0.41575 0.23123 0.30159 0.0
H792 H 0.40785 0.14748 0.22579 0.0
H793 H 0.4957 0.15699 0.28229 0.0
H794 H 0.51742 0.16986 0.24795 0.0
H795 H 0.4734 0.16495 0.21935 0.0
H796 H 0.38725 0.13534 0.26039 0.0
H797 H 0.51975 0.03727 0.28834 0.0
H798 H 0.55383 0.04937 0.32012 0.0
O799 O 0.45088 0.18212 0.30943 0.0
C800 C 0.39725 0.15423 0.3409 0.0
C801 C 0.51691 0.09312 0.32942 0.0
C802 C 0.51028 0.05864 0.29858 0.0
N803 N 0.46682 0.10692 0.30682 0.0
C804 C 0.48536 0.11362 0.32436 0.0
C805 C 0.47883 0.07969 0.29403 0.0
C806 C 0.52941 0.06547 0.3164 0.0
C807 C 0.29943 0.16906 0.30975 0.0
N808 N 0.32284 0.18807 0.32223 0.0
C809 C 0.26706 0.15265 0.3171 0.0
C810 C 0.25876 0.1555 0.33746 0.0
C811 C 0.28286 0.17456 0.35018 0.0
C812 C 0.31491 0.19067 0.34228 0.0
C813 C 0.32206 0.30473 0.33901 0.0
C814 C 0.38975 0.26852 0.33896 0.0
C815 C 0.32751 0.27242 0.32771 0.0
N816 N 0.36101 0.2546 0.32785 0.0
C817 C 0.38531 0.30076 0.35044 0.0
C818 C 0.3512 0.31893 0.35044 0.0
C819 C 0.44742 0.21662 0.30499 0.0
C820 C 0.42734 0.14964 0.23811 0.0
C821 C 0.47628 0.15506 0.27 0.0
C822 C 0.48879 0.16225 0.25055 0.0
C823 C 0.46409 0.15947 0.23451 0.0
N824 N 0.4402 0.14527 0.27344 0.0
C825 C 0.41583 0.14271 0.25777 0.0
Co826 Co 0.56252 0.61806 0.06176 0.0
Co827 Co 0.63145 0.67582 0.0459 0.0
O828 O 0.6028 0.6295 0.04285 0.0
C829 C 0.53988 0.58254 0.02253 0.0
O830 O 0.56791 0.59763 0.013 0.0
C831 C 0.6943 0.6219 0.03491 0.0
O832 O 0.68583 0.59764 0.04893 0.0
O833 O 0.64676 0.65909 0.07346 0.0
O834 O 0.59006 0.64269 0.08405 0.0
H835 H 0.67576 0.78942 0.083 0.0
H836 H 0.60391 0.55914 0.03915 0.0
O837 O 0.53311 0.59115 0.04068 0.0
H838 H 0.6067 0.51918 0.10986 0.0
H839 H 0.46146 0.54037 0.09321 0.0
H840 H 0.52477 0.66213 0.09331 0.0
H841 H 0.57592 0.57767 0.10027 0.0
H842 H 0.51328 0.55253 0.07004 0.0
O843 O 0.67583 0.65189 0.03304 0.0
H844 H 0.6389 0.7323 0.0781 0.0
H845 H 0.68674 0.71653 0.02055 0.0
H846 H 0.47341 0.65093 0.11692 0.0
H847 H 0.63472 0.50051 0.04808 0.0
H848 H 0.44134 0.58969 0.11697 0.0
H849 H 0.63627 0.47998 0.08368 0.0
O850 O 0.53814 0.66621 0.05445 0.0
H851 H 0.60772 0.65772 0.97215 0.0
H852 H 0.60182 0.74665 0.02841 0.0
H853 H 0.58073 0.76625 0.99485 0.0
H854 H 0.58369 0.72164 0.96638 0.0
H855 H 0.62808 0.63919 1.00606 0.0
H856 H 0.72437 0.77325 0.02484 0.0
H857 H 0.71893 0.81025 0.05622 0.0
O858 O 0.58775 0.70301 0.05771 0.0
C859 C 0.62423 0.64916 0.08731 0.0
C860 C 0.67842 0.77353 0.06926 0.0
C861 C 0.70572 0.76443 0.03664 0.0
N862 N 0.66068 0.72093 0.04914 0.0
C863 C 0.65761 0.74113 0.06643 0.0
C864 C 0.68444 0.73218 0.03434 0.0
C865 C 0.70264 0.78519 0.05424 0.0
C866 C 0.6037 0.55034 0.0546 0.0
N867 N 0.58691 0.57151 0.06901 0.0
C868 C 0.62155 0.51711 0.05961 0.0
C869 C 0.62248 0.50564 0.07958 0.0
C870 C 0.60586 0.52758 0.09426 0.0
C871 C 0.58832 0.56067 0.08869 0.0
C872 C 0.4752 0.56718 0.09333 0.0
C873 C 0.51109 0.63534 0.09328 0.0
C874 C 0.50444 0.57432 0.08015 0.0
N875 N 0.52214 0.60802 0.08031 0.0
C876 C 0.48196 0.62919 0.10666 0.0
C877 C 0.46395 0.59484 0.10667 0.0
C878 C 0.55273 0.69849 0.05628 0.0
C879 C 0.60614 0.67737 0.98444 0.0
C880 C 0.60267 0.7269 0.01622 0.0
C881 C 0.59094 0.73825 0.99719 0.0
C882 C 0.59265 0.71323 0.98122 0.0
N883 N 0.61563 0.6916 0.01932 0.0
C884 C 0.61759 0.66702 1.00369 0.0
Co885 Co 0.15552 0.81344 0.81231 0.0
Co886 Co 0.10215 0.88838 0.80143 0.0
O887 O 0.14725 0.8589 0.79617 0.0
C888 C 0.19633 0.79913 0.77341 0.0
O889 O 0.18542 0.83064 0.76536 0.0
C890 C 0.15773 0.9452 0.7844 0.0
O891 O 0.18441 0.9205 0.78314 0.0
O892 O 0.11981 0.89511 0.83004 0.0
O893 O 0.12751 0.83456 0.83526 0.0
H894 H 0.99246 0.92467 0.84346 0.0
H895 H 0.21883 0.85768 0.79572 0.0
O896 O 0.18462 0.78906 0.79053 0.0
H897 H 0.24568 0.84415 0.86787 0.0
H898 H 0.22739 0.70344 0.83886 0.0
H899 H 0.10651 0.76734 0.83813 0.0
H900 H 0.18945 0.81631 0.85326 0.0
H901 H 0.21909 0.76159 0.81974 0.0
O902 O 0.12708 0.93679 0.79298 0.0
H903 H 0.04788 0.88799 0.8347 0.0
H904 H 0.06185 0.95122 0.78136 0.0
H905 H 0.11376 0.70949 0.85759 0.0
H906 H 0.27553 0.88547 0.80963 0.0
H907 H 0.17454 0.67709 0.85806 0.0
H908 H 0.28938 0.8789 0.846 0.0
O909 O 0.10876 0.79281 0.80118 0.0
H910 H 0.11856 0.87719 0.72637 0.0
H911 H 0.02924 0.87125 0.7821 0.0
H912 H 1.00761 0.86017 0.7476 0.0
H913 H 0.05234 0.86338 0.71934 0.0
H914 H 0.13903 0.8874 0.76106 0.0
H915 H 1.00693 0.98895 0.78968 0.0
H916 H 0.97168 0.97562 0.82088 0.0
O917 O 0.07333 0.84186 0.80884 0.0
C918 C 0.12575 0.86764 0.84186 0.0
C919 C 1.0076 0.93077 0.82983 0.0
C920 C 0.01577 0.9669 0.79967 0.0
N921 N 0.05824 0.91755 0.80759 0.0
C922 C 0.039 0.91007 0.82478 0.0
C923 C 0.04704 0.94563 0.79512 0.0
C924 C 0.99597 0.95937 0.81716 0.0
C925 C 0.22467 0.8541 0.81144 0.0
N926 N 0.20088 0.83469 0.82348 0.0
C927 C 0.25686 0.87016 0.8193 0.0
C928 C 0.26458 0.86653 0.8397 0.0
C929 C 0.2401 0.84704 0.85197 0.0
C930 C 0.20823 0.83131 0.84357 0.0
C931 C 0.20077 0.71731 0.83878 0.0
C932 C 0.1331 0.75355 0.83828 0.0
C933 C 0.19583 0.75019 0.82791 0.0
N934 N 0.16234 0.76803 0.82783 0.0
C935 C 0.13702 0.72073 0.84932 0.0
C936 C 0.17112 0.70255 0.84956 0.0
C937 C 0.07699 0.80751 0.80402 0.0
C938 C 0.09871 0.87604 0.73853 0.0
C939 C 0.049 0.87267 0.77 0.0
C940 C 0.03652 0.8664 0.75043 0.0
C941 C 0.0616 0.86821 0.73459 0.0
N942 N 0.08541 0.88082 0.77381 0.0
C943 C 0.11016 0.88212 0.75831 0.0
Co944 Co 0.5636 0.90098 0.5612 0.0
Co945 Co 0.63231 0.84334 0.54489 0.0
O946 O 0.6034 0.8895 0.54201 0.0
C947 C 0.53962 0.93593 0.5221 0.0
O948 O 0.56774 0.92143 0.5124 0.0
C949 C 0.69516 0.89733 0.53388 0.0
O950 O 0.68729 0.92087 0.54836 0.0
O951 O 0.64821 0.86013 0.57236 0.0
O952 O 0.59189 0.87695 0.58334 0.0
H953 H 0.67781 0.72988 0.58158 0.0
H954 H 0.60439 0.95966 0.53801 0.0
O955 O 0.53339 0.92723 0.54029 0.0
H956 H 0.60819 1.00119 0.60846 0.0
H957 H 0.46289 0.97836 0.59311 0.0
H958 H 0.52713 0.85722 0.59333 0.0
H959 H 0.57753 0.94231 0.59938 0.0
H960 H 0.51403 0.9662 0.56952 0.0
O961 O 0.67633 0.86759 0.53171 0.0
H962 H 0.64059 0.78678 0.57696 0.0
H963 H 0.68724 0.80305 0.51917 0.0
H964 H 0.47648 0.86846 0.61737 0.0
H965 H 0.6351 0.01865 0.54644 0.0
H966 H 0.44396 0.92939 0.61736 0.0
H967 H 0.63715 0.03999 0.58189 0.0
O968 O 0.53923 0.85261 0.5543 0.0
H969 H 0.60684 0.86111 0.47129 0.0
H970 H 0.60232 0.77238 0.52768 0.0
H971 H 0.58052 0.75258 0.49427 0.0
H972 H 0.58278 0.79708 0.46574 0.0
H973 H 0.62795 0.87984 0.50505 0.0
H974 H 0.72521 0.74656 0.52318 0.0
H975 H 0.72056 0.70943 0.55454 0.0
O976 O 0.58895 0.81589 0.55701 0.0
C977 C 0.62607 0.87026 0.58635 0.0
C978 C 0.68013 0.74584 0.56785 0.0
C979 C 0.70676 0.75523 0.53509 0.0
N980 N 0.66179 0.7984 0.54791 0.0
C981 C 0.65912 0.77812 0.56518 0.0
C982 C 0.68529 0.78734 0.53296 0.0
C983 C 0.70412 0.73439 0.55268 0.0
C984 C 0.60439 0.96878 0.55341 0.0
N985 N 0.58793 0.94783 0.56804 0.0
C986 C 0.62219 1.00223 0.55813 0.0
C987 C 0.62341 0.01415 0.57802 0.0
C988 C 0.60712 0.99245 0.59292 0.0
C989 C 0.58963 0.95913 0.58764 0.0
C990 C 0.47685 0.95169 0.59326 0.0
C991 C 0.51326 0.88388 0.59327 0.0
C992 C 0.50571 0.94455 0.57985 0.0
N993 N 0.52369 0.91102 0.58005 0.0
C994 C 0.48453 0.89005 0.6069 0.0
C995 C 0.46626 0.92422 0.60688 0.0
C996 C 0.55387 0.82037 0.556 0.0
C997 C 0.60558 0.8415 0.48361 0.0
C998 C 0.6029 0.79208 0.51545 0.0
C999 C 0.59075 0.78062 0.49651 0.0
C1000 C 0.59208 0.80558 0.48051 0.0
N1001 N 0.6159 0.82743 0.51842 0.0
C1002 C 0.61746 0.85196 0.50277 0.0
Co1003 Co 0.36664 0.31037 0.81152 0.0
Co1004 Co 0.42114 0.38461 0.80097 0.0
O1005 O 0.37604 0.35527 0.79513 0.0
C1006 C 0.32745 0.29516 0.77214 0.0
O1007 O 0.33894 0.32645 0.76407 0.0
C1008 C 0.3653 0.4426 0.78516 0.0
O1009 O 0.33618 0.42177 0.78877 0.0
O1010 O 0.40163 0.39288 0.82906 0.0
O1011 O 0.39317 0.33251 0.83478 0.0
H1012 H 0.52875 0.42186 0.84453 0.0
H1013 H 0.3043 0.35415 0.79332 0.0
O1014 O 0.33878 0.28518 0.78939 0.0
H1015 H 0.27328 0.34273 0.86502 0.0
H1016 H 0.29299 0.20125 0.83774 0.0
H1017 H 0.41384 0.26542 0.83892 0.0
H1018 H 0.3303 0.31457 0.85173 0.0
H1019 H 0.3026 0.25864 0.81815 0.0
O1020 O 0.39755 0.43228 0.79081 0.0
H1021 H 0.4733 0.38548 0.83527 0.0
H1022 H 0.4632 0.44643 0.7809 0.0
H1023 H 0.40525 0.20835 0.85888 0.0
H1024 H 0.24681 0.38214 0.80589 0.0
H1025 H 0.34447 0.17581 0.85839 0.0
H1026 H 0.23086 0.37668 0.84203 0.0
O1027 O 0.41415 0.28931 0.80161 0.0
H1028 H 0.40791 0.37361 0.72599 0.0
H1029 H 0.4945 0.36408 0.78304 0.0
H1030 H 0.51704 0.35159 0.74882 0.0
H1031 H 0.47365 0.35651 0.71995 0.0
H1032 H 0.38648 0.38536 0.76048 0.0
H1033 H 0.51826 0.48369 0.78965 0.0
H1034 H 0.55159 0.47139 0.82163 0.0
O1035 O 0.44908 0.33844 0.8098 0.0
C1036 C 0.39459 0.36587 0.84102 0.0
C1037 C 0.5145 0.42746 0.83054 0.0
C1038 C 0.50857 0.4622 0.79976 0.0
N1039 N 0.46497 0.41373 0.80754 0.0
C1040 C 0.48309 0.40691 0.8252 0.0
C1041 C 0.47725 0.44111 0.79492 0.0
C1042 C 0.52728 0.45526 0.81769 0.0
C1043 C 0.29753 0.35093 0.80894 0.0
N1044 N 0.32062 0.33196 0.82159 0.0
C1045 C 0.2649 0.36716 0.81604 0.0
C1046 C 0.256 0.36416 0.83631 0.0
C1047 C 0.27977 0.34512 0.84921 0.0
C1048 C 0.3121 0.3292 0.84156 0.0
C1049 C 0.31961 0.21517 0.83808 0.0
C1050 C 0.38726 0.25156 0.83863 0.0
C1051 C 0.3253 0.24761 0.82693 0.0
N1052 N 0.35877 0.26553 0.82737 0.0
C1053 C 0.38258 0.21918 0.84997 0.0
C1054 C 0.34849 0.20093 0.84967 0.0
C1055 C 0.44573 0.30396 0.80524 0.0
C1056 C 0.42712 0.37145 0.73843 0.0
C1057 C 0.47535 0.36602 0.77063 0.0
C1058 C 0.48832 0.35904 0.75125 0.0
C1059 C 0.46399 0.36183 0.73506 0.0
N1060 N 0.43917 0.37562 0.77386 0.0
C1061 C 0.41514 0.37817 0.75803 0.0
Co1062 Co 0.94815 0.11708 0.06026 0.0
Co1063 Co 0.88009 0.1763 0.04463 0.0
O1064 O 0.90808 0.12961 0.04133 0.0
C1065 C 0.97054 0.08157 0.02095 0.0
O1066 O 0.94212 0.09599 0.01142 0.0
C1067 C 0.81747 0.12284 0.03185 0.0
O1068 O 0.82686 0.09672 0.04468 0.0
O1069 O 0.86438 0.15919 0.07212 0.0
O1070 O 0.92065 0.14101 0.08271 0.0
H1071 H 0.83772 0.29 0.08217 0.0
H1072 H 0.90538 0.05966 0.03699 0.0
O1073 O 0.97755 0.09075 0.03901 0.0
H1074 H 0.90375 0.01625 0.1071 0.0
H1075 H 0.0483 0.03752 0.09129 0.0
H1076 H 0.9859 0.15961 0.0925 0.0
H1077 H 0.93485 0.07496 0.09821 0.0
H1078 H 0.9969 0.05094 0.06798 0.0
O1079 O 0.83523 0.15351 0.0313 0.0
H1080 H 0.87353 0.23236 0.07709 0.0
H1081 H 0.82573 0.21845 0.01931 0.0
H1082 H 0.03678 0.1471 0.1163 0.0
H1083 H 0.87426 1.00087 0.0452 0.0
H1084 H 0.06838 0.08569 0.11579 0.0
H1085 H 0.87328 0.97857 0.08049 0.0
O1086 O 0.9732 0.16528 0.05357 0.0
H1087 H 0.90472 0.1595 0.97092 0.0
H1088 H 0.91112 0.2471 0.0278 0.0
H1089 H 0.93302 0.26714 0.9945 0.0
H1090 H 0.92982 0.22321 0.96572 0.0
H1091 H 0.88353 0.14051 1.00457 0.0
H1092 H 0.78917 0.27573 0.02377 0.0
H1093 H 0.7951 0.31206 0.05537 0.0
O1094 O 0.9241 0.20258 0.05684 0.0
C1095 C 0.8867 0.14843 0.08597 0.0
C1096 C 0.83481 0.27439 0.06836 0.0
C1097 C 0.80754 0.26635 0.0356 0.0
N1098 N 0.85162 0.22181 0.04804 0.0
C1099 C 0.855 0.24167 0.06543 0.0
C1100 C 0.8282 0.23377 0.03321 0.0
C1101 C 0.81091 0.28674 0.05331 0.0
C1102 C 0.90592 0.05011 0.05229 0.0
N1103 N 0.92326 0.07043 0.06692 0.0
C1104 C 0.88785 0.01678 0.0569 0.0
C1105 C 0.88723 1.00432 0.0767 0.0
C1106 C 0.90436 0.02541 0.09161 0.0
C1107 C 0.92209 0.05863 0.08644 0.0
C1108 C 0.03476 0.0644 0.09165 0.0
C1109 C 0.99938 0.13275 0.09222 0.0
C1110 C 1.00578 0.07226 0.07839 0.0
N1111 N 0.98831 0.10605 0.07886 0.0
C1112 C 0.02825 0.12586 0.10572 0.0
C1113 C 0.04599 0.09142 0.10541 0.0
C1114 C 0.95907 0.19768 0.05562 0.0
C1115 C 0.90638 0.17887 0.98335 0.0
C1116 C 0.91008 0.22765 0.01546 0.0
C1117 C 0.92231 0.23924 0.99658 0.0
C1118 C 0.92046 0.2146 0.98044 0.0
N1119 N 0.89648 0.19248 0.01824 0.0
C1120 C 0.89444 0.16826 1.00245 0.0
Co1121 Co 0.15692 0.70743 0.31161 0.0
Co1122 Co 0.10109 0.63382 0.30133 0.0
O1123 O 0.14669 0.66233 0.29549 0.0
C1124 C 0.19527 0.72212 0.27194 0.0
O1125 O 0.18396 0.6907 0.26391 0.0
C1126 C 0.15605 0.57497 0.28574 0.0
O1127 O 0.1853 0.59597 0.28875 0.0
O1128 O 0.11999 0.62606 0.32961 0.0
O1129 O 0.13048 0.68624 0.33511 0.0
H1130 H 0.99243 0.59974 0.34468 0.0
H1131 H 0.21823 0.66273 0.29331 0.0
O1132 O 0.18456 0.73184 0.28931 0.0
H1133 H 0.2512 0.67481 0.36477 0.0
H1134 H 0.23244 0.81608 0.33698 0.0
H1135 H 0.11066 0.75375 0.3387 0.0
H1136 H 0.1943 0.70361 0.35166 0.0
H1137 H 0.22182 0.75831 0.31783 0.0
O1138 O 0.12407 0.58546 0.29171 0.0
H1139 H 0.04849 0.63495 0.33534 0.0
H1140 H 0.05833 0.57186 0.28167 0.0
H1141 H 0.12024 0.81125 0.35821 0.0
H1142 H 0.27563 0.63408 0.30568 0.0
H1143 H 0.1815 0.84285 0.35745 0.0
H1144 H 0.29255 0.63986 0.34171 0.0
O1145 O 0.10976 0.72907 0.3016 0.0
H1146 H 0.11555 0.64319 0.22635 0.0
H1147 H 0.02807 0.65393 0.28276 0.0
H1148 H 1.00609 0.66577 0.24835 0.0
H1149 H 0.04993 0.66021 0.21979 0.0
H1150 H 0.13641 0.63217 0.26103 0.0
H1151 H 1.00266 0.53571 0.29052 0.0
H1152 H 0.96914 0.54969 0.32219 0.0
O1153 O 0.07383 0.68065 0.30963 0.0
C1154 C 0.12765 0.65306 0.3415 0.0
C1155 C 1.00676 0.59342 0.33083 0.0
C1156 C 0.01254 0.55744 0.30046 0.0
N1157 N 0.05674 0.60558 0.30795 0.0
C1158 C 0.03851 0.6133 0.32544 0.0
C1159 C 0.04422 0.57789 0.29557 0.0
C1160 C 0.99373 0.56532 0.31821 0.0
C1161 C 0.22538 0.66598 0.30889 0.0
N1162 N 0.20282 0.68539 0.32159 0.0
C1163 C 0.25797 0.64942 0.31587 0.0
C1164 C 0.26741 0.6526 0.33608 0.0
C1165 C 0.24424 0.67218 0.34902 0.0
C1166 C 0.21192 0.68839 0.34148 0.0
C1167 C 0.20563 0.80255 0.33745 0.0
C1168 C 0.13745 0.7672 0.33831 0.0
C1169 C 0.19938 0.76989 0.32656 0.0
N1170 N 0.16565 0.75248 0.32716 0.0
C1171 C 0.14269 0.79982 0.34938 0.0
C1172 C 0.17705 0.81755 0.34894 0.0
C1173 C 0.07788 0.71491 0.30483 0.0
C1174 C 0.09614 0.64564 0.23866 0.0
C1175 C 0.04742 0.65179 0.27051 0.0
C1176 C 0.03476 0.65836 0.251 0.0
C1177 C 0.05935 0.65522 0.23499 0.0
N1178 N 0.08354 0.64225 0.27403 0.0
C1179 C 0.1078 0.63933 0.25838 0.0
Co1180 Co 0.55699 0.11832 0.95231 0.0
Co1181 Co 0.63328 0.17116 0.96091 0.0
O1182 O 0.60273 0.12748 0.9679 0.0
C1183 C 0.54386 0.08099 0.99246 0.0
O1184 O 0.57552 0.09274 0.99984 0.0
C1185 C 0.68801 0.11545 0.97952 0.0
O1186 O 0.66222 0.09013 0.98216 0.0
O1187 O 0.63866 0.14982 0.93302 0.0
O1188 O 0.57814 0.14322 0.92824 0.0
H1189 H 0.67156 0.27529 0.91506 0.0
H1190 H 0.60077 0.05589 0.97055 0.0
O1191 O 0.53276 0.09191 0.97531 0.0
H1192 H 0.58291 0.02057 0.89977 0.0
H1193 H 0.44488 0.04605 0.92898 0.0
H1194 H 0.51174 0.16563 0.92513 0.0
H1195 H 0.55703 0.07916 0.91269 0.0
H1196 H 0.50359 0.055 0.94732 0.0
O1197 O 0.68075 0.14538 0.96984 0.0
H1198 H 0.6333 0.22212 0.92603 0.0
H1199 H 0.6987 0.2108 0.97877 0.0
H1200 H 0.45337 0.15769 0.90639 0.0
H1201 H 0.62658 0.99691 0.95836 0.0
H1202 H 0.41946 0.09756 0.90823 0.0
H1203 H 0.61786 0.97876 0.92268 0.0
O1204 O 0.53806 0.16711 0.96191 0.0
H1205 H 0.62362 0.16421 0.03649 0.0
H1206 H 0.61967 0.2471 0.97765 0.0
H1207 H 0.61053 0.2734 0.01135 0.0
H1208 H 0.61274 0.23193 0.04116 0.0
H1209 H 0.63196 0.13909 1.00258 0.0
H1210 H 0.73791 0.26354 0.96827 0.0
H1211 H 0.72432 0.29632 0.93625 0.0
O1212 O 0.58757 0.20076 0.95286 0.0
C1213 C 0.61104 0.14286 0.92154 0.0
C1214 C 0.67772 0.26129 0.92906 0.0
C1215 C 0.71501 0.25464 0.9589 0.0
N1216 N 0.66367 0.21339 0.95303 0.0
C1217 C 0.65611 0.2312 0.93537 0.0
C1218 C 0.69282 0.22464 0.96472 0.0
C1219 C 0.70734 0.27304 0.94094 0.0
C1220 C 0.59622 0.04825 0.95514 0.0
N1221 N 0.5767 0.07103 0.94255 0.0
C1222 C 0.61119 0.01475 0.94825 0.0
C1223 C 0.60634 1.00461 0.92823 0.0
C1224 C 0.58674 0.02802 0.91539 0.0
C1225 C 0.57213 0.06126 0.92283 0.0
C1226 C 0.45937 0.0724 0.92807 0.0
C1227 C 0.49727 0.13933 0.92602 0.0
C1228 C 0.49255 0.07773 0.93852 0.0
N1229 N 0.51118 0.11085 0.93736 0.0
C1230 C 0.46417 0.13502 0.91536 0.0
C1231 C 0.44515 0.1013 0.91642 0.0
C1232 C 0.55336 0.19837 0.95791 0.0
C1233 C 0.62292 0.18265 0.02365 0.0
C1234 C 0.62067 0.22873 0.99044 0.0
C1235 C 0.6155 0.24386 0.00955 0.0
C1236 C 0.61674 0.22061 0.02626 0.0
N1237 N 0.62721 0.19148 0.98793 0.0
C1238 C 0.62794 0.16853 1.00429 0.0
Co1239 Co 0.15423 0.31191 0.20608 0.0
Co1240 Co 0.10088 0.3871 0.21688 0.0
O1241 O 0.14561 0.35717 0.22234 0.0
C1242 C 0.19443 0.29745 0.24525 0.0
O1243 O 0.18309 0.32883 0.25326 0.0
C1244 C 0.15683 0.44359 0.2341 0.0
O1245 O 0.1834 0.41876 0.23542 0.0
O1246 O 0.11887 0.39402 0.18843 0.0
O1247 O 0.12733 0.33359 0.18285 0.0
H1248 H 0.99207 0.42489 0.17437 0.0
H1249 H 0.21715 0.35598 0.22365 0.0
O1250 O 0.18252 0.28703 0.22818 0.0
H1251 H 0.2466 0.34301 0.15185 0.0
H1252 H 0.22692 0.20219 0.17995 0.0
H1253 H 0.10629 0.26657 0.17917 0.0
H1254 H 0.18972 0.31531 0.16563 0.0
H1255 H 0.21792 0.25998 0.19929 0.0
O1256 O 0.12604 0.43522 0.22562 0.0
H1257 H 0.04707 0.38764 0.18328 0.0
H1258 H 0.06079 0.44993 0.23701 0.0
H1259 H 0.11424 0.20908 0.15948 0.0
H1260 H 0.27446 0.38356 0.21059 0.0
H1261 H 0.17491 0.17644 0.15977 0.0
H1262 H 0.28966 0.37728 0.17439 0.0
O1263 O 0.10668 0.2912 0.21631 0.0
H1264 H 0.1163 0.37562 0.29198 0.0
H1265 H 0.02771 0.36993 0.23575 0.0
H1266 H 1.00563 0.35863 0.27011 0.0
H1267 H 0.05001 0.36171 0.29862 0.0
H1268 H 0.1372 0.38604 0.25741 0.0
H1269 H 1.00627 0.48821 0.22855 0.0
H1270 H 0.97137 0.47565 0.19708 0.0
O1271 O 0.07191 0.34099 0.20901 0.0
C1272 C 0.12498 0.3668 0.17647 0.0
C1273 C 1.00706 0.43065 0.18813 0.0
C1274 C 0.01508 0.46624 0.2185 0.0
N1275 N 0.05728 0.41668 0.2106 0.0
C1276 C 0.03822 0.40963 0.19326 0.0
C1277 C 0.04611 0.44465 0.22314 0.0
C1278 C 0.99548 0.45915 0.20086 0.0
C1279 C 0.22355 0.35242 0.20802 0.0
N1280 N 0.20013 0.3332 0.19563 0.0
C1281 C 0.2561 0.36842 0.20063 0.0
C1282 C 0.26458 0.36496 0.18032 0.0
C1283 C 0.24045 0.34574 0.16768 0.0
C1284 C 0.2082 0.33008 0.17562 0.0
C1285 C 0.20034 0.21614 0.17971 0.0
C1286 C 0.13281 0.25264 0.17939 0.0
C1287 C 0.195 0.2488 0.19072 0.0
N1288 N 0.16157 0.26676 0.19041 0.0
C1289 C 0.13713 0.22004 0.1682 0.0
C1290 C 0.17116 0.20172 0.16838 0.0
C1291 C 0.07515 0.30631 0.21312 0.0
C1292 C 0.09661 0.37447 0.27971 0.0
C1293 C 0.04731 0.3712 0.24796 0.0
C1294 C 0.03458 0.36485 0.26745 0.0
C1295 C 0.05946 0.36659 0.28343 0.0
N1296 N 0.08376 0.37935 0.24437 0.0
C1297 C 0.10831 0.38064 0.26001 0.0
Co1298 Co 0.95474 0.9075 0.45298 0.0
Co1299 Co 0.88096 0.85245 0.46452 0.0
O1300 O 0.91093 0.89733 0.46988 0.0
C1301 C 0.97151 0.94394 0.49295 0.0
O1302 O 0.94146 0.93027 0.50122 0.0
C1303 C 0.82587 0.9078 0.48323 0.0
O1304 O 0.85095 0.93399 0.48544 0.0
O1305 O 0.87189 0.87137 0.43656 0.0
O1306 O 0.93123 0.88271 0.42953 0.0
H1307 H 0.84087 0.74348 0.42236 0.0
H1308 H 0.91274 0.96928 0.47298 0.0
O1309 O 0.98095 0.93428 0.47531 0.0
H1310 H 0.91983 1.0045 0.40164 0.0
H1311 H 0.06205 0.98269 0.42623 0.0
H1312 H 0.99752 0.86164 0.42408 0.0
H1313 H 0.94783 0.94601 0.41345 0.0
H1314 H 1.00602 0.97207 0.44657 0.0
O1315 O 0.83384 0.87743 0.47418 0.0
H1316 H 0.87853 0.79865 0.43081 0.0
H1317 H 0.81877 0.81263 0.4852 0.0
H1318 H 0.0532 0.87125 0.40334 0.0
H1319 H 0.88477 0.02806 0.46187 0.0
H1320 H 0.08591 0.93212 0.40433 0.0
H1321 H 0.88815 0.04618 0.42593 0.0
O1322 O 0.97618 0.8589 0.46171 0.0
H1323 H 0.89674 0.86398 0.53967 0.0
H1324 H 0.90032 0.77842 0.48191 0.0
H1325 H 0.91401 0.75446 0.51569 0.0
H1326 H 0.91206 0.79729 0.54495 0.0
H1327 H 0.88388 0.88677 0.50567 0.0
H1328 H 0.78019 0.75791 0.47723 0.0
H1329 H 0.79126 0.72277 0.44566 0.0
O1330 O 0.92622 0.82386 0.45532 0.0
C1331 C 0.89758 0.87976 0.42418 0.0
C1332 C 0.83582 0.75851 0.43618 0.0
C1333 C 0.80172 0.76665 0.46695 0.0
N1334 N 0.85099 0.80884 0.45848 0.0
C1335 C 0.85711 0.78975 0.44105 0.0
C1336 C 0.82356 0.79775 0.47133 0.0
C1337 C 0.80797 0.74693 0.44925 0.0
C1338 C 0.91503 0.97697 0.45743 0.0
N1339 N 0.93289 0.95437 0.44407 0.0
C1340 C 0.89882 1.01033 0.45116 0.0
C1341 C 0.90066 0.02045 0.431 0.0
C1342 C 0.91845 0.99712 0.41738 0.0
C1343 C 0.93434 0.964 0.4242 0.0
C1344 C 0.04807 0.95602 0.42569 0.0
C1345 C 0.0115 0.88825 0.42459 0.0
C1346 C 0.01643 0.94976 0.43727 0.0
N1347 N 0.99846 0.91622 0.43658 0.0
C1348 C 0.04307 0.89351 0.41281 0.0
C1349 C 0.06143 0.92765 0.41339 0.0
C1350 C 0.96102 0.82719 0.45861 0.0
C1351 C 0.89743 0.84495 0.52706 0.0
C1352 C 0.89946 0.79737 0.49446 0.0
C1353 C 0.9072 0.78356 0.51362 0.0
C1354 C 0.90609 0.80757 0.53002 0.0
N1355 N 0.89062 0.83405 0.49162 0.0
C1356 C 0.88987 0.85774 0.50767 0.0
Co1357 Co 0.36448 0.70541 0.70504 0.0
Co1358 Co 0.41795 0.63051 0.71606 0.0
O1359 O 0.37308 0.66028 0.72142 0.0
C1360 C 0.32513 0.72086 0.74425 0.0
O1361 O 0.33624 0.68952 0.75241 0.0
C1362 C 0.36246 0.57378 0.73342 0.0
O1363 O 0.33573 0.59842 0.73478 0.0
O1364 O 0.39977 0.6232 0.68763 0.0
O1365 O 0.39158 0.6836 0.68198 0.0
H1366 H 0.52679 0.59294 0.67371 0.0
H1367 H 0.30152 0.66195 0.72264 0.0
O1368 O 0.33627 0.73047 0.72694 0.0
H1369 H 0.27237 0.67349 0.65065 0.0
H1370 H 0.29192 0.81492 0.67845 0.0
H1371 H 0.41261 0.75063 0.67827 0.0
H1372 H 0.32923 0.70142 0.66447 0.0
H1373 H 0.30081 0.75729 0.69794 0.0
O1374 O 0.39309 0.58234 0.72489 0.0
H1375 H 0.47157 0.62991 0.68248 0.0
H1376 H 0.45848 0.56812 0.73637 0.0
H1377 H 0.40475 0.80796 0.65844 0.0
H1378 H 0.24421 0.63409 0.70952 0.0
H1379 H 0.34406 0.84055 0.65843 0.0
H1380 H 0.2292 0.63966 0.67324 0.0
O1381 O 0.41175 0.72627 0.71547 0.0
H1382 H 0.40284 0.64269 0.79112 0.0
H1383 H 0.49112 0.64838 0.73489 0.0
H1384 H 0.51329 0.66017 0.76924 0.0
H1385 H 0.46908 0.6571 0.79774 0.0
H1386 H 0.38183 0.63177 0.75657 0.0
H1387 H 0.51321 0.5301 0.72806 0.0
H1388 H 0.54792 0.54256 0.69657 0.0
O1389 O 0.44669 0.67671 0.70812 0.0
C1390 C 0.39355 0.65035 0.67565 0.0
C1391 C 0.51189 0.58722 0.68747 0.0
C1392 C 0.50423 0.5519 0.71794 0.0
N1393 N 0.46167 0.6011 0.70987 0.0
C1394 C 0.48061 0.60809 0.69252 0.0
C1395 C 0.47307 0.57334 0.7225 0.0
C1396 C 0.52371 0.55894 0.70029 0.0
C1397 C 0.29517 0.66511 0.70695 0.0
N1398 N 0.31867 0.68403 0.69451 0.0
C1399 C 0.26265 0.649 0.69954 0.0
C1400 C 0.25427 0.65207 0.67919 0.0
C1401 C 0.27846 0.67104 0.66652 0.0
C1402 C 0.31068 0.68683 0.67447 0.0
C1403 C 0.3185 0.80097 0.67833 0.0
C1404 C 0.38606 0.76451 0.67834 0.0
C1405 C 0.32378 0.76838 0.68941 0.0
N1406 N 0.35721 0.75043 0.68925 0.0
C1407 C 0.3818 0.79703 0.66708 0.0
C1408 C 0.34775 0.81532 0.66709 0.0
C1409 C 0.44333 0.71131 0.71239 0.0
C1410 C 0.42246 0.64382 0.77886 0.0
C1411 C 0.47159 0.64706 0.74711 0.0
C1412 C 0.48438 0.65371 0.76659 0.0
C1413 C 0.45959 0.65198 0.78256 0.0
N1414 N 0.43517 0.63861 0.74354 0.0
C1415 C 0.41071 0.63735 0.75917 0.0
Co1416 Co 0.4493 0.10724 0.45381 0.0
Co1417 Co 0.37744 0.16344 0.46797 0.0
O1418 O 0.40656 0.11738 0.47154 0.0
C1419 C 0.46827 0.06966 0.49317 0.0
O1420 O 0.4388 0.08309 0.50211 0.0
C1421 C 0.32113 0.10762 0.48553 0.0
O1422 O 0.34521 0.08034 0.48677 0.0
O1423 O 0.36667 0.1481 0.43956 0.0
O1424 O 0.42465 0.13286 0.43098 0.0
H1425 H 0.33837 0.27833 0.43039 0.0
H1426 H 0.40751 0.04565 0.47412 0.0
O1427 O 0.47651 0.07962 0.4754 0.0
H1428 H 0.41065 0.01145 0.40255 0.0
H1429 H 0.55397 0.03158 0.42459 0.0
H1430 H 0.49081 0.1533 0.42447 0.0
H1431 H 0.43977 0.06958 0.4142 0.0
H1432 H 0.49937 0.04226 0.44601 0.0
O1433 O 0.33011 0.1386 0.47742 0.0
H1434 H 0.37498 0.22147 0.43636 0.0
H1435 H 0.31738 0.20215 0.49091 0.0
H1436 H 0.54503 0.14362 0.40264 0.0
H1437 H 0.37835 0.98729 0.46315 0.0
H1438 H 0.57705 0.08242 0.40261 0.0
H1439 H 0.37977 0.96968 0.42709 0.0
O1440 O 0.4724 0.15516 0.46254 0.0
H1441 H 0.39538 0.14321 0.54243 0.0
H1442 H 0.40001 0.23475 0.48745 0.0
H1443 H 0.41578 0.25451 0.52177 0.0
H1444 H 0.41331 0.20864 0.54964 0.0
H1445 H 0.38051 0.12462 0.50791 0.0
H1446 H 0.27983 0.25854 0.48545 0.0
H1447 H 0.29032 0.2972 0.45505 0.0
O1448 O 0.42275 0.19182 0.45895 0.0
C1449 C 0.39103 0.13919 0.42649 0.0
C1450 C 0.33351 0.26172 0.44369 0.0
C1451 C 0.30062 0.25058 0.47457 0.0
N1452 N 0.34833 0.20836 0.46389 0.0
C1453 C 0.35418 0.22947 0.44713 0.0
C1454 C 0.32185 0.21853 0.47752 0.0
C1455 C 0.30655 0.27227 0.45753 0.0
C1456 C 0.40885 0.03821 0.4585 0.0
N1457 N 0.42623 0.06088 0.44498 0.0
C1458 C 0.392 1.00508 0.45232 0.0
C1459 C 0.39275 0.99524 0.4321 0.0
C1460 C 0.4101 0.01863 0.41833 0.0
C1461 C 0.42661 0.05155 0.42506 0.0
C1462 C 0.54029 0.05839 0.42448 0.0
C1463 C 0.50447 0.12653 0.42453 0.0
C1464 C 0.50946 0.06469 0.43668 0.0
N1465 N 0.49185 0.09841 0.43655 0.0
C1466 C 0.53522 0.12124 0.41214 0.0
C1467 C 0.5532 0.08691 0.41214 0.0
C1468 C 0.45773 0.18737 0.46077 0.0
C1469 C 0.39636 0.16353 0.53044 0.0
C1470 C 0.39902 0.21449 0.49938 0.0
C1471 C 0.40789 0.22592 0.51885 0.0
C1472 C 0.40649 0.20021 0.53448 0.0
N1473 N 0.38881 0.17849 0.49548 0.0
C1474 C 0.38769 0.15315 0.51076 0.0
Co1475 Co 0.65606 0.71339 0.20287 0.0
Co1476 Co 0.60441 0.63708 0.21345 0.0
O1477 O 0.64892 0.66746 0.21874 0.0
C1478 C 0.69747 0.72704 0.24167 0.0
O1479 O 0.6864 0.69544 0.24954 0.0
C1480 C 0.66151 0.5815 0.22993 0.0
O1481 O 0.68728 0.60707 0.23191 0.0
O1482 O 0.62156 0.63156 0.18476 0.0
O1483 O 0.6278 0.69236 0.17992 0.0
H1484 H 0.49401 0.59969 0.17201 0.0
H1485 H 0.72042 0.66981 0.21878 0.0
O1486 O 0.68542 0.73764 0.22469 0.0
H1487 H 0.74537 0.68575 0.14662 0.0
H1488 H 0.72548 0.8253 0.1767 0.0
H1489 H 0.60566 0.75921 0.17765 0.0
H1490 H 0.68912 0.71229 0.16174 0.0
H1491 H 0.7186 0.76656 0.19544 0.0
O1492 O 0.63081 0.58922 0.22122 0.0
H1493 H 0.54878 0.63755 0.18075 0.0
H1494 H 0.56707 0.57167 0.23279 0.0
H1495 H 0.61148 0.81764 0.15857 0.0
H1496 H 0.77716 0.64332 0.20437 0.0
H1497 H 0.67173 0.85115 0.15799 0.0
H1498 H 0.79005 0.65109 0.16799 0.0
O1499 O 0.60922 0.73278 0.2144 0.0
H1500 H 0.6216 0.64664 0.28862 0.0
H1501 H 0.53146 0.65151 0.23309 0.0
H1502 H 0.50996 0.66083 0.26771 0.0
H1503 H 0.5551 0.65816 0.29587 0.0
H1504 H 0.6419 0.63813 0.25383 0.0
H1505 H 0.51282 0.53282 0.22448 0.0
H1506 H 0.47572 0.54687 0.19395 0.0
O1507 O 0.57442 0.68318 0.20663 0.0
C1508 C 0.6267 0.6594 0.17312 0.0
C1509 C 0.50992 0.59332 0.18537 0.0
C1510 C 0.52052 0.55574 0.21479 0.0
N1511 N 0.56113 0.6069 0.20726 0.0
C1512 C 0.54093 0.6147 0.19041 0.0
C1513 C 0.55137 0.57771 0.21935 0.0
C1514 C 0.4997 0.56366 0.19767 0.0
C1515 C 0.72583 0.67391 0.20306 0.0
N1516 N 0.70148 0.69325 0.1913 0.0
C1517 C 0.75805 0.65858 0.19492 0.0
C1518 C 0.76524 0.66289 0.17451 0.0
C1519 C 0.7402 0.68234 0.16252 0.0
C1520 C 0.70832 0.69732 0.1712 0.0
C1521 C 0.69908 0.81097 0.17683 0.0
C1522 C 0.63202 0.77349 0.17747 0.0
C1523 C 0.69495 0.77775 0.18751 0.0
N1524 N 0.66175 0.75931 0.18766 0.0
C1525 C 0.63513 0.80664 0.16663 0.0
C1526 C 0.66892 0.82544 0.16633 0.0
C1527 C 0.57763 0.71751 0.21161 0.0
C1528 C 0.60157 0.64752 0.2765 0.0
C1529 C 0.55141 0.65027 0.24515 0.0
C1530 C 0.53899 0.65556 0.26479 0.0
C1531 C 0.5643 0.65407 0.28057 0.0
N1532 N 0.58799 0.64334 0.24121 0.0
C1533 C 0.61295 0.64239 0.25666 0.0
Co1534 Co 0.06224 0.90986 0.95335 0.0
Co1535 Co 0.1313 0.85227 0.96921 0.0
O1536 O 0.10273 0.89861 0.97223 0.0
C1537 C 0.04026 0.94654 0.99239 0.0
O1538 O 0.06874 0.93227 1.00193 0.0
C1539 C 0.19459 0.90607 0.98026 0.0
O1540 O 0.1863 0.93043 0.96625 0.0
O1541 O 0.14637 0.8689 0.94159 0.0
O1542 O 0.08954 0.88512 0.93106 0.0
H1543 H 0.17503 0.73845 0.93225 0.0
H1544 H 0.10459 0.96882 0.97564 0.0
O1545 O 0.03303 0.93694 0.97441 0.0
H1546 H 0.10528 1.00863 0.9049 0.0
H1547 H 0.96069 0.98698 0.92189 0.0
H1548 H 0.02415 0.86542 0.92198 0.0
H1549 H 0.07475 0.95014 0.91473 0.0
H1550 H 0.01285 0.9752 0.94496 0.0
O1551 O 0.17586 0.8762 0.98207 0.0
H1552 H 0.13834 0.79561 0.9371 0.0
H1553 H 0.18671 0.81163 0.99459 0.0
H1554 H 0.97246 0.87624 0.89845 0.0
H1555 H 0.13519 0.02742 0.96646 0.0
H1556 H 0.94032 0.93737 0.89831 0.0
H1557 H 0.13567 0.0479 0.93085 0.0
O1558 O 0.03792 0.8617 0.96083 0.0
H1559 H 0.10776 0.87087 0.0429 0.0
H1560 H 0.10195 0.78142 0.98686 0.0
H1561 H 0.08103 0.76201 0.02045 0.0
H1562 H 0.08394 0.80688 0.04881 0.0
H1563 H 0.12798 0.88919 0.00896 0.0
H1564 H 0.22418 0.75488 0.99035 0.0
H1565 H 0.21839 0.71773 0.95902 0.0
O1566 O 0.08746 0.82499 0.95747 0.0
C1567 C 0.12369 0.87877 0.92775 0.0
C1568 C 0.17785 0.75441 0.94596 0.0
C1569 C 0.20546 0.76366 0.97855 0.0
N1570 N 0.16043 0.80714 0.96601 0.0
C1571 C 0.15715 0.78684 0.94876 0.0
C1572 C 0.18428 0.79593 0.98081 0.0
C1573 C 0.20217 0.74281 0.96098 0.0
C1574 C 0.10386 0.97758 0.96019 0.0
N1575 N 0.08656 0.9564 0.94592 0.0
C1576 C 0.12162 0.01081 0.95504 0.0
C1577 C 0.12196 0.02225 0.93506 0.0
C1578 C 0.10487 1.00028 0.92051 0.0
C1579 C 0.08745 0.96719 0.92622 0.0
C1580 C 0.97446 0.96021 0.92181 0.0
C1581 C 0.01044 0.89216 0.92197 0.0
C1582 C 1.00388 0.95328 0.93495 0.0
N1583 N 0.02163 0.91963 0.93484 0.0
C1584 C 0.98112 0.89809 0.90863 0.0
C1585 C 0.96307 0.93238 0.90858 0.0
C1586 C 0.05247 0.82942 0.95902 0.0
C1587 C 0.1062 0.8511 0.03065 0.0
C1588 C 0.10279 0.80127 0.999 0.0
C1589 C 0.09115 0.79004 0.01805 0.0
C1590 C 0.09284 0.81521 0.03396 0.0
N1591 N 0.11564 0.83661 0.99583 0.0
C1592 C 0.11757 0.86134 0.01139 0.0
Co1593 Co 0.86399 0.31364 0.7048 0.0
Co1594 Co 0.9182 0.38813 0.71529 0.0
O1595 O 0.87281 0.35914 0.72086 0.0
C1596 C 0.82285 0.30004 0.7438 0.0
O1597 O 0.83434 0.33136 0.75187 0.0
C1598 C 0.8625 0.446 0.73096 0.0
O1599 O 0.83381 0.42385 0.72892 0.0
O1600 O 0.89993 0.39506 0.6868 0.0
O1601 O 0.89207 0.33443 0.68178 0.0
H1602 H 0.02782 0.42218 0.67266 0.0
H1603 H 0.8009 0.35812 0.72144 0.0
O1604 O 0.83463 0.28969 0.72671 0.0
H1605 H 0.77412 0.34508 0.64926 0.0
H1606 H 0.79069 0.20453 0.67815 0.0
H1607 H 0.91245 0.26694 0.67901 0.0
H1608 H 0.83011 0.31686 0.66385 0.0
H1609 H 0.79974 0.26261 0.69726 0.0
O1610 O 0.89432 0.43642 0.72433 0.0
H1611 H 0.97192 0.38656 0.68183 0.0
H1612 H 0.95953 0.45139 0.73473 0.0
H1613 H 0.90447 0.20918 0.65953 0.0
H1614 H 0.7444 0.38624 0.70755 0.0
H1615 H 0.84324 0.17751 0.65901 0.0
H1616 H 0.7306 0.37994 0.67116 0.0
O1617 O 0.91078 0.29269 0.71584 0.0
H1618 H 0.90176 0.37896 0.79021 0.0
H1619 H 0.99113 0.37017 0.73458 0.0
H1620 H 0.01243 0.35932 0.7692 0.0
H1621 H 0.96764 0.36392 0.79738 0.0
H1622 H 0.88161 0.38905 0.75535 0.0
H1623 H 0.01497 0.48798 0.72603 0.0
H1624 H 0.0497 0.47333 0.69484 0.0
O1625 O 0.9463 0.34141 0.70767 0.0
C1626 C 0.89371 0.36745 0.67509 0.0
C1627 C 0.01295 0.4288 0.68631 0.0
C1628 C 1.0057 0.46578 0.71623 0.0
N1629 N 0.96238 0.41678 0.70883 0.0
C1630 C 0.98129 0.40869 0.6916 0.0
C1631 C 0.97414 0.44507 0.72103 0.0
C1632 C 0.02519 0.45752 0.69874 0.0
C1633 C 0.79506 0.35463 0.70571 0.0
N1634 N 0.81877 0.33519 0.69366 0.0
C1635 C 0.763 0.37089 0.69787 0.0
C1636 C 0.7553 0.36741 0.67745 0.0
C1637 C 0.77968 0.34785 0.66517 0.0
C1638 C 0.81141 0.33192 0.67356 0.0
C1639 C 0.81752 0.21803 0.67828 0.0
C1640 C 0.88568 0.25345 0.67887 0.0
C1641 C 0.82289 0.25084 0.68918 0.0
N1642 N 0.85663 0.26824 0.68933 0.0
C1643 C 0.88134 0.22068 0.66781 0.0
C1644 C 0.847 0.20291 0.66753 0.0
C1645 C 0.9426 0.3072 0.71271 0.0
C1646 C 0.92159 0.37699 0.77807 0.0
C1647 C 0.97137 0.37197 0.74666 0.0
C1648 C 0.98365 0.36593 0.76629 0.0
C1649 C 0.95853 0.36852 0.78209 0.0
N1650 N 0.93512 0.38053 0.7428 0.0
C1651 C 0.91033 0.3828 0.75825 0.0
Co1652 Co 0.45365 0.91204 0.06266 0.0
Co1653 Co 0.38056 0.85699 0.04907 0.0
O1654 O 0.41061 0.90231 0.04501 0.0
C1655 C 0.47268 0.94843 0.0231 0.0
O1656 O 0.44292 0.93497 0.01439 0.0
C1657 C 0.32585 0.91351 0.03085 0.0
O1658 O 0.35086 0.93992 0.0293 0.0
O1659 O 0.37018 0.87385 0.07722 0.0
O1660 O 0.42875 0.88709 0.08562 0.0
H1661 H 0.33889 0.74472 0.08809 0.0
H1662 H 0.413 0.9742 0.04219 0.0
O1663 O 0.48115 0.93892 0.04091 0.0
H1664 H 0.41721 1.00893 0.11368 0.0
H1665 H 0.56039 0.98608 0.0912 0.0
H1666 H 0.49449 0.86573 0.09219 0.0
H1667 H 0.44518 0.95023 0.10217 0.0
H1668 H 0.50536 0.97607 0.06989 0.0
O1669 O 0.33381 0.88253 0.03927 0.0
H1670 H 0.37685 0.80048 0.08143 0.0
H1671 H 0.31938 0.81875 0.02663 0.0
H1672 H 0.54916 0.87475 0.11389 0.0
H1673 H 0.38499 0.03313 0.05302 0.0
H1674 H 0.58253 0.93527 0.11349 0.0
H1675 H 0.38695 0.05101 0.08903 0.0
O1676 O 0.47554 0.86366 0.05402 0.0
H1677 H 0.39858 0.87322 0.97435 0.0
H1678 H 0.40175 0.78441 0.03066 0.0
H1679 H 0.41692 0.76266 0.99665 0.0
H1680 H 0.41518 0.80714 0.96811 0.0
H1681 H 0.38425 0.89381 0.00858 0.0
H1682 H 0.28052 0.76347 0.03277 0.0
H1683 H 0.29026 0.72589 0.06365 0.0
O1684 O 0.42536 0.82798 0.05847 0.0
C1685 C 0.39491 0.88237 0.0902 0.0
C1686 C 0.33438 0.76085 0.07457 0.0
C1687 C 0.30159 0.7714 0.04355 0.0
N1688 N 0.35042 0.81291 0.0537 0.0
C1689 C 0.35584 0.79244 0.07073 0.0
C1690 C 0.32359 0.80281 0.0402 0.0
C1691 C 0.30709 0.75031 0.06086 0.0
C1692 C 0.41457 0.98174 0.0578 0.0
N1693 N 0.43161 0.9589 0.07137 0.0
C1694 C 0.39838 0.0152 0.06389 0.0
C1695 C 0.39943 0.0252 0.08409 0.0
C1696 C 0.41643 1.00163 0.09792 0.0
C1697 C 0.4323 0.96839 0.09127 0.0
C1698 C 0.54607 0.95958 0.09151 0.0
C1699 C 0.50873 0.89221 0.09196 0.0
C1700 C 0.51498 0.95366 0.0794 0.0
N1701 N 0.49658 0.92034 0.0798 0.0
C1702 C 0.53973 0.89713 0.10427 0.0
C1703 C 0.55847 0.93107 0.10402 0.0
C1704 C 0.46035 0.83175 0.05619 0.0
C1705 C 0.39921 0.85349 0.98663 0.0
C1706 C 0.40101 0.80408 0.01843 0.0
C1707 C 0.40958 0.79152 0.99914 0.0
C1708 C 0.40859 0.81645 0.98314 0.0
N1709 N 0.39151 0.84044 0.02179 0.0
C1710 C 0.39083 0.86503 1.00614 0.0
Co1711 Co 0.86673 0.70836 0.81012 0.0
Co1712 Co 0.91966 0.6331 0.79932 0.0
O1713 O 0.87478 0.66281 0.79406 0.0
C1714 C 0.82646 0.72208 0.77104 0.0
O1715 O 0.83835 0.69085 0.76311 0.0
C1716 C 0.86302 0.57663 0.78296 0.0
O1717 O 0.83651 0.60156 0.7819 0.0
O1718 O 0.90231 0.62667 0.82792 0.0
O1719 O 0.89474 0.6873 0.83309 0.0
H1720 H 0.0298 0.59633 0.84105 0.0
H1721 H 0.80285 0.66482 0.79344 0.0
O1722 O 0.83763 0.73255 0.78823 0.0
H1723 H 0.77701 0.67763 0.86569 0.0
H1724 H 0.79492 0.81852 0.8364 0.0
H1725 H 0.91566 0.75434 0.83618 0.0
H1726 H 0.8333 0.7052 0.85109 0.0
H1727 H 0.80329 0.76041 0.81726 0.0
O1728 O 0.89418 0.58491 0.79105 0.0
H1729 H 0.97447 0.63333 0.83243 0.0
H1730 H 0.95905 0.56977 0.77927 0.0
H1731 H 0.90835 0.81215 0.85567 0.0
H1732 H 0.74609 0.63732 0.80734 0.0
H1733 H 0.84763 0.8447 0.85588 0.0
H1734 H 0.73276 0.64352 0.84376 0.0
O1735 O 0.9136 0.72883 0.79912 0.0
H1736 H 0.90259 0.64252 0.72422 0.0
H1737 H 0.99226 0.65042 0.77989 0.0
H1738 H 0.01354 0.66098 0.74531 0.0
H1739 H 0.96863 0.6568 0.71709 0.0
H1740 H 0.88247 0.63282 0.75899 0.0
H1741 H 0.01388 0.53173 0.78745 0.0
H1742 H 0.0498 0.54505 0.8185 0.0
O1743 O 0.94882 0.67948 0.80664 0.0
C1744 C 0.89673 0.65425 0.83969 0.0
C1745 C 0.01437 0.59023 0.82749 0.0
C1746 C 1.00539 0.55393 0.79743 0.0
N1747 N 0.96342 0.60365 0.80541 0.0
C1748 C 0.98302 0.61112 0.82252 0.0
C1749 C 0.97419 0.5754 0.79295 0.0
C1750 C 0.02556 0.56145 0.81484 0.0
C1751 C 0.79724 0.66824 0.80919 0.0
N1752 N 0.82134 0.68728 0.82126 0.0
C1753 C 0.76502 0.65234 0.81704 0.0
C1754 C 0.75758 0.65577 0.83747 0.0
C1755 C 0.78237 0.6749 0.84977 0.0
C1756 C 0.81426 0.69048 0.84138 0.0
C1757 C 0.82152 0.8046 0.83643 0.0
C1758 C 0.88911 0.76819 0.83621 0.0
C1759 C 0.8265 0.77175 0.82553 0.0
N1760 N 0.85996 0.75383 0.82558 0.0
C1761 C 0.88515 0.80099 0.84727 0.0
C1762 C 0.8511 0.81926 0.84736 0.0
C1763 C 0.94529 0.71398 0.80213 0.0
C1764 C 0.92251 0.64414 0.73636 0.0
C1765 C 0.97242 0.64864 0.7678 0.0
C1766 C 0.98471 0.65458 0.74819 0.0
C1767 C 0.95953 0.65223 0.73237 0.0
N1768 N 0.9361 0.6403 0.77166 0.0
C1769 C 0.91126 0.63839 0.75618 0.0
Co1770 Co 0.05953 0.1144 0.56311 0.0
Co1771 Co 0.12952 0.17209 0.54865 0.0
O1772 O 0.10099 0.1258 0.5449 0.0
C1773 C 0.03926 0.07858 0.52356 0.0
O1774 O 0.06804 0.09332 0.51453 0.0
C1775 C 0.1904 0.11668 0.53632 0.0
O1776 O 0.17785 0.08956 0.54766 0.0
O1777 O 0.14317 0.15473 0.57637 0.0
O1778 O 0.08569 0.13907 0.58588 0.0
H1779 H 0.17167 0.28459 0.58739 0.0
H1780 H 0.10182 0.05499 0.54133 0.0
O1781 O 0.03136 0.08748 0.54153 0.0
H1782 H 0.10063 0.01581 0.61218 0.0
H1783 H 0.95639 0.03696 0.5927 0.0
H1784 H 0.01987 0.15861 0.59391 0.0
H1785 H 0.07074 0.07438 0.60192 0.0
H1786 H 0.0097 0.04896 0.57053 0.0
O1787 O 0.17487 0.14853 0.53648 0.0
H1788 H 0.13521 0.22755 0.58143 0.0
H1789 H 0.18614 0.2136 0.52452 0.0
H1790 H 0.96696 0.14758 0.61652 0.0
H1791 H 0.1317 0.99624 0.55091 0.0
H1792 H 0.9348 0.0864 0.616 0.0
H1793 H 0.13127 0.97611 0.58658 0.0
O1794 O 0.03571 0.16254 0.55532 0.0
H1795 H 0.10978 0.15493 0.4745 0.0
H1796 H 0.10159 0.24342 0.53087 0.0
H1797 H 0.08263 0.26354 0.49703 0.0
H1798 H 0.08676 0.21916 0.4685 0.0
H1799 H 0.12799 0.13589 0.50868 0.0
H1800 H 0.2234 0.27025 0.52989 0.0
H1801 H 0.2162 0.3063 0.56149 0.0
O1802 O 0.08503 0.19928 0.55974 0.0
C1803 C 0.11977 0.14471 0.58978 0.0
C1804 C 0.17508 0.26913 0.57356 0.0
C1805 C 0.20414 0.26105 0.54131 0.0
N1806 N 0.15851 0.21713 0.5527 0.0
C1807 C 0.15448 0.23679 0.57012 0.0
C1808 C 0.18306 0.22885 0.5384 0.0
C1809 C 0.20006 0.28128 0.55903 0.0
C1810 C 0.1007 0.04636 0.55679 0.0
N1811 N 0.08334 0.06782 0.57087 0.0
C1812 C 0.11805 0.01305 0.56217 0.0
C1813 C 0.11788 1.00182 0.58219 0.0
C1814 C 0.10066 0.02404 0.59654 0.0
C1815 C 0.08364 0.05718 0.5906 0.0
C1816 C 0.97017 0.06374 0.59306 0.0
C1817 C 1.00616 0.13185 0.59364 0.0
C1818 C 1.00027 0.07079 0.58045 0.0
N1819 N 0.018 0.10447 0.58092 0.0
C1820 C 0.97614 0.1258 0.60645 0.0
C1821 C 0.95809 0.09148 0.60614 0.0
C1822 C 0.05012 0.19482 0.5575 0.0
C1823 C 0.1077 0.17449 0.48681 0.0
C1824 C 0.10293 0.22377 0.51865 0.0
C1825 C 0.09241 0.23541 0.49946 0.0
C1826 C 0.09479 0.21052 0.48346 0.0
N1827 N 0.11536 0.18832 0.52186 0.0
C1828 C 0.11794 0.16385 0.50621 0.0
Co1829 Co 0.65869 0.3215 0.31173 0.0
Co1830 Co 0.60077 0.39055 0.29538 0.0
O1831 O 0.64747 0.36232 0.29284 0.0
C1832 C 0.69399 0.29831 0.27265 0.0
O1833 O 0.68013 0.32707 0.26311 0.0
C1834 C 0.65588 0.45156 0.28209 0.0
O1835 O 0.68373 0.43877 0.29275 0.0
O1836 O 0.61572 0.40552 0.32338 0.0
O1837 O 0.63403 0.34898 0.3339 0.0
H1838 H 0.48505 0.43195 0.33093 0.0
H1839 H 0.718 0.36254 0.28931 0.0
O1840 O 0.68538 0.29188 0.29081 0.0
H1841 H 0.75661 0.36574 0.36025 0.0
H1842 H 0.73559 0.21975 0.34334 0.0
H1843 H 0.61466 0.28365 0.34325 0.0
H1844 H 0.69841 0.33492 0.35039 0.0
H1845 H 0.72365 0.27166 0.32002 0.0
O1846 O 0.62407 0.4362 0.28305 0.0
H1847 H 0.54278 0.39621 0.3267 0.0
H1848 H 0.56026 0.44572 0.26966 0.0
H1849 H 0.62569 0.23222 0.36702 0.0
H1850 H 0.77643 0.39328 0.2985 0.0
H1851 H 0.68651 0.19988 0.36718 0.0
H1852 H 0.79625 0.39508 0.33421 0.0
O1853 O 0.61106 0.29674 0.30421 0.0
H1854 H 0.62284 0.36808 0.22186 0.0
H1855 H 0.53151 0.36021 0.27662 0.0
H1856 H 0.51394 0.33939 0.24268 0.0
H1857 H 0.55976 0.34337 0.21495 0.0
H1858 H 0.63934 0.38809 0.25613 0.0
H1859 H 0.50295 0.48226 0.27328 0.0
H1860 H 0.46477 0.47543 0.30408 0.0
O1861 O 0.5738 0.34613 0.30658 0.0
C1862 C 0.62564 0.38281 0.33725 0.0
C1863 C 0.50149 0.43527 0.31747 0.0
C1864 C 0.51156 0.46352 0.28513 0.0
N1865 N 0.55519 0.41902 0.29809 0.0
C1866 C 0.53427 0.41512 0.31503 0.0
C1867 C 0.54417 0.44289 0.28323 0.0
C1868 C 0.49013 0.45965 0.3024 0.0
C1869 C 0.72647 0.36247 0.30482 0.0
N1870 N 0.705 0.34593 0.31916 0.0
C1871 C 0.7596 0.38027 0.30997 0.0
C1872 C 0.77067 0.38134 0.33 0.0
C1873 C 0.74848 0.36486 0.34461 0.0
C1874 C 0.71552 0.34736 0.3389 0.0
C1875 C 0.70898 0.23364 0.34343 0.0
C1876 C 0.64128 0.26987 0.34327 0.0
C1877 C 0.70196 0.26295 0.33017 0.0
N1878 N 0.6685 0.28085 0.33029 0.0
C1879 C 0.64733 0.24069 0.35674 0.0
C1880 C 0.68144 0.22252 0.35681 0.0
C1881 C 0.57878 0.31103 0.30552 0.0
C1882 C 0.60266 0.36608 0.23382 0.0
C1883 C 0.55178 0.3615 0.26476 0.0
C1884 C 0.54158 0.34992 0.2455 0.0
C1885 C 0.56727 0.35221 0.22995 0.0
N1886 N 0.5866 0.3749 0.26848 0.0
C1887 C 0.61185 0.37737 0.25327 0.0
C1888 C 0.02262 0.53166 0.99249 0.0
C1889 C 0.99062 0.54617 1.00172 0.0
H1890 H 0.06303 0.48808 0.99176 0.0
C1891 C 0.97455 0.52638 0.01766 0.0
H1892 H 0.03574 0.54617 0.98015 0.0
C1893 C 0.99004 0.49281 0.02417 0.0
C1894 C 0.02202 0.4783 0.01493 0.0
H1895 H 0.94961 0.5364 0.02489 0.0
H1896 H 0.97699 0.47832 0.03654 0.0
C1897 C 0.03806 0.49807 0.99898 0.0
C1898 C 0.75284 0.73014 0.26431 0.0
C1899 C 0.73003 0.74694 0.24986 0.0
H1900 H 0.80275 0.73364 0.28149 0.0
C1901 C 0.74087 0.78137 0.24156 0.0
H1902 H 0.74563 0.70342 0.27076 0.0
C1903 C 0.7739 0.79848 0.24747 0.0
C1904 C 0.79669 0.78169 0.26192 0.0
H1905 H 0.7239 0.79514 0.23038 0.0
H1906 H 0.7811 0.82524 0.24104 0.0
C1907 C 0.78583 0.7473 0.27024 0.0
C1908 C 0.5415 0.49236 0.51674 0.0
C1909 C 0.52448 0.47111 0.50162 0.0
H1910 H 0.53921 0.54142 0.53495 0.0
C1911 C 0.491 0.48396 0.49319 0.0
H1912 H 0.5675 0.48358 0.52338 0.0
C1913 C 0.47522 0.51746 0.49948 0.0
C1914 C 0.49225 0.53874 0.51456 0.0
H1915 H 0.47696 0.46823 0.48157 0.0
H1916 H 0.44921 0.52617 0.49284 0.0
C1917 C 0.52552 0.52578 0.52317 0.0
C1918 C 0.77817 0.24679 0.74283 0.0
C1919 C 0.7904 0.27994 0.75206 0.0
H1920 H 0.73707 0.20388 0.74157 0.0
C1921 C 0.76921 0.29515 0.76769 0.0
H1922 H 0.7939 0.23403 0.73084 0.0
C1923 C 0.73648 0.27767 0.77386 0.0
C1924 C 0.72414 0.24476 0.76444 0.0
H1925 H 0.77758 0.3208 0.77497 0.0
H1926 H 0.72089 0.28987 0.7861 0.0
C1927 C 0.74532 0.2296 0.74883 0.0
C1928 C 0.01731 0.49171 0.52349 0.0
C1929 C 0.98521 0.47783 0.514 0.0
H1930 H 0.05842 0.53466 0.52471 0.0
C1931 C 0.96971 0.49817 0.49807 0.0
H1932 H 0.03005 0.47678 0.53582 0.0
C1933 C 0.98587 0.53163 0.49183 0.0
C1934 C 0.01795 0.5455 0.50134 0.0
H1935 H 0.94472 0.48864 0.49064 0.0
H1936 H 0.97328 0.54654 0.47944 0.0
C1937 C 0.03339 0.52519 0.51729 0.0
C1938 C 0.74971 0.79273 0.76451 0.0
C1939 C 0.72685 0.77507 0.75037 0.0
H1940 H 0.79985 0.79044 0.78155 0.0
C1941 C 0.73773 0.7403 0.74254 0.0
H1942 H 0.74246 0.81974 0.77058 0.0
C1943 C 0.77091 0.72372 0.74857 0.0
C1944 C 0.7938 0.7414 0.76268 0.0
H1945 H 0.72072 0.7259 0.73159 0.0
H1946 H 0.77816 0.69671 0.74249 0.0
C1947 C 0.78285 0.7761 0.77057 0.0
C1948 C 0.52079 0.49658 0.99127 0.0
C1949 C 0.48987 0.48112 1.00112 0.0
H1950 H 0.56022 0.54107 0.98993 0.0
C1951 C 0.47484 0.50006 0.01765 0.0
H1952 H 0.53314 0.48274 0.97848 0.0
C1953 C 0.49024 0.53375 0.0241 0.0
C1954 C 0.52108 0.54926 0.0142 0.0
H1955 H 0.45073 0.48927 0.0254 0.0
H1956 H 0.47799 0.54758 0.03693 0.0
C1957 C 0.53612 0.5303 0.99769 0.0
C1958 C 0.77051 0.22691 0.2667 0.0
C1959 C 0.79195 0.24289 0.25138 0.0
H1960 H 0.72213 0.23151 0.28512 0.0
C1961 C 0.78027 0.27683 0.24284 0.0
H1962 H 0.77846 0.20067 0.27346 0.0
C1963 C 0.74758 0.29395 0.24911 0.0
C1964 C 0.72607 0.27794 0.26434 0.0
H1965 H 0.79624 0.2902 0.23114 0.0
H1966 H 0.73971 0.32022 0.24235 0.0
C1967 C 0.73797 0.24434 0.27317 0.0
C1968 C 0.28409 0.24071 0.77213 0.0
C1969 C 0.29487 0.27522 0.7639 0.0
H1970 H 0.24373 0.19695 0.77276 0.0
C1971 C 0.2718 0.29221 0.74963 0.0
H1972 H 0.30121 0.22684 0.78321 0.0
C1973 C 0.23859 0.27523 0.74386 0.0
C1974 C 0.22775 0.24076 0.75212 0.0
H1975 H 0.27892 0.31902 0.74326 0.0
H1976 H 0.22143 0.28915 0.73282 0.0
C1977 C 0.25088 0.22373 0.76635 0.0
C1978 C 0.23691 0.77773 0.27163 0.0
C1979 C 0.2269 0.74295 0.26341 0.0
H1980 H 0.27608 0.82253 0.27218 0.0
C1981 C 0.24994 0.72673 0.24892 0.0
H1982 H 0.21972 0.79108 0.28284 0.0
C1983 C 0.28249 0.74469 0.24297 0.0
C1984 C 0.29264 0.77932 0.25133 0.0
H1985 H 0.24336 0.69977 0.24254 0.0
H1986 H 0.29971 0.73138 0.23176 0.0
C1987 C 0.26946 0.79563 0.26572 0.0
C1988 C 0.272 0.22709 0.25065 0.0
C1989 C 0.29508 0.24438 0.26483 0.0
H1990 H 0.2214 0.22952 0.23399 0.0
C1991 C 0.28396 0.27868 0.27316 0.0
H1992 H 0.27935 0.2004 0.24421 0.0
C1993 C 0.25049 0.29524 0.26749 0.0
C1994 C 0.22743 0.27797 0.25329 0.0
H1995 H 0.30106 0.29276 0.28418 0.0
H1996 H 0.24314 0.32193 0.27393 0.0
C1997 C 0.23852 0.24363 0.245 0.0
C1998 C 0.23822 0.74369 0.77335 0.0
C1999 C 0.22818 0.7784 0.76508 0.0
H2000 H 0.27711 0.69869 0.77366 0.0
C2001 C 0.25111 0.79453 0.75051 0.0
H2002 H 0.22114 0.73044 0.78464 0.0
C2003 C 0.28344 0.77644 0.74441 0.0
C2004 C 0.29347 0.74173 0.75267 0.0
H2005 H 0.24453 0.82144 0.74409 0.0
H2006 H 0.3005 0.78965 0.73308 0.0
C2007 C 0.27056 0.72562 0.76726 0.0
C2008 C 0.53513 0.98887 0.4978 0.0
C2009 C 0.52011 0.96888 0.51395 0.0
H2010 H 0.53159 0.03711 0.47918 0.0
C2011 C 0.48862 0.98314 0.52377 0.0
H2012 H 0.55975 0.9791 0.49015 0.0
C2013 C 0.47252 0.01663 0.51758 0.0
C2014 C 0.48755 0.03662 0.50141 0.0
H2015 H 0.47643 0.96849 0.53636 0.0
H2016 H 0.44793 0.02646 0.52523 0.0
C2017 C 0.51917 0.02241 0.49167 0.0
C2018 C 0.03628 0.99966 0.01673 0.0
C2019 C 0.02129 0.97997 1.00041 0.0
H2020 H 0.03297 0.04783 0.0355 0.0
C2021 C 0.99025 0.99485 0.99038 0.0
H2022 H 0.06051 0.98938 0.02459 0.0
C2023 C 0.97465 0.02864 0.99648 0.0
C2024 C 0.98962 0.04829 0.01282 0.0
H2025 H 0.97798 0.98046 0.97771 0.0
H2026 H 0.95041 0.03891 0.98864 0.0
C2027 C 0.0207 0.03344 0.02283 0.0
C2028 C 0.49088 0.03597 0.99316 0.0
C2029 C 0.5247 0.04845 1.00137 0.0
H2030 H 0.44855 0.99419 0.99309 0.0
C2031 C 0.54172 0.0271 0.01643 0.0
H2032 H 0.47683 0.05179 0.9816 0.0
C2033 C 0.52544 0.99389 0.02298 0.0
C2034 C 0.49186 0.98124 0.01457 0.0
H2035 H 0.56795 0.0356 0.02291 0.0
H2036 H 0.53918 0.97814 0.0347 0.0
C2037 C 0.47479 1.00267 0.99958 0.0
C2038 C 0.03721 0.02553 0.49916 0.0
C2039 C 0.02083 0.04526 0.51502 0.0
H2040 H 0.0355 0.97735 0.48038 0.0
C2041 C 0.98885 0.03049 0.52417 0.0
H2042 H 0.06221 0.0357 0.49203 0.0
C2043 C 0.9736 0.9968 0.51758 0.0
C2044 C 0.98996 0.97711 0.50169 0.0
H2045 H 0.9756 0.0449 0.53651 0.0
H2046 H 0.9486 0.98662 0.52471 0.0
C2047 C 0.02207 0.9918 0.49264 0.0
C2048 C 0.02237 0.2281 0.05675 0.0
C2049 C 0.98353 0.23125 0.05696 0.0
H2050 H 0.07467 0.25627 0.05707 0.0
C2051 C 0.96798 0.26725 0.05805 0.0
H2052 H 0.03544 0.20098 0.05614 0.0
C2053 C 0.99047 0.29911 0.05818 0.0
C2054 C 0.02928 0.29602 0.05756 0.0
H2055 H 0.93823 0.27103 0.05858 0.0
H2056 H 0.97734 0.32621 0.05873 0.0
C2057 C 0.04491 0.25999 0.0572 0.0
C2058 C 0.00862 0.72389 0.3051 0.0
C2059 C 0.04453 0.73931 0.30439 0.0
H2060 H 0.95007 0.7337 0.30429 0.0
C2061 C 0.04811 0.77823 0.30326 0.0
H2062 H 1.00461 0.69416 0.30653 0.0
C2063 C 0.01667 0.80104 0.30272 0.0
C2064 C 0.98078 0.78554 0.30266 0.0
H2065 H 0.07522 0.79119 0.30303 0.0
H2066 H 0.02067 0.83088 0.30231 0.0
C2067 C 0.97719 0.74664 0.30391 0.0
C2068 C 0.52341 0.71863 0.55763 0.0
C2069 C 0.48457 0.72149 0.55724 0.0
H2070 H 0.57547 0.7471 0.55808 0.0
C2071 C 0.46868 0.75738 0.55737 0.0
H2072 H 0.53674 0.69161 0.55781 0.0
C2073 C 0.49096 0.78942 0.55715 0.0
C2074 C 0.52981 0.78654 0.55712 0.0
H2075 H 0.43888 0.7609 0.55743 0.0
H2076 H 0.47766 0.81645 0.55691 0.0
C2077 C 0.54568 0.75065 0.55774 0.0
C2078 C 0.50779 0.21839 0.8056 0.0
C2079 C 0.54361 0.2341 0.80626 0.0
H2080 H 0.44922 0.22773 0.80436 0.0
C2081 C 0.54682 0.27306 0.80733 0.0
H2082 H 0.50395 0.1885 0.80524 0.0
C2083 C 0.51511 0.29563 0.80738 0.0
C2084 C 0.47937 0.2799 0.80588 0.0
H2085 H 0.57383 0.28619 0.80813 0.0
H2086 H 0.51874 0.32549 0.80844 0.0
C2087 C 0.47619 0.24094 0.80515 0.0
C2088 C 0.96806 0.75724 0.45675 0.0
C2089 C 0.98445 0.79291 0.4577 0.0
H2090 H 0.97619 0.69803 0.45632 0.0
C2091 C 0.02333 0.79527 0.45769 0.0
H2092 H 0.93824 0.75413 0.45625 0.0
C2093 C 0.04512 0.76297 0.45713 0.0
C2094 C 0.02875 0.72725 0.45706 0.0
H2095 H 0.03704 0.82211 0.45804 0.0
H2096 H 0.07495 0.76619 0.45698 0.0
C2097 C 0.98987 0.72489 0.45666 0.0
C2098 C 0.54456 0.741 0.71129 0.0
C2099 C 0.54193 0.78004 0.71079 0.0
H2100 H 0.51595 0.68894 0.71143 0.0
C2101 C 0.50641 0.79631 0.71054 0.0
H2102 H 0.57135 0.72739 0.71117 0.0
C2103 C 0.47444 0.77417 0.71142 0.0
C2104 C 0.47712 0.73512 0.71194 0.0
H2105 H 0.50315 0.8262 0.70969 0.0
H2106 H 0.44762 0.78771 0.71136 0.0
C2107 C 0.51263 0.71887 0.71155 0.0
C2108 C 0.54618 0.26849 0.95661 0.0
C2109 C 0.53007 0.23271 0.95756 0.0
H2110 H 0.53742 0.3277 0.95663 0.0
C2111 C 0.49124 0.23004 0.95806 0.0
H2112 H 0.57593 0.27176 0.9557 0.0
C2113 C 0.4692 0.26206 0.95789 0.0
C2114 C 0.48521 0.29791 0.95783 0.0
H2115 H 0.47769 0.20312 0.95842 0.0
H2116 H 0.43942 0.25847 0.95796 0.0
C2117 C 0.52407 0.30068 0.95703 0.0
C2118 C 0.04362 0.24372 0.21081 0.0
C2119 C 0.04118 0.28269 0.2123 0.0
H2120 H 0.01464 0.19209 0.20776 0.0
C2121 C 1.00572 0.29912 0.21236 0.0
H2122 H 0.07037 0.23008 0.21032 0.0
C2123 C 0.97363 0.27719 0.21171 0.0
C2124 C 0.97603 0.23823 0.21029 0.0
H2125 H 1.00256 0.32904 0.21292 0.0
H2126 H 0.94691 0.29091 0.21203 0.0
C2127 C 0.0115 0.22187 0.20946 0.0
C2128 C 0.02256 0.72748 0.95824 0.0
C2129 C 0.98372 0.73006 0.95884 0.0
H2130 H 0.07436 0.75626 0.95716 0.0
C2131 C 0.96757 0.76585 0.95859 0.0
H2132 H 0.03608 0.70056 0.95809 0.0
C2133 C 0.98964 0.79807 0.95853 0.0
C2134 C 0.0285 0.79546 0.9583 0.0
H2135 H 0.93776 0.76914 0.95861 0.0
H2136 H 0.97618 0.82502 0.95869 0.0
C2137 C 0.04457 0.75965 0.95776 0.0
C2138 C 0.01196 0.29916 0.71255 0.0
C2139 C 0.97626 0.2832 0.71302 0.0
H2140 H 0.07067 0.29014 0.71288 0.0
C2141 C 0.97323 0.2442 0.71337 0.0
H2142 H 0.01556 0.32901 0.7117 0.0
C2143 C 1.005 0.22182 0.71326 0.0
C2144 C 0.04071 0.2378 0.71346 0.0
H2145 H 0.94629 0.23085 0.71338 0.0
H2146 H 1.0014 0.19193 0.71297 0.0
C2147 C 0.04373 0.2768 0.7131 0.0
C2148 C 0.54254 0.25059 0.45694 0.0
C2149 C 0.52677 0.28637 0.45878 0.0
H2150 H 0.53359 0.19148 0.45655 0.0
C2151 C 0.48809 0.2891 0.46071 0.0
H2152 H 0.57209 0.24724 0.4549 0.0
C2153 C 0.4659 0.25708 0.461 0.0
C2154 C 0.48174 0.22124 0.45993 0.0
H2155 H 0.47478 0.31605 0.46182 0.0
H2156 H 0.43621 0.26061 0.46214 0.0
C2157 C 0.5204 0.21847 0.45779 0.0
C2158 C 0.51431 0.80204 0.21306 0.0
C2159 C 0.47881 0.78569 0.21332 0.0
H2160 H 0.57305 0.79367 0.21275 0.0
C2161 C 0.47616 0.74664 0.21287 0.0
H2162 H 0.5176 0.83198 0.21295 0.0
C2163 C 0.50814 0.72459 0.21209 0.0
C2164 C 0.54365 0.74096 0.21232 0.0
H2165 H 0.44935 0.73303 0.21275 0.0
H2166 H 0.5049 0.69469 0.21126 0.0
C2167 C 0.54627 0.78 0.21285 0.0
C2168 C 0.0192 0.29655 0.55774 0.0
C2169 C 0.9804 0.29343 0.55686 0.0
H2170 H 0.07133 0.2684 0.55936 0.0
C2171 C 0.9647 0.25741 0.55712 0.0
H2172 H 0.03236 0.32368 0.55792 0.0
C2173 C 0.98711 0.22551 0.55742 0.0
C2174 C 0.02593 0.22862 0.55793 0.0
H2175 H 0.93493 0.25366 0.55692 0.0
H2176 H 0.97393 0.1984 0.55725 0.0
C2177 C 0.0416 0.26465 0.55851 0.0
C2178 C 0.5168 0.225 0.30692 0.0
C2179 C 0.48107 0.24072 0.30558 0.0
H2180 H 0.57554 0.23449 0.30766 0.0
C2181 C 0.47791 0.27969 0.30507 0.0
H2182 H 0.52043 0.19514 0.30781 0.0
C2183 C 0.50953 0.30226 0.30561 0.0
C2184 C 0.54535 0.28657 0.30614 0.0
H2185 H 0.45095 0.29288 0.30441 0.0
H2186 H 0.50572 0.33215 0.30544 0.0
C2187 C 0.54854 0.2476 0.30695 0.0
C2188 C 0.52279 0.8003 0.05747 0.0
C2189 C 0.48395 0.79762 0.05692 0.0
H2190 H 0.57462 0.77165 0.05833 0.0
C2191 C 0.46781 0.7618 0.05707 0.0
H2192 H 0.53629 0.82726 0.05768 0.0
C2193 C 0.48989 0.72964 0.057 0.0
C2194 C 0.52876 0.73237 0.05716 0.0
H2195 H 0.438 0.75844 0.05707 0.0
H2196 H 0.47645 0.70266 0.05676 0.0
C2197 C 0.54482 0.7682 0.05779 0.0
C2198 C 0.01461 0.72207 0.80265 0.0
C2199 C 0.97894 0.73799 0.80239 0.0
H2200 H 0.07329 0.73121 0.80294 0.0
C2201 C 0.9759 0.777 0.80295 0.0
H2202 H 0.01818 0.69216 0.8027 0.0
C2203 C 1.00764 0.79942 0.80378 0.0
C2204 C 0.04332 0.78353 0.80346 0.0
H2205 H 0.94896 0.7903 0.8031 0.0
H2206 H 1.00404 0.82927 0.80471 0.0
C2207 C 0.04635 0.74452 0.80289 0.0
C2208 C 0.26181 0.44105 0.99313 0.0
C2209 C 0.28769 0.4119 0.99485 0.0
H2210 H 0.21008 0.46401 1.0034 0.0
C2211 C 0.28226 0.38516 0.01003 0.0
H2212 H 0.26523 0.46226 0.98173 0.0
C2213 C 0.25111 0.38625 0.02243 0.0
C2214 C 0.22415 0.41415 0.02014 0.0
H2215 H 0.30197 0.36283 0.01227 0.0
H2216 H 0.24776 0.3645 0.03355 0.0
C2217 C 0.23028 0.44211 1.00563 0.0
C2218 C 0.89 0.0177 0.24099 0.0
C2219 C 0.85978 0.04244 0.2413 0.0
H2220 H 0.91597 0.96969 0.25367 0.0
C2221 C 0.83051 0.03486 0.25476 0.0
H2222 H 0.91271 0.0218 0.23065 0.0
C2223 C 0.83215 1.00411 0.26792 0.0
C2224 C 0.86347 0.98079 0.26826 0.0
H2225 H 0.80671 0.05316 0.25547 0.0
H2226 H 0.80947 0.99925 0.27824 0.0
C2227 C 0.89199 0.98773 0.25437 0.0
C2228 C 0.25326 0.58208 0.49007 0.0
C2229 C 0.22616 0.60958 0.49344 0.0
H2230 H 0.30588 0.55924 0.49906 0.0
C2231 C 0.23059 0.63328 0.51015 0.0
H2232 H 0.25074 0.56324 0.47744 0.0
C2233 C 0.26193 0.63102 0.52245 0.0
C2234 C 0.28993 0.6048 0.5186 0.0
H2235 H 0.21014 0.65438 0.51358 0.0
H2236 H 0.26465 0.65064 0.53472 0.0
C2237 C 0.2848 0.57969 0.50254 0.0
C2238 C 0.68689 0.01104 0.76891 0.0
C2239 C 0.65854 0.03766 0.76677 0.0
H2240 H 0.70984 0.9592 0.75859 0.0
C2241 C 0.63343 0.03348 0.75069 0.0
H2242 H 0.70684 0.01345 0.78101 0.0
C2243 C 0.63531 1.00279 0.73779 0.0
C2244 C 0.6623 0.97504 0.7405 0.0
H2245 H 0.61172 0.05375 0.74817 0.0
H2246 H 0.61478 1.00036 0.72598 0.0
C2247 C 0.68868 0.98001 0.75596 0.0
C2248 C 0.75325 0.58847 0.02428 0.0
C2249 C 0.72617 0.61601 0.02096 0.0
H2250 H 0.8059 0.56583 0.0153 0.0
C2251 C 0.73046 0.63983 1.00431 0.0
H2252 H 0.75078 0.56955 0.03686 0.0
C2253 C 0.76171 0.63767 0.99202 0.0
C2254 C 0.78978 0.61151 0.99586 0.0
H2255 H 0.70998 0.66095 1.00094 0.0
H2256 H 0.76433 0.65738 0.97979 0.0
C2257 C 0.78475 0.58624 0.01184 0.0
C2258 C 0.12937 1.00512 0.77219 0.0
C2259 C 0.15968 0.98049 0.77239 0.0
H2260 H 0.1043 0.05345 0.75935 0.0
C2261 C 0.18982 0.98836 0.75956 0.0
H2262 H 0.10596 1.00078 0.78204 0.0
C2263 C 0.189 0.01935 0.74652 0.0
C2264 C 0.15767 0.04261 0.74568 0.0
H2265 H 0.21373 0.97015 0.75925 0.0
H2266 H 0.21237 0.02448 0.73671 0.0
C2267 C 0.12825 0.03537 0.75896 0.0
C2268 C 0.77479 0.43724 0.50555 0.0
C2269 C 0.78408 0.40625 0.51759 0.0
H2270 H 0.73732 0.46033 0.48354 0.0
C2271 C 0.76073 0.37487 0.51682 0.0
H2272 H 0.79201 0.46195 0.50572 0.0
C2273 C 0.73024 0.37369 0.50387 0.0
C2274 C 0.72146 0.40404 0.4914 0.0
H2275 H 0.76623 0.3507 0.52605 0.0
H2276 H 0.7132 0.34887 0.50383 0.0
C2277 C 0.74358 0.43627 0.49275 0.0
C2278 C 0.33244 0.02174 0.27098 0.0
C2279 C 0.36362 0.04532 0.27133 0.0
H2280 H 0.30773 0.97192 0.25888 0.0
C2281 C 0.39267 0.03799 0.25784 0.0
H2282 H 0.30939 0.02686 0.281 0.0
C2283 C 0.39138 1.00736 0.24489 0.0
C2284 C 0.36128 0.98242 0.24518 0.0
H2285 H 0.41658 0.05616 0.25715 0.0
H2286 H 0.41456 1.00291 0.23489 0.0
C2287 C 0.33144 0.99039 0.25819 0.0
C2288 C 0.76231 0.88316 0.49064 0.0
C2289 C 0.79021 0.90953 0.49456 0.0
H2290 H 0.71088 0.85906 0.49959 0.0
C2291 C 0.78515 0.9343 0.51077 0.0
H2292 H 0.76495 0.86379 0.47825 0.0
C2293 C 0.75381 0.93142 0.5233 0.0
C2294 C 0.72688 0.90372 0.51987 0.0
H2295 H 0.80614 0.95486 0.51432 0.0
H2296 H 0.75135 0.95003 0.53602 0.0
C2297 C 0.73121 0.88034 0.50304 0.0
C2298 C 0.33036 0.52989 0.75791 0.0
C2299 C 0.36051 0.53819 0.74517 0.0
H2300 H 0.30787 0.49314 0.78047 0.0
C2301 C 0.39087 0.5136 0.74518 0.0
H2302 H 0.30643 0.54806 0.75836 0.0
C2303 C 0.39202 0.48298 0.75815 0.0
C2304 C 0.36259 0.47529 0.77134 0.0
H2305 H 0.41431 0.51829 0.73539 0.0
H2306 H 0.41611 0.46506 0.75768 0.0
C2307 C 0.33122 0.49854 0.77069 0.0
C2308 C 0.7817 0.1427 1.00127 0.0
C2309 C 0.78593 0.11778 0.01746 0.0
H2310 H 0.74864 0.16091 0.97647 0.0
C2311 C 0.75929 0.08945 0.0198 0.0
H2312 H 0.8019 0.16448 0.99863 0.0
C2313 C 0.72833 0.08738 1.00689 0.0
C2314 C 0.72339 0.11348 0.99126 0.0
H2315 H 0.76168 0.06964 0.03199 0.0
H2316 H 0.7076 0.06617 0.00964 0.0
C2317 C 0.75106 0.14055 0.9884 0.0
C2318 C 0.18931 0.51865 0.27123 0.0
C2319 C 0.15811 0.5421 0.27202 0.0
H2320 H 0.21352 0.46898 0.25878 0.0
C2321 C 0.12832 0.53456 0.25898 0.0
H2322 H 0.21293 0.52395 0.28087 0.0
C2323 C 0.12898 0.5039 0.24602 0.0
C2324 C 0.1592 0.47915 0.24586 0.0
H2325 H 0.10438 0.55268 0.25859 0.0
H2326 H 0.10529 0.49935 0.23635 0.0
C2327 C 0.18968 0.48728 0.25845 0.0
C2328 C 0.24749 0.08145 0.52439 0.0
C2329 C 0.2223 0.11115 0.52235 0.0
H2330 H 0.29853 0.05671 0.51432 0.0
C2331 C 0.2282 0.137 0.50677 0.0
H2332 H 0.24369 0.0609 0.53611 0.0
C2333 C 0.25912 0.13443 0.49426 0.0
C2334 C 0.28544 0.10599 0.49686 0.0
H2335 H 0.20908 0.15979 0.50433 0.0
H2336 H 0.26285 0.15553 0.48281 0.0
C2337 C 0.27882 0.07896 0.51181 0.0
C2338 C 0.6348 0.48777 0.25199 0.0
C2339 C 0.66058 0.48318 0.2677 0.0
H2340 H 0.61557 0.52115 0.22756 0.0
C2341 C 0.68944 0.50938 0.2695 0.0
H2342 H 0.61273 0.46776 0.24971 0.0
C2343 C 0.69108 0.54048 0.25659 0.0
C2344 C 0.66407 0.54586 0.2415 0.0
H2345 H 0.70993 0.5066 0.28131 0.0
H2346 H 0.71265 0.561 0.25895 0.0
C2347 C 0.63657 0.51845 0.2391 0.0
C2348 C 0.25367 0.93931 0.9911 0.0
C2349 C 0.22654 0.91173 0.99427 0.0
H2350 H 0.30632 0.96193 1.00028 0.0
C2351 C 0.23082 0.88772 0.01084 0.0
H2352 H 0.25124 0.95839 0.97858 0.0
C2353 C 0.26207 0.88977 0.02321 0.0
C2354 C 0.29016 0.91602 0.01955 0.0
H2355 H 0.2103 0.86655 0.01411 0.0
H2356 H 0.26466 0.86992 0.03538 0.0
C2357 C 0.28517 0.94144 1.00362 0.0
C2358 C 0.82962 0.50225 0.74572 0.0
C2359 C 0.86064 0.47861 0.74482 0.0
H2360 H 0.80589 0.55199 0.75837 0.0
C2361 C 0.89049 0.48565 0.75789 0.0
H2362 H 0.80595 0.49727 0.73607 0.0
C2363 C 0.89015 0.51614 0.77095 0.0
C2364 C 0.86017 0.54116 0.77119 0.0
H2365 H 0.91422 0.46727 0.75822 0.0
H2366 H 0.91392 0.52039 0.78061 0.0
C2367 C 0.82955 0.53346 0.75862 0.0
C2368 C 0.12786 0.34209 0.12121 0.0
C2369 C 0.13022 0.37687 0.11198 0.0
H2370 H 0.12352 0.31181 0.14842 0.0
C2371 C 0.13193 0.40906 0.12404 0.0
H2372 H 0.12512 0.31698 0.11235 0.0
C2373 C 0.13023 0.40644 0.14508 0.0
C2374 C 0.12673 0.37149 0.15431 0.0
H2375 H 0.13354 0.4363 0.11719 0.0
H2376 H 0.13124 0.43161 0.15403 0.0
C2377 C 0.12621 0.33939 0.14203 0.0
C2378 C 0.90657 0.84606 0.39268 0.0
C2379 C 0.89159 0.87698 0.40244 0.0
H2380 H 0.92256 0.82141 0.36505 0.0
C2381 C 0.88082 0.90819 0.39102 0.0
H2382 H 0.91659 0.8224 0.40121 0.0
C2383 C 0.88477 0.90807 0.36998 0.0
C2384 C 0.89986 0.87684 0.36027 0.0
H2385 H 0.87052 0.93295 0.39842 0.0
H2386 H 0.87568 0.93196 0.36136 0.0
C2387 C 0.91066 0.84596 0.37195 0.0
C2388 C 0.39364 0.6776 0.64125 0.0
C2389 C 0.39117 0.64563 0.65352 0.0
H2390 H 0.39509 0.69993 0.61159 0.0
C2391 C 0.38455 0.61105 0.64434 0.0
H2392 H 0.39884 0.70486 0.64761 0.0
C2393 C 0.38154 0.60863 0.62332 0.0
C2394 C 0.38494 0.64068 0.61127 0.0
H2395 H 0.38203 0.58603 0.65331 0.0
H2396 H 0.37779 0.58158 0.61645 0.0
C2397 C 0.39066 0.67511 0.62048 0.0
C2398 C 0.65196 0.12399 0.8697 0.0
C2399 C 0.62017 0.12653 0.85746 0.0
H2400 H 0.67455 0.12776 0.89961 0.0
C2401 C 0.58581 0.1325 0.86655 0.0
H2402 H 0.67895 0.12 0.86299 0.0
C2403 C 0.58333 0.1375 0.88725 0.0
C2404 C 0.61523 0.13684 0.89955 0.0
H2405 H 0.56112 0.13631 0.85756 0.0
H2406 H 0.55623 0.14329 0.89348 0.0
C2407 C 0.64957 0.12909 0.89059 0.0
C2408 C 0.13388 0.68036 0.37589 0.0
C2409 C 0.13042 0.64833 0.36368 0.0
H2410 H 0.13594 0.70303 0.40546 0.0
C2411 C 0.1304 0.6133 0.373 0.0
H2412 H 0.13403 0.70804 0.36946 0.0
C2413 C 0.13203 0.61072 0.39405 0.0
C2414 C 0.13385 0.64299 0.40609 0.0
H2415 H 0.12835 0.58809 0.36414 0.0
H2416 H 0.13067 0.58353 0.40092 0.0
C2417 C 0.1357 0.67769 0.39673 0.0
C2418 C 0.63761 0.89837 0.64031 0.0
C2419 C 0.63031 0.86433 0.6499 0.0
H2420 H 0.64462 0.92655 0.61209 0.0
C2421 C 0.62772 0.83183 0.63805 0.0
H2422 H 0.64032 0.92377 0.64896 0.0
C2423 C 0.63078 0.83337 0.61724 0.0
C2424 C 0.63668 0.86736 0.60759 0.0
H2425 H 0.62211 0.80495 0.64476 0.0
H2426 H 0.62583 0.80825 0.60867 0.0
C2427 C 0.64072 0.89982 0.61928 0.0
C2428 C 0.39368 0.339 0.87549 0.0
C2429 C 0.39086 0.37077 0.8631 0.0
H2430 H 0.39445 0.31695 0.90517 0.0
C2431 C 0.38239 0.40512 0.87206 0.0
H2432 H 0.40031 0.31194 0.8693 0.0
C2433 C 0.37805 0.40755 0.89302 0.0
C2434 C 0.3819 0.37573 0.90524 0.0
H2435 H 0.37952 0.42996 0.86298 0.0
H2436 H 0.37316 0.43452 0.89975 0.0
C2437 C 0.38935 0.3415 0.89618 0.0
C2438 C 0.87776 0.11971 0.14004 0.0
C2439 C 0.88485 0.15376 0.14969 0.0
H2440 H 0.86999 0.0917 0.11182 0.0
C2441 C 0.88625 0.18642 0.1379 0.0
H2442 H 0.87592 0.09417 0.14862 0.0
C2443 C 0.88236 0.18503 0.1171 0.0
C2444 C 0.87674 0.15104 0.10736 0.0
H2445 H 0.89161 0.21334 0.14463 0.0
H2446 H 0.88647 0.21033 0.10859 0.0
C2447 C 0.87377 0.11842 0.11903 0.0
C2448 C 0.88404 0.61714 0.87133 0.0
C2449 C 0.89495 0.6503 0.86184 0.0
H2450 H 0.87335 0.58984 0.89952 0.0
C2451 C 0.90142 0.68215 0.87375 0.0
H2452 H 0.87837 0.59235 0.86258 0.0
C2453 C 0.89781 0.68089 0.89451 0.0
C2454 C 0.88742 0.64788 0.90403 0.0
H2455 H 0.91003 0.70826 0.86708 0.0
H2456 H 0.90506 0.70534 0.90321 0.0
C2457 C 0.88037 0.61596 0.89235 0.0
C2458 C 0.12024 0.18075 0.62106 0.0
C2459 C 0.12877 0.1475 0.61125 0.0
H2460 H 0.1103 0.20821 0.64871 0.0
C2461 C 0.13508 0.1152 0.62278 0.0
H2462 H 0.11344 0.20555 0.61258 0.0
C2463 C 0.13244 0.11624 0.64386 0.0
C2464 C 0.12326 0.14964 0.65363 0.0
H2465 H 0.14077 0.08893 0.61544 0.0
H2466 H 0.13743 0.09112 0.65244 0.0
C2467 C 0.11762 0.18187 0.64188 0.0
C2468 C 0.58382 0.37985 0.38808 0.0
C2469 C 0.61544 0.38041 0.4006 0.0
H2470 H 0.56223 0.3818 0.35829 0.0
C2471 C 0.64996 0.38849 0.39193 0.0
H2472 H 0.5566 0.37378 0.39409 0.0
C2473 C 0.65279 0.39418 0.37109 0.0
C2474 C 0.62124 0.39197 0.35864 0.0
H2475 H 0.67472 0.38974 0.40112 0.0
H2476 H 0.67991 0.39847 0.36458 0.0
C2477 C 0.58672 0.38548 0.36746 0.0
C2478 C 0.38083 0.91023 0.1237 0.0
C2479 C 0.38754 0.8786 0.11174 0.0
H2480 H 0.37908 0.93297 0.15367 0.0
C2481 C 0.39769 0.84525 0.12099 0.0
H2482 H 0.37405 0.93661 0.11674 0.0
C2483 C 0.40136 0.84336 0.14174 0.0
C2484 C 0.39516 0.87489 0.15393 0.0
H2485 H 0.40476 0.82103 0.1121 0.0
H2486 H 0.4098 0.81701 0.14818 0.0
C2487 C 0.3845 0.9084 0.14471 0.0
C2488 C 0.89687 0.33929 0.64101 0.0
C2489 C 0.89088 0.37122 0.65293 0.0
H2490 H 0.89941 0.31585 0.61159 0.0
C2491 C 0.87932 0.40418 0.64346 0.0
H2492 H 0.90592 0.31331 0.64765 0.0
C2493 C 0.8747 0.40513 0.62247 0.0
C2494 C 0.88138 0.37316 0.61075 0.0
H2495 H 0.87395 0.42903 0.6522 0.0
H2496 H 0.8673 0.43115 0.61532 0.0
C2497 C 0.89228 0.34031 0.62028 0.0
C2498 C 0.38347 0.11493 0.37165 0.0
C2499 C 0.39374 0.14901 0.36293 0.0
H2500 H 0.37224 0.08552 0.39913 0.0
C2501 C 0.39813 0.18035 0.37551 0.0
H2502 H 0.37937 0.09046 0.36239 0.0
C2503 C 0.39331 0.1777 0.39616 0.0
C2504 C 0.38378 0.14373 0.40494 0.0
H2505 H 0.40618 0.20716 0.36946 0.0
H2506 H 0.39929 0.20182 0.40537 0.0
C2507 C 0.37862 0.11233 0.39256 0.0
C2508 C 0.62479 0.68789 0.13902 0.0
C2509 C 0.62889 0.65564 0.15093 0.0
H2510 H 0.62146 0.71109 0.10959 0.0
C2511 C 0.63693 0.62175 0.14137 0.0
H2512 H 0.61851 0.71463 0.14571 0.0
C2513 C 0.63957 0.62018 0.12032 0.0
C2514 C 0.63435 0.65241 0.1086 0.0
H2515 H 0.64074 0.59656 0.15007 0.0
H2516 H 0.64417 0.59354 0.11315 0.0
C2517 C 0.62738 0.68624 0.1182 0.0
C2518 C 0.12449 0.83958 0.87609 0.0
C2519 C 0.12794 0.87177 0.86405 0.0
H2520 H 0.12174 0.8166 0.90557 0.0
C2521 C 0.13541 0.90591 0.87352 0.0
H2522 H 0.11864 0.81264 0.86949 0.0
C2523 C 0.13816 0.90773 0.89458 0.0
C2524 C 0.1336 0.87553 0.90642 0.0
H2525 H 0.13875 0.93107 0.86474 0.0
H2526 H 0.14241 0.93452 0.90166 0.0
C2527 C 0.12717 0.84149 0.8969 0.0
loop_
_geom_bond_atom_site_label_1
_geom_bond_atom_site_label_2
_geom_bond_distance
_geom_bond_site_symmetry_2
_ccdc_geom_bond_type
Co0 O2 2.143 . S
Co0 O8 2.074 . S
Co0 O11 2.093 . S
Co0 O24 2.097 . S
Co0 N41 2.151 . S
Co0 N49 2.214 . S
Co1 O2 2.160 . S
Co1 O7 2.058 . S
Co1 O17 2.057 . S
Co1 O32 2.037 . S
Co1 N36 2.145 . S
Co1 N57 2.257 . S
O2 Co0 2.143 . S
O2 Co1 2.160 . S
C3 O4 1.278 . S
C3 O11 1.224 . S
O4 C3 1.278 . S
C5 O6 1.245 . S
C5 O17 1.232 . S
O6 C5 1.245 . S
O7 Co1 2.058 . S
O7 C33 1.269 . S
O8 Co0 2.074 . S
O8 C33 1.257 . S
H9 C34 0.930 . S
H10 C40 0.930 . S
O11 Co0 2.093 . S
O11 C3 1.224 . S
H12 C44 0.929 . S
H13 C46 0.930 . S
H14 C47 0.930 1_455 S
H15 C45 0.929 . S
H16 C48 0.928 . S
O17 Co1 2.057 . S
O17 C5 1.232 . S
H18 C37 0.929 . S
H19 C38 0.929 . S
H20 C50 0.931 . S
H21 C42 0.929 . S
H22 C51 0.930 . S
H23 C43 0.931 . S
O24 Co0 2.097 . S
O24 C52 1.214 . S
H25 C53 0.929 . S
H26 C54 0.929 . S
H27 C55 0.930 . S
H28 C56 0.929 . S
H29 C58 0.930 . S
H30 C35 0.930 . S
H31 C39 0.930 . S
O32 Co1 2.037 . S
O32 C52 1.234 . S
C33 O7 1.269 . S
C33 O8 1.257 . S
C34 H9 0.930 . S
C34 C37 1.388 . S
C34 C39 1.418 . S
C35 H30 0.930 . S
C35 C38 1.404 . S
C35 C39 1.353 . S
N36 Co1 2.145 . S
N36 C37 1.397 . S
N36 C38 1.334 . S
C37 H18 0.929 . S
C37 C34 1.388 . S
C37 N36 1.397 . S
C38 H19 0.929 . S
C38 C35 1.404 . S
C38 N36 1.334 . S
C39 H31 0.930 . S
C39 C34 1.418 . S
C39 C35 1.353 . S
C40 H10 0.930 . S
C40 N41 1.330 . S
C40 C42 1.446 . S
N41 Co0 2.151 . S
N41 C40 1.330 . S
N41 C45 1.418 . S
C42 H21 0.929 . S
C42 C40 1.446 . S
C42 C43 1.332 . S
C43 H23 0.931 . S
C43 C42 1.332 . S
C43 C44 1.267 . S
C44 H12 0.929 . S
C44 C43 1.267 . S
C44 C45 1.251 . S
C45 H15 0.929 . S
C45 N41 1.418 . S
C45 C44 1.251 . S
C46 H13 0.930 . S
C46 C48 1.406 . S
C46 C51 1.261 . S
C47 H14 0.930 1_655 S
C47 N49 1.325 1_655 S
C47 C50 1.357 . S
C48 H16 0.928 . S
C48 C46 1.406 . S
C48 N49 1.261 1_655 S
N49 Co0 2.214 . S
N49 C47 1.325 1_455 S
N49 C48 1.261 1_455 S
C50 H20 0.931 . S
C50 C47 1.357 . S
C50 C51 1.312 . S
C51 H22 0.930 . S
C51 C46 1.261 . S
C51 C50 1.312 . S
C52 O24 1.214 . S
C52 O32 1.234 . S
C53 H25 0.929 . S
C53 C56 1.391 . S
C53 C58 1.391 . S
C54 H26 0.929 . S
C54 C55 1.390 1_554 S
C54 N57 1.391 . S
C55 H27 0.930 . S
C55 C54 1.390 1_556 S
C55 C56 1.392 . S
C56 H28 0.929 . S
C56 C53 1.391 . S
C56 C55 1.392 . S
N57 Co1 2.257 . S
N57 C54 1.391 . S
N57 C58 1.388 1_554 S
C58 H29 0.930 . S
C58 C53 1.391 . S
C58 N57 1.388 1_556 S
Co59 O61 2.143 . S
Co59 O67 2.074 . S
Co59 O70 2.093 . S
Co59 O83 2.097 . S
Co59 N100 2.151 . S
Co59 N108 2.214 . S
Co60 O61 2.160 . S
Co60 O66 2.058 . S
Co60 O76 2.057 . S
Co60 O91 2.037 . S
Co60 N95 2.145 . S
Co60 N116 2.257 . S
O61 Co59 2.143 . S
O61 Co60 2.160 . S
C62 O63 1.278 . S
C62 O70 1.224 . S
O63 C62 1.278 . S
C64 O65 1.245 . S
C64 O76 1.232 . S
O65 C64 1.245 . S
O66 Co60 2.058 . S
O66 C92 1.269 . S
O67 Co59 2.074 . S
O67 C92 1.257 . S
H68 C93 0.930 . S
H69 C99 0.930 . S
O70 Co59 2.093 . S
O70 C62 1.224 . S
H71 C103 0.929 . S
H72 C105 0.930 . S
H73 C106 0.930 . S
H74 C104 0.929 . S
H75 C107 0.928 . S
O76 Co60 2.057 . S
O76 C64 1.232 . S
H77 C96 0.929 . S
H78 C97 0.929 . S
H79 C109 0.931 . S
H80 C101 0.929 . S
H81 C110 0.930 . S
H82 C102 0.931 . S
O83 Co59 2.097 . S
O83 C111 1.214 . S
H84 C112 0.929 . S
H85 C113 0.929 . S
H86 C114 0.930 . S
H87 C115 0.929 . S
H88 C117 0.930 . S
H89 C94 0.927 1_455 S
H90 C98 0.930 . S
O91 Co60 2.037 . S
O91 C111 1.234 . S
C92 O66 1.269 . S
C92 O67 1.257 . S
C93 H68 0.930 . S
C93 C96 1.388 1_455 S
C93 C98 1.418 . S
C94 H89 0.927 1_655 S
C94 C97 1.424 . S
C94 C98 1.336 1_655 S
N95 Co60 2.145 . S
N95 C96 1.397 . S
N95 C97 1.334 . S
C96 H77 0.929 . S
C96 C93 1.388 1_655 S
C96 N95 1.397 . S
C97 H78 0.929 . S
C97 C94 1.424 . S
C97 N95 1.334 . S
C98 H90 0.930 . S
C98 C93 1.418 . S
C98 C94 1.336 1_455 S
C99 H69 0.930 . S
C99 N100 1.330 . S
C99 C101 1.446 . S
N100 Co59 2.151 . S
N100 C99 1.330 . S
N100 C104 1.418 . S
C101 H80 0.929 . S
C101 C99 1.446 . S
C101 C102 1.332 . S
C102 H82 0.931 . S
C102 C101 1.332 . S
C102 C103 1.267 . S
C103 H71 0.929 . S
C103 C102 1.267 . S
C103 C104 1.251 . S
C104 H74 0.929 . S
C104 N100 1.418 . S
C104 C103 1.251 . S
C105 H72 0.930 . S
C105 C107 1.406 . S
C105 C110 1.261 . S
C106 H73 0.930 . S
C106 N108 1.325 . S
C106 C109 1.357 . S
C107 H75 0.928 . S
C107 C105 1.406 . S
C107 N108 1.261 . S
N108 Co59 2.214 . S
N108 C106 1.325 . S
N108 C107 1.261 . S
C109 H79 0.931 . S
C109 C106 1.357 . S
C109 C110 1.312 . S
C110 H81 0.930 . S
C110 C105 1.261 . S
C110 C109 1.312 . S
C111 O83 1.214 . S
C111 O91 1.234 . S
C112 H84 0.929 . S
C112 C115 1.391 . S
C112 C117 1.391 . S
C113 H85 0.929 . S
C113 C114 1.390 . S
C113 N116 1.391 . S
C114 H86 0.930 . S
C114 C113 1.390 . S
C114 C115 1.392 . S
C115 H87 0.929 . S
C115 C112 1.391 . S
C115 C114 1.392 . S
N116 Co60 2.257 . S
N116 C113 1.391 . S
N116 C117 1.388 . S
C117 H88 0.930 . S
C117 C112 1.391 . S
C117 N116 1.388 . S
Co118 O120 2.143 . S
Co118 O126 2.074 . S
Co118 O129 2.093 . S
Co118 O142 2.097 . S
Co118 N159 2.151 . S
Co118 N167 2.214 . S
Co119 O120 2.160 . S
Co119 O125 2.058 . S
Co119 O135 2.057 . S
Co119 O150 2.037 . S
Co119 N154 2.145 . S
Co119 N175 2.257 . S
O120 Co118 2.143 . S
O120 Co119 2.160 . S
C121 O122 1.278 . S
C121 O129 1.224 . S
O122 C121 1.278 . S
C123 O124 1.245 . S
C123 O135 1.232 . S
O124 C123 1.245 . S
O125 Co119 2.058 . S
O125 C151 1.269 . S
O126 Co118 2.074 . S
O126 C151 1.257 . S
H127 C152 0.930 . S
H128 C158 0.930 . S
O129 Co118 2.093 . S
O129 C121 1.224 . S
H130 C162 0.929 . S
H131 C164 0.930 . S
H132 C165 0.930 . S
H133 C163 0.929 . S
H134 C166 0.928 . S
O135 Co119 2.057 . S
O135 C123 1.232 . S
H136 C155 0.929 . S
H137 C156 0.929 . S
H138 C168 0.931 . S
H139 C160 0.929 . S
H140 C169 0.930 . S
H141 C161 0.931 . S
O142 Co118 2.097 . S
O142 C170 1.214 . S
H143 C171 0.929 . S
H144 C172 0.929 . S
H145 C173 0.930 . S
H146 C174 0.929 . S
H147 C176 0.930 . S
H148 C153 0.930 . S
H149 C157 0.930 . S
O150 Co119 2.037 . S
O150 C170 1.234 . S
C151 O125 1.269 . S
C151 O126 1.257 . S
C152 H127 0.930 . S
C152 C155 1.388 . S
C152 C157 1.418 . S
C153 H148 0.930 . S
C153 C156 1.404 . S
C153 C157 1.353 . S
N154 Co119 2.145 . S
N154 C155 1.397 . S
N154 C156 1.334 . S
C155 H136 0.929 . S
C155 C152 1.388 . S
C155 N154 1.397 . S
C156 H137 0.929 . S
C156 C153 1.404 . S
C156 N154 1.334 . S
C157 H149 0.930 . S
C157 C152 1.418 . S
C157 C153 1.353 . S
C158 H128 0.930 . S
C158 N159 1.330 . S
C158 C160 1.446 . S
N159 Co118 2.151 . S
N159 C158 1.330 . S
N159 C163 1.418 . S
C160 H139 0.929 . S
C160 C158 1.446 . S
C160 C161 1.332 . S
C161 H141 0.931 . S
C161 C160 1.332 . S
C161 C162 1.267 . S
C162 H130 0.929 . S
C162 C161 1.267 . S
C162 C163 1.251 . S
C163 H133 0.929 . S
C163 N159 1.418 . S
C163 C162 1.251 . S
C164 H131 0.930 . S
C164 C166 1.406 . S
C164 C169 1.261 . S
C165 H132 0.930 . S
C165 N167 1.325 . S
C165 C168 1.357 . S
C166 H134 0.928 . S
C166 C164 1.406 . S
C166 N167 1.261 . S
N167 Co118 2.214 . S
N167 C165 1.325 . S
N167 C166 1.261 . S
C168 H138 0.931 . S
C168 C165 1.357 . S
C168 C169 1.312 . S
C169 H140 0.930 . S
C169 C164 1.261 . S
C169 C168 1.312 . S
C170 O142 1.214 . S
C170 O150 1.234 . S
C171 H143 0.929 . S
C171 C174 1.391 . S
C171 C176 1.391 . S
C172 H144 0.929 . S
C172 C173 1.390 . S
C172 N175 1.391 . S
C173 H145 0.930 . S
C173 C172 1.390 . S
C173 C174 1.392 . S
C174 H146 0.929 . S
C174 C171 1.391 . S
C174 C173 1.392 . S
N175 Co119 2.257 . S
N175 C172 1.391 . S
N175 C176 1.388 . S
C176 H147 0.930 . S
C176 C171 1.391 . S
C176 N175 1.388 . S
Co177 O179 2.143 . S
Co177 O185 2.074 . S
Co177 O188 2.093 . S
Co177 O201 2.097 . S
Co177 N218 2.151 . S
Co177 N226 2.214 . S
Co178 O179 2.160 . S
Co178 O184 2.058 . S
Co178 O194 2.057 . S
Co178 O209 2.037 . S
Co178 N213 2.145 . S
Co178 N234 2.257 . S
O179 Co177 2.143 . S
O179 Co178 2.160 . S
C180 O181 1.278 . S
C180 O188 1.224 . S
O181 C180 1.278 . S
C182 O183 1.245 . S
C182 O194 1.232 . S
O183 C182 1.245 . S
O184 Co178 2.058 . S
O184 C210 1.269 . S
O185 Co177 2.074 . S
O185 C210 1.257 . S
H186 C211 0.930 . S
H187 C217 0.930 . S
O188 Co177 2.093 . S
O188 C180 1.224 . S
H189 C221 0.929 . S
H190 C223 0.930 . S
H191 C224 0.930 . S
H192 C222 0.929 . S
H193 C225 0.928 . S
O194 Co178 2.057 . S
O194 C182 1.232 . S
H195 C214 0.929 . S
H196 C215 0.929 . S
H197 C227 0.931 . S
H198 C219 0.929 . S
H199 C228 0.930 . S
H200 C220 0.931 . S
O201 Co177 2.097 . S
O201 C229 1.214 . S
H202 C230 0.929 . S
H203 C231 0.929 . S
H204 C232 0.930 . S
H205 C233 0.929 . S
H206 C235 0.930 . S
H207 C212 0.930 . S
H208 C216 0.930 . S
O209 Co178 2.037 . S
O209 C229 1.234 . S
C210 O184 1.269 . S
C210 O185 1.257 . S
C211 H186 0.930 . S
C211 C214 1.388 . S
C211 C216 1.418 . S
C212 H207 0.930 . S
C212 C215 1.404 . S
C212 C216 1.353 . S
N213 Co178 2.145 . S
N213 C214 1.397 . S
N213 C215 1.334 . S
C214 H195 0.929 . S
C214 C211 1.388 . S
C214 N213 1.397 . S
C215 H196 0.929 . S
C215 C212 1.404 . S
C215 N213 1.334 . S
C216 H208 0.930 . S
C216 C211 1.418 . S
C216 C212 1.353 . S
C217 H187 0.930 . S
C217 N218 1.330 . S
C217 C219 1.446 . S
N218 Co177 2.151 . S
N218 C217 1.330 . S
N218 C222 1.418 . S
C219 H198 0.929 . S
C219 C217 1.446 . S
C219 C220 1.332 . S
C220 H200 0.931 . S
C220 C219 1.332 . S
C220 C221 1.267 . S
C221 H189 0.929 . S
C221 C220 1.267 . S
C221 C222 1.251 . S
C222 H192 0.929 . S
C222 N218 1.418 . S
C222 C221 1.251 . S
C223 H190 0.930 . S
C223 C225 1.406 . S
C223 C228 1.261 . S
C224 H191 0.930 . S
C224 N226 1.325 . S
C224 C227 1.357 . S
C225 H193 0.928 . S
C225 C223 1.406 . S
C225 N226 1.261 . S
N226 Co177 2.214 . S
N226 C224 1.325 . S
N226 C225 1.261 . S
C227 H197 0.931 . S
C227 C224 1.357 . S
C227 C228 1.312 . S
C228 H199 0.930 . S
C228 C223 1.261 . S
C228 C227 1.312 . S
C229 O201 1.214 . S
C229 O209 1.234 . S
C230 H202 0.929 . S
C230 C233 1.391 . S
C230 C235 1.391 . S
C231 H203 0.929 . S
C231 C232 1.390 . S
C231 N234 1.391 . S
C232 H204 0.930 . S
C232 C231 1.390 . S
C232 C233 1.392 . S
C233 H205 0.929 . S
C233 C230 1.391 . S
C233 C232 1.392 . S
N234 Co178 2.257 . S
N234 C231 1.391 . S
N234 C235 1.388 . S
C235 H206 0.930 . S
C235 C230 1.391 . S
C235 N234 1.388 . S
Co236 O238 2.143 . S
Co236 O244 2.074 . S
Co236 O247 2.093 . S
Co236 O260 2.097 . S
Co236 N277 2.151 . S
Co236 N285 2.214 . S
Co237 O238 2.160 . S
Co237 O243 2.058 . S
Co237 O253 2.057 . S
Co237 O268 2.037 . S
Co237 N272 2.145 . S
Co237 N293 2.257 . S
O238 Co236 2.143 . S
O238 Co237 2.160 . S
C239 O240 1.278 . S
C239 O247 1.224 . S
O240 C239 1.278 . S
C241 O242 1.245 . S
C241 O253 1.232 . S
O242 C241 1.245 . S
O243 Co237 2.058 . S
O243 C269 1.269 . S
O244 Co236 2.074 . S
O244 C269 1.257 . S
H245 C270 0.930 . S
H246 C276 0.930 . S
O247 Co236 2.093 . S
O247 C239 1.224 . S
H248 C280 0.929 . S
H249 C282 0.930 . S
H250 C283 0.930 1_455 S
H251 C281 0.929 . S
H252 C284 0.928 . S
O253 Co237 2.057 . S
O253 C241 1.232 . S
H254 C273 0.929 . S
H255 C274 0.929 . S
H256 C286 0.931 . S
H257 C278 0.929 . S
H258 C287 0.930 . S
H259 C279 0.931 . S
O260 Co236 2.097 . S
O260 C288 1.214 . S
H261 C289 0.929 . S
H262 C290 0.929 . S
H263 C291 0.930 . S
H264 C292 0.929 . S
H265 C294 0.930 . S
H266 C271 0.930 . S
H267 C275 0.930 . S
O268 Co237 2.037 . S
O268 C288 1.234 . S
C269 O243 1.269 . S
C269 O244 1.257 . S
C270 H245 0.930 . S
C270 C273 1.388 . S
C270 C275 1.418 . S
C271 H266 0.930 . S
C271 C274 1.404 . S
C271 C275 1.353 . S
N272 Co237 2.145 . S
N272 C273 1.397 . S
N272 C274 1.334 . S
C273 H254 0.929 . S
C273 C270 1.388 . S
C273 N272 1.397 . S
C274 H255 0.929 . S
C274 C271 1.404 . S
C274 N272 1.334 . S
C275 H267 0.930 . S
C275 C270 1.418 . S
C275 C271 1.353 . S
C276 H246 0.930 . S
C276 N277 1.330 . S
C276 C278 1.446 . S
N277 Co236 2.151 . S
N277 C276 1.330 . S
N277 C281 1.418 . S
C278 H257 0.929 . S
C278 C276 1.446 . S
C278 C279 1.332 . S
C279 H259 0.931 . S
C279 C278 1.332 . S
C279 C280 1.267 . S
C280 H248 0.929 . S
C280 C279 1.267 . S
C280 C281 1.251 . S
C281 H251 0.929 . S
C281 N277 1.418 . S
C281 C280 1.251 . S
C282 H249 0.930 . S
C282 C284 1.406 . S
C282 C287 1.261 . S
C283 H250 0.930 1_655 S
C283 N285 1.325 1_655 S
C283 C286 1.357 . S
C284 H252 0.928 . S
C284 C282 1.406 . S
C284 N285 1.261 1_655 S
N285 Co236 2.214 . S
N285 C283 1.325 1_455 S
N285 C284 1.261 1_455 S
C286 H256 0.931 . S
C286 C283 1.357 . S
C286 C287 1.312 . S
C287 H258 0.930 . S
C287 C282 1.261 . S
C287 C286 1.312 . S
C288 O260 1.214 . S
C288 O268 1.234 . S
C289 H261 0.929 . S
C289 C292 1.391 . S
C289 C294 1.391 . S
C290 H262 0.929 . S
C290 C291 1.390 . S
C290 N293 1.391 . S
C291 H263 0.930 . S
C291 C290 1.390 . S
C291 C292 1.392 . S
C292 H264 0.929 . S
C292 C289 1.391 . S
C292 C291 1.392 . S
N293 Co237 2.257 . S
N293 C290 1.391 . S
N293 C294 1.388 . S
C294 H265 0.930 . S
C294 C289 1.391 . S
C294 N293 1.388 . S
Co295 O297 2.143 . S
Co295 O303 2.074 . S
Co295 O306 2.093 . S
Co295 O319 2.097 . S
Co295 N336 2.151 . S
Co295 N344 2.214 . S
Co296 O297 2.160 . S
Co296 O302 2.058 . S
Co296 O312 2.057 . S
Co296 O327 2.037 . S
Co296 N331 2.145 . S
Co296 N352 2.257 . S
O297 Co295 2.143 . S
O297 Co296 2.160 . S
C298 O299 1.278 . S
C298 O306 1.224 . S
O299 C298 1.278 . S
C300 O301 1.245 . S
C300 O312 1.232 . S
O301 C300 1.245 . S
O302 Co296 2.058 . S
O302 C328 1.269 . S
O303 Co295 2.074 . S
O303 C328 1.257 . S
H304 C329 0.930 . S
H305 C335 0.930 . S
O306 Co295 2.093 . S
O306 C298 1.224 . S
H307 C339 0.929 . S
H308 C341 0.930 . S
H309 C342 0.930 . S
H310 C340 0.929 . S
H311 C343 0.928 . S
O312 Co296 2.057 . S
O312 C300 1.232 . S
H313 C332 0.929 . S
H314 C333 0.929 . S
H315 C345 0.931 . S
H316 C337 0.929 . S
H317 C346 0.930 . S
H318 C338 0.931 . S
O319 Co295 2.097 . S
O319 C347 1.214 . S
H320 C348 0.929 . S
H321 C349 0.929 . S
H322 C350 0.930 . S
H323 C351 0.929 . S
H324 C353 0.930 . S
H325 C330 0.930 . S
H326 C334 0.930 . S
O327 Co296 2.037 . S
O327 C347 1.234 . S
C328 O302 1.269 . S
C328 O303 1.257 . S
C329 H304 0.930 . S
C329 C332 1.388 . S
C329 C334 1.418 . S
C330 H325 0.930 . S
C330 C333 1.404 . S
C330 C334 1.353 . S
N331 Co296 2.145 . S
N331 C332 1.397 . S
N331 C333 1.334 . S
C332 H313 0.929 . S
C332 C329 1.388 . S
C332 N331 1.397 . S
C333 H314 0.929 . S
C333 C330 1.404 . S
C333 N331 1.334 . S
C334 H326 0.930 . S
C334 C329 1.418 . S
C334 C330 1.353 . S
C335 H305 0.930 . S
C335 N336 1.330 . S
C335 C337 1.446 . S
N336 Co295 2.151 . S
N336 C335 1.330 . S
N336 C340 1.418 . S
C337 H316 0.929 . S
C337 C335 1.446 . S
C337 C338 1.332 . S
C338 H318 0.931 . S
C338 C337 1.332 . S
C338 C339 1.267 . S
C339 H307 0.929 . S
C339 C338 1.267 . S
C339 C340 1.251 . S
C340 H310 0.929 . S
C340 N336 1.418 . S
C340 C339 1.251 . S
C341 H308 0.930 . S
C341 C343 1.406 . S
C341 C346 1.261 . S
C342 H309 0.930 . S
C342 N344 1.325 . S
C342 C345 1.357 . S
C343 H311 0.928 . S
C343 C341 1.406 . S
C343 N344 1.261 . S
N344 Co295 2.214 . S
N344 C342 1.325 . S
N344 C343 1.261 . S
C345 H315 0.931 . S
C345 C342 1.357 . S
C345 C346 1.312 . S
C346 H317 0.930 . S
C346 C341 1.261 . S
C346 C345 1.312 . S
C347 O319 1.214 . S
C347 O327 1.234 . S
C348 H320 0.929 . S
C348 C351 1.391 . S
C348 C353 1.391 . S
C349 H321 0.929 . S
C349 C350 1.390 . S
C349 N352 1.391 . S
C350 H322 0.930 . S
C350 C349 1.390 . S
C350 C351 1.392 . S
C351 H323 0.929 . S
C351 C348 1.391 . S
C351 C350 1.392 . S
N352 Co296 2.257 . S
N352 C349 1.391 . S
N352 C353 1.388 . S
C353 H324 0.930 . S
C353 C348 1.391 . S
C353 N352 1.388 . S
Co354 O356 2.143 . S
Co354 O362 2.074 . S
Co354 O365 2.093 . S
Co354 O378 2.097 . S
Co354 N395 2.151 . S
Co354 N403 2.214 . S
Co355 O356 2.160 . S
Co355 O361 2.058 . S
Co355 O371 2.057 . S
Co355 O386 2.037 . S
Co355 N390 2.145 . S
Co355 N411 2.257 . S
O356 Co354 2.143 . S
O356 Co355 2.160 . S
C357 O358 1.278 . S
C357 O365 1.224 . S
O358 C357 1.278 . S
C359 O360 1.245 . S
C359 O371 1.232 . S
O360 C359 1.245 . S
O361 Co355 2.058 . S
O361 C387 1.269 . S
O362 Co354 2.074 . S
O362 C387 1.257 . S
H363 C388 0.930 . S
H364 C394 0.930 . S
O365 Co354 2.093 . S
O365 C357 1.224 . S
H366 C398 0.929 . S
H367 C400 0.930 . S
H368 C401 0.930 . S
H369 C399 0.929 . S
H370 C402 0.928 . S
O371 Co355 2.057 . S
O371 C359 1.232 . S
H372 C391 0.929 . S
H373 C392 0.929 . S
H374 C404 0.931 . S
H375 C396 0.929 . S
H376 C405 0.930 . S
H377 C397 0.931 . S
O378 Co354 2.097 . S
O378 C406 1.214 . S
H379 C407 0.929 . S
H380 C408 0.929 . S
H381 C409 0.930 . S
H382 C410 0.929 . S
H383 C412 0.930 . S
H384 C389 0.930 . S
H385 C393 0.930 . S
O386 Co355 2.037 . S
O386 C406 1.234 . S
C387 O361 1.269 . S
C387 O362 1.257 . S
C388 H363 0.930 . S
C388 C391 1.388 . S
C388 C393 1.418 . S
C389 H384 0.930 . S
C389 C392 1.404 . S
C389 C393 1.353 . S
N390 Co355 2.145 . S
N390 C391 1.397 . S
N390 C392 1.334 . S
C391 H372 0.929 . S
C391 C388 1.388 . S
C391 N390 1.397 . S
C392 H373 0.929 . S
C392 C389 1.404 . S
C392 N390 1.334 . S
C393 H385 0.930 . S
C393 C388 1.418 . S
C393 C389 1.353 . S
C394 H364 0.930 . S
C394 N395 1.330 . S
C394 C396 1.446 . S
N395 Co354 2.151 . S
N395 C394 1.330 . S
N395 C399 1.418 . S
C396 H375 0.929 . S
C396 C394 1.446 . S
C396 C397 1.332 . S
C397 H377 0.931 . S
C397 C396 1.332 . S
C397 C398 1.267 . S
C398 H366 0.929 . S
C398 C397 1.267 . S
C398 C399 1.251 . S
C399 H369 0.929 . S
C399 N395 1.418 . S
C399 C398 1.251 . S
C400 H367 0.930 . S
C400 C402 1.406 . S
C400 C405 1.261 . S
C401 H368 0.930 . S
C401 N403 1.325 . S
C401 C404 1.357 . S
C402 H370 0.928 . S
C402 C400 1.406 . S
C402 N403 1.261 . S
N403 Co354 2.214 . S
N403 C401 1.325 . S
N403 C402 1.261 . S
C404 H374 0.931 . S
C404 C401 1.357 . S
C404 C405 1.312 . S
C405 H376 0.930 . S
C405 C400 1.261 . S
C405 C404 1.312 . S
C406 O378 1.214 . S
C406 O386 1.234 . S
C407 H379 0.929 . S
C407 C410 1.391 . S
C407 C412 1.391 . S
C408 H380 0.929 . S
C408 C409 1.390 1_556 S
C408 N411 1.391 . S
C409 H381 0.930 . S
C409 C408 1.390 1_554 S
C409 C410 1.392 . S
C410 H382 0.929 . S
C410 C407 1.391 . S
C410 C409 1.392 . S
N411 Co355 2.257 . S
N411 C408 1.391 . S
N411 C412 1.388 1_556 S
C412 H383 0.930 . S
C412 C407 1.391 . S
C412 N411 1.388 1_554 S
Co413 O415 2.143 . S
Co413 O421 2.074 . S
Co413 O424 2.093 . S
Co413 O437 2.097 . S
Co413 N454 2.151 . S
Co413 N462 2.214 . S
Co414 O415 2.160 . S
Co414 O420 2.058 . S
Co414 O430 2.057 . S
Co414 O445 2.037 . S
Co414 N449 2.145 . S
Co414 N470 2.257 . S
O415 Co413 2.143 . S
O415 Co414 2.160 . S
C416 O417 1.278 . S
C416 O424 1.224 . S
O417 C416 1.278 . S
C418 O419 1.245 . S
C418 O430 1.232 . S
O419 C418 1.245 . S
O420 Co414 2.058 . S
O420 C446 1.269 . S
O421 Co413 2.074 . S
O421 C446 1.257 . S
H422 C447 0.930 . S
H423 C453 0.930 . S
O424 Co413 2.093 . S
O424 C416 1.224 . S
H425 C457 0.929 . S
H426 C459 0.930 . S
H427 C460 0.930 . S
H428 C458 0.929 . S
H429 C461 0.928 . S
O430 Co414 2.057 . S
O430 C418 1.232 . S
H431 C450 0.929 . S
H432 C451 0.929 . S
H433 C463 0.931 . S
H434 C455 0.929 . S
H435 C464 0.930 . S
H436 C456 0.931 . S
O437 Co413 2.097 . S
O437 C465 1.214 . S
H438 C466 0.929 . S
H439 C467 0.929 . S
H440 C468 0.930 . S
H441 C469 0.929 . S
H442 C471 0.930 . S
H443 C448 0.927 1_455 S
H444 C452 0.930 . S
O445 Co414 2.037 . S
O445 C465 1.234 . S
C446 O420 1.269 . S
C446 O421 1.257 . S
C447 H422 0.930 . S
C447 C450 1.388 1_455 S
C447 C452 1.418 . S
C448 H443 0.927 1_655 S
C448 C451 1.424 . S
C448 C452 1.336 1_655 S
N449 Co414 2.145 . S
N449 C450 1.397 . S
N449 C451 1.334 . S
C450 H431 0.929 . S
C450 C447 1.388 1_655 S
C450 N449 1.397 . S
C451 H432 0.929 . S
C451 C448 1.424 . S
C451 N449 1.334 . S
C452 H444 0.930 . S
C452 C447 1.418 . S
C452 C448 1.336 1_455 S
C453 H423 0.930 . S
C453 N454 1.330 . S
C453 C455 1.446 . S
N454 Co413 2.151 . S
N454 C453 1.330 . S
N454 C458 1.418 . S
C455 H434 0.929 . S
C455 C453 1.446 . S
C455 C456 1.332 . S
C456 H436 0.931 . S
C456 C455 1.332 . S
C456 C457 1.267 . S
C457 H425 0.929 . S
C457 C456 1.267 . S
C457 C458 1.251 . S
C458 H428 0.929 . S
C458 N454 1.418 . S
C458 C457 1.251 . S
C459 H426 0.930 . S
C459 C461 1.406 . S
C459 C464 1.261 . S
C460 H427 0.930 . S
C460 N462 1.325 . S
C460 C463 1.357 . S
C461 H429 0.928 . S
C461 C459 1.406 . S
C461 N462 1.261 . S
N462 Co413 2.214 . S
N462 C460 1.325 . S
N462 C461 1.261 . S
C463 H433 0.931 . S
C463 C460 1.357 . S
C463 C464 1.312 . S
C464 H435 0.930 . S
C464 C459 1.261 . S
C464 C463 1.312 . S
C465 O437 1.214 . S
C465 O445 1.234 . S
C466 H438 0.929 . S
C466 C469 1.391 . S
C466 C471 1.391 . S
C467 H439 0.929 . S
C467 C468 1.390 . S
C467 N470 1.391 . S
C468 H440 0.930 . S
C468 C467 1.390 . S
C468 C469 1.392 . S
C469 H441 0.929 . S
C469 C466 1.391 . S
C469 C468 1.392 . S
N470 Co414 2.257 . S
N470 C467 1.391 . S
N470 C471 1.388 . S
C471 H442 0.930 . S
C471 C466 1.391 . S
C471 N470 1.388 . S
Co472 O474 2.143 . S
Co472 O480 2.074 . S
Co472 O483 2.093 . S
Co472 O496 2.097 . S
Co472 N513 2.151 . S
Co472 N521 2.214 . S
Co473 O474 2.160 . S
Co473 O479 2.058 . S
Co473 O489 2.057 . S
Co473 O504 2.037 . S
Co473 N508 2.145 . S
Co473 N529 2.257 . S
O474 Co472 2.143 . S
O474 Co473 2.160 . S
C475 O476 1.278 . S
C475 O483 1.224 . S
O476 C475 1.278 . S
C477 O478 1.245 . S
C477 O489 1.232 . S
O478 C477 1.245 . S
O479 Co473 2.058 . S
O479 C505 1.269 . S
O480 Co472 2.074 . S
O480 C505 1.257 . S
H481 C506 0.930 . S
H482 C512 0.930 . S
O483 Co472 2.093 . S
O483 C475 1.224 . S
H484 C516 0.929 . S
H485 C518 0.930 . S
H486 C519 0.930 1_655 S
H487 C517 0.929 . S
H488 C520 0.928 . S
O489 Co473 2.057 . S
O489 C477 1.232 . S
H490 C509 0.929 . S
H491 C510 0.929 . S
H492 C522 0.931 . S
H493 C514 0.929 . S
H494 C523 0.930 . S
H495 C515 0.931 . S
O496 Co472 2.097 . S
O496 C524 1.214 . S
H497 C525 0.929 . S
H498 C526 0.929 . S
H499 C527 0.930 . S
H500 C528 0.929 . S
H501 C530 0.930 . S
H502 C507 0.930 . S
H503 C511 0.930 . S
O504 Co473 2.037 . S
O504 C524 1.234 . S
C505 O479 1.269 . S
C505 O480 1.257 . S
C506 H481 0.930 . S
C506 C509 1.388 . S
C506 C511 1.418 . S
C507 H502 0.930 . S
C507 C510 1.404 . S
C507 C511 1.353 . S
N508 Co473 2.145 . S
N508 C509 1.397 . S
N508 C510 1.334 . S
C509 H490 0.929 . S
C509 C506 1.388 . S
C509 N508 1.397 . S
C510 H491 0.929 . S
C510 C507 1.404 . S
C510 N508 1.334 . S
C511 H503 0.930 . S
C511 C506 1.418 . S
C511 C507 1.353 . S
C512 H482 0.930 . S
C512 N513 1.330 . S
C512 C514 1.446 . S
N513 Co472 2.151 . S
N513 C512 1.330 . S
N513 C517 1.418 . S
C514 H493 0.929 . S
C514 C512 1.446 . S
C514 C515 1.332 . S
C515 H495 0.931 . S
C515 C514 1.332 . S
C515 C516 1.267 . S
C516 H484 0.929 . S
C516 C515 1.267 . S
C516 C517 1.251 . S
C517 H487 0.929 . S
C517 N513 1.418 . S
C517 C516 1.251 . S
C518 H485 0.930 . S
C518 C520 1.406 . S
C518 C523 1.261 . S
C519 H486 0.930 1_455 S
C519 N521 1.325 1_455 S
C519 C522 1.357 . S
C520 H488 0.928 . S
C520 C518 1.406 . S
C520 N521 1.261 1_455 S
N521 Co472 2.214 . S
N521 C519 1.325 1_655 S
N521 C520 1.261 1_655 S
C522 H492 0.931 . S
C522 C519 1.357 . S
C522 C523 1.312 . S
C523 H494 0.930 . S
C523 C518 1.261 . S
C523 C522 1.312 . S
C524 O496 1.214 . S
C524 O504 1.234 . S
C525 H497 0.929 . S
C525 C528 1.391 . S
C525 C530 1.391 . S
C526 H498 0.929 . S
C526 C527 1.390 1_556 S
C526 N529 1.391 . S
C527 H499 0.930 . S
C527 C526 1.390 1_554 S
C527 C528 1.392 . S
C528 H500 0.929 . S
C528 C525 1.391 . S
C528 C527 1.392 . S
N529 Co473 2.257 . S
N529 C526 1.391 . S
N529 C530 1.388 1_556 S
C530 H501 0.930 . S
C530 C525 1.391 . S
C530 N529 1.388 1_554 S
Co531 O533 2.143 . S
Co531 O539 2.074 . S
Co531 O542 2.093 . S
Co531 O555 2.097 . S
Co531 N572 2.151 . S
Co531 N580 2.214 . S
Co532 O533 2.160 . S
Co532 O538 2.058 . S
Co532 O548 2.057 . S
Co532 O563 2.037 . S
Co532 N567 2.145 . S
Co532 N588 2.257 . S
O533 Co531 2.143 . S
O533 Co532 2.160 . S
C534 O535 1.278 . S
C534 O542 1.224 . S
O535 C534 1.278 . S
C536 O537 1.245 . S
C536 O548 1.232 . S
O537 C536 1.245 . S
O538 Co532 2.058 . S
O538 C564 1.269 . S
O539 Co531 2.074 . S
O539 C564 1.257 . S
H540 C565 0.930 . S
H541 C571 0.930 . S
O542 Co531 2.093 . S
O542 C534 1.224 . S
H543 C575 0.929 . S
H544 C577 0.930 . S
H545 C578 0.930 . S
H546 C576 0.929 . S
H547 C579 0.928 . S
O548 Co532 2.057 . S
O548 C536 1.232 . S
H549 C568 0.929 . S
H550 C569 0.929 . S
H551 C581 0.931 . S
H552 C573 0.929 . S
H553 C582 0.930 . S
H554 C574 0.931 . S
O555 Co531 2.097 . S
O555 C583 1.214 . S
H556 C584 0.929 . S
H557 C585 0.929 . S
H558 C586 0.930 . S
H559 C587 0.929 . S
H560 C589 0.930 . S
H561 C566 0.927 1_655 S
H562 C570 0.930 . S
O563 Co532 2.037 . S
O563 C583 1.234 . S
C564 O538 1.269 . S
C564 O539 1.257 . S
C565 H540 0.930 . S
C565 C568 1.388 1_655 S
C565 C570 1.418 . S
C566 H561 0.927 1_455 S
C566 C569 1.424 . S
C566 C570 1.336 1_455 S
N567 Co532 2.145 . S
N567 C568 1.397 . S
N567 C569 1.334 . S
C568 H549 0.929 . S
C568 C565 1.388 1_455 S
C568 N567 1.397 . S
C569 H550 0.929 . S
C569 C566 1.424 . S
C569 N567 1.334 . S
C570 H562 0.930 . S
C570 C565 1.418 . S
C570 C566 1.336 1_655 S
C571 H541 0.930 . S
C571 N572 1.330 . S
C571 C573 1.446 . S
N572 Co531 2.151 . S
N572 C571 1.330 . S
N572 C576 1.418 . S
C573 H552 0.929 . S
C573 C571 1.446 . S
C573 C574 1.332 . S
C574 H554 0.931 . S
C574 C573 1.332 . S
C574 C575 1.267 . S
C575 H543 0.929 . S
C575 C574 1.267 . S
C575 C576 1.251 . S
C576 H546 0.929 . S
C576 N572 1.418 . S
C576 C575 1.251 . S
C577 H544 0.930 . S
C577 C579 1.406 . S
C577 C582 1.261 . S
C578 H545 0.930 . S
C578 N580 1.325 . S
C578 C581 1.357 . S
C579 H547 0.928 . S
C579 C577 1.406 . S
C579 N580 1.261 . S
N580 Co531 2.214 . S
N580 C578 1.325 . S
N580 C579 1.261 . S
C581 H551 0.931 . S
C581 C578 1.357 . S
C581 C582 1.312 . S
C582 H553 0.930 . S
C582 C577 1.261 . S
C582 C581 1.312 . S
C583 O555 1.214 . S
C583 O563 1.234 . S
C584 H556 0.929 . S
C584 C587 1.391 . S
C584 C589 1.391 . S
C585 H557 0.929 . S
C585 C586 1.390 . S
C585 N588 1.391 . S
C586 H558 0.930 . S
C586 C585 1.390 . S
C586 C587 1.392 . S
C587 H559 0.929 . S
C587 C584 1.391 . S
C587 C586 1.392 . S
N588 Co532 2.257 . S
N588 C585 1.391 . S
N588 C589 1.388 . S
C589 H560 0.930 . S
C589 C584 1.391 . S
C589 N588 1.388 . S
Co590 O592 2.143 . S
Co590 O598 2.074 . S
Co590 O601 2.093 . S
Co590 O614 2.097 . S
Co590 N631 2.151 . S
Co590 N639 2.214 . S
Co591 O592 2.160 . S
Co591 O597 2.058 . S
Co591 O607 2.057 . S
Co591 O622 2.037 . S
Co591 N626 2.145 . S
Co591 N647 2.257 . S
O592 Co590 2.143 . S
O592 Co591 2.160 . S
C593 O594 1.278 . S
C593 O601 1.224 . S
O594 C593 1.278 . S
C595 O596 1.245 . S
C595 O607 1.232 . S
O596 C595 1.245 . S
O597 Co591 2.058 . S
O597 C623 1.269 . S
O598 Co590 2.074 . S
O598 C623 1.257 . S
H599 C624 0.930 . S
H600 C630 0.930 . S
O601 Co590 2.093 . S
O601 C593 1.224 . S
H602 C634 0.929 . S
H603 C636 0.930 . S
H604 C637 0.930 . S
H605 C635 0.929 . S
H606 C638 0.928 . S
O607 Co591 2.057 . S
O607 C595 1.232 . S
H608 C627 0.929 . S
H609 C628 0.929 . S
H610 C640 0.931 . S
H611 C632 0.929 . S
H612 C641 0.930 . S
H613 C633 0.931 . S
O614 Co590 2.097 . S
O614 C642 1.214 . S
H615 C643 0.929 . S
H616 C644 0.929 . S
H617 C645 0.930 . S
H618 C646 0.929 . S
H619 C648 0.930 . S
H620 C625 0.930 . S
H621 C629 0.930 . S
O622 Co591 2.037 . S
O622 C642 1.234 . S
C623 O597 1.269 . S
C623 O598 1.257 . S
C624 H599 0.930 . S
C624 C627 1.388 . S
C624 C629 1.418 . S
C625 H620 0.930 . S
C625 C628 1.404 . S
C625 C629 1.353 . S
N626 Co591 2.145 . S
N626 C627 1.397 . S
N626 C628 1.334 . S
C627 H608 0.929 . S
C627 C624 1.388 . S
C627 N626 1.397 . S
C628 H609 0.929 . S
C628 C625 1.404 . S
C628 N626 1.334 . S
C629 H621 0.930 . S
C629 C624 1.418 . S
C629 C625 1.353 . S
C630 H600 0.930 . S
C630 N631 1.330 . S
C630 C632 1.446 . S
N631 Co590 2.151 . S
N631 C630 1.330 . S
N631 C635 1.418 . S
C632 H611 0.929 . S
C632 C630 1.446 . S
C632 C633 1.332 . S
C633 H613 0.931 . S
C633 C632 1.332 . S
C633 C634 1.267 . S
C634 H602 0.929 . S
C634 C633 1.267 . S
C634 C635 1.251 . S
C635 H605 0.929 . S
C635 N631 1.418 . S
C635 C634 1.251 . S
C636 H603 0.930 . S
C636 C638 1.406 . S
C636 C641 1.261 . S
C637 H604 0.930 . S
C637 N639 1.325 . S
C637 C640 1.357 . S
C638 H606 0.928 . S
C638 C636 1.406 . S
C638 N639 1.261 . S
N639 Co590 2.214 . S
N639 C637 1.325 . S
N639 C638 1.261 . S
C640 H610 0.931 . S
C640 C637 1.357 . S
C640 C641 1.312 . S
C641 H612 0.930 . S
C641 C636 1.261 . S
C641 C640 1.312 . S
C642 O614 1.214 . S
C642 O622 1.234 . S
C643 H615 0.929 . S
C643 C646 1.391 . S
C643 C648 1.391 . S
C644 H616 0.929 . S
C644 C645 1.390 . S
C644 N647 1.391 . S
C645 H617 0.930 . S
C645 C644 1.390 . S
C645 C646 1.392 . S
C646 H618 0.929 . S
C646 C643 1.391 . S
C646 C645 1.392 . S
N647 Co591 2.257 . S
N647 C644 1.391 . S
N647 C648 1.388 . S
C648 H619 0.930 . S
C648 C643 1.391 . S
C648 N647 1.388 . S
Co649 O651 2.143 . S
Co649 O657 2.074 . S
Co649 O660 2.093 . S
Co649 O673 2.097 . S
Co649 N690 2.151 . S
Co649 N698 2.214 . S
Co650 O651 2.160 . S
Co650 O656 2.058 . S
Co650 O666 2.057 . S
Co650 O681 2.037 . S
Co650 N685 2.145 . S
Co650 N706 2.257 . S
O651 Co649 2.143 . S
O651 Co650 2.160 . S
C652 O653 1.278 . S
C652 O660 1.224 . S
O653 C652 1.278 . S
C654 O655 1.245 . S
C654 O666 1.232 . S
O655 C654 1.245 . S
O656 Co650 2.058 . S
O656 C682 1.269 . S
O657 Co649 2.074 . S
O657 C682 1.257 . S
H658 C683 0.930 . S
H659 C689 0.930 . S
O660 Co649 2.093 . S
O660 C652 1.224 . S
H661 C693 0.929 . S
H662 C695 0.930 . S
H663 C696 0.930 . S
H664 C694 0.929 . S
H665 C697 0.928 . S
O666 Co650 2.057 . S
O666 C654 1.232 . S
H667 C686 0.929 . S
H668 C687 0.929 . S
H669 C699 0.931 . S
H670 C691 0.929 . S
H671 C700 0.930 . S
H672 C692 0.931 . S
O673 Co649 2.097 . S
O673 C701 1.214 . S
H674 C702 0.929 . S
H675 C703 0.929 . S
H676 C704 0.930 . S
H677 C705 0.929 . S
H678 C707 0.930 . S
H679 C684 0.930 . S
H680 C688 0.930 . S
O681 Co650 2.037 . S
O681 C701 1.234 . S
C682 O656 1.269 . S
C682 O657 1.257 . S
C683 H658 0.930 . S
C683 C686 1.388 . S
C683 C688 1.418 . S
C684 H679 0.930 . S
C684 C687 1.404 . S
C684 C688 1.353 . S
N685 Co650 2.145 . S
N685 C686 1.397 . S
N685 C687 1.334 . S
C686 H667 0.929 . S
C686 C683 1.388 . S
C686 N685 1.397 . S
C687 H668 0.929 . S
C687 C684 1.404 . S
C687 N685 1.334 . S
C688 H680 0.930 . S
C688 C683 1.418 . S
C688 C684 1.353 . S
C689 H659 0.930 . S
C689 N690 1.330 . S
C689 C691 1.446 . S
N690 Co649 2.151 . S
N690 C689 1.330 . S
N690 C694 1.418 . S
C691 H670 0.929 . S
C691 C689 1.446 . S
C691 C692 1.332 . S
C692 H672 0.931 . S
C692 C691 1.332 . S
C692 C693 1.267 . S
C693 H661 0.929 . S
C693 C692 1.267 . S
C693 C694 1.251 . S
C694 H664 0.929 . S
C694 N690 1.418 . S
C694 C693 1.251 . S
C695 H662 0.930 . S
C695 C697 1.406 . S
C695 C700 1.261 . S
C696 H663 0.930 . S
C696 N698 1.325 . S
C696 C699 1.357 . S
C697 H665 0.928 . S
C697 C695 1.406 . S
C697 N698 1.261 . S
N698 Co649 2.214 . S
N698 C696 1.325 . S
N698 C697 1.261 . S
C699 H669 0.931 . S
C699 C696 1.357 . S
C699 C700 1.312 . S
C700 H671 0.930 . S
C700 C695 1.261 . S
C700 C699 1.312 . S
C701 O673 1.214 . S
C701 O681 1.234 . S
C702 H674 0.929 . S
C702 C705 1.391 . S
C702 C707 1.391 . S
C703 H675 0.929 . S
C703 C704 1.390 . S
C703 N706 1.391 . S
C704 H676 0.930 . S
C704 C703 1.390 . S
C704 C705 1.392 . S
C705 H677 0.929 . S
C705 C702 1.391 . S
C705 C704 1.392 . S
N706 Co650 2.257 . S
N706 C703 1.391 . S
N706 C707 1.388 . S
C707 H678 0.930 . S
C707 C702 1.391 . S
C707 N706 1.388 . S
Co708 O710 2.143 . S
Co708 O716 2.074 . S
Co708 O719 2.093 . S
Co708 O732 2.097 . S
Co708 N749 2.151 . S
Co708 N757 2.214 . S
Co709 O710 2.160 . S
Co709 O715 2.058 . S
Co709 O725 2.057 . S
Co709 O740 2.037 . S
Co709 N744 2.145 . S
Co709 N765 2.257 . S
O710 Co708 2.143 . S
O710 Co709 2.160 . S
C711 O712 1.278 . S
C711 O719 1.224 . S
O712 C711 1.278 . S
C713 O714 1.245 . S
C713 O725 1.232 . S
O714 C713 1.245 . S
O715 Co709 2.058 . S
O715 C741 1.269 . S
O716 Co708 2.074 . S
O716 C741 1.257 . S
H717 C742 0.930 . S
H718 C748 0.930 . S
O719 Co708 2.093 . S
O719 C711 1.224 . S
H720 C752 0.929 . S
H721 C754 0.930 . S
H722 C755 0.930 1_655 S
H723 C753 0.929 . S
H724 C756 0.928 . S
O725 Co709 2.057 . S
O725 C713 1.232 . S
H726 C745 0.929 . S
H727 C746 0.929 . S
H728 C758 0.931 . S
H729 C750 0.929 . S
H730 C759 0.930 . S
H731 C751 0.931 . S
O732 Co708 2.097 . S
O732 C760 1.214 . S
H733 C761 0.929 . S
H734 C762 0.929 . S
H735 C763 0.930 . S
H736 C764 0.929 . S
H737 C766 0.930 . S
H738 C743 0.930 . S
H739 C747 0.930 . S
O740 Co709 2.037 . S
O740 C760 1.234 . S
C741 O715 1.269 . S
C741 O716 1.257 . S
C742 H717 0.930 . S
C742 C745 1.388 . S
C742 C747 1.418 . S
C743 H738 0.930 . S
C743 C746 1.404 . S
C743 C747 1.353 . S
N744 Co709 2.145 . S
N744 C745 1.397 . S
N744 C746 1.334 . S
C745 H726 0.929 . S
C745 C742 1.388 . S
C745 N744 1.397 . S
C746 H727 0.929 . S
C746 C743 1.404 . S
C746 N744 1.334 . S
C747 H739 0.930 . S
C747 C742 1.418 . S
C747 C743 1.353 . S
C748 H718 0.930 . S
C748 N749 1.330 . S
C748 C750 1.446 . S
N749 Co708 2.151 . S
N749 C748 1.330 . S
N749 C753 1.418 . S
C750 H729 0.929 . S
C750 C748 1.446 . S
C750 C751 1.332 . S
C751 H731 0.931 . S
C751 C750 1.332 . S
C751 C752 1.267 . S
C752 H720 0.929 . S
C752 C751 1.267 . S
C752 C753 1.251 . S
C753 H723 0.929 . S
C753 N749 1.418 . S
C753 C752 1.251 . S
C754 H721 0.930 . S
C754 C756 1.406 . S
C754 C759 1.261 . S
C755 H722 0.930 1_455 S
C755 N757 1.325 1_455 S
C755 C758 1.357 . S
C756 H724 0.928 . S
C756 C754 1.406 . S
C756 N757 1.261 1_455 S
N757 Co708 2.214 . S
N757 C755 1.325 1_655 S
N757 C756 1.261 1_655 S
C758 H728 0.931 . S
C758 C755 1.357 . S
C758 C759 1.312 . S
C759 H730 0.930 . S
C759 C754 1.261 . S
C759 C758 1.312 . S
C760 O732 1.214 . S
C760 O740 1.234 . S
C761 H733 0.929 . S
C761 C764 1.391 . S
C761 C766 1.391 . S
C762 H734 0.929 . S
C762 C763 1.390 . S
C762 N765 1.391 . S
C763 H735 0.930 . S
C763 C762 1.390 . S
C763 C764 1.392 . S
C764 H736 0.929 . S
C764 C761 1.391 . S
C764 C763 1.392 . S
N765 Co709 2.257 . S
N765 C762 1.391 . S
N765 C766 1.388 . S
C766 H737 0.930 . S
C766 C761 1.391 . S
C766 N765 1.388 . S
Co767 O769 2.143 . S
Co767 O775 2.074 . S
Co767 O778 2.093 . S
Co767 O791 2.097 . S
Co767 N808 2.151 . S
Co767 N816 2.214 . S
Co768 O769 2.160 . S
Co768 O774 2.058 . S
Co768 O784 2.057 . S
Co768 O799 2.037 . S
Co768 N803 2.145 . S
Co768 N824 2.257 . S
O769 Co767 2.143 . S
O769 Co768 2.160 . S
C770 O771 1.278 . S
C770 O778 1.224 . S
O771 C770 1.278 . S
C772 O773 1.245 . S
C772 O784 1.232 . S
O773 C772 1.245 . S
O774 Co768 2.058 . S
O774 C800 1.269 . S
O775 Co767 2.074 . S
O775 C800 1.257 . S
H776 C801 0.930 . S
H777 C807 0.930 . S
O778 Co767 2.093 . S
O778 C770 1.224 . S
H779 C811 0.929 . S
H780 C813 0.930 . S
H781 C814 0.930 . S
H782 C812 0.929 . S
H783 C815 0.928 . S
O784 Co768 2.057 . S
O784 C772 1.232 . S
H785 C804 0.929 . S
H786 C805 0.929 . S
H787 C817 0.931 . S
H788 C809 0.929 . S
H789 C818 0.930 . S
H790 C810 0.931 . S
O791 Co767 2.097 . S
O791 C819 1.214 . S
H792 C820 0.929 . S
H793 C821 0.929 . S
H794 C822 0.930 . S
H795 C823 0.929 . S
H796 C825 0.930 . S
H797 C802 0.930 . S
H798 C806 0.930 . S
O799 Co768 2.037 . S
O799 C819 1.234 . S
C800 O774 1.269 . S
C800 O775 1.257 . S
C801 H776 0.930 . S
C801 C804 1.388 . S
C801 C806 1.418 . S
C802 H797 0.930 . S
C802 C805 1.404 . S
C802 C806 1.353 . S
N803 Co768 2.145 . S
N803 C804 1.397 . S
N803 C805 1.334 . S
C804 H785 0.929 . S
C804 C801 1.388 . S
C804 N803 1.397 . S
C805 H786 0.929 . S
C805 C802 1.404 . S
C805 N803 1.334 . S
C806 H798 0.930 . S
C806 C801 1.418 . S
C806 C802 1.353 . S
C807 H777 0.930 . S
C807 N808 1.330 . S
C807 C809 1.446 . S
N808 Co767 2.151 . S
N808 C807 1.330 . S
N808 C812 1.418 . S
C809 H788 0.929 . S
C809 C807 1.446 . S
C809 C810 1.332 . S
C810 H790 0.931 . S
C810 C809 1.332 . S
C810 C811 1.267 . S
C811 H779 0.929 . S
C811 C810 1.267 . S
C811 C812 1.251 . S
C812 H782 0.929 . S
C812 N808 1.418 . S
C812 C811 1.251 . S
C813 H780 0.930 . S
C813 C815 1.406 . S
C813 C818 1.261 . S
C814 H781 0.930 . S
C814 N816 1.325 . S
C814 C817 1.357 . S
C815 H783 0.928 . S
C815 C813 1.406 . S
C815 N816 1.261 . S
N816 Co767 2.214 . S
N816 C814 1.325 . S
N816 C815 1.261 . S
C817 H787 0.931 . S
C817 C814 1.357 . S
C817 C818 1.312 . S
C818 H789 0.930 . S
C818 C813 1.261 . S
C818 C817 1.312 . S
C819 O791 1.214 . S
C819 O799 1.234 . S
C820 H792 0.929 . S
C820 C823 1.391 . S
C820 C825 1.391 . S
C821 H793 0.929 . S
C821 C822 1.390 . S
C821 N824 1.391 . S
C822 H794 0.930 . S
C822 C821 1.390 . S
C822 C823 1.392 . S
C823 H795 0.929 . S
C823 C820 1.391 . S
C823 C822 1.392 . S
N824 Co768 2.257 . S
N824 C821 1.391 . S
N824 C825 1.388 . S
C825 H796 0.930 . S
C825 C820 1.391 . S
C825 N824 1.388 . S
Co826 O828 2.143 . S
Co826 O834 2.074 . S
Co826 O837 2.093 . S
Co826 O850 2.097 . S
Co826 N867 2.151 . S
Co826 N875 2.214 . S
Co827 O828 2.160 . S
Co827 O833 2.058 . S
Co827 O843 2.057 . S
Co827 O858 2.037 . S
Co827 N862 2.145 . S
Co827 N883 2.257 . S
O828 Co826 2.143 . S
O828 Co827 2.160 . S
C829 O830 1.278 . S
C829 O837 1.224 . S
O830 C829 1.278 . S
C831 O832 1.245 . S
C831 O843 1.232 . S
O832 C831 1.245 . S
O833 Co827 2.058 . S
O833 C859 1.269 . S
O834 Co826 2.074 . S
O834 C859 1.257 . S
H835 C860 0.930 . S
H836 C866 0.930 . S
O837 Co826 2.093 . S
O837 C829 1.224 . S
H838 C870 0.929 . S
H839 C872 0.930 . S
H840 C873 0.930 . S
H841 C871 0.929 . S
H842 C874 0.928 . S
O843 Co827 2.057 . S
O843 C831 1.232 . S
H844 C863 0.929 . S
H845 C864 0.929 . S
H846 C876 0.931 . S
H847 C868 0.929 . S
H848 C877 0.930 . S
H849 C869 0.931 . S
O850 Co826 2.097 . S
O850 C878 1.214 . S
H851 C879 0.929 . S
H852 C880 0.929 . S
H853 C881 0.930 . S
H854 C882 0.929 . S
H855 C884 0.930 . S
H856 C861 0.930 . S
H857 C865 0.930 . S
O858 Co827 2.037 . S
O858 C878 1.234 . S
C859 O833 1.269 . S
C859 O834 1.257 . S
C860 H835 0.930 . S
C860 C863 1.388 . S
C860 C865 1.418 . S
C861 H856 0.930 . S
C861 C864 1.404 . S
C861 C865 1.353 . S
N862 Co827 2.145 . S
N862 C863 1.397 . S
N862 C864 1.334 . S
C863 H844 0.929 . S
C863 C860 1.388 . S
C863 N862 1.397 . S
C864 H845 0.929 . S
C864 C861 1.404 . S
C864 N862 1.334 . S
C865 H857 0.930 . S
C865 C860 1.418 . S
C865 C861 1.353 . S
C866 H836 0.930 . S
C866 N867 1.330 . S
C866 C868 1.446 . S
N867 Co826 2.151 . S
N867 C866 1.330 . S
N867 C871 1.418 . S
C868 H847 0.929 . S
C868 C866 1.446 . S
C868 C869 1.332 . S
C869 H849 0.931 . S
C869 C868 1.332 . S
C869 C870 1.267 . S
C870 H838 0.929 . S
C870 C869 1.267 . S
C870 C871 1.251 . S
C871 H841 0.929 . S
C871 N867 1.418 . S
C871 C870 1.251 . S
C872 H839 0.930 . S
C872 C874 1.406 . S
C872 C877 1.261 . S
C873 H840 0.930 . S
C873 N875 1.325 . S
C873 C876 1.357 . S
C874 H842 0.928 . S
C874 C872 1.406 . S
C874 N875 1.261 . S
N875 Co826 2.214 . S
N875 C873 1.325 . S
N875 C874 1.261 . S
C876 H846 0.931 . S
C876 C873 1.357 . S
C876 C877 1.312 . S
C877 H848 0.930 . S
C877 C872 1.261 . S
C877 C876 1.312 . S
C878 O850 1.214 . S
C878 O858 1.234 . S
C879 H851 0.929 . S
C879 C882 1.391 . S
C879 C884 1.391 . S
C880 H852 0.929 . S
C880 C881 1.390 1_554 S
C880 N883 1.391 . S
C881 H853 0.930 . S
C881 C880 1.390 1_556 S
C881 C882 1.392 . S
C882 H854 0.929 . S
C882 C879 1.391 . S
C882 C881 1.392 . S
N883 Co827 2.257 . S
N883 C880 1.391 . S
N883 C884 1.388 1_554 S
C884 H855 0.930 . S
C884 C879 1.391 . S
C884 N883 1.388 1_556 S
Co885 O887 2.143 . S
Co885 O893 2.074 . S
Co885 O896 2.093 . S
Co885 O909 2.097 . S
Co885 N926 2.151 . S
Co885 N934 2.214 . S
Co886 O887 2.160 . S
Co886 O892 2.058 . S
Co886 O902 2.057 . S
Co886 O917 2.037 . S
Co886 N921 2.145 . S
Co886 N942 2.257 . S
O887 Co885 2.143 . S
O887 Co886 2.160 . S
C888 O889 1.278 . S
C888 O896 1.224 . S
O889 C888 1.278 . S
C890 O891 1.245 . S
C890 O902 1.232 . S
O891 C890 1.245 . S
O892 Co886 2.058 . S
O892 C918 1.269 . S
O893 Co885 2.074 . S
O893 C918 1.257 . S
H894 C919 0.930 . S
H895 C925 0.930 . S
O896 Co885 2.093 . S
O896 C888 1.224 . S
H897 C929 0.929 . S
H898 C931 0.930 . S
H899 C932 0.930 . S
H900 C930 0.929 . S
H901 C933 0.928 . S
O902 Co886 2.057 . S
O902 C890 1.232 . S
H903 C922 0.929 . S
H904 C923 0.929 . S
H905 C935 0.931 . S
H906 C927 0.929 . S
H907 C936 0.930 . S
H908 C928 0.931 . S
O909 Co885 2.097 . S
O909 C937 1.214 . S
H910 C938 0.929 . S
H911 C939 0.929 . S
H912 C940 0.930 . S
H913 C941 0.929 . S
H914 C943 0.930 . S
H915 C920 0.927 1_655 S
H916 C924 0.930 . S
O917 Co886 2.037 . S
O917 C937 1.234 . S
C918 O892 1.269 . S
C918 O893 1.257 . S
C919 H894 0.930 . S
C919 C922 1.388 1_655 S
C919 C924 1.418 . S
C920 H915 0.927 1_455 S
C920 C923 1.424 . S
C920 C924 1.336 1_455 S
N921 Co886 2.145 . S
N921 C922 1.397 . S
N921 C923 1.334 . S
C922 H903 0.929 . S
C922 C919 1.388 1_455 S
C922 N921 1.397 . S
C923 H904 0.929 . S
C923 C920 1.424 . S
C923 N921 1.334 . S
C924 H916 0.930 . S
C924 C919 1.418 . S
C924 C920 1.336 1_655 S
C925 H895 0.930 . S
C925 N926 1.330 . S
C925 C927 1.446 . S
N926 Co885 2.151 . S
N926 C925 1.330 . S
N926 C930 1.418 . S
C927 H906 0.929 . S
C927 C925 1.446 . S
C927 C928 1.332 . S
C928 H908 0.931 . S
C928 C927 1.332 . S
C928 C929 1.267 . S
C929 H897 0.929 . S
C929 C928 1.267 . S
C929 C930 1.251 . S
C930 H900 0.929 . S
C930 N926 1.418 . S
C930 C929 1.251 . S
C931 H898 0.930 . S
C931 C933 1.406 . S
C931 C936 1.261 . S
C932 H899 0.930 . S
C932 N934 1.325 . S
C932 C935 1.357 . S
C933 H901 0.928 . S
C933 C931 1.406 . S
C933 N934 1.261 . S
N934 Co885 2.214 . S
N934 C932 1.325 . S
N934 C933 1.261 . S
C935 H905 0.931 . S
C935 C932 1.357 . S
C935 C936 1.312 . S
C936 H907 0.930 . S
C936 C931 1.261 . S
C936 C935 1.312 . S
C937 O909 1.214 . S
C937 O917 1.234 . S
C938 H910 0.929 . S
C938 C941 1.391 . S
C938 C943 1.391 . S
C939 H911 0.929 . S
C939 C940 1.390 . S
C939 N942 1.391 . S
C940 H912 0.930 . S
C940 C939 1.390 . S
C940 C941 1.392 . S
C941 H913 0.929 . S
C941 C938 1.391 . S
C941 C940 1.392 . S
N942 Co886 2.257 . S
N942 C939 1.391 . S
N942 C943 1.388 . S
C943 H914 0.930 . S
C943 C938 1.391 . S
C943 N942 1.388 . S
Co944 O946 2.143 . S
Co944 O952 2.074 . S
Co944 O955 2.093 . S
Co944 O968 2.097 . S
Co944 N985 2.151 . S
Co944 N993 2.214 . S
Co945 O946 2.160 . S
Co945 O951 2.058 . S
Co945 O961 2.057 . S
Co945 O976 2.037 . S
Co945 N980 2.145 . S
Co945 N1001 2.257 . S
O946 Co944 2.143 . S
O946 Co945 2.160 . S
C947 O948 1.278 . S
C947 O955 1.224 . S
O948 C947 1.278 . S
C949 O950 1.245 . S
C949 O961 1.232 . S
O950 C949 1.245 . S
O951 Co945 2.058 . S
O951 C977 1.269 . S
O952 Co944 2.074 . S
O952 C977 1.257 . S
H953 C978 0.930 . S
H954 C984 0.930 . S
O955 Co944 2.093 . S
O955 C947 1.224 . S
H956 C988 0.933 . S
H957 C990 0.930 . S
H958 C991 0.930 . S
H959 C989 0.929 . S
H960 C992 0.928 . S
O961 Co945 2.057 . S
O961 C949 1.232 . S
H962 C981 0.929 . S
H963 C982 0.929 . S
H964 C994 0.931 . S
H965 C986 0.929 . S
H966 C995 0.930 . S
H967 C987 0.931 . S
O968 Co944 2.097 . S
O968 C996 1.214 . S
H969 C997 0.929 . S
H970 C998 0.929 . S
H971 C999 0.930 . S
H972 C1000 0.929 . S
H973 C1002 0.930 . S
H974 C979 0.930 . S
H975 C983 0.930 . S
O976 Co945 2.037 . S
O976 C996 1.234 . S
C977 O951 1.269 . S
C977 O952 1.257 . S
C978 H953 0.930 . S
C978 C981 1.388 . S
C978 C983 1.418 . S
C979 H974 0.930 . S
C979 C982 1.404 . S
C979 C983 1.353 . S
N980 Co945 2.145 . S
N980 C981 1.397 . S
N980 C982 1.334 . S
C981 H962 0.929 . S
C981 C978 1.388 . S
C981 N980 1.397 . S
C982 H963 0.929 . S
C982 C979 1.404 . S
C982 N980 1.334 . S
C983 H975 0.930 . S
C983 C978 1.418 . S
C983 C979 1.353 . S
C984 H954 0.930 . S
C984 N985 1.330 . S
C984 C986 1.446 1_565 S
N985 Co944 2.151 . S
N985 C984 1.330 . S
N985 C989 1.418 . S
C986 H965 0.929 . S
C986 C984 1.446 1_545 S
C986 C987 1.332 . S
C987 H967 0.931 . S
C987 C986 1.332 . S
C987 C988 1.281 . S
C988 H956 0.933 . S
C988 C987 1.281 . S
C988 C989 1.234 1_545 S
C989 H959 0.929 . S
C989 N985 1.418 . S
C989 C988 1.234 1_565 S
C990 H957 0.930 . S
C990 C992 1.406 . S
C990 C995 1.261 . S
C991 H958 0.930 . S
C991 N993 1.325 . S
C991 C994 1.357 . S
C992 H960 0.928 . S
C992 C990 1.406 . S
C992 N993 1.261 . S
N993 Co944 2.214 . S
N993 C991 1.325 . S
N993 C992 1.261 . S
C994 H964 0.931 . S
C994 C991 1.357 . S
C994 C995 1.312 . S
C995 H966 0.930 . S
C995 C990 1.261 . S
C995 C994 1.312 . S
C996 O968 1.214 . S
C996 O976 1.234 . S
C997 H969 0.929 . S
C997 C1000 1.391 . S
C997 C1002 1.391 . S
C998 H970 0.929 . S
C998 C999 1.390 . S
C998 N1001 1.391 . S
C999 H971 0.930 . S
C999 C998 1.390 . S
C999 C1000 1.392 . S
C1000 H972 0.929 . S
C1000 C997 1.391 . S
C1000 C999 1.392 . S
N1001 Co945 2.257 . S
N1001 C998 1.391 . S
N1001 C1002 1.388 . S
C1002 H973 0.930 . S
C1002 C997 1.391 . S
C1002 N1001 1.388 . S
Co1003 O1005 2.143 . S
Co1003 O1011 2.074 . S
Co1003 O1014 2.093 . S
Co1003 O1027 2.097 . S
Co1003 N1044 2.151 . S
Co1003 N1052 2.214 . S
Co1004 O1005 2.160 . S
Co1004 O1010 2.058 . S
Co1004 O1020 2.057 . S
Co1004 O1035 2.037 . S
Co1004 N1039 2.145 . S
Co1004 N1060 2.257 . S
O1005 Co1003 2.143 . S
O1005 Co1004 2.160 . S
C1006 O1007 1.278 . S
C1006 O1014 1.224 . S
O1007 C1006 1.278 . S
C1008 O1009 1.245 . S
C1008 O1020 1.232 . S
O1009 C1008 1.245 . S
O1010 Co1004 2.058 . S
O1010 C1036 1.269 . S
O1011 Co1003 2.074 . S
O1011 C1036 1.257 . S
H1012 C1037 0.930 . S
H1013 C1043 0.930 . S
O1014 Co1003 2.093 . S
O1014 C1006 1.224 . S
H1015 C1047 0.929 . S
H1016 C1049 0.930 . S
H1017 C1050 0.930 . S
H1018 C1048 0.929 . S
H1019 C1051 0.928 . S
O1020 Co1004 2.057 . S
O1020 C1008 1.232 . S
H1021 C1040 0.929 . S
H1022 C1041 0.929 . S
H1023 C1053 0.931 . S
H1024 C1045 0.929 . S
H1025 C1054 0.930 . S
H1026 C1046 0.931 . S
O1027 Co1003 2.097 . S
O1027 C1055 1.214 . S
H1028 C1056 0.929 . S
H1029 C1057 0.929 . S
H1030 C1058 0.930 . S
H1031 C1059 0.929 . S
H1032 C1061 0.930 . S
H1033 C1038 0.930 . S
H1034 C1042 0.930 . S
O1035 Co1004 2.037 . S
O1035 C1055 1.234 . S
C1036 O1010 1.269 . S
C1036 O1011 1.257 . S
C1037 H1012 0.930 . S
C1037 C1040 1.388 . S
C1037 C1042 1.418 . S
C1038 H1033 0.930 . S
C1038 C1041 1.404 . S
C1038 C1042 1.353 . S
N1039 Co1004 2.145 . S
N1039 C1040 1.397 . S
N1039 C1041 1.334 . S
C1040 H1021 0.929 . S
C1040 C1037 1.388 . S
C1040 N1039 1.397 . S
C1041 H1022 0.929 . S
C1041 C1038 1.404 . S
C1041 N1039 1.334 . S
C1042 H1034 0.930 . S
C1042 C1037 1.418 . S
C1042 C1038 1.353 . S
C1043 H1013 0.930 . S
C1043 N1044 1.330 . S
C1043 C1045 1.446 . S
N1044 Co1003 2.151 . S
N1044 C1043 1.330 . S
N1044 C1048 1.418 . S
C1045 H1024 0.929 . S
C1045 C1043 1.446 . S
C1045 C1046 1.332 . S
C1046 H1026 0.931 . S
C1046 C1045 1.332 . S
C1046 C1047 1.267 . S
C1047 H1015 0.929 . S
C1047 C1046 1.267 . S
C1047 C1048 1.251 . S
C1048 H1018 0.929 . S
C1048 N1044 1.418 . S
C1048 C1047 1.251 . S
C1049 H1016 0.930 . S
C1049 C1051 1.406 . S
C1049 C1054 1.261 . S
C1050 H1017 0.930 . S
C1050 N1052 1.325 . S
C1050 C1053 1.357 . S
C1051 H1019 0.928 . S
C1051 C1049 1.406 . S
C1051 N1052 1.261 . S
N1052 Co1003 2.214 . S
N1052 C1050 1.325 . S
N1052 C1051 1.261 . S
C1053 H1023 0.931 . S
C1053 C1050 1.357 . S
C1053 C1054 1.312 . S
C1054 H1025 0.930 . S
C1054 C1049 1.261 . S
C1054 C1053 1.312 . S
C1055 O1027 1.214 . S
C1055 O1035 1.234 . S
C1056 H1028 0.929 . S
C1056 C1059 1.391 . S
C1056 C1061 1.391 . S
C1057 H1029 0.929 . S
C1057 C1058 1.390 . S
C1057 N1060 1.391 . S
C1058 H1030 0.930 . S
C1058 C1057 1.390 . S
C1058 C1059 1.392 . S
C1059 H1031 0.929 . S
C1059 C1056 1.391 . S
C1059 C1058 1.392 . S
N1060 Co1004 2.257 . S
N1060 C1057 1.391 . S
N1060 C1061 1.388 . S
C1061 H1032 0.930 . S
C1061 C1056 1.391 . S
C1061 N1060 1.388 . S
Co1062 O1064 2.143 . S
Co1062 O1070 2.074 . S
Co1062 O1073 2.093 . S
Co1062 O1086 2.097 . S
Co1062 N1103 2.151 . S
Co1062 N1111 2.214 . S
Co1063 O1064 2.160 . S
Co1063 O1069 2.058 . S
Co1063 O1079 2.057 . S
Co1063 O1094 2.037 . S
Co1063 N1098 2.145 . S
Co1063 N1119 2.257 . S
O1064 Co1062 2.143 . S
O1064 Co1063 2.160 . S
C1065 O1066 1.278 . S
C1065 O1073 1.224 . S
O1066 C1065 1.278 . S
C1067 O1068 1.245 . S
C1067 O1079 1.232 . S
O1068 C1067 1.245 . S
O1069 Co1063 2.058 . S
O1069 C1095 1.269 . S
O1070 Co1062 2.074 . S
O1070 C1095 1.257 . S
H1071 C1096 0.930 . S
H1072 C1102 0.930 . S
O1073 Co1062 2.093 . S
O1073 C1065 1.224 . S
H1074 C1106 0.933 . S
H1075 C1108 0.930 . S
H1076 C1109 0.930 1_655 S
H1077 C1107 0.929 . S
H1078 C1110 0.928 . S
O1079 Co1063 2.057 . S
O1079 C1067 1.232 . S
H1080 C1099 0.929 . S
H1081 C1100 0.929 . S
H1082 C1112 0.931 . S
H1083 C1104 0.929 . S
H1084 C1113 0.930 . S
H1085 C1105 0.931 . S
O1086 Co1062 2.097 . S
O1086 C1114 1.214 . S
H1087 C1115 0.929 . S
H1088 C1116 0.929 . S
H1089 C1117 0.930 . S
H1090 C1118 0.929 . S
H1091 C1120 0.930 . S
H1092 C1097 0.930 . S
H1093 C1101 0.930 . S
O1094 Co1063 2.037 . S
O1094 C1114 1.234 . S
C1095 O1069 1.269 . S
C1095 O1070 1.257 . S
C1096 H1071 0.930 . S
C1096 C1099 1.388 . S
C1096 C1101 1.418 . S
C1097 H1092 0.930 . S
C1097 C1100 1.404 . S
C1097 C1101 1.353 . S
N1098 Co1063 2.145 . S
N1098 C1099 1.397 . S
N1098 C1100 1.334 . S
C1099 H1080 0.929 . S
C1099 C1096 1.388 . S
C1099 N1098 1.397 . S
C1100 H1081 0.929 . S
C1100 C1097 1.404 . S
C1100 N1098 1.334 . S
C1101 H1093 0.930 . S
C1101 C1096 1.418 . S
C1101 C1097 1.353 . S
C1102 H1072 0.930 . S
C1102 N1103 1.330 . S
C1102 C1104 1.446 1_545 S
N1103 Co1062 2.151 . S
N1103 C1102 1.330 . S
N1103 C1107 1.418 . S
C1104 H1083 0.929 . S
C1104 C1102 1.446 1_565 S
C1104 C1105 1.332 . S
C1105 H1085 0.931 . S
C1105 C1104 1.332 . S
C1105 C1106 1.281 . S
C1106 H1074 0.933 . S
C1106 C1105 1.281 . S
C1106 C1107 1.234 1_565 S
C1107 H1077 0.929 . S
C1107 N1103 1.418 . S
C1107 C1106 1.234 1_545 S
C1108 H1075 0.930 . S
C1108 C1110 1.406 . S
C1108 C1113 1.261 . S
C1109 H1076 0.930 1_455 S
C1109 N1111 1.325 1_455 S
C1109 C1112 1.357 . S
C1110 H1078 0.928 . S
C1110 C1108 1.406 . S
C1110 N1111 1.261 1_455 S
N1111 Co1062 2.214 . S
N1111 C1109 1.325 1_655 S
N1111 C1110 1.261 1_655 S
C1112 H1082 0.931 . S
C1112 C1109 1.357 . S
C1112 C1113 1.312 . S
C1113 H1084 0.930 . S
C1113 C1108 1.261 . S
C1113 C1112 1.312 . S
C1114 O1086 1.214 . S
C1114 O1094 1.234 . S
C1115 H1087 0.929 . S
C1115 C1118 1.391 . S
C1115 C1120 1.391 . S
C1116 H1088 0.929 . S
C1116 C1117 1.390 1_554 S
C1116 N1119 1.391 . S
C1117 H1089 0.930 . S
C1117 C1116 1.390 1_556 S
C1117 C1118 1.392 . S
C1118 H1090 0.929 . S
C1118 C1115 1.391 . S
C1118 C1117 1.392 . S
N1119 Co1063 2.257 . S
N1119 C1116 1.391 . S
N1119 C1120 1.388 1_554 S
C1120 H1091 0.930 . S
C1120 C1115 1.391 . S
C1120 N1119 1.388 1_556 S
Co1121 O1123 2.143 . S
Co1121 O1129 2.074 . S
Co1121 O1132 2.093 . S
Co1121 O1145 2.097 . S
Co1121 N1162 2.151 . S
Co1121 N1170 2.214 . S
Co1122 O1123 2.160 . S
Co1122 O1128 2.058 . S
Co1122 O1138 2.057 . S
Co1122 O1153 2.037 . S
Co1122 N1157 2.145 . S
Co1122 N1178 2.257 . S
O1123 Co1121 2.143 . S
O1123 Co1122 2.160 . S
C1124 O1125 1.278 . S
C1124 O1132 1.224 . S
O1125 C1124 1.278 . S
C1126 O1127 1.245 . S
C1126 O1138 1.232 . S
O1127 C1126 1.245 . S
O1128 Co1122 2.058 . S
O1128 C1154 1.269 . S
O1129 Co1121 2.074 . S
O1129 C1154 1.257 . S
H1130 C1155 0.930 . S
H1131 C1161 0.930 . S
O1132 Co1121 2.093 . S
O1132 C1124 1.224 . S
H1133 C1165 0.929 . S
H1134 C1167 0.930 . S
H1135 C1168 0.930 . S
H1136 C1166 0.929 . S
H1137 C1169 0.928 . S
O1138 Co1122 2.057 . S
O1138 C1126 1.232 . S
H1139 C1158 0.929 . S
H1140 C1159 0.929 . S
H1141 C1171 0.931 . S
H1142 C1163 0.929 . S
H1143 C1172 0.930 . S
H1144 C1164 0.931 . S
O1145 Co1121 2.097 . S
O1145 C1173 1.214 . S
H1146 C1174 0.929 . S
H1147 C1175 0.929 . S
H1148 C1176 0.930 . S
H1149 C1177 0.929 . S
H1150 C1179 0.930 . S
H1151 C1156 0.927 1_655 S
H1152 C1160 0.930 . S
O1153 Co1122 2.037 . S
O1153 C1173 1.234 . S
C1154 O1128 1.269 . S
C1154 O1129 1.257 . S
C1155 H1130 0.930 . S
C1155 C1158 1.388 1_655 S
C1155 C1160 1.418 . S
C1156 H1151 0.927 1_455 S
C1156 C1159 1.424 . S
C1156 C1160 1.336 1_455 S
N1157 Co1122 2.145 . S
N1157 C1158 1.397 . S
N1157 C1159 1.334 . S
C1158 H1139 0.929 . S
C1158 C1155 1.388 1_455 S
C1158 N1157 1.397 . S
C1159 H1140 0.929 . S
C1159 C1156 1.424 . S
C1159 N1157 1.334 . S
C1160 H1152 0.930 . S
C1160 C1155 1.418 . S
C1160 C1156 1.336 1_655 S
C1161 H1131 0.930 . S
C1161 N1162 1.330 . S
C1161 C1163 1.446 . S
N1162 Co1121 2.151 . S
N1162 C1161 1.330 . S
N1162 C1166 1.418 . S
C1163 H1142 0.929 . S
C1163 C1161 1.446 . S
C1163 C1164 1.332 . S
C1164 H1144 0.931 . S
C1164 C1163 1.332 . S
C1164 C1165 1.267 . S
C1165 H1133 0.929 . S
C1165 C1164 1.267 . S
C1165 C1166 1.251 . S
C1166 H1136 0.929 . S
C1166 N1162 1.418 . S
C1166 C1165 1.251 . S
C1167 H1134 0.930 . S
C1167 C1169 1.406 . S
C1167 C1172 1.261 . S
C1168 H1135 0.930 . S
C1168 N1170 1.325 . S
C1168 C1171 1.357 . S
C1169 H1137 0.928 . S
C1169 C1167 1.406 . S
C1169 N1170 1.261 . S
N1170 Co1121 2.214 . S
N1170 C1168 1.325 . S
N1170 C1169 1.261 . S
C1171 H1141 0.931 . S
C1171 C1168 1.357 . S
C1171 C1172 1.312 . S
C1172 H1143 0.930 . S
C1172 C1167 1.261 . S
C1172 C1171 1.312 . S
C1173 O1145 1.214 . S
C1173 O1153 1.234 . S
C1174 H1146 0.929 . S
C1174 C1177 1.391 . S
C1174 C1179 1.391 . S
C1175 H1147 0.929 . S
C1175 C1176 1.390 . S
C1175 N1178 1.391 . S
C1176 H1148 0.930 . S
C1176 C1175 1.390 . S
C1176 C1177 1.392 . S
C1177 H1149 0.929 . S
C1177 C1174 1.391 . S
C1177 C1176 1.392 . S
N1178 Co1122 2.257 . S
N1178 C1175 1.391 . S
N1178 C1179 1.388 . S
C1179 H1150 0.930 . S
C1179 C1174 1.391 . S
C1179 N1178 1.388 . S
Co1180 O1182 2.143 . S
Co1180 O1188 2.074 . S
Co1180 O1191 2.093 . S
Co1180 O1204 2.097 . S
Co1180 N1221 2.151 . S
Co1180 N1229 2.214 . S
Co1181 O1182 2.160 . S
Co1181 O1187 2.058 . S
Co1181 O1197 2.057 . S
Co1181 O1212 2.037 . S
Co1181 N1216 2.145 . S
Co1181 N1237 2.257 . S
O1182 Co1180 2.143 . S
O1182 Co1181 2.160 . S
C1183 O1184 1.278 . S
C1183 O1191 1.224 . S
O1184 C1183 1.278 . S
C1185 O1186 1.245 . S
C1185 O1197 1.232 . S
O1186 C1185 1.245 . S
O1187 Co1181 2.058 . S
O1187 C1213 1.269 . S
O1188 Co1180 2.074 . S
O1188 C1213 1.257 . S
H1189 C1214 0.930 . S
H1190 C1220 0.930 . S
O1191 Co1180 2.093 . S
O1191 C1183 1.224 . S
H1192 C1224 0.933 . S
H1193 C1226 0.930 . S
H1194 C1227 0.930 . S
H1195 C1225 0.929 . S
H1196 C1228 0.928 . S
O1197 Co1181 2.057 . S
O1197 C1185 1.232 . S
H1198 C1217 0.929 . S
H1199 C1218 0.929 . S
H1200 C1230 0.931 . S
H1201 C1222 0.929 . S
H1202 C1231 0.930 . S
H1203 C1223 0.931 . S
O1204 Co1180 2.097 . S
O1204 C1232 1.214 . S
H1205 C1233 0.929 . S
H1206 C1234 0.929 . S
H1207 C1235 0.930 . S
H1208 C1236 0.929 . S
H1209 C1238 0.930 . S
H1210 C1215 0.930 . S
H1211 C1219 0.930 . S
O1212 Co1181 2.037 . S
O1212 C1232 1.234 . S
C1213 O1187 1.269 . S
C1213 O1188 1.257 . S
C1214 H1189 0.930 . S
C1214 C1217 1.388 . S
C1214 C1219 1.418 . S
C1215 H1210 0.930 . S
C1215 C1218 1.404 . S
C1215 C1219 1.353 . S
N1216 Co1181 2.145 . S
N1216 C1217 1.397 . S
N1216 C1218 1.334 . S
C1217 H1198 0.929 . S
C1217 C1214 1.388 . S
C1217 N1216 1.397 . S
C1218 H1199 0.929 . S
C1218 C1215 1.404 . S
C1218 N1216 1.334 . S
C1219 H1211 0.930 . S
C1219 C1214 1.418 . S
C1219 C1215 1.353 . S
C1220 H1190 0.930 . S
C1220 N1221 1.330 . S
C1220 C1222 1.446 1_545 S
N1221 Co1180 2.151 . S
N1221 C1220 1.330 . S
N1221 C1225 1.418 . S
C1222 H1201 0.929 . S
C1222 C1220 1.446 1_565 S
C1222 C1223 1.332 . S
C1223 H1203 0.931 . S
C1223 C1222 1.332 . S
C1223 C1224 1.281 . S
C1224 H1192 0.933 . S
C1224 C1223 1.281 . S
C1224 C1225 1.234 1_565 S
C1225 H1195 0.929 . S
C1225 N1221 1.418 . S
C1225 C1224 1.234 1_545 S
C1226 H1193 0.930 . S
C1226 C1228 1.406 . S
C1226 C1231 1.261 . S
C1227 H1194 0.930 . S
C1227 N1229 1.325 . S
C1227 C1230 1.357 . S
C1228 H1196 0.928 . S
C1228 C1226 1.406 . S
C1228 N1229 1.261 . S
N1229 Co1180 2.214 . S
N1229 C1227 1.325 . S
N1229 C1228 1.261 . S
C1230 H1200 0.931 . S
C1230 C1227 1.357 . S
C1230 C1231 1.312 . S
C1231 H1202 0.930 . S
C1231 C1226 1.261 . S
C1231 C1230 1.312 . S
C1232 O1204 1.214 . S
C1232 O1212 1.234 . S
C1233 H1205 0.929 . S
C1233 C1236 1.391 . S
C1233 C1238 1.391 . S
C1234 H1206 0.929 . S
C1234 C1235 1.390 1_556 S
C1234 N1237 1.391 . S
C1235 H1207 0.930 . S
C1235 C1234 1.390 1_554 S
C1235 C1236 1.392 . S
C1236 H1208 0.929 . S
C1236 C1233 1.391 . S
C1236 C1235 1.392 . S
N1237 Co1181 2.257 . S
N1237 C1234 1.391 . S
N1237 C1238 1.388 1_556 S
C1238 H1209 0.930 . S
C1238 C1233 1.391 . S
C1238 N1237 1.388 1_554 S
Co1239 O1241 2.143 . S
Co1239 O1247 2.074 . S
Co1239 O1250 2.093 . S
Co1239 O1263 2.097 . S
Co1239 N1280 2.151 . S
Co1239 N1288 2.214 . S
Co1240 O1241 2.160 . S
Co1240 O1246 2.058 . S
Co1240 O1256 2.057 . S
Co1240 O1271 2.037 . S
Co1240 N1275 2.145 . S
Co1240 N1296 2.257 . S
O1241 Co1239 2.143 . S
O1241 Co1240 2.160 . S
C1242 O1243 1.278 . S
C1242 O1250 1.224 . S
O1243 C1242 1.278 . S
C1244 O1245 1.245 . S
C1244 O1256 1.232 . S
O1245 C1244 1.245 . S
O1246 Co1240 2.058 . S
O1246 C1272 1.269 . S
O1247 Co1239 2.074 . S
O1247 C1272 1.257 . S
H1248 C1273 0.930 . S
H1249 C1279 0.930 . S
O1250 Co1239 2.093 . S
O1250 C1242 1.224 . S
H1251 C1283 0.929 . S
H1252 C1285 0.930 . S
H1253 C1286 0.930 . S
H1254 C1284 0.929 . S
H1255 C1287 0.928 . S
O1256 Co1240 2.057 . S
O1256 C1244 1.232 . S
H1257 C1276 0.929 . S
H1258 C1277 0.929 . S
H1259 C1289 0.931 . S
H1260 C1281 0.929 . S
H1261 C1290 0.930 . S
H1262 C1282 0.931 . S
O1263 Co1239 2.097 . S
O1263 C1291 1.214 . S
H1264 C1292 0.929 . S
H1265 C1293 0.929 . S
H1266 C1294 0.930 . S
H1267 C1295 0.929 . S
H1268 C1297 0.930 . S
H1269 C1274 0.927 1_655 S
H1270 C1278 0.930 . S
O1271 Co1240 2.037 . S
O1271 C1291 1.234 . S
C1272 O1246 1.269 . S
C1272 O1247 1.257 . S
C1273 H1248 0.930 . S
C1273 C1276 1.388 1_655 S
C1273 C1278 1.418 . S
C1274 H1269 0.927 1_455 S
C1274 C1277 1.424 . S
C1274 C1278 1.336 1_455 S
N1275 Co1240 2.145 . S
N1275 C1276 1.397 . S
N1275 C1277 1.334 . S
C1276 H1257 0.929 . S
C1276 C1273 1.388 1_455 S
C1276 N1275 1.397 . S
C1277 H1258 0.929 . S
C1277 C1274 1.424 . S
C1277 N1275 1.334 . S
C1278 H1270 0.930 . S
C1278 C1273 1.418 . S
C1278 C1274 1.336 1_655 S
C1279 H1249 0.930 . S
C1279 N1280 1.330 . S
C1279 C1281 1.446 . S
N1280 Co1239 2.151 . S
N1280 C1279 1.330 . S
N1280 C1284 1.418 . S
C1281 H1260 0.929 . S
C1281 C1279 1.446 . S
C1281 C1282 1.332 . S
C1282 H1262 0.931 . S
C1282 C1281 1.332 . S
C1282 C1283 1.267 . S
C1283 H1251 0.929 . S
C1283 C1282 1.267 . S
C1283 C1284 1.251 . S
C1284 H1254 0.929 . S
C1284 N1280 1.418 . S
C1284 C1283 1.251 . S
C1285 H1252 0.930 . S
C1285 C1287 1.406 . S
C1285 C1290 1.261 . S
C1286 H1253 0.930 . S
C1286 N1288 1.325 . S
C1286 C1289 1.357 . S
C1287 H1255 0.928 . S
C1287 C1285 1.406 . S
C1287 N1288 1.261 . S
N1288 Co1239 2.214 . S
N1288 C1286 1.325 . S
N1288 C1287 1.261 . S
C1289 H1259 0.931 . S
C1289 C1286 1.357 . S
C1289 C1290 1.312 . S
C1290 H1261 0.930 . S
C1290 C1285 1.261 . S
C1290 C1289 1.312 . S
C1291 O1263 1.214 . S
C1291 O1271 1.234 . S
C1292 H1264 0.929 . S
C1292 C1295 1.391 . S
C1292 C1297 1.391 . S
C1293 H1265 0.929 . S
C1293 C1294 1.390 . S
C1293 N1296 1.391 . S
C1294 H1266 0.930 . S
C1294 C1293 1.390 . S
C1294 C1295 1.392 . S
C1295 H1267 0.929 . S
C1295 C1292 1.391 . S
C1295 C1294 1.392 . S
N1296 Co1240 2.257 . S
N1296 C1293 1.391 . S
N1296 C1297 1.388 . S
C1297 H1268 0.930 . S
C1297 C1292 1.391 . S
C1297 N1296 1.388 . S
Co1298 O1300 2.143 . S
Co1298 O1306 2.074 . S
Co1298 O1309 2.093 . S
Co1298 O1322 2.097 . S
Co1298 N1339 2.151 . S
Co1298 N1347 2.214 . S
Co1299 O1300 2.160 . S
Co1299 O1305 2.058 . S
Co1299 O1315 2.057 . S
Co1299 O1330 2.037 . S
Co1299 N1334 2.145 . S
Co1299 N1355 2.257 . S
O1300 Co1298 2.143 . S
O1300 Co1299 2.160 . S
C1301 O1302 1.278 . S
C1301 O1309 1.224 . S
O1302 C1301 1.278 . S
C1303 O1304 1.245 . S
C1303 O1315 1.232 . S
O1304 C1303 1.245 . S
O1305 Co1299 2.058 . S
O1305 C1331 1.269 . S
O1306 Co1298 2.074 . S
O1306 C1331 1.257 . S
H1307 C1332 0.930 . S
H1308 C1338 0.930 . S
O1309 Co1298 2.093 . S
O1309 C1301 1.224 . S
H1310 C1342 0.933 . S
H1311 C1344 0.930 . S
H1312 C1345 0.930 1_655 S
H1313 C1343 0.929 . S
H1314 C1346 0.928 . S
O1315 Co1299 2.057 . S
O1315 C1303 1.232 . S
H1316 C1335 0.929 . S
H1317 C1336 0.929 . S
H1318 C1348 0.931 . S
H1319 C1340 0.929 . S
H1320 C1349 0.930 . S
H1321 C1341 0.931 . S
O1322 Co1298 2.097 . S
O1322 C1350 1.214 . S
H1323 C1351 0.929 . S
H1324 C1352 0.929 . S
H1325 C1353 0.930 . S
H1326 C1354 0.929 . S
H1327 C1356 0.930 . S
H1328 C1333 0.930 . S
H1329 C1337 0.930 . S
O1330 Co1299 2.037 . S
O1330 C1350 1.234 . S
C1331 O1305 1.269 . S
C1331 O1306 1.257 . S
C1332 H1307 0.930 . S
C1332 C1335 1.388 . S
C1332 C1337 1.418 . S
C1333 H1328 0.930 . S
C1333 C1336 1.404 . S
C1333 C1337 1.353 . S
N1334 Co1299 2.145 . S
N1334 C1335 1.397 . S
N1334 C1336 1.334 . S
C1335 H1316 0.929 . S
C1335 C1332 1.388 . S
C1335 N1334 1.397 . S
C1336 H1317 0.929 . S
C1336 C1333 1.404 . S
C1336 N1334 1.334 . S
C1337 H1329 0.930 . S
C1337 C1332 1.418 . S
C1337 C1333 1.353 . S
C1338 H1308 0.930 . S
C1338 N1339 1.330 . S
C1338 C1340 1.446 1_565 S
N1339 Co1298 2.151 . S
N1339 C1338 1.330 . S
N1339 C1343 1.418 . S
C1340 H1319 0.929 . S
C1340 C1338 1.446 1_545 S
C1340 C1341 1.332 . S
C1341 H1321 0.931 . S
C1341 C1340 1.332 . S
C1341 C1342 1.281 . S
C1342 H1310 0.933 . S
C1342 C1341 1.281 . S
C1342 C1343 1.234 1_545 S
C1343 H1313 0.929 . S
C1343 N1339 1.418 . S
C1343 C1342 1.234 1_565 S
C1344 H1311 0.930 . S
C1344 C1346 1.406 . S
C1344 C1349 1.261 . S
C1345 H1312 0.930 1_455 S
C1345 N1347 1.325 1_455 S
C1345 C1348 1.357 . S
C1346 H1314 0.928 . S
C1346 C1344 1.406 . S
C1346 N1347 1.261 1_455 S
N1347 Co1298 2.214 . S
N1347 C1345 1.325 1_655 S
N1347 C1346 1.261 1_655 S
C1348 H1318 0.931 . S
C1348 C1345 1.357 . S
C1348 C1349 1.312 . S
C1349 H1320 0.930 . S
C1349 C1344 1.261 . S
C1349 C1348 1.312 . S
C1350 O1322 1.214 . S
C1350 O1330 1.234 . S
C1351 H1323 0.929 . S
C1351 C1354 1.391 . S
C1351 C1356 1.391 . S
C1352 H1324 0.929 . S
C1352 C1353 1.390 . S
C1352 N1355 1.391 . S
C1353 H1325 0.930 . S
C1353 C1352 1.390 . S
C1353 C1354 1.392 . S
C1354 H1326 0.929 . S
C1354 C1351 1.391 . S
C1354 C1353 1.392 . S
N1355 Co1299 2.257 . S
N1355 C1352 1.391 . S
N1355 C1356 1.388 . S
C1356 H1327 0.930 . S
C1356 C1351 1.391 . S
C1356 N1355 1.388 . S
Co1357 O1359 2.143 . S
Co1357 O1365 2.074 . S
Co1357 O1368 2.093 . S
Co1357 O1381 2.097 . S
Co1357 N1398 2.151 . S
Co1357 N1406 2.214 . S
Co1358 O1359 2.160 . S
Co1358 O1364 2.058 . S
Co1358 O1374 2.057 . S
Co1358 O1389 2.037 . S
Co1358 N1393 2.145 . S
Co1358 N1414 2.257 . S
O1359 Co1357 2.143 . S
O1359 Co1358 2.160 . S
C1360 O1361 1.278 . S
C1360 O1368 1.224 . S
O1361 C1360 1.278 . S
C1362 O1363 1.245 . S
C1362 O1374 1.232 . S
O1363 C1362 1.245 . S
O1364 Co1358 2.058 . S
O1364 C1390 1.269 . S
O1365 Co1357 2.074 . S
O1365 C1390 1.257 . S
H1366 C1391 0.930 . S
H1367 C1397 0.930 . S
O1368 Co1357 2.093 . S
O1368 C1360 1.224 . S
H1369 C1401 0.929 . S
H1370 C1403 0.930 . S
H1371 C1404 0.930 . S
H1372 C1402 0.929 . S
H1373 C1405 0.928 . S
O1374 Co1358 2.057 . S
O1374 C1362 1.232 . S
H1375 C1394 0.929 . S
H1376 C1395 0.929 . S
H1377 C1407 0.931 . S
H1378 C1399 0.929 . S
H1379 C1408 0.930 . S
H1380 C1400 0.931 . S
O1381 Co1357 2.097 . S
O1381 C1409 1.214 . S
H1382 C1410 0.929 . S
H1383 C1411 0.929 . S
H1384 C1412 0.930 . S
H1385 C1413 0.929 . S
H1386 C1415 0.930 . S
H1387 C1392 0.930 . S
H1388 C1396 0.930 . S
O1389 Co1358 2.037 . S
O1389 C1409 1.234 . S
C1390 O1364 1.269 . S
C1390 O1365 1.257 . S
C1391 H1366 0.930 . S
C1391 C1394 1.388 . S
C1391 C1396 1.418 . S
C1392 H1387 0.930 . S
C1392 C1395 1.404 . S
C1392 C1396 1.353 . S
N1393 Co1358 2.145 . S
N1393 C1394 1.397 . S
N1393 C1395 1.334 . S
C1394 H1375 0.929 . S
C1394 C1391 1.388 . S
C1394 N1393 1.397 . S
C1395 H1376 0.929 . S
C1395 C1392 1.404 . S
C1395 N1393 1.334 . S
C1396 H1388 0.930 . S
C1396 C1391 1.418 . S
C1396 C1392 1.353 . S
C1397 H1367 0.930 . S
C1397 N1398 1.330 . S
C1397 C1399 1.446 . S
N1398 Co1357 2.151 . S
N1398 C1397 1.330 . S
N1398 C1402 1.418 . S
C1399 H1378 0.929 . S
C1399 C1397 1.446 . S
C1399 C1400 1.332 . S
C1400 H1380 0.931 . S
C1400 C1399 1.332 . S
C1400 C1401 1.267 . S
C1401 H1369 0.929 . S
C1401 C1400 1.267 . S
C1401 C1402 1.251 . S
C1402 H1372 0.929 . S
C1402 N1398 1.418 . S
C1402 C1401 1.251 . S
C1403 H1370 0.930 . S
C1403 C1405 1.406 . S
C1403 C1408 1.261 . S
C1404 H1371 0.930 . S
C1404 N1406 1.325 . S
C1404 C1407 1.357 . S
C1405 H1373 0.928 . S
C1405 C1403 1.406 . S
C1405 N1406 1.261 . S
N1406 Co1357 2.214 . S
N1406 C1404 1.325 . S
N1406 C1405 1.261 . S
C1407 H1377 0.931 . S
C1407 C1404 1.357 . S
C1407 C1408 1.312 . S
C1408 H1379 0.930 . S
C1408 C1403 1.261 . S
C1408 C1407 1.312 . S
C1409 O1381 1.214 . S
C1409 O1389 1.234 . S
C1410 H1382 0.929 . S
C1410 C1413 1.391 . S
C1410 C1415 1.391 . S
C1411 H1383 0.929 . S
C1411 C1412 1.390 . S
C1411 N1414 1.391 . S
C1412 H1384 0.930 . S
C1412 C1411 1.390 . S
C1412 C1413 1.392 . S
C1413 H1385 0.929 . S
C1413 C1410 1.391 . S
C1413 C1412 1.392 . S
N1414 Co1358 2.257 . S
N1414 C1411 1.391 . S
N1414 C1415 1.388 . S
C1415 H1386 0.930 . S
C1415 C1410 1.391 . S
C1415 N1414 1.388 . S
Co1416 O1418 2.143 . S
Co1416 O1424 2.074 . S
Co1416 O1427 2.093 . S
Co1416 O1440 2.097 . S
Co1416 N1457 2.151 . S
Co1416 N1465 2.214 . S
Co1417 O1418 2.160 . S
Co1417 O1423 2.058 . S
Co1417 O1433 2.057 . S
Co1417 O1448 2.037 . S
Co1417 N1452 2.145 . S
Co1417 N1473 2.257 . S
O1418 Co1416 2.143 . S
O1418 Co1417 2.160 . S
C1419 O1420 1.278 . S
C1419 O1427 1.224 . S
O1420 C1419 1.278 . S
C1421 O1422 1.245 . S
C1421 O1433 1.232 . S
O1422 C1421 1.245 . S
O1423 Co1417 2.058 . S
O1423 C1449 1.269 . S
O1424 Co1416 2.074 . S
O1424 C1449 1.257 . S
H1425 C1450 0.930 . S
H1426 C1456 0.930 . S
O1427 Co1416 2.093 . S
O1427 C1419 1.224 . S
H1428 C1460 0.933 . S
H1429 C1462 0.930 . S
H1430 C1463 0.930 . S
H1431 C1461 0.929 . S
H1432 C1464 0.928 . S
O1433 Co1417 2.057 . S
O1433 C1421 1.232 . S
H1434 C1453 0.929 . S
H1435 C1454 0.929 . S
H1436 C1466 0.931 . S
H1437 C1458 0.929 . S
H1438 C1467 0.930 . S
H1439 C1459 0.931 . S
O1440 Co1416 2.097 . S
O1440 C1468 1.214 . S
H1441 C1469 0.929 . S
H1442 C1470 0.929 . S
H1443 C1471 0.930 . S
H1444 C1472 0.929 . S
H1445 C1474 0.930 . S
H1446 C1451 0.930 . S
H1447 C1455 0.930 . S
O1448 Co1417 2.037 . S
O1448 C1468 1.234 . S
C1449 O1423 1.269 . S
C1449 O1424 1.257 . S
C1450 H1425 0.930 . S
C1450 C1453 1.388 . S
C1450 C1455 1.418 . S
C1451 H1446 0.930 . S
C1451 C1454 1.404 . S
C1451 C1455 1.353 . S
N1452 Co1417 2.145 . S
N1452 C1453 1.397 . S
N1452 C1454 1.334 . S
C1453 H1434 0.929 . S
C1453 C1450 1.388 . S
C1453 N1452 1.397 . S
C1454 H1435 0.929 . S
C1454 C1451 1.404 . S
C1454 N1452 1.334 . S
C1455 H1447 0.930 . S
C1455 C1450 1.418 . S
C1455 C1451 1.353 . S
C1456 H1426 0.930 . S
C1456 N1457 1.330 . S
C1456 C1458 1.446 1_545 S
N1457 Co1416 2.151 . S
N1457 C1456 1.330 . S
N1457 C1461 1.418 . S
C1458 H1437 0.929 . S
C1458 C1456 1.446 1_565 S
C1458 C1459 1.332 . S
C1459 H1439 0.931 . S
C1459 C1458 1.332 . S
C1459 C1460 1.281 . S
C1460 H1428 0.933 . S
C1460 C1459 1.281 . S
C1460 C1461 1.234 1_565 S
C1461 H1431 0.929 . S
C1461 N1457 1.418 . S
C1461 C1460 1.234 1_545 S
C1462 H1429 0.930 . S
C1462 C1464 1.406 . S
C1462 C1467 1.261 . S
C1463 H1430 0.930 . S
C1463 N1465 1.325 . S
C1463 C1466 1.357 . S
C1464 H1432 0.928 . S
C1464 C1462 1.406 . S
C1464 N1465 1.261 . S
N1465 Co1416 2.214 . S
N1465 C1463 1.325 . S
N1465 C1464 1.261 . S
C1466 H1436 0.931 . S
C1466 C1463 1.357 . S
C1466 C1467 1.312 . S
C1467 H1438 0.930 . S
C1467 C1462 1.261 . S
C1467 C1466 1.312 . S
C1468 O1440 1.214 . S
C1468 O1448 1.234 . S
C1469 H1441 0.929 . S
C1469 C1472 1.391 . S
C1469 C1474 1.391 . S
C1470 H1442 0.929 . S
C1470 C1471 1.390 . S
C1470 N1473 1.391 . S
C1471 H1443 0.930 . S
C1471 C1470 1.390 . S
C1471 C1472 1.392 . S
C1472 H1444 0.929 . S
C1472 C1469 1.391 . S
C1472 C1471 1.392 . S
N1473 Co1417 2.257 . S
N1473 C1470 1.391 . S
N1473 C1474 1.388 . S
C1474 H1445 0.930 . S
C1474 C1469 1.391 . S
C1474 N1473 1.388 . S
Co1475 O1477 2.143 . S
Co1475 O1483 2.074 . S
Co1475 O1486 2.093 . S
Co1475 O1499 2.097 . S
Co1475 N1516 2.151 . S
Co1475 N1524 2.214 . S
Co1476 O1477 2.160 . S
Co1476 O1482 2.058 . S
Co1476 O1492 2.057 . S
Co1476 O1507 2.037 . S
Co1476 N1511 2.145 . S
Co1476 N1532 2.257 . S
O1477 Co1475 2.143 . S
O1477 Co1476 2.160 . S
C1478 O1479 1.278 . S
C1478 O1486 1.224 . S
O1479 C1478 1.278 . S
C1480 O1481 1.245 . S
C1480 O1492 1.232 . S
O1481 C1480 1.245 . S
O1482 Co1476 2.058 . S
O1482 C1508 1.269 . S
O1483 Co1475 2.074 . S
O1483 C1508 1.257 . S
H1484 C1509 0.930 . S
H1485 C1515 0.930 . S
O1486 Co1475 2.093 . S
O1486 C1478 1.224 . S
H1487 C1519 0.929 . S
H1488 C1521 0.930 . S
H1489 C1522 0.930 . S
H1490 C1520 0.929 . S
H1491 C1523 0.928 . S
O1492 Co1476 2.057 . S
O1492 C1480 1.232 . S
H1493 C1512 0.929 . S
H1494 C1513 0.929 . S
H1495 C1525 0.931 . S
H1496 C1517 0.929 . S
H1497 C1526 0.930 . S
H1498 C1518 0.931 . S
O1499 Co1475 2.097 . S
O1499 C1527 1.214 . S
H1500 C1528 0.929 . S
H1501 C1529 0.929 . S
H1502 C1530 0.930 . S
H1503 C1531 0.929 . S
H1504 C1533 0.930 . S
H1505 C1510 0.930 . S
H1506 C1514 0.930 . S
O1507 Co1476 2.037 . S
O1507 C1527 1.234 . S
C1508 O1482 1.269 . S
C1508 O1483 1.257 . S
C1509 H1484 0.930 . S
C1509 C1512 1.388 . S
C1509 C1514 1.418 . S
C1510 H1505 0.930 . S
C1510 C1513 1.404 . S
C1510 C1514 1.353 . S
N1511 Co1476 2.145 . S
N1511 C1512 1.397 . S
N1511 C1513 1.334 . S
C1512 H1493 0.929 . S
C1512 C1509 1.388 . S
C1512 N1511 1.397 . S
C1513 H1494 0.929 . S
C1513 C1510 1.404 . S
C1513 N1511 1.334 . S
C1514 H1506 0.930 . S
C1514 C1509 1.418 . S
C1514 C1510 1.353 . S
C1515 H1485 0.930 . S
C1515 N1516 1.330 . S
C1515 C1517 1.446 . S
N1516 Co1475 2.151 . S
N1516 C1515 1.330 . S
N1516 C1520 1.418 . S
C1517 H1496 0.929 . S
C1517 C1515 1.446 . S
C1517 C1518 1.332 . S
C1518 H1498 0.931 . S
C1518 C1517 1.332 . S
C1518 C1519 1.267 . S
C1519 H1487 0.929 . S
C1519 C1518 1.267 . S
C1519 C1520 1.251 . S
C1520 H1490 0.929 . S
C1520 N1516 1.418 . S
C1520 C1519 1.251 . S
C1521 H1488 0.930 . S
C1521 C1523 1.406 . S
C1521 C1526 1.261 . S
C1522 H1489 0.930 . S
C1522 N1524 1.325 . S
C1522 C1525 1.357 . S
C1523 H1491 0.928 . S
C1523 C1521 1.406 . S
C1523 N1524 1.261 . S
N1524 Co1475 2.214 . S
N1524 C1522 1.325 . S
N1524 C1523 1.261 . S
C1525 H1495 0.931 . S
C1525 C1522 1.357 . S
C1525 C1526 1.312 . S
C1526 H1497 0.930 . S
C1526 C1521 1.261 . S
C1526 C1525 1.312 . S
C1527 O1499 1.214 . S
C1527 O1507 1.234 . S
C1528 H1500 0.929 . S
C1528 C1531 1.391 . S
C1528 C1533 1.391 . S
C1529 H1501 0.929 . S
C1529 C1530 1.390 . S
C1529 N1532 1.391 . S
C1530 H1502 0.930 . S
C1530 C1529 1.390 . S
C1530 C1531 1.392 . S
C1531 H1503 0.929 . S
C1531 C1528 1.391 . S
C1531 C1530 1.392 . S
N1532 Co1476 2.257 . S
N1532 C1529 1.391 . S
N1532 C1533 1.388 . S
C1533 H1504 0.930 . S
C1533 C1528 1.391 . S
C1533 N1532 1.388 . S
Co1534 O1536 2.143 . S
Co1534 O1542 2.074 . S
Co1534 O1545 2.093 . S
Co1534 O1558 2.097 . S
Co1534 N1575 2.151 . S
Co1534 N1583 2.214 . S
Co1535 O1536 2.160 . S
Co1535 O1541 2.058 . S
Co1535 O1551 2.057 . S
Co1535 O1566 2.037 . S
Co1535 N1570 2.145 . S
Co1535 N1591 2.257 . S
O1536 Co1534 2.143 . S
O1536 Co1535 2.160 . S
C1537 O1538 1.278 . S
C1537 O1545 1.224 . S
O1538 C1537 1.278 . S
C1539 O1540 1.245 . S
C1539 O1551 1.232 . S
O1540 C1539 1.245 . S
O1541 Co1535 2.058 . S
O1541 C1567 1.269 . S
O1542 Co1534 2.074 . S
O1542 C1567 1.257 . S
H1543 C1568 0.930 . S
H1544 C1574 0.930 . S
O1545 Co1534 2.093 . S
O1545 C1537 1.224 . S
H1546 C1578 0.933 . S
H1547 C1580 0.930 . S
H1548 C1581 0.930 1_455 S
H1549 C1579 0.929 . S
H1550 C1582 0.928 . S
O1551 Co1535 2.057 . S
O1551 C1539 1.232 . S
H1552 C1571 0.929 . S
H1553 C1572 0.929 . S
H1554 C1584 0.931 . S
H1555 C1576 0.929 . S
H1556 C1585 0.930 . S
H1557 C1577 0.931 . S
O1558 Co1534 2.097 . S
O1558 C1586 1.214 . S
H1559 C1587 0.929 . S
H1560 C1588 0.929 . S
H1561 C1589 0.930 . S
H1562 C1590 0.929 . S
H1563 C1592 0.930 . S
H1564 C1569 0.930 . S
H1565 C1573 0.930 . S
O1566 Co1535 2.037 . S
O1566 C1586 1.234 . S
C1567 O1541 1.269 . S
C1567 O1542 1.257 . S
C1568 H1543 0.930 . S
C1568 C1571 1.388 . S
C1568 C1573 1.418 . S
C1569 H1564 0.930 . S
C1569 C1572 1.404 . S
C1569 C1573 1.353 . S
N1570 Co1535 2.145 . S
N1570 C1571 1.397 . S
N1570 C1572 1.334 . S
C1571 H1552 0.929 . S
C1571 C1568 1.388 . S
C1571 N1570 1.397 . S
C1572 H1553 0.929 . S
C1572 C1569 1.404 . S
C1572 N1570 1.334 . S
C1573 H1565 0.930 . S
C1573 C1568 1.418 . S
C1573 C1569 1.353 . S
C1574 H1544 0.930 . S
C1574 N1575 1.330 . S
C1574 C1576 1.446 1_565 S
N1575 Co1534 2.151 . S
N1575 C1574 1.330 . S
N1575 C1579 1.418 . S
C1576 H1555 0.929 . S
C1576 C1574 1.446 1_545 S
C1576 C1577 1.332 . S
C1577 H1557 0.931 . S
C1577 C1576 1.332 . S
C1577 C1578 1.281 . S
C1578 H1546 0.933 . S
C1578 C1577 1.281 . S
C1578 C1579 1.234 1_545 S
C1579 H1549 0.929 . S
C1579 N1575 1.418 . S
C1579 C1578 1.234 1_565 S
C1580 H1547 0.930 . S
C1580 C1582 1.406 . S
C1580 C1585 1.261 . S
C1581 H1548 0.930 1_655 S
C1581 N1583 1.325 1_655 S
C1581 C1584 1.357 . S
C1582 H1550 0.928 . S
C1582 C1580 1.406 . S
C1582 N1583 1.261 1_655 S
N1583 Co1534 2.214 . S
N1583 C1581 1.325 1_455 S
N1583 C1582 1.261 1_455 S
C1584 H1554 0.931 . S
C1584 C1581 1.357 . S
C1584 C1585 1.312 . S
C1585 H1556 0.930 . S
C1585 C1580 1.261 . S
C1585 C1584 1.312 . S
C1586 O1558 1.214 . S
C1586 O1566 1.234 . S
C1587 H1559 0.929 . S
C1587 C1590 1.391 . S
C1587 C1592 1.391 . S
C1588 H1560 0.929 . S
C1588 C1589 1.390 1_556 S
C1588 N1591 1.391 . S
C1589 H1561 0.930 . S
C1589 C1588 1.390 1_554 S
C1589 C1590 1.392 . S
C1590 H1562 0.929 . S
C1590 C1587 1.391 . S
C1590 C1589 1.392 . S
N1591 Co1535 2.257 . S
N1591 C1588 1.391 . S
N1591 C1592 1.388 1_556 S
C1592 H1563 0.930 . S
C1592 C1587 1.391 . S
C1592 N1591 1.388 1_554 S
Co1593 O1595 2.143 . S
Co1593 O1601 2.074 . S
Co1593 O1604 2.093 . S
Co1593 O1617 2.097 . S
Co1593 N1634 2.151 . S
Co1593 N1642 2.214 . S
Co1594 O1595 2.160 . S
Co1594 O1600 2.058 . S
Co1594 O1610 2.057 . S
Co1594 O1625 2.037 . S
Co1594 N1629 2.145 . S
Co1594 N1650 2.257 . S
O1595 Co1593 2.143 . S
O1595 Co1594 2.160 . S
C1596 O1597 1.278 . S
C1596 O1604 1.224 . S
O1597 C1596 1.278 . S
C1598 O1599 1.245 . S
C1598 O1610 1.232 . S
O1599 C1598 1.245 . S
O1600 Co1594 2.058 . S
O1600 C1626 1.269 . S
O1601 Co1593 2.074 . S
O1601 C1626 1.257 . S
H1602 C1627 0.930 . S
H1603 C1633 0.930 . S
O1604 Co1593 2.093 . S
O1604 C1596 1.224 . S
H1605 C1637 0.929 . S
H1606 C1639 0.930 . S
H1607 C1640 0.930 . S
H1608 C1638 0.929 . S
H1609 C1641 0.928 . S
O1610 Co1594 2.057 . S
O1610 C1598 1.232 . S
H1611 C1630 0.929 . S
H1612 C1631 0.929 . S
H1613 C1643 0.931 . S
H1614 C1635 0.929 . S
H1615 C1644 0.930 . S
H1616 C1636 0.931 . S
O1617 Co1593 2.097 . S
O1617 C1645 1.214 . S
H1618 C1646 0.929 . S
H1619 C1647 0.929 . S
H1620 C1648 0.930 . S
H1621 C1649 0.929 . S
H1622 C1651 0.930 . S
H1623 C1628 0.927 1_455 S
H1624 C1632 0.930 . S
O1625 Co1594 2.037 . S
O1625 C1645 1.234 . S
C1626 O1600 1.269 . S
C1626 O1601 1.257 . S
C1627 H1602 0.930 . S
C1627 C1630 1.388 1_455 S
C1627 C1632 1.418 . S
C1628 H1623 0.927 1_655 S
C1628 C1631 1.424 . S
C1628 C1632 1.336 1_655 S
N1629 Co1594 2.145 . S
N1629 C1630 1.397 . S
N1629 C1631 1.334 . S
C1630 H1611 0.929 . S
C1630 C1627 1.388 1_655 S
C1630 N1629 1.397 . S
C1631 H1612 0.929 . S
C1631 C1628 1.424 . S
C1631 N1629 1.334 . S
C1632 H1624 0.930 . S
C1632 C1627 1.418 . S
C1632 C1628 1.336 1_455 S
C1633 H1603 0.930 . S
C1633 N1634 1.330 . S
C1633 C1635 1.446 . S
N1634 Co1593 2.151 . S
N1634 C1633 1.330 . S
N1634 C1638 1.418 . S
C1635 H1614 0.929 . S
C1635 C1633 1.446 . S
C1635 C1636 1.332 . S
C1636 H1616 0.931 . S
C1636 C1635 1.332 . S
C1636 C1637 1.267 . S
C1637 H1605 0.929 . S
C1637 C1636 1.267 . S
C1637 C1638 1.251 . S
C1638 H1608 0.929 . S
C1638 N1634 1.418 . S
C1638 C1637 1.251 . S
C1639 H1606 0.930 . S
C1639 C1641 1.406 . S
C1639 C1644 1.261 . S
C1640 H1607 0.930 . S
C1640 N1642 1.325 . S
C1640 C1643 1.357 . S
C1641 H1609 0.928 . S
C1641 C1639 1.406 . S
C1641 N1642 1.261 . S
N1642 Co1593 2.214 . S
N1642 C1640 1.325 . S
N1642 C1641 1.261 . S
C1643 H1613 0.931 . S
C1643 C1640 1.357 . S
C1643 C1644 1.312 . S
C1644 H1615 0.930 . S
C1644 C1639 1.261 . S
C1644 C1643 1.312 . S
C1645 O1617 1.214 . S
C1645 O1625 1.234 . S
C1646 H1618 0.929 . S
C1646 C1649 1.391 . S
C1646 C1651 1.391 . S
C1647 H1619 0.929 . S
C1647 C1648 1.390 . S
C1647 N1650 1.391 . S
C1648 H1620 0.930 . S
C1648 C1647 1.390 . S
C1648 C1649 1.392 . S
C1649 H1621 0.929 . S
C1649 C1646 1.391 . S
C1649 C1648 1.392 . S
N1650 Co1594 2.257 . S
N1650 C1647 1.391 . S
N1650 C1651 1.388 . S
C1651 H1622 0.930 . S
C1651 C1646 1.391 . S
C1651 N1650 1.388 . S
Co1652 O1654 2.143 . S
Co1652 O1660 2.074 . S
Co1652 O1663 2.093 . S
Co1652 O1676 2.097 . S
Co1652 N1693 2.151 . S
Co1652 N1701 2.214 . S
Co1653 O1654 2.160 . S
Co1653 O1659 2.058 . S
Co1653 O1669 2.057 . S
Co1653 O1684 2.037 . S
Co1653 N1688 2.145 . S
Co1653 N1709 2.257 . S
O1654 Co1652 2.143 . S
O1654 Co1653 2.160 . S
C1655 O1656 1.278 . S
C1655 O1663 1.224 . S
O1656 C1655 1.278 . S
C1657 O1658 1.245 . S
C1657 O1669 1.232 . S
O1658 C1657 1.245 . S
O1659 Co1653 2.058 . S
O1659 C1685 1.269 . S
O1660 Co1652 2.074 . S
O1660 C1685 1.257 . S
H1661 C1686 0.930 . S
H1662 C1692 0.930 . S
O1663 Co1652 2.093 . S
O1663 C1655 1.224 . S
H1664 C1696 0.933 . S
H1665 C1698 0.930 . S
H1666 C1699 0.930 . S
H1667 C1697 0.929 . S
H1668 C1700 0.928 . S
O1669 Co1653 2.057 . S
O1669 C1657 1.232 . S
H1670 C1689 0.929 . S
H1671 C1690 0.929 . S
H1672 C1702 0.931 . S
H1673 C1694 0.929 . S
H1674 C1703 0.930 . S
H1675 C1695 0.931 . S
O1676 Co1652 2.097 . S
O1676 C1704 1.214 . S
H1677 C1705 0.929 . S
H1678 C1706 0.929 . S
H1679 C1707 0.930 . S
H1680 C1708 0.929 . S
H1681 C1710 0.930 . S
H1682 C1687 0.930 . S
H1683 C1691 0.930 . S
O1684 Co1653 2.037 . S
O1684 C1704 1.234 . S
C1685 O1659 1.269 . S
C1685 O1660 1.257 . S
C1686 H1661 0.930 . S
C1686 C1689 1.388 . S
C1686 C1691 1.418 . S
C1687 H1682 0.930 . S
C1687 C1690 1.404 . S
C1687 C1691 1.353 . S
N1688 Co1653 2.145 . S
N1688 C1689 1.397 . S
N1688 C1690 1.334 . S
C1689 H1670 0.929 . S
C1689 C1686 1.388 . S
C1689 N1688 1.397 . S
C1690 H1671 0.929 . S
C1690 C1687 1.404 . S
C1690 N1688 1.334 . S
C1691 H1683 0.930 . S
C1691 C1686 1.418 . S
C1691 C1687 1.353 . S
C1692 H1662 0.930 . S
C1692 N1693 1.330 . S
C1692 C1694 1.446 1_565 S
N1693 Co1652 2.151 . S
N1693 C1692 1.330 . S
N1693 C1697 1.418 . S
C1694 H1673 0.929 . S
C1694 C1692 1.446 1_545 S
C1694 C1695 1.332 . S
C1695 H1675 0.931 . S
C1695 C1694 1.332 . S
C1695 C1696 1.281 . S
C1696 H1664 0.933 . S
C1696 C1695 1.281 . S
C1696 C1697 1.234 1_545 S
C1697 H1667 0.929 . S
C1697 N1693 1.418 . S
C1697 C1696 1.234 1_565 S
C1698 H1665 0.930 . S
C1698 C1700 1.406 . S
C1698 C1703 1.261 . S
C1699 H1666 0.930 . S
C1699 N1701 1.325 . S
C1699 C1702 1.357 . S
C1700 H1668 0.928 . S
C1700 C1698 1.406 . S
C1700 N1701 1.261 . S
N1701 Co1652 2.214 . S
N1701 C1699 1.325 . S
N1701 C1700 1.261 . S
C1702 H1672 0.931 . S
C1702 C1699 1.357 . S
C1702 C1703 1.312 . S
C1703 H1674 0.930 . S
C1703 C1698 1.261 . S
C1703 C1702 1.312 . S
C1704 O1676 1.214 . S
C1704 O1684 1.234 . S
C1705 H1677 0.929 . S
C1705 C1708 1.391 . S
C1705 C1710 1.391 . S
C1706 H1678 0.929 . S
C1706 C1707 1.390 1_554 S
C1706 N1709 1.391 . S
C1707 H1679 0.930 . S
C1707 C1706 1.390 1_556 S
C1707 C1708 1.392 . S
C1708 H1680 0.929 . S
C1708 C1705 1.391 . S
C1708 C1707 1.392 . S
N1709 Co1653 2.257 . S
N1709 C1706 1.391 . S
N1709 C1710 1.388 1_554 S
C1710 H1681 0.930 . S
C1710 C1705 1.391 . S
C1710 N1709 1.388 1_556 S
Co1711 O1713 2.143 . S
Co1711 O1719 2.074 . S
Co1711 O1722 2.093 . S
Co1711 O1735 2.097 . S
Co1711 N1752 2.151 . S
Co1711 N1760 2.214 . S
Co1712 O1713 2.160 . S
Co1712 O1718 2.058 . S
Co1712 O1728 2.057 . S
Co1712 O1743 2.037 . S
Co1712 N1747 2.145 . S
Co1712 N1768 2.257 . S
O1713 Co1711 2.143 . S
O1713 Co1712 2.160 . S
C1714 O1715 1.278 . S
C1714 O1722 1.224 . S
O1715 C1714 1.278 . S
C1716 O1717 1.245 . S
C1716 O1728 1.232 . S
O1717 C1716 1.245 . S
O1718 Co1712 2.058 . S
O1718 C1744 1.269 . S
O1719 Co1711 2.074 . S
O1719 C1744 1.257 . S
H1720 C1745 0.930 . S
H1721 C1751 0.930 . S
O1722 Co1711 2.093 . S
O1722 C1714 1.224 . S
H1723 C1755 0.929 . S
H1724 C1757 0.930 . S
H1725 C1758 0.930 . S
H1726 C1756 0.929 . S
H1727 C1759 0.928 . S
O1728 Co1712 2.057 . S
O1728 C1716 1.232 . S
H1729 C1748 0.929 . S
H1730 C1749 0.929 . S
H1731 C1761 0.931 . S
H1732 C1753 0.929 . S
H1733 C1762 0.930 . S
H1734 C1754 0.931 . S
O1735 Co1711 2.097 . S
O1735 C1763 1.214 . S
H1736 C1764 0.929 . S
H1737 C1765 0.929 . S
H1738 C1766 0.930 . S
H1739 C1767 0.929 . S
H1740 C1769 0.930 . S
H1741 C1746 0.927 1_455 S
H1742 C1750 0.930 . S
O1743 Co1712 2.037 . S
O1743 C1763 1.234 . S
C1744 O1718 1.269 . S
C1744 O1719 1.257 . S
C1745 H1720 0.930 . S
C1745 C1748 1.388 1_455 S
C1745 C1750 1.418 . S
C1746 H1741 0.927 1_655 S
C1746 C1749 1.424 . S
C1746 C1750 1.336 1_655 S
N1747 Co1712 2.145 . S
N1747 C1748 1.397 . S
N1747 C1749 1.334 . S
C1748 H1729 0.929 . S
C1748 C1745 1.388 1_655 S
C1748 N1747 1.397 . S
C1749 H1730 0.929 . S
C1749 C1746 1.424 . S
C1749 N1747 1.334 . S
C1750 H1742 0.930 . S
C1750 C1745 1.418 . S
C1750 C1746 1.336 1_455 S
C1751 H1721 0.930 . S
C1751 N1752 1.330 . S
C1751 C1753 1.446 . S
N1752 Co1711 2.151 . S
N1752 C1751 1.330 . S
N1752 C1756 1.418 . S
C1753 H1732 0.929 . S
C1753 C1751 1.446 . S
C1753 C1754 1.332 . S
C1754 H1734 0.931 . S
C1754 C1753 1.332 . S
C1754 C1755 1.267 . S
C1755 H1723 0.929 . S
C1755 C1754 1.267 . S
C1755 C1756 1.251 . S
C1756 H1726 0.929 . S
C1756 N1752 1.418 . S
C1756 C1755 1.251 . S
C1757 H1724 0.930 . S
C1757 C1759 1.406 . S
C1757 C1762 1.261 . S
C1758 H1725 0.930 . S
C1758 N1760 1.325 . S
C1758 C1761 1.357 . S
C1759 H1727 0.928 . S
C1759 C1757 1.406 . S
C1759 N1760 1.261 . S
N1760 Co1711 2.214 . S
N1760 C1758 1.325 . S
N1760 C1759 1.261 . S
C1761 H1731 0.931 . S
C1761 C1758 1.357 . S
C1761 C1762 1.312 . S
C1762 H1733 0.930 . S
C1762 C1757 1.261 . S
C1762 C1761 1.312 . S
C1763 O1735 1.214 . S
C1763 O1743 1.234 . S
C1764 H1736 0.929 . S
C1764 C1767 1.391 . S
C1764 C1769 1.391 . S
C1765 H1737 0.929 . S
C1765 C1766 1.390 . S
C1765 N1768 1.391 . S
C1766 H1738 0.930 . S
C1766 C1765 1.390 . S
C1766 C1767 1.392 . S
C1767 H1739 0.929 . S
C1767 C1764 1.391 . S
C1767 C1766 1.392 . S
N1768 Co1712 2.257 . S
N1768 C1765 1.391 . S
N1768 C1769 1.388 . S
C1769 H1740 0.930 . S
C1769 C1764 1.391 . S
C1769 N1768 1.388 . S
Co1770 O1772 2.143 . S
Co1770 O1778 2.074 . S
Co1770 O1781 2.093 . S
Co1770 O1794 2.097 . S
Co1770 N1811 2.151 . S
Co1770 N1819 2.214 . S
Co1771 O1772 2.160 . S
Co1771 O1777 2.058 . S
Co1771 O1787 2.057 . S
Co1771 O1802 2.037 . S
Co1771 N1806 2.145 . S
Co1771 N1827 2.257 . S
O1772 Co1770 2.143 . S
O1772 Co1771 2.160 . S
C1773 O1774 1.278 . S
C1773 O1781 1.224 . S
O1774 C1773 1.278 . S
C1775 O1776 1.245 . S
C1775 O1787 1.232 . S
O1776 C1775 1.245 . S
O1777 Co1771 2.058 . S
O1777 C1803 1.269 . S
O1778 Co1770 2.074 . S
O1778 C1803 1.257 . S
H1779 C1804 0.930 . S
H1780 C1810 0.930 . S
O1781 Co1770 2.093 . S
O1781 C1773 1.224 . S
H1782 C1814 0.933 . S
H1783 C1816 0.930 . S
H1784 C1817 0.930 1_455 S
H1785 C1815 0.929 . S
H1786 C1818 0.928 . S
O1787 Co1771 2.057 . S
O1787 C1775 1.232 . S
H1788 C1807 0.929 . S
H1789 C1808 0.929 . S
H1790 C1820 0.931 . S
H1791 C1812 0.929 . S
H1792 C1821 0.930 . S
H1793 C1813 0.931 . S
O1794 Co1770 2.097 . S
O1794 C1822 1.214 . S
H1795 C1823 0.929 . S
H1796 C1824 0.929 . S
H1797 C1825 0.930 . S
H1798 C1826 0.929 . S
H1799 C1828 0.930 . S
H1800 C1805 0.930 . S
H1801 C1809 0.930 . S
O1802 Co1771 2.037 . S
O1802 C1822 1.234 . S
C1803 O1777 1.269 . S
C1803 O1778 1.257 . S
C1804 H1779 0.930 . S
C1804 C1807 1.388 . S
C1804 C1809 1.418 . S
C1805 H1800 0.930 . S
C1805 C1808 1.404 . S
C1805 C1809 1.353 . S
N1806 Co1771 2.145 . S
N1806 C1807 1.397 . S
N1806 C1808 1.334 . S
C1807 H1788 0.929 . S
C1807 C1804 1.388 . S
C1807 N1806 1.397 . S
C1808 H1789 0.929 . S
C1808 C1805 1.404 . S
C1808 N1806 1.334 . S
C1809 H1801 0.930 . S
C1809 C1804 1.418 . S
C1809 C1805 1.353 . S
C1810 H1780 0.930 . S
C1810 N1811 1.330 . S
C1810 C1812 1.446 1_545 S
N1811 Co1770 2.151 . S
N1811 C1810 1.330 . S
N1811 C1815 1.418 . S
C1812 H1791 0.929 . S
C1812 C1810 1.446 1_565 S
C1812 C1813 1.332 . S
C1813 H1793 0.931 . S
C1813 C1812 1.332 . S
C1813 C1814 1.281 . S
C1814 H1782 0.933 . S
C1814 C1813 1.281 . S
C1814 C1815 1.234 1_565 S
C1815 H1785 0.929 . S
C1815 N1811 1.418 . S
C1815 C1814 1.234 1_545 S
C1816 H1783 0.930 . S
C1816 C1818 1.406 . S
C1816 C1821 1.261 . S
C1817 H1784 0.930 1_655 S
C1817 N1819 1.325 1_655 S
C1817 C1820 1.357 . S
C1818 H1786 0.928 . S
C1818 C1816 1.406 . S
C1818 N1819 1.261 1_655 S
N1819 Co1770 2.214 . S
N1819 C1817 1.325 1_455 S
N1819 C1818 1.261 1_455 S
C1820 H1790 0.931 . S
C1820 C1817 1.357 . S
C1820 C1821 1.312 . S
C1821 H1792 0.930 . S
C1821 C1816 1.261 . S
C1821 C1820 1.312 . S
C1822 O1794 1.214 . S
C1822 O1802 1.234 . S
C1823 H1795 0.929 . S
C1823 C1826 1.391 . S
C1823 C1828 1.391 . S
C1824 H1796 0.929 . S
C1824 C1825 1.390 . S
C1824 N1827 1.391 . S
C1825 H1797 0.930 . S
C1825 C1824 1.390 . S
C1825 C1826 1.392 . S
C1826 H1798 0.929 . S
C1826 C1823 1.391 . S
C1826 C1825 1.392 . S
N1827 Co1771 2.257 . S
N1827 C1824 1.391 . S
N1827 C1828 1.388 . S
C1828 H1799 0.930 . S
C1828 C1823 1.391 . S
C1828 N1827 1.388 . S
Co1829 O1831 2.143 . S
Co1829 O1837 2.074 . S
Co1829 O1840 2.093 . S
Co1829 O1853 2.097 . S
Co1829 N1870 2.151 . S
Co1829 N1878 2.214 . S
Co1830 O1831 2.160 . S
Co1830 O1836 2.058 . S
Co1830 O1846 2.057 . S
Co1830 O1861 2.037 . S
Co1830 N1865 2.145 . S
Co1830 N1886 2.257 . S
O1831 Co1829 2.143 . S
O1831 Co1830 2.160 . S
C1832 O1833 1.278 . S
C1832 O1840 1.224 . S
O1833 C1832 1.278 . S
C1834 O1835 1.245 . S
C1834 O1846 1.232 . S
O1835 C1834 1.245 . S
O1836 Co1830 2.058 . S
O1836 C1862 1.269 . S
O1837 Co1829 2.074 . S
O1837 C1862 1.257 . S
H1838 C1863 0.930 . S
H1839 C1869 0.930 . S
O1840 Co1829 2.093 . S
O1840 C1832 1.224 . S
H1841 C1873 0.929 . S
H1842 C1875 0.930 . S
H1843 C1876 0.930 . S
H1844 C1874 0.929 . S
H1845 C1877 0.928 . S
O1846 Co1830 2.057 . S
O1846 C1834 1.232 . S
H1847 C1866 0.929 . S
H1848 C1867 0.929 . S
H1849 C1879 0.931 . S
H1850 C1871 0.929 . S
H1851 C1880 0.930 . S
H1852 C1872 0.931 . S
O1853 Co1829 2.097 . S
O1853 C1881 1.214 . S
H1854 C1882 0.929 . S
H1855 C1883 0.929 . S
H1856 C1884 0.930 . S
H1857 C1885 0.929 . S
H1858 C1887 0.930 . S
H1859 C1864 0.930 . S
H1860 C1868 0.930 . S
O1861 Co1830 2.037 . S
O1861 C1881 1.234 . S
C1862 O1836 1.269 . S
C1862 O1837 1.257 . S
C1863 H1838 0.930 . S
C1863 C1866 1.388 . S
C1863 C1868 1.418 . S
C1864 H1859 0.930 . S
C1864 C1867 1.404 . S
C1864 C1868 1.353 . S
N1865 Co1830 2.145 . S
N1865 C1866 1.397 . S
N1865 C1867 1.334 . S
C1866 H1847 0.929 . S
C1866 C1863 1.388 . S
C1866 N1865 1.397 . S
C1867 H1848 0.929 . S
C1867 C1864 1.404 . S
C1867 N1865 1.334 . S
C1868 H1860 0.930 . S
C1868 C1863 1.418 . S
C1868 C1864 1.353 . S
C1869 H1839 0.930 . S
C1869 N1870 1.330 . S
C1869 C1871 1.446 . S
N1870 Co1829 2.151 . S
N1870 C1869 1.330 . S
N1870 C1874 1.418 . S
C1871 H1850 0.929 . S
C1871 C1869 1.446 . S
C1871 C1872 1.332 . S
C1872 H1852 0.931 . S
C1872 C1871 1.332 . S
C1872 C1873 1.267 . S
C1873 H1841 0.929 . S
C1873 C1872 1.267 . S
C1873 C1874 1.251 . S
C1874 H1844 0.929 . S
C1874 N1870 1.418 . S
C1874 C1873 1.251 . S
C1875 H1842 0.930 . S
C1875 C1877 1.406 . S
C1875 C1880 1.261 . S
C1876 H1843 0.930 . S
C1876 N1878 1.325 . S
C1876 C1879 1.357 . S
C1877 H1845 0.928 . S
C1877 C1875 1.406 . S
C1877 N1878 1.261 . S
N1878 Co1829 2.214 . S
N1878 C1876 1.325 . S
N1878 C1877 1.261 . S
C1879 H1849 0.931 . S
C1879 C1876 1.357 . S
C1879 C1880 1.312 . S
C1880 H1851 0.930 . S
C1880 C1875 1.261 . S
C1880 C1879 1.312 . S
C1881 O1853 1.214 . S
C1881 O1861 1.234 . S
C1882 H1854 0.929 . S
C1882 C1885 1.391 . S
C1882 C1887 1.391 . S
C1883 H1855 0.929 . S
C1883 C1884 1.390 . S
C1883 N1886 1.391 . S
C1884 H1856 0.930 . S
C1884 C1883 1.390 . S
C1884 C1885 1.392 . S
C1885 H1857 0.929 . S
C1885 C1882 1.391 . S
C1885 C1884 1.392 . S
N1886 Co1830 2.257 . S
N1886 C1883 1.391 . S
N1886 C1887 1.388 . S
C1887 H1858 0.930 . S
C1887 C1882 1.391 . S
C1887 N1886 1.388 . S
C1888 C1889 1.387 . S
C1888 H1892 0.950 . S
C1888 C1897 1.390 1_655 S
C1889 C1888 1.387 . S
C1889 C1891 1.387 1_556 S
H1890 C1897 0.950 . S
C1891 C1889 1.387 1_554 S
C1891 C1893 1.390 1_655 S
C1891 H1895 0.950 . S
H1892 C1888 0.950 . S
C1893 C1891 1.390 1_455 S
C1893 C1894 1.387 . S
C1893 H1896 0.950 . S
C1894 C1893 1.387 . S
C1894 C1897 1.387 1_554 S
H1895 C1891 0.950 . S
H1896 C1893 0.950 . S
C1897 C1888 1.390 1_455 S
C1897 H1890 0.950 . S
C1897 C1894 1.387 1_556 S
C1898 C1899 1.387 . S
C1898 H1902 0.950 . S
C1898 C1907 1.390 . S
C1899 C1898 1.387 . S
C1899 C1901 1.387 . S
H1900 C1907 0.950 . S
C1901 C1899 1.387 . S
C1901 C1903 1.390 . S
C1901 H1905 0.950 . S
H1902 C1898 0.950 . S
C1903 C1901 1.390 . S
C1903 C1904 1.387 . S
C1903 H1906 0.950 . S
C1904 C1903 1.387 . S
C1904 C1907 1.387 . S
H1905 C1901 0.950 . S
H1906 C1903 0.950 . S
C1907 C1898 1.390 . S
C1907 H1900 0.950 . S
C1907 C1904 1.387 . S
C1908 C1909 1.387 . S
C1908 H1912 0.950 . S
C1908 C1917 1.390 . S
C1909 C1908 1.387 . S
C1909 C1911 1.387 . S
H1910 C1917 0.950 . S
C1911 C1909 1.387 . S
C1911 C1913 1.390 . S
C1911 H1915 0.950 . S
H1912 C1908 0.950 . S
C1913 C1911 1.390 . S
C1913 C1914 1.387 . S
C1913 H1916 0.950 . S
C1914 C1913 1.387 . S
C1914 C1917 1.387 . S
H1915 C1911 0.950 . S
H1916 C1913 0.950 . S
C1917 C1908 1.390 . S
C1917 H1910 0.950 . S
C1917 C1914 1.387 . S
C1918 C1919 1.387 . S
C1918 H1922 0.950 . S
C1918 C1927 1.390 . S
C1919 C1918 1.387 . S
C1919 C1921 1.387 . S
H1920 C1927 0.950 . S
C1921 C1919 1.387 . S
C1921 C1923 1.390 . S
C1921 H1925 0.950 . S
H1922 C1918 0.950 . S
C1923 C1921 1.390 . S
C1923 C1924 1.387 . S
C1923 H1926 0.950 . S
C1924 C1923 1.387 . S
C1924 C1927 1.387 . S
H1925 C1921 0.950 . S
H1926 C1923 0.950 . S
C1927 C1918 1.390 . S
C1927 H1920 0.950 . S
C1927 C1924 1.387 . S
C1928 C1929 1.387 1_455 S
C1928 H1932 0.950 . S
C1928 C1937 1.390 . S
C1929 C1928 1.387 1_655 S
C1929 C1931 1.387 . S
H1930 C1937 0.950 . S
C1931 C1929 1.387 . S
C1931 C1933 1.390 . S
C1931 H1935 0.950 . S
H1932 C1928 0.950 . S
C1933 C1931 1.390 . S
C1933 C1934 1.387 1_655 S
C1933 H1936 0.950 . S
C1934 C1933 1.387 1_455 S
C1934 C1937 1.387 . S
H1935 C1931 0.950 . S
H1936 C1933 0.950 . S
C1937 C1928 1.390 . S
C1937 H1930 0.950 . S
C1937 C1934 1.387 . S
C1938 C1939 1.387 . S
C1938 H1942 0.950 . S
C1938 C1947 1.390 . S
C1939 C1938 1.387 . S
C1939 C1941 1.387 . S
H1940 C1947 0.950 . S
C1941 C1939 1.387 . S
C1941 C1943 1.390 . S
C1941 H1945 0.950 . S
H1942 C1938 0.950 . S
C1943 C1941 1.390 . S
C1943 C1944 1.387 . S
C1943 H1946 0.950 . S
C1944 C1943 1.387 . S
C1944 C1947 1.387 . S
H1945 C1941 0.950 . S
H1946 C1943 0.950 . S
C1947 C1938 1.390 . S
C1947 H1940 0.950 . S
C1947 C1944 1.387 . S
C1948 C1949 1.387 . S
C1948 H1952 0.950 . S
C1948 C1957 1.390 . S
C1949 C1948 1.387 . S
C1949 C1951 1.387 1_556 S
H1950 C1957 0.950 . S
C1951 C1949 1.387 1_554 S
C1951 C1953 1.390 . S
C1951 H1955 0.950 . S
H1952 C1948 0.950 . S
C1953 C1951 1.390 . S
C1953 C1954 1.387 . S
C1953 H1956 0.950 . S
C1954 C1953 1.387 . S
C1954 C1957 1.387 1_554 S
H1955 C1951 0.950 . S
H1956 C1953 0.950 . S
C1957 C1948 1.390 . S
C1957 H1950 0.950 . S
C1957 C1954 1.387 1_556 S
C1958 C1959 1.387 . S
C1958 H1962 0.950 . S
C1958 C1967 1.390 . S
C1959 C1958 1.387 . S
C1959 C1961 1.387 . S
H1960 C1967 0.950 . S
C1961 C1959 1.387 . S
C1961 C1963 1.390 . S
C1961 H1965 0.950 . S
H1962 C1958 0.950 . S
C1963 C1961 1.390 . S
C1963 C1964 1.387 . S
C1963 H1966 0.950 . S
C1964 C1963 1.387 . S
C1964 C1967 1.387 . S
H1965 C1961 0.950 . S
H1966 C1963 0.950 . S
C1967 C1958 1.390 . S
C1967 H1960 0.950 . S
C1967 C1964 1.387 . S
C1968 C1969 1.387 . S
C1968 H1972 0.950 . S
C1968 C1977 1.390 . S
C1969 C1968 1.387 . S
C1969 C1971 1.387 . S
H1970 C1977 0.950 . S
C1971 C1969 1.387 . S
C1971 C1973 1.390 . S
C1971 H1975 0.950 . S
H1972 C1968 0.950 . S
C1973 C1971 1.390 . S
C1973 C1974 1.387 . S
C1973 H1976 0.950 . S
C1974 C1973 1.387 . S
C1974 C1977 1.387 . S
H1975 C1971 0.950 . S
H1976 C1973 0.950 . S
C1977 C1968 1.390 . S
C1977 H1970 0.950 . S
C1977 C1974 1.387 . S
C1978 C1979 1.387 . S
C1978 H1982 0.950 . S
C1978 C1987 1.390 . S
C1979 C1978 1.387 . S
C1979 C1981 1.387 . S
H1980 C1987 0.950 . S
C1981 C1979 1.387 . S
C1981 C1983 1.390 . S
C1981 H1985 0.950 . S
H1982 C1978 0.950 . S
C1983 C1981 1.390 . S
C1983 C1984 1.387 . S
C1983 H1986 0.950 . S
C1984 C1983 1.387 . S
C1984 C1987 1.387 . S
H1985 C1981 0.950 . S
H1986 C1983 0.950 . S
C1987 C1978 1.390 . S
C1987 H1980 0.950 . S
C1987 C1984 1.387 . S
C1988 C1989 1.387 . S
C1988 H1992 0.950 . S
C1988 C1997 1.390 . S
C1989 C1988 1.387 . S
C1989 C1991 1.387 . S
H1990 C1997 0.950 . S
C1991 C1989 1.387 . S
C1991 C1993 1.390 . S
C1991 H1995 0.950 . S
H1992 C1988 0.950 . S
C1993 C1991 1.390 . S
C1993 C1994 1.387 . S
C1993 H1996 0.950 . S
C1994 C1993 1.387 . S
C1994 C1997 1.387 . S
H1995 C1991 0.950 . S
H1996 C1993 0.950 . S
C1997 C1988 1.390 . S
C1997 H1990 0.950 . S
C1997 C1994 1.387 . S
C1998 C1999 1.387 . S
C1998 H2002 0.950 . S
C1998 C2007 1.390 . S
C1999 C1998 1.387 . S
C1999 C2001 1.387 . S
H2000 C2007 0.950 . S
C2001 C1999 1.387 . S
C2001 C2003 1.390 . S
C2001 H2005 0.950 . S
H2002 C1998 0.950 . S
C2003 C2001 1.390 . S
C2003 C2004 1.387 . S
C2003 H2006 0.950 . S
C2004 C2003 1.387 . S
C2004 C2007 1.387 . S
H2005 C2001 0.950 . S
H2006 C2003 0.950 . S
C2007 C1998 1.390 . S
C2007 H2000 0.950 . S
C2007 C2004 1.387 . S
C2008 C2009 1.387 . S
C2008 H2012 0.950 . S
C2008 C2017 1.390 1_565 S
C2009 C2008 1.387 . S
C2009 C2011 1.387 . S
H2010 C2017 0.950 . S
C2011 C2009 1.387 . S
C2011 C2013 1.390 1_565 S
C2011 H2015 0.950 . S
H2012 C2008 0.950 . S
C2013 C2011 1.390 1_545 S
C2013 C2014 1.387 . S
C2013 H2016 0.950 . S
C2014 C2013 1.387 . S
C2014 C2017 1.387 . S
H2015 C2011 0.950 . S
H2016 C2013 0.950 . S
C2017 C2008 1.390 1_545 S
C2017 H2010 0.950 . S
C2017 C2014 1.387 . S
C2018 C2019 1.387 1_554 S
C2018 H2022 0.950 . S
C2018 C2027 1.390 1_465 S
C2019 C2018 1.387 1_556 S
C2019 C2021 1.387 . S
H2020 C2027 0.950 . S
C2021 C2019 1.387 . S
C2021 C2023 1.390 1_465 S
C2021 H2025 0.950 . S
H2022 C2018 0.950 . S
C2023 C2021 1.390 1_645 S
C2023 C2024 1.387 1_556 S
C2023 H2026 0.950 . S
C2024 C2023 1.387 1_554 S
C2024 C2027 1.387 . S
H2025 C2021 0.950 . S
H2026 C2023 0.950 . S
C2027 C2018 1.390 1_645 S
C2027 H2020 0.950 . S
C2027 C2024 1.387 . S
C2028 C2029 1.387 . S
C2028 H2032 0.950 . S
C2028 C2037 1.390 1_545 S
C2029 C2028 1.387 . S
C2029 C2031 1.387 1_556 S
H2030 C2037 0.950 . S
C2031 C2029 1.387 1_554 S
C2031 C2033 1.390 1_545 S
C2031 H2035 0.950 . S
H2032 C2028 0.950 . S
C2033 C2031 1.390 1_565 S
C2033 C2034 1.387 . S
C2033 H2036 0.950 . S
C2034 C2033 1.387 . S
C2034 C2037 1.387 1_554 S
H2035 C2031 0.950 . S
H2036 C2033 0.950 . S
C2037 C2028 1.390 1_565 S
C2037 H2030 0.950 . S
C2037 C2034 1.387 1_556 S
C2038 C2039 1.387 . S
C2038 H2042 0.950 . S
C2038 C2047 1.390 1_445 S
C2039 C2038 1.387 . S
C2039 C2041 1.387 . S
H2040 C2047 0.950 . S
C2041 C2039 1.387 . S
C2041 C2043 1.390 1_445 S
C2041 H2045 0.950 . S
H2042 C2038 0.950 . S
C2043 C2041 1.390 1_665 S
C2043 C2044 1.387 . S
C2043 H2046 0.950 . S
C2044 C2043 1.387 . S
C2044 C2047 1.387 . S
H2045 C2041 0.950 . S
H2046 C2043 0.950 . S
C2047 C2038 1.390 1_665 S
C2047 H2040 0.950 . S
C2047 C2044 1.387 . S
C2048 C2049 1.387 . S
C2048 H2052 0.950 . S
C2048 C2057 1.390 1_655 S
C2049 C2048 1.387 . S
C2049 C2051 1.387 . S
H2050 C2057 0.950 . S
C2051 C2049 1.387 . S
C2051 C2053 1.390 1_655 S
C2051 H2055 0.950 . S
H2052 C2048 0.950 . S
C2053 C2051 1.390 1_455 S
C2053 C2054 1.387 . S
C2053 H2056 0.950 . S
C2054 C2053 1.387 . S
C2054 C2057 1.387 . S
H2055 C2051 0.950 . S
H2056 C2053 0.950 . S
C2057 C2048 1.390 1_455 S
C2057 H2050 0.950 . S
C2057 C2054 1.387 . S
C2058 C2059 1.387 . S
C2058 H2062 0.950 . S
C2058 C2067 1.390 1_455 S
C2059 C2058 1.387 . S
C2059 C2061 1.387 . S
H2060 C2067 0.950 . S
C2061 C2059 1.387 . S
C2061 C2063 1.390 1_455 S
C2061 H2065 0.950 . S
H2062 C2058 0.950 . S
C2063 C2061 1.390 1_655 S
C2063 C2064 1.387 . S
C2063 H2066 0.950 . S
C2064 C2063 1.387 . S
C2064 C2067 1.387 . S
H2065 C2061 0.950 . S
H2066 C2063 0.950 . S
C2067 C2058 1.390 1_655 S
C2067 H2060 0.950 . S
C2067 C2064 1.387 . S
C2068 C2069 1.387 . S
C2068 H2072 0.950 . S
C2068 C2077 1.390 . S
C2069 C2068 1.387 . S
C2069 C2071 1.387 . S
H2070 C2077 0.950 . S
C2071 C2069 1.387 . S
C2071 C2073 1.390 . S
C2071 H2075 0.950 . S
H2072 C2068 0.950 . S
C2073 C2071 1.390 . S
C2073 C2074 1.387 . S
C2073 H2076 0.950 . S
C2074 C2073 1.387 . S
C2074 C2077 1.387 . S
H2075 C2071 0.950 . S
H2076 C2073 0.950 . S
C2077 C2068 1.390 . S
C2077 H2070 0.950 . S
C2077 C2074 1.387 . S
C2078 C2079 1.387 . S
C2078 H2082 0.950 . S
C2078 C2087 1.390 . S
C2079 C2078 1.387 . S
C2079 C2081 1.387 . S
H2080 C2087 0.950 . S
C2081 C2079 1.387 . S
C2081 C2083 1.390 . S
C2081 H2085 0.950 . S
H2082 C2078 0.950 . S
C2083 C2081 1.390 . S
C2083 C2084 1.387 . S
C2083 H2086 0.950 . S
C2084 C2083 1.387 . S
C2084 C2087 1.387 . S
H2085 C2081 0.950 . S
H2086 C2083 0.950 . S
C2087 C2078 1.390 . S
C2087 H2080 0.950 . S
C2087 C2084 1.387 . S
C2088 C2089 1.387 . S
C2088 H2092 0.950 . S
C2088 C2097 1.390 1_655 S
C2089 C2088 1.387 . S
C2089 C2091 1.387 . S
H2090 C2097 0.950 . S
C2091 C2089 1.387 . S
C2091 C2093 1.390 1_655 S
C2091 H2095 0.950 . S
H2092 C2088 0.950 . S
C2093 C2091 1.390 1_455 S
C2093 C2094 1.387 . S
C2093 H2096 0.950 . S
C2094 C2093 1.387 . S
C2094 C2097 1.387 . S
H2095 C2091 0.950 . S
H2096 C2093 0.950 . S
C2097 C2088 1.390 1_455 S
C2097 H2090 0.950 . S
C2097 C2094 1.387 . S
C2098 C2099 1.387 . S
C2098 H2102 0.950 . S
C2098 C2107 1.390 . S
C2099 C2098 1.387 . S
C2099 C2101 1.387 . S
H2100 C2107 0.950 . S
C2101 C2099 1.387 . S
C2101 C2103 1.390 . S
C2101 H2105 0.950 . S
H2102 C2098 0.950 . S
C2103 C2101 1.390 . S
C2103 C2104 1.387 . S
C2103 H2106 0.950 . S
C2104 C2103 1.387 . S
C2104 C2107 1.387 . S
H2105 C2101 0.950 . S
H2106 C2103 0.950 . S
C2107 C2098 1.390 . S
C2107 H2100 0.950 . S
C2107 C2104 1.387 . S
C2108 C2109 1.387 . S
C2108 H2112 0.950 . S
C2108 C2117 1.390 . S
C2109 C2108 1.387 . S
C2109 C2111 1.387 . S
H2110 C2117 0.950 . S
C2111 C2109 1.387 . S
C2111 C2113 1.390 . S
C2111 H2115 0.950 . S
H2112 C2108 0.950 . S
C2113 C2111 1.390 . S
C2113 C2114 1.387 . S
C2113 H2116 0.950 . S
C2114 C2113 1.387 . S
C2114 C2117 1.387 . S
H2115 C2111 0.950 . S
H2116 C2113 0.950 . S
C2117 C2108 1.390 . S
C2117 H2110 0.950 . S
C2117 C2114 1.387 . S
C2118 C2119 1.387 . S
C2118 H2122 0.950 . S
C2118 C2127 1.390 1_455 S
C2119 C2118 1.387 . S
C2119 C2121 1.387 . S
H2120 C2127 0.950 . S
C2121 C2119 1.387 . S
C2121 C2123 1.390 1_455 S
C2121 H2125 0.950 . S
H2122 C2118 0.950 . S
C2123 C2121 1.390 1_655 S
C2123 C2124 1.387 . S
C2123 H2126 0.950 . S
C2124 C2123 1.387 . S
C2124 C2127 1.387 . S
H2125 C2121 0.950 . S
H2126 C2123 0.950 . S
C2127 C2118 1.390 1_655 S
C2127 H2120 0.950 . S
C2127 C2124 1.387 . S
C2128 C2129 1.387 . S
C2128 H2132 0.950 . S
C2128 C2137 1.390 1_655 S
C2129 C2128 1.387 . S
C2129 C2131 1.387 . S
H2130 C2137 0.950 . S
C2131 C2129 1.387 . S
C2131 C2133 1.390 1_655 S
C2131 H2135 0.950 . S
H2132 C2128 0.950 . S
C2133 C2131 1.390 1_455 S
C2133 C2134 1.387 . S
C2133 H2136 0.950 . S
C2134 C2133 1.387 . S
C2134 C2137 1.387 . S
H2135 C2131 0.950 . S
H2136 C2133 0.950 . S
C2137 C2128 1.390 1_455 S
C2137 H2130 0.950 . S
C2137 C2134 1.387 . S
C2138 C2139 1.387 . S
C2138 H2142 0.950 . S
C2138 C2147 1.390 1_655 S
C2139 C2138 1.387 . S
C2139 C2141 1.387 . S
H2140 C2147 0.950 . S
C2141 C2139 1.387 . S
C2141 C2143 1.390 1_655 S
C2141 H2145 0.950 . S
H2142 C2138 0.950 . S
C2143 C2141 1.390 1_455 S
C2143 C2144 1.387 . S
C2143 H2146 0.950 . S
C2144 C2143 1.387 . S
C2144 C2147 1.387 . S
H2145 C2141 0.950 . S
H2146 C2143 0.950 . S
C2147 C2138 1.390 1_455 S
C2147 H2140 0.950 . S
C2147 C2144 1.387 . S
C2148 C2149 1.387 . S
C2148 H2152 0.950 . S
C2148 C2157 1.390 . S
C2149 C2148 1.387 . S
C2149 C2151 1.387 . S
H2150 C2157 0.950 . S
C2151 C2149 1.387 . S
C2151 C2153 1.390 . S
C2151 H2155 0.950 . S
H2152 C2148 0.950 . S
C2153 C2151 1.390 . S
C2153 C2154 1.387 . S
C2153 H2156 0.950 . S
C2154 C2153 1.387 . S
C2154 C2157 1.387 . S
H2155 C2151 0.950 . S
H2156 C2153 0.950 . S
C2157 C2148 1.390 . S
C2157 H2150 0.950 . S
C2157 C2154 1.387 . S
C2158 C2159 1.387 . S
C2158 H2162 0.950 . S
C2158 C2167 1.390 . S
C2159 C2158 1.387 . S
C2159 C2161 1.387 . S
H2160 C2167 0.950 . S
C2161 C2159 1.387 . S
C2161 C2163 1.390 . S
C2161 H2165 0.950 . S
H2162 C2158 0.950 . S
C2163 C2161 1.390 . S
C2163 C2164 1.387 . S
C2163 H2166 0.950 . S
C2164 C2163 1.387 . S
C2164 C2167 1.387 . S
H2165 C2161 0.950 . S
H2166 C2163 0.950 . S
C2167 C2158 1.390 . S
C2167 H2160 0.950 . S
C2167 C2164 1.387 . S
C2168 C2169 1.387 . S
C2168 H2172 0.950 . S
C2168 C2177 1.390 1_655 S
C2169 C2168 1.387 . S
C2169 C2171 1.387 . S
H2170 C2177 0.950 . S
C2171 C2169 1.387 . S
C2171 C2173 1.390 1_655 S
C2171 H2175 0.950 . S
H2172 C2168 0.950 . S
C2173 C2171 1.390 1_455 S
C2173 C2174 1.387 . S
C2173 H2176 0.950 . S
C2174 C2173 1.387 . S
C2174 C2177 1.387 . S
H2175 C2171 0.950 . S
H2176 C2173 0.950 . S
C2177 C2168 1.390 1_455 S
C2177 H2170 0.950 . S
C2177 C2174 1.387 . S
C2178 C2179 1.387 . S
C2178 H2182 0.950 . S
C2178 C2187 1.390 . S
C2179 C2178 1.387 . S
C2179 C2181 1.387 . S
H2180 C2187 0.950 . S
C2181 C2179 1.387 . S
C2181 C2183 1.390 . S
C2181 H2185 0.950 . S
H2182 C2178 0.950 . S
C2183 C2181 1.390 . S
C2183 C2184 1.387 . S
C2183 H2186 0.950 . S
C2184 C2183 1.387 . S
C2184 C2187 1.387 . S
H2185 C2181 0.950 . S
H2186 C2183 0.950 . S
C2187 C2178 1.390 . S
C2187 H2180 0.950 . S
C2187 C2184 1.387 . S
C2188 C2189 1.387 . S
C2188 H2192 0.950 . S
C2188 C2197 1.390 . S
C2189 C2188 1.387 . S
C2189 C2191 1.387 . S
H2190 C2197 0.950 . S
C2191 C2189 1.387 . S
C2191 C2193 1.390 . S
C2191 H2195 0.950 . S
H2192 C2188 0.950 . S
C2193 C2191 1.390 . S
C2193 C2194 1.387 . S
C2193 H2196 0.950 . S
C2194 C2193 1.387 . S
C2194 C2197 1.387 . S
H2195 C2191 0.950 . S
H2196 C2193 0.950 . S
C2197 C2188 1.390 . S
C2197 H2190 0.950 . S
C2197 C2194 1.387 . S
C2198 C2199 1.387 . S
C2198 H2202 0.950 . S
C2198 C2207 1.390 1_655 S
C2199 C2198 1.387 . S
C2199 C2201 1.387 . S
H2200 C2207 0.950 . S
C2201 C2199 1.387 . S
C2201 C2203 1.390 1_655 S
C2201 H2205 0.950 . S
H2202 C2198 0.950 . S
C2203 C2201 1.390 1_455 S
C2203 C2204 1.387 . S
C2203 H2206 0.950 . S
C2204 C2203 1.387 . S
C2204 C2207 1.387 . S
H2205 C2201 0.950 . S
H2206 C2203 0.950 . S
C2207 C2198 1.390 1_455 S
C2207 H2200 0.950 . S
C2207 C2204 1.387 . S
C2208 C2209 1.387 . S
C2208 H2212 0.950 . S
C2208 C2217 1.390 1_556 S
C2209 C2208 1.387 . S
C2209 C2211 1.387 . S
H2210 C2217 0.950 . S
C2211 C2209 1.387 . S
C2211 C2213 1.390 1_556 S
C2211 H2215 0.950 . S
H2212 C2208 0.950 . S
C2213 C2211 1.390 1_554 S
C2213 C2214 1.387 . S
C2213 H2216 0.950 . S
C2214 C2213 1.387 . S
C2214 C2217 1.387 . S
H2215 C2211 0.950 . S
H2216 C2213 0.950 . S
C2217 C2208 1.390 1_554 S
C2217 H2210 0.950 . S
C2217 C2214 1.387 . S
C2218 C2219 1.387 . S
C2218 H2222 0.950 . S
C2218 C2227 1.390 1_545 S
C2219 C2218 1.387 . S
C2219 C2221 1.387 . S
H2220 C2227 0.950 . S
C2221 C2219 1.387 . S
C2221 C2223 1.390 1_545 S
C2221 H2225 0.950 . S
H2222 C2218 0.950 . S
C2223 C2221 1.390 1_565 S
C2223 C2224 1.387 . S
C2223 H2226 0.950 . S
C2224 C2223 1.387 . S
C2224 C2227 1.387 . S
H2225 C2221 0.950 . S
H2226 C2223 0.950 . S
C2227 C2218 1.390 1_565 S
C2227 H2220 0.950 . S
C2227 C2224 1.387 . S
C2228 C2229 1.387 . S
C2228 H2232 0.950 . S
C2228 C2237 1.390 . S
C2229 C2228 1.387 . S
C2229 C2231 1.387 . S
H2230 C2237 0.950 . S
C2231 C2229 1.387 . S
C2231 C2233 1.390 . S
C2231 H2235 0.950 . S
H2232 C2228 0.950 . S
C2233 C2231 1.390 . S
C2233 C2234 1.387 . S
C2233 H2236 0.950 . S
C2234 C2233 1.387 . S
C2234 C2237 1.387 . S
H2235 C2231 0.950 . S
H2236 C2233 0.950 . S
C2237 C2228 1.390 . S
C2237 H2230 0.950 . S
C2237 C2234 1.387 . S
C2238 C2239 1.387 . S
C2238 H2242 0.950 . S
C2238 C2247 1.390 1_545 S
C2239 C2238 1.387 . S
C2239 C2241 1.387 . S
H2240 C2247 0.950 . S
C2241 C2239 1.387 . S
C2241 C2243 1.390 1_545 S
C2241 H2245 0.950 . S
H2242 C2238 0.950 . S
C2243 C2241 1.390 1_565 S
C2243 C2244 1.387 . S
C2243 H2246 0.950 . S
C2244 C2243 1.387 . S
C2244 C2247 1.387 . S
H2245 C2241 0.950 . S
H2246 C2243 0.950 . S
C2247 C2238 1.390 1_565 S
C2247 H2240 0.950 . S
C2247 C2244 1.387 . S
C2248 C2249 1.387 . S
C2248 H2252 0.950 . S
C2248 C2257 1.390 1_554 S
C2249 C2248 1.387 . S
C2249 C2251 1.387 . S
H2250 C2257 0.950 . S
C2251 C2249 1.387 . S
C2251 C2253 1.390 1_554 S
C2251 H2255 0.950 . S
H2252 C2248 0.950 . S
C2253 C2251 1.390 1_556 S
C2253 C2254 1.387 . S
C2253 H2256 0.950 . S
C2254 C2253 1.387 . S
C2254 C2257 1.387 . S
H2255 C2251 0.950 . S
H2256 C2253 0.950 . S
C2257 C2248 1.390 1_556 S
C2257 H2250 0.950 . S
C2257 C2254 1.387 . S
C2258 C2259 1.387 . S
C2258 H2262 0.950 . S
C2258 C2267 1.390 1_565 S
C2259 C2258 1.387 . S
C2259 C2261 1.387 . S
H2260 C2267 0.950 . S
C2261 C2259 1.387 . S
C2261 C2263 1.390 1_565 S
C2261 H2265 0.950 . S
H2262 C2258 0.950 . S
C2263 C2261 1.390 1_545 S
C2263 C2264 1.387 . S
C2263 H2266 0.950 . S
C2264 C2263 1.387 . S
C2264 C2267 1.387 . S
H2265 C2261 0.950 . S
H2266 C2263 0.950 . S
C2267 C2258 1.390 1_545 S
C2267 H2260 0.950 . S
C2267 C2264 1.387 . S
C2268 C2269 1.387 . S
C2268 H2272 0.950 . S
C2268 C2277 1.390 . S
C2269 C2268 1.387 . S
C2269 C2271 1.387 . S
H2270 C2277 0.950 . S
C2271 C2269 1.387 . S
C2271 C2273 1.390 . S
C2271 H2275 0.950 . S
H2272 C2268 0.950 . S
C2273 C2271 1.390 . S
C2273 C2274 1.387 . S
C2273 H2276 0.950 . S
C2274 C2273 1.387 . S
C2274 C2277 1.387 . S
H2275 C2271 0.950 . S
H2276 C2273 0.950 . S
C2277 C2268 1.390 . S
C2277 H2270 0.950 . S
C2277 C2274 1.387 . S
C2278 C2279 1.387 . S
C2278 H2282 0.950 . S
C2278 C2287 1.390 1_545 S
C2279 C2278 1.387 . S
C2279 C2281 1.387 . S
H2280 C2287 0.950 . S
C2281 C2279 1.387 . S
C2281 C2283 1.390 1_545 S
C2281 H2285 0.950 . S
H2282 C2278 0.950 . S
C2283 C2281 1.390 1_565 S
C2283 C2284 1.387 . S
C2283 H2286 0.950 . S
C2284 C2283 1.387 . S
C2284 C2287 1.387 . S
H2285 C2281 0.950 . S
H2286 C2283 0.950 . S
C2287 C2278 1.390 1_565 S
C2287 H2280 0.950 . S
C2287 C2284 1.387 . S
C2288 C2289 1.387 . S
C2288 H2292 0.950 . S
C2288 C2297 1.390 . S
C2289 C2288 1.387 . S
C2289 C2291 1.387 . S
H2290 C2297 0.950 . S
C2291 C2289 1.387 . S
C2291 C2293 1.390 . S
C2291 H2295 0.950 . S
H2292 C2288 0.950 . S
C2293 C2291 1.390 . S
C2293 C2294 1.387 . S
C2293 H2296 0.950 . S
C2294 C2293 1.387 . S
C2294 C2297 1.387 . S
H2295 C2291 0.950 . S
H2296 C2293 0.950 . S
C2297 C2288 1.390 . S
C2297 H2290 0.950 . S
C2297 C2294 1.387 . S
C2298 C2299 1.387 . S
C2298 H2302 0.950 . S
C2298 C2307 1.390 . S
C2299 C2298 1.387 . S
C2299 C2301 1.387 . S
H2300 C2307 0.950 . S
C2301 C2299 1.387 . S
C2301 C2303 1.390 . S
C2301 H2305 0.950 . S
H2302 C2298 0.950 . S
C2303 C2301 1.390 . S
C2303 C2304 1.387 . S
C2303 H2306 0.950 . S
C2304 C2303 1.387 . S
C2304 C2307 1.387 . S
H2305 C2301 0.950 . S
H2306 C2303 0.950 . S
C2307 C2298 1.390 . S
C2307 H2300 0.950 . S
C2307 C2304 1.387 . S
C2308 C2309 1.387 . S
C2308 H2312 0.950 . S
C2308 C2317 1.390 1_554 S
C2309 C2308 1.387 . S
C2309 C2311 1.387 . S
H2310 C2317 0.950 . S
C2311 C2309 1.387 . S
C2311 C2313 1.390 1_554 S
C2311 H2315 0.950 . S
H2312 C2308 0.950 . S
C2313 C2311 1.390 1_556 S
C2313 C2314 1.387 . S
C2313 H2316 0.950 . S
C2314 C2313 1.387 . S
C2314 C2317 1.387 . S
H2315 C2311 0.950 . S
H2316 C2313 0.950 . S
C2317 C2308 1.390 1_556 S
C2317 H2310 0.950 . S
C2317 C2314 1.387 . S
C2318 C2319 1.387 . S
C2318 H2322 0.950 . S
C2318 C2327 1.390 . S
C2319 C2318 1.387 . S
C2319 C2321 1.387 . S
H2320 C2327 0.950 . S
C2321 C2319 1.387 . S
C2321 C2323 1.390 . S
C2321 H2325 0.950 . S
H2322 C2318 0.950 . S
C2323 C2321 1.390 . S
C2323 C2324 1.387 . S
C2323 H2326 0.950 . S
C2324 C2323 1.387 . S
C2324 C2327 1.387 . S
H2325 C2321 0.950 . S
H2326 C2323 0.950 . S
C2327 C2318 1.390 . S
C2327 H2320 0.950 . S
C2327 C2324 1.387 . S
C2328 C2329 1.387 . S
C2328 H2332 0.950 . S
C2328 C2337 1.390 . S
C2329 C2328 1.387 . S
C2329 C2331 1.387 . S
H2330 C2337 0.950 . S
C2331 C2329 1.387 . S
C2331 C2333 1.390 . S
C2331 H2335 0.950 . S
H2332 C2328 0.950 . S
C2333 C2331 1.390 . S
C2333 C2334 1.387 . S
C2333 H2336 0.950 . S
C2334 C2333 1.387 . S
C2334 C2337 1.387 . S
H2335 C2331 0.950 . S
H2336 C2333 0.950 . S
C2337 C2328 1.390 . S
C2337 H2330 0.950 . S
C2337 C2334 1.387 . S
C2338 C2339 1.387 . S
C2338 H2342 0.950 . S
C2338 C2347 1.390 . S
C2339 C2338 1.387 . S
C2339 C2341 1.387 . S
H2340 C2347 0.950 . S
C2341 C2339 1.387 . S
C2341 C2343 1.390 . S
C2341 H2345 0.950 . S
H2342 C2338 0.950 . S
C2343 C2341 1.390 . S
C2343 C2344 1.387 . S
C2343 H2346 0.950 . S
C2344 C2343 1.387 . S
C2344 C2347 1.387 . S
H2345 C2341 0.950 . S
H2346 C2343 0.950 . S
C2347 C2338 1.390 . S
C2347 H2340 0.950 . S
C2347 C2344 1.387 . S
C2348 C2349 1.387 . S
C2348 H2352 0.950 . S
C2348 C2357 1.390 1_556 S
C2349 C2348 1.387 . S
C2349 C2351 1.387 . S
H2350 C2357 0.950 . S
C2351 C2349 1.387 . S
C2351 C2353 1.390 1_556 S
C2351 H2355 0.950 . S
H2352 C2348 0.950 . S
C2353 C2351 1.390 1_554 S
C2353 C2354 1.387 . S
C2353 H2356 0.950 . S
C2354 C2353 1.387 . S
C2354 C2357 1.387 . S
H2355 C2351 0.950 . S
H2356 C2353 0.950 . S
C2357 C2348 1.390 1_554 S
C2357 H2350 0.950 . S
C2357 C2354 1.387 . S
C2358 C2359 1.387 . S
C2358 H2362 0.950 . S
C2358 C2367 1.390 . S
C2359 C2358 1.387 . S
C2359 C2361 1.387 . S
H2360 C2367 0.950 . S
C2361 C2359 1.387 . S
C2361 C2363 1.390 . S
C2361 H2365 0.950 . S
H2362 C2358 0.950 . S
C2363 C2361 1.390 . S
C2363 C2364 1.387 . S
C2363 H2366 0.950 . S
C2364 C2363 1.387 . S
C2364 C2367 1.387 . S
H2365 C2361 0.950 . S
H2366 C2363 0.950 . S
C2367 C2358 1.390 . S
C2367 H2360 0.950 . S
C2367 C2364 1.387 . S
C2368 C2369 1.387 . S
C2368 H2372 0.950 . S
C2368 C2377 1.390 . S
C2369 C2368 1.387 . S
C2369 C2371 1.387 . S
H2370 C2377 0.950 . S
C2371 C2369 1.387 . S
C2371 C2373 1.390 . S
C2371 H2375 0.950 . S
H2372 C2368 0.950 . S
C2373 C2371 1.390 . S
C2373 C2374 1.387 . S
C2373 H2376 0.950 . S
C2374 C2373 1.387 . S
C2374 C2377 1.387 . S
H2375 C2371 0.950 . S
H2376 C2373 0.950 . S
C2377 C2368 1.390 . S
C2377 H2370 0.950 . S
C2377 C2374 1.387 . S
C2378 C2379 1.387 . S
C2378 H2382 0.950 . S
C2378 C2387 1.390 . S
C2379 C2378 1.387 . S
C2379 C2381 1.387 . S
H2380 C2387 0.950 . S
C2381 C2379 1.387 . S
C2381 C2383 1.390 . S
C2381 H2385 0.950 . S
H2382 C2378 0.950 . S
C2383 C2381 1.390 . S
C2383 C2384 1.387 . S
C2383 H2386 0.950 . S
C2384 C2383 1.387 . S
C2384 C2387 1.387 . S
H2385 C2381 0.950 . S
H2386 C2383 0.950 . S
C2387 C2378 1.390 . S
C2387 H2380 0.950 . S
C2387 C2384 1.387 . S
C2388 C2389 1.387 . S
C2388 H2392 0.950 . S
C2388 C2397 1.390 . S
C2389 C2388 1.387 . S
C2389 C2391 1.387 . S
H2390 C2397 0.950 . S
C2391 C2389 1.387 . S
C2391 C2393 1.390 . S
C2391 H2395 0.950 . S
H2392 C2388 0.950 . S
C2393 C2391 1.390 . S
C2393 C2394 1.387 . S
C2393 H2396 0.950 . S
C2394 C2393 1.387 . S
C2394 C2397 1.387 . S
H2395 C2391 0.950 . S
H2396 C2393 0.950 . S
C2397 C2388 1.390 . S
C2397 H2390 0.950 . S
C2397 C2394 1.387 . S
C2398 C2399 1.387 . S
C2398 H2402 0.950 . S
C2398 C2407 1.390 . S
C2399 C2398 1.387 . S
C2399 C2401 1.387 . S
H2400 C2407 0.950 . S
C2401 C2399 1.387 . S
C2401 C2403 1.390 . S
C2401 H2405 0.950 . S
H2402 C2398 0.950 . S
C2403 C2401 1.390 . S
C2403 C2404 1.387 . S
C2403 H2406 0.950 . S
C2404 C2403 1.387 . S
C2404 C2407 1.387 . S
H2405 C2401 0.950 . S
H2406 C2403 0.950 . S
C2407 C2398 1.390 . S
C2407 H2400 0.950 . S
C2407 C2404 1.387 . S
C2408 C2409 1.387 . S
C2408 H2412 0.950 . S
C2408 C2417 1.390 . S
C2409 C2408 1.387 . S
C2409 C2411 1.387 . S
H2410 C2417 0.950 . S
C2411 C2409 1.387 . S
C2411 C2413 1.390 . S
C2411 H2415 0.950 . S
H2412 C2408 0.950 . S
C2413 C2411 1.390 . S
C2413 C2414 1.387 . S
C2413 H2416 0.950 . S
C2414 C2413 1.387 . S
C2414 C2417 1.387 . S
H2415 C2411 0.950 . S
H2416 C2413 0.950 . S
C2417 C2408 1.390 . S
C2417 H2410 0.950 . S
C2417 C2414 1.387 . S
C2418 C2419 1.387 . S
C2418 H2422 0.950 . S
C2418 C2427 1.390 . S
C2419 C2418 1.387 . S
C2419 C2421 1.387 . S
H2420 C2427 0.950 . S
C2421 C2419 1.387 . S
C2421 C2423 1.390 . S
C2421 H2425 0.950 . S
H2422 C2418 0.950 . S
C2423 C2421 1.390 . S
C2423 C2424 1.387 . S
C2423 H2426 0.950 . S
C2424 C2423 1.387 . S
C2424 C2427 1.387 . S
H2425 C2421 0.950 . S
H2426 C2423 0.950 . S
C2427 C2418 1.390 . S
C2427 H2420 0.950 . S
C2427 C2424 1.387 . S
C2428 C2429 1.387 . S
C2428 H2432 0.950 . S
C2428 C2437 1.390 . S
C2429 C2428 1.387 . S
C2429 C2431 1.387 . S
H2430 C2437 0.950 . S
C2431 C2429 1.387 . S
C2431 C2433 1.390 . S
C2431 H2435 0.950 . S
H2432 C2428 0.950 . S
C2433 C2431 1.390 . S
C2433 C2434 1.387 . S
C2433 H2436 0.950 . S
C2434 C2433 1.387 . S
C2434 C2437 1.387 . S
H2435 C2431 0.950 . S
H2436 C2433 0.950 . S
C2437 C2428 1.390 . S
C2437 H2430 0.950 . S
C2437 C2434 1.387 . S
C2438 C2439 1.387 . S
C2438 H2442 0.950 . S
C2438 C2447 1.390 . S
C2439 C2438 1.387 . S
C2439 C2441 1.387 . S
H2440 C2447 0.950 . S
C2441 C2439 1.387 . S
C2441 C2443 1.390 . S
C2441 H2445 0.950 . S
H2442 C2438 0.950 . S
C2443 C2441 1.390 . S
C2443 C2444 1.387 . S
C2443 H2446 0.950 . S
C2444 C2443 1.387 . S
C2444 C2447 1.387 . S
H2445 C2441 0.950 . S
H2446 C2443 0.950 . S
C2447 C2438 1.390 . S
C2447 H2440 0.950 . S
C2447 C2444 1.387 . S
C2448 C2449 1.387 . S
C2448 H2452 0.950 . S
C2448 C2457 1.390 . S
C2449 C2448 1.387 . S
C2449 C2451 1.387 . S
H2450 C2457 0.950 . S
C2451 C2449 1.387 . S
C2451 C2453 1.390 . S
C2451 H2455 0.950 . S
H2452 C2448 0.950 . S
C2453 C2451 1.390 . S
C2453 C2454 1.387 . S
C2453 H2456 0.950 . S
C2454 C2453 1.387 . S
C2454 C2457 1.387 . S
H2455 C2451 0.950 . S
H2456 C2453 0.950 . S
C2457 C2448 1.390 . S
C2457 H2450 0.950 . S
C2457 C2454 1.387 . S
C2458 C2459 1.387 . S
C2458 H2462 0.950 . S
C2458 C2467 1.390 . S
C2459 C2458 1.387 . S
C2459 C2461 1.387 . S
H2460 C2467 0.950 . S
C2461 C2459 1.387 . S
C2461 C2463 1.390 . S
C2461 H2465 0.950 . S
H2462 C2458 0.950 . S
C2463 C2461 1.390 . S
C2463 C2464 1.387 . S
C2463 H2466 0.950 . S
C2464 C2463 1.387 . S
C2464 C2467 1.387 . S
H2465 C2461 0.950 . S
H2466 C2463 0.950 . S
C2467 C2458 1.390 . S
C2467 H2460 0.950 . S
C2467 C2464 1.387 . S
C2468 C2469 1.387 . S
C2468 H2472 0.950 . S
C2468 C2477 1.390 . S
C2469 C2468 1.387 . S
C2469 C2471 1.387 . S
H2470 C2477 0.950 . S
C2471 C2469 1.387 . S
C2471 C2473 1.390 . S
C2471 H2475 0.950 . S
H2472 C2468 0.950 . S
C2473 C2471 1.390 . S
C2473 C2474 1.387 . S
C2473 H2476 0.950 . S
C2474 C2473 1.387 . S
C2474 C2477 1.387 . S
H2475 C2471 0.950 . S
H2476 C2473 0.950 . S
C2477 C2468 1.390 . S
C2477 H2470 0.950 . S
C2477 C2474 1.387 . S
C2478 C2479 1.387 . S
C2478 H2482 0.950 . S
C2478 C2487 1.390 . S
C2479 C2478 1.387 . S
C2479 C2481 1.387 . S
H2480 C2487 0.950 . S
C2481 C2479 1.387 . S
C2481 C2483 1.390 . S
C2481 H2485 0.950 . S
H2482 C2478 0.950 . S
C2483 C2481 1.390 . S
C2483 C2484 1.387 . S
C2483 H2486 0.950 . S
C2484 C2483 1.387 . S
C2484 C2487 1.387 . S
H2485 C2481 0.950 . S
H2486 C2483 0.950 . S
C2487 C2478 1.390 . S
C2487 H2480 0.950 . S
C2487 C2484 1.387 . S
C2488 C2489 1.387 . S
C2488 H2492 0.950 . S
C2488 C2497 1.390 . S
C2489 C2488 1.387 . S
C2489 C2491 1.387 . S
H2490 C2497 0.950 . S
C2491 C2489 1.387 . S
C2491 C2493 1.390 . S
C2491 H2495 0.950 . S
H2492 C2488 0.950 . S
C2493 C2491 1.390 . S
C2493 C2494 1.387 . S
C2493 H2496 0.950 . S
C2494 C2493 1.387 . S
C2494 C2497 1.387 . S
H2495 C2491 0.950 . S
H2496 C2493 0.950 . S
C2497 C2488 1.390 . S
C2497 H2490 0.950 . S
C2497 C2494 1.387 . S
C2498 C2499 1.387 . S
C2498 H2502 0.950 . S
C2498 C2507 1.390 . S
C2499 C2498 1.387 . S
C2499 C2501 1.387 . S
H2500 C2507 0.950 . S
C2501 C2499 1.387 . S
C2501 C2503 1.390 . S
C2501 H2505 0.950 . S
H2502 C2498 0.950 . S
C2503 C2501 1.390 . S
C2503 C2504 1.387 . S
C2503 H2506 0.950 . S
C2504 C2503 1.387 . S
C2504 C2507 1.387 . S
H2505 C2501 0.950 . S
H2506 C2503 0.950 . S
C2507 C2498 1.390 . S
C2507 H2500 0.950 . S
C2507 C2504 1.387 . S
C2508 C2509 1.387 . S
C2508 H2512 0.950 . S
C2508 C2517 1.390 . S
C2509 C2508 1.387 . S
C2509 C2511 1.387 . S
H2510 C2517 0.950 . S
C2511 C2509 1.387 . S
C2511 C2513 1.390 . S
C2511 H2515 0.950 . S
H2512 C2508 0.950 . S
C2513 C2511 1.390 . S
C2513 C2514 1.387 . S
C2513 H2516 0.950 . S
C2514 C2513 1.387 . S
C2514 C2517 1.387 . S
H2515 C2511 0.950 . S
H2516 C2513 0.950 . S
C2517 C2508 1.390 . S
C2517 H2510 0.950 . S
C2517 C2514 1.387 . S
C2518 C2519 1.387 . S
C2518 H2522 0.950 . S
C2518 C2527 1.390 . S
C2519 C2518 1.387 . S
C2519 C2521 1.387 . S
H2520 C2527 0.950 . S
C2521 C2519 1.387 . S
C2521 C2523 1.390 . S
C2521 H2525 0.950 . S
H2522 C2518 0.950 . S
C2523 C2521 1.390 . S
C2523 C2524 1.387 . S
C2523 H2526 0.950 . S
C2524 C2523 1.387 . S
C2524 C2527 1.387 . S
H2525 C2521 0.950 . S
H2526 C2523 0.950 . S
C2527 C2518 1.390 . S
C2527 H2520 0.950 . S
C2527 C2524 1.387 . S
C1889 C475 1.446 . S
C1894 C3 1.446 . S
C1899 C1478 1.446 . S
C1904 C62 1.446 . S
C1909 C593 1.445 . S
C1914 C121 1.445 . S
C1919 C1596 1.445 . S
C1924 C180 1.445 . S
C1929 C711 1.445 . S
C1934 C239 1.445 . S
C1939 C298 1.446 . S
C1944 C1714 1.446 . S
C1949 C357 1.445 . S
C1954 C829 1.445 . S
C1959 C416 1.445 . S
C1964 C1832 1.445 . S
C1969 C1006 1.445 . S
C1974 C534 1.445 . S
C1979 C1124 1.445 . S
C1984 C652 1.445 . S
C1989 C770 1.446 . S
C1994 C1242 1.446 . S
C1999 C888 1.446 . S
C2004 C1360 1.446 . S
C2009 C947 1.446 . S
C2014 C1419 1.446 . S
C2019 C1537 1.445 . S
C2024 C1065 1.445 . S
C2029 C1183 1.445 . S
C2034 C1655 1.445 . S
C2039 C1773 1.445 . S
C2044 C1301 1.445 . S
C2049 C1114 1.879 . S
C2054 C52 1.879 . S
C2059 C1173 1.878 . S
C2064 C111 1.878 . S
C2069 C170 1.878 . S
C2074 C996 1.878 . S
C2079 C229 1.878 . S
C2084 C1055 1.878 . S
C2089 C1350 1.878 . S
C2094 C288 1.878 . S
C2099 C347 1.878 . S
C2104 C1409 1.878 . S
C2109 C1232 1.879 . S
C2114 C406 1.879 . S
C2119 C1291 1.878 . S
C2124 C465 1.878 . S
C2129 C524 1.879 . S
C2134 C1586 1.879 . S
C2139 C1645 1.878 . S
C2144 C583 1.878 . S
C2149 C642 1.879 . S
C2154 C1468 1.879 . S
C2159 C701 1.879 . S
C2164 C1527 1.879 . S
C2169 C760 1.879 . S
C2174 C1822 1.879 . S
C2179 C819 1.878 . S
C2184 C1881 1.878 . S
C2189 C1704 1.879 . S
C2194 C878 1.879 . S
C2199 C1763 1.878 . S
C2204 C937 1.878 . S
C2209 C359 1.727 . S
C2214 C5 1.727 . S
C2219 C418 1.728 . S
C2224 C64 1.728 . S
C2229 C241 1.727 . S
C2234 C123 1.727 . S
C2239 C182 1.727 . S
C2244 C300 1.727 . S
C2249 C831 1.728 . S
C2254 C477 1.728 . S
C2259 C890 1.727 . S
C2264 C536 1.727 . S
C2269 C713 1.728 . S
C2274 C595 1.728 . S
C2279 C772 1.728 . S
C2284 C654 1.728 . S
C2289 C1303 1.728 . S
C2294 C949 1.728 . S
C2299 C1362 1.727 . S
C2304 C1008 1.727 . S
C2309 C1067 1.728 . S
C2314 C1185 1.728 . S
C2319 C1126 1.727 . S
C2324 C1244 1.727 . S
C2329 C1775 1.728 . S
C2334 C1421 1.728 . S
C2339 C1834 1.727 . S
C2344 C1480 1.727 . S
C2349 C1539 1.728 . S
C2354 C1657 1.728 . S
C2359 C1598 1.728 . S
C2364 C1716 1.728 . S
C2369 C33 1.527 . S
C2374 C1272 1.527 . S
C2379 C1331 1.526 . S
C2384 C92 1.527 . S
C2389 C1390 1.527 . S
C2394 C151 1.527 . S
C2399 C210 1.528 . S
C2404 C1213 1.528 . S
C2409 C1154 1.527 . S
C2414 C269 1.527 . S
C2419 C328 1.528 . S
C2424 C977 1.528 . S
C2429 C1036 1.527 . S
C2434 C387 1.526 . S
C2439 C446 1.528 . S
C2444 C1095 1.528 . S
C2449 C1744 1.527 . S
C2454 C505 1.527 . S
C2459 C1803 1.528 . S
C2464 C564 1.528 . S
C2469 C623 1.528 . S
C2474 C1862 1.528 . S
C2479 C1685 1.526 . S
C2484 C682 1.527 . S
C2489 C1626 1.527 . S
C2494 C741 1.527 . S
C2499 C800 1.527 . S
C2504 C1449 1.526 . S
C2509 C1508 1.528 . S
C2514 C859 1.528 . S
C2519 C918 1.528 . S
C2524 C1567 1.528 . S
