# Generated by pormake.
# Topology wjn, (5)-cn, num edge types: 1
# Building blocks:
#     Node 0, Type 0, BuildingBlock: BEQFEK_clean_sbu_0, # of connection points: 5
#     Node 1, Type 0, BuildingBlock: BEQFEK_clean_sbu_0, # of connection points: 5
#     Node 2, Type 0, BuildingBlock: BEQFEK_clean_sbu_0, # of connection points: 5
#     Node 3, Type 0, BuildingBlock: BEQFEK_clean_sbu_0, # of connection points: 5
#     Node 4, Type 0, BuildingBlock: BEQFEK_clean_sbu_0, # of connection points: 5
#     Node 5, Type 0, BuildingBlock: BEQFEK_clean_sbu_0, # of connection points: 5
#     Node 6, Type 0, BuildingBlock: BEQFEK_clean_sbu_0, # of connection points: 5
#     Node 7, Type 0, BuildingBlock: BEQFEK_clean_sbu_0, # of connection points: 5
#     Node 8, Type 0, BuildingBlock: BEQFEK_clean_sbu_0, # of connection points: 5
#     Node 9, Type 0, BuildingBlock: BEQFEK_clean_sbu_0, # of connection points: 5
#     Node 10, Type 0, BuildingBlock: BEQFEK_clean_sbu_0, # of connection points: 5
#     Node 11, Type 0, BuildingBlock: BEQFEK_clean_sbu_0, # of connection points: 5
#     Edge 12, Type (0, 0), BuildingBlock: OJICUG_clean_linker_0, # of connection points: 2
#     Edge 13, Type (0, 0), BuildingBlock: OJICUG_clean_linker_0, # of connection points: 2
#     Edge 14, Type (0, 0), BuildingBlock: OJICUG_clean_linker_0, # of connection points: 2
#     Edge 15, Type (0, 0), BuildingBlock: OJICUG_clean_linker_0, # of connection points: 2
#     Edge 16, Type (0, 0), BuildingBlock: OJICUG_clean_linker_0, # of connection points: 2
#     Edge 17, Type (0, 0), BuildingBlock: OJICUG_clean_linker_0, # of connection points: 2
#     Edge 18, Type (0, 0), BuildingBlock: OJICUG_clean_linker_0, # of connection points: 2
#     Edge 19, Type (0, 0), BuildingBlock: OJICUG_clean_linker_0, # of connection points: 2
#     Edge 20, Type (0, 0), BuildingBlock: OJICUG_clean_linker_0, # of connection points: 2
#     Edge 21, Type (0, 0), BuildingBlock: OJICUG_clean_linker_0, # of connection points: 2
#     Edge 22, Type (0, 0), BuildingBlock: OJICUG_clean_linker_0, # of connection points: 2
#     Edge 23, Type (0, 0), BuildingBlock: OJICUG_clean_linker_0, # of connection points: 2
#     Edge 24, Type (0, 0), BuildingBlock: OJICUG_clean_linker_0, # of connection points: 2
#     Edge 25, Type (0, 0), BuildingBlock: OJICUG_clean_linker_0, # of connection points: 2
#     Edge 26, Type (0, 0), BuildingBlock: OJICUG_clean_linker_0, # of connection points: 2
#     Edge 27, Type (0, 0), BuildingBlock: OJICUG_clean_linker_0, # of connection points: 2
#     Edge 28, Type (0, 0), BuildingBlock: OJICUG_clean_linker_0, # of connection points: 2
#     Edge 29, Type (0, 0), BuildingBlock: OJICUG_clean_linker_0, # of connection points: 2
#     Edge 30, Type (0, 0), BuildingBlock: OJICUG_clean_linker_0, # of connection points: 2
#     Edge 31, Type (0, 0), BuildingBlock: OJICUG_clean_linker_0, # of connection points: 2
#     Edge 32, Type (0, 0), BuildingBlock: OJICUG_clean_linker_0, # of connection points: 2
#     Edge 33, Type (0, 0), BuildingBlock: OJICUG_clean_linker_0, # of connection points: 2
#     Edge 34, Type (0, 0), BuildingBlock: OJICUG_clean_linker_0, # of connection points: 2
#     Edge 35, Type (0, 0), BuildingBlock: OJICUG_clean_linker_0, # of connection points: 2
#     Edge 36, Type (0, 0), BuildingBlock: OJICUG_clean_linker_0, # of connection points: 2
#     Edge 37, Type (0, 0), BuildingBlock: OJICUG_clean_linker_0, # of connection points: 2
#     Edge 38, Type (0, 0), BuildingBlock: OJICUG_clean_linker_0, # of connection points: 2
#     Edge 39, Type (0, 0), BuildingBlock: OJICUG_clean_linker_0, # of connection points: 2
#     Edge 40, Type (0, 0), BuildingBlock: OJICUG_clean_linker_0, # of connection points: 2
#     Edge 41, Type (0, 0), BuildingBlock: OJICUG_clean_linker_0, # of connection points: 2
# Relax obj value: 0.404
# Max RMSD: 0.210
# Mean RMSD: 0.210
data_MOF--net-wjn--node1-BEQFEK_clean_sbu_0--edge1-OJICUG_clean_linker_0
_symmetry_space_group_name_H-M    P1
_symmetry_Int_Tables_number       1
_symmetry_cell_setting            triclinic
loop_
_symmetry_equiv_pos_as_xyz
'x, y, z'
_cell_length_a     27.370075
_cell_length_b     27.335976
_cell_length_c     55.828163
_cell_angle_alpha  90.346836
_cell_angle_beta   89.504446
_cell_angle_gamma 120.07858
loop_
_atom_site_label
_atom_site_type_symbol
_atom_site_fract_x
_atom_site_fract_y
_atom_site_fract_z
_atom_type_partial_charge
Co0 Co 0.11024 0.41165 0.10935 0.0
Co1 Co 0.21669 0.41641 0.13032 0.0
C2 C 0.19522 0.51242 0.13822 0.0
O3 O 0.15158 0.4875 0.12512 0.0
O4 O 0.22509 0.4897 0.14237 0.0
C5 C 0.06891 0.44972 0.07348 0.0
O6 O 0.12294 0.48524 0.06988 0.0
C7 C 0.33955 0.4616 0.13841 0.0
C8 C 0.34553 0.38413 0.13702 0.0
C9 C 0.3783 0.44252 0.1386 0.0
N10 N 0.28686 0.4167 0.13628 0.0
N11 N 0.29096 0.37055 0.13568 0.0
C12 C 0.35171 0.52114 0.14139 0.0
H13 H 0.32338 0.52245 0.15535 0.0
H14 H 0.34319 0.53597 0.1243 0.0
H15 H 0.39575 0.55011 0.14705 0.0
C16 C 0.14534 0.37922 0.06594 0.0
N17 N 0.15303 0.39432 0.08913 0.0
N18 N 0.20396 0.40755 0.09582 0.0
C19 C 0.23265 0.40735 0.0759 0.0
C20 C 0.19588 0.38898 0.05632 0.0
C21 C 0.09027 0.35523 0.05294 0.0
H22 H 0.05435 0.34017 0.06565 0.0
H23 H 0.09131 0.38737 0.04059 0.0
H24 H 0.0834 0.31856 0.04187 0.0
O25 O 0.07465 0.35305 0.13254 0.0
O26 O 0.14786 0.35222 0.14929 0.0
H27 H 0.29962 0.39213 0.08448 0.0
H28 H 0.31034 0.43047 0.05689 0.0
C29 C 0.29391 0.425 0.07551 0.0
H30 H 0.31823 0.46499 0.0857 0.0
H31 H 0.25662 0.3298 0.13357 0.0
O32 O 0.05346 0.41401 0.09034 0.0
C33 C 0.09426 0.33278 0.14751 0.0
Co34 Co 0.71034 0.10044 0.4516 0.0
Co35 Co 0.80267 0.21549 0.47122 0.0
C36 C 0.68393 0.17974 0.48128 0.0
O37 O 0.67216 0.13421 0.47033 0.0
O38 O 0.73479 0.22026 0.48232 0.0
C39 C 0.63153 0.05862 0.41617 0.0
O40 O 0.65004 0.11294 0.41372 0.0
C41 C 0.8784 0.3405 0.47386 0.0
C42 C 0.9576 0.34827 0.48706 0.0
C43 C 0.9345 0.38057 0.47934 0.0
N44 N 0.86978 0.28804 0.47802 0.0
N45 N 0.91736 0.29328 0.4861 0.0
C46 C 0.8344 0.3507 0.46314 0.0
H47 H 0.81667 0.36614 0.47728 0.0
H48 H 0.79946 0.31097 0.45563 0.0
H49 H 0.85314 0.38301 0.4488 0.0
C50 C 0.77516 0.13809 0.40804 0.0
N51 N 0.76746 0.14736 0.43101 0.0
N52 N 0.80094 0.20047 0.43676 0.0
C53 C 0.82699 0.22809 0.41623 0.0
C54 C 0.81093 0.18905 0.39738 0.0
C55 C 0.74848 0.08106 0.39625 0.0
H56 H 0.73014 0.04673 0.40969 0.0
H57 H 0.71593 0.07685 0.38337 0.0
H58 H 0.78068 0.07636 0.38596 0.0
O59 O 0.74004 0.06947 0.47286 0.0
O60 O 0.80084 0.14911 0.4916 0.0
H61 H 0.89667 0.3053 0.42917 0.0
H62 H 0.88926 0.30131 0.39691 0.0
C63 C 0.86607 0.29038 0.41425 0.0
H64 H 0.84117 0.31216 0.41537 0.0
H65 H 0.92279 0.25923 0.49042 0.0
O66 O 0.65142 0.04192 0.43259 0.0
C67 C 0.77559 0.09475 0.48929 0.0
Co68 Co 0.61248 0.72059 0.78046 0.0
Co69 Co 0.61478 0.82775 0.79996 0.0
C70 C 0.51931 0.71203 0.81244 0.0
O71 O 0.54002 0.69011 0.7985 0.0
O72 O 0.54461 0.7653 0.81575 0.0
C73 C 0.5672 0.63821 0.74592 0.0
O74 O 0.5324 0.6579 0.74384 0.0
C75 C 0.57075 0.90666 0.80703 0.0
C76 C 0.64794 0.98999 0.8036 0.0
C77 C 0.58974 0.9645 0.80603 0.0
N78 N 0.61545 0.89864 0.80476 0.0
N79 N 0.66146 0.94885 0.80294 0.0
C80 C 0.51156 0.85958 0.81123 0.0
H81 H 0.49574 0.83337 0.79478 0.0
H82 H 0.48283 0.87533 0.81657 0.0
H83 H 0.51128 0.83231 0.82588 0.0
C84 C 0.64071 0.78201 0.7359 0.0
N85 N 0.62765 0.77778 0.75928 0.0
N86 N 0.61589 0.81695 0.76558 0.0
C87 C 0.61433 0.84314 0.7453 0.0
C88 C 0.63042 0.82167 0.72582 0.0
C89 C 0.66345 0.74909 0.72314 0.0
H90 H 0.67912 0.72947 0.73598 0.0
H91 H 0.63046 0.71665 0.71141 0.0
H92 H 0.69939 0.7776 0.71143 0.0
O93 O 0.67585 0.74769 0.80092 0.0
O94 O 0.68477 0.82815 0.81527 0.0
H95 H 0.63079 0.92664 0.75272 0.0
H96 H 0.59074 0.89607 0.72575 0.0
C97 C 0.59722 0.88712 0.74446 0.0
H98 H 0.55795 0.87288 0.75509 0.0
H99 H 0.70198 0.95498 0.80042 0.0
O100 O 0.60522 0.65818 0.76181 0.0
C101 C 0.7023 0.79242 0.81328 0.0
Co102 Co 0.87572 0.56117 0.10971 0.0
Co103 Co 0.78182 0.58334 0.12829 0.0
C104 C 0.79359 0.4849 0.14616 0.0
O105 O 0.83384 0.49761 0.13156 0.0
O106 O 0.7701 0.51503 0.14773 0.0
C107 C 0.90344 0.49815 0.08016 0.0
O108 O 0.84849 0.46397 0.08062 0.0
C109 C 0.66137 0.54528 0.13397 0.0
C110 C 0.65903 0.62431 0.13818 0.0
C111 C 0.62445 0.56601 0.13688 0.0
N112 N 0.71486 0.58899 0.13376 0.0
N113 N 0.71313 0.63618 0.1364 0.0
C114 C 0.64627 0.48546 0.12909 0.0
H115 H 0.64189 0.46373 0.14636 0.0
H116 H 0.68012 0.48436 0.11842 0.0
H117 H 0.60565 0.4625 0.11935 0.0
C118 C 0.83963 0.5765 0.06344 0.0
N119 N 0.83177 0.56943 0.08721 0.0
N120 N 0.7889 0.57533 0.09395 0.0
C121 C 0.76622 0.58378 0.07395 0.0
C122 C 0.79743 0.58349 0.0541 0.0
C123 C 0.89246 0.58815 0.0502 0.0
H124 H 0.92945 0.60762 0.06221 0.0
H125 H 0.88681 0.54828 0.0424 0.0
H126 H 0.90149 0.61773 0.03509 0.0
O127 O 0.919 0.63273 0.12607 0.0
O128 O 0.85513 0.65368 0.14013 0.0
H129 H 0.73067 0.63413 0.08526 0.0
H130 H 0.70946 0.60397 0.05555 0.0
C131 C 0.71903 0.59635 0.07398 0.0
H132 H 0.68082 0.56025 0.08199 0.0
H133 H 0.74874 0.67652 0.13647 0.0
O134 O 0.92557 0.54291 0.0927 0.0
C135 C 0.90674 0.66615 0.13699 0.0
Co136 Co 0.32245 0.87313 0.43379 0.0
Co137 Co 0.20635 0.78299 0.45422 0.0
C138 C 0.31635 0.78992 0.46941 0.0
O139 O 0.34384 0.82987 0.45479 0.0
O140 O 0.26307 0.76845 0.47181 0.0
C141 C 0.41401 0.89771 0.40485 0.0
O142 O 0.39161 0.84251 0.40548 0.0
C143 C 0.12098 0.66295 0.45987 0.0
C144 C 0.047 0.66424 0.47493 0.0
C145 C 0.06593 0.62736 0.46833 0.0
N146 N 0.13347 0.71725 0.46173 0.0
N147 N 0.08889 0.71765 0.47072 0.0
C148 C 0.16106 0.6466 0.44914 0.0
H149 H 0.19362 0.68169 0.43815 0.0
H150 H 0.13805 0.60823 0.43784 0.0
H151 H 0.18291 0.63783 0.46371 0.0
C152 C 0.26679 0.83523 0.38824 0.0
N153 N 0.26711 0.82932 0.41207 0.0
N154 N 0.21758 0.78882 0.41955 0.0
C155 C 0.18434 0.76624 0.40001 0.0
C156 C 0.21545 0.79461 0.37963 0.0
C157 C 0.31074 0.8846 0.37414 0.0
H158 H 0.33012 0.92343 0.38524 0.0
H159 H 0.3435 0.87511 0.36767 0.0
H160 H 0.29225 0.89295 0.35815 0.0
O161 O 0.29909 0.91962 0.45152 0.0
O162 O 0.21483 0.85855 0.46688 0.0
H163 H 0.10157 0.73088 0.41537 0.0
H164 H 0.10263 0.71729 0.38351 0.0
C165 C 0.12357 0.72121 0.40092 0.0
H166 H 0.12057 0.68023 0.40523 0.0
H167 H 0.0872 0.75432 0.47421 0.0
O168 O 0.39068 0.92091 0.41626 0.0
C169 C 0.25539 0.90959 0.46358 0.0
Co170 Co 0.46297 0.3359 0.77078 0.0
Co171 Co 0.44653 0.2243 0.7918 0.0
C172 C 0.54735 0.338 0.80483 0.0
O173 O 0.53149 0.36258 0.79025 0.0
O174 O 0.51825 0.28465 0.80792 0.0
C175 C 0.51934 0.42391 0.73906 0.0
O176 O 0.5545 0.40437 0.73831 0.0
C177 C 0.48583 0.1432 0.7985 0.0
C178 C 0.40764 0.06252 0.80545 0.0
C179 C 0.46565 0.08613 0.80288 0.0
N180 N 0.44212 0.15286 0.7987 0.0
N181 N 0.39545 0.10436 0.80297 0.0
C182 C 0.54489 0.18708 0.79192 0.0
H183 H 0.54456 0.21958 0.78021 0.0
H184 H 0.56702 0.16764 0.78263 0.0
H185 H 0.56835 0.20816 0.80847 0.0
C186 C 0.44067 0.27585 0.72561 0.0
N187 N 0.45047 0.27932 0.74928 0.0
N188 N 0.44664 0.23223 0.75704 0.0
C189 C 0.43648 0.19781 0.7378 0.0
C190 C 0.4334 0.2253 0.71733 0.0
C191 C 0.42959 0.31583 0.71147 0.0
H192 H 0.41093 0.33537 0.72301 0.0
H193 H 0.46959 0.34882 0.70326 0.0
H194 H 0.3998 0.29372 0.6966 0.0
O195 O 0.3962 0.3116 0.79074 0.0
O196 O 0.38069 0.23077 0.80701 0.0
H197 H 0.39069 0.11369 0.75151 0.0
H198 H 0.41715 0.11854 0.72121 0.0
C199 C 0.42651 0.13894 0.73914 0.0
H200 H 0.46449 0.13998 0.74655 0.0
H201 H 0.35516 0.09956 0.8037 0.0
O202 O 0.47631 0.40083 0.75267 0.0
C203 C 0.36723 0.26921 0.8042 0.0
Co204 Co 0.54619 0.86768 0.57181 0.0
Co205 Co 0.57638 0.7799 0.55224 0.0
C206 C 0.47497 0.78678 0.5343 0.0
O207 O 0.4848 0.82533 0.54937 0.0
O208 O 0.50765 0.76617 0.53251 0.0
C209 C 0.47619 0.88953 0.59998 0.0
O210 O 0.44348 0.8344 0.59854 0.0
C211 C 0.54292 0.66068 0.54513 0.0
C212 C 0.62341 0.66168 0.5403 0.0
C213 C 0.56538 0.6254 0.54135 0.0
N214 N 0.58534 0.71483 0.546 0.0
N215 N 0.63344 0.71509 0.54304 0.0
C216 C 0.48254 0.64324 0.55005 0.0
H217 H 0.46115 0.64005 0.53284 0.0
H218 H 0.47992 0.67534 0.5614 0.0
H219 H 0.46033 0.6015 0.55908 0.0
C220 C 0.5609 0.8296 0.61773 0.0
N221 N 0.55508 0.8231 0.59388 0.0
N222 N 0.56651 0.78408 0.58661 0.0
C223 C 0.57864 0.76319 0.60624 0.0
C224 C 0.57405 0.79085 0.62651 0.0
C225 C 0.56645 0.87967 0.63142 0.0
H226 H 0.58601 0.91798 0.62007 0.0
H227 H 0.52422 0.8705 0.63776 0.0
H228 H 0.59335 0.88907 0.64747 0.0
O229 O 0.61871 0.91539 0.55606 0.0
O230 O 0.64513 0.85595 0.54156 0.0
H231 H 0.6382 0.73955 0.59418 0.0
H232 H 0.60869 0.71293 0.62364 0.0
C233 C 0.59945 0.72206 0.60542 0.0
H234 H 0.56705 0.68221 0.59693 0.0
H235 H 0.67314 0.75156 0.54326 0.0
O236 O 0.52313 0.91385 0.58892 0.0
C237 C 0.65462 0.90654 0.54518 0.0
Co238 Co 0.71826 0.59924 0.89766 0.0
Co239 Co 0.82891 0.60699 0.87933 0.0
C240 C 0.71506 0.51034 0.8649 0.0
O241 O 0.69099 0.52878 0.8788 0.0
O242 O 0.76855 0.5373 0.86232 0.0
C243 C 0.63364 0.54863 0.93105 0.0
O244 O 0.65491 0.5151 0.93289 0.0
C245 C 0.90938 0.56507 0.8717 0.0
C246 C 0.99202 0.64243 0.87631 0.0
C247 C 0.96722 0.58452 0.87282 0.0
N248 N 0.90067 0.60917 0.87489 0.0
N249 N 0.95047 0.65531 0.87744 0.0
C250 C 0.863 0.50618 0.8664 0.0
H251 H 0.83762 0.50725 0.85128 0.0
H252 H 0.83484 0.48894 0.88229 0.0
H253 H 0.87926 0.47782 0.86116 0.0
C254 C 0.77636 0.6272 0.94281 0.0
N255 N 0.7736 0.61376 0.91954 0.0
N256 N 0.81539 0.60559 0.91363 0.0
C257 C 0.84244 0.6071 0.9341 0.0
C258 C 0.81844 0.62143 0.95321 0.0
C259 C 0.74077 0.64763 0.955 0.0
H260 H 0.7211 0.66244 0.94181 0.0
H261 H 0.70817 0.61349 0.96634 0.0
H262 H 0.76708 0.68375 0.96697 0.0
O263 O 0.74618 0.66487 0.87816 0.0
O264 O 0.82905 0.67773 0.86492 0.0
H265 H 0.92917 0.63333 0.92819 0.0
H266 H 0.8985 0.58876 0.9541 0.0
C267 C 0.89061 0.59612 0.93536 0.0
H268 H 0.88165 0.55908 0.92404 0.0
H269 H 0.95604 0.69544 0.88065 0.0
O270 O 0.65354 0.58808 0.91568 0.0
C271 C 0.79213 0.69376 0.86673 0.0
Co272 Co 0.11468 0.70381 0.22324 0.0
Co273 Co 0.22067 0.81076 0.2046 0.0
C274 C 0.20033 0.69536 0.1918 0.0
O275 O 0.15646 0.67364 0.20497 0.0
O276 O 0.23005 0.74874 0.18918 0.0
C277 C 0.07883 0.62275 0.25771 0.0
O278 O 0.13358 0.64357 0.25956 0.0
C279 C 0.34359 0.88943 0.20136 0.0
C280 C 0.34942 0.97245 0.19766 0.0
C281 C 0.3822 0.94714 0.20001 0.0
N282 N 0.2908 0.8812 0.19981 0.0
N283 N 0.29475 0.93113 0.1974 0.0
C284 C 0.35614 0.84327 0.20668 0.0
H285 H 0.31993 0.80794 0.21612 0.0
H286 H 0.39466 0.85933 0.21777 0.0
H287 H 0.36331 0.8269 0.18957 0.0
C288 C 0.14503 0.76559 0.26795 0.0
N289 N 0.15591 0.76083 0.24483 0.0
N290 N 0.20673 0.80111 0.23898 0.0
C291 C 0.23225 0.82919 0.25941 0.0
C292 C 0.1934 0.80732 0.27839 0.0
C293 C 0.08855 0.73212 0.28 0.0
H294 H 0.05424 0.71188 0.2667 0.0
H295 H 0.08884 0.7001 0.29202 0.0
H296 H 0.07962 0.76023 0.2913 0.0
O297 O 0.07901 0.73077 0.2024 0.0
O298 O 0.15194 0.80977 0.18775 0.0
H299 H 0.29835 0.91093 0.24878 0.0
H300 H 0.30315 0.89269 0.27944 0.0
C301 C 0.29209 0.8762 0.26087 0.0
H302 H 0.32061 0.86072 0.25478 0.0
H303 H 0.26009 0.9372 0.19645 0.0
O304 O 0.0596 0.64111 0.24167 0.0
C305 C 0.09846 0.77457 0.18942 0.0
Co306 Co 0.39021 0.0996 0.56283 0.0
Co307 Co 0.41547 0.21474 0.54254 0.0
C308 C 0.49825 0.17866 0.5339 0.0
O309 O 0.46383 0.13321 0.54479 0.0
O310 O 0.48791 0.21904 0.53227 0.0
C311 C 0.42328 0.05371 0.59844 0.0
O312 O 0.4607 0.10736 0.60175 0.0
C313 C 0.46462 0.33977 0.5356 0.0
C314 C 0.38753 0.3463 0.53565 0.0
C315 C 0.44598 0.37897 0.53524 0.0
N316 N 0.4193 0.28694 0.5367 0.0
N317 N 0.37347 0.29151 0.53651 0.0
C318 C 0.52428 0.35189 0.53388 0.0
H319 H 0.52649 0.32036 0.52208 0.0
H320 H 0.53914 0.3488 0.55193 0.0
H321 H 0.55268 0.39451 0.52638 0.0
C322 C 0.36696 0.1413 0.60651 0.0
N323 N 0.3809 0.14764 0.58318 0.0
N324 N 0.40302 0.20063 0.57687 0.0
C325 C 0.40968 0.23101 0.59711 0.0
C326 C 0.38699 0.19397 0.61664 0.0
C327 C 0.3361 0.08558 0.61922 0.0
H328 H 0.31815 0.04991 0.60635 0.0
H329 H 0.36475 0.08159 0.632 0.0
H330 H 0.30049 0.08318 0.62977 0.0
O331 O 0.33042 0.06898 0.54091 0.0
O332 O 0.35176 0.14844 0.52166 0.0
H333 H 0.41467 0.30864 0.58716 0.0
H334 H 0.44247 0.30985 0.61656 0.0
C335 C 0.43884 0.2941 0.59792 0.0
H336 H 0.48143 0.31195 0.58971 0.0
H337 H 0.33246 0.25719 0.53775 0.0
O338 O 0.38755 0.03973 0.58176 0.0
C339 C 0.32193 0.09414 0.52393 0.0
Co340 Co 0.33472 0.44719 0.90101 0.0
Co341 Co 0.22632 0.43861 0.88029 0.0
C342 C 0.34144 0.53817 0.86907 0.0
O343 O 0.36398 0.51868 0.88297 0.0
O344 O 0.28827 0.5115 0.86565 0.0
C345 C 0.41856 0.49736 0.93449 0.0
O346 O 0.39835 0.5319 0.93616 0.0
C347 C 0.14653 0.48028 0.87495 0.0
C348 C 0.06547 0.40287 0.86777 0.0
C349 C 0.08946 0.46077 0.87109 0.0
N350 N 0.15573 0.43624 0.8738 0.0
N351 N 0.107 0.39008 0.86937 0.0
C352 C 0.19075 0.53877 0.88203 0.0
H353 H 0.21145 0.56354 0.86564 0.0
H354 H 0.22341 0.53732 0.89316 0.0
H355 H 0.17177 0.56033 0.89211 0.0
C356 C 0.27207 0.41937 0.94566 0.0
N357 N 0.27701 0.43227 0.92225 0.0
N358 N 0.23257 0.43432 0.91499 0.0
C359 C 0.19926 0.42624 0.93448 0.0
C360 C 0.22407 0.41707 0.95445 0.0
C361 C 0.30864 0.40271 0.95917 0.0
H362 H 0.32861 0.38578 0.94689 0.0
H363 H 0.34122 0.43973 0.96919 0.0
H364 H 0.28337 0.36955 0.97257 0.0
O365 O 0.31083 0.3836 0.87963 0.0
O366 O 0.23239 0.37385 0.86327 0.0
H367 H 0.11548 0.39222 0.92114 0.0
H368 H 0.12411 0.41636 0.95195 0.0
C369 C 0.14418 0.42516 0.93393 0.0
H370 H 0.15123 0.46651 0.92747 0.0
H371 H 0.10181 0.34965 0.86804 0.0
O372 O 0.39768 0.457 0.9195 0.0
C373 C 0.26929 0.35813 0.86552 0.0
Co374 Co 0.8814 0.32085 0.24241 0.0
Co375 Co 0.78519 0.20845 0.22154 0.0
C376 C 0.79856 0.32261 0.20877 0.0
O377 O 0.83936 0.34762 0.2232 0.0
O378 O 0.77476 0.2693 0.2057 0.0
C379 C 0.91446 0.41044 0.27368 0.0
O380 O 0.85977 0.3909 0.27478 0.0
C381 C 0.66471 0.12725 0.21092 0.0
C382 C 0.66049 0.04464 0.21256 0.0
C383 C 0.6271 0.06913 0.20969 0.0
N384 N 0.7173 0.13636 0.21484 0.0
N385 N 0.71432 0.08661 0.21559 0.0
C386 C 0.65207 0.17386 0.20675 0.0
H387 H 0.66309 0.20095 0.22297 0.0
H388 H 0.60751 0.15802 0.20187 0.0
H389 H 0.67849 0.20032 0.19167 0.0
C390 C 0.84361 0.26198 0.28754 0.0
N391 N 0.83729 0.26461 0.26385 0.0
N392 N 0.79323 0.21772 0.25629 0.0
C393 C 0.76817 0.18461 0.27574 0.0
C394 C 0.79944 0.21245 0.29605 0.0
C395 C 0.89495 0.30199 0.3016 0.0
H396 H 0.93312 0.32084 0.29006 0.0
H397 H 0.88849 0.33552 0.30964 0.0
H398 H 0.90227 0.28001 0.31658 0.0
O399 O 0.92329 0.29585 0.22259 0.0
O400 O 0.85794 0.21415 0.20679 0.0
H401 H 0.72894 0.09753 0.26606 0.0
H402 H 0.70082 0.11107 0.29311 0.0
C403 C 0.71734 0.12684 0.27484 0.0
H404 H 0.6841 0.12772 0.26394 0.0
H405 H 0.74885 0.08119 0.21873 0.0
O406 O 0.93365 0.38615 0.26034 0.0
C407 C 0.90994 0.25276 0.20954 0.0
C408 C 0.53113 0.48252 0.14955 0.0
C409 C 0.56148 0.53437 0.13744 0.0
H410 H 0.44984 0.41354 0.15963 0.0
C411 C 0.5311 0.55635 0.12598 0.0
H412 H 0.55312 0.46484 0.15895 0.0
C413 C 0.47185 0.52678 0.12625 0.0
C414 C 0.44139 0.47529 0.13866 0.0
H415 H 0.55319 0.59589 0.11628 0.0
H416 H 0.45008 0.54375 0.11621 0.0
C417 C 0.47188 0.45331 0.15009 0.0
C418 C 0.9731 0.53587 0.47227 0.0
C419 C 0.03251 0.56405 0.47074 0.0
H420 H 0.89587 0.45805 0.47707 0.0
C421 C 0.05868 0.53119 0.47278 0.0
H422 H 0.95111 0.5595 0.47135 0.0
C423 C 0.02663 0.47226 0.47531 0.0
C424 C 0.96715 0.44382 0.47634 0.0
H425 H 0.10401 0.5505 0.47308 0.0
H426 H 0.0489 0.44896 0.4766 0.0
C427 C 0.94099 0.47689 0.47518 0.0
C428 C 0.5502 0.07861 0.81509 0.0
C429 C 0.49749 0.05512 0.80375 0.0
H430 H 0.62001 0.06807 0.82494 0.0
C431 C 0.47485 1.00114 0.79338 0.0
H432 H 0.56843 0.11967 0.8236 0.0
C433 C 0.5046 0.97172 0.79399 0.0
C434 C 0.55693 0.9947 0.80569 0.0
H435 H 0.43463 0.98217 0.78428 0.0
H436 H 0.48707 0.93156 0.78475 0.0
C437 C 0.57958 0.04882 0.81599 0.0
C438 C 0.5584 0.53163 0.54974 0.0
C439 C 0.53539 0.56242 0.53944 0.0
H440 H 0.54768 0.4502 0.55761 0.0
C441 C 0.48397 0.53246 0.52715 0.0
H442 H 0.59775 0.55336 0.55948 0.0
C443 C 0.45592 0.47329 0.5255 0.0
C444 C 0.47855 0.44227 0.53598 0.0
H445 H 0.46561 0.55474 0.5185 0.0
H446 H 0.41631 0.45173 0.51594 0.0
C447 C 0.52999 0.47232 0.54834 0.0
C448 C 0.05187 0.57604 0.86147 0.0
C449 C 0.99792 0.55217 0.87208 0.0
H450 H 0.12266 0.56586 0.85243 0.0
C451 C 0.97535 0.49877 0.88295 0.0
H452 H 0.07081 0.61732 0.85316 0.0
C453 C 1.00488 0.46911 0.88236 0.0
C454 C 0.0586 0.49283 0.87161 0.0
H455 H 0.93535 0.48022 0.8924 0.0
H456 H 0.98614 0.42799 0.89082 0.0
C457 C 0.08179 0.5467 0.86119 0.0
C458 C 0.47209 0.02746 0.21625 0.0
C459 C 0.44479 0.97739 0.2027 0.0
H460 H 0.55008 0.0937 0.23026 0.0
C461 C 0.47786 0.95743 0.19166 0.0
H462 H 0.44777 0.04348 0.22529 0.0
C463 C 0.53692 0.9873 0.19391 0.0
C464 C 0.56432 0.03789 0.20719 0.0
H465 H 0.45825 0.91935 0.18089 0.0
H466 H 0.56127 0.97115 0.18499 0.0
C467 C 0.53093 0.05674 0.21881 0.0
C468 C 0.99517 0.52663 0.061 0.0
C469 C 0.94045 0.48351 0.06701 0.0
H470 H 0.08139 0.54859 0.05729 0.0
C471 C 0.92656 0.42691 0.06548 0.0
H472 H 1.00601 0.57059 0.06123 0.0
C473 C 0.96969 0.41436 0.06314 0.0
C474 C 0.02607 0.45856 0.06239 0.0
H475 H 0.88417 0.39302 0.06944 0.0
H476 H 0.95967 0.37095 0.06541 0.0
C477 C 0.0382 0.51404 0.05849 0.0
C478 C 0.56756 0.9597 0.40381 0.0
C479 C 0.58253 0.01688 0.40284 0.0
H480 H 0.49932 0.87451 0.40424 0.0
C481 C 0.54436 0.03186 0.39368 0.0
H482 H 0.59723 0.94738 0.41003 0.0
C483 C 0.48847 0.99017 0.39033 0.0
C484 C 0.47128 0.93387 0.39602 0.0
H485 H 0.55554 0.07575 0.39212 0.0
H486 H 0.45763 1.00278 0.38639 0.0
C487 C 0.51173 0.91798 0.40025 0.0
C488 C 0.49112 0.49098 0.72482 0.0
C489 C 0.53412 0.47801 0.72834 0.0
H490 H 0.46872 0.5552 0.72748 0.0
C491 C 0.59058 0.52131 0.72861 0.0
H492 H 0.44732 0.45771 0.72383 0.0
C493 C 0.60273 0.57692 0.73086 0.0
C494 C 0.55836 0.58859 0.73254 0.0
H495 H 0.62444 0.51207 0.73076 0.0
H496 H 0.6459 0.60954 0.73435 0.0
C497 C 0.50332 0.54664 0.72689 0.0
C498 C 0.49623 0.97937 0.61854 0.0
C499 C 0.45625 0.92468 0.61103 0.0
H500 H 0.51603 0.06522 0.621 0.0
C501 C 0.39989 0.91021 0.60806 0.0
H502 H 0.53969 0.99063 0.62164 0.0
C503 C 0.3864 0.9529 0.60757 0.0
C504 C 0.42937 0.00952 0.61014 0.0
H505 H 0.36822 0.86784 0.60276 0.0
H506 H 0.34431 0.94238 0.60213 0.0
C507 C 0.48267 0.02196 0.61823 0.0
C508 C 0.48425 0.46722 0.94849 0.0
C509 C 0.47112 0.51044 0.9461 0.0
H510 H 0.54953 0.44634 0.9459 0.0
C511 C 0.51376 0.56703 0.94799 0.0
H512 H 0.45137 0.42317 0.9478 0.0
C513 C 0.56975 0.58021 0.94673 0.0
C514 C 0.58239 0.53668 0.9439 0.0
H515 H 0.50428 0.60095 0.94674 0.0
H516 H 0.60238 0.62412 0.94481 0.0
C517 C 0.54029 0.48042 0.94745 0.0
C518 C 0.98334 0.56397 0.27469 0.0
C519 C 0.03929 0.57556 0.27254 0.0
H520 H 0.89715 0.49928 0.27814 0.0
C521 C 0.05366 0.53587 0.28031 0.0
H522 H 0.97191 0.59513 0.26963 0.0
C523 C 0.01088 0.48114 0.2853 0.0
C524 C 0.95431 0.46678 0.28242 0.0
H525 H 0.09689 0.54466 0.27943 0.0
H526 H 0.02195 0.44863 0.28794 0.0
C527 C 0.94063 0.50938 0.27988 0.0
C528 C 0.22659 0.61994 0.18777 0.0
C529 C 0.21123 0.6566 0.17702 0.0
H530 H 0.23572 0.54669 0.18357 0.0
C531 C 0.19629 0.64892 0.15272 0.0
H532 H 0.23719 0.62434 0.20661 0.0
C533 C 0.19362 0.60352 0.13976 0.0
C534 C 0.2072 0.56561 0.15066 0.0
H535 H 0.18319 0.67593 0.14417 0.0
H536 H 0.17905 0.59691 0.1214 0.0
C537 C 0.22564 0.57551 0.17458 0.0
C538 C 0.63984 0.23295 0.50099 0.0
C539 C 0.63765 0.18185 0.49479 0.0
H540 H 0.59715 0.27244 0.5179 0.0
C541 C 0.59029 0.13082 0.50213 0.0
H542 H 0.67577 0.273 0.49569 0.0
C543 C 0.54646 0.13053 0.51524 0.0
C544 C 0.54768 0.18122 0.52111 0.0
H545 H 0.58719 0.0906 0.49797 0.0
H546 H 0.51085 0.09008 0.52038 0.0
C547 C 0.59487 0.23261 0.51373 0.0
C548 C 0.46702 0.67944 0.85153 0.0
C549 C 0.46793 0.67367 0.82652 0.0
H550 H 0.42625 0.6402 0.88476 0.0
C551 C 0.42262 0.62639 0.81556 0.0
H552 H 0.50172 0.715 0.86048 0.0
C553 C 0.37835 0.58473 0.82938 0.0
C554 C 0.37957 0.58849 0.8545 0.0
H555 H 0.42248 0.62068 0.79633 0.0
H556 H 0.34536 0.54757 0.82053 0.0
C557 C 0.42386 0.63669 0.86541 0.0
C558 C 0.78622 0.44768 0.18763 0.0
C559 C 0.77936 0.43762 0.16287 0.0
H560 H 0.79833 0.41909 0.22164 0.0
C561 C 0.77084 0.38569 0.15392 0.0
H562 H 0.79399 0.48774 0.19493 0.0
C563 C 0.77186 0.34571 0.16926 0.0
C564 C 0.78356 0.35782 0.19372 0.0
H565 H 0.76632 0.37728 0.13484 0.0
H566 H 0.76795 0.30737 0.16164 0.0
C567 C 0.78911 0.40852 0.20286 0.0
C568 C 0.33731 0.7661 0.51001 0.0
C569 C 0.34917 0.77371 0.48536 0.0
H570 H 0.36859 0.76456 0.54497 0.0
C571 C 0.39867 0.77561 0.47674 0.0
H572 H 0.29998 0.76515 0.51722 0.0
C573 C 0.43722 0.77361 0.49257 0.0
C574 C 0.42781 0.7713 0.51739 0.0
H575 H 0.40905 0.78173 0.45782 0.0
H576 H 0.47654 0.77877 0.48553 0.0
C577 C 0.37667 0.76582 0.52588 0.0
C578 C 0.63065 0.41342 0.86002 0.0
C579 C 0.67883 0.45986 0.84999 0.0
H580 H 0.55233 0.33675 0.85351 0.0
C581 C 0.68704 0.4612 0.82508 0.0
H582 H 0.62305 0.41154 0.87916 0.0
C583 C 0.64567 0.41933 0.81036 0.0
C584 C 0.59636 0.37414 0.82032 0.0
H585 H 0.72332 0.49678 0.81683 0.0
H586 H 0.65102 0.42358 0.79109 0.0
C587 C 0.59032 0.37047 0.84536 0.0
C588 C 0.23849 0.45704 0.99544 0.0
C589 C 0.20917 0.41033 0.98016 0.0
H590 H 0.2587 0.48652 0.03175 0.0
C591 C 0.17962 0.35599 0.9901 0.0
H592 H 0.26359 0.49914 0.98807 0.0
C593 C 0.17887 0.34859 0.01493 0.0
C594 C 0.20771 0.39536 0.03026 0.0
H595 H 0.15901 0.31918 0.97858 0.0
H596 H 0.15515 0.30629 0.02223 0.0
C597 C 0.23741 0.44969 0.02028 0.0
C598 C 0.81909 0.16867 0.33071 0.0
C599 C 0.79234 0.19684 0.32157 0.0
H600 H 0.84975 0.14759 0.36195 0.0
C601 C 0.77538 0.22566 0.33745 0.0
H602 H 0.83516 0.14869 0.31867 0.0
C603 C 0.7845 0.22591 0.36208 0.0
C604 C 0.81154 0.19802 0.37124 0.0
H605 H 0.75693 0.24979 0.33065 0.0
H606 H 0.76963 0.24714 0.37402 0.0
C607 C 0.82873 0.16937 0.35533 0.0
C608 C 0.5464 0.77712 0.66916 0.0
C609 C 0.58855 0.79006 0.65177 0.0
H610 H 0.5272 0.77955 0.70631 0.0
C611 C 0.64531 0.81813 0.65874 0.0
H612 H 0.50247 0.75748 0.66398 0.0
C613 C 0.65956 0.83284 0.68279 0.0
C614 C 0.61729 0.81984 0.70016 0.0
H615 H 0.67857 0.83081 0.64546 0.0
H616 H 0.70356 0.85369 0.68791 0.0
C617 C 0.5606 0.79166 0.69314 0.0
C618 C 0.83227 0.65825 0.99505 0.0
C619 C 0.81982 0.61333 0.97922 0.0
H620 H 0.83154 0.68346 0.03155 0.0
C621 C 0.79442 0.55815 0.9882 0.0
H622 H 0.85099 0.70111 0.98839 0.0
C623 C 0.7819 0.54803 0.01259 0.0
C624 C 0.79388 0.59278 0.0284 0.0
H625 H 0.78283 0.52269 0.97622 0.0
H626 H 0.76449 0.50534 0.01931 0.0
C627 C 0.81938 0.64807 0.01948 0.0
C628 C 0.17089 0.81366 0.34493 0.0
C629 C 0.20109 0.78899 0.35401 0.0
H630 H 0.14745 0.84204 0.31355 0.0
C631 C 0.23222 0.77481 0.33814 0.0
H632 H 0.14878 0.82733 0.35696 0.0
C633 C 0.23296 0.78477 0.3136 0.0
C634 C 0.20291 0.80949 0.30446 0.0
H635 H 0.25766 0.75781 0.34491 0.0
H636 H 0.25597 0.77194 0.30166 0.0
C637 C 0.17166 0.82367 0.3203 0.0
C638 C 0.46592 0.23364 0.67524 0.0
C639 C 0.42168 0.20767 0.69202 0.0
H640 H 0.48947 0.25079 0.63813 0.0
C641 C 0.36578 0.18028 0.68389 0.0
H642 H 0.50932 0.25712 0.68122 0.0
C643 C 0.35439 0.17905 0.65942 0.0
C644 C 0.39865 0.20482 0.6426 0.0
H645 H 0.33099 0.1625 0.69659 0.0
H646 H 0.31087 0.15809 0.65363 0.0
C647 C 0.45456 0.23179 0.65074 0.0
C648 C 0.01268 0.28451 0.20469 0.0
C649 C 0.95711 0.25338 0.19572 0.0
H650 H 0.10124 0.33288 0.19634 0.0
C651 C 0.94989 0.23515 0.17183 0.0
H652 H 0.01974 0.29875 0.22315 0.0
C653 C 0.99695 0.25452 0.15652 0.0
C654 C 0.05203 0.29221 0.16481 0.0
H655 H 0.90795 0.21131 0.16432 0.0
H656 H 0.98967 0.24511 0.13757 0.0
C657 C 0.05971 0.30362 0.18941 0.0
C658 C 0.72052 0.01146 0.54438 0.0
C659 C 0.70534 0.95737 0.53522 0.0
H660 H 0.75906 0.10018 0.53713 0.0
C661 C 0.73245 0.95424 0.51433 0.0
H662 H 0.70153 0.01561 0.56081 0.0
C663 C 0.76681 1.0034 0.50105 0.0
C664 C 0.77407 0.0563 0.50827 0.0
H665 H 0.72242 0.91358 0.50691 0.0
H666 H 0.78111 0.99879 0.48346 0.0
C667 C 0.75475 0.06048 0.53108 0.0
C668 C 0.75026 0.79991 0.85193 0.0
C669 C 0.75047 0.79659 0.82692 0.0
H670 H 0.76655 0.77057 0.88469 0.0
C671 C 0.7833 0.77593 0.8159 0.0
H672 H 0.72526 0.81518 0.86095 0.0
C673 C 0.80631 0.74941 0.82945 0.0
C674 C 0.79723 0.74383 0.85422 0.0
H675 H 0.78436 0.77312 0.79654 0.0
H676 H 0.824 0.72677 0.82024 0.0
C677 C 0.77371 0.77384 0.86549 0.0
C678 C 0.05842 0.77065 0.1494 0.0
C679 C 0.05582 0.77711 0.17419 0.0
H680 H 0.01149 0.73037 0.11777 0.0
C681 C 1.00297 0.76191 0.18472 0.0
H682 H 0.09819 0.78127 0.14082 0.0
C683 C 0.9529 0.73194 0.1716 0.0
C684 C 0.95519 0.717 0.14775 0.0
H685 H 0.99976 0.76617 0.20389 0.0
H686 H 0.91276 0.71446 0.18093 0.0
C687 C 1.00844 0.74067 0.13629 0.0
C688 C 0.2414 1.00175 0.51098 0.0
C689 C 0.28653 0.05562 0.50448 0.0
H690 H 0.19602 0.91263 0.50329 0.0
C691 C 0.31015 0.06212 0.48155 0.0
H692 H 0.2224 0.9953 0.52863 0.0
C693 C 0.29533 0.01453 0.46713 0.0
C694 C 0.25639 0.95944 0.47527 0.0
H695 H 0.3452 0.10257 0.47603 0.0
H696 H 0.31826 0.02054 0.45047 0.0
C697 C 0.22659 0.95405 0.49657 0.0
C698 C 0.2689 0.32013 0.82466 0.0
C699 C 0.27126 0.31548 0.84955 0.0
H700 H 0.2973 0.30778 0.79046 0.0
C701 C 0.29265 0.28187 0.85864 0.0
H702 H 0.25338 0.34615 0.81711 0.0
C703 C 0.31768 0.25953 0.84338 0.0
C704 C 0.3224 0.27106 0.81877 0.0
H705 H 0.29519 0.27771 0.87781 0.0
H706 H 0.33885 0.23899 0.85117 0.0
C707 C 0.29455 0.29841 0.80942 0.0
loop_
_geom_bond_atom_site_label_1
_geom_bond_atom_site_label_2
_geom_bond_distance
_geom_bond_site_symmetry_2
_ccdc_geom_bond_type
Co0 O3 1.970 . S
Co0 N17 1.989 . S
Co0 O25 1.967 . S
Co0 O32 1.920 . S
Co1 O4 1.966 . S
Co1 N10 2.022 . S
Co1 N18 1.993 . S
Co1 O26 1.941 . S
C2 O3 1.258 . S
C2 O4 1.263 . S
O3 Co0 1.970 . S
O3 C2 1.258 . S
O4 Co1 1.966 . S
O4 C2 1.263 . S
C5 O6 1.235 . S
C5 O32 1.289 . S
O6 C5 1.235 . S
C7 C9 1.400 . S
C7 N10 1.351 . S
C7 C12 1.501 . S
C8 C9 1.387 . S
C8 N11 1.341 . S
C9 C7 1.400 . S
C9 C8 1.387 . S
N10 Co1 2.022 . S
N10 C7 1.351 . S
N10 N11 1.365 . S
N11 C8 1.341 . S
N11 N10 1.365 . S
N11 H31 0.862 . S
C12 C7 1.501 . S
C12 H13 0.961 . S
C12 H14 0.961 . S
C12 H15 0.960 . S
H13 C12 0.961 . S
H14 C12 0.961 . S
H15 C12 0.960 . S
C16 N17 1.342 . S
C16 C20 1.401 . S
C16 C21 1.499 . S
N17 Co0 1.989 . S
N17 C16 1.342 . S
N17 N18 1.388 . S
N18 Co1 1.993 . S
N18 N17 1.388 . S
N18 C19 1.346 . S
C19 N18 1.346 . S
C19 C20 1.396 . S
C19 C29 1.510 . S
C20 C16 1.401 . S
C20 C19 1.396 . S
C21 C16 1.499 . S
C21 H22 0.959 . S
C21 H23 0.960 . S
C21 H24 0.961 . S
H22 C21 0.959 . S
H23 C21 0.960 . S
H24 C21 0.961 . S
O25 Co0 1.967 . S
O25 C33 1.258 . S
O26 Co1 1.941 . S
O26 C33 1.266 . S
H27 C29 0.959 . S
H28 C29 0.961 . S
C29 C19 1.510 . S
C29 H27 0.959 . S
C29 H28 0.961 . S
C29 H30 0.960 . S
H30 C29 0.960 . S
H31 N11 0.862 . S
O32 Co0 1.920 . S
O32 C5 1.289 . S
C33 O25 1.258 . S
C33 O26 1.266 . S
Co34 O37 1.970 . S
Co34 N51 1.989 . S
Co34 O59 1.967 . S
Co34 O66 1.920 . S
Co35 O38 1.966 . S
Co35 N44 2.022 . S
Co35 N52 1.993 . S
Co35 O60 1.941 . S
C36 O37 1.258 . S
C36 O38 1.263 . S
O37 Co34 1.970 . S
O37 C36 1.258 . S
O38 Co35 1.966 . S
O38 C36 1.263 . S
C39 O40 1.235 . S
C39 O66 1.289 . S
O40 C39 1.235 . S
C41 C43 1.400 . S
C41 N44 1.351 . S
C41 C46 1.501 . S
C42 C43 1.387 . S
C42 N45 1.341 . S
C43 C41 1.400 . S
C43 C42 1.387 . S
N44 Co35 2.022 . S
N44 C41 1.351 . S
N44 N45 1.365 . S
N45 C42 1.341 . S
N45 N44 1.365 . S
N45 H65 0.862 . S
C46 C41 1.501 . S
C46 H47 0.961 . S
C46 H48 0.961 . S
C46 H49 0.960 . S
H47 C46 0.961 . S
H48 C46 0.961 . S
H49 C46 0.960 . S
C50 N51 1.342 . S
C50 C54 1.401 . S
C50 C55 1.499 . S
N51 Co34 1.989 . S
N51 C50 1.342 . S
N51 N52 1.388 . S
N52 Co35 1.993 . S
N52 N51 1.388 . S
N52 C53 1.346 . S
C53 N52 1.346 . S
C53 C54 1.396 . S
C53 C63 1.510 . S
C54 C50 1.401 . S
C54 C53 1.396 . S
C55 C50 1.499 . S
C55 H56 0.959 . S
C55 H57 0.960 . S
C55 H58 0.961 . S
H56 C55 0.959 . S
H57 C55 0.960 . S
H58 C55 0.961 . S
O59 Co34 1.967 . S
O59 C67 1.258 . S
O60 Co35 1.941 . S
O60 C67 1.266 . S
H61 C63 0.959 . S
H62 C63 0.961 . S
C63 C53 1.510 . S
C63 H61 0.959 . S
C63 H62 0.961 . S
C63 H64 0.960 . S
H64 C63 0.960 . S
H65 N45 0.862 . S
O66 Co34 1.920 . S
O66 C39 1.289 . S
C67 O59 1.258 . S
C67 O60 1.266 . S
Co68 O71 1.970 . S
Co68 N85 1.989 . S
Co68 O93 1.967 . S
Co68 O100 1.920 . S
Co69 O72 1.966 . S
Co69 N78 2.022 . S
Co69 N86 1.993 . S
Co69 O94 1.941 . S
C70 O71 1.258 . S
C70 O72 1.263 . S
O71 Co68 1.970 . S
O71 C70 1.258 . S
O72 Co69 1.966 . S
O72 C70 1.263 . S
C73 O74 1.235 . S
C73 O100 1.289 . S
O74 C73 1.235 . S
C75 C77 1.400 . S
C75 N78 1.351 . S
C75 C80 1.501 . S
C76 C77 1.387 . S
C76 N79 1.341 . S
C77 C75 1.400 . S
C77 C76 1.387 . S
N78 Co69 2.022 . S
N78 C75 1.351 . S
N78 N79 1.365 . S
N79 C76 1.341 . S
N79 N78 1.365 . S
N79 H99 0.862 . S
C80 C75 1.501 . S
C80 H81 0.961 . S
C80 H82 0.961 . S
C80 H83 0.960 . S
H81 C80 0.961 . S
H82 C80 0.961 . S
H83 C80 0.960 . S
C84 N85 1.342 . S
C84 C88 1.401 . S
C84 C89 1.499 . S
N85 Co68 1.989 . S
N85 C84 1.342 . S
N85 N86 1.388 . S
N86 Co69 1.993 . S
N86 N85 1.388 . S
N86 C87 1.346 . S
C87 N86 1.346 . S
C87 C88 1.396 . S
C87 C97 1.510 . S
C88 C84 1.401 . S
C88 C87 1.396 . S
C89 C84 1.499 . S
C89 H90 0.959 . S
C89 H91 0.960 . S
C89 H92 0.961 . S
H90 C89 0.959 . S
H91 C89 0.960 . S
H92 C89 0.961 . S
O93 Co68 1.967 . S
O93 C101 1.258 . S
O94 Co69 1.941 . S
O94 C101 1.266 . S
H95 C97 0.959 . S
H96 C97 0.961 . S
C97 C87 1.510 . S
C97 H95 0.959 . S
C97 H96 0.961 . S
C97 H98 0.960 . S
H98 C97 0.960 . S
H99 N79 0.862 . S
O100 Co68 1.920 . S
O100 C73 1.289 . S
C101 O93 1.258 . S
C101 O94 1.266 . S
Co102 O105 1.970 . S
Co102 N119 1.989 . S
Co102 O127 1.967 . S
Co102 O134 1.920 . S
Co103 O106 1.966 . S
Co103 N112 2.022 . S
Co103 N120 1.993 . S
Co103 O128 1.941 . S
C104 O105 1.258 . S
C104 O106 1.263 . S
O105 Co102 1.970 . S
O105 C104 1.258 . S
O106 Co103 1.966 . S
O106 C104 1.263 . S
C107 O108 1.235 . S
C107 O134 1.289 . S
O108 C107 1.235 . S
C109 C111 1.400 . S
C109 N112 1.351 . S
C109 C114 1.501 . S
C110 C111 1.387 . S
C110 N113 1.341 . S
C111 C109 1.400 . S
C111 C110 1.387 . S
N112 Co103 2.022 . S
N112 C109 1.351 . S
N112 N113 1.365 . S
N113 C110 1.341 . S
N113 N112 1.365 . S
N113 H133 0.862 . S
C114 C109 1.501 . S
C114 H115 0.961 . S
C114 H116 0.961 . S
C114 H117 0.960 . S
H115 C114 0.961 . S
H116 C114 0.961 . S
H117 C114 0.960 . S
C118 N119 1.342 . S
C118 C122 1.401 . S
C118 C123 1.499 . S
N119 Co102 1.989 . S
N119 C118 1.342 . S
N119 N120 1.388 . S
N120 Co103 1.993 . S
N120 N119 1.388 . S
N120 C121 1.346 . S
C121 N120 1.346 . S
C121 C122 1.396 . S
C121 C131 1.510 . S
C122 C118 1.401 . S
C122 C121 1.396 . S
C123 C118 1.499 . S
C123 H124 0.959 . S
C123 H125 0.960 . S
C123 H126 0.961 . S
H124 C123 0.959 . S
H125 C123 0.960 . S
H126 C123 0.961 . S
O127 Co102 1.967 . S
O127 C135 1.258 . S
O128 Co103 1.941 . S
O128 C135 1.266 . S
H129 C131 0.959 . S
H130 C131 0.961 . S
C131 C121 1.510 . S
C131 H129 0.959 . S
C131 H130 0.961 . S
C131 H132 0.960 . S
H132 C131 0.960 . S
H133 N113 0.862 . S
O134 Co102 1.920 . S
O134 C107 1.289 . S
C135 O127 1.258 . S
C135 O128 1.266 . S
Co136 O139 1.970 . S
Co136 N153 1.989 . S
Co136 O161 1.967 . S
Co136 O168 1.920 . S
Co137 O140 1.966 . S
Co137 N146 2.022 . S
Co137 N154 1.993 . S
Co137 O162 1.941 . S
C138 O139 1.258 . S
C138 O140 1.263 . S
O139 Co136 1.970 . S
O139 C138 1.258 . S
O140 Co137 1.966 . S
O140 C138 1.263 . S
C141 O142 1.235 . S
C141 O168 1.289 . S
O142 C141 1.235 . S
C143 C145 1.400 . S
C143 N146 1.351 . S
C143 C148 1.501 . S
C144 C145 1.387 . S
C144 N147 1.341 . S
C145 C143 1.400 . S
C145 C144 1.387 . S
N146 Co137 2.022 . S
N146 C143 1.351 . S
N146 N147 1.365 . S
N147 C144 1.341 . S
N147 N146 1.365 . S
N147 H167 0.862 . S
C148 C143 1.501 . S
C148 H149 0.961 . S
C148 H150 0.961 . S
C148 H151 0.960 . S
H149 C148 0.961 . S
H150 C148 0.961 . S
H151 C148 0.960 . S
C152 N153 1.342 . S
C152 C156 1.401 . S
C152 C157 1.499 . S
N153 Co136 1.989 . S
N153 C152 1.342 . S
N153 N154 1.388 . S
N154 Co137 1.993 . S
N154 N153 1.388 . S
N154 C155 1.346 . S
C155 N154 1.346 . S
C155 C156 1.396 . S
C155 C165 1.510 . S
C156 C152 1.401 . S
C156 C155 1.396 . S
C157 C152 1.499 . S
C157 H158 0.959 . S
C157 H159 0.960 . S
C157 H160 0.961 . S
H158 C157 0.959 . S
H159 C157 0.960 . S
H160 C157 0.961 . S
O161 Co136 1.967 . S
O161 C169 1.258 . S
O162 Co137 1.941 . S
O162 C169 1.266 . S
H163 C165 0.959 . S
H164 C165 0.961 . S
C165 C155 1.510 . S
C165 H163 0.959 . S
C165 H164 0.961 . S
C165 H166 0.960 . S
H166 C165 0.960 . S
H167 N147 0.862 . S
O168 Co136 1.920 . S
O168 C141 1.289 . S
C169 O161 1.258 . S
C169 O162 1.266 . S
Co170 O173 1.970 . S
Co170 N187 1.989 . S
Co170 O195 1.967 . S
Co170 O202 1.920 . S
Co171 O174 1.966 . S
Co171 N180 2.022 . S
Co171 N188 1.993 . S
Co171 O196 1.941 . S
C172 O173 1.258 . S
C172 O174 1.263 . S
O173 Co170 1.970 . S
O173 C172 1.258 . S
O174 Co171 1.966 . S
O174 C172 1.263 . S
C175 O176 1.235 . S
C175 O202 1.289 . S
O176 C175 1.235 . S
C177 C179 1.400 . S
C177 N180 1.351 . S
C177 C182 1.501 . S
C178 C179 1.387 . S
C178 N181 1.341 . S
C179 C177 1.400 . S
C179 C178 1.387 . S
N180 Co171 2.022 . S
N180 C177 1.351 . S
N180 N181 1.365 . S
N181 C178 1.341 . S
N181 N180 1.365 . S
N181 H201 0.862 . S
C182 C177 1.501 . S
C182 H183 0.961 . S
C182 H184 0.961 . S
C182 H185 0.960 . S
H183 C182 0.961 . S
H184 C182 0.961 . S
H185 C182 0.960 . S
C186 N187 1.342 . S
C186 C190 1.401 . S
C186 C191 1.499 . S
N187 Co170 1.989 . S
N187 C186 1.342 . S
N187 N188 1.388 . S
N188 Co171 1.993 . S
N188 N187 1.388 . S
N188 C189 1.346 . S
C189 N188 1.346 . S
C189 C190 1.396 . S
C189 C199 1.510 . S
C190 C186 1.401 . S
C190 C189 1.396 . S
C191 C186 1.499 . S
C191 H192 0.959 . S
C191 H193 0.960 . S
C191 H194 0.961 . S
H192 C191 0.959 . S
H193 C191 0.960 . S
H194 C191 0.961 . S
O195 Co170 1.967 . S
O195 C203 1.258 . S
O196 Co171 1.941 . S
O196 C203 1.266 . S
H197 C199 0.959 . S
H198 C199 0.961 . S
C199 C189 1.510 . S
C199 H197 0.959 . S
C199 H198 0.961 . S
C199 H200 0.960 . S
H200 C199 0.960 . S
H201 N181 0.862 . S
O202 Co170 1.920 . S
O202 C175 1.289 . S
C203 O195 1.258 . S
C203 O196 1.266 . S
Co204 O207 1.970 . S
Co204 N221 1.989 . S
Co204 O229 1.967 . S
Co204 O236 1.920 . S
Co205 O208 1.966 . S
Co205 N214 2.022 . S
Co205 N222 1.993 . S
Co205 O230 1.941 . S
C206 O207 1.258 . S
C206 O208 1.263 . S
O207 Co204 1.970 . S
O207 C206 1.258 . S
O208 Co205 1.966 . S
O208 C206 1.263 . S
C209 O210 1.235 . S
C209 O236 1.289 . S
O210 C209 1.235 . S
C211 C213 1.400 . S
C211 N214 1.351 . S
C211 C216 1.501 . S
C212 C213 1.387 . S
C212 N215 1.341 . S
C213 C211 1.400 . S
C213 C212 1.387 . S
N214 Co205 2.022 . S
N214 C211 1.351 . S
N214 N215 1.365 . S
N215 C212 1.341 . S
N215 N214 1.365 . S
N215 H235 0.862 . S
C216 C211 1.501 . S
C216 H217 0.961 . S
C216 H218 0.961 . S
C216 H219 0.960 . S
H217 C216 0.961 . S
H218 C216 0.961 . S
H219 C216 0.960 . S
C220 N221 1.342 . S
C220 C224 1.401 . S
C220 C225 1.499 . S
N221 Co204 1.989 . S
N221 C220 1.342 . S
N221 N222 1.388 . S
N222 Co205 1.993 . S
N222 N221 1.388 . S
N222 C223 1.346 . S
C223 N222 1.346 . S
C223 C224 1.396 . S
C223 C233 1.510 . S
C224 C220 1.401 . S
C224 C223 1.396 . S
C225 C220 1.499 . S
C225 H226 0.959 . S
C225 H227 0.960 . S
C225 H228 0.961 . S
H226 C225 0.959 . S
H227 C225 0.960 . S
H228 C225 0.961 . S
O229 Co204 1.967 . S
O229 C237 1.258 . S
O230 Co205 1.941 . S
O230 C237 1.266 . S
H231 C233 0.959 . S
H232 C233 0.961 . S
C233 C223 1.510 . S
C233 H231 0.959 . S
C233 H232 0.961 . S
C233 H234 0.960 . S
H234 C233 0.960 . S
H235 N215 0.862 . S
O236 Co204 1.920 . S
O236 C209 1.289 . S
C237 O229 1.258 . S
C237 O230 1.266 . S
Co238 O241 1.970 . S
Co238 N255 1.989 . S
Co238 O263 1.967 . S
Co238 O270 1.920 . S
Co239 O242 1.966 . S
Co239 N248 2.022 . S
Co239 N256 1.993 . S
Co239 O264 1.941 . S
C240 O241 1.258 . S
C240 O242 1.263 . S
O241 Co238 1.970 . S
O241 C240 1.258 . S
O242 Co239 1.966 . S
O242 C240 1.263 . S
C243 O244 1.235 . S
C243 O270 1.289 . S
O244 C243 1.235 . S
C245 C247 1.400 . S
C245 N248 1.351 . S
C245 C250 1.501 . S
C246 C247 1.387 . S
C246 N249 1.341 . S
C247 C245 1.400 . S
C247 C246 1.387 . S
N248 Co239 2.022 . S
N248 C245 1.351 . S
N248 N249 1.365 . S
N249 C246 1.341 . S
N249 N248 1.365 . S
N249 H269 0.862 . S
C250 C245 1.501 . S
C250 H251 0.961 . S
C250 H252 0.961 . S
C250 H253 0.960 . S
H251 C250 0.961 . S
H252 C250 0.961 . S
H253 C250 0.960 . S
C254 N255 1.342 . S
C254 C258 1.401 . S
C254 C259 1.499 . S
N255 Co238 1.989 . S
N255 C254 1.342 . S
N255 N256 1.388 . S
N256 Co239 1.993 . S
N256 N255 1.388 . S
N256 C257 1.346 . S
C257 N256 1.346 . S
C257 C258 1.396 . S
C257 C267 1.510 . S
C258 C254 1.401 . S
C258 C257 1.396 . S
C259 C254 1.499 . S
C259 H260 0.959 . S
C259 H261 0.960 . S
C259 H262 0.961 . S
H260 C259 0.959 . S
H261 C259 0.960 . S
H262 C259 0.961 . S
O263 Co238 1.967 . S
O263 C271 1.258 . S
O264 Co239 1.941 . S
O264 C271 1.266 . S
H265 C267 0.959 . S
H266 C267 0.961 . S
C267 C257 1.510 . S
C267 H265 0.959 . S
C267 H266 0.961 . S
C267 H268 0.960 . S
H268 C267 0.960 . S
H269 N249 0.862 . S
O270 Co238 1.920 . S
O270 C243 1.289 . S
C271 O263 1.258 . S
C271 O264 1.266 . S
Co272 O275 1.970 . S
Co272 N289 1.989 . S
Co272 O297 1.967 . S
Co272 O304 1.920 . S
Co273 O276 1.966 . S
Co273 N282 2.022 . S
Co273 N290 1.993 . S
Co273 O298 1.941 . S
C274 O275 1.258 . S
C274 O276 1.263 . S
O275 Co272 1.970 . S
O275 C274 1.258 . S
O276 Co273 1.966 . S
O276 C274 1.263 . S
C277 O278 1.235 . S
C277 O304 1.289 . S
O278 C277 1.235 . S
C279 C281 1.400 . S
C279 N282 1.351 . S
C279 C284 1.501 . S
C280 C281 1.387 . S
C280 N283 1.341 . S
C281 C279 1.400 . S
C281 C280 1.387 . S
N282 Co273 2.022 . S
N282 C279 1.351 . S
N282 N283 1.365 . S
N283 C280 1.341 . S
N283 N282 1.365 . S
N283 H303 0.862 . S
C284 C279 1.501 . S
C284 H285 0.961 . S
C284 H286 0.961 . S
C284 H287 0.960 . S
H285 C284 0.961 . S
H286 C284 0.961 . S
H287 C284 0.960 . S
C288 N289 1.342 . S
C288 C292 1.401 . S
C288 C293 1.499 . S
N289 Co272 1.989 . S
N289 C288 1.342 . S
N289 N290 1.388 . S
N290 Co273 1.993 . S
N290 N289 1.388 . S
N290 C291 1.346 . S
C291 N290 1.346 . S
C291 C292 1.396 . S
C291 C301 1.510 . S
C292 C288 1.401 . S
C292 C291 1.396 . S
C293 C288 1.499 . S
C293 H294 0.959 . S
C293 H295 0.960 . S
C293 H296 0.961 . S
H294 C293 0.959 . S
H295 C293 0.960 . S
H296 C293 0.961 . S
O297 Co272 1.967 . S
O297 C305 1.258 . S
O298 Co273 1.941 . S
O298 C305 1.266 . S
H299 C301 0.959 . S
H300 C301 0.961 . S
C301 C291 1.510 . S
C301 H299 0.959 . S
C301 H300 0.961 . S
C301 H302 0.960 . S
H302 C301 0.960 . S
H303 N283 0.862 . S
O304 Co272 1.920 . S
O304 C277 1.289 . S
C305 O297 1.258 . S
C305 O298 1.266 . S
Co306 O309 1.970 . S
Co306 N323 1.989 . S
Co306 O331 1.967 . S
Co306 O338 1.920 . S
Co307 O310 1.966 . S
Co307 N316 2.022 . S
Co307 N324 1.993 . S
Co307 O332 1.941 . S
C308 O309 1.258 . S
C308 O310 1.263 . S
O309 Co306 1.970 . S
O309 C308 1.258 . S
O310 Co307 1.966 . S
O310 C308 1.263 . S
C311 O312 1.235 . S
C311 O338 1.289 . S
O312 C311 1.235 . S
C313 C315 1.400 . S
C313 N316 1.351 . S
C313 C318 1.501 . S
C314 C315 1.387 . S
C314 N317 1.341 . S
C315 C313 1.400 . S
C315 C314 1.387 . S
N316 Co307 2.022 . S
N316 C313 1.351 . S
N316 N317 1.365 . S
N317 C314 1.341 . S
N317 N316 1.365 . S
N317 H337 0.862 . S
C318 C313 1.501 . S
C318 H319 0.961 . S
C318 H320 0.961 . S
C318 H321 0.960 . S
H319 C318 0.961 . S
H320 C318 0.961 . S
H321 C318 0.960 . S
C322 N323 1.342 . S
C322 C326 1.401 . S
C322 C327 1.499 . S
N323 Co306 1.989 . S
N323 C322 1.342 . S
N323 N324 1.388 . S
N324 Co307 1.993 . S
N324 N323 1.388 . S
N324 C325 1.346 . S
C325 N324 1.346 . S
C325 C326 1.396 . S
C325 C335 1.510 . S
C326 C322 1.401 . S
C326 C325 1.396 . S
C327 C322 1.499 . S
C327 H328 0.959 . S
C327 H329 0.960 . S
C327 H330 0.961 . S
H328 C327 0.959 . S
H329 C327 0.960 . S
H330 C327 0.961 . S
O331 Co306 1.967 . S
O331 C339 1.258 . S
O332 Co307 1.941 . S
O332 C339 1.266 . S
H333 C335 0.959 . S
H334 C335 0.961 . S
C335 C325 1.510 . S
C335 H333 0.959 . S
C335 H334 0.961 . S
C335 H336 0.960 . S
H336 C335 0.960 . S
H337 N317 0.862 . S
O338 Co306 1.920 . S
O338 C311 1.289 . S
C339 O331 1.258 . S
C339 O332 1.266 . S
Co340 O343 1.970 . S
Co340 N357 1.989 . S
Co340 O365 1.967 . S
Co340 O372 1.920 . S
Co341 O344 1.966 . S
Co341 N350 2.022 . S
Co341 N358 1.993 . S
Co341 O366 1.941 . S
C342 O343 1.258 . S
C342 O344 1.263 . S
O343 Co340 1.970 . S
O343 C342 1.258 . S
O344 Co341 1.966 . S
O344 C342 1.263 . S
C345 O346 1.235 . S
C345 O372 1.289 . S
O346 C345 1.235 . S
C347 C349 1.400 . S
C347 N350 1.351 . S
C347 C352 1.501 . S
C348 C349 1.387 . S
C348 N351 1.341 . S
C349 C347 1.400 . S
C349 C348 1.387 . S
N350 Co341 2.022 . S
N350 C347 1.351 . S
N350 N351 1.365 . S
N351 C348 1.341 . S
N351 N350 1.365 . S
N351 H371 0.862 . S
C352 C347 1.501 . S
C352 H353 0.961 . S
C352 H354 0.961 . S
C352 H355 0.960 . S
H353 C352 0.961 . S
H354 C352 0.961 . S
H355 C352 0.960 . S
C356 N357 1.342 . S
C356 C360 1.401 . S
C356 C361 1.499 . S
N357 Co340 1.989 . S
N357 C356 1.342 . S
N357 N358 1.388 . S
N358 Co341 1.993 . S
N358 N357 1.388 . S
N358 C359 1.346 . S
C359 N358 1.346 . S
C359 C360 1.396 . S
C359 C369 1.510 . S
C360 C356 1.401 . S
C360 C359 1.396 . S
C361 C356 1.499 . S
C361 H362 0.959 . S
C361 H363 0.960 . S
C361 H364 0.961 . S
H362 C361 0.959 . S
H363 C361 0.960 . S
H364 C361 0.961 . S
O365 Co340 1.967 . S
O365 C373 1.258 . S
O366 Co341 1.941 . S
O366 C373 1.266 . S
H367 C369 0.959 . S
H368 C369 0.961 . S
C369 C359 1.510 . S
C369 H367 0.959 . S
C369 H368 0.961 . S
C369 H370 0.960 . S
H370 C369 0.960 . S
H371 N351 0.862 . S
O372 Co340 1.920 . S
O372 C345 1.289 . S
C373 O365 1.258 . S
C373 O366 1.266 . S
Co374 O377 1.970 . S
Co374 N391 1.989 . S
Co374 O399 1.967 . S
Co374 O406 1.920 . S
Co375 O378 1.966 . S
Co375 N384 2.022 . S
Co375 N392 1.993 . S
Co375 O400 1.941 . S
C376 O377 1.258 . S
C376 O378 1.263 . S
O377 Co374 1.970 . S
O377 C376 1.258 . S
O378 Co375 1.966 . S
O378 C376 1.263 . S
C379 O380 1.235 . S
C379 O406 1.289 . S
O380 C379 1.235 . S
C381 C383 1.400 . S
C381 N384 1.351 . S
C381 C386 1.501 . S
C382 C383 1.387 . S
C382 N385 1.341 . S
C383 C381 1.400 . S
C383 C382 1.387 . S
N384 Co375 2.022 . S
N384 C381 1.351 . S
N384 N385 1.365 . S
N385 C382 1.341 . S
N385 N384 1.365 . S
N385 H405 0.862 . S
C386 C381 1.501 . S
C386 H387 0.961 . S
C386 H388 0.961 . S
C386 H389 0.960 . S
H387 C386 0.961 . S
H388 C386 0.961 . S
H389 C386 0.960 . S
C390 N391 1.342 . S
C390 C394 1.401 . S
C390 C395 1.499 . S
N391 Co374 1.989 . S
N391 C390 1.342 . S
N391 N392 1.388 . S
N392 Co375 1.993 . S
N392 N391 1.388 . S
N392 C393 1.346 . S
C393 N392 1.346 . S
C393 C394 1.396 . S
C393 C403 1.510 . S
C394 C390 1.401 . S
C394 C393 1.396 . S
C395 C390 1.499 . S
C395 H396 0.959 . S
C395 H397 0.960 . S
C395 H398 0.961 . S
H396 C395 0.959 . S
H397 C395 0.960 . S
H398 C395 0.961 . S
O399 Co374 1.967 . S
O399 C407 1.258 . S
O400 Co375 1.941 . S
O400 C407 1.266 . S
H401 C403 0.959 . S
H402 C403 0.961 . S
C403 C393 1.510 . S
C403 H401 0.959 . S
C403 H402 0.961 . S
C403 H404 0.960 . S
H404 C403 0.960 . S
H405 N385 0.862 . S
O406 Co374 1.920 . S
O406 C379 1.289 . S
C407 O399 1.258 . S
C407 O400 1.266 . S
C408 C409 1.387 . S
C408 H412 0.950 . S
C408 C417 1.390 . S
C409 C408 1.387 . S
C409 C411 1.387 . S
H410 C417 0.950 . S
C411 C409 1.387 . S
C411 C413 1.390 . S
C411 H415 0.950 . S
H412 C408 0.950 . S
C413 C411 1.390 . S
C413 C414 1.387 . S
C413 H416 0.950 . S
C414 C413 1.387 . S
C414 C417 1.387 . S
H415 C411 0.950 . S
H416 C413 0.950 . S
C417 C408 1.390 . S
C417 H410 0.950 . S
C417 C414 1.387 . S
C418 C419 1.387 . S
C418 H422 0.950 . S
C418 C427 1.390 1_455 S
C419 C418 1.387 . S
C419 C421 1.387 . S
H420 C427 0.950 . S
C421 C419 1.387 . S
C421 C423 1.390 1_455 S
C421 H425 0.950 . S
H422 C418 0.950 . S
C423 C421 1.390 1_655 S
C423 C424 1.387 . S
C423 H426 0.950 . S
C424 C423 1.387 . S
C424 C427 1.387 . S
H425 C421 0.950 . S
H426 C423 0.950 . S
C427 C418 1.390 1_655 S
C427 H420 0.950 . S
C427 C424 1.387 . S
C428 C429 1.387 . S
C428 H432 0.950 . S
C428 C437 1.390 1_545 S
C429 C428 1.387 . S
C429 C431 1.387 . S
H430 C437 0.950 . S
C431 C429 1.387 . S
C431 C433 1.390 1_545 S
C431 H435 0.950 . S
H432 C428 0.950 . S
C433 C431 1.390 1_565 S
C433 C434 1.387 . S
C433 H436 0.950 . S
C434 C433 1.387 . S
C434 C437 1.387 . S
H435 C431 0.950 . S
H436 C433 0.950 . S
C437 C428 1.390 1_565 S
C437 H430 0.950 . S
C437 C434 1.387 . S
C438 C439 1.387 . S
C438 H442 0.950 . S
C438 C447 1.390 . S
C439 C438 1.387 . S
C439 C441 1.387 . S
H440 C447 0.950 . S
C441 C439 1.387 . S
C441 C443 1.390 . S
C441 H445 0.950 . S
H442 C438 0.950 . S
C443 C441 1.390 . S
C443 C444 1.387 . S
C443 H446 0.950 . S
C444 C443 1.387 . S
C444 C447 1.387 . S
H445 C441 0.950 . S
H446 C443 0.950 . S
C447 C438 1.390 . S
C447 H440 0.950 . S
C447 C444 1.387 . S
C448 C449 1.387 . S
C448 H452 0.950 . S
C448 C457 1.390 1_655 S
C449 C448 1.387 . S
C449 C451 1.387 . S
H450 C457 0.950 . S
C451 C449 1.387 . S
C451 C453 1.390 1_655 S
C451 H455 0.950 . S
H452 C448 0.950 . S
C453 C451 1.390 1_455 S
C453 C454 1.387 . S
C453 H456 0.950 . S
C454 C453 1.387 . S
C454 C457 1.387 . S
H455 C451 0.950 . S
H456 C453 0.950 . S
C457 C448 1.390 1_455 S
C457 H450 0.950 . S
C457 C454 1.387 . S
C458 C459 1.387 . S
C458 H462 0.950 . S
C458 C467 1.390 1_565 S
C459 C458 1.387 . S
C459 C461 1.387 . S
H460 C467 0.950 . S
C461 C459 1.387 . S
C461 C463 1.390 1_565 S
C461 H465 0.950 . S
H462 C458 0.950 . S
C463 C461 1.390 1_545 S
C463 C464 1.387 . S
C463 H466 0.950 . S
C464 C463 1.387 . S
C464 C467 1.387 . S
H465 C461 0.950 . S
H466 C463 0.950 . S
C467 C458 1.390 1_545 S
C467 H460 0.950 . S
C467 C464 1.387 . S
C468 C469 1.387 . S
C468 H472 0.950 . S
C468 C477 1.390 1_655 S
C469 C468 1.387 . S
C469 C471 1.387 . S
H470 C477 0.950 . S
C471 C469 1.387 . S
C471 C473 1.390 1_655 S
C471 H475 0.950 . S
H472 C468 0.950 . S
C473 C471 1.390 1_455 S
C473 C474 1.387 . S
C473 H476 0.950 . S
C474 C473 1.387 . S
C474 C477 1.387 . S
H475 C471 0.950 . S
H476 C473 0.950 . S
C477 C468 1.390 1_455 S
C477 H470 0.950 . S
C477 C474 1.387 . S
C478 C479 1.387 . S
C478 H482 0.950 . S
C478 C487 1.390 1_545 S
C479 C478 1.387 . S
C479 C481 1.387 . S
H480 C487 0.950 . S
C481 C479 1.387 . S
C481 C483 1.390 1_545 S
C481 H485 0.950 . S
H482 C478 0.950 . S
C483 C481 1.390 1_565 S
C483 C484 1.387 . S
C483 H486 0.950 . S
C484 C483 1.387 . S
C484 C487 1.387 . S
H485 C481 0.950 . S
H486 C483 0.950 . S
C487 C478 1.390 1_565 S
C487 H480 0.950 . S
C487 C484 1.387 . S
C488 C489 1.387 . S
C488 H492 0.950 . S
C488 C497 1.390 . S
C489 C488 1.387 . S
C489 C491 1.387 . S
H490 C497 0.950 . S
C491 C489 1.387 . S
C491 C493 1.390 . S
C491 H495 0.950 . S
H492 C488 0.950 . S
C493 C491 1.390 . S
C493 C494 1.387 . S
C493 H496 0.950 . S
C494 C493 1.387 . S
C494 C497 1.387 . S
H495 C491 0.950 . S
H496 C493 0.950 . S
C497 C488 1.390 . S
C497 H490 0.950 . S
C497 C494 1.387 . S
C498 C499 1.387 . S
C498 H502 0.950 . S
C498 C507 1.390 1_565 S
C499 C498 1.387 . S
C499 C501 1.387 . S
H500 C507 0.950 . S
C501 C499 1.387 . S
C501 C503 1.390 1_565 S
C501 H505 0.950 . S
H502 C498 0.950 . S
C503 C501 1.390 1_545 S
C503 C504 1.387 . S
C503 H506 0.950 . S
C504 C503 1.387 . S
C504 C507 1.387 . S
H505 C501 0.950 . S
H506 C503 0.950 . S
C507 C498 1.390 1_545 S
C507 H500 0.950 . S
C507 C504 1.387 . S
C508 C509 1.387 . S
C508 H512 0.950 . S
C508 C517 1.390 . S
C509 C508 1.387 . S
C509 C511 1.387 . S
H510 C517 0.950 . S
C511 C509 1.387 . S
C511 C513 1.390 . S
C511 H515 0.950 . S
H512 C508 0.950 . S
C513 C511 1.390 . S
C513 C514 1.387 . S
C513 H516 0.950 . S
C514 C513 1.387 . S
C514 C517 1.387 . S
H515 C511 0.950 . S
H516 C513 0.950 . S
C517 C508 1.390 . S
C517 H510 0.950 . S
C517 C514 1.387 . S
C518 C519 1.387 . S
C518 H522 0.950 . S
C518 C527 1.390 1_455 S
C519 C518 1.387 . S
C519 C521 1.387 . S
H520 C527 0.950 . S
C521 C519 1.387 . S
C521 C523 1.390 1_455 S
C521 H525 0.950 . S
H522 C518 0.950 . S
C523 C521 1.390 1_655 S
C523 C524 1.387 . S
C523 H526 0.950 . S
C524 C523 1.387 . S
C524 C527 1.387 . S
H525 C521 0.950 . S
H526 C523 0.950 . S
C527 C518 1.390 1_655 S
C527 H520 0.950 . S
C527 C524 1.387 . S
C528 C529 1.387 . S
C528 H532 0.950 . S
C528 C537 1.390 . S
C529 C528 1.387 . S
C529 C531 1.387 . S
H530 C537 0.950 . S
C531 C529 1.387 . S
C531 C533 1.390 . S
C531 H535 0.950 . S
H532 C528 0.950 . S
C533 C531 1.390 . S
C533 C534 1.387 . S
C533 H536 0.950 . S
C534 C533 1.387 . S
C534 C537 1.387 . S
H535 C531 0.950 . S
H536 C533 0.950 . S
C537 C528 1.390 . S
C537 H530 0.950 . S
C537 C534 1.387 . S
C538 C539 1.387 . S
C538 H542 0.950 . S
C538 C547 1.390 . S
C539 C538 1.387 . S
C539 C541 1.387 . S
H540 C547 0.950 . S
C541 C539 1.387 . S
C541 C543 1.390 . S
C541 H545 0.950 . S
H542 C538 0.950 . S
C543 C541 1.390 . S
C543 C544 1.387 . S
C543 H546 0.950 . S
C544 C543 1.387 . S
C544 C547 1.387 . S
H545 C541 0.950 . S
H546 C543 0.950 . S
C547 C538 1.390 . S
C547 H540 0.950 . S
C547 C544 1.387 . S
C548 C549 1.387 . S
C548 H552 0.950 . S
C548 C557 1.390 . S
C549 C548 1.387 . S
C549 C551 1.387 . S
H550 C557 0.950 . S
C551 C549 1.387 . S
C551 C553 1.390 . S
C551 H555 0.950 . S
H552 C548 0.950 . S
C553 C551 1.390 . S
C553 C554 1.387 . S
C553 H556 0.950 . S
C554 C553 1.387 . S
C554 C557 1.387 . S
H555 C551 0.950 . S
H556 C553 0.950 . S
C557 C548 1.390 . S
C557 H550 0.950 . S
C557 C554 1.387 . S
C558 C559 1.387 . S
C558 H562 0.950 . S
C558 C567 1.390 . S
C559 C558 1.387 . S
C559 C561 1.387 . S
H560 C567 0.950 . S
C561 C559 1.387 . S
C561 C563 1.390 . S
C561 H565 0.950 . S
H562 C558 0.950 . S
C563 C561 1.390 . S
C563 C564 1.387 . S
C563 H566 0.950 . S
C564 C563 1.387 . S
C564 C567 1.387 . S
H565 C561 0.950 . S
H566 C563 0.950 . S
C567 C558 1.390 . S
C567 H560 0.950 . S
C567 C564 1.387 . S
C568 C569 1.387 . S
C568 H572 0.950 . S
C568 C577 1.390 . S
C569 C568 1.387 . S
C569 C571 1.387 . S
H570 C577 0.950 . S
C571 C569 1.387 . S
C571 C573 1.390 . S
C571 H575 0.950 . S
H572 C568 0.950 . S
C573 C571 1.390 . S
C573 C574 1.387 . S
C573 H576 0.950 . S
C574 C573 1.387 . S
C574 C577 1.387 . S
H575 C571 0.950 . S
H576 C573 0.950 . S
C577 C568 1.390 . S
C577 H570 0.950 . S
C577 C574 1.387 . S
C578 C579 1.387 . S
C578 H582 0.950 . S
C578 C587 1.390 . S
C579 C578 1.387 . S
C579 C581 1.387 . S
H580 C587 0.950 . S
C581 C579 1.387 . S
C581 C583 1.390 . S
C581 H585 0.950 . S
H582 C578 0.950 . S
C583 C581 1.390 . S
C583 C584 1.387 . S
C583 H586 0.950 . S
C584 C583 1.387 . S
C584 C587 1.387 . S
H585 C581 0.950 . S
H586 C583 0.950 . S
C587 C578 1.390 . S
C587 H580 0.950 . S
C587 C584 1.387 . S
C588 C589 1.387 . S
C588 H592 0.950 . S
C588 C597 1.390 1_556 S
C589 C588 1.387 . S
C589 C591 1.387 . S
H590 C597 0.950 . S
C591 C589 1.387 . S
C591 C593 1.390 1_556 S
C591 H595 0.950 . S
H592 C588 0.950 . S
C593 C591 1.390 1_554 S
C593 C594 1.387 . S
C593 H596 0.950 . S
C594 C593 1.387 . S
C594 C597 1.387 . S
H595 C591 0.950 . S
H596 C593 0.950 . S
C597 C588 1.390 1_554 S
C597 H590 0.950 . S
C597 C594 1.387 . S
C598 C599 1.387 . S
C598 H602 0.950 . S
C598 C607 1.390 . S
C599 C598 1.387 . S
C599 C601 1.387 . S
H600 C607 0.950 . S
C601 C599 1.387 . S
C601 C603 1.390 . S
C601 H605 0.950 . S
H602 C598 0.950 . S
C603 C601 1.390 . S
C603 C604 1.387 . S
C603 H606 0.950 . S
C604 C603 1.387 . S
C604 C607 1.387 . S
H605 C601 0.950 . S
H606 C603 0.950 . S
C607 C598 1.390 . S
C607 H600 0.950 . S
C607 C604 1.387 . S
C608 C609 1.387 . S
C608 H612 0.950 . S
C608 C617 1.390 . S
C609 C608 1.387 . S
C609 C611 1.387 . S
H610 C617 0.950 . S
C611 C609 1.387 . S
C611 C613 1.390 . S
C611 H615 0.950 . S
H612 C608 0.950 . S
C613 C611 1.390 . S
C613 C614 1.387 . S
C613 H616 0.950 . S
C614 C613 1.387 . S
C614 C617 1.387 . S
H615 C611 0.950 . S
H616 C613 0.950 . S
C617 C608 1.390 . S
C617 H610 0.950 . S
C617 C614 1.387 . S
C618 C619 1.387 . S
C618 H622 0.950 . S
C618 C627 1.390 1_556 S
C619 C618 1.387 . S
C619 C621 1.387 . S
H620 C627 0.950 . S
C621 C619 1.387 . S
C621 C623 1.390 1_556 S
C621 H625 0.950 . S
H622 C618 0.950 . S
C623 C621 1.390 1_554 S
C623 C624 1.387 . S
C623 H626 0.950 . S
C624 C623 1.387 . S
C624 C627 1.387 . S
H625 C621 0.950 . S
H626 C623 0.950 . S
C627 C618 1.390 1_554 S
C627 H620 0.950 . S
C627 C624 1.387 . S
C628 C629 1.387 . S
C628 H632 0.950 . S
C628 C637 1.390 . S
C629 C628 1.387 . S
C629 C631 1.387 . S
H630 C637 0.950 . S
C631 C629 1.387 . S
C631 C633 1.390 . S
C631 H635 0.950 . S
H632 C628 0.950 . S
C633 C631 1.390 . S
C633 C634 1.387 . S
C633 H636 0.950 . S
C634 C633 1.387 . S
C634 C637 1.387 . S
H635 C631 0.950 . S
H636 C633 0.950 . S
C637 C628 1.390 . S
C637 H630 0.950 . S
C637 C634 1.387 . S
C638 C639 1.387 . S
C638 H642 0.950 . S
C638 C647 1.390 . S
C639 C638 1.387 . S
C639 C641 1.387 . S
H640 C647 0.950 . S
C641 C639 1.387 . S
C641 C643 1.390 . S
C641 H645 0.950 . S
H642 C638 0.950 . S
C643 C641 1.390 . S
C643 C644 1.387 . S
C643 H646 0.950 . S
C644 C643 1.387 . S
C644 C647 1.387 . S
H645 C641 0.950 . S
H646 C643 0.950 . S
C647 C638 1.390 . S
C647 H640 0.950 . S
C647 C644 1.387 . S
C648 C649 1.387 . S
C648 H652 0.950 . S
C648 C657 1.390 1_655 S
C649 C648 1.387 . S
C649 C651 1.387 . S
H650 C657 0.950 . S
C651 C649 1.387 . S
C651 C653 1.390 1_655 S
C651 H655 0.950 . S
H652 C648 0.950 . S
C653 C651 1.390 1_455 S
C653 C654 1.387 . S
C653 H656 0.950 . S
C654 C653 1.387 . S
C654 C657 1.387 . S
H655 C651 0.950 . S
H656 C653 0.950 . S
C657 C648 1.390 1_455 S
C657 H650 0.950 . S
C657 C654 1.387 . S
C658 C659 1.387 . S
C658 H662 0.950 . S
C658 C667 1.390 1_565 S
C659 C658 1.387 . S
C659 C661 1.387 . S
H660 C667 0.950 . S
C661 C659 1.387 . S
C661 C663 1.390 1_565 S
C661 H665 0.950 . S
H662 C658 0.950 . S
C663 C661 1.390 1_545 S
C663 C664 1.387 . S
C663 H666 0.950 . S
C664 C663 1.387 . S
C664 C667 1.387 . S
H665 C661 0.950 . S
H666 C663 0.950 . S
C667 C658 1.390 1_545 S
C667 H660 0.950 . S
C667 C664 1.387 . S
C668 C669 1.387 . S
C668 H672 0.950 . S
C668 C677 1.390 . S
C669 C668 1.387 . S
C669 C671 1.387 . S
H670 C677 0.950 . S
C671 C669 1.387 . S
C671 C673 1.390 . S
C671 H675 0.950 . S
H672 C668 0.950 . S
C673 C671 1.390 . S
C673 C674 1.387 . S
C673 H676 0.950 . S
C674 C673 1.387 . S
C674 C677 1.387 . S
H675 C671 0.950 . S
H676 C673 0.950 . S
C677 C668 1.390 . S
C677 H670 0.950 . S
C677 C674 1.387 . S
C678 C679 1.387 . S
C678 H682 0.950 . S
C678 C687 1.390 1_455 S
C679 C678 1.387 . S
C679 C681 1.387 . S
H680 C687 0.950 . S
C681 C679 1.387 . S
C681 C683 1.390 1_455 S
C681 H685 0.950 . S
H682 C678 0.950 . S
C683 C681 1.390 1_655 S
C683 C684 1.387 . S
C683 H686 0.950 . S
C684 C683 1.387 . S
C684 C687 1.387 . S
H685 C681 0.950 . S
H686 C683 0.950 . S
C687 C678 1.390 1_655 S
C687 H680 0.950 . S
C687 C684 1.387 . S
C688 C689 1.387 . S
C688 H692 0.950 . S
C688 C697 1.390 1_545 S
C689 C688 1.387 . S
C689 C691 1.387 . S
H690 C697 0.950 . S
C691 C689 1.387 . S
C691 C693 1.390 1_545 S
C691 H695 0.950 . S
H692 C688 0.950 . S
C693 C691 1.390 1_565 S
C693 C694 1.387 . S
C693 H696 0.950 . S
C694 C693 1.387 . S
C694 C697 1.387 . S
H695 C691 0.950 . S
H696 C693 0.950 . S
C697 C688 1.390 1_565 S
C697 H690 0.950 . S
C697 C694 1.387 . S
C698 C699 1.387 . S
C698 H702 0.950 . S
C698 C707 1.390 . S
C699 C698 1.387 . S
C699 C701 1.387 . S
H700 C707 0.950 . S
C701 C699 1.387 . S
C701 C703 1.390 . S
C701 H705 0.950 . S
H702 C698 0.950 . S
C703 C701 1.390 . S
C703 C704 1.387 . S
C703 H706 0.950 . S
C704 C703 1.387 . S
C704 C707 1.387 . S
H705 C701 0.950 . S
H706 C703 0.950 . S
C707 C698 1.390 . S
C707 H700 0.950 . S
C707 C704 1.387 . S
C409 C111 1.621 . S
C414 C9 1.621 . S
C419 C145 1.621 . S
C424 C43 1.621 . S
C429 C179 1.621 . S
C434 C77 1.621 . S
C439 C213 1.622 . S
C444 C315 1.622 . S
C449 C247 1.621 . S
C454 C349 1.621 . S
C459 C281 1.622 . S
C464 C383 1.622 . S
C469 C107 0.715 . S
C474 C5 0.715 . S
C479 C39 0.715 . S
C484 C141 0.715 . S
C489 C175 0.707 . S
C494 C73 0.707 . S
C499 C209 0.707 . S
C504 C311 0.707 . S
C509 C345 0.707 . S
C514 C243 0.707 . S
C519 C277 0.715 . S
C524 C379 0.715 . S
C529 C274 1.658 . S
C534 C2 1.656 . S
C539 C36 1.658 . S
C544 C308 1.658 . S
C549 C70 1.656 . S
C554 C342 1.657 . S
C559 C104 1.656 . S
C564 C376 1.657 . S
C569 C138 1.658 . S
C574 C206 1.658 . S
C579 C240 1.658 . S
C584 C172 1.657 . S
C589 C360 1.641 . S
C594 C20 1.641 . S
C599 C394 1.642 . S
C604 C54 1.642 . S
C609 C224 1.641 . S
C614 C88 1.641 . S
C619 C258 1.642 . S
C624 C122 1.642 . S
C629 C156 1.642 . S
C634 C292 1.642 . S
C639 C190 1.642 . S
C644 C326 1.641 . S
C649 C407 1.499 . S
C654 C33 1.501 . S
C659 C237 1.500 . S
C664 C67 1.500 . S
C669 C101 1.500 . S
C674 C271 1.497 . S
C679 C305 1.500 . S
C684 C135 1.497 . S
C689 C339 1.500 . S
C694 C169 1.500 . S
C699 C373 1.501 . S
C704 C203 1.498 . S
