# Generated by pormake.
# Topology afi, (4)-cn, num edge types: 1
# Building blocks:
#     Node 0, Type 0, BuildingBlock: NAHDIM_clean_sbu_0, # of connection points: 4
#     Node 1, Type 0, BuildingBlock: NAHDIM_clean_sbu_0, # of connection points: 4
#     Node 2, Type 0, BuildingBlock: NAHDIM_clean_sbu_0, # of connection points: 4
#     Node 3, Type 0, BuildingBlock: NAHDIM_clean_sbu_0, # of connection points: 4
#     Node 4, Type 0, BuildingBlock: NAHDIM_clean_sbu_0, # of connection points: 4
#     Node 5, Type 0, BuildingBlock: NAHDIM_clean_sbu_0, # of connection points: 4
#     Node 6, Type 0, BuildingBlock: NAHDIM_clean_sbu_0, # of connection points: 4
#     Node 7, Type 0, BuildingBlock: NAHDIM_clean_sbu_0, # of connection points: 4
#     Node 8, Type 0, BuildingBlock: NAHDIM_clean_sbu_0, # of connection points: 4
#     Node 9, Type 0, BuildingBlock: NAHDIM_clean_sbu_0, # of connection points: 4
#     Node 10, Type 0, BuildingBlock: NAHDIM_clean_sbu_0, # of connection points: 4
#     Node 11, Type 0, BuildingBlock: NAHDIM_clean_sbu_0, # of connection points: 4
#     Node 12, Type 0, BuildingBlock: NAHDIM_clean_sbu_0, # of connection points: 4
#     Node 13, Type 0, BuildingBlock: NAHDIM_clean_sbu_0, # of connection points: 4
#     Node 14, Type 0, BuildingBlock: NAHDIM_clean_sbu_0, # of connection points: 4
#     Node 15, Type 0, BuildingBlock: NAHDIM_clean_sbu_0, # of connection points: 4
#     Node 16, Type 0, BuildingBlock: NAHDIM_clean_sbu_0, # of connection points: 4
#     Node 17, Type 0, BuildingBlock: NAHDIM_clean_sbu_0, # of connection points: 4
#     Node 18, Type 0, BuildingBlock: NAHDIM_clean_sbu_0, # of connection points: 4
#     Node 19, Type 0, BuildingBlock: NAHDIM_clean_sbu_0, # of connection points: 4
#     Node 20, Type 0, BuildingBlock: NAHDIM_clean_sbu_0, # of connection points: 4
#     Node 21, Type 0, BuildingBlock: NAHDIM_clean_sbu_0, # of connection points: 4
#     Node 22, Type 0, BuildingBlock: NAHDIM_clean_sbu_0, # of connection points: 4
#     Node 23, Type 0, BuildingBlock: NAHDIM_clean_sbu_0, # of connection points: 4
#     Edge 24, Type (0, 0), BuildingBlock: MIFKUJ_clean_linker_0, # of connection points: 2
#     Edge 25, Type (0, 0), BuildingBlock: MIFKUJ_clean_linker_0, # of connection points: 2
#     Edge 26, Type (0, 0), BuildingBlock: MIFKUJ_clean_linker_0, # of connection points: 2
#     Edge 27, Type (0, 0), BuildingBlock: MIFKUJ_clean_linker_0, # of connection points: 2
#     Edge 28, Type (0, 0), BuildingBlock: MIFKUJ_clean_linker_0, # of connection points: 2
#     Edge 29, Type (0, 0), BuildingBlock: MIFKUJ_clean_linker_0, # of connection points: 2
#     Edge 30, Type (0, 0), BuildingBlock: MIFKUJ_clean_linker_0, # of connection points: 2
#     Edge 31, Type (0, 0), BuildingBlock: MIFKUJ_clean_linker_0, # of connection points: 2
#     Edge 32, Type (0, 0), BuildingBlock: MIFKUJ_clean_linker_0, # of connection points: 2
#     Edge 33, Type (0, 0), BuildingBlock: MIFKUJ_clean_linker_0, # of connection points: 2
#     Edge 34, Type (0, 0), BuildingBlock: MIFKUJ_clean_linker_0, # of connection points: 2
#     Edge 35, Type (0, 0), BuildingBlock: MIFKUJ_clean_linker_0, # of connection points: 2
#     Edge 36, Type (0, 0), BuildingBlock: MIFKUJ_clean_linker_0, # of connection points: 2
#     Edge 37, Type (0, 0), BuildingBlock: MIFKUJ_clean_linker_0, # of connection points: 2
#     Edge 38, Type (0, 0), BuildingBlock: MIFKUJ_clean_linker_0, # of connection points: 2
#     Edge 39, Type (0, 0), BuildingBlock: MIFKUJ_clean_linker_0, # of connection points: 2
#     Edge 40, Type (0, 0), BuildingBlock: MIFKUJ_clean_linker_0, # of connection points: 2
#     Edge 41, Type (0, 0), BuildingBlock: MIFKUJ_clean_linker_0, # of connection points: 2
#     Edge 42, Type (0, 0), BuildingBlock: MIFKUJ_clean_linker_0, # of connection points: 2
#     Edge 43, Type (0, 0), BuildingBlock: MIFKUJ_clean_linker_0, # of connection points: 2
#     Edge 44, Type (0, 0), BuildingBlock: MIFKUJ_clean_linker_0, # of connection points: 2
#     Edge 45, Type (0, 0), BuildingBlock: MIFKUJ_clean_linker_0, # of connection points: 2
#     Edge 46, Type (0, 0), BuildingBlock: MIFKUJ_clean_linker_0, # of connection points: 2
#     Edge 47, Type (0, 0), BuildingBlock: MIFKUJ_clean_linker_0, # of connection points: 2
#     Edge 48, Type (0, 0), BuildingBlock: MIFKUJ_clean_linker_0, # of connection points: 2
#     Edge 49, Type (0, 0), BuildingBlock: MIFKUJ_clean_linker_0, # of connection points: 2
#     Edge 50, Type (0, 0), BuildingBlock: MIFKUJ_clean_linker_0, # of connection points: 2
#     Edge 51, Type (0, 0), BuildingBlock: MIFKUJ_clean_linker_0, # of connection points: 2
#     Edge 52, Type (0, 0), BuildingBlock: MIFKUJ_clean_linker_0, # of connection points: 2
#     Edge 53, Type (0, 0), BuildingBlock: MIFKUJ_clean_linker_0, # of connection points: 2
#     Edge 54, Type (0, 0), BuildingBlock: MIFKUJ_clean_linker_0, # of connection points: 2
#     Edge 55, Type (0, 0), BuildingBlock: MIFKUJ_clean_linker_0, # of connection points: 2
#     Edge 56, Type (0, 0), BuildingBlock: MIFKUJ_clean_linker_0, # of connection points: 2
#     Edge 57, Type (0, 0), BuildingBlock: MIFKUJ_clean_linker_0, # of connection points: 2
#     Edge 58, Type (0, 0), BuildingBlock: MIFKUJ_clean_linker_0, # of connection points: 2
#     Edge 59, Type (0, 0), BuildingBlock: MIFKUJ_clean_linker_0, # of connection points: 2
#     Edge 60, Type (0, 0), BuildingBlock: MIFKUJ_clean_linker_0, # of connection points: 2
#     Edge 61, Type (0, 0), BuildingBlock: MIFKUJ_clean_linker_0, # of connection points: 2
#     Edge 62, Type (0, 0), BuildingBlock: MIFKUJ_clean_linker_0, # of connection points: 2
#     Edge 63, Type (0, 0), BuildingBlock: MIFKUJ_clean_linker_0, # of connection points: 2
#     Edge 64, Type (0, 0), BuildingBlock: MIFKUJ_clean_linker_0, # of connection points: 2
#     Edge 65, Type (0, 0), BuildingBlock: MIFKUJ_clean_linker_0, # of connection points: 2
#     Edge 66, Type (0, 0), BuildingBlock: MIFKUJ_clean_linker_0, # of connection points: 2
#     Edge 67, Type (0, 0), BuildingBlock: MIFKUJ_clean_linker_0, # of connection points: 2
#     Edge 68, Type (0, 0), BuildingBlock: MIFKUJ_clean_linker_0, # of connection points: 2
#     Edge 69, Type (0, 0), BuildingBlock: MIFKUJ_clean_linker_0, # of connection points: 2
#     Edge 70, Type (0, 0), BuildingBlock: MIFKUJ_clean_linker_0, # of connection points: 2
#     Edge 71, Type (0, 0), BuildingBlock: MIFKUJ_clean_linker_0, # of connection points: 2
# Relax obj value: 0.071
# Max RMSD: 0.082
# Mean RMSD: 0.082
data_MOF--net-afi--node1-NAHDIM_clean_sbu_0--edge1-MIFKUJ_clean_linker_0
_symmetry_space_group_name_H-M    P1
_symmetry_Int_Tables_number       1
_symmetry_cell_setting            triclinic
loop_
_symmetry_equiv_pos_as_xyz
'x, y, z'
_cell_length_a     87.902629
_cell_length_b     87.920486
_cell_length_c     50.912046
_cell_angle_alpha  90.012444
_cell_angle_beta   89.99182
_cell_angle_gamma 120.00303
loop_
_atom_site_label
_atom_site_type_symbol
_atom_site_fract_x
_atom_site_fract_y
_atom_site_fract_z
_atom_type_partial_charge
C0 C 0.45428 0.14656 0.17966 0.0
O1 O 0.46112 0.14769 0.1563 0.0
O2 O 0.4839 0.12489 0.19786 0.0
Zn3 Zn 0.45952 0.11693 0.18451 0.0
O4 O 0.4588 0.11461 0.14515 0.0
C5 C 0.44542 0.08066 0.19651 0.0
O6 O 0.45781 0.08263 0.1801 0.0
O7 O 0.45231 0.13436 0.19512 0.0
C8 C 0.44557 0.10282 0.13283 0.0
O9 O 0.43161 0.09154 0.14604 0.0
C10 C 0.49455 0.12202 0.18484 0.0
O11 O 0.4898 0.11448 0.16169 0.0
O12 O 0.44335 0.09369 0.20131 0.0
C13 C 0.30132 0.45408 0.19186 0.0
O14 O 0.30775 0.46377 0.17068 0.0
O15 O 0.35271 0.47755 0.20784 0.0
Zn16 Zn 0.33447 0.45519 0.19079 0.0
O17 O 0.33551 0.4576 0.15147 0.0
C18 C 0.35626 0.44118 0.20321 0.0
O19 O 0.36812 0.45748 0.1977 0.0
O20 O 0.31048 0.44881 0.20391 0.0
C21 C 0.34964 0.46795 0.13945 0.0
O22 O 0.36406 0.47751 0.15302 0.0
C23 C 0.35452 0.49279 0.20634 0.0
O24 O 0.34318 0.49516 0.19275 0.0
O25 O 0.34009 0.43645 0.20104 0.0
C26 C 0.85332 0.30501 0.20963 0.0
O27 O 0.86028 0.3052 0.18672 0.0
O28 O 0.86714 0.35994 0.21808 0.0
Zn29 Zn 0.87483 0.34297 0.20614 0.0
O30 O 0.87492 0.34134 0.16657 0.0
C31 C 0.90987 0.36726 0.22323 0.0
O32 O 0.90452 0.37856 0.21889 0.0
O33 O 0.85788 0.31944 0.22132 0.0
C34 C 0.88751 0.35309 0.15312 0.0
O35 O 0.90027 0.36667 0.16519 0.0
C36 C 0.86378 0.36944 0.20308 0.0
O37 O 0.86506 0.3684 0.17753 0.0
O38 O 0.89925 0.35097 0.2197 0.0
C39 C 0.5348 0.84231 0.19701 0.0
O40 O 0.52262 0.84018 0.18004 0.0
O41 O 0.5187 0.87354 0.20611 0.0
Zn42 Zn 0.5415 0.87681 0.19182 0.0
O43 O 0.54078 0.87526 0.15239 0.0
C44 C 0.56191 0.91383 0.19177 0.0
O45 O 0.55026 0.91148 0.17369 0.0
O46 O 0.54519 0.85762 0.20573 0.0
C47 C 0.55487 0.88201 0.13904 0.0
O48 O 0.57006 0.89022 0.15122 0.0
C49 C 0.50576 0.87064 0.1916 0.0
O50 O 0.50707 0.86964 0.16604 0.0
O51 O 0.56099 0.90049 0.20299 0.0
C52 C 0.68637 0.54731 0.22967 0.0
O53 O 0.67178 0.53906 0.24336 0.0
O54 O 0.64513 0.51777 0.20028 0.0
Zn55 Zn 0.66231 0.54225 0.18807 0.0
O56 O 0.66547 0.54263 0.14899 0.0
C57 C 0.63971 0.55667 0.18502 0.0
O58 O 0.63294 0.54507 0.16599 0.0
O59 O 0.68555 0.5504 0.2055 0.0
C60 C 0.67276 0.55716 0.13672 0.0
O61 O 0.67838 0.57183 0.14999 0.0
C62 C 0.63338 0.50652 0.18518 0.0
O63 O 0.63264 0.51081 0.16069 0.0
O64 O 0.65282 0.55808 0.19766 0.0
C65 C 0.14829 0.69654 0.1756 0.0
O66 O 0.14858 0.68796 0.15466 0.0
O67 O 0.12102 0.64732 0.20174 0.0
Zn68 Zn 0.1159 0.66459 0.18363 0.0
O69 O 0.11393 0.66059 0.1445 0.0
C70 C 0.08041 0.64491 0.19818 0.0
O71 O 0.08382 0.63246 0.19172 0.0
O72 O 0.13531 0.68918 0.19126 0.0
C73 C 0.10823 0.6457 0.1336 0.0
O74 O 0.1034 0.63171 0.14822 0.0
C75 C 0.13285 0.644 0.1943 0.0
O76 O 0.14265 0.65235 0.17391 0.0
O77 O 0.09267 0.66081 0.19683 0.0
C78 C 0.84201 0.5536 0.32427 0.0
O79 O 0.84045 0.5434 0.34417 0.0
O80 O 0.86508 0.52852 0.30346 0.0
Zn81 Zn 0.87382 0.55292 0.31761 0.0
O82 O 0.87746 0.55298 0.35651 0.0
C83 C 0.90501 0.56384 0.28712 0.0
O84 O 0.89807 0.54677 0.28469 0.0
O85 O 0.85567 0.55974 0.30997 0.0
C86 C 0.88952 0.5506 0.36585 0.0
O87 O 0.89999 0.54853 0.34969 0.0
C88 C 0.85822 0.51474 0.31754 0.0
O89 O 0.85586 0.51598 0.34276 0.0
O90 O 0.89689 0.56983 0.30034 0.0
C91 C 0.30148 0.8523 0.26162 0.0
O92 O 0.31625 0.85964 0.24825 0.0
O93 O 0.34275 0.86571 0.29174 0.0
Zn94 Zn 0.32468 0.87185 0.30364 0.0
O95 O 0.32134 0.86911 0.34267 0.0
C96 C 0.34554 0.90897 0.30757 0.0
O97 O 0.35098 0.90455 0.32873 0.0
O98 O 0.30181 0.85592 0.28584 0.0
C99 C 0.31303 0.87545 0.35448 0.0
O100 O 0.3065 0.8835 0.34075 0.0
C101 C 0.35489 0.86685 0.30658 0.0
O102 O 0.35538 0.87145 0.33125 0.0
O103 O 0.33365 0.89697 0.29352 0.0
C104 C 0.43979 0.28719 0.29188 0.0
O105 O 0.43648 0.28659 0.31712 0.0
O106 O 0.47542 0.34331 0.28264 0.0
Zn107 Zn 0.4522 0.32463 0.29696 0.0
O108 O 0.45312 0.32326 0.33635 0.0
C109 C 0.43833 0.34709 0.29403 0.0
O110 O 0.45319 0.35699 0.30646 0.0
O111 O 0.44618 0.30175 0.2798 0.0
C112 C 0.43906 0.31781 0.34955 0.0
O113 O 0.42421 0.31276 0.33706 0.0
C114 C 0.48961 0.3511 0.29572 0.0
O115 O 0.48973 0.34672 0.32035 0.0
O116 O 0.43442 0.33162 0.28745 0.0
C117 C 0.14496 0.44081 0.29792 0.0
O118 O 0.13725 0.43242 0.31963 0.0
O119 O 0.13114 0.48263 0.29543 0.0
Zn120 Zn 0.12444 0.45801 0.30579 0.0
O121 O 0.12584 0.45691 0.3451 0.0
C122 C 0.09373 0.4453 0.27351 0.0
O123 O 0.10416 0.45944 0.2599 0.0
O124 O 0.14124 0.45194 0.28853 0.0
C125 C 0.11553 0.44306 0.35773 0.0
O126 O 0.1039 0.42914 0.34477 0.0
C127 C 0.12338 0.49008 0.30567 0.0
O128 O 0.11129 0.48166 0.32363 0.0
O129 O 0.09968 0.44165 0.29382 0.0
C130 C 0.70126 0.15227 0.30988 0.0
O131 O 0.69331 0.15405 0.33052 0.0
O132 O 0.65151 0.12095 0.29557 0.0
Zn133 Zn 0.67105 0.11798 0.31035 0.0
O134 O 0.67015 0.11783 0.34972 0.0
C135 C 0.66384 0.09121 0.27331 0.0
O136 O 0.66337 0.10292 0.25781 0.0
O137 O 0.69418 0.13769 0.29777 0.0
C138 C 0.68148 0.11617 0.36296 0.0
O139 O 0.69357 0.11434 0.35051 0.0
C140 C 0.64537 0.12973 0.3065 0.0
O141 O 0.65207 0.1377 0.3289 0.0
O142 O 0.66753 0.09491 0.29743 0.0
C143 C 0.53981 0.68917 0.28128 0.0
O144 O 0.52874 0.6741 0.27029 0.0
O145 O 0.52027 0.64767 0.30904 0.0
Zn146 Zn 0.54539 0.66642 0.31484 0.0
O147 O 0.5505 0.6686 0.35353 0.0
C148 C 0.55646 0.65194 0.27352 0.0
O149 O 0.54194 0.64965 0.26256 0.0
O150 O 0.54884 0.68929 0.30085 0.0
C151 C 0.55708 0.66026 0.36465 0.0
O152 O 0.56096 0.6502 0.35043 0.0
C153 C 0.51552 0.63158 0.31223 0.0
O154 O 0.52708 0.62735 0.3205 0.0
O155 O 0.56099 0.65942 0.2958 0.0
C156 C 0.53126 0.84558 0.78934 0.0
O157 O 0.51581 0.84338 0.79576 0.0
O158 O 0.51915 0.87801 0.7918 0.0
Zn159 Zn 0.54198 0.88066 0.80496 0.0
O160 O 0.54144 0.87995 0.84439 0.0
C161 C 0.57203 0.91617 0.80703 0.0
O162 O 0.57022 0.91387 0.83257 0.0
O163 O 0.54474 0.86074 0.79146 0.0
C164 C 0.55129 0.87586 0.85716 0.0
O165 O 0.56193 0.87208 0.84427 0.0
C166 C 0.51773 0.89141 0.78686 0.0
O167 O 0.53134 0.90715 0.7906 0.0
O168 O 0.56187 0.9037 0.79186 0.0
C169 C 0.69615 0.54177 0.79925 0.0
O170 O 0.69159 0.53359 0.82195 0.0
O171 O 0.64455 0.51357 0.79134 0.0
Zn172 Zn 0.66206 0.53775 0.80417 0.0
O173 O 0.66442 0.53811 0.84348 0.0
C174 C 0.64076 0.5534 0.80753 0.0
O175 O 0.63401 0.54189 0.82667 0.0
O176 O 0.68549 0.54522 0.78747 0.0
C177 C 0.67275 0.55288 0.85498 0.0
O178 O 0.67966 0.56731 0.84082 0.0
C179 C 0.63239 0.50216 0.80576 0.0
O180 O 0.63129 0.50599 0.83038 0.0
O181 O 0.65342 0.55426 0.79426 0.0
C182 C 0.14152 0.69174 0.80935 0.0
O183 O 0.14086 0.68245 0.82997 0.0
O184 O 0.10987 0.64339 0.78603 0.0
Zn185 Zn 0.107 0.66263 0.8024 0.0
O186 O 0.10467 0.65959 0.84155 0.0
C187 C 0.08436 0.66606 0.76459 0.0
O188 O 0.09834 0.67237 0.74949 0.0
O189 O 0.12826 0.68591 0.79423 0.0
C190 C 0.09517 0.64489 0.85274 0.0
O191 O 0.08597 0.63079 0.83833 0.0
C192 C 0.11878 0.63739 0.79696 0.0
O193 O 0.12642 0.64392 0.81962 0.0
O194 O 0.08523 0.66141 0.78792 0.0
C195 C 0.44411 0.14618 0.80611 0.0
O196 O 0.4525 0.14654 0.82767 0.0
O197 O 0.46997 0.12266 0.78524 0.0
Zn198 Zn 0.44579 0.11508 0.79912 0.0
O199 O 0.44517 0.11244 0.83844 0.0
C200 C 0.43447 0.0812 0.77838 0.0
O201 O 0.45111 0.0865 0.78273 0.0
O202 O 0.43952 0.13352 0.79009 0.0
C203 C 0.44947 0.10255 0.85064 0.0
O204 O 0.45478 0.09328 0.83732 0.0
C205 C 0.48404 0.13128 0.79838 0.0
O206 O 0.48325 0.1363 0.8224 0.0
O207 O 0.4287 0.09159 0.78326 0.0
C208 C 0.2992 0.45319 0.80902 0.0
O209 O 0.30669 0.46263 0.83008 0.0
O210 O 0.34947 0.47594 0.78949 0.0
Zn211 Zn 0.33173 0.45326 0.80641 0.0
O212 O 0.33388 0.45517 0.84578 0.0
C213 C 0.3532 0.4396 0.79051 0.0
O214 O 0.36506 0.45582 0.79645 0.0
O215 O 0.30745 0.44746 0.79552 0.0
C216 C 0.34836 0.46503 0.85736 0.0
O217 O 0.36263 0.47427 0.84332 0.0
C218 C 0.35263 0.49135 0.79497 0.0
O219 O 0.34321 0.49356 0.81298 0.0
O220 O 0.33705 0.43468 0.79376 0.0
C221 C 0.84568 0.30227 0.82064 0.0
O222 O 0.8445 0.31103 0.84071 0.0
O223 O 0.87495 0.35085 0.80957 0.0
Zn224 Zn 0.87995 0.33172 0.82029 0.0
O225 O 0.88146 0.33137 0.85962 0.0
C226 C 0.90465 0.33902 0.77931 0.0
O227 O 0.89158 0.3379 0.76529 0.0
O228 O 0.8601 0.30861 0.80818 0.0
C229 C 0.89487 0.34255 0.87228 0.0
O230 O 0.90854 0.35458 0.85935 0.0
C231 C 0.88734 0.36667 0.80773 0.0
O232 O 0.90349 0.37042 0.81296 0.0
O233 O 0.90262 0.33634 0.8039 0.0
C234 C 0.14244 0.44025 0.70257 0.0
O235 O 0.13627 0.43191 0.68026 0.0
O236 O 0.12279 0.47772 0.70295 0.0
Zn237 Zn 0.11914 0.45412 0.69206 0.0
O238 O 0.12243 0.4538 0.65287 0.0
C239 C 0.08185 0.43501 0.68851 0.0
O240 O 0.08541 0.44569 0.66848 0.0
O241 O 0.1368 0.45006 0.71133 0.0
C242 C 0.11446 0.43968 0.63963 0.0
O243 O 0.10421 0.42483 0.65182 0.0
C244 C 0.11987 0.48737 0.68759 0.0
O245 O 0.11468 0.48207 0.66343 0.0
O246 O 0.09444 0.43592 0.702 0.0
C247 C 0.68908 0.14908 0.73276 0.0
O248 O 0.67489 0.14238 0.74745 0.0
O249 O 0.64604 0.12999 0.70746 0.0
Zn250 Zn 0.66481 0.12493 0.69536 0.0
O251 O 0.66603 0.12504 0.65598 0.0
C252 C 0.65045 0.08746 0.69621 0.0
O253 O 0.64475 0.08848 0.67279 0.0
O254 O 0.688 0.14348 0.70946 0.0
C255 C 0.67769 0.1228 0.64485 0.0
O256 O 0.68876 0.12058 0.65943 0.0
C257 C 0.63218 0.12556 0.69424 0.0
O258 O 0.63003 0.11755 0.67161 0.0
O259 O 0.65942 0.10142 0.70944 0.0
C260 C 0.53633 0.69248 0.70468 0.0
O261 O 0.52226 0.68015 0.69287 0.0
O262 O 0.52152 0.648 0.70485 0.0
Zn263 Zn 0.54613 0.66699 0.69628 0.0
O264 O 0.5497 0.66803 0.65718 0.0
C265 C 0.55925 0.65358 0.73626 0.0
O266 O 0.54491 0.65089 0.74837 0.0
O267 O 0.54921 0.69003 0.70869 0.0
C268 C 0.55677 0.66018 0.64596 0.0
O269 O 0.56195 0.65116 0.66023 0.0
C270 C 0.5159 0.63212 0.69837 0.0
O271 O 0.52632 0.62807 0.68543 0.0
O272 O 0.56298 0.66113 0.71401 0.0
C273 C 0.85177 0.55296 0.694 0.0
O274 O 0.85793 0.55804 0.67015 0.0
O275 O 0.87876 0.52344 0.71392 0.0
Zn276 Zn 0.87887 0.54382 0.69608 0.0
O277 O 0.87721 0.53972 0.65725 0.0
C278 C 0.90898 0.57833 0.68783 0.0
O279 O 0.90128 0.57737 0.66529 0.0
O280 O 0.85871 0.54644 0.70872 0.0
C281 C 0.88845 0.53698 0.64581 0.0
O282 O 0.90066 0.53635 0.65989 0.0
C283 C 0.86535 0.50815 0.71313 0.0
O284 O 0.85116 0.5058 0.70091 0.0
O285 O 0.90163 0.5657 0.70408 0.0
C286 C 0.30101 0.84315 0.72643 0.0
O287 O 0.31611 0.84895 0.73853 0.0
O288 O 0.34339 0.86624 0.69618 0.0
Zn289 Zn 0.32238 0.86865 0.68726 0.0
O290 O 0.31927 0.86704 0.64821 0.0
C291 C 0.33538 0.89852 0.72094 0.0
O292 O 0.3395 0.88873 0.73536 0.0
O293 O 0.30061 0.84971 0.70438 0.0
C294 C 0.31156 0.87406 0.6365 0.0
O295 O 0.30532 0.88233 0.65035 0.0
C296 C 0.3584 0.87887 0.68977 0.0
O297 O 0.35936 0.89232 0.67702 0.0
O298 O 0.32722 0.89242 0.69946 0.0
C299 C 0.44302 0.30057 0.72375 0.0
O300 O 0.44735 0.3141 0.7392 0.0
O301 O 0.47331 0.34402 0.69987 0.0
Zn302 Zn 0.45003 0.32626 0.68435 0.0
O303 O 0.45152 0.32559 0.64508 0.0
C304 C 0.43656 0.34913 0.68949 0.0
O305 O 0.45185 0.35961 0.67855 0.0
O306 O 0.44297 0.30257 0.69905 0.0
C307 C 0.43745 0.31854 0.63167 0.0
O308 O 0.42228 0.31179 0.64391 0.0
C309 C 0.48743 0.35205 0.68665 0.0
O310 O 0.48722 0.34852 0.66154 0.0
O311 O 0.43232 0.3333 0.6941 0.0
H312 H 0.4204 0.07287 0.2342 0.0
H313 H 0.40276 0.04486 0.25684 0.0
H314 H 0.42735 0.02191 0.2107 0.0
H315 H 0.44527 0.04991 0.18839 0.0
H316 H 0.37897 0.01321 0.24051 0.0
H317 H 0.43249 0.99285 0.24722 0.0
H318 H 0.46471 0.00704 0.25127 0.0
H319 H 0.46653 0.05216 0.28698 0.0
H320 H 0.43431 0.03815 0.28354 0.0
H321 H 0.3416 0.922 0.26094 0.0
H322 H 0.35761 0.95241 0.24588 0.0
H323 H 0.38472 0.96836 0.32021 0.0
H324 H 0.36908 0.93786 0.33517 0.0
H325 H 0.40722 0.98258 0.2822 0.0
H326 H 0.35256 0.97831 0.30347 0.0
H327 H 0.3204 0.96558 0.30352 0.0
H328 H 0.32094 0.97235 0.21995 0.0
H329 H 0.35308 0.98491 0.21933 0.0
C330 C 0.42205 0.06185 0.22887 0.0
C331 C 0.4343 0.06362 0.20961 0.0
C332 C 0.41193 0.04586 0.24179 0.0
C333 C 0.41392 0.03138 0.2357 0.0
C334 C 0.42586 0.03301 0.21606 0.0
C335 C 0.43603 0.04901 0.20324 0.0
C336 C 0.4035 0.01452 0.24979 0.0
C337 C 0.38512 0.00652 0.2497 0.0
C338 C 0.41159 0.00604 0.26239 0.0
C339 C 0.43098 0.01448 0.26491 0.0
C340 C 0.43975 0.00576 0.25606 0.0
C341 C 0.45802 0.01378 0.25823 0.0
C342 C 0.46766 0.0305 0.26933 0.0
C343 C 0.45905 0.03923 0.27833 0.0
C344 C 0.44079 0.03126 0.27625 0.0
C345 C 0.35083 0.932 0.27419 0.0
C346 C 0.35411 0.92753 0.29923 0.0
C347 C 0.35993 0.9494 0.26559 0.0
C348 C 0.37226 0.9627 0.282 0.0
C349 C 0.37529 0.95831 0.3072 0.0
C350 C 0.3663 0.94088 0.31574 0.0
C351 C 0.38263 0.98101 0.27232 0.0
C352 C 0.40103 0.9893 0.2732 0.0
C353 C 0.37457 0.98994 0.26107 0.0
C354 C 0.35522 0.98243 0.26134 0.0
C355 C 0.34581 0.97697 0.28507 0.0
C356 C 0.32758 0.9698 0.28521 0.0
C357 C 0.31863 0.96813 0.26175 0.0
C358 C 0.32789 0.97365 0.2381 0.0
C359 C 0.34612 0.98081 0.23785 0.0
H360 H 0.30451 0.96258 0.26189 0.0
H361 H 0.48179 0.03667 0.27104 0.0
H362 H 0.44563 0.38093 0.29802 0.0
H363 H 0.42713 0.39297 0.28513 0.0
H364 H 0.38612 0.34132 0.26201 0.0
H365 H 0.40489 0.3292 0.2742 0.0
H366 H 0.38999 0.36417 0.226 0.0
H367 H 0.3822 0.36141 0.31818 0.0
H368 H 0.39067 0.3652 0.36491 0.0
H369 H 0.41978 0.42117 0.35478 0.0
H370 H 0.41171 0.41772 0.30789 0.0
H371 H 0.33663 0.40532 0.20761 0.0
H372 H 0.34627 0.38549 0.22521 0.0
H373 H 0.39781 0.42982 0.23969 0.0
H374 H 0.38846 0.4496 0.22191 0.0
H375 H 0.38243 0.4057 0.283 0.0
H376 H 0.39312 0.40664 0.18871 0.0
H377 H 0.38379 0.40207 0.14232 0.0
H378 H 0.34705 0.3478 0.15817 0.0
H379 H 0.35601 0.35212 0.20478 0.0
C380 C 0.43264 0.37208 0.29037 0.0
C381 C 0.42671 0.35411 0.28716 0.0
C382 C 0.42201 0.37897 0.28316 0.0
C383 C 0.40509 0.368 0.27306 0.0
C384 C 0.39909 0.35001 0.2699 0.0
C385 C 0.40982 0.34311 0.27688 0.0
C386 C 0.39419 0.37564 0.26466 0.0
C387 C 0.38797 0.37292 0.2387 0.0
C388 C 0.39157 0.3871 0.28117 0.0
C389 C 0.39641 0.38929 0.30944 0.0
C390 C 0.3905 0.37453 0.32586 0.0
C391 C 0.39522 0.37662 0.3524 0.0
C392 C 0.40577 0.39341 0.3628 0.0
C393 C 0.4116 0.40816 0.3467 0.0
C394 C 0.40693 0.40615 0.32014 0.0
C395 C 0.35002 0.4108 0.21452 0.0
C396 C 0.36182 0.42899 0.21332 0.0
C397 C 0.35548 0.39948 0.22453 0.0
C398 C 0.37271 0.40627 0.23375 0.0
C399 C 0.38443 0.4244 0.23274 0.0
C400 C 0.37909 0.43564 0.22243 0.0
C401 C 0.37886 0.39464 0.24427 0.0
C402 C 0.38413 0.39662 0.27062 0.0
C403 C 0.38038 0.38234 0.22826 0.0
C404 C 0.37506 0.37976 0.20027 0.0
C405 C 0.38293 0.39378 0.18235 0.0
C406 C 0.37774 0.39122 0.15601 0.0
C407 C 0.36479 0.37467 0.14732 0.0
C408 C 0.35705 0.36062 0.16494 0.0
C409 C 0.36218 0.36311 0.19131 0.0
H410 H 0.36079 0.37271 0.12692 0.0
H411 H 0.40942 0.395 0.38334 0.0
H412 H 0.92419 0.3486 0.24434 0.0
H413 H 0.95539 0.35916 0.25295 0.0
H414 H 0.96867 0.4104 0.22392 0.0
H415 H 0.93761 0.40015 0.21583 0.0
H416 H 0.98868 0.39408 0.20222 0.0
H417 H 0.96967 0.40795 0.28421 0.0
H418 H 0.95077 0.40027 0.32343 0.0
H419 H 0.96657 0.36333 0.34701 0.0
H420 H 0.98538 0.37061 0.30768 0.0
H421 H 0.07534 0.45363 0.23901 0.0
H422 H 0.04393 0.43718 0.23 0.0
H423 H 0.03818 0.39621 0.28277 0.0
H424 H 0.06962 0.41299 0.29266 0.0
H425 H 0.01352 0.40315 0.29213 0.0
H426 H 0.03471 0.39053 0.21436 0.0
H427 H 0.05312 0.39633 0.17497 0.0
H428 H 0.03289 0.42775 0.14257 0.0
H429 H 0.01452 0.42235 0.18194 0.0
C430 C 0.93377 0.36214 0.23994 0.0
C431 C 0.92848 0.37358 0.22948 0.0
C432 C 0.95153 0.36812 0.24485 0.0
C433 C 0.96423 0.38551 0.23896 0.0
C434 C 0.959 0.39692 0.22849 0.0
C435 C 0.94126 0.39106 0.22405 0.0
C436 C 0.98305 0.39193 0.2436 0.0
C437 C 0.99421 0.39619 0.22183 0.0
C438 C 0.98999 0.39398 0.26919 0.0
C439 C 0.97875 0.38966 0.29285 0.0
C440 C 0.96897 0.39806 0.29762 0.0
C441 C 0.95831 0.39381 0.3199 0.0
C442 C 0.95742 0.38128 0.33766 0.0
C443 C 0.96724 0.373 0.33321 0.0
C444 C 0.97791 0.37719 0.31094 0.0
C445 C 0.06744 0.44103 0.2485 0.0
C446 C 0.07496 0.4346 0.26653 0.0
C447 C 0.04947 0.43157 0.24321 0.0
C448 C 0.03869 0.4153 0.25539 0.0
C449 C 0.04622 0.40871 0.2731 0.0
C450 C 0.06419 0.41829 0.27868 0.0
C451 C 0.01944 0.40576 0.25068 0.0
C452 C 0.00811 0.40085 0.27243 0.0
C453 C 0.0123 0.40282 0.225 0.0
C454 C 0.02332 0.40613 0.20123 0.0
C455 C 0.03428 0.39878 0.19893 0.0
C456 C 0.04469 0.40199 0.17658 0.0
C457 C 0.0442 0.41243 0.1563 0.0
C458 C 0.03326 0.41967 0.1583 0.0
C459 C 0.02282 0.41652 0.18062 0.0
H460 H 0.05227 0.4149 0.13902 0.0
H461 H 0.94917 0.37801 0.3549 0.0
H462 H 0.58582 0.92355 0.23176 0.0
H463 H 0.60753 0.95341 0.24518 0.0
H464 H 0.59077 0.97441 0.18213 0.0
H465 H 0.56912 0.94467 0.16852 0.0
H466 H 0.62705 0.99168 0.18767 0.0
H467 H 0.5754 0.97247 0.24238 0.0
H468 H 0.55269 0.95254 0.2736 0.0
H469 H 0.59263 0.96094 0.32971 0.0
H470 H 0.6156 0.98075 0.29865 0.0
H471 H 0.64913 0.07725 0.22583 0.0
H472 H 0.63649 0.04683 0.21175 0.0
H473 H 0.65318 0.03425 0.28425 0.0
H474 H 0.66542 0.06466 0.29886 0.0
H475 H 0.62036 0.01168 0.27583 0.0
H476 H 0.672 0.03416 0.22369 0.0
H477 H 0.69483 0.05417 0.19272 0.0
H478 H 0.65599 0.03983 0.13219 0.0
H479 H 0.63287 0.01991 0.1629 0.0
C480 C 0.58684 0.93452 0.22064 0.0
C481 C 0.57565 0.93176 0.19921 0.0
C482 C 0.59924 0.95156 0.22835 0.0
C483 C 0.60064 0.96608 0.21474 0.0
C484 C 0.58989 0.96335 0.19285 0.0
C485 C 0.57746 0.94635 0.18521 0.0
C486 C 0.61263 0.98418 0.22402 0.0
C487 C 0.6256 0.99614 0.20689 0.0
C488 C 0.61101 0.98976 0.24939 0.0
C489 C 0.59721 0.97791 0.26808 0.0
C490 C 0.57934 0.96995 0.26129 0.0
C491 C 0.56643 0.9587 0.27897 0.0
C492 C 0.57122 0.95543 0.30359 0.0
C493 C 0.58894 0.96345 0.31061 0.0
C494 C 0.60191 0.9747 0.29298 0.0
C495 C 0.65037 0.06809 0.23864 0.0
C496 C 0.65819 0.07334 0.26353 0.0
C497 C 0.64322 0.05069 0.23047 0.0
C498 C 0.64403 0.03826 0.24682 0.0
C499 C 0.65241 0.04362 0.27131 0.0
C500 C 0.65942 0.061 0.27961 0.0
C501 C 0.63472 0.01943 0.23931 0.0
C502 C 0.62216 0.00727 0.25677 0.0
C503 C 0.6368 0.01368 0.21428 0.0
C504 C 0.65067 0.02561 0.19568 0.0
C505 C 0.6683 0.03536 0.20383 0.0
C506 C 0.6813 0.04667 0.18631 0.0
C507 C 0.67686 0.04829 0.16052 0.0
C508 C 0.65941 0.03856 0.15218 0.0
C509 C 0.64636 0.02724 0.16963 0.0
H510 H 0.68694 0.05706 0.14698 0.0
H511 H 0.5612 0.94672 0.31725 0.0
H512 H 0.54835 0.63217 0.22883 0.0
H513 H 0.56344 0.61748 0.21096 0.0
H514 H 0.60197 0.63951 0.27291 0.0
H515 H 0.58706 0.65438 0.29083 0.0
H516 H 0.61692 0.64032 0.22522 0.0
H517 H 0.56861 0.59875 0.27803 0.0
H518 H 0.53763 0.58183 0.29191 0.0
H519 H 0.52315 0.55754 0.2159 0.0
H520 H 0.55402 0.57463 0.20136 0.0
H521 H 0.65026 0.58163 0.22353 0.0
H522 H 0.63683 0.59917 0.23561 0.0
H523 H 0.59827 0.57425 0.17427 0.0
H524 H 0.61148 0.55649 0.16226 0.0
H525 H 0.5832 0.57526 0.21962 0.0
H526 H 0.63174 0.61616 0.16717 0.0
H527 H 0.66275 0.63315 0.15341 0.0
H528 H 0.67684 0.65843 0.22876 0.0
H529 H 0.64594 0.64141 0.24311 0.0
C530 C 0.56014 0.63406 0.2385 0.0
C531 C 0.56644 0.64435 0.26136 0.0
C532 C 0.56871 0.62561 0.22831 0.0
C533 C 0.58368 0.62724 0.24083 0.0
C534 C 0.59041 0.63807 0.263 0.0
C535 C 0.58184 0.64651 0.27325 0.0
C536 C 0.59186 0.61704 0.23155 0.0
C537 C 0.60962 0.62608 0.22421 0.0
C538 C 0.58218 0.59849 0.22976 0.0
C539 C 0.56361 0.58813 0.23851 0.0
C540 C 0.5588 0.58993 0.26419 0.0
C541 C 0.54126 0.5803 0.27218 0.0
C542 C 0.52842 0.56865 0.25478 0.0
C543 C 0.53311 0.56659 0.22935 0.0
C544 C 0.55062 0.57627 0.22121 0.0
C545 C 0.63897 0.57993 0.21253 0.0
C546 C 0.63194 0.56767 0.19193 0.0
C547 C 0.63136 0.59002 0.21938 0.0
C548 C 0.61666 0.58813 0.20565 0.0
C549 C 0.60963 0.57592 0.18508 0.0
C550 C 0.61722 0.56582 0.17822 0.0
C551 C 0.60831 0.59852 0.2133 0.0
C552 C 0.5905 0.5895 0.22042 0.0
C553 C 0.61795 0.61707 0.21489 0.0
C554 C 0.63654 0.62738 0.20629 0.0
C555 C 0.64147 0.62524 0.18088 0.0
C556 C 0.65903 0.6349 0.17296 0.0
C557 C 0.67177 0.64683 0.19023 0.0
C558 C 0.66697 0.64917 0.21542 0.0
C559 C 0.64943 0.63953 0.22345 0.0
H560 H 0.68535 0.6543 0.18406 0.0
H561 H 0.51486 0.56119 0.26102 0.0
H562 H 0.05111 0.61266 0.19636 0.0
H563 H 0.02133 0.60463 0.20901 0.0
H564 H 0.03889 0.65833 0.23067 0.0
H565 H 0.06903 0.6666 0.21793 0.0
H566 H 0.01694 0.63347 0.26833 0.0
H567 H 0.01582 0.64411 0.17709 0.0
H568 H 0.02127 0.64242 0.12997 0.0
H569 H 0.98775 0.5864 0.1318 0.0
H570 H 0.9823 0.58771 0.17903 0.0
H571 H 0.92488 0.59971 0.29179 0.0
H572 H 0.95445 0.61888 0.27422 0.0
H573 H 0.95396 0.57396 0.23915 0.0
H574 H 0.92454 0.55486 0.25625 0.0
H575 H 0.9675 0.60159 0.206 0.0
H576 H 0.97402 0.59062 0.29797 0.0
H577 H 0.96916 0.59148 0.34554 0.0
H578 H 0.99284 0.64761 0.34227 0.0
H579 H 0.99764 0.64704 0.29458 0.0
C580 C 0.04871 0.62282 0.20377 0.0
C581 C 0.06243 0.64028 0.2061 0.0
C582 C 0.03164 0.61821 0.21086 0.0
C583 C 0.0279 0.63094 0.22042 0.0
C584 C 0.04155 0.64837 0.22315 0.0
C585 C 0.05871 0.65305 0.21585 0.0
C586 C 0.00968 0.6256 0.2281 0.0
C587 C 0.00612 0.62691 0.2546 0.0
C588 C 0.99562 0.61689 0.21018 0.0
C589 C -0.00129 0.61602 0.18167 0.0
C590 C 0.00969 0.63142 0.16749 0.0
C591 C 0.01277 0.63053 0.14075 0.0
C592 C 0.00488 0.61431 0.12791 0.0
C593 C 0.99385 0.59895 0.14177 0.0
C594 C 0.99074 0.59977 0.16853 0.0
C595 C 0.93104 0.59396 0.28015 0.0
C596 C 0.92242 0.57575 0.27554 0.0
C597 C 0.94793 0.60492 0.27019 0.0
C598 C 0.95642 0.59781 0.25555 0.0
C599 C 0.94762 0.57972 0.25034 0.0
C600 C 0.93082 0.5688 0.26026 0.0
C601 C 0.97476 0.60884 0.2464 0.0
C602 C 0.97832 0.60859 0.21959 0.0
C603 C 0.98881 0.61844 0.26406 0.0
C604 C 0.98597 0.61877 0.29269 0.0
C605 C 0.97806 0.60313 0.30737 0.0
C606 C 0.97534 0.60356 0.33435 0.0
C607 C 0.98063 0.61958 0.3469 0.0
C608 C 0.98871 0.63521 0.33251 0.0
C609 C 0.99143 0.63484 0.30551 0.0
H610 H 0.97852 0.61989 0.36779 0.0
H611 H 0.00728 0.61365 0.1072 0.0
H612 H 0.57684 0.92608 0.75543 0.0
H613 H 0.59451 0.95568 0.73784 0.0
H614 H 0.61269 0.97554 0.81593 0.0
H615 H 0.59479 0.94596 0.8338 0.0
H616 H 0.6007 0.99417 0.7919 0.0
H617 H 0.64062 0.9744 0.76995 0.0
H618 H 0.65006 0.95451 0.75152 0.0
H619 H 0.63453 0.96132 0.67446 0.0
H620 H 0.62475 0.98106 0.69247 0.0
H621 H 0.65737 0.08053 0.74575 0.0
H622 H 0.64797 0.05178 0.76532 0.0
H623 H 0.62358 0.02663 0.6922 0.0
H624 H 0.63298 0.05533 0.67238 0.0
H625 H 0.64148 0.01165 0.71603 0.0
H626 H 0.59893 0.02885 0.73917 0.0
H627 H 0.58932 0.04862 0.75761 0.0
H628 H 0.61005 0.04638 0.83297 0.0
H629 H 0.62001 0.02678 0.81485 0.0
C630 C 0.58479 0.93668 0.76886 0.0
C631 C 0.58432 0.93367 0.79605 0.0
C632 C 0.59497 0.9536 0.75873 0.0
C633 C 0.60501 0.96781 0.77556 0.0
C634 C 0.60504 0.96476 0.80261 0.0
C635 C 0.59482 0.94783 0.81277 0.0
C636 C 0.61424 0.98599 0.76513 0.0
C637 C 0.60992 0.99809 0.77569 0.0
C638 C 0.62594 0.99097 0.74357 0.0
C639 C 0.63182 0.97911 0.73262 0.0
C640 C 0.63908 0.97155 0.7491 0.0
C641 C 0.64452 0.96032 0.73872 0.0
C642 C 0.64286 0.95663 0.71184 0.0
C643 C 0.6358 0.96419 0.69528 0.0
C644 C 0.63033 0.97542 0.70556 0.0
C645 C 0.65013 0.0689 0.73375 0.0
C646 C 0.64578 0.07019 0.70757 0.0
C647 C 0.64477 0.0525 0.74498 0.0
C648 C 0.63495 0.03711 0.73025 0.0
C649 C 0.63115 0.03837 0.70386 0.0
C650 C 0.63645 0.05477 0.69263 0.0
C651 C 0.62782 0.01966 0.74274 0.0
C652 C 0.63247 0.00773 0.73251 0.0
C653 C 0.61643 0.0148 0.76464 0.0
C654 C 0.61039 0.02652 0.77558 0.0
C655 C 0.60157 0.0327 0.75961 0.0
C656 C 0.59604 0.04385 0.77002 0.0
C657 C 0.59913 0.0488 0.79643 0.0
C658 C 0.6077 0.04256 0.8125 0.0
C659 C 0.61329 0.03143 0.80218 0.0
H660 H 0.59483 0.05742 0.80445 0.0
H661 H 0.64709 0.94793 0.70385 0.0
H662 H 0.61444 0.55518 0.83315 0.0
H663 H 0.60203 0.57384 0.82274 0.0
H664 H 0.63817 0.59651 0.75797 0.0
H665 H 0.65087 0.57801 0.76846 0.0
H666 H 0.6353 0.62139 0.78574 0.0
H667 H 0.59633 0.56558 0.74674 0.0
H668 H 0.57708 0.53341 0.74573 0.0
H669 H 0.54334 0.53696 0.80339 0.0
H670 H 0.56254 0.56915 0.80506 0.0
H671 H 0.58914 0.65611 0.71554 0.0
H672 H 0.60442 0.64086 0.7302 0.0
H673 H 0.56825 0.61845 0.795 0.0
H674 H 0.55277 0.63354 0.78036 0.0
H675 H 0.57143 0.59378 0.76778 0.0
H676 H 0.61047 0.65011 0.8056 0.0
H677 H 0.62985 0.68227 0.80573 0.0
H678 H 0.66348 0.67776 0.74891 0.0
H679 H 0.64416 0.64558 0.74817 0.0
C680 C 0.61979 0.56415 0.8167 0.0
C681 C 0.63356 0.56502 0.8015 0.0
C682 C 0.61265 0.57478 0.81076 0.0
C683 C 0.61904 0.58639 0.78939 0.0
C684 C 0.63304 0.5876 0.77452 0.0
C685 C 0.64023 0.57698 0.78048 0.0
C686 C 0.61084 0.59701 0.78231 0.0
C687 C 0.62138 0.61537 0.7815 0.0
C688 C 0.59261 0.58913 0.77728 0.0
C689 C 0.58098 0.56977 0.77622 0.0
C690 C 0.58488 0.55949 0.75937 0.0
C691 C 0.57397 0.54125 0.75865 0.0
C692 C 0.55902 0.53314 0.77454 0.0
C693 C 0.55493 0.54326 0.79113 0.0
C694 C 0.56583 0.5615 0.79196 0.0
C695 C 0.58457 0.64813 0.73312 0.0
C696 C 0.5697 0.646 0.74675 0.0
C697 C 0.59336 0.63947 0.74152 0.0
C698 C 0.58751 0.62858 0.76375 0.0
C699 C 0.57297 0.62679 0.77779 0.0
C700 C 0.56418 0.63548 0.76944 0.0
C701 C 0.59586 0.61819 0.77136 0.0
C702 C 0.58535 0.59983 0.77215 0.0
C703 C 0.61411 0.62609 0.77621 0.0
C704 C 0.62577 0.64544 0.77665 0.0
C705 C 0.62191 0.65598 0.79297 0.0
C706 C 0.63291 0.67422 0.79318 0.0
C707 C 0.64786 0.68206 0.77729 0.0
C708 C 0.65188 0.67167 0.76119 0.0
C709 C 0.64093 0.65343 0.76088 0.0
H710 H 0.65636 0.69617 0.77749 0.0
H711 H 0.55059 0.51902 0.77395 0.0
H712 H 0.93159 0.60379 0.65384 0.0
H713 H 0.96225 0.62612 0.66215 0.0
H714 H 0.95717 0.60842 0.74237 0.0
H715 H 0.92663 0.58622 0.73434 0.0
H716 H 0.97701 0.64486 0.73771 0.0
H717 H 0.97257 0.59228 0.6961 0.0
H718 H 0.96347 0.571 0.65963 0.0
H719 H 0.99425 0.61286 0.60572 0.0
H720 H 0.00335 0.63441 0.64188 0.0
H721 H 0.05304 0.65204 0.79036 0.0
H722 H 0.02454 0.6446 0.77233 0.0
H723 H 0.04847 0.66589 0.6972 0.0
H724 H 0.0772 0.67309 0.71506 0.0
H725 H 0.02068 0.6347 0.69095 0.0
H726 H 0.03102 0.68632 0.73441 0.0
H727 H 0.03991 0.7081 0.77007 0.0
H728 H -0.00148 0.67007 0.81891 0.0
H729 H 0.98953 0.64796 0.7837 0.0
C730 C 0.93693 0.60486 0.67337 0.0
C731 C 0.92676 0.59312 0.69338 0.0
C732 C 0.95443 0.6176 0.67805 0.0
C733 C 0.96198 0.61879 0.7028 0.0
C734 C 0.95157 0.60772 0.72314 0.0
C735 C 0.93415 0.59496 0.71846 0.0
C736 C 0.98105 0.63029 0.70723 0.0
C737 C 0.98663 0.64273 0.7275 0.0
C738 C 0.9936 0.62795 0.69314 0.0
C739 C 0.98848 0.61495 0.6716 0.0
C740 C 0.97732 0.59694 0.67645 0.0
C741 C 0.97217 0.58484 0.65584 0.0
C742 C 0.97824 0.59058 0.63036 0.0
C743 C 0.98954 0.60843 0.62546 0.0
C744 C 0.9947 0.62059 0.646 0.0
C745 C 0.05234 0.65536 0.77008 0.0
C746 C 0.0674 0.66311 0.75412 0.0
C747 C 0.03601 0.65122 0.75983 0.0
C748 C 0.03438 0.65491 0.73349 0.0
C749 C 0.04944 0.66301 0.71761 0.0
C750 C 0.06584 0.66712 0.72786 0.0
C751 C 0.01666 0.64882 0.72232 0.0
C752 C 0.01128 0.63734 0.70074 0.0
C753 C 0.00434 0.6522 0.73507 0.0
C754 C 0.00964 0.66545 0.75639 0.0
C755 C 0.02387 0.68256 0.75281 0.0
C756 C 0.02892 0.69497 0.77294 0.0
C757 C 0.01979 0.69046 0.79675 0.0
C758 C 0.00557 0.67354 0.80045 0.0
C759 C 0.00047 0.66107 0.78038 0.0
H760 H 0.02373 0.70009 0.81231 0.0
H761 H 0.9742 0.5812 0.61442 0.0
H762 H 0.44115 0.05423 0.77805 0.0
H763 H 0.42157 0.02393 0.76521 0.0
H764 H 0.38134 0.03648 0.74547 0.0
H765 H 0.40083 0.06695 0.75938 0.0
H766 H 0.3671 0.00664 0.7705 0.0
H767 H 0.40482 0.02898 0.69698 0.0
H768 H 0.4327 0.04494 0.67258 0.0
H769 H 0.44899 0.00966 0.70252 0.0
H770 H 0.42131 0.99363 0.72741 0.0
H771 H 0.32476 0.92085 0.70192 0.0
H772 H 0.33865 0.9526 0.70985 0.0
H773 H 0.37606 0.95008 0.76176 0.0
H774 H 0.36209 0.91842 0.75455 0.0
H775 H 0.38871 0.97547 0.7139 0.0
H776 H 0.35079 0.95593 0.79164 0.0
H777 H 0.32186 0.94012 0.81332 0.0
H778 H 0.30459 0.97063 0.77 0.0
H779 H 0.33336 0.98645 0.74777 0.0
C780 C 0.42819 0.05063 0.77081 0.0
C781 C 0.42257 0.06301 0.76955 0.0
C782 C 0.41701 0.03328 0.76333 0.0
C783 C 0.4001 0.02798 0.75381 0.0
C784 C 0.39438 0.0403 0.75261 0.0
C785 C 0.40552 0.05769 0.76049 0.0
C786 C 0.38839 0.00942 0.74601 0.0
C787 C 0.37171 -7e-05 0.75768 0.0
C788 C 0.39433 0.0006 0.72922 0.0
C789 C 0.41101 0.01016 0.71419 0.0
C790 C 0.41439 0.02469 0.6985 0.0
C791 C 0.43015 0.03374 0.68456 0.0
C792 C 0.44261 0.02833 0.68603 0.0
C793 C 0.43932 0.01384 0.7014 0.0
C794 C 0.42358 0.00474 0.7154 0.0
C795 C 0.33577 0.92704 0.71534 0.0
C796 C 0.34237 0.91718 0.72761 0.0
C797 C 0.34365 0.94511 0.71983 0.0
C798 C 0.35833 0.95354 0.73632 0.0
C799 C 0.36469 0.9437 0.749 0.0
C800 C 0.35666 0.92563 0.74493 0.0
C801 C 0.3679 0.9728 0.73914 0.0
C802 C 0.3841 0.98235 0.72636 0.0
C803 C 0.36137 0.98168 0.75441 0.0
C804 C 0.34413 0.97219 0.76779 0.0
C805 C 0.34076 0.95912 0.78651 0.0
C806 C 0.32441 0.95019 0.79896 0.0
C807 C 0.31137 0.95432 0.79297 0.0
C808 C 0.31468 0.96742 0.77458 0.0
C809 C 0.33101 0.97637 0.76206 0.0
H810 H 0.29873 0.9474 0.80263 0.0
H811 H 0.45481 0.03536 0.67522 0.0
H812 H 0.33358 0.40388 0.78344 0.0
H813 H 0.34332 0.38469 0.76364 0.0
H814 H 0.39487 0.42952 0.7513 0.0
H815 H 0.38541 0.44863 0.77115 0.0
H816 H 0.38047 0.40727 0.70674 0.0
H817 H 0.38919 0.40403 0.80086 0.0
H818 H 0.37897 0.39742 0.84676 0.0
H819 H 0.34258 0.34396 0.82563 0.0
H820 H 0.35245 0.35034 0.77951 0.0
H821 H 0.44402 0.38314 0.68911 0.0
H822 H 0.42528 0.39463 0.7033 0.0
H823 H 0.3837 0.34208 0.72098 0.0
H824 H 0.40268 0.33047 0.70745 0.0
H825 H 0.38683 0.36328 0.75938 0.0
H826 H 0.38107 0.3647 0.6671 0.0
H827 H 0.39059 0.37062 0.62086 0.0
H828 H 0.41949 0.42599 0.63675 0.0
H829 H 0.41036 0.4204 0.68319 0.0
C830 C 0.34698 0.40961 0.77651 0.0
C831 C 0.35875 0.42775 0.77891 0.0
C832 C 0.35251 0.39865 0.76524 0.0
C833 C 0.36979 0.40575 0.75602 0.0
C834 C 0.38146 0.42384 0.75822 0.0
C835 C 0.37604 0.43471 0.76972 0.0
C836 C 0.37607 0.39451 0.74429 0.0
C837 C 0.38191 0.39765 0.71818 0.0
C838 C 0.37727 0.38153 0.759 0.0
C839 C 0.37139 0.37772 0.78671 0.0
C840 C 0.37889 0.39091 0.80597 0.0
C841 C 0.37319 0.3872 0.83203 0.0
C842 C 0.36009 0.3703 0.83909 0.0
C843 C 0.3527 0.35706 0.82012 0.0
C844 C 0.35835 0.36071 0.79403 0.0
C845 C 0.43086 0.37398 0.69583 0.0
C846 C 0.42482 0.35589 0.69711 0.0
C847 C 0.42009 0.38057 0.7038 0.0
C848 C 0.40295 0.36919 0.71276 0.0
C849 C 0.39685 0.35109 0.714 0.0
C850 C 0.40769 0.34448 0.70624 0.0
C851 C 0.39187 0.37646 0.72197 0.0
C852 C 0.38508 0.37258 0.7476 0.0
C853 C 0.38961 0.38864 0.70668 0.0
C854 C 0.39509 0.39211 0.6787 0.0
C855 C 0.38954 0.37814 0.66079 0.0
C856 C 0.39486 0.38144 0.63453 0.0
C857 C 0.40565 0.39867 0.62588 0.0
C858 C 0.41112 0.41265 0.64348 0.0
C859 C 0.40586 0.40942 0.66976 0.0
H860 H 0.40976 0.40119 0.60555 0.0
H861 H 0.3557 0.36745 0.85928 0.0
H862 H 0.05246 0.42716 0.6603 0.0
H863 H 0.02189 0.40798 0.67308 0.0
H864 H 0.03883 0.39576 0.74564 0.0
H865 H 0.06952 0.41466 0.7327 0.0
H866 H 0.01113 0.36699 0.72555 0.0
H867 H 0.02592 0.4264 0.74386 0.0
H868 H 0.03705 0.45765 0.73375 0.0
H869 H 0.9973 0.44315 0.67463 0.0
H870 H 0.98608 0.4118 0.68415 0.0
H871 H 0.93407 0.34185 0.80233 0.0
H872 H 0.96358 0.35505 0.78361 0.0
H873 H 0.94426 0.36366 0.71049 0.0
H874 H 0.91471 0.35052 0.72903 0.0
H875 H 0.97272 0.39334 0.72911 0.0
H876 H 0.95678 0.33345 0.71361 0.0
H877 H 0.94574 0.30245 0.72521 0.0
H878 H 0.98759 0.31802 0.78099 0.0
H879 H -0.00125 0.34916 0.76999 0.0
C880 C 0.0497 0.42032 0.67892 0.0
C881 C 0.0634 0.42257 0.69563 0.0
C882 C 0.03222 0.40938 0.68621 0.0
C883 C 0.02809 0.40069 0.71051 0.0
C884 C 0.04173 0.4024 0.72683 0.0
C885 C 0.05926 0.41324 0.71945 0.0
C886 C 0.00958 0.39041 0.71934 0.0
C887 C 0.00276 0.37278 0.72659 0.0
C888 C -0.00141 0.3979 0.72023 0.0
C889 C 0.00528 0.41675 0.71453 0.0
C890 C 0.01964 0.42988 0.72857 0.0
C891 C 0.02595 0.44761 0.72296 0.0
C892 C 0.01792 0.45238 0.70351 0.0
C893 C 0.00352 0.43944 0.68967 0.0
C894 C 0.99718 0.42168 0.69517 0.0
C895 C 0.93604 0.34633 0.78214 0.0
C896 C 0.92207 0.34522 0.7672 0.0
C897 C 0.9529 0.3538 0.77145 0.0
C898 C 0.95607 0.36027 0.74564 0.0
C899 C 0.94206 0.35872 0.73044 0.0
C900 C 0.92518 0.35118 0.74106 0.0
C901 C 0.97423 0.3699 0.73528 0.0
C902 C 0.98102 0.38748 0.72786 0.0
C903 C 0.98518 0.36238 0.73447 0.0
C904 C 0.9785 0.34366 0.74114 0.0
C905 C 0.96354 0.33028 0.72852 0.0
C906 C 0.95729 0.31268 0.73495 0.0
C907 C 0.96594 0.30827 0.75387 0.0
C908 C 0.98089 0.32146 0.76636 0.0
C909 C 0.9872 0.33909 0.76001 0.0
H910 H 0.96107 0.29463 0.75882 0.0
H911 H 0.02282 0.46612 0.69921 0.0
H912 H 0.44053 0.14827 0.22696 0.0
H913 H 0.43458 0.17108 0.24228 0.0
H914 H 0.45134 0.1974 0.1675 0.0
H915 H 0.45758 0.17473 0.15208 0.0
H916 H 0.46682 0.21964 0.20733 0.0
H917 H 0.40811 0.17635 0.1849 0.0
H918 H 0.38153 0.14705 0.18454 0.0
H919 H 0.37686 0.14943 0.26819 0.0
H920 H 0.40357 0.17866 0.26911 0.0
H921 H 0.44458 0.28393 0.23962 0.0
H922 H 0.4435 0.25882 0.21738 0.0
H923 H 0.42904 0.22983 0.29017 0.0
H924 H 0.42984 0.25483 0.31258 0.0
H925 H 0.41106 0.20902 0.24813 0.0
H926 H 0.47108 0.25082 0.27081 0.0
H927 H 0.49779 0.28004 0.27153 0.0
H928 H 0.49995 0.28011 0.18726 0.0
H929 H 0.47309 0.25097 0.18604 0.0
C930 C 0.44281 0.15882 0.21366 0.0
C931 C 0.44961 0.15974 0.18834 0.0
C932 C 0.43929 0.17179 0.2224 0.0
C933 C 0.44236 0.18584 0.20593 0.0
C934 C 0.44884 0.18663 0.18048 0.0
C935 C 0.45239 0.17367 0.17172 0.0
C936 C 0.43996 0.2003 0.21597 0.0
C937 C 0.45451 0.21736 0.21576 0.0
C938 C 0.42403 0.19723 0.22756 0.0
C939 C 0.40794 0.17965 0.22709 0.0
C940 C 0.40151 0.17057 0.20325 0.0
C941 C 0.3864 0.15398 0.20294 0.0
C942 C 0.37754 0.14637 0.22633 0.0
C943 C 0.38375 0.15534 0.25008 0.0
C944 C 0.39886 0.17194 0.25051 0.0
C945 C 0.44099 0.27216 0.25088 0.0
C946 C 0.4375 0.27144 0.27795 0.0
C947 C 0.4404 0.25783 0.23813 0.0
C948 C 0.43646 0.2426 0.25224 0.0
C949 C 0.43215 0.24151 0.27897 0.0
C950 C 0.43268 0.25582 0.29175 0.0
C951 C 0.43793 0.22825 0.23954 0.0
C952 C 0.42327 0.21126 0.23937 0.0
C953 C 0.45377 0.23134 0.22762 0.0
C954 C 0.46998 0.24881 0.22833 0.0
C955 C 0.47718 0.25712 0.25243 0.0
C956 C 0.49236 0.27366 0.25293 0.0
C957 C 0.50054 0.28195 0.22945 0.0
C958 C 0.49358 0.27369 0.20543 0.0
C959 C 0.47839 0.25716 0.20482 0.0
H960 H 0.51228 0.29475 0.22988 0.0
H961 H 0.36584 0.13352 0.22605 0.0
H962 H 0.15927 0.42142 0.31614 0.0
H963 H 0.18394 0.41962 0.29737 0.0
H964 H 0.18674 0.45301 0.23328 0.0
H965 H 0.16205 0.4548 0.25174 0.0
H966 H 0.19136 0.4258 0.21677 0.0
H967 H 0.2136 0.47033 0.2846 0.0
H968 H 0.21514 0.48152 0.32952 0.0
H969 H 0.22829 0.4439 0.35954 0.0
H970 H 0.2266 0.43233 0.3148 0.0
H971 H 0.27889 0.4641 0.17168 0.0
H972 H 0.25043 0.45769 0.18917 0.0
H973 H 0.25552 0.42755 0.25192 0.0
H974 H 0.28415 0.43413 0.23478 0.0
H975 H 0.24567 0.44962 0.27038 0.0
H976 H 0.2266 0.40711 0.20177 0.0
H977 H 0.22522 0.39604 0.15683 0.0
H978 H 0.20616 0.42937 0.12815 0.0
H979 H 0.20767 0.44084 0.17288 0.0
C980 C 0.16501 0.42823 0.29791 0.0
C981 C 0.15882 0.43839 0.28556 0.0
C982 C 0.17912 0.42721 0.28725 0.0
C983 C 0.18726 0.43634 0.26412 0.0
C984 C 0.18063 0.44588 0.25117 0.0
C985 C 0.16657 0.44695 0.26183 0.0
C986 C 0.2033 0.43685 0.25408 0.0
C987 C 0.20329 0.43109 0.22838 0.0
C988 C 0.21868 0.44335 0.26955 0.0
C989 C 0.21977 0.45033 0.29642 0.0
C990 C 0.21668 0.46435 0.30082 0.0
C991 C 0.2176 0.47078 0.32623 0.0
C992 C 0.22176 0.46339 0.34738 0.0
C993 C 0.22504 0.44959 0.34314 0.0
C994 C 0.22411 0.4431 0.31776 0.0
C995 C 0.27392 0.45602 0.18911 0.0
C996 C 0.28379 0.44965 0.20186 0.0
C997 C 0.2576 0.45228 0.19899 0.0
C998 C 0.25077 0.44197 0.22167 0.0
C999 C 0.26053 0.43549 0.23435 0.0
C1000 C 0.27688 0.43925 0.22451 0.0
C1001 C 0.23385 0.43876 0.23287 0.0
C1002 C 0.23371 0.44407 0.25881 0.0
C1003 C 0.21833 0.43182 0.21762 0.0
C1004 C 0.21738 0.42494 0.19067 0.0
C1005 C 0.22225 0.41219 0.18585 0.0
C1006 C 0.22142 0.40582 0.16042 0.0
C1007 C 0.21564 0.41203 0.13964 0.0
C1008 C 0.21065 0.42459 0.14426 0.0
C1009 C 0.21146 0.43101 0.16966 0.0
H1010 H 0.21501 0.40708 0.11996 0.0
H1011 H 0.22247 0.46839 0.36705 0.0
H1012 H 0.71995 0.15371 0.26604 0.0
H1013 H 0.74693 0.17889 0.24964 0.0
H1014 H 0.74741 0.20968 0.31598 0.0
H1015 H 0.72029 0.18468 0.33228 0.0
H1016 H 0.75278 0.22735 0.27124 0.0
H1017 H 0.77603 0.19391 0.31182 0.0
H1018 H 0.77845 0.16756 0.32001 0.0
H1019 H 0.7919 0.16684 0.23911 0.0
H1020 H 0.78932 0.19306 0.23036 0.0
H1021 H 0.8372 0.30026 0.25715 0.0
H1022 H 0.81252 0.27336 0.27443 0.0
H1023 H 0.8128 0.24524 0.20517 0.0
H1024 H 0.83775 0.27214 0.18778 0.0
H1025 H 0.80713 0.22583 0.25017 0.0
H1026 H 0.78382 0.25907 0.20956 0.0
H1027 H 0.78139 0.28539 0.20115 0.0
H1028 H 0.76783 0.28626 0.28195 0.0
H1029 H 0.77043 0.26008 0.29093 0.0
C1030 C 0.72585 0.16581 0.27722 0.0
C1031 C 0.71796 0.16721 0.30044 0.0
C1032 C 0.74132 0.18016 0.26788 0.0
C1033 C 0.74926 0.19611 0.28172 0.0
C1034 C 0.74149 0.19749 0.30501 0.0
C1035 C 0.726 0.18318 0.31431 0.0
C1036 C 0.76527 0.21161 0.27142 0.0
C1037 C 0.76474 0.22708 0.267 0.0
C1038 C 0.78069 0.21108 0.26514 0.0
C1039 C 0.78231 0.19535 0.27038 0.0
C1040 C 0.77936 0.18805 0.29573 0.0
C1041 C 0.78079 0.17315 0.30048 0.0
C1042 C 0.78528 0.1655 0.28008 0.0
C1043 C 0.7884 0.17277 0.25489 0.0
C1044 C 0.78697 0.18766 0.25003 0.0
C1045 C 0.83213 0.28835 0.24564 0.0
C1046 C 0.83933 0.28838 0.22095 0.0
C1047 C 0.81799 0.27299 0.25553 0.0
C1048 C 0.81067 0.2574 0.24087 0.0
C1049 C 0.81825 0.25717 0.21673 0.0
C1050 C 0.83246 0.27256 0.2068 0.0
C1051 C 0.79466 0.24158 0.25036 0.0
C1052 C 0.79516 0.22606 0.25448 0.0
C1053 C 0.77916 0.24202 0.25635 0.0
C1054 C 0.77748 0.25771 0.25097 0.0
C1055 C 0.78045 0.26495 0.22558 0.0
C1056 C 0.77902 0.27983 0.2207 0.0
C1057 C 0.7745 0.28752 0.24101 0.0
C1058 C 0.77135 0.28031 0.26624 0.0
C1059 C 0.77278 0.26544 0.27123 0.0
H1060 H 0.7734 0.29905 0.2372 0.0
H1061 H 0.78638 0.15397 0.28379 0.0
H1062 H 0.55779 0.84189 0.2329 0.0
H1063 H 0.55987 0.81648 0.24746 0.0
H1064 H 0.51754 0.78309 0.19521 0.0
H1065 H 0.51518 0.80831 0.18086 0.0
H1066 H 0.51287 0.76862 0.24276 0.0
H1067 H 0.56015 0.79582 0.18042 0.0
H1068 H 0.58722 0.82007 0.16131 0.0
H1069 H 0.61519 0.8244 0.23263 0.0
H1070 H 0.58821 0.80032 0.2523 0.0
H1071 H 0.52078 0.69289 0.24208 0.0
H1072 H 0.52134 0.71974 0.22826 0.0
H1073 H 0.56171 0.74944 0.28539 0.0
H1074 H 0.56134 0.7226 0.2993 0.0
H1075 H 0.56808 0.76636 0.23738 0.0
H1076 H 0.52079 0.73858 0.29919 0.0
H1077 H 0.49371 0.71412 0.3179 0.0
H1078 H 0.4657 0.71083 0.24709 0.0
H1079 H 0.49269 0.73512 0.22779 0.0
C1080 C 0.54894 0.82914 0.22448 0.0
C1081 C 0.53632 0.8271 0.20572 0.0
C1082 C 0.55021 0.81465 0.23274 0.0
C1083 C 0.53896 0.79794 0.22223 0.0
C1084 C 0.52634 0.79588 0.20356 0.0
C1085 C 0.52504 0.81032 0.19535 0.0
C1086 C 0.54006 0.78246 0.231 0.0
C1087 C 0.52489 0.76805 0.24128 0.0
C1088 C 0.55587 0.78193 0.22973 0.0
C1089 C 0.57211 0.79639 0.21793 0.0
C1090 C 0.57204 0.80204 0.1921 0.0
C1091 C 0.58737 0.81573 0.18116 0.0
C1092 C 0.6029 0.8238 0.19577 0.0
C1093 C 0.60314 0.81816 0.22134 0.0
C1094 C 0.58784 0.80448 0.2324 0.0
C1095 C 0.52986 0.70513 0.25163 0.0
C1096 C 0.54093 0.7056 0.27192 0.0
C1097 C 0.53012 0.72045 0.24375 0.0
C1098 C 0.5414 0.7365 0.25606 0.0
C1099 C 0.55288 0.73715 0.27573 0.0
C1100 C 0.5526 0.7218 0.28368 0.0
C1101 C 0.54084 0.75249 0.24877 0.0
C1102 C 0.55609 0.76699 0.23889 0.0
C1103 C 0.52509 0.75311 0.25035 0.0
C1104 C 0.50881 0.73856 0.26196 0.0
C1105 C 0.50889 0.73255 0.28753 0.0
C1106 C 0.49355 0.71873 0.29825 0.0
C1107 C 0.478 0.7109 0.28367 0.0
C1108 C 0.47776 0.7169 0.25835 0.0
C1109 C 0.49307 0.7307 0.24752 0.0
H1110 H 0.46614 0.7002 0.29201 0.0
H1111 H 0.61476 0.8344 0.18726 0.0
H1112 H 0.69236 0.53861 0.27864 0.0
H1113 H 0.72025 0.54357 0.29658 0.0
H1114 H 0.74683 0.57103 0.22584 0.0
H1115 H 0.71895 0.56583 0.20755 0.0
H1116 H 0.75517 0.54695 0.23786 0.0
H1117 H 0.75264 0.59283 0.28464 0.0
H1118 H 0.7394 0.60595 0.3128 0.0
H1119 H 0.73556 0.57208 0.37632 0.0
H1120 H 0.74856 0.55858 0.34841 0.0
H1121 H 0.84035 0.5725 0.28285 0.0
H1122 H 0.81516 0.57511 0.26894 0.0
H1123 H 0.78548 0.54411 0.33549 0.0
H1124 H 0.81067 0.54155 0.34974 0.0
H1125 H 0.7797 0.57176 0.32553 0.0
H1126 H 0.78011 0.52462 0.27786 0.0
H1127 H 0.79315 0.51122 0.24986 0.0
H1128 H 0.80066 0.5475 0.18796 0.0
H1129 H 0.78788 0.56128 0.21576 0.0
C1130 C 0.70417 0.54589 0.26702 0.0
C1131 C 0.70342 0.55173 0.24161 0.0
C1132 C 0.72012 0.5488 0.27737 0.0
C1133 C 0.73565 0.55778 0.26262 0.0
C1134 C 0.735 0.56406 0.23755 0.0
C1135 C 0.71906 0.56109 0.22714 0.0
C1136 C 0.75228 0.55943 0.27244 0.0
C1137 C 0.7607 0.5527 0.25682 0.0
C1138 C 0.75923 0.56648 0.29749 0.0
C1139 C 0.75143 0.57459 0.31434 0.0
C1140 C 0.74884 0.58808 0.30454 0.0
C1141 C 0.7414 0.5956 0.32048 0.0
C1142 C 0.7366 0.58982 0.34631 0.0
C1143 C 0.73927 0.57653 0.35629 0.0
C1144 C 0.74669 0.56896 0.34043 0.0
C1145 C 0.82854 0.56639 0.29471 0.0
C1146 C 0.82744 0.55664 0.31724 0.0
C1147 C 0.81416 0.56789 0.28671 0.0
C1148 C 0.79841 0.5596 0.30101 0.0
C1149 C 0.79753 0.55058 0.32418 0.0
C1150 C 0.81191 0.54906 0.33221 0.0
C1151 C 0.78251 0.55936 0.29086 0.0
C1152 C 0.77422 0.56623 0.30646 0.0
C1153 C 0.77561 0.55242 0.26578 0.0
C1154 C 0.78322 0.54409 0.24899 0.0
C1155 C 0.78467 0.52983 0.25835 0.0
C1156 C 0.79199 0.52215 0.24251 0.0
C1157 C 0.79778 0.52854 0.21717 0.0
C1158 C 0.7962 0.54259 0.2076 0.0
C1159 C 0.78891 0.55033 0.22339 0.0
H1160 H 0.80344 0.52258 0.20493 0.0
H1161 H 0.73085 0.59566 0.35861 0.0
H1162 H 0.15226 0.71766 0.2176 0.0
H1163 H 0.17772 0.74619 0.22813 0.0
H1164 H 0.20345 0.744 0.15723 0.0
H1165 H 0.17815 0.71539 0.1467 0.0
H1166 H 0.22477 0.75242 0.19874 0.0
H1167 H 0.18754 0.77205 0.16212 0.0
H1168 H 0.16033 0.77331 0.15658 0.0
H1169 H 0.16383 0.79035 0.23651 0.0
H1170 H 0.19094 0.78895 0.24266 0.0
H1171 H 0.29695 0.83839 0.21228 0.0
H1172 H 0.27019 0.81391 0.19387 0.0
H1173 H 0.24202 0.81099 0.26481 0.0
H1174 H 0.26866 0.83551 0.28334 0.0
H1175 H 0.2222 0.80616 0.22012 0.0
H1176 H 0.25782 0.78411 0.25751 0.0
H1177 H 0.28493 0.7827 0.26341 0.0
H1178 H 0.28414 0.76998 0.1818 0.0
H1179 H 0.25714 0.77157 0.17534 0.0
C1180 C 0.16328 0.7233 0.20414 0.0
C1181 C 0.16321 0.71423 0.18135 0.0
C1182 C 0.17778 0.73966 0.21011 0.0
C1183 C 0.19241 0.74727 0.19334 0.0
C1184 C 0.19228 0.73836 0.17041 0.0
C1185 C 0.17779 0.72201 0.16442 0.0
C1186 C 0.20826 0.76405 0.20049 0.0
C1187 C 0.22426 0.76426 0.20292 0.0
C1188 C 0.2075 0.77938 0.20653 0.0
C1189 C 0.1912 0.78024 0.20291 0.0
C1190 C 0.18243 0.77592 0.17859 0.0
C1191 C 0.16704 0.77669 0.17532 0.0
C1192 C 0.16033 0.78186 0.1962 0.0
C1193 C 0.16903 0.78632 0.22037 0.0
C1194 C 0.18442 0.78557 0.22374 0.0
C1195 C 0.28502 0.83269 0.22385 0.0
C1196 C 0.28497 0.83876 0.24938 0.0
C1197 C 0.26976 0.81869 0.21331 0.0
C1198 C 0.25422 0.81053 0.22813 0.0
C1199 C 0.2539 0.81711 0.25309 0.0
C1200 C 0.26916 0.83107 0.26368 0.0
C1201 C 0.23861 0.79444 0.21838 0.0
C1202 C 0.22269 0.79435 0.2156 0.0
C1203 C 0.2394 0.77919 0.21202 0.0
C1204 C 0.25559 0.77816 0.21588 0.0
C1205 C 0.26352 0.78116 0.24078 0.0
C1206 C 0.27884 0.7803 0.24423 0.0
C1207 C 0.28629 0.7763 0.22297 0.0
C1208 C 0.27838 0.77311 0.19823 0.0
C1209 C 0.26306 0.77398 0.19467 0.0
H1210 H 0.29815 0.77564 0.22568 0.0
H1211 H 0.14841 0.78245 0.19363 0.0
H1212 H 0.56486 0.72286 0.72205 0.0
H1213 H 0.56566 0.74996 0.73562 0.0
H1214 H 0.50999 0.72593 0.72085 0.0
H1215 H 0.50922 0.69909 0.70654 0.0
H1216 H 0.52602 0.75773 0.70208 0.0
H1217 H 0.52748 0.73127 0.78406 0.0
H1218 H 0.53887 0.71841 0.81617 0.0
H1219 H 0.58837 0.76655 0.81789 0.0
H1220 H 0.57735 0.77962 0.78552 0.0
H1221 H 0.50486 0.81293 0.77571 0.0
H1222 H 0.50758 0.78807 0.76035 0.0
H1223 H 0.56397 0.81923 0.76664 0.0
H1224 H 0.5614 0.84426 0.78199 0.0
H1225 H 0.54979 0.7855 0.78859 0.0
H1226 H 0.54677 0.81224 0.70807 0.0
H1227 H 0.53427 0.82462 0.67708 0.0
H1228 H 0.48622 0.77508 0.67395 0.0
H1229 H 0.49835 0.76246 0.70523 0.0
C1230 C 0.5528 0.72337 0.72173 0.0
C1231 C 0.53697 0.70884 0.71326 0.0
C1232 C 0.55326 0.73883 0.72959 0.0
C1233 C 0.53784 0.73991 0.72954 0.0
C1234 C 0.52206 0.72542 0.72101 0.0
C1235 C 0.52163 0.71006 0.71289 0.0
C1236 C 0.53805 0.75614 0.73809 0.0
C1237 C 0.53105 0.76368 0.72112 0.0
C1238 C 0.54502 0.76417 0.76267 0.0
C1239 C 0.55166 0.75635 0.78215 0.0
C1240 C 0.54084 0.73906 0.79113 0.0
C1241 C 0.54722 0.73175 0.80941 0.0
C1242 C 0.56435 0.74164 0.819 0.0
C1243 C 0.57512 0.75889 0.8104 0.0
C1244 C 0.56881 0.76626 0.79211 0.0
C1245 C 0.51785 0.81452 0.77381 0.0
C1246 C 0.53292 0.83057 0.77998 0.0
C1247 C 0.51937 0.80032 0.76496 0.0
C1248 C 0.53598 0.8019 0.7622 0.0
C1249 C 0.55105 0.81781 0.76862 0.0
C1250 C 0.54955 0.83209 0.77727 0.0
C1251 C 0.53752 0.78682 0.75275 0.0
C1252 C 0.54487 0.77956 0.76951 0.0
C1253 C 0.53072 0.77892 0.7281 0.0
C1254 C 0.52342 0.78645 0.70918 0.0
C1255 C 0.53349 0.80402 0.70094 0.0
C1256 C 0.52648 0.81107 0.68329 0.0
C1257 C 0.50945 0.80065 0.6736 0.0
C1258 C 0.49941 0.78314 0.68149 0.0
C1259 C 0.50635 0.77603 0.69916 0.0
H1260 H 0.50404 0.80614 0.65993 0.0
H1261 H 0.56926 0.73596 0.83315 0.0
H1262 H 0.72306 0.53947 0.82173 0.0
H1263 H 0.75063 0.54544 0.80138 0.0
H1264 H 0.73549 0.5601 0.72933 0.0
H1265 H 0.70774 0.5541 0.74957 0.0
H1266 H 0.7472 0.53694 0.7212 0.0
H1267 H 0.7673 0.59132 0.7654 0.0
H1268 H 0.77117 0.61102 0.80241 0.0
H1269 H 0.79869 0.59036 0.84583 0.0
H1270 H 0.79476 0.57033 0.80923 0.0
H1271 H 0.8315 0.56282 0.66609 0.0
H1272 H 0.80603 0.56445 0.68181 0.0
H1273 H 0.81257 0.54825 0.75896 0.0
H1274 H 0.83802 0.54664 0.74351 0.0
H1275 H 0.80581 0.57567 0.76067 0.0
H1276 H 0.78242 0.51902 0.71855 0.0
H1277 H 0.77829 0.49905 0.68178 0.0
H1278 H 0.75684 0.52423 0.63446 0.0
H1279 H 0.76107 0.54452 0.67087 0.0
C1280 C 0.72562 0.54408 0.80161 0.0
C1281 C 0.7132 0.54628 0.78724 0.0
C1282 C 0.74143 0.54758 0.79006 0.0
C1283 C 0.74515 0.55336 0.76393 0.0
C1284 C 0.73286 0.55571 0.74955 0.0
C1285 C 0.71705 0.55231 0.76117 0.0
C1286 C 0.76149 0.55599 0.7514 0.0
C1287 C 0.76006 0.5457 0.72947 0.0
C1288 C 0.7782 0.5672 0.76251 0.0
C1289 C 0.78061 0.57921 0.78462 0.0
C1290 C 0.77405 0.59086 0.78293 0.0
C1291 C 0.77628 0.60212 0.80382 0.0
C1292 C 0.78514 0.60192 0.82648 0.0
C1293 C 0.79182 0.59049 0.82827 0.0
C1294 C 0.78961 0.5792 0.80744 0.0
C1295 C 0.82756 0.55968 0.68643 0.0
C1296 C 0.83671 0.55451 0.70353 0.0
C1297 C 0.813 0.56059 0.69535 0.0
C1298 C 0.80738 0.55636 0.72148 0.0
C1299 C 0.81673 0.55159 0.73872 0.0
C1300 C 0.83121 0.55059 0.72981 0.0
C1301 C 0.79145 0.55637 0.73084 0.0
C1302 C 0.79297 0.56714 0.75217 0.0
C1303 C 0.77482 0.54562 0.71919 0.0
C1304 C 0.77226 0.53343 0.6973 0.0
C1305 C 0.77697 0.5204 0.70022 0.0
C1306 C 0.77458 0.509 0.67947 0.0
C1307 C 0.76736 0.51041 0.65577 0.0
C1308 C 0.76246 0.52318 0.65281 0.0
C1309 C 0.76485 0.53463 0.6735 0.0
H1310 H 0.76551 0.50156 0.63973 0.0
H1311 H 0.78687 0.61065 0.84263 0.0
H1312 H 0.2678 0.82859 0.7065 0.0
H1313 H 0.24093 0.80424 0.72451 0.0
H1314 H 0.27011 0.80094 0.79025 0.0
H1315 H 0.2972 0.82523 0.77217 0.0
H1316 H 0.24876 0.76912 0.76915 0.0
H1317 H 0.24306 0.81757 0.79856 0.0
H1318 H 0.24273 0.84535 0.7945 0.0
H1319 H 0.19956 0.82101 0.74044 0.0
H1320 H 0.19978 0.79314 0.74387 0.0
H1321 H 0.17217 0.7073 0.83719 0.0
H1322 H 0.19932 0.7343 0.82642 0.0
H1323 H 0.17477 0.74089 0.75735 0.0
H1324 H 0.14747 0.71398 0.76811 0.0
H1325 H 0.19432 0.7718 0.78374 0.0
H1326 H 0.20162 0.72415 0.75203 0.0
H1327 H 0.20202 0.69639 0.75589 0.0
H1328 H 0.24244 0.71952 0.81451 0.0
H1329 H 0.2421 0.74735 0.81125 0.0
C1330 C 0.26852 0.82277 0.72487 0.0
C1331 C 0.28464 0.82884 0.73791 0.0
C1332 C 0.25312 0.80891 0.73521 0.0
C1333 C 0.2535 0.80092 0.75886 0.0
C1334 C 0.26955 0.80698 0.772 0.0
C1335 C 0.28499 0.82087 0.76167 0.0
C1336 C 0.23724 0.78575 0.76916 0.0
C1337 C 0.23695 0.76979 0.77283 0.0
C1338 C 0.22175 0.78656 0.77339 0.0
C1339 C 0.22154 0.80329 0.77131 0.0
C1340 C 0.23358 0.81817 0.78564 0.0
C1341 C 0.2334 0.83393 0.78348 0.0
C1342 C 0.22116 0.83495 0.76718 0.0
C1343 C 0.20904 0.8202 0.75304 0.0
C1344 C 0.20918 0.80441 0.75512 0.0
C1345 C 0.1725 0.71452 0.81976 0.0
C1346 C 0.1577 0.70844 0.8034 0.0
C1347 C 0.18804 0.72992 0.81362 0.0
C1348 C 0.18909 0.73946 0.79094 0.0
C1349 C 0.17421 0.73369 0.77494 0.0
C1350 C 0.15865 0.71828 0.78106 0.0
C1351 C 0.20584 0.75519 0.78346 0.0
C1352 C 0.2062 0.77121 0.7803 0.0
C1353 C 0.22142 0.75446 0.7797 0.0
C1354 C 0.22169 0.73776 0.7816 0.0
C1355 C 0.21049 0.72327 0.76589 0.0
C1356 C 0.21073 0.70753 0.76795 0.0
C1357 C 0.22221 0.70618 0.78549 0.0
C1358 C 0.23353 0.72057 0.80096 0.0
C1359 C 0.23332 0.73634 0.79901 0.0
H1360 H 0.22238 0.69398 0.78705 0.0
H1361 H 0.22104 0.84717 0.76554 0.0
H1362 H 0.44567 0.29283 0.77497 0.0
H1363 H 0.44247 0.26542 0.79226 0.0
H1364 H 0.42953 0.24261 0.71475 0.0
H1365 H 0.43256 0.26987 0.6973 0.0
H1366 H 0.409 0.21917 0.75352 0.0
H1367 H 0.47046 0.25982 0.73626 0.0
H1368 H 0.49809 0.28808 0.74052 0.0
H1369 H 0.4976 0.28079 0.82397 0.0
H1370 H 0.46982 0.25258 0.82024 0.0
H1371 H 0.43127 0.15205 0.76061 0.0
H1372 H 0.42783 0.17728 0.75009 0.0
H1373 H 0.44585 0.19829 0.82774 0.0
H1374 H 0.4497 0.17332 0.8382 0.0
H1375 H 0.46248 0.22271 0.79227 0.0
H1376 H 0.40243 0.18082 0.80955 0.0
H1377 H 0.37466 0.15268 0.80572 0.0
H1378 H 0.37204 0.16207 0.72353 0.0
H1379 H 0.39993 0.19017 0.72678 0.0
C1380 C 0.44195 0.28192 0.76165 0.0
C1381 C 0.43955 0.28358 0.73472 0.0
C1382 C 0.44015 0.26629 0.77156 0.0
C1383 C 0.43597 0.2521 0.75469 0.0
C1384 C 0.43278 0.25344 0.72805 0.0
C1385 C 0.43461 0.26906 0.71811 0.0
C1386 C 0.43601 0.23627 0.76438 0.0
C1387 C 0.4207 0.21987 0.76185 0.0
C1388 C 0.45118 0.23733 0.77578 0.0
C1389 C 0.46797 0.2542 0.77801 0.0
C1390 C 0.47618 0.26431 0.75554 0.0
C1391 C 0.49188 0.28031 0.75785 0.0
C1392 C 0.49957 0.28626 0.78251 0.0
C1393 C 0.49161 0.27618 0.80489 0.0
C1394 C 0.4759 0.26019 0.80269 0.0
C1395 C 0.43434 0.16196 0.77552 0.0
C1396 C 0.44083 0.16073 0.80019 0.0
C1397 C 0.43228 0.17632 0.76954 0.0
C1398 C 0.43643 0.18959 0.78822 0.0
C1399 C 0.44257 0.1882 0.81303 0.0
C1400 C 0.44475 0.17392 0.81897 0.0
C1401 C 0.43546 0.20546 0.78133 0.0
C1402 C 0.45066 0.22193 0.78428 0.0
C1403 C 0.42016 0.20443 0.77042 0.0
C1404 C 0.40336 0.18754 0.76837 0.0
C1405 C 0.39601 0.17682 0.79061 0.0
C1406 C 0.38023 0.16089 0.78855 0.0
C1407 C 0.37161 0.15557 0.76439 0.0
C1408 C 0.37874 0.1662 0.74224 0.0
C1409 C 0.39452 0.18214 0.74418 0.0
H1410 H 0.35939 0.14323 0.76284 0.0
H1411 H 0.51172 0.29865 0.78426 0.0
H1412 H 0.15984 0.42335 0.6867 0.0
H1413 H 0.18481 0.42358 0.70808 0.0
H1414 H 0.18216 0.45489 0.77126 0.0
H1415 H 0.15738 0.45502 0.74975 0.0
H1416 H 0.21473 0.46852 0.75377 0.0
H1417 H 0.16959 0.41136 0.78019 0.0
H1418 H 0.14445 0.38147 0.77413 0.0
H1419 H 0.17588 0.36831 0.72493 0.0
H1420 H 0.20116 0.39822 0.7304 0.0
H1421 H 0.27849 0.46408 0.83295 0.0
H1422 H 0.25028 0.45989 0.81775 0.0
H1423 H 0.2522 0.43084 0.75077 0.0
H1424 H 0.28034 0.43479 0.76597 0.0
H1425 H 0.21935 0.41559 0.77248 0.0
H1426 H 0.26377 0.47323 0.74415 0.0
H1427 H 0.28892 0.50314 0.75016 0.0
H1428 H 0.25848 0.51527 0.8032 0.0
H1429 H 0.23321 0.48533 0.79778 0.0
C1430 C 0.16445 0.43015 0.70527 0.0
C1431 C 0.15666 0.43922 0.71648 0.0
C1432 C 0.17868 0.43019 0.71754 0.0
C1433 C 0.18526 0.43913 0.74139 0.0
C1434 C 0.17728 0.44791 0.75287 0.0
C1435 C 0.1631 0.44794 0.74057 0.0
C1436 C 0.20111 0.44022 0.75351 0.0
C1437 C 0.21561 0.45693 0.75831 0.0
C1438 C 0.2024 0.42511 0.75882 0.0
C1439 C 0.18723 0.40709 0.75553 0.0
C1440 C 0.17111 0.40214 0.76791 0.0
C1441 C 0.15683 0.38519 0.76461 0.0
C1442 C 0.15855 0.37301 0.74911 0.0
C1443 C 0.17456 0.37776 0.73692 0.0
C1444 C 0.18887 0.39471 0.74013 0.0
C1445 C 0.27288 0.45671 0.81506 0.0
C1446 C 0.28172 0.44989 0.80055 0.0
C1447 C 0.25677 0.45436 0.80639 0.0
C1448 C 0.24928 0.44524 0.78297 0.0
C1449 C 0.25779 0.43794 0.76887 0.0
C1450 C 0.2739 0.44027 0.77754 0.0
C1451 C 0.23289 0.44386 0.77267 0.0
C1452 C 0.21835 0.42714 0.76814 0.0
C1453 C 0.23152 0.45895 0.76761 0.0
C1454 C 0.24667 0.47699 0.77077 0.0
C1455 C 0.26248 0.48223 0.75726 0.0
C1456 C 0.27675 0.4992 0.76053 0.0
C1457 C 0.27531 0.51108 0.77711 0.0
C1458 C 0.25958 0.50604 0.79039 0.0
C1459 C 0.24528 0.48908 0.78722 0.0
H1460 H 0.28637 0.52421 0.77961 0.0
H1461 H 0.14748 0.35989 0.74658 0.0
H1462 H 0.84308 0.28188 0.77838 0.0
H1463 H 0.81727 0.25464 0.76408 0.0
H1464 H 0.78775 0.25759 0.82964 0.0
H1465 H 0.81351 0.28474 0.84422 0.0
H1466 H 0.78215 0.22429 0.82227 0.0
H1467 H 0.78251 0.27017 0.76997 0.0
H1468 H 0.79543 0.29548 0.73974 0.0
H1469 H 0.80212 0.26421 0.68107 0.0
H1470 H 0.78946 0.23877 0.71111 0.0
H1471 H 0.69506 0.16683 0.77915 0.0
H1472 H 0.72266 0.19161 0.79457 0.0
H1473 H 0.74884 0.18854 0.72475 0.0
H1474 H 0.72119 0.16399 0.7089 0.0
H1475 H 0.75707 0.2213 0.73384 0.0
H1476 H 0.75547 0.17492 0.78507 0.0
H1477 H 0.74264 0.14955 0.81517 0.0
H1478 H 0.73848 0.18136 0.87559 0.0
H1479 H 0.75106 0.20687 0.84572 0.0
C1480 C 0.83112 0.2767 0.78982 0.0
C1481 C 0.8303 0.28552 0.81235 0.0
C1482 C 0.81638 0.26117 0.78158 0.0
C1483 C 0.80058 0.25423 0.79568 0.0
C1484 C 0.79984 0.26276 0.8185 0.0
C1485 C 0.81455 0.27831 0.82673 0.0
C1486 C 0.78467 0.23827 0.78633 0.0
C1487 C 0.77654 0.22366 0.80304 0.0
C1488 C 0.77766 0.23737 0.761 0.0
C1489 C 0.78521 0.25263 0.74289 0.0
C1490 C 0.78687 0.26873 0.7507 0.0
C1491 C 0.79412 0.28309 0.73359 0.0
C1492 C 0.79964 0.28147 0.70853 0.0
C1493 C 0.79787 0.26546 0.70051 0.0
C1494 C 0.79065 0.25107 0.71756 0.0
C1495 C 0.70671 0.17134 0.76716 0.0
C1496 C 0.70594 0.16347 0.74279 0.0
C1497 C 0.7225 0.18545 0.77606 0.0
C1498 C 0.73785 0.1918 0.76093 0.0
C1499 C 0.73715 0.18384 0.73673 0.0
C1500 C 0.72135 0.1698 0.72774 0.0
C1501 C 0.75445 0.20725 0.7698 0.0
C1502 C 0.76272 0.22182 0.753 0.0
C1503 C 0.76159 0.20808 0.79503 0.0
C1504 C 0.75406 0.19277 0.81307 0.0
C1505 C 0.75169 0.17647 0.80471 0.0
C1506 C 0.74449 0.16207 0.82174 0.0
C1507 C 0.73971 0.16383 0.84725 0.0
C1508 C 0.74217 0.18001 0.85581 0.0
C1509 C 0.74935 0.19445 0.83885 0.0
H1510 H 0.73414 0.15267 0.86041 0.0
H1511 H 0.80525 0.2926 0.69531 0.0
H1512 H 0.46997 0.12705 0.09953 0.0
H1513 H 0.4702 0.12609 0.05163 0.0
H1514 H 0.42267 0.07558 0.05273 0.0
H1515 H 0.42206 0.07668 0.10069 0.0
H1516 H 0.47286 0.10525 0.0177 0.0
H1517 H 0.39805 0.07156 -0.00087 0.0
H1518 H 0.37148 0.06877 0.02019 0.0
H1519 H 0.40273 0.11826 0.05906 0.0
H1520 H 0.42944 0.12145 0.03798 0.0
H1521 H 0.45571 0.08142 0.88303 0.0
H1522 H 0.45462 0.08045 0.93104 0.0
H1523 H 0.44077 0.12112 0.93172 0.0
H1524 H 0.44149 0.12194 0.88383 0.0
H1525 H 0.42125 0.09627 0.96577 0.0
H1526 H 0.48261 0.13036 0.94508 0.0
H1527 H 0.51025 0.13639 0.92371 0.0
H1528 H 0.50805 0.09218 0.96319 0.0
H1529 H 0.48024 0.08573 0.98452 0.0
C1530 C 0.45955 0.11573 0.08959 0.0
C1531 C 0.44592 0.10199 0.10388 0.0
C1532 C 0.45974 0.11517 0.06221 0.0
C1533 C 0.44637 0.10085 0.04858 0.0
C1534 C 0.43296 0.08691 0.06282 0.0
C1535 C 0.43265 0.08754 0.09023 0.0
C1536 C 0.4464 0.10069 0.01946 0.0
C1537 C 0.46155 0.10323 0.00635 0.0
C1538 C 0.43175 0.09832 0.00463 0.0
C1539 C 0.41575 0.09664 0.01719 0.0
C1540 C 0.39923 0.08187 0.01211 0.0
C1541 C 0.38415 0.08021 0.02406 0.0
C1542 C 0.38542 0.0933 0.04102 0.0
C1543 C 0.40177 0.1081 0.046 0.0
C1544 C 0.41689 0.10983 0.03408 0.0
C1545 C 0.45241 0.09014 0.8934 0.0
C1546 C 0.44873 0.10179 0.87963 0.0
C1547 C 0.45184 0.0896 0.92083 0.0
C1548 C 0.44777 0.10083 0.93495 0.0
C1549 C 0.4439 0.11232 0.92122 0.0
C1550 C 0.44438 0.1128 0.89383 0.0
C1551 C 0.44768 0.10079 0.96404 0.0
C1552 C 0.43251 0.09817 0.97713 0.0
C1553 C 0.46247 0.10354 0.97884 0.0
C1554 C 0.47925 0.10746 0.96618 0.0
C1555 C 0.48795 0.12184 0.94906 0.0
C1556 C 0.50366 0.12535 0.93697 0.0
C1557 C 0.51088 0.11464 0.94203 0.0
C1558 C 0.50242 0.10044 0.95925 0.0
C1559 C 0.4867 0.09686 0.97136 0.0
H1560 H 0.52304 0.11738 0.93265 0.0
H1561 H 0.37374 0.09198 0.05027 0.0
H1562 H 0.3213 0.44765 0.89198 0.0
H1563 H 0.32242 0.44967 0.93982 0.0
H1564 H 0.37792 0.48714 0.93628 0.0
H1565 H 0.37698 0.48502 0.88834 0.0
H1566 H 0.37065 0.4626 0.97345 0.0
H1567 H 0.34873 0.50068 0.94908 0.0
H1568 H 0.32909 0.50894 0.92652 0.0
H1569 H 0.28478 0.46849 0.96805 0.0
H1570 H 0.30412 0.45981 0.99059 0.0
H1571 H 0.37772 0.48791 0.10752 0.0
H1572 H 0.37817 0.48877 0.05952 0.0
H1573 H 0.32274 0.45088 0.05778 0.0
H1574 H 0.32211 0.4501 0.10574 0.0
H1575 H 0.3311 0.47724 0.0232 0.0
H1576 H 0.35276 0.43835 0.04597 0.0
H1577 H 0.37227 0.42985 0.06836 0.0
H1578 H 0.41702 0.4718 0.02971 0.0
H1579 H 0.39779 0.48069 0.00735 0.0
C1580 C 0.33376 0.45633 0.90134 0.0
C1581 C 0.34905 0.46621 0.88634 0.0
C1582 C 0.33435 0.45753 0.92869 0.0
C1583 C 0.35021 0.46872 0.94157 0.0
C1584 C 0.36554 0.47846 0.9267 0.0
C1585 C 0.36497 0.47726 0.89931 0.0
C1586 C 0.35079 0.47005 0.9706 0.0
C1587 C 0.36221 0.46608 0.98433 0.0
C1588 C 0.33952 0.47424 0.98476 0.0
C1589 C 0.32786 0.4795 0.97135 0.0
C1590 C 0.33478 0.49346 0.95326 0.0
C1591 C 0.3237 0.49823 0.9405 0.0
C1592 C 0.30569 0.48922 0.9458 0.0
C1593 C 0.29873 0.47545 0.96394 0.0
C1594 C 0.30974 0.47061 0.97673 0.0
C1595 C 0.36561 0.47979 0.09694 0.0
C1596 C 0.3499 0.46886 0.11045 0.0
C1597 C 0.36591 0.48026 0.06951 0.0
C1598 C 0.35053 0.46974 0.05511 0.0
C1599 C 0.33476 0.45909 0.06854 0.0
C1600 C 0.33444 0.45861 0.09595 0.0
C1601 C 0.35086 0.46966 0.02603 0.0
C1602 C 0.33961 0.47386 0.0123 0.0
C1603 C 0.36228 0.46567 0.01187 0.0
C1604 C 0.37386 0.4603 0.02521 0.0
C1605 C 0.36678 0.44585 0.04241 0.0
C1606 C 0.37778 0.44094 0.05507 0.0
C1607 C 0.39588 0.45031 0.05052 0.0
C1608 C 0.40301 0.46457 0.03325 0.0
C1609 C 0.39206 0.46954 0.02056 0.0
H1610 H 0.40438 0.44649 0.06034 0.0
H1611 H 0.29714 0.49294 0.9359 0.0
H1612 H 0.91896 0.36733 0.90547 0.0
H1613 H 0.91767 0.36797 0.95335 0.0
H1614 H 0.8692 0.31828 0.95265 0.0
H1615 H 0.87016 0.31776 0.90472 0.0
H1616 H 0.86643 0.34051 0.98418 0.0
H1617 H 0.90857 0.3217 0.97205 0.0
H1618 H 0.93536 0.32308 0.95438 0.0
H1619 H 0.96709 0.37319 0.99134 0.0
H1620 H 0.94047 0.37221 0.00895 0.0
H1621 H 0.86421 0.32596 0.12205 0.0
H1622 H 0.86547 0.3232 0.0744 0.0
H1623 H 0.91291 0.37371 0.07137 0.0
H1624 H 0.91192 0.37645 0.11896 0.0
H1625 H 0.91584 0.34993 0.04196 0.0
H1626 H 0.87347 0.36896 0.05288 0.0
H1627 H 0.84662 0.36744 0.07052 0.0
H1628 H 0.81521 0.31652 0.03576 0.0
H1629 H 0.84192 0.31763 0.0182 0.0
C1630 C 0.90809 0.35647 0.91551 0.0
C1631 C 0.89467 0.34249 0.90131 0.0
C1632 C 0.90741 0.35682 0.94289 0.0
C1633 C 0.89343 0.34308 0.95661 0.0
C1634 C 0.8801 0.32903 0.94247 0.0
C1635 C 0.8807 0.32873 0.91508 0.0
C1636 C 0.89236 0.34366 0.98562 0.0
C1637 C 0.87713 0.34228 0.99683 0.0
C1638 C 0.90647 0.34636 0.0021 0.0
C1639 C 0.92251 0.34695 0.99163 0.0
C1640 C 0.92125 0.33307 0.97625 0.0
C1641 C 0.93641 0.33377 0.96627 0.0
C1642 C 0.95291 0.34823 0.97168 0.0
C1643 C 0.9543 0.362 0.98714 0.0
C1644 C 0.93918 0.36137 0.99715 0.0
C1645 C 0.87489 0.3365 0.11123 0.0
C1646 C 0.88795 0.35145 0.12428 0.0
C1647 C 0.87556 0.33492 0.084 0.0
C1648 C 0.8892 0.34832 0.06933 0.0
C1649 C 0.90228 0.36321 0.08233 0.0
C1650 C 0.90165 0.36478 0.10953 0.0
C1651 C 0.88995 0.34684 0.04044 0.0
C1652 C 0.90512 0.34806 0.02927 0.0
C1653 C 0.87578 0.34396 0.024 0.0
C1654 C 0.85971 0.3433 0.03446 0.0
C1655 C 0.86085 0.35738 0.04917 0.0
C1656 C 0.84566 0.3566 0.05912 0.0
C1657 C 0.82922 0.34187 0.05433 0.0
C1658 C 0.82795 0.32791 0.0395 0.0
C1659 C 0.84311 0.32861 0.02952 0.0
H1660 H 0.81747 0.3413 0.06205 0.0
H1661 H 0.96463 0.34875 0.96394 0.0
H1662 H 0.58132 0.90096 0.1042 0.0
H1663 H 0.57984 0.89925 0.05619 0.0
H1664 H 0.52546 0.85855 0.06052 0.0
H1665 H 0.52674 0.86029 0.10853 0.0
H1666 H 0.54584 0.85132 0.02482 0.0
H1667 H 0.53285 0.89687 0.04575 0.0
H1668 H 0.53804 0.92432 0.06678 0.0
H1669 H 0.5867 0.9532 0.02486 0.0
H1670 H 0.58193 0.92585 0.00386 0.0
H1671 H 0.53094 0.88313 0.88951 0.0
H1672 H 0.53074 0.88327 0.93747 0.0
H1673 H 0.57113 0.86905 0.93854 0.0
H1674 H 0.57126 0.86864 0.89052 0.0
H1675 H 0.55608 0.903 0.9719 0.0
H1676 H 0.56473 0.84312 0.99216 0.0
H1677 H 0.55786 0.81506 0.97131 0.0
H1678 H 0.51429 0.81358 0.93084 0.0
H1679 H 0.52076 0.84151 0.95171 0.0
C1680 C 0.56906 0.89161 0.09494 0.0
C1681 C 0.55413 0.88079 0.1101 0.0
C1682 C 0.56824 0.89069 0.06755 0.0
C1683 C 0.55253 0.87882 0.05492 0.0
C1684 C 0.5377 0.86778 0.06998 0.0
C1685 C 0.53844 0.86885 0.09736 0.0
C1686 C 0.55152 0.87813 0.02594 0.0
C1687 C 0.5481 0.8626 0.0132 0.0
C1688 C 0.55423 0.89281 0.01093 0.0
C1689 C 0.55712 0.90928 0.02345 0.0
C1690 C 0.54474 0.90905 0.0412 0.0
C1691 C 0.54759 0.92459 0.05307 0.0
C1692 C 0.56272 0.94049 0.04721 0.0
C1693 C 0.575 0.94087 0.02941 0.0
C1694 C 0.57222 0.92535 0.0175 0.0
C1695 C 0.53975 0.87998 0.89992 0.0
C1696 C 0.55108 0.87582 0.8862 0.0
C1697 C 0.53965 0.88012 0.92733 0.0
C1698 C 0.55081 0.87604 0.94155 0.0
C1699 C 0.56223 0.872 0.92793 0.0
C1700 C 0.56232 0.87183 0.90049 0.0
C1701 C 0.55062 0.87623 0.97063 0.0
C1702 C 0.55386 0.8917 0.98345 0.0
C1703 C 0.54753 0.86142 0.9857 0.0
C1704 C 0.54335 0.84449 0.97331 0.0
C1705 C 0.55364 0.83676 0.97889 0.0
C1706 C 0.54983 0.82089 0.96706 0.0
C1707 C 0.53569 0.81257 0.9497 0.0
C1708 C 0.52528 0.82008 0.94421 0.0
C1709 C 0.52903 0.83594 0.95601 0.0
H1710 H 0.53277 0.80029 0.94054 0.0
H1711 H 0.5649 0.95251 0.05642 0.0
H1712 H 0.66344 0.52931 0.10381 0.0
H1713 H 0.66536 0.52974 0.05594 0.0
H1714 H 0.6876 0.58599 0.05622 0.0
H1715 H 0.68561 0.58568 0.10417 0.0
H1716 H 0.66159 0.57021 0.0202 0.0
H1717 H 0.7134 0.56871 0.04401 0.0
H1718 H 0.73081 0.55781 0.06681 0.0
H1719 H 0.70116 0.50789 0.02839 0.0
H1720 H 0.68339 0.51842 0.00562 0.0
H1721 H 0.68649 0.58224 0.88577 0.0
H1722 H 0.68801 0.58372 0.93371 0.0
H1723 H 0.66386 0.52732 0.9376 0.0
H1724 H 0.66232 0.5257 0.88963 0.0
H1725 H 0.69212 0.54436 0.97141 0.0
H1726 H 0.63963 0.54567 0.94903 0.0
H1727 H 0.62238 0.55672 0.9261 0.0
H1728 H 0.65366 0.6073 0.96197 0.0
H1729 H 0.67128 0.59662 0.98482 0.0
C1730 C 0.66882 0.54179 0.09373 0.0
C1731 C 0.6744 0.55747 0.1078 0.0
C1732 C 0.66997 0.54202 0.06637 0.0
C1733 C 0.67678 0.55792 0.05257 0.0
C1734 C 0.68234 0.57359 0.06653 0.0
C1735 C 0.68124 0.57339 0.09392 0.0
C1736 C 0.67757 0.55807 0.02351 0.0
C1737 C 0.66851 0.56483 0.00952 0.0
C1738 C 0.68629 0.5507 0.00964 0.0
C1739 C 0.69695 0.54431 0.02329 0.0
C1740 C 0.71049 0.55536 0.04059 0.0
C1741 C 0.72044 0.54926 0.05348 0.0
C1742 C 0.71707 0.53215 0.0491 0.0
C1743 C 0.70375 0.52113 0.03178 0.0
C1744 C 0.69374 0.52717 0.01886 0.0
C1745 C 0.68156 0.57015 0.8968 0.0
C1746 C 0.67421 0.55384 0.88391 0.0
C1747 C 0.6824 0.57102 0.92418 0.0
C1748 C 0.67591 0.55562 0.93915 0.0
C1749 C 0.66893 0.53936 0.92636 0.0
C1750 C 0.668 0.53846 0.89897 0.0
C1751 C 0.67608 0.55642 0.96818 0.0
C1752 C 0.68529 0.54983 0.98213 0.0
C1753 C 0.66752 0.56397 0.98203 0.0
C1754 C 0.65689 0.5704 0.96841 0.0
C1755 C 0.64293 0.55919 0.95186 0.0
C1756 C 0.63307 0.56538 0.9389 0.0
C1757 C 0.63695 0.58271 0.94252 0.0
C1758 C 0.65068 0.59388 0.95915 0.0
C1759 C 0.6606 0.58777 0.97212 0.0
H1760 H 0.6293 0.58748 0.93247 0.0
H1761 H 0.72479 0.52745 0.05909 0.0
H1762 H 0.07913 0.61528 0.88329 0.0
H1763 H 0.08069 0.61347 0.93111 0.0
H1764 H 0.11295 0.66988 0.93534 0.0
H1765 H 0.11173 0.67178 0.8877 0.0
H1766 H 0.12649 0.65454 0.96444 0.0
H1767 H 0.06936 0.64855 0.95287 0.0
H1768 H 0.03927 0.63539 0.93521 0.0
H1769 H 0.02614 0.58592 0.97041 0.0
H1770 H 0.05624 0.59874 0.988 0.0
H1771 H 0.12056 0.67233 0.0978 0.0
H1772 H 0.11779 0.66993 0.05008 0.0
H1773 H 0.0899 0.61342 0.05607 0.0
H1774 H 0.09257 0.61568 0.10401 0.0
H1775 H 0.07395 0.62606 0.02199 0.0
H1776 H 0.13093 0.63315 0.03619 0.0
H1777 H 0.16088 0.64698 0.0545 0.0
H1778 H 0.17423 0.69509 0.01461 0.0
H1779 H 0.14426 0.68162 0.99635 0.0
C1780 C 0.08647 0.6273 0.89443 0.0
C1781 C 0.09531 0.64367 0.8817 0.0
C1782 C 0.08731 0.62625 0.92175 0.0
C1783 C 0.09686 0.64156 0.9368 0.0
C1784 C 0.10556 0.6579 0.92411 0.0
C1785 C 0.10479 0.65896 0.89686 0.0
C1786 C 0.0982 0.64066 0.96571 0.0
C1787 C 0.115 0.64846 0.97703 0.0
C1788 C 0.08319 0.63228 0.98207 0.0
C1789 C 0.06511 0.62455 0.97149 0.0
C1790 C 0.0601 0.63482 0.95665 0.0
C1791 C 0.04304 0.62744 0.94669 0.0
C1792 C 0.03082 0.60982 0.95162 0.0
C1793 C 0.03563 0.59956 0.96657 0.0
C1794 C 0.05268 0.60688 0.97655 0.0
C1795 C 0.11386 0.65938 0.08902 0.0
C1796 C 0.10681 0.64419 0.10469 0.0
C1797 C 0.11234 0.65804 0.06174 0.0
C1798 C 0.10377 0.6415 0.04959 0.0
C1799 C 0.09659 0.6263 0.06512 0.0
C1800 C 0.09819 0.62762 0.09247 0.0
C1801 C 0.10222 0.64023 0.02063 0.0
C1802 C 0.08542 0.632 0.00934 0.0
C1803 C 0.11721 0.64829 0.00426 0.0
C1804 C 0.1353 0.65641 0.01507 0.0
C1805 C 0.14021 0.64672 0.03148 0.0
C1806 C 0.1572 0.65449 0.04182 0.0
C1807 C 0.16944 0.67192 0.03577 0.0
C1808 C 0.16473 0.6816 0.0193 0.0
C1809 C 0.14775 0.6739 0.00892 0.0
H1810 H 0.18259 0.67791 0.0438 0.0
H1811 H 0.01761 0.60412 0.9439 0.0
H1812 H 0.91136 0.53246 0.61486 0.0
H1813 H 0.91253 0.53258 0.56683 0.0
H1814 H 0.8673 0.53947 0.56344 0.0
H1815 H 0.86585 0.5391 0.61129 0.0
H1816 H 0.8652 0.51599 0.52742 0.0
H1817 H 0.90881 0.57419 0.55678 0.0
H1818 H 0.93489 0.59505 0.58216 0.0
H1819 H 0.96618 0.57758 0.54149 0.0
H1820 H 0.9402 0.55641 0.51612 0.0
H1821 H 0.86868 0.5524 0.404 0.0
H1822 H 0.86994 0.54831 0.45115 0.0
H1823 H 0.91448 0.54096 0.44003 0.0
H1824 H 0.91344 0.54519 0.39263 0.0
H1825 H 0.91858 0.56214 0.48261 0.0
H1826 H 0.87555 0.50598 0.45009 0.0
H1827 H 0.84943 0.48504 0.4249 0.0
H1828 H 0.81707 0.49836 0.47158 0.0
H1829 H 0.84306 0.5196 0.49679 0.0
C1830 C 0.90158 0.53386 0.60388 0.0
C1831 C 0.88858 0.53588 0.61687 0.0
C1832 C 0.9023 0.53398 0.57645 0.0
C1833 C 0.89013 0.53625 0.56162 0.0
C1834 C 0.87682 0.53772 0.57454 0.0
C1835 C 0.87606 0.53755 0.6019 0.0
C1836 C 0.89147 0.53771 0.53264 0.0
C1837 C 0.87682 0.52614 0.51762 0.0
C1838 C 0.90684 0.55064 0.51987 0.0
C1839 C 0.92253 0.56359 0.53475 0.0
C1840 C 0.92123 0.57472 0.55336 0.0
C1841 C 0.93599 0.5866 0.56774 0.0
C1842 C 0.95217 0.5876 0.56349 0.0
C1843 C 0.95363 0.57677 0.54479 0.0
C1844 C 0.9389 0.56483 0.53039 0.0
C1845 C 0.87882 0.55 0.41153 0.0
C1846 C 0.8909 0.54902 0.39454 0.0
C1847 C 0.87947 0.54759 0.43848 0.0
C1848 C 0.89214 0.54407 0.44899 0.0
C1849 C 0.90456 0.54358 0.43224 0.0
C1850 C 0.90391 0.54597 0.40519 0.0
C1851 C 0.89214 0.54069 0.47747 0.0
C1852 C 0.90703 0.55185 0.49238 0.0
C1853 C 0.877 0.52737 0.49017 0.0
C1854 C 0.86129 0.51448 0.47521 0.0
C1855 C 0.86289 0.50454 0.45487 0.0
C1856 C 0.8481 0.49261 0.4406 0.0
C1857 C 0.83161 0.4904 0.44661 0.0
C1858 C 0.82986 0.50009 0.46694 0.0
C1859 C 0.84461 0.51207 0.48125 0.0
H1860 H 0.82017 0.48115 0.43553 0.0
H1861 H 0.96359 0.59681 0.57463 0.0
H1862 H 0.32175 0.85675 0.60262 0.0
H1863 H 0.32068 0.85664 0.55474 0.0
H1864 H 0.29768 0.88996 0.55679 0.0
H1865 H 0.29841 0.88991 0.60484 0.0
H1866 H 0.28179 0.86412 0.5206 0.0
H1867 H 0.3409 0.90722 0.54333 0.0
H1868 H 0.36946 0.91846 0.56557 0.0
H1869 H 0.37756 0.87997 0.52594 0.0
H1870 H 0.34892 0.86833 0.50373 0.0
H1871 H 0.299 0.89037 0.38626 0.0
H1872 H 0.29753 0.88964 0.43422 0.0
H1873 H 0.32175 0.85738 0.436 0.0
H1874 H 0.32359 0.85834 0.38812 0.0
H1875 H 0.33686 0.88347 0.4704 0.0
H1876 H 0.27752 0.84017 0.44794 0.0
H1877 H 0.24891 0.82894 0.42585 0.0
H1878 H 0.24127 0.86793 0.46482 0.0
H1879 H 0.26996 0.87955 0.48688 0.0
C1880 C 0.3164 0.86402 0.59293 0.0
C1881 C 0.31027 0.87345 0.60753 0.0
C1882 C 0.31586 0.86398 0.56555 0.0
C1883 C 0.30935 0.87352 0.55223 0.0
C1884 C 0.3028 0.88257 0.56672 0.0
C1885 C 0.30327 0.88256 0.59416 0.0
C1886 C 0.30968 0.87423 0.52316 0.0
C1887 C 0.29386 0.86857 0.50959 0.0
C1888 C 0.32539 0.87975 0.50886 0.0
C1889 C 0.34269 0.8868 0.52205 0.0
C1890 C 0.34871 0.90107 0.5395 0.0
C1891 C 0.36492 0.90753 0.55208 0.0
C1892 C 0.3753 0.89991 0.54722 0.0
C1893 C 0.3695 0.88584 0.52971 0.0
C1894 C 0.35329 0.87932 0.5171 0.0
C1895 C 0.30392 0.88304 0.39685 0.0
C1896 C 0.31141 0.87441 0.3834 0.0
C1897 C 0.303 0.88257 0.42426 0.0
C1898 C 0.30938 0.87332 0.43866 0.0
C1899 C 0.31675 0.86461 0.42526 0.0
C1900 C 0.31776 0.86514 0.39789 0.0
C1901 C 0.30893 0.87317 0.46776 0.0
C1902 C 0.32478 0.87901 0.48137 0.0
C1903 C 0.29324 0.86784 0.48205 0.0
C1904 C 0.27597 0.86084 0.46886 0.0
C1905 C 0.26981 0.84644 0.45164 0.0
C1906 C 0.25356 0.83999 0.43916 0.0
C1907 C 0.2433 0.84775 0.44388 0.0
C1908 C 0.24924 0.86195 0.46115 0.0
C1909 C 0.26548 0.86846 0.47367 0.0
H1910 H 0.23073 0.84274 0.43419 0.0
H1911 H 0.38784 0.90492 0.55698 0.0
H1912 H 0.40995 0.3058 0.59727 0.0
H1913 H 0.41113 0.3052 0.54939 0.0
H1914 H 0.46757 0.32932 0.55256 0.0
H1915 H 0.46654 0.33026 0.6005 0.0
H1916 H 0.45783 0.34447 0.51585 0.0
H1917 H 0.44187 0.28562 0.53926 0.0
H1918 H 0.42455 0.257 0.56132 0.0
H1919 H 0.37827 0.24832 0.5201 0.0
H1920 H 0.39526 0.27701 0.49805 0.0
H1921 H 0.46764 0.32846 0.38157 0.0
H1922 H 0.46807 0.32808 0.4296 0.0
H1923 H 0.41181 0.30576 0.4311 0.0
H1924 H 0.41122 0.30592 0.38314 0.0
H1925 H 0.42259 0.2894 0.46543 0.0
H1926 H 0.43852 0.34881 0.44334 0.0
H1927 H 0.45595 0.37741 0.42127 0.0
H1928 H 0.50257 0.38488 0.46008 0.0
H1929 H 0.48544 0.3562 0.48211 0.0
C1930 C 0.42262 0.31094 0.58781 0.0
C1931 C 0.43815 0.31803 0.60269 0.0
C1932 C 0.42326 0.31052 0.56044 0.0
C1933 C 0.43942 0.31701 0.54743 0.0
C1934 C 0.45496 0.32421 0.56222 0.0
C1935 C 0.45434 0.32469 0.58961 0.0
C1936 C 0.4401 0.31656 0.51837 0.0
C1937 C 0.45034 0.33238 0.50483 0.0
C1938 C 0.43006 0.30083 0.50401 0.0
C1939 C 0.41981 0.28354 0.51718 0.0
C1940 C 0.42797 0.27767 0.53504 0.0
C1941 C 0.41822 0.26143 0.54752 0.0
C1942 C 0.40031 0.25087 0.54216 0.0
C1943 C 0.39213 0.25652 0.52425 0.0
C1944 C 0.40182 0.27276 0.51174 0.0
C1945 C 0.45535 0.32343 0.39211 0.0
C1946 C 0.4394 0.31728 0.37855 0.0
C1947 C 0.45563 0.32328 0.41955 0.0
C1948 C 0.43998 0.31705 0.43388 0.0
C1949 C 0.42402 0.31063 0.42039 0.0
C1950 C 0.42373 0.31079 0.39298 0.0
C1951 C 0.44021 0.31731 0.46296 0.0
C1952 C 0.43014 0.30146 0.47648 0.0
C1953 C 0.45043 0.33299 0.4773 0.0
C1954 C 0.46073 0.35028 0.46415 0.0
C1955 C 0.45251 0.35649 0.447 0.0
C1956 C 0.46233 0.37273 0.43453 0.0
C1957 C 0.48037 0.38294 0.43921 0.0
C1958 C 0.48861 0.37695 0.45644 0.0
C1959 C 0.47885 0.36071 0.46894 0.0
H1960 H 0.48795 0.39551 0.42954 0.0
H1961 H 0.39278 0.23829 0.55184 0.0
H1962 H 0.09777 0.41226 0.60541 0.0
H1963 H 0.09957 0.41317 0.55754 0.0
H1964 H 0.13677 0.46876 0.56049 0.0
H1965 H 0.13481 0.46803 0.60841 0.0
H1966 H 0.11194 0.4617 0.52486 0.0
H1967 H 0.14998 0.43916 0.54578 0.0
H1968 H 0.15856 0.41929 0.56678 0.0
H1969 H 0.11715 0.37535 0.52593 0.0
H1970 H 0.10816 0.39492 0.50495 0.0
H1971 H 0.13646 0.47017 0.39056 0.0
H1972 H 0.13753 0.46966 0.43849 0.0
H1973 H 0.09795 0.41477 0.4384 0.0
H1974 H 0.09685 0.4151 0.39041 0.0
H1975 H 0.12507 0.42205 0.47244 0.0
H1976 H 0.08661 0.44474 0.45275 0.0
H1977 H 0.07827 0.46478 0.43172 0.0
H1978 H 0.12105 0.50878 0.47041 0.0
H1979 H 0.1298 0.48902 0.4914 0.0
C1980 C 0.10643 0.42467 0.59591 0.0
C1981 C 0.11616 0.44007 0.61072 0.0
C1982 C 0.1075 0.42515 0.56853 0.0
C1983 C 0.11845 0.441 0.55546 0.0
C1984 C 0.12825 0.45638 0.5702 0.0
C1985 C 0.12715 0.45593 0.59758 0.0
C1986 C 0.11916 0.44163 0.52638 0.0
C1987 C 0.1151 0.45323 0.51341 0.0
C1988 C 0.1229 0.4303 0.51145 0.0
C1989 C 0.1283 0.41849 0.52398 0.0
C1990 C 0.14261 0.42524 0.54143 0.0
C1991 C 0.14756 0.41403 0.5533 0.0
C1992 C 0.13838 0.39606 0.54774 0.0
C1993 C 0.12424 0.38927 0.53024 0.0
C1994 C 0.11922 0.40041 0.51833 0.0
C1995 C 0.12801 0.45797 0.40071 0.0
C1996 C 0.1165 0.44269 0.38669 0.0
C1997 C 0.12861 0.45772 0.4281 0.0
C1998 C 0.1177 0.44222 0.44196 0.0
C1999 C 0.10646 0.42686 0.42803 0.0
C2000 C 0.10581 0.4271 0.40063 0.0
C2001 C 0.11781 0.44208 0.47103 0.0
C2002 C 0.12201 0.43056 0.48395 0.0
C2003 C 0.11425 0.45352 0.48593 0.0
C2004 C 0.10896 0.46542 0.47343 0.0
C2005 C 0.09432 0.45871 0.45661 0.0
C2006 C 0.08951 0.47001 0.44473 0.0
C2007 C 0.09915 0.48805 0.44967 0.0
C2008 C 0.11361 0.49481 0.46657 0.0
C2009 C 0.11849 0.48356 0.47848 0.0
H2010 H 0.09541 0.49678 0.44045 0.0
H2011 H 0.14223 0.38741 0.55695 0.0
H2012 H 0.70353 0.11269 0.3972 0.0
H2013 H 0.70324 0.11386 0.44516 0.0
H2014 H 0.65864 0.12177 0.44232 0.0
H2015 H 0.65893 0.12083 0.39438 0.0
H2016 H 0.68326 0.14412 0.47631 0.0
H2017 H 0.6534 0.08214 0.45873 0.0
H2018 H 0.64975 0.0548 0.43936 0.0
H2019 H 0.69553 0.06202 0.48053 0.0
H2020 H 0.69959 0.08955 0.49988 0.0
H2021 H 0.65644 0.12642 0.60925 0.0
H2022 H 0.65778 0.12549 0.56141 0.0
H2023 H 0.70223 0.11744 0.56696 0.0
H2024 H 0.70086 0.11813 0.61489 0.0
H2025 H 0.67848 0.09547 0.53165 0.0
H2026 H 0.70803 0.1572 0.54988 0.0
H2027 H 0.71161 0.18449 0.56932 0.0
H2028 H 0.66643 0.17777 0.52693 0.0
H2029 H 0.66243 0.15029 0.50751 0.0
C2030 C 0.69363 0.11465 0.40677 0.0
C2031 C 0.68122 0.11662 0.39198 0.0
C2032 C 0.69345 0.11525 0.43418 0.0
C2033 C 0.68082 0.11774 0.44729 0.0
C2034 C 0.66849 0.11983 0.43258 0.0
C2035 C 0.66865 0.11922 0.40518 0.0
C2036 C 0.68055 0.11838 0.47635 0.0
C2037 C 0.68199 0.1334 0.48842 0.0
C2038 C 0.67934 0.10456 0.49211 0.0
C2039 C 0.6769 0.088 0.48054 0.0
C2040 C 0.66277 0.07797 0.46348 0.0
C2041 C 0.66062 0.06243 0.45254 0.0
C2042 C 0.67243 0.0567 0.45866 0.0
C2043 C 0.68641 0.06649 0.47578 0.0
C2044 C 0.68863 0.08205 0.48676 0.0
C2045 C 0.66654 0.12449 0.60032 0.0
C2046 C 0.67859 0.12241 0.61587 0.0
C2047 C 0.66732 0.12403 0.57296 0.0
C2048 C 0.68023 0.1216 0.56064 0.0
C2049 C 0.69218 0.11936 0.5761 0.0
C2050 C 0.69141 0.11981 0.60348 0.0
C2051 C 0.68111 0.12118 0.53161 0.0
C2052 C 0.67979 0.10621 0.51954 0.0
C2053 C 0.68244 0.13505 0.51585 0.0
C2054 C 0.68484 0.1516 0.52743 0.0
C2055 C 0.69878 0.16147 0.54486 0.0
C2056 C 0.7009 0.17699 0.55585 0.0
C2057 C 0.68923 0.18284 0.54941 0.0
C2058 C 0.67544 0.17321 0.53192 0.0
C2059 C 0.67325 0.15767 0.5209 0.0
H2060 H 0.69089 0.19486 0.55794 0.0
H2061 H 0.67073 0.04466 0.45017 0.0
H2062 H 0.55039 0.67982 0.39952 0.0
H2063 H 0.55326 0.68051 0.44723 0.0
H2064 H 0.57236 0.64393 0.44279 0.0
H2065 H 0.56933 0.64298 0.39496 0.0
H2066 H 0.54729 0.63432 0.47962 0.0
H2067 H 0.60028 0.68669 0.45725 0.0
H2068 H 0.61869 0.71527 0.43564 0.0
H2069 H 0.59115 0.73687 0.47673 0.0
H2070 H 0.57239 0.70834 0.49832 0.0
H2071 H 0.56942 0.64334 0.61549 0.0
H2072 H 0.57203 0.64407 0.56762 0.0
H2073 H 0.55127 0.67927 0.56328 0.0
H2074 H 0.54874 0.67875 0.6111 0.0
H2075 H 0.57958 0.68947 0.53092 0.0
H2076 H 0.52526 0.63641 0.55048 0.0
H2077 H 0.50678 0.60777 0.57195 0.0
H2078 H 0.53717 0.58751 0.53586 0.0
H2079 H 0.55599 0.61612 0.51445 0.0
C2080 C 0.55532 0.672 0.40864 0.0
C2081 C 0.55962 0.66133 0.39344 0.0
C2082 C 0.55703 0.67248 0.43592 0.0
C2083 C 0.56319 0.66241 0.44852 0.0
C2084 C 0.56762 0.65184 0.43342 0.0
C2085 C 0.56591 0.65134 0.4061 0.0
C2086 C 0.56425 0.66238 0.47756 0.0
C2087 C 0.55463 0.64634 0.49084 0.0
C2088 C 0.57355 0.67811 0.49216 0.0
C2089 C 0.58482 0.69532 0.47924 0.0
C2090 C 0.59805 0.69749 0.46153 0.0
C2091 C 0.60857 0.7137 0.44931 0.0
C2092 C 0.60607 0.72787 0.45476 0.0
C2093 C 0.59306 0.72588 0.4725 0.0
C2094 C 0.58249 0.7097 0.48476 0.0
C2095 C 0.56546 0.65129 0.60437 0.0
C2096 C 0.55879 0.66093 0.61708 0.0
C2097 C 0.56692 0.65165 0.57702 0.0
C2098 C 0.5617 0.6616 0.56194 0.0
C2099 C 0.55538 0.67151 0.5746 0.0
C2100 C 0.55388 0.67114 0.60191 0.0
C2101 C 0.56246 0.66145 0.5329 0.0
C2102 C 0.57241 0.67745 0.51966 0.0
C2103 C 0.55348 0.64568 0.51832 0.0
C2104 C 0.54215 0.62846 0.53111 0.0
C2105 C 0.52809 0.62589 0.5473 0.0
C2106 C 0.51754 0.60966 0.55942 0.0
C2107 C 0.52083 0.59585 0.55533 0.0
C2108 C 0.53465 0.59823 0.53905 0.0
C2109 C 0.54526 0.61445 0.52691 0.0
H2110 H 0.51264 0.58329 0.56473 0.0
H2111 H 0.61423 0.74041 0.44529 0.0
H2112 H 0.51745 0.11221 0.1661 0.0
H2113 H 0.54364 0.11536 0.18783 0.0
H2114 H 0.53577 0.14254 0.25224 0.0
H2115 H 0.50945 0.13942 0.23067 0.0
H2116 H 0.5713 0.15767 0.23608 0.0
H2117 H 0.52298 0.10169 0.26105 0.0
H2118 H 0.49686 0.07268 0.25316 0.0
H2119 H 0.52796 0.05717 0.20763 0.0
H2120 H 0.55423 0.08619 0.21493 0.0
H2121 H 0.62828 0.14652 0.32475 0.0
H2122 H 0.60313 0.14689 0.30475 0.0
H2123 H 0.60382 0.11515 0.24063 0.0
H2124 H 0.62873 0.11452 0.26055 0.0
H2125 H 0.57118 0.10275 0.25907 0.0
H2126 H 0.61931 0.15898 0.23298 0.0
H2127 H 0.64534 0.18819 0.24003 0.0
H2128 H 0.61466 0.20333 0.28736 0.0
H2129 H 0.58849 0.17411 0.28088 0.0
C2130 C 0.52137 0.11903 0.18475 0.0
C2131 C 0.5113 0.12544 0.19677 0.0
C2132 C 0.53631 0.12077 0.19716 0.0
C2133 C 0.54147 0.129 0.22175 0.0
C2134 C 0.53193 0.13611 0.23329 0.0
C2135 C 0.51689 0.13426 0.22097 0.0
C2136 C 0.55638 0.12941 0.23584 0.0
C2137 C 0.57123 0.14569 0.24148 0.0
C2138 C 0.55628 0.11374 0.2425 0.0
C2139 C 0.54055 0.09618 0.23833 0.0
C2140 C 0.52423 0.09214 0.24919 0.0
C2141 C 0.50939 0.07569 0.24485 0.0
C2142 C 0.51074 0.06311 0.22984 0.0
C2143 C 0.52694 0.06693 0.21923 0.0
C2144 C 0.5418 0.08338 0.22348 0.0
C2145 C 0.62311 0.13967 0.30635 0.0
C2146 C 0.6305 0.13049 0.29425 0.0
C2147 C 0.60878 0.13995 0.29491 0.0
C2148 C 0.60169 0.13113 0.27112 0.0
C2149 C 0.60908 0.12201 0.25901 0.0
C2150 C 0.62336 0.12171 0.27041 0.0
C2151 C 0.58631 0.13104 0.25899 0.0
C2152 C 0.5713 0.11476 0.25379 0.0
C2153 C 0.58629 0.14672 0.25277 0.0
C2154 C 0.602 0.16429 0.25669 0.0
C2155 C 0.61815 0.16848 0.24508 0.0
C2156 C 0.63292 0.18505 0.24893 0.0
C2157 C 0.63167 0.19759 0.2642 0.0
C2158 C 0.61562 0.1936 0.27558 0.0
C2159 C 0.60082 0.17704 0.27181 0.0
H2160 H 0.64311 0.21041 0.26715 0.0
H2161 H 0.49924 0.05039 0.22645 0.0
H2162 H 0.50218 0.59607 0.31225 0.0
H2163 H 0.47377 0.57352 0.29527 0.0
H2164 H 0.46035 0.61323 0.27654 0.0
H2165 H 0.48871 0.63591 0.29372 0.0
H2166 H 0.43237 0.58364 0.2974 0.0
H2167 H 0.47472 0.5981 0.2294 0.0
H2168 H 0.50257 0.6033 0.20981 0.0
H2169 H 0.48815 0.54966 0.22447 0.0
H2170 H 0.46035 0.54421 0.24468 0.0
H2171 H 0.36286 0.52734 0.2086 0.0
H2172 H 0.38938 0.55204 0.2276 0.0
H2173 H 0.40767 0.5167 0.2506 0.0
H2174 H 0.38144 0.49211 0.23175 0.0
H2175 H 0.43304 0.54583 0.22554 0.0
H2176 H 0.39102 0.53217 0.29554 0.0
H2177 H 0.36332 0.52756 0.31497 0.0
H2178 H 0.37714 0.58039 0.29505 0.0
H2179 H 0.40483 0.58524 0.27517 0.0
C2180 C 0.49313 0.60002 0.30478 0.0
C2181 C 0.49775 0.6178 0.30415 0.0
C2182 C 0.47692 0.58712 0.29501 0.0
C2183 C 0.46508 0.59176 0.28432 0.0
C2184 C 0.46934 0.6094 0.28465 0.0
C2185 C 0.48557 0.62233 0.2944 0.0
C2186 C 0.44863 0.57825 0.2718 0.0
C2187 C 0.43249 0.57552 0.28144 0.0
C2188 C 0.44885 0.56762 0.2511 0.0
C2189 C 0.4655 0.57079 0.23878 0.0
C2190 C 0.47754 0.58744 0.22866 0.0
C2191 C 0.49332 0.59044 0.21743 0.0
C2192 C 0.49714 0.57683 0.21594 0.0
C2193 C 0.48518 0.56019 0.22566 0.0
C2194 C 0.46941 0.55714 0.23701 0.0
C2195 C 0.3725 0.52484 0.21782 0.0
C2196 C 0.37003 0.50776 0.21864 0.0
C2197 C 0.3876 0.53894 0.22871 0.0
C2198 C 0.40044 0.53616 0.24054 0.0
C2199 C 0.39794 0.51913 0.24149 0.0
C2200 C 0.38288 0.50507 0.23077 0.0
C2201 C 0.41676 0.55094 0.25149 0.0
C2202 C 0.4329 0.55398 0.24143 0.0
C2203 C 0.41652 0.5619 0.27165 0.0
C2204 C 0.39989 0.559 0.2836 0.0
C2205 C 0.38808 0.54276 0.29509 0.0
C2206 C 0.3724 0.54011 0.30623 0.0
C2207 C 0.36845 0.55365 0.30617 0.0
C2208 C 0.3802 0.5699 0.29504 0.0
C2209 C 0.39589 0.57261 0.28385 0.0
H2210 H 0.35631 0.55158 0.31481 0.0
H2211 H 0.50934 0.57918 0.20717 0.0
H2212 H 0.85899 0.50715 0.2657 0.0
H2213 H 0.85583 0.48013 0.24703 0.0
H2214 H 0.84637 0.45711 0.32435 0.0
H2215 H 0.84952 0.48413 0.34327 0.0
H2216 H 0.87221 0.45471 0.29746 0.0
H2217 H 0.81339 0.44223 0.28134 0.0
H2218 H 0.79051 0.44827 0.26513 0.0
H2219 H 0.80986 0.45285 0.1864 0.0
H2220 H 0.83304 0.44709 0.20219 0.0
H2221 H 0.85624 0.37212 0.25429 0.0
H2222 H 0.85144 0.39468 0.27398 0.0
H2223 H 0.85732 0.4187 0.19796 0.0
H2224 H 0.86172 0.39588 0.17796 0.0
H2225 H 0.83168 0.41949 0.22561 0.0
H2226 H 0.89146 0.43451 0.24099 0.0
H2227 H 0.91519 0.42938 0.25602 0.0
H2228 H 0.89518 0.42141 0.33481 0.0
H2229 H 0.87116 0.42623 0.32016 0.0
C2230 C 0.85601 0.49627 0.27873 0.0
C2231 C 0.85457 0.49781 0.30599 0.0
C2232 C 0.85413 0.48081 0.26799 0.0
C2233 C 0.85078 0.46661 0.2843 0.0
C2234 C 0.84892 0.46793 0.31144 0.0
C2235 C 0.85068 0.48336 0.3222 0.0
C2236 C 0.85052 0.45091 0.27319 0.0
C2237 C 0.86312 0.44679 0.28211 0.0
C2238 C 0.83902 0.44097 0.25259 0.0
C2239 C 0.82505 0.44437 0.243 0.0
C2240 C 0.81287 0.44466 0.2606 0.0
C2241 C 0.79982 0.44801 0.25148 0.0
C2242 C 0.79876 0.45098 0.22476 0.0
C2243 C 0.81071 0.45056 0.20709 0.0
C2244 C 0.82379 0.44724 0.21612 0.0
C2245 C 0.85638 0.38211 0.2417 0.0
C2246 C 0.85956 0.38233 0.21459 0.0
C2247 C 0.85366 0.39502 0.253 0.0
C2248 C 0.85434 0.40855 0.23751 0.0
C2249 C 0.85679 0.4084 0.21029 0.0
C2250 C 0.85937 0.39539 0.1989 0.0
C2251 C 0.85337 0.4233 0.24992 0.0
C2252 C 0.84064 0.4273 0.24116 0.0
C2253 C 0.86488 0.43329 0.27051 0.0
C2254 C 0.8794 0.43055 0.27942 0.0
C2255 C 0.89204 0.43154 0.26149 0.0
C2256 C 0.90556 0.4287 0.26994 0.0
C2257 C 0.90666 0.42503 0.29634 0.0
C2258 C 0.89429 0.42423 0.31436 0.0
C2259 C 0.88073 0.42702 0.30599 0.0
H2260 H 0.91713 0.42283 0.30285 0.0
H2261 H 0.78865 0.45357 0.21773 0.0
H2262 H 0.49869 0.87153 0.24371 0.0
H2263 H 0.47208 0.8689 0.26314 0.0
H2264 H 0.44939 0.86257 0.18598 0.0
H2265 H 0.47606 0.86538 0.1663 0.0
H2266 H 0.44527 0.8859 0.21498 0.0
H2267 H 0.43556 0.82764 0.22677 0.0
H2268 H 0.44282 0.8052 0.24091 0.0
H2269 H 0.44644 0.82205 0.32097 0.0
H2270 H 0.43944 0.84478 0.30726 0.0
H2271 H 0.359 0.85988 0.2556 0.0
H2272 H 0.38383 0.85864 0.23651 0.0
H2273 H 0.40801 0.86754 0.31293 0.0
H2274 H 0.38313 0.86872 0.33232 0.0
H2275 H 0.41096 0.84231 0.28417 0.0
H2276 H 0.42154 0.90099 0.27227 0.0
H2277 H 0.41429 0.92348 0.25832 0.0
H2278 H 0.40919 0.90583 0.17847 0.0
H2279 H 0.41616 0.88305 0.19202 0.0
C2280 C 0.48802 0.86951 0.23084 0.0
C2281 C 0.48949 0.86865 0.20344 0.0
C2282 C 0.47278 0.86793 0.24201 0.0
C2283 C 0.45869 0.86536 0.22602 0.0
C2284 C 0.46011 0.86451 0.19867 0.0
C2285 C 0.47535 0.86609 0.18747 0.0
C2286 C 0.44268 0.86409 0.2378 0.0
C2287 C 0.43761 0.87618 0.2298 0.0
C2288 C 0.43296 0.8517 0.25762 0.0
C2289 C 0.43714 0.83802 0.26595 0.0
C2290 C 0.43804 0.82666 0.24737 0.0
C2291 C 0.44209 0.81387 0.25531 0.0
C2292 C 0.44513 0.81223 0.28182 0.0
C2293 C 0.4441 0.82335 0.30044 0.0
C2294 C 0.44007 0.83618 0.2926 0.0
C2295 C 0.3695 0.86142 0.26844 0.0
C2296 C 0.36916 0.86455 0.29547 0.0
C2297 C 0.38371 0.86075 0.25746 0.0
C2298 C 0.39784 0.86324 0.27327 0.0
C2299 C 0.39723 0.86564 0.30041 0.0
C2300 C 0.38303 0.86636 0.31142 0.0
C2301 C 0.41357 0.86406 0.26125 0.0
C2302 C 0.4186 0.85195 0.26925 0.0
C2303 C 0.42329 0.87644 0.24143 0.0
C2304 C 0.41919 0.8902 0.2332 0.0
C2305 C 0.41873 0.90181 0.25177 0.0
C2306 C 0.4147 0.91463 0.24393 0.0
C2307 C 0.41123 0.91605 0.21754 0.0
C2308 C 0.41185 0.90469 0.19892 0.0
C2309 C 0.41585 0.89183 0.20666 0.0
H2310 H 0.40812 0.92598 0.21151 0.0
H2311 H 0.44826 0.80232 0.28793 0.0
H2312 H 0.60441 0.48101 0.15987 0.0
H2313 H 0.58116 0.45341 0.17814 0.0
H2314 H 0.60863 0.46529 0.25215 0.0
H2315 H 0.63202 0.49293 0.23404 0.0
H2316 H 0.59438 0.43018 0.23756 0.0
H2317 H 0.57602 0.47308 0.24603 0.0
H2318 H 0.56987 0.49597 0.23027 0.0
H2319 H 0.53133 0.4592 0.1766 0.0
H2320 H 0.53745 0.43614 0.19178 0.0
H2321 H 0.52176 0.37204 0.31845 0.0
H2322 H 0.54736 0.39722 0.29874 0.0
H2323 H 0.51908 0.38817 0.22583 0.0
H2324 H 0.49343 0.36319 0.2454 0.0
H2325 H 0.53422 0.4218 0.24 0.0
H2326 H 0.55201 0.3786 0.23204 0.0
H2327 H 0.55825 0.35571 0.24752 0.0
H2328 H 0.59768 0.39271 0.29993 0.0
H2329 H 0.5915 0.41578 0.28502 0.0
C2330 C 0.6056 0.4777 0.17996 0.0
C2331 C 0.61998 0.48924 0.19557 0.0
C2332 C 0.59229 0.46194 0.19037 0.0
C2333 C 0.59311 0.45743 0.21657 0.0
C2334 C 0.60777 0.46856 0.2319 0.0
C2335 C 0.62106 0.48438 0.22154 0.0
C2336 C 0.57826 0.44152 0.2283 0.0
C2337 C 0.58125 0.42839 0.23839 0.0
C2338 C 0.56111 0.43912 0.22891 0.0
C2339 C 0.55733 0.45294 0.21985 0.0
C2340 C 0.56634 0.46991 0.23072 0.0
C2341 C 0.56284 0.48291 0.22191 0.0
C2342 C 0.55025 0.47906 0.20239 0.0
C2343 C 0.5411 0.46218 0.19169 0.0
C2344 C 0.54457 0.44913 0.2004 0.0
C2345 C 0.52104 0.37532 0.29816 0.0
C2346 C 0.50554 0.36564 0.28353 0.0
C2347 C 0.53571 0.38967 0.28689 0.0
C2348 C 0.53515 0.3945 0.26077 0.0
C2349 C 0.51979 0.38468 0.24603 0.0
C2350 C 0.50514 0.37038 0.25725 0.0
C2351 C 0.55024 0.4103 0.24911 0.0
C2352 C 0.54731 0.42349 0.23912 0.0
C2353 C 0.56741 0.41271 0.24859 0.0
C2354 C 0.57116 0.39887 0.25761 0.0
C2355 C 0.5619 0.38182 0.24703 0.0
C2356 C 0.56545 0.36882 0.25567 0.0
C2357 C 0.57832 0.37274 0.27475 0.0
C2358 C 0.5877 0.38968 0.28518 0.0
C2359 C 0.58418 0.40273 0.27663 0.0
H2360 H 0.58106 0.36266 0.28141 0.0
H2361 H 0.54756 0.48914 0.1956 0.0
H2362 H 0.1544 0.6311 0.1807 0.0
H2363 H 0.15588 0.60667 0.20111 0.0
H2364 H 0.11684 0.60076 0.25785 0.0
H2365 H 0.11536 0.6252 0.23778 0.0
H2366 H 0.14326 0.59756 0.28053 0.0
H2367 H 0.10503 0.57441 0.20538 0.0
H2368 H 0.09717 0.57295 0.15858 0.0
H2369 H 0.13907 0.56353 0.13761 0.0
H2370 H 0.14735 0.56519 0.18429 0.0
H2371 H 0.10875 0.50942 0.32263 0.0
H2372 H 0.11362 0.53736 0.30507 0.0
H2373 H 0.15123 0.53817 0.24982 0.0
H2374 H 0.14629 0.51011 0.26704 0.0
H2375 H 0.12809 0.54504 0.22609 0.0
H2376 H 0.16483 0.56589 0.30207 0.0
H2377 H 0.17228 0.56711 0.349 0.0
H2378 H 0.133 0.58062 0.36869 0.0
H2379 H 0.12513 0.57923 0.3219 0.0
C2380 C 0.14623 0.6247 0.19765 0.0
C2381 C 0.13468 0.63001 0.2075 0.0
C2382 C 0.14707 0.61072 0.20924 0.0
C2383 C 0.13633 0.6018 0.23082 0.0
C2384 C 0.12523 0.60746 0.24122 0.0
C2385 C 0.12436 0.62139 0.22963 0.0
C2386 C 0.13606 0.5861 0.24194 0.0
C2387 C 0.13982 0.58602 0.26871 0.0
C2388 C 0.13194 0.57121 0.22634 0.0
C2389 C 0.12693 0.57013 0.19829 0.0
C2390 C 0.11266 0.57217 0.19077 0.0
C2391 C 0.10812 0.57129 0.16427 0.0
C2392 C 0.11765 0.56821 0.14513 0.0
C2393 C 0.13172 0.56595 0.15245 0.0
C2394 C 0.13634 0.56686 0.17893 0.0
C2395 C 0.11816 0.5156 0.30689 0.0
C2396 C 0.12711 0.50752 0.29622 0.0
C2397 C 0.121 0.53162 0.29696 0.0
C2398 C 0.1329 0.53992 0.27628 0.0
C2399 C 0.14201 0.53199 0.2658 0.0
C2400 C 0.13919 0.51598 0.27572 0.0
C2401 C 0.13519 0.55642 0.26477 0.0
C2402 C 0.13174 0.55664 0.2379 0.0
C2403 C 0.13956 0.57141 0.28031 0.0
C2404 C 0.14429 0.57231 0.30848 0.0
C2405 C 0.15768 0.56898 0.31642 0.0
C2406 C 0.162 0.56973 0.343 0.0
C2407 C 0.15309 0.5739 0.36182 0.0
C2408 C 0.13988 0.57737 0.35409 0.0
C2409 C 0.1355 0.57663 0.32754 0.0
H2410 H 0.15645 0.57447 0.38239 0.0
H2411 H 0.11411 0.56752 0.12462 0.0
H2412 H 0.51158 0.91711 0.76897 0.0
H2413 H 0.48404 0.9138 0.75245 0.0
H2414 H 0.45839 0.85792 0.76604 0.0
H2415 H 0.48608 0.86107 0.78199 0.0
H2416 H 0.44869 0.86424 0.72018 0.0
H2417 H 0.45217 0.88527 0.80764 0.0
H2418 H 0.46569 0.90486 0.84567 0.0
H2419 H 0.46955 0.94825 0.80149 0.0
H2420 H 0.45627 0.92897 0.76305 0.0
H2421 H 0.36154 0.85188 0.71071 0.0
H2422 H 0.38839 0.853 0.72666 0.0
H2423 H 0.41853 0.90758 0.70462 0.0
H2424 H 0.39187 0.90659 0.68847 0.0
H2425 H 0.42494 0.90065 0.75604 0.0
H2426 H 0.42162 0.87875 0.66815 0.0
H2427 H 0.40736 0.85838 0.63116 0.0
H2428 H 0.40207 0.81544 0.67815 0.0
H2429 H 0.41608 0.83553 0.71557 0.0
C2430 C 0.50009 0.90411 0.7685 0.0
C2431 C 0.501 0.88936 0.77692 0.0
C2432 C 0.48432 0.90224 0.75914 0.0
C2433 C 0.46907 0.88564 0.75839 0.0
C2434 C 0.46998 0.87086 0.76651 0.0
C2435 C 0.4858 0.87269 0.77568 0.0
C2436 C 0.45224 0.88375 0.74894 0.0
C2437 C 0.44336 0.87201 0.72831 0.0
C2438 C 0.4454 0.89406 0.75929 0.0
C2439 C 0.45337 0.9057 0.78238 0.0
C2440 C 0.45603 0.89902 0.80596 0.0
C2441 C 0.46363 0.91006 0.82761 0.0
C2442 C 0.46852 0.92779 0.82598 0.0
C2443 C 0.46577 0.93451 0.80272 0.0
C2444 C 0.45819 0.92353 0.781 0.0
C2445 C 0.37391 0.86409 0.7091 0.0
C2446 C 0.3746 0.87914 0.69831 0.0
C2447 C 0.38922 0.86468 0.71817 0.0
C2448 C 0.40541 0.88036 0.71673 0.0
C2449 C 0.40614 0.89537 0.70588 0.0
C2450 C 0.3909 0.89474 0.69657 0.0
C2451 C 0.42157 0.88132 0.72718 0.0
C2452 C 0.43028 0.89286 0.74803 0.0
C2453 C 0.42813 0.8707 0.71723 0.0
C2454 C 0.41972 0.85861 0.69475 0.0
C2455 C 0.41726 0.86493 0.67068 0.0
C2456 C 0.40926 0.85344 0.64961 0.0
C2457 C 0.40376 0.83562 0.65233 0.0
C2458 C 0.40631 0.82925 0.67609 0.0
C2459 C 0.41429 0.84068 0.69723 0.0
H2460 H 0.39758 0.82674 0.63599 0.0
H2461 H 0.4744 0.93632 0.84276 0.0
H2462 H 0.63148 0.48989 0.75613 0.0
H2463 H 0.60828 0.46293 0.73633 0.0
H2464 H 0.57959 0.44926 0.8094 0.0
H2465 H 0.60291 0.47611 0.82954 0.0
H2466 H 0.57807 0.4207 0.78633 0.0
H2467 H 0.56857 0.46785 0.76066 0.0
H2468 H 0.57673 0.49684 0.74201 0.0
H2469 H 0.5874 0.48113 0.66758 0.0
H2470 H 0.57951 0.45211 0.6859 0.0
H2471 H 0.49228 0.36207 0.73821 0.0
H2472 H 0.51849 0.3861 0.75838 0.0
H2473 H 0.54548 0.39748 0.68396 0.0
H2474 H 0.51922 0.37353 0.66349 0.0
H2475 H 0.54874 0.42675 0.70697 0.0
H2476 H 0.55606 0.37838 0.7329 0.0
H2477 H 0.54696 0.34936 0.75225 0.0
H2478 H 0.53941 0.36722 0.82701 0.0
H2479 H 0.54821 0.39628 0.80802 0.0
C2480 C 0.62031 0.4811 0.76808 0.0
C2481 C 0.61896 0.48523 0.79435 0.0
C2482 C 0.60704 0.46571 0.7567 0.0
C2483 C 0.59209 0.45424 0.77128 0.0
C2484 C 0.59101 0.45797 0.79779 0.0
C2485 C 0.60432 0.47335 0.80923 0.0
C2486 C 0.57727 0.43875 0.75855 0.0
C2487 C 0.57153 0.42201 0.76913 0.0
C2488 C 0.56896 0.44047 0.73584 0.0
C2489 C 0.57363 0.45788 0.72473 0.0
C2490 C 0.57278 0.47062 0.74037 0.0
C2491 C 0.57734 0.48705 0.72986 0.0
C2492 C 0.58263 0.49084 0.70365 0.0
C2493 C 0.58332 0.47818 0.68789 0.0
C2494 C 0.5788 0.46174 0.69832 0.0
C2495 C 0.50383 0.36958 0.72614 0.0
C2496 C 0.50365 0.36591 0.69921 0.0
C2497 C 0.51883 0.38326 0.73775 0.0
C2498 C 0.53397 0.39348 0.72271 0.0
C2499 C 0.53392 0.38973 0.69591 0.0
C2500 C 0.51892 0.37601 0.68427 0.0
C2501 C 0.54953 0.40865 0.7347 0.0
C2502 C 0.55536 0.42538 0.72403 0.0
C2503 C 0.55781 0.4069 0.75742 0.0
C2504 C 0.55266 0.38947 0.76896 0.0
C2505 C 0.55233 0.37608 0.75342 0.0
C2506 C 0.54725 0.35963 0.76433 0.0
C2507 C 0.54257 0.35643 0.79083 0.0
C2508 C 0.54302 0.36971 0.80648 0.0
C2509 C 0.54807 0.38618 0.79566 0.0
H2510 H 0.53862 0.34368 0.79923 0.0
H2511 H 0.58615 0.50356 0.69554 0.0
H2512 H 0.1078 0.62349 0.74797 0.0
H2513 H 0.10936 0.59904 0.72802 0.0
H2514 H 0.13393 0.59376 0.7981 0.0
H2515 H 0.13282 0.61851 0.81797 0.0
H2516 H 0.14956 0.59044 0.75574 0.0
H2517 H 0.09001 0.56592 0.78525 0.0
H2518 H 0.06102 0.56374 0.78915 0.0
H2519 H 0.05375 0.55669 0.70572 0.0
H2520 H 0.08282 0.55907 0.70128 0.0
H2521 H 0.13215 0.50306 0.7353 0.0
H2522 H 0.1334 0.52971 0.75202 0.0
H2523 H 0.11238 0.53586 0.67881 0.0
H2524 H 0.111 0.50915 0.66191 0.0
H2525 H 0.09531 0.5391 0.72152 0.0
H2526 H 0.15493 0.56251 0.69291 0.0
H2527 H 0.18373 0.56416 0.69016 0.0
H2528 H 0.19055 0.57254 0.77344 0.0
H2529 H 0.16167 0.57069 0.77675 0.0
C2530 C 0.11357 0.61715 0.75913 0.0
C2531 C 0.1201 0.62287 0.78462 0.0
C2532 C 0.1144 0.60314 0.74773 0.0
C2533 C 0.12151 0.5944 0.76172 0.0
C2534 C 0.12835 0.6003 0.78697 0.0
C2535 C 0.12767 0.61442 0.79831 0.0
C2536 C 0.12165 0.57898 0.75016 0.0
C2537 C 0.13766 0.57912 0.74854 0.0
C2538 C 0.10618 0.56436 0.74028 0.0
C2539 C 0.08867 0.56286 0.74291 0.0
C2540 C 0.08229 0.56404 0.76772 0.0
C2541 C 0.06583 0.56275 0.77003 0.0
C2542 C 0.05557 0.56013 0.74769 0.0
C2543 C 0.06172 0.55875 0.723 0.0
C2544 C 0.07818 0.56005 0.72058 0.0
C2545 C 0.12789 0.51013 0.72266 0.0
C2546 C 0.12146 0.50397 0.69727 0.0
C2547 C 0.12869 0.5254 0.73223 0.0
C2548 C 0.1231 0.53481 0.71657 0.0
C2549 C 0.11678 0.52878 0.69117 0.0
C2550 C 0.11605 0.51355 0.68153 0.0
C2551 C 0.1232 0.55057 0.72713 0.0
C2552 C 0.10722 0.55046 0.72861 0.0
C2553 C 0.13866 0.56514 0.73705 0.0
C2554 C 0.15606 0.56629 0.73511 0.0
C2555 C 0.1625 0.56456 0.71067 0.0
C2556 C 0.17886 0.56556 0.709 0.0
C2557 C 0.18894 0.56841 0.73162 0.0
C2558 C 0.18272 0.57031 0.75594 0.0
C2559 C 0.16636 0.56931 0.75772 0.0
H2560 H 0.2016 0.56919 0.73028 0.0
H2561 H 0.04283 0.55913 0.74952 0.0
H2562 H 0.60137 0.11854 0.67071 0.0
H2563 H 0.5782 0.12307 0.68888 0.0
H2564 H 0.60862 0.14462 0.75952 0.0
H2565 H 0.63181 0.14001 0.74162 0.0
H2566 H 0.57503 0.12055 0.77051 0.0
H2567 H 0.60465 0.17131 0.71594 0.0
H2568 H 0.61794 0.18783 0.67521 0.0
H2569 H 0.568 0.16019 0.6363 0.0
H2570 H 0.55444 0.14331 0.67671 0.0
H2571 H 0.51612 0.14593 0.82267 0.0
H2572 H 0.54326 0.1485 0.80524 0.0
H2573 H 0.51712 0.12577 0.73194 0.0
H2574 H 0.49004 0.12331 0.74903 0.0
H2575 H 0.55037 0.15303 0.72412 0.0
H2576 H 0.52156 0.10062 0.7773 0.0
H2577 H 0.5081 0.08395 0.81788 0.0
H2578 H 0.5567 0.11479 0.8592 0.0
H2579 H 0.57038 0.13181 0.81891 0.0
C2580 C 0.60319 0.12434 0.69005 0.0
C2581 C 0.61843 0.1289 0.70472 0.0
C2582 C 0.58997 0.127 0.70036 0.0
C2583 C 0.59177 0.13433 0.72546 0.0
C2584 C 0.60699 0.13898 0.74009 0.0
C2585 C 0.62024 0.13636 0.72979 0.0
C2586 C 0.57742 0.13646 0.73684 0.0
C2587 C 0.56985 0.12793 0.76061 0.0
C2588 C 0.57046 0.14581 0.72366 0.0
C2589 C 0.57856 0.15594 0.69931 0.0
C2590 C 0.59653 0.16865 0.69864 0.0
C2591 C 0.6041 0.17809 0.67562 0.0
C2592 C 0.59383 0.17503 0.65317 0.0
C2593 C 0.57594 0.16254 0.6537 0.0
C2594 C 0.5683 0.15304 0.67667 0.0
C2595 C 0.5162 0.14166 0.80275 0.0
C2596 C 0.50088 0.13429 0.78732 0.0
C2597 C 0.5317 0.14309 0.79285 0.0
C2598 C 0.53212 0.13714 0.76742 0.0
C2599 C 0.51706 0.13044 0.75163 0.0
C2600 C 0.50158 0.12897 0.76149 0.0
C2601 C 0.54792 0.137 0.7576 0.0
C2602 C 0.55571 0.14584 0.73413 0.0
C2603 C 0.55509 0.12793 0.77102 0.0
C2604 C 0.54693 0.11761 0.79518 0.0
C2605 C 0.52934 0.10393 0.79509 0.0
C2606 C 0.52167 0.09441 0.81803 0.0
C2607 C 0.53152 0.09835 0.84113 0.0
C2608 C 0.54907 0.11178 0.8413 0.0
C2609 C 0.55679 0.12136 0.81843 0.0
H2610 H 0.52556 0.09096 0.85887 0.0
H2611 H 0.59972 0.18236 0.63536 0.0
H2612 H 0.36449 0.52643 0.80275 0.0
H2613 H 0.39133 0.55132 0.78496 0.0
H2614 H 0.4023 0.5155 0.74228 0.0
H2615 H 0.3757 0.49068 0.75989 0.0
H2616 H 0.43053 0.53941 0.77037 0.0
H2617 H 0.38815 0.5394 0.71036 0.0
H2618 H 0.36144 0.54026 0.69813 0.0
H2619 H 0.38194 0.59062 0.73523 0.0
H2620 H 0.40868 0.58995 0.74802 0.0
H2621 H 0.5 0.59692 0.68834 0.0
H2622 H 0.47129 0.57392 0.70372 0.0
H2623 H 0.46306 0.61287 0.74244 0.0
H2624 H 0.49167 0.63602 0.72683 0.0
H2625 H 0.43342 0.58839 0.71802 0.0
H2626 H 0.47582 0.58892 0.77746 0.0
H2627 H 0.50262 0.5884 0.79018 0.0
H2628 H 0.48208 0.53733 0.75545 0.0
H2629 H 0.45525 0.53766 0.74215 0.0
C2630 C 0.37253 0.52388 0.78937 0.0
C2631 C 0.36798 0.50657 0.78282 0.0
C2632 C 0.38783 0.5381 0.77919 0.0
C2633 C 0.39877 0.53522 0.76229 0.0
C2634 C 0.39406 0.51799 0.75535 0.0
C2635 C 0.3788 0.50382 0.7654 0.0
C2636 C 0.41557 0.55003 0.75266 0.0
C2637 C 0.43115 0.55002 0.75865 0.0
C2638 C 0.41638 0.56411 0.73808 0.0
C2639 C 0.40033 0.56453 0.7304 0.0
C2640 C 0.38689 0.55059 0.71612 0.0
C2641 C 0.37176 0.55105 0.70904 0.0
C2642 C 0.36997 0.56546 0.71597 0.0
C2643 C 0.38333 0.57945 0.72992 0.0
C2644 C 0.39848 0.57904 0.73707 0.0
C2645 C 0.49205 0.60062 0.7 0.0
C2646 C 0.49817 0.61828 0.70653 0.0
C2647 C 0.47567 0.58746 0.70884 0.0
C2648 C 0.46516 0.59168 0.72453 0.0
C2649 C 0.47099 0.60934 0.73041 0.0
C2650 C 0.48737 0.62253 0.72154 0.0
C2651 C 0.44833 0.5776 0.73539 0.0
C2652 C 0.43279 0.57779 0.72977 0.0
C2653 C 0.44753 0.5637 0.75046 0.0
C2654 C 0.4636 0.56339 0.75859 0.0
C2655 C 0.47707 0.57764 0.77236 0.0
C2656 C 0.49226 0.57737 0.77969 0.0
C2657 C 0.49407 0.56286 0.77357 0.0
C2658 C 0.48067 0.54857 0.76015 0.0
C2659 C 0.46546 0.54879 0.75273 0.0
H2660 H 0.50584 0.56268 0.77926 0.0
H2661 H 0.35825 0.56579 0.71046 0.0
H2662 H 0.85588 0.36323 0.79259 0.0
H2663 H 0.8502 0.38651 0.77833 0.0
H2664 H 0.90486 0.42494 0.78977 0.0
H2665 H 0.91065 0.40182 0.80421 0.0
H2666 H 0.88308 0.43589 0.80972 0.0
H2667 H 0.88925 0.41055 0.72907 0.0
H2668 H 0.88221 0.38642 0.69794 0.0
H2669 H 0.82893 0.37557 0.69305 0.0
H2670 H 0.8356 0.3995 0.72445 0.0
H2671 H 0.89347 0.50831 0.73619 0.0
H2672 H 0.89494 0.4834 0.75423 0.0
H2673 H 0.8403 0.44908 0.73523 0.0
H2674 H 0.83879 0.47396 0.71659 0.0
H2675 H 0.8594 0.43473 0.72082 0.0
H2676 H 0.85349 0.46129 0.79896 0.0
H2677 H 0.86029 0.48529 0.8302 0.0
H2678 H 0.91241 0.49362 0.8404 0.0
H2679 H 0.906 0.46982 0.80893 0.0
C2680 C 0.86669 0.37664 0.79212 0.0
C2681 C 0.88373 0.38068 0.79945 0.0
C2682 C 0.86342 0.38991 0.7839 0.0
C2683 C 0.87714 0.40742 0.78281 0.0
C2684 C 0.89409 0.41151 0.79049 0.0
C2685 C 0.89738 0.39826 0.79864 0.0
C2686 C 0.87394 0.42153 0.77345 0.0
C2687 C 0.87805 0.43574 0.79021 0.0
C2688 C 0.86688 0.42102 0.74828 0.0
C2689 C 0.86288 0.40668 0.72933 0.0
C2690 C 0.876 0.40293 0.72152 0.0
C2691 C 0.87208 0.3893 0.7038 0.0
C2692 C 0.85512 0.37943 0.69358 0.0
C2693 C 0.84205 0.38321 0.70102 0.0
C2694 C 0.8459 0.3968 0.71876 0.0
C2695 C 0.88171 0.4955 0.73597 0.0
C2696 C 0.86599 0.49313 0.72499 0.0
C2697 C 0.88256 0.48127 0.74641 0.0
C2698 C 0.86766 0.46441 0.74641 0.0
C2699 C 0.85194 0.46199 0.7355 0.0
C2700 C 0.85109 0.47622 0.72492 0.0
C2701 C 0.86877 0.44927 0.75696 0.0
C2702 C 0.86427 0.43484 0.74045 0.0
C2703 C 0.87541 0.44955 0.7824 0.0
C2704 C 0.8793 0.46385 0.80141 0.0
C2705 C 0.86645 0.46832 0.80771 0.0
C2706 C 0.87022 0.48188 0.82549 0.0
C2707 C 0.88678 0.491 0.83724 0.0
C2708 C 0.89959 0.48655 0.83127 0.0
C2709 C 0.89589 0.47301 0.81349 0.0
H2710 H 0.88968 0.50149 0.851 0.0
H2711 H 0.85211 0.36889 0.67986 0.0
loop_
_geom_bond_atom_site_label_1
_geom_bond_atom_site_label_2
_geom_bond_distance
_geom_bond_site_symmetry_2
_ccdc_geom_bond_type
C0 O1 1.160 . S
C0 O7 1.185 . S
O1 C0 1.160 . S
O2 Zn3 1.899 . S
O2 C10 1.284 . S
Zn3 O2 1.899 . S
Zn3 O4 2.032 . S
Zn3 O7 2.086 . S
Zn3 O12 1.977 . S
O4 Zn3 2.032 . S
O4 C8 1.278 . S
C5 O6 1.203 . S
C5 O12 1.267 . S
O6 C5 1.203 . S
O7 C0 1.185 . S
O7 Zn3 2.086 . S
C8 O4 1.278 . S
C8 O9 1.211 . S
O9 C8 1.211 . S
C10 O2 1.284 . S
C10 O11 1.273 . S
O11 C10 1.273 . S
O12 Zn3 1.977 . S
O12 C5 1.267 . S
C13 O14 1.160 . S
C13 O20 1.185 . S
O14 C13 1.160 . S
O15 Zn16 1.899 . S
O15 C23 1.284 . S
Zn16 O15 1.899 . S
Zn16 O17 2.032 . S
Zn16 O20 2.086 . S
Zn16 O25 1.977 . S
O17 Zn16 2.032 . S
O17 C21 1.278 . S
C18 O19 1.203 . S
C18 O25 1.267 . S
O19 C18 1.203 . S
O20 C13 1.185 . S
O20 Zn16 2.086 . S
C21 O17 1.278 . S
C21 O22 1.211 . S
O22 C21 1.211 . S
C23 O15 1.284 . S
C23 O24 1.273 . S
O24 C23 1.273 . S
O25 Zn16 1.977 . S
O25 C18 1.267 . S
C26 O27 1.160 . S
C26 O33 1.185 . S
O27 C26 1.160 . S
O28 Zn29 1.899 . S
O28 C36 1.284 . S
Zn29 O28 1.899 . S
Zn29 O30 2.032 . S
Zn29 O33 2.086 . S
Zn29 O38 1.977 . S
O30 Zn29 2.032 . S
O30 C34 1.278 . S
C31 O32 1.203 . S
C31 O38 1.267 . S
O32 C31 1.203 . S
O33 C26 1.185 . S
O33 Zn29 2.086 . S
C34 O30 1.278 . S
C34 O35 1.211 . S
O35 C34 1.211 . S
C36 O28 1.284 . S
C36 O37 1.273 . S
O37 C36 1.273 . S
O38 Zn29 1.977 . S
O38 C31 1.267 . S
C39 O40 1.160 . S
C39 O46 1.185 . S
O40 C39 1.160 . S
O41 Zn42 1.899 . S
O41 C49 1.284 . S
Zn42 O41 1.899 . S
Zn42 O43 2.032 . S
Zn42 O46 2.086 . S
Zn42 O51 1.977 . S
O43 Zn42 2.032 . S
O43 C47 1.278 . S
C44 O45 1.203 . S
C44 O51 1.267 . S
O45 C44 1.203 . S
O46 C39 1.185 . S
O46 Zn42 2.086 . S
C47 O43 1.278 . S
C47 O48 1.211 . S
O48 C47 1.211 . S
C49 O41 1.284 . S
C49 O50 1.273 . S
O50 C49 1.273 . S
O51 Zn42 1.977 . S
O51 C44 1.267 . S
C52 O53 1.160 . S
C52 O59 1.185 . S
O53 C52 1.160 . S
O54 Zn55 1.899 . S
O54 C62 1.284 . S
Zn55 O54 1.899 . S
Zn55 O56 2.032 . S
Zn55 O59 2.086 . S
Zn55 O64 1.977 . S
O56 Zn55 2.032 . S
O56 C60 1.278 . S
C57 O58 1.203 . S
C57 O64 1.267 . S
O58 C57 1.203 . S
O59 C52 1.185 . S
O59 Zn55 2.086 . S
C60 O56 1.278 . S
C60 O61 1.211 . S
O61 C60 1.211 . S
C62 O54 1.284 . S
C62 O63 1.273 . S
O63 C62 1.273 . S
O64 Zn55 1.977 . S
O64 C57 1.267 . S
C65 O66 1.160 . S
C65 O72 1.185 . S
O66 C65 1.160 . S
O67 Zn68 1.899 . S
O67 C75 1.284 . S
Zn68 O67 1.899 . S
Zn68 O69 2.032 . S
Zn68 O72 2.086 . S
Zn68 O77 1.977 . S
O69 Zn68 2.032 . S
O69 C73 1.278 . S
C70 O71 1.203 . S
C70 O77 1.267 . S
O71 C70 1.203 . S
O72 C65 1.185 . S
O72 Zn68 2.086 . S
C73 O69 1.278 . S
C73 O74 1.211 . S
O74 C73 1.211 . S
C75 O67 1.284 . S
C75 O76 1.273 . S
O76 C75 1.273 . S
O77 Zn68 1.977 . S
O77 C70 1.267 . S
C78 O79 1.160 . S
C78 O85 1.185 . S
O79 C78 1.160 . S
O80 Zn81 1.899 . S
O80 C88 1.284 . S
Zn81 O80 1.899 . S
Zn81 O82 2.032 . S
Zn81 O85 2.086 . S
Zn81 O90 1.977 . S
O82 Zn81 2.032 . S
O82 C86 1.278 . S
C83 O84 1.203 . S
C83 O90 1.267 . S
O84 C83 1.203 . S
O85 C78 1.185 . S
O85 Zn81 2.086 . S
C86 O82 1.278 . S
C86 O87 1.211 . S
O87 C86 1.211 . S
C88 O80 1.284 . S
C88 O89 1.273 . S
O89 C88 1.273 . S
O90 Zn81 1.977 . S
O90 C83 1.267 . S
C91 O92 1.160 . S
C91 O98 1.185 . S
O92 C91 1.160 . S
O93 Zn94 1.899 . S
O93 C101 1.284 . S
Zn94 O93 1.899 . S
Zn94 O95 2.032 . S
Zn94 O98 2.086 . S
Zn94 O103 1.977 . S
O95 Zn94 2.032 . S
O95 C99 1.278 . S
C96 O97 1.203 . S
C96 O103 1.267 . S
O97 C96 1.203 . S
O98 C91 1.185 . S
O98 Zn94 2.086 . S
C99 O95 1.278 . S
C99 O100 1.211 . S
O100 C99 1.211 . S
C101 O93 1.284 . S
C101 O102 1.273 . S
O102 C101 1.273 . S
O103 Zn94 1.977 . S
O103 C96 1.267 . S
C104 O105 1.160 . S
C104 O111 1.185 . S
O105 C104 1.160 . S
O106 Zn107 1.899 . S
O106 C114 1.284 . S
Zn107 O106 1.899 . S
Zn107 O108 2.032 . S
Zn107 O111 2.086 . S
Zn107 O116 1.977 . S
O108 Zn107 2.032 . S
O108 C112 1.278 . S
C109 O110 1.203 . S
C109 O116 1.267 . S
O110 C109 1.203 . S
O111 C104 1.185 . S
O111 Zn107 2.086 . S
C112 O108 1.278 . S
C112 O113 1.211 . S
O113 C112 1.211 . S
C114 O106 1.284 . S
C114 O115 1.273 . S
O115 C114 1.273 . S
O116 Zn107 1.977 . S
O116 C109 1.267 . S
C117 O118 1.160 . S
C117 O124 1.185 . S
O118 C117 1.160 . S
O119 Zn120 1.899 . S
O119 C127 1.284 . S
Zn120 O119 1.899 . S
Zn120 O121 2.032 . S
Zn120 O124 2.086 . S
Zn120 O129 1.977 . S
O121 Zn120 2.032 . S
O121 C125 1.278 . S
C122 O123 1.203 . S
C122 O129 1.267 . S
O123 C122 1.203 . S
O124 C117 1.185 . S
O124 Zn120 2.086 . S
C125 O121 1.278 . S
C125 O126 1.211 . S
O126 C125 1.211 . S
C127 O119 1.284 . S
C127 O128 1.273 . S
O128 C127 1.273 . S
O129 Zn120 1.977 . S
O129 C122 1.267 . S
C130 O131 1.160 . S
C130 O137 1.185 . S
O131 C130 1.160 . S
O132 Zn133 1.899 . S
O132 C140 1.284 . S
Zn133 O132 1.899 . S
Zn133 O134 2.032 . S
Zn133 O137 2.086 . S
Zn133 O142 1.977 . S
O134 Zn133 2.032 . S
O134 C138 1.278 . S
C135 O136 1.203 . S
C135 O142 1.267 . S
O136 C135 1.203 . S
O137 C130 1.185 . S
O137 Zn133 2.086 . S
C138 O134 1.278 . S
C138 O139 1.211 . S
O139 C138 1.211 . S
C140 O132 1.284 . S
C140 O141 1.273 . S
O141 C140 1.273 . S
O142 Zn133 1.977 . S
O142 C135 1.267 . S
C143 O144 1.160 . S
C143 O150 1.185 . S
O144 C143 1.160 . S
O145 Zn146 1.899 . S
O145 C153 1.284 . S
Zn146 O145 1.899 . S
Zn146 O147 2.032 . S
Zn146 O150 2.086 . S
Zn146 O155 1.977 . S
O147 Zn146 2.032 . S
O147 C151 1.278 . S
C148 O149 1.203 . S
C148 O155 1.267 . S
O149 C148 1.203 . S
O150 C143 1.185 . S
O150 Zn146 2.086 . S
C151 O147 1.278 . S
C151 O152 1.211 . S
O152 C151 1.211 . S
C153 O145 1.284 . S
C153 O154 1.273 . S
O154 C153 1.273 . S
O155 Zn146 1.977 . S
O155 C148 1.267 . S
C156 O157 1.160 . S
C156 O163 1.185 . S
O157 C156 1.160 . S
O158 Zn159 1.899 . S
O158 C166 1.284 . S
Zn159 O158 1.899 . S
Zn159 O160 2.032 . S
Zn159 O163 2.086 . S
Zn159 O168 1.977 . S
O160 Zn159 2.032 . S
O160 C164 1.278 . S
C161 O162 1.203 . S
C161 O168 1.267 . S
O162 C161 1.203 . S
O163 C156 1.185 . S
O163 Zn159 2.086 . S
C164 O160 1.278 . S
C164 O165 1.211 . S
O165 C164 1.211 . S
C166 O158 1.284 . S
C166 O167 1.273 . S
O167 C166 1.273 . S
O168 Zn159 1.977 . S
O168 C161 1.267 . S
C169 O170 1.160 . S
C169 O176 1.185 . S
O170 C169 1.160 . S
O171 Zn172 1.899 . S
O171 C179 1.284 . S
Zn172 O171 1.899 . S
Zn172 O173 2.032 . S
Zn172 O176 2.086 . S
Zn172 O181 1.977 . S
O173 Zn172 2.032 . S
O173 C177 1.278 . S
C174 O175 1.203 . S
C174 O181 1.267 . S
O175 C174 1.203 . S
O176 C169 1.185 . S
O176 Zn172 2.086 . S
C177 O173 1.278 . S
C177 O178 1.211 . S
O178 C177 1.211 . S
C179 O171 1.284 . S
C179 O180 1.273 . S
O180 C179 1.273 . S
O181 Zn172 1.977 . S
O181 C174 1.267 . S
C182 O183 1.160 . S
C182 O189 1.185 . S
O183 C182 1.160 . S
O184 Zn185 1.899 . S
O184 C192 1.284 . S
Zn185 O184 1.899 . S
Zn185 O186 2.032 . S
Zn185 O189 2.086 . S
Zn185 O194 1.977 . S
O186 Zn185 2.032 . S
O186 C190 1.278 . S
C187 O188 1.203 . S
C187 O194 1.267 . S
O188 C187 1.203 . S
O189 C182 1.185 . S
O189 Zn185 2.086 . S
C190 O186 1.278 . S
C190 O191 1.211 . S
O191 C190 1.211 . S
C192 O184 1.284 . S
C192 O193 1.273 . S
O193 C192 1.273 . S
O194 Zn185 1.977 . S
O194 C187 1.267 . S
C195 O196 1.160 . S
C195 O202 1.185 . S
O196 C195 1.160 . S
O197 Zn198 1.899 . S
O197 C205 1.284 . S
Zn198 O197 1.899 . S
Zn198 O199 2.032 . S
Zn198 O202 2.086 . S
Zn198 O207 1.977 . S
O199 Zn198 2.032 . S
O199 C203 1.278 . S
C200 O201 1.203 . S
C200 O207 1.267 . S
O201 C200 1.203 . S
O202 C195 1.185 . S
O202 Zn198 2.086 . S
C203 O199 1.278 . S
C203 O204 1.211 . S
O204 C203 1.211 . S
C205 O197 1.284 . S
C205 O206 1.273 . S
O206 C205 1.273 . S
O207 Zn198 1.977 . S
O207 C200 1.267 . S
C208 O209 1.160 . S
C208 O215 1.185 . S
O209 C208 1.160 . S
O210 Zn211 1.899 . S
O210 C218 1.284 . S
Zn211 O210 1.899 . S
Zn211 O212 2.032 . S
Zn211 O215 2.086 . S
Zn211 O220 1.977 . S
O212 Zn211 2.032 . S
O212 C216 1.278 . S
C213 O214 1.203 . S
C213 O220 1.267 . S
O214 C213 1.203 . S
O215 C208 1.185 . S
O215 Zn211 2.086 . S
C216 O212 1.278 . S
C216 O217 1.211 . S
O217 C216 1.211 . S
C218 O210 1.284 . S
C218 O219 1.273 . S
O219 C218 1.273 . S
O220 Zn211 1.977 . S
O220 C213 1.267 . S
C221 O222 1.160 . S
C221 O228 1.185 . S
O222 C221 1.160 . S
O223 Zn224 1.899 . S
O223 C231 1.284 . S
Zn224 O223 1.899 . S
Zn224 O225 2.032 . S
Zn224 O228 2.086 . S
Zn224 O233 1.977 . S
O225 Zn224 2.032 . S
O225 C229 1.278 . S
C226 O227 1.203 . S
C226 O233 1.267 . S
O227 C226 1.203 . S
O228 C221 1.185 . S
O228 Zn224 2.086 . S
C229 O225 1.278 . S
C229 O230 1.211 . S
O230 C229 1.211 . S
C231 O223 1.284 . S
C231 O232 1.273 . S
O232 C231 1.273 . S
O233 Zn224 1.977 . S
O233 C226 1.267 . S
C234 O235 1.160 . S
C234 O241 1.185 . S
O235 C234 1.160 . S
O236 Zn237 1.899 . S
O236 C244 1.284 . S
Zn237 O236 1.899 . S
Zn237 O238 2.032 . S
Zn237 O241 2.086 . S
Zn237 O246 1.977 . S
O238 Zn237 2.032 . S
O238 C242 1.278 . S
C239 O240 1.203 . S
C239 O246 1.267 . S
O240 C239 1.203 . S
O241 C234 1.185 . S
O241 Zn237 2.086 . S
C242 O238 1.278 . S
C242 O243 1.211 . S
O243 C242 1.211 . S
C244 O236 1.284 . S
C244 O245 1.273 . S
O245 C244 1.273 . S
O246 Zn237 1.977 . S
O246 C239 1.267 . S
C247 O248 1.160 . S
C247 O254 1.185 . S
O248 C247 1.160 . S
O249 Zn250 1.899 . S
O249 C257 1.284 . S
Zn250 O249 1.899 . S
Zn250 O251 2.032 . S
Zn250 O254 2.086 . S
Zn250 O259 1.977 . S
O251 Zn250 2.032 . S
O251 C255 1.278 . S
C252 O253 1.203 . S
C252 O259 1.267 . S
O253 C252 1.203 . S
O254 C247 1.185 . S
O254 Zn250 2.086 . S
C255 O251 1.278 . S
C255 O256 1.211 . S
O256 C255 1.211 . S
C257 O249 1.284 . S
C257 O258 1.273 . S
O258 C257 1.273 . S
O259 Zn250 1.977 . S
O259 C252 1.267 . S
C260 O261 1.160 . S
C260 O267 1.185 . S
O261 C260 1.160 . S
O262 Zn263 1.899 . S
O262 C270 1.284 . S
Zn263 O262 1.899 . S
Zn263 O264 2.032 . S
Zn263 O267 2.086 . S
Zn263 O272 1.977 . S
O264 Zn263 2.032 . S
O264 C268 1.278 . S
C265 O266 1.203 . S
C265 O272 1.267 . S
O266 C265 1.203 . S
O267 C260 1.185 . S
O267 Zn263 2.086 . S
C268 O264 1.278 . S
C268 O269 1.211 . S
O269 C268 1.211 . S
C270 O262 1.284 . S
C270 O271 1.273 . S
O271 C270 1.273 . S
O272 Zn263 1.977 . S
O272 C265 1.267 . S
C273 O274 1.160 . S
C273 O280 1.185 . S
O274 C273 1.160 . S
O275 Zn276 1.899 . S
O275 C283 1.284 . S
Zn276 O275 1.899 . S
Zn276 O277 2.032 . S
Zn276 O280 2.086 . S
Zn276 O285 1.977 . S
O277 Zn276 2.032 . S
O277 C281 1.278 . S
C278 O279 1.203 . S
C278 O285 1.267 . S
O279 C278 1.203 . S
O280 C273 1.185 . S
O280 Zn276 2.086 . S
C281 O277 1.278 . S
C281 O282 1.211 . S
O282 C281 1.211 . S
C283 O275 1.284 . S
C283 O284 1.273 . S
O284 C283 1.273 . S
O285 Zn276 1.977 . S
O285 C278 1.267 . S
C286 O287 1.160 . S
C286 O293 1.185 . S
O287 C286 1.160 . S
O288 Zn289 1.899 . S
O288 C296 1.284 . S
Zn289 O288 1.899 . S
Zn289 O290 2.032 . S
Zn289 O293 2.086 . S
Zn289 O298 1.977 . S
O290 Zn289 2.032 . S
O290 C294 1.278 . S
C291 O292 1.203 . S
C291 O298 1.267 . S
O292 C291 1.203 . S
O293 C286 1.185 . S
O293 Zn289 2.086 . S
C294 O290 1.278 . S
C294 O295 1.211 . S
O295 C294 1.211 . S
C296 O288 1.284 . S
C296 O297 1.273 . S
O297 C296 1.273 . S
O298 Zn289 1.977 . S
O298 C291 1.267 . S
C299 O300 1.160 . S
C299 O306 1.185 . S
O300 C299 1.160 . S
O301 Zn302 1.899 . S
O301 C309 1.284 . S
Zn302 O301 1.899 . S
Zn302 O303 2.032 . S
Zn302 O306 2.086 . S
Zn302 O311 1.977 . S
O303 Zn302 2.032 . S
O303 C307 1.278 . S
C304 O305 1.203 . S
C304 O311 1.267 . S
O305 C304 1.203 . S
O306 C299 1.185 . S
O306 Zn302 2.086 . S
C307 O303 1.278 . S
C307 O308 1.211 . S
O308 C307 1.211 . S
C309 O301 1.284 . S
C309 O310 1.273 . S
O310 C309 1.273 . S
O311 Zn302 1.977 . S
O311 C304 1.267 . S
H312 C330 0.951 . S
H313 C332 0.951 . S
H314 C334 0.950 . S
H315 C335 0.950 . S
H316 C337 0.950 . S
H317 C340 0.950 . S
H318 C341 0.950 . S
H319 C343 0.950 . S
H320 C344 0.950 . S
H321 C345 0.951 . S
H322 C347 0.951 . S
H323 C349 0.950 . S
H324 C350 0.950 . S
H325 C352 0.950 . S
H326 C355 0.950 . S
H327 C356 0.950 . S
H328 C358 0.950 . S
H329 C359 0.950 . S
C330 H312 0.951 . S
C330 C331 1.366 . S
C330 C332 1.388 . S
C331 C330 1.366 . S
C331 C335 1.385 . S
C332 H313 0.951 . S
C332 C330 1.388 . S
C332 C333 1.366 . S
C333 C332 1.366 . S
C333 C334 1.414 . S
C333 C336 1.499 . S
C334 H314 0.950 . S
C334 C333 1.414 . S
C334 C335 1.374 . S
C335 H315 0.950 . S
C335 C331 1.385 . S
C335 C334 1.374 . S
C336 C333 1.499 . S
C336 C337 1.373 . S
C336 C338 1.389 . S
C337 H316 0.950 . S
C337 C336 1.373 . S
C337 C353 1.377 1_545 S
C338 C336 1.389 . S
C338 C339 1.524 . S
C338 C352 1.377 1_545 S
C339 C338 1.524 . S
C339 C340 1.397 . S
C339 C344 1.363 . S
C340 H317 0.950 . S
C340 C339 1.397 . S
C340 C341 1.334 . S
C341 H318 0.950 . S
C341 C340 1.334 . S
C341 C342 1.287 . S
C342 C341 1.287 . S
C342 C343 1.524 . S
C342 H361 0.913 . S
C343 H319 0.950 . S
C343 C342 1.524 . S
C343 C344 1.415 . S
C344 H320 0.950 . S
C344 C339 1.363 . S
C344 C343 1.415 . S
C345 H321 0.951 . S
C345 C346 1.366 . S
C345 C347 1.388 . S
C346 C345 1.366 . S
C346 C350 1.385 . S
C347 H322 0.951 . S
C347 C345 1.388 . S
C347 C348 1.366 . S
C348 C347 1.366 . S
C348 C349 1.414 . S
C348 C351 1.499 . S
C349 H323 0.950 . S
C349 C348 1.414 . S
C349 C350 1.374 . S
C350 H324 0.950 . S
C350 C346 1.385 . S
C350 C349 1.374 . S
C351 C348 1.499 . S
C351 C352 1.373 . S
C351 C353 1.389 . S
C352 H325 0.950 . S
C352 C338 1.377 1_565 S
C352 C351 1.373 . S
C353 C337 1.377 1_565 S
C353 C351 1.389 . S
C353 C354 1.524 . S
C354 C353 1.524 . S
C354 C355 1.397 . S
C354 C359 1.363 . S
C355 H326 0.950 . S
C355 C354 1.397 . S
C355 C356 1.334 . S
C356 H327 0.950 . S
C356 C355 1.334 . S
C356 C357 1.287 . S
C357 C356 1.287 . S
C357 C358 1.524 . S
C357 H360 0.999 . S
C358 H328 0.950 . S
C358 C357 1.524 . S
C358 C359 1.415 . S
C359 H329 0.950 . S
C359 C354 1.363 . S
C359 C358 1.415 . S
H360 C357 0.999 . S
H361 C342 0.913 . S
H362 C380 0.951 . S
H363 C382 0.951 . S
H364 C384 0.950 . S
H365 C385 0.950 . S
H366 C387 0.950 . S
H367 C390 0.950 . S
H368 C391 0.950 . S
H369 C393 0.950 . S
H370 C394 0.950 . S
H371 C395 0.951 . S
H372 C397 0.951 . S
H373 C399 0.950 . S
H374 C400 0.950 . S
H375 C402 0.950 . S
H376 C405 0.950 . S
H377 C406 0.950 . S
H378 C408 0.950 . S
H379 C409 0.950 . S
C380 H362 0.951 . S
C380 C381 1.366 . S
C380 C382 1.388 . S
C381 C380 1.366 . S
C381 C385 1.385 . S
C382 H363 0.951 . S
C382 C380 1.388 . S
C382 C383 1.366 . S
C383 C382 1.366 . S
C383 C384 1.414 . S
C383 C386 1.499 . S
C384 H364 0.950 . S
C384 C383 1.414 . S
C384 C385 1.374 . S
C385 H365 0.950 . S
C385 C381 1.385 . S
C385 C384 1.374 . S
C386 C383 1.499 . S
C386 C387 1.373 . S
C386 C388 1.389 . S
C387 H366 0.950 . S
C387 C386 1.373 . S
C387 C403 1.377 . S
C388 C386 1.389 . S
C388 C389 1.524 . S
C388 C402 1.377 . S
C389 C388 1.524 . S
C389 C390 1.397 . S
C389 C394 1.363 . S
C390 H367 0.950 . S
C390 C389 1.397 . S
C390 C391 1.334 . S
C391 H368 0.950 . S
C391 C390 1.334 . S
C391 C392 1.287 . S
C392 C391 1.287 . S
C392 C393 1.524 . S
C392 H411 0.913 . S
C393 H369 0.950 . S
C393 C392 1.524 . S
C393 C394 1.415 . S
C394 H370 0.950 . S
C394 C389 1.363 . S
C394 C393 1.415 . S
C395 H371 0.951 . S
C395 C396 1.366 . S
C395 C397 1.388 . S
C396 C395 1.366 . S
C396 C400 1.385 . S
C397 H372 0.951 . S
C397 C395 1.388 . S
C397 C398 1.366 . S
C398 C397 1.366 . S
C398 C399 1.414 . S
C398 C401 1.499 . S
C399 H373 0.950 . S
C399 C398 1.414 . S
C399 C400 1.374 . S
C400 H374 0.950 . S
C400 C396 1.385 . S
C400 C399 1.374 . S
C401 C398 1.499 . S
C401 C402 1.373 . S
C401 C403 1.389 . S
C402 H375 0.950 . S
C402 C388 1.377 . S
C402 C401 1.373 . S
C403 C387 1.377 . S
C403 C401 1.389 . S
C403 C404 1.524 . S
C404 C403 1.524 . S
C404 C405 1.397 . S
C404 C409 1.363 . S
C405 H376 0.950 . S
C405 C404 1.397 . S
C405 C406 1.334 . S
C406 H377 0.950 . S
C406 C405 1.334 . S
C406 C407 1.287 . S
C407 C406 1.287 . S
C407 C408 1.524 . S
C407 H410 0.999 . S
C408 H378 0.950 . S
C408 C407 1.524 . S
C408 C409 1.415 . S
C409 H379 0.950 . S
C409 C404 1.363 . S
C409 C408 1.415 . S
H410 C407 0.999 . S
H411 C392 0.913 . S
H412 C430 0.951 . S
H413 C432 0.951 . S
H414 C434 0.950 . S
H415 C435 0.950 . S
H416 C437 0.950 . S
H417 C440 0.950 . S
H418 C441 0.950 . S
H419 C443 0.950 . S
H420 C444 0.950 . S
H421 C445 0.951 . S
H422 C447 0.951 . S
H423 C449 0.950 . S
H424 C450 0.950 . S
H425 C452 0.950 . S
H426 C455 0.950 . S
H427 C456 0.950 . S
H428 C458 0.950 . S
H429 C459 0.950 . S
C430 H412 0.951 . S
C430 C431 1.366 . S
C430 C432 1.388 . S
C431 C430 1.366 . S
C431 C435 1.385 . S
C432 H413 0.951 . S
C432 C430 1.388 . S
C432 C433 1.366 . S
C433 C432 1.366 . S
C433 C434 1.414 . S
C433 C436 1.499 . S
C434 H414 0.950 . S
C434 C433 1.414 . S
C434 C435 1.374 . S
C435 H415 0.950 . S
C435 C431 1.385 . S
C435 C434 1.374 . S
C436 C433 1.499 . S
C436 C437 1.373 . S
C436 C438 1.389 . S
C437 H416 0.950 . S
C437 C436 1.373 . S
C437 C453 1.377 1_655 S
C438 C436 1.389 . S
C438 C439 1.524 . S
C438 C452 1.377 1_655 S
C439 C438 1.524 . S
C439 C440 1.397 . S
C439 C444 1.363 . S
C440 H417 0.950 . S
C440 C439 1.397 . S
C440 C441 1.334 . S
C441 H418 0.950 . S
C441 C440 1.334 . S
C441 C442 1.287 . S
C442 C441 1.287 . S
C442 C443 1.524 . S
C442 H461 0.913 . S
C443 H419 0.950 . S
C443 C442 1.524 . S
C443 C444 1.415 . S
C444 H420 0.950 . S
C444 C439 1.363 . S
C444 C443 1.415 . S
C445 H421 0.951 . S
C445 C446 1.366 . S
C445 C447 1.388 . S
C446 C445 1.366 . S
C446 C450 1.385 . S
C447 H422 0.951 . S
C447 C445 1.388 . S
C447 C448 1.366 . S
C448 C447 1.366 . S
C448 C449 1.414 . S
C448 C451 1.499 . S
C449 H423 0.950 . S
C449 C448 1.414 . S
C449 C450 1.374 . S
C450 H424 0.950 . S
C450 C446 1.385 . S
C450 C449 1.374 . S
C451 C448 1.499 . S
C451 C452 1.373 . S
C451 C453 1.389 . S
C452 H425 0.950 . S
C452 C438 1.377 1_455 S
C452 C451 1.373 . S
C453 C437 1.377 1_455 S
C453 C451 1.389 . S
C453 C454 1.524 . S
C454 C453 1.524 . S
C454 C455 1.397 . S
C454 C459 1.363 . S
C455 H426 0.950 . S
C455 C454 1.397 . S
C455 C456 1.334 . S
C456 H427 0.950 . S
C456 C455 1.334 . S
C456 C457 1.287 . S
C457 C456 1.287 . S
C457 C458 1.524 . S
C457 H460 0.999 . S
C458 H428 0.950 . S
C458 C457 1.524 . S
C458 C459 1.415 . S
C459 H429 0.950 . S
C459 C454 1.363 . S
C459 C458 1.415 . S
H460 C457 0.999 . S
H461 C442 0.913 . S
H462 C480 0.951 . S
H463 C482 0.951 . S
H464 C484 0.950 . S
H465 C485 0.950 . S
H466 C487 0.950 . S
H467 C490 0.950 . S
H468 C491 0.950 . S
H469 C493 0.950 . S
H470 C494 0.950 . S
H471 C495 0.951 . S
H472 C497 0.951 . S
H473 C499 0.950 . S
H474 C500 0.950 . S
H475 C502 0.950 . S
H476 C505 0.950 . S
H477 C506 0.950 . S
H478 C508 0.950 . S
H479 C509 0.950 . S
C480 H462 0.951 . S
C480 C481 1.366 . S
C480 C482 1.388 . S
C481 C480 1.366 . S
C481 C485 1.385 . S
C482 H463 0.951 . S
C482 C480 1.388 . S
C482 C483 1.366 . S
C483 C482 1.366 . S
C483 C484 1.414 . S
C483 C486 1.499 . S
C484 H464 0.950 . S
C484 C483 1.414 . S
C484 C485 1.374 . S
C485 H465 0.950 . S
C485 C481 1.385 . S
C485 C484 1.374 . S
C486 C483 1.499 . S
C486 C487 1.373 . S
C486 C488 1.389 . S
C487 H466 0.950 . S
C487 C486 1.373 . S
C487 C503 1.377 1_565 S
C488 C486 1.389 . S
C488 C489 1.524 . S
C488 C502 1.377 1_565 S
C489 C488 1.524 . S
C489 C490 1.397 . S
C489 C494 1.363 . S
C490 H467 0.950 . S
C490 C489 1.397 . S
C490 C491 1.334 . S
C491 H468 0.950 . S
C491 C490 1.334 . S
C491 C492 1.287 . S
C492 C491 1.287 . S
C492 C493 1.524 . S
C492 H511 0.913 . S
C493 H469 0.950 . S
C493 C492 1.524 . S
C493 C494 1.415 . S
C494 H470 0.950 . S
C494 C489 1.363 . S
C494 C493 1.415 . S
C495 H471 0.951 . S
C495 C496 1.366 . S
C495 C497 1.388 . S
C496 C495 1.366 . S
C496 C500 1.385 . S
C497 H472 0.951 . S
C497 C495 1.388 . S
C497 C498 1.366 . S
C498 C497 1.366 . S
C498 C499 1.414 . S
C498 C501 1.499 . S
C499 H473 0.950 . S
C499 C498 1.414 . S
C499 C500 1.374 . S
C500 H474 0.950 . S
C500 C496 1.385 . S
C500 C499 1.374 . S
C501 C498 1.499 . S
C501 C502 1.373 . S
C501 C503 1.389 . S
C502 H475 0.950 . S
C502 C488 1.377 1_545 S
C502 C501 1.373 . S
C503 C487 1.377 1_545 S
C503 C501 1.389 . S
C503 C504 1.524 . S
C504 C503 1.524 . S
C504 C505 1.397 . S
C504 C509 1.363 . S
C505 H476 0.950 . S
C505 C504 1.397 . S
C505 C506 1.334 . S
C506 H477 0.950 . S
C506 C505 1.334 . S
C506 C507 1.287 . S
C507 C506 1.287 . S
C507 C508 1.524 . S
C507 H510 0.999 . S
C508 H478 0.950 . S
C508 C507 1.524 . S
C508 C509 1.415 . S
C509 H479 0.950 . S
C509 C504 1.363 . S
C509 C508 1.415 . S
H510 C507 0.999 . S
H511 C492 0.913 . S
H512 C530 0.951 . S
H513 C532 0.951 . S
H514 C534 0.950 . S
H515 C535 0.950 . S
H516 C537 0.950 . S
H517 C540 0.950 . S
H518 C541 0.950 . S
H519 C543 0.950 . S
H520 C544 0.950 . S
H521 C545 0.951 . S
H522 C547 0.951 . S
H523 C549 0.950 . S
H524 C550 0.950 . S
H525 C552 0.950 . S
H526 C555 0.950 . S
H527 C556 0.950 . S
H528 C558 0.950 . S
H529 C559 0.950 . S
C530 H512 0.951 . S
C530 C531 1.366 . S
C530 C532 1.388 . S
C531 C530 1.366 . S
C531 C535 1.385 . S
C532 H513 0.951 . S
C532 C530 1.388 . S
C532 C533 1.366 . S
C533 C532 1.366 . S
C533 C534 1.414 . S
C533 C536 1.499 . S
C534 H514 0.950 . S
C534 C533 1.414 . S
C534 C535 1.374 . S
C535 H515 0.950 . S
C535 C531 1.385 . S
C535 C534 1.374 . S
C536 C533 1.499 . S
C536 C537 1.373 . S
C536 C538 1.389 . S
C537 H516 0.950 . S
C537 C536 1.373 . S
C537 C553 1.377 . S
C538 C536 1.389 . S
C538 C539 1.524 . S
C538 C552 1.377 . S
C539 C538 1.524 . S
C539 C540 1.397 . S
C539 C544 1.363 . S
C540 H517 0.950 . S
C540 C539 1.397 . S
C540 C541 1.334 . S
C541 H518 0.950 . S
C541 C540 1.334 . S
C541 C542 1.287 . S
C542 C541 1.287 . S
C542 C543 1.524 . S
C542 H561 0.913 . S
C543 H519 0.950 . S
C543 C542 1.524 . S
C543 C544 1.415 . S
C544 H520 0.950 . S
C544 C539 1.363 . S
C544 C543 1.415 . S
C545 H521 0.951 . S
C545 C546 1.366 . S
C545 C547 1.388 . S
C546 C545 1.366 . S
C546 C550 1.385 . S
C547 H522 0.951 . S
C547 C545 1.388 . S
C547 C548 1.366 . S
C548 C547 1.366 . S
C548 C549 1.414 . S
C548 C551 1.499 . S
C549 H523 0.950 . S
C549 C548 1.414 . S
C549 C550 1.374 . S
C550 H524 0.950 . S
C550 C546 1.385 . S
C550 C549 1.374 . S
C551 C548 1.499 . S
C551 C552 1.373 . S
C551 C553 1.389 . S
C552 H525 0.950 . S
C552 C538 1.377 . S
C552 C551 1.373 . S
C553 C537 1.377 . S
C553 C551 1.389 . S
C553 C554 1.524 . S
C554 C553 1.524 . S
C554 C555 1.397 . S
C554 C559 1.363 . S
C555 H526 0.950 . S
C555 C554 1.397 . S
C555 C556 1.334 . S
C556 H527 0.950 . S
C556 C555 1.334 . S
C556 C557 1.287 . S
C557 C556 1.287 . S
C557 C558 1.524 . S
C557 H560 0.999 . S
C558 H528 0.950 . S
C558 C557 1.524 . S
C558 C559 1.415 . S
C559 H529 0.950 . S
C559 C554 1.363 . S
C559 C558 1.415 . S
H560 C557 0.999 . S
H561 C542 0.913 . S
H562 C580 0.951 . S
H563 C582 0.951 . S
H564 C584 0.950 . S
H565 C585 0.950 . S
H566 C587 0.950 . S
H567 C590 0.950 . S
H568 C591 0.950 . S
H569 C593 0.959 1_655 S
H570 C594 0.958 . S
H571 C595 0.951 . S
H572 C597 0.951 . S
H573 C599 0.950 . S
H574 C600 0.950 . S
H575 C602 0.950 . S
H576 C605 0.950 . S
H577 C606 0.950 . S
H578 C608 0.959 1_455 S
H579 C609 0.958 . S
C580 H562 0.951 . S
C580 C581 1.366 . S
C580 C582 1.388 . S
C581 C580 1.366 . S
C581 C585 1.385 . S
C582 H563 0.951 . S
C582 C580 1.388 . S
C582 C583 1.366 . S
C583 C582 1.366 . S
C583 C584 1.414 . S
C583 C586 1.499 . S
C584 H564 0.950 . S
C584 C583 1.414 . S
C584 C585 1.374 . S
C585 H565 0.950 . S
C585 C581 1.385 . S
C585 C584 1.374 . S
C586 C583 1.499 . S
C586 C587 1.373 . S
C586 C588 1.389 . S
C587 H566 0.950 . S
C587 C586 1.373 . S
C587 C603 1.377 1_455 S
C588 C586 1.389 . S
C588 C589 1.524 . S
C588 C602 1.377 1_455 S
C589 C588 1.524 . S
C589 C590 1.397 . S
C589 C594 1.371 1_455 S
C590 H567 0.950 . S
C590 C589 1.397 . S
C590 C591 1.334 . S
C591 H568 0.950 . S
C591 C590 1.334 . S
C591 C592 1.287 . S
C592 C591 1.287 . S
C592 C593 1.525 . S
C592 H611 0.913 . S
C593 H569 0.959 1_455 S
C593 C592 1.525 . S
C593 C594 1.398 1_455 S
C594 H570 0.958 . S
C594 C589 1.371 1_655 S
C594 C593 1.398 1_655 S
C595 H571 0.951 . S
C595 C596 1.366 . S
C595 C597 1.388 . S
C596 C595 1.366 . S
C596 C600 1.385 . S
C597 H572 0.951 . S
C597 C595 1.388 . S
C597 C598 1.366 . S
C598 C597 1.366 . S
C598 C599 1.414 . S
C598 C601 1.499 . S
C599 H573 0.950 . S
C599 C598 1.414 . S
C599 C600 1.374 . S
C600 H574 0.950 . S
C600 C596 1.385 . S
C600 C599 1.374 . S
C601 C598 1.499 . S
C601 C602 1.373 . S
C601 C603 1.389 . S
C602 H575 0.950 . S
C602 C588 1.377 1_655 S
C602 C601 1.373 . S
C603 C587 1.377 1_655 S
C603 C601 1.389 . S
C603 C604 1.524 . S
C604 C603 1.524 . S
C604 C605 1.397 . S
C604 C609 1.371 1_655 S
C605 H576 0.950 . S
C605 C604 1.397 . S
C605 C606 1.334 . S
C606 H577 0.950 . S
C606 C605 1.334 . S
C606 C607 1.287 . S
C607 C606 1.287 . S
C607 C608 1.525 . S
C607 H610 0.999 . S
C608 H578 0.959 1_655 S
C608 C607 1.525 . S
C608 C609 1.398 1_655 S
C609 H579 0.958 . S
C609 C604 1.371 1_455 S
C609 C608 1.398 1_455 S
H610 C607 0.999 . S
H611 C592 0.913 . S
H612 C630 0.951 . S
H613 C632 0.951 . S
H614 C634 0.950 . S
H615 C635 0.950 . S
H616 C637 0.950 . S
H617 C640 0.950 . S
H618 C641 0.950 . S
H619 C643 0.950 . S
H620 C644 0.950 . S
H621 C645 0.951 . S
H622 C647 0.951 . S
H623 C649 0.950 . S
H624 C650 0.950 . S
H625 C652 0.950 . S
H626 C655 0.950 . S
H627 C656 0.950 . S
H628 C658 0.950 . S
H629 C659 0.950 . S
C630 H612 0.951 . S
C630 C631 1.366 . S
C630 C632 1.388 . S
C631 C630 1.366 . S
C631 C635 1.385 . S
C632 H613 0.951 . S
C632 C630 1.388 . S
C632 C633 1.366 . S
C633 C632 1.366 . S
C633 C634 1.414 . S
C633 C636 1.499 . S
C634 H614 0.950 . S
C634 C633 1.414 . S
C634 C635 1.374 . S
C635 H615 0.950 . S
C635 C631 1.385 . S
C635 C634 1.374 . S
C636 C633 1.499 . S
C636 C637 1.373 . S
C636 C638 1.389 . S
C637 H616 0.950 . S
C637 C636 1.373 . S
C637 C653 1.377 1_565 S
C638 C636 1.389 . S
C638 C639 1.524 . S
C638 C652 1.377 1_565 S
C639 C638 1.524 . S
C639 C640 1.397 . S
C639 C644 1.363 . S
C640 H617 0.950 . S
C640 C639 1.397 . S
C640 C641 1.334 . S
C641 H618 0.950 . S
C641 C640 1.334 . S
C641 C642 1.287 . S
C642 C641 1.287 . S
C642 C643 1.524 . S
C642 H661 0.913 . S
C643 H619 0.950 . S
C643 C642 1.524 . S
C643 C644 1.415 . S
C644 H620 0.950 . S
C644 C639 1.363 . S
C644 C643 1.415 . S
C645 H621 0.951 . S
C645 C646 1.366 . S
C645 C647 1.388 . S
C646 C645 1.366 . S
C646 C650 1.385 . S
C647 H622 0.951 . S
C647 C645 1.388 . S
C647 C648 1.366 . S
C648 C647 1.366 . S
C648 C649 1.414 . S
C648 C651 1.499 . S
C649 H623 0.950 . S
C649 C648 1.414 . S
C649 C650 1.374 . S
C650 H624 0.950 . S
C650 C646 1.385 . S
C650 C649 1.374 . S
C651 C648 1.499 . S
C651 C652 1.373 . S
C651 C653 1.389 . S
C652 H625 0.950 . S
C652 C638 1.377 1_545 S
C652 C651 1.373 . S
C653 C637 1.377 1_545 S
C653 C651 1.389 . S
C653 C654 1.524 . S
C654 C653 1.524 . S
C654 C655 1.397 . S
C654 C659 1.363 . S
C655 H626 0.950 . S
C655 C654 1.397 . S
C655 C656 1.334 . S
C656 H627 0.950 . S
C656 C655 1.334 . S
C656 C657 1.287 . S
C657 C656 1.287 . S
C657 C658 1.524 . S
C657 H660 0.999 . S
C658 H628 0.950 . S
C658 C657 1.524 . S
C658 C659 1.415 . S
C659 H629 0.950 . S
C659 C654 1.363 . S
C659 C658 1.415 . S
H660 C657 0.999 . S
H661 C642 0.913 . S
H662 C680 0.951 . S
H663 C682 0.951 . S
H664 C684 0.950 . S
H665 C685 0.950 . S
H666 C687 0.950 . S
H667 C690 0.950 . S
H668 C691 0.950 . S
H669 C693 0.950 . S
H670 C694 0.950 . S
H671 C695 0.951 . S
H672 C697 0.951 . S
H673 C699 0.950 . S
H674 C700 0.950 . S
H675 C702 0.950 . S
H676 C705 0.950 . S
H677 C706 0.950 . S
H678 C708 0.950 . S
H679 C709 0.950 . S
C680 H662 0.951 . S
C680 C681 1.366 . S
C680 C682 1.388 . S
C681 C680 1.366 . S
C681 C685 1.385 . S
C682 H663 0.951 . S
C682 C680 1.388 . S
C682 C683 1.366 . S
C683 C682 1.366 . S
C683 C684 1.414 . S
C683 C686 1.499 . S
C684 H664 0.950 . S
C684 C683 1.414 . S
C684 C685 1.374 . S
C685 H665 0.950 . S
C685 C681 1.385 . S
C685 C684 1.374 . S
C686 C683 1.499 . S
C686 C687 1.373 . S
C686 C688 1.389 . S
C687 H666 0.950 . S
C687 C686 1.373 . S
C687 C703 1.377 . S
C688 C686 1.389 . S
C688 C689 1.524 . S
C688 C702 1.377 . S
C689 C688 1.524 . S
C689 C690 1.397 . S
C689 C694 1.363 . S
C690 H667 0.950 . S
C690 C689 1.397 . S
C690 C691 1.334 . S
C691 H668 0.950 . S
C691 C690 1.334 . S
C691 C692 1.287 . S
C692 C691 1.287 . S
C692 C693 1.524 . S
C692 H711 0.913 . S
C693 H669 0.950 . S
C693 C692 1.524 . S
C693 C694 1.415 . S
C694 H670 0.950 . S
C694 C689 1.363 . S
C694 C693 1.415 . S
C695 H671 0.951 . S
C695 C696 1.366 . S
C695 C697 1.388 . S
C696 C695 1.366 . S
C696 C700 1.385 . S
C697 H672 0.951 . S
C697 C695 1.388 . S
C697 C698 1.366 . S
C698 C697 1.366 . S
C698 C699 1.414 . S
C698 C701 1.499 . S
C699 H673 0.950 . S
C699 C698 1.414 . S
C699 C700 1.374 . S
C700 H674 0.950 . S
C700 C696 1.385 . S
C700 C699 1.374 . S
C701 C698 1.499 . S
C701 C702 1.373 . S
C701 C703 1.389 . S
C702 H675 0.950 . S
C702 C688 1.377 . S
C702 C701 1.373 . S
C703 C687 1.377 . S
C703 C701 1.389 . S
C703 C704 1.524 . S
C704 C703 1.524 . S
C704 C705 1.397 . S
C704 C709 1.363 . S
C705 H676 0.950 . S
C705 C704 1.397 . S
C705 C706 1.334 . S
C706 H677 0.950 . S
C706 C705 1.334 . S
C706 C707 1.287 . S
C707 C706 1.287 . S
C707 C708 1.524 . S
C707 H710 0.999 . S
C708 H678 0.950 . S
C708 C707 1.524 . S
C708 C709 1.415 . S
C709 H679 0.950 . S
C709 C704 1.363 . S
C709 C708 1.415 . S
H710 C707 0.999 . S
H711 C692 0.913 . S
H712 C730 0.951 . S
H713 C732 0.951 . S
H714 C734 0.950 . S
H715 C735 0.950 . S
H716 C737 0.950 . S
H717 C740 0.950 . S
H718 C741 0.950 . S
H719 C743 0.950 . S
H720 C744 0.950 1_455 S
H721 C745 0.951 . S
H722 C747 0.951 . S
H723 C749 0.950 . S
H724 C750 0.950 . S
H725 C752 0.950 . S
H726 C755 0.950 . S
H727 C756 0.950 . S
H728 C758 0.950 . S
H729 C759 0.950 1_655 S
C730 H712 0.951 . S
C730 C731 1.366 . S
C730 C732 1.388 . S
C731 C730 1.366 . S
C731 C735 1.385 . S
C732 H713 0.951 . S
C732 C730 1.388 . S
C732 C733 1.366 . S
C733 C732 1.366 . S
C733 C734 1.414 . S
C733 C736 1.499 . S
C734 H714 0.950 . S
C734 C733 1.414 . S
C734 C735 1.374 . S
C735 H715 0.950 . S
C735 C731 1.385 . S
C735 C734 1.374 . S
C736 C733 1.499 . S
C736 C737 1.373 . S
C736 C738 1.389 . S
C737 H716 0.950 . S
C737 C736 1.373 . S
C737 C753 1.377 1_655 S
C738 C736 1.389 . S
C738 C739 1.524 . S
C738 C752 1.377 1_655 S
C739 C738 1.524 . S
C739 C740 1.397 . S
C739 C744 1.363 . S
C740 H717 0.950 . S
C740 C739 1.397 . S
C740 C741 1.334 . S
C741 H718 0.950 . S
C741 C740 1.334 . S
C741 C742 1.287 . S
C742 C741 1.287 . S
C742 C743 1.524 . S
C742 H761 0.913 . S
C743 H719 0.950 . S
C743 C742 1.524 . S
C743 C744 1.415 . S
C744 H720 0.950 1_655 S
C744 C739 1.363 . S
C744 C743 1.415 . S
C745 H721 0.951 . S
C745 C746 1.366 . S
C745 C747 1.388 . S
C746 C745 1.366 . S
C746 C750 1.385 . S
C747 H722 0.951 . S
C747 C745 1.388 . S
C747 C748 1.366 . S
C748 C747 1.366 . S
C748 C749 1.414 . S
C748 C751 1.499 . S
C749 H723 0.950 . S
C749 C748 1.414 . S
C749 C750 1.374 . S
C750 H724 0.950 . S
C750 C746 1.385 . S
C750 C749 1.374 . S
C751 C748 1.499 . S
C751 C752 1.373 . S
C751 C753 1.389 . S
C752 H725 0.950 . S
C752 C738 1.377 1_455 S
C752 C751 1.373 . S
C753 C737 1.377 1_455 S
C753 C751 1.389 . S
C753 C754 1.524 . S
C754 C753 1.524 . S
C754 C755 1.397 . S
C754 C759 1.363 . S
C755 H726 0.950 . S
C755 C754 1.397 . S
C755 C756 1.334 . S
C756 H727 0.950 . S
C756 C755 1.334 . S
C756 C757 1.287 . S
C757 C756 1.287 . S
C757 C758 1.524 . S
C757 H760 0.999 . S
C758 H728 0.950 . S
C758 C757 1.524 . S
C758 C759 1.415 . S
C759 H729 0.950 1_455 S
C759 C754 1.363 . S
C759 C758 1.415 . S
H760 C757 0.999 . S
H761 C742 0.913 . S
H762 C780 0.951 . S
H763 C782 0.951 . S
H764 C784 0.950 . S
H765 C785 0.950 . S
H766 C787 0.950 . S
H767 C790 0.950 . S
H768 C791 0.950 . S
H769 C793 0.950 . S
H770 C794 0.950 . S
H771 C795 0.951 . S
H772 C797 0.951 . S
H773 C799 0.950 . S
H774 C800 0.950 . S
H775 C802 0.950 . S
H776 C805 0.950 . S
H777 C806 0.950 . S
H778 C808 0.950 . S
H779 C809 0.950 . S
C780 H762 0.951 . S
C780 C781 1.366 . S
C780 C782 1.388 . S
C781 C780 1.366 . S
C781 C785 1.385 . S
C782 H763 0.951 . S
C782 C780 1.388 . S
C782 C783 1.366 . S
C783 C782 1.366 . S
C783 C784 1.414 . S
C783 C786 1.499 . S
C784 H764 0.950 . S
C784 C783 1.414 . S
C784 C785 1.374 . S
C785 H765 0.950 . S
C785 C781 1.385 . S
C785 C784 1.374 . S
C786 C783 1.499 . S
C786 C787 1.373 . S
C786 C788 1.389 . S
C787 H766 0.950 . S
C787 C786 1.373 . S
C787 C803 1.377 1_545 S
C788 C786 1.389 . S
C788 C789 1.524 . S
C788 C802 1.377 1_545 S
C789 C788 1.524 . S
C789 C790 1.397 . S
C789 C794 1.363 . S
C790 H767 0.950 . S
C790 C789 1.397 . S
C790 C791 1.334 . S
C791 H768 0.950 . S
C791 C790 1.334 . S
C791 C792 1.287 . S
C792 C791 1.287 . S
C792 C793 1.524 . S
C792 H811 0.913 . S
C793 H769 0.950 . S
C793 C792 1.524 . S
C793 C794 1.415 . S
C794 H770 0.950 . S
C794 C789 1.363 . S
C794 C793 1.415 . S
C795 H771 0.951 . S
C795 C796 1.366 . S
C795 C797 1.388 . S
C796 C795 1.366 . S
C796 C800 1.385 . S
C797 H772 0.951 . S
C797 C795 1.388 . S
C797 C798 1.366 . S
C798 C797 1.366 . S
C798 C799 1.414 . S
C798 C801 1.499 . S
C799 H773 0.950 . S
C799 C798 1.414 . S
C799 C800 1.374 . S
C800 H774 0.950 . S
C800 C796 1.385 . S
C800 C799 1.374 . S
C801 C798 1.499 . S
C801 C802 1.373 . S
C801 C803 1.389 . S
C802 H775 0.950 . S
C802 C788 1.377 1_565 S
C802 C801 1.373 . S
C803 C787 1.377 1_565 S
C803 C801 1.389 . S
C803 C804 1.524 . S
C804 C803 1.524 . S
C804 C805 1.397 . S
C804 C809 1.363 . S
C805 H776 0.950 . S
C805 C804 1.397 . S
C805 C806 1.334 . S
C806 H777 0.950 . S
C806 C805 1.334 . S
C806 C807 1.287 . S
C807 C806 1.287 . S
C807 C808 1.524 . S
C807 H810 0.999 . S
C808 H778 0.950 . S
C808 C807 1.524 . S
C808 C809 1.415 . S
C809 H779 0.950 . S
C809 C804 1.363 . S
C809 C808 1.415 . S
H810 C807 0.999 . S
H811 C792 0.913 . S
H812 C830 0.951 . S
H813 C832 0.951 . S
H814 C834 0.950 . S
H815 C835 0.950 . S
H816 C837 0.950 . S
H817 C840 0.950 . S
H818 C841 0.950 . S
H819 C843 0.950 . S
H820 C844 0.950 . S
H821 C845 0.951 . S
H822 C847 0.951 . S
H823 C849 0.950 . S
H824 C850 0.950 . S
H825 C852 0.950 . S
H826 C855 0.950 . S
H827 C856 0.950 . S
H828 C858 0.950 . S
H829 C859 0.950 . S
C830 H812 0.951 . S
C830 C831 1.366 . S
C830 C832 1.388 . S
C831 C830 1.366 . S
C831 C835 1.385 . S
C832 H813 0.951 . S
C832 C830 1.388 . S
C832 C833 1.366 . S
C833 C832 1.366 . S
C833 C834 1.414 . S
C833 C836 1.499 . S
C834 H814 0.950 . S
C834 C833 1.414 . S
C834 C835 1.374 . S
C835 H815 0.950 . S
C835 C831 1.385 . S
C835 C834 1.374 . S
C836 C833 1.499 . S
C836 C837 1.373 . S
C836 C838 1.389 . S
C837 H816 0.950 . S
C837 C836 1.373 . S
C837 C853 1.377 . S
C838 C836 1.389 . S
C838 C839 1.524 . S
C838 C852 1.377 . S
C839 C838 1.524 . S
C839 C840 1.397 . S
C839 C844 1.363 . S
C840 H817 0.950 . S
C840 C839 1.397 . S
C840 C841 1.334 . S
C841 H818 0.950 . S
C841 C840 1.334 . S
C841 C842 1.287 . S
C842 C841 1.287 . S
C842 C843 1.524 . S
C842 H861 0.913 . S
C843 H819 0.950 . S
C843 C842 1.524 . S
C843 C844 1.415 . S
C844 H820 0.950 . S
C844 C839 1.363 . S
C844 C843 1.415 . S
C845 H821 0.951 . S
C845 C846 1.366 . S
C845 C847 1.388 . S
C846 C845 1.366 . S
C846 C850 1.385 . S
C847 H822 0.951 . S
C847 C845 1.388 . S
C847 C848 1.366 . S
C848 C847 1.366 . S
C848 C849 1.414 . S
C848 C851 1.499 . S
C849 H823 0.950 . S
C849 C848 1.414 . S
C849 C850 1.374 . S
C850 H824 0.950 . S
C850 C846 1.385 . S
C850 C849 1.374 . S
C851 C848 1.499 . S
C851 C852 1.373 . S
C851 C853 1.389 . S
C852 H825 0.950 . S
C852 C838 1.377 . S
C852 C851 1.373 . S
C853 C837 1.377 . S
C853 C851 1.389 . S
C853 C854 1.524 . S
C854 C853 1.524 . S
C854 C855 1.397 . S
C854 C859 1.363 . S
C855 H826 0.950 . S
C855 C854 1.397 . S
C855 C856 1.334 . S
C856 H827 0.950 . S
C856 C855 1.334 . S
C856 C857 1.287 . S
C857 C856 1.287 . S
C857 C858 1.524 . S
C857 H860 0.999 . S
C858 H828 0.950 . S
C858 C857 1.524 . S
C858 C859 1.415 . S
C859 H829 0.950 . S
C859 C854 1.363 . S
C859 C858 1.415 . S
H860 C857 0.999 . S
H861 C842 0.913 . S
H862 C880 0.951 . S
H863 C882 0.951 . S
H864 C884 0.950 . S
H865 C885 0.950 . S
H866 C887 0.950 . S
H867 C890 0.950 . S
H868 C891 0.950 . S
H869 C893 0.950 . S
H870 C894 0.918 1_655 S
H871 C895 0.951 . S
H872 C897 0.951 . S
H873 C899 0.950 . S
H874 C900 0.950 . S
H875 C902 0.950 . S
H876 C905 0.950 . S
H877 C906 0.950 . S
H878 C908 0.950 . S
H879 C909 0.918 1_455 S
C880 H862 0.951 . S
C880 C881 1.366 . S
C880 C882 1.388 . S
C881 C880 1.366 . S
C881 C885 1.385 . S
C882 H863 0.951 . S
C882 C880 1.388 . S
C882 C883 1.366 . S
C883 C882 1.366 . S
C883 C884 1.414 . S
C883 C886 1.499 . S
C884 H864 0.950 . S
C884 C883 1.414 . S
C884 C885 1.374 . S
C885 H865 0.950 . S
C885 C881 1.385 . S
C885 C884 1.374 . S
C886 C883 1.499 . S
C886 C887 1.373 . S
C886 C888 1.389 . S
C887 H866 0.950 . S
C887 C886 1.373 . S
C887 C903 1.377 1_455 S
C888 C886 1.389 . S
C888 C889 1.524 . S
C888 C902 1.377 1_455 S
C889 C888 1.524 . S
C889 C890 1.397 . S
C889 C894 1.363 . S
C890 H867 0.950 . S
C890 C889 1.397 . S
C890 C891 1.334 . S
C891 H868 0.950 . S
C891 C890 1.334 . S
C891 C892 1.287 . S
C892 C891 1.287 . S
C892 C893 1.524 . S
C892 H911 0.913 . S
C893 H869 0.950 . S
C893 C892 1.524 . S
C893 C894 1.415 . S
C894 H870 0.918 1_455 S
C894 C889 1.363 . S
C894 C893 1.415 . S
C895 H871 0.951 . S
C895 C896 1.366 . S
C895 C897 1.388 . S
C896 C895 1.366 . S
C896 C900 1.385 . S
C897 H872 0.951 . S
C897 C895 1.388 . S
C897 C898 1.366 . S
C898 C897 1.366 . S
C898 C899 1.414 . S
C898 C901 1.499 . S
C899 H873 0.950 . S
C899 C898 1.414 . S
C899 C900 1.374 . S
C900 H874 0.950 . S
C900 C896 1.385 . S
C900 C899 1.374 . S
C901 C898 1.499 . S
C901 C902 1.373 . S
C901 C903 1.389 . S
C902 H875 0.950 . S
C902 C888 1.377 1_655 S
C902 C901 1.373 . S
C903 C887 1.377 1_655 S
C903 C901 1.389 . S
C903 C904 1.524 . S
C904 C903 1.524 . S
C904 C905 1.397 . S
C904 C909 1.363 . S
C905 H876 0.950 . S
C905 C904 1.397 . S
C905 C906 1.334 . S
C906 H877 0.950 . S
C906 C905 1.334 . S
C906 C907 1.287 . S
C907 C906 1.287 . S
C907 C908 1.524 . S
C907 H910 0.999 . S
C908 H878 0.950 . S
C908 C907 1.524 . S
C908 C909 1.415 . S
C909 H879 0.918 1_655 S
C909 C904 1.363 . S
C909 C908 1.415 . S
H910 C907 0.999 . S
H911 C892 0.913 . S
H912 C930 0.951 . S
H913 C932 0.951 . S
H914 C934 0.950 . S
H915 C935 0.950 . S
H916 C937 0.950 . S
H917 C940 0.950 . S
H918 C941 0.950 . S
H919 C943 0.950 . S
H920 C944 0.950 . S
H921 C945 0.951 . S
H922 C947 0.951 . S
H923 C949 0.950 . S
H924 C950 0.950 . S
H925 C952 0.950 . S
H926 C955 0.950 . S
H927 C956 0.950 . S
H928 C958 0.950 . S
H929 C959 0.950 . S
C930 H912 0.951 . S
C930 C931 1.366 . S
C930 C932 1.388 . S
C931 C930 1.366 . S
C931 C935 1.385 . S
C932 H913 0.951 . S
C932 C930 1.388 . S
C932 C933 1.366 . S
C933 C932 1.366 . S
C933 C934 1.414 . S
C933 C936 1.499 . S
C934 H914 0.950 . S
C934 C933 1.414 . S
C934 C935 1.374 . S
C935 H915 0.950 . S
C935 C931 1.385 . S
C935 C934 1.374 . S
C936 C933 1.499 . S
C936 C937 1.373 . S
C936 C938 1.389 . S
C937 H916 0.950 . S
C937 C936 1.373 . S
C937 C953 1.377 . S
C938 C936 1.389 . S
C938 C939 1.524 . S
C938 C952 1.377 . S
C939 C938 1.524 . S
C939 C940 1.397 . S
C939 C944 1.363 . S
C940 H917 0.950 . S
C940 C939 1.397 . S
C940 C941 1.334 . S
C941 H918 0.950 . S
C941 C940 1.334 . S
C941 C942 1.287 . S
C942 C941 1.287 . S
C942 C943 1.524 . S
C942 H961 0.913 . S
C943 H919 0.950 . S
C943 C942 1.524 . S
C943 C944 1.415 . S
C944 H920 0.950 . S
C944 C939 1.363 . S
C944 C943 1.415 . S
C945 H921 0.951 . S
C945 C946 1.366 . S
C945 C947 1.388 . S
C946 C945 1.366 . S
C946 C950 1.385 . S
C947 H922 0.951 . S
C947 C945 1.388 . S
C947 C948 1.366 . S
C948 C947 1.366 . S
C948 C949 1.414 . S
C948 C951 1.499 . S
C949 H923 0.950 . S
C949 C948 1.414 . S
C949 C950 1.374 . S
C950 H924 0.950 . S
C950 C946 1.385 . S
C950 C949 1.374 . S
C951 C948 1.499 . S
C951 C952 1.373 . S
C951 C953 1.389 . S
C952 H925 0.950 . S
C952 C938 1.377 . S
C952 C951 1.373 . S
C953 C937 1.377 . S
C953 C951 1.389 . S
C953 C954 1.524 . S
C954 C953 1.524 . S
C954 C955 1.397 . S
C954 C959 1.363 . S
C955 H926 0.950 . S
C955 C954 1.397 . S
C955 C956 1.334 . S
C956 H927 0.950 . S
C956 C955 1.334 . S
C956 C957 1.287 . S
C957 C956 1.287 . S
C957 C958 1.524 . S
C957 H960 0.999 . S
C958 H928 0.950 . S
C958 C957 1.524 . S
C958 C959 1.415 . S
C959 H929 0.950 . S
C959 C954 1.363 . S
C959 C958 1.415 . S
H960 C957 0.999 . S
H961 C942 0.913 . S
H962 C980 0.951 . S
H963 C982 0.951 . S
H964 C984 0.950 . S
H965 C985 0.950 . S
H966 C987 0.950 . S
H967 C990 0.950 . S
H968 C991 0.950 . S
H969 C993 0.950 . S
H970 C994 0.950 . S
H971 C995 0.951 . S
H972 C997 0.951 . S
H973 C999 0.950 . S
H974 C1000 0.950 . S
H975 C1002 0.950 . S
H976 C1005 0.950 . S
H977 C1006 0.950 . S
H978 C1008 0.950 . S
H979 C1009 0.950 . S
C980 H962 0.951 . S
C980 C981 1.366 . S
C980 C982 1.388 . S
C981 C980 1.366 . S
C981 C985 1.385 . S
C982 H963 0.951 . S
C982 C980 1.388 . S
C982 C983 1.366 . S
C983 C982 1.366 . S
C983 C984 1.414 . S
C983 C986 1.499 . S
C984 H964 0.950 . S
C984 C983 1.414 . S
C984 C985 1.374 . S
C985 H965 0.950 . S
C985 C981 1.385 . S
C985 C984 1.374 . S
C986 C983 1.499 . S
C986 C987 1.373 . S
C986 C988 1.389 . S
C987 H966 0.950 . S
C987 C986 1.373 . S
C987 C1003 1.377 . S
C988 C986 1.389 . S
C988 C989 1.524 . S
C988 C1002 1.377 . S
C989 C988 1.524 . S
C989 C990 1.397 . S
C989 C994 1.363 . S
C990 H967 0.950 . S
C990 C989 1.397 . S
C990 C991 1.334 . S
C991 H968 0.950 . S
C991 C990 1.334 . S
C991 C992 1.287 . S
C992 C991 1.287 . S
C992 C993 1.524 . S
C992 H1011 0.913 . S
C993 H969 0.950 . S
C993 C992 1.524 . S
C993 C994 1.415 . S
C994 H970 0.950 . S
C994 C989 1.363 . S
C994 C993 1.415 . S
C995 H971 0.951 . S
C995 C996 1.366 . S
C995 C997 1.388 . S
C996 C995 1.366 . S
C996 C1000 1.385 . S
C997 H972 0.951 . S
C997 C995 1.388 . S
C997 C998 1.366 . S
C998 C997 1.366 . S
C998 C999 1.414 . S
C998 C1001 1.499 . S
C999 H973 0.950 . S
C999 C998 1.414 . S
C999 C1000 1.374 . S
C1000 H974 0.950 . S
C1000 C996 1.385 . S
C1000 C999 1.374 . S
C1001 C998 1.499 . S
C1001 C1002 1.373 . S
C1001 C1003 1.389 . S
C1002 H975 0.950 . S
C1002 C988 1.377 . S
C1002 C1001 1.373 . S
C1003 C987 1.377 . S
C1003 C1001 1.389 . S
C1003 C1004 1.524 . S
C1004 C1003 1.524 . S
C1004 C1005 1.397 . S
C1004 C1009 1.363 . S
C1005 H976 0.950 . S
C1005 C1004 1.397 . S
C1005 C1006 1.334 . S
C1006 H977 0.950 . S
C1006 C1005 1.334 . S
C1006 C1007 1.287 . S
C1007 C1006 1.287 . S
C1007 C1008 1.524 . S
C1007 H1010 0.999 . S
C1008 H978 0.950 . S
C1008 C1007 1.524 . S
C1008 C1009 1.415 . S
C1009 H979 0.950 . S
C1009 C1004 1.363 . S
C1009 C1008 1.415 . S
H1010 C1007 0.999 . S
H1011 C992 0.913 . S
H1012 C1030 0.951 . S
H1013 C1032 0.951 . S
H1014 C1034 0.950 . S
H1015 C1035 0.950 . S
H1016 C1037 0.950 . S
H1017 C1040 0.950 . S
H1018 C1041 0.950 . S
H1019 C1043 0.950 . S
H1020 C1044 0.950 . S
H1021 C1045 0.951 . S
H1022 C1047 0.951 . S
H1023 C1049 0.950 . S
H1024 C1050 0.950 . S
H1025 C1052 0.950 . S
H1026 C1055 0.950 . S
H1027 C1056 0.950 . S
H1028 C1058 0.950 . S
H1029 C1059 0.950 . S
C1030 H1012 0.951 . S
C1030 C1031 1.366 . S
C1030 C1032 1.388 . S
C1031 C1030 1.366 . S
C1031 C1035 1.385 . S
C1032 H1013 0.951 . S
C1032 C1030 1.388 . S
C1032 C1033 1.366 . S
C1033 C1032 1.366 . S
C1033 C1034 1.414 . S
C1033 C1036 1.499 . S
C1034 H1014 0.950 . S
C1034 C1033 1.414 . S
C1034 C1035 1.374 . S
C1035 H1015 0.950 . S
C1035 C1031 1.385 . S
C1035 C1034 1.374 . S
C1036 C1033 1.499 . S
C1036 C1037 1.373 . S
C1036 C1038 1.389 . S
C1037 H1016 0.950 . S
C1037 C1036 1.373 . S
C1037 C1053 1.377 . S
C1038 C1036 1.389 . S
C1038 C1039 1.524 . S
C1038 C1052 1.377 . S
C1039 C1038 1.524 . S
C1039 C1040 1.397 . S
C1039 C1044 1.363 . S
C1040 H1017 0.950 . S
C1040 C1039 1.397 . S
C1040 C1041 1.334 . S
C1041 H1018 0.950 . S
C1041 C1040 1.334 . S
C1041 C1042 1.287 . S
C1042 C1041 1.287 . S
C1042 C1043 1.524 . S
C1042 H1061 0.913 . S
C1043 H1019 0.950 . S
C1043 C1042 1.524 . S
C1043 C1044 1.415 . S
C1044 H1020 0.950 . S
C1044 C1039 1.363 . S
C1044 C1043 1.415 . S
C1045 H1021 0.951 . S
C1045 C1046 1.366 . S
C1045 C1047 1.388 . S
C1046 C1045 1.366 . S
C1046 C1050 1.385 . S
C1047 H1022 0.951 . S
C1047 C1045 1.388 . S
C1047 C1048 1.366 . S
C1048 C1047 1.366 . S
C1048 C1049 1.414 . S
C1048 C1051 1.499 . S
C1049 H1023 0.950 . S
C1049 C1048 1.414 . S
C1049 C1050 1.374 . S
C1050 H1024 0.950 . S
C1050 C1046 1.385 . S
C1050 C1049 1.374 . S
C1051 C1048 1.499 . S
C1051 C1052 1.373 . S
C1051 C1053 1.389 . S
C1052 H1025 0.950 . S
C1052 C1038 1.377 . S
C1052 C1051 1.373 . S
C1053 C1037 1.377 . S
C1053 C1051 1.389 . S
C1053 C1054 1.524 . S
C1054 C1053 1.524 . S
C1054 C1055 1.397 . S
C1054 C1059 1.363 . S
C1055 H1026 0.950 . S
C1055 C1054 1.397 . S
C1055 C1056 1.334 . S
C1056 H1027 0.950 . S
C1056 C1055 1.334 . S
C1056 C1057 1.287 . S
C1057 C1056 1.287 . S
C1057 C1058 1.524 . S
C1057 H1060 0.999 . S
C1058 H1028 0.950 . S
C1058 C1057 1.524 . S
C1058 C1059 1.415 . S
C1059 H1029 0.950 . S
C1059 C1054 1.363 . S
C1059 C1058 1.415 . S
H1060 C1057 0.999 . S
H1061 C1042 0.913 . S
H1062 C1080 0.951 . S
H1063 C1082 0.951 . S
H1064 C1084 0.950 . S
H1065 C1085 0.950 . S
H1066 C1087 0.950 . S
H1067 C1090 0.950 . S
H1068 C1091 0.950 . S
H1069 C1093 0.950 . S
H1070 C1094 0.950 . S
H1071 C1095 0.951 . S
H1072 C1097 0.951 . S
H1073 C1099 0.950 . S
H1074 C1100 0.950 . S
H1075 C1102 0.950 . S
H1076 C1105 0.950 . S
H1077 C1106 0.950 . S
H1078 C1108 0.950 . S
H1079 C1109 0.950 . S
C1080 H1062 0.951 . S
C1080 C1081 1.366 . S
C1080 C1082 1.388 . S
C1081 C1080 1.366 . S
C1081 C1085 1.385 . S
C1082 H1063 0.951 . S
C1082 C1080 1.388 . S
C1082 C1083 1.366 . S
C1083 C1082 1.366 . S
C1083 C1084 1.414 . S
C1083 C1086 1.499 . S
C1084 H1064 0.950 . S
C1084 C1083 1.414 . S
C1084 C1085 1.374 . S
C1085 H1065 0.950 . S
C1085 C1081 1.385 . S
C1085 C1084 1.374 . S
C1086 C1083 1.499 . S
C1086 C1087 1.373 . S
C1086 C1088 1.389 . S
C1087 H1066 0.950 . S
C1087 C1086 1.373 . S
C1087 C1103 1.377 . S
C1088 C1086 1.389 . S
C1088 C1089 1.524 . S
C1088 C1102 1.377 . S
C1089 C1088 1.524 . S
C1089 C1090 1.397 . S
C1089 C1094 1.363 . S
C1090 H1067 0.950 . S
C1090 C1089 1.397 . S
C1090 C1091 1.334 . S
C1091 H1068 0.950 . S
C1091 C1090 1.334 . S
C1091 C1092 1.287 . S
C1092 C1091 1.287 . S
C1092 C1093 1.524 . S
C1092 H1111 0.913 . S
C1093 H1069 0.950 . S
C1093 C1092 1.524 . S
C1093 C1094 1.415 . S
C1094 H1070 0.950 . S
C1094 C1089 1.363 . S
C1094 C1093 1.415 . S
C1095 H1071 0.951 . S
C1095 C1096 1.366 . S
C1095 C1097 1.388 . S
C1096 C1095 1.366 . S
C1096 C1100 1.385 . S
C1097 H1072 0.951 . S
C1097 C1095 1.388 . S
C1097 C1098 1.366 . S
C1098 C1097 1.366 . S
C1098 C1099 1.414 . S
C1098 C1101 1.499 . S
C1099 H1073 0.950 . S
C1099 C1098 1.414 . S
C1099 C1100 1.374 . S
C1100 H1074 0.950 . S
C1100 C1096 1.385 . S
C1100 C1099 1.374 . S
C1101 C1098 1.499 . S
C1101 C1102 1.373 . S
C1101 C1103 1.389 . S
C1102 H1075 0.950 . S
C1102 C1088 1.377 . S
C1102 C1101 1.373 . S
C1103 C1087 1.377 . S
C1103 C1101 1.389 . S
C1103 C1104 1.524 . S
C1104 C1103 1.524 . S
C1104 C1105 1.397 . S
C1104 C1109 1.363 . S
C1105 H1076 0.950 . S
C1105 C1104 1.397 . S
C1105 C1106 1.334 . S
C1106 H1077 0.950 . S
C1106 C1105 1.334 . S
C1106 C1107 1.287 . S
C1107 C1106 1.287 . S
C1107 C1108 1.524 . S
C1107 H1110 0.999 . S
C1108 H1078 0.950 . S
C1108 C1107 1.524 . S
C1108 C1109 1.415 . S
C1109 H1079 0.950 . S
C1109 C1104 1.363 . S
C1109 C1108 1.415 . S
H1110 C1107 0.999 . S
H1111 C1092 0.913 . S
H1112 C1130 0.951 . S
H1113 C1132 0.951 . S
H1114 C1134 0.950 . S
H1115 C1135 0.950 . S
H1116 C1137 0.950 . S
H1117 C1140 0.950 . S
H1118 C1141 0.950 . S
H1119 C1143 0.950 . S
H1120 C1144 0.950 . S
H1121 C1145 0.951 . S
H1122 C1147 0.951 . S
H1123 C1149 0.950 . S
H1124 C1150 0.950 . S
H1125 C1152 0.950 . S
H1126 C1155 0.950 . S
H1127 C1156 0.950 . S
H1128 C1158 0.950 . S
H1129 C1159 0.950 . S
C1130 H1112 0.951 . S
C1130 C1131 1.366 . S
C1130 C1132 1.388 . S
C1131 C1130 1.366 . S
C1131 C1135 1.385 . S
C1132 H1113 0.951 . S
C1132 C1130 1.388 . S
C1132 C1133 1.366 . S
C1133 C1132 1.366 . S
C1133 C1134 1.414 . S
C1133 C1136 1.499 . S
C1134 H1114 0.950 . S
C1134 C1133 1.414 . S
C1134 C1135 1.374 . S
C1135 H1115 0.950 . S
C1135 C1131 1.385 . S
C1135 C1134 1.374 . S
C1136 C1133 1.499 . S
C1136 C1137 1.373 . S
C1136 C1138 1.389 . S
C1137 H1116 0.950 . S
C1137 C1136 1.373 . S
C1137 C1153 1.377 . S
C1138 C1136 1.389 . S
C1138 C1139 1.524 . S
C1138 C1152 1.377 . S
C1139 C1138 1.524 . S
C1139 C1140 1.397 . S
C1139 C1144 1.363 . S
C1140 H1117 0.950 . S
C1140 C1139 1.397 . S
C1140 C1141 1.334 . S
C1141 H1118 0.950 . S
C1141 C1140 1.334 . S
C1141 C1142 1.287 . S
C1142 C1141 1.287 . S
C1142 C1143 1.524 . S
C1142 H1161 0.913 . S
C1143 H1119 0.950 . S
C1143 C1142 1.524 . S
C1143 C1144 1.415 . S
C1144 H1120 0.950 . S
C1144 C1139 1.363 . S
C1144 C1143 1.415 . S
C1145 H1121 0.951 . S
C1145 C1146 1.366 . S
C1145 C1147 1.388 . S
C1146 C1145 1.366 . S
C1146 C1150 1.385 . S
C1147 H1122 0.951 . S
C1147 C1145 1.388 . S
C1147 C1148 1.366 . S
C1148 C1147 1.366 . S
C1148 C1149 1.414 . S
C1148 C1151 1.499 . S
C1149 H1123 0.950 . S
C1149 C1148 1.414 . S
C1149 C1150 1.374 . S
C1150 H1124 0.950 . S
C1150 C1146 1.385 . S
C1150 C1149 1.374 . S
C1151 C1148 1.499 . S
C1151 C1152 1.373 . S
C1151 C1153 1.389 . S
C1152 H1125 0.950 . S
C1152 C1138 1.377 . S
C1152 C1151 1.373 . S
C1153 C1137 1.377 . S
C1153 C1151 1.389 . S
C1153 C1154 1.524 . S
C1154 C1153 1.524 . S
C1154 C1155 1.397 . S
C1154 C1159 1.363 . S
C1155 H1126 0.950 . S
C1155 C1154 1.397 . S
C1155 C1156 1.334 . S
C1156 H1127 0.950 . S
C1156 C1155 1.334 . S
C1156 C1157 1.287 . S
C1157 C1156 1.287 . S
C1157 C1158 1.524 . S
C1157 H1160 0.999 . S
C1158 H1128 0.950 . S
C1158 C1157 1.524 . S
C1158 C1159 1.415 . S
C1159 H1129 0.950 . S
C1159 C1154 1.363 . S
C1159 C1158 1.415 . S
H1160 C1157 0.999 . S
H1161 C1142 0.913 . S
H1162 C1180 0.951 . S
H1163 C1182 0.951 . S
H1164 C1184 0.950 . S
H1165 C1185 0.950 . S
H1166 C1187 0.950 . S
H1167 C1190 0.950 . S
H1168 C1191 0.950 . S
H1169 C1193 0.950 . S
H1170 C1194 0.950 . S
H1171 C1195 0.951 . S
H1172 C1197 0.951 . S
H1173 C1199 0.950 . S
H1174 C1200 0.950 . S
H1175 C1202 0.950 . S
H1176 C1205 0.950 . S
H1177 C1206 0.950 . S
H1178 C1208 0.950 . S
H1179 C1209 0.950 . S
C1180 H1162 0.951 . S
C1180 C1181 1.366 . S
C1180 C1182 1.388 . S
C1181 C1180 1.366 . S
C1181 C1185 1.385 . S
C1182 H1163 0.951 . S
C1182 C1180 1.388 . S
C1182 C1183 1.366 . S
C1183 C1182 1.366 . S
C1183 C1184 1.414 . S
C1183 C1186 1.499 . S
C1184 H1164 0.950 . S
C1184 C1183 1.414 . S
C1184 C1185 1.374 . S
C1185 H1165 0.950 . S
C1185 C1181 1.385 . S
C1185 C1184 1.374 . S
C1186 C1183 1.499 . S
C1186 C1187 1.373 . S
C1186 C1188 1.389 . S
C1187 H1166 0.950 . S
C1187 C1186 1.373 . S
C1187 C1203 1.377 . S
C1188 C1186 1.389 . S
C1188 C1189 1.524 . S
C1188 C1202 1.377 . S
C1189 C1188 1.524 . S
C1189 C1190 1.397 . S
C1189 C1194 1.363 . S
C1190 H1167 0.950 . S
C1190 C1189 1.397 . S
C1190 C1191 1.334 . S
C1191 H1168 0.950 . S
C1191 C1190 1.334 . S
C1191 C1192 1.287 . S
C1192 C1191 1.287 . S
C1192 C1193 1.524 . S
C1192 H1211 0.913 . S
C1193 H1169 0.950 . S
C1193 C1192 1.524 . S
C1193 C1194 1.415 . S
C1194 H1170 0.950 . S
C1194 C1189 1.363 . S
C1194 C1193 1.415 . S
C1195 H1171 0.951 . S
C1195 C1196 1.366 . S
C1195 C1197 1.388 . S
C1196 C1195 1.366 . S
C1196 C1200 1.385 . S
C1197 H1172 0.951 . S
C1197 C1195 1.388 . S
C1197 C1198 1.366 . S
C1198 C1197 1.366 . S
C1198 C1199 1.414 . S
C1198 C1201 1.499 . S
C1199 H1173 0.950 . S
C1199 C1198 1.414 . S
C1199 C1200 1.374 . S
C1200 H1174 0.950 . S
C1200 C1196 1.385 . S
C1200 C1199 1.374 . S
C1201 C1198 1.499 . S
C1201 C1202 1.373 . S
C1201 C1203 1.389 . S
C1202 H1175 0.950 . S
C1202 C1188 1.377 . S
C1202 C1201 1.373 . S
C1203 C1187 1.377 . S
C1203 C1201 1.389 . S
C1203 C1204 1.524 . S
C1204 C1203 1.524 . S
C1204 C1205 1.397 . S
C1204 C1209 1.363 . S
C1205 H1176 0.950 . S
C1205 C1204 1.397 . S
C1205 C1206 1.334 . S
C1206 H1177 0.950 . S
C1206 C1205 1.334 . S
C1206 C1207 1.287 . S
C1207 C1206 1.287 . S
C1207 C1208 1.524 . S
C1207 H1210 0.999 . S
C1208 H1178 0.950 . S
C1208 C1207 1.524 . S
C1208 C1209 1.415 . S
C1209 H1179 0.950 . S
C1209 C1204 1.363 . S
C1209 C1208 1.415 . S
H1210 C1207 0.999 . S
H1211 C1192 0.913 . S
H1212 C1230 0.951 . S
H1213 C1232 0.951 . S
H1214 C1234 0.950 . S
H1215 C1235 0.950 . S
H1216 C1237 0.950 . S
H1217 C1240 0.950 . S
H1218 C1241 0.950 . S
H1219 C1243 0.950 . S
H1220 C1244 0.950 . S
H1221 C1245 0.951 . S
H1222 C1247 0.951 . S
H1223 C1249 0.950 . S
H1224 C1250 0.950 . S
H1225 C1252 0.950 . S
H1226 C1255 0.950 . S
H1227 C1256 0.950 . S
H1228 C1258 0.950 . S
H1229 C1259 0.950 . S
C1230 H1212 0.951 . S
C1230 C1231 1.366 . S
C1230 C1232 1.388 . S
C1231 C1230 1.366 . S
C1231 C1235 1.385 . S
C1232 H1213 0.951 . S
C1232 C1230 1.388 . S
C1232 C1233 1.366 . S
C1233 C1232 1.366 . S
C1233 C1234 1.414 . S
C1233 C1236 1.499 . S
C1234 H1214 0.950 . S
C1234 C1233 1.414 . S
C1234 C1235 1.374 . S
C1235 H1215 0.950 . S
C1235 C1231 1.385 . S
C1235 C1234 1.374 . S
C1236 C1233 1.499 . S
C1236 C1237 1.373 . S
C1236 C1238 1.389 . S
C1237 H1216 0.950 . S
C1237 C1236 1.373 . S
C1237 C1253 1.377 . S
C1238 C1236 1.389 . S
C1238 C1239 1.524 . S
C1238 C1252 1.377 . S
C1239 C1238 1.524 . S
C1239 C1240 1.397 . S
C1239 C1244 1.363 . S
C1240 H1217 0.950 . S
C1240 C1239 1.397 . S
C1240 C1241 1.334 . S
C1241 H1218 0.950 . S
C1241 C1240 1.334 . S
C1241 C1242 1.287 . S
C1242 C1241 1.287 . S
C1242 C1243 1.524 . S
C1242 H1261 0.913 . S
C1243 H1219 0.950 . S
C1243 C1242 1.524 . S
C1243 C1244 1.415 . S
C1244 H1220 0.950 . S
C1244 C1239 1.363 . S
C1244 C1243 1.415 . S
C1245 H1221 0.951 . S
C1245 C1246 1.366 . S
C1245 C1247 1.388 . S
C1246 C1245 1.366 . S
C1246 C1250 1.385 . S
C1247 H1222 0.951 . S
C1247 C1245 1.388 . S
C1247 C1248 1.366 . S
C1248 C1247 1.366 . S
C1248 C1249 1.414 . S
C1248 C1251 1.499 . S
C1249 H1223 0.950 . S
C1249 C1248 1.414 . S
C1249 C1250 1.374 . S
C1250 H1224 0.950 . S
C1250 C1246 1.385 . S
C1250 C1249 1.374 . S
C1251 C1248 1.499 . S
C1251 C1252 1.373 . S
C1251 C1253 1.389 . S
C1252 H1225 0.950 . S
C1252 C1238 1.377 . S
C1252 C1251 1.373 . S
C1253 C1237 1.377 . S
C1253 C1251 1.389 . S
C1253 C1254 1.524 . S
C1254 C1253 1.524 . S
C1254 C1255 1.397 . S
C1254 C1259 1.363 . S
C1255 H1226 0.950 . S
C1255 C1254 1.397 . S
C1255 C1256 1.334 . S
C1256 H1227 0.950 . S
C1256 C1255 1.334 . S
C1256 C1257 1.287 . S
C1257 C1256 1.287 . S
C1257 C1258 1.524 . S
C1257 H1260 0.999 . S
C1258 H1228 0.950 . S
C1258 C1257 1.524 . S
C1258 C1259 1.415 . S
C1259 H1229 0.950 . S
C1259 C1254 1.363 . S
C1259 C1258 1.415 . S
H1260 C1257 0.999 . S
H1261 C1242 0.913 . S
H1262 C1280 0.951 . S
H1263 C1282 0.951 . S
H1264 C1284 0.950 . S
H1265 C1285 0.950 . S
H1266 C1287 0.950 . S
H1267 C1290 0.950 . S
H1268 C1291 0.950 . S
H1269 C1293 0.950 . S
H1270 C1294 0.950 . S
H1271 C1295 0.951 . S
H1272 C1297 0.951 . S
H1273 C1299 0.950 . S
H1274 C1300 0.950 . S
H1275 C1302 0.950 . S
H1276 C1305 0.950 . S
H1277 C1306 0.950 . S
H1278 C1308 0.950 . S
H1279 C1309 0.950 . S
C1280 H1262 0.951 . S
C1280 C1281 1.366 . S
C1280 C1282 1.388 . S
C1281 C1280 1.366 . S
C1281 C1285 1.385 . S
C1282 H1263 0.951 . S
C1282 C1280 1.388 . S
C1282 C1283 1.366 . S
C1283 C1282 1.366 . S
C1283 C1284 1.414 . S
C1283 C1286 1.499 . S
C1284 H1264 0.950 . S
C1284 C1283 1.414 . S
C1284 C1285 1.374 . S
C1285 H1265 0.950 . S
C1285 C1281 1.385 . S
C1285 C1284 1.374 . S
C1286 C1283 1.499 . S
C1286 C1287 1.373 . S
C1286 C1288 1.389 . S
C1287 H1266 0.950 . S
C1287 C1286 1.373 . S
C1287 C1303 1.377 . S
C1288 C1286 1.389 . S
C1288 C1289 1.524 . S
C1288 C1302 1.377 . S
C1289 C1288 1.524 . S
C1289 C1290 1.397 . S
C1289 C1294 1.363 . S
C1290 H1267 0.950 . S
C1290 C1289 1.397 . S
C1290 C1291 1.334 . S
C1291 H1268 0.950 . S
C1291 C1290 1.334 . S
C1291 C1292 1.287 . S
C1292 C1291 1.287 . S
C1292 C1293 1.524 . S
C1292 H1311 0.913 . S
C1293 H1269 0.950 . S
C1293 C1292 1.524 . S
C1293 C1294 1.415 . S
C1294 H1270 0.950 . S
C1294 C1289 1.363 . S
C1294 C1293 1.415 . S
C1295 H1271 0.951 . S
C1295 C1296 1.366 . S
C1295 C1297 1.388 . S
C1296 C1295 1.366 . S
C1296 C1300 1.385 . S
C1297 H1272 0.951 . S
C1297 C1295 1.388 . S
C1297 C1298 1.366 . S
C1298 C1297 1.366 . S
C1298 C1299 1.414 . S
C1298 C1301 1.499 . S
C1299 H1273 0.950 . S
C1299 C1298 1.414 . S
C1299 C1300 1.374 . S
C1300 H1274 0.950 . S
C1300 C1296 1.385 . S
C1300 C1299 1.374 . S
C1301 C1298 1.499 . S
C1301 C1302 1.373 . S
C1301 C1303 1.389 . S
C1302 H1275 0.950 . S
C1302 C1288 1.377 . S
C1302 C1301 1.373 . S
C1303 C1287 1.377 . S
C1303 C1301 1.389 . S
C1303 C1304 1.524 . S
C1304 C1303 1.524 . S
C1304 C1305 1.397 . S
C1304 C1309 1.363 . S
C1305 H1276 0.950 . S
C1305 C1304 1.397 . S
C1305 C1306 1.334 . S
C1306 H1277 0.950 . S
C1306 C1305 1.334 . S
C1306 C1307 1.287 . S
C1307 C1306 1.287 . S
C1307 C1308 1.524 . S
C1307 H1310 0.999 . S
C1308 H1278 0.950 . S
C1308 C1307 1.524 . S
C1308 C1309 1.415 . S
C1309 H1279 0.950 . S
C1309 C1304 1.363 . S
C1309 C1308 1.415 . S
H1310 C1307 0.999 . S
H1311 C1292 0.913 . S
H1312 C1330 0.951 . S
H1313 C1332 0.951 . S
H1314 C1334 0.950 . S
H1315 C1335 0.950 . S
H1316 C1337 0.950 . S
H1317 C1340 0.950 . S
H1318 C1341 0.950 . S
H1319 C1343 0.950 . S
H1320 C1344 0.950 . S
H1321 C1345 0.951 . S
H1322 C1347 0.951 . S
H1323 C1349 0.950 . S
H1324 C1350 0.950 . S
H1325 C1352 0.950 . S
H1326 C1355 0.950 . S
H1327 C1356 0.950 . S
H1328 C1358 0.950 . S
H1329 C1359 0.950 . S
C1330 H1312 0.951 . S
C1330 C1331 1.366 . S
C1330 C1332 1.388 . S
C1331 C1330 1.366 . S
C1331 C1335 1.385 . S
C1332 H1313 0.951 . S
C1332 C1330 1.388 . S
C1332 C1333 1.366 . S
C1333 C1332 1.366 . S
C1333 C1334 1.414 . S
C1333 C1336 1.499 . S
C1334 H1314 0.950 . S
C1334 C1333 1.414 . S
C1334 C1335 1.374 . S
C1335 H1315 0.950 . S
C1335 C1331 1.385 . S
C1335 C1334 1.374 . S
C1336 C1333 1.499 . S
C1336 C1337 1.373 . S
C1336 C1338 1.389 . S
C1337 H1316 0.950 . S
C1337 C1336 1.373 . S
C1337 C1353 1.377 . S
C1338 C1336 1.389 . S
C1338 C1339 1.524 . S
C1338 C1352 1.377 . S
C1339 C1338 1.524 . S
C1339 C1340 1.397 . S
C1339 C1344 1.363 . S
C1340 H1317 0.950 . S
C1340 C1339 1.397 . S
C1340 C1341 1.334 . S
C1341 H1318 0.950 . S
C1341 C1340 1.334 . S
C1341 C1342 1.287 . S
C1342 C1341 1.287 . S
C1342 C1343 1.524 . S
C1342 H1361 0.913 . S
C1343 H1319 0.950 . S
C1343 C1342 1.524 . S
C1343 C1344 1.415 . S
C1344 H1320 0.950 . S
C1344 C1339 1.363 . S
C1344 C1343 1.415 . S
C1345 H1321 0.951 . S
C1345 C1346 1.366 . S
C1345 C1347 1.388 . S
C1346 C1345 1.366 . S
C1346 C1350 1.385 . S
C1347 H1322 0.951 . S
C1347 C1345 1.388 . S
C1347 C1348 1.366 . S
C1348 C1347 1.366 . S
C1348 C1349 1.414 . S
C1348 C1351 1.499 . S
C1349 H1323 0.950 . S
C1349 C1348 1.414 . S
C1349 C1350 1.374 . S
C1350 H1324 0.950 . S
C1350 C1346 1.385 . S
C1350 C1349 1.374 . S
C1351 C1348 1.499 . S
C1351 C1352 1.373 . S
C1351 C1353 1.389 . S
C1352 H1325 0.950 . S
C1352 C1338 1.377 . S
C1352 C1351 1.373 . S
C1353 C1337 1.377 . S
C1353 C1351 1.389 . S
C1353 C1354 1.524 . S
C1354 C1353 1.524 . S
C1354 C1355 1.397 . S
C1354 C1359 1.363 . S
C1355 H1326 0.950 . S
C1355 C1354 1.397 . S
C1355 C1356 1.334 . S
C1356 H1327 0.950 . S
C1356 C1355 1.334 . S
C1356 C1357 1.287 . S
C1357 C1356 1.287 . S
C1357 C1358 1.524 . S
C1357 H1360 0.999 . S
C1358 H1328 0.950 . S
C1358 C1357 1.524 . S
C1358 C1359 1.415 . S
C1359 H1329 0.950 . S
C1359 C1354 1.363 . S
C1359 C1358 1.415 . S
H1360 C1357 0.999 . S
H1361 C1342 0.913 . S
H1362 C1380 0.951 . S
H1363 C1382 0.951 . S
H1364 C1384 0.950 . S
H1365 C1385 0.950 . S
H1366 C1387 0.950 . S
H1367 C1390 0.950 . S
H1368 C1391 0.950 . S
H1369 C1393 0.950 . S
H1370 C1394 0.950 . S
H1371 C1395 0.951 . S
H1372 C1397 0.951 . S
H1373 C1399 0.950 . S
H1374 C1400 0.950 . S
H1375 C1402 0.950 . S
H1376 C1405 0.950 . S
H1377 C1406 0.950 . S
H1378 C1408 0.950 . S
H1379 C1409 0.950 . S
C1380 H1362 0.951 . S
C1380 C1381 1.366 . S
C1380 C1382 1.388 . S
C1381 C1380 1.366 . S
C1381 C1385 1.385 . S
C1382 H1363 0.951 . S
C1382 C1380 1.388 . S
C1382 C1383 1.366 . S
C1383 C1382 1.366 . S
C1383 C1384 1.414 . S
C1383 C1386 1.499 . S
C1384 H1364 0.950 . S
C1384 C1383 1.414 . S
C1384 C1385 1.374 . S
C1385 H1365 0.950 . S
C1385 C1381 1.385 . S
C1385 C1384 1.374 . S
C1386 C1383 1.499 . S
C1386 C1387 1.373 . S
C1386 C1388 1.389 . S
C1387 H1366 0.950 . S
C1387 C1386 1.373 . S
C1387 C1403 1.377 . S
C1388 C1386 1.389 . S
C1388 C1389 1.524 . S
C1388 C1402 1.377 . S
C1389 C1388 1.524 . S
C1389 C1390 1.397 . S
C1389 C1394 1.363 . S
C1390 H1367 0.950 . S
C1390 C1389 1.397 . S
C1390 C1391 1.334 . S
C1391 H1368 0.950 . S
C1391 C1390 1.334 . S
C1391 C1392 1.287 . S
C1392 C1391 1.287 . S
C1392 C1393 1.524 . S
C1392 H1411 0.913 . S
C1393 H1369 0.950 . S
C1393 C1392 1.524 . S
C1393 C1394 1.415 . S
C1394 H1370 0.950 . S
C1394 C1389 1.363 . S
C1394 C1393 1.415 . S
C1395 H1371 0.951 . S
C1395 C1396 1.366 . S
C1395 C1397 1.388 . S
C1396 C1395 1.366 . S
C1396 C1400 1.385 . S
C1397 H1372 0.951 . S
C1397 C1395 1.388 . S
C1397 C1398 1.366 . S
C1398 C1397 1.366 . S
C1398 C1399 1.414 . S
C1398 C1401 1.499 . S
C1399 H1373 0.950 . S
C1399 C1398 1.414 . S
C1399 C1400 1.374 . S
C1400 H1374 0.950 . S
C1400 C1396 1.385 . S
C1400 C1399 1.374 . S
C1401 C1398 1.499 . S
C1401 C1402 1.373 . S
C1401 C1403 1.389 . S
C1402 H1375 0.950 . S
C1402 C1388 1.377 . S
C1402 C1401 1.373 . S
C1403 C1387 1.377 . S
C1403 C1401 1.389 . S
C1403 C1404 1.524 . S
C1404 C1403 1.524 . S
C1404 C1405 1.397 . S
C1404 C1409 1.363 . S
C1405 H1376 0.950 . S
C1405 C1404 1.397 . S
C1405 C1406 1.334 . S
C1406 H1377 0.950 . S
C1406 C1405 1.334 . S
C1406 C1407 1.287 . S
C1407 C1406 1.287 . S
C1407 C1408 1.524 . S
C1407 H1410 0.999 . S
C1408 H1378 0.950 . S
C1408 C1407 1.524 . S
C1408 C1409 1.415 . S
C1409 H1379 0.950 . S
C1409 C1404 1.363 . S
C1409 C1408 1.415 . S
H1410 C1407 0.999 . S
H1411 C1392 0.913 . S
H1412 C1430 0.951 . S
H1413 C1432 0.951 . S
H1414 C1434 0.950 . S
H1415 C1435 0.950 . S
H1416 C1437 0.950 . S
H1417 C1440 0.950 . S
H1418 C1441 0.950 . S
H1419 C1443 0.950 . S
H1420 C1444 0.950 . S
H1421 C1445 0.951 . S
H1422 C1447 0.951 . S
H1423 C1449 0.950 . S
H1424 C1450 0.950 . S
H1425 C1452 0.950 . S
H1426 C1455 0.950 . S
H1427 C1456 0.950 . S
H1428 C1458 0.950 . S
H1429 C1459 0.950 . S
C1430 H1412 0.951 . S
C1430 C1431 1.366 . S
C1430 C1432 1.388 . S
C1431 C1430 1.366 . S
C1431 C1435 1.385 . S
C1432 H1413 0.951 . S
C1432 C1430 1.388 . S
C1432 C1433 1.366 . S
C1433 C1432 1.366 . S
C1433 C1434 1.414 . S
C1433 C1436 1.499 . S
C1434 H1414 0.950 . S
C1434 C1433 1.414 . S
C1434 C1435 1.374 . S
C1435 H1415 0.950 . S
C1435 C1431 1.385 . S
C1435 C1434 1.374 . S
C1436 C1433 1.499 . S
C1436 C1437 1.373 . S
C1436 C1438 1.389 . S
C1437 H1416 0.950 . S
C1437 C1436 1.373 . S
C1437 C1453 1.377 . S
C1438 C1436 1.389 . S
C1438 C1439 1.524 . S
C1438 C1452 1.377 . S
C1439 C1438 1.524 . S
C1439 C1440 1.397 . S
C1439 C1444 1.363 . S
C1440 H1417 0.950 . S
C1440 C1439 1.397 . S
C1440 C1441 1.334 . S
C1441 H1418 0.950 . S
C1441 C1440 1.334 . S
C1441 C1442 1.287 . S
C1442 C1441 1.287 . S
C1442 C1443 1.524 . S
C1442 H1461 0.913 . S
C1443 H1419 0.950 . S
C1443 C1442 1.524 . S
C1443 C1444 1.415 . S
C1444 H1420 0.950 . S
C1444 C1439 1.363 . S
C1444 C1443 1.415 . S
C1445 H1421 0.951 . S
C1445 C1446 1.366 . S
C1445 C1447 1.388 . S
C1446 C1445 1.366 . S
C1446 C1450 1.385 . S
C1447 H1422 0.951 . S
C1447 C1445 1.388 . S
C1447 C1448 1.366 . S
C1448 C1447 1.366 . S
C1448 C1449 1.414 . S
C1448 C1451 1.499 . S
C1449 H1423 0.950 . S
C1449 C1448 1.414 . S
C1449 C1450 1.374 . S
C1450 H1424 0.950 . S
C1450 C1446 1.385 . S
C1450 C1449 1.374 . S
C1451 C1448 1.499 . S
C1451 C1452 1.373 . S
C1451 C1453 1.389 . S
C1452 H1425 0.950 . S
C1452 C1438 1.377 . S
C1452 C1451 1.373 . S
C1453 C1437 1.377 . S
C1453 C1451 1.389 . S
C1453 C1454 1.524 . S
C1454 C1453 1.524 . S
C1454 C1455 1.397 . S
C1454 C1459 1.363 . S
C1455 H1426 0.950 . S
C1455 C1454 1.397 . S
C1455 C1456 1.334 . S
C1456 H1427 0.950 . S
C1456 C1455 1.334 . S
C1456 C1457 1.287 . S
C1457 C1456 1.287 . S
C1457 C1458 1.524 . S
C1457 H1460 0.999 . S
C1458 H1428 0.950 . S
C1458 C1457 1.524 . S
C1458 C1459 1.415 . S
C1459 H1429 0.950 . S
C1459 C1454 1.363 . S
C1459 C1458 1.415 . S
H1460 C1457 0.999 . S
H1461 C1442 0.913 . S
H1462 C1480 0.951 . S
H1463 C1482 0.951 . S
H1464 C1484 0.950 . S
H1465 C1485 0.950 . S
H1466 C1487 0.950 . S
H1467 C1490 0.950 . S
H1468 C1491 0.950 . S
H1469 C1493 0.950 . S
H1470 C1494 0.950 . S
H1471 C1495 0.951 . S
H1472 C1497 0.951 . S
H1473 C1499 0.950 . S
H1474 C1500 0.950 . S
H1475 C1502 0.950 . S
H1476 C1505 0.950 . S
H1477 C1506 0.950 . S
H1478 C1508 0.950 . S
H1479 C1509 0.950 . S
C1480 H1462 0.951 . S
C1480 C1481 1.366 . S
C1480 C1482 1.388 . S
C1481 C1480 1.366 . S
C1481 C1485 1.385 . S
C1482 H1463 0.951 . S
C1482 C1480 1.388 . S
C1482 C1483 1.366 . S
C1483 C1482 1.366 . S
C1483 C1484 1.414 . S
C1483 C1486 1.499 . S
C1484 H1464 0.950 . S
C1484 C1483 1.414 . S
C1484 C1485 1.374 . S
C1485 H1465 0.950 . S
C1485 C1481 1.385 . S
C1485 C1484 1.374 . S
C1486 C1483 1.499 . S
C1486 C1487 1.373 . S
C1486 C1488 1.389 . S
C1487 H1466 0.950 . S
C1487 C1486 1.373 . S
C1487 C1503 1.377 . S
C1488 C1486 1.389 . S
C1488 C1489 1.524 . S
C1488 C1502 1.377 . S
C1489 C1488 1.524 . S
C1489 C1490 1.397 . S
C1489 C1494 1.363 . S
C1490 H1467 0.950 . S
C1490 C1489 1.397 . S
C1490 C1491 1.334 . S
C1491 H1468 0.950 . S
C1491 C1490 1.334 . S
C1491 C1492 1.287 . S
C1492 C1491 1.287 . S
C1492 C1493 1.524 . S
C1492 H1511 0.913 . S
C1493 H1469 0.950 . S
C1493 C1492 1.524 . S
C1493 C1494 1.415 . S
C1494 H1470 0.950 . S
C1494 C1489 1.363 . S
C1494 C1493 1.415 . S
C1495 H1471 0.951 . S
C1495 C1496 1.366 . S
C1495 C1497 1.388 . S
C1496 C1495 1.366 . S
C1496 C1500 1.385 . S
C1497 H1472 0.951 . S
C1497 C1495 1.388 . S
C1497 C1498 1.366 . S
C1498 C1497 1.366 . S
C1498 C1499 1.414 . S
C1498 C1501 1.499 . S
C1499 H1473 0.950 . S
C1499 C1498 1.414 . S
C1499 C1500 1.374 . S
C1500 H1474 0.950 . S
C1500 C1496 1.385 . S
C1500 C1499 1.374 . S
C1501 C1498 1.499 . S
C1501 C1502 1.373 . S
C1501 C1503 1.389 . S
C1502 H1475 0.950 . S
C1502 C1488 1.377 . S
C1502 C1501 1.373 . S
C1503 C1487 1.377 . S
C1503 C1501 1.389 . S
C1503 C1504 1.524 . S
C1504 C1503 1.524 . S
C1504 C1505 1.397 . S
C1504 C1509 1.363 . S
C1505 H1476 0.950 . S
C1505 C1504 1.397 . S
C1505 C1506 1.334 . S
C1506 H1477 0.950 . S
C1506 C1505 1.334 . S
C1506 C1507 1.287 . S
C1507 C1506 1.287 . S
C1507 C1508 1.524 . S
C1507 H1510 0.999 . S
C1508 H1478 0.950 . S
C1508 C1507 1.524 . S
C1508 C1509 1.415 . S
C1509 H1479 0.950 . S
C1509 C1504 1.363 . S
C1509 C1508 1.415 . S
H1510 C1507 0.999 . S
H1511 C1492 0.913 . S
H1512 C1530 0.951 . S
H1513 C1532 0.951 . S
H1514 C1534 0.950 . S
H1515 C1535 0.950 . S
H1516 C1537 0.950 . S
H1517 C1540 0.950 . S
H1518 C1541 0.950 . S
H1519 C1543 0.950 . S
H1520 C1544 0.950 . S
H1521 C1545 0.951 . S
H1522 C1547 0.951 . S
H1523 C1549 0.950 . S
H1524 C1550 0.950 . S
H1525 C1552 0.950 . S
H1526 C1555 0.950 . S
H1527 C1556 0.950 . S
H1528 C1558 0.950 . S
H1529 C1559 0.950 . S
C1530 H1512 0.951 . S
C1530 C1531 1.366 . S
C1530 C1532 1.388 . S
C1531 C1530 1.366 . S
C1531 C1535 1.385 . S
C1532 H1513 0.951 . S
C1532 C1530 1.388 . S
C1532 C1533 1.366 . S
C1533 C1532 1.366 . S
C1533 C1534 1.414 . S
C1533 C1536 1.499 . S
C1534 H1514 0.950 . S
C1534 C1533 1.414 . S
C1534 C1535 1.374 . S
C1535 H1515 0.950 . S
C1535 C1531 1.385 . S
C1535 C1534 1.374 . S
C1536 C1533 1.499 . S
C1536 C1537 1.373 . S
C1536 C1538 1.389 . S
C1537 H1516 0.950 . S
C1537 C1536 1.373 . S
C1537 C1553 1.377 1_554 S
C1538 C1536 1.389 . S
C1538 C1539 1.524 . S
C1538 C1552 1.377 1_554 S
C1539 C1538 1.524 . S
C1539 C1540 1.397 . S
C1539 C1544 1.363 . S
C1540 H1517 0.950 . S
C1540 C1539 1.397 . S
C1540 C1541 1.334 . S
C1541 H1518 0.950 . S
C1541 C1540 1.334 . S
C1541 C1542 1.287 . S
C1542 C1541 1.287 . S
C1542 C1543 1.524 . S
C1542 H1561 0.913 . S
C1543 H1519 0.950 . S
C1543 C1542 1.524 . S
C1543 C1544 1.415 . S
C1544 H1520 0.950 . S
C1544 C1539 1.363 . S
C1544 C1543 1.415 . S
C1545 H1521 0.951 . S
C1545 C1546 1.366 . S
C1545 C1547 1.388 . S
C1546 C1545 1.366 . S
C1546 C1550 1.385 . S
C1547 H1522 0.951 . S
C1547 C1545 1.388 . S
C1547 C1548 1.366 . S
C1548 C1547 1.366 . S
C1548 C1549 1.414 . S
C1548 C1551 1.499 . S
C1549 H1523 0.950 . S
C1549 C1548 1.414 . S
C1549 C1550 1.374 . S
C1550 H1524 0.950 . S
C1550 C1546 1.385 . S
C1550 C1549 1.374 . S
C1551 C1548 1.499 . S
C1551 C1552 1.373 . S
C1551 C1553 1.389 . S
C1552 H1525 0.950 . S
C1552 C1538 1.377 1_556 S
C1552 C1551 1.373 . S
C1553 C1537 1.377 1_556 S
C1553 C1551 1.389 . S
C1553 C1554 1.524 . S
C1554 C1553 1.524 . S
C1554 C1555 1.397 . S
C1554 C1559 1.363 . S
C1555 H1526 0.950 . S
C1555 C1554 1.397 . S
C1555 C1556 1.334 . S
C1556 H1527 0.950 . S
C1556 C1555 1.334 . S
C1556 C1557 1.287 . S
C1557 C1556 1.287 . S
C1557 C1558 1.524 . S
C1557 H1560 0.999 . S
C1558 H1528 0.950 . S
C1558 C1557 1.524 . S
C1558 C1559 1.415 . S
C1559 H1529 0.950 . S
C1559 C1554 1.363 . S
C1559 C1558 1.415 . S
H1560 C1557 0.999 . S
H1561 C1542 0.913 . S
H1562 C1580 0.951 . S
H1563 C1582 0.951 . S
H1564 C1584 0.950 . S
H1565 C1585 0.950 . S
H1566 C1587 0.950 . S
H1567 C1590 0.950 . S
H1568 C1591 0.950 . S
H1569 C1593 0.950 . S
H1570 C1594 0.950 . S
H1571 C1595 0.951 . S
H1572 C1597 0.951 . S
H1573 C1599 0.950 . S
H1574 C1600 0.950 . S
H1575 C1602 0.950 . S
H1576 C1605 0.950 . S
H1577 C1606 0.950 . S
H1578 C1608 0.950 . S
H1579 C1609 0.950 . S
C1580 H1562 0.951 . S
C1580 C1581 1.366 . S
C1580 C1582 1.388 . S
C1581 C1580 1.366 . S
C1581 C1585 1.385 . S
C1582 H1563 0.951 . S
C1582 C1580 1.388 . S
C1582 C1583 1.366 . S
C1583 C1582 1.366 . S
C1583 C1584 1.414 . S
C1583 C1586 1.499 . S
C1584 H1564 0.950 . S
C1584 C1583 1.414 . S
C1584 C1585 1.374 . S
C1585 H1565 0.950 . S
C1585 C1581 1.385 . S
C1585 C1584 1.374 . S
C1586 C1583 1.499 . S
C1586 C1587 1.373 . S
C1586 C1588 1.389 . S
C1587 H1566 0.950 . S
C1587 C1586 1.373 . S
C1587 C1603 1.377 1_556 S
C1588 C1586 1.389 . S
C1588 C1589 1.524 . S
C1588 C1602 1.377 1_556 S
C1589 C1588 1.524 . S
C1589 C1590 1.397 . S
C1589 C1594 1.363 . S
C1590 H1567 0.950 . S
C1590 C1589 1.397 . S
C1590 C1591 1.334 . S
C1591 H1568 0.950 . S
C1591 C1590 1.334 . S
C1591 C1592 1.287 . S
C1592 C1591 1.287 . S
C1592 C1593 1.524 . S
C1592 H1611 0.913 . S
C1593 H1569 0.950 . S
C1593 C1592 1.524 . S
C1593 C1594 1.415 . S
C1594 H1570 0.950 . S
C1594 C1589 1.363 . S
C1594 C1593 1.415 . S
C1595 H1571 0.951 . S
C1595 C1596 1.366 . S
C1595 C1597 1.388 . S
C1596 C1595 1.366 . S
C1596 C1600 1.385 . S
C1597 H1572 0.951 . S
C1597 C1595 1.388 . S
C1597 C1598 1.366 . S
C1598 C1597 1.366 . S
C1598 C1599 1.414 . S
C1598 C1601 1.499 . S
C1599 H1573 0.950 . S
C1599 C1598 1.414 . S
C1599 C1600 1.374 . S
C1600 H1574 0.950 . S
C1600 C1596 1.385 . S
C1600 C1599 1.374 . S
C1601 C1598 1.499 . S
C1601 C1602 1.373 . S
C1601 C1603 1.389 . S
C1602 H1575 0.950 . S
C1602 C1588 1.377 1_554 S
C1602 C1601 1.373 . S
C1603 C1587 1.377 1_554 S
C1603 C1601 1.389 . S
C1603 C1604 1.524 . S
C1604 C1603 1.524 . S
C1604 C1605 1.397 . S
C1604 C1609 1.363 . S
C1605 H1576 0.950 . S
C1605 C1604 1.397 . S
C1605 C1606 1.334 . S
C1606 H1577 0.950 . S
C1606 C1605 1.334 . S
C1606 C1607 1.287 . S
C1607 C1606 1.287 . S
C1607 C1608 1.524 . S
C1607 H1610 0.999 . S
C1608 H1578 0.950 . S
C1608 C1607 1.524 . S
C1608 C1609 1.415 . S
C1609 H1579 0.950 . S
C1609 C1604 1.363 . S
C1609 C1608 1.415 . S
H1610 C1607 0.999 . S
H1611 C1592 0.913 . S
H1612 C1630 0.951 . S
H1613 C1632 0.951 . S
H1614 C1634 0.950 . S
H1615 C1635 0.950 . S
H1616 C1637 0.950 . S
H1617 C1640 0.950 . S
H1618 C1641 0.950 . S
H1619 C1643 0.950 . S
H1620 C1644 0.950 . S
H1621 C1645 0.951 . S
H1622 C1647 0.951 . S
H1623 C1649 0.950 . S
H1624 C1650 0.950 . S
H1625 C1652 0.950 . S
H1626 C1655 0.950 . S
H1627 C1656 0.950 . S
H1628 C1658 0.950 . S
H1629 C1659 0.950 . S
C1630 H1612 0.951 . S
C1630 C1631 1.366 . S
C1630 C1632 1.388 . S
C1631 C1630 1.366 . S
C1631 C1635 1.385 . S
C1632 H1613 0.951 . S
C1632 C1630 1.388 . S
C1632 C1633 1.366 . S
C1633 C1632 1.366 . S
C1633 C1634 1.414 . S
C1633 C1636 1.499 . S
C1634 H1614 0.950 . S
C1634 C1633 1.414 . S
C1634 C1635 1.374 . S
C1635 H1615 0.950 . S
C1635 C1631 1.385 . S
C1635 C1634 1.374 . S
C1636 C1633 1.499 . S
C1636 C1637 1.373 . S
C1636 C1638 1.389 . S
C1637 H1616 0.950 . S
C1637 C1636 1.373 . S
C1637 C1653 1.377 1_556 S
C1638 C1636 1.389 . S
C1638 C1639 1.524 . S
C1638 C1652 1.377 1_556 S
C1639 C1638 1.524 . S
C1639 C1640 1.397 . S
C1639 C1644 1.363 . S
C1640 H1617 0.950 . S
C1640 C1639 1.397 . S
C1640 C1641 1.334 . S
C1641 H1618 0.950 . S
C1641 C1640 1.334 . S
C1641 C1642 1.287 . S
C1642 C1641 1.287 . S
C1642 C1643 1.524 . S
C1642 H1661 0.913 . S
C1643 H1619 0.950 . S
C1643 C1642 1.524 . S
C1643 C1644 1.415 . S
C1644 H1620 0.950 . S
C1644 C1639 1.363 . S
C1644 C1643 1.415 . S
C1645 H1621 0.951 . S
C1645 C1646 1.366 . S
C1645 C1647 1.388 . S
C1646 C1645 1.366 . S
C1646 C1650 1.385 . S
C1647 H1622 0.951 . S
C1647 C1645 1.388 . S
C1647 C1648 1.366 . S
C1648 C1647 1.366 . S
C1648 C1649 1.414 . S
C1648 C1651 1.499 . S
C1649 H1623 0.950 . S
C1649 C1648 1.414 . S
C1649 C1650 1.374 . S
C1650 H1624 0.950 . S
C1650 C1646 1.385 . S
C1650 C1649 1.374 . S
C1651 C1648 1.499 . S
C1651 C1652 1.373 . S
C1651 C1653 1.389 . S
C1652 H1625 0.950 . S
C1652 C1638 1.377 1_554 S
C1652 C1651 1.373 . S
C1653 C1637 1.377 1_554 S
C1653 C1651 1.389 . S
C1653 C1654 1.524 . S
C1654 C1653 1.524 . S
C1654 C1655 1.397 . S
C1654 C1659 1.363 . S
C1655 H1626 0.950 . S
C1655 C1654 1.397 . S
C1655 C1656 1.334 . S
C1656 H1627 0.950 . S
C1656 C1655 1.334 . S
C1656 C1657 1.287 . S
C1657 C1656 1.287 . S
C1657 C1658 1.524 . S
C1657 H1660 0.999 . S
C1658 H1628 0.950 . S
C1658 C1657 1.524 . S
C1658 C1659 1.415 . S
C1659 H1629 0.950 . S
C1659 C1654 1.363 . S
C1659 C1658 1.415 . S
H1660 C1657 0.999 . S
H1661 C1642 0.913 . S
H1662 C1680 0.951 . S
H1663 C1682 0.951 . S
H1664 C1684 0.950 . S
H1665 C1685 0.950 . S
H1666 C1687 0.950 . S
H1667 C1690 0.950 . S
H1668 C1691 0.950 . S
H1669 C1693 0.950 . S
H1670 C1694 0.950 . S
H1671 C1695 0.951 . S
H1672 C1697 0.951 . S
H1673 C1699 0.950 . S
H1674 C1700 0.950 . S
H1675 C1702 0.950 . S
H1676 C1705 0.950 . S
H1677 C1706 0.950 . S
H1678 C1708 0.950 . S
H1679 C1709 0.950 . S
C1680 H1662 0.951 . S
C1680 C1681 1.366 . S
C1680 C1682 1.388 . S
C1681 C1680 1.366 . S
C1681 C1685 1.385 . S
C1682 H1663 0.951 . S
C1682 C1680 1.388 . S
C1682 C1683 1.366 . S
C1683 C1682 1.366 . S
C1683 C1684 1.414 . S
C1683 C1686 1.499 . S
C1684 H1664 0.950 . S
C1684 C1683 1.414 . S
C1684 C1685 1.374 . S
C1685 H1665 0.950 . S
C1685 C1681 1.385 . S
C1685 C1684 1.374 . S
C1686 C1683 1.499 . S
C1686 C1687 1.373 . S
C1686 C1688 1.389 . S
C1687 H1666 0.950 . S
C1687 C1686 1.373 . S
C1687 C1703 1.377 1_554 S
C1688 C1686 1.389 . S
C1688 C1689 1.524 . S
C1688 C1702 1.377 1_554 S
C1689 C1688 1.524 . S
C1689 C1690 1.397 . S
C1689 C1694 1.363 . S
C1690 H1667 0.950 . S
C1690 C1689 1.397 . S
C1690 C1691 1.334 . S
C1691 H1668 0.950 . S
C1691 C1690 1.334 . S
C1691 C1692 1.287 . S
C1692 C1691 1.287 . S
C1692 C1693 1.524 . S
C1692 H1711 0.913 . S
C1693 H1669 0.950 . S
C1693 C1692 1.524 . S
C1693 C1694 1.415 . S
C1694 H1670 0.950 . S
C1694 C1689 1.363 . S
C1694 C1693 1.415 . S
C1695 H1671 0.951 . S
C1695 C1696 1.366 . S
C1695 C1697 1.388 . S
C1696 C1695 1.366 . S
C1696 C1700 1.385 . S
C1697 H1672 0.951 . S
C1697 C1695 1.388 . S
C1697 C1698 1.366 . S
C1698 C1697 1.366 . S
C1698 C1699 1.414 . S
C1698 C1701 1.499 . S
C1699 H1673 0.950 . S
C1699 C1698 1.414 . S
C1699 C1700 1.374 . S
C1700 H1674 0.950 . S
C1700 C1696 1.385 . S
C1700 C1699 1.374 . S
C1701 C1698 1.499 . S
C1701 C1702 1.373 . S
C1701 C1703 1.389 . S
C1702 H1675 0.950 . S
C1702 C1688 1.377 1_556 S
C1702 C1701 1.373 . S
C1703 C1687 1.377 1_556 S
C1703 C1701 1.389 . S
C1703 C1704 1.524 . S
C1704 C1703 1.524 . S
C1704 C1705 1.397 . S
C1704 C1709 1.363 . S
C1705 H1676 0.950 . S
C1705 C1704 1.397 . S
C1705 C1706 1.334 . S
C1706 H1677 0.950 . S
C1706 C1705 1.334 . S
C1706 C1707 1.287 . S
C1707 C1706 1.287 . S
C1707 C1708 1.524 . S
C1707 H1710 0.999 . S
C1708 H1678 0.950 . S
C1708 C1707 1.524 . S
C1708 C1709 1.415 . S
C1709 H1679 0.950 . S
C1709 C1704 1.363 . S
C1709 C1708 1.415 . S
H1710 C1707 0.999 . S
H1711 C1692 0.913 . S
H1712 C1730 0.951 . S
H1713 C1732 0.951 . S
H1714 C1734 0.950 . S
H1715 C1735 0.950 . S
H1716 C1737 0.950 . S
H1717 C1740 0.950 . S
H1718 C1741 0.950 . S
H1719 C1743 0.950 . S
H1720 C1744 0.950 . S
H1721 C1745 0.951 . S
H1722 C1747 0.951 . S
H1723 C1749 0.950 . S
H1724 C1750 0.950 . S
H1725 C1752 0.950 . S
H1726 C1755 0.950 . S
H1727 C1756 0.950 . S
H1728 C1758 0.950 . S
H1729 C1759 0.950 . S
C1730 H1712 0.951 . S
C1730 C1731 1.366 . S
C1730 C1732 1.388 . S
C1731 C1730 1.366 . S
C1731 C1735 1.385 . S
C1732 H1713 0.951 . S
C1732 C1730 1.388 . S
C1732 C1733 1.366 . S
C1733 C1732 1.366 . S
C1733 C1734 1.414 . S
C1733 C1736 1.499 . S
C1734 H1714 0.950 . S
C1734 C1733 1.414 . S
C1734 C1735 1.374 . S
C1735 H1715 0.950 . S
C1735 C1731 1.385 . S
C1735 C1734 1.374 . S
C1736 C1733 1.499 . S
C1736 C1737 1.373 . S
C1736 C1738 1.389 . S
C1737 H1716 0.950 . S
C1737 C1736 1.373 . S
C1737 C1753 1.377 1_554 S
C1738 C1736 1.389 . S
C1738 C1739 1.524 . S
C1738 C1752 1.377 1_554 S
C1739 C1738 1.524 . S
C1739 C1740 1.397 . S
C1739 C1744 1.363 . S
C1740 H1717 0.950 . S
C1740 C1739 1.397 . S
C1740 C1741 1.334 . S
C1741 H1718 0.950 . S
C1741 C1740 1.334 . S
C1741 C1742 1.287 . S
C1742 C1741 1.287 . S
C1742 C1743 1.524 . S
C1742 H1761 0.913 . S
C1743 H1719 0.950 . S
C1743 C1742 1.524 . S
C1743 C1744 1.415 . S
C1744 H1720 0.950 . S
C1744 C1739 1.363 . S
C1744 C1743 1.415 . S
C1745 H1721 0.951 . S
C1745 C1746 1.366 . S
C1745 C1747 1.388 . S
C1746 C1745 1.366 . S
C1746 C1750 1.385 . S
C1747 H1722 0.951 . S
C1747 C1745 1.388 . S
C1747 C1748 1.366 . S
C1748 C1747 1.366 . S
C1748 C1749 1.414 . S
C1748 C1751 1.499 . S
C1749 H1723 0.950 . S
C1749 C1748 1.414 . S
C1749 C1750 1.374 . S
C1750 H1724 0.950 . S
C1750 C1746 1.385 . S
C1750 C1749 1.374 . S
C1751 C1748 1.499 . S
C1751 C1752 1.373 . S
C1751 C1753 1.389 . S
C1752 H1725 0.950 . S
C1752 C1738 1.377 1_556 S
C1752 C1751 1.373 . S
C1753 C1737 1.377 1_556 S
C1753 C1751 1.389 . S
C1753 C1754 1.524 . S
C1754 C1753 1.524 . S
C1754 C1755 1.397 . S
C1754 C1759 1.363 . S
C1755 H1726 0.950 . S
C1755 C1754 1.397 . S
C1755 C1756 1.334 . S
C1756 H1727 0.950 . S
C1756 C1755 1.334 . S
C1756 C1757 1.287 . S
C1757 C1756 1.287 . S
C1757 C1758 1.524 . S
C1757 H1760 0.999 . S
C1758 H1728 0.950 . S
C1758 C1757 1.524 . S
C1758 C1759 1.415 . S
C1759 H1729 0.950 . S
C1759 C1754 1.363 . S
C1759 C1758 1.415 . S
H1760 C1757 0.999 . S
H1761 C1742 0.913 . S
H1762 C1780 0.951 . S
H1763 C1782 0.951 . S
H1764 C1784 0.950 . S
H1765 C1785 0.950 . S
H1766 C1787 0.950 . S
H1767 C1790 0.950 . S
H1768 C1791 0.950 . S
H1769 C1793 0.950 . S
H1770 C1794 0.950 . S
H1771 C1795 0.951 . S
H1772 C1797 0.951 . S
H1773 C1799 0.950 . S
H1774 C1800 0.950 . S
H1775 C1802 0.950 . S
H1776 C1805 0.950 . S
H1777 C1806 0.950 . S
H1778 C1808 0.950 . S
H1779 C1809 0.950 . S
C1780 H1762 0.951 . S
C1780 C1781 1.366 . S
C1780 C1782 1.388 . S
C1781 C1780 1.366 . S
C1781 C1785 1.385 . S
C1782 H1763 0.951 . S
C1782 C1780 1.388 . S
C1782 C1783 1.366 . S
C1783 C1782 1.366 . S
C1783 C1784 1.414 . S
C1783 C1786 1.499 . S
C1784 H1764 0.950 . S
C1784 C1783 1.414 . S
C1784 C1785 1.374 . S
C1785 H1765 0.950 . S
C1785 C1781 1.385 . S
C1785 C1784 1.374 . S
C1786 C1783 1.499 . S
C1786 C1787 1.373 . S
C1786 C1788 1.389 . S
C1787 H1766 0.950 . S
C1787 C1786 1.373 . S
C1787 C1803 1.377 1_556 S
C1788 C1786 1.389 . S
C1788 C1789 1.524 . S
C1788 C1802 1.377 1_556 S
C1789 C1788 1.524 . S
C1789 C1790 1.397 . S
C1789 C1794 1.363 . S
C1790 H1767 0.950 . S
C1790 C1789 1.397 . S
C1790 C1791 1.334 . S
C1791 H1768 0.950 . S
C1791 C1790 1.334 . S
C1791 C1792 1.287 . S
C1792 C1791 1.287 . S
C1792 C1793 1.524 . S
C1792 H1811 0.913 . S
C1793 H1769 0.950 . S
C1793 C1792 1.524 . S
C1793 C1794 1.415 . S
C1794 H1770 0.950 . S
C1794 C1789 1.363 . S
C1794 C1793 1.415 . S
C1795 H1771 0.951 . S
C1795 C1796 1.366 . S
C1795 C1797 1.388 . S
C1796 C1795 1.366 . S
C1796 C1800 1.385 . S
C1797 H1772 0.951 . S
C1797 C1795 1.388 . S
C1797 C1798 1.366 . S
C1798 C1797 1.366 . S
C1798 C1799 1.414 . S
C1798 C1801 1.499 . S
C1799 H1773 0.950 . S
C1799 C1798 1.414 . S
C1799 C1800 1.374 . S
C1800 H1774 0.950 . S
C1800 C1796 1.385 . S
C1800 C1799 1.374 . S
C1801 C1798 1.499 . S
C1801 C1802 1.373 . S
C1801 C1803 1.389 . S
C1802 H1775 0.950 . S
C1802 C1788 1.377 1_554 S
C1802 C1801 1.373 . S
C1803 C1787 1.377 1_554 S
C1803 C1801 1.389 . S
C1803 C1804 1.524 . S
C1804 C1803 1.524 . S
C1804 C1805 1.397 . S
C1804 C1809 1.363 . S
C1805 H1776 0.950 . S
C1805 C1804 1.397 . S
C1805 C1806 1.334 . S
C1806 H1777 0.950 . S
C1806 C1805 1.334 . S
C1806 C1807 1.287 . S
C1807 C1806 1.287 . S
C1807 C1808 1.524 . S
C1807 H1810 0.999 . S
C1808 H1778 0.950 . S
C1808 C1807 1.524 . S
C1808 C1809 1.415 . S
C1809 H1779 0.950 . S
C1809 C1804 1.363 . S
C1809 C1808 1.415 . S
H1810 C1807 0.999 . S
H1811 C1792 0.913 . S
H1812 C1830 0.951 . S
H1813 C1832 0.951 . S
H1814 C1834 0.950 . S
H1815 C1835 0.950 . S
H1816 C1837 0.950 . S
H1817 C1840 0.950 . S
H1818 C1841 0.950 . S
H1819 C1843 0.950 . S
H1820 C1844 0.950 . S
H1821 C1845 0.951 . S
H1822 C1847 0.951 . S
H1823 C1849 0.950 . S
H1824 C1850 0.950 . S
H1825 C1852 0.950 . S
H1826 C1855 0.950 . S
H1827 C1856 0.950 . S
H1828 C1858 0.950 . S
H1829 C1859 0.950 . S
C1830 H1812 0.951 . S
C1830 C1831 1.366 . S
C1830 C1832 1.388 . S
C1831 C1830 1.366 . S
C1831 C1835 1.385 . S
C1832 H1813 0.951 . S
C1832 C1830 1.388 . S
C1832 C1833 1.366 . S
C1833 C1832 1.366 . S
C1833 C1834 1.414 . S
C1833 C1836 1.499 . S
C1834 H1814 0.950 . S
C1834 C1833 1.414 . S
C1834 C1835 1.374 . S
C1835 H1815 0.950 . S
C1835 C1831 1.385 . S
C1835 C1834 1.374 . S
C1836 C1833 1.499 . S
C1836 C1837 1.373 . S
C1836 C1838 1.389 . S
C1837 H1816 0.950 . S
C1837 C1836 1.373 . S
C1837 C1853 1.377 . S
C1838 C1836 1.389 . S
C1838 C1839 1.524 . S
C1838 C1852 1.377 . S
C1839 C1838 1.524 . S
C1839 C1840 1.397 . S
C1839 C1844 1.363 . S
C1840 H1817 0.950 . S
C1840 C1839 1.397 . S
C1840 C1841 1.334 . S
C1841 H1818 0.950 . S
C1841 C1840 1.334 . S
C1841 C1842 1.287 . S
C1842 C1841 1.287 . S
C1842 C1843 1.524 . S
C1842 H1861 0.913 . S
C1843 H1819 0.950 . S
C1843 C1842 1.524 . S
C1843 C1844 1.415 . S
C1844 H1820 0.950 . S
C1844 C1839 1.363 . S
C1844 C1843 1.415 . S
C1845 H1821 0.951 . S
C1845 C1846 1.366 . S
C1845 C1847 1.388 . S
C1846 C1845 1.366 . S
C1846 C1850 1.385 . S
C1847 H1822 0.951 . S
C1847 C1845 1.388 . S
C1847 C1848 1.366 . S
C1848 C1847 1.366 . S
C1848 C1849 1.414 . S
C1848 C1851 1.499 . S
C1849 H1823 0.950 . S
C1849 C1848 1.414 . S
C1849 C1850 1.374 . S
C1850 H1824 0.950 . S
C1850 C1846 1.385 . S
C1850 C1849 1.374 . S
C1851 C1848 1.499 . S
C1851 C1852 1.373 . S
C1851 C1853 1.389 . S
C1852 H1825 0.950 . S
C1852 C1838 1.377 . S
C1852 C1851 1.373 . S
C1853 C1837 1.377 . S
C1853 C1851 1.389 . S
C1853 C1854 1.524 . S
C1854 C1853 1.524 . S
C1854 C1855 1.397 . S
C1854 C1859 1.363 . S
C1855 H1826 0.950 . S
C1855 C1854 1.397 . S
C1855 C1856 1.334 . S
C1856 H1827 0.950 . S
C1856 C1855 1.334 . S
C1856 C1857 1.287 . S
C1857 C1856 1.287 . S
C1857 C1858 1.524 . S
C1857 H1860 0.999 . S
C1858 H1828 0.950 . S
C1858 C1857 1.524 . S
C1858 C1859 1.415 . S
C1859 H1829 0.950 . S
C1859 C1854 1.363 . S
C1859 C1858 1.415 . S
H1860 C1857 0.999 . S
H1861 C1842 0.913 . S
H1862 C1880 0.951 . S
H1863 C1882 0.951 . S
H1864 C1884 0.950 . S
H1865 C1885 0.950 . S
H1866 C1887 0.950 . S
H1867 C1890 0.950 . S
H1868 C1891 0.950 . S
H1869 C1893 0.950 . S
H1870 C1894 0.950 . S
H1871 C1895 0.951 . S
H1872 C1897 0.951 . S
H1873 C1899 0.950 . S
H1874 C1900 0.950 . S
H1875 C1902 0.950 . S
H1876 C1905 0.950 . S
H1877 C1906 0.950 . S
H1878 C1908 0.950 . S
H1879 C1909 0.950 . S
C1880 H1862 0.951 . S
C1880 C1881 1.366 . S
C1880 C1882 1.388 . S
C1881 C1880 1.366 . S
C1881 C1885 1.385 . S
C1882 H1863 0.951 . S
C1882 C1880 1.388 . S
C1882 C1883 1.366 . S
C1883 C1882 1.366 . S
C1883 C1884 1.414 . S
C1883 C1886 1.499 . S
C1884 H1864 0.950 . S
C1884 C1883 1.414 . S
C1884 C1885 1.374 . S
C1885 H1865 0.950 . S
C1885 C1881 1.385 . S
C1885 C1884 1.374 . S
C1886 C1883 1.499 . S
C1886 C1887 1.373 . S
C1886 C1888 1.389 . S
C1887 H1866 0.950 . S
C1887 C1886 1.373 . S
C1887 C1903 1.377 . S
C1888 C1886 1.389 . S
C1888 C1889 1.524 . S
C1888 C1902 1.377 . S
C1889 C1888 1.524 . S
C1889 C1890 1.397 . S
C1889 C1894 1.363 . S
C1890 H1867 0.950 . S
C1890 C1889 1.397 . S
C1890 C1891 1.334 . S
C1891 H1868 0.950 . S
C1891 C1890 1.334 . S
C1891 C1892 1.287 . S
C1892 C1891 1.287 . S
C1892 C1893 1.524 . S
C1892 H1911 0.913 . S
C1893 H1869 0.950 . S
C1893 C1892 1.524 . S
C1893 C1894 1.415 . S
C1894 H1870 0.950 . S
C1894 C1889 1.363 . S
C1894 C1893 1.415 . S
C1895 H1871 0.951 . S
C1895 C1896 1.366 . S
C1895 C1897 1.388 . S
C1896 C1895 1.366 . S
C1896 C1900 1.385 . S
C1897 H1872 0.951 . S
C1897 C1895 1.388 . S
C1897 C1898 1.366 . S
C1898 C1897 1.366 . S
C1898 C1899 1.414 . S
C1898 C1901 1.499 . S
C1899 H1873 0.950 . S
C1899 C1898 1.414 . S
C1899 C1900 1.374 . S
C1900 H1874 0.950 . S
C1900 C1896 1.385 . S
C1900 C1899 1.374 . S
C1901 C1898 1.499 . S
C1901 C1902 1.373 . S
C1901 C1903 1.389 . S
C1902 H1875 0.950 . S
C1902 C1888 1.377 . S
C1902 C1901 1.373 . S
C1903 C1887 1.377 . S
C1903 C1901 1.389 . S
C1903 C1904 1.524 . S
C1904 C1903 1.524 . S
C1904 C1905 1.397 . S
C1904 C1909 1.363 . S
C1905 H1876 0.950 . S
C1905 C1904 1.397 . S
C1905 C1906 1.334 . S
C1906 H1877 0.950 . S
C1906 C1905 1.334 . S
C1906 C1907 1.287 . S
C1907 C1906 1.287 . S
C1907 C1908 1.524 . S
C1907 H1910 0.999 . S
C1908 H1878 0.950 . S
C1908 C1907 1.524 . S
C1908 C1909 1.415 . S
C1909 H1879 0.950 . S
C1909 C1904 1.363 . S
C1909 C1908 1.415 . S
H1910 C1907 0.999 . S
H1911 C1892 0.913 . S
H1912 C1930 0.951 . S
H1913 C1932 0.951 . S
H1914 C1934 0.950 . S
H1915 C1935 0.950 . S
H1916 C1937 0.950 . S
H1917 C1940 0.950 . S
H1918 C1941 0.950 . S
H1919 C1943 0.950 . S
H1920 C1944 0.950 . S
H1921 C1945 0.951 . S
H1922 C1947 0.951 . S
H1923 C1949 0.950 . S
H1924 C1950 0.950 . S
H1925 C1952 0.950 . S
H1926 C1955 0.950 . S
H1927 C1956 0.950 . S
H1928 C1958 0.950 . S
H1929 C1959 0.950 . S
C1930 H1912 0.951 . S
C1930 C1931 1.366 . S
C1930 C1932 1.388 . S
C1931 C1930 1.366 . S
C1931 C1935 1.385 . S
C1932 H1913 0.951 . S
C1932 C1930 1.388 . S
C1932 C1933 1.366 . S
C1933 C1932 1.366 . S
C1933 C1934 1.414 . S
C1933 C1936 1.499 . S
C1934 H1914 0.950 . S
C1934 C1933 1.414 . S
C1934 C1935 1.374 . S
C1935 H1915 0.950 . S
C1935 C1931 1.385 . S
C1935 C1934 1.374 . S
C1936 C1933 1.499 . S
C1936 C1937 1.373 . S
C1936 C1938 1.389 . S
C1937 H1916 0.950 . S
C1937 C1936 1.373 . S
C1937 C1953 1.377 . S
C1938 C1936 1.389 . S
C1938 C1939 1.524 . S
C1938 C1952 1.377 . S
C1939 C1938 1.524 . S
C1939 C1940 1.397 . S
C1939 C1944 1.363 . S
C1940 H1917 0.950 . S
C1940 C1939 1.397 . S
C1940 C1941 1.334 . S
C1941 H1918 0.950 . S
C1941 C1940 1.334 . S
C1941 C1942 1.287 . S
C1942 C1941 1.287 . S
C1942 C1943 1.524 . S
C1942 H1961 0.913 . S
C1943 H1919 0.950 . S
C1943 C1942 1.524 . S
C1943 C1944 1.415 . S
C1944 H1920 0.950 . S
C1944 C1939 1.363 . S
C1944 C1943 1.415 . S
C1945 H1921 0.951 . S
C1945 C1946 1.366 . S
C1945 C1947 1.388 . S
C1946 C1945 1.366 . S
C1946 C1950 1.385 . S
C1947 H1922 0.951 . S
C1947 C1945 1.388 . S
C1947 C1948 1.366 . S
C1948 C1947 1.366 . S
C1948 C1949 1.414 . S
C1948 C1951 1.499 . S
C1949 H1923 0.950 . S
C1949 C1948 1.414 . S
C1949 C1950 1.374 . S
C1950 H1924 0.950 . S
C1950 C1946 1.385 . S
C1950 C1949 1.374 . S
C1951 C1948 1.499 . S
C1951 C1952 1.373 . S
C1951 C1953 1.389 . S
C1952 H1925 0.950 . S
C1952 C1938 1.377 . S
C1952 C1951 1.373 . S
C1953 C1937 1.377 . S
C1953 C1951 1.389 . S
C1953 C1954 1.524 . S
C1954 C1953 1.524 . S
C1954 C1955 1.397 . S
C1954 C1959 1.363 . S
C1955 H1926 0.950 . S
C1955 C1954 1.397 . S
C1955 C1956 1.334 . S
C1956 H1927 0.950 . S
C1956 C1955 1.334 . S
C1956 C1957 1.287 . S
C1957 C1956 1.287 . S
C1957 C1958 1.524 . S
C1957 H1960 0.999 . S
C1958 H1928 0.950 . S
C1958 C1957 1.524 . S
C1958 C1959 1.415 . S
C1959 H1929 0.950 . S
C1959 C1954 1.363 . S
C1959 C1958 1.415 . S
H1960 C1957 0.999 . S
H1961 C1942 0.913 . S
H1962 C1980 0.951 . S
H1963 C1982 0.951 . S
H1964 C1984 0.950 . S
H1965 C1985 0.950 . S
H1966 C1987 0.950 . S
H1967 C1990 0.950 . S
H1968 C1991 0.950 . S
H1969 C1993 0.950 . S
H1970 C1994 0.950 . S
H1971 C1995 0.951 . S
H1972 C1997 0.951 . S
H1973 C1999 0.950 . S
H1974 C2000 0.950 . S
H1975 C2002 0.950 . S
H1976 C2005 0.950 . S
H1977 C2006 0.950 . S
H1978 C2008 0.950 . S
H1979 C2009 0.950 . S
C1980 H1962 0.951 . S
C1980 C1981 1.366 . S
C1980 C1982 1.388 . S
C1981 C1980 1.366 . S
C1981 C1985 1.385 . S
C1982 H1963 0.951 . S
C1982 C1980 1.388 . S
C1982 C1983 1.366 . S
C1983 C1982 1.366 . S
C1983 C1984 1.414 . S
C1983 C1986 1.499 . S
C1984 H1964 0.950 . S
C1984 C1983 1.414 . S
C1984 C1985 1.374 . S
C1985 H1965 0.950 . S
C1985 C1981 1.385 . S
C1985 C1984 1.374 . S
C1986 C1983 1.499 . S
C1986 C1987 1.373 . S
C1986 C1988 1.389 . S
C1987 H1966 0.950 . S
C1987 C1986 1.373 . S
C1987 C2003 1.377 . S
C1988 C1986 1.389 . S
C1988 C1989 1.524 . S
C1988 C2002 1.377 . S
C1989 C1988 1.524 . S
C1989 C1990 1.397 . S
C1989 C1994 1.363 . S
C1990 H1967 0.950 . S
C1990 C1989 1.397 . S
C1990 C1991 1.334 . S
C1991 H1968 0.950 . S
C1991 C1990 1.334 . S
C1991 C1992 1.287 . S
C1992 C1991 1.287 . S
C1992 C1993 1.524 . S
C1992 H2011 0.913 . S
C1993 H1969 0.950 . S
C1993 C1992 1.524 . S
C1993 C1994 1.415 . S
C1994 H1970 0.950 . S
C1994 C1989 1.363 . S
C1994 C1993 1.415 . S
C1995 H1971 0.951 . S
C1995 C1996 1.366 . S
C1995 C1997 1.388 . S
C1996 C1995 1.366 . S
C1996 C2000 1.385 . S
C1997 H1972 0.951 . S
C1997 C1995 1.388 . S
C1997 C1998 1.366 . S
C1998 C1997 1.366 . S
C1998 C1999 1.414 . S
C1998 C2001 1.499 . S
C1999 H1973 0.950 . S
C1999 C1998 1.414 . S
C1999 C2000 1.374 . S
C2000 H1974 0.950 . S
C2000 C1996 1.385 . S
C2000 C1999 1.374 . S
C2001 C1998 1.499 . S
C2001 C2002 1.373 . S
C2001 C2003 1.389 . S
C2002 H1975 0.950 . S
C2002 C1988 1.377 . S
C2002 C2001 1.373 . S
C2003 C1987 1.377 . S
C2003 C2001 1.389 . S
C2003 C2004 1.524 . S
C2004 C2003 1.524 . S
C2004 C2005 1.397 . S
C2004 C2009 1.363 . S
C2005 H1976 0.950 . S
C2005 C2004 1.397 . S
C2005 C2006 1.334 . S
C2006 H1977 0.950 . S
C2006 C2005 1.334 . S
C2006 C2007 1.287 . S
C2007 C2006 1.287 . S
C2007 C2008 1.524 . S
C2007 H2010 0.999 . S
C2008 H1978 0.950 . S
C2008 C2007 1.524 . S
C2008 C2009 1.415 . S
C2009 H1979 0.950 . S
C2009 C2004 1.363 . S
C2009 C2008 1.415 . S
H2010 C2007 0.999 . S
H2011 C1992 0.913 . S
H2012 C2030 0.951 . S
H2013 C2032 0.951 . S
H2014 C2034 0.950 . S
H2015 C2035 0.950 . S
H2016 C2037 0.950 . S
H2017 C2040 0.950 . S
H2018 C2041 0.950 . S
H2019 C2043 0.950 . S
H2020 C2044 0.950 . S
H2021 C2045 0.951 . S
H2022 C2047 0.951 . S
H2023 C2049 0.950 . S
H2024 C2050 0.950 . S
H2025 C2052 0.950 . S
H2026 C2055 0.950 . S
H2027 C2056 0.950 . S
H2028 C2058 0.950 . S
H2029 C2059 0.950 . S
C2030 H2012 0.951 . S
C2030 C2031 1.366 . S
C2030 C2032 1.388 . S
C2031 C2030 1.366 . S
C2031 C2035 1.385 . S
C2032 H2013 0.951 . S
C2032 C2030 1.388 . S
C2032 C2033 1.366 . S
C2033 C2032 1.366 . S
C2033 C2034 1.414 . S
C2033 C2036 1.499 . S
C2034 H2014 0.950 . S
C2034 C2033 1.414 . S
C2034 C2035 1.374 . S
C2035 H2015 0.950 . S
C2035 C2031 1.385 . S
C2035 C2034 1.374 . S
C2036 C2033 1.499 . S
C2036 C2037 1.373 . S
C2036 C2038 1.389 . S
C2037 H2016 0.950 . S
C2037 C2036 1.373 . S
C2037 C2053 1.377 . S
C2038 C2036 1.389 . S
C2038 C2039 1.524 . S
C2038 C2052 1.377 . S
C2039 C2038 1.524 . S
C2039 C2040 1.397 . S
C2039 C2044 1.363 . S
C2040 H2017 0.950 . S
C2040 C2039 1.397 . S
C2040 C2041 1.334 . S
C2041 H2018 0.950 . S
C2041 C2040 1.334 . S
C2041 C2042 1.287 . S
C2042 C2041 1.287 . S
C2042 C2043 1.524 . S
C2042 H2061 0.913 . S
C2043 H2019 0.950 . S
C2043 C2042 1.524 . S
C2043 C2044 1.415 . S
C2044 H2020 0.950 . S
C2044 C2039 1.363 . S
C2044 C2043 1.415 . S
C2045 H2021 0.951 . S
C2045 C2046 1.366 . S
C2045 C2047 1.388 . S
C2046 C2045 1.366 . S
C2046 C2050 1.385 . S
C2047 H2022 0.951 . S
C2047 C2045 1.388 . S
C2047 C2048 1.366 . S
C2048 C2047 1.366 . S
C2048 C2049 1.414 . S
C2048 C2051 1.499 . S
C2049 H2023 0.950 . S
C2049 C2048 1.414 . S
C2049 C2050 1.374 . S
C2050 H2024 0.950 . S
C2050 C2046 1.385 . S
C2050 C2049 1.374 . S
C2051 C2048 1.499 . S
C2051 C2052 1.373 . S
C2051 C2053 1.389 . S
C2052 H2025 0.950 . S
C2052 C2038 1.377 . S
C2052 C2051 1.373 . S
C2053 C2037 1.377 . S
C2053 C2051 1.389 . S
C2053 C2054 1.524 . S
C2054 C2053 1.524 . S
C2054 C2055 1.397 . S
C2054 C2059 1.363 . S
C2055 H2026 0.950 . S
C2055 C2054 1.397 . S
C2055 C2056 1.334 . S
C2056 H2027 0.950 . S
C2056 C2055 1.334 . S
C2056 C2057 1.287 . S
C2057 C2056 1.287 . S
C2057 C2058 1.524 . S
C2057 H2060 0.999 . S
C2058 H2028 0.950 . S
C2058 C2057 1.524 . S
C2058 C2059 1.415 . S
C2059 H2029 0.950 . S
C2059 C2054 1.363 . S
C2059 C2058 1.415 . S
H2060 C2057 0.999 . S
H2061 C2042 0.913 . S
H2062 C2080 0.951 . S
H2063 C2082 0.951 . S
H2064 C2084 0.950 . S
H2065 C2085 0.950 . S
H2066 C2087 0.950 . S
H2067 C2090 0.950 . S
H2068 C2091 0.950 . S
H2069 C2093 0.950 . S
H2070 C2094 0.950 . S
H2071 C2095 0.951 . S
H2072 C2097 0.951 . S
H2073 C2099 0.950 . S
H2074 C2100 0.950 . S
H2075 C2102 0.950 . S
H2076 C2105 0.950 . S
H2077 C2106 0.950 . S
H2078 C2108 0.950 . S
H2079 C2109 0.950 . S
C2080 H2062 0.951 . S
C2080 C2081 1.366 . S
C2080 C2082 1.388 . S
C2081 C2080 1.366 . S
C2081 C2085 1.385 . S
C2082 H2063 0.951 . S
C2082 C2080 1.388 . S
C2082 C2083 1.366 . S
C2083 C2082 1.366 . S
C2083 C2084 1.414 . S
C2083 C2086 1.499 . S
C2084 H2064 0.950 . S
C2084 C2083 1.414 . S
C2084 C2085 1.374 . S
C2085 H2065 0.950 . S
C2085 C2081 1.385 . S
C2085 C2084 1.374 . S
C2086 C2083 1.499 . S
C2086 C2087 1.373 . S
C2086 C2088 1.389 . S
C2087 H2066 0.950 . S
C2087 C2086 1.373 . S
C2087 C2103 1.377 . S
C2088 C2086 1.389 . S
C2088 C2089 1.524 . S
C2088 C2102 1.377 . S
C2089 C2088 1.524 . S
C2089 C2090 1.397 . S
C2089 C2094 1.363 . S
C2090 H2067 0.950 . S
C2090 C2089 1.397 . S
C2090 C2091 1.334 . S
C2091 H2068 0.950 . S
C2091 C2090 1.334 . S
C2091 C2092 1.287 . S
C2092 C2091 1.287 . S
C2092 C2093 1.524 . S
C2092 H2111 0.913 . S
C2093 H2069 0.950 . S
C2093 C2092 1.524 . S
C2093 C2094 1.415 . S
C2094 H2070 0.950 . S
C2094 C2089 1.363 . S
C2094 C2093 1.415 . S
C2095 H2071 0.951 . S
C2095 C2096 1.366 . S
C2095 C2097 1.388 . S
C2096 C2095 1.366 . S
C2096 C2100 1.385 . S
C2097 H2072 0.951 . S
C2097 C2095 1.388 . S
C2097 C2098 1.366 . S
C2098 C2097 1.366 . S
C2098 C2099 1.414 . S
C2098 C2101 1.499 . S
C2099 H2073 0.950 . S
C2099 C2098 1.414 . S
C2099 C2100 1.374 . S
C2100 H2074 0.950 . S
C2100 C2096 1.385 . S
C2100 C2099 1.374 . S
C2101 C2098 1.499 . S
C2101 C2102 1.373 . S
C2101 C2103 1.389 . S
C2102 H2075 0.950 . S
C2102 C2088 1.377 . S
C2102 C2101 1.373 . S
C2103 C2087 1.377 . S
C2103 C2101 1.389 . S
C2103 C2104 1.524 . S
C2104 C2103 1.524 . S
C2104 C2105 1.397 . S
C2104 C2109 1.363 . S
C2105 H2076 0.950 . S
C2105 C2104 1.397 . S
C2105 C2106 1.334 . S
C2106 H2077 0.950 . S
C2106 C2105 1.334 . S
C2106 C2107 1.287 . S
C2107 C2106 1.287 . S
C2107 C2108 1.524 . S
C2107 H2110 0.999 . S
C2108 H2078 0.950 . S
C2108 C2107 1.524 . S
C2108 C2109 1.415 . S
C2109 H2079 0.950 . S
C2109 C2104 1.363 . S
C2109 C2108 1.415 . S
H2110 C2107 0.999 . S
H2111 C2092 0.913 . S
H2112 C2130 0.951 . S
H2113 C2132 0.951 . S
H2114 C2134 0.950 . S
H2115 C2135 0.950 . S
H2116 C2137 0.950 . S
H2117 C2140 0.950 . S
H2118 C2141 0.950 . S
H2119 C2143 0.950 . S
H2120 C2144 0.950 . S
H2121 C2145 0.951 . S
H2122 C2147 0.951 . S
H2123 C2149 0.950 . S
H2124 C2150 0.950 . S
H2125 C2152 0.950 . S
H2126 C2155 0.950 . S
H2127 C2156 0.950 . S
H2128 C2158 0.950 . S
H2129 C2159 0.950 . S
C2130 H2112 0.951 . S
C2130 C2131 1.366 . S
C2130 C2132 1.388 . S
C2131 C2130 1.366 . S
C2131 C2135 1.385 . S
C2132 H2113 0.951 . S
C2132 C2130 1.388 . S
C2132 C2133 1.366 . S
C2133 C2132 1.366 . S
C2133 C2134 1.414 . S
C2133 C2136 1.499 . S
C2134 H2114 0.950 . S
C2134 C2133 1.414 . S
C2134 C2135 1.374 . S
C2135 H2115 0.950 . S
C2135 C2131 1.385 . S
C2135 C2134 1.374 . S
C2136 C2133 1.499 . S
C2136 C2137 1.373 . S
C2136 C2138 1.389 . S
C2137 H2116 0.950 . S
C2137 C2136 1.373 . S
C2137 C2153 1.377 . S
C2138 C2136 1.389 . S
C2138 C2139 1.524 . S
C2138 C2152 1.377 . S
C2139 C2138 1.524 . S
C2139 C2140 1.397 . S
C2139 C2144 1.363 . S
C2140 H2117 0.950 . S
C2140 C2139 1.397 . S
C2140 C2141 1.334 . S
C2141 H2118 0.950 . S
C2141 C2140 1.334 . S
C2141 C2142 1.287 . S
C2142 C2141 1.287 . S
C2142 C2143 1.524 . S
C2142 H2161 0.913 . S
C2143 H2119 0.950 . S
C2143 C2142 1.524 . S
C2143 C2144 1.415 . S
C2144 H2120 0.950 . S
C2144 C2139 1.363 . S
C2144 C2143 1.415 . S
C2145 H2121 0.951 . S
C2145 C2146 1.366 . S
C2145 C2147 1.388 . S
C2146 C2145 1.366 . S
C2146 C2150 1.385 . S
C2147 H2122 0.951 . S
C2147 C2145 1.388 . S
C2147 C2148 1.366 . S
C2148 C2147 1.366 . S
C2148 C2149 1.414 . S
C2148 C2151 1.499 . S
C2149 H2123 0.950 . S
C2149 C2148 1.414 . S
C2149 C2150 1.374 . S
C2150 H2124 0.950 . S
C2150 C2146 1.385 . S
C2150 C2149 1.374 . S
C2151 C2148 1.499 . S
C2151 C2152 1.373 . S
C2151 C2153 1.389 . S
C2152 H2125 0.950 . S
C2152 C2138 1.377 . S
C2152 C2151 1.373 . S
C2153 C2137 1.377 . S
C2153 C2151 1.389 . S
C2153 C2154 1.524 . S
C2154 C2153 1.524 . S
C2154 C2155 1.397 . S
C2154 C2159 1.363 . S
C2155 H2126 0.950 . S
C2155 C2154 1.397 . S
C2155 C2156 1.334 . S
C2156 H2127 0.950 . S
C2156 C2155 1.334 . S
C2156 C2157 1.287 . S
C2157 C2156 1.287 . S
C2157 C2158 1.524 . S
C2157 H2160 0.999 . S
C2158 H2128 0.950 . S
C2158 C2157 1.524 . S
C2158 C2159 1.415 . S
C2159 H2129 0.950 . S
C2159 C2154 1.363 . S
C2159 C2158 1.415 . S
H2160 C2157 0.999 . S
H2161 C2142 0.913 . S
H2162 C2180 0.951 . S
H2163 C2182 0.951 . S
H2164 C2184 0.950 . S
H2165 C2185 0.950 . S
H2166 C2187 0.950 . S
H2167 C2190 0.950 . S
H2168 C2191 0.950 . S
H2169 C2193 0.950 . S
H2170 C2194 0.950 . S
H2171 C2195 0.951 . S
H2172 C2197 0.951 . S
H2173 C2199 0.950 . S
H2174 C2200 0.950 . S
H2175 C2202 0.950 . S
H2176 C2205 0.950 . S
H2177 C2206 0.950 . S
H2178 C2208 0.950 . S
H2179 C2209 0.950 . S
C2180 H2162 0.951 . S
C2180 C2181 1.366 . S
C2180 C2182 1.388 . S
C2181 C2180 1.366 . S
C2181 C2185 1.385 . S
C2182 H2163 0.951 . S
C2182 C2180 1.388 . S
C2182 C2183 1.366 . S
C2183 C2182 1.366 . S
C2183 C2184 1.414 . S
C2183 C2186 1.499 . S
C2184 H2164 0.950 . S
C2184 C2183 1.414 . S
C2184 C2185 1.374 . S
C2185 H2165 0.950 . S
C2185 C2181 1.385 . S
C2185 C2184 1.374 . S
C2186 C2183 1.499 . S
C2186 C2187 1.373 . S
C2186 C2188 1.389 . S
C2187 H2166 0.950 . S
C2187 C2186 1.373 . S
C2187 C2203 1.377 . S
C2188 C2186 1.389 . S
C2188 C2189 1.524 . S
C2188 C2202 1.377 . S
C2189 C2188 1.524 . S
C2189 C2190 1.397 . S
C2189 C2194 1.363 . S
C2190 H2167 0.950 . S
C2190 C2189 1.397 . S
C2190 C2191 1.334 . S
C2191 H2168 0.950 . S
C2191 C2190 1.334 . S
C2191 C2192 1.287 . S
C2192 C2191 1.287 . S
C2192 C2193 1.524 . S
C2192 H2211 0.913 . S
C2193 H2169 0.950 . S
C2193 C2192 1.524 . S
C2193 C2194 1.415 . S
C2194 H2170 0.950 . S
C2194 C2189 1.363 . S
C2194 C2193 1.415 . S
C2195 H2171 0.951 . S
C2195 C2196 1.366 . S
C2195 C2197 1.388 . S
C2196 C2195 1.366 . S
C2196 C2200 1.385 . S
C2197 H2172 0.951 . S
C2197 C2195 1.388 . S
C2197 C2198 1.366 . S
C2198 C2197 1.366 . S
C2198 C2199 1.414 . S
C2198 C2201 1.499 . S
C2199 H2173 0.950 . S
C2199 C2198 1.414 . S
C2199 C2200 1.374 . S
C2200 H2174 0.950 . S
C2200 C2196 1.385 . S
C2200 C2199 1.374 . S
C2201 C2198 1.499 . S
C2201 C2202 1.373 . S
C2201 C2203 1.389 . S
C2202 H2175 0.950 . S
C2202 C2188 1.377 . S
C2202 C2201 1.373 . S
C2203 C2187 1.377 . S
C2203 C2201 1.389 . S
C2203 C2204 1.524 . S
C2204 C2203 1.524 . S
C2204 C2205 1.397 . S
C2204 C2209 1.363 . S
C2205 H2176 0.950 . S
C2205 C2204 1.397 . S
C2205 C2206 1.334 . S
C2206 H2177 0.950 . S
C2206 C2205 1.334 . S
C2206 C2207 1.287 . S
C2207 C2206 1.287 . S
C2207 C2208 1.524 . S
C2207 H2210 0.999 . S
C2208 H2178 0.950 . S
C2208 C2207 1.524 . S
C2208 C2209 1.415 . S
C2209 H2179 0.950 . S
C2209 C2204 1.363 . S
C2209 C2208 1.415 . S
H2210 C2207 0.999 . S
H2211 C2192 0.913 . S
H2212 C2230 0.951 . S
H2213 C2232 0.951 . S
H2214 C2234 0.950 . S
H2215 C2235 0.950 . S
H2216 C2237 0.950 . S
H2217 C2240 0.950 . S
H2218 C2241 0.950 . S
H2219 C2243 0.950 . S
H2220 C2244 0.950 . S
H2221 C2245 0.951 . S
H2222 C2247 0.951 . S
H2223 C2249 0.950 . S
H2224 C2250 0.950 . S
H2225 C2252 0.950 . S
H2226 C2255 0.950 . S
H2227 C2256 0.950 . S
H2228 C2258 0.950 . S
H2229 C2259 0.950 . S
C2230 H2212 0.951 . S
C2230 C2231 1.366 . S
C2230 C2232 1.388 . S
C2231 C2230 1.366 . S
C2231 C2235 1.385 . S
C2232 H2213 0.951 . S
C2232 C2230 1.388 . S
C2232 C2233 1.366 . S
C2233 C2232 1.366 . S
C2233 C2234 1.414 . S
C2233 C2236 1.499 . S
C2234 H2214 0.950 . S
C2234 C2233 1.414 . S
C2234 C2235 1.374 . S
C2235 H2215 0.950 . S
C2235 C2231 1.385 . S
C2235 C2234 1.374 . S
C2236 C2233 1.499 . S
C2236 C2237 1.373 . S
C2236 C2238 1.389 . S
C2237 H2216 0.950 . S
C2237 C2236 1.373 . S
C2237 C2253 1.377 . S
C2238 C2236 1.389 . S
C2238 C2239 1.524 . S
C2238 C2252 1.377 . S
C2239 C2238 1.524 . S
C2239 C2240 1.397 . S
C2239 C2244 1.363 . S
C2240 H2217 0.950 . S
C2240 C2239 1.397 . S
C2240 C2241 1.334 . S
C2241 H2218 0.950 . S
C2241 C2240 1.334 . S
C2241 C2242 1.287 . S
C2242 C2241 1.287 . S
C2242 C2243 1.524 . S
C2242 H2261 0.913 . S
C2243 H2219 0.950 . S
C2243 C2242 1.524 . S
C2243 C2244 1.415 . S
C2244 H2220 0.950 . S
C2244 C2239 1.363 . S
C2244 C2243 1.415 . S
C2245 H2221 0.951 . S
C2245 C2246 1.366 . S
C2245 C2247 1.388 . S
C2246 C2245 1.366 . S
C2246 C2250 1.385 . S
C2247 H2222 0.951 . S
C2247 C2245 1.388 . S
C2247 C2248 1.366 . S
C2248 C2247 1.366 . S
C2248 C2249 1.414 . S
C2248 C2251 1.499 . S
C2249 H2223 0.950 . S
C2249 C2248 1.414 . S
C2249 C2250 1.374 . S
C2250 H2224 0.950 . S
C2250 C2246 1.385 . S
C2250 C2249 1.374 . S
C2251 C2248 1.499 . S
C2251 C2252 1.373 . S
C2251 C2253 1.389 . S
C2252 H2225 0.950 . S
C2252 C2238 1.377 . S
C2252 C2251 1.373 . S
C2253 C2237 1.377 . S
C2253 C2251 1.389 . S
C2253 C2254 1.524 . S
C2254 C2253 1.524 . S
C2254 C2255 1.397 . S
C2254 C2259 1.363 . S
C2255 H2226 0.950 . S
C2255 C2254 1.397 . S
C2255 C2256 1.334 . S
C2256 H2227 0.950 . S
C2256 C2255 1.334 . S
C2256 C2257 1.287 . S
C2257 C2256 1.287 . S
C2257 C2258 1.524 . S
C2257 H2260 0.999 . S
C2258 H2228 0.950 . S
C2258 C2257 1.524 . S
C2258 C2259 1.415 . S
C2259 H2229 0.950 . S
C2259 C2254 1.363 . S
C2259 C2258 1.415 . S
H2260 C2257 0.999 . S
H2261 C2242 0.913 . S
H2262 C2280 0.951 . S
H2263 C2282 0.951 . S
H2264 C2284 0.950 . S
H2265 C2285 0.950 . S
H2266 C2287 0.950 . S
H2267 C2290 0.950 . S
H2268 C2291 0.950 . S
H2269 C2293 0.950 . S
H2270 C2294 0.950 . S
H2271 C2295 0.951 . S
H2272 C2297 0.951 . S
H2273 C2299 0.950 . S
H2274 C2300 0.950 . S
H2275 C2302 0.950 . S
H2276 C2305 0.950 . S
H2277 C2306 0.950 . S
H2278 C2308 0.950 . S
H2279 C2309 0.950 . S
C2280 H2262 0.951 . S
C2280 C2281 1.366 . S
C2280 C2282 1.388 . S
C2281 C2280 1.366 . S
C2281 C2285 1.385 . S
C2282 H2263 0.951 . S
C2282 C2280 1.388 . S
C2282 C2283 1.366 . S
C2283 C2282 1.366 . S
C2283 C2284 1.414 . S
C2283 C2286 1.499 . S
C2284 H2264 0.950 . S
C2284 C2283 1.414 . S
C2284 C2285 1.374 . S
C2285 H2265 0.950 . S
C2285 C2281 1.385 . S
C2285 C2284 1.374 . S
C2286 C2283 1.499 . S
C2286 C2287 1.373 . S
C2286 C2288 1.389 . S
C2287 H2266 0.950 . S
C2287 C2286 1.373 . S
C2287 C2303 1.377 . S
C2288 C2286 1.389 . S
C2288 C2289 1.524 . S
C2288 C2302 1.377 . S
C2289 C2288 1.524 . S
C2289 C2290 1.397 . S
C2289 C2294 1.363 . S
C2290 H2267 0.950 . S
C2290 C2289 1.397 . S
C2290 C2291 1.334 . S
C2291 H2268 0.950 . S
C2291 C2290 1.334 . S
C2291 C2292 1.287 . S
C2292 C2291 1.287 . S
C2292 C2293 1.524 . S
C2292 H2311 0.913 . S
C2293 H2269 0.950 . S
C2293 C2292 1.524 . S
C2293 C2294 1.415 . S
C2294 H2270 0.950 . S
C2294 C2289 1.363 . S
C2294 C2293 1.415 . S
C2295 H2271 0.951 . S
C2295 C2296 1.366 . S
C2295 C2297 1.388 . S
C2296 C2295 1.366 . S
C2296 C2300 1.385 . S
C2297 H2272 0.951 . S
C2297 C2295 1.388 . S
C2297 C2298 1.366 . S
C2298 C2297 1.366 . S
C2298 C2299 1.414 . S
C2298 C2301 1.499 . S
C2299 H2273 0.950 . S
C2299 C2298 1.414 . S
C2299 C2300 1.374 . S
C2300 H2274 0.950 . S
C2300 C2296 1.385 . S
C2300 C2299 1.374 . S
C2301 C2298 1.499 . S
C2301 C2302 1.373 . S
C2301 C2303 1.389 . S
C2302 H2275 0.950 . S
C2302 C2288 1.377 . S
C2302 C2301 1.373 . S
C2303 C2287 1.377 . S
C2303 C2301 1.389 . S
C2303 C2304 1.524 . S
C2304 C2303 1.524 . S
C2304 C2305 1.397 . S
C2304 C2309 1.363 . S
C2305 H2276 0.950 . S
C2305 C2304 1.397 . S
C2305 C2306 1.334 . S
C2306 H2277 0.950 . S
C2306 C2305 1.334 . S
C2306 C2307 1.287 . S
C2307 C2306 1.287 . S
C2307 C2308 1.524 . S
C2307 H2310 0.999 . S
C2308 H2278 0.950 . S
C2308 C2307 1.524 . S
C2308 C2309 1.415 . S
C2309 H2279 0.950 . S
C2309 C2304 1.363 . S
C2309 C2308 1.415 . S
H2310 C2307 0.999 . S
H2311 C2292 0.913 . S
H2312 C2330 0.951 . S
H2313 C2332 0.951 . S
H2314 C2334 0.950 . S
H2315 C2335 0.950 . S
H2316 C2337 0.950 . S
H2317 C2340 0.950 . S
H2318 C2341 0.950 . S
H2319 C2343 0.950 . S
H2320 C2344 0.950 . S
H2321 C2345 0.951 . S
H2322 C2347 0.951 . S
H2323 C2349 0.950 . S
H2324 C2350 0.950 . S
H2325 C2352 0.950 . S
H2326 C2355 0.950 . S
H2327 C2356 0.950 . S
H2328 C2358 0.950 . S
H2329 C2359 0.950 . S
C2330 H2312 0.951 . S
C2330 C2331 1.366 . S
C2330 C2332 1.388 . S
C2331 C2330 1.366 . S
C2331 C2335 1.385 . S
C2332 H2313 0.951 . S
C2332 C2330 1.388 . S
C2332 C2333 1.366 . S
C2333 C2332 1.366 . S
C2333 C2334 1.414 . S
C2333 C2336 1.499 . S
C2334 H2314 0.950 . S
C2334 C2333 1.414 . S
C2334 C2335 1.374 . S
C2335 H2315 0.950 . S
C2335 C2331 1.385 . S
C2335 C2334 1.374 . S
C2336 C2333 1.499 . S
C2336 C2337 1.373 . S
C2336 C2338 1.389 . S
C2337 H2316 0.950 . S
C2337 C2336 1.373 . S
C2337 C2353 1.377 . S
C2338 C2336 1.389 . S
C2338 C2339 1.524 . S
C2338 C2352 1.377 . S
C2339 C2338 1.524 . S
C2339 C2340 1.397 . S
C2339 C2344 1.363 . S
C2340 H2317 0.950 . S
C2340 C2339 1.397 . S
C2340 C2341 1.334 . S
C2341 H2318 0.950 . S
C2341 C2340 1.334 . S
C2341 C2342 1.287 . S
C2342 C2341 1.287 . S
C2342 C2343 1.524 . S
C2342 H2361 0.913 . S
C2343 H2319 0.950 . S
C2343 C2342 1.524 . S
C2343 C2344 1.415 . S
C2344 H2320 0.950 . S
C2344 C2339 1.363 . S
C2344 C2343 1.415 . S
C2345 H2321 0.951 . S
C2345 C2346 1.366 . S
C2345 C2347 1.388 . S
C2346 C2345 1.366 . S
C2346 C2350 1.385 . S
C2347 H2322 0.951 . S
C2347 C2345 1.388 . S
C2347 C2348 1.366 . S
C2348 C2347 1.366 . S
C2348 C2349 1.414 . S
C2348 C2351 1.499 . S
C2349 H2323 0.950 . S
C2349 C2348 1.414 . S
C2349 C2350 1.374 . S
C2350 H2324 0.950 . S
C2350 C2346 1.385 . S
C2350 C2349 1.374 . S
C2351 C2348 1.499 . S
C2351 C2352 1.373 . S
C2351 C2353 1.389 . S
C2352 H2325 0.950 . S
C2352 C2338 1.377 . S
C2352 C2351 1.373 . S
C2353 C2337 1.377 . S
C2353 C2351 1.389 . S
C2353 C2354 1.524 . S
C2354 C2353 1.524 . S
C2354 C2355 1.397 . S
C2354 C2359 1.363 . S
C2355 H2326 0.950 . S
C2355 C2354 1.397 . S
C2355 C2356 1.334 . S
C2356 H2327 0.950 . S
C2356 C2355 1.334 . S
C2356 C2357 1.287 . S
C2357 C2356 1.287 . S
C2357 C2358 1.524 . S
C2357 H2360 0.999 . S
C2358 H2328 0.950 . S
C2358 C2357 1.524 . S
C2358 C2359 1.415 . S
C2359 H2329 0.950 . S
C2359 C2354 1.363 . S
C2359 C2358 1.415 . S
H2360 C2357 0.999 . S
H2361 C2342 0.913 . S
H2362 C2380 0.951 . S
H2363 C2382 0.951 . S
H2364 C2384 0.950 . S
H2365 C2385 0.950 . S
H2366 C2387 0.950 . S
H2367 C2390 0.950 . S
H2368 C2391 0.950 . S
H2369 C2393 0.950 . S
H2370 C2394 0.950 . S
H2371 C2395 0.951 . S
H2372 C2397 0.951 . S
H2373 C2399 0.950 . S
H2374 C2400 0.950 . S
H2375 C2402 0.950 . S
H2376 C2405 0.950 . S
H2377 C2406 0.950 . S
H2378 C2408 0.950 . S
H2379 C2409 0.950 . S
C2380 H2362 0.951 . S
C2380 C2381 1.366 . S
C2380 C2382 1.388 . S
C2381 C2380 1.366 . S
C2381 C2385 1.385 . S
C2382 H2363 0.951 . S
C2382 C2380 1.388 . S
C2382 C2383 1.366 . S
C2383 C2382 1.366 . S
C2383 C2384 1.414 . S
C2383 C2386 1.499 . S
C2384 H2364 0.950 . S
C2384 C2383 1.414 . S
C2384 C2385 1.374 . S
C2385 H2365 0.950 . S
C2385 C2381 1.385 . S
C2385 C2384 1.374 . S
C2386 C2383 1.499 . S
C2386 C2387 1.373 . S
C2386 C2388 1.389 . S
C2387 H2366 0.950 . S
C2387 C2386 1.373 . S
C2387 C2403 1.377 . S
C2388 C2386 1.389 . S
C2388 C2389 1.524 . S
C2388 C2402 1.377 . S
C2389 C2388 1.524 . S
C2389 C2390 1.397 . S
C2389 C2394 1.363 . S
C2390 H2367 0.950 . S
C2390 C2389 1.397 . S
C2390 C2391 1.334 . S
C2391 H2368 0.950 . S
C2391 C2390 1.334 . S
C2391 C2392 1.287 . S
C2392 C2391 1.287 . S
C2392 C2393 1.524 . S
C2392 H2411 0.913 . S
C2393 H2369 0.950 . S
C2393 C2392 1.524 . S
C2393 C2394 1.415 . S
C2394 H2370 0.950 . S
C2394 C2389 1.363 . S
C2394 C2393 1.415 . S
C2395 H2371 0.951 . S
C2395 C2396 1.366 . S
C2395 C2397 1.388 . S
C2396 C2395 1.366 . S
C2396 C2400 1.385 . S
C2397 H2372 0.951 . S
C2397 C2395 1.388 . S
C2397 C2398 1.366 . S
C2398 C2397 1.366 . S
C2398 C2399 1.414 . S
C2398 C2401 1.499 . S
C2399 H2373 0.950 . S
C2399 C2398 1.414 . S
C2399 C2400 1.374 . S
C2400 H2374 0.950 . S
C2400 C2396 1.385 . S
C2400 C2399 1.374 . S
C2401 C2398 1.499 . S
C2401 C2402 1.373 . S
C2401 C2403 1.389 . S
C2402 H2375 0.950 . S
C2402 C2388 1.377 . S
C2402 C2401 1.373 . S
C2403 C2387 1.377 . S
C2403 C2401 1.389 . S
C2403 C2404 1.524 . S
C2404 C2403 1.524 . S
C2404 C2405 1.397 . S
C2404 C2409 1.363 . S
C2405 H2376 0.950 . S
C2405 C2404 1.397 . S
C2405 C2406 1.334 . S
C2406 H2377 0.950 . S
C2406 C2405 1.334 . S
C2406 C2407 1.287 . S
C2407 C2406 1.287 . S
C2407 C2408 1.524 . S
C2407 H2410 0.999 . S
C2408 H2378 0.950 . S
C2408 C2407 1.524 . S
C2408 C2409 1.415 . S
C2409 H2379 0.950 . S
C2409 C2404 1.363 . S
C2409 C2408 1.415 . S
H2410 C2407 0.999 . S
H2411 C2392 0.913 . S
H2412 C2430 0.951 . S
H2413 C2432 0.951 . S
H2414 C2434 0.950 . S
H2415 C2435 0.950 . S
H2416 C2437 0.950 . S
H2417 C2440 0.950 . S
H2418 C2441 0.950 . S
H2419 C2443 0.950 . S
H2420 C2444 0.950 . S
H2421 C2445 0.951 . S
H2422 C2447 0.951 . S
H2423 C2449 0.950 . S
H2424 C2450 0.950 . S
H2425 C2452 0.950 . S
H2426 C2455 0.950 . S
H2427 C2456 0.950 . S
H2428 C2458 0.950 . S
H2429 C2459 0.950 . S
C2430 H2412 0.951 . S
C2430 C2431 1.366 . S
C2430 C2432 1.388 . S
C2431 C2430 1.366 . S
C2431 C2435 1.385 . S
C2432 H2413 0.951 . S
C2432 C2430 1.388 . S
C2432 C2433 1.366 . S
C2433 C2432 1.366 . S
C2433 C2434 1.414 . S
C2433 C2436 1.499 . S
C2434 H2414 0.950 . S
C2434 C2433 1.414 . S
C2434 C2435 1.374 . S
C2435 H2415 0.950 . S
C2435 C2431 1.385 . S
C2435 C2434 1.374 . S
C2436 C2433 1.499 . S
C2436 C2437 1.373 . S
C2436 C2438 1.389 . S
C2437 H2416 0.950 . S
C2437 C2436 1.373 . S
C2437 C2453 1.377 . S
C2438 C2436 1.389 . S
C2438 C2439 1.524 . S
C2438 C2452 1.377 . S
C2439 C2438 1.524 . S
C2439 C2440 1.397 . S
C2439 C2444 1.363 . S
C2440 H2417 0.950 . S
C2440 C2439 1.397 . S
C2440 C2441 1.334 . S
C2441 H2418 0.950 . S
C2441 C2440 1.334 . S
C2441 C2442 1.287 . S
C2442 C2441 1.287 . S
C2442 C2443 1.524 . S
C2442 H2461 0.913 . S
C2443 H2419 0.950 . S
C2443 C2442 1.524 . S
C2443 C2444 1.415 . S
C2444 H2420 0.950 . S
C2444 C2439 1.363 . S
C2444 C2443 1.415 . S
C2445 H2421 0.951 . S
C2445 C2446 1.366 . S
C2445 C2447 1.388 . S
C2446 C2445 1.366 . S
C2446 C2450 1.385 . S
C2447 H2422 0.951 . S
C2447 C2445 1.388 . S
C2447 C2448 1.366 . S
C2448 C2447 1.366 . S
C2448 C2449 1.414 . S
C2448 C2451 1.499 . S
C2449 H2423 0.950 . S
C2449 C2448 1.414 . S
C2449 C2450 1.374 . S
C2450 H2424 0.950 . S
C2450 C2446 1.385 . S
C2450 C2449 1.374 . S
C2451 C2448 1.499 . S
C2451 C2452 1.373 . S
C2451 C2453 1.389 . S
C2452 H2425 0.950 . S
C2452 C2438 1.377 . S
C2452 C2451 1.373 . S
C2453 C2437 1.377 . S
C2453 C2451 1.389 . S
C2453 C2454 1.524 . S
C2454 C2453 1.524 . S
C2454 C2455 1.397 . S
C2454 C2459 1.363 . S
C2455 H2426 0.950 . S
C2455 C2454 1.397 . S
C2455 C2456 1.334 . S
C2456 H2427 0.950 . S
C2456 C2455 1.334 . S
C2456 C2457 1.287 . S
C2457 C2456 1.287 . S
C2457 C2458 1.524 . S
C2457 H2460 0.999 . S
C2458 H2428 0.950 . S
C2458 C2457 1.524 . S
C2458 C2459 1.415 . S
C2459 H2429 0.950 . S
C2459 C2454 1.363 . S
C2459 C2458 1.415 . S
H2460 C2457 0.999 . S
H2461 C2442 0.913 . S
H2462 C2480 0.951 . S
H2463 C2482 0.951 . S
H2464 C2484 0.950 . S
H2465 C2485 0.950 . S
H2466 C2487 0.950 . S
H2467 C2490 0.950 . S
H2468 C2491 0.950 . S
H2469 C2493 0.950 . S
H2470 C2494 0.950 . S
H2471 C2495 0.951 . S
H2472 C2497 0.951 . S
H2473 C2499 0.950 . S
H2474 C2500 0.950 . S
H2475 C2502 0.950 . S
H2476 C2505 0.950 . S
H2477 C2506 0.950 . S
H2478 C2508 0.950 . S
H2479 C2509 0.950 . S
C2480 H2462 0.951 . S
C2480 C2481 1.366 . S
C2480 C2482 1.388 . S
C2481 C2480 1.366 . S
C2481 C2485 1.385 . S
C2482 H2463 0.951 . S
C2482 C2480 1.388 . S
C2482 C2483 1.366 . S
C2483 C2482 1.366 . S
C2483 C2484 1.414 . S
C2483 C2486 1.499 . S
C2484 H2464 0.950 . S
C2484 C2483 1.414 . S
C2484 C2485 1.374 . S
C2485 H2465 0.950 . S
C2485 C2481 1.385 . S
C2485 C2484 1.374 . S
C2486 C2483 1.499 . S
C2486 C2487 1.373 . S
C2486 C2488 1.389 . S
C2487 H2466 0.950 . S
C2487 C2486 1.373 . S
C2487 C2503 1.377 . S
C2488 C2486 1.389 . S
C2488 C2489 1.524 . S
C2488 C2502 1.377 . S
C2489 C2488 1.524 . S
C2489 C2490 1.397 . S
C2489 C2494 1.363 . S
C2490 H2467 0.950 . S
C2490 C2489 1.397 . S
C2490 C2491 1.334 . S
C2491 H2468 0.950 . S
C2491 C2490 1.334 . S
C2491 C2492 1.287 . S
C2492 C2491 1.287 . S
C2492 C2493 1.524 . S
C2492 H2511 0.913 . S
C2493 H2469 0.950 . S
C2493 C2492 1.524 . S
C2493 C2494 1.415 . S
C2494 H2470 0.950 . S
C2494 C2489 1.363 . S
C2494 C2493 1.415 . S
C2495 H2471 0.951 . S
C2495 C2496 1.366 . S
C2495 C2497 1.388 . S
C2496 C2495 1.366 . S
C2496 C2500 1.385 . S
C2497 H2472 0.951 . S
C2497 C2495 1.388 . S
C2497 C2498 1.366 . S
C2498 C2497 1.366 . S
C2498 C2499 1.414 . S
C2498 C2501 1.499 . S
C2499 H2473 0.950 . S
C2499 C2498 1.414 . S
C2499 C2500 1.374 . S
C2500 H2474 0.950 . S
C2500 C2496 1.385 . S
C2500 C2499 1.374 . S
C2501 C2498 1.499 . S
C2501 C2502 1.373 . S
C2501 C2503 1.389 . S
C2502 H2475 0.950 . S
C2502 C2488 1.377 . S
C2502 C2501 1.373 . S
C2503 C2487 1.377 . S
C2503 C2501 1.389 . S
C2503 C2504 1.524 . S
C2504 C2503 1.524 . S
C2504 C2505 1.397 . S
C2504 C2509 1.363 . S
C2505 H2476 0.950 . S
C2505 C2504 1.397 . S
C2505 C2506 1.334 . S
C2506 H2477 0.950 . S
C2506 C2505 1.334 . S
C2506 C2507 1.287 . S
C2507 C2506 1.287 . S
C2507 C2508 1.524 . S
C2507 H2510 0.999 . S
C2508 H2478 0.950 . S
C2508 C2507 1.524 . S
C2508 C2509 1.415 . S
C2509 H2479 0.950 . S
C2509 C2504 1.363 . S
C2509 C2508 1.415 . S
H2510 C2507 0.999 . S
H2511 C2492 0.913 . S
H2512 C2530 0.951 . S
H2513 C2532 0.951 . S
H2514 C2534 0.950 . S
H2515 C2535 0.950 . S
H2516 C2537 0.950 . S
H2517 C2540 0.950 . S
H2518 C2541 0.950 . S
H2519 C2543 0.950 . S
H2520 C2544 0.950 . S
H2521 C2545 0.951 . S
H2522 C2547 0.951 . S
H2523 C2549 0.950 . S
H2524 C2550 0.950 . S
H2525 C2552 0.950 . S
H2526 C2555 0.950 . S
H2527 C2556 0.950 . S
H2528 C2558 0.950 . S
H2529 C2559 0.950 . S
C2530 H2512 0.951 . S
C2530 C2531 1.366 . S
C2530 C2532 1.388 . S
C2531 C2530 1.366 . S
C2531 C2535 1.385 . S
C2532 H2513 0.951 . S
C2532 C2530 1.388 . S
C2532 C2533 1.366 . S
C2533 C2532 1.366 . S
C2533 C2534 1.414 . S
C2533 C2536 1.499 . S
C2534 H2514 0.950 . S
C2534 C2533 1.414 . S
C2534 C2535 1.374 . S
C2535 H2515 0.950 . S
C2535 C2531 1.385 . S
C2535 C2534 1.374 . S
C2536 C2533 1.499 . S
C2536 C2537 1.373 . S
C2536 C2538 1.389 . S
C2537 H2516 0.950 . S
C2537 C2536 1.373 . S
C2537 C2553 1.377 . S
C2538 C2536 1.389 . S
C2538 C2539 1.524 . S
C2538 C2552 1.377 . S
C2539 C2538 1.524 . S
C2539 C2540 1.397 . S
C2539 C2544 1.363 . S
C2540 H2517 0.950 . S
C2540 C2539 1.397 . S
C2540 C2541 1.334 . S
C2541 H2518 0.950 . S
C2541 C2540 1.334 . S
C2541 C2542 1.287 . S
C2542 C2541 1.287 . S
C2542 C2543 1.524 . S
C2542 H2561 0.913 . S
C2543 H2519 0.950 . S
C2543 C2542 1.524 . S
C2543 C2544 1.415 . S
C2544 H2520 0.950 . S
C2544 C2539 1.363 . S
C2544 C2543 1.415 . S
C2545 H2521 0.951 . S
C2545 C2546 1.366 . S
C2545 C2547 1.388 . S
C2546 C2545 1.366 . S
C2546 C2550 1.385 . S
C2547 H2522 0.951 . S
C2547 C2545 1.388 . S
C2547 C2548 1.366 . S
C2548 C2547 1.366 . S
C2548 C2549 1.414 . S
C2548 C2551 1.499 . S
C2549 H2523 0.950 . S
C2549 C2548 1.414 . S
C2549 C2550 1.374 . S
C2550 H2524 0.950 . S
C2550 C2546 1.385 . S
C2550 C2549 1.374 . S
C2551 C2548 1.499 . S
C2551 C2552 1.373 . S
C2551 C2553 1.389 . S
C2552 H2525 0.950 . S
C2552 C2538 1.377 . S
C2552 C2551 1.373 . S
C2553 C2537 1.377 . S
C2553 C2551 1.389 . S
C2553 C2554 1.524 . S
C2554 C2553 1.524 . S
C2554 C2555 1.397 . S
C2554 C2559 1.363 . S
C2555 H2526 0.950 . S
C2555 C2554 1.397 . S
C2555 C2556 1.334 . S
C2556 H2527 0.950 . S
C2556 C2555 1.334 . S
C2556 C2557 1.287 . S
C2557 C2556 1.287 . S
C2557 C2558 1.524 . S
C2557 H2560 0.999 . S
C2558 H2528 0.950 . S
C2558 C2557 1.524 . S
C2558 C2559 1.415 . S
C2559 H2529 0.950 . S
C2559 C2554 1.363 . S
C2559 C2558 1.415 . S
H2560 C2557 0.999 . S
H2561 C2542 0.913 . S
H2562 C2580 0.951 . S
H2563 C2582 0.951 . S
H2564 C2584 0.950 . S
H2565 C2585 0.950 . S
H2566 C2587 0.950 . S
H2567 C2590 0.950 . S
H2568 C2591 0.950 . S
H2569 C2593 0.950 . S
H2570 C2594 0.950 . S
H2571 C2595 0.951 . S
H2572 C2597 0.951 . S
H2573 C2599 0.950 . S
H2574 C2600 0.950 . S
H2575 C2602 0.950 . S
H2576 C2605 0.950 . S
H2577 C2606 0.950 . S
H2578 C2608 0.950 . S
H2579 C2609 0.950 . S
C2580 H2562 0.951 . S
C2580 C2581 1.366 . S
C2580 C2582 1.388 . S
C2581 C2580 1.366 . S
C2581 C2585 1.385 . S
C2582 H2563 0.951 . S
C2582 C2580 1.388 . S
C2582 C2583 1.366 . S
C2583 C2582 1.366 . S
C2583 C2584 1.414 . S
C2583 C2586 1.499 . S
C2584 H2564 0.950 . S
C2584 C2583 1.414 . S
C2584 C2585 1.374 . S
C2585 H2565 0.950 . S
C2585 C2581 1.385 . S
C2585 C2584 1.374 . S
C2586 C2583 1.499 . S
C2586 C2587 1.373 . S
C2586 C2588 1.389 . S
C2587 H2566 0.950 . S
C2587 C2586 1.373 . S
C2587 C2603 1.377 . S
C2588 C2586 1.389 . S
C2588 C2589 1.524 . S
C2588 C2602 1.377 . S
C2589 C2588 1.524 . S
C2589 C2590 1.397 . S
C2589 C2594 1.363 . S
C2590 H2567 0.950 . S
C2590 C2589 1.397 . S
C2590 C2591 1.334 . S
C2591 H2568 0.950 . S
C2591 C2590 1.334 . S
C2591 C2592 1.287 . S
C2592 C2591 1.287 . S
C2592 C2593 1.524 . S
C2592 H2611 0.913 . S
C2593 H2569 0.950 . S
C2593 C2592 1.524 . S
C2593 C2594 1.415 . S
C2594 H2570 0.950 . S
C2594 C2589 1.363 . S
C2594 C2593 1.415 . S
C2595 H2571 0.951 . S
C2595 C2596 1.366 . S
C2595 C2597 1.388 . S
C2596 C2595 1.366 . S
C2596 C2600 1.385 . S
C2597 H2572 0.951 . S
C2597 C2595 1.388 . S
C2597 C2598 1.366 . S
C2598 C2597 1.366 . S
C2598 C2599 1.414 . S
C2598 C2601 1.499 . S
C2599 H2573 0.950 . S
C2599 C2598 1.414 . S
C2599 C2600 1.374 . S
C2600 H2574 0.950 . S
C2600 C2596 1.385 . S
C2600 C2599 1.374 . S
C2601 C2598 1.499 . S
C2601 C2602 1.373 . S
C2601 C2603 1.389 . S
C2602 H2575 0.950 . S
C2602 C2588 1.377 . S
C2602 C2601 1.373 . S
C2603 C2587 1.377 . S
C2603 C2601 1.389 . S
C2603 C2604 1.524 . S
C2604 C2603 1.524 . S
C2604 C2605 1.397 . S
C2604 C2609 1.363 . S
C2605 H2576 0.950 . S
C2605 C2604 1.397 . S
C2605 C2606 1.334 . S
C2606 H2577 0.950 . S
C2606 C2605 1.334 . S
C2606 C2607 1.287 . S
C2607 C2606 1.287 . S
C2607 C2608 1.524 . S
C2607 H2610 0.999 . S
C2608 H2578 0.950 . S
C2608 C2607 1.524 . S
C2608 C2609 1.415 . S
C2609 H2579 0.950 . S
C2609 C2604 1.363 . S
C2609 C2608 1.415 . S
H2610 C2607 0.999 . S
H2611 C2592 0.913 . S
H2612 C2630 0.951 . S
H2613 C2632 0.951 . S
H2614 C2634 0.950 . S
H2615 C2635 0.950 . S
H2616 C2637 0.950 . S
H2617 C2640 0.950 . S
H2618 C2641 0.950 . S
H2619 C2643 0.950 . S
H2620 C2644 0.950 . S
H2621 C2645 0.951 . S
H2622 C2647 0.951 . S
H2623 C2649 0.950 . S
H2624 C2650 0.950 . S
H2625 C2652 0.950 . S
H2626 C2655 0.950 . S
H2627 C2656 0.950 . S
H2628 C2658 0.950 . S
H2629 C2659 0.950 . S
C2630 H2612 0.951 . S
C2630 C2631 1.366 . S
C2630 C2632 1.388 . S
C2631 C2630 1.366 . S
C2631 C2635 1.385 . S
C2632 H2613 0.951 . S
C2632 C2630 1.388 . S
C2632 C2633 1.366 . S
C2633 C2632 1.366 . S
C2633 C2634 1.414 . S
C2633 C2636 1.499 . S
C2634 H2614 0.950 . S
C2634 C2633 1.414 . S
C2634 C2635 1.374 . S
C2635 H2615 0.950 . S
C2635 C2631 1.385 . S
C2635 C2634 1.374 . S
C2636 C2633 1.499 . S
C2636 C2637 1.373 . S
C2636 C2638 1.389 . S
C2637 H2616 0.950 . S
C2637 C2636 1.373 . S
C2637 C2653 1.377 . S
C2638 C2636 1.389 . S
C2638 C2639 1.524 . S
C2638 C2652 1.377 . S
C2639 C2638 1.524 . S
C2639 C2640 1.397 . S
C2639 C2644 1.363 . S
C2640 H2617 0.950 . S
C2640 C2639 1.397 . S
C2640 C2641 1.334 . S
C2641 H2618 0.950 . S
C2641 C2640 1.334 . S
C2641 C2642 1.287 . S
C2642 C2641 1.287 . S
C2642 C2643 1.524 . S
C2642 H2661 0.913 . S
C2643 H2619 0.950 . S
C2643 C2642 1.524 . S
C2643 C2644 1.415 . S
C2644 H2620 0.950 . S
C2644 C2639 1.363 . S
C2644 C2643 1.415 . S
C2645 H2621 0.951 . S
C2645 C2646 1.366 . S
C2645 C2647 1.388 . S
C2646 C2645 1.366 . S
C2646 C2650 1.385 . S
C2647 H2622 0.951 . S
C2647 C2645 1.388 . S
C2647 C2648 1.366 . S
C2648 C2647 1.366 . S
C2648 C2649 1.414 . S
C2648 C2651 1.499 . S
C2649 H2623 0.950 . S
C2649 C2648 1.414 . S
C2649 C2650 1.374 . S
C2650 H2624 0.950 . S
C2650 C2646 1.385 . S
C2650 C2649 1.374 . S
C2651 C2648 1.499 . S
C2651 C2652 1.373 . S
C2651 C2653 1.389 . S
C2652 H2625 0.950 . S
C2652 C2638 1.377 . S
C2652 C2651 1.373 . S
C2653 C2637 1.377 . S
C2653 C2651 1.389 . S
C2653 C2654 1.524 . S
C2654 C2653 1.524 . S
C2654 C2655 1.397 . S
C2654 C2659 1.363 . S
C2655 H2626 0.950 . S
C2655 C2654 1.397 . S
C2655 C2656 1.334 . S
C2656 H2627 0.950 . S
C2656 C2655 1.334 . S
C2656 C2657 1.287 . S
C2657 C2656 1.287 . S
C2657 C2658 1.524 . S
C2657 H2660 0.999 . S
C2658 H2628 0.950 . S
C2658 C2657 1.524 . S
C2658 C2659 1.415 . S
C2659 H2629 0.950 . S
C2659 C2654 1.363 . S
C2659 C2658 1.415 . S
H2660 C2657 0.999 . S
H2661 C2642 0.913 . S
H2662 C2680 0.951 . S
H2663 C2682 0.951 . S
H2664 C2684 0.950 . S
H2665 C2685 0.950 . S
H2666 C2687 0.950 . S
H2667 C2690 0.950 . S
H2668 C2691 0.950 . S
H2669 C2693 0.950 . S
H2670 C2694 0.950 . S
H2671 C2695 0.951 . S
H2672 C2697 0.951 . S
H2673 C2699 0.950 . S
H2674 C2700 0.950 . S
H2675 C2702 0.950 . S
H2676 C2705 0.950 . S
H2677 C2706 0.950 . S
H2678 C2708 0.950 . S
H2679 C2709 0.950 . S
C2680 H2662 0.951 . S
C2680 C2681 1.366 . S
C2680 C2682 1.388 . S
C2681 C2680 1.366 . S
C2681 C2685 1.385 . S
C2682 H2663 0.951 . S
C2682 C2680 1.388 . S
C2682 C2683 1.366 . S
C2683 C2682 1.366 . S
C2683 C2684 1.414 . S
C2683 C2686 1.499 . S
C2684 H2664 0.950 . S
C2684 C2683 1.414 . S
C2684 C2685 1.374 . S
C2685 H2665 0.950 . S
C2685 C2681 1.385 . S
C2685 C2684 1.374 . S
C2686 C2683 1.499 . S
C2686 C2687 1.373 . S
C2686 C2688 1.389 . S
C2687 H2666 0.950 . S
C2687 C2686 1.373 . S
C2687 C2703 1.377 . S
C2688 C2686 1.389 . S
C2688 C2689 1.524 . S
C2688 C2702 1.377 . S
C2689 C2688 1.524 . S
C2689 C2690 1.397 . S
C2689 C2694 1.363 . S
C2690 H2667 0.950 . S
C2690 C2689 1.397 . S
C2690 C2691 1.334 . S
C2691 H2668 0.950 . S
C2691 C2690 1.334 . S
C2691 C2692 1.287 . S
C2692 C2691 1.287 . S
C2692 C2693 1.524 . S
C2692 H2711 0.913 . S
C2693 H2669 0.950 . S
C2693 C2692 1.524 . S
C2693 C2694 1.415 . S
C2694 H2670 0.950 . S
C2694 C2689 1.363 . S
C2694 C2693 1.415 . S
C2695 H2671 0.951 . S
C2695 C2696 1.366 . S
C2695 C2697 1.388 . S
C2696 C2695 1.366 . S
C2696 C2700 1.385 . S
C2697 H2672 0.951 . S
C2697 C2695 1.388 . S
C2697 C2698 1.366 . S
C2698 C2697 1.366 . S
C2698 C2699 1.414 . S
C2698 C2701 1.499 . S
C2699 H2673 0.950 . S
C2699 C2698 1.414 . S
C2699 C2700 1.374 . S
C2700 H2674 0.950 . S
C2700 C2696 1.385 . S
C2700 C2699 1.374 . S
C2701 C2698 1.499 . S
C2701 C2702 1.373 . S
C2701 C2703 1.389 . S
C2702 H2675 0.950 . S
C2702 C2688 1.377 . S
C2702 C2701 1.373 . S
C2703 C2687 1.377 . S
C2703 C2701 1.389 . S
C2703 C2704 1.524 . S
C2704 C2703 1.524 . S
C2704 C2705 1.397 . S
C2704 C2709 1.363 . S
C2705 H2676 0.950 . S
C2705 C2704 1.397 . S
C2705 C2706 1.334 . S
C2706 H2677 0.950 . S
C2706 C2705 1.334 . S
C2706 C2707 1.287 . S
C2707 C2706 1.287 . S
C2707 C2708 1.524 . S
C2707 H2710 0.999 . S
C2708 H2678 0.950 . S
C2708 C2707 1.524 . S
C2708 C2709 1.415 . S
C2709 H2679 0.950 . S
C2709 C2704 1.363 . S
C2709 C2708 1.415 . S
H2710 C2707 0.999 . S
H2711 C2692 0.913 . S
C331 C5 1.173 . S
C346 C96 1.171 . S
C381 C109 1.173 . S
C396 C18 1.172 . S
C431 C31 1.172 . S
C446 C122 1.171 . S
C481 C44 1.172 . S
C496 C135 1.171 . S
C531 C148 1.173 . S
C546 C57 1.172 . S
C581 C70 1.172 . S
C596 C83 1.172 . S
C631 C161 1.171 . S
C646 C252 1.173 . S
C681 C174 1.173 . S
C696 C265 1.171 . S
C731 C278 1.173 . S
C746 C187 1.171 . S
C781 C200 1.172 . S
C796 C291 1.171 . S
C831 C213 1.172 . S
C846 C304 1.173 . S
C881 C239 1.173 . S
C896 C226 1.171 . S
C931 C0 1.164 . S
C946 C104 1.165 . S
C981 C117 1.165 . S
C996 C13 1.164 . S
C1031 C130 1.164 . S
C1046 C26 1.165 . S
C1081 C39 1.164 . S
C1096 C143 1.165 . S
C1131 C52 1.164 . S
C1146 C78 1.165 . S
C1181 C65 1.164 . S
C1196 C91 1.165 . S
C1231 C260 1.164 . S
C1246 C156 1.165 . S
C1281 C169 1.164 . S
C1296 C273 1.165 . S
C1331 C286 1.164 . S
C1346 C182 1.165 . S
C1381 C299 1.165 . S
C1396 C195 1.164 . S
C1431 C234 1.164 . S
C1446 C208 1.165 . S
C1481 C221 1.165 . S
C1496 C247 1.164 . S
C1531 C8 1.493 . S
C1546 C203 1.492 . S
C1581 C216 1.492 . S
C1596 C21 1.492 . S
C1631 C229 1.492 . S
C1646 C34 1.492 . S
C1681 C47 1.492 . S
C1696 C164 1.492 . S
C1731 C60 1.492 . S
C1746 C177 1.492 . S
C1781 C190 1.492 . S
C1796 C73 1.492 . S
C1831 C281 1.492 . S
C1846 C86 1.492 . S
C1881 C294 1.492 . S
C1896 C99 1.492 . S
C1931 C307 1.492 . S
C1946 C112 1.492 . S
C1981 C242 1.492 . S
C1996 C125 1.493 . S
C2031 C138 1.492 . S
C2046 C255 1.492 . S
C2081 C151 1.492 . S
C2096 C268 1.492 . S
C2131 C10 1.523 . S
C2146 C140 1.522 . S
C2181 C153 1.523 . S
C2196 C23 1.522 . S
C2231 C88 1.522 . S
C2246 C36 1.523 . S
C2281 C49 1.522 . S
C2296 C101 1.523 . S
C2331 C62 1.523 . S
C2346 C114 1.522 . S
C2381 C75 1.523 . S
C2396 C127 1.523 . S
C2431 C166 1.523 . S
C2446 C296 1.523 . S
C2481 C179 1.523 . S
C2496 C309 1.522 . S
C2531 C192 1.523 . S
C2546 C244 1.523 . S
C2581 C257 1.522 . S
C2596 C205 1.523 . S
C2631 C218 1.522 . S
C2646 C270 1.523 . S
C2681 C231 1.522 . S
C2696 C283 1.522 . S
