# Generated by pormake.
# Topology ull, (4)-cn, num edge types: 1
# Building blocks:
#     Node 0, Type 0, BuildingBlock: ESEHIV_clean_sbu_0, # of connection points: 4
#     Node 1, Type 0, BuildingBlock: ESEHIV_clean_sbu_0, # of connection points: 4
#     Node 2, Type 0, BuildingBlock: ESEHIV_clean_sbu_0, # of connection points: 4
#     Node 3, Type 0, BuildingBlock: ESEHIV_clean_sbu_0, # of connection points: 4
#     Node 4, Type 0, BuildingBlock: ESEHIV_clean_sbu_0, # of connection points: 4
#     Node 5, Type 0, BuildingBlock: ESEHIV_clean_sbu_0, # of connection points: 4
#     Node 6, Type 0, BuildingBlock: ESEHIV_clean_sbu_0, # of connection points: 4
#     Node 7, Type 0, BuildingBlock: ESEHIV_clean_sbu_0, # of connection points: 4
#     Node 8, Type 0, BuildingBlock: ESEHIV_clean_sbu_0, # of connection points: 4
#     Node 9, Type 0, BuildingBlock: ESEHIV_clean_sbu_0, # of connection points: 4
#     Node 10, Type 0, BuildingBlock: ESEHIV_clean_sbu_0, # of connection points: 4
#     Node 11, Type 0, BuildingBlock: ESEHIV_clean_sbu_0, # of connection points: 4
#     Node 12, Type 0, BuildingBlock: ESEHIV_clean_sbu_0, # of connection points: 4
#     Node 13, Type 0, BuildingBlock: ESEHIV_clean_sbu_0, # of connection points: 4
#     Node 14, Type 0, BuildingBlock: ESEHIV_clean_sbu_0, # of connection points: 4
#     Node 15, Type 0, BuildingBlock: ESEHIV_clean_sbu_0, # of connection points: 4
#     Node 16, Type 0, BuildingBlock: ESEHIV_clean_sbu_0, # of connection points: 4
#     Node 17, Type 0, BuildingBlock: ESEHIV_clean_sbu_0, # of connection points: 4
#     Node 18, Type 0, BuildingBlock: ESEHIV_clean_sbu_0, # of connection points: 4
#     Node 19, Type 0, BuildingBlock: ESEHIV_clean_sbu_0, # of connection points: 4
#     Node 20, Type 0, BuildingBlock: ESEHIV_clean_sbu_0, # of connection points: 4
#     Node 21, Type 0, BuildingBlock: ESEHIV_clean_sbu_0, # of connection points: 4
#     Node 22, Type 0, BuildingBlock: ESEHIV_clean_sbu_0, # of connection points: 4
#     Node 23, Type 0, BuildingBlock: ESEHIV_clean_sbu_0, # of connection points: 4
#     Node 24, Type 0, BuildingBlock: ESEHIV_clean_sbu_0, # of connection points: 4
#     Node 25, Type 0, BuildingBlock: ESEHIV_clean_sbu_0, # of connection points: 4
#     Node 26, Type 0, BuildingBlock: ESEHIV_clean_sbu_0, # of connection points: 4
#     Node 27, Type 0, BuildingBlock: ESEHIV_clean_sbu_0, # of connection points: 4
#     Node 28, Type 0, BuildingBlock: ESEHIV_clean_sbu_0, # of connection points: 4
#     Node 29, Type 0, BuildingBlock: ESEHIV_clean_sbu_0, # of connection points: 4
#     Node 30, Type 0, BuildingBlock: ESEHIV_clean_sbu_0, # of connection points: 4
#     Node 31, Type 0, BuildingBlock: ESEHIV_clean_sbu_0, # of connection points: 4
#     Node 32, Type 0, BuildingBlock: ESEHIV_clean_sbu_0, # of connection points: 4
#     Node 33, Type 0, BuildingBlock: ESEHIV_clean_sbu_0, # of connection points: 4
#     Node 34, Type 0, BuildingBlock: ESEHIV_clean_sbu_0, # of connection points: 4
#     Node 35, Type 0, BuildingBlock: ESEHIV_clean_sbu_0, # of connection points: 4
#     Node 36, Type 0, BuildingBlock: ESEHIV_clean_sbu_0, # of connection points: 4
#     Node 37, Type 0, BuildingBlock: ESEHIV_clean_sbu_0, # of connection points: 4
#     Node 38, Type 0, BuildingBlock: ESEHIV_clean_sbu_0, # of connection points: 4
#     Node 39, Type 0, BuildingBlock: ESEHIV_clean_sbu_0, # of connection points: 4
#     Node 40, Type 0, BuildingBlock: ESEHIV_clean_sbu_0, # of connection points: 4
#     Node 41, Type 0, BuildingBlock: ESEHIV_clean_sbu_0, # of connection points: 4
#     Node 42, Type 0, BuildingBlock: ESEHIV_clean_sbu_0, # of connection points: 4
#     Node 43, Type 0, BuildingBlock: ESEHIV_clean_sbu_0, # of connection points: 4
#     Node 44, Type 0, BuildingBlock: ESEHIV_clean_sbu_0, # of connection points: 4
#     Node 45, Type 0, BuildingBlock: ESEHIV_clean_sbu_0, # of connection points: 4
#     Node 46, Type 0, BuildingBlock: ESEHIV_clean_sbu_0, # of connection points: 4
#     Node 47, Type 0, BuildingBlock: ESEHIV_clean_sbu_0, # of connection points: 4
#     Edge 48, Type (0, 0), BuildingBlock: CIFDUS_clean_linker_0, # of connection points: 2
#     Edge 49, Type (0, 0), BuildingBlock: CIFDUS_clean_linker_0, # of connection points: 2
#     Edge 50, Type (0, 0), BuildingBlock: CIFDUS_clean_linker_0, # of connection points: 2
#     Edge 51, Type (0, 0), BuildingBlock: CIFDUS_clean_linker_0, # of connection points: 2
#     Edge 52, Type (0, 0), BuildingBlock: CIFDUS_clean_linker_0, # of connection points: 2
#     Edge 53, Type (0, 0), BuildingBlock: CIFDUS_clean_linker_0, # of connection points: 2
#     Edge 54, Type (0, 0), BuildingBlock: CIFDUS_clean_linker_0, # of connection points: 2
#     Edge 55, Type (0, 0), BuildingBlock: CIFDUS_clean_linker_0, # of connection points: 2
#     Edge 56, Type (0, 0), BuildingBlock: CIFDUS_clean_linker_0, # of connection points: 2
#     Edge 57, Type (0, 0), BuildingBlock: CIFDUS_clean_linker_0, # of connection points: 2
#     Edge 58, Type (0, 0), BuildingBlock: CIFDUS_clean_linker_0, # of connection points: 2
#     Edge 59, Type (0, 0), BuildingBlock: CIFDUS_clean_linker_0, # of connection points: 2
#     Edge 60, Type (0, 0), BuildingBlock: CIFDUS_clean_linker_0, # of connection points: 2
#     Edge 61, Type (0, 0), BuildingBlock: CIFDUS_clean_linker_0, # of connection points: 2
#     Edge 62, Type (0, 0), BuildingBlock: CIFDUS_clean_linker_0, # of connection points: 2
#     Edge 63, Type (0, 0), BuildingBlock: CIFDUS_clean_linker_0, # of connection points: 2
#     Edge 64, Type (0, 0), BuildingBlock: CIFDUS_clean_linker_0, # of connection points: 2
#     Edge 65, Type (0, 0), BuildingBlock: CIFDUS_clean_linker_0, # of connection points: 2
#     Edge 66, Type (0, 0), BuildingBlock: CIFDUS_clean_linker_0, # of connection points: 2
#     Edge 67, Type (0, 0), BuildingBlock: CIFDUS_clean_linker_0, # of connection points: 2
#     Edge 68, Type (0, 0), BuildingBlock: CIFDUS_clean_linker_0, # of connection points: 2
#     Edge 69, Type (0, 0), BuildingBlock: CIFDUS_clean_linker_0, # of connection points: 2
#     Edge 70, Type (0, 0), BuildingBlock: CIFDUS_clean_linker_0, # of connection points: 2
#     Edge 71, Type (0, 0), BuildingBlock: CIFDUS_clean_linker_0, # of connection points: 2
#     Edge 72, Type (0, 0), BuildingBlock: CIFDUS_clean_linker_0, # of connection points: 2
#     Edge 73, Type (0, 0), BuildingBlock: CIFDUS_clean_linker_0, # of connection points: 2
#     Edge 74, Type (0, 0), BuildingBlock: CIFDUS_clean_linker_0, # of connection points: 2
#     Edge 75, Type (0, 0), BuildingBlock: CIFDUS_clean_linker_0, # of connection points: 2
#     Edge 76, Type (0, 0), BuildingBlock: CIFDUS_clean_linker_0, # of connection points: 2
#     Edge 77, Type (0, 0), BuildingBlock: CIFDUS_clean_linker_0, # of connection points: 2
#     Edge 78, Type (0, 0), BuildingBlock: CIFDUS_clean_linker_0, # of connection points: 2
#     Edge 79, Type (0, 0), BuildingBlock: CIFDUS_clean_linker_0, # of connection points: 2
#     Edge 80, Type (0, 0), BuildingBlock: CIFDUS_clean_linker_0, # of connection points: 2
#     Edge 81, Type (0, 0), BuildingBlock: CIFDUS_clean_linker_0, # of connection points: 2
#     Edge 82, Type (0, 0), BuildingBlock: CIFDUS_clean_linker_0, # of connection points: 2
#     Edge 83, Type (0, 0), BuildingBlock: CIFDUS_clean_linker_0, # of connection points: 2
#     Edge 84, Type (0, 0), BuildingBlock: CIFDUS_clean_linker_0, # of connection points: 2
#     Edge 85, Type (0, 0), BuildingBlock: CIFDUS_clean_linker_0, # of connection points: 2
#     Edge 86, Type (0, 0), BuildingBlock: CIFDUS_clean_linker_0, # of connection points: 2
#     Edge 87, Type (0, 0), BuildingBlock: CIFDUS_clean_linker_0, # of connection points: 2
#     Edge 88, Type (0, 0), BuildingBlock: CIFDUS_clean_linker_0, # of connection points: 2
#     Edge 89, Type (0, 0), BuildingBlock: CIFDUS_clean_linker_0, # of connection points: 2
#     Edge 90, Type (0, 0), BuildingBlock: CIFDUS_clean_linker_0, # of connection points: 2
#     Edge 91, Type (0, 0), BuildingBlock: CIFDUS_clean_linker_0, # of connection points: 2
#     Edge 92, Type (0, 0), BuildingBlock: CIFDUS_clean_linker_0, # of connection points: 2
#     Edge 93, Type (0, 0), BuildingBlock: CIFDUS_clean_linker_0, # of connection points: 2
#     Edge 94, Type (0, 0), BuildingBlock: CIFDUS_clean_linker_0, # of connection points: 2
#     Edge 95, Type (0, 0), BuildingBlock: CIFDUS_clean_linker_0, # of connection points: 2
#     Edge 96, Type (0, 0), BuildingBlock: CIFDUS_clean_linker_0, # of connection points: 2
#     Edge 97, Type (0, 0), BuildingBlock: CIFDUS_clean_linker_0, # of connection points: 2
#     Edge 98, Type (0, 0), BuildingBlock: CIFDUS_clean_linker_0, # of connection points: 2
#     Edge 99, Type (0, 0), BuildingBlock: CIFDUS_clean_linker_0, # of connection points: 2
#     Edge 100, Type (0, 0), BuildingBlock: CIFDUS_clean_linker_0, # of connection points: 2
#     Edge 101, Type (0, 0), BuildingBlock: CIFDUS_clean_linker_0, # of connection points: 2
#     Edge 102, Type (0, 0), BuildingBlock: CIFDUS_clean_linker_0, # of connection points: 2
#     Edge 103, Type (0, 0), BuildingBlock: CIFDUS_clean_linker_0, # of connection points: 2
#     Edge 104, Type (0, 0), BuildingBlock: CIFDUS_clean_linker_0, # of connection points: 2
#     Edge 105, Type (0, 0), BuildingBlock: CIFDUS_clean_linker_0, # of connection points: 2
#     Edge 106, Type (0, 0), BuildingBlock: CIFDUS_clean_linker_0, # of connection points: 2
#     Edge 107, Type (0, 0), BuildingBlock: CIFDUS_clean_linker_0, # of connection points: 2
#     Edge 108, Type (0, 0), BuildingBlock: CIFDUS_clean_linker_0, # of connection points: 2
#     Edge 109, Type (0, 0), BuildingBlock: CIFDUS_clean_linker_0, # of connection points: 2
#     Edge 110, Type (0, 0), BuildingBlock: CIFDUS_clean_linker_0, # of connection points: 2
#     Edge 111, Type (0, 0), BuildingBlock: CIFDUS_clean_linker_0, # of connection points: 2
#     Edge 112, Type (0, 0), BuildingBlock: CIFDUS_clean_linker_0, # of connection points: 2
#     Edge 113, Type (0, 0), BuildingBlock: CIFDUS_clean_linker_0, # of connection points: 2
#     Edge 114, Type (0, 0), BuildingBlock: CIFDUS_clean_linker_0, # of connection points: 2
#     Edge 115, Type (0, 0), BuildingBlock: CIFDUS_clean_linker_0, # of connection points: 2
#     Edge 116, Type (0, 0), BuildingBlock: CIFDUS_clean_linker_0, # of connection points: 2
#     Edge 117, Type (0, 0), BuildingBlock: CIFDUS_clean_linker_0, # of connection points: 2
#     Edge 118, Type (0, 0), BuildingBlock: CIFDUS_clean_linker_0, # of connection points: 2
#     Edge 119, Type (0, 0), BuildingBlock: CIFDUS_clean_linker_0, # of connection points: 2
#     Edge 120, Type (0, 0), BuildingBlock: CIFDUS_clean_linker_0, # of connection points: 2
#     Edge 121, Type (0, 0), BuildingBlock: CIFDUS_clean_linker_0, # of connection points: 2
#     Edge 122, Type (0, 0), BuildingBlock: CIFDUS_clean_linker_0, # of connection points: 2
#     Edge 123, Type (0, 0), BuildingBlock: CIFDUS_clean_linker_0, # of connection points: 2
#     Edge 124, Type (0, 0), BuildingBlock: CIFDUS_clean_linker_0, # of connection points: 2
#     Edge 125, Type (0, 0), BuildingBlock: CIFDUS_clean_linker_0, # of connection points: 2
#     Edge 126, Type (0, 0), BuildingBlock: CIFDUS_clean_linker_0, # of connection points: 2
#     Edge 127, Type (0, 0), BuildingBlock: CIFDUS_clean_linker_0, # of connection points: 2
#     Edge 128, Type (0, 0), BuildingBlock: CIFDUS_clean_linker_0, # of connection points: 2
#     Edge 129, Type (0, 0), BuildingBlock: CIFDUS_clean_linker_0, # of connection points: 2
#     Edge 130, Type (0, 0), BuildingBlock: CIFDUS_clean_linker_0, # of connection points: 2
#     Edge 131, Type (0, 0), BuildingBlock: CIFDUS_clean_linker_0, # of connection points: 2
#     Edge 132, Type (0, 0), BuildingBlock: CIFDUS_clean_linker_0, # of connection points: 2
#     Edge 133, Type (0, 0), BuildingBlock: CIFDUS_clean_linker_0, # of connection points: 2
#     Edge 134, Type (0, 0), BuildingBlock: CIFDUS_clean_linker_0, # of connection points: 2
#     Edge 135, Type (0, 0), BuildingBlock: CIFDUS_clean_linker_0, # of connection points: 2
#     Edge 136, Type (0, 0), BuildingBlock: CIFDUS_clean_linker_0, # of connection points: 2
#     Edge 137, Type (0, 0), BuildingBlock: CIFDUS_clean_linker_0, # of connection points: 2
#     Edge 138, Type (0, 0), BuildingBlock: CIFDUS_clean_linker_0, # of connection points: 2
#     Edge 139, Type (0, 0), BuildingBlock: CIFDUS_clean_linker_0, # of connection points: 2
#     Edge 140, Type (0, 0), BuildingBlock: CIFDUS_clean_linker_0, # of connection points: 2
#     Edge 141, Type (0, 0), BuildingBlock: CIFDUS_clean_linker_0, # of connection points: 2
#     Edge 142, Type (0, 0), BuildingBlock: CIFDUS_clean_linker_0, # of connection points: 2
#     Edge 143, Type (0, 0), BuildingBlock: CIFDUS_clean_linker_0, # of connection points: 2
# Relax obj value: 0.099
# Max RMSD: 0.288
# Mean RMSD: 0.270
data_MOF--net-ull--node1-ESEHIV_clean_sbu_0--edge1-CIFDUS_clean_linker_0
_symmetry_space_group_name_H-M    P1
_symmetry_Int_Tables_number       1
_symmetry_cell_setting            triclinic
loop_
_symmetry_equiv_pos_as_xyz
'x, y, z'
_cell_length_a     57.618498
_cell_length_b     59.817209
_cell_length_c     60.006066
_cell_angle_alpha  89.955206
_cell_angle_beta   90.018445
_cell_angle_gamma 89.92843
loop_
_atom_site_label
_atom_site_type_symbol
_atom_site_fract_x
_atom_site_fract_y
_atom_site_fract_z
_atom_type_partial_charge
Cu0 Cu 0.06907 0.36289 0.20057 0.0
N1 N 0.09296 0.3617 0.17944 0.0
N2 N 0.11245 0.36311 0.14731 0.0
C3 C 0.09211 0.36731 0.15769 0.0
C4 C 0.1267 0.35489 0.16313 0.0
C5 C 0.11471 0.35421 0.18293 0.0
O6 O 0.03888 0.36511 0.18557 0.0
C7 C 0.09293 0.38542 0.23475 0.0
O8 O 0.10411 0.36628 0.23524 0.0
H9 H 0.07676 0.3738 0.14952 0.0
H10 H 0.12134 0.34831 0.19872 0.0
N11 N 0.06839 0.33599 0.21639 0.0
N12 N 0.05648 0.3091 0.23954 0.0
C13 C 0.05324 0.33034 0.23252 0.0
C14 C 0.08144 0.31764 0.21294 0.0
C15 C 0.07426 0.3011 0.22729 0.0
C16 C 0.03395 0.35085 0.17043 0.0
O17 O 0.04969 0.33601 0.16474 0.0
H18 H 0.03998 0.34153 0.23878 0.0
H19 H 0.09474 0.31604 0.20036 0.0
O20 O 0.076 0.38763 0.22115 0.0
H21 H 0.14456 0.34985 0.16058 0.0
H22 H 0.081 0.28422 0.22805 0.0
Cu23 Cu 0.7015 0.03171 0.18492 0.0
N24 N 0.69156 1.00377 0.17413 0.0
N25 N 0.69009 0.97019 0.15761 0.0
C26 C 0.70033 0.99057 0.15784 0.0
C27 C 0.67421 0.97079 0.17411 0.0
C28 C 0.67521 0.99135 0.18423 0.0
O29 O 0.71189 0.05186 0.16137 0.0
C30 C 0.74251 1.01255 0.20456 0.0
O31 O 0.74404 1.00103 0.186 0.0
H32 H 0.71475 0.99531 0.14729 0.0
H33 H 0.66535 0.99657 0.19865 0.0
N34 N 0.67666 0.04607 0.19948 0.0
N35 N 0.65639 0.06893 0.22194 0.0
C36 C 0.67771 0.06127 0.21609 0.0
C37 C 0.65396 0.0442 0.19454 0.0
C38 C 0.64146 0.05812 0.20838 0.0
C39 C 0.70083 0.05455 0.14315 0.0
O40 O 0.68284 0.04177 0.13892 0.0
H41 H 0.69382 0.06668 0.22361 0.0
H42 H 0.64701 0.03375 0.18144 0.0
O43 O 0.72611 0.02673 0.20683 0.0
H44 H 0.66304 0.95707 0.17892 0.0
H45 H 0.62286 0.06063 0.20792 0.0
Cu46 Cu 0.99973 0.6616 0.199 0.0
N47 N 0.97967 0.67965 0.18245 0.0
N48 N 0.95839 0.69109 0.15346 0.0
C49 C 0.97245 0.67499 0.16166 0.0
C50 C 0.95674 0.70653 0.16979 0.0
C51 C 0.96986 0.69938 0.18771 0.0
O52 O 1.026 0.65433 0.17975 0.0
C53 C 0.96507 0.63936 0.22224 0.0
O54 O 0.95921 0.66024 0.22608 0.0
H55 H 0.97768 0.66015 0.15266 0.0
H56 H 0.97193 0.7079 0.20346 0.0
N57 N 1.01088 0.67609 0.22436 0.0
N58 N 1.02352 0.70131 0.24898 0.0
C59 C 1.01573 0.69783 0.22799 0.0
C60 C 1.01594 0.66553 0.24353 0.0
C61 C 1.02369 0.68096 0.25873 0.0
C62 C 0.03721 0.67066 0.1713 0.0
O63 O 0.03072 0.69112 0.17627 0.0
H64 H 1.01342 0.7108 0.21561 0.0
H65 H 1.01417 0.64772 0.2462 0.0
O66 O 0.98255 0.63553 0.20973 0.0
H67 H 0.94643 0.72164 0.16903 0.0
H68 H 0.02942 0.67736 0.27553 0.0
Cu69 Cu 0.35125 1.02022 0.19183 0.0
N70 N 0.35611 0.04774 0.17715 0.0
N71 N 0.35621 0.07457 0.15101 0.0
C72 C 0.35426 0.05239 0.15515 0.0
C73 C 0.35959 0.08416 0.17106 0.0
C74 C 0.35958 0.06766 0.18705 0.0
O75 O 0.35256 0.99578 0.17043 0.0
C76 C 0.31842 0.03488 0.22346 0.0
O77 O 0.33616 0.04688 0.23017 0.0
H78 H 0.35075 0.03992 0.14253 0.0
H79 H 0.36152 0.07021 0.20475 0.0
N80 N 0.37477 1.01412 0.21281 0.0
N81 N 0.39753 0.9944 0.23615 0.0
C82 C 0.37928 0.99392 0.22187 0.0
C83 C 0.39077 0.02793 0.22155 0.0
C84 C 0.40474 1.01589 0.23593 0.0
C85 C 0.33784 0.99107 0.15532 0.0
O86 O 0.31914 1.00347 0.1531 0.0
H87 H 0.36946 0.9791 0.21769 0.0
H88 H 0.39229 0.04552 0.21774 0.0
O89 O 0.3212 1.02145 0.20716 0.0
H90 H 0.36189 0.10188 0.17395 0.0
H91 H 0.41892 0.02262 0.24564 0.0
Cu92 Cu 0.05309 0.6476 0.84712 0.0
N93 N 0.07335 0.66573 0.86342 0.0
N94 N 0.09794 0.67456 0.89085 0.0
C95 C 0.08886 0.65799 0.87834 0.0
C96 C 0.08782 0.69351 0.88344 0.0
C97 C 0.0726 0.688 0.86661 0.0
O98 O 1.02727 0.64102 0.86737 0.0
C99 C 0.08835 0.62654 0.82387 0.0
O100 O 0.09471 0.64757 0.82224 0.0
H101 H 0.09213 0.64036 0.881 0.0
H102 H 0.06074 0.69935 0.85844 0.0
N103 N 0.04056 0.66208 0.82233 0.0
N104 N 0.0306 0.68732 0.79661 0.0
C105 C 0.04462 0.68264 0.81407 0.0
C106 C 1.02374 0.65337 0.80948 0.0
C107 C 1.01754 0.66886 0.79362 0.0
C108 C 1.01484 0.65791 0.87271 0.0
O109 O 1.01965 0.67731 0.86356 0.0
H110 H 0.05739 0.69401 0.82075 0.0
H111 H 1.01605 0.63707 0.81196 0.0
O112 O 0.07024 0.62193 0.83527 0.0
H113 H 0.09056 0.71005 0.89024 0.0
H114 H 1.00372 0.66706 0.78154 0.0
Cu115 Cu 0.34136 0.03409 0.84988 0.0
N116 N 0.34523 1.00586 0.86301 0.0
N117 N 0.34667 0.97758 0.88742 0.0
C118 C 0.34579 1.00005 0.88476 0.0
C119 C 0.34687 0.96906 0.86662 0.0
C120 C 0.34606 0.98649 0.85166 0.0
O121 O 0.33835 0.05748 0.87239 0.0
C122 C 0.2983 1.01915 0.83053 0.0
O123 O 0.29629 1.00684 0.84856 0.0
H124 H 0.34485 1.01193 0.89831 0.0
H125 H 0.34554 0.98518 0.83369 0.0
N126 N 0.36782 0.04125 0.83316 0.0
N127 N 0.39226 0.06063 0.81134 0.0
C128 C 0.37161 0.06056 0.82215 0.0
C129 C 0.38671 0.02861 0.82931 0.0
C130 C 0.40178 0.04047 0.81588 0.0
C131 C 0.3236 0.05856 0.88816 0.0
O132 O 0.30758 0.04305 0.88988 0.0
H133 H 0.35939 0.07431 0.82225 0.0
H134 H 0.38927 1.01186 0.83565 0.0
O135 O 0.31532 0.0327 0.82887 0.0
H136 H 0.34754 0.95145 0.86252 0.0
H137 H 0.41823 0.03444 0.8096 0.0
Cu138 Cu 0.98318 0.3866 0.84203 0.0
N139 N 0.96211 0.36934 0.8582 0.0
N140 N 0.94192 0.3568 0.88748 0.0
C141 C 0.95732 0.37206 0.87997 0.0
C142 C 0.93689 0.34393 0.86963 0.0
C143 C 0.94937 0.35172 0.85159 0.0
O144 O 1.00994 0.39185 0.86127 0.0
C145 C 0.95109 0.41042 0.81753 0.0
O146 O 0.94493 0.38973 0.81319 0.0
H147 H 0.96543 0.38477 0.89016 0.0
H148 H 0.94921 0.34499 0.83486 0.0
N149 N 0.99385 0.37171 0.81674 0.0
N150 N 1.00777 0.34597 0.79329 0.0
C151 C 0.99803 0.3498 0.81345 0.0
C152 C 1.00101 0.38204 0.79809 0.0
C153 C 1.00958 0.36629 0.78362 0.0
C154 C 1.0203 0.37447 0.86862 0.0
O155 O 1.01224 0.35472 0.86308 0.0
H156 H 0.99435 0.33705 0.82573 0.0
H157 H 1.00069 0.39994 0.79552 0.0
O158 O 0.96774 0.41364 0.83118 0.0
H159 H 0.92488 0.33004 0.86951 0.0
H160 H 1.01745 0.36974 0.76762 0.0
Cu161 Cu 0.71242 1.00819 0.84279 0.0
N162 N 0.70893 0.03676 0.85545 0.0
N163 N 0.70837 0.06589 0.87892 0.0
C164 C 0.70895 0.04333 0.87701 0.0
C165 C 0.70787 0.07373 0.85786 0.0
C166 C 0.70816 0.0558 0.84349 0.0
O167 O 0.71918 0.98527 0.86513 0.0
C168 C 0.75533 0.02208 0.82298 0.0
O169 O 0.75862 0.03264 0.8419 0.0
H170 H 0.71011 0.03192 0.89097 0.0
H171 H 0.70833 0.05654 0.82548 0.0
N172 N 0.68529 0.99982 0.82759 0.0
N173 N 0.66053 0.97967 0.80685 0.0
C174 C 0.6817 0.98043 0.81666 0.0
C175 C 0.66575 1.01179 0.82464 0.0
C176 C 0.65048 0.99945 0.81187 0.0
C177 C 0.70504 0.98093 0.8809 0.0
O178 O 0.68601 0.99292 0.88276 0.0
H179 H 0.69461 0.96731 0.81566 0.0
H180 H 0.66284 0.02837 0.83127 0.0
O181 O 0.73723 1.01004 0.8206 0.0
H182 H 0.70722 0.0912 0.85318 0.0
H183 H 0.6332 1.00457 0.80695 0.0
Cu184 Cu 0.18858 0.07688 0.34258 0.0
N185 N 0.18837 0.04729 0.3523 0.0
N186 N 0.17883 1.01325 0.36444 0.0
C187 C 0.17089 0.03264 0.35565 0.0
C188 C 0.20199 1.01581 0.36645 0.0
C189 C 0.20778 0.03674 0.35897 0.0
O190 O 0.15714 0.08945 0.34085 0.0
C191 C 0.20963 0.0619 0.30195 0.0
O192 O 0.197 0.04386 0.30479 0.0
H193 H 0.15281 0.03631 0.35235 0.0
H194 H 0.22496 0.04401 0.35865 0.0
N195 N 0.20503 0.09243 0.36429 0.0
N196 N 0.23258 0.11241 0.38122 0.0
C197 C 0.22483 0.10401 0.36168 0.0
C198 C 0.20003 0.09341 0.38615 0.0
C199 C 0.21696 0.10577 0.39664 0.0
C200 C 0.15305 0.10944 0.34726 0.0
O201 O 0.17049 0.12234 0.35294 0.0
H202 H 0.23338 0.10608 0.34576 0.0
H203 H 0.18529 0.08537 0.39391 0.0
O204 O 0.20687 0.07842 0.31514 0.0
H205 H 0.21391 1.00338 0.3729 0.0
H206 H 0.21804 0.10893 0.41436 0.0
Cu207 Cu 0.99378 0.19483 0.38692 0.0
N208 N 0.97362 0.17053 0.38887 0.0
N209 N 0.95345 0.13984 0.3802 0.0
C210 C 0.96717 0.15646 0.37253 0.0
C211 C 0.951 0.14386 0.40223 0.0
C212 C 0.96347 0.16277 0.40749 0.0
O213 O 1.0257 0.18355 0.38855 0.0
C214 C 0.96422 0.2238 0.40897 0.0
O215 O 0.95086 0.21683 0.39266 0.0
H216 H 0.97296 0.15811 0.35548 0.0
H217 H 0.96529 0.17022 0.42382 0.0
N218 N 0.9907 0.20893 0.35935 0.0
N219 N 1.00017 0.22901 0.32936 0.0
C220 C 1.00753 0.22044 0.34893 0.0
C221 C 0.97204 0.21012 0.34589 0.0
C222 C 0.97781 0.22264 0.32738 0.0
C223 C 0.03202 0.17012 0.37314 0.0
O224 O 1.01703 0.16488 0.35753 0.0
H225 H 1.02478 0.22267 0.35572 0.0
H226 H 0.95544 0.2024 0.34927 0.0
O227 O 0.98491 0.2162 0.41015 0.0
H228 H 0.94099 0.1339 0.41379 0.0
H229 H 0.96659 0.22643 0.31341 0.0
Cu230 Cu 0.87768 0.96537 0.31871 0.0
N231 N 0.88879 0.99468 0.31862 0.0
N232 N 0.90316 0.0281 0.32815 0.0
C233 C 0.89885 1.00686 0.33486 0.0
C234 C 0.89565 0.02902 0.30683 0.0
C235 C 0.88702 1.00849 0.30104 0.0
O236 O 0.90402 0.94462 0.3179 0.0
C237 C 0.83897 0.9766 0.29423 0.0
O238 O 0.83613 0.9886 0.31237 0.0
H239 H 0.90291 1.00023 0.35116 0.0
H240 H 0.87952 1.00403 0.28514 0.0
N241 N 0.85973 0.95941 0.34395 0.0
N242 N 0.8316 0.94412 0.36453 0.0
C243 C 0.84259 0.9442 0.34467 0.0
C244 C 0.85966 0.96935 0.36408 0.0
C245 C 0.84237 0.95986 0.37686 0.0
C246 C 0.91536 0.94095 0.33584 0.0
O247 O 0.90881 0.95106 0.35421 0.0
H248 H 0.83812 0.9336 0.33071 0.0
H249 H 0.871 0.98282 0.36902 0.0
O250 O 0.85663 0.9637 0.29307 0.0
H251 H 0.8957 0.0436 0.29618 0.0
H252 H 0.83756 0.96474 0.3936 0.0
Cu253 Cu 0.06909 0.84568 0.37577 0.0
N254 N 0.09303 0.86666 0.37621 0.0
N255 N 0.1135 0.89833 0.37475 0.0
C256 C 0.0927 0.8886 0.37091 0.0
C257 C 0.12734 0.88186 0.38251 0.0
C258 C 0.11471 0.86245 0.38338 0.0
O259 O 0.03906 0.86115 0.37679 0.0
C260 C 0.08987 0.80967 0.39874 0.0
O261 O 0.09989 0.80705 0.37925 0.0
H262 H 0.07746 0.89734 0.36493 0.0
H263 H 0.12089 0.84638 0.38912 0.0
N264 N 0.07059 0.8295 0.34923 0.0
N265 N 0.06345 0.80337 0.32358 0.0
C266 C 0.0579 0.81142 0.34393 0.0
C267 C 0.08462 0.83314 0.3317 0.0
C268 C 0.08024 0.81705 0.31581 0.0
C269 C 0.03091 0.86971 0.3589 0.0
O270 O 0.04303 0.86802 0.34044 0.0
H271 H 0.04487 0.80438 0.35485 0.0
H272 H 0.09729 0.84643 0.33067 0.0
O273 O 0.07478 0.82521 0.40096 0.0
H274 H 0.1454 0.8837 0.38713 0.0
H275 H 0.08917 0.81525 0.30005 0.0
Cu276 Cu 0.17804 0.95732 0.70688 0.0
N277 N 0.17192 0.98441 0.69254 0.0
N278 N 0.1619 1.01994 0.68632 0.0
C279 C 0.16585 1.00404 0.70188 0.0
C280 C 0.16568 1.00995 0.66652 0.0
C281 C 0.17188 0.98808 0.6704 0.0
O282 O 0.14787 0.94329 0.71242 0.0
C283 C 0.21247 0.97726 0.73377 0.0
O284 O 0.21778 0.98695 0.71479 0.0
H285 H 0.16402 1.00648 0.71966 0.0
H286 H 0.17601 0.97575 0.65788 0.0
N287 N 0.19492 0.93944 0.68711 0.0
N288 N 0.22307 0.91986 0.67043 0.0
C289 C 0.21704 0.93223 0.68843 0.0
C290 C 0.18674 0.93147 0.66769 0.0
C291 C 0.20397 0.91944 0.65739 0.0
C292 C 0.14371 0.92266 0.70875 0.0
O293 O 0.16091 0.90914 0.70379 0.0
H294 H 0.2284 0.93599 0.70229 0.0
H295 H 0.16939 0.93436 0.66142 0.0
O296 O 0.19578 0.96324 0.73414 0.0
H297 H 0.16434 1.01794 0.65038 0.0
H298 H 0.20263 0.91155 0.64123 0.0
Cu299 Cu 0.07783 0.19995 0.67933 0.0
N300 N 0.10076 0.17833 0.68369 0.0
N301 N 0.11929 0.14556 0.68494 0.0
C302 C 0.09979 0.15643 0.67864 0.0
C303 C 0.13309 0.16127 0.6941 0.0
C304 C 0.12166 0.18147 0.69319 0.0
O305 O 0.04765 0.18578 0.67567 0.0
C306 C 0.10306 0.23259 0.65615 0.0
O307 O 0.11284 0.23474 0.67581 0.0
H308 H 0.0849 0.14855 0.67096 0.0
H309 H 0.12805 0.19733 0.69925 0.0
N310 N 0.0756 0.21762 0.70477 0.0
N311 N 0.06385 0.24451 0.72798 0.0
C312 C 0.06311 0.23649 0.70694 0.0
C313 C 0.08447 0.21342 0.72508 0.0
C314 C 0.07735 0.23003 0.73941 0.0
C315 C 0.04069 0.17224 0.69068 0.0
O316 O 0.05462 0.16742 0.70734 0.0
H317 H 0.05316 0.24376 0.69346 0.0
H318 H 0.09499 0.19906 0.72932 0.0
O319 O 0.0867 0.21843 0.65383 0.0
H320 H 0.15029 0.15839 0.70077 0.0
H321 H 0.08183 0.23128 0.75688 0.0
Cu322 Cu 0.88323 0.07897 0.70442 0.0
N323 N 0.88946 0.05202 0.68998 0.0
N324 N 0.89974 1.01662 0.6835 0.0
C325 C 0.89628 0.03253 0.69914 0.0
C326 C 0.89482 0.02649 0.66384 0.0
C327 C 0.88847 0.04827 0.66789 0.0
O328 O 0.91316 0.09292 0.71097 0.0
C329 C 0.84735 0.05982 0.7299 0.0
O330 O 0.84231 0.05068 0.71059 0.0
H331 H 0.89893 0.03018 0.71685 0.0
H332 H 0.88343 0.06047 0.65552 0.0
N333 N 0.8668 0.09698 0.68447 0.0
N334 N 0.83837 0.11565 0.66721 0.0
C335 C 0.84444 0.10349 0.68534 0.0
C336 C 0.87514 0.10523 0.66522 0.0
C337 C 0.85772 0.11672 0.65456 0.0
C338 C 0.91723 0.11363 0.70779 0.0
O339 O 0.9001 0.12707 0.70239 0.0
H340 H 0.83292 0.09927 0.69893 0.0
H341 H 0.89265 0.1027 0.65922 0.0
O342 O 0.86466 0.07306 0.73108 0.0
H343 H 0.8954 1.01844 0.6477 0.0
H344 H 0.85909 0.1246 0.63838 0.0
Cu345 Cu 0.98372 0.83662 0.67534 0.0
N346 N 0.96076 0.85826 0.67946 0.0
N347 N 0.94215 0.89097 0.68082 0.0
C348 C 0.96109 0.87993 0.67337 0.0
C349 C 0.92937 0.87562 0.69177 0.0
C350 C 0.94087 0.85548 0.69087 0.0
O351 O 1.01411 0.85075 0.67218 0.0
C352 C 0.95676 0.80583 0.65143 0.0
O353 O 0.94509 0.8059 0.67023 0.0
H354 H 0.97532 0.8876 0.66442 0.0
H355 H 0.93538 0.83999 0.6985 0.0
N356 N 0.98529 0.8195 0.70119 0.0
N357 N 0.99371 0.7922 0.7252 0.0
C358 C 0.99313 0.79842 0.70356 0.0
C359 C 0.98073 0.82679 0.72194 0.0
C360 C 0.98586 0.80999 0.73678 0.0
C361 C 1.02039 0.86519 0.68663 0.0
O362 O 1.00562 0.87112 0.70222 0.0
H363 H 0.99897 0.78817 0.6898 0.0
H364 H 0.97455 0.84336 0.72602 0.0
O365 O 0.97499 0.81784 0.64997 0.0
H366 H 0.91293 0.87873 0.69992 0.0
H367 H 0.98397 0.81081 0.75471 0.0
Cu368 Cu 0.34254 0.1993 0.02341 0.0
N369 N 0.34721 0.18701 0.99495 0.0
N370 N 0.34926 0.16469 0.965 0.0
C371 C 0.34273 0.16642 0.98664 0.0
C372 C 0.35786 0.18496 0.9596 0.0
C373 C 0.35651 0.19859 0.97796 0.0
O374 O 0.33621 0.17671 0.04619 0.0
C375 C 0.30121 0.22165 1.00773 0.0
O376 O 0.29953 0.20509 0.99346 0.0
H377 H 0.33523 0.15296 0.9963 0.0
H378 H 0.36199 0.21585 0.97895 0.0
N379 N 0.36948 0.21472 0.03194 0.0
N380 N 0.39315 0.23892 0.04919 0.0
C381 C 0.37113 0.23126 0.04713 0.0
C382 C 0.39116 0.21175 0.02415 0.0
C383 C 0.40576 0.22664 0.0347 0.0
C384 C 0.34862 0.15921 0.04874 0.0
O385 O 0.36553 0.15521 0.03462 0.0
H386 H 0.3564 0.2376 0.05635 0.0
H387 H 0.39603 0.19949 1.01176 0.0
O388 O 0.31763 0.22154 0.022 0.0
H389 H 0.36448 0.18971 0.9434 0.0
H390 H 0.42432 0.22792 0.03226 0.0
Cu391 Cu 0.33617 0.85083 1.01352 0.0
N392 N 0.34253 0.86505 0.04073 0.0
N393 N 0.34325 0.88984 0.06874 0.0
C394 C 0.33526 0.88524 0.048 0.0
C395 C 0.35583 0.87172 0.07467 0.0
C396 C 0.35532 0.85654 0.05746 0.0
O397 O 0.33073 0.87271 0.98998 0.0
C398 C 0.3086 0.81592 0.03115 0.0
O399 O 0.32707 0.81239 0.0435 0.0
H400 H 0.32455 0.89637 0.03817 0.0
H401 H 0.36359 0.84031 0.05722 0.0
N402 N 0.36141 0.83308 1.00479 0.0
N403 N 0.38274 0.80804 0.98594 0.0
C404 C 0.36123 0.81643 0.98966 0.0
C405 C 0.38376 0.83539 1.01084 0.0
C406 C 0.39691 0.81996 0.99935 0.0
C407 C 0.34358 0.88983 0.98726 0.0
O408 O 0.36064 0.89351 1.00131 0.0
H409 H 0.34562 0.81088 0.98132 0.0
H410 H 0.39016 0.84792 0.02227 0.0
O411 O 0.30889 0.83182 1.01699 0.0
H412 H 0.36448 0.86932 0.0905 0.0
H413 H 0.4156 0.81837 1.00013 0.0
Cu414 Cu 0.17796 0.34956 0.96121 0.0
N415 N 0.17162 0.36258 0.98884 0.0
N416 N 0.16025 0.36717 0.02408 0.0
C417 C 0.16394 0.3524 1.00745 0.0
C418 C 0.16592 0.38734 1.01568 0.0
C419 C 0.17305 0.38445 0.99398 0.0
O420 O 0.14887 0.34534 0.94494 0.0
C421 C 0.21174 0.32064 0.97939 0.0
O422 O 0.21726 0.33878 0.99052 0.0
H423 H 0.16078 0.3346 1.00864 0.0
H424 H 0.17867 0.39743 0.98268 0.0
N425 N 0.19619 0.36923 0.94455 0.0
N426 N 0.22602 0.38471 0.92635 0.0
C427 C 0.21845 0.36681 0.93809 0.0
C428 C 0.18944 0.38922 0.93659 0.0
C429 C 0.20772 0.39881 0.92548 0.0
C430 C 0.13356 0.3608 0.9448 0.0
O431 O 0.13694 0.37875 0.95693 0.0
H432 H 0.22875 0.35216 0.94188 0.0
H433 H 0.17249 0.39655 0.93895 0.0
O434 O 0.19488 0.3215 0.96561 0.0
H435 H 0.16523 0.40301 0.02468 0.0
H436 H 0.20757 0.41521 0.91788 0.0
Cu437 Cu 0.71183 0.19557 1.00216 0.0
N438 N 0.70655 0.18096 0.02943 0.0
N439 N 0.70462 0.15552 0.05679 0.0
C440 C 0.70687 0.15895 0.0346 0.0
C441 C 0.70284 0.17606 0.06587 0.0
C442 C 0.70403 0.19164 0.04901 0.0
O443 O 0.72084 0.17419 0.97904 0.0
C444 C 0.7564 0.21547 1.01297 0.0
O445 O 0.76522 0.19529 1.01123 0.0
H446 H 0.70954 0.14575 0.02255 0.0
H447 H 0.70359 0.20962 0.05089 0.0
N448 N 0.68485 0.21043 0.99251 0.0
N449 N 0.66066 0.23098 0.9714 0.0
C450 C 0.6819 0.22132 0.973 0.0
C451 C 0.66481 0.21324 1.00367 0.0
C452 C 0.6499 0.22588 0.99073 0.0
C453 C 0.70693 0.15831 0.97423 0.0
O454 O 0.68728 0.15669 0.98521 0.0
H455 H 0.69531 0.22246 0.96043 0.0
H456 H 0.66131 0.20663 0.02011 0.0
O457 O 0.73502 0.21863 1.00842 0.0
H458 H 0.70078 0.17956 0.08346 0.0
H459 H 0.63239 0.23068 0.99518 0.0
Cu460 Cu 0.86835 0.68886 0.97956 0.0
N461 N 0.87415 0.67746 1.00809 0.0
N462 N 0.88948 0.67025 0.04152 0.0
C463 C 0.89101 0.68275 0.02279 0.0
C464 C 0.87096 0.65685 0.03857 0.0
C465 C 0.86148 0.66143 1.01808 0.0
O466 O 0.89704 0.69098 0.96225 0.0
C467 C 0.83578 0.72042 0.99556 0.0
O468 O 0.82908 0.70328 1.00764 0.0
H469 H 0.90426 0.69519 1.01972 0.0
H470 H 0.84623 0.65369 1.01102 0.0
N471 N 0.84906 0.66865 0.9647 0.0
N472 N 0.82118 0.65383 0.94338 0.0
C473 C 0.83071 0.67289 0.9514 0.0
C474 C 0.85119 0.64626 0.96507 0.0
C475 C 0.83406 0.6371 0.95208 0.0
C476 C 0.91026 0.67405 0.95954 0.0
O477 O 0.90538 0.65539 0.97006 0.0
H478 H 0.82472 0.68959 0.94751 0.0
H479 H 0.86417 0.63716 0.97441 0.0
O480 O 0.85268 0.71785 0.98205 0.0
H481 H 0.86454 0.64483 0.05057 0.0
H482 H 0.83112 0.61941 0.94962 0.0
Cu483 Cu 0.70919 0.84806 0.02856 0.0
N484 N 0.70646 0.85859 0.99918 0.0
N485 N 0.70488 0.88179 0.96989 0.0
C486 C 0.70451 0.88003 0.99237 0.0
C487 C 0.70699 0.86065 0.96231 0.0
C488 C 0.70784 0.8464 0.98039 0.0
O489 O 0.71308 0.87402 0.04809 0.0
C490 C 0.75235 0.82562 1.01777 0.0
O491 O 0.7556 0.8416 1.00308 0.0
H492 H 0.70352 0.89409 1.00367 0.0
H493 H 0.70985 0.82842 0.97991 0.0
N494 N 0.68218 0.83252 0.03685 0.0
N495 N 0.6586 0.80911 0.05537 0.0
C496 C 0.68044 0.81718 0.05326 0.0
C497 C 0.66076 0.83411 0.02807 0.0
C498 C 0.64619 0.81971 0.03943 0.0
C499 C 0.71183 0.87293 0.06926 0.0
O500 O 0.70943 0.85329 0.07876 0.0
H501 H 0.69501 0.81204 0.06343 0.0
H502 H 0.65601 0.84514 1.01452 0.0
O503 O 0.7347 0.82645 0.03058 0.0
H504 H 0.70778 0.85584 0.94494 0.0
H505 H 0.62776 0.8177 0.03657 0.0
Cu506 Cu 0.18929 0.68296 0.06804 0.0
N507 N 0.18396 0.67655 0.03809 0.0
N508 N 0.16898 0.67453 1.00381 0.0
C509 C 0.1655 0.68122 0.0251 0.0
C510 C 0.19041 0.66539 1.00355 0.0
C511 C 0.19957 0.6667 0.02465 0.0
O512 O 0.16054 0.68869 0.08437 0.0
C513 C 0.21049 0.72425 0.05585 0.0
O514 O 0.19383 0.72515 0.04092 0.0
H515 H 0.14997 0.68942 0.03113 0.0
H516 H 0.21663 0.66121 0.02983 0.0
N517 N 0.2038 0.65802 0.08049 0.0
N518 N 0.22742 0.63666 0.10097 0.0
C519 C 0.22027 0.6577 0.09638 0.0
C520 C 0.2005 0.63652 0.07473 0.0
C521 C 0.21496 0.62329 0.0874 0.0
C522 C 0.14631 0.67287 0.08838 0.0
O523 O 0.1505 0.65295 0.08011 0.0
H524 H 0.22683 0.67262 0.1044 0.0
H525 H 0.18861 0.63089 0.06196 0.0
O526 O 0.21089 0.70805 0.06966 0.0
H527 H 0.19918 0.6588 0.98903 0.0
H528 H 0.21661 0.6053 0.08628 0.0
Cu529 Cu 0.88136 0.33655 0.07042 0.0
N530 N 0.88546 0.35445 0.04523 0.0
N531 N 0.89589 0.36702 1.01159 0.0
C532 C 0.89565 0.34932 0.02565 0.0
C533 C 0.88535 0.38376 0.02276 0.0
C534 C 0.87897 0.37598 0.04343 0.0
O535 O 0.91234 0.33093 0.083 0.0
C536 C 0.8459 0.30202 0.06822 0.0
O537 O 0.83643 0.31191 0.08547 0.0
H538 H 0.90314 0.33312 0.02201 0.0
H539 H 0.87029 0.38544 0.05633 0.0
N540 N 0.86433 0.354 0.09077 0.0
N541 N 0.83634 0.37463 0.1066 0.0
C542 C 0.84171 0.35997 0.09021 0.0
C543 C 0.87361 0.36605 0.10748 0.0
C544 C 0.85645 0.37848 0.11741 0.0
C545 C 0.91609 0.32694 0.10358 0.0
O546 O 0.89844 0.32354 0.117 0.0
H547 H 0.82961 0.3541 0.07774 0.0
H548 H 0.89186 0.36663 0.11158 0.0
O549 O 0.86524 0.30914 0.06066 0.0
H550 H 0.88229 0.40045 1.01642 0.0
H551 H 0.85887 0.39025 0.1309 0.0
Cu552 Cu 0.5753 0.86966 0.69097 0.0
N553 N 0.59935 0.86648 0.67032 0.0
N554 N 0.61968 0.86587 0.63863 0.0
C555 C 0.59849 0.86835 0.64794 0.0
C556 C 0.63438 0.86234 0.65578 0.0
C557 C 0.6218 0.86272 0.67525 0.0
O558 O 0.54531 0.87219 0.67591 0.0
C559 C 0.59783 0.89259 0.72573 0.0
O560 O 0.60688 0.87266 0.72875 0.0
H561 H 0.58278 0.87197 0.63872 0.0
H562 H 0.6286 0.86048 0.69189 0.0
N563 N 0.57328 0.84405 0.70851 0.0
N564 N 0.55972 0.82026 0.7341 0.0
C565 C 0.55682 0.84022 0.7239 0.0
C566 C 0.58706 0.8259 0.70873 0.0
C567 C 0.57878 0.8112 0.72455 0.0
C568 C 0.53903 0.85655 0.66275 0.0
O569 O 0.55356 0.84011 0.65866 0.0
H570 H 0.5429 0.85188 0.72728 0.0
H571 H 0.60212 0.82356 0.69825 0.0
O572 O 0.58281 0.89522 0.71027 0.0
H573 H 0.65287 0.8595 0.65433 0.0
H574 H 0.58651 0.7953 0.7289 0.0
Cu575 Cu 0.21816 0.5329 0.70004 0.0
N576 N 0.21526 0.50494 0.68606 0.0
N577 N 0.21781 0.47646 0.66184 0.0
C578 C 0.22287 0.49823 0.66584 0.0
C579 C 0.2066 0.4694 0.68033 0.0
C580 C 0.20519 0.48687 0.69516 0.0
O581 O 0.22348 0.55656 0.67807 0.0
C582 C 0.2612 0.51881 0.7201 0.0
O583 O 0.26405 0.50711 0.70179 0.0
H584 H 0.23221 0.50904 0.65451 0.0
H585 H 0.19731 0.48646 0.71152 0.0
N586 N 0.19048 0.53952 0.71538 0.0
N587 N 0.16495 0.55501 0.73908 0.0
C588 C 0.18729 0.55444 0.73199 0.0
C589 C 0.16945 0.53046 0.71176 0.0
C590 C 0.15374 0.53988 0.72634 0.0
C591 C 0.21094 0.55833 0.66061 0.0
O592 O 0.19463 0.54344 0.657 0.0
H593 H 0.20112 0.56464 0.73871 0.0
H594 H 0.16571 0.51807 0.69916 0.0
O595 O 0.2433 0.53127 0.72203 0.0
H596 H 0.19954 0.45287 0.68298 0.0
H597 H 0.13535 0.53633 0.72701 0.0
Cu598 Cu 0.48795 0.1682 0.70218 0.0
N599 N 0.46938 0.16056 0.6778 0.0
N600 N 0.45169 0.16002 0.64464 0.0
C601 C 0.4646 0.17214 0.65905 0.0
C602 C 0.44807 0.14022 0.65486 0.0
C603 C 0.45903 0.1406 0.67519 0.0
O604 O 0.5204 0.16857 0.69257 0.0
C605 C 0.46024 0.14663 0.73311 0.0
O606 O 0.44558 0.1614 0.72501 0.0
H607 H 0.47091 0.18883 0.65576 0.0
H608 H 0.45972 0.12709 0.68716 0.0
N609 N 0.48108 0.19679 0.71253 0.0
N610 N 0.48674 0.22941 0.72966 0.0
C611 C 0.49394 0.20808 0.72745 0.0
C612 C 0.46502 0.21138 0.70514 0.0
C613 C 0.46856 0.23162 0.71564 0.0
C614 C 0.52636 0.18405 0.67908 0.0
O615 O 0.51065 0.19863 0.67269 0.0
H616 H 0.50916 0.20114 0.73549 0.0
H617 H 0.45229 0.20782 0.69239 0.0
O618 O 0.48106 0.1467 0.72586 0.0
H619 H 0.43823 0.12638 0.64816 0.0
H620 H 0.45893 0.24691 0.71277 0.0
Cu621 Cu 0.83496 0.51431 0.69131 0.0
N622 N 0.83665 0.54272 0.6781 0.0
N623 N 0.83776 0.57091 0.65353 0.0
C624 C 0.83905 0.54848 0.65645 0.0
C625 C 0.83464 0.57947 0.67411 0.0
C626 C 0.83403 0.56211 0.68916 0.0
O627 O 0.83724 0.49033 0.66944 0.0
C628 C 0.78882 0.52406 0.70712 0.0
O629 O 0.7867 0.53662 0.68927 0.0
H630 H 0.84113 0.5365 0.64309 0.0
H631 H 0.83146 0.56344 0.70696 0.0
N632 N 0.85999 0.51009 0.71078 0.0
N633 N 0.88359 0.4928 0.73507 0.0
C634 C 0.8639 0.49145 0.72282 0.0
C635 C 0.87773 0.52387 0.71555 0.0
C636 C 0.8923 0.51328 0.73054 0.0
C637 C 0.82467 0.4866 0.65239 0.0
O638 O 0.80709 0.49987 0.64795 0.0
H639 H 0.85236 0.47721 0.72254 0.0
H640 H 0.88007 0.54034 0.70843 0.0
O641 O 0.80718 0.51246 0.70981 0.0
H642 H 0.83307 0.59707 0.67803 0.0
H643 H 0.90835 0.51997 0.73708 0.0
Cu644 Cu 0.57885 0.18424 0.33815 0.0
N645 N 0.60223 0.18733 0.35959 0.0
N646 N 0.62032 0.18797 0.39251 0.0
C647 C 0.60138 0.18112 0.38116 0.0
C648 C 0.63372 0.19862 0.37746 0.0
C649 C 0.62256 0.19812 0.35717 0.0
O650 O 0.54877 0.18169 0.35297 0.0
C651 C 0.60475 0.15848 0.30758 0.0
O652 O 0.61885 0.17563 0.30924 0.0
H653 H 0.58673 0.17259 0.38857 0.0
H654 H 0.62857 0.20569 0.34186 0.0
N655 N 0.57739 0.21017 0.32095 0.0
N656 N 0.56664 0.23415 0.29424 0.0
C657 C 0.56581 0.2128 0.30166 0.0
C658 C 0.58574 0.23051 0.32607 0.0
C659 C 0.57929 0.24529 0.3096 0.0
C660 C 0.54335 0.19582 0.36803 0.0
O661 O 0.55853 0.21115 0.37375 0.0
H662 H 0.55635 0.1994 0.29369 0.0
H663 H 0.59538 0.23448 0.34101 0.0
O664 O 0.58591 0.15867 0.31879 0.0
H665 H 0.65032 0.20634 0.3809 0.0
H666 H 0.58359 0.26288 0.30909 0.0
Cu667 Cu 0.84064 0.53576 0.34283 0.0
N668 N 0.84918 0.51028 0.35927 0.0
N669 N 0.84841 0.48111 0.38276 0.0
C670 C 0.83597 0.49763 0.37293 0.0
C671 C 0.87018 0.48342 0.37478 0.0
C672 C 0.87059 0.50138 0.3604 0.0
O673 O 0.84019 0.56227 0.36204 0.0
C674 C 0.806 0.51364 0.31766 0.0
O675 O 0.82173 0.49775 0.31677 0.0
H676 H 0.8177 0.50068 0.37582 0.0
H677 H 0.88561 0.50784 0.35173 0.0
N678 N 0.86246 0.54065 0.32006 0.0
N679 N 0.88597 0.55785 0.29559 0.0
C680 C 0.87137 0.56033 0.31316 0.0
C681 C 0.87169 0.52517 0.30644 0.0
C682 C 0.88615 0.53565 0.29142 0.0
C683 C 0.83568 0.56202 0.38285 0.0
O684 O 0.83022 0.54303 0.39248 0.0
H685 H 0.86713 0.57612 0.32094 0.0
H686 H 0.86792 0.50748 0.3072 0.0
O687 O 0.81043 0.53132 0.32873 0.0
H688 H 0.88499 0.47339 0.37963 0.0
H689 H 0.89555 0.5275 0.2781 0.0
Cu690 Cu 0.48746 0.88089 0.34485 0.0
N691 N 0.46491 0.88309 0.36712 0.0
N692 N 0.44568 0.87995 0.39928 0.0
C693 C 0.46304 0.87175 0.3865 0.0
C694 C 0.43621 0.89678 0.38737 0.0
C695 C 0.44811 0.8987 0.36766 0.0
O696 O 0.51835 0.87984 0.35833 0.0
C697 C 0.46346 0.90432 0.31203 0.0
O698 O 0.45028 0.88653 0.31419 0.0
H699 H 0.47479 0.85855 0.39154 0.0
H700 H 0.44514 0.91115 0.35492 0.0
N701 N 0.48438 0.85408 0.32944 0.0
N702 N 0.49096 0.82812 0.30346 0.0
C703 C 0.49571 0.84904 0.31054 0.0
C704 C 0.47201 0.83576 0.33468 0.0
C705 C 0.47606 0.81966 0.31864 0.0
C706 C 0.52347 0.88836 0.37715 0.0
O707 O 0.50824 0.90122 0.38721 0.0
H708 H 0.50761 0.86043 0.30244 0.0
H709 H 0.461 0.83418 0.34919 0.0
O710 O 0.48197 0.9055 0.32374 0.0
H711 H 0.42187 0.90721 0.39268 0.0
H712 H 0.46845 0.80313 0.31811 0.0
Cu713 Cu 0.20599 0.50367 0.35201 0.0
N714 N 0.20093 0.53158 0.36557 0.0
N715 N 0.20271 0.56071 0.38912 0.0
C716 C 0.20823 0.53893 0.38568 0.0
C717 C 0.19163 0.56716 0.37031 0.0
C718 C 0.19064 0.54928 0.35591 0.0
O719 O 0.21504 0.4815 0.37417 0.0
C720 C 0.24885 0.51819 0.33256 0.0
O721 O 0.2529 0.52698 0.35223 0.0
H722 H 0.21759 0.52853 0.39739 0.0
H723 H 0.18341 0.5493 0.33927 0.0
N724 N 0.17894 0.49344 0.33761 0.0
N725 N 0.1551 0.47244 0.31662 0.0
C726 C 0.17708 0.47546 0.32412 0.0
C727 C 0.1574 0.50206 0.33877 0.0
C728 C 0.14272 0.48924 0.32584 0.0
C729 C 0.20266 0.47789 0.3914 0.0
O730 O 0.18384 0.48991 0.39454 0.0
H731 H 0.19167 0.46489 0.31985 0.0
H732 H 0.1526 0.51652 0.34855 0.0
O733 O 0.23017 0.5072 0.32947 0.0
H734 H 0.1853 0.58382 0.36679 0.0
H735 H 0.12424 0.49181 0.32388 0.0
Cu736 Cu 0.66941 0.58422 0.83034 0.0
N737 N 0.66533 0.55995 0.84954 0.0
N738 N 0.65484 0.52631 0.8621 0.0
C739 C 0.65815 0.53928 0.84396 0.0
C740 C 0.66018 0.53928 0.87974 0.0
C741 C 0.66671 0.56001 0.87193 0.0
O742 O 0.63943 0.59896 0.82697 0.0
C743 C 0.69972 0.56071 0.80236 0.0
O744 O 0.70753 0.55355 0.82167 0.0
H745 H 0.65467 0.53411 0.827 0.0
H746 H 0.6716 0.5743 0.8819 0.0
N747 N 0.6898 0.605 0.84267 0.0
N748 N 0.71878 0.62079 0.86171 0.0
C749 C 0.70833 0.60142 0.85588 0.0
C750 C 0.68857 0.62728 0.83992 0.0
C751 C 0.70636 0.63708 0.85167 0.0
C752 C 0.63048 0.60784 0.84428 0.0
O753 O 0.64179 0.60654 0.86325 0.0
H754 H 0.7138 0.58498 0.86134 0.0
H755 H 0.67558 0.63578 0.83002 0.0
O756 O 0.6825 0.57411 0.80208 0.0
H757 H 0.65932 0.53416 0.89703 0.0
H758 H 0.71005 0.65479 0.85246 0.0
Cu759 Cu 0.47583 0.7046 0.87289 0.0
N760 N 0.45455 0.68618 0.8584 0.0
N761 N 0.4354 0.65514 0.84892 0.0
C762 C 0.45062 0.66456 0.86323 0.0
C763 C 0.42954 0.6716 0.83454 0.0
C764 C 0.44141 0.69074 0.84043 0.0
O765 O 0.50479 0.68798 0.87627 0.0
C766 C 0.44276 0.7238 0.90085 0.0
O767 O 0.4312 0.72405 0.88197 0.0
H768 H 0.45945 0.65577 0.87653 0.0
H769 H 0.4408 0.70673 0.83203 0.0
N770 N 0.48193 0.73023 0.85617 0.0
N771 N 0.49572 0.75353 0.83018 0.0
C772 C 0.49142 0.73198 0.83572 0.0
C773 C 0.48008 0.75127 0.86378 0.0
C774 C 0.4885 0.76564 0.84787 0.0
C775 C 0.51259 0.67719 0.85952 0.0
O776 O 0.50062 0.67733 0.84089 0.0
H777 H 0.49549 0.71774 0.82538 0.0
H778 H 0.47395 0.75582 0.88019 0.0
O779 O 0.46286 0.71484 0.90117 0.0
H780 H 0.41757 0.66998 0.82074 0.0
H781 H 0.49018 0.78354 0.84977 0.0
Cu782 Cu 0.3898 0.46745 0.84067 0.0
N783 N 0.39227 0.4936 0.85745 0.0
N784 N 0.39973 0.52866 0.86806 0.0
C785 C 0.40066 0.51367 0.85122 0.0
C786 C 0.39034 0.51753 0.88543 0.0
C787 C 0.38575 0.49597 0.87883 0.0
O788 O 0.42087 0.45472 0.83762 0.0
C789 C 0.35557 0.48659 0.8133 0.0
O790 O 0.34938 0.49528 0.8325 0.0
H791 H 0.40756 0.51708 0.83479 0.0
H792 H 0.37811 0.48292 0.88891 0.0
N793 N 0.37281 0.44701 0.85745 0.0
N794 N 0.34343 0.42841 0.87328 0.0
C795 C 0.34979 0.44326 0.85735 0.0
C796 C 0.38143 0.43411 0.87381 0.0
C797 C 0.36345 0.42266 0.88359 0.0
C798 C 0.42399 0.4348 0.83076 0.0
O799 O 0.40623 0.4237 0.82265 0.0
H800 H 0.33805 0.4516 0.84603 0.0
H801 H 0.39949 0.43364 0.87871 0.0
O802 O 0.37334 0.4738 0.81271 0.0
H803 H 0.38672 0.52453 0.90169 0.0
H804 H 0.3651 0.41163 0.89779 0.0
Cu805 Cu 0.57864 0.34705 0.85889 0.0
N806 N 0.60338 0.36703 0.85536 0.0
N807 N 0.62445 0.39802 0.85073 0.0
C808 C 0.60333 0.38959 0.85566 0.0
C809 C 0.63827 0.3802 0.84715 0.0
C810 C 0.62527 0.36115 0.85009 0.0
O811 O 0.54906 0.36308 0.86005 0.0
C812 C 0.60004 0.31169 0.88223 0.0
O813 O 0.60932 0.30839 0.86252 0.0
H814 H 0.58805 0.39967 0.85862 0.0
H815 H 0.63124 0.34416 0.84797 0.0
N816 N 0.57662 0.33022 0.83283 0.0
N817 N 0.56251 0.30717 0.80698 0.0
C818 C 0.56254 0.31273 0.82878 0.0
C819 C 0.58583 0.3358 0.81298 0.0
C820 C 0.57715 0.3216 0.79699 0.0
C821 C 0.54341 0.3795 0.87241 0.0
O822 O 0.55769 0.38611 0.88814 0.0
H823 H 0.5515 0.30514 0.84126 0.0
H824 H 0.59714 0.34993 0.81015 0.0
O825 O 0.58524 0.32747 0.88448 0.0
H826 H 0.65647 0.38092 0.84273 0.0
H827 H 0.58079 0.32222 0.7793 0.0
Cu828 Cu 0.68314 0.47678 0.18922 0.0
N829 N 0.67926 0.50697 0.18218 0.0
N830 N 0.66647 0.54221 0.18068 0.0
C831 C 0.66116 0.52081 0.1859 0.0
C832 C 0.68855 0.5417 0.17324 0.0
C833 C 0.69635 0.52 0.17419 0.0
O834 O 0.65349 0.46103 0.19181 0.0
C835 C 0.70329 0.49007 0.2309 0.0
O836 O 0.68944 0.50746 0.22928 0.0
H837 H 0.6449 0.5155 0.19321 0.0
H838 H 0.71357 0.51414 0.16998 0.0
N839 N 0.70043 0.46372 0.16635 0.0
N840 N 0.7278 0.44386 0.14881 0.0
C841 C 0.71753 0.44852 0.16854 0.0
C842 C 0.69985 0.46894 0.14455 0.0
C843 C 0.71662 0.45667 0.13368 0.0
C844 C 0.64113 0.45712 0.17458 0.0
O845 O 0.64794 0.46498 0.15522 0.0
H846 H 0.72254 0.44136 0.1844 0.0
H847 H 0.68853 0.48135 0.1372 0.0
O848 O 0.70207 0.47467 0.21626 0.0
H849 H 0.69844 0.55605 0.16773 0.0
H850 H 0.72088 0.45786 0.11615 0.0
Cu851 Cu 0.56192 0.70311 0.16498 0.0
N852 N 0.58477 0.68863 0.18171 0.0
N853 N 0.60957 0.66202 0.19253 0.0
C854 C 0.59236 0.66761 0.17831 0.0
C855 C 0.61287 0.68024 0.20541 0.0
C856 C 0.59745 0.6966 0.19877 0.0
O857 O 0.53592 0.68242 0.16172 0.0
C858 C 0.59328 0.7267 0.13912 0.0
O859 O 0.60129 0.73052 0.15926 0.0
H860 H 0.58583 0.65688 0.16522 0.0
H861 H 0.59584 0.71325 0.20563 0.0
N862 N 0.55076 0.72864 0.17925 0.0
N863 N 0.53698 0.75327 0.20395 0.0
C864 C 0.54619 0.73265 0.20093 0.0
C865 C 0.54419 0.74719 0.16829 0.0
C866 C 0.53573 0.76236 0.18339 0.0
C867 C 0.52806 0.67359 0.17957 0.0
O868 O 0.53801 0.67865 0.19861 0.0
H869 H 0.54948 0.72072 0.21412 0.0
H870 H 0.54507 0.74931 0.15041 0.0
O871 O 0.57573 0.71382 0.13704 0.0
H872 H 0.62558 0.68166 0.21862 0.0
H873 H 0.52854 0.77858 0.17935 0.0
Cu874 Cu 0.37696 0.5757 0.21544 0.0
N875 N 0.37959 0.5504 0.19735 0.0
N876 N 0.3892 0.51563 0.18714 0.0
C877 C 0.38827 0.53058 0.20398 0.0
C878 C 0.38073 0.52658 0.16918 0.0
C879 C 0.37486 0.54802 0.17552 0.0
O880 O 0.40784 0.58877 0.21859 0.0
C881 C 0.34284 0.55638 0.24166 0.0
O882 O 0.33493 0.5518 0.22164 0.0
H883 H 0.39442 0.52751 0.22074 0.0
H884 H 0.3681 0.56105 0.16485 0.0
N885 N 0.35888 0.59821 0.20267 0.0
N886 N 0.33388 0.61822 0.18232 0.0
C887 C 0.34171 0.59749 0.18741 0.0
C888 C 0.36172 0.61997 0.20755 0.0
C889 C 0.34642 0.63233 0.19506 0.0
C890 C 0.41726 0.59551 0.20053 0.0
O891 O 0.40625 0.59212 0.18166 0.0
H892 H 0.33539 0.58221 0.17995 0.0
H893 H 0.37425 0.62637 0.21934 0.0
O894 O 0.36199 0.56695 0.24336 0.0
H895 H 0.37895 0.51969 0.15261 0.0
H896 H 0.34456 0.65033 0.19547 0.0
Cu897 Cu 0.49295 0.35042 0.14944 0.0
N898 N 0.47105 0.36742 0.16492 0.0
N899 N 0.44823 0.39652 0.17327 0.0
C900 C 0.46432 0.38818 0.15916 0.0
C901 C 0.44479 0.38027 0.18857 0.0
C902 C 0.45888 0.36233 0.18336 0.0
O903 O 0.52001 0.36948 0.14433 0.0
C904 C 0.46004 0.3269 0.12551 0.0
O905 O 0.45161 0.32541 0.1458 0.0
H906 H 0.47144 0.39705 0.14501 0.0
H907 H 0.46006 0.34665 0.19228 0.0
N908 N 0.50271 0.32537 0.16547 0.0
N909 N 0.51543 0.30177 0.19174 0.0
C910 C 0.50698 0.32247 0.18738 0.0
C911 C 0.50859 0.30597 0.15571 0.0
C912 C 0.51642 0.29145 0.17175 0.0
C913 C 0.52933 0.37834 0.16149 0.0
O914 O 0.52022 0.37422 0.18113 0.0
H915 H 0.50417 0.33534 0.19974 0.0
H916 H 0.5078 0.30285 0.13797 0.0
O917 O 0.47842 0.33842 0.12248 0.0
H918 H 0.43272 0.38108 0.20236 0.0
H919 H 0.52314 0.27484 0.16865 0.0
Cu920 Cu 0.83948 0.69843 0.52826 0.0
N921 N 0.84503 0.68503 0.50047 0.0
N922 N 0.84547 0.66088 0.47186 0.0
C923 C 0.83867 0.66459 0.49318 0.0
C924 C 0.85645 0.67984 0.46565 0.0
C925 C 0.85606 0.69463 0.48321 0.0
O926 O 0.82985 0.67626 0.55027 0.0
C927 C 0.79904 0.7211 0.51127 0.0
O928 O 0.79572 0.70282 0.49958 0.0
H929 H 0.82898 0.65286 0.50325 0.0
H930 H 0.86337 0.71128 0.48345 0.0
N931 N 0.86685 0.71165 0.539 0.0
N932 N 0.89133 0.73075 0.56099 0.0
C933 C 0.86902 0.72463 0.55726 0.0
C934 C 0.8885 0.70939 0.53091 0.0
C935 C 0.90358 0.72118 0.54434 0.0
C936 C 0.84235 0.65907 0.5541 0.0
O937 O 0.86116 0.65588 0.54213 0.0
H938 H 0.85446 0.72939 0.56761 0.0
H939 H 0.8931 0.69948 0.51651 0.0
O940 O 0.8162 0.72205 0.5247 0.0
H941 H 0.86457 0.68281 0.44967 0.0
H942 H 0.92223 0.72201 0.54235 0.0
Cu943 Cu 0.84261 0.35163 0.50605 0.0
N944 N 0.8498 0.3702 0.53032 0.0
N945 N 0.8478 0.39521 0.55808 0.0
C946 C 0.83581 0.38368 0.54242 0.0
C947 C 0.87011 0.38876 0.55554 0.0
C948 C 0.87127 0.3735 0.53845 0.0
O949 O 0.84253 0.36967 0.47892 0.0
C950 C 0.80695 0.3281 0.52929 0.0
O951 O 0.81955 0.3326 0.54697 0.0
H952 H 0.81728 0.385 0.53978 0.0
H953 H 0.88682 0.36567 0.53206 0.0
N954 N 0.86604 0.33007 0.50259 0.0
N955 N 0.89048 0.30572 0.4865 0.0
C956 C 0.87393 0.3215 0.48324 0.0
C957 C 0.87789 0.31931 0.51868 0.0
C958 C 0.89303 0.30438 0.50884 0.0
C959 C 0.83138 0.38791 0.47637 0.0
O960 O 0.81762 0.3949 0.49236 0.0
H961 H 0.86755 0.32672 0.46709 0.0
H962 H 0.87543 0.3219 0.53636 0.0
O963 O 0.81337 0.33558 0.51035 0.0
H964 H 0.88473 0.39513 0.5649 0.0
H965 H 0.90446 0.29293 0.5175 0.0
Cu966 Cu 0.67875 0.8486 0.4566 0.0
N967 N 0.67854 0.86584 0.48247 0.0
N968 N 0.67301 0.87659 0.51768 0.0
C969 C 0.66849 0.86088 0.50212 0.0
C970 C 0.6863 0.89201 0.50738 0.0
C971 C 0.6896 0.88538 0.48565 0.0
O972 O 0.64679 0.84657 0.44597 0.0
C973 C 0.71195 0.81965 0.4753 0.0
O974 O 0.71937 0.83864 0.48363 0.0
H975 H 0.65873 0.84572 0.50513 0.0
H976 H 0.6997 0.89401 0.47313 0.0
N977 N 0.69524 0.86412 0.43474 0.0
N978 N 0.72328 0.88178 0.41603 0.0
C979 C 0.71807 0.86898 0.43392 0.0
C980 C 0.68577 0.87432 0.41694 0.0
C981 C 0.70297 0.88511 0.40533 0.0
C982 C 0.6414 0.83758 0.42745 0.0
O983 O 0.65733 0.82633 0.41649 0.0
H984 H 0.73049 0.86352 0.44631 0.0
H985 H 0.66747 0.87451 0.41299 0.0
O986 O 0.694 0.81986 0.46279 0.0
H987 H 0.69319 0.90698 0.51505 0.0
H988 H 0.70055 0.89536 0.39064 0.0
Cu989 Cu 0.20643 0.69194 0.5121 0.0
N990 N 0.20384 0.67919 0.54068 0.0
N991 N 0.20428 0.65549 0.56966 0.0
C992 C 0.20396 0.65753 0.54715 0.0
C993 C 0.20414 0.67661 0.57751 0.0
C994 C 0.20384 0.6911 0.55969 0.0
O995 O 0.2058 0.66951 0.48841 0.0
C996 C 0.25151 0.70931 0.52411 0.0
O997 O 0.25323 0.69166 0.53705 0.0
H998 H 0.20455 0.6436 0.53567 0.0
H999 H 0.2042 0.70916 0.56047 0.0
N1000 N 0.1807 0.71042 0.50625 0.0
N1001 N 0.15556 0.73172 0.48693 0.0
C1002 C 0.17573 0.72003 0.48646 0.0
C1003 C 0.16312 0.71623 0.51982 0.0
C1004 C 0.14765 0.72937 0.508 0.0
C1005 C 0.21805 0.652 0.48549 0.0
O1006 O 0.23477 0.64722 0.49961 0.0
H1007 H 0.18683 0.71839 0.47202 0.0
H1008 H 0.16145 0.71099 0.537 0.0
O1009 O 0.23383 0.71137 0.51142 0.0
H1010 H 0.20425 0.68127 0.59494 0.0
H1011 H 0.13154 0.73614 0.51437 0.0
Cu1012 Cu 0.38917 0.20721 0.46615 0.0
N1013 N 0.39121 0.18813 0.49071 0.0
N1014 N 0.40149 0.17154 0.52257 0.0
C1015 C 0.4044 0.18957 0.50924 0.0
C1016 C 0.38583 0.1585 0.51211 0.0
C1017 C 0.37954 0.16875 0.49256 0.0
O1018 O 0.4205 0.21273 0.45474 0.0
C1019 C 0.35486 0.2333 0.48729 0.0
O1020 O 0.34845 0.21362 0.49482 0.0
H1021 H 0.41624 0.20319 0.5126 0.0
H1022 H 0.36736 0.16242 0.4804 0.0
N1023 N 0.37281 0.19129 0.44451 0.0
N1024 N 0.34408 0.17467 0.42578 0.0
C1025 C 0.34977 0.19072 0.4407 0.0
C1026 C 0.38193 0.175 0.43179 0.0
C1027 C 0.36435 0.16486 0.42013 0.0
C1028 C 0.42437 0.21521 0.43396 0.0
O1029 O 0.40677 0.21683 0.42013 0.0
H1030 H 0.33744 0.20128 0.4493 0.0
H1031 H 0.40002 0.17018 0.4318 0.0
O1032 O 0.37239 0.23448 0.47435 0.0
H1033 H 0.3793 0.14268 0.51824 0.0
H1034 H 0.36626 0.15048 0.40935 0.0
Cu1035 Cu 0.22088 0.34579 0.54026 0.0
N1036 N 0.21761 0.35848 0.51177 0.0
N1037 N 0.21345 0.38163 0.48266 0.0
C1038 C 0.21215 0.37944 0.50511 0.0
C1039 C 0.21946 0.36124 0.47501 0.0
C1040 C 0.22188 0.34708 0.49289 0.0
O1041 O 0.22491 0.36739 0.56438 0.0
C1042 C 0.2652 0.32723 0.52838 0.0
O1043 O 0.26905 0.34666 0.51887 0.0
H1044 H 0.20782 0.39289 0.51641 0.0
H1045 H 0.22682 0.32964 0.49226 0.0
N1046 N 0.19413 0.32958 0.54742 0.0
N1047 N 0.16882 0.30945 0.56751 0.0
C1048 C 0.18982 0.31958 0.56711 0.0
C1049 C 0.17528 0.32567 0.5348 0.0
C1050 C 0.15966 0.31325 0.54711 0.0
C1051 C 0.23306 0.38718 0.56407 0.0
O1052 O 0.24141 0.39548 0.54547 0.0
H1053 H 0.20204 0.31968 0.5808 0.0
H1054 H 0.17297 0.33161 0.51791 0.0
O1055 O 0.24637 0.32424 0.53914 0.0
H1056 H 0.22188 0.35684 0.45767 0.0
H1057 H 0.14269 0.30786 0.54156 0.0
Cu1058 Cu 0.67901 0.207 0.58121 0.0
N1059 N 0.67152 0.19397 0.55377 0.0
N1060 N 0.66004 0.18876 0.51858 0.0
C1061 C 0.6637 0.20384 0.53499 0.0
C1062 C 0.66572 0.16875 0.52739 0.0
C1063 C 0.67279 0.17202 0.54901 0.0
O1064 O 0.64979 0.2126 0.5969 0.0
C1065 C 0.71146 0.23619 0.56037 0.0
O1066 O 0.71249 0.22018 0.54545 0.0
H1067 H 0.66078 0.22165 0.53342 0.0
H1068 H 0.67868 0.1592 0.56036 0.0
N1069 N 0.69587 0.18589 0.59743 0.0
N1070 N 0.72449 0.16797 0.61514 0.0
C1071 C 0.71827 0.18657 0.60374 0.0
C1072 C 0.68764 0.16628 0.60501 0.0
C1073 C 0.7052 0.15519 0.61589 0.0
C1074 C 0.64696 0.20871 0.61764 0.0
O1075 O 0.66497 0.20339 0.62998 0.0
H1076 H 0.72966 0.20048 0.60011 0.0
H1077 H 0.67005 0.16043 0.60262 0.0
O1078 O 0.69792 0.23399 0.57708 0.0
H1079 H 0.66537 0.15293 0.51866 0.0
H1080 H 0.70391 0.13874 0.62329 0.0
Cu1081 Cu 0.3785 0.83163 0.57614 0.0
N1082 N 0.37933 0.8487 0.55007 0.0
N1083 N 0.38987 0.86512 0.51822 0.0
C1084 C 0.39462 0.84866 0.53303 0.0
C1085 C 0.37091 0.87565 0.52619 0.0
C1086 C 0.36452 0.86556 0.54577 0.0
O1087 O 0.41051 0.82748 0.58671 0.0
C1088 C 0.34315 0.80414 0.55848 0.0
O1089 O 0.33612 0.82338 0.55037 0.0
H1090 H 0.40927 0.83737 0.53189 0.0
H1091 H 0.35017 0.87036 0.55636 0.0
N1092 N 0.36283 0.84944 0.59681 0.0
N1093 N 0.33523 0.86549 0.61757 0.0
C1094 C 0.34105 0.84769 0.60478 0.0
C1095 C 0.37098 0.86897 0.60464 0.0
C1096 C 0.35413 0.87883 0.61748 0.0
C1097 C 0.41586 0.82948 0.60726 0.0
O1098 O 0.39929 0.83131 0.62216 0.0
H1099 H 0.32958 0.83397 0.60073 0.0
H1100 H 0.38779 0.87588 0.60057 0.0
O1101 O 0.36141 0.80371 0.57058 0.0
H1102 H 0.36227 0.88972 0.51842 0.0
H1103 H 0.35538 0.89514 0.62517 0.0
H1104 H 0.11693 0.47312 0.2899 0.0
H1105 H 0.17355 0.43103 0.31151 0.0
H1106 H 0.15916 0.4007 0.28829 0.0
H1107 H 0.13058 0.38582 0.26205 0.0
H1108 H 0.07374 0.42734 0.24 0.0
H1109 H 0.08795 0.458 0.2634 0.0
C1110 C 0.12605 0.45728 0.28968 0.0
C1111 C 0.14644 0.45456 0.30255 0.0
C1112 C 0.11758 0.43971 0.27624 0.0
C1113 C 0.1581 0.43389 0.30167 0.0
C1114 C 0.14976 0.41641 0.28846 0.0
C1115 C 0.12117 0.40153 0.26234 0.0
C1116 C 0.10101 0.40415 0.24924 0.0
C1117 C 0.12954 0.41911 0.27569 0.0
C1118 C 0.08925 0.42476 0.24988 0.0
C1119 C 0.09741 0.44233 0.26327 0.0
H1120 H 0.61599 0.07392 0.24461 0.0
H1121 H 0.68388 0.10298 0.23581 0.0
H1122 H 0.67396 0.13284 0.26178 0.0
H1123 H 0.64576 0.15143 0.28619 0.0
H1124 H 0.57778 0.12265 0.29532 0.0
H1125 H 0.58792 0.09214 0.26992 0.0
C1126 C 0.6286 0.08682 0.24828 0.0
C1127 C 0.6507 0.0861 0.2381 0.0
C1128 C 0.62272 0.1041 0.26326 0.0
C1129 C 0.66689 0.10284 0.24346 0.0
C1130 C 0.66115 0.12007 0.25825 0.0
C1131 C 0.6331 0.1385 0.28267 0.0
C1132 C 0.61095 0.13948 0.29264 0.0
C1133 C 0.63909 0.12095 0.26813 0.0
C1134 C 0.59493 0.1224 0.28793 0.0
C1135 C 0.60073 0.10493 0.27336 0.0
H1136 H 0.92712 0.64325 0.24881 0.0
H1137 H 0.97429 0.59421 0.22172 0.0
H1138 H 0.95403 0.56464 0.24217 0.0
H1139 H 0.92347 0.55292 0.26843 0.0
H1140 H 0.87602 0.60231 0.29466 0.0
H1141 H 0.89618 0.63148 0.27416 0.0
C1142 C 0.93299 0.62609 0.24726 0.0
C1143 C 0.95227 0.62103 0.23369 0.0
C1144 C 0.92133 0.60921 0.25911 0.0
C1145 C 0.95951 0.59864 0.23196 0.0
C1146 C 0.94795 0.58172 0.24372 0.0
C1147 C 0.91731 0.56999 0.26957 0.0
C1148 C 0.89812 0.57518 0.28332 0.0
C1149 C 0.92888 0.58682 0.25744 0.0
C1150 C 0.89083 0.59762 0.28463 0.0
C1151 C 0.90229 0.6144 0.27273 0.0
H1152 H 0.42251 0.90734 0.28998 0.0
H1153 H 0.48587 0.9438 0.30184 0.0
H1154 H 0.47123 0.97485 0.27906 0.0
H1155 H 0.44009 0.99169 0.25605 0.0
H1156 H 0.37635 0.95503 0.24601 0.0
H1157 H 0.3917 0.92402 0.26757 0.0
C1158 C 0.43326 0.92201 0.28758 0.0
C1159 C 0.45535 0.92313 0.29765 0.0
C1160 C 0.42464 0.93983 0.2747 0.0
C1161 C 0.46885 0.94241 0.29432 0.0
C1162 C 0.46044 0.96019 0.28129 0.0
C1163 C 0.42941 0.97705 0.25865 0.0
C1164 C 0.40696 0.97596 0.24911 0.0
C1165 C 0.43827 0.95915 0.27148 0.0
C1166 C 0.39373 0.9565 0.25264 0.0
C1167 C 0.40246 0.93868 0.26517 0.0
H1168 H 0.12671 0.54716 0.76428 0.0
H1169 H 0.17997 0.59612 0.75131 0.0
H1170 H 0.16168 0.62184 0.77749 0.0
H1171 H 0.12955 0.63136 0.80248 0.0
H1172 H 0.07582 0.58292 0.81555 0.0
H1173 H 0.0953 0.55612 0.79096 0.0
C1174 C 0.1343 0.56347 0.76713 0.0
C1175 C 0.15471 0.56965 0.75563 0.0
C1176 C 0.12357 0.57832 0.78222 0.0
C1177 C 0.16447 0.59075 0.75996 0.0
C1178 C 0.15391 0.60556 0.77487 0.0
C1179 C 0.1221 0.61489 0.80011 0.0
C1180 C 0.1011 0.60927 0.81081 0.0
C1181 C 0.13333 0.59964 0.78588 0.0
C1182 C 0.09192 0.58774 0.8076 0.0
C1183 C 0.10303 0.57243 0.79344 0.0
H1184 H 0.43736 0.06689 0.79931 0.0
H1185 H 0.36842 0.09418 0.79111 0.0
H1186 H 0.3837 0.12345 0.76723 0.0
H1187 H 0.41614 0.14092 0.74778 0.0
H1188 H 0.4851 0.11346 0.75432 0.0
H1189 H 0.47021 0.08457 0.77953 0.0
C1190 C 0.4256 0.0791 0.79222 0.0
C1191 C 0.40165 0.07814 0.79725 0.0
C1192 C 0.4345 0.09591 0.7781 0.0
C1193 C 0.3869 0.09448 0.788 0.0
C1194 C 0.39562 0.11124 0.77413 0.0
C1195 C 0.42803 0.12871 0.75474 0.0
C1196 C 0.45176 0.12944 0.74911 0.0
C1197 C 0.41933 0.11208 0.76901 0.0
C1198 C 0.46677 0.11335 0.75833 0.0
C1199 C 0.45824 0.0968 0.77274 0.0
H1200 H 0.91472 0.49798 0.76885 0.0
H1201 H 0.87543 0.4482 0.73291 0.0
H1202 H 0.89196 0.41895 0.75601 0.0
H1203 H 0.91813 0.40702 0.78558 0.0
H1204 H 0.95899 0.45576 0.82114 0.0
H1205 H 0.94139 0.48578 0.79893 0.0
C1206 C 0.90985 0.48075 0.76595 0.0
C1207 C 0.89361 0.47553 0.74907 0.0
C1208 C 0.91974 0.46373 0.77923 0.0
C1209 C 0.88745 0.45299 0.74588 0.0
C1210 C 0.89706 0.43612 0.75904 0.0
C1211 C 0.9232 0.4242 0.78863 0.0
C1212 C 0.9399 0.42906 0.80508 0.0
C1213 C 0.91324 0.44127 0.77569 0.0
C1214 C 0.94618 0.45149 0.80864 0.0
C1215 C 0.93614 0.46867 0.79589 0.0
H1216 H 0.62689 0.98219 0.77511 0.0
H1217 H 0.67184 0.93577 0.80948 0.0
H1218 H 0.65613 0.90503 0.78765 0.0
H1219 H 0.63003 0.89115 0.75873 0.0
H1220 H 0.58467 0.93691 0.72405 0.0
H1221 H 0.59989 0.96796 0.74631 0.0
C1222 C 0.63313 0.96535 0.77799 0.0
C1223 C 0.65073 0.96148 0.79396 0.0
C1224 C 0.62389 0.94756 0.76534 0.0
C1225 C 0.65868 0.93946 0.79715 0.0
C1226 C 0.64956 0.92177 0.78474 0.0
C1227 C 0.62333 0.90788 0.75601 0.0
C1228 C 0.60617 0.9116 0.73965 0.0
C1229 C 0.63225 0.92563 0.76875 0.0
C1230 C 0.59783 0.93348 0.73649 0.0
C1231 C 0.60658 0.95127 0.74921 0.0
H1232 H 0.24186 0.14037 0.41541 0.0
H1233 H 0.27154 0.11176 0.35583 0.0
H1234 H 0.3082 0.13039 0.36347 0.0
H1235 H 0.33257 0.1529 0.38813 0.0
H1236 H 0.30384 0.17966 0.44893 0.0
H1237 H 0.26605 0.16389 0.43961 0.0
C1238 C 0.25635 0.13811 0.40414 0.0
C1239 C 0.25386 0.1245 0.38514 0.0
C1240 C 0.2776 0.14858 0.40884 0.0
C1241 C 0.27275 0.12223 0.37046 0.0
C1242 C 0.29384 0.13279 0.3749 0.0
C1243 C 0.3181 0.15524 0.39941 0.0
C1244 C 0.32122 0.16728 0.41932 0.0
C1245 C 0.29655 0.1457 0.3942 0.0
C1246 C 0.30202 0.17063 0.43343 0.0
C1247 C 0.2804 0.16144 0.42819 0.0
H1248 H 0.93291 0.28608 0.48916 0.0
H1249 H 0.87353 0.29427 0.44604 0.0
H1250 H 0.89162 0.27036 0.4182 0.0
H1251 H 0.92347 0.24621 0.40643 0.0
H1252 H 0.98319 0.23736 0.44893 0.0
H1253 H 0.96576 0.26235 0.4767 0.0
C1254 C 0.92389 0.28257 0.47372 0.0
C1255 C 0.90179 0.29205 0.46981 0.0
C1256 C 0.93443 0.26863 0.45767 0.0
C1257 C 0.89059 0.28753 0.44949 0.0
C1258 C 0.90088 0.27369 0.43356 0.0
C1259 C 0.93278 0.24971 0.42174 0.0
C1260 C 0.9546 0.23976 0.4256 0.0
C1261 C 0.92269 0.26405 0.43753 0.0
C1262 C 0.9664 0.24475 0.44549 0.0
C1263 C 0.95639 0.25901 0.4614 0.0
H1264 H 0.7381 0.8918 0.37484 0.0
H1265 H 0.75818 0.89356 0.44402 0.0
H1266 H 0.79429 0.9126 0.43408 0.0
H1267 H 0.8193 0.9303 0.4057 0.0
H1268 H 0.79819 0.92909 0.33671 0.0
H1269 H 0.76334 0.90836 0.34659 0.0
C1270 C 0.75033 0.89642 0.38775 0.0
C1271 C 0.74535 0.89144 0.41014 0.0
C1272 C 0.77086 0.90753 0.38194 0.0
C1273 C 0.76165 0.89706 0.42665 0.0
C1274 C 0.78222 0.9081 0.42098 0.0
C1275 C 0.80702 0.92555 0.39287 0.0
C1276 C 0.81139 0.93127 0.37051 0.0
C1277 C 0.78686 0.91369 0.3987 0.0
C1278 C 0.79547 0.92468 0.35401 0.0
C1279 C 0.77543 0.91294 0.35965 0.0
H1280 H 0.11967 0.77456 0.39756 0.0
H1281 H 0.07905 0.81411 0.44332 0.0
H1282 H 0.09556 0.79324 0.47477 0.0
H1283 H 0.12296 0.76475 0.48927 0.0
H1284 H 0.16282 0.72528 0.44268 0.0
H1285 H 0.14544 0.74542 0.41173 0.0
C1286 C 0.11426 0.77862 0.41438 0.0
C1287 C 0.09813 0.796 0.41798 0.0
C1288 C 0.12394 0.7667 0.43234 0.0
C1289 C 0.09136 0.80083 0.43998 0.0
C1290 C 0.10089 0.78894 0.45799 0.0
C1291 C 0.12773 0.76035 0.47238 0.0
C1292 C 0.14453 0.74352 0.46857 0.0
C1293 C 0.11741 0.77197 0.45439 0.0
C1294 C 0.15045 0.73835 0.4464 0.0
C1295 C 0.14033 0.74979 0.42855 0.0
H1296 H 0.23166 0.88538 0.64257 0.0
H1297 H 0.26514 0.93239 0.68663 0.0
H1298 H 0.30302 0.91801 0.67556 0.0
H1299 H 0.32665 0.89395 0.65154 0.0
H1300 H 0.29311 0.849 0.60541 0.0
H1301 H 0.25527 0.86061 0.61931 0.0
C1302 C 0.24719 0.89263 0.64969 0.0
C1303 C 0.24541 0.91019 0.66524 0.0
C1304 C 0.26896 0.88464 0.64287 0.0
C1305 C 0.26584 0.91883 0.67473 0.0
C1306 C 0.28757 0.91071 0.66829 0.0
C1307 C 0.31112 0.88674 0.64439 0.0
C1308 C 0.3129 0.87079 0.62719 0.0
C1309 C 0.28934 0.89392 0.65206 0.0
C1310 C 0.29245 0.8612 0.61869 0.0
C1311 C 0.27072 0.86797 0.62652 0.0
H1312 H 0.13578 0.2652 0.65707 0.0
H1313 H 0.09046 0.22982 0.61202 0.0
H1314 H 0.10664 0.25069 0.58053 0.0
H1315 H 0.13459 0.27824 0.56571 0.0
H1316 H 0.17911 0.31383 0.61142 0.0
H1317 H 0.1625 0.29338 0.64257 0.0
C1318 C 0.12933 0.26203 0.64039 0.0
C1319 C 0.11194 0.24586 0.63698 0.0
C1320 C 0.13874 0.27403 0.62239 0.0
C1321 C 0.10381 0.24215 0.61519 0.0
C1322 C 0.11311 0.25406 0.59715 0.0
C1323 C 0.14054 0.28172 0.58247 0.0
C1324 C 0.15835 0.29754 0.58599 0.0
C1325 C 0.1307 0.26996 0.60053 0.0
C1326 C 0.16585 0.30153 0.60796 0.0
C1327 C 0.15621 0.28992 0.6259 0.0
H1328 H 0.82876 0.14938 0.6387 0.0
H1329 H 0.79662 0.1017 0.68305 0.0
H1330 H 0.75838 0.11496 0.67185 0.0
H1331 H 0.73406 0.13867 0.64816 0.0
H1332 H 0.76619 0.18449 0.6019 0.0
H1333 H 0.80443 0.17337 0.61527 0.0
C1334 C 0.81345 0.14172 0.64583 0.0
C1335 C 0.81574 0.12439 0.66159 0.0
C1336 C 0.79146 0.14908 0.63896 0.0
C1337 C 0.79556 0.11516 0.67104 0.0
C1338 C 0.77361 0.12263 0.66452 0.0
C1339 C 0.74937 0.14614 0.64082 0.0
C1340 C 0.7471 0.16229 0.62386 0.0
C1341 C 0.77136 0.13934 0.64826 0.0
C1342 C 0.76726 0.17216 0.61506 0.0
C1343 C 0.78921 0.1657 0.6226 0.0
H1344 H 0.93117 0.75493 0.56202 0.0
H1345 H 0.87203 0.73594 0.60189 0.0
H1346 H 0.88715 0.75741 0.63314 0.0
H1347 H 0.91714 0.78131 0.64943 0.0
H1348 H 0.97658 0.80042 0.61008 0.0
H1349 H 0.96153 0.7789 0.57853 0.0
C1350 C 0.92164 0.75532 0.57757 0.0
C1351 C 0.90036 0.74376 0.57942 0.0
C1352 C 0.93055 0.76767 0.59566 0.0
C1353 C 0.8882 0.74484 0.59972 0.0
C1354 C 0.89694 0.75703 0.61772 0.0
C1355 C 0.9269 0.78077 0.63399 0.0
C1356 C 0.94804 0.79249 0.63222 0.0
C1357 C 0.91809 0.76848 0.6159 0.0
C1358 C 0.96031 0.79158 0.61199 0.0
C1359 C 0.95168 0.77928 0.59391 0.0
H1360 H 0.41941 0.30417 0.12715 0.0
H1361 H 0.47686 0.31858 0.08335 0.0
H1362 H 0.46079 0.293 0.05543 0.0
H1363 H 0.43122 0.26518 0.04426 0.0
H1364 H 0.37439 0.25077 0.08885 0.0
H1365 H 0.38935 0.27785 0.11551 0.0
C1366 C 0.42841 0.30188 0.11144 0.0
C1367 C 0.44942 0.31326 0.10745 0.0
C1368 C 0.41919 0.28705 0.0956 0.0
C1369 C 0.46067 0.31012 0.0869 0.0
C1370 C 0.45153 0.29539 0.07096 0.0
C1371 C 0.42214 0.2679 0.05983 0.0
C1372 C 0.40167 0.25577 0.06447 0.0
C1373 C 0.43096 0.28351 0.07527 0.0
C1374 C 0.38997 0.25991 0.08463 0.0
C1375 C 0.39862 0.27534 0.09999 0.0
H1376 H 0.42135 0.78206 0.98643 0.0
H1377 H 0.35961 0.79654 0.94823 0.0
H1378 H 0.37201 0.77039 0.91956 0.0
H1379 H 0.40131 0.7452 0.90407 0.0
H1380 H 0.46383 0.73133 0.94126 0.0
H1381 H 0.45019 0.75546 0.97149 0.0
C1382 C 0.41062 0.77957 0.97183 0.0
C1383 C 0.38956 0.79148 0.9696 0.0
C1384 C 0.41802 0.76463 0.95513 0.0
C1385 C 0.37573 0.78759 0.95066 0.0
C1386 C 0.3829 0.77269 0.93411 0.0
C1387 C 0.41194 0.74726 0.91885 0.0
C1388 C 0.43366 0.7365 0.92028 0.0
C1389 C 0.40413 0.76135 0.93602 0.0
C1390 C 0.44706 0.73938 0.93965 0.0
C1391 C 0.4393 0.75326 0.95693 0.0
H1392 H 0.33109 0.39452 0.90105 0.0
H1393 H 0.30247 0.44659 0.85916 0.0
H1394 H 0.26364 0.43639 0.87078 0.0
H1395 H 0.23777 0.41406 0.89398 0.0
H1396 H 0.26636 0.3641 0.9382 0.0
H1397 H 0.30517 0.37215 0.92431 0.0
C1398 C 0.31653 0.40387 0.8945 0.0
C1399 C 0.32016 0.42154 0.8793 0.0
C1400 C 0.29407 0.3983 0.90168 0.0
C1401 C 0.30064 0.43289 0.87075 0.0
C1402 C 0.27824 0.42714 0.8775 0.0
C1403 C 0.25241 0.40502 0.90083 0.0
C1404 C 0.24893 0.38861 0.91735 0.0
C1405 C 0.27479 0.41011 0.89318 0.0
C1406 C 0.26828 0.37671 0.92541 0.0
C1407 C 0.29059 0.38141 0.91757 0.0
H1408 H 0.62669 0.26259 0.97265 0.0
H1409 H 0.67361 0.22846 0.92806 0.0
H1410 H 0.6587 0.25016 0.8968 0.0
H1411 H 0.63268 0.27887 0.88195 0.0
H1412 H 0.58551 0.31336 0.92597 0.0
H1413 H 0.59993 0.29124 0.95748 0.0
C1414 C 0.63354 0.25973 0.95609 0.0
C1415 C 0.65143 0.24385 0.95289 0.0
C1416 C 0.62478 0.27231 0.93801 0.0
C1417 C 0.66019 0.24071 0.93123 0.0
C1418 C 0.65154 0.25305 0.91325 0.0
C1419 C 0.62542 0.28157 0.8984 0.0
C1420 C 0.60796 0.29783 0.90148 0.0
C1421 C 0.63391 0.26892 0.91644 0.0
C1422 C 0.5989 0.30099 0.92302 0.0
C1423 C 0.60719 0.28835 0.94108 0.0
H1424 H 0.72911 0.65648 0.88729 0.0
H1425 H 0.75404 0.59142 0.8675 0.0
H1426 H 0.78832 0.59615 0.89093 0.0
H1427 H 0.8113 0.61883 0.91663 0.0
H1428 H 0.78612 0.68363 0.93714 0.0
H1429 H 0.75219 0.67922 0.91321 0.0
C1430 C 0.74213 0.64342 0.88793 0.0
C1431 C 0.73897 0.62361 0.87563 0.0
C1432 C 0.76183 0.64627 0.90142 0.0
C1433 C 0.75586 0.6067 0.87699 0.0
C1434 C 0.77555 0.60946 0.89028 0.0
C1435 C 0.79833 0.63194 0.91612 0.0
C1436 C 0.80134 0.65151 0.92883 0.0
C1437 C 0.77868 0.62915 0.90259 0.0
C1438 C 0.78448 0.66848 0.92743 0.0
C1439 C 0.76495 0.66591 0.91384 0.0
H1440 H 0.63273 0.75123 0.13909 0.0
H1441 H 0.57683 0.73036 0.09607 0.0
H1442 H 0.59242 0.75374 0.06598 0.0
H1443 H 0.6213 0.78141 0.05248 0.0
H1444 H 0.67652 0.80212 0.09648 0.0
H1445 H 0.6619 0.77741 0.12544 0.0
C1446 C 0.62394 0.75163 0.12311 0.0
C1447 C 0.60352 0.73907 0.11994 0.0
C1448 C 0.6329 0.76518 0.10601 0.0
C1449 C 0.59257 0.73978 0.09901 0.0
C1450 C 0.60145 0.75325 0.08182 0.0
C1451 C 0.6301 0.78056 0.06841 0.0
C1452 C 0.65008 0.79373 0.07215 0.0
C1453 C 0.62146 0.76627 0.08523 0.0
C1454 C 0.66137 0.79208 0.09288 0.0
C1455 C 0.65291 0.77801 0.10958 0.0
H1456 H 0.26478 0.66052 0.11342 0.0
H1457 H 0.23031 0.59733 0.12319 0.0
H1458 H 0.26078 0.58558 0.14902 0.0
H1459 H 0.29696 0.59363 0.1694 0.0
H1460 H 0.33124 0.6569 0.15917 0.0
H1461 H 0.30093 0.66837 0.13329 0.0
C1462 C 0.26379 0.64428 0.12137 0.0
C1463 C 0.24524 0.62988 0.11643 0.0
C1464 C 0.28133 0.63765 0.1362 0.0
C1465 C 0.2445 0.60867 0.12655 0.0
C1466 C 0.26187 0.60197 0.14139 0.0
C1467 C 0.2979 0.60982 0.16134 0.0
C1468 C 0.31628 0.62442 0.16639 0.0
C1469 C 0.28039 0.61633 0.14635 0.0
C1470 C 0.31709 0.64547 0.15594 0.0
C1471 C 0.29982 0.65202 0.14102 0.0
H1472 H 0.73998 0.42372 0.11021 0.0
H1473 H 0.7611 0.43239 0.17869 0.0
H1474 H 0.79597 0.41046 0.17181 0.0
H1475 H 0.82138 0.39027 0.14609 0.0
H1476 H 0.80144 0.38279 0.07721 0.0
H1477 H 0.76517 0.40268 0.08454 0.0
C1478 C 0.75224 0.42092 0.12362 0.0
C1479 C 0.74784 0.42985 0.14493 0.0
C1480 C 0.77251 0.4085 0.11947 0.0
C1481 C 0.76377 0.4256 0.1622 0.0
C1482 C 0.78387 0.41316 0.15824 0.0
C1483 C 0.80919 0.39309 0.13262 0.0
C1484 C 0.8143 0.3852 0.11108 0.0
C1485 C 0.78854 0.40478 0.1369 0.0
C1486 C 0.79796 0.38853 0.09397 0.0
C1487 C 0.77726 0.40005 0.09813 0.0
H1488 H 0.98474 0.26239 0.30312 0.0
H1489 H 0.04592 0.22479 0.32079 0.0
H1490 H 0.06902 0.24672 0.2946 0.0
H1491 H 0.07178 0.27641 0.26651 0.0
H1492 H 1.01082 0.31436 0.2489 0.0
H1493 H 0.98768 0.29266 0.27533 0.0
C1494 C 1.00309 0.25895 0.30109 0.0
C1495 C 1.0136 0.24198 0.31382 0.0
C1496 C 1.0163 0.27176 0.28611 0.0
C1497 C 0.03749 0.2379 0.31133 0.0
C1498 C 0.05068 0.25037 0.2963 0.0
C1499 C 0.05341 0.27984 0.26839 0.0
C1500 C 0.04303 0.29691 0.25572 0.0
C1501 C 0.04026 0.26731 0.2836 0.0
C1502 C 1.01928 0.30146 0.25862 0.0
C1503 C 1.00601 0.28896 0.27362 0.0
H1504 H 0.80285 1.00552 0.29216 0.0
H1505 H 0.83844 0.95529 0.25347 0.0
H1506 H 0.81187 0.96208 0.22222 0.0
H1507 H 0.77857 0.98261 0.2059 0.0
H1508 H 0.7438 0.03303 0.24517 0.0
H1509 H 0.77016 0.02586 0.27612 0.0
C1510 C 0.80486 0.99593 0.27694 0.0
C1511 C 0.82267 0.97984 0.27524 0.0
C1512 C 0.78969 1.00006 0.25908 0.0
C1513 C 0.82491 0.96772 0.2553 0.0
C1514 C 0.80972 0.97165 0.23741 0.0
C1515 C 0.77678 0.99208 0.2212 0.0
C1516 C 0.75914 1.00839 0.2231 0.0
C1517 C 0.79208 0.98785 0.23908 0.0
C1518 C 0.75714 1.02043 0.24313 0.0
C1519 C 0.77222 1.01631 0.2609 0.0
H1520 H 1.02244 0.7115 0.29264 0.0
H1521 H 0.04029 0.7382 0.2281 0.0
H1522 H 0.05367 0.77279 0.24555 0.0
H1523 H 0.06139 0.79493 0.27937 0.0
H1524 H 0.04474 0.76716 0.34382 0.0
H1525 H 0.02986 0.73349 0.32615 0.0
C1526 C 0.02943 0.72477 0.28236 0.0
C1527 C 0.03052 0.72212 0.25909 0.0
C1528 C 0.03732 0.74445 0.29251 0.0
C1529 C 0.03909 0.7398 0.24602 0.0
C1530 C 0.04689 0.75954 0.25601 0.0
C1531 C 0.05465 0.78147 0.28956 0.0
C1532 C 0.05423 0.78366 0.31293 0.0
C1533 C 0.04629 0.76196 0.27928 0.0
C1534 C 0.04503 0.76615 0.32583 0.0
C1535 C 0.03663 0.74677 0.31574 0.0
H1536 H 0.22048 0.02971 0.27122 0.0
H1537 H 0.2439 0.09311 0.2972 0.0
H1538 H 0.27911 0.09045 0.27482 0.0
H1539 H 0.30442 0.06923 0.2497 0.0
H1540 H 0.28119 1.00621 0.22291 0.0
H1541 H 0.24477 1.00966 0.24375 0.0
C1542 C 0.23315 0.04309 0.27181 0.0
C1543 C 0.22948 0.06155 0.28604 0.0
C1544 C 0.25353 0.04143 0.2589 0.0
C1545 C 0.24613 0.07872 0.28645 0.0
C1546 C 0.26639 0.07717 0.27372 0.0
C1547 C 0.29139 0.05623 0.24835 0.0
C1548 C 0.29569 0.03734 0.23494 0.0
C1549 C 0.27046 0.05843 0.26021 0.0
C1550 C 0.2784 1.02088 0.23315 0.0
C1551 C 0.25758 0.02284 0.24509 0.0
H1552 H 1.01572 0.69386 0.75455 0.0
H1553 H 0.03904 0.72848 0.81349 0.0
H1554 H 0.03079 0.76434 0.79586 0.0
H1555 H 1.01465 0.78578 0.76467 0.0
H1556 H 0.99034 0.75143 0.70603 0.0
H1557 H 1.0013 0.7155 0.72252 0.0
C1558 C 1.019 0.70926 0.76351 0.0
C1559 C 1.02783 0.70844 0.78537 0.0
C1560 C 1.01392 0.72984 0.75337 0.0
C1561 C 0.03245 0.72857 0.79661 0.0
C1562 C 1.02755 0.74911 0.7866 0.0
C1563 C 1.01168 0.77042 0.75555 0.0
C1564 C 1.00145 0.77121 0.73429 0.0
C1565 C 1.0179 0.74991 0.76517 0.0
C1566 C 0.99825 0.75123 0.72239 0.0
C1567 C 1.0044 0.73071 0.73186 0.0
H1568 H 0.24509 1.00978 0.73873 0.0
H1569 H 0.2098 0.95769 0.77512 0.0
H1570 H 0.23237 0.96674 0.80847 0.0
H1571 H 0.26303 0.98872 0.827 0.0
H1572 H 0.29817 0.04076 0.7903 0.0
H1573 H 0.27462 0.03254 0.75751 0.0
C1574 C 0.24227 1.00037 0.75393 0.0
C1575 C 0.2258 0.98295 0.75429 0.0
C1576 C 0.25528 1.0057 0.77307 0.0
C1577 C 0.22235 0.97112 0.77428 0.0
C1578 C 0.23528 0.9763 0.79339 0.0
C1579 C 0.26544 0.99842 0.81191 0.0
C1580 C 0.28247 1.01536 0.81123 0.0
C1581 C 0.2519 0.99348 0.79295 0.0
C1582 C 0.28527 0.02766 0.79142 0.0
C1583 C 0.27182 0.02291 0.77258 0.0
H1584 H 0.05171 0.25268 0.77071 0.0
H1585 H 0.04982 0.28081 0.70445 0.0
H1586 H 0.03071 0.31418 0.71878 0.0
H1587 H 1.01563 0.33581 0.75014 0.0
H1588 H 1.01976 0.30878 0.81677 0.0
H1589 H 0.03668 0.27444 0.80218 0.0
C1590 C 0.04735 0.26615 0.7594 0.0
C1591 C 0.05232 0.26415 0.73651 0.0
C1592 C 0.03665 0.28548 0.76779 0.0
C1593 C 0.04602 0.28169 0.72208 0.0
C1594 C 0.03519 0.30088 0.73028 0.0
C1595 C 1.02037 0.32254 0.76155 0.0
C1596 C 1.01649 0.32509 0.78458 0.0
C1597 C 0.03059 0.30301 0.75312 0.0
C1598 C 1.02227 0.30734 0.79897 0.0
C1599 C 0.03216 0.28771 0.79065 0.0
H1600 H 0.81119 0.03069 0.7326 0.0
H1601 H 0.85085 0.0773 0.77206 0.0
H1602 H 0.82647 0.06917 0.80444 0.0
H1603 H 0.79329 0.04943 0.82135 0.0
H1604 H 0.75369 1.00298 0.78158 0.0
H1605 H 0.77874 1.01038 0.74964 0.0
C1606 C 0.81458 0.03909 0.74827 0.0
C1607 C 0.83285 0.05468 0.74979 0.0
C1608 C 0.80049 0.03433 0.76683 0.0
C1609 C 0.83694 0.06527 0.77033 0.0
C1610 C 0.82298 0.06062 0.78888 0.0
C1611 C 0.7902 0.0408 0.80575 0.0
C1612 C 0.77153 0.02565 0.80396 0.0
C1613 C 0.80463 0.04525 0.78731 0.0
C1614 C 0.76785 1.01471 0.78353 0.0
C1615 C 0.78217 1.01897 0.76519 0.0
H1616 H 0.24577 0.31301 1.00994 0.0
H1617 H 0.20885 0.28131 0.95596 0.0
H1618 H 0.23269 0.24771 0.96041 0.0
H1619 H 0.26487 0.22772 0.97893 0.0
H1620 H 0.3015 0.2597 0.03297 0.0
H1621 H 0.27685 0.29267 0.02921 0.0
C1622 C 0.24285 0.29876 0.99914 0.0
C1623 C 0.22555 0.29981 0.98255 0.0
C1624 C 0.25661 0.27948 1.0018 0.0
C1625 C 0.22201 0.28105 0.96886 0.0
C1626 C 0.23568 0.26181 0.97138 0.0
C1627 C 0.2674 0.24183 0.98998 0.0
C1628 C 0.28515 0.24114 1.00619 0.0
C1629 C 0.25315 0.26088 0.9877 0.0
C1630 C 0.28806 0.25966 0.02035 0.0
C1631 C 0.27397 0.2786 1.01818 0.0
H1632 H 0.21577 0.75948 0.02736 0.0
H1633 H 0.24873 0.7262 0.08288 0.0
H1634 H 0.28161 0.75179 0.08034 0.0
H1635 H 0.30168 0.78279 0.06163 0.0
H1636 H 0.26884 0.81606 1.00607 0.0
H1637 H 0.23532 0.7913 1.00939 0.0
C1638 C 0.23006 0.75788 0.03902 0.0
C1639 C 0.22971 0.74084 0.05527 0.0
C1640 C 0.24904 0.77259 0.03739 0.0
C1641 C 0.24845 0.73911 0.07021 0.0
C1642 C 0.26733 0.75372 0.06873 0.0
C1643 C 0.28719 0.78469 0.05025 0.0
C1644 C 0.2879 0.80126 0.03355 0.0
C1645 C 0.26793 0.77038 0.05226 0.0
C1646 C 0.26885 0.80348 1.01906 0.0
C1647 C 0.24964 0.7893 0.02094 0.0
H1648 H 0.79929 0.29761 0.06495 0.0
H1649 H 0.86335 0.26646 0.04463 0.0
H1650 H 0.84149 0.23686 0.02562 0.0
H1651 H 0.80383 0.21953 1.01525 0.0
H1652 H 0.74015 0.25289 0.03349 0.0
H1653 H 0.76213 0.28192 0.0526 0.0
C1654 C 0.80849 0.28429 0.05644 0.0
C1655 C 0.83292 0.28406 0.05649 0.0
C1656 C 0.79582 0.26776 0.04503 0.0
C1657 C 0.84456 0.26696 0.04494 0.0
C1658 C 0.83205 0.25004 0.03407 0.0
C1659 C 0.7948 0.23323 0.0233 0.0
C1660 C 0.77031 0.23392 0.02294 0.0
C1661 C 0.80763 0.25022 0.03404 0.0
C1662 C 0.75893 0.25192 0.03334 0.0
C1663 C 0.7715 0.26852 0.04441 0.0
H1664 H 0.80233 0.73171 0.02555 0.0
H1665 H 0.84127 0.75826 0.97012 0.0
H1666 H 0.81977 0.79347 0.97278 0.0
H1667 H 0.78884 0.81627 0.99001 0.0
H1668 H 0.75005 0.78931 0.0454 0.0
H1669 H 0.77268 0.75488 0.04364 0.0
C1670 C 0.80621 0.74519 1.01404 0.0
C1671 C 0.82337 0.7422 0.99756 0.0
C1672 C 0.79378 0.7654 1.01567 0.0
C1673 C 0.82817 0.76 0.98295 0.0
C1674 C 0.81584 0.78017 0.98445 0.0
C1675 C 0.78545 0.80296 1.00184 0.0
C1676 C 0.76763 0.80548 1.01779 0.0
C1677 C 0.79847 0.78301 1.00065 0.0
C1678 C 0.76356 0.78795 0.03293 0.0
C1679 C 0.77649 0.76817 0.03191 0.0
H1680 H 0.4951 0.79585 0.81449 0.0
H1681 H 0.52322 0.7302 0.8014 0.0
H1682 H 0.54476 0.74497 0.76976 0.0
H1683 H 0.55684 0.77681 0.74665 0.0
H1684 H 0.53082 0.84281 0.76194 0.0
H1685 H 0.50743 0.82752 0.79191 0.0
C1686 C 0.50607 0.78471 0.80494 0.0
C1687 C 0.50752 0.76191 0.81063 0.0
C1688 C 0.51891 0.79339 0.78709 0.0
C1689 C 0.52146 0.74776 0.79748 0.0
C1690 C 0.53399 0.75624 0.77941 0.0
C1691 C 0.54624 0.78793 0.7566 0.0
C1692 C 0.54572 0.811 0.75182 0.0
C1693 C 0.53307 0.77909 0.77422 0.0
C1694 C 0.53145 0.82498 0.76482 0.0
C1695 C 0.51811 0.81627 0.78214 0.0
H1696 H 0.31891 0.51502 0.80976 0.0
H1697 H 0.35969 0.46832 0.7714 0.0
H1698 H 0.33463 0.47471 0.73902 0.0
H1699 H 0.30026 0.49269 0.722 0.0
H1700 H 0.2597 0.53926 0.76083 0.0
H1701 H 0.28562 0.53381 0.79253 0.0
C1702 C 0.32244 0.50624 0.79432 0.0
C1703 C 0.34119 0.4911 0.79313 0.0
C1704 C 0.30793 0.50997 0.77581 0.0
C1705 C 0.34544 0.48004 0.77287 0.0
C1706 C 0.33106 0.48367 0.75433 0.0
C1707 C 0.29713 0.50176 0.73734 0.0
C1708 C 0.27791 0.51635 0.73894 0.0
C1709 C 0.31212 0.49847 0.75566 0.0
C1710 C 0.27426 0.52793 0.75902 0.0
C1711 C 0.28908 0.52479 0.77723 0.0
H1712 H 0.53988 0.31213 0.76827 0.0
H1713 H 0.55273 0.26569 0.82174 0.0
H1714 H 0.52954 0.23717 0.80261 0.0
H1715 H 0.50672 0.22523 0.76988 0.0
H1716 H 0.49274 0.27236 0.71721 0.0
H1717 H 0.51506 0.30101 0.73682 0.0
C1718 C 0.53761 0.29572 0.77564 0.0
C1719 C 0.54817 0.2908 0.79618 0.0
C1720 C 0.52401 0.27966 0.76472 0.0
C1721 C 0.54473 0.26972 0.80591 0.0
C1722 C 0.53155 0.25347 0.79496 0.0
C1723 C 0.50856 0.24181 0.7628 0.0
C1724 C 0.49824 0.2467 0.74212 0.0
C1725 C 0.52128 0.2582 0.77426 0.0
C1726 C 0.50038 0.26831 0.7332 0.0
C1727 C 0.51327 0.28461 0.74432 0.0
H1728 H 0.75028 0.55079 0.70929 0.0
H1729 H 0.789 0.50166 0.74681 0.0
H1730 H 0.76401 0.50782 0.779 0.0
H1731 H 0.73307 0.52897 0.79745 0.0
H1732 H 0.69428 0.57831 0.7604 0.0
H1733 H 0.71728 0.57012 0.7271 0.0
C1734 C 0.7531 0.54121 0.7244 0.0
C1735 C 0.77168 0.52588 0.72558 0.0
C1736 C 0.73874 0.54499 0.74304 0.0
C1737 C 0.77495 0.51362 0.74536 0.0
C1738 C 0.76068 0.51718 0.76385 0.0
C1739 C 0.7295 0.53786 0.78207 0.0
C1740 C 0.71208 0.5544 0.78154 0.0
C1741 C 0.74284 0.53313 0.76303 0.0
C1742 C 0.70759 0.56554 0.76135 0.0
C1743 C 0.72079 0.5609 0.74229 0.0
H1744 H 0.55631 0.27758 0.28576 0.0
H1745 H 0.55256 0.21122 0.25763 0.0
H1746 H 0.53474 0.22631 0.2241 0.0
H1747 H 0.52126 0.25821 0.20233 0.0
H1748 H 0.5276 0.32495 0.22903 0.0
H1749 H 0.54313 0.30971 0.26365 0.0
C1750 C 0.55185 0.26637 0.27228 0.0
C1751 C 0.55592 0.24321 0.2744 0.0
C1752 C 0.54195 0.27521 0.25276 0.0
C1753 C 0.54947 0.22903 0.25676 0.0
C1754 C 0.53936 0.23768 0.23744 0.0
C1755 C 0.52622 0.26955 0.21554 0.0
C1756 C 0.52338 0.29279 0.21279 0.0
C1757 C 0.53569 0.26074 0.23521 0.0
C1758 C 0.52936 0.30702 0.23055 0.0
C1759 C 0.53844 0.29831 0.25036 0.0
H1760 H 0.7925 0.47885 0.29134 0.0
H1761 H 0.77042 0.5439 0.31417 0.0
H1762 H 0.736 0.54166 0.29048 0.0
H1763 H 0.71327 0.52219 0.26173 0.0
H1764 H 0.73582 0.45747 0.23837 0.0
H1765 H 0.76878 0.4586 0.26394 0.0
C1766 C 0.7801 0.4925 0.29129 0.0
C1767 C 0.7842 0.51159 0.30449 0.0
C1768 C 0.7604 0.49119 0.27746 0.0
C1769 C 0.76782 0.52904 0.30418 0.0
C1770 C 0.74811 0.52778 0.29059 0.0
C1771 C 0.72523 0.5082 0.26236 0.0
C1772 C 0.72201 0.48979 0.24802 0.0
C1773 C 0.74437 0.50907 0.27694 0.0
C1774 C 0.73779 0.47187 0.24914 0.0
C1775 C 0.75673 0.47252 0.26374 0.0
H1776 H 0.53314 0.79729 0.21236 0.0
H1777 H 0.52311 0.73225 0.24193 0.0
H1778 H 0.50807 0.74976 0.27579 0.0
H1779 H 0.49689 0.78372 0.29664 0.0
H1780 H 0.50556 0.84836 0.26571 0.0
H1781 H 0.52174 0.83076 0.23266 0.0
C1782 C 0.52746 0.78685 0.22607 0.0
C1783 C 0.52913 0.76345 0.22443 0.0
C1784 C 0.5185 0.79699 0.24528 0.0
C1785 C 0.52223 0.7503 0.24271 0.0
C1786 C 0.51345 0.76031 0.26205 0.0
C1787 C 0.50213 0.79393 0.2826 0.0
C1788 C 0.50006 0.81738 0.28378 0.0
C1789 C 0.51132 0.78366 0.26344 0.0
C1790 C 0.50726 0.83034 0.26549 0.0
C1791 C 0.51642 0.82028 0.24648 0.0
H1792 H 0.30409 0.53068 0.24245 0.0
H1793 H 0.35001 0.56768 0.28559 0.0
H1794 H 0.32541 0.55857 0.31764 0.0
H1795 H 0.28998 0.54117 0.33313 0.0
H1796 H 0.24444 0.50425 0.28944 0.0
H1797 H 0.26984 0.51226 0.25796 0.0
C1798 C 0.30884 0.53674 0.25886 0.0
C1799 C 0.32887 0.54998 0.26153 0.0
C1800 C 0.29461 0.53148 0.27715 0.0
C1801 C 0.33472 0.55749 0.283 0.0
C1802 C 0.32062 0.55232 0.30134 0.0
C1803 C 0.28565 0.53477 0.31675 0.0
C1804 C 0.26518 0.52217 0.31374 0.0
C1805 C 0.30038 0.53949 0.29858 0.0
C1806 C 0.25998 0.514 0.29234 0.0
C1807 C 0.27451 0.5186 0.27427 0.0
H1808 H 0.76116 0.725 0.48385 0.0
H1809 H 0.80259 0.76211 0.53099 0.0
H1810 H 0.77905 0.79535 0.52432 0.0
H1811 H 0.74757 0.8143 0.50447 0.0
H1812 H 0.70571 0.77773 0.45735 0.0
H1813 H 0.72849 0.74389 0.46473 0.0
C1814 C 0.76499 0.74032 0.49275 0.0
C1815 C 0.78377 0.74095 0.50788 0.0
C1816 C 0.75134 0.75952 0.4888 0.0
C1817 C 0.78835 0.76102 0.51926 0.0
C1818 C 0.77489 0.7801 0.51542 0.0
C1819 C 0.74332 0.79895 0.49579 0.0
C1820 C 0.72495 0.79867 0.48026 0.0
C1821 C 0.75648 0.7796 0.50012 0.0
C1822 C 0.71972 0.77849 0.46936 0.0
C1823 C 0.73279 0.75913 0.47356 0.0
H1824 H 0.73078 0.25245 0.52242 0.0
H1825 H 0.72719 0.26411 0.59325 0.0
H1826 H 0.75574 0.29423 0.5898 0.0
H1827 H 0.78347 0.31577 0.56687 0.0
H1828 H 0.78571 0.30488 0.49581 0.0
H1829 H 0.75585 0.27613 0.49913 0.0
C1830 C 0.73613 0.26167 0.5371 0.0
C1831 C 0.72701 0.25588 0.55811 0.0
C1832 C 0.75237 0.2791 0.53495 0.0
C1833 C 0.7339 0.26822 0.5769 0.0
C1834 C 0.75031 0.28539 0.57494 0.0
C1835 C 0.77729 0.30724 0.55208 0.0
C1836 C 0.78702 0.3124 0.53113 0.0
C1837 C 0.75993 0.29076 0.55408 0.0
C1838 C 0.77859 0.30131 0.51213 0.0
C1839 C 0.76155 0.28477 0.51403 0.0
H1840 H 0.30852 0.79945 0.52815 0.0
H1841 H 0.34691 0.76249 0.57776 0.0
H1842 H 0.32277 0.72953 0.5707 0.0
H1843 H 0.28953 0.71176 0.55152 0.0
H1844 H 0.2516 0.74921 0.50185 0.0
H1845 H 0.27692 0.78129 0.50777 0.0
C1846 C 0.31171 0.78419 0.53743 0.0
C1847 C 0.32945 0.78358 0.55362 0.0
C1848 C 0.29781 0.76533 0.53325 0.0
C1849 C 0.33339 0.76351 0.56525 0.0
C1850 C 0.31954 0.74465 0.56123 0.0
C1851 C 0.28691 0.72685 0.54182 0.0
C1852 C 0.26851 0.72798 0.52628 0.0
C1853 C 0.30154 0.74542 0.5454 0.0
C1854 C 0.26551 0.74775 0.51391 0.0
C1855 C 0.27997 0.76619 0.51734 0.0
H1856 H 0.30385 0.32614 0.50188 0.0
H1857 H 0.26267 0.28515 0.54597 0.0
H1858 H 0.28705 0.2529 0.53751 0.0
H1859 H 0.31899 0.23586 0.5166 0.0
H1860 H 0.36025 0.27638 0.47223 0.0
H1861 H 0.33692 0.30922 0.48184 0.0
C1862 C 0.30031 0.31021 0.50981 0.0
C1863 C 0.28134 0.30816 0.52454 0.0
C1864 C 0.31434 0.29157 0.50472 0.0
C1865 C 0.27707 0.2873 0.53456 0.0
C1866 C 0.29099 0.26879 0.5297 0.0
C1867 C 0.32298 0.25186 0.50903 0.0
C1868 C 0.34134 0.25355 0.4936 0.0
C1869 C 0.30949 0.27065 0.51461 0.0
C1870 C 0.34624 0.27453 0.48411 0.0
C1871 C 0.33288 0.29334 0.48961 0.0
H1872 H 0.13876 0.3364 0.12181 0.0
H1873 H 0.09827 0.39698 0.12086 0.0
H1874 H 0.1093 0.40355 0.08197 0.0
H1875 H 0.1316 0.39255 0.04867 0.0
H1876 H 0.17103 0.33131 0.04932 0.0
H1877 H 0.15927 0.32433 0.08791 0.0
C1878 C 0.13243 0.35104 0.11304 0.0
C1879 C 0.11794 0.36633 0.12415 0.0
C1880 C 0.13866 0.35453 0.09071 0.0
C1881 C 0.10939 0.385 0.11256 0.0
C1882 C 0.11578 0.38878 0.09041 0.0
C1883 C 0.1376 0.37772 0.05734 0.0
C1884 C 0.15229 0.36254 0.04632 0.0
C1885 C 0.13058 0.37376 0.07939 0.0
C1886 C 0.15963 0.34314 0.05748 0.0
C1887 C 0.153 0.33923 0.07954 0.0
H1888 H 0.68631 0.06153 0.1003 0.0
H1889 H 0.72732 0.09111 0.15276 0.0
H1890 H 0.73272 0.12472 0.1303 0.0
H1891 H 0.7239 0.14674 0.09666 0.0
H1892 H 0.68422 0.11707 0.04356 0.0
H1893 H 0.68036 0.08245 0.06518 0.0
C1894 C 0.69661 0.07525 0.10674 0.0
C1895 C 0.70623 0.0738 0.12831 0.0
C1896 C 0.69979 0.09458 0.09363 0.0
C1897 C 0.71971 0.09169 0.13625 0.0
C1898 C 0.72273 0.111 0.12345 0.0
C1899 C 0.71447 0.13264 0.08984 0.0
C1900 C 0.70413 0.13452 0.06866 0.0
C1901 C 0.71253 0.11279 0.10229 0.0
C1902 C 0.69236 0.11599 0.0598 0.0
C1903 C 0.69006 0.09626 0.07221 0.0
H1904 H 0.94467 0.65522 0.12999 0.0
H1905 H 0.94612 0.72726 0.12881 0.0
H1906 H 0.92602 0.72731 0.09284 0.0
H1907 H 0.9068 0.70661 0.06216 0.0
H1908 H 0.90462 0.63467 0.06456 0.0
H1909 H 0.92662 0.63474 0.09937 0.0
C1910 C 0.94089 0.67093 0.12175 0.0
C1911 C 0.94694 0.69119 0.13207 0.0
C1912 C 0.92922 0.67081 0.10123 0.0
C1913 C 0.94144 0.71143 0.12134 0.0
C1914 C 0.93006 0.71146 0.10071 0.0
C1915 C 0.91149 0.69102 0.07022 0.0
C1916 C 0.90416 0.67065 0.0609 0.0
C1917 C 0.92372 0.69124 0.09055 0.0
C1918 C 0.90998 0.65051 0.07159 0.0
C1919 C 0.92253 0.65056 0.09145 0.0
H1920 H 0.37049 0.90583 0.10165 0.0
H1921 H 0.30691 0.91881 0.06592 0.0
H1922 H 0.29967 0.95158 0.08925 0.0
H1923 H 0.31099 0.97612 0.1206 0.0
H1924 H 0.37444 0.96217 0.15639 0.0
H1925 H 0.38184 0.9301 0.13248 0.0
C1926 C 0.35491 0.91564 0.09904 0.0
C1927 C 0.33922 0.90964 0.08206 0.0
C1928 C 0.35075 0.93433 0.11264 0.0
C1929 C 0.31942 0.92303 0.07868 0.0
C1930 C 0.31518 0.94173 0.09215 0.0
C1931 C 0.32644 0.96608 0.12317 0.0
C1932 C 0.34207 0.97163 0.14039 0.0
C1933 C 0.33067 0.94749 0.10928 0.0
C1934 C 0.36204 0.95838 0.14336 0.0
C1935 C 0.36633 0.93998 0.12966 0.0
H1936 H 0.09862 0.70011 0.92791 0.0
H1937 H 0.13087 0.64301 0.8968 0.0
H1938 H 0.15547 0.63758 0.92954 0.0
H1939 H 0.16757 0.64891 0.96696 0.0
H1940 H 0.1359 0.70636 0.99801 0.0
H1941 H 0.11107 0.71167 0.96541 0.0
C1942 C 0.11123 0.68666 0.92818 0.0
C1943 C 0.11298 0.67202 0.90988 0.0
C1944 C 0.12524 0.68359 0.94711 0.0
C1945 C 0.12908 0.65438 0.91071 0.0
C1946 C 0.14317 0.65131 0.9294 0.0
C1947 C 0.15541 0.66273 0.96655 0.0
C1948 C 0.15372 0.67726 0.98493 0.0
C1949 C 0.14136 0.66578 0.9477 0.0
C1950 C 0.13743 0.69477 0.98425 0.0
C1951 C 0.12334 0.69792 0.96553 0.0
H1952 H 0.35643 0.09111 0.89081 0.0
H1953 H 0.29436 0.06737 0.92328 0.0
H1954 H 0.29719 0.09759 0.95064 0.0
H1955 H 0.31705 0.13155 0.96494 0.0
H1956 H 0.37916 0.15446 0.932 0.0
H1957 H 0.37654 0.12389 0.9054 0.0
C1958 C 0.34346 0.09249 0.90383 0.0
C1959 C 0.32514 0.07696 0.90484 0.0
C1960 C 0.34521 0.10986 0.91952 0.0
C1961 C 0.30862 0.07907 0.92199 0.0
C1962 C 0.31025 0.09636 0.93769 0.0
C1963 C 0.3301 0.12967 0.95208 0.0
C1964 C 0.34815 0.14548 0.9504 0.0
C1965 C 0.32846 0.11193 0.93662 0.0
C1966 C 0.36485 0.14285 0.93349 0.0
C1967 C 0.36343 0.12528 0.91828 0.0
H1968 H 0.90009 0.33345 0.98163 0.0
H1969 H 0.91388 0.4036 0.99168 0.0
H1970 H 0.92917 0.40661 0.95398 0.0
H1971 H 0.93809 0.38965 0.91799 0.0
H1972 H 0.9252 0.31941 0.90757 0.0
H1973 H 0.90996 0.31615 0.94544 0.0
C1974 C 0.90665 0.34932 0.97562 0.0
C1975 C 0.90569 0.36829 0.98948 0.0
C1976 C 0.91546 0.35097 0.95379 0.0
C1977 C 0.91403 0.38881 0.98131 0.0
C1978 C 0.9229 0.39054 0.95975 0.0
C1979 C 0.93223 0.37354 0.92402 0.0
C1980 C 0.93289 0.35481 0.90986 0.0
C1981 C 0.92361 0.37177 0.94582 0.0
C1982 C 0.92469 0.33419 0.91795 0.0
C1983 C 0.9161 0.33227 0.93968 0.0
H1984 H 0.72741 0.89041 0.93146 0.0
H1985 H 0.67922 0.91858 0.97862 0.0
H1986 H 0.67534 0.95213 0.95547 0.0
H1987 H 0.68469 0.97291 0.92113 0.0
H1988 H 0.73418 0.94535 0.87469 0.0
H1989 H 0.73857 0.91221 0.89819 0.0
C1990 C 0.71604 0.9039 0.93661 0.0
C1991 C 0.70346 0.90193 0.95664 0.0
C1992 C 0.71415 0.92325 0.92333 0.0
C1993 C 0.68914 0.91973 0.96334 0.0
C1994 C 0.68686 0.93886 0.95005 0.0
C1995 C 0.69652 0.9597 0.91618 0.0
C1996 C 0.70898 0.9616 0.89606 0.0
C1997 C 0.69914 0.94074 0.92992 0.0
C1998 C 0.72441 0.94439 0.89007 0.0
C1999 C 0.72686 0.92537 0.90348 0.0
H2000 H 0.13861 0.14444 0.37258 0.0
H2001 H 0.11324 0.09316 0.3283 0.0
H2002 H 0.07363 0.10731 0.3328 0.0
H2003 H 0.04639 0.13449 0.34888 0.0
H2004 H 0.07138 0.18485 0.39437 0.0
H2005 H 0.11103 0.17065 0.38998 0.0
C2006 C 0.12443 0.13639 0.36382 0.0
C2007 C 0.12894 0.11787 0.34991 0.0
C2008 C 0.10167 0.14438 0.36681 0.0
C2009 C 0.1103 0.10744 0.33902 0.0
C2010 C 0.08764 0.11554 0.3416 0.0
C2011 C 0.06048 0.14237 0.3579 0.0
C2012 C 0.05591 0.16083 0.37186 0.0
C2013 C 0.08315 0.13402 0.3554 0.0
C2014 C 0.07438 0.17063 0.38358 0.0
C2015 C 0.09706 0.16256 0.38099 0.0
H2016 H 0.93908 0.09986 0.3964 0.0
H2017 H 0.94735 0.13745 0.33541 0.0
H2018 H 0.93377 0.10562 0.31398 0.0
H2019 H 0.91967 0.06741 0.31239 0.0
H2020 H 0.90834 0.03045 0.37332 0.0
H2021 H 0.92329 0.06177 0.39483 0.0
C2022 C 0.93767 0.10128 0.37847 0.0
C2023 C 0.94444 0.12116 0.36765 0.0
C2024 C 0.92945 0.08295 0.36615 0.0
C2025 C 0.94273 0.12237 0.34429 0.0
C2026 C 0.93481 0.10416 0.33196 0.0
C2027 C 0.92009 0.0661 0.33036 0.0
C2028 C 0.91265 0.04638 0.34103 0.0
C2029 C 0.92816 0.08438 0.34271 0.0
C2030 C 0.91406 0.04516 0.36444 0.0
C2031 C 0.92249 0.0632 0.37684 0.0
H2032 H 0.93835 0.92527 0.37229 0.0
H2033 H 0.93933 0.92346 0.30039 0.0
H2034 H 0.97483 0.90097 0.30133 0.0
H2035 H 1.00622 0.88287 0.32252 0.0
H2036 H 1.00485 0.88403 0.39442 0.0
H2037 H 0.96879 0.90569 0.3935 0.0
C2038 C 0.94626 0.91992 0.35679 0.0
C2039 C 0.9362 0.92621 0.33626 0.0
C2040 C 0.96663 0.90692 0.35746 0.0
C2041 C 0.94664 0.91891 0.3164 0.0
C2042 C 0.96699 0.90609 0.31694 0.0
C2043 C 0.99805 0.88781 0.33803 0.0
C2044 C 1.00839 0.88192 0.35854 0.0
C2045 C 0.97725 0.90016 0.33736 0.0
C2046 C 0.99734 0.88831 0.37842 0.0
C2047 C 0.97673 0.90074 0.37789 0.0
H2048 H 0.14201 0.99477 0.34339 0.0
H2049 H 0.18687 0.98789 0.4005 0.0
H2050 H 0.16905 0.95215 0.40973 0.0
H2051 H 0.14312 0.92155 0.40001 0.0
H2052 H 0.09856 0.92693 0.34263 0.0
H2053 H 0.11336 0.9647 0.33526 0.0
C2054 C 0.14751 0.98556 0.35803 0.0
C2055 C 0.16593 0.99376 0.37109 0.0
C2056 C 0.13734 0.96473 0.36309 0.0
C2057 C 0.17302 0.98168 0.39 0.0
C2058 C 0.16282 0.96129 0.39531 0.0
C2059 C 0.13664 0.93099 0.38589 0.0
C2060 C 0.12009 0.92136 0.37168 0.0
C2061 C 0.14542 0.9524 0.38167 0.0
C2062 C 0.11133 0.93401 0.3538 0.0
C2063 C 0.1199 0.95554 0.34953 0.0
H2064 H 0.03631 0.90091 0.71007 0.0
H2065 H 0.05875 0.84905 0.66497 0.0
H2066 H 0.09892 0.86176 0.66859 0.0
H2067 H 0.12775 0.8872 0.68507 0.0
H2068 H 0.10508 0.9402 0.72869 0.0
H2069 H 0.06491 0.92731 0.72531 0.0
C2070 C 0.04996 0.89241 0.70095 0.0
C2071 C 0.04449 0.87396 0.68732 0.0
C2072 C 0.073 0.8999 0.70302 0.0
C2073 C 0.06241 0.86331 0.67549 0.0
C2074 C 0.08542 0.87051 0.67766 0.0
C2075 C 0.11404 0.89584 0.69399 0.0
C2076 C 0.11945 0.91448 0.70737 0.0
C2077 C 0.09094 0.88866 0.69152 0.0
C2078 C 0.10141 0.92575 0.71841 0.0
C2079 C 0.07844 0.91841 0.71643 0.0
H2080 H 0.13475 0.04494 0.65975 0.0
H2081 H 0.17387 0.04639 0.72097 0.0
H2082 H 0.16377 0.08579 0.7262 0.0
H2083 H 0.14456 0.12003 0.71278 0.0
H2084 H 0.10522 0.11837 0.65168 0.0
H2085 H 0.11462 0.07879 0.64692 0.0
C2086 C 0.14114 0.05393 0.67416 0.0
C2087 C 0.15516 0.04284 0.68987 0.0
C2088 C 0.13523 0.0765 0.67705 0.0
C2089 C 0.16293 0.05454 0.70873 0.0
C2090 C 0.15727 0.07708 0.71166 0.0
C2091 C 0.13818 0.111 0.69838 0.0
C2092 C 0.12435 0.12212 0.68252 0.0
C2093 C 0.14358 0.08826 0.69583 0.0
C2094 C 0.11577 0.11014 0.66417 0.0
C2095 C 0.12122 0.08755 0.6614 0.0
H2096 H 1.02405 0.13689 0.71424 0.0
H2097 H 1.00335 0.18753 0.66695 0.0
H2098 H 0.96323 0.17438 0.66886 0.0
H2099 H 0.93392 0.14886 0.68435 0.0
H2100 H 0.95491 0.09685 0.72994 0.0
H2101 H 0.99503 0.11027 0.72846 0.0
C2102 C 1.01078 0.14501 0.70429 0.0
C2103 C 1.0167 0.16324 0.69053 0.0
C2104 C 0.98778 0.13723 0.70531 0.0
C2105 C 0.99931 0.17343 0.6776 0.0
C2106 C 0.97633 0.16599 0.67878 0.0
C2107 C 0.94725 0.14057 0.6941 0.0
C2108 C 0.9414 0.12206 0.70749 0.0
C2109 C 0.97034 0.14802 0.69269 0.0
C2110 C 0.95895 0.11119 0.71963 0.0
C2111 C 0.98188 0.11884 0.71874 0.0
H2112 H 0.91929 0.91697 0.71006 0.0
H2113 H 0.95361 0.91772 0.64622 0.0
H2114 H 0.94394 0.95728 0.64163 0.0
H2115 H 0.92492 0.99133 0.65544 0.0
H2116 H 0.89051 0.99053 0.71923 0.0
H2117 H 0.90112 0.95127 0.72428 0.0
C2118 C 0.9245 0.92576 0.69508 0.0
C2119 C 0.93697 0.9144 0.67841 0.0
C2120 C 0.91892 0.94846 0.6926 0.0
C2121 C 0.9441 0.92614 0.65932 0.0
C2122 C 0.93849 0.94871 0.65666 0.0
C2123 C 0.91964 0.98252 0.67038 0.0
C2124 C 0.90682 0.99378 0.68687 0.0
C2125 C 0.92577 0.95998 0.67312 0.0
C2126 C 0.90053 0.98229 0.70638 0.0
C2127 C 0.90647 0.95981 0.70921 0.0
H2128 H 0.33543 0.11406 0.14322 0.0
H2129 H 0.3734 0.06094 0.11133 0.0
H2130 H 0.37374 0.0821 0.07627 0.0
H2131 H 0.36508 0.11682 0.05537 0.0
H2132 H 0.32568 0.1692 0.08728 0.0
H2133 H 0.32398 0.14725 0.12156 0.0
C2134 C 0.34372 0.10713 0.12855 0.0
C2135 C 0.35462 0.08608 0.1299 0.0
C2136 C 0.34363 0.11931 0.10848 0.0
C2137 C 0.36488 0.07707 0.11067 0.0
C2138 C 0.36517 0.08923 0.09068 0.0
C2139 C 0.35597 0.12336 0.06977 0.0
C2140 C 0.34569 0.14476 0.06874 0.0
C2141 C 0.35487 0.11052 0.08947 0.0
C2142 C 0.33374 0.15283 0.08752 0.0
C2143 C 0.33283 0.14031 0.1072 0.0
H2144 H 0.32585 0.93811 0.89504 0.0
H2145 H 0.36778 0.98889 0.92607 0.0
H2146 H 0.37011 0.96643 0.9602 0.0
H2147 H 0.36152 0.93152 0.98058 0.0
H2148 H 0.31849 0.88135 0.9496 0.0
H2149 H 0.31531 0.90435 0.91611 0.0
C2150 C 0.33553 0.94421 0.90927 0.0
C2151 C 0.34684 0.96502 0.90796 0.0
C2152 C 0.33662 0.93129 0.92882 0.0
C2153 C 0.35889 0.97297 0.9267 0.0
C2154 C 0.3603 0.96007 0.94616 0.0
C2155 C 0.35136 0.92566 0.96653 0.0
C2156 C 0.3404 0.90463 0.96759 0.0
C2157 C 0.34943 0.93909 0.94733 0.0
C2158 C 0.3271 0.89743 0.9493 0.0
C2159 C 0.32533 0.91056 0.93009 0.0
H2160 H 0.04946 0.34076 0.88021 0.0
H2161 H 0.03786 0.4114 0.88984 0.0
H2162 H 0.07158 0.41315 0.91463 0.0
H2163 H 0.1042 0.39458 0.93357 0.0
H2164 H 0.11644 0.32418 0.9229 0.0
H2165 H 0.08247 0.32238 0.8985 0.0
C2166 C 0.05425 0.35658 0.88773 0.0
C2167 C 0.04105 0.37593 0.88322 0.0
C2168 C 0.07372 0.35747 0.9018 0.0
C2169 C 0.04769 0.39628 0.89299 0.0
C2170 C 0.06695 0.39727 0.9072 0.0
C2171 C 0.09941 0.37879 0.926 0.0
C2172 C 0.11281 0.35948 0.9302 0.0
C2173 C 0.08005 0.37796 0.91176 0.0
C2174 C 0.10645 0.33926 0.92 0.0
C2175 C 0.08702 0.33824 0.90604 0.0
H2176 H 0.68954 0.11648 0.9688 0.0
H2177 H 0.73531 0.16451 0.93817 0.0
H2178 H 0.74036 0.13971 0.90607 0.0
H2179 H 0.73005 0.10516 0.88582 0.0
H2180 H 0.68568 0.05651 0.91716 0.0
H2181 H 0.68194 0.0806 0.94999 0.0
C2182 C 0.70074 0.12147 0.95516 0.0
C2183 C 0.71186 0.14244 0.95579 0.0
C2184 C 0.70375 0.107 0.93688 0.0
C2185 C 0.72657 0.14849 0.93812 0.0
C2186 C 0.72938 0.13435 0.91972 0.0
C2187 C 0.71964 0.09985 0.89989 0.0
C2188 C 0.70795 0.07918 0.899 0.0
C2189 C 0.71778 0.11371 0.91877 0.0
C2190 C 0.69487 0.07228 0.9175 0.0
C2191 C 0.69265 0.08611 0.9362 0.0
H2192 H 0.98753 0.69191 0.88702 0.0
H2193 H 0.99952 0.62129 0.89646 0.0
H2194 H 0.96866 0.62023 0.92459 0.0
H2195 H 0.93813 0.63947 0.94631 0.0
H2196 H 0.92651 0.71011 0.93627 0.0
H2197 H 0.95757 0.71101 0.90863 0.0
C2198 C 0.98346 0.6762 0.89515 0.0
C2199 C 0.99588 0.65666 0.88952 0.0
C2200 C 0.9658 0.67576 0.91129 0.0
C2201 C 0.99026 0.63656 0.90037 0.0
C2202 C 0.97263 0.63597 0.9165 0.0
C2203 C 0.94245 0.65511 0.93818 0.0
C2204 C 0.92993 0.67473 0.94346 0.0
C2205 C 0.96029 0.65549 0.9221 0.0
C2206 C 0.93578 0.69477 0.93261 0.0
C2207 C 0.95354 0.6953 0.91675 0.0
H2208 H 0.70276 0.96886 0.11408 0.0
H2209 H 0.69093 0.92754 0.17184 0.0
H2210 H 0.69783 0.89398 0.14985 0.0
H2211 H 0.70524 0.87608 0.114 0.0
H2212 H 0.71613 0.9166 0.05544 0.0
H2213 H 0.71183 0.95056 0.07783 0.0
C2214 C 0.70197 0.9525 0.12181 0.0
C2215 C 0.69609 0.95073 0.14453 0.0
C2216 C 0.70571 0.93306 0.10889 0.0
C2217 C 0.69501 0.92938 0.15433 0.0
C2218 C 0.69905 0.91015 0.14177 0.0
C2219 C 0.70687 0.8923 0.10609 0.0
C2220 C 0.71096 0.89367 0.083 0.0
C2221 C 0.70406 0.91174 0.11899 0.0
C2222 C 0.71296 0.91496 0.07315 0.0
C2223 C 0.71047 0.93443 0.08597 0.0
H2224 H 0.06544 0.7023 0.15336 0.0
H2225 H 0.05351 0.63107 0.1542 0.0
H2226 H 0.08575 0.62564 0.1282 0.0
H2227 H 0.11742 0.64111 0.10541 0.0
H2228 H 0.1297 0.71229 0.10526 0.0
H2229 H 0.0971 0.71772 0.13075 0.0
C2230 C 0.06984 0.68554 0.14789 0.0
C2231 C 0.05699 0.6671 0.15578 0.0
C2232 C 0.08843 0.68255 0.133 0.0
C2233 C 0.06307 0.64556 0.14848 0.0
C2234 C 0.0815 0.64245 0.13357 0.0
C2235 C 0.11293 0.65785 0.11084 0.0
C2236 C 0.12602 0.67629 0.10332 0.0
C2237 C 0.09429 0.66082 0.12572 0.0
C2238 C 0.11998 0.69781 0.11072 0.0
C2239 C 0.10133 0.70092 0.12534 0.0
H2240 H 1.02226 0.33325 0.13023 0.0
H2241 H 0.99271 0.36523 0.18804 0.0
H2242 H 0.95366 0.35972 0.17288 0.0
H2243 H 0.9278 0.345 0.1435 0.0
H2244 H 0.9575 0.31573 0.08439 0.0
H2245 H 0.99658 0.32081 0.09975 0.0
C2246 C 1.00727 0.33913 0.13946 0.0
C2247 C 1.01042 0.34955 0.16032 0.0
C2248 C 0.98489 0.33618 0.13047 0.0
C2249 C 0.99082 0.35727 0.17194 0.0
C2250 C 0.96847 0.35399 0.16332 0.0
C2251 C 0.94285 0.33959 0.13407 0.0
C2252 C 0.93977 0.32962 0.113 0.0
C2253 C 0.96527 0.34327 0.14271 0.0
C2254 C 0.95942 0.32325 0.1007 0.0
C2255 C 0.98175 0.32621 0.10948 0.0
H2256 H 0.63281 0.86131 0.53475 0.0
H2257 H 0.69813 0.8915 0.5525 0.0
H2258 H 0.68718 0.89105 0.59181 0.0
H2259 H 0.65921 0.88179 0.62116 0.0
H2260 H 0.59344 0.85236 0.60377 0.0
H2261 H 0.60421 0.8529 0.56428 0.0
C2262 C 0.64463 0.86767 0.54728 0.0
C2263 C 0.66625 0.87638 0.54077 0.0
C2264 C 0.63809 0.86755 0.56986 0.0
C2265 C 0.68131 0.88491 0.5571 0.0
C2266 C 0.6751 0.88456 0.57957 0.0
C2267 C 0.64731 0.87538 0.60872 0.0
C2268 C 0.62564 0.86691 0.61535 0.0
C2269 C 0.65357 0.87589 0.58614 0.0
C2270 C 0.61016 0.85909 0.59903 0.0
C2271 C 0.61637 0.85929 0.57649 0.0
H2272 H 0.19271 0.56323 0.61888 0.0
H2273 H 0.23511 0.59705 0.66761 0.0
H2274 H 0.23725 0.62988 0.64345 0.0
H2275 H 0.22589 0.64959 0.60909 0.0
H2276 H 0.18428 0.61572 0.55995 0.0
H2277 H 0.18324 0.58224 0.58348 0.0
C2278 C 0.20251 0.57774 0.62419 0.0
C2279 C 0.2136 0.57766 0.64517 0.0
C2280 C 0.20379 0.59658 0.61012 0.0
C2281 C 0.22641 0.59658 0.65161 0.0
C2282 C 0.22758 0.61542 0.63781 0.0
C2283 C 0.21655 0.6349 0.60356 0.0
C2284 C 0.20496 0.63526 0.58286 0.0
C2285 C 0.21613 0.61571 0.61715 0.0
C2286 C 0.19339 0.61587 0.57573 0.0
C2287 C 0.1927 0.59677 0.58925 0.0
H2288 H 0.41419 0.2007 0.55471 0.0
H2289 H 0.41431 0.13083 0.5371 0.0
H2290 H 0.43066 0.12121 0.57331 0.0
H2291 H 0.44364 0.13233 0.61028 0.0
H2292 H 0.44287 0.20187 0.62911 0.0
H2293 H 0.42857 0.21204 0.59202 0.0
C2294 C 0.41809 0.18345 0.55878 0.0
C2295 C 0.41285 0.16648 0.54335 0.0
C2296 C 0.42733 0.17798 0.57983 0.0
C2297 C 0.41782 0.14414 0.54884 0.0
C2298 C 0.42724 0.13863 0.56951 0.0
C2299 C 0.44016 0.14971 0.6064 0.0
C2300 C 0.44408 0.16626 0.62258 0.0
C2301 C 0.43172 0.15536 0.58523 0.0
C2302 C 0.4401 0.18878 0.61696 0.0
C2303 C 0.4318 0.19459 0.59578 0.0
H2304 H 0.86611 0.40539 0.59809 0.0
H2305 H 0.81011 0.42227 0.55346 0.0
H2306 H 0.79731 0.4517 0.57902 0.0
H2307 H 0.80319 0.47382 0.61349 0.0
H2308 H 0.85991 0.45661 0.6574 0.0
H2309 H 0.87133 0.42643 0.63258 0.0
C2310 C 0.85118 0.41556 0.59384 0.0
C2311 C 0.83925 0.41167 0.57373 0.0
C2312 C 0.84408 0.43255 0.60849 0.0
C2313 C 0.81957 0.42473 0.56884 0.0
C2314 C 0.81233 0.44169 0.58341 0.0
C2315 C 0.81799 0.46342 0.61767 0.0
C2316 C 0.83069 0.46768 0.63733 0.0
C2317 C 0.8246 0.44593 0.60321 0.0
C2318 C 0.8498 0.4539 0.64243 0.0
C2319 C 0.85639 0.43656 0.62822 0.0
H2320 H 0.64252 0.21703 0.41926 0.0
H2321 H 0.60799 0.15315 0.41855 0.0
H2322 H 0.61646 0.14814 0.45819 0.0
H2323 H 0.63476 0.16143 0.49268 0.0
H2324 H 0.6692 0.22536 0.49356 0.0
H2325 H 0.6595 0.23103 0.45425 0.0
C2326 C 0.63699 0.20197 0.42778 0.0
C2327 C 0.62485 0.18537 0.41597 0.0
C2328 C 0.64181 0.1993 0.45058 0.0
C2329 C 0.61728 0.16617 0.42732 0.0
C2330 C 0.62219 0.16328 0.44994 0.0
C2331 C 0.64017 0.17658 0.48423 0.0
C2332 C 0.65283 0.19288 0.49595 0.0
C2333 C 0.6346 0.17965 0.46167 0.0
C2334 C 0.65931 0.21265 0.48494 0.0
C2335 C 0.65391 0.21581 0.46244 0.0
H2336 H 0.83155 0.56621 0.42796 0.0
H2337 H 0.84355 0.60473 0.3682 0.0
H2338 H 0.84702 0.63875 0.39044 0.0
H2339 H 0.84699 0.65752 0.42678 0.0
H2340 H 0.83644 0.61877 0.48667 0.0
H2341 H 0.83167 0.58505 0.46437 0.0
C2342 C 0.83485 0.58204 0.41974 0.0
C2343 C 0.83727 0.58282 0.39637 0.0
C2344 C 0.83702 0.60157 0.43266 0.0
C2345 C 0.84162 0.60355 0.38611 0.0
C2346 C 0.84361 0.62305 0.39884 0.0
C2347 C 0.84386 0.64173 0.43508 0.0
C2348 C 0.84216 0.64091 0.45854 0.0
C2349 C 0.84146 0.62225 0.42214 0.0
C2350 C 0.83761 0.62017 0.46873 0.0
C2351 C 0.83502 0.60076 0.45596 0.0
H2352 H 0.41191 0.83742 0.48948 0.0
H2353 H 0.39618 0.90671 0.50246 0.0
H2354 H 0.41347 0.91748 0.46706 0.0
H2355 H 0.43074 0.9072 0.43152 0.0
H2356 H 0.44645 0.83829 0.41722 0.0
H2357 H 0.43203 0.82733 0.45417 0.0
C2358 C 0.41262 0.85486 0.48462 0.0
C2359 C 0.40245 0.87122 0.4984 0.0
C2360 C 0.4225 0.86097 0.46401 0.0
C2361 C 0.40343 0.89378 0.49193 0.0
C2362 C 0.41339 0.89997 0.47173 0.0
C2363 C 0.43095 0.88977 0.43646 0.0
C2364 C 0.43924 0.87353 0.42157 0.0
C2365 C 0.42249 0.88368 0.45746 0.0
C2366 C 0.44009 0.85107 0.42843 0.0
C2367 C 0.43174 0.84482 0.44948 0.0
H2368 H 0.18314 0.46897 0.43192 0.0
H2369 H 0.23559 0.44542 0.38621 0.0
H2370 H 0.24393 0.41391 0.41082 0.0
H2371 H 0.23553 0.39233 0.44464 0.0
H2372 H 0.18356 0.41571 0.49072 0.0
H2373 H 0.17603 0.44818 0.46682 0.0
C2374 C 0.19646 0.457 0.42737 0.0
C2375 C 0.2086 0.45953 0.40712 0.0
C2376 C 0.20125 0.43889 0.44167 0.0
C2377 C 0.22595 0.44393 0.40163 0.0
C2378 C 0.2307 0.42585 0.41569 0.0
C2379 C 0.22248 0.40448 0.44941 0.0
C2380 C 0.20992 0.40146 0.46933 0.0
C2381 C 0.2183 0.42304 0.43561 0.0
C2382 C 0.19349 0.41767 0.47554 0.0
C2383 C 0.18911 0.43616 0.46181 0.0
H2384 H 0.60865 0.6295 0.87814 0.0
H2385 H 0.60147 0.61312 0.80841 0.0
H2386 H 0.56436 0.63296 0.80718 0.0
H2387 H 0.53412 0.65502 0.82582 0.0
H2388 H 0.54146 0.67168 0.89546 0.0
H2389 H 0.57842 0.65157 0.89677 0.0
C2390 C 0.599 0.63021 0.86264 0.0
C2391 C 0.60789 0.61978 0.84337 0.0
C2392 C 0.57771 0.64169 0.86204 0.0
C2393 C 0.59509 0.62097 0.82347 0.0
C2394 C 0.57385 0.63232 0.82276 0.0
C2395 C 0.54374 0.65426 0.84133 0.0
C2396 C 0.53495 0.66487 0.86054 0.0
C2397 C 0.56501 0.64275 0.84194 0.0
C2398 C 0.54776 0.6637 0.88044 0.0
C2399 C 0.56891 0.6522 0.88119 0.0
H2400 H 0.43347 0.62698 0.88394 0.0
H2401 H 0.42011 0.6313 0.81333 0.0
H2402 H 0.40786 0.59223 0.81292 0.0
H2403 H 0.40108 0.55667 0.83271 0.0
H2404 H 0.41544 0.55255 0.90316 0.0
H2405 H 0.42732 0.59161 0.90349 0.0
C2406 C 0.42812 0.61937 0.8684 0.0
C2407 C 0.4278 0.63214 0.8487 0.0
C2408 C 0.42126 0.59687 0.86825 0.0
C2409 C 0.42031 0.62201 0.82881 0.0
C2410 C 0.41343 0.59959 0.82853 0.0
C2411 C 0.40702 0.56426 0.84807 0.0
C2412 C 0.40728 0.55165 0.86789 0.0
C2413 C 0.41389 0.58683 0.84815 0.0
C2414 C 0.41472 0.56189 0.88773 0.0
C2415 C 0.42164 0.58423 0.88792 0.0
H2416 H 0.45806 0.44563 0.86058 0.0
H2417 H 0.43984 0.397 0.81049 0.0
H2418 H 0.47486 0.37559 0.81906 0.0
H2419 H 0.51022 0.37011 0.8413 0.0
H2420 H 0.52799 0.41803 0.89225 0.0
H2421 H 0.49356 0.44006 0.88298 0.0
C2422 C 0.4619 0.4305 0.85134 0.0
C2423 C 0.44638 0.42306 0.83476 0.0
C2424 C 0.48188 0.41794 0.85671 0.0
C2425 C 0.45148 0.40318 0.82326 0.0
C2426 C 0.47148 0.39086 0.82821 0.0
C2427 C 0.50657 0.38533 0.85046 0.0
C2428 C 0.52177 0.3923 0.86753 0.0
C2429 C 0.4867 0.39796 0.84505 0.0
C2430 C 0.51664 0.41213 0.87914 0.0
C2431 C 0.49696 0.42482 0.87377 0.0
H2432 H 0.61138 0.43132 0.87798 0.0
H2433 H 0.65259 0.41644 0.81999 0.0
H2434 H 0.66517 0.45544 0.81783 0.0
H2435 H 0.66521 0.49364 0.8331 0.0
H2436 H 0.62582 0.50811 0.89237 0.0
H2437 H 0.61177 0.46952 0.89352 0.0
C2438 C 0.62293 0.43676 0.8648 0.0
C2439 C 0.63102 0.42115 0.84913 0.0
C2440 C 0.6305 0.45909 0.86401 0.0
C2441 C 0.64629 0.4282 0.83229 0.0
C2442 C 0.65343 0.45047 0.83104 0.0
C2443 C 0.65342 0.48832 0.84613 0.0
C2444 C 0.64651 0.50363 0.86259 0.0
C2445 C 0.64577 0.46603 0.84689 0.0
C2446 C 0.63152 0.49652 0.87964 0.0
C2447 C 0.62341 0.47451 0.88024 0.0
H2448 H 0.55438 0.39589 0.19563 0.0
H2449 H 0.55094 0.3941 0.1238 0.0
H2450 H 0.58481 0.4187 0.12161 0.0
H2451 H 0.61551 0.44053 0.14014 0.0
H2452 H 0.61923 0.44151 0.21199 0.0
H2453 H 0.58505 0.41745 0.21408 0.0
C2454 C 0.56097 0.40086 0.17944 0.0
C2455 C 0.55003 0.39312 0.15988 0.0
C2456 C 0.5805 0.41491 0.17833 0.0
C2457 C 0.55897 0.39973 0.13911 0.0
C2458 C 0.57834 0.41384 0.13787 0.0
C2459 C 0.60881 0.43558 0.15629 0.0
C2460 C 0.61997 0.44293 0.1759 0.0
C2461 C 0.58925 0.42153 0.15737 0.0
C2462 C 0.61107 0.43616 0.19664 0.0
C2463 C 0.5915 0.42237 0.19784 0.0
H2464 H 0.68106 0.5829 0.19314 0.0
H2465 H 0.62007 0.54568 0.17469 0.0
H2466 H 0.59652 0.5798 0.17716 0.0
H2467 H 0.5938 0.62062 0.18324 0.0
H2468 H 0.65502 0.6573 0.20232 0.0
H2469 H 0.67802 0.62302 0.20099 0.0
C2470 C 0.66262 0.5823 0.18959 0.0
C2471 C 0.65233 0.56189 0.18347 0.0
C2472 C 0.64929 0.60188 0.19115 0.0
C2473 C 0.62832 0.5612 0.17946 0.0
C2474 C 0.61493 0.58071 0.18077 0.0
C2475 C 0.61218 0.62105 0.18706 0.0
C2476 C 0.62272 0.6415 0.19276 0.0
C2477 C 0.62529 0.6012 0.18637 0.0
C2478 C 0.64647 0.64178 0.19807 0.0
C2479 C 0.65965 0.6222 0.19719 0.0
H2480 H 0.50789 0.65327 0.21522 0.0
H2481 H 0.50235 0.65949 0.14373 0.0
H2482 H 0.4682 0.63523 0.14401 0.0
H2483 H 0.43939 0.61317 0.1646 0.0
H2484 H 0.44455 0.60737 0.23616 0.0
H2485 H 0.47955 0.63051 0.23575 0.0
C2486 C 0.4993 0.6493 0.19964 0.0
C2487 C 0.50771 0.65831 0.17945 0.0
C2488 C 0.47961 0.63542 0.19995 0.0
C2489 C 0.49629 0.65288 0.15949 0.0
C2490 C 0.47674 0.639 0.15965 0.0
C2491 C 0.44819 0.61684 0.18015 0.0
C2492 C 0.43925 0.60851 0.20042 0.0
C2493 C 0.46818 0.6303 0.1798 0.0
C2494 C 0.45098 0.61351 0.22034 0.0
C2495 C 0.47098 0.62679 0.2201 0.0
H2496 H 0.42895 0.41978 0.20724 0.0
H2497 H 0.4425 0.42244 0.13655 0.0
H2498 H 0.42525 0.45956 0.13459 0.0
H2499 H 0.40701 0.49166 0.15298 0.0
H2500 H 0.39223 0.48866 0.22341 0.0
H2501 H 0.40918 0.45134 0.22537 0.0
C2502 C 0.42791 0.42833 0.19135 0.0
C2503 C 0.43723 0.41824 0.17212 0.0
C2504 C 0.41779 0.44972 0.19028 0.0
C2505 C 0.43592 0.42983 0.15173 0.0
C2506 C 0.42589 0.45107 0.15054 0.0
C2507 C 0.40719 0.48279 0.16872 0.0
C2508 C 0.3984 0.49314 0.18802 0.0
C2509 C 0.41688 0.46123 0.16972 0.0
C2510 C 0.39917 0.48136 0.20833 0.0
C2511 C 0.40876 0.45991 0.20945 0.0
H2512 H 0.81526 0.60906 0.64326 0.0
H2513 H 0.86405 0.56092 0.61751 0.0
H2514 H 0.8691 0.58355 0.58382 0.0
H2515 H 0.86113 0.61806 0.56262 0.0
H2516 H 0.81169 0.66583 0.58824 0.0
H2517 H 0.80541 0.64233 0.621 0.0
C2518 C 0.82701 0.60354 0.63027 0.0
C2519 C 0.83946 0.58343 0.633 0.0
C2520 C 0.82974 0.61661 0.61095 0.0
C2521 C 0.85423 0.57627 0.61579 0.0
C2522 C 0.8572 0.58927 0.59658 0.0
C2523 C 0.84887 0.62329 0.5753 0.0
C2524 C 0.83704 0.64381 0.57299 0.0
C2525 C 0.84526 0.60963 0.59411 0.0
C2526 C 0.82104 0.65016 0.58952 0.0
C2527 C 0.81749 0.63675 0.60833 0.0
H2528 H 0.86551 0.43983 0.39056 0.0
H2529 H 0.81437 0.48724 0.41339 0.0
H2530 H 0.80368 0.46208 0.44381 0.0
H2531 H 0.81039 0.42744 0.46522 0.0
H2532 H 0.86181 0.3802 0.44227 0.0
H2533 H 0.87087 0.40446 0.41078 0.0
C2534 C 0.85204 0.44468 0.40219 0.0
C2535 C 0.84089 0.46551 0.39971 0.0
C2536 C 0.84608 0.43017 0.41975 0.0
C2537 C 0.82313 0.47128 0.41473 0.0
C2538 C 0.81711 0.45694 0.43226 0.0
C2539 C 0.82347 0.42235 0.45326 0.0
C2540 C 0.83547 0.40201 0.45629 0.0
C2541 C 0.82868 0.43645 0.43511 0.0
C2542 C 0.85229 0.39573 0.44049 0.0
C2543 C 0.85755 0.40964 0.42244 0.0
H2544 H 0.55454 0.85584 0.36533 0.0
H2545 H 0.5412 0.90576 0.41565 0.0
H2546 H 0.57556 0.89368 0.43623 0.0
H2547 H 0.6096 0.86909 0.43997 0.0
H2548 H 0.6231 0.81928 0.38961 0.0
H2549 H 0.58839 0.83096 0.36929 0.0
C2550 C 0.55922 0.86421 0.38072 0.0
C2551 C 0.54528 0.88182 0.38881 0.0
C2552 C 0.57894 0.85702 0.39265 0.0
C2553 C 0.55157 0.89224 0.40892 0.0
C2554 C 0.57121 0.88528 0.42079 0.0
C2555 C 0.60484 0.86059 0.42469 0.0
C2556 C 0.61899 0.84323 0.41643 0.0
C2557 C 0.58499 0.86763 0.41287 0.0
C2558 C 0.61257 0.83263 0.39644 0.0
C2559 C 0.59275 0.83938 0.38472 0.0
H2560 H 0.2393 0.61243 0.47393 0.0
H2561 H 0.18446 0.65749 0.45396 0.0
H2562 H 0.17469 0.63309 0.42295 0.0
H2563 H 0.18128 0.59903 0.40148 0.0
H2564 H 0.23653 0.55402 0.42027 0.0
H2565 H 0.24614 0.57805 0.45184 0.0
C2566 C 0.22525 0.61694 0.46277 0.0
C2567 C 0.21271 0.6369 0.4664 0.0
C2568 C 0.21962 0.60273 0.44477 0.0
C2569 C 0.1945 0.64234 0.45171 0.0
C2570 C 0.18883 0.62834 0.4339 0.0
C2571 C 0.1956 0.59448 0.41226 0.0
C2572 C 0.20815 0.57463 0.40822 0.0
C2573 C 0.20125 0.60852 0.43025 0.0
C2574 C 0.22633 0.56898 0.4229 0.0
C2575 C 0.23197 0.58284 0.44096 0.0
H2576 H 0.53078 0.21348 0.40797 0.0
H2577 H 0.50306 0.17933 0.35055 0.0
H2578 H 0.46379 0.18303 0.36563 0.0
H2579 H 0.43722 0.19682 0.39468 0.0
H2580 H 0.46502 0.2285 0.45339 0.0
H2581 H 0.5044 0.22504 0.43826 0.0
C2582 C 0.51614 0.20676 0.3988 0.0
C2583 C 0.51983 0.19626 0.37807 0.0
C2584 C 0.49364 0.20867 0.40774 0.0
C2585 C 0.50072 0.1874 0.36654 0.0
C2586 C 0.47825 0.18963 0.37511 0.0
C2587 C 0.45191 0.20309 0.40409 0.0
C2588 C 0.44823 0.21326 0.42496 0.0
C2589 C 0.47448 0.20043 0.39557 0.0
C2590 C 0.46744 0.22077 0.43724 0.0
C2591 C 0.48992 0.21876 0.42859 0.0
H2592 H 0.21948 0.43133 0.65863 0.0
H2593 H 0.22778 0.49176 0.6201 0.0
H2594 H 0.2348 0.46953 0.58666 0.0
H2595 H 0.23673 0.43273 0.56785 0.0
H2596 H 0.22619 0.37275 0.60659 0.0
H2597 H 0.22162 0.39504 0.64027 0.0
C2598 C 0.22258 0.43979 0.64296 0.0
C2599 C 0.22287 0.46335 0.64209 0.0
C2600 C 0.22617 0.4269 0.62368 0.0
C2601 C 0.22757 0.47374 0.62151 0.0
C2602 C 0.23148 0.46099 0.60227 0.0
C2603 C 0.23364 0.42454 0.58369 0.0
C2604 C 0.23181 0.40105 0.58461 0.0
C2605 C 0.2306 0.43754 0.6031 0.0
C2606 C 0.2276 0.39076 0.6053 0.0
C2607 C 0.22498 0.40351 0.62462 0.0
H2608 H 0.63318 0.18536 0.65423 0.0
H2609 H 0.6074 0.2286 0.60219 0.0
H2610 H 0.56799 0.22488 0.61687 0.0
H2611 H 0.54085 0.20887 0.64396 0.0
H2612 H 0.56602 0.164 0.69489 0.0
H2613 H 0.60573 0.1687 0.68105 0.0
C2614 C 0.61897 0.19415 0.64622 0.0
C2615 C 0.62327 0.20743 0.62724 0.0
C2616 C 0.59626 0.19148 0.65444 0.0
C2617 C 0.60459 0.21836 0.61684 0.0
C2618 C 0.58205 0.2162 0.62521 0.0
C2619 C 0.555 0.20011 0.6521 0.0
C2620 C 0.55044 0.18614 0.67052 0.0
C2621 C 0.57768 0.2027 0.6439 0.0
C2622 C 0.569 0.17479 0.68067 0.0
C2623 C 0.59172 0.17754 0.6728 0.0
H2624 H 0.52385 0.83308 0.62673 0.0
H2625 H 0.50016 0.87716 0.67889 0.0
H2626 H 0.46004 0.87217 0.66655 0.0
H2627 H 0.43155 0.85429 0.64179 0.0
H2628 H 0.45513 0.81216 0.58808 0.0
H2629 H 0.49545 0.81727 0.60021 0.0
C2630 C 0.50991 0.84172 0.63531 0.0
C2631 C 0.51501 0.8554 0.65381 0.0
C2632 C 0.48687 0.83894 0.62796 0.0
C2633 C 0.49677 0.86663 0.66458 0.0
C2634 C 0.47379 0.86366 0.65761 0.0
C2635 C 0.44552 0.84613 0.63279 0.0
C2636 C 0.44035 0.83254 0.61427 0.0
C2637 C 0.46862 0.84965 0.6395 0.0
C2638 C 0.45866 0.82255 0.60246 0.0
C2639 C 0.48169 0.8255 0.60939 0.0
loop_
_geom_bond_atom_site_label_1
_geom_bond_atom_site_label_2
_geom_bond_distance
_geom_bond_site_symmetry_2
_ccdc_geom_bond_type
Cu0 N1 1.999 . S
Cu0 O6 1.974 . S
Cu0 N11 1.985 . S
Cu0 O20 1.959 . S
N1 Cu0 1.999 . S
N1 C3 1.263 . S
N1 C5 1.389 . S
N2 C3 1.358 . S
N2 C4 1.400 . S
C3 N1 1.263 . S
C3 N2 1.358 . S
C3 H9 0.930 . S
C4 N2 1.400 . S
C4 C5 1.351 . S
C4 H21 0.930 . S
C5 N1 1.389 . S
C5 C4 1.351 . S
C5 H10 0.930 . S
O6 Cu0 1.974 . S
O6 C16 1.282 1_455 S
C7 O8 1.261 . S
C7 O20 1.251 . S
O8 C7 1.261 . S
H9 C3 0.930 . S
H10 C5 0.930 . S
N11 Cu0 1.985 . S
N11 C13 1.335 . S
N11 C14 1.390 1_455 S
N12 C13 1.345 1_655 S
N12 C15 1.336 . S
C13 N11 1.335 . S
C13 N12 1.345 1_455 S
C13 H18 0.930 . S
C14 N11 1.390 1_655 S
C14 C15 1.346 . S
C14 H19 0.930 . S
C15 N12 1.336 . S
C15 C14 1.346 . S
C15 H22 0.929 . S
C16 O6 1.282 1_655 S
C16 O17 1.216 . S
O17 C16 1.216 . S
H18 C13 0.930 . S
H19 C14 0.930 . S
O20 Cu0 1.959 . S
O20 C7 1.251 . S
H21 C4 0.930 . S
H22 C15 0.929 . S
Cu23 N24 1.999 1_545 S
Cu23 O29 1.974 . S
Cu23 N34 1.985 . S
Cu23 O43 1.959 . S
N24 Cu23 1.999 1_565 S
N24 C26 1.263 . S
N24 C28 1.389 . S
N25 C26 1.358 . S
N25 C27 1.400 . S
C26 N24 1.263 . S
C26 N25 1.358 . S
C26 H32 0.930 1_565 S
C27 N25 1.400 . S
C27 C28 1.351 . S
C27 H44 0.930 . S
C28 N24 1.389 . S
C28 C27 1.351 . S
C28 H33 0.930 . S
O29 Cu23 1.974 . S
O29 C39 1.282 . S
C30 O31 1.261 . S
C30 O43 1.251 . S
O31 C30 1.261 . S
H32 C26 0.930 1_545 S
H33 C28 0.930 . S
N34 Cu23 1.985 . S
N34 C36 1.335 . S
N34 C37 1.390 . S
N35 C36 1.345 . S
N35 C38 1.336 . S
C36 N34 1.335 . S
C36 N35 1.345 . S
C36 H41 0.930 . S
C37 N34 1.390 . S
C37 C38 1.346 . S
C37 H42 0.930 . S
C38 N35 1.336 . S
C38 C37 1.346 . S
C38 H45 0.929 . S
C39 O29 1.282 . S
C39 O40 1.216 . S
O40 C39 1.216 . S
H41 C36 0.930 . S
H42 C37 0.930 . S
O43 Cu23 1.959 . S
O43 C30 1.251 . S
H44 C27 0.930 . S
H45 C38 0.929 . S
Cu46 N47 1.999 . S
Cu46 O52 1.974 . S
Cu46 N57 1.985 . S
Cu46 O66 1.959 . S
N47 Cu46 1.999 . S
N47 C49 1.263 . S
N47 C51 1.389 . S
N48 C49 1.358 . S
N48 C50 1.400 . S
C49 N47 1.263 . S
C49 N48 1.358 . S
C49 H55 0.930 . S
C50 N48 1.400 . S
C50 C51 1.351 . S
C50 H67 0.930 . S
C51 N47 1.389 . S
C51 C50 1.351 . S
C51 H56 0.930 . S
O52 Cu46 1.974 . S
O52 C62 1.282 1_655 S
C53 O54 1.261 . S
C53 O66 1.251 . S
O54 C53 1.261 . S
H55 C49 0.930 . S
H56 C51 0.930 . S
N57 Cu46 1.985 . S
N57 C59 1.335 . S
N57 C60 1.390 1_655 S
N58 C59 1.345 1_455 S
N58 C61 1.336 . S
C59 N57 1.335 . S
C59 N58 1.345 1_655 S
C59 H64 0.930 . S
C60 N57 1.390 1_455 S
C60 C61 1.346 . S
C60 H65 0.930 . S
C61 N58 1.336 . S
C61 C60 1.346 . S
C61 H68 0.929 . S
C62 O52 1.282 1_455 S
C62 O63 1.216 . S
O63 C62 1.216 . S
H64 C59 0.930 . S
H65 C60 0.930 . S
O66 Cu46 1.959 . S
O66 C53 1.251 . S
H67 C50 0.930 . S
H68 C61 0.929 . S
Cu69 N70 1.999 1_565 S
Cu69 O75 1.974 . S
Cu69 N80 1.985 . S
Cu69 O89 1.959 . S
N70 Cu69 1.999 1_545 S
N70 C72 1.263 . S
N70 C74 1.389 . S
N71 C72 1.358 . S
N71 C73 1.400 . S
C72 N70 1.263 . S
C72 N71 1.358 . S
C72 H78 0.930 1_545 S
C73 N71 1.400 . S
C73 C74 1.351 . S
C73 H90 0.930 . S
C74 N70 1.389 . S
C74 C73 1.351 . S
C74 H79 0.930 . S
O75 Cu69 1.974 . S
O75 C85 1.282 . S
C76 O77 1.261 . S
C76 O89 1.251 . S
O77 C76 1.261 . S
H78 C72 0.930 1_565 S
H79 C74 0.930 . S
N80 Cu69 1.985 . S
N80 C82 1.335 . S
N80 C83 1.390 . S
N81 C82 1.345 . S
N81 C84 1.336 . S
C82 N80 1.335 . S
C82 N81 1.345 . S
C82 H87 0.930 . S
C83 N80 1.390 . S
C83 C84 1.346 . S
C83 H88 0.930 . S
C84 N81 1.336 . S
C84 C83 1.346 . S
C84 H91 0.929 . S
C85 O75 1.282 . S
C85 O86 1.216 . S
O86 C85 1.216 . S
H87 C82 0.930 . S
H88 C83 0.930 . S
O89 Cu69 1.959 . S
O89 C76 1.251 . S
H90 C73 0.930 . S
H91 C84 0.929 . S
Cu92 N93 1.999 . S
Cu92 O98 1.974 . S
Cu92 N103 1.985 . S
Cu92 O112 1.959 . S
N93 Cu92 1.999 . S
N93 C95 1.263 . S
N93 C97 1.389 . S
N94 C95 1.358 . S
N94 C96 1.400 . S
C95 N93 1.263 . S
C95 N94 1.358 . S
C95 H101 0.930 . S
C96 N94 1.400 . S
C96 C97 1.351 . S
C96 H113 0.930 . S
C97 N93 1.389 . S
C97 C96 1.351 . S
C97 H102 0.930 . S
O98 Cu92 1.974 . S
O98 C108 1.282 1_455 S
C99 O100 1.261 . S
C99 O112 1.251 . S
O100 C99 1.261 . S
H101 C95 0.930 . S
H102 C97 0.930 . S
N103 Cu92 1.985 . S
N103 C105 1.335 . S
N103 C106 1.390 1_455 S
N104 C105 1.345 1_655 S
N104 C107 1.336 . S
C105 N103 1.335 . S
C105 N104 1.345 1_455 S
C105 H110 0.930 . S
C106 N103 1.390 1_655 S
C106 C107 1.346 . S
C106 H111 0.930 . S
C107 N104 1.336 . S
C107 C106 1.346 . S
C107 H114 0.929 . S
C108 O98 1.282 1_655 S
C108 O109 1.216 . S
O109 C108 1.216 . S
H110 C105 0.930 . S
H111 C106 0.930 . S
O112 Cu92 1.959 . S
O112 C99 1.251 . S
H113 C96 0.930 . S
H114 C107 0.929 . S
Cu115 N116 1.999 1_545 S
Cu115 O121 1.974 . S
Cu115 N126 1.985 . S
Cu115 O135 1.959 . S
N116 Cu115 1.999 1_565 S
N116 C118 1.263 . S
N116 C120 1.389 . S
N117 C118 1.358 . S
N117 C119 1.400 . S
C118 N116 1.263 . S
C118 N117 1.358 . S
C118 H124 0.930 1_565 S
C119 N117 1.400 . S
C119 C120 1.351 . S
C119 H136 0.930 . S
C120 N116 1.389 . S
C120 C119 1.351 . S
C120 H125 0.930 . S
O121 Cu115 1.974 . S
O121 C131 1.282 . S
C122 O123 1.261 . S
C122 O135 1.251 . S
O123 C122 1.261 . S
H124 C118 0.930 1_545 S
H125 C120 0.930 . S
N126 Cu115 1.985 . S
N126 C128 1.335 . S
N126 C129 1.390 . S
N127 C128 1.345 . S
N127 C130 1.336 . S
C128 N126 1.335 . S
C128 N127 1.345 . S
C128 H133 0.930 . S
C129 N126 1.390 . S
C129 C130 1.346 . S
C129 H134 0.930 . S
C130 N127 1.336 . S
C130 C129 1.346 . S
C130 H137 0.929 . S
C131 O121 1.282 . S
C131 O132 1.216 . S
O132 C131 1.216 . S
H133 C128 0.930 . S
H134 C129 0.930 . S
O135 Cu115 1.959 . S
O135 C122 1.251 . S
H136 C119 0.930 . S
H137 C130 0.929 . S
Cu138 N139 1.999 . S
Cu138 O144 1.974 . S
Cu138 N149 1.985 . S
Cu138 O158 1.959 . S
N139 Cu138 1.999 . S
N139 C141 1.263 . S
N139 C143 1.389 . S
N140 C141 1.358 . S
N140 C142 1.400 . S
C141 N139 1.263 . S
C141 N140 1.358 . S
C141 H147 0.930 . S
C142 N140 1.400 . S
C142 C143 1.351 . S
C142 H159 0.930 . S
C143 N139 1.389 . S
C143 C142 1.351 . S
C143 H148 0.930 . S
O144 Cu138 1.974 . S
O144 C154 1.282 1_655 S
C145 O146 1.261 . S
C145 O158 1.251 . S
O146 C145 1.261 . S
H147 C141 0.930 . S
H148 C143 0.930 . S
N149 Cu138 1.985 . S
N149 C151 1.335 . S
N149 C152 1.390 1_655 S
N150 C151 1.345 1_455 S
N150 C153 1.336 . S
C151 N149 1.335 . S
C151 N150 1.345 1_655 S
C151 H156 0.930 . S
C152 N149 1.390 1_455 S
C152 C153 1.346 . S
C152 H157 0.930 . S
C153 N150 1.336 . S
C153 C152 1.346 . S
C153 H160 0.929 . S
C154 O144 1.282 1_455 S
C154 O155 1.216 . S
O155 C154 1.216 . S
H156 C151 0.930 . S
H157 C152 0.930 . S
O158 Cu138 1.959 . S
O158 C145 1.251 . S
H159 C142 0.930 . S
H160 C153 0.929 . S
Cu161 N162 1.999 1_565 S
Cu161 O167 1.974 . S
Cu161 N172 1.985 . S
Cu161 O181 1.959 . S
N162 Cu161 1.999 1_545 S
N162 C164 1.263 . S
N162 C166 1.389 . S
N163 C164 1.358 . S
N163 C165 1.400 . S
C164 N162 1.263 . S
C164 N163 1.358 . S
C164 H170 0.930 1_545 S
C165 N163 1.400 . S
C165 C166 1.351 . S
C165 H182 0.930 . S
C166 N162 1.389 . S
C166 C165 1.351 . S
C166 H171 0.930 . S
O167 Cu161 1.974 . S
O167 C177 1.282 . S
C168 O169 1.261 . S
C168 O181 1.251 . S
O169 C168 1.261 . S
H170 C164 0.930 1_565 S
H171 C166 0.930 . S
N172 Cu161 1.985 . S
N172 C174 1.335 . S
N172 C175 1.390 . S
N173 C174 1.345 . S
N173 C176 1.336 . S
C174 N172 1.335 . S
C174 N173 1.345 . S
C174 H179 0.930 . S
C175 N172 1.390 . S
C175 C176 1.346 . S
C175 H180 0.930 . S
C176 N173 1.336 . S
C176 C175 1.346 . S
C176 H183 0.929 . S
C177 O167 1.282 . S
C177 O178 1.216 . S
O178 C177 1.216 . S
H179 C174 0.930 . S
H180 C175 0.930 . S
O181 Cu161 1.959 . S
O181 C168 1.251 . S
H182 C165 0.930 . S
H183 C176 0.929 . S
Cu184 N185 1.999 . S
Cu184 O190 1.974 . S
Cu184 N195 1.985 . S
Cu184 O204 1.959 . S
N185 Cu184 1.999 . S
N185 C187 1.263 . S
N185 C189 1.389 1_545 S
N186 C187 1.358 1_565 S
N186 C188 1.400 . S
C187 N185 1.263 . S
C187 N186 1.358 1_545 S
C187 H193 0.930 . S
C188 N186 1.400 . S
C188 C189 1.351 . S
C188 H205 0.930 . S
C189 N185 1.389 1_565 S
C189 C188 1.351 . S
C189 H194 0.930 . S
O190 Cu184 1.974 . S
O190 C200 1.282 . S
C191 O192 1.261 . S
C191 O204 1.251 . S
O192 C191 1.261 . S
H193 C187 0.930 . S
H194 C189 0.930 . S
N195 Cu184 1.985 . S
N195 C197 1.335 . S
N195 C198 1.390 . S
N196 C197 1.345 . S
N196 C199 1.336 . S
C197 N195 1.335 . S
C197 N196 1.345 . S
C197 H202 0.930 . S
C198 N195 1.390 . S
C198 C199 1.346 . S
C198 H203 0.930 . S
C199 N196 1.336 . S
C199 C198 1.346 . S
C199 H206 0.929 . S
C200 O190 1.282 . S
C200 O201 1.216 . S
O201 C200 1.216 . S
H202 C197 0.930 . S
H203 C198 0.930 . S
O204 Cu184 1.959 . S
O204 C191 1.251 . S
H205 C188 0.930 . S
H206 C199 0.929 . S
Cu207 N208 1.999 . S
Cu207 O213 1.974 . S
Cu207 N218 1.985 . S
Cu207 O227 1.959 . S
N208 Cu207 1.999 . S
N208 C210 1.263 . S
N208 C212 1.389 . S
N209 C210 1.358 . S
N209 C211 1.400 . S
C210 N208 1.263 . S
C210 N209 1.358 . S
C210 H216 0.930 . S
C211 N209 1.400 . S
C211 C212 1.351 . S
C211 H228 0.930 . S
C212 N208 1.389 . S
C212 C211 1.351 . S
C212 H217 0.930 . S
O213 Cu207 1.974 . S
O213 C223 1.282 1_655 S
C214 O215 1.261 . S
C214 O227 1.251 . S
O215 C214 1.261 . S
H216 C210 0.930 . S
H217 C212 0.930 . S
N218 Cu207 1.985 . S
N218 C220 1.335 . S
N218 C221 1.390 1_655 S
N219 C220 1.345 1_455 S
N219 C222 1.336 . S
C220 N218 1.335 . S
C220 N219 1.345 1_655 S
C220 H225 0.930 . S
C221 N218 1.390 1_455 S
C221 C222 1.346 . S
C221 H226 0.930 . S
C222 N219 1.336 . S
C222 C221 1.346 . S
C222 H229 0.929 . S
C223 O213 1.282 1_455 S
C223 O224 1.216 . S
O224 C223 1.216 . S
H225 C220 0.930 . S
H226 C221 0.930 . S
O227 Cu207 1.959 . S
O227 C214 1.251 . S
H228 C211 0.930 . S
H229 C222 0.929 . S
Cu230 N231 1.999 . S
Cu230 O236 1.974 . S
Cu230 N241 1.985 . S
Cu230 O250 1.959 . S
N231 Cu230 1.999 . S
N231 C233 1.263 . S
N231 C235 1.389 1_565 S
N232 C233 1.358 1_545 S
N232 C234 1.400 . S
C233 N231 1.263 . S
C233 N232 1.358 1_565 S
C233 H239 0.930 . S
C234 N232 1.400 . S
C234 C235 1.351 . S
C234 H251 0.930 . S
C235 N231 1.389 1_545 S
C235 C234 1.351 . S
C235 H240 0.930 . S
O236 Cu230 1.974 . S
O236 C246 1.282 . S
C237 O238 1.261 . S
C237 O250 1.251 . S
O238 C237 1.261 . S
H239 C233 0.930 . S
H240 C235 0.930 . S
N241 Cu230 1.985 . S
N241 C243 1.335 . S
N241 C244 1.390 . S
N242 C243 1.345 . S
N242 C245 1.336 . S
C243 N241 1.335 . S
C243 N242 1.345 . S
C243 H248 0.930 . S
C244 N241 1.390 . S
C244 C245 1.346 . S
C244 H249 0.930 . S
C245 N242 1.336 . S
C245 C244 1.346 . S
C245 H252 0.929 . S
C246 O236 1.282 . S
C246 O247 1.216 . S
O247 C246 1.216 . S
H248 C243 0.930 . S
H249 C244 0.930 . S
O250 Cu230 1.959 . S
O250 C237 1.251 . S
H251 C234 0.930 . S
H252 C245 0.929 . S
Cu253 N254 1.999 . S
Cu253 O259 1.974 . S
Cu253 N264 1.985 . S
Cu253 O273 1.959 . S
N254 Cu253 1.999 . S
N254 C256 1.263 . S
N254 C258 1.389 . S
N255 C256 1.358 . S
N255 C257 1.400 . S
C256 N254 1.263 . S
C256 N255 1.358 . S
C256 H262 0.930 . S
C257 N255 1.400 . S
C257 C258 1.351 . S
C257 H274 0.930 . S
C258 N254 1.389 . S
C258 C257 1.351 . S
C258 H263 0.930 . S
O259 Cu253 1.974 . S
O259 C269 1.282 1_455 S
C260 O261 1.261 . S
C260 O273 1.251 . S
O261 C260 1.261 . S
H262 C256 0.930 . S
H263 C258 0.930 . S
N264 Cu253 1.985 . S
N264 C266 1.335 . S
N264 C267 1.390 1_455 S
N265 C266 1.345 1_655 S
N265 C268 1.336 . S
C266 N264 1.335 . S
C266 N265 1.345 1_455 S
C266 H271 0.930 . S
C267 N264 1.390 1_655 S
C267 C268 1.346 . S
C267 H272 0.930 . S
C268 N265 1.336 . S
C268 C267 1.346 . S
C268 H275 0.929 . S
C269 O259 1.282 1_655 S
C269 O270 1.216 . S
O270 C269 1.216 . S
H271 C266 0.930 . S
H272 C267 0.930 . S
O273 Cu253 1.959 . S
O273 C260 1.251 . S
H274 C257 0.930 . S
H275 C268 0.929 . S
Cu276 N277 1.999 . S
Cu276 O282 1.974 . S
Cu276 N287 1.985 . S
Cu276 O296 1.959 . S
N277 Cu276 1.999 . S
N277 C279 1.263 . S
N277 C281 1.389 1_565 S
N278 C279 1.358 1_545 S
N278 C280 1.400 . S
C279 N277 1.263 . S
C279 N278 1.358 1_565 S
C279 H285 0.930 . S
C280 N278 1.400 . S
C280 C281 1.351 . S
C280 H297 0.930 . S
C281 N277 1.389 1_545 S
C281 C280 1.351 . S
C281 H286 0.930 . S
O282 Cu276 1.974 . S
O282 C292 1.282 . S
C283 O284 1.261 . S
C283 O296 1.251 . S
O284 C283 1.261 . S
H285 C279 0.930 . S
H286 C281 0.930 . S
N287 Cu276 1.985 . S
N287 C289 1.335 . S
N287 C290 1.390 . S
N288 C289 1.345 . S
N288 C291 1.336 . S
C289 N287 1.335 . S
C289 N288 1.345 . S
C289 H294 0.930 . S
C290 N287 1.390 . S
C290 C291 1.346 . S
C290 H295 0.930 . S
C291 N288 1.336 . S
C291 C290 1.346 . S
C291 H298 0.929 . S
C292 O282 1.282 . S
C292 O293 1.216 . S
O293 C292 1.216 . S
H294 C289 0.930 . S
H295 C290 0.930 . S
O296 Cu276 1.959 . S
O296 C283 1.251 . S
H297 C280 0.930 . S
H298 C291 0.929 . S
Cu299 N300 1.999 . S
Cu299 O305 1.974 . S
Cu299 N310 1.985 . S
Cu299 O319 1.959 . S
N300 Cu299 1.999 . S
N300 C302 1.263 . S
N300 C304 1.389 . S
N301 C302 1.358 . S
N301 C303 1.400 . S
C302 N300 1.263 . S
C302 N301 1.358 . S
C302 H308 0.930 . S
C303 N301 1.400 . S
C303 C304 1.351 . S
C303 H320 0.930 . S
C304 N300 1.389 . S
C304 C303 1.351 . S
C304 H309 0.930 . S
O305 Cu299 1.974 . S
O305 C315 1.282 1_455 S
C306 O307 1.261 . S
C306 O319 1.251 . S
O307 C306 1.261 . S
H308 C302 0.930 . S
H309 C304 0.930 . S
N310 Cu299 1.985 . S
N310 C312 1.335 . S
N310 C313 1.390 1_455 S
N311 C312 1.345 1_655 S
N311 C314 1.336 . S
C312 N310 1.335 . S
C312 N311 1.345 1_455 S
C312 H317 0.930 . S
C313 N310 1.390 1_655 S
C313 C314 1.346 . S
C313 H318 0.930 . S
C314 N311 1.336 . S
C314 C313 1.346 . S
C314 H321 0.929 . S
C315 O305 1.282 1_655 S
C315 O316 1.216 . S
O316 C315 1.216 . S
H317 C312 0.930 . S
H318 C313 0.930 . S
O319 Cu299 1.959 . S
O319 C306 1.251 . S
H320 C303 0.930 . S
H321 C314 0.929 . S
Cu322 N323 1.999 . S
Cu322 O328 1.974 . S
Cu322 N333 1.985 . S
Cu322 O342 1.959 . S
N323 Cu322 1.999 . S
N323 C325 1.263 . S
N323 C327 1.389 1_545 S
N324 C325 1.358 1_565 S
N324 C326 1.400 . S
C325 N323 1.263 . S
C325 N324 1.358 1_545 S
C325 H331 0.930 . S
C326 N324 1.400 . S
C326 C327 1.351 . S
C326 H343 0.930 . S
C327 N323 1.389 1_565 S
C327 C326 1.351 . S
C327 H332 0.930 . S
O328 Cu322 1.974 . S
O328 C338 1.282 . S
C329 O330 1.261 . S
C329 O342 1.251 . S
O330 C329 1.261 . S
H331 C325 0.930 . S
H332 C327 0.930 . S
N333 Cu322 1.985 . S
N333 C335 1.335 . S
N333 C336 1.390 . S
N334 C335 1.345 . S
N334 C337 1.336 . S
C335 N333 1.335 . S
C335 N334 1.345 . S
C335 H340 0.930 . S
C336 N333 1.390 . S
C336 C337 1.346 . S
C336 H341 0.930 . S
C337 N334 1.336 . S
C337 C336 1.346 . S
C337 H344 0.929 . S
C338 O328 1.282 . S
C338 O339 1.216 . S
O339 C338 1.216 . S
H340 C335 0.930 . S
H341 C336 0.930 . S
O342 Cu322 1.959 . S
O342 C329 1.251 . S
H343 C326 0.930 . S
H344 C337 0.929 . S
Cu345 N346 1.999 . S
Cu345 O351 1.974 . S
Cu345 N356 1.985 . S
Cu345 O365 1.959 . S
N346 Cu345 1.999 . S
N346 C348 1.263 . S
N346 C350 1.389 . S
N347 C348 1.358 . S
N347 C349 1.400 . S
C348 N346 1.263 . S
C348 N347 1.358 . S
C348 H354 0.930 . S
C349 N347 1.400 . S
C349 C350 1.351 . S
C349 H366 0.930 . S
C350 N346 1.389 . S
C350 C349 1.351 . S
C350 H355 0.930 . S
O351 Cu345 1.974 . S
O351 C361 1.282 1_655 S
C352 O353 1.261 . S
C352 O365 1.251 . S
O353 C352 1.261 . S
H354 C348 0.930 . S
H355 C350 0.930 . S
N356 Cu345 1.985 . S
N356 C358 1.335 . S
N356 C359 1.390 1_655 S
N357 C358 1.345 1_455 S
N357 C360 1.336 . S
C358 N356 1.335 . S
C358 N357 1.345 1_655 S
C358 H363 0.930 . S
C359 N356 1.390 1_455 S
C359 C360 1.346 . S
C359 H364 0.930 . S
C360 N357 1.336 . S
C360 C359 1.346 . S
C360 H367 0.929 . S
C361 O351 1.282 1_455 S
C361 O362 1.216 . S
O362 C361 1.216 . S
H363 C358 0.930 . S
H364 C359 0.930 . S
O365 Cu345 1.959 . S
O365 C352 1.251 . S
H366 C349 0.930 . S
H367 C360 0.929 . S
Cu368 N369 1.999 1_554 S
Cu368 O374 1.974 . S
Cu368 N379 1.985 . S
Cu368 O388 1.959 . S
N369 Cu368 1.999 1_556 S
N369 C371 1.263 . S
N369 C373 1.389 . S
N370 C371 1.358 . S
N370 C372 1.400 . S
C371 N369 1.263 . S
C371 N370 1.358 . S
C371 H377 0.930 1_556 S
C372 N370 1.400 . S
C372 C373 1.351 . S
C372 H389 0.930 . S
C373 N369 1.389 . S
C373 C372 1.351 . S
C373 H378 0.930 . S
O374 Cu368 1.974 . S
O374 C384 1.282 . S
C375 O376 1.261 . S
C375 O388 1.251 . S
O376 C375 1.261 . S
H377 C371 0.930 1_554 S
H378 C373 0.930 . S
N379 Cu368 1.985 . S
N379 C381 1.335 . S
N379 C382 1.390 . S
N380 C381 1.345 . S
N380 C383 1.336 . S
C381 N379 1.335 . S
C381 N380 1.345 . S
C381 H386 0.930 . S
C382 N379 1.390 . S
C382 C383 1.346 . S
C382 H387 0.930 . S
C383 N380 1.336 . S
C383 C382 1.346 . S
C383 H390 0.929 . S
C384 O374 1.282 . S
C384 O385 1.216 . S
O385 C384 1.216 . S
H386 C381 0.930 . S
H387 C382 0.930 . S
O388 Cu368 1.959 . S
O388 C375 1.251 . S
H389 C372 0.930 . S
H390 C383 0.929 . S
Cu391 N392 1.999 1_556 S
Cu391 O397 1.974 . S
Cu391 N402 1.985 . S
Cu391 O411 1.959 . S
N392 Cu391 1.999 1_554 S
N392 C394 1.263 . S
N392 C396 1.389 . S
N393 C394 1.358 . S
N393 C395 1.400 . S
C394 N392 1.263 . S
C394 N393 1.358 . S
C394 H400 0.930 1_554 S
C395 N393 1.400 . S
C395 C396 1.351 . S
C395 H412 0.930 . S
C396 N392 1.389 . S
C396 C395 1.351 . S
C396 H401 0.930 . S
O397 Cu391 1.974 . S
O397 C407 1.282 . S
C398 O399 1.261 . S
C398 O411 1.251 . S
O399 C398 1.261 . S
H400 C394 0.930 1_556 S
H401 C396 0.930 . S
N402 Cu391 1.985 . S
N402 C404 1.335 . S
N402 C405 1.390 . S
N403 C404 1.345 . S
N403 C406 1.336 . S
C404 N402 1.335 . S
C404 N403 1.345 . S
C404 H409 0.930 . S
C405 N402 1.390 . S
C405 C406 1.346 . S
C405 H410 0.930 . S
C406 N403 1.336 . S
C406 C405 1.346 . S
C406 H413 0.929 . S
C407 O397 1.282 . S
C407 O408 1.216 . S
O408 C407 1.216 . S
H409 C404 0.930 . S
H410 C405 0.930 . S
O411 Cu391 1.959 . S
O411 C398 1.251 . S
H412 C395 0.930 . S
H413 C406 0.929 . S
Cu414 N415 1.999 . S
Cu414 O420 1.974 . S
Cu414 N425 1.985 . S
Cu414 O434 1.959 . S
N415 Cu414 1.999 . S
N415 C417 1.263 . S
N415 C419 1.389 1_556 S
N416 C417 1.358 1_554 S
N416 C418 1.400 . S
C417 N415 1.263 . S
C417 N416 1.358 1_556 S
C417 H423 0.930 . S
C418 N416 1.400 . S
C418 C419 1.351 . S
C418 H435 0.930 . S
C419 N415 1.389 1_554 S
C419 C418 1.351 . S
C419 H424 0.930 . S
O420 Cu414 1.974 . S
O420 C430 1.282 . S
C421 O422 1.261 . S
C421 O434 1.251 . S
O422 C421 1.261 . S
H423 C417 0.930 . S
H424 C419 0.930 . S
N425 Cu414 1.985 . S
N425 C427 1.335 . S
N425 C428 1.390 . S
N426 C427 1.345 . S
N426 C429 1.336 . S
C427 N425 1.335 . S
C427 N426 1.345 . S
C427 H432 0.930 . S
C428 N425 1.390 . S
C428 C429 1.346 . S
C428 H433 0.930 . S
C429 N426 1.336 . S
C429 C428 1.346 . S
C429 H436 0.929 . S
C430 O420 1.282 . S
C430 O431 1.216 . S
O431 C430 1.216 . S
H432 C427 0.930 . S
H433 C428 0.930 . S
O434 Cu414 1.959 . S
O434 C421 1.251 . S
H435 C418 0.930 . S
H436 C429 0.929 . S
Cu437 N438 1.999 1_556 S
Cu437 O443 1.974 . S
Cu437 N448 1.985 . S
Cu437 O457 1.959 . S
N438 Cu437 1.999 1_554 S
N438 C440 1.263 . S
N438 C442 1.389 . S
N439 C440 1.358 . S
N439 C441 1.400 . S
C440 N438 1.263 . S
C440 N439 1.358 . S
C440 H446 0.930 1_554 S
C441 N439 1.400 . S
C441 C442 1.351 . S
C441 H458 0.930 . S
C442 N438 1.389 . S
C442 C441 1.351 . S
C442 H447 0.930 . S
O443 Cu437 1.974 . S
O443 C453 1.282 . S
C444 O445 1.261 . S
C444 O457 1.251 . S
O445 C444 1.261 . S
H446 C440 0.930 1_556 S
H447 C442 0.930 . S
N448 Cu437 1.985 . S
N448 C450 1.335 . S
N448 C451 1.390 . S
N449 C450 1.345 . S
N449 C452 1.336 . S
C450 N448 1.335 . S
C450 N449 1.345 . S
C450 H455 0.930 . S
C451 N448 1.390 . S
C451 C452 1.346 . S
C451 H456 0.930 . S
C452 N449 1.336 . S
C452 C451 1.346 . S
C452 H459 0.929 . S
C453 O443 1.282 . S
C453 O454 1.216 . S
O454 C453 1.216 . S
H455 C450 0.930 . S
H456 C451 0.930 . S
O457 Cu437 1.959 . S
O457 C444 1.251 . S
H458 C441 0.930 . S
H459 C452 0.929 . S
Cu460 N461 1.999 . S
Cu460 O466 1.974 . S
Cu460 N471 1.985 . S
Cu460 O480 1.959 . S
N461 Cu460 1.999 . S
N461 C463 1.263 . S
N461 C465 1.389 1_556 S
N462 C463 1.358 1_554 S
N462 C464 1.400 . S
C463 N461 1.263 . S
C463 N462 1.358 1_556 S
C463 H469 0.930 . S
C464 N462 1.400 . S
C464 C465 1.351 . S
C464 H481 0.930 . S
C465 N461 1.389 1_554 S
C465 C464 1.351 . S
C465 H470 0.930 . S
O466 Cu460 1.974 . S
O466 C476 1.282 . S
C467 O468 1.261 . S
C467 O480 1.251 . S
O468 C467 1.261 . S
H469 C463 0.930 . S
H470 C465 0.930 . S
N471 Cu460 1.985 . S
N471 C473 1.335 . S
N471 C474 1.390 . S
N472 C473 1.345 . S
N472 C475 1.336 . S
C473 N471 1.335 . S
C473 N472 1.345 . S
C473 H478 0.930 . S
C474 N471 1.390 . S
C474 C475 1.346 . S
C474 H479 0.930 . S
C475 N472 1.336 . S
C475 C474 1.346 . S
C475 H482 0.929 . S
C476 O466 1.282 . S
C476 O477 1.216 . S
O477 C476 1.216 . S
H478 C473 0.930 . S
H479 C474 0.930 . S
O480 Cu460 1.959 . S
O480 C467 1.251 . S
H481 C464 0.930 . S
H482 C475 0.929 . S
Cu483 N484 1.999 1_554 S
Cu483 O489 1.974 . S
Cu483 N494 1.985 . S
Cu483 O503 1.959 . S
N484 Cu483 1.999 1_556 S
N484 C486 1.263 . S
N484 C488 1.389 . S
N485 C486 1.358 . S
N485 C487 1.400 . S
C486 N484 1.263 . S
C486 N485 1.358 . S
C486 H492 0.930 1_556 S
C487 N485 1.400 . S
C487 C488 1.351 . S
C487 H504 0.930 . S
C488 N484 1.389 . S
C488 C487 1.351 . S
C488 H493 0.930 . S
O489 Cu483 1.974 . S
O489 C499 1.282 . S
C490 O491 1.261 . S
C490 O503 1.251 . S
O491 C490 1.261 . S
H492 C486 0.930 1_554 S
H493 C488 0.930 . S
N494 Cu483 1.985 . S
N494 C496 1.335 . S
N494 C497 1.390 . S
N495 C496 1.345 . S
N495 C498 1.336 . S
C496 N494 1.335 . S
C496 N495 1.345 . S
C496 H501 0.930 . S
C497 N494 1.390 . S
C497 C498 1.346 . S
C497 H502 0.930 . S
C498 N495 1.336 . S
C498 C497 1.346 . S
C498 H505 0.929 . S
C499 O489 1.282 . S
C499 O500 1.216 . S
O500 C499 1.216 . S
H501 C496 0.930 . S
H502 C497 0.930 . S
O503 Cu483 1.959 . S
O503 C490 1.251 . S
H504 C487 0.930 . S
H505 C498 0.929 . S
Cu506 N507 1.999 . S
Cu506 O512 1.974 . S
Cu506 N517 1.985 . S
Cu506 O526 1.959 . S
N507 Cu506 1.999 . S
N507 C509 1.263 . S
N507 C511 1.389 1_554 S
N508 C509 1.358 1_556 S
N508 C510 1.400 . S
C509 N507 1.263 . S
C509 N508 1.358 1_554 S
C509 H515 0.930 . S
C510 N508 1.400 . S
C510 C511 1.351 . S
C510 H527 0.930 . S
C511 N507 1.389 1_556 S
C511 C510 1.351 . S
C511 H516 0.930 . S
O512 Cu506 1.974 . S
O512 C522 1.282 . S
C513 O514 1.261 . S
C513 O526 1.251 . S
O514 C513 1.261 . S
H515 C509 0.930 . S
H516 C511 0.930 . S
N517 Cu506 1.985 . S
N517 C519 1.335 . S
N517 C520 1.390 . S
N518 C519 1.345 . S
N518 C521 1.336 . S
C519 N517 1.335 . S
C519 N518 1.345 . S
C519 H524 0.930 . S
C520 N517 1.390 . S
C520 C521 1.346 . S
C520 H525 0.930 . S
C521 N518 1.336 . S
C521 C520 1.346 . S
C521 H528 0.929 . S
C522 O512 1.282 . S
C522 O523 1.216 . S
O523 C522 1.216 . S
H524 C519 0.930 . S
H525 C520 0.930 . S
O526 Cu506 1.959 . S
O526 C513 1.251 . S
H527 C510 0.930 . S
H528 C521 0.929 . S
Cu529 N530 1.999 . S
Cu529 O535 1.974 . S
Cu529 N540 1.985 . S
Cu529 O549 1.959 . S
N530 Cu529 1.999 . S
N530 C532 1.263 . S
N530 C534 1.389 1_554 S
N531 C532 1.358 1_556 S
N531 C533 1.400 . S
C532 N530 1.263 . S
C532 N531 1.358 1_554 S
C532 H538 0.930 . S
C533 N531 1.400 . S
C533 C534 1.351 . S
C533 H550 0.930 . S
C534 N530 1.389 1_556 S
C534 C533 1.351 . S
C534 H539 0.930 . S
O535 Cu529 1.974 . S
O535 C545 1.282 . S
C536 O537 1.261 . S
C536 O549 1.251 . S
O537 C536 1.261 . S
H538 C532 0.930 . S
H539 C534 0.930 . S
N540 Cu529 1.985 . S
N540 C542 1.335 . S
N540 C543 1.390 . S
N541 C542 1.345 . S
N541 C544 1.336 . S
C542 N540 1.335 . S
C542 N541 1.345 . S
C542 H547 0.930 . S
C543 N540 1.390 . S
C543 C544 1.346 . S
C543 H548 0.930 . S
C544 N541 1.336 . S
C544 C543 1.346 . S
C544 H551 0.929 . S
C545 O535 1.282 . S
C545 O546 1.216 . S
O546 C545 1.216 . S
H547 C542 0.930 . S
H548 C543 0.930 . S
O549 Cu529 1.959 . S
O549 C536 1.251 . S
H550 C533 0.930 . S
H551 C544 0.929 . S
Cu552 N553 1.999 . S
Cu552 O558 1.974 . S
Cu552 N563 1.985 . S
Cu552 O572 1.959 . S
N553 Cu552 1.999 . S
N553 C555 1.263 . S
N553 C557 1.389 . S
N554 C555 1.358 . S
N554 C556 1.400 . S
C555 N553 1.263 . S
C555 N554 1.358 . S
C555 H561 0.930 . S
C556 N554 1.400 . S
C556 C557 1.351 . S
C556 H573 0.930 . S
C557 N553 1.389 . S
C557 C556 1.351 . S
C557 H562 0.930 . S
O558 Cu552 1.974 . S
O558 C568 1.282 . S
C559 O560 1.261 . S
C559 O572 1.251 . S
O560 C559 1.261 . S
H561 C555 0.930 . S
H562 C557 0.930 . S
N563 Cu552 1.985 . S
N563 C565 1.335 . S
N563 C566 1.390 . S
N564 C565 1.345 . S
N564 C567 1.336 . S
C565 N563 1.335 . S
C565 N564 1.345 . S
C565 H570 0.930 . S
C566 N563 1.390 . S
C566 C567 1.346 . S
C566 H571 0.930 . S
C567 N564 1.336 . S
C567 C566 1.346 . S
C567 H574 0.929 . S
C568 O558 1.282 . S
C568 O569 1.216 . S
O569 C568 1.216 . S
H570 C565 0.930 . S
H571 C566 0.930 . S
O572 Cu552 1.959 . S
O572 C559 1.251 . S
H573 C556 0.930 . S
H574 C567 0.929 . S
Cu575 N576 1.999 . S
Cu575 O581 1.974 . S
Cu575 N586 1.985 . S
Cu575 O595 1.959 . S
N576 Cu575 1.999 . S
N576 C578 1.263 . S
N576 C580 1.389 . S
N577 C578 1.358 . S
N577 C579 1.400 . S
C578 N576 1.263 . S
C578 N577 1.358 . S
C578 H584 0.930 . S
C579 N577 1.400 . S
C579 C580 1.351 . S
C579 H596 0.930 . S
C580 N576 1.389 . S
C580 C579 1.351 . S
C580 H585 0.930 . S
O581 Cu575 1.974 . S
O581 C591 1.282 . S
C582 O583 1.261 . S
C582 O595 1.251 . S
O583 C582 1.261 . S
H584 C578 0.930 . S
H585 C580 0.930 . S
N586 Cu575 1.985 . S
N586 C588 1.335 . S
N586 C589 1.390 . S
N587 C588 1.345 . S
N587 C590 1.336 . S
C588 N586 1.335 . S
C588 N587 1.345 . S
C588 H593 0.930 . S
C589 N586 1.390 . S
C589 C590 1.346 . S
C589 H594 0.930 . S
C590 N587 1.336 . S
C590 C589 1.346 . S
C590 H597 0.929 . S
C591 O581 1.282 . S
C591 O592 1.216 . S
O592 C591 1.216 . S
H593 C588 0.930 . S
H594 C589 0.930 . S
O595 Cu575 1.959 . S
O595 C582 1.251 . S
H596 C579 0.930 . S
H597 C590 0.929 . S
Cu598 N599 1.999 . S
Cu598 O604 1.974 . S
Cu598 N609 1.985 . S
Cu598 O618 1.959 . S
N599 Cu598 1.999 . S
N599 C601 1.263 . S
N599 C603 1.389 . S
N600 C601 1.358 . S
N600 C602 1.400 . S
C601 N599 1.263 . S
C601 N600 1.358 . S
C601 H607 0.930 . S
C602 N600 1.400 . S
C602 C603 1.351 . S
C602 H619 0.930 . S
C603 N599 1.389 . S
C603 C602 1.351 . S
C603 H608 0.930 . S
O604 Cu598 1.974 . S
O604 C614 1.282 . S
C605 O606 1.261 . S
C605 O618 1.251 . S
O606 C605 1.261 . S
H607 C601 0.930 . S
H608 C603 0.930 . S
N609 Cu598 1.985 . S
N609 C611 1.335 . S
N609 C612 1.390 . S
N610 C611 1.345 . S
N610 C613 1.336 . S
C611 N609 1.335 . S
C611 N610 1.345 . S
C611 H616 0.930 . S
C612 N609 1.390 . S
C612 C613 1.346 . S
C612 H617 0.930 . S
C613 N610 1.336 . S
C613 C612 1.346 . S
C613 H620 0.929 . S
C614 O604 1.282 . S
C614 O615 1.216 . S
O615 C614 1.216 . S
H616 C611 0.930 . S
H617 C612 0.930 . S
O618 Cu598 1.959 . S
O618 C605 1.251 . S
H619 C602 0.930 . S
H620 C613 0.929 . S
Cu621 N622 1.999 . S
Cu621 O627 1.974 . S
Cu621 N632 1.985 . S
Cu621 O641 1.959 . S
N622 Cu621 1.999 . S
N622 C624 1.263 . S
N622 C626 1.389 . S
N623 C624 1.358 . S
N623 C625 1.400 . S
C624 N622 1.263 . S
C624 N623 1.358 . S
C624 H630 0.930 . S
C625 N623 1.400 . S
C625 C626 1.351 . S
C625 H642 0.930 . S
C626 N622 1.389 . S
C626 C625 1.351 . S
C626 H631 0.930 . S
O627 Cu621 1.974 . S
O627 C637 1.282 . S
C628 O629 1.261 . S
C628 O641 1.251 . S
O629 C628 1.261 . S
H630 C624 0.930 . S
H631 C626 0.930 . S
N632 Cu621 1.985 . S
N632 C634 1.335 . S
N632 C635 1.390 . S
N633 C634 1.345 . S
N633 C636 1.336 . S
C634 N632 1.335 . S
C634 N633 1.345 . S
C634 H639 0.930 . S
C635 N632 1.390 . S
C635 C636 1.346 . S
C635 H640 0.930 . S
C636 N633 1.336 . S
C636 C635 1.346 . S
C636 H643 0.929 . S
C637 O627 1.282 . S
C637 O638 1.216 . S
O638 C637 1.216 . S
H639 C634 0.930 . S
H640 C635 0.930 . S
O641 Cu621 1.959 . S
O641 C628 1.251 . S
H642 C625 0.930 . S
H643 C636 0.929 . S
Cu644 N645 1.999 . S
Cu644 O650 1.974 . S
Cu644 N655 1.985 . S
Cu644 O664 1.959 . S
N645 Cu644 1.999 . S
N645 C647 1.263 . S
N645 C649 1.389 . S
N646 C647 1.358 . S
N646 C648 1.400 . S
C647 N645 1.263 . S
C647 N646 1.358 . S
C647 H653 0.930 . S
C648 N646 1.400 . S
C648 C649 1.351 . S
C648 H665 0.930 . S
C649 N645 1.389 . S
C649 C648 1.351 . S
C649 H654 0.930 . S
O650 Cu644 1.974 . S
O650 C660 1.282 . S
C651 O652 1.261 . S
C651 O664 1.251 . S
O652 C651 1.261 . S
H653 C647 0.930 . S
H654 C649 0.930 . S
N655 Cu644 1.985 . S
N655 C657 1.335 . S
N655 C658 1.390 . S
N656 C657 1.345 . S
N656 C659 1.336 . S
C657 N655 1.335 . S
C657 N656 1.345 . S
C657 H662 0.930 . S
C658 N655 1.390 . S
C658 C659 1.346 . S
C658 H663 0.930 . S
C659 N656 1.336 . S
C659 C658 1.346 . S
C659 H666 0.929 . S
C660 O650 1.282 . S
C660 O661 1.216 . S
O661 C660 1.216 . S
H662 C657 0.930 . S
H663 C658 0.930 . S
O664 Cu644 1.959 . S
O664 C651 1.251 . S
H665 C648 0.930 . S
H666 C659 0.929 . S
Cu667 N668 1.999 . S
Cu667 O673 1.974 . S
Cu667 N678 1.985 . S
Cu667 O687 1.959 . S
N668 Cu667 1.999 . S
N668 C670 1.263 . S
N668 C672 1.389 . S
N669 C670 1.358 . S
N669 C671 1.400 . S
C670 N668 1.263 . S
C670 N669 1.358 . S
C670 H676 0.930 . S
C671 N669 1.400 . S
C671 C672 1.351 . S
C671 H688 0.930 . S
C672 N668 1.389 . S
C672 C671 1.351 . S
C672 H677 0.930 . S
O673 Cu667 1.974 . S
O673 C683 1.282 . S
C674 O675 1.261 . S
C674 O687 1.251 . S
O675 C674 1.261 . S
H676 C670 0.930 . S
H677 C672 0.930 . S
N678 Cu667 1.985 . S
N678 C680 1.335 . S
N678 C681 1.390 . S
N679 C680 1.345 . S
N679 C682 1.336 . S
C680 N678 1.335 . S
C680 N679 1.345 . S
C680 H685 0.930 . S
C681 N678 1.390 . S
C681 C682 1.346 . S
C681 H686 0.930 . S
C682 N679 1.336 . S
C682 C681 1.346 . S
C682 H689 0.929 . S
C683 O673 1.282 . S
C683 O684 1.216 . S
O684 C683 1.216 . S
H685 C680 0.930 . S
H686 C681 0.930 . S
O687 Cu667 1.959 . S
O687 C674 1.251 . S
H688 C671 0.930 . S
H689 C682 0.929 . S
Cu690 N691 1.999 . S
Cu690 O696 1.974 . S
Cu690 N701 1.985 . S
Cu690 O710 1.959 . S
N691 Cu690 1.999 . S
N691 C693 1.263 . S
N691 C695 1.389 . S
N692 C693 1.358 . S
N692 C694 1.400 . S
C693 N691 1.263 . S
C693 N692 1.358 . S
C693 H699 0.930 . S
C694 N692 1.400 . S
C694 C695 1.351 . S
C694 H711 0.930 . S
C695 N691 1.389 . S
C695 C694 1.351 . S
C695 H700 0.930 . S
O696 Cu690 1.974 . S
O696 C706 1.282 . S
C697 O698 1.261 . S
C697 O710 1.251 . S
O698 C697 1.261 . S
H699 C693 0.930 . S
H700 C695 0.930 . S
N701 Cu690 1.985 . S
N701 C703 1.335 . S
N701 C704 1.390 . S
N702 C703 1.345 . S
N702 C705 1.336 . S
C703 N701 1.335 . S
C703 N702 1.345 . S
C703 H708 0.930 . S
C704 N701 1.390 . S
C704 C705 1.346 . S
C704 H709 0.930 . S
C705 N702 1.336 . S
C705 C704 1.346 . S
C705 H712 0.929 . S
C706 O696 1.282 . S
C706 O707 1.216 . S
O707 C706 1.216 . S
H708 C703 0.930 . S
H709 C704 0.930 . S
O710 Cu690 1.959 . S
O710 C697 1.251 . S
H711 C694 0.930 . S
H712 C705 0.929 . S
Cu713 N714 1.999 . S
Cu713 O719 1.974 . S
Cu713 N724 1.985 . S
Cu713 O733 1.959 . S
N714 Cu713 1.999 . S
N714 C716 1.263 . S
N714 C718 1.389 . S
N715 C716 1.358 . S
N715 C717 1.400 . S
C716 N714 1.263 . S
C716 N715 1.358 . S
C716 H722 0.930 . S
C717 N715 1.400 . S
C717 C718 1.351 . S
C717 H734 0.930 . S
C718 N714 1.389 . S
C718 C717 1.351 . S
C718 H723 0.930 . S
O719 Cu713 1.974 . S
O719 C729 1.282 . S
C720 O721 1.261 . S
C720 O733 1.251 . S
O721 C720 1.261 . S
H722 C716 0.930 . S
H723 C718 0.930 . S
N724 Cu713 1.985 . S
N724 C726 1.335 . S
N724 C727 1.390 . S
N725 C726 1.345 . S
N725 C728 1.336 . S
C726 N724 1.335 . S
C726 N725 1.345 . S
C726 H731 0.930 . S
C727 N724 1.390 . S
C727 C728 1.346 . S
C727 H732 0.930 . S
C728 N725 1.336 . S
C728 C727 1.346 . S
C728 H735 0.929 . S
C729 O719 1.282 . S
C729 O730 1.216 . S
O730 C729 1.216 . S
H731 C726 0.930 . S
H732 C727 0.930 . S
O733 Cu713 1.959 . S
O733 C720 1.251 . S
H734 C717 0.930 . S
H735 C728 0.929 . S
Cu736 N737 1.999 . S
Cu736 O742 1.974 . S
Cu736 N747 1.985 . S
Cu736 O756 1.959 . S
N737 Cu736 1.999 . S
N737 C739 1.263 . S
N737 C741 1.389 . S
N738 C739 1.358 . S
N738 C740 1.400 . S
C739 N737 1.263 . S
C739 N738 1.358 . S
C739 H745 0.930 . S
C740 N738 1.400 . S
C740 C741 1.351 . S
C740 H757 0.930 . S
C741 N737 1.389 . S
C741 C740 1.351 . S
C741 H746 0.930 . S
O742 Cu736 1.974 . S
O742 C752 1.282 . S
C743 O744 1.261 . S
C743 O756 1.251 . S
O744 C743 1.261 . S
H745 C739 0.930 . S
H746 C741 0.930 . S
N747 Cu736 1.985 . S
N747 C749 1.335 . S
N747 C750 1.390 . S
N748 C749 1.345 . S
N748 C751 1.336 . S
C749 N747 1.335 . S
C749 N748 1.345 . S
C749 H754 0.930 . S
C750 N747 1.390 . S
C750 C751 1.346 . S
C750 H755 0.930 . S
C751 N748 1.336 . S
C751 C750 1.346 . S
C751 H758 0.929 . S
C752 O742 1.282 . S
C752 O753 1.216 . S
O753 C752 1.216 . S
H754 C749 0.930 . S
H755 C750 0.930 . S
O756 Cu736 1.959 . S
O756 C743 1.251 . S
H757 C740 0.930 . S
H758 C751 0.929 . S
Cu759 N760 1.999 . S
Cu759 O765 1.974 . S
Cu759 N770 1.985 . S
Cu759 O779 1.959 . S
N760 Cu759 1.999 . S
N760 C762 1.263 . S
N760 C764 1.389 . S
N761 C762 1.358 . S
N761 C763 1.400 . S
C762 N760 1.263 . S
C762 N761 1.358 . S
C762 H768 0.930 . S
C763 N761 1.400 . S
C763 C764 1.351 . S
C763 H780 0.930 . S
C764 N760 1.389 . S
C764 C763 1.351 . S
C764 H769 0.930 . S
O765 Cu759 1.974 . S
O765 C775 1.282 . S
C766 O767 1.261 . S
C766 O779 1.251 . S
O767 C766 1.261 . S
H768 C762 0.930 . S
H769 C764 0.930 . S
N770 Cu759 1.985 . S
N770 C772 1.335 . S
N770 C773 1.390 . S
N771 C772 1.345 . S
N771 C774 1.336 . S
C772 N770 1.335 . S
C772 N771 1.345 . S
C772 H777 0.930 . S
C773 N770 1.390 . S
C773 C774 1.346 . S
C773 H778 0.930 . S
C774 N771 1.336 . S
C774 C773 1.346 . S
C774 H781 0.929 . S
C775 O765 1.282 . S
C775 O776 1.216 . S
O776 C775 1.216 . S
H777 C772 0.930 . S
H778 C773 0.930 . S
O779 Cu759 1.959 . S
O779 C766 1.251 . S
H780 C763 0.930 . S
H781 C774 0.929 . S
Cu782 N783 1.999 . S
Cu782 O788 1.974 . S
Cu782 N793 1.985 . S
Cu782 O802 1.959 . S
N783 Cu782 1.999 . S
N783 C785 1.263 . S
N783 C787 1.389 . S
N784 C785 1.358 . S
N784 C786 1.400 . S
C785 N783 1.263 . S
C785 N784 1.358 . S
C785 H791 0.930 . S
C786 N784 1.400 . S
C786 C787 1.351 . S
C786 H803 0.930 . S
C787 N783 1.389 . S
C787 C786 1.351 . S
C787 H792 0.930 . S
O788 Cu782 1.974 . S
O788 C798 1.282 . S
C789 O790 1.261 . S
C789 O802 1.251 . S
O790 C789 1.261 . S
H791 C785 0.930 . S
H792 C787 0.930 . S
N793 Cu782 1.985 . S
N793 C795 1.335 . S
N793 C796 1.390 . S
N794 C795 1.345 . S
N794 C797 1.336 . S
C795 N793 1.335 . S
C795 N794 1.345 . S
C795 H800 0.930 . S
C796 N793 1.390 . S
C796 C797 1.346 . S
C796 H801 0.930 . S
C797 N794 1.336 . S
C797 C796 1.346 . S
C797 H804 0.929 . S
C798 O788 1.282 . S
C798 O799 1.216 . S
O799 C798 1.216 . S
H800 C795 0.930 . S
H801 C796 0.930 . S
O802 Cu782 1.959 . S
O802 C789 1.251 . S
H803 C786 0.930 . S
H804 C797 0.929 . S
Cu805 N806 1.999 . S
Cu805 O811 1.974 . S
Cu805 N816 1.985 . S
Cu805 O825 1.959 . S
N806 Cu805 1.999 . S
N806 C808 1.263 . S
N806 C810 1.389 . S
N807 C808 1.358 . S
N807 C809 1.400 . S
C808 N806 1.263 . S
C808 N807 1.358 . S
C808 H814 0.930 . S
C809 N807 1.400 . S
C809 C810 1.351 . S
C809 H826 0.930 . S
C810 N806 1.389 . S
C810 C809 1.351 . S
C810 H815 0.930 . S
O811 Cu805 1.974 . S
O811 C821 1.282 . S
C812 O813 1.261 . S
C812 O825 1.251 . S
O813 C812 1.261 . S
H814 C808 0.930 . S
H815 C810 0.930 . S
N816 Cu805 1.985 . S
N816 C818 1.335 . S
N816 C819 1.390 . S
N817 C818 1.345 . S
N817 C820 1.336 . S
C818 N816 1.335 . S
C818 N817 1.345 . S
C818 H823 0.930 . S
C819 N816 1.390 . S
C819 C820 1.346 . S
C819 H824 0.930 . S
C820 N817 1.336 . S
C820 C819 1.346 . S
C820 H827 0.929 . S
C821 O811 1.282 . S
C821 O822 1.216 . S
O822 C821 1.216 . S
H823 C818 0.930 . S
H824 C819 0.930 . S
O825 Cu805 1.959 . S
O825 C812 1.251 . S
H826 C809 0.930 . S
H827 C820 0.929 . S
Cu828 N829 1.999 . S
Cu828 O834 1.974 . S
Cu828 N839 1.985 . S
Cu828 O848 1.959 . S
N829 Cu828 1.999 . S
N829 C831 1.263 . S
N829 C833 1.389 . S
N830 C831 1.358 . S
N830 C832 1.400 . S
C831 N829 1.263 . S
C831 N830 1.358 . S
C831 H837 0.930 . S
C832 N830 1.400 . S
C832 C833 1.351 . S
C832 H849 0.930 . S
C833 N829 1.389 . S
C833 C832 1.351 . S
C833 H838 0.930 . S
O834 Cu828 1.974 . S
O834 C844 1.282 . S
C835 O836 1.261 . S
C835 O848 1.251 . S
O836 C835 1.261 . S
H837 C831 0.930 . S
H838 C833 0.930 . S
N839 Cu828 1.985 . S
N839 C841 1.335 . S
N839 C842 1.390 . S
N840 C841 1.345 . S
N840 C843 1.336 . S
C841 N839 1.335 . S
C841 N840 1.345 . S
C841 H846 0.930 . S
C842 N839 1.390 . S
C842 C843 1.346 . S
C842 H847 0.930 . S
C843 N840 1.336 . S
C843 C842 1.346 . S
C843 H850 0.929 . S
C844 O834 1.282 . S
C844 O845 1.216 . S
O845 C844 1.216 . S
H846 C841 0.930 . S
H847 C842 0.930 . S
O848 Cu828 1.959 . S
O848 C835 1.251 . S
H849 C832 0.930 . S
H850 C843 0.929 . S
Cu851 N852 1.999 . S
Cu851 O857 1.974 . S
Cu851 N862 1.985 . S
Cu851 O871 1.959 . S
N852 Cu851 1.999 . S
N852 C854 1.263 . S
N852 C856 1.389 . S
N853 C854 1.358 . S
N853 C855 1.400 . S
C854 N852 1.263 . S
C854 N853 1.358 . S
C854 H860 0.930 . S
C855 N853 1.400 . S
C855 C856 1.351 . S
C855 H872 0.930 . S
C856 N852 1.389 . S
C856 C855 1.351 . S
C856 H861 0.930 . S
O857 Cu851 1.974 . S
O857 C867 1.282 . S
C858 O859 1.261 . S
C858 O871 1.251 . S
O859 C858 1.261 . S
H860 C854 0.930 . S
H861 C856 0.930 . S
N862 Cu851 1.985 . S
N862 C864 1.335 . S
N862 C865 1.390 . S
N863 C864 1.345 . S
N863 C866 1.336 . S
C864 N862 1.335 . S
C864 N863 1.345 . S
C864 H869 0.930 . S
C865 N862 1.390 . S
C865 C866 1.346 . S
C865 H870 0.930 . S
C866 N863 1.336 . S
C866 C865 1.346 . S
C866 H873 0.929 . S
C867 O857 1.282 . S
C867 O868 1.216 . S
O868 C867 1.216 . S
H869 C864 0.930 . S
H870 C865 0.930 . S
O871 Cu851 1.959 . S
O871 C858 1.251 . S
H872 C855 0.930 . S
H873 C866 0.929 . S
Cu874 N875 1.999 . S
Cu874 O880 1.974 . S
Cu874 N885 1.985 . S
Cu874 O894 1.959 . S
N875 Cu874 1.999 . S
N875 C877 1.263 . S
N875 C879 1.389 . S
N876 C877 1.358 . S
N876 C878 1.400 . S
C877 N875 1.263 . S
C877 N876 1.358 . S
C877 H883 0.930 . S
C878 N876 1.400 . S
C878 C879 1.351 . S
C878 H895 0.930 . S
C879 N875 1.389 . S
C879 C878 1.351 . S
C879 H884 0.930 . S
O880 Cu874 1.974 . S
O880 C890 1.282 . S
C881 O882 1.261 . S
C881 O894 1.251 . S
O882 C881 1.261 . S
H883 C877 0.930 . S
H884 C879 0.930 . S
N885 Cu874 1.985 . S
N885 C887 1.335 . S
N885 C888 1.390 . S
N886 C887 1.345 . S
N886 C889 1.336 . S
C887 N885 1.335 . S
C887 N886 1.345 . S
C887 H892 0.930 . S
C888 N885 1.390 . S
C888 C889 1.346 . S
C888 H893 0.930 . S
C889 N886 1.336 . S
C889 C888 1.346 . S
C889 H896 0.929 . S
C890 O880 1.282 . S
C890 O891 1.216 . S
O891 C890 1.216 . S
H892 C887 0.930 . S
H893 C888 0.930 . S
O894 Cu874 1.959 . S
O894 C881 1.251 . S
H895 C878 0.930 . S
H896 C889 0.929 . S
Cu897 N898 1.999 . S
Cu897 O903 1.974 . S
Cu897 N908 1.985 . S
Cu897 O917 1.959 . S
N898 Cu897 1.999 . S
N898 C900 1.263 . S
N898 C902 1.389 . S
N899 C900 1.358 . S
N899 C901 1.400 . S
C900 N898 1.263 . S
C900 N899 1.358 . S
C900 H906 0.930 . S
C901 N899 1.400 . S
C901 C902 1.351 . S
C901 H918 0.930 . S
C902 N898 1.389 . S
C902 C901 1.351 . S
C902 H907 0.930 . S
O903 Cu897 1.974 . S
O903 C913 1.282 . S
C904 O905 1.261 . S
C904 O917 1.251 . S
O905 C904 1.261 . S
H906 C900 0.930 . S
H907 C902 0.930 . S
N908 Cu897 1.985 . S
N908 C910 1.335 . S
N908 C911 1.390 . S
N909 C910 1.345 . S
N909 C912 1.336 . S
C910 N908 1.335 . S
C910 N909 1.345 . S
C910 H915 0.930 . S
C911 N908 1.390 . S
C911 C912 1.346 . S
C911 H916 0.930 . S
C912 N909 1.336 . S
C912 C911 1.346 . S
C912 H919 0.929 . S
C913 O903 1.282 . S
C913 O914 1.216 . S
O914 C913 1.216 . S
H915 C910 0.930 . S
H916 C911 0.930 . S
O917 Cu897 1.959 . S
O917 C904 1.251 . S
H918 C901 0.930 . S
H919 C912 0.929 . S
Cu920 N921 1.999 . S
Cu920 O926 1.974 . S
Cu920 N931 1.985 . S
Cu920 O940 1.959 . S
N921 Cu920 1.999 . S
N921 C923 1.263 . S
N921 C925 1.389 . S
N922 C923 1.358 . S
N922 C924 1.400 . S
C923 N921 1.263 . S
C923 N922 1.358 . S
C923 H929 0.930 . S
C924 N922 1.400 . S
C924 C925 1.351 . S
C924 H941 0.930 . S
C925 N921 1.389 . S
C925 C924 1.351 . S
C925 H930 0.930 . S
O926 Cu920 1.974 . S
O926 C936 1.282 . S
C927 O928 1.261 . S
C927 O940 1.251 . S
O928 C927 1.261 . S
H929 C923 0.930 . S
H930 C925 0.930 . S
N931 Cu920 1.985 . S
N931 C933 1.335 . S
N931 C934 1.390 . S
N932 C933 1.345 . S
N932 C935 1.336 . S
C933 N931 1.335 . S
C933 N932 1.345 . S
C933 H938 0.930 . S
C934 N931 1.390 . S
C934 C935 1.346 . S
C934 H939 0.930 . S
C935 N932 1.336 . S
C935 C934 1.346 . S
C935 H942 0.929 . S
C936 O926 1.282 . S
C936 O937 1.216 . S
O937 C936 1.216 . S
H938 C933 0.930 . S
H939 C934 0.930 . S
O940 Cu920 1.959 . S
O940 C927 1.251 . S
H941 C924 0.930 . S
H942 C935 0.929 . S
Cu943 N944 1.999 . S
Cu943 O949 1.974 . S
Cu943 N954 1.985 . S
Cu943 O963 1.959 . S
N944 Cu943 1.999 . S
N944 C946 1.263 . S
N944 C948 1.389 . S
N945 C946 1.358 . S
N945 C947 1.400 . S
C946 N944 1.263 . S
C946 N945 1.358 . S
C946 H952 0.930 . S
C947 N945 1.400 . S
C947 C948 1.351 . S
C947 H964 0.930 . S
C948 N944 1.389 . S
C948 C947 1.351 . S
C948 H953 0.930 . S
O949 Cu943 1.974 . S
O949 C959 1.282 . S
C950 O951 1.261 . S
C950 O963 1.251 . S
O951 C950 1.261 . S
H952 C946 0.930 . S
H953 C948 0.930 . S
N954 Cu943 1.985 . S
N954 C956 1.335 . S
N954 C957 1.390 . S
N955 C956 1.345 . S
N955 C958 1.336 . S
C956 N954 1.335 . S
C956 N955 1.345 . S
C956 H961 0.930 . S
C957 N954 1.390 . S
C957 C958 1.346 . S
C957 H962 0.930 . S
C958 N955 1.336 . S
C958 C957 1.346 . S
C958 H965 0.929 . S
C959 O949 1.282 . S
C959 O960 1.216 . S
O960 C959 1.216 . S
H961 C956 0.930 . S
H962 C957 0.930 . S
O963 Cu943 1.959 . S
O963 C950 1.251 . S
H964 C947 0.930 . S
H965 C958 0.929 . S
Cu966 N967 1.999 . S
Cu966 O972 1.974 . S
Cu966 N977 1.985 . S
Cu966 O986 1.959 . S
N967 Cu966 1.999 . S
N967 C969 1.263 . S
N967 C971 1.389 . S
N968 C969 1.358 . S
N968 C970 1.400 . S
C969 N967 1.263 . S
C969 N968 1.358 . S
C969 H975 0.930 . S
C970 N968 1.400 . S
C970 C971 1.351 . S
C970 H987 0.930 . S
C971 N967 1.389 . S
C971 C970 1.351 . S
C971 H976 0.930 . S
O972 Cu966 1.974 . S
O972 C982 1.282 . S
C973 O974 1.261 . S
C973 O986 1.251 . S
O974 C973 1.261 . S
H975 C969 0.930 . S
H976 C971 0.930 . S
N977 Cu966 1.985 . S
N977 C979 1.335 . S
N977 C980 1.390 . S
N978 C979 1.345 . S
N978 C981 1.336 . S
C979 N977 1.335 . S
C979 N978 1.345 . S
C979 H984 0.930 . S
C980 N977 1.390 . S
C980 C981 1.346 . S
C980 H985 0.930 . S
C981 N978 1.336 . S
C981 C980 1.346 . S
C981 H988 0.929 . S
C982 O972 1.282 . S
C982 O983 1.216 . S
O983 C982 1.216 . S
H984 C979 0.930 . S
H985 C980 0.930 . S
O986 Cu966 1.959 . S
O986 C973 1.251 . S
H987 C970 0.930 . S
H988 C981 0.929 . S
Cu989 N990 1.999 . S
Cu989 O995 1.974 . S
Cu989 N1000 1.985 . S
Cu989 O1009 1.959 . S
N990 Cu989 1.999 . S
N990 C992 1.263 . S
N990 C994 1.389 . S
N991 C992 1.358 . S
N991 C993 1.400 . S
C992 N990 1.263 . S
C992 N991 1.358 . S
C992 H998 0.930 . S
C993 N991 1.400 . S
C993 C994 1.351 . S
C993 H1010 0.930 . S
C994 N990 1.389 . S
C994 C993 1.351 . S
C994 H999 0.930 . S
O995 Cu989 1.974 . S
O995 C1005 1.282 . S
C996 O997 1.261 . S
C996 O1009 1.251 . S
O997 C996 1.261 . S
H998 C992 0.930 . S
H999 C994 0.930 . S
N1000 Cu989 1.985 . S
N1000 C1002 1.335 . S
N1000 C1003 1.390 . S
N1001 C1002 1.345 . S
N1001 C1004 1.336 . S
C1002 N1000 1.335 . S
C1002 N1001 1.345 . S
C1002 H1007 0.930 . S
C1003 N1000 1.390 . S
C1003 C1004 1.346 . S
C1003 H1008 0.930 . S
C1004 N1001 1.336 . S
C1004 C1003 1.346 . S
C1004 H1011 0.929 . S
C1005 O995 1.282 . S
C1005 O1006 1.216 . S
O1006 C1005 1.216 . S
H1007 C1002 0.930 . S
H1008 C1003 0.930 . S
O1009 Cu989 1.959 . S
O1009 C996 1.251 . S
H1010 C993 0.930 . S
H1011 C1004 0.929 . S
Cu1012 N1013 1.999 . S
Cu1012 O1018 1.974 . S
Cu1012 N1023 1.985 . S
Cu1012 O1032 1.959 . S
N1013 Cu1012 1.999 . S
N1013 C1015 1.263 . S
N1013 C1017 1.389 . S
N1014 C1015 1.358 . S
N1014 C1016 1.400 . S
C1015 N1013 1.263 . S
C1015 N1014 1.358 . S
C1015 H1021 0.930 . S
C1016 N1014 1.400 . S
C1016 C1017 1.351 . S
C1016 H1033 0.930 . S
C1017 N1013 1.389 . S
C1017 C1016 1.351 . S
C1017 H1022 0.930 . S
O1018 Cu1012 1.974 . S
O1018 C1028 1.282 . S
C1019 O1020 1.261 . S
C1019 O1032 1.251 . S
O1020 C1019 1.261 . S
H1021 C1015 0.930 . S
H1022 C1017 0.930 . S
N1023 Cu1012 1.985 . S
N1023 C1025 1.335 . S
N1023 C1026 1.390 . S
N1024 C1025 1.345 . S
N1024 C1027 1.336 . S
C1025 N1023 1.335 . S
C1025 N1024 1.345 . S
C1025 H1030 0.930 . S
C1026 N1023 1.390 . S
C1026 C1027 1.346 . S
C1026 H1031 0.930 . S
C1027 N1024 1.336 . S
C1027 C1026 1.346 . S
C1027 H1034 0.929 . S
C1028 O1018 1.282 . S
C1028 O1029 1.216 . S
O1029 C1028 1.216 . S
H1030 C1025 0.930 . S
H1031 C1026 0.930 . S
O1032 Cu1012 1.959 . S
O1032 C1019 1.251 . S
H1033 C1016 0.930 . S
H1034 C1027 0.929 . S
Cu1035 N1036 1.999 . S
Cu1035 O1041 1.974 . S
Cu1035 N1046 1.985 . S
Cu1035 O1055 1.959 . S
N1036 Cu1035 1.999 . S
N1036 C1038 1.263 . S
N1036 C1040 1.389 . S
N1037 C1038 1.358 . S
N1037 C1039 1.400 . S
C1038 N1036 1.263 . S
C1038 N1037 1.358 . S
C1038 H1044 0.930 . S
C1039 N1037 1.400 . S
C1039 C1040 1.351 . S
C1039 H1056 0.930 . S
C1040 N1036 1.389 . S
C1040 C1039 1.351 . S
C1040 H1045 0.930 . S
O1041 Cu1035 1.974 . S
O1041 C1051 1.282 . S
C1042 O1043 1.261 . S
C1042 O1055 1.251 . S
O1043 C1042 1.261 . S
H1044 C1038 0.930 . S
H1045 C1040 0.930 . S
N1046 Cu1035 1.985 . S
N1046 C1048 1.335 . S
N1046 C1049 1.390 . S
N1047 C1048 1.345 . S
N1047 C1050 1.336 . S
C1048 N1046 1.335 . S
C1048 N1047 1.345 . S
C1048 H1053 0.930 . S
C1049 N1046 1.390 . S
C1049 C1050 1.346 . S
C1049 H1054 0.930 . S
C1050 N1047 1.336 . S
C1050 C1049 1.346 . S
C1050 H1057 0.929 . S
C1051 O1041 1.282 . S
C1051 O1052 1.216 . S
O1052 C1051 1.216 . S
H1053 C1048 0.930 . S
H1054 C1049 0.930 . S
O1055 Cu1035 1.959 . S
O1055 C1042 1.251 . S
H1056 C1039 0.930 . S
H1057 C1050 0.929 . S
Cu1058 N1059 1.999 . S
Cu1058 O1064 1.974 . S
Cu1058 N1069 1.985 . S
Cu1058 O1078 1.959 . S
N1059 Cu1058 1.999 . S
N1059 C1061 1.263 . S
N1059 C1063 1.389 . S
N1060 C1061 1.358 . S
N1060 C1062 1.400 . S
C1061 N1059 1.263 . S
C1061 N1060 1.358 . S
C1061 H1067 0.930 . S
C1062 N1060 1.400 . S
C1062 C1063 1.351 . S
C1062 H1079 0.930 . S
C1063 N1059 1.389 . S
C1063 C1062 1.351 . S
C1063 H1068 0.930 . S
O1064 Cu1058 1.974 . S
O1064 C1074 1.282 . S
C1065 O1066 1.261 . S
C1065 O1078 1.251 . S
O1066 C1065 1.261 . S
H1067 C1061 0.930 . S
H1068 C1063 0.930 . S
N1069 Cu1058 1.985 . S
N1069 C1071 1.335 . S
N1069 C1072 1.390 . S
N1070 C1071 1.345 . S
N1070 C1073 1.336 . S
C1071 N1069 1.335 . S
C1071 N1070 1.345 . S
C1071 H1076 0.930 . S
C1072 N1069 1.390 . S
C1072 C1073 1.346 . S
C1072 H1077 0.930 . S
C1073 N1070 1.336 . S
C1073 C1072 1.346 . S
C1073 H1080 0.929 . S
C1074 O1064 1.282 . S
C1074 O1075 1.216 . S
O1075 C1074 1.216 . S
H1076 C1071 0.930 . S
H1077 C1072 0.930 . S
O1078 Cu1058 1.959 . S
O1078 C1065 1.251 . S
H1079 C1062 0.930 . S
H1080 C1073 0.929 . S
Cu1081 N1082 1.999 . S
Cu1081 O1087 1.974 . S
Cu1081 N1092 1.985 . S
Cu1081 O1101 1.959 . S
N1082 Cu1081 1.999 . S
N1082 C1084 1.263 . S
N1082 C1086 1.389 . S
N1083 C1084 1.358 . S
N1083 C1085 1.400 . S
C1084 N1082 1.263 . S
C1084 N1083 1.358 . S
C1084 H1090 0.930 . S
C1085 N1083 1.400 . S
C1085 C1086 1.351 . S
C1085 H1102 0.930 . S
C1086 N1082 1.389 . S
C1086 C1085 1.351 . S
C1086 H1091 0.930 . S
O1087 Cu1081 1.974 . S
O1087 C1097 1.282 . S
C1088 O1089 1.261 . S
C1088 O1101 1.251 . S
O1089 C1088 1.261 . S
H1090 C1084 0.930 . S
H1091 C1086 0.930 . S
N1092 Cu1081 1.985 . S
N1092 C1094 1.335 . S
N1092 C1095 1.390 . S
N1093 C1094 1.345 . S
N1093 C1096 1.336 . S
C1094 N1092 1.335 . S
C1094 N1093 1.345 . S
C1094 H1099 0.930 . S
C1095 N1092 1.390 . S
C1095 C1096 1.346 . S
C1095 H1100 0.930 . S
C1096 N1093 1.336 . S
C1096 C1095 1.346 . S
C1096 H1103 0.929 . S
C1097 O1087 1.282 . S
C1097 O1098 1.216 . S
O1098 C1097 1.216 . S
H1099 C1094 0.930 . S
H1100 C1095 0.930 . S
O1101 Cu1081 1.959 . S
O1101 C1088 1.251 . S
H1102 C1085 0.930 . S
H1103 C1096 0.929 . S
H1104 C1110 0.930 . S
H1105 C1113 0.930 . S
H1106 C1114 0.930 . S
H1107 C1115 0.930 . S
H1108 C1118 0.930 . S
H1109 C1119 0.930 . S
C1110 H1104 0.930 . S
C1110 C1111 1.355 . S
C1110 C1112 1.415 . S
C1111 C1110 1.355 . S
C1111 C1113 1.419 . S
C1112 C1110 1.415 . S
C1112 C1117 1.425 . S
C1112 C1119 1.409 . S
C1113 H1105 0.930 . S
C1113 C1111 1.419 . S
C1113 C1114 1.362 . S
C1114 H1106 0.930 . S
C1114 C1113 1.362 . S
C1114 C1117 1.409 . S
C1115 H1107 0.930 . S
C1115 C1116 1.355 . S
C1115 C1117 1.415 . S
C1116 C1115 1.355 . S
C1116 C1118 1.419 . S
C1117 C1112 1.425 . S
C1117 C1114 1.409 . S
C1117 C1115 1.415 . S
C1118 H1108 0.930 . S
C1118 C1116 1.419 . S
C1118 C1119 1.362 . S
C1119 H1109 0.930 . S
C1119 C1112 1.409 . S
C1119 C1118 1.362 . S
H1120 C1126 0.930 . S
H1121 C1129 0.930 . S
H1122 C1130 0.930 . S
H1123 C1131 0.930 . S
H1124 C1134 0.930 . S
H1125 C1135 0.930 . S
C1126 H1120 0.930 . S
C1126 C1127 1.355 . S
C1126 C1128 1.415 . S
C1127 C1126 1.355 . S
C1127 C1129 1.419 . S
C1128 C1126 1.415 . S
C1128 C1133 1.425 . S
C1128 C1135 1.409 . S
C1129 H1121 0.930 . S
C1129 C1127 1.419 . S
C1129 C1130 1.362 . S
C1130 H1122 0.930 . S
C1130 C1129 1.362 . S
C1130 C1133 1.409 . S
C1131 H1123 0.930 . S
C1131 C1132 1.355 . S
C1131 C1133 1.415 . S
C1132 C1131 1.355 . S
C1132 C1134 1.419 . S
C1133 C1128 1.425 . S
C1133 C1130 1.409 . S
C1133 C1131 1.415 . S
C1134 H1124 0.930 . S
C1134 C1132 1.419 . S
C1134 C1135 1.362 . S
C1135 H1125 0.930 . S
C1135 C1128 1.409 . S
C1135 C1134 1.362 . S
H1136 C1142 0.930 . S
H1137 C1145 0.930 . S
H1138 C1146 0.930 . S
H1139 C1147 0.930 . S
H1140 C1150 0.930 . S
H1141 C1151 0.930 . S
C1142 H1136 0.930 . S
C1142 C1143 1.355 . S
C1142 C1144 1.415 . S
C1143 C1142 1.355 . S
C1143 C1145 1.419 . S
C1144 C1142 1.415 . S
C1144 C1149 1.425 . S
C1144 C1151 1.409 . S
C1145 H1137 0.930 . S
C1145 C1143 1.419 . S
C1145 C1146 1.362 . S
C1146 H1138 0.930 . S
C1146 C1145 1.362 . S
C1146 C1149 1.409 . S
C1147 H1139 0.930 . S
C1147 C1148 1.355 . S
C1147 C1149 1.415 . S
C1148 C1147 1.355 . S
C1148 C1150 1.419 . S
C1149 C1144 1.425 . S
C1149 C1146 1.409 . S
C1149 C1147 1.415 . S
C1150 H1140 0.930 . S
C1150 C1148 1.419 . S
C1150 C1151 1.362 . S
C1151 H1141 0.930 . S
C1151 C1144 1.409 . S
C1151 C1150 1.362 . S
H1152 C1158 0.930 . S
H1153 C1161 0.930 . S
H1154 C1162 0.930 . S
H1155 C1163 0.930 . S
H1156 C1166 0.930 . S
H1157 C1167 0.930 . S
C1158 H1152 0.930 . S
C1158 C1159 1.355 . S
C1158 C1160 1.415 . S
C1159 C1158 1.355 . S
C1159 C1161 1.419 . S
C1160 C1158 1.415 . S
C1160 C1165 1.425 . S
C1160 C1167 1.409 . S
C1161 H1153 0.930 . S
C1161 C1159 1.419 . S
C1161 C1162 1.362 . S
C1162 H1154 0.930 . S
C1162 C1161 1.362 . S
C1162 C1165 1.409 . S
C1163 H1155 0.930 . S
C1163 C1164 1.355 . S
C1163 C1165 1.415 . S
C1164 C1163 1.355 . S
C1164 C1166 1.419 . S
C1165 C1160 1.425 . S
C1165 C1162 1.409 . S
C1165 C1163 1.415 . S
C1166 H1156 0.930 . S
C1166 C1164 1.419 . S
C1166 C1167 1.362 . S
C1167 H1157 0.930 . S
C1167 C1160 1.409 . S
C1167 C1166 1.362 . S
H1168 C1174 0.930 . S
H1169 C1177 0.930 . S
H1170 C1178 0.930 . S
H1171 C1179 0.930 . S
H1172 C1182 0.930 . S
H1173 C1183 0.930 . S
C1174 H1168 0.930 . S
C1174 C1175 1.355 . S
C1174 C1176 1.415 . S
C1175 C1174 1.355 . S
C1175 C1177 1.419 . S
C1176 C1174 1.415 . S
C1176 C1181 1.425 . S
C1176 C1183 1.409 . S
C1177 H1169 0.930 . S
C1177 C1175 1.419 . S
C1177 C1178 1.362 . S
C1178 H1170 0.930 . S
C1178 C1177 1.362 . S
C1178 C1181 1.409 . S
C1179 H1171 0.930 . S
C1179 C1180 1.355 . S
C1179 C1181 1.415 . S
C1180 C1179 1.355 . S
C1180 C1182 1.419 . S
C1181 C1176 1.425 . S
C1181 C1178 1.409 . S
C1181 C1179 1.415 . S
C1182 H1172 0.930 . S
C1182 C1180 1.419 . S
C1182 C1183 1.362 . S
C1183 H1173 0.930 . S
C1183 C1176 1.409 . S
C1183 C1182 1.362 . S
H1184 C1190 0.930 . S
H1185 C1193 0.930 . S
H1186 C1194 0.930 . S
H1187 C1195 0.930 . S
H1188 C1198 0.930 . S
H1189 C1199 0.930 . S
C1190 H1184 0.930 . S
C1190 C1191 1.355 . S
C1190 C1192 1.415 . S
C1191 C1190 1.355 . S
C1191 C1193 1.419 . S
C1192 C1190 1.415 . S
C1192 C1197 1.425 . S
C1192 C1199 1.409 . S
C1193 H1185 0.930 . S
C1193 C1191 1.419 . S
C1193 C1194 1.362 . S
C1194 H1186 0.930 . S
C1194 C1193 1.362 . S
C1194 C1197 1.409 . S
C1195 H1187 0.930 . S
C1195 C1196 1.355 . S
C1195 C1197 1.415 . S
C1196 C1195 1.355 . S
C1196 C1198 1.419 . S
C1197 C1192 1.425 . S
C1197 C1194 1.409 . S
C1197 C1195 1.415 . S
C1198 H1188 0.930 . S
C1198 C1196 1.419 . S
C1198 C1199 1.362 . S
C1199 H1189 0.930 . S
C1199 C1192 1.409 . S
C1199 C1198 1.362 . S
H1200 C1206 0.930 . S
H1201 C1209 0.930 . S
H1202 C1210 0.930 . S
H1203 C1211 0.930 . S
H1204 C1214 0.930 . S
H1205 C1215 0.930 . S
C1206 H1200 0.930 . S
C1206 C1207 1.355 . S
C1206 C1208 1.415 . S
C1207 C1206 1.355 . S
C1207 C1209 1.419 . S
C1208 C1206 1.415 . S
C1208 C1213 1.425 . S
C1208 C1215 1.409 . S
C1209 H1201 0.930 . S
C1209 C1207 1.419 . S
C1209 C1210 1.362 . S
C1210 H1202 0.930 . S
C1210 C1209 1.362 . S
C1210 C1213 1.409 . S
C1211 H1203 0.930 . S
C1211 C1212 1.355 . S
C1211 C1213 1.415 . S
C1212 C1211 1.355 . S
C1212 C1214 1.419 . S
C1213 C1208 1.425 . S
C1213 C1210 1.409 . S
C1213 C1211 1.415 . S
C1214 H1204 0.930 . S
C1214 C1212 1.419 . S
C1214 C1215 1.362 . S
C1215 H1205 0.930 . S
C1215 C1208 1.409 . S
C1215 C1214 1.362 . S
H1216 C1222 0.930 . S
H1217 C1225 0.930 . S
H1218 C1226 0.930 . S
H1219 C1227 0.930 . S
H1220 C1230 0.930 . S
H1221 C1231 0.930 . S
C1222 H1216 0.930 . S
C1222 C1223 1.355 . S
C1222 C1224 1.415 . S
C1223 C1222 1.355 . S
C1223 C1225 1.419 . S
C1224 C1222 1.415 . S
C1224 C1229 1.425 . S
C1224 C1231 1.409 . S
C1225 H1217 0.930 . S
C1225 C1223 1.419 . S
C1225 C1226 1.362 . S
C1226 H1218 0.930 . S
C1226 C1225 1.362 . S
C1226 C1229 1.409 . S
C1227 H1219 0.930 . S
C1227 C1228 1.355 . S
C1227 C1229 1.415 . S
C1228 C1227 1.355 . S
C1228 C1230 1.419 . S
C1229 C1224 1.425 . S
C1229 C1226 1.409 . S
C1229 C1227 1.415 . S
C1230 H1220 0.930 . S
C1230 C1228 1.419 . S
C1230 C1231 1.362 . S
C1231 H1221 0.930 . S
C1231 C1224 1.409 . S
C1231 C1230 1.362 . S
H1232 C1238 0.930 . S
H1233 C1241 0.930 . S
H1234 C1242 0.930 . S
H1235 C1243 0.930 . S
H1236 C1246 0.930 . S
H1237 C1247 0.930 . S
C1238 H1232 0.930 . S
C1238 C1239 1.355 . S
C1238 C1240 1.415 . S
C1239 C1238 1.355 . S
C1239 C1241 1.419 . S
C1240 C1238 1.415 . S
C1240 C1245 1.425 . S
C1240 C1247 1.409 . S
C1241 H1233 0.930 . S
C1241 C1239 1.419 . S
C1241 C1242 1.362 . S
C1242 H1234 0.930 . S
C1242 C1241 1.362 . S
C1242 C1245 1.409 . S
C1243 H1235 0.930 . S
C1243 C1244 1.355 . S
C1243 C1245 1.415 . S
C1244 C1243 1.355 . S
C1244 C1246 1.419 . S
C1245 C1240 1.425 . S
C1245 C1242 1.409 . S
C1245 C1243 1.415 . S
C1246 H1236 0.930 . S
C1246 C1244 1.419 . S
C1246 C1247 1.362 . S
C1247 H1237 0.930 . S
C1247 C1240 1.409 . S
C1247 C1246 1.362 . S
H1248 C1254 0.930 . S
H1249 C1257 0.930 . S
H1250 C1258 0.930 . S
H1251 C1259 0.930 . S
H1252 C1262 0.930 . S
H1253 C1263 0.930 . S
C1254 H1248 0.930 . S
C1254 C1255 1.355 . S
C1254 C1256 1.415 . S
C1255 C1254 1.355 . S
C1255 C1257 1.419 . S
C1256 C1254 1.415 . S
C1256 C1261 1.425 . S
C1256 C1263 1.409 . S
C1257 H1249 0.930 . S
C1257 C1255 1.419 . S
C1257 C1258 1.362 . S
C1258 H1250 0.930 . S
C1258 C1257 1.362 . S
C1258 C1261 1.409 . S
C1259 H1251 0.930 . S
C1259 C1260 1.355 . S
C1259 C1261 1.415 . S
C1260 C1259 1.355 . S
C1260 C1262 1.419 . S
C1261 C1256 1.425 . S
C1261 C1258 1.409 . S
C1261 C1259 1.415 . S
C1262 H1252 0.930 . S
C1262 C1260 1.419 . S
C1262 C1263 1.362 . S
C1263 H1253 0.930 . S
C1263 C1256 1.409 . S
C1263 C1262 1.362 . S
H1264 C1270 0.930 . S
H1265 C1273 0.930 . S
H1266 C1274 0.930 . S
H1267 C1275 0.930 . S
H1268 C1278 0.930 . S
H1269 C1279 0.930 . S
C1270 H1264 0.930 . S
C1270 C1271 1.355 . S
C1270 C1272 1.415 . S
C1271 C1270 1.355 . S
C1271 C1273 1.419 . S
C1272 C1270 1.415 . S
C1272 C1277 1.425 . S
C1272 C1279 1.409 . S
C1273 H1265 0.930 . S
C1273 C1271 1.419 . S
C1273 C1274 1.362 . S
C1274 H1266 0.930 . S
C1274 C1273 1.362 . S
C1274 C1277 1.409 . S
C1275 H1267 0.930 . S
C1275 C1276 1.355 . S
C1275 C1277 1.415 . S
C1276 C1275 1.355 . S
C1276 C1278 1.419 . S
C1277 C1272 1.425 . S
C1277 C1274 1.409 . S
C1277 C1275 1.415 . S
C1278 H1268 0.930 . S
C1278 C1276 1.419 . S
C1278 C1279 1.362 . S
C1279 H1269 0.930 . S
C1279 C1272 1.409 . S
C1279 C1278 1.362 . S
H1280 C1286 0.930 . S
H1281 C1289 0.930 . S
H1282 C1290 0.930 . S
H1283 C1291 0.930 . S
H1284 C1294 0.930 . S
H1285 C1295 0.930 . S
C1286 H1280 0.930 . S
C1286 C1287 1.355 . S
C1286 C1288 1.415 . S
C1287 C1286 1.355 . S
C1287 C1289 1.419 . S
C1288 C1286 1.415 . S
C1288 C1293 1.425 . S
C1288 C1295 1.409 . S
C1289 H1281 0.930 . S
C1289 C1287 1.419 . S
C1289 C1290 1.362 . S
C1290 H1282 0.930 . S
C1290 C1289 1.362 . S
C1290 C1293 1.409 . S
C1291 H1283 0.930 . S
C1291 C1292 1.355 . S
C1291 C1293 1.415 . S
C1292 C1291 1.355 . S
C1292 C1294 1.419 . S
C1293 C1288 1.425 . S
C1293 C1290 1.409 . S
C1293 C1291 1.415 . S
C1294 H1284 0.930 . S
C1294 C1292 1.419 . S
C1294 C1295 1.362 . S
C1295 H1285 0.930 . S
C1295 C1288 1.409 . S
C1295 C1294 1.362 . S
H1296 C1302 0.930 . S
H1297 C1305 0.930 . S
H1298 C1306 0.930 . S
H1299 C1307 0.930 . S
H1300 C1310 0.930 . S
H1301 C1311 0.930 . S
C1302 H1296 0.930 . S
C1302 C1303 1.355 . S
C1302 C1304 1.415 . S
C1303 C1302 1.355 . S
C1303 C1305 1.419 . S
C1304 C1302 1.415 . S
C1304 C1309 1.425 . S
C1304 C1311 1.409 . S
C1305 H1297 0.930 . S
C1305 C1303 1.419 . S
C1305 C1306 1.362 . S
C1306 H1298 0.930 . S
C1306 C1305 1.362 . S
C1306 C1309 1.409 . S
C1307 H1299 0.930 . S
C1307 C1308 1.355 . S
C1307 C1309 1.415 . S
C1308 C1307 1.355 . S
C1308 C1310 1.419 . S
C1309 C1304 1.425 . S
C1309 C1306 1.409 . S
C1309 C1307 1.415 . S
C1310 H1300 0.930 . S
C1310 C1308 1.419 . S
C1310 C1311 1.362 . S
C1311 H1301 0.930 . S
C1311 C1304 1.409 . S
C1311 C1310 1.362 . S
H1312 C1318 0.930 . S
H1313 C1321 0.930 . S
H1314 C1322 0.930 . S
H1315 C1323 0.930 . S
H1316 C1326 0.930 . S
H1317 C1327 0.930 . S
C1318 H1312 0.930 . S
C1318 C1319 1.355 . S
C1318 C1320 1.415 . S
C1319 C1318 1.355 . S
C1319 C1321 1.419 . S
C1320 C1318 1.415 . S
C1320 C1325 1.425 . S
C1320 C1327 1.409 . S
C1321 H1313 0.930 . S
C1321 C1319 1.419 . S
C1321 C1322 1.362 . S
C1322 H1314 0.930 . S
C1322 C1321 1.362 . S
C1322 C1325 1.409 . S
C1323 H1315 0.930 . S
C1323 C1324 1.355 . S
C1323 C1325 1.415 . S
C1324 C1323 1.355 . S
C1324 C1326 1.419 . S
C1325 C1320 1.425 . S
C1325 C1322 1.409 . S
C1325 C1323 1.415 . S
C1326 H1316 0.930 . S
C1326 C1324 1.419 . S
C1326 C1327 1.362 . S
C1327 H1317 0.930 . S
C1327 C1320 1.409 . S
C1327 C1326 1.362 . S
H1328 C1334 0.930 . S
H1329 C1337 0.930 . S
H1330 C1338 0.930 . S
H1331 C1339 0.930 . S
H1332 C1342 0.930 . S
H1333 C1343 0.930 . S
C1334 H1328 0.930 . S
C1334 C1335 1.355 . S
C1334 C1336 1.415 . S
C1335 C1334 1.355 . S
C1335 C1337 1.419 . S
C1336 C1334 1.415 . S
C1336 C1341 1.425 . S
C1336 C1343 1.409 . S
C1337 H1329 0.930 . S
C1337 C1335 1.419 . S
C1337 C1338 1.362 . S
C1338 H1330 0.930 . S
C1338 C1337 1.362 . S
C1338 C1341 1.409 . S
C1339 H1331 0.930 . S
C1339 C1340 1.355 . S
C1339 C1341 1.415 . S
C1340 C1339 1.355 . S
C1340 C1342 1.419 . S
C1341 C1336 1.425 . S
C1341 C1338 1.409 . S
C1341 C1339 1.415 . S
C1342 H1332 0.930 . S
C1342 C1340 1.419 . S
C1342 C1343 1.362 . S
C1343 H1333 0.930 . S
C1343 C1336 1.409 . S
C1343 C1342 1.362 . S
H1344 C1350 0.930 . S
H1345 C1353 0.930 . S
H1346 C1354 0.930 . S
H1347 C1355 0.930 . S
H1348 C1358 0.930 . S
H1349 C1359 0.930 . S
C1350 H1344 0.930 . S
C1350 C1351 1.355 . S
C1350 C1352 1.415 . S
C1351 C1350 1.355 . S
C1351 C1353 1.419 . S
C1352 C1350 1.415 . S
C1352 C1357 1.425 . S
C1352 C1359 1.409 . S
C1353 H1345 0.930 . S
C1353 C1351 1.419 . S
C1353 C1354 1.362 . S
C1354 H1346 0.930 . S
C1354 C1353 1.362 . S
C1354 C1357 1.409 . S
C1355 H1347 0.930 . S
C1355 C1356 1.355 . S
C1355 C1357 1.415 . S
C1356 C1355 1.355 . S
C1356 C1358 1.419 . S
C1357 C1352 1.425 . S
C1357 C1354 1.409 . S
C1357 C1355 1.415 . S
C1358 H1348 0.930 . S
C1358 C1356 1.419 . S
C1358 C1359 1.362 . S
C1359 H1349 0.930 . S
C1359 C1352 1.409 . S
C1359 C1358 1.362 . S
H1360 C1366 0.930 . S
H1361 C1369 0.930 . S
H1362 C1370 0.930 . S
H1363 C1371 0.930 . S
H1364 C1374 0.930 . S
H1365 C1375 0.930 . S
C1366 H1360 0.930 . S
C1366 C1367 1.355 . S
C1366 C1368 1.415 . S
C1367 C1366 1.355 . S
C1367 C1369 1.419 . S
C1368 C1366 1.415 . S
C1368 C1373 1.425 . S
C1368 C1375 1.409 . S
C1369 H1361 0.930 . S
C1369 C1367 1.419 . S
C1369 C1370 1.362 . S
C1370 H1362 0.930 . S
C1370 C1369 1.362 . S
C1370 C1373 1.409 . S
C1371 H1363 0.930 . S
C1371 C1372 1.355 . S
C1371 C1373 1.415 . S
C1372 C1371 1.355 . S
C1372 C1374 1.419 . S
C1373 C1368 1.425 . S
C1373 C1370 1.409 . S
C1373 C1371 1.415 . S
C1374 H1364 0.930 . S
C1374 C1372 1.419 . S
C1374 C1375 1.362 . S
C1375 H1365 0.930 . S
C1375 C1368 1.409 . S
C1375 C1374 1.362 . S
H1376 C1382 0.930 . S
H1377 C1385 0.930 . S
H1378 C1386 0.930 . S
H1379 C1387 0.930 . S
H1380 C1390 0.930 . S
H1381 C1391 0.930 . S
C1382 H1376 0.930 . S
C1382 C1383 1.355 . S
C1382 C1384 1.415 . S
C1383 C1382 1.355 . S
C1383 C1385 1.419 . S
C1384 C1382 1.415 . S
C1384 C1389 1.425 . S
C1384 C1391 1.409 . S
C1385 H1377 0.930 . S
C1385 C1383 1.419 . S
C1385 C1386 1.362 . S
C1386 H1378 0.930 . S
C1386 C1385 1.362 . S
C1386 C1389 1.409 . S
C1387 H1379 0.930 . S
C1387 C1388 1.355 . S
C1387 C1389 1.415 . S
C1388 C1387 1.355 . S
C1388 C1390 1.419 . S
C1389 C1384 1.425 . S
C1389 C1386 1.409 . S
C1389 C1387 1.415 . S
C1390 H1380 0.930 . S
C1390 C1388 1.419 . S
C1390 C1391 1.362 . S
C1391 H1381 0.930 . S
C1391 C1384 1.409 . S
C1391 C1390 1.362 . S
H1392 C1398 0.930 . S
H1393 C1401 0.930 . S
H1394 C1402 0.930 . S
H1395 C1403 0.930 . S
H1396 C1406 0.930 . S
H1397 C1407 0.930 . S
C1398 H1392 0.930 . S
C1398 C1399 1.355 . S
C1398 C1400 1.415 . S
C1399 C1398 1.355 . S
C1399 C1401 1.419 . S
C1400 C1398 1.415 . S
C1400 C1405 1.425 . S
C1400 C1407 1.409 . S
C1401 H1393 0.930 . S
C1401 C1399 1.419 . S
C1401 C1402 1.362 . S
C1402 H1394 0.930 . S
C1402 C1401 1.362 . S
C1402 C1405 1.409 . S
C1403 H1395 0.930 . S
C1403 C1404 1.355 . S
C1403 C1405 1.415 . S
C1404 C1403 1.355 . S
C1404 C1406 1.419 . S
C1405 C1400 1.425 . S
C1405 C1402 1.409 . S
C1405 C1403 1.415 . S
C1406 H1396 0.930 . S
C1406 C1404 1.419 . S
C1406 C1407 1.362 . S
C1407 H1397 0.930 . S
C1407 C1400 1.409 . S
C1407 C1406 1.362 . S
H1408 C1414 0.930 . S
H1409 C1417 0.930 . S
H1410 C1418 0.930 . S
H1411 C1419 0.930 . S
H1412 C1422 0.930 . S
H1413 C1423 0.930 . S
C1414 H1408 0.930 . S
C1414 C1415 1.355 . S
C1414 C1416 1.415 . S
C1415 C1414 1.355 . S
C1415 C1417 1.419 . S
C1416 C1414 1.415 . S
C1416 C1421 1.425 . S
C1416 C1423 1.409 . S
C1417 H1409 0.930 . S
C1417 C1415 1.419 . S
C1417 C1418 1.362 . S
C1418 H1410 0.930 . S
C1418 C1417 1.362 . S
C1418 C1421 1.409 . S
C1419 H1411 0.930 . S
C1419 C1420 1.355 . S
C1419 C1421 1.415 . S
C1420 C1419 1.355 . S
C1420 C1422 1.419 . S
C1421 C1416 1.425 . S
C1421 C1418 1.409 . S
C1421 C1419 1.415 . S
C1422 H1412 0.930 . S
C1422 C1420 1.419 . S
C1422 C1423 1.362 . S
C1423 H1413 0.930 . S
C1423 C1416 1.409 . S
C1423 C1422 1.362 . S
H1424 C1430 0.930 . S
H1425 C1433 0.930 . S
H1426 C1434 0.930 . S
H1427 C1435 0.930 . S
H1428 C1438 0.930 . S
H1429 C1439 0.930 . S
C1430 H1424 0.930 . S
C1430 C1431 1.355 . S
C1430 C1432 1.415 . S
C1431 C1430 1.355 . S
C1431 C1433 1.419 . S
C1432 C1430 1.415 . S
C1432 C1437 1.425 . S
C1432 C1439 1.409 . S
C1433 H1425 0.930 . S
C1433 C1431 1.419 . S
C1433 C1434 1.362 . S
C1434 H1426 0.930 . S
C1434 C1433 1.362 . S
C1434 C1437 1.409 . S
C1435 H1427 0.930 . S
C1435 C1436 1.355 . S
C1435 C1437 1.415 . S
C1436 C1435 1.355 . S
C1436 C1438 1.419 . S
C1437 C1432 1.425 . S
C1437 C1434 1.409 . S
C1437 C1435 1.415 . S
C1438 H1428 0.930 . S
C1438 C1436 1.419 . S
C1438 C1439 1.362 . S
C1439 H1429 0.930 . S
C1439 C1432 1.409 . S
C1439 C1438 1.362 . S
H1440 C1446 0.930 . S
H1441 C1449 0.930 . S
H1442 C1450 0.930 . S
H1443 C1451 0.930 . S
H1444 C1454 0.930 . S
H1445 C1455 0.930 . S
C1446 H1440 0.930 . S
C1446 C1447 1.355 . S
C1446 C1448 1.415 . S
C1447 C1446 1.355 . S
C1447 C1449 1.419 . S
C1448 C1446 1.415 . S
C1448 C1453 1.425 . S
C1448 C1455 1.409 . S
C1449 H1441 0.930 . S
C1449 C1447 1.419 . S
C1449 C1450 1.362 . S
C1450 H1442 0.930 . S
C1450 C1449 1.362 . S
C1450 C1453 1.409 . S
C1451 H1443 0.930 . S
C1451 C1452 1.355 . S
C1451 C1453 1.415 . S
C1452 C1451 1.355 . S
C1452 C1454 1.419 . S
C1453 C1448 1.425 . S
C1453 C1450 1.409 . S
C1453 C1451 1.415 . S
C1454 H1444 0.930 . S
C1454 C1452 1.419 . S
C1454 C1455 1.362 . S
C1455 H1445 0.930 . S
C1455 C1448 1.409 . S
C1455 C1454 1.362 . S
H1456 C1462 0.930 . S
H1457 C1465 0.930 . S
H1458 C1466 0.930 . S
H1459 C1467 0.930 . S
H1460 C1470 0.930 . S
H1461 C1471 0.930 . S
C1462 H1456 0.930 . S
C1462 C1463 1.355 . S
C1462 C1464 1.415 . S
C1463 C1462 1.355 . S
C1463 C1465 1.419 . S
C1464 C1462 1.415 . S
C1464 C1469 1.425 . S
C1464 C1471 1.409 . S
C1465 H1457 0.930 . S
C1465 C1463 1.419 . S
C1465 C1466 1.362 . S
C1466 H1458 0.930 . S
C1466 C1465 1.362 . S
C1466 C1469 1.409 . S
C1467 H1459 0.930 . S
C1467 C1468 1.355 . S
C1467 C1469 1.415 . S
C1468 C1467 1.355 . S
C1468 C1470 1.419 . S
C1469 C1464 1.425 . S
C1469 C1466 1.409 . S
C1469 C1467 1.415 . S
C1470 H1460 0.930 . S
C1470 C1468 1.419 . S
C1470 C1471 1.362 . S
C1471 H1461 0.930 . S
C1471 C1464 1.409 . S
C1471 C1470 1.362 . S
H1472 C1478 0.930 . S
H1473 C1481 0.930 . S
H1474 C1482 0.930 . S
H1475 C1483 0.930 . S
H1476 C1486 0.930 . S
H1477 C1487 0.930 . S
C1478 H1472 0.930 . S
C1478 C1479 1.355 . S
C1478 C1480 1.415 . S
C1479 C1478 1.355 . S
C1479 C1481 1.419 . S
C1480 C1478 1.415 . S
C1480 C1485 1.425 . S
C1480 C1487 1.409 . S
C1481 H1473 0.930 . S
C1481 C1479 1.419 . S
C1481 C1482 1.362 . S
C1482 H1474 0.930 . S
C1482 C1481 1.362 . S
C1482 C1485 1.409 . S
C1483 H1475 0.930 . S
C1483 C1484 1.355 . S
C1483 C1485 1.415 . S
C1484 C1483 1.355 . S
C1484 C1486 1.419 . S
C1485 C1480 1.425 . S
C1485 C1482 1.409 . S
C1485 C1483 1.415 . S
C1486 H1476 0.930 . S
C1486 C1484 1.419 . S
C1486 C1487 1.362 . S
C1487 H1477 0.930 . S
C1487 C1480 1.409 . S
C1487 C1486 1.362 . S
H1488 C1494 0.930 . S
H1489 C1497 0.930 . S
H1490 C1498 0.930 . S
H1491 C1499 0.930 . S
H1492 C1502 0.930 . S
H1493 C1503 0.930 . S
C1494 H1488 0.930 . S
C1494 C1495 1.355 1_655 S
C1494 C1496 1.415 . S
C1495 C1494 1.355 1_455 S
C1495 C1497 1.419 . S
C1496 C1494 1.415 . S
C1496 C1501 1.425 1_655 S
C1496 C1503 1.409 . S
C1497 H1489 0.930 . S
C1497 C1495 1.419 . S
C1497 C1498 1.362 . S
C1498 H1490 0.930 . S
C1498 C1497 1.362 . S
C1498 C1501 1.409 . S
C1499 H1491 0.930 . S
C1499 C1500 1.355 1_455 S
C1499 C1501 1.415 . S
C1500 C1499 1.355 1_655 S
C1500 C1502 1.419 . S
C1501 C1496 1.425 1_455 S
C1501 C1498 1.409 . S
C1501 C1499 1.415 . S
C1502 H1492 0.930 . S
C1502 C1500 1.419 . S
C1502 C1503 1.362 . S
C1503 H1493 0.930 . S
C1503 C1496 1.409 . S
C1503 C1502 1.362 . S
H1504 C1510 0.930 . S
H1505 C1513 0.930 . S
H1506 C1514 0.930 . S
H1507 C1515 0.930 . S
H1508 C1518 0.930 . S
H1509 C1519 0.930 . S
C1510 H1504 0.930 . S
C1510 C1511 1.355 . S
C1510 C1512 1.415 . S
C1511 C1510 1.355 . S
C1511 C1513 1.419 1_565 S
C1512 C1510 1.415 . S
C1512 C1517 1.425 . S
C1512 C1519 1.409 . S
C1513 H1505 0.930 . S
C1513 C1511 1.419 1_545 S
C1513 C1514 1.362 . S
C1514 H1506 0.930 . S
C1514 C1513 1.362 . S
C1514 C1517 1.409 1_545 S
C1515 H1507 0.930 . S
C1515 C1516 1.355 1_545 S
C1515 C1517 1.415 1_545 S
C1516 C1515 1.355 1_565 S
C1516 C1518 1.419 . S
C1517 C1512 1.425 . S
C1517 C1514 1.409 1_565 S
C1517 C1515 1.415 1_565 S
C1518 H1508 0.930 . S
C1518 C1516 1.419 . S
C1518 C1519 1.362 . S
C1519 H1509 0.930 . S
C1519 C1512 1.409 . S
C1519 C1518 1.362 . S
H1520 C1526 0.930 . S
H1521 C1529 0.930 . S
H1522 C1530 0.930 . S
H1523 C1531 0.930 . S
H1524 C1534 0.930 . S
H1525 C1535 0.930 . S
C1526 H1520 0.930 . S
C1526 C1527 1.355 1_655 S
C1526 C1528 1.415 . S
C1527 C1526 1.355 1_455 S
C1527 C1529 1.419 . S
C1528 C1526 1.415 . S
C1528 C1533 1.425 1_655 S
C1528 C1535 1.409 . S
C1529 H1521 0.930 . S
C1529 C1527 1.419 . S
C1529 C1530 1.362 . S
C1530 H1522 0.930 . S
C1530 C1529 1.362 . S
C1530 C1533 1.409 . S
C1531 H1523 0.930 . S
C1531 C1532 1.355 1_455 S
C1531 C1533 1.415 . S
C1532 C1531 1.355 1_655 S
C1532 C1534 1.419 . S
C1533 C1528 1.425 1_455 S
C1533 C1530 1.409 . S
C1533 C1531 1.415 . S
C1534 H1524 0.930 . S
C1534 C1532 1.419 . S
C1534 C1535 1.362 . S
C1535 H1525 0.930 . S
C1535 C1528 1.409 . S
C1535 C1534 1.362 . S
H1536 C1542 0.930 . S
H1537 C1545 0.930 . S
H1538 C1546 0.930 . S
H1539 C1547 0.930 . S
H1540 C1550 0.930 . S
H1541 C1551 0.930 . S
C1542 H1536 0.930 . S
C1542 C1543 1.355 . S
C1542 C1544 1.415 . S
C1543 C1542 1.355 . S
C1543 C1545 1.419 . S
C1544 C1542 1.415 . S
C1544 C1549 1.425 . S
C1544 C1551 1.409 . S
C1545 H1537 0.930 . S
C1545 C1543 1.419 . S
C1545 C1546 1.362 . S
C1546 H1538 0.930 . S
C1546 C1545 1.362 . S
C1546 C1549 1.409 . S
C1547 H1539 0.930 . S
C1547 C1548 1.355 . S
C1547 C1549 1.415 . S
C1548 C1547 1.355 . S
C1548 C1550 1.419 . S
C1549 C1544 1.425 . S
C1549 C1546 1.409 . S
C1549 C1547 1.415 . S
C1550 H1540 0.930 . S
C1550 C1548 1.419 . S
C1550 C1551 1.362 . S
C1551 H1541 0.930 . S
C1551 C1544 1.409 . S
C1551 C1550 1.362 . S
H1552 C1558 0.930 . S
H1553 C1561 0.930 . S
H1554 C1562 0.930 . S
H1555 C1563 0.930 . S
H1556 C1566 0.930 . S
H1557 C1567 0.930 . S
C1558 H1552 0.930 . S
C1558 C1559 1.355 1_655 S
C1558 C1560 1.415 . S
C1559 C1558 1.355 1_455 S
C1559 C1561 1.419 . S
C1560 C1558 1.415 . S
C1560 C1565 1.425 1_655 S
C1560 C1567 1.409 . S
C1561 H1553 0.930 . S
C1561 C1559 1.419 . S
C1561 C1562 1.362 . S
C1562 H1554 0.930 . S
C1562 C1561 1.362 . S
C1562 C1565 1.409 . S
C1563 H1555 0.930 . S
C1563 C1564 1.355 1_455 S
C1563 C1565 1.415 . S
C1564 C1563 1.355 1_655 S
C1564 C1566 1.419 . S
C1565 C1560 1.425 1_455 S
C1565 C1562 1.409 . S
C1565 C1563 1.415 . S
C1566 H1556 0.930 . S
C1566 C1564 1.419 . S
C1566 C1567 1.362 . S
C1567 H1557 0.930 . S
C1567 C1560 1.409 . S
C1567 C1566 1.362 . S
H1568 C1574 0.930 . S
H1569 C1577 0.930 . S
H1570 C1578 0.930 . S
H1571 C1579 0.930 . S
H1572 C1582 0.930 . S
H1573 C1583 0.930 . S
C1574 H1568 0.930 . S
C1574 C1575 1.355 . S
C1574 C1576 1.415 . S
C1575 C1574 1.355 . S
C1575 C1577 1.419 . S
C1576 C1574 1.415 . S
C1576 C1581 1.425 . S
C1576 C1583 1.409 . S
C1577 H1569 0.930 . S
C1577 C1575 1.419 . S
C1577 C1578 1.362 . S
C1578 H1570 0.930 . S
C1578 C1577 1.362 . S
C1578 C1581 1.409 . S
C1579 H1571 0.930 . S
C1579 C1580 1.355 . S
C1579 C1581 1.415 . S
C1580 C1579 1.355 . S
C1580 C1582 1.419 . S
C1581 C1576 1.425 . S
C1581 C1578 1.409 . S
C1581 C1579 1.415 . S
C1582 H1572 0.930 . S
C1582 C1580 1.419 . S
C1582 C1583 1.362 . S
C1583 H1573 0.930 . S
C1583 C1576 1.409 . S
C1583 C1582 1.362 . S
H1584 C1590 0.930 . S
H1585 C1593 0.930 . S
H1586 C1594 0.930 . S
H1587 C1595 0.930 . S
H1588 C1598 0.930 . S
H1589 C1599 0.930 . S
C1590 H1584 0.930 . S
C1590 C1591 1.354 1_455 S
C1590 C1592 1.414 . S
C1591 C1590 1.354 1_655 S
C1591 C1593 1.419 . S
C1592 C1590 1.414 . S
C1592 C1597 1.420 1_455 S
C1592 C1599 1.416 . S
C1593 H1585 0.930 . S
C1593 C1591 1.419 . S
C1593 C1594 1.362 . S
C1594 H1586 0.930 . S
C1594 C1593 1.362 . S
C1594 C1597 1.416 . S
C1595 H1587 0.930 . S
C1595 C1596 1.354 1_655 S
C1595 C1597 1.414 . S
C1596 C1595 1.354 1_455 S
C1596 C1598 1.419 . S
C1597 C1592 1.420 1_655 S
C1597 C1594 1.416 . S
C1597 C1595 1.414 . S
C1598 H1588 0.930 . S
C1598 C1596 1.419 . S
C1598 C1599 1.362 . S
C1599 H1589 0.930 . S
C1599 C1592 1.416 . S
C1599 C1598 1.362 . S
H1600 C1606 0.930 . S
H1601 C1609 0.930 1_565 S
H1602 C1610 0.930 . S
H1603 C1611 0.930 . S
H1604 C1614 0.930 . S
H1605 C1615 0.930 . S
C1606 H1600 0.930 . S
C1606 C1607 1.355 . S
C1606 C1608 1.415 . S
C1607 C1606 1.355 . S
C1607 C1609 1.419 . S
C1608 C1606 1.415 . S
C1608 C1613 1.425 . S
C1608 C1615 1.409 . S
C1609 H1601 0.930 1_545 S
C1609 C1607 1.419 . S
C1609 C1610 1.362 1_545 S
C1610 H1602 0.930 . S
C1610 C1609 1.362 1_565 S
C1610 C1613 1.409 1_565 S
C1611 H1603 0.930 . S
C1611 C1612 1.355 1_565 S
C1611 C1613 1.415 1_565 S
C1612 C1611 1.355 1_545 S
C1612 C1614 1.419 . S
C1613 C1608 1.425 . S
C1613 C1610 1.409 1_545 S
C1613 C1611 1.415 1_545 S
C1614 H1604 0.930 . S
C1614 C1612 1.419 . S
C1614 C1615 1.362 . S
C1615 H1605 0.930 . S
C1615 C1608 1.409 . S
C1615 C1614 1.362 . S
H1616 C1622 0.930 . S
H1617 C1625 0.930 . S
H1618 C1626 0.930 1_554 S
H1619 C1627 0.951 . S
H1620 C1630 0.930 . S
H1621 C1631 0.930 . S
C1622 H1616 0.930 . S
C1622 C1623 1.355 . S
C1622 C1624 1.415 . S
C1623 C1622 1.355 . S
C1623 C1625 1.419 . S
C1624 C1622 1.415 . S
C1624 C1629 1.425 . S
C1624 C1631 1.409 . S
C1625 H1617 0.930 . S
C1625 C1623 1.419 . S
C1625 C1626 1.362 . S
C1626 H1618 0.930 1_556 S
C1626 C1625 1.362 . S
C1626 C1629 1.409 . S
C1627 H1619 0.951 . S
C1627 C1628 1.347 1_554 S
C1627 C1629 1.403 1_554 S
C1628 C1627 1.347 1_556 S
C1628 C1630 1.419 . S
C1629 C1624 1.425 . S
C1629 C1626 1.409 . S
C1629 C1627 1.403 1_556 S
C1630 H1620 0.930 . S
C1630 C1628 1.419 . S
C1630 C1631 1.362 . S
C1631 H1621 0.930 . S
C1631 C1624 1.409 . S
C1631 C1630 1.362 . S
H1632 C1638 0.930 1_556 S
H1633 C1641 0.930 . S
H1634 C1642 0.930 . S
H1635 C1643 0.930 . S
H1636 C1646 0.930 . S
H1637 C1647 0.930 . S
C1638 H1632 0.930 1_554 S
C1638 C1639 1.355 . S
C1638 C1640 1.415 . S
C1639 C1638 1.355 . S
C1639 C1641 1.419 . S
C1640 C1638 1.415 . S
C1640 C1645 1.425 . S
C1640 C1647 1.409 1_554 S
C1641 H1633 0.930 . S
C1641 C1639 1.419 . S
C1641 C1642 1.362 . S
C1642 H1634 0.930 . S
C1642 C1641 1.362 . S
C1642 C1645 1.409 . S
C1643 H1635 0.930 . S
C1643 C1644 1.355 . S
C1643 C1645 1.415 . S
C1644 C1643 1.355 . S
C1644 C1646 1.419 1_554 S
C1645 C1640 1.425 . S
C1645 C1642 1.409 . S
C1645 C1643 1.415 . S
C1646 H1636 0.930 . S
C1646 C1644 1.419 1_556 S
C1646 C1647 1.362 . S
C1647 H1637 0.930 . S
C1647 C1640 1.409 1_556 S
C1647 C1646 1.362 . S
H1648 C1654 0.930 . S
H1649 C1657 0.930 . S
H1650 C1658 0.930 . S
H1651 C1659 0.930 . S
H1652 C1662 0.930 . S
H1653 C1663 0.930 . S
C1654 H1648 0.930 . S
C1654 C1655 1.355 . S
C1654 C1656 1.415 . S
C1655 C1654 1.355 . S
C1655 C1657 1.419 1_554 S
C1656 C1654 1.415 . S
C1656 C1661 1.425 . S
C1656 C1663 1.409 . S
C1657 H1649 0.930 . S
C1657 C1655 1.419 1_556 S
C1657 C1658 1.362 . S
C1658 H1650 0.930 . S
C1658 C1657 1.362 . S
C1658 C1661 1.409 1_556 S
C1659 H1651 0.930 . S
C1659 C1660 1.355 1_556 S
C1659 C1661 1.415 1_556 S
C1660 C1659 1.355 1_554 S
C1660 C1662 1.419 . S
C1661 C1656 1.425 . S
C1661 C1658 1.409 1_554 S
C1661 C1659 1.415 1_554 S
C1662 H1652 0.930 . S
C1662 C1660 1.419 . S
C1662 C1663 1.362 . S
C1663 H1653 0.930 . S
C1663 C1656 1.409 . S
C1663 C1662 1.362 . S
H1664 C1670 0.930 . S
H1665 C1673 0.930 . S
H1666 C1674 0.930 . S
H1667 C1675 0.933 . S
H1668 C1678 0.930 . S
H1669 C1679 0.930 . S
C1670 H1664 0.930 . S
C1670 C1671 1.355 . S
C1670 C1672 1.415 . S
C1671 C1670 1.355 . S
C1671 C1673 1.419 . S
C1672 C1670 1.415 . S
C1672 C1677 1.425 . S
C1672 C1679 1.409 . S
C1673 H1665 0.930 . S
C1673 C1671 1.419 . S
C1673 C1674 1.362 . S
C1674 H1666 0.930 . S
C1674 C1673 1.362 . S
C1674 C1677 1.409 . S
C1675 H1667 0.933 . S
C1675 C1676 1.355 . S
C1675 C1677 1.415 . S
C1676 C1675 1.355 . S
C1676 C1678 1.419 . S
C1677 C1672 1.425 . S
C1677 C1674 1.409 . S
C1677 C1675 1.415 . S
C1678 H1668 0.930 . S
C1678 C1676 1.419 . S
C1678 C1679 1.362 . S
C1679 H1669 0.930 . S
C1679 C1672 1.409 . S
C1679 C1678 1.362 . S
H1680 C1686 0.930 . S
H1681 C1689 0.930 . S
H1682 C1690 0.930 . S
H1683 C1691 0.930 . S
H1684 C1694 0.930 . S
H1685 C1695 0.930 . S
C1686 H1680 0.930 . S
C1686 C1687 1.355 . S
C1686 C1688 1.415 . S
C1687 C1686 1.355 . S
C1687 C1689 1.419 . S
C1688 C1686 1.415 . S
C1688 C1693 1.425 . S
C1688 C1695 1.409 . S
C1689 H1681 0.930 . S
C1689 C1687 1.419 . S
C1689 C1690 1.362 . S
C1690 H1682 0.930 . S
C1690 C1689 1.362 . S
C1690 C1693 1.409 . S
C1691 H1683 0.930 . S
C1691 C1692 1.355 . S
C1691 C1693 1.415 . S
C1692 C1691 1.355 . S
C1692 C1694 1.419 . S
C1693 C1688 1.425 . S
C1693 C1690 1.409 . S
C1693 C1691 1.415 . S
C1694 H1684 0.930 . S
C1694 C1692 1.419 . S
C1694 C1695 1.362 . S
C1695 H1685 0.930 . S
C1695 C1688 1.409 . S
C1695 C1694 1.362 . S
H1696 C1702 0.930 . S
H1697 C1705 0.930 . S
H1698 C1706 0.930 . S
H1699 C1707 0.930 . S
H1700 C1710 0.930 . S
H1701 C1711 0.930 . S
C1702 H1696 0.930 . S
C1702 C1703 1.355 . S
C1702 C1704 1.415 . S
C1703 C1702 1.355 . S
C1703 C1705 1.419 . S
C1704 C1702 1.415 . S
C1704 C1709 1.425 . S
C1704 C1711 1.409 . S
C1705 H1697 0.930 . S
C1705 C1703 1.419 . S
C1705 C1706 1.362 . S
C1706 H1698 0.930 . S
C1706 C1705 1.362 . S
C1706 C1709 1.409 . S
C1707 H1699 0.930 . S
C1707 C1708 1.355 . S
C1707 C1709 1.415 . S
C1708 C1707 1.355 . S
C1708 C1710 1.419 . S
C1709 C1704 1.425 . S
C1709 C1706 1.409 . S
C1709 C1707 1.415 . S
C1710 H1700 0.930 . S
C1710 C1708 1.419 . S
C1710 C1711 1.362 . S
C1711 H1701 0.930 . S
C1711 C1704 1.409 . S
C1711 C1710 1.362 . S
H1712 C1718 0.930 . S
H1713 C1721 0.930 . S
H1714 C1722 0.930 . S
H1715 C1723 0.930 . S
H1716 C1726 0.930 . S
H1717 C1727 0.930 . S
C1718 H1712 0.930 . S
C1718 C1719 1.355 . S
C1718 C1720 1.415 . S
C1719 C1718 1.355 . S
C1719 C1721 1.419 . S
C1720 C1718 1.415 . S
C1720 C1725 1.425 . S
C1720 C1727 1.409 . S
C1721 H1713 0.930 . S
C1721 C1719 1.419 . S
C1721 C1722 1.362 . S
C1722 H1714 0.930 . S
C1722 C1721 1.362 . S
C1722 C1725 1.409 . S
C1723 H1715 0.930 . S
C1723 C1724 1.355 . S
C1723 C1725 1.415 . S
C1724 C1723 1.355 . S
C1724 C1726 1.419 . S
C1725 C1720 1.425 . S
C1725 C1722 1.409 . S
C1725 C1723 1.415 . S
C1726 H1716 0.930 . S
C1726 C1724 1.419 . S
C1726 C1727 1.362 . S
C1727 H1717 0.930 . S
C1727 C1720 1.409 . S
C1727 C1726 1.362 . S
H1728 C1734 0.930 . S
H1729 C1737 0.930 . S
H1730 C1738 0.930 . S
H1731 C1739 0.930 . S
H1732 C1742 0.930 . S
H1733 C1743 0.930 . S
C1734 H1728 0.930 . S
C1734 C1735 1.355 . S
C1734 C1736 1.415 . S
C1735 C1734 1.355 . S
C1735 C1737 1.419 . S
C1736 C1734 1.415 . S
C1736 C1741 1.425 . S
C1736 C1743 1.409 . S
C1737 H1729 0.930 . S
C1737 C1735 1.419 . S
C1737 C1738 1.362 . S
C1738 H1730 0.930 . S
C1738 C1737 1.362 . S
C1738 C1741 1.409 . S
C1739 H1731 0.930 . S
C1739 C1740 1.355 . S
C1739 C1741 1.415 . S
C1740 C1739 1.355 . S
C1740 C1742 1.419 . S
C1741 C1736 1.425 . S
C1741 C1738 1.409 . S
C1741 C1739 1.415 . S
C1742 H1732 0.930 . S
C1742 C1740 1.419 . S
C1742 C1743 1.362 . S
C1743 H1733 0.930 . S
C1743 C1736 1.409 . S
C1743 C1742 1.362 . S
H1744 C1750 0.930 . S
H1745 C1753 0.930 . S
H1746 C1754 0.930 . S
H1747 C1755 0.930 . S
H1748 C1758 0.930 . S
H1749 C1759 0.930 . S
C1750 H1744 0.930 . S
C1750 C1751 1.355 . S
C1750 C1752 1.415 . S
C1751 C1750 1.355 . S
C1751 C1753 1.419 . S
C1752 C1750 1.415 . S
C1752 C1757 1.425 . S
C1752 C1759 1.409 . S
C1753 H1745 0.930 . S
C1753 C1751 1.419 . S
C1753 C1754 1.362 . S
C1754 H1746 0.930 . S
C1754 C1753 1.362 . S
C1754 C1757 1.409 . S
C1755 H1747 0.930 . S
C1755 C1756 1.355 . S
C1755 C1757 1.415 . S
C1756 C1755 1.355 . S
C1756 C1758 1.419 . S
C1757 C1752 1.425 . S
C1757 C1754 1.409 . S
C1757 C1755 1.415 . S
C1758 H1748 0.930 . S
C1758 C1756 1.419 . S
C1758 C1759 1.362 . S
C1759 H1749 0.930 . S
C1759 C1752 1.409 . S
C1759 C1758 1.362 . S
H1760 C1766 0.930 . S
H1761 C1769 0.930 . S
H1762 C1770 0.930 . S
H1763 C1771 0.930 . S
H1764 C1774 0.930 . S
H1765 C1775 0.930 . S
C1766 H1760 0.930 . S
C1766 C1767 1.355 . S
C1766 C1768 1.415 . S
C1767 C1766 1.355 . S
C1767 C1769 1.419 . S
C1768 C1766 1.415 . S
C1768 C1773 1.425 . S
C1768 C1775 1.409 . S
C1769 H1761 0.930 . S
C1769 C1767 1.419 . S
C1769 C1770 1.362 . S
C1770 H1762 0.930 . S
C1770 C1769 1.362 . S
C1770 C1773 1.409 . S
C1771 H1763 0.930 . S
C1771 C1772 1.355 . S
C1771 C1773 1.415 . S
C1772 C1771 1.355 . S
C1772 C1774 1.419 . S
C1773 C1768 1.425 . S
C1773 C1770 1.409 . S
C1773 C1771 1.415 . S
C1774 H1764 0.930 . S
C1774 C1772 1.419 . S
C1774 C1775 1.362 . S
C1775 H1765 0.930 . S
C1775 C1768 1.409 . S
C1775 C1774 1.362 . S
H1776 C1782 0.930 . S
H1777 C1785 0.930 . S
H1778 C1786 0.930 . S
H1779 C1787 0.930 . S
H1780 C1790 0.930 . S
H1781 C1791 0.930 . S
C1782 H1776 0.930 . S
C1782 C1783 1.355 . S
C1782 C1784 1.415 . S
C1783 C1782 1.355 . S
C1783 C1785 1.419 . S
C1784 C1782 1.415 . S
C1784 C1789 1.425 . S
C1784 C1791 1.409 . S
C1785 H1777 0.930 . S
C1785 C1783 1.419 . S
C1785 C1786 1.362 . S
C1786 H1778 0.930 . S
C1786 C1785 1.362 . S
C1786 C1789 1.409 . S
C1787 H1779 0.930 . S
C1787 C1788 1.355 . S
C1787 C1789 1.415 . S
C1788 C1787 1.355 . S
C1788 C1790 1.419 . S
C1789 C1784 1.425 . S
C1789 C1786 1.409 . S
C1789 C1787 1.415 . S
C1790 H1780 0.930 . S
C1790 C1788 1.419 . S
C1790 C1791 1.362 . S
C1791 H1781 0.930 . S
C1791 C1784 1.409 . S
C1791 C1790 1.362 . S
H1792 C1798 0.930 . S
H1793 C1801 0.930 . S
H1794 C1802 0.930 . S
H1795 C1803 0.930 . S
H1796 C1806 0.930 . S
H1797 C1807 0.930 . S
C1798 H1792 0.930 . S
C1798 C1799 1.355 . S
C1798 C1800 1.415 . S
C1799 C1798 1.355 . S
C1799 C1801 1.419 . S
C1800 C1798 1.415 . S
C1800 C1805 1.425 . S
C1800 C1807 1.409 . S
C1801 H1793 0.930 . S
C1801 C1799 1.419 . S
C1801 C1802 1.362 . S
C1802 H1794 0.930 . S
C1802 C1801 1.362 . S
C1802 C1805 1.409 . S
C1803 H1795 0.930 . S
C1803 C1804 1.355 . S
C1803 C1805 1.415 . S
C1804 C1803 1.355 . S
C1804 C1806 1.419 . S
C1805 C1800 1.425 . S
C1805 C1802 1.409 . S
C1805 C1803 1.415 . S
C1806 H1796 0.930 . S
C1806 C1804 1.419 . S
C1806 C1807 1.362 . S
C1807 H1797 0.930 . S
C1807 C1800 1.409 . S
C1807 C1806 1.362 . S
H1808 C1814 0.930 . S
H1809 C1817 0.930 . S
H1810 C1818 0.930 . S
H1811 C1819 0.930 . S
H1812 C1822 0.930 . S
H1813 C1823 0.930 . S
C1814 H1808 0.930 . S
C1814 C1815 1.355 . S
C1814 C1816 1.415 . S
C1815 C1814 1.355 . S
C1815 C1817 1.419 . S
C1816 C1814 1.415 . S
C1816 C1821 1.425 . S
C1816 C1823 1.409 . S
C1817 H1809 0.930 . S
C1817 C1815 1.419 . S
C1817 C1818 1.362 . S
C1818 H1810 0.930 . S
C1818 C1817 1.362 . S
C1818 C1821 1.409 . S
C1819 H1811 0.930 . S
C1819 C1820 1.355 . S
C1819 C1821 1.415 . S
C1820 C1819 1.355 . S
C1820 C1822 1.419 . S
C1821 C1816 1.425 . S
C1821 C1818 1.409 . S
C1821 C1819 1.415 . S
C1822 H1812 0.930 . S
C1822 C1820 1.419 . S
C1822 C1823 1.362 . S
C1823 H1813 0.930 . S
C1823 C1816 1.409 . S
C1823 C1822 1.362 . S
H1824 C1830 0.930 . S
H1825 C1833 0.930 . S
H1826 C1834 0.930 . S
H1827 C1835 0.930 . S
H1828 C1838 0.930 . S
H1829 C1839 0.930 . S
C1830 H1824 0.930 . S
C1830 C1831 1.355 . S
C1830 C1832 1.415 . S
C1831 C1830 1.355 . S
C1831 C1833 1.419 . S
C1832 C1830 1.415 . S
C1832 C1837 1.425 . S
C1832 C1839 1.409 . S
C1833 H1825 0.930 . S
C1833 C1831 1.419 . S
C1833 C1834 1.362 . S
C1834 H1826 0.930 . S
C1834 C1833 1.362 . S
C1834 C1837 1.409 . S
C1835 H1827 0.930 . S
C1835 C1836 1.355 . S
C1835 C1837 1.415 . S
C1836 C1835 1.355 . S
C1836 C1838 1.419 . S
C1837 C1832 1.425 . S
C1837 C1834 1.409 . S
C1837 C1835 1.415 . S
C1838 H1828 0.930 . S
C1838 C1836 1.419 . S
C1838 C1839 1.362 . S
C1839 H1829 0.930 . S
C1839 C1832 1.409 . S
C1839 C1838 1.362 . S
H1840 C1846 0.930 . S
H1841 C1849 0.930 . S
H1842 C1850 0.930 . S
H1843 C1851 0.930 . S
H1844 C1854 0.930 . S
H1845 C1855 0.930 . S
C1846 H1840 0.930 . S
C1846 C1847 1.355 . S
C1846 C1848 1.415 . S
C1847 C1846 1.355 . S
C1847 C1849 1.419 . S
C1848 C1846 1.415 . S
C1848 C1853 1.425 . S
C1848 C1855 1.409 . S
C1849 H1841 0.930 . S
C1849 C1847 1.419 . S
C1849 C1850 1.362 . S
C1850 H1842 0.930 . S
C1850 C1849 1.362 . S
C1850 C1853 1.409 . S
C1851 H1843 0.930 . S
C1851 C1852 1.355 . S
C1851 C1853 1.415 . S
C1852 C1851 1.355 . S
C1852 C1854 1.419 . S
C1853 C1848 1.425 . S
C1853 C1850 1.409 . S
C1853 C1851 1.415 . S
C1854 H1844 0.930 . S
C1854 C1852 1.419 . S
C1854 C1855 1.362 . S
C1855 H1845 0.930 . S
C1855 C1848 1.409 . S
C1855 C1854 1.362 . S
H1856 C1862 0.930 . S
H1857 C1865 0.930 . S
H1858 C1866 0.930 . S
H1859 C1867 0.930 . S
H1860 C1870 0.930 . S
H1861 C1871 0.930 . S
C1862 H1856 0.930 . S
C1862 C1863 1.355 . S
C1862 C1864 1.415 . S
C1863 C1862 1.355 . S
C1863 C1865 1.419 . S
C1864 C1862 1.415 . S
C1864 C1869 1.425 . S
C1864 C1871 1.409 . S
C1865 H1857 0.930 . S
C1865 C1863 1.419 . S
C1865 C1866 1.362 . S
C1866 H1858 0.930 . S
C1866 C1865 1.362 . S
C1866 C1869 1.409 . S
C1867 H1859 0.930 . S
C1867 C1868 1.355 . S
C1867 C1869 1.415 . S
C1868 C1867 1.355 . S
C1868 C1870 1.419 . S
C1869 C1864 1.425 . S
C1869 C1866 1.409 . S
C1869 C1867 1.415 . S
C1870 H1860 0.930 . S
C1870 C1868 1.419 . S
C1870 C1871 1.362 . S
C1871 H1861 0.930 . S
C1871 C1864 1.409 . S
C1871 C1870 1.362 . S
H1872 C1878 0.930 . S
H1873 C1881 0.930 . S
H1874 C1882 0.930 . S
H1875 C1883 0.930 . S
H1876 C1886 0.930 . S
H1877 C1887 0.930 . S
C1878 H1872 0.930 . S
C1878 C1879 1.355 . S
C1878 C1880 1.415 . S
C1879 C1878 1.355 . S
C1879 C1881 1.419 . S
C1880 C1878 1.415 . S
C1880 C1885 1.425 . S
C1880 C1887 1.409 . S
C1881 H1873 0.930 . S
C1881 C1879 1.419 . S
C1881 C1882 1.362 . S
C1882 H1874 0.930 . S
C1882 C1881 1.362 . S
C1882 C1885 1.409 . S
C1883 H1875 0.930 . S
C1883 C1884 1.355 . S
C1883 C1885 1.415 . S
C1884 C1883 1.355 . S
C1884 C1886 1.419 . S
C1885 C1880 1.425 . S
C1885 C1882 1.409 . S
C1885 C1883 1.415 . S
C1886 H1876 0.930 . S
C1886 C1884 1.419 . S
C1886 C1887 1.362 . S
C1887 H1877 0.930 . S
C1887 C1880 1.409 . S
C1887 C1886 1.362 . S
H1888 C1894 0.930 . S
H1889 C1897 0.930 . S
H1890 C1898 0.930 . S
H1891 C1899 0.930 . S
H1892 C1902 0.930 . S
H1893 C1903 0.930 . S
C1894 H1888 0.930 . S
C1894 C1895 1.355 . S
C1894 C1896 1.415 . S
C1895 C1894 1.355 . S
C1895 C1897 1.419 . S
C1896 C1894 1.415 . S
C1896 C1901 1.425 . S
C1896 C1903 1.409 . S
C1897 H1889 0.930 . S
C1897 C1895 1.419 . S
C1897 C1898 1.362 . S
C1898 H1890 0.930 . S
C1898 C1897 1.362 . S
C1898 C1901 1.409 . S
C1899 H1891 0.930 . S
C1899 C1900 1.355 . S
C1899 C1901 1.415 . S
C1900 C1899 1.355 . S
C1900 C1902 1.419 . S
C1901 C1896 1.425 . S
C1901 C1898 1.409 . S
C1901 C1899 1.415 . S
C1902 H1892 0.930 . S
C1902 C1900 1.419 . S
C1902 C1903 1.362 . S
C1903 H1893 0.930 . S
C1903 C1896 1.409 . S
C1903 C1902 1.362 . S
H1904 C1910 0.930 . S
H1905 C1913 0.930 . S
H1906 C1914 0.930 . S
H1907 C1915 0.930 . S
H1908 C1918 0.930 . S
H1909 C1919 0.930 . S
C1910 H1904 0.930 . S
C1910 C1911 1.355 . S
C1910 C1912 1.415 . S
C1911 C1910 1.355 . S
C1911 C1913 1.419 . S
C1912 C1910 1.415 . S
C1912 C1917 1.425 . S
C1912 C1919 1.409 . S
C1913 H1905 0.930 . S
C1913 C1911 1.419 . S
C1913 C1914 1.362 . S
C1914 H1906 0.930 . S
C1914 C1913 1.362 . S
C1914 C1917 1.409 . S
C1915 H1907 0.930 . S
C1915 C1916 1.355 . S
C1915 C1917 1.415 . S
C1916 C1915 1.355 . S
C1916 C1918 1.419 . S
C1917 C1912 1.425 . S
C1917 C1914 1.409 . S
C1917 C1915 1.415 . S
C1918 H1908 0.930 . S
C1918 C1916 1.419 . S
C1918 C1919 1.362 . S
C1919 H1909 0.930 . S
C1919 C1912 1.409 . S
C1919 C1918 1.362 . S
H1920 C1926 0.930 . S
H1921 C1929 0.930 . S
H1922 C1930 0.930 . S
H1923 C1931 0.930 . S
H1924 C1934 0.930 . S
H1925 C1935 0.930 . S
C1926 H1920 0.930 . S
C1926 C1927 1.355 . S
C1926 C1928 1.415 . S
C1927 C1926 1.355 . S
C1927 C1929 1.419 . S
C1928 C1926 1.415 . S
C1928 C1933 1.425 . S
C1928 C1935 1.409 . S
C1929 H1921 0.930 . S
C1929 C1927 1.419 . S
C1929 C1930 1.362 . S
C1930 H1922 0.930 . S
C1930 C1929 1.362 . S
C1930 C1933 1.409 . S
C1931 H1923 0.930 . S
C1931 C1932 1.355 . S
C1931 C1933 1.415 . S
C1932 C1931 1.355 . S
C1932 C1934 1.419 . S
C1933 C1928 1.425 . S
C1933 C1930 1.409 . S
C1933 C1931 1.415 . S
C1934 H1924 0.930 . S
C1934 C1932 1.419 . S
C1934 C1935 1.362 . S
C1935 H1925 0.930 . S
C1935 C1928 1.409 . S
C1935 C1934 1.362 . S
H1936 C1942 0.930 . S
H1937 C1945 0.930 . S
H1938 C1946 0.930 . S
H1939 C1947 0.930 . S
H1940 C1950 0.930 . S
H1941 C1951 0.930 . S
C1942 H1936 0.930 . S
C1942 C1943 1.355 . S
C1942 C1944 1.415 . S
C1943 C1942 1.355 . S
C1943 C1945 1.419 . S
C1944 C1942 1.415 . S
C1944 C1949 1.425 . S
C1944 C1951 1.409 . S
C1945 H1937 0.930 . S
C1945 C1943 1.419 . S
C1945 C1946 1.362 . S
C1946 H1938 0.930 . S
C1946 C1945 1.362 . S
C1946 C1949 1.409 . S
C1947 H1939 0.930 . S
C1947 C1948 1.355 . S
C1947 C1949 1.415 . S
C1948 C1947 1.355 . S
C1948 C1950 1.419 . S
C1949 C1944 1.425 . S
C1949 C1946 1.409 . S
C1949 C1947 1.415 . S
C1950 H1940 0.930 . S
C1950 C1948 1.419 . S
C1950 C1951 1.362 . S
C1951 H1941 0.930 . S
C1951 C1944 1.409 . S
C1951 C1950 1.362 . S
H1952 C1958 0.930 . S
H1953 C1961 0.930 . S
H1954 C1962 0.930 . S
H1955 C1963 0.930 . S
H1956 C1966 0.930 . S
H1957 C1967 0.930 . S
C1958 H1952 0.930 . S
C1958 C1959 1.355 . S
C1958 C1960 1.415 . S
C1959 C1958 1.355 . S
C1959 C1961 1.419 . S
C1960 C1958 1.415 . S
C1960 C1965 1.425 . S
C1960 C1967 1.409 . S
C1961 H1953 0.930 . S
C1961 C1959 1.419 . S
C1961 C1962 1.362 . S
C1962 H1954 0.930 . S
C1962 C1961 1.362 . S
C1962 C1965 1.409 . S
C1963 H1955 0.930 . S
C1963 C1964 1.355 . S
C1963 C1965 1.415 . S
C1964 C1963 1.355 . S
C1964 C1966 1.419 . S
C1965 C1960 1.425 . S
C1965 C1962 1.409 . S
C1965 C1963 1.415 . S
C1966 H1956 0.930 . S
C1966 C1964 1.419 . S
C1966 C1967 1.362 . S
C1967 H1957 0.930 . S
C1967 C1960 1.409 . S
C1967 C1966 1.362 . S
H1968 C1974 0.930 . S
H1969 C1977 0.930 . S
H1970 C1978 0.930 . S
H1971 C1979 0.930 . S
H1972 C1982 0.930 . S
H1973 C1983 0.930 . S
C1974 H1968 0.930 . S
C1974 C1975 1.355 . S
C1974 C1976 1.415 . S
C1975 C1974 1.355 . S
C1975 C1977 1.419 . S
C1976 C1974 1.415 . S
C1976 C1981 1.425 . S
C1976 C1983 1.409 . S
C1977 H1969 0.930 . S
C1977 C1975 1.419 . S
C1977 C1978 1.362 . S
C1978 H1970 0.930 . S
C1978 C1977 1.362 . S
C1978 C1981 1.409 . S
C1979 H1971 0.930 . S
C1979 C1980 1.355 . S
C1979 C1981 1.415 . S
C1980 C1979 1.355 . S
C1980 C1982 1.419 . S
C1981 C1976 1.425 . S
C1981 C1978 1.409 . S
C1981 C1979 1.415 . S
C1982 H1972 0.930 . S
C1982 C1980 1.419 . S
C1982 C1983 1.362 . S
C1983 H1973 0.930 . S
C1983 C1976 1.409 . S
C1983 C1982 1.362 . S
H1984 C1990 0.930 . S
H1985 C1993 0.930 . S
H1986 C1994 0.930 . S
H1987 C1995 0.930 . S
H1988 C1998 0.930 . S
H1989 C1999 0.930 . S
C1990 H1984 0.930 . S
C1990 C1991 1.355 . S
C1990 C1992 1.415 . S
C1991 C1990 1.355 . S
C1991 C1993 1.419 . S
C1992 C1990 1.415 . S
C1992 C1997 1.425 . S
C1992 C1999 1.409 . S
C1993 H1985 0.930 . S
C1993 C1991 1.419 . S
C1993 C1994 1.362 . S
C1994 H1986 0.930 . S
C1994 C1993 1.362 . S
C1994 C1997 1.409 . S
C1995 H1987 0.930 . S
C1995 C1996 1.355 . S
C1995 C1997 1.415 . S
C1996 C1995 1.355 . S
C1996 C1998 1.419 . S
C1997 C1992 1.425 . S
C1997 C1994 1.409 . S
C1997 C1995 1.415 . S
C1998 H1988 0.930 . S
C1998 C1996 1.419 . S
C1998 C1999 1.362 . S
C1999 H1989 0.930 . S
C1999 C1992 1.409 . S
C1999 C1998 1.362 . S
H2000 C2006 0.930 . S
H2001 C2009 0.930 . S
H2002 C2010 0.930 . S
H2003 C2011 0.930 . S
H2004 C2014 0.930 . S
H2005 C2015 0.930 . S
C2006 H2000 0.930 . S
C2006 C2007 1.355 . S
C2006 C2008 1.415 . S
C2007 C2006 1.355 . S
C2007 C2009 1.419 . S
C2008 C2006 1.415 . S
C2008 C2013 1.425 . S
C2008 C2015 1.409 . S
C2009 H2001 0.930 . S
C2009 C2007 1.419 . S
C2009 C2010 1.362 . S
C2010 H2002 0.930 . S
C2010 C2009 1.362 . S
C2010 C2013 1.409 . S
C2011 H2003 0.930 . S
C2011 C2012 1.355 . S
C2011 C2013 1.415 . S
C2012 C2011 1.355 . S
C2012 C2014 1.419 . S
C2013 C2008 1.425 . S
C2013 C2010 1.409 . S
C2013 C2011 1.415 . S
C2014 H2004 0.930 . S
C2014 C2012 1.419 . S
C2014 C2015 1.362 . S
C2015 H2005 0.930 . S
C2015 C2008 1.409 . S
C2015 C2014 1.362 . S
H2016 C2022 0.930 . S
H2017 C2025 0.930 . S
H2018 C2026 0.930 . S
H2019 C2027 0.930 . S
H2020 C2030 0.930 . S
H2021 C2031 0.930 . S
C2022 H2016 0.930 . S
C2022 C2023 1.355 . S
C2022 C2024 1.415 . S
C2023 C2022 1.355 . S
C2023 C2025 1.419 . S
C2024 C2022 1.415 . S
C2024 C2029 1.425 . S
C2024 C2031 1.409 . S
C2025 H2017 0.930 . S
C2025 C2023 1.419 . S
C2025 C2026 1.362 . S
C2026 H2018 0.930 . S
C2026 C2025 1.362 . S
C2026 C2029 1.409 . S
C2027 H2019 0.930 . S
C2027 C2028 1.355 . S
C2027 C2029 1.415 . S
C2028 C2027 1.355 . S
C2028 C2030 1.419 . S
C2029 C2024 1.425 . S
C2029 C2026 1.409 . S
C2029 C2027 1.415 . S
C2030 H2020 0.930 . S
C2030 C2028 1.419 . S
C2030 C2031 1.362 . S
C2031 H2021 0.930 . S
C2031 C2024 1.409 . S
C2031 C2030 1.362 . S
H2032 C2038 0.930 . S
H2033 C2041 0.930 . S
H2034 C2042 0.930 . S
H2035 C2043 0.930 . S
H2036 C2046 0.930 . S
H2037 C2047 0.930 . S
C2038 H2032 0.930 . S
C2038 C2039 1.355 . S
C2038 C2040 1.415 . S
C2039 C2038 1.355 . S
C2039 C2041 1.419 . S
C2040 C2038 1.415 . S
C2040 C2045 1.425 . S
C2040 C2047 1.409 . S
C2041 H2033 0.930 . S
C2041 C2039 1.419 . S
C2041 C2042 1.362 . S
C2042 H2034 0.930 . S
C2042 C2041 1.362 . S
C2042 C2045 1.409 . S
C2043 H2035 0.930 . S
C2043 C2044 1.355 . S
C2043 C2045 1.415 . S
C2044 C2043 1.355 . S
C2044 C2046 1.419 . S
C2045 C2040 1.425 . S
C2045 C2042 1.409 . S
C2045 C2043 1.415 . S
C2046 H2036 0.930 . S
C2046 C2044 1.419 . S
C2046 C2047 1.362 . S
C2047 H2037 0.930 . S
C2047 C2040 1.409 . S
C2047 C2046 1.362 . S
H2048 C2054 0.930 . S
H2049 C2057 0.930 . S
H2050 C2058 0.930 . S
H2051 C2059 0.930 . S
H2052 C2062 0.930 . S
H2053 C2063 0.930 . S
C2054 H2048 0.930 . S
C2054 C2055 1.355 . S
C2054 C2056 1.415 . S
C2055 C2054 1.355 . S
C2055 C2057 1.419 . S
C2056 C2054 1.415 . S
C2056 C2061 1.425 . S
C2056 C2063 1.409 . S
C2057 H2049 0.930 . S
C2057 C2055 1.419 . S
C2057 C2058 1.362 . S
C2058 H2050 0.930 . S
C2058 C2057 1.362 . S
C2058 C2061 1.409 . S
C2059 H2051 0.930 . S
C2059 C2060 1.355 . S
C2059 C2061 1.415 . S
C2060 C2059 1.355 . S
C2060 C2062 1.419 . S
C2061 C2056 1.425 . S
C2061 C2058 1.409 . S
C2061 C2059 1.415 . S
C2062 H2052 0.930 . S
C2062 C2060 1.419 . S
C2062 C2063 1.362 . S
C2063 H2053 0.930 . S
C2063 C2056 1.409 . S
C2063 C2062 1.362 . S
H2064 C2070 0.930 . S
H2065 C2073 0.930 . S
H2066 C2074 0.930 . S
H2067 C2075 0.930 . S
H2068 C2078 0.930 . S
H2069 C2079 0.930 . S
C2070 H2064 0.930 . S
C2070 C2071 1.355 . S
C2070 C2072 1.415 . S
C2071 C2070 1.355 . S
C2071 C2073 1.419 . S
C2072 C2070 1.415 . S
C2072 C2077 1.425 . S
C2072 C2079 1.409 . S
C2073 H2065 0.930 . S
C2073 C2071 1.419 . S
C2073 C2074 1.362 . S
C2074 H2066 0.930 . S
C2074 C2073 1.362 . S
C2074 C2077 1.409 . S
C2075 H2067 0.930 . S
C2075 C2076 1.355 . S
C2075 C2077 1.415 . S
C2076 C2075 1.355 . S
C2076 C2078 1.419 . S
C2077 C2072 1.425 . S
C2077 C2074 1.409 . S
C2077 C2075 1.415 . S
C2078 H2068 0.930 . S
C2078 C2076 1.419 . S
C2078 C2079 1.362 . S
C2079 H2069 0.930 . S
C2079 C2072 1.409 . S
C2079 C2078 1.362 . S
H2080 C2086 0.930 . S
H2081 C2089 0.930 . S
H2082 C2090 0.930 . S
H2083 C2091 0.930 . S
H2084 C2094 0.930 . S
H2085 C2095 0.930 . S
C2086 H2080 0.930 . S
C2086 C2087 1.355 . S
C2086 C2088 1.415 . S
C2087 C2086 1.355 . S
C2087 C2089 1.419 . S
C2088 C2086 1.415 . S
C2088 C2093 1.425 . S
C2088 C2095 1.409 . S
C2089 H2081 0.930 . S
C2089 C2087 1.419 . S
C2089 C2090 1.362 . S
C2090 H2082 0.930 . S
C2090 C2089 1.362 . S
C2090 C2093 1.409 . S
C2091 H2083 0.930 . S
C2091 C2092 1.355 . S
C2091 C2093 1.415 . S
C2092 C2091 1.355 . S
C2092 C2094 1.419 . S
C2093 C2088 1.425 . S
C2093 C2090 1.409 . S
C2093 C2091 1.415 . S
C2094 H2084 0.930 . S
C2094 C2092 1.419 . S
C2094 C2095 1.362 . S
C2095 H2085 0.930 . S
C2095 C2088 1.409 . S
C2095 C2094 1.362 . S
H2096 C2102 0.930 . S
H2097 C2105 0.930 . S
H2098 C2106 0.930 . S
H2099 C2107 0.930 . S
H2100 C2110 0.930 . S
H2101 C2111 0.930 . S
C2102 H2096 0.930 . S
C2102 C2103 1.355 . S
C2102 C2104 1.415 . S
C2103 C2102 1.355 . S
C2103 C2105 1.419 . S
C2104 C2102 1.415 . S
C2104 C2109 1.425 . S
C2104 C2111 1.409 . S
C2105 H2097 0.930 . S
C2105 C2103 1.419 . S
C2105 C2106 1.362 . S
C2106 H2098 0.930 . S
C2106 C2105 1.362 . S
C2106 C2109 1.409 . S
C2107 H2099 0.930 . S
C2107 C2108 1.355 . S
C2107 C2109 1.415 . S
C2108 C2107 1.355 . S
C2108 C2110 1.419 . S
C2109 C2104 1.425 . S
C2109 C2106 1.409 . S
C2109 C2107 1.415 . S
C2110 H2100 0.930 . S
C2110 C2108 1.419 . S
C2110 C2111 1.362 . S
C2111 H2101 0.930 . S
C2111 C2104 1.409 . S
C2111 C2110 1.362 . S
H2112 C2118 0.930 . S
H2113 C2121 0.930 . S
H2114 C2122 0.930 . S
H2115 C2123 0.930 . S
H2116 C2126 0.930 . S
H2117 C2127 0.930 . S
C2118 H2112 0.930 . S
C2118 C2119 1.355 . S
C2118 C2120 1.415 . S
C2119 C2118 1.355 . S
C2119 C2121 1.419 . S
C2120 C2118 1.415 . S
C2120 C2125 1.425 . S
C2120 C2127 1.409 . S
C2121 H2113 0.930 . S
C2121 C2119 1.419 . S
C2121 C2122 1.362 . S
C2122 H2114 0.930 . S
C2122 C2121 1.362 . S
C2122 C2125 1.409 . S
C2123 H2115 0.930 . S
C2123 C2124 1.355 . S
C2123 C2125 1.415 . S
C2124 C2123 1.355 . S
C2124 C2126 1.419 . S
C2125 C2120 1.425 . S
C2125 C2122 1.409 . S
C2125 C2123 1.415 . S
C2126 H2116 0.930 . S
C2126 C2124 1.419 . S
C2126 C2127 1.362 . S
C2127 H2117 0.930 . S
C2127 C2120 1.409 . S
C2127 C2126 1.362 . S
H2128 C2134 0.930 . S
H2129 C2137 0.930 . S
H2130 C2138 0.930 . S
H2131 C2139 0.930 . S
H2132 C2142 0.930 . S
H2133 C2143 0.930 . S
C2134 H2128 0.930 . S
C2134 C2135 1.355 . S
C2134 C2136 1.415 . S
C2135 C2134 1.355 . S
C2135 C2137 1.419 . S
C2136 C2134 1.415 . S
C2136 C2141 1.425 . S
C2136 C2143 1.409 . S
C2137 H2129 0.930 . S
C2137 C2135 1.419 . S
C2137 C2138 1.362 . S
C2138 H2130 0.930 . S
C2138 C2137 1.362 . S
C2138 C2141 1.409 . S
C2139 H2131 0.930 . S
C2139 C2140 1.355 . S
C2139 C2141 1.415 . S
C2140 C2139 1.355 . S
C2140 C2142 1.419 . S
C2141 C2136 1.425 . S
C2141 C2138 1.409 . S
C2141 C2139 1.415 . S
C2142 H2132 0.930 . S
C2142 C2140 1.419 . S
C2142 C2143 1.362 . S
C2143 H2133 0.930 . S
C2143 C2136 1.409 . S
C2143 C2142 1.362 . S
H2144 C2150 0.930 . S
H2145 C2153 0.930 . S
H2146 C2154 0.930 . S
H2147 C2155 0.930 . S
H2148 C2158 0.930 . S
H2149 C2159 0.930 . S
C2150 H2144 0.930 . S
C2150 C2151 1.355 . S
C2150 C2152 1.415 . S
C2151 C2150 1.355 . S
C2151 C2153 1.419 . S
C2152 C2150 1.415 . S
C2152 C2157 1.425 . S
C2152 C2159 1.409 . S
C2153 H2145 0.930 . S
C2153 C2151 1.419 . S
C2153 C2154 1.362 . S
C2154 H2146 0.930 . S
C2154 C2153 1.362 . S
C2154 C2157 1.409 . S
C2155 H2147 0.930 . S
C2155 C2156 1.355 . S
C2155 C2157 1.415 . S
C2156 C2155 1.355 . S
C2156 C2158 1.419 . S
C2157 C2152 1.425 . S
C2157 C2154 1.409 . S
C2157 C2155 1.415 . S
C2158 H2148 0.930 . S
C2158 C2156 1.419 . S
C2158 C2159 1.362 . S
C2159 H2149 0.930 . S
C2159 C2152 1.409 . S
C2159 C2158 1.362 . S
H2160 C2166 0.930 . S
H2161 C2169 0.930 . S
H2162 C2170 0.930 . S
H2163 C2171 0.930 . S
H2164 C2174 0.930 . S
H2165 C2175 0.930 . S
C2166 H2160 0.930 . S
C2166 C2167 1.355 . S
C2166 C2168 1.415 . S
C2167 C2166 1.355 . S
C2167 C2169 1.419 . S
C2168 C2166 1.415 . S
C2168 C2173 1.425 . S
C2168 C2175 1.409 . S
C2169 H2161 0.930 . S
C2169 C2167 1.419 . S
C2169 C2170 1.362 . S
C2170 H2162 0.930 . S
C2170 C2169 1.362 . S
C2170 C2173 1.409 . S
C2171 H2163 0.930 . S
C2171 C2172 1.355 . S
C2171 C2173 1.415 . S
C2172 C2171 1.355 . S
C2172 C2174 1.419 . S
C2173 C2168 1.425 . S
C2173 C2170 1.409 . S
C2173 C2171 1.415 . S
C2174 H2164 0.930 . S
C2174 C2172 1.419 . S
C2174 C2175 1.362 . S
C2175 H2165 0.930 . S
C2175 C2168 1.409 . S
C2175 C2174 1.362 . S
H2176 C2182 0.930 . S
H2177 C2185 0.930 . S
H2178 C2186 0.930 . S
H2179 C2187 0.930 . S
H2180 C2190 0.930 . S
H2181 C2191 0.930 . S
C2182 H2176 0.930 . S
C2182 C2183 1.355 . S
C2182 C2184 1.415 . S
C2183 C2182 1.355 . S
C2183 C2185 1.419 . S
C2184 C2182 1.415 . S
C2184 C2189 1.425 . S
C2184 C2191 1.409 . S
C2185 H2177 0.930 . S
C2185 C2183 1.419 . S
C2185 C2186 1.362 . S
C2186 H2178 0.930 . S
C2186 C2185 1.362 . S
C2186 C2189 1.409 . S
C2187 H2179 0.930 . S
C2187 C2188 1.355 . S
C2187 C2189 1.415 . S
C2188 C2187 1.355 . S
C2188 C2190 1.419 . S
C2189 C2184 1.425 . S
C2189 C2186 1.409 . S
C2189 C2187 1.415 . S
C2190 H2180 0.930 . S
C2190 C2188 1.419 . S
C2190 C2191 1.362 . S
C2191 H2181 0.930 . S
C2191 C2184 1.409 . S
C2191 C2190 1.362 . S
H2192 C2198 0.930 . S
H2193 C2201 0.930 . S
H2194 C2202 0.930 . S
H2195 C2203 0.930 . S
H2196 C2206 0.930 . S
H2197 C2207 0.930 . S
C2198 H2192 0.930 . S
C2198 C2199 1.355 . S
C2198 C2200 1.415 . S
C2199 C2198 1.355 . S
C2199 C2201 1.419 . S
C2200 C2198 1.415 . S
C2200 C2205 1.425 . S
C2200 C2207 1.409 . S
C2201 H2193 0.930 . S
C2201 C2199 1.419 . S
C2201 C2202 1.362 . S
C2202 H2194 0.930 . S
C2202 C2201 1.362 . S
C2202 C2205 1.409 . S
C2203 H2195 0.930 . S
C2203 C2204 1.355 . S
C2203 C2205 1.415 . S
C2204 C2203 1.355 . S
C2204 C2206 1.419 . S
C2205 C2200 1.425 . S
C2205 C2202 1.409 . S
C2205 C2203 1.415 . S
C2206 H2196 0.930 . S
C2206 C2204 1.419 . S
C2206 C2207 1.362 . S
C2207 H2197 0.930 . S
C2207 C2200 1.409 . S
C2207 C2206 1.362 . S
H2208 C2214 0.930 . S
H2209 C2217 0.930 . S
H2210 C2218 0.930 . S
H2211 C2219 0.930 . S
H2212 C2222 0.930 . S
H2213 C2223 0.930 . S
C2214 H2208 0.930 . S
C2214 C2215 1.355 . S
C2214 C2216 1.415 . S
C2215 C2214 1.355 . S
C2215 C2217 1.419 . S
C2216 C2214 1.415 . S
C2216 C2221 1.425 . S
C2216 C2223 1.409 . S
C2217 H2209 0.930 . S
C2217 C2215 1.419 . S
C2217 C2218 1.362 . S
C2218 H2210 0.930 . S
C2218 C2217 1.362 . S
C2218 C2221 1.409 . S
C2219 H2211 0.930 . S
C2219 C2220 1.355 . S
C2219 C2221 1.415 . S
C2220 C2219 1.355 . S
C2220 C2222 1.419 . S
C2221 C2216 1.425 . S
C2221 C2218 1.409 . S
C2221 C2219 1.415 . S
C2222 H2212 0.930 . S
C2222 C2220 1.419 . S
C2222 C2223 1.362 . S
C2223 H2213 0.930 . S
C2223 C2216 1.409 . S
C2223 C2222 1.362 . S
H2224 C2230 0.930 . S
H2225 C2233 0.930 . S
H2226 C2234 0.930 . S
H2227 C2235 0.930 . S
H2228 C2238 0.930 . S
H2229 C2239 0.930 . S
C2230 H2224 0.930 . S
C2230 C2231 1.355 . S
C2230 C2232 1.415 . S
C2231 C2230 1.355 . S
C2231 C2233 1.419 . S
C2232 C2230 1.415 . S
C2232 C2237 1.425 . S
C2232 C2239 1.409 . S
C2233 H2225 0.930 . S
C2233 C2231 1.419 . S
C2233 C2234 1.362 . S
C2234 H2226 0.930 . S
C2234 C2233 1.362 . S
C2234 C2237 1.409 . S
C2235 H2227 0.930 . S
C2235 C2236 1.355 . S
C2235 C2237 1.415 . S
C2236 C2235 1.355 . S
C2236 C2238 1.419 . S
C2237 C2232 1.425 . S
C2237 C2234 1.409 . S
C2237 C2235 1.415 . S
C2238 H2228 0.930 . S
C2238 C2236 1.419 . S
C2238 C2239 1.362 . S
C2239 H2229 0.930 . S
C2239 C2232 1.409 . S
C2239 C2238 1.362 . S
H2240 C2246 0.930 . S
H2241 C2249 0.930 . S
H2242 C2250 0.930 . S
H2243 C2251 0.930 . S
H2244 C2254 0.930 . S
H2245 C2255 0.930 . S
C2246 H2240 0.930 . S
C2246 C2247 1.355 . S
C2246 C2248 1.415 . S
C2247 C2246 1.355 . S
C2247 C2249 1.419 . S
C2248 C2246 1.415 . S
C2248 C2253 1.425 . S
C2248 C2255 1.409 . S
C2249 H2241 0.930 . S
C2249 C2247 1.419 . S
C2249 C2250 1.362 . S
C2250 H2242 0.930 . S
C2250 C2249 1.362 . S
C2250 C2253 1.409 . S
C2251 H2243 0.930 . S
C2251 C2252 1.355 . S
C2251 C2253 1.415 . S
C2252 C2251 1.355 . S
C2252 C2254 1.419 . S
C2253 C2248 1.425 . S
C2253 C2250 1.409 . S
C2253 C2251 1.415 . S
C2254 H2244 0.930 . S
C2254 C2252 1.419 . S
C2254 C2255 1.362 . S
C2255 H2245 0.930 . S
C2255 C2248 1.409 . S
C2255 C2254 1.362 . S
H2256 C2262 0.930 . S
H2257 C2265 0.930 . S
H2258 C2266 0.930 . S
H2259 C2267 0.930 . S
H2260 C2270 0.930 . S
H2261 C2271 0.930 . S
C2262 H2256 0.930 . S
C2262 C2263 1.355 . S
C2262 C2264 1.415 . S
C2263 C2262 1.355 . S
C2263 C2265 1.419 . S
C2264 C2262 1.415 . S
C2264 C2269 1.425 . S
C2264 C2271 1.409 . S
C2265 H2257 0.930 . S
C2265 C2263 1.419 . S
C2265 C2266 1.362 . S
C2266 H2258 0.930 . S
C2266 C2265 1.362 . S
C2266 C2269 1.409 . S
C2267 H2259 0.930 . S
C2267 C2268 1.355 . S
C2267 C2269 1.415 . S
C2268 C2267 1.355 . S
C2268 C2270 1.419 . S
C2269 C2264 1.425 . S
C2269 C2266 1.409 . S
C2269 C2267 1.415 . S
C2270 H2260 0.930 . S
C2270 C2268 1.419 . S
C2270 C2271 1.362 . S
C2271 H2261 0.930 . S
C2271 C2264 1.409 . S
C2271 C2270 1.362 . S
H2272 C2278 0.930 . S
H2273 C2281 0.930 . S
H2274 C2282 0.930 . S
H2275 C2283 0.930 . S
H2276 C2286 0.930 . S
H2277 C2287 0.930 . S
C2278 H2272 0.930 . S
C2278 C2279 1.355 . S
C2278 C2280 1.415 . S
C2279 C2278 1.355 . S
C2279 C2281 1.419 . S
C2280 C2278 1.415 . S
C2280 C2285 1.425 . S
C2280 C2287 1.409 . S
C2281 H2273 0.930 . S
C2281 C2279 1.419 . S
C2281 C2282 1.362 . S
C2282 H2274 0.930 . S
C2282 C2281 1.362 . S
C2282 C2285 1.409 . S
C2283 H2275 0.930 . S
C2283 C2284 1.355 . S
C2283 C2285 1.415 . S
C2284 C2283 1.355 . S
C2284 C2286 1.419 . S
C2285 C2280 1.425 . S
C2285 C2282 1.409 . S
C2285 C2283 1.415 . S
C2286 H2276 0.930 . S
C2286 C2284 1.419 . S
C2286 C2287 1.362 . S
C2287 H2277 0.930 . S
C2287 C2280 1.409 . S
C2287 C2286 1.362 . S
H2288 C2294 0.930 . S
H2289 C2297 0.930 . S
H2290 C2298 0.930 . S
H2291 C2299 0.930 . S
H2292 C2302 0.930 . S
H2293 C2303 0.930 . S
C2294 H2288 0.930 . S
C2294 C2295 1.355 . S
C2294 C2296 1.415 . S
C2295 C2294 1.355 . S
C2295 C2297 1.419 . S
C2296 C2294 1.415 . S
C2296 C2301 1.425 . S
C2296 C2303 1.409 . S
C2297 H2289 0.930 . S
C2297 C2295 1.419 . S
C2297 C2298 1.362 . S
C2298 H2290 0.930 . S
C2298 C2297 1.362 . S
C2298 C2301 1.409 . S
C2299 H2291 0.930 . S
C2299 C2300 1.355 . S
C2299 C2301 1.415 . S
C2300 C2299 1.355 . S
C2300 C2302 1.419 . S
C2301 C2296 1.425 . S
C2301 C2298 1.409 . S
C2301 C2299 1.415 . S
C2302 H2292 0.930 . S
C2302 C2300 1.419 . S
C2302 C2303 1.362 . S
C2303 H2293 0.930 . S
C2303 C2296 1.409 . S
C2303 C2302 1.362 . S
H2304 C2310 0.930 . S
H2305 C2313 0.930 . S
H2306 C2314 0.930 . S
H2307 C2315 0.930 . S
H2308 C2318 0.930 . S
H2309 C2319 0.930 . S
C2310 H2304 0.930 . S
C2310 C2311 1.355 . S
C2310 C2312 1.415 . S
C2311 C2310 1.355 . S
C2311 C2313 1.419 . S
C2312 C2310 1.415 . S
C2312 C2317 1.425 . S
C2312 C2319 1.409 . S
C2313 H2305 0.930 . S
C2313 C2311 1.419 . S
C2313 C2314 1.362 . S
C2314 H2306 0.930 . S
C2314 C2313 1.362 . S
C2314 C2317 1.409 . S
C2315 H2307 0.930 . S
C2315 C2316 1.355 . S
C2315 C2317 1.415 . S
C2316 C2315 1.355 . S
C2316 C2318 1.419 . S
C2317 C2312 1.425 . S
C2317 C2314 1.409 . S
C2317 C2315 1.415 . S
C2318 H2308 0.930 . S
C2318 C2316 1.419 . S
C2318 C2319 1.362 . S
C2319 H2309 0.930 . S
C2319 C2312 1.409 . S
C2319 C2318 1.362 . S
H2320 C2326 0.930 . S
H2321 C2329 0.930 . S
H2322 C2330 0.930 . S
H2323 C2331 0.930 . S
H2324 C2334 0.930 . S
H2325 C2335 0.930 . S
C2326 H2320 0.930 . S
C2326 C2327 1.355 . S
C2326 C2328 1.415 . S
C2327 C2326 1.355 . S
C2327 C2329 1.419 . S
C2328 C2326 1.415 . S
C2328 C2333 1.425 . S
C2328 C2335 1.409 . S
C2329 H2321 0.930 . S
C2329 C2327 1.419 . S
C2329 C2330 1.362 . S
C2330 H2322 0.930 . S
C2330 C2329 1.362 . S
C2330 C2333 1.409 . S
C2331 H2323 0.930 . S
C2331 C2332 1.355 . S
C2331 C2333 1.415 . S
C2332 C2331 1.355 . S
C2332 C2334 1.419 . S
C2333 C2328 1.425 . S
C2333 C2330 1.409 . S
C2333 C2331 1.415 . S
C2334 H2324 0.930 . S
C2334 C2332 1.419 . S
C2334 C2335 1.362 . S
C2335 H2325 0.930 . S
C2335 C2328 1.409 . S
C2335 C2334 1.362 . S
H2336 C2342 0.930 . S
H2337 C2345 0.930 . S
H2338 C2346 0.930 . S
H2339 C2347 0.930 . S
H2340 C2350 0.930 . S
H2341 C2351 0.930 . S
C2342 H2336 0.930 . S
C2342 C2343 1.355 . S
C2342 C2344 1.415 . S
C2343 C2342 1.355 . S
C2343 C2345 1.419 . S
C2344 C2342 1.415 . S
C2344 C2349 1.425 . S
C2344 C2351 1.409 . S
C2345 H2337 0.930 . S
C2345 C2343 1.419 . S
C2345 C2346 1.362 . S
C2346 H2338 0.930 . S
C2346 C2345 1.362 . S
C2346 C2349 1.409 . S
C2347 H2339 0.930 . S
C2347 C2348 1.355 . S
C2347 C2349 1.415 . S
C2348 C2347 1.355 . S
C2348 C2350 1.419 . S
C2349 C2344 1.425 . S
C2349 C2346 1.409 . S
C2349 C2347 1.415 . S
C2350 H2340 0.930 . S
C2350 C2348 1.419 . S
C2350 C2351 1.362 . S
C2351 H2341 0.930 . S
C2351 C2344 1.409 . S
C2351 C2350 1.362 . S
H2352 C2358 0.930 . S
H2353 C2361 0.930 . S
H2354 C2362 0.930 . S
H2355 C2363 0.930 . S
H2356 C2366 0.930 . S
H2357 C2367 0.930 . S
C2358 H2352 0.930 . S
C2358 C2359 1.355 . S
C2358 C2360 1.415 . S
C2359 C2358 1.355 . S
C2359 C2361 1.419 . S
C2360 C2358 1.415 . S
C2360 C2365 1.425 . S
C2360 C2367 1.409 . S
C2361 H2353 0.930 . S
C2361 C2359 1.419 . S
C2361 C2362 1.362 . S
C2362 H2354 0.930 . S
C2362 C2361 1.362 . S
C2362 C2365 1.409 . S
C2363 H2355 0.930 . S
C2363 C2364 1.355 . S
C2363 C2365 1.415 . S
C2364 C2363 1.355 . S
C2364 C2366 1.419 . S
C2365 C2360 1.425 . S
C2365 C2362 1.409 . S
C2365 C2363 1.415 . S
C2366 H2356 0.930 . S
C2366 C2364 1.419 . S
C2366 C2367 1.362 . S
C2367 H2357 0.930 . S
C2367 C2360 1.409 . S
C2367 C2366 1.362 . S
H2368 C2374 0.930 . S
H2369 C2377 0.930 . S
H2370 C2378 0.930 . S
H2371 C2379 0.930 . S
H2372 C2382 0.930 . S
H2373 C2383 0.930 . S
C2374 H2368 0.930 . S
C2374 C2375 1.355 . S
C2374 C2376 1.415 . S
C2375 C2374 1.355 . S
C2375 C2377 1.419 . S
C2376 C2374 1.415 . S
C2376 C2381 1.425 . S
C2376 C2383 1.409 . S
C2377 H2369 0.930 . S
C2377 C2375 1.419 . S
C2377 C2378 1.362 . S
C2378 H2370 0.930 . S
C2378 C2377 1.362 . S
C2378 C2381 1.409 . S
C2379 H2371 0.930 . S
C2379 C2380 1.355 . S
C2379 C2381 1.415 . S
C2380 C2379 1.355 . S
C2380 C2382 1.419 . S
C2381 C2376 1.425 . S
C2381 C2378 1.409 . S
C2381 C2379 1.415 . S
C2382 H2372 0.930 . S
C2382 C2380 1.419 . S
C2382 C2383 1.362 . S
C2383 H2373 0.930 . S
C2383 C2376 1.409 . S
C2383 C2382 1.362 . S
H2384 C2390 0.930 . S
H2385 C2393 0.930 . S
H2386 C2394 0.930 . S
H2387 C2395 0.930 . S
H2388 C2398 0.930 . S
H2389 C2399 0.930 . S
C2390 H2384 0.930 . S
C2390 C2391 1.355 . S
C2390 C2392 1.415 . S
C2391 C2390 1.355 . S
C2391 C2393 1.419 . S
C2392 C2390 1.415 . S
C2392 C2397 1.425 . S
C2392 C2399 1.409 . S
C2393 H2385 0.930 . S
C2393 C2391 1.419 . S
C2393 C2394 1.362 . S
C2394 H2386 0.930 . S
C2394 C2393 1.362 . S
C2394 C2397 1.409 . S
C2395 H2387 0.930 . S
C2395 C2396 1.355 . S
C2395 C2397 1.415 . S
C2396 C2395 1.355 . S
C2396 C2398 1.419 . S
C2397 C2392 1.425 . S
C2397 C2394 1.409 . S
C2397 C2395 1.415 . S
C2398 H2388 0.930 . S
C2398 C2396 1.419 . S
C2398 C2399 1.362 . S
C2399 H2389 0.930 . S
C2399 C2392 1.409 . S
C2399 C2398 1.362 . S
H2400 C2406 0.930 . S
H2401 C2409 0.930 . S
H2402 C2410 0.930 . S
H2403 C2411 0.930 . S
H2404 C2414 0.930 . S
H2405 C2415 0.930 . S
C2406 H2400 0.930 . S
C2406 C2407 1.355 . S
C2406 C2408 1.415 . S
C2407 C2406 1.355 . S
C2407 C2409 1.419 . S
C2408 C2406 1.415 . S
C2408 C2413 1.425 . S
C2408 C2415 1.409 . S
C2409 H2401 0.930 . S
C2409 C2407 1.419 . S
C2409 C2410 1.362 . S
C2410 H2402 0.930 . S
C2410 C2409 1.362 . S
C2410 C2413 1.409 . S
C2411 H2403 0.930 . S
C2411 C2412 1.355 . S
C2411 C2413 1.415 . S
C2412 C2411 1.355 . S
C2412 C2414 1.419 . S
C2413 C2408 1.425 . S
C2413 C2410 1.409 . S
C2413 C2411 1.415 . S
C2414 H2404 0.930 . S
C2414 C2412 1.419 . S
C2414 C2415 1.362 . S
C2415 H2405 0.930 . S
C2415 C2408 1.409 . S
C2415 C2414 1.362 . S
H2416 C2422 0.930 . S
H2417 C2425 0.930 . S
H2418 C2426 0.930 . S
H2419 C2427 0.930 . S
H2420 C2430 0.930 . S
H2421 C2431 0.930 . S
C2422 H2416 0.930 . S
C2422 C2423 1.355 . S
C2422 C2424 1.415 . S
C2423 C2422 1.355 . S
C2423 C2425 1.419 . S
C2424 C2422 1.415 . S
C2424 C2429 1.425 . S
C2424 C2431 1.409 . S
C2425 H2417 0.930 . S
C2425 C2423 1.419 . S
C2425 C2426 1.362 . S
C2426 H2418 0.930 . S
C2426 C2425 1.362 . S
C2426 C2429 1.409 . S
C2427 H2419 0.930 . S
C2427 C2428 1.355 . S
C2427 C2429 1.415 . S
C2428 C2427 1.355 . S
C2428 C2430 1.419 . S
C2429 C2424 1.425 . S
C2429 C2426 1.409 . S
C2429 C2427 1.415 . S
C2430 H2420 0.930 . S
C2430 C2428 1.419 . S
C2430 C2431 1.362 . S
C2431 H2421 0.930 . S
C2431 C2424 1.409 . S
C2431 C2430 1.362 . S
H2432 C2438 0.930 . S
H2433 C2441 0.930 . S
H2434 C2442 0.930 . S
H2435 C2443 0.930 . S
H2436 C2446 0.930 . S
H2437 C2447 0.930 . S
C2438 H2432 0.930 . S
C2438 C2439 1.355 . S
C2438 C2440 1.415 . S
C2439 C2438 1.355 . S
C2439 C2441 1.419 . S
C2440 C2438 1.415 . S
C2440 C2445 1.425 . S
C2440 C2447 1.409 . S
C2441 H2433 0.930 . S
C2441 C2439 1.419 . S
C2441 C2442 1.362 . S
C2442 H2434 0.930 . S
C2442 C2441 1.362 . S
C2442 C2445 1.409 . S
C2443 H2435 0.930 . S
C2443 C2444 1.355 . S
C2443 C2445 1.415 . S
C2444 C2443 1.355 . S
C2444 C2446 1.419 . S
C2445 C2440 1.425 . S
C2445 C2442 1.409 . S
C2445 C2443 1.415 . S
C2446 H2436 0.930 . S
C2446 C2444 1.419 . S
C2446 C2447 1.362 . S
C2447 H2437 0.930 . S
C2447 C2440 1.409 . S
C2447 C2446 1.362 . S
H2448 C2454 0.930 . S
H2449 C2457 0.930 . S
H2450 C2458 0.930 . S
H2451 C2459 0.930 . S
H2452 C2462 0.930 . S
H2453 C2463 0.930 . S
C2454 H2448 0.930 . S
C2454 C2455 1.355 . S
C2454 C2456 1.415 . S
C2455 C2454 1.355 . S
C2455 C2457 1.419 . S
C2456 C2454 1.415 . S
C2456 C2461 1.425 . S
C2456 C2463 1.409 . S
C2457 H2449 0.930 . S
C2457 C2455 1.419 . S
C2457 C2458 1.362 . S
C2458 H2450 0.930 . S
C2458 C2457 1.362 . S
C2458 C2461 1.409 . S
C2459 H2451 0.930 . S
C2459 C2460 1.355 . S
C2459 C2461 1.415 . S
C2460 C2459 1.355 . S
C2460 C2462 1.419 . S
C2461 C2456 1.425 . S
C2461 C2458 1.409 . S
C2461 C2459 1.415 . S
C2462 H2452 0.930 . S
C2462 C2460 1.419 . S
C2462 C2463 1.362 . S
C2463 H2453 0.930 . S
C2463 C2456 1.409 . S
C2463 C2462 1.362 . S
H2464 C2470 0.930 . S
H2465 C2473 0.930 . S
H2466 C2474 0.930 . S
H2467 C2475 0.930 . S
H2468 C2478 0.930 . S
H2469 C2479 0.930 . S
C2470 H2464 0.930 . S
C2470 C2471 1.355 . S
C2470 C2472 1.415 . S
C2471 C2470 1.355 . S
C2471 C2473 1.419 . S
C2472 C2470 1.415 . S
C2472 C2477 1.425 . S
C2472 C2479 1.409 . S
C2473 H2465 0.930 . S
C2473 C2471 1.419 . S
C2473 C2474 1.362 . S
C2474 H2466 0.930 . S
C2474 C2473 1.362 . S
C2474 C2477 1.409 . S
C2475 H2467 0.930 . S
C2475 C2476 1.355 . S
C2475 C2477 1.415 . S
C2476 C2475 1.355 . S
C2476 C2478 1.419 . S
C2477 C2472 1.425 . S
C2477 C2474 1.409 . S
C2477 C2475 1.415 . S
C2478 H2468 0.930 . S
C2478 C2476 1.419 . S
C2478 C2479 1.362 . S
C2479 H2469 0.930 . S
C2479 C2472 1.409 . S
C2479 C2478 1.362 . S
H2480 C2486 0.930 . S
H2481 C2489 0.930 . S
H2482 C2490 0.930 . S
H2483 C2491 0.930 . S
H2484 C2494 0.930 . S
H2485 C2495 0.930 . S
C2486 H2480 0.930 . S
C2486 C2487 1.355 . S
C2486 C2488 1.415 . S
C2487 C2486 1.355 . S
C2487 C2489 1.419 . S
C2488 C2486 1.415 . S
C2488 C2493 1.425 . S
C2488 C2495 1.409 . S
C2489 H2481 0.930 . S
C2489 C2487 1.419 . S
C2489 C2490 1.362 . S
C2490 H2482 0.930 . S
C2490 C2489 1.362 . S
C2490 C2493 1.409 . S
C2491 H2483 0.930 . S
C2491 C2492 1.355 . S
C2491 C2493 1.415 . S
C2492 C2491 1.355 . S
C2492 C2494 1.419 . S
C2493 C2488 1.425 . S
C2493 C2490 1.409 . S
C2493 C2491 1.415 . S
C2494 H2484 0.930 . S
C2494 C2492 1.419 . S
C2494 C2495 1.362 . S
C2495 H2485 0.930 . S
C2495 C2488 1.409 . S
C2495 C2494 1.362 . S
H2496 C2502 0.930 . S
H2497 C2505 0.930 . S
H2498 C2506 0.930 . S
H2499 C2507 0.930 . S
H2500 C2510 0.930 . S
H2501 C2511 0.930 . S
C2502 H2496 0.930 . S
C2502 C2503 1.355 . S
C2502 C2504 1.415 . S
C2503 C2502 1.355 . S
C2503 C2505 1.419 . S
C2504 C2502 1.415 . S
C2504 C2509 1.425 . S
C2504 C2511 1.409 . S
C2505 H2497 0.930 . S
C2505 C2503 1.419 . S
C2505 C2506 1.362 . S
C2506 H2498 0.930 . S
C2506 C2505 1.362 . S
C2506 C2509 1.409 . S
C2507 H2499 0.930 . S
C2507 C2508 1.355 . S
C2507 C2509 1.415 . S
C2508 C2507 1.355 . S
C2508 C2510 1.419 . S
C2509 C2504 1.425 . S
C2509 C2506 1.409 . S
C2509 C2507 1.415 . S
C2510 H2500 0.930 . S
C2510 C2508 1.419 . S
C2510 C2511 1.362 . S
C2511 H2501 0.930 . S
C2511 C2504 1.409 . S
C2511 C2510 1.362 . S
H2512 C2518 0.930 . S
H2513 C2521 0.930 . S
H2514 C2522 0.930 . S
H2515 C2523 0.930 . S
H2516 C2526 0.930 . S
H2517 C2527 0.930 . S
C2518 H2512 0.930 . S
C2518 C2519 1.355 . S
C2518 C2520 1.415 . S
C2519 C2518 1.355 . S
C2519 C2521 1.419 . S
C2520 C2518 1.415 . S
C2520 C2525 1.425 . S
C2520 C2527 1.409 . S
C2521 H2513 0.930 . S
C2521 C2519 1.419 . S
C2521 C2522 1.362 . S
C2522 H2514 0.930 . S
C2522 C2521 1.362 . S
C2522 C2525 1.409 . S
C2523 H2515 0.930 . S
C2523 C2524 1.355 . S
C2523 C2525 1.415 . S
C2524 C2523 1.355 . S
C2524 C2526 1.419 . S
C2525 C2520 1.425 . S
C2525 C2522 1.409 . S
C2525 C2523 1.415 . S
C2526 H2516 0.930 . S
C2526 C2524 1.419 . S
C2526 C2527 1.362 . S
C2527 H2517 0.930 . S
C2527 C2520 1.409 . S
C2527 C2526 1.362 . S
H2528 C2534 0.930 . S
H2529 C2537 0.930 . S
H2530 C2538 0.930 . S
H2531 C2539 0.930 . S
H2532 C2542 0.930 . S
H2533 C2543 0.930 . S
C2534 H2528 0.930 . S
C2534 C2535 1.355 . S
C2534 C2536 1.415 . S
C2535 C2534 1.355 . S
C2535 C2537 1.419 . S
C2536 C2534 1.415 . S
C2536 C2541 1.425 . S
C2536 C2543 1.409 . S
C2537 H2529 0.930 . S
C2537 C2535 1.419 . S
C2537 C2538 1.362 . S
C2538 H2530 0.930 . S
C2538 C2537 1.362 . S
C2538 C2541 1.409 . S
C2539 H2531 0.930 . S
C2539 C2540 1.355 . S
C2539 C2541 1.415 . S
C2540 C2539 1.355 . S
C2540 C2542 1.419 . S
C2541 C2536 1.425 . S
C2541 C2538 1.409 . S
C2541 C2539 1.415 . S
C2542 H2532 0.930 . S
C2542 C2540 1.419 . S
C2542 C2543 1.362 . S
C2543 H2533 0.930 . S
C2543 C2536 1.409 . S
C2543 C2542 1.362 . S
H2544 C2550 0.930 . S
H2545 C2553 0.930 . S
H2546 C2554 0.930 . S
H2547 C2555 0.930 . S
H2548 C2558 0.930 . S
H2549 C2559 0.930 . S
C2550 H2544 0.930 . S
C2550 C2551 1.355 . S
C2550 C2552 1.415 . S
C2551 C2550 1.355 . S
C2551 C2553 1.419 . S
C2552 C2550 1.415 . S
C2552 C2557 1.425 . S
C2552 C2559 1.409 . S
C2553 H2545 0.930 . S
C2553 C2551 1.419 . S
C2553 C2554 1.362 . S
C2554 H2546 0.930 . S
C2554 C2553 1.362 . S
C2554 C2557 1.409 . S
C2555 H2547 0.930 . S
C2555 C2556 1.355 . S
C2555 C2557 1.415 . S
C2556 C2555 1.355 . S
C2556 C2558 1.419 . S
C2557 C2552 1.425 . S
C2557 C2554 1.409 . S
C2557 C2555 1.415 . S
C2558 H2548 0.930 . S
C2558 C2556 1.419 . S
C2558 C2559 1.362 . S
C2559 H2549 0.930 . S
C2559 C2552 1.409 . S
C2559 C2558 1.362 . S
H2560 C2566 0.930 . S
H2561 C2569 0.930 . S
H2562 C2570 0.930 . S
H2563 C2571 0.930 . S
H2564 C2574 0.930 . S
H2565 C2575 0.930 . S
C2566 H2560 0.930 . S
C2566 C2567 1.355 . S
C2566 C2568 1.415 . S
C2567 C2566 1.355 . S
C2567 C2569 1.419 . S
C2568 C2566 1.415 . S
C2568 C2573 1.425 . S
C2568 C2575 1.409 . S
C2569 H2561 0.930 . S
C2569 C2567 1.419 . S
C2569 C2570 1.362 . S
C2570 H2562 0.930 . S
C2570 C2569 1.362 . S
C2570 C2573 1.409 . S
C2571 H2563 0.930 . S
C2571 C2572 1.355 . S
C2571 C2573 1.415 . S
C2572 C2571 1.355 . S
C2572 C2574 1.419 . S
C2573 C2568 1.425 . S
C2573 C2570 1.409 . S
C2573 C2571 1.415 . S
C2574 H2564 0.930 . S
C2574 C2572 1.419 . S
C2574 C2575 1.362 . S
C2575 H2565 0.930 . S
C2575 C2568 1.409 . S
C2575 C2574 1.362 . S
H2576 C2582 0.930 . S
H2577 C2585 0.930 . S
H2578 C2586 0.930 . S
H2579 C2587 0.930 . S
H2580 C2590 0.930 . S
H2581 C2591 0.930 . S
C2582 H2576 0.930 . S
C2582 C2583 1.355 . S
C2582 C2584 1.415 . S
C2583 C2582 1.355 . S
C2583 C2585 1.419 . S
C2584 C2582 1.415 . S
C2584 C2589 1.425 . S
C2584 C2591 1.409 . S
C2585 H2577 0.930 . S
C2585 C2583 1.419 . S
C2585 C2586 1.362 . S
C2586 H2578 0.930 . S
C2586 C2585 1.362 . S
C2586 C2589 1.409 . S
C2587 H2579 0.930 . S
C2587 C2588 1.355 . S
C2587 C2589 1.415 . S
C2588 C2587 1.355 . S
C2588 C2590 1.419 . S
C2589 C2584 1.425 . S
C2589 C2586 1.409 . S
C2589 C2587 1.415 . S
C2590 H2580 0.930 . S
C2590 C2588 1.419 . S
C2590 C2591 1.362 . S
C2591 H2581 0.930 . S
C2591 C2584 1.409 . S
C2591 C2590 1.362 . S
H2592 C2598 0.930 . S
H2593 C2601 0.930 . S
H2594 C2602 0.930 . S
H2595 C2603 0.930 . S
H2596 C2606 0.930 . S
H2597 C2607 0.930 . S
C2598 H2592 0.930 . S
C2598 C2599 1.355 . S
C2598 C2600 1.415 . S
C2599 C2598 1.355 . S
C2599 C2601 1.419 . S
C2600 C2598 1.415 . S
C2600 C2605 1.425 . S
C2600 C2607 1.409 . S
C2601 H2593 0.930 . S
C2601 C2599 1.419 . S
C2601 C2602 1.362 . S
C2602 H2594 0.930 . S
C2602 C2601 1.362 . S
C2602 C2605 1.409 . S
C2603 H2595 0.930 . S
C2603 C2604 1.355 . S
C2603 C2605 1.415 . S
C2604 C2603 1.355 . S
C2604 C2606 1.419 . S
C2605 C2600 1.425 . S
C2605 C2602 1.409 . S
C2605 C2603 1.415 . S
C2606 H2596 0.930 . S
C2606 C2604 1.419 . S
C2606 C2607 1.362 . S
C2607 H2597 0.930 . S
C2607 C2600 1.409 . S
C2607 C2606 1.362 . S
H2608 C2614 0.930 . S
H2609 C2617 0.930 . S
H2610 C2618 0.930 . S
H2611 C2619 0.930 . S
H2612 C2622 0.930 . S
H2613 C2623 0.930 . S
C2614 H2608 0.930 . S
C2614 C2615 1.355 . S
C2614 C2616 1.415 . S
C2615 C2614 1.355 . S
C2615 C2617 1.419 . S
C2616 C2614 1.415 . S
C2616 C2621 1.425 . S
C2616 C2623 1.409 . S
C2617 H2609 0.930 . S
C2617 C2615 1.419 . S
C2617 C2618 1.362 . S
C2618 H2610 0.930 . S
C2618 C2617 1.362 . S
C2618 C2621 1.409 . S
C2619 H2611 0.930 . S
C2619 C2620 1.355 . S
C2619 C2621 1.415 . S
C2620 C2619 1.355 . S
C2620 C2622 1.419 . S
C2621 C2616 1.425 . S
C2621 C2618 1.409 . S
C2621 C2619 1.415 . S
C2622 H2612 0.930 . S
C2622 C2620 1.419 . S
C2622 C2623 1.362 . S
C2623 H2613 0.930 . S
C2623 C2616 1.409 . S
C2623 C2622 1.362 . S
H2624 C2630 0.930 . S
H2625 C2633 0.930 . S
H2626 C2634 0.930 . S
H2627 C2635 0.930 . S
H2628 C2638 0.930 . S
H2629 C2639 0.930 . S
C2630 H2624 0.930 . S
C2630 C2631 1.355 . S
C2630 C2632 1.415 . S
C2631 C2630 1.355 . S
C2631 C2633 1.419 . S
C2632 C2630 1.415 . S
C2632 C2637 1.425 . S
C2632 C2639 1.409 . S
C2633 H2625 0.930 . S
C2633 C2631 1.419 . S
C2633 C2634 1.362 . S
C2634 H2626 0.930 . S
C2634 C2633 1.362 . S
C2634 C2637 1.409 . S
C2635 H2627 0.930 . S
C2635 C2636 1.355 . S
C2635 C2637 1.415 . S
C2636 C2635 1.355 . S
C2636 C2638 1.419 . S
C2637 C2632 1.425 . S
C2637 C2634 1.409 . S
C2637 C2635 1.415 . S
C2638 H2628 0.930 . S
C2638 C2636 1.419 . S
C2638 C2639 1.362 . S
C2639 H2629 0.930 . S
C2639 C2632 1.409 . S
C2639 C2638 1.362 . S
C1111 N725 1.956 . S
C1116 C7 2.033 . S
C1127 N35 1.935 . S
C1132 C651 2.041 . S
C1143 C53 2.021 . S
C1148 N679 1.911 . S
C1159 C697 2.047 . S
C1164 N81 1.967 . S
C1175 N587 1.947 . S
C1180 C99 2.045 . S
C1191 N127 1.916 . S
C1196 C605 2.033 . S
C1207 N633 1.937 . S
C1212 C145 2.042 . S
C1223 N173 1.913 . S
C1228 C559 2.032 . S
C1239 N196 1.358 . S
C1244 N1024 1.333 . S
C1255 N955 1.920 . S
C1260 C214 2.035 . S
C1271 N978 1.394 . S
C1276 N242 1.386 . S
C1287 C260 2.047 . S
C1292 N1001 1.969 . S
C1303 N288 1.393 . S
C1308 N1093 1.392 . S
C1319 C306 2.038 . S
C1324 N1047 1.965 . S
C1335 N334 1.380 . S
C1340 N1070 1.358 . S
C1351 N932 1.941 . S
C1356 C352 2.043 . S
C1367 C904 2.047 . S
C1372 N380 1.956 . S
C1383 N403 1.937 . S
C1388 C766 2.042 . S
C1399 N794 1.347 . S
C1404 N426 1.371 . S
C1415 N449 1.971 . S
C1420 C812 2.043 . S
C1431 N748 1.389 . S
C1436 N472 1.372 . S
C1447 C858 2.035 . S
C1452 N495 1.919 . S
C1463 N518 1.311 . S
C1468 N886 1.329 . S
C1479 N840 1.343 . S
C1484 N541 1.321 . S
C1495 N219 2.186 . S
C1500 N12 2.204 . S
C1511 C237 2.385 . S
C1516 C30 2.355 1_565 S
C1527 N58 2.178 . S
C1532 N265 2.214 . S
C1543 C191 2.394 . S
C1548 C76 2.330 1_545 S
C1559 N104 2.203 1_455 S
C1564 N357 2.199 1_655 S
C1575 C283 2.367 . S
C1580 C122 2.362 1_565 S
C1591 N311 2.218 . S
C1596 N150 2.176 . S
C1607 C329 2.391 . S
C1612 C168 2.344 1_545 S
C1623 C421 2.369 . S
C1628 C375 2.366 1_556 S
C1639 C513 2.388 . S
C1644 C398 2.326 1_554 S
C1655 C536 2.379 . S
C1660 C444 2.362 1_554 S
C1671 C467 2.394 . S
C1676 C490 2.334 1_556 S
C1687 N771 2.175 . S
C1692 N564 2.221 . S
C1703 C789 2.375 . S
C1708 C582 2.365 . S
C1719 N817 2.213 . S
C1724 N610 2.189 . S
C1735 C628 2.366 . S
C1740 C743 2.372 . S
C1751 N656 2.220 . S
C1756 N909 2.178 . S
C1767 C674 2.364 . S
C1772 C835 2.367 . S
C1783 N863 2.176 . S
C1788 N702 2.221 . S
C1799 C881 2.372 . S
C1804 C720 2.342 . S
C1815 C927 2.366 . S
C1820 C973 2.368 . S
C1831 C1065 2.373 . S
C1836 C950 2.366 . S
C1847 C1088 2.367 . S
C1852 C996 2.363 . S
C1863 C1042 2.366 . S
C1868 C1019 2.372 . S
C1879 N2 1.759 . S
C1884 N416 1.794 . S
C1895 C39 1.842 . S
C1900 N439 1.816 . S
C1911 N48 1.759 . S
C1916 N462 1.713 . S
C1927 N393 1.854 . S
C1932 C85 1.903 . S
C1943 N94 1.717 . S
C1948 N508 1.798 . S
C1959 C131 1.896 . S
C1964 N370 1.783 . S
C1975 N531 1.734 . S
C1980 N140 1.675 . S
C1991 N485 1.858 . S
C1996 C177 1.884 . S
C2007 C200 1.679 . S
C2012 C223 1.686 . S
C2023 N209 1.768 . S
C2028 N232 1.723 . S
C2039 C246 1.607 . S
C2044 C269 1.680 . S
C2055 N186 1.703 . S
C2060 N255 1.700 . S
C2071 C361 1.664 . S
C2076 C292 1.653 . S
C2087 N278 1.706 . S
C2092 N301 1.748 . S
C2103 C315 1.691 . S
C2108 C338 1.681 . S
C2119 N347 1.686 . S
C2124 N324 1.777 . S
C2135 N71 1.768 . S
C2140 C384 1.862 . S
C2151 N117 1.769 . S
C2156 C407 1.873 . S
C2167 C154 1.666 . S
C2172 C430 1.658 . S
C2183 C453 1.859 . S
C2188 N163 1.769 . S
C2199 C108 1.675 . S
C2204 C476 1.671 . S
C2215 N25 1.773 . S
C2220 C499 1.852 . S
C2231 C62 1.659 . S
C2236 C522 1.636 . S
C2247 C16 1.661 . S
C2252 C545 1.647 . S
C2263 N968 1.699 . S
C2268 N554 1.716 . S
C2279 C591 1.874 . S
C2284 N991 1.855 . S
C2295 N1014 1.701 . S
C2300 N600 1.737 . S
C2311 N945 1.858 . S
C2316 C637 1.893 . S
C2327 N646 1.775 . S
C2332 N1060 1.735 . S
C2343 C683 1.850 . S
C2348 N922 1.833 . S
C2359 N1083 1.702 . S
C2364 N692 1.741 . S
C2375 C729 1.858 . S
C2380 N1037 1.769 . S
C2391 C752 1.612 . S
C2396 C775 1.664 . S
C2407 N761 1.680 . S
C2412 N784 1.721 . S
C2423 C798 1.615 . S
C2428 C821 1.662 . S
C2439 N807 1.729 . S
C2444 N738 1.699 . S
C2455 C913 1.659 . S
C2460 C844 1.625 . S
C2471 N830 1.783 . S
C2476 N853 1.691 . S
C2487 C867 1.714 . S
C2492 C890 1.653 . S
C2503 N899 1.692 . S
C2508 N876 1.784 . S
C2519 N623 1.806 . S
C2524 C936 1.840 . S
C2535 N669 1.770 . S
C2540 C959 1.878 . S
C2551 C706 1.673 . S
C2556 C982 1.607 . S
C2567 C1005 1.912 . S
C2572 N715 1.810 . S
C2583 C660 1.670 . S
C2588 C1028 1.664 . S
C2599 N577 1.844 . S
C2604 C1051 1.859 . S
C2615 C1074 1.656 . S
C2620 C614 1.665 . S
C2631 C568 1.659 . S
C2636 C1097 1.628 . S
