# Generated by pormake.
# Topology umc, (4)-cn, num edge types: 1
# Building blocks:
#     Node 0, Type 0, BuildingBlock: KOZSID_clean_sbu_0, # of connection points: 4
#     Node 1, Type 0, BuildingBlock: KOZSID_clean_sbu_0, # of connection points: 4
#     Node 2, Type 0, BuildingBlock: KOZSID_clean_sbu_0, # of connection points: 4
#     Node 3, Type 0, BuildingBlock: KOZSID_clean_sbu_0, # of connection points: 4
#     Node 4, Type 0, BuildingBlock: KOZSID_clean_sbu_0, # of connection points: 4
#     Node 5, Type 0, BuildingBlock: KOZSID_clean_sbu_0, # of connection points: 4
#     Node 6, Type 0, BuildingBlock: KOZSID_clean_sbu_0, # of connection points: 4
#     Node 7, Type 0, BuildingBlock: KOZSID_clean_sbu_0, # of connection points: 4
#     Node 8, Type 0, BuildingBlock: KOZSID_clean_sbu_0, # of connection points: 4
#     Node 9, Type 0, BuildingBlock: KOZSID_clean_sbu_0, # of connection points: 4
#     Node 10, Type 0, BuildingBlock: KOZSID_clean_sbu_0, # of connection points: 4
#     Node 11, Type 0, BuildingBlock: KOZSID_clean_sbu_0, # of connection points: 4
#     Node 12, Type 0, BuildingBlock: KOZSID_clean_sbu_0, # of connection points: 4
#     Node 13, Type 0, BuildingBlock: KOZSID_clean_sbu_0, # of connection points: 4
#     Node 14, Type 0, BuildingBlock: KOZSID_clean_sbu_0, # of connection points: 4
#     Node 15, Type 0, BuildingBlock: KOZSID_clean_sbu_0, # of connection points: 4
#     Edge 16, Type (0, 0), BuildingBlock: XUDNAN_clean_linker_2, # of connection points: 2
#     Edge 17, Type (0, 0), BuildingBlock: XUDNAN_clean_linker_2, # of connection points: 2
#     Edge 18, Type (0, 0), BuildingBlock: XUDNAN_clean_linker_2, # of connection points: 2
#     Edge 19, Type (0, 0), BuildingBlock: XUDNAN_clean_linker_2, # of connection points: 2
#     Edge 20, Type (0, 0), BuildingBlock: XUDNAN_clean_linker_2, # of connection points: 2
#     Edge 21, Type (0, 0), BuildingBlock: XUDNAN_clean_linker_2, # of connection points: 2
#     Edge 22, Type (0, 0), BuildingBlock: XUDNAN_clean_linker_2, # of connection points: 2
#     Edge 23, Type (0, 0), BuildingBlock: XUDNAN_clean_linker_2, # of connection points: 2
#     Edge 24, Type (0, 0), BuildingBlock: XUDNAN_clean_linker_2, # of connection points: 2
#     Edge 25, Type (0, 0), BuildingBlock: XUDNAN_clean_linker_2, # of connection points: 2
#     Edge 26, Type (0, 0), BuildingBlock: XUDNAN_clean_linker_2, # of connection points: 2
#     Edge 27, Type (0, 0), BuildingBlock: XUDNAN_clean_linker_2, # of connection points: 2
#     Edge 28, Type (0, 0), BuildingBlock: XUDNAN_clean_linker_2, # of connection points: 2
#     Edge 29, Type (0, 0), BuildingBlock: XUDNAN_clean_linker_2, # of connection points: 2
#     Edge 30, Type (0, 0), BuildingBlock: XUDNAN_clean_linker_2, # of connection points: 2
#     Edge 31, Type (0, 0), BuildingBlock: XUDNAN_clean_linker_2, # of connection points: 2
#     Edge 32, Type (0, 0), BuildingBlock: XUDNAN_clean_linker_2, # of connection points: 2
#     Edge 33, Type (0, 0), BuildingBlock: XUDNAN_clean_linker_2, # of connection points: 2
#     Edge 34, Type (0, 0), BuildingBlock: XUDNAN_clean_linker_2, # of connection points: 2
#     Edge 35, Type (0, 0), BuildingBlock: XUDNAN_clean_linker_2, # of connection points: 2
#     Edge 36, Type (0, 0), BuildingBlock: XUDNAN_clean_linker_2, # of connection points: 2
#     Edge 37, Type (0, 0), BuildingBlock: XUDNAN_clean_linker_2, # of connection points: 2
#     Edge 38, Type (0, 0), BuildingBlock: XUDNAN_clean_linker_2, # of connection points: 2
#     Edge 39, Type (0, 0), BuildingBlock: XUDNAN_clean_linker_2, # of connection points: 2
#     Edge 40, Type (0, 0), BuildingBlock: XUDNAN_clean_linker_2, # of connection points: 2
#     Edge 41, Type (0, 0), BuildingBlock: XUDNAN_clean_linker_2, # of connection points: 2
#     Edge 42, Type (0, 0), BuildingBlock: XUDNAN_clean_linker_2, # of connection points: 2
#     Edge 43, Type (0, 0), BuildingBlock: XUDNAN_clean_linker_2, # of connection points: 2
#     Edge 44, Type (0, 0), BuildingBlock: XUDNAN_clean_linker_2, # of connection points: 2
#     Edge 45, Type (0, 0), BuildingBlock: XUDNAN_clean_linker_2, # of connection points: 2
#     Edge 46, Type (0, 0), BuildingBlock: XUDNAN_clean_linker_2, # of connection points: 2
#     Edge 47, Type (0, 0), BuildingBlock: XUDNAN_clean_linker_2, # of connection points: 2
# Relax obj value: 0.055
# Max RMSD: 0.170
# Mean RMSD: 0.170
data_MOF--net-umc--node1-KOZSID_clean_sbu_0--edge1-XUDNAN_clean_linker_2
_symmetry_space_group_name_H-M    P1
_symmetry_Int_Tables_number       1
_symmetry_cell_setting            triclinic
loop_
_symmetry_equiv_pos_as_xyz
'x, y, z'
_cell_length_a     66.654661
_cell_length_b     39.554333
_cell_length_c     62.577642
_cell_angle_alpha  90.008063
_cell_angle_beta   90.092336
_cell_angle_gamma 89.939417
loop_
_atom_site_label
_atom_site_type_symbol
_atom_site_fract_x
_atom_site_fract_y
_atom_site_fract_z
_atom_type_partial_charge
C0 C 0.37811 0.05398 0.33162 0.0
C1 C 0.36504 0.02884 0.32485 0.0
C2 C 0.35384 0.01992 0.34231 0.0
C3 C 0.36052 0.04036 0.35856 0.0
N4 N 0.3751 0.06167 0.35237 0.0
Co5 Co 0.3871 0.09803 0.36994 0.0
N6 N 0.37857 0.0758 0.39674 0.0
C7 C 0.36646 0.04866 0.39835 0.0
C8 C 0.36736 0.0336 0.41806 0.0
C9 C 0.38047 0.05293 0.42966 0.0
C10 C 0.38622 0.07973 0.41663 0.0
N11 N 0.39821 0.13535 0.38776 0.0
C12 C 0.39974 0.13847 0.40941 0.0
C13 C 0.40582 0.17088 0.41492 0.0
C14 C 0.40814 0.18847 0.39617 0.0
C15 C 0.4032 0.16611 0.38023 0.0
N16 N 0.39646 0.11869 0.34272 0.0
C17 C 0.40263 0.15073 0.34019 0.0
C18 C 0.41025 0.1565 0.3201 0.0
C19 C 0.40874 0.12614 0.30942 0.0
C20 C 0.40014 0.10345 0.32357 0.0
N21 N 0.36145 0.1234 0.36819 0.0
C22 C 0.32838 0.16805 0.36516 0.0
C23 C 0.33697 0.15357 0.34686 0.0
C24 C 0.35317 0.13097 0.34872 0.0
C25 C 0.33603 0.1582 0.38509 0.0
C26 C 0.35258 0.13615 0.38626 0.0
N27 N 0.41287 0.0737 0.37166 0.0
C28 C 0.44911 0.07564 0.37189 0.0
C29 C 0.45028 0.04096 0.37621 0.0
C30 C 0.43216 0.02285 0.3776 0.0
C31 C 0.41369 0.0396 0.3752 0.0
C32 C 0.43042 0.09138 0.36969 0.0
H33 H 0.40009 0.02502 0.37646 0.0
H34 H 0.43027 0.11814 0.36666 0.0
H35 H 0.35941 0.12054 0.33425 0.0
H36 H 0.3586 0.13047 0.40183 0.0
C37 C 0.3572 0.03482 0.38029 0.0
C38 C 0.39406 0.06844 0.31841 0.0
C39 C 0.39403 0.11217 0.42504 0.0
C40 C 0.40474 0.17191 0.35809 0.0
H41 H 0.36427 0.0173 0.30919 0.0
H42 H 0.34313 0.99944 0.34334 0.0
H43 H 0.35985 0.01078 0.42322 0.0
H44 H 0.38423 0.04909 0.44632 0.0
H45 H 0.40801 0.18104 0.43079 0.0
H46 H 0.41297 0.21444 0.39441 0.0
H47 H 0.41711 0.17949 0.31425 0.0
H48 H 0.41357 0.12146 0.29322 0.0
H49 H 0.33143 0.16015 0.33112 0.0
H50 H 0.32992 0.16878 0.39966 0.0
H51 H 0.46255 0.09091 0.37084 0.0
H52 H 0.43221 0.99588 0.38056 0.0
C53 C 0.66091 0.94174 0.33403 0.0
C54 C 0.67459 0.96627 0.3276 0.0
C55 C 0.68586 0.97447 0.34515 0.0
C56 C 0.67883 0.95418 0.36121 0.0
N57 N 0.6638 0.93372 0.35492 0.0
Co58 Co 0.65236 0.89671 0.37247 0.0
N59 N 0.66179 0.91779 0.39949 0.0
C60 C 0.67617 0.94147 0.40112 0.0
C61 C 0.67943 0.95178 0.42177 0.0
C62 C 0.6664 0.93316 0.43393 0.0
C63 C 0.65601 0.91221 0.41997 0.0
N64 N 0.64136 0.85944 0.39018 0.0
C65 C 0.63754 0.85825 0.41148 0.0
C66 C 0.63021 0.82676 0.41727 0.0
C67 C 0.62945 0.80773 0.39891 0.0
C68 C 0.63642 0.82853 0.38297 0.0
N69 N 0.64275 0.87616 0.34534 0.0
C70 C 0.63636 0.84405 0.34309 0.0
C71 C 0.62762 0.83836 0.32357 0.0
C72 C 0.62889 0.86851 0.31282 0.0
C73 C 0.63903 0.89101 0.32606 0.0
N74 N 0.67787 0.87128 0.37005 0.0
C75 C 0.71066 0.82641 0.36557 0.0
C76 C 0.70263 0.84365 0.34789 0.0
C77 C 0.68648 0.86609 0.35047 0.0
C78 C 0.70256 0.83366 0.38573 0.0
C79 C 0.68618 0.85592 0.38761 0.0
N80 N 0.62658 0.92083 0.37488 0.0
C81 C 0.59048 0.91723 0.37534 0.0
C82 C 0.58881 0.95149 0.38036 0.0
C83 C 0.60651 0.97062 0.38197 0.0
C84 C 0.62533 0.9547 0.37929 0.0
C85 C 0.60929 0.90259 0.37255 0.0
H86 H 0.63883 0.96951 0.38111 0.0
H87 H 0.60969 0.8761 0.36885 0.0
H88 H 0.68049 0.87827 0.33642 0.0
H89 H 0.67976 0.85956 0.40324 0.0
C90 C 0.68417 0.95646 0.38279 0.0
C91 C 0.64641 0.92509 0.31954 0.0
C92 C 0.64203 0.88554 0.42673 0.0
C93 C 0.63467 0.8227 0.36094 0.0
H94 H 0.67663 0.97682 0.31182 0.0
H95 H 0.69758 0.99334 0.34612 0.0
H96 H 0.68962 0.97123 0.42728 0.0
H97 H 0.66494 0.93469 0.45112 0.0
H98 H 0.62591 0.81844 0.43309 0.0
H99 H 0.62365 0.78231 0.39726 0.0
H100 H 0.61996 0.81572 0.3183 0.0
H101 H 0.62253 0.87314 0.29722 0.0
H102 H 0.70855 0.83934 0.33201 0.0
H103 H 0.70816 0.82096 0.39986 0.0
H104 H 0.57722 0.90158 0.37379 0.0
H105 H 0.60584 0.99725 0.3859 0.0
C106 C 0.3838 0.9419 0.175 0.0
C107 C 0.36999 0.96653 0.18102 0.0
C108 C 0.35809 0.97272 0.16361 0.0
C109 C 0.36493 0.95124 0.14807 0.0
N110 N 0.38042 0.93191 0.15454 0.0
Co111 Co 0.39206 0.89399 0.13785 0.0
N112 N 0.38173 0.91263 0.11046 0.0
C113 C 0.36678 0.93534 0.10858 0.0
C114 C 0.36223 0.94305 0.08777 0.0
C115 C 0.37497 0.92368 0.07573 0.0
C116 C 0.38666 0.90513 0.08995 0.0
N117 N 0.40338 0.85588 0.12107 0.0
C118 C 0.40641 0.85273 0.09968 0.0
C119 C 0.415 0.82161 0.09496 0.0
C120 C 0.41692 0.80457 0.11394 0.0
C121 C 0.40959 0.82618 0.12922 0.0
N122 N 0.40245 0.87598 0.16543 0.0
C123 C 0.40955 0.84447 0.16856 0.0
C124 C 0.41894 0.84088 0.18793 0.0
C125 C 0.41744 0.87183 0.19765 0.0
C126 C 0.40649 0.89264 0.18402 0.0
N127 N 0.36684 0.86786 0.14156 0.0
C128 C 0.33166 0.82796 0.14728 0.0
C129 C 0.34116 0.84447 0.16454 0.0
C130 C 0.35837 0.86438 0.16134 0.0
C131 C 0.3405 0.83219 0.12704 0.0
C132 C 0.35799 0.85179 0.12458 0.0
N133 N 0.41744 0.91913 0.13415 0.0
C134 C 0.4537 0.91952 0.13588 0.0
C135 C 0.4544 0.95289 0.12857 0.0
C136 C 0.43607 0.96914 0.12413 0.0
C137 C 0.41776 0.95199 0.12729 0.0
C138 C 0.43527 0.90311 0.13826 0.0
H139 H 0.40389 0.96515 0.12404 0.0
H140 H 0.4356 0.87716 0.14329 0.0
H141 H 0.36497 0.87666 0.17505 0.0
H142 H 0.36436 0.85375 0.10881 0.0
C143 C 0.35898 0.95143 0.12664 0.0
C144 C 0.3989 0.92702 0.18954 0.0
C145 C 0.40018 0.87761 0.08338 0.0
C146 C 0.4117 0.82215 0.15133 0.0
H147 H 0.36831 0.97845 0.19646 0.0
H148 H 0.3461 0.99109 0.16237 0.0
H149 H 0.35116 0.96091 0.08201 0.0
H150 H 0.37513 0.9226 0.05846 0.0
H151 H 0.41942 0.81214 0.07945 0.0
H152 H 0.42368 0.77998 0.11638 0.0
H153 H 0.42731 0.81921 0.19362 0.0
H154 H 0.42429 0.87816 0.21277 0.0
H155 H 0.33565 0.84182 0.18069 0.0
H156 H 0.33394 0.82076 0.11297 0.0
H157 H 0.46741 0.90571 0.13918 0.0
H158 H 0.43588 0.99498 0.11841 0.0
C159 C 0.66558 0.04905 0.17191 0.0
C160 C 0.67953 0.02405 0.17673 0.0
C161 C 0.69126 0.02 0.15893 0.0
C162 C 0.68403 0.04297 0.1444 0.0
N163 N 0.66852 0.06116 0.15194 0.0
Co164 Co 0.65572 0.09973 0.13714 0.0
N165 N 0.66503 0.08353 0.10881 0.0
C166 C 0.68021 0.0616 0.10558 0.0
C167 C 0.68389 0.05559 0.08437 0.0
C168 C 0.67035 0.07526 0.07354 0.0
C169 C 0.65907 0.09231 0.08883 0.0
N170 N 0.64326 0.13867 0.1222 0.0
C171 C 0.63933 0.14343 0.10108 0.0
C172 C 0.63051 0.17482 0.09777 0.0
C173 C 0.62933 0.19029 0.11739 0.0
C174 C 0.63736 0.16758 0.13164 0.0
N175 N 0.64642 0.11509 0.16577 0.0
C176 C 0.63983 0.14636 0.17046 0.0
C177 C 0.63224 0.14848 0.19081 0.0
C178 C 0.6343 0.11667 0.19941 0.0
C179 C 0.64339 0.09674 0.18394 0.0
N180 N 0.68076 0.12651 0.14045 0.0
C181 C 0.71397 0.17053 0.14609 0.0
C182 C 0.70645 0.15099 0.16307 0.0
C183 C 0.69008 0.12906 0.1599 0.0
C184 C 0.70487 0.1664 0.12603 0.0
C185 C 0.68833 0.14463 0.12359 0.0
N186 N 0.63044 0.07419 0.13385 0.0
C187 C 0.59424 0.07387 0.13623 0.0
C188 C 0.59337 0.0412 0.1279 0.0
C189 C 0.61151 0.02498 0.1228 0.0
C190 C 0.62994 0.04183 0.12607 0.0
C191 C 0.61274 0.08985 0.13896 0.0
H192 H 0.64373 0.02901 0.12201 0.0
H193 H 0.61256 0.11531 0.14494 0.0
H194 H 0.68466 0.11478 0.1734 0.0
H195 H 0.68132 0.14331 0.10808 0.0
C196 C 0.6891 0.04454 0.12275 0.0
C197 C 0.65014 0.06125 0.18686 0.0
C198 C 0.64499 0.11987 0.08374 0.0
C199 C 0.63657 0.16998 0.15404 0.0
H200 H 0.68106 0.01014 0.19154 0.0
H201 H 0.70316 1.00172 0.15665 0.0
H202 H 0.69493 0.03866 0.07756 0.0
H203 H 0.66941 0.07757 0.05634 0.0
H204 H 0.62554 0.18551 0.08275 0.0
H205 H 0.62274 0.21468 0.12089 0.0
H206 H 0.62476 0.16991 0.19804 0.0
H207 H 0.62909 0.10931 0.21504 0.0
H208 H 0.71306 0.15283 0.17885 0.0
H209 H 0.70994 0.18098 0.11243 0.0
H210 H 0.58058 0.08739 0.14016 0.0
H211 H 0.61143 0.99971 0.11613 0.0
C212 C 0.63897 0.9058 0.68422 0.0
C213 C 0.63071 0.88461 0.69951 0.0
C214 C 0.62845 0.85342 0.69001 0.0
C215 C 0.63521 0.85715 0.6694 0.0
N216 N 0.64154 0.88877 0.66544 0.0
Co217 Co 0.64965 0.90656 0.63703 0.0
N218 N 0.63698 0.86858 0.62135 0.0
C219 C 0.63198 0.83863 0.63002 0.0
C220 C 0.62412 0.81658 0.61524 0.0
C221 C 0.62444 0.83367 0.5961 0.0
C222 C 0.63242 0.86538 0.60026 0.0
N223 N 0.65752 0.92565 0.60892 0.0
C224 C 0.65063 0.91866 0.58901 0.0
C225 C 0.6602 0.93872 0.57389 0.0
C226 C 0.67401 0.95786 0.58467 0.0
C227 C 0.67197 0.9489 0.60572 0.0
N228 N 0.663 0.94383 0.65254 0.0
C229 C 0.67806 0.96294 0.64495 0.0
C230 C 0.68585 0.98454 0.65999 0.0
C231 C 0.67494 0.97863 0.67816 0.0
C232 C 0.6609 0.95399 0.67302 0.0
N233 N 0.67503 0.88006 0.6381 0.0
C234 C 0.71063 0.84068 0.63884 0.0
C235 C 0.69988 0.8459 0.61987 0.0
C236 C 0.68218 0.86511 0.61987 0.0
C237 C 0.70304 0.85546 0.65758 0.0
C238 C 0.68537 0.87526 0.65684 0.0
N239 N 0.624 0.93179 0.63596 0.0
C240 C 0.60472 0.98343 0.6327 0.0
C241 C 0.58659 0.96578 0.63582 0.0
C242 C 0.58776 0.93083 0.63884 0.0
C243 C 0.60641 0.91457 0.63913 0.0
C244 C 0.6232 0.96595 0.63255 0.0
H245 H 0.60646 0.88788 0.64231 0.0
H246 H 0.63685 0.98003 0.62994 0.0
H247 H 0.67431 0.86779 0.60493 0.0
H248 H 0.68014 0.88681 0.67144 0.0
C249 C 0.63179 0.83457 0.65239 0.0
C250 C 0.64563 0.94116 0.68784 0.0
C251 C 0.63698 0.89068 0.58363 0.0
C252 C 0.68175 0.9642 0.62299 0.0
H253 H 0.62641 0.89076 0.71566 0.0
H254 H 0.62151 0.83129 0.69697 0.0
H255 H 0.61826 0.79148 0.61812 0.0
H256 H 0.61954 0.82385 0.58082 0.0
H257 H 0.65786 0.93902 0.55678 0.0
H258 H 0.68407 0.97652 0.57798 0.0
H259 H 0.69741 0.0034 0.65777 0.0
H260 H 0.67684 0.99138 0.69333 0.0
H261 H 0.70514 0.83509 0.60499 0.0
H262 H 0.71098 0.85254 0.67258 0.0
H263 H 0.60462 0.01055 0.63033 0.0
H264 H 0.57433 0.91614 0.64175 0.0
C265 C 0.39848 0.11307 0.68289 0.0
C266 C 0.40656 0.13811 0.6958 0.0
C267 C 0.40671 0.16742 0.68388 0.0
C268 C 0.39868 0.15883 0.66436 0.0
N269 N 0.39369 0.12597 0.66333 0.0
Co270 Co 0.38113 0.10378 0.63832 0.0
N271 N 0.38949 0.14009 0.61813 0.0
C272 C 0.39425 0.17174 0.62411 0.0
C273 C 0.3977 0.19249 0.60693 0.0
C274 C 0.3948 0.17264 0.58911 0.0
C275 C 0.39024 0.14029 0.59629 0.0
N276 N 0.36794 0.08125 0.6138 0.0
C277 C 0.36733 0.09143 0.59316 0.0
C278 C 0.3489 0.08296 0.58403 0.0
C279 C 0.339 0.06311 0.59836 0.0
C280 C 0.3511 0.06273 0.616 0.0
N281 N 0.37249 0.06738 0.65804 0.0
C282 C 0.35767 0.04509 0.65426 0.0
C283 C 0.35621 0.02054 0.66959 0.0
C284 C 0.37083 0.02816 0.68415 0.0
C285 C 0.38004 0.05778 0.67719 0.0
N286 N 0.35581 0.12933 0.64376 0.0
C287 C 0.32218 0.17229 0.65142 0.0
C288 C 0.33212 0.15522 0.66822 0.0
C289 C 0.34864 0.13382 0.66407 0.0
C290 C 0.32942 0.16633 0.63071 0.0
C291 C 0.34612 0.14547 0.62731 0.0
N292 N 0.40707 0.08027 0.63326 0.0
C293 C 0.42905 0.03117 0.63475 0.0
C294 C 0.44621 0.05205 0.63485 0.0
C295 C 0.44313 0.08678 0.63249 0.0
C296 C 0.42384 0.10017 0.63203 0.0
C297 C 0.40956 0.04582 0.63382 0.0
H298 H 0.4228 0.12722 0.63201 0.0
H299 H 0.39661 0.02947 0.63456 0.0
H300 H 0.35596 0.12165 0.67741 0.0
H301 H 0.35136 0.14332 0.61117 0.0
C302 C 0.39794 0.17917 0.64584 0.0
C303 C 0.39392 0.07823 0.69021 0.0
C304 C 0.38305 0.11196 0.58263 0.0
C305 C 0.3471 0.04577 0.63504 0.0
H306 H 0.41157 0.13553 0.71218 0.0
H307 H 0.41244 0.19184 0.68874 0.0
H308 H 0.40185 0.21893 0.60726 0.0
H309 H 0.39485 0.18187 0.57288 0.0
H310 H 0.34293 0.09079 0.56873 0.0
H311 H 0.32439 0.05156 0.59647 0.0
H312 H 0.34615 0.99907 0.66984 0.0
H313 H 0.374 0.0136 0.69837 0.0
H314 H 0.3276 0.15885 0.68465 0.0
H315 H 0.32233 0.17773 0.61691 0.0
H316 H 0.4306 0.00405 0.63639 0.0
H317 H 0.45572 0.10408 0.63198 0.0
C318 C 0.64062 0.117 0.82447 0.0
C319 C 0.63126 0.14034 0.81116 0.0
C320 C 0.63036 0.17033 0.82212 0.0
C321 C 0.63848 0.16375 0.84182 0.0
N322 N 0.6443 0.13133 0.84395 0.0
Co323 Co 0.65204 0.10917 0.8713 0.0
N324 N 0.64098 0.14651 0.88907 0.0
C325 C 0.63656 0.17772 0.88185 0.0
C326 C 0.62919 0.19857 0.8975 0.0
C327 C 0.62934 0.17953 0.9158 0.0
C328 C 0.63703 0.14801 0.91037 0.0
N329 N 0.65943 0.08593 0.89843 0.0
C330 C 0.65373 0.09198 0.91895 0.0
C331 C 0.66348 0.07003 0.9329 0.0
C332 C 0.67584 0.05014 0.92079 0.0
C333 C 0.67302 0.06086 0.90018 0.0
N334 N 0.6637 0.07245 0.85365 0.0
C335 C 0.67799 0.0508 0.86024 0.0
C336 C 0.68513 0.03055 0.84417 0.0
C337 C 0.67461 0.03998 0.82633 0.0
C338 C 0.66125 0.06511 0.83262 0.0
N339 N 0.67818 0.13335 0.87112 0.0
C340 C 0.71082 0.17938 0.87113 0.0
C341 C 0.7017 0.16884 0.89019 0.0
C342 C 0.68558 0.14621 0.88986 0.0
C343 C 0.70415 0.16412 0.85209 0.0
C344 C 0.6879 0.14114 0.85244 0.0
N345 N 0.6256 0.08659 0.87145 0.0
C346 C 0.60399 0.03726 0.87171 0.0
C347 C 0.5869 0.05766 0.86847 0.0
C348 C 0.58976 0.09266 0.86774 0.0
C349 C 0.60891 0.10636 0.869 0.0
C350 C 0.62324 0.05226 0.87319 0.0
H351 H 0.61005 0.13328 0.8675 0.0
H352 H 0.63621 0.03619 0.87532 0.0
H353 H 0.67853 0.14059 0.90487 0.0
H354 H 0.68264 0.13086 0.83745 0.0
C355 C 0.63607 0.18432 0.85987 0.0
C356 C 0.64703 0.08224 0.81811 0.0
C357 C 0.64202 0.12151 0.92617 0.0
C358 C 0.68184 0.04665 0.88202 0.0
H359 H 0.6249 0.13637 0.7955 0.0
H360 H 0.62304 0.19336 0.81693 0.0
H361 H 0.62365 0.22415 0.89571 0.0
H362 H 0.62452 0.18804 0.9314 0.0
H363 H 0.66256 0.06935 0.95015 0.0
H364 H 0.68576 0.03033 0.92638 0.0
H365 H 0.69619 0.01059 0.84539 0.0
H366 H 0.67667 0.0295 0.81052 0.0
H367 H 0.70654 0.17892 0.90544 0.0
H368 H 0.71074 0.17109 0.83691 0.0
H369 H 0.60259 0.01002 0.87249 0.0
H370 H 0.57717 0.10977 0.86589 0.0
C371 C 0.39367 0.91153 0.82662 0.0
C372 C 0.39914 0.89072 0.80976 0.0
C373 C 0.40107 0.85863 0.818 0.0
C374 C 0.39659 0.86151 0.83937 0.0
N375 N 0.39193 0.89336 0.84497 0.0
Co376 Co 0.38521 0.90886 0.87422 0.0
N377 N 0.39737 0.86834 0.88778 0.0
C378 C 0.40164 0.83921 0.87759 0.0
C379 C 0.40997 0.81539 0.89088 0.0
C380 C 0.41069 0.8303 0.91068 0.0
C381 C 0.40255 0.86245 0.90848 0.0
N382 N 0.37861 0.92529 0.90339 0.0
C383 C 0.38527 0.91488 0.92282 0.0
C384 C 0.37562 0.93255 0.93908 0.0
C385 C 0.3625 0.9544 0.92949 0.0
C386 C 0.36472 0.94892 0.90801 0.0
N387 N 0.37274 0.94915 0.86059 0.0
C388 C 0.35954 0.97024 0.86991 0.0
C389 C 0.35484 0.99757 0.85741 0.0
C390 C 0.36573 0.99344 0.83906 0.0
C391 C 0.37623 0.9632 0.84115 0.0
N392 N 0.35921 0.88438 0.87291 0.0
C393 C 0.32366 0.84524 0.87123 0.0
C394 C 0.33495 0.84777 0.89003 0.0
C395 C 0.35259 0.86701 0.8905 0.0
C396 C 0.33046 0.86303 0.85322 0.0
C397 C 0.34814 0.88265 0.85443 0.0
N398 N 0.41134 0.93214 0.8755 0.0
C399 C 0.43125 0.9827 0.87974 0.0
C400 C 0.44881 0.96502 0.87432 0.0
C401 C 0.44724 0.93046 0.87003 0.0
C402 C 0.42846 0.91469 0.87043 0.0
C403 C 0.41274 0.96571 0.88058 0.0
H404 H 0.42782 0.88841 0.86608 0.0
H405 H 0.3995 0.97985 0.88488 0.0
H406 H 0.36094 0.86745 0.90522 0.0
H407 H 0.35291 0.89631 0.84039 0.0
C408 C 0.40041 0.83716 0.85519 0.0
C409 C 0.38894 0.94788 0.82443 0.0
C410 C 0.39837 0.88544 0.9266 0.0
C411 C 0.35592 0.9682 0.89183 0.0
H412 H 0.40153 0.898 0.79329 0.0
H413 H 0.40609 0.83626 0.8096 0.0
H414 H 0.41545 0.79054 0.88659 0.0
H415 H 0.41635 0.81863 0.92512 0.0
H416 H 0.37728 0.92935 0.95615 0.0
H417 H 0.35269 0.97242 0.93726 0.0
H418 H 0.34583 0.01929 0.86174 0.0
H419 H 0.36616 0.01149 0.82614 0.0
H420 H 0.33017 0.83479 0.90439 0.0
H421 H 0.32199 0.86232 0.83845 0.0
H422 H 0.4318 0.00954 0.88314 0.0
H423 H 0.46035 0.91595 0.86545 0.0
C424 C 0.87813 0.55027 0.33746 0.0
C425 C 0.86542 0.52361 0.33239 0.0
C426 C 0.85438 0.51689 0.35036 0.0
C427 C 0.86074 0.54002 0.36525 0.0
N428 N 0.87504 0.5608 0.35774 0.0
Co429 Co 0.88615 0.60031 0.373 0.0
N430 N 0.87846 0.58134 0.40114 0.0
C431 C 0.8648 0.55684 0.40438 0.0
C432 C 0.86252 0.54873 0.42555 0.0
C433 C 0.8754 0.56971 0.43633 0.0
C434 C 0.88472 0.58976 0.42106 0.0
N435 N 0.8966 0.64036 0.38845 0.0
C436 C 0.90098 0.64442 0.40949 0.0
C437 C 0.90736 0.67717 0.41351 0.0
C438 C 0.90685 0.69403 0.39428 0.0
C439 C 0.90013 0.67077 0.37959 0.0
N440 N 0.89407 0.61836 0.3446 0.0
C441 C 0.89878 0.65072 0.34041 0.0
C442 C 0.90576 0.65489 0.31992 0.0
C443 C 0.90528 0.62325 0.31074 0.0
C444 C 0.89775 0.60132 0.32606 0.0
N445 N 0.85981 0.62328 0.37072 0.0
C446 C 0.8241 0.66184 0.36628 0.0
C447 C 0.83266 0.64455 0.34885 0.0
C448 C 0.85021 0.62533 0.35142 0.0
C449 C 0.83386 0.65864 0.38612 0.0
C450 C 0.85158 0.63951 0.38797 0.0
N451 N 0.91276 0.57861 0.37494 0.0
C452 C 0.94845 0.58477 0.37031 0.0
C453 C 0.9515 0.54997 0.37256 0.0
C454 C 0.93466 0.52979 0.37721 0.0
C455 C 0.91536 0.54466 0.37836 0.0
C456 C 0.92924 0.59834 0.37135 0.0
H457 H 0.90254 0.5287 0.38141 0.0
H458 H 0.92783 0.62498 0.36848 0.0
H459 H 0.85628 0.61272 0.33758 0.0
H460 H 0.8588 0.63838 0.40339 0.0
C461 C 0.85631 0.53945 0.3871 0.0
C462 C 0.8928 0.56512 0.32265 0.0
C463 C 0.89783 0.61858 0.42611 0.0
C464 C 0.90057 0.67427 0.3572 0.0
H465 H 0.86436 0.51024 0.31734 0.0
H466 H 0.84361 0.49674 0.35254 0.0
H467 H 0.853 0.52937 0.43233 0.0
H468 H 0.87736 0.57048 0.45348 0.0
H469 H 0.91181 0.68776 0.42875 0.0
H470 H 0.91157 0.71976 0.39127 0.0
H471 H 0.91168 0.67778 0.31286 0.0
H472 H 0.91028 0.61738 0.29478 0.0
H473 H 0.82621 0.64633 0.33302 0.0
H474 H 0.8279 0.67072 0.40027 0.0
H475 H 0.9609 0.60168 0.36726 0.0
H476 H 0.93626 0.50273 0.37919 0.0
C477 C 0.16358 0.43711 0.33544 0.0
C478 C 0.17701 0.46233 0.32958 0.0
C479 C 0.18534 0.4744 0.34797 0.0
C480 C 0.1771 0.45528 0.36392 0.0
N481 N 0.16434 0.43127 0.35683 0.0
Co482 Co 0.1519 0.39468 0.37457 0.0
N483 N 0.16149 0.41577 0.40194 0.0
C484 C 0.17211 0.44471 0.40375 0.0
C485 C 0.17516 0.45484 0.42443 0.0
C486 C 0.16569 0.43119 0.43663 0.0
C487 C 0.15755 0.40761 0.42263 0.0
N488 N 0.14038 0.35721 0.39233 0.0
C489 C 0.13928 0.35342 0.4139 0.0
C490 C 0.1304 0.32292 0.41937 0.0
C491 C 0.12541 0.30722 0.40065 0.0
C492 C 0.13165 0.32877 0.38483 0.0
N493 N 0.14118 0.37522 0.34719 0.0
C494 C 0.12995 0.34689 0.34554 0.0
C495 C 0.12087 0.34324 0.32606 0.0
C496 C 0.12642 0.37104 0.31461 0.0
C497 C 0.13922 0.38989 0.3275 0.0
N498 N 0.17746 0.36756 0.372 0.0
C499 C 0.21331 0.32836 0.36914 0.0
C500 C 0.19482 0.31528 0.36267 0.0
C501 C 0.17735 0.33521 0.36391 0.0
C502 C 0.21352 0.36143 0.37708 0.0
C503 C 0.19563 0.38017 0.37863 0.0
N504 N 0.12642 0.42089 0.37703 0.0
C505 C 0.09003 0.42171 0.37799 0.0
C506 C 0.08964 0.45685 0.37616 0.0
C507 C 0.10811 0.47386 0.37563 0.0
C508 C 0.12621 0.45556 0.37639 0.0
C509 C 0.10834 0.40442 0.37825 0.0
H510 H 0.13992 0.46976 0.37602 0.0
H511 H 0.10738 0.37754 0.37886 0.0
H512 H 0.16399 0.32381 0.35807 0.0
H513 H 0.19699 0.40483 0.38527 0.0
C514 C 0.1794 0.46134 0.38573 0.0
C515 C 0.14925 0.42147 0.32052 0.0
C516 C 0.14597 0.37824 0.42974 0.0
C517 C 0.12663 0.32595 0.36321 0.0
H518 H 0.1801 0.47188 0.31373 0.0
H519 H 0.19571 0.4953 0.34957 0.0
H520 H 0.18319 0.47695 0.42997 0.0
H521 H 0.16479 0.43155 0.45388 0.0
H522 H 0.12741 0.31342 0.43527 0.0
H523 H 0.11736 0.28365 0.39881 0.0
H524 H 0.11054 0.3236 0.32114 0.0
H525 H 0.1209 0.37698 0.29882 0.0
H526 H 0.19388 0.29 0.35608 0.0
H527 H 0.22748 0.37277 0.3823 0.0
H528 H 0.07621 0.40733 0.37827 0.0
H529 H 0.1086 0.50116 0.37447 0.0
C530 C 0.88158 0.4435 0.17694 0.0
C531 C 0.86751 0.46717 0.18377 0.0
C532 C 0.85554 0.47446 0.1666 0.0
C533 C 0.86258 0.45446 0.15039 0.0
N534 N 0.87825 0.43502 0.1562 0.0
Co535 Co 0.88989 0.39833 0.13842 0.0
N536 N 0.87926 0.41863 0.11162 0.0
C537 C 0.86436 0.44155 0.11048 0.0
C538 C 0.85962 0.45064 0.08994 0.0
C539 C 0.87217 0.43197 0.07727 0.0
C540 C 0.88392 0.41239 0.09087 0.0
N541 N 0.90102 0.36127 0.12054 0.0
C542 C 0.9036 0.35924 0.09903 0.0
C543 C 0.91203 0.32836 0.09345 0.0
C544 C 0.91435 0.31033 0.11201 0.0
C545 C 0.90736 0.33113 0.12791 0.0
N546 N 0.90074 0.37884 0.1654 0.0
C547 C 0.90819 0.34738 0.16761 0.0
C548 C 0.9179 0.34283 0.18672 0.0
C549 C 0.91624 0.37308 0.19726 0.0
C550 C 0.90489 0.39443 0.18436 0.0
N551 N 0.86478 0.37178 0.14183 0.0
C552 C 0.8298 0.33127 0.14706 0.0
C553 C 0.83834 0.33685 0.12681 0.0
C554 C 0.85572 0.35678 0.12458 0.0
C555 C 0.83948 0.34672 0.16458 0.0
C556 C 0.85662 0.36691 0.16164 0.0
N557 N 0.91517 0.42385 0.13506 0.0
C558 C 0.95147 0.42381 0.13483 0.0
C559 C 0.95209 0.45853 0.13047 0.0
C560 C 0.93355 0.47552 0.1285 0.0
C561 C 0.91533 0.45778 0.13083 0.0
C562 C 0.93309 0.40717 0.13706 0.0
H563 H 0.90137 0.47144 0.12922 0.0
H564 H 0.93354 0.38053 0.14035 0.0
H565 H 0.86185 0.35986 0.10877 0.0
H566 H 0.86339 0.37828 0.17555 0.0
C567 C 0.85658 0.4562 0.12902 0.0
C568 C 0.89698 0.42816 0.19092 0.0
C569 C 0.89712 0.38499 0.08339 0.0
C570 C 0.91003 0.32601 0.14986 0.0
H571 H 0.86571 0.47775 0.19959 0.0
H572 H 0.84336 0.49255 0.16596 0.0
H573 H 0.8485 0.46885 0.08477 0.0
H574 H 0.87214 0.43196 0.05998 0.0
H575 H 0.91609 0.31971 0.07763 0.0
H576 H 0.92113 0.28562 0.11377 0.0
H577 H 0.92652 0.32101 0.19174 0.0
H578 H 0.92323 0.37863 0.21243 0.0
H579 H 0.8316 0.32622 0.11257 0.0
H580 H 0.83415 0.34299 0.18072 0.0
H581 H 0.96514 0.40914 0.1361 0.0
H582 H 0.93304 0.50241 0.12534 0.0
C583 C 0.16518 0.54847 0.17302 0.0
C584 C 0.17879 0.52249 0.17681 0.0
C585 C 0.18977 0.5186 0.15847 0.0
C586 C 0.18249 0.54262 0.14467 0.0
N587 N 0.16765 0.56132 0.15315 0.0
Co588 Co 0.15529 0.60144 0.13961 0.0
N589 N 0.16325 0.58608 0.11064 0.0
C590 C 0.1778 0.5634 0.1064 0.0
C591 C 0.18074 0.5584 0.08496 0.0
C592 C 0.16737 0.57954 0.07505 0.0
C593 C 0.1569 0.59636 0.09108 0.0
N594 N 0.1434 0.64204 0.12593 0.0
C595 C 0.13878 0.64807 0.1051 0.0
C596 C 0.13047 0.68008 0.1028 0.0
C597 C 0.13042 0.69465 0.12273 0.0
C598 C 0.13851 0.67081 0.13617 0.0
N599 N 0.14721 0.61585 0.16885 0.0
C600 C 0.14144 0.64723 0.1744 0.0
C601 C 0.13452 0.64876 0.19504 0.0
C602 C 0.13616 0.61643 0.20293 0.0
C603 C 0.14438 0.59678 0.18677 0.0
N604 N 0.18103 0.62642 0.14251 0.0
C605 C 0.21495 0.66897 0.14779 0.0
C606 C 0.20756 0.64922 0.16474 0.0
C607 C 0.19084 0.62796 0.16173 0.0
C608 C 0.20539 0.66571 0.12792 0.0
C609 C 0.18849 0.64469 0.12566 0.0
N610 N 0.12928 0.57785 0.13673 0.0
C611 C 0.09314 0.58135 0.13864 0.0
C612 C 0.09108 0.54859 0.13066 0.0
C613 C 0.10867 0.53013 0.12633 0.0
C614 C 0.12767 0.54532 0.12938 0.0
C615 C 0.11215 0.59526 0.1417 0.0
H616 H 0.14102 0.53112 0.12545 0.0
H617 H 0.11282 0.62063 0.14776 0.0
H618 H 0.18552 0.6135 0.1752 0.0
H619 H 0.1811 0.64421 0.11035 0.0
C620 C 0.18687 0.54496 0.12288 0.0
C621 C 0.15057 0.56084 0.18883 0.0
C622 C 0.14327 0.62503 0.0871 0.0
C623 C 0.13836 0.67197 0.15862 0.0
H624 H 0.18061 0.50787 0.1913 0.0
H625 H 0.20122 0.4998 0.15537 0.0
H626 H 0.19122 0.54125 0.07741 0.0
H627 H 0.16607 0.58295 0.05795 0.0
H628 H 0.12503 0.69177 0.08828 0.0
H629 H 0.1244 0.71916 0.12701 0.0
H630 H 0.12776 0.67025 0.20296 0.0
H631 H 0.13129 0.60858 0.21859 0.0
H632 H 0.21451 0.65046 0.18037 0.0
H633 H 0.21035 0.68051 0.11436 0.0
H634 H 0.08001 0.59647 0.14227 0.0
H635 H 0.10773 0.50468 0.12003 0.0
C636 C 0.14113 0.40632 0.68731 0.0
C637 C 0.13602 0.38372 0.70335 0.0
C638 C 0.13522 0.35224 0.69408 0.0
C639 C 0.13992 0.35725 0.67294 0.0
N640 N 0.1435 0.38992 0.66835 0.0
Co641 Co 0.15126 0.40766 0.63982 0.0
N642 N 0.1417 0.36639 0.62481 0.0
C643 C 0.13843 0.33621 0.63409 0.0
C644 C 0.13244 0.31193 0.61973 0.0
C645 C 0.13213 0.32779 0.6002 0.0
C646 C 0.13792 0.361 0.60372 0.0
N647 N 0.159 0.42582 0.61135 0.0
C648 C 0.15349 0.41588 0.59145 0.0
C649 C 0.16204 0.43661 0.576 0.0
C650 C 0.17369 0.45959 0.5866 0.0
C651 C 0.17147 0.45198 0.60783 0.0
N652 N 0.16107 0.44892 0.65477 0.0
C653 C 0.1733 0.47252 0.64638 0.0
C654 C 0.17664 0.49928 0.65982 0.0
C655 C 0.16598 0.49209 0.67789 0.0
C656 C 0.15697 0.4608 0.67465 0.0
N657 N 0.17803 0.38608 0.6429 0.0
C658 C 0.21149 0.34297 0.64957 0.0
C659 C 0.20283 0.3467 0.62924 0.0
C660 C 0.18621 0.3682 0.62627 0.0
C661 C 0.20382 0.36333 0.6661 0.0
C662 C 0.18736 0.38486 0.6624 0.0
N663 N 0.1242 0.42774 0.63689 0.0
C664 C 0.10156 0.47377 0.62825 0.0
C665 C 0.08481 0.45289 0.63169 0.0
C666 C 0.08829 0.41961 0.63822 0.0
C667 C 0.10788 0.40775 0.64093 0.0
C668 C 0.12115 0.46061 0.63076 0.0
H669 H 0.10972 0.38201 0.64609 0.0
H670 H 0.13379 0.47684 0.62751 0.0
H671 H 0.17938 0.36891 0.61065 0.0
H672 H 0.1816 0.39934 0.67565 0.0
C673 C 0.13833 0.33324 0.65647 0.0
C674 C 0.14549 0.44243 0.69106 0.0
C675 C 0.14148 0.38571 0.58655 0.0
C676 C 0.17806 0.47207 0.62471 0.0
H677 H 0.13345 0.38933 0.72005 0.0
H678 H 0.13116 0.3287 0.70174 0.0
H679 H 0.12829 0.28603 0.6231 0.0
H680 H 0.12838 0.31616 0.58505 0.0
H681 H 0.16015 0.43538 0.55885 0.0
H682 H 0.18211 0.48024 0.57967 0.0
H683 H 0.18488 0.52223 0.65644 0.0
H684 H 0.16488 0.50848 0.69165 0.0
H685 H 0.20813 0.33173 0.6159 0.0
H686 H 0.21022 0.3621 0.682 0.0
H687 H 0.09955 0.49968 0.62308 0.0
H688 H 0.07585 0.40264 0.64118 0.0
C689 C 0.89463 0.60699 0.68295 0.0
C690 C 0.90346 0.62771 0.69818 0.0
C691 C 0.90647 0.65863 0.68861 0.0
C692 C 0.8996 0.65523 0.668 0.0
N693 N 0.89248 0.62404 0.66413 0.0
Co694 Co 0.88402 0.60653 0.63576 0.0
N695 N 0.89818 0.64287 0.62006 0.0
C696 C 0.90405 0.67249 0.62858 0.0
C697 C 0.91291 0.69335 0.61379 0.0
C698 C 0.91234 0.67583 0.59481 0.0
C699 C 0.9032 0.64506 0.59907 0.0
N700 N 0.87565 0.58791 0.60769 0.0
C701 C 0.883 0.5938 0.58784 0.0
C702 C 0.8728 0.57461 0.57271 0.0
C703 C 0.85819 0.55716 0.58342 0.0
C704 C 0.86039 0.56621 0.60445 0.0
N705 N 0.86946 0.5708 0.65134 0.0
C706 C 0.85387 0.55289 0.64374 0.0
C707 C 0.84567 0.53175 0.65877 0.0
C708 C 0.85689 0.53669 0.67691 0.0
C709 C 0.87149 0.56034 0.67178 0.0
N710 N 0.85961 0.63554 0.63636 0.0
C711 C 0.82771 0.68332 0.63677 0.0
C712 C 0.83797 0.6751 0.61789 0.0
C713 C 0.8537 0.65163 0.61803 0.0
C714 C 0.83322 0.66549 0.65537 0.0
C715 C 0.84916 0.64177 0.65482 0.0
N716 N 0.90872 0.57886 0.63501 0.0
C717 C 0.92655 0.52663 0.62831 0.0
C718 C 0.94526 0.54238 0.63196 0.0
C719 C 0.94493 0.57669 0.63757 0.0
C720 C 0.92674 0.59415 0.63914 0.0
C721 C 0.90854 0.54527 0.62984 0.0
H722 H 0.92742 0.62045 0.6434 0.0
H723 H 0.89448 0.53267 0.62665 0.0
H724 H 0.86146 0.64737 0.6032 0.0
H725 H 0.85336 0.62916 0.66947 0.0
C726 C 0.90396 0.67711 0.65089 0.0
C727 C 0.88718 0.57208 0.68656 0.0
C728 C 0.89795 0.61991 0.58257 0.0
C729 C 0.85012 0.5519 0.62174 0.0
H730 H 0.90777 0.62144 0.71432 0.0
H731 H 0.91408 0.68023 0.69547 0.0
H732 H 0.91956 0.71791 0.61657 0.0
H733 H 0.91781 0.68478 0.57955 0.0
H734 H 0.87532 0.5737 0.55565 0.0
H735 H 0.84756 0.53941 0.57671 0.0
H736 H 0.83365 0.5137 0.65656 0.0
H737 H 0.85482 0.52393 0.69205 0.0
H738 H 0.83412 0.68721 0.60291 0.0
H739 H 0.82582 0.67068 0.6704 0.0
H740 H 0.92572 0.50006 0.62429 0.0
H741 H 0.95867 0.59062 0.6402 0.0
C742 C 0.14443 0.60799 0.82979 0.0
C743 C 0.13826 0.62956 0.81359 0.0
C744 C 0.13541 0.66076 0.82282 0.0
C745 C 0.14006 0.6566 0.84408 0.0
N746 N 0.14566 0.62478 0.8487 0.0
Co747 Co 0.15302 0.60759 0.87744 0.0
N748 N 0.13975 0.64599 0.89224 0.0
C749 C 0.13446 0.67539 0.88293 0.0
C750 C 0.12564 0.69755 0.89695 0.0
C751 C 0.12569 0.68129 0.91633 0.0
C752 C 0.13474 0.65005 0.91315 0.0
N753 N 0.16038 0.58963 0.90611 0.0
C754 C 0.15363 0.59808 0.92587 0.0
C755 C 0.16379 0.57983 0.94153 0.0
C756 C 0.17735 0.55964 0.93123 0.0
C757 C 0.17485 0.56662 0.90995 0.0
N758 N 0.16647 0.56937 0.8626 0.0
C759 C 0.1803 0.54863 0.87122 0.0
C760 C 0.186 0.52315 0.85767 0.0
C761 C 0.17512 0.52814 0.83936 0.0
C762 C 0.16352 0.55691 0.84263 0.0
N763 N 0.17826 0.63437 0.87674 0.0
C764 C 0.2099 0.68238 0.87537 0.0
C765 C 0.19977 0.67492 0.89444 0.0
C766 C 0.18418 0.65128 0.89477 0.0
C767 C 0.20469 0.66327 0.85721 0.0
C768 C 0.1889 0.63937 0.85824 0.0
N769 N 0.12757 0.58218 0.87826 0.0
C770 C 0.10844 0.53188 0.88623 0.0
C771 C 0.09027 0.54837 0.88121 0.0
C772 C 0.09146 0.58199 0.87425 0.0
C773 C 0.11007 0.59823 0.87285 0.0
C774 C 0.12684 0.54916 0.88468 0.0
H775 H 0.11016 0.62417 0.86768 0.0
H776 H 0.14046 0.53594 0.88886 0.0
H777 H 0.17637 0.64795 0.90963 0.0
H778 H 0.18479 0.62592 0.84386 0.0
C779 C 0.13554 0.67929 0.86063 0.0
C780 C 0.15027 0.57241 0.82649 0.0
C781 C 0.13994 0.62639 0.93062 0.0
C782 C 0.18399 0.54921 0.89317 0.0
H783 H 0.13602 0.62335 0.79692 0.0
H784 H 0.12968 0.6833 0.81513 0.0
H785 H 0.11944 0.72223 0.89344 0.0
H786 H 0.11998 0.69151 0.93116 0.0
H787 H 0.16217 0.58157 0.95868 0.0
H788 H 0.18762 0.54171 0.93841 0.0
H789 H 0.19585 0.50208 0.86116 0.0
H790 H 0.1755 0.51178 0.82556 0.0
H791 H 0.20346 0.68804 0.90911 0.0
H792 H 0.21209 0.66777 0.84209 0.0
H793 H 0.10854 0.50574 0.89135 0.0
H794 H 0.07805 0.59624 0.87044 0.0
C795 C 0.89888 0.39801 0.82379 0.0
C796 C 0.9085 0.37559 0.81008 0.0
C797 C 0.91021 0.34542 0.82069 0.0
C798 C 0.90226 0.35103 0.84057 0.0
N799 N 0.89582 0.38305 0.84316 0.0
Co800 Co 0.88752 0.40367 0.87081 0.0
N801 N 0.89915 0.36617 0.88803 0.0
C802 C 0.90441 0.33563 0.88035 0.0
C803 C 0.91209 0.31458 0.89575 0.0
C804 C 0.91132 0.33279 0.91437 0.0
C805 C 0.90302 0.36403 0.90934 0.0
N806 N 0.87938 0.42516 0.89826 0.0
C807 C 0.88509 0.41856 0.91871 0.0
C808 C 0.87482 0.43929 0.93296 0.0
C809 C 0.86215 0.459 0.92108 0.0
C810 C 0.8653 0.44937 0.90032 0.0
N811 N 0.87545 0.44079 0.85368 0.0
C812 C 0.86085 0.46163 0.86056 0.0
C813 C 0.85338 0.48219 0.84483 0.0
C814 C 0.86393 0.47383 0.82686 0.0
C815 C 0.87764 0.44893 0.83273 0.0
N816 N 0.86172 0.37855 0.86977 0.0
C817 C 0.82598 0.33975 0.86915 0.0
C818 C 0.8364 0.34594 0.88822 0.0
C819 C 0.85412 0.36491 0.88817 0.0
C820 C 0.83397 0.35334 0.85025 0.0
C821 C 0.8517 0.37291 0.85092 0.0
N822 N 0.91351 0.42756 0.87206 0.0
C823 C 0.93386 0.47686 0.87967 0.0
C824 C 0.95151 0.45771 0.87746 0.0
C825 C 0.94968 0.42374 0.87175 0.0
C826 C 0.93075 0.40936 0.86898 0.0
C827 C 0.91496 0.46124 0.87698 0.0
H828 H 0.93021 0.38303 0.86488 0.0
H829 H 0.90154 0.47609 0.87937 0.0
H830 H 0.86169 0.36823 0.90321 0.0
H831 H 0.85731 0.38341 0.83617 0.0
C832 C 0.90512 0.32994 0.85829 0.0
C833 C 0.89162 0.43237 0.81774 0.0
C834 C 0.89752 0.38965 0.92549 0.0
C835 C 0.85659 0.46428 0.88233 0.0
H836 H 0.91436 0.38034 0.7943 0.0
H837 H 0.91781 0.32289 0.81512 0.0
H838 H 0.91819 0.28944 0.8936 0.0
H839 H 0.91617 0.32393 0.9299 0.0
H840 H 0.87572 0.43932 0.95021 0.0
H841 H 0.85188 0.4781 0.92691 0.0
H842 H 0.84193 0.50148 0.84633 0.0
H843 H 0.86151 0.48465 0.81119 0.0
H844 H 0.83091 0.33593 0.90323 0.0
H845 H 0.82634 0.34957 0.83515 0.0
H846 H 0.93463 0.50325 0.88419 0.0
H847 H 0.96289 0.40806 0.86982 0.0
H848 H 0.41822 0.14051 0.45817 0.0
H849 H 0.35777 0.10573 0.44421 0.0
H850 H 0.35185 0.09697 0.48249 0.0
H851 H 0.43048 0.09876 0.50441 0.0
H852 H 0.43918 0.13343 0.52065 0.0
H853 H 0.44043 0.13626 0.49194 0.0
H854 H 0.41964 0.19145 0.4925 0.0
H855 H 0.41876 0.18932 0.52129 0.0
H856 H 0.39582 0.1922 0.5061 0.0
H857 H 0.36213 0.06699 0.51766 0.0
H858 H 0.3701 0.06019 0.55526 0.0
H859 H 0.41095 0.14419 0.55277 0.0
C860 C 0.40346 0.13237 0.46318 0.0
C861 C 0.38904 0.12074 0.44797 0.0
C862 C 0.36961 0.11213 0.45538 0.0
C863 C 0.36604 0.10708 0.47708 0.0
C864 C 0.3812 0.11505 0.49143 0.0
C865 C 0.39855 0.13109 0.48522 0.0
C866 C 0.41022 0.14241 0.50514 0.0
C867 C 0.43134 0.12678 0.50555 0.0
C868 C 0.41116 0.18116 0.50633 0.0
C869 C 0.39713 0.12797 0.52306 0.0
C870 C 0.38144 0.1102 0.51418 0.0
C871 C 0.37176 0.08514 0.52557 0.0
C872 C 0.37588 0.08231 0.54731 0.0
C873 C 0.38645 0.10811 0.55847 0.0
C874 C 0.39937 0.12874 0.54568 0.0
H875 H 0.66272 0.86891 0.55236 0.0
H876 H 0.60107 0.89882 0.56299 0.0
H877 H 0.59463 0.896 0.52391 0.0
H878 H 0.67008 0.91893 0.50704 0.0
H879 H 0.68606 0.88935 0.49325 0.0
H880 H 0.68498 0.88908 0.52199 0.0
H881 H 0.67523 0.8257 0.52158 0.0
H882 H 0.67644 0.82566 0.49281 0.0
H883 H 0.65387 0.81211 0.50611 0.0
H884 H 0.59607 0.89523 0.48303 0.0
H885 H 0.60519 0.89629 0.44455 0.0
H886 H 0.66605 0.86779 0.46071 0.0
C887 C 0.64774 0.87398 0.54642 0.0
C888 C 0.6323 0.88386 0.56061 0.0
C889 C 0.613 0.89092 0.55235 0.0
C890 C 0.60926 0.88947 0.53019 0.0
C891 C 0.62501 0.88081 0.5165 0.0
C892 C 0.64385 0.87298 0.52436 0.0
C893 C 0.65862 0.86696 0.50631 0.0
C894 C 0.67596 0.89261 0.50721 0.0
C895 C 0.6665 0.83043 0.50673 0.0
C896 C 0.6453 0.87307 0.48701 0.0
C897 C 0.6259 0.8808 0.49317 0.0
C898 C 0.61116 0.88889 0.47809 0.0
C899 C 0.61643 0.88945 0.45629 0.0
C900 C 0.63628 0.88224 0.44975 0.0
C901 C 0.65075 0.87336 0.46533 0.0
H902 H 0.41923 0.9132 0.05141 0.0
H903 H 0.38257 0.82467 0.06268 0.0
H904 H 0.38142 0.81343 0.02382 0.0
H905 H 0.39299 0.94048 0.0056 0.0
H906 H 0.4147 0.95596 0.99155 0.0
H907 H 0.41465 0.95484 0.02031 0.0
H908 H 0.44712 0.91878 0.01995 0.0
H909 H 0.44725 0.91976 0.99114 0.0
H910 H 0.44768 0.87982 1.005 0.0
H911 H 0.38117 0.81515 0.98375 0.0
H912 H 0.38166 0.8299 0.94539 0.0
H913 H 0.41913 0.91661 0.95924 0.0
C914 C 0.41145 0.89097 0.04564 0.0
C915 C 0.40151 0.86914 0.06008 0.0
C916 C 0.3908 0.84104 0.05195 0.0
C917 C 0.39 0.83458 0.02989 0.0
C918 C 0.39988 0.85658 0.01605 0.0
C919 C 0.41044 0.88422 0.02357 0.0
C920 C 0.41845 0.90527 1.00514 0.0
C921 C 0.40967 0.94126 0.00569 0.0
C922 C 0.4415 0.90594 0.00532 0.0
C923 C 0.41051 0.88544 0.98611 0.0
C924 C 0.39991 0.85736 0.9928 0.0
C925 C 0.38984 0.83659 0.97831 0.0
C926 C 0.39034 0.84498 0.95651 0.0
C927 C 0.40102 0.87368 0.94923 0.0
C928 C 0.41144 0.89387 0.96428 0.0
H929 H 0.62301 0.08745 0.95911 0.0
H930 H 0.66194 0.1727 0.94633 0.0
H931 H 0.66386 0.18494 0.98499 0.0
H932 H 0.59631 0.12311 0.00553 0.0
H933 H 0.5962 0.08365 0.01994 0.0
H934 H 0.59599 0.08363 0.99113 0.0
H935 H 0.62781 0.04598 0.9908 0.0
H936 H 0.62806 0.04579 0.01957 0.0
H937 H 0.64988 0.0597 1.00505 0.0
H938 H 0.66343 0.186 0.0251 0.0
H939 H 0.66223 0.17378 0.06384 0.0
H940 H 0.62457 0.08674 0.05155 0.0
C941 C 0.63156 0.10909 0.96451 0.0
C942 C 0.6418 0.12982 0.94963 0.0
C943 C 0.65346 0.15718 0.95734 0.0
C944 C 0.65471 0.16422 0.9793 0.0
C945 C 0.64447 0.14338 0.99355 0.0
C946 C 0.63322 0.11619 0.98652 0.0
C947 C 0.62508 0.09619 0.00536 0.0
C948 C 0.60202 0.09668 0.00549 0.0
C949 C 0.63319 0.05976 1.00518 0.0
C950 C 0.63358 0.11623 0.02404 0.0
C951 C 0.64456 0.14355 0.01682 0.0
C952 C 0.65463 0.16498 0.03093 0.0
C953 C 0.65374 0.15804 0.05293 0.0
C954 C 0.64283 0.12996 0.06074 0.0
C955 C 0.63252 0.10895 0.04605 0.0
H956 H 0.87389 0.64285 0.55003 0.0
H957 H 0.93423 0.60839 0.56352 0.0
H958 H 0.9422 0.61047 0.52477 0.0
H959 H 0.8669 0.59308 0.5045 0.0
H960 H 0.8522 0.62375 0.49002 0.0
H961 H 0.8523 0.6241 0.51877 0.0
H962 H 0.86367 0.68673 0.51859 0.0
H963 H 0.86357 0.6866 0.48979 0.0
H964 H 0.88595 0.69857 0.50412 0.0
H965 H 0.94219 0.61039 0.48392 0.0
H966 H 0.93417 0.60789 0.44517 0.0
H967 H 0.87375 0.64198 0.4584 0.0
C968 C 0.88891 0.63653 0.54479 0.0
C969 C 0.90352 0.62556 0.55968 0.0
C970 C 0.92292 0.61703 0.55233 0.0
C971 C 0.92753 0.61811 0.53036 0.0
C972 C 0.91257 0.62796 0.51595 0.0
C973 C 0.89366 0.63719 0.52293 0.0
C974 C 0.87974 0.64414 0.50421 0.0
C975 C 0.86173 0.61982 0.5044 0.0
C976 C 0.87283 0.68122 0.50418 0.0
C977 C 0.89361 0.63688 0.48556 0.0
C978 C 0.91255 0.62783 0.49261 0.0
C979 C 0.9275 0.61793 0.47827 0.0
C980 C 0.92287 0.61666 0.45631 0.0
C981 C 0.90347 0.6251 0.44888 0.0
C982 C 0.88882 0.63599 0.46369 0.0
H983 H 0.16831 0.3674 0.55538 0.0
H984 H 0.1052 0.3866 0.56613 0.0
H985 H 0.09878 0.38159 0.52715 0.0
H986 H 0.17229 0.41752 0.50975 0.0
H987 H 0.18997 0.39075 0.49602 0.0
H988 H 0.18905 0.39071 0.52476 0.0
H989 H 0.18333 0.32594 0.52477 0.0
H990 H 0.18441 0.3257 0.49599 0.0
H991 H 0.16287 0.30839 0.5095 0.0
H992 H 0.10007 0.38035 0.4864 0.0
H993 H 0.10882 0.38257 0.4479 0.0
H994 H 0.17127 0.36547 0.46368 0.0
C995 C 0.15307 0.36961 0.5495 0.0
C996 C 0.13717 0.37716 0.56369 0.0
C997 C 0.11749 0.38051 0.5555 0.0
C998 C 0.11377 0.37781 0.53339 0.0
C999 C 0.12991 0.37166 0.51968 0.0
C1000 C 0.14917 0.36739 0.52748 0.0
C1001 C 0.16416 0.36378 0.50937 0.0
C1002 C 0.17978 0.39239 0.51002 0.0
C1003 C 0.17429 0.32887 0.50995 0.0
C1004 C 0.15043 0.3672 0.49012 0.0
C1005 C 0.13069 0.37145 0.49637 0.0
C1006 C 0.11545 0.37667 0.48139 0.0
C1007 C 0.12052 0.37789 0.45957 0.0
C1008 C 0.14067 0.37416 0.45288 0.0
C1009 C 0.15573 0.36824 0.46839 0.0
H1010 H 0.91668 0.42285 0.95869 0.0
H1011 H 0.87791 0.33771 0.94499 0.0
H1012 H 0.87572 0.32494 0.98358 0.0
H1013 H 0.94334 0.38569 1.00473 0.0
H1014 H 0.94372 0.42481 0.0195 0.0
H1015 H 0.94381 0.42549 0.9907 0.0
H1016 H 0.91222 0.46367 0.99084 0.0
H1017 H 0.91202 0.46307 0.01962 0.0
H1018 H 0.89011 0.4499 1.0049 0.0
H1019 H 0.87583 0.32347 0.02367 0.0
H1020 H 0.87791 0.33386 0.06258 0.0
H1021 H 0.91616 0.42045 0.05121 0.0
C1022 C 0.90812 0.40111 0.96388 0.0
C1023 C 0.89792 0.38063 0.9488 0.0
C1024 C 0.88629 0.35308 0.9562 0.0
C1025 C 0.88488 0.34577 0.97811 0.0
C1026 C 0.89502 0.36646 0.99258 0.0
C1027 C 0.90639 0.39363 0.98582 0.0
C1028 C 0.91472 0.41304 1.00486 0.0
C1029 C 0.93777 0.4122 1.00495 0.0
C1030 C 0.90679 0.44958 1.00506 0.0
C1031 C 0.90617 0.39267 0.02333 0.0
C1032 C 0.89492 0.36581 0.01583 0.0
C1033 C 0.88484 0.34412 0.02971 0.0
C1034 C 0.88619 0.35006 0.05179 0.0
C1035 C 0.89763 0.37734 0.05992 0.0
C1036 C 0.90773 0.39892 0.04543 0.0
H1037 H 0.12254 0.59194 0.05524 0.0
H1038 H 0.15881 0.68071 0.06729 0.0
H1039 H 0.15821 0.69451 0.02878 0.0
H1040 H 0.14766 0.56813 0.00864 0.0
H1041 H 0.1259 0.55247 0.99468 0.0
H1042 H 0.12646 0.55232 0.02343 0.0
H1043 H 0.09358 0.58726 0.02435 0.0
H1044 H 0.09288 0.58743 0.99555 0.0
H1045 H 0.09222 0.62678 0.01006 0.0
H1046 H 0.15734 0.69485 0.98868 0.0
H1047 H 0.15626 0.68169 0.95008 0.0
H1048 H 0.1204 0.59285 0.96316 0.0
C1049 C 0.12973 0.6149 0.04978 0.0
C1050 C 0.14011 0.63597 0.06438 0.0
C1051 C 0.15015 0.66496 0.05655 0.0
C1052 C 0.15 0.67284 0.03465 0.0
C1053 C 0.13987 0.65135 0.02063 0.0
C1054 C 0.12987 0.62298 0.02787 0.0
C1055 C 0.12177 0.60241 0.00922 0.0
C1056 C 0.131 0.56673 0.00899 0.0
C1057 C 0.09874 0.60089 0.00984 0.0
C1058 C 0.12905 0.62331 0.99039 0.0
C1059 C 0.13937 0.65155 0.99736 0.0
C1060 C 0.14887 0.67328 0.98304 0.0
C1061 C 0.14807 0.66577 0.96111 0.0
C1062 C 0.13769 0.63692 0.95355 0.0
C1063 C 0.12786 0.61569 0.96845 0.0
H1064 H 0.56829 0.0029 0.35952 0.0
H1065 H 0.56316 0.93007 0.41096 0.0
H1066 H 0.52763 0.9459 0.41596 0.0
H1067 H 0.53406 0.06728 0.38278 0.0
H1068 H 0.52344 0.07833 0.35722 0.0
H1069 H 0.54897 0.06351 0.35889 0.0
H1070 H 0.5408 0.01636 0.33153 0.0
H1071 H 0.5152 0.03079 0.32995 0.0
H1072 H 0.52052 0.98747 0.3369 0.0
H1073 H 0.49212 0.96634 0.41383 0.0
H1074 H 0.45932 0.99255 0.40613 0.0
H1075 H 0.48659 0.05196 0.35559 0.0
C1076 C 0.55977 0.99104 0.37219 0.0
C1077 C 0.56852 0.96551 0.38505 0.0
C1078 C 0.55677 0.94985 0.40108 0.0
C1079 C 0.53656 0.95862 0.40399 0.0
C1080 C 0.52818 0.98315 0.39073 0.0
C1081 C 0.5394 0.99942 0.37526 0.0
C1082 C 0.52634 0.02386 0.36261 0.0
C1083 C 0.53364 0.06042 0.36556 0.0
C1084 C 0.52568 0.01402 0.33884 0.0
C1085 C 0.50607 0.01843 0.37323 0.0
C1086 C 0.50753 0.99485 0.38942 0.0
C1087 C 0.49081 0.98497 0.40124 0.0
C1088 C 0.47215 0.9998 0.39659 0.0
C1089 C 0.47018 0.02434 0.3802 0.0
C1090 C 0.48751 0.0336 0.36838 0.0
H1091 H 0.48681 0.9572 0.15601 0.0
H1092 H 0.46713 0.98557 0.09244 0.0
H1093 H 0.50093 0.00856 0.0848 0.0
H1094 H 0.51772 0.03211 0.1647 0.0
H1095 H 0.53653 0.00946 0.17969 0.0
H1096 H 0.51088 0.99519 0.17992 0.0
H1097 H 0.52248 0.93611 0.16706 0.0
H1098 H 0.54815 0.95033 0.16653 0.0
H1099 H 0.53694 0.93253 0.14284 0.0
H1100 H 0.53763 0.02642 0.08362 0.0
H1101 H 0.57281 0.04377 0.09044 0.0
H1102 H 0.56838 0.00658 0.15532 0.0
C1103 C 0.48961 0.96841 0.14051 0.0
C1104 C 0.47427 0.96953 0.12478 0.0
C1105 C 0.47852 0.98467 0.10478 0.0
C1106 C 0.49775 0.99755 0.10026 0.0
C1107 C 0.51261 0.99561 0.11599 0.0
C1108 C 0.50864 0.98196 0.13587 0.0
C1109 C 0.52702 0.98408 0.15025 0.0
C1110 C 0.52278 0.00655 0.16979 0.0
C1111 C 0.53406 0.94865 0.15707 0.0
C1112 C 0.54206 1.0006 0.1353 0.0
C1113 C 0.53348 0.00676 0.11554 0.0
C1114 C 0.54443 0.02172 0.09905 0.0
C1115 C 0.56444 0.03127 0.10298 0.0
C1116 C 0.57338 0.026 0.12324 0.0
C1117 C 0.56201 0.01034 0.13957 0.0
H1118 H 0.55016 0.94888 0.61682 0.0
H1119 H 0.57777 0.02239 0.65905 0.0
H1120 H 0.54474 0.04938 0.66461 0.0
H1121 H 0.51528 0.00822 0.59189 0.0
H1122 H 0.49523 0.97788 0.58965 0.0
H1123 H 0.52095 0.96384 0.5892 0.0
H1124 H 0.51365 0.92339 0.62073 0.0
H1125 H 0.48795 0.93758 0.62143 0.0
H1126 H 0.50328 0.94013 0.64513 0.0
H1127 H 0.50877 0.0668 0.66716 0.0
H1128 H 0.47289 0.07923 0.6628 0.0
H1129 H 0.4675 0.9973 0.61699 0.0
C1130 C 0.54924 0.97075 0.62718 0.0
C1131 C 0.5667 0.98351 0.63752 0.0
C1132 C 0.56479 0.01232 0.65079 0.0
C1133 C 0.54601 0.02765 0.65419 0.0
C1134 C 0.52914 0.01424 0.64402 0.0
C1135 C 0.53056 0.98681 0.63048 0.0
C1136 C 0.51006 0.97845 0.6209 0.0
C1137 C 0.5104 0.98233 0.59646 0.0
C1138 C 0.50334 0.94276 0.62744 0.0
C1139 C 0.49688 0.00539 0.63125 0.0
C1140 C 0.5083 0.02536 0.64474 0.0
C1141 C 0.49978 0.05162 0.65641 0.0
C1142 C 0.47929 0.05851 0.65376 0.0
C1143 C 0.46723 0.03975 0.63925 0.0
C1144 C 0.47617 0.01218 0.62821 0.0
H1145 H 0.56703 0.0046 0.88933 0.0
H1146 H 0.55948 0.07947 0.83919 0.0
H1147 H 0.5239 0.06444 0.83603 0.0
H1148 H 0.53263 0.94183 0.86443 0.0
H1149 H 0.523 0.92749 0.88975 0.0
H1150 H 0.54829 0.94331 0.88793 0.0
H1151 H 0.54049 0.98684 0.91767 0.0
H1152 H 0.51512 0.97144 0.9194 0.0
H1153 H 0.51972 0.01562 0.91434 0.0
H1154 H 0.48846 0.04593 0.84031 0.0
H1155 H 0.45603 0.01834 0.84811 0.0
H1156 H 0.48571 0.95146 0.89308 0.0
C1157 C 0.55797 0.01736 0.87744 0.0
C1158 C 0.56615 0.0439 0.86489 0.0
C1159 C 0.55362 0.05981 0.84948 0.0
C1160 C 0.53331 0.05136 0.84746 0.0
C1161 C 0.52554 0.02626 0.86059 0.0
C1162 C 0.5375 0.00882 0.87493 0.0
C1163 C 0.52509 0.98252 0.88682 0.0
C1164 C 0.53271 0.94666 0.88194 0.0
C1165 C 0.52511 0.98954 0.91099 0.0
C1166 C 0.50437 0.98848 0.87716 0.0
C1167 C 0.50503 0.01413 0.86222 0.0
C1168 C 0.48778 0.02549 0.85179 0.0
C1169 C 0.46939 0.00988 0.85643 0.0
C1170 C 0.46832 0.98283 0.87117 0.0
C1171 C 0.48611 0.97201 0.88166 0.0
H1172 H 0.97267 0.50105 0.39578 0.0
H1173 H 0.97723 0.56727 0.34067 0.0
H1174 H 1.01266 0.55151 0.33636 0.0
H1175 H 0.02133 0.51662 0.41705 0.0
H1176 H 0.02631 0.47361 0.42498 0.0
H1177 H 1.00085 0.48882 0.4237 0.0
H1178 H 0.99148 0.44023 0.39783 0.0
H1179 H 1.01686 0.42463 0.39924 0.0
H1180 H 1.00578 0.43438 0.37368 0.0
H1181 H 0.04822 0.53256 0.3393 0.0
H1182 H 0.0809 0.5055 0.34664 0.0
H1183 H 0.05403 0.44868 0.39853 0.0
C1184 C 0.98104 0.51174 0.3826 0.0
C1185 C 0.97212 0.53597 0.36882 0.0
C1186 C 0.98373 0.54933 0.35179 0.0
C1187 C 1.00392 0.54046 0.34913 0.0
C1188 C 1.01246 0.51763 0.36339 0.0
C1189 C 1.00138 0.50286 0.37955 0.0
C1190 C 1.01448 0.4788 0.39248 0.0
C1191 C 1.01581 0.49015 0.41594 0.0
C1192 C 1.00668 0.44235 0.3907 0.0
C1193 C 0.03458 0.48283 0.38121 0.0
C1194 C 0.03303 0.5056 0.36458 0.0
C1195 C 0.04959 0.51444 0.35218 0.0
C1196 C 0.06817 0.49917 0.35659 0.0
C1197 C 0.07013 0.475 0.37316 0.0
C1198 C 0.05302 0.4669 0.38566 0.0
H1199 H 0.07016 0.49573 0.14952 0.0
H1200 H 0.06512 0.57415 0.10149 0.0
H1201 H 0.02947 0.55937 0.09583 0.0
H1202 H 0.03591 0.4345 0.12381 0.0
H1203 H 0.02523 0.42087 0.14881 0.0
H1204 H 0.05074 0.43583 0.14792 0.0
H1205 H 0.04245 0.48014 0.17705 0.0
H1206 H 1.01688 0.46553 0.17789 0.0
H1207 H 0.02212 0.50947 0.17274 0.0
H1208 H 0.99377 0.538 0.09654 0.0
H1209 H 0.96113 0.51034 0.10259 0.0
H1210 H 0.98846 0.4468 0.15121 0.0
C1211 C 0.06163 0.50914 0.13747 0.0
C1212 C 0.07051 0.53577 0.12566 0.0
C1213 C 0.05869 0.55343 0.11049 0.0
C1214 C 0.0384 0.54528 0.10722 0.0
C1215 C 0.02993 0.51942 0.11936 0.0
C1216 C 0.04116 0.50146 0.13412 0.0
C1217 C 0.02807 0.47579 0.14565 0.0
C1218 C 0.03543 0.4396 0.14128 0.0
C1219 C 0.02734 0.48319 0.16976 0.0
C1220 C 1.00779 0.48225 0.13515 0.0
C1221 C 1.00923 0.5075 0.12001 0.0
C1222 C 0.9925 0.51816 0.10836 0.0
C1223 C 0.97389 0.50245 0.11208 0.0
C1224 C 0.97191 0.47623 0.12742 0.0
C1225 C 0.98927 0.46633 0.13914 0.0
H1226 H 0.98158 0.55286 0.65335 0.0
H1227 H 0.95439 0.49024 0.60413 0.0
H1228 H 0.98686 0.46181 0.59857 0.0
H1229 H 0.02869 0.56509 0.62591 0.0
H1230 H 0.04354 0.56402 0.65 0.0
H1231 H 1.01795 0.57868 0.6509 0.0
H1232 H 1.00978 0.53425 0.67997 0.0
H1233 H 0.03536 0.51956 0.67925 0.0
H1234 H 1.01506 0.49025 0.67494 0.0
H1235 H 0.02252 0.43964 0.59832 0.0
H1236 H 0.05834 0.42553 0.60357 0.0
H1237 H 0.06338 0.50478 0.65108 0.0
C1238 C 0.98233 0.53342 0.64122 0.0
C1239 C 0.96501 0.524 0.62926 0.0
C1240 C 0.96703 0.49778 0.6139 0.0
C1241 C 0.98557 0.4816 0.61044 0.0
C1242 C 1.00224 0.49189 0.62229 0.0
C1243 C 1.00081 0.51724 0.63736 0.0
C1244 C 0.02111 0.52376 0.64779 0.0
C1245 C 0.02824 0.56004 0.64338 0.0
C1246 C 0.02027 0.51652 0.67192 0.0
C1247 C 0.0342 0.49805 0.63628 0.0
C1248 C 0.02294 0.47985 0.62168 0.0
C1249 C 0.03145 0.45392 0.60959 0.0
C1250 C 0.05184 0.44611 0.61265 0.0
C1251 C 0.06374 0.46427 0.62751 0.0
C1252 C 0.05478 0.49087 0.63932 0.0
H1253 H 0.0554 0.55593 0.85695 0.0
H1254 H 0.07917 0.50243 0.9121 0.0
H1255 H 0.04624 0.47564 0.91757 0.0
H1256 H 1.00625 0.57267 0.8795 0.0
H1257 H 0.99315 0.56676 0.85456 0.0
H1258 H 1.0187 0.5816 0.85458 0.0
H1259 H 0.02902 0.53212 0.82984 0.0
H1260 H 1.00349 0.51725 0.82963 0.0
H1261 H 0.02348 0.48931 0.83774 0.0
H1262 H 1.01079 0.45387 0.91705 0.0
H1263 H 0.97558 0.43772 0.90994 0.0
H1264 H 0.9737 0.50664 0.85617 0.0
C1265 C 0.05373 0.53881 0.87031 0.0
C1266 C 0.07022 0.53136 0.88401 0.0
C1267 C 0.06715 0.50827 0.90106 0.0
C1268 C 0.04835 0.4931 0.90445 0.0
C1269 C 0.03251 0.50122 0.89078 0.0
C1270 C 0.03498 0.5235 0.87402 0.0
C1271 C 1.01546 0.52762 0.86158 0.0
C1272 C 1.00795 0.56435 0.86263 0.0
C1273 C 1.01802 0.51587 0.83832 0.0
C1274 C 1.00165 0.50405 0.87392 0.0
C1275 C 1.01186 0.48915 0.89073 0.0
C1276 C 1.00263 0.46561 0.90405 0.0
C1277 C 0.98261 0.45665 0.89994 0.0
C1278 C 0.97182 0.47127 0.88274 0.0
C1279 C 0.98145 0.4956 0.8697 0.0
H1280 H 0.22261 0.26421 0.38435 0.0
H1281 H 0.24716 0.3478 0.34809 0.0
H1282 H 0.27861 0.31566 0.34273 0.0
H1283 H 0.26933 0.2433 0.41156 0.0
H1284 H 0.2649 0.19836 0.41131 0.0
H1285 H 0.24401 0.2273 0.4117 0.0
H1286 H 0.22965 0.19929 0.37758 0.0
H1287 H 0.25052 0.1703 0.37705 0.0
H1288 H 0.24512 0.19619 0.35405 0.0
H1289 H 0.30696 0.27347 0.3399 0.0
H1290 H 0.33146 0.2267 0.34275 0.0
H1291 H 0.29031 0.17149 0.38336 0.0
C1292 C 0.23462 0.27564 0.37525 0.0
C1293 C 0.23235 0.30856 0.36652 0.0
C1294 C 0.24853 0.32276 0.35495 0.0
C1295 C 0.26644 0.3046 0.35176 0.0
C1296 C 0.26822 0.27229 0.36053 0.0
C1297 C 0.25287 0.25806 0.37231 0.0
C1298 C 0.25909 0.22341 0.38071 0.0
C1299 C 0.25934 0.22309 0.40528 0.0
C1300 C 0.24527 0.19566 0.37181 0.0
C1301 C 0.28022 0.22027 0.37167 0.0
C1302 C 0.28504 0.24864 0.35984 0.0
C1303 C 0.30338 0.2513 0.34927 0.0
C1304 C 0.3172 0.22452 0.3509 0.0
C1305 C 0.31289 0.19545 0.36329 0.0
C1306 C 0.29411 0.19347 0.37389 0.0
H1307 H 0.74574 0.81477 0.38881 0.0
H1308 H 0.71061 0.77596 0.33582 0.0
H1309 H 0.73514 0.72989 0.33086 0.0
H1310 H 0.79438 0.79717 0.36502 0.0
H1311 H 0.8061 0.78556 0.38995 0.0
H1312 H 0.78559 0.81526 0.38974 0.0
H1313 H 0.76622 0.77768 0.41654 0.0
H1314 H 0.78664 0.74779 0.41675 0.0
H1315 H 0.76165 0.73393 0.41011 0.0
H1316 H 0.76275 0.68658 0.33233 0.0
H1317 H 0.79266 0.65152 0.33819 0.0
H1318 H 0.81198 0.71985 0.3886 0.0
C1319 C 0.74322 0.79652 0.3762 0.0
C1320 C 0.72616 0.79919 0.36265 0.0
C1321 C 0.72358 0.77485 0.34624 0.0
C1322 C 0.73741 0.74839 0.34338 0.0
C1323 C 0.75401 0.74649 0.35692 0.0
C1324 C 0.75713 0.77007 0.37287 0.0
C1325 C 0.77662 0.76257 0.38475 0.0
C1326 C 0.79156 0.79189 0.38221 0.0
C1327 C 0.77253 0.75505 0.40844 0.0
C1328 C 0.78384 0.73104 0.37305 0.0
C1329 C 0.77044 0.72214 0.35719 0.0
C1330 C 0.7735 0.69364 0.34451 0.0
C1331 C 0.79078 0.67394 0.34788 0.0
C1332 C 0.80524 0.68278 0.36364 0.0
C1333 C 0.80143 0.71185 0.37647 0.0
H1334 H 0.24865 0.68231 0.12265 0.0
H1335 H 0.21853 0.71408 0.18069 0.0
H1336 H 0.24442 0.75776 0.18641 0.0
H1337 H 0.29945 0.69344 0.14331 0.0
H1338 H 0.30948 0.70831 0.11828 0.0
H1339 H 0.28842 0.67978 0.11844 0.0
H1340 H 0.26792 0.72234 0.09581 0.0
H1341 H 0.28888 0.75107 0.09568 0.0
H1342 H 0.26477 0.76508 0.10526 0.0
H1343 H 0.27268 0.80022 0.185 0.0
H1344 H 0.30248 0.83492 0.17855 0.0
H1345 H 0.31681 0.7733 0.12303 0.0
C1346 C 0.24752 0.69847 0.13657 0.0
C1347 C 0.23141 0.69452 0.15126 0.0
C1348 C 0.2307 0.71616 0.16932 0.0
C1349 C 0.24533 0.74127 0.17264 0.0
C1350 C 0.26091 0.74452 0.15792 0.0
C1351 C 0.26229 0.72346 0.14036 0.0
C1352 C 0.28099 0.73185 0.12738 0.0
C1353 C 0.29544 0.70154 0.12682 0.0
C1354 C 0.27529 0.74326 0.10468 0.0
C1355 C 0.28979 0.76104 0.14028 0.0
C1356 C 0.27781 0.76805 0.1577 0.0
C1357 C 0.28236 0.79448 0.17161 0.0
C1358 C 0.29964 0.81399 0.16786 0.0
C1359 C 0.31276 0.807 0.15048 0.0
C1360 C 0.30743 0.77997 0.13647 0.0
H1361 H 0.74762 0.18498 0.12109 0.0
H1362 H 0.71707 0.21557 0.17913 0.0
H1363 H 0.7427 0.2595 0.18522 0.0
H1364 H 0.79821 0.19662 0.14186 0.0
H1365 H 0.80823 0.21211 0.11698 0.0
H1366 H 0.78732 0.18327 0.11686 0.0
H1367 H 0.76663 0.22596 0.09451 0.0
H1368 H 0.78746 0.25498 0.09464 0.0
H1369 H 0.76326 0.26847 0.10427 0.0
H1370 H 0.77091 0.30205 0.1844 0.0
H1371 H 0.80067 0.33713 0.17837 0.0
H1372 H 0.81523 0.27717 0.12223 0.0
C1373 C 0.74632 0.20096 0.13507 0.0
C1374 C 0.73019 0.19652 0.14967 0.0
C1375 C 0.72927 0.21795 0.16783 0.0
C1376 C 0.74375 0.24323 0.17136 0.0
C1377 C 0.75938 0.24691 0.15674 0.0
C1378 C 0.76091 0.22616 0.13905 0.0
C1379 C 0.7796 0.23506 0.12618 0.0
C1380 C 0.79421 0.20497 0.12543 0.0
C1381 C 0.77389 0.24681 0.10356 0.0
C1382 C 0.78822 0.26414 0.13932 0.0
C1383 C 0.77617 0.27064 0.15676 0.0
C1384 C 0.78062 0.29675 0.17096 0.0
C1385 C 0.79786 0.31648 0.16745 0.0
C1386 C 0.81099 0.31007 0.15001 0.0
C1387 C 0.80579 0.28336 0.13571 0.0
H1388 H 0.72248 0.78169 0.6602 0.0
H1389 H 0.74331 0.85761 0.61551 0.0
H1390 H 0.7755 0.82722 0.6119 0.0
H1391 H 0.77128 0.76467 0.68602 0.0
H1392 H 0.76718 0.71976 0.68806 0.0
H1393 H 0.74613 0.74842 0.6885 0.0
H1394 H 0.73009 0.71644 0.65673 0.0
H1395 H 0.75108 0.68772 0.65618 0.0
H1396 H 0.74424 0.71087 0.63245 0.0
H1397 H 0.80513 0.78874 0.6123 0.0
H1398 H 0.83005 0.74327 0.61522 0.0
H1399 H 0.79073 0.68869 0.65839 0.0
C1400 C 0.73398 0.79208 0.64993 0.0
C1401 C 0.7304 0.82237 0.63826 0.0
C1402 C 0.74569 0.83468 0.62464 0.0
C1403 C 0.76406 0.81756 0.62252 0.0
C1404 C 0.76708 0.78772 0.63397 0.0
C1405 C 0.7525 0.77486 0.64735 0.0
C1406 C 0.75948 0.74122 0.65687 0.0
C1407 C 0.76111 0.74367 0.68132 0.0
C1408 C 0.74538 0.71236 0.65015 0.0
C1409 C 0.78016 0.73724 0.64666 0.0
C1410 C 0.78417 0.76463 0.63366 0.0
C1411 C 0.80207 0.76707 0.62233 0.0
C1412 C 0.81615 0.74078 0.624 0.0
C1413 C 0.81246 0.71172 0.63674 0.0
C1414 C 0.79419 0.71037 0.64851 0.0
H1415 H 0.24481 0.32506 0.62502 0.0
H1416 H 0.21383 0.29992 0.68382 0.0
H1417 H 0.23848 0.25464 0.69082 0.0
H1418 H 0.25786 0.24012 0.60986 0.0
H1419 H 0.2823 0.25105 0.5997 0.0
H1420 H 0.26235 0.28182 0.59928 0.0
H1421 H 0.28452 0.32367 0.6206 0.0
H1422 H 0.30456 0.29307 0.621 0.0
H1423 H 0.29532 0.31054 0.6457 0.0
H1424 H 0.26583 0.20962 0.69065 0.0
H1425 H 0.2943 0.17127 0.6844 0.0
H1426 H 0.30933 0.22779 0.62701 0.0
C1427 C 0.24321 0.31007 0.63939 0.0
C1428 C 0.22726 0.31643 0.6539 0.0
C1429 C 0.22595 0.29614 0.67256 0.0
C1430 C 0.23986 0.27009 0.67663 0.0
C1431 C 0.25532 0.26447 0.66204 0.0
C1432 C 0.25721 0.28412 0.64388 0.0
C1433 C 0.27542 0.27306 0.63096 0.0
C1434 C 0.2691 0.26078 0.60863 0.0
C1435 C 0.29087 0.30179 0.62949 0.0
C1436 C 0.28331 0.24394 0.64454 0.0
C1437 C 0.27143 0.23931 0.66233 0.0
C1438 C 0.27538 0.21338 0.67688 0.0
C1439 C 0.29185 0.19174 0.67324 0.0
C1440 C 0.30459 0.19599 0.65523 0.0
C1441 C 0.30005 0.22289 0.64082 0.0
H1442 H 0.74676 0.18746 0.84803 0.0
H1443 H 0.70887 0.23695 0.895 0.0
H1444 H 0.73332 0.28306 0.89813 0.0
H1445 H 0.79388 0.20874 0.87252 0.0
H1446 H 0.80698 0.21654 0.84784 0.0
H1447 H 0.78624 0.18739 0.84838 0.0
H1448 H 0.76856 0.22136 0.81845 0.0
H1449 H 0.78927 0.25063 0.81781 0.0
H1450 H 0.76411 0.26596 0.82205 0.0
H1451 H 0.76219 0.32272 0.89802 0.0
H1452 H 0.79381 0.35436 0.89398 0.0
H1453 H 0.81389 0.28236 0.8463 0.0
C1454 C 0.74352 0.20817 0.8588 0.0
C1455 C 0.72582 0.20797 0.87152 0.0
C1456 C 0.72237 0.23574 0.88543 0.0
C1457 C 0.73616 0.26237 0.88722 0.0
C1458 C 0.75351 0.2615 0.87488 0.0
C1459 C 0.75729 0.23532 0.86083 0.0
C1460 C 0.77748 0.24075 0.84983 0.0
C1461 C 0.792 0.21162 0.85495 0.0
C1462 C 0.77469 0.24492 0.82559 0.0
C1463 C 0.78445 0.27377 0.86011 0.0
C1464 C 0.77026 0.28514 0.8745 0.0
C1465 C 0.77333 0.31421 0.88666 0.0
C1466 C 0.7914 0.33203 0.88429 0.0
C1467 C 0.80635 0.32113 0.86977 0.0
C1468 C 0.80266 0.29169 0.85731 0.0
H1469 H 0.24716 0.68801 0.85444 0.0
H1470 H 0.20573 0.74381 0.89471 0.0
H1471 H 0.22952 0.79107 0.89651 0.0
H1472 H 0.29226 0.71482 0.88072 0.0
H1473 H 0.30695 0.71896 0.85671 0.0
H1474 H 0.28643 0.6894 0.85761 0.0
H1475 H 0.27059 0.71772 0.82435 0.0
H1476 H 0.29109 0.74738 0.82334 0.0
H1477 H 0.26561 0.76253 0.82464 0.0
H1478 H 0.2582 0.83142 0.89611 0.0
H1479 H 0.28997 0.86307 0.89248 0.0
H1480 H 0.31354 0.78429 0.85144 0.0
C1481 C 0.24301 0.71032 0.86342 0.0
C1482 C 0.22449 0.71161 0.87472 0.0
C1483 C 0.21986 0.74148 0.88631 0.0
C1484 C 0.23327 0.76876 0.88732 0.0
C1485 C 0.25145 0.76645 0.87648 0.0
C1486 C 0.25637 0.73817 0.8646 0.0
C1487 C 0.27723 0.74242 0.85487 0.0
C1488 C 0.29156 0.71475 0.86296 0.0
C1489 C 0.27605 0.74252 0.83034 0.0
C1490 C 0.28325 0.77717 0.8634 0.0
C1491 C 0.26803 0.79045 0.87581 0.0
C1492 C 0.27012 0.82146 0.88622 0.0
C1493 C 0.28822 0.83932 0.88406 0.0
C1494 C 0.30411 0.82653 0.87145 0.0
C1495 C 0.3015 0.79504 0.86084 0.0
H1496 H 0.39791 0.07981 0.27399 0.0
H1497 H 0.40844 0.00535 0.3237 0.0
H1498 H 0.41227 0.96119 0.29631 0.0
H1499 H 0.3723 0.03241 0.23799 0.0
H1500 H 0.38449 0.04634 0.21387 0.0
H1501 H 0.3839 0.07355 0.23692 0.0
H1502 H 0.42262 0.07801 0.23669 0.0
H1503 H 0.42334 0.05148 0.21326 0.0
H1504 H 0.43754 0.03997 0.23669 0.0
H1505 H 0.40372 0.92437 0.26473 0.0
H1506 H 0.39709 0.89808 0.22997 0.0
H1507 H 0.40518 0.995 0.19883 0.0
C1508 C 0.40226 0.05478 0.27916 0.0
C1509 C 0.40281 0.04624 0.30121 0.0
C1510 C 0.4078 0.01257 0.307 0.0
C1511 C 0.40991 0.9872 0.29154 0.0
C1512 C 0.40821 0.996 0.2701 0.0
C1513 C 0.40573 0.02922 0.26376 0.0
C1514 C 0.40517 0.03138 0.23942 0.0
C1515 C 0.38528 0.04684 0.2316 0.0
C1516 C 0.42325 0.0514 0.23101 0.0
C1517 C 0.40667 0.99412 0.23332 0.0
C1518 C 0.40767 0.97423 0.25138 0.0
C1519 C 0.40469 0.9394 0.25032 0.0
C1520 C 0.40137 0.92442 0.23028 0.0
C1521 C 0.4026 0.94349 0.21112 0.0
C1522 C 0.40525 0.97911 0.21292 0.0
H1523 H 0.64831 0.07239 0.23162 0.0
H1524 H 0.63905 0.99566 0.18299 0.0
H1525 H 0.63633 0.95238 0.21116 0.0
H1526 H 0.67376 0.02749 0.26945 0.0
H1527 H 0.66064 0.04262 0.29272 0.0
H1528 H 0.66181 0.06841 0.26906 0.0
H1529 H 0.62306 0.07207 0.26774 0.0
H1530 H 0.62175 0.04691 0.29173 0.0
H1531 H 0.60845 0.03375 0.26805 0.0
H1532 H 0.64412 0.91714 0.24424 0.0
H1533 H 0.64949 0.8932 0.27997 0.0
H1534 H 0.6396 0.99198 0.30811 0.0
C1535 C 0.64437 0.04709 0.22672 0.0
C1536 C 0.64375 0.03786 0.20475 0.0
C1537 C 0.63978 0.00356 0.19956 0.0
C1538 C 0.63823 0.97868 0.21547 0.0
C1539 C 0.63944 0.98849 0.2368 0.0
C1540 C 0.64126 0.02208 0.24251 0.0
C1541 C 0.64097 0.02568 0.26676 0.0
C1542 C 0.66045 0.04202 0.27496 0.0
C1543 C 0.62245 0.0458 0.274 0.0
C1544 C 0.63957 0.98881 0.27366 0.0
C1545 C 0.6395 0.9678 0.25607 0.0
C1546 C 0.64254 0.93308 0.2582 0.0
C1547 C 0.6451 0.91944 0.27878 0.0
C1548 C 0.6431 0.93977 0.29736 0.0
C1549 C 0.64022 0.97516 0.29447 0.0
H1550 H 0.63902 0.01507 0.80825 0.0
H1551 H 0.64933 0.11181 0.77769 0.0
H1552 H 0.6419 0.08653 0.74281 0.0
H1553 H 0.67101 0.97657 0.76896 0.0
H1554 H 0.65866 0.93607 0.76985 0.0
H1555 H 0.65855 0.96303 0.79303 0.0
H1556 H 0.61974 0.96029 0.79379 0.0
H1557 H 0.61975 0.93379 0.77034 0.0
H1558 H 0.60565 0.9727 0.77045 0.0
H1559 H 0.63193 0.05033 0.71093 0.0
H1560 H 0.63361 0.006 0.68338 0.0
H1561 H 0.64372 0.93074 0.73275 0.0
C1562 C 0.63929 0.0312 0.79428 0.0
C1563 C 0.64273 0.06662 0.79635 0.0
C1564 C 0.6443 0.08587 0.77729 0.0
C1565 C 0.64061 0.07137 0.75714 0.0
C1566 C 0.63691 0.03673 0.75583 0.0
C1567 C 0.63748 0.01656 0.77379 0.0
C1568 C 0.63817 0.9793 0.76748 0.0
C1569 C 0.65776 0.96277 0.77529 0.0
C1570 C 0.61973 0.96041 0.77603 0.0
C1571 C 0.63757 0.98178 0.74316 0.0
C1572 C 0.6358 0.01518 0.73698 0.0
C1573 C 0.63381 0.02416 0.71559 0.0
C1574 C 0.63471 0.99867 0.70003 0.0
C1575 C 0.63884 0.96453 0.70557 0.0
C1576 C 0.6399 0.95601 0.72764 0.0
H1577 H 0.3635 0.97869 0.79523 0.0
H1578 H 0.42639 0.95954 0.80782 0.0
H1579 H 0.43549 0.99403 0.77607 0.0
H1580 H 0.36494 0.98121 0.73842 0.0
H1581 H 0.3474 0.01573 0.73626 0.0
H1582 H 0.34627 0.98762 0.75884 0.0
H1583 H 0.34952 0.03886 0.78443 0.0
H1584 H 0.35086 0.06712 0.76189 0.0
H1585 H 0.37053 0.06718 0.7817 0.0
H1586 H 0.43699 0.02916 0.74085 0.0
H1587 H 0.43064 0.06108 0.70726 0.0
H1588 H 0.36752 0.06644 0.72292 0.0
C1589 C 0.37923 0.98229 0.79162 0.0
C1590 C 0.39427 0.96707 0.80441 0.0
C1591 C 0.41461 0.97117 0.7984 0.0
C1592 C 0.4199 0.99091 0.78045 0.0
C1593 C 0.40469 0.00696 0.76882 0.0
C1594 C 0.38476 0.00304 0.77439 0.0
C1595 C 0.3712 0.02372 0.75994 0.0
C1596 C 0.3566 1.00069 0.74764 0.0
C1597 C 0.35986 0.05083 0.77276 0.0
C1598 C 0.38649 0.03959 0.74509 0.0
C1599 C 0.40574 0.02923 0.75013 0.0
C1600 C 0.422 0.03787 0.73709 0.0
C1601 C 0.41833 0.0563 0.71812 0.0
C1602 C 0.39864 0.06642 0.71253 0.0
C1603 C 0.38278 0.05939 0.72689 0.0
H1604 H 0.90221 0.49585 0.20148 0.0
H1605 H 0.89666 0.39707 0.23088 0.0
H1606 H 0.90309 0.42219 0.26604 0.0
H1607 H 0.93361 0.54148 0.23971 0.0
H1608 H 0.91765 0.57829 0.24034 0.0
H1609 H 0.91888 0.55262 0.21656 0.0
H1610 H 0.88034 0.54447 0.21736 0.0
H1611 H 0.87899 0.57059 0.24087 0.0
H1612 H 0.86867 0.52848 0.24127 0.0
H1613 H 0.91141 0.45864 0.29833 0.0
H1614 H 0.90772 0.50184 0.32641 0.0
H1615 H 0.89364 0.57672 0.27791 0.0
C1616 C 0.90278 0.4793 0.21525 0.0
C1617 C 0.90086 0.44365 0.21278 0.0
C1618 C 0.90036 0.42363 0.2316 0.0
C1619 C 0.90355 0.43792 0.2519 0.0
C1620 C 0.90563 0.47288 0.2536 0.0
C1621 C 0.90402 0.49347 0.2359 0.0
C1622 C 0.90153 0.53029 0.24266 0.0
C1623 C 0.91896 0.55195 0.23431 0.0
C1624 C 0.88117 0.54428 0.2351 0.0
C1625 C 0.90233 0.52712 0.26692 0.0
C1626 C 0.90577 0.49391 0.27271 0.0
C1627 C 0.90825 0.48459 0.29399 0.0
C1628 C 0.90618 0.50943 0.30984 0.0
C1629 C 0.9004 0.54302 0.30468 0.0
C1630 C 0.89878 0.55197 0.28273 0.0
H1631 H 0.14384 0.48917 0.30975 0.0
H1632 H 0.14984 0.39 0.28085 0.0
H1633 H 0.14425 0.41516 0.24532 0.0
H1634 H 0.11225 0.53306 0.27164 0.0
H1635 H 0.12746 0.57069 0.2711 0.0
H1636 H 0.12673 0.54487 0.29482 0.0
H1637 H 0.16541 0.53866 0.29405 0.0
H1638 H 0.16626 0.565 0.27061 0.0
H1639 H 0.17741 0.52346 0.27011 0.0
H1640 H 0.13616 0.45188 0.21273 0.0
H1641 H 0.13825 0.49582 0.18489 0.0
H1642 H 0.15103 0.57077 0.23372 0.0
C1643 C 0.14383 0.47256 0.29601 0.0
C1644 C 0.14597 0.43696 0.29855 0.0
C1645 C 0.14662 0.41677 0.27982 0.0
C1646 C 0.14376 0.43099 0.25942 0.0
C1647 C 0.14162 0.46598 0.25762 0.0
C1648 C 0.14276 0.48662 0.27535 0.0
C1649 C 0.14453 0.52356 0.26869 0.0
C1650 C 0.12668 0.54426 0.27707 0.0
C1651 C 0.1646 0.53855 0.27631 0.0
C1652 C 0.14382 0.52046 0.24444 0.0
C1653 C 0.14115 0.48712 0.23853 0.0
C1654 C 0.13874 0.47796 0.2172 0.0
C1655 C 0.1399 0.50321 0.20147 0.0
C1656 C 0.14466 0.5372 0.20678 0.0
C1657 C 0.14649 0.54577 0.22877 0.0
H1658 H 0.17609 0.54881 0.79521 0.0
H1659 H 0.11307 0.55556 0.81136 0.0
H1660 H 0.10456 0.52208 0.77899 0.0
H1661 H 0.17119 0.55174 0.73788 0.0
H1662 H 0.19078 0.52115 0.7333 0.0
H1663 H 0.19148 0.54745 0.75678 0.0
H1664 H 0.19344 0.49399 0.78064 0.0
H1665 H 0.19262 0.46753 0.75722 0.0
H1666 H 0.1744 0.46188 0.77816 0.0
H1667 H 0.10329 0.48717 0.74411 0.0
H1668 H 0.10943 0.45535 0.71049 0.0
H1669 H 0.17347 0.46578 0.72009 0.0
C1670 C 0.1605 0.54299 0.79203 0.0
C1671 C 0.14524 0.55425 0.80605 0.0
C1672 C 0.125 0.54699 0.80092 0.0
C1673 C 0.12006 0.52786 0.78263 0.0
C1674 C 0.13555 0.51593 0.76961 0.0
C1675 C 0.15539 0.52321 0.77417 0.0
C1676 C 0.16933 0.50659 0.75814 0.0
C1677 C 0.18141 0.53333 0.7458 0.0
C1678 C 0.18327 0.48098 0.7692 0.0
C1679 C 0.15432 0.48897 0.7437 0.0
C1680 C 0.13487 0.49487 0.75039 0.0
C1681 C 0.11848 0.48234 0.73887 0.0
C1682 C 0.12208 0.46414 0.71985 0.0
C1683 C 0.14188 0.45839 0.71255 0.0
C1684 C 0.15814 0.47007 0.72513 0.0
H1685 H 0.89057 0.58242 0.73136 0.0
H1686 H 0.89727 0.50626 0.68191 0.0
H1687 H 0.89989 0.46225 0.7096 0.0
H1688 H 0.93017 0.54063 0.76691 0.0
H1689 H 0.91745 0.55385 0.7909 0.0
H1690 H 0.91624 0.57972 0.76721 0.0
H1691 H 0.87747 0.57808 0.76899 0.0
H1692 H 0.87853 0.5516 0.79236 0.0
H1693 H 0.86481 0.53781 0.76911 0.0
H1694 H 0.89232 0.42658 0.74235 0.0
H1695 H 0.88731 0.40183 0.7779 0.0
H1696 H 0.89889 0.49939 0.80696 0.0
C1697 C 0.89388 0.55701 0.72617 0.0
C1698 C 0.89379 0.54822 0.70412 0.0
C1699 C 0.89706 0.51384 0.69855 0.0
C1700 C 0.89854 0.48853 0.71419 0.0
C1701 C 0.89793 0.4979 0.73562 0.0
C1702 C 0.89681 0.53143 0.74168 0.0
C1703 C 0.89751 0.53434 0.76597 0.0
C1704 C 0.91648 0.55326 0.77317 0.0
C1705 C 0.87845 0.55148 0.7746 0.0
C1706 C 0.89836 0.49721 0.77247 0.0
C1707 C 0.89782 0.4767 0.75466 0.0
C1708 C 0.89434 0.44207 0.75645 0.0
C1709 C 0.89199 0.42793 0.77691 0.0
C1710 C 0.8946 0.44763 0.79568 0.0
C1711 C 0.89783 0.483 0.79314 0.0
loop_
_geom_bond_atom_site_label_1
_geom_bond_atom_site_label_2
_geom_bond_distance
_geom_bond_site_symmetry_2
_ccdc_geom_bond_type
C0 C1 1.443 . S
C0 N4 1.376 . S
C0 C38 1.389 . S
C1 C0 1.443 . S
C1 C2 1.340 . S
C1 H41 0.951 . S
C2 C1 1.340 . S
C2 C3 1.439 . S
C2 H42 0.950 1_545 S
C3 C2 1.439 . S
C3 N4 1.374 . S
C3 C37 1.395 . S
N4 C0 1.376 . S
N4 C3 1.374 . S
N4 Co5 2.008 . S
Co5 N4 2.008 . S
Co5 N6 1.995 . S
Co5 N11 2.008 . S
Co5 N16 1.995 . S
Co5 N21 2.282 . S
Co5 N27 2.282 . S
N6 Co5 1.995 . S
N6 C7 1.376 . S
N6 C10 1.383 . S
C7 N6 1.376 . S
C7 C8 1.446 . S
C7 C37 1.391 . S
C8 C7 1.446 . S
C8 C9 1.339 . S
C8 H43 0.949 . S
C9 C8 1.339 . S
C9 C10 1.439 . S
C9 H44 0.950 . S
C10 N6 1.383 . S
C10 C9 1.439 . S
C10 C39 1.392 . S
N11 Co5 2.008 . S
N11 C12 1.376 . S
N11 C15 1.374 . S
C12 N11 1.376 . S
C12 C13 1.443 . S
C12 C39 1.389 . S
C13 C12 1.443 . S
C13 C14 1.340 . S
C13 H45 0.951 . S
C14 C13 1.340 . S
C14 C15 1.439 . S
C14 H46 0.950 . S
C15 N11 1.374 . S
C15 C14 1.439 . S
C15 C40 1.395 . S
N16 Co5 1.995 . S
N16 C17 1.376 . S
N16 C20 1.383 . S
C17 N16 1.376 . S
C17 C18 1.446 . S
C17 C40 1.391 . S
C18 C17 1.446 . S
C18 C19 1.339 . S
C18 H47 0.949 . S
C19 C18 1.339 . S
C19 C20 1.439 . S
C19 H48 0.950 . S
C20 N16 1.383 . S
C20 C19 1.439 . S
C20 C38 1.392 . S
N21 Co5 2.282 . S
N21 C24 1.332 . S
N21 C26 1.332 . S
C22 C23 1.386 . S
C22 C25 1.388 . S
C23 C22 1.386 . S
C23 C24 1.382 . S
C23 H49 0.950 . S
C24 N21 1.332 . S
C24 C23 1.382 . S
C24 H35 0.952 . S
C25 C22 1.388 . S
C25 C26 1.382 . S
C25 H50 0.950 . S
C26 N21 1.332 . S
C26 C25 1.382 . S
C26 H36 0.948 . S
N27 Co5 2.282 . S
N27 C31 1.332 . S
N27 C32 1.332 . S
C28 C29 1.388 . S
C28 C32 1.382 . S
C28 H51 0.950 . S
C29 C28 1.388 . S
C29 C30 1.386 . S
C30 C29 1.386 . S
C30 C31 1.382 . S
C30 H52 0.950 . S
C31 N27 1.332 . S
C31 C30 1.382 . S
C31 H33 0.952 . S
C32 N27 1.332 . S
C32 C28 1.382 . S
C32 H34 0.948 . S
H33 C31 0.952 . S
H34 C32 0.948 . S
H35 C24 0.952 . S
H36 C26 0.948 . S
C37 C3 1.395 . S
C37 C7 1.391 . S
C38 C0 1.389 . S
C38 C20 1.392 . S
C39 C10 1.392 . S
C39 C12 1.389 . S
C40 C15 1.395 . S
C40 C17 1.391 . S
H41 C1 0.951 . S
H42 C2 0.950 1_565 S
H43 C8 0.949 . S
H44 C9 0.950 . S
H45 C13 0.951 . S
H46 C14 0.950 . S
H47 C18 0.949 . S
H48 C19 0.950 . S
H49 C23 0.950 . S
H50 C25 0.950 . S
H51 C28 0.950 . S
H52 C30 0.950 . S
C53 C54 1.443 . S
C53 N57 1.376 . S
C53 C91 1.389 . S
C54 C53 1.443 . S
C54 C55 1.340 . S
C54 H94 0.951 . S
C55 C54 1.340 . S
C55 C56 1.439 . S
C55 H95 0.950 1_565 S
C56 C55 1.439 . S
C56 N57 1.374 . S
C56 C90 1.395 . S
N57 C53 1.376 . S
N57 C56 1.374 . S
N57 Co58 2.008 . S
Co58 N57 2.008 . S
Co58 N59 1.995 . S
Co58 N64 2.008 . S
Co58 N69 1.995 . S
Co58 N74 2.282 . S
Co58 N80 2.282 . S
N59 Co58 1.995 . S
N59 C60 1.376 . S
N59 C63 1.383 . S
C60 N59 1.376 . S
C60 C61 1.446 . S
C60 C90 1.391 . S
C61 C60 1.446 . S
C61 C62 1.339 . S
C61 H96 0.949 . S
C62 C61 1.339 . S
C62 C63 1.439 . S
C62 H97 0.950 . S
C63 N59 1.383 . S
C63 C62 1.439 . S
C63 C92 1.392 . S
N64 Co58 2.008 . S
N64 C65 1.376 . S
N64 C68 1.374 . S
C65 N64 1.376 . S
C65 C66 1.443 . S
C65 C92 1.389 . S
C66 C65 1.443 . S
C66 C67 1.340 . S
C66 H98 0.951 . S
C67 C66 1.340 . S
C67 C68 1.439 . S
C67 H99 0.950 . S
C68 N64 1.374 . S
C68 C67 1.439 . S
C68 C93 1.395 . S
N69 Co58 1.995 . S
N69 C70 1.376 . S
N69 C73 1.383 . S
C70 N69 1.376 . S
C70 C71 1.446 . S
C70 C93 1.391 . S
C71 C70 1.446 . S
C71 C72 1.339 . S
C71 H100 0.949 . S
C72 C71 1.339 . S
C72 C73 1.439 . S
C72 H101 0.950 . S
C73 N69 1.383 . S
C73 C72 1.439 . S
C73 C91 1.392 . S
N74 Co58 2.282 . S
N74 C77 1.332 . S
N74 C79 1.332 . S
C75 C76 1.386 . S
C75 C78 1.388 . S
C76 C75 1.386 . S
C76 C77 1.382 . S
C76 H102 0.950 . S
C77 N74 1.332 . S
C77 C76 1.382 . S
C77 H88 0.952 . S
C78 C75 1.388 . S
C78 C79 1.382 . S
C78 H103 0.950 . S
C79 N74 1.332 . S
C79 C78 1.382 . S
C79 H89 0.948 . S
N80 Co58 2.282 . S
N80 C84 1.332 . S
N80 C85 1.332 . S
C81 C82 1.388 . S
C81 C85 1.382 . S
C81 H104 0.950 . S
C82 C81 1.388 . S
C82 C83 1.386 . S
C83 C82 1.386 . S
C83 C84 1.382 . S
C83 H105 0.950 . S
C84 N80 1.332 . S
C84 C83 1.382 . S
C84 H86 0.952 . S
C85 N80 1.332 . S
C85 C81 1.382 . S
C85 H87 0.948 . S
H86 C84 0.952 . S
H87 C85 0.948 . S
H88 C77 0.952 . S
H89 C79 0.948 . S
C90 C56 1.395 . S
C90 C60 1.391 . S
C91 C53 1.389 . S
C91 C73 1.392 . S
C92 C63 1.392 . S
C92 C65 1.389 . S
C93 C68 1.395 . S
C93 C70 1.391 . S
H94 C54 0.951 . S
H95 C55 0.950 1_545 S
H96 C61 0.949 . S
H97 C62 0.950 . S
H98 C66 0.951 . S
H99 C67 0.950 . S
H100 C71 0.949 . S
H101 C72 0.950 . S
H102 C76 0.950 . S
H103 C78 0.950 . S
H104 C81 0.950 . S
H105 C83 0.950 . S
C106 C107 1.443 . S
C106 N110 1.376 . S
C106 C144 1.389 . S
C107 C106 1.443 . S
C107 C108 1.340 . S
C107 H147 0.951 . S
C108 C107 1.340 . S
C108 C109 1.439 . S
C108 H148 0.950 1_565 S
C109 C108 1.439 . S
C109 N110 1.374 . S
C109 C143 1.395 . S
N110 C106 1.376 . S
N110 C109 1.374 . S
N110 Co111 2.008 . S
Co111 N110 2.008 . S
Co111 N112 1.995 . S
Co111 N117 2.008 . S
Co111 N122 1.995 . S
Co111 N127 2.282 . S
Co111 N133 2.282 . S
N112 Co111 1.995 . S
N112 C113 1.376 . S
N112 C116 1.383 . S
C113 N112 1.376 . S
C113 C114 1.446 . S
C113 C143 1.391 . S
C114 C113 1.446 . S
C114 C115 1.339 . S
C114 H149 0.949 . S
C115 C114 1.339 . S
C115 C116 1.439 . S
C115 H150 0.950 . S
C116 N112 1.383 . S
C116 C115 1.439 . S
C116 C145 1.392 . S
N117 Co111 2.008 . S
N117 C118 1.376 . S
N117 C121 1.374 . S
C118 N117 1.376 . S
C118 C119 1.443 . S
C118 C145 1.389 . S
C119 C118 1.443 . S
C119 C120 1.340 . S
C119 H151 0.951 . S
C120 C119 1.340 . S
C120 C121 1.439 . S
C120 H152 0.950 . S
C121 N117 1.374 . S
C121 C120 1.439 . S
C121 C146 1.395 . S
N122 Co111 1.995 . S
N122 C123 1.376 . S
N122 C126 1.383 . S
C123 N122 1.376 . S
C123 C124 1.446 . S
C123 C146 1.391 . S
C124 C123 1.446 . S
C124 C125 1.339 . S
C124 H153 0.949 . S
C125 C124 1.339 . S
C125 C126 1.439 . S
C125 H154 0.950 . S
C126 N122 1.383 . S
C126 C125 1.439 . S
C126 C144 1.392 . S
N127 Co111 2.282 . S
N127 C130 1.332 . S
N127 C132 1.332 . S
C128 C129 1.386 . S
C128 C131 1.388 . S
C129 C128 1.386 . S
C129 C130 1.382 . S
C129 H155 0.950 . S
C130 N127 1.332 . S
C130 C129 1.382 . S
C130 H141 0.952 . S
C131 C128 1.388 . S
C131 C132 1.382 . S
C131 H156 0.950 . S
C132 N127 1.332 . S
C132 C131 1.382 . S
C132 H142 0.948 . S
N133 Co111 2.282 . S
N133 C137 1.332 . S
N133 C138 1.332 . S
C134 C135 1.388 . S
C134 C138 1.382 . S
C134 H157 0.950 . S
C135 C134 1.388 . S
C135 C136 1.386 . S
C136 C135 1.386 . S
C136 C137 1.382 . S
C136 H158 0.950 . S
C137 N133 1.332 . S
C137 C136 1.382 . S
C137 H139 0.952 . S
C138 N133 1.332 . S
C138 C134 1.382 . S
C138 H140 0.948 . S
H139 C137 0.952 . S
H140 C138 0.948 . S
H141 C130 0.952 . S
H142 C132 0.948 . S
C143 C109 1.395 . S
C143 C113 1.391 . S
C144 C106 1.389 . S
C144 C126 1.392 . S
C145 C116 1.392 . S
C145 C118 1.389 . S
C146 C121 1.395 . S
C146 C123 1.391 . S
H147 C107 0.951 . S
H148 C108 0.950 1_545 S
H149 C114 0.949 . S
H150 C115 0.950 . S
H151 C119 0.951 . S
H152 C120 0.950 . S
H153 C124 0.949 . S
H154 C125 0.950 . S
H155 C129 0.950 . S
H156 C131 0.950 . S
H157 C134 0.950 . S
H158 C136 0.950 . S
C159 C160 1.443 . S
C159 N163 1.376 . S
C159 C197 1.389 . S
C160 C159 1.443 . S
C160 C161 1.340 . S
C160 H200 0.951 . S
C161 C160 1.340 . S
C161 C162 1.439 . S
C161 H201 0.950 1_545 S
C162 C161 1.439 . S
C162 N163 1.374 . S
C162 C196 1.395 . S
N163 C159 1.376 . S
N163 C162 1.374 . S
N163 Co164 2.008 . S
Co164 N163 2.008 . S
Co164 N165 1.995 . S
Co164 N170 2.008 . S
Co164 N175 1.995 . S
Co164 N180 2.282 . S
Co164 N186 2.282 . S
N165 Co164 1.995 . S
N165 C166 1.376 . S
N165 C169 1.383 . S
C166 N165 1.376 . S
C166 C167 1.446 . S
C166 C196 1.391 . S
C167 C166 1.446 . S
C167 C168 1.339 . S
C167 H202 0.949 . S
C168 C167 1.339 . S
C168 C169 1.439 . S
C168 H203 0.950 . S
C169 N165 1.383 . S
C169 C168 1.439 . S
C169 C198 1.392 . S
N170 Co164 2.008 . S
N170 C171 1.376 . S
N170 C174 1.374 . S
C171 N170 1.376 . S
C171 C172 1.443 . S
C171 C198 1.389 . S
C172 C171 1.443 . S
C172 C173 1.340 . S
C172 H204 0.951 . S
C173 C172 1.340 . S
C173 C174 1.439 . S
C173 H205 0.950 . S
C174 N170 1.374 . S
C174 C173 1.439 . S
C174 C199 1.395 . S
N175 Co164 1.995 . S
N175 C176 1.376 . S
N175 C179 1.383 . S
C176 N175 1.376 . S
C176 C177 1.446 . S
C176 C199 1.391 . S
C177 C176 1.446 . S
C177 C178 1.339 . S
C177 H206 0.949 . S
C178 C177 1.339 . S
C178 C179 1.439 . S
C178 H207 0.950 . S
C179 N175 1.383 . S
C179 C178 1.439 . S
C179 C197 1.392 . S
N180 Co164 2.282 . S
N180 C183 1.332 . S
N180 C185 1.332 . S
C181 C182 1.386 . S
C181 C184 1.388 . S
C182 C181 1.386 . S
C182 C183 1.382 . S
C182 H208 0.950 . S
C183 N180 1.332 . S
C183 C182 1.382 . S
C183 H194 0.952 . S
C184 C181 1.388 . S
C184 C185 1.382 . S
C184 H209 0.950 . S
C185 N180 1.332 . S
C185 C184 1.382 . S
C185 H195 0.948 . S
N186 Co164 2.282 . S
N186 C190 1.332 . S
N186 C191 1.332 . S
C187 C188 1.388 . S
C187 C191 1.382 . S
C187 H210 0.950 . S
C188 C187 1.388 . S
C188 C189 1.386 . S
C189 C188 1.386 . S
C189 C190 1.382 . S
C189 H211 0.950 . S
C190 N186 1.332 . S
C190 C189 1.382 . S
C190 H192 0.952 . S
C191 N186 1.332 . S
C191 C187 1.382 . S
C191 H193 0.948 . S
H192 C190 0.952 . S
H193 C191 0.948 . S
H194 C183 0.952 . S
H195 C185 0.948 . S
C196 C162 1.395 . S
C196 C166 1.391 . S
C197 C159 1.389 . S
C197 C179 1.392 . S
C198 C169 1.392 . S
C198 C171 1.389 . S
C199 C174 1.395 . S
C199 C176 1.391 . S
H200 C160 0.951 . S
H201 C161 0.950 1_565 S
H202 C167 0.949 . S
H203 C168 0.950 . S
H204 C172 0.951 . S
H205 C173 0.950 . S
H206 C177 0.949 . S
H207 C178 0.950 . S
H208 C182 0.950 . S
H209 C184 0.950 . S
H210 C187 0.950 . S
H211 C189 0.950 . S
C212 C213 1.443 . S
C212 N216 1.376 . S
C212 C250 1.389 . S
C213 C212 1.443 . S
C213 C214 1.340 . S
C213 H253 0.951 . S
C214 C213 1.340 . S
C214 C215 1.439 . S
C214 H254 0.950 . S
C215 C214 1.439 . S
C215 N216 1.374 . S
C215 C249 1.395 . S
N216 C212 1.376 . S
N216 C215 1.374 . S
N216 Co217 2.008 . S
Co217 N216 2.008 . S
Co217 N218 1.995 . S
Co217 N223 2.008 . S
Co217 N228 1.995 . S
Co217 N233 2.282 . S
Co217 N239 2.282 . S
N218 Co217 1.995 . S
N218 C219 1.376 . S
N218 C222 1.383 . S
C219 N218 1.376 . S
C219 C220 1.446 . S
C219 C249 1.391 . S
C220 C219 1.446 . S
C220 C221 1.339 . S
C220 H255 0.949 . S
C221 C220 1.339 . S
C221 C222 1.439 . S
C221 H256 0.950 . S
C222 N218 1.383 . S
C222 C221 1.439 . S
C222 C251 1.392 . S
N223 Co217 2.008 . S
N223 C224 1.376 . S
N223 C227 1.374 . S
C224 N223 1.376 . S
C224 C225 1.443 . S
C224 C251 1.389 . S
C225 C224 1.443 . S
C225 C226 1.340 . S
C225 H257 0.951 . S
C226 C225 1.340 . S
C226 C227 1.439 . S
C226 H258 0.950 . S
C227 N223 1.374 . S
C227 C226 1.439 . S
C227 C252 1.395 . S
N228 Co217 1.995 . S
N228 C229 1.376 . S
N228 C232 1.383 . S
C229 N228 1.376 . S
C229 C230 1.446 . S
C229 C252 1.391 . S
C230 C229 1.446 . S
C230 C231 1.339 . S
C230 H259 0.949 . S
C231 C230 1.339 . S
C231 C232 1.439 . S
C231 H260 0.950 . S
C232 N228 1.383 . S
C232 C231 1.439 . S
C232 C250 1.392 . S
N233 Co217 2.282 . S
N233 C236 1.332 . S
N233 C238 1.332 . S
C234 C235 1.386 . S
C234 C237 1.388 . S
C235 C234 1.386 . S
C235 C236 1.382 . S
C235 H261 0.950 . S
C236 N233 1.332 . S
C236 C235 1.382 . S
C236 H247 0.952 . S
C237 C234 1.388 . S
C237 C238 1.382 . S
C237 H262 0.950 . S
C238 N233 1.332 . S
C238 C237 1.382 . S
C238 H248 0.948 . S
N239 Co217 2.282 . S
N239 C243 1.332 . S
N239 C244 1.332 . S
C240 C241 1.388 . S
C240 C244 1.382 . S
C240 H263 0.950 . S
C241 C240 1.388 . S
C241 C242 1.386 . S
C242 C241 1.386 . S
C242 C243 1.382 . S
C242 H264 0.950 . S
C243 N239 1.332 . S
C243 C242 1.382 . S
C243 H245 0.952 . S
C244 N239 1.332 . S
C244 C240 1.382 . S
C244 H246 0.948 . S
H245 C243 0.952 . S
H246 C244 0.948 . S
H247 C236 0.952 . S
H248 C238 0.948 . S
C249 C215 1.395 . S
C249 C219 1.391 . S
C250 C212 1.389 . S
C250 C232 1.392 . S
C251 C222 1.392 . S
C251 C224 1.389 . S
C252 C227 1.395 . S
C252 C229 1.391 . S
H253 C213 0.951 . S
H254 C214 0.950 . S
H255 C220 0.949 . S
H256 C221 0.950 . S
H257 C225 0.951 . S
H258 C226 0.950 . S
H259 C230 0.949 . S
H260 C231 0.950 . S
H261 C235 0.950 . S
H262 C237 0.950 . S
H263 C240 0.950 . S
H264 C242 0.950 . S
C265 C266 1.443 . S
C265 N269 1.376 . S
C265 C303 1.389 . S
C266 C265 1.443 . S
C266 C267 1.340 . S
C266 H306 0.951 . S
C267 C266 1.340 . S
C267 C268 1.439 . S
C267 H307 0.950 . S
C268 C267 1.439 . S
C268 N269 1.374 . S
C268 C302 1.395 . S
N269 C265 1.376 . S
N269 C268 1.374 . S
N269 Co270 2.008 . S
Co270 N269 2.008 . S
Co270 N271 1.995 . S
Co270 N276 2.008 . S
Co270 N281 1.995 . S
Co270 N286 2.282 . S
Co270 N292 2.282 . S
N271 Co270 1.995 . S
N271 C272 1.376 . S
N271 C275 1.383 . S
C272 N271 1.376 . S
C272 C273 1.446 . S
C272 C302 1.391 . S
C273 C272 1.446 . S
C273 C274 1.339 . S
C273 H308 0.949 . S
C274 C273 1.339 . S
C274 C275 1.439 . S
C274 H309 0.950 . S
C275 N271 1.383 . S
C275 C274 1.439 . S
C275 C304 1.392 . S
N276 Co270 2.008 . S
N276 C277 1.376 . S
N276 C280 1.374 . S
C277 N276 1.376 . S
C277 C278 1.443 . S
C277 C304 1.389 . S
C278 C277 1.443 . S
C278 C279 1.340 . S
C278 H310 0.951 . S
C279 C278 1.340 . S
C279 C280 1.439 . S
C279 H311 0.950 . S
C280 N276 1.374 . S
C280 C279 1.439 . S
C280 C305 1.395 . S
N281 Co270 1.995 . S
N281 C282 1.376 . S
N281 C285 1.383 . S
C282 N281 1.376 . S
C282 C283 1.446 . S
C282 C305 1.391 . S
C283 C282 1.446 . S
C283 C284 1.339 . S
C283 H312 0.949 . S
C284 C283 1.339 . S
C284 C285 1.439 . S
C284 H313 0.950 . S
C285 N281 1.383 . S
C285 C284 1.439 . S
C285 C303 1.392 . S
N286 Co270 2.282 . S
N286 C289 1.332 . S
N286 C291 1.332 . S
C287 C288 1.386 . S
C287 C290 1.388 . S
C288 C287 1.386 . S
C288 C289 1.382 . S
C288 H314 0.950 . S
C289 N286 1.332 . S
C289 C288 1.382 . S
C289 H300 0.952 . S
C290 C287 1.388 . S
C290 C291 1.382 . S
C290 H315 0.950 . S
C291 N286 1.332 . S
C291 C290 1.382 . S
C291 H301 0.948 . S
N292 Co270 2.282 . S
N292 C296 1.332 . S
N292 C297 1.332 . S
C293 C294 1.388 . S
C293 C297 1.382 . S
C293 H316 0.950 . S
C294 C293 1.388 . S
C294 C295 1.386 . S
C295 C294 1.386 . S
C295 C296 1.382 . S
C295 H317 0.950 . S
C296 N292 1.332 . S
C296 C295 1.382 . S
C296 H298 0.952 . S
C297 N292 1.332 . S
C297 C293 1.382 . S
C297 H299 0.948 . S
H298 C296 0.952 . S
H299 C297 0.948 . S
H300 C289 0.952 . S
H301 C291 0.948 . S
C302 C268 1.395 . S
C302 C272 1.391 . S
C303 C265 1.389 . S
C303 C285 1.392 . S
C304 C275 1.392 . S
C304 C277 1.389 . S
C305 C280 1.395 . S
C305 C282 1.391 . S
H306 C266 0.951 . S
H307 C267 0.950 . S
H308 C273 0.949 . S
H309 C274 0.950 . S
H310 C278 0.951 . S
H311 C279 0.950 . S
H312 C283 0.949 . S
H313 C284 0.950 . S
H314 C288 0.950 . S
H315 C290 0.950 . S
H316 C293 0.950 . S
H317 C295 0.950 . S
C318 C319 1.443 . S
C318 N322 1.376 . S
C318 C356 1.389 . S
C319 C318 1.443 . S
C319 C320 1.340 . S
C319 H359 0.951 . S
C320 C319 1.340 . S
C320 C321 1.439 . S
C320 H360 0.950 . S
C321 C320 1.439 . S
C321 N322 1.374 . S
C321 C355 1.395 . S
N322 C318 1.376 . S
N322 C321 1.374 . S
N322 Co323 2.008 . S
Co323 N322 2.008 . S
Co323 N324 1.995 . S
Co323 N329 2.008 . S
Co323 N334 1.995 . S
Co323 N339 2.282 . S
Co323 N345 2.282 . S
N324 Co323 1.995 . S
N324 C325 1.376 . S
N324 C328 1.383 . S
C325 N324 1.376 . S
C325 C326 1.446 . S
C325 C355 1.391 . S
C326 C325 1.446 . S
C326 C327 1.339 . S
C326 H361 0.949 . S
C327 C326 1.339 . S
C327 C328 1.439 . S
C327 H362 0.950 . S
C328 N324 1.383 . S
C328 C327 1.439 . S
C328 C357 1.392 . S
N329 Co323 2.008 . S
N329 C330 1.376 . S
N329 C333 1.374 . S
C330 N329 1.376 . S
C330 C331 1.443 . S
C330 C357 1.389 . S
C331 C330 1.443 . S
C331 C332 1.340 . S
C331 H363 0.951 . S
C332 C331 1.340 . S
C332 C333 1.439 . S
C332 H364 0.950 . S
C333 N329 1.374 . S
C333 C332 1.439 . S
C333 C358 1.395 . S
N334 Co323 1.995 . S
N334 C335 1.376 . S
N334 C338 1.383 . S
C335 N334 1.376 . S
C335 C336 1.446 . S
C335 C358 1.391 . S
C336 C335 1.446 . S
C336 C337 1.339 . S
C336 H365 0.949 . S
C337 C336 1.339 . S
C337 C338 1.439 . S
C337 H366 0.950 . S
C338 N334 1.383 . S
C338 C337 1.439 . S
C338 C356 1.392 . S
N339 Co323 2.282 . S
N339 C342 1.332 . S
N339 C344 1.332 . S
C340 C341 1.386 . S
C340 C343 1.388 . S
C341 C340 1.386 . S
C341 C342 1.382 . S
C341 H367 0.950 . S
C342 N339 1.332 . S
C342 C341 1.382 . S
C342 H353 0.952 . S
C343 C340 1.388 . S
C343 C344 1.382 . S
C343 H368 0.950 . S
C344 N339 1.332 . S
C344 C343 1.382 . S
C344 H354 0.948 . S
N345 Co323 2.282 . S
N345 C349 1.332 . S
N345 C350 1.332 . S
C346 C347 1.388 . S
C346 C350 1.382 . S
C346 H369 0.950 . S
C347 C346 1.388 . S
C347 C348 1.386 . S
C348 C347 1.386 . S
C348 C349 1.382 . S
C348 H370 0.950 . S
C349 N345 1.332 . S
C349 C348 1.382 . S
C349 H351 0.952 . S
C350 N345 1.332 . S
C350 C346 1.382 . S
C350 H352 0.948 . S
H351 C349 0.952 . S
H352 C350 0.948 . S
H353 C342 0.952 . S
H354 C344 0.948 . S
C355 C321 1.395 . S
C355 C325 1.391 . S
C356 C318 1.389 . S
C356 C338 1.392 . S
C357 C328 1.392 . S
C357 C330 1.389 . S
C358 C333 1.395 . S
C358 C335 1.391 . S
H359 C319 0.951 . S
H360 C320 0.950 . S
H361 C326 0.949 . S
H362 C327 0.950 . S
H363 C331 0.951 . S
H364 C332 0.950 . S
H365 C336 0.949 . S
H366 C337 0.950 . S
H367 C341 0.950 . S
H368 C343 0.950 . S
H369 C346 0.950 . S
H370 C348 0.950 . S
C371 C372 1.443 . S
C371 N375 1.376 . S
C371 C409 1.389 . S
C372 C371 1.443 . S
C372 C373 1.340 . S
C372 H412 0.951 . S
C373 C372 1.340 . S
C373 C374 1.439 . S
C373 H413 0.950 . S
C374 C373 1.439 . S
C374 N375 1.374 . S
C374 C408 1.395 . S
N375 C371 1.376 . S
N375 C374 1.374 . S
N375 Co376 2.008 . S
Co376 N375 2.008 . S
Co376 N377 1.995 . S
Co376 N382 2.008 . S
Co376 N387 1.995 . S
Co376 N392 2.282 . S
Co376 N398 2.282 . S
N377 Co376 1.995 . S
N377 C378 1.376 . S
N377 C381 1.383 . S
C378 N377 1.376 . S
C378 C379 1.446 . S
C378 C408 1.391 . S
C379 C378 1.446 . S
C379 C380 1.339 . S
C379 H414 0.949 . S
C380 C379 1.339 . S
C380 C381 1.439 . S
C380 H415 0.950 . S
C381 N377 1.383 . S
C381 C380 1.439 . S
C381 C410 1.392 . S
N382 Co376 2.008 . S
N382 C383 1.376 . S
N382 C386 1.374 . S
C383 N382 1.376 . S
C383 C384 1.443 . S
C383 C410 1.389 . S
C384 C383 1.443 . S
C384 C385 1.340 . S
C384 H416 0.951 . S
C385 C384 1.340 . S
C385 C386 1.439 . S
C385 H417 0.950 . S
C386 N382 1.374 . S
C386 C385 1.439 . S
C386 C411 1.395 . S
N387 Co376 1.995 . S
N387 C388 1.376 . S
N387 C391 1.383 . S
C388 N387 1.376 . S
C388 C389 1.446 . S
C388 C411 1.391 . S
C389 C388 1.446 . S
C389 C390 1.339 . S
C389 H418 0.949 . S
C390 C389 1.339 . S
C390 C391 1.439 . S
C390 H419 0.950 . S
C391 N387 1.383 . S
C391 C390 1.439 . S
C391 C409 1.392 . S
N392 Co376 2.282 . S
N392 C395 1.332 . S
N392 C397 1.332 . S
C393 C394 1.386 . S
C393 C396 1.388 . S
C394 C393 1.386 . S
C394 C395 1.382 . S
C394 H420 0.950 . S
C395 N392 1.332 . S
C395 C394 1.382 . S
C395 H406 0.952 . S
C396 C393 1.388 . S
C396 C397 1.382 . S
C396 H421 0.950 . S
C397 N392 1.332 . S
C397 C396 1.382 . S
C397 H407 0.948 . S
N398 Co376 2.282 . S
N398 C402 1.332 . S
N398 C403 1.332 . S
C399 C400 1.388 . S
C399 C403 1.382 . S
C399 H422 0.950 . S
C400 C399 1.388 . S
C400 C401 1.386 . S
C401 C400 1.386 . S
C401 C402 1.382 . S
C401 H423 0.950 . S
C402 N398 1.332 . S
C402 C401 1.382 . S
C402 H404 0.952 . S
C403 N398 1.332 . S
C403 C399 1.382 . S
C403 H405 0.948 . S
H404 C402 0.952 . S
H405 C403 0.948 . S
H406 C395 0.952 . S
H407 C397 0.948 . S
C408 C374 1.395 . S
C408 C378 1.391 . S
C409 C371 1.389 . S
C409 C391 1.392 . S
C410 C381 1.392 . S
C410 C383 1.389 . S
C411 C386 1.395 . S
C411 C388 1.391 . S
H412 C372 0.951 . S
H413 C373 0.950 . S
H414 C379 0.949 . S
H415 C380 0.950 . S
H416 C384 0.951 . S
H417 C385 0.950 . S
H418 C389 0.949 . S
H419 C390 0.950 . S
H420 C394 0.950 . S
H421 C396 0.950 . S
H422 C399 0.950 . S
H423 C401 0.950 . S
C424 C425 1.443 . S
C424 N428 1.376 . S
C424 C462 1.389 . S
C425 C424 1.443 . S
C425 C426 1.340 . S
C425 H465 0.951 . S
C426 C425 1.340 . S
C426 C427 1.439 . S
C426 H466 0.950 . S
C427 C426 1.439 . S
C427 N428 1.374 . S
C427 C461 1.395 . S
N428 C424 1.376 . S
N428 C427 1.374 . S
N428 Co429 2.008 . S
Co429 N428 2.008 . S
Co429 N430 1.995 . S
Co429 N435 2.008 . S
Co429 N440 1.995 . S
Co429 N445 2.282 . S
Co429 N451 2.282 . S
N430 Co429 1.995 . S
N430 C431 1.376 . S
N430 C434 1.383 . S
C431 N430 1.376 . S
C431 C432 1.446 . S
C431 C461 1.391 . S
C432 C431 1.446 . S
C432 C433 1.339 . S
C432 H467 0.949 . S
C433 C432 1.339 . S
C433 C434 1.439 . S
C433 H468 0.950 . S
C434 N430 1.383 . S
C434 C433 1.439 . S
C434 C463 1.392 . S
N435 Co429 2.008 . S
N435 C436 1.376 . S
N435 C439 1.374 . S
C436 N435 1.376 . S
C436 C437 1.443 . S
C436 C463 1.389 . S
C437 C436 1.443 . S
C437 C438 1.340 . S
C437 H469 0.951 . S
C438 C437 1.340 . S
C438 C439 1.439 . S
C438 H470 0.950 . S
C439 N435 1.374 . S
C439 C438 1.439 . S
C439 C464 1.395 . S
N440 Co429 1.995 . S
N440 C441 1.376 . S
N440 C444 1.383 . S
C441 N440 1.376 . S
C441 C442 1.446 . S
C441 C464 1.391 . S
C442 C441 1.446 . S
C442 C443 1.339 . S
C442 H471 0.949 . S
C443 C442 1.339 . S
C443 C444 1.439 . S
C443 H472 0.950 . S
C444 N440 1.383 . S
C444 C443 1.439 . S
C444 C462 1.392 . S
N445 Co429 2.282 . S
N445 C448 1.332 . S
N445 C450 1.332 . S
C446 C447 1.386 . S
C446 C449 1.388 . S
C447 C446 1.386 . S
C447 C448 1.382 . S
C447 H473 0.950 . S
C448 N445 1.332 . S
C448 C447 1.382 . S
C448 H459 0.952 . S
C449 C446 1.388 . S
C449 C450 1.382 . S
C449 H474 0.950 . S
C450 N445 1.332 . S
C450 C449 1.382 . S
C450 H460 0.948 . S
N451 Co429 2.282 . S
N451 C455 1.332 . S
N451 C456 1.332 . S
C452 C453 1.388 . S
C452 C456 1.382 . S
C452 H475 0.950 . S
C453 C452 1.388 . S
C453 C454 1.386 . S
C454 C453 1.386 . S
C454 C455 1.382 . S
C454 H476 0.950 . S
C455 N451 1.332 . S
C455 C454 1.382 . S
C455 H457 0.952 . S
C456 N451 1.332 . S
C456 C452 1.382 . S
C456 H458 0.948 . S
H457 C455 0.952 . S
H458 C456 0.948 . S
H459 C448 0.952 . S
H460 C450 0.948 . S
C461 C427 1.395 . S
C461 C431 1.391 . S
C462 C424 1.389 . S
C462 C444 1.392 . S
C463 C434 1.392 . S
C463 C436 1.389 . S
C464 C439 1.395 . S
C464 C441 1.391 . S
H465 C425 0.951 . S
H466 C426 0.950 . S
H467 C432 0.949 . S
H468 C433 0.950 . S
H469 C437 0.951 . S
H470 C438 0.950 . S
H471 C442 0.949 . S
H472 C443 0.950 . S
H473 C447 0.950 . S
H474 C449 0.950 . S
H475 C452 0.950 . S
H476 C454 0.950 . S
C477 C478 1.443 . S
C477 N481 1.376 . S
C477 C515 1.389 . S
C478 C477 1.443 . S
C478 C479 1.340 . S
C478 H518 0.951 . S
C479 C478 1.340 . S
C479 C480 1.439 . S
C479 H519 0.950 . S
C480 C479 1.439 . S
C480 N481 1.374 . S
C480 C514 1.395 . S
N481 C477 1.376 . S
N481 C480 1.374 . S
N481 Co482 2.008 . S
Co482 N481 2.008 . S
Co482 N483 1.995 . S
Co482 N488 2.008 . S
Co482 N493 1.995 . S
Co482 N498 2.282 . S
Co482 N504 2.282 . S
N483 Co482 1.995 . S
N483 C484 1.376 . S
N483 C487 1.383 . S
C484 N483 1.376 . S
C484 C485 1.446 . S
C484 C514 1.391 . S
C485 C484 1.446 . S
C485 C486 1.339 . S
C485 H520 0.949 . S
C486 C485 1.339 . S
C486 C487 1.439 . S
C486 H521 0.950 . S
C487 N483 1.383 . S
C487 C486 1.439 . S
C487 C516 1.392 . S
N488 Co482 2.008 . S
N488 C489 1.376 . S
N488 C492 1.374 . S
C489 N488 1.376 . S
C489 C490 1.443 . S
C489 C516 1.389 . S
C490 C489 1.443 . S
C490 C491 1.340 . S
C490 H522 0.951 . S
C491 C490 1.340 . S
C491 C492 1.439 . S
C491 H523 0.950 . S
C492 N488 1.374 . S
C492 C491 1.439 . S
C492 C517 1.395 . S
N493 Co482 1.995 . S
N493 C494 1.376 . S
N493 C497 1.383 . S
C494 N493 1.376 . S
C494 C495 1.446 . S
C494 C517 1.391 . S
C495 C494 1.446 . S
C495 C496 1.339 . S
C495 H524 0.949 . S
C496 C495 1.339 . S
C496 C497 1.439 . S
C496 H525 0.950 . S
C497 N493 1.383 . S
C497 C496 1.439 . S
C497 C515 1.392 . S
N498 Co482 2.282 . S
N498 C501 1.332 . S
N498 C503 1.332 . S
C499 C500 1.386 . S
C499 C502 1.388 . S
C500 C499 1.386 . S
C500 C501 1.382 . S
C500 H526 0.950 . S
C501 N498 1.332 . S
C501 C500 1.382 . S
C501 H512 0.952 . S
C502 C499 1.388 . S
C502 C503 1.382 . S
C502 H527 0.950 . S
C503 N498 1.332 . S
C503 C502 1.382 . S
C503 H513 0.948 . S
N504 Co482 2.282 . S
N504 C508 1.332 . S
N504 C509 1.332 . S
C505 C506 1.388 . S
C505 C509 1.382 . S
C505 H528 0.950 . S
C506 C505 1.388 . S
C506 C507 1.386 . S
C507 C506 1.386 . S
C507 C508 1.382 . S
C507 H529 0.950 . S
C508 N504 1.332 . S
C508 C507 1.382 . S
C508 H510 0.952 . S
C509 N504 1.332 . S
C509 C505 1.382 . S
C509 H511 0.948 . S
H510 C508 0.952 . S
H511 C509 0.948 . S
H512 C501 0.952 . S
H513 C503 0.948 . S
C514 C480 1.395 . S
C514 C484 1.391 . S
C515 C477 1.389 . S
C515 C497 1.392 . S
C516 C487 1.392 . S
C516 C489 1.389 . S
C517 C492 1.395 . S
C517 C494 1.391 . S
H518 C478 0.951 . S
H519 C479 0.950 . S
H520 C485 0.949 . S
H521 C486 0.950 . S
H522 C490 0.951 . S
H523 C491 0.950 . S
H524 C495 0.949 . S
H525 C496 0.950 . S
H526 C500 0.950 . S
H527 C502 0.950 . S
H528 C505 0.950 . S
H529 C507 0.950 . S
C530 C531 1.443 . S
C530 N534 1.376 . S
C530 C568 1.389 . S
C531 C530 1.443 . S
C531 C532 1.340 . S
C531 H571 0.951 . S
C532 C531 1.340 . S
C532 C533 1.439 . S
C532 H572 0.950 . S
C533 C532 1.439 . S
C533 N534 1.374 . S
C533 C567 1.395 . S
N534 C530 1.376 . S
N534 C533 1.374 . S
N534 Co535 2.008 . S
Co535 N534 2.008 . S
Co535 N536 1.995 . S
Co535 N541 2.008 . S
Co535 N546 1.995 . S
Co535 N551 2.282 . S
Co535 N557 2.282 . S
N536 Co535 1.995 . S
N536 C537 1.376 . S
N536 C540 1.383 . S
C537 N536 1.376 . S
C537 C538 1.446 . S
C537 C567 1.391 . S
C538 C537 1.446 . S
C538 C539 1.339 . S
C538 H573 0.949 . S
C539 C538 1.339 . S
C539 C540 1.439 . S
C539 H574 0.950 . S
C540 N536 1.383 . S
C540 C539 1.439 . S
C540 C569 1.392 . S
N541 Co535 2.008 . S
N541 C542 1.376 . S
N541 C545 1.374 . S
C542 N541 1.376 . S
C542 C543 1.443 . S
C542 C569 1.389 . S
C543 C542 1.443 . S
C543 C544 1.340 . S
C543 H575 0.951 . S
C544 C543 1.340 . S
C544 C545 1.439 . S
C544 H576 0.950 . S
C545 N541 1.374 . S
C545 C544 1.439 . S
C545 C570 1.395 . S
N546 Co535 1.995 . S
N546 C547 1.376 . S
N546 C550 1.383 . S
C547 N546 1.376 . S
C547 C548 1.446 . S
C547 C570 1.391 . S
C548 C547 1.446 . S
C548 C549 1.339 . S
C548 H577 0.949 . S
C549 C548 1.339 . S
C549 C550 1.439 . S
C549 H578 0.950 . S
C550 N546 1.383 . S
C550 C549 1.439 . S
C550 C568 1.392 . S
N551 Co535 2.282 . S
N551 C554 1.332 . S
N551 C556 1.332 . S
C552 C553 1.386 . S
C552 C555 1.388 . S
C553 C552 1.386 . S
C553 C554 1.382 . S
C553 H579 0.950 . S
C554 N551 1.332 . S
C554 C553 1.382 . S
C554 H565 0.952 . S
C555 C552 1.388 . S
C555 C556 1.382 . S
C555 H580 0.950 . S
C556 N551 1.332 . S
C556 C555 1.382 . S
C556 H566 0.948 . S
N557 Co535 2.282 . S
N557 C561 1.332 . S
N557 C562 1.332 . S
C558 C559 1.388 . S
C558 C562 1.382 . S
C558 H581 0.950 . S
C559 C558 1.388 . S
C559 C560 1.386 . S
C560 C559 1.386 . S
C560 C561 1.382 . S
C560 H582 0.950 . S
C561 N557 1.332 . S
C561 C560 1.382 . S
C561 H563 0.952 . S
C562 N557 1.332 . S
C562 C558 1.382 . S
C562 H564 0.948 . S
H563 C561 0.952 . S
H564 C562 0.948 . S
H565 C554 0.952 . S
H566 C556 0.948 . S
C567 C533 1.395 . S
C567 C537 1.391 . S
C568 C530 1.389 . S
C568 C550 1.392 . S
C569 C540 1.392 . S
C569 C542 1.389 . S
C570 C545 1.395 . S
C570 C547 1.391 . S
H571 C531 0.951 . S
H572 C532 0.950 . S
H573 C538 0.949 . S
H574 C539 0.950 . S
H575 C543 0.951 . S
H576 C544 0.950 . S
H577 C548 0.949 . S
H578 C549 0.950 . S
H579 C553 0.950 . S
H580 C555 0.950 . S
H581 C558 0.950 . S
H582 C560 0.950 . S
C583 C584 1.443 . S
C583 N587 1.376 . S
C583 C621 1.389 . S
C584 C583 1.443 . S
C584 C585 1.340 . S
C584 H624 0.951 . S
C585 C584 1.340 . S
C585 C586 1.439 . S
C585 H625 0.950 . S
C586 C585 1.439 . S
C586 N587 1.374 . S
C586 C620 1.395 . S
N587 C583 1.376 . S
N587 C586 1.374 . S
N587 Co588 2.008 . S
Co588 N587 2.008 . S
Co588 N589 1.995 . S
Co588 N594 2.008 . S
Co588 N599 1.995 . S
Co588 N604 2.282 . S
Co588 N610 2.282 . S
N589 Co588 1.995 . S
N589 C590 1.376 . S
N589 C593 1.383 . S
C590 N589 1.376 . S
C590 C591 1.446 . S
C590 C620 1.391 . S
C591 C590 1.446 . S
C591 C592 1.339 . S
C591 H626 0.949 . S
C592 C591 1.339 . S
C592 C593 1.439 . S
C592 H627 0.950 . S
C593 N589 1.383 . S
C593 C592 1.439 . S
C593 C622 1.392 . S
N594 Co588 2.008 . S
N594 C595 1.376 . S
N594 C598 1.374 . S
C595 N594 1.376 . S
C595 C596 1.443 . S
C595 C622 1.389 . S
C596 C595 1.443 . S
C596 C597 1.340 . S
C596 H628 0.951 . S
C597 C596 1.340 . S
C597 C598 1.439 . S
C597 H629 0.950 . S
C598 N594 1.374 . S
C598 C597 1.439 . S
C598 C623 1.395 . S
N599 Co588 1.995 . S
N599 C600 1.376 . S
N599 C603 1.383 . S
C600 N599 1.376 . S
C600 C601 1.446 . S
C600 C623 1.391 . S
C601 C600 1.446 . S
C601 C602 1.339 . S
C601 H630 0.949 . S
C602 C601 1.339 . S
C602 C603 1.439 . S
C602 H631 0.950 . S
C603 N599 1.383 . S
C603 C602 1.439 . S
C603 C621 1.392 . S
N604 Co588 2.282 . S
N604 C607 1.332 . S
N604 C609 1.332 . S
C605 C606 1.386 . S
C605 C608 1.388 . S
C606 C605 1.386 . S
C606 C607 1.382 . S
C606 H632 0.950 . S
C607 N604 1.332 . S
C607 C606 1.382 . S
C607 H618 0.952 . S
C608 C605 1.388 . S
C608 C609 1.382 . S
C608 H633 0.950 . S
C609 N604 1.332 . S
C609 C608 1.382 . S
C609 H619 0.948 . S
N610 Co588 2.282 . S
N610 C614 1.332 . S
N610 C615 1.332 . S
C611 C612 1.388 . S
C611 C615 1.382 . S
C611 H634 0.950 . S
C612 C611 1.388 . S
C612 C613 1.386 . S
C613 C612 1.386 . S
C613 C614 1.382 . S
C613 H635 0.950 . S
C614 N610 1.332 . S
C614 C613 1.382 . S
C614 H616 0.952 . S
C615 N610 1.332 . S
C615 C611 1.382 . S
C615 H617 0.948 . S
H616 C614 0.952 . S
H617 C615 0.948 . S
H618 C607 0.952 . S
H619 C609 0.948 . S
C620 C586 1.395 . S
C620 C590 1.391 . S
C621 C583 1.389 . S
C621 C603 1.392 . S
C622 C593 1.392 . S
C622 C595 1.389 . S
C623 C598 1.395 . S
C623 C600 1.391 . S
H624 C584 0.951 . S
H625 C585 0.950 . S
H626 C591 0.949 . S
H627 C592 0.950 . S
H628 C596 0.951 . S
H629 C597 0.950 . S
H630 C601 0.949 . S
H631 C602 0.950 . S
H632 C606 0.950 . S
H633 C608 0.950 . S
H634 C611 0.950 . S
H635 C613 0.950 . S
C636 C637 1.443 . S
C636 N640 1.376 . S
C636 C674 1.389 . S
C637 C636 1.443 . S
C637 C638 1.340 . S
C637 H677 0.951 . S
C638 C637 1.340 . S
C638 C639 1.439 . S
C638 H678 0.950 . S
C639 C638 1.439 . S
C639 N640 1.374 . S
C639 C673 1.395 . S
N640 C636 1.376 . S
N640 C639 1.374 . S
N640 Co641 2.008 . S
Co641 N640 2.008 . S
Co641 N642 1.995 . S
Co641 N647 2.008 . S
Co641 N652 1.995 . S
Co641 N657 2.282 . S
Co641 N663 2.282 . S
N642 Co641 1.995 . S
N642 C643 1.376 . S
N642 C646 1.383 . S
C643 N642 1.376 . S
C643 C644 1.446 . S
C643 C673 1.391 . S
C644 C643 1.446 . S
C644 C645 1.339 . S
C644 H679 0.949 . S
C645 C644 1.339 . S
C645 C646 1.439 . S
C645 H680 0.950 . S
C646 N642 1.383 . S
C646 C645 1.439 . S
C646 C675 1.392 . S
N647 Co641 2.008 . S
N647 C648 1.376 . S
N647 C651 1.374 . S
C648 N647 1.376 . S
C648 C649 1.443 . S
C648 C675 1.389 . S
C649 C648 1.443 . S
C649 C650 1.340 . S
C649 H681 0.951 . S
C650 C649 1.340 . S
C650 C651 1.439 . S
C650 H682 0.950 . S
C651 N647 1.374 . S
C651 C650 1.439 . S
C651 C676 1.395 . S
N652 Co641 1.995 . S
N652 C653 1.376 . S
N652 C656 1.383 . S
C653 N652 1.376 . S
C653 C654 1.446 . S
C653 C676 1.391 . S
C654 C653 1.446 . S
C654 C655 1.339 . S
C654 H683 0.949 . S
C655 C654 1.339 . S
C655 C656 1.439 . S
C655 H684 0.950 . S
C656 N652 1.383 . S
C656 C655 1.439 . S
C656 C674 1.392 . S
N657 Co641 2.282 . S
N657 C660 1.332 . S
N657 C662 1.332 . S
C658 C659 1.386 . S
C658 C661 1.388 . S
C659 C658 1.386 . S
C659 C660 1.382 . S
C659 H685 0.950 . S
C660 N657 1.332 . S
C660 C659 1.382 . S
C660 H671 0.952 . S
C661 C658 1.388 . S
C661 C662 1.382 . S
C661 H686 0.950 . S
C662 N657 1.332 . S
C662 C661 1.382 . S
C662 H672 0.948 . S
N663 Co641 2.282 . S
N663 C667 1.332 . S
N663 C668 1.332 . S
C664 C665 1.388 . S
C664 C668 1.382 . S
C664 H687 0.950 . S
C665 C664 1.388 . S
C665 C666 1.386 . S
C666 C665 1.386 . S
C666 C667 1.382 . S
C666 H688 0.950 . S
C667 N663 1.332 . S
C667 C666 1.382 . S
C667 H669 0.952 . S
C668 N663 1.332 . S
C668 C664 1.382 . S
C668 H670 0.948 . S
H669 C667 0.952 . S
H670 C668 0.948 . S
H671 C660 0.952 . S
H672 C662 0.948 . S
C673 C639 1.395 . S
C673 C643 1.391 . S
C674 C636 1.389 . S
C674 C656 1.392 . S
C675 C646 1.392 . S
C675 C648 1.389 . S
C676 C651 1.395 . S
C676 C653 1.391 . S
H677 C637 0.951 . S
H678 C638 0.950 . S
H679 C644 0.949 . S
H680 C645 0.950 . S
H681 C649 0.951 . S
H682 C650 0.950 . S
H683 C654 0.949 . S
H684 C655 0.950 . S
H685 C659 0.950 . S
H686 C661 0.950 . S
H687 C664 0.950 . S
H688 C666 0.950 . S
C689 C690 1.443 . S
C689 N693 1.376 . S
C689 C727 1.389 . S
C690 C689 1.443 . S
C690 C691 1.340 . S
C690 H730 0.951 . S
C691 C690 1.340 . S
C691 C692 1.439 . S
C691 H731 0.950 . S
C692 C691 1.439 . S
C692 N693 1.374 . S
C692 C726 1.395 . S
N693 C689 1.376 . S
N693 C692 1.374 . S
N693 Co694 2.008 . S
Co694 N693 2.008 . S
Co694 N695 1.995 . S
Co694 N700 2.008 . S
Co694 N705 1.995 . S
Co694 N710 2.282 . S
Co694 N716 2.282 . S
N695 Co694 1.995 . S
N695 C696 1.376 . S
N695 C699 1.383 . S
C696 N695 1.376 . S
C696 C697 1.446 . S
C696 C726 1.391 . S
C697 C696 1.446 . S
C697 C698 1.339 . S
C697 H732 0.949 . S
C698 C697 1.339 . S
C698 C699 1.439 . S
C698 H733 0.950 . S
C699 N695 1.383 . S
C699 C698 1.439 . S
C699 C728 1.392 . S
N700 Co694 2.008 . S
N700 C701 1.376 . S
N700 C704 1.374 . S
C701 N700 1.376 . S
C701 C702 1.443 . S
C701 C728 1.389 . S
C702 C701 1.443 . S
C702 C703 1.340 . S
C702 H734 0.951 . S
C703 C702 1.340 . S
C703 C704 1.439 . S
C703 H735 0.950 . S
C704 N700 1.374 . S
C704 C703 1.439 . S
C704 C729 1.395 . S
N705 Co694 1.995 . S
N705 C706 1.376 . S
N705 C709 1.383 . S
C706 N705 1.376 . S
C706 C707 1.446 . S
C706 C729 1.391 . S
C707 C706 1.446 . S
C707 C708 1.339 . S
C707 H736 0.949 . S
C708 C707 1.339 . S
C708 C709 1.439 . S
C708 H737 0.950 . S
C709 N705 1.383 . S
C709 C708 1.439 . S
C709 C727 1.392 . S
N710 Co694 2.282 . S
N710 C713 1.332 . S
N710 C715 1.332 . S
C711 C712 1.386 . S
C711 C714 1.388 . S
C712 C711 1.386 . S
C712 C713 1.382 . S
C712 H738 0.950 . S
C713 N710 1.332 . S
C713 C712 1.382 . S
C713 H724 0.952 . S
C714 C711 1.388 . S
C714 C715 1.382 . S
C714 H739 0.950 . S
C715 N710 1.332 . S
C715 C714 1.382 . S
C715 H725 0.948 . S
N716 Co694 2.282 . S
N716 C720 1.332 . S
N716 C721 1.332 . S
C717 C718 1.388 . S
C717 C721 1.382 . S
C717 H740 0.950 . S
C718 C717 1.388 . S
C718 C719 1.386 . S
C719 C718 1.386 . S
C719 C720 1.382 . S
C719 H741 0.950 . S
C720 N716 1.332 . S
C720 C719 1.382 . S
C720 H722 0.952 . S
C721 N716 1.332 . S
C721 C717 1.382 . S
C721 H723 0.948 . S
H722 C720 0.952 . S
H723 C721 0.948 . S
H724 C713 0.952 . S
H725 C715 0.948 . S
C726 C692 1.395 . S
C726 C696 1.391 . S
C727 C689 1.389 . S
C727 C709 1.392 . S
C728 C699 1.392 . S
C728 C701 1.389 . S
C729 C704 1.395 . S
C729 C706 1.391 . S
H730 C690 0.951 . S
H731 C691 0.950 . S
H732 C697 0.949 . S
H733 C698 0.950 . S
H734 C702 0.951 . S
H735 C703 0.950 . S
H736 C707 0.949 . S
H737 C708 0.950 . S
H738 C712 0.950 . S
H739 C714 0.950 . S
H740 C717 0.950 . S
H741 C719 0.950 . S
C742 C743 1.443 . S
C742 N746 1.376 . S
C742 C780 1.389 . S
C743 C742 1.443 . S
C743 C744 1.340 . S
C743 H783 0.951 . S
C744 C743 1.340 . S
C744 C745 1.439 . S
C744 H784 0.950 . S
C745 C744 1.439 . S
C745 N746 1.374 . S
C745 C779 1.395 . S
N746 C742 1.376 . S
N746 C745 1.374 . S
N746 Co747 2.008 . S
Co747 N746 2.008 . S
Co747 N748 1.995 . S
Co747 N753 2.008 . S
Co747 N758 1.995 . S
Co747 N763 2.282 . S
Co747 N769 2.282 . S
N748 Co747 1.995 . S
N748 C749 1.376 . S
N748 C752 1.383 . S
C749 N748 1.376 . S
C749 C750 1.446 . S
C749 C779 1.391 . S
C750 C749 1.446 . S
C750 C751 1.339 . S
C750 H785 0.949 . S
C751 C750 1.339 . S
C751 C752 1.439 . S
C751 H786 0.950 . S
C752 N748 1.383 . S
C752 C751 1.439 . S
C752 C781 1.392 . S
N753 Co747 2.008 . S
N753 C754 1.376 . S
N753 C757 1.374 . S
C754 N753 1.376 . S
C754 C755 1.443 . S
C754 C781 1.389 . S
C755 C754 1.443 . S
C755 C756 1.340 . S
C755 H787 0.951 . S
C756 C755 1.340 . S
C756 C757 1.439 . S
C756 H788 0.950 . S
C757 N753 1.374 . S
C757 C756 1.439 . S
C757 C782 1.395 . S
N758 Co747 1.995 . S
N758 C759 1.376 . S
N758 C762 1.383 . S
C759 N758 1.376 . S
C759 C760 1.446 . S
C759 C782 1.391 . S
C760 C759 1.446 . S
C760 C761 1.339 . S
C760 H789 0.949 . S
C761 C760 1.339 . S
C761 C762 1.439 . S
C761 H790 0.950 . S
C762 N758 1.383 . S
C762 C761 1.439 . S
C762 C780 1.392 . S
N763 Co747 2.282 . S
N763 C766 1.332 . S
N763 C768 1.332 . S
C764 C765 1.386 . S
C764 C767 1.388 . S
C765 C764 1.386 . S
C765 C766 1.382 . S
C765 H791 0.950 . S
C766 N763 1.332 . S
C766 C765 1.382 . S
C766 H777 0.952 . S
C767 C764 1.388 . S
C767 C768 1.382 . S
C767 H792 0.950 . S
C768 N763 1.332 . S
C768 C767 1.382 . S
C768 H778 0.948 . S
N769 Co747 2.282 . S
N769 C773 1.332 . S
N769 C774 1.332 . S
C770 C771 1.388 . S
C770 C774 1.382 . S
C770 H793 0.950 . S
C771 C770 1.388 . S
C771 C772 1.386 . S
C772 C771 1.386 . S
C772 C773 1.382 . S
C772 H794 0.950 . S
C773 N769 1.332 . S
C773 C772 1.382 . S
C773 H775 0.952 . S
C774 N769 1.332 . S
C774 C770 1.382 . S
C774 H776 0.948 . S
H775 C773 0.952 . S
H776 C774 0.948 . S
H777 C766 0.952 . S
H778 C768 0.948 . S
C779 C745 1.395 . S
C779 C749 1.391 . S
C780 C742 1.389 . S
C780 C762 1.392 . S
C781 C752 1.392 . S
C781 C754 1.389 . S
C782 C757 1.395 . S
C782 C759 1.391 . S
H783 C743 0.951 . S
H784 C744 0.950 . S
H785 C750 0.949 . S
H786 C751 0.950 . S
H787 C755 0.951 . S
H788 C756 0.950 . S
H789 C760 0.949 . S
H790 C761 0.950 . S
H791 C765 0.950 . S
H792 C767 0.950 . S
H793 C770 0.950 . S
H794 C772 0.950 . S
C795 C796 1.443 . S
C795 N799 1.376 . S
C795 C833 1.389 . S
C796 C795 1.443 . S
C796 C797 1.340 . S
C796 H836 0.951 . S
C797 C796 1.340 . S
C797 C798 1.439 . S
C797 H837 0.950 . S
C798 C797 1.439 . S
C798 N799 1.374 . S
C798 C832 1.395 . S
N799 C795 1.376 . S
N799 C798 1.374 . S
N799 Co800 2.008 . S
Co800 N799 2.008 . S
Co800 N801 1.995 . S
Co800 N806 2.008 . S
Co800 N811 1.995 . S
Co800 N816 2.282 . S
Co800 N822 2.282 . S
N801 Co800 1.995 . S
N801 C802 1.376 . S
N801 C805 1.383 . S
C802 N801 1.376 . S
C802 C803 1.446 . S
C802 C832 1.391 . S
C803 C802 1.446 . S
C803 C804 1.339 . S
C803 H838 0.949 . S
C804 C803 1.339 . S
C804 C805 1.439 . S
C804 H839 0.950 . S
C805 N801 1.383 . S
C805 C804 1.439 . S
C805 C834 1.392 . S
N806 Co800 2.008 . S
N806 C807 1.376 . S
N806 C810 1.374 . S
C807 N806 1.376 . S
C807 C808 1.443 . S
C807 C834 1.389 . S
C808 C807 1.443 . S
C808 C809 1.340 . S
C808 H840 0.951 . S
C809 C808 1.340 . S
C809 C810 1.439 . S
C809 H841 0.950 . S
C810 N806 1.374 . S
C810 C809 1.439 . S
C810 C835 1.395 . S
N811 Co800 1.995 . S
N811 C812 1.376 . S
N811 C815 1.383 . S
C812 N811 1.376 . S
C812 C813 1.446 . S
C812 C835 1.391 . S
C813 C812 1.446 . S
C813 C814 1.339 . S
C813 H842 0.949 . S
C814 C813 1.339 . S
C814 C815 1.439 . S
C814 H843 0.950 . S
C815 N811 1.383 . S
C815 C814 1.439 . S
C815 C833 1.392 . S
N816 Co800 2.282 . S
N816 C819 1.332 . S
N816 C821 1.332 . S
C817 C818 1.386 . S
C817 C820 1.388 . S
C818 C817 1.386 . S
C818 C819 1.382 . S
C818 H844 0.950 . S
C819 N816 1.332 . S
C819 C818 1.382 . S
C819 H830 0.952 . S
C820 C817 1.388 . S
C820 C821 1.382 . S
C820 H845 0.950 . S
C821 N816 1.332 . S
C821 C820 1.382 . S
C821 H831 0.948 . S
N822 Co800 2.282 . S
N822 C826 1.332 . S
N822 C827 1.332 . S
C823 C824 1.388 . S
C823 C827 1.382 . S
C823 H846 0.950 . S
C824 C823 1.388 . S
C824 C825 1.386 . S
C825 C824 1.386 . S
C825 C826 1.382 . S
C825 H847 0.950 . S
C826 N822 1.332 . S
C826 C825 1.382 . S
C826 H828 0.952 . S
C827 N822 1.332 . S
C827 C823 1.382 . S
C827 H829 0.948 . S
H828 C826 0.952 . S
H829 C827 0.948 . S
H830 C819 0.952 . S
H831 C821 0.948 . S
C832 C798 1.395 . S
C832 C802 1.391 . S
C833 C795 1.389 . S
C833 C815 1.392 . S
C834 C805 1.392 . S
C834 C807 1.389 . S
C835 C810 1.395 . S
C835 C812 1.391 . S
H836 C796 0.951 . S
H837 C797 0.950 . S
H838 C803 0.949 . S
H839 C804 0.950 . S
H840 C808 0.951 . S
H841 C809 0.950 . S
H842 C813 0.949 . S
H843 C814 0.950 . S
H844 C818 0.950 . S
H845 C820 0.950 . S
H846 C823 0.950 . S
H847 C825 0.950 . S
H848 C860 0.930 . S
H849 C862 0.930 . S
H850 C863 0.930 . S
H851 C867 0.959 . S
H852 C867 0.959 . S
H853 C867 0.961 . S
H854 C868 0.960 . S
H855 C868 0.961 . S
H856 C868 0.959 . S
H857 C871 0.929 . S
H858 C872 0.931 . S
H859 C874 0.930 . S
C860 H848 0.930 . S
C860 C861 1.399 . S
C860 C865 1.399 . S
C861 C860 1.399 . S
C861 C862 1.376 . S
C862 H849 0.930 . S
C862 C861 1.376 . S
C862 C863 1.388 . S
C863 H850 0.930 . S
C863 C862 1.388 . S
C863 C864 1.390 . S
C864 C863 1.390 . S
C864 C865 1.394 . S
C864 C870 1.465 . S
C865 C860 1.399 . S
C865 C864 1.394 . S
C865 C866 1.516 . S
C866 C865 1.516 . S
C866 C867 1.502 . S
C866 C868 1.561 . S
C866 C869 1.526 . S
C867 H851 0.959 . S
C867 H852 0.959 . S
C867 H853 0.961 . S
C867 C866 1.502 . S
C868 H854 0.960 . S
C868 H855 0.961 . S
C868 H856 0.959 . S
C868 C866 1.561 . S
C869 C866 1.526 . S
C869 C870 1.396 . S
C869 C874 1.390 . S
C870 C864 1.465 . S
C870 C869 1.396 . S
C870 C871 1.399 . S
C871 H857 0.929 . S
C871 C870 1.399 . S
C871 C872 1.385 . S
C872 H858 0.931 . S
C872 C871 1.385 . S
C872 C873 1.389 . S
C873 C872 1.389 . S
C873 C874 1.387 . S
C874 H859 0.930 . S
C874 C869 1.390 . S
C874 C873 1.387 . S
H875 C887 0.930 . S
H876 C889 0.930 . S
H877 C890 0.930 . S
H878 C894 0.959 . S
H879 C894 0.959 . S
H880 C894 0.961 . S
H881 C895 0.960 . S
H882 C895 0.961 . S
H883 C895 0.959 . S
H884 C898 0.929 . S
H885 C899 0.931 . S
H886 C901 0.930 . S
C887 H875 0.930 . S
C887 C888 1.399 . S
C887 C892 1.399 . S
C888 C887 1.399 . S
C888 C889 1.376 . S
C889 H876 0.930 . S
C889 C888 1.376 . S
C889 C890 1.388 . S
C890 H877 0.930 . S
C890 C889 1.388 . S
C890 C891 1.390 . S
C891 C890 1.390 . S
C891 C892 1.394 . S
C891 C897 1.465 . S
C892 C887 1.399 . S
C892 C891 1.394 . S
C892 C893 1.516 . S
C893 C892 1.516 . S
C893 C894 1.502 . S
C893 C895 1.561 . S
C893 C896 1.526 . S
C894 H878 0.959 . S
C894 H879 0.959 . S
C894 H880 0.961 . S
C894 C893 1.502 . S
C895 H881 0.960 . S
C895 H882 0.961 . S
C895 H883 0.959 . S
C895 C893 1.561 . S
C896 C893 1.526 . S
C896 C897 1.396 . S
C896 C901 1.390 . S
C897 C891 1.465 . S
C897 C896 1.396 . S
C897 C898 1.399 . S
C898 H884 0.929 . S
C898 C897 1.399 . S
C898 C899 1.385 . S
C899 H885 0.931 . S
C899 C898 1.385 . S
C899 C900 1.389 . S
C900 C899 1.389 . S
C900 C901 1.387 . S
C901 H886 0.930 . S
C901 C896 1.390 . S
C901 C900 1.387 . S
H902 C914 0.930 . S
H903 C916 0.930 . S
H904 C917 0.930 . S
H905 C921 0.962 . S
H906 C921 0.978 . S
H907 C921 0.940 1_554 S
H908 C922 0.958 1_554 S
H909 C922 0.963 . S
H910 C922 0.959 . S
H911 C925 0.929 . S
H912 C926 0.931 . S
H913 C928 0.930 . S
C914 H902 0.930 . S
C914 C915 1.399 . S
C914 C919 1.399 . S
C915 C914 1.399 . S
C915 C916 1.376 . S
C916 H903 0.930 . S
C916 C915 1.376 . S
C916 C917 1.388 . S
C917 H904 0.930 . S
C917 C916 1.388 . S
C917 C918 1.390 . S
C918 C917 1.390 . S
C918 C919 1.394 . S
C918 C924 1.465 1_554 S
C919 C914 1.399 . S
C919 C918 1.394 . S
C919 C920 1.517 1_554 S
C920 C919 1.517 1_556 S
C920 C921 1.502 . S
C920 C922 1.561 . S
C920 C923 1.524 . S
C921 H905 0.962 . S
C921 H906 0.978 . S
C921 H907 0.940 1_556 S
C921 C920 1.502 . S
C922 H908 0.958 1_556 S
C922 H909 0.963 . S
C922 H910 0.959 . S
C922 C920 1.561 . S
C923 C920 1.524 . S
C923 C924 1.396 . S
C923 C928 1.390 . S
C924 C918 1.465 1_556 S
C924 C923 1.396 . S
C924 C925 1.399 . S
C925 H911 0.929 . S
C925 C924 1.399 . S
C925 C926 1.385 . S
C926 H912 0.931 . S
C926 C925 1.385 . S
C926 C927 1.389 . S
C927 C926 1.389 . S
C927 C928 1.387 . S
C928 H913 0.930 . S
C928 C923 1.390 . S
C928 C927 1.387 . S
H929 C941 0.930 . S
H930 C943 0.930 . S
H931 C944 0.930 . S
H932 C948 0.962 . S
H933 C948 0.978 . S
H934 C948 0.940 1_556 S
H935 C949 0.958 1_556 S
H936 C949 0.963 . S
H937 C949 0.959 . S
H938 C952 0.929 . S
H939 C953 0.931 . S
H940 C955 0.930 . S
C941 H929 0.930 . S
C941 C942 1.399 . S
C941 C946 1.399 . S
C942 C941 1.399 . S
C942 C943 1.376 . S
C943 H930 0.930 . S
C943 C942 1.376 . S
C943 C944 1.388 . S
C944 H931 0.930 . S
C944 C943 1.388 . S
C944 C945 1.390 . S
C945 C944 1.390 . S
C945 C946 1.394 . S
C945 C951 1.465 1_556 S
C946 C941 1.399 . S
C946 C945 1.394 . S
C946 C947 1.517 1_556 S
C947 C946 1.517 1_554 S
C947 C948 1.502 . S
C947 C949 1.561 . S
C947 C950 1.524 . S
C948 H932 0.962 . S
C948 H933 0.978 . S
C948 H934 0.940 1_554 S
C948 C947 1.502 . S
C949 H935 0.958 1_554 S
C949 H936 0.963 . S
C949 H937 0.959 . S
C949 C947 1.561 . S
C950 C947 1.524 . S
C950 C951 1.396 . S
C950 C955 1.390 . S
C951 C945 1.465 1_554 S
C951 C950 1.396 . S
C951 C952 1.399 . S
C952 H938 0.929 . S
C952 C951 1.399 . S
C952 C953 1.385 . S
C953 H939 0.931 . S
C953 C952 1.385 . S
C953 C954 1.389 . S
C954 C953 1.389 . S
C954 C955 1.387 . S
C955 H940 0.930 . S
C955 C950 1.390 . S
C955 C954 1.387 . S
H956 C968 0.930 . S
H957 C970 0.930 . S
H958 C971 0.930 . S
H959 C975 0.959 . S
H960 C975 0.959 . S
H961 C975 0.961 . S
H962 C976 0.960 . S
H963 C976 0.961 . S
H964 C976 0.959 . S
H965 C979 0.929 . S
H966 C980 0.931 . S
H967 C982 0.930 . S
C968 H956 0.930 . S
C968 C969 1.399 . S
C968 C973 1.399 . S
C969 C968 1.399 . S
C969 C970 1.376 . S
C970 H957 0.930 . S
C970 C969 1.376 . S
C970 C971 1.388 . S
C971 H958 0.930 . S
C971 C970 1.388 . S
C971 C972 1.390 . S
C972 C971 1.390 . S
C972 C973 1.394 . S
C972 C978 1.465 . S
C973 C968 1.399 . S
C973 C972 1.394 . S
C973 C974 1.516 . S
C974 C973 1.516 . S
C974 C975 1.502 . S
C974 C976 1.561 . S
C974 C977 1.526 . S
C975 H959 0.959 . S
C975 H960 0.959 . S
C975 H961 0.961 . S
C975 C974 1.502 . S
C976 H962 0.960 . S
C976 H963 0.961 . S
C976 H964 0.959 . S
C976 C974 1.561 . S
C977 C974 1.526 . S
C977 C978 1.396 . S
C977 C982 1.390 . S
C978 C972 1.465 . S
C978 C977 1.396 . S
C978 C979 1.399 . S
C979 H965 0.929 . S
C979 C978 1.399 . S
C979 C980 1.385 . S
C980 H966 0.931 . S
C980 C979 1.385 . S
C980 C981 1.389 . S
C981 C980 1.389 . S
C981 C982 1.387 . S
C982 H967 0.930 . S
C982 C977 1.390 . S
C982 C981 1.387 . S
H983 C995 0.930 . S
H984 C997 0.930 . S
H985 C998 0.930 . S
H986 C1002 0.959 . S
H987 C1002 0.959 . S
H988 C1002 0.961 . S
H989 C1003 0.960 . S
H990 C1003 0.961 . S
H991 C1003 0.959 . S
H992 C1006 0.929 . S
H993 C1007 0.931 . S
H994 C1009 0.930 . S
C995 H983 0.930 . S
C995 C996 1.399 . S
C995 C1000 1.399 . S
C996 C995 1.399 . S
C996 C997 1.376 . S
C997 H984 0.930 . S
C997 C996 1.376 . S
C997 C998 1.388 . S
C998 H985 0.930 . S
C998 C997 1.388 . S
C998 C999 1.390 . S
C999 C998 1.390 . S
C999 C1000 1.394 . S
C999 C1005 1.465 . S
C1000 C995 1.399 . S
C1000 C999 1.394 . S
C1000 C1001 1.516 . S
C1001 C1000 1.516 . S
C1001 C1002 1.502 . S
C1001 C1003 1.561 . S
C1001 C1004 1.526 . S
C1002 H986 0.959 . S
C1002 H987 0.959 . S
C1002 H988 0.961 . S
C1002 C1001 1.502 . S
C1003 H989 0.960 . S
C1003 H990 0.961 . S
C1003 H991 0.959 . S
C1003 C1001 1.561 . S
C1004 C1001 1.526 . S
C1004 C1005 1.396 . S
C1004 C1009 1.390 . S
C1005 C999 1.465 . S
C1005 C1004 1.396 . S
C1005 C1006 1.399 . S
C1006 H992 0.929 . S
C1006 C1005 1.399 . S
C1006 C1007 1.385 . S
C1007 H993 0.931 . S
C1007 C1006 1.385 . S
C1007 C1008 1.389 . S
C1008 C1007 1.389 . S
C1008 C1009 1.387 . S
C1009 H994 0.930 . S
C1009 C1004 1.390 . S
C1009 C1008 1.387 . S
H1010 C1022 0.930 . S
H1011 C1024 0.930 . S
H1012 C1025 0.930 . S
H1013 C1029 0.962 . S
H1014 C1029 0.978 . S
H1015 C1029 0.940 1_556 S
H1016 C1030 0.958 1_556 S
H1017 C1030 0.963 . S
H1018 C1030 0.959 . S
H1019 C1033 0.929 . S
H1020 C1034 0.931 . S
H1021 C1036 0.930 . S
C1022 H1010 0.930 . S
C1022 C1023 1.399 . S
C1022 C1027 1.399 . S
C1023 C1022 1.399 . S
C1023 C1024 1.376 . S
C1024 H1011 0.930 . S
C1024 C1023 1.376 . S
C1024 C1025 1.388 . S
C1025 H1012 0.930 . S
C1025 C1024 1.388 . S
C1025 C1026 1.390 . S
C1026 C1025 1.390 . S
C1026 C1027 1.394 . S
C1026 C1032 1.465 1_556 S
C1027 C1022 1.399 . S
C1027 C1026 1.394 . S
C1027 C1028 1.517 1_556 S
C1028 C1027 1.517 1_554 S
C1028 C1029 1.502 . S
C1028 C1030 1.561 . S
C1028 C1031 1.524 . S
C1029 H1013 0.962 . S
C1029 H1014 0.978 . S
C1029 H1015 0.940 1_554 S
C1029 C1028 1.502 . S
C1030 H1016 0.958 1_554 S
C1030 H1017 0.963 . S
C1030 H1018 0.959 . S
C1030 C1028 1.561 . S
C1031 C1028 1.524 . S
C1031 C1032 1.396 . S
C1031 C1036 1.390 . S
C1032 C1026 1.465 1_554 S
C1032 C1031 1.396 . S
C1032 C1033 1.399 . S
C1033 H1019 0.929 . S
C1033 C1032 1.399 . S
C1033 C1034 1.385 . S
C1034 H1020 0.931 . S
C1034 C1033 1.385 . S
C1034 C1035 1.389 . S
C1035 C1034 1.389 . S
C1035 C1036 1.387 . S
C1036 H1021 0.930 . S
C1036 C1031 1.390 . S
C1036 C1035 1.387 . S
H1037 C1049 0.930 . S
H1038 C1051 0.930 . S
H1039 C1052 0.930 . S
H1040 C1056 0.962 . S
H1041 C1056 0.978 . S
H1042 C1056 0.940 1_554 S
H1043 C1057 0.958 1_554 S
H1044 C1057 0.963 . S
H1045 C1057 0.959 . S
H1046 C1060 0.929 . S
H1047 C1061 0.931 . S
H1048 C1063 0.930 . S
C1049 H1037 0.930 . S
C1049 C1050 1.399 . S
C1049 C1054 1.399 . S
C1050 C1049 1.399 . S
C1050 C1051 1.376 . S
C1051 H1038 0.930 . S
C1051 C1050 1.376 . S
C1051 C1052 1.388 . S
C1052 H1039 0.930 . S
C1052 C1051 1.388 . S
C1052 C1053 1.390 . S
C1053 C1052 1.390 . S
C1053 C1054 1.394 . S
C1053 C1059 1.465 1_554 S
C1054 C1049 1.399 . S
C1054 C1053 1.394 . S
C1054 C1055 1.517 1_554 S
C1055 C1054 1.517 1_556 S
C1055 C1056 1.502 . S
C1055 C1057 1.561 . S
C1055 C1058 1.524 . S
C1056 H1040 0.962 . S
C1056 H1041 0.978 . S
C1056 H1042 0.940 1_556 S
C1056 C1055 1.502 . S
C1057 H1043 0.958 1_556 S
C1057 H1044 0.963 . S
C1057 H1045 0.959 . S
C1057 C1055 1.561 . S
C1058 C1055 1.524 . S
C1058 C1059 1.396 . S
C1058 C1063 1.390 . S
C1059 C1053 1.465 1_556 S
C1059 C1058 1.396 . S
C1059 C1060 1.399 . S
C1060 H1046 0.929 . S
C1060 C1059 1.399 . S
C1060 C1061 1.385 . S
C1061 H1047 0.931 . S
C1061 C1060 1.385 . S
C1061 C1062 1.389 . S
C1062 C1061 1.389 . S
C1062 C1063 1.387 . S
C1063 H1048 0.930 . S
C1063 C1058 1.390 . S
C1063 C1062 1.387 . S
H1064 C1076 0.930 . S
H1065 C1078 0.930 . S
H1066 C1079 0.930 . S
H1067 C1083 0.959 . S
H1068 C1083 0.959 . S
H1069 C1083 0.961 . S
H1070 C1084 0.960 1_565 S
H1071 C1084 0.961 . S
H1072 C1084 0.959 1_565 S
H1073 C1087 0.929 . S
H1074 C1088 0.931 . S
H1075 C1090 0.930 . S
C1076 H1064 0.930 . S
C1076 C1077 1.399 . S
C1076 C1081 1.399 . S
C1077 C1076 1.399 . S
C1077 C1078 1.376 . S
C1078 H1065 0.930 . S
C1078 C1077 1.376 . S
C1078 C1079 1.388 . S
C1079 H1066 0.930 . S
C1079 C1078 1.388 . S
C1079 C1080 1.390 . S
C1080 C1079 1.390 . S
C1080 C1081 1.394 . S
C1080 C1086 1.465 . S
C1081 C1076 1.399 . S
C1081 C1080 1.394 . S
C1081 C1082 1.516 1_565 S
C1082 C1081 1.516 1_545 S
C1082 C1083 1.502 . S
C1082 C1084 1.561 . S
C1082 C1085 1.526 . S
C1083 H1067 0.959 . S
C1083 H1068 0.959 . S
C1083 H1069 0.961 . S
C1083 C1082 1.502 . S
C1084 H1070 0.960 1_545 S
C1084 H1071 0.961 . S
C1084 H1072 0.959 1_545 S
C1084 C1082 1.561 . S
C1085 C1082 1.526 . S
C1085 C1086 1.396 1_545 S
C1085 C1090 1.390 . S
C1086 C1080 1.465 . S
C1086 C1085 1.396 1_565 S
C1086 C1087 1.399 . S
C1087 H1073 0.929 . S
C1087 C1086 1.399 . S
C1087 C1088 1.385 1_565 S
C1088 H1074 0.931 . S
C1088 C1087 1.385 1_545 S
C1088 C1089 1.389 . S
C1089 C1088 1.389 . S
C1089 C1090 1.387 . S
C1090 H1075 0.930 . S
C1090 C1085 1.390 . S
C1090 C1089 1.387 . S
H1091 C1103 0.930 . S
H1092 C1105 0.930 . S
H1093 C1106 0.930 . S
H1094 C1110 0.959 . S
H1095 C1110 0.959 . S
H1096 C1110 0.961 . S
H1097 C1111 0.960 . S
H1098 C1111 0.961 . S
H1099 C1111 0.959 . S
H1100 C1114 0.929 . S
H1101 C1115 0.931 . S
H1102 C1117 0.930 . S
C1103 H1091 0.930 . S
C1103 C1104 1.399 . S
C1103 C1108 1.399 . S
C1104 C1103 1.399 . S
C1104 C1105 1.376 . S
C1105 H1092 0.930 . S
C1105 C1104 1.376 . S
C1105 C1106 1.388 . S
C1106 H1093 0.930 . S
C1106 C1105 1.388 . S
C1106 C1107 1.390 . S
C1107 C1106 1.390 . S
C1107 C1108 1.394 . S
C1107 C1113 1.465 1_565 S
C1108 C1103 1.399 . S
C1108 C1107 1.394 . S
C1108 C1109 1.516 . S
C1109 C1108 1.516 . S
C1109 C1110 1.502 1_565 S
C1109 C1111 1.561 . S
C1109 C1112 1.526 1_565 S
C1110 H1094 0.959 . S
C1110 H1095 0.959 . S
C1110 H1096 0.961 . S
C1110 C1109 1.502 1_545 S
C1111 H1097 0.960 . S
C1111 H1098 0.961 . S
C1111 H1099 0.959 . S
C1111 C1109 1.561 . S
C1112 C1109 1.526 1_545 S
C1112 C1113 1.396 . S
C1112 C1117 1.390 . S
C1113 C1107 1.465 1_545 S
C1113 C1112 1.396 . S
C1113 C1114 1.399 . S
C1114 H1100 0.929 . S
C1114 C1113 1.399 . S
C1114 C1115 1.385 . S
C1115 H1101 0.931 . S
C1115 C1114 1.385 . S
C1115 C1116 1.389 . S
C1116 C1115 1.389 . S
C1116 C1117 1.387 . S
C1117 H1102 0.930 . S
C1117 C1112 1.390 . S
C1117 C1116 1.387 . S
H1118 C1130 0.930 . S
H1119 C1132 0.926 1_545 S
H1120 C1133 0.930 . S
H1121 C1137 0.959 . S
H1122 C1137 0.959 . S
H1123 C1137 0.961 . S
H1124 C1138 0.960 . S
H1125 C1138 0.961 . S
H1126 C1138 0.959 . S
H1127 C1141 0.929 . S
H1128 C1142 0.931 . S
H1129 C1144 0.930 1_565 S
C1130 H1118 0.930 . S
C1130 C1131 1.399 . S
C1130 C1135 1.399 . S
C1131 C1130 1.399 . S
C1131 C1132 1.387 . S
C1132 H1119 0.926 1_565 S
C1132 C1131 1.387 . S
C1132 C1133 1.382 1_565 S
C1133 H1120 0.930 . S
C1133 C1132 1.382 1_545 S
C1133 C1134 1.390 . S
C1134 C1133 1.390 . S
C1134 C1135 1.394 1_545 S
C1134 C1140 1.465 . S
C1135 C1130 1.399 . S
C1135 C1134 1.394 1_565 S
C1135 C1136 1.516 . S
C1136 C1135 1.516 . S
C1136 C1137 1.502 . S
C1136 C1138 1.561 . S
C1136 C1139 1.526 . S
C1137 H1121 0.959 . S
C1137 H1122 0.959 . S
C1137 H1123 0.961 . S
C1137 C1136 1.502 . S
C1138 H1124 0.960 . S
C1138 H1125 0.961 . S
C1138 H1126 0.959 . S
C1138 C1136 1.561 . S
C1139 C1136 1.526 . S
C1139 C1140 1.396 1_565 S
C1139 C1144 1.390 1_565 S
C1140 C1134 1.465 . S
C1140 C1139 1.396 1_545 S
C1140 C1141 1.399 . S
C1141 H1127 0.929 . S
C1141 C1140 1.399 . S
C1141 C1142 1.385 . S
C1142 H1128 0.931 . S
C1142 C1141 1.385 . S
C1142 C1143 1.389 . S
C1143 C1142 1.389 . S
C1143 C1144 1.387 . S
C1144 H1129 0.930 1_545 S
C1144 C1139 1.390 1_545 S
C1144 C1143 1.387 . S
H1145 C1157 0.930 . S
H1146 C1159 0.930 . S
H1147 C1160 0.930 . S
H1148 C1164 0.959 . S
H1149 C1164 0.959 . S
H1150 C1164 0.961 . S
H1151 C1165 0.960 . S
H1152 C1165 0.961 . S
H1153 C1165 0.959 . S
H1154 C1168 0.929 1_545 S
H1155 C1169 0.931 . S
H1156 C1171 0.930 . S
C1157 H1145 0.930 . S
C1157 C1158 1.399 . S
C1157 C1162 1.399 . S
C1158 C1157 1.399 . S
C1158 C1159 1.376 . S
C1159 H1146 0.930 . S
C1159 C1158 1.376 . S
C1159 C1160 1.388 . S
C1160 H1147 0.930 . S
C1160 C1159 1.388 . S
C1160 C1161 1.390 . S
C1161 C1160 1.390 . S
C1161 C1162 1.394 . S
C1161 C1167 1.465 1_545 S
C1162 C1157 1.399 . S
C1162 C1161 1.394 . S
C1162 C1163 1.516 1_545 S
C1163 C1162 1.516 1_565 S
C1163 C1164 1.502 . S
C1163 C1165 1.561 1_565 S
C1163 C1166 1.526 . S
C1164 H1148 0.959 . S
C1164 H1149 0.959 . S
C1164 H1150 0.961 . S
C1164 C1163 1.502 . S
C1165 H1151 0.960 . S
C1165 H1152 0.961 . S
C1165 H1153 0.959 . S
C1165 C1163 1.561 1_545 S
C1166 C1163 1.526 . S
C1166 C1167 1.396 . S
C1166 C1171 1.390 . S
C1167 C1161 1.465 1_565 S
C1167 C1166 1.396 . S
C1167 C1168 1.399 . S
C1168 H1154 0.929 1_565 S
C1168 C1167 1.399 . S
C1168 C1169 1.385 . S
C1169 H1155 0.931 . S
C1169 C1168 1.385 . S
C1169 C1170 1.389 . S
C1170 C1169 1.389 . S
C1170 C1171 1.387 . S
C1171 H1156 0.930 . S
C1171 C1166 1.390 . S
C1171 C1170 1.387 . S
H1172 C1184 0.930 . S
H1173 C1186 0.930 . S
H1174 C1187 0.930 . S
H1175 C1191 0.959 . S
H1176 C1191 0.959 . S
H1177 C1191 0.961 1_655 S
H1178 C1192 0.960 . S
H1179 C1192 0.961 1_455 S
H1180 C1192 0.959 . S
H1181 C1195 0.929 . S
H1182 C1196 0.931 . S
H1183 C1198 0.930 . S
C1184 H1172 0.930 . S
C1184 C1185 1.399 . S
C1184 C1189 1.399 . S
C1185 C1184 1.399 . S
C1185 C1186 1.376 . S
C1186 H1173 0.930 . S
C1186 C1185 1.376 . S
C1186 C1187 1.388 . S
C1187 H1174 0.930 . S
C1187 C1186 1.388 . S
C1187 C1188 1.390 . S
C1188 C1187 1.390 . S
C1188 C1189 1.394 . S
C1188 C1194 1.465 1_655 S
C1189 C1184 1.399 . S
C1189 C1188 1.394 . S
C1189 C1190 1.516 . S
C1190 C1189 1.516 . S
C1190 C1191 1.502 1_655 S
C1190 C1192 1.561 . S
C1190 C1193 1.526 1_655 S
C1191 H1175 0.959 . S
C1191 H1176 0.959 . S
C1191 H1177 0.961 1_455 S
C1191 C1190 1.502 1_455 S
C1192 H1178 0.960 . S
C1192 H1179 0.961 1_655 S
C1192 H1180 0.959 . S
C1192 C1190 1.561 . S
C1193 C1190 1.526 1_455 S
C1193 C1194 1.396 . S
C1193 C1198 1.390 . S
C1194 C1188 1.465 1_455 S
C1194 C1193 1.396 . S
C1194 C1195 1.399 . S
C1195 H1181 0.929 . S
C1195 C1194 1.399 . S
C1195 C1196 1.385 . S
C1196 H1182 0.931 . S
C1196 C1195 1.385 . S
C1196 C1197 1.389 . S
C1197 C1196 1.389 . S
C1197 C1198 1.387 . S
C1198 H1183 0.930 . S
C1198 C1193 1.390 . S
C1198 C1197 1.387 . S
H1199 C1211 0.930 . S
H1200 C1213 0.930 . S
H1201 C1214 0.930 . S
H1202 C1218 0.959 . S
H1203 C1218 0.959 . S
H1204 C1218 0.961 . S
H1205 C1219 0.912 1_455 S
H1206 C1219 0.996 . S
H1207 C1219 0.985 . S
H1208 C1222 0.929 . S
H1209 C1223 0.931 . S
H1210 C1225 0.930 . S
C1211 H1199 0.930 . S
C1211 C1212 1.399 . S
C1211 C1216 1.399 . S
C1212 C1211 1.399 . S
C1212 C1213 1.376 . S
C1213 H1200 0.930 . S
C1213 C1212 1.376 . S
C1213 C1214 1.388 . S
C1214 H1201 0.930 . S
C1214 C1213 1.388 . S
C1214 C1215 1.390 . S
C1215 C1214 1.390 . S
C1215 C1216 1.394 . S
C1215 C1221 1.465 1_455 S
C1216 C1211 1.399 . S
C1216 C1215 1.394 . S
C1216 C1217 1.516 . S
C1217 C1216 1.516 . S
C1217 C1218 1.502 . S
C1217 C1219 1.551 1_455 S
C1217 C1220 1.526 1_455 S
C1218 H1202 0.959 . S
C1218 H1203 0.959 . S
C1218 H1204 0.961 . S
C1218 C1217 1.502 . S
C1219 H1205 0.912 1_655 S
C1219 H1206 0.996 . S
C1219 H1207 0.985 . S
C1219 C1217 1.551 1_655 S
C1220 C1217 1.526 1_655 S
C1220 C1221 1.396 . S
C1220 C1225 1.390 . S
C1221 C1215 1.465 1_655 S
C1221 C1220 1.396 . S
C1221 C1222 1.399 . S
C1222 H1208 0.929 . S
C1222 C1221 1.399 . S
C1222 C1223 1.385 . S
C1223 H1209 0.931 . S
C1223 C1222 1.385 . S
C1223 C1224 1.389 . S
C1224 C1223 1.389 . S
C1224 C1225 1.387 . S
C1225 H1210 0.930 . S
C1225 C1220 1.390 . S
C1225 C1224 1.387 . S
H1226 C1238 0.930 . S
H1227 C1240 0.930 . S
H1228 C1241 0.930 . S
H1229 C1245 0.959 . S
H1230 C1245 0.959 . S
H1231 C1245 0.961 1_655 S
H1232 C1246 0.960 . S
H1233 C1246 0.961 1_455 S
H1234 C1246 0.959 . S
H1235 C1249 0.929 . S
H1236 C1250 0.931 . S
H1237 C1252 0.930 . S
C1238 H1226 0.930 . S
C1238 C1239 1.399 . S
C1238 C1243 1.399 . S
C1239 C1238 1.399 . S
C1239 C1240 1.376 . S
C1240 H1227 0.930 . S
C1240 C1239 1.376 . S
C1240 C1241 1.388 . S
C1241 H1228 0.930 . S
C1241 C1240 1.388 . S
C1241 C1242 1.390 . S
C1242 C1241 1.390 . S
C1242 C1243 1.394 . S
C1242 C1248 1.465 1_655 S
C1243 C1238 1.399 . S
C1243 C1242 1.394 . S
C1243 C1244 1.516 1_655 S
C1244 C1243 1.516 1_455 S
C1244 C1245 1.502 . S
C1244 C1246 1.561 1_455 S
C1244 C1247 1.526 . S
C1245 H1229 0.959 . S
C1245 H1230 0.959 . S
C1245 H1231 0.961 1_455 S
C1245 C1244 1.502 . S
C1246 H1232 0.960 . S
C1246 H1233 0.961 1_655 S
C1246 H1234 0.959 . S
C1246 C1244 1.561 1_655 S
C1247 C1244 1.526 . S
C1247 C1248 1.396 . S
C1247 C1252 1.390 . S
C1248 C1242 1.465 1_455 S
C1248 C1247 1.396 . S
C1248 C1249 1.399 . S
C1249 H1235 0.929 . S
C1249 C1248 1.399 . S
C1249 C1250 1.385 . S
C1250 H1236 0.931 . S
C1250 C1249 1.385 . S
C1250 C1251 1.389 . S
C1251 C1250 1.389 . S
C1251 C1252 1.387 . S
C1252 H1237 0.930 . S
C1252 C1247 1.390 . S
C1252 C1251 1.387 . S
H1253 C1265 0.930 . S
H1254 C1267 0.930 . S
H1255 C1268 0.930 . S
H1256 C1272 0.959 . S
H1257 C1272 0.959 . S
H1258 C1272 0.951 1_455 S
H1259 C1273 0.960 . S
H1260 C1273 0.961 1_655 S
H1261 C1273 0.959 . S
H1262 C1276 0.929 . S
H1263 C1277 0.931 . S
H1264 C1279 0.930 . S
C1265 H1253 0.930 . S
C1265 C1266 1.399 . S
C1265 C1270 1.399 . S
C1266 C1265 1.399 . S
C1266 C1267 1.376 . S
C1267 H1254 0.930 . S
C1267 C1266 1.376 . S
C1267 C1268 1.388 . S
C1268 H1255 0.930 . S
C1268 C1267 1.388 . S
C1268 C1269 1.390 . S
C1269 C1268 1.390 . S
C1269 C1270 1.394 . S
C1269 C1275 1.465 1_455 S
C1270 C1265 1.399 . S
C1270 C1269 1.394 . S
C1270 C1271 1.516 1_455 S
C1271 C1270 1.516 1_655 S
C1271 C1272 1.502 . S
C1271 C1273 1.561 1_655 S
C1271 C1274 1.526 . S
C1272 H1256 0.959 . S
C1272 H1257 0.959 . S
C1272 H1258 0.951 1_655 S
C1272 C1271 1.502 . S
C1273 H1259 0.960 . S
C1273 H1260 0.961 1_455 S
C1273 H1261 0.959 . S
C1273 C1271 1.561 1_455 S
C1274 C1271 1.526 . S
C1274 C1275 1.396 . S
C1274 C1279 1.390 . S
C1275 C1269 1.465 1_655 S
C1275 C1274 1.396 . S
C1275 C1276 1.399 . S
C1276 H1262 0.929 . S
C1276 C1275 1.399 . S
C1276 C1277 1.385 . S
C1277 H1263 0.931 . S
C1277 C1276 1.385 . S
C1277 C1278 1.389 . S
C1278 C1277 1.389 . S
C1278 C1279 1.387 . S
C1279 H1264 0.930 . S
C1279 C1274 1.390 . S
C1279 C1278 1.387 . S
H1280 C1292 0.930 . S
H1281 C1294 0.930 . S
H1282 C1295 0.930 . S
H1283 C1299 0.959 . S
H1284 C1299 0.959 . S
H1285 C1299 0.961 . S
H1286 C1300 0.960 . S
H1287 C1300 0.961 . S
H1288 C1300 0.959 . S
H1289 C1303 0.929 . S
H1290 C1304 0.931 . S
H1291 C1306 0.930 . S
C1292 H1280 0.930 . S
C1292 C1293 1.399 . S
C1292 C1297 1.399 . S
C1293 C1292 1.399 . S
C1293 C1294 1.376 . S
C1294 H1281 0.930 . S
C1294 C1293 1.376 . S
C1294 C1295 1.388 . S
C1295 H1282 0.930 . S
C1295 C1294 1.388 . S
C1295 C1296 1.390 . S
C1296 C1295 1.390 . S
C1296 C1297 1.394 . S
C1296 C1302 1.465 . S
C1297 C1292 1.399 . S
C1297 C1296 1.394 . S
C1297 C1298 1.516 . S
C1298 C1297 1.516 . S
C1298 C1299 1.502 . S
C1298 C1300 1.561 . S
C1298 C1301 1.526 . S
C1299 H1283 0.959 . S
C1299 H1284 0.959 . S
C1299 H1285 0.961 . S
C1299 C1298 1.502 . S
C1300 H1286 0.960 . S
C1300 H1287 0.961 . S
C1300 H1288 0.959 . S
C1300 C1298 1.561 . S
C1301 C1298 1.526 . S
C1301 C1302 1.396 . S
C1301 C1306 1.390 . S
C1302 C1296 1.465 . S
C1302 C1301 1.396 . S
C1302 C1303 1.399 . S
C1303 H1289 0.929 . S
C1303 C1302 1.399 . S
C1303 C1304 1.385 . S
C1304 H1290 0.931 . S
C1304 C1303 1.385 . S
C1304 C1305 1.389 . S
C1305 C1304 1.389 . S
C1305 C1306 1.387 . S
C1306 H1291 0.930 . S
C1306 C1301 1.390 . S
C1306 C1305 1.387 . S
H1307 C1319 0.930 . S
H1308 C1321 0.930 . S
H1309 C1322 0.930 . S
H1310 C1326 0.959 . S
H1311 C1326 0.959 . S
H1312 C1326 0.961 . S
H1313 C1327 0.960 . S
H1314 C1327 0.961 . S
H1315 C1327 0.959 . S
H1316 C1330 0.929 . S
H1317 C1331 0.931 . S
H1318 C1333 0.930 . S
C1319 H1307 0.930 . S
C1319 C1320 1.399 . S
C1319 C1324 1.399 . S
C1320 C1319 1.399 . S
C1320 C1321 1.376 . S
C1321 H1308 0.930 . S
C1321 C1320 1.376 . S
C1321 C1322 1.388 . S
C1322 H1309 0.930 . S
C1322 C1321 1.388 . S
C1322 C1323 1.390 . S
C1323 C1322 1.390 . S
C1323 C1324 1.394 . S
C1323 C1329 1.465 . S
C1324 C1319 1.399 . S
C1324 C1323 1.394 . S
C1324 C1325 1.516 . S
C1325 C1324 1.516 . S
C1325 C1326 1.502 . S
C1325 C1327 1.561 . S
C1325 C1328 1.526 . S
C1326 H1310 0.959 . S
C1326 H1311 0.959 . S
C1326 H1312 0.961 . S
C1326 C1325 1.502 . S
C1327 H1313 0.960 . S
C1327 H1314 0.961 . S
C1327 H1315 0.959 . S
C1327 C1325 1.561 . S
C1328 C1325 1.526 . S
C1328 C1329 1.396 . S
C1328 C1333 1.390 . S
C1329 C1323 1.465 . S
C1329 C1328 1.396 . S
C1329 C1330 1.399 . S
C1330 H1316 0.929 . S
C1330 C1329 1.399 . S
C1330 C1331 1.385 . S
C1331 H1317 0.931 . S
C1331 C1330 1.385 . S
C1331 C1332 1.389 . S
C1332 C1331 1.389 . S
C1332 C1333 1.387 . S
C1333 H1318 0.930 . S
C1333 C1328 1.390 . S
C1333 C1332 1.387 . S
H1334 C1346 0.930 . S
H1335 C1348 0.930 . S
H1336 C1349 0.930 . S
H1337 C1353 0.959 . S
H1338 C1353 0.959 . S
H1339 C1353 0.961 . S
H1340 C1354 0.960 . S
H1341 C1354 0.961 . S
H1342 C1354 0.959 . S
H1343 C1357 0.929 . S
H1344 C1358 0.931 . S
H1345 C1360 0.930 . S
C1346 H1334 0.930 . S
C1346 C1347 1.399 . S
C1346 C1351 1.399 . S
C1347 C1346 1.399 . S
C1347 C1348 1.376 . S
C1348 H1335 0.930 . S
C1348 C1347 1.376 . S
C1348 C1349 1.388 . S
C1349 H1336 0.930 . S
C1349 C1348 1.388 . S
C1349 C1350 1.390 . S
C1350 C1349 1.390 . S
C1350 C1351 1.394 . S
C1350 C1356 1.465 . S
C1351 C1346 1.399 . S
C1351 C1350 1.394 . S
C1351 C1352 1.516 . S
C1352 C1351 1.516 . S
C1352 C1353 1.502 . S
C1352 C1354 1.561 . S
C1352 C1355 1.526 . S
C1353 H1337 0.959 . S
C1353 H1338 0.959 . S
C1353 H1339 0.961 . S
C1353 C1352 1.502 . S
C1354 H1340 0.960 . S
C1354 H1341 0.961 . S
C1354 H1342 0.959 . S
C1354 C1352 1.561 . S
C1355 C1352 1.526 . S
C1355 C1356 1.396 . S
C1355 C1360 1.390 . S
C1356 C1350 1.465 . S
C1356 C1355 1.396 . S
C1356 C1357 1.399 . S
C1357 H1343 0.929 . S
C1357 C1356 1.399 . S
C1357 C1358 1.385 . S
C1358 H1344 0.931 . S
C1358 C1357 1.385 . S
C1358 C1359 1.389 . S
C1359 C1358 1.389 . S
C1359 C1360 1.387 . S
C1360 H1345 0.930 . S
C1360 C1355 1.390 . S
C1360 C1359 1.387 . S
H1361 C1373 0.930 . S
H1362 C1375 0.930 . S
H1363 C1376 0.930 . S
H1364 C1380 0.959 . S
H1365 C1380 0.959 . S
H1366 C1380 0.961 . S
H1367 C1381 0.960 . S
H1368 C1381 0.961 . S
H1369 C1381 0.959 . S
H1370 C1384 0.929 . S
H1371 C1385 0.931 . S
H1372 C1387 0.930 . S
C1373 H1361 0.930 . S
C1373 C1374 1.399 . S
C1373 C1378 1.399 . S
C1374 C1373 1.399 . S
C1374 C1375 1.376 . S
C1375 H1362 0.930 . S
C1375 C1374 1.376 . S
C1375 C1376 1.388 . S
C1376 H1363 0.930 . S
C1376 C1375 1.388 . S
C1376 C1377 1.390 . S
C1377 C1376 1.390 . S
C1377 C1378 1.394 . S
C1377 C1383 1.465 . S
C1378 C1373 1.399 . S
C1378 C1377 1.394 . S
C1378 C1379 1.516 . S
C1379 C1378 1.516 . S
C1379 C1380 1.502 . S
C1379 C1381 1.561 . S
C1379 C1382 1.526 . S
C1380 H1364 0.959 . S
C1380 H1365 0.959 . S
C1380 H1366 0.961 . S
C1380 C1379 1.502 . S
C1381 H1367 0.960 . S
C1381 H1368 0.961 . S
C1381 H1369 0.959 . S
C1381 C1379 1.561 . S
C1382 C1379 1.526 . S
C1382 C1383 1.396 . S
C1382 C1387 1.390 . S
C1383 C1377 1.465 . S
C1383 C1382 1.396 . S
C1383 C1384 1.399 . S
C1384 H1370 0.929 . S
C1384 C1383 1.399 . S
C1384 C1385 1.385 . S
C1385 H1371 0.931 . S
C1385 C1384 1.385 . S
C1385 C1386 1.389 . S
C1386 C1385 1.389 . S
C1386 C1387 1.387 . S
C1387 H1372 0.930 . S
C1387 C1382 1.390 . S
C1387 C1386 1.387 . S
H1388 C1400 0.930 . S
H1389 C1402 0.930 . S
H1390 C1403 0.930 . S
H1391 C1407 0.959 . S
H1392 C1407 0.959 . S
H1393 C1407 0.961 . S
H1394 C1408 0.960 . S
H1395 C1408 0.961 . S
H1396 C1408 0.959 . S
H1397 C1411 0.929 . S
H1398 C1412 0.931 . S
H1399 C1414 0.930 . S
C1400 H1388 0.930 . S
C1400 C1401 1.399 . S
C1400 C1405 1.399 . S
C1401 C1400 1.399 . S
C1401 C1402 1.376 . S
C1402 H1389 0.930 . S
C1402 C1401 1.376 . S
C1402 C1403 1.388 . S
C1403 H1390 0.930 . S
C1403 C1402 1.388 . S
C1403 C1404 1.390 . S
C1404 C1403 1.390 . S
C1404 C1405 1.394 . S
C1404 C1410 1.465 . S
C1405 C1400 1.399 . S
C1405 C1404 1.394 . S
C1405 C1406 1.516 . S
C1406 C1405 1.516 . S
C1406 C1407 1.502 . S
C1406 C1408 1.561 . S
C1406 C1409 1.526 . S
C1407 H1391 0.959 . S
C1407 H1392 0.959 . S
C1407 H1393 0.961 . S
C1407 C1406 1.502 . S
C1408 H1394 0.960 . S
C1408 H1395 0.961 . S
C1408 H1396 0.959 . S
C1408 C1406 1.561 . S
C1409 C1406 1.526 . S
C1409 C1410 1.396 . S
C1409 C1414 1.390 . S
C1410 C1404 1.465 . S
C1410 C1409 1.396 . S
C1410 C1411 1.399 . S
C1411 H1397 0.929 . S
C1411 C1410 1.399 . S
C1411 C1412 1.385 . S
C1412 H1398 0.931 . S
C1412 C1411 1.385 . S
C1412 C1413 1.389 . S
C1413 C1412 1.389 . S
C1413 C1414 1.387 . S
C1414 H1399 0.930 . S
C1414 C1409 1.390 . S
C1414 C1413 1.387 . S
H1415 C1427 0.930 . S
H1416 C1429 0.930 . S
H1417 C1430 0.930 . S
H1418 C1434 0.959 . S
H1419 C1434 0.959 . S
H1420 C1434 0.961 . S
H1421 C1435 0.960 . S
H1422 C1435 0.961 . S
H1423 C1435 0.959 . S
H1424 C1438 0.929 . S
H1425 C1439 0.931 . S
H1426 C1441 0.930 . S
C1427 H1415 0.930 . S
C1427 C1428 1.399 . S
C1427 C1432 1.399 . S
C1428 C1427 1.399 . S
C1428 C1429 1.376 . S
C1429 H1416 0.930 . S
C1429 C1428 1.376 . S
C1429 C1430 1.388 . S
C1430 H1417 0.930 . S
C1430 C1429 1.388 . S
C1430 C1431 1.390 . S
C1431 C1430 1.390 . S
C1431 C1432 1.394 . S
C1431 C1437 1.465 . S
C1432 C1427 1.399 . S
C1432 C1431 1.394 . S
C1432 C1433 1.516 . S
C1433 C1432 1.516 . S
C1433 C1434 1.502 . S
C1433 C1435 1.561 . S
C1433 C1436 1.526 . S
C1434 H1418 0.959 . S
C1434 H1419 0.959 . S
C1434 H1420 0.961 . S
C1434 C1433 1.502 . S
C1435 H1421 0.960 . S
C1435 H1422 0.961 . S
C1435 H1423 0.959 . S
C1435 C1433 1.561 . S
C1436 C1433 1.526 . S
C1436 C1437 1.396 . S
C1436 C1441 1.390 . S
C1437 C1431 1.465 . S
C1437 C1436 1.396 . S
C1437 C1438 1.399 . S
C1438 H1424 0.929 . S
C1438 C1437 1.399 . S
C1438 C1439 1.385 . S
C1439 H1425 0.931 . S
C1439 C1438 1.385 . S
C1439 C1440 1.389 . S
C1440 C1439 1.389 . S
C1440 C1441 1.387 . S
C1441 H1426 0.930 . S
C1441 C1436 1.390 . S
C1441 C1440 1.387 . S
H1442 C1454 0.930 . S
H1443 C1456 0.930 . S
H1444 C1457 0.930 . S
H1445 C1461 0.959 . S
H1446 C1461 0.959 . S
H1447 C1461 0.961 . S
H1448 C1462 0.960 . S
H1449 C1462 0.961 . S
H1450 C1462 0.959 . S
H1451 C1465 0.929 . S
H1452 C1466 0.931 . S
H1453 C1468 0.930 . S
C1454 H1442 0.930 . S
C1454 C1455 1.399 . S
C1454 C1459 1.399 . S
C1455 C1454 1.399 . S
C1455 C1456 1.376 . S
C1456 H1443 0.930 . S
C1456 C1455 1.376 . S
C1456 C1457 1.388 . S
C1457 H1444 0.930 . S
C1457 C1456 1.388 . S
C1457 C1458 1.390 . S
C1458 C1457 1.390 . S
C1458 C1459 1.394 . S
C1458 C1464 1.465 . S
C1459 C1454 1.399 . S
C1459 C1458 1.394 . S
C1459 C1460 1.516 . S
C1460 C1459 1.516 . S
C1460 C1461 1.502 . S
C1460 C1462 1.561 . S
C1460 C1463 1.526 . S
C1461 H1445 0.959 . S
C1461 H1446 0.959 . S
C1461 H1447 0.961 . S
C1461 C1460 1.502 . S
C1462 H1448 0.960 . S
C1462 H1449 0.961 . S
C1462 H1450 0.959 . S
C1462 C1460 1.561 . S
C1463 C1460 1.526 . S
C1463 C1464 1.396 . S
C1463 C1468 1.390 . S
C1464 C1458 1.465 . S
C1464 C1463 1.396 . S
C1464 C1465 1.399 . S
C1465 H1451 0.929 . S
C1465 C1464 1.399 . S
C1465 C1466 1.385 . S
C1466 H1452 0.931 . S
C1466 C1465 1.385 . S
C1466 C1467 1.389 . S
C1467 C1466 1.389 . S
C1467 C1468 1.387 . S
C1468 H1453 0.930 . S
C1468 C1463 1.390 . S
C1468 C1467 1.387 . S
H1469 C1481 0.930 . S
H1470 C1483 0.930 . S
H1471 C1484 0.930 . S
H1472 C1488 0.959 . S
H1473 C1488 0.959 . S
H1474 C1488 0.961 . S
H1475 C1489 0.960 . S
H1476 C1489 0.961 . S
H1477 C1489 0.959 . S
H1478 C1492 0.929 . S
H1479 C1493 0.931 . S
H1480 C1495 0.930 . S
C1481 H1469 0.930 . S
C1481 C1482 1.399 . S
C1481 C1486 1.399 . S
C1482 C1481 1.399 . S
C1482 C1483 1.376 . S
C1483 H1470 0.930 . S
C1483 C1482 1.376 . S
C1483 C1484 1.388 . S
C1484 H1471 0.930 . S
C1484 C1483 1.388 . S
C1484 C1485 1.390 . S
C1485 C1484 1.390 . S
C1485 C1486 1.394 . S
C1485 C1491 1.465 . S
C1486 C1481 1.399 . S
C1486 C1485 1.394 . S
C1486 C1487 1.516 . S
C1487 C1486 1.516 . S
C1487 C1488 1.502 . S
C1487 C1489 1.561 . S
C1487 C1490 1.526 . S
C1488 H1472 0.959 . S
C1488 H1473 0.959 . S
C1488 H1474 0.961 . S
C1488 C1487 1.502 . S
C1489 H1475 0.960 . S
C1489 H1476 0.961 . S
C1489 H1477 0.959 . S
C1489 C1487 1.561 . S
C1490 C1487 1.526 . S
C1490 C1491 1.396 . S
C1490 C1495 1.390 . S
C1491 C1485 1.465 . S
C1491 C1490 1.396 . S
C1491 C1492 1.399 . S
C1492 H1478 0.929 . S
C1492 C1491 1.399 . S
C1492 C1493 1.385 . S
C1493 H1479 0.931 . S
C1493 C1492 1.385 . S
C1493 C1494 1.389 . S
C1494 C1493 1.389 . S
C1494 C1495 1.387 . S
C1495 H1480 0.930 . S
C1495 C1490 1.390 . S
C1495 C1494 1.387 . S
H1496 C1508 0.930 . S
H1497 C1510 0.930 . S
H1498 C1511 0.943 . S
H1499 C1515 0.959 . S
H1500 C1515 0.959 . S
H1501 C1515 0.961 . S
H1502 C1516 0.960 . S
H1503 C1516 0.961 . S
H1504 C1516 0.959 . S
H1505 C1519 0.929 . S
H1506 C1520 0.931 . S
H1507 C1522 0.930 . S
C1508 H1496 0.930 . S
C1508 C1509 1.399 . S
C1508 C1513 1.399 . S
C1509 C1508 1.399 . S
C1509 C1510 1.376 . S
C1510 H1497 0.930 . S
C1510 C1509 1.376 . S
C1510 C1511 1.376 1_545 S
C1511 H1498 0.943 . S
C1511 C1510 1.376 1_565 S
C1511 C1512 1.389 1_565 S
C1512 C1511 1.389 1_545 S
C1512 C1513 1.394 . S
C1512 C1518 1.465 1_545 S
C1513 C1508 1.399 . S
C1513 C1512 1.394 . S
C1513 C1514 1.516 . S
C1514 C1513 1.516 . S
C1514 C1515 1.502 . S
C1514 C1516 1.561 . S
C1514 C1517 1.526 1_545 S
C1515 H1499 0.959 . S
C1515 H1500 0.959 . S
C1515 H1501 0.961 . S
C1515 C1514 1.502 . S
C1516 H1502 0.960 . S
C1516 H1503 0.961 . S
C1516 H1504 0.959 . S
C1516 C1514 1.561 . S
C1517 C1514 1.526 1_565 S
C1517 C1518 1.396 . S
C1517 C1522 1.390 . S
C1518 C1512 1.465 1_565 S
C1518 C1517 1.396 . S
C1518 C1519 1.399 . S
C1519 H1505 0.929 . S
C1519 C1518 1.399 . S
C1519 C1520 1.385 . S
C1520 H1506 0.931 . S
C1520 C1519 1.385 . S
C1520 C1521 1.389 . S
C1521 C1520 1.389 . S
C1521 C1522 1.387 . S
C1522 H1507 0.930 . S
C1522 C1517 1.390 . S
C1522 C1521 1.387 . S
H1523 C1535 0.930 . S
H1524 C1537 0.930 . S
H1525 C1538 0.953 . S
H1526 C1542 0.959 . S
H1527 C1542 0.959 . S
H1528 C1542 0.961 . S
H1529 C1543 0.960 . S
H1530 C1543 0.961 . S
H1531 C1543 0.959 . S
H1532 C1546 0.929 . S
H1533 C1547 0.931 . S
H1534 C1549 0.930 . S
C1535 H1523 0.930 . S
C1535 C1536 1.399 . S
C1535 C1540 1.399 . S
C1536 C1535 1.399 . S
C1536 C1537 1.376 . S
C1537 H1524 0.930 . S
C1537 C1536 1.376 . S
C1537 C1538 1.367 1_545 S
C1538 H1525 0.953 . S
C1538 C1537 1.367 1_565 S
C1538 C1539 1.388 1_565 S
C1539 C1538 1.388 1_545 S
C1539 C1540 1.394 . S
C1539 C1545 1.465 1_545 S
C1540 C1535 1.399 . S
C1540 C1539 1.394 . S
C1540 C1541 1.516 . S
C1541 C1540 1.516 . S
C1541 C1542 1.502 . S
C1541 C1543 1.561 . S
C1541 C1544 1.526 1_545 S
C1542 H1526 0.959 . S
C1542 H1527 0.959 . S
C1542 H1528 0.961 . S
C1542 C1541 1.502 . S
C1543 H1529 0.960 . S
C1543 H1530 0.961 . S
C1543 H1531 0.959 . S
C1543 C1541 1.561 . S
C1544 C1541 1.526 1_565 S
C1544 C1545 1.396 . S
C1544 C1549 1.390 . S
C1545 C1539 1.465 1_565 S
C1545 C1544 1.396 . S
C1545 C1546 1.399 . S
C1546 H1532 0.929 . S
C1546 C1545 1.399 . S
C1546 C1547 1.385 . S
C1547 H1533 0.931 . S
C1547 C1546 1.385 . S
C1547 C1548 1.389 . S
C1548 C1547 1.389 . S
C1548 C1549 1.387 . S
C1549 H1534 0.930 . S
C1549 C1544 1.390 . S
C1549 C1548 1.387 . S
H1550 C1562 0.930 . S
H1551 C1564 0.930 . S
H1552 C1565 0.930 . S
H1553 C1569 0.959 . S
H1554 C1569 0.959 . S
H1555 C1569 0.961 . S
H1556 C1570 0.960 . S
H1557 C1570 0.961 . S
H1558 C1570 0.959 . S
H1559 C1573 0.929 . S
H1560 C1574 0.931 . S
H1561 C1576 0.930 . S
C1562 H1550 0.930 . S
C1562 C1563 1.399 . S
C1562 C1567 1.399 . S
C1563 C1562 1.399 . S
C1563 C1564 1.376 . S
C1564 H1551 0.930 . S
C1564 C1563 1.376 . S
C1564 C1565 1.388 . S
C1565 H1552 0.930 . S
C1565 C1564 1.388 . S
C1565 C1566 1.390 . S
C1566 C1565 1.390 . S
C1566 C1567 1.394 . S
C1566 C1572 1.451 1_545 S
C1567 C1562 1.399 . S
C1567 C1566 1.394 . S
C1567 C1568 1.516 1_545 S
C1568 C1567 1.516 1_565 S
C1568 C1569 1.502 . S
C1568 C1570 1.561 . S
C1568 C1571 1.526 . S
C1569 H1553 0.959 . S
C1569 H1554 0.959 . S
C1569 H1555 0.961 . S
C1569 C1568 1.502 . S
C1570 H1556 0.960 . S
C1570 H1557 0.961 . S
C1570 H1558 0.959 . S
C1570 C1568 1.561 . S
C1571 C1568 1.526 . S
C1571 C1572 1.415 . S
C1571 C1576 1.390 . S
C1572 C1566 1.451 1_565 S
C1572 C1571 1.415 . S
C1572 C1573 1.397 1_565 S
C1573 H1559 0.929 . S
C1573 C1572 1.397 1_545 S
C1573 C1574 1.385 1_545 S
C1574 H1560 0.931 . S
C1574 C1573 1.385 1_565 S
C1574 C1575 1.389 . S
C1575 C1574 1.389 . S
C1575 C1576 1.387 . S
C1576 H1561 0.930 . S
C1576 C1571 1.390 . S
C1576 C1575 1.387 . S
H1577 C1589 0.930 . S
H1578 C1591 0.930 . S
H1579 C1592 0.930 . S
H1580 C1596 0.959 . S
H1581 C1596 0.959 1_545 S
H1582 C1596 0.961 . S
H1583 C1597 0.960 . S
H1584 C1597 0.961 . S
H1585 C1597 0.959 . S
H1586 C1600 0.929 . S
H1587 C1601 0.931 . S
H1588 C1603 0.930 . S
C1589 H1577 0.930 . S
C1589 C1590 1.399 . S
C1589 C1594 1.399 . S
C1590 C1589 1.399 . S
C1590 C1591 1.376 . S
C1591 H1578 0.930 . S
C1591 C1590 1.376 . S
C1591 C1592 1.388 . S
C1592 H1579 0.930 . S
C1592 C1591 1.388 . S
C1592 C1593 1.390 . S
C1593 C1592 1.390 . S
C1593 C1594 1.394 . S
C1593 C1599 1.465 1_565 S
C1594 C1589 1.399 . S
C1594 C1593 1.394 . S
C1594 C1595 1.516 1_565 S
C1595 C1594 1.516 1_545 S
C1595 C1596 1.502 1_545 S
C1595 C1597 1.561 . S
C1595 C1598 1.526 . S
C1596 H1580 0.959 . S
C1596 H1581 0.959 1_565 S
C1596 H1582 0.961 . S
C1596 C1595 1.502 1_565 S
C1597 H1583 0.960 . S
C1597 H1584 0.961 . S
C1597 H1585 0.959 . S
C1597 C1595 1.561 . S
C1598 C1595 1.526 . S
C1598 C1599 1.396 . S
C1598 C1603 1.390 . S
C1599 C1593 1.465 1_545 S
C1599 C1598 1.396 . S
C1599 C1600 1.399 . S
C1600 H1586 0.929 . S
C1600 C1599 1.399 . S
C1600 C1601 1.385 . S
C1601 H1587 0.931 . S
C1601 C1600 1.385 . S
C1601 C1602 1.389 . S
C1602 C1601 1.389 . S
C1602 C1603 1.387 . S
C1603 H1588 0.930 . S
C1603 C1598 1.390 . S
C1603 C1602 1.387 . S
H1604 C1616 0.930 . S
H1605 C1618 0.930 . S
H1606 C1619 0.930 . S
H1607 C1623 0.959 . S
H1608 C1623 0.959 . S
H1609 C1623 0.961 . S
H1610 C1624 0.960 . S
H1611 C1624 0.961 . S
H1612 C1624 0.959 . S
H1613 C1627 0.929 . S
H1614 C1628 0.931 . S
H1615 C1630 0.930 . S
C1616 H1604 0.930 . S
C1616 C1617 1.399 . S
C1616 C1621 1.399 . S
C1617 C1616 1.399 . S
C1617 C1618 1.376 . S
C1618 H1605 0.930 . S
C1618 C1617 1.376 . S
C1618 C1619 1.388 . S
C1619 H1606 0.930 . S
C1619 C1618 1.388 . S
C1619 C1620 1.390 . S
C1620 C1619 1.390 . S
C1620 C1621 1.394 . S
C1620 C1626 1.465 . S
C1621 C1616 1.399 . S
C1621 C1620 1.394 . S
C1621 C1622 1.516 . S
C1622 C1621 1.516 . S
C1622 C1623 1.502 . S
C1622 C1624 1.561 . S
C1622 C1625 1.526 . S
C1623 H1607 0.959 . S
C1623 H1608 0.959 . S
C1623 H1609 0.961 . S
C1623 C1622 1.502 . S
C1624 H1610 0.960 . S
C1624 H1611 0.961 . S
C1624 H1612 0.959 . S
C1624 C1622 1.561 . S
C1625 C1622 1.526 . S
C1625 C1626 1.396 . S
C1625 C1630 1.390 . S
C1626 C1620 1.465 . S
C1626 C1625 1.396 . S
C1626 C1627 1.399 . S
C1627 H1613 0.929 . S
C1627 C1626 1.399 . S
C1627 C1628 1.385 . S
C1628 H1614 0.931 . S
C1628 C1627 1.385 . S
C1628 C1629 1.389 . S
C1629 C1628 1.389 . S
C1629 C1630 1.387 . S
C1630 H1615 0.930 . S
C1630 C1625 1.390 . S
C1630 C1629 1.387 . S
H1631 C1643 0.930 . S
H1632 C1645 0.930 . S
H1633 C1646 0.930 . S
H1634 C1650 0.959 . S
H1635 C1650 0.959 . S
H1636 C1650 0.961 . S
H1637 C1651 0.960 . S
H1638 C1651 0.961 . S
H1639 C1651 0.959 . S
H1640 C1654 0.929 . S
H1641 C1655 0.931 . S
H1642 C1657 0.930 . S
C1643 H1631 0.930 . S
C1643 C1644 1.399 . S
C1643 C1648 1.399 . S
C1644 C1643 1.399 . S
C1644 C1645 1.376 . S
C1645 H1632 0.930 . S
C1645 C1644 1.376 . S
C1645 C1646 1.388 . S
C1646 H1633 0.930 . S
C1646 C1645 1.388 . S
C1646 C1647 1.390 . S
C1647 C1646 1.390 . S
C1647 C1648 1.394 . S
C1647 C1653 1.465 . S
C1648 C1643 1.399 . S
C1648 C1647 1.394 . S
C1648 C1649 1.516 . S
C1649 C1648 1.516 . S
C1649 C1650 1.502 . S
C1649 C1651 1.561 . S
C1649 C1652 1.526 . S
C1650 H1634 0.959 . S
C1650 H1635 0.959 . S
C1650 H1636 0.961 . S
C1650 C1649 1.502 . S
C1651 H1637 0.960 . S
C1651 H1638 0.961 . S
C1651 H1639 0.959 . S
C1651 C1649 1.561 . S
C1652 C1649 1.526 . S
C1652 C1653 1.396 . S
C1652 C1657 1.390 . S
C1653 C1647 1.465 . S
C1653 C1652 1.396 . S
C1653 C1654 1.399 . S
C1654 H1640 0.929 . S
C1654 C1653 1.399 . S
C1654 C1655 1.385 . S
C1655 H1641 0.931 . S
C1655 C1654 1.385 . S
C1655 C1656 1.389 . S
C1656 C1655 1.389 . S
C1656 C1657 1.387 . S
C1657 H1642 0.930 . S
C1657 C1652 1.390 . S
C1657 C1656 1.387 . S
H1658 C1670 0.930 . S
H1659 C1672 0.930 . S
H1660 C1673 0.930 . S
H1661 C1677 0.959 . S
H1662 C1677 0.959 . S
H1663 C1677 0.961 . S
H1664 C1678 0.960 . S
H1665 C1678 0.961 . S
H1666 C1678 0.959 . S
H1667 C1681 0.929 . S
H1668 C1682 0.931 . S
H1669 C1684 0.930 . S
C1670 H1658 0.930 . S
C1670 C1671 1.399 . S
C1670 C1675 1.399 . S
C1671 C1670 1.399 . S
C1671 C1672 1.376 . S
C1672 H1659 0.930 . S
C1672 C1671 1.376 . S
C1672 C1673 1.388 . S
C1673 H1660 0.930 . S
C1673 C1672 1.388 . S
C1673 C1674 1.390 . S
C1674 C1673 1.390 . S
C1674 C1675 1.394 . S
C1674 C1680 1.465 . S
C1675 C1670 1.399 . S
C1675 C1674 1.394 . S
C1675 C1676 1.516 . S
C1676 C1675 1.516 . S
C1676 C1677 1.502 . S
C1676 C1678 1.561 . S
C1676 C1679 1.526 . S
C1677 H1661 0.959 . S
C1677 H1662 0.959 . S
C1677 H1663 0.961 . S
C1677 C1676 1.502 . S
C1678 H1664 0.960 . S
C1678 H1665 0.961 . S
C1678 H1666 0.959 . S
C1678 C1676 1.561 . S
C1679 C1676 1.526 . S
C1679 C1680 1.396 . S
C1679 C1684 1.390 . S
C1680 C1674 1.465 . S
C1680 C1679 1.396 . S
C1680 C1681 1.399 . S
C1681 H1667 0.929 . S
C1681 C1680 1.399 . S
C1681 C1682 1.385 . S
C1682 H1668 0.931 . S
C1682 C1681 1.385 . S
C1682 C1683 1.389 . S
C1683 C1682 1.389 . S
C1683 C1684 1.387 . S
C1684 H1669 0.930 . S
C1684 C1679 1.390 . S
C1684 C1683 1.387 . S
H1685 C1697 0.930 . S
H1686 C1699 0.930 . S
H1687 C1700 0.930 . S
H1688 C1704 0.959 . S
H1689 C1704 0.959 . S
H1690 C1704 0.961 . S
H1691 C1705 0.960 . S
H1692 C1705 0.961 . S
H1693 C1705 0.959 . S
H1694 C1708 0.929 . S
H1695 C1709 0.931 . S
H1696 C1711 0.930 . S
C1697 H1685 0.930 . S
C1697 C1698 1.399 . S
C1697 C1702 1.399 . S
C1698 C1697 1.399 . S
C1698 C1699 1.376 . S
C1699 H1686 0.930 . S
C1699 C1698 1.376 . S
C1699 C1700 1.388 . S
C1700 H1687 0.930 . S
C1700 C1699 1.388 . S
C1700 C1701 1.390 . S
C1701 C1700 1.390 . S
C1701 C1702 1.394 . S
C1701 C1707 1.465 . S
C1702 C1697 1.399 . S
C1702 C1701 1.394 . S
C1702 C1703 1.516 . S
C1703 C1702 1.516 . S
C1703 C1704 1.502 . S
C1703 C1705 1.561 . S
C1703 C1706 1.526 . S
C1704 H1688 0.959 . S
C1704 H1689 0.959 . S
C1704 H1690 0.961 . S
C1704 C1703 1.502 . S
C1705 H1691 0.960 . S
C1705 H1692 0.961 . S
C1705 H1693 0.959 . S
C1705 C1703 1.561 . S
C1706 C1703 1.526 . S
C1706 C1707 1.396 . S
C1706 C1711 1.390 . S
C1707 C1701 1.465 . S
C1707 C1706 1.396 . S
C1707 C1708 1.399 . S
C1708 H1694 0.929 . S
C1708 C1707 1.399 . S
C1708 C1709 1.385 . S
C1709 H1695 0.931 . S
C1709 C1708 1.385 . S
C1709 C1710 1.389 . S
C1710 C1709 1.389 . S
C1710 C1711 1.387 . S
C1711 H1696 0.930 . S
C1711 C1706 1.390 . S
C1711 C1710 1.387 . S
C861 C39 1.861 . S
C873 C304 1.849 . S
C888 C251 1.842 . S
C900 C92 1.846 . S
C915 C145 1.871 . S
C927 C410 1.874 . S
C942 C357 1.879 . S
C954 C198 1.885 . S
C969 C728 1.843 . S
C981 C463 1.846 . S
C996 C675 1.841 . S
C1008 C516 1.846 . S
C1023 C834 1.879 . S
C1035 C569 1.885 . S
C1050 C622 1.872 . S
C1062 C781 1.875 . S
C1077 C82 1.524 . S
C1089 C29 1.542 . S
C1104 C135 1.527 . S
C1116 C188 1.533 . S
C1131 C241 1.554 . S
C1143 C294 1.539 . S
C1158 C347 1.543 . S
C1170 C400 1.553 . S
C1185 C453 1.552 . S
C1197 C506 1.546 . S
C1212 C612 1.524 . S
C1224 C559 1.541 . S
C1239 C718 1.541 . S
C1251 C665 1.529 . S
C1266 C771 1.542 . S
C1278 C824 1.529 . S
C1293 C499 1.524 . S
C1305 C22 1.520 . S
C1320 C75 1.519 . S
C1332 C446 1.524 . S
C1347 C605 1.519 . S
C1359 C128 1.524 . S
C1374 C181 1.520 . S
C1386 C552 1.526 . S
C1401 C234 1.536 . S
C1413 C711 1.519 . S
C1428 C658 1.515 . S
C1440 C287 1.531 . S
C1455 C340 1.530 . S
C1467 C817 1.537 . S
C1482 C764 1.530 . S
C1494 C393 1.537 . S
C1509 C38 1.912 . S
C1521 C144 1.951 . S
C1536 C197 1.912 . S
C1548 C91 1.951 . S
C1563 C356 1.956 . S
C1575 C250 1.915 . S
C1590 C409 1.935 . S
C1602 C303 1.940 . S
C1617 C568 1.942 . S
C1629 C462 1.901 . S
C1644 C515 1.944 . S
C1656 C621 1.901 . S
C1671 C780 1.943 . S
C1683 C674 1.931 . S
C1698 C727 1.914 . S
C1710 C833 1.951 . S
