# Generated by pormake.
# Topology umu, (4)-cn, num edge types: 1
# Building blocks:
#     Node 0, Type 0, BuildingBlock: QUQFOY_clean_sbu_1, # of connection points: 4
#     Node 1, Type 0, BuildingBlock: QUQFOY_clean_sbu_1, # of connection points: 4
#     Node 2, Type 0, BuildingBlock: QUQFOY_clean_sbu_1, # of connection points: 4
#     Node 3, Type 0, BuildingBlock: QUQFOY_clean_sbu_1, # of connection points: 4
#     Node 4, Type 0, BuildingBlock: QUQFOY_clean_sbu_1, # of connection points: 4
#     Node 5, Type 0, BuildingBlock: QUQFOY_clean_sbu_1, # of connection points: 4
#     Node 6, Type 0, BuildingBlock: QUQFOY_clean_sbu_1, # of connection points: 4
#     Node 7, Type 0, BuildingBlock: QUQFOY_clean_sbu_1, # of connection points: 4
#     Node 8, Type 0, BuildingBlock: QUQFOY_clean_sbu_1, # of connection points: 4
#     Node 9, Type 0, BuildingBlock: QUQFOY_clean_sbu_1, # of connection points: 4
#     Node 10, Type 0, BuildingBlock: QUQFOY_clean_sbu_1, # of connection points: 4
#     Node 11, Type 0, BuildingBlock: QUQFOY_clean_sbu_1, # of connection points: 4
#     Node 12, Type 0, BuildingBlock: QUQFOY_clean_sbu_1, # of connection points: 4
#     Node 13, Type 0, BuildingBlock: QUQFOY_clean_sbu_1, # of connection points: 4
#     Node 14, Type 0, BuildingBlock: QUQFOY_clean_sbu_1, # of connection points: 4
#     Node 15, Type 0, BuildingBlock: QUQFOY_clean_sbu_1, # of connection points: 4
#     Node 16, Type 0, BuildingBlock: QUQFOY_clean_sbu_1, # of connection points: 4
#     Node 17, Type 0, BuildingBlock: QUQFOY_clean_sbu_1, # of connection points: 4
#     Node 18, Type 0, BuildingBlock: QUQFOY_clean_sbu_1, # of connection points: 4
#     Node 19, Type 0, BuildingBlock: QUQFOY_clean_sbu_1, # of connection points: 4
#     Node 20, Type 0, BuildingBlock: QUQFOY_clean_sbu_1, # of connection points: 4
#     Node 21, Type 0, BuildingBlock: QUQFOY_clean_sbu_1, # of connection points: 4
#     Node 22, Type 0, BuildingBlock: QUQFOY_clean_sbu_1, # of connection points: 4
#     Node 23, Type 0, BuildingBlock: QUQFOY_clean_sbu_1, # of connection points: 4
#     Node 24, Type 0, BuildingBlock: QUQFOY_clean_sbu_1, # of connection points: 4
#     Node 25, Type 0, BuildingBlock: QUQFOY_clean_sbu_1, # of connection points: 4
#     Node 26, Type 0, BuildingBlock: QUQFOY_clean_sbu_1, # of connection points: 4
#     Node 27, Type 0, BuildingBlock: QUQFOY_clean_sbu_1, # of connection points: 4
#     Node 28, Type 0, BuildingBlock: QUQFOY_clean_sbu_1, # of connection points: 4
#     Node 29, Type 0, BuildingBlock: QUQFOY_clean_sbu_1, # of connection points: 4
#     Node 30, Type 0, BuildingBlock: QUQFOY_clean_sbu_1, # of connection points: 4
#     Node 31, Type 0, BuildingBlock: QUQFOY_clean_sbu_1, # of connection points: 4
#     Edge 32, Type (0, 0), BuildingBlock: ZUJKAS_clean_linker_0, # of connection points: 2
#     Edge 33, Type (0, 0), BuildingBlock: ZUJKAS_clean_linker_0, # of connection points: 2
#     Edge 34, Type (0, 0), BuildingBlock: ZUJKAS_clean_linker_0, # of connection points: 2
#     Edge 35, Type (0, 0), BuildingBlock: ZUJKAS_clean_linker_0, # of connection points: 2
#     Edge 36, Type (0, 0), BuildingBlock: ZUJKAS_clean_linker_0, # of connection points: 2
#     Edge 37, Type (0, 0), BuildingBlock: ZUJKAS_clean_linker_0, # of connection points: 2
#     Edge 38, Type (0, 0), BuildingBlock: ZUJKAS_clean_linker_0, # of connection points: 2
#     Edge 39, Type (0, 0), BuildingBlock: ZUJKAS_clean_linker_0, # of connection points: 2
#     Edge 40, Type (0, 0), BuildingBlock: ZUJKAS_clean_linker_0, # of connection points: 2
#     Edge 41, Type (0, 0), BuildingBlock: ZUJKAS_clean_linker_0, # of connection points: 2
#     Edge 42, Type (0, 0), BuildingBlock: ZUJKAS_clean_linker_0, # of connection points: 2
#     Edge 43, Type (0, 0), BuildingBlock: ZUJKAS_clean_linker_0, # of connection points: 2
#     Edge 44, Type (0, 0), BuildingBlock: ZUJKAS_clean_linker_0, # of connection points: 2
#     Edge 45, Type (0, 0), BuildingBlock: ZUJKAS_clean_linker_0, # of connection points: 2
#     Edge 46, Type (0, 0), BuildingBlock: ZUJKAS_clean_linker_0, # of connection points: 2
#     Edge 47, Type (0, 0), BuildingBlock: ZUJKAS_clean_linker_0, # of connection points: 2
#     Edge 48, Type (0, 0), BuildingBlock: ZUJKAS_clean_linker_0, # of connection points: 2
#     Edge 49, Type (0, 0), BuildingBlock: ZUJKAS_clean_linker_0, # of connection points: 2
#     Edge 50, Type (0, 0), BuildingBlock: ZUJKAS_clean_linker_0, # of connection points: 2
#     Edge 51, Type (0, 0), BuildingBlock: ZUJKAS_clean_linker_0, # of connection points: 2
#     Edge 52, Type (0, 0), BuildingBlock: ZUJKAS_clean_linker_0, # of connection points: 2
#     Edge 53, Type (0, 0), BuildingBlock: ZUJKAS_clean_linker_0, # of connection points: 2
#     Edge 54, Type (0, 0), BuildingBlock: ZUJKAS_clean_linker_0, # of connection points: 2
#     Edge 55, Type (0, 0), BuildingBlock: ZUJKAS_clean_linker_0, # of connection points: 2
#     Edge 56, Type (0, 0), BuildingBlock: ZUJKAS_clean_linker_0, # of connection points: 2
#     Edge 57, Type (0, 0), BuildingBlock: ZUJKAS_clean_linker_0, # of connection points: 2
#     Edge 58, Type (0, 0), BuildingBlock: ZUJKAS_clean_linker_0, # of connection points: 2
#     Edge 59, Type (0, 0), BuildingBlock: ZUJKAS_clean_linker_0, # of connection points: 2
#     Edge 60, Type (0, 0), BuildingBlock: ZUJKAS_clean_linker_0, # of connection points: 2
#     Edge 61, Type (0, 0), BuildingBlock: ZUJKAS_clean_linker_0, # of connection points: 2
#     Edge 62, Type (0, 0), BuildingBlock: ZUJKAS_clean_linker_0, # of connection points: 2
#     Edge 63, Type (0, 0), BuildingBlock: ZUJKAS_clean_linker_0, # of connection points: 2
#     Edge 64, Type (0, 0), BuildingBlock: ZUJKAS_clean_linker_0, # of connection points: 2
#     Edge 65, Type (0, 0), BuildingBlock: ZUJKAS_clean_linker_0, # of connection points: 2
#     Edge 66, Type (0, 0), BuildingBlock: ZUJKAS_clean_linker_0, # of connection points: 2
#     Edge 67, Type (0, 0), BuildingBlock: ZUJKAS_clean_linker_0, # of connection points: 2
#     Edge 68, Type (0, 0), BuildingBlock: ZUJKAS_clean_linker_0, # of connection points: 2
#     Edge 69, Type (0, 0), BuildingBlock: ZUJKAS_clean_linker_0, # of connection points: 2
#     Edge 70, Type (0, 0), BuildingBlock: ZUJKAS_clean_linker_0, # of connection points: 2
#     Edge 71, Type (0, 0), BuildingBlock: ZUJKAS_clean_linker_0, # of connection points: 2
#     Edge 72, Type (0, 0), BuildingBlock: ZUJKAS_clean_linker_0, # of connection points: 2
#     Edge 73, Type (0, 0), BuildingBlock: ZUJKAS_clean_linker_0, # of connection points: 2
#     Edge 74, Type (0, 0), BuildingBlock: ZUJKAS_clean_linker_0, # of connection points: 2
#     Edge 75, Type (0, 0), BuildingBlock: ZUJKAS_clean_linker_0, # of connection points: 2
#     Edge 76, Type (0, 0), BuildingBlock: ZUJKAS_clean_linker_0, # of connection points: 2
#     Edge 77, Type (0, 0), BuildingBlock: ZUJKAS_clean_linker_0, # of connection points: 2
#     Edge 78, Type (0, 0), BuildingBlock: ZUJKAS_clean_linker_0, # of connection points: 2
#     Edge 79, Type (0, 0), BuildingBlock: ZUJKAS_clean_linker_0, # of connection points: 2
#     Edge 80, Type (0, 0), BuildingBlock: ZUJKAS_clean_linker_0, # of connection points: 2
#     Edge 81, Type (0, 0), BuildingBlock: ZUJKAS_clean_linker_0, # of connection points: 2
#     Edge 82, Type (0, 0), BuildingBlock: ZUJKAS_clean_linker_0, # of connection points: 2
#     Edge 83, Type (0, 0), BuildingBlock: ZUJKAS_clean_linker_0, # of connection points: 2
#     Edge 84, Type (0, 0), BuildingBlock: ZUJKAS_clean_linker_0, # of connection points: 2
#     Edge 85, Type (0, 0), BuildingBlock: ZUJKAS_clean_linker_0, # of connection points: 2
#     Edge 86, Type (0, 0), BuildingBlock: ZUJKAS_clean_linker_0, # of connection points: 2
#     Edge 87, Type (0, 0), BuildingBlock: ZUJKAS_clean_linker_0, # of connection points: 2
#     Edge 88, Type (0, 0), BuildingBlock: ZUJKAS_clean_linker_0, # of connection points: 2
#     Edge 89, Type (0, 0), BuildingBlock: ZUJKAS_clean_linker_0, # of connection points: 2
#     Edge 90, Type (0, 0), BuildingBlock: ZUJKAS_clean_linker_0, # of connection points: 2
#     Edge 91, Type (0, 0), BuildingBlock: ZUJKAS_clean_linker_0, # of connection points: 2
#     Edge 92, Type (0, 0), BuildingBlock: ZUJKAS_clean_linker_0, # of connection points: 2
#     Edge 93, Type (0, 0), BuildingBlock: ZUJKAS_clean_linker_0, # of connection points: 2
#     Edge 94, Type (0, 0), BuildingBlock: ZUJKAS_clean_linker_0, # of connection points: 2
#     Edge 95, Type (0, 0), BuildingBlock: ZUJKAS_clean_linker_0, # of connection points: 2
# Relax obj value: 0.038
# Max RMSD: 0.069
# Mean RMSD: 0.069
data_MOF--net-umu--node1-QUQFOY_clean_sbu_1--edge1-ZUJKAS_clean_linker_0
_symmetry_space_group_name_H-M    P1
_symmetry_Int_Tables_number       1
_symmetry_cell_setting            triclinic
loop_
_symmetry_equiv_pos_as_xyz
'x, y, z'
_cell_length_a     110.03421
_cell_length_b     110.03225
_cell_length_c     36.340454
_cell_angle_alpha  89.962919
_cell_angle_beta   90.015143
_cell_angle_gamma 89.99805
loop_
_atom_site_label
_atom_site_type_symbol
_atom_site_fract_x
_atom_site_fract_y
_atom_site_fract_z
_atom_type_partial_charge
O0 O 0.21259 0.16549 0.02217 0.0
Cd1 Cd 0.20063 0.1691 0.06416 0.0
Cd2 Cd 0.22357 0.16832 0.10222 0.0
O3 O 0.22978 0.16221 0.05175 0.0
O4 O 0.18516 0.16857 0.03584 0.0
O5 O 0.18948 0.15541 0.07975 0.0
C6 C 0.18226 0.15893 0.05382 0.0
C7 C 0.23055 0.15933 0.15669 0.0
C8 C 0.2237 0.16243 0.022 0.0
C9 C 0.20932 0.19197 0.10095 0.0
O10 O 0.21931 0.18653 0.10726 0.0
O11 O 0.20044 0.18635 0.08638 0.0
O12 O 0.23751 0.166 0.13658 0.0
O13 O 0.21961 0.15735 0.14518 0.0
O14 O 0.09099 0.96866 0.27565 0.0
Cd15 Cd 0.088 0.95564 0.31514 0.0
Cd16 Cd 0.08547 0.97918 0.35476 0.0
O17 O 0.09072 0.98634 0.3044 0.0
O18 O 0.08897 0.94116 0.28247 0.0
O19 O 0.10209 0.9444 0.32718 0.0
C20 C 0.09869 0.93792 0.29943 0.0
C21 C 0.09294 0.98733 0.40993 0.0
C22 C 0.0921 0.98014 0.27515 0.0
C23 C 0.064 0.96159 0.35135 0.0
O24 O 0.06815 0.97208 0.359 0.0
O25 O 0.0707 0.95364 0.33614 0.0
O26 O 0.08504 0.99302 0.39023 0.0
O27 O 0.09708 0.97714 0.3975 0.0
O28 O 0.28885 0.8457 0.51575 0.0
Cd29 Cd 0.30163 0.84287 0.55605 0.0
Cd30 Cd 0.27836 0.84246 0.59634 0.0
O31 O 0.2715 0.84777 0.5456 0.0
O32 O 0.31649 0.84374 0.52492 0.0
O33 O 0.31262 0.85704 0.56869 0.0
C34 C 0.31943 0.85358 0.54174 0.0
C35 C 0.27022 0.85039 0.65099 0.0
C36 C 0.27753 0.84791 0.51574 0.0
C37 C 0.2946 0.81981 0.59481 0.0
O38 O 0.28444 0.82479 0.60195 0.0
O39 O 0.30299 0.82574 0.57882 0.0
O40 O 0.26431 0.84272 0.6311 0.0
O41 O 0.28063 0.85409 0.63897 0.0
O42 O 0.40939 0.04522 0.76471 0.0
Cd43 Cd 0.4117 0.05661 0.80892 0.0
Cd44 Cd 0.41064 0.03346 0.84349 0.0
O45 O 0.40494 0.02785 0.79191 0.0
O46 O 0.41073 0.07268 0.78388 0.0
O47 O 0.39695 0.06641 0.8237 0.0
C48 C 0.40051 0.07446 0.80016 0.0
C49 C 0.40169 0.02585 0.89723 0.0
C50 C 0.40601 0.0342 0.76285 0.0
C51 C 0.43415 0.04787 0.84686 0.0
O52 O 0.42877 0.0377 0.85018 0.0
O53 O 0.42856 0.05704 0.83391 0.0
O54 O 0.40846 0.01916 0.87658 0.0
O55 O 0.39942 0.0368 0.88631 0.0
O56 O 0.21218 0.84726 0.15658 0.0
Cd57 Cd 0.19959 0.84413 0.11594 0.0
Cd58 Cd 0.22316 0.84284 0.0774 0.0
O59 O 0.22991 0.84817 0.12823 0.0
O60 O 0.18467 0.84504 0.14677 0.0
O61 O 0.18847 0.85812 0.10231 0.0
C62 C 0.18163 0.85472 0.12928 0.0
C63 C 0.23133 0.85065 0.02264 0.0
C64 C 0.22358 0.84896 0.15744 0.0
C65 C 0.20653 0.82057 0.07944 0.0
O66 O 0.21684 0.82526 0.07238 0.0
O67 O 0.1982 0.82682 0.09457 0.0
O68 O 0.2372 0.84296 0.04262 0.0
O69 O 0.22095 0.85443 0.03465 0.0
O70 O 0.40789 0.96939 0.40567 0.0
Cd71 Cd 0.41171 0.957 0.36501 0.0
Cd72 Cd 0.41119 0.97997 0.325 0.0
O73 O 0.40518 0.98653 0.37514 0.0
O74 O 0.4112 0.94184 0.39492 0.0
O75 O 0.39817 0.94553 0.35018 0.0
C76 C 0.40167 0.93862 0.37689 0.0
C77 C 0.40279 0.98747 0.2702 0.0
C78 C 0.4051 0.98058 0.40515 0.0
C79 C 0.43471 0.96534 0.32792 0.0
O80 O 0.42929 0.97524 0.32046 0.0
O81 O 0.42907 0.95664 0.34339 0.0
O82 O 0.40974 0.99404 0.29065 0.0
O83 O 0.40016 0.97667 0.2816 0.0
O84 O 0.28755 0.16446 0.66133 0.0
Cd85 Cd 0.29907 0.16704 0.61754 0.0
Cd86 Cd 0.27595 0.16625 0.58255 0.0
O87 O 0.27011 0.1605 0.63388 0.0
O88 O 0.31502 0.16633 0.64338 0.0
O89 O 0.30926 0.15251 0.60302 0.0
C90 C 0.31711 0.15618 0.627 0.0
C91 C 0.26911 0.15706 0.52833 0.0
C92 C 0.27648 0.16129 0.66299 0.0
C93 C 0.29038 0.18969 0.57998 0.0
O94 O 0.28019 0.18439 0.57622 0.0
O95 O 0.29947 0.18399 0.59306 0.0
O96 O 0.26203 0.16369 0.54821 0.0
O97 O 0.28 0.15509 0.54028 0.0
O98 O 0.0887 0.04553 0.91606 0.0
Cd99 Cd 0.08665 0.05834 0.87542 0.0
Cd100 Cd 0.08523 0.03502 0.83579 0.0
O101 O 0.09025 0.02805 0.88665 0.0
O102 O 0.0877 0.07313 0.90679 0.0
O103 O 0.10121 0.06898 0.86385 0.0
C104 C 0.09771 0.07586 0.8906 0.0
C105 C 0.09303 0.02668 0.78127 0.0
C106 C 0.09047 0.03413 0.91641 0.0
C107 C 0.06337 0.05222 0.8364 0.0
O108 O 0.06779 0.04175 0.82998 0.0
O109 O 0.06975 0.06039 0.85182 0.0
O110 O 0.08514 0.02099 0.80101 0.0
O111 O 0.09701 0.03697 0.79339 0.0
O112 O 0.78707 0.84401 0.1628 0.0
Cd113 Cd 0.79927 0.84081 0.12117 0.0
Cd114 Cd 0.7765 0.84112 0.08243 0.0
O115 O 0.76996 0.84717 0.13264 0.0
O116 O 0.81465 0.8418 0.1498 0.0
O117 O 0.81005 0.85482 0.10578 0.0
C118 C 0.81733 0.8515 0.13179 0.0
C119 C 0.76944 0.84977 0.02749 0.0
C120 C 0.77592 0.84693 0.16263 0.0
C121 C 0.79135 0.81778 0.08423 0.0
O122 O 0.78127 0.82301 0.07767 0.0
O123 O 0.80006 0.82359 0.09901 0.0
O124 O 0.76267 0.84281 0.04732 0.0
O125 O 0.78019 0.85228 0.03966 0.0
O126 O 0.90719 0.043 0.91026 0.0
Cd127 Cd 0.91055 0.05622 0.87155 0.0
Cd128 Cd 0.91311 0.03286 0.83091 0.0
O129 O 0.90791 0.02546 0.8808 0.0
O130 O 0.90956 0.07053 0.90484 0.0
O131 O 0.89664 0.06764 0.85936 0.0
C132 C 0.89996 0.07395 0.88756 0.0
C133 C 0.90567 0.0248 0.77568 0.0
C134 C 0.90621 0.03151 0.91014 0.0
C135 C 0.93458 0.05035 0.83509 0.0
O136 O 0.9304 0.03994 0.82683 0.0
O137 O 0.92793 0.05822 0.8509 0.0
O138 O 0.91363 0.01912 0.79523 0.0
O139 O 0.90146 0.03494 0.78829 0.0
O140 O 0.71028 0.16321 0.66153 0.0
Cd141 Cd 0.69838 0.16524 0.61844 0.0
Cd142 Cd 0.72151 0.16589 0.58215 0.0
O143 O 0.72782 0.16048 0.63334 0.0
O144 O 0.68267 0.1636 0.64515 0.0
O145 O 0.68886 0.15025 0.60397 0.0
C146 C 0.68099 0.15343 0.62849 0.0
C147 C 0.72959 0.15778 0.5278 0.0
C148 C 0.72155 0.16078 0.66271 0.0
C149 C 0.70549 0.18843 0.58116 0.0
O150 O 0.71591 0.18369 0.57635 0.0
O151 O 0.69685 0.18225 0.59488 0.0
O152 O 0.73581 0.16495 0.54855 0.0
O153 O 0.71889 0.15463 0.53891 0.0
O154 O 0.58693 0.96895 0.41137 0.0
Cd155 Cd 0.58633 0.95703 0.36801 0.0
Cd156 Cd 0.58818 0.979 0.33134 0.0
O157 O 0.59454 0.9848 0.38225 0.0
O158 O 0.58762 0.94116 0.39408 0.0
O159 O 0.60181 0.94795 0.35634 0.0
C160 C 0.5982 0.93982 0.37955 0.0
C161 C 0.59728 0.9855 0.2765 0.0
C162 C 0.59167 0.97946 0.41206 0.0
C163 C 0.56447 0.96504 0.32787 0.0
O164 O 0.56977 0.9753 0.32575 0.0
O165 O 0.57016 0.95582 0.34 0.0
O166 O 0.59101 0.99281 0.29669 0.0
O167 O 0.59892 0.97455 0.28838 0.0
O168 O 0.78713 0.1672 0.0209 0.0
Cd169 Cd 0.79938 0.1697 0.06287 0.0
Cd170 Cd 0.77637 0.17071 0.10096 0.0
O171 O 0.76971 0.16522 0.05032 0.0
O172 O 0.81469 0.16842 0.03404 0.0
O173 O 0.80976 0.15527 0.07735 0.0
C174 C 0.81712 0.15855 0.05152 0.0
C175 C 0.76864 0.16218 0.15522 0.0
C176 C 0.7758 0.16504 0.0206 0.0
C177 C 0.79259 0.19306 0.1005 0.0
O178 O 0.78216 0.1885 0.10653 0.0
O179 O 0.80095 0.18675 0.08584 0.0
O180 O 0.76232 0.16957 0.13545 0.0
O181 O 0.77931 0.1592 0.14343 0.0
O182 O 0.58566 0.04254 0.77058 0.0
Cd183 Cd 0.58548 0.05438 0.81417 0.0
Cd184 Cd 0.58734 0.03247 0.85053 0.0
O185 O 0.59386 0.02697 0.79948 0.0
O186 O 0.58715 0.07028 0.78856 0.0
O187 O 0.60127 0.06292 0.82563 0.0
C188 C 0.59784 0.07122 0.80271 0.0
C189 C 0.59624 0.02527 0.90493 0.0
C190 C 0.59071 0.03218 0.76974 0.0
C191 C 0.56373 0.04658 0.85453 0.0
O192 O 0.56893 0.03626 0.85598 0.0
O193 O 0.56949 0.05581 0.84291 0.0
O194 O 0.58997 0.01827 0.88381 0.0
O195 O 0.59796 0.03636 0.89436 0.0
O196 O 0.71106 0.84972 0.52135 0.0
Cd197 Cd 0.69924 0.84692 0.56424 0.0
Cd198 Cd 0.72262 0.84655 0.6004 0.0
O199 O 0.72867 0.85236 0.54936 0.0
O200 O 0.68352 0.84801 0.53725 0.0
O201 O 0.68901 0.8614 0.57919 0.0
C202 C 0.68134 0.85799 0.55437 0.0
C203 C 0.73081 0.85459 0.65473 0.0
C204 C 0.7223 0.85229 0.52015 0.0
C205 C 0.70712 0.82365 0.60022 0.0
O206 O 0.71741 0.82861 0.60539 0.0
O207 O 0.69833 0.82971 0.5868 0.0
O208 O 0.73706 0.84763 0.63345 0.0
O209 O 0.71997 0.85753 0.64428 0.0
O210 O 0.90745 0.9674 0.2683 0.0
Cd211 Cd 0.91111 0.95427 0.30703 0.0
Cd212 Cd 0.91313 0.97754 0.34805 0.0
O213 O 0.90778 0.98488 0.29821 0.0
O214 O 0.91009 0.93981 0.27429 0.0
O215 O 0.89736 0.94279 0.32018 0.0
C216 C 0.90061 0.93639 0.29209 0.0
C217 C 0.90563 0.98552 0.40331 0.0
C218 C 0.90622 0.97887 0.26871 0.0
C219 C 0.93503 0.96055 0.34346 0.0
O220 O 0.93057 0.97081 0.35212 0.0
O221 O 0.92858 0.95258 0.32732 0.0
O222 O 0.91346 0.99131 0.38363 0.0
O223 O 0.90157 0.97531 0.39081 0.0
O224 O 0.71075 0.66796 0.51751 0.0
Cd225 Cd 0.69866 0.67086 0.55966 0.0
Cd226 Cd 0.72141 0.67048 0.59779 0.0
O227 O 0.72782 0.66442 0.54744 0.0
O228 O 0.68316 0.66961 0.53176 0.0
O229 O 0.68831 0.65655 0.57512 0.0
C230 C 0.68083 0.65976 0.5495 0.0
C231 C 0.7286 0.66185 0.6526 0.0
C232 C 0.72186 0.66488 0.51749 0.0
C233 C 0.70654 0.69382 0.59672 0.0
O234 O 0.71667 0.6886 0.60269 0.0
O235 O 0.69776 0.688 0.58232 0.0
O236 O 0.73533 0.66879 0.63257 0.0
O237 O 0.71782 0.65935 0.64069 0.0
O238 O 0.59106 0.46787 0.7687 0.0
Cd239 Cd 0.58698 0.45469 0.80702 0.0
Cd240 Cd 0.58463 0.47774 0.84867 0.0
O241 O 0.58906 0.48531 0.79837 0.0
O242 O 0.58836 0.44016 0.77471 0.0
O243 O 0.60059 0.44327 0.82183 0.0
C244 C 0.59763 0.43677 0.79366 0.0
C245 C 0.59284 0.48579 0.90291 0.0
C246 C 0.59142 0.47939 0.76923 0.0
C247 C 0.56296 0.46057 0.84413 0.0
O248 O 0.56746 0.47063 0.85452 0.0
O249 O 0.56931 0.45299 0.82604 0.0
O250 O 0.58458 0.49144 0.8845 0.0
O251 O 0.59685 0.47565 0.88974 0.0
O252 O 0.78838 0.347 0.01838 0.0
Cd253 Cd 0.80025 0.34531 0.06176 0.0
Cd254 Cd 0.77681 0.34401 0.09693 0.0
O255 O 0.77054 0.34909 0.04542 0.0
O256 O 0.81591 0.34682 0.03474 0.0
O257 O 0.8098 0.36041 0.0753 0.0
C258 C 0.81765 0.35706 0.05093 0.0
C259 C 0.76827 0.35192 0.15086 0.0
C260 C 0.77704 0.34901 0.01646 0.0
C261 C 0.79359 0.32202 0.0993 0.0
O262 O 0.78299 0.32642 0.10323 0.0
O263 O 0.80212 0.32847 0.08612 0.0
O264 O 0.7625 0.34425 0.13054 0.0
O265 O 0.77874 0.35569 0.13949 0.0
O266 O 0.91274 0.54146 0.26678 0.0
Cd267 Cd 0.9134 0.55388 0.30892 0.0
Cd268 Cd 0.9119 0.53188 0.34712 0.0
O269 O 0.90567 0.52554 0.29676 0.0
O270 O 0.91242 0.56922 0.28 0.0
O271 O 0.89827 0.5637 0.31965 0.0
C272 C 0.90199 0.57123 0.29481 0.0
C273 C 0.90295 0.52534 0.40216 0.0
C274 C 0.90836 0.5308 0.26669 0.0
C275 C 0.93538 0.54633 0.34943 0.0
O276 O 0.93024 0.53601 0.35219 0.0
O277 O 0.92956 0.55539 0.33681 0.0
O278 O 0.90946 0.51815 0.3823 0.0
O279 O 0.90104 0.53621 0.38996 0.0
O280 O 0.71152 0.34381 0.65887 0.0
Cd281 Cd 0.69866 0.3411 0.61874 0.0
Cd282 Cd 0.7215 0.34059 0.57788 0.0
O283 O 0.72871 0.34579 0.62815 0.0
O284 O 0.68382 0.34218 0.64984 0.0
O285 O 0.68784 0.35536 0.60579 0.0
C286 C 0.68097 0.35201 0.63274 0.0
C287 C 0.72925 0.34876 0.52308 0.0
C288 C 0.72286 0.34595 0.65832 0.0
C289 C 0.70532 0.31799 0.57995 0.0
O290 O 0.71547 0.32291 0.57236 0.0
O291 O 0.69704 0.32398 0.59623 0.0
O292 O 0.73529 0.34099 0.54231 0.0
O293 O 0.71892 0.3524 0.53584 0.0
O294 O 0.91338 0.46712 0.90634 0.0
Cd295 Cd 0.91305 0.45542 0.86235 0.0
Cd296 Cd 0.91191 0.4775 0.82703 0.0
O297 O 0.90555 0.48302 0.87817 0.0
O298 O 0.91139 0.4395 0.88783 0.0
O299 O 0.89711 0.44702 0.8517 0.0
C300 C 0.90063 0.43864 0.8742 0.0
C301 C 0.9031 0.48492 0.77286 0.0
C302 C 0.90864 0.47761 0.90764 0.0
C303 C 0.93498 0.46273 0.82193 0.0
O304 O 0.93023 0.47327 0.82154 0.0
O305 O 0.92882 0.45364 0.83271 0.0
O306 O 0.90954 0.49178 0.79395 0.0
O307 O 0.90118 0.47386 0.7833 0.0
O308 O 0.78672 0.66104 0.1595 0.0
Cd309 Cd 0.799 0.66455 0.11828 0.0
Cd310 Cd 0.77549 0.66499 0.08033 0.0
O311 O 0.76913 0.65908 0.13088 0.0
O312 O 0.81414 0.66383 0.1482 0.0
O313 O 0.81025 0.65077 0.10377 0.0
C314 C 0.81719 0.65419 0.1305 0.0
C315 C 0.76734 0.65722 0.02557 0.0
C316 C 0.77543 0.65869 0.1602 0.0
C317 C 0.79106 0.68793 0.0826 0.0
O318 O 0.78088 0.6829 0.07603 0.0
O319 O 0.79973 0.68194 0.09697 0.0
O320 O 0.76114 0.66423 0.04686 0.0
O321 O 0.77811 0.6541 0.03621 0.0
O322 O 0.59324 0.54127 0.4089 0.0
Cd323 Cd 0.58904 0.5551 0.37289 0.0
Cd324 Cd 0.58667 0.53248 0.32745 0.0
O325 O 0.591 0.52429 0.37695 0.0
O326 O 0.59024 0.569 0.40779 0.0
O327 O 0.60243 0.56703 0.36008 0.0
C328 C 0.59939 0.57293 0.38937 0.0
C329 C 0.59435 0.52446 0.2724 0.0
C330 C 0.59349 0.52976 0.40679 0.0
C331 C 0.56504 0.54969 0.33474 0.0
O332 O 0.56961 0.53989 0.32254 0.0
O333 O 0.57132 0.55694 0.3543 0.0
O334 O 0.58604 0.51896 0.291 0.0
O335 O 0.59874 0.53441 0.2858 0.0
O336 O 0.28603 0.34113 0.65943 0.0
Cd337 Cd 0.29809 0.34091 0.6164 0.0
Cd338 Cd 0.27626 0.3429 0.57886 0.0
O339 O 0.27048 0.34915 0.62989 0.0
O340 O 0.31385 0.34261 0.6427 0.0
O341 O 0.30668 0.35668 0.60511 0.0
C342 C 0.31487 0.35327 0.62842 0.0
C343 C 0.26875 0.3518 0.5248 0.0
C344 C 0.27561 0.34606 0.65982 0.0
C345 C 0.29054 0.31927 0.57508 0.0
O346 O 0.28028 0.32456 0.57276 0.0
O347 O 0.29968 0.32492 0.58782 0.0
O348 O 0.26202 0.34512 0.54557 0.0
O349 O 0.27974 0.35393 0.53558 0.0
O350 O 0.40894 0.54204 0.40925 0.0
Cd351 Cd 0.41186 0.55509 0.36979 0.0
Cd352 Cd 0.4137 0.53206 0.32859 0.0
O353 O 0.40855 0.52468 0.37882 0.0
O354 O 0.41036 0.56976 0.40147 0.0
O355 O 0.39766 0.56592 0.35605 0.0
C356 C 0.40073 0.57269 0.38352 0.0
C357 C 0.40604 0.52406 0.27335 0.0
C358 C 0.40755 0.53059 0.40875 0.0
C359 C 0.43559 0.54918 0.33271 0.0
O360 O 0.43112 0.53892 0.32402 0.0
O361 O 0.42919 0.5571 0.34915 0.0
O362 O 0.41396 0.5183 0.29278 0.0
O363 O 0.402 0.53425 0.28608 0.0
O364 O 0.20926 0.66553 0.1633 0.0
Cd365 Cd 0.19727 0.66792 0.12059 0.0
Cd366 Cd 0.22078 0.66842 0.08452 0.0
O367 O 0.22704 0.66325 0.13608 0.0
O368 O 0.1818 0.66669 0.14871 0.0
O369 O 0.18702 0.65337 0.10625 0.0
C370 C 0.17954 0.6567 0.13171 0.0
C371 C 0.22905 0.66012 0.03064 0.0
C372 C 0.22057 0.66332 0.16508 0.0
C373 C 0.20461 0.691 0.08307 0.0
O374 O 0.21495 0.68613 0.07797 0.0
O375 O 0.19596 0.68497 0.09731 0.0
O376 O 0.23502 0.66773 0.05061 0.0
O377 O 0.2185 0.65667 0.04228 0.0
O378 O 0.08714 0.46469 0.91625 0.0
Cd379 Cd 0.08635 0.45386 0.87026 0.0
Cd380 Cd 0.08649 0.4772 0.83906 0.0
O381 O 0.09137 0.48253 0.89175 0.0
O382 O 0.08819 0.43754 0.8932 0.0
O383 O 0.10199 0.44541 0.85613 0.0
C384 C 0.09872 0.43676 0.87805 0.0
C385 C 0.09571 0.48543 0.78664 0.0
C386 C 0.09005 0.47578 0.91991 0.0
C387 C 0.06392 0.4616 0.83102 0.0
O388 O 0.06866 0.47213 0.83017 0.0
O389 O 0.06998 0.45257 0.84287 0.0
O390 O 0.08825 0.49166 0.80643 0.0
O391 O 0.09854 0.47464 0.79784 0.0
O392 O 0.2856 0.6636 0.52338 0.0
Cd393 Cd 0.29867 0.66668 0.56262 0.0
Cd394 Cd 0.27557 0.66806 0.60402 0.0
O395 O 0.26825 0.66283 0.55386 0.0
O396 O 0.31324 0.66561 0.53033 0.0
O397 O 0.30984 0.65262 0.57534 0.0
C398 C 0.31641 0.65593 0.54766 0.0
C399 C 0.26761 0.66034 0.6592 0.0
C400 C 0.27417 0.66198 0.52391 0.0
C401 C 0.29233 0.69024 0.60014 0.0
O402 O 0.28214 0.68558 0.60863 0.0
O403 O 0.30039 0.68399 0.58372 0.0
O404 O 0.26177 0.66817 0.63966 0.0
O405 O 0.27786 0.6564 0.6466 0.0
O406 O 0.09197 0.53926 0.27813 0.0
Cd407 Cd 0.08832 0.55283 0.31528 0.0
Cd408 Cd 0.08705 0.53008 0.35981 0.0
O409 O 0.09209 0.52221 0.3103 0.0
O410 O 0.08912 0.56692 0.28092 0.0
O411 O 0.10189 0.56467 0.32711 0.0
C412 C 0.09854 0.57071 0.29839 0.0
C413 C 0.09492 0.5225 0.41525 0.0
C414 C 0.09334 0.52782 0.27992 0.0
C415 C 0.06477 0.54665 0.35384 0.0
O416 O 0.06959 0.53674 0.36438 0.0
O417 O 0.07086 0.5544 0.33555 0.0
O418 O 0.08694 0.51659 0.39649 0.0
O419 O 0.0989 0.53261 0.40176 0.0
O420 O 0.21214 0.34398 0.01821 0.0
Cd421 Cd 0.20021 0.34344 0.0616 0.0
Cd422 Cd 0.22242 0.34531 0.09808 0.0
O423 O 0.22814 0.35145 0.04688 0.0
O424 O 0.18439 0.34469 0.03533 0.0
O425 O 0.19108 0.35892 0.07306 0.0
C426 C 0.18299 0.35527 0.04978 0.0
C427 C 0.22993 0.35402 0.15235 0.0
C428 C 0.2227 0.34859 0.01725 0.0
C429 C 0.20817 0.32167 0.10206 0.0
O430 O 0.21842 0.32699 0.10413 0.0
O431 O 0.19895 0.3273 0.08973 0.0
O432 O 0.23667 0.34742 0.13138 0.0
O433 O 0.21897 0.35625 0.14151 0.0
O434 O 0.40876 0.4647 0.76872 0.0
Cd435 Cd 0.41025 0.45278 0.81196 0.0
Cd436 Cd 0.4118 0.47609 0.84775 0.0
O437 O 0.40688 0.48251 0.79608 0.0
O438 O 0.40814 0.43714 0.7852 0.0
O439 O 0.39493 0.44373 0.82622 0.0
C440 C 0.39791 0.43576 0.80179 0.0
C441 C 0.40397 0.48472 0.90181 0.0
C442 C 0.40692 0.47608 0.76697 0.0
C443 C 0.43364 0.45898 0.84923 0.0
O444 O 0.42927 0.46955 0.85406 0.0
O445 O 0.42717 0.45057 0.83543 0.0
O446 O 0.41175 0.49038 0.88158 0.0
O447 O 0.40006 0.47432 0.89032 0.0
H448 H 0.11933 0.08449 0.86308 0.0
H449 H 0.13277 0.09959 0.89151 0.0
H450 H 0.10702 0.10442 0.9798 0.0
H451 H 0.09343 0.08976 0.95108 0.0
H452 H 0.11617 0.12562 0.95967 0.0
H453 H 0.15375 0.09271 0.97985 0.0
H454 H 0.14942 0.09441 0.93253 0.0
H455 H 0.1388 0.0881 0.96502 0.0
C456 C 0.11648 0.08889 0.8883 0.0
C457 C 0.10535 0.08587 0.90491 0.0
C458 C 0.12422 0.09742 0.90473 0.0
C459 C 0.12104 0.10291 0.93831 0.0
C460 C 0.10971 0.10025 0.95406 0.0
H461 H 0.17371 0.13769 0.08403 0.0
H462 H 0.15782 0.12443 0.05899 0.0
C463 C 0.10195 0.09185 0.93753 0.0
C464 C 0.12949 0.11128 0.9576 0.0
H465 H 0.15805 0.11334 0.99385 0.0
C466 C 0.12532 0.12292 0.96723 0.0
C467 C 0.14132 0.10766 0.9683 0.0
C468 C 0.14606 0.095 0.96126 0.0
C469 C 0.13272 0.1311 0.98662 0.0
C470 C 0.14475 0.12769 0.99573 0.0
C471 C 0.14885 0.11598 0.9867 0.0
C472 C 0.15343 0.13626 0.01323 0.0
C473 C 0.12746 0.14323 0.99769 0.0
C474 C 0.15614 0.14736 0.99615 0.0
C475 C 0.16507 0.15499 0.01062 0.0
C476 C 0.17165 0.15159 0.04217 0.0
C477 C 0.16876 0.14059 0.05981 0.0
C478 C 0.15973 0.13299 0.04543 0.0
H479 H 0.11741 0.14278 1.00015 0.0
H480 H 0.13127 0.1464 0.0243 0.0
H481 H 0.12965 0.15007 0.97622 0.0
H482 H 0.15167 0.14995 0.97078 0.0
H483 H 0.16713 0.16334 0.99612 0.0
H484 H 0.12013 0.9288 0.32686 0.0
H485 H 0.13337 0.91364 0.29786 0.0
H486 H 0.10755 0.90952 0.2094 0.0
H487 H 0.09418 0.92426 0.23859 0.0
H488 H 0.11654 0.88805 0.22918 0.0
H489 H 0.15427 0.92084 0.20921 0.0
H490 H 0.14993 0.91899 0.25648 0.0
H491 H 0.13935 0.92548 0.2242 0.0
C492 C 0.11722 0.92454 0.30149 0.0
C493 C 0.10615 0.9278 0.28492 0.0
C494 C 0.12484 0.91597 0.28475 0.0
C495 C 0.12158 0.91067 0.25096 0.0
C496 C 0.1103 0.91354 0.2353 0.0
H497 H 0.17301 0.8762 0.10078 0.0
H498 H 0.15747 0.88948 0.12771 0.0
C499 C 0.10266 0.92199 0.2521 0.0
C500 C 0.12994 0.90231 0.23125 0.0
H501 H 0.15831 0.90029 0.19373 0.0
C502 C 0.12567 0.89073 0.22137 0.0
C503 C 0.14174 0.90592 0.22028 0.0
C504 C 0.14657 0.91852 0.22772 0.0
C505 C 0.13295 0.8826 0.20137 0.0
C506 C 0.14494 0.88601 0.19184 0.0
C507 C 0.14914 0.89766 0.2012 0.0
C508 C 0.15347 0.87751 0.17346 0.0
C509 C 0.1276 0.87053 0.19011 0.0
C510 C 0.1563 0.86634 0.18997 0.0
C511 C 0.16503 0.85871 0.17446 0.0
C512 C 0.17129 0.86217 0.14238 0.0
C513 C 0.16831 0.87325 0.12538 0.0
C514 C 0.15947 0.88086 0.14084 0.0
H515 H 0.11753 0.87098 0.18838 0.0
H516 H 0.1312 0.86751 0.16307 0.0
H517 H 0.12997 0.86358 0.21106 0.0
H518 H 0.15205 0.86368 0.21562 0.0
H519 H 0.16717 0.85029 0.18849 0.0
H520 H 0.40622 0.92394 0.43558 0.0
H521 H 0.39307 0.90836 0.46151 0.0
H522 H 0.36757 0.9136 0.37273 0.0
H523 H 0.38059 0.92958 0.34703 0.0
H524 H 0.35641 0.91394 0.43804 0.0
H525 H 0.38659 0.8738 0.43317 0.0
H526 H 0.39362 0.8863 0.45657 0.0
H527 H 0.38994 0.88763 0.40843 0.0
C528 C 0.39792 0.92165 0.4211 0.0
C529 C 0.39446 0.928 0.38915 0.0
C530 C 0.39044 0.91267 0.43591 0.0
C531 C 0.37941 0.90966 0.41882 0.0
C532 C 0.37608 0.91573 0.38629 0.0
H533 H 0.33355 0.84923 0.48171 0.0
H534 H 0.3482 0.86286 0.45307 0.0
C535 C 0.38354 0.92482 0.37155 0.0
C536 C 0.37099 0.90089 0.43658 0.0
H537 H 0.36937 0.87236 0.47332 0.0
C538 C 0.35921 0.90481 0.44545 0.0
C539 C 0.3746 0.88894 0.44603 0.0
C540 C 0.38684 0.88388 0.4352 0.0
C541 C 0.35101 0.89719 0.46401 0.0
C542 C 0.35482 0.88544 0.475 0.0
C543 C 0.36653 0.88145 0.46553 0.0
C544 C 0.34656 0.87691 0.49443 0.0
C545 C 0.33826 0.90174 0.47091 0.0
C546 C 0.34103 0.88007 0.52797 0.0
C547 C 0.33252 0.8723 0.54437 0.0
C548 C 0.32955 0.86116 0.52775 0.0
C549 C 0.3356 0.85776 0.49526 0.0
C550 C 0.34399 0.86555 0.47877 0.0
H551 H 0.33586 0.90937 0.45223 0.0
H552 H 0.33149 0.89436 0.46716 0.0
H553 H 0.33759 0.9051 0.4996 0.0
H554 H 0.34313 0.88865 0.54111 0.0
H555 H 0.32807 0.87515 0.5695 0.0
H556 H 0.40692 0.09418 0.75925 0.0
H557 H 0.39342 0.10913 0.73107 0.0
H558 H 0.36266 0.09237 0.78438 0.0
H559 H 0.37618 0.07751 0.81338 0.0
H560 H 0.3755 0.10377 0.68264 0.0
H561 H 0.3562 0.12809 0.80277 0.0
H562 H 0.36945 0.11848 0.80629 0.0
H563 H 0.35449 0.11189 0.80532 0.0
C564 C 0.39731 0.09383 0.76568 0.0
C565 C 0.39262 0.08466 0.7886 0.0
C566 C 0.3896 0.10236 0.7494 0.0
C567 C 0.37703 0.10191 0.75566 0.0
C568 C 0.37235 0.09304 0.77965 0.0
H569 H 0.32082 0.13197 0.6134 0.0
H570 H 0.33593 0.11876 0.64255 0.0
C571 C 0.38009 0.08454 0.79621 0.0
C572 C 0.36881 0.11014 0.73491 0.0
H573 H 0.34667 0.13159 0.74494 0.0
C574 C 0.36924 0.10991 0.69626 0.0
C575 C 0.36071 0.1182 0.75268 0.0
C576 C 0.36024 0.1193 0.79404 0.0
C577 C 0.36172 0.11744 0.6749 0.0
C578 C 0.35338 0.12525 0.69266 0.0
C579 C 0.35303 0.12555 0.73132 0.0
C580 C 0.34499 0.1333 0.6719 0.0
C581 C 0.36296 0.11712 0.63356 0.0
C582 C 0.34508 0.14586 0.67849 0.0
C583 C 0.33641 0.15339 0.66212 0.0
C584 C 0.32745 0.14852 0.63879 0.0
C585 C 0.32768 0.13601 0.6309 0.0
C586 C 0.33633 0.12845 0.64754 0.0
H587 H 0.37189 0.11336 0.62495 0.0
H588 H 0.35575 0.11121 0.62194 0.0
H589 H 0.36192 0.12634 0.62153 0.0
H590 H 0.35168 0.1498 0.69711 0.0
H591 H 0.33649 0.16298 0.66878 0.0
H592 H 0.82516 0.87308 0.10212 0.0
H593 H 0.84081 0.88665 0.12702 0.0
H594 H 0.84805 0.86093 0.21395 0.0
H595 H 0.8328 0.84726 0.18879 0.0
H596 H 0.84057 0.89738 0.19321 0.0
H597 H 0.88199 0.86913 0.18253 0.0
H598 H 0.86808 0.86533 0.15888 0.0
H599 H 0.87005 0.8614 0.20663 0.0
C600 C 0.83029 0.87021 0.12603 0.0
C601 C 0.82776 0.85907 0.14338 0.0
C602 C 0.83919 0.87799 0.14033 0.0
C603 C 0.84571 0.87475 0.17212 0.0
C604 C 0.84337 0.86351 0.18891 0.0
H605 H 0.87977 0.92672 0.32186 0.0
H606 H 0.86655 0.91126 0.29425 0.0
C607 C 0.83457 0.85572 0.17454 0.0
C608 C 0.85427 0.88345 0.18951 0.0
H609 H 0.8831 0.8862 0.22327 0.0
C610 C 0.8499 0.89498 0.1995 0.0
C611 C 0.86647 0.88034 0.1975 0.0
C612 C 0.87196 0.86842 0.18548 0.0
C613 C 0.85734 0.90342 0.21771 0.0
C614 C 0.86938 0.90011 0.22715 0.0
C615 C 0.8738 0.88865 0.21664 0.0
C616 C 0.87777 0.90866 0.24592 0.0
C617 C 0.85229 0.91588 0.22587 0.0
C618 C 0.88875 0.91185 0.22894 0.0
C619 C 0.89639 0.92047 0.24493 0.0
C620 C 0.8932 0.92614 0.27825 0.0
C621 C 0.88244 0.92257 0.29609 0.0
C622 C 0.87483 0.91383 0.28015 0.0
H623 H 0.84429 0.91801 0.20833 0.0
H624 H 0.84931 0.91624 0.25502 0.0
H625 H 0.85928 0.92302 0.22156 0.0
H626 H 0.89125 0.90793 0.20266 0.0
H627 H 0.90462 0.92297 0.23045 0.0
H628 H 0.90399 0.08692 0.95004 0.0
H629 H 0.89064 0.10176 0.97881 0.0
H630 H 0.86587 0.09904 0.88716 0.0
H631 H 0.87907 0.08376 0.85856 0.0
H632 H 0.88259 0.12358 0.95969 0.0
H633 H 0.84358 0.09195 0.97253 0.0
H634 H 0.85852 0.08693 0.95895 0.0
H635 H 0.84857 0.09399 0.92594 0.0
C636 C 0.89575 0.08951 0.93576 0.0
C637 C 0.89253 0.08407 0.90211 0.0
C638 C 0.88811 0.09801 0.95232 0.0
C639 C 0.87712 0.10132 0.93559 0.0
C640 C 0.87415 0.09637 0.90108 0.0
H641 H 0.8327 0.16279 0.99485 0.0
H642 H 0.84781 0.14902 0.96942 0.0
C643 C 0.88175 0.08774 0.88458 0.0
C644 C 0.86877 0.1098 0.95483 0.0
H645 H 0.83993 0.11255 0.98847 0.0
C646 C 0.87327 0.12115 0.96606 0.0
C647 C 0.8567 0.10652 0.96395 0.0
C648 C 0.85157 0.09414 0.95508 0.0
C649 C 0.86597 0.1294 0.98554 0.0
C650 C 0.85373 0.12635 0.99311 0.0
C651 C 0.8493 0.11491 0.98248 0.0
C652 C 0.8452 0.13505 0.01061 0.0
C653 C 0.87154 0.1412 0.99833 0.0
C654 C 0.83856 0.13174 0.04209 0.0
C655 C 0.82973 0.13957 0.05654 0.0
C656 C 0.82741 0.15083 0.03965 0.0
C657 C 0.83432 0.15423 0.00875 0.0
C658 C 0.84304 0.14638 0.99424 0.0
H659 H 0.88155 0.14037 1.00156 0.0
H660 H 0.86978 0.14835 0.97746 0.0
H661 H 0.86761 0.14419 0.02496 0.0
H662 H 0.84004 0.123 0.05507 0.0
H663 H 0.82452 0.13666 0.08023 0.0
H664 H 0.66152 0.15914 0.67131 0.0
H665 H 0.64719 0.14511 0.70006 0.0
H666 H 0.664 0.11508 0.64337 0.0
H667 H 0.67829 0.12914 0.61382 0.0
H668 H 0.63888 0.11326 0.64605 0.0
H669 H 0.65767 0.12301 0.78445 0.0
H670 H 0.65256 0.13638 0.76075 0.0
H671 H 0.66511 0.12779 0.74262 0.0
C672 C 0.66207 0.14957 0.66449 0.0
C673 C 0.67111 0.14522 0.64054 0.0
C674 C 0.65393 0.14156 0.68121 0.0
C675 C 0.65476 0.12903 0.67469 0.0
C676 C 0.6633 0.12472 0.64909 0.0
H677 H 0.62246 0.07275 0.8132 0.0
H678 H 0.63656 0.08674 0.78258 0.0
C679 C 0.67142 0.13276 0.6321 0.0
C680 C 0.64694 0.12044 0.69543 0.0
H681 H 0.63929 0.11159 0.78255 0.0
C682 C 0.639 0.11285 0.67588 0.0
C683 C 0.64729 0.11974 0.73434 0.0
C684 C 0.6562 0.12707 0.7568 0.0
C685 C 0.63113 0.10484 0.69424 0.0
C686 C 0.63104 0.1046 0.73322 0.0
C687 C 0.63924 0.11192 0.75272 0.0
C688 C 0.62249 0.0968 0.75416 0.0
C689 C 0.62311 0.09658 0.67166 0.0
C690 C 0.60991 0.09815 0.74958 0.0
C691 C 0.60186 0.09019 0.76694 0.0
C692 C 0.60624 0.08079 0.78961 0.0
C693 C 0.61881 0.0799 0.79596 0.0
C694 C 0.62688 0.08785 0.77835 0.0
H695 H 0.6267 0.09537 0.64333 0.0
H696 H 0.62221 0.0875 0.68474 0.0
H697 H 0.61392 0.10066 0.66945 0.0
H698 H 0.60631 0.10522 0.73189 0.0
H699 H 0.59222 0.09119 0.76172 0.0
H700 H 0.62274 0.93747 0.36875 0.0
H701 H 0.63636 0.92287 0.39856 0.0
H702 H 0.60559 0.90539 0.44958 0.0
H703 H 0.59197 0.92006 0.42059 0.0
H704 H 0.62322 0.9108 0.49917 0.0
H705 H 0.64333 0.8873 0.37868 0.0
H706 H 0.64482 0.90354 0.37703 0.0
H707 H 0.62997 0.89674 0.37509 0.0
C708 C 0.61886 0.93035 0.38568 0.0
C709 C 0.60628 0.92992 0.3923 0.0
C710 C 0.62666 0.922 0.40268 0.0
C711 C 0.62199 0.91299 0.42615 0.0
C712 C 0.60939 0.91228 0.43164 0.0
H713 H 0.66215 0.85155 0.51134 0.0
H714 H 0.64713 0.86497 0.48319 0.0
C715 C 0.60162 0.92065 0.41491 0.0
C716 C 0.63021 0.90477 0.44689 0.0
H717 H 0.65251 0.88348 0.43676 0.0
C718 C 0.6296 0.90478 0.48553 0.0
C719 C 0.63845 0.89686 0.42907 0.0
C720 C 0.63913 0.89599 0.38768 0.0
C721 C 0.63704 0.89716 0.50683 0.0
C722 C 0.6455 0.88948 0.48904 0.0
C723 C 0.64606 0.88942 0.4504 0.0
C724 C 0.65376 0.88128 0.50971 0.0
C725 C 0.6356 0.89722 0.54812 0.0
C726 C 0.66231 0.88593 0.53476 0.0
C727 C 0.67085 0.87823 0.5513 0.0
C728 C 0.67108 0.86578 0.54261 0.0
C729 C 0.66222 0.8611 0.5186 0.0
C730 C 0.65366 0.86876 0.50235 0.0
H731 H 0.62664 0.90097 0.55654 0.0
H732 H 0.63654 0.88792 0.55965 0.0
H733 H 0.64278 0.90303 0.56041 0.0
H734 H 0.6627 0.89558 0.54037 0.0
H735 H 0.67764 0.88212 0.56935 0.0
H736 H 0.674 0.63762 0.5777 0.0
H737 H 0.65898 0.62355 0.55179 0.0
H738 H 0.65014 0.6498 0.46776 0.0
H739 H 0.66477 0.66397 0.49396 0.0
H740 H 0.63009 0.63864 0.49251 0.0
H741 H 0.66542 0.60443 0.45871 0.0
H742 H 0.66467 0.60811 0.50676 0.0
H743 H 0.66912 0.61957 0.47408 0.0
C744 C 0.66871 0.64045 0.55407 0.0
C745 C 0.67065 0.65187 0.53772 0.0
C746 C 0.66023 0.63236 0.53906 0.0
C747 C 0.65367 0.63551 0.50724 0.0
C748 C 0.65516 0.64714 0.49211 0.0
H749 H 0.6194 0.58372 0.35801 0.0
H750 H 0.63216 0.59972 0.3848 0.0
C751 C 0.66354 0.65524 0.50719 0.0
C752 C 0.64551 0.62665 0.48882 0.0
H753 H 0.64496 0.59873 0.44789 0.0
C754 C 0.63334 0.62991 0.48274 0.0
C755 C 0.64983 0.61539 0.47528 0.0
C756 C 0.663 0.61169 0.47866 0.0
C757 C 0.62533 0.62216 0.46399 0.0
C758 C 0.62952 0.61068 0.4518 0.0
C759 C 0.64173 0.60749 0.45741 0.0
C760 C 0.62133 0.60168 0.43419 0.0
C761 C 0.61252 0.62645 0.45682 0.0
C762 C 0.61101 0.59751 0.45294 0.0
C763 C 0.60367 0.58851 0.43758 0.0
C764 C 0.60659 0.58332 0.40333 0.0
C765 C 0.61687 0.58758 0.38432 0.0
C766 C 0.62418 0.59668 0.39966 0.0
H767 H 0.61194 0.63654 0.45687 0.0
H768 H 0.60907 0.62305 0.43002 0.0
H769 H 0.60647 0.62303 0.47895 0.0
H770 H 0.60879 0.60098 0.48 0.0
H771 H 0.59588 0.58537 0.45316 0.0
H772 H 0.59392 0.42271 0.73314 0.0
H773 H 0.60732 0.40726 0.7078 0.0
H774 H 0.63166 0.41168 0.79988 0.0
H775 H 0.61838 0.42752 0.82511 0.0
H776 H 0.64362 0.41234 0.73529 0.0
H777 H 0.61304 0.37245 0.73604 0.0
H778 H 0.60638 0.38515 0.71262 0.0
H779 H 0.60962 0.38618 0.76111 0.0
C780 C 0.60202 0.42029 0.74842 0.0
C781 C 0.60507 0.42635 0.78123 0.0
C782 C 0.60965 0.41138 0.73393 0.0
C783 C 0.62041 0.40817 0.75218 0.0
C784 C 0.62336 0.41398 0.78544 0.0
H785 H 0.66648 0.34766 0.69197 0.0
H786 H 0.65172 0.36133 0.71986 0.0
C787 C 0.61575 0.42299 0.7999 0.0
C788 C 0.62894 0.39939 0.73503 0.0
H789 H 0.63069 0.37098 0.6977 0.0
C790 C 0.64083 0.40325 0.72736 0.0
C791 C 0.62532 0.38751 0.72493 0.0
C792 C 0.61293 0.38253 0.73445 0.0
C793 C 0.64915 0.39564 0.70931 0.0
C794 C 0.64535 0.38396 0.69769 0.0
C795 C 0.63353 0.38002 0.70599 0.0
C796 C 0.65372 0.37543 0.67876 0.0
C797 C 0.66198 0.4001 0.70358 0.0
C798 C 0.65949 0.37863 0.64562 0.0
C799 C 0.66805 0.37083 0.62964 0.0
C800 C 0.67085 0.35965 0.64631 0.0
C801 C 0.66457 0.35623 0.67842 0.0
C802 C 0.65612 0.36404 0.69447 0.0
H803 H 0.66426 0.40768 0.72255 0.0
H804 H 0.66866 0.39267 0.70782 0.0
H805 H 0.66295 0.4035 0.67499 0.0
H806 H 0.65752 0.38724 0.63247 0.0
H807 H 0.67268 0.37369 0.60481 0.0
H808 H 0.90646 0.41864 0.91467 0.0
H809 H 0.89256 0.40434 0.94403 0.0
H810 H 0.86206 0.42279 0.89458 0.0
H811 H 0.87597 0.43706 0.86447 0.0
H812 H 0.87506 0.41043 0.99445 0.0
H813 H 0.85437 0.38722 0.87416 0.0
H814 H 0.86801 0.39624 0.87055 0.0
H815 H 0.8534 0.4035 0.87263 0.0
C816 C 0.89681 0.41953 0.90943 0.0
C817 C 0.89231 0.42898 0.88719 0.0
C818 C 0.88887 0.41137 0.92638 0.0
C819 C 0.87628 0.41246 0.92143 0.0
C820 C 0.87176 0.42165 0.89831 0.0
H821 H 0.82068 0.38136 0.06499 0.0
H822 H 0.83531 0.39509 0.03566 0.0
C823 C 0.87972 0.4298 0.88113 0.0
C824 C 0.86794 0.40442 0.9423 0.0
H825 H 0.84553 0.38323 0.93248 0.0
C826 C 0.86861 0.40445 0.98092 0.0
C827 C 0.85961 0.39659 0.92458 0.0
C828 C 0.85884 0.39576 0.8832 0.0
C829 C 0.86116 0.39688 1.00233 0.0
C830 C 0.85267 0.38921 0.98463 0.0
C831 C 0.85201 0.38917 0.94601 0.0
C832 C 0.84457 0.3809 0.00539 0.0
C833 C 0.86264 0.39694 0.04361 0.0
C834 C 0.84498 0.36838 0.99837 0.0
C835 C 0.83661 0.36056 0.01486 0.0
C836 C 0.82764 0.3651 0.03873 0.0
C837 C 0.82755 0.37758 0.04702 0.0
C838 C 0.83591 0.38543 0.03028 0.0
H839 H 0.8715 0.4009 0.05204 0.0
H840 H 0.85531 0.40253 0.056 0.0
H841 H 0.86194 0.3876 0.05501 0.0
H842 H 0.8516 0.36469 0.97934 0.0
H843 H 0.83694 0.35099 0.00792 0.0
H844 H 0.82623 0.63309 0.10055 0.0
H845 H 0.84173 0.61971 0.1273 0.0
H846 H 0.84651 0.64479 0.21732 0.0
H847 H 0.83148 0.65834 0.19027 0.0
H848 H 0.86773 0.63604 0.19632 0.0
H849 H 0.83528 0.59791 0.21404 0.0
H850 H 0.83693 0.60266 0.16707 0.0
H851 H 0.83048 0.61292 0.20032 0.0
C852 C 0.83072 0.63582 0.12575 0.0
C853 C 0.82756 0.64674 0.1434 0.0
C854 C 0.83948 0.6281 0.14123 0.0
C855 C 0.84505 0.63109 0.17487 0.0
C856 C 0.84228 0.64224 0.19152 0.0
H857 H 0.87994 0.57891 0.32157 0.0
H858 H 0.86644 0.59421 0.29442 0.0
C859 C 0.83367 0.64999 0.17594 0.0
C860 C 0.85355 0.62258 0.19345 0.0
H861 H 0.85588 0.59388 0.22867 0.0
C862 C 0.86513 0.62682 0.20343 0.0
C863 C 0.85007 0.61064 0.20352 0.0
C864 C 0.83748 0.60578 0.19605 0.0
C865 C 0.87335 0.61945 0.2228 0.0
C866 C 0.87006 0.60735 0.23147 0.0
C867 C 0.85844 0.60314 0.22185 0.0
C868 C 0.8786 0.59878 0.24965 0.0
C869 C 0.88536 0.62483 0.23449 0.0
C870 C 0.88994 0.59631 0.23371 0.0
C871 C 0.89771 0.58774 0.24945 0.0
C872 C 0.89423 0.58125 0.28111 0.0
C873 C 0.88292 0.58379 0.29731 0.0
C874 C 0.87518 0.5925 0.28173 0.0
H875 H 0.88481 0.63489 0.23692 0.0
H876 H 0.88843 0.62106 0.26128 0.0
H877 H 0.89234 0.62272 0.21339 0.0
H878 H 0.89266 0.60075 0.20844 0.0
H879 H 0.9063 0.58591 0.23596 0.0
H880 H 0.33458 0.34769 0.67059 0.0
H881 H 0.34858 0.36179 0.7004 0.0
H882 H 0.33057 0.39197 0.64776 0.0
H883 H 0.3166 0.37785 0.61716 0.0
H884 H 0.35547 0.39442 0.64839 0.0
H885 H 0.33864 0.38274 0.7877 0.0
H886 H 0.34385 0.36975 0.76238 0.0
H887 H 0.33085 0.37814 0.74627 0.0
C888 C 0.33367 0.35731 0.66495 0.0
C889 C 0.32442 0.36166 0.64171 0.0
C890 C 0.34162 0.36537 0.68231 0.0
C891 C 0.34039 0.37794 0.67714 0.0
C892 C 0.33158 0.38229 0.65244 0.0
H893 H 0.37352 0.43375 0.81603 0.0
H894 H 0.35916 0.4197 0.78672 0.0
C895 C 0.32365 0.37422 0.63485 0.0
C896 C 0.34821 0.38651 0.6979 0.0
H897 H 0.35677 0.3946 0.78493 0.0
C898 C 0.35571 0.39451 0.67823 0.0
C899 C 0.34834 0.38678 0.73688 0.0
C900 C 0.3399 0.37899 0.75958 0.0
C901 C 0.36362 0.40251 0.69645 0.0
C902 C 0.36422 0.40231 0.73539 0.0
C903 C 0.35644 0.39459 0.7551 0.0
C904 C 0.37294 0.41001 0.75597 0.0
C905 C 0.37116 0.41119 0.6738 0.0
C906 C 0.38546 0.40885 0.74968 0.0
C907 C 0.39363 0.41684 0.76626 0.0
C908 C 0.38947 0.42607 0.78984 0.0
C909 C 0.377 0.42673 0.79804 0.0
C910 C 0.36879 0.41875 0.78119 0.0
H911 H 0.36717 0.41264 0.64604 0.0
H912 H 0.37204 0.42013 0.68767 0.0
H913 H 0.3804 0.40734 0.67009 0.0
H914 H 0.38888 0.40195 0.73114 0.0
H915 H 0.4032 0.41602 0.75965 0.0
H916 H 0.33025 0.66018 0.487 0.0
H917 H 0.3451 0.6467 0.45878 0.0
H918 H 0.34065 0.62123 0.54807 0.0
H919 H 0.32539 0.63458 0.57609 0.0
H920 H 0.36652 0.63781 0.47991 0.0
H921 H 0.33387 0.59997 0.45985 0.0
H922 H 0.32914 0.61494 0.47404 0.0
H923 H 0.33546 0.6045 0.50703 0.0
C924 C 0.33247 0.65176 0.50089 0.0
C925 C 0.32655 0.6484 0.53367 0.0
C926 C 0.34098 0.64405 0.48465 0.0
C927 C 0.34379 0.63283 0.50083 0.0
C928 C 0.33837 0.6297 0.53456 0.0
H929 H 0.40457 0.58709 0.44323 0.0
H930 H 0.39092 0.60218 0.46936 0.0
C931 C 0.32974 0.63739 0.55074 0.0
C932 C 0.35226 0.62441 0.48181 0.0
H933 H 0.35451 0.59587 0.44556 0.0
C934 C 0.36388 0.62864 0.47234 0.0
C935 C 0.34872 0.61255 0.47114 0.0
C936 C 0.33608 0.60774 0.47817 0.0
C937 C 0.37214 0.62129 0.4531 0.0
C938 C 0.36879 0.60925 0.4439 0.0
C939 C 0.3571 0.60508 0.4528 0.0
C940 C 0.37741 0.60065 0.42632 0.0
C941 C 0.38427 0.62658 0.44227 0.0
C942 C 0.37431 0.5946 0.39357 0.0
C943 C 0.38207 0.5858 0.37868 0.0
C944 C 0.39305 0.58289 0.39637 0.0
C945 C 0.39624 0.58917 0.42868 0.0
C946 C 0.38846 0.59788 0.44361 0.0
H947 H 0.38385 0.63665 0.44025 0.0
H948 H 0.39111 0.62427 0.46361 0.0
H949 H 0.38743 0.6229 0.41548 0.0
H950 H 0.36578 0.59656 0.37987 0.0
H951 H 0.37934 0.58108 0.35388 0.0
H952 H 0.11885 0.58139 0.32818 0.0
H953 H 0.13155 0.59722 0.30017 0.0
H954 H 0.10747 0.59852 0.20658 0.0
H955 H 0.09461 0.58311 0.23469 0.0
H956 H 0.1439 0.59602 0.23671 0.0
H957 H 0.11113 0.63404 0.22804 0.0
H958 H 0.10827 0.62065 0.25535 0.0
H959 H 0.10542 0.62054 0.20654 0.0
C960 C 0.11615 0.58523 0.30198 0.0
C961 C 0.10569 0.58104 0.2838 0.0
C962 C 0.12343 0.59423 0.28593 0.0
C963 C 0.12037 0.59919 0.25149 0.0
C964 C 0.10986 0.59509 0.23357 0.0
H965 H 0.17269 0.63439 0.10472 0.0
H966 H 0.15775 0.62042 0.13159 0.0
C967 C 0.10254 0.5862 0.24967 0.0
C968 C 0.12852 0.60807 0.2331 0.0
H969 H 0.12907 0.63587 0.19129 0.0
C970 C 0.14068 0.60477 0.22702 0.0
C971 C 0.12435 0.61953 0.22067 0.0
C972 C 0.11161 0.62396 0.22832 0.0
C973 C 0.14875 0.61255 0.20851 0.0
C974 C 0.14444 0.6238 0.19475 0.0
C975 C 0.13231 0.62715 0.20124 0.0
C976 C 0.15256 0.63256 0.17577 0.0
C977 C 0.16187 0.60875 0.20474 0.0
C978 C 0.15409 0.64425 0.19035 0.0
C979 C 0.16241 0.6523 0.1747 0.0
C980 C 0.16944 0.64881 0.14414 0.0
C981 C 0.16747 0.63731 0.12837 0.0
C982 C 0.15903 0.62928 0.14393 0.0
H983 H 0.16434 0.60156 0.22489 0.0
H984 H 0.16339 0.60505 0.17673 0.0
H985 H 0.16807 0.61661 0.20875 0.0
H986 H 0.14914 0.64703 0.21471 0.0
H987 H 0.16366 0.66109 0.18752 0.0
H988 H 0.12328 0.43534 0.86598 0.0
H989 H 0.13751 0.42095 0.89418 0.0
H990 H 0.10751 0.40186 0.94415 0.0
H991 H 0.0933 0.41626 0.91667 0.0
H992 H 0.12518 0.40816 0.99406 0.0
H993 H 0.14564 0.38548 0.87249 0.0
H994 H 0.1463 0.40179 0.87129 0.0
H995 H 0.13181 0.39426 0.86966 0.0
C996 C 0.1197 0.4279 0.88225 0.0
C997 C 0.10717 0.42695 0.88913 0.0
C998 C 0.12785 0.41968 0.89835 0.0
C999 C 0.12356 0.41031 0.92119 0.0
C1000 C 0.11101 0.40904 0.92671 0.0
H1001 H 0.16373 0.3491 0.00657 0.0
H1002 H 0.14902 0.36271 0.97778 0.0
C1003 C 0.1029 0.41726 0.91084 0.0
C1004 C 0.13211 0.40232 0.94152 0.0
H1005 H 0.15473 0.38142 0.93043 0.0
C1006 C 0.13163 0.40229 0.98017 0.0
C1007 C 0.14046 0.39463 0.92333 0.0
C1008 C 0.14105 0.39392 0.88191 0.0
C1009 C 0.13928 0.39477 1.00113 0.0
C1010 C 0.14778 0.38724 0.98297 0.0
C1011 C 0.14825 0.38726 0.94432 0.0
C1012 C 0.15607 0.379 0.00333 0.0
C1013 C 0.13801 0.39477 0.04248 0.0
C1014 C 0.16479 0.38362 0.02789 0.0
C1015 C 0.17318 0.37582 0.04472 0.0
C1016 C 0.17307 0.36331 0.03691 0.0
C1017 C 0.16408 0.35869 0.01319 0.0
C1018 C 0.15569 0.36647 0.99656 0.0
H1019 H 0.12916 0.39865 0.05137 0.0
H1020 H 0.13884 0.38542 0.05371 0.0
H1021 H 0.14536 0.40039 0.05462 0.0
H1022 H 0.16537 0.39329 0.03307 0.0
H1023 H 0.18007 0.37966 0.06256 0.0
H1024 H 0.21258 0.15928 0.95567 0.0
H1025 H 0.22208 0.15646 0.89577 0.0
H1026 H 0.25746 0.15636 0.94681 0.0
H1027 H 0.24801 0.1593 0.00728 0.0
H1028 H 0.25488 0.17287 0.88807 0.0
H1029 H 0.23862 0.12703 0.84803 0.0
H1030 H 0.22678 0.13708 0.86316 0.0
H1031 H 0.23836 0.13237 0.89503 0.0
C1032 C 0.22238 0.15851 0.95437 0.0
C1033 C 0.22954 0.15956 0.98632 0.0
C1034 C 0.22779 0.15679 0.92005 0.0
C1035 C 0.24045 0.15604 0.91692 0.0
C1036 C 0.24765 0.15682 0.94876 0.0
H1037 H 0.28845 0.15833 0.72795 0.0
H1038 H 0.27976 0.1562 0.78926 0.0
C1039 C 0.24224 0.15849 0.98325 0.0
C1040 C 0.24614 0.15558 0.88004 0.0
H1041 H 0.24716 0.13924 0.80018 0.0
C1042 C 0.25332 0.16545 0.86899 0.0
C1043 C 0.24395 0.14595 0.85511 0.0
C1044 C 0.23659 0.13495 0.86597 0.0
C1045 C 0.25815 0.16612 0.83335 0.0
C1046 C 0.25594 0.15651 0.80835 0.0
C1047 C 0.24882 0.14659 0.81942 0.0
C1048 C 0.26109 0.15664 0.77073 0.0
C1049 C 0.26528 0.17728 0.82244 0.0
C1050 C 0.25345 0.15706 0.73978 0.0
C1051 C 0.2584 0.15819 0.70443 0.0
C1052 C 0.27106 0.15893 0.69961 0.0
C1053 C 0.27865 0.15797 0.73066 0.0
C1054 C 0.27371 0.15678 0.7658 0.0
H1055 H 0.26346 0.18505 0.84115 0.0
H1056 H 0.27514 0.1752 0.82382 0.0
H1057 H 0.26309 0.18009 0.79385 0.0
H1058 H 0.24367 0.15688 0.74308 0.0
H1059 H 0.25232 0.15886 0.68107 0.0
H1060 H 0.09838 0.96919 0.21077 0.0
H1061 H 0.10029 0.9784 0.15014 0.0
H1062 H 0.09294 0.01369 0.1966 0.0
H1063 H 0.09107 0.00452 0.25796 0.0
H1064 H 0.08134 0.99105 0.11546 0.0
H1065 H 0.12274 0.0196 0.12941 0.0
H1066 H 0.11922 0.00738 0.1609 0.0
H1067 H 0.11146 0.02168 0.16463 0.0
C1068 C 0.0973 0.97894 0.20836 0.0
C1069 C 0.09449 0.98612 0.23929 0.0
C1070 C 0.09841 0.98418 0.17359 0.0
C1071 C 0.09682 0.99671 0.1689 0.0
C1072 C 0.09439 0.004 0.19976 0.0
H1073 H 0.09042 0.04473 0.98414 0.0
H1074 H 0.09259 0.03501 0.04387 0.0
C1075 C 0.09328 0.99876 0.23477 0.0
C1076 C 0.09678 0.00188 0.13124 0.0
H1077 H 0.1112 0.02201 0.07469 0.0
C1078 C 0.08791 0.99777 0.10641 0.0
C1079 C 0.10536 0.01062 0.11964 0.0
C1080 C 0.11531 0.01504 0.14486 0.0
C1081 C 0.08719 0.0024 0.0705 0.0
C1082 C 0.09575 0.01119 0.05886 0.0
C1083 C 0.1047 0.01521 0.08362 0.0
C1084 C 0.09505 0.01691 0.02196 0.0
C1085 C 0.077 0.99814 0.04584 0.0
C1086 C 0.09591 0.00998 0.98958 0.0
C1087 C 0.09456 0.01551 0.95506 0.0
C1088 C 0.09245 0.02809 0.95242 0.0
C1089 C 0.09197 0.03501 0.98499 0.0
C1090 C 0.09326 0.02948 0.01929 0.0
H1091 H 0.06963 0.99363 0.06167 0.0
H1092 H 0.07303 0.00587 0.03025 0.0
H1093 H 0.08062 0.99148 0.02574 0.0
H1094 H 0.09754 0.00029 0.99101 0.0
H1095 H 0.09508 0.00994 0.93055 0.0
H1096 H 0.24795 0.84894 0.17513 0.0
H1097 H 0.25687 0.85081 0.23687 0.0
H1098 H 0.22118 0.85626 0.28287 0.0
H1099 H 0.21221 0.85436 0.2219 0.0
H1100 H 0.25468 0.87008 0.29279 0.0
H1101 H 0.23486 0.82597 0.33723 0.0
H1102 H 0.23607 0.8303 0.28944 0.0
H1103 H 0.22425 0.83658 0.31772 0.0
C1104 C 0.24203 0.85066 0.19835 0.0
C1105 C 0.22936 0.85134 0.1936 0.0
C1106 C 0.24713 0.85172 0.23355 0.0
C1107 C 0.23964 0.85345 0.26441 0.0
C1108 C 0.22708 0.8547 0.25948 0.0
H1109 H 0.25312 0.85101 0.50147 0.0
H1110 H 0.24348 0.85376 0.44108 0.0
C1111 C 0.22199 0.85363 0.22452 0.0
C1112 C 0.2448 0.85348 0.30203 0.0
H1113 H 0.24471 0.83765 0.38285 0.0
C1114 C 0.25254 0.86299 0.31251 0.0
C1115 C 0.24189 0.84426 0.3277 0.0
C1116 C 0.23389 0.83363 0.31751 0.0
C1117 C 0.2574 0.86357 0.34823 0.0
C1118 C 0.25461 0.85425 0.37378 0.0
C1119 C 0.24677 0.84482 0.36332 0.0
C1120 C 0.26039 0.85361 0.4106 0.0
C1121 C 0.26536 0.87422 0.3584 0.0
C1122 C 0.27304 0.85258 0.41343 0.0
C1123 C 0.27854 0.85102 0.44766 0.0
C1124 C 0.2715 0.85034 0.47997 0.0
C1125 C 0.2588 0.85152 0.47719 0.0
C1126 C 0.25329 0.85309 0.44273 0.0
H1127 H 0.26349 0.88222 0.34061 0.0
H1128 H 0.26402 0.87688 0.38758 0.0
H1129 H 0.27503 0.87165 0.35457 0.0
H1130 H 0.27867 0.85265 0.38899 0.0
H1131 H 0.28833 0.85012 0.44863 0.0
H1132 H 0.40233 0.01019 0.74497 0.0
H1133 H 0.40006 0.00156 0.68306 0.0
H1134 H 0.4019 0.03752 0.63622 0.0
H1135 H 0.40432 0.04618 0.69744 0.0
H1136 H 0.38276 0.00616 0.62574 0.0
H1137 H 0.42963 0.01917 0.58492 0.0
H1138 H 0.42461 0.01922 0.63219 0.0
H1139 H 0.42059 0.03153 0.60198 0.0
C1140 C 0.40218 0.01625 0.72149 0.0
C1141 C 0.40367 0.02885 0.72613 0.0
C1142 C 0.40088 0.01132 0.68619 0.0
C1143 C 0.40105 0.0189 0.6551 0.0
C1144 C 0.40201 0.0315 0.65981 0.0
H1145 H 0.40321 0.00506 0.41893 0.0
H1146 H 0.40064 0.01488 0.47903 0.0
C1147 C 0.40337 0.03642 0.6949 0.0
C1148 C 0.40061 0.01369 0.61759 0.0
H1149 H 0.41695 0.01134 0.53807 0.0
C1150 C 0.39022 0.00726 0.60655 0.0
C1151 C 0.41037 0.01518 0.59264 0.0
C1152 C 0.42198 0.02155 0.60353 0.0
C1153 C 0.3893 0.00236 0.57096 0.0
C1154 C 0.39908 0.00383 0.5461 0.0
C1155 C 0.40941 0.01034 0.5571 0.0
C1156 C 0.3992 0.99802 0.50939 0.0
C1157 C 0.37783 0.99576 0.56013 0.0
C1158 C 0.39917 0.98532 0.50665 0.0
C1159 C 0.40068 0.97971 0.47255 0.0
C1160 C 0.40229 0.98669 0.44045 0.0
C1161 C 0.40195 0.99943 0.44309 0.0
C1162 C 0.4005 0.00505 0.47737 0.0
H1163 H 0.37005 0.99836 0.57797 0.0
H1164 H 0.3754 0.99765 0.53102 0.0
H1165 H 0.37929 0.98583 0.5631 0.0
H1166 H 0.39842 0.97972 0.53108 0.0
H1167 H 0.40087 0.96987 0.47155 0.0
H1168 H 0.78644 0.8478 0.23049 0.0
H1169 H 0.77663 0.8511 0.28967 0.0
H1170 H 0.74215 0.85597 0.23521 0.0
H1171 H 0.75189 0.85247 0.17544 0.0
H1172 H 0.76314 0.87072 0.31725 0.0
H1173 H 0.73565 0.82839 0.30885 0.0
H1174 H 0.74818 0.83142 0.27818 0.0
H1175 H 0.73379 0.83877 0.2711 0.0
C1176 C 0.77677 0.8496 0.2309 0.0
C1177 C 0.76993 0.84974 0.19815 0.0
C1178 C 0.77119 0.85153 0.26483 0.0
C1179 C 0.75865 0.85361 0.26685 0.0
C1180 C 0.75182 0.85417 0.23423 0.0
H1181 H 0.71065 0.85668 0.45541 0.0
H1182 H 0.71953 0.85853 0.39427 0.0
C1183 C 0.7574 0.85222 0.20012 0.0
C1184 C 0.75279 0.85476 0.30336 0.0
H1185 H 0.73291 0.84061 0.3613 0.0
C1186 C 0.75648 0.86418 0.32689 0.0
C1187 C 0.74418 0.84616 0.31586 0.0
C1188 C 0.74026 0.83554 0.29239 0.0
C1189 C 0.75173 0.86528 0.36261 0.0
C1190 C 0.74322 0.8566 0.37521 0.0
C1191 C 0.73943 0.84727 0.35151 0.0
C1192 C 0.73812 0.85687 0.41293 0.0
C1193 C 0.75577 0.87576 0.38638 0.0
C1194 C 0.74566 0.85549 0.44388 0.0
C1195 C 0.7406 0.85447 0.47912 0.0
C1196 C 0.72791 0.85467 0.48382 0.0
C1197 C 0.72045 0.85641 0.4528 0.0
C1198 C 0.7255 0.85748 0.41777 0.0
H1199 H 0.75967 0.88327 0.36968 0.0
H1200 H 0.74807 0.87938 0.40282 0.0
H1201 H 0.76289 0.87257 0.40572 0.0
H1202 H 0.75541 0.85476 0.44068 0.0
H1203 H 0.74658 0.85308 0.50241 0.0
H1204 H 0.89652 0.04153 0.9719 0.0
H1205 H 0.89446 0.03223 0.03256 0.0
H1206 H 0.90812 0.99836 0.98974 0.0
H1207 H 0.91019 0.0076 0.92846 0.0
H1208 H 0.88166 0.00901 0.05557 0.0
H1209 H 0.93183 0.01024 0.07621 0.0
H1210 H 0.92426 0.01962 0.04244 0.0
H1211 H 0.92626 0.00369 0.03405 0.0
C1212 C 0.89897 0.03205 0.97518 0.0
C1213 C 0.90363 0.02531 0.94544 0.0
C1214 C 0.89774 0.02676 0.00986 0.0
C1215 C 0.90124 0.01468 0.01557 0.0
C1216 C 0.90544 0.00774 0.98575 0.0
H1217 H 0.89654 0.96889 0.20684 0.0
H1218 H 0.8942 0.97834 0.1465 0.0
C1219 C 0.90657 0.01301 0.95081 0.0
C1220 C 0.9012 0.00968 0.0533 0.0
H1221 H 0.92003 0.00199 0.12421 0.0
C1222 C 0.89003 0.00742 0.07061 0.0
C1223 C 0.91214 0.00785 0.07288 0.0
C1224 C 0.92434 0.01053 0.05572 0.0
C1225 C 0.88954 0.00316 0.10702 0.0
C1226 C 0.9005 0.00116 0.12639 0.0
C1227 C 0.91165 0.00358 0.10922 0.0
C1228 C 0.90067 0.99598 0.16391 0.0
C1229 C 0.87735 0.0009 0.12472 0.0
C1230 C 0.90501 0.00282 0.19374 0.0
C1231 C 0.9063 0.99746 0.22849 0.0
C1232 C 0.90349 0.98512 0.23361 0.0
C1233 C 0.89884 0.97841 0.20378 0.0
C1234 C 0.89743 0.9838 0.1693 0.0
H1235 H 0.86983 0.00521 0.109 0.0
H1236 H 0.87565 0.99097 0.12591 0.0
H1237 H 0.87725 0.00443 0.15334 0.0
H1238 H 0.90762 0.01223 0.18993 0.0
H1239 H 0.90995 0.00284 0.25087 0.0
H1240 H 0.78654 0.16338 0.95316 0.0
H1241 H 0.77676 0.16072 0.89358 0.0
H1242 H 0.74179 0.15839 0.94664 0.0
H1243 H 0.7515 0.16124 0.00678 0.0
H1244 H 0.76206 0.14204 0.86577 0.0
H1245 H 0.73753 0.18618 0.87216 0.0
H1246 H 0.7497 0.18236 0.90338 0.0
H1247 H 0.73479 0.1761 0.91017 0.0
C1248 C 0.77676 0.16228 0.95235 0.0
C1249 C 0.76979 0.16265 0.98482 0.0
C1250 C 0.7712 0.16072 0.91819 0.0
C1251 C 0.75856 0.15953 0.91566 0.0
C1252 C 0.75156 0.1595 0.948 0.0
H1253 H 0.7101 0.15775 0.7285 0.0
H1254 H 0.71924 0.1562 0.78936 0.0
C1255 C 0.75713 0.16108 0.98233 0.0
C1256 C 0.75277 0.15871 0.87895 0.0
H1257 H 0.73384 0.17384 0.82036 0.0
C1258 C 0.75586 0.14897 0.85581 0.0
C1259 C 0.74476 0.16781 0.86601 0.0
C1260 C 0.74155 0.17877 0.88902 0.0
C1261 C 0.75104 0.14802 0.82013 0.0
C1262 C 0.74308 0.15715 0.80718 0.0
C1263 C 0.73994 0.16684 0.83042 0.0
C1264 C 0.73777 0.15689 0.76972 0.0
C1265 C 0.75436 0.13718 0.7968 0.0
C1266 C 0.74519 0.15767 0.73833 0.0
C1267 C 0.73998 0.15853 0.70324 0.0
C1268 C 0.72728 0.15876 0.6991 0.0
C1269 C 0.71992 0.15768 0.73063 0.0
C1270 C 0.72512 0.15678 0.76551 0.0
H1271 H 0.75801 0.1296 0.81371 0.0
H1272 H 0.74636 0.13385 0.78113 0.0
H1273 H 0.76147 0.13988 0.77675 0.0
H1274 H 0.75499 0.158 0.74104 0.0
H1275 H 0.74589 0.15941 0.67956 0.0
H1276 H 0.6084 0.01573 0.75102 0.0
H1277 H 0.61246 0.00734 0.68962 0.0
H1278 H 0.58146 0.02676 0.64669 0.0
H1279 H 0.5778 0.03559 0.70706 0.0
H1280 H 0.60057 0.99319 0.64668 0.0
H1281 H 0.60566 0.03637 0.57194 0.0
H1282 H 0.6051 0.03576 0.62151 0.0
H1283 H 0.59127 0.0363 0.59484 0.0
C1284 C 0.60251 0.01822 0.72834 0.0
C1285 C 0.59287 0.0264 0.73367 0.0
C1286 C 0.60485 0.01346 0.69328 0.0
C1287 C 0.59751 0.01672 0.66316 0.0
C1288 C 0.5876 0.02452 0.66898 0.0
H1289 H 0.57935 0.97525 0.47532 0.0
H1290 H 0.58271 0.98429 0.53551 0.0
C1291 C 0.58542 0.02945 0.70367 0.0
C1292 C 0.59968 0.01153 0.62597 0.0
H1293 H 0.5995 0.01901 0.53479 0.0
C1294 C 0.60057 0.99886 0.62227 0.0
C1295 C 0.6001 0.01889 0.59397 0.0
C1296 C 0.60063 0.03258 0.59586 0.0
C1297 C 0.601 0.99335 0.5875 0.0
C1298 C 0.59997 0.00066 0.55552 0.0
C1299 C 0.59997 0.01335 0.5592 0.0
C1300 C 0.59801 0.99532 0.51843 0.0
C1301 C 0.60249 0.97973 0.58557 0.0
C1302 C 0.60503 0.99901 0.48804 0.0
C1303 C 0.60285 0.99409 0.45307 0.0
C1304 C 0.59371 0.98532 0.4481 0.0
C1305 C 0.58659 0.98183 0.4784 0.0
C1306 C 0.5886 0.9869 0.51299 0.0
H1307 H 0.60785 0.97631 0.60935 0.0
H1308 H 0.59341 0.97536 0.58685 0.0
H1309 H 0.60709 0.97687 0.5598 0.0
H1310 H 0.61224 0.00561 0.49143 0.0
H1311 H 0.60847 0.99695 0.43017 0.0
H1312 H 0.74575 0.65882 0.50444 0.0
H1313 H 0.75537 0.65516 0.44457 0.0
H1314 H 0.72101 0.66106 0.39034 0.0
H1315 H 0.71131 0.66453 0.44961 0.0
H1316 H 0.73387 0.64105 0.36264 0.0
H1317 H 0.76266 0.68252 0.3709 0.0
H1318 H 0.76423 0.67209 0.40866 0.0
H1319 H 0.75006 0.67987 0.40166 0.0
C1320 C 0.74024 0.65928 0.47978 0.0
C1321 C 0.72778 0.66208 0.48185 0.0
C1322 C 0.74575 0.65723 0.44561 0.0
C1323 C 0.73892 0.65801 0.41304 0.0
C1324 C 0.72644 0.66044 0.41514 0.0
H1325 H 0.75111 0.65852 0.17757 0.0
H1326 H 0.74216 0.6569 0.23917 0.0
C1327 C 0.72094 0.66248 0.44913 0.0
C1328 C 0.74472 0.65669 0.37649 0.0
H1329 H 0.76504 0.67017 0.31853 0.0
C1330 C 0.74073 0.64738 0.35299 0.0
C1331 C 0.7536 0.66501 0.36397 0.0
C1332 C 0.75785 0.67551 0.3874 0.0
C1333 C 0.74544 0.64612 0.31726 0.0
C1334 C 0.75423 0.65452 0.30467 0.0
C1335 C 0.75831 0.66373 0.32833 0.0
C1336 C 0.75933 0.65406 0.26696 0.0
C1337 C 0.74108 0.63577 0.29348 0.0
C1338 C 0.77192 0.65297 0.26219 0.0
C1339 C 0.77704 0.65399 0.22724 0.0
C1340 C 0.76968 0.65616 0.19624 0.0
C1341 C 0.75701 0.65678 0.20084 0.0
C1342 C 0.75188 0.65581 0.236 0.0
H1343 H 0.73686 0.62843 0.31015 0.0
H1344 H 0.73414 0.63922 0.27393 0.0
H1345 H 0.74868 0.63186 0.27726 0.0
H1346 H 0.77783 0.65163 0.2857 0.0
H1347 H 0.78683 0.65337 0.2247 0.0
H1348 H 0.58062 0.51055 0.43318 0.0
H1349 H 0.58179 0.50199 0.49534 0.0
H1350 H 0.61293 0.52462 0.51842 0.0
H1351 H 0.61115 0.53381 0.45732 0.0
H1352 H 0.59653 0.48983 0.53459 0.0
H1353 H 0.59218 0.53485 0.6009 0.0
H1354 H 0.59064 0.53286 0.55195 0.0
H1355 H 0.60549 0.5341 0.57267 0.0
C1356 C 0.58779 0.51355 0.45146 0.0
C1357 C 0.59574 0.52287 0.4408 0.0
C1358 C 0.58844 0.50871 0.48701 0.0
C1359 C 0.5972 0.51296 0.51214 0.0
C1360 C 0.60577 0.52156 0.50022 0.0
H1361 H 0.6086 0.47377 0.71859 0.0
H1362 H 0.61103 0.48251 0.65713 0.0
C1363 C 0.60487 0.52668 0.46516 0.0
C1364 C 0.59711 0.50863 0.55094 0.0
H1365 H 0.5972 0.51833 0.64023 0.0
C1366 C 0.59662 0.49608 0.55768 0.0
C1367 C 0.59694 0.51677 0.5812 0.0
C1368 C 0.5962 0.53038 0.57633 0.0
C1369 C 0.59599 0.49143 0.5936 0.0
C1370 C 0.59652 0.49954 0.62388 0.0
C1371 C 0.59699 0.51209 0.61715 0.0
C1372 C 0.59611 0.49524 0.66269 0.0
C1373 C 0.59425 0.4779 0.59841 0.0
C1374 C 0.58761 0.50015 0.68748 0.0
C1375 C 0.58659 0.49553 0.72322 0.0
C1376 C 0.59391 0.48577 0.73445 0.0
C1377 C 0.60278 0.48123 0.71032 0.0
C1378 C 0.60405 0.4861 0.67505 0.0
H1379 H 0.59004 0.47374 0.57365 0.0
H1380 H 0.60324 0.47353 0.60248 0.0
H1381 H 0.58842 0.47583 0.62253 0.0
H1382 H 0.58145 0.50728 0.6788 0.0
H1383 H 0.57965 0.49912 0.74133 0.0
H1384 H 0.74734 0.34911 0.67098 0.0
H1385 H 0.75741 0.35176 0.73073 0.0
H1386 H 0.72262 0.35056 0.78519 0.0
H1387 H 0.71251 0.34812 0.7261 0.0
H1388 H 0.73792 0.36879 0.8122 0.0
H1389 H 0.76118 0.32396 0.80541 0.0
H1390 H 0.76406 0.334 0.76738 0.0
H1391 H 0.74903 0.32808 0.7745 0.0
C1392 C 0.74184 0.34949 0.69566 0.0
C1393 C 0.72913 0.34828 0.69373 0.0
C1394 C 0.7476 0.35094 0.72976 0.0
C1395 C 0.74075 0.35117 0.76238 0.0
C1396 C 0.72807 0.35037 0.76037 0.0
H1397 H 0.75279 0.35066 0.99837 0.0
H1398 H 0.74404 0.35224 0.93647 0.0
C1399 C 0.72232 0.34892 0.72648 0.0
C1400 C 0.74669 0.35185 0.79892 0.0
H1401 H 0.76503 0.33603 0.85759 0.0
C1402 C 0.74389 0.36166 0.82213 0.0
C1403 C 0.7544 0.34249 0.81181 0.0
C1404 C 0.7573 0.33147 0.78869 0.0
C1405 C 0.74867 0.36239 0.85791 0.0
C1406 C 0.75628 0.35297 0.87089 0.0
C1407 C 0.75918 0.34324 0.84752 0.0
C1408 C 0.76141 0.35296 0.90858 0.0
C1409 C 0.74565 0.37329 0.88135 0.0
C1410 C 0.77404 0.35277 0.91335 0.0
C1411 C 0.77904 0.35178 0.94847 0.0
C1412 C 0.77152 0.35091 0.97969 0.0
C1413 C 0.75884 0.35136 0.97495 0.0
C1414 C 0.75383 0.35233 0.93962 0.0
H1415 H 0.7423 0.38103 0.86449 0.0
H1416 H 0.7384 0.37079 0.90118 0.0
H1417 H 0.75371 0.37632 0.89728 0.0
H1418 H 0.78005 0.35322 0.88976 0.0
H1419 H 0.78885 0.35152 0.95102 0.0
H1420 H 0.89147 0.51348 0.24796 0.0
H1421 H 0.88839 0.50432 0.18704 0.0
H1422 H 0.91889 0.52474 0.14499 0.0
H1423 H 0.92152 0.53432 0.20479 0.0
H1424 H 0.90118 0.52588 0.09845 0.0
H1425 H 0.9069 0.4776 0.13962 0.0
H1426 H 0.89461 0.48518 0.16249 0.0
H1427 H 0.91002 0.48997 0.17065 0.0
C1428 C 0.89753 0.51592 0.22566 0.0
C1429 C 0.90673 0.52459 0.23104 0.0
C1430 C 0.89581 0.51065 0.19093 0.0
C1431 C 0.90352 0.5137 0.16143 0.0
C1432 C 0.91279 0.52226 0.16715 0.0
H1433 H 0.92227 0.47423 0.96883 0.0
H1434 H 0.91951 0.48333 0.02935 0.0
C1435 C 0.91431 0.52771 0.20142 0.0
C1436 C 0.90202 0.50827 0.12426 0.0
H1437 H 0.90235 0.48141 0.07738 0.0
C1438 C 0.90141 0.51614 0.09383 0.0
C1439 C 0.90233 0.49556 0.11823 0.0
C1440 C 0.90361 0.48658 0.14941 0.0
C1441 C 0.90172 0.51174 0.05761 0.0
C1442 C 0.90206 0.49903 0.05155 0.0
C1443 C 0.90208 0.49114 0.082 0.0
C1444 C 0.90354 0.49371 0.01422 0.0
C1445 C 0.90236 0.5208 0.02644 0.0
C1446 C 0.89552 0.49652 0.98529 0.0
C1447 C 0.89731 0.49157 0.95019 0.0
C1448 C 0.90692 0.48343 0.94385 0.0
C1449 C 0.91477 0.48046 0.97295 0.0
C1450 C 0.91317 0.48563 0.00762 0.0
H1451 H 0.90532 0.52991 0.03612 0.0
H1452 H 0.90875 0.51772 0.00473 0.0
H1453 H 0.89321 0.52182 0.014 0.0
H1454 H 0.88781 0.50245 0.98986 0.0
H1455 H 0.89102 0.49385 0.92832 0.0
H1456 H 0.25917 0.36384 0.6778 0.0
H1457 H 0.25069 0.36809 0.73895 0.0
H1458 H 0.26979 0.33703 0.78286 0.0
H1459 H 0.27871 0.33318 0.7227 0.0
H1460 H 0.2364 0.35644 0.78219 0.0
H1461 H 0.27961 0.36143 0.8568 0.0
H1462 H 0.279 0.36071 0.80725 0.0
H1463 H 0.27941 0.34696 0.83434 0.0
C1464 C 0.26156 0.35797 0.70062 0.0
C1465 C 0.26969 0.34827 0.69565 0.0
C1466 C 0.25675 0.36042 0.73554 0.0
C1467 C 0.25991 0.35312 0.76587 0.0
C1468 C 0.26762 0.34313 0.76039 0.0
H1469 H 0.21828 0.33611 0.95445 0.0
H1470 H 0.22731 0.33916 0.89407 0.0
C1471 C 0.27261 0.34084 0.72584 0.0
C1472 C 0.25472 0.35546 0.80296 0.0
H1473 H 0.26219 0.35561 0.89413 0.0
C1474 C 0.24207 0.35649 0.80661 0.0
C1475 C 0.26209 0.35596 0.83494 0.0
C1476 C 0.27578 0.35636 0.83303 0.0
C1477 C 0.23655 0.35712 0.84136 0.0
C1478 C 0.24385 0.35617 0.87337 0.0
C1479 C 0.25654 0.35603 0.8697 0.0
C1480 C 0.23849 0.35442 0.91053 0.0
C1481 C 0.22295 0.35875 0.84321 0.0
C1482 C 0.24227 0.36151 0.94064 0.0
C1483 C 0.23737 0.35951 0.97571 0.0
C1484 C 0.22852 0.35047 0.98107 0.0
C1485 C 0.22493 0.34328 0.95105 0.0
C1486 C 0.22999 0.34511 0.91636 0.0
H1487 H 0.21958 0.36404 0.81922 0.0
H1488 H 0.21849 0.34971 0.84228 0.0
H1489 H 0.22013 0.36348 0.8688 0.0
H1490 H 0.24894 0.36865 0.93695 0.0
H1491 H 0.2403 0.36518 0.9984 0.0
H1492 H 0.40696 0.50597 0.42262 0.0
H1493 H 0.40462 0.49601 0.48268 0.0
H1494 H 0.40094 0.53102 0.53474 0.0
H1495 H 0.40304 0.54098 0.47538 0.0
H1496 H 0.4199 0.49917 0.54259 0.0
H1497 H 0.3729 0.51227 0.58008 0.0
H1498 H 0.37864 0.51347 0.53367 0.0
H1499 H 0.38213 0.52502 0.56709 0.0
C1500 C 0.40545 0.51153 0.44679 0.0
C1501 C 0.4052 0.52428 0.44412 0.0
C1502 C 0.40414 0.50583 0.48107 0.0
C1503 C 0.40242 0.51277 0.5131 0.0
C1504 C 0.40196 0.52546 0.51034 0.0
H1505 H 0.40498 0.50037 0.74922 0.0
H1506 H 0.40344 0.50922 0.68729 0.0
C1507 C 0.40328 0.53115 0.47628 0.0
C1508 C 0.4021 0.50692 0.54986 0.0
H1509 H 0.38547 0.50489 0.62906 0.0
C1510 C 0.41231 0.50029 0.56133 0.0
C1511 C 0.39223 0.50851 0.5744 0.0
C1512 C 0.38081 0.51511 0.5631 0.0
C1513 C 0.41306 0.49545 0.59699 0.0
C1514 C 0.40326 0.49715 0.62164 0.0
C1515 C 0.393 0.50369 0.61014 0.0
C1516 C 0.40344 0.4919 0.65915 0.0
C1517 C 0.42447 0.48881 0.60832 0.0
C1518 C 0.40364 0.47927 0.66373 0.0
C1519 C 0.40452 0.47421 0.69881 0.0
C1520 C 0.40517 0.48168 0.73021 0.0
C1521 C 0.40454 0.49436 0.72565 0.0
C1522 C 0.40366 0.49943 0.69034 0.0
H1523 H 0.43219 0.49081 0.58956 0.0
H1524 H 0.42715 0.49127 0.63682 0.0
H1525 H 0.42276 0.47887 0.60755 0.0
H1526 H 0.40325 0.4733 0.64005 0.0
H1527 H 0.40484 0.4644 0.70119 0.0
H1528 H 0.24958 0.66165 0.50973 0.0
H1529 H 0.2397 0.65945 0.4495 0.0
H1530 H 0.27475 0.65511 0.3981 0.0
H1531 H 0.28463 0.6571 0.45763 0.0
H1532 H 0.24344 0.67483 0.38998 0.0
H1533 H 0.25543 0.62758 0.35184 0.0
H1534 H 0.25661 0.63318 0.39841 0.0
H1535 H 0.26835 0.63646 0.36543 0.0
C1536 C 0.25516 0.66001 0.48567 0.0
C1537 C 0.2679 0.65958 0.48854 0.0
C1538 C 0.24951 0.65877 0.45131 0.0
C1539 C 0.25649 0.65694 0.41941 0.0
C1540 C 0.26916 0.65624 0.4224 0.0
H1541 H 0.24476 0.66066 0.18316 0.0
H1542 H 0.25343 0.65859 0.24518 0.0
C1543 C 0.2748 0.65749 0.45654 0.0
C1544 C 0.25073 0.65684 0.38253 0.0
H1545 H 0.24848 0.64045 0.30296 0.0
C1546 C 0.24441 0.66725 0.37111 0.0
C1547 C 0.25212 0.64699 0.35784 0.0
C1548 C 0.2584 0.63537 0.36908 0.0
C1549 C 0.23969 0.66821 0.33537 0.0
C1550 C 0.2412 0.65842 0.31057 0.0
C1551 C 0.24742 0.64796 0.32201 0.0
C1552 C 0.23604 0.65884 0.27296 0.0
C1553 C 0.23339 0.67982 0.3241 0.0
C1554 C 0.22343 0.65934 0.26816 0.0
C1555 C 0.21848 0.66052 0.23304 0.0
C1556 C 0.22604 0.66118 0.20182 0.0
C1557 C 0.23869 0.66023 0.20658 0.0
C1558 C 0.24366 0.65904 0.24194 0.0
H1559 H 0.23552 0.68743 0.3431 0.0
H1560 H 0.23603 0.6825 0.29574 0.0
H1561 H 0.22341 0.67836 0.32449 0.0
H1562 H 0.21741 0.65898 0.29171 0.0
H1563 H 0.20869 0.66109 0.23049 0.0
H1564 H 0.09126 0.50329 0.26672 0.0
H1565 H 0.093 0.49299 0.20701 0.0
H1566 H 0.1023 0.52706 0.15546 0.0
H1567 H 0.10071 0.53733 0.21452 0.0
H1568 H 0.0786 0.49892 0.14601 0.0
H1569 H 0.12742 0.50389 0.11186 0.0
H1570 H 0.12164 0.50574 0.15804 0.0
H1571 H 0.12039 0.51792 0.12523 0.0
C1572 C 0.09392 0.50852 0.24278 0.0
C1573 C 0.09579 0.52113 0.24536 0.0
C1574 C 0.09489 0.50264 0.20872 0.0
C1575 C 0.09792 0.50925 0.17691 0.0
C1576 C 0.10019 0.52174 0.17973 0.0
H1577 H 0.09569 0.49919 0.9406 0.0
H1578 H 0.0979 0.50701 0.00352 0.0
C1579 C 0.09917 0.52761 0.21355 0.0
C1580 C 0.09753 0.50346 0.14014 0.0
H1581 H 0.11411 0.49899 0.06182 0.0
C1582 C 0.0864 0.49877 0.12777 0.0
C1583 C 0.1077 0.50342 0.11629 0.0
C1584 C 0.11999 0.50791 0.12861 0.0
C1585 C 0.08506 0.49436 0.09179 0.0
C1586 C 0.09518 0.49447 0.06778 0.0
C1587 C 0.10636 0.499 0.08026 0.0
C1588 C 0.09431 0.48972 0.02978 0.0
C1589 C 0.07273 0.48996 0.0794 0.0
C1590 C 0.09178 0.47741 0.02385 0.0
C1591 C 0.0905 0.47293 0.98817 0.0
C1592 C 0.09178 0.48068 0.95755 0.0
C1593 C 0.0946 0.49299 0.96354 0.0
C1594 C 0.09588 0.49747 0.99942 0.0
H1595 H 0.06536 0.49319 0.09787 0.0
H1596 H 0.07074 0.49305 0.05094 0.0
H1597 H 0.07262 0.47987 0.07959 0.0
H1598 H 0.09075 0.47124 0.0469 0.0
H1599 H 0.08844 0.46338 0.98469 0.0
H1600 H 0.19001 0.20705 0.08693 0.0
H1601 H 0.18922 0.22914 0.09437 0.0
H1602 H 0.22537 0.22885 0.14007 0.0
H1603 H 0.22634 0.20681 0.13248 0.0
H1604 H 0.19263 0.24465 0.15774 0.0
H1605 H 0.22769 0.25162 0.04966 0.0
H1606 H 0.21986 0.23735 0.05576 0.0
H1607 H 0.23204 0.2415 0.08618 0.0
C1608 C 0.19777 0.21165 0.09886 0.0
C1609 C 0.2083 0.20516 0.10871 0.0
C1610 C 0.19728 0.22427 0.10315 0.0
C1611 C 0.20731 0.23061 0.11722 0.0
C1612 C 0.21762 0.22412 0.12858 0.0
H1613 H 0.22584 0.30697 0.13077 0.0
H1614 H 0.2251 0.28495 0.13897 0.0
C1615 C 0.21813 0.21152 0.1243 0.0
C1616 C 0.20724 0.24406 0.11838 0.0
H1617 H 0.22113 0.26902 0.08188 0.0
C1618 C 0.19884 0.25001 0.14119 0.0
C1619 C 0.21534 0.25098 0.09663 0.0
C1620 C 0.22418 0.24507 0.0704 0.0
C1621 C 0.19848 0.26276 0.14328 0.0
C1622 C 0.2066 0.26968 0.12152 0.0
C1623 C 0.21497 0.26369 0.09874 0.0
C1624 C 0.20644 0.28314 0.12097 0.0
C1625 C 0.18957 0.26871 0.16916 0.0
C1626 C 0.19614 0.28945 0.10858 0.0
C1627 C 0.19652 0.30206 0.10393 0.0
C1628 C 0.20726 0.30857 0.11123 0.0
C1629 C 0.21743 0.30225 0.12479 0.0
C1630 C 0.21703 0.28966 0.12951 0.0
H1631 H 0.18646 0.26232 0.19089 0.0
H1632 H 0.19364 0.27682 0.1825 0.0
H1633 H 0.18148 0.2717 0.15336 0.0
H1634 H 0.18795 0.28458 0.10111 0.0
H1635 H 0.18853 0.30663 0.0933 0.0
H1636 H 0.04716 0.97616 0.38477 0.0
H1637 H 0.02532 0.97274 0.38973 0.0
H1638 H 0.02936 0.93774 0.33787 0.0
H1639 H 0.05126 0.94111 0.33238 0.0
H1640 H 0.01196 0.95241 0.305 0.0
H1641 H 0.00484 0.95076 0.45577 0.0
H1642 H 0.0134 0.96379 0.4412 0.0
H1643 H 0.01961 0.94881 0.43493 0.0
C1644 C 0.04346 0.96764 0.3749 0.0
C1645 C 0.05098 0.95893 0.35806 0.0
C1646 C 0.03097 0.96567 0.37803 0.0
C1647 C 0.02574 0.95492 0.36461 0.0
C1648 C 0.03324 0.94606 0.34864 0.0
H1649 H 0.94819 0.94011 0.3265 0.0
H1650 H 0.97011 0.93709 0.33372 0.0
C1651 C 0.04576 0.94801 0.34555 0.0
C1652 C 0.01236 0.95351 0.36412 0.0
H1653 H 0.98715 0.95451 0.41878 0.0
C1654 C 0.00652 0.95266 0.32989 0.0
C1655 C 0.00531 0.95387 0.39665 0.0
C1656 C 0.01111 0.95424 0.43425 0.0
C1657 C 0.9938 0.95275 0.32715 0.0
C1658 C 0.98675 0.95349 0.35962 0.0
C1659 C 0.99258 0.95395 0.39395 0.0
C1660 C 0.97335 0.9547 0.35826 0.0
C1661 C 0.98804 0.95267 0.28944 0.0
C1662 C 0.96787 0.96541 0.37095 0.0
C1663 C 0.95537 0.96715 0.3671 0.0
C1664 C 0.94808 0.95818 0.35051 0.0
C1665 C 0.95354 0.94724 0.33914 0.0
C1666 C 0.96607 0.94551 0.34308 0.0
H1667 H 0.99475 0.95461 0.26735 0.0
H1668 H 0.98405 0.94358 0.28412 0.0
H1669 H 0.98062 0.9595 0.28775 0.0
H1670 H 0.97334 0.9726 0.38287 0.0
H1671 H 0.95148 0.97565 0.37636 0.0
H1672 H 0.27907 0.80475 0.63171 0.0
H1673 H 0.28068 0.78277 0.63917 0.0
H1674 H 0.31523 0.78309 0.58326 0.0
H1675 H 0.3138 0.80515 0.57595 0.0
H1676 H 0.282 0.76702 0.57934 0.0
H1677 H 0.32165 0.76083 0.67222 0.0
H1678 H 0.31371 0.77513 0.66792 0.0
H1679 H 0.32427 0.77045 0.63303 0.0
C1680 C 0.28712 0.8002 0.62148 0.0
C1681 C 0.29628 0.80672 0.60304 0.0
C1682 C 0.28802 0.78763 0.62582 0.0
C1683 C 0.29811 0.78132 0.61203 0.0
C1684 C 0.30747 0.78781 0.59471 0.0
H1685 H 0.3116 0.70426 0.57781 0.0
H1686 H 0.31358 0.72637 0.58279 0.0
C1687 C 0.3066 0.80042 0.59038 0.0
C1688 C 0.29817 0.76786 0.6126 0.0
H1689 H 0.31349 0.74301 0.64471 0.0
C1690 C 0.28885 0.76177 0.59381 0.0
C1691 C 0.3072 0.76106 0.63117 0.0
C1692 C 0.31724 0.76717 0.65251 0.0
C1693 C 0.28831 0.74905 0.5929 0.0
C1694 C 0.29722 0.74223 0.6119 0.0
C1695 C 0.30665 0.74829 0.63037 0.0
C1696 C 0.29677 0.72879 0.61271 0.0
C1697 C 0.27832 0.74302 0.57105 0.0
C1698 C 0.28687 0.72283 0.62899 0.0
C1699 C 0.28568 0.71024 0.62611 0.0
C1700 C 0.29442 0.70335 0.60705 0.0
C1701 C 0.30468 0.70929 0.59253 0.0
C1702 C 0.30585 0.72192 0.59537 0.0
H1703 H 0.27412 0.74937 0.55093 0.0
H1704 H 0.28183 0.73498 0.55594 0.0
H1705 H 0.2711 0.73989 0.59013 0.0
H1706 H 0.27988 0.72798 0.64306 0.0
H1707 H 0.27772 0.70596 0.63797 0.0
H1708 H 0.44949 0.06724 0.83632 0.0
H1709 H 0.47155 0.06767 0.84524 0.0
H1710 H 0.47052 0.03101 0.88702 0.0
H1711 H 0.44854 0.03042 0.87795 0.0
H1712 H 0.48683 0.0631 0.90914 0.0
H1713 H 0.49351 0.02949 0.79684 0.0
H1714 H 0.47939 0.03755 0.80337 0.0
H1715 H 0.48313 0.02484 0.8323 0.0
C1716 C 0.45393 0.05931 0.84777 0.0
C1717 C 0.44726 0.04874 0.85597 0.0
C1718 C 0.46653 0.05959 0.85289 0.0
C1719 C 0.47266 0.0493 0.8662 0.0
C1720 C 0.46596 0.03897 0.87612 0.0
H1721 H 0.54853 0.02881 0.88024 0.0
H1722 H 0.52649 0.02994 0.88778 0.0
C1723 C 0.45339 0.03867 0.87098 0.0
C1724 C 0.48609 0.04911 0.86785 0.0
H1725 H 0.5109 0.03513 0.83075 0.0
C1726 C 0.49212 0.05701 0.89203 0.0
C1727 C 0.49294 0.04116 0.84538 0.0
C1728 C 0.48696 0.03284 0.81775 0.0
C1729 C 0.50487 0.05701 0.89479 0.0
C1730 C 0.5117 0.04904 0.87233 0.0
C1731 C 0.50564 0.04116 0.84816 0.0
C1732 C 0.52517 0.04889 0.87237 0.0
C1733 C 0.51089 0.06538 0.92212 0.0
C1734 C 0.53176 0.05922 0.86166 0.0
C1735 C 0.54437 0.05862 0.85739 0.0
C1736 C 0.55062 0.04763 0.8634 0.0
C1737 C 0.54402 0.0374 0.87531 0.0
C1738 C 0.53142 0.03803 0.87964 0.0
H1739 H 0.50447 0.0683 0.944 0.0
H1740 H 0.51885 0.06094 0.93523 0.0
H1741 H 0.51413 0.07365 0.90759 0.0
H1742 H 0.5271 0.06762 0.85516 0.0
H1743 H 0.54915 0.06665 0.84807 0.0
H1744 H 0.18686 0.80656 0.09839 0.0
H1745 H 0.18496 0.78445 0.09313 0.0
H1746 H 0.21981 0.7828 0.03918 0.0
H1747 H 0.22187 0.80481 0.04453 0.0
H1748 H 0.18639 0.76781 0.03087 0.0
H1749 H 0.22354 0.76142 0.13259 0.0
H1750 H 0.21591 0.77579 0.12619 0.0
H1751 H 0.22741 0.77097 0.09424 0.0
C1752 C 0.19406 0.80152 0.085 0.0
C1753 C 0.2046 0.80745 0.07232 0.0
C1754 C 0.19294 0.78889 0.08199 0.0
C1755 C 0.20234 0.78201 0.06634 0.0
C1756 C 0.21255 0.78795 0.0519 0.0
H1757 H 0.22076 0.70626 0.04954 0.0
H1758 H 0.21915 0.72824 0.04228 0.0
C1759 C 0.21369 0.80055 0.05494 0.0
C1760 C 0.20186 0.76858 0.06704 0.0
H1761 H 0.21639 0.74379 0.10236 0.0
C1762 C 0.1929 0.76253 0.04656 0.0
C1763 C 0.21033 0.76175 0.08779 0.0
C1764 C 0.21978 0.76779 0.11174 0.0
C1765 C 0.19242 0.74976 0.04545 0.0
C1766 C 0.20103 0.74296 0.06574 0.0
C1767 C 0.20987 0.74904 0.08658 0.0
C1768 C 0.20117 0.7295 0.06597 0.0
C1769 C 0.18291 0.74365 0.02196 0.0
C1770 C 0.19149 0.72289 0.08123 0.0
C1771 C 0.19237 0.71028 0.08543 0.0
C1772 C 0.20299 0.70409 0.07471 0.0
C1773 C 0.21247 0.71072 0.05824 0.0
C1774 C 0.21157 0.7233 0.05402 0.0
H1775 H 0.17888 0.75002 1.00161 0.0
H1776 H 0.18684 0.73577 0.00704 0.0
H1777 H 0.1755 0.74024 0.03989 0.0
H1778 H 0.18347 0.72754 0.09123 0.0
H1779 H 0.18491 0.70546 0.09831 0.0
H1780 H 0.44982 0.9462 0.34389 0.0
H1781 H 0.47195 0.94544 0.33695 0.0
H1782 H 0.4716 0.98116 0.2882 0.0
H1783 H 0.44955 0.98208 0.29516 0.0
H1784 H 0.48763 0.94868 0.27263 0.0
H1785 H 0.49405 0.98412 0.37986 0.0
H1786 H 0.47992 0.97601 0.37407 0.0
H1787 H 0.48385 0.98814 0.34319 0.0
C1788 C 0.45443 0.95386 0.33137 0.0
C1789 C 0.44791 0.96426 0.32046 0.0
C1790 C 0.46706 0.95339 0.32738 0.0
C1791 C 0.47339 0.96332 0.31258 0.0
C1792 C 0.46688 0.97348 0.3002 0.0
H1793 H 0.54958 0.98267 0.2998 0.0
H1794 H 0.52755 0.98173 0.29172 0.0
C1795 C 0.45427 0.97397 0.30414 0.0
C1796 C 0.48683 0.96334 0.31173 0.0
H1797 H 0.51158 0.9776 0.34817 0.0
C1798 C 0.4929 0.95498 0.28912 0.0
C1799 C 0.49363 0.97157 0.33337 0.0
C1800 C 0.48757 0.98041 0.35926 0.0
C1801 C 0.50566 0.95478 0.2871 0.0
C1802 C 0.51246 0.96302 0.30878 0.0
C1803 C 0.50635 0.97135 0.33138 0.0
C1804 C 0.52593 0.96302 0.30942 0.0
C1805 C 0.51173 0.94591 0.26134 0.0
C1806 C 0.53235 0.95277 0.32165 0.0
C1807 C 0.54495 0.95325 0.32619 0.0
C1808 C 0.55136 0.96407 0.31898 0.0
C1809 C 0.54494 0.97421 0.30569 0.0
C1810 C 0.53234 0.97369 0.30105 0.0
H1811 H 0.50541 0.94277 0.23948 0.0
H1812 H 0.51984 0.95004 0.24814 0.0
H1813 H 0.51473 0.93783 0.27718 0.0
H1814 H 0.52756 0.94452 0.32903 0.0
H1815 H 0.5496 0.94529 0.33663 0.0
H1816 H 0.30981 0.20482 0.59183 0.0
H1817 H 0.31051 0.22689 0.58336 0.0
H1818 H 0.27408 0.2263 0.53966 0.0
H1819 H 0.27322 0.20431 0.54834 0.0
H1820 H 0.30669 0.24231 0.52016 0.0
H1821 H 0.27205 0.2492 0.62943 0.0
H1822 H 0.27991 0.23496 0.62317 0.0
H1823 H 0.26754 0.23903 0.59329 0.0
C1824 C 0.30199 0.20936 0.58007 0.0
C1825 C 0.2914 0.20281 0.57121 0.0
C1826 C 0.30242 0.22197 0.57521 0.0
C1827 C 0.29227 0.22822 0.56149 0.0
C1828 C 0.28193 0.22165 0.55092 0.0
H1829 H 0.27295 0.30439 0.54682 0.0
H1830 H 0.2739 0.28236 0.53882 0.0
C1831 C 0.28147 0.20907 0.55583 0.0
C1832 C 0.29224 0.24167 0.56003 0.0
H1833 H 0.27822 0.26659 0.5963 0.0
C1834 C 0.30048 0.24765 0.53677 0.0
C1835 C 0.28415 0.24857 0.58188 0.0
C1836 C 0.27548 0.24265 0.60862 0.0
C1837 C 0.30071 0.2604 0.53432 0.0
C1838 C 0.29259 0.26729 0.55614 0.0
C1839 C 0.28437 0.26128 0.57937 0.0
C1840 C 0.29262 0.28075 0.55637 0.0
C1841 C 0.30947 0.26637 0.50802 0.0
C1842 C 0.30289 0.28718 0.56842 0.0
C1843 C 0.30239 0.29979 0.57297 0.0
C1844 C 0.29156 0.30619 0.56589 0.0
C1845 C 0.28142 0.29976 0.55261 0.0
C1846 C 0.28194 0.28716 0.54801 0.0
H1847 H 0.31258 0.25996 0.48637 0.0
H1848 H 0.30527 0.2744 0.49457 0.0
H1849 H 0.31758 0.26949 0.52349 0.0
H1850 H 0.31114 0.28239 0.57575 0.0
H1851 H 0.31036 0.30444 0.58336 0.0
H1852 H 0.9516 0.03537 0.80439 0.0
H1853 H 0.9734 0.03897 0.79857 0.0
H1854 H 0.96892 0.07494 0.84354 0.0
H1855 H 0.94707 0.07137 0.85011 0.0
H1856 H 0.98704 0.0569 0.76164 0.0
H1857 H 0.99345 0.05894 0.91346 0.0
H1858 H 0.9796 0.05348 0.89268 0.0
H1859 H 0.98265 0.0695 0.89467 0.0
C1860 C 0.9552 0.04409 0.81284 0.0
C1861 C 0.94759 0.05303 0.82815 0.0
C1862 C 0.96767 0.04614 0.80938 0.0
C1863 C 0.97278 0.05714 0.82117 0.0
C1864 C 0.96517 0.0663 0.83492 0.0
H1865 H 0.05012 0.0727 0.85184 0.0
H1866 H 0.02824 0.07563 0.84387 0.0
C1867 C 0.95268 0.06426 0.8385 0.0
C1868 C 0.98615 0.05868 0.82059 0.0
H1869 H 0.01088 0.06109 0.87681 0.0
C1870 C 0.99226 0.05792 0.78676 0.0
C1871 C 0.99293 0.06002 0.85344 0.0
C1872 C 0.98687 0.06044 0.8907 0.0
C1873 C 0.00501 0.05827 0.78497 0.0
C1874 C 0.01178 0.05923 0.81792 0.0
C1875 C 0.00565 0.0604 0.85159 0.0
C1876 C 0.02519 0.05809 0.81861 0.0
C1877 C 0.0111 0.05755 0.74786 0.0
C1878 C 0.03073 0.0473 0.80681 0.0
C1879 C 0.04322 0.04558 0.81134 0.0
C1880 C 0.05041 0.0546 0.82804 0.0
C1881 C 0.04487 0.06557 0.83885 0.0
C1882 C 0.03237 0.06726 0.83434 0.0
H1883 H 0.00494 0.06066 0.72552 0.0
H1884 H 0.01952 0.06312 0.74717 0.0
H1885 H 0.0136 0.04797 0.74215 0.0
H1886 H 0.02533 0.03999 0.79536 0.0
H1887 H 0.04716 0.03702 0.80276 0.0
H1888 H 0.81028 0.70263 0.10092 0.0
H1889 H 0.81142 0.72479 0.09529 0.0
H1890 H 0.7763 0.72523 0.0427 0.0
H1891 H 0.77498 0.70317 0.04849 0.0
H1892 H 0.80945 0.74104 0.03318 0.0
H1893 H 0.77208 0.74701 0.13436 0.0
H1894 H 0.77997 0.73276 0.12842 0.0
H1895 H 0.76842 0.73731 0.09622 0.0
C1896 C 0.80285 0.70742 0.0878 0.0
C1897 C 0.79247 0.70113 0.07558 0.0
C1898 C 0.80353 0.72008 0.08459 0.0
C1899 C 0.79385 0.72663 0.06918 0.0
C1900 C 0.78376 0.72034 0.05529 0.0
H1901 H 0.77478 0.80259 0.05218 0.0
H1902 H 0.77616 0.78057 0.0451 0.0
C1903 C 0.78305 0.70772 0.05856 0.0
C1904 C 0.79397 0.74008 0.06928 0.0
H1905 H 0.779 0.7647 0.10394 0.0
C1906 C 0.80283 0.74625 0.04868 0.0
C1907 C 0.78534 0.7468 0.08971 0.0
C1908 C 0.77597 0.74066 0.11372 0.0
C1909 C 0.8031 0.75901 0.04732 0.0
C1910 C 0.7944 0.76572 0.06751 0.0
C1911 C 0.78561 0.75953 0.08826 0.0
C1912 C 0.79424 0.77918 0.06812 0.0
C1913 C 0.81252 0.76521 0.02374 0.0
C1914 C 0.804 0.78571 0.08311 0.0
C1915 C 0.80326 0.79833 0.08719 0.0
C1916 C 0.79267 0.80462 0.07662 0.0
C1917 C 0.78305 0.79805 0.06069 0.0
C1918 C 0.78382 0.78546 0.05659 0.0
H1919 H 0.81643 0.75893 0.00296 0.0
H1920 H 0.80859 0.77319 0.0093 0.0
H1921 H 0.82005 0.76847 0.04152 0.0
H1922 H 0.81203 0.78101 0.09285 0.0
H1923 H 0.81082 0.80308 0.09968 0.0
H1924 H 0.72113 0.20371 0.54555 0.0
H1925 H 0.71943 0.22573 0.53892 0.0
H1926 H 0.68449 0.22495 0.59251 0.0
H1927 H 0.686 0.20284 0.59887 0.0
H1928 H 0.68593 0.24127 0.53104 0.0
H1929 H 0.72389 0.24754 0.62996 0.0
H1930 H 0.72752 0.23794 0.59157 0.0
H1931 H 0.71618 0.23319 0.62416 0.0
C1932 C 0.71301 0.20818 0.55561 0.0
C1933 C 0.70376 0.20152 0.5732 0.0
C1934 C 0.71208 0.22077 0.55187 0.0
C1935 C 0.70196 0.22697 0.5659 0.0
C1936 C 0.69241 0.22032 0.5817 0.0
H1937 H 0.68577 0.30366 0.59787 0.0
H1938 H 0.68409 0.2816 0.59123 0.0
C1939 C 0.6933 0.20769 0.58533 0.0
C1940 C 0.70171 0.24042 0.56599 0.0
H1941 H 0.71685 0.26515 0.59923 0.0
C1942 C 0.69265 0.24652 0.546 0.0
C1943 C 0.71044 0.24721 0.58582 0.0
C1944 C 0.72 0.24116 0.60939 0.0
C1945 C 0.69231 0.25928 0.54452 0.0
C1946 C 0.70117 0.26604 0.56387 0.0
C1947 C 0.71013 0.25992 0.58415 0.0
C1948 C 0.70141 0.27949 0.56384 0.0
C1949 C 0.68265 0.26544 0.52171 0.0
C1950 C 0.71169 0.28561 0.55054 0.0
C1951 C 0.71273 0.29819 0.55445 0.0
C1952 C 0.70352 0.3049 0.57201 0.0
C1953 C 0.69302 0.29879 0.58415 0.0
C1954 C 0.692 0.28618 0.5802 0.0
H1955 H 0.67832 0.25906 0.50201 0.0
H1956 H 0.67548 0.26904 0.5402 0.0
H1957 H 0.68653 0.27321 0.50611 0.0
H1958 H 0.71908 0.2806 0.53795 0.0
H1959 H 0.72092 0.30258 0.54467 0.0
H1960 H 0.81464 0.30893 0.09088 0.0
H1961 H 0.81732 0.28699 0.09875 0.0
H1962 H 0.78004 0.28371 0.13382 0.0
H1963 H 0.77729 0.30559 0.12664 0.0
H1964 H 0.7965 0.26943 0.17534 0.0
H1965 H 0.8024 0.2631 0.02443 0.0
H1966 H 0.81273 0.27356 0.04591 0.0
H1967 H 0.7968 0.27708 0.04399 0.0
C1968 C 0.80705 0.30357 0.10068 0.0
C1969 C 0.79571 0.30901 0.10772 0.0
C1970 C 0.80859 0.29103 0.10499 0.0
C1971 C 0.79881 0.28372 0.11623 0.0
C1972 C 0.78768 0.28919 0.12496 0.0
H1973 H 0.77667 0.20951 0.12997 0.0
H1974 H 0.77966 0.23134 0.13764 0.0
C1975 C 0.78613 0.30171 0.12073 0.0
C1976 C 0.79988 0.27031 0.11704 0.0
H1977 H 0.80303 0.24557 0.06126 0.0
C1978 C 0.79802 0.2642 0.15048 0.0
C1979 C 0.80187 0.26353 0.08453 0.0
C1980 C 0.80347 0.2696 0.04758 0.0
C1981 C 0.79796 0.25145 0.1522 0.0
C1982 C 0.79959 0.24468 0.11951 0.0
C1983 C 0.80181 0.25079 0.08629 0.0
C1984 C 0.79828 0.23128 0.11846 0.0
C1985 C 0.79611 0.24534 0.18896 0.0
C1986 C 0.80772 0.224 0.10483 0.0
C1987 C 0.80602 0.21151 0.10012 0.0
C1988 C 0.79479 0.20608 0.10869 0.0
C1989 C 0.78545 0.21337 0.12319 0.0
C1990 C 0.78716 0.22585 0.12787 0.0
H1991 H 0.79874 0.25142 0.21204 0.0
H1992 H 0.78635 0.24306 0.19228 0.0
H1993 H 0.80145 0.23681 0.19094 0.0
H1994 H 0.81634 0.22803 0.09716 0.0
H1995 H 0.81341 0.20617 0.08889 0.0
H1996 H 0.72325 0.70894 0.62842 0.0
H1997 H 0.72191 0.73095 0.63591 0.0
H1998 H 0.68585 0.73063 0.58946 0.0
H1999 H 0.68702 0.70857 0.58221 0.0
H2000 H 0.71883 0.74693 0.57735 0.0
H2001 H 0.68187 0.75255 0.68002 0.0
H2002 H 0.68969 0.73829 0.67315 0.0
H2003 H 0.6781 0.74307 0.64143 0.0
C2004 C 0.71495 0.7135 0.62028 0.0
C2005 C 0.70525 0.70697 0.60458 0.0
C2006 C 0.71421 0.72609 0.62461 0.0
C2007 C 0.70375 0.7324 0.61357 0.0
C2008 C 0.69392 0.72591 0.59883 0.0
H2009 H 0.68766 0.80905 0.58348 0.0
H2010 H 0.6865 0.7869 0.58894 0.0
C2011 C 0.69464 0.71329 0.5945 0.0
C2012 C 0.70361 0.74586 0.61444 0.0
H2013 H 0.68881 0.77049 0.65007 0.0
C2014 C 0.71232 0.75208 0.59345 0.0
C2015 C 0.69503 0.75254 0.63518 0.0
C2016 C 0.68569 0.7463 0.65899 0.0
C2017 C 0.71262 0.76481 0.59231 0.0
C2018 C 0.70412 0.77151 0.61331 0.0
C2019 C 0.69534 0.76531 0.63414 0.0
C2020 C 0.70427 0.78496 0.61369 0.0
C2021 C 0.72187 0.77098 0.56797 0.0
C2022 C 0.71448 0.79121 0.62694 0.0
C2023 C 0.71521 0.80383 0.62375 0.0
C2024 C 0.70568 0.81047 0.60747 0.0
C2025 C 0.69518 0.80423 0.59601 0.0
C2026 C 0.69448 0.79157 0.59912 0.0
H2027 H 0.7256 0.76468 0.54692 0.0
H2028 H 0.71784 0.77895 0.55374 0.0
H2029 H 0.72955 0.77423 0.58515 0.0
H2030 H 0.72203 0.78628 0.63893 0.0
H2031 H 0.72337 0.80835 0.63323 0.0
H2032 H 0.54915 0.44141 0.81952 0.0
H2033 H 0.52708 0.43894 0.8255 0.0
H2034 H 0.52526 0.47164 0.89046 0.0
H2035 H 0.54718 0.47426 0.88463 0.0
H2036 H 0.51066 0.43855 0.89163 0.0
H2037 H 0.50354 0.47761 0.79701 0.0
H2038 H 0.51785 0.46966 0.80032 0.0
H2039 H 0.51361 0.4805 0.83494 0.0
C2040 C 0.54408 0.44799 0.8355 0.0
C2041 C 0.54992 0.45813 0.8512 0.0
C2042 C 0.53149 0.44654 0.83892 0.0
C2043 C 0.52458 0.4552 0.85799 0.0
C2044 C 0.53045 0.46495 0.87525 0.0
H2045 H 0.44952 0.47417 0.88406 0.0
H2046 H 0.47151 0.47195 0.88918 0.0
C2047 C 0.54299 0.46642 0.87187 0.0
C2048 C 0.51115 0.45461 0.85784 0.0
H2049 H 0.48615 0.46989 0.82726 0.0
C2050 C 0.50526 0.44533 0.87743 0.0
C2051 C 0.5042 0.46346 0.83909 0.0
C2052 C 0.51008 0.47332 0.81636 0.0
C2053 C 0.4925 0.44493 0.87976 0.0
C2054 C 0.48557 0.45394 0.8616 0.0
C2055 C 0.4915 0.46305 0.84144 0.0
C2056 C 0.47212 0.45429 0.86309 0.0
C2057 C 0.48657 0.43509 0.90242 0.0
C2058 C 0.46513 0.44498 0.84736 0.0
C2059 C 0.45251 0.4462 0.84446 0.0
C2060 C 0.44669 0.45682 0.8569 0.0
C2061 C 0.4537 0.4659 0.87401 0.0
C2062 C 0.46628 0.46465 0.877 0.0
H2063 H 0.49313 0.43065 0.92138 0.0
H2064 H 0.47892 0.43884 0.91881 0.0
H2065 H 0.48285 0.42803 0.88376 0.0
H2066 H 0.46948 0.43701 0.83587 0.0
H2067 H 0.44739 0.43906 0.83102 0.0
H2068 H 0.95134 0.52834 0.36844 0.0
H2069 H 0.97334 0.53005 0.37608 0.0
H2070 H 0.97118 0.56868 0.35729 0.0
H2071 H 0.94915 0.56709 0.34952 0.0
H2072 H 0.9887 0.53993 0.31783 0.0
H2073 H 0.99341 0.5646 0.45077 0.0
H2074 H 0.9799 0.55614 0.43875 0.0
H2075 H 0.98272 0.57068 0.41809 0.0
C2076 C 0.95549 0.53724 0.36649 0.0
C2077 C 0.94847 0.54757 0.3582 0.0
C2078 C 0.96807 0.53819 0.37085 0.0
C2079 C 0.97384 0.5495 0.36747 0.0
C2080 C 0.96685 0.5599 0.36047 0.0
H2081 H 0.05021 0.56456 0.32531 0.0
H2082 H 0.02808 0.56627 0.3308 0.0
C2083 C 0.95427 0.55895 0.35588 0.0
C2084 C 0.98726 0.55019 0.36805 0.0
H2085 H 0.01148 0.56104 0.4169 0.0
C2086 C 0.99369 0.54454 0.33946 0.0
C2087 C 0.99368 0.55624 0.39632 0.0
C2088 C 0.98713 0.56222 0.42794 0.0
C2089 C 0.00641 0.5448 0.33836 0.0
C2090 C 0.01284 0.55083 0.36659 0.0
C2091 C 0.00645 0.5565 0.39523 0.0
C2092 C 0.02624 0.55082 0.36714 0.0
C2093 C 0.01299 0.53855 0.30724 0.0
C2094 C 0.03245 0.5417 0.38636 0.0
C2095 C 0.04506 0.54064 0.38316 0.0
C2096 C 0.05166 0.54871 0.36071 0.0
C2097 C 0.04542 0.55819 0.34283 0.0
C2098 C 0.03279 0.5592 0.34592 0.0
H2099 H 0.00665 0.53394 0.28796 0.0
H2100 H 0.0184 0.54533 0.2916 0.0
H2101 H 0.01942 0.53172 0.31847 0.0
H2102 H 0.02749 0.53514 0.40275 0.0
H2103 H 0.04957 0.53327 0.39745 0.0
H2104 H 0.94809 0.44157 0.82035 0.0
H2105 H 0.97005 0.43936 0.81278 0.0
H2106 H 0.97345 0.47801 0.79641 0.0
H2107 H 0.95148 0.48035 0.80347 0.0
H2108 H 0.98826 0.46348 0.74845 0.0
H2109 H 0.99307 0.45055 0.89581 0.0
H2110 H 0.98266 0.44148 0.86942 0.0
H2111 H 0.97935 0.45723 0.8776 0.0
C2112 C 0.95347 0.4496 0.8147 0.0
C2113 C 0.94803 0.46117 0.81296 0.0
C2114 C 0.96603 0.44831 0.81052 0.0
C2115 C 0.97337 0.45855 0.80472 0.0
C2116 C 0.96793 0.47001 0.80106 0.0
H2117 H 0.0483 0.47902 0.80577 0.0
H2118 H 0.02653 0.47707 0.79486 0.0
C2119 C 0.95536 0.47132 0.80516 0.0
C2120 C 0.98678 0.45745 0.80465 0.0
H2121 H 0.01091 0.45099 0.86034 0.0
C2122 C 0.99323 0.46068 0.77281 0.0
C2123 C 0.99322 0.45379 0.83649 0.0
C2124 C 0.98677 0.45065 0.87191 0.0
C2125 C 0.006 0.4604 0.77202 0.0
C2126 C 0.01243 0.45701 0.80415 0.0
C2127 C 0.00595 0.45352 0.83569 0.0
C2128 C 0.02585 0.4578 0.80674 0.0
C2129 C 0.01246 0.4637 0.73681 0.0
C2130 C 0.03272 0.44763 0.81734 0.0
C2131 C 0.0452 0.44874 0.82397 0.0
C2132 C 0.05101 0.46007 0.82038 0.0
C2133 C 0.04414 0.47015 0.80873 0.0
C2134 C 0.03169 0.46904 0.80216 0.0
H2135 H 0.00653 0.46226 0.71244 0.0
H2136 H 0.01498 0.47346 0.73761 0.0
H2137 H 0.0209 0.45828 0.7333 0.0
H2138 H 0.02837 0.4389 0.82129 0.0
H2139 H 0.0502 0.44079 0.83291 0.0
H2140 H 0.4493 0.56848 0.3564 0.0
H2141 H 0.47134 0.57087 0.35157 0.0
H2142 H 0.47353 0.53763 0.28914 0.0
H2143 H 0.45157 0.53505 0.29424 0.0
H2144 H 0.48863 0.53807 0.34988 0.0
H2145 H 0.49423 0.58021 0.26723 0.0
H2146 H 0.48428 0.58158 0.3062 0.0
H2147 H 0.48014 0.5718 0.26866 0.0
C2148 C 0.45444 0.56179 0.34106 0.0
C2149 C 0.44867 0.55153 0.3259 0.0
C2150 C 0.46704 0.56322 0.33816 0.0
C2151 C 0.47406 0.55449 0.31973 0.0
C2152 C 0.46827 0.54449 0.3034 0.0
H2153 H 0.54955 0.53706 0.29025 0.0
H2154 H 0.52756 0.53934 0.28537 0.0
C2155 C 0.45571 0.54303 0.30638 0.0
C2156 C 0.48751 0.55505 0.32054 0.0
H2157 H 0.5121 0.57194 0.2943 0.0
C2158 C 0.49375 0.54546 0.33758 0.0
C2159 C 0.49415 0.56476 0.30484 0.0
C2160 C 0.48789 0.57514 0.28542 0.0
C2161 C 0.50646 0.54528 0.33931 0.0
C2162 C 0.51312 0.55487 0.32309 0.0
C2163 C 0.50692 0.56459 0.30657 0.0
C2164 C 0.52656 0.55466 0.32246 0.0
C2165 C 0.51268 0.53487 0.35876 0.0
C2166 C 0.5333 0.56285 0.34382 0.0
C2167 C 0.54593 0.56161 0.34669 0.0
C2168 C 0.55197 0.55214 0.32816 0.0
C2169 C 0.5452 0.54438 0.30522 0.0
C2170 C 0.53262 0.54565 0.30237 0.0
H2171 H 0.50633 0.5298 0.37692 0.0
H2172 H 0.5163 0.52843 0.33799 0.0
H2173 H 0.52043 0.53818 0.37558 0.0
H2174 H 0.52874 0.56989 0.35943 0.0
H2175 H 0.55087 0.56776 0.36448 0.0
H2176 H 0.25391 0.15792 0.1811 0.0
H2177 H 0.2609 0.15341 0.24339 0.0
H2178 H 0.22387 0.1471 0.27744 0.0
H2179 H 0.21686 0.15122 0.21471 0.0
H2180 H 0.25554 0.16659 0.30154 0.0
H2181 H 0.24053 0.11939 0.32861 0.0
H2182 H 0.24074 0.12584 0.28292 0.0
H2183 H 0.22832 0.129 0.3137 0.0
C2184 C 0.24727 0.15531 0.20165 0.0
C2185 C 0.23482 0.15494 0.193 0.0
C2186 C 0.25128 0.15274 0.23729 0.0
C2187 C 0.24295 0.14981 0.26517 0.0
C2188 C 0.23053 0.14904 0.25631 0.0
H2189 H 0.24616 0.15758 0.49985 0.0
H2190 H 0.24014 0.15406 0.43593 0.0
C2191 C 0.22652 0.15147 0.22044 0.0
C2192 C 0.24715 0.14891 0.30402 0.0
H2193 H 0.24634 0.13119 0.38142 0.0
C2194 C 0.25366 0.15876 0.31876 0.0
C2195 C 0.24467 0.13872 0.32667 0.0
C2196 C 0.23829 0.12759 0.31207 0.0
C2197 C 0.2575 0.15883 0.35555 0.0
C2198 C 0.25478 0.14879 0.37832 0.0
C2199 C 0.2484 0.13886 0.36375 0.0
C2200 C 0.2581 0.14888 0.41779 0.0
C2201 C 0.26421 0.16976 0.37027 0.0
C2202 C 0.27014 0.14678 0.42885 0.0
C2203 C 0.27362 0.14873 0.46545 0.0
C2204 C 0.26512 0.15292 0.49143 0.0
C2205 C 0.25294 0.1544 0.48052 0.0
C2206 C 0.24946 0.15236 0.44405 0.0
H2207 H 0.26484 0.17721 0.3497 0.0
H2208 H 0.25957 0.17327 0.39523 0.0
H2209 H 0.27355 0.16705 0.37839 0.0
H2210 H 0.27694 0.14412 0.40884 0.0
H2211 H 0.28308 0.14755 0.47293 0.0
H2212 H 0.08173 0.00516 0.44906 0.0
H2213 H 0.08605 0.0118 0.5115 0.0
H2214 H 0.11645 0.98709 0.51685 0.0
H2215 H 0.11177 0.97994 0.45447 0.0
H2216 H 0.10423 0.9853 0.57678 0.0
H2217 H 0.1104 0.03427 0.55286 0.0
H2218 H 0.09595 0.02975 0.53482 0.0
H2219 H 0.10972 0.02354 0.5154 0.0
C2220 C 0.08946 0.00124 0.46323 0.0
C2221 C 0.09645 0.99205 0.44666 0.0
C2222 C 0.09199 0.00514 0.49898 0.0
C2223 C 0.10178 0.00021 0.5188 0.0
C2224 C 0.10891 0.99113 0.5021 0.0
H2225 H 0.1117 0.03425 0.73642 0.0
H2226 H 0.11639 0.02706 0.67411 0.0
C2227 C 0.10624 0.98706 0.46642 0.0
C2228 C 0.10385 0.00387 0.55782 0.0
H2229 H 0.10394 0.02859 0.61461 0.0
C2230 C 0.1044 0.99478 0.58494 0.0
C2231 C 0.10445 0.01621 0.5688 0.0
C2232 C 0.10525 0.02647 0.54131 0.0
C2233 C 0.10471 0.99769 0.62259 0.0
C2234 C 0.10396 0.01002 0.63359 0.0
C2235 C 0.10425 0.01912 0.60645 0.0
C2236 C 0.10197 0.01366 0.67267 0.0
C2237 C 0.10579 0.98745 0.65005 0.0
C2238 C 0.09233 0.00857 0.69279 0.0
C2239 C 0.0898 0.0125 0.7285 0.0
C2240 C 0.09663 0.02187 0.74474 0.0
C2241 C 0.1063 0.02699 0.72473 0.0
C2242 C 0.10897 0.02289 0.68908 0.0
H2243 H 0.11105 0.97975 0.63833 0.0
H2244 H 0.1103 0.99045 0.67582 0.0
H2245 H 0.09659 0.984 0.6568 0.0
H2246 H 0.08648 0.00178 0.6805 0.0
H2247 H 0.08218 0.00847 0.74287 0.0
H2248 H 0.24941 0.83974 0.98386 0.0
H2249 H 0.25599 0.84405 0.92136 0.0
H2250 H 0.23078 0.87403 0.91546 0.0
H2251 H 0.22367 0.86931 0.97788 0.0
H2252 H 0.22916 0.86181 0.85588 0.0
H2253 H 0.27807 0.86848 0.8791 0.0
H2254 H 0.27378 0.854 0.8974 0.0
H2255 H 0.26742 0.86772 0.91673 0.0
C2256 C 0.24537 0.84738 0.96956 0.0
C2257 C 0.23605 0.85423 0.98597 0.0
C2258 C 0.24924 0.84991 0.93378 0.0
C2259 C 0.24414 0.85958 0.91377 0.0
C2260 C 0.23495 0.86658 0.93034 0.0
H2261 H 0.27795 0.86907 0.69553 0.0
H2262 H 0.27085 0.87388 0.75787 0.0
C2263 C 0.2309 0.8639 0.96605 0.0
C2264 C 0.24775 0.86161 0.87466 0.0
H2265 H 0.27241 0.86172 0.81758 0.0
C2266 C 0.23863 0.86203 0.84762 0.0
C2267 C 0.26008 0.86227 0.86351 0.0
C2268 C 0.27036 0.86324 0.89085 0.0
C2269 C 0.24149 0.86228 0.80994 0.0
C2270 C 0.25382 0.86157 0.7988 0.0
C2271 C 0.26294 0.86198 0.82584 0.0
C2272 C 0.25742 0.85949 0.75972 0.0
C2273 C 0.23122 0.86327 0.7826 0.0
C2274 C 0.25229 0.84983 0.73982 0.0
C2275 C 0.25615 0.84724 0.70408 0.0
C2276 C 0.26551 0.85403 0.6876 0.0
C2277 C 0.2707 0.8637 0.70741 0.0
C2278 C 0.26665 0.86644 0.74308 0.0
H2279 H 0.22352 0.86855 0.79428 0.0
H2280 H 0.23417 0.8677 0.75665 0.0
H2281 H 0.22776 0.85404 0.77616 0.0
H2282 H 0.24551 0.844 0.7523 0.0
H2283 H 0.25208 0.83961 0.68987 0.0
H2284 H 0.38998 0.03849 0.95193 0.0
H2285 H 0.38679 0.03188 0.01574 0.0
H2286 H 0.40159 0.99668 0.98939 0.0
H2287 H 0.4048 0.00314 0.92583 0.0
H2288 H 0.37462 0.00867 0.04927 0.0
H2289 H 0.42451 0.01381 0.06957 0.0
H2290 H 0.41648 0.02116 0.03237 0.0
H2291 H 0.41973 0.0052 0.03005 0.0
C2292 C 0.39231 0.02926 0.95952 0.0
C2293 C 0.39776 0.02138 0.93387 0.0
C2294 C 0.39047 0.0255 0.99596 0.0
C2295 C 0.39406 0.01384 0.00723 0.0
C2296 C 0.39881 0.00574 0.9812 0.0
H2297 H 0.39089 0.97497 0.21554 0.0
H2298 H 0.38721 0.98182 0.15226 0.0
C2299 C 0.40064 0.00946 0.94488 0.0
C2300 C 0.39407 0.01051 0.04673 0.0
H2301 H 0.41332 0.00553 0.11882 0.0
C2302 C 0.38305 0.008 0.06461 0.0
C2303 C 0.40509 0.00976 0.06662 0.0
C2304 C 0.41715 0.01269 0.0489 0.0
C2305 C 0.3828 0.00456 0.10195 0.0
C2306 C 0.39387 0.00357 0.12159 0.0
C2307 C 0.40484 0.00625 0.10369 0.0
C2308 C 0.39443 -0.00011 0.16087 0.0
C2309 C 0.37075 0.00216 0.12023 0.0
C2310 C 0.39961 0.00779 0.18675 0.0
C2311 C 0.40177 0.0039 0.22274 0.0
C2312 C 0.39886 0.99198 0.23362 0.0
C2313 C 0.39319 0.98422 0.20809 0.0
C2314 C 0.39103 0.98814 0.17195 0.0
H2315 H 0.36305 0.00592 0.10403 0.0
H2316 H 0.3694 0.9922 0.12286 0.0
H2317 H 0.37054 0.00613 0.14831 0.0
H2318 H 0.40233 0.01688 0.17877 0.0
H2319 H 0.40612 0.01014 0.24168 0.0
H2320 H 0.74726 0.84593 0.99613 0.0
H2321 H 0.74118 0.85003 0.9327 0.0
H2322 H 0.77591 0.86673 0.91155 0.0
H2323 H 0.78214 0.86265 0.97528 0.0
H2324 H 0.75245 0.87878 0.87953 0.0
H2325 H 0.75948 0.82976 0.84857 0.0
H2326 H 0.75057 0.8332 0.88874 0.0
H2327 H 0.7664 0.83713 0.88773 0.0
C2328 C 0.75357 0.85065 0.97826 0.0
C2329 C 0.76524 0.85386 0.99071 0.0
C2330 C 0.75006 0.85298 0.942 0.0
C2331 C 0.75813 0.85858 0.91746 0.0
C2332 C 0.76955 0.8624 0.93017 0.0
H2333 H 0.75378 0.85118 0.68083 0.0
H2334 H 0.76099 0.85395 0.74377 0.0
C2335 C 0.7731 0.86004 0.96655 0.0
C2336 C 0.75498 0.8594 0.8779 0.0
H2337 H 0.75064 0.84174 0.8019 0.0
C2338 C 0.75209 0.87073 0.8624 0.0
C2339 C 0.75465 0.84887 0.85568 0.0
C2340 C 0.75802 0.83654 0.87078 0.0
C2341 C 0.74863 0.87173 0.82521 0.0
C2342 C 0.74798 0.86113 0.80325 0.0
C2343 C 0.7511 0.84987 0.81875 0.0
C2344 C 0.74406 0.86134 0.76413 0.0
C2345 C 0.7458 0.88412 0.80962 0.0
C2346 C 0.73221 0.86482 0.75438 0.0
C2347 C 0.72804 0.86328 0.71822 0.0
C2348 C 0.73564 0.85811 0.69131 0.0
C2349 C 0.74767 0.85515 0.70086 0.0
C2350 C 0.75182 0.85672 0.73687 0.0
H2351 H 0.74964 0.8915 0.82692 0.0
H2352 H 0.74941 0.88504 0.78122 0.0
H2353 H 0.73579 0.88534 0.80848 0.0
H2354 H 0.72599 0.8682 0.77508 0.0
H2355 H 0.71871 0.86559 0.71182 0.0
H2356 H 0.91738 0.00754 0.73574 0.0
H2357 H 0.91326 0.00115 0.6729 0.0
H2358 H 0.8819 0.02467 0.66937 0.0
H2359 H 0.88639 0.03162 0.73208 0.0
H2360 H 0.89558 0.98996 0.64005 0.0
H2361 H 0.89916 0.03625 0.57995 0.0
H2362 H 0.90296 0.03313 0.62722 0.0
H2363 H 0.88732 0.03464 0.61348 0.0
C2364 C 0.90956 0.01134 0.72172 0.0
C2365 C 0.90227 0.02018 0.7388 0.0
C2366 C 0.9072 0.00765 0.6857 0.0
C2367 C 0.8974 0.01258 0.66593 0.0
C2368 C 0.88973 0.02099 0.68354 0.0
H2369 H 0.88655 0.97839 0.44724 0.0
H2370 H 0.88206 0.98529 0.51 0.0
C2371 C 0.89224 0.02488 0.71951 0.0
C2372 C 0.89562 0.00902 0.62673 0.0
H2373 H 0.89519 0.02024 0.53905 0.0
C2374 C 0.89542 0.99659 0.61794 0.0
C2375 C 0.89547 0.01767 0.59781 0.0
C2376 C 0.89635 0.03116 0.60494 0.0
C2377 C 0.89567 0.99254 0.58128 0.0
C2378 C 0.8956 0.00118 0.55236 0.0
C2379 C 0.8952 0.01361 0.56116 0.0
C2380 C 0.89735 0.99765 0.51313 0.0
C2381 C 0.89677 0.97906 0.57414 0.0
C2382 C 0.90702 0.00275 0.49317 0.0
C2383 C 0.90937 0.99909 0.45712 0.0
C2384 C 0.90221 0.99011 0.4402 0.0
C2385 C 0.8923 0.98524 0.45968 0.0
C2386 C 0.8898 0.9891 0.49568 0.0
H2387 H 0.89973 0.97402 0.59908 0.0
H2388 H 0.88778 0.97543 0.56578 0.0
H2389 H 0.90337 0.97721 0.55173 0.0
H2390 H 0.91299 0.00936 0.50584 0.0
H2391 H 0.91709 0.00302 0.44296 0.0
H2392 H 0.78087 0.14961 0.20909 0.0
H2393 H 0.77391 0.14551 0.27199 0.0
H2394 H 0.73914 0.1615 0.24633 0.0
H2395 H 0.74603 0.16573 0.18383 0.0
H2396 H 0.75014 0.17165 0.30708 0.0
H2397 H 0.74978 0.12131 0.31818 0.0
H2398 H 0.76368 0.1277 0.30081 0.0
H2399 H 0.74994 0.12915 0.27447 0.0
C2400 C 0.77166 0.15202 0.21664 0.0
C2401 C 0.76403 0.15806 0.19149 0.0
C2402 C 0.76767 0.14962 0.25256 0.0
C2403 C 0.75597 0.15312 0.2638 0.0
C2404 C 0.74819 0.15869 0.23824 0.0
H2405 H 0.71761 0.14566 0.47254 0.0
H2406 H 0.72434 0.14321 0.40856 0.0
C2407 C 0.75216 0.16111 0.20249 0.0
C2408 C 0.75222 0.15224 0.30298 0.0
H2409 H 0.7472 0.13243 0.37396 0.0
C2410 C 0.74945 0.16306 0.32161 0.0
C2411 C 0.75127 0.14102 0.32187 0.0
C2412 C 0.75372 0.12911 0.30281 0.0
C2413 C 0.74591 0.16301 0.35866 0.0
C2414 C 0.74525 0.15184 0.37784 0.0
C2415 C 0.74782 0.14097 0.3592 0.0
C2416 C 0.74192 0.15149 0.41735 0.0
C2417 C 0.74281 0.17492 0.37701 0.0
C2418 C 0.74975 0.15656 0.44361 0.0
C2419 C 0.74596 0.15798 0.48003 0.0
C2420 C 0.73424 0.15434 0.49093 0.0
C2421 C 0.72668 0.14857 0.46504 0.0
C2422 C 0.73051 0.14715 0.42849 0.0
H2423 H 0.74134 0.18231 0.35667 0.0
H2424 H 0.73451 0.17399 0.39415 0.0
H2425 H 0.75041 0.17763 0.39534 0.0
H2426 H 0.75864 0.15987 0.43558 0.0
H2427 H 0.75205 0.16238 0.49927 0.0
H2428 H 0.60477 0.97112 0.21934 0.0
H2429 H 0.6083 0.9774 0.15545 0.0
H2430 H 0.60238 0.01479 0.18582 0.0
H2431 H 0.59871 0.00861 0.24952 0.0
H2432 H 0.58882 0.99147 0.11622 0.0
H2433 H 0.63372 0.01467 0.11746 0.0
H2434 H 0.62959 0.00321 0.1509 0.0
H2435 H 0.6234 0.01825 0.15433 0.0
C2436 C 0.6045 0.9807 0.2126 0.0
C2437 C 0.60142 0.98936 0.23948 0.0
C2438 C 0.6065 0.98427 0.17608 0.0
C2439 C 0.60569 0.99657 0.16601 0.0
C2440 C 0.60321 0.00528 0.19312 0.0
H2441 H 0.60242 0.03881 0.96533 0.0
H2442 H 0.60576 0.03139 0.02816 0.0
C2443 C 0.60106 0.00172 0.22949 0.0
C2444 C 0.60597 0.00017 0.1267 0.0
H2445 H 0.62187 0.01668 0.06326 0.0
C2446 C 0.59611 0.99686 0.10445 0.0
C2447 C 0.61538 0.00738 0.11176 0.0
C2448 C 0.62619 0.01106 0.13465 0.0
C2449 C 0.59523 0.00081 0.06781 0.0
C2450 C 0.60472 0.00793 0.05253 0.0
C2451 C 0.61465 0.01116 0.07482 0.0
C2452 C 0.60423 0.01235 0.01384 0.0
C2453 C 0.58388 0.99772 0.0464 0.0
C2454 C 0.60279 0.00413 0.98462 0.0
C2455 C 0.60071 0.00836 0.94889 0.0
C2456 C 0.60032 0.02089 0.94145 0.0
C2457 C 0.60267 0.02911 0.9702 0.0
C2458 C 0.60456 0.02487 0.00613 0.0
H2459 H 0.57619 0.99539 0.06492 0.0
H2460 H 0.58104 0.00539 0.02851 0.0
H2461 H 0.58568 0.9897 0.02873 0.0
H2462 H 0.60288 0.99443 0.98964 0.0
H2463 H 0.59908 0.00179 0.92723 0.0
H2464 H 0.74458 0.66131 0.99876 0.0
H2465 H 0.73746 0.65863 0.9357 0.0
H2466 H 0.77209 0.64325 0.90553 0.0
H2467 H 0.77929 0.6458 0.96892 0.0
H2468 H 0.74852 0.67035 0.87724 0.0
H2469 H 0.7476 0.62047 0.85428 0.0
H2470 H 0.74783 0.62713 0.89971 0.0
H2471 H 0.76156 0.62624 0.87312 0.0
C2472 C 0.75062 0.65713 0.97896 0.0
C2473 C 0.76253 0.65382 0.98886 0.0
C2474 C 0.74652 0.6556 0.94288 0.0
C2475 C 0.7542 0.65069 0.91592 0.0
C2476 C 0.76593 0.64687 0.92601 0.0
H2477 H 0.75093 0.66551 0.6832 0.0
H2478 H 0.75715 0.66154 0.74657 0.0
C2479 C 0.77005 0.64838 0.96223 0.0
C2480 C 0.75037 0.65087 0.87674 0.0
H2481 H 0.7451 0.63304 0.80133 0.0
C2482 C 0.74772 0.66218 0.86074 0.0
C2483 C 0.74928 0.6402 0.85528 0.0
C2484 C 0.75161 0.62779 0.87145 0.0
C2485 C 0.74418 0.66314 0.8238 0.0
C2486 C 0.74338 0.65252 0.80206 0.0
C2487 C 0.74582 0.64116 0.81807 0.0
C2488 C 0.74014 0.65325 0.76255 0.0
C2489 C 0.74127 0.67553 0.80823 0.0
C2490 C 0.72864 0.64951 0.75023 0.0
C2491 C 0.72502 0.65179 0.71388 0.0
C2492 C 0.73287 0.65781 0.68934 0.0
C2493 C 0.74462 0.66093 0.70138 0.0
C2494 C 0.74821 0.65867 0.73761 0.0
H2495 H 0.73998 0.68242 0.8302 0.0
H2496 H 0.74888 0.67855 0.7904 0.0
H2497 H 0.73292 0.67517 0.79109 0.0
H2498 H 0.72229 0.64532 0.76915 0.0
H2499 H 0.71592 0.64926 0.70547 0.0
H2500 H 0.58335 0.5067 0.23253 0.0
H2501 H 0.58802 0.50012 0.17033 0.0
H2502 H 0.61848 0.52479 0.16682 0.0
H2503 H 0.61348 0.53186 0.22906 0.0
H2504 H 0.6063 0.52675 0.10644 0.0
H2505 H 0.61266 0.47778 0.12945 0.0
H2506 H 0.5982 0.48216 0.14765 0.0
H2507 H 0.61193 0.48843 0.16712 0.0
C2508 C 0.59117 0.51063 0.21884 0.0
C2509 C 0.59808 0.51978 0.23586 0.0
C2510 C 0.5939 0.50675 0.18325 0.0
C2511 C 0.6038 0.5117 0.16402 0.0
C2512 C 0.61086 0.52073 0.18116 0.0
H2513 H 0.6121 0.47812 0.94524 0.0
H2514 H 0.61764 0.48521 0.00704 0.0
C2515 C 0.60801 0.52476 0.21674 0.0
C2516 C 0.60599 0.50814 0.12504 0.0
H2517 H 0.60582 0.48352 0.06789 0.0
C2518 C 0.60646 0.51728 0.0981 0.0
C2519 C 0.60657 0.49582 0.11386 0.0
C2520 C 0.60746 0.48552 0.14118 0.0
C2521 C 0.60656 0.51445 0.06042 0.0
C2522 C 0.60571 0.50214 0.04928 0.0
C2523 C 0.60619 0.49298 0.0762 0.0
C2524 C 0.60324 0.4986 0.01042 0.0
C2525 C 0.60746 0.52473 0.03305 0.0
C2526 C 0.59333 0.50372 0.99164 0.0
C2527 C 0.59029 0.49983 0.95627 0.0
C2528 C 0.5969 0.4905 0.93907 0.0
C2529 C 0.60685 0.48536 0.95772 0.0
C2530 C 0.61001 0.4894 0.99305 0.0
H2531 H 0.61287 0.53237 0.04449 0.0
H2532 H 0.61172 0.52174 0.00687 0.0
H2533 H 0.59822 0.52825 0.02711 0.0
H2534 H 0.58765 0.51048 0.00476 0.0
H2535 H 0.58247 0.50388 0.94294 0.0
H2536 H 0.72198 0.36826 0.48102 0.0
H2537 H 0.72873 0.37339 0.41854 0.0
H2538 H 0.75276 0.34239 0.41926 0.0
H2539 H 0.74659 0.33767 0.48192 0.0
H2540 H 0.76363 0.36029 0.3876 0.0
H2541 H 0.71729 0.35704 0.32779 0.0
H2542 H 0.71887 0.36862 0.36215 0.0
H2543 H 0.72047 0.35287 0.37473 0.0
C2544 C 0.72878 0.36263 0.46787 0.0
C2545 C 0.73371 0.35253 0.48634 0.0
C2546 C 0.73256 0.3655 0.43202 0.0
C2547 C 0.74106 0.35812 0.41367 0.0
C2548 C 0.74618 0.34824 0.43262 0.0
H2549 H 0.75033 0.34057 0.18897 0.0
H2550 H 0.74389 0.34426 0.25198 0.0
C2551 C 0.74262 0.34553 0.46855 0.0
C2552 C 0.74455 0.3603 0.37456 0.0
H2553 H 0.73322 0.36158 0.28708 0.0
C2554 C 0.75697 0.36064 0.36561 0.0
C2555 C 0.73587 0.3607 0.34576 0.0
C2556 C 0.72239 0.35968 0.35294 0.0
C2557 C 0.76098 0.36073 0.32889 0.0
C2558 C 0.7523 0.36107 0.30008 0.0
C2559 C 0.73988 0.36136 0.30908 0.0
C2560 C 0.75578 0.35968 0.26064 0.0
C2561 C 0.77444 0.35969 0.32154 0.0
C2562 C 0.76444 0.36729 0.24383 0.0
C2563 C 0.76837 0.36501 0.20776 0.0
C2564 C 0.76344 0.3553 0.18752 0.0
C2565 C 0.7543 0.34815 0.20371 0.0
C2566 C 0.75059 0.35026 0.23985 0.0
H2567 H 0.7795 0.35645 0.34614 0.0
H2568 H 0.77628 0.35332 0.2985 0.0
H2569 H 0.77809 0.36875 0.31404 0.0
H2570 H 0.76831 0.37487 0.25875 0.0
H2571 H 0.77534 0.37074 0.19589 0.0
H2572 H 0.89692 0.47158 0.71209 0.0
H2573 H 0.89369 0.4792 0.64943 0.0
H2574 H 0.89661 0.51604 0.689 0.0
H2575 H 0.90032 0.50848 0.75125 0.0
H2576 H 0.87775 0.49398 0.61437 0.0
H2577 H 0.92343 0.5153 0.61429 0.0
H2578 H 0.91848 0.50521 0.65039 0.0
H2579 H 0.91384 0.52091 0.65034 0.0
C2580 C 0.8967 0.48131 0.70748 0.0
C2581 C 0.89905 0.48943 0.73647 0.0
C2582 C 0.89487 0.48565 0.67165 0.0
C2583 C 0.89526 0.49819 0.66429 0.0
C2584 C 0.89667 0.50632 0.69375 0.0
H2585 H 0.89503 0.53964 0.459 0.0
H2586 H 0.89131 0.53332 0.52278 0.0
C2587 C 0.8987 0.50199 0.72939 0.0
C2588 C 0.89486 0.50272 0.62571 0.0
H2589 H 0.91095 0.51929 0.56272 0.0
C2590 C 0.885 0.49952 0.6031 0.0
C2591 C 0.90439 0.50987 0.61082 0.0
C2592 C 0.91569 0.51293 0.63257 0.0
C2593 C 0.88439 0.50336 0.56619 0.0
C2594 C 0.89384 0.51059 0.55164 0.0
C2595 C 0.90363 0.51388 0.57421 0.0
C2596 C 0.89427 0.5142 0.51237 0.0
C2597 C 0.87367 0.49968 0.54289 0.0
C2598 C 0.89703 0.50552 0.48541 0.0
C2599 C 0.89929 0.50911 0.44914 0.0
C2600 C 0.89877 0.52145 0.43909 0.0
C2601 C 0.89543 0.53007 0.4658 0.0
C2602 C 0.89332 0.52648 0.50224 0.0
H2603 H 0.86611 0.49598 0.55976 0.0
H2604 H 0.87027 0.50757 0.5268 0.0
H2605 H 0.87656 0.49259 0.52306 0.0
H2606 H 0.89796 0.49602 0.49278 0.0
H2607 H 0.90183 0.50224 0.42923 0.0
H2608 H 0.2526 0.35075 0.18105 0.0
H2609 H 0.25903 0.35379 0.24471 0.0
H2610 H 0.22385 0.36858 0.27126 0.0
H2611 H 0.21725 0.36554 0.20736 0.0
H2612 H 0.24787 0.38062 0.3043 0.0
H2613 H 0.24103 0.33094 0.32522 0.0
H2614 H 0.24944 0.33554 0.28507 0.0
H2615 H 0.23361 0.33923 0.28866 0.0
C2616 C 0.24627 0.35487 0.20017 0.0
C2617 C 0.23436 0.3578 0.18916 0.0
C2618 C 0.24998 0.35661 0.23654 0.0
C2619 C 0.24189 0.36133 0.26263 0.0
C2620 C 0.23023 0.36494 0.25142 0.0
H2621 H 0.24583 0.3494 0.49733 0.0
H2622 H 0.23895 0.35341 0.43465 0.0
C2623 C 0.22648 0.36319 0.21493 0.0
C2624 C 0.24523 0.36125 0.30211 0.0
H2625 H 0.2496 0.34193 0.37436 0.0
C2626 C 0.24822 0.37219 0.31977 0.0
C2627 C 0.24558 0.35025 0.32213 0.0
C2628 C 0.24218 0.33829 0.30455 0.0
C2629 C 0.25176 0.37235 0.35702 0.0
C2630 C 0.25235 0.36128 0.37681 0.0
C2631 C 0.24917 0.3504 0.35914 0.0
C2632 C 0.25616 0.36063 0.41597 0.0
C2633 C 0.2547 0.38433 0.37506 0.0
C2634 C 0.26808 0.36357 0.42655 0.0
C2635 C 0.27207 0.36129 0.46254 0.0
C2636 C 0.26421 0.35594 0.48845 0.0
C2637 C 0.25214 0.3535 0.47809 0.0
C2638 C 0.24818 0.35578 0.44224 0.0
H2639 H 0.25116 0.39214 0.3589 0.0
H2640 H 0.25085 0.38473 0.40328 0.0
H2641 H 0.26471 0.3853 0.37725 0.0
H2642 H 0.27446 0.36713 0.40657 0.0
H2643 H 0.28144 0.36322 0.46958 0.0
H2644 H 0.38561 0.47715 0.94781 0.0
H2645 H 0.38129 0.4844 0.0103 0.0
H2646 H 0.41095 0.5099 1.00166 0.0
H2647 H 0.41487 0.50316 0.93912 0.0
H2648 H 0.39414 0.48298 0.06885 0.0
H2649 H 0.38666 0.53179 0.04568 0.0
H2650 H 0.3872 0.5211 0.00812 0.0
H2651 H 0.40101 0.52762 0.02628 0.0
C2652 C 0.39102 0.48448 0.95903 0.0
C2653 C 0.40051 0.48964 0.93835 0.0
C2654 C 0.38857 0.48861 0.99479 0.0
C2655 C 0.39562 0.49791 0.01066 0.0
C2656 C 0.40506 0.50306 0.98984 0.0
H2657 H 0.41717 0.50638 0.23344 0.0
H2658 H 0.4126 0.49981 0.17109 0.0
C2659 C 0.40737 0.4991 0.95401 0.0
C2660 C 0.39391 0.50155 0.04989 0.0
H2661 H 0.39393 0.52626 0.10676 0.0
C2662 C 0.39386 0.49245 0.07704 0.0
C2663 C 0.39319 0.51388 0.06097 0.0
C2664 C 0.39187 0.52411 0.03361 0.0
C2665 C 0.3939 0.49534 0.1147 0.0
C2666 C 0.39451 0.50769 0.12568 0.0
C2667 C 0.39374 0.51678 0.0986 0.0
C2668 C 0.39679 0.51135 0.1646 0.0
C2669 C 0.39331 0.48508 0.14221 0.0
C2670 C 0.38971 0.52039 0.1817 0.0
C2671 C 0.39253 0.52442 0.21733 0.0
C2672 C 0.40242 0.51943 0.23662 0.0
C2673 C 0.40937 0.5103 0.21963 0.0
C2674 C 0.40669 0.50644 0.18394 0.0
H2675 H 0.38813 0.47725 0.13094 0.0
H2676 H 0.40266 0.48184 0.14817 0.0
H2677 H 0.38899 0.48798 0.16837 0.0
H2678 H 0.38208 0.52442 0.16734 0.0
H2679 H 0.38703 0.5315 0.22961 0.0
H2680 H 0.22104 0.64161 0.98596 0.0
H2681 H 0.22813 0.63672 0.92367 0.0
H2682 H 0.25415 0.66598 0.92999 0.0
H2683 H 0.24759 0.67044 0.99237 0.0
H2684 H 0.22681 0.64905 0.86441 0.0
H2685 H 0.27556 0.64115 0.88699 0.0
H2686 H 0.26497 0.64211 0.92477 0.0
H2687 H 0.27167 0.65569 0.90558 0.0
C2688 C 0.22846 0.64681 0.97427 0.0
C2689 C 0.23382 0.65634 0.99425 0.0
C2690 C 0.23249 0.64403 0.93863 0.0
C2691 C 0.24189 0.6508 0.92218 0.0
C2692 C 0.24723 0.66029 0.9423 0.0
H2693 H 0.24994 0.67146 0.69907 0.0
H2694 H 0.24344 0.66696 0.76152 0.0
C2695 C 0.24338 0.66292 0.97802 0.0
C2696 C 0.24542 0.64877 0.88301 0.0
H2697 H 0.27001 0.64832 0.82568 0.0
C2698 C 0.23626 0.64864 0.85605 0.0
C2699 C 0.25771 0.64787 0.87173 0.0
C2700 C 0.268 0.64656 0.89892 0.0
C2701 C 0.23908 0.64848 0.81835 0.0
C2702 C 0.2514 0.64897 0.80711 0.0
C2703 C 0.26054 0.64824 0.83403 0.0
C2704 C 0.255 0.65116 0.76808 0.0
C2705 C 0.22875 0.64782 0.79108 0.0
C2706 C 0.26402 0.64407 0.75098 0.0
C2707 C 0.26802 0.64686 0.7153 0.0
C2708 C 0.263 0.65672 0.69595 0.0
C2709 C 0.25387 0.66368 0.71293 0.0
C2710 C 0.25005 0.66103 0.74868 0.0
H2711 H 0.22096 0.64266 0.80266 0.0
H2712 H 0.22549 0.65715 0.78499 0.0
H2713 H 0.23159 0.64343 0.76496 0.0
H2714 H 0.26808 0.63647 0.7654 0.0
H2715 H 0.27511 0.64136 0.70302 0.0
H2716 H 0.11451 0.52972 0.45693 0.0
H2717 H 0.1198 0.52292 0.51927 0.0
H2718 H 0.08849 0.4993 0.51973 0.0
H2719 H 0.08358 0.50555 0.45733 0.0
H2720 H 0.10877 0.5255 0.58065 0.0
H2721 H 0.11244 0.4762 0.55945 0.0
H2722 H 0.11163 0.48667 0.52131 0.0
H2723 H 0.09793 0.48111 0.54291 0.0
C2724 C 0.10891 0.52291 0.47018 0.0
C2725 C 0.0987 0.51808 0.45205 0.0
C2726 C 0.11192 0.51903 0.50582 0.0
C2727 C 0.10473 0.51034 0.52409 0.0
C2728 C 0.0945 0.50563 0.50594 0.0
H2729 H 0.08655 0.50467 0.74884 0.0
H2730 H 0.09129 0.51099 0.68645 0.0
C2731 C 0.09162 0.50931 0.47023 0.0
C2732 C 0.10723 0.50685 0.56303 0.0
H2733 H 0.10666 0.48254 0.6214 0.0
C2734 C 0.10857 0.51608 0.58943 0.0
C2735 C 0.10737 0.49457 0.57478 0.0
C2736 C 0.10741 0.48411 0.54796 0.0
C2737 C 0.10914 0.51341 0.62721 0.0
C2738 C 0.10782 0.50121 0.63913 0.0
C2739 C 0.10739 0.49193 0.61261 0.0
C2740 C 0.10581 0.49794 0.67851 0.0
C2741 C 0.11109 0.52375 0.65382 0.0
C2742 C 0.11212 0.48823 0.69498 0.0
C2743 C 0.10915 0.48434 0.73063 0.0
C2744 C 0.09989 0.49017 0.75061 0.0
C2745 C 0.09385 0.50009 0.73448 0.0
C2746 C 0.09665 0.50381 0.69875 0.0
H2747 H 0.11681 0.53096 0.64124 0.0
H2748 H 0.10219 0.52791 0.66066 0.0
H2749 H 0.11551 0.52064 0.67963 0.0
H2750 H 0.11916 0.48348 0.67996 0.0
H2751 H 0.11394 0.47664 0.74225 0.0
loop_
_geom_bond_atom_site_label_1
_geom_bond_atom_site_label_2
_geom_bond_distance
_geom_bond_site_symmetry_2
_ccdc_geom_bond_type
O0 Cd1 2.223 1_556 S
O0 C8 1.315 . S
Cd1 O0 2.223 1_554 S
Cd1 O4 2.297 . S
Cd1 O5 2.439 . S
Cd1 O11 2.240 . S
Cd2 O3 2.240 . S
Cd2 O10 2.223 . S
Cd2 O12 2.297 . S
Cd2 O13 2.439 . S
O3 Cd2 2.240 . S
O3 C8 1.279 1_554 S
O4 Cd1 2.297 . S
O4 C6 1.247 . S
O5 Cd1 2.439 . S
O5 C6 1.208 . S
C6 O4 1.247 . S
C6 O5 1.208 . S
C7 O12 1.247 . S
C7 O13 1.208 . S
C8 O0 1.315 . S
C8 O3 1.279 1_556 S
C9 O10 1.315 . S
C9 O11 1.279 . S
O10 Cd2 2.223 . S
O10 C9 1.315 . S
O11 Cd1 2.240 . S
O11 C9 1.279 . S
O12 Cd2 2.297 . S
O12 C7 1.247 . S
O13 Cd2 2.439 . S
O13 C7 1.208 . S
O14 Cd15 2.223 . S
O14 C22 1.315 . S
Cd15 O14 2.223 . S
Cd15 O18 2.297 . S
Cd15 O19 2.439 . S
Cd15 O25 2.240 . S
Cd16 O17 2.240 . S
Cd16 O24 2.223 . S
Cd16 O26 2.297 . S
Cd16 O27 2.439 . S
O17 Cd16 2.240 . S
O17 C22 1.279 . S
O18 Cd15 2.297 . S
O18 C20 1.247 . S
O19 Cd15 2.439 . S
O19 C20 1.208 . S
C20 O18 1.247 . S
C20 O19 1.208 . S
C21 O26 1.247 . S
C21 O27 1.208 . S
C22 O14 1.315 . S
C22 O17 1.279 . S
C23 O24 1.315 . S
C23 O25 1.279 . S
O24 Cd16 2.223 . S
O24 C23 1.315 . S
O25 Cd15 2.240 . S
O25 C23 1.279 . S
O26 Cd16 2.297 . S
O26 C21 1.247 . S
O27 Cd16 2.439 . S
O27 C21 1.208 . S
O28 Cd29 2.223 . S
O28 C36 1.315 . S
Cd29 O28 2.223 . S
Cd29 O32 2.297 . S
Cd29 O33 2.439 . S
Cd29 O39 2.240 . S
Cd30 O31 2.240 . S
Cd30 O38 2.223 . S
Cd30 O40 2.297 . S
Cd30 O41 2.439 . S
O31 Cd30 2.240 . S
O31 C36 1.279 . S
O32 Cd29 2.297 . S
O32 C34 1.247 . S
O33 Cd29 2.439 . S
O33 C34 1.208 . S
C34 O32 1.247 . S
C34 O33 1.208 . S
C35 O40 1.247 . S
C35 O41 1.208 . S
C36 O28 1.315 . S
C36 O31 1.279 . S
C37 O38 1.315 . S
C37 O39 1.279 . S
O38 Cd30 2.223 . S
O38 C37 1.315 . S
O39 Cd29 2.240 . S
O39 C37 1.279 . S
O40 Cd30 2.297 . S
O40 C35 1.247 . S
O41 Cd30 2.439 . S
O41 C35 1.208 . S
O42 Cd43 2.223 . S
O42 C50 1.315 . S
Cd43 O42 2.223 . S
Cd43 O46 2.297 . S
Cd43 O47 2.439 . S
Cd43 O53 2.240 . S
Cd44 O45 2.240 . S
Cd44 O52 2.223 . S
Cd44 O54 2.297 . S
Cd44 O55 2.439 . S
O45 Cd44 2.240 . S
O45 C50 1.279 . S
O46 Cd43 2.297 . S
O46 C48 1.247 . S
O47 Cd43 2.439 . S
O47 C48 1.208 . S
C48 O46 1.247 . S
C48 O47 1.208 . S
C49 O54 1.247 . S
C49 O55 1.208 . S
C50 O42 1.315 . S
C50 O45 1.279 . S
C51 O52 1.315 . S
C51 O53 1.279 . S
O52 Cd44 2.223 . S
O52 C51 1.315 . S
O53 Cd43 2.240 . S
O53 C51 1.279 . S
O54 Cd44 2.297 . S
O54 C49 1.247 . S
O55 Cd44 2.439 . S
O55 C49 1.208 . S
O56 Cd57 2.223 . S
O56 C64 1.315 . S
Cd57 O56 2.223 . S
Cd57 O60 2.297 . S
Cd57 O61 2.439 . S
Cd57 O67 2.240 . S
Cd58 O59 2.240 . S
Cd58 O66 2.223 . S
Cd58 O68 2.297 . S
Cd58 O69 2.439 . S
O59 Cd58 2.240 . S
O59 C64 1.279 . S
O60 Cd57 2.297 . S
O60 C62 1.247 . S
O61 Cd57 2.439 . S
O61 C62 1.208 . S
C62 O60 1.247 . S
C62 O61 1.208 . S
C63 O68 1.247 . S
C63 O69 1.208 . S
C64 O56 1.315 . S
C64 O59 1.279 . S
C65 O66 1.315 . S
C65 O67 1.279 . S
O66 Cd58 2.223 . S
O66 C65 1.315 . S
O67 Cd57 2.240 . S
O67 C65 1.279 . S
O68 Cd58 2.297 . S
O68 C63 1.247 . S
O69 Cd58 2.439 . S
O69 C63 1.208 . S
O70 Cd71 2.223 . S
O70 C78 1.315 . S
Cd71 O70 2.223 . S
Cd71 O74 2.297 . S
Cd71 O75 2.439 . S
Cd71 O81 2.240 . S
Cd72 O73 2.240 . S
Cd72 O80 2.223 . S
Cd72 O82 2.297 . S
Cd72 O83 2.439 . S
O73 Cd72 2.240 . S
O73 C78 1.279 . S
O74 Cd71 2.297 . S
O74 C76 1.247 . S
O75 Cd71 2.439 . S
O75 C76 1.208 . S
C76 O74 1.247 . S
C76 O75 1.208 . S
C77 O82 1.247 . S
C77 O83 1.208 . S
C78 O70 1.315 . S
C78 O73 1.279 . S
C79 O80 1.315 . S
C79 O81 1.279 . S
O80 Cd72 2.223 . S
O80 C79 1.315 . S
O81 Cd71 2.240 . S
O81 C79 1.279 . S
O82 Cd72 2.297 . S
O82 C77 1.247 . S
O83 Cd72 2.439 . S
O83 C77 1.208 . S
O84 Cd85 2.223 . S
O84 C92 1.315 . S
Cd85 O84 2.223 . S
Cd85 O88 2.297 . S
Cd85 O89 2.439 . S
Cd85 O95 2.240 . S
Cd86 O87 2.240 . S
Cd86 O94 2.223 . S
Cd86 O96 2.297 . S
Cd86 O97 2.439 . S
O87 Cd86 2.240 . S
O87 C92 1.279 . S
O88 Cd85 2.297 . S
O88 C90 1.247 . S
O89 Cd85 2.439 . S
O89 C90 1.208 . S
C90 O88 1.247 . S
C90 O89 1.208 . S
C91 O96 1.247 . S
C91 O97 1.208 . S
C92 O84 1.315 . S
C92 O87 1.279 . S
C93 O94 1.315 . S
C93 O95 1.279 . S
O94 Cd86 2.223 . S
O94 C93 1.315 . S
O95 Cd85 2.240 . S
O95 C93 1.279 . S
O96 Cd86 2.297 . S
O96 C91 1.247 . S
O97 Cd86 2.439 . S
O97 C91 1.208 . S
O98 Cd99 2.223 . S
O98 C106 1.315 . S
Cd99 O98 2.223 . S
Cd99 O102 2.297 . S
Cd99 O103 2.439 . S
Cd99 O109 2.240 . S
Cd100 O101 2.240 . S
Cd100 O108 2.223 . S
Cd100 O110 2.297 . S
Cd100 O111 2.439 . S
O101 Cd100 2.240 . S
O101 C106 1.279 . S
O102 Cd99 2.297 . S
O102 C104 1.247 . S
O103 Cd99 2.439 . S
O103 C104 1.208 . S
C104 O102 1.247 . S
C104 O103 1.208 . S
C105 O110 1.247 . S
C105 O111 1.208 . S
C106 O98 1.315 . S
C106 O101 1.279 . S
C107 O108 1.315 . S
C107 O109 1.279 . S
O108 Cd100 2.223 . S
O108 C107 1.315 . S
O109 Cd99 2.240 . S
O109 C107 1.279 . S
O110 Cd100 2.297 . S
O110 C105 1.247 . S
O111 Cd100 2.439 . S
O111 C105 1.208 . S
O112 Cd113 2.223 . S
O112 C120 1.315 . S
Cd113 O112 2.223 . S
Cd113 O116 2.297 . S
Cd113 O117 2.439 . S
Cd113 O123 2.240 . S
Cd114 O115 2.240 . S
Cd114 O122 2.223 . S
Cd114 O124 2.297 . S
Cd114 O125 2.439 . S
O115 Cd114 2.240 . S
O115 C120 1.279 . S
O116 Cd113 2.297 . S
O116 C118 1.247 . S
O117 Cd113 2.439 . S
O117 C118 1.208 . S
C118 O116 1.247 . S
C118 O117 1.208 . S
C119 O124 1.247 . S
C119 O125 1.208 . S
C120 O112 1.315 . S
C120 O115 1.279 . S
C121 O122 1.315 . S
C121 O123 1.279 . S
O122 Cd114 2.223 . S
O122 C121 1.315 . S
O123 Cd113 2.240 . S
O123 C121 1.279 . S
O124 Cd114 2.297 . S
O124 C119 1.247 . S
O125 Cd114 2.439 . S
O125 C119 1.208 . S
O126 Cd127 2.223 . S
O126 C134 1.315 . S
Cd127 O126 2.223 . S
Cd127 O130 2.297 . S
Cd127 O131 2.439 . S
Cd127 O137 2.240 . S
Cd128 O129 2.240 . S
Cd128 O136 2.223 . S
Cd128 O138 2.297 . S
Cd128 O139 2.439 . S
O129 Cd128 2.240 . S
O129 C134 1.279 . S
O130 Cd127 2.297 . S
O130 C132 1.247 . S
O131 Cd127 2.439 . S
O131 C132 1.208 . S
C132 O130 1.247 . S
C132 O131 1.208 . S
C133 O138 1.247 . S
C133 O139 1.208 . S
C134 O126 1.315 . S
C134 O129 1.279 . S
C135 O136 1.315 . S
C135 O137 1.279 . S
O136 Cd128 2.223 . S
O136 C135 1.315 . S
O137 Cd127 2.240 . S
O137 C135 1.279 . S
O138 Cd128 2.297 . S
O138 C133 1.247 . S
O139 Cd128 2.439 . S
O139 C133 1.208 . S
O140 Cd141 2.223 . S
O140 C148 1.315 . S
Cd141 O140 2.223 . S
Cd141 O144 2.297 . S
Cd141 O145 2.439 . S
Cd141 O151 2.240 . S
Cd142 O143 2.240 . S
Cd142 O150 2.223 . S
Cd142 O152 2.297 . S
Cd142 O153 2.439 . S
O143 Cd142 2.240 . S
O143 C148 1.279 . S
O144 Cd141 2.297 . S
O144 C146 1.247 . S
O145 Cd141 2.439 . S
O145 C146 1.208 . S
C146 O144 1.247 . S
C146 O145 1.208 . S
C147 O152 1.247 . S
C147 O153 1.208 . S
C148 O140 1.315 . S
C148 O143 1.279 . S
C149 O150 1.315 . S
C149 O151 1.279 . S
O150 Cd142 2.223 . S
O150 C149 1.315 . S
O151 Cd141 2.240 . S
O151 C149 1.279 . S
O152 Cd142 2.297 . S
O152 C147 1.247 . S
O153 Cd142 2.439 . S
O153 C147 1.208 . S
O154 Cd155 2.223 . S
O154 C162 1.315 . S
Cd155 O154 2.223 . S
Cd155 O158 2.297 . S
Cd155 O159 2.439 . S
Cd155 O165 2.240 . S
Cd156 O157 2.240 . S
Cd156 O164 2.223 . S
Cd156 O166 2.297 . S
Cd156 O167 2.439 . S
O157 Cd156 2.240 . S
O157 C162 1.279 . S
O158 Cd155 2.297 . S
O158 C160 1.247 . S
O159 Cd155 2.439 . S
O159 C160 1.208 . S
C160 O158 1.247 . S
C160 O159 1.208 . S
C161 O166 1.247 . S
C161 O167 1.208 . S
C162 O154 1.315 . S
C162 O157 1.279 . S
C163 O164 1.315 . S
C163 O165 1.279 . S
O164 Cd156 2.223 . S
O164 C163 1.315 . S
O165 Cd155 2.240 . S
O165 C163 1.279 . S
O166 Cd156 2.297 . S
O166 C161 1.247 . S
O167 Cd156 2.439 . S
O167 C161 1.208 . S
O168 Cd169 2.223 1_556 S
O168 C176 1.315 . S
Cd169 O168 2.223 1_554 S
Cd169 O172 2.297 . S
Cd169 O173 2.439 . S
Cd169 O179 2.240 . S
Cd170 O171 2.240 . S
Cd170 O178 2.223 . S
Cd170 O180 2.297 . S
Cd170 O181 2.439 . S
O171 Cd170 2.240 . S
O171 C176 1.279 1_554 S
O172 Cd169 2.297 . S
O172 C174 1.247 . S
O173 Cd169 2.439 . S
O173 C174 1.208 . S
C174 O172 1.247 . S
C174 O173 1.208 . S
C175 O180 1.247 . S
C175 O181 1.208 . S
C176 O168 1.315 . S
C176 O171 1.279 1_556 S
C177 O178 1.315 . S
C177 O179 1.279 . S
O178 Cd170 2.223 . S
O178 C177 1.315 . S
O179 Cd169 2.240 . S
O179 C177 1.279 . S
O180 Cd170 2.297 . S
O180 C175 1.247 . S
O181 Cd170 2.439 . S
O181 C175 1.208 . S
O182 Cd183 2.223 . S
O182 C190 1.315 . S
Cd183 O182 2.223 . S
Cd183 O186 2.297 . S
Cd183 O187 2.439 . S
Cd183 O193 2.240 . S
Cd184 O185 2.240 . S
Cd184 O192 2.223 . S
Cd184 O194 2.297 . S
Cd184 O195 2.439 . S
O185 Cd184 2.240 . S
O185 C190 1.279 . S
O186 Cd183 2.297 . S
O186 C188 1.247 . S
O187 Cd183 2.439 . S
O187 C188 1.208 . S
C188 O186 1.247 . S
C188 O187 1.208 . S
C189 O194 1.247 . S
C189 O195 1.208 . S
C190 O182 1.315 . S
C190 O185 1.279 . S
C191 O192 1.315 . S
C191 O193 1.279 . S
O192 Cd184 2.223 . S
O192 C191 1.315 . S
O193 Cd183 2.240 . S
O193 C191 1.279 . S
O194 Cd184 2.297 . S
O194 C189 1.247 . S
O195 Cd184 2.439 . S
O195 C189 1.208 . S
O196 Cd197 2.223 . S
O196 C204 1.315 . S
Cd197 O196 2.223 . S
Cd197 O200 2.297 . S
Cd197 O201 2.439 . S
Cd197 O207 2.240 . S
Cd198 O199 2.240 . S
Cd198 O206 2.223 . S
Cd198 O208 2.297 . S
Cd198 O209 2.439 . S
O199 Cd198 2.240 . S
O199 C204 1.279 . S
O200 Cd197 2.297 . S
O200 C202 1.247 . S
O201 Cd197 2.439 . S
O201 C202 1.208 . S
C202 O200 1.247 . S
C202 O201 1.208 . S
C203 O208 1.247 . S
C203 O209 1.208 . S
C204 O196 1.315 . S
C204 O199 1.279 . S
C205 O206 1.315 . S
C205 O207 1.279 . S
O206 Cd198 2.223 . S
O206 C205 1.315 . S
O207 Cd197 2.240 . S
O207 C205 1.279 . S
O208 Cd198 2.297 . S
O208 C203 1.247 . S
O209 Cd198 2.439 . S
O209 C203 1.208 . S
O210 Cd211 2.223 . S
O210 C218 1.315 . S
Cd211 O210 2.223 . S
Cd211 O214 2.297 . S
Cd211 O215 2.439 . S
Cd211 O221 2.240 . S
Cd212 O213 2.240 . S
Cd212 O220 2.223 . S
Cd212 O222 2.297 . S
Cd212 O223 2.439 . S
O213 Cd212 2.240 . S
O213 C218 1.279 . S
O214 Cd211 2.297 . S
O214 C216 1.247 . S
O215 Cd211 2.439 . S
O215 C216 1.208 . S
C216 O214 1.247 . S
C216 O215 1.208 . S
C217 O222 1.247 . S
C217 O223 1.208 . S
C218 O210 1.315 . S
C218 O213 1.279 . S
C219 O220 1.315 . S
C219 O221 1.279 . S
O220 Cd212 2.223 . S
O220 C219 1.315 . S
O221 Cd211 2.240 . S
O221 C219 1.279 . S
O222 Cd212 2.297 . S
O222 C217 1.247 . S
O223 Cd212 2.439 . S
O223 C217 1.208 . S
O224 Cd225 2.223 . S
O224 C232 1.315 . S
Cd225 O224 2.223 . S
Cd225 O228 2.297 . S
Cd225 O229 2.439 . S
Cd225 O235 2.240 . S
Cd226 O227 2.240 . S
Cd226 O234 2.223 . S
Cd226 O236 2.297 . S
Cd226 O237 2.439 . S
O227 Cd226 2.240 . S
O227 C232 1.279 . S
O228 Cd225 2.297 . S
O228 C230 1.247 . S
O229 Cd225 2.439 . S
O229 C230 1.208 . S
C230 O228 1.247 . S
C230 O229 1.208 . S
C231 O236 1.247 . S
C231 O237 1.208 . S
C232 O224 1.315 . S
C232 O227 1.279 . S
C233 O234 1.315 . S
C233 O235 1.279 . S
O234 Cd226 2.223 . S
O234 C233 1.315 . S
O235 Cd225 2.240 . S
O235 C233 1.279 . S
O236 Cd226 2.297 . S
O236 C231 1.247 . S
O237 Cd226 2.439 . S
O237 C231 1.208 . S
O238 Cd239 2.223 . S
O238 C246 1.315 . S
Cd239 O238 2.223 . S
Cd239 O242 2.297 . S
Cd239 O243 2.439 . S
Cd239 O249 2.240 . S
Cd240 O241 2.240 . S
Cd240 O248 2.223 . S
Cd240 O250 2.297 . S
Cd240 O251 2.439 . S
O241 Cd240 2.240 . S
O241 C246 1.279 . S
O242 Cd239 2.297 . S
O242 C244 1.247 . S
O243 Cd239 2.439 . S
O243 C244 1.208 . S
C244 O242 1.247 . S
C244 O243 1.208 . S
C245 O250 1.247 . S
C245 O251 1.208 . S
C246 O238 1.315 . S
C246 O241 1.279 . S
C247 O248 1.315 . S
C247 O249 1.279 . S
O248 Cd240 2.223 . S
O248 C247 1.315 . S
O249 Cd239 2.240 . S
O249 C247 1.279 . S
O250 Cd240 2.297 . S
O250 C245 1.247 . S
O251 Cd240 2.439 . S
O251 C245 1.208 . S
O252 Cd253 2.223 1_556 S
O252 C260 1.315 . S
Cd253 O252 2.223 1_554 S
Cd253 O256 2.297 . S
Cd253 O257 2.439 . S
Cd253 O263 2.240 . S
Cd254 O255 2.240 . S
Cd254 O262 2.223 . S
Cd254 O264 2.297 . S
Cd254 O265 2.439 . S
O255 Cd254 2.240 . S
O255 C260 1.279 1_554 S
O256 Cd253 2.297 . S
O256 C258 1.247 . S
O257 Cd253 2.439 . S
O257 C258 1.208 . S
C258 O256 1.247 . S
C258 O257 1.208 . S
C259 O264 1.247 . S
C259 O265 1.208 . S
C260 O252 1.315 . S
C260 O255 1.279 1_556 S
C261 O262 1.315 . S
C261 O263 1.279 . S
O262 Cd254 2.223 . S
O262 C261 1.315 . S
O263 Cd253 2.240 . S
O263 C261 1.279 . S
O264 Cd254 2.297 . S
O264 C259 1.247 . S
O265 Cd254 2.439 . S
O265 C259 1.208 . S
O266 Cd267 2.223 . S
O266 C274 1.315 . S
Cd267 O266 2.223 . S
Cd267 O270 2.297 . S
Cd267 O271 2.439 . S
Cd267 O277 2.240 . S
Cd268 O269 2.240 . S
Cd268 O276 2.223 . S
Cd268 O278 2.297 . S
Cd268 O279 2.439 . S
O269 Cd268 2.240 . S
O269 C274 1.279 . S
O270 Cd267 2.297 . S
O270 C272 1.247 . S
O271 Cd267 2.439 . S
O271 C272 1.208 . S
C272 O270 1.247 . S
C272 O271 1.208 . S
C273 O278 1.247 . S
C273 O279 1.208 . S
C274 O266 1.315 . S
C274 O269 1.279 . S
C275 O276 1.315 . S
C275 O277 1.279 . S
O276 Cd268 2.223 . S
O276 C275 1.315 . S
O277 Cd267 2.240 . S
O277 C275 1.279 . S
O278 Cd268 2.297 . S
O278 C273 1.247 . S
O279 Cd268 2.439 . S
O279 C273 1.208 . S
O280 Cd281 2.223 . S
O280 C288 1.315 . S
Cd281 O280 2.223 . S
Cd281 O284 2.297 . S
Cd281 O285 2.439 . S
Cd281 O291 2.240 . S
Cd282 O283 2.240 . S
Cd282 O290 2.223 . S
Cd282 O292 2.297 . S
Cd282 O293 2.439 . S
O283 Cd282 2.240 . S
O283 C288 1.279 . S
O284 Cd281 2.297 . S
O284 C286 1.247 . S
O285 Cd281 2.439 . S
O285 C286 1.208 . S
C286 O284 1.247 . S
C286 O285 1.208 . S
C287 O292 1.247 . S
C287 O293 1.208 . S
C288 O280 1.315 . S
C288 O283 1.279 . S
C289 O290 1.315 . S
C289 O291 1.279 . S
O290 Cd282 2.223 . S
O290 C289 1.315 . S
O291 Cd281 2.240 . S
O291 C289 1.279 . S
O292 Cd282 2.297 . S
O292 C287 1.247 . S
O293 Cd282 2.439 . S
O293 C287 1.208 . S
O294 Cd295 2.223 . S
O294 C302 1.315 . S
Cd295 O294 2.223 . S
Cd295 O298 2.297 . S
Cd295 O299 2.439 . S
Cd295 O305 2.240 . S
Cd296 O297 2.240 . S
Cd296 O304 2.223 . S
Cd296 O306 2.297 . S
Cd296 O307 2.439 . S
O297 Cd296 2.240 . S
O297 C302 1.279 . S
O298 Cd295 2.297 . S
O298 C300 1.247 . S
O299 Cd295 2.439 . S
O299 C300 1.208 . S
C300 O298 1.247 . S
C300 O299 1.208 . S
C301 O306 1.247 . S
C301 O307 1.208 . S
C302 O294 1.315 . S
C302 O297 1.279 . S
C303 O304 1.315 . S
C303 O305 1.279 . S
O304 Cd296 2.223 . S
O304 C303 1.315 . S
O305 Cd295 2.240 . S
O305 C303 1.279 . S
O306 Cd296 2.297 . S
O306 C301 1.247 . S
O307 Cd296 2.439 . S
O307 C301 1.208 . S
O308 Cd309 2.223 . S
O308 C316 1.315 . S
Cd309 O308 2.223 . S
Cd309 O312 2.297 . S
Cd309 O313 2.439 . S
Cd309 O319 2.240 . S
Cd310 O311 2.240 . S
Cd310 O318 2.223 . S
Cd310 O320 2.297 . S
Cd310 O321 2.439 . S
O311 Cd310 2.240 . S
O311 C316 1.279 . S
O312 Cd309 2.297 . S
O312 C314 1.247 . S
O313 Cd309 2.439 . S
O313 C314 1.208 . S
C314 O312 1.247 . S
C314 O313 1.208 . S
C315 O320 1.247 . S
C315 O321 1.208 . S
C316 O308 1.315 . S
C316 O311 1.279 . S
C317 O318 1.315 . S
C317 O319 1.279 . S
O318 Cd310 2.223 . S
O318 C317 1.315 . S
O319 Cd309 2.240 . S
O319 C317 1.279 . S
O320 Cd310 2.297 . S
O320 C315 1.247 . S
O321 Cd310 2.439 . S
O321 C315 1.208 . S
O322 Cd323 2.223 . S
O322 C330 1.315 . S
Cd323 O322 2.223 . S
Cd323 O326 2.297 . S
Cd323 O327 2.439 . S
Cd323 O333 2.240 . S
Cd324 O325 2.240 . S
Cd324 O332 2.223 . S
Cd324 O334 2.297 . S
Cd324 O335 2.439 . S
O325 Cd324 2.240 . S
O325 C330 1.279 . S
O326 Cd323 2.297 . S
O326 C328 1.247 . S
O327 Cd323 2.439 . S
O327 C328 1.208 . S
C328 O326 1.247 . S
C328 O327 1.208 . S
C329 O334 1.247 . S
C329 O335 1.208 . S
C330 O322 1.315 . S
C330 O325 1.279 . S
C331 O332 1.315 . S
C331 O333 1.279 . S
O332 Cd324 2.223 . S
O332 C331 1.315 . S
O333 Cd323 2.240 . S
O333 C331 1.279 . S
O334 Cd324 2.297 . S
O334 C329 1.247 . S
O335 Cd324 2.439 . S
O335 C329 1.208 . S
O336 Cd337 2.223 . S
O336 C344 1.315 . S
Cd337 O336 2.223 . S
Cd337 O340 2.297 . S
Cd337 O341 2.439 . S
Cd337 O347 2.240 . S
Cd338 O339 2.240 . S
Cd338 O346 2.223 . S
Cd338 O348 2.297 . S
Cd338 O349 2.439 . S
O339 Cd338 2.240 . S
O339 C344 1.279 . S
O340 Cd337 2.297 . S
O340 C342 1.247 . S
O341 Cd337 2.439 . S
O341 C342 1.208 . S
C342 O340 1.247 . S
C342 O341 1.208 . S
C343 O348 1.247 . S
C343 O349 1.208 . S
C344 O336 1.315 . S
C344 O339 1.279 . S
C345 O346 1.315 . S
C345 O347 1.279 . S
O346 Cd338 2.223 . S
O346 C345 1.315 . S
O347 Cd337 2.240 . S
O347 C345 1.279 . S
O348 Cd338 2.297 . S
O348 C343 1.247 . S
O349 Cd338 2.439 . S
O349 C343 1.208 . S
O350 Cd351 2.223 . S
O350 C358 1.315 . S
Cd351 O350 2.223 . S
Cd351 O354 2.297 . S
Cd351 O355 2.439 . S
Cd351 O361 2.240 . S
Cd352 O353 2.240 . S
Cd352 O360 2.223 . S
Cd352 O362 2.297 . S
Cd352 O363 2.439 . S
O353 Cd352 2.240 . S
O353 C358 1.279 . S
O354 Cd351 2.297 . S
O354 C356 1.247 . S
O355 Cd351 2.439 . S
O355 C356 1.208 . S
C356 O354 1.247 . S
C356 O355 1.208 . S
C357 O362 1.247 . S
C357 O363 1.208 . S
C358 O350 1.315 . S
C358 O353 1.279 . S
C359 O360 1.315 . S
C359 O361 1.279 . S
O360 Cd352 2.223 . S
O360 C359 1.315 . S
O361 Cd351 2.240 . S
O361 C359 1.279 . S
O362 Cd352 2.297 . S
O362 C357 1.247 . S
O363 Cd352 2.439 . S
O363 C357 1.208 . S
O364 Cd365 2.223 . S
O364 C372 1.315 . S
Cd365 O364 2.223 . S
Cd365 O368 2.297 . S
Cd365 O369 2.439 . S
Cd365 O375 2.240 . S
Cd366 O367 2.240 . S
Cd366 O374 2.223 . S
Cd366 O376 2.297 . S
Cd366 O377 2.439 . S
O367 Cd366 2.240 . S
O367 C372 1.279 . S
O368 Cd365 2.297 . S
O368 C370 1.247 . S
O369 Cd365 2.439 . S
O369 C370 1.208 . S
C370 O368 1.247 . S
C370 O369 1.208 . S
C371 O376 1.247 . S
C371 O377 1.208 . S
C372 O364 1.315 . S
C372 O367 1.279 . S
C373 O374 1.315 . S
C373 O375 1.279 . S
O374 Cd366 2.223 . S
O374 C373 1.315 . S
O375 Cd365 2.240 . S
O375 C373 1.279 . S
O376 Cd366 2.297 . S
O376 C371 1.247 . S
O377 Cd366 2.439 . S
O377 C371 1.208 . S
O378 Cd379 2.223 . S
O378 C386 1.315 . S
Cd379 O378 2.223 . S
Cd379 O382 2.297 . S
Cd379 O383 2.439 . S
Cd379 O389 2.240 . S
Cd380 O381 2.240 . S
Cd380 O388 2.223 . S
Cd380 O390 2.297 . S
Cd380 O391 2.439 . S
O381 Cd380 2.240 . S
O381 C386 1.279 . S
O382 Cd379 2.297 . S
O382 C384 1.247 . S
O383 Cd379 2.439 . S
O383 C384 1.208 . S
C384 O382 1.247 . S
C384 O383 1.208 . S
C385 O390 1.247 . S
C385 O391 1.208 . S
C386 O378 1.315 . S
C386 O381 1.279 . S
C387 O388 1.315 . S
C387 O389 1.279 . S
O388 Cd380 2.223 . S
O388 C387 1.315 . S
O389 Cd379 2.240 . S
O389 C387 1.279 . S
O390 Cd380 2.297 . S
O390 C385 1.247 . S
O391 Cd380 2.439 . S
O391 C385 1.208 . S
O392 Cd393 2.223 . S
O392 C400 1.315 . S
Cd393 O392 2.223 . S
Cd393 O396 2.297 . S
Cd393 O397 2.439 . S
Cd393 O403 2.240 . S
Cd394 O395 2.240 . S
Cd394 O402 2.223 . S
Cd394 O404 2.297 . S
Cd394 O405 2.439 . S
O395 Cd394 2.240 . S
O395 C400 1.279 . S
O396 Cd393 2.297 . S
O396 C398 1.247 . S
O397 Cd393 2.439 . S
O397 C398 1.208 . S
C398 O396 1.247 . S
C398 O397 1.208 . S
C399 O404 1.247 . S
C399 O405 1.208 . S
C400 O392 1.315 . S
C400 O395 1.279 . S
C401 O402 1.315 . S
C401 O403 1.279 . S
O402 Cd394 2.223 . S
O402 C401 1.315 . S
O403 Cd393 2.240 . S
O403 C401 1.279 . S
O404 Cd394 2.297 . S
O404 C399 1.247 . S
O405 Cd394 2.439 . S
O405 C399 1.208 . S
O406 Cd407 2.223 . S
O406 C414 1.315 . S
Cd407 O406 2.223 . S
Cd407 O410 2.297 . S
Cd407 O411 2.439 . S
Cd407 O417 2.240 . S
Cd408 O409 2.240 . S
Cd408 O416 2.223 . S
Cd408 O418 2.297 . S
Cd408 O419 2.439 . S
O409 Cd408 2.240 . S
O409 C414 1.279 . S
O410 Cd407 2.297 . S
O410 C412 1.247 . S
O411 Cd407 2.439 . S
O411 C412 1.208 . S
C412 O410 1.247 . S
C412 O411 1.208 . S
C413 O418 1.247 . S
C413 O419 1.208 . S
C414 O406 1.315 . S
C414 O409 1.279 . S
C415 O416 1.315 . S
C415 O417 1.279 . S
O416 Cd408 2.223 . S
O416 C415 1.315 . S
O417 Cd407 2.240 . S
O417 C415 1.279 . S
O418 Cd408 2.297 . S
O418 C413 1.247 . S
O419 Cd408 2.439 . S
O419 C413 1.208 . S
O420 Cd421 2.223 1_556 S
O420 C428 1.315 . S
Cd421 O420 2.223 1_554 S
Cd421 O424 2.297 . S
Cd421 O425 2.439 . S
Cd421 O431 2.240 . S
Cd422 O423 2.240 . S
Cd422 O430 2.223 . S
Cd422 O432 2.297 . S
Cd422 O433 2.439 . S
O423 Cd422 2.240 . S
O423 C428 1.279 1_554 S
O424 Cd421 2.297 . S
O424 C426 1.247 . S
O425 Cd421 2.439 . S
O425 C426 1.208 . S
C426 O424 1.247 . S
C426 O425 1.208 . S
C427 O432 1.247 . S
C427 O433 1.208 . S
C428 O420 1.315 . S
C428 O423 1.279 1_556 S
C429 O430 1.315 . S
C429 O431 1.279 . S
O430 Cd422 2.223 . S
O430 C429 1.315 . S
O431 Cd421 2.240 . S
O431 C429 1.279 . S
O432 Cd422 2.297 . S
O432 C427 1.247 . S
O433 Cd422 2.439 . S
O433 C427 1.208 . S
O434 Cd435 2.223 . S
O434 C442 1.315 . S
Cd435 O434 2.223 . S
Cd435 O438 2.297 . S
Cd435 O439 2.439 . S
Cd435 O445 2.240 . S
Cd436 O437 2.240 . S
Cd436 O444 2.223 . S
Cd436 O446 2.297 . S
Cd436 O447 2.439 . S
O437 Cd436 2.240 . S
O437 C442 1.279 . S
O438 Cd435 2.297 . S
O438 C440 1.247 . S
O439 Cd435 2.439 . S
O439 C440 1.208 . S
C440 O438 1.247 . S
C440 O439 1.208 . S
C441 O446 1.247 . S
C441 O447 1.208 . S
C442 O434 1.315 . S
C442 O437 1.279 . S
C443 O444 1.315 . S
C443 O445 1.279 . S
O444 Cd436 2.223 . S
O444 C443 1.315 . S
O445 Cd435 2.240 . S
O445 C443 1.279 . S
O446 Cd436 2.297 . S
O446 C441 1.247 . S
O447 Cd436 2.439 . S
O447 C441 1.208 . S
H448 C456 0.929 . S
H449 C458 0.930 . S
H450 C460 0.930 . S
H451 C463 0.929 . S
H452 C466 0.930 . S
H453 C468 0.960 . S
H454 C468 0.960 . S
H455 C468 0.960 . S
C456 H448 0.929 . S
C456 C457 1.377 . S
C456 C458 1.384 . S
C457 C456 1.377 . S
C457 C463 1.390 . S
C458 H449 0.930 . S
C458 C456 1.384 . S
C458 C459 1.372 . S
C459 C458 1.372 . S
C459 C460 1.400 . S
C459 C464 1.490 . S
C460 H450 0.930 . S
C460 C459 1.400 . S
C460 C463 1.386 . S
H461 C477 0.930 . S
H462 C478 0.931 . S
C463 H451 0.929 . S
C463 C457 1.390 . S
C463 C460 1.386 . S
C464 C459 1.490 . S
C464 C466 1.395 . S
C464 C467 1.403 . S
H465 C471 0.930 . S
C466 H452 0.930 . S
C466 C464 1.395 . S
C466 C469 1.403 . S
C467 C464 1.403 . S
C467 C468 1.524 . S
C467 C471 1.400 . S
C468 H453 0.960 . S
C468 H454 0.960 . S
C468 H455 0.960 . S
C468 C467 1.524 . S
C469 C466 1.403 . S
C469 C470 1.392 . S
C469 C473 1.495 . S
C470 C469 1.392 . S
C470 C471 1.385 . S
C470 C472 1.478 . S
C471 H465 0.930 . S
C471 C467 1.400 . S
C471 C470 1.385 . S
C472 C470 1.478 . S
C472 C474 1.381 . S
C472 C478 1.383 1_556 S
C473 C469 1.495 . S
C473 H479 0.959 . S
C473 H480 0.961 1_556 S
C473 H481 0.960 . S
C474 C472 1.381 . S
C474 C475 1.394 . S
C474 H482 0.930 . S
C475 C474 1.394 . S
C475 C476 1.383 1_556 S
C475 H483 0.929 . S
C476 C475 1.383 1_554 S
C476 C477 1.377 . S
C477 H461 0.930 . S
C477 C476 1.377 . S
C477 C478 1.379 . S
C478 H462 0.931 . S
C478 C472 1.383 1_554 S
C478 C477 1.379 . S
H479 C473 0.959 . S
H480 C473 0.961 1_554 S
H481 C473 0.960 . S
H482 C474 0.930 . S
H483 C475 0.929 . S
H484 C492 0.929 . S
H485 C494 0.930 . S
H486 C496 0.930 . S
H487 C499 0.929 . S
H488 C502 0.930 . S
H489 C504 0.960 . S
H490 C504 0.960 . S
H491 C504 0.960 . S
C492 H484 0.929 . S
C492 C493 1.377 . S
C492 C494 1.384 . S
C493 C492 1.377 . S
C493 C499 1.390 . S
C494 H485 0.930 . S
C494 C492 1.384 . S
C494 C495 1.372 . S
C495 C494 1.372 . S
C495 C496 1.400 . S
C495 C500 1.490 . S
C496 H486 0.930 . S
C496 C495 1.400 . S
C496 C499 1.386 . S
H497 C513 0.930 . S
H498 C514 0.931 . S
C499 H487 0.929 . S
C499 C493 1.390 . S
C499 C496 1.386 . S
C500 C495 1.490 . S
C500 C502 1.395 . S
C500 C503 1.403 . S
H501 C507 0.930 . S
C502 H488 0.930 . S
C502 C500 1.395 . S
C502 C505 1.403 . S
C503 C500 1.403 . S
C503 C504 1.524 . S
C503 C507 1.400 . S
C504 H489 0.960 . S
C504 H490 0.960 . S
C504 H491 0.960 . S
C504 C503 1.524 . S
C505 C502 1.403 . S
C505 C506 1.392 . S
C505 C509 1.495 . S
C506 C505 1.392 . S
C506 C507 1.385 . S
C506 C508 1.478 . S
C507 H501 0.930 . S
C507 C503 1.400 . S
C507 C506 1.385 . S
C508 C506 1.478 . S
C508 C510 1.381 . S
C508 C514 1.383 . S
C509 C505 1.495 . S
C509 H515 0.959 . S
C509 H516 0.961 . S
C509 H517 0.960 . S
C510 C508 1.381 . S
C510 C511 1.394 . S
C510 H518 0.930 . S
C511 C510 1.394 . S
C511 C512 1.383 . S
C511 H519 0.929 . S
C512 C511 1.383 . S
C512 C513 1.377 . S
C513 H497 0.930 . S
C513 C512 1.377 . S
C513 C514 1.379 . S
C514 H498 0.931 . S
C514 C508 1.383 . S
C514 C513 1.379 . S
H515 C509 0.959 . S
H516 C509 0.961 . S
H517 C509 0.960 . S
H518 C510 0.930 . S
H519 C511 0.929 . S
H520 C528 0.929 . S
H521 C530 0.930 . S
H522 C532 0.930 . S
H523 C535 0.929 . S
H524 C538 0.930 . S
H525 C540 0.960 . S
H526 C540 0.960 . S
H527 C540 0.960 . S
C528 H520 0.929 . S
C528 C529 1.377 . S
C528 C530 1.384 . S
C529 C528 1.377 . S
C529 C535 1.390 . S
C530 H521 0.930 . S
C530 C528 1.384 . S
C530 C531 1.372 . S
C531 C530 1.372 . S
C531 C532 1.400 . S
C531 C536 1.490 . S
C532 H522 0.930 . S
C532 C531 1.400 . S
C532 C535 1.386 . S
H533 C549 0.930 . S
H534 C550 0.931 . S
C535 H523 0.929 . S
C535 C529 1.390 . S
C535 C532 1.386 . S
C536 C531 1.490 . S
C536 C538 1.395 . S
C536 C539 1.403 . S
H537 C543 0.930 . S
C538 H524 0.930 . S
C538 C536 1.395 . S
C538 C541 1.403 . S
C539 C536 1.403 . S
C539 C540 1.524 . S
C539 C543 1.400 . S
C540 H525 0.960 . S
C540 H526 0.960 . S
C540 H527 0.960 . S
C540 C539 1.524 . S
C541 C538 1.403 . S
C541 C542 1.392 . S
C541 C545 1.495 . S
C542 C541 1.392 . S
C542 C543 1.385 . S
C542 C544 1.478 . S
C543 H537 0.930 . S
C543 C539 1.400 . S
C543 C542 1.385 . S
C544 C542 1.478 . S
C544 C546 1.381 . S
C544 C550 1.383 . S
C545 C541 1.495 . S
C545 H551 0.959 . S
C545 H552 0.961 . S
C545 H553 0.960 . S
C546 C544 1.381 . S
C546 C547 1.394 . S
C546 H554 0.930 . S
C547 C546 1.394 . S
C547 C548 1.383 . S
C547 H555 0.929 . S
C548 C547 1.383 . S
C548 C549 1.377 . S
C549 H533 0.930 . S
C549 C548 1.377 . S
C549 C550 1.379 . S
C550 H534 0.931 . S
C550 C544 1.383 . S
C550 C549 1.379 . S
H551 C545 0.959 . S
H552 C545 0.961 . S
H553 C545 0.960 . S
H554 C546 0.930 . S
H555 C547 0.929 . S
H556 C564 0.929 . S
H557 C566 0.930 . S
H558 C568 0.930 . S
H559 C571 0.929 . S
H560 C574 0.930 . S
H561 C576 0.960 . S
H562 C576 0.960 . S
H563 C576 0.960 . S
C564 H556 0.929 . S
C564 C565 1.377 . S
C564 C566 1.384 . S
C565 C564 1.377 . S
C565 C571 1.390 . S
C566 H557 0.930 . S
C566 C564 1.384 . S
C566 C567 1.372 . S
C567 C566 1.372 . S
C567 C568 1.400 . S
C567 C572 1.490 . S
C568 H558 0.930 . S
C568 C567 1.400 . S
C568 C571 1.386 . S
H569 C585 0.930 . S
H570 C586 0.931 . S
C571 H559 0.929 . S
C571 C565 1.390 . S
C571 C568 1.386 . S
C572 C567 1.490 . S
C572 C574 1.395 . S
C572 C575 1.403 . S
H573 C579 0.930 . S
C574 H560 0.930 . S
C574 C572 1.395 . S
C574 C577 1.403 . S
C575 C572 1.403 . S
C575 C576 1.524 . S
C575 C579 1.400 . S
C576 H561 0.960 . S
C576 H562 0.960 . S
C576 H563 0.960 . S
C576 C575 1.524 . S
C577 C574 1.403 . S
C577 C578 1.392 . S
C577 C581 1.495 . S
C578 C577 1.392 . S
C578 C579 1.385 . S
C578 C580 1.478 . S
C579 H573 0.930 . S
C579 C575 1.400 . S
C579 C578 1.385 . S
C580 C578 1.478 . S
C580 C582 1.381 . S
C580 C586 1.383 . S
C581 C577 1.495 . S
C581 H587 0.959 . S
C581 H588 0.961 . S
C581 H589 0.960 . S
C582 C580 1.381 . S
C582 C583 1.394 . S
C582 H590 0.930 . S
C583 C582 1.394 . S
C583 C584 1.383 . S
C583 H591 0.929 . S
C584 C583 1.383 . S
C584 C585 1.377 . S
C585 H569 0.930 . S
C585 C584 1.377 . S
C585 C586 1.379 . S
C586 H570 0.931 . S
C586 C580 1.383 . S
C586 C585 1.379 . S
H587 C581 0.959 . S
H588 C581 0.961 . S
H589 C581 0.960 . S
H590 C582 0.930 . S
H591 C583 0.929 . S
H592 C600 0.929 . S
H593 C602 0.930 . S
H594 C604 0.930 . S
H595 C607 0.929 . S
H596 C610 0.930 . S
H597 C612 0.960 . S
H598 C612 0.960 . S
H599 C612 0.960 . S
C600 H592 0.929 . S
C600 C601 1.377 . S
C600 C602 1.384 . S
C601 C600 1.377 . S
C601 C607 1.390 . S
C602 H593 0.930 . S
C602 C600 1.384 . S
C602 C603 1.372 . S
C603 C602 1.372 . S
C603 C604 1.400 . S
C603 C608 1.490 . S
C604 H594 0.930 . S
C604 C603 1.400 . S
C604 C607 1.386 . S
H605 C621 0.930 . S
H606 C622 0.931 . S
C607 H595 0.929 . S
C607 C601 1.390 . S
C607 C604 1.386 . S
C608 C603 1.490 . S
C608 C610 1.395 . S
C608 C611 1.403 . S
H609 C615 0.930 . S
C610 H596 0.930 . S
C610 C608 1.395 . S
C610 C613 1.403 . S
C611 C608 1.403 . S
C611 C612 1.524 . S
C611 C615 1.400 . S
C612 H597 0.960 . S
C612 H598 0.960 . S
C612 H599 0.960 . S
C612 C611 1.524 . S
C613 C610 1.403 . S
C613 C614 1.392 . S
C613 C617 1.495 . S
C614 C613 1.392 . S
C614 C615 1.385 . S
C614 C616 1.478 . S
C615 H609 0.930 . S
C615 C611 1.400 . S
C615 C614 1.385 . S
C616 C614 1.478 . S
C616 C618 1.381 . S
C616 C622 1.383 . S
C617 C613 1.495 . S
C617 H623 0.959 . S
C617 H624 0.961 . S
C617 H625 0.960 . S
C618 C616 1.381 . S
C618 C619 1.394 . S
C618 H626 0.930 . S
C619 C618 1.394 . S
C619 C620 1.383 . S
C619 H627 0.929 . S
C620 C619 1.383 . S
C620 C621 1.377 . S
C621 H605 0.930 . S
C621 C620 1.377 . S
C621 C622 1.379 . S
C622 H606 0.931 . S
C622 C616 1.383 . S
C622 C621 1.379 . S
H623 C617 0.959 . S
H624 C617 0.961 . S
H625 C617 0.960 . S
H626 C618 0.930 . S
H627 C619 0.929 . S
H628 C636 0.929 . S
H629 C638 0.930 . S
H630 C640 0.930 . S
H631 C643 0.929 . S
H632 C646 0.930 . S
H633 C648 0.960 . S
H634 C648 0.960 . S
H635 C648 0.960 . S
C636 H628 0.929 . S
C636 C637 1.377 . S
C636 C638 1.384 . S
C637 C636 1.377 . S
C637 C643 1.390 . S
C638 H629 0.930 . S
C638 C636 1.384 . S
C638 C639 1.372 . S
C639 C638 1.372 . S
C639 C640 1.400 . S
C639 C644 1.490 . S
C640 H630 0.930 . S
C640 C639 1.400 . S
C640 C643 1.386 . S
H641 C657 0.930 . S
H642 C658 0.931 . S
C643 H631 0.929 . S
C643 C637 1.390 . S
C643 C640 1.386 . S
C644 C639 1.490 . S
C644 C646 1.395 . S
C644 C647 1.403 . S
H645 C651 0.930 . S
C646 H632 0.930 . S
C646 C644 1.395 . S
C646 C649 1.403 1_556 S
C647 C644 1.403 . S
C647 C648 1.524 . S
C647 C651 1.400 . S
C648 H633 0.960 . S
C648 H634 0.960 . S
C648 H635 0.960 . S
C648 C647 1.524 . S
C649 C646 1.403 1_554 S
C649 C650 1.392 1_554 S
C649 C653 1.495 . S
C650 C649 1.392 1_556 S
C650 C651 1.385 . S
C650 C652 1.476 . S
C651 H645 0.930 . S
C651 C647 1.400 . S
C651 C650 1.385 . S
C652 C650 1.476 . S
C652 C654 1.383 1_556 S
C652 C658 1.381 . S
C653 C649 1.495 . S
C653 H659 0.959 . S
C653 H660 0.961 . S
C653 H661 0.960 . S
C654 C652 1.383 1_554 S
C654 C655 1.394 . S
C654 H662 0.930 . S
C655 C654 1.394 . S
C655 C656 1.383 . S
C655 H663 0.929 . S
C656 C655 1.383 . S
C656 C657 1.377 1_554 S
C657 H641 0.930 . S
C657 C656 1.377 1_556 S
C657 C658 1.379 . S
C658 H642 0.931 . S
C658 C652 1.381 . S
C658 C657 1.379 . S
H659 C653 0.959 . S
H660 C653 0.961 . S
H661 C653 0.960 . S
H662 C654 0.930 . S
H663 C655 0.929 . S
H664 C672 0.929 . S
H665 C674 0.930 . S
H666 C676 0.930 . S
H667 C679 0.929 . S
H668 C682 0.930 . S
H669 C684 0.960 . S
H670 C684 0.960 . S
H671 C684 0.960 . S
C672 H664 0.929 . S
C672 C673 1.377 . S
C672 C674 1.384 . S
C673 C672 1.377 . S
C673 C679 1.390 . S
C674 H665 0.930 . S
C674 C672 1.384 . S
C674 C675 1.372 . S
C675 C674 1.372 . S
C675 C676 1.400 . S
C675 C680 1.490 . S
C676 H666 0.930 . S
C676 C675 1.400 . S
C676 C679 1.386 . S
H677 C693 0.930 . S
H678 C694 0.931 . S
C679 H667 0.929 . S
C679 C673 1.390 . S
C679 C676 1.386 . S
C680 C675 1.490 . S
C680 C682 1.395 . S
C680 C683 1.403 . S
H681 C687 0.930 . S
C682 H668 0.930 . S
C682 C680 1.395 . S
C682 C685 1.403 . S
C683 C680 1.403 . S
C683 C684 1.524 . S
C683 C687 1.400 . S
C684 H669 0.960 . S
C684 H670 0.960 . S
C684 H671 0.960 . S
C684 C683 1.524 . S
C685 C682 1.403 . S
C685 C686 1.392 . S
C685 C689 1.495 . S
C686 C685 1.392 . S
C686 C687 1.385 . S
C686 C688 1.478 . S
C687 H681 0.930 . S
C687 C683 1.400 . S
C687 C686 1.385 . S
C688 C686 1.478 . S
C688 C690 1.381 . S
C688 C694 1.383 . S
C689 C685 1.495 . S
C689 H695 0.959 . S
C689 H696 0.961 . S
C689 H697 0.960 . S
C690 C688 1.381 . S
C690 C691 1.394 . S
C690 H698 0.930 . S
C691 C690 1.394 . S
C691 C692 1.383 . S
C691 H699 0.929 . S
C692 C691 1.383 . S
C692 C693 1.377 . S
C693 H677 0.930 . S
C693 C692 1.377 . S
C693 C694 1.379 . S
C694 H678 0.931 . S
C694 C688 1.383 . S
C694 C693 1.379 . S
H695 C689 0.959 . S
H696 C689 0.961 . S
H697 C689 0.960 . S
H698 C690 0.930 . S
H699 C691 0.929 . S
H700 C708 0.929 . S
H701 C710 0.930 . S
H702 C712 0.930 . S
H703 C715 0.929 . S
H704 C718 0.930 . S
H705 C720 0.960 . S
H706 C720 0.960 . S
H707 C720 0.960 . S
C708 H700 0.929 . S
C708 C709 1.377 . S
C708 C710 1.384 . S
C709 C708 1.377 . S
C709 C715 1.390 . S
C710 H701 0.930 . S
C710 C708 1.384 . S
C710 C711 1.372 . S
C711 C710 1.372 . S
C711 C712 1.400 . S
C711 C716 1.490 . S
C712 H702 0.930 . S
C712 C711 1.400 . S
C712 C715 1.386 . S
H713 C729 0.930 . S
H714 C730 0.931 . S
C715 H703 0.929 . S
C715 C709 1.390 . S
C715 C712 1.386 . S
C716 C711 1.490 . S
C716 C718 1.395 . S
C716 C719 1.403 . S
H717 C723 0.930 . S
C718 H704 0.930 . S
C718 C716 1.395 . S
C718 C721 1.403 . S
C719 C716 1.403 . S
C719 C720 1.524 . S
C719 C723 1.400 . S
C720 H705 0.960 . S
C720 H706 0.960 . S
C720 H707 0.960 . S
C720 C719 1.524 . S
C721 C718 1.403 . S
C721 C722 1.392 . S
C721 C725 1.495 . S
C722 C721 1.392 . S
C722 C723 1.385 . S
C722 C724 1.478 . S
C723 H717 0.930 . S
C723 C719 1.400 . S
C723 C722 1.385 . S
C724 C722 1.478 . S
C724 C726 1.381 . S
C724 C730 1.383 . S
C725 C721 1.495 . S
C725 H731 0.959 . S
C725 H732 0.961 . S
C725 H733 0.960 . S
C726 C724 1.381 . S
C726 C727 1.394 . S
C726 H734 0.930 . S
C727 C726 1.394 . S
C727 C728 1.383 . S
C727 H735 0.929 . S
C728 C727 1.383 . S
C728 C729 1.377 . S
C729 H713 0.930 . S
C729 C728 1.377 . S
C729 C730 1.379 . S
C730 H714 0.931 . S
C730 C724 1.383 . S
C730 C729 1.379 . S
H731 C725 0.959 . S
H732 C725 0.961 . S
H733 C725 0.960 . S
H734 C726 0.930 . S
H735 C727 0.929 . S
H736 C744 0.929 . S
H737 C746 0.930 . S
H738 C748 0.930 . S
H739 C751 0.929 . S
H740 C754 0.930 . S
H741 C756 0.960 . S
H742 C756 0.960 . S
H743 C756 0.960 . S
C744 H736 0.929 . S
C744 C745 1.377 . S
C744 C746 1.384 . S
C745 C744 1.377 . S
C745 C751 1.390 . S
C746 H737 0.930 . S
C746 C744 1.384 . S
C746 C747 1.372 . S
C747 C746 1.372 . S
C747 C748 1.400 . S
C747 C752 1.490 . S
C748 H738 0.930 . S
C748 C747 1.400 . S
C748 C751 1.386 . S
H749 C765 0.930 . S
H750 C766 0.931 . S
C751 H739 0.929 . S
C751 C745 1.390 . S
C751 C748 1.386 . S
C752 C747 1.490 . S
C752 C754 1.395 . S
C752 C755 1.403 . S
H753 C759 0.930 . S
C754 H740 0.930 . S
C754 C752 1.395 . S
C754 C757 1.403 . S
C755 C752 1.403 . S
C755 C756 1.524 . S
C755 C759 1.400 . S
C756 H741 0.960 . S
C756 H742 0.960 . S
C756 H743 0.960 . S
C756 C755 1.524 . S
C757 C754 1.403 . S
C757 C758 1.392 . S
C757 C761 1.495 . S
C758 C757 1.392 . S
C758 C759 1.385 . S
C758 C760 1.478 . S
C759 H753 0.930 . S
C759 C755 1.400 . S
C759 C758 1.385 . S
C760 C758 1.478 . S
C760 C762 1.381 . S
C760 C766 1.383 . S
C761 C757 1.495 . S
C761 H767 0.959 . S
C761 H768 0.961 . S
C761 H769 0.960 . S
C762 C760 1.381 . S
C762 C763 1.394 . S
C762 H770 0.930 . S
C763 C762 1.394 . S
C763 C764 1.383 . S
C763 H771 0.929 . S
C764 C763 1.383 . S
C764 C765 1.377 . S
C765 H749 0.930 . S
C765 C764 1.377 . S
C765 C766 1.379 . S
C766 H750 0.931 . S
C766 C760 1.383 . S
C766 C765 1.379 . S
H767 C761 0.959 . S
H768 C761 0.961 . S
H769 C761 0.960 . S
H770 C762 0.930 . S
H771 C763 0.929 . S
H772 C780 0.929 . S
H773 C782 0.930 . S
H774 C784 0.930 . S
H775 C787 0.929 . S
H776 C790 0.930 . S
H777 C792 0.960 . S
H778 C792 0.960 . S
H779 C792 0.960 . S
C780 H772 0.929 . S
C780 C781 1.377 . S
C780 C782 1.384 . S
C781 C780 1.377 . S
C781 C787 1.390 . S
C782 H773 0.930 . S
C782 C780 1.384 . S
C782 C783 1.372 . S
C783 C782 1.372 . S
C783 C784 1.400 . S
C783 C788 1.490 . S
C784 H774 0.930 . S
C784 C783 1.400 . S
C784 C787 1.386 . S
H785 C801 0.930 . S
H786 C802 0.931 . S
C787 H775 0.929 . S
C787 C781 1.390 . S
C787 C784 1.386 . S
C788 C783 1.490 . S
C788 C790 1.395 . S
C788 C791 1.403 . S
H789 C795 0.930 . S
C790 H776 0.930 . S
C790 C788 1.395 . S
C790 C793 1.403 . S
C791 C788 1.403 . S
C791 C792 1.524 . S
C791 C795 1.400 . S
C792 H777 0.960 . S
C792 H778 0.960 . S
C792 H779 0.960 . S
C792 C791 1.524 . S
C793 C790 1.403 . S
C793 C794 1.392 . S
C793 C797 1.495 . S
C794 C793 1.392 . S
C794 C795 1.385 . S
C794 C796 1.478 . S
C795 H789 0.930 . S
C795 C791 1.400 . S
C795 C794 1.385 . S
C796 C794 1.478 . S
C796 C798 1.381 . S
C796 C802 1.383 . S
C797 C793 1.495 . S
C797 H803 0.959 . S
C797 H804 0.961 . S
C797 H805 0.960 . S
C798 C796 1.381 . S
C798 C799 1.394 . S
C798 H806 0.930 . S
C799 C798 1.394 . S
C799 C800 1.383 . S
C799 H807 0.929 . S
C800 C799 1.383 . S
C800 C801 1.377 . S
C801 H785 0.930 . S
C801 C800 1.377 . S
C801 C802 1.379 . S
C802 H786 0.931 . S
C802 C796 1.383 . S
C802 C801 1.379 . S
H803 C797 0.959 . S
H804 C797 0.961 . S
H805 C797 0.960 . S
H806 C798 0.930 . S
H807 C799 0.929 . S
H808 C816 0.929 . S
H809 C818 0.930 . S
H810 C820 0.930 . S
H811 C823 0.929 . S
H812 C826 0.930 . S
H813 C828 0.960 . S
H814 C828 0.960 . S
H815 C828 0.960 . S
C816 H808 0.929 . S
C816 C817 1.377 . S
C816 C818 1.384 . S
C817 C816 1.377 . S
C817 C823 1.390 . S
C818 H809 0.930 . S
C818 C816 1.384 . S
C818 C819 1.372 . S
C819 C818 1.372 . S
C819 C820 1.400 . S
C819 C824 1.490 . S
C820 H810 0.930 . S
C820 C819 1.400 . S
C820 C823 1.386 . S
H821 C837 0.930 . S
H822 C838 0.931 . S
C823 H811 0.929 . S
C823 C817 1.390 . S
C823 C820 1.386 . S
C824 C819 1.490 . S
C824 C826 1.395 . S
C824 C827 1.403 . S
H825 C831 0.930 . S
C826 H812 0.930 . S
C826 C824 1.395 . S
C826 C829 1.403 . S
C827 C824 1.403 . S
C827 C828 1.524 . S
C827 C831 1.400 . S
C828 H813 0.960 . S
C828 H814 0.960 . S
C828 H815 0.960 . S
C828 C827 1.524 . S
C829 C826 1.403 . S
C829 C830 1.392 . S
C829 C833 1.495 1_556 S
C830 C829 1.392 . S
C830 C831 1.385 . S
C830 C832 1.478 . S
C831 H825 0.930 . S
C831 C827 1.400 . S
C831 C830 1.385 . S
C832 C830 1.478 . S
C832 C834 1.381 . S
C832 C838 1.383 1_556 S
C833 C829 1.495 1_554 S
C833 H839 0.959 . S
C833 H840 0.961 . S
C833 H841 0.971 . S
C834 C832 1.381 . S
C834 C835 1.392 1_556 S
C834 H842 0.930 . S
C835 C834 1.392 1_554 S
C835 C836 1.387 . S
C835 H843 0.928 1_554 S
C836 C835 1.387 . S
C836 C837 1.377 . S
C837 H821 0.930 . S
C837 C836 1.377 . S
C837 C838 1.379 . S
C838 H822 0.931 . S
C838 C832 1.383 1_554 S
C838 C837 1.379 . S
H839 C833 0.959 . S
H840 C833 0.961 . S
H841 C833 0.971 . S
H842 C834 0.930 . S
H843 C835 0.928 1_556 S
H844 C852 0.929 . S
H845 C854 0.930 . S
H846 C856 0.930 . S
H847 C859 0.929 . S
H848 C862 0.930 . S
H849 C864 0.960 . S
H850 C864 0.960 . S
H851 C864 0.960 . S
C852 H844 0.929 . S
C852 C853 1.377 . S
C852 C854 1.384 . S
C853 C852 1.377 . S
C853 C859 1.390 . S
C854 H845 0.930 . S
C854 C852 1.384 . S
C854 C855 1.372 . S
C855 C854 1.372 . S
C855 C856 1.400 . S
C855 C860 1.490 . S
C856 H846 0.930 . S
C856 C855 1.400 . S
C856 C859 1.386 . S
H857 C873 0.930 . S
H858 C874 0.931 . S
C859 H847 0.929 . S
C859 C853 1.390 . S
C859 C856 1.386 . S
C860 C855 1.490 . S
C860 C862 1.395 . S
C860 C863 1.403 . S
H861 C867 0.930 . S
C862 H848 0.930 . S
C862 C860 1.395 . S
C862 C865 1.403 . S
C863 C860 1.403 . S
C863 C864 1.524 . S
C863 C867 1.400 . S
C864 H849 0.960 . S
C864 H850 0.960 . S
C864 H851 0.960 . S
C864 C863 1.524 . S
C865 C862 1.403 . S
C865 C866 1.392 . S
C865 C869 1.495 . S
C866 C865 1.392 . S
C866 C867 1.385 . S
C866 C868 1.478 . S
C867 H861 0.930 . S
C867 C863 1.400 . S
C867 C866 1.385 . S
C868 C866 1.478 . S
C868 C870 1.381 . S
C868 C874 1.383 . S
C869 C865 1.495 . S
C869 H875 0.959 . S
C869 H876 0.961 . S
C869 H877 0.960 . S
C870 C868 1.381 . S
C870 C871 1.394 . S
C870 H878 0.930 . S
C871 C870 1.394 . S
C871 C872 1.383 . S
C871 H879 0.929 . S
C872 C871 1.383 . S
C872 C873 1.377 . S
C873 H857 0.930 . S
C873 C872 1.377 . S
C873 C874 1.379 . S
C874 H858 0.931 . S
C874 C868 1.383 . S
C874 C873 1.379 . S
H875 C869 0.959 . S
H876 C869 0.961 . S
H877 C869 0.960 . S
H878 C870 0.930 . S
H879 C871 0.929 . S
H880 C888 0.929 . S
H881 C890 0.930 . S
H882 C892 0.930 . S
H883 C895 0.929 . S
H884 C898 0.930 . S
H885 C900 0.960 . S
H886 C900 0.960 . S
H887 C900 0.960 . S
C888 H880 0.929 . S
C888 C889 1.377 . S
C888 C890 1.384 . S
C889 C888 1.377 . S
C889 C895 1.390 . S
C890 H881 0.930 . S
C890 C888 1.384 . S
C890 C891 1.372 . S
C891 C890 1.372 . S
C891 C892 1.400 . S
C891 C896 1.490 . S
C892 H882 0.930 . S
C892 C891 1.400 . S
C892 C895 1.386 . S
H893 C909 0.930 . S
H894 C910 0.931 . S
C895 H883 0.929 . S
C895 C889 1.390 . S
C895 C892 1.386 . S
C896 C891 1.490 . S
C896 C898 1.395 . S
C896 C899 1.403 . S
H897 C903 0.930 . S
C898 H884 0.930 . S
C898 C896 1.395 . S
C898 C901 1.403 . S
C899 C896 1.403 . S
C899 C900 1.524 . S
C899 C903 1.400 . S
C900 H885 0.960 . S
C900 H886 0.960 . S
C900 H887 0.960 . S
C900 C899 1.524 . S
C901 C898 1.403 . S
C901 C902 1.392 . S
C901 C905 1.495 . S
C902 C901 1.392 . S
C902 C903 1.385 . S
C902 C904 1.478 . S
C903 H897 0.930 . S
C903 C899 1.400 . S
C903 C902 1.385 . S
C904 C902 1.478 . S
C904 C906 1.381 . S
C904 C910 1.383 . S
C905 C901 1.495 . S
C905 H911 0.959 . S
C905 H912 0.961 . S
C905 H913 0.960 . S
C906 C904 1.381 . S
C906 C907 1.394 . S
C906 H914 0.930 . S
C907 C906 1.394 . S
C907 C908 1.383 . S
C907 H915 0.929 . S
C908 C907 1.383 . S
C908 C909 1.377 . S
C909 H893 0.930 . S
C909 C908 1.377 . S
C909 C910 1.379 . S
C910 H894 0.931 . S
C910 C904 1.383 . S
C910 C909 1.379 . S
H911 C905 0.959 . S
H912 C905 0.961 . S
H913 C905 0.960 . S
H914 C906 0.930 . S
H915 C907 0.929 . S
H916 C924 0.929 . S
H917 C926 0.930 . S
H918 C928 0.930 . S
H919 C931 0.929 . S
H920 C934 0.930 . S
H921 C936 0.960 . S
H922 C936 0.960 . S
H923 C936 0.960 . S
C924 H916 0.929 . S
C924 C925 1.377 . S
C924 C926 1.384 . S
C925 C924 1.377 . S
C925 C931 1.390 . S
C926 H917 0.930 . S
C926 C924 1.384 . S
C926 C927 1.372 . S
C927 C926 1.372 . S
C927 C928 1.400 . S
C927 C932 1.490 . S
C928 H918 0.930 . S
C928 C927 1.400 . S
C928 C931 1.386 . S
H929 C945 0.930 . S
H930 C946 0.931 . S
C931 H919 0.929 . S
C931 C925 1.390 . S
C931 C928 1.386 . S
C932 C927 1.490 . S
C932 C934 1.395 . S
C932 C935 1.403 . S
H933 C939 0.930 . S
C934 H920 0.930 . S
C934 C932 1.395 . S
C934 C937 1.403 . S
C935 C932 1.403 . S
C935 C936 1.524 . S
C935 C939 1.400 . S
C936 H921 0.960 . S
C936 H922 0.960 . S
C936 H923 0.960 . S
C936 C935 1.524 . S
C937 C934 1.403 . S
C937 C938 1.392 . S
C937 C941 1.495 . S
C938 C937 1.392 . S
C938 C939 1.385 . S
C938 C940 1.478 . S
C939 H933 0.930 . S
C939 C935 1.400 . S
C939 C938 1.385 . S
C940 C938 1.478 . S
C940 C942 1.381 . S
C940 C946 1.383 . S
C941 C937 1.495 . S
C941 H947 0.959 . S
C941 H948 0.961 . S
C941 H949 0.960 . S
C942 C940 1.381 . S
C942 C943 1.394 . S
C942 H950 0.930 . S
C943 C942 1.394 . S
C943 C944 1.383 . S
C943 H951 0.929 . S
C944 C943 1.383 . S
C944 C945 1.377 . S
C945 H929 0.930 . S
C945 C944 1.377 . S
C945 C946 1.379 . S
C946 H930 0.931 . S
C946 C940 1.383 . S
C946 C945 1.379 . S
H947 C941 0.959 . S
H948 C941 0.961 . S
H949 C941 0.960 . S
H950 C942 0.930 . S
H951 C943 0.929 . S
H952 C960 0.929 . S
H953 C962 0.930 . S
H954 C964 0.930 . S
H955 C967 0.929 . S
H956 C970 0.930 . S
H957 C972 0.960 . S
H958 C972 0.960 . S
H959 C972 0.960 . S
C960 H952 0.929 . S
C960 C961 1.377 . S
C960 C962 1.384 . S
C961 C960 1.377 . S
C961 C967 1.390 . S
C962 H953 0.930 . S
C962 C960 1.384 . S
C962 C963 1.372 . S
C963 C962 1.372 . S
C963 C964 1.400 . S
C963 C968 1.490 . S
C964 H954 0.930 . S
C964 C963 1.400 . S
C964 C967 1.386 . S
H965 C981 0.930 . S
H966 C982 0.931 . S
C967 H955 0.929 . S
C967 C961 1.390 . S
C967 C964 1.386 . S
C968 C963 1.490 . S
C968 C970 1.395 . S
C968 C971 1.403 . S
H969 C975 0.930 . S
C970 H956 0.930 . S
C970 C968 1.395 . S
C970 C973 1.403 . S
C971 C968 1.403 . S
C971 C972 1.524 . S
C971 C975 1.400 . S
C972 H957 0.960 . S
C972 H958 0.960 . S
C972 H959 0.960 . S
C972 C971 1.524 . S
C973 C970 1.403 . S
C973 C974 1.392 . S
C973 C977 1.495 . S
C974 C973 1.392 . S
C974 C975 1.385 . S
C974 C976 1.478 . S
C975 H969 0.930 . S
C975 C971 1.400 . S
C975 C974 1.385 . S
C976 C974 1.478 . S
C976 C978 1.381 . S
C976 C982 1.383 . S
C977 C973 1.495 . S
C977 H983 0.959 . S
C977 H984 0.961 . S
C977 H985 0.960 . S
C978 C976 1.381 . S
C978 C979 1.394 . S
C978 H986 0.930 . S
C979 C978 1.394 . S
C979 C980 1.383 . S
C979 H987 0.929 . S
C980 C979 1.383 . S
C980 C981 1.377 . S
C981 H965 0.930 . S
C981 C980 1.377 . S
C981 C982 1.379 . S
C982 H966 0.931 . S
C982 C976 1.383 . S
C982 C981 1.379 . S
H983 C977 0.959 . S
H984 C977 0.961 . S
H985 C977 0.960 . S
H986 C978 0.930 . S
H987 C979 0.929 . S
H988 C996 0.929 . S
H989 C998 0.930 . S
H990 C1000 0.930 . S
H991 C1003 0.929 . S
H992 C1006 0.925 1_554 S
H993 C1008 0.960 . S
H994 C1008 0.960 . S
H995 C1008 0.960 . S
C996 H988 0.929 . S
C996 C997 1.377 . S
C996 C998 1.384 . S
C997 C996 1.377 . S
C997 C1003 1.390 . S
C998 H989 0.930 . S
C998 C996 1.384 . S
C998 C999 1.372 . S
C999 C998 1.372 . S
C999 C1000 1.400 . S
C999 C1004 1.490 . S
C1000 H990 0.930 . S
C1000 C999 1.400 . S
C1000 C1003 1.386 . S
H1001 C1017 0.930 . S
H1002 C1018 0.944 . S
C1003 H991 0.929 . S
C1003 C997 1.390 . S
C1003 C1000 1.386 . S
C1004 C999 1.490 . S
C1004 C1006 1.395 . S
C1004 C1007 1.403 . S
H1005 C1011 0.930 . S
C1006 H992 0.925 1_556 S
C1006 C1004 1.395 . S
C1006 C1009 1.403 1_556 S
C1007 C1004 1.403 . S
C1007 C1008 1.524 . S
C1007 C1011 1.400 . S
C1008 H993 0.960 . S
C1008 H994 0.960 . S
C1008 H995 0.960 . S
C1008 C1007 1.524 . S
C1009 C1006 1.403 1_554 S
C1009 C1010 1.392 1_554 S
C1009 C1013 1.495 . S
C1010 C1009 1.392 1_556 S
C1010 C1011 1.385 . S
C1010 C1012 1.473 1_556 S
C1011 H1005 0.930 . S
C1011 C1007 1.400 . S
C1011 C1010 1.385 . S
C1012 C1010 1.473 1_554 S
C1012 C1014 1.386 . S
C1012 C1018 1.382 1_554 S
C1013 C1009 1.495 . S
C1013 H1019 0.959 . S
C1013 H1020 0.961 . S
C1013 H1021 0.960 . S
C1014 C1012 1.386 . S
C1014 C1015 1.394 . S
C1014 H1022 0.930 . S
C1015 C1014 1.394 . S
C1015 C1016 1.383 . S
C1015 H1023 0.929 . S
C1016 C1015 1.383 . S
C1016 C1017 1.377 . S
C1017 H1001 0.930 . S
C1017 C1016 1.377 . S
C1017 C1018 1.369 1_554 S
C1018 H1002 0.944 . S
C1018 C1012 1.382 1_556 S
C1018 C1017 1.369 1_556 S
H1019 C1013 0.959 . S
H1020 C1013 0.961 . S
H1021 C1013 0.960 . S
H1022 C1014 0.930 . S
H1023 C1015 0.929 . S
H1024 C1032 0.929 . S
H1025 C1034 0.930 . S
H1026 C1036 0.930 . S
H1027 C1039 0.929 . S
H1028 C1042 0.930 . S
H1029 C1044 0.960 . S
H1030 C1044 0.960 . S
H1031 C1044 0.960 . S
C1032 H1024 0.929 . S
C1032 C1033 1.377 . S
C1032 C1034 1.384 . S
C1033 C1032 1.377 . S
C1033 C1039 1.390 . S
C1034 H1025 0.930 . S
C1034 C1032 1.384 . S
C1034 C1035 1.372 . S
C1035 C1034 1.372 . S
C1035 C1036 1.400 . S
C1035 C1040 1.490 . S
C1036 H1026 0.930 . S
C1036 C1035 1.400 . S
C1036 C1039 1.386 . S
H1037 C1053 0.930 . S
H1038 C1054 0.931 . S
C1039 H1027 0.929 . S
C1039 C1033 1.390 . S
C1039 C1036 1.386 . S
C1040 C1035 1.490 . S
C1040 C1042 1.395 . S
C1040 C1043 1.403 . S
H1041 C1047 0.930 . S
C1042 H1028 0.930 . S
C1042 C1040 1.395 . S
C1042 C1045 1.403 . S
C1043 C1040 1.403 . S
C1043 C1044 1.524 . S
C1043 C1047 1.400 . S
C1044 H1029 0.960 . S
C1044 H1030 0.960 . S
C1044 H1031 0.960 . S
C1044 C1043 1.524 . S
C1045 C1042 1.403 . S
C1045 C1046 1.392 . S
C1045 C1049 1.495 . S
C1046 C1045 1.392 . S
C1046 C1047 1.385 . S
C1046 C1048 1.478 . S
C1047 H1041 0.930 . S
C1047 C1043 1.400 . S
C1047 C1046 1.385 . S
C1048 C1046 1.478 . S
C1048 C1050 1.381 . S
C1048 C1054 1.383 . S
C1049 C1045 1.495 . S
C1049 H1055 0.959 . S
C1049 H1056 0.961 . S
C1049 H1057 0.960 . S
C1050 C1048 1.381 . S
C1050 C1051 1.394 . S
C1050 H1058 0.930 . S
C1051 C1050 1.394 . S
C1051 C1052 1.383 . S
C1051 H1059 0.929 . S
C1052 C1051 1.383 . S
C1052 C1053 1.377 . S
C1053 H1037 0.930 . S
C1053 C1052 1.377 . S
C1053 C1054 1.379 . S
C1054 H1038 0.931 . S
C1054 C1048 1.383 . S
C1054 C1053 1.379 . S
H1055 C1049 0.959 . S
H1056 C1049 0.961 . S
H1057 C1049 0.960 . S
H1058 C1050 0.930 . S
H1059 C1051 0.929 . S
H1060 C1068 0.929 . S
H1061 C1070 0.930 . S
H1062 C1072 0.930 1_545 S
H1063 C1075 0.929 . S
H1064 C1078 0.930 . S
H1065 C1080 0.960 . S
H1066 C1080 0.960 . S
H1067 C1080 0.960 . S
C1068 H1060 0.929 . S
C1068 C1069 1.377 . S
C1068 C1070 1.384 . S
C1069 C1068 1.377 . S
C1069 C1075 1.390 . S
C1070 H1061 0.930 . S
C1070 C1068 1.384 . S
C1070 C1071 1.372 . S
C1071 C1070 1.372 . S
C1071 C1072 1.400 . S
C1071 C1076 1.474 1_565 S
C1072 H1062 0.930 1_565 S
C1072 C1071 1.400 . S
C1072 C1075 1.386 . S
H1073 C1089 0.930 . S
H1074 C1090 0.921 1_554 S
C1075 H1063 0.929 . S
C1075 C1069 1.390 . S
C1075 C1072 1.386 . S
C1076 C1071 1.474 1_545 S
C1076 C1078 1.364 1_545 S
C1076 C1079 1.449 . S
H1077 C1083 0.930 . S
C1078 H1064 0.930 . S
C1078 C1076 1.364 1_565 S
C1078 C1081 1.403 . S
C1079 C1076 1.449 . S
C1079 C1080 1.524 . S
C1079 C1083 1.400 . S
C1080 H1065 0.960 . S
C1080 H1066 0.960 . S
C1080 H1067 0.960 . S
C1080 C1079 1.524 . S
C1081 C1078 1.403 . S
C1081 C1082 1.392 1_565 S
C1081 C1085 1.495 . S
C1082 C1081 1.392 1_545 S
C1082 C1083 1.385 . S
C1082 C1084 1.478 . S
C1083 H1077 0.930 . S
C1083 C1079 1.400 . S
C1083 C1082 1.385 . S
C1084 C1082 1.478 . S
C1084 C1086 1.381 1_554 S
C1084 C1090 1.377 1_554 S
C1085 C1081 1.495 . S
C1085 H1091 0.959 . S
C1085 H1092 0.961 . S
C1085 H1093 0.960 . S
C1086 C1084 1.381 1_556 S
C1086 C1087 1.394 . S
C1086 H1094 0.930 . S
C1087 C1086 1.394 . S
C1087 C1088 1.383 . S
C1087 H1095 0.929 . S
C1088 C1087 1.383 . S
C1088 C1089 1.377 . S
C1089 H1073 0.930 . S
C1089 C1088 1.377 . S
C1089 C1090 1.394 . S
C1090 H1074 0.921 1_556 S
C1090 C1084 1.377 1_556 S
C1090 C1089 1.394 . S
H1091 C1085 0.959 . S
H1092 C1085 0.961 . S
H1093 C1085 0.960 . S
H1094 C1086 0.930 . S
H1095 C1087 0.929 . S
H1096 C1104 0.929 . S
H1097 C1106 0.930 . S
H1098 C1108 0.930 . S
H1099 C1111 0.929 . S
H1100 C1114 0.930 . S
H1101 C1116 0.960 . S
H1102 C1116 0.960 . S
H1103 C1116 0.960 . S
C1104 H1096 0.929 . S
C1104 C1105 1.377 . S
C1104 C1106 1.384 . S
C1105 C1104 1.377 . S
C1105 C1111 1.390 . S
C1106 H1097 0.930 . S
C1106 C1104 1.384 . S
C1106 C1107 1.372 . S
C1107 C1106 1.372 . S
C1107 C1108 1.400 . S
C1107 C1112 1.490 . S
C1108 H1098 0.930 . S
C1108 C1107 1.400 . S
C1108 C1111 1.386 . S
H1109 C1125 0.930 . S
H1110 C1126 0.931 . S
C1111 H1099 0.929 . S
C1111 C1105 1.390 . S
C1111 C1108 1.386 . S
C1112 C1107 1.490 . S
C1112 C1114 1.395 . S
C1112 C1115 1.403 . S
H1113 C1119 0.930 . S
C1114 H1100 0.930 . S
C1114 C1112 1.395 . S
C1114 C1117 1.403 . S
C1115 C1112 1.403 . S
C1115 C1116 1.524 . S
C1115 C1119 1.400 . S
C1116 H1101 0.960 . S
C1116 H1102 0.960 . S
C1116 H1103 0.960 . S
C1116 C1115 1.524 . S
C1117 C1114 1.403 . S
C1117 C1118 1.392 . S
C1117 C1121 1.495 . S
C1118 C1117 1.392 . S
C1118 C1119 1.385 . S
C1118 C1120 1.478 . S
C1119 H1113 0.930 . S
C1119 C1115 1.400 . S
C1119 C1118 1.385 . S
C1120 C1118 1.478 . S
C1120 C1122 1.381 . S
C1120 C1126 1.383 . S
C1121 C1117 1.495 . S
C1121 H1127 0.959 . S
C1121 H1128 0.961 . S
C1121 H1129 0.960 . S
C1122 C1120 1.381 . S
C1122 C1123 1.394 . S
C1122 H1130 0.930 . S
C1123 C1122 1.394 . S
C1123 C1124 1.383 . S
C1123 H1131 0.929 . S
C1124 C1123 1.383 . S
C1124 C1125 1.377 . S
C1125 H1109 0.930 . S
C1125 C1124 1.377 . S
C1125 C1126 1.379 . S
C1126 H1110 0.931 . S
C1126 C1120 1.383 . S
C1126 C1125 1.379 . S
H1127 C1121 0.959 . S
H1128 C1121 0.961 . S
H1129 C1121 0.960 . S
H1130 C1122 0.930 . S
H1131 C1123 0.929 . S
H1132 C1140 0.929 . S
H1133 C1142 0.930 . S
H1134 C1144 0.930 . S
H1135 C1147 0.929 . S
H1136 C1150 0.930 . S
H1137 C1152 0.960 . S
H1138 C1152 0.980 . S
H1139 C1152 0.960 . S
C1140 H1132 0.929 . S
C1140 C1141 1.377 . S
C1140 C1142 1.384 . S
C1141 C1140 1.377 . S
C1141 C1147 1.390 . S
C1142 H1133 0.930 . S
C1142 C1140 1.384 . S
C1142 C1143 1.372 . S
C1143 C1142 1.372 . S
C1143 C1144 1.400 . S
C1143 C1148 1.490 . S
C1144 H1134 0.930 . S
C1144 C1143 1.400 . S
C1144 C1147 1.386 . S
H1145 C1161 0.930 1_545 S
H1146 C1162 0.931 . S
C1147 H1135 0.929 . S
C1147 C1141 1.390 . S
C1147 C1144 1.386 . S
C1148 C1143 1.490 . S
C1148 C1150 1.395 . S
C1148 C1151 1.403 . S
H1149 C1155 0.930 1_565 S
C1150 H1136 0.930 . S
C1150 C1148 1.395 . S
C1150 C1153 1.403 . S
C1151 C1148 1.403 . S
C1151 C1152 1.524 . S
C1151 C1155 1.400 . S
C1152 H1137 0.960 . S
C1152 H1138 0.980 . S
C1152 H1139 0.960 . S
C1152 C1151 1.524 . S
C1153 C1150 1.403 . S
C1153 C1154 1.392 . S
C1153 C1157 1.495 . S
C1154 C1153 1.392 . S
C1154 C1155 1.385 . S
C1154 C1156 1.478 1_545 S
C1155 H1149 0.930 1_545 S
C1155 C1151 1.400 . S
C1155 C1154 1.385 . S
C1156 C1154 1.478 1_565 S
C1156 C1158 1.381 . S
C1156 C1162 1.383 1_565 S
C1157 C1153 1.495 . S
C1157 H1163 0.959 . S
C1157 H1164 0.961 . S
C1157 H1165 0.960 1_545 S
C1158 C1156 1.381 . S
C1158 C1159 1.394 . S
C1158 H1166 0.930 . S
C1159 C1158 1.394 . S
C1159 C1160 1.383 . S
C1159 H1167 0.929 . S
C1160 C1159 1.383 . S
C1160 C1161 1.377 . S
C1161 H1145 0.930 1_565 S
C1161 C1160 1.377 . S
C1161 C1162 1.379 1_565 S
C1162 H1146 0.931 . S
C1162 C1156 1.383 1_545 S
C1162 C1161 1.379 1_545 S
H1163 C1157 0.959 . S
H1164 C1157 0.961 . S
H1165 C1157 0.960 1_565 S
H1166 C1158 0.930 . S
H1167 C1159 0.929 . S
H1168 C1176 0.929 . S
H1169 C1178 0.930 . S
H1170 C1180 0.930 . S
H1171 C1183 0.929 . S
H1172 C1186 0.930 . S
H1173 C1188 0.960 . S
H1174 C1188 0.960 . S
H1175 C1188 0.960 . S
C1176 H1168 0.929 . S
C1176 C1177 1.377 . S
C1176 C1178 1.384 . S
C1177 C1176 1.377 . S
C1177 C1183 1.390 . S
C1178 H1169 0.930 . S
C1178 C1176 1.384 . S
C1178 C1179 1.372 . S
C1179 C1178 1.372 . S
C1179 C1180 1.400 . S
C1179 C1184 1.490 . S
C1180 H1170 0.930 . S
C1180 C1179 1.400 . S
C1180 C1183 1.386 . S
H1181 C1197 0.930 . S
H1182 C1198 0.931 . S
C1183 H1171 0.929 . S
C1183 C1177 1.390 . S
C1183 C1180 1.386 . S
C1184 C1179 1.490 . S
C1184 C1186 1.395 . S
C1184 C1187 1.403 . S
H1185 C1191 0.930 . S
C1186 H1172 0.930 . S
C1186 C1184 1.395 . S
C1186 C1189 1.403 . S
C1187 C1184 1.403 . S
C1187 C1188 1.524 . S
C1187 C1191 1.400 . S
C1188 H1173 0.960 . S
C1188 H1174 0.960 . S
C1188 H1175 0.960 . S
C1188 C1187 1.524 . S
C1189 C1186 1.403 . S
C1189 C1190 1.392 . S
C1189 C1193 1.495 . S
C1190 C1189 1.392 . S
C1190 C1191 1.385 . S
C1190 C1192 1.478 . S
C1191 H1185 0.930 . S
C1191 C1187 1.400 . S
C1191 C1190 1.385 . S
C1192 C1190 1.478 . S
C1192 C1194 1.381 . S
C1192 C1198 1.383 . S
C1193 C1189 1.495 . S
C1193 H1199 0.959 . S
C1193 H1200 0.961 . S
C1193 H1201 0.960 . S
C1194 C1192 1.381 . S
C1194 C1195 1.394 . S
C1194 H1202 0.930 . S
C1195 C1194 1.394 . S
C1195 C1196 1.383 . S
C1195 H1203 0.929 . S
C1196 C1195 1.383 . S
C1196 C1197 1.377 . S
C1197 H1181 0.930 . S
C1197 C1196 1.377 . S
C1197 C1198 1.379 . S
C1198 H1182 0.931 . S
C1198 C1192 1.383 . S
C1198 C1197 1.379 . S
H1199 C1193 0.959 . S
H1200 C1193 0.961 . S
H1201 C1193 0.960 . S
H1202 C1194 0.930 . S
H1203 C1195 0.929 . S
H1204 C1212 0.929 . S
H1205 C1214 0.930 . S
H1206 C1216 0.930 . S
H1207 C1219 0.929 . S
H1208 C1222 0.930 . S
H1209 C1224 0.960 . S
H1210 C1224 0.960 . S
H1211 C1224 0.960 . S
C1212 H1204 0.929 . S
C1212 C1213 1.377 . S
C1212 C1214 1.384 1_556 S
C1213 C1212 1.377 . S
C1213 C1219 1.390 . S
C1214 H1205 0.930 . S
C1214 C1212 1.384 1_554 S
C1214 C1215 1.372 . S
C1215 C1214 1.372 . S
C1215 C1216 1.400 1_554 S
C1215 C1220 1.490 . S
C1216 H1206 0.930 . S
C1216 C1215 1.400 1_556 S
C1216 C1219 1.386 . S
H1217 C1233 0.930 . S
H1218 C1234 0.931 . S
C1219 H1207 0.929 . S
C1219 C1213 1.390 . S
C1219 C1216 1.386 . S
C1220 C1215 1.490 . S
C1220 C1222 1.395 . S
C1220 C1223 1.403 . S
H1221 C1227 0.930 1_565 S
C1222 H1208 0.930 . S
C1222 C1220 1.395 . S
C1222 C1225 1.403 . S
C1223 C1220 1.403 . S
C1223 C1224 1.524 . S
C1223 C1227 1.400 . S
C1224 H1209 0.960 . S
C1224 H1210 0.960 . S
C1224 H1211 0.960 . S
C1224 C1223 1.524 . S
C1225 C1222 1.403 . S
C1225 C1226 1.392 . S
C1225 C1229 1.495 . S
C1226 C1225 1.392 . S
C1226 C1227 1.385 . S
C1226 C1228 1.478 1_545 S
C1227 H1221 0.930 1_545 S
C1227 C1223 1.400 . S
C1227 C1226 1.385 . S
C1228 C1226 1.478 1_565 S
C1228 C1230 1.381 1_565 S
C1228 C1234 1.383 . S
C1229 C1225 1.495 . S
C1229 H1235 0.959 . S
C1229 H1236 0.887 1_545 S
C1229 H1237 0.960 . S
C1230 C1228 1.381 1_545 S
C1230 C1231 1.394 1_545 S
C1230 H1238 0.930 . S
C1231 C1230 1.394 1_565 S
C1231 C1232 1.383 . S
C1231 H1239 0.929 1_565 S
C1232 C1231 1.383 . S
C1232 C1233 1.377 . S
C1233 H1217 0.930 . S
C1233 C1232 1.377 . S
C1233 C1234 1.379 . S
C1234 H1218 0.931 . S
C1234 C1228 1.383 . S
C1234 C1233 1.379 . S
H1235 C1229 0.959 . S
H1236 C1229 0.887 1_565 S
H1237 C1229 0.960 . S
H1238 C1230 0.930 . S
H1239 C1231 0.929 1_545 S
H1240 C1248 0.929 . S
H1241 C1250 0.930 . S
H1242 C1252 0.930 . S
H1243 C1255 0.929 . S
H1244 C1258 0.930 . S
H1245 C1260 0.960 . S
H1246 C1260 0.960 . S
H1247 C1260 0.960 . S
C1248 H1240 0.929 . S
C1248 C1249 1.377 . S
C1248 C1250 1.384 . S
C1249 C1248 1.377 . S
C1249 C1255 1.390 . S
C1250 H1241 0.930 . S
C1250 C1248 1.384 . S
C1250 C1251 1.372 . S
C1251 C1250 1.372 . S
C1251 C1252 1.400 . S
C1251 C1256 1.490 . S
C1252 H1242 0.930 . S
C1252 C1251 1.400 . S
C1252 C1255 1.386 . S
H1253 C1269 0.930 . S
H1254 C1270 0.931 . S
C1255 H1243 0.929 . S
C1255 C1249 1.390 . S
C1255 C1252 1.386 . S
C1256 C1251 1.490 . S
C1256 C1258 1.395 . S
C1256 C1259 1.403 . S
H1257 C1263 0.930 . S
C1258 H1244 0.930 . S
C1258 C1256 1.395 . S
C1258 C1261 1.403 . S
C1259 C1256 1.403 . S
C1259 C1260 1.524 . S
C1259 C1263 1.400 . S
C1260 H1245 0.960 . S
C1260 H1246 0.960 . S
C1260 H1247 0.960 . S
C1260 C1259 1.524 . S
C1261 C1258 1.403 . S
C1261 C1262 1.392 . S
C1261 C1265 1.495 . S
C1262 C1261 1.392 . S
C1262 C1263 1.385 . S
C1262 C1264 1.478 . S
C1263 H1257 0.930 . S
C1263 C1259 1.400 . S
C1263 C1262 1.385 . S
C1264 C1262 1.478 . S
C1264 C1266 1.381 . S
C1264 C1270 1.383 . S
C1265 C1261 1.495 . S
C1265 H1271 0.959 . S
C1265 H1272 0.961 . S
C1265 H1273 0.960 . S
C1266 C1264 1.381 . S
C1266 C1267 1.394 . S
C1266 H1274 0.930 . S
C1267 C1266 1.394 . S
C1267 C1268 1.383 . S
C1267 H1275 0.929 . S
C1268 C1267 1.383 . S
C1268 C1269 1.377 . S
C1269 H1253 0.930 . S
C1269 C1268 1.377 . S
C1269 C1270 1.379 . S
C1270 H1254 0.931 . S
C1270 C1264 1.383 . S
C1270 C1269 1.379 . S
H1271 C1265 0.959 . S
H1272 C1265 0.961 . S
H1273 C1265 0.960 . S
H1274 C1266 0.930 . S
H1275 C1267 0.929 . S
H1276 C1284 0.929 . S
H1277 C1286 0.930 . S
H1278 C1288 0.930 . S
H1279 C1291 0.929 . S
H1280 C1294 0.964 . S
H1281 C1296 0.960 . S
H1282 C1296 0.960 . S
H1283 C1296 0.960 . S
C1284 H1276 0.929 . S
C1284 C1285 1.377 . S
C1284 C1286 1.384 . S
C1285 C1284 1.377 . S
C1285 C1291 1.390 . S
C1286 H1277 0.930 . S
C1286 C1284 1.384 . S
C1286 C1287 1.372 . S
C1287 C1286 1.372 . S
C1287 C1288 1.400 . S
C1287 C1292 1.490 . S
C1288 H1278 0.930 . S
C1288 C1287 1.400 . S
C1288 C1291 1.386 . S
H1289 C1305 0.930 . S
H1290 C1306 0.931 . S
C1291 H1279 0.929 . S
C1291 C1285 1.390 . S
C1291 C1288 1.386 . S
C1292 C1287 1.490 . S
C1292 C1294 1.331 1_545 S
C1292 C1295 1.403 . S
H1293 C1299 0.930 . S
C1294 H1280 0.964 . S
C1294 C1292 1.331 1_565 S
C1294 C1297 1.438 . S
C1295 C1292 1.403 . S
C1295 C1296 1.524 . S
C1295 C1299 1.400 . S
C1296 H1281 0.960 . S
C1296 H1282 0.960 . S
C1296 H1283 0.960 . S
C1296 C1295 1.524 . S
C1297 C1294 1.438 . S
C1297 C1298 1.428 . S
C1297 C1301 1.495 . S
C1298 C1297 1.428 . S
C1298 C1299 1.320 1_565 S
C1298 C1300 1.508 . S
C1299 H1293 0.930 . S
C1299 C1295 1.400 . S
C1299 C1298 1.320 1_545 S
C1300 C1298 1.508 . S
C1300 C1302 1.381 . S
C1300 C1306 1.383 . S
C1301 C1297 1.495 . S
C1301 H1307 0.959 . S
C1301 H1308 0.961 . S
C1301 H1309 0.960 . S
C1302 C1300 1.381 . S
C1302 C1303 1.394 . S
C1302 H1310 0.930 . S
C1303 C1302 1.394 . S
C1303 C1304 1.383 . S
C1303 H1311 0.929 . S
C1304 C1303 1.383 . S
C1304 C1305 1.377 . S
C1305 H1289 0.930 . S
C1305 C1304 1.377 . S
C1305 C1306 1.379 . S
C1306 H1290 0.931 . S
C1306 C1300 1.383 . S
C1306 C1305 1.379 . S
H1307 C1301 0.959 . S
H1308 C1301 0.961 . S
H1309 C1301 0.960 . S
H1310 C1302 0.930 . S
H1311 C1303 0.929 . S
H1312 C1320 0.929 . S
H1313 C1322 0.930 . S
H1314 C1324 0.930 . S
H1315 C1327 0.929 . S
H1316 C1330 0.930 . S
H1317 C1332 0.960 . S
H1318 C1332 0.960 . S
H1319 C1332 0.960 . S
C1320 H1312 0.929 . S
C1320 C1321 1.377 . S
C1320 C1322 1.384 . S
C1321 C1320 1.377 . S
C1321 C1327 1.390 . S
C1322 H1313 0.930 . S
C1322 C1320 1.384 . S
C1322 C1323 1.372 . S
C1323 C1322 1.372 . S
C1323 C1324 1.400 . S
C1323 C1328 1.490 . S
C1324 H1314 0.930 . S
C1324 C1323 1.400 . S
C1324 C1327 1.386 . S
H1325 C1341 0.930 . S
H1326 C1342 0.931 . S
C1327 H1315 0.929 . S
C1327 C1321 1.390 . S
C1327 C1324 1.386 . S
C1328 C1323 1.490 . S
C1328 C1330 1.395 . S
C1328 C1331 1.403 . S
H1329 C1335 0.930 . S
C1330 H1316 0.930 . S
C1330 C1328 1.395 . S
C1330 C1333 1.403 . S
C1331 C1328 1.403 . S
C1331 C1332 1.524 . S
C1331 C1335 1.400 . S
C1332 H1317 0.960 . S
C1332 H1318 0.960 . S
C1332 H1319 0.960 . S
C1332 C1331 1.524 . S
C1333 C1330 1.403 . S
C1333 C1334 1.392 . S
C1333 C1337 1.495 . S
C1334 C1333 1.392 . S
C1334 C1335 1.385 . S
C1334 C1336 1.478 . S
C1335 H1329 0.930 . S
C1335 C1331 1.400 . S
C1335 C1334 1.385 . S
C1336 C1334 1.478 . S
C1336 C1338 1.381 . S
C1336 C1342 1.383 . S
C1337 C1333 1.495 . S
C1337 H1343 0.959 . S
C1337 H1344 0.961 . S
C1337 H1345 0.960 . S
C1338 C1336 1.381 . S
C1338 C1339 1.394 . S
C1338 H1346 0.930 . S
C1339 C1338 1.394 . S
C1339 C1340 1.383 . S
C1339 H1347 0.929 . S
C1340 C1339 1.383 . S
C1340 C1341 1.377 . S
C1341 H1325 0.930 . S
C1341 C1340 1.377 . S
C1341 C1342 1.379 . S
C1342 H1326 0.931 . S
C1342 C1336 1.383 . S
C1342 C1341 1.379 . S
H1343 C1337 0.959 . S
H1344 C1337 0.961 . S
H1345 C1337 0.960 . S
H1346 C1338 0.930 . S
H1347 C1339 0.929 . S
H1348 C1356 0.929 . S
H1349 C1358 0.930 . S
H1350 C1360 0.930 . S
H1351 C1363 0.929 . S
H1352 C1366 0.930 . S
H1353 C1368 0.960 . S
H1354 C1368 0.960 . S
H1355 C1368 0.960 . S
C1356 H1348 0.929 . S
C1356 C1357 1.377 . S
C1356 C1358 1.384 . S
C1357 C1356 1.377 . S
C1357 C1363 1.390 . S
C1358 H1349 0.930 . S
C1358 C1356 1.384 . S
C1358 C1359 1.372 . S
C1359 C1358 1.372 . S
C1359 C1360 1.400 . S
C1359 C1364 1.490 . S
C1360 H1350 0.930 . S
C1360 C1359 1.400 . S
C1360 C1363 1.386 . S
H1361 C1377 0.930 . S
H1362 C1378 0.931 . S
C1363 H1351 0.929 . S
C1363 C1357 1.390 . S
C1363 C1360 1.386 . S
C1364 C1359 1.490 . S
C1364 C1366 1.395 . S
C1364 C1367 1.403 . S
H1365 C1371 0.930 . S
C1366 H1352 0.930 . S
C1366 C1364 1.395 . S
C1366 C1369 1.403 . S
C1367 C1364 1.403 . S
C1367 C1368 1.524 . S
C1367 C1371 1.400 . S
C1368 H1353 0.960 . S
C1368 H1354 0.960 . S
C1368 H1355 0.960 . S
C1368 C1367 1.524 . S
C1369 C1366 1.403 . S
C1369 C1370 1.392 . S
C1369 C1373 1.495 . S
C1370 C1369 1.392 . S
C1370 C1371 1.385 . S
C1370 C1372 1.478 . S
C1371 H1365 0.930 . S
C1371 C1367 1.400 . S
C1371 C1370 1.385 . S
C1372 C1370 1.478 . S
C1372 C1374 1.381 . S
C1372 C1378 1.383 . S
C1373 C1369 1.495 . S
C1373 H1379 0.959 . S
C1373 H1380 0.961 . S
C1373 H1381 0.960 . S
C1374 C1372 1.381 . S
C1374 C1375 1.394 . S
C1374 H1382 0.930 . S
C1375 C1374 1.394 . S
C1375 C1376 1.383 . S
C1375 H1383 0.929 . S
C1376 C1375 1.383 . S
C1376 C1377 1.377 . S
C1377 H1361 0.930 . S
C1377 C1376 1.377 . S
C1377 C1378 1.379 . S
C1378 H1362 0.931 . S
C1378 C1372 1.383 . S
C1378 C1377 1.379 . S
H1379 C1373 0.959 . S
H1380 C1373 0.961 . S
H1381 C1373 0.960 . S
H1382 C1374 0.930 . S
H1383 C1375 0.929 . S
H1384 C1392 0.929 . S
H1385 C1394 0.930 . S
H1386 C1396 0.930 . S
H1387 C1399 0.929 . S
H1388 C1402 0.930 . S
H1389 C1404 0.960 . S
H1390 C1404 0.960 . S
H1391 C1404 0.960 . S
C1392 H1384 0.929 . S
C1392 C1393 1.377 . S
C1392 C1394 1.384 . S
C1393 C1392 1.377 . S
C1393 C1399 1.390 . S
C1394 H1385 0.930 . S
C1394 C1392 1.384 . S
C1394 C1395 1.372 . S
C1395 C1394 1.372 . S
C1395 C1396 1.400 . S
C1395 C1400 1.490 . S
C1396 H1386 0.930 . S
C1396 C1395 1.400 . S
C1396 C1399 1.386 . S
H1397 C1413 0.930 . S
H1398 C1414 0.931 . S
C1399 H1387 0.929 . S
C1399 C1393 1.390 . S
C1399 C1396 1.386 . S
C1400 C1395 1.490 . S
C1400 C1402 1.395 . S
C1400 C1403 1.403 . S
H1401 C1407 0.930 . S
C1402 H1388 0.930 . S
C1402 C1400 1.395 . S
C1402 C1405 1.403 . S
C1403 C1400 1.403 . S
C1403 C1404 1.524 . S
C1403 C1407 1.400 . S
C1404 H1389 0.960 . S
C1404 H1390 0.960 . S
C1404 H1391 0.960 . S
C1404 C1403 1.524 . S
C1405 C1402 1.403 . S
C1405 C1406 1.392 . S
C1405 C1409 1.495 . S
C1406 C1405 1.392 . S
C1406 C1407 1.385 . S
C1406 C1408 1.478 . S
C1407 H1401 0.930 . S
C1407 C1403 1.400 . S
C1407 C1406 1.385 . S
C1408 C1406 1.478 . S
C1408 C1410 1.381 . S
C1408 C1414 1.383 . S
C1409 C1405 1.495 . S
C1409 H1415 0.959 . S
C1409 H1416 0.961 . S
C1409 H1417 0.960 . S
C1410 C1408 1.381 . S
C1410 C1411 1.394 . S
C1410 H1418 0.930 . S
C1411 C1410 1.394 . S
C1411 C1412 1.383 . S
C1411 H1419 0.929 . S
C1412 C1411 1.383 . S
C1412 C1413 1.377 . S
C1413 H1397 0.930 . S
C1413 C1412 1.377 . S
C1413 C1414 1.379 . S
C1414 H1398 0.931 . S
C1414 C1408 1.383 . S
C1414 C1413 1.379 . S
H1415 C1409 0.959 . S
H1416 C1409 0.961 . S
H1417 C1409 0.960 . S
H1418 C1410 0.930 . S
H1419 C1411 0.929 . S
H1420 C1428 0.929 . S
H1421 C1430 0.930 . S
H1422 C1432 0.930 . S
H1423 C1435 0.929 . S
H1424 C1438 0.930 . S
H1425 C1440 0.960 . S
H1426 C1440 0.960 . S
H1427 C1440 0.960 . S
C1428 H1420 0.929 . S
C1428 C1429 1.377 . S
C1428 C1430 1.384 . S
C1429 C1428 1.377 . S
C1429 C1435 1.390 . S
C1430 H1421 0.930 . S
C1430 C1428 1.384 . S
C1430 C1431 1.372 . S
C1431 C1430 1.372 . S
C1431 C1432 1.400 . S
C1431 C1436 1.490 . S
C1432 H1422 0.930 . S
C1432 C1431 1.400 . S
C1432 C1435 1.386 . S
H1433 C1449 0.930 . S
H1434 C1450 0.931 1_554 S
C1435 H1423 0.929 . S
C1435 C1429 1.390 . S
C1435 C1432 1.386 . S
C1436 C1431 1.490 . S
C1436 C1438 1.395 . S
C1436 C1439 1.403 . S
H1437 C1443 0.930 . S
C1438 H1424 0.930 . S
C1438 C1436 1.395 . S
C1438 C1441 1.403 . S
C1439 C1436 1.403 . S
C1439 C1440 1.524 . S
C1439 C1443 1.400 . S
C1440 H1425 0.960 . S
C1440 H1426 0.960 . S
C1440 H1427 0.960 . S
C1440 C1439 1.524 . S
C1441 C1438 1.403 . S
C1441 C1442 1.392 . S
C1441 C1445 1.495 . S
C1442 C1441 1.392 . S
C1442 C1443 1.385 . S
C1442 C1444 1.478 . S
C1443 H1437 0.930 . S
C1443 C1439 1.400 . S
C1443 C1442 1.385 . S
C1444 C1442 1.478 . S
C1444 C1446 1.381 1_554 S
C1444 C1450 1.383 1_554 S
C1445 C1441 1.495 . S
C1445 H1451 0.959 . S
C1445 H1452 0.961 . S
C1445 H1453 0.960 . S
C1446 C1444 1.381 1_556 S
C1446 C1447 1.394 . S
C1446 H1454 0.930 1_556 S
C1447 C1446 1.394 . S
C1447 C1448 1.383 . S
C1447 H1455 0.929 . S
C1448 C1447 1.383 . S
C1448 C1449 1.377 . S
C1449 H1433 0.930 . S
C1449 C1448 1.377 . S
C1449 C1450 1.379 . S
C1450 H1434 0.931 1_556 S
C1450 C1444 1.383 1_556 S
C1450 C1449 1.379 . S
H1451 C1445 0.959 . S
H1452 C1445 0.961 . S
H1453 C1445 0.960 . S
H1454 C1446 0.930 1_554 S
H1455 C1447 0.929 . S
H1456 C1464 0.929 . S
H1457 C1466 0.930 . S
H1458 C1468 0.930 . S
H1459 C1471 0.929 . S
H1460 C1474 0.930 . S
H1461 C1476 0.960 . S
H1462 C1476 0.960 . S
H1463 C1476 0.960 . S
C1464 H1456 0.929 . S
C1464 C1465 1.377 . S
C1464 C1466 1.384 . S
C1465 C1464 1.377 . S
C1465 C1471 1.390 . S
C1466 H1457 0.930 . S
C1466 C1464 1.384 . S
C1466 C1467 1.372 . S
C1467 C1466 1.372 . S
C1467 C1468 1.400 . S
C1467 C1472 1.490 . S
C1468 H1458 0.930 . S
C1468 C1467 1.400 . S
C1468 C1471 1.386 . S
H1469 C1485 0.930 . S
H1470 C1486 0.931 . S
C1471 H1459 0.929 . S
C1471 C1465 1.390 . S
C1471 C1468 1.386 . S
C1472 C1467 1.490 . S
C1472 C1474 1.395 . S
C1472 C1475 1.403 . S
H1473 C1479 0.930 . S
C1474 H1460 0.930 . S
C1474 C1472 1.395 . S
C1474 C1477 1.403 . S
C1475 C1472 1.403 . S
C1475 C1476 1.524 . S
C1475 C1479 1.400 . S
C1476 H1461 0.960 . S
C1476 H1462 0.960 . S
C1476 H1463 0.960 . S
C1476 C1475 1.524 . S
C1477 C1474 1.403 . S
C1477 C1478 1.392 . S
C1477 C1481 1.495 . S
C1478 C1477 1.392 . S
C1478 C1479 1.385 . S
C1478 C1480 1.478 . S
C1479 H1473 0.930 . S
C1479 C1475 1.400 . S
C1479 C1478 1.385 . S
C1480 C1478 1.478 . S
C1480 C1482 1.381 . S
C1480 C1486 1.383 . S
C1481 C1477 1.495 . S
C1481 H1487 0.959 . S
C1481 H1488 0.961 . S
C1481 H1489 0.960 . S
C1482 C1480 1.381 . S
C1482 C1483 1.394 . S
C1482 H1490 0.930 . S
C1483 C1482 1.394 . S
C1483 C1484 1.383 . S
C1483 H1491 0.929 . S
C1484 C1483 1.383 . S
C1484 C1485 1.377 . S
C1485 H1469 0.930 . S
C1485 C1484 1.377 . S
C1485 C1486 1.379 . S
C1486 H1470 0.931 . S
C1486 C1480 1.383 . S
C1486 C1485 1.379 . S
H1487 C1481 0.959 . S
H1488 C1481 0.961 . S
H1489 C1481 0.960 . S
H1490 C1482 0.930 . S
H1491 C1483 0.929 . S
H1492 C1500 0.929 . S
H1493 C1502 0.930 . S
H1494 C1504 0.930 . S
H1495 C1507 0.929 . S
H1496 C1510 0.930 . S
H1497 C1512 0.960 . S
H1498 C1512 0.960 . S
H1499 C1512 0.960 . S
C1500 H1492 0.929 . S
C1500 C1501 1.377 . S
C1500 C1502 1.384 . S
C1501 C1500 1.377 . S
C1501 C1507 1.390 . S
C1502 H1493 0.930 . S
C1502 C1500 1.384 . S
C1502 C1503 1.372 . S
C1503 C1502 1.372 . S
C1503 C1504 1.400 . S
C1503 C1508 1.490 . S
C1504 H1494 0.930 . S
C1504 C1503 1.400 . S
C1504 C1507 1.386 . S
H1505 C1521 0.930 . S
H1506 C1522 0.931 . S
C1507 H1495 0.929 . S
C1507 C1501 1.390 . S
C1507 C1504 1.386 . S
C1508 C1503 1.490 . S
C1508 C1510 1.395 . S
C1508 C1511 1.403 . S
H1509 C1515 0.930 . S
C1510 H1496 0.930 . S
C1510 C1508 1.395 . S
C1510 C1513 1.403 . S
C1511 C1508 1.403 . S
C1511 C1512 1.524 . S
C1511 C1515 1.400 . S
C1512 H1497 0.960 . S
C1512 H1498 0.960 . S
C1512 H1499 0.960 . S
C1512 C1511 1.524 . S
C1513 C1510 1.403 . S
C1513 C1514 1.392 . S
C1513 C1517 1.495 . S
C1514 C1513 1.392 . S
C1514 C1515 1.385 . S
C1514 C1516 1.478 . S
C1515 H1509 0.930 . S
C1515 C1511 1.400 . S
C1515 C1514 1.385 . S
C1516 C1514 1.478 . S
C1516 C1518 1.381 . S
C1516 C1522 1.383 . S
C1517 C1513 1.495 . S
C1517 H1523 0.959 . S
C1517 H1524 0.961 . S
C1517 H1525 0.960 . S
C1518 C1516 1.381 . S
C1518 C1519 1.394 . S
C1518 H1526 0.930 . S
C1519 C1518 1.394 . S
C1519 C1520 1.383 . S
C1519 H1527 0.929 . S
C1520 C1519 1.383 . S
C1520 C1521 1.377 . S
C1521 H1505 0.930 . S
C1521 C1520 1.377 . S
C1521 C1522 1.379 . S
C1522 H1506 0.931 . S
C1522 C1516 1.383 . S
C1522 C1521 1.379 . S
H1523 C1517 0.959 . S
H1524 C1517 0.961 . S
H1525 C1517 0.960 . S
H1526 C1518 0.930 . S
H1527 C1519 0.929 . S
H1528 C1536 0.929 . S
H1529 C1538 0.930 . S
H1530 C1540 0.930 . S
H1531 C1543 0.929 . S
H1532 C1546 0.930 . S
H1533 C1548 0.960 . S
H1534 C1548 0.960 . S
H1535 C1548 0.960 . S
C1536 H1528 0.929 . S
C1536 C1537 1.377 . S
C1536 C1538 1.384 . S
C1537 C1536 1.377 . S
C1537 C1543 1.390 . S
C1538 H1529 0.930 . S
C1538 C1536 1.384 . S
C1538 C1539 1.372 . S
C1539 C1538 1.372 . S
C1539 C1540 1.400 . S
C1539 C1544 1.490 . S
C1540 H1530 0.930 . S
C1540 C1539 1.400 . S
C1540 C1543 1.386 . S
H1541 C1557 0.930 . S
H1542 C1558 0.931 . S
C1543 H1531 0.929 . S
C1543 C1537 1.390 . S
C1543 C1540 1.386 . S
C1544 C1539 1.490 . S
C1544 C1546 1.395 . S
C1544 C1547 1.403 . S
H1545 C1551 0.930 . S
C1546 H1532 0.930 . S
C1546 C1544 1.395 . S
C1546 C1549 1.403 . S
C1547 C1544 1.403 . S
C1547 C1548 1.524 . S
C1547 C1551 1.400 . S
C1548 H1533 0.960 . S
C1548 H1534 0.960 . S
C1548 H1535 0.960 . S
C1548 C1547 1.524 . S
C1549 C1546 1.403 . S
C1549 C1550 1.392 . S
C1549 C1553 1.495 . S
C1550 C1549 1.392 . S
C1550 C1551 1.385 . S
C1550 C1552 1.478 . S
C1551 H1545 0.930 . S
C1551 C1547 1.400 . S
C1551 C1550 1.385 . S
C1552 C1550 1.478 . S
C1552 C1554 1.381 . S
C1552 C1558 1.383 . S
C1553 C1549 1.495 . S
C1553 H1559 0.959 . S
C1553 H1560 0.961 . S
C1553 H1561 0.960 . S
C1554 C1552 1.381 . S
C1554 C1555 1.394 . S
C1554 H1562 0.930 . S
C1555 C1554 1.394 . S
C1555 C1556 1.383 . S
C1555 H1563 0.929 . S
C1556 C1555 1.383 . S
C1556 C1557 1.377 . S
C1557 H1541 0.930 . S
C1557 C1556 1.377 . S
C1557 C1558 1.379 . S
C1558 H1542 0.931 . S
C1558 C1552 1.383 . S
C1558 C1557 1.379 . S
H1559 C1553 0.959 . S
H1560 C1553 0.961 . S
H1561 C1553 0.960 . S
H1562 C1554 0.930 . S
H1563 C1555 0.929 . S
H1564 C1572 0.929 . S
H1565 C1574 0.930 . S
H1566 C1576 0.930 . S
H1567 C1579 0.929 . S
H1568 C1582 0.930 . S
H1569 C1584 0.960 . S
H1570 C1584 0.960 . S
H1571 C1584 0.960 . S
C1572 H1564 0.929 . S
C1572 C1573 1.377 . S
C1572 C1574 1.384 . S
C1573 C1572 1.377 . S
C1573 C1579 1.390 . S
C1574 H1565 0.930 . S
C1574 C1572 1.384 . S
C1574 C1575 1.372 . S
C1575 C1574 1.372 . S
C1575 C1576 1.400 . S
C1575 C1580 1.490 . S
C1576 H1566 0.930 . S
C1576 C1575 1.400 . S
C1576 C1579 1.386 . S
H1577 C1593 0.930 . S
H1578 C1594 0.931 . S
C1579 H1567 0.929 . S
C1579 C1573 1.390 . S
C1579 C1576 1.386 . S
C1580 C1575 1.490 . S
C1580 C1582 1.395 . S
C1580 C1583 1.403 . S
H1581 C1587 0.930 . S
C1582 H1568 0.930 . S
C1582 C1580 1.395 . S
C1582 C1585 1.403 . S
C1583 C1580 1.403 . S
C1583 C1584 1.524 . S
C1583 C1587 1.400 . S
C1584 H1569 0.960 . S
C1584 H1570 0.960 . S
C1584 H1571 0.960 . S
C1584 C1583 1.524 . S
C1585 C1582 1.403 . S
C1585 C1586 1.392 . S
C1585 C1589 1.495 . S
C1586 C1585 1.392 . S
C1586 C1587 1.385 . S
C1586 C1588 1.478 . S
C1587 H1581 0.930 . S
C1587 C1583 1.400 . S
C1587 C1586 1.385 . S
C1588 C1586 1.478 . S
C1588 C1590 1.391 . S
C1588 C1594 1.383 1_554 S
C1589 C1585 1.495 . S
C1589 H1595 0.959 . S
C1589 H1596 0.961 . S
C1589 H1597 0.960 . S
C1590 C1588 1.391 . S
C1590 C1591 1.367 1_554 S
C1590 H1598 0.949 . S
C1591 C1590 1.367 1_556 S
C1591 C1592 1.383 . S
C1591 H1599 0.929 . S
C1592 C1591 1.383 . S
C1592 C1593 1.377 . S
C1593 H1577 0.930 . S
C1593 C1592 1.377 . S
C1593 C1594 1.379 . S
C1594 H1578 0.931 . S
C1594 C1588 1.383 1_556 S
C1594 C1593 1.379 . S
H1595 C1589 0.959 . S
H1596 C1589 0.961 . S
H1597 C1589 0.960 . S
H1598 C1590 0.949 . S
H1599 C1591 0.929 . S
H1600 C1608 0.929 . S
H1601 C1610 0.930 . S
H1602 C1612 0.930 . S
H1603 C1615 0.929 . S
H1604 C1618 0.930 . S
H1605 C1620 0.960 . S
H1606 C1620 0.960 . S
H1607 C1620 0.960 . S
C1608 H1600 0.929 . S
C1608 C1609 1.377 . S
C1608 C1610 1.384 . S
C1609 C1608 1.377 . S
C1609 C1615 1.390 . S
C1610 H1601 0.930 . S
C1610 C1608 1.384 . S
C1610 C1611 1.372 . S
C1611 C1610 1.372 . S
C1611 C1612 1.400 . S
C1611 C1616 1.490 . S
C1612 H1602 0.930 . S
C1612 C1611 1.400 . S
C1612 C1615 1.386 . S
H1613 C1629 0.930 . S
H1614 C1630 0.931 . S
C1615 H1603 0.929 . S
C1615 C1609 1.390 . S
C1615 C1612 1.386 . S
C1616 C1611 1.490 . S
C1616 C1618 1.395 . S
C1616 C1619 1.403 . S
H1617 C1623 0.930 . S
C1618 H1604 0.930 . S
C1618 C1616 1.395 . S
C1618 C1621 1.403 . S
C1619 C1616 1.403 . S
C1619 C1620 1.524 1_554 S
C1619 C1623 1.400 . S
C1620 H1605 0.960 . S
C1620 H1606 0.960 . S
C1620 H1607 0.960 . S
C1620 C1619 1.524 1_556 S
C1621 C1618 1.403 . S
C1621 C1622 1.392 . S
C1621 C1625 1.495 . S
C1622 C1621 1.392 . S
C1622 C1623 1.385 . S
C1622 C1624 1.478 . S
C1623 H1617 0.930 . S
C1623 C1619 1.400 . S
C1623 C1622 1.385 . S
C1624 C1622 1.478 . S
C1624 C1626 1.381 . S
C1624 C1630 1.383 . S
C1625 C1621 1.495 . S
C1625 H1631 0.959 . S
C1625 H1632 0.961 . S
C1625 H1633 0.960 . S
C1626 C1624 1.381 . S
C1626 C1627 1.394 . S
C1626 H1634 0.930 . S
C1627 C1626 1.394 . S
C1627 C1628 1.383 . S
C1627 H1635 0.929 . S
C1628 C1627 1.383 . S
C1628 C1629 1.377 . S
C1629 H1613 0.930 . S
C1629 C1628 1.377 . S
C1629 C1630 1.379 . S
C1630 H1614 0.931 . S
C1630 C1624 1.383 . S
C1630 C1629 1.379 . S
H1631 C1625 0.959 . S
H1632 C1625 0.961 . S
H1633 C1625 0.960 . S
H1634 C1626 0.930 . S
H1635 C1627 0.929 . S
H1636 C1644 0.929 . S
H1637 C1646 0.930 . S
H1638 C1648 0.930 . S
H1639 C1651 0.929 . S
H1640 C1654 0.930 . S
H1641 C1656 0.960 . S
H1642 C1656 0.960 . S
H1643 C1656 0.960 . S
C1644 H1636 0.929 . S
C1644 C1645 1.377 . S
C1644 C1646 1.384 . S
C1645 C1644 1.377 . S
C1645 C1651 1.390 . S
C1646 H1637 0.930 . S
C1646 C1644 1.384 . S
C1646 C1647 1.372 . S
C1647 C1646 1.372 . S
C1647 C1648 1.400 . S
C1647 C1652 1.490 . S
C1648 H1638 0.930 . S
C1648 C1647 1.400 . S
C1648 C1651 1.386 . S
H1649 C1665 0.930 . S
H1650 C1666 0.931 . S
C1651 H1639 0.929 . S
C1651 C1645 1.390 . S
C1651 C1648 1.386 . S
C1652 C1647 1.490 . S
C1652 C1654 1.395 . S
C1652 C1655 1.403 . S
H1653 C1659 0.930 . S
C1654 H1640 0.930 . S
C1654 C1652 1.395 . S
C1654 C1657 1.403 1_455 S
C1655 C1652 1.403 . S
C1655 C1656 1.524 . S
C1655 C1659 1.400 1_455 S
C1656 H1641 0.960 . S
C1656 H1642 0.960 . S
C1656 H1643 0.960 . S
C1656 C1655 1.524 . S
C1657 C1654 1.403 1_655 S
C1657 C1658 1.392 . S
C1657 C1661 1.495 . S
C1658 C1657 1.392 . S
C1658 C1659 1.385 . S
C1658 C1660 1.478 . S
C1659 H1653 0.930 . S
C1659 C1655 1.400 1_655 S
C1659 C1658 1.385 . S
C1660 C1658 1.478 . S
C1660 C1662 1.381 . S
C1660 C1666 1.383 . S
C1661 C1657 1.495 . S
C1661 H1667 0.959 . S
C1661 H1668 0.961 . S
C1661 H1669 0.960 . S
C1662 C1660 1.381 . S
C1662 C1663 1.394 . S
C1662 H1670 0.930 . S
C1663 C1662 1.394 . S
C1663 C1664 1.383 . S
C1663 H1671 0.929 . S
C1664 C1663 1.383 . S
C1664 C1665 1.377 . S
C1665 H1649 0.930 . S
C1665 C1664 1.377 . S
C1665 C1666 1.379 . S
C1666 H1650 0.931 . S
C1666 C1660 1.383 . S
C1666 C1665 1.379 . S
H1667 C1661 0.959 . S
H1668 C1661 0.961 . S
H1669 C1661 0.960 . S
H1670 C1662 0.930 . S
H1671 C1663 0.929 . S
H1672 C1680 0.929 . S
H1673 C1682 0.930 . S
H1674 C1684 0.930 . S
H1675 C1687 0.929 . S
H1676 C1690 0.930 . S
H1677 C1692 0.960 . S
H1678 C1692 0.960 . S
H1679 C1692 0.960 . S
C1680 H1672 0.929 . S
C1680 C1681 1.377 . S
C1680 C1682 1.384 . S
C1681 C1680 1.377 . S
C1681 C1687 1.390 . S
C1682 H1673 0.930 . S
C1682 C1680 1.384 . S
C1682 C1683 1.372 . S
C1683 C1682 1.372 . S
C1683 C1684 1.400 . S
C1683 C1688 1.490 . S
C1684 H1674 0.930 . S
C1684 C1683 1.400 . S
C1684 C1687 1.386 . S
H1685 C1701 0.930 . S
H1686 C1702 0.931 . S
C1687 H1675 0.929 . S
C1687 C1681 1.390 . S
C1687 C1684 1.386 . S
C1688 C1683 1.490 . S
C1688 C1690 1.395 . S
C1688 C1691 1.403 . S
H1689 C1695 0.930 . S
C1690 H1676 0.930 . S
C1690 C1688 1.395 . S
C1690 C1693 1.403 . S
C1691 C1688 1.403 . S
C1691 C1692 1.524 . S
C1691 C1695 1.400 . S
C1692 H1677 0.960 . S
C1692 H1678 0.960 . S
C1692 H1679 0.960 . S
C1692 C1691 1.524 . S
C1693 C1690 1.403 . S
C1693 C1694 1.392 . S
C1693 C1697 1.495 . S
C1694 C1693 1.392 . S
C1694 C1695 1.385 . S
C1694 C1696 1.478 . S
C1695 H1689 0.930 . S
C1695 C1691 1.400 . S
C1695 C1694 1.385 . S
C1696 C1694 1.478 . S
C1696 C1698 1.381 . S
C1696 C1702 1.383 . S
C1697 C1693 1.495 . S
C1697 H1703 0.959 . S
C1697 H1704 0.961 . S
C1697 H1705 0.960 . S
C1698 C1696 1.381 . S
C1698 C1699 1.394 . S
C1698 H1706 0.930 . S
C1699 C1698 1.394 . S
C1699 C1700 1.383 . S
C1699 H1707 0.929 . S
C1700 C1699 1.383 . S
C1700 C1701 1.377 . S
C1701 H1685 0.930 . S
C1701 C1700 1.377 . S
C1701 C1702 1.379 . S
C1702 H1686 0.931 . S
C1702 C1696 1.383 . S
C1702 C1701 1.379 . S
H1703 C1697 0.959 . S
H1704 C1697 0.961 . S
H1705 C1697 0.960 . S
H1706 C1698 0.930 . S
H1707 C1699 0.929 . S
H1708 C1716 0.929 . S
H1709 C1718 0.930 . S
H1710 C1720 0.930 . S
H1711 C1723 0.929 . S
H1712 C1726 0.930 . S
H1713 C1728 0.960 . S
H1714 C1728 0.960 . S
H1715 C1728 0.960 . S
C1716 H1708 0.929 . S
C1716 C1717 1.377 . S
C1716 C1718 1.384 . S
C1717 C1716 1.377 . S
C1717 C1723 1.390 . S
C1718 H1709 0.930 . S
C1718 C1716 1.384 . S
C1718 C1719 1.372 . S
C1719 C1718 1.372 . S
C1719 C1720 1.400 . S
C1719 C1724 1.490 . S
C1720 H1710 0.930 . S
C1720 C1719 1.400 . S
C1720 C1723 1.386 . S
H1721 C1737 0.930 . S
H1722 C1738 0.931 . S
C1723 H1711 0.929 . S
C1723 C1717 1.390 . S
C1723 C1720 1.386 . S
C1724 C1719 1.490 . S
C1724 C1726 1.395 . S
C1724 C1727 1.403 . S
H1725 C1731 0.930 . S
C1726 H1712 0.930 . S
C1726 C1724 1.395 . S
C1726 C1729 1.403 . S
C1727 C1724 1.403 . S
C1727 C1728 1.524 . S
C1727 C1731 1.400 . S
C1728 H1713 0.960 . S
C1728 H1714 0.960 . S
C1728 H1715 0.960 . S
C1728 C1727 1.524 . S
C1729 C1726 1.403 . S
C1729 C1730 1.392 . S
C1729 C1733 1.495 . S
C1730 C1729 1.392 . S
C1730 C1731 1.385 . S
C1730 C1732 1.478 . S
C1731 H1725 0.930 . S
C1731 C1727 1.400 . S
C1731 C1730 1.385 . S
C1732 C1730 1.478 . S
C1732 C1734 1.381 . S
C1732 C1738 1.383 . S
C1733 C1729 1.495 . S
C1733 H1739 0.959 . S
C1733 H1740 0.961 . S
C1733 H1741 0.960 . S
C1734 C1732 1.381 . S
C1734 C1735 1.394 . S
C1734 H1742 0.930 . S
C1735 C1734 1.394 . S
C1735 C1736 1.383 . S
C1735 H1743 0.929 . S
C1736 C1735 1.383 . S
C1736 C1737 1.377 . S
C1737 H1721 0.930 . S
C1737 C1736 1.377 . S
C1737 C1738 1.379 . S
C1738 H1722 0.931 . S
C1738 C1732 1.383 . S
C1738 C1737 1.379 . S
H1739 C1733 0.959 . S
H1740 C1733 0.961 . S
H1741 C1733 0.960 . S
H1742 C1734 0.930 . S
H1743 C1735 0.929 . S
H1744 C1752 0.929 . S
H1745 C1754 0.930 . S
H1746 C1756 0.930 . S
H1747 C1759 0.929 . S
H1748 C1762 0.930 . S
H1749 C1764 0.960 . S
H1750 C1764 0.960 . S
H1751 C1764 0.960 . S
C1752 H1744 0.929 . S
C1752 C1753 1.377 . S
C1752 C1754 1.384 . S
C1753 C1752 1.377 . S
C1753 C1759 1.390 . S
C1754 H1745 0.930 . S
C1754 C1752 1.384 . S
C1754 C1755 1.372 . S
C1755 C1754 1.372 . S
C1755 C1756 1.400 . S
C1755 C1760 1.490 . S
C1756 H1746 0.930 . S
C1756 C1755 1.400 . S
C1756 C1759 1.386 . S
H1757 C1773 0.930 . S
H1758 C1774 0.931 . S
C1759 H1747 0.929 . S
C1759 C1753 1.390 . S
C1759 C1756 1.386 . S
C1760 C1755 1.490 . S
C1760 C1762 1.395 . S
C1760 C1763 1.403 . S
H1761 C1767 0.930 . S
C1762 H1748 0.930 . S
C1762 C1760 1.395 . S
C1762 C1765 1.403 . S
C1763 C1760 1.403 . S
C1763 C1764 1.524 . S
C1763 C1767 1.400 . S
C1764 H1749 0.960 . S
C1764 H1750 0.960 . S
C1764 H1751 0.960 . S
C1764 C1763 1.524 . S
C1765 C1762 1.403 . S
C1765 C1766 1.392 . S
C1765 C1769 1.495 . S
C1766 C1765 1.392 . S
C1766 C1767 1.385 . S
C1766 C1768 1.478 . S
C1767 H1761 0.930 . S
C1767 C1763 1.400 . S
C1767 C1766 1.385 . S
C1768 C1766 1.478 . S
C1768 C1770 1.381 . S
C1768 C1774 1.383 . S
C1769 C1765 1.495 . S
C1769 H1775 0.959 . S
C1769 H1776 0.961 . S
C1769 H1777 0.960 . S
C1770 C1768 1.381 . S
C1770 C1771 1.394 . S
C1770 H1778 0.930 . S
C1771 C1770 1.394 . S
C1771 C1772 1.383 . S
C1771 H1779 0.929 . S
C1772 C1771 1.383 . S
C1772 C1773 1.377 . S
C1773 H1757 0.930 . S
C1773 C1772 1.377 . S
C1773 C1774 1.379 . S
C1774 H1758 0.931 . S
C1774 C1768 1.383 . S
C1774 C1773 1.379 . S
H1775 C1769 0.959 . S
H1776 C1769 0.961 . S
H1777 C1769 0.960 . S
H1778 C1770 0.930 . S
H1779 C1771 0.929 . S
H1780 C1788 0.929 . S
H1781 C1790 0.930 . S
H1782 C1792 0.930 . S
H1783 C1795 0.929 . S
H1784 C1798 0.930 . S
H1785 C1800 0.960 . S
H1786 C1800 0.960 . S
H1787 C1800 0.960 . S
C1788 H1780 0.929 . S
C1788 C1789 1.377 . S
C1788 C1790 1.384 . S
C1789 C1788 1.377 . S
C1789 C1795 1.390 . S
C1790 H1781 0.930 . S
C1790 C1788 1.384 . S
C1790 C1791 1.372 . S
C1791 C1790 1.372 . S
C1791 C1792 1.400 . S
C1791 C1796 1.490 . S
C1792 H1782 0.930 . S
C1792 C1791 1.400 . S
C1792 C1795 1.386 . S
H1793 C1809 0.930 . S
H1794 C1810 0.931 . S
C1795 H1783 0.929 . S
C1795 C1789 1.390 . S
C1795 C1792 1.386 . S
C1796 C1791 1.490 . S
C1796 C1798 1.395 . S
C1796 C1799 1.403 . S
H1797 C1803 0.930 . S
C1798 H1784 0.930 . S
C1798 C1796 1.395 . S
C1798 C1801 1.403 . S
C1799 C1796 1.403 . S
C1799 C1800 1.524 . S
C1799 C1803 1.400 . S
C1800 H1785 0.960 . S
C1800 H1786 0.960 . S
C1800 H1787 0.960 . S
C1800 C1799 1.524 . S
C1801 C1798 1.403 . S
C1801 C1802 1.392 . S
C1801 C1805 1.495 . S
C1802 C1801 1.392 . S
C1802 C1803 1.385 . S
C1802 C1804 1.478 . S
C1803 H1797 0.930 . S
C1803 C1799 1.400 . S
C1803 C1802 1.385 . S
C1804 C1802 1.478 . S
C1804 C1806 1.381 . S
C1804 C1810 1.383 . S
C1805 C1801 1.495 . S
C1805 H1811 0.959 . S
C1805 H1812 0.961 . S
C1805 H1813 0.960 . S
C1806 C1804 1.381 . S
C1806 C1807 1.394 . S
C1806 H1814 0.930 . S
C1807 C1806 1.394 . S
C1807 C1808 1.383 . S
C1807 H1815 0.929 . S
C1808 C1807 1.383 . S
C1808 C1809 1.377 . S
C1809 H1793 0.930 . S
C1809 C1808 1.377 . S
C1809 C1810 1.379 . S
C1810 H1794 0.931 . S
C1810 C1804 1.383 . S
C1810 C1809 1.379 . S
H1811 C1805 0.959 . S
H1812 C1805 0.961 . S
H1813 C1805 0.960 . S
H1814 C1806 0.930 . S
H1815 C1807 0.929 . S
H1816 C1824 0.929 . S
H1817 C1826 0.930 . S
H1818 C1828 0.930 . S
H1819 C1831 0.929 . S
H1820 C1834 0.930 . S
H1821 C1836 0.960 . S
H1822 C1836 0.960 . S
H1823 C1836 0.960 . S
C1824 H1816 0.929 . S
C1824 C1825 1.377 . S
C1824 C1826 1.384 . S
C1825 C1824 1.377 . S
C1825 C1831 1.390 . S
C1826 H1817 0.930 . S
C1826 C1824 1.384 . S
C1826 C1827 1.372 . S
C1827 C1826 1.372 . S
C1827 C1828 1.400 . S
C1827 C1832 1.490 . S
C1828 H1818 0.930 . S
C1828 C1827 1.400 . S
C1828 C1831 1.386 . S
H1829 C1845 0.930 . S
H1830 C1846 0.931 . S
C1831 H1819 0.929 . S
C1831 C1825 1.390 . S
C1831 C1828 1.386 . S
C1832 C1827 1.490 . S
C1832 C1834 1.395 . S
C1832 C1835 1.403 . S
H1833 C1839 0.930 . S
C1834 H1820 0.930 . S
C1834 C1832 1.395 . S
C1834 C1837 1.403 . S
C1835 C1832 1.403 . S
C1835 C1836 1.524 . S
C1835 C1839 1.400 . S
C1836 H1821 0.960 . S
C1836 H1822 0.960 . S
C1836 H1823 0.960 . S
C1836 C1835 1.524 . S
C1837 C1834 1.403 . S
C1837 C1838 1.392 . S
C1837 C1841 1.495 . S
C1838 C1837 1.392 . S
C1838 C1839 1.385 . S
C1838 C1840 1.478 . S
C1839 H1833 0.930 . S
C1839 C1835 1.400 . S
C1839 C1838 1.385 . S
C1840 C1838 1.478 . S
C1840 C1842 1.381 . S
C1840 C1846 1.383 . S
C1841 C1837 1.495 . S
C1841 H1847 0.959 . S
C1841 H1848 0.961 . S
C1841 H1849 0.960 . S
C1842 C1840 1.381 . S
C1842 C1843 1.394 . S
C1842 H1850 0.930 . S
C1843 C1842 1.394 . S
C1843 C1844 1.383 . S
C1843 H1851 0.929 . S
C1844 C1843 1.383 . S
C1844 C1845 1.377 . S
C1845 H1829 0.930 . S
C1845 C1844 1.377 . S
C1845 C1846 1.379 . S
C1846 H1830 0.931 . S
C1846 C1840 1.383 . S
C1846 C1845 1.379 . S
H1847 C1841 0.959 . S
H1848 C1841 0.961 . S
H1849 C1841 0.960 . S
H1850 C1842 0.930 . S
H1851 C1843 0.929 . S
H1852 C1860 0.929 . S
H1853 C1862 0.930 . S
H1854 C1864 0.930 . S
H1855 C1867 0.929 . S
H1856 C1870 0.930 . S
H1857 C1872 0.960 . S
H1858 C1872 0.960 . S
H1859 C1872 0.960 . S
C1860 H1852 0.929 . S
C1860 C1861 1.377 . S
C1860 C1862 1.384 . S
C1861 C1860 1.377 . S
C1861 C1867 1.390 . S
C1862 H1853 0.930 . S
C1862 C1860 1.384 . S
C1862 C1863 1.372 . S
C1863 C1862 1.372 . S
C1863 C1864 1.400 . S
C1863 C1868 1.490 . S
C1864 H1854 0.930 . S
C1864 C1863 1.400 . S
C1864 C1867 1.386 . S
H1865 C1881 0.930 . S
H1866 C1882 0.931 . S
C1867 H1855 0.929 . S
C1867 C1861 1.390 . S
C1867 C1864 1.386 . S
C1868 C1863 1.490 . S
C1868 C1870 1.395 . S
C1868 C1871 1.403 . S
H1869 C1875 0.930 . S
C1870 H1856 0.930 . S
C1870 C1868 1.395 . S
C1870 C1873 1.403 1_655 S
C1871 C1868 1.403 . S
C1871 C1872 1.524 . S
C1871 C1875 1.400 1_655 S
C1872 H1857 0.960 . S
C1872 H1858 0.960 . S
C1872 H1859 0.960 . S
C1872 C1871 1.524 . S
C1873 C1870 1.403 1_455 S
C1873 C1874 1.392 . S
C1873 C1877 1.495 . S
C1874 C1873 1.392 . S
C1874 C1875 1.385 . S
C1874 C1876 1.478 . S
C1875 H1869 0.930 . S
C1875 C1871 1.400 1_455 S
C1875 C1874 1.385 . S
C1876 C1874 1.478 . S
C1876 C1878 1.381 . S
C1876 C1882 1.383 . S
C1877 C1873 1.495 . S
C1877 H1883 0.959 . S
C1877 H1884 0.961 . S
C1877 H1885 0.960 . S
C1878 C1876 1.381 . S
C1878 C1879 1.394 . S
C1878 H1886 0.930 . S
C1879 C1878 1.394 . S
C1879 C1880 1.383 . S
C1879 H1887 0.929 . S
C1880 C1879 1.383 . S
C1880 C1881 1.377 . S
C1881 H1865 0.930 . S
C1881 C1880 1.377 . S
C1881 C1882 1.379 . S
C1882 H1866 0.931 . S
C1882 C1876 1.383 . S
C1882 C1881 1.379 . S
H1883 C1877 0.959 . S
H1884 C1877 0.961 . S
H1885 C1877 0.960 . S
H1886 C1878 0.930 . S
H1887 C1879 0.929 . S
H1888 C1896 0.929 . S
H1889 C1898 0.930 . S
H1890 C1900 0.930 . S
H1891 C1903 0.929 . S
H1892 C1906 0.930 . S
H1893 C1908 0.960 . S
H1894 C1908 0.960 . S
H1895 C1908 0.960 . S
C1896 H1888 0.929 . S
C1896 C1897 1.377 . S
C1896 C1898 1.384 . S
C1897 C1896 1.377 . S
C1897 C1903 1.390 . S
C1898 H1889 0.930 . S
C1898 C1896 1.384 . S
C1898 C1899 1.372 . S
C1899 C1898 1.372 . S
C1899 C1900 1.400 . S
C1899 C1904 1.490 . S
C1900 H1890 0.930 . S
C1900 C1899 1.400 . S
C1900 C1903 1.386 . S
H1901 C1917 0.930 . S
H1902 C1918 0.931 . S
C1903 H1891 0.929 . S
C1903 C1897 1.390 . S
C1903 C1900 1.386 . S
C1904 C1899 1.490 . S
C1904 C1906 1.395 . S
C1904 C1907 1.403 . S
H1905 C1911 0.930 . S
C1906 H1892 0.930 . S
C1906 C1904 1.395 . S
C1906 C1909 1.403 . S
C1907 C1904 1.403 . S
C1907 C1908 1.524 . S
C1907 C1911 1.400 . S
C1908 H1893 0.960 . S
C1908 H1894 0.960 . S
C1908 H1895 0.960 . S
C1908 C1907 1.524 . S
C1909 C1906 1.403 . S
C1909 C1910 1.392 . S
C1909 C1913 1.495 . S
C1910 C1909 1.392 . S
C1910 C1911 1.385 . S
C1910 C1912 1.478 . S
C1911 H1905 0.930 . S
C1911 C1907 1.400 . S
C1911 C1910 1.385 . S
C1912 C1910 1.478 . S
C1912 C1914 1.381 . S
C1912 C1918 1.383 . S
C1913 C1909 1.495 . S
C1913 H1919 0.959 . S
C1913 H1920 0.961 . S
C1913 H1921 0.960 . S
C1914 C1912 1.381 . S
C1914 C1915 1.394 . S
C1914 H1922 0.930 . S
C1915 C1914 1.394 . S
C1915 C1916 1.383 . S
C1915 H1923 0.929 . S
C1916 C1915 1.383 . S
C1916 C1917 1.377 . S
C1917 H1901 0.930 . S
C1917 C1916 1.377 . S
C1917 C1918 1.379 . S
C1918 H1902 0.931 . S
C1918 C1912 1.383 . S
C1918 C1917 1.379 . S
H1919 C1913 0.959 . S
H1920 C1913 0.961 . S
H1921 C1913 0.960 . S
H1922 C1914 0.930 . S
H1923 C1915 0.929 . S
H1924 C1932 0.929 . S
H1925 C1934 0.930 . S
H1926 C1936 0.930 . S
H1927 C1939 0.929 . S
H1928 C1942 0.930 . S
H1929 C1944 0.960 . S
H1930 C1944 0.960 . S
H1931 C1944 0.960 . S
C1932 H1924 0.929 . S
C1932 C1933 1.377 . S
C1932 C1934 1.384 . S
C1933 C1932 1.377 . S
C1933 C1939 1.390 . S
C1934 H1925 0.930 . S
C1934 C1932 1.384 . S
C1934 C1935 1.372 . S
C1935 C1934 1.372 . S
C1935 C1936 1.400 . S
C1935 C1940 1.490 . S
C1936 H1926 0.930 . S
C1936 C1935 1.400 . S
C1936 C1939 1.386 . S
H1937 C1953 0.930 . S
H1938 C1954 0.931 . S
C1939 H1927 0.929 . S
C1939 C1933 1.390 . S
C1939 C1936 1.386 . S
C1940 C1935 1.490 . S
C1940 C1942 1.395 . S
C1940 C1943 1.403 . S
H1941 C1947 0.930 . S
C1942 H1928 0.930 . S
C1942 C1940 1.395 . S
C1942 C1945 1.403 . S
C1943 C1940 1.403 . S
C1943 C1944 1.524 . S
C1943 C1947 1.400 . S
C1944 H1929 0.960 . S
C1944 H1930 0.960 . S
C1944 H1931 0.960 . S
C1944 C1943 1.524 . S
C1945 C1942 1.403 . S
C1945 C1946 1.392 . S
C1945 C1949 1.495 . S
C1946 C1945 1.392 . S
C1946 C1947 1.385 . S
C1946 C1948 1.478 . S
C1947 H1941 0.930 . S
C1947 C1943 1.400 . S
C1947 C1946 1.385 . S
C1948 C1946 1.478 . S
C1948 C1950 1.381 . S
C1948 C1954 1.383 . S
C1949 C1945 1.495 . S
C1949 H1955 0.959 . S
C1949 H1956 0.961 . S
C1949 H1957 0.960 . S
C1950 C1948 1.381 . S
C1950 C1951 1.394 . S
C1950 H1958 0.930 . S
C1951 C1950 1.394 . S
C1951 C1952 1.383 . S
C1951 H1959 0.929 . S
C1952 C1951 1.383 . S
C1952 C1953 1.377 . S
C1953 H1937 0.930 . S
C1953 C1952 1.377 . S
C1953 C1954 1.379 . S
C1954 H1938 0.931 . S
C1954 C1948 1.383 . S
C1954 C1953 1.379 . S
H1955 C1949 0.959 . S
H1956 C1949 0.961 . S
H1957 C1949 0.960 . S
H1958 C1950 0.930 . S
H1959 C1951 0.929 . S
H1960 C1968 0.929 . S
H1961 C1970 0.930 . S
H1962 C1972 0.930 . S
H1963 C1975 0.929 . S
H1964 C1978 0.930 . S
H1965 C1980 0.960 1_556 S
H1966 C1980 0.960 . S
H1967 C1980 0.960 1_556 S
C1968 H1960 0.929 . S
C1968 C1969 1.377 . S
C1968 C1970 1.384 . S
C1969 C1968 1.377 . S
C1969 C1975 1.390 . S
C1970 H1961 0.930 . S
C1970 C1968 1.384 . S
C1970 C1971 1.372 . S
C1971 C1970 1.372 . S
C1971 C1972 1.400 . S
C1971 C1976 1.490 . S
C1972 H1962 0.930 . S
C1972 C1971 1.400 . S
C1972 C1975 1.386 . S
H1973 C1989 0.930 . S
H1974 C1990 0.931 . S
C1975 H1963 0.929 . S
C1975 C1969 1.390 . S
C1975 C1972 1.386 . S
C1976 C1971 1.490 . S
C1976 C1978 1.395 . S
C1976 C1979 1.403 . S
H1977 C1983 0.930 . S
C1978 H1964 0.930 . S
C1978 C1976 1.395 . S
C1978 C1981 1.403 . S
C1979 C1976 1.403 . S
C1979 C1980 1.524 . S
C1979 C1983 1.400 . S
C1980 H1965 0.960 1_554 S
C1980 H1966 0.960 . S
C1980 H1967 0.960 1_554 S
C1980 C1979 1.524 . S
C1981 C1978 1.403 . S
C1981 C1982 1.392 . S
C1981 C1985 1.495 . S
C1982 C1981 1.392 . S
C1982 C1983 1.385 . S
C1982 C1984 1.478 . S
C1983 H1977 0.930 . S
C1983 C1979 1.400 . S
C1983 C1982 1.385 . S
C1984 C1982 1.478 . S
C1984 C1986 1.381 . S
C1984 C1990 1.383 . S
C1985 C1981 1.495 . S
C1985 H1991 0.959 . S
C1985 H1992 0.961 . S
C1985 H1993 0.960 . S
C1986 C1984 1.381 . S
C1986 C1987 1.394 . S
C1986 H1994 0.930 . S
C1987 C1986 1.394 . S
C1987 C1988 1.383 . S
C1987 H1995 0.929 . S
C1988 C1987 1.383 . S
C1988 C1989 1.377 . S
C1989 H1973 0.930 . S
C1989 C1988 1.377 . S
C1989 C1990 1.379 . S
C1990 H1974 0.931 . S
C1990 C1984 1.383 . S
C1990 C1989 1.379 . S
H1991 C1985 0.959 . S
H1992 C1985 0.961 . S
H1993 C1985 0.960 . S
H1994 C1986 0.930 . S
H1995 C1987 0.929 . S
H1996 C2004 0.929 . S
H1997 C2006 0.930 . S
H1998 C2008 0.930 . S
H1999 C2011 0.929 . S
H2000 C2014 0.930 . S
H2001 C2016 0.960 . S
H2002 C2016 0.960 . S
H2003 C2016 0.960 . S
C2004 H1996 0.929 . S
C2004 C2005 1.377 . S
C2004 C2006 1.384 . S
C2005 C2004 1.377 . S
C2005 C2011 1.390 . S
C2006 H1997 0.930 . S
C2006 C2004 1.384 . S
C2006 C2007 1.372 . S
C2007 C2006 1.372 . S
C2007 C2008 1.400 . S
C2007 C2012 1.490 . S
C2008 H1998 0.930 . S
C2008 C2007 1.400 . S
C2008 C2011 1.386 . S
H2009 C2025 0.930 . S
H2010 C2026 0.931 . S
C2011 H1999 0.929 . S
C2011 C2005 1.390 . S
C2011 C2008 1.386 . S
C2012 C2007 1.490 . S
C2012 C2014 1.395 . S
C2012 C2015 1.403 . S
H2013 C2019 0.930 . S
C2014 H2000 0.930 . S
C2014 C2012 1.395 . S
C2014 C2017 1.403 . S
C2015 C2012 1.403 . S
C2015 C2016 1.524 . S
C2015 C2019 1.400 . S
C2016 H2001 0.960 . S
C2016 H2002 0.960 . S
C2016 H2003 0.960 . S
C2016 C2015 1.524 . S
C2017 C2014 1.403 . S
C2017 C2018 1.392 . S
C2017 C2021 1.495 . S
C2018 C2017 1.392 . S
C2018 C2019 1.385 . S
C2018 C2020 1.478 . S
C2019 H2013 0.930 . S
C2019 C2015 1.400 . S
C2019 C2018 1.385 . S
C2020 C2018 1.478 . S
C2020 C2022 1.381 . S
C2020 C2026 1.383 . S
C2021 C2017 1.495 . S
C2021 H2027 0.959 . S
C2021 H2028 0.961 . S
C2021 H2029 0.960 . S
C2022 C2020 1.381 . S
C2022 C2023 1.394 . S
C2022 H2030 0.930 . S
C2023 C2022 1.394 . S
C2023 C2024 1.383 . S
C2023 H2031 0.929 . S
C2024 C2023 1.383 . S
C2024 C2025 1.377 . S
C2025 H2009 0.930 . S
C2025 C2024 1.377 . S
C2025 C2026 1.379 . S
C2026 H2010 0.931 . S
C2026 C2020 1.383 . S
C2026 C2025 1.379 . S
H2027 C2021 0.959 . S
H2028 C2021 0.961 . S
H2029 C2021 0.960 . S
H2030 C2022 0.930 . S
H2031 C2023 0.929 . S
H2032 C2040 0.929 . S
H2033 C2042 0.930 . S
H2034 C2044 0.930 . S
H2035 C2047 0.929 . S
H2036 C2050 0.930 . S
H2037 C2052 0.960 . S
H2038 C2052 0.960 . S
H2039 C2052 0.960 . S
C2040 H2032 0.929 . S
C2040 C2041 1.377 . S
C2040 C2042 1.384 . S
C2041 C2040 1.377 . S
C2041 C2047 1.390 . S
C2042 H2033 0.930 . S
C2042 C2040 1.384 . S
C2042 C2043 1.372 . S
C2043 C2042 1.372 . S
C2043 C2044 1.400 . S
C2043 C2048 1.490 . S
C2044 H2034 0.930 . S
C2044 C2043 1.400 . S
C2044 C2047 1.386 . S
H2045 C2061 0.930 . S
H2046 C2062 0.931 . S
C2047 H2035 0.929 . S
C2047 C2041 1.390 . S
C2047 C2044 1.386 . S
C2048 C2043 1.490 . S
C2048 C2050 1.395 . S
C2048 C2051 1.403 . S
H2049 C2055 0.930 . S
C2050 H2036 0.930 . S
C2050 C2048 1.395 . S
C2050 C2053 1.403 . S
C2051 C2048 1.403 . S
C2051 C2052 1.524 . S
C2051 C2055 1.400 . S
C2052 H2037 0.960 . S
C2052 H2038 0.960 . S
C2052 H2039 0.960 . S
C2052 C2051 1.524 . S
C2053 C2050 1.403 . S
C2053 C2054 1.392 . S
C2053 C2057 1.495 . S
C2054 C2053 1.392 . S
C2054 C2055 1.385 . S
C2054 C2056 1.478 . S
C2055 H2049 0.930 . S
C2055 C2051 1.400 . S
C2055 C2054 1.385 . S
C2056 C2054 1.478 . S
C2056 C2058 1.381 . S
C2056 C2062 1.383 . S
C2057 C2053 1.495 . S
C2057 H2063 0.959 . S
C2057 H2064 0.961 . S
C2057 H2065 0.960 . S
C2058 C2056 1.381 . S
C2058 C2059 1.394 . S
C2058 H2066 0.930 . S
C2059 C2058 1.394 . S
C2059 C2060 1.383 . S
C2059 H2067 0.929 . S
C2060 C2059 1.383 . S
C2060 C2061 1.377 . S
C2061 H2045 0.930 . S
C2061 C2060 1.377 . S
C2061 C2062 1.379 . S
C2062 H2046 0.931 . S
C2062 C2056 1.383 . S
C2062 C2061 1.379 . S
H2063 C2057 0.959 . S
H2064 C2057 0.961 . S
H2065 C2057 0.960 . S
H2066 C2058 0.930 . S
H2067 C2059 0.929 . S
H2068 C2076 0.929 . S
H2069 C2078 0.930 . S
H2070 C2080 0.930 . S
H2071 C2083 0.929 . S
H2072 C2086 0.930 . S
H2073 C2088 0.960 . S
H2074 C2088 0.960 . S
H2075 C2088 0.960 . S
C2076 H2068 0.929 . S
C2076 C2077 1.377 . S
C2076 C2078 1.384 . S
C2077 C2076 1.377 . S
C2077 C2083 1.390 . S
C2078 H2069 0.930 . S
C2078 C2076 1.384 . S
C2078 C2079 1.372 . S
C2079 C2078 1.372 . S
C2079 C2080 1.400 . S
C2079 C2084 1.490 . S
C2080 H2070 0.930 . S
C2080 C2079 1.400 . S
C2080 C2083 1.386 . S
H2081 C2097 0.930 . S
H2082 C2098 0.931 . S
C2083 H2071 0.929 . S
C2083 C2077 1.390 . S
C2083 C2080 1.386 . S
C2084 C2079 1.490 . S
C2084 C2086 1.395 . S
C2084 C2087 1.403 . S
H2085 C2091 0.930 . S
C2086 H2072 0.930 . S
C2086 C2084 1.395 . S
C2086 C2089 1.403 1_655 S
C2087 C2084 1.403 . S
C2087 C2088 1.524 . S
C2087 C2091 1.400 1_655 S
C2088 H2073 0.960 . S
C2088 H2074 0.960 . S
C2088 H2075 0.960 . S
C2088 C2087 1.524 . S
C2089 C2086 1.403 1_455 S
C2089 C2090 1.392 . S
C2089 C2093 1.495 . S
C2090 C2089 1.392 . S
C2090 C2091 1.385 . S
C2090 C2092 1.478 . S
C2091 H2085 0.930 . S
C2091 C2087 1.400 1_455 S
C2091 C2090 1.385 . S
C2092 C2090 1.478 . S
C2092 C2094 1.381 . S
C2092 C2098 1.383 . S
C2093 C2089 1.495 . S
C2093 H2099 0.959 . S
C2093 H2100 0.961 . S
C2093 H2101 0.960 . S
C2094 C2092 1.381 . S
C2094 C2095 1.394 . S
C2094 H2102 0.930 . S
C2095 C2094 1.394 . S
C2095 C2096 1.383 . S
C2095 H2103 0.929 . S
C2096 C2095 1.383 . S
C2096 C2097 1.377 . S
C2097 H2081 0.930 . S
C2097 C2096 1.377 . S
C2097 C2098 1.379 . S
C2098 H2082 0.931 . S
C2098 C2092 1.383 . S
C2098 C2097 1.379 . S
H2099 C2093 0.959 . S
H2100 C2093 0.961 . S
H2101 C2093 0.960 . S
H2102 C2094 0.930 . S
H2103 C2095 0.929 . S
H2104 C2112 0.929 . S
H2105 C2114 0.930 . S
H2106 C2116 0.930 . S
H2107 C2119 0.929 . S
H2108 C2122 0.930 . S
H2109 C2124 0.960 . S
H2110 C2124 0.960 . S
H2111 C2124 0.960 . S
C2112 H2104 0.929 . S
C2112 C2113 1.377 . S
C2112 C2114 1.384 . S
C2113 C2112 1.377 . S
C2113 C2119 1.390 . S
C2114 H2105 0.930 . S
C2114 C2112 1.384 . S
C2114 C2115 1.372 . S
C2115 C2114 1.372 . S
C2115 C2116 1.400 . S
C2115 C2120 1.490 . S
C2116 H2106 0.930 . S
C2116 C2115 1.400 . S
C2116 C2119 1.386 . S
H2117 C2133 0.930 . S
H2118 C2134 0.931 . S
C2119 H2107 0.929 . S
C2119 C2113 1.390 . S
C2119 C2116 1.386 . S
C2120 C2115 1.490 . S
C2120 C2122 1.395 . S
C2120 C2123 1.403 . S
H2121 C2127 0.930 . S
C2122 H2108 0.930 . S
C2122 C2120 1.395 . S
C2122 C2125 1.403 1_655 S
C2123 C2120 1.403 . S
C2123 C2124 1.524 . S
C2123 C2127 1.400 1_655 S
C2124 H2109 0.960 . S
C2124 H2110 0.960 . S
C2124 H2111 0.960 . S
C2124 C2123 1.524 . S
C2125 C2122 1.403 1_455 S
C2125 C2126 1.392 . S
C2125 C2129 1.495 . S
C2126 C2125 1.392 . S
C2126 C2127 1.385 . S
C2126 C2128 1.478 . S
C2127 H2121 0.930 . S
C2127 C2123 1.400 1_455 S
C2127 C2126 1.385 . S
C2128 C2126 1.478 . S
C2128 C2130 1.381 . S
C2128 C2134 1.383 . S
C2129 C2125 1.495 . S
C2129 H2135 0.959 . S
C2129 H2136 0.961 . S
C2129 H2137 0.960 . S
C2130 C2128 1.381 . S
C2130 C2131 1.394 . S
C2130 H2138 0.930 . S
C2131 C2130 1.394 . S
C2131 C2132 1.383 . S
C2131 H2139 0.929 . S
C2132 C2131 1.383 . S
C2132 C2133 1.377 . S
C2133 H2117 0.930 . S
C2133 C2132 1.377 . S
C2133 C2134 1.379 . S
C2134 H2118 0.931 . S
C2134 C2128 1.383 . S
C2134 C2133 1.379 . S
H2135 C2129 0.959 . S
H2136 C2129 0.961 . S
H2137 C2129 0.960 . S
H2138 C2130 0.930 . S
H2139 C2131 0.929 . S
H2140 C2148 0.929 . S
H2141 C2150 0.930 . S
H2142 C2152 0.930 . S
H2143 C2155 0.929 . S
H2144 C2158 0.930 . S
H2145 C2160 0.960 . S
H2146 C2160 0.960 . S
H2147 C2160 0.960 . S
C2148 H2140 0.929 . S
C2148 C2149 1.377 . S
C2148 C2150 1.384 . S
C2149 C2148 1.377 . S
C2149 C2155 1.390 . S
C2150 H2141 0.930 . S
C2150 C2148 1.384 . S
C2150 C2151 1.372 . S
C2151 C2150 1.372 . S
C2151 C2152 1.400 . S
C2151 C2156 1.490 . S
C2152 H2142 0.930 . S
C2152 C2151 1.400 . S
C2152 C2155 1.386 . S
H2153 C2169 0.930 . S
H2154 C2170 0.931 . S
C2155 H2143 0.929 . S
C2155 C2149 1.390 . S
C2155 C2152 1.386 . S
C2156 C2151 1.490 . S
C2156 C2158 1.395 . S
C2156 C2159 1.403 . S
H2157 C2163 0.930 . S
C2158 H2144 0.930 . S
C2158 C2156 1.395 . S
C2158 C2161 1.403 . S
C2159 C2156 1.403 . S
C2159 C2160 1.524 . S
C2159 C2163 1.400 . S
C2160 H2145 0.960 . S
C2160 H2146 0.960 . S
C2160 H2147 0.960 . S
C2160 C2159 1.524 . S
C2161 C2158 1.403 . S
C2161 C2162 1.392 . S
C2161 C2165 1.495 . S
C2162 C2161 1.392 . S
C2162 C2163 1.385 . S
C2162 C2164 1.478 . S
C2163 H2157 0.930 . S
C2163 C2159 1.400 . S
C2163 C2162 1.385 . S
C2164 C2162 1.478 . S
C2164 C2166 1.381 . S
C2164 C2170 1.383 . S
C2165 C2161 1.495 . S
C2165 H2171 0.959 . S
C2165 H2172 0.961 . S
C2165 H2173 0.960 . S
C2166 C2164 1.381 . S
C2166 C2167 1.394 . S
C2166 H2174 0.930 . S
C2167 C2166 1.394 . S
C2167 C2168 1.383 . S
C2167 H2175 0.929 . S
C2168 C2167 1.383 . S
C2168 C2169 1.377 . S
C2169 H2153 0.930 . S
C2169 C2168 1.377 . S
C2169 C2170 1.379 . S
C2170 H2154 0.931 . S
C2170 C2164 1.383 . S
C2170 C2169 1.379 . S
H2171 C2165 0.959 . S
H2172 C2165 0.961 . S
H2173 C2165 0.960 . S
H2174 C2166 0.930 . S
H2175 C2167 0.929 . S
H2176 C2184 0.929 . S
H2177 C2186 0.930 . S
H2178 C2188 0.930 . S
H2179 C2191 0.929 . S
H2180 C2194 0.930 . S
H2181 C2196 0.960 . S
H2182 C2196 0.960 . S
H2183 C2196 0.960 . S
C2184 H2176 0.929 . S
C2184 C2185 1.377 . S
C2184 C2186 1.384 . S
C2185 C2184 1.377 . S
C2185 C2191 1.390 . S
C2186 H2177 0.930 . S
C2186 C2184 1.384 . S
C2186 C2187 1.372 . S
C2187 C2186 1.372 . S
C2187 C2188 1.400 . S
C2187 C2192 1.490 . S
C2188 H2178 0.930 . S
C2188 C2187 1.400 . S
C2188 C2191 1.386 . S
H2189 C2205 0.930 . S
H2190 C2206 0.931 . S
C2191 H2179 0.929 . S
C2191 C2185 1.390 . S
C2191 C2188 1.386 . S
C2192 C2187 1.490 . S
C2192 C2194 1.395 . S
C2192 C2195 1.403 . S
H2193 C2199 0.930 . S
C2194 H2180 0.930 . S
C2194 C2192 1.395 . S
C2194 C2197 1.403 . S
C2195 C2192 1.403 . S
C2195 C2196 1.524 . S
C2195 C2199 1.400 . S
C2196 H2181 0.960 . S
C2196 H2182 0.960 . S
C2196 H2183 0.960 . S
C2196 C2195 1.524 . S
C2197 C2194 1.403 . S
C2197 C2198 1.392 . S
C2197 C2201 1.495 . S
C2198 C2197 1.392 . S
C2198 C2199 1.385 . S
C2198 C2200 1.478 . S
C2199 H2193 0.930 . S
C2199 C2195 1.400 . S
C2199 C2198 1.385 . S
C2200 C2198 1.478 . S
C2200 C2202 1.381 . S
C2200 C2206 1.383 . S
C2201 C2197 1.495 . S
C2201 H2207 0.959 . S
C2201 H2208 0.961 . S
C2201 H2209 0.960 . S
C2202 C2200 1.381 . S
C2202 C2203 1.394 . S
C2202 H2210 0.930 . S
C2203 C2202 1.394 . S
C2203 C2204 1.383 . S
C2203 H2211 0.929 . S
C2204 C2203 1.383 . S
C2204 C2205 1.377 . S
C2205 H2189 0.930 . S
C2205 C2204 1.377 . S
C2205 C2206 1.379 . S
C2206 H2190 0.931 . S
C2206 C2200 1.383 . S
C2206 C2205 1.379 . S
H2207 C2201 0.959 . S
H2208 C2201 0.961 . S
H2209 C2201 0.960 . S
H2210 C2202 0.930 . S
H2211 C2203 0.929 . S
H2212 C2220 0.929 . S
H2213 C2222 0.930 . S
H2214 C2224 0.930 . S
H2215 C2227 0.929 . S
H2216 C2230 0.930 . S
H2217 C2232 0.960 . S
H2218 C2232 0.960 . S
H2219 C2232 0.960 . S
C2220 H2212 0.929 . S
C2220 C2221 1.377 . S
C2220 C2222 1.384 . S
C2221 C2220 1.377 . S
C2221 C2227 1.390 . S
C2222 H2213 0.930 . S
C2222 C2220 1.384 . S
C2222 C2223 1.372 . S
C2223 C2222 1.372 . S
C2223 C2224 1.400 . S
C2223 C2228 1.490 1_565 S
C2224 H2214 0.930 . S
C2224 C2223 1.400 . S
C2224 C2227 1.386 . S
H2225 C2241 0.930 . S
H2226 C2242 0.931 . S
C2227 H2215 0.929 . S
C2227 C2221 1.390 . S
C2227 C2224 1.386 . S
C2228 C2223 1.490 1_545 S
C2228 C2230 1.395 1_545 S
C2228 C2231 1.403 . S
H2229 C2235 0.930 . S
C2230 H2216 0.930 . S
C2230 C2228 1.395 1_565 S
C2230 C2233 1.403 . S
C2231 C2228 1.403 . S
C2231 C2232 1.524 . S
C2231 C2235 1.400 . S
C2232 H2217 0.960 . S
C2232 H2218 0.960 . S
C2232 H2219 0.960 . S
C2232 C2231 1.524 . S
C2233 C2230 1.403 . S
C2233 C2234 1.392 1_565 S
C2233 C2237 1.495 . S
C2234 C2233 1.392 1_545 S
C2234 C2235 1.385 . S
C2234 C2236 1.478 . S
C2235 H2229 0.930 . S
C2235 C2231 1.400 . S
C2235 C2234 1.385 . S
C2236 C2234 1.478 . S
C2236 C2238 1.381 . S
C2236 C2242 1.383 . S
C2237 C2233 1.495 . S
C2237 H2243 0.959 . S
C2237 H2244 0.961 . S
C2237 H2245 0.960 . S
C2238 C2236 1.381 . S
C2238 C2239 1.394 . S
C2238 H2246 0.930 . S
C2239 C2238 1.394 . S
C2239 C2240 1.383 . S
C2239 H2247 0.929 . S
C2240 C2239 1.383 . S
C2240 C2241 1.377 . S
C2241 H2225 0.930 . S
C2241 C2240 1.377 . S
C2241 C2242 1.379 . S
C2242 H2226 0.931 . S
C2242 C2236 1.383 . S
C2242 C2241 1.379 . S
H2243 C2237 0.959 . S
H2244 C2237 0.961 . S
H2245 C2237 0.960 . S
H2246 C2238 0.930 . S
H2247 C2239 0.929 . S
H2248 C2256 0.929 . S
H2249 C2258 0.930 . S
H2250 C2260 0.930 . S
H2251 C2263 0.929 . S
H2252 C2266 0.930 . S
H2253 C2268 0.960 . S
H2254 C2268 0.960 . S
H2255 C2268 0.960 . S
C2256 H2248 0.929 . S
C2256 C2257 1.377 . S
C2256 C2258 1.384 . S
C2257 C2256 1.377 . S
C2257 C2263 1.390 . S
C2258 H2249 0.930 . S
C2258 C2256 1.384 . S
C2258 C2259 1.372 . S
C2259 C2258 1.372 . S
C2259 C2260 1.400 . S
C2259 C2264 1.490 . S
C2260 H2250 0.930 . S
C2260 C2259 1.400 . S
C2260 C2263 1.386 . S
H2261 C2277 0.930 . S
H2262 C2278 0.931 . S
C2263 H2251 0.929 . S
C2263 C2257 1.390 . S
C2263 C2260 1.386 . S
C2264 C2259 1.490 . S
C2264 C2266 1.395 . S
C2264 C2267 1.403 . S
H2265 C2271 0.930 . S
C2266 H2252 0.930 . S
C2266 C2264 1.395 . S
C2266 C2269 1.403 . S
C2267 C2264 1.403 . S
C2267 C2268 1.524 . S
C2267 C2271 1.400 . S
C2268 H2253 0.960 . S
C2268 H2254 0.960 . S
C2268 H2255 0.960 . S
C2268 C2267 1.524 . S
C2269 C2266 1.403 . S
C2269 C2270 1.392 . S
C2269 C2273 1.495 . S
C2270 C2269 1.392 . S
C2270 C2271 1.385 . S
C2270 C2272 1.478 . S
C2271 H2265 0.930 . S
C2271 C2267 1.400 . S
C2271 C2270 1.385 . S
C2272 C2270 1.478 . S
C2272 C2274 1.381 . S
C2272 C2278 1.383 . S
C2273 C2269 1.495 . S
C2273 H2279 0.959 . S
C2273 H2280 0.961 . S
C2273 H2281 0.960 . S
C2274 C2272 1.381 . S
C2274 C2275 1.394 . S
C2274 H2282 0.930 . S
C2275 C2274 1.394 . S
C2275 C2276 1.383 . S
C2275 H2283 0.929 . S
C2276 C2275 1.383 . S
C2276 C2277 1.377 . S
C2277 H2261 0.930 . S
C2277 C2276 1.377 . S
C2277 C2278 1.379 . S
C2278 H2262 0.931 . S
C2278 C2272 1.383 . S
C2278 C2277 1.379 . S
H2279 C2273 0.959 . S
H2280 C2273 0.961 . S
H2281 C2273 0.960 . S
H2282 C2274 0.930 . S
H2283 C2275 0.929 . S
H2284 C2292 0.929 . S
H2285 C2294 0.930 . S
H2286 C2296 0.930 . S
H2287 C2299 0.929 . S
H2288 C2302 0.930 . S
H2289 C2304 0.960 . S
H2290 C2304 0.960 . S
H2291 C2304 0.960 . S
C2292 H2284 0.929 . S
C2292 C2293 1.377 . S
C2292 C2294 1.384 1_556 S
C2293 C2292 1.377 . S
C2293 C2299 1.390 . S
C2294 H2285 0.930 . S
C2294 C2292 1.384 1_554 S
C2294 C2295 1.372 . S
C2295 C2294 1.372 . S
C2295 C2296 1.400 1_554 S
C2295 C2300 1.490 . S
C2296 H2286 0.930 . S
C2296 C2295 1.400 1_556 S
C2296 C2299 1.386 . S
H2297 C2313 0.930 . S
H2298 C2314 0.931 . S
C2299 H2287 0.929 . S
C2299 C2293 1.390 . S
C2299 C2296 1.386 . S
C2300 C2295 1.490 . S
C2300 C2302 1.395 . S
C2300 C2303 1.403 . S
H2301 C2307 0.930 . S
C2302 H2288 0.930 . S
C2302 C2300 1.395 . S
C2302 C2305 1.403 . S
C2303 C2300 1.403 . S
C2303 C2304 1.524 . S
C2303 C2307 1.400 . S
C2304 H2289 0.960 . S
C2304 H2290 0.960 . S
C2304 H2291 0.960 . S
C2304 C2303 1.524 . S
C2305 C2302 1.403 . S
C2305 C2306 1.392 . S
C2305 C2309 1.495 . S
C2306 C2305 1.392 . S
C2306 C2307 1.385 . S
C2306 C2308 1.478 1_545 S
C2307 H2301 0.930 . S
C2307 C2303 1.400 . S
C2307 C2306 1.385 . S
C2308 C2306 1.478 1_565 S
C2308 C2310 1.381 1_565 S
C2308 C2314 1.383 . S
C2309 C2305 1.495 . S
C2309 H2315 0.959 . S
C2309 H2316 0.961 1_545 S
C2309 H2317 0.960 . S
C2310 C2308 1.381 1_545 S
C2310 C2311 1.372 1_545 S
C2310 H2318 0.930 . S
C2311 C2310 1.372 1_565 S
C2311 C2312 1.446 . S
C2311 H2319 0.892 1_565 S
C2312 C2311 1.446 . S
C2312 C2313 1.377 . S
C2313 H2297 0.930 . S
C2313 C2312 1.377 . S
C2313 C2314 1.379 . S
C2314 H2298 0.931 . S
C2314 C2308 1.383 . S
C2314 C2313 1.379 . S
H2315 C2309 0.959 . S
H2316 C2309 0.961 1_565 S
H2317 C2309 0.960 . S
H2318 C2310 0.930 . S
H2319 C2311 0.892 1_545 S
H2320 C2328 0.929 . S
H2321 C2330 0.930 . S
H2322 C2332 0.930 . S
H2323 C2335 0.929 . S
H2324 C2338 0.930 . S
H2325 C2340 0.960 . S
H2326 C2340 0.960 . S
H2327 C2340 0.960 . S
C2328 H2320 0.929 . S
C2328 C2329 1.377 . S
C2328 C2330 1.384 . S
C2329 C2328 1.377 . S
C2329 C2335 1.390 . S
C2330 H2321 0.930 . S
C2330 C2328 1.384 . S
C2330 C2331 1.372 . S
C2331 C2330 1.372 . S
C2331 C2332 1.400 . S
C2331 C2336 1.490 . S
C2332 H2322 0.930 . S
C2332 C2331 1.400 . S
C2332 C2335 1.386 . S
H2333 C2349 0.930 . S
H2334 C2350 0.931 . S
C2335 H2323 0.929 . S
C2335 C2329 1.390 . S
C2335 C2332 1.386 . S
C2336 C2331 1.490 . S
C2336 C2338 1.395 . S
C2336 C2339 1.403 . S
H2337 C2343 0.930 . S
C2338 H2324 0.930 . S
C2338 C2336 1.395 . S
C2338 C2341 1.403 . S
C2339 C2336 1.403 . S
C2339 C2340 1.524 . S
C2339 C2343 1.400 . S
C2340 H2325 0.960 . S
C2340 H2326 0.960 . S
C2340 H2327 0.960 . S
C2340 C2339 1.524 . S
C2341 C2338 1.403 . S
C2341 C2342 1.392 . S
C2341 C2345 1.495 . S
C2342 C2341 1.392 . S
C2342 C2343 1.385 . S
C2342 C2344 1.478 . S
C2343 H2337 0.930 . S
C2343 C2339 1.400 . S
C2343 C2342 1.385 . S
C2344 C2342 1.478 . S
C2344 C2346 1.381 . S
C2344 C2350 1.383 . S
C2345 C2341 1.495 . S
C2345 H2351 0.959 . S
C2345 H2352 0.961 . S
C2345 H2353 0.960 . S
C2346 C2344 1.381 . S
C2346 C2347 1.394 . S
C2346 H2354 0.930 . S
C2347 C2346 1.394 . S
C2347 C2348 1.383 . S
C2347 H2355 0.929 . S
C2348 C2347 1.383 . S
C2348 C2349 1.377 . S
C2349 H2333 0.930 . S
C2349 C2348 1.377 . S
C2349 C2350 1.379 . S
C2350 H2334 0.931 . S
C2350 C2344 1.383 . S
C2350 C2349 1.379 . S
H2351 C2345 0.959 . S
H2352 C2345 0.961 . S
H2353 C2345 0.960 . S
H2354 C2346 0.930 . S
H2355 C2347 0.929 . S
H2356 C2364 0.929 . S
H2357 C2366 0.930 . S
H2358 C2368 0.930 . S
H2359 C2371 0.929 . S
H2360 C2374 0.928 1_565 S
H2361 C2376 0.960 . S
H2362 C2376 0.960 . S
H2363 C2376 0.960 . S
C2364 H2356 0.929 . S
C2364 C2365 1.377 . S
C2364 C2366 1.384 . S
C2365 C2364 1.377 . S
C2365 C2371 1.390 . S
C2366 H2357 0.930 . S
C2366 C2364 1.384 . S
C2366 C2367 1.372 . S
C2367 C2366 1.372 . S
C2367 C2368 1.400 . S
C2367 C2372 1.490 . S
C2368 H2358 0.930 . S
C2368 C2367 1.400 . S
C2368 C2371 1.386 . S
H2369 C2385 0.930 . S
H2370 C2386 0.931 . S
C2371 H2359 0.929 . S
C2371 C2365 1.390 . S
C2371 C2368 1.386 . S
C2372 C2367 1.490 . S
C2372 C2374 1.399 . S
C2372 C2375 1.403 . S
H2373 C2379 0.930 . S
C2374 H2360 0.928 1_545 S
C2374 C2372 1.399 . S
C2374 C2377 1.401 1_545 S
C2375 C2372 1.403 . S
C2375 C2376 1.524 . S
C2375 C2379 1.400 . S
C2376 H2361 0.960 . S
C2376 H2362 0.960 . S
C2376 H2363 0.960 . S
C2376 C2375 1.524 . S
C2377 C2374 1.401 1_565 S
C2377 C2378 1.393 . S
C2377 C2381 1.495 . S
C2378 C2377 1.393 . S
C2378 C2379 1.385 1_565 S
C2378 C2380 1.478 . S
C2379 H2373 0.930 . S
C2379 C2375 1.400 . S
C2379 C2378 1.385 1_545 S
C2380 C2378 1.478 . S
C2380 C2382 1.381 . S
C2380 C2386 1.383 . S
C2381 C2377 1.495 . S
C2381 H2387 0.959 . S
C2381 H2388 0.961 . S
C2381 H2389 0.960 . S
C2382 C2380 1.381 . S
C2382 C2383 1.394 . S
C2382 H2390 0.930 . S
C2383 C2382 1.394 . S
C2383 C2384 1.383 . S
C2383 H2391 0.929 . S
C2384 C2383 1.383 . S
C2384 C2385 1.377 . S
C2385 H2369 0.930 . S
C2385 C2384 1.377 . S
C2385 C2386 1.379 . S
C2386 H2370 0.931 . S
C2386 C2380 1.383 . S
C2386 C2385 1.379 . S
H2387 C2381 0.959 . S
H2388 C2381 0.961 . S
H2389 C2381 0.960 . S
H2390 C2382 0.930 . S
H2391 C2383 0.929 . S
H2392 C2400 0.929 . S
H2393 C2402 0.930 . S
H2394 C2404 0.930 . S
H2395 C2407 0.929 . S
H2396 C2410 0.930 . S
H2397 C2412 0.960 . S
H2398 C2412 0.960 . S
H2399 C2412 0.960 . S
C2400 H2392 0.929 . S
C2400 C2401 1.377 . S
C2400 C2402 1.384 . S
C2401 C2400 1.377 . S
C2401 C2407 1.390 . S
C2402 H2393 0.930 . S
C2402 C2400 1.384 . S
C2402 C2403 1.372 . S
C2403 C2402 1.372 . S
C2403 C2404 1.400 . S
C2403 C2408 1.490 . S
C2404 H2394 0.930 . S
C2404 C2403 1.400 . S
C2404 C2407 1.386 . S
H2405 C2421 0.930 . S
H2406 C2422 0.931 . S
C2407 H2395 0.929 . S
C2407 C2401 1.390 . S
C2407 C2404 1.386 . S
C2408 C2403 1.490 . S
C2408 C2410 1.395 . S
C2408 C2411 1.403 . S
H2409 C2415 0.930 . S
C2410 H2396 0.930 . S
C2410 C2408 1.395 . S
C2410 C2413 1.403 . S
C2411 C2408 1.403 . S
C2411 C2412 1.524 . S
C2411 C2415 1.400 . S
C2412 H2397 0.960 . S
C2412 H2398 0.960 . S
C2412 H2399 0.960 . S
C2412 C2411 1.524 . S
C2413 C2410 1.403 . S
C2413 C2414 1.392 . S
C2413 C2417 1.495 . S
C2414 C2413 1.392 . S
C2414 C2415 1.385 . S
C2414 C2416 1.478 . S
C2415 H2409 0.930 . S
C2415 C2411 1.400 . S
C2415 C2414 1.385 . S
C2416 C2414 1.478 . S
C2416 C2418 1.381 . S
C2416 C2422 1.383 . S
C2417 C2413 1.495 . S
C2417 H2423 0.959 . S
C2417 H2424 0.961 . S
C2417 H2425 0.960 . S
C2418 C2416 1.381 . S
C2418 C2419 1.394 . S
C2418 H2426 0.930 . S
C2419 C2418 1.394 . S
C2419 C2420 1.383 . S
C2419 H2427 0.929 . S
C2420 C2419 1.383 . S
C2420 C2421 1.377 . S
C2421 H2405 0.930 . S
C2421 C2420 1.377 . S
C2421 C2422 1.379 . S
C2422 H2406 0.931 . S
C2422 C2416 1.383 . S
C2422 C2421 1.379 . S
H2423 C2417 0.959 . S
H2424 C2417 0.961 . S
H2425 C2417 0.960 . S
H2426 C2418 0.930 . S
H2427 C2419 0.929 . S
H2428 C2436 0.929 . S
H2429 C2438 0.930 . S
H2430 C2440 0.930 . S
H2431 C2443 0.926 . S
H2432 C2446 0.930 . S
H2433 C2448 0.960 . S
H2434 C2448 0.960 . S
H2435 C2448 0.960 . S
C2436 H2428 0.929 . S
C2436 C2437 1.377 . S
C2436 C2438 1.384 . S
C2437 C2436 1.377 . S
C2437 C2443 1.394 1_565 S
C2438 H2429 0.930 . S
C2438 C2436 1.384 . S
C2438 C2439 1.372 . S
C2439 C2438 1.372 . S
C2439 C2440 1.400 1_565 S
C2439 C2444 1.471 1_565 S
C2440 H2430 0.930 . S
C2440 C2439 1.400 1_545 S
C2440 C2443 1.384 . S
H2441 C2457 0.930 . S
H2442 C2458 0.931 . S
C2443 H2431 0.926 . S
C2443 C2437 1.394 1_545 S
C2443 C2440 1.384 . S
C2444 C2439 1.471 1_545 S
C2444 C2446 1.373 1_545 S
C2444 C2447 1.446 . S
H2445 C2451 0.930 . S
C2446 H2432 0.930 . S
C2446 C2444 1.373 1_565 S
C2446 C2449 1.402 . S
C2447 C2444 1.446 . S
C2447 C2448 1.524 . S
C2447 C2451 1.400 . S
C2448 H2433 0.960 . S
C2448 H2434 0.960 . S
C2448 H2435 0.960 . S
C2448 C2447 1.524 . S
C2449 C2446 1.402 . S
C2449 C2450 1.395 1_565 S
C2449 C2453 1.494 . S
C2450 C2449 1.395 1_545 S
C2450 C2451 1.385 . S
C2450 C2452 1.478 . S
C2451 H2445 0.930 . S
C2451 C2447 1.400 . S
C2451 C2450 1.385 . S
C2452 C2450 1.478 . S
C2452 C2454 1.381 1_554 S
C2452 C2458 1.383 . S
C2453 C2449 1.494 . S
C2453 H2459 0.959 . S
C2453 H2460 0.961 1_565 S
C2453 H2461 0.960 . S
C2454 C2452 1.381 1_556 S
C2454 C2455 1.394 . S
C2454 H2462 0.930 1_545 S
C2455 C2454 1.394 . S
C2455 C2456 1.383 . S
C2455 H2463 0.929 . S
C2456 C2455 1.383 . S
C2456 C2457 1.377 . S
C2457 H2441 0.930 . S
C2457 C2456 1.377 . S
C2457 C2458 1.379 1_556 S
C2458 H2442 0.931 . S
C2458 C2452 1.383 . S
C2458 C2457 1.379 1_554 S
H2459 C2453 0.959 . S
H2460 C2453 0.961 1_545 S
H2461 C2453 0.960 . S
H2462 C2454 0.930 1_565 S
H2463 C2455 0.929 . S
H2464 C2472 0.929 . S
H2465 C2474 0.930 . S
H2466 C2476 0.930 . S
H2467 C2479 0.929 . S
H2468 C2482 0.930 . S
H2469 C2484 0.960 . S
H2470 C2484 0.960 . S
H2471 C2484 0.960 . S
C2472 H2464 0.929 . S
C2472 C2473 1.377 . S
C2472 C2474 1.384 . S
C2473 C2472 1.377 . S
C2473 C2479 1.390 . S
C2474 H2465 0.930 . S
C2474 C2472 1.384 . S
C2474 C2475 1.372 . S
C2475 C2474 1.372 . S
C2475 C2476 1.400 . S
C2475 C2480 1.490 . S
C2476 H2466 0.930 . S
C2476 C2475 1.400 . S
C2476 C2479 1.386 . S
H2477 C2493 0.930 . S
H2478 C2494 0.931 . S
C2479 H2467 0.929 . S
C2479 C2473 1.390 . S
C2479 C2476 1.386 . S
C2480 C2475 1.490 . S
C2480 C2482 1.395 . S
C2480 C2483 1.403 . S
H2481 C2487 0.930 . S
C2482 H2468 0.930 . S
C2482 C2480 1.395 . S
C2482 C2485 1.403 . S
C2483 C2480 1.403 . S
C2483 C2484 1.524 . S
C2483 C2487 1.400 . S
C2484 H2469 0.960 . S
C2484 H2470 0.960 . S
C2484 H2471 0.960 . S
C2484 C2483 1.524 . S
C2485 C2482 1.403 . S
C2485 C2486 1.392 . S
C2485 C2489 1.495 . S
C2486 C2485 1.392 . S
C2486 C2487 1.385 . S
C2486 C2488 1.478 . S
C2487 H2481 0.930 . S
C2487 C2483 1.400 . S
C2487 C2486 1.385 . S
C2488 C2486 1.478 . S
C2488 C2490 1.381 . S
C2488 C2494 1.383 . S
C2489 C2485 1.495 . S
C2489 H2495 0.959 . S
C2489 H2496 0.961 . S
C2489 H2497 0.960 . S
C2490 C2488 1.381 . S
C2490 C2491 1.394 . S
C2490 H2498 0.930 . S
C2491 C2490 1.394 . S
C2491 C2492 1.383 . S
C2491 H2499 0.929 . S
C2492 C2491 1.383 . S
C2492 C2493 1.377 . S
C2493 H2477 0.930 . S
C2493 C2492 1.377 . S
C2493 C2494 1.379 . S
C2494 H2478 0.931 . S
C2494 C2488 1.383 . S
C2494 C2493 1.379 . S
H2495 C2489 0.959 . S
H2496 C2489 0.961 . S
H2497 C2489 0.960 . S
H2498 C2490 0.930 . S
H2499 C2491 0.929 . S
H2500 C2508 0.929 . S
H2501 C2510 0.930 . S
H2502 C2512 0.930 . S
H2503 C2515 0.929 . S
H2504 C2518 0.930 . S
H2505 C2520 0.960 . S
H2506 C2520 0.960 . S
H2507 C2520 0.960 . S
C2508 H2500 0.929 . S
C2508 C2509 1.377 . S
C2508 C2510 1.384 . S
C2509 C2508 1.377 . S
C2509 C2515 1.390 . S
C2510 H2501 0.930 . S
C2510 C2508 1.384 . S
C2510 C2511 1.372 . S
C2511 C2510 1.372 . S
C2511 C2512 1.400 . S
C2511 C2516 1.490 . S
C2512 H2502 0.930 . S
C2512 C2511 1.400 . S
C2512 C2515 1.386 . S
H2513 C2529 0.930 . S
H2514 C2530 0.931 1_554 S
C2515 H2503 0.929 . S
C2515 C2509 1.390 . S
C2515 C2512 1.386 . S
C2516 C2511 1.490 . S
C2516 C2518 1.395 . S
C2516 C2519 1.403 . S
H2517 C2523 0.930 . S
C2518 H2504 0.930 . S
C2518 C2516 1.395 . S
C2518 C2521 1.403 . S
C2519 C2516 1.403 . S
C2519 C2520 1.524 . S
C2519 C2523 1.400 . S
C2520 H2505 0.960 . S
C2520 H2506 0.960 . S
C2520 H2507 0.960 . S
C2520 C2519 1.524 . S
C2521 C2518 1.403 . S
C2521 C2522 1.392 . S
C2521 C2525 1.495 . S
C2522 C2521 1.392 . S
C2522 C2523 1.385 . S
C2522 C2524 1.478 . S
C2523 H2517 0.930 . S
C2523 C2519 1.400 . S
C2523 C2522 1.385 . S
C2524 C2522 1.478 . S
C2524 C2526 1.381 1_554 S
C2524 C2530 1.383 1_554 S
C2525 C2521 1.495 . S
C2525 H2531 0.959 . S
C2525 H2532 0.961 . S
C2525 H2533 0.960 . S
C2526 C2524 1.381 1_556 S
C2526 C2527 1.394 . S
C2526 H2534 0.930 1_556 S
C2527 C2526 1.394 . S
C2527 C2528 1.383 . S
C2527 H2535 0.929 . S
C2528 C2527 1.383 . S
C2528 C2529 1.377 . S
C2529 H2513 0.930 . S
C2529 C2528 1.377 . S
C2529 C2530 1.379 . S
C2530 H2514 0.931 1_556 S
C2530 C2524 1.383 1_556 S
C2530 C2529 1.379 . S
H2531 C2525 0.959 . S
H2532 C2525 0.961 . S
H2533 C2525 0.960 . S
H2534 C2526 0.930 1_554 S
H2535 C2527 0.929 . S
H2536 C2544 0.929 . S
H2537 C2546 0.930 . S
H2538 C2548 0.930 . S
H2539 C2551 0.929 . S
H2540 C2554 0.930 . S
H2541 C2556 0.960 . S
H2542 C2556 0.960 . S
H2543 C2556 0.960 . S
C2544 H2536 0.929 . S
C2544 C2545 1.377 . S
C2544 C2546 1.384 . S
C2545 C2544 1.377 . S
C2545 C2551 1.390 . S
C2546 H2537 0.930 . S
C2546 C2544 1.384 . S
C2546 C2547 1.372 . S
C2547 C2546 1.372 . S
C2547 C2548 1.400 . S
C2547 C2552 1.490 . S
C2548 H2538 0.930 . S
C2548 C2547 1.400 . S
C2548 C2551 1.386 . S
H2549 C2565 0.930 . S
H2550 C2566 0.931 . S
C2551 H2539 0.929 . S
C2551 C2545 1.390 . S
C2551 C2548 1.386 . S
C2552 C2547 1.490 . S
C2552 C2554 1.395 . S
C2552 C2555 1.403 . S
H2553 C2559 0.930 . S
C2554 H2540 0.930 . S
C2554 C2552 1.395 . S
C2554 C2557 1.403 . S
C2555 C2552 1.403 . S
C2555 C2556 1.524 . S
C2555 C2559 1.400 . S
C2556 H2541 0.960 . S
C2556 H2542 0.960 . S
C2556 H2543 0.960 . S
C2556 C2555 1.524 . S
C2557 C2554 1.403 . S
C2557 C2558 1.392 . S
C2557 C2561 1.495 . S
C2558 C2557 1.392 . S
C2558 C2559 1.385 . S
C2558 C2560 1.478 . S
C2559 H2553 0.930 . S
C2559 C2555 1.400 . S
C2559 C2558 1.385 . S
C2560 C2558 1.478 . S
C2560 C2562 1.381 . S
C2560 C2566 1.383 . S
C2561 C2557 1.495 . S
C2561 H2567 0.959 . S
C2561 H2568 0.961 . S
C2561 H2569 0.960 . S
C2562 C2560 1.381 . S
C2562 C2563 1.394 . S
C2562 H2570 0.930 . S
C2563 C2562 1.394 . S
C2563 C2564 1.383 . S
C2563 H2571 0.929 . S
C2564 C2563 1.383 . S
C2564 C2565 1.377 . S
C2565 H2549 0.930 . S
C2565 C2564 1.377 . S
C2565 C2566 1.379 . S
C2566 H2550 0.931 . S
C2566 C2560 1.383 . S
C2566 C2565 1.379 . S
H2567 C2561 0.959 . S
H2568 C2561 0.961 . S
H2569 C2561 0.960 . S
H2570 C2562 0.930 . S
H2571 C2563 0.929 . S
H2572 C2580 0.929 . S
H2573 C2582 0.930 . S
H2574 C2584 0.930 . S
H2575 C2587 0.929 . S
H2576 C2590 0.930 . S
H2577 C2592 0.960 . S
H2578 C2592 0.960 . S
H2579 C2592 0.960 . S
C2580 H2572 0.929 . S
C2580 C2581 1.377 . S
C2580 C2582 1.384 . S
C2581 C2580 1.377 . S
C2581 C2587 1.390 . S
C2582 H2573 0.930 . S
C2582 C2580 1.384 . S
C2582 C2583 1.372 . S
C2583 C2582 1.372 . S
C2583 C2584 1.400 . S
C2583 C2588 1.490 . S
C2584 H2574 0.930 . S
C2584 C2583 1.400 . S
C2584 C2587 1.386 . S
H2585 C2601 0.930 . S
H2586 C2602 0.931 . S
C2587 H2575 0.929 . S
C2587 C2581 1.390 . S
C2587 C2584 1.386 . S
C2588 C2583 1.490 . S
C2588 C2590 1.395 . S
C2588 C2591 1.403 . S
H2589 C2595 0.930 . S
C2590 H2576 0.930 . S
C2590 C2588 1.395 . S
C2590 C2593 1.403 . S
C2591 C2588 1.403 . S
C2591 C2592 1.524 . S
C2591 C2595 1.400 . S
C2592 H2577 0.960 . S
C2592 H2578 0.960 . S
C2592 H2579 0.960 . S
C2592 C2591 1.524 . S
C2593 C2590 1.403 . S
C2593 C2594 1.392 . S
C2593 C2597 1.495 . S
C2594 C2593 1.392 . S
C2594 C2595 1.385 . S
C2594 C2596 1.478 . S
C2595 H2589 0.930 . S
C2595 C2591 1.400 . S
C2595 C2594 1.385 . S
C2596 C2594 1.478 . S
C2596 C2598 1.381 . S
C2596 C2602 1.383 . S
C2597 C2593 1.495 . S
C2597 H2603 0.959 . S
C2597 H2604 0.961 . S
C2597 H2605 0.960 . S
C2598 C2596 1.381 . S
C2598 C2599 1.394 . S
C2598 H2606 0.930 . S
C2599 C2598 1.394 . S
C2599 C2600 1.383 . S
C2599 H2607 0.929 . S
C2600 C2599 1.383 . S
C2600 C2601 1.377 . S
C2601 H2585 0.930 . S
C2601 C2600 1.377 . S
C2601 C2602 1.379 . S
C2602 H2586 0.931 . S
C2602 C2596 1.383 . S
C2602 C2601 1.379 . S
H2603 C2597 0.959 . S
H2604 C2597 0.961 . S
H2605 C2597 0.960 . S
H2606 C2598 0.930 . S
H2607 C2599 0.929 . S
H2608 C2616 0.929 . S
H2609 C2618 0.930 . S
H2610 C2620 0.930 . S
H2611 C2623 0.929 . S
H2612 C2626 0.930 . S
H2613 C2628 0.960 . S
H2614 C2628 0.960 . S
H2615 C2628 0.960 . S
C2616 H2608 0.929 . S
C2616 C2617 1.377 . S
C2616 C2618 1.384 . S
C2617 C2616 1.377 . S
C2617 C2623 1.390 . S
C2618 H2609 0.930 . S
C2618 C2616 1.384 . S
C2618 C2619 1.372 . S
C2619 C2618 1.372 . S
C2619 C2620 1.400 . S
C2619 C2624 1.490 . S
C2620 H2610 0.930 . S
C2620 C2619 1.400 . S
C2620 C2623 1.386 . S
H2621 C2637 0.930 . S
H2622 C2638 0.931 . S
C2623 H2611 0.929 . S
C2623 C2617 1.390 . S
C2623 C2620 1.386 . S
C2624 C2619 1.490 . S
C2624 C2626 1.395 . S
C2624 C2627 1.403 . S
H2625 C2631 0.930 . S
C2626 H2612 0.930 . S
C2626 C2624 1.395 . S
C2626 C2629 1.403 . S
C2627 C2624 1.403 . S
C2627 C2628 1.524 . S
C2627 C2631 1.400 . S
C2628 H2613 0.960 . S
C2628 H2614 0.960 . S
C2628 H2615 0.960 . S
C2628 C2627 1.524 . S
C2629 C2626 1.403 . S
C2629 C2630 1.392 . S
C2629 C2633 1.495 . S
C2630 C2629 1.392 . S
C2630 C2631 1.385 . S
C2630 C2632 1.478 . S
C2631 H2625 0.930 . S
C2631 C2627 1.400 . S
C2631 C2630 1.385 . S
C2632 C2630 1.478 . S
C2632 C2634 1.381 . S
C2632 C2638 1.383 . S
C2633 C2629 1.495 . S
C2633 H2639 0.959 . S
C2633 H2640 0.961 . S
C2633 H2641 0.960 . S
C2634 C2632 1.381 . S
C2634 C2635 1.394 . S
C2634 H2642 0.930 . S
C2635 C2634 1.394 . S
C2635 C2636 1.383 . S
C2635 H2643 0.929 . S
C2636 C2635 1.383 . S
C2636 C2637 1.377 . S
C2637 H2621 0.930 . S
C2637 C2636 1.377 . S
C2637 C2638 1.379 . S
C2638 H2622 0.931 . S
C2638 C2632 1.383 . S
C2638 C2637 1.379 . S
H2639 C2633 0.959 . S
H2640 C2633 0.961 . S
H2641 C2633 0.960 . S
H2642 C2634 0.930 . S
H2643 C2635 0.929 . S
H2644 C2652 0.929 . S
H2645 C2654 0.933 . S
H2646 C2656 0.933 . S
H2647 C2659 0.929 . S
H2648 C2662 0.930 . S
H2649 C2664 0.960 . S
H2650 C2664 0.960 . S
H2651 C2664 0.960 . S
C2652 H2644 0.929 . S
C2652 C2653 1.377 . S
C2652 C2654 1.378 1_556 S
C2653 C2652 1.377 . S
C2653 C2659 1.390 . S
C2654 H2645 0.933 . S
C2654 C2652 1.378 1_554 S
C2654 C2655 1.374 . S
C2655 C2654 1.374 . S
C2655 C2656 1.400 1_554 S
C2655 C2660 1.490 . S
C2656 H2646 0.933 . S
C2656 C2655 1.400 1_556 S
C2656 C2659 1.386 . S
H2657 C2673 0.930 . S
H2658 C2674 0.931 . S
C2659 H2647 0.929 . S
C2659 C2653 1.390 . S
C2659 C2656 1.386 . S
C2660 C2655 1.490 . S
C2660 C2662 1.395 . S
C2660 C2663 1.403 . S
H2661 C2667 0.930 . S
C2662 H2648 0.930 . S
C2662 C2660 1.395 . S
C2662 C2665 1.403 . S
C2663 C2660 1.403 . S
C2663 C2664 1.524 . S
C2663 C2667 1.400 . S
C2664 H2649 0.960 . S
C2664 H2650 0.960 . S
C2664 H2651 0.960 . S
C2664 C2663 1.524 . S
C2665 C2662 1.403 . S
C2665 C2666 1.392 . S
C2665 C2669 1.495 . S
C2666 C2665 1.392 . S
C2666 C2667 1.385 . S
C2666 C2668 1.478 . S
C2667 H2661 0.930 . S
C2667 C2663 1.400 . S
C2667 C2666 1.385 . S
C2668 C2666 1.478 . S
C2668 C2670 1.381 . S
C2668 C2674 1.383 . S
C2669 C2665 1.495 . S
C2669 H2675 0.959 . S
C2669 H2676 0.961 . S
C2669 H2677 0.960 . S
C2670 C2668 1.381 . S
C2670 C2671 1.394 . S
C2670 H2678 0.930 . S
C2671 C2670 1.394 . S
C2671 C2672 1.383 . S
C2671 H2679 0.929 . S
C2672 C2671 1.383 . S
C2672 C2673 1.377 . S
C2673 H2657 0.930 . S
C2673 C2672 1.377 . S
C2673 C2674 1.379 . S
C2674 H2658 0.931 . S
C2674 C2668 1.383 . S
C2674 C2673 1.379 . S
H2675 C2669 0.959 . S
H2676 C2669 0.961 . S
H2677 C2669 0.960 . S
H2678 C2670 0.930 . S
H2679 C2671 0.929 . S
H2680 C2688 0.929 . S
H2681 C2690 0.930 . S
H2682 C2692 0.930 . S
H2683 C2695 0.929 . S
H2684 C2698 0.930 . S
H2685 C2700 0.960 . S
H2686 C2700 0.960 . S
H2687 C2700 0.960 . S
C2688 H2680 0.929 . S
C2688 C2689 1.377 . S
C2688 C2690 1.384 . S
C2689 C2688 1.377 . S
C2689 C2695 1.390 . S
C2690 H2681 0.930 . S
C2690 C2688 1.384 . S
C2690 C2691 1.372 . S
C2691 C2690 1.372 . S
C2691 C2692 1.400 . S
C2691 C2696 1.490 . S
C2692 H2682 0.930 . S
C2692 C2691 1.400 . S
C2692 C2695 1.386 . S
H2693 C2709 0.930 . S
H2694 C2710 0.931 . S
C2695 H2683 0.929 . S
C2695 C2689 1.390 . S
C2695 C2692 1.386 . S
C2696 C2691 1.490 . S
C2696 C2698 1.395 . S
C2696 C2699 1.403 . S
H2697 C2703 0.930 . S
C2698 H2684 0.930 . S
C2698 C2696 1.395 . S
C2698 C2701 1.403 . S
C2699 C2696 1.403 . S
C2699 C2700 1.524 . S
C2699 C2703 1.400 . S
C2700 H2685 0.960 . S
C2700 H2686 0.960 . S
C2700 H2687 0.960 . S
C2700 C2699 1.524 . S
C2701 C2698 1.403 . S
C2701 C2702 1.392 . S
C2701 C2705 1.495 . S
C2702 C2701 1.392 . S
C2702 C2703 1.385 . S
C2702 C2704 1.478 . S
C2703 H2697 0.930 . S
C2703 C2699 1.400 . S
C2703 C2702 1.385 . S
C2704 C2702 1.478 . S
C2704 C2706 1.381 . S
C2704 C2710 1.383 . S
C2705 C2701 1.495 . S
C2705 H2711 0.959 . S
C2705 H2712 0.961 . S
C2705 H2713 0.960 . S
C2706 C2704 1.381 . S
C2706 C2707 1.394 . S
C2706 H2714 0.930 . S
C2707 C2706 1.394 . S
C2707 C2708 1.383 . S
C2707 H2715 0.929 . S
C2708 C2707 1.383 . S
C2708 C2709 1.377 . S
C2709 H2693 0.930 . S
C2709 C2708 1.377 . S
C2709 C2710 1.379 . S
C2710 H2694 0.931 . S
C2710 C2704 1.383 . S
C2710 C2709 1.379 . S
H2711 C2705 0.959 . S
H2712 C2705 0.961 . S
H2713 C2705 0.960 . S
H2714 C2706 0.930 . S
H2715 C2707 0.929 . S
H2716 C2724 0.929 . S
H2717 C2726 0.930 . S
H2718 C2728 0.930 . S
H2719 C2731 0.929 . S
H2720 C2734 0.930 . S
H2721 C2736 0.960 . S
H2722 C2736 0.960 . S
H2723 C2736 0.960 . S
C2724 H2716 0.929 . S
C2724 C2725 1.377 . S
C2724 C2726 1.384 . S
C2725 C2724 1.377 . S
C2725 C2731 1.390 . S
C2726 H2717 0.930 . S
C2726 C2724 1.384 . S
C2726 C2727 1.372 . S
C2727 C2726 1.372 . S
C2727 C2728 1.400 . S
C2727 C2732 1.490 . S
C2728 H2718 0.930 . S
C2728 C2727 1.400 . S
C2728 C2731 1.386 . S
H2729 C2745 0.930 . S
H2730 C2746 0.931 . S
C2731 H2719 0.929 . S
C2731 C2725 1.390 . S
C2731 C2728 1.386 . S
C2732 C2727 1.490 . S
C2732 C2734 1.395 . S
C2732 C2735 1.403 . S
H2733 C2739 0.930 . S
C2734 H2720 0.930 . S
C2734 C2732 1.395 . S
C2734 C2737 1.403 . S
C2735 C2732 1.403 . S
C2735 C2736 1.524 . S
C2735 C2739 1.400 . S
C2736 H2721 0.960 . S
C2736 H2722 0.960 . S
C2736 H2723 0.960 . S
C2736 C2735 1.524 . S
C2737 C2734 1.403 . S
C2737 C2738 1.392 . S
C2737 C2741 1.495 . S
C2738 C2737 1.392 . S
C2738 C2739 1.385 . S
C2738 C2740 1.478 . S
C2739 H2733 0.930 . S
C2739 C2735 1.400 . S
C2739 C2738 1.385 . S
C2740 C2738 1.478 . S
C2740 C2742 1.381 . S
C2740 C2746 1.383 . S
C2741 C2737 1.495 . S
C2741 H2747 0.959 . S
C2741 H2748 0.961 . S
C2741 H2749 0.960 . S
C2742 C2740 1.381 . S
C2742 C2743 1.394 . S
C2742 H2750 0.930 . S
C2743 C2742 1.394 . S
C2743 C2744 1.383 . S
C2743 H2751 0.929 . S
C2744 C2743 1.383 . S
C2744 C2745 1.377 . S
C2745 H2729 0.930 . S
C2745 C2744 1.377 . S
C2745 C2746 1.379 . S
C2746 H2730 0.931 . S
C2746 C2740 1.383 . S
C2746 C2745 1.379 . S
H2747 C2741 0.959 . S
H2748 C2741 0.961 . S
H2749 C2741 0.960 . S
H2750 C2742 0.930 . S
H2751 C2743 0.929 . S
C457 C104 1.539 . S
C476 C6 1.521 . S
C493 C20 1.540 . S
C512 C62 1.511 . S
C529 C76 1.531 . S
C548 C34 1.556 . S
C565 C48 1.532 . S
C584 C90 1.552 . S
C601 C118 1.538 . S
C620 C216 1.553 . S
C637 C132 1.539 . S
C656 C174 1.539 . S
C673 C146 1.530 . S
C692 C188 1.513 . S
C709 C160 1.540 . S
C728 C202 1.556 . S
C745 C230 1.540 . S
C764 C328 1.508 . S
C781 C244 1.530 . S
C800 C286 1.552 . S
C817 C300 1.538 . S
C836 C258 1.528 . S
C853 C314 1.539 . S
C872 C272 1.507 . S
C889 C342 1.531 . S
C908 C440 1.507 . S
C925 C398 1.535 . S
C944 C356 1.523 . S
C961 C412 1.534 . S
C980 C370 1.540 . S
C997 C384 1.540 . S
C1016 C426 1.550 . S
C1033 C8 0.773 . S
C1052 C92 0.767 . S
C1069 C22 0.784 . S
C1088 C106 0.820 . S
C1105 C64 0.780 . S
C1124 C36 0.742 . S
C1141 C50 0.789 . S
C1160 C78 0.789 . S
C1177 C120 0.787 . S
C1196 C204 0.819 . S
C1213 C134 0.775 . S
C1232 C218 0.784 . S
C1249 C176 0.776 . S
C1268 C148 0.792 . S
C1285 C190 0.774 . S
C1304 C162 0.744 . S
C1321 C232 0.788 . S
C1340 C316 0.810 . S
C1357 C330 0.774 . S
C1376 C246 0.750 . S
C1393 C288 0.789 . S
C1412 C260 0.798 . S
C1429 C274 0.787 . S
C1448 C302 0.815 . S
C1465 C344 0.774 . S
C1484 C428 0.743 . S
C1501 C358 0.781 . S
C1520 C442 0.748 . S
C1537 C400 0.787 . S
C1556 C372 0.775 . S
C1573 C414 0.789 . S
C1592 C386 0.808 . S
C1609 C9 1.588 . S
C1628 C429 1.576 . S
C1645 C23 1.581 . S
C1664 C219 1.591 . S
C1681 C37 1.582 . S
C1700 C401 1.577 . S
C1717 C51 1.588 . S
C1736 C191 1.573 . S
C1753 C65 1.588 . S
C1772 C373 1.575 . S
C1789 C79 1.588 . S
C1808 C163 1.574 . S
C1825 C93 1.587 . S
C1844 C345 1.582 . S
C1861 C135 1.588 . S
C1880 C107 1.567 . S
C1897 C317 1.586 . S
C1916 C121 1.588 . S
C1933 C149 1.581 . S
C1952 C289 1.589 . S
C1969 C261 1.587 . S
C1988 C177 1.565 . S
C2005 C233 1.585 . S
C2024 C205 1.566 . S
C2041 C247 1.587 . S
C2060 C443 1.584 . S
C2077 C275 1.581 . S
C2096 C415 1.589 . S
C2113 C303 1.587 . S
C2132 C387 1.566 . S
C2149 C359 1.588 . S
C2168 C331 1.569 . S
C2185 C7 1.578 . S
C2204 C91 1.583 . S
C2221 C21 1.573 . S
C2240 C105 1.553 . S
C2257 C63 1.573 1_556 S
C2276 C35 1.553 . S
C2293 C49 1.580 . S
C2312 C77 1.584 . S
C2329 C119 1.574 1_556 S
C2348 C203 1.592 . S
C2365 C133 1.580 . S
C2384 C217 1.585 . S
C2401 C175 1.582 . S
C2420 C147 1.571 . S
C2437 C161 1.581 . S
C2456 C189 1.556 . S
C2473 C315 1.575 1_556 S
C2492 C231 1.565 . S
C2509 C329 1.573 . S
C2528 C245 1.553 . S
C2545 C287 1.582 . S
C2564 C259 1.595 . S
C2581 C301 1.577 . S
C2600 C273 1.568 . S
C2617 C427 1.573 . S
C2636 C343 1.585 . S
C2653 C441 1.577 . S
C2672 C357 1.554 . S
C2689 C371 1.575 1_556 S
C2708 C399 1.560 . S
C2725 C413 1.574 . S
C2744 C385 1.566 . S
