# Generated by pormake.
# Topology wji, (4)-cn, num edge types: 1
# Building blocks:
#     Node 0, Type 0, BuildingBlock: AZAVOO_clean_sbu_0, # of connection points: 4
#     Node 1, Type 0, BuildingBlock: AZAVOO_clean_sbu_0, # of connection points: 4
#     Node 2, Type 0, BuildingBlock: AZAVOO_clean_sbu_0, # of connection points: 4
#     Node 3, Type 0, BuildingBlock: AZAVOO_clean_sbu_0, # of connection points: 4
#     Node 4, Type 0, BuildingBlock: AZAVOO_clean_sbu_0, # of connection points: 4
#     Node 5, Type 0, BuildingBlock: AZAVOO_clean_sbu_0, # of connection points: 4
#     Node 6, Type 0, BuildingBlock: AZAVOO_clean_sbu_0, # of connection points: 4
#     Node 7, Type 0, BuildingBlock: AZAVOO_clean_sbu_0, # of connection points: 4
#     Node 8, Type 0, BuildingBlock: AZAVOO_clean_sbu_0, # of connection points: 4
#     Node 9, Type 0, BuildingBlock: AZAVOO_clean_sbu_0, # of connection points: 4
#     Node 10, Type 0, BuildingBlock: AZAVOO_clean_sbu_0, # of connection points: 4
#     Node 11, Type 0, BuildingBlock: AZAVOO_clean_sbu_0, # of connection points: 4
#     Edge 12, Type (0, 0), BuildingBlock: EYOCIG_clean_linker_4, # of connection points: 2
#     Edge 13, Type (0, 0), BuildingBlock: EYOCIG_clean_linker_4, # of connection points: 2
#     Edge 14, Type (0, 0), BuildingBlock: EYOCIG_clean_linker_4, # of connection points: 2
#     Edge 15, Type (0, 0), BuildingBlock: EYOCIG_clean_linker_4, # of connection points: 2
#     Edge 16, Type (0, 0), BuildingBlock: EYOCIG_clean_linker_4, # of connection points: 2
#     Edge 17, Type (0, 0), BuildingBlock: EYOCIG_clean_linker_4, # of connection points: 2
#     Edge 18, Type (0, 0), BuildingBlock: EYOCIG_clean_linker_4, # of connection points: 2
#     Edge 19, Type (0, 0), BuildingBlock: EYOCIG_clean_linker_4, # of connection points: 2
#     Edge 20, Type (0, 0), BuildingBlock: EYOCIG_clean_linker_4, # of connection points: 2
#     Edge 21, Type (0, 0), BuildingBlock: EYOCIG_clean_linker_4, # of connection points: 2
#     Edge 22, Type (0, 0), BuildingBlock: EYOCIG_clean_linker_4, # of connection points: 2
#     Edge 23, Type (0, 0), BuildingBlock: EYOCIG_clean_linker_4, # of connection points: 2
#     Edge 24, Type (0, 0), BuildingBlock: EYOCIG_clean_linker_4, # of connection points: 2
#     Edge 25, Type (0, 0), BuildingBlock: EYOCIG_clean_linker_4, # of connection points: 2
#     Edge 26, Type (0, 0), BuildingBlock: EYOCIG_clean_linker_4, # of connection points: 2
#     Edge 27, Type (0, 0), BuildingBlock: EYOCIG_clean_linker_4, # of connection points: 2
#     Edge 28, Type (0, 0), BuildingBlock: EYOCIG_clean_linker_4, # of connection points: 2
#     Edge 29, Type (0, 0), BuildingBlock: EYOCIG_clean_linker_4, # of connection points: 2
#     Edge 30, Type (0, 0), BuildingBlock: EYOCIG_clean_linker_4, # of connection points: 2
#     Edge 31, Type (0, 0), BuildingBlock: EYOCIG_clean_linker_4, # of connection points: 2
#     Edge 32, Type (0, 0), BuildingBlock: EYOCIG_clean_linker_4, # of connection points: 2
#     Edge 33, Type (0, 0), BuildingBlock: EYOCIG_clean_linker_4, # of connection points: 2
#     Edge 34, Type (0, 0), BuildingBlock: EYOCIG_clean_linker_4, # of connection points: 2
#     Edge 35, Type (0, 0), BuildingBlock: EYOCIG_clean_linker_4, # of connection points: 2
# Relax obj value: 0.172
# Max RMSD: 0.105
# Mean RMSD: 0.105
data_MOF--net-wji--node1-AZAVOO_clean_sbu_0--edge1-EYOCIG_clean_linker_4
_symmetry_space_group_name_H-M    P1
_symmetry_Int_Tables_number       1
_symmetry_cell_setting            triclinic
loop_
_symmetry_equiv_pos_as_xyz
'x, y, z'
_cell_length_a     47.977047
_cell_length_b     47.956134
_cell_length_c     16.849498
_cell_angle_alpha  90.014094
_cell_angle_beta   90.03788
_cell_angle_gamma 120.00322
loop_
_atom_site_label
_atom_site_type_symbol
_atom_site_fract_x
_atom_site_fract_y
_atom_site_fract_z
_atom_type_partial_charge
Mg0 Mg 0.39126 0.30069 0.38378 0.0
O1 O 0.37064 0.31689 0.48511 0.0
O2 O 0.36747 0.35963 0.44424 0.0
Mg3 Mg 0.38565 0.37024 0.31579 0.0
C4 C 0.36368 0.33895 0.49698 0.0
C5 C 0.38762 0.2396 0.45557 0.0
O6 O 0.37313 0.22777 0.38759 0.0
O7 O 0.44139 0.3436 0.4085 0.0
O8 O 0.43642 0.38458 0.36075 0.0
O9 O 0.34164 0.26925 0.33422 0.0
O10 O 0.37412 0.32011 0.30028 0.0
C11 C 0.45299 0.37341 0.39248 0.0
C12 C 0.34654 0.2944 0.29455 0.0
O13 O 0.39859 0.26911 0.47153 0.0
Mg14 Mg 0.07444 0.39946 0.55034 0.0
O15 O 0.03749 0.37871 0.65132 0.0
O16 O -0.00848 0.3752 0.60975 0.0
Mg17 Mg -0.00083 0.39329 0.48117 0.0
C18 C 0.00841 0.37158 0.66281 0.0
C19 C 0.13278 0.39735 0.62206 0.0
O20 O 0.13101 0.38381 0.55314 0.0
O21 O 0.0813 0.44949 0.57446 0.0
O22 O 0.03533 0.44421 0.52602 0.0
O23 O 0.05661 0.34984 0.50108 0.0
O24 O 0.038 0.38205 0.46646 0.0
C25 C 0.06301 0.46094 0.55798 0.0
C26 C 0.03632 0.35455 0.46102 0.0
O27 O 0.11334 0.40715 0.63867 0.0
Mg28 Mg 0.65898 0.08261 0.71729 0.0
O29 O 0.64279 0.04561 0.81817 0.0
O30 O 0.60023 -0.00032 0.77667 0.0
Mg31 Mg 0.5897 0.00743 0.64823 0.0
C32 C 0.62081 0.01653 0.82966 0.0
C33 C 0.71934 0.14127 0.78898 0.0
O34 O 0.73111 0.13992 0.71974 0.0
O35 O 0.61596 0.0896 0.74168 0.0
O36 O 0.57512 0.04367 0.6934 0.0
O37 O 0.69062 0.06467 0.66785 0.0
O38 O 0.63979 0.04618 0.6334 0.0
C39 C 0.58619 0.07137 0.72539 0.0
C40 C 0.66555 0.04441 0.62789 0.0
O41 O 0.69022 0.12145 0.8057 0.0
Mg42 Mg 0.56105 0.66766 0.88314 0.0
O43 O 0.58168 0.65125 0.98407 0.0
O44 O 0.58495 0.60866 0.94232 0.0
Mg45 Mg 0.56683 0.59837 0.81369 0.0
C46 C 0.58868 0.62918 0.99547 0.0
C47 C 0.56324 0.72817 0.95443 0.0
O48 O 0.57643 0.73973 0.88513 0.0
O49 O 0.51096 0.62463 0.90715 0.0
O50 O 0.516 0.58381 0.85855 0.0
O51 O 0.61066 0.69932 0.83405 0.0
O52 O 0.57828 0.64852 0.79922 0.0
C53 C 0.49939 0.59487 0.89057 0.0
C54 C 0.60583 0.67429 0.79389 0.0
O55 O 0.55361 0.69899 0.97148 0.0
Mg56 Mg 0.87716 0.56864 0.05052 0.0
O57 O 0.91415 0.58952 0.1515 0.0
O58 O 0.96013 0.59305 0.11013 0.0
Mg59 Mg 0.95242 0.5748 0.98166 0.0
C60 C 0.94325 0.59671 0.16308 0.0
C61 C 0.81902 0.57096 0.12266 0.0
O62 O 0.82081 0.58467 0.05401 0.0
O63 O 0.87035 0.51867 0.07495 0.0
O64 O 0.91633 0.52393 0.02675 0.0
O65 O 0.89494 0.61821 1.00111 0.0
O66 O 0.91355 0.58597 0.9667 0.0
C67 C 0.88867 0.50723 0.05869 0.0
C68 C 0.91522 0.61346 0.96117 0.0
O69 O 0.83836 0.561 0.13887 0.0
Mg70 Mg 0.29226 0.88537 0.21655 0.0
O71 O 0.30878 0.92255 0.3172 0.0
O72 O 0.35123 0.96841 0.27515 0.0
Mg73 Mg 0.36136 0.96046 0.14653 0.0
C74 C 0.33081 0.95165 0.32842 0.0
C75 C 0.23156 0.82793 0.28971 0.0
O76 O 0.21955 0.83031 0.22175 0.0
O77 O 0.33539 0.87843 0.24048 0.0
O78 O 0.37606 0.92429 0.19154 0.0
O79 O 0.26052 0.90326 0.16732 0.0
O80 O 0.31125 0.92165 0.13238 0.0
C81 C 0.3651 0.89666 0.22372 0.0
C82 C 0.28548 0.92341 0.12702 0.0
O83 O 0.26107 0.84666 0.30525 0.0
Mg84 Mg 0.6594 0.56909 0.47055 0.0
O85 O 0.64308 0.58962 0.36921 0.0
O86 O 0.60048 0.59293 0.41037 0.0
Mg87 Mg 0.5901 0.57496 0.53905 0.0
C88 C 0.62103 0.59661 0.35746 0.0
C89 C 0.71971 0.57055 0.40038 0.0
O90 O 0.73112 0.58322 0.47027 0.0
O91 O 0.61641 0.51894 0.44659 0.0
O92 O 0.57558 0.52404 0.49466 0.0
O93 O 0.69103 0.61878 0.51952 0.0
O94 O 0.64023 0.58644 0.55407 0.0
C95 C 0.58666 0.50738 0.46297 0.0
C96 C 0.66599 0.614 0.55944 0.0
O97 O 0.69073 0.56151 0.38264 0.0
Mg98 Mg 0.0741 0.66759 0.63784 0.0
O99 O 0.03714 0.65135 0.53674 0.0
O100 O -0.00875 0.60871 0.57794 0.0
Mg101 Mg -0.00104 0.59817 0.70638 0.0
C102 C 0.00808 0.62932 0.52507 0.0
C103 C 0.1321 0.72841 0.56651 0.0
O104 O 0.13003 0.7401 0.63526 0.0
O105 O 0.08116 0.62457 0.61318 0.0
O106 O 0.03525 0.58368 0.66123 0.0
O107 O 0.05606 0.69914 0.68744 0.0
O108 O 0.03765 0.64829 0.72152 0.0
C109 C 0.06293 0.59478 0.62933 0.0
C110 C 0.03583 0.67403 0.72722 0.0
O111 O 0.11296 0.69908 0.54985 0.0
Mg112 Mg 0.39071 0.08231 0.80397 0.0
O113 O 0.37028 0.0455 0.70248 0.0
O114 O 0.36702 -0.00043 0.74353 0.0
Mg115 Mg 0.38497 0.00713 0.87228 0.0
C116 C 0.36334 0.01648 0.69063 0.0
C117 C 0.38754 0.14001 0.73229 0.0
O118 O 0.37329 0.13755 0.80047 0.0
O119 O 0.44088 0.08956 0.78012 0.0
O120 O 0.43583 0.0436 0.82798 0.0
O121 O 0.34102 0.06413 0.85269 0.0
O122 O 0.37341 0.04573 0.88737 0.0
C123 C 0.45245 0.07136 0.79641 0.0
C124 C 0.34583 0.04388 0.8926 0.0
O125 O 0.3982 0.12124 0.71615 0.0
Mg126 Mg 0.29283 0.39948 0.9703 0.0
O127 O 0.30915 0.37863 0.86973 0.0
O128 O 0.35174 0.37542 0.91164 0.0
Mg129 Mg 0.36216 0.39382 0.04 0.0
C130 C 0.33118 0.37159 0.8585 0.0
C131 C 0.23244 0.39771 0.89918 0.0
O132 O 0.221 0.38508 0.96902 0.0
O133 O 0.33583 0.44954 0.94567 0.0
O134 O 0.37667 0.44457 0.99442 0.0
O135 O 0.26124 0.34994 0.02001 0.0
O136 O 0.31204 0.3824 0.05449 0.0
C137 C 0.3656 0.46113 0.96213 0.0
C138 C 0.2863 0.35484 0.06011 0.0
O139 O 0.26145 0.40679 0.88174 0.0
Mg140 Mg 0.87764 0.30065 0.13728 0.0
O141 O 0.91457 0.31697 0.03624 0.0
O142 O 0.96051 0.35951 0.0778 0.0
Mg143 Mg 0.95285 0.36987 0.20646 0.0
C144 C 0.94363 0.33898 0.02472 0.0
C145 C 0.818 0.24078 0.06728 0.0
O146 O 0.81835 0.2296 0.13811 0.0
O147 O 0.87066 0.34374 0.11335 0.0
O148 O 0.91661 0.38452 0.16176 0.0
O149 O 0.89558 0.26894 0.18637 0.0
O150 O 0.91409 0.31976 0.22109 0.0
C151 C 0.88892 0.3735 0.12986 0.0
C152 C 0.91584 0.29397 0.22644 0.0
O153 O 0.83878 0.26942 0.04892 0.0
Mg154 Mg 0.56054 0.88553 0.30383 0.0
O155 O 0.58139 0.92249 0.20287 0.0
O156 O 0.58475 0.96844 0.24414 0.0
Mg157 Mg 0.56646 0.96077 0.37251 0.0
C158 C 0.58849 0.95157 0.19127 0.0
C159 C 0.56367 0.82783 0.23157 0.0
O160 O 0.57796 0.83021 0.29971 0.0
O161 O 0.51054 0.87859 0.279 0.0
O162 O 0.51566 0.92455 0.32716 0.0
O163 O 0.61007 0.90345 0.35364 0.0
O164 O 0.57774 0.92198 0.38767 0.0
C165 C 0.49903 0.89686 0.29515 0.0
C166 C 0.60525 0.92372 0.39347 0.0
O167 O 0.55305 0.84666 0.21567 0.0
C168 C 0.29231 0.31383 0.15132 0.0
C169 C 0.28644 0.33023 0.10803 0.0
C170 C 0.30553 0.30057 0.2037 0.0
C171 C 0.32193 0.29464 0.2468 0.0
C172 C -0.01064 0.31329 0.36992 0.0
C173 C 0.01162 0.3298 0.41318 0.0
C174 C 0.9629 0.29995 0.31744 0.0
C175 C 0.9406 0.29403 0.2742 0.0
C176 C 0.64631 0.97079 0.48462 0.0
C177 C 0.6299 0.94849 0.44138 0.0
C178 C 0.65955 -0.00272 0.537 0.0
C179 C 0.66544 0.0196 0.58016 0.0
C180 C 0.6601 0.65517 0.65031 0.0
C181 C 0.66594 0.63872 0.60715 0.0
C182 C 0.6469 0.6684 0.70278 0.0
C183 C 0.63049 0.67424 0.74606 0.0
C184 C -0.01128 0.66793 0.81806 0.0
C185 C 0.01103 0.67385 0.77495 0.0
C186 C 0.96223 0.65465 0.87034 0.0
C187 C 0.93995 0.63819 0.91347 0.0
C188 C 0.30465 -0.00324 0.98323 0.0
C189 C 0.32113 0.01906 0.94018 0.0
C190 C 0.29135 0.97033 0.03569 0.0
C191 C 0.28549 0.9481 0.07908 0.0
C192 C 0.5419 0.44746 0.43395 0.0
C193 C 0.5641 0.47431 0.44487 0.0
C194 C 0.51279 0.41823 0.42221 0.0
C195 C 0.48601 0.39595 0.41103 0.0
C196 C 0.07783 0.52074 0.58744 0.0
C197 C 0.07331 0.49395 0.57632 0.0
C198 C 0.07784 0.54991 0.59938 0.0
C199 C 0.07333 0.57218 0.61069 0.0
C200 C 0.51227 0.0864 0.7671 0.0
C201 C 0.48547 0.08183 0.77813 0.0
C202 C 0.5414 0.08636 0.7552 0.0
C203 C 0.56361 0.08178 0.74393 0.0
C204 C 0.43959 0.55002 0.92007 0.0
C205 C 0.46639 0.57226 0.90896 0.0
C206 C 0.41044 0.52089 0.93205 0.0
C207 C 0.38819 0.49411 0.94339 0.0
C208 C 0.87398 0.41838 0.10046 0.0
C209 C 0.87855 0.39613 0.11155 0.0
C210 C 0.87393 0.4475 0.08852 0.0
C211 C 0.8784 0.47427 0.07724 0.0
C212 C 0.41009 0.88189 0.25318 0.0
C213 C 0.38779 0.88637 0.24211 0.0
C214 C 0.43927 0.88195 0.26512 0.0
C215 C 0.46605 0.88649 0.27648 0.0
C216 C 0.33784 0.35247 0.71617 0.0
C217 C 0.3345 0.36121 0.78084 0.0
C218 C 0.34478 0.34548 0.63965 0.0
C219 C 0.35343 0.34216 0.57487 0.0
C220 C 0.96908 0.34567 0.88202 0.0
C221 C 0.95713 0.34231 0.94684 0.0
C222 C -0.01708 0.35264 0.80541 0.0
C223 C -0.00512 0.3613 0.74063 0.0
C224 C 0.60746 0.97708 0.0487 0.0
C225 C 0.59878 0.96508 0.11345 0.0
C226 C 0.61436 -0.00904 0.97215 0.0
C227 C 0.61761 0.00296 0.90742 0.0
C228 C 0.60751 0.6224 0.13809 0.0
C229 C 0.59889 0.62579 0.07329 0.0
C230 C 0.61442 0.61543 0.2147 0.0
C231 C 0.61775 0.60682 0.27955 0.0
C232 C -0.01742 0.62273 0.38239 0.0
C233 C -0.00544 0.62605 0.4472 0.0
C234 C 0.96874 0.61576 0.30574 0.0
C235 C 0.95678 0.60704 0.24092 0.0
C236 C 0.3377 0.97732 0.47101 0.0
C237 C 0.33428 0.96531 0.4062 0.0
C238 C 0.34463 -0.00886 0.5477 0.0
C239 C 0.35319 0.00303 0.61263 0.0
C240 C 0.39021 0.20146 0.56428 0.0
C241 C 0.38895 0.21874 0.51436 0.0
C242 C 0.3902 0.18077 0.62359 0.0
C243 C 0.3889 0.16221 0.6735 0.0
C244 C 0.19436 0.40039 0.79037 0.0
C245 C 0.21161 0.39909 0.84036 0.0
C246 C 0.17364 0.40032 0.731 0.0
C247 C 0.15503 0.3989 0.681 0.0
C248 C 0.77735 0.20279 0.95812 0.0
C249 C 0.79581 0.21995 1.00838 0.0
C250 C 0.7569 0.18213 0.89836 0.0
C251 C 0.73991 0.16355 0.84807 0.0
C252 C 0.56077 0.78703 0.1226 0.0
C253 C 0.56217 0.80561 0.17261 0.0
C254 C 0.56067 0.7663 0.06321 0.0
C255 C 0.56192 0.74903 0.01324 0.0
C256 C 0.75777 0.56788 0.29166 0.0
C257 C 0.74057 0.5692 0.34171 0.0
C258 C 0.77838 0.56797 0.23205 0.0
C259 C 0.79688 0.56941 0.18182 0.0
C260 C 0.17297 0.76654 0.45807 0.0
C261 C 0.15436 0.74925 0.50785 0.0
C262 C 0.19368 0.78726 0.39883 0.0
C263 C 0.2109 0.8058 0.34884 0.0
loop_
_geom_bond_atom_site_label_1
_geom_bond_atom_site_label_2
_geom_bond_distance
_geom_bond_site_symmetry_2
_ccdc_geom_bond_type
Mg0 O1 2.028 . S
Mg0 O7 1.986 . S
Mg0 O9 2.114 . S
Mg0 O10 2.251 . S
Mg0 O13 2.010 . S
O1 Mg0 2.028 . S
O1 C4 1.250 . S
O2 Mg3 2.028 . S
O2 C4 1.248 . S
Mg3 O2 2.028 . S
Mg3 O8 2.032 . S
Mg3 O10 2.079 . S
C4 O1 1.250 . S
C4 O2 1.248 . S
C5 O6 1.264 . S
C5 O13 1.249 . S
O6 C5 1.264 . S
O7 Mg0 1.986 . S
O7 C11 1.246 . S
O8 Mg3 2.032 . S
O8 C11 1.259 . S
O9 Mg0 2.114 . S
O9 C12 1.252 . S
O10 Mg0 2.251 . S
O10 Mg3 2.079 . S
O10 C12 1.273 . S
C11 O7 1.246 . S
C11 O8 1.259 . S
C12 O9 1.252 . S
C12 O10 1.273 . S
O13 Mg0 2.010 . S
O13 C5 1.249 . S
Mg14 O15 2.028 . S
Mg14 O21 1.986 . S
Mg14 O23 2.114 . S
Mg14 O24 2.251 . S
Mg14 O27 2.010 . S
O15 Mg14 2.028 . S
O15 C18 1.250 . S
O16 Mg17 2.028 . S
O16 C18 1.248 . S
Mg17 O16 2.028 . S
Mg17 O22 2.032 . S
Mg17 O24 2.079 . S
C18 O15 1.250 . S
C18 O16 1.248 . S
C19 O20 1.264 . S
C19 O27 1.249 . S
O20 C19 1.264 . S
O21 Mg14 1.986 . S
O21 C25 1.246 . S
O22 Mg17 2.032 . S
O22 C25 1.259 . S
O23 Mg14 2.114 . S
O23 C26 1.252 . S
O24 Mg14 2.251 . S
O24 Mg17 2.079 . S
O24 C26 1.273 . S
C25 O21 1.246 . S
C25 O22 1.259 . S
C26 O23 1.252 . S
C26 O24 1.273 . S
O27 Mg14 2.010 . S
O27 C19 1.249 . S
Mg28 O29 2.028 . S
Mg28 O35 1.986 . S
Mg28 O37 2.114 . S
Mg28 O38 2.251 . S
Mg28 O41 2.010 . S
O29 Mg28 2.028 . S
O29 C32 1.250 . S
O30 Mg31 2.028 . S
O30 C32 1.248 . S
Mg31 O30 2.028 . S
Mg31 O36 2.032 . S
Mg31 O38 2.079 . S
C32 O29 1.250 . S
C32 O30 1.248 . S
C33 O34 1.264 . S
C33 O41 1.249 . S
O34 C33 1.264 . S
O35 Mg28 1.986 . S
O35 C39 1.246 . S
O36 Mg31 2.032 . S
O36 C39 1.259 . S
O37 Mg28 2.114 . S
O37 C40 1.252 . S
O38 Mg28 2.251 . S
O38 Mg31 2.079 . S
O38 C40 1.273 . S
C39 O35 1.246 . S
C39 O36 1.259 . S
C40 O37 1.252 . S
C40 O38 1.273 . S
O41 Mg28 2.010 . S
O41 C33 1.249 . S
Mg42 O43 2.025 1_556 S
Mg42 O49 1.986 . S
Mg42 O51 2.114 . S
Mg42 O52 2.251 . S
Mg42 O55 2.010 . S
O43 Mg42 2.025 1_554 S
O43 C46 1.252 . S
O44 Mg45 2.028 . S
O44 C46 1.248 1_556 S
Mg45 O44 2.028 . S
Mg45 O50 2.032 . S
Mg45 O52 2.079 . S
C46 O43 1.252 . S
C46 O44 1.248 1_554 S
C47 O48 1.264 . S
C47 O55 1.249 . S
O48 C47 1.264 . S
O49 Mg42 1.986 . S
O49 C53 1.246 . S
O50 Mg45 2.032 . S
O50 C53 1.259 . S
O51 Mg42 2.114 . S
O51 C54 1.252 . S
O52 Mg42 2.251 . S
O52 Mg45 2.079 . S
O52 C54 1.273 . S
C53 O49 1.246 . S
C53 O50 1.259 . S
C54 O51 1.252 . S
C54 O52 1.273 . S
O55 Mg42 2.010 . S
O55 C47 1.249 . S
Mg56 O57 2.028 . S
Mg56 O63 1.986 . S
Mg56 O65 2.116 . S
Mg56 O66 2.249 1_554 S
Mg56 O69 2.010 . S
O57 Mg56 2.028 . S
O57 C60 1.250 . S
O58 Mg59 2.028 . S
O58 C60 1.248 . S
Mg59 O58 2.028 . S
Mg59 O64 2.032 . S
Mg59 O66 2.076 1_554 S
C60 O57 1.250 . S
C60 O58 1.248 . S
C61 O62 1.264 . S
C61 O69 1.249 . S
O62 C61 1.264 . S
O63 Mg56 1.986 . S
O63 C67 1.246 . S
O64 Mg59 2.032 . S
O64 C67 1.259 . S
O65 Mg56 2.116 . S
O65 C68 1.251 1_554 S
O66 Mg56 2.249 1_556 S
O66 Mg59 2.076 1_556 S
O66 C68 1.275 . S
C67 O63 1.246 . S
C67 O64 1.259 . S
C68 O65 1.251 1_556 S
C68 O66 1.275 . S
O69 Mg56 2.010 . S
O69 C61 1.249 . S
Mg70 O71 2.028 . S
Mg70 O77 1.986 . S
Mg70 O79 2.114 . S
Mg70 O80 2.251 . S
Mg70 O83 2.010 . S
O71 Mg70 2.028 . S
O71 C74 1.250 . S
O72 Mg73 2.028 . S
O72 C74 1.248 . S
Mg73 O72 2.028 . S
Mg73 O78 2.032 . S
Mg73 O80 2.079 . S
C74 O71 1.250 . S
C74 O72 1.248 . S
C75 O76 1.264 . S
C75 O83 1.249 . S
O76 C75 1.264 . S
O77 Mg70 1.986 . S
O77 C81 1.246 . S
O78 Mg73 2.032 . S
O78 C81 1.259 . S
O79 Mg70 2.114 . S
O79 C82 1.252 . S
O80 Mg70 2.251 . S
O80 Mg73 2.079 . S
O80 C82 1.273 . S
C81 O77 1.246 . S
C81 O78 1.259 . S
C82 O79 1.252 . S
C82 O80 1.273 . S
O83 Mg70 2.010 . S
O83 C75 1.249 . S
Mg84 O85 2.028 . S
Mg84 O91 1.986 . S
Mg84 O93 2.114 . S
Mg84 O94 2.251 . S
Mg84 O97 2.010 . S
O85 Mg84 2.028 . S
O85 C88 1.250 . S
O86 Mg87 2.028 . S
O86 C88 1.248 . S
Mg87 O86 2.028 . S
Mg87 O92 2.032 . S
Mg87 O94 2.079 . S
C88 O85 1.250 . S
C88 O86 1.248 . S
C89 O90 1.264 . S
C89 O97 1.249 . S
O90 C89 1.264 . S
O91 Mg84 1.986 . S
O91 C95 1.246 . S
O92 Mg87 2.032 . S
O92 C95 1.259 . S
O93 Mg84 2.114 . S
O93 C96 1.252 . S
O94 Mg84 2.251 . S
O94 Mg87 2.079 . S
O94 C96 1.273 . S
C95 O91 1.246 . S
C95 O92 1.259 . S
C96 O93 1.252 . S
C96 O94 1.273 . S
O97 Mg84 2.010 . S
O97 C89 1.249 . S
Mg98 O99 2.028 . S
Mg98 O105 1.986 . S
Mg98 O107 2.114 . S
Mg98 O108 2.251 . S
Mg98 O111 2.010 . S
O99 Mg98 2.028 . S
O99 C102 1.250 . S
O100 Mg101 2.028 . S
O100 C102 1.248 . S
Mg101 O100 2.028 . S
Mg101 O106 2.032 . S
Mg101 O108 2.079 . S
C102 O99 1.250 . S
C102 O100 1.248 . S
C103 O104 1.264 . S
C103 O111 1.249 . S
O104 C103 1.264 . S
O105 Mg98 1.986 . S
O105 C109 1.246 . S
O106 Mg101 2.032 . S
O106 C109 1.259 . S
O107 Mg98 2.114 . S
O107 C110 1.252 . S
O108 Mg98 2.251 . S
O108 Mg101 2.079 . S
O108 C110 1.273 . S
C109 O105 1.246 . S
C109 O106 1.259 . S
C110 O107 1.252 . S
C110 O108 1.273 . S
O111 Mg98 2.010 . S
O111 C103 1.249 . S
Mg112 O113 2.028 . S
Mg112 O119 1.986 . S
Mg112 O121 2.114 . S
Mg112 O122 2.251 . S
Mg112 O125 2.010 . S
O113 Mg112 2.028 . S
O113 C116 1.250 . S
O114 Mg115 2.028 . S
O114 C116 1.248 . S
Mg115 O114 2.028 . S
Mg115 O120 2.032 . S
Mg115 O122 2.079 . S
C116 O113 1.250 . S
C116 O114 1.248 . S
C117 O118 1.264 . S
C117 O125 1.249 . S
O118 C117 1.264 . S
O119 Mg112 1.986 . S
O119 C123 1.246 . S
O120 Mg115 2.032 . S
O120 C123 1.259 . S
O121 Mg112 2.114 . S
O121 C124 1.252 . S
O122 Mg112 2.251 . S
O122 Mg115 2.079 . S
O122 C124 1.273 . S
C123 O119 1.246 . S
C123 O120 1.259 . S
C124 O121 1.252 . S
C124 O122 1.273 . S
O125 Mg112 2.010 . S
O125 C117 1.249 . S
Mg126 O127 2.028 . S
Mg126 O133 1.986 . S
Mg126 O135 2.116 . S
Mg126 O136 2.249 1_556 S
Mg126 O139 2.010 . S
O127 Mg126 2.028 . S
O127 C130 1.250 . S
O128 Mg129 2.028 . S
O128 C130 1.248 . S
Mg129 O128 2.028 . S
Mg129 O134 2.032 . S
Mg129 O136 2.076 1_556 S
C130 O127 1.250 . S
C130 O128 1.248 . S
C131 O132 1.264 . S
C131 O139 1.249 . S
O132 C131 1.264 . S
O133 Mg126 1.986 . S
O133 C137 1.246 . S
O134 Mg129 2.032 . S
O134 C137 1.259 . S
O135 Mg126 2.116 . S
O135 C138 1.251 1_556 S
O136 Mg126 2.249 1_554 S
O136 Mg129 2.076 1_554 S
O136 C138 1.275 . S
C137 O133 1.246 . S
C137 O134 1.259 . S
C138 O135 1.251 1_554 S
C138 O136 1.275 . S
O139 Mg126 2.010 . S
O139 C131 1.249 . S
Mg140 O141 2.025 1_554 S
Mg140 O147 1.986 . S
Mg140 O149 2.114 . S
Mg140 O150 2.251 . S
Mg140 O153 2.010 . S
O141 Mg140 2.025 1_556 S
O141 C144 1.251 . S
O142 Mg143 2.028 . S
O142 C144 1.248 1_554 S
Mg143 O142 2.028 . S
Mg143 O148 2.032 . S
Mg143 O150 2.079 . S
C144 O141 1.251 . S
C144 O142 1.248 1_556 S
C145 O146 1.264 . S
C145 O153 1.249 . S
O146 C145 1.264 . S
O147 Mg140 1.986 . S
O147 C151 1.246 . S
O148 Mg143 2.032 . S
O148 C151 1.259 . S
O149 Mg140 2.114 . S
O149 C152 1.252 . S
O150 Mg140 2.251 . S
O150 Mg143 2.079 . S
O150 C152 1.273 . S
C151 O147 1.246 . S
C151 O148 1.259 . S
C152 O149 1.252 . S
C152 O150 1.273 . S
O153 Mg140 2.010 . S
O153 C145 1.249 . S
Mg154 O155 2.028 . S
Mg154 O161 1.986 . S
Mg154 O163 2.114 . S
Mg154 O164 2.251 . S
Mg154 O167 2.010 . S
O155 Mg154 2.028 . S
O155 C158 1.250 . S
O156 Mg157 2.028 . S
O156 C158 1.248 . S
Mg157 O156 2.028 . S
Mg157 O162 2.032 . S
Mg157 O164 2.079 . S
C158 O155 1.250 . S
C158 O156 1.248 . S
C159 O160 1.264 . S
C159 O167 1.249 . S
O160 C159 1.264 . S
O161 Mg154 1.986 . S
O161 C165 1.246 . S
O162 Mg157 2.032 . S
O162 C165 1.259 . S
O163 Mg154 2.114 . S
O163 C166 1.252 . S
O164 Mg154 2.251 . S
O164 Mg157 2.079 . S
O164 C166 1.273 . S
C165 O161 1.246 . S
C165 O162 1.259 . S
C166 O163 1.252 . S
C166 O164 1.273 . S
O167 Mg154 2.010 . S
O167 C159 1.249 . S
C168 C169 1.170 . S
C168 C170 1.380 . S
C169 C168 1.170 . S
C170 C168 1.380 . S
C170 C171 1.170 . S
C171 C170 1.170 . S
C172 C173 1.170 . S
C172 C174 1.380 1_455 S
C173 C172 1.170 . S
C174 C172 1.380 1_655 S
C174 C175 1.170 . S
C175 C174 1.170 . S
C176 C177 1.170 . S
C176 C178 1.380 1_565 S
C177 C176 1.170 . S
C178 C176 1.380 1_545 S
C178 C179 1.170 . S
C179 C178 1.170 . S
C180 C181 1.170 . S
C180 C182 1.380 . S
C181 C180 1.170 . S
C182 C180 1.380 . S
C182 C183 1.170 . S
C183 C182 1.170 . S
C184 C185 1.170 . S
C184 C186 1.380 1_455 S
C185 C184 1.170 . S
C186 C184 1.380 1_655 S
C186 C187 1.170 . S
C187 C186 1.170 . S
C188 C189 1.170 . S
C188 C190 1.380 1_546 S
C189 C188 1.170 . S
C190 C188 1.380 1_564 S
C190 C191 1.170 . S
C191 C190 1.170 . S
C192 C193 1.170 . S
C192 C194 1.380 . S
C193 C192 1.170 . S
C194 C192 1.380 . S
C194 C195 1.170 . S
C195 C194 1.170 . S
C196 C197 1.170 . S
C196 C198 1.380 . S
C197 C196 1.170 . S
C198 C196 1.380 . S
C198 C199 1.170 . S
C199 C198 1.170 . S
C200 C201 1.170 . S
C200 C202 1.380 . S
C201 C200 1.170 . S
C202 C200 1.380 . S
C202 C203 1.170 . S
C203 C202 1.170 . S
C204 C205 1.170 . S
C204 C206 1.380 . S
C205 C204 1.170 . S
C206 C204 1.380 . S
C206 C207 1.170 . S
C207 C206 1.170 . S
C208 C209 1.170 . S
C208 C210 1.380 . S
C209 C208 1.170 . S
C210 C208 1.380 . S
C210 C211 1.170 . S
C211 C210 1.170 . S
C212 C213 1.170 . S
C212 C214 1.380 . S
C213 C212 1.170 . S
C214 C212 1.380 . S
C214 C215 1.170 . S
C215 C214 1.170 . S
C216 C217 1.170 . S
C216 C218 1.380 . S
C217 C216 1.170 . S
C218 C216 1.380 . S
C218 C219 1.170 . S
C219 C218 1.170 . S
C220 C221 1.170 . S
C220 C222 1.380 1_655 S
C221 C220 1.170 . S
C222 C220 1.380 1_455 S
C222 C223 1.170 . S
C223 C222 1.170 . S
C224 C225 1.170 . S
C224 C226 1.380 1_564 S
C225 C224 1.170 . S
C226 C224 1.380 1_546 S
C226 C227 1.170 . S
C227 C226 1.170 . S
C228 C229 1.170 . S
C228 C230 1.380 . S
C229 C228 1.170 . S
C230 C228 1.380 . S
C230 C231 1.170 . S
C231 C230 1.170 . S
C232 C233 1.170 . S
C232 C234 1.380 1_455 S
C233 C232 1.170 . S
C234 C232 1.380 1_655 S
C234 C235 1.170 . S
C235 C234 1.170 . S
C236 C237 1.170 . S
C236 C238 1.380 1_565 S
C237 C236 1.170 . S
C238 C236 1.380 1_545 S
C238 C239 1.170 . S
C239 C238 1.170 . S
C240 C241 1.170 . S
C240 C242 1.380 . S
C241 C240 1.170 . S
C242 C240 1.380 . S
C242 C243 1.170 . S
C243 C242 1.170 . S
C244 C245 1.170 . S
C244 C246 1.380 . S
C245 C244 1.170 . S
C246 C244 1.380 . S
C246 C247 1.170 . S
C247 C246 1.170 . S
C248 C249 1.170 . S
C248 C250 1.380 . S
C249 C248 1.170 . S
C250 C248 1.380 . S
C250 C251 1.170 . S
C251 C250 1.170 . S
C252 C253 1.170 . S
C252 C254 1.380 . S
C253 C252 1.170 . S
C254 C252 1.380 . S
C254 C255 1.170 . S
C255 C254 1.170 . S
C256 C257 1.170 . S
C256 C258 1.380 . S
C257 C256 1.170 . S
C258 C256 1.380 . S
C258 C259 1.170 . S
C259 C258 1.170 . S
C260 C261 1.170 . S
C260 C262 1.380 . S
C261 C260 1.170 . S
C262 C260 1.380 . S
C262 C263 1.170 . S
C263 C262 1.170 . S
C169 C138 1.333 . S
C171 C12 1.338 . S
C173 C26 1.358 . S
C175 C152 1.335 . S
C177 C166 1.337 . S
C179 C40 1.334 . S
C181 C96 1.351 . S
C183 C54 1.354 . S
C185 C110 1.349 . S
C187 C68 1.356 . S
C189 C124 1.332 . S
C191 C82 1.357 . S
C193 C95 1.482 . S
C195 C11 1.482 . S
C197 C25 1.479 . S
C199 C109 1.484 . S
C201 C123 1.484 . S
C203 C39 1.479 . S
C205 C53 1.469 . S
C207 C137 1.482 . S
C209 C151 1.472 . S
C211 C67 1.483 . S
C213 C81 1.446 . S
C215 C165 1.454 . S
C217 C130 1.144 . S
C219 C4 1.160 . S
C221 C144 1.166 . S
C223 C18 1.178 . S
C225 C158 1.180 . S
C227 C32 1.175 . S
C229 C46 1.168 . S
C231 C88 1.179 . S
C233 C102 1.169 . S
C235 C60 1.179 . S
C237 C74 1.130 . S
C239 C116 1.135 . S
C241 C5 1.359 . S
C243 C117 1.357 . S
C245 C131 1.330 . S
C247 C19 1.343 . S
C249 C145 1.326 1_556 S
C251 C33 1.348 . S
C253 C159 1.376 . S
C255 C47 1.327 1_554 S
C257 C89 1.318 . S
C259 C61 1.362 . S
C261 C103 1.351 . S
C263 C75 1.364 . S
