# Generated by pormake.
# Topology vby, (6)-cn, num edge types: 1
# Building blocks:
#     Node 0, Type 0, BuildingBlock: CUKXOW_clean_sbu_0, # of connection points: 6
#     Node 1, Type 0, BuildingBlock: CUKXOW_clean_sbu_0, # of connection points: 6
#     Node 2, Type 0, BuildingBlock: CUKXOW_clean_sbu_0, # of connection points: 6
#     Node 3, Type 0, BuildingBlock: CUKXOW_clean_sbu_0, # of connection points: 6
#     Node 4, Type 0, BuildingBlock: CUKXOW_clean_sbu_0, # of connection points: 6
#     Node 5, Type 0, BuildingBlock: CUKXOW_clean_sbu_0, # of connection points: 6
#     Node 6, Type 0, BuildingBlock: CUKXOW_clean_sbu_0, # of connection points: 6
#     Node 7, Type 0, BuildingBlock: CUKXOW_clean_sbu_0, # of connection points: 6
#     Edge 8, Type (0, 0), BuildingBlock: MIFKUJ_clean_linker_0, # of connection points: 2
#     Edge 9, Type (0, 0), BuildingBlock: MIFKUJ_clean_linker_0, # of connection points: 2
#     Edge 10, Type (0, 0), BuildingBlock: MIFKUJ_clean_linker_0, # of connection points: 2
#     Edge 11, Type (0, 0), BuildingBlock: MIFKUJ_clean_linker_0, # of connection points: 2
#     Edge 12, Type (0, 0), BuildingBlock: MIFKUJ_clean_linker_0, # of connection points: 2
#     Edge 13, Type (0, 0), BuildingBlock: MIFKUJ_clean_linker_0, # of connection points: 2
#     Edge 14, Type (0, 0), BuildingBlock: MIFKUJ_clean_linker_0, # of connection points: 2
#     Edge 15, Type (0, 0), BuildingBlock: MIFKUJ_clean_linker_0, # of connection points: 2
#     Edge 16, Type (0, 0), BuildingBlock: MIFKUJ_clean_linker_0, # of connection points: 2
#     Edge 17, Type (0, 0), BuildingBlock: MIFKUJ_clean_linker_0, # of connection points: 2
#     Edge 18, Type (0, 0), BuildingBlock: MIFKUJ_clean_linker_0, # of connection points: 2
#     Edge 19, Type (0, 0), BuildingBlock: MIFKUJ_clean_linker_0, # of connection points: 2
#     Edge 20, Type (0, 0), BuildingBlock: MIFKUJ_clean_linker_0, # of connection points: 2
#     Edge 21, Type (0, 0), BuildingBlock: MIFKUJ_clean_linker_0, # of connection points: 2
#     Edge 22, Type (0, 0), BuildingBlock: MIFKUJ_clean_linker_0, # of connection points: 2
#     Edge 23, Type (0, 0), BuildingBlock: MIFKUJ_clean_linker_0, # of connection points: 2
#     Edge 24, Type (0, 0), BuildingBlock: MIFKUJ_clean_linker_0, # of connection points: 2
#     Edge 25, Type (0, 0), BuildingBlock: MIFKUJ_clean_linker_0, # of connection points: 2
#     Edge 26, Type (0, 0), BuildingBlock: MIFKUJ_clean_linker_0, # of connection points: 2
#     Edge 27, Type (0, 0), BuildingBlock: MIFKUJ_clean_linker_0, # of connection points: 2
#     Edge 28, Type (0, 0), BuildingBlock: MIFKUJ_clean_linker_0, # of connection points: 2
#     Edge 29, Type (0, 0), BuildingBlock: MIFKUJ_clean_linker_0, # of connection points: 2
#     Edge 30, Type (0, 0), BuildingBlock: MIFKUJ_clean_linker_0, # of connection points: 2
#     Edge 31, Type (0, 0), BuildingBlock: MIFKUJ_clean_linker_0, # of connection points: 2
# Relax obj value: 0.106
# Max RMSD: 0.176
# Mean RMSD: 0.176
data_MOF--net-vby--node1-CUKXOW_clean_sbu_0--edge1-MIFKUJ_clean_linker_0
_symmetry_space_group_name_H-M    P1
_symmetry_Int_Tables_number       1
_symmetry_cell_setting            triclinic
loop_
_symmetry_equiv_pos_as_xyz
'x, y, z'
_cell_length_a     22.666661
_cell_length_b     70.333986
_cell_length_c     38.905985
_cell_angle_alpha  105.40724
_cell_angle_beta   90.047366
_cell_angle_gamma 90.021534
loop_
_atom_site_label
_atom_site_type_symbol
_atom_site_fract_x
_atom_site_fract_y
_atom_site_fract_z
_atom_type_partial_charge
Tb0 Tb 0.01155 0.37958 0.01126 0.0
C1 C 0.07865 0.38797 0.08289 0.0
Tb2 Tb 0.14294 0.38563 0.01056 0.0
O3 O 0.0248 0.35293 0.02967 0.0
O4 O 0.08652 0.36094 0.99649 0.0
O5 O 0.0294 0.39154 0.06749 0.0
C6 C 0.26001 0.38299 1.00267 0.0
O7 O 0.12762 0.38214 0.06433 0.0
C8 C 0.08168 0.41852 0.03212 0.0
C9 C 0.07163 0.37848 0.93766 0.0
O10 O 0.22741 0.39716 0.99763 0.0
O11 O 0.22666 0.37017 0.01188 0.0
O12 O 0.13324 0.41561 0.04428 0.0
O13 O 0.0677 0.40338 0.00769 0.0
O14 O 0.12438 0.38109 0.95338 0.0
O15 O 0.02206 0.37772 0.95524 0.0
C16 C 0.89411 0.38093 0.00682 0.0
O17 O 0.92658 0.36552 0.99377 0.0
O18 O 0.92776 0.39566 0.02241 0.0
C19 C 0.07564 0.34877 0.01426 0.0
Tb20 Tb 0.87971 0.6461 0.02112 0.0
C21 C 0.93941 0.66023 0.09886 0.0
Tb22 Tb 0.00983 0.65512 0.02889 0.0
O23 O 0.89705 0.61538 0.99577 0.0
O24 O 0.95501 0.63139 0.03494 0.0
O25 O 0.88984 0.65707 0.07972 0.0
C26 C 0.12775 0.6537 0.02818 0.0
O27 O 0.99236 0.65865 0.08434 0.0
C28 C 0.93996 0.68575 0.0334 0.0
C29 C 0.95483 0.6412 0.95169 0.0
O30 O 0.09318 0.64119 0.03734 0.0
O31 O 0.09593 0.66696 0.01924 0.0
O32 O 0.98992 0.68684 0.05021 0.0
O33 O 0.93456 0.66861 0.0135 0.0
O34 O 1.00224 0.64156 0.97183 0.0
O35 O 0.90116 0.64507 0.9657 0.0
C36 C 0.76172 0.64748 0.02324 0.0
O37 O 0.79611 0.66184 0.02101 0.0
O38 O 0.79371 0.63237 0.0242 0.0
C39 C 0.94637 0.61486 0.0125 0.0
Tb40 Tb 0.99901 0.65813 0.52757 0.0
C41 C 0.06067 0.65336 0.45497 0.0
Tb42 Tb 0.13118 0.65126 0.52322 0.0
O43 O 0.01231 0.68726 0.51754 0.0
O44 O 0.0759 0.67558 0.54418 0.0
O45 O 0.01285 0.64893 0.47062 0.0
C46 C 0.24819 0.65426 0.52935 0.0
O47 O 0.11106 0.65822 0.47259 0.0
C48 C 0.06747 0.61903 0.49783 0.0
C49 C 0.06449 0.65191 0.59525 0.0
O50 O 0.21463 0.66544 0.51597 0.0
O51 O 0.21593 0.64139 0.53917 0.0
O52 O 0.11996 0.62185 0.48677 0.0
O53 O 0.05553 0.6335 0.52386 0.0
O54 O 0.1162 0.65366 0.58011 0.0
O55 O 0.01336 0.6518 0.57859 0.0
C56 C 0.88186 0.65759 0.53305 0.0
O57 O 0.91684 0.66983 0.55462 0.0
O58 O 0.91291 0.64556 0.50866 0.0
C59 C 0.06481 0.6897 0.53115 0.0
Tb60 Tb 0.87953 0.39416 0.51484 0.0
C61 C 0.952 0.38474 0.44191 0.0
Tb62 Tb 0.01015 0.38721 0.51637 0.0
O63 O 0.88912 0.42437 0.54674 0.0
O64 O 0.95595 0.41137 0.51174 0.0
O65 O 0.89939 0.38862 0.45752 0.0
C66 C 0.1278 0.3883 0.51263 0.0
O67 O 1.0009 0.38327 0.45964 0.0
C68 C 0.94269 0.35719 0.52047 0.0
C69 C 0.94398 0.39744 0.58791 0.0
O70 O 0.09362 0.40357 0.5223 0.0
O71 O 0.09585 0.37243 0.50505 0.0
O72 O 0.9933 0.3612 0.53638 0.0
O73 O 0.93394 0.36908 0.50187 0.0
O74 O 0.9933 0.40045 0.57213 0.0
O75 O 0.89473 0.39167 0.56947 0.0
C76 C 0.76242 0.39178 0.50705 0.0
O77 O 0.79477 0.38035 0.52055 0.0
O78 O 0.79608 0.40443 0.4976 0.0
C79 C 0.94138 0.42691 0.53517 0.0
Tb80 Tb 0.49363 0.879 0.01959 0.0
C81 C 0.54777 0.89149 0.0971 0.0
Tb82 Tb 0.623 0.88847 0.02815 0.0
O83 O 0.51572 0.84766 0.99613 0.0
O84 O 0.56942 0.86545 0.0347 0.0
O85 O 0.50021 0.89083 0.07703 0.0
C86 C 0.74086 0.886 0.02559 0.0
O87 O 0.60151 0.88806 0.08299 0.0
C88 C 0.55569 0.91966 0.03706 0.0
C89 C 0.56246 0.87812 0.95031 0.0
O90 O 0.71065 0.90214 0.03623 0.0
O91 O 0.70473 0.87121 0.01631 0.0
O92 O 0.60534 0.91918 0.0535 0.0
O93 O 0.54763 0.90314 0.01455 0.0
O94 O 0.61233 0.88081 0.96927 0.0
O95 O 0.50987 0.87862 0.96511 0.0
C96 C 0.37548 0.87951 0.02146 0.0
O97 O 0.40836 0.86418 0.01939 0.0
O98 O 0.40911 0.89458 0.02251 0.0
C99 C 0.56494 0.8486 0.01358 0.0
Tb100 Tb 0.38027 0.14636 0.02309 0.0
C101 C 0.44943 0.14839 0.09518 0.0
Tb102 Tb 0.51215 0.15211 0.02507 0.0
O103 O 0.3888 0.11687 0.98735 0.0
O104 O 0.45451 0.12797 0.02445 0.0
O105 O 0.39686 0.14875 0.07996 0.0
C106 C 0.62938 0.15163 0.03078 0.0
O107 O 0.49981 0.1489 0.07825 0.0
C108 C 0.44822 0.18371 0.02604 0.0
C109 C 0.44927 0.14562 0.95276 0.0
O110 O 0.59537 0.16618 0.04646 0.0
O111 O 0.59738 0.13726 0.01202 0.0
O112 O 0.49907 0.18005 0.01055 0.0
O113 O 0.43722 0.17054 0.04147 0.0
O114 O 0.49712 0.14139 0.9686 0.0
O115 O 0.39954 0.15136 0.97064 0.0
C116 C 0.26327 0.14975 0.02976 0.0
O117 O 0.29796 0.16249 0.02133 0.0
O118 O 0.29449 0.13523 0.03462 0.0
C119 C 0.4402 0.11336 0.99903 0.0
Tb120 Tb 0.51428 0.15858 0.53054 0.0
C121 C 0.57475 0.15183 0.4576 0.0
Tb122 Tb 0.65153 0.15332 0.52697 0.0
O123 O 0.52308 0.18667 0.51586 0.0
O124 O 0.5905 0.17675 0.54276 0.0
O125 O 0.52716 0.14799 0.47414 0.0
C126 C 0.76737 0.15959 0.52493 0.0
O127 O 0.62626 0.15688 0.47411 0.0
C128 C 0.5995 0.11881 0.51889 0.0
C129 C 0.5849 0.15744 0.60036 0.0
O130 O 0.73656 0.14808 0.49977 0.0
O131 O 0.73285 0.16781 0.55129 0.0
O132 O 0.65621 0.12128 0.51895 0.0
O133 O 0.57628 0.13556 0.52326 0.0
O134 O 0.63707 0.15702 0.58427 0.0
O135 O 0.53342 0.15668 0.58386 0.0
C136 C 0.39825 0.15588 0.53774 0.0
O137 O 0.43079 0.17055 0.55488 0.0
O138 O 0.4311 0.14268 0.51663 0.0
C139 C 0.5768 0.18985 0.52763 0.0
Tb140 Tb 0.36102 0.89237 0.52997 0.0
C141 C 0.43213 0.89069 0.45915 0.0
Tb142 Tb 0.49792 0.88866 0.53003 0.0
O143 O 0.35275 0.92432 0.53795 0.0
O144 O 0.43436 0.9112 0.53578 0.0
O145 O 0.37932 0.88901 0.4732 0.0
C146 C 0.61467 0.89001 0.52401 0.0
O147 O 0.48201 0.89261 0.4776 0.0
C148 C 0.43703 0.85666 0.5313 0.0
C149 C 0.43326 0.89615 0.6015 0.0
O150 O 0.58048 0.87659 0.50453 0.0
O151 O 0.58304 0.90284 0.54675 0.0
O152 O 0.48908 0.86067 0.54518 0.0
O153 O 0.42403 0.8695 0.51549 0.0
O154 O 0.48076 0.90079 0.58581 0.0
O155 O 0.38456 0.88912 0.58329 0.0
C156 C 0.24579 0.88469 0.53021 0.0
O157 O 0.27571 0.89531 0.55683 0.0
O158 O 0.28086 0.87818 0.50329 0.0
C159 C 0.40914 0.92758 0.53934 0.0
H160 H 0.33422 0.41283 0.99964 0.0
H161 H 0.44196 0.41238 0.99907 0.0
H162 H 0.43995 0.35098 0.99905 0.0
H163 H 0.33189 0.35174 1.00149 0.0
H164 H 0.51938 0.36829 0.04244 0.0
H165 H 0.47401 0.368 0.92238 0.0
H166 H 0.42732 0.37927 0.87401 0.0
H167 H 0.5149 0.4352 0.91004 0.0
H168 H 0.56153 0.42436 0.95894 0.0
H169 H 0.81972 0.34958 0.98787 0.0
H170 H 0.71164 0.35011 0.98617 0.0
H171 H 0.71409 0.41369 0.01897 0.0
H172 H 0.82241 0.41324 0.02147 0.0
H173 H 0.6363 0.39509 0.95817 0.0
H174 H 0.6812 0.39374 0.07892 0.0
H175 H 0.72963 0.38052 0.12445 0.0
H176 H 0.64364 0.32475 0.08237 0.0
H177 H 0.59539 0.33756 0.03622 0.0
C178 C 0.35685 0.39922 0.99932 0.0
C179 C 0.32492 0.38229 1.00046 0.0
C180 C 0.41848 0.39893 0.99877 0.0
C181 C 0.44941 0.38154 0.99834 0.0
C182 C 0.41728 0.36457 0.9993 0.0
C183 C 0.35558 0.36498 1.00055 0.0
C184 C 0.51514 0.38125 0.99808 0.0
C185 C 0.54473 0.37388 0.02359 0.0
C186 C 0.54869 0.38886 0.97396 0.0
C187 C 0.52082 0.39542 0.94453 0.0
C188 C 0.48298 0.38275 0.92015 0.0
C189 C 0.45658 0.38906 0.89261 0.0
C190 C 0.46802 0.40796 0.88901 0.0
C191 C 0.50602 0.42057 0.91289 0.0
C192 C 0.53249 0.41435 0.9405 0.0
C193 C 0.79718 0.36367 0.99467 0.0
C194 C 0.82919 0.38138 0.00493 0.0
C195 C 0.73556 0.36394 0.99373 0.0
C196 C 0.70505 0.38193 1.00256 0.0
C197 C 0.73697 0.39967 0.01207 0.0
C198 C 0.79865 0.39939 0.0136 0.0
C199 C 0.63973 0.38215 1.00236 0.0
C200 C 0.6105 0.38949 0.97683 0.0
C201 C 0.60651 0.37422 0.026 0.0
C202 C 0.63518 0.36654 0.05388 0.0
C203 C 0.67304 0.3786 0.07917 0.0
C204 C 0.70038 0.37119 0.10513 0.0
C205 C 0.68985 0.35179 0.10624 0.0
C206 C 0.65183 0.33977 0.08145 0.0
C207 C 0.62444 0.3471 0.0554 0.0
H208 H 0.71105 0.34608 0.12637 0.0
H209 H 0.44754 0.41281 0.86767 0.0
H210 H 0.19823 0.62694 0.04765 0.0
H211 H 0.30626 0.62599 0.04789 0.0
H212 H 0.31169 0.67835 0.01005 0.0
H213 H 0.20368 0.67915 0.00923 0.0
H214 H 0.38762 0.6515 0.97405 0.0
H215 H 0.34101 0.67983 0.09751 0.0
H216 H 0.2938 0.68172 0.15541 0.0
H217 H 0.37935 0.62796 0.15977 0.0
H218 H 0.42637 0.62557 0.10161 0.0
H219 H 0.69001 0.6763 0.01184 0.0
H220 H 0.5818 0.67713 0.01322 0.0
H221 H 0.57911 0.62128 0.03949 0.0
H222 H 0.68724 0.62027 0.03771 0.0
H223 H 0.50257 0.64963 0.0817 0.0
H224 H 0.5472 0.62083 0.95859 0.0
H225 H 0.59571 0.61866 0.90098 0.0
H226 H 0.51424 0.67304 0.89637 0.0
H227 H 0.46588 0.67568 0.95426 0.0
C228 C 0.22256 0.63823 0.03939 0.0
C229 C 0.19277 0.65312 0.02843 0.0
C230 C 0.28424 0.63774 0.03972 0.0
C231 C 0.31714 0.65223 0.02936 0.0
C232 C 0.28726 0.66704 0.01819 0.0
C233 C 0.22561 0.66751 0.01781 0.0
C234 C 0.38267 0.65177 0.0295 0.0
C235 C 0.4127 0.65138 0.99776 0.0
C236 C 0.41547 0.65109 0.06017 0.0
C237 C 0.38679 0.65243 0.09502 0.0
C238 C 0.34933 0.66831 0.11065 0.0
C239 C 0.32271 0.66949 0.14356 0.0
C240 C 0.33358 0.65496 0.16124 0.0
C241 C 0.37099 0.6392 0.14603 0.0
C242 C 0.39765 0.63793 0.11311 0.0
C243 C 0.66624 0.66422 0.0179 0.0
C244 C 0.69675 0.64819 0.02454 0.0
C245 C 0.60457 0.66469 0.01863 0.0
C246 C 0.57254 0.64921 0.02629 0.0
C247 C 0.60305 0.63336 0.03354 0.0
C248 C 0.66469 0.63277 0.03239 0.0
C249 C 0.50714 0.64948 0.02639 0.0
C250 C 0.47728 0.6498 0.05809 0.0
C251 C 0.47443 0.65007 0.99573 0.0
C252 C 0.50344 0.64856 0.96094 0.0
C253 C 0.54007 0.63242 0.94545 0.0
C254 C 0.56744 0.63109 0.91272 0.0
C255 C 0.5582 0.64573 0.89507 0.0
C256 C 0.52143 0.66172 0.9101 0.0
C257 C 0.49399 0.66314 0.94286 0.0
H258 H 0.57941 0.64467 0.86972 0.0
H259 H 0.31312 0.65592 0.18676 0.0
H260 H 0.81255 0.67949 0.58622 0.0
H261 H 0.70449 0.67966 0.58925 0.0
H262 H 0.69728 0.637 0.4865 0.0
H263 H 0.80505 0.63633 0.484 0.0
H264 H 0.62107 0.68961 0.55106 0.0
H265 H 0.58257 0.60656 0.48143 0.0
H266 H 0.6325 0.57467 0.47532 0.0
H267 H 0.72362 0.59853 0.57421 0.0
H268 H 0.67364 0.63046 0.58116 0.0
H269 H 0.32242 0.67454 0.49691 0.0
H270 H 0.43021 0.67585 0.5005 0.0
H271 H 0.42679 0.63935 0.57393 0.0
H272 H 0.31931 0.63717 0.56877 0.0
H273 H 0.50882 0.627 0.53003 0.0
H274 H 0.45452 0.69121 0.60005 0.0
H275 H 0.40338 0.72328 0.61287 0.0
H276 H 0.4967 0.73787 0.52731 0.0
H277 H 0.54783 0.70577 0.51365 0.0
C278 C 0.78775 0.67009 0.56442 0.0
C279 C 0.81694 0.65777 0.53503 0.0
C280 C 0.72609 0.67027 0.56608 0.0
C281 C 0.69268 0.65817 0.53832 0.0
C282 C 0.72202 0.64616 0.50861 0.0
C283 C 0.78359 0.64582 0.50713 0.0
C284 C 0.62721 0.65801 0.54038 0.0
C285 C 0.59648 0.67594 0.54657 0.0
C286 C 0.59506 0.64021 0.53533 0.0
C287 C 0.62474 0.62096 0.53162 0.0
C288 C 0.61306 0.60497 0.50195 0.0
C289 C 0.64141 0.58689 0.49832 0.0
C290 C 0.68134 0.58459 0.52431 0.0
C291 C 0.69284 0.60035 0.55404 0.0
C292 C 0.66456 0.61845 0.55781 0.0
C293 C 0.34485 0.66685 0.51383 0.0
C294 C 0.31283 0.65574 0.53255 0.0
C295 C 0.4064 0.66771 0.5161 0.0
C296 C 0.43683 0.65794 0.53794 0.0
C297 C 0.40451 0.64699 0.55686 0.0
C298 C 0.34311 0.64579 0.55401 0.0
C299 C 0.50237 0.6586 0.54023 0.0
C300 C 0.53323 0.64072 0.53474 0.0
C301 C 0.53451 0.67651 0.54708 0.0
C302 C 0.50468 0.696 0.55565 0.0
C303 C 0.46393 0.70122 0.58385 0.0
C304 C 0.43495 0.7194 0.59127 0.0
C305 C 0.44667 0.73258 0.57086 0.0
C306 C 0.48762 0.72764 0.54308 0.0
C307 C 0.51668 0.70946 0.53552 0.0
H308 H 0.42409 0.74664 0.5766 0.0
H309 H 0.70329 0.57059 0.52143 0.0
H310 H 0.68889 0.36631 0.52727 0.0
H311 H 0.5807 0.36649 0.52692 0.0
H312 H 0.58145 0.41606 0.48159 0.0
H313 H 0.68979 0.41635 0.48277 0.0
H314 H 0.50218 0.42039 0.53738 0.0
H315 H 0.54998 0.36936 0.42903 0.0
H316 H 0.60268 0.33914 0.39712 0.0
H317 H 0.52111 0.30718 0.46435 0.0
H318 H 0.46816 0.33724 0.49674 0.0
H319 H 0.19642 0.41774 0.5012 0.0
H320 H 0.30408 0.4184 0.49729 0.0
H321 H 0.31257 0.36126 0.51877 0.0
H322 H 0.20474 0.36001 0.51978 0.0
H323 H 0.38916 0.36106 0.47365 0.0
H324 H 0.34483 0.40836 0.58339 0.0
H325 H 0.297 0.43739 0.62339 0.0
H326 H 0.37536 0.47484 0.56499 0.0
H327 H 0.42309 0.44599 0.52435 0.0
C328 C 0.66591 0.3772 0.51719 0.0
C329 C 0.69748 0.39129 0.50503 0.0
C330 C 0.60431 0.37721 0.51683 0.0
C331 C 0.57314 0.39106 0.50382 0.0
C332 C 0.60465 0.40519 0.49165 0.0
C333 C 0.66641 0.40528 0.49218 0.0
C334 C 0.50764 0.39084 0.50336 0.0
C335 C 0.47725 0.40757 0.52297 0.0
C336 C 0.47539 0.3738 0.48583 0.0
C337 C 0.50521 0.35554 0.46531 0.0
C338 C 0.54326 0.35588 0.43695 0.0
C339 C 0.57318 0.33878 0.4188 0.0
C340 C 0.56525 0.32125 0.4287 0.0
C341 C 0.5271 0.32075 0.45664 0.0
C342 C 0.49697 0.33779 0.47482 0.0
C343 C 0.2215 0.40534 0.505 0.0
C344 C 0.19263 0.38885 0.51089 0.0
C345 C 0.28308 0.40577 0.50307 0.0
C346 C 0.31706 0.39008 0.50855 0.0
C347 C 0.28778 0.37357 0.5144 0.0
C348 C 0.22615 0.37287 0.51513 0.0
C349 C 0.38288 0.3907 0.50782 0.0
C350 C 0.41358 0.37401 0.48799 0.0
C351 C 0.41551 0.40759 0.52616 0.0
C352 C 0.38703 0.42499 0.55061 0.0
C353 C 0.35153 0.42277 0.57893 0.0
C354 C 0.32449 0.4392 0.60174 0.0
C355 C 0.333 0.45794 0.59667 0.0
C356 C 0.36873 0.46031 0.56885 0.0
C357 C 0.39584 0.44393 0.54594 0.0
H358 H 0.31202 0.47064 0.61436 0.0
H359 H 0.58864 0.30805 0.41471 0.0
H360 H 0.80886 0.85279 0.01004 0.0
H361 H 0.91699 0.85091 0.00879 0.0
H362 H 0.92705 0.91444 0.03728 0.0
H363 H 0.81915 0.91637 0.03856 0.0
H364 H 1.00263 0.89695 0.98228 0.0
H365 H 0.95066 0.8901 0.09863 0.0
H366 H 0.89869 0.87491 0.14029 0.0
H367 H 0.98363 0.8196 0.09308 0.0
H368 H 0.03547 0.8344 0.05069 0.0
H369 H 0.30304 0.91132 0.03016 0.0
H370 H 0.19507 0.91165 0.0307 0.0
H371 H 0.1932 0.84847 0.01388 0.0
H372 H 0.30132 0.8482 0.01431 0.0
H373 H 0.11288 0.86461 0.06148 0.0
H374 H 0.16345 0.86977 0.9454 0.0
H375 H 0.21455 0.88321 0.90119 0.0
H376 H 0.13218 0.93946 0.94448 0.0
H377 H 0.08101 0.92637 0.98932 0.0
C378 C 0.83425 0.86633 0.01598 0.0
C379 C 0.80583 0.88473 0.02445 0.0
C380 C 0.89591 0.86524 0.01536 0.0
C381 C 0.93005 0.88255 0.02317 0.0
C382 C 0.90157 0.90092 0.03117 0.0
C383 C 0.84 0.902 0.03201 0.0
C384 C 0.99549 0.88159 0.02317 0.0
C385 C 0.0268 0.89009 0.9999 0.0
C386 C 0.02689 0.87211 0.04538 0.0
C387 C 0.99636 0.86329 0.07118 0.0
C388 C 0.95788 0.87466 0.0969 0.0
C389 C 0.92849 0.86612 0.12067 0.0
C390 C 0.93765 0.84628 0.1192 0.0
C391 C 0.97643 0.83495 0.09407 0.0
C392 C 1.00583 0.8434 0.07018 0.0
C393 C 0.27952 0.89752 0.02663 0.0
C394 C 0.31038 0.87973 0.02205 0.0
C395 C 0.21784 0.8977 0.02678 0.0
C396 C 0.18586 0.88003 0.0218 0.0
C397 C 0.21681 0.86227 0.01772 0.0
C398 C 0.27854 0.86212 0.01784 0.0
C399 C 0.12022 0.88011 0.02075 0.0
C400 C 0.08881 0.87144 0.04379 0.0
C401 C 0.08863 0.88922 0.998 0.0
C402 C 0.11883 0.89714 0.97092 0.0
C403 C 0.15653 0.88505 0.94565 0.0
C404 C 0.18548 0.8926 0.92045 0.0
C405 C 0.17679 0.91221 0.92006 0.0
C406 C 0.13894 0.92428 0.94484 0.0
C407 C 0.10987 0.91679 0.97013 0.0
H408 H 0.19926 0.91804 0.90052 0.0
H409 H 0.91485 0.8397 0.13762 0.0
H410 H 0.19357 0.18148 0.03026 0.0
H411 H 0.08517 0.18281 0.03186 0.0
H412 H 0.07907 0.12181 0.03375 0.0
H413 H 0.18707 0.12051 0.03296 0.0
H414 H 1.00367 0.13298 0.98072 0.0
H415 H 0.05331 0.15282 0.10688 0.0
H416 H 0.10391 0.17379 0.15958 0.0
H417 H 0.01771 0.22502 0.14314 0.0
H418 H 0.9672 0.20437 0.09003 0.0
H419 H 0.70365 0.12012 0.0145 0.0
H420 H 0.81155 0.12062 0.016 0.0
H421 H 0.80891 0.18428 0.05013 0.0
H422 H 0.70099 0.18367 0.0508 0.0
H423 H 0.89065 0.1731 0.08379 0.0
H424 H 0.84039 0.15619 0.96045 0.0
H425 H 0.79156 0.13775 0.90492 0.0
H426 H 0.87993 0.08474 0.91096 0.0
H427 H 0.92874 0.10282 0.9668 0.0
C428 C 0.16896 0.16842 0.03121 0.0
C429 C 0.19842 0.1509 0.03156 0.0
C430 C 0.10726 0.1692 0.03214 0.0
C431 C 0.07435 0.1524 0.03292 0.0
C432 C 0.1038 0.1349 0.03311 0.0
C433 C 0.16536 0.13421 0.03279 0.0
C434 C 0.0091 0.15291 0.03318 0.0
C435 C 0.97873 0.14157 0.00334 0.0
C436 C 0.97702 0.16471 0.06218 0.0
C437 C 0.00697 0.17708 0.09428 0.0
C438 C 0.04554 0.16857 0.11433 0.0
C439 C 0.07412 0.1804 0.14431 0.0
C440 C 0.06416 0.20073 0.15464 0.0
C441 C 0.02545 0.20927 0.13508 0.0
C442 C 0.9968 0.19752 0.10506 0.0
C443 C 0.72628 0.13419 0.02247 0.0
C444 C 0.69428 0.15186 0.03238 0.0
C445 C 0.78794 0.13449 0.02305 0.0
C446 C 0.81872 0.15252 0.03234 0.0
C447 C 0.78645 0.17018 0.04277 0.0
C448 C 0.72479 0.16984 0.04306 0.0
C449 C 0.8844 0.15297 0.03129 0.0
C450 C 0.91512 0.16453 0.06096 0.0
C451 C 0.91688 0.14175 1.00165 0.0
C452 C 0.8878 0.13083 0.96799 0.0
C453 C 0.84911 0.14057 0.95007 0.0
C454 C 0.82147 0.13019 0.91852 0.0
C455 C 0.83252 0.11008 0.90447 0.0
C456 C 0.87136 0.10032 0.9219 0.0
C457 C 0.89907 0.11063 0.95348 0.0
H458 H 0.81107 0.10206 0.88005 0.0
H459 H 0.08634 0.20986 0.17786 0.0
H460 H 0.32589 0.18253 0.58127 0.0
H461 H 0.21788 0.18292 0.5806 0.0
H462 H 0.21707 0.12833 0.49738 0.0
H463 H 0.32515 0.1279 0.49789 0.0
H464 H 0.14832 0.15688 0.48148 0.0
H465 H 0.17553 0.12855 0.57988 0.0
H466 H 0.21574 0.12674 0.63783 0.0
H467 H 0.13264 0.18178 0.68931 0.0
H468 H 0.0926 0.18406 0.63155 0.0
H469 H 0.84315 0.13679 0.47775 0.0
H470 H 0.95052 0.13687 0.48057 0.0
H471 H 0.94525 0.186 0.57474 0.0
H472 H 0.83711 0.18532 0.5728 0.0
H473 H 0.01826 0.16059 0.58553 0.0
H474 H 1.00607 0.19199 0.48808 0.0
H475 H 0.96975 0.19584 0.43042 0.0
H476 H 0.02693 0.13704 0.37837 0.0
H477 H 0.06347 0.13293 0.4358 0.0
C478 C 0.30257 0.1705 0.56316 0.0
C479 C 0.33357 0.15521 0.53957 0.0
C480 C 0.24099 0.17071 0.56289 0.0
C481 C 0.20962 0.15561 0.53905 0.0
C482 C 0.24059 0.1401 0.51597 0.0
C483 C 0.30216 0.13985 0.51635 0.0
C484 C 0.14465 0.15662 0.53667 0.0
C485 C 0.11975 0.15742 0.5041 0.0
C486 C 0.10775 0.15797 0.5665 0.0
C487 C 0.13153 0.15657 0.60131 0.0
C488 C 0.16622 0.14035 0.6035 0.0
C489 C 0.18891 0.13922 0.63633 0.0
C490 C 0.17689 0.15416 0.66722 0.0
C491 C 0.14198 0.17023 0.66535 0.0
C492 C 0.11923 0.17144 0.63258 0.0
C493 C 0.86495 0.14775 0.49881 0.0
C494 C 0.83208 0.16107 0.52505 0.0
C495 C 0.92644 0.14792 0.50023 0.0
C496 C 0.95631 0.16169 0.52748 0.0
C497 C 0.9233 0.17524 0.55342 0.0
C498 C 0.86162 0.1749 0.55227 0.0
C499 C 0.0216 0.16096 0.53028 0.0
C500 C 0.0467 0.16015 0.56292 0.0
C501 C 0.05892 0.1598 0.50063 0.0
C502 C 0.0364 0.16207 0.46622 0.0
C503 C 0.01017 0.17984 0.46437 0.0
C504 C 0.98991 0.1821 0.43172 0.0
C505 C 0.99567 0.16664 0.40079 0.0
C506 C 0.02224 0.14897 0.40238 0.0
C507 C 0.04291 0.14669 0.43493 0.0
H508 H 0.9798 0.16839 0.37556 0.0
H509 H 0.19451 0.15327 0.69261 0.0
H510 H 0.68378 0.86375 0.47743 0.0
H511 H 0.79156 0.86182 0.47694 0.0
H512 H 0.79931 0.91314 0.56707 0.0
H513 H 0.69139 0.9153 0.56724 0.0
H514 H 0.88127 0.91504 0.51881 0.0
H515 H 0.81715 0.86716 0.578 0.0
H516 H 0.76065 0.83857 0.58549 0.0
H517 H 0.84455 0.80135 0.49296 0.0
H518 H 0.90099 0.8298 0.48461 0.0
H519 H 0.16878 0.90405 0.5806 0.0
H520 H 0.06103 0.90351 0.57726 0.0
H521 H 0.06906 0.86028 0.47532 0.0
H522 H 0.17748 0.86101 0.47822 0.0
H523 H 0.9803 0.85348 0.52721 0.0
H524 H 0.04621 0.90269 0.47013 0.0
H525 H 0.1037 0.93178 0.46606 0.0
H526 H 0.0164 0.96705 0.5592 0.0
H527 H 0.95902 0.93807 0.56414 0.0
C528 C 0.70856 0.87468 0.49697 0.0
C529 C 0.67951 0.88964 0.52245 0.0
C530 C 0.77004 0.8735 0.49679 0.0
C531 C 0.80338 0.88715 0.52231 0.0
C532 C 0.77438 0.90242 0.54721 0.0
C533 C 0.71285 0.90364 0.54732 0.0
C534 C 0.86847 0.88542 0.52321 0.0
C535 C 0.90283 0.90165 0.52102 0.0
C536 C 0.89663 0.86781 0.52549 0.0
C537 C 0.86282 0.85066 0.53045 0.0
C538 C 0.82319 0.85292 0.55906 0.0
C539 C 0.79123 0.83674 0.5635 0.0
C540 C 0.79887 0.81817 0.53965 0.0
C541 C 0.83861 0.81575 0.51137 0.0
C542 C 0.87062 0.8319 0.50679 0.0
C543 C 0.1476 0.89427 0.55765 0.0
C544 C 0.1812 0.88264 0.52955 0.0
C545 C 0.08617 0.89401 0.55576 0.0
C546 C 0.05741 0.88198 0.52593 0.0
C547 C 0.09072 0.86967 0.49851 0.0
C548 C 0.1524 0.87013 0.50016 0.0
C549 C 0.99263 0.88308 0.52289 0.0
C550 C 0.95848 0.86678 0.52477 0.0
C551 C 0.96458 0.90068 0.52074 0.0
C552 C 0.99877 0.91816 0.51771 0.0
C553 C 0.03967 0.91661 0.48993 0.0
C554 C 0.07215 0.93308 0.48743 0.0
C555 C 0.06382 0.95124 0.51241 0.0
C556 C 0.02286 0.95297 0.53989 0.0
C557 C 0.99031 0.93653 0.54254 0.0
H558 H 0.08901 0.96398 0.51043 0.0
H559 H 0.77411 0.80566 0.54314 0.0
H560 H 0.93369 0.57975 0.96393 0.0
H561 H 0.95937 0.54717 0.97019 0.0
H562 H 0.04053 0.57381 0.0719 0.0
H563 H 0.0151 0.60678 0.06556 0.0
H564 H 0.10323 0.54095 0.03102 0.0
H565 H 0.90421 0.55653 0.07052 0.0
H566 H 0.80216 0.56757 0.06532 0.0
H567 H 0.77519 0.51923 0.97254 0.0
H568 H 0.87743 0.50807 0.97685 0.0
H569 H 0.10913 0.45207 0.08269 0.0
H570 H 0.08681 0.48603 0.08237 0.0
H571 H 0.98598 0.4647 0.98564 0.0
H572 H 0.00699 0.4306 0.98647 0.0
H573 H 0.93346 0.49585 0.02755 0.0
H574 H 0.1313 0.48093 0.98532 0.0
H575 H 0.23404 0.46986 0.98782 0.0
H576 H 0.26408 0.51657 0.08272 0.0
H577 H 0.1612 0.52776 0.08107 0.0
C578 C 0.95783 0.57872 0.98742 0.0
C579 C 0.97186 0.59579 0.01443 0.0
C580 C 0.97224 0.56007 0.99102 0.0
C581 C 1.00062 0.55799 0.02188 0.0
C582 C 0.01817 0.57506 0.04798 0.0
C583 C 1.00381 0.59387 0.04432 0.0
C584 C 0.00885 0.53796 0.02725 0.0
C585 C 0.06609 0.5312 0.0309 0.0
C586 C 0.96046 0.52504 0.02621 0.0
C587 C 0.89865 0.53155 0.02386 0.0
C588 C 0.87664 0.54832 0.04887 0.0
C589 C 0.81875 0.5546 0.0461 0.0
C590 C 0.78225 0.54413 0.01857 0.0
C591 C 0.80353 0.52733 0.99383 0.0
C592 C 0.86143 0.52101 0.99644 0.0
C593 C 0.08143 0.45463 0.06166 0.0
C594 C 0.06017 0.4387 0.03447 0.0
C595 C 0.06909 0.47406 0.06133 0.0
C596 C 0.036 0.47801 0.03347 0.0
C597 C 0.01201 0.46208 0.00729 0.0
C598 C 0.02391 0.44258 0.0078 0.0
C599 C 0.028 0.4987 0.03108 0.0
C600 C 0.97069 0.5056 0.02794 0.0
C601 C 0.0764 0.51169 0.03233 0.0
C602 C 0.13837 0.50505 0.03328 0.0
C603 C 0.15969 0.48876 0.00687 0.0
C604 C 0.21796 0.48247 0.00811 0.0
C605 C 0.25552 0.49247 0.03547 0.0
C606 C 0.23491 0.50882 0.06158 0.0
C607 C 0.17663 0.51515 0.06049 0.0
H608 H 0.30063 0.48758 0.03638 0.0
H609 H 0.73744 0.54902 0.01646 0.0
H610 H 0.88654 0.46178 0.56469 0.0
H611 H 0.91019 0.49408 0.55616 0.0
H612 H 0.06754 0.47015 0.49873 0.0
H613 H 0.0424 0.43728 0.50544 0.0
H614 H 0.03923 0.5172 0.56797 0.0
H615 H 0.01832 0.47112 0.44376 0.0
H616 H 0.96055 0.44455 0.40356 0.0
H617 H 0.80454 0.48025 0.42628 0.0
H618 H 0.86109 0.50669 0.46767 0.0
H619 H 0.10482 0.58449 0.45264 0.0
H620 H 0.07927 0.55103 0.45517 0.0
H621 H 0.95059 0.57481 0.53677 0.0
H622 H 0.9763 0.60832 0.53465 0.0
H623 H 0.96619 0.52731 0.45361 0.0
H624 H 0.97927 0.55702 0.59954 0.0
H625 H 0.01394 0.58788 0.64137 0.0
H626 H 0.16786 0.58749 0.57695 0.0
H627 H 0.13352 0.55679 0.53447 0.0
C628 C 0.92659 0.46336 0.55053 0.0
C629 C 0.96225 0.44689 0.53528 0.0
C630 C 0.93999 0.48187 0.54575 0.0
C631 C 0.98988 0.48439 0.52625 0.0
C632 C 0.02818 0.46837 0.51334 0.0
C633 C 0.01401 0.44966 0.51734 0.0
C634 C 0.99888 0.5034 0.51725 0.0
C635 C 0.02407 0.51929 0.54278 0.0
C636 C 0.9771 0.50638 0.48493 0.0
C637 C 0.94384 0.49075 0.4591 0.0
C638 C 0.97163 0.47319 0.44046 0.0
C639 C 0.93912 0.45817 0.41746 0.0
C640 C 0.87895 0.46072 0.41234 0.0
C641 C 0.85116 0.47828 0.43027 0.0
C642 C 0.8834 0.49326 0.45358 0.0
C643 C 0.07002 0.58256 0.47047 0.0
C644 C 0.04316 0.59902 0.49383 0.0
C645 C 0.05528 0.56342 0.47175 0.0
C646 C 0.01352 0.56046 0.4964 0.0
C647 C 0.9832 0.5768 0.51768 0.0
C648 C 0.99794 0.59594 0.51645 0.0
C649 C 0.00844 0.54084 0.50374 0.0
C650 C 0.9829 0.52501 0.47833 0.0
C651 C 0.02901 0.53794 0.53633 0.0
C652 C 0.05416 0.55457 0.56413 0.0
C653 C 0.02107 0.56333 0.59473 0.0
C654 C 0.04031 0.5809 0.6183 0.0
C655 C 0.09304 0.58964 0.61179 0.0
C656 C 0.12704 0.5807 0.58195 0.0
C657 C 0.1077 0.56324 0.55811 0.0
H658 H 0.10756 0.60334 0.62984 0.0
H659 H 0.8539 0.44909 0.39447 0.0
H660 H 0.47599 0.92662 0.988 0.0
H661 H 0.44929 0.95892 0.97932 0.0
H662 H 0.55751 0.98765 0.06957 0.0
H663 H 0.58165 0.95582 0.07919 0.0
H664 H 0.46795 1.00921 0.07029 0.0
H665 H 0.60514 0.97673 0.97847 0.0
H666 H 0.63937 0.94985 0.9278 0.0
H667 H 0.48875 0.95818 0.86641 0.0
H668 H 0.45316 0.98494 0.91694 0.0
H669 H 0.52562 0.10105 0.0381 0.0
H670 H 0.54383 0.06715 0.04098 0.0
H671 H 0.41527 0.04574 0.95788 0.0
H672 H 0.39787 0.07949 0.95437 0.0
H673 H 0.50759 0.02018 0.95162 0.0
H674 H 0.37603 0.05501 0.04524 0.0
H675 H 0.34996 0.08319 0.09587 0.0
H676 H 0.49918 0.07106 0.15472 0.0
H677 H 0.52661 0.04296 0.10421 0.0
C678 C 0.49293 0.93989 0.00635 0.0
C679 C 0.53138 0.93869 0.03406 0.0
C680 C 0.47821 0.95835 1.00118 0.0
C681 C 0.50251 0.97582 0.02327 0.0
C682 C 0.53827 0.97452 0.05202 0.0
C683 C 0.55226 0.95623 0.05743 0.0
C684 C 0.49365 0.99544 0.01601 0.0
C685 C 0.47704 1.01156 0.04435 0.0
C686 C 0.50469 0.99866 0.9821 0.0
C687 C 0.52625 0.98271 0.95158 0.0
C688 C 0.57918 0.97276 0.95422 0.0
C689 C 0.59883 0.95756 0.92553 0.0
C690 C 0.56628 0.95232 0.89391 0.0
C691 C 0.51397 0.96228 0.89091 0.0
C692 C 0.49401 0.97745 0.91957 0.0
C693 C 0.50227 0.08906 0.0199 0.0
C694 C 0.45977 0.09293 0.99633 0.0
C695 C 0.5124 0.06971 0.02171 0.0
C696 C 0.47984 0.05392 1.00022 0.0
C697 C 0.44058 0.05766 0.97489 0.0
C698 C 0.43061 0.07698 0.97297 0.0
C699 C 0.48314 0.03385 0.00604 0.0
C700 C 0.49829 1.01772 0.97744 0.0
C701 C 0.47162 0.03064 0.03984 0.0
C702 C 0.45358 0.04696 0.07085 0.0
C703 C 0.40331 0.05837 0.06896 0.0
C704 C 0.38834 0.07434 0.09762 0.0
C705 C 0.42299 0.07894 0.12846 0.0
C706 C 0.47242 0.06749 0.1308 0.0
C707 C 0.48765 0.05152 0.10219 0.0
H708 H 0.4115 0.09137 0.15055 0.0
H709 H 0.58158 0.94055 0.87172 0.0
H710 H 0.64824 0.08336 0.49121 0.0
H711 H 0.61215 0.05119 0.49365 0.0
H712 H 0.45272 0.07802 0.54488 0.0
H713 H 0.48937 0.11074 0.54247 0.0
H714 H 0.50451 0.05293 0.58003 0.0
H715 H 0.44762 0.04935 0.46076 0.0
H716 H 0.45996 0.05219 0.39938 0.0
H717 H 0.59514 1.00789 0.38049 0.0
H718 H 0.58442 1.00502 0.442 0.0
H719 H 0.35616 0.96255 0.56492 0.0
H720 H 0.38922 0.99494 0.56156 0.0
H721 H 0.55221 0.96955 0.51322 0.0
H722 H 0.51883 0.93666 0.51674 0.0
H723 H 0.49668 0.99397 0.47626 0.0
H724 H 0.55441 0.99825 0.59628 0.0
H725 H 0.54176 0.99569 0.65782 0.0
H726 H 0.40339 0.03886 0.67497 0.0
H727 H 0.41457 0.04146 0.61332 0.0
C728 C 0.60497 0.08243 0.50249 0.0
C729 C 0.57146 0.09953 0.51655 0.0
C730 C 0.58432 0.06397 0.50376 0.0
C731 C 0.52955 0.06209 0.51921 0.0
C732 C 0.49508 0.07912 0.53269 0.0
C733 C 0.5157 0.09775 0.53109 0.0
C734 C 0.51095 0.0424 0.52292 0.0
C735 C 0.50164 0.04012 0.55726 0.0
C736 C 0.50917 0.02552 0.49332 0.0
C737 C 0.51555 0.0271 0.45617 0.0
C738 C 0.48035 0.04032 0.44364 0.0
C739 C 0.487 0.04192 0.40879 0.0
C740 C 0.52839 0.03026 0.38608 0.0
C741 C 0.56313 1.01693 0.39814 0.0
C742 C 0.55675 1.0153 0.43299 0.0
C743 C 0.39955 0.96387 0.5541 0.0
C744 C 0.4351 0.94712 0.54125 0.0
C745 C 0.4184 0.98243 0.55223 0.0
C746 C 0.47328 0.98476 0.53729 0.0
C747 C 0.50968 0.96809 0.52494 0.0
C748 C 0.49093 0.94938 0.52721 0.0
C749 C 0.49049 1.00452 0.53337 0.0
C750 C 0.49948 1.00681 0.49899 0.0
C751 C 0.49181 0.02143 0.56291 0.0
C752 C 0.48498 0.01991 0.60004 0.0
C753 C 0.52092 1.00707 0.61306 0.0
C754 C 0.51409 1.00564 0.64799 0.0
C755 C 0.47171 1.01707 0.67026 0.0
C756 C 0.43616 0.03 0.65767 0.0
C757 C 0.44276 0.03147 0.62274 0.0
H758 H 0.4665 1.01594 0.6973 0.0
H759 H 0.53348 0.03152 0.35911 0.0
H760 H 0.05846 0.32275 0.05429 0.0
H761 H 0.11963 0.29438 0.05636 0.0
H762 H 0.2388 0.30795 0.97971 0.0
H763 H 0.17632 0.33587 0.97657 0.0
H764 H 0.22045 0.2693 0.9641 0.0
H765 H 0.26723 0.3199 0.07088 0.0
H766 H 0.24268 0.34457 0.12702 0.0
H767 H 0.17454 0.2989 0.17035 0.0
H768 H 0.19684 0.274 0.11406 0.0
H769 H 0.46297 0.21078 0.98796 0.0
H770 H 0.39926 0.23876 0.98718 0.0
H771 H 0.28262 0.22309 0.06287 0.0
H772 H 0.34741 0.19542 0.06453 0.0
H773 H 0.29778 0.26232 0.07947 0.0
H774 H 0.24851 0.21196 0.97412 0.0
H775 H 0.27051 0.18671 0.91824 0.0
H776 H 0.34142 0.23124 0.87292 0.0
H777 H 0.32084 0.25673 0.9288 0.0
C778 C 0.09764 0.31964 0.03783 0.0
C779 C 0.11298 0.33166 0.01556 0.0
C780 C 0.1328 0.30347 0.03915 0.0
C781 C 0.18454 0.29911 0.0186 0.0
C782 C 0.19933 0.31098 0.99593 0.0
C783 C 0.16389 0.32706 0.99439 0.0
C784 C 0.22344 0.28232 0.02084 0.0
C785 C 0.23793 0.26795 0.9893 0.0
C786 C 0.24517 0.28016 0.05381 0.0
C787 C 0.23317 0.29509 0.08806 0.0
C788 C 0.24656 0.31512 0.09227 0.0
C789 C 0.23289 0.32916 0.12409 0.0
C790 C 0.20667 0.32332 0.15215 0.0
C791 C 0.19441 0.30342 0.1485 0.0
C792 C 0.2075 0.28933 0.11662 0.0
C793 C 0.42383 0.21334 0.00451 0.0
C794 C 0.40979 0.20076 0.02596 0.0
C795 C 0.38725 0.2293 0.00394 0.0
C796 C 0.33548 0.23294 0.02457 0.0
C797 C 0.32209 0.2206 0.04661 0.0
C798 C 0.35888 0.20468 0.04731 0.0
C799 C 0.29508 0.24943 0.02271 0.0
C800 C 0.28027 0.26371 0.05429 0.0
C801 C 0.27273 0.25146 0.98983 0.0
C802 C 0.28357 0.23625 0.95579 0.0
C803 C 0.26906 0.21636 0.95231 0.0
C804 C 0.2813 0.202 0.92063 0.0
C805 C 0.30747 0.20736 0.89208 0.0
C806 C 0.32121 0.22711 0.89508 0.0
C807 C 0.30923 0.24153 0.92675 0.0
H808 H 0.31701 0.19621 0.8676 0.0
H809 H 0.19607 0.33421 0.17676 0.0
H810 H 0.55791 0.81043 0.97223 0.0
H811 H 0.6223 0.78267 0.97439 0.0
H812 H 0.72506 0.82114 0.05782 0.0
H813 H 0.66045 0.84872 0.05622 0.0
H814 H 0.79555 0.79691 0.00649 0.0
H815 H 0.62675 0.79051 0.07777 0.0
H816 H 0.52105 0.78728 0.09005 0.0
H817 H 0.5121 0.73354 0.00606 0.0
H818 H 0.61758 0.73662 0.99288 0.0
H819 H 0.94829 0.72441 0.07227 0.0
H820 H 0.88597 0.75215 0.06718 0.0
H821 H 0.78491 0.71282 0.98401 0.0
H822 H 0.84783 0.68534 0.98825 0.0
H823 H 0.71359 0.73721 0.03403 0.0
H824 H 0.87802 0.74256 0.96158 0.0
H825 H 0.98278 0.7448 0.94625 0.0
H826 H 0.99935 0.79917 0.02795 0.0
H827 H 0.89472 0.79716 0.04427 0.0
C828 C 0.5943 0.81294 0.99096 0.0
C829 C 0.60431 0.83178 0.01388 0.0
C830 C 0.63102 0.79707 0.99223 0.0
C831 C 0.67849 0.79977 0.01638 0.0
C832 C 0.68896 0.81867 0.03887 0.0
C833 C 0.65198 0.83445 0.03787 0.0
C834 C 0.71674 0.78291 0.01877 0.0
C835 C 0.77772 0.78397 0.01297 0.0
C836 C 0.69341 0.76575 0.02626 0.0
C837 C 0.62991 0.76393 0.03405 0.0
C838 C 0.60211 0.77811 0.06167 0.0
C839 C 0.54225 0.77629 0.06884 0.0
C840 C 0.50983 0.76025 0.04876 0.0
C841 C 0.53723 0.74598 0.02153 0.0
C842 C 0.59705 0.74776 0.0142 0.0
C843 C 0.91277 0.72173 0.05293 0.0
C844 C 0.9024 0.70263 0.03106 0.0
C845 C 0.87728 0.73757 0.04997 0.0
C846 C 0.83063 0.73458 0.02521 0.0
C847 C 0.82026 0.71549 0.00348 0.0
C848 C 0.85611 0.69976 0.00609 0.0
C849 C 0.7924 0.75127 0.02196 0.0
C850 C 0.73145 0.75016 0.02759 0.0
C851 C 0.81566 0.76827 0.01392 0.0
C852 C 0.87868 0.76956 0.00448 0.0
C853 C 0.90412 0.7549 0.97659 0.0
C854 C 0.96344 0.75615 0.96766 0.0
C855 C 0.99771 0.7721 0.98623 0.0
C856 C 0.97269 0.78684 0.0137 0.0
C857 C 0.91337 0.78565 0.0228 0.0
H858 H 0.04363 0.77306 0.97926 0.0
H859 H 0.46351 0.75885 0.05438 0.0
H860 H 0.04835 0.71943 0.49922 0.0
H861 H 0.11438 0.74712 0.50011 0.0
H862 H 0.23779 0.72557 0.56541 0.0
H863 H 0.17096 0.6981 0.56531 0.0
H864 H 0.22677 0.76502 0.58909 0.0
H865 H 0.26245 0.71876 0.47671 0.0
H866 H 0.23378 0.69605 0.41919 0.0
H867 H 0.1604 0.74439 0.38535 0.0
H868 H 0.18766 0.76736 0.44297 0.0
H869 H 0.46048 0.82833 0.56574 0.0
H870 H 0.40151 0.79906 0.56542 0.0
H871 H 0.27309 0.81615 0.49731 0.0
H872 H 0.33338 0.84486 0.49634 0.0
H873 H 0.29123 0.77774 0.47536 0.0
H874 H 0.25239 0.82369 0.58948 0.0
H875 H 0.28208 0.84615 0.64707 0.0
H876 H 0.36327 0.79791 0.67752 0.0
H877 H 0.33498 0.77521 0.61981 0.0
C878 C 0.08949 0.72063 0.51382 0.0
C879 C 0.10473 0.70651 0.53193 0.0
C880 C 0.12738 0.73642 0.5142 0.0
C881 C 0.1816 0.73835 0.53245 0.0
C882 C 0.19639 0.72441 0.55107 0.0
C883 C 0.15835 0.70864 0.55078 0.0
C884 C 0.22283 0.75483 0.5318 0.0
C885 C 0.2415 0.76763 0.56421 0.0
C886 C 0.24167 0.75845 0.49939 0.0
C887 C 0.22669 0.74477 0.4643 0.0
C888 C 0.23993 0.72454 0.45708 0.0
C889 C 0.22392 0.71162 0.42446 0.0
C890 C 0.19518 0.71877 0.39866 0.0
C891 C 0.18261 0.73887 0.40538 0.0
C892 C 0.19837 0.75186 0.43801 0.0
C893 C 0.41967 0.82581 0.55071 0.0
C894 C 0.40106 0.83906 0.5315 0.0
C895 C 0.3858 0.80912 0.55065 0.0
C896 C 0.33213 0.80547 0.53181 0.0
C897 C 0.31406 0.8186 0.5122 0.0
C898 C 0.34822 0.83517 0.51198 0.0
C899 C 0.29449 0.78813 0.53266 0.0
C900 C 0.27662 0.77512 0.50026 0.0
C901 C 0.27656 0.78429 0.56508 0.0
C902 C 0.29195 0.79779 0.60022 0.0
C903 C 0.27676 0.81788 0.60841 0.0
C904 C 0.29338 0.83066 0.64106 0.0
C905 C 0.32464 0.82346 0.66591 0.0
C906 C 0.33911 0.80346 0.65823 0.0
C907 C 0.32277 0.79063 0.62556 0.0
H908 H 0.33758 0.83339 0.69114 0.0
H909 H 0.18275 0.70874 0.37344 0.0
H910 H 0.83876 0.34601 0.48481 0.0
H911 H 0.77415 0.3185 0.48773 0.0
H912 H 0.89471 0.30257 0.56124 0.0
H913 H 0.95843 0.33046 0.5593 0.0
H914 H 0.86193 0.27055 0.50686 0.0
H915 H 0.7706 0.32456 0.58902 0.0
H916 H 0.71932 0.35596 0.61466 0.0
H917 H 0.57343 0.33651 0.54349 0.0
H918 H 0.6254 0.3056 0.51576 0.0
H919 H 0.68043 0.20159 0.56257 0.0
H920 H 0.74162 0.22998 0.56085 0.0
H921 H 0.61712 0.24585 0.48927 0.0
H922 H 0.55592 0.21726 0.49078 0.0
H923 H 0.65147 0.27775 0.54267 0.0
H924 H 0.74788 0.22446 0.45797 0.0
H925 H 0.79202 0.19124 0.43969 0.0
H926 H 0.9229 0.20873 0.52192 0.0
H927 H 0.87915 0.2419 0.54095 0.0
C928 C 0.85099 0.33684 0.50205 0.0
C929 C 0.90337 0.34055 0.52214 0.0
C930 C 0.81409 0.32107 0.50361 0.0
C931 C 0.82929 0.30848 0.52486 0.0
C932 C 0.88195 0.31206 0.54467 0.0
C933 C 0.91834 0.32802 0.54355 0.0
C934 C 0.79135 0.29122 0.52562 0.0
C935 C 0.81602 0.27222 0.51497 0.0
C936 C 0.73102 0.29324 0.53564 0.0
C937 C 0.7025 0.31278 0.54987 0.0
C938 C 0.72843 0.32719 0.57803 0.0
C939 C 0.69912 0.34494 0.59302 0.0
C940 C 0.64326 0.3483 0.58063 0.0
C941 C 0.61697 0.33403 0.55287 0.0
C942 C 0.64657 0.31646 0.53729 0.0
C943 C 0.6666 0.21093 0.54603 0.0
C944 C 0.6139 0.20702 0.52638 0.0
C945 C 0.70148 0.22723 0.54517 0.0
C946 C 0.68446 0.23998 0.52457 0.0
C947 C 0.63132 0.23623 0.50528 0.0
C948 C 0.59645 0.21987 0.50609 0.0
C949 C 0.72182 0.25729 0.52346 0.0
C950 C 0.69717 0.27622 0.53411 0.0
C951 C 0.78201 0.25528 0.51353 0.0
C952 C 0.81004 0.23562 0.50102 0.0
C953 C 0.78605 0.22119 0.47217 0.0
C954 C 0.81096 0.20236 0.46168 0.0
C955 C 0.86014 0.19785 0.47966 0.0
C956 C 0.88484 0.2122 0.50796 0.0
C957 C 0.86006 0.23104 0.51859 0.0
H958 H 0.87906 0.18323 0.47162 0.0
H959 H 0.62032 0.36195 0.59255 0.0
H960 H 0.14329 0.36726 0.12045 0.0
H961 H 0.12718 0.36648 0.18256 0.0
H962 H 0.99143 0.41066 0.19355 0.0
H963 H 0.00715 0.41149 0.13195 0.0
H964 H 0.06446 0.41685 0.25312 0.0
H965 H 0.95508 0.36349 0.1737 0.0
H966 H 0.9486 0.3336 0.12345 0.0
H967 H 0.06432 0.30306 0.17805 0.0
H968 H 0.073 0.33299 0.2282 0.0
H969 H 0.89786 0.40638 0.40187 0.0
H970 H 0.92403 0.40701 0.34082 0.0
H971 H 0.04962 0.3602 0.33506 0.0
H972 H 0.02436 0.35974 0.3959 0.0
H973 H 0.98811 0.35454 0.2731 0.0
H974 H 0.09871 0.40486 0.35148 0.0
H975 H 0.12576 0.43474 0.39827 0.0
H976 H 0.02359 0.47025 0.34603 0.0
H977 H 0.99482 0.44051 0.29925 0.0
C978 C 0.11096 0.37708 0.13643 0.0
C979 C 0.07627 0.38938 0.1214 0.0
C980 C 0.1015 0.37652 0.17175 0.0
C981 C 0.05761 0.38836 0.19248 0.0
C982 C 0.02537 0.40138 0.17802 0.0
C983 C 0.03429 0.40179 0.14277 0.0
C984 C 0.04233 0.38657 0.22855 0.0
C985 C 0.04701 0.40332 0.25752 0.0
C986 C 0.02153 0.36869 0.23428 0.0
C987 C 0.01514 0.35055 0.20455 0.0
C988 C 0.97955 0.35046 0.17487 0.0
C989 C 0.97559 0.33352 0.14637 0.0
C990 C 1.00636 0.31648 0.14746 0.0
C991 C 0.0409 0.31632 0.17714 0.0
C992 C 0.04538 0.33327 0.2056 0.0
C993 C 0.92997 0.39593 0.38718 0.0
C994 C 0.95887 0.38293 0.40343 0.0
C995 C 0.94539 0.39645 0.35252 0.0
C996 C 0.98923 0.38376 0.33353 0.0
C997 C 0.0158 0.37012 0.34918 0.0
C998 C 1.00124 0.36986 0.38391 0.0
C999 C 0.00892 0.38503 0.29779 0.0
C1000 C 1.0052 0.36814 0.26884 0.0
C1001 C 0.03163 0.40273 0.29218 0.0
C1002 C 0.04407 0.4204 0.32202 0.0
C1003 C 0.08098 0.41897 0.35032 0.0
C1004 C 0.09699 0.43591 0.37671 0.0
C1005 C 0.07684 0.45439 0.37493 0.0
C1006 C 0.03952 0.45593 0.34721 0.0
C1007 C 0.02318 0.43904 0.32082 0.0
H1008 H 0.09007 0.46751 0.39506 0.0
H1009 H 1.00327 0.30338 0.12537 0.0
H1010 H 1.00542 0.687 0.14565 0.0
H1011 H 0.0221 0.68879 0.20845 0.0
H1012 H 0.89058 0.64369 0.20275 0.0
H1013 H 0.8723 0.64238 0.13983 0.0
H1014 H 0.89105 0.67049 0.26801 0.0
H1015 H 0.03652 0.63143 0.18923 0.0
H1016 H 0.11072 0.62604 0.14124 0.0
H1017 H 0.21443 0.67398 0.20383 0.0
H1018 H 0.14061 0.67973 0.25204 0.0
H1019 H 0.98539 0.63175 0.40586 0.0
H1020 H 0.96467 0.63514 0.34636 0.0
H1021 H 0.10019 0.67959 0.35935 0.0
H1022 H 0.12221 0.6759 0.4192 0.0
H1023 H 0.09873 0.65531 0.29177 0.0
H1024 H 0.95627 0.69293 0.37246 0.0
H1025 H 0.88143 0.69848 0.42005 0.0
H1026 H 0.77138 0.65369 0.35396 0.0
H1027 H 0.84599 0.64765 0.30615 0.0
C1028 C 0.97882 0.67789 0.15812 0.0
C1029 C 0.93778 0.66449 0.13801 0.0
C1030 C 0.9887 0.67882 0.19391 0.0
C1031 C 0.95889 0.66596 0.21 0.0
C1032 C 0.91443 0.65364 0.19076 0.0
C1033 C 0.90377 0.65295 0.15492 0.0
C1034 C 0.97789 0.66419 0.24561 0.0
C1035 C 0.93627 0.66698 0.27312 0.0
C1036 C 0.03732 0.66004 0.25252 0.0
C1037 C 0.08287 0.65609 0.22412 0.0
C1038 C 0.07515 0.64083 0.19272 0.0
C1039 C 0.11714 0.6377 0.16548 0.0
C1040 C 0.16727 0.64966 0.16946 0.0
C1041 C 0.17567 0.66469 0.20078 0.0
C1042 C 0.13382 0.66787 0.2281 0.0
C1043 C 0.01133 0.6421 0.39596 0.0
C1044 C 0.05507 0.6537 0.41729 0.0
C1045 C 0.99921 0.64409 0.36197 0.0
C1046 C 0.02974 0.65799 0.34875 0.0
C1047 C 0.07574 0.66889 0.36918 0.0
C1048 C 0.08843 0.66673 0.40326 0.0
C1049 C 0.01175 0.66145 0.31415 0.0
C1050 C 0.05357 0.65895 0.28678 0.0
C1051 C 0.95249 0.66586 0.30738 0.0
C1052 C 0.90694 0.66974 0.33581 0.0
C1053 C 0.91625 0.68419 0.36814 0.0
C1054 C 0.87386 0.68742 0.39516 0.0
C1055 C 0.82173 0.67641 0.39006 0.0
C1056 C 0.8118 0.66219 0.35788 0.0
C1057 C 0.85409 0.65888 0.33079 0.0
H1058 H 0.789 0.67892 0.41103 0.0
H1059 H 0.19957 0.64727 0.14827 0.0
H1060 H 0.05507 0.62857 0.91415 0.0
H1061 H 0.07778 0.62914 0.85341 0.0
H1062 H 0.9004 0.64835 0.84032 0.0
H1063 H 0.87753 0.64832 0.90194 0.0
H1064 H 0.04018 0.61119 0.78997 0.0
H1065 H 0.90548 0.68083 0.78836 0.0
H1066 H 0.86681 0.71069 0.83111 0.0
H1067 H 1.0053 0.70763 0.90481 0.0
H1068 H 0.04528 0.67795 0.8623 0.0
H1069 H 0.9872 0.62913 0.61938 0.0
H1070 H 0.97819 0.62526 0.67976 0.0
H1071 H 0.12652 0.66415 0.71341 0.0
H1072 H 0.13712 0.66761 0.65229 0.0
H1073 H 0.01043 0.67329 0.75461 0.0
H1074 H 0.159 0.62458 0.71668 0.0
H1075 H 0.21081 0.59536 0.68015 0.0
H1076 H 0.06458 0.55864 0.69123 0.0
H1077 H 0.01153 0.58769 0.7275 0.0
C1078 C 0.02051 0.63276 0.89837 0.0
C1079 C 0.96457 0.6386 0.91308 0.0
C1080 C 0.03363 0.63302 0.8635 0.0
C1081 C 0.9912 0.63911 0.84246 0.0
C1082 C 0.9342 0.64394 0.85633 0.0
C1083 C 0.921 0.64374 0.89142 0.0
C1084 C 0.00786 0.64102 0.8066 0.0
C1085 C 0.03336 0.62474 0.78219 0.0
C1086 C 1.00078 0.65891 0.79685 0.0
C1087 C 0.97796 0.67705 0.82227 0.0
C1088 C 0.92783 0.68659 0.81361 0.0
C1089 C 0.90567 0.70348 0.83782 0.0
C1090 C 0.93346 0.71101 0.87071 0.0
C1091 C 0.98369 0.70174 0.87938 0.0
C1092 C 1.00609 0.68488 0.85525 0.0
C1093 C 0.01822 0.63677 0.63957 0.0
C1094 C 0.0626 0.64881 0.63132 0.0
C1095 C 0.01318 0.63444 0.67395 0.0
C1096 C 0.05164 0.64442 0.70093 0.0
C1097 C 0.09657 0.65629 0.6928 0.0
C1098 C 0.10264 0.65823 0.658 0.0
C1099 C 0.04168 0.64334 0.73794 0.0
C1100 C 0.01708 0.65974 0.76245 0.0
C1101 C 0.05094 0.62572 0.74811 0.0
C1102 C 0.08093 0.60839 0.72441 0.0
C1103 C 0.13746 0.61033 0.71087 0.0
C1104 C 0.16729 0.59377 0.69047 0.0
C1105 C 0.14106 0.57515 0.68343 0.0
C1106 C 0.08492 0.57306 0.69678 0.0
C1107 C 0.05494 0.58958 0.71724 0.0
H1108 H 0.16414 0.56235 0.66753 0.0
H1109 H 0.91614 0.72405 0.88944 0.0
H1110 H 0.02491 0.41744 0.63531 0.0
H1111 H 0.04413 0.41439 0.69521 0.0
H1112 H 0.89251 0.37645 0.68768 0.0
H1113 H 0.87269 0.37947 0.62719 0.0
H1114 H 0.90841 0.40335 0.75625 0.0
H1115 H 0.02125 0.35568 0.66966 0.0
H1116 H 0.0887 0.3452 0.61843 0.0
H1117 H 0.22507 0.38229 0.67752 0.0
H1118 H 0.15803 0.39326 0.72893 0.0
H1119 H 0.98408 0.36079 0.89299 0.0
H1120 H 0.96303 0.36391 0.83335 0.0
H1121 H 0.12218 0.39793 0.83613 0.0
H1122 H 0.14424 0.39454 0.89612 0.0
H1123 H 0.10221 0.37319 0.76988 0.0
H1124 H 0.99178 0.42107 0.85609 0.0
H1125 H 0.92527 0.43259 0.90753 0.0
H1126 H 0.78575 0.39649 0.84984 0.0
H1127 H 0.85178 0.38449 0.79822 0.0
C1128 C 0.99495 0.40869 0.64653 0.0
C1129 C 0.94761 0.39851 0.62636 0.0
C1130 C 1.00614 0.40694 0.68078 0.0
C1131 C 0.97052 0.39487 0.69557 0.0
C1132 C 0.92072 0.38575 0.67659 0.0
C1133 C 0.90933 0.38754 0.64213 0.0
C1134 C 0.98809 0.39081 0.72969 0.0
C1135 C 0.95034 0.3965 0.75914 0.0
C1136 C 0.04359 0.38234 0.73362 0.0
C1137 C 0.08444 0.37542 0.70304 0.0
C1138 C 0.0655 0.36169 0.67166 0.0
C1139 C 0.10367 0.35566 0.64259 0.0
C1140 C 0.1611 0.3631 0.64469 0.0
C1141 C 0.18055 0.37655 0.67592 0.0
C1142 C 0.1425 0.38267 0.70505 0.0
C1143 C 0.01517 0.36871 0.88077 0.0
C1144 C 0.06552 0.37763 0.89942 0.0
C1145 C 1.0029 0.37054 0.8467 0.0
C1146 C 0.04017 0.38159 0.83065 0.0
C1147 C 0.09255 0.38947 0.84817 0.0
C1148 C 0.10522 0.38748 0.88236 0.0
C1149 C 0.02244 0.38567 0.79652 0.0
C1150 C 0.06021 0.38001 0.76705 0.0
C1151 C 0.9671 0.39429 0.79264 0.0
C1152 C 0.92691 0.40175 0.82339 0.0
C1153 C 0.94703 0.41549 0.85444 0.0
C1154 C 0.90941 0.42212 0.88363 0.0
C1155 C 0.85136 0.41524 0.88198 0.0
C1156 C 0.83076 0.40178 0.85109 0.0
C1157 C 0.86824 0.39508 0.82184 0.0
H1158 H 0.82231 0.42037 0.90462 0.0
H1159 H 0.19057 0.35843 0.62215 0.0
H1160 H 0.44646 0.9031 0.13414 0.0
H1161 H 0.42541 0.90402 0.19572 0.0
H1162 H 0.60509 0.88738 0.21003 0.0
H1163 H 0.62644 0.88594 0.14753 0.0
H1164 H 0.52875 0.86512 0.2344 0.0
H1165 H 0.5533 0.93438 0.24892 0.0
H1166 H 0.53689 0.96646 0.23607 0.0
H1167 H 0.35293 0.96381 0.26065 0.0
H1168 H 0.36808 0.93157 0.27319 0.0
H1169 H 0.5326 0.88486 0.41997 0.0
H1170 H 0.5462 0.88552 0.35861 0.0
H1171 H 0.36028 0.89622 0.34939 0.0
H1172 H 0.34589 0.89576 0.41197 0.0
H1173 H 0.43416 0.92115 0.32201 0.0
H1174 H 0.41193 0.85205 0.30959 0.0
H1175 H 0.43072 0.82042 0.32366 0.0
H1176 H 0.61322 0.8233 0.29598 0.0
H1177 H 0.59573 0.8551 0.28223 0.0
C1178 C 0.48195 0.8998 0.15035 0.0
C1179 C 0.53823 0.89432 0.13579 0.0
C1180 C 0.46975 0.90048 0.18574 0.0
C1181 C 0.51369 0.89593 0.20763 0.0
C1182 C 0.57049 0.89098 0.19357 0.0
C1183 C 0.5828 0.89026 0.15794 0.0
C1184 C 0.49887 0.89516 0.2444 0.0
C1185 C 0.50892 0.87748 0.25372 0.0
C1186 C 0.471 0.91106 0.2692 0.0
C1187 C 0.46174 0.93046 0.26166 0.0
C1188 C 0.50925 0.94055 0.2513 0.0
C1189 C 0.50019 0.95878 0.24413 0.0
C1190 C 0.44388 0.96714 0.24745 0.0
C1191 C 0.39652 0.9573 0.25804 0.0
C1192 C 0.40533 0.93906 0.26522 0.0
C1193 C 0.4942 0.88736 0.40514 0.0
C1194 C 0.43797 0.89032 0.42104 0.0
C1195 C 0.50221 0.8876 0.36985 0.0
C1196 C 0.45426 0.89071 0.34934 0.0
C1197 C 0.39784 0.89371 0.36486 0.0
C1198 C 0.38961 0.89336 0.40047 0.0
C1199 C 0.46458 0.8912 0.31197 0.0
C1200 C 0.45369 0.90879 0.30255 0.0
C1201 C 0.49194 0.87526 0.28709 0.0
C1202 C 0.50256 0.85605 0.29511 0.0
C1203 C 0.45616 0.84601 0.30675 0.0
C1204 C 0.46657 0.82804 0.31463 0.0
C1205 C 0.52315 0.81987 0.31078 0.0
C1206 C 0.56942 0.82965 0.29896 0.0
C1207 C 0.55926 0.84764 0.29107 0.0
H1208 H 0.53112 0.80595 0.3169 0.0
H1209 H 0.43696 0.98126 0.2419 0.0
H1210 H 0.3735 0.1618 0.15177 0.0
H1211 H 0.39104 0.16133 0.21404 0.0
H1212 H 0.55398 0.1298 0.18273 0.0
H1213 H 0.53667 0.13011 0.1212 0.0
H1214 H 0.49798 0.11599 0.23177 0.0
H1215 H 0.55466 0.17921 0.21586 0.0
H1216 H 0.53872 0.21039 0.19955 0.0
H1217 H 0.40256 0.22653 0.27863 0.0
H1218 H 0.41716 0.19528 0.29506 0.0
H1219 H 0.65017 0.13974 0.4004 0.0
H1220 H 0.62768 0.13844 0.33771 0.0
H1221 H 0.45757 0.1647 0.36952 0.0
H1222 H 0.47918 0.16572 0.43132 0.0
H1223 H 0.51604 0.181 0.32065 0.0
H1224 H 0.46178 0.11787 0.33744 0.0
H1225 H 0.47918 0.08681 0.35385 0.0
H1226 H 0.61263 0.07058 0.2731 0.0
H1227 H 0.59669 0.10173 0.25659 0.0
C1228 C 0.41246 0.15454 0.15825 0.0
C1229 C 0.45422 0.14633 0.13186 0.0
C1230 C 0.42262 0.15434 0.19373 0.0
C1231 C 0.47437 0.14579 0.20306 0.0
C1232 C 0.514 0.13656 0.17625 0.0
C1233 C 0.50419 0.1369 0.1411 0.0
C1234 C 0.4899 0.14747 0.2408 0.0
C1235 C 0.50234 0.13021 0.25113 0.0
C1236 C 0.49523 0.16601 0.26614 0.0
C1237 C 0.48652 0.18482 0.25639 0.0
C1238 C 0.52099 0.18934 0.22957 0.0
C1239 C 0.51226 0.20703 0.22034 0.0
C1240 C 0.46953 0.2204 0.23797 0.0
C1241 C 0.43556 0.21613 0.26494 0.0
C1242 C 0.44405 0.19844 0.27424 0.0
C1243 C 0.60841 0.1454 0.39386 0.0
C1244 C 0.56617 0.15262 0.42047 0.0
C1245 C 0.59548 0.14458 0.3582 0.0
C1246 C 0.54072 0.15135 0.34908 0.0
C1247 C 0.49992 0.15938 0.37597 0.0
C1248 C 0.51228 0.15985 0.41122 0.0
C1249 C 0.52426 0.14955 0.31151 0.0
C1250 C 0.51165 0.16679 0.30125 0.0
C1251 C 0.51898 0.131 0.28626 0.0
C1252 C 0.5286 0.11226 0.2961 0.0
C1253 C 0.49528 0.10778 0.32343 0.0
C1254 C 0.50478 0.09013 0.3327 0.0
C1255 C 0.54713 0.07676 0.31462 0.0
C1256 C 0.57994 0.08098 0.28714 0.0
C1257 C 0.57069 0.09862 0.27781 0.0
H1258 H 0.5544 0.0631 0.32183 0.0
H1259 H 0.46284 0.2341 0.23079 0.0
H1260 H 0.38558 0.16619 0.91414 0.0
H1261 H 0.40821 0.16865 0.85365 0.0
H1262 H 0.54906 0.12646 0.84582 0.0
H1263 H 0.52704 0.12399 0.90564 0.0
H1264 H 0.58695 0.15911 0.8289 0.0
H1265 H 0.42346 0.11391 0.7989 0.0
H1266 H 0.32121 0.10261 0.80246 0.0
H1267 H 0.25616 0.15258 0.77023 0.0
H1268 H 0.35806 0.16435 0.76702 0.0
H1269 H 0.6531 0.13942 0.64122 0.0
H1270 H 0.63132 0.13816 0.7026 0.0
H1271 H 0.48555 0.17818 0.70678 0.0
H1272 H 0.50635 0.17916 0.64593 0.0
H1273 H 0.44988 0.14705 0.72601 0.0
H1274 H 0.61189 0.19235 0.75538 0.0
H1275 H 0.7136 0.20417 0.75202 0.0
H1276 H 0.78083 0.15499 0.78583 0.0
H1277 H 0.6795 0.14271 0.78891 0.0
C1278 C 0.42043 0.15714 0.89912 0.0
C1279 C 0.45476 0.145 0.91466 0.0
C1280 C 0.43351 0.15861 0.86469 0.0
C1281 C 0.48071 0.14784 0.84538 0.0
C1282 C 0.51298 0.13507 0.86036 0.0
C1283 C 0.50012 0.13363 0.89455 0.0
C1284 C 0.49886 0.1504 0.81027 0.0
C1285 C 0.55717 0.15628 0.80625 0.0
C1286 C 0.45965 0.14714 0.78104 0.0
C1287 C 0.39836 0.14013 0.78311 0.0
C1288 C 0.38733 0.12259 0.79291 0.0
C1289 C 0.32945 0.11608 0.7948 0.0
C1290 C 0.28221 0.1269 0.78669 0.0
C1291 C 0.29279 0.14424 0.77659 0.0
C1292 C 0.3506 0.15083 0.77472 0.0
C1293 C 0.61744 0.14828 0.6557 0.0
C1294 C 0.58118 0.15927 0.6389 0.0
C1295 C 0.60483 0.14752 0.69064 0.0
C1296 C 0.55641 0.15798 0.70918 0.0
C1297 C 0.52258 0.16981 0.69292 0.0
C1298 C 0.53473 0.17042 0.65819 0.0
C1299 C 0.53807 0.15578 0.74455 0.0
C1300 C 0.47971 0.14995 0.74864 0.0
C1301 C 0.57715 0.15918 0.77388 0.0
C1302 C 0.63813 0.1665 0.77198 0.0
C1303 C 0.64839 0.18396 0.76178 0.0
C1304 C 0.70596 0.19076 0.75999 0.0
C1305 C 0.75366 0.1803 0.7686 0.0
C1306 C 0.74385 0.16305 0.77911 0.0
C1307 C 0.68635 0.15617 0.7809 0.0
H1308 H 0.7982 0.1856 0.76721 0.0
H1309 H 0.23743 0.12183 0.78814 0.0
H1310 H 0.51177 0.91764 0.64885 0.0
H1311 H 0.53496 0.91449 0.7082 0.0
H1312 H 0.39315 0.87263 0.70016 0.0
H1313 H 0.36948 0.87566 0.64015 0.0
H1314 H 0.40515 0.90046 0.76889 0.0
H1315 H 0.52512 0.85522 0.68205 0.0
H1316 H 0.59327 0.84641 0.63091 0.0
H1317 H 0.72291 0.8864 0.69048 0.0
H1318 H 0.6551 0.8957 0.74182 0.0
H1319 H 0.48828 0.85645 0.90111 0.0
H1320 H 0.47057 0.85963 0.84109 0.0
H1321 H 0.61666 0.90015 0.85242 0.0
H1322 H 0.6349 0.89692 0.91305 0.0
H1323 H 0.60463 0.8741 0.78244 0.0
H1324 H 0.489 0.91818 0.87014 0.0
H1325 H 0.42119 0.92875 0.92106 0.0
H1326 H 0.2837 0.89298 0.86035 0.0
H1327 H 0.3512 0.88184 0.8094 0.0
C1328 C 0.48483 0.90795 0.6598 0.0
C1329 C 0.4391 0.89674 0.63964 0.0
C1330 C 0.4983 0.90615 0.69374 0.0
C1331 C 0.46655 0.89306 0.70825 0.0
C1332 C 0.41836 0.88275 0.68927 0.0
C1333 C 0.40474 0.88455 0.65509 0.0
C1334 C 0.48618 0.88945 0.74232 0.0
C1335 C 0.44833 0.89441 0.77178 0.0
C1336 C 0.54345 0.8822 0.74623 0.0
C1337 C 0.58481 0.87629 0.71568 0.0
C1338 C 0.56802 0.86223 0.68418 0.0
C1339 C 0.6066 0.85714 0.65516 0.0
C1340 C 0.66234 0.86588 0.65741 0.0
C1341 C 0.6797 0.87966 0.68876 0.0
C1342 C 0.64122 0.88484 0.71784 0.0
C1343 C 0.51764 0.86566 0.89051 0.0
C1344 C 0.56277 0.87653 0.91173 0.0
C1345 C 0.5073 0.86752 0.85628 0.0
C1346 C 0.54149 0.88042 0.84263 0.0
C1347 C 0.58966 0.89015 0.86259 0.0
C1348 C 0.60026 0.88822 0.89707 0.0
C1349 C 0.5232 0.88483 0.80896 0.0
C1350 C 0.56136 0.8801 0.7796 0.0
C1351 C 0.4663 0.89245 0.80522 0.0
C1352 C 0.42549 0.89903 0.836 0.0
C1353 C 0.44452 0.91241 0.86776 0.0
C1354 C 0.40609 0.91851 0.89668 0.0
C1355 C 0.34818 0.91146 0.89407 0.0
C1356 C 0.32862 0.89835 0.86248 0.0
C1357 C 0.36699 0.89214 0.83356 0.0
H1358 H 0.31843 0.9162 0.91646 0.0
H1359 H 0.69212 0.86195 0.6349 0.0
loop_
_geom_bond_atom_site_label_1
_geom_bond_atom_site_label_2
_geom_bond_distance
_geom_bond_site_symmetry_2
_ccdc_geom_bond_type
Tb0 O3 2.451 1_655 S
Tb0 O4 2.596 1_655 S
Tb0 O5 2.374 1_655 S
Tb0 O13 2.343 1_655 S
Tb0 O15 2.353 1_654 S
Tb0 O17 2.427 1_554 S
Tb0 O18 2.513 . S
C1 O5 1.251 . S
C1 O7 1.263 . S
Tb2 O4 2.343 . S
Tb2 O7 2.353 . S
Tb2 O10 2.427 . S
Tb2 O11 2.513 1_554 S
Tb2 O12 2.453 . S
Tb2 O13 2.596 . S
Tb2 O14 2.374 1_554 S
O3 Tb0 2.451 1_455 S
O3 C19 1.249 . S
O4 Tb0 2.596 1_455 S
O4 Tb2 2.343 . S
O4 C19 1.259 . S
O5 Tb0 2.374 1_455 S
O5 C1 1.251 . S
C6 O10 1.275 . S
C6 O11 1.246 1_554 S
O7 C1 1.263 . S
O7 Tb2 2.353 . S
C8 O12 1.245 . S
C8 O13 1.259 . S
C9 O14 1.250 . S
C9 O15 1.263 . S
O10 Tb2 2.427 . S
O10 C6 1.275 . S
O11 Tb2 2.513 1_556 S
O11 C6 1.246 1_556 S
O12 Tb2 2.453 . S
O12 C8 1.245 . S
O13 Tb0 2.343 1_455 S
O13 Tb2 2.596 . S
O13 C8 1.259 . S
O14 Tb2 2.374 1_556 S
O14 C9 1.250 . S
O15 Tb0 2.353 1_456 S
O15 C9 1.263 . S
C16 O17 1.275 1_554 S
C16 O18 1.246 . S
O17 Tb0 2.427 1_556 S
O17 C16 1.275 1_556 S
O18 Tb0 2.513 . S
O18 C16 1.246 . S
C19 O3 1.249 . S
C19 O4 1.259 . S
Tb20 O23 2.453 . S
Tb20 O24 2.596 . S
Tb20 O25 2.374 . S
Tb20 O33 2.343 . S
Tb20 O35 2.353 1_554 S
Tb20 O37 2.427 1_554 S
Tb20 O38 2.513 . S
C21 O25 1.251 . S
C21 O27 1.263 . S
Tb22 O24 2.343 1_455 S
Tb22 O27 2.353 1_455 S
Tb22 O30 2.427 . S
Tb22 O31 2.513 1_554 S
Tb22 O32 2.453 1_455 S
Tb22 O33 2.596 1_455 S
Tb22 O34 2.374 1_454 S
O23 Tb20 2.453 . S
O23 C39 1.245 . S
O24 Tb20 2.596 . S
O24 Tb22 2.343 1_655 S
O24 C39 1.259 . S
O25 Tb20 2.374 . S
O25 C21 1.251 . S
C26 O30 1.275 . S
C26 O31 1.246 1_554 S
O27 C21 1.263 . S
O27 Tb22 2.353 1_655 S
C28 O32 1.245 . S
C28 O33 1.259 . S
C29 O34 1.250 . S
C29 O35 1.263 . S
O30 Tb22 2.427 . S
O30 C26 1.275 . S
O31 Tb22 2.513 1_556 S
O31 C26 1.246 1_556 S
O32 Tb22 2.453 1_655 S
O32 C28 1.245 . S
O33 Tb20 2.343 . S
O33 Tb22 2.596 1_655 S
O33 C28 1.259 . S
O34 Tb22 2.374 1_656 S
O34 C29 1.250 . S
O35 Tb20 2.353 1_556 S
O35 C29 1.263 . S
C36 O37 1.275 1_554 S
C36 O38 1.246 . S
O37 Tb20 2.427 1_556 S
O37 C36 1.275 1_556 S
O38 Tb20 2.513 . S
O38 C36 1.246 . S
C39 O23 1.245 . S
C39 O24 1.259 . S
Tb40 O43 2.453 1_655 S
Tb40 O44 2.596 1_655 S
Tb40 O45 2.374 1_655 S
Tb40 O53 2.343 1_655 S
Tb40 O55 2.353 1_655 S
Tb40 O57 2.427 . S
Tb40 O58 2.513 . S
C41 O45 1.251 . S
C41 O47 1.263 . S
Tb42 O44 2.343 . S
Tb42 O47 2.353 . S
Tb42 O50 2.427 . S
Tb42 O51 2.513 . S
Tb42 O52 2.453 . S
Tb42 O53 2.596 . S
Tb42 O54 2.374 . S
O43 Tb40 2.453 1_455 S
O43 C59 1.245 . S
O44 Tb40 2.596 1_455 S
O44 Tb42 2.343 . S
O44 C59 1.259 . S
O45 Tb40 2.374 1_455 S
O45 C41 1.251 . S
C46 O50 1.275 . S
C46 O51 1.246 . S
O47 C41 1.263 . S
O47 Tb42 2.353 . S
C48 O52 1.245 . S
C48 O53 1.259 . S
C49 O54 1.250 . S
C49 O55 1.263 . S
O50 Tb42 2.427 . S
O50 C46 1.275 . S
O51 Tb42 2.513 . S
O51 C46 1.246 . S
O52 Tb42 2.453 . S
O52 C48 1.245 . S
O53 Tb40 2.343 1_455 S
O53 Tb42 2.596 . S
O53 C48 1.259 . S
O54 Tb42 2.374 . S
O54 C49 1.250 . S
O55 Tb40 2.353 1_455 S
O55 C49 1.263 . S
C56 O57 1.275 . S
C56 O58 1.246 . S
O57 Tb40 2.427 . S
O57 C56 1.275 . S
O58 Tb40 2.513 . S
O58 C56 1.246 . S
C59 O43 1.245 . S
C59 O44 1.259 . S
Tb60 O63 2.453 . S
Tb60 O64 2.596 . S
Tb60 O65 2.374 . S
Tb60 O73 2.343 . S
Tb60 O75 2.353 . S
Tb60 O77 2.427 . S
Tb60 O78 2.513 . S
C61 O65 1.251 . S
C61 O67 1.263 . S
Tb62 O64 2.343 1_455 S
Tb62 O67 2.353 1_455 S
Tb62 O70 2.427 . S
Tb62 O71 2.513 . S
Tb62 O72 2.453 1_455 S
Tb62 O73 2.596 1_455 S
Tb62 O74 2.374 1_455 S
O63 Tb60 2.453 . S
O63 C79 1.245 . S
O64 Tb60 2.596 . S
O64 Tb62 2.343 1_655 S
O64 C79 1.259 . S
O65 Tb60 2.374 . S
O65 C61 1.251 . S
C66 O70 1.275 . S
C66 O71 1.246 . S
O67 C61 1.263 . S
O67 Tb62 2.353 1_655 S
C68 O72 1.245 . S
C68 O73 1.259 . S
C69 O74 1.250 . S
C69 O75 1.263 . S
O70 Tb62 2.427 . S
O70 C66 1.275 . S
O71 Tb62 2.513 . S
O71 C66 1.246 . S
O72 Tb62 2.453 1_655 S
O72 C68 1.245 . S
O73 Tb60 2.343 . S
O73 Tb62 2.596 1_655 S
O73 C68 1.259 . S
O74 Tb62 2.374 1_655 S
O74 C69 1.250 . S
O75 Tb60 2.353 . S
O75 C69 1.263 . S
C76 O77 1.275 . S
C76 O78 1.246 . S
O77 Tb60 2.427 . S
O77 C76 1.275 . S
O78 Tb60 2.513 . S
O78 C76 1.246 . S
C79 O63 1.245 . S
C79 O64 1.259 . S
Tb80 O83 2.451 . S
Tb80 O84 2.596 . S
Tb80 O85 2.374 . S
Tb80 O93 2.343 . S
Tb80 O95 2.353 1_554 S
Tb80 O97 2.427 1_554 S
Tb80 O98 2.513 . S
C81 O85 1.251 . S
C81 O87 1.263 . S
Tb82 O84 2.343 . S
Tb82 O87 2.353 . S
Tb82 O90 2.427 . S
Tb82 O91 2.513 1_554 S
Tb82 O92 2.453 . S
Tb82 O93 2.596 . S
Tb82 O94 2.374 1_554 S
O83 Tb80 2.451 . S
O83 C99 1.249 . S
O84 Tb80 2.596 . S
O84 Tb82 2.343 . S
O84 C99 1.259 . S
O85 Tb80 2.374 . S
O85 C81 1.251 . S
C86 O90 1.275 . S
C86 O91 1.246 1_554 S
O87 C81 1.263 . S
O87 Tb82 2.353 . S
C88 O92 1.245 . S
C88 O93 1.259 . S
C89 O94 1.250 . S
C89 O95 1.263 . S
O90 Tb82 2.427 . S
O90 C86 1.275 . S
O91 Tb82 2.513 1_556 S
O91 C86 1.246 1_556 S
O92 Tb82 2.453 . S
O92 C88 1.245 . S
O93 Tb80 2.343 . S
O93 Tb82 2.596 . S
O93 C88 1.259 . S
O94 Tb82 2.374 1_556 S
O94 C89 1.250 . S
O95 Tb80 2.353 1_556 S
O95 C89 1.263 . S
C96 O97 1.275 1_554 S
C96 O98 1.246 . S
O97 Tb80 2.427 1_556 S
O97 C96 1.275 1_556 S
O98 Tb80 2.513 . S
O98 C96 1.246 . S
C99 O83 1.249 . S
C99 O84 1.259 . S
Tb100 O103 2.453 . S
Tb100 O104 2.596 . S
Tb100 O105 2.374 . S
Tb100 O113 2.343 . S
Tb100 O115 2.353 1_554 S
Tb100 O117 2.427 1_554 S
Tb100 O118 2.513 . S
C101 O105 1.251 . S
C101 O107 1.263 . S
Tb102 O104 2.343 . S
Tb102 O107 2.353 . S
Tb102 O110 2.427 . S
Tb102 O111 2.513 1_554 S
Tb102 O112 2.453 . S
Tb102 O113 2.596 . S
Tb102 O114 2.374 1_554 S
O103 Tb100 2.453 . S
O103 C119 1.245 . S
O104 Tb100 2.596 . S
O104 Tb102 2.343 . S
O104 C119 1.259 . S
O105 Tb100 2.374 . S
O105 C101 1.251 . S
C106 O110 1.275 . S
C106 O111 1.246 1_554 S
O107 C101 1.263 . S
O107 Tb102 2.353 . S
C108 O112 1.245 . S
C108 O113 1.259 . S
C109 O114 1.250 . S
C109 O115 1.263 . S
O110 Tb102 2.427 . S
O110 C106 1.275 . S
O111 Tb102 2.513 1_556 S
O111 C106 1.246 1_556 S
O112 Tb102 2.453 . S
O112 C108 1.245 . S
O113 Tb100 2.343 . S
O113 Tb102 2.596 . S
O113 C108 1.259 . S
O114 Tb102 2.374 1_556 S
O114 C109 1.250 . S
O115 Tb100 2.353 1_556 S
O115 C109 1.263 . S
C116 O117 1.275 1_554 S
C116 O118 1.246 . S
O117 Tb100 2.427 1_556 S
O117 C116 1.275 1_556 S
O118 Tb100 2.513 . S
O118 C116 1.246 . S
C119 O103 1.245 . S
C119 O104 1.259 . S
Tb120 O123 2.453 . S
Tb120 O124 2.596 . S
Tb120 O125 2.374 . S
Tb120 O133 2.343 . S
Tb120 O135 2.353 . S
Tb120 O137 2.427 . S
Tb120 O138 2.513 . S
C121 O125 1.251 . S
C121 O127 1.263 . S
Tb122 O124 2.343 . S
Tb122 O127 2.353 . S
Tb122 O130 2.427 . S
Tb122 O131 2.513 . S
Tb122 O132 2.453 . S
Tb122 O133 2.596 . S
Tb122 O134 2.374 . S
O123 Tb120 2.453 . S
O123 C139 1.245 . S
O124 Tb120 2.596 . S
O124 Tb122 2.343 . S
O124 C139 1.259 . S
O125 Tb120 2.374 . S
O125 C121 1.251 . S
C126 O130 1.275 . S
C126 O131 1.246 . S
O127 C121 1.263 . S
O127 Tb122 2.353 . S
C128 O132 1.245 . S
C128 O133 1.259 . S
C129 O134 1.250 . S
C129 O135 1.263 . S
O130 Tb122 2.427 . S
O130 C126 1.275 . S
O131 Tb122 2.513 . S
O131 C126 1.246 . S
O132 Tb122 2.453 . S
O132 C128 1.245 . S
O133 Tb120 2.343 . S
O133 Tb122 2.596 . S
O133 C128 1.259 . S
O134 Tb122 2.374 . S
O134 C129 1.250 . S
O135 Tb120 2.353 . S
O135 C129 1.263 . S
C136 O137 1.275 . S
C136 O138 1.246 . S
O137 Tb120 2.427 . S
O137 C136 1.275 . S
O138 Tb120 2.513 . S
O138 C136 1.246 . S
C139 O123 1.245 . S
C139 O124 1.259 . S
Tb140 O143 2.453 . S
Tb140 O144 2.596 . S
Tb140 O145 2.374 . S
Tb140 O153 2.343 . S
Tb140 O155 2.353 . S
Tb140 O157 2.427 . S
Tb140 O158 2.513 . S
C141 O145 1.251 . S
C141 O147 1.263 . S
Tb142 O144 2.343 . S
Tb142 O147 2.353 . S
Tb142 O150 2.427 . S
Tb142 O151 2.513 . S
Tb142 O152 2.453 . S
Tb142 O153 2.596 . S
Tb142 O154 2.374 . S
O143 Tb140 2.453 . S
O143 C159 1.245 . S
O144 Tb140 2.596 . S
O144 Tb142 2.343 . S
O144 C159 1.259 . S
O145 Tb140 2.374 . S
O145 C141 1.251 . S
C146 O150 1.275 . S
C146 O151 1.246 . S
O147 C141 1.263 . S
O147 Tb142 2.353 . S
C148 O152 1.245 . S
C148 O153 1.259 . S
C149 O154 1.250 . S
C149 O155 1.263 . S
O150 Tb142 2.427 . S
O150 C146 1.275 . S
O151 Tb142 2.513 . S
O151 C146 1.246 . S
O152 Tb142 2.453 . S
O152 C148 1.245 . S
O153 Tb140 2.343 . S
O153 Tb142 2.596 . S
O153 C148 1.259 . S
O154 Tb142 2.374 . S
O154 C149 1.250 . S
O155 Tb140 2.353 . S
O155 C149 1.263 . S
C156 O157 1.275 . S
C156 O158 1.246 . S
O157 Tb140 2.427 . S
O157 C156 1.275 . S
O158 Tb140 2.513 . S
O158 C156 1.246 . S
C159 O143 1.245 . S
C159 O144 1.259 . S
H160 C178 0.951 . S
H161 C180 0.951 . S
H162 C182 0.950 . S
H163 C183 0.950 . S
H164 C185 0.950 . S
H165 C188 0.950 . S
H166 C189 0.950 . S
H167 C191 0.950 . S
H168 C192 0.950 . S
H169 C193 0.951 . S
H170 C195 0.951 . S
H171 C197 0.950 . S
H172 C198 0.950 . S
H173 C200 0.950 . S
H174 C203 0.950 . S
H175 C204 0.950 . S
H176 C206 0.950 . S
H177 C207 0.950 . S
C178 H160 0.951 . S
C178 C179 1.366 . S
C178 C180 1.388 . S
C179 C178 1.366 . S
C179 C183 1.385 . S
C180 H161 0.951 . S
C180 C178 1.388 . S
C180 C181 1.366 . S
C181 C180 1.366 . S
C181 C182 1.414 . S
C181 C184 1.499 . S
C182 H162 0.950 . S
C182 C181 1.414 . S
C182 C183 1.374 . S
C183 H163 0.950 . S
C183 C179 1.385 . S
C183 C182 1.374 . S
C184 C181 1.499 . S
C184 C185 1.373 . S
C184 C186 1.389 1_554 S
C185 H164 0.950 . S
C185 C184 1.373 . S
C185 C201 1.377 . S
C186 C184 1.389 1_556 S
C186 C187 1.524 . S
C186 C200 1.377 . S
C187 C186 1.524 . S
C187 C188 1.397 . S
C187 C192 1.363 . S
C188 H165 0.950 . S
C188 C187 1.397 . S
C188 C189 1.334 . S
C189 H166 0.950 . S
C189 C188 1.334 . S
C189 C190 1.287 . S
C190 C189 1.287 . S
C190 C191 1.524 . S
C190 H209 0.913 . S
C191 H167 0.950 . S
C191 C190 1.524 . S
C191 C192 1.415 . S
C192 H168 0.950 . S
C192 C187 1.363 . S
C192 C191 1.415 . S
C193 H169 0.951 . S
C193 C194 1.366 . S
C193 C195 1.388 . S
C194 C193 1.366 . S
C194 C198 1.385 . S
C195 H170 0.951 . S
C195 C193 1.388 . S
C195 C196 1.366 . S
C196 C195 1.366 . S
C196 C197 1.414 . S
C196 C199 1.499 . S
C197 H171 0.950 . S
C197 C196 1.414 . S
C197 C198 1.374 . S
C198 H172 0.950 . S
C198 C194 1.385 . S
C198 C197 1.374 . S
C199 C196 1.499 . S
C199 C200 1.373 1_554 S
C199 C201 1.389 . S
C200 H173 0.950 . S
C200 C186 1.377 . S
C200 C199 1.373 1_556 S
C201 C185 1.377 . S
C201 C199 1.389 . S
C201 C202 1.524 . S
C202 C201 1.524 . S
C202 C203 1.397 . S
C202 C207 1.363 . S
C203 H174 0.950 . S
C203 C202 1.397 . S
C203 C204 1.334 . S
C204 H175 0.950 . S
C204 C203 1.334 . S
C204 C205 1.287 . S
C205 C204 1.287 . S
C205 C206 1.524 . S
C205 H208 0.999 . S
C206 H176 0.950 . S
C206 C205 1.524 . S
C206 C207 1.415 . S
C207 H177 0.950 . S
C207 C202 1.363 . S
C207 C206 1.415 . S
H208 C205 0.999 . S
H209 C190 0.913 . S
H210 C228 0.951 . S
H211 C230 0.951 . S
H212 C232 0.950 1_556 S
H213 C233 0.950 1_556 S
H214 C235 0.950 . S
H215 C238 0.950 . S
H216 C239 0.950 . S
H217 C241 0.950 . S
H218 C242 0.950 . S
H219 C243 0.951 . S
H220 C245 0.951 . S
H221 C247 0.950 . S
H222 C248 0.950 . S
H223 C250 0.950 . S
H224 C253 0.950 . S
H225 C254 0.950 . S
H226 C256 0.950 . S
H227 C257 0.950 . S
C228 H210 0.951 . S
C228 C229 1.366 . S
C228 C230 1.388 . S
C229 C228 1.366 . S
C229 C233 1.385 . S
C230 H211 0.951 . S
C230 C228 1.388 . S
C230 C231 1.366 . S
C231 C230 1.366 . S
C231 C232 1.414 . S
C231 C234 1.499 . S
C232 H212 0.950 1_554 S
C232 C231 1.414 . S
C232 C233 1.374 . S
C233 H213 0.950 1_554 S
C233 C229 1.385 . S
C233 C232 1.374 . S
C234 C231 1.499 . S
C234 C235 1.373 1_554 S
C234 C236 1.389 . S
C235 H214 0.950 . S
C235 C234 1.373 1_556 S
C235 C251 1.377 . S
C236 C234 1.389 . S
C236 C237 1.524 . S
C236 C250 1.377 . S
C237 C236 1.524 . S
C237 C238 1.397 . S
C237 C242 1.363 . S
C238 H215 0.950 . S
C238 C237 1.397 . S
C238 C239 1.334 . S
C239 H216 0.950 . S
C239 C238 1.334 . S
C239 C240 1.287 . S
C240 C239 1.287 . S
C240 C241 1.524 . S
C240 H259 0.913 . S
C241 H217 0.950 . S
C241 C240 1.524 . S
C241 C242 1.415 . S
C242 H218 0.950 . S
C242 C237 1.363 . S
C242 C241 1.415 . S
C243 H219 0.951 . S
C243 C244 1.366 1_556 S
C243 C245 1.388 . S
C244 C243 1.366 1_554 S
C244 C248 1.385 . S
C245 H220 0.951 . S
C245 C243 1.388 . S
C245 C246 1.366 1_556 S
C246 C245 1.366 1_554 S
C246 C247 1.414 . S
C246 C249 1.499 . S
C247 H221 0.950 . S
C247 C246 1.414 . S
C247 C248 1.374 . S
C248 H222 0.950 . S
C248 C244 1.385 . S
C248 C247 1.374 . S
C249 C246 1.499 . S
C249 C250 1.373 . S
C249 C251 1.389 1_554 S
C250 H223 0.950 . S
C250 C236 1.377 . S
C250 C249 1.373 . S
C251 C235 1.377 . S
C251 C249 1.389 1_556 S
C251 C252 1.524 . S
C252 C251 1.524 . S
C252 C253 1.397 . S
C252 C257 1.363 . S
C253 H224 0.950 . S
C253 C252 1.397 . S
C253 C254 1.334 . S
C254 H225 0.950 . S
C254 C253 1.334 . S
C254 C255 1.287 . S
C255 C254 1.287 . S
C255 C256 1.524 . S
C255 H258 0.999 . S
C256 H226 0.950 . S
C256 C255 1.524 . S
C256 C257 1.415 . S
C257 H227 0.950 . S
C257 C252 1.363 . S
C257 C256 1.415 . S
H258 C255 0.999 . S
H259 C240 0.913 . S
H260 C278 0.951 . S
H261 C280 0.951 . S
H262 C282 0.950 . S
H263 C283 0.950 . S
H264 C285 0.950 . S
H265 C288 0.950 . S
H266 C289 0.950 . S
H267 C291 0.950 . S
H268 C292 0.950 . S
H269 C293 0.951 . S
H270 C295 0.951 . S
H271 C297 0.950 . S
H272 C298 0.950 . S
H273 C300 0.950 . S
H274 C303 0.950 . S
H275 C304 0.950 . S
H276 C306 0.950 . S
H277 C307 0.950 . S
C278 H260 0.951 . S
C278 C279 1.366 . S
C278 C280 1.388 . S
C279 C278 1.366 . S
C279 C283 1.385 . S
C280 H261 0.951 . S
C280 C278 1.388 . S
C280 C281 1.366 . S
C281 C280 1.366 . S
C281 C282 1.414 . S
C281 C284 1.499 . S
C282 H262 0.950 . S
C282 C281 1.414 . S
C282 C283 1.374 . S
C283 H263 0.950 . S
C283 C279 1.385 . S
C283 C282 1.374 . S
C284 C281 1.499 . S
C284 C285 1.373 . S
C284 C286 1.389 . S
C285 H264 0.950 . S
C285 C284 1.373 . S
C285 C301 1.377 . S
C286 C284 1.389 . S
C286 C287 1.524 . S
C286 C300 1.377 . S
C287 C286 1.524 . S
C287 C288 1.397 . S
C287 C292 1.363 . S
C288 H265 0.950 . S
C288 C287 1.397 . S
C288 C289 1.334 . S
C289 H266 0.950 . S
C289 C288 1.334 . S
C289 C290 1.287 . S
C290 C289 1.287 . S
C290 C291 1.524 . S
C290 H309 0.913 . S
C291 H267 0.950 . S
C291 C290 1.524 . S
C291 C292 1.415 . S
C292 H268 0.950 . S
C292 C287 1.363 . S
C292 C291 1.415 . S
C293 H269 0.951 . S
C293 C294 1.366 . S
C293 C295 1.388 . S
C294 C293 1.366 . S
C294 C298 1.385 . S
C295 H270 0.951 . S
C295 C293 1.388 . S
C295 C296 1.366 . S
C296 C295 1.366 . S
C296 C297 1.414 . S
C296 C299 1.499 . S
C297 H271 0.950 . S
C297 C296 1.414 . S
C297 C298 1.374 . S
C298 H272 0.950 . S
C298 C294 1.385 . S
C298 C297 1.374 . S
C299 C296 1.499 . S
C299 C300 1.373 . S
C299 C301 1.389 . S
C300 H273 0.950 . S
C300 C286 1.377 . S
C300 C299 1.373 . S
C301 C285 1.377 . S
C301 C299 1.389 . S
C301 C302 1.524 . S
C302 C301 1.524 . S
C302 C303 1.397 . S
C302 C307 1.363 . S
C303 H274 0.950 . S
C303 C302 1.397 . S
C303 C304 1.334 . S
C304 H275 0.950 . S
C304 C303 1.334 . S
C304 C305 1.287 . S
C305 C304 1.287 . S
C305 C306 1.524 . S
C305 H308 0.999 . S
C306 H276 0.950 . S
C306 C305 1.524 . S
C306 C307 1.415 . S
C307 H277 0.950 . S
C307 C302 1.363 . S
C307 C306 1.415 . S
H308 C305 0.999 . S
H309 C290 0.913 . S
H310 C328 0.951 . S
H311 C330 0.951 . S
H312 C332 0.950 . S
H313 C333 0.950 . S
H314 C335 0.950 . S
H315 C338 0.950 . S
H316 C339 0.950 . S
H317 C341 0.950 . S
H318 C342 0.950 . S
H319 C343 0.951 . S
H320 C345 0.951 . S
H321 C347 0.950 . S
H322 C348 0.950 . S
H323 C350 0.950 . S
H324 C353 0.950 . S
H325 C354 0.950 . S
H326 C356 0.950 . S
H327 C357 0.950 . S
C328 H310 0.951 . S
C328 C329 1.366 . S
C328 C330 1.388 . S
C329 C328 1.366 . S
C329 C333 1.385 . S
C330 H311 0.951 . S
C330 C328 1.388 . S
C330 C331 1.366 . S
C331 C330 1.366 . S
C331 C332 1.414 . S
C331 C334 1.499 . S
C332 H312 0.950 . S
C332 C331 1.414 . S
C332 C333 1.374 . S
C333 H313 0.950 . S
C333 C329 1.385 . S
C333 C332 1.374 . S
C334 C331 1.499 . S
C334 C335 1.373 . S
C334 C336 1.389 . S
C335 H314 0.950 . S
C335 C334 1.373 . S
C335 C351 1.377 . S
C336 C334 1.389 . S
C336 C337 1.524 . S
C336 C350 1.377 . S
C337 C336 1.524 . S
C337 C338 1.397 . S
C337 C342 1.363 . S
C338 H315 0.950 . S
C338 C337 1.397 . S
C338 C339 1.334 . S
C339 H316 0.950 . S
C339 C338 1.334 . S
C339 C340 1.287 . S
C340 C339 1.287 . S
C340 C341 1.524 . S
C340 H359 0.913 . S
C341 H317 0.950 . S
C341 C340 1.524 . S
C341 C342 1.415 . S
C342 H318 0.950 . S
C342 C337 1.363 . S
C342 C341 1.415 . S
C343 H319 0.951 . S
C343 C344 1.366 . S
C343 C345 1.388 . S
C344 C343 1.366 . S
C344 C348 1.385 . S
C345 H320 0.951 . S
C345 C343 1.388 . S
C345 C346 1.366 . S
C346 C345 1.366 . S
C346 C347 1.414 . S
C346 C349 1.499 . S
C347 H321 0.950 . S
C347 C346 1.414 . S
C347 C348 1.374 . S
C348 H322 0.950 . S
C348 C344 1.385 . S
C348 C347 1.374 . S
C349 C346 1.499 . S
C349 C350 1.373 . S
C349 C351 1.389 . S
C350 H323 0.950 . S
C350 C336 1.377 . S
C350 C349 1.373 . S
C351 C335 1.377 . S
C351 C349 1.389 . S
C351 C352 1.524 . S
C352 C351 1.524 . S
C352 C353 1.397 . S
C352 C357 1.363 . S
C353 H324 0.950 . S
C353 C352 1.397 . S
C353 C354 1.334 . S
C354 H325 0.950 . S
C354 C353 1.334 . S
C354 C355 1.287 . S
C355 C354 1.287 . S
C355 C356 1.524 . S
C355 H358 0.999 . S
C356 H326 0.950 . S
C356 C355 1.524 . S
C356 C357 1.415 . S
C357 H327 0.950 . S
C357 C352 1.363 . S
C357 C356 1.415 . S
H358 C355 0.999 . S
H359 C340 0.913 . S
H360 C378 0.951 . S
H361 C380 0.951 . S
H362 C382 0.950 . S
H363 C383 0.950 . S
H364 C385 0.950 . S
H365 C388 0.950 . S
H366 C389 0.950 . S
H367 C391 0.950 . S
H368 C392 0.950 . S
H369 C393 0.951 1_556 S
H370 C395 0.951 1_556 S
H371 C397 0.950 . S
H372 C398 0.950 . S
H373 C400 0.950 . S
H374 C403 0.950 . S
H375 C404 0.950 . S
H376 C406 0.950 . S
H377 C407 0.950 . S
C378 H360 0.951 . S
C378 C379 1.366 . S
C378 C380 1.388 . S
C379 C378 1.366 . S
C379 C383 1.385 . S
C380 H361 0.951 . S
C380 C378 1.388 . S
C380 C381 1.366 . S
C381 C380 1.366 . S
C381 C382 1.414 . S
C381 C384 1.495 1_655 S
C382 H362 0.950 . S
C382 C381 1.414 . S
C382 C383 1.374 . S
C383 H363 0.950 . S
C383 C379 1.385 . S
C383 C382 1.374 . S
C384 C381 1.495 1_455 S
C384 C385 1.375 1_554 S
C384 C386 1.391 . S
C385 H364 0.950 . S
C385 C384 1.375 1_556 S
C385 C401 1.377 . S
C386 C384 1.391 . S
C386 C387 1.524 . S
C386 C400 1.377 . S
C387 C386 1.524 . S
C387 C388 1.397 1_455 S
C387 C392 1.363 . S
C388 H365 0.950 . S
C388 C387 1.397 1_655 S
C388 C389 1.334 . S
C389 H366 0.950 . S
C389 C388 1.334 . S
C389 C390 1.287 . S
C390 C389 1.287 . S
C390 C391 1.524 1_655 S
C390 H409 0.913 . S
C391 H367 0.950 . S
C391 C390 1.524 1_455 S
C391 C392 1.415 . S
C392 H368 0.950 . S
C392 C387 1.363 . S
C392 C391 1.415 . S
C393 H369 0.951 1_554 S
C393 C394 1.366 . S
C393 C395 1.388 . S
C394 C393 1.366 . S
C394 C398 1.385 . S
C395 H370 0.951 1_554 S
C395 C393 1.388 . S
C395 C396 1.366 . S
C396 C395 1.366 . S
C396 C397 1.414 . S
C396 C399 1.499 . S
C397 H371 0.950 . S
C397 C396 1.414 . S
C397 C398 1.374 . S
C398 H372 0.950 . S
C398 C394 1.385 . S
C398 C397 1.374 . S
C399 C396 1.499 . S
C399 C400 1.373 . S
C399 C401 1.389 1_554 S
C400 H373 0.950 . S
C400 C386 1.377 . S
C400 C399 1.373 . S
C401 C385 1.377 . S
C401 C399 1.389 1_556 S
C401 C402 1.524 . S
C402 C401 1.524 . S
C402 C403 1.397 . S
C402 C407 1.363 . S
C403 H374 0.950 . S
C403 C402 1.397 . S
C403 C404 1.334 . S
C404 H375 0.950 . S
C404 C403 1.334 . S
C404 C405 1.287 . S
C405 C404 1.287 . S
C405 C406 1.524 . S
C405 H408 0.999 . S
C406 H376 0.950 . S
C406 C405 1.524 . S
C406 C407 1.415 . S
C407 H377 0.950 . S
C407 C402 1.363 . S
C407 C406 1.415 . S
H408 C405 0.999 . S
H409 C390 0.913 . S
H410 C428 0.951 . S
H411 C430 0.951 . S
H412 C432 0.950 . S
H413 C433 0.950 . S
H414 C435 0.954 1_556 S
H415 C438 0.950 . S
H416 C439 0.950 . S
H417 C441 0.950 . S
H418 C442 0.950 . S
H419 C443 0.951 . S
H420 C445 0.951 . S
H421 C447 0.950 . S
H422 C448 0.950 . S
H423 C450 0.950 . S
H424 C453 0.950 . S
H425 C454 0.950 . S
H426 C456 0.950 . S
H427 C457 0.950 1_554 S
C428 H410 0.951 . S
C428 C429 1.366 . S
C428 C430 1.388 . S
C429 C428 1.366 . S
C429 C433 1.385 . S
C430 H411 0.951 . S
C430 C428 1.388 . S
C430 C431 1.366 . S
C431 C430 1.366 . S
C431 C432 1.414 . S
C431 C434 1.493 1_455 S
C432 H412 0.950 . S
C432 C431 1.414 . S
C432 C433 1.374 . S
C433 H413 0.950 . S
C433 C429 1.385 . S
C433 C432 1.374 . S
C434 C431 1.493 1_655 S
C434 C435 1.376 . S
C434 C436 1.393 . S
C435 H414 0.954 1_554 S
C435 C434 1.376 . S
C435 C451 1.377 . S
C436 C434 1.393 . S
C436 C437 1.524 . S
C436 C450 1.377 . S
C437 C436 1.524 . S
C437 C438 1.397 1_655 S
C437 C442 1.363 . S
C438 H415 0.950 . S
C438 C437 1.397 1_455 S
C438 C439 1.334 . S
C439 H416 0.950 . S
C439 C438 1.334 . S
C439 C440 1.287 . S
C440 C439 1.287 . S
C440 C441 1.524 1_455 S
C440 H459 0.913 . S
C441 H417 0.950 . S
C441 C440 1.524 1_655 S
C441 C442 1.415 . S
C442 H418 0.950 . S
C442 C437 1.363 . S
C442 C441 1.415 . S
C443 H419 0.951 . S
C443 C444 1.366 . S
C443 C445 1.388 . S
C444 C443 1.366 . S
C444 C448 1.385 . S
C445 H420 0.951 . S
C445 C443 1.388 . S
C445 C446 1.366 . S
C446 C445 1.366 . S
C446 C447 1.414 . S
C446 C449 1.499 . S
C447 H421 0.950 . S
C447 C446 1.414 . S
C447 C448 1.374 . S
C448 H422 0.950 . S
C448 C444 1.385 . S
C448 C447 1.374 . S
C449 C446 1.499 . S
C449 C450 1.373 . S
C449 C451 1.389 . S
C450 H423 0.950 . S
C450 C436 1.377 . S
C450 C449 1.373 . S
C451 C435 1.377 . S
C451 C449 1.389 . S
C451 C452 1.524 1_554 S
C452 C451 1.524 1_556 S
C452 C453 1.397 . S
C452 C457 1.363 . S
C453 H424 0.950 . S
C453 C452 1.397 . S
C453 C454 1.334 . S
C454 H425 0.950 . S
C454 C453 1.334 . S
C454 C455 1.287 . S
C455 C454 1.287 . S
C455 C456 1.524 . S
C455 H458 0.999 . S
C456 H426 0.950 . S
C456 C455 1.524 . S
C456 C457 1.415 . S
C457 H427 0.950 1_556 S
C457 C452 1.363 . S
C457 C456 1.415 . S
H458 C455 0.999 . S
H459 C440 0.913 . S
H460 C478 0.951 . S
H461 C480 0.951 . S
H462 C482 0.950 . S
H463 C483 0.950 . S
H464 C485 0.950 . S
H465 C488 0.950 . S
H466 C489 0.950 . S
H467 C491 0.950 . S
H468 C492 0.950 . S
H469 C493 0.951 . S
H470 C495 0.951 . S
H471 C497 0.950 . S
H472 C498 0.950 . S
H473 C500 0.950 . S
H474 C503 0.950 . S
H475 C504 0.950 . S
H476 C506 0.950 . S
H477 C507 0.950 . S
C478 H460 0.951 . S
C478 C479 1.366 . S
C478 C480 1.388 . S
C479 C478 1.366 . S
C479 C483 1.385 . S
C480 H461 0.951 . S
C480 C478 1.388 . S
C480 C481 1.366 . S
C481 C480 1.366 . S
C481 C482 1.414 . S
C481 C484 1.499 . S
C482 H462 0.950 . S
C482 C481 1.414 . S
C482 C483 1.374 . S
C483 H463 0.950 . S
C483 C479 1.385 . S
C483 C482 1.374 . S
C484 C481 1.499 . S
C484 C485 1.373 . S
C484 C486 1.389 . S
C485 H464 0.950 . S
C485 C484 1.373 . S
C485 C501 1.377 . S
C486 C484 1.389 . S
C486 C487 1.524 . S
C486 C500 1.377 . S
C487 C486 1.524 . S
C487 C488 1.397 . S
C487 C492 1.363 . S
C488 H465 0.950 . S
C488 C487 1.397 . S
C488 C489 1.334 . S
C489 H466 0.950 . S
C489 C488 1.334 . S
C489 C490 1.287 . S
C490 C489 1.287 . S
C490 C491 1.524 . S
C490 H509 0.913 . S
C491 H467 0.950 . S
C491 C490 1.524 . S
C491 C492 1.415 . S
C492 H468 0.950 . S
C492 C487 1.363 . S
C492 C491 1.415 . S
C493 H469 0.951 . S
C493 C494 1.366 . S
C493 C495 1.388 . S
C494 C493 1.366 . S
C494 C498 1.385 . S
C495 H470 0.951 . S
C495 C493 1.388 . S
C495 C496 1.366 . S
C496 C495 1.366 . S
C496 C497 1.414 . S
C496 C499 1.484 1_655 S
C497 H471 0.950 . S
C497 C496 1.414 . S
C497 C498 1.374 . S
C498 H472 0.950 . S
C498 C494 1.385 . S
C498 C497 1.374 . S
C499 C496 1.484 1_455 S
C499 C500 1.381 . S
C499 C501 1.396 . S
C500 H473 0.950 . S
C500 C486 1.377 . S
C500 C499 1.381 . S
C501 C485 1.377 . S
C501 C499 1.396 . S
C501 C502 1.524 1_455 S
C502 C501 1.524 1_655 S
C502 C503 1.397 . S
C502 C507 1.363 1_655 S
C503 H474 0.950 . S
C503 C502 1.397 . S
C503 C504 1.334 . S
C504 H475 0.950 . S
C504 C503 1.334 . S
C504 C505 1.287 . S
C505 C504 1.287 . S
C505 C506 1.524 . S
C505 H508 0.999 . S
C506 H476 0.950 . S
C506 C505 1.524 . S
C506 C507 1.415 1_655 S
C507 H477 0.950 . S
C507 C502 1.363 1_455 S
C507 C506 1.415 1_455 S
H508 C505 0.999 . S
H509 C490 0.913 . S
H510 C528 0.951 . S
H511 C530 0.951 . S
H512 C532 0.950 . S
H513 C533 0.950 . S
H514 C535 0.950 . S
H515 C538 0.950 . S
H516 C539 0.950 . S
H517 C541 0.950 . S
H518 C542 0.950 . S
H519 C543 0.951 . S
H520 C545 0.951 . S
H521 C547 0.950 . S
H522 C548 0.950 . S
H523 C550 0.950 . S
H524 C553 0.950 . S
H525 C554 0.950 . S
H526 C556 0.950 . S
H527 C557 0.950 . S
C528 H510 0.951 . S
C528 C529 1.366 . S
C528 C530 1.388 . S
C529 C528 1.366 . S
C529 C533 1.385 . S
C530 H511 0.951 . S
C530 C528 1.388 . S
C530 C531 1.366 . S
C531 C530 1.366 . S
C531 C532 1.414 . S
C531 C534 1.499 . S
C532 H512 0.950 . S
C532 C531 1.414 . S
C532 C533 1.374 . S
C533 H513 0.950 . S
C533 C529 1.385 . S
C533 C532 1.374 . S
C534 C531 1.499 . S
C534 C535 1.373 . S
C534 C536 1.389 . S
C535 H514 0.950 . S
C535 C534 1.373 . S
C535 C551 1.377 . S
C536 C534 1.389 . S
C536 C537 1.524 . S
C536 C550 1.377 . S
C537 C536 1.524 . S
C537 C538 1.397 . S
C537 C542 1.363 . S
C538 H515 0.950 . S
C538 C537 1.397 . S
C538 C539 1.334 . S
C539 H516 0.950 . S
C539 C538 1.334 . S
C539 C540 1.287 . S
C540 C539 1.287 . S
C540 C541 1.524 . S
C540 H559 0.913 . S
C541 H517 0.950 . S
C541 C540 1.524 . S
C541 C542 1.415 . S
C542 H518 0.950 . S
C542 C537 1.363 . S
C542 C541 1.415 . S
C543 H519 0.951 . S
C543 C544 1.366 . S
C543 C545 1.388 . S
C544 C543 1.366 . S
C544 C548 1.385 . S
C545 H520 0.951 . S
C545 C543 1.388 . S
C545 C546 1.366 . S
C546 C545 1.366 . S
C546 C547 1.414 . S
C546 C549 1.485 1_455 S
C547 H521 0.950 . S
C547 C546 1.414 . S
C547 C548 1.374 . S
C548 H522 0.950 . S
C548 C544 1.385 . S
C548 C547 1.374 . S
C549 C546 1.485 1_655 S
C549 C550 1.381 . S
C549 C551 1.396 . S
C550 H523 0.950 . S
C550 C536 1.377 . S
C550 C549 1.381 . S
C551 C535 1.377 . S
C551 C549 1.396 . S
C551 C552 1.524 1_655 S
C552 C551 1.524 1_455 S
C552 C553 1.397 . S
C552 C557 1.363 1_455 S
C553 H524 0.950 . S
C553 C552 1.397 . S
C553 C554 1.334 . S
C554 H525 0.950 . S
C554 C553 1.334 . S
C554 C555 1.287 . S
C555 C554 1.287 . S
C555 C556 1.524 . S
C555 H558 0.999 . S
C556 H526 0.950 . S
C556 C555 1.524 . S
C556 C557 1.415 1_455 S
C557 H527 0.950 . S
C557 C552 1.363 1_655 S
C557 C556 1.415 1_655 S
H558 C555 0.999 . S
H559 C540 0.913 . S
H560 C578 0.939 1_556 S
H561 C580 0.963 . S
H562 C582 0.950 . S
H563 C583 0.950 . S
H564 C585 0.951 . S
H565 C588 0.950 . S
H566 C589 0.950 . S
H567 C591 0.950 . S
H568 C592 0.950 . S
H569 C593 0.951 . S
H570 C595 0.951 . S
H571 C597 0.950 . S
H572 C598 0.950 . S
H573 C600 0.951 . S
H574 C603 0.950 . S
H575 C604 0.950 . S
H576 C606 0.950 . S
H577 C607 0.950 . S
C578 H560 0.939 1_554 S
C578 C579 1.372 . S
C578 C580 1.399 1_554 S
C579 C578 1.372 . S
C579 C583 1.386 1_455 S
C580 H561 0.963 . S
C580 C578 1.399 1_556 S
C580 C581 1.347 1_456 S
C581 C580 1.347 1_654 S
C581 C582 1.414 . S
C581 C584 1.499 . S
C582 H562 0.950 . S
C582 C581 1.414 . S
C582 C583 1.374 . S
C583 H563 0.950 . S
C583 C579 1.386 1_655 S
C583 C582 1.374 . S
C584 C581 1.499 . S
C584 C585 1.372 1_655 S
C584 C586 1.389 1_554 S
C585 H564 0.951 . S
C585 C584 1.372 1_455 S
C585 C601 1.378 . S
C586 C584 1.389 1_556 S
C586 C587 1.524 . S
C586 C600 1.378 . S
C587 C586 1.524 . S
C587 C588 1.397 . S
C587 C592 1.363 1_655 S
C588 H565 0.950 . S
C588 C587 1.397 . S
C588 C589 1.334 . S
C589 H566 0.950 . S
C589 C588 1.334 . S
C589 C590 1.287 . S
C590 C589 1.287 . S
C590 C591 1.524 1_655 S
C590 H609 0.913 . S
C591 H567 0.950 . S
C591 C590 1.524 1_455 S
C591 C592 1.415 . S
C592 H568 0.950 . S
C592 C587 1.363 1_455 S
C592 C591 1.415 . S
C593 H569 0.951 . S
C593 C594 1.365 . S
C593 C595 1.388 . S
C594 C593 1.365 . S
C594 C598 1.386 1_654 S
C595 H570 0.951 . S
C595 C593 1.388 . S
C595 C596 1.366 1_655 S
C596 C595 1.366 1_455 S
C596 C597 1.414 1_554 S
C596 C599 1.499 . S
C597 H571 0.950 . S
C597 C596 1.414 1_556 S
C597 C598 1.374 . S
C598 H572 0.950 . S
C598 C594 1.386 1_456 S
C598 C597 1.374 . S
C599 C596 1.499 . S
C599 C600 1.372 1_454 S
C599 C601 1.389 . S
C600 H573 0.951 . S
C600 C586 1.378 . S
C600 C599 1.372 1_656 S
C601 C585 1.378 . S
C601 C599 1.389 . S
C601 C602 1.524 . S
C602 C601 1.524 . S
C602 C603 1.397 . S
C602 C607 1.363 1_455 S
C603 H574 0.950 . S
C603 C602 1.397 . S
C603 C604 1.334 . S
C604 H575 0.950 . S
C604 C603 1.334 . S
C604 C605 1.287 . S
C605 C604 1.287 . S
C605 C606 1.524 1_455 S
C605 H608 0.999 . S
C606 H576 0.950 . S
C606 C605 1.524 1_655 S
C606 C607 1.415 . S
C607 H577 0.950 . S
C607 C602 1.363 1_655 S
C607 C606 1.415 . S
H608 C605 0.999 . S
H609 C590 0.913 . S
H610 C628 0.951 . S
H611 C630 0.951 . S
H612 C632 0.950 . S
H613 C633 0.950 . S
H614 C635 0.950 . S
H615 C638 0.950 . S
H616 C639 0.950 . S
H617 C641 0.950 . S
H618 C642 0.950 . S
H619 C643 0.951 . S
H620 C645 0.951 . S
H621 C647 0.950 . S
H622 C648 0.950 . S
H623 C650 0.950 . S
H624 C653 0.950 . S
H625 C654 0.950 . S
H626 C656 0.950 . S
H627 C657 0.950 . S
C628 H610 0.951 . S
C628 C629 1.365 . S
C628 C630 1.388 . S
C629 C628 1.365 . S
C629 C633 1.385 1_655 S
C630 H611 0.951 . S
C630 C628 1.388 . S
C630 C631 1.366 1_655 S
C631 C630 1.366 1_455 S
C631 C632 1.414 . S
C631 C634 1.499 . S
C632 H612 0.950 . S
C632 C631 1.414 . S
C632 C633 1.374 . S
C633 H613 0.950 . S
C633 C629 1.385 1_455 S
C633 C632 1.374 . S
C634 C631 1.499 . S
C634 C635 1.373 . S
C634 C636 1.389 1_455 S
C635 H614 0.950 . S
C635 C634 1.373 . S
C635 C651 1.377 . S
C636 C634 1.389 1_655 S
C636 C637 1.524 . S
C636 C650 1.377 . S
C637 C636 1.524 . S
C637 C638 1.397 1_655 S
C637 C642 1.363 . S
C638 H615 0.950 . S
C638 C637 1.397 1_455 S
C638 C639 1.334 . S
C639 H616 0.950 . S
C639 C638 1.334 . S
C639 C640 1.287 1_455 S
C640 C639 1.287 1_655 S
C640 C641 1.524 . S
C640 H659 0.913 . S
C641 H617 0.950 . S
C641 C640 1.524 . S
C641 C642 1.415 . S
C642 H618 0.950 . S
C642 C637 1.363 . S
C642 C641 1.415 . S
C643 H619 0.951 . S
C643 C644 1.365 . S
C643 C645 1.388 . S
C644 C643 1.365 . S
C644 C648 1.385 1_455 S
C645 H620 0.951 . S
C645 C643 1.388 . S
C645 C646 1.366 1_455 S
C646 C645 1.366 1_655 S
C646 C647 1.414 . S
C646 C649 1.499 . S
C647 H621 0.950 . S
C647 C646 1.414 . S
C647 C648 1.374 . S
C648 H622 0.950 . S
C648 C644 1.385 1_655 S
C648 C647 1.374 . S
C649 C646 1.499 . S
C649 C650 1.373 . S
C649 C651 1.389 1_655 S
C650 H623 0.950 . S
C650 C636 1.377 . S
C650 C649 1.373 . S
C651 C635 1.377 . S
C651 C649 1.389 1_455 S
C651 C652 1.524 . S
C652 C651 1.524 . S
C652 C653 1.397 1_455 S
C652 C657 1.363 . S
C653 H624 0.950 . S
C653 C652 1.397 1_655 S
C653 C654 1.334 . S
C654 H625 0.950 . S
C654 C653 1.334 . S
C654 C655 1.287 1_655 S
C655 C654 1.287 1_455 S
C655 C656 1.524 . S
C655 H658 0.999 . S
C656 H626 0.950 . S
C656 C655 1.524 . S
C656 C657 1.415 . S
C657 H627 0.950 . S
C657 C652 1.363 . S
C657 C656 1.415 . S
H658 C655 0.999 . S
H659 C640 0.913 . S
H660 C678 0.951 . S
H661 C680 0.951 . S
H662 C682 0.950 . S
H663 C683 0.950 . S
H664 C685 0.950 . S
H665 C688 0.950 . S
H666 C689 0.950 . S
H667 C691 0.950 . S
H668 C692 0.950 1_556 S
H669 C693 0.951 . S
H670 C695 0.951 . S
H671 C697 0.959 . S
H672 C698 0.932 1_556 S
H673 C700 0.950 . S
H674 C703 0.950 . S
H675 C704 0.950 . S
H676 C706 0.950 . S
H677 C707 0.950 . S
C678 H660 0.951 . S
C678 C679 1.366 1_556 S
C678 C680 1.388 . S
C679 C678 1.366 1_554 S
C679 C683 1.385 . S
C680 H661 0.951 . S
C680 C678 1.388 . S
C680 C681 1.366 1_556 S
C681 C680 1.366 1_554 S
C681 C682 1.414 . S
C681 C684 1.499 . S
C682 H662 0.950 . S
C682 C681 1.414 . S
C682 C683 1.374 . S
C683 H663 0.950 . S
C683 C679 1.385 . S
C683 C682 1.374 . S
C684 C681 1.499 . S
C684 C685 1.373 . S
C684 C686 1.389 . S
C685 H664 0.950 . S
C685 C684 1.373 . S
C685 C701 1.377 1_565 S
C686 C684 1.389 . S
C686 C687 1.524 . S
C686 C700 1.377 1_565 S
C687 C686 1.524 . S
C687 C688 1.397 . S
C687 C692 1.363 . S
C688 H665 0.950 . S
C688 C687 1.397 . S
C688 C689 1.334 . S
C689 H666 0.950 . S
C689 C688 1.334 . S
C689 C690 1.287 . S
C690 C689 1.287 . S
C690 C691 1.524 . S
C690 H709 0.913 . S
C691 H667 0.950 . S
C691 C690 1.524 . S
C691 C692 1.415 . S
C692 H668 0.950 1_554 S
C692 C687 1.363 . S
C692 C691 1.415 . S
C693 H669 0.951 . S
C693 C694 1.366 . S
C693 C695 1.388 . S
C694 C693 1.366 . S
C694 C698 1.396 . S
C695 H670 0.951 . S
C695 C693 1.388 . S
C695 C696 1.366 . S
C696 C695 1.366 . S
C696 C697 1.401 1_554 S
C696 C699 1.499 . S
C697 H671 0.959 . S
C697 C696 1.401 1_556 S
C697 C698 1.386 1_556 S
C698 H672 0.932 1_554 S
C698 C694 1.396 . S
C698 C697 1.386 1_554 S
C699 C696 1.499 . S
C699 C700 1.373 . S
C699 C701 1.389 . S
C700 H673 0.950 . S
C700 C686 1.377 1_545 S
C700 C699 1.373 . S
C701 C685 1.377 1_545 S
C701 C699 1.389 . S
C701 C702 1.524 . S
C702 C701 1.524 . S
C702 C703 1.397 1_554 S
C702 C707 1.363 . S
C703 H674 0.950 . S
C703 C702 1.397 1_556 S
C703 C704 1.334 . S
C704 H675 0.950 . S
C704 C703 1.334 . S
C704 C705 1.287 . S
C705 C704 1.287 . S
C705 C706 1.524 1_556 S
C705 H708 0.999 . S
C706 H676 0.950 . S
C706 C705 1.524 1_554 S
C706 C707 1.415 . S
C707 H677 0.950 . S
C707 C702 1.363 . S
C707 C706 1.415 . S
H708 C705 0.999 . S
H709 C690 0.913 . S
H710 C728 0.951 . S
H711 C730 0.951 . S
H712 C732 0.950 . S
H713 C733 0.950 . S
H714 C735 0.950 . S
H715 C738 0.950 . S
H716 C739 0.950 . S
H717 C741 0.950 1_565 S
H718 C742 0.971 . S
H719 C743 0.951 . S
H720 C745 0.951 . S
H721 C747 0.950 . S
H722 C748 0.950 . S
H723 C750 0.950 . S
H724 C753 0.950 . S
H725 C754 0.950 . S
H726 C756 0.950 1_545 S
H727 C757 0.971 . S
C728 H710 0.951 . S
C728 C729 1.366 . S
C728 C730 1.388 . S
C729 C728 1.366 . S
C729 C733 1.385 . S
C730 H711 0.951 . S
C730 C728 1.388 . S
C730 C731 1.366 . S
C731 C730 1.366 . S
C731 C732 1.414 . S
C731 C734 1.499 . S
C732 H712 0.950 . S
C732 C731 1.414 . S
C732 C733 1.374 . S
C733 H713 0.950 . S
C733 C729 1.385 . S
C733 C732 1.374 . S
C734 C731 1.499 . S
C734 C735 1.373 . S
C734 C736 1.389 . S
C735 H714 0.950 . S
C735 C734 1.373 . S
C735 C751 1.377 1_545 S
C736 C734 1.389 . S
C736 C737 1.524 . S
C736 C750 1.377 1_545 S
C737 C736 1.524 . S
C737 C738 1.397 . S
C737 C742 1.356 1_545 S
C738 H715 0.950 . S
C738 C737 1.397 . S
C738 C739 1.334 . S
C739 H716 0.950 . S
C739 C738 1.334 . S
C739 C740 1.287 . S
C740 C739 1.287 . S
C740 C741 1.524 . S
C740 H759 0.913 . S
C741 H717 0.950 1_545 S
C741 C740 1.524 . S
C741 C742 1.402 1_545 S
C742 H718 0.971 . S
C742 C737 1.356 1_565 S
C742 C741 1.402 1_565 S
C743 H719 0.951 . S
C743 C744 1.366 . S
C743 C745 1.388 . S
C744 C743 1.366 . S
C744 C748 1.385 . S
C745 H720 0.951 . S
C745 C743 1.388 . S
C745 C746 1.366 . S
C746 C745 1.366 . S
C746 C747 1.414 . S
C746 C749 1.499 . S
C747 H721 0.950 . S
C747 C746 1.414 . S
C747 C748 1.374 . S
C748 H722 0.950 . S
C748 C744 1.385 . S
C748 C747 1.374 . S
C749 C746 1.499 . S
C749 C750 1.373 . S
C749 C751 1.389 . S
C750 H723 0.950 . S
C750 C736 1.377 1_565 S
C750 C749 1.373 . S
C751 C735 1.377 1_565 S
C751 C749 1.389 . S
C751 C752 1.524 . S
C752 C751 1.524 . S
C752 C753 1.397 . S
C752 C757 1.356 1_565 S
C753 H724 0.950 . S
C753 C752 1.397 . S
C753 C754 1.334 . S
C754 H725 0.950 . S
C754 C753 1.334 . S
C754 C755 1.287 . S
C755 C754 1.287 . S
C755 C756 1.524 . S
C755 H758 0.999 . S
C756 H726 0.950 1_565 S
C756 C755 1.524 . S
C756 C757 1.402 1_565 S
C757 H727 0.971 . S
C757 C752 1.356 1_545 S
C757 C756 1.402 1_545 S
H758 C755 0.999 . S
H759 C740 0.913 . S
H760 C778 0.951 . S
H761 C780 0.951 . S
H762 C782 0.950 1_556 S
H763 C783 0.944 1_556 S
H764 C785 0.950 . S
H765 C788 0.950 . S
H766 C789 0.950 . S
H767 C791 0.950 . S
H768 C792 0.950 . S
H769 C793 0.951 1_556 S
H770 C795 0.951 1_556 S
H771 C797 0.950 . S
H772 C798 0.950 . S
H773 C800 0.950 . S
H774 C803 0.950 . S
H775 C804 0.950 . S
H776 C806 0.950 . S
H777 C807 0.950 . S
C778 H760 0.951 . S
C778 C779 1.366 . S
C778 C780 1.388 . S
C779 C778 1.366 . S
C779 C783 1.388 . S
C780 H761 0.951 . S
C780 C778 1.388 . S
C780 C781 1.366 . S
C781 C780 1.366 . S
C781 C782 1.414 . S
C781 C784 1.499 . S
C782 H762 0.950 1_554 S
C782 C781 1.414 . S
C782 C783 1.376 . S
C783 H763 0.944 1_554 S
C783 C779 1.388 . S
C783 C782 1.376 . S
C784 C781 1.499 . S
C784 C785 1.373 1_554 S
C784 C786 1.389 . S
C785 H764 0.950 . S
C785 C784 1.373 1_556 S
C785 C801 1.377 . S
C786 C784 1.389 . S
C786 C787 1.524 . S
C786 C800 1.377 . S
C787 C786 1.524 . S
C787 C788 1.397 . S
C787 C792 1.363 . S
C788 H765 0.950 . S
C788 C787 1.397 . S
C788 C789 1.334 . S
C789 H766 0.950 . S
C789 C788 1.334 . S
C789 C790 1.287 . S
C790 C789 1.287 . S
C790 C791 1.524 . S
C790 H809 0.913 . S
C791 H767 0.950 . S
C791 C790 1.524 . S
C791 C792 1.415 . S
C792 H768 0.950 . S
C792 C787 1.363 . S
C792 C791 1.415 . S
C793 H769 0.951 1_554 S
C793 C794 1.366 . S
C793 C795 1.388 . S
C794 C793 1.366 . S
C794 C798 1.385 . S
C795 H770 0.951 1_554 S
C795 C793 1.388 . S
C795 C796 1.366 . S
C796 C795 1.366 . S
C796 C797 1.414 . S
C796 C799 1.499 . S
C797 H771 0.950 . S
C797 C796 1.414 . S
C797 C798 1.374 . S
C798 H772 0.950 . S
C798 C794 1.385 . S
C798 C797 1.374 . S
C799 C796 1.499 . S
C799 C800 1.373 . S
C799 C801 1.389 1_554 S
C800 H773 0.950 . S
C800 C786 1.377 . S
C800 C799 1.373 . S
C801 C785 1.377 . S
C801 C799 1.389 1_556 S
C801 C802 1.524 . S
C802 C801 1.524 . S
C802 C803 1.397 . S
C802 C807 1.363 . S
C803 H774 0.950 . S
C803 C802 1.397 . S
C803 C804 1.334 . S
C804 H775 0.950 . S
C804 C803 1.334 . S
C804 C805 1.287 . S
C805 C804 1.287 . S
C805 C806 1.524 . S
C805 H808 0.999 . S
C806 H776 0.950 . S
C806 C805 1.524 . S
C806 C807 1.415 . S
C807 H777 0.950 . S
C807 C802 1.363 . S
C807 C806 1.415 . S
H808 C805 0.999 . S
H809 C790 0.913 . S
H810 C828 0.951 . S
H811 C830 0.951 . S
H812 C832 0.950 . S
H813 C833 0.950 . S
H814 C835 0.950 . S
H815 C838 0.950 . S
H816 C839 0.950 . S
H817 C841 0.950 1_556 S
H818 C842 0.950 1_556 S
H819 C843 0.951 . S
H820 C845 0.951 . S
H821 C847 0.950 . S
H822 C848 0.950 . S
H823 C850 0.950 . S
H824 C853 0.950 . S
H825 C854 0.950 . S
H826 C856 0.950 . S
H827 C857 0.950 . S
C828 H810 0.951 . S
C828 C829 1.366 1_556 S
C828 C830 1.388 . S
C829 C828 1.366 1_554 S
C829 C833 1.385 . S
C830 H811 0.951 . S
C830 C828 1.388 . S
C830 C831 1.366 1_556 S
C831 C830 1.366 1_554 S
C831 C832 1.414 . S
C831 C834 1.499 . S
C832 H812 0.950 . S
C832 C831 1.414 . S
C832 C833 1.374 . S
C833 H813 0.950 . S
C833 C829 1.385 . S
C833 C832 1.374 . S
C834 C831 1.499 . S
C834 C835 1.373 . S
C834 C836 1.389 . S
C835 H814 0.950 . S
C835 C834 1.373 . S
C835 C851 1.377 . S
C836 C834 1.389 . S
C836 C837 1.524 . S
C836 C850 1.377 . S
C837 C836 1.524 . S
C837 C838 1.397 . S
C837 C842 1.363 . S
C838 H815 0.950 . S
C838 C837 1.397 . S
C838 C839 1.334 . S
C839 H816 0.950 . S
C839 C838 1.334 . S
C839 C840 1.287 . S
C840 C839 1.287 . S
C840 C841 1.524 . S
C840 H859 0.913 . S
C841 H817 0.950 1_554 S
C841 C840 1.524 . S
C841 C842 1.415 . S
C842 H818 0.950 1_554 S
C842 C837 1.363 . S
C842 C841 1.415 . S
C843 H819 0.951 . S
C843 C844 1.366 . S
C843 C845 1.388 . S
C844 C843 1.366 . S
C844 C848 1.385 1_554 S
C845 H820 0.951 . S
C845 C843 1.388 . S
C845 C846 1.366 . S
C846 C845 1.366 . S
C846 C847 1.414 1_554 S
C846 C849 1.499 . S
C847 H821 0.950 . S
C847 C846 1.414 1_556 S
C847 C848 1.374 . S
C848 H822 0.950 . S
C848 C844 1.385 1_556 S
C848 C847 1.374 . S
C849 C846 1.499 . S
C849 C850 1.373 . S
C849 C851 1.389 . S
C850 H823 0.950 . S
C850 C836 1.377 . S
C850 C849 1.373 . S
C851 C835 1.377 . S
C851 C849 1.389 . S
C851 C852 1.524 . S
C852 C851 1.524 . S
C852 C853 1.397 1_554 S
C852 C857 1.363 . S
C853 H824 0.950 . S
C853 C852 1.397 1_556 S
C853 C854 1.334 . S
C854 H825 0.950 . S
C854 C853 1.334 . S
C854 C855 1.287 . S
C855 C854 1.287 . S
C855 C856 1.524 1_556 S
C855 H858 0.999 1_655 S
C856 H826 0.950 . S
C856 C855 1.524 1_554 S
C856 C857 1.415 . S
C857 H827 0.950 . S
C857 C852 1.363 . S
C857 C856 1.415 . S
H858 C855 0.999 1_455 S
H859 C840 0.913 . S
H860 C878 0.951 . S
H861 C880 0.951 . S
H862 C882 0.950 . S
H863 C883 0.950 . S
H864 C885 0.950 . S
H865 C888 0.950 . S
H866 C889 0.950 . S
H867 C891 0.950 . S
H868 C892 0.950 . S
H869 C893 0.951 . S
H870 C895 0.951 . S
H871 C897 0.950 . S
H872 C898 0.950 . S
H873 C900 0.950 . S
H874 C903 0.950 . S
H875 C904 0.950 . S
H876 C906 0.950 . S
H877 C907 0.950 . S
C878 H860 0.951 . S
C878 C879 1.366 . S
C878 C880 1.388 . S
C879 C878 1.366 . S
C879 C883 1.385 . S
C880 H861 0.951 . S
C880 C878 1.388 . S
C880 C881 1.366 . S
C881 C880 1.366 . S
C881 C882 1.414 . S
C881 C884 1.499 . S
C882 H862 0.950 . S
C882 C881 1.414 . S
C882 C883 1.374 . S
C883 H863 0.950 . S
C883 C879 1.385 . S
C883 C882 1.374 . S
C884 C881 1.499 . S
C884 C885 1.373 . S
C884 C886 1.389 . S
C885 H864 0.950 . S
C885 C884 1.373 . S
C885 C901 1.377 . S
C886 C884 1.389 . S
C886 C887 1.524 . S
C886 C900 1.377 . S
C887 C886 1.524 . S
C887 C888 1.397 . S
C887 C892 1.363 . S
C888 H865 0.950 . S
C888 C887 1.397 . S
C888 C889 1.334 . S
C889 H866 0.950 . S
C889 C888 1.334 . S
C889 C890 1.287 . S
C890 C889 1.287 . S
C890 C891 1.524 . S
C890 H909 0.913 . S
C891 H867 0.950 . S
C891 C890 1.524 . S
C891 C892 1.415 . S
C892 H868 0.950 . S
C892 C887 1.363 . S
C892 C891 1.415 . S
C893 H869 0.951 . S
C893 C894 1.366 . S
C893 C895 1.388 . S
C894 C893 1.366 . S
C894 C898 1.385 . S
C895 H870 0.951 . S
C895 C893 1.388 . S
C895 C896 1.366 . S
C896 C895 1.366 . S
C896 C897 1.414 . S
C896 C899 1.499 . S
C897 H871 0.950 . S
C897 C896 1.414 . S
C897 C898 1.374 . S
C898 H872 0.950 . S
C898 C894 1.385 . S
C898 C897 1.374 . S
C899 C896 1.499 . S
C899 C900 1.373 . S
C899 C901 1.389 . S
C900 H873 0.950 . S
C900 C886 1.377 . S
C900 C899 1.373 . S
C901 C885 1.377 . S
C901 C899 1.389 . S
C901 C902 1.524 . S
C902 C901 1.524 . S
C902 C903 1.397 . S
C902 C907 1.363 . S
C903 H874 0.950 . S
C903 C902 1.397 . S
C903 C904 1.334 . S
C904 H875 0.950 . S
C904 C903 1.334 . S
C904 C905 1.287 . S
C905 C904 1.287 . S
C905 C906 1.524 . S
C905 H908 0.999 . S
C906 H876 0.950 . S
C906 C905 1.524 . S
C906 C907 1.415 . S
C907 H877 0.950 . S
C907 C902 1.363 . S
C907 C906 1.415 . S
H908 C905 0.999 . S
H909 C890 0.913 . S
H910 C928 0.951 . S
H911 C930 0.951 . S
H912 C932 0.950 . S
H913 C933 0.950 . S
H914 C935 0.950 . S
H915 C938 0.950 . S
H916 C939 0.950 . S
H917 C941 0.950 . S
H918 C942 0.950 . S
H919 C943 0.951 . S
H920 C945 0.951 . S
H921 C947 0.950 . S
H922 C948 0.950 . S
H923 C950 0.950 . S
H924 C953 0.950 . S
H925 C954 0.950 . S
H926 C956 0.950 . S
H927 C957 0.950 . S
C928 H910 0.951 . S
C928 C929 1.366 . S
C928 C930 1.388 . S
C929 C928 1.366 . S
C929 C933 1.385 . S
C930 H911 0.951 . S
C930 C928 1.388 . S
C930 C931 1.366 . S
C931 C930 1.366 . S
C931 C932 1.414 . S
C931 C934 1.499 . S
C932 H912 0.950 . S
C932 C931 1.414 . S
C932 C933 1.374 . S
C933 H913 0.950 . S
C933 C929 1.385 . S
C933 C932 1.374 . S
C934 C931 1.499 . S
C934 C935 1.373 . S
C934 C936 1.389 . S
C935 H914 0.950 . S
C935 C934 1.373 . S
C935 C951 1.377 . S
C936 C934 1.389 . S
C936 C937 1.524 . S
C936 C950 1.377 . S
C937 C936 1.524 . S
C937 C938 1.397 . S
C937 C942 1.363 . S
C938 H915 0.950 . S
C938 C937 1.397 . S
C938 C939 1.334 . S
C939 H916 0.950 . S
C939 C938 1.334 . S
C939 C940 1.287 . S
C940 C939 1.287 . S
C940 C941 1.524 . S
C940 H959 0.913 . S
C941 H917 0.950 . S
C941 C940 1.524 . S
C941 C942 1.415 . S
C942 H918 0.950 . S
C942 C937 1.363 . S
C942 C941 1.415 . S
C943 H919 0.951 . S
C943 C944 1.366 . S
C943 C945 1.388 . S
C944 C943 1.366 . S
C944 C948 1.385 . S
C945 H920 0.951 . S
C945 C943 1.388 . S
C945 C946 1.366 . S
C946 C945 1.366 . S
C946 C947 1.414 . S
C946 C949 1.499 . S
C947 H921 0.950 . S
C947 C946 1.414 . S
C947 C948 1.374 . S
C948 H922 0.950 . S
C948 C944 1.385 . S
C948 C947 1.374 . S
C949 C946 1.499 . S
C949 C950 1.373 . S
C949 C951 1.389 . S
C950 H923 0.950 . S
C950 C936 1.377 . S
C950 C949 1.373 . S
C951 C935 1.377 . S
C951 C949 1.389 . S
C951 C952 1.524 . S
C952 C951 1.524 . S
C952 C953 1.397 . S
C952 C957 1.363 . S
C953 H924 0.950 . S
C953 C952 1.397 . S
C953 C954 1.334 . S
C954 H925 0.950 . S
C954 C953 1.334 . S
C954 C955 1.287 . S
C955 C954 1.287 . S
C955 C956 1.524 . S
C955 H958 0.999 . S
C956 H926 0.950 . S
C956 C955 1.524 . S
C956 C957 1.415 . S
C957 H927 0.950 . S
C957 C952 1.363 . S
C957 C956 1.415 . S
H958 C955 0.999 . S
H959 C940 0.913 . S
H960 C978 0.951 . S
H961 C980 0.951 . S
H962 C982 0.950 1_655 S
H963 C983 0.950 . S
H964 C985 0.950 . S
H965 C988 0.950 . S
H966 C989 0.950 . S
H967 C991 0.950 . S
H968 C992 0.950 1_455 S
H969 C993 0.951 . S
H970 C995 0.951 . S
H971 C997 0.950 1_455 S
H972 C998 0.948 1_455 S
H973 C1000 0.950 . S
H974 C1003 0.950 . S
H975 C1004 0.950 . S
H976 C1006 0.950 . S
H977 C1007 0.950 1_655 S
C978 H960 0.951 . S
C978 C979 1.366 . S
C978 C980 1.388 . S
C979 C978 1.366 . S
C979 C983 1.385 . S
C980 H961 0.951 . S
C980 C978 1.388 . S
C980 C981 1.366 . S
C981 C980 1.366 . S
C981 C982 1.414 . S
C981 C984 1.499 . S
C982 H962 0.950 1_455 S
C982 C981 1.414 . S
C982 C983 1.374 . S
C983 H963 0.950 . S
C983 C979 1.385 . S
C983 C982 1.374 . S
C984 C981 1.499 . S
C984 C985 1.373 . S
C984 C986 1.389 1_455 S
C985 H964 0.950 . S
C985 C984 1.373 . S
C985 C1001 1.377 . S
C986 C984 1.389 1_655 S
C986 C987 1.524 . S
C986 C1000 1.377 . S
C987 C986 1.524 . S
C987 C988 1.397 . S
C987 C992 1.363 . S
C988 H965 0.950 . S
C988 C987 1.397 . S
C988 C989 1.334 . S
C989 H966 0.950 . S
C989 C988 1.334 . S
C989 C990 1.287 . S
C990 C989 1.287 . S
C990 C991 1.524 . S
C990 H1009 0.913 . S
C991 H967 0.950 . S
C991 C990 1.524 . S
C991 C992 1.415 . S
C992 H968 0.950 1_655 S
C992 C987 1.363 . S
C992 C991 1.415 . S
C993 H969 0.951 . S
C993 C994 1.366 . S
C993 C995 1.388 . S
C994 C993 1.366 . S
C994 C998 1.385 . S
C995 H970 0.951 . S
C995 C993 1.388 . S
C995 C996 1.366 . S
C996 C995 1.366 . S
C996 C997 1.414 . S
C996 C999 1.499 . S
C997 H971 0.950 1_655 S
C997 C996 1.414 . S
C997 C998 1.374 . S
C998 H972 0.948 1_655 S
C998 C994 1.385 . S
C998 C997 1.374 . S
C999 C996 1.499 . S
C999 C1000 1.373 . S
C999 C1001 1.389 1_655 S
C1000 H973 0.950 . S
C1000 C986 1.377 . S
C1000 C999 1.373 . S
C1001 C985 1.377 . S
C1001 C999 1.389 1_455 S
C1001 C1002 1.524 . S
C1002 C1001 1.524 . S
C1002 C1003 1.397 . S
C1002 C1007 1.363 . S
C1003 H974 0.950 . S
C1003 C1002 1.397 . S
C1003 C1004 1.334 . S
C1004 H975 0.950 . S
C1004 C1003 1.334 . S
C1004 C1005 1.287 . S
C1005 C1004 1.287 . S
C1005 C1006 1.524 . S
C1005 H1008 0.999 . S
C1006 H976 0.950 . S
C1006 C1005 1.524 . S
C1006 C1007 1.415 . S
C1007 H977 0.950 1_455 S
C1007 C1002 1.363 . S
C1007 C1006 1.415 . S
H1008 C1005 0.999 . S
H1009 C990 0.913 . S
H1010 C1028 0.951 . S
H1011 C1030 0.951 1_455 S
H1012 C1032 0.950 . S
H1013 C1033 0.950 . S
H1014 C1035 0.950 . S
H1015 C1038 0.950 . S
H1016 C1039 0.950 . S
H1017 C1041 0.950 . S
H1018 C1042 0.950 . S
H1019 C1043 0.951 . S
H1020 C1045 0.951 1_655 S
H1021 C1047 0.950 . S
H1022 C1048 0.950 . S
H1023 C1050 0.950 . S
H1024 C1053 0.950 . S
H1025 C1054 0.950 . S
H1026 C1056 0.950 . S
H1027 C1057 0.950 . S
C1028 H1010 0.951 . S
C1028 C1029 1.366 . S
C1028 C1030 1.388 . S
C1029 C1028 1.366 . S
C1029 C1033 1.385 . S
C1030 H1011 0.951 1_655 S
C1030 C1028 1.388 . S
C1030 C1031 1.366 . S
C1031 C1030 1.366 . S
C1031 C1032 1.414 . S
C1031 C1034 1.499 . S
C1032 H1012 0.950 . S
C1032 C1031 1.414 . S
C1032 C1033 1.374 . S
C1033 H1013 0.950 . S
C1033 C1029 1.385 . S
C1033 C1032 1.374 . S
C1034 C1031 1.499 . S
C1034 C1035 1.373 . S
C1034 C1036 1.389 1_655 S
C1035 H1014 0.950 . S
C1035 C1034 1.373 . S
C1035 C1051 1.377 . S
C1036 C1034 1.389 1_455 S
C1036 C1037 1.524 . S
C1036 C1050 1.377 . S
C1037 C1036 1.524 . S
C1037 C1038 1.397 . S
C1037 C1042 1.363 . S
C1038 H1015 0.950 . S
C1038 C1037 1.397 . S
C1038 C1039 1.334 . S
C1039 H1016 0.950 . S
C1039 C1038 1.334 . S
C1039 C1040 1.287 . S
C1040 C1039 1.287 . S
C1040 C1041 1.524 . S
C1040 H1059 0.913 . S
C1041 H1017 0.950 . S
C1041 C1040 1.524 . S
C1041 C1042 1.415 . S
C1042 H1018 0.950 . S
C1042 C1037 1.363 . S
C1042 C1041 1.415 . S
C1043 H1019 0.951 . S
C1043 C1044 1.366 . S
C1043 C1045 1.388 . S
C1044 C1043 1.366 . S
C1044 C1048 1.385 . S
C1045 H1020 0.951 1_455 S
C1045 C1043 1.388 . S
C1045 C1046 1.366 . S
C1046 C1045 1.366 . S
C1046 C1047 1.414 . S
C1046 C1049 1.499 . S
C1047 H1021 0.950 . S
C1047 C1046 1.414 . S
C1047 C1048 1.374 . S
C1048 H1022 0.950 . S
C1048 C1044 1.385 . S
C1048 C1047 1.374 . S
C1049 C1046 1.499 . S
C1049 C1050 1.373 . S
C1049 C1051 1.389 1_455 S
C1050 H1023 0.950 . S
C1050 C1036 1.377 . S
C1050 C1049 1.373 . S
C1051 C1035 1.377 . S
C1051 C1049 1.389 1_655 S
C1051 C1052 1.524 . S
C1052 C1051 1.524 . S
C1052 C1053 1.397 . S
C1052 C1057 1.363 . S
C1053 H1024 0.950 . S
C1053 C1052 1.397 . S
C1053 C1054 1.334 . S
C1054 H1025 0.950 . S
C1054 C1053 1.334 . S
C1054 C1055 1.287 . S
C1055 C1054 1.287 . S
C1055 C1056 1.524 . S
C1055 H1058 0.999 . S
C1056 H1026 0.950 . S
C1056 C1055 1.524 . S
C1056 C1057 1.415 . S
C1057 H1027 0.950 . S
C1057 C1052 1.363 . S
C1057 C1056 1.415 . S
H1058 C1055 0.999 . S
H1059 C1040 0.913 . S
H1060 C1078 0.951 . S
H1061 C1080 0.951 . S
H1062 C1082 0.950 . S
H1063 C1083 0.950 . S
H1064 C1085 0.950 . S
H1065 C1088 0.950 . S
H1066 C1089 0.950 . S
H1067 C1091 0.950 . S
H1068 C1092 0.950 . S
H1069 C1093 0.951 . S
H1070 C1095 0.951 . S
H1071 C1097 0.950 . S
H1072 C1098 0.950 . S
H1073 C1100 0.950 . S
H1074 C1103 0.950 . S
H1075 C1104 0.950 . S
H1076 C1106 0.950 . S
H1077 C1107 0.950 . S
C1078 H1060 0.951 . S
C1078 C1079 1.366 . S
C1078 C1080 1.388 . S
C1079 C1078 1.366 . S
C1079 C1083 1.385 . S
C1080 H1061 0.951 . S
C1080 C1078 1.388 . S
C1080 C1081 1.366 . S
C1081 C1080 1.366 . S
C1081 C1082 1.414 . S
C1081 C1084 1.499 . S
C1082 H1062 0.950 . S
C1082 C1081 1.414 . S
C1082 C1083 1.374 . S
C1083 H1063 0.950 . S
C1083 C1079 1.385 . S
C1083 C1082 1.374 . S
C1084 C1081 1.499 . S
C1084 C1085 1.373 1_655 S
C1084 C1086 1.389 . S
C1085 H1064 0.950 . S
C1085 C1084 1.373 1_455 S
C1085 C1101 1.377 . S
C1086 C1084 1.389 . S
C1086 C1087 1.524 . S
C1086 C1100 1.377 . S
C1087 C1086 1.524 . S
C1087 C1088 1.397 . S
C1087 C1092 1.363 . S
C1088 H1065 0.950 . S
C1088 C1087 1.397 . S
C1088 C1089 1.334 . S
C1089 H1066 0.950 . S
C1089 C1088 1.334 . S
C1089 C1090 1.287 . S
C1090 C1089 1.287 . S
C1090 C1091 1.524 . S
C1090 H1109 0.913 . S
C1091 H1067 0.950 . S
C1091 C1090 1.524 . S
C1091 C1092 1.415 . S
C1092 H1068 0.950 . S
C1092 C1087 1.363 . S
C1092 C1091 1.415 . S
C1093 H1069 0.951 . S
C1093 C1094 1.366 . S
C1093 C1095 1.388 . S
C1094 C1093 1.366 . S
C1094 C1098 1.385 . S
C1095 H1070 0.951 . S
C1095 C1093 1.388 . S
C1095 C1096 1.366 . S
C1096 C1095 1.366 . S
C1096 C1097 1.414 . S
C1096 C1099 1.499 . S
C1097 H1071 0.950 . S
C1097 C1096 1.414 . S
C1097 C1098 1.374 . S
C1098 H1072 0.950 . S
C1098 C1094 1.385 . S
C1098 C1097 1.374 . S
C1099 C1096 1.499 . S
C1099 C1100 1.373 1_455 S
C1099 C1101 1.389 . S
C1100 H1073 0.950 . S
C1100 C1086 1.377 . S
C1100 C1099 1.373 1_655 S
C1101 C1085 1.377 . S
C1101 C1099 1.389 . S
C1101 C1102 1.524 . S
C1102 C1101 1.524 . S
C1102 C1103 1.397 . S
C1102 C1107 1.363 . S
C1103 H1074 0.950 . S
C1103 C1102 1.397 . S
C1103 C1104 1.334 . S
C1104 H1075 0.950 . S
C1104 C1103 1.334 . S
C1104 C1105 1.287 . S
C1105 C1104 1.287 . S
C1105 C1106 1.524 . S
C1105 H1108 0.999 . S
C1106 H1076 0.950 . S
C1106 C1105 1.524 . S
C1106 C1107 1.415 . S
C1107 H1077 0.950 . S
C1107 C1102 1.363 . S
C1107 C1106 1.415 . S
H1108 C1105 0.999 . S
H1109 C1090 0.913 . S
H1110 C1128 0.951 . S
H1111 C1130 0.951 . S
H1112 C1132 0.950 . S
H1113 C1133 0.950 . S
H1114 C1135 0.950 . S
H1115 C1138 0.950 . S
H1116 C1139 0.950 . S
H1117 C1141 0.950 . S
H1118 C1142 0.950 . S
H1119 C1143 0.951 . S
H1120 C1145 0.951 1_655 S
H1121 C1147 0.950 . S
H1122 C1148 0.950 . S
H1123 C1150 0.950 . S
H1124 C1153 0.950 . S
H1125 C1154 0.950 . S
H1126 C1156 0.950 . S
H1127 C1157 0.950 . S
C1128 H1110 0.951 . S
C1128 C1129 1.366 . S
C1128 C1130 1.388 . S
C1129 C1128 1.366 . S
C1129 C1133 1.385 . S
C1130 H1111 0.951 . S
C1130 C1128 1.388 . S
C1130 C1131 1.366 . S
C1131 C1130 1.366 . S
C1131 C1132 1.414 . S
C1131 C1134 1.499 . S
C1132 H1112 0.950 . S
C1132 C1131 1.414 . S
C1132 C1133 1.374 . S
C1133 H1113 0.950 . S
C1133 C1129 1.385 . S
C1133 C1132 1.374 . S
C1134 C1131 1.499 . S
C1134 C1135 1.373 . S
C1134 C1136 1.389 1_655 S
C1135 H1114 0.950 . S
C1135 C1134 1.373 . S
C1135 C1151 1.377 . S
C1136 C1134 1.389 1_455 S
C1136 C1137 1.524 . S
C1136 C1150 1.377 . S
C1137 C1136 1.524 . S
C1137 C1138 1.397 . S
C1137 C1142 1.363 . S
C1138 H1115 0.950 . S
C1138 C1137 1.397 . S
C1138 C1139 1.334 . S
C1139 H1116 0.950 . S
C1139 C1138 1.334 . S
C1139 C1140 1.287 . S
C1140 C1139 1.287 . S
C1140 C1141 1.524 . S
C1140 H1159 0.913 . S
C1141 H1117 0.950 . S
C1141 C1140 1.524 . S
C1141 C1142 1.415 . S
C1142 H1118 0.950 . S
C1142 C1137 1.363 . S
C1142 C1141 1.415 . S
C1143 H1119 0.951 . S
C1143 C1144 1.366 . S
C1143 C1145 1.388 . S
C1144 C1143 1.366 . S
C1144 C1148 1.385 . S
C1145 H1120 0.951 1_455 S
C1145 C1143 1.388 . S
C1145 C1146 1.366 . S
C1146 C1145 1.366 . S
C1146 C1147 1.414 . S
C1146 C1149 1.499 . S
C1147 H1121 0.950 . S
C1147 C1146 1.414 . S
C1147 C1148 1.374 . S
C1148 H1122 0.950 . S
C1148 C1144 1.385 . S
C1148 C1147 1.374 . S
C1149 C1146 1.499 . S
C1149 C1150 1.373 . S
C1149 C1151 1.389 1_455 S
C1150 H1123 0.950 . S
C1150 C1136 1.377 . S
C1150 C1149 1.373 . S
C1151 C1135 1.377 . S
C1151 C1149 1.389 1_655 S
C1151 C1152 1.524 . S
C1152 C1151 1.524 . S
C1152 C1153 1.397 . S
C1152 C1157 1.363 . S
C1153 H1124 0.950 . S
C1153 C1152 1.397 . S
C1153 C1154 1.334 . S
C1154 H1125 0.950 . S
C1154 C1153 1.334 . S
C1154 C1155 1.287 . S
C1155 C1154 1.287 . S
C1155 C1156 1.524 . S
C1155 H1158 0.999 . S
C1156 H1126 0.950 . S
C1156 C1155 1.524 . S
C1156 C1157 1.415 . S
C1157 H1127 0.950 . S
C1157 C1152 1.363 . S
C1157 C1156 1.415 . S
H1158 C1155 0.999 . S
H1159 C1140 0.913 . S
H1160 C1178 0.951 . S
H1161 C1180 0.951 . S
H1162 C1182 0.950 . S
H1163 C1183 0.950 . S
H1164 C1185 0.950 . S
H1165 C1188 0.950 . S
H1166 C1189 0.950 . S
H1167 C1191 0.950 . S
H1168 C1192 0.950 . S
H1169 C1193 0.951 . S
H1170 C1195 0.951 . S
H1171 C1197 0.950 . S
H1172 C1198 0.950 . S
H1173 C1200 0.950 . S
H1174 C1203 0.950 . S
H1175 C1204 0.950 . S
H1176 C1206 0.950 . S
H1177 C1207 0.950 . S
C1178 H1160 0.951 . S
C1178 C1179 1.366 . S
C1178 C1180 1.388 . S
C1179 C1178 1.366 . S
C1179 C1183 1.385 . S
C1180 H1161 0.951 . S
C1180 C1178 1.388 . S
C1180 C1181 1.366 . S
C1181 C1180 1.366 . S
C1181 C1182 1.414 . S
C1181 C1184 1.499 . S
C1182 H1162 0.950 . S
C1182 C1181 1.414 . S
C1182 C1183 1.374 . S
C1183 H1163 0.950 . S
C1183 C1179 1.385 . S
C1183 C1182 1.374 . S
C1184 C1181 1.499 . S
C1184 C1185 1.373 . S
C1184 C1186 1.389 . S
C1185 H1164 0.950 . S
C1185 C1184 1.373 . S
C1185 C1201 1.377 . S
C1186 C1184 1.389 . S
C1186 C1187 1.524 . S
C1186 C1200 1.377 . S
C1187 C1186 1.524 . S
C1187 C1188 1.397 . S
C1187 C1192 1.363 . S
C1188 H1165 0.950 . S
C1188 C1187 1.397 . S
C1188 C1189 1.334 . S
C1189 H1166 0.950 . S
C1189 C1188 1.334 . S
C1189 C1190 1.287 . S
C1190 C1189 1.287 . S
C1190 C1191 1.524 . S
C1190 H1209 0.913 . S
C1191 H1167 0.950 . S
C1191 C1190 1.524 . S
C1191 C1192 1.415 . S
C1192 H1168 0.950 . S
C1192 C1187 1.363 . S
C1192 C1191 1.415 . S
C1193 H1169 0.951 . S
C1193 C1194 1.366 . S
C1193 C1195 1.388 . S
C1194 C1193 1.366 . S
C1194 C1198 1.385 . S
C1195 H1170 0.951 . S
C1195 C1193 1.388 . S
C1195 C1196 1.366 . S
C1196 C1195 1.366 . S
C1196 C1197 1.414 . S
C1196 C1199 1.499 . S
C1197 H1171 0.950 . S
C1197 C1196 1.414 . S
C1197 C1198 1.374 . S
C1198 H1172 0.950 . S
C1198 C1194 1.385 . S
C1198 C1197 1.374 . S
C1199 C1196 1.499 . S
C1199 C1200 1.373 . S
C1199 C1201 1.389 . S
C1200 H1173 0.950 . S
C1200 C1186 1.377 . S
C1200 C1199 1.373 . S
C1201 C1185 1.377 . S
C1201 C1199 1.389 . S
C1201 C1202 1.524 . S
C1202 C1201 1.524 . S
C1202 C1203 1.397 . S
C1202 C1207 1.363 . S
C1203 H1174 0.950 . S
C1203 C1202 1.397 . S
C1203 C1204 1.334 . S
C1204 H1175 0.950 . S
C1204 C1203 1.334 . S
C1204 C1205 1.287 . S
C1205 C1204 1.287 . S
C1205 C1206 1.524 . S
C1205 H1208 0.999 . S
C1206 H1176 0.950 . S
C1206 C1205 1.524 . S
C1206 C1207 1.415 . S
C1207 H1177 0.950 . S
C1207 C1202 1.363 . S
C1207 C1206 1.415 . S
H1208 C1205 0.999 . S
H1209 C1190 0.913 . S
H1210 C1228 0.951 . S
H1211 C1230 0.951 . S
H1212 C1232 0.950 . S
H1213 C1233 0.950 . S
H1214 C1235 0.950 . S
H1215 C1238 0.950 . S
H1216 C1239 0.950 . S
H1217 C1241 0.950 . S
H1218 C1242 0.950 . S
H1219 C1243 0.951 . S
H1220 C1245 0.951 . S
H1221 C1247 0.950 . S
H1222 C1248 0.950 . S
H1223 C1250 0.950 . S
H1224 C1253 0.950 . S
H1225 C1254 0.950 . S
H1226 C1256 0.950 . S
H1227 C1257 0.950 . S
C1228 H1210 0.951 . S
C1228 C1229 1.366 . S
C1228 C1230 1.388 . S
C1229 C1228 1.366 . S
C1229 C1233 1.385 . S
C1230 H1211 0.951 . S
C1230 C1228 1.388 . S
C1230 C1231 1.366 . S
C1231 C1230 1.366 . S
C1231 C1232 1.414 . S
C1231 C1234 1.499 . S
C1232 H1212 0.950 . S
C1232 C1231 1.414 . S
C1232 C1233 1.374 . S
C1233 H1213 0.950 . S
C1233 C1229 1.385 . S
C1233 C1232 1.374 . S
C1234 C1231 1.499 . S
C1234 C1235 1.373 . S
C1234 C1236 1.389 . S
C1235 H1214 0.950 . S
C1235 C1234 1.373 . S
C1235 C1251 1.377 . S
C1236 C1234 1.389 . S
C1236 C1237 1.524 . S
C1236 C1250 1.377 . S
C1237 C1236 1.524 . S
C1237 C1238 1.397 . S
C1237 C1242 1.363 . S
C1238 H1215 0.950 . S
C1238 C1237 1.397 . S
C1238 C1239 1.334 . S
C1239 H1216 0.950 . S
C1239 C1238 1.334 . S
C1239 C1240 1.287 . S
C1240 C1239 1.287 . S
C1240 C1241 1.524 . S
C1240 H1259 0.913 . S
C1241 H1217 0.950 . S
C1241 C1240 1.524 . S
C1241 C1242 1.415 . S
C1242 H1218 0.950 . S
C1242 C1237 1.363 . S
C1242 C1241 1.415 . S
C1243 H1219 0.951 . S
C1243 C1244 1.366 . S
C1243 C1245 1.388 . S
C1244 C1243 1.366 . S
C1244 C1248 1.385 . S
C1245 H1220 0.951 . S
C1245 C1243 1.388 . S
C1245 C1246 1.366 . S
C1246 C1245 1.366 . S
C1246 C1247 1.414 . S
C1246 C1249 1.499 . S
C1247 H1221 0.950 . S
C1247 C1246 1.414 . S
C1247 C1248 1.374 . S
C1248 H1222 0.950 . S
C1248 C1244 1.385 . S
C1248 C1247 1.374 . S
C1249 C1246 1.499 . S
C1249 C1250 1.373 . S
C1249 C1251 1.389 . S
C1250 H1223 0.950 . S
C1250 C1236 1.377 . S
C1250 C1249 1.373 . S
C1251 C1235 1.377 . S
C1251 C1249 1.389 . S
C1251 C1252 1.524 . S
C1252 C1251 1.524 . S
C1252 C1253 1.397 . S
C1252 C1257 1.363 . S
C1253 H1224 0.950 . S
C1253 C1252 1.397 . S
C1253 C1254 1.334 . S
C1254 H1225 0.950 . S
C1254 C1253 1.334 . S
C1254 C1255 1.287 . S
C1255 C1254 1.287 . S
C1255 C1256 1.524 . S
C1255 H1258 0.999 . S
C1256 H1226 0.950 . S
C1256 C1255 1.524 . S
C1256 C1257 1.415 . S
C1257 H1227 0.950 . S
C1257 C1252 1.363 . S
C1257 C1256 1.415 . S
H1258 C1255 0.999 . S
H1259 C1240 0.913 . S
H1260 C1278 0.951 . S
H1261 C1280 0.951 . S
H1262 C1282 0.950 . S
H1263 C1283 0.950 . S
H1264 C1285 0.950 . S
H1265 C1288 0.950 . S
H1266 C1289 0.950 . S
H1267 C1291 0.950 . S
H1268 C1292 0.950 . S
H1269 C1293 0.951 . S
H1270 C1295 0.951 . S
H1271 C1297 0.950 . S
H1272 C1298 0.950 . S
H1273 C1300 0.950 . S
H1274 C1303 0.950 . S
H1275 C1304 0.950 . S
H1276 C1306 0.950 . S
H1277 C1307 0.950 . S
C1278 H1260 0.951 . S
C1278 C1279 1.366 . S
C1278 C1280 1.388 . S
C1279 C1278 1.366 . S
C1279 C1283 1.385 . S
C1280 H1261 0.951 . S
C1280 C1278 1.388 . S
C1280 C1281 1.366 . S
C1281 C1280 1.366 . S
C1281 C1282 1.414 . S
C1281 C1284 1.499 . S
C1282 H1262 0.950 . S
C1282 C1281 1.414 . S
C1282 C1283 1.374 . S
C1283 H1263 0.950 . S
C1283 C1279 1.385 . S
C1283 C1282 1.374 . S
C1284 C1281 1.499 . S
C1284 C1285 1.373 . S
C1284 C1286 1.389 . S
C1285 H1264 0.950 . S
C1285 C1284 1.373 . S
C1285 C1301 1.377 . S
C1286 C1284 1.389 . S
C1286 C1287 1.524 . S
C1286 C1300 1.377 . S
C1287 C1286 1.524 . S
C1287 C1288 1.397 . S
C1287 C1292 1.363 . S
C1288 H1265 0.950 . S
C1288 C1287 1.397 . S
C1288 C1289 1.334 . S
C1289 H1266 0.950 . S
C1289 C1288 1.334 . S
C1289 C1290 1.287 . S
C1290 C1289 1.287 . S
C1290 C1291 1.524 . S
C1290 H1309 0.913 . S
C1291 H1267 0.950 . S
C1291 C1290 1.524 . S
C1291 C1292 1.415 . S
C1292 H1268 0.950 . S
C1292 C1287 1.363 . S
C1292 C1291 1.415 . S
C1293 H1269 0.951 . S
C1293 C1294 1.366 . S
C1293 C1295 1.388 . S
C1294 C1293 1.366 . S
C1294 C1298 1.385 . S
C1295 H1270 0.951 . S
C1295 C1293 1.388 . S
C1295 C1296 1.366 . S
C1296 C1295 1.366 . S
C1296 C1297 1.414 . S
C1296 C1299 1.499 . S
C1297 H1271 0.950 . S
C1297 C1296 1.414 . S
C1297 C1298 1.374 . S
C1298 H1272 0.950 . S
C1298 C1294 1.385 . S
C1298 C1297 1.374 . S
C1299 C1296 1.499 . S
C1299 C1300 1.373 . S
C1299 C1301 1.389 . S
C1300 H1273 0.950 . S
C1300 C1286 1.377 . S
C1300 C1299 1.373 . S
C1301 C1285 1.377 . S
C1301 C1299 1.389 . S
C1301 C1302 1.524 . S
C1302 C1301 1.524 . S
C1302 C1303 1.397 . S
C1302 C1307 1.363 . S
C1303 H1274 0.950 . S
C1303 C1302 1.397 . S
C1303 C1304 1.334 . S
C1304 H1275 0.950 . S
C1304 C1303 1.334 . S
C1304 C1305 1.287 . S
C1305 C1304 1.287 . S
C1305 C1306 1.524 . S
C1305 H1308 0.999 . S
C1306 H1276 0.950 . S
C1306 C1305 1.524 . S
C1306 C1307 1.415 . S
C1307 H1277 0.950 . S
C1307 C1302 1.363 . S
C1307 C1306 1.415 . S
H1308 C1305 0.999 . S
H1309 C1290 0.913 . S
H1310 C1328 0.951 . S
H1311 C1330 0.951 . S
H1312 C1332 0.950 . S
H1313 C1333 0.950 . S
H1314 C1335 0.950 . S
H1315 C1338 0.950 . S
H1316 C1339 0.950 . S
H1317 C1341 0.950 . S
H1318 C1342 0.950 . S
H1319 C1343 0.951 . S
H1320 C1345 0.951 . S
H1321 C1347 0.950 . S
H1322 C1348 0.950 . S
H1323 C1350 0.950 . S
H1324 C1353 0.950 . S
H1325 C1354 0.950 . S
H1326 C1356 0.950 . S
H1327 C1357 0.950 . S
C1328 H1310 0.951 . S
C1328 C1329 1.366 . S
C1328 C1330 1.388 . S
C1329 C1328 1.366 . S
C1329 C1333 1.385 . S
C1330 H1311 0.951 . S
C1330 C1328 1.388 . S
C1330 C1331 1.366 . S
C1331 C1330 1.366 . S
C1331 C1332 1.414 . S
C1331 C1334 1.499 . S
C1332 H1312 0.950 . S
C1332 C1331 1.414 . S
C1332 C1333 1.374 . S
C1333 H1313 0.950 . S
C1333 C1329 1.385 . S
C1333 C1332 1.374 . S
C1334 C1331 1.499 . S
C1334 C1335 1.373 . S
C1334 C1336 1.389 . S
C1335 H1314 0.950 . S
C1335 C1334 1.373 . S
C1335 C1351 1.377 . S
C1336 C1334 1.389 . S
C1336 C1337 1.524 . S
C1336 C1350 1.377 . S
C1337 C1336 1.524 . S
C1337 C1338 1.397 . S
C1337 C1342 1.363 . S
C1338 H1315 0.950 . S
C1338 C1337 1.397 . S
C1338 C1339 1.334 . S
C1339 H1316 0.950 . S
C1339 C1338 1.334 . S
C1339 C1340 1.287 . S
C1340 C1339 1.287 . S
C1340 C1341 1.524 . S
C1340 H1359 0.913 . S
C1341 H1317 0.950 . S
C1341 C1340 1.524 . S
C1341 C1342 1.415 . S
C1342 H1318 0.950 . S
C1342 C1337 1.363 . S
C1342 C1341 1.415 . S
C1343 H1319 0.951 . S
C1343 C1344 1.366 . S
C1343 C1345 1.388 . S
C1344 C1343 1.366 . S
C1344 C1348 1.385 . S
C1345 H1320 0.951 . S
C1345 C1343 1.388 . S
C1345 C1346 1.366 . S
C1346 C1345 1.366 . S
C1346 C1347 1.414 . S
C1346 C1349 1.499 . S
C1347 H1321 0.950 . S
C1347 C1346 1.414 . S
C1347 C1348 1.374 . S
C1348 H1322 0.950 . S
C1348 C1344 1.385 . S
C1348 C1347 1.374 . S
C1349 C1346 1.499 . S
C1349 C1350 1.373 . S
C1349 C1351 1.389 . S
C1350 H1323 0.950 . S
C1350 C1336 1.377 . S
C1350 C1349 1.373 . S
C1351 C1335 1.377 . S
C1351 C1349 1.389 . S
C1351 C1352 1.524 . S
C1352 C1351 1.524 . S
C1352 C1353 1.397 . S
C1352 C1357 1.363 . S
C1353 H1324 0.950 . S
C1353 C1352 1.397 . S
C1353 C1354 1.334 . S
C1354 H1325 0.950 . S
C1354 C1353 1.334 . S
C1354 C1355 1.287 . S
C1355 C1354 1.287 . S
C1355 C1356 1.524 . S
C1355 H1358 0.999 . S
C1356 H1326 0.950 . S
C1356 C1355 1.524 . S
C1356 C1357 1.415 . S
C1357 H1327 0.950 . S
C1357 C1352 1.363 . S
C1357 C1356 1.415 . S
H1358 C1355 0.999 . S
H1359 C1340 0.913 . S
C179 C6 1.700 . S
C194 C16 1.700 . S
C229 C26 1.700 . S
C244 C36 1.700 . S
C279 C56 1.700 . S
C294 C46 1.700 . S
C329 C76 1.700 . S
C344 C66 1.700 . S
C379 C86 1.700 . S
C394 C96 1.700 . S
C429 C116 1.700 . S
C444 C106 1.700 . S
C479 C136 1.700 . S
C494 C126 1.700 . S
C529 C146 1.700 . S
C544 C156 1.700 . S
C579 C39 1.595 1_455 S
C594 C8 1.595 1_655 S
C629 C79 1.592 . S
C644 C48 1.592 . S
C679 C88 1.594 . S
C694 C119 1.594 . S
C729 C128 1.593 . S
C744 C159 1.593 . S
C779 C19 1.539 . S
C794 C108 1.539 . S
C829 C99 1.539 . S
C844 C28 1.539 . S
C879 C59 1.539 . S
C894 C148 1.539 . S
C929 C68 1.539 . S
C944 C139 1.539 . S
C979 C1 1.579 . S
C994 C61 1.610 . S
C1029 C21 1.610 . S
C1044 C41 1.579 . S
C1079 C29 1.579 . S
C1094 C49 1.610 . S
C1129 C69 1.580 . S
C1144 C9 1.611 . S
C1179 C81 1.579 . S
C1194 C141 1.610 . S
C1229 C101 1.610 . S
C1244 C121 1.580 . S
C1279 C109 1.579 . S
C1294 C129 1.611 . S
C1329 C149 1.580 . S
C1344 C89 1.611 . S
