# Generated by pormake.
# Topology yfz, (5)-cn, num edge types: 1
# Building blocks:
#     Node 0, Type 0, BuildingBlock: XOMCOT_clean_sbu_1, # of connection points: 5
#     Node 1, Type 0, BuildingBlock: XOMCOT_clean_sbu_1, # of connection points: 5
#     Node 2, Type 0, BuildingBlock: XOMCOT_clean_sbu_1, # of connection points: 5
#     Node 3, Type 0, BuildingBlock: XOMCOT_clean_sbu_1, # of connection points: 5
#     Node 4, Type 0, BuildingBlock: XOMCOT_clean_sbu_1, # of connection points: 5
#     Node 5, Type 0, BuildingBlock: XOMCOT_clean_sbu_1, # of connection points: 5
#     Node 6, Type 0, BuildingBlock: XOMCOT_clean_sbu_1, # of connection points: 5
#     Node 7, Type 0, BuildingBlock: XOMCOT_clean_sbu_1, # of connection points: 5
#     Edge 8, Type (0, 0), BuildingBlock: UVAHIK_clean_linker_0, # of connection points: 2
#     Edge 9, Type (0, 0), BuildingBlock: UVAHIK_clean_linker_0, # of connection points: 2
#     Edge 10, Type (0, 0), BuildingBlock: UVAHIK_clean_linker_0, # of connection points: 2
#     Edge 11, Type (0, 0), BuildingBlock: UVAHIK_clean_linker_0, # of connection points: 2
#     Edge 12, Type (0, 0), BuildingBlock: UVAHIK_clean_linker_0, # of connection points: 2
#     Edge 13, Type (0, 0), BuildingBlock: UVAHIK_clean_linker_0, # of connection points: 2
#     Edge 14, Type (0, 0), BuildingBlock: UVAHIK_clean_linker_0, # of connection points: 2
#     Edge 15, Type (0, 0), BuildingBlock: UVAHIK_clean_linker_0, # of connection points: 2
#     Edge 16, Type (0, 0), BuildingBlock: UVAHIK_clean_linker_0, # of connection points: 2
#     Edge 17, Type (0, 0), BuildingBlock: UVAHIK_clean_linker_0, # of connection points: 2
#     Edge 18, Type (0, 0), BuildingBlock: UVAHIK_clean_linker_0, # of connection points: 2
#     Edge 19, Type (0, 0), BuildingBlock: UVAHIK_clean_linker_0, # of connection points: 2
#     Edge 20, Type (0, 0), BuildingBlock: UVAHIK_clean_linker_0, # of connection points: 2
#     Edge 21, Type (0, 0), BuildingBlock: UVAHIK_clean_linker_0, # of connection points: 2
#     Edge 22, Type (0, 0), BuildingBlock: UVAHIK_clean_linker_0, # of connection points: 2
#     Edge 23, Type (0, 0), BuildingBlock: UVAHIK_clean_linker_0, # of connection points: 2
#     Edge 24, Type (0, 0), BuildingBlock: UVAHIK_clean_linker_0, # of connection points: 2
#     Edge 25, Type (0, 0), BuildingBlock: UVAHIK_clean_linker_0, # of connection points: 2
#     Edge 26, Type (0, 0), BuildingBlock: UVAHIK_clean_linker_0, # of connection points: 2
#     Edge 27, Type (0, 0), BuildingBlock: UVAHIK_clean_linker_0, # of connection points: 2
# Relax obj value: 0.146
# Max RMSD: 0.137
# Mean RMSD: 0.137
data_MOF--net-yfz--node1-XOMCOT_clean_sbu_1--edge1-UVAHIK_clean_linker_0
_symmetry_space_group_name_H-M    P1
_symmetry_Int_Tables_number       1
_symmetry_cell_setting            triclinic
loop_
_symmetry_equiv_pos_as_xyz
'x, y, z'
_cell_length_a     66.379824
_cell_length_b     66.431103
_cell_length_c     21.84564
_cell_angle_alpha  90.009859
_cell_angle_beta   90.000543
_cell_angle_gamma 90.012448
loop_
_atom_site_label
_atom_site_type_symbol
_atom_site_fract_x
_atom_site_fract_y
_atom_site_fract_z
_atom_type_partial_charge
C0 C 0.56232 0.06171 0.23038 0.0
C1 C 0.55839 0.05865 0.16932 0.0
N2 N 0.55082 0.0758 0.1457 0.0
N3 N 0.5573 0.08073 0.24544 0.0
C4 C 0.55004 0.08886 0.19319 0.0
H5 H 0.56932 0.05109 0.26129 0.0
Co6 Co 0.56231 0.09237 0.32186 0.0
C7 C 0.57026 0.13403 0.27015 0.0
O8 O 0.58991 0.13226 0.27291 0.0
N9 N 0.56666 0.10376 0.3996 0.0
C10 C 0.57607 0.12312 0.47754 0.0
C11 C 0.57733 0.12027 0.41543 0.0
C12 C 0.5592 0.09677 0.45319 0.0
N13 N 0.5646 0.10836 0.50137 0.0
O14 O 0.534 0.09169 0.33913 0.0
H15 H 0.58596 0.12949 0.38462 0.0
H16 H 0.54984 0.08349 0.45667 0.0
O17 O 0.55879 0.11971 0.28807 0.0
C18 C 0.52708 0.07418 0.35005 0.0
O19 O 0.53943 0.05874 0.3483 0.0
N20 N 0.59069 0.09131 0.30592 0.0
C21 C 0.6323 0.08713 0.28669 0.0
C22 C 0.61934 0.09208 0.23827 0.0
C23 C 0.59867 0.09387 0.24862 0.0
C24 C 0.60292 0.08492 0.35235 0.0
C25 C 0.62373 0.08325 0.34421 0.0
H26 H 0.58923 0.09809 0.21053 0.0
H27 H 0.59666 0.08101 0.3964 0.0
H28 H 0.54504 0.1043 0.18948 0.0
H29 H 0.56201 0.04519 0.14366 0.0
H30 H 0.58347 0.13491 0.50326 0.0
H31 H 0.62503 0.0945 0.19242 0.0
H32 H 0.63298 0.07912 0.38305 0.0
C33 C 0.41428 0.56611 0.76138 0.0
C34 C 0.41854 0.56316 0.70053 0.0
N35 N 0.40175 0.55648 0.67229 0.0
N36 N 0.39491 0.56123 0.77208 0.0
C37 C 0.38771 0.55512 0.71714 0.0
H38 H 0.42446 0.57216 0.7954 0.0
Co39 Co 0.3823 0.56514 0.84789 0.0
C40 C 0.34057 0.5707 0.79286 0.0
O41 O 0.34076 0.59041 0.79643 0.0
N42 N 0.37013 0.56845 0.92506 0.0
C43 C 0.34991 0.5763 0.00261 0.0
C44 C 0.3524 0.57707 0.94025 0.0
C45 C 0.37813 0.56263 0.97922 0.0
N46 N 0.36614 0.56723 0.02731 0.0
O47 O 0.38425 0.53686 0.86364 0.0
H48 H 0.34197 0.58389 0.9088 0.0
H49 H 0.39276 0.5556 0.9833 0.0
O50 O 0.35559 0.56034 0.8116 0.0
C51 C 0.40184 0.5309 0.87794 0.0
O52 O 0.41652 0.54412 0.88122 0.0
N53 N 0.382 0.59353 0.83357 0.0
C54 C 0.38624 0.63506 0.81594 0.0
C55 C 0.38108 0.62245 0.76709 0.0
C56 C 0.37922 0.60175 0.77669 0.0
C57 C 0.38809 0.60561 0.88077 0.0
C58 C 0.38981 0.62642 0.87335 0.0
H59 H 0.37509 0.59245 0.73822 0.0
H60 H 0.3921 0.59918 0.92449 0.0
H61 H 0.37216 0.55099 0.70946 0.0
H62 H 0.43285 0.56624 0.67875 0.0
H63 H 0.33704 0.58197 0.02764 0.0
H64 H 0.3783 0.62854 0.72187 0.0
H65 H 0.39446 0.63561 0.91181 0.0
C66 C 0.9165 0.41802 0.23516 0.0
C67 C 0.9201 0.42169 0.17425 0.0
N68 N 0.92794 0.4049 0.14901 0.0
N69 N 0.92201 0.399 0.24853 0.0
C70 C 0.92914 0.39144 0.19531 0.0
H71 H 0.90955 0.42828 0.2673 0.0
Co72 Co 0.91809 0.38698 0.32494 0.0
C73 C 0.91023 0.34543 0.27273 0.0
O74 O 0.89063 0.34674 0.27881 0.0
N75 N 0.91486 0.37533 0.40275 0.0
C76 C 0.90682 0.35599 0.48213 0.0
C77 C 0.90526 0.35831 0.41984 0.0
C78 C 0.92202 0.3831 0.45567 0.0
N79 N 0.91742 0.37159 0.50478 0.0
O80 O 0.94656 0.38812 0.3393 0.0
H81 H 0.89712 0.34836 0.38987 0.0
H82 H 0.9305 0.39698 0.45795 0.0
O83 O 0.92172 0.35987 0.28961 0.0
C84 C 0.95332 0.4057 0.35009 0.0
O85 O 0.94071 0.42094 0.35021 0.0
N86 N 0.88955 0.38755 0.31199 0.0
C87 C 0.84784 0.39137 0.29688 0.0
C88 C 0.86022 0.38668 0.24704 0.0
C89 C 0.881 0.38505 0.25536 0.0
C90 C 0.87772 0.39353 0.35992 0.0
C91 C 0.85682 0.395 0.35378 0.0
H92 H 0.8901 0.381 0.21631 0.0
H93 H 0.88438 0.39742 0.40342 0.0
H94 H 0.93454 0.37617 0.1902 0.0
H95 H 0.91624 0.43533 0.14986 0.0
H96 H 0.90013 0.34399 0.50872 0.0
H97 H 0.85387 0.38389 0.20215 0.0
H98 H 0.84781 0.39935 0.39295 0.0
C99 C 0.06371 0.92098 0.75026 0.0
C100 C 0.06032 0.92503 0.68934 0.0
N101 N 0.07808 0.92967 0.66306 0.0
N102 N 0.0835 0.9231 0.76244 0.0
C103 C 0.09182 0.92874 0.70858 0.0
H104 H 0.05263 0.9158 0.78294 0.0
Co105 Co 0.09536 0.91663 0.83748 0.0
C106 C 0.13703 0.90914 0.78527 0.0
O107 O 0.13578 0.88955 0.79177 0.0
N108 N 0.10683 0.91071 0.91497 0.0
C109 C 0.12711 0.90349 0.99315 0.0
C110 C 0.12533 0.90396 0.9306 0.0
C111 C 0.09766 0.91401 0.96947 0.0
N112 N 0.10968 0.90989 0.01786 0.0
O113 O 0.09489 0.9445 0.85961 0.0
H114 H 0.13725 0.9 0.8997 0.0
H115 H 0.08235 0.91931 0.97355 0.0
O116 O 0.1226 0.92057 0.80273 0.0
C117 C 0.0781 0.94958 0.88306 0.0
O118 O 0.06363 0.93612 0.88622 0.0
N119 N 0.09396 0.8888 0.81692 0.0
C120 C 0.08906 0.84783 0.79219 0.0
C121 C 0.09609 0.86092 0.74685 0.0
C122 C 0.09784 0.88144 0.75954 0.0
C123 C 0.08585 0.87635 0.86018 0.0
C124 C 0.08343 0.85578 0.84896 0.0
H125 H 0.10327 0.89119 0.72371 0.0
H126 H 0.08099 0.88231 0.90371 0.0
H127 H 0.10779 0.93107 0.70189 0.0
H128 H 0.04613 0.92336 0.66543 0.0
H129 H 0.14056 0.89938 0.01815 0.0
H130 H 0.10012 0.85535 0.70188 0.0
H131 H 0.07749 0.84614 0.88466 0.0
C132 C 0.56142 0.41637 0.25196 0.0
C133 C 0.55791 0.42025 0.31296 0.0
N134 N 0.55199 0.403 0.34 0.0
N135 N 0.55775 0.39677 0.24053 0.0
C136 C 0.55164 0.38912 0.29482 0.0
H137 H 0.56727 0.4269 0.21866 0.0
Co138 Co 0.56289 0.38401 0.16578 0.0
C139 C 0.57016 0.34296 0.21983 0.0
O140 O 0.58952 0.34372 0.20792 0.0
N141 N 0.56724 0.37163 0.08855 0.0
C142 C 0.57066 0.3504 0.01033 0.0
C143 C 0.57063 0.35224 0.0729 0.0
C144 C 0.56523 0.38118 0.03406 0.0
N145 N 0.5672 0.36863 0.98565 0.0
O146 O 0.53482 0.38537 0.14675 0.0
H147 H 0.57223 0.33977 0.10379 0.0
H148 H 0.56236 0.39712 0.03007 0.0
O149 O 0.55854 0.35738 0.20363 0.0
C150 C 0.53041 0.40209 0.12172 0.0
O151 O 0.54456 0.4158 0.11616 0.0
N152 N 0.59116 0.38442 0.18323 0.0
C153 C 0.63268 0.38825 0.20506 0.0
C154 C 0.61937 0.38341 0.25266 0.0
C155 C 0.59875 0.38175 0.241 0.0
C156 C 0.60383 0.39029 0.13728 0.0
C157 C 0.62457 0.39185 0.14678 0.0
H158 H 0.58905 0.37764 0.27851 0.0
H159 H 0.598 0.39412 0.09275 0.0
H160 H 0.54799 0.37343 0.30198 0.0
H161 H 0.56076 0.43433 0.33632 0.0
H162 H 0.57227 0.33645 0.98526 0.0
H163 H 0.62473 0.38106 0.29891 0.0
H164 H 0.63412 0.39578 0.10844 0.0
C165 C 0.06369 0.56269 0.75456 0.0
C166 C 0.05974 0.55952 0.81546 0.0
N167 N 0.07685 0.55337 0.84306 0.0
N168 N 0.08315 0.55843 0.74313 0.0
C169 C 0.09077 0.55258 0.79777 0.0
H170 H 0.05319 0.56842 0.72097 0.0
Co171 Co 0.09513 0.56278 0.66683 0.0
C172 C 0.13745 0.56901 0.71861 0.0
O173 O 0.13723 0.58871 0.71507 0.0
N174 N 0.10671 0.56677 0.58915 0.0
C175 C 0.12602 0.57638 0.51134 0.0
C176 C 0.12342 0.57716 0.5736 0.0
C177 C 0.09936 0.55995 0.53521 0.0
N178 N 0.11085 0.56557 0.48697 0.0
O179 O 0.09389 0.53447 0.65029 0.0
H180 H 0.13297 0.58529 0.6047 0.0
H181 H 0.08553 0.55145 0.53134 0.0
O182 O 0.12226 0.55859 0.7013 0.0
C183 C 0.07638 0.52796 0.63719 0.0
O184 O 0.06126 0.54069 0.63595 0.0
N185 N 0.09461 0.59094 0.68176 0.0
C186 C 0.0896 0.63248 0.69882 0.0
C187 C 0.0971 0.62023 0.74601 0.0
C188 C 0.09889 0.59949 0.73718 0.0
C189 C 0.08619 0.6024 0.63668 0.0
C190 C 0.08373 0.62314 0.64398 0.0
H191 H 0.10427 0.59039 0.77472 0.0
H192 H 0.08097 0.59544 0.59489 0.0
H193 H 0.10648 0.54897 0.80483 0.0
H194 H 0.04539 0.56202 0.83763 0.0
H195 H 0.13824 0.5833 0.48616 0.0
H196 H 0.10182 0.62652 0.78939 0.0
H197 H 0.07691 0.63164 0.60714 0.0
C198 C 0.91689 0.0638 0.25847 0.0
C199 C 0.92066 0.06025 0.31935 0.0
N200 N 0.92813 0.07722 0.34442 0.0
N201 N 0.92192 0.08294 0.24495 0.0
C202 C 0.92896 0.0907 0.29804 0.0
H203 H 0.91013 0.05337 0.22648 0.0
Co204 Co 0.91762 0.0948 0.16848 0.0
C205 C 0.90923 0.13632 0.22023 0.0
O206 O 0.88963 0.13464 0.21471 0.0
N207 N 0.91399 0.10632 0.0906 0.0
C208 C 0.90533 0.12541 0.01127 0.0
C209 C 0.90388 0.12304 0.07357 0.0
C210 C 0.92134 0.09876 0.03762 0.0
N211 N 0.91637 0.11013 0.98854 0.0
O212 O 0.94607 0.09409 0.15358 0.0
H213 H 0.89546 0.13273 0.1036 0.0
H214 H 0.93022 0.08515 0.03525 0.0
O215 O 0.92089 0.12202 0.2034 0.0
C216 C 0.9528 0.07653 0.14228 0.0
O217 O 0.94018 0.06131 0.14135 0.0
N218 N 0.88914 0.09376 0.18211 0.0
C219 C 0.84758 0.0889 0.1984 0.0
C220 C 0.85998 0.09404 0.24781 0.0
C221 C 0.88069 0.09618 0.2389 0.0
C222 C 0.87733 0.08738 0.13461 0.0
C223 C 0.8565 0.08538 0.14134 0.0
H224 H 0.88979 0.10053 0.27763 0.0
H225 H 0.88398 0.08354 0.09103 0.0
H226 H 0.93399 0.10609 0.30305 0.0
H227 H 0.91715 0.04653 0.34385 0.0
H228 H 0.89827 0.13721 0.98473 0.0
H229 H 0.85368 0.09676 0.2928 0.0
H230 H 0.84749 0.0807 0.1025 0.0
C231 C 0.4188 0.91952 0.77563 0.0
C232 C 0.4223 0.92342 0.83646 0.0
N233 N 0.4053 0.93096 0.86121 0.0
N234 N 0.39968 0.92455 0.76179 0.0
C235 C 0.39187 0.93173 0.81466 0.0
H236 H 0.42924 0.91258 0.74398 0.0
Co237 Co 0.38785 0.91973 0.68552 0.0
C238 C 0.34614 0.91214 0.73713 0.0
O239 O 0.34759 0.89251 0.73267 0.0
N240 N 0.37639 0.91556 0.60773 0.0
C241 C 0.35731 0.90651 0.52873 0.0
C242 C 0.35968 0.90534 0.59109 0.0
C243 C 0.38394 0.92268 0.55445 0.0
N244 N 0.37257 0.91748 0.50556 0.0
O245 O 0.38884 0.94802 0.66832 0.0
H246 H 0.34998 0.89706 0.62146 0.0
H247 H 0.39752 0.93161 0.55174 0.0
O248 O 0.36059 0.92355 0.71982 0.0
C249 C 0.40639 0.95479 0.65705 0.0
O250 O 0.42174 0.94232 0.65839 0.0
N251 N 0.38854 0.89136 0.70144 0.0
C252 C 0.39209 0.84976 0.72113 0.0
C253 C 0.38737 0.86285 0.76941 0.0
C254 C 0.38586 0.88349 0.75882 0.0
C255 C 0.3947 0.87899 0.65508 0.0
C256 C 0.39608 0.85818 0.66347 0.0
H257 H 0.38174 0.89302 0.7968 0.0
H258 H 0.39866 0.88514 0.61092 0.0
H259 H 0.37644 0.93668 0.8195 0.0
H260 H 0.43597 0.91987 0.86123 0.0
H261 H 0.34548 0.89934 0.50248 0.0
H262 H 0.38487 0.85726 0.81533 0.0
H263 H 0.40005 0.84882 0.62473 0.0
C264 C 0.39589 0.98583 0.59987 0.0
C265 C 0.40983 0.97571 0.63716 0.0
C266 C 0.40127 0.00399 0.57138 0.0
C267 C 0.42578 0.02816 0.478 0.0
H268 H 0.46432 0.06534 0.5489 0.0
C269 C 0.49702 0.05223 0.35776 0.0
C270 C 0.50611 0.07087 0.36979 0.0
C271 C 0.47875 0.04715 0.38502 0.0
C272 C 0.4532 0.05552 0.52826 0.0
H273 H 0.43951 0.97721 0.67805 0.0
H274 H 0.44878 0.00871 0.62946 0.0
H275 H 0.44317 0.04493 0.61567 0.0
H276 H 0.50277 0.09936 0.41689 0.0
H277 H 0.47071 0.09031 0.46597 0.0
H278 H 0.43661 0.03795 0.3906 0.0
C279 C 0.43375 0.00288 0.62179 0.0
C280 C 0.4412 0.04368 0.56659 0.0
C281 C 0.42852 0.9847 0.64928 0.0
C282 C 0.49598 0.08491 0.40672 0.0
C283 C 0.47773 0.07969 0.43496 0.0
C284 C 0.43777 0.04001 0.43967 0.0
C285 C 0.42051 0.01239 0.58077 0.0
C286 C 0.42823 0.02905 0.54185 0.0
C287 C 0.46922 0.06051 0.4257 0.0
C288 C 0.45243 0.05295 0.46444 0.0
H289 H 0.38141 0.97911 0.5896 0.0
H290 H 0.39074 0.011 0.54009 0.0
H291 H 0.41594 0.01706 0.45739 0.0
H292 H 0.50449 0.04117 0.32924 0.0
H293 H 0.47283 0.03216 0.37745 0.0
C294 C 0.49256 0.40022 0.11987 0.0
C295 C 0.51084 0.40554 0.09187 0.0
C296 C 0.47419 0.40615 0.09347 0.0
C297 C 0.45172 0.42567 0.94964 0.0
H298 H 0.42196 0.46256 0.05321 0.0
C299 C 0.42439 0.50144 0.87018 0.0
C300 C 0.40626 0.50967 0.89133 0.0
C301 C 0.43058 0.48247 0.88955 0.0
C302 C 0.42963 0.45187 0.0239 0.0
H303 H 0.52446 0.41991 0.01309 0.0
H304 H 0.49275 0.42975 0.9666 0.0
H305 H 0.44575 0.43896 0.09929 0.0
H306 H 0.37995 0.5045 0.94777 0.0
H307 H 0.39121 0.47118 0.98379 0.0
H308 H 0.43684 0.43969 0.87389 0.0
C309 C 0.49236 0.4212 0.00882 0.0
C310 C 0.44326 0.43834 0.05032 0.0
C311 C 0.51054 0.41573 0.03572 0.0
C312 C 0.39393 0.49828 0.93045 0.0
C313 C 0.40038 0.47935 0.95115 0.0
C314 C 0.43814 0.43917 0.9233 0.0
C315 C 0.47399 0.41692 0.03796 0.0
C316 C 0.45529 0.42598 0.01304 0.0
C317 C 0.41896 0.47144 0.93158 0.0
C318 C 0.42787 0.4532 0.95989 0.0
H319 H 0.4925 0.39239 0.16337 0.0
H320 H 0.46023 0.40276 0.11696 0.0
H321 H 0.4606 0.41608 0.91994 0.0
H322 H 0.43414 0.51 0.84007 0.0
H323 H 0.44512 0.47696 0.8744 0.0
C324 C 0.98518 0.39552 0.40364 0.0
C325 C 0.97448 0.40931 0.36734 0.0
C326 C 0.00369 0.40106 0.42974 0.0
C327 C 0.04331 0.44104 0.42856 0.0
H328 H 0.03961 0.43743 0.60527 0.0
C329 C 0.0541 0.49813 0.6326 0.0
C330 C 0.07277 0.50692 0.61902 0.0
C331 C 0.04869 0.47972 0.60688 0.0
C332 C 0.04113 0.43829 0.55596 0.0
H333 H 0.97526 0.43886 0.32563 0.0
H334 H 0.00739 0.4484 0.37 0.0
H335 H 0.01799 0.41637 0.54178 0.0
H336 H 0.10094 0.50302 0.57052 0.0
H337 H 0.09126 0.47074 0.52391 0.0
H338 H 0.06518 0.46423 0.44283 0.0
C339 C 0.00173 0.43338 0.37874 0.0
C340 C 0.02885 0.42609 0.51952 0.0
C341 C 0.9832 0.42799 0.35368 0.0
C342 C 0.0865 0.49643 0.58194 0.0
C343 C 0.08092 0.47806 0.55513 0.0
C344 C 0.05561 0.45322 0.46501 0.0
C345 C 0.01186 0.4203 0.41884 0.0
C346 C 0.02899 0.4282 0.4555 0.0
C347 C 0.06172 0.46979 0.56614 0.0
C348 C 0.05377 0.4528 0.52909 0.0
H349 H 0.97867 0.38105 0.41506 0.0
H350 H 0.01117 0.39067 0.4604 0.0
H351 H 0.04396 0.44276 0.37929 0.0
H352 H 0.04327 0.50593 0.66118 0.0
H353 H 0.03369 0.47399 0.61569 0.0
C354 C 0.98307 0.05507 0.14995 0.0
C355 C 0.97414 0.07278 0.1282 0.0
C356 C 0.00197 0.04915 0.12904 0.0
C357 C 0.03082 0.05022 0.99034 0.0
H358 H 0.06746 0.01858 0.08959 0.0
C359 C 0.08115 0.98729 0.88773 0.0
C360 C 0.07537 0.96896 0.91455 0.0
C361 C 0.07578 0.00559 0.91555 0.0
C362 C 0.05765 0.02767 0.06119 0.0
H363 H 0.9781 0.09873 0.06949 0.0
H364 H 0.01129 0.08801 0.03107 0.0
H365 H 0.04463 0.04243 0.13878 0.0
H366 H 0.06071 0.95516 0.99251 0.0
H367 H 0.05199 0.98675 0.04171 0.0
H368 H 0.04283 0.03429 0.91317 0.0
C369 C 0.00372 0.07891 0.06516 0.0
C370 C 0.04457 0.04128 0.08931 0.0
C371 C 0.98484 0.08508 0.08727 0.0
C372 C 0.06529 0.96911 0.97092 0.0
C373 C 0.06044 0.98722 0.99931 0.0
C374 C 0.04399 0.03661 0.96213 0.0
C375 C 0.01225 0.06063 0.08493 0.0
C376 C 0.03018 0.05176 0.05452 0.0
C377 C 0.06516 0.00565 0.97135 0.0
C378 C 0.05664 0.02436 0.99775 0.0
H379 H 0.97505 0.04534 0.18147 0.0
H380 H 0.00791 0.03484 0.1445 0.0
H381 H 0.01987 0.05803 0.96231 0.0
H382 H 0.08886 0.98746 0.84403 0.0
H383 H 0.07946 0.01962 0.89295 0.0
C384 C 0.54618 0.16246 0.28845 0.0
C385 C 0.56201 0.15394 0.25447 0.0
C386 C 0.54205 0.18312 0.28372 0.0
C387 C 0.53454 0.22831 0.2515 0.0
H388 H 0.58536 0.25707 0.2566 0.0
C389 C 0.54563 0.31456 0.2104 0.0
C390 C 0.5619 0.32363 0.24091 0.0
C391 C 0.54151 0.29406 0.21924 0.0
C392 C 0.57099 0.24935 0.25605 0.0
H393 H 0.58438 0.15954 0.18444 0.0
H394 H 0.57679 0.19524 0.17467 0.0
H395 H 0.58538 0.22075 0.25136 0.0
H396 H 0.58513 0.31935 0.30907 0.0
H397 H 0.57745 0.28395 0.32661 0.0
H398 H 0.52026 0.25734 0.25658 0.0
C399 C 0.568 0.18628 0.20636 0.0
C400 C 0.57101 0.22847 0.25195 0.0
C401 C 0.57227 0.16584 0.21165 0.0
C402 C 0.57263 0.31257 0.28467 0.0
C403 C 0.56831 0.29229 0.29429 0.0
C404 C 0.53451 0.24942 0.25534 0.0
C405 C 0.55361 0.19537 0.24463 0.0
C406 C 0.55285 0.21767 0.24903 0.0
C407 C 0.5535 0.28251 0.25914 0.0
C408 C 0.5528 0.26014 0.25783 0.0
H409 H 0.53813 0.15356 0.32204 0.0
H410 H 0.53086 0.18972 0.31372 0.0
H411 H 0.52032 0.22035 0.24949 0.0
H412 H 0.53725 0.32282 0.17605 0.0
H413 H 0.53001 0.28697 0.19146 0.0
C414 C 0.16317 0.54183 0.70443 0.0
C415 C 0.15653 0.55913 0.73544 0.0
C416 C 0.18297 0.53495 0.71224 0.0
C417 C 0.22898 0.53994 0.69837 0.0
H418 H 0.25718 0.54 0.85389 0.0
C419 C 0.3085 0.57035 0.73419 0.0
C420 C 0.32158 0.56074 0.77531 0.0
C421 C 0.28908 0.56296 0.72466 0.0
C422 C 0.24953 0.53948 0.81011 0.0
H423 H 0.16462 0.58189 0.80201 0.0
H424 H 0.19886 0.5696 0.81697 0.0
H425 H 0.22035 0.53957 0.85222 0.0
H426 H 0.32503 0.53538 0.83679 0.0
H427 H 0.29065 0.5227 0.82135 0.0
H428 H 0.25813 0.54133 0.65635 0.0
C429 C 0.18897 0.56142 0.78633 0.0
C430 C 0.22847 0.53935 0.8092 0.0
C431 C 0.16942 0.56853 0.77753 0.0
C432 C 0.31525 0.54299 0.80453 0.0
C433 C 0.2956 0.5358 0.79595 0.0
C434 C 0.25003 0.54035 0.6993 0.0
C435 C 0.19617 0.54499 0.75229 0.0
C436 C 0.218 0.54031 0.75337 0.0
C437 C 0.28221 0.546 0.75692 0.0
C438 C 0.26048 0.54085 0.75522 0.0
H439 H 0.15353 0.53442 0.67135 0.0
H440 H 0.18818 0.52226 0.68545 0.0
H441 H 0.2213 0.54084 0.65469 0.0
H442 H 0.31304 0.58404 0.71103 0.0
H443 H 0.27904 0.57127 0.69484 0.0
C444 C 0.9337 0.16472 0.20675 0.0
C445 C 0.91734 0.1561 0.23805 0.0
C446 C 0.93791 0.18531 0.2133 0.0
C447 C 0.94529 0.23023 0.24845 0.0
H448 H 0.8948 0.25942 0.23856 0.0
C449 C 0.9342 0.31676 0.28765 0.0
C450 C 0.9186 0.32585 0.25417 0.0
C451 C 0.93827 0.29617 0.28025 0.0
C452 C 0.90909 0.25157 0.2406 0.0
H453 H 0.89401 0.16142 0.30537 0.0
H454 H 0.90173 0.19698 0.3184 0.0
H455 H 0.89442 0.22308 0.24297 0.0
H456 H 0.89656 0.32145 0.18245 0.0
H457 H 0.90412 0.28591 0.16772 0.0
H458 H 0.95985 0.25917 0.24549 0.0
C459 C 0.9109 0.18817 0.28734 0.0
C460 C 0.90885 0.23068 0.2442 0.0
C461 C 0.90654 0.1678 0.28017 0.0
C462 C 0.90852 0.31468 0.2092 0.0
C463 C 0.91278 0.29432 0.20112 0.0
C464 C 0.94553 0.25136 0.24514 0.0
C465 C 0.92589 0.1974 0.25159 0.0
C466 C 0.92688 0.21972 0.24858 0.0
C467 C 0.92687 0.28457 0.23891 0.0
C468 C 0.92738 0.26221 0.24082 0.0
H469 H 0.94217 0.15597 0.17376 0.0
H470 H 0.94957 0.192 0.1852 0.0
H471 H 0.95942 0.22215 0.25166 0.0
H472 H 0.94207 0.3251 0.32293 0.0
H473 H 0.94922 0.28909 0.31002 0.0
C474 C 0.31734 0.9358 0.72015 0.0
C475 C 0.32648 0.92052 0.75482 0.0
C476 C 0.29669 0.93976 0.72689 0.0
C477 C 0.25226 0.91047 0.76685 0.0
H478 H 0.22232 0.96041 0.75345 0.0
C479 C 0.16507 0.93405 0.79863 0.0
C480 C 0.15669 0.91755 0.7674 0.0
C481 C 0.18562 0.93853 0.79223 0.0
C482 C 0.23055 0.94639 0.75729 0.0
H483 H 0.32209 0.89899 0.82791 0.0
H484 H 0.28643 0.90636 0.84137 0.0
H485 H 0.25935 0.96124 0.76033 0.0
H486 H 0.16239 0.89426 0.70033 0.0
H487 H 0.1979 0.90242 0.6876 0.0
H488 H 0.2239 0.8955 0.76431 0.0
C489 C 0.29486 0.91485 0.80764 0.0
C490 C 0.25168 0.94686 0.76102 0.0
C491 C 0.31528 0.9107 0.80026 0.0
C492 C 0.16858 0.9069 0.72544 0.0
C493 C 0.18892 0.91151 0.71845 0.0
C494 C 0.23137 0.91 0.76278 0.0
C495 C 0.28508 0.92858 0.76873 0.0
C496 C 0.26271 0.92885 0.76623 0.0
C497 C 0.19791 0.92664 0.75417 0.0
C498 C 0.22023 0.92788 0.75757 0.0
H499 H 0.32571 0.94347 0.68451 0.0
H500 H 0.28958 0.95043 0.69628 0.0
H501 H 0.26026 0.89629 0.7696 0.0
H502 H 0.15617 0.94242 0.83152 0.0
H503 H 0.19214 0.95029 0.82031 0.0
C504 C 0.37919 0.81833 0.77204 0.0
C505 C 0.39271 0.82756 0.73104 0.0
C506 C 0.3797 0.79756 0.78171 0.0
C507 C 0.39332 0.75014 0.70967 0.0
H508 H 0.39375 0.72906 0.87518 0.0
C509 C 0.39908 0.66481 0.75719 0.0
C510 C 0.38811 0.65708 0.80686 0.0
C511 C 0.40073 0.68559 0.74845 0.0
C512 C 0.39333 0.73464 0.82864 0.0
H513 H 0.4175 0.82189 0.66843 0.0
H514 H 0.41782 0.7855 0.68391 0.0
H515 H 0.39432 0.76535 0.85863 0.0
H516 H 0.37006 0.66491 0.88587 0.0
H517 H 0.37229 0.70113 0.86971 0.0
H518 H 0.39159 0.7196 0.67935 0.0
C519 C 0.40691 0.79451 0.70858 0.0
C520 C 0.39377 0.75544 0.81926 0.0
C521 C 0.40662 0.81536 0.69954 0.0
C522 C 0.37879 0.6705 0.84758 0.0
C523 C 0.38018 0.69127 0.83839 0.0
C524 C 0.39257 0.72933 0.719 0.0
C525 C 0.3935 0.78545 0.74996 0.0
C526 C 0.3937 0.76338 0.75972 0.0
C527 C 0.39119 0.69912 0.78872 0.0
C528 C 0.39249 0.72129 0.77865 0.0
H529 H 0.36794 0.82708 0.79611 0.0
H530 H 0.369 0.79089 0.81322 0.0
H531 H 0.39304 0.7559 0.66329 0.0
H532 H 0.40662 0.65477 0.72553 0.0
H533 H 0.40966 0.69102 0.7104 0.0
C534 C 0.81711 0.40298 0.24032 0.0
C535 C 0.82567 0.39239 0.28947 0.0
C536 C 0.79622 0.40352 0.23256 0.0
C537 C 0.74786 0.39331 0.31409 0.0
H538 H 0.7263 0.39206 0.14913 0.0
C539 C 0.66429 0.37649 0.25792 0.0
C540 C 0.65481 0.38958 0.21618 0.0
C541 C 0.68505 0.37761 0.26806 0.0
C542 C 0.73213 0.39258 0.19543 0.0
H543 H 0.81919 0.37394 0.36875 0.0
H544 H 0.78278 0.37428 0.35434 0.0
H545 H 0.76265 0.39232 0.1645 0.0
H546 H 0.65997 0.4144 0.15334 0.0
H547 H 0.69627 0.4158 0.16966 0.0
H548 H 0.71717 0.39287 0.34465 0.0
C549 C 0.79207 0.3827 0.32265 0.0
C550 C 0.75297 0.39282 0.20435 0.0
C551 C 0.81295 0.38241 0.33085 0.0
C552 C 0.66671 0.40379 0.18485 0.0
C553 C 0.68752 0.40469 0.19438 0.0
C554 C 0.72702 0.39277 0.3051 0.0
C555 C 0.7834 0.39322 0.27329 0.0
C556 C 0.76115 0.39321 0.26383 0.0
C557 C 0.69687 0.39162 0.2361 0.0
C558 C 0.71896 0.39242 0.2457 0.0
H559 H 0.82659 0.41101 0.20816 0.0
H560 H 0.79014 0.41214 0.19479 0.0
H561 H 0.75353 0.39399 0.36052 0.0
H562 H 0.65576 0.3651 0.28207 0.0
H563 H 0.69194 0.36719 0.29996 0.0
C564 C 0.10515 0.81554 0.76058 0.0
C565 C 0.08799 0.82594 0.7805 0.0
C566 C 0.10443 0.79479 0.75067 0.0
C567 C 0.07325 0.74927 0.78409 0.0
H568 H 0.10783 0.72577 0.66039 0.0
C569 C 0.08391 0.66326 0.76447 0.0
C570 C 0.08787 0.65475 0.70669 0.0
C571 C 0.08309 0.68413 0.77208 0.0
C572 C 0.09778 0.73201 0.69449 0.0
H573 H 0.05651 0.82308 0.80464 0.0
H574 H 0.05484 0.78697 0.78447 0.0
H575 H 0.10725 0.76191 0.67358 0.0
H576 H 0.09383 0.66195 0.61136 0.0
H577 H 0.09099 0.69804 0.62378 0.0
H578 H 0.06293 0.71943 0.80259 0.0
C579 C 0.06912 0.79458 0.77851 0.0
C580 C 0.09775 0.75285 0.70295 0.0
C581 C 0.06998 0.8153 0.7897 0.0
C582 C 0.09048 0.66778 0.6565 0.0
C583 C 0.08923 0.68863 0.66388 0.0
C584 C 0.07297 0.72845 0.77477 0.0
C585 C 0.08638 0.78398 0.75916 0.0
C586 C 0.08569 0.76179 0.74841 0.0
C587 C 0.08577 0.69715 0.72192 0.0
C588 C 0.0854 0.71947 0.73029 0.0
H589 H 0.11927 0.82343 0.75389 0.0
H590 H 0.11819 0.78722 0.73732 0.0
H591 H 0.06391 0.75545 0.8201 0.0
H592 H 0.0814 0.65384 0.80416 0.0
H593 H 0.08067 0.69 0.81772 0.0
C594 C 0.81241 0.09686 0.1651 0.0
C595 C 0.82548 0.0873 0.20637 0.0
C596 C 0.79156 0.09594 0.17356 0.0
C597 C 0.75278 0.08457 0.29183 0.0
H598 H 0.71716 0.08359 0.15114 0.0
C599 C 0.66644 0.07206 0.30886 0.0
C600 C 0.65453 0.08615 0.2771 0.0
C601 C 0.68732 0.07146 0.30035 0.0
C602 C 0.72695 0.08393 0.1908 0.0
H603 H 0.82706 0.06884 0.28791 0.0
H604 H 0.79067 0.06659 0.30172 0.0
H605 H 0.75353 0.08334 0.13567 0.0
H606 H 0.65555 0.11087 0.21201 0.0
H607 H 0.6918 0.10927 0.1958 0.0
H608 H 0.726 0.08469 0.34675 0.0
C609 C 0.79644 0.07535 0.2638 0.0
C610 C 0.74781 0.0839 0.18204 0.0
C611 C 0.81731 0.07653 0.25579 0.0
C612 C 0.66408 0.0995 0.2363 0.0
C613 C 0.68488 0.09869 0.22715 0.0
C614 C 0.73191 0.08429 0.30054 0.0
C615 C 0.78327 0.08517 0.22303 0.0
C616 C 0.76103 0.08443 0.23242 0.0
C617 C 0.69671 0.08472 0.25924 0.0
C618 C 0.71882 0.08417 0.2501 0.0
H619 H 0.81834 0.10547 0.12703 0.0
H620 H 0.78199 0.10404 0.14188 0.0
H621 H 0.7624 0.08533 0.33177 0.0
H622 H 0.65966 0.06129 0.33981 0.0
H623 H 0.6961 0.06042 0.32524 0.0
C624 C 0.55543 0.08631 0.5887 0.0
C625 C 0.55965 0.10556 0.56516 0.0
C626 C 0.55187 0.08359 0.65135 0.0
C627 C 0.56277 0.10752 0.79985 0.0
H628 H 0.5225 0.07069 0.86292 0.0
C629 C 0.5494 0.09973 0.05875 0.0
C630 C 0.5475 0.08003 0.0816 0.0
C631 C 0.54843 0.10345 0.99582 0.0
C632 C 0.53391 0.08092 0.84602 0.0
H633 H 0.56227 0.13717 0.58872 0.0
H634 H 0.55613 0.13244 0.69751 0.0
H635 H 0.52554 0.07578 0.75248 0.0
H636 H 0.54193 0.04898 0.05602 0.0
H637 H 0.54075 0.05537 0.94637 0.0
H638 H 0.57144 0.11244 0.89282 0.0
C639 C 0.55602 0.11937 0.66786 0.0
C640 C 0.53565 0.08383 0.78274 0.0
C641 C 0.55957 0.12208 0.60542 0.0
C642 C 0.54376 0.06428 0.04004 0.0
C643 C 0.54285 0.06799 0.97709 0.0
C644 C 0.56107 0.10459 0.86292 0.0
C645 C 0.55244 0.10007 0.69178 0.0
C646 C 0.55014 0.09715 0.75895 0.0
C647 C 0.5456 0.08756 0.95409 0.0
C648 C 0.54666 0.09122 0.88689 0.0
H649 H 0.55552 0.07324 0.55913 0.0
H650 H 0.54932 0.0685 0.66839 0.0
H651 H 0.57434 0.1176 0.78306 0.0
H652 H 0.55241 0.11224 0.08908 0.0
H653 H 0.55026 0.11876 0.97979 0.0
C654 C 0.38248 0.54275 0.584 0.0
C655 C 0.39879 0.55398 0.60705 0.0
C656 C 0.37909 0.54136 0.5208 0.0
C657 C 0.40375 0.54892 0.36966 0.0
H658 H 0.34922 0.55722 0.31141 0.0
C659 C 0.36031 0.57562 0.13632 0.0
C660 C 0.36991 0.56376 0.09164 0.0
C661 C 0.36367 0.57223 0.19858 0.0
C662 C 0.36454 0.5549 0.32692 0.0
H663 H 0.42431 0.57254 0.58046 0.0
H664 H 0.4185 0.56996 0.47139 0.0
H665 H 0.35564 0.55502 0.42112 0.0
H666 H 0.39057 0.53885 0.07811 0.0
H667 H 0.39658 0.53305 0.18705 0.0
H668 H 0.41273 0.54945 0.27547 0.0
C669 C 0.40847 0.56197 0.50206 0.0
C670 C 0.36819 0.55341 0.38982 0.0
C671 C 0.41181 0.56344 0.56502 0.0
C672 C 0.3831 0.54845 0.11107 0.0
C673 C 0.38652 0.54509 0.17356 0.0
C674 C 0.40009 0.55034 0.30671 0.0
C675 C 0.39199 0.55108 0.47909 0.0
C676 C 0.38788 0.55075 0.41204 0.0
C677 C 0.37677 0.55691 0.21807 0.0
C678 C 0.38049 0.55371 0.28462 0.0
H679 H 0.37229 0.53503 0.61467 0.0
H680 H 0.36637 0.53266 0.50458 0.0
H681 H 0.41907 0.54663 0.38521 0.0
H682 H 0.35039 0.58781 0.12335 0.0
H683 H 0.35625 0.58191 0.23151 0.0
C684 C 0.92986 0.38213 0.05928 0.0
C685 C 0.93158 0.40152 0.08465 0.0
C686 C 0.93136 0.37925 0.99599 0.0
C687 C 0.92391 0.40659 0.85149 0.0
H688 H 0.95014 0.36026 0.77882 0.0
C689 C 0.92599 0.39497 0.5895 0.0
C690 C 0.92213 0.37534 0.56836 0.0
C691 C 0.92954 0.39861 0.65169 0.0
C692 C 0.94261 0.3732 0.79841 0.0
H693 H 0.9374 0.43287 0.06344 0.0
H694 H 0.93994 0.42785 0.9532 0.0
H695 H 0.95219 0.3656 0.88921 0.0
H696 H 0.91984 0.34407 0.59623 0.0
H697 H 0.92543 0.35047 0.70433 0.0
H698 H 0.9139 0.41398 0.76122 0.0
C699 C 0.93706 0.41493 0.98217 0.0
C700 C 0.94382 0.37627 0.86168 0.0
C701 C 0.93561 0.41781 0.04539 0.0
C702 C 0.92242 0.35942 0.61081 0.0
C703 C 0.92592 0.36306 0.67289 0.0
C704 C 0.92264 0.40349 0.78833 0.0
C705 C 0.93459 0.39568 0.9566 0.0
C706 C 0.93434 0.39291 0.88902 0.0
C707 C 0.92932 0.38273 0.69428 0.0
C708 C 0.9318 0.38666 0.76101 0.0
H709 H 0.92652 0.36927 0.08791 0.0
H710 H 0.92919 0.36424 0.97773 0.0
H711 H 0.91616 0.4194 0.87118 0.0
H712 H 0.9258 0.40763 0.55837 0.0
H713 H 0.93236 0.41392 0.66642 0.0
C714 C 0.11743 0.90342 0.1271 0.0
C715 C 0.10548 0.91286 0.08225 0.0
C716 C 0.1142 0.9071 0.18926 0.0
C717 C 0.07642 0.92303 0.30068 0.0
H718 H 0.12267 0.93479 0.4031 0.0
C719 C 0.0674 0.93965 0.559 0.0
C720 C 0.08192 0.93132 0.59831 0.0
C721 C 0.07034 0.93961 0.49556 0.0
C722 C 0.1096 0.9313 0.37543 0.0
H723 H 0.08046 0.93347 0.0688 0.0
H724 H 0.07455 0.93941 0.17751 0.0
H725 H 0.12726 0.92975 0.2935 0.0
H726 H 0.11092 0.91643 0.60192 0.0
H727 H 0.11594 0.91595 0.49175 0.0
H728 H 0.0588 0.92383 0.38259 0.0
C729 C 0.08648 0.92922 0.16402 0.0
C730 C 0.11224 0.9285 0.31254 0.0
C731 C 0.08985 0.92572 0.10162 0.0
C732 C 0.09963 0.92331 0.57295 0.0
C733 C 0.10249 0.92305 0.50958 0.0
C734 C 0.07378 0.9256 0.36377 0.0
C735 C 0.0988 0.92013 0.2084 0.0
C736 C 0.09572 0.92413 0.27461 0.0
C737 C 0.08779 0.93101 0.46989 0.0
C738 C 0.09038 0.92957 0.40215 0.0
H739 H 0.12931 0.8931 0.11445 0.0
H740 H 0.12369 0.89959 0.22251 0.0
H741 H 0.06344 0.91953 0.27258 0.0
H742 H 0.05369 0.94608 0.5774 0.0
H743 H 0.05887 0.94623 0.46667 0.0
C744 C 0.55618 0.38101 0.43035 0.0
C745 C 0.55016 0.39948 0.40492 0.0
C746 C 0.55611 0.37814 0.49373 0.0
C747 C 0.55673 0.4067 0.63989 0.0
H748 H 0.54572 0.35412 0.70925 0.0
C749 C 0.55439 0.39057 0.90199 0.0
C750 C 0.56484 0.37324 0.9213 0.0
C751 C 0.55145 0.39444 0.83958 0.0
C752 C 0.54892 0.36888 0.6905 0.0
H753 H 0.53867 0.42917 0.42597 0.0
H754 H 0.53804 0.42407 0.53673 0.0
H755 H 0.54161 0.35944 0.59963 0.0
H756 H 0.58095 0.34683 0.8891 0.0
H757 H 0.57546 0.3534 0.78101 0.0
H758 H 0.56387 0.41608 0.73134 0.0
C759 C 0.54331 0.41193 0.50779 0.0
C760 C 0.54663 0.37193 0.62758 0.0
C761 C 0.54356 0.41485 0.44431 0.0
C762 C 0.57247 0.36008 0.87642 0.0
C763 C 0.56935 0.36385 0.81425 0.0
C764 C 0.55882 0.40368 0.703 0.0
C765 C 0.54984 0.39362 0.53344 0.0
C766 C 0.55082 0.3908 0.60118 0.0
C767 C 0.5587 0.38099 0.7951 0.0
C768 C 0.55525 0.38465 0.72881 0.0
H769 H 0.56173 0.36899 0.40145 0.0
H770 H 0.56162 0.36397 0.51157 0.0
H771 H 0.56037 0.42137 0.6213 0.0
H772 H 0.54807 0.40096 0.9349 0.0
H773 H 0.54308 0.40773 0.82615 0.0
C774 C 0.09689 0.54012 0.93043 0.0
C775 C 0.08001 0.55066 0.90812 0.0
C776 C 0.10036 0.53848 0.99352 0.0
C777 C 0.07538 0.54361 0.14493 0.0
H778 H 0.12914 0.55567 0.20374 0.0
C779 C 0.11606 0.57403 0.37778 0.0
C780 C 0.1075 0.56151 0.42275 0.0
C781 C 0.11315 0.5701 0.31564 0.0
C782 C 0.11405 0.55226 0.18804 0.0
H783 H 0.05358 0.56769 0.93596 0.0
H784 H 0.05953 0.56462 0.04476 0.0
H785 H 0.12297 0.55321 0.0939 0.0
H786 H 0.08918 0.53486 0.43691 0.0
H787 H 0.08388 0.52816 0.32805 0.0
H788 H 0.06632 0.54334 0.23907 0.0
C789 C 0.06994 0.55739 0.01357 0.0
C790 C 0.11056 0.55063 0.1251 0.0
C791 C 0.06654 0.55913 0.95075 0.0
C792 C 0.0958 0.54497 0.40371 0.0
C793 C 0.09281 0.54109 0.3413 0.0
C794 C 0.07889 0.54515 0.20791 0.0
C795 C 0.08697 0.54721 0.03579 0.0
C796 C 0.0911 0.5467 0.10274 0.0
C797 C 0.10153 0.55358 0.29657 0.0
C798 C 0.09818 0.54992 0.23014 0.0
H799 H 0.10746 0.53315 0.8993 0.0
H800 H 0.11353 0.53037 0.00923 0.0
H801 H 0.06026 0.54033 0.12919 0.0
H802 H 0.12479 0.58714 0.39037 0.0
H803 H 0.11971 0.58029 0.28245 0.0
C804 C 0.93626 0.06457 0.44798 0.0
C805 C 0.93174 0.08073 0.40873 0.0
C806 C 0.93764 0.06749 0.5112 0.0
C807 C 0.94312 0.10634 0.6318 0.0
H808 H 0.91434 0.06768 0.73199 0.0
C809 C 0.92098 0.12247 0.88252 0.0
C810 C 0.92119 0.10654 0.92496 0.0
C811 C 0.92463 0.11895 0.82046 0.0
C812 C 0.92276 0.07845 0.70495 0.0
H813 H 0.92574 0.11281 0.40545 0.0
H814 H 0.92826 0.11792 0.51564 0.0
H815 H 0.91687 0.06235 0.62205 0.0
H816 H 0.92588 0.07438 0.93492 0.0
H817 H 0.93271 0.06832 0.82692 0.0
H818 H 0.94885 0.12255 0.71472 0.0
C819 C 0.93088 0.10299 0.49739 0.0
C820 C 0.92419 0.07539 0.6418 0.0
C821 C 0.92946 0.10006 0.43409 0.0
C822 C 0.92568 0.08705 0.90381 0.0
C823 C 0.92938 0.08353 0.84165 0.0
C824 C 0.94176 0.10937 0.69505 0.0
C825 C 0.93459 0.08666 0.53678 0.0
C826 C 0.93421 0.0894 0.60437 0.0
C827 C 0.92869 0.09941 0.79907 0.0
C828 C 0.93135 0.09557 0.73236 0.0
H829 H 0.93849 0.04957 0.42992 0.0
H830 H 0.9409 0.05466 0.54016 0.0
H831 H 0.95118 0.11728 0.60434 0.0
H832 H 0.91791 0.13772 0.8971 0.0
H833 H 0.92377 0.13152 0.78902 0.0
C834 C 0.3955 0.92688 0.42048 0.0
C835 C 0.37606 0.92219 0.44183 0.0
C836 C 0.39892 0.93061 0.35828 0.0
C837 C 0.37276 0.9429 0.21214 0.0
H838 H 0.42012 0.9189 0.13832 0.0
C839 C 0.38233 0.93183 0.95064 0.0
C840 C 0.40167 0.93441 0.92553 0.0
C841 C 0.37933 0.93296 0.01396 0.0
C842 C 0.40697 0.92597 0.15831 0.0
H843 H 0.34487 0.91854 0.4142 0.0
H844 H 0.3509 0.92445 0.30608 0.0
H845 H 0.41484 0.91595 0.24818 0.0
H846 H 0.43276 0.9414 0.9472 0.0
H847 H 0.42755 0.94333 0.05749 0.0
H848 H 0.36471 0.95252 0.12174 0.0
C849 C 0.3635 0.92545 0.3374 0.0
C850 C 0.40395 0.92429 0.22141 0.0
C851 C 0.36009 0.92177 0.39951 0.0
C852 C 0.41776 0.93896 0.96508 0.0
C853 C 0.41477 0.94005 0.02831 0.0
C854 C 0.37575 0.94452 0.14892 0.0
C855 C 0.38299 0.92975 0.31584 0.0
C856 C 0.38672 0.93258 0.24912 0.0
C857 C 0.39561 0.93667 0.05363 0.0
C858 C 0.39283 0.93595 0.1212 0.0
H859 H 0.4082 0.92725 0.45147 0.0
H860 H 0.41408 0.93413 0.34342 0.0
H861 H 0.35949 0.94975 0.23205 0.0
H862 H 0.36963 0.92807 0.92175 0.0
H863 H 0.36441 0.93009 0.032 0.0
loop_
_geom_bond_atom_site_label_1
_geom_bond_atom_site_label_2
_geom_bond_distance
_geom_bond_site_symmetry_2
_ccdc_geom_bond_type
C0 C1 1.351 . S
C0 N3 1.368 . S
C0 H5 0.931 . S
C1 C0 1.351 . S
C1 N2 1.373 . S
C1 H29 0.930 . S
N2 C1 1.373 . S
N2 C4 1.340 . S
N3 C0 1.368 . S
N3 C4 1.321 . S
N3 Co6 2.135 . S
C4 N2 1.340 . S
C4 N3 1.321 . S
C4 H28 0.930 . S
H5 C0 0.931 . S
Co6 N3 2.135 . S
Co6 N9 2.121 . S
Co6 O14 2.055 . S
Co6 O17 2.039 . S
Co6 N20 2.140 . S
C7 O8 1.227 . S
C7 O17 1.265 . S
O8 C7 1.227 . S
N9 Co6 2.121 . S
N9 C11 1.375 . S
N9 C12 1.313 . S
C10 C11 1.338 . S
C10 N13 1.377 . S
C10 H30 0.930 . S
C11 N9 1.375 . S
C11 C10 1.338 . S
C11 H15 0.931 . S
C12 N9 1.313 . S
C12 N13 1.344 . S
C12 H16 0.930 . S
N13 C10 1.377 . S
N13 C12 1.344 . S
O14 Co6 2.055 . S
O14 C18 1.253 . S
H15 C11 0.931 . S
H16 C12 0.930 . S
O17 Co6 2.039 . S
O17 C7 1.265 . S
C18 O14 1.253 . S
C18 O19 1.227 . S
O19 C18 1.227 . S
N20 Co6 2.140 . S
N20 C23 1.346 . S
N20 C24 1.345 . S
C21 C22 1.387 . S
C21 C25 1.391 . S
C22 C21 1.387 . S
C22 C23 1.369 . S
C22 H31 0.929 . S
C23 N20 1.346 . S
C23 C22 1.369 . S
C23 H26 0.928 . S
C24 N20 1.345 . S
C24 C25 1.371 . S
C24 H27 0.931 . S
C25 C21 1.391 . S
C25 C24 1.371 . S
C25 H32 0.930 . S
H26 C23 0.928 . S
H27 C24 0.931 . S
H28 C4 0.930 . S
H29 C1 0.930 . S
H30 C10 0.930 . S
H31 C22 0.929 . S
H32 C25 0.930 . S
C33 C34 1.351 . S
C33 N36 1.368 . S
C33 H38 0.931 . S
C34 C33 1.351 . S
C34 N35 1.373 . S
C34 H62 0.930 . S
N35 C34 1.373 . S
N35 C37 1.340 . S
N36 C33 1.368 . S
N36 C37 1.321 . S
N36 Co39 2.135 . S
C37 N35 1.340 . S
C37 N36 1.321 . S
C37 H61 0.930 . S
H38 C33 0.931 . S
Co39 N36 2.135 . S
Co39 N42 2.121 . S
Co39 O47 2.055 . S
Co39 O50 2.039 . S
Co39 N53 2.140 . S
C40 O41 1.227 . S
C40 O50 1.265 . S
O41 C40 1.227 . S
N42 Co39 2.121 . S
N42 C44 1.375 . S
N42 C45 1.313 . S
C43 C44 1.338 . S
C43 N46 1.377 1_556 S
C43 H63 0.930 1_556 S
C44 N42 1.375 . S
C44 C43 1.338 . S
C44 H48 0.931 . S
C45 N42 1.313 . S
C45 N46 1.344 1_556 S
C45 H49 0.930 . S
N46 C43 1.377 1_554 S
N46 C45 1.344 1_554 S
O47 Co39 2.055 . S
O47 C51 1.253 . S
H48 C44 0.931 . S
H49 C45 0.930 . S
O50 Co39 2.039 . S
O50 C40 1.265 . S
C51 O47 1.253 . S
C51 O52 1.227 . S
O52 C51 1.227 . S
N53 Co39 2.140 . S
N53 C56 1.346 . S
N53 C57 1.345 . S
C54 C55 1.387 . S
C54 C58 1.391 . S
C55 C54 1.387 . S
C55 C56 1.369 . S
C55 H64 0.929 . S
C56 N53 1.346 . S
C56 C55 1.369 . S
C56 H59 0.928 . S
C57 N53 1.345 . S
C57 C58 1.371 . S
C57 H60 0.931 . S
C58 C54 1.391 . S
C58 C57 1.371 . S
C58 H65 0.930 . S
H59 C56 0.928 . S
H60 C57 0.931 . S
H61 C37 0.930 . S
H62 C34 0.930 . S
H63 C43 0.930 1_554 S
H64 C55 0.929 . S
H65 C58 0.930 . S
C66 C67 1.351 . S
C66 N69 1.368 . S
C66 H71 0.931 . S
C67 C66 1.351 . S
C67 N68 1.373 . S
C67 H95 0.930 . S
N68 C67 1.373 . S
N68 C70 1.340 . S
N69 C66 1.368 . S
N69 C70 1.321 . S
N69 Co72 2.135 . S
C70 N68 1.340 . S
C70 N69 1.321 . S
C70 H94 0.930 . S
H71 C66 0.931 . S
Co72 N69 2.135 . S
Co72 N75 2.121 . S
Co72 O80 2.055 . S
Co72 O83 2.039 . S
Co72 N86 2.140 . S
C73 O74 1.227 . S
C73 O83 1.265 . S
O74 C73 1.227 . S
N75 Co72 2.121 . S
N75 C77 1.375 . S
N75 C78 1.313 . S
C76 C77 1.338 . S
C76 N79 1.377 . S
C76 H96 0.930 . S
C77 N75 1.375 . S
C77 C76 1.338 . S
C77 H81 0.931 . S
C78 N75 1.313 . S
C78 N79 1.344 . S
C78 H82 0.930 . S
N79 C76 1.377 . S
N79 C78 1.344 . S
O80 Co72 2.055 . S
O80 C84 1.253 . S
H81 C77 0.931 . S
H82 C78 0.930 . S
O83 Co72 2.039 . S
O83 C73 1.265 . S
C84 O80 1.253 . S
C84 O85 1.227 . S
O85 C84 1.227 . S
N86 Co72 2.140 . S
N86 C89 1.346 . S
N86 C90 1.345 . S
C87 C88 1.387 . S
C87 C91 1.391 . S
C88 C87 1.387 . S
C88 C89 1.369 . S
C88 H97 0.929 . S
C89 N86 1.346 . S
C89 C88 1.369 . S
C89 H92 0.928 . S
C90 N86 1.345 . S
C90 C91 1.371 . S
C90 H93 0.931 . S
C91 C87 1.391 . S
C91 C90 1.371 . S
C91 H98 0.930 . S
H92 C89 0.928 . S
H93 C90 0.931 . S
H94 C70 0.930 . S
H95 C67 0.930 . S
H96 C76 0.930 . S
H97 C88 0.929 . S
H98 C91 0.930 . S
C99 C100 1.351 . S
C99 N102 1.368 . S
C99 H104 0.931 . S
C100 C99 1.351 . S
C100 N101 1.373 . S
C100 H128 0.930 . S
N101 C100 1.373 . S
N101 C103 1.340 . S
N102 C99 1.368 . S
N102 C103 1.321 . S
N102 Co105 2.135 . S
C103 N101 1.340 . S
C103 N102 1.321 . S
C103 H127 0.930 . S
H104 C99 0.931 . S
Co105 N102 2.135 . S
Co105 N108 2.121 . S
Co105 O113 2.055 . S
Co105 O116 2.039 . S
Co105 N119 2.140 . S
C106 O107 1.227 . S
C106 O116 1.265 . S
O107 C106 1.227 . S
N108 Co105 2.121 . S
N108 C110 1.375 . S
N108 C111 1.313 . S
C109 C110 1.338 . S
C109 N112 1.377 1_556 S
C109 H129 0.930 1_556 S
C110 N108 1.375 . S
C110 C109 1.338 . S
C110 H114 0.931 . S
C111 N108 1.313 . S
C111 N112 1.344 1_556 S
C111 H115 0.930 . S
N112 C109 1.377 1_554 S
N112 C111 1.344 1_554 S
O113 Co105 2.055 . S
O113 C117 1.253 . S
H114 C110 0.931 . S
H115 C111 0.930 . S
O116 Co105 2.039 . S
O116 C106 1.265 . S
C117 O113 1.253 . S
C117 O118 1.227 . S
O118 C117 1.227 . S
N119 Co105 2.140 . S
N119 C122 1.346 . S
N119 C123 1.345 . S
C120 C121 1.387 . S
C120 C124 1.391 . S
C121 C120 1.387 . S
C121 C122 1.369 . S
C121 H130 0.929 . S
C122 N119 1.346 . S
C122 C121 1.369 . S
C122 H125 0.928 . S
C123 N119 1.345 . S
C123 C124 1.371 . S
C123 H126 0.931 . S
C124 C120 1.391 . S
C124 C123 1.371 . S
C124 H131 0.930 . S
H125 C122 0.928 . S
H126 C123 0.931 . S
H127 C103 0.930 . S
H128 C100 0.930 . S
H129 C109 0.930 1_554 S
H130 C121 0.929 . S
H131 C124 0.930 . S
C132 C133 1.351 . S
C132 N135 1.368 . S
C132 H137 0.931 . S
C133 C132 1.351 . S
C133 N134 1.373 . S
C133 H161 0.930 . S
N134 C133 1.373 . S
N134 C136 1.340 . S
N135 C132 1.368 . S
N135 C136 1.321 . S
N135 Co138 2.135 . S
C136 N134 1.340 . S
C136 N135 1.321 . S
C136 H160 0.930 . S
H137 C132 0.931 . S
Co138 N135 2.135 . S
Co138 N141 2.121 . S
Co138 O146 2.055 . S
Co138 O149 2.039 . S
Co138 N152 2.140 . S
C139 O140 1.227 . S
C139 O149 1.265 . S
O140 C139 1.227 . S
N141 Co138 2.121 . S
N141 C143 1.375 . S
N141 C144 1.313 . S
C142 C143 1.338 . S
C142 N145 1.377 1_554 S
C142 H162 0.930 1_554 S
C143 N141 1.375 . S
C143 C142 1.338 . S
C143 H147 0.931 . S
C144 N141 1.313 . S
C144 N145 1.344 1_554 S
C144 H148 0.930 . S
N145 C142 1.377 1_556 S
N145 C144 1.344 1_556 S
O146 Co138 2.055 . S
O146 C150 1.253 . S
H147 C143 0.931 . S
H148 C144 0.930 . S
O149 Co138 2.039 . S
O149 C139 1.265 . S
C150 O146 1.253 . S
C150 O151 1.227 . S
O151 C150 1.227 . S
N152 Co138 2.140 . S
N152 C155 1.346 . S
N152 C156 1.345 . S
C153 C154 1.387 . S
C153 C157 1.391 . S
C154 C153 1.387 . S
C154 C155 1.369 . S
C154 H163 0.929 . S
C155 N152 1.346 . S
C155 C154 1.369 . S
C155 H158 0.928 . S
C156 N152 1.345 . S
C156 C157 1.371 . S
C156 H159 0.931 . S
C157 C153 1.391 . S
C157 C156 1.371 . S
C157 H164 0.930 . S
H158 C155 0.928 . S
H159 C156 0.931 . S
H160 C136 0.930 . S
H161 C133 0.930 . S
H162 C142 0.930 1_556 S
H163 C154 0.929 . S
H164 C157 0.930 . S
C165 C166 1.351 . S
C165 N168 1.368 . S
C165 H170 0.931 . S
C166 C165 1.351 . S
C166 N167 1.373 . S
C166 H194 0.930 . S
N167 C166 1.373 . S
N167 C169 1.340 . S
N168 C165 1.368 . S
N168 C169 1.321 . S
N168 Co171 2.135 . S
C169 N167 1.340 . S
C169 N168 1.321 . S
C169 H193 0.930 . S
H170 C165 0.931 . S
Co171 N168 2.135 . S
Co171 N174 2.121 . S
Co171 O179 2.055 . S
Co171 O182 2.039 . S
Co171 N185 2.140 . S
C172 O173 1.227 . S
C172 O182 1.265 . S
O173 C172 1.227 . S
N174 Co171 2.121 . S
N174 C176 1.375 . S
N174 C177 1.313 . S
C175 C176 1.338 . S
C175 N178 1.377 . S
C175 H195 0.930 . S
C176 N174 1.375 . S
C176 C175 1.338 . S
C176 H180 0.931 . S
C177 N174 1.313 . S
C177 N178 1.344 . S
C177 H181 0.930 . S
N178 C175 1.377 . S
N178 C177 1.344 . S
O179 Co171 2.055 . S
O179 C183 1.253 . S
H180 C176 0.931 . S
H181 C177 0.930 . S
O182 Co171 2.039 . S
O182 C172 1.265 . S
C183 O179 1.253 . S
C183 O184 1.227 . S
O184 C183 1.227 . S
N185 Co171 2.140 . S
N185 C188 1.346 . S
N185 C189 1.345 . S
C186 C187 1.387 . S
C186 C190 1.391 . S
C187 C186 1.387 . S
C187 C188 1.369 . S
C187 H196 0.929 . S
C188 N185 1.346 . S
C188 C187 1.369 . S
C188 H191 0.928 . S
C189 N185 1.345 . S
C189 C190 1.371 . S
C189 H192 0.931 . S
C190 C186 1.391 . S
C190 C189 1.371 . S
C190 H197 0.930 . S
H191 C188 0.928 . S
H192 C189 0.931 . S
H193 C169 0.930 . S
H194 C166 0.930 . S
H195 C175 0.930 . S
H196 C187 0.929 . S
H197 C190 0.930 . S
C198 C199 1.351 . S
C198 N201 1.368 . S
C198 H203 0.931 . S
C199 C198 1.351 . S
C199 N200 1.373 . S
C199 H227 0.930 . S
N200 C199 1.373 . S
N200 C202 1.340 . S
N201 C198 1.368 . S
N201 C202 1.321 . S
N201 Co204 2.135 . S
C202 N200 1.340 . S
C202 N201 1.321 . S
C202 H226 0.930 . S
H203 C198 0.931 . S
Co204 N201 2.135 . S
Co204 N207 2.121 . S
Co204 O212 2.055 . S
Co204 O215 2.039 . S
Co204 N218 2.140 . S
C205 O206 1.227 . S
C205 O215 1.265 . S
O206 C205 1.227 . S
N207 Co204 2.121 . S
N207 C209 1.375 . S
N207 C210 1.313 . S
C208 C209 1.338 . S
C208 N211 1.377 1_554 S
C208 H228 0.930 1_554 S
C209 N207 1.375 . S
C209 C208 1.338 . S
C209 H213 0.931 . S
C210 N207 1.313 . S
C210 N211 1.344 1_554 S
C210 H214 0.930 . S
N211 C208 1.377 1_556 S
N211 C210 1.344 1_556 S
O212 Co204 2.055 . S
O212 C216 1.253 . S
H213 C209 0.931 . S
H214 C210 0.930 . S
O215 Co204 2.039 . S
O215 C205 1.265 . S
C216 O212 1.253 . S
C216 O217 1.227 . S
O217 C216 1.227 . S
N218 Co204 2.140 . S
N218 C221 1.346 . S
N218 C222 1.345 . S
C219 C220 1.387 . S
C219 C223 1.391 . S
C220 C219 1.387 . S
C220 C221 1.369 . S
C220 H229 0.929 . S
C221 N218 1.346 . S
C221 C220 1.369 . S
C221 H224 0.928 . S
C222 N218 1.345 . S
C222 C223 1.371 . S
C222 H225 0.931 . S
C223 C219 1.391 . S
C223 C222 1.371 . S
C223 H230 0.930 . S
H224 C221 0.928 . S
H225 C222 0.931 . S
H226 C202 0.930 . S
H227 C199 0.930 . S
H228 C208 0.930 1_556 S
H229 C220 0.929 . S
H230 C223 0.930 . S
C231 C232 1.351 . S
C231 N234 1.368 . S
C231 H236 0.931 . S
C232 C231 1.351 . S
C232 N233 1.373 . S
C232 H260 0.930 . S
N233 C232 1.373 . S
N233 C235 1.340 . S
N234 C231 1.368 . S
N234 C235 1.321 . S
N234 Co237 2.135 . S
C235 N233 1.340 . S
C235 N234 1.321 . S
C235 H259 0.930 . S
H236 C231 0.931 . S
Co237 N234 2.135 . S
Co237 N240 2.121 . S
Co237 O245 2.055 . S
Co237 O248 2.039 . S
Co237 N251 2.140 . S
C238 O239 1.227 . S
C238 O248 1.265 . S
O239 C238 1.227 . S
N240 Co237 2.121 . S
N240 C242 1.375 . S
N240 C243 1.313 . S
C241 C242 1.338 . S
C241 N244 1.377 . S
C241 H261 0.930 . S
C242 N240 1.375 . S
C242 C241 1.338 . S
C242 H246 0.931 . S
C243 N240 1.313 . S
C243 N244 1.344 . S
C243 H247 0.930 . S
N244 C241 1.377 . S
N244 C243 1.344 . S
O245 Co237 2.055 . S
O245 C249 1.253 . S
H246 C242 0.931 . S
H247 C243 0.930 . S
O248 Co237 2.039 . S
O248 C238 1.265 . S
C249 O245 1.253 . S
C249 O250 1.227 . S
O250 C249 1.227 . S
N251 Co237 2.140 . S
N251 C254 1.346 . S
N251 C255 1.345 . S
C252 C253 1.387 . S
C252 C256 1.391 . S
C253 C252 1.387 . S
C253 C254 1.369 . S
C253 H262 0.929 . S
C254 N251 1.346 . S
C254 C253 1.369 . S
C254 H257 0.928 . S
C255 N251 1.345 . S
C255 C256 1.371 . S
C255 H258 0.931 . S
C256 C252 1.391 . S
C256 C255 1.371 . S
C256 H263 0.930 . S
H257 C254 0.928 . S
H258 C255 0.931 . S
H259 C235 0.930 . S
H260 C232 0.930 . S
H261 C241 0.930 . S
H262 C253 0.929 . S
H263 C256 0.930 . S
C264 C265 1.349 . S
C264 C266 1.327 . S
C264 H289 0.950 . S
C265 C264 1.349 . S
C265 C281 1.349 . S
C266 C264 1.327 . S
C266 C285 1.429 . S
C266 H290 0.950 . S
C267 C284 1.574 . S
C267 C286 1.368 . S
C267 H291 0.949 . S
H268 C272 0.949 . S
C269 C270 1.349 . S
C269 C271 1.327 . S
C269 H292 0.950 . S
C270 C269 1.349 . S
C270 C282 1.349 . S
C271 C269 1.327 . S
C271 C287 1.429 . S
C271 H293 0.950 . S
C272 H268 0.949 . S
C272 C280 1.574 . S
C272 C288 1.368 . S
H273 C281 0.950 . S
H274 C279 0.950 . S
H275 C280 0.949 . S
H276 C282 0.950 . S
H277 C283 0.950 . S
H278 C284 0.949 . S
C279 H274 0.950 . S
C279 C281 1.327 . S
C279 C285 1.429 . S
C280 C272 1.574 . S
C280 H275 0.949 . S
C280 C286 1.368 1_545 S
C281 C265 1.349 . S
C281 H273 0.950 . S
C281 C279 1.327 . S
C282 C270 1.349 . S
C282 H276 0.950 . S
C282 C283 1.327 . S
C283 H277 0.950 . S
C283 C282 1.327 . S
C283 C287 1.429 . S
C284 C267 1.574 . S
C284 H278 0.949 . S
C284 C288 1.368 1_565 S
C285 C266 1.429 . S
C285 C279 1.429 . S
C285 C286 1.523 . S
C286 C267 1.368 . S
C286 C280 1.368 1_565 S
C286 C285 1.523 . S
C287 C271 1.429 . S
C287 C283 1.429 . S
C287 C288 1.523 . S
C288 C272 1.368 . S
C288 C284 1.368 1_545 S
C288 C287 1.523 . S
H289 C264 0.950 . S
H290 C266 0.950 . S
H291 C267 0.949 . S
H292 C269 0.950 . S
H293 C271 0.950 . S
C294 C295 1.349 . S
C294 C296 1.327 . S
C294 H319 0.950 . S
C295 C294 1.349 . S
C295 C311 1.349 . S
C296 C294 1.327 . S
C296 C315 1.429 . S
C296 H320 0.950 . S
C297 C314 1.574 . S
C297 C316 1.368 1_556 S
C297 H321 0.949 . S
H298 C302 0.949 . S
C299 C300 1.349 . S
C299 C301 1.327 . S
C299 H322 0.950 . S
C300 C299 1.349 . S
C300 C312 1.349 . S
C301 C299 1.327 . S
C301 C317 1.429 . S
C301 H323 0.950 . S
C302 H298 0.949 . S
C302 C310 1.574 . S
C302 C318 1.368 1_554 S
H303 C311 0.950 . S
H304 C309 0.950 1_556 S
H305 C310 0.949 . S
H306 C312 0.950 . S
H307 C313 0.950 1_554 S
H308 C314 0.949 . S
C309 H304 0.950 1_554 S
C309 C311 1.327 . S
C309 C315 1.429 . S
C310 C302 1.574 . S
C310 H305 0.949 . S
C310 C316 1.368 . S
C311 C295 1.349 . S
C311 H303 0.950 . S
C311 C309 1.327 . S
C312 C300 1.349 . S
C312 H306 0.950 . S
C312 C313 1.327 . S
C313 H307 0.950 1_556 S
C313 C312 1.327 . S
C313 C317 1.429 . S
C314 C297 1.574 . S
C314 H308 0.949 . S
C314 C318 1.368 . S
C315 C296 1.429 . S
C315 C309 1.429 . S
C315 C316 1.523 . S
C316 C297 1.368 1_554 S
C316 C310 1.368 . S
C316 C315 1.523 . S
C317 C301 1.429 . S
C317 C313 1.429 . S
C317 C318 1.523 . S
C318 C302 1.368 1_556 S
C318 C314 1.368 . S
C318 C317 1.523 . S
H319 C294 0.950 . S
H320 C296 0.950 . S
H321 C297 0.949 . S
H322 C299 0.950 . S
H323 C301 0.950 . S
C324 C325 1.349 . S
C324 C326 1.327 . S
C324 H349 0.950 . S
C325 C324 1.349 . S
C325 C341 1.349 . S
C326 C324 1.327 . S
C326 C345 1.429 . S
C326 H350 0.950 . S
C327 C344 1.574 . S
C327 C346 1.368 . S
C327 H351 0.949 . S
H328 C332 0.949 . S
C329 C330 1.349 . S
C329 C331 1.327 . S
C329 H352 0.950 . S
C330 C329 1.349 . S
C330 C342 1.349 . S
C331 C329 1.327 . S
C331 C347 1.429 . S
C331 H353 0.950 . S
C332 H328 0.949 . S
C332 C340 1.574 . S
C332 C348 1.368 . S
H333 C341 0.950 . S
H334 C339 0.950 . S
H335 C340 0.949 . S
H336 C342 0.950 . S
H337 C343 0.950 . S
H338 C344 0.949 . S
C339 H334 0.950 . S
C339 C341 1.327 . S
C339 C345 1.429 . S
C340 C332 1.574 . S
C340 H335 0.949 . S
C340 C346 1.368 1_455 S
C341 C325 1.349 . S
C341 H333 0.950 . S
C341 C339 1.327 . S
C342 C330 1.349 . S
C342 H336 0.950 . S
C342 C343 1.327 . S
C343 H337 0.950 . S
C343 C342 1.327 . S
C343 C347 1.429 . S
C344 C327 1.574 . S
C344 H338 0.949 . S
C344 C348 1.368 1_655 S
C345 C326 1.429 . S
C345 C339 1.429 . S
C345 C346 1.523 . S
C346 C327 1.368 . S
C346 C340 1.368 1_655 S
C346 C345 1.523 . S
C347 C331 1.429 . S
C347 C343 1.429 . S
C347 C348 1.523 . S
C348 C332 1.368 . S
C348 C344 1.368 1_455 S
C348 C347 1.523 . S
H349 C324 0.950 . S
H350 C326 0.950 . S
H351 C327 0.949 . S
H352 C329 0.950 . S
H353 C331 0.950 . S
C354 C355 1.349 . S
C354 C356 1.327 . S
C354 H379 0.950 . S
C355 C354 1.349 . S
C355 C371 1.349 . S
C356 C354 1.327 . S
C356 C375 1.429 . S
C356 H380 0.950 . S
C357 C374 1.574 1_655 S
C357 C376 1.368 1_556 S
C357 H381 0.949 . S
H358 C362 0.949 . S
C359 C360 1.349 . S
C359 C361 1.327 . S
C359 H382 0.950 . S
C360 C359 1.349 . S
C360 C372 1.349 . S
C361 C359 1.327 . S
C361 C377 1.429 . S
C361 H383 0.950 . S
C362 H358 0.949 . S
C362 C370 1.574 1_455 S
C362 C378 1.368 1_554 S
H363 C371 0.950 . S
H364 C369 0.950 . S
H365 C370 0.949 . S
H366 C372 0.950 . S
H367 C373 0.950 . S
H368 C374 0.949 . S
C369 H364 0.950 . S
C369 C371 1.327 . S
C369 C375 1.429 . S
C370 C362 1.574 1_655 S
C370 H365 0.949 . S
C370 C376 1.368 1_565 S
C371 C355 1.349 . S
C371 H363 0.950 . S
C371 C369 1.327 . S
C372 C360 1.349 . S
C372 H366 0.950 . S
C372 C373 1.327 . S
C373 H367 0.950 . S
C373 C372 1.327 . S
C373 C377 1.429 . S
C374 C357 1.574 1_455 S
C374 H368 0.949 . S
C374 C378 1.368 1_545 S
C375 C356 1.429 . S
C375 C369 1.429 . S
C375 C376 1.523 . S
C376 C357 1.368 1_554 S
C376 C370 1.368 1_545 S
C376 C375 1.523 . S
C377 C361 1.429 . S
C377 C373 1.429 . S
C377 C378 1.523 . S
C378 C362 1.368 1_556 S
C378 C374 1.368 1_565 S
C378 C377 1.523 . S
H379 C354 0.950 . S
H380 C356 0.950 . S
H381 C357 0.949 . S
H382 C359 0.950 . S
H383 C361 0.950 . S
C384 C385 1.349 . S
C384 C386 1.327 . S
C384 H409 0.950 . S
C385 C384 1.349 . S
C385 C401 1.349 . S
C386 C384 1.327 . S
C386 C405 1.429 . S
C386 H410 0.950 . S
C387 C404 1.574 . S
C387 C406 1.368 . S
C387 H411 0.949 . S
H388 C392 0.949 . S
C389 C390 1.349 . S
C389 C391 1.327 . S
C389 H412 0.950 . S
C390 C389 1.349 . S
C390 C402 1.349 . S
C391 C389 1.327 . S
C391 C407 1.429 . S
C391 H413 0.950 . S
C392 H388 0.949 . S
C392 C400 1.574 . S
C392 C408 1.368 . S
H393 C401 0.950 . S
H394 C399 0.950 . S
H395 C400 0.949 . S
H396 C402 0.950 . S
H397 C403 0.950 . S
H398 C404 0.949 . S
C399 H394 0.950 . S
C399 C401 1.327 . S
C399 C405 1.429 . S
C400 C392 1.574 . S
C400 H395 0.949 . S
C400 C406 1.368 . S
C401 C385 1.349 . S
C401 H393 0.950 . S
C401 C399 1.327 . S
C402 C390 1.349 . S
C402 H396 0.950 . S
C402 C403 1.327 . S
C403 H397 0.950 . S
C403 C402 1.327 . S
C403 C407 1.429 . S
C404 C387 1.574 . S
C404 H398 0.949 . S
C404 C408 1.368 . S
C405 C386 1.429 . S
C405 C399 1.429 . S
C405 C406 1.523 . S
C406 C387 1.368 . S
C406 C400 1.368 . S
C406 C405 1.523 . S
C407 C391 1.429 . S
C407 C403 1.429 . S
C407 C408 1.523 . S
C408 C392 1.368 . S
C408 C404 1.368 . S
C408 C407 1.523 . S
H409 C384 0.950 . S
H410 C386 0.950 . S
H411 C387 0.949 . S
H412 C389 0.950 . S
H413 C391 0.950 . S
C414 C415 1.349 . S
C414 C416 1.327 . S
C414 H439 0.950 . S
C415 C414 1.349 . S
C415 C431 1.349 . S
C416 C414 1.327 . S
C416 C435 1.429 . S
C416 H440 0.950 . S
C417 C434 1.574 . S
C417 C436 1.368 . S
C417 H441 0.949 . S
H418 C422 0.949 . S
C419 C420 1.349 . S
C419 C421 1.327 . S
C419 H442 0.950 . S
C420 C419 1.349 . S
C420 C432 1.349 . S
C421 C419 1.327 . S
C421 C437 1.429 . S
C421 H443 0.950 . S
C422 H418 0.949 . S
C422 C430 1.574 . S
C422 C438 1.368 . S
H423 C431 0.950 . S
H424 C429 0.950 . S
H425 C430 0.949 . S
H426 C432 0.950 . S
H427 C433 0.950 . S
H428 C434 0.949 . S
C429 H424 0.950 . S
C429 C431 1.327 . S
C429 C435 1.429 . S
C430 C422 1.574 . S
C430 H425 0.949 . S
C430 C436 1.368 . S
C431 C415 1.349 . S
C431 H423 0.950 . S
C431 C429 1.327 . S
C432 C420 1.349 . S
C432 H426 0.950 . S
C432 C433 1.327 . S
C433 H427 0.950 . S
C433 C432 1.327 . S
C433 C437 1.429 . S
C434 C417 1.574 . S
C434 H428 0.949 . S
C434 C438 1.368 . S
C435 C416 1.429 . S
C435 C429 1.429 . S
C435 C436 1.523 . S
C436 C417 1.368 . S
C436 C430 1.368 . S
C436 C435 1.523 . S
C437 C421 1.429 . S
C437 C433 1.429 . S
C437 C438 1.523 . S
C438 C422 1.368 . S
C438 C434 1.368 . S
C438 C437 1.523 . S
H439 C414 0.950 . S
H440 C416 0.950 . S
H441 C417 0.949 . S
H442 C419 0.950 . S
H443 C421 0.950 . S
C444 C445 1.349 . S
C444 C446 1.327 . S
C444 H469 0.950 . S
C445 C444 1.349 . S
C445 C461 1.349 . S
C446 C444 1.327 . S
C446 C465 1.429 . S
C446 H470 0.950 . S
C447 C464 1.574 . S
C447 C466 1.368 . S
C447 H471 0.949 . S
H448 C452 0.949 . S
C449 C450 1.349 . S
C449 C451 1.327 . S
C449 H472 0.950 . S
C450 C449 1.349 . S
C450 C462 1.349 . S
C451 C449 1.327 . S
C451 C467 1.429 . S
C451 H473 0.950 . S
C452 H448 0.949 . S
C452 C460 1.574 . S
C452 C468 1.368 . S
H453 C461 0.950 . S
H454 C459 0.950 . S
H455 C460 0.949 . S
H456 C462 0.950 . S
H457 C463 0.950 . S
H458 C464 0.949 . S
C459 H454 0.950 . S
C459 C461 1.327 . S
C459 C465 1.429 . S
C460 C452 1.574 . S
C460 H455 0.949 . S
C460 C466 1.368 . S
C461 C445 1.349 . S
C461 H453 0.950 . S
C461 C459 1.327 . S
C462 C450 1.349 . S
C462 H456 0.950 . S
C462 C463 1.327 . S
C463 H457 0.950 . S
C463 C462 1.327 . S
C463 C467 1.429 . S
C464 C447 1.574 . S
C464 H458 0.949 . S
C464 C468 1.368 . S
C465 C446 1.429 . S
C465 C459 1.429 . S
C465 C466 1.523 . S
C466 C447 1.368 . S
C466 C460 1.368 . S
C466 C465 1.523 . S
C467 C451 1.429 . S
C467 C463 1.429 . S
C467 C468 1.523 . S
C468 C452 1.368 . S
C468 C464 1.368 . S
C468 C467 1.523 . S
H469 C444 0.950 . S
H470 C446 0.950 . S
H471 C447 0.949 . S
H472 C449 0.950 . S
H473 C451 0.950 . S
C474 C475 1.349 . S
C474 C476 1.327 . S
C474 H499 0.950 . S
C475 C474 1.349 . S
C475 C491 1.349 . S
C476 C474 1.327 . S
C476 C495 1.429 . S
C476 H500 0.950 . S
C477 C494 1.574 . S
C477 C496 1.368 . S
C477 H501 0.949 . S
H478 C482 0.949 . S
C479 C480 1.349 . S
C479 C481 1.327 . S
C479 H502 0.950 . S
C480 C479 1.349 . S
C480 C492 1.349 . S
C481 C479 1.327 . S
C481 C497 1.429 . S
C481 H503 0.950 . S
C482 H478 0.949 . S
C482 C490 1.574 . S
C482 C498 1.368 . S
H483 C491 0.950 . S
H484 C489 0.950 . S
H485 C490 0.949 . S
H486 C492 0.950 . S
H487 C493 0.950 . S
H488 C494 0.949 . S
C489 H484 0.950 . S
C489 C491 1.327 . S
C489 C495 1.429 . S
C490 C482 1.574 . S
C490 H485 0.949 . S
C490 C496 1.368 . S
C491 C475 1.349 . S
C491 H483 0.950 . S
C491 C489 1.327 . S
C492 C480 1.349 . S
C492 H486 0.950 . S
C492 C493 1.327 . S
C493 H487 0.950 . S
C493 C492 1.327 . S
C493 C497 1.429 . S
C494 C477 1.574 . S
C494 H488 0.949 . S
C494 C498 1.368 . S
C495 C476 1.429 . S
C495 C489 1.429 . S
C495 C496 1.523 . S
C496 C477 1.368 . S
C496 C490 1.368 . S
C496 C495 1.523 . S
C497 C481 1.429 . S
C497 C493 1.429 . S
C497 C498 1.523 . S
C498 C482 1.368 . S
C498 C494 1.368 . S
C498 C497 1.523 . S
H499 C474 0.950 . S
H500 C476 0.950 . S
H501 C477 0.949 . S
H502 C479 0.950 . S
H503 C481 0.950 . S
C504 C505 1.349 . S
C504 C506 1.327 . S
C504 H529 0.950 . S
C505 C504 1.349 . S
C505 C521 1.349 . S
C506 C504 1.327 . S
C506 C525 1.429 . S
C506 H530 0.950 . S
C507 C524 1.574 . S
C507 C526 1.368 . S
C507 H531 0.949 . S
H508 C512 0.949 . S
C509 C510 1.349 . S
C509 C511 1.327 . S
C509 H532 0.950 . S
C510 C509 1.349 . S
C510 C522 1.349 . S
C511 C509 1.327 . S
C511 C527 1.429 . S
C511 H533 0.950 . S
C512 H508 0.949 . S
C512 C520 1.574 . S
C512 C528 1.368 . S
H513 C521 0.950 . S
H514 C519 0.950 . S
H515 C520 0.949 . S
H516 C522 0.950 . S
H517 C523 0.950 . S
H518 C524 0.949 . S
C519 H514 0.950 . S
C519 C521 1.327 . S
C519 C525 1.429 . S
C520 C512 1.574 . S
C520 H515 0.949 . S
C520 C526 1.368 . S
C521 C505 1.349 . S
C521 H513 0.950 . S
C521 C519 1.327 . S
C522 C510 1.349 . S
C522 H516 0.950 . S
C522 C523 1.327 . S
C523 H517 0.950 . S
C523 C522 1.327 . S
C523 C527 1.429 . S
C524 C507 1.574 . S
C524 H518 0.949 . S
C524 C528 1.368 . S
C525 C506 1.429 . S
C525 C519 1.429 . S
C525 C526 1.523 . S
C526 C507 1.368 . S
C526 C520 1.368 . S
C526 C525 1.523 . S
C527 C511 1.429 . S
C527 C523 1.429 . S
C527 C528 1.523 . S
C528 C512 1.368 . S
C528 C524 1.368 . S
C528 C527 1.523 . S
H529 C504 0.950 . S
H530 C506 0.950 . S
H531 C507 0.949 . S
H532 C509 0.950 . S
H533 C511 0.950 . S
C534 C535 1.349 . S
C534 C536 1.327 . S
C534 H559 0.950 . S
C535 C534 1.349 . S
C535 C551 1.349 . S
C536 C534 1.327 . S
C536 C555 1.429 . S
C536 H560 0.950 . S
C537 C554 1.574 . S
C537 C556 1.368 . S
C537 H561 0.949 . S
H538 C542 0.949 . S
C539 C540 1.349 . S
C539 C541 1.327 . S
C539 H562 0.950 . S
C540 C539 1.349 . S
C540 C552 1.349 . S
C541 C539 1.327 . S
C541 C557 1.429 . S
C541 H563 0.950 . S
C542 H538 0.949 . S
C542 C550 1.574 . S
C542 C558 1.368 . S
H543 C551 0.950 . S
H544 C549 0.950 . S
H545 C550 0.949 . S
H546 C552 0.950 . S
H547 C553 0.950 . S
H548 C554 0.949 . S
C549 H544 0.950 . S
C549 C551 1.327 . S
C549 C555 1.429 . S
C550 C542 1.574 . S
C550 H545 0.949 . S
C550 C556 1.368 . S
C551 C535 1.349 . S
C551 H543 0.950 . S
C551 C549 1.327 . S
C552 C540 1.349 . S
C552 H546 0.950 . S
C552 C553 1.327 . S
C553 H547 0.950 . S
C553 C552 1.327 . S
C553 C557 1.429 . S
C554 C537 1.574 . S
C554 H548 0.949 . S
C554 C558 1.368 . S
C555 C536 1.429 . S
C555 C549 1.429 . S
C555 C556 1.523 . S
C556 C537 1.368 . S
C556 C550 1.368 . S
C556 C555 1.523 . S
C557 C541 1.429 . S
C557 C553 1.429 . S
C557 C558 1.523 . S
C558 C542 1.368 . S
C558 C554 1.368 . S
C558 C557 1.523 . S
H559 C534 0.950 . S
H560 C536 0.950 . S
H561 C537 0.949 . S
H562 C539 0.950 . S
H563 C541 0.950 . S
C564 C565 1.349 . S
C564 C566 1.327 . S
C564 H589 0.950 . S
C565 C564 1.349 . S
C565 C581 1.349 . S
C566 C564 1.327 . S
C566 C585 1.429 . S
C566 H590 0.950 . S
C567 C584 1.574 . S
C567 C586 1.368 . S
C567 H591 0.949 . S
H568 C572 0.949 . S
C569 C570 1.349 . S
C569 C571 1.327 . S
C569 H592 0.950 . S
C570 C569 1.349 . S
C570 C582 1.349 . S
C571 C569 1.327 . S
C571 C587 1.429 . S
C571 H593 0.950 . S
C572 H568 0.949 . S
C572 C580 1.574 . S
C572 C588 1.368 . S
H573 C581 0.950 . S
H574 C579 0.950 . S
H575 C580 0.949 . S
H576 C582 0.950 . S
H577 C583 0.950 . S
H578 C584 0.949 . S
C579 H574 0.950 . S
C579 C581 1.327 . S
C579 C585 1.429 . S
C580 C572 1.574 . S
C580 H575 0.949 . S
C580 C586 1.368 . S
C581 C565 1.349 . S
C581 H573 0.950 . S
C581 C579 1.327 . S
C582 C570 1.349 . S
C582 H576 0.950 . S
C582 C583 1.327 . S
C583 H577 0.950 . S
C583 C582 1.327 . S
C583 C587 1.429 . S
C584 C567 1.574 . S
C584 H578 0.949 . S
C584 C588 1.368 . S
C585 C566 1.429 . S
C585 C579 1.429 . S
C585 C586 1.523 . S
C586 C567 1.368 . S
C586 C580 1.368 . S
C586 C585 1.523 . S
C587 C571 1.429 . S
C587 C583 1.429 . S
C587 C588 1.523 . S
C588 C572 1.368 . S
C588 C584 1.368 . S
C588 C587 1.523 . S
H589 C564 0.950 . S
H590 C566 0.950 . S
H591 C567 0.949 . S
H592 C569 0.950 . S
H593 C571 0.950 . S
C594 C595 1.349 . S
C594 C596 1.327 . S
C594 H619 0.950 . S
C595 C594 1.349 . S
C595 C611 1.349 . S
C596 C594 1.327 . S
C596 C615 1.429 . S
C596 H620 0.950 . S
C597 C614 1.574 . S
C597 C616 1.368 . S
C597 H621 0.949 . S
H598 C602 0.949 . S
C599 C600 1.349 . S
C599 C601 1.327 . S
C599 H622 0.950 . S
C600 C599 1.349 . S
C600 C612 1.349 . S
C601 C599 1.327 . S
C601 C617 1.429 . S
C601 H623 0.950 . S
C602 H598 0.949 . S
C602 C610 1.574 . S
C602 C618 1.368 . S
H603 C611 0.950 . S
H604 C609 0.950 . S
H605 C610 0.949 . S
H606 C612 0.950 . S
H607 C613 0.950 . S
H608 C614 0.949 . S
C609 H604 0.950 . S
C609 C611 1.327 . S
C609 C615 1.429 . S
C610 C602 1.574 . S
C610 H605 0.949 . S
C610 C616 1.368 . S
C611 C595 1.349 . S
C611 H603 0.950 . S
C611 C609 1.327 . S
C612 C600 1.349 . S
C612 H606 0.950 . S
C612 C613 1.327 . S
C613 H607 0.950 . S
C613 C612 1.327 . S
C613 C617 1.429 . S
C614 C597 1.574 . S
C614 H608 0.949 . S
C614 C618 1.368 . S
C615 C596 1.429 . S
C615 C609 1.429 . S
C615 C616 1.523 . S
C616 C597 1.368 . S
C616 C610 1.368 . S
C616 C615 1.523 . S
C617 C601 1.429 . S
C617 C613 1.429 . S
C617 C618 1.523 . S
C618 C602 1.368 . S
C618 C614 1.368 . S
C618 C617 1.523 . S
H619 C594 0.950 . S
H620 C596 0.950 . S
H621 C597 0.949 . S
H622 C599 0.950 . S
H623 C601 0.950 . S
C624 C625 1.349 . S
C624 C626 1.327 . S
C624 H649 0.950 . S
C625 C624 1.349 . S
C625 C641 1.349 . S
C626 C624 1.327 . S
C626 C645 1.429 . S
C626 H650 0.950 . S
C627 C644 1.574 . S
C627 C646 1.368 . S
C627 H651 0.949 . S
H628 C632 0.949 . S
C629 C630 1.349 . S
C629 C631 1.327 1_554 S
C629 H652 0.950 . S
C630 C629 1.349 . S
C630 C642 1.349 . S
C631 C629 1.327 1_556 S
C631 C647 1.429 . S
C631 H653 0.950 . S
C632 H628 0.949 . S
C632 C640 1.574 . S
C632 C648 1.368 . S
H633 C641 0.950 . S
H634 C639 0.950 . S
H635 C640 0.949 . S
H636 C642 0.950 . S
H637 C643 0.950 . S
H638 C644 0.949 . S
C639 H634 0.950 . S
C639 C641 1.327 . S
C639 C645 1.429 . S
C640 C632 1.574 . S
C640 H635 0.949 . S
C640 C646 1.368 . S
C641 C625 1.349 . S
C641 H633 0.950 . S
C641 C639 1.327 . S
C642 C630 1.349 . S
C642 H636 0.950 . S
C642 C643 1.327 1_554 S
C643 H637 0.950 . S
C643 C642 1.327 1_556 S
C643 C647 1.429 . S
C644 C627 1.574 . S
C644 H638 0.949 . S
C644 C648 1.368 . S
C645 C626 1.429 . S
C645 C639 1.429 . S
C645 C646 1.523 . S
C646 C627 1.368 . S
C646 C640 1.368 . S
C646 C645 1.523 . S
C647 C631 1.429 . S
C647 C643 1.429 . S
C647 C648 1.523 . S
C648 C632 1.368 . S
C648 C644 1.368 . S
C648 C647 1.523 . S
H649 C624 0.950 . S
H650 C626 0.950 . S
H651 C627 0.949 . S
H652 C629 0.950 . S
H653 C631 0.950 . S
C654 C655 1.349 . S
C654 C656 1.327 . S
C654 H679 0.950 . S
C655 C654 1.349 . S
C655 C671 1.349 . S
C656 C654 1.327 . S
C656 C675 1.429 . S
C656 H680 0.950 . S
C657 C674 1.574 . S
C657 C676 1.368 . S
C657 H681 0.949 . S
H658 C662 0.949 . S
C659 C660 1.349 . S
C659 C661 1.327 . S
C659 H682 0.950 . S
C660 C659 1.349 . S
C660 C672 1.349 . S
C661 C659 1.327 . S
C661 C677 1.429 . S
C661 H683 0.950 . S
C662 H658 0.949 . S
C662 C670 1.574 . S
C662 C678 1.368 . S
H663 C671 0.950 . S
H664 C669 0.950 . S
H665 C670 0.949 . S
H666 C672 0.950 . S
H667 C673 0.950 . S
H668 C674 0.949 . S
C669 H664 0.950 . S
C669 C671 1.327 . S
C669 C675 1.429 . S
C670 C662 1.574 . S
C670 H665 0.949 . S
C670 C676 1.368 . S
C671 C655 1.349 . S
C671 H663 0.950 . S
C671 C669 1.327 . S
C672 C660 1.349 . S
C672 H666 0.950 . S
C672 C673 1.327 . S
C673 H667 0.950 . S
C673 C672 1.327 . S
C673 C677 1.429 . S
C674 C657 1.574 . S
C674 H668 0.949 . S
C674 C678 1.368 . S
C675 C656 1.429 . S
C675 C669 1.429 . S
C675 C676 1.523 . S
C676 C657 1.368 . S
C676 C670 1.368 . S
C676 C675 1.523 . S
C677 C661 1.429 . S
C677 C673 1.429 . S
C677 C678 1.523 . S
C678 C662 1.368 . S
C678 C674 1.368 . S
C678 C677 1.523 . S
H679 C654 0.950 . S
H680 C656 0.950 . S
H681 C657 0.949 . S
H682 C659 0.950 . S
H683 C661 0.950 . S
C684 C685 1.349 . S
C684 C686 1.327 1_554 S
C684 H709 0.950 . S
C685 C684 1.349 . S
C685 C701 1.349 . S
C686 C684 1.327 1_556 S
C686 C705 1.429 . S
C686 H710 0.950 . S
C687 C704 1.574 . S
C687 C706 1.368 . S
C687 H711 0.949 . S
H688 C692 0.949 . S
C689 C690 1.349 . S
C689 C691 1.327 . S
C689 H712 0.950 . S
C690 C689 1.349 . S
C690 C702 1.349 . S
C691 C689 1.327 . S
C691 C707 1.429 . S
C691 H713 0.950 . S
C692 H688 0.949 . S
C692 C700 1.574 . S
C692 C708 1.368 . S
H693 C701 0.950 . S
H694 C699 0.950 . S
H695 C700 0.949 . S
H696 C702 0.950 . S
H697 C703 0.950 . S
H698 C704 0.949 . S
C699 H694 0.950 . S
C699 C701 1.327 1_556 S
C699 C705 1.429 . S
C700 C692 1.574 . S
C700 H695 0.949 . S
C700 C706 1.368 . S
C701 C685 1.349 . S
C701 H693 0.950 . S
C701 C699 1.327 1_554 S
C702 C690 1.349 . S
C702 H696 0.950 . S
C702 C703 1.327 . S
C703 H697 0.950 . S
C703 C702 1.327 . S
C703 C707 1.429 . S
C704 C687 1.574 . S
C704 H698 0.949 . S
C704 C708 1.368 . S
C705 C686 1.429 . S
C705 C699 1.429 . S
C705 C706 1.523 . S
C706 C687 1.368 . S
C706 C700 1.368 . S
C706 C705 1.523 . S
C707 C691 1.429 . S
C707 C703 1.429 . S
C707 C708 1.523 . S
C708 C692 1.368 . S
C708 C704 1.368 . S
C708 C707 1.523 . S
H709 C684 0.950 . S
H710 C686 0.950 . S
H711 C687 0.949 . S
H712 C689 0.950 . S
H713 C691 0.950 . S
C714 C715 1.349 . S
C714 C716 1.327 . S
C714 H739 0.950 . S
C715 C714 1.349 . S
C715 C731 1.349 . S
C716 C714 1.327 . S
C716 C735 1.429 . S
C716 H740 0.950 . S
C717 C734 1.574 . S
C717 C736 1.368 . S
C717 H741 0.949 . S
H718 C722 0.949 . S
C719 C720 1.349 . S
C719 C721 1.327 . S
C719 H742 0.950 . S
C720 C719 1.349 . S
C720 C732 1.349 . S
C721 C719 1.327 . S
C721 C737 1.429 . S
C721 H743 0.950 . S
C722 H718 0.949 . S
C722 C730 1.574 . S
C722 C738 1.368 . S
H723 C731 0.950 . S
H724 C729 0.950 . S
H725 C730 0.949 . S
H726 C732 0.950 . S
H727 C733 0.950 . S
H728 C734 0.949 . S
C729 H724 0.950 . S
C729 C731 1.327 . S
C729 C735 1.429 . S
C730 C722 1.574 . S
C730 H725 0.949 . S
C730 C736 1.368 . S
C731 C715 1.349 . S
C731 H723 0.950 . S
C731 C729 1.327 . S
C732 C720 1.349 . S
C732 H726 0.950 . S
C732 C733 1.327 . S
C733 H727 0.950 . S
C733 C732 1.327 . S
C733 C737 1.429 . S
C734 C717 1.574 . S
C734 H728 0.949 . S
C734 C738 1.368 . S
C735 C716 1.429 . S
C735 C729 1.429 . S
C735 C736 1.523 . S
C736 C717 1.368 . S
C736 C730 1.368 . S
C736 C735 1.523 . S
C737 C721 1.429 . S
C737 C733 1.429 . S
C737 C738 1.523 . S
C738 C722 1.368 . S
C738 C734 1.368 . S
C738 C737 1.523 . S
H739 C714 0.950 . S
H740 C716 0.950 . S
H741 C717 0.949 . S
H742 C719 0.950 . S
H743 C721 0.950 . S
C744 C745 1.349 . S
C744 C746 1.327 . S
C744 H769 0.950 . S
C745 C744 1.349 . S
C745 C761 1.349 . S
C746 C744 1.327 . S
C746 C765 1.429 . S
C746 H770 0.950 . S
C747 C764 1.574 . S
C747 C766 1.368 . S
C747 H771 0.949 . S
H748 C752 0.949 . S
C749 C750 1.349 . S
C749 C751 1.327 . S
C749 H772 0.950 . S
C750 C749 1.349 . S
C750 C762 1.349 . S
C751 C749 1.327 . S
C751 C767 1.429 . S
C751 H773 0.950 . S
C752 H748 0.949 . S
C752 C760 1.574 . S
C752 C768 1.368 . S
H753 C761 0.950 . S
H754 C759 0.950 . S
H755 C760 0.949 . S
H756 C762 0.950 . S
H757 C763 0.950 . S
H758 C764 0.949 . S
C759 H754 0.950 . S
C759 C761 1.327 . S
C759 C765 1.429 . S
C760 C752 1.574 . S
C760 H755 0.949 . S
C760 C766 1.368 . S
C761 C745 1.349 . S
C761 H753 0.950 . S
C761 C759 1.327 . S
C762 C750 1.349 . S
C762 H756 0.950 . S
C762 C763 1.327 . S
C763 H757 0.950 . S
C763 C762 1.327 . S
C763 C767 1.429 . S
C764 C747 1.574 . S
C764 H758 0.949 . S
C764 C768 1.368 . S
C765 C746 1.429 . S
C765 C759 1.429 . S
C765 C766 1.523 . S
C766 C747 1.368 . S
C766 C760 1.368 . S
C766 C765 1.523 . S
C767 C751 1.429 . S
C767 C763 1.429 . S
C767 C768 1.523 . S
C768 C752 1.368 . S
C768 C764 1.368 . S
C768 C767 1.523 . S
H769 C744 0.950 . S
H770 C746 0.950 . S
H771 C747 0.949 . S
H772 C749 0.950 . S
H773 C751 0.950 . S
C774 C775 1.349 . S
C774 C776 1.327 1_556 S
C774 H799 0.950 . S
C775 C774 1.349 . S
C775 C791 1.349 . S
C776 C774 1.327 1_554 S
C776 C795 1.429 . S
C776 H800 0.950 . S
C777 C794 1.574 . S
C777 C796 1.368 . S
C777 H801 0.949 . S
H778 C782 0.949 . S
C779 C780 1.349 . S
C779 C781 1.327 . S
C779 H802 0.950 . S
C780 C779 1.349 . S
C780 C792 1.349 . S
C781 C779 1.327 . S
C781 C797 1.429 . S
C781 H803 0.950 . S
C782 H778 0.949 . S
C782 C790 1.574 . S
C782 C798 1.368 . S
H783 C791 0.950 . S
H784 C789 0.950 . S
H785 C790 0.949 . S
H786 C792 0.950 . S
H787 C793 0.950 . S
H788 C794 0.949 . S
C789 H784 0.950 . S
C789 C791 1.327 1_554 S
C789 C795 1.429 . S
C790 C782 1.574 . S
C790 H785 0.949 . S
C790 C796 1.368 . S
C791 C775 1.349 . S
C791 H783 0.950 . S
C791 C789 1.327 1_556 S
C792 C780 1.349 . S
C792 H786 0.950 . S
C792 C793 1.327 . S
C793 H787 0.950 . S
C793 C792 1.327 . S
C793 C797 1.429 . S
C794 C777 1.574 . S
C794 H788 0.949 . S
C794 C798 1.368 . S
C795 C776 1.429 . S
C795 C789 1.429 . S
C795 C796 1.523 . S
C796 C777 1.368 . S
C796 C790 1.368 . S
C796 C795 1.523 . S
C797 C781 1.429 . S
C797 C793 1.429 . S
C797 C798 1.523 . S
C798 C782 1.368 . S
C798 C794 1.368 . S
C798 C797 1.523 . S
H799 C774 0.950 . S
H800 C776 0.950 . S
H801 C777 0.949 . S
H802 C779 0.950 . S
H803 C781 0.950 . S
C804 C805 1.349 . S
C804 C806 1.327 . S
C804 H829 0.950 . S
C805 C804 1.349 . S
C805 C821 1.349 . S
C806 C804 1.327 . S
C806 C825 1.429 . S
C806 H830 0.950 . S
C807 C824 1.574 . S
C807 C826 1.368 . S
C807 H831 0.949 . S
H808 C812 0.949 . S
C809 C810 1.349 . S
C809 C811 1.327 . S
C809 H832 0.950 . S
C810 C809 1.349 . S
C810 C822 1.349 . S
C811 C809 1.327 . S
C811 C827 1.429 . S
C811 H833 0.950 . S
C812 H808 0.949 . S
C812 C820 1.574 . S
C812 C828 1.368 . S
H813 C821 0.950 . S
H814 C819 0.950 . S
H815 C820 0.949 . S
H816 C822 0.950 . S
H817 C823 0.950 . S
H818 C824 0.949 . S
C819 H814 0.950 . S
C819 C821 1.327 . S
C819 C825 1.429 . S
C820 C812 1.574 . S
C820 H815 0.949 . S
C820 C826 1.368 . S
C821 C805 1.349 . S
C821 H813 0.950 . S
C821 C819 1.327 . S
C822 C810 1.349 . S
C822 H816 0.950 . S
C822 C823 1.327 . S
C823 H817 0.950 . S
C823 C822 1.327 . S
C823 C827 1.429 . S
C824 C807 1.574 . S
C824 H818 0.949 . S
C824 C828 1.368 . S
C825 C806 1.429 . S
C825 C819 1.429 . S
C825 C826 1.523 . S
C826 C807 1.368 . S
C826 C820 1.368 . S
C826 C825 1.523 . S
C827 C811 1.429 . S
C827 C823 1.429 . S
C827 C828 1.523 . S
C828 C812 1.368 . S
C828 C824 1.368 . S
C828 C827 1.523 . S
H829 C804 0.950 . S
H830 C806 0.950 . S
H831 C807 0.949 . S
H832 C809 0.950 . S
H833 C811 0.950 . S
C834 C835 1.349 . S
C834 C836 1.327 . S
C834 H859 0.950 . S
C835 C834 1.349 . S
C835 C851 1.349 . S
C836 C834 1.327 . S
C836 C855 1.429 . S
C836 H860 0.950 . S
C837 C854 1.574 . S
C837 C856 1.368 . S
C837 H861 0.949 . S
H838 C842 0.949 . S
C839 C840 1.349 . S
C839 C841 1.327 1_556 S
C839 H862 0.950 . S
C840 C839 1.349 . S
C840 C852 1.349 . S
C841 C839 1.327 1_554 S
C841 C857 1.429 . S
C841 H863 0.950 . S
C842 H838 0.949 . S
C842 C850 1.574 . S
C842 C858 1.368 . S
H843 C851 0.950 . S
H844 C849 0.950 . S
H845 C850 0.949 . S
H846 C852 0.950 . S
H847 C853 0.950 . S
H848 C854 0.949 . S
C849 H844 0.950 . S
C849 C851 1.327 . S
C849 C855 1.429 . S
C850 C842 1.574 . S
C850 H845 0.949 . S
C850 C856 1.368 . S
C851 C835 1.349 . S
C851 H843 0.950 . S
C851 C849 1.327 . S
C852 C840 1.349 . S
C852 H846 0.950 . S
C852 C853 1.327 1_556 S
C853 H847 0.950 . S
C853 C852 1.327 1_554 S
C853 C857 1.429 . S
C854 C837 1.574 . S
C854 H848 0.949 . S
C854 C858 1.368 . S
C855 C836 1.429 . S
C855 C849 1.429 . S
C855 C856 1.523 . S
C856 C837 1.368 . S
C856 C850 1.368 . S
C856 C855 1.523 . S
C857 C841 1.429 . S
C857 C853 1.429 . S
C857 C858 1.523 . S
C858 C842 1.368 . S
C858 C854 1.368 . S
C858 C857 1.523 . S
H859 C834 0.950 . S
H860 C836 0.950 . S
H861 C837 0.949 . S
H862 C839 0.950 . S
H863 C841 0.950 . S
C265 C249 1.065 . S
C270 C18 1.065 . S
C295 C150 1.065 . S
C300 C51 1.065 . S
C325 C84 1.065 . S
C330 C183 1.065 . S
C355 C216 1.065 . S
C360 C117 1.065 . S
C385 C7 1.413 . S
C390 C139 1.413 . S
C415 C172 1.413 . S
C420 C40 1.413 . S
C445 C205 1.413 . S
C450 C73 1.413 . S
C475 C238 1.413 . S
C480 C106 1.413 . S
C505 C252 1.447 . S
C510 C54 1.447 . S
C535 C87 1.447 . S
C540 C153 1.447 . S
C565 C120 1.447 . S
C570 C186 1.447 . S
C595 C219 1.447 . S
C600 C21 1.447 . S
C625 N13 1.160 . S
C630 N2 1.159 . S
C655 N35 1.159 . S
C660 N46 1.160 . S
C685 N68 1.159 . S
C690 N79 1.160 . S
C715 N112 1.160 . S
C720 N101 1.159 . S
C745 N134 1.159 . S
C750 N145 1.160 . S
C775 N167 1.159 . S
C780 N178 1.160 . S
C805 N200 1.159 . S
C810 N211 1.160 . S
C835 N244 1.160 . S
C840 N233 1.159 . S
