# Generated by pormake.
# Topology wir, (6)-cn, num edge types: 1
# Building blocks:
#     Node 0, Type 0, BuildingBlock: INOVEN_clean_sbu_0, # of connection points: 6
#     Node 1, Type 0, BuildingBlock: INOVEN_clean_sbu_0, # of connection points: 6
#     Node 2, Type 0, BuildingBlock: INOVEN_clean_sbu_0, # of connection points: 6
#     Node 3, Type 0, BuildingBlock: INOVEN_clean_sbu_0, # of connection points: 6
#     Node 4, Type 0, BuildingBlock: INOVEN_clean_sbu_0, # of connection points: 6
#     Node 5, Type 0, BuildingBlock: INOVEN_clean_sbu_0, # of connection points: 6
#     Node 6, Type 0, BuildingBlock: INOVEN_clean_sbu_0, # of connection points: 6
#     Node 7, Type 0, BuildingBlock: INOVEN_clean_sbu_0, # of connection points: 6
#     Node 8, Type 0, BuildingBlock: INOVEN_clean_sbu_0, # of connection points: 6
#     Node 9, Type 0, BuildingBlock: INOVEN_clean_sbu_0, # of connection points: 6
#     Node 10, Type 0, BuildingBlock: INOVEN_clean_sbu_0, # of connection points: 6
#     Node 11, Type 0, BuildingBlock: INOVEN_clean_sbu_0, # of connection points: 6
#     Node 12, Type 0, BuildingBlock: INOVEN_clean_sbu_0, # of connection points: 6
#     Node 13, Type 0, BuildingBlock: INOVEN_clean_sbu_0, # of connection points: 6
#     Node 14, Type 0, BuildingBlock: INOVEN_clean_sbu_0, # of connection points: 6
#     Node 15, Type 0, BuildingBlock: INOVEN_clean_sbu_0, # of connection points: 6
#     Node 16, Type 0, BuildingBlock: INOVEN_clean_sbu_0, # of connection points: 6
#     Node 17, Type 0, BuildingBlock: INOVEN_clean_sbu_0, # of connection points: 6
#     Node 18, Type 0, BuildingBlock: INOVEN_clean_sbu_0, # of connection points: 6
#     Node 19, Type 0, BuildingBlock: INOVEN_clean_sbu_0, # of connection points: 6
#     Node 20, Type 0, BuildingBlock: INOVEN_clean_sbu_0, # of connection points: 6
#     Node 21, Type 0, BuildingBlock: INOVEN_clean_sbu_0, # of connection points: 6
#     Node 22, Type 0, BuildingBlock: INOVEN_clean_sbu_0, # of connection points: 6
#     Node 23, Type 0, BuildingBlock: INOVEN_clean_sbu_0, # of connection points: 6
#     Node 24, Type 0, BuildingBlock: INOVEN_clean_sbu_0, # of connection points: 6
#     Node 25, Type 0, BuildingBlock: INOVEN_clean_sbu_0, # of connection points: 6
#     Node 26, Type 0, BuildingBlock: INOVEN_clean_sbu_0, # of connection points: 6
#     Node 27, Type 0, BuildingBlock: INOVEN_clean_sbu_0, # of connection points: 6
#     Node 28, Type 0, BuildingBlock: INOVEN_clean_sbu_0, # of connection points: 6
#     Node 29, Type 0, BuildingBlock: INOVEN_clean_sbu_0, # of connection points: 6
#     Node 30, Type 0, BuildingBlock: INOVEN_clean_sbu_0, # of connection points: 6
#     Node 31, Type 0, BuildingBlock: INOVEN_clean_sbu_0, # of connection points: 6
#     Edge 32, Type (0, 0), BuildingBlock: UVAHIK_clean_linker_0, # of connection points: 2
#     Edge 33, Type (0, 0), BuildingBlock: UVAHIK_clean_linker_0, # of connection points: 2
#     Edge 34, Type (0, 0), BuildingBlock: UVAHIK_clean_linker_0, # of connection points: 2
#     Edge 35, Type (0, 0), BuildingBlock: UVAHIK_clean_linker_0, # of connection points: 2
#     Edge 36, Type (0, 0), BuildingBlock: UVAHIK_clean_linker_0, # of connection points: 2
#     Edge 37, Type (0, 0), BuildingBlock: UVAHIK_clean_linker_0, # of connection points: 2
#     Edge 38, Type (0, 0), BuildingBlock: UVAHIK_clean_linker_0, # of connection points: 2
#     Edge 39, Type (0, 0), BuildingBlock: UVAHIK_clean_linker_0, # of connection points: 2
#     Edge 40, Type (0, 0), BuildingBlock: UVAHIK_clean_linker_0, # of connection points: 2
#     Edge 41, Type (0, 0), BuildingBlock: UVAHIK_clean_linker_0, # of connection points: 2
#     Edge 42, Type (0, 0), BuildingBlock: UVAHIK_clean_linker_0, # of connection points: 2
#     Edge 43, Type (0, 0), BuildingBlock: UVAHIK_clean_linker_0, # of connection points: 2
#     Edge 44, Type (0, 0), BuildingBlock: UVAHIK_clean_linker_0, # of connection points: 2
#     Edge 45, Type (0, 0), BuildingBlock: UVAHIK_clean_linker_0, # of connection points: 2
#     Edge 46, Type (0, 0), BuildingBlock: UVAHIK_clean_linker_0, # of connection points: 2
#     Edge 47, Type (0, 0), BuildingBlock: UVAHIK_clean_linker_0, # of connection points: 2
#     Edge 48, Type (0, 0), BuildingBlock: UVAHIK_clean_linker_0, # of connection points: 2
#     Edge 49, Type (0, 0), BuildingBlock: UVAHIK_clean_linker_0, # of connection points: 2
#     Edge 50, Type (0, 0), BuildingBlock: UVAHIK_clean_linker_0, # of connection points: 2
#     Edge 51, Type (0, 0), BuildingBlock: UVAHIK_clean_linker_0, # of connection points: 2
#     Edge 52, Type (0, 0), BuildingBlock: UVAHIK_clean_linker_0, # of connection points: 2
#     Edge 53, Type (0, 0), BuildingBlock: UVAHIK_clean_linker_0, # of connection points: 2
#     Edge 54, Type (0, 0), BuildingBlock: UVAHIK_clean_linker_0, # of connection points: 2
#     Edge 55, Type (0, 0), BuildingBlock: UVAHIK_clean_linker_0, # of connection points: 2
#     Edge 56, Type (0, 0), BuildingBlock: UVAHIK_clean_linker_0, # of connection points: 2
#     Edge 57, Type (0, 0), BuildingBlock: UVAHIK_clean_linker_0, # of connection points: 2
#     Edge 58, Type (0, 0), BuildingBlock: UVAHIK_clean_linker_0, # of connection points: 2
#     Edge 59, Type (0, 0), BuildingBlock: UVAHIK_clean_linker_0, # of connection points: 2
#     Edge 60, Type (0, 0), BuildingBlock: UVAHIK_clean_linker_0, # of connection points: 2
#     Edge 61, Type (0, 0), BuildingBlock: UVAHIK_clean_linker_0, # of connection points: 2
#     Edge 62, Type (0, 0), BuildingBlock: UVAHIK_clean_linker_0, # of connection points: 2
#     Edge 63, Type (0, 0), BuildingBlock: UVAHIK_clean_linker_0, # of connection points: 2
#     Edge 64, Type (0, 0), BuildingBlock: UVAHIK_clean_linker_0, # of connection points: 2
#     Edge 65, Type (0, 0), BuildingBlock: UVAHIK_clean_linker_0, # of connection points: 2
#     Edge 66, Type (0, 0), BuildingBlock: UVAHIK_clean_linker_0, # of connection points: 2
#     Edge 67, Type (0, 0), BuildingBlock: UVAHIK_clean_linker_0, # of connection points: 2
#     Edge 68, Type (0, 0), BuildingBlock: UVAHIK_clean_linker_0, # of connection points: 2
#     Edge 69, Type (0, 0), BuildingBlock: UVAHIK_clean_linker_0, # of connection points: 2
#     Edge 70, Type (0, 0), BuildingBlock: UVAHIK_clean_linker_0, # of connection points: 2
#     Edge 71, Type (0, 0), BuildingBlock: UVAHIK_clean_linker_0, # of connection points: 2
#     Edge 72, Type (0, 0), BuildingBlock: UVAHIK_clean_linker_0, # of connection points: 2
#     Edge 73, Type (0, 0), BuildingBlock: UVAHIK_clean_linker_0, # of connection points: 2
#     Edge 74, Type (0, 0), BuildingBlock: UVAHIK_clean_linker_0, # of connection points: 2
#     Edge 75, Type (0, 0), BuildingBlock: UVAHIK_clean_linker_0, # of connection points: 2
#     Edge 76, Type (0, 0), BuildingBlock: UVAHIK_clean_linker_0, # of connection points: 2
#     Edge 77, Type (0, 0), BuildingBlock: UVAHIK_clean_linker_0, # of connection points: 2
#     Edge 78, Type (0, 0), BuildingBlock: UVAHIK_clean_linker_0, # of connection points: 2
#     Edge 79, Type (0, 0), BuildingBlock: UVAHIK_clean_linker_0, # of connection points: 2
#     Edge 80, Type (0, 0), BuildingBlock: UVAHIK_clean_linker_0, # of connection points: 2
#     Edge 81, Type (0, 0), BuildingBlock: UVAHIK_clean_linker_0, # of connection points: 2
#     Edge 82, Type (0, 0), BuildingBlock: UVAHIK_clean_linker_0, # of connection points: 2
#     Edge 83, Type (0, 0), BuildingBlock: UVAHIK_clean_linker_0, # of connection points: 2
#     Edge 84, Type (0, 0), BuildingBlock: UVAHIK_clean_linker_0, # of connection points: 2
#     Edge 85, Type (0, 0), BuildingBlock: UVAHIK_clean_linker_0, # of connection points: 2
#     Edge 86, Type (0, 0), BuildingBlock: UVAHIK_clean_linker_0, # of connection points: 2
#     Edge 87, Type (0, 0), BuildingBlock: UVAHIK_clean_linker_0, # of connection points: 2
#     Edge 88, Type (0, 0), BuildingBlock: UVAHIK_clean_linker_0, # of connection points: 2
#     Edge 89, Type (0, 0), BuildingBlock: UVAHIK_clean_linker_0, # of connection points: 2
#     Edge 90, Type (0, 0), BuildingBlock: UVAHIK_clean_linker_0, # of connection points: 2
#     Edge 91, Type (0, 0), BuildingBlock: UVAHIK_clean_linker_0, # of connection points: 2
#     Edge 92, Type (0, 0), BuildingBlock: UVAHIK_clean_linker_0, # of connection points: 2
#     Edge 93, Type (0, 0), BuildingBlock: UVAHIK_clean_linker_0, # of connection points: 2
#     Edge 94, Type (0, 0), BuildingBlock: UVAHIK_clean_linker_0, # of connection points: 2
#     Edge 95, Type (0, 0), BuildingBlock: UVAHIK_clean_linker_0, # of connection points: 2
#     Edge 96, Type (0, 0), BuildingBlock: UVAHIK_clean_linker_0, # of connection points: 2
#     Edge 97, Type (0, 0), BuildingBlock: UVAHIK_clean_linker_0, # of connection points: 2
#     Edge 98, Type (0, 0), BuildingBlock: UVAHIK_clean_linker_0, # of connection points: 2
#     Edge 99, Type (0, 0), BuildingBlock: UVAHIK_clean_linker_0, # of connection points: 2
#     Edge 100, Type (0, 0), BuildingBlock: UVAHIK_clean_linker_0, # of connection points: 2
#     Edge 101, Type (0, 0), BuildingBlock: UVAHIK_clean_linker_0, # of connection points: 2
#     Edge 102, Type (0, 0), BuildingBlock: UVAHIK_clean_linker_0, # of connection points: 2
#     Edge 103, Type (0, 0), BuildingBlock: UVAHIK_clean_linker_0, # of connection points: 2
#     Edge 104, Type (0, 0), BuildingBlock: UVAHIK_clean_linker_0, # of connection points: 2
#     Edge 105, Type (0, 0), BuildingBlock: UVAHIK_clean_linker_0, # of connection points: 2
#     Edge 106, Type (0, 0), BuildingBlock: UVAHIK_clean_linker_0, # of connection points: 2
#     Edge 107, Type (0, 0), BuildingBlock: UVAHIK_clean_linker_0, # of connection points: 2
#     Edge 108, Type (0, 0), BuildingBlock: UVAHIK_clean_linker_0, # of connection points: 2
#     Edge 109, Type (0, 0), BuildingBlock: UVAHIK_clean_linker_0, # of connection points: 2
#     Edge 110, Type (0, 0), BuildingBlock: UVAHIK_clean_linker_0, # of connection points: 2
#     Edge 111, Type (0, 0), BuildingBlock: UVAHIK_clean_linker_0, # of connection points: 2
#     Edge 112, Type (0, 0), BuildingBlock: UVAHIK_clean_linker_0, # of connection points: 2
#     Edge 113, Type (0, 0), BuildingBlock: UVAHIK_clean_linker_0, # of connection points: 2
#     Edge 114, Type (0, 0), BuildingBlock: UVAHIK_clean_linker_0, # of connection points: 2
#     Edge 115, Type (0, 0), BuildingBlock: UVAHIK_clean_linker_0, # of connection points: 2
#     Edge 116, Type (0, 0), BuildingBlock: UVAHIK_clean_linker_0, # of connection points: 2
#     Edge 117, Type (0, 0), BuildingBlock: UVAHIK_clean_linker_0, # of connection points: 2
#     Edge 118, Type (0, 0), BuildingBlock: UVAHIK_clean_linker_0, # of connection points: 2
#     Edge 119, Type (0, 0), BuildingBlock: UVAHIK_clean_linker_0, # of connection points: 2
#     Edge 120, Type (0, 0), BuildingBlock: UVAHIK_clean_linker_0, # of connection points: 2
#     Edge 121, Type (0, 0), BuildingBlock: UVAHIK_clean_linker_0, # of connection points: 2
#     Edge 122, Type (0, 0), BuildingBlock: UVAHIK_clean_linker_0, # of connection points: 2
#     Edge 123, Type (0, 0), BuildingBlock: UVAHIK_clean_linker_0, # of connection points: 2
#     Edge 124, Type (0, 0), BuildingBlock: UVAHIK_clean_linker_0, # of connection points: 2
#     Edge 125, Type (0, 0), BuildingBlock: UVAHIK_clean_linker_0, # of connection points: 2
#     Edge 126, Type (0, 0), BuildingBlock: UVAHIK_clean_linker_0, # of connection points: 2
#     Edge 127, Type (0, 0), BuildingBlock: UVAHIK_clean_linker_0, # of connection points: 2
# Relax obj value: 0.357
# Max RMSD: 0.201
# Mean RMSD: 0.201
data_MOF--net-wir--node1-INOVEN_clean_sbu_0--edge1-UVAHIK_clean_linker_0
_symmetry_space_group_name_H-M    P1
_symmetry_Int_Tables_number       1
_symmetry_cell_setting            triclinic
loop_
_symmetry_equiv_pos_as_xyz
'x, y, z'
_cell_length_a     48.895438
_cell_length_b     49.077002
_cell_length_c     133.85831
_cell_angle_alpha  90.169897
_cell_angle_beta   89.876288
_cell_angle_gamma 89.604306
loop_
_atom_site_label
_atom_site_type_symbol
_atom_site_fract_x
_atom_site_fract_y
_atom_site_fract_z
_atom_type_partial_charge
Gd0 Gd 0.25725 0.24611 0.38418 0.0
Gd1 Gd 0.23504 0.20489 0.37915 0.0
C2 C 0.2189 0.22621 0.40044 0.0
C3 C 0.27385 0.29397 0.38942 0.0
C4 C 0.26321 0.32032 0.38602 0.0
C5 C 0.26968 0.34432 0.39112 0.0
C6 C 0.24373 0.32097 0.37833 0.0
C7 C 0.23407 0.36849 0.38195 0.0
C8 C 0.22932 0.3449 0.37628 0.0
C9 C 0.25527 0.36835 0.38906 0.0
C10 C 0.28951 0.20197 0.3926 0.0
C11 C 0.26034 0.24055 0.36033 0.0
C12 C 0.23009 0.15429 0.37418 0.0
C13 C 0.22332 0.13577 0.36603 0.0
C14 C 0.20989 0.14493 0.35742 0.0
C15 C 0.22855 0.10796 0.36733 0.0
C16 C 0.20607 0.09812 0.3516 0.0
C17 C 0.21999 0.08925 0.36018 0.0
C18 C 0.20129 0.12617 0.35023 0.0
C19 C 0.19028 0.23908 0.37848 0.0
O20 O 0.22559 0.24911 0.39623 0.0
O21 O 0.2257 0.20366 0.3957 0.0
O22 O 0.25665 0.27981 0.3947 0.0
O23 O 0.28598 0.2793 0.38257 0.0
O24 O 0.29839 0.22153 0.38698 0.0
O25 O 0.26384 0.20549 0.39236 0.0
O26 O 0.25015 0.21659 0.36292 0.0
O27 O 0.26454 0.25721 0.36779 0.0
O28 O 0.20999 0.16926 0.3776 0.0
O29 O 0.25332 0.16733 0.3736 0.0
O30 O 0.19067 0.21366 0.38097 0.0
O31 O 0.21505 0.24629 0.3759 0.0
H32 H 0.2846 0.3441 0.39709 0.0
H33 H 0.23839 0.30254 0.37433 0.0
H34 H 0.2131 0.34443 0.37078 0.0
H35 H 0.25909 0.38613 0.39365 0.0
H36 H 0.20566 0.16643 0.35637 0.0
H37 H 0.23868 0.10064 0.37401 0.0
H38 H 0.22367 0.06777 0.3615 0.0
H39 H 0.19092 0.13357 0.34362 0.0
Gd40 Gd 0.08904 0.99 0.62642 0.0
Gd41 Gd 0.1289 0.97351 0.6182 0.0
C42 C 0.12469 0.95277 0.6395 0.0
C43 C 0.04295 1.00875 0.63313 0.0
C44 C 1.03508 1.021 0.64272 0.0
C45 C 0.05412 1.03582 0.64838 0.0
C46 C 1.00989 1.0142 0.64695 0.0
C47 C 1.02518 1.03162 0.66299 0.0
C48 C 1.00485 1.01967 0.65701 0.0
C49 C 0.04935 0.04078 0.65851 0.0
C50 C 0.1304 1.01832 0.6371 0.0
C51 C 0.08697 0.99796 0.60207 0.0
C52 C 0.17559 0.97137 0.60901 0.0
C53 C 0.20425 0.97965 0.61066 0.0
C54 C 0.22279 0.96234 0.61561 0.0
C55 C 0.2139 1.00399 0.60649 0.0
C56 C 0.26047 0.99222 0.61128 0.0
C57 C 0.24167 1.01025 0.60683 0.0
C58 C 0.25062 0.9686 0.61594 0.0
C59 C 0.09779 0.92589 0.61945 0.0
O60 O 0.09876 0.9558 0.63722 0.0
O61 O 0.14264 0.96408 0.63362 0.0
O62 O 0.0595 1.02295 0.62757 0.0
O63 O 0.04988 0.98303 0.63355 0.0
O64 O 0.10893 1.00659 0.64057 0.0
O65 O 0.12993 1.01386 0.62743 0.0
O66 O 0.10843 0.98199 0.60299 0.0
O67 O 0.07656 1.00657 0.61064 0.0
O68 O 0.15757 0.99076 0.60763 0.0
O69 O 0.16619 0.95164 0.61449 0.0
O70 O 0.12391 0.92815 0.62064 0.0
O71 O 0.08807 0.95 0.61746 0.0
H72 H 0.07341 0.04201 0.64518 0.0
H73 H 0.99495 1.00286 0.64269 0.0
H74 H 0.98613 1.01211 0.66031 0.0
H75 H 0.06524 0.05009 0.66297 0.0
H76 H 0.21603 0.9434 0.61891 0.0
H77 H 0.20019 1.01765 0.60255 0.0
H78 H 0.24858 1.02837 0.603 0.0
H79 H 0.2646 0.95438 0.61946 0.0
Gd80 Gd 0.33094 0.83786 0.88271 0.0
Gd81 Gd 0.35345 0.87799 0.87752 0.0
C82 C 0.36648 0.85902 0.89927 0.0
C83 C 0.30578 0.79276 0.88633 0.0
C84 C 0.29153 0.78352 0.89535 0.0
C85 C 0.27765 0.80236 0.90151 0.0
C86 C 0.29709 0.75735 0.89895 0.0
C87 C 0.28229 0.77157 0.9155 0.0
C88 C 0.29225 0.7513 0.90896 0.0
C89 C 0.27345 0.79658 0.91159 0.0
C90 C 0.30395 0.87906 0.89427 0.0
C91 C 0.32836 0.84336 0.85884 0.0
C92 C 0.36422 0.92647 0.87097 0.0
C93 C 0.38278 0.93872 0.86372 0.0
C94 C 0.38451 0.96709 0.86324 0.0
C95 C 0.39891 0.92248 0.85736 0.0
C96 C 0.41738 0.96324 0.84964 0.0
C97 C 0.41609 0.93468 0.85034 0.0
C98 C 0.40166 0.97929 0.85625 0.0
C99 C 0.3983 0.84332 0.87822 0.0
O100 O 0.36155 0.8357 0.89497 0.0
O101 O 0.36029 0.8811 0.8942 0.0
O102 O 0.29456 0.81301 0.88152 0.0
O103 O 0.33214 0.79569 0.88741 0.0
O104 O 0.3116 0.85511 0.89705 0.0
O105 O 0.31114 0.88088 0.88492 0.0
O106 O 0.34639 0.86233 0.86113 0.0
O107 O 0.31643 0.83217 0.86654 0.0
O108 O 0.37584 0.91571 0.87874 0.0
O109 O 0.34478 0.91131 0.86736 0.0
O110 O 0.39719 0.8685 0.88099 0.0
O111 O 0.37404 0.83625 0.87513 0.0
H112 H 0.27227 0.82241 0.89879 0.0
H113 H 0.30765 0.74251 0.8943 0.0
H114 H 0.2994 0.73185 0.91179 0.0
H115 H 0.26555 0.8124 0.91649 0.0
H116 H 0.37224 0.97984 0.86815 0.0
H117 H 0.39794 0.90045 0.85775 0.0
H118 H 0.42804 0.92182 0.84536 0.0
H119 H 0.40175 1.00132 0.85578 0.0
Gd120 Gd 0.48189 0.06548 0.12561 0.0
Gd121 Gd 0.44183 0.08605 0.12035 0.0
C122 C 0.45846 0.0999 0.14194 0.0
C123 C 0.53247 0.05008 0.12776 0.0
C124 C 0.55731 0.06633 0.12875 0.0
C125 C 0.58308 0.05381 0.12898 0.0
C126 C 0.55506 0.09461 0.13001 0.0
C127 C 0.60399 0.09745 0.13299 0.0
C128 C 0.57814 0.11002 0.13217 0.0
C129 C 0.60633 0.06929 0.13103 0.0
C130 C 0.44241 1.03487 0.1365 0.0
C131 C 0.4761 0.05831 0.10218 0.0
C132 C 0.39368 0.09664 0.11318 0.0
C133 C 0.38144 0.11839 0.10707 0.0
C134 C 0.35808 0.13204 0.11062 0.0
C135 C 0.39304 0.12629 0.09793 0.0
C136 C 0.35717 0.16044 0.09576 0.0
C137 C 0.38094 0.14704 0.09231 0.0
C138 C 0.34611 0.15294 0.10505 0.0
C139 C 0.47346 0.13286 0.12164 0.0
O140 O 0.48199 0.09755 0.13743 0.0
O141 O 0.43708 0.09129 0.13701 0.0
O142 O 0.51528 0.05249 0.13513 0.0
O143 O 0.52036 0.0515 0.11914 0.0
O144 O 0.46631 0.04258 0.13935 0.0
O145 O 0.44012 0.04306 0.12727 0.0
O146 O 0.46005 0.07927 0.10432 0.0
O147 O 0.48392 0.04463 0.11011 0.0
O148 O 0.40152 0.10404 0.12204 0.0
O149 O 0.41108 0.08009 0.10887 0.0
O150 O 0.44795 0.13052 0.12393 0.0
O151 O 0.48241 0.10908 0.11876 0.0
H152 H 0.58512 1.032 0.1279 0.0
H153 H 0.53526 0.10463 0.12977 0.0
H154 H 0.57531 0.1315 0.13376 0.0
H155 H 0.62598 0.05904 0.13142 0.0
H156 H 0.34902 0.12648 0.11772 0.0
H157 H 0.41127 0.11628 0.09507 0.0
H158 H 0.38976 0.15197 0.08512 0.0
H159 H 0.32806 0.16307 0.108 0.0
Gd160 Gd 0.24641 0.82764 0.22441 0.0
Gd161 Gd 0.2215 0.86437 0.22947 0.0
C162 C 0.20798 0.84702 0.20779 0.0
C163 C 0.2633 0.77908 0.21986 0.0
C164 C 0.25074 0.75317 0.22265 0.0
C165 C 0.25236 0.73085 0.21617 0.0
C166 C 0.2336 0.752 0.23108 0.0
C167 C 0.21644 0.70818 0.22561 0.0
C168 C 0.21671 0.7296 0.23258 0.0
C169 C 0.23539 0.70846 0.21765 0.0
C170 C 0.27738 0.871 0.21547 0.0
C171 C 0.24789 0.82998 0.248 0.0
C172 C 0.21746 0.91133 0.23803 0.0
C173 C 0.20971 0.92075 0.24806 0.0
C174 C 0.19332 0.94409 0.24911 0.0
C175 C 0.2173 0.90593 0.25657 0.0
C176 C 0.19214 0.93773 0.26712 0.0
C177 C 0.20844 0.91422 0.26601 0.0
C178 C 0.18468 0.95261 0.25857 0.0
C179 C 0.17791 0.83013 0.22922 0.0
O180 O 0.21728 0.82435 0.21158 0.0
O181 O 0.21078 0.86918 0.2132 0.0
O182 O 0.24879 0.79404 0.21382 0.0
O183 O 0.27325 0.79318 0.22723 0.0
O184 O 0.28693 0.85022 0.2203 0.0
O185 O 0.25152 0.86909 0.21646 0.0
O186 O 0.22696 0.84544 0.24546 0.0
O187 O 0.26294 0.82262 0.2404 0.0
O188 O 0.19766 0.90054 0.23283 0.0
O189 O 0.24064 0.8978 0.23727 0.0
O190 O 0.17775 0.85568 0.22674 0.0
O191 O 0.20278 0.82276 0.23185 0.0
H192 H 0.26532 0.73154 0.2096 0.0
H193 H 0.23196 0.76917 0.23616 0.0
H194 H 0.20251 0.72992 0.23881 0.0
H195 H 0.23549 0.69255 0.21202 0.0
H196 H 0.18721 0.95573 0.24261 0.0
H197 H 0.23005 0.88792 0.25599 0.0
H198 H 0.21433 0.90214 0.27242 0.0
H199 H 0.17257 0.9711 0.25919 0.0
Gd200 Gd 0.48863 1.00356 0.4807 0.0
Gd201 Gd 0.44768 0.98788 0.48954 0.0
C202 C 0.45033 0.96541 0.4684 0.0
C203 C 0.53459 1.00858 0.47135 0.0
C204 C 0.56003 0.99263 0.4722 0.0
C205 C 0.58524 1.00584 0.473 0.0
C206 C 0.5592 0.96407 0.47261 0.0
C207 C 0.60887 0.96194 0.47337 0.0
C208 C 0.58332 0.94891 0.4731 0.0
C209 C 0.60947 0.99064 0.47365 0.0
C210 C 0.44655 0.04077 0.47424 0.0
C211 C 0.49242 1.01389 0.50474 0.0
C212 C 0.40455 0.98963 0.50054 0.0
C213 C 0.40234 0.98971 0.5115 0.0
C214 C 0.41891 0.97236 0.51729 0.0
C215 C 0.38651 1.00983 0.51626 0.0
C216 C 0.4046 0.99601 0.5324 0.0
C217 C 0.38767 1.01301 0.52662 0.0
C218 C 0.41986 0.97536 0.52766 0.0
C219 C 0.47949 0.94069 0.48891 0.0
O220 O 0.47641 0.96914 0.47021 0.0
O221 O 0.43253 0.97659 0.47448 0.0
O222 O 0.51365 0.99583 0.46763 0.0
O223 O 0.52811 1.02322 0.47913 0.0
O224 O 0.47054 0.0471 0.47763 0.0
O225 O 0.44516 1.01514 0.47569 0.0
O226 O 0.46708 1.00574 0.5038 0.0
O227 O 0.50659 1.0145 0.49635 0.0
O228 O 0.41347 0.96711 0.49636 0.0
O229 O 0.41584 1.01148 0.49682 0.0
O230 O 0.45312 0.94241 0.48816 0.0
O231 O 0.48887 0.96511 0.49049 0.0
H232 H 0.58622 1.02789 0.47297 0.0
H233 H 0.53993 0.95333 0.47228 0.0
H234 H 0.58182 0.92693 0.47273 0.0
H235 H 0.62869 1.0014 0.47406 0.0
H236 H 0.43185 0.95706 0.51379 0.0
H237 H 0.3739 1.02364 0.51192 0.0
H238 H 0.37535 1.02882 0.53012 0.0
H239 H 0.43317 0.96209 0.53194 0.0
Gd240 Gd 0.32345 0.22804 0.72548 0.0
Gd241 Gd 0.347 0.18882 0.731 0.0
C242 C 0.36202 0.20744 0.70955 0.0
C243 C 0.30682 0.27504 0.71917 0.0
C244 C 0.31888 0.30171 0.72117 0.0
C245 C 0.31628 0.32261 0.71417 0.0
C246 C 0.33681 0.30478 0.72928 0.0
C247 C 0.35271 0.34757 0.72245 0.0
C248 C 0.35351 0.32762 0.72994 0.0
C249 C 0.33302 0.34547 0.71481 0.0
C250 C 0.29179 0.18355 0.71723 0.0
C251 C 0.3192 0.22543 0.74933 0.0
C252 C 0.35597 0.14089 0.73821 0.0
C253 C 0.36786 0.13058 0.74754 0.0
C254 C 0.39115 0.14282 0.75169 0.0
C255 C 0.35618 0.10806 0.75228 0.0
C256 C 0.39146 0.10953 0.76503 0.0
C257 C 0.36781 0.09767 0.76101 0.0
C258 C 0.40299 0.13222 0.76033 0.0
C259 C 0.39093 0.22371 0.73127 0.0
O260 O 0.35593 0.23051 0.71383 0.0
O261 O 0.35501 0.18525 0.71436 0.0
O262 O 0.32226 0.25877 0.71388 0.0
O263 O 0.29613 0.26287 0.72686 0.0
O264 O 0.28261 0.20428 0.72229 0.0
O265 O 0.3176 0.1859 0.71792 0.0
O266 O 0.33207 0.20237 0.74708 0.0
O267 O 0.31298 0.24041 0.74159 0.0
O268 O 0.37291 0.15338 0.73227 0.0
O269 O 0.33218 0.15319 0.73892 0.0
O270 O 0.39112 0.19816 0.72895 0.0
O271 O 0.36587 0.23081 0.73371 0.0
H272 H 0.30274 0.32039 0.70782 0.0
H273 H 0.33924 0.28868 0.73473 0.0
H274 H 0.3683 0.32877 0.73594 0.0
H275 H 0.33213 0.36026 0.70884 0.0
H276 H 0.40036 0.16047 0.74823 0.0
H277 H 0.3382 0.09841 0.74919 0.0
H278 H 0.35865 0.08007 0.76451 0.0
H279 H 0.42101 0.14187 0.76337 0.0
Gd280 Gd 0.09796 0.07801 0.98228 0.0
Gd281 Gd 0.13859 0.09837 0.98821 0.0
C282 C 0.12673 0.10867 0.966 0.0
C283 C 0.0475 0.06422 0.97925 0.0
C284 C 1.02187 0.07929 0.9807 0.0
C285 C 0.99882 0.07178 0.97522 0.0
C286 C 1.02187 0.10409 0.98595 0.0
C287 C 0.97805 0.11609 0.97859 0.0
C288 C 1.00003 0.12235 0.98494 0.0
C289 C 0.97698 0.09 0.97419 0.0
C290 C 0.13778 0.0459 0.97204 0.0
C291 C 0.10215 0.07197 1.00607 0.0
C292 C 0.18575 0.10927 0.99607 0.0
C293 C 0.19554 0.12982 1.00312 0.0
C294 C 0.17699 0.14581 1.00865 0.0
C295 C 0.22363 0.13437 1.00401 0.0
C296 C 0.21482 0.17017 1.01624 0.0
C297 C 0.23323 0.15439 1.01051 0.0
C298 C 0.18658 0.16578 1.0152 0.0
C299 C 0.10571 0.14463 0.98624 0.0
O300 O 0.10222 0.10809 0.96987 0.0
O301 O 0.14682 0.10066 0.97175 0.0
O302 O 0.06324 0.07443 0.9724 0.0
O303 O 0.06101 0.0576 0.98727 0.0
O304 O 0.11339 0.05209 0.96921 0.0
O305 O 0.14017 0.05544 0.98112 0.0
O306 O 0.12041 0.09096 1.00415 0.0
O307 O 0.09254 0.05979 0.99807 0.0
O308 O 0.17763 0.11879 0.98753 0.0
O309 O 0.16921 0.09095 0.99963 0.0
O310 O 0.13122 0.14223 0.98394 0.0
O311 O 0.09747 0.12113 0.98944 0.0
H312 H 0.99864 0.05279 0.97106 0.0
H313 H 0.03965 0.11022 0.9902 0.0
H314 H 1.00131 0.14214 0.9885 0.0
H315 H 0.96058 0.08457 0.96916 0.0
H316 H 0.15516 0.14278 1.0079 0.0
H317 H 0.23815 0.12233 0.99971 0.0
H318 H 0.25511 0.15696 1.01128 0.0
H319 H 0.17195 0.1777 1.01948 0.0
Gd320 Gd 0.85109 0.88348 0.73807 0.0
Gd321 Gd 0.83619 0.84262 0.73009 0.0
C322 C 0.8263 0.84211 0.75437 0.0
C323 C 0.85656 0.93027 0.74683 0.0
C324 C 0.87629 0.94055 0.75411 0.0
C325 C 0.89277 0.92241 0.75955 0.0
C326 C 0.8801 0.96864 0.75511 0.0
C327 C 0.9164 0.96058 0.76717 0.0
C328 C 0.90001 0.97861 0.76159 0.0
C329 C 0.9126 0.93236 0.76608 0.0
C330 C 0.89987 0.853 0.73779 0.0
C331 C 0.87394 0.87656 0.71716 0.0
C332 C 0.82332 0.79401 0.72419 0.0
C333 C 0.83244 0.7664 0.72664 0.0
C334 C 0.82406 0.74487 0.72056 0.0
C335 C 0.85315 0.76214 0.73372 0.0
C336 C 0.86065 0.71634 0.7272 0.0
C337 C 0.86707 0.73718 0.73404 0.0
C338 C 0.83799 0.72002 0.72083 0.0
C339 C 0.80542 0.8832 0.71973 0.0
O340 O 0.84005 0.86485 0.75337 0.0
O341 O 0.82001 0.82987 0.74587 0.0
O342 O 0.8669 0.92454 0.73812 0.0
O343 O 0.83978 0.91158 0.74997 0.0
O344 O 0.89709 0.87892 0.73656 0.0
O345 O 0.87576 0.84301 0.7393 0.0
O346 O 0.87247 0.8513 0.72018 0.0
O347 O 0.85992 0.89451 0.72227 0.0
O348 O 0.84196 0.80886 0.71995 0.0
O349 O 0.80958 0.80733 0.73101 0.0
O350 O 0.81701 0.86162 0.7162 0.0
O351 O 0.81026 0.88272 0.72933 0.0
H352 H 0.89039 0.90059 0.7587 0.0
H353 H 0.86773 0.98286 0.75086 0.0
H354 H 0.90217 1.00046 0.7624 0.0
H355 H 0.92503 0.91802 0.77024 0.0
H356 H 0.80821 0.74794 0.71502 0.0
H357 H 0.85986 0.77872 0.73847 0.0
H358 H 0.88408 0.73491 0.73915 0.0
H359 H 0.83253 0.70474 0.71536 0.0
Gd360 Gd 0.93439 0.09456 0.48192 0.0
Gd361 Gd 0.97393 0.07486 0.4757 0.0
C362 C 0.97114 0.06651 0.49908 0.0
C363 C 0.8877 0.10088 0.49096 0.0
C364 C 0.85875 0.0924 0.49089 0.0
C365 C 0.83853 0.11011 0.48716 0.0
C366 C 0.85066 0.06865 0.49589 0.0
C367 C 0.80292 0.08265 0.4948 0.0
C368 C 0.82306 0.0638 0.49781 0.0
C369 C 0.81087 0.1052 0.48905 0.0
C370 C 0.96612 0.14132 0.48036 0.0
C371 C 0.94448 0.10796 0.46001 0.0
C372 C 1.02523 0.06428 0.4729 0.0
C373 C 0.04732 0.08434 0.47337 0.0
C374 C 0.0415 0.11165 0.47107 0.0
C375 C 0.07354 0.07712 0.47666 0.0
C376 C 0.08847 0.12414 0.47457 0.0
C377 C 0.09401 0.0969 0.47727 0.0
C378 C 0.06183 0.13125 0.47159 0.0
C379 C 0.93474 0.04384 0.465 0.0
O380 O 0.95585 0.08815 0.49731 0.0
O381 O 0.97719 0.05266 0.49093 0.0
O382 O 0.90604 0.08282 0.49354 0.0
O383 O 0.89613 0.11675 0.48382 0.0
O384 O 0.94046 0.13912 0.47821 0.0
O385 O 0.97496 0.11752 0.48311 0.0
O386 O 0.969 0.1065 0.46382 0.0
O387 O 0.92445 0.09931 0.46564 0.0
O388 O 1.008 0.06758 0.46561 0.0
O389 O 1.0129 0.05977 0.48135 0.0
O390 O 0.95864 0.05143 0.46207 0.0
O391 O 0.93251 0.05197 0.47428 0.0
H392 H 0.84412 0.12862 0.4833 0.0
H393 H 0.8657 0.05463 0.49891 0.0
H394 H 0.81781 0.04639 0.50236 0.0
H395 H 0.79583 0.11991 0.4865 0.0
H396 H 1.02123 0.11788 0.46873 0.0
H397 H 0.0782 0.05626 0.47871 0.0
H398 H 0.11423 0.09079 0.47971 0.0
H399 H 0.05678 0.15178 0.46925 0.0
Gd400 Gd 0.73587 0.20201 0.23758 0.0
Gd401 Gd 0.75412 0.24218 0.23072 0.0
C402 C 0.76179 0.24075 0.25466 0.0
C403 C 0.72849 0.15592 0.24656 0.0
C404 C 0.71028 0.14595 0.25447 0.0
C405 C 0.68231 0.15285 0.25464 0.0
C406 C 0.721 0.12905 0.26192 0.0
C407 C 0.67595 0.12538 0.26951 0.0
C408 C 0.70401 0.11891 0.2694 0.0
C409 C 0.66523 0.14246 0.26207 0.0
C410 C 0.68824 0.23354 0.23616 0.0
C411 C 0.72082 0.21037 0.21563 0.0
C412 C 0.76675 0.29224 0.22673 0.0
C413 C 0.7521 0.31765 0.22897 0.0
C414 C 0.75524 0.33983 0.22256 0.0
C415 C 0.73049 0.3176 0.2359 0.0
C416 C 0.71174 0.35856 0.22833 0.0
C417 C 0.71051 0.33806 0.23562 0.0
C418 C 0.73525 0.36024 0.22225 0.0
C419 C 0.78578 0.20217 0.2204 0.0
O420 O 0.74346 0.22163 0.25318 0.0
O421 O 0.77284 0.2502 0.2464 0.0
O422 O 0.71695 0.16239 0.23814 0.0
O423 O 0.74711 0.17334 0.24927 0.0
O424 O 0.69082 0.2078 0.23436 0.0
O425 O 0.71211 0.24273 0.23863 0.0
O426 O 0.72218 0.23541 0.21895 0.0
O427 O 0.7304 0.19129 0.22147 0.0
O428 O 0.75373 0.2764 0.2206 0.0
O429 O 0.77691 0.27892 0.23428 0.0
O430 O 0.77724 0.22541 0.21721 0.0
O431 O 0.77825 0.20105 0.22977 0.0
H432 H 0.6736 0.16611 0.24901 0.0
H433 H 0.7425 0.12352 0.26191 0.0
H434 H 0.71273 0.10548 0.27498 0.0
H435 H 0.64372 0.14788 0.26204 0.0
H436 H 0.77167 0.34004 0.21712 0.0
H437 H 0.7277 0.30049 0.24089 0.0
H438 H 0.69288 0.33648 0.2405 0.0
H439 H 0.73686 0.37558 0.21649 0.0
Gd440 Gd 0.622 0.96559 0.97955 0.0
Gd441 Gd 0.58009 0.9875 0.97346 0.0
C442 C 0.58396 0.99241 0.99747 0.0
C443 C 0.67211 0.95968 0.9852 0.0
C444 C 0.69216 0.9596 0.99329 0.0
C445 C 0.71469 0.94195 0.99246 0.0
C446 C 0.69163 0.97958 1.0008 0.0
C447 C 0.73762 0.96641 1.00576 0.0
C448 C 0.71427 0.98297 1.007 0.0
C449 C 0.73727 0.94527 0.99867 0.0
C450 C 0.58721 0.92147 0.97925 0.0
C451 C 0.60611 0.9504 0.95743 0.0
C452 C 0.53218 1.00233 0.96727 0.0
C453 C 0.50511 0.9928 0.97033 0.0
C454 C 0.48306 0.9952 0.96378 0.0
C455 C 0.50211 0.9779 0.97921 0.0
C456 C 0.45633 0.96469 0.97425 0.0
C457 C 0.47785 0.96408 0.98118 0.0
C458 C 0.45884 0.9813 0.96571 0.0
C459 C 0.62427 1.0205 0.96588 0.0
O460 O 0.60872 0.98304 0.99524 0.0
O461 O 0.56751 0.9951 0.98981 0.0
O462 O 0.65541 0.93917 0.98438 0.0
O463 O 0.66097 0.98317 0.98295 0.0
O464 O 0.61285 0.92166 0.97685 0.0
O465 O 0.57999 0.94612 0.98198 0.0
O466 O 0.58197 0.95762 0.96073 0.0
O467 O 0.62718 0.95541 0.96322 0.0
O468 O 0.54716 0.98405 0.96273 0.0
O469 O 0.54583 1.01578 0.97401 0.0
O470 O 0.60271 1.02905 0.97065 0.0
O471 O 0.62239 0.99474 0.96643 0.0
H472 H 0.71548 0.92658 0.98664 0.0
H473 H 0.67436 0.99338 1.00156 0.0
H474 H 0.71386 0.99907 1.01255 0.0
H475 H 0.75501 0.93228 0.99754 0.0
H476 H 0.48515 1.00642 0.95686 0.0
H477 H 0.51905 0.97564 0.98434 0.0
H478 H 0.47653 0.9517 0.98785 0.0
H479 H 0.44296 0.98191 0.96009 0.0
Gd480 Gd 0.84182 0.18745 0.8717 0.0
Gd481 Gd 0.82126 0.22708 0.87728 0.0
C482 C 0.81492 0.22253 0.85369 0.0
C483 C 0.85177 0.13948 0.8643 0.0
C484 C 0.87364 0.12718 0.85817 0.0
C485 C 0.88734 0.10397 0.86171 0.0
C486 C 0.88156 0.13857 0.84901 0.0
C487 C 0.91574 0.10272 0.84678 0.0
C488 C 0.90234 0.12638 0.84335 0.0
C489 C 0.90828 0.09191 0.8561 0.0
C490 C 0.88886 0.21883 0.87259 0.0
C491 C 0.85811 0.20442 0.89307 0.0
C492 C 0.80515 0.27713 0.87978 0.0
C493 C 0.8215 0.30201 0.87968 0.0
C494 C 0.80902 0.32774 0.87974 0.0
C495 C 0.85008 0.29989 0.88003 0.0
C496 C 0.85358 0.349 0.88194 0.0
C497 C 0.86597 0.32309 0.8812 0.0
C498 C 0.82498 0.35113 0.88079 0.0
C499 C 0.79134 0.18701 0.88815 0.0
O500 O 0.83542 0.20582 0.85572 0.0
O501 O 0.80133 0.23051 0.86167 0.0
O502 O 0.85897 0.14688 0.87323 0.0
O503 O 0.83559 0.15722 0.86005 0.0
O504 O 0.88671 0.19327 0.87463 0.0
O505 O 0.86478 0.22808 0.87015 0.0
O506 O 0.85407 0.22788 0.88878 0.0
O507 O 0.84979 0.18281 0.88821 0.0
O508 O 0.81052 0.26065 0.88711 0.0
O509 O 0.80348 0.26435 0.87129 0.0
O510 O 0.79954 0.21051 0.89117 0.0
O511 O 0.79883 0.18552 0.8788 0.0
H512 H 0.88176 0.09507 0.86883 0.0
H513 H 0.87153 0.15668 0.84616 0.0
H514 H 0.90723 0.135 0.83613 0.0
H515 H 0.91841 0.07394 0.85902 0.0
H516 H 0.78697 0.32968 0.87933 0.0
H517 H 0.86007 0.28012 0.87987 0.0
H518 H 0.88779 0.32038 0.88218 0.0
H519 H 0.81479 0.37077 0.88111 0.0
Gd520 Gd 0.64343 0.1039 0.62547 0.0
Gd521 Gd 0.60258 0.08368 0.63243 0.0
C522 C 0.60291 0.07759 0.60845 0.0
C523 C 0.68857 0.10647 0.61565 0.0
C524 C 0.69229 0.10715 0.60472 0.0
C525 C 0.67647 0.12487 0.59879 0.0
C526 C 0.70799 0.08672 0.60006 0.0
C527 C 0.69026 0.10021 0.58383 0.0
C528 C 0.70691 0.08321 0.58971 0.0
C529 C 0.67564 0.12154 0.58843 0.0
C530 C 0.60955 0.14908 0.62613 0.0
C531 C 0.633 0.11968 0.64771 0.0
C532 C 0.55509 0.07237 0.63977 0.0
C533 C 0.52844 0.08366 0.637 0.0
C534 C 0.50578 0.07969 0.64317 0.0
C535 C 0.52639 0.10113 0.62874 0.0
C536 C 0.4801 0.1134 0.63361 0.0
C537 C 0.50235 0.11585 0.62703 0.0
C538 C 0.48173 0.09441 0.64148 0.0
C539 C 0.64585 0.04889 0.63969 0.0
O540 O 0.62737 0.08755 0.61019 0.0
O541 O 0.5877 0.07437 0.61643 0.0
O542 O 0.67717 0.12789 0.61981 0.0
O543 O 0.67861 0.08354 0.61898 0.0
O544 O 0.63551 0.14827 0.62803 0.0
O545 O 0.60158 0.12457 0.62369 0.0
O546 O 0.60816 0.11426 0.64474 0.0
O547 O 0.65312 0.11347 0.64154 0.0
O548 O 0.57163 0.08988 0.64382 0.0
O549 O 0.56706 0.05751 0.63294 0.0
O550 O 0.62321 0.04128 0.63553 0.0
O551 O 0.64575 0.07465 0.63862 0.0
H552 H 0.6637 0.14048 0.60218 0.0
H553 H 0.72006 0.07264 0.60448 0.0
H554 H 0.71874 0.06687 0.58632 0.0
H555 H 0.66257 0.13485 0.58408 0.0
H556 H 0.50717 0.0664 0.6496 0.0
H557 H 0.54385 0.10449 0.62392 0.0
H558 H 0.50169 0.13018 0.6209 0.0
H559 H 0.4652 0.09236 0.64682 0.0
Gd560 Gd 0.71775 0.87146 0.37194 0.0
Gd561 Gd 0.7385 0.83127 0.37804 0.0
C562 C 0.7442 0.83476 0.35407 0.0
C563 C 0.70741 0.91909 0.36442 0.0
C564 C 0.68828 0.93059 0.35714 0.0
C565 C 0.68047 0.95796 0.35804 0.0
C566 C 0.67722 0.91455 0.34947 0.0
C567 C 0.65182 0.95384 0.3433 0.0
C568 C 0.65921 0.92615 0.34255 0.0
C569 C 0.66237 0.96951 0.3512 0.0
C570 C 0.67195 0.83796 0.37284 0.0
C571 C 0.70365 0.85777 0.39381 0.0
C572 C 0.75588 0.7821 0.38137 0.0
C573 C 0.7449 0.75558 0.37845 0.0
C574 C 0.75144 0.73276 0.38421 0.0
C575 C 0.72337 0.75422 0.37156 0.0
C576 C 0.71095 0.70969 0.37798 0.0
C577 C 0.7066 0.73129 0.37126 0.0
C578 C 0.73466 0.70991 0.38396 0.0
C579 C 0.76787 0.87216 0.38873 0.0
O580 O 0.7261 0.85421 0.35592 0.0
O581 O 0.75538 0.82408 0.36208 0.0
O582 O 0.69638 0.91021 0.37262 0.0
O583 O 0.72644 0.90278 0.361 0.0
O584 O 0.67324 0.86344 0.37517 0.0
O585 O 0.6963 0.82999 0.37017 0.0
O586 O 0.70605 0.83362 0.38979 0.0
O587 O 0.71197 0.87831 0.38841 0.0
O588 O 0.74005 0.79565 0.38745 0.0
O589 O 0.76559 0.79735 0.37427 0.0
O590 O 0.76017 0.84861 0.39179 0.0
O591 O 0.76041 0.87327 0.37938 0.0
H592 H 0.68867 0.97053 0.36398 0.0
H593 H 0.68273 0.89321 0.34876 0.0
H594 H 0.65129 0.91359 0.33657 0.0
H595 H 0.65746 0.99099 0.35187 0.0
H596 H 0.76789 0.7336 0.38961 0.0
H597 H 0.71801 0.77179 0.36706 0.0
H598 H 0.68882 0.73159 0.36645 0.0
H599 H 0.73868 0.69384 0.38929 0.0
Gd600 Gd 0.95274 0.97981 0.12737 0.0
Gd601 Gd 0.99363 0.99937 0.13444 0.0
C602 C 0.99356 1.00608 0.11039 0.0
C603 C 0.90703 0.97881 0.11797 0.0
C604 C 0.90198 0.97765 0.1072 0.0
C605 C 0.91888 0.96171 0.10096 0.0
C606 C 0.88301 0.99569 0.10296 0.0
C607 C 0.89863 0.98274 0.08636 0.0
C608 C 0.88137 0.99826 0.09261 0.0
C609 C 0.91706 0.96409 0.09061 0.0
C610 C 0.98591 0.93415 0.12768 0.0
C611 C 0.96214 0.96264 0.14943 0.0
C612 C 0.04154 1.00905 0.14169 0.0
C613 C 0.06763 0.99674 0.13867 0.0
C614 C 0.08973 0.99654 0.14526 0.0
C615 C 0.06914 0.98163 0.12975 0.0
C616 C 0.11325 0.96327 0.13468 0.0
C617 C 0.09183 0.96511 0.12775 0.0
C618 C 0.11243 0.97998 0.14328 0.0
C619 C 0.95055 1.03442 0.14181 0.0
O620 O 0.96963 0.9947 0.11199 0.0
O621 O 1.008 1.0105 0.11848 0.0
O622 O 0.91794 0.95705 0.122 0.0
O623 O 0.91843 1.00146 0.12096 0.0
O624 O 0.95989 0.93524 0.1295 0.0
O625 O 0.99434 0.95866 0.12548 0.0
O626 O 0.98709 0.96909 0.14683 0.0
O627 O 0.94237 0.96875 0.14318 0.0
O628 O 1.02448 0.99205 0.14573 0.0
O629 O 1.02986 1.02461 0.13507 0.0
O630 O 0.97343 0.04195 0.13778 0.0
O631 O 0.95061 1.00867 0.14069 0.0
H632 H 0.93416 0.9481 0.10407 0.0
H633 H 0.87013 1.00843 0.10766 0.0
H634 H 0.86665 1.01244 0.08948 0.0
H635 H 0.93059 0.95197 0.08593 0.0
H636 H 0.08872 1.00785 0.15222 0.0
H637 H 0.05208 0.98134 0.12461 0.0
H638 H 0.0919 0.95265 0.12105 0.0
H639 H 0.12832 0.97873 0.14888 0.0
Gd640 Gd 0.75458 0.73694 0.8822 0.0
Gd641 Gd 0.73581 0.69547 0.87629 0.0
C642 C 0.72161 0.70935 0.89818 0.0
C643 C 0.76834 0.78727 0.88492 0.0
C644 C 0.75475 0.81234 0.88155 0.0
C645 C 0.72679 0.81183 0.87929 0.0
C646 C 0.76872 0.83711 0.88134 0.0
C647 C 0.72558 0.86134 0.87868 0.0
C648 C 0.75429 0.86146 0.87979 0.0
C649 C 0.71229 0.83604 0.87794 0.0
C650 C 0.78664 0.6978 0.89277 0.0
C651 C 0.76051 0.7322 0.85824 0.0
C652 C 0.72744 0.6471 0.86909 0.0
C653 C 0.70768 0.6346 0.86233 0.0
C654 C 0.70461 0.6063 0.86244 0.0
C655 C 0.69117 0.65059 0.85607 0.0
C656 C 0.66945 0.60967 0.84968 0.0
C657 C 0.67225 0.63817 0.84973 0.0
C658 C 0.68566 0.59391 0.85616 0.0
C659 C 0.68849 0.72749 0.87741 0.0
O660 O 0.72281 0.73351 0.89417 0.0
O661 O 0.73105 0.68899 0.89283 0.0
O662 O 0.75438 0.77323 0.89137 0.0
O663 O 0.77911 0.77197 0.87796 0.0
O664 O 0.77823 0.72135 0.89577 0.0
O665 O 0.77863 0.69577 0.88351 0.0
O666 O 0.74338 0.7122 0.86019 0.0
O667 O 0.77114 0.74368 0.86621 0.0
O668 O 0.71739 0.65567 0.87753 0.0
O669 O 0.74456 0.66431 0.86517 0.0
O670 O 0.69103 0.70213 0.87976 0.0
O671 O 0.71228 0.73596 0.87448 0.0
H672 H 0.71575 0.79277 0.87926 0.0
H673 H 0.79046 0.83776 0.88287 0.0
H674 H 0.76542 0.88044 0.88007 0.0
H675 H 0.69031 0.83474 0.87719 0.0
H676 H 0.71708 0.59375 0.86731 0.0
H677 H 0.69307 0.67257 0.85604 0.0
H678 H 0.65998 0.6508 0.84483 0.0
H679 H 0.68438 0.57188 0.85615 0.0
Gd680 Gd 0.58632 0.49022 0.12741 0.0
Gd681 Gd 0.61959 0.46696 0.1225 0.0
C682 C 0.60422 0.44778 0.14329 0.0
C683 C 0.53842 0.50943 0.13219 0.0
C684 C 0.51128 0.49712 0.13231 0.0
C685 C 0.48783 0.51357 0.13181 0.0
C686 C 0.50872 0.46873 0.1326 0.0
C687 C 0.45919 0.47335 0.13311 0.0
C688 C 0.48294 0.45694 0.13305 0.0
C689 C 0.46191 0.50177 0.13217 0.0
C690 C 0.62929 0.51991 0.13703 0.0
C691 C 0.5871 0.49306 0.10402 0.0
C692 C 0.66347 0.47261 0.11229 0.0
C693 C 0.66707 0.47171 0.10141 0.0
C694 C 0.65358 0.45196 0.09564 0.0
C695 C 0.67987 0.49356 0.09664 0.0
C696 C 0.66428 0.47691 0.08052 0.0
C697 C 0.67846 0.49619 0.08628 0.0
C698 C 0.65233 0.45447 0.08527 0.0
C699 C 0.58875 0.4215 0.12215 0.0
O700 O 0.58226 0.46009 0.13996 0.0
O701 O 0.62638 0.44958 0.13779 0.0
O702 O 0.55584 0.50009 0.13869 0.0
O703 O 0.54917 0.51182 0.12337 0.0
O704 O 0.61052 0.52998 0.13128 0.0
O705 O 0.6262 0.49423 0.13627 0.0
O706 O 0.5987 0.47012 0.10676 0.0
O707 O 0.58375 0.5094 0.11163 0.0
O708 O 0.65728 0.44961 0.11672 0.0
O709 O 0.64864 0.49342 0.11537 0.0
O710 O 0.61504 0.42232 0.12372 0.0
O711 O 0.57885 0.4462 0.12062 0.0
H712 H 0.48956 0.53553 0.13134 0.0
H713 H 0.52669 0.45569 0.13277 0.0
H714 H 0.4818 0.43506 0.13393 0.0
H715 H 0.44406 0.51494 0.13206 0.0
H716 H 0.64298 0.4352 0.09915 0.0
H717 H 0.69002 0.5092 0.10096 0.0
H718 H 0.68838 0.51336 0.08277 0.0
H719 H 0.6413 0.43935 0.081 0.0
Gd720 Gd 0.83455 0.34985 0.3824 0.0
Gd721 Gd 0.85497 0.39026 0.37587 0.0
C722 C 0.86519 0.38163 0.39833 0.0
C723 C 0.81848 0.30092 0.38645 0.0
C724 C 0.82438 0.27346 0.38274 0.0
C725 C 0.81464 0.25127 0.38815 0.0
C726 C 0.84326 0.26921 0.37497 0.0
C727 C 0.8468 0.22128 0.37949 0.0
C728 C 0.85425 0.24319 0.3733 0.0
C729 C 0.82569 0.22539 0.38655 0.0
C730 C 0.80354 0.39052 0.3926 0.0
C731 C 0.82971 0.35176 0.35835 0.0
C732 C 0.86518 0.43591 0.36699 0.0
C733 C 0.88235 0.44424 0.3585 0.0
C734 C 0.91033 0.43739 0.35801 0.0
C735 C 0.87043 0.45898 0.35068 0.0
C736 C 0.91404 0.45986 0.34194 0.0
C737 C 0.88609 0.46665 0.34246 0.0
C738 C 0.9261 0.44533 0.34982 0.0
C739 C 0.90077 0.35674 0.37794 0.0
O740 O 0.86369 0.35656 0.39506 0.0
O741 O 0.8582 0.40096 0.3921 0.0
O742 O 0.83905 0.31273 0.39083 0.0
O743 O 0.80507 0.31728 0.38053 0.0
O744 O 0.81025 0.36658 0.39567 0.0
O745 O 0.81239 0.39215 0.3834 0.0
O746 O 0.84738 0.37141 0.36007 0.0
O747 O 0.81861 0.34137 0.36642 0.0
O748 O 0.87786 0.42772 0.37498 0.0
O749 O 0.84411 0.42084 0.36483 0.0
O750 O 0.89873 0.38219 0.38028 0.0
O751 O 0.87702 0.3489 0.37472 0.0
H752 H 0.8001 0.2543 0.39418 0.0
H753 H 0.85091 0.28628 0.3707 0.0
H754 H 0.87001 0.24071 0.36767 0.0
H755 H 0.81947 0.20933 0.39157 0.0
H756 H 0.92003 0.42583 0.36392 0.0
H757 H 0.84894 0.46451 0.35093 0.0
H758 H 0.8764 0.4782 0.33654 0.0
H759 H 0.94758 0.4398 0.34956 0.0
Gd760 Gd 0.98771 0.57144 0.62865 0.0
Gd761 Gd 0.94751 0.59142 0.62264 0.0
C762 C 0.96072 0.60605 0.64439 0.0
C763 C 0.03789 0.5565 0.63198 0.0
C764 C 0.06357 0.57103 0.63035 0.0
C765 C 0.08592 0.5654 0.63652 0.0
C766 C 0.06393 0.59419 0.62422 0.0
C767 C 0.10634 0.60875 0.63195 0.0
C768 C 0.08527 0.61286 0.62497 0.0
C769 C 0.10722 0.58407 0.6373 0.0
C770 C 0.94759 0.54107 0.63942 0.0
C771 C 0.98395 0.56434 0.60481 0.0
C772 C 0.90026 0.60129 0.61465 0.0
C773 C 0.88972 0.62056 0.60717 0.0
C774 C 0.89491 0.64868 0.60787 0.0
C775 C 0.87428 0.61065 0.59916 0.0
C776 C 0.86915 0.65661 0.59266 0.0
C777 C 0.86416 0.62849 0.59195 0.0
C778 C 0.88452 0.66659 0.6007 0.0
C779 C 0.98024 0.6378 0.62356 0.0
O780 O 0.98489 0.60414 0.64029 0.0
O781 O 0.94021 0.59695 0.63912 0.0
O782 O 1.02217 0.56779 0.63867 0.0
O783 O 1.02434 0.54918 0.62406 0.0
O784 O 0.97143 0.54867 0.64232 0.0
O785 O 0.94577 0.54898 0.63013 0.0
O786 O 0.96532 0.58327 0.60667 0.0
O787 O 0.99388 0.55267 0.61287 0.0
O788 O 0.90812 0.61164 0.62312 0.0
O789 O 0.91686 0.58235 0.61138 0.0
O790 O 0.95469 0.63604 0.6259 0.0
O791 O 0.9886 0.61366 0.62089 0.0
H792 H 0.08579 0.54777 0.64137 0.0
H793 H 0.04669 0.59894 0.61944 0.0
H794 H 0.08419 0.63147 0.62065 0.0
H795 H 0.12291 0.5803 0.64283 0.0
H796 H 0.90697 0.65687 0.61394 0.0
H797 H 0.87003 0.58908 0.5985 0.0
H798 H 0.85203 0.62032 0.58589 0.0
H799 H 0.88875 0.68815 0.60138 0.0
Gd800 Gd 0.7446 0.33685 0.72592 0.0
Gd801 Gd 0.72482 0.37708 0.73318 0.0
C802 C 0.70566 0.36632 0.71181 0.0
C803 C 0.75857 0.2905 0.71817 0.0
C804 C 0.75007 0.26255 0.72042 0.0
C805 C 0.76979 0.24185 0.72131 0.0
C806 C 0.72248 0.25657 0.72219 0.0
C807 C 0.73402 0.20866 0.72445 0.0
C808 C 0.71451 0.2299 0.7241 0.0
C809 C 0.76187 0.21514 0.72337 0.0
C810 C 0.77911 0.38032 0.71864 0.0
C811 C 0.75141 0.33618 0.74994 0.0
C812 C 0.71767 0.42382 0.74174 0.0
C813 C 0.70587 0.43294 0.75129 0.0
C814 C 0.68177 0.42117 0.75502 0.0
C815 C 0.71822 0.45416 0.7566 0.0
C816 C 0.6819 0.45262 0.76901 0.0
C817 C 0.7064 0.46386 0.76543 0.0
C818 C 0.66976 0.43112 0.76377 0.0
C819 C 0.6791 0.34377 0.73311 0.0
O820 O 0.70994 0.34152 0.71496 0.0
O821 O 0.71704 0.38586 0.717 0.0
O822 O 0.7402 0.30657 0.71421 0.0
O823 O 0.77242 0.30235 0.72521 0.0
O824 O 0.78691 0.35787 0.72287 0.0
O825 O 0.75324 0.38007 0.71973 0.0
O826 O 0.74295 0.36136 0.74829 0.0
O827 O 0.7529 0.32087 0.7419 0.0
O828 O 0.7004 0.41322 0.73545 0.0
O829 O 0.74087 0.41041 0.74215 0.0
O830 O 0.67987 0.36971 0.73164 0.0
O831 O 0.70397 0.33541 0.73504 0.0
H832 H 0.79128 0.24628 0.72025 0.0
H833 H 0.70692 0.27238 0.72183 0.0
H834 H 0.69285 0.22584 0.72473 0.0
H835 H 0.77748 0.19942 0.72375 0.0
H836 H 0.672 0.40453 0.7511 0.0
H837 H 0.73679 0.46344 0.75384 0.0
H838 H 0.71604 0.48059 0.76934 0.0
H839 H 0.65104 0.42197 0.76645 0.0
Gd840 Gd 0.99708 0.49885 0.97823 0.0
Gd841 Gd 0.95578 0.47943 0.98538 0.0
C842 C 0.96744 0.46078 0.96349 0.0
C843 C 0.04407 0.51075 0.9705 0.0
C844 C 0.07135 0.49948 0.97231 0.0
C845 C 0.09196 0.5032 0.96523 0.0
C846 C 0.07587 0.48208 0.98046 0.0
C847 C 0.12017 0.46915 0.97361 0.0
C848 C 0.10019 0.46712 0.98114 0.0
C849 C 0.11621 0.48819 0.96587 0.0
C850 C 0.95334 0.5331 0.97095 0.0
C851 C 0.99672 0.50582 1.00225 0.0
C852 C 0.90755 0.47936 0.99289 0.0
C853 C 0.87997 0.4797 0.99725 0.0
C854 C 0.86179 0.45834 0.99532 0.0
C855 C 0.87095 0.50242 1.00275 0.0
C856 C 0.8255 0.48298 1.004 0.0
C857 C 0.84401 0.504 1.00613 0.0
C858 C 0.83474 0.45999 0.99865 0.0
C859 C 0.98904 0.4338 0.98519 0.0
O860 O 0.99224 0.46674 0.96636 0.0
O861 O 0.94722 0.46838 0.96937 0.0
O862 O 1.02703 0.49378 0.96642 0.0
O863 O 1.03312 0.52435 0.97787 0.0
O864 O 0.97571 0.54109 0.97522 0.0
O865 O 0.95414 0.50737 0.97191 0.0
O866 O 0.97215 0.49574 1.00065 0.0
O867 O 1.01187 0.50863 0.99422 0.0
O868 O 0.91963 0.45693 0.98986 0.0
O869 O 0.92208 0.50158 0.99211 0.0
O870 O 0.96289 0.43469 0.98369 0.0
O871 O 0.99748 0.4584 0.98727 0.0
H872 H 0.08865 0.51643 0.95887 0.0
H873 H 0.06 0.47894 0.98599 0.0
H874 H 0.10268 0.45286 0.98724 0.0
H875 H 0.13083 0.49002 0.95982 0.0
H876 H 0.86824 0.44072 0.991 0.0
H877 H 0.88465 0.51911 1.00437 0.0
H878 H 0.83771 0.52167 1.01045 0.0
H879 H 0.82093 0.44353 0.99686 0.0
Gd880 Gd 0.82475 0.72424 0.22624 0.0
Gd881 Gd 0.84049 0.68335 0.23385 0.0
C882 C 0.86154 0.69044 0.21271 0.0
C883 C 0.81245 0.77384 0.2214 0.0
C884 C 0.82368 0.80023 0.22448 0.0
C885 C 0.80688 0.82342 0.22487 0.0
C886 C 0.85173 0.80272 0.22642 0.0
C887 C 0.847 0.85207 0.22708 0.0
C888 C 0.86332 0.82835 0.22762 0.0
C889 C 0.8184 0.84915 0.22628 0.0
C890 C 0.79333 0.68446 0.21591 0.0
C891 C 0.81493 0.72404 0.25043 0.0
C892 C 0.84701 0.63647 0.24242 0.0
C893 C 0.86701 0.62591 0.24958 0.0
C894 C 0.87361 0.59812 0.24949 0.0
C895 C 0.88106 0.64362 0.25599 0.0
C896 C 0.90762 0.60551 0.26243 0.0
C897 C 0.9011 0.63345 0.26243 0.0
C898 C 0.89378 0.58798 0.25586 0.0
C899 C 0.88914 0.71338 0.23318 0.0
O900 O 0.86021 0.71563 0.21588 0.0
O901 O 0.84799 0.67254 0.21789 0.0
O902 O 0.82904 0.75836 0.21624 0.0
O903 O 0.79906 0.76034 0.22817 0.0
O904 O 0.80423 0.70629 0.21244 0.0
O905 O 0.79911 0.68429 0.22544 0.0
O906 O 0.83007 0.702 0.24931 0.0
O907 O 0.80752 0.73581 0.24199 0.0
O908 O 0.85704 0.64234 0.2337 0.0
O909 O 0.82998 0.65506 0.24568 0.0
O910 O 0.88635 0.68753 0.2318 0.0
O911 O 0.86507 0.72343 0.23507 0.0
H912 H 0.78507 0.82177 0.22362 0.0
H913 H 0.86502 0.78495 0.22638 0.0
H914 H 0.88536 0.82944 0.22816 0.0
H915 H 0.80505 0.86683 0.22615 0.0
H916 H 0.86319 0.58428 0.24448 0.0
H917 H 0.8766 0.66528 0.256 0.0
H918 H 0.91153 0.6474 0.26739 0.0
H919 H 0.89808 0.56629 0.25582 0.0
Gd920 Gd 0.59691 0.58494 0.48205 0.0
Gd921 Gd 0.63559 0.60921 0.48652 0.0
C922 C 0.6164 0.6193 0.4646 0.0
C923 C 0.54956 0.56144 0.48143 0.0
C924 C 0.53071 0.55042 0.47407 0.0
C925 C 0.50553 0.54016 0.47727 0.0
C926 C 0.53586 0.55384 0.46388 0.0
C927 C 0.48854 0.54264 0.46028 0.0
C928 C 0.51492 0.5499 0.45701 0.0
C929 C 0.48454 0.53611 0.47039 0.0
C930 C 0.63693 0.5586 0.46996 0.0
C931 C 0.60432 0.58204 0.50531 0.0
C932 C 0.68285 0.62219 0.49384 0.0
C933 C 0.69229 0.64133 0.50148 0.0
C934 C 0.71947 0.65005 0.50131 0.0
C935 C 0.67424 0.65171 0.50874 0.0
C936 C 0.71103 0.67838 0.51595 0.0
C937 C 0.68359 0.67 0.51596 0.0
C938 C 0.72878 0.66846 0.50847 0.0
C939 C 0.59975 0.65273 0.48543 0.0
O940 O 0.59344 0.61141 0.46862 0.0
O941 O 0.63883 0.61637 0.46988 0.0
O942 O 0.57244 0.54822 0.4827 0.0
O943 O 0.55293 0.58775 0.48106 0.0
O944 O 0.61186 0.56435 0.46765 0.0
O945 O 0.64033 0.56699 0.47913 0.0
O946 O 0.61758 0.60427 0.50273 0.0
O947 O 0.59856 0.56642 0.49772 0.0
O948 O 0.67244 0.63337 0.48592 0.0
O949 O 0.66865 0.60147 0.49695 0.0
O950 O 0.62458 0.65189 0.48215 0.0
O951 O 0.59382 0.62879 0.48905 0.0
H952 H 0.50145 0.53725 0.48515 0.0
H953 H 0.5553 0.56172 0.46132 0.0
H954 H 0.51876 0.55537 0.4493 0.0
H955 H 0.46457 0.53015 0.4731 0.0
H956 H 0.73355 0.64241 0.49568 0.0
H957 H 0.65302 0.64553 0.50886 0.0
H958 H 0.66946 0.67741 0.52161 0.0
H959 H 0.75014 0.67419 0.50837 0.0
Gd960 Gd 0.35228 0.38299 0.23819 0.0
Gd961 Gd 0.33141 0.34523 0.23118 0.0
C962 C 0.32549 0.34349 0.25517 0.0
C963 C 0.34753 0.4265 0.24869 0.0
C964 C 0.34512 0.4289 0.25965 0.0
C965 C 0.36561 0.41854 0.26599 0.0
C966 C 0.31988 0.43688 0.26378 0.0
C967 C 0.33449 0.42136 0.28014 0.0
C968 C 0.31453 0.43291 0.2739 0.0
C969 C 0.3604 0.41508 0.27618 0.0
C970 C 0.3982 0.35096 0.23775 0.0
C971 C 0.37215 0.37324 0.2167 0.0
C972 C 0.31872 0.29871 0.22324 0.0
C973 C 0.33239 0.27216 0.22349 0.0
C974 C 0.32553 0.25226 0.21647 0.0
C975 C 0.35407 0.26749 0.23015 0.0
C976 C 0.36365 0.22404 0.22208 0.0
C977 C 0.36954 0.24354 0.22947 0.0
C978 C 0.34101 0.22837 0.21577 0.0
C979 C 0.2988 0.389 0.22324 0.0
O980 O 0.34258 0.36357 0.25366 0.0
O981 O 0.31556 0.333 0.24692 0.0
O982 O 0.37115 0.41834 0.24503 0.0
O983 O 0.32659 0.41444 0.2445 0.0
O984 O 0.3972 0.37728 0.23667 0.0
O985 O 0.3735 0.34151 0.23936 0.0
O986 O 0.36421 0.34895 0.21945 0.0
O987 O 0.36676 0.39358 0.22281 0.0
O988 O 0.33197 0.31757 0.21851 0.0
O989 O 0.30888 0.30735 0.23172 0.0
O990 O 0.28987 0.3673 0.22764 0.0
O991 O 0.3246 0.38778 0.22451 0.0
H992 H 0.38518 0.41189 0.26303 0.0
H993 H 0.30373 0.44482 0.25906 0.0
H994 H 0.29462 0.43861 0.27684 0.0
H995 H 0.37618 0.40636 0.28088 0.0
H996 H 0.30897 0.25572 0.21125 0.0
H997 H 0.35964 0.28282 0.2356 0.0
H998 H 0.3867 0.24076 0.23448 0.0
H999 H 0.3362 0.2141 0.20985 0.0
Gd1000 Gd 0.43918 0.58541 0.98324 0.0
Gd1001 Gd 0.4803 0.57024 0.97535 0.0
C1002 C 0.48062 0.56071 0.99964 0.0
C1003 C 0.39268 0.59049 0.99239 0.0
C1004 C 0.3826 0.6082 1.00049 0.0
C1005 C 0.38971 0.63591 1.00093 0.0
C1006 C 0.36614 0.59718 1.00801 0.0
C1007 C 0.36402 0.64126 1.01635 0.0
C1008 C 0.35696 0.61355 1.01589 0.0
C1009 C 0.38033 0.65235 1.00877 0.0
C1010 C 0.46929 0.63396 0.98285 0.0
C1011 C 0.44531 0.60753 0.96233 0.0
C1012 C 0.52966 0.5579 0.9698 0.0
C1013 C 0.5566 0.56745 0.97291 0.0
C1014 C 0.57926 0.56155 0.96689 0.0
C1015 C 0.55898 0.58632 0.98076 0.0
C1016 C 0.60522 0.59692 0.97536 0.0
C1017 C 0.58321 0.60087 0.98201 0.0
C1018 C 0.60341 0.57611 0.96811 0.0
C1019 C 0.44027 0.53935 0.96487 0.0
O1020 O 0.45806 0.57509 0.99859 0.0
O1021 O 0.49276 0.55385 0.99115 0.0
O1022 O 0.39833 0.60245 0.98398 0.0
O1023 O 0.41105 0.57235 0.99487 0.0
O1024 O 0.4433 0.63121 0.98158 0.0
O1025 O 0.4795 0.60992 0.98448 0.0
O1026 O 0.47074 0.60593 0.96531 0.0
O1027 O 0.42755 0.59362 0.96746 0.0
O1028 O 0.51468 0.57648 0.96551 0.0
O1029 O 0.51592 0.54357 0.97626 0.0
O1030 O 0.46193 0.55072 0.96141 0.0
O1031 O 0.44039 0.54454 0.97447 0.0
H1032 H 0.40261 0.64486 0.99525 0.0
H1033 H 0.36048 0.57588 1.0078 0.0
H1034 H 0.34412 0.60457 1.02159 0.0
H1035 H 0.38621 0.67358 1.00899 0.0
H1036 H 0.57762 0.54719 0.96076 0.0
H1037 H 0.54151 0.59115 0.98545 0.0
H1038 H 0.58403 0.61645 0.98775 0.0
H1039 H 0.61967 0.57265 0.96274 0.0
Gd1040 Gd 0.2348 0.70047 0.73691 0.0
Gd1041 Gd 0.25596 0.74041 0.73083 0.0
C1042 C 0.26048 0.73696 0.75485 0.0
C1043 C 0.22496 0.65283 0.74441 0.0
C1044 C 0.20354 0.64033 0.75065 0.0
C1045 C 0.17755 0.63429 0.74674 0.0
C1046 C 0.20954 0.63317 0.76054 0.0
C1047 C 0.16446 0.61314 0.76242 0.0
C1048 C 0.1902 0.61982 0.76637 0.0
C1049 C 0.15822 0.62074 0.75258 0.0
C1050 C 0.18918 0.73437 0.73632 0.0
C1051 C 0.21661 0.71741 0.71539 0.0
C1052 C 0.2804 0.78516 0.72609 0.0
C1053 C 0.29192 0.79422 0.71655 0.0
C1054 C 0.30321 0.77517 0.70982 0.0
C1055 C 0.286 0.82064 0.71328 0.0
C1056 C 0.29553 0.80664 0.6962 0.0
C1057 C 0.28798 0.82691 0.70316 0.0
C1058 C 0.30473 0.78126 0.69966 0.0
C1059 C 0.28178 0.69798 0.71959 0.0
O1060 O 0.243 0.71724 0.75297 0.0
O1061 O 0.27126 0.7481 0.74688 0.0
O1062 O 0.21812 0.65996 0.73541 0.0
O1063 O 0.24072 0.67067 0.7487 0.0
O1064 O 0.19027 0.70868 0.73428 0.0
O1065 O 0.21364 0.74231 0.73881 0.0
O1066 O 0.2245 0.74106 0.71878 0.0
O1067 O 0.22257 0.69574 0.72072 0.0
O1068 O 0.2928 0.76482 0.73046 0.0
O1069 O 0.25387 0.78247 0.72605 0.0
O1070 O 0.27178 0.72065 0.71638 0.0
O1071 O 0.27675 0.69793 0.72915 0.0
H1072 H 0.17227 0.63952 0.73913 0.0
H1073 H 0.22947 0.63734 0.7637 0.0
H1074 H 0.19585 0.61371 0.77386 0.0
H1075 H 0.13854 0.61587 0.74935 0.0
H1076 H 0.30867 0.75484 0.71223 0.0
H1077 H 0.27733 0.8356 0.71837 0.0
H1078 H 0.28061 0.84664 0.70069 0.0
H1079 H 0.31086 0.76542 0.69444 0.0
Gd1080 Gd 0.1263 0.46897 0.48175 0.0
Gd1081 Gd 0.08666 0.49299 0.47556 0.0
C1082 C 0.08853 0.49647 0.49966 0.0
C1083 C 0.17343 0.45912 0.4897 0.0
C1084 C 0.18341 0.44851 0.49931 0.0
C1085 C 0.17293 0.42433 0.50338 0.0
C1086 C 0.2041 0.46244 0.50439 0.0
C1087 C 0.20429 0.42785 0.51736 0.0
C1088 C 0.21438 0.45227 0.51336 0.0
C1089 C 0.18344 0.41399 0.5123 0.0
C1090 C 0.0902 0.42606 0.48089 0.0
C1091 C 0.11256 0.45673 0.45939 0.0
C1092 C 0.03973 0.51002 0.46914 0.0
C1093 C 1.01174 0.50186 0.47167 0.0
C1094 C 0.99073 0.52135 0.47215 0.0
C1095 C 1.00591 0.47452 0.47375 0.0
C1096 C 0.95747 0.48556 0.47525 0.0
C1097 C 0.97907 0.46641 0.47544 0.0
C1098 C 0.9638 0.51331 0.474 0.0
C1099 C 0.13163 0.52506 0.46813 0.0
O1100 O 0.11186 0.48386 0.49762 0.0
O1101 O 0.07371 0.50245 0.49181 0.0
O1102 O 0.16054 0.44183 0.48402 0.0
O1103 O 0.16196 0.48331 0.48985 0.0
O1104 O 0.11602 0.42552 0.47888 0.0
O1105 O 0.08344 0.45085 0.48361 0.0
O1106 O 0.08834 0.46387 0.46262 0.0
O1107 O 0.13338 0.46139 0.46534 0.0
O1108 O 0.05458 0.49186 0.46446 0.0
O1109 O 0.05308 0.52213 0.47627 0.0
O1110 O 0.10982 0.53397 0.47263 0.0
O1111 O 0.12998 0.4993 0.46899 0.0
H1112 H 0.15677 0.41328 0.49966 0.0
H1113 H 0.21246 0.48108 0.50136 0.0
H1114 H 0.23063 0.46321 0.51708 0.0
H1115 H 0.17516 0.39528 0.51528 0.0
H1116 H 0.99503 0.54267 0.47084 0.0
H1117 H 1.02198 0.45919 0.47368 0.0
H1118 H 0.97524 0.44483 0.47623 0.0
H1119 H 0.94783 0.5287 0.47402 0.0
Gd1120 Gd 0.33759 0.68513 0.36894 0.0
Gd1121 Gd 0.31968 0.72737 0.37617 0.0
C1122 C 0.31109 0.72371 0.35191 0.0
C1123 C 0.34353 0.63551 0.3625 0.0
C1124 C 0.32647 0.61215 0.35952 0.0
C1125 C 0.32555 0.60423 0.34946 0.0
C1126 C 0.31286 0.59626 0.36671 0.0
C1127 C 0.29925 0.56406 0.35386 0.0
C1128 C 0.29944 0.5724 0.3639 0.0
C1129 C 0.31199 0.58051 0.34665 0.0
C1130 C 0.38468 0.71738 0.36945 0.0
C1131 C 0.36111 0.70084 0.39002 0.0
C1132 C 0.29615 0.77276 0.38121 0.0
C1133 C 0.28463 0.78401 0.39044 0.0
C1134 C 0.27887 0.76699 0.39858 0.0
C1135 C 0.285 0.81224 0.3918 0.0
C1136 C 0.28133 0.80589 0.40974 0.0
C1137 C 0.28318 0.82318 0.4014 0.0
C1138 C 0.27726 0.77788 0.4082 0.0
C1139 C 0.29343 0.68502 0.38712 0.0
O1140 O 0.31971 0.69869 0.35366 0.0
O1141 O 0.30983 0.73969 0.35982 0.0
O1142 O 0.34389 0.65667 0.35662 0.0
O1143 O 0.34307 0.64228 0.3719 0.0
O1144 O 0.38304 0.69143 0.37075 0.0
O1145 O 0.36028 0.72633 0.36742 0.0
O1146 O 0.35284 0.72533 0.38762 0.0
O1147 O 0.35358 0.68009 0.38451 0.0
O1148 O 0.28308 0.75259 0.37705 0.0
O1149 O 0.32258 0.76877 0.38149 0.0
O1150 O 0.30544 0.70641 0.39051 0.0
O1151 O 0.29675 0.68607 0.37743 0.0
H1152 H 0.33608 0.6159 0.34379 0.0
H1153 H 0.31319 0.60177 0.37455 0.0
H1154 H 0.28972 0.56016 0.3696 0.0
H1155 H 0.31266 0.57436 0.33888 0.0
H1156 H 0.27792 0.74516 0.39763 0.0
H1157 H 0.28936 0.82565 0.38559 0.0
H1158 H 0.2865 0.84484 0.4023 0.0
H1159 H 0.27542 0.76417 0.41449 0.0
Gd1160 Gd 0.13653 0.59968 0.12534 0.0
Gd1161 Gd 0.09738 0.57683 0.13021 0.0
C1162 C 0.10284 0.57479 0.10641 0.0
C1163 C 0.18492 0.61077 0.11854 0.0
C1164 C 0.19578 0.63053 0.11142 0.0
C1165 C 0.22388 0.63566 0.11121 0.0
C1166 C 0.17827 0.64463 0.10491 0.0
C1167 C 0.2173 0.66767 0.09757 0.0
C1168 C 0.18898 0.663 0.098 0.0
C1169 C 0.23458 0.65411 0.10435 0.0
C1170 C 0.10228 0.64458 0.12587 0.0
C1171 C 0.1145 0.61505 0.14661 0.0
C1172 C 0.05298 0.54991 0.13357 0.0
C1173 C 0.04324 0.53627 0.14262 0.0
C1174 C 0.06196 0.52433 0.1493 0.0
C1175 C 1.01617 0.54057 0.14566 0.0
C1176 C 1.02858 0.52822 0.16262 0.0
C1177 C 1.00879 0.53636 0.15559 0.0
C1178 C 0.05476 0.52064 0.15929 0.0
C1179 C 0.1385 0.55174 0.14234 0.0
O1180 O 0.12069 0.59374 0.10888 0.0
O1181 O 0.09262 0.56179 0.11405 0.0
O1182 O 0.17491 0.62113 0.12672 0.0
O1183 O 0.16952 0.59166 0.11485 0.0
O1184 O 0.12763 0.64345 0.12849 0.0
O1185 O 0.09469 0.62028 0.12295 0.0
O1186 O 0.092 0.60737 0.14229 0.0
O1187 O 0.13764 0.60993 0.1419 0.0
O1188 O 0.07441 0.53924 0.12921 0.0
O1189 O 0.05454 0.57637 0.13435 0.0
O1190 O 0.11453 0.56014 0.14497 0.0
O1191 O 0.14049 0.5578 0.13289 0.0
H1192 H 0.23759 0.62506 0.11625 0.0
H1193 H 0.15642 0.64115 0.1051 0.0
H1194 H 0.17519 0.67325 0.0929 0.0
H1195 H 0.25652 0.65693 0.10409 0.0
H1196 H 0.08279 0.52003 0.14703 0.0
H1197 H 1.00144 0.54967 0.14061 0.0
H1198 H 0.98846 0.54253 0.15795 0.0
H1199 H 0.07026 0.51412 0.16456 0.0
Gd1200 Gd 0.2219 0.37008 0.87172 0.0
Gd1201 Gd 0.24475 0.33049 0.87805 0.0
C1202 C 0.24996 0.3316 0.85408 0.0
C1203 C 0.21217 0.41677 0.8636 0.0
C1204 C 0.1997 0.42522 0.85412 0.0
C1205 C 0.17738 0.41094 0.85013 0.0
C1206 C 0.20988 0.44792 0.84906 0.0
C1207 C 0.17496 0.44266 0.8363 0.0
C1208 C 0.19767 0.45653 0.84018 0.0
C1209 C 0.16495 0.41976 0.84133 0.0
C1210 C 0.17767 0.33547 0.8724 0.0
C1211 C 0.20836 0.35626 0.8938 0.0
C1212 C 0.25986 0.28389 0.88526 0.0
C1213 C 0.2476 0.25676 0.88455 0.0
C1214 C 0.26426 0.23347 0.88412 0.0
C1215 C 0.21909 0.25401 0.8842 0.0
C1216 C 0.22388 0.20464 0.88441 0.0
C1217 C 0.20735 0.22825 0.88421 0.0
C1218 C 0.25251 0.20758 0.88398 0.0
C1219 C 0.27813 0.37478 0.88527 0.0
O1220 O 0.23766 0.35513 0.856 0.0
O1221 O 0.25528 0.31688 0.86199 0.0
O1222 O 0.19566 0.40515 0.86992 0.0
O1223 O 0.23603 0.4046 0.863 0.0
O1224 O 0.17786 0.36122 0.87434 0.0
O1225 O 0.20247 0.32789 0.86989 0.0
O1226 O 0.21288 0.3321 0.89007 0.0
O1227 O 0.21593 0.37701 0.88828 0.0
O1228 O 0.24598 0.30196 0.89035 0.0
O1229 O 0.26944 0.29363 0.87694 0.0
O1230 O 0.2865 0.35266 0.88087 0.0
O1231 O 0.25224 0.37372 0.88447 0.0
H1232 H 0.16938 0.39312 0.85386 0.0
H1233 H 0.2271 0.45912 0.85202 0.0
H1234 H 0.20562 0.47439 0.83646 0.0
H1235 H 0.14764 0.4086 0.83842 0.0
H1236 H 0.28634 0.2353 0.88414 0.0
H1237 H 0.20583 0.27179 0.88428 0.0
H1238 H 0.18529 0.22703 0.88467 0.0
H1239 H 0.26587 0.1899 0.88392 0.0
Gd1240 Gd 0.45563 0.48317 0.62573 0.0
Gd1241 Gd 0.49606 0.50339 0.63211 0.0
C1242 C 0.49314 0.5089 0.60807 0.0
C1243 C 0.40693 0.47543 0.61859 0.0
C1244 C 0.39308 0.45583 0.61213 0.0
C1245 C 0.36453 0.4545 0.61242 0.0
C1246 C 0.40785 0.43851 0.6057 0.0
C1247 C 0.36522 0.41984 0.5994 0.0
C1248 C 0.39399 0.42068 0.59934 0.0
C1249 C 0.35069 0.43667 0.60611 0.0
C1250 C 0.48899 0.43715 0.62595 0.0
C1251 C 0.47312 0.46323 0.647 0.0
C1252 C 0.54042 0.52821 0.63722 0.0
C1253 C 0.5482 0.5405 0.6468 0.0
C1254 C 0.52811 0.55225 0.65303 0.0
C1255 C 0.57396 0.53433 0.65074 0.0
C1256 C 0.55652 0.54317 0.66745 0.0
C1257 C 0.57821 0.53588 0.66101 0.0
C1258 C 0.53215 0.55334 0.66334 0.0
C1259 C 0.45336 0.52891 0.64339 0.0
O1260 O 0.47223 0.49264 0.60974 0.0
O1261 O 0.50518 0.51809 0.61613 0.0
O1262 O 0.41504 0.46617 0.62718 0.0
O1263 O 0.42501 0.49107 0.61438 0.0
O1264 O 0.46307 0.43844 0.62772 0.0
O1265 O 0.4975 0.46161 0.62381 0.0
O1266 O 0.49693 0.47053 0.64353 0.0
O1267 O 0.45134 0.47052 0.6419 0.0
O1268 O 0.52055 0.54011 0.63238 0.0
O1269 O 0.53776 0.50177 0.63749 0.0
O1270 O 0.47586 0.51844 0.64663 0.0
O1271 O 0.45363 0.52449 0.6338 0.0
H1272 H 0.3529 0.46767 0.61739 0.0
H1273 H 0.42999 0.43912 0.6055 0.0
H1274 H 0.4057 0.40786 0.59429 0.0
H1275 H 0.32854 0.4369 0.60622 0.0
H1276 H 0.50829 0.558 0.6501 0.0
H1277 H 0.58976 0.52543 0.64604 0.0
H1278 H 0.59726 0.5279 0.66395 0.0
H1279 H 0.51527 0.55938 0.66813 0.0
C1280 C 0.22102 0.4179 0.38321 0.0
C1281 C 0.21331 0.39054 0.38225 0.0
C1282 C 0.20254 0.4371 0.38707 0.0
C1283 C 0.17772 0.45749 0.4059 0.0
H1284 H 0.1024 0.43868 0.41154 0.0
C1285 C 0.14345 0.44296 0.44555 0.0
C1286 C 0.11749 0.45172 0.4487 0.0
C1287 C 0.15038 0.44335 0.43547 0.0
C1288 C 0.12326 0.44469 0.41001 0.0
H1289 H 0.17922 0.36262 0.38313 0.0
H1290 H 0.14784 0.39508 0.39023 0.0
H1291 H 0.121 0.43087 0.39487 0.0
H1292 H 0.0779 0.46662 0.44375 0.0
H1293 H 0.09012 0.46724 0.42601 0.0
H1294 H 0.17993 0.47133 0.42099 0.0
C1295 C 0.16766 0.40248 0.38793 0.0
C1296 C 0.13407 0.43999 0.40046 0.0
C1297 C 0.18586 0.38355 0.38385 0.0
C1298 C 0.09804 0.45956 0.44151 0.0
C1299 C 0.10507 0.46011 0.43137 0.0
C1300 C 0.16677 0.4627 0.41532 0.0
C1301 C 0.17649 0.4289 0.39041 0.0
C1302 C 0.16211 0.44415 0.39855 0.0
C1303 C 0.13161 0.45277 0.4283 0.0
C1304 C 0.14015 0.45436 0.41769 0.0
H1305 H 0.24194 0.42393 0.38177 0.0
H1306 H 0.20967 0.45764 0.38837 0.0
H1307 H 0.19926 0.46146 0.40484 0.0
H1308 H 0.15877 0.43667 0.45092 0.0
H1309 H 0.17069 0.43659 0.43331 0.0
C1310 C 0.99856 1.03389 0.67882 0.0
C1311 C 1.02333 1.02836 0.67392 0.0
C1312 C 0.99221 1.02034 0.68765 0.0
C1313 C 1.00359 0.95148 0.69477 0.0
H1314 H 0.94543 0.96935 0.7134 0.0
C1315 C 0.92276 0.87616 0.71196 0.0
C1316 C 0.89614 0.8867 0.71087 0.0
C1317 C 0.94531 0.89211 0.70935 0.0
C1318 C 0.96194 0.96404 0.70833 0.0
H1319 H 0.06274 1.00811 0.67514 0.0
H1320 H 0.05161 0.98443 0.69058 0.0
H1321 H 0.97617 1.00512 0.70773 0.0
H1322 H 0.87184 0.92023 0.70517 0.0
H1323 H 0.911 0.9476 0.70034 0.0
H1324 H 0.98802 0.91072 0.69489 0.0
C1325 C 1.03697 0.99888 0.68757 0.0
C1326 C 0.97958 0.98444 0.70514 0.0
C1327 C 0.04339 1.01262 0.67877 0.0
C1328 C 0.89222 0.91178 0.7061 0.0
C1329 C 0.91457 0.92759 0.70351 0.0
C1330 C 0.98598 0.93103 0.69801 0.0
C1331 C 1.01052 1.00094 0.69161 0.0
C1332 C 0.99942 0.97871 0.69783 0.0
C1333 C 0.9412 0.91854 0.70563 0.0
C1334 C 0.96404 0.93761 0.70432 0.0
H1335 H 0.98292 0.04618 0.67525 0.0
H1336 H 0.97165 1.02251 0.69059 0.0
H1337 H 1.01858 0.94638 0.68909 0.0
H1338 H 0.92621 0.8569 0.7157 0.0
H1339 H 0.96576 0.88463 0.71089 0.0
C1340 C 0.30694 0.78717 0.93055 0.0
C1341 C 0.28839 0.76882 0.92623 0.0
C1342 C 0.32312 0.779 0.93859 0.0
C1343 C 0.33957 0.71915 0.95472 0.0
H1344 H 0.41059 0.72419 0.94182 0.0
C1345 C 0.40869 0.62811 0.95226 0.0
C1346 C 0.43486 0.63043 0.95641 0.0
C1347 C 0.39324 0.65134 0.95028 0.0
C1348 C 0.3911 0.72303 0.94566 0.0
H1349 H 0.2686 0.72986 0.9279 0.0
H1350 H 0.29643 0.71557 0.94194 0.0
H1351 H 0.37486 0.75725 0.9378 0.0
H1352 H 0.46684 0.6586 0.96062 0.0
H1353 H 0.43973 0.69962 0.95689 0.0
H1354 H 0.35529 0.68351 0.96192 0.0
C1355 C 0.29894 0.7361 0.93916 0.0
C1356 C 0.37064 0.74206 0.94344 0.0
C1357 C 0.28292 0.7442 0.93108 0.0
C1358 C 0.44669 0.65633 0.95738 0.0
C1359 C 0.43113 0.67974 0.95538 0.0
C1360 C 0.35993 0.70007 0.95687 0.0
C1361 C 0.32074 0.75249 0.94241 0.0
C1362 C 0.34417 0.73929 0.9475 0.0
C1363 C 0.40378 0.67724 0.95236 0.0
C1364 C 0.38527 0.70102 0.95192 0.0
H1365 H 0.31153 0.80635 0.92694 0.0
H1366 H 0.33941 0.79223 0.94108 0.0
H1367 H 0.31954 0.71678 0.95807 0.0
H1368 H 0.39922 0.60834 0.95141 0.0
H1369 H 0.37243 0.64902 0.94766 0.0
C1370 C 0.70483 0.22472 0.19863 0.0
C1371 C 0.71287 0.20406 0.20527 0.0
C1372 C 0.6993 0.21851 0.18862 0.0
C1373 C 0.71118 0.16484 0.1695 0.0
H1374 H 0.64203 0.18919 0.15847 0.0
C1375 C 0.64444 0.10065 0.14434 0.0
C1376 C 0.62726 0.113 0.13724 0.0
C1377 C 0.6622 0.11633 0.15006 0.0
C1378 C 0.66179 0.18278 0.16129 0.0
H1379 H 0.72128 0.16076 0.2067 0.0
H1380 H 0.71129 0.14995 0.1894 0.0
H1381 H 0.65833 0.20892 0.17405 0.0
H1382 H 0.61762 0.15116 0.12981 0.0
H1383 H 0.64815 0.17869 0.14009 0.0
H1384 H 0.71375 0.13745 0.15705 0.0
C1385 C 0.70973 0.171 0.19182 0.0
C1386 C 0.67109 0.19405 0.17024 0.0
C1387 C 0.7151 0.17715 0.20177 0.0
C1388 C 0.63004 0.14109 0.1354 0.0
C1389 C 0.6476 0.15686 0.14123 0.0
C1390 C 0.70186 0.15353 0.16057 0.0
C1391 C 0.70195 0.19158 0.18511 0.0
C1392 C 0.69523 0.18425 0.17466 0.0
C1393 C 0.66304 0.14474 0.14887 0.0
C1394 C 0.67647 0.16152 0.15662 0.0
H1395 H 0.70312 0.24568 0.20112 0.0
H1396 H 0.69327 0.23476 0.18361 0.0
H1397 H 0.73022 0.15739 0.17262 0.0
H1398 H 0.64274 0.0792 0.14608 0.0
H1399 H 0.67361 0.10642 0.15597 0.0
C1400 C 0.19686 0.66254 0.2215 0.0
C1401 C 0.1931 0.68908 0.22522 0.0
C1402 C 0.17507 0.64884 0.21708 0.0
C1403 C 0.12787 0.62744 0.20483 0.0
H1404 H 0.11228 0.68629 0.18634 0.0
C1405 C 0.09206 0.6156 0.1633 0.0
C1406 C 0.1138 0.6238 0.1571 0.0
C1407 C 0.09221 0.62182 0.17347 0.0
C1408 C 0.11584 0.66973 0.19152 0.0
H1409 H 0.16251 0.71971 0.22911 0.0
H1410 H 0.12461 0.69555 0.22162 0.0
H1411 H 0.12659 0.69691 0.20324 0.0
H1412 H 0.15229 0.64524 0.15653 0.0
H1413 H 0.15206 0.65705 0.17434 0.0
H1414 H 0.11884 0.60041 0.19265 0.0
C1415 C 0.14448 0.68564 0.22183 0.0
C1416 C 0.12377 0.6757 0.20125 0.0
C1417 C 0.1663 0.69944 0.22617 0.0
C1418 C 0.13532 0.63884 0.16116 0.0
C1419 C 0.13514 0.64559 0.17129 0.0
C1420 C 0.1195 0.62147 0.19508 0.0
C1421 C 0.14927 0.66155 0.2164 0.0
C1422 C 0.13147 0.65466 0.20783 0.0
C1423 C 0.11374 0.63685 0.17751 0.0
C1424 C 0.11495 0.64267 0.18826 0.0
H1425 H 0.21718 0.6537 0.22095 0.0
H1426 H 0.17942 0.6301 0.21308 0.0
H1427 H 0.13357 0.61086 0.20974 0.0
H1428 H 0.07537 0.60361 0.16036 0.0
H1429 H 0.07565 0.61487 0.17818 0.0
C1430 C 0.70499 0.886 0.40923 0.0
C1431 C 0.69944 0.86089 0.40465 0.0
C1432 C 0.70479 0.88843 0.41959 0.0
C1433 C 0.67353 0.86076 0.4417 0.0
H1434 H 0.72367 0.91098 0.4544 0.0
C1435 C 0.63611 0.9184 0.47492 0.0
C1436 C 0.63428 0.94567 0.47172 0.0
C1437 C 0.65504 0.90054 0.47053 0.0
C1438 C 0.70986 0.89639 0.45107 0.0
H1439 H 0.68899 0.81864 0.40732 0.0
H1440 H 0.68778 0.82318 0.42556 0.0
H1441 H 0.7345 0.89243 0.43791 0.0
H1442 H 0.654 0.9764 0.46258 0.0
H1443 H 0.68699 0.9458 0.45523 0.0
H1444 H 0.64776 0.86644 0.45441 0.0
C1445 C 0.69265 0.84083 0.42107 0.0
C1446 C 0.71594 0.88594 0.44161 0.0
C1447 C 0.69311 0.83832 0.41065 0.0
C1448 C 0.65456 0.95561 0.46525 0.0
C1449 C 0.67369 0.9379 0.461 0.0
C1450 C 0.66744 0.87122 0.45115 0.0
C1451 C 0.69885 0.86586 0.42562 0.0
C1452 C 0.6969 0.86958 0.43658 0.0
C1453 C 0.67274 0.90984 0.46302 0.0
C1454 C 0.68459 0.89071 0.45559 0.0
H1455 H 0.71015 0.90373 0.40482 0.0
H1456 H 0.7089 0.90818 0.42287 0.0
H1457 H 0.65855 0.84807 0.43802 0.0
H1458 H 0.62146 0.91029 0.48019 0.0
H1459 H 0.65424 0.87908 0.47237 0.0
C1460 C 0.49335 0.45063 0.6635 0.0
C1461 C 0.47071 0.45125 0.65702 0.0
C1462 C 0.49033 0.44163 0.67333 0.0
C1463 C 0.46082 0.39708 0.68948 0.0
H1464 H 0.43093 0.44998 0.70823 0.0
C1465 C 0.37043 0.39332 0.7175 0.0
C1466 C 0.37539 0.3672 0.72137 0.0
C1467 C 0.39173 0.40812 0.71325 0.0
C1468 C 0.4398 0.43506 0.70318 0.0
H1469 H 0.42753 0.44225 0.65559 0.0
H1470 H 0.42241 0.42637 0.67278 0.0
H1471 H 0.45066 0.4654 0.69238 0.0
H1472 H 0.40718 0.33786 0.72517 0.0
H1473 H 0.44427 0.36395 0.71793 0.0
H1474 H 0.44797 0.3665 0.69969 0.0
C1475 C 0.44231 0.43305 0.67023 0.0
C1476 C 0.45112 0.44388 0.69417 0.0
C1477 C 0.44526 0.44206 0.66043 0.0
C1478 C 0.40258 0.35789 0.72221 0.0
C1479 C 0.42388 0.37273 0.71799 0.0
C1480 C 0.44961 0.38824 0.69847 0.0
C1481 C 0.4647 0.43318 0.67674 0.0
C1482 C 0.46053 0.42481 0.68712 0.0
C1483 C 0.41831 0.39701 0.71283 0.0
C1484 C 0.43767 0.40705 0.70518 0.0
H1485 H 0.5132 0.45775 0.66108 0.0
H1486 H 0.5078 0.44154 0.67829 0.0
H1487 H 0.46776 0.38214 0.68404 0.0
H1488 H 0.34975 0.40123 0.71695 0.0
H1489 H 0.38671 0.42682 0.70937 0.0
C1490 C 0.93259 0.13233 0.97218 0.0
C1491 C 0.95983 0.13798 0.97476 0.0
C1492 C 0.91854 0.14924 0.96553 0.0
C1493 C 0.89321 0.18986 0.9507 0.0
H1494 H 0.94249 0.19129 0.92792 0.0
C1495 C 0.86871 0.22532 0.90961 0.0
C1496 C 0.86956 0.2026 0.90318 0.0
C1497 C 0.87848 0.22325 0.91938 0.0
C1498 C 0.92867 0.19143 0.93426 0.0
H1499 H 0.99227 0.16782 0.97348 0.0
H1500 H 0.96759 0.19733 0.96205 0.0
H1501 H 0.96038 0.18051 0.94443 0.0
H1502 H 0.88151 0.16015 0.90181 0.0
H1503 H 0.89958 0.15688 0.91882 0.0
H1504 H 0.86135 0.19985 0.94026 0.0
C1505 C 0.9573 0.17962 0.96502 0.0
C1506 C 0.93885 0.18551 0.94372 0.0
C1507 C 0.97134 0.16276 0.97166 0.0
C1508 C 0.88064 0.17792 0.90662 0.0
C1509 C 0.89093 0.17605 0.91631 0.0
C1510 C 0.88307 0.19626 0.94121 0.0
C1511 C 0.93154 0.17202 0.96139 0.0
C1512 C 0.92113 0.18389 0.95198 0.0
C1513 C 0.88974 0.19864 0.92275 0.0
C1514 C 0.90068 0.19625 0.93292 0.0
H1515 H 0.92301 0.11364 0.97461 0.0
H1516 H 0.89862 0.14294 0.96289 0.0
H1517 H 0.87915 0.18862 0.95694 0.0
H1518 H 0.86006 0.24453 0.90714 0.0
H1519 H 0.87751 0.24087 0.92427 0.0
C1520 C 0.90851 0.69914 0.72474 0.0
C1521 C 0.8803 0.69373 0.72511 0.0
C1522 C 0.92612 0.68203 0.71936 0.0
C1523 C 0.94594 0.66537 0.69913 0.0
H1524 H 0.93103 0.5915 0.69053 0.0
C1525 C 0.93316 0.6068 0.66005 0.0
C1526 C 0.95748 0.61325 0.65502 0.0
C1527 C 0.93061 0.61165 0.67028 0.0
C1528 C 0.93558 0.6121 0.69291 0.0
H1529 H 0.84951 0.66347 0.72178 0.0
H1530 H 0.87965 0.6346 0.71196 0.0
H1531 H 0.9164 0.60652 0.70713 0.0
H1532 H 0.99825 0.62972 0.65671 0.0
H1533 H 0.99346 0.63895 0.67462 0.0
H1534 H 0.96422 0.6712 0.68479 0.0
C1535 C 0.88844 0.65194 0.71576 0.0
C1536 C 0.92721 0.62072 0.7024 0.0
C1537 C 0.87095 0.66875 0.72131 0.0
C1538 C 0.9792 0.62475 0.6604 0.0
C1539 C 0.97652 0.6299 0.67063 0.0
C1540 C 0.95455 0.65665 0.68971 0.0
C1541 C 0.91577 0.65953 0.71409 0.0
C1542 C 0.93111 0.64788 0.70544 0.0
C1543 C 0.95223 0.62328 0.67567 0.0
C1544 C 0.94833 0.63036 0.68634 0.0
H1545 H 0.91668 0.71799 0.72766 0.0
H1546 H 0.94733 0.68789 0.71856 0.0
H1547 H 0.94906 0.68654 0.70108 0.0
H1548 H 0.91619 0.59763 0.65612 0.0
H1549 H 0.91147 0.60681 0.67393 0.0
C1550 C 0.13585 0.13645 0.46934 0.0
C1551 C 0.1107 0.14443 0.47354 0.0
C1552 C 0.15386 0.15591 0.46569 0.0
C1553 C 0.14566 0.21891 0.45267 0.0
H1554 H 0.22242 0.20523 0.4472 0.0
C1555 C 0.19883 0.24921 0.41552 0.0
C1556 C 0.20924 0.22561 0.41085 0.0
C1557 C 0.19109 0.24862 0.4256 0.0
C1558 C 0.20111 0.20976 0.44877 0.0
H1559 H 0.08665 0.17926 0.47857 0.0
H1560 H 0.11786 0.21329 0.47186 0.0
H1561 H 0.20209 0.18812 0.46261 0.0
H1562 H 0.22 0.18309 0.41301 0.0
H1563 H 0.20683 0.18217 0.43053 0.0
H1564 H 0.1443 0.23881 0.43846 0.0
C1565 C 0.12342 0.19193 0.4713 0.0
C1566 C 0.1895 0.2 0.45758 0.0
C1567 C 0.10549 0.17241 0.47508 0.0
C1568 C 0.21195 0.20155 0.4164 0.0
C1569 C 0.20477 0.20112 0.42646 0.0
C1570 C 0.15735 0.22884 0.44389 0.0
C1571 C 0.14704 0.18378 0.46608 0.0
C1572 C 0.16124 0.20275 0.45925 0.0
C1573 C 0.19431 0.22461 0.43116 0.0
C1574 C 0.18469 0.22268 0.44159 0.0
H1575 H 0.1406 0.11517 0.46799 0.0
H1576 H 0.17177 0.14883 0.46164 0.0
H1577 H 0.12381 0.22137 0.45371 0.0
H1578 H 0.19659 0.26804 0.41139 0.0
H1579 H 0.18274 0.26686 0.42905 0.0
C1580 C 0.62651 0.419 0.15632 0.0
C1581 C 0.60467 0.43574 0.15334 0.0
C1582 C 0.6283 0.41004 0.16618 0.0
C1583 C 0.61297 0.43171 0.19119 0.0
H1584 H 0.63341 0.35762 0.19799 0.0
C1585 C 0.68844 0.40001 0.22137 0.0
C1586 C 0.68664 0.37358 0.22531 0.0
C1587 C 0.66793 0.40999 0.21509 0.0
C1588 C 0.62705 0.37829 0.19631 0.0
H1589 H 0.5672 0.45574 0.15823 0.0
H1590 H 0.57083 0.44057 0.17557 0.0
H1591 H 0.61819 0.36797 0.18111 0.0
H1592 H 0.6599 0.33868 0.22704 0.0
H1593 H 0.6241 0.35637 0.21628 0.0
H1594 H 0.62364 0.44234 0.20624 0.0
C1595 C 0.58631 0.43421 0.17024 0.0
C1596 C 0.61863 0.3842 0.18661 0.0
C1597 C 0.58423 0.44275 0.16032 0.0
C1598 C 0.66211 0.35909 0.2241 0.0
C1599 C 0.64161 0.3691 0.21785 0.0
C1600 C 0.62177 0.42586 0.20089 0.0
C1601 C 0.60852 0.41805 0.17326 0.0
C1602 C 0.61241 0.41107 0.18389 0.0
C1603 C 0.64531 0.39369 0.21271 0.0
C1604 C 0.62974 0.39922 0.20344 0.0
H1605 H 0.64251 0.41333 0.15108 0.0
H1606 H 0.64577 0.39777 0.16838 0.0
H1607 H 0.60833 0.45263 0.18923 0.0
H1608 H 0.70685 0.41187 0.22234 0.0
H1609 H 0.6713 0.42913 0.21129 0.0
C1610 C 0.36403 0.88393 0.91545 0.0
C1611 C 0.37049 0.86001 0.91016 0.0
C1612 C 0.36416 0.88408 0.92585 0.0
C1613 C 0.35424 0.87557 0.94796 0.0
H1614 H 0.42705 0.86291 0.95831 0.0
C1615 C 0.40798 0.95104 0.97088 0.0
C1616 C 0.43384 0.94455 0.97477 0.0
C1617 C 0.39065 0.93039 0.96765 0.0
C1618 C 0.40617 0.86572 0.95582 0.0
H1619 H 0.38209 0.81744 0.91159 0.0
H1620 H 0.38352 0.81813 0.9299 0.0
H1621 H 0.41499 0.84494 0.94213 0.0
H1622 H 0.45933 0.91137 0.98024 0.0
H1623 H 0.42852 0.87554 0.97508 0.0
H1624 H 0.34587 0.8977 0.96142 0.0
C1625 C 0.37788 0.83653 0.92593 0.0
C1626 C 0.39936 0.85543 0.94645 0.0
C1627 C 0.37736 0.83627 0.91549 0.0
C1628 C 0.43978 0.91719 0.97709 0.0
C1629 C 0.42218 0.89652 0.97402 0.0
C1630 C 0.3609 0.88553 0.95743 0.0
C1631 C 0.37104 0.86042 0.93119 0.0
C1632 C 0.37413 0.86215 0.94214 0.0
C1633 C 0.39878 0.90286 0.96837 0.0
C1634 C 0.38776 0.8828 0.96107 0.0
H1635 H 0.35822 0.90241 0.91156 0.0
H1636 H 0.35945 0.90295 0.92973 0.0
H1637 H 0.33436 0.88039 0.94485 0.0
H1638 H 0.40238 0.97201 0.96935 0.0
H1639 H 0.37261 0.93635 0.9635 0.0
C1640 C 0.89798 0.37467 0.88311 0.0
C1641 C 0.86997 0.37257 0.88547 0.0
C1642 C 0.91487 0.39211 0.88856 0.0
C1643 C 0.94287 0.40542 0.90831 0.0
H1644 H 0.91863 0.47293 0.92067 0.0
C1645 C 0.93499 0.45233 0.94959 0.0
C1646 C 0.96196 0.45199 0.95315 0.0
C1647 C 0.92966 0.44768 0.93952 0.0
C1648 C 0.92587 0.45423 0.91721 0.0
H1649 H 0.83745 0.38948 0.89474 0.0
H1650 H 0.86647 0.42011 0.90392 0.0
H1651 H 0.89873 0.45866 0.9048 0.0
H1652 H 1.00449 0.44562 0.94904 0.0
H1653 H 0.9949 0.4366 0.93135 0.0
H1654 H 0.96877 0.4002 0.92106 0.0
C1655 C 0.87553 0.40822 0.89792 0.0
C1656 C 0.91458 0.44613 0.90813 0.0
C1657 C 0.85877 0.39057 0.8926 0.0
C1658 C 0.98347 0.44593 0.9465 0.0
C1659 C 0.97805 0.44093 0.93639 0.0
C1660 C 0.95425 0.41358 0.91739 0.0
C1661 C 0.90393 0.40815 0.89631 0.0
C1662 C 0.92183 0.4209 0.90389 0.0
C1663 C 0.95112 0.44235 0.9328 0.0
C1664 C 0.94468 0.43729 0.92217 0.0
H1665 H 0.90718 0.36166 0.87747 0.0
H1666 H 0.93666 0.39195 0.88708 0.0
H1667 H 0.94878 0.38578 0.90524 0.0
H1668 H 0.91796 0.45693 0.95451 0.0
H1669 H 0.90862 0.44819 0.937 0.0
C1670 C 0.43111 0.12598 0.63649 0.0
C1671 C 0.45749 0.13366 0.63353 0.0
C1672 C 0.41287 0.14543 0.64024 0.0
C1673 C 0.37992 0.18712 0.65126 0.0
H1674 H 0.42889 0.22263 0.6699 0.0
C1675 C 0.37979 0.23071 0.69434 0.0
C1676 C 0.37047 0.20686 0.699 0.0
C1677 C 0.3853 0.23087 0.6841 0.0
C1678 C 0.41477 0.21347 0.66466 0.0
H1679 H 0.48349 0.16828 0.6303 0.0
H1680 H 0.45122 0.20224 0.63642 0.0
H1681 H 0.44593 0.20842 0.65372 0.0
H1682 H 0.35961 0.16456 0.69668 0.0
H1683 H 0.36918 0.16487 0.67879 0.0
H1684 H 0.34964 0.18979 0.66283 0.0
C1685 C 0.44503 0.18109 0.6363 0.0
C1686 C 0.42444 0.20544 0.6553 0.0
C1687 C 0.46347 0.16156 0.63269 0.0
C1688 C 0.36689 0.18317 0.69329 0.0
C1689 C 0.37195 0.18347 0.68304 0.0
C1690 C 0.3704 0.19478 0.66071 0.0
C1691 C 0.42067 0.17294 0.64098 0.0
C1692 C 0.40765 0.19046 0.64875 0.0
C1693 C 0.38104 0.20734 0.67836 0.0
C1694 C 0.38827 0.20653 0.66766 0.0
H1695 H 0.42563 0.10466 0.63691 0.0
H1696 H 0.39417 0.13821 0.64363 0.0
H1697 H 0.36622 0.17641 0.64629 0.0
H1698 H 0.38264 0.24928 0.69859 0.0
H1699 H 0.39263 0.24938 0.68065 0.0
C1700 C 0.69384 0.66492 0.38443 0.0
C1701 C 0.68822 0.69112 0.38069 0.0
C1702 C 0.67525 0.65225 0.39082 0.0
C1703 C 0.6332 0.63146 0.40593 0.0
H1704 H 0.62357 0.68991 0.42525 0.0
C1705 C 0.59709 0.61851 0.44737 0.0
C1706 C 0.61742 0.62736 0.45404 0.0
C1707 C 0.59898 0.62452 0.4372 0.0
C1708 C 0.62572 0.67347 0.41988 0.0
H1709 H 0.65645 0.7221 0.37922 0.0
H1710 H 0.62402 0.69962 0.39006 0.0
H1711 H 0.63565 0.70076 0.4081 0.0
H1712 H 0.65526 0.64971 0.45541 0.0
H1713 H 0.65802 0.66111 0.43764 0.0
H1714 H 0.62442 0.60421 0.41803 0.0
C1715 C 0.64313 0.68931 0.38833 0.0
C1716 C 0.63233 0.67961 0.41003 0.0
C1717 C 0.66176 0.70208 0.38202 0.0
C1718 C 0.63933 0.64274 0.45042 0.0
C1719 C 0.64087 0.64927 0.4403 0.0
C1720 C 0.62613 0.62534 0.4158 0.0
C1721 C 0.65069 0.66552 0.39346 0.0
C1722 C 0.63711 0.65866 0.40302 0.0
C1723 C 0.62085 0.64 0.43361 0.0
C1724 C 0.62336 0.64631 0.4229 0.0
H1725 H 0.71373 0.65556 0.3833 0.0
H1726 H 0.68155 0.63371 0.39456 0.0
H1727 H 0.63682 0.61496 0.40069 0.0
H1728 H 0.58011 0.60634 0.44998 0.0
H1729 H 0.58336 0.61721 0.43215 0.0
C1730 C 0.20432 0.87302 0.19199 0.0
C1731 C 0.20108 0.8484 0.19713 0.0
C1732 C 0.20165 0.87382 0.18164 0.0
C1733 C 0.16431 0.84807 0.16165 0.0
H1734 H 0.21874 0.88558 0.14579 0.0
C1735 C 0.12512 0.91422 0.13181 0.0
C1736 C 0.1337 0.94087 0.13403 0.0
C1737 C 0.14111 0.89188 0.13465 0.0
C1738 C 0.20339 0.87475 0.15002 0.0
H1739 H 0.19183 0.80543 0.19558 0.0
H1740 H 0.18551 0.8073 0.17737 0.0
H1741 H 0.23117 0.86702 0.16207 0.0
H1742 H 0.16779 0.9651 0.13914 0.0
H1743 H 0.19494 0.92662 0.14453 0.0
H1744 H 0.13559 0.85852 0.15039 0.0
C1745 C 0.19098 0.82565 0.1814 0.0
C1746 C 0.21059 0.86403 0.15931 0.0
C1747 C 0.19431 0.8247 0.19177 0.0
C1748 C 0.16028 0.94477 0.13765 0.0
C1749 C 0.17606 0.92249 0.14062 0.0
C1750 C 0.15695 0.85925 0.15246 0.0
C1751 C 0.19519 0.85014 0.17627 0.0
C1752 C 0.1906 0.85226 0.16543 0.0
C1753 C 0.16558 0.89587 0.13993 0.0
C1754 C 0.17592 0.87465 0.14692 0.0
H1755 H 0.20977 0.89154 0.19591 0.0
H1756 H 0.20433 0.89308 0.17783 0.0
H1757 H 0.14862 0.83895 0.16626 0.0
H1758 H 0.10485 0.91042 0.12889 0.0
H1759 H 0.13288 0.87162 0.13366 0.0
C1760 C 0.58841 0.9424 0.94007 0.0
C1761 C 0.61053 0.94465 0.94672 0.0
C1762 C 0.59302 0.94154 0.92973 0.0
C1763 C 0.64331 0.96244 0.91103 0.0
H1764 H 0.62571 0.89693 0.89626 0.0
C1765 C 0.71758 0.90549 0.88764 0.0
C1766 C 0.70898 0.88654 0.88041 0.0
C1767 C 0.69891 0.92345 0.89201 0.0
C1768 C 0.63001 0.91592 0.90007 0.0
H1769 H 0.65478 0.94681 0.94778 0.0
H1770 H 0.66265 0.9455 0.92989 0.0
H1771 H 0.60375 0.90563 0.91232 0.0
H1772 H 0.67504 0.87542 0.8708 0.0
H1773 H 0.64209 0.90603 0.87884 0.0
H1774 H 0.67108 0.97177 0.89918 0.0
C1775 C 0.64179 0.94472 0.93263 0.0
C1776 C 0.6175 0.92077 0.90931 0.0
C1777 C 0.63727 0.94509 0.94289 0.0
C1778 C 0.68215 0.88889 0.87665 0.0
C1779 C 0.66327 0.90658 0.88118 0.0
C1780 C 0.65565 0.95772 0.90178 0.0
C1781 C 0.61974 0.94349 0.92596 0.0
C1782 C 0.6255 0.94309 0.91513 0.0
C1783 C 0.67114 0.92271 0.88935 0.0
C1784 C 0.65062 0.9334 0.89656 0.0
H1785 H 0.56757 0.9421 0.94282 0.0
H1786 H 0.57577 0.94016 0.9247 0.0
H1787 H 0.64939 0.98008 0.91536 0.0
H1788 H 0.73793 0.9046 0.89079 0.0
H1789 H 0.70575 0.93557 0.89829 0.0
C1790 C 0.37808 0.40517 0.2025 0.0
C1791 C 0.3786 0.37837 0.20613 0.0
C1792 C 0.37767 0.41003 0.19226 0.0
C1793 C 0.39654 0.38207 0.1682 0.0
H1794 H 0.34896 0.44004 0.15871 0.0
C1795 C 0.42644 0.43413 0.13316 0.0
C1796 C 0.43263 0.46107 0.13593 0.0
C1797 C 0.40739 0.41924 0.13865 0.0
C1798 C 0.362 0.42346 0.16118 0.0
H1799 H 0.38077 0.33567 0.2019 0.0
H1800 H 0.38093 0.34435 0.18391 0.0
H1801 H 0.34311 0.42236 0.17561 0.0
H1802 H 0.42025 0.49484 0.14548 0.0
H1803 H 0.38725 0.4693 0.15486 0.0
H1804 H 0.41693 0.38454 0.15416 0.0
C1805 C 0.38028 0.36148 0.18904 0.0
C1806 C 0.35879 0.41349 0.17086 0.0
C1807 C 0.38044 0.35657 0.19931 0.0
C1808 C 0.41623 0.47411 0.14315 0.0
C1809 C 0.3971 0.45933 0.14857 0.0
C1810 C 0.39986 0.39213 0.15854 0.0
C1811 C 0.37805 0.38823 0.18544 0.0
C1812 C 0.37708 0.39386 0.17462 0.0
C1813 C 0.39416 0.4312 0.14691 0.0
C1814 C 0.38374 0.41413 0.15517 0.0
H1815 H 0.3766 0.4224 0.20756 0.0
H1816 H 0.37676 0.43092 0.18967 0.0
H1817 H 0.41079 0.3668 0.1709 0.0
H1818 H 0.43809 0.4238 0.12737 0.0
H1819 H 0.40498 0.39774 0.13704 0.0
C1820 C 0.91554 0.10848 0.44469 0.0
C1821 C 0.94048 0.11437 0.44937 0.0
C1822 C 0.91243 0.11253 0.43444 0.0
C1823 C 0.93803 0.15462 0.41431 0.0
H1824 H 0.89498 0.10639 0.39769 0.0
C1825 C 0.89316 0.19941 0.38009 0.0
C1826 C 0.86454 0.1966 0.38034 0.0
C1827 C 0.90992 0.18045 0.38491 0.0
C1828 C 0.90718 0.12002 0.4022 0.0
H1829 H 0.98182 0.12883 0.44703 0.0
H1830 H 0.97617 0.13642 0.42912 0.0
H1831 H 0.90922 0.0916 0.41432 0.0
H1832 H 0.83178 0.16856 0.38379 0.0
H1833 H 0.86051 0.13668 0.39275 0.0
H1834 H 0.93451 0.18385 0.40272 0.0
C1835 C 0.95908 0.12859 0.43338 0.0
C1836 C 0.91529 0.11155 0.41172 0.0
C1837 C 0.96226 0.12437 0.44362 0.0
C1838 C 0.85363 0.17201 0.38389 0.0
C1839 C 0.8703 0.15343 0.38894 0.0
C1840 C 0.92974 0.16318 0.40488 0.0
C1841 C 0.93414 0.12269 0.42868 0.0
C1842 C 0.92987 0.12923 0.418 0.0
C1843 C 0.8983 0.15879 0.39026 0.0
C1844 C 0.9132 0.14647 0.39885 0.0
H1845 H 0.89851 0.10043 0.44892 0.0
H1846 H 0.89281 0.10826 0.43105 0.0
H1847 H 0.94911 0.16877 0.419 0.0
H1848 H 0.90259 0.21773 0.37726 0.0
H1849 H 0.93164 0.18447 0.38536 0.0
C1850 C 0.15048 0.6272 0.63863 0.0
C1851 C 0.12364 0.63183 0.63526 0.0
C1852 C 0.16333 0.64633 0.64475 0.0
C1853 C 0.18628 0.69129 0.6582 0.0
H1854 H 0.13336 0.70185 0.67955 0.0
C1855 C 0.21134 0.73413 0.69791 0.0
C1856 C 0.20496 0.71492 0.70533 0.0
C1857 C 0.20197 0.73061 0.68814 0.0
C1858 C 0.14825 0.69945 0.6736 0.0
H1859 H 0.09077 0.66181 0.63456 0.0
H1860 H 0.11341 0.69516 0.64504 0.0
H1861 H 0.11804 0.68607 0.66326 0.0
H1862 H 0.1835 0.67746 0.70848 0.0
H1863 H 0.1663 0.67181 0.69146 0.0
H1864 H 0.21661 0.70359 0.66885 0.0
C1865 C 0.12428 0.67655 0.64312 0.0
C1866 C 0.13951 0.69067 0.66424 0.0
C1867 C 0.11142 0.65745 0.63702 0.0
C1868 C 0.1886 0.69254 0.70289 0.0
C1869 C 0.17874 0.68938 0.6932 0.0
C1870 C 0.19498 0.70051 0.66757 0.0
C1871 C 0.14954 0.67038 0.64757 0.0
C1872 C 0.15852 0.68557 0.65655 0.0
C1873 C 0.18557 0.70822 0.68573 0.0
C1874 C 0.1761 0.70365 0.67542 0.0
H1875 H 0.16064 0.60788 0.63723 0.0
H1876 H 0.18287 0.64103 0.64804 0.0
H1877 H 0.20132 0.68753 0.6524 0.0
H1878 H 0.22422 0.75142 0.6996 0.0
H1879 H 0.20751 0.74532 0.68247 0.0
C1880 C 0.61661 0.12365 0.66535 0.0
C1881 C 0.63839 0.12315 0.65846 0.0
C1882 C 0.62163 0.12106 0.67557 0.0
C1883 C 0.67486 0.0979 0.69333 0.0
H1884 H 0.64584 0.1547 0.71054 0.0
C1885 C 0.73725 0.16193 0.71717 0.0
C1886 C 0.72467 0.17993 0.72398 0.0
C1887 C 0.7229 0.13975 0.71343 0.0
C1888 C 0.65349 0.13789 0.70605 0.0
H1889 H 0.68252 0.12078 0.65692 0.0
H1890 H 0.69127 0.11688 0.67473 0.0
H1891 H 0.62636 0.14813 0.69413 0.0
H1892 H 0.68998 0.18507 0.73397 0.0
H1893 H 0.66453 0.14669 0.72717 0.0
H1894 H 0.70344 0.08912 0.70499 0.0
C1895 C 0.67028 0.11847 0.67222 0.0
C1896 C 0.64237 0.13432 0.69656 0.0
C1897 C 0.6653 0.12125 0.66203 0.0
C1898 C 0.69968 0.17228 0.72837 0.0
C1899 C 0.68518 0.15015 0.72454 0.0
C1900 C 0.68591 0.10138 0.70286 0.0
C1901 C 0.64849 0.11779 0.67907 0.0
C1902 C 0.65433 0.11568 0.68988 0.0
C1903 C 0.69563 0.13542 0.71635 0.0
C1904 C 0.67683 0.12296 0.70897 0.0
H1905 H 0.59561 0.12495 0.66282 0.0
H1906 H 0.60449 0.12094 0.68071 0.0
H1907 H 0.68383 0.08273 0.6884 0.0
H1908 H 0.75662 0.16678 0.7137 0.0
H1909 H 0.73189 0.12866 0.70722 0.0
C1910 C 0.20731 0.38488 0.90916 0.0
C1911 C 0.20265 0.35963 0.90454 0.0
C1912 C 0.20579 0.3874 0.91951 0.0
C1913 C 0.17095 0.36272 0.94089 0.0
H1914 H 0.22631 0.40321 0.95527 0.0
C1915 C 0.13625 0.42068 0.97412 0.0
C1916 C 0.14225 0.44838 0.97264 0.0
C1917 C 0.1526 0.4005 0.96973 0.0
C1918 C 0.21072 0.39168 0.95142 0.0
H1919 H 0.19181 0.31741 0.90708 0.0
H1920 H 0.18777 0.3223 0.92527 0.0
H1921 H 0.23607 0.38607 0.93848 0.0
H1922 H 0.17293 0.47634 0.96721 0.0
H1923 H 0.2004 0.44166 0.95909 0.0
H1924 H 0.14449 0.37052 0.95319 0.0
C1925 C 0.19337 0.33982 0.92083 0.0
C1926 C 0.21637 0.38182 0.94183 0.0
C1927 C 0.19544 0.33714 0.91045 0.0
C1928 C 0.16722 0.45521 0.96813 0.0
C1929 C 0.18324 0.43511 0.96358 0.0
C1930 C 0.1651 0.37297 0.95039 0.0
C1931 C 0.19905 0.36487 0.92544 0.0
C1932 C 0.19599 0.36856 0.93632 0.0
C1933 C 0.17478 0.40773 0.96361 0.0
C1934 C 0.18435 0.38906 0.95552 0.0
H1935 H 0.21282 0.40258 0.90481 0.0
H1936 H 0.20955 0.40711 0.92289 0.0
H1937 H 0.15494 0.35249 0.93677 0.0
H1938 H 0.11739 0.41453 0.97769 0.0
H1939 H 0.14614 0.37948 0.97027 0.0
C1940 C 0.92843 0.95585 0.16311 0.0
C1941 C 0.95576 0.9556 0.15988 0.0
C1942 C 0.92218 0.95342 0.17322 0.0
C1943 C 0.91523 0.96388 0.19525 0.0
H1944 H 0.94084 0.89944 0.20912 0.0
C1945 C 0.88671 0.88424 0.22894 0.0
C1946 C 0.86025 0.87889 0.2253 0.0
C1947 C 0.90293 0.90412 0.22444 0.0
C1948 C 0.93413 0.91811 0.20555 0.0
H1949 H 0.99798 0.95174 0.16466 0.0
H1950 H 0.98683 0.94661 0.18242 0.0
H1951 H 0.96205 0.91227 0.19338 0.0
H1952 H 0.82879 0.89352 0.21513 0.0
H1953 H 0.8564 0.92822 0.20765 0.0
H1954 H 0.886 0.96859 0.20706 0.0
C1955 C 0.97039 0.94914 0.17709 0.0
C1956 C 0.94622 0.92534 0.19649 0.0
C1957 C 0.97671 0.95188 0.16694 0.0
C1958 C 0.84898 0.89676 0.21819 0.0
C1959 C 0.86498 0.91686 0.21384 0.0
C1960 C 0.9032 0.9567 0.20432 0.0
C1961 C 0.94306 0.95046 0.18032 0.0
C1962 C 0.93571 0.9473 0.19098 0.0
C1963 C 0.89269 0.91938 0.2164 0.0
C1964 C 0.91138 0.93275 0.20923 0.0
H1965 H 0.91181 0.95874 0.15788 0.0
H1966 H 0.90088 0.95374 0.17547 0.0
H1967 H 0.90724 0.98134 0.19124 0.0
H1968 H 0.89573 0.8716 0.23469 0.0
H1969 H 0.92408 0.90606 0.2267 0.0
C1970 C 0.46711 0.54531 0.44339 0.0
C1971 C 0.46489 0.54887 0.45377 0.0
C1972 C 0.45131 0.56127 0.43699 0.0
C1973 C 0.39622 0.61099 0.43405 0.0
H1974 H 0.45186 0.65314 0.42043 0.0
C1975 C 0.36605 0.69906 0.40838 0.0
C1976 C 0.37743 0.69542 0.39886 0.0
C1977 C 0.37731 0.68525 0.41654 0.0
C1978 C 0.43609 0.64159 0.42418 0.0
H1979 H 0.44105 0.56831 0.46557 0.0
H1980 H 0.41307 0.59541 0.45436 0.0
H1981 H 0.4653 0.61449 0.43071 0.0
H1982 H 0.4102 0.67692 0.3903 0.0
H1983 H 0.43015 0.65325 0.40441 0.0
H1984 H 0.36688 0.63747 0.42718 0.0
C1985 C 0.4274 0.5808 0.4512 0.0
C1986 C 0.44374 0.61936 0.42997 0.0
C1987 C 0.4434 0.56508 0.45761 0.0
C1988 C 0.40146 0.68016 0.39766 0.0
C1989 C 0.41281 0.66663 0.40576 0.0
C1990 C 0.38846 0.63307 0.4281 0.0
C1991 C 0.43279 0.58047 0.44093 0.0
C1992 C 0.42386 0.60355 0.43475 0.0
C1993 C 0.40007 0.66792 0.41517 0.0
C1994 C 0.40834 0.64819 0.42293 0.0
H1995 H 0.48303 0.53245 0.44023 0.0
H1996 H 0.45533 0.56042 0.42903 0.0
H1997 H 0.38066 0.59927 0.43784 0.0
H1998 H 0.34717 0.71048 0.40936 0.0
H1999 H 0.3673 0.68681 0.42374 0.0
C2000 C 0.37317 0.17628 0.21638 0.0
C2001 C 0.38296 0.20133 0.21992 0.0
C2002 C 0.3907 0.15816 0.21146 0.0
C2003 C 0.43007 0.1231 0.19984 0.0
H2004 H 0.4682 0.169 0.1809 0.0
C2005 C 0.47942 0.11899 0.15743 0.0
C2006 C 0.45674 0.10773 0.15253 0.0
C2007 C 0.47804 0.12527 0.1676 0.0
C2008 C 0.45827 0.15569 0.18622 0.0
H2009 H 0.41961 0.22514 0.22243 0.0
H2010 H 0.45032 0.19299 0.21424 0.0
H2011 H 0.45332 0.18797 0.19672 0.0
H2012 H 0.41515 0.09353 0.15443 0.0
H2013 H 0.41265 0.10473 0.17215 0.0
H2014 H 0.4332 0.09147 0.18882 0.0
C2015 C 0.4289 0.18781 0.21491 0.0
C2016 C 0.44982 0.16652 0.19536 0.0
C2017 C 0.41128 0.20613 0.21971 0.0
C2018 C 0.43284 0.10247 0.15799 0.0
C2019 C 0.43156 0.10847 0.16817 0.0
C2020 C 0.43831 0.11235 0.19063 0.0
C2021 C 0.41845 0.16462 0.21009 0.0
C2022 C 0.43435 0.15076 0.20206 0.0
C2023 C 0.45408 0.12004 0.17306 0.0
C2024 C 0.4513 0.12898 0.18357 0.0
H2025 H 0.35156 0.17165 0.21669 0.0
H2026 H 0.38182 0.14047 0.20791 0.0
H2027 H 0.41878 0.11023 0.20493 0.0
H2028 H 0.49817 0.12305 0.15339 0.0
H2029 H 0.49563 0.13427 0.1712 0.0
C2030 C 0.65341 0.60967 0.97106 0.0
C2031 C 0.62733 0.61744 0.9745 0.0
C2032 C 0.67056 0.6288 0.96663 0.0
C2033 C 0.65764 0.68928 0.95166 0.0
H2034 H 0.73357 0.67748 0.94441 0.0
C2035 C 0.7214 0.68151 0.91368 0.0
C2036 C 0.71435 0.7058 0.90878 0.0
C2037 C 0.71589 0.67837 0.92383 0.0
C2038 C 0.7124 0.68124 0.94643 0.0
H2039 H 0.601 0.6523 0.97767 0.0
H2040 H 0.63152 0.68569 0.9705 0.0
H2041 H 0.71642 0.65983 0.96026 0.0
H2042 H 0.69635 0.746 0.91063 0.0
H2043 H 0.68593 0.74014 0.92841 0.0
H2044 H 0.65336 0.70962 0.93765 0.0
C2045 C 0.63816 0.6646 0.97072 0.0
C2046 C 0.70256 0.67113 0.95549 0.0
C2047 C 0.62077 0.64539 0.97498 0.0
C2048 C 0.7018 0.72698 0.91422 0.0
C2049 C 0.69597 0.7237 0.92438 0.0
C2050 C 0.66755 0.69961 0.94267 0.0
C2051 C 0.66212 0.65617 0.96574 0.0
C2052 C 0.67468 0.67372 0.95796 0.0
C2053 C 0.70299 0.69934 0.92927 0.0
C2054 C 0.69463 0.69445 0.93974 0.0
H2055 H 0.65948 0.5884 0.97089 0.0
H2056 H 0.68899 0.62143 0.963 0.0
H2057 H 0.63598 0.69152 0.95318 0.0
H2058 H 0.73138 0.66494 0.9097 0.0
H2059 H 0.72105 0.65917 0.92736 0.0
C2060 C 0.29134 0.83499 0.68087 0.0
C2061 C 0.28712 0.81007 0.6857 0.0
C2062 C 0.27484 0.84249 0.67284 0.0
C2063 C 0.20377 0.83299 0.6671 0.0
H2064 H 0.21956 0.88816 0.64731 0.0
C2065 C 0.1257 0.90626 0.6467 0.0
C2066 C 0.13477 0.93334 0.64689 0.0
C2067 C 0.14236 0.88548 0.65054 0.0
C2068 C 0.21487 0.87257 0.65276 0.0
H2069 H 0.26504 0.77187 0.68514 0.0
H2070 H 0.23646 0.78489 0.67104 0.0
H2071 H 0.25644 0.85888 0.65338 0.0
H2072 H 0.16628 0.96061 0.65213 0.0
H2073 H 0.19488 0.92458 0.65908 0.0
H2074 H 0.16234 0.84773 0.66676 0.0
C2075 C 0.25218 0.79878 0.67353 0.0
C2076 C 0.2359 0.8558 0.65619 0.0
C2077 C 0.26878 0.79124 0.68154 0.0
C2078 C 0.15895 0.93981 0.65193 0.0
C2079 C 0.17545 0.91922 0.65576 0.0
C2080 C 0.18265 0.84972 0.66361 0.0
C2081 C 0.25383 0.82517 0.66957 0.0
C2082 C 0.23085 0.83679 0.66377 0.0
C2083 C 0.16803 0.89185 0.65458 0.0
C2084 C 0.18842 0.8705 0.6568 0.0
H2085 H 0.30547 0.84974 0.68392 0.0
H2086 H 0.27667 0.86299 0.66996 0.0
H2087 H 0.19924 0.81868 0.67301 0.0
H2088 H 0.10725 0.90089 0.6427 0.0
H2089 H 0.13621 0.86445 0.64965 0.0
C2090 C 0.92097 0.45094 0.47877 0.0
C2091 C 0.92882 0.47578 0.47441 0.0
C2092 C 0.89909 0.43625 0.47482 0.0
C2093 C 0.84897 0.43645 0.45369 0.0
H2094 H 0.89478 0.37682 0.44429 0.0
C2095 C 0.86291 0.41404 0.41262 0.0
C2096 C 0.86686 0.38732 0.40912 0.0
C2097 C 0.86047 0.41925 0.42282 0.0
C2098 C 0.88116 0.3928 0.44693 0.0
H2099 H 0.9163 0.50708 0.46388 0.0
H2100 H 0.87838 0.4821 0.45726 0.0
H2101 H 0.90361 0.39706 0.46045 0.0
H2102 H 0.87148 0.34505 0.41356 0.0
H2103 H 0.86773 0.3543 0.43147 0.0
H2104 H 0.82795 0.43341 0.43973 0.0
C2105 C 0.88923 0.47344 0.46355 0.0
C2106 C 0.8861 0.40437 0.45627 0.0
C2107 C 0.91127 0.48791 0.46738 0.0
C2108 C 0.86878 0.36592 0.41605 0.0
C2109 C 0.86638 0.37116 0.42629 0.0
C2110 C 0.84398 0.42481 0.44435 0.0
C2111 C 0.88457 0.44647 0.46659 0.0
C2112 C 0.87143 0.42766 0.4594 0.0
C2113 C 0.86193 0.39787 0.42977 0.0
C2114 C 0.86134 0.4042 0.4406 0.0
H2115 H 0.93335 0.44154 0.48453 0.0
H2116 H 0.89546 0.41577 0.47749 0.0
H2117 H 0.83701 0.45404 0.456 0.0
H2118 H 0.86114 0.43096 0.40748 0.0
H2119 H 0.85785 0.44017 0.42526 0.0
C2120 C 0.41694 0.95734 0.45512 0.0
C2121 C 0.44025 0.94846 0.46024 0.0
C2122 C 0.40225 0.93933 0.44924 0.0
C2123 C 0.38409 0.86831 0.44886 0.0
H2124 H 0.34616 0.88964 0.42467 0.0
C2125 C 0.31255 0.80212 0.42429 0.0
C2126 C 0.29105 0.81611 0.41951 0.0
C2127 C 0.32977 0.81587 0.43085 0.0
C2128 C 0.35636 0.8836 0.4315 0.0
H2129 H 0.46747 0.91438 0.46304 0.0
H2130 H 0.44135 0.88227 0.45268 0.0
H2131 H 0.38333 0.91758 0.43091 0.0
H2132 H 0.26785 0.85385 0.41913 0.0
H2133 H 0.29794 0.87789 0.43066 0.0
H2134 H 0.3569 0.83415 0.44936 0.0
C2135 C 0.43468 0.90332 0.45317 0.0
C2136 C 0.37782 0.89939 0.435 0.0
C2137 C 0.44976 0.92166 0.45896 0.0
C2138 C 0.28459 0.84278 0.42256 0.0
C2139 C 0.30187 0.85654 0.4291 0.0
C2140 C 0.36264 0.85229 0.44529 0.0
C2141 C 0.41034 0.91191 0.44851 0.0
C2142 C 0.39144 0.89231 0.44384 0.0
C2143 C 0.32564 0.84371 0.43271 0.0
C2144 C 0.34816 0.86026 0.43673 0.0
H2145 H 0.40903 0.97781 0.45617 0.0
H2146 H 0.38341 0.94648 0.44587 0.0
H2147 H 0.39406 0.86257 0.45577 0.0
H2148 H 0.31814 0.78156 0.42209 0.0
H2149 H 0.34788 0.8055 0.4336 0.0
C2150 C 0.90997 0.69117 0.20706 0.0
C2151 C 0.88356 0.68027 0.20625 0.0
C2152 C 0.93277 0.67532 0.2044 0.0
C2153 C 0.95077 0.60354 0.20411 0.0
H2154 H 1.00932 0.6205 0.18569 0.0
C2155 C 0.9982 0.52892 0.17756 0.0
C2156 C 1.02365 0.53468 0.17325 0.0
C2157 C 0.98863 0.54453 0.18556 0.0
C2158 C 0.99368 0.61566 0.19113 0.0
H2159 H 0.85982 0.6462 0.20086 0.0
H2160 H 0.89942 0.61895 0.19593 0.0
H2161 H 0.97645 0.65594 0.19038 0.0
H2162 H 0.06091 0.55807 0.17486 0.0
H2163 H 0.04428 0.58502 0.18895 0.0
H2164 H 0.96698 0.56297 0.20449 0.0
C2165 C 0.90264 0.6392 0.19894 0.0
C2166 C 0.97476 0.63594 0.19373 0.0
C2167 C 0.88002 0.65492 0.2016 0.0
C2168 C 0.04112 0.55323 0.17803 0.0
C2169 C 1.03151 0.56891 0.18603 0.0
C2170 C 0.96971 0.58334 0.20158 0.0
C2171 C 0.92914 0.64862 0.20086 0.0
C2172 C 0.95237 0.62955 0.19979 0.0
C2173 C 1.00442 0.56611 0.18933 0.0
C2174 C 0.99045 0.58879 0.19462 0.0
H2175 H 0.91314 0.71066 0.21068 0.0
H2176 H 0.95309 0.68307 0.20581 0.0
H2177 H 0.93394 0.59842 0.20903 0.0
H2178 H 0.9845 0.51454 0.17404 0.0
H2179 H 0.96766 0.54174 0.18795 0.0
C2180 C 0.22404 0.16054 0.89368 0.0
C2181 C 0.2113 0.17789 0.88674 0.0
C2182 C 0.20911 0.14036 0.89848 0.0
C2183 C 0.14186 0.13988 0.90834 0.0
H2184 H 0.17111 0.07791 0.92277 0.0
C2185 C 0.1085 0.11581 0.94874 0.0
C2186 C 0.13084 0.11167 0.95516 0.0
C2187 C 0.11226 0.11551 0.93838 0.0
C2188 C 0.16248 0.09506 0.91876 0.0
H2189 H 0.17428 0.18433 0.8781 0.0
H2190 H 0.14786 0.1497 0.88685 0.0
H2191 H 0.18919 0.08881 0.90625 0.0
H2192 H 0.17456 0.10408 0.95581 0.0
H2193 H 0.18122 0.10431 0.93784 0.0
H2194 H 0.11685 0.1476 0.92115 0.0
C2195 C 0.16933 0.15202 0.88862 0.0
C2196 C 0.17266 0.10113 0.90928 0.0
C2197 C 0.18442 0.172 0.8837 0.0
C2198 C 0.15696 0.10749 0.95106 0.0
C2199 C 0.16069 0.10713 0.94075 0.0
C2200 C 0.13175 0.13386 0.91782 0.0
C2201 C 0.18108 0.13732 0.89653 0.0
C2202 C 0.1637 0.12464 0.90427 0.0
C2203 C 0.13839 0.11094 0.93428 0.0
C2204 C 0.14322 0.11244 0.92337 0.0
H2205 H 0.24465 0.16428 0.89625 0.0
H2206 H 0.21882 0.12944 0.90455 0.0
H2207 H 0.13459 0.15824 0.9047 0.0
H2208 H 0.08806 0.11878 0.9517 0.0
H2209 H 0.09471 0.11861 0.93358 0.0
C2210 C 0.53644 0.51359 0.68045 0.0
C2211 C 0.55683 0.53229 0.67773 0.0
C2212 C 0.54201 0.49354 0.68754 0.0
C2213 C 0.57658 0.44248 0.68979 0.0
H2214 H 0.62706 0.44391 0.71204 0.0
C2215 C 0.68527 0.39771 0.69965 0.0
C2216 C 0.68315 0.37356 0.70513 0.0
C2217 C 0.66176 0.41179 0.69683 0.0
C2218 C 0.61249 0.44307 0.70596 0.0
H2219 H 0.59675 0.54797 0.6815 0.0
H2220 H 0.60647 0.51312 0.6939 0.0
H2221 H 0.5972 0.48321 0.70903 0.0
H2222 H 0.6553 0.34329 0.71094 0.0
H2223 H 0.61382 0.36839 0.70607 0.0
H2224 H 0.59389 0.40328 0.68622 0.0
C2225 C 0.58635 0.51361 0.69053 0.0
C2226 C 0.59546 0.46545 0.70426 0.0
C2227 C 0.58086 0.53359 0.68341 0.0
C2228 C 0.65732 0.36183 0.70664 0.0
C2229 C 0.63366 0.3762 0.70394 0.0
C2230 C 0.59379 0.42012 0.69147 0.0
C2231 C 0.56787 0.49214 0.692 0.0
C2232 C 0.57839 0.46593 0.69586 0.0
C2233 C 0.63595 0.40194 0.69953 0.0
C2234 C 0.61269 0.42095 0.69928 0.0
H2235 H 0.51765 0.5121 0.67622 0.0
H2236 H 0.52727 0.4775 0.68873 0.0
H2237 H 0.56387 0.44244 0.68317 0.0
H2238 H 0.705 0.4071 0.69845 0.0
H2239 H 0.66378 0.43161 0.69336 0.0
C2240 C 0.15665 0.28124 0.3747 0.0
C2241 C 0.16175 0.25362 0.37733 0.0
C2242 C 0.12922 0.29255 0.37429 0.0
C2243 C 0.05156 0.27133 0.37515 0.0
H2244 H 0.03773 0.34858 0.37756 0.0
C2245 C 0.93591 0.31674 0.37326 0.0
C2246 C 0.92975 0.3429 0.37729 0.0
C2247 C 0.96352 0.30601 0.37288 0.0
C2248 C 0.04056 0.32678 0.37697 0.0
H2249 H 0.13966 0.21732 0.3817 0.0
H2250 H 0.09416 0.23621 0.38108 0.0
H2251 H 0.08454 0.33132 0.37772 0.0
H2252 H 0.94998 0.3773 0.38418 0.0
H2253 H 0.99609 0.35921 0.38368 0.0
H2254 H 1.00766 0.26669 0.37455 0.0
C2255 C 0.11077 0.24956 0.37908 0.0
C2256 C 0.06825 0.31668 0.37694 0.0
C2257 C 0.13775 0.23846 0.37951 0.0
C2258 C 0.95287 0.35727 0.38092 0.0
C2259 C 0.98014 0.34668 0.38055 0.0
C2260 C 1.02391 0.28142 0.37518 0.0
C2261 C 0.1052 0.27698 0.37644 0.0
C2262 C 0.07489 0.2885 0.37611 0.0
C2263 C 0.98676 0.32071 0.37649 0.0
C2264 C 1.01722 0.30954 0.37617 0.0
H2265 H 0.17381 0.29429 0.37303 0.0
H2266 H 0.127 0.31371 0.37218 0.0
H2267 H 0.0544 0.2496 0.37426 0.0
H2268 H 0.91942 0.30448 0.37034 0.0
H2269 H 0.9665 0.28606 0.3696 0.0
C2270 C 1.02136 0.67157 0.61932 0.0
C2271 C 0.99417 0.66647 0.62257 0.0
C2272 C 1.03241 0.69881 0.61872 0.0
C2273 C 1.01126 0.77661 0.62058 0.0
H2274 H 0.08907 0.78894 0.61949 0.0
C2275 C 0.05622 0.89139 0.617 0.0
C2276 C 0.08395 0.89704 0.61935 0.0
C2277 C 0.04532 0.86404 0.61715 0.0
C2278 C 0.06714 0.78659 0.61989 0.0
H2279 H 0.95825 0.68835 0.62781 0.0
H2280 H 0.97675 0.73387 0.62691 0.0
H2281 H 0.07171 0.74271 0.62033 0.0
H2282 H 0.121 0.87608 0.6239 0.0
H2283 H 0.10272 0.83039 0.6243 0.0
H2284 H 1.00667 0.82046 0.62029 0.0
C2285 C 0.98997 0.71729 0.62458 0.0
C2286 C 0.0569 0.75917 0.62026 0.0
C2287 C 0.97909 0.69036 0.62518 0.0
C2288 C 0.09971 0.8736 0.6219 0.0
C2289 C 0.08894 0.84656 0.62208 0.0
C2290 C 1.0215 0.80402 0.62022 0.0
C2291 C 1.01703 0.72283 0.62129 0.0
C2292 C 1.02851 0.75299 0.62068 0.0
C2293 C 0.06133 0.84046 0.61967 0.0
C2294 C 0.04989 0.81023 0.6199 0.0
H2295 H 1.03428 0.65448 0.61723 0.0
H2296 H 0.05322 0.70086 0.61609 0.0
H2297 H 0.98931 0.77424 0.6207 0.0
H2298 H 0.04278 0.90811 0.615 0.0
H2299 H 1.02407 0.86157 0.61515 0.0
C2300 C 0.4505 0.8433 0.88074 0.0
C2301 C 0.42705 0.82907 0.87729 0.0
C2302 C 0.47763 0.83251 0.88026 0.0
C2303 C 0.52095 0.76689 0.87549 0.0
H2304 H 0.58147 0.81733 0.87626 0.0
C2305 C 0.63604 0.72578 0.87959 0.0
C2306 C 0.65938 0.74098 0.87667 0.0
C2307 C 0.60875 0.73632 0.87926 0.0
C2308 C 0.56522 0.80251 0.87599 0.0
H2309 H 0.41611 0.79051 0.87057 0.0
H2310 H 0.46312 0.77162 0.86969 0.0
H2311 H 0.53462 0.83436 0.87616 0.0
H2312 H 0.67004 0.78081 0.87104 0.0
H2313 H 0.62297 0.79921 0.87044 0.0
H2314 H 0.55161 0.73505 0.87509 0.0
C2315 C 0.46036 0.79172 0.87288 0.0
C2316 C 0.53753 0.81251 0.87606 0.0
C2317 C 0.43282 0.80273 0.87334 0.0
C2318 C 0.65341 0.76788 0.8734 0.0
C2319 C 0.62581 0.7786 0.8731 0.0
C2320 C 0.54866 0.75688 0.87545 0.0
C2321 C 0.48385 0.80637 0.87629 0.0
C2322 C 0.51424 0.79511 0.87588 0.0
C2323 C 0.60238 0.76311 0.876 0.0
C2324 C 0.57194 0.77428 0.87576 0.0
H2325 H 0.44799 0.86344 0.88395 0.0
H2326 H 0.49383 0.84498 0.88325 0.0
H2327 H 0.50466 0.75209 0.87536 0.0
H2328 H 0.63879 0.70514 0.88226 0.0
H2329 H 0.59257 0.72313 0.88181 0.0
C2330 C 0.47172 0.18502 0.1243 0.0
C2331 C 0.48693 0.16177 0.12109 0.0
C2332 C 0.48217 0.21214 0.12409 0.0
C2333 C 0.54813 0.25533 0.11967 0.0
H2334 H 0.49747 0.31603 0.12183 0.0
C2335 C 0.59043 0.36906 0.12336 0.0
C2336 C 0.57457 0.39291 0.12146 0.0
C2337 C 0.57964 0.34211 0.12306 0.0
C2338 C 0.51237 0.29975 0.12116 0.0
H2339 H 0.52674 0.15105 0.11513 0.0
H2340 H 0.54488 0.1978 0.11461 0.0
H2341 H 0.48053 0.26961 0.12154 0.0
H2342 H 0.53311 0.40478 0.11779 0.0
H2343 H 0.51429 0.35821 0.11712 0.0
H2344 H 0.57989 0.28545 0.11896 0.0
C2345 C 0.52435 0.1951 0.11743 0.0
C2346 C 0.50242 0.27222 0.12111 0.0
C2347 C 0.51377 0.16765 0.11767 0.0
C2348 C 0.54665 0.38773 0.11927 0.0
C2349 C 0.5357 0.3604 0.11895 0.0
C2350 C 0.55806 0.28283 0.11969 0.0
C2351 C 0.50885 0.21849 0.12061 0.0
C2352 C 0.51989 0.24882 0.12043 0.0
C2353 C 0.5519 0.33646 0.1208 0.0
C2354 C 0.54064 0.30623 0.12051 0.0
H2355 H 0.45114 0.18233 0.12711 0.0
H2356 H 0.46893 0.22818 0.12687 0.0
H2357 H 0.56309 0.23907 0.11915 0.0
H2358 H 0.61187 0.37108 0.1252 0.0
H2359 H 0.59355 0.32563 0.12482 0.0
C2360 C 0.92402 0.75442 0.23563 0.0
C2361 C 0.91824 0.7267 0.23346 0.0
C2362 C 0.95155 0.76499 0.23555 0.0
C2363 C 1.02921 0.74244 0.23332 0.0
H2364 H 0.04194 0.81985 0.23201 0.0
C2365 C 0.14473 0.78866 0.23395 0.0
C2366 C 0.1496 0.81535 0.23027 0.0
C2367 C 0.11745 0.77739 0.23461 0.0
C2368 C 0.03946 0.798 0.23225 0.0
H2369 H 0.93909 0.68924 0.22932 0.0
H2370 H 0.98517 0.70697 0.22903 0.0
H2371 H 0.99552 0.80282 0.23235 0.0
H2372 H 0.12728 0.84989 0.22421 0.0
H2373 H 0.08205 0.83105 0.2252 0.0
H2374 H 0.0733 0.7377 0.23305 0.0
C2375 C 0.96895 0.721 0.23106 0.0
C2376 C 1.01193 0.78797 0.23259 0.0
C2377 C 0.94171 0.71055 0.23117 0.0
C2378 C 0.12554 0.82954 0.22724 0.0
C2379 C 0.09869 0.81848 0.22789 0.0
C2380 C 0.05679 0.75249 0.23296 0.0
C2381 C 0.97517 0.74862 0.23327 0.0
C2382 C 1.00558 0.75976 0.23309 0.0
C2383 C 0.09331 0.79208 0.23166 0.0
C2384 C 0.06308 0.7807 0.23235 0.0
H2385 H 0.90726 0.76812 0.23741 0.0
H2386 H 0.95411 0.78627 0.2374 0.0
H2387 H 1.02671 0.72064 0.23386 0.0
H2388 H 0.16195 0.77637 0.23637 0.0
H2389 H 0.11543 0.75704 0.23759 0.0
C2390 C 0.52242 0.90684 0.49019 0.0
C2391 C 0.49389 0.912 0.48927 0.0
C2392 C 0.53375 0.87952 0.49013 0.0
C2393 C 0.51269 0.80207 0.49121 0.0
H2394 H 0.5885 0.78861 0.48464 0.0
C2395 C 0.56085 0.68735 0.49189 0.0
C2396 C 0.58504 0.68121 0.48639 0.0
C2397 C 0.54971 0.71473 0.49254 0.0
C2398 C 0.56708 0.79133 0.48642 0.0
H2399 H 0.45585 0.8902 0.48737 0.0
H2400 H 0.47478 0.84453 0.48722 0.0
H2401 H 0.5708 0.83506 0.48498 0.0
H2402 H 0.6153 0.70127 0.47717 0.0
H2403 H 0.59652 0.74686 0.47816 0.0
H2404 H 0.50891 0.7583 0.49252 0.0
C2405 C 0.48893 0.86114 0.48822 0.0
C2406 C 0.55675 0.81883 0.48674 0.0
C2407 C 0.47777 0.88813 0.48825 0.0
C2408 C 0.59692 0.70412 0.48159 0.0
C2409 C 0.58597 0.73112 0.48224 0.0
C2410 C 0.52304 0.77457 0.4909 0.0
C2411 C 0.51733 0.85556 0.48918 0.0
C2412 C 0.52907 0.82536 0.48908 0.0
C2413 C 0.56205 0.73774 0.48778 0.0
C2414 C 0.55062 0.76801 0.48842 0.0
H2415 H 0.53617 0.92393 0.49091 0.0
H2416 H 0.55565 0.87735 0.49094 0.0
H2417 H 0.49146 0.80485 0.49325 0.0
H2418 H 0.55055 0.67108 0.4958 0.0
H2419 H 0.53144 0.71777 0.49698 0.0
C2420 C 0.62657 0.34474 0.73132 0.0
C2421 C 0.65048 0.32935 0.7337 0.0
C2422 C 0.59955 0.33385 0.73145 0.0
C2423 C 0.5572 0.26671 0.73416 0.0
H2424 H 0.49555 0.31663 0.73378 0.0
C2425 C 0.44353 0.22365 0.72995 0.0
C2426 C 0.41927 0.23854 0.73236 0.0
C2427 C 0.47039 0.2348 0.73043 0.0
C2428 C 0.51211 0.30191 0.73393 0.0
H2429 H 0.66227 0.28853 0.73806 0.0
H2430 H 0.61561 0.26957 0.73848 0.0
H2431 H 0.54195 0.33402 0.73423 0.0
H2432 H 0.40671 0.27889 0.73716 0.0
H2433 H 0.4532 0.29835 0.73813 0.0
H2434 H 0.52738 0.23462 0.7342 0.0
C2435 C 0.61779 0.2907 0.73638 0.0
C2436 C 0.53964 0.31215 0.73408 0.0
C2437 C 0.64522 0.30175 0.73621 0.0
C2438 C 0.42404 0.266 0.73528 0.0
C2439 C 0.45134 0.27735 0.73577 0.0
C2440 C 0.52969 0.25648 0.73404 0.0
C2441 C 0.59379 0.30644 0.73403 0.0
C2442 C 0.56343 0.29499 0.73412 0.0
C2443 C 0.47566 0.26204 0.7334 0.0
C2444 C 0.50593 0.27362 0.73384 0.0
H2445 H 0.62864 0.3659 0.72919 0.0
H2446 H 0.58312 0.34743 0.72931 0.0
H2447 H 0.57371 0.25195 0.73418 0.0
H2448 H 0.44195 0.20265 0.72753 0.0
H2449 H 0.48711 0.22158 0.72824 0.0
C2450 C 0.10693 0.19657 0.98335 0.0
C2451 C 0.09201 0.17361 0.98676 0.0
C2452 C 0.09638 0.22378 0.98356 0.0
C2453 C 1.03051 0.26767 0.98797 0.0
H2454 H 0.08109 0.32782 0.98615 0.0
C2455 C 0.98821 0.38152 0.98365 0.0
C2456 C 1.00355 0.40524 0.98596 0.0
C2457 C 0.99916 0.35453 0.98403 0.0
C2458 C 0.06624 0.31168 0.98672 0.0
H2459 H 0.05265 0.16349 0.99309 0.0
H2460 H 1.03427 0.21044 0.99355 0.0
H2461 H 0.09816 0.28115 0.98652 0.0
H2462 H 0.04434 0.41687 0.99045 0.0
H2463 H 0.06346 0.37014 0.99124 0.0
H2464 H 0.99864 0.29816 0.98848 0.0
C2465 C 0.05465 0.20739 0.99058 0.0
C2466 C 0.07625 0.28405 0.98681 0.0
C2467 C 0.06536 0.17986 0.99037 0.0
C2468 C 1.03118 0.39991 0.98864 0.0
C2469 C 0.04232 0.37251 0.98904 0.0
C2470 C 1.02051 0.29526 0.98788 0.0
C2471 C 0.06989 0.23048 0.98721 0.0
C2472 C 0.05878 0.26088 0.98737 0.0
C2473 C 1.02657 0.34872 0.98679 0.0
C2474 C 0.03792 0.31843 0.98718 0.0
H2475 H 0.12736 0.19359 0.98039 0.0
H2476 H 0.10937 0.23961 0.98063 0.0
H2477 H 1.01559 0.25154 0.98838 0.0
H2478 H 0.96705 0.38368 0.9814 0.0
H2479 H 0.98569 0.33813 0.98193 0.0
C2480 C 0.15491 0.77522 0.74101 0.0
C2481 C 0.16057 0.74893 0.73701 0.0
C2482 C 0.12747 0.78641 0.74144 0.0
C2483 C 0.05012 0.76662 0.73743 0.0
H2484 H 1.03688 0.84379 0.74057 0.0
C2485 C 0.93443 0.81134 0.7401 0.0
C2486 C 0.9289 0.83932 0.73828 0.0
C2487 C 0.96193 0.80037 0.74023 0.0
C2488 C 0.03953 0.82208 0.73957 0.0
H2489 H 0.13963 0.71492 0.73013 0.0
H2490 H 0.09393 0.73376 0.73068 0.0
H2491 H 0.08352 0.82633 0.74011 0.0
H2492 H 0.95008 0.87687 0.73498 0.0
H2493 H 0.99616 0.85848 0.73503 0.0
H2494 H 1.00621 0.76237 0.73671 0.0
C2495 C 0.11008 0.74603 0.7338 0.0
C2496 C 0.06713 0.81176 0.73943 0.0
C2497 C 0.13714 0.73498 0.73341 0.0
C2498 C 0.95254 0.85536 0.73655 0.0
C2499 C 0.97974 0.84452 0.73664 0.0
C2500 C 1.02254 0.77693 0.73755 0.0
C2501 C 0.10393 0.77209 0.73789 0.0
C2502 C 0.07359 0.78361 0.73829 0.0
C2503 C 0.98571 0.81662 0.73852 0.0
C2504 C 1.01607 0.8051 0.73857 0.0
H2505 H 0.17163 0.78719 0.74391 0.0
H2506 H 0.12484 0.80641 0.74473 0.0
H2507 H 0.05272 0.74482 0.73673 0.0
H2508 H 0.91749 0.79772 0.74144 0.0
H2509 H 0.96434 0.77889 0.74179 0.0
C2510 C 1.00742 0.17495 0.4841 0.0
C2511 C 0.98012 0.16996 0.48101 0.0
C2512 C 1.01878 0.20205 0.48444 0.0
C2513 C 0.99866 0.27983 0.48237 0.0
H2514 H 0.07675 0.29072 0.48217 0.0
C2515 C 0.04754 0.39362 0.48493 0.0
C2516 C 0.07468 0.39816 0.48152 0.0
C2517 C 1.03563 0.36666 0.48519 0.0
C2518 C 0.05476 0.28875 0.48212 0.0
H2519 H 0.94428 0.19173 0.47576 0.0
H2520 H 0.96334 0.23721 0.47626 0.0
H2521 H 0.05852 0.24483 0.48177 0.0
H2522 H 0.10935 0.37562 0.47549 0.0
H2523 H 0.08942 0.33091 0.4758 0.0
H2524 H 0.99497 0.32384 0.48257 0.0
C2525 C 0.97639 0.2206 0.47864 0.0
C2526 C 0.04402 0.26156 0.48203 0.0
C2527 C 0.96519 0.19376 0.47828 0.0
C2528 C 0.08867 0.3741 0.47833 0.0
C2529 C 0.07697 0.34757 0.47858 0.0
C2530 C 1.00942 0.30706 0.48247 0.0
C2531 C 1.00359 0.226 0.48176 0.0
C2532 C 1.01552 0.25594 0.48208 0.0
C2533 C 0.05008 0.34253 0.48206 0.0
C2534 C 0.03793 0.31266 0.48227 0.0
H2535 H 1.02016 0.15789 0.4863 0.0
H2536 H 0.03966 0.20405 0.48696 0.0
H2537 H 0.97668 0.27778 0.4826 0.0
H2538 H 1.0354 0.41085 0.48746 0.0
H2539 H 1.01497 0.36485 0.48799 0.0
C2540 C 0.63542 0.23078 0.2358 0.0
C2541 C 0.65914 0.24711 0.23696 0.0
C2542 C 0.60817 0.24151 0.23614 0.0
C2543 C 0.56491 0.30842 0.2356 0.0
H2544 H 0.5052 0.26047 0.24241 0.0
C2545 C 0.45087 0.35284 0.23875 0.0
C2546 C 0.42693 0.33654 0.23843 0.0
C2547 C 0.478 0.34188 0.23875 0.0
C2548 C 0.52117 0.27453 0.24036 0.0
H2549 H 0.67055 0.28911 0.23935 0.0
H2550 H 0.62357 0.30786 0.23993 0.0
H2551 H 0.55206 0.2433 0.24224 0.0
H2552 H 0.41511 0.29417 0.23777 0.0
H2553 H 0.46193 0.27498 0.23767 0.0
H2554 H 0.5342 0.33957 0.23362 0.0
C2555 C 0.62605 0.28618 0.23873 0.0
C2556 C 0.54885 0.26442 0.24025 0.0
C2557 C 0.65359 0.27528 0.23846 0.0
C2558 C 0.43221 0.30803 0.23814 0.0
C2559 C 0.45971 0.29689 0.23808 0.0
C2560 C 0.53724 0.3185 0.23567 0.0
C2561 C 0.60224 0.2696 0.23761 0.0
C2562 C 0.57186 0.28095 0.23787 0.0
C2563 C 0.48374 0.3135 0.23831 0.0
C2564 C 0.51417 0.30203 0.23809 0.0
H2565 H 0.63783 0.20909 0.23454 0.0
H2566 H 0.5916 0.22734 0.23503 0.0
H2567 H 0.58093 0.32243 0.23355 0.0
H2568 H 0.44877 0.37481 0.239 0.0
H2569 H 0.49458 0.35626 0.23917 0.0
C2570 C 0.54608 0.88821 0.98432 0.0
C2571 C 0.57244 0.89323 0.98024 0.0
C2572 C 0.53482 0.86102 0.98496 0.0
C2573 C 0.55484 0.78336 0.98151 0.0
H2574 H 0.47748 0.77095 0.98471 0.0
C2575 C 0.51088 0.66841 0.98483 0.0
C2576 C 0.48276 0.6629 0.9832 0.0
C2577 C 0.52165 0.69578 0.98477 0.0
C2578 C 0.49926 0.77336 0.98371 0.0
H2579 H 0.60639 0.87131 0.97344 0.0
H2580 H 0.5875 0.82617 0.97436 0.0
H2581 H 0.49475 0.81729 0.98395 0.0
H2582 H 0.44476 0.68408 0.98003 0.0
H2583 H 0.46279 0.72991 0.97978 0.0
H2584 H 0.5594 0.73955 0.9811 0.0
C2585 C 0.57523 0.84262 0.97739 0.0
C2586 C 0.50946 0.8008 0.98338 0.0
C2587 C 0.58631 0.8694 0.97678 0.0
C2588 C 0.4664 0.68649 0.98146 0.0
C2589 C 0.47704 0.71357 0.98137 0.0
C2590 C 0.54467 0.75596 0.98182 0.0
C2591 C 0.54915 0.83709 0.98156 0.0
C2592 C 0.53768 0.80697 0.9822 0.0
C2593 C 0.50508 0.71951 0.98305 0.0
C2594 C 0.51643 0.74975 0.98288 0.0
H2595 H 0.53408 0.90525 0.9871 0.0
H2596 H 0.51477 0.8589 0.98827 0.0
H2597 H 0.57671 0.78572 0.9808 0.0
H2598 H 0.52478 0.65153 0.98615 0.0
H2599 H 0.54327 0.69811 0.98619 0.0
C2600 C 0.14412 0.29362 0.86856 0.0
C2601 C 0.14926 0.32078 0.87172 0.0
C2602 C 0.11676 0.28247 0.86826 0.0
C2603 C 0.03895 0.30376 0.87081 0.0
H2604 H 1.02602 0.2263 0.87065 0.0
C2605 C 0.92341 0.25956 0.869 0.0
C2606 C 0.91782 0.23235 0.87191 0.0
C2607 C 0.9509 0.27022 0.86866 0.0
C2608 C 1.02858 0.24814 0.8708 0.0
H2609 H 0.12735 0.35639 0.87724 0.0
H2610 H 0.08198 0.33772 0.87687 0.0
H2611 H 0.07264 0.24333 0.8708 0.0
H2612 H 0.93898 0.19592 0.87689 0.0
H2613 H 0.98494 0.21381 0.87645 0.0
H2614 H 0.99499 0.30865 0.87097 0.0
C2615 C 0.09845 0.32465 0.87432 0.0
C2616 C 0.05617 0.25815 0.87076 0.0
C2617 C 0.12538 0.33561 0.87461 0.0
C2618 C 0.94142 0.21682 0.87449 0.0
C2619 C 0.9686 0.22733 0.87417 0.0
C2620 C 1.01139 0.29376 0.87086 0.0
C2621 C 0.0928 0.29773 0.87109 0.0
C2622 C 0.06252 0.2864 0.87084 0.0
C2623 C 0.97464 0.2544 0.87121 0.0
C2624 C 1.005 0.26553 0.87092 0.0
H2625 H 0.16119 0.28086 0.86629 0.0
H2626 H 0.11452 0.26171 0.86567 0.0
H2627 H 0.04147 0.32561 0.87065 0.0
H2628 H 0.90653 0.27279 0.86696 0.0
H2629 H 0.95336 0.29107 0.86626 0.0
C2630 C 0.48844 0.38497 0.62816 0.0
C2631 C 0.50338 0.40847 0.62527 0.0
C2632 C 0.49941 0.35793 0.62786 0.0
C2633 C 0.56637 0.31511 0.62397 0.0
H2634 H 0.51648 0.25425 0.62494 0.0
C2635 C 0.60988 0.2014 0.62785 0.0
C2636 C 0.59486 0.17759 0.62538 0.0
C2637 C 0.59867 0.22831 0.62752 0.0
C2638 C 0.53117 0.27059 0.62461 0.0
H2639 H 0.54338 0.41961 0.61976 0.0
H2640 H 0.56248 0.37291 0.61911 0.0
H2641 H 0.49885 0.30068 0.6247 0.0
H2642 H 0.55434 0.16573 0.62064 0.0
H2643 H 0.53478 0.21228 0.61995 0.0
H2644 H 0.59866 0.28503 0.62356 0.0
C2645 C 0.5417 0.37544 0.62175 0.0
C2646 C 0.52081 0.2981 0.6246 0.0
C2647 C 0.53058 0.40285 0.62207 0.0
C2648 C 0.56727 0.18275 0.62258 0.0
C2649 C 0.55587 0.21007 0.62224 0.0
C2650 C 0.57672 0.28762 0.62397 0.0
C2651 C 0.52642 0.35185 0.62461 0.0
C2652 C 0.53798 0.32156 0.62435 0.0
C2653 C 0.57128 0.23397 0.62466 0.0
C2654 C 0.55958 0.26418 0.62437 0.0
H2655 H 0.46761 0.38738 0.6308 0.0
H2656 H 0.48628 0.34174 0.63041 0.0
H2657 H 0.5811 0.33143 0.62379 0.0
H2658 H 0.63098 0.19938 0.63018 0.0
H2659 H 0.61191 0.24478 0.62973 0.0
C2660 C 0.61933 0.8383 0.37466 0.0
C2661 C 0.64341 0.82368 0.37188 0.0
C2662 C 0.59245 0.82716 0.37408 0.0
C2663 C 0.55119 0.76023 0.36954 0.0
H2664 H 0.48911 0.80958 0.36999 0.0
C2665 C 0.43716 0.71628 0.37164 0.0
C2666 C 0.41336 0.73162 0.36914 0.0
C2667 C 0.46411 0.72737 0.37171 0.0
C2668 C 0.50579 0.79501 0.36979 0.0
H2669 H 0.65586 0.78409 0.36628 0.0
H2670 H 0.60949 0.76472 0.36516 0.0
H2671 H 0.53531 0.82739 0.3703 0.0
H2672 H 0.4015 0.77242 0.36479 0.0
H2673 H 0.44797 0.79172 0.36475 0.0
H2674 H 0.52168 0.72787 0.36873 0.0
C2675 C 0.61138 0.78536 0.36791 0.0
C2676 C 0.53317 0.8055 0.37011 0.0
C2677 C 0.63859 0.79666 0.3685 0.0
C2678 C 0.41853 0.7593 0.36674 0.0
C2679 C 0.44582 0.77054 0.36678 0.0
C2680 C 0.52381 0.74973 0.36921 0.0
C2681 C 0.58717 0.8003 0.37064 0.0
C2682 C 0.55706 0.78856 0.37006 0.0
C2683 C 0.46975 0.75492 0.36925 0.0
C2684 C 0.49991 0.76667 0.36939 0.0
H2685 H 0.62115 0.85897 0.37742 0.0
H2686 H 0.57572 0.84002 0.37655 0.0
H2687 H 0.56788 0.74566 0.3695 0.0
H2688 H 0.43505 0.69506 0.37367 0.0
H2689 H 0.48059 0.7139 0.3739 0.0
C2690 C 1.0281 0.90008 0.12438 0.0
C2691 C 1.00014 0.90546 0.12662 0.0
C2692 C 0.03911 0.87263 0.12385 0.0
C2693 C 1.0168 0.79542 0.12363 0.0
H2694 H 0.09397 0.78078 0.12663 0.0
C2695 C 0.06213 0.67973 0.12103 0.0
C2696 C 0.088 0.67334 0.12528 0.0
C2697 C 0.05138 0.70731 0.1208 0.0
C2698 C 0.07217 0.78381 0.12587 0.0
H2699 H 0.96284 0.88385 0.13018 0.0
H2700 H 0.98122 0.83817 0.12938 0.0
H2701 H 0.07706 0.8275 0.12712 0.0
H2702 H 0.12171 0.69326 0.13279 0.0
H2703 H 0.10364 0.73907 0.13253 0.0
H2704 H 1.01185 0.75172 0.12251 0.0
C2705 C 0.99511 0.85463 0.12777 0.0
C2706 C 0.06227 0.81148 0.12603 0.0
C2707 C 0.9843 0.88169 0.12831 0.0
C2708 C 0.10196 0.69624 0.1293 0.0
C2709 C 0.09139 0.72341 0.12909 0.0
C2710 C 1.02669 0.76775 0.12346 0.0
C2711 C 1.02288 0.84879 0.12549 0.0
C2712 C 1.03414 0.81844 0.125 0.0
C2713 C 0.06577 0.73028 0.12479 0.0
C2714 C 0.05477 0.76075 0.12465 0.0
H2715 H 0.04166 0.91706 0.12306 0.0
H2716 H 0.06056 0.87025 0.12204 0.0
H2717 H 0.9951 0.7985 0.12257 0.0
H2718 H 0.05014 0.66349 0.1178 0.0
H2719 H 1.03168 0.71053 0.11733 0.0
C2720 C 0.26411 0.23298 0.34074 0.0
C2721 C 0.26675 0.24981 0.34934 0.0
C2722 C 0.27011 0.2425 0.33079 0.0
C2723 C 0.29973 0.30537 0.31595 0.0
H2724 H 0.27807 0.26384 0.29277 0.0
C2725 C 0.33077 0.34312 0.27467 0.0
C2726 C 0.31821 0.3328 0.26589 0.0
C2727 C 0.32448 0.33328 0.2845 0.0
C2728 C 0.28435 0.27629 0.29901 0.0
H2729 H 0.27796 0.29097 0.3534 0.0
H2730 H 0.2876 0.30727 0.33668 0.0
H2731 H 0.26741 0.24731 0.3094 0.0
H2732 H 0.28831 0.30298 0.26134 0.0
H2733 H 0.27721 0.2863 0.27806 0.0
H2734 H 0.31602 0.33469 0.3056 0.0
C2735 C 0.28144 0.28627 0.33738 0.0
C2736 C 0.27829 0.26634 0.30887 0.0
C2737 C 0.27561 0.27674 0.34727 0.0
C2738 C 0.29884 0.3119 0.26765 0.0
C2739 C 0.29249 0.30202 0.27749 0.0
C2740 C 0.30566 0.31537 0.30611 0.0
C2741 C 0.27906 0.26961 0.32869 0.0
C2742 C 0.28573 0.28044 0.31778 0.0
C2743 C 0.30509 0.31225 0.28634 0.0
C2744 C 0.2983 0.30125 0.2972 0.0
H2745 H 0.25743 0.21216 0.34168 0.0
H2746 H 0.26783 0.22811 0.32474 0.0
H2747 H 0.3066 0.31761 0.32216 0.0
H2748 H 0.34596 0.3589 0.27396 0.0
H2749 H 0.33547 0.34224 0.29067 0.0
C2750 C 0.99841 1.03544 0.51158 0.0
C2751 C 0.98225 0.05903 0.50971 0.0
C2752 C 1.00913 1.029 0.52129 0.0
C2753 C 1.00782 0.05202 0.54956 0.0
H2754 H 0.06392 0.99676 0.55223 0.0
C2755 C 0.05039 1.02095 0.59034 0.0
C2756 C 0.07485 1.00557 0.59159 0.0
C2757 C 0.03925 1.02732 0.58067 0.0
C2758 C 0.04844 1.01253 0.55188 0.0
H2759 H 0.96561 0.09424 0.51741 0.0
H2760 H 0.98407 0.08372 0.53389 0.0
H2761 H 0.04595 1.00777 0.53589 0.0
H2762 H 0.10622 0.98535 0.58283 0.0
H2763 H 0.08783 0.99651 0.56643 0.0
H2764 H 1.01083 0.05725 0.56552 0.0
C2765 C 0.98841 0.06943 0.52794 0.0
C2766 C 1.03752 1.01883 0.54219 0.0
C2767 C 0.9776 0.07575 0.51823 0.0
C2768 C 0.08744 0.99713 0.58251 0.0
C2769 C 0.07644 1.00358 0.57286 0.0
C2770 C 1.01882 0.0458 0.55924 0.0
C2771 C 1.00467 0.04577 0.52989 0.0
C2772 C 1.01671 0.03884 0.5406 0.0
C2773 C 0.05181 1.01888 0.57151 0.0
C2774 C 0.03962 1.02578 0.56083 0.0
H2775 H 1.00291 1.02165 0.50546 0.0
H2776 H 1.02089 1.01039 0.52196 0.0
H2777 H 0.99189 0.06736 0.54923 0.0
H2778 H 0.03947 1.02804 0.5969 0.0
H2779 H 1.02031 0.03877 0.5805 0.0
C2780 C 0.30235 0.8126 0.84621 0.0
C2781 C 0.32166 0.83356 0.84798 0.0
C2782 C 0.29612 0.80259 0.83642 0.0
C2783 C 0.30629 0.81646 0.80795 0.0
H2784 H 0.2756 0.74444 0.80506 0.0
C2785 C 0.28654 0.76872 0.76722 0.0
C2786 C 0.26767 0.74728 0.7656 0.0
C2787 C 0.29303 0.77891 0.77697 0.0
C2788 C 0.28383 0.7648 0.80552 0.0
H2789 H 0.34937 0.8599 0.83998 0.0
H2790 H 0.33888 0.84275 0.82315 0.0
H2791 H 0.28666 0.76193 0.82156 0.0
H2792 H 0.24101 0.72036 0.77381 0.0
H2793 H 0.25182 0.73782 0.79051 0.0
H2794 H 0.30344 0.81932 0.7919 0.0
C2795 C 0.32803 0.83394 0.82939 0.0
C2796 C 0.29035 0.77514 0.81526 0.0
C2797 C 0.33431 0.84396 0.83924 0.0
C2798 C 0.25572 0.73666 0.77443 0.0
C2799 C 0.26221 0.74686 0.78422 0.0
C2800 C 0.29974 0.80612 0.79821 0.0
C2801 C 0.30874 0.81276 0.82761 0.0
C2802 C 0.30181 0.8014 0.81687 0.0
C2803 C 0.2811 0.76846 0.78587 0.0
C2804 C 0.28823 0.77986 0.79659 0.0
H2805 H 0.29178 0.80362 0.85249 0.0
H2806 H 0.28086 0.78683 0.83584 0.0
H2807 H 0.31457 0.8368 0.80843 0.0
H2808 H 0.29654 0.77789 0.76085 0.0
H2809 H 0.30792 0.79504 0.77744 0.0
C2810 C 0.50474 1.02916 0.0894 0.0
C2811 C 0.48649 0.05121 0.09136 0.0
C2812 C 0.51514 1.02304 0.07958 0.0
C2813 C 0.50734 0.04157 1.0512 0.0
H2814 H 0.57217 0.99674 1.04813 0.0
C2815 C 0.54669 1.00857 1.01024 0.0
C2816 C 0.57387 0.99944 1.00834 0.0
C2817 C 0.53663 1.01474 1.02008 0.0
C2818 C 0.5541 1.0095 1.04862 0.0
H2819 H 0.46566 0.084 0.08368 0.0
H2820 H 0.48341 0.07384 0.06695 0.0
H2821 H 0.55475 1.00746 0.06473 0.0
H2822 H 0.61133 0.99004 1.01621 0.0
H2823 H 0.59439 1.00085 1.03306 0.0
H2824 H 0.50699 0.0441 1.03511 0.0
C2825 C 0.48972 0.06061 0.07297 0.0
C2826 C 0.5436 1.01558 0.05843 0.0
C2827 C 0.47933 0.06671 0.0828 0.0
C2828 C 0.59035 0.9969 1.01702 0.0
C2829 C 0.58028 1.0031 1.02691 0.0
C2830 C 0.51781 1.03547 1.04139 0.0
C2831 C 0.50813 0.03854 0.07095 0.0
C2832 C 0.51975 1.03186 0.06014 0.0
C2833 C 0.55296 1.0123 1.02884 0.0
C2834 C 0.54162 1.01914 1.03968 0.0
H2835 H 0.51126 1.01638 0.09554 0.0
H2836 H 0.52868 1.00565 0.07884 0.0
H2837 H 0.48898 0.0539 1.05166 0.0
H2838 H 0.53271 1.01086 1.00403 0.0
H2839 H 0.5155 1.02112 1.02073 0.0
C2840 C 0.30536 0.76246 0.33872 0.0
C2841 C 0.30387 0.73438 0.34122 0.0
C2842 C 0.29959 0.77251 0.32888 0.0
C2843 C 0.26156 0.75776 0.30455 0.0
H2844 H 0.30891 0.81126 0.29239 0.0
C2845 C 0.23335 0.81759 0.26633 0.0
C2846 C 0.25393 0.8201 0.25888 0.0
C2847 C 0.23897 0.80705 0.27613 0.0
C2848 C 0.29521 0.79637 0.29557 0.0
H2849 H 0.29416 0.69537 0.33458 0.0
H2850 H 0.28287 0.71281 0.31781 0.0
H2851 H 0.31886 0.79394 0.30923 0.0
H2852 H 0.2973 0.81319 0.25667 0.0
H2853 H 0.30718 0.79663 0.27362 0.0
H2854 H 0.23734 0.76099 0.29103 0.0
C2855 C 0.2891 0.72724 0.32348 0.0
C2856 C 0.30096 0.78634 0.30541 0.0
C2857 C 0.29574 0.71705 0.33325 0.0
C2858 C 0.28055 0.81194 0.26195 0.0
C2859 C 0.28632 0.80229 0.27184 0.0
C2860 C 0.2553 0.76849 0.29484 0.0
C2861 C 0.29106 0.7553 0.32093 0.0
C2862 C 0.28448 0.7665 0.31022 0.0
C2863 C 0.2657 0.79921 0.27924 0.0
C2864 C 0.27205 0.78798 0.28997 0.0
H2865 H 0.31151 0.77693 0.34439 0.0
H2866 H 0.30146 0.79416 0.32756 0.0
H2867 H 0.24795 0.74277 0.30772 0.0
H2868 H 0.21252 0.82328 0.26452 0.0
H2869 H 0.22216 0.80542 0.28137 0.0
C2870 C 0.60865 0.07375 0.58899 0.0
C2871 C 0.59235 0.07076 0.59771 0.0
C2872 C 0.59857 0.0679 0.57914 0.0
C2873 C 0.53163 0.05244 0.56425 0.0
H2874 H 0.58146 1.0357 0.54259 0.0
C2875 C 0.48847 1.01959 0.52407 0.0
C2876 C 0.50444 1.02128 0.51522 0.0
C2877 C 0.49915 1.0256 0.53378 0.0
C2878 C 0.56679 0.04056 0.54839 0.0
H2879 H 0.55168 0.05868 0.60221 0.0
H2880 H 0.5345 0.04842 0.5855 0.0
H2881 H 0.59918 0.04561 0.55919 0.0
H2882 H 0.54538 1.03123 0.51036 0.0
H2883 H 0.56371 0.04197 0.52693 0.0
H2884 H 0.49926 0.0476 0.5535 0.0
C2885 C 0.55525 0.0557 0.58611 0.0
C2886 C 0.57725 0.0464 0.55819 0.0
C2887 C 0.56536 0.06149 0.59593 0.0
C2888 C 0.53191 1.02949 0.51675 0.0
C2889 C 0.54264 1.03557 0.52649 0.0
C2890 C 0.52119 0.04666 0.55447 0.0
C2891 C 0.57141 0.05873 0.57731 0.0
C2892 C 0.56007 0.05249 0.56651 0.0
C2893 C 0.52667 1.03384 0.53541 0.0
C2894 C 0.53832 0.04041 0.54614 0.0
H2895 H 0.62947 0.08079 0.58974 0.0
H2896 H 0.61231 0.07109 0.57292 0.0
H2897 H 0.51694 0.05737 0.57004 0.0
H2898 H 0.46733 1.01336 0.52353 0.0
H2899 H 0.48547 1.02325 0.54007 0.0
C2900 C 0.29844 0.26054 0.76202 0.0
C2901 C 0.31208 0.23531 0.76022 0.0
C2902 C 0.29201 0.27047 0.77185 0.0
C2903 C 0.30468 0.25777 0.80043 0.0
H2904 H 0.24914 0.31357 0.80374 0.0
C2905 C 0.27072 0.29579 0.84157 0.0
C2906 C 0.25738 0.32123 0.84327 0.0
C2907 C 0.27729 0.28567 0.83177 0.0
C2908 C 0.26503 0.29821 0.80317 0.0
H2909 H 0.3294 0.20125 0.76832 0.0
H2910 H 0.31825 0.21796 0.78517 0.0
H2911 H 0.25995 0.29606 0.78718 0.0
H2912 H 0.24084 0.35545 0.83505 0.0
H2913 H 0.25218 0.33842 0.81829 0.0
H2914 H 0.30968 0.25991 0.81645 0.0
C2915 C 0.3125 0.23063 0.77892 0.0
C2916 C 0.27145 0.28784 0.79338 0.0
C2917 C 0.31891 0.22066 0.76903 0.0
C2918 C 0.25104 0.33587 0.83441 0.0
C2919 C 0.25756 0.32571 0.82457 0.0
C2920 C 0.29824 0.26813 0.81024 0.0
C2921 C 0.29874 0.25598 0.78074 0.0
C2922 C 0.29158 0.2672 0.79157 0.0
C2923 C 0.27097 0.30016 0.82284 0.0
C2924 C 0.27814 0.2888 0.81203 0.0
H2925 H 0.29267 0.27308 0.75572 0.0
H2926 H 0.28196 0.2901 0.7724 0.0
H2927 H 0.32055 0.24239 0.79986 0.0
H2928 H 0.27613 0.28328 0.84793 0.0
H2929 H 0.28711 0.26591 0.83127 0.0
C2930 C 0.10244 0.07701 1.02566 0.0
C2931 C 0.0917 0.06499 1.01685 0.0
C2932 C 0.09225 0.07084 1.03549 0.0
C2933 C 0.03943 1.02458 1.05 0.0
H2934 H 0.06372 0.066 0.07288 0.0
C2935 C 0.98973 1.00707 0.09079 0.0
C2936 C 1.00438 1.01325 0.09967 0.0
C2937 C 1.00003 1.01319 0.08098 0.0
C2938 C 0.05655 0.05373 0.0667 0.0
H2939 H 0.06057 1.03654 1.01222 0.0
H2940 H 0.04293 1.02626 1.02879 0.0
H2941 H 0.08132 0.0764 0.05637 0.0
H2942 H 0.04245 1.03133 0.10443 0.0
H2943 H 0.06003 0.04187 0.08775 0.0
H2944 H 1.0145 1.00207 0.06043 0.0
C2945 C 0.05971 0.04038 1.02836 0.0
C2946 C 0.06692 0.05989 0.05691 0.0
C2947 C 0.07002 0.04645 1.01856 0.0
C2948 C 1.02997 1.02608 0.09804 0.0
C2949 C 0.04019 1.03237 0.08825 0.0
C2950 C 1.02893 1.01857 0.05978 0.0
C2951 C 0.07036 0.05229 1.03728 0.0
C2952 C 0.05887 0.04555 1.04811 0.0
C2953 C 1.02569 1.02611 0.07932 0.0
C2954 C 1.0371 1.03286 0.06854 0.0
H2955 H 0.119 0.09142 1.025 0.0
H2956 H 0.10202 0.08088 1.0417 0.0
H2957 H 1.03211 1.01216 1.04391 0.0
H2958 H 0.97003 0.99728 0.09139 0.0
H2959 H 0.98736 1.00794 0.07466 0.0
C2960 C 0.75654 0.73043 0.83861 0.0
C2961 C 0.76727 0.74246 0.84743 0.0
C2962 C 0.76256 0.74051 0.82877 0.0
C2963 C 0.80865 0.79259 0.81421 0.0
H2964 H 0.76354 0.77273 0.79169 0.0
C2965 C 0.82698 0.84337 0.77392 0.0
C2966 C 0.81873 0.83044 0.76491 0.0
C2967 C 0.82075 0.8327 0.78363 0.0
C2968 C 0.77684 0.77861 0.79775 0.0
H2969 H 0.79319 0.77574 0.85205 0.0
H2970 H 0.80319 0.79316 0.83541 0.0
H2971 H 0.75319 0.75507 0.80825 0.0
H2972 H 0.79677 0.79492 0.7598 0.0
H2973 H 0.78602 0.77657 0.77638 0.0
H2974 H 0.83224 0.81617 0.80372 0.0
C2975 C 0.79033 0.77539 0.8359 0.0
C2976 C 0.77075 0.76818 0.80754 0.0
C2977 C 0.78437 0.76527 0.84571 0.0
C2978 C 0.80368 0.80607 0.7663 0.0
C2979 C 0.79731 0.79541 0.77604 0.0
C2980 C 0.81466 0.80308 0.80445 0.0
C2981 C 0.77971 0.76345 0.827 0.0
C2982 C 0.78639 0.77476 0.81619 0.0
C2983 C 0.80569 0.80827 0.78509 0.0
C2984 C 0.799 0.79656 0.79582 0.0
H2985 H 0.74328 0.71295 0.83929 0.0
H2986 H 0.75371 0.72981 0.8225 0.0
H2987 H 0.82213 0.79845 0.82022 0.0
H2988 H 0.83854 0.86207 0.7735 0.0
H2989 H 0.82766 0.84415 0.79004 0.0
C2990 C 0.83459 0.35153 0.33875 0.0
C2991 C 0.82273 0.34091 0.34762 0.0
C2992 C 0.82833 0.3411 0.32897 0.0
C2993 C 0.77871 0.29247 0.31449 0.0
H2994 H 0.82832 0.30434 0.29243 0.0
C2995 C 0.75726 0.24169 0.27421 0.0
C2996 C 0.76927 0.25185 0.26531 0.0
C2997 C 0.7637 0.25224 0.28395 0.0
C2998 C 0.81369 0.30077 0.29834 0.0
H2999 H 0.79445 0.30981 0.35239 0.0
H3000 H 0.78387 0.29188 0.3358 0.0
H3001 H 0.83898 0.32233 0.30892 0.0
H3002 H 0.79811 0.28229 0.26041 0.0
H3003 H 0.80901 0.30049 0.27695 0.0
H3004 H 0.75338 0.27097 0.30393 0.0
C3005 C 0.79793 0.30875 0.33624 0.0
C3006 C 0.81999 0.3114 0.30808 0.0
C3007 C 0.80421 0.31915 0.34601 0.0
C3008 C 0.7882 0.27331 0.26683 0.0
C3009 C 0.79465 0.28388 0.27656 0.0
C3010 C 0.77239 0.28186 0.30475 0.0
C3011 C 0.80972 0.31926 0.32731 0.0
C3012 C 0.80278 0.30767 0.31657 0.0
C3013 C 0.78264 0.27381 0.28554 0.0
C3014 C 0.78962 0.28554 0.29626 0.0
H3015 H 0.84894 0.36816 0.33935 0.0
H3016 H 0.83812 0.35067 0.32265 0.0
H3017 H 0.76406 0.28892 0.32039 0.0
H3018 H 0.74262 0.2253 0.27369 0.0
H3019 H 0.75375 0.24295 0.29029 0.0
C3020 C 0.75637 0.34079 0.76947 0.0
C3021 C 0.75846 0.32488 0.76061 0.0
C3022 C 0.76236 0.33005 0.77923 0.0
C3023 C 0.79317 0.26636 0.79314 0.0
H3024 H 0.76606 0.3031 0.81677 0.0
C3025 C 0.82347 0.22595 0.8343 0.0
C3026 C 0.80812 0.23332 0.84293 0.0
C3027 C 0.81764 0.2367 0.82453 0.0
C3028 C 0.77391 0.29199 0.81039 0.0
H3029 H 0.76892 0.28395 0.75584 0.0
H3030 H 0.77891 0.26552 0.77237 0.0
H3031 H 0.75573 0.32125 0.80032 0.0
H3032 H 0.77386 0.25886 0.8473 0.0
H3033 H 0.76358 0.27689 0.83072 0.0
H3034 H 0.81093 0.23682 0.8032 0.0
C3035 C 0.77297 0.28673 0.77194 0.0
C3036 C 0.76807 0.30292 0.80066 0.0
C3037 C 0.76698 0.29749 0.7622 0.0
C3038 C 0.78651 0.25215 0.8411 0.0
C3039 C 0.78066 0.26291 0.83135 0.0
C3040 C 0.79903 0.25544 0.80287 0.0
C3041 C 0.7709 0.30254 0.78087 0.0
C3042 C 0.77743 0.29056 0.79161 0.0
C3043 C 0.79601 0.25571 0.82265 0.0
C3044 C 0.78962 0.26777 0.81191 0.0
H3045 H 0.74997 0.3619 0.7689 0.0
H3046 H 0.76046 0.34382 0.78551 0.0
H3047 H 0.80151 0.25557 0.78676 0.0
H3048 H 0.84044 0.21183 0.83508 0.0
H3049 H 0.83072 0.23018 0.81845 0.0
C3050 C 0.76971 0.80205 0.34165 0.0
C3051 C 0.75145 0.82427 0.3433 0.0
C3052 C 0.77611 0.79174 0.33187 0.0
C3053 C 0.76899 0.80693 0.30331 0.0
H3054 H 0.79504 0.7328 0.30038 0.0
C3055 C 0.79043 0.75917 0.26239 0.0
C3056 C 0.80696 0.73553 0.26099 0.0
C3057 C 0.78361 0.76981 0.27211 0.0
C3058 C 0.78818 0.75374 0.30082 0.0
H3059 H 0.72583 0.85247 0.33509 0.0
H3060 H 0.73668 0.83493 0.31834 0.0
H3061 H 0.78403 0.7507 0.31684 0.0
H3062 H 0.82908 0.7053 0.26957 0.0
H3063 H 0.81789 0.72344 0.28609 0.0
H3064 H 0.7732 0.81002 0.2873 0.0
C3065 C 0.74655 0.82529 0.32465 0.0
C3066 C 0.78166 0.76431 0.31056 0.0
C3067 C 0.74006 0.83555 0.33446 0.0
C3068 C 0.81622 0.72332 0.26999 0.0
C3069 C 0.80948 0.73396 0.2797 0.0
C3070 C 0.7756 0.79639 0.29356 0.0
C3071 C 0.76478 0.8029 0.32297 0.0
C3072 C 0.77183 0.79134 0.31222 0.0
C3073 C 0.79287 0.75765 0.28118 0.0
C3074 C 0.7855 0.76934 0.29191 0.0
H3075 H 0.77923 0.79231 0.34802 0.0
H3076 H 0.79046 0.77493 0.33137 0.0
H3077 H 0.76199 0.82784 0.30381 0.0
H3078 H 0.78258 0.76969 0.25589 0.0
H3079 H 0.77062 0.7877 0.27241 0.0
C3080 C 0.58077 0.48171 0.08493 0.0
C3081 C 0.57727 0.49981 0.09315 0.0
C3082 C 0.57118 0.48794 0.07503 0.0
C3083 C 0.52559 0.53959 0.05996 0.0
H3084 H 0.55413 0.50112 1.03691 0.0
C3085 C 0.47807 0.56007 1.01918 0.0
C3086 C 0.49206 0.55296 1.01022 0.0
C3087 C 0.48839 0.55357 1.02893 0.0
C3088 C 0.54566 0.51253 1.04312 0.0
H3089 H 0.56021 0.53951 0.09662 0.0
H3090 H 0.54407 0.55033 0.07983 0.0
H3091 H 0.57168 0.49089 1.05351 0.0
H3092 H 0.52919 0.53284 1.00525 0.0
H3093 H 0.54709 0.52191 1.02187 0.0
H3094 H 0.50003 0.56165 1.04961 0.0
C3095 C 0.55397 0.5308 0.0809 0.0
C3096 C 0.55581 0.50626 1.05294 0.0
C3097 C 0.56362 0.52459 0.09077 0.0
C3098 C 0.51719 0.53885 1.01171 0.0
C3099 C 0.5276 0.53236 1.02148 0.0
C3100 C 0.51546 0.54585 1.05015 0.0
C3101 C 0.55723 0.51271 0.07262 0.0
C3102 C 0.54618 0.51953 0.06178 0.0
C3103 C 0.51364 0.53951 1.03051 0.0
C3104 C 0.52501 0.53258 1.04131 0.0
H3105 H 0.59087 0.46231 0.08615 0.0
H3106 H 0.57448 0.47275 0.06928 0.0
H3107 H 0.51668 0.55063 0.06617 0.0
H3108 H 0.45872 0.57084 1.0187 0.0
H3109 H 0.47599 0.55955 1.03527 0.0
C3110 C 0.98301 0.56865 0.5852 0.0
C3111 C 0.99426 0.55695 0.59399 0.0
C3112 C 0.99294 0.56222 0.57533 0.0
C3113 C 0.04463 0.51467 0.5605 0.0
H3114 H 1.0223 0.55857 0.53798 0.0
C3115 C 0.09278 0.49559 0.51933 0.0
C3116 C 0.07852 0.50354 0.51055 0.0
C3117 C 0.08296 0.50181 0.52924 0.0
C3118 C 1.02888 0.54557 0.54404 0.0
H3119 H 1.02606 0.52875 0.59851 0.0
H3120 H 0.0433 0.51803 0.58183 0.0
H3121 H 1.00534 0.56931 0.55461 0.0
H3122 H 0.04165 0.52491 0.50611 0.0
H3123 H 1.02493 0.53557 0.52291 0.0
H3124 H 0.06838 0.4911 0.54985 0.0
C3125 C 1.02625 0.53207 0.58235 0.0
C3126 C 1.01886 0.55191 0.55389 0.0
C3127 C 1.01621 0.53842 0.5922 0.0
C3128 C 0.05383 0.51821 0.5124 0.0
C3129 C 0.04411 0.52458 0.52228 0.0
C3130 C 0.05477 0.50844 0.55064 0.0
C3131 C 1.01507 0.54369 0.57346 0.0
C3132 C 1.02622 0.53671 0.56257 0.0
C3133 C 0.05821 0.51661 0.53112 0.0
C3134 C 0.04727 0.52358 0.542 0.0
H3135 H 0.96621 0.58301 0.58591 0.0
H3136 H 0.98274 0.57197 0.56913 0.0
H3137 H 0.05129 0.50157 0.5665 0.0
H3138 H 0.11178 0.48429 0.51858 0.0
H3139 H 0.09527 0.49511 0.53548 0.0
C3140 C 0.10168 0.5828 0.0869 0.0
C3141 C 0.09323 0.5682 0.09551 0.0
C3142 C 0.09173 0.5766 0.07703 0.0
C3143 C 1.03717 0.53291 0.06267 0.0
H3144 H 0.0753 0.55809 1.03918 0.0
C3145 C 0.99123 0.51163 1.02168 0.0
C3146 C 1.00751 0.51346 1.01291 0.0
C3147 C 1.00138 0.51843 1.03143 0.0
C3148 C 0.06406 0.55041 1.04552 0.0
H3149 H 0.0669 0.53485 0.09972 0.0
H3150 H 0.05043 0.52394 0.08306 0.0
H3151 H 0.09294 0.56864 0.0557 0.0
H3152 H 0.04843 0.5243 1.00827 0.0
H3153 H 0.06596 0.5355 1.02484 0.0
H3154 H 1.00865 0.51418 1.05254 0.0
C3155 C 0.06447 0.54075 0.08375 0.0
C3156 C 0.07432 0.55694 0.05529 0.0
C3157 C 0.07433 0.54699 0.09356 0.0
C3158 C 1.03466 0.52251 1.01458 0.0
C3159 C 0.04487 0.52922 1.02433 0.0
C3160 C 1.02695 0.52635 1.05292 0.0
C3161 C 0.07262 0.55534 0.07507 0.0
C3162 C 0.06133 0.54841 0.06428 0.0
C3163 C 1.02866 0.52747 1.03317 0.0
C3164 C 0.03995 0.5348 1.04392 0.0
H3165 H 0.11596 0.59939 0.08777 0.0
H3166 H 0.09896 0.58905 0.07094 0.0
H3167 H 1.02552 0.52578 0.069 0.0
H3168 H 0.97026 0.50492 1.02103 0.0
H3169 H 0.9873 0.51676 1.03763 0.0
C3170 C 0.52772 0.53247 0.59612 0.0
C3171 C 0.50384 0.51657 0.59744 0.0
C3172 C 0.53828 0.53949 0.58648 0.0
C3173 C 0.52989 0.52542 0.55782 0.0
H3174 H 0.58244 0.58356 0.55543 0.0
C3175 C 0.58099 0.54997 0.51813 0.0
C3176 C 0.59429 0.57497 0.51608 0.0
C3177 C 0.57046 0.54323 0.52779 0.0
C3178 C 0.56766 0.56731 0.55571 0.0
H3179 H 0.47278 0.49599 0.58883 0.0
H3180 H 0.49035 0.50834 0.57231 0.0
H3181 H 0.56354 0.57226 0.57164 0.0
H3182 H 0.60613 0.61243 0.52338 0.0
H3183 H 0.58781 0.60126 0.53992 0.0
H3184 H 0.53332 0.52103 0.54186 0.0
C3185 C 0.50162 0.51531 0.57875 0.0
C3186 C 0.55674 0.56036 0.56533 0.0
C3187 C 0.49113 0.50817 0.58843 0.0
C3188 C 0.59643 0.59286 0.52438 0.0
C3189 C 0.58572 0.58618 0.53408 0.0
C3190 C 0.54071 0.53244 0.54821 0.0
C3191 C 0.52567 0.53125 0.57739 0.0
C3192 C 0.53746 0.53906 0.56679 0.0
C3193 C 0.5722 0.5611 0.53616 0.0
C3194 C 0.56013 0.55361 0.54675 0.0
H3195 H 0.53869 0.53952 0.60264 0.0
H3196 H 0.55687 0.55125 0.58628 0.0
H3197 H 0.51555 0.50878 0.55813 0.0
H3198 H 0.57856 0.53523 0.51217 0.0
H3199 H 0.56106 0.52351 0.5286 0.0
C3200 C 0.33386 0.17662 0.39985 0.0
C3201 C 0.30616 0.18559 0.40096 0.0
C3202 C 0.34848 0.16121 0.40742 0.0
C3203 C 0.35006 0.14252 0.43586 0.0
H3204 H 0.40046 0.08467 0.42856 0.0
C3205 C 0.42458 0.08608 0.46655 0.0
C3206 C 0.43024 0.05753 0.4659 0.0
C3207 C 0.40962 0.10115 0.45897 0.0
C3208 C 0.3866 0.10071 0.43095 0.0
H3209 H 0.27362 0.18418 0.41193 0.0
H3210 H 0.29881 0.15924 0.42497 0.0
H3211 H 0.37615 0.11062 0.41556 0.0
H3212 H 0.42378 1.02403 0.45567 0.0
H3213 H 0.3994 0.04975 0.44261 0.0
H3214 H 0.36124 0.13326 0.45123 0.0
C3215 C 0.30943 0.16361 0.41806 0.0
C3216 C 0.37236 0.11609 0.42328 0.0
C3217 C 0.29456 0.17823 0.41037 0.0
C3218 C 0.42017 0.04553 0.4569 0.0
C3219 C 0.40598 0.06075 0.44919 0.0
C3220 C 0.36497 0.12773 0.44351 0.0
C3221 C 0.337 0.15419 0.41692 0.0
C3222 C 0.35324 0.13755 0.42538 0.0
C3223 C 0.39983 0.08923 0.4499 0.0
C3224 C 0.38374 0.10597 0.44142 0.0
H3225 H 0.34442 0.18119 0.39294 0.0
H3226 H 0.36935 0.15511 0.40583 0.0
H3227 H 0.33611 0.15848 0.43825 0.0
H3228 H 0.4315 0.09704 0.47309 0.0
H3229 H 0.40617 0.1227 0.46021 0.0
C3230 C 0.28881 0.15013 0.70142 0.0
C3231 C 0.2756 0.16671 0.70882 0.0
C3232 C 0.27431 0.13525 0.69367 0.0
C3233 C 0.20021 0.1129 0.68448 0.0
H3234 H 0.23806 0.0854 0.66111 0.0
C3235 C 0.13985 0.04239 0.65431 0.0
C3236 C 0.14866 0.03718 0.64428 0.0
C3237 C 0.15513 0.05792 0.66157 0.0
C3238 C 0.22651 0.09272 0.66749 0.0
H3239 H 0.23457 0.179 0.71301 0.0
H3240 H 0.20994 0.15371 0.70003 0.0
H3241 H 0.26291 0.11083 0.67397 0.0
H3242 H 0.18345 0.04604 0.63482 0.0
H3243 H 0.20981 0.07263 0.64722 0.0
H3244 H 0.16385 0.09499 0.67806 0.0
C3245 C 0.23198 0.15187 0.7001 0.0
C3246 C 0.24129 0.10767 0.67517 0.0
C3247 C 0.24651 0.16694 0.70778 0.0
C3248 C 0.1747 0.04902 0.64218 0.0
C3249 C 0.1903 0.06455 0.64955 0.0
C3250 C 0.18552 0.09779 0.67687 0.0
C3251 C 0.24512 0.13528 0.69263 0.0
C3252 C 0.22887 0.11857 0.68406 0.0
C3253 C 0.18117 0.0698 0.65962 0.0
C3254 C 0.19785 0.08688 0.66798 0.0
H3255 H 0.31089 0.14862 0.70154 0.0
H3256 H 0.28647 0.12331 0.6885 0.0
H3257 H 0.18858 0.11994 0.69088 0.0
H3258 H 0.12049 1.0341 0.65674 0.0
H3259 H 0.14621 0.06008 0.66892 0.0
C3260 C 0.14596 1.00797 0.95844 0.0
C3261 C 0.15726 1.02736 0.96523 0.0
C3262 C 0.16182 0.99292 0.95115 0.0
C3263 C 0.23081 0.99055 0.93615 0.0
H3264 H 0.20825 0.918 0.9286 0.0
C3265 C 0.28367 0.92713 0.90102 0.0
C3266 C 0.2859 0.89812 0.90143 0.0
C3267 C 0.26903 0.94323 0.90851 0.0
C3268 C 0.21536 0.93821 0.93045 0.0
H3269 H 0.19634 0.04575 0.96851 0.0
H3270 H 0.22356 1.02041 0.95587 0.0
H3271 H 0.18305 0.94336 0.94147 0.0
H3272 H 0.27304 0.86494 0.91094 0.0
H3273 H 0.24754 0.89179 0.92323 0.0
H3274 H 0.26284 0.98547 0.92492 0.0
C3275 C 0.20191 1.01619 0.95639 0.0
C3276 C 0.20036 0.95327 0.93802 0.0
C3277 C 0.18603 1.03084 0.96392 0.0
C3278 C 0.27214 0.88677 0.90986 0.0
C3279 C 0.2571 0.90264 0.91714 0.0
C3280 C 0.24547 0.97569 0.92838 0.0
C3281 C 0.19046 0.9965 0.94967 0.0
C3282 C 0.20744 0.98007 0.94128 0.0
C3283 C 0.25498 0.93161 0.91689 0.0
C3284 C 0.23851 0.94873 0.92523 0.0
H3285 H 0.12414 1.00442 0.95869 0.0
H3286 H 0.15104 0.97878 0.94638 0.0
H3287 H 0.23778 1.01081 0.93803 0.0
H3288 H 0.29388 0.93771 0.895 0.0
H3289 H 0.26863 0.96514 0.90763 0.0
C3290 C 0.28061 0.90601 0.20021 0.0
C3291 C 0.29351 0.88805 0.20717 0.0
C3292 C 0.29536 0.92102 0.19259 0.0
C3293 C 0.37009 0.93975 0.18293 0.0
H3294 H 0.3322 0.9737 0.16086 0.0
C3295 C 0.43314 1.00892 0.15328 0.0
C3296 C 0.42342 1.01687 0.14365 0.0
C3297 C 0.41736 0.99371 0.16046 0.0
C3298 C 0.34377 0.96451 0.16686 0.0
H3299 H 0.33411 0.87329 0.21072 0.0
H3300 H 0.35912 0.89861 0.19793 0.0
H3301 H 0.3067 0.94825 0.1735 0.0
H3302 H 0.38656 1.01352 0.13481 0.0
H3303 H 0.35939 0.98736 0.14705 0.0
H3304 H 0.4071 0.95566 0.17633 0.0
C3305 C 0.33723 0.9016 0.19827 0.0
C3306 C 0.32862 0.94955 0.17441 0.0
C3307 C 0.32246 0.88649 0.20583 0.0
C3308 C 0.39599 1.00826 0.14186 0.0
C3309 C 0.37995 0.99298 0.14914 0.0
C3310 C 0.38517 0.95478 0.17544 0.0
C3311 C 0.32446 0.91963 0.19124 0.0
C3312 C 0.34105 0.93638 0.18283 0.0
C3313 C 0.38997 0.9849 0.1588 0.0
C3314 C 0.37283 0.96798 0.16702 0.0
H3315 H 0.25863 0.90854 0.2006 0.0
H3316 H 0.28349 0.93413 0.18775 0.0
H3317 H 0.38178 0.93088 0.18895 0.0
H3318 H 0.45361 1.01474 0.15544 0.0
H3319 H 0.42707 0.98929 0.16752 0.0
C3320 C 0.7762 0.92858 0.7147 0.0
C3321 C 0.78676 0.9019 0.71265 0.0
C3322 C 0.76116 0.9447 0.70734 0.0
C3323 C 0.72631 0.9404 0.68046 0.0
H3324 H 0.71923 1.01867 0.68244 0.0
C3325 C 0.65915 1.00379 0.64974 0.0
C3326 C 0.66217 1.03233 0.64809 0.0
C3327 C 0.67364 0.98887 0.65746 0.0
C3328 C 0.72074 0.99681 0.68152 0.0
H3329 H 0.78821 0.87311 0.70036 0.0
H3330 H 0.76297 0.89972 0.68819 0.0
H3331 H 0.74376 0.993 0.69537 0.0
H3332 H 0.68447 0.06634 0.65429 0.0
H3333 H 0.70881 0.04128 0.66745 0.0
H3334 H 0.70341 0.94402 0.66667 0.0
C3335 C 0.76576 0.90874 0.69549 0.0
C3336 C 0.7351 0.98159 0.68923 0.0
C3337 C 0.78083 0.89296 0.70272 0.0
C3338 C 0.68083 0.04469 0.65492 0.0
C3339 C 0.69511 1.02985 0.66272 0.0
C3340 C 0.71177 0.95554 0.67283 0.0
C3341 C 0.75521 0.93543 0.69737 0.0
C3342 C 0.73874 0.95262 0.68904 0.0
C3343 C 0.6923 1.00116 0.66436 0.0
C3344 C 0.70833 0.9845 0.67294 0.0
H3345 H 0.7799 0.93742 0.72199 0.0
H3346 H 0.75404 0.96471 0.7096 0.0
H3347 H 0.72741 0.91853 0.67956 0.0
H3348 H 0.64531 0.99259 0.64497 0.0
H3349 H 0.66964 0.9673 0.65805 0.0
C3350 C 0.92292 1.0224 0.44755 0.0
C3351 C 0.91551 1.02619 0.4578 0.0
C3352 C 0.90702 1.00718 0.4404 0.0
C3353 C 0.84387 0.95765 0.43707 0.0
H3354 H 0.85819 0.96699 0.40885 0.0
C3355 C 0.78669 0.88611 0.40635 0.0
C3356 C 0.78481 0.89204 0.39592 0.0
C3357 C 0.80146 0.90244 0.4135 0.0
C3358 C 0.85334 0.96366 0.41664 0.0
H3359 H 0.88278 1.01495 0.46787 0.0
H3360 H 0.85554 0.98858 0.4557 0.0
H3361 H 0.88354 0.99331 0.42121 0.0
H3362 H 0.79903 0.92254 0.38552 0.0
H3363 H 0.82463 0.9505 0.39769 0.0
H3364 H 0.81351 0.92816 0.43249 0.0
C3365 C 0.87434 0.9976 0.45308 0.0
C3366 C 0.86856 0.97913 0.42401 0.0
C3367 C 0.89033 1.0132 0.46028 0.0
C3368 C 0.79922 0.91619 0.39325 0.0
C3369 C 0.81439 0.93258 0.40046 0.0
C3370 C 0.82879 0.94202 0.4297 0.0
C3371 C 0.88194 0.99393 0.44275 0.0
C3372 C 0.86466 0.97689 0.4346 0.0
C3373 C 0.81618 0.92646 0.41096 0.0
C3374 C 0.83278 0.94419 0.4191 0.0
H3375 H 0.94163 1.03157 0.44488 0.0
H3376 H 0.91505 1.00567 0.43289 0.0
H3377 H 0.83917 0.95416 0.44485 0.0
H3378 H 0.77634 0.86826 0.40917 0.0
H3379 H 0.80146 0.89556 0.42116 0.0
C3380 C 0.93678 0.07962 0.1518 0.0
C3381 C 0.93359 0.05113 0.15005 0.0
C3382 C 0.92167 0.09469 0.15937 0.0
C3383 C 0.8712 0.08723 0.18261 0.0
H3384 H 0.86767 0.16574 0.18123 0.0
C3385 C 0.81294 0.1556 0.21528 0.0
C3386 C 0.80434 0.183 0.21341 0.0
C3387 C 0.82838 0.1393 0.20804 0.0
C3388 C 0.86783 0.14382 0.18196 0.0
H3389 H 0.91029 1.01734 0.15587 0.0
H3390 H 0.8847 0.04272 0.16872 0.0
H3391 H 0.8926 0.14003 0.16858 0.0
H3392 H 0.80667 0.21285 0.20156 0.0
H3393 H 0.83247 0.18589 0.18956 0.0
H3394 H 0.84623 0.09122 0.19603 0.0
C3395 C 0.89908 0.05398 0.16422 0.0
C3396 C 0.88293 0.12852 0.17447 0.0
C3397 C 0.91407 0.03897 0.15659 0.0
C3398 C 0.8125 0.19243 0.20377 0.0
C3399 C 0.82791 0.17643 0.19665 0.0
C3400 C 0.85621 0.1026 0.19017 0.0
C3401 C 0.90208 0.08263 0.16597 0.0
C3402 C 0.88534 0.09946 0.17438 0.0
C3403 C 0.83664 0.14905 0.19837 0.0
C3404 C 0.85367 0.13168 0.19018 0.0
H3405 H 0.95127 0.09065 0.14725 0.0
H3406 H 0.9259 0.11619 0.16007 0.0
H3407 H 0.87178 0.06531 0.18337 0.0
H3408 H 0.80747 0.14639 0.22234 0.0
H3409 H 0.83397 0.11875 0.21015 0.0
C3410 C 0.64004 0.06608 0.95666 0.0
C3411 C 0.64139 0.03716 0.95773 0.0
C3412 C 0.65539 0.08108 0.9492 0.0
C3413 C 0.70355 0.07323 0.92519 0.0
H3414 H 0.71088 0.15119 0.9278 0.0
C3415 C 0.76362 0.14106 0.89313 0.0
C3416 C 0.77284 0.1681 0.89516 0.0
C3417 C 0.74795 0.12499 0.90029 0.0
C3418 C 0.70965 0.12941 0.92671 0.0
H3419 H 0.66175 1.00263 0.95081 0.0
H3420 H 0.68768 1.02785 0.93817 0.0
H3421 H 0.68553 0.12567 0.94024 0.0
H3422 H 0.77126 0.19756 0.90723 0.0
H3423 H 0.74513 0.17097 0.91911 0.0
H3424 H 0.72787 0.07714 0.91164 0.0
C3425 C 0.6746 0.03953 0.94312 0.0
C3426 C 0.6943 0.11423 0.93409 0.0
C3427 C 0.65938 1.02457 0.95063 0.0
C3428 C 0.76502 0.17741 0.90489 0.0
C3429 C 0.7494 0.16161 0.91195 0.0
C3430 C 0.71881 0.08849 0.91776 0.0
C3431 C 0.67344 0.06858 0.94204 0.0
C3432 C 0.69049 0.08535 0.93375 0.0
C3433 C 0.74004 0.13459 0.91007 0.0
C3434 C 0.72274 0.11737 0.91816 0.0
H3435 H 0.62685 0.07751 0.96167 0.0
H3436 H 0.6526 0.10293 0.94906 0.0
H3437 H 0.70191 0.05147 0.92408 0.0
H3438 H 0.7687 0.13195 0.88599 0.0
H3439 H 0.74191 0.10475 0.89803 0.0
C3440 C 0.81291 0.68856 0.90946 0.0
C3441 C 0.80514 0.67894 0.8998 0.0
C3442 C 0.82849 0.67285 0.91656 0.0
C3443 C 0.85848 0.59964 0.92279 0.0
H3444 H 0.89322 0.63766 0.94463 0.0
C3445 C 0.91725 0.53698 0.95612 0.0
C3446 C 0.93621 0.54956 0.96277 0.0
C3447 C 0.90205 0.55174 0.94855 0.0
C3448 C 0.88403 0.626 0.93867 0.0
H3449 H 0.80917 0.64243 0.89079 0.0
H3450 H 0.836 0.61532 0.90293 0.0
H3451 H 0.86791 0.66291 0.93206 0.0
H3452 H 0.95263 0.5895 0.96585 0.0
H3453 H 0.92689 0.61462 0.9531 0.0
H3454 H 0.87495 0.56267 0.92943 0.0
C3455 C 0.82994 0.63574 0.90509 0.0
C3456 C 0.8687 0.64102 0.93122 0.0
C3457 C 0.81429 0.65172 0.89788 0.0
C3458 C 0.93861 0.57818 0.9612 0.0
C3459 C 0.92328 0.59298 0.95367 0.0
C3460 C 0.87371 0.58455 0.9303 0.0
C3461 C 0.83783 0.64567 0.91478 0.0
C3462 C 0.85511 0.62863 0.92292 0.0
C3463 C 0.90425 0.5805 0.94696 0.0
C3464 C 0.88727 0.59703 0.93861 0.0
H3465 H 0.80664 0.70888 0.91171 0.0
H3466 H 0.83274 0.6824 0.92367 0.0
H3467 H 0.84898 0.5881 0.91686 0.0
H3468 H 0.9141 0.51523 0.95671 0.0
H3469 H 0.88814 0.54017 0.94395 0.0
C3470 C 0.6622 0.52307 0.15292 0.0
C3471 C 0.64618 0.53603 0.14536 0.0
C3472 C 0.67706 0.53785 0.16057 0.0
C3473 C 0.69941 0.61215 0.16922 0.0
H3474 H 0.72725 0.57569 0.19269 0.0
C3475 C 0.76908 0.67424 0.19889 0.0
C3476 C 0.77463 0.66582 0.20889 0.0
C3477 C 0.7537 0.65853 0.19176 0.0
C3478 C 0.7198 0.58683 0.18628 0.0
H3479 H 0.63466 0.57671 0.14076 0.0
H3480 H 0.65971 0.60179 0.15362 0.0
H3481 H 0.70192 0.55016 0.18001 0.0
H3482 H 0.76664 0.63136 0.21851 0.0
H3483 H 0.74012 0.60426 0.20632 0.0
H3484 H 0.71691 0.64879 0.17545 0.0
C3485 C 0.66129 0.57982 0.15374 0.0
C3486 C 0.70494 0.57166 0.17872 0.0
C3487 C 0.64635 0.56503 0.14614 0.0
C3488 C 0.76333 0.63976 0.21114 0.0
C3489 C 0.74787 0.62375 0.2039 0.0
C3490 C 0.71434 0.62723 0.17673 0.0
C3491 C 0.6774 0.567 0.16136 0.0
C3492 C 0.69398 0.5836 0.1698 0.0
C3493 C 0.7423 0.63248 0.19384 0.0
C3494 C 0.72536 0.61538 0.18564 0.0
H3495 H 0.66327 0.50103 0.15298 0.0
H3496 H 0.68865 0.52596 0.16589 0.0
H3497 H 0.6923 0.62341 0.16279 0.0
H3498 H 0.77702 0.6936 0.19638 0.0
H3499 H 0.75129 0.66713 0.18439 0.0
C3500 C 0.76635 0.39903 0.40646 0.0
C3501 C 0.78497 0.41015 0.39935 0.0
C3502 C 0.75132 0.41511 0.4137 0.0
C3503 C 0.74773 0.48536 0.42774 0.0
H3504 H 0.67652 0.46102 0.43646 0.0
C3505 C 0.68518 0.5399 0.46272 0.0
C3506 C 0.65596 0.5407 0.46273 0.0
C3507 C 0.70118 0.52508 0.45525 0.0
C3508 C 0.69634 0.46867 0.43427 0.0
H3509 H 0.80204 0.44924 0.39539 0.0
H3510 H 0.77672 0.47688 0.40792 0.0
H3511 H 0.70184 0.43546 0.42368 0.0
H3512 H 0.62227 0.52494 0.45403 0.0
H3513 H 0.64908 0.49922 0.44175 0.0
H3514 H 0.74231 0.51833 0.43853 0.0
C3515 C 0.77309 0.45516 0.40772 0.0
C3516 C 0.71139 0.45344 0.42675 0.0
C3517 C 0.78772 0.43901 0.40025 0.0
C3518 C 0.64432 0.5253 0.45475 0.0
C3519 C 0.66015 0.5101 0.44749 0.0
C3520 C 0.73289 0.50028 0.43545 0.0
C3521 C 0.75414 0.44387 0.41477 0.0
C3522 C 0.73771 0.46112 0.42308 0.0
C3523 C 0.68931 0.5094 0.44731 0.0
C3524 C 0.7064 0.49271 0.43902 0.0
H3525 H 0.76339 0.37719 0.40654 0.0
H3526 H 0.73782 0.40444 0.41874 0.0
H3527 H 0.76761 0.49283 0.42554 0.0
H3528 H 0.69595 0.55133 0.46839 0.0
H3529 H 0.72324 0.52583 0.4558 0.0
C3530 C 0.78372 0.41636 0.70375 0.0
C3531 C 0.79592 0.39703 0.71038 0.0
C3532 C 0.79882 0.43104 0.69611 0.0
C3533 C 0.8738 0.44634 0.68583 0.0
H3534 H 0.83625 0.48316 0.6643 0.0
C3535 C 0.93811 0.51469 0.65614 0.0
C3536 C 0.92834 0.52322 0.64657 0.0
C3537 C 0.92211 0.49974 0.66334 0.0
C3538 C 0.84773 0.47314 0.67015 0.0
H3539 H 0.83579 0.37947 0.71332 0.0
H3540 H 0.86143 0.4043 0.70052 0.0
H3541 H 0.81032 0.45832 0.677 0.0
H3542 H 0.89104 0.52123 0.63792 0.0
H3543 H 0.86348 0.49561 0.65021 0.0
H3544 H 0.91115 0.46093 0.67902 0.0
C3545 C 0.83978 0.40859 0.70113 0.0
C3546 C 0.83233 0.45853 0.67774 0.0
C3547 C 0.82463 0.39379 0.70871 0.0
C3548 C 0.90057 0.51547 0.6449 0.0
C3549 C 0.8843 0.50051 0.65221 0.0
C3550 C 0.88914 0.46108 0.67831 0.0
C3551 C 0.82766 0.42795 0.69442 0.0
C3552 C 0.8446 0.44433 0.68597 0.0
C3553 C 0.89437 0.49185 0.66181 0.0
C3554 C 0.87695 0.47527 0.67007 0.0
H3555 H 0.76196 0.42024 0.70439 0.0
H3556 H 0.78744 0.44525 0.69154 0.0
H3557 H 0.8854 0.43658 0.6917 0.0
H3558 H 0.95882 0.51984 0.65823 0.0
H3559 H 0.93192 0.4948 0.67034 0.0
C3560 C 0.25419 0.40427 0.21317 0.0
C3561 C 0.28298 0.40593 0.21479 0.0
C3562 C 0.23983 0.41925 0.20543 0.0
C3563 C 0.24972 0.46621 0.18143 0.0
H3564 H 0.1712 0.47408 0.18295 0.0
C3565 C 0.18421 0.5241 0.1481 0.0
C3566 C 0.15698 0.53391 0.14977 0.0
C3567 C 0.19975 0.50887 0.15556 0.0
C3568 C 0.19316 0.47267 0.18216 0.0
H3569 H 0.3181 0.42632 0.20849 0.0
H3570 H 0.29393 0.45163 0.19534 0.0
H3571 H 0.19579 0.4494 0.19587 0.0
H3572 H 0.12646 0.5338 0.16152 0.0
H3573 H 0.15221 0.50838 0.17392 0.0
H3574 H 0.24691 0.48966 0.16768 0.0
C3575 C 0.28187 0.43862 0.2001 0.0
C3576 C 0.20779 0.45772 0.18983 0.0
C3577 C 0.29619 0.42378 0.20791 0.0
C3578 C 0.14687 0.52711 0.15947 0.0
C3579 C 0.16214 0.5119 0.16682 0.0
C3580 C 0.23502 0.48105 0.1737 0.0
C3581 C 0.25292 0.43717 0.19849 0.0
C3582 C 0.23681 0.45376 0.18988 0.0
C3583 C 0.18936 0.50198 0.1653 0.0
C3584 C 0.20598 0.48514 0.17371 0.0
H3585 H 0.24234 0.39111 0.21798 0.0
H3586 H 0.21801 0.41624 0.20489 0.0
H3587 H 0.27166 0.46439 0.18063 0.0
H3588 H 0.19385 0.52835 0.14099 0.0
H3589 H 0.2202 0.50231 0.15356 0.0
C3590 C 0.39539 0.50976 0.95981 0.0
C3591 C 0.42203 0.52031 0.95781 0.0
C3592 C 0.37968 0.49428 0.95248 0.0
C3593 C 0.38522 0.45799 0.9258 0.0
H3594 H 0.30678 0.45062 0.92761 0.0
C3595 C 0.32325 0.38898 0.89525 0.0
C3596 C 0.29452 0.39161 0.89358 0.0
C3597 C 0.33789 0.40395 0.90291 0.0
C3598 C 0.3287 0.45218 0.92673 0.0
H3599 H 0.4512 0.5212 0.94561 0.0
H3600 H 0.42527 0.49519 0.93349 0.0
H3601 H 0.3318 0.47594 0.94045 0.0
H3602 H 0.25994 0.41393 0.89964 0.0
H3603 H 0.2845 0.43907 0.91268 0.0
H3604 H 0.38229 0.43433 0.91214 0.0
C3605 C 0.41597 0.49836 0.94074 0.0
C3606 C 0.34355 0.46703 0.9344 0.0
C3607 C 0.43136 0.51388 0.94794 0.0
C3608 C 0.28173 0.41046 0.90031 0.0
C3609 C 0.29629 0.42524 0.90804 0.0
C3610 C 0.37045 0.44297 0.91821 0.0
C3611 C 0.38933 0.48781 0.94258 0.0
C3612 C 0.37256 0.47082 0.93428 0.0
C3613 C 0.32514 0.42279 0.90972 0.0
C3614 C 0.34144 0.43937 0.91826 0.0
H3615 H 0.38626 0.5138 0.96704 0.0
H3616 H 0.35967 0.48722 0.95471 0.0
H3617 H 0.40716 0.45918 0.92495 0.0
H3618 H 0.33481 0.37505 0.89056 0.0
H3619 H 0.35963 0.40021 0.90353 0.0
C3620 C 0.44025 0.54855 0.661 0.0
C3621 C 0.43408 0.54665 0.65059 0.0
C3622 C 0.42409 0.56375 0.66815 0.0
C3623 C 0.36217 0.61573 0.67129 0.0
H3624 H 0.37349 0.60334 0.69951 0.0
C3625 C 0.30215 0.68538 0.70205 0.0
C3626 C 0.29974 0.67885 0.71241 0.0
C3627 C 0.31761 0.66945 0.69491 0.0
C3628 C 0.36947 0.60754 0.69172 0.0
H3629 H 0.40356 0.56135 0.6402 0.0
H3630 H 0.37577 0.58751 0.65238 0.0
H3631 H 0.39952 0.57734 0.68716 0.0
H3632 H 0.3138 0.64794 0.72272 0.0
H3633 H 0.3404 0.62053 0.71055 0.0
H3634 H 0.33186 0.64566 0.67585 0.0
C3635 C 0.39373 0.57703 0.65514 0.0
C3636 C 0.38512 0.59225 0.68436 0.0
C3637 C 0.41002 0.56156 0.64792 0.0
C3638 C 0.3144 0.65467 0.71504 0.0
C3639 C 0.33013 0.6386 0.70783 0.0
C3640 C 0.34661 0.6311 0.67866 0.0
C3641 C 0.39999 0.57876 0.66562 0.0
C3642 C 0.38231 0.59561 0.67377 0.0
C3643 C 0.33238 0.64524 0.69739 0.0
C3644 C 0.34952 0.62784 0.68925 0.0
H3645 H 0.45816 0.53796 0.66379 0.0
H3646 H 0.43113 0.56378 0.67579 0.0
H3647 H 0.35831 0.62009 0.66351 0.0
H3648 H 0.29178 0.70341 0.69929 0.0
H3649 H 0.31802 0.67677 0.68731 0.0
C3650 C 0.14753 0.56987 0.45845 0.0
C3651 C 0.14825 0.54096 0.45964 0.0
C3652 C 0.16229 0.58423 0.45067 0.0
C3653 C 0.20579 0.57467 0.42563 0.0
H3654 H 0.21867 0.65185 0.42843 0.0
C3655 C 0.26247 0.64118 0.39228 0.0
C3656 C 0.27499 0.66681 0.39441 0.0
C3657 C 0.24726 0.62563 0.39973 0.0
C3658 C 0.21579 0.63025 0.42728 0.0
H3659 H 0.16664 0.50568 0.45248 0.0
H3660 H 0.19148 0.52986 0.43926 0.0
H3661 H 0.19425 0.62727 0.44141 0.0
H3662 H 0.27973 0.6943 0.40697 0.0
H3663 H 0.25424 0.66865 0.41929 0.0
H3664 H 0.22745 0.57784 0.41144 0.0
C3665 C 0.17944 0.54201 0.44441 0.0
C3666 C 0.201 0.61567 0.43497 0.0
C3667 C 0.16489 0.52768 0.45227 0.0
C3668 C 0.27084 0.67527 0.40453 0.0
C3669 C 0.2556 0.66006 0.41186 0.0
C3670 C 0.22041 0.58936 0.41786 0.0
C3671 C 0.17896 0.57104 0.44324 0.0
C3672 C 0.19531 0.58712 0.43458 0.0
C3673 C 0.24303 0.63445 0.4099 0.0
C3674 C 0.22628 0.61789 0.41833 0.0
H3675 H 0.13533 0.5818 0.46363 0.0
H3676 H 0.16011 0.60615 0.45047 0.0
H3677 H 0.20253 0.55312 0.42447 0.0
H3678 H 0.26466 0.63275 0.38484 0.0
H3679 H 0.23857 0.60644 0.39739 0.0
C3680 C 0.17046 0.08034 0.33985 0.0
C3681 C 0.19655 0.07798 0.34416 0.0
C3682 C 0.16163 0.06115 0.33286 0.0
C3683 C 0.17726 0.99232 0.32283 0.0
H3684 H 0.15156 1.02204 0.29771 0.0
C3685 C 0.20302 0.9461 0.2851 0.0
C3686 C 0.18416 0.94746 0.27721 0.0
C3687 C 0.19662 0.9573 0.29438 0.0
C3688 C 0.15799 1.01325 0.30475 0.0
H3689 H 0.23387 0.05386 0.34452 0.0
H3690 H 0.21859 1.02057 0.33233 0.0
H3691 H 0.15497 0.05163 0.31227 0.0
H3692 H 0.14317 0.96026 0.27305 0.0
H3693 H 0.13227 0.98059 0.2893 0.0
H3694 H 0.18184 0.9543 0.31511 0.0
C3695 C 0.20468 0.03682 0.3345 0.0
C3696 C 0.15998 1.03022 0.31308 0.0
C3697 C 0.2135 0.05598 0.34144 0.0
C3698 C 0.15832 0.95936 0.27893 0.0
C3699 C 0.15199 0.9708 0.28823 0.0
C3700 C 0.17532 0.97537 0.31449 0.0
C3701 C 0.17872 0.03926 0.3301 0.0
C3702 C 0.17081 1.02017 0.32207 0.0
C3703 C 0.1713 0.97029 0.29597 0.0
C3704 C 0.16684 0.98601 0.30527 0.0
H3705 H 0.15681 0.09689 0.34193 0.0
H3706 H 0.1415 0.06345 0.3296 0.0
H3707 H 0.18512 0.98394 0.32974 0.0
H3708 H 0.22326 0.93749 0.284 0.0
H3709 H 0.21213 0.95709 0.30015 0.0
C3710 C 0.30604 0.97393 0.60605 0.0
C3711 C 0.29018 0.99599 0.60953 0.0
C3712 C 0.33141 0.9784 0.6016 0.0
C3713 C 0.35842 1.03137 0.58591 0.0
H3714 H 0.4139 0.97628 0.58077 0.0
C3715 C 0.40805 1.02568 0.5476 0.0
C3716 C 0.40582 0.99955 0.54337 0.0
C3717 C 0.40583 1.02932 0.55792 0.0
C3718 C 0.39873 0.99202 0.58216 0.0
H3719 H 0.29015 0.03946 0.61241 0.0
H3720 H 0.33466 0.04729 0.60465 0.0
H3721 H 0.38849 0.97567 0.5965 0.0
H3722 H 0.40131 0.95661 0.54663 0.0
H3723 H 0.39667 0.96292 0.56457 0.0
H3724 H 0.36702 0.04659 0.57136 0.0
C3725 C 0.32716 1.02663 0.60514 0.0
C3726 C 0.38424 0.99172 0.59118 0.0
C3727 C 0.30168 1.02216 0.60958 0.0
C3728 C 0.40314 0.97697 0.54969 0.0
C3729 C 0.4007 0.98062 0.56 0.0
C3730 C 0.37286 1.03167 0.57693 0.0
C3731 C 0.34146 1.00502 0.60053 0.0
C3732 C 0.3628 1.01043 0.59288 0.0
C3733 C 0.40107 1.00693 0.5642 0.0
C3734 C 0.39205 1.01107 0.57471 0.0
H3735 H 0.29779 0.95351 0.60586 0.0
H3736 H 0.3417 0.96123 0.5981 0.0
H3737 H 0.34196 0.04601 0.58689 0.0
H3738 H 0.41077 0.04337 0.54288 0.0
H3739 H 0.40667 0.0498 0.56094 0.0
C3740 C 0.38796 0.09303 0.78257 0.0
C3741 C 0.4041 0.0982 0.77413 0.0
C3742 C 0.39966 0.08167 0.79109 0.0
C3743 C 0.43275 0.0702 0.80971 0.0
H3744 H 0.46833 0.99998 0.80606 0.0
C3745 C 0.44621 1.00125 0.84305 0.0
C3746 C 0.43252 0.97654 0.84141 0.0
C3747 C 0.45457 1.01712 0.83498 0.0
C3748 C 0.45887 1.01977 0.80719 0.0
H3749 H 0.445 0.0958 0.7679 0.0
H3750 H 0.46547 0.07525 0.78284 0.0
H3751 H 0.45836 1.02842 0.79151 0.0
H3752 H 0.4194 0.94779 0.83009 0.0
H3753 H 0.43391 0.97538 0.81606 0.0
H3754 H 0.43149 0.06101 0.82526 0.0
C3755 C 0.44387 0.08031 0.78286 0.0
C3756 C 0.4533 1.03607 0.79889 0.0
C3757 C 0.43221 0.09208 0.77437 0.0
C3758 C 0.42997 0.96667 0.8316 0.0
C3759 C 0.43837 0.98251 0.82354 0.0
C3760 C 0.43847 0.05405 0.81799 0.0
C3761 C 0.42764 0.07498 0.79128 0.0
C3762 C 0.43906 0.06083 0.80006 0.0
C3763 C 0.44944 1.00851 0.82515 0.0
C3764 C 0.45046 1.02813 0.81678 0.0
H3765 H 0.36628 0.09775 0.78257 0.0
H3766 H 0.38662 0.07738 0.79744 0.0
H3767 H 0.42202 0.08938 0.81079 0.0
H3768 H 0.449 1.00905 0.85055 0.0
H3769 H 0.46348 0.03689 0.83643 0.0
C3770 C 0.2481 0.20576 1.02182 0.0
C3771 C 0.22538 0.1893 1.02387 0.0
C3772 C 0.26138 0.21954 1.02954 0.0
C3773 C 0.25908 0.2329 0.05714 0.0
H3774 H 0.33467 0.20893 0.05563 0.0
C3775 C 0.31408 0.1798 0.08855 0.0
C3776 C 0.34273 0.18042 0.0893 0.0
C3777 C 0.30058 0.19525 0.08134 0.0
C3778 C 0.3139 0.21664 0.05617 0.0
H3779 H 0.19735 0.17619 1.03543 0.0
H3780 H 0.22061 0.19962 1.04888 0.0
H3781 H 0.30767 0.21107 1.04056 0.0
H3782 H 0.37942 0.19984 0.08371 0.0
H3783 H 0.35576 0.22649 0.07093 0.0
H3784 H 0.26499 0.23621 0.07295 0.0
C3785 C 0.22807 0.20242 1.04133 0.0
C3786 C 0.29831 0.21789 1.04748 0.0
C3787 C 0.21475 0.1888 1.03361 0.0
C3788 C 0.35738 0.19843 0.08316 0.0
C3789 C 0.34384 0.21383 0.0759 0.0
C3790 C 0.2747 0.23155 0.06586 0.0
C3791 C 0.25228 0.21691 1.03946 0.0
C3792 C 0.27028 0.22439 1.04795 0.0
C3793 C 0.31541 0.21159 0.07467 0.0
C3794 C 0.30178 0.22179 0.06552 0.0
H3795 H 0.25638 0.20695 1.01432 0.0
H3796 H 0.27967 0.23095 1.02783 0.0
H3797 H 0.23771 0.23866 0.05771 0.0
H3798 H 0.30213 0.16598 0.09306 0.0
H3799 H 0.27872 0.19266 0.0805 0.0
C3800 C 0.95229 0.994 0.77234 0.0
C3801 C 0.93594 0.97139 0.77459 0.0
C3802 C 0.96701 1.0071 0.77986 0.0
C3803 C 0.98379 1.00425 0.80718 0.0
H3804 H 0.96099 0.07999 0.80633 0.0
C3805 C 0.93457 0.05954 0.83946 0.0
C3806 C 0.93553 0.08808 0.84023 0.0
C3807 C 0.94943 0.0459 0.83207 0.0
C3808 C 0.96841 0.05916 0.80667 0.0
H3809 H 0.92381 0.94351 0.78629 0.0
H3810 H 0.94881 0.96654 0.79942 0.0
H3811 H 0.96072 0.05323 0.79117 0.0
H3812 H 0.95514 0.12438 0.83451 0.0
H3813 H 0.98073 0.10047 0.82141 0.0
H3814 H 0.98917 1.0099 0.82292 0.0
C3815 C 0.95086 0.974 0.79185 0.0
C3816 C 0.96826 0.04371 0.79792 0.0
C3817 C 0.93632 0.96082 0.78432 0.0
C3818 C 0.95345 0.10243 0.83395 0.0
C3819 C 0.96825 0.08876 0.8265 0.0
C3820 C 0.98383 1.01973 0.81595 0.0
C3821 C 0.96543 0.99797 0.7898 0.0
C3822 C 0.97429 1.01566 0.79819 0.0
C3823 C 0.96548 0.06048 0.82523 0.0
C3824 C 0.9745 0.04689 0.81587 0.0
H3825 H 0.9528 1.00222 0.76484 0.0
H3826 H 0.97844 1.02523 0.778 0.0
H3827 H 0.98924 0.98285 0.80757 0.0
H3828 H 0.92083 0.04781 0.84409 0.0
H3829 H 0.94647 1.02416 0.83122 0.0
C3830 C 0.69013 0.11696 0.56619 0.0
C3831 C 0.68782 0.09532 0.57295 0.0
C3832 C 0.69021 0.11198 0.55591 0.0
C3833 C 0.7103 0.0578 0.53869 0.0
H3834 H 0.68819 0.1109 0.51885 0.0
C3835 C 0.76253 0.05606 0.50104 0.0
C3836 C 0.77506 0.08128 0.49923 0.0
C3837 C 0.74047 0.05429 0.50767 0.0
C3838 C 0.69424 0.0957 0.52427 0.0
H3839 H 0.68143 0.05184 0.57433 0.0
H3840 H 0.68147 0.04308 0.55636 0.0
H3841 H 0.67025 0.11438 0.53586 0.0
H3842 H 0.77226 0.12477 0.50213 0.0
H3843 H 0.73417 0.12171 0.51357 0.0
H3844 H 0.73557 0.04009 0.52739 0.0
C3845 C 0.68384 0.06382 0.55898 0.0
C3846 C 0.68405 0.09774 0.53402 0.0
C3847 C 0.68394 0.0688 0.56926 0.0
C3848 C 0.76309 0.10499 0.50328 0.0
C3849 C 0.74109 0.10324 0.50988 0.0
C3850 C 0.72047 0.05577 0.52898 0.0
C3851 C 0.68779 0.08525 0.55219 0.0
C3852 C 0.69302 0.07957 0.54145 0.0
C3853 C 0.73055 0.07772 0.51259 0.0
C3854 C 0.71362 0.07547 0.52178 0.0
H3855 H 0.69315 0.1376 0.56884 0.0
H3856 H 0.69369 0.12893 0.55091 0.0
H3857 H 0.71783 0.04355 0.54422 0.0
H3858 H 0.7709 0.03747 0.49785 0.0
H3859 H 0.73238 1.03439 0.50945 0.0
C3860 C 0.61575 0.98712 0.33779 0.0
C3861 C 0.63557 0.96728 0.33537 0.0
C3862 C 0.60484 1.00393 0.33037 0.0
C3863 C 0.60654 1.01747 0.30281 0.0
H3864 H 0.61812 0.09188 0.31155 0.0
C3865 C 0.66643 0.11312 0.28724 0.0
C3866 C 0.658 0.11349 0.27724 0.0
C3867 C 0.6516 0.09872 0.29435 0.0
C3868 C 0.61445 0.07127 0.30899 0.0
H3869 H 0.65777 0.94794 0.32321 0.0
H3870 H 0.63929 0.97733 0.31036 0.0
H3871 H 0.61266 0.05622 0.32389 0.0
H3872 H 0.62658 0.10053 0.26689 0.0
H3873 H 0.60049 0.07518 0.27939 0.0
H3874 H 0.61109 1.03226 0.28791 0.0
C3875 C 0.63167 0.97981 0.31791 0.0
C3876 C 0.61097 0.05079 0.31607 0.0
C3877 C 0.64242 0.96294 0.32531 0.0
C3878 C 0.6335 0.10056 0.27458 0.0
C3879 C 0.61867 0.08596 0.2817 0.0
C3880 C 0.61025 0.03796 0.29572 0.0
C3881 C 0.61372 1.00133 0.32042 0.0
C3882 C 0.60862 1.02341 0.31306 0.0
C3883 C 0.628 0.08429 0.29161 0.0
C3884 C 0.61587 0.06478 0.29878 0.0
H3885 H 0.60972 0.99053 0.34549 0.0
H3886 H 0.59064 1.01995 0.33252 0.0
H3887 H 0.6041 0.99668 0.30025 0.0
H3888 H 0.68507 0.12321 0.28951 0.0
H3889 H 0.65962 0.09758 0.30187 0.0
C3890 C 0.89536 1.01145 0.07105 0.0
C3891 C 0.89667 0.98553 0.07543 0.0
C3892 C 0.8891 1.01414 0.06094 0.0
C3893 C 0.87465 0.97471 1.03763 0.0
H3894 H 0.8119 1.02332 1.03639 0.0
C3895 C 0.7782 0.95089 1.0156 0.0
C3896 C 0.76286 0.97219 1.01139 0.0
C3897 C 0.80184 0.9565 1.02101 0.0
C3898 C 0.82977 1.01014 1.03645 0.0
H3899 H 0.89476 0.94209 0.07264 0.0
H3900 H 0.88304 0.94668 1.05509 0.0
H3901 H 0.84318 1.0267 1.05029 0.0
H3902 H 0.76093 1.01586 1.009 0.0
H3903 H 0.80216 1.0257 1.01856 0.0
H3904 H 0.85986 0.95698 1.02406 0.0
C3905 C 0.88733 0.96498 0.05933 0.0
C3906 C 0.84783 1.01212 1.04443 0.0
C3907 C 0.89383 0.9623 0.06941 0.0
C3908 C 0.77205 0.99912 1.01239 0.0
C3909 C 0.79573 1.00473 1.01778 0.0
C3910 C 0.85648 0.97267 1.02964 0.0
C3911 C 0.88373 0.99095 1.0551 0.0
C3912 C 0.8697 0.99358 1.04536 0.0
C3913 C 0.81061 0.98351 1.02228 0.0
C3914 C 0.83318 0.98955 1.02924 0.0
H3915 H 0.89811 1.02964 0.07553 0.0
H3916 H 0.88697 1.0344 0.05783 0.0
H3917 H 0.89165 0.96049 1.03807 0.0
H3918 H 0.7715 0.92997 1.01496 0.0
H3919 H 0.81257 0.93976 1.02456 0.0
C3920 C 0.63689 0.5727 0.84486 0.0
C3921 C 0.65193 0.59591 0.84223 0.0
C3922 C 0.62585 0.55596 0.83747 0.0
C3923 C 0.61756 0.54797 0.80986 0.0
H3924 H 0.64925 0.47664 0.81483 0.0
C3925 C 0.68438 0.46782 0.78676 0.0
C3926 C 0.66883 0.46374 0.77811 0.0
C3927 C 0.67259 0.47995 0.79517 0.0
C3928 C 0.63989 0.4963 0.81337 0.0
H3929 H 0.66482 0.62129 0.82988 0.0
H3930 H 0.64592 0.59211 0.81702 0.0
H3931 H 0.64274 0.50823 0.82865 0.0
H3932 H 0.62872 0.46849 0.77145 0.0
H3933 H 0.6081 0.4903 0.78619 0.0
H3934 H 0.61688 0.53657 0.79441 0.0
C3935 C 0.64231 0.58683 0.82476 0.0
C3936 C 0.63585 0.51435 0.8213 0.0
C3937 C 0.65328 0.60358 0.83215 0.0
C3938 C 0.64106 0.47135 0.77808 0.0
C3939 C 0.62932 0.48385 0.78646 0.0
C3940 C 0.62156 0.52983 0.80191 0.0
C3941 C 0.62976 0.56211 0.82733 0.0
C3942 C 0.62601 0.5409 0.81955 0.0
C3943 C 0.64508 0.48847 0.79505 0.0
C3944 C 0.63412 0.50441 0.80356 0.0
H3945 H 0.63503 0.56665 0.85261 0.0
H3946 H 0.61582 0.5373 0.83968 0.0
H3947 H 0.60958 0.56816 0.80831 0.0
H3948 H 0.70578 0.46195 0.78698 0.0
H3949 H 0.68535 0.48365 0.80163 0.0
C3950 C 0.78407 0.4621 1.01177 0.0
C3951 C 0.79687 0.48491 1.00759 0.0
C3952 C 0.75825 0.46458 1.01613 0.0
C3953 C 0.71965 0.51499 1.02984 0.0
H3954 H 0.66785 0.45581 1.03198 0.0
C3955 C 0.65805 0.50533 0.06519 0.0
C3956 C 0.66308 0.47978 0.06955 0.0
C3957 C 0.66195 0.50904 1.05496 0.0
C3958 C 0.68189 0.47271 1.03138 0.0
H3959 H 0.79178 0.52773 1.00399 0.0
H3960 H 0.74679 0.53216 1.0118 0.0
H3961 H 0.70009 0.45669 1.01801 0.0
H3962 H 0.67351 0.43756 0.06657 0.0
H3963 H 0.68089 0.44402 1.04882 0.0
H3964 H 0.70325 0.52989 1.04357 0.0
C3965 C 0.75685 0.51242 1.01175 0.0
C3966 C 0.70031 0.4732 1.0234 0.0
C3967 C 0.78266 0.50992 1.00736 0.0
C3968 C 0.66954 0.45748 0.0634 0.0
C3969 C 0.67357 0.4612 1.05319 0.0
C3970 C 0.70134 0.51445 1.03782 0.0
C3971 C 0.74472 0.48994 1.01641 0.0
C3972 C 0.72037 0.49351 1.02288 0.0
C3973 C 0.67113 0.48729 1.04894 0.0
C3974 C 0.6834 0.49242 1.03899 0.0
H3975 H 0.79457 0.44262 1.01216 0.0
H3976 H 0.74969 0.44699 1.01984 0.0
H3977 H 0.73492 0.53086 1.02968 0.0
H3978 H 0.65232 0.5227 0.06977 0.0
H3979 H 0.65941 0.52927 1.05186 0.0
C3980 C 0.95518 0.48223 0.33444 0.0
C3981 C 0.93034 0.46841 0.3332 0.0
C3982 C 0.96822 0.49398 0.32621 0.0
C3983 C 0.97199 0.53675 0.30988 0.0
H3984 H 0.9603 0.50976 0.28302 0.0
C3985 C 0.92478 0.60132 0.27989 0.0
C3986 C 0.92716 0.59415 0.26977 0.0
C3987 C 0.93943 0.58702 0.28712 0.0
C3988 C 0.9646 0.51768 0.2904 0.0
H3989 H 0.90093 0.45385 0.3224 0.0
H3990 H 0.92314 0.47456 0.30813 0.0
H3991 H 0.96118 0.47805 0.29685 0.0
H3992 H 0.94884 0.5685 0.25915 0.0
H3993 H 0.97489 0.5437 0.2718 0.0
H3994 H 0.97459 0.5765 0.30347 0.0
C3995 C 0.93288 0.47633 0.31536 0.0
C3996 C 0.96476 0.49943 0.29837 0.0
C3997 C 0.91986 0.46476 0.32356 0.0
C3998 C 0.94626 0.57404 0.26694 0.0
C3999 C 0.96116 0.55988 0.27418 0.0
C4000 C 0.97221 0.55499 0.3019 0.0
C4001 C 0.9567 0.49188 0.31662 0.0
C4002 C 0.9664 0.50904 0.30824 0.0
C4003 C 0.95695 0.56534 0.28439 0.0
C4004 C 0.96646 0.54588 0.29216 0.0
H4005 H 0.96369 0.48526 0.34182 0.0
H4006 H 0.98664 0.50567 0.32741 0.0
H4007 H 0.97357 0.54487 0.31739 0.0
H4008 H 0.9101 0.61663 0.28229 0.0
H4009 H 0.93525 0.59165 0.29489 0.0
C4010 C 0.74092 0.71592 0.52233 0.0
C4011 C 0.72201 0.69512 0.52421 0.0
C4012 C 0.75545 0.72777 0.53018 0.0
C4013 C 0.76394 0.72605 0.55807 0.0
H4014 H 0.84067 0.71923 0.5511 0.0
C4015 C 0.85994 0.66853 0.5749 0.0
C4016 C 0.8578 0.67529 0.58506 0.0
C4017 C 0.84619 0.68391 0.56775 0.0
C4018 C 0.81935 0.72158 0.55318 0.0
H4019 H 0.70183 0.67198 0.53582 0.0
H4020 H 0.7274 0.69193 0.54942 0.0
H4021 H 0.80694 0.72376 0.53797 0.0
H4022 H 0.84111 0.70437 0.59569 0.0
H4023 H 0.81686 0.73143 0.58312 0.0
H4024 H 0.77629 0.72088 0.57325 0.0
C4025 C 0.73083 0.69969 0.54197 0.0
C4026 C 0.79993 0.72453 0.54564 0.0
C4027 C 0.71618 0.68806 0.53414 0.0
C4028 C 0.84304 0.69875 0.58789 0.0
C4029 C 0.8291 0.71414 0.58071 0.0
C4030 C 0.78337 0.72278 0.56561 0.0
C4031 C 0.75154 0.71878 0.54005 0.0
C4032 C 0.77186 0.725 0.54797 0.0
C4033 C 0.82993 0.7064 0.57059 0.0
C4034 C 0.81109 0.71873 0.56318 0.0
H4035 H 0.7454 0.72211 0.51474 0.0
H4036 H 0.77083 0.74283 0.52846 0.0
H4037 H 0.74253 0.72717 0.56013 0.0
H4038 H 0.87149 0.65074 0.57252 0.0
H4039 H 0.847 0.67707 0.56005 0.0
C4040 C 0.2958 0.5136 0.3563 0.0
C4041 C 0.28843 0.53709 0.35092 0.0
C4042 C 0.29158 0.48773 0.3522 0.0
C4043 C 0.30881 0.44541 0.33705 0.0
H4044 H 0.25886 0.43379 0.31506 0.0
C4045 C 0.34564 0.42692 0.29819 0.0
C4046 C 0.32822 0.41671 0.2908 0.0
C4047 C 0.33728 0.4274 0.30815 0.0
C4048 C 0.27278 0.43587 0.3213 0.0
H4049 H 0.2677 0.55195 0.33772 0.0
H4050 H 0.26107 0.50731 0.33043 0.0
H4051 H 0.2448 0.4622 0.32902 0.0
H4052 H 0.29006 0.39579 0.28807 0.0
H4053 H 0.2755 0.39627 0.30556 0.0
H4054 H 0.33713 0.41982 0.32917 0.0
C4055 C 0.26995 0.50843 0.33782 0.0
C4056 C 0.26476 0.45252 0.32927 0.0
C4057 C 0.27408 0.53419 0.34192 0.0
C4058 C 0.30352 0.40445 0.29365 0.0
C4059 C 0.29524 0.40466 0.30364 0.0
C4060 C 0.31666 0.4284 0.32916 0.0
C4061 C 0.28003 0.48496 0.34263 0.0
C4062 C 0.28358 0.45937 0.33677 0.0
C4063 C 0.31139 0.41745 0.31094 0.0
C4064 C 0.29963 0.42541 0.32079 0.0
H4065 H 0.3068 0.51521 0.36329 0.0
H4066 H 0.29911 0.47006 0.35619 0.0
H4067 H 0.32382 0.44984 0.34275 0.0
H4068 H 0.3648 0.43642 0.29618 0.0
H4069 H 0.35024 0.4377 0.31349 0.0
C4070 C 0.35586 0.64842 1.03456 0.0
C4071 C 0.3543 0.65837 1.02477 0.0
C4072 C 0.34448 0.66319 1.04246 0.0
C4073 C 0.32523 0.70058 0.05877 0.0
H4074 H 0.24925 0.71902 1.05384 0.0
C4075 C 0.25144 0.70156 0.0913 0.0
C4076 C 0.22931 0.68416 0.08944 0.0
C4077 C 0.26643 0.71241 0.08337 0.0
C4078 C 0.27051 0.7143 0.05535 0.0
H4079 H 0.34083 0.69216 1.01558 0.0
H4080 H 0.32071 0.71812 1.02946 0.0
H4081 H 0.27985 0.7105 1.03979 0.0
H4082 H 0.2041 0.66634 0.07787 0.0
H4083 H 0.23034 0.68458 0.06412 0.0
H4084 H 0.31544 0.7016 0.07428 0.0
C4085 C 0.33071 0.69883 1.03099 0.0
C4086 C 0.28815 0.7097 1.04728 0.0
C4087 C 0.34229 0.68405 1.02307 0.0
C4088 C 0.22097 0.67979 0.07954 0.0
C4089 C 0.23603 0.69044 0.07163 0.0
C4090 C 0.30757 0.70492 0.06682 0.0
C4091 C 0.33122 0.68827 1.04074 0.0
C4092 C 0.31526 0.70115 1.04894 0.0
C4093 C 0.25972 0.7058 0.07344 0.0
C4094 C 0.27961 0.71016 0.06519 0.0
H4095 H 0.36534 0.62886 1.0361 0.0
H4096 H 0.34487 0.65421 1.04984 0.0
H4097 H 0.34621 0.69469 0.06026 0.0
H4098 H 0.25797 0.70568 0.09888 0.0
H4099 H 0.28421 0.72465 0.08502 0.0
C4100 C 0.13386 0.5727 0.764 0.0
C4101 C 0.1456 0.59599 0.76831 0.0
C4102 C 0.12183 0.55293 0.77004 0.0
C4103 C 0.12999 0.50731 0.78472 0.0
H4104 H 0.10284 0.52017 0.81156 0.0
C4105 C 0.17741 0.45895 0.81871 0.0
C4106 C 0.16156 0.45247 0.8271 0.0
C4107 C 0.16525 0.47055 0.81033 0.0
C4108 C 0.1098 0.5159 0.80402 0.0
H4109 H 0.15083 0.61859 0.78209 0.0
H4110 H 0.13068 0.58398 0.79264 0.0
H4111 H 0.0953 0.55445 0.79869 0.0
H4112 H 0.1205 0.45198 0.83323 0.0
H4113 H 0.09914 0.47276 0.81851 0.0
H4114 H 0.14572 0.46943 0.79019 0.0
C4115 C 0.13049 0.5808 0.78464 0.0
C4116 C 0.10568 0.53564 0.79667 0.0
C4117 C 0.14243 0.60055 0.7786 0.0
C4118 C 0.13312 0.45677 0.82681 0.0
C4119 C 0.12094 0.46869 0.81844 0.0
C4120 C 0.13402 0.48758 0.79205 0.0
C4121 C 0.12144 0.55609 0.78049 0.0
C4122 C 0.11726 0.53228 0.78712 0.0
C4123 C 0.13699 0.47608 0.81018 0.0
C4124 C 0.12546 0.49247 0.80191 0.0
H4125 H 0.13591 0.56868 0.75607 0.0
H4126 H 0.1146 0.53431 0.76661 0.0
H4127 H 0.13923 0.50394 0.77746 0.0
H4128 H 0.19934 0.4556 0.81873 0.0
H4129 H 0.17826 0.47642 0.80415 0.0
C4130 C 0.21967 0.43387 0.53498 0.0
C4131 C 0.21586 0.41675 0.5267 0.0
C4132 C 0.23226 0.424 0.54358 0.0
C4133 C 0.24966 0.3953 0.56246 0.0
H4134 H 0.32112 0.36267 0.55798 0.0
C4135 C 0.3256 0.39068 0.59437 0.0
C4136 C 0.35007 0.40388 0.59183 0.0
C4137 C 0.30821 0.38101 0.58691 0.0
C4138 C 0.30107 0.37141 0.55936 0.0
H4139 H 0.22158 0.37576 0.52095 0.0
H4140 H 0.24403 0.35849 0.53604 0.0
H4141 H 0.28981 0.36863 0.54395 0.0
H4142 H 0.37663 0.41512 0.57954 0.0
H4143 H 0.34638 0.39846 0.56658 0.0
H4144 H 0.26147 0.39995 0.57769 0.0
C4145 C 0.23711 0.3795 0.53585 0.0
C4146 C 0.28307 0.37464 0.55135 0.0
C4147 C 0.2242 0.38933 0.52727 0.0
C4148 C 0.358 0.40492 0.58175 0.0
C4149 C 0.34062 0.39528 0.5743 0.0
C4150 C 0.26758 0.39203 0.57046 0.0
C4151 C 0.2415 0.39685 0.54405 0.0
C4152 C 0.25771 0.38775 0.55276 0.0
C4153 C 0.31498 0.3844 0.57679 0.0
C4154 C 0.29395 0.38117 0.56891 0.0
H4155 H 0.21321 0.45503 0.53475 0.0
H4156 H 0.23572 0.43796 0.54972 0.0
H4157 H 0.23005 0.40512 0.56376 0.0
H4158 H 0.31925 0.38908 0.6021 0.0
H4159 H 0.28879 0.37226 0.58906 0.0
loop_
_geom_bond_atom_site_label_1
_geom_bond_atom_site_label_2
_geom_bond_distance
_geom_bond_site_symmetry_2
_ccdc_geom_bond_type
Gd0 C3 2.818 . S
Gd0 O20 2.377 . S
Gd0 O22 2.448 . S
Gd0 O23 2.506 . S
Gd0 O24 2.435 . S
Gd0 O25 2.717 . S
Gd0 O27 2.395 . S
Gd0 O31 2.327 . S
Gd1 C12 2.818 . S
Gd1 O21 2.395 . S
Gd1 O25 2.327 . S
Gd1 O26 2.377 . S
Gd1 O28 2.448 . S
Gd1 O29 2.506 . S
Gd1 O30 2.435 . S
Gd1 O31 2.717 . S
C2 O20 1.240 . S
C2 O21 1.240 . S
C3 Gd0 2.818 . S
C3 C4 1.510 . S
C3 O22 1.249 . S
C3 O23 1.252 . S
C4 C3 1.510 . S
C4 C5 1.404 . S
C4 C6 1.352 . S
C5 C4 1.404 . S
C5 C9 1.389 . S
C5 H32 0.930 . S
C6 C4 1.352 . S
C6 C8 1.374 . S
C6 H33 0.931 . S
C7 C8 1.359 . S
C7 C9 1.364 . S
C8 C6 1.374 . S
C8 C7 1.359 . S
C8 H34 0.931 . S
C9 C5 1.389 . S
C9 C7 1.364 . S
C9 H35 0.931 . S
C10 O24 1.256 . S
C10 O25 1.257 . S
C11 O26 1.240 . S
C11 O27 1.240 . S
C12 Gd1 2.818 . S
C12 C13 1.510 . S
C12 O28 1.249 . S
C12 O29 1.252 . S
C13 C12 1.510 . S
C13 C14 1.404 . S
C13 C15 1.352 . S
C14 C13 1.404 . S
C14 C18 1.389 . S
C14 H36 0.930 . S
C15 C13 1.352 . S
C15 C17 1.374 . S
C15 H37 0.931 . S
C16 C17 1.359 . S
C16 C18 1.364 . S
C17 C15 1.374 . S
C17 C16 1.359 . S
C17 H38 0.931 . S
C18 C14 1.389 . S
C18 C16 1.364 . S
C18 H39 0.931 . S
C19 O30 1.256 . S
C19 O31 1.257 . S
O20 Gd0 2.377 . S
O20 C2 1.240 . S
O21 Gd1 2.395 . S
O21 C2 1.240 . S
O22 Gd0 2.448 . S
O22 C3 1.249 . S
O23 Gd0 2.506 . S
O23 C3 1.252 . S
O24 Gd0 2.435 . S
O24 C10 1.256 . S
O25 Gd0 2.717 . S
O25 Gd1 2.327 . S
O25 C10 1.257 . S
O26 Gd1 2.377 . S
O26 C11 1.240 . S
O27 Gd0 2.395 . S
O27 C11 1.240 . S
O28 Gd1 2.448 . S
O28 C12 1.249 . S
O29 Gd1 2.506 . S
O29 C12 1.252 . S
O30 Gd1 2.435 . S
O30 C19 1.256 . S
O31 Gd0 2.327 . S
O31 Gd1 2.717 . S
O31 C19 1.257 . S
H32 C5 0.930 . S
H33 C6 0.931 . S
H34 C8 0.931 . S
H35 C9 0.931 . S
H36 C14 0.930 . S
H37 C15 0.931 . S
H38 C17 0.931 . S
H39 C18 0.931 . S
Gd40 C43 2.818 1_455 S
Gd40 O60 2.377 . S
Gd40 O62 2.448 1_455 S
Gd40 O63 2.506 1_455 S
Gd40 O64 2.435 . S
Gd40 O65 2.717 . S
Gd40 O67 2.395 . S
Gd40 O71 2.327 . S
Gd41 C52 2.818 . S
Gd41 O61 2.395 . S
Gd41 O65 2.327 . S
Gd41 O66 2.377 . S
Gd41 O68 2.448 . S
Gd41 O69 2.506 . S
Gd41 O70 2.435 . S
Gd41 O71 2.717 . S
C42 O60 1.240 . S
C42 O61 1.240 . S
C43 Gd40 2.818 1_655 S
C43 C44 1.510 . S
C43 O62 1.249 . S
C43 O63 1.252 . S
C44 C43 1.510 . S
C44 C45 1.404 . S
C44 C46 1.352 . S
C45 C44 1.404 . S
C45 C49 1.389 . S
C45 H72 0.930 . S
C46 C44 1.352 . S
C46 C48 1.374 . S
C46 H73 0.931 . S
C47 C48 1.359 . S
C47 C49 1.364 . S
C48 C46 1.374 . S
C48 C47 1.359 . S
C48 H74 0.931 . S
C49 C45 1.389 . S
C49 C47 1.364 . S
C49 H75 0.931 . S
C50 O64 1.256 . S
C50 O65 1.257 . S
C51 O66 1.240 . S
C51 O67 1.240 . S
C52 Gd41 2.818 . S
C52 C53 1.510 . S
C52 O68 1.249 . S
C52 O69 1.252 . S
C53 C52 1.510 . S
C53 C54 1.404 . S
C53 C55 1.352 . S
C54 C53 1.404 . S
C54 C58 1.389 . S
C54 H76 0.930 . S
C55 C53 1.352 . S
C55 C57 1.374 . S
C55 H77 0.931 . S
C56 C57 1.359 . S
C56 C58 1.364 . S
C57 C55 1.374 . S
C57 C56 1.359 . S
C57 H78 0.931 . S
C58 C54 1.389 . S
C58 C56 1.364 . S
C58 H79 0.931 . S
C59 O70 1.256 . S
C59 O71 1.257 . S
O60 Gd40 2.377 . S
O60 C42 1.240 . S
O61 Gd41 2.395 . S
O61 C42 1.240 . S
O62 Gd40 2.448 1_655 S
O62 C43 1.249 . S
O63 Gd40 2.506 1_655 S
O63 C43 1.252 . S
O64 Gd40 2.435 . S
O64 C50 1.256 . S
O65 Gd40 2.717 . S
O65 Gd41 2.327 . S
O65 C50 1.257 . S
O66 Gd41 2.377 . S
O66 C51 1.240 . S
O67 Gd40 2.395 . S
O67 C51 1.240 . S
O68 Gd41 2.448 . S
O68 C52 1.249 . S
O69 Gd41 2.506 . S
O69 C52 1.252 . S
O70 Gd41 2.435 . S
O70 C59 1.256 . S
O71 Gd40 2.327 . S
O71 Gd41 2.717 . S
O71 C59 1.257 . S
H72 C45 0.930 . S
H73 C46 0.931 . S
H74 C48 0.931 . S
H75 C49 0.931 . S
H76 C54 0.930 . S
H77 C55 0.931 . S
H78 C57 0.931 . S
H79 C58 0.931 . S
Gd80 C83 2.818 . S
Gd80 O100 2.377 . S
Gd80 O102 2.448 . S
Gd80 O103 2.506 . S
Gd80 O104 2.435 . S
Gd80 O105 2.717 . S
Gd80 O107 2.395 . S
Gd80 O111 2.327 . S
Gd81 C92 2.818 . S
Gd81 O101 2.395 . S
Gd81 O105 2.327 . S
Gd81 O106 2.377 . S
Gd81 O108 2.448 . S
Gd81 O109 2.506 . S
Gd81 O110 2.435 . S
Gd81 O111 2.717 . S
C82 O100 1.240 . S
C82 O101 1.240 . S
C83 Gd80 2.818 . S
C83 C84 1.510 . S
C83 O102 1.249 . S
C83 O103 1.252 . S
C84 C83 1.510 . S
C84 C85 1.404 . S
C84 C86 1.352 . S
C85 C84 1.404 . S
C85 C89 1.389 . S
C85 H112 0.930 . S
C86 C84 1.352 . S
C86 C88 1.374 . S
C86 H113 0.931 . S
C87 C88 1.359 . S
C87 C89 1.364 . S
C88 C86 1.374 . S
C88 C87 1.359 . S
C88 H114 0.931 . S
C89 C85 1.389 . S
C89 C87 1.364 . S
C89 H115 0.931 . S
C90 O104 1.256 . S
C90 O105 1.257 . S
C91 O106 1.240 . S
C91 O107 1.240 . S
C92 Gd81 2.818 . S
C92 C93 1.510 . S
C92 O108 1.249 . S
C92 O109 1.252 . S
C93 C92 1.510 . S
C93 C94 1.404 . S
C93 C95 1.352 . S
C94 C93 1.404 . S
C94 C98 1.389 . S
C94 H116 0.930 . S
C95 C93 1.352 . S
C95 C97 1.374 . S
C95 H117 0.931 . S
C96 C97 1.359 . S
C96 C98 1.364 . S
C97 C95 1.374 . S
C97 C96 1.359 . S
C97 H118 0.931 . S
C98 C94 1.389 . S
C98 C96 1.364 . S
C98 H119 0.931 . S
C99 O110 1.256 . S
C99 O111 1.257 . S
O100 Gd80 2.377 . S
O100 C82 1.240 . S
O101 Gd81 2.395 . S
O101 C82 1.240 . S
O102 Gd80 2.448 . S
O102 C83 1.249 . S
O103 Gd80 2.506 . S
O103 C83 1.252 . S
O104 Gd80 2.435 . S
O104 C90 1.256 . S
O105 Gd80 2.717 . S
O105 Gd81 2.327 . S
O105 C90 1.257 . S
O106 Gd81 2.377 . S
O106 C91 1.240 . S
O107 Gd80 2.395 . S
O107 C91 1.240 . S
O108 Gd81 2.448 . S
O108 C92 1.249 . S
O109 Gd81 2.506 . S
O109 C92 1.252 . S
O110 Gd81 2.435 . S
O110 C99 1.256 . S
O111 Gd80 2.327 . S
O111 Gd81 2.717 . S
O111 C99 1.257 . S
H112 C85 0.930 . S
H113 C86 0.931 . S
H114 C88 0.931 . S
H115 C89 0.931 . S
H116 C94 0.930 . S
H117 C95 0.931 . S
H118 C97 0.931 . S
H119 C98 0.931 . S
Gd120 C123 2.818 . S
Gd120 O140 2.377 . S
Gd120 O142 2.448 . S
Gd120 O143 2.506 . S
Gd120 O144 2.435 . S
Gd120 O145 2.717 . S
Gd120 O147 2.395 . S
Gd120 O151 2.327 . S
Gd121 C132 2.818 . S
Gd121 O141 2.395 . S
Gd121 O145 2.327 . S
Gd121 O146 2.377 . S
Gd121 O148 2.448 . S
Gd121 O149 2.506 . S
Gd121 O150 2.435 . S
Gd121 O151 2.717 . S
C122 O140 1.240 . S
C122 O141 1.240 . S
C123 Gd120 2.818 . S
C123 C124 1.510 . S
C123 O142 1.249 . S
C123 O143 1.252 . S
C124 C123 1.510 . S
C124 C125 1.404 . S
C124 C126 1.352 . S
C125 C124 1.404 . S
C125 C129 1.389 . S
C125 H152 0.930 . S
C126 C124 1.352 . S
C126 C128 1.374 . S
C126 H153 0.931 . S
C127 C128 1.359 . S
C127 C129 1.364 . S
C128 C126 1.374 . S
C128 C127 1.359 . S
C128 H154 0.931 . S
C129 C125 1.389 . S
C129 C127 1.364 . S
C129 H155 0.931 . S
C130 O144 1.256 . S
C130 O145 1.257 . S
C131 O146 1.240 . S
C131 O147 1.240 . S
C132 Gd121 2.818 . S
C132 C133 1.510 . S
C132 O148 1.249 . S
C132 O149 1.252 . S
C133 C132 1.510 . S
C133 C134 1.404 . S
C133 C135 1.352 . S
C134 C133 1.404 . S
C134 C138 1.389 . S
C134 H156 0.930 . S
C135 C133 1.352 . S
C135 C137 1.374 . S
C135 H157 0.931 . S
C136 C137 1.359 . S
C136 C138 1.364 . S
C137 C135 1.374 . S
C137 C136 1.359 . S
C137 H158 0.931 . S
C138 C134 1.389 . S
C138 C136 1.364 . S
C138 H159 0.931 . S
C139 O150 1.256 . S
C139 O151 1.257 . S
O140 Gd120 2.377 . S
O140 C122 1.240 . S
O141 Gd121 2.395 . S
O141 C122 1.240 . S
O142 Gd120 2.448 . S
O142 C123 1.249 . S
O143 Gd120 2.506 . S
O143 C123 1.252 . S
O144 Gd120 2.435 . S
O144 C130 1.256 . S
O145 Gd120 2.717 . S
O145 Gd121 2.327 . S
O145 C130 1.257 . S
O146 Gd121 2.377 . S
O146 C131 1.240 . S
O147 Gd120 2.395 . S
O147 C131 1.240 . S
O148 Gd121 2.448 . S
O148 C132 1.249 . S
O149 Gd121 2.506 . S
O149 C132 1.252 . S
O150 Gd121 2.435 . S
O150 C139 1.256 . S
O151 Gd120 2.327 . S
O151 Gd121 2.717 . S
O151 C139 1.257 . S
H152 C125 0.930 . S
H153 C126 0.931 . S
H154 C128 0.931 . S
H155 C129 0.931 . S
H156 C134 0.930 . S
H157 C135 0.931 . S
H158 C137 0.931 . S
H159 C138 0.931 . S
Gd160 C163 2.818 . S
Gd160 O180 2.377 . S
Gd160 O182 2.448 . S
Gd160 O183 2.506 . S
Gd160 O184 2.435 . S
Gd160 O185 2.717 . S
Gd160 O187 2.395 . S
Gd160 O191 2.327 . S
Gd161 C172 2.818 . S
Gd161 O181 2.395 . S
Gd161 O185 2.327 . S
Gd161 O186 2.377 . S
Gd161 O188 2.448 . S
Gd161 O189 2.506 . S
Gd161 O190 2.435 . S
Gd161 O191 2.717 . S
C162 O180 1.240 . S
C162 O181 1.240 . S
C163 Gd160 2.818 . S
C163 C164 1.510 . S
C163 O182 1.249 . S
C163 O183 1.252 . S
C164 C163 1.510 . S
C164 C165 1.404 . S
C164 C166 1.352 . S
C165 C164 1.404 . S
C165 C169 1.389 . S
C165 H192 0.930 . S
C166 C164 1.352 . S
C166 C168 1.374 . S
C166 H193 0.931 . S
C167 C168 1.359 . S
C167 C169 1.364 . S
C168 C166 1.374 . S
C168 C167 1.359 . S
C168 H194 0.931 . S
C169 C165 1.389 . S
C169 C167 1.364 . S
C169 H195 0.931 . S
C170 O184 1.256 . S
C170 O185 1.257 . S
C171 O186 1.240 . S
C171 O187 1.240 . S
C172 Gd161 2.818 . S
C172 C173 1.510 . S
C172 O188 1.249 . S
C172 O189 1.252 . S
C173 C172 1.510 . S
C173 C174 1.404 . S
C173 C175 1.352 . S
C174 C173 1.404 . S
C174 C178 1.389 . S
C174 H196 0.930 . S
C175 C173 1.352 . S
C175 C177 1.374 . S
C175 H197 0.931 . S
C176 C177 1.359 . S
C176 C178 1.364 . S
C177 C175 1.374 . S
C177 C176 1.359 . S
C177 H198 0.931 . S
C178 C174 1.389 . S
C178 C176 1.364 . S
C178 H199 0.931 . S
C179 O190 1.256 . S
C179 O191 1.257 . S
O180 Gd160 2.377 . S
O180 C162 1.240 . S
O181 Gd161 2.395 . S
O181 C162 1.240 . S
O182 Gd160 2.448 . S
O182 C163 1.249 . S
O183 Gd160 2.506 . S
O183 C163 1.252 . S
O184 Gd160 2.435 . S
O184 C170 1.256 . S
O185 Gd160 2.717 . S
O185 Gd161 2.327 . S
O185 C170 1.257 . S
O186 Gd161 2.377 . S
O186 C171 1.240 . S
O187 Gd160 2.395 . S
O187 C171 1.240 . S
O188 Gd161 2.448 . S
O188 C172 1.249 . S
O189 Gd161 2.506 . S
O189 C172 1.252 . S
O190 Gd161 2.435 . S
O190 C179 1.256 . S
O191 Gd160 2.327 . S
O191 Gd161 2.717 . S
O191 C179 1.257 . S
H192 C165 0.930 . S
H193 C166 0.931 . S
H194 C168 0.931 . S
H195 C169 0.931 . S
H196 C174 0.930 . S
H197 C175 0.931 . S
H198 C177 0.931 . S
H199 C178 0.931 . S
Gd200 C203 2.818 . S
Gd200 O220 2.377 . S
Gd200 O222 2.448 . S
Gd200 O223 2.506 . S
Gd200 O224 2.435 . S
Gd200 O225 2.717 . S
Gd200 O227 2.395 . S
Gd200 O231 2.327 . S
Gd201 C212 2.818 . S
Gd201 O221 2.395 . S
Gd201 O225 2.327 . S
Gd201 O226 2.377 . S
Gd201 O228 2.448 . S
Gd201 O229 2.506 . S
Gd201 O230 2.435 . S
Gd201 O231 2.717 . S
C202 O220 1.240 . S
C202 O221 1.240 . S
C203 Gd200 2.818 . S
C203 C204 1.510 . S
C203 O222 1.249 . S
C203 O223 1.252 . S
C204 C203 1.510 . S
C204 C205 1.404 . S
C204 C206 1.352 . S
C205 C204 1.404 . S
C205 C209 1.389 . S
C205 H232 0.930 . S
C206 C204 1.352 . S
C206 C208 1.374 . S
C206 H233 0.931 . S
C207 C208 1.359 . S
C207 C209 1.364 . S
C208 C206 1.374 . S
C208 C207 1.359 . S
C208 H234 0.931 . S
C209 C205 1.389 . S
C209 C207 1.364 . S
C209 H235 0.931 . S
C210 O224 1.256 . S
C210 O225 1.257 . S
C211 O226 1.240 . S
C211 O227 1.240 . S
C212 Gd201 2.818 . S
C212 C213 1.510 . S
C212 O228 1.249 . S
C212 O229 1.252 . S
C213 C212 1.510 . S
C213 C214 1.404 . S
C213 C215 1.352 . S
C214 C213 1.404 . S
C214 C218 1.389 . S
C214 H236 0.930 . S
C215 C213 1.352 . S
C215 C217 1.374 . S
C215 H237 0.931 . S
C216 C217 1.359 . S
C216 C218 1.364 . S
C217 C215 1.374 . S
C217 C216 1.359 . S
C217 H238 0.931 . S
C218 C214 1.389 . S
C218 C216 1.364 . S
C218 H239 0.931 . S
C219 O230 1.256 . S
C219 O231 1.257 . S
O220 Gd200 2.377 . S
O220 C202 1.240 . S
O221 Gd201 2.395 . S
O221 C202 1.240 . S
O222 Gd200 2.448 . S
O222 C203 1.249 . S
O223 Gd200 2.506 . S
O223 C203 1.252 . S
O224 Gd200 2.435 . S
O224 C210 1.256 . S
O225 Gd200 2.717 . S
O225 Gd201 2.327 . S
O225 C210 1.257 . S
O226 Gd201 2.377 . S
O226 C211 1.240 . S
O227 Gd200 2.395 . S
O227 C211 1.240 . S
O228 Gd201 2.448 . S
O228 C212 1.249 . S
O229 Gd201 2.506 . S
O229 C212 1.252 . S
O230 Gd201 2.435 . S
O230 C219 1.256 . S
O231 Gd200 2.327 . S
O231 Gd201 2.717 . S
O231 C219 1.257 . S
H232 C205 0.930 . S
H233 C206 0.931 . S
H234 C208 0.931 . S
H235 C209 0.931 . S
H236 C214 0.930 . S
H237 C215 0.931 . S
H238 C217 0.931 . S
H239 C218 0.931 . S
Gd240 C243 2.818 . S
Gd240 O260 2.377 . S
Gd240 O262 2.448 . S
Gd240 O263 2.506 . S
Gd240 O264 2.435 . S
Gd240 O265 2.717 . S
Gd240 O267 2.395 . S
Gd240 O271 2.327 . S
Gd241 C252 2.818 . S
Gd241 O261 2.395 . S
Gd241 O265 2.327 . S
Gd241 O266 2.377 . S
Gd241 O268 2.448 . S
Gd241 O269 2.506 . S
Gd241 O270 2.435 . S
Gd241 O271 2.717 . S
C242 O260 1.240 . S
C242 O261 1.240 . S
C243 Gd240 2.818 . S
C243 C244 1.510 . S
C243 O262 1.249 . S
C243 O263 1.252 . S
C244 C243 1.510 . S
C244 C245 1.404 . S
C244 C246 1.352 . S
C245 C244 1.404 . S
C245 C249 1.389 . S
C245 H272 0.930 . S
C246 C244 1.352 . S
C246 C248 1.374 . S
C246 H273 0.931 . S
C247 C248 1.359 . S
C247 C249 1.364 . S
C248 C246 1.374 . S
C248 C247 1.359 . S
C248 H274 0.931 . S
C249 C245 1.389 . S
C249 C247 1.364 . S
C249 H275 0.931 . S
C250 O264 1.256 . S
C250 O265 1.257 . S
C251 O266 1.240 . S
C251 O267 1.240 . S
C252 Gd241 2.818 . S
C252 C253 1.510 . S
C252 O268 1.249 . S
C252 O269 1.252 . S
C253 C252 1.510 . S
C253 C254 1.404 . S
C253 C255 1.352 . S
C254 C253 1.404 . S
C254 C258 1.389 . S
C254 H276 0.930 . S
C255 C253 1.352 . S
C255 C257 1.374 . S
C255 H277 0.931 . S
C256 C257 1.359 . S
C256 C258 1.364 . S
C257 C255 1.374 . S
C257 C256 1.359 . S
C257 H278 0.931 . S
C258 C254 1.389 . S
C258 C256 1.364 . S
C258 H279 0.931 . S
C259 O270 1.256 . S
C259 O271 1.257 . S
O260 Gd240 2.377 . S
O260 C242 1.240 . S
O261 Gd241 2.395 . S
O261 C242 1.240 . S
O262 Gd240 2.448 . S
O262 C243 1.249 . S
O263 Gd240 2.506 . S
O263 C243 1.252 . S
O264 Gd240 2.435 . S
O264 C250 1.256 . S
O265 Gd240 2.717 . S
O265 Gd241 2.327 . S
O265 C250 1.257 . S
O266 Gd241 2.377 . S
O266 C251 1.240 . S
O267 Gd240 2.395 . S
O267 C251 1.240 . S
O268 Gd241 2.448 . S
O268 C252 1.249 . S
O269 Gd241 2.506 . S
O269 C252 1.252 . S
O270 Gd241 2.435 . S
O270 C259 1.256 . S
O271 Gd240 2.327 . S
O271 Gd241 2.717 . S
O271 C259 1.257 . S
H272 C245 0.930 . S
H273 C246 0.931 . S
H274 C248 0.931 . S
H275 C249 0.931 . S
H276 C254 0.930 . S
H277 C255 0.931 . S
H278 C257 0.931 . S
H279 C258 0.931 . S
Gd280 C283 2.818 1_455 S
Gd280 O300 2.377 . S
Gd280 O302 2.448 1_455 S
Gd280 O303 2.506 1_455 S
Gd280 O304 2.435 . S
Gd280 O305 2.717 . S
Gd280 O307 2.395 . S
Gd280 O311 2.327 . S
Gd281 C292 2.818 . S
Gd281 O301 2.395 . S
Gd281 O305 2.327 . S
Gd281 O306 2.377 . S
Gd281 O308 2.448 . S
Gd281 O309 2.506 . S
Gd281 O310 2.435 . S
Gd281 O311 2.717 . S
C282 O300 1.240 . S
C282 O301 1.240 . S
C283 Gd280 2.818 1_655 S
C283 C284 1.510 . S
C283 O302 1.249 . S
C283 O303 1.252 . S
C284 C283 1.510 . S
C284 C285 1.404 . S
C284 C286 1.352 . S
C285 C284 1.404 . S
C285 C289 1.389 . S
C285 H312 0.930 . S
C286 C284 1.352 . S
C286 C288 1.374 . S
C286 H313 0.931 . S
C287 C288 1.359 . S
C287 C289 1.364 . S
C288 C286 1.374 . S
C288 C287 1.359 . S
C288 H314 0.931 . S
C289 C285 1.389 . S
C289 C287 1.364 . S
C289 H315 0.931 . S
C290 O304 1.256 . S
C290 O305 1.257 . S
C291 O306 1.240 . S
C291 O307 1.240 . S
C292 Gd281 2.818 . S
C292 C293 1.510 . S
C292 O308 1.249 . S
C292 O309 1.252 . S
C293 C292 1.510 . S
C293 C294 1.404 . S
C293 C295 1.352 . S
C294 C293 1.404 . S
C294 C298 1.389 . S
C294 H316 0.930 . S
C295 C293 1.352 . S
C295 C297 1.374 . S
C295 H317 0.931 . S
C296 C297 1.359 . S
C296 C298 1.364 . S
C297 C295 1.374 . S
C297 C296 1.359 . S
C297 H318 0.931 . S
C298 C294 1.389 . S
C298 C296 1.364 . S
C298 H319 0.931 . S
C299 O310 1.256 . S
C299 O311 1.257 . S
O300 Gd280 2.377 . S
O300 C282 1.240 . S
O301 Gd281 2.395 . S
O301 C282 1.240 . S
O302 Gd280 2.448 1_655 S
O302 C283 1.249 . S
O303 Gd280 2.506 1_655 S
O303 C283 1.252 . S
O304 Gd280 2.435 . S
O304 C290 1.256 . S
O305 Gd280 2.717 . S
O305 Gd281 2.327 . S
O305 C290 1.257 . S
O306 Gd281 2.377 . S
O306 C291 1.240 . S
O307 Gd280 2.395 . S
O307 C291 1.240 . S
O308 Gd281 2.448 . S
O308 C292 1.249 . S
O309 Gd281 2.506 . S
O309 C292 1.252 . S
O310 Gd281 2.435 . S
O310 C299 1.256 . S
O311 Gd280 2.327 . S
O311 Gd281 2.717 . S
O311 C299 1.257 . S
H312 C285 0.930 . S
H313 C286 0.931 . S
H314 C288 0.931 . S
H315 C289 0.931 . S
H316 C294 0.930 . S
H317 C295 0.931 . S
H318 C297 0.931 . S
H319 C298 0.931 . S
Gd320 C323 2.818 . S
Gd320 O340 2.377 . S
Gd320 O342 2.448 . S
Gd320 O343 2.506 . S
Gd320 O344 2.435 . S
Gd320 O345 2.717 . S
Gd320 O347 2.395 . S
Gd320 O351 2.327 . S
Gd321 C332 2.818 . S
Gd321 O341 2.395 . S
Gd321 O345 2.327 . S
Gd321 O346 2.377 . S
Gd321 O348 2.448 . S
Gd321 O349 2.506 . S
Gd321 O350 2.435 . S
Gd321 O351 2.717 . S
C322 O340 1.240 . S
C322 O341 1.240 . S
C323 Gd320 2.818 . S
C323 C324 1.510 . S
C323 O342 1.249 . S
C323 O343 1.252 . S
C324 C323 1.510 . S
C324 C325 1.404 . S
C324 C326 1.352 . S
C325 C324 1.404 . S
C325 C329 1.389 . S
C325 H352 0.930 . S
C326 C324 1.352 . S
C326 C328 1.374 . S
C326 H353 0.931 . S
C327 C328 1.359 . S
C327 C329 1.364 . S
C328 C326 1.374 . S
C328 C327 1.359 . S
C328 H354 0.931 . S
C329 C325 1.389 . S
C329 C327 1.364 . S
C329 H355 0.931 . S
C330 O344 1.256 . S
C330 O345 1.257 . S
C331 O346 1.240 . S
C331 O347 1.240 . S
C332 Gd321 2.818 . S
C332 C333 1.510 . S
C332 O348 1.249 . S
C332 O349 1.252 . S
C333 C332 1.510 . S
C333 C334 1.404 . S
C333 C335 1.352 . S
C334 C333 1.404 . S
C334 C338 1.389 . S
C334 H356 0.930 . S
C335 C333 1.352 . S
C335 C337 1.374 . S
C335 H357 0.931 . S
C336 C337 1.359 . S
C336 C338 1.364 . S
C337 C335 1.374 . S
C337 C336 1.359 . S
C337 H358 0.931 . S
C338 C334 1.389 . S
C338 C336 1.364 . S
C338 H359 0.931 . S
C339 O350 1.256 . S
C339 O351 1.257 . S
O340 Gd320 2.377 . S
O340 C322 1.240 . S
O341 Gd321 2.395 . S
O341 C322 1.240 . S
O342 Gd320 2.448 . S
O342 C323 1.249 . S
O343 Gd320 2.506 . S
O343 C323 1.252 . S
O344 Gd320 2.435 . S
O344 C330 1.256 . S
O345 Gd320 2.717 . S
O345 Gd321 2.327 . S
O345 C330 1.257 . S
O346 Gd321 2.377 . S
O346 C331 1.240 . S
O347 Gd320 2.395 . S
O347 C331 1.240 . S
O348 Gd321 2.448 . S
O348 C332 1.249 . S
O349 Gd321 2.506 . S
O349 C332 1.252 . S
O350 Gd321 2.435 . S
O350 C339 1.256 . S
O351 Gd320 2.327 . S
O351 Gd321 2.717 . S
O351 C339 1.257 . S
H352 C325 0.930 . S
H353 C326 0.931 . S
H354 C328 0.931 . S
H355 C329 0.931 . S
H356 C334 0.930 . S
H357 C335 0.931 . S
H358 C337 0.931 . S
H359 C338 0.931 . S
Gd360 C363 2.818 . S
Gd360 O380 2.377 . S
Gd360 O382 2.448 . S
Gd360 O383 2.506 . S
Gd360 O384 2.435 . S
Gd360 O385 2.717 . S
Gd360 O387 2.395 . S
Gd360 O391 2.327 . S
Gd361 C372 2.818 1_655 S
Gd361 O381 2.395 . S
Gd361 O385 2.327 . S
Gd361 O386 2.377 . S
Gd361 O388 2.448 1_655 S
Gd361 O389 2.506 1_655 S
Gd361 O390 2.435 . S
Gd361 O391 2.717 . S
C362 O380 1.240 . S
C362 O381 1.240 . S
C363 Gd360 2.818 . S
C363 C364 1.510 . S
C363 O382 1.249 . S
C363 O383 1.252 . S
C364 C363 1.510 . S
C364 C365 1.404 . S
C364 C366 1.352 . S
C365 C364 1.404 . S
C365 C369 1.389 . S
C365 H392 0.930 . S
C366 C364 1.352 . S
C366 C368 1.374 . S
C366 H393 0.931 . S
C367 C368 1.359 . S
C367 C369 1.364 . S
C368 C366 1.374 . S
C368 C367 1.359 . S
C368 H394 0.931 . S
C369 C365 1.389 . S
C369 C367 1.364 . S
C369 H395 0.931 . S
C370 O384 1.256 . S
C370 O385 1.257 . S
C371 O386 1.240 . S
C371 O387 1.240 . S
C372 Gd361 2.818 1_455 S
C372 C373 1.510 . S
C372 O388 1.249 . S
C372 O389 1.252 . S
C373 C372 1.510 . S
C373 C374 1.404 . S
C373 C375 1.352 . S
C374 C373 1.404 . S
C374 C378 1.389 . S
C374 H396 0.930 . S
C375 C373 1.352 . S
C375 C377 1.374 . S
C375 H397 0.931 . S
C376 C377 1.359 . S
C376 C378 1.364 . S
C377 C375 1.374 . S
C377 C376 1.359 . S
C377 H398 0.931 . S
C378 C374 1.389 . S
C378 C376 1.364 . S
C378 H399 0.931 . S
C379 O390 1.256 . S
C379 O391 1.257 . S
O380 Gd360 2.377 . S
O380 C362 1.240 . S
O381 Gd361 2.395 . S
O381 C362 1.240 . S
O382 Gd360 2.448 . S
O382 C363 1.249 . S
O383 Gd360 2.506 . S
O383 C363 1.252 . S
O384 Gd360 2.435 . S
O384 C370 1.256 . S
O385 Gd360 2.717 . S
O385 Gd361 2.327 . S
O385 C370 1.257 . S
O386 Gd361 2.377 . S
O386 C371 1.240 . S
O387 Gd360 2.395 . S
O387 C371 1.240 . S
O388 Gd361 2.448 1_455 S
O388 C372 1.249 . S
O389 Gd361 2.506 1_455 S
O389 C372 1.252 . S
O390 Gd361 2.435 . S
O390 C379 1.256 . S
O391 Gd360 2.327 . S
O391 Gd361 2.717 . S
O391 C379 1.257 . S
H392 C365 0.930 . S
H393 C366 0.931 . S
H394 C368 0.931 . S
H395 C369 0.931 . S
H396 C374 0.930 . S
H397 C375 0.931 . S
H398 C377 0.931 . S
H399 C378 0.931 . S
Gd400 C403 2.818 . S
Gd400 O420 2.377 . S
Gd400 O422 2.448 . S
Gd400 O423 2.506 . S
Gd400 O424 2.435 . S
Gd400 O425 2.717 . S
Gd400 O427 2.395 . S
Gd400 O431 2.327 . S
Gd401 C412 2.818 . S
Gd401 O421 2.395 . S
Gd401 O425 2.327 . S
Gd401 O426 2.377 . S
Gd401 O428 2.448 . S
Gd401 O429 2.506 . S
Gd401 O430 2.435 . S
Gd401 O431 2.717 . S
C402 O420 1.240 . S
C402 O421 1.240 . S
C403 Gd400 2.818 . S
C403 C404 1.510 . S
C403 O422 1.249 . S
C403 O423 1.252 . S
C404 C403 1.510 . S
C404 C405 1.404 . S
C404 C406 1.352 . S
C405 C404 1.404 . S
C405 C409 1.389 . S
C405 H432 0.930 . S
C406 C404 1.352 . S
C406 C408 1.374 . S
C406 H433 0.931 . S
C407 C408 1.359 . S
C407 C409 1.364 . S
C408 C406 1.374 . S
C408 C407 1.359 . S
C408 H434 0.931 . S
C409 C405 1.389 . S
C409 C407 1.364 . S
C409 H435 0.931 . S
C410 O424 1.256 . S
C410 O425 1.257 . S
C411 O426 1.240 . S
C411 O427 1.240 . S
C412 Gd401 2.818 . S
C412 C413 1.510 . S
C412 O428 1.249 . S
C412 O429 1.252 . S
C413 C412 1.510 . S
C413 C414 1.404 . S
C413 C415 1.352 . S
C414 C413 1.404 . S
C414 C418 1.389 . S
C414 H436 0.930 . S
C415 C413 1.352 . S
C415 C417 1.374 . S
C415 H437 0.931 . S
C416 C417 1.359 . S
C416 C418 1.364 . S
C417 C415 1.374 . S
C417 C416 1.359 . S
C417 H438 0.931 . S
C418 C414 1.389 . S
C418 C416 1.364 . S
C418 H439 0.931 . S
C419 O430 1.256 . S
C419 O431 1.257 . S
O420 Gd400 2.377 . S
O420 C402 1.240 . S
O421 Gd401 2.395 . S
O421 C402 1.240 . S
O422 Gd400 2.448 . S
O422 C403 1.249 . S
O423 Gd400 2.506 . S
O423 C403 1.252 . S
O424 Gd400 2.435 . S
O424 C410 1.256 . S
O425 Gd400 2.717 . S
O425 Gd401 2.327 . S
O425 C410 1.257 . S
O426 Gd401 2.377 . S
O426 C411 1.240 . S
O427 Gd400 2.395 . S
O427 C411 1.240 . S
O428 Gd401 2.448 . S
O428 C412 1.249 . S
O429 Gd401 2.506 . S
O429 C412 1.252 . S
O430 Gd401 2.435 . S
O430 C419 1.256 . S
O431 Gd400 2.327 . S
O431 Gd401 2.717 . S
O431 C419 1.257 . S
H432 C405 0.930 . S
H433 C406 0.931 . S
H434 C408 0.931 . S
H435 C409 0.931 . S
H436 C414 0.930 . S
H437 C415 0.931 . S
H438 C417 0.931 . S
H439 C418 0.931 . S
Gd440 C443 2.818 . S
Gd440 O460 2.377 . S
Gd440 O462 2.448 . S
Gd440 O463 2.506 . S
Gd440 O464 2.435 . S
Gd440 O465 2.717 . S
Gd440 O467 2.395 . S
Gd440 O471 2.327 . S
Gd441 C452 2.818 . S
Gd441 O461 2.395 . S
Gd441 O465 2.327 . S
Gd441 O466 2.377 . S
Gd441 O468 2.448 . S
Gd441 O469 2.506 . S
Gd441 O470 2.435 . S
Gd441 O471 2.717 . S
C442 O460 1.240 . S
C442 O461 1.240 . S
C443 Gd440 2.818 . S
C443 C444 1.510 . S
C443 O462 1.249 . S
C443 O463 1.252 . S
C444 C443 1.510 . S
C444 C445 1.404 . S
C444 C446 1.352 . S
C445 C444 1.404 . S
C445 C449 1.389 . S
C445 H472 0.930 . S
C446 C444 1.352 . S
C446 C448 1.374 . S
C446 H473 0.931 . S
C447 C448 1.359 . S
C447 C449 1.364 . S
C448 C446 1.374 . S
C448 C447 1.359 . S
C448 H474 0.931 . S
C449 C445 1.389 . S
C449 C447 1.364 . S
C449 H475 0.931 . S
C450 O464 1.256 . S
C450 O465 1.257 . S
C451 O466 1.240 . S
C451 O467 1.240 . S
C452 Gd441 2.818 . S
C452 C453 1.510 . S
C452 O468 1.249 . S
C452 O469 1.252 . S
C453 C452 1.510 . S
C453 C454 1.404 . S
C453 C455 1.352 . S
C454 C453 1.404 . S
C454 C458 1.389 . S
C454 H476 0.930 . S
C455 C453 1.352 . S
C455 C457 1.374 . S
C455 H477 0.931 . S
C456 C457 1.359 . S
C456 C458 1.364 . S
C457 C455 1.374 . S
C457 C456 1.359 . S
C457 H478 0.931 . S
C458 C454 1.389 . S
C458 C456 1.364 . S
C458 H479 0.931 . S
C459 O470 1.256 . S
C459 O471 1.257 . S
O460 Gd440 2.377 . S
O460 C442 1.240 . S
O461 Gd441 2.395 . S
O461 C442 1.240 . S
O462 Gd440 2.448 . S
O462 C443 1.249 . S
O463 Gd440 2.506 . S
O463 C443 1.252 . S
O464 Gd440 2.435 . S
O464 C450 1.256 . S
O465 Gd440 2.717 . S
O465 Gd441 2.327 . S
O465 C450 1.257 . S
O466 Gd441 2.377 . S
O466 C451 1.240 . S
O467 Gd440 2.395 . S
O467 C451 1.240 . S
O468 Gd441 2.448 . S
O468 C452 1.249 . S
O469 Gd441 2.506 . S
O469 C452 1.252 . S
O470 Gd441 2.435 . S
O470 C459 1.256 . S
O471 Gd440 2.327 . S
O471 Gd441 2.717 . S
O471 C459 1.257 . S
H472 C445 0.930 . S
H473 C446 0.931 . S
H474 C448 0.931 . S
H475 C449 0.931 . S
H476 C454 0.930 . S
H477 C455 0.931 . S
H478 C457 0.931 . S
H479 C458 0.931 . S
Gd480 C483 2.818 . S
Gd480 O500 2.377 . S
Gd480 O502 2.448 . S
Gd480 O503 2.506 . S
Gd480 O504 2.435 . S
Gd480 O505 2.717 . S
Gd480 O507 2.395 . S
Gd480 O511 2.327 . S
Gd481 C492 2.818 . S
Gd481 O501 2.395 . S
Gd481 O505 2.327 . S
Gd481 O506 2.377 . S
Gd481 O508 2.448 . S
Gd481 O509 2.506 . S
Gd481 O510 2.435 . S
Gd481 O511 2.717 . S
C482 O500 1.240 . S
C482 O501 1.240 . S
C483 Gd480 2.818 . S
C483 C484 1.510 . S
C483 O502 1.249 . S
C483 O503 1.252 . S
C484 C483 1.510 . S
C484 C485 1.404 . S
C484 C486 1.352 . S
C485 C484 1.404 . S
C485 C489 1.389 . S
C485 H512 0.930 . S
C486 C484 1.352 . S
C486 C488 1.374 . S
C486 H513 0.931 . S
C487 C488 1.359 . S
C487 C489 1.364 . S
C488 C486 1.374 . S
C488 C487 1.359 . S
C488 H514 0.931 . S
C489 C485 1.389 . S
C489 C487 1.364 . S
C489 H515 0.931 . S
C490 O504 1.256 . S
C490 O505 1.257 . S
C491 O506 1.240 . S
C491 O507 1.240 . S
C492 Gd481 2.818 . S
C492 C493 1.510 . S
C492 O508 1.249 . S
C492 O509 1.252 . S
C493 C492 1.510 . S
C493 C494 1.404 . S
C493 C495 1.352 . S
C494 C493 1.404 . S
C494 C498 1.389 . S
C494 H516 0.930 . S
C495 C493 1.352 . S
C495 C497 1.374 . S
C495 H517 0.931 . S
C496 C497 1.359 . S
C496 C498 1.364 . S
C497 C495 1.374 . S
C497 C496 1.359 . S
C497 H518 0.931 . S
C498 C494 1.389 . S
C498 C496 1.364 . S
C498 H519 0.931 . S
C499 O510 1.256 . S
C499 O511 1.257 . S
O500 Gd480 2.377 . S
O500 C482 1.240 . S
O501 Gd481 2.395 . S
O501 C482 1.240 . S
O502 Gd480 2.448 . S
O502 C483 1.249 . S
O503 Gd480 2.506 . S
O503 C483 1.252 . S
O504 Gd480 2.435 . S
O504 C490 1.256 . S
O505 Gd480 2.717 . S
O505 Gd481 2.327 . S
O505 C490 1.257 . S
O506 Gd481 2.377 . S
O506 C491 1.240 . S
O507 Gd480 2.395 . S
O507 C491 1.240 . S
O508 Gd481 2.448 . S
O508 C492 1.249 . S
O509 Gd481 2.506 . S
O509 C492 1.252 . S
O510 Gd481 2.435 . S
O510 C499 1.256 . S
O511 Gd480 2.327 . S
O511 Gd481 2.717 . S
O511 C499 1.257 . S
H512 C485 0.930 . S
H513 C486 0.931 . S
H514 C488 0.931 . S
H515 C489 0.931 . S
H516 C494 0.930 . S
H517 C495 0.931 . S
H518 C497 0.931 . S
H519 C498 0.931 . S
Gd520 C523 2.818 . S
Gd520 O540 2.377 . S
Gd520 O542 2.448 . S
Gd520 O543 2.506 . S
Gd520 O544 2.435 . S
Gd520 O545 2.717 . S
Gd520 O547 2.395 . S
Gd520 O551 2.327 . S
Gd521 C532 2.818 . S
Gd521 O541 2.395 . S
Gd521 O545 2.327 . S
Gd521 O546 2.377 . S
Gd521 O548 2.448 . S
Gd521 O549 2.506 . S
Gd521 O550 2.435 . S
Gd521 O551 2.717 . S
C522 O540 1.240 . S
C522 O541 1.240 . S
C523 Gd520 2.818 . S
C523 C524 1.510 . S
C523 O542 1.249 . S
C523 O543 1.252 . S
C524 C523 1.510 . S
C524 C525 1.404 . S
C524 C526 1.352 . S
C525 C524 1.404 . S
C525 C529 1.389 . S
C525 H552 0.930 . S
C526 C524 1.352 . S
C526 C528 1.374 . S
C526 H553 0.931 . S
C527 C528 1.359 . S
C527 C529 1.364 . S
C528 C526 1.374 . S
C528 C527 1.359 . S
C528 H554 0.931 . S
C529 C525 1.389 . S
C529 C527 1.364 . S
C529 H555 0.931 . S
C530 O544 1.256 . S
C530 O545 1.257 . S
C531 O546 1.240 . S
C531 O547 1.240 . S
C532 Gd521 2.818 . S
C532 C533 1.510 . S
C532 O548 1.249 . S
C532 O549 1.252 . S
C533 C532 1.510 . S
C533 C534 1.404 . S
C533 C535 1.352 . S
C534 C533 1.404 . S
C534 C538 1.389 . S
C534 H556 0.930 . S
C535 C533 1.352 . S
C535 C537 1.374 . S
C535 H557 0.931 . S
C536 C537 1.359 . S
C536 C538 1.364 . S
C537 C535 1.374 . S
C537 C536 1.359 . S
C537 H558 0.931 . S
C538 C534 1.389 . S
C538 C536 1.364 . S
C538 H559 0.931 . S
C539 O550 1.256 . S
C539 O551 1.257 . S
O540 Gd520 2.377 . S
O540 C522 1.240 . S
O541 Gd521 2.395 . S
O541 C522 1.240 . S
O542 Gd520 2.448 . S
O542 C523 1.249 . S
O543 Gd520 2.506 . S
O543 C523 1.252 . S
O544 Gd520 2.435 . S
O544 C530 1.256 . S
O545 Gd520 2.717 . S
O545 Gd521 2.327 . S
O545 C530 1.257 . S
O546 Gd521 2.377 . S
O546 C531 1.240 . S
O547 Gd520 2.395 . S
O547 C531 1.240 . S
O548 Gd521 2.448 . S
O548 C532 1.249 . S
O549 Gd521 2.506 . S
O549 C532 1.252 . S
O550 Gd521 2.435 . S
O550 C539 1.256 . S
O551 Gd520 2.327 . S
O551 Gd521 2.717 . S
O551 C539 1.257 . S
H552 C525 0.930 . S
H553 C526 0.931 . S
H554 C528 0.931 . S
H555 C529 0.931 . S
H556 C534 0.930 . S
H557 C535 0.931 . S
H558 C537 0.931 . S
H559 C538 0.931 . S
Gd560 C563 2.818 . S
Gd560 O580 2.377 . S
Gd560 O582 2.448 . S
Gd560 O583 2.506 . S
Gd560 O584 2.435 . S
Gd560 O585 2.717 . S
Gd560 O587 2.395 . S
Gd560 O591 2.327 . S
Gd561 C572 2.818 . S
Gd561 O581 2.395 . S
Gd561 O585 2.327 . S
Gd561 O586 2.377 . S
Gd561 O588 2.448 . S
Gd561 O589 2.506 . S
Gd561 O590 2.435 . S
Gd561 O591 2.717 . S
C562 O580 1.240 . S
C562 O581 1.240 . S
C563 Gd560 2.818 . S
C563 C564 1.510 . S
C563 O582 1.249 . S
C563 O583 1.252 . S
C564 C563 1.510 . S
C564 C565 1.404 . S
C564 C566 1.352 . S
C565 C564 1.404 . S
C565 C569 1.389 . S
C565 H592 0.930 . S
C566 C564 1.352 . S
C566 C568 1.374 . S
C566 H593 0.931 . S
C567 C568 1.359 . S
C567 C569 1.364 . S
C568 C566 1.374 . S
C568 C567 1.359 . S
C568 H594 0.931 . S
C569 C565 1.389 . S
C569 C567 1.364 . S
C569 H595 0.931 . S
C570 O584 1.256 . S
C570 O585 1.257 . S
C571 O586 1.240 . S
C571 O587 1.240 . S
C572 Gd561 2.818 . S
C572 C573 1.510 . S
C572 O588 1.249 . S
C572 O589 1.252 . S
C573 C572 1.510 . S
C573 C574 1.404 . S
C573 C575 1.352 . S
C574 C573 1.404 . S
C574 C578 1.389 . S
C574 H596 0.930 . S
C575 C573 1.352 . S
C575 C577 1.374 . S
C575 H597 0.931 . S
C576 C577 1.359 . S
C576 C578 1.364 . S
C577 C575 1.374 . S
C577 C576 1.359 . S
C577 H598 0.931 . S
C578 C574 1.389 . S
C578 C576 1.364 . S
C578 H599 0.931 . S
C579 O590 1.256 . S
C579 O591 1.257 . S
O580 Gd560 2.377 . S
O580 C562 1.240 . S
O581 Gd561 2.395 . S
O581 C562 1.240 . S
O582 Gd560 2.448 . S
O582 C563 1.249 . S
O583 Gd560 2.506 . S
O583 C563 1.252 . S
O584 Gd560 2.435 . S
O584 C570 1.256 . S
O585 Gd560 2.717 . S
O585 Gd561 2.327 . S
O585 C570 1.257 . S
O586 Gd561 2.377 . S
O586 C571 1.240 . S
O587 Gd560 2.395 . S
O587 C571 1.240 . S
O588 Gd561 2.448 . S
O588 C572 1.249 . S
O589 Gd561 2.506 . S
O589 C572 1.252 . S
O590 Gd561 2.435 . S
O590 C579 1.256 . S
O591 Gd560 2.327 . S
O591 Gd561 2.717 . S
O591 C579 1.257 . S
H592 C565 0.930 . S
H593 C566 0.931 . S
H594 C568 0.931 . S
H595 C569 0.931 . S
H596 C574 0.930 . S
H597 C575 0.931 . S
H598 C577 0.931 . S
H599 C578 0.931 . S
Gd600 C603 2.818 . S
Gd600 O620 2.377 . S
Gd600 O622 2.448 . S
Gd600 O623 2.506 . S
Gd600 O624 2.435 . S
Gd600 O625 2.717 . S
Gd600 O627 2.395 . S
Gd600 O631 2.327 . S
Gd601 C612 2.818 1_655 S
Gd601 O621 2.395 . S
Gd601 O625 2.327 . S
Gd601 O626 2.377 . S
Gd601 O628 2.448 1_655 S
Gd601 O629 2.506 1_655 S
Gd601 O630 2.435 . S
Gd601 O631 2.717 . S
C602 O620 1.240 . S
C602 O621 1.240 . S
C603 Gd600 2.818 . S
C603 C604 1.510 . S
C603 O622 1.249 . S
C603 O623 1.252 . S
C604 C603 1.510 . S
C604 C605 1.404 . S
C604 C606 1.352 . S
C605 C604 1.404 . S
C605 C609 1.389 . S
C605 H632 0.930 . S
C606 C604 1.352 . S
C606 C608 1.374 . S
C606 H633 0.931 . S
C607 C608 1.359 . S
C607 C609 1.364 . S
C608 C606 1.374 . S
C608 C607 1.359 . S
C608 H634 0.931 . S
C609 C605 1.389 . S
C609 C607 1.364 . S
C609 H635 0.931 . S
C610 O624 1.256 . S
C610 O625 1.257 . S
C611 O626 1.240 . S
C611 O627 1.240 . S
C612 Gd601 2.818 1_455 S
C612 C613 1.510 . S
C612 O628 1.249 . S
C612 O629 1.252 . S
C613 C612 1.510 . S
C613 C614 1.404 . S
C613 C615 1.352 . S
C614 C613 1.404 . S
C614 C618 1.389 . S
C614 H636 0.930 . S
C615 C613 1.352 . S
C615 C617 1.374 . S
C615 H637 0.931 . S
C616 C617 1.359 . S
C616 C618 1.364 . S
C617 C615 1.374 . S
C617 C616 1.359 . S
C617 H638 0.931 . S
C618 C614 1.389 . S
C618 C616 1.364 . S
C618 H639 0.931 . S
C619 O630 1.256 . S
C619 O631 1.257 . S
O620 Gd600 2.377 . S
O620 C602 1.240 . S
O621 Gd601 2.395 . S
O621 C602 1.240 . S
O622 Gd600 2.448 . S
O622 C603 1.249 . S
O623 Gd600 2.506 . S
O623 C603 1.252 . S
O624 Gd600 2.435 . S
O624 C610 1.256 . S
O625 Gd600 2.717 . S
O625 Gd601 2.327 . S
O625 C610 1.257 . S
O626 Gd601 2.377 . S
O626 C611 1.240 . S
O627 Gd600 2.395 . S
O627 C611 1.240 . S
O628 Gd601 2.448 1_455 S
O628 C612 1.249 . S
O629 Gd601 2.506 1_455 S
O629 C612 1.252 . S
O630 Gd601 2.435 . S
O630 C619 1.256 . S
O631 Gd600 2.327 . S
O631 Gd601 2.717 . S
O631 C619 1.257 . S
H632 C605 0.930 . S
H633 C606 0.931 . S
H634 C608 0.931 . S
H635 C609 0.931 . S
H636 C614 0.930 . S
H637 C615 0.931 . S
H638 C617 0.931 . S
H639 C618 0.931 . S
Gd640 C643 2.818 . S
Gd640 O660 2.377 . S
Gd640 O662 2.448 . S
Gd640 O663 2.506 . S
Gd640 O664 2.435 . S
Gd640 O665 2.717 . S
Gd640 O667 2.395 . S
Gd640 O671 2.327 . S
Gd641 C652 2.818 . S
Gd641 O661 2.395 . S
Gd641 O665 2.327 . S
Gd641 O666 2.377 . S
Gd641 O668 2.448 . S
Gd641 O669 2.506 . S
Gd641 O670 2.435 . S
Gd641 O671 2.717 . S
C642 O660 1.240 . S
C642 O661 1.240 . S
C643 Gd640 2.818 . S
C643 C644 1.510 . S
C643 O662 1.249 . S
C643 O663 1.252 . S
C644 C643 1.510 . S
C644 C645 1.404 . S
C644 C646 1.352 . S
C645 C644 1.404 . S
C645 C649 1.389 . S
C645 H672 0.930 . S
C646 C644 1.352 . S
C646 C648 1.374 . S
C646 H673 0.931 . S
C647 C648 1.359 . S
C647 C649 1.364 . S
C648 C646 1.374 . S
C648 C647 1.359 . S
C648 H674 0.931 . S
C649 C645 1.389 . S
C649 C647 1.364 . S
C649 H675 0.931 . S
C650 O664 1.256 . S
C650 O665 1.257 . S
C651 O666 1.240 . S
C651 O667 1.240 . S
C652 Gd641 2.818 . S
C652 C653 1.510 . S
C652 O668 1.249 . S
C652 O669 1.252 . S
C653 C652 1.510 . S
C653 C654 1.404 . S
C653 C655 1.352 . S
C654 C653 1.404 . S
C654 C658 1.389 . S
C654 H676 0.930 . S
C655 C653 1.352 . S
C655 C657 1.374 . S
C655 H677 0.931 . S
C656 C657 1.359 . S
C656 C658 1.364 . S
C657 C655 1.374 . S
C657 C656 1.359 . S
C657 H678 0.931 . S
C658 C654 1.389 . S
C658 C656 1.364 . S
C658 H679 0.931 . S
C659 O670 1.256 . S
C659 O671 1.257 . S
O660 Gd640 2.377 . S
O660 C642 1.240 . S
O661 Gd641 2.395 . S
O661 C642 1.240 . S
O662 Gd640 2.448 . S
O662 C643 1.249 . S
O663 Gd640 2.506 . S
O663 C643 1.252 . S
O664 Gd640 2.435 . S
O664 C650 1.256 . S
O665 Gd640 2.717 . S
O665 Gd641 2.327 . S
O665 C650 1.257 . S
O666 Gd641 2.377 . S
O666 C651 1.240 . S
O667 Gd640 2.395 . S
O667 C651 1.240 . S
O668 Gd641 2.448 . S
O668 C652 1.249 . S
O669 Gd641 2.506 . S
O669 C652 1.252 . S
O670 Gd641 2.435 . S
O670 C659 1.256 . S
O671 Gd640 2.327 . S
O671 Gd641 2.717 . S
O671 C659 1.257 . S
H672 C645 0.930 . S
H673 C646 0.931 . S
H674 C648 0.931 . S
H675 C649 0.931 . S
H676 C654 0.930 . S
H677 C655 0.931 . S
H678 C657 0.931 . S
H679 C658 0.931 . S
Gd680 C683 2.818 . S
Gd680 O700 2.377 . S
Gd680 O702 2.448 . S
Gd680 O703 2.506 . S
Gd680 O704 2.435 . S
Gd680 O705 2.717 . S
Gd680 O707 2.395 . S
Gd680 O711 2.327 . S
Gd681 C692 2.818 . S
Gd681 O701 2.395 . S
Gd681 O705 2.327 . S
Gd681 O706 2.377 . S
Gd681 O708 2.448 . S
Gd681 O709 2.506 . S
Gd681 O710 2.435 . S
Gd681 O711 2.717 . S
C682 O700 1.240 . S
C682 O701 1.240 . S
C683 Gd680 2.818 . S
C683 C684 1.510 . S
C683 O702 1.249 . S
C683 O703 1.252 . S
C684 C683 1.510 . S
C684 C685 1.404 . S
C684 C686 1.352 . S
C685 C684 1.404 . S
C685 C689 1.389 . S
C685 H712 0.930 . S
C686 C684 1.352 . S
C686 C688 1.374 . S
C686 H713 0.931 . S
C687 C688 1.359 . S
C687 C689 1.364 . S
C688 C686 1.374 . S
C688 C687 1.359 . S
C688 H714 0.931 . S
C689 C685 1.389 . S
C689 C687 1.364 . S
C689 H715 0.931 . S
C690 O704 1.256 . S
C690 O705 1.257 . S
C691 O706 1.240 . S
C691 O707 1.240 . S
C692 Gd681 2.818 . S
C692 C693 1.510 . S
C692 O708 1.249 . S
C692 O709 1.252 . S
C693 C692 1.510 . S
C693 C694 1.404 . S
C693 C695 1.352 . S
C694 C693 1.404 . S
C694 C698 1.389 . S
C694 H716 0.930 . S
C695 C693 1.352 . S
C695 C697 1.374 . S
C695 H717 0.931 . S
C696 C697 1.359 . S
C696 C698 1.364 . S
C697 C695 1.374 . S
C697 C696 1.359 . S
C697 H718 0.931 . S
C698 C694 1.389 . S
C698 C696 1.364 . S
C698 H719 0.931 . S
C699 O710 1.256 . S
C699 O711 1.257 . S
O700 Gd680 2.377 . S
O700 C682 1.240 . S
O701 Gd681 2.395 . S
O701 C682 1.240 . S
O702 Gd680 2.448 . S
O702 C683 1.249 . S
O703 Gd680 2.506 . S
O703 C683 1.252 . S
O704 Gd680 2.435 . S
O704 C690 1.256 . S
O705 Gd680 2.717 . S
O705 Gd681 2.327 . S
O705 C690 1.257 . S
O706 Gd681 2.377 . S
O706 C691 1.240 . S
O707 Gd680 2.395 . S
O707 C691 1.240 . S
O708 Gd681 2.448 . S
O708 C692 1.249 . S
O709 Gd681 2.506 . S
O709 C692 1.252 . S
O710 Gd681 2.435 . S
O710 C699 1.256 . S
O711 Gd680 2.327 . S
O711 Gd681 2.717 . S
O711 C699 1.257 . S
H712 C685 0.930 . S
H713 C686 0.931 . S
H714 C688 0.931 . S
H715 C689 0.931 . S
H716 C694 0.930 . S
H717 C695 0.931 . S
H718 C697 0.931 . S
H719 C698 0.931 . S
Gd720 C723 2.818 . S
Gd720 O740 2.377 . S
Gd720 O742 2.448 . S
Gd720 O743 2.506 . S
Gd720 O744 2.435 . S
Gd720 O745 2.717 . S
Gd720 O747 2.395 . S
Gd720 O751 2.327 . S
Gd721 C732 2.818 . S
Gd721 O741 2.395 . S
Gd721 O745 2.327 . S
Gd721 O746 2.377 . S
Gd721 O748 2.448 . S
Gd721 O749 2.506 . S
Gd721 O750 2.435 . S
Gd721 O751 2.717 . S
C722 O740 1.240 . S
C722 O741 1.240 . S
C723 Gd720 2.818 . S
C723 C724 1.510 . S
C723 O742 1.249 . S
C723 O743 1.252 . S
C724 C723 1.510 . S
C724 C725 1.404 . S
C724 C726 1.352 . S
C725 C724 1.404 . S
C725 C729 1.389 . S
C725 H752 0.930 . S
C726 C724 1.352 . S
C726 C728 1.374 . S
C726 H753 0.931 . S
C727 C728 1.359 . S
C727 C729 1.364 . S
C728 C726 1.374 . S
C728 C727 1.359 . S
C728 H754 0.931 . S
C729 C725 1.389 . S
C729 C727 1.364 . S
C729 H755 0.931 . S
C730 O744 1.256 . S
C730 O745 1.257 . S
C731 O746 1.240 . S
C731 O747 1.240 . S
C732 Gd721 2.818 . S
C732 C733 1.510 . S
C732 O748 1.249 . S
C732 O749 1.252 . S
C733 C732 1.510 . S
C733 C734 1.404 . S
C733 C735 1.352 . S
C734 C733 1.404 . S
C734 C738 1.389 . S
C734 H756 0.930 . S
C735 C733 1.352 . S
C735 C737 1.374 . S
C735 H757 0.931 . S
C736 C737 1.359 . S
C736 C738 1.364 . S
C737 C735 1.374 . S
C737 C736 1.359 . S
C737 H758 0.931 . S
C738 C734 1.389 . S
C738 C736 1.364 . S
C738 H759 0.931 . S
C739 O750 1.256 . S
C739 O751 1.257 . S
O740 Gd720 2.377 . S
O740 C722 1.240 . S
O741 Gd721 2.395 . S
O741 C722 1.240 . S
O742 Gd720 2.448 . S
O742 C723 1.249 . S
O743 Gd720 2.506 . S
O743 C723 1.252 . S
O744 Gd720 2.435 . S
O744 C730 1.256 . S
O745 Gd720 2.717 . S
O745 Gd721 2.327 . S
O745 C730 1.257 . S
O746 Gd721 2.377 . S
O746 C731 1.240 . S
O747 Gd720 2.395 . S
O747 C731 1.240 . S
O748 Gd721 2.448 . S
O748 C732 1.249 . S
O749 Gd721 2.506 . S
O749 C732 1.252 . S
O750 Gd721 2.435 . S
O750 C739 1.256 . S
O751 Gd720 2.327 . S
O751 Gd721 2.717 . S
O751 C739 1.257 . S
H752 C725 0.930 . S
H753 C726 0.931 . S
H754 C728 0.931 . S
H755 C729 0.931 . S
H756 C734 0.930 . S
H757 C735 0.931 . S
H758 C737 0.931 . S
H759 C738 0.931 . S
Gd760 C763 2.818 1_655 S
Gd760 O780 2.377 . S
Gd760 O782 2.448 1_655 S
Gd760 O783 2.506 1_655 S
Gd760 O784 2.435 . S
Gd760 O785 2.717 . S
Gd760 O787 2.395 . S
Gd760 O791 2.327 . S
Gd761 C772 2.818 . S
Gd761 O781 2.395 . S
Gd761 O785 2.327 . S
Gd761 O786 2.377 . S
Gd761 O788 2.448 . S
Gd761 O789 2.506 . S
Gd761 O790 2.435 . S
Gd761 O791 2.717 . S
C762 O780 1.240 . S
C762 O781 1.240 . S
C763 Gd760 2.818 1_455 S
C763 C764 1.510 . S
C763 O782 1.249 . S
C763 O783 1.252 . S
C764 C763 1.510 . S
C764 C765 1.404 . S
C764 C766 1.352 . S
C765 C764 1.404 . S
C765 C769 1.389 . S
C765 H792 0.930 . S
C766 C764 1.352 . S
C766 C768 1.374 . S
C766 H793 0.931 . S
C767 C768 1.359 . S
C767 C769 1.364 . S
C768 C766 1.374 . S
C768 C767 1.359 . S
C768 H794 0.931 . S
C769 C765 1.389 . S
C769 C767 1.364 . S
C769 H795 0.931 . S
C770 O784 1.256 . S
C770 O785 1.257 . S
C771 O786 1.240 . S
C771 O787 1.240 . S
C772 Gd761 2.818 . S
C772 C773 1.510 . S
C772 O788 1.249 . S
C772 O789 1.252 . S
C773 C772 1.510 . S
C773 C774 1.404 . S
C773 C775 1.352 . S
C774 C773 1.404 . S
C774 C778 1.389 . S
C774 H796 0.930 . S
C775 C773 1.352 . S
C775 C777 1.374 . S
C775 H797 0.931 . S
C776 C777 1.359 . S
C776 C778 1.364 . S
C777 C775 1.374 . S
C777 C776 1.359 . S
C777 H798 0.931 . S
C778 C774 1.389 . S
C778 C776 1.364 . S
C778 H799 0.931 . S
C779 O790 1.256 . S
C779 O791 1.257 . S
O780 Gd760 2.377 . S
O780 C762 1.240 . S
O781 Gd761 2.395 . S
O781 C762 1.240 . S
O782 Gd760 2.448 1_455 S
O782 C763 1.249 . S
O783 Gd760 2.506 1_455 S
O783 C763 1.252 . S
O784 Gd760 2.435 . S
O784 C770 1.256 . S
O785 Gd760 2.717 . S
O785 Gd761 2.327 . S
O785 C770 1.257 . S
O786 Gd761 2.377 . S
O786 C771 1.240 . S
O787 Gd760 2.395 . S
O787 C771 1.240 . S
O788 Gd761 2.448 . S
O788 C772 1.249 . S
O789 Gd761 2.506 . S
O789 C772 1.252 . S
O790 Gd761 2.435 . S
O790 C779 1.256 . S
O791 Gd760 2.327 . S
O791 Gd761 2.717 . S
O791 C779 1.257 . S
H792 C765 0.930 . S
H793 C766 0.931 . S
H794 C768 0.931 . S
H795 C769 0.931 . S
H796 C774 0.930 . S
H797 C775 0.931 . S
H798 C777 0.931 . S
H799 C778 0.931 . S
Gd800 C803 2.818 . S
Gd800 O820 2.377 . S
Gd800 O822 2.448 . S
Gd800 O823 2.506 . S
Gd800 O824 2.435 . S
Gd800 O825 2.717 . S
Gd800 O827 2.395 . S
Gd800 O831 2.327 . S
Gd801 C812 2.818 . S
Gd801 O821 2.395 . S
Gd801 O825 2.327 . S
Gd801 O826 2.377 . S
Gd801 O828 2.448 . S
Gd801 O829 2.506 . S
Gd801 O830 2.435 . S
Gd801 O831 2.717 . S
C802 O820 1.240 . S
C802 O821 1.240 . S
C803 Gd800 2.818 . S
C803 C804 1.510 . S
C803 O822 1.249 . S
C803 O823 1.252 . S
C804 C803 1.510 . S
C804 C805 1.404 . S
C804 C806 1.352 . S
C805 C804 1.404 . S
C805 C809 1.389 . S
C805 H832 0.930 . S
C806 C804 1.352 . S
C806 C808 1.374 . S
C806 H833 0.931 . S
C807 C808 1.359 . S
C807 C809 1.364 . S
C808 C806 1.374 . S
C808 C807 1.359 . S
C808 H834 0.931 . S
C809 C805 1.389 . S
C809 C807 1.364 . S
C809 H835 0.931 . S
C810 O824 1.256 . S
C810 O825 1.257 . S
C811 O826 1.240 . S
C811 O827 1.240 . S
C812 Gd801 2.818 . S
C812 C813 1.510 . S
C812 O828 1.249 . S
C812 O829 1.252 . S
C813 C812 1.510 . S
C813 C814 1.404 . S
C813 C815 1.352 . S
C814 C813 1.404 . S
C814 C818 1.389 . S
C814 H836 0.930 . S
C815 C813 1.352 . S
C815 C817 1.374 . S
C815 H837 0.931 . S
C816 C817 1.359 . S
C816 C818 1.364 . S
C817 C815 1.374 . S
C817 C816 1.359 . S
C817 H838 0.931 . S
C818 C814 1.389 . S
C818 C816 1.364 . S
C818 H839 0.931 . S
C819 O830 1.256 . S
C819 O831 1.257 . S
O820 Gd800 2.377 . S
O820 C802 1.240 . S
O821 Gd801 2.395 . S
O821 C802 1.240 . S
O822 Gd800 2.448 . S
O822 C803 1.249 . S
O823 Gd800 2.506 . S
O823 C803 1.252 . S
O824 Gd800 2.435 . S
O824 C810 1.256 . S
O825 Gd800 2.717 . S
O825 Gd801 2.327 . S
O825 C810 1.257 . S
O826 Gd801 2.377 . S
O826 C811 1.240 . S
O827 Gd800 2.395 . S
O827 C811 1.240 . S
O828 Gd801 2.448 . S
O828 C812 1.249 . S
O829 Gd801 2.506 . S
O829 C812 1.252 . S
O830 Gd801 2.435 . S
O830 C819 1.256 . S
O831 Gd800 2.327 . S
O831 Gd801 2.717 . S
O831 C819 1.257 . S
H832 C805 0.930 . S
H833 C806 0.931 . S
H834 C808 0.931 . S
H835 C809 0.931 . S
H836 C814 0.930 . S
H837 C815 0.931 . S
H838 C817 0.931 . S
H839 C818 0.931 . S
Gd840 C843 2.818 1_655 S
Gd840 O860 2.377 . S
Gd840 O862 2.448 1_655 S
Gd840 O863 2.506 1_655 S
Gd840 O864 2.435 . S
Gd840 O865 2.717 . S
Gd840 O867 2.395 . S
Gd840 O871 2.327 . S
Gd841 C852 2.818 . S
Gd841 O861 2.395 . S
Gd841 O865 2.327 . S
Gd841 O866 2.377 . S
Gd841 O868 2.448 . S
Gd841 O869 2.506 . S
Gd841 O870 2.435 . S
Gd841 O871 2.717 . S
C842 O860 1.240 . S
C842 O861 1.240 . S
C843 Gd840 2.818 1_455 S
C843 C844 1.510 . S
C843 O862 1.249 . S
C843 O863 1.252 . S
C844 C843 1.510 . S
C844 C845 1.404 . S
C844 C846 1.352 . S
C845 C844 1.404 . S
C845 C849 1.389 . S
C845 H872 0.930 . S
C846 C844 1.352 . S
C846 C848 1.374 . S
C846 H873 0.931 . S
C847 C848 1.359 . S
C847 C849 1.364 . S
C848 C846 1.374 . S
C848 C847 1.359 . S
C848 H874 0.931 . S
C849 C845 1.389 . S
C849 C847 1.364 . S
C849 H875 0.931 . S
C850 O864 1.256 . S
C850 O865 1.257 . S
C851 O866 1.240 . S
C851 O867 1.240 . S
C852 Gd841 2.818 . S
C852 C853 1.510 . S
C852 O868 1.249 . S
C852 O869 1.252 . S
C853 C852 1.510 . S
C853 C854 1.404 . S
C853 C855 1.352 . S
C854 C853 1.404 . S
C854 C858 1.389 . S
C854 H876 0.930 . S
C855 C853 1.352 . S
C855 C857 1.374 . S
C855 H877 0.931 . S
C856 C857 1.359 . S
C856 C858 1.364 . S
C857 C855 1.374 . S
C857 C856 1.359 . S
C857 H878 0.931 . S
C858 C854 1.389 . S
C858 C856 1.364 . S
C858 H879 0.931 . S
C859 O870 1.256 . S
C859 O871 1.257 . S
O860 Gd840 2.377 . S
O860 C842 1.240 . S
O861 Gd841 2.395 . S
O861 C842 1.240 . S
O862 Gd840 2.448 1_455 S
O862 C843 1.249 . S
O863 Gd840 2.506 1_455 S
O863 C843 1.252 . S
O864 Gd840 2.435 . S
O864 C850 1.256 . S
O865 Gd840 2.717 . S
O865 Gd841 2.327 . S
O865 C850 1.257 . S
O866 Gd841 2.377 . S
O866 C851 1.240 . S
O867 Gd840 2.395 . S
O867 C851 1.240 . S
O868 Gd841 2.448 . S
O868 C852 1.249 . S
O869 Gd841 2.506 . S
O869 C852 1.252 . S
O870 Gd841 2.435 . S
O870 C859 1.256 . S
O871 Gd840 2.327 . S
O871 Gd841 2.717 . S
O871 C859 1.257 . S
H872 C845 0.930 . S
H873 C846 0.931 . S
H874 C848 0.931 . S
H875 C849 0.931 . S
H876 C854 0.930 . S
H877 C855 0.931 . S
H878 C857 0.931 . S
H879 C858 0.931 . S
Gd880 C883 2.818 . S
Gd880 O900 2.377 . S
Gd880 O902 2.448 . S
Gd880 O903 2.506 . S
Gd880 O904 2.435 . S
Gd880 O905 2.717 . S
Gd880 O907 2.395 . S
Gd880 O911 2.327 . S
Gd881 C892 2.818 . S
Gd881 O901 2.395 . S
Gd881 O905 2.327 . S
Gd881 O906 2.377 . S
Gd881 O908 2.448 . S
Gd881 O909 2.506 . S
Gd881 O910 2.435 . S
Gd881 O911 2.717 . S
C882 O900 1.240 . S
C882 O901 1.240 . S
C883 Gd880 2.818 . S
C883 C884 1.510 . S
C883 O902 1.249 . S
C883 O903 1.252 . S
C884 C883 1.510 . S
C884 C885 1.404 . S
C884 C886 1.352 . S
C885 C884 1.404 . S
C885 C889 1.389 . S
C885 H912 0.930 . S
C886 C884 1.352 . S
C886 C888 1.374 . S
C886 H913 0.931 . S
C887 C888 1.359 . S
C887 C889 1.364 . S
C888 C886 1.374 . S
C888 C887 1.359 . S
C888 H914 0.931 . S
C889 C885 1.389 . S
C889 C887 1.364 . S
C889 H915 0.931 . S
C890 O904 1.256 . S
C890 O905 1.257 . S
C891 O906 1.240 . S
C891 O907 1.240 . S
C892 Gd881 2.818 . S
C892 C893 1.510 . S
C892 O908 1.249 . S
C892 O909 1.252 . S
C893 C892 1.510 . S
C893 C894 1.404 . S
C893 C895 1.352 . S
C894 C893 1.404 . S
C894 C898 1.389 . S
C894 H916 0.930 . S
C895 C893 1.352 . S
C895 C897 1.374 . S
C895 H917 0.931 . S
C896 C897 1.359 . S
C896 C898 1.364 . S
C897 C895 1.374 . S
C897 C896 1.359 . S
C897 H918 0.931 . S
C898 C894 1.389 . S
C898 C896 1.364 . S
C898 H919 0.931 . S
C899 O910 1.256 . S
C899 O911 1.257 . S
O900 Gd880 2.377 . S
O900 C882 1.240 . S
O901 Gd881 2.395 . S
O901 C882 1.240 . S
O902 Gd880 2.448 . S
O902 C883 1.249 . S
O903 Gd880 2.506 . S
O903 C883 1.252 . S
O904 Gd880 2.435 . S
O904 C890 1.256 . S
O905 Gd880 2.717 . S
O905 Gd881 2.327 . S
O905 C890 1.257 . S
O906 Gd881 2.377 . S
O906 C891 1.240 . S
O907 Gd880 2.395 . S
O907 C891 1.240 . S
O908 Gd881 2.448 . S
O908 C892 1.249 . S
O909 Gd881 2.506 . S
O909 C892 1.252 . S
O910 Gd881 2.435 . S
O910 C899 1.256 . S
O911 Gd880 2.327 . S
O911 Gd881 2.717 . S
O911 C899 1.257 . S
H912 C885 0.930 . S
H913 C886 0.931 . S
H914 C888 0.931 . S
H915 C889 0.931 . S
H916 C894 0.930 . S
H917 C895 0.931 . S
H918 C897 0.931 . S
H919 C898 0.931 . S
Gd920 C923 2.818 . S
Gd920 O940 2.377 . S
Gd920 O942 2.448 . S
Gd920 O943 2.506 . S
Gd920 O944 2.435 . S
Gd920 O945 2.717 . S
Gd920 O947 2.395 . S
Gd920 O951 2.327 . S
Gd921 C932 2.818 . S
Gd921 O941 2.395 . S
Gd921 O945 2.327 . S
Gd921 O946 2.377 . S
Gd921 O948 2.448 . S
Gd921 O949 2.506 . S
Gd921 O950 2.435 . S
Gd921 O951 2.717 . S
C922 O940 1.240 . S
C922 O941 1.240 . S
C923 Gd920 2.818 . S
C923 C924 1.510 . S
C923 O942 1.249 . S
C923 O943 1.252 . S
C924 C923 1.510 . S
C924 C925 1.404 . S
C924 C926 1.352 . S
C925 C924 1.404 . S
C925 C929 1.389 . S
C925 H952 0.930 . S
C926 C924 1.352 . S
C926 C928 1.374 . S
C926 H953 0.931 . S
C927 C928 1.359 . S
C927 C929 1.364 . S
C928 C926 1.374 . S
C928 C927 1.359 . S
C928 H954 0.931 . S
C929 C925 1.389 . S
C929 C927 1.364 . S
C929 H955 0.931 . S
C930 O944 1.256 . S
C930 O945 1.257 . S
C931 O946 1.240 . S
C931 O947 1.240 . S
C932 Gd921 2.818 . S
C932 C933 1.510 . S
C932 O948 1.249 . S
C932 O949 1.252 . S
C933 C932 1.510 . S
C933 C934 1.404 . S
C933 C935 1.352 . S
C934 C933 1.404 . S
C934 C938 1.389 . S
C934 H956 0.930 . S
C935 C933 1.352 . S
C935 C937 1.374 . S
C935 H957 0.931 . S
C936 C937 1.359 . S
C936 C938 1.364 . S
C937 C935 1.374 . S
C937 C936 1.359 . S
C937 H958 0.931 . S
C938 C934 1.389 . S
C938 C936 1.364 . S
C938 H959 0.931 . S
C939 O950 1.256 . S
C939 O951 1.257 . S
O940 Gd920 2.377 . S
O940 C922 1.240 . S
O941 Gd921 2.395 . S
O941 C922 1.240 . S
O942 Gd920 2.448 . S
O942 C923 1.249 . S
O943 Gd920 2.506 . S
O943 C923 1.252 . S
O944 Gd920 2.435 . S
O944 C930 1.256 . S
O945 Gd920 2.717 . S
O945 Gd921 2.327 . S
O945 C930 1.257 . S
O946 Gd921 2.377 . S
O946 C931 1.240 . S
O947 Gd920 2.395 . S
O947 C931 1.240 . S
O948 Gd921 2.448 . S
O948 C932 1.249 . S
O949 Gd921 2.506 . S
O949 C932 1.252 . S
O950 Gd921 2.435 . S
O950 C939 1.256 . S
O951 Gd920 2.327 . S
O951 Gd921 2.717 . S
O951 C939 1.257 . S
H952 C925 0.930 . S
H953 C926 0.931 . S
H954 C928 0.931 . S
H955 C929 0.931 . S
H956 C934 0.930 . S
H957 C935 0.931 . S
H958 C937 0.931 . S
H959 C938 0.931 . S
Gd960 C963 2.818 . S
Gd960 O980 2.377 . S
Gd960 O982 2.448 . S
Gd960 O983 2.506 . S
Gd960 O984 2.435 . S
Gd960 O985 2.717 . S
Gd960 O987 2.395 . S
Gd960 O991 2.327 . S
Gd961 C972 2.818 . S
Gd961 O981 2.395 . S
Gd961 O985 2.327 . S
Gd961 O986 2.377 . S
Gd961 O988 2.448 . S
Gd961 O989 2.506 . S
Gd961 O990 2.435 . S
Gd961 O991 2.717 . S
C962 O980 1.240 . S
C962 O981 1.240 . S
C963 Gd960 2.818 . S
C963 C964 1.510 . S
C963 O982 1.249 . S
C963 O983 1.252 . S
C964 C963 1.510 . S
C964 C965 1.404 . S
C964 C966 1.352 . S
C965 C964 1.404 . S
C965 C969 1.389 . S
C965 H992 0.930 . S
C966 C964 1.352 . S
C966 C968 1.374 . S
C966 H993 0.931 . S
C967 C968 1.359 . S
C967 C969 1.364 . S
C968 C966 1.374 . S
C968 C967 1.359 . S
C968 H994 0.931 . S
C969 C965 1.389 . S
C969 C967 1.364 . S
C969 H995 0.931 . S
C970 O984 1.256 . S
C970 O985 1.257 . S
C971 O986 1.240 . S
C971 O987 1.240 . S
C972 Gd961 2.818 . S
C972 C973 1.510 . S
C972 O988 1.249 . S
C972 O989 1.252 . S
C973 C972 1.510 . S
C973 C974 1.404 . S
C973 C975 1.352 . S
C974 C973 1.404 . S
C974 C978 1.389 . S
C974 H996 0.930 . S
C975 C973 1.352 . S
C975 C977 1.374 . S
C975 H997 0.931 . S
C976 C977 1.359 . S
C976 C978 1.364 . S
C977 C975 1.374 . S
C977 C976 1.359 . S
C977 H998 0.931 . S
C978 C974 1.389 . S
C978 C976 1.364 . S
C978 H999 0.931 . S
C979 O990 1.256 . S
C979 O991 1.257 . S
O980 Gd960 2.377 . S
O980 C962 1.240 . S
O981 Gd961 2.395 . S
O981 C962 1.240 . S
O982 Gd960 2.448 . S
O982 C963 1.249 . S
O983 Gd960 2.506 . S
O983 C963 1.252 . S
O984 Gd960 2.435 . S
O984 C970 1.256 . S
O985 Gd960 2.717 . S
O985 Gd961 2.327 . S
O985 C970 1.257 . S
O986 Gd961 2.377 . S
O986 C971 1.240 . S
O987 Gd960 2.395 . S
O987 C971 1.240 . S
O988 Gd961 2.448 . S
O988 C972 1.249 . S
O989 Gd961 2.506 . S
O989 C972 1.252 . S
O990 Gd961 2.435 . S
O990 C979 1.256 . S
O991 Gd960 2.327 . S
O991 Gd961 2.717 . S
O991 C979 1.257 . S
H992 C965 0.930 . S
H993 C966 0.931 . S
H994 C968 0.931 . S
H995 C969 0.931 . S
H996 C974 0.930 . S
H997 C975 0.931 . S
H998 C977 0.931 . S
H999 C978 0.931 . S
Gd1000 C1003 2.818 . S
Gd1000 O1020 2.377 . S
Gd1000 O1022 2.448 . S
Gd1000 O1023 2.506 . S
Gd1000 O1024 2.435 . S
Gd1000 O1025 2.717 . S
Gd1000 O1027 2.395 . S
Gd1000 O1031 2.327 . S
Gd1001 C1012 2.818 . S
Gd1001 O1021 2.395 . S
Gd1001 O1025 2.327 . S
Gd1001 O1026 2.377 . S
Gd1001 O1028 2.448 . S
Gd1001 O1029 2.506 . S
Gd1001 O1030 2.435 . S
Gd1001 O1031 2.717 . S
C1002 O1020 1.240 . S
C1002 O1021 1.240 . S
C1003 Gd1000 2.818 . S
C1003 C1004 1.510 . S
C1003 O1022 1.249 . S
C1003 O1023 1.252 . S
C1004 C1003 1.510 . S
C1004 C1005 1.404 . S
C1004 C1006 1.352 . S
C1005 C1004 1.404 . S
C1005 C1009 1.389 . S
C1005 H1032 0.930 . S
C1006 C1004 1.352 . S
C1006 C1008 1.374 . S
C1006 H1033 0.931 . S
C1007 C1008 1.359 . S
C1007 C1009 1.364 . S
C1008 C1006 1.374 . S
C1008 C1007 1.359 . S
C1008 H1034 0.931 . S
C1009 C1005 1.389 . S
C1009 C1007 1.364 . S
C1009 H1035 0.931 . S
C1010 O1024 1.256 . S
C1010 O1025 1.257 . S
C1011 O1026 1.240 . S
C1011 O1027 1.240 . S
C1012 Gd1001 2.818 . S
C1012 C1013 1.510 . S
C1012 O1028 1.249 . S
C1012 O1029 1.252 . S
C1013 C1012 1.510 . S
C1013 C1014 1.404 . S
C1013 C1015 1.352 . S
C1014 C1013 1.404 . S
C1014 C1018 1.389 . S
C1014 H1036 0.930 . S
C1015 C1013 1.352 . S
C1015 C1017 1.374 . S
C1015 H1037 0.931 . S
C1016 C1017 1.359 . S
C1016 C1018 1.364 . S
C1017 C1015 1.374 . S
C1017 C1016 1.359 . S
C1017 H1038 0.931 . S
C1018 C1014 1.389 . S
C1018 C1016 1.364 . S
C1018 H1039 0.931 . S
C1019 O1030 1.256 . S
C1019 O1031 1.257 . S
O1020 Gd1000 2.377 . S
O1020 C1002 1.240 . S
O1021 Gd1001 2.395 . S
O1021 C1002 1.240 . S
O1022 Gd1000 2.448 . S
O1022 C1003 1.249 . S
O1023 Gd1000 2.506 . S
O1023 C1003 1.252 . S
O1024 Gd1000 2.435 . S
O1024 C1010 1.256 . S
O1025 Gd1000 2.717 . S
O1025 Gd1001 2.327 . S
O1025 C1010 1.257 . S
O1026 Gd1001 2.377 . S
O1026 C1011 1.240 . S
O1027 Gd1000 2.395 . S
O1027 C1011 1.240 . S
O1028 Gd1001 2.448 . S
O1028 C1012 1.249 . S
O1029 Gd1001 2.506 . S
O1029 C1012 1.252 . S
O1030 Gd1001 2.435 . S
O1030 C1019 1.256 . S
O1031 Gd1000 2.327 . S
O1031 Gd1001 2.717 . S
O1031 C1019 1.257 . S
H1032 C1005 0.930 . S
H1033 C1006 0.931 . S
H1034 C1008 0.931 . S
H1035 C1009 0.931 . S
H1036 C1014 0.930 . S
H1037 C1015 0.931 . S
H1038 C1017 0.931 . S
H1039 C1018 0.931 . S
Gd1040 C1043 2.818 . S
Gd1040 O1060 2.377 . S
Gd1040 O1062 2.448 . S
Gd1040 O1063 2.506 . S
Gd1040 O1064 2.435 . S
Gd1040 O1065 2.717 . S
Gd1040 O1067 2.395 . S
Gd1040 O1071 2.327 . S
Gd1041 C1052 2.818 . S
Gd1041 O1061 2.395 . S
Gd1041 O1065 2.327 . S
Gd1041 O1066 2.377 . S
Gd1041 O1068 2.448 . S
Gd1041 O1069 2.506 . S
Gd1041 O1070 2.435 . S
Gd1041 O1071 2.717 . S
C1042 O1060 1.240 . S
C1042 O1061 1.240 . S
C1043 Gd1040 2.818 . S
C1043 C1044 1.510 . S
C1043 O1062 1.249 . S
C1043 O1063 1.252 . S
C1044 C1043 1.510 . S
C1044 C1045 1.404 . S
C1044 C1046 1.352 . S
C1045 C1044 1.404 . S
C1045 C1049 1.389 . S
C1045 H1072 0.930 . S
C1046 C1044 1.352 . S
C1046 C1048 1.374 . S
C1046 H1073 0.931 . S
C1047 C1048 1.359 . S
C1047 C1049 1.364 . S
C1048 C1046 1.374 . S
C1048 C1047 1.359 . S
C1048 H1074 0.931 . S
C1049 C1045 1.389 . S
C1049 C1047 1.364 . S
C1049 H1075 0.931 . S
C1050 O1064 1.256 . S
C1050 O1065 1.257 . S
C1051 O1066 1.240 . S
C1051 O1067 1.240 . S
C1052 Gd1041 2.818 . S
C1052 C1053 1.510 . S
C1052 O1068 1.249 . S
C1052 O1069 1.252 . S
C1053 C1052 1.510 . S
C1053 C1054 1.404 . S
C1053 C1055 1.352 . S
C1054 C1053 1.404 . S
C1054 C1058 1.389 . S
C1054 H1076 0.930 . S
C1055 C1053 1.352 . S
C1055 C1057 1.374 . S
C1055 H1077 0.931 . S
C1056 C1057 1.359 . S
C1056 C1058 1.364 . S
C1057 C1055 1.374 . S
C1057 C1056 1.359 . S
C1057 H1078 0.931 . S
C1058 C1054 1.389 . S
C1058 C1056 1.364 . S
C1058 H1079 0.931 . S
C1059 O1070 1.256 . S
C1059 O1071 1.257 . S
O1060 Gd1040 2.377 . S
O1060 C1042 1.240 . S
O1061 Gd1041 2.395 . S
O1061 C1042 1.240 . S
O1062 Gd1040 2.448 . S
O1062 C1043 1.249 . S
O1063 Gd1040 2.506 . S
O1063 C1043 1.252 . S
O1064 Gd1040 2.435 . S
O1064 C1050 1.256 . S
O1065 Gd1040 2.717 . S
O1065 Gd1041 2.327 . S
O1065 C1050 1.257 . S
O1066 Gd1041 2.377 . S
O1066 C1051 1.240 . S
O1067 Gd1040 2.395 . S
O1067 C1051 1.240 . S
O1068 Gd1041 2.448 . S
O1068 C1052 1.249 . S
O1069 Gd1041 2.506 . S
O1069 C1052 1.252 . S
O1070 Gd1041 2.435 . S
O1070 C1059 1.256 . S
O1071 Gd1040 2.327 . S
O1071 Gd1041 2.717 . S
O1071 C1059 1.257 . S
H1072 C1045 0.930 . S
H1073 C1046 0.931 . S
H1074 C1048 0.931 . S
H1075 C1049 0.931 . S
H1076 C1054 0.930 . S
H1077 C1055 0.931 . S
H1078 C1057 0.931 . S
H1079 C1058 0.931 . S
Gd1080 C1083 2.818 . S
Gd1080 O1100 2.377 . S
Gd1080 O1102 2.448 . S
Gd1080 O1103 2.506 . S
Gd1080 O1104 2.435 . S
Gd1080 O1105 2.717 . S
Gd1080 O1107 2.395 . S
Gd1080 O1111 2.327 . S
Gd1081 C1092 2.818 1_455 S
Gd1081 O1101 2.395 . S
Gd1081 O1105 2.327 . S
Gd1081 O1106 2.377 . S
Gd1081 O1108 2.448 1_455 S
Gd1081 O1109 2.506 1_455 S
Gd1081 O1110 2.435 . S
Gd1081 O1111 2.717 . S
C1082 O1100 1.240 . S
C1082 O1101 1.240 . S
C1083 Gd1080 2.818 . S
C1083 C1084 1.510 . S
C1083 O1102 1.249 . S
C1083 O1103 1.252 . S
C1084 C1083 1.510 . S
C1084 C1085 1.404 . S
C1084 C1086 1.352 . S
C1085 C1084 1.404 . S
C1085 C1089 1.389 . S
C1085 H1112 0.930 . S
C1086 C1084 1.352 . S
C1086 C1088 1.374 . S
C1086 H1113 0.931 . S
C1087 C1088 1.359 . S
C1087 C1089 1.364 . S
C1088 C1086 1.374 . S
C1088 C1087 1.359 . S
C1088 H1114 0.931 . S
C1089 C1085 1.389 . S
C1089 C1087 1.364 . S
C1089 H1115 0.931 . S
C1090 O1104 1.256 . S
C1090 O1105 1.257 . S
C1091 O1106 1.240 . S
C1091 O1107 1.240 . S
C1092 Gd1081 2.818 1_655 S
C1092 C1093 1.510 . S
C1092 O1108 1.249 . S
C1092 O1109 1.252 . S
C1093 C1092 1.510 . S
C1093 C1094 1.404 . S
C1093 C1095 1.352 . S
C1094 C1093 1.404 . S
C1094 C1098 1.389 . S
C1094 H1116 0.930 . S
C1095 C1093 1.352 . S
C1095 C1097 1.374 . S
C1095 H1117 0.931 . S
C1096 C1097 1.359 . S
C1096 C1098 1.364 . S
C1097 C1095 1.374 . S
C1097 C1096 1.359 . S
C1097 H1118 0.931 . S
C1098 C1094 1.389 . S
C1098 C1096 1.364 . S
C1098 H1119 0.931 . S
C1099 O1110 1.256 . S
C1099 O1111 1.257 . S
O1100 Gd1080 2.377 . S
O1100 C1082 1.240 . S
O1101 Gd1081 2.395 . S
O1101 C1082 1.240 . S
O1102 Gd1080 2.448 . S
O1102 C1083 1.249 . S
O1103 Gd1080 2.506 . S
O1103 C1083 1.252 . S
O1104 Gd1080 2.435 . S
O1104 C1090 1.256 . S
O1105 Gd1080 2.717 . S
O1105 Gd1081 2.327 . S
O1105 C1090 1.257 . S
O1106 Gd1081 2.377 . S
O1106 C1091 1.240 . S
O1107 Gd1080 2.395 . S
O1107 C1091 1.240 . S
O1108 Gd1081 2.448 1_655 S
O1108 C1092 1.249 . S
O1109 Gd1081 2.506 1_655 S
O1109 C1092 1.252 . S
O1110 Gd1081 2.435 . S
O1110 C1099 1.256 . S
O1111 Gd1080 2.327 . S
O1111 Gd1081 2.717 . S
O1111 C1099 1.257 . S
H1112 C1085 0.930 . S
H1113 C1086 0.931 . S
H1114 C1088 0.931 . S
H1115 C1089 0.931 . S
H1116 C1094 0.930 . S
H1117 C1095 0.931 . S
H1118 C1097 0.931 . S
H1119 C1098 0.931 . S
Gd1120 C1123 2.818 . S
Gd1120 O1140 2.377 . S
Gd1120 O1142 2.448 . S
Gd1120 O1143 2.506 . S
Gd1120 O1144 2.435 . S
Gd1120 O1145 2.717 . S
Gd1120 O1147 2.395 . S
Gd1120 O1151 2.327 . S
Gd1121 C1132 2.818 . S
Gd1121 O1141 2.395 . S
Gd1121 O1145 2.327 . S
Gd1121 O1146 2.377 . S
Gd1121 O1148 2.448 . S
Gd1121 O1149 2.506 . S
Gd1121 O1150 2.435 . S
Gd1121 O1151 2.717 . S
C1122 O1140 1.240 . S
C1122 O1141 1.240 . S
C1123 Gd1120 2.818 . S
C1123 C1124 1.510 . S
C1123 O1142 1.249 . S
C1123 O1143 1.252 . S
C1124 C1123 1.510 . S
C1124 C1125 1.404 . S
C1124 C1126 1.352 . S
C1125 C1124 1.404 . S
C1125 C1129 1.389 . S
C1125 H1152 0.930 . S
C1126 C1124 1.352 . S
C1126 C1128 1.374 . S
C1126 H1153 0.931 . S
C1127 C1128 1.359 . S
C1127 C1129 1.364 . S
C1128 C1126 1.374 . S
C1128 C1127 1.359 . S
C1128 H1154 0.931 . S
C1129 C1125 1.389 . S
C1129 C1127 1.364 . S
C1129 H1155 0.931 . S
C1130 O1144 1.256 . S
C1130 O1145 1.257 . S
C1131 O1146 1.240 . S
C1131 O1147 1.240 . S
C1132 Gd1121 2.818 . S
C1132 C1133 1.510 . S
C1132 O1148 1.249 . S
C1132 O1149 1.252 . S
C1133 C1132 1.510 . S
C1133 C1134 1.404 . S
C1133 C1135 1.352 . S
C1134 C1133 1.404 . S
C1134 C1138 1.389 . S
C1134 H1156 0.930 . S
C1135 C1133 1.352 . S
C1135 C1137 1.374 . S
C1135 H1157 0.931 . S
C1136 C1137 1.359 . S
C1136 C1138 1.364 . S
C1137 C1135 1.374 . S
C1137 C1136 1.359 . S
C1137 H1158 0.931 . S
C1138 C1134 1.389 . S
C1138 C1136 1.364 . S
C1138 H1159 0.931 . S
C1139 O1150 1.256 . S
C1139 O1151 1.257 . S
O1140 Gd1120 2.377 . S
O1140 C1122 1.240 . S
O1141 Gd1121 2.395 . S
O1141 C1122 1.240 . S
O1142 Gd1120 2.448 . S
O1142 C1123 1.249 . S
O1143 Gd1120 2.506 . S
O1143 C1123 1.252 . S
O1144 Gd1120 2.435 . S
O1144 C1130 1.256 . S
O1145 Gd1120 2.717 . S
O1145 Gd1121 2.327 . S
O1145 C1130 1.257 . S
O1146 Gd1121 2.377 . S
O1146 C1131 1.240 . S
O1147 Gd1120 2.395 . S
O1147 C1131 1.240 . S
O1148 Gd1121 2.448 . S
O1148 C1132 1.249 . S
O1149 Gd1121 2.506 . S
O1149 C1132 1.252 . S
O1150 Gd1121 2.435 . S
O1150 C1139 1.256 . S
O1151 Gd1120 2.327 . S
O1151 Gd1121 2.717 . S
O1151 C1139 1.257 . S
H1152 C1125 0.930 . S
H1153 C1126 0.931 . S
H1154 C1128 0.931 . S
H1155 C1129 0.931 . S
H1156 C1134 0.930 . S
H1157 C1135 0.931 . S
H1158 C1137 0.931 . S
H1159 C1138 0.931 . S
Gd1160 C1163 2.818 . S
Gd1160 O1180 2.377 . S
Gd1160 O1182 2.448 . S
Gd1160 O1183 2.506 . S
Gd1160 O1184 2.435 . S
Gd1160 O1185 2.717 . S
Gd1160 O1187 2.395 . S
Gd1160 O1191 2.327 . S
Gd1161 C1172 2.818 1_455 S
Gd1161 O1181 2.395 . S
Gd1161 O1185 2.327 . S
Gd1161 O1186 2.377 . S
Gd1161 O1188 2.448 1_455 S
Gd1161 O1189 2.506 1_455 S
Gd1161 O1190 2.435 . S
Gd1161 O1191 2.717 . S
C1162 O1180 1.240 . S
C1162 O1181 1.240 . S
C1163 Gd1160 2.818 . S
C1163 C1164 1.510 . S
C1163 O1182 1.249 . S
C1163 O1183 1.252 . S
C1164 C1163 1.510 . S
C1164 C1165 1.404 . S
C1164 C1166 1.352 . S
C1165 C1164 1.404 . S
C1165 C1169 1.389 . S
C1165 H1192 0.930 . S
C1166 C1164 1.352 . S
C1166 C1168 1.374 . S
C1166 H1193 0.931 . S
C1167 C1168 1.359 . S
C1167 C1169 1.364 . S
C1168 C1166 1.374 . S
C1168 C1167 1.359 . S
C1168 H1194 0.931 . S
C1169 C1165 1.389 . S
C1169 C1167 1.364 . S
C1169 H1195 0.931 . S
C1170 O1184 1.256 . S
C1170 O1185 1.257 . S
C1171 O1186 1.240 . S
C1171 O1187 1.240 . S
C1172 Gd1161 2.818 1_655 S
C1172 C1173 1.510 . S
C1172 O1188 1.249 . S
C1172 O1189 1.252 . S
C1173 C1172 1.510 . S
C1173 C1174 1.404 . S
C1173 C1175 1.352 . S
C1174 C1173 1.404 . S
C1174 C1178 1.389 . S
C1174 H1196 0.930 . S
C1175 C1173 1.352 . S
C1175 C1177 1.374 . S
C1175 H1197 0.931 . S
C1176 C1177 1.359 . S
C1176 C1178 1.364 . S
C1177 C1175 1.374 . S
C1177 C1176 1.359 . S
C1177 H1198 0.931 . S
C1178 C1174 1.389 . S
C1178 C1176 1.364 . S
C1178 H1199 0.931 . S
C1179 O1190 1.256 . S
C1179 O1191 1.257 . S
O1180 Gd1160 2.377 . S
O1180 C1162 1.240 . S
O1181 Gd1161 2.395 . S
O1181 C1162 1.240 . S
O1182 Gd1160 2.448 . S
O1182 C1163 1.249 . S
O1183 Gd1160 2.506 . S
O1183 C1163 1.252 . S
O1184 Gd1160 2.435 . S
O1184 C1170 1.256 . S
O1185 Gd1160 2.717 . S
O1185 Gd1161 2.327 . S
O1185 C1170 1.257 . S
O1186 Gd1161 2.377 . S
O1186 C1171 1.240 . S
O1187 Gd1160 2.395 . S
O1187 C1171 1.240 . S
O1188 Gd1161 2.448 1_655 S
O1188 C1172 1.249 . S
O1189 Gd1161 2.506 1_655 S
O1189 C1172 1.252 . S
O1190 Gd1161 2.435 . S
O1190 C1179 1.256 . S
O1191 Gd1160 2.327 . S
O1191 Gd1161 2.717 . S
O1191 C1179 1.257 . S
H1192 C1165 0.930 . S
H1193 C1166 0.931 . S
H1194 C1168 0.931 . S
H1195 C1169 0.931 . S
H1196 C1174 0.930 . S
H1197 C1175 0.931 . S
H1198 C1177 0.931 . S
H1199 C1178 0.931 . S
Gd1200 C1203 2.818 . S
Gd1200 O1220 2.377 . S
Gd1200 O1222 2.448 . S
Gd1200 O1223 2.506 . S
Gd1200 O1224 2.435 . S
Gd1200 O1225 2.717 . S
Gd1200 O1227 2.395 . S
Gd1200 O1231 2.327 . S
Gd1201 C1212 2.818 . S
Gd1201 O1221 2.395 . S
Gd1201 O1225 2.327 . S
Gd1201 O1226 2.377 . S
Gd1201 O1228 2.448 . S
Gd1201 O1229 2.506 . S
Gd1201 O1230 2.435 . S
Gd1201 O1231 2.717 . S
C1202 O1220 1.240 . S
C1202 O1221 1.240 . S
C1203 Gd1200 2.818 . S
C1203 C1204 1.510 . S
C1203 O1222 1.249 . S
C1203 O1223 1.252 . S
C1204 C1203 1.510 . S
C1204 C1205 1.404 . S
C1204 C1206 1.352 . S
C1205 C1204 1.404 . S
C1205 C1209 1.389 . S
C1205 H1232 0.930 . S
C1206 C1204 1.352 . S
C1206 C1208 1.374 . S
C1206 H1233 0.931 . S
C1207 C1208 1.359 . S
C1207 C1209 1.364 . S
C1208 C1206 1.374 . S
C1208 C1207 1.359 . S
C1208 H1234 0.931 . S
C1209 C1205 1.389 . S
C1209 C1207 1.364 . S
C1209 H1235 0.931 . S
C1210 O1224 1.256 . S
C1210 O1225 1.257 . S
C1211 O1226 1.240 . S
C1211 O1227 1.240 . S
C1212 Gd1201 2.818 . S
C1212 C1213 1.510 . S
C1212 O1228 1.249 . S
C1212 O1229 1.252 . S
C1213 C1212 1.510 . S
C1213 C1214 1.404 . S
C1213 C1215 1.352 . S
C1214 C1213 1.404 . S
C1214 C1218 1.389 . S
C1214 H1236 0.930 . S
C1215 C1213 1.352 . S
C1215 C1217 1.374 . S
C1215 H1237 0.931 . S
C1216 C1217 1.359 . S
C1216 C1218 1.364 . S
C1217 C1215 1.374 . S
C1217 C1216 1.359 . S
C1217 H1238 0.931 . S
C1218 C1214 1.389 . S
C1218 C1216 1.364 . S
C1218 H1239 0.931 . S
C1219 O1230 1.256 . S
C1219 O1231 1.257 . S
O1220 Gd1200 2.377 . S
O1220 C1202 1.240 . S
O1221 Gd1201 2.395 . S
O1221 C1202 1.240 . S
O1222 Gd1200 2.448 . S
O1222 C1203 1.249 . S
O1223 Gd1200 2.506 . S
O1223 C1203 1.252 . S
O1224 Gd1200 2.435 . S
O1224 C1210 1.256 . S
O1225 Gd1200 2.717 . S
O1225 Gd1201 2.327 . S
O1225 C1210 1.257 . S
O1226 Gd1201 2.377 . S
O1226 C1211 1.240 . S
O1227 Gd1200 2.395 . S
O1227 C1211 1.240 . S
O1228 Gd1201 2.448 . S
O1228 C1212 1.249 . S
O1229 Gd1201 2.506 . S
O1229 C1212 1.252 . S
O1230 Gd1201 2.435 . S
O1230 C1219 1.256 . S
O1231 Gd1200 2.327 . S
O1231 Gd1201 2.717 . S
O1231 C1219 1.257 . S
H1232 C1205 0.930 . S
H1233 C1206 0.931 . S
H1234 C1208 0.931 . S
H1235 C1209 0.931 . S
H1236 C1214 0.930 . S
H1237 C1215 0.931 . S
H1238 C1217 0.931 . S
H1239 C1218 0.931 . S
Gd1240 C1243 2.818 . S
Gd1240 O1260 2.377 . S
Gd1240 O1262 2.448 . S
Gd1240 O1263 2.506 . S
Gd1240 O1264 2.435 . S
Gd1240 O1265 2.717 . S
Gd1240 O1267 2.395 . S
Gd1240 O1271 2.327 . S
Gd1241 C1252 2.818 . S
Gd1241 O1261 2.395 . S
Gd1241 O1265 2.327 . S
Gd1241 O1266 2.377 . S
Gd1241 O1268 2.448 . S
Gd1241 O1269 2.506 . S
Gd1241 O1270 2.435 . S
Gd1241 O1271 2.717 . S
C1242 O1260 1.240 . S
C1242 O1261 1.240 . S
C1243 Gd1240 2.818 . S
C1243 C1244 1.510 . S
C1243 O1262 1.249 . S
C1243 O1263 1.252 . S
C1244 C1243 1.510 . S
C1244 C1245 1.404 . S
C1244 C1246 1.352 . S
C1245 C1244 1.404 . S
C1245 C1249 1.389 . S
C1245 H1272 0.930 . S
C1246 C1244 1.352 . S
C1246 C1248 1.374 . S
C1246 H1273 0.931 . S
C1247 C1248 1.359 . S
C1247 C1249 1.364 . S
C1248 C1246 1.374 . S
C1248 C1247 1.359 . S
C1248 H1274 0.931 . S
C1249 C1245 1.389 . S
C1249 C1247 1.364 . S
C1249 H1275 0.931 . S
C1250 O1264 1.256 . S
C1250 O1265 1.257 . S
C1251 O1266 1.240 . S
C1251 O1267 1.240 . S
C1252 Gd1241 2.818 . S
C1252 C1253 1.510 . S
C1252 O1268 1.249 . S
C1252 O1269 1.252 . S
C1253 C1252 1.510 . S
C1253 C1254 1.404 . S
C1253 C1255 1.352 . S
C1254 C1253 1.404 . S
C1254 C1258 1.389 . S
C1254 H1276 0.930 . S
C1255 C1253 1.352 . S
C1255 C1257 1.374 . S
C1255 H1277 0.931 . S
C1256 C1257 1.359 . S
C1256 C1258 1.364 . S
C1257 C1255 1.374 . S
C1257 C1256 1.359 . S
C1257 H1278 0.931 . S
C1258 C1254 1.389 . S
C1258 C1256 1.364 . S
C1258 H1279 0.931 . S
C1259 O1270 1.256 . S
C1259 O1271 1.257 . S
O1260 Gd1240 2.377 . S
O1260 C1242 1.240 . S
O1261 Gd1241 2.395 . S
O1261 C1242 1.240 . S
O1262 Gd1240 2.448 . S
O1262 C1243 1.249 . S
O1263 Gd1240 2.506 . S
O1263 C1243 1.252 . S
O1264 Gd1240 2.435 . S
O1264 C1250 1.256 . S
O1265 Gd1240 2.717 . S
O1265 Gd1241 2.327 . S
O1265 C1250 1.257 . S
O1266 Gd1241 2.377 . S
O1266 C1251 1.240 . S
O1267 Gd1240 2.395 . S
O1267 C1251 1.240 . S
O1268 Gd1241 2.448 . S
O1268 C1252 1.249 . S
O1269 Gd1241 2.506 . S
O1269 C1252 1.252 . S
O1270 Gd1241 2.435 . S
O1270 C1259 1.256 . S
O1271 Gd1240 2.327 . S
O1271 Gd1241 2.717 . S
O1271 C1259 1.257 . S
H1272 C1245 0.930 . S
H1273 C1246 0.931 . S
H1274 C1248 0.931 . S
H1275 C1249 0.931 . S
H1276 C1254 0.930 . S
H1277 C1255 0.931 . S
H1278 C1257 0.931 . S
H1279 C1258 0.931 . S
C1280 C1281 1.349 . S
C1280 C1282 1.327 . S
C1280 H1305 0.950 . S
C1281 C1280 1.349 . S
C1281 C1297 1.349 . S
C1282 C1280 1.327 . S
C1282 C1301 1.429 . S
C1282 H1306 0.950 . S
C1283 C1300 1.574 . S
C1283 C1302 1.368 . S
C1283 H1307 0.949 . S
H1284 C1288 0.949 . S
C1285 C1286 1.349 . S
C1285 C1287 1.327 . S
C1285 H1308 0.950 . S
C1286 C1285 1.349 . S
C1286 C1298 1.349 . S
C1287 C1285 1.327 . S
C1287 C1303 1.429 . S
C1287 H1309 0.950 . S
C1288 H1284 0.949 . S
C1288 C1296 1.574 . S
C1288 C1304 1.368 . S
H1289 C1297 0.950 . S
H1290 C1295 0.950 . S
H1291 C1296 0.949 . S
H1292 C1298 0.950 . S
H1293 C1299 0.950 . S
H1294 C1300 0.949 . S
C1295 H1290 0.950 . S
C1295 C1297 1.327 . S
C1295 C1301 1.429 . S
C1296 C1288 1.574 . S
C1296 H1291 0.949 . S
C1296 C1302 1.368 . S
C1297 C1281 1.349 . S
C1297 H1289 0.950 . S
C1297 C1295 1.327 . S
C1298 C1286 1.349 . S
C1298 H1292 0.950 . S
C1298 C1299 1.327 . S
C1299 H1293 0.950 . S
C1299 C1298 1.327 . S
C1299 C1303 1.429 . S
C1300 C1283 1.574 . S
C1300 H1294 0.949 . S
C1300 C1304 1.368 . S
C1301 C1282 1.429 . S
C1301 C1295 1.429 . S
C1301 C1302 1.523 . S
C1302 C1283 1.368 . S
C1302 C1296 1.368 . S
C1302 C1301 1.523 . S
C1303 C1287 1.429 . S
C1303 C1299 1.429 . S
C1303 C1304 1.523 . S
C1304 C1288 1.368 . S
C1304 C1300 1.368 . S
C1304 C1303 1.523 . S
H1305 C1280 0.950 . S
H1306 C1282 0.950 . S
H1307 C1283 0.949 . S
H1308 C1285 0.950 . S
H1309 C1287 0.950 . S
C1310 C1311 1.349 . S
C1310 C1312 1.327 . S
C1310 H1335 0.950 . S
C1311 C1310 1.349 . S
C1311 C1327 1.349 . S
C1312 C1310 1.327 . S
C1312 C1331 1.429 . S
C1312 H1336 0.950 . S
C1313 C1330 1.574 . S
C1313 C1332 1.368 . S
C1313 H1337 0.949 . S
H1314 C1318 0.949 . S
C1315 C1316 1.349 . S
C1315 C1317 1.327 . S
C1315 H1338 0.950 . S
C1316 C1315 1.349 . S
C1316 C1328 1.349 . S
C1317 C1315 1.327 . S
C1317 C1333 1.429 . S
C1317 H1339 0.950 . S
C1318 H1314 0.949 . S
C1318 C1326 1.574 . S
C1318 C1334 1.368 . S
H1319 C1327 0.950 . S
H1320 C1325 0.950 . S
H1321 C1326 0.949 . S
H1322 C1328 0.950 . S
H1323 C1329 0.950 . S
H1324 C1330 0.949 . S
C1325 H1320 0.950 . S
C1325 C1327 1.327 . S
C1325 C1331 1.429 . S
C1326 C1318 1.574 . S
C1326 H1321 0.949 . S
C1326 C1332 1.368 . S
C1327 C1311 1.349 . S
C1327 H1319 0.950 . S
C1327 C1325 1.327 . S
C1328 C1316 1.349 . S
C1328 H1322 0.950 . S
C1328 C1329 1.327 . S
C1329 H1323 0.950 . S
C1329 C1328 1.327 . S
C1329 C1333 1.429 . S
C1330 C1313 1.574 . S
C1330 H1324 0.949 . S
C1330 C1334 1.368 . S
C1331 C1312 1.429 . S
C1331 C1325 1.429 . S
C1331 C1332 1.523 . S
C1332 C1313 1.368 . S
C1332 C1326 1.368 . S
C1332 C1331 1.523 . S
C1333 C1317 1.429 . S
C1333 C1329 1.429 . S
C1333 C1334 1.523 . S
C1334 C1318 1.368 . S
C1334 C1330 1.368 . S
C1334 C1333 1.523 . S
H1335 C1310 0.950 . S
H1336 C1312 0.950 . S
H1337 C1313 0.949 . S
H1338 C1315 0.950 . S
H1339 C1317 0.950 . S
C1340 C1341 1.349 . S
C1340 C1342 1.327 . S
C1340 H1365 0.950 . S
C1341 C1340 1.349 . S
C1341 C1357 1.349 . S
C1342 C1340 1.327 . S
C1342 C1361 1.429 . S
C1342 H1366 0.950 . S
C1343 C1360 1.574 . S
C1343 C1362 1.368 . S
C1343 H1367 0.949 . S
H1344 C1348 0.949 . S
C1345 C1346 1.349 . S
C1345 C1347 1.327 . S
C1345 H1368 0.950 . S
C1346 C1345 1.349 . S
C1346 C1358 1.349 . S
C1347 C1345 1.327 . S
C1347 C1363 1.429 . S
C1347 H1369 0.950 . S
C1348 H1344 0.949 . S
C1348 C1356 1.574 . S
C1348 C1364 1.368 . S
H1349 C1357 0.950 . S
H1350 C1355 0.950 . S
H1351 C1356 0.949 . S
H1352 C1358 0.950 . S
H1353 C1359 0.950 . S
H1354 C1360 0.949 . S
C1355 H1350 0.950 . S
C1355 C1357 1.327 . S
C1355 C1361 1.429 . S
C1356 C1348 1.574 . S
C1356 H1351 0.949 . S
C1356 C1362 1.368 . S
C1357 C1341 1.349 . S
C1357 H1349 0.950 . S
C1357 C1355 1.327 . S
C1358 C1346 1.349 . S
C1358 H1352 0.950 . S
C1358 C1359 1.327 . S
C1359 H1353 0.950 . S
C1359 C1358 1.327 . S
C1359 C1363 1.429 . S
C1360 C1343 1.574 . S
C1360 H1354 0.949 . S
C1360 C1364 1.368 . S
C1361 C1342 1.429 . S
C1361 C1355 1.429 . S
C1361 C1362 1.523 . S
C1362 C1343 1.368 . S
C1362 C1356 1.368 . S
C1362 C1361 1.523 . S
C1363 C1347 1.429 . S
C1363 C1359 1.429 . S
C1363 C1364 1.523 . S
C1364 C1348 1.368 . S
C1364 C1360 1.368 . S
C1364 C1363 1.523 . S
H1365 C1340 0.950 . S
H1366 C1342 0.950 . S
H1367 C1343 0.949 . S
H1368 C1345 0.950 . S
H1369 C1347 0.950 . S
C1370 C1371 1.349 . S
C1370 C1372 1.327 . S
C1370 H1395 0.950 . S
C1371 C1370 1.349 . S
C1371 C1387 1.349 . S
C1372 C1370 1.327 . S
C1372 C1391 1.429 . S
C1372 H1396 0.950 . S
C1373 C1390 1.574 . S
C1373 C1392 1.368 . S
C1373 H1397 0.949 . S
H1374 C1378 0.949 . S
C1375 C1376 1.349 . S
C1375 C1377 1.327 . S
C1375 H1398 0.950 . S
C1376 C1375 1.349 . S
C1376 C1388 1.349 . S
C1377 C1375 1.327 . S
C1377 C1393 1.429 . S
C1377 H1399 0.950 . S
C1378 H1374 0.949 . S
C1378 C1386 1.574 . S
C1378 C1394 1.368 . S
H1379 C1387 0.950 . S
H1380 C1385 0.950 . S
H1381 C1386 0.949 . S
H1382 C1388 0.950 . S
H1383 C1389 0.950 . S
H1384 C1390 0.949 . S
C1385 H1380 0.950 . S
C1385 C1387 1.327 . S
C1385 C1391 1.429 . S
C1386 C1378 1.574 . S
C1386 H1381 0.949 . S
C1386 C1392 1.368 . S
C1387 C1371 1.349 . S
C1387 H1379 0.950 . S
C1387 C1385 1.327 . S
C1388 C1376 1.349 . S
C1388 H1382 0.950 . S
C1388 C1389 1.327 . S
C1389 H1383 0.950 . S
C1389 C1388 1.327 . S
C1389 C1393 1.429 . S
C1390 C1373 1.574 . S
C1390 H1384 0.949 . S
C1390 C1394 1.368 . S
C1391 C1372 1.429 . S
C1391 C1385 1.429 . S
C1391 C1392 1.523 . S
C1392 C1373 1.368 . S
C1392 C1386 1.368 . S
C1392 C1391 1.523 . S
C1393 C1377 1.429 . S
C1393 C1389 1.429 . S
C1393 C1394 1.523 . S
C1394 C1378 1.368 . S
C1394 C1390 1.368 . S
C1394 C1393 1.523 . S
H1395 C1370 0.950 . S
H1396 C1372 0.950 . S
H1397 C1373 0.949 . S
H1398 C1375 0.950 . S
H1399 C1377 0.950 . S
C1400 C1401 1.349 . S
C1400 C1402 1.327 . S
C1400 H1425 0.950 . S
C1401 C1400 1.349 . S
C1401 C1417 1.349 . S
C1402 C1400 1.327 . S
C1402 C1421 1.429 . S
C1402 H1426 0.950 . S
C1403 C1420 1.574 . S
C1403 C1422 1.368 . S
C1403 H1427 0.949 . S
H1404 C1408 0.949 . S
C1405 C1406 1.349 . S
C1405 C1407 1.327 . S
C1405 H1428 0.950 . S
C1406 C1405 1.349 . S
C1406 C1418 1.349 . S
C1407 C1405 1.327 . S
C1407 C1423 1.429 . S
C1407 H1429 0.950 . S
C1408 H1404 0.949 . S
C1408 C1416 1.574 . S
C1408 C1424 1.368 . S
H1409 C1417 0.950 . S
H1410 C1415 0.950 . S
H1411 C1416 0.949 . S
H1412 C1418 0.950 . S
H1413 C1419 0.950 . S
H1414 C1420 0.949 . S
C1415 H1410 0.950 . S
C1415 C1417 1.327 . S
C1415 C1421 1.429 . S
C1416 C1408 1.574 . S
C1416 H1411 0.949 . S
C1416 C1422 1.368 . S
C1417 C1401 1.349 . S
C1417 H1409 0.950 . S
C1417 C1415 1.327 . S
C1418 C1406 1.349 . S
C1418 H1412 0.950 . S
C1418 C1419 1.327 . S
C1419 H1413 0.950 . S
C1419 C1418 1.327 . S
C1419 C1423 1.429 . S
C1420 C1403 1.574 . S
C1420 H1414 0.949 . S
C1420 C1424 1.368 . S
C1421 C1402 1.429 . S
C1421 C1415 1.429 . S
C1421 C1422 1.523 . S
C1422 C1403 1.368 . S
C1422 C1416 1.368 . S
C1422 C1421 1.523 . S
C1423 C1407 1.429 . S
C1423 C1419 1.429 . S
C1423 C1424 1.523 . S
C1424 C1408 1.368 . S
C1424 C1420 1.368 . S
C1424 C1423 1.523 . S
H1425 C1400 0.950 . S
H1426 C1402 0.950 . S
H1427 C1403 0.949 . S
H1428 C1405 0.950 . S
H1429 C1407 0.950 . S
C1430 C1431 1.349 . S
C1430 C1432 1.327 . S
C1430 H1455 0.950 . S
C1431 C1430 1.349 . S
C1431 C1447 1.349 . S
C1432 C1430 1.327 . S
C1432 C1451 1.429 . S
C1432 H1456 0.950 . S
C1433 C1450 1.574 . S
C1433 C1452 1.368 . S
C1433 H1457 0.949 . S
H1434 C1438 0.949 . S
C1435 C1436 1.349 . S
C1435 C1437 1.327 . S
C1435 H1458 0.950 . S
C1436 C1435 1.349 . S
C1436 C1448 1.349 . S
C1437 C1435 1.327 . S
C1437 C1453 1.429 . S
C1437 H1459 0.950 . S
C1438 H1434 0.949 . S
C1438 C1446 1.574 . S
C1438 C1454 1.368 . S
H1439 C1447 0.950 . S
H1440 C1445 0.950 . S
H1441 C1446 0.949 . S
H1442 C1448 0.950 . S
H1443 C1449 0.950 . S
H1444 C1450 0.949 . S
C1445 H1440 0.950 . S
C1445 C1447 1.327 . S
C1445 C1451 1.429 . S
C1446 C1438 1.574 . S
C1446 H1441 0.949 . S
C1446 C1452 1.368 . S
C1447 C1431 1.349 . S
C1447 H1439 0.950 . S
C1447 C1445 1.327 . S
C1448 C1436 1.349 . S
C1448 H1442 0.950 . S
C1448 C1449 1.327 . S
C1449 H1443 0.950 . S
C1449 C1448 1.327 . S
C1449 C1453 1.429 . S
C1450 C1433 1.574 . S
C1450 H1444 0.949 . S
C1450 C1454 1.368 . S
C1451 C1432 1.429 . S
C1451 C1445 1.429 . S
C1451 C1452 1.523 . S
C1452 C1433 1.368 . S
C1452 C1446 1.368 . S
C1452 C1451 1.523 . S
C1453 C1437 1.429 . S
C1453 C1449 1.429 . S
C1453 C1454 1.523 . S
C1454 C1438 1.368 . S
C1454 C1450 1.368 . S
C1454 C1453 1.523 . S
H1455 C1430 0.950 . S
H1456 C1432 0.950 . S
H1457 C1433 0.949 . S
H1458 C1435 0.950 . S
H1459 C1437 0.950 . S
C1460 C1461 1.349 . S
C1460 C1462 1.327 . S
C1460 H1485 0.950 . S
C1461 C1460 1.349 . S
C1461 C1477 1.349 . S
C1462 C1460 1.327 . S
C1462 C1481 1.429 . S
C1462 H1486 0.950 . S
C1463 C1480 1.574 . S
C1463 C1482 1.368 . S
C1463 H1487 0.949 . S
H1464 C1468 0.949 . S
C1465 C1466 1.349 . S
C1465 C1467 1.327 . S
C1465 H1488 0.950 . S
C1466 C1465 1.349 . S
C1466 C1478 1.349 . S
C1467 C1465 1.327 . S
C1467 C1483 1.429 . S
C1467 H1489 0.950 . S
C1468 H1464 0.949 . S
C1468 C1476 1.574 . S
C1468 C1484 1.368 . S
H1469 C1477 0.950 . S
H1470 C1475 0.950 . S
H1471 C1476 0.949 . S
H1472 C1478 0.950 . S
H1473 C1479 0.950 . S
H1474 C1480 0.949 . S
C1475 H1470 0.950 . S
C1475 C1477 1.327 . S
C1475 C1481 1.429 . S
C1476 C1468 1.574 . S
C1476 H1471 0.949 . S
C1476 C1482 1.368 . S
C1477 C1461 1.349 . S
C1477 H1469 0.950 . S
C1477 C1475 1.327 . S
C1478 C1466 1.349 . S
C1478 H1472 0.950 . S
C1478 C1479 1.327 . S
C1479 H1473 0.950 . S
C1479 C1478 1.327 . S
C1479 C1483 1.429 . S
C1480 C1463 1.574 . S
C1480 H1474 0.949 . S
C1480 C1484 1.368 . S
C1481 C1462 1.429 . S
C1481 C1475 1.429 . S
C1481 C1482 1.523 . S
C1482 C1463 1.368 . S
C1482 C1476 1.368 . S
C1482 C1481 1.523 . S
C1483 C1467 1.429 . S
C1483 C1479 1.429 . S
C1483 C1484 1.523 . S
C1484 C1468 1.368 . S
C1484 C1480 1.368 . S
C1484 C1483 1.523 . S
H1485 C1460 0.950 . S
H1486 C1462 0.950 . S
H1487 C1463 0.949 . S
H1488 C1465 0.950 . S
H1489 C1467 0.950 . S
C1490 C1491 1.349 . S
C1490 C1492 1.327 . S
C1490 H1515 0.950 . S
C1491 C1490 1.349 . S
C1491 C1507 1.349 . S
C1492 C1490 1.327 . S
C1492 C1511 1.429 . S
C1492 H1516 0.950 . S
C1493 C1510 1.574 . S
C1493 C1512 1.368 . S
C1493 H1517 0.949 . S
H1494 C1498 0.949 . S
C1495 C1496 1.349 . S
C1495 C1497 1.327 . S
C1495 H1518 0.950 . S
C1496 C1495 1.349 . S
C1496 C1508 1.349 . S
C1497 C1495 1.327 . S
C1497 C1513 1.429 . S
C1497 H1519 0.950 . S
C1498 H1494 0.949 . S
C1498 C1506 1.574 . S
C1498 C1514 1.368 . S
H1499 C1507 0.950 . S
H1500 C1505 0.950 . S
H1501 C1506 0.949 . S
H1502 C1508 0.950 . S
H1503 C1509 0.950 . S
H1504 C1510 0.949 . S
C1505 H1500 0.950 . S
C1505 C1507 1.327 . S
C1505 C1511 1.429 . S
C1506 C1498 1.574 . S
C1506 H1501 0.949 . S
C1506 C1512 1.368 . S
C1507 C1491 1.349 . S
C1507 H1499 0.950 . S
C1507 C1505 1.327 . S
C1508 C1496 1.349 . S
C1508 H1502 0.950 . S
C1508 C1509 1.327 . S
C1509 H1503 0.950 . S
C1509 C1508 1.327 . S
C1509 C1513 1.429 . S
C1510 C1493 1.574 . S
C1510 H1504 0.949 . S
C1510 C1514 1.368 . S
C1511 C1492 1.429 . S
C1511 C1505 1.429 . S
C1511 C1512 1.523 . S
C1512 C1493 1.368 . S
C1512 C1506 1.368 . S
C1512 C1511 1.523 . S
C1513 C1497 1.429 . S
C1513 C1509 1.429 . S
C1513 C1514 1.523 . S
C1514 C1498 1.368 . S
C1514 C1510 1.368 . S
C1514 C1513 1.523 . S
H1515 C1490 0.950 . S
H1516 C1492 0.950 . S
H1517 C1493 0.949 . S
H1518 C1495 0.950 . S
H1519 C1497 0.950 . S
C1520 C1521 1.349 . S
C1520 C1522 1.327 . S
C1520 H1545 0.950 . S
C1521 C1520 1.349 . S
C1521 C1537 1.349 . S
C1522 C1520 1.327 . S
C1522 C1541 1.429 . S
C1522 H1546 0.950 . S
C1523 C1540 1.574 . S
C1523 C1542 1.368 . S
C1523 H1547 0.949 . S
H1524 C1528 0.949 . S
C1525 C1526 1.349 . S
C1525 C1527 1.327 . S
C1525 H1548 0.950 . S
C1526 C1525 1.349 . S
C1526 C1538 1.349 . S
C1527 C1525 1.327 . S
C1527 C1543 1.429 . S
C1527 H1549 0.950 . S
C1528 H1524 0.949 . S
C1528 C1536 1.574 . S
C1528 C1544 1.368 . S
H1529 C1537 0.950 . S
H1530 C1535 0.950 . S
H1531 C1536 0.949 . S
H1532 C1538 0.950 . S
H1533 C1539 0.950 . S
H1534 C1540 0.949 . S
C1535 H1530 0.950 . S
C1535 C1537 1.327 . S
C1535 C1541 1.429 . S
C1536 C1528 1.574 . S
C1536 H1531 0.949 . S
C1536 C1542 1.368 . S
C1537 C1521 1.349 . S
C1537 H1529 0.950 . S
C1537 C1535 1.327 . S
C1538 C1526 1.349 . S
C1538 H1532 0.950 . S
C1538 C1539 1.327 . S
C1539 H1533 0.950 . S
C1539 C1538 1.327 . S
C1539 C1543 1.429 . S
C1540 C1523 1.574 . S
C1540 H1534 0.949 . S
C1540 C1544 1.368 . S
C1541 C1522 1.429 . S
C1541 C1535 1.429 . S
C1541 C1542 1.523 . S
C1542 C1523 1.368 . S
C1542 C1536 1.368 . S
C1542 C1541 1.523 . S
C1543 C1527 1.429 . S
C1543 C1539 1.429 . S
C1543 C1544 1.523 . S
C1544 C1528 1.368 . S
C1544 C1540 1.368 . S
C1544 C1543 1.523 . S
H1545 C1520 0.950 . S
H1546 C1522 0.950 . S
H1547 C1523 0.949 . S
H1548 C1525 0.950 . S
H1549 C1527 0.950 . S
C1550 C1551 1.349 . S
C1550 C1552 1.327 . S
C1550 H1575 0.950 . S
C1551 C1550 1.349 . S
C1551 C1567 1.349 . S
C1552 C1550 1.327 . S
C1552 C1571 1.429 . S
C1552 H1576 0.950 . S
C1553 C1570 1.574 . S
C1553 C1572 1.368 . S
C1553 H1577 0.949 . S
H1554 C1558 0.949 . S
C1555 C1556 1.349 . S
C1555 C1557 1.327 . S
C1555 H1578 0.950 . S
C1556 C1555 1.349 . S
C1556 C1568 1.349 . S
C1557 C1555 1.327 . S
C1557 C1573 1.429 . S
C1557 H1579 0.950 . S
C1558 H1554 0.949 . S
C1558 C1566 1.574 . S
C1558 C1574 1.368 . S
H1559 C1567 0.950 . S
H1560 C1565 0.950 . S
H1561 C1566 0.949 . S
H1562 C1568 0.950 . S
H1563 C1569 0.950 . S
H1564 C1570 0.949 . S
C1565 H1560 0.950 . S
C1565 C1567 1.327 . S
C1565 C1571 1.429 . S
C1566 C1558 1.574 . S
C1566 H1561 0.949 . S
C1566 C1572 1.368 . S
C1567 C1551 1.349 . S
C1567 H1559 0.950 . S
C1567 C1565 1.327 . S
C1568 C1556 1.349 . S
C1568 H1562 0.950 . S
C1568 C1569 1.327 . S
C1569 H1563 0.950 . S
C1569 C1568 1.327 . S
C1569 C1573 1.429 . S
C1570 C1553 1.574 . S
C1570 H1564 0.949 . S
C1570 C1574 1.368 . S
C1571 C1552 1.429 . S
C1571 C1565 1.429 . S
C1571 C1572 1.523 . S
C1572 C1553 1.368 . S
C1572 C1566 1.368 . S
C1572 C1571 1.523 . S
C1573 C1557 1.429 . S
C1573 C1569 1.429 . S
C1573 C1574 1.523 . S
C1574 C1558 1.368 . S
C1574 C1570 1.368 . S
C1574 C1573 1.523 . S
H1575 C1550 0.950 . S
H1576 C1552 0.950 . S
H1577 C1553 0.949 . S
H1578 C1555 0.950 . S
H1579 C1557 0.950 . S
C1580 C1581 1.349 . S
C1580 C1582 1.327 . S
C1580 H1605 0.950 . S
C1581 C1580 1.349 . S
C1581 C1597 1.349 . S
C1582 C1580 1.327 . S
C1582 C1601 1.429 . S
C1582 H1606 0.950 . S
C1583 C1600 1.574 . S
C1583 C1602 1.368 . S
C1583 H1607 0.949 . S
H1584 C1588 0.949 . S
C1585 C1586 1.349 . S
C1585 C1587 1.327 . S
C1585 H1608 0.950 . S
C1586 C1585 1.349 . S
C1586 C1598 1.349 . S
C1587 C1585 1.327 . S
C1587 C1603 1.429 . S
C1587 H1609 0.950 . S
C1588 H1584 0.949 . S
C1588 C1596 1.574 . S
C1588 C1604 1.368 . S
H1589 C1597 0.950 . S
H1590 C1595 0.950 . S
H1591 C1596 0.949 . S
H1592 C1598 0.950 . S
H1593 C1599 0.950 . S
H1594 C1600 0.949 . S
C1595 H1590 0.950 . S
C1595 C1597 1.327 . S
C1595 C1601 1.429 . S
C1596 C1588 1.574 . S
C1596 H1591 0.949 . S
C1596 C1602 1.368 . S
C1597 C1581 1.349 . S
C1597 H1589 0.950 . S
C1597 C1595 1.327 . S
C1598 C1586 1.349 . S
C1598 H1592 0.950 . S
C1598 C1599 1.327 . S
C1599 H1593 0.950 . S
C1599 C1598 1.327 . S
C1599 C1603 1.429 . S
C1600 C1583 1.574 . S
C1600 H1594 0.949 . S
C1600 C1604 1.368 . S
C1601 C1582 1.429 . S
C1601 C1595 1.429 . S
C1601 C1602 1.523 . S
C1602 C1583 1.368 . S
C1602 C1596 1.368 . S
C1602 C1601 1.523 . S
C1603 C1587 1.429 . S
C1603 C1599 1.429 . S
C1603 C1604 1.523 . S
C1604 C1588 1.368 . S
C1604 C1600 1.368 . S
C1604 C1603 1.523 . S
H1605 C1580 0.950 . S
H1606 C1582 0.950 . S
H1607 C1583 0.949 . S
H1608 C1585 0.950 . S
H1609 C1587 0.950 . S
C1610 C1611 1.349 . S
C1610 C1612 1.327 . S
C1610 H1635 0.950 . S
C1611 C1610 1.349 . S
C1611 C1627 1.349 . S
C1612 C1610 1.327 . S
C1612 C1631 1.429 . S
C1612 H1636 0.950 . S
C1613 C1630 1.574 . S
C1613 C1632 1.368 . S
C1613 H1637 0.949 . S
H1614 C1618 0.949 . S
C1615 C1616 1.349 . S
C1615 C1617 1.327 . S
C1615 H1638 0.950 . S
C1616 C1615 1.349 . S
C1616 C1628 1.349 . S
C1617 C1615 1.327 . S
C1617 C1633 1.429 . S
C1617 H1639 0.950 . S
C1618 H1614 0.949 . S
C1618 C1626 1.574 . S
C1618 C1634 1.368 . S
H1619 C1627 0.950 . S
H1620 C1625 0.950 . S
H1621 C1626 0.949 . S
H1622 C1628 0.950 . S
H1623 C1629 0.950 . S
H1624 C1630 0.949 . S
C1625 H1620 0.950 . S
C1625 C1627 1.327 . S
C1625 C1631 1.429 . S
C1626 C1618 1.574 . S
C1626 H1621 0.949 . S
C1626 C1632 1.368 . S
C1627 C1611 1.349 . S
C1627 H1619 0.950 . S
C1627 C1625 1.327 . S
C1628 C1616 1.349 . S
C1628 H1622 0.950 . S
C1628 C1629 1.327 . S
C1629 H1623 0.950 . S
C1629 C1628 1.327 . S
C1629 C1633 1.429 . S
C1630 C1613 1.574 . S
C1630 H1624 0.949 . S
C1630 C1634 1.368 . S
C1631 C1612 1.429 . S
C1631 C1625 1.429 . S
C1631 C1632 1.523 . S
C1632 C1613 1.368 . S
C1632 C1626 1.368 . S
C1632 C1631 1.523 . S
C1633 C1617 1.429 . S
C1633 C1629 1.429 . S
C1633 C1634 1.523 . S
C1634 C1618 1.368 . S
C1634 C1630 1.368 . S
C1634 C1633 1.523 . S
H1635 C1610 0.950 . S
H1636 C1612 0.950 . S
H1637 C1613 0.949 . S
H1638 C1615 0.950 . S
H1639 C1617 0.950 . S
C1640 C1641 1.349 . S
C1640 C1642 1.327 . S
C1640 H1665 0.950 . S
C1641 C1640 1.349 . S
C1641 C1657 1.349 . S
C1642 C1640 1.327 . S
C1642 C1661 1.429 . S
C1642 H1666 0.950 . S
C1643 C1660 1.574 . S
C1643 C1662 1.368 . S
C1643 H1667 0.949 . S
H1644 C1648 0.949 . S
C1645 C1646 1.349 . S
C1645 C1647 1.327 . S
C1645 H1668 0.950 . S
C1646 C1645 1.349 . S
C1646 C1658 1.349 . S
C1647 C1645 1.327 . S
C1647 C1663 1.429 . S
C1647 H1669 0.950 . S
C1648 H1644 0.949 . S
C1648 C1656 1.574 . S
C1648 C1664 1.368 . S
H1649 C1657 0.950 . S
H1650 C1655 0.950 . S
H1651 C1656 0.949 . S
H1652 C1658 0.950 . S
H1653 C1659 0.950 . S
H1654 C1660 0.949 . S
C1655 H1650 0.950 . S
C1655 C1657 1.327 . S
C1655 C1661 1.429 . S
C1656 C1648 1.574 . S
C1656 H1651 0.949 . S
C1656 C1662 1.368 . S
C1657 C1641 1.349 . S
C1657 H1649 0.950 . S
C1657 C1655 1.327 . S
C1658 C1646 1.349 . S
C1658 H1652 0.950 . S
C1658 C1659 1.327 . S
C1659 H1653 0.950 . S
C1659 C1658 1.327 . S
C1659 C1663 1.429 . S
C1660 C1643 1.574 . S
C1660 H1654 0.949 . S
C1660 C1664 1.368 . S
C1661 C1642 1.429 . S
C1661 C1655 1.429 . S
C1661 C1662 1.523 . S
C1662 C1643 1.368 . S
C1662 C1656 1.368 . S
C1662 C1661 1.523 . S
C1663 C1647 1.429 . S
C1663 C1659 1.429 . S
C1663 C1664 1.523 . S
C1664 C1648 1.368 . S
C1664 C1660 1.368 . S
C1664 C1663 1.523 . S
H1665 C1640 0.950 . S
H1666 C1642 0.950 . S
H1667 C1643 0.949 . S
H1668 C1645 0.950 . S
H1669 C1647 0.950 . S
C1670 C1671 1.349 . S
C1670 C1672 1.327 . S
C1670 H1695 0.950 . S
C1671 C1670 1.349 . S
C1671 C1687 1.349 . S
C1672 C1670 1.327 . S
C1672 C1691 1.429 . S
C1672 H1696 0.950 . S
C1673 C1690 1.574 . S
C1673 C1692 1.368 . S
C1673 H1697 0.949 . S
H1674 C1678 0.949 . S
C1675 C1676 1.349 . S
C1675 C1677 1.327 . S
C1675 H1698 0.950 . S
C1676 C1675 1.349 . S
C1676 C1688 1.349 . S
C1677 C1675 1.327 . S
C1677 C1693 1.429 . S
C1677 H1699 0.950 . S
C1678 H1674 0.949 . S
C1678 C1686 1.574 . S
C1678 C1694 1.368 . S
H1679 C1687 0.950 . S
H1680 C1685 0.950 . S
H1681 C1686 0.949 . S
H1682 C1688 0.950 . S
H1683 C1689 0.950 . S
H1684 C1690 0.949 . S
C1685 H1680 0.950 . S
C1685 C1687 1.327 . S
C1685 C1691 1.429 . S
C1686 C1678 1.574 . S
C1686 H1681 0.949 . S
C1686 C1692 1.368 . S
C1687 C1671 1.349 . S
C1687 H1679 0.950 . S
C1687 C1685 1.327 . S
C1688 C1676 1.349 . S
C1688 H1682 0.950 . S
C1688 C1689 1.327 . S
C1689 H1683 0.950 . S
C1689 C1688 1.327 . S
C1689 C1693 1.429 . S
C1690 C1673 1.574 . S
C1690 H1684 0.949 . S
C1690 C1694 1.368 . S
C1691 C1672 1.429 . S
C1691 C1685 1.429 . S
C1691 C1692 1.523 . S
C1692 C1673 1.368 . S
C1692 C1686 1.368 . S
C1692 C1691 1.523 . S
C1693 C1677 1.429 . S
C1693 C1689 1.429 . S
C1693 C1694 1.523 . S
C1694 C1678 1.368 . S
C1694 C1690 1.368 . S
C1694 C1693 1.523 . S
H1695 C1670 0.950 . S
H1696 C1672 0.950 . S
H1697 C1673 0.949 . S
H1698 C1675 0.950 . S
H1699 C1677 0.950 . S
C1700 C1701 1.349 . S
C1700 C1702 1.327 . S
C1700 H1725 0.950 . S
C1701 C1700 1.349 . S
C1701 C1717 1.349 . S
C1702 C1700 1.327 . S
C1702 C1721 1.429 . S
C1702 H1726 0.950 . S
C1703 C1720 1.574 . S
C1703 C1722 1.368 . S
C1703 H1727 0.949 . S
H1704 C1708 0.949 . S
C1705 C1706 1.349 . S
C1705 C1707 1.327 . S
C1705 H1728 0.950 . S
C1706 C1705 1.349 . S
C1706 C1718 1.349 . S
C1707 C1705 1.327 . S
C1707 C1723 1.429 . S
C1707 H1729 0.950 . S
C1708 H1704 0.949 . S
C1708 C1716 1.574 . S
C1708 C1724 1.368 . S
H1709 C1717 0.950 . S
H1710 C1715 0.950 . S
H1711 C1716 0.949 . S
H1712 C1718 0.950 . S
H1713 C1719 0.950 . S
H1714 C1720 0.949 . S
C1715 H1710 0.950 . S
C1715 C1717 1.327 . S
C1715 C1721 1.429 . S
C1716 C1708 1.574 . S
C1716 H1711 0.949 . S
C1716 C1722 1.368 . S
C1717 C1701 1.349 . S
C1717 H1709 0.950 . S
C1717 C1715 1.327 . S
C1718 C1706 1.349 . S
C1718 H1712 0.950 . S
C1718 C1719 1.327 . S
C1719 H1713 0.950 . S
C1719 C1718 1.327 . S
C1719 C1723 1.429 . S
C1720 C1703 1.574 . S
C1720 H1714 0.949 . S
C1720 C1724 1.368 . S
C1721 C1702 1.429 . S
C1721 C1715 1.429 . S
C1721 C1722 1.523 . S
C1722 C1703 1.368 . S
C1722 C1716 1.368 . S
C1722 C1721 1.523 . S
C1723 C1707 1.429 . S
C1723 C1719 1.429 . S
C1723 C1724 1.523 . S
C1724 C1708 1.368 . S
C1724 C1720 1.368 . S
C1724 C1723 1.523 . S
H1725 C1700 0.950 . S
H1726 C1702 0.950 . S
H1727 C1703 0.949 . S
H1728 C1705 0.950 . S
H1729 C1707 0.950 . S
C1730 C1731 1.349 . S
C1730 C1732 1.327 . S
C1730 H1755 0.950 . S
C1731 C1730 1.349 . S
C1731 C1747 1.349 . S
C1732 C1730 1.327 . S
C1732 C1751 1.429 . S
C1732 H1756 0.950 . S
C1733 C1750 1.574 . S
C1733 C1752 1.368 . S
C1733 H1757 0.949 . S
H1734 C1738 0.949 . S
C1735 C1736 1.349 . S
C1735 C1737 1.327 . S
C1735 H1758 0.950 . S
C1736 C1735 1.349 . S
C1736 C1748 1.349 . S
C1737 C1735 1.327 . S
C1737 C1753 1.429 . S
C1737 H1759 0.950 . S
C1738 H1734 0.949 . S
C1738 C1746 1.574 . S
C1738 C1754 1.368 . S
H1739 C1747 0.950 . S
H1740 C1745 0.950 . S
H1741 C1746 0.949 . S
H1742 C1748 0.950 . S
H1743 C1749 0.950 . S
H1744 C1750 0.949 . S
C1745 H1740 0.950 . S
C1745 C1747 1.327 . S
C1745 C1751 1.429 . S
C1746 C1738 1.574 . S
C1746 H1741 0.949 . S
C1746 C1752 1.368 . S
C1747 C1731 1.349 . S
C1747 H1739 0.950 . S
C1747 C1745 1.327 . S
C1748 C1736 1.349 . S
C1748 H1742 0.950 . S
C1748 C1749 1.327 . S
C1749 H1743 0.950 . S
C1749 C1748 1.327 . S
C1749 C1753 1.429 . S
C1750 C1733 1.574 . S
C1750 H1744 0.949 . S
C1750 C1754 1.368 . S
C1751 C1732 1.429 . S
C1751 C1745 1.429 . S
C1751 C1752 1.523 . S
C1752 C1733 1.368 . S
C1752 C1746 1.368 . S
C1752 C1751 1.523 . S
C1753 C1737 1.429 . S
C1753 C1749 1.429 . S
C1753 C1754 1.523 . S
C1754 C1738 1.368 . S
C1754 C1750 1.368 . S
C1754 C1753 1.523 . S
H1755 C1730 0.950 . S
H1756 C1732 0.950 . S
H1757 C1733 0.949 . S
H1758 C1735 0.950 . S
H1759 C1737 0.950 . S
C1760 C1761 1.349 . S
C1760 C1762 1.327 . S
C1760 H1785 0.950 . S
C1761 C1760 1.349 . S
C1761 C1777 1.349 . S
C1762 C1760 1.327 . S
C1762 C1781 1.429 . S
C1762 H1786 0.950 . S
C1763 C1780 1.574 . S
C1763 C1782 1.368 . S
C1763 H1787 0.949 . S
H1764 C1768 0.949 . S
C1765 C1766 1.349 . S
C1765 C1767 1.327 . S
C1765 H1788 0.950 . S
C1766 C1765 1.349 . S
C1766 C1778 1.349 . S
C1767 C1765 1.327 . S
C1767 C1783 1.429 . S
C1767 H1789 0.950 . S
C1768 H1764 0.949 . S
C1768 C1776 1.574 . S
C1768 C1784 1.368 . S
H1769 C1777 0.950 . S
H1770 C1775 0.950 . S
H1771 C1776 0.949 . S
H1772 C1778 0.950 . S
H1773 C1779 0.950 . S
H1774 C1780 0.949 . S
C1775 H1770 0.950 . S
C1775 C1777 1.327 . S
C1775 C1781 1.429 . S
C1776 C1768 1.574 . S
C1776 H1771 0.949 . S
C1776 C1782 1.368 . S
C1777 C1761 1.349 . S
C1777 H1769 0.950 . S
C1777 C1775 1.327 . S
C1778 C1766 1.349 . S
C1778 H1772 0.950 . S
C1778 C1779 1.327 . S
C1779 H1773 0.950 . S
C1779 C1778 1.327 . S
C1779 C1783 1.429 . S
C1780 C1763 1.574 . S
C1780 H1774 0.949 . S
C1780 C1784 1.368 . S
C1781 C1762 1.429 . S
C1781 C1775 1.429 . S
C1781 C1782 1.523 . S
C1782 C1763 1.368 . S
C1782 C1776 1.368 . S
C1782 C1781 1.523 . S
C1783 C1767 1.429 . S
C1783 C1779 1.429 . S
C1783 C1784 1.523 . S
C1784 C1768 1.368 . S
C1784 C1780 1.368 . S
C1784 C1783 1.523 . S
H1785 C1760 0.950 . S
H1786 C1762 0.950 . S
H1787 C1763 0.949 . S
H1788 C1765 0.950 . S
H1789 C1767 0.950 . S
C1790 C1791 1.349 . S
C1790 C1792 1.327 . S
C1790 H1815 0.950 . S
C1791 C1790 1.349 . S
C1791 C1807 1.349 . S
C1792 C1790 1.327 . S
C1792 C1811 1.429 . S
C1792 H1816 0.950 . S
C1793 C1810 1.574 . S
C1793 C1812 1.368 . S
C1793 H1817 0.949 . S
H1794 C1798 0.949 . S
C1795 C1796 1.349 . S
C1795 C1797 1.327 . S
C1795 H1818 0.950 . S
C1796 C1795 1.349 . S
C1796 C1808 1.349 . S
C1797 C1795 1.327 . S
C1797 C1813 1.429 . S
C1797 H1819 0.950 . S
C1798 H1794 0.949 . S
C1798 C1806 1.574 . S
C1798 C1814 1.368 . S
H1799 C1807 0.950 . S
H1800 C1805 0.950 . S
H1801 C1806 0.949 . S
H1802 C1808 0.950 . S
H1803 C1809 0.950 . S
H1804 C1810 0.949 . S
C1805 H1800 0.950 . S
C1805 C1807 1.327 . S
C1805 C1811 1.429 . S
C1806 C1798 1.574 . S
C1806 H1801 0.949 . S
C1806 C1812 1.368 . S
C1807 C1791 1.349 . S
C1807 H1799 0.950 . S
C1807 C1805 1.327 . S
C1808 C1796 1.349 . S
C1808 H1802 0.950 . S
C1808 C1809 1.327 . S
C1809 H1803 0.950 . S
C1809 C1808 1.327 . S
C1809 C1813 1.429 . S
C1810 C1793 1.574 . S
C1810 H1804 0.949 . S
C1810 C1814 1.368 . S
C1811 C1792 1.429 . S
C1811 C1805 1.429 . S
C1811 C1812 1.523 . S
C1812 C1793 1.368 . S
C1812 C1806 1.368 . S
C1812 C1811 1.523 . S
C1813 C1797 1.429 . S
C1813 C1809 1.429 . S
C1813 C1814 1.523 . S
C1814 C1798 1.368 . S
C1814 C1810 1.368 . S
C1814 C1813 1.523 . S
H1815 C1790 0.950 . S
H1816 C1792 0.950 . S
H1817 C1793 0.949 . S
H1818 C1795 0.950 . S
H1819 C1797 0.950 . S
C1820 C1821 1.349 . S
C1820 C1822 1.327 . S
C1820 H1845 0.950 . S
C1821 C1820 1.349 . S
C1821 C1837 1.349 . S
C1822 C1820 1.327 . S
C1822 C1841 1.429 . S
C1822 H1846 0.950 . S
C1823 C1840 1.574 . S
C1823 C1842 1.368 . S
C1823 H1847 0.949 . S
H1824 C1828 0.949 . S
C1825 C1826 1.349 . S
C1825 C1827 1.327 . S
C1825 H1848 0.950 . S
C1826 C1825 1.349 . S
C1826 C1838 1.349 . S
C1827 C1825 1.327 . S
C1827 C1843 1.429 . S
C1827 H1849 0.950 . S
C1828 H1824 0.949 . S
C1828 C1836 1.574 . S
C1828 C1844 1.368 . S
H1829 C1837 0.950 . S
H1830 C1835 0.950 . S
H1831 C1836 0.949 . S
H1832 C1838 0.950 . S
H1833 C1839 0.950 . S
H1834 C1840 0.949 . S
C1835 H1830 0.950 . S
C1835 C1837 1.327 . S
C1835 C1841 1.429 . S
C1836 C1828 1.574 . S
C1836 H1831 0.949 . S
C1836 C1842 1.368 . S
C1837 C1821 1.349 . S
C1837 H1829 0.950 . S
C1837 C1835 1.327 . S
C1838 C1826 1.349 . S
C1838 H1832 0.950 . S
C1838 C1839 1.327 . S
C1839 H1833 0.950 . S
C1839 C1838 1.327 . S
C1839 C1843 1.429 . S
C1840 C1823 1.574 . S
C1840 H1834 0.949 . S
C1840 C1844 1.368 . S
C1841 C1822 1.429 . S
C1841 C1835 1.429 . S
C1841 C1842 1.523 . S
C1842 C1823 1.368 . S
C1842 C1836 1.368 . S
C1842 C1841 1.523 . S
C1843 C1827 1.429 . S
C1843 C1839 1.429 . S
C1843 C1844 1.523 . S
C1844 C1828 1.368 . S
C1844 C1840 1.368 . S
C1844 C1843 1.523 . S
H1845 C1820 0.950 . S
H1846 C1822 0.950 . S
H1847 C1823 0.949 . S
H1848 C1825 0.950 . S
H1849 C1827 0.950 . S
C1850 C1851 1.349 . S
C1850 C1852 1.327 . S
C1850 H1875 0.950 . S
C1851 C1850 1.349 . S
C1851 C1867 1.349 . S
C1852 C1850 1.327 . S
C1852 C1871 1.429 . S
C1852 H1876 0.950 . S
C1853 C1870 1.574 . S
C1853 C1872 1.368 . S
C1853 H1877 0.949 . S
H1854 C1858 0.949 . S
C1855 C1856 1.349 . S
C1855 C1857 1.327 . S
C1855 H1878 0.950 . S
C1856 C1855 1.349 . S
C1856 C1868 1.349 . S
C1857 C1855 1.327 . S
C1857 C1873 1.429 . S
C1857 H1879 0.950 . S
C1858 H1854 0.949 . S
C1858 C1866 1.574 . S
C1858 C1874 1.368 . S
H1859 C1867 0.950 . S
H1860 C1865 0.950 . S
H1861 C1866 0.949 . S
H1862 C1868 0.950 . S
H1863 C1869 0.950 . S
H1864 C1870 0.949 . S
C1865 H1860 0.950 . S
C1865 C1867 1.327 . S
C1865 C1871 1.429 . S
C1866 C1858 1.574 . S
C1866 H1861 0.949 . S
C1866 C1872 1.368 . S
C1867 C1851 1.349 . S
C1867 H1859 0.950 . S
C1867 C1865 1.327 . S
C1868 C1856 1.349 . S
C1868 H1862 0.950 . S
C1868 C1869 1.327 . S
C1869 H1863 0.950 . S
C1869 C1868 1.327 . S
C1869 C1873 1.429 . S
C1870 C1853 1.574 . S
C1870 H1864 0.949 . S
C1870 C1874 1.368 . S
C1871 C1852 1.429 . S
C1871 C1865 1.429 . S
C1871 C1872 1.523 . S
C1872 C1853 1.368 . S
C1872 C1866 1.368 . S
C1872 C1871 1.523 . S
C1873 C1857 1.429 . S
C1873 C1869 1.429 . S
C1873 C1874 1.523 . S
C1874 C1858 1.368 . S
C1874 C1870 1.368 . S
C1874 C1873 1.523 . S
H1875 C1850 0.950 . S
H1876 C1852 0.950 . S
H1877 C1853 0.949 . S
H1878 C1855 0.950 . S
H1879 C1857 0.950 . S
C1880 C1881 1.349 . S
C1880 C1882 1.327 . S
C1880 H1905 0.950 . S
C1881 C1880 1.349 . S
C1881 C1897 1.349 . S
C1882 C1880 1.327 . S
C1882 C1901 1.429 . S
C1882 H1906 0.950 . S
C1883 C1900 1.574 . S
C1883 C1902 1.368 . S
C1883 H1907 0.949 . S
H1884 C1888 0.949 . S
C1885 C1886 1.349 . S
C1885 C1887 1.327 . S
C1885 H1908 0.950 . S
C1886 C1885 1.349 . S
C1886 C1898 1.349 . S
C1887 C1885 1.327 . S
C1887 C1903 1.429 . S
C1887 H1909 0.950 . S
C1888 H1884 0.949 . S
C1888 C1896 1.574 . S
C1888 C1904 1.368 . S
H1889 C1897 0.950 . S
H1890 C1895 0.950 . S
H1891 C1896 0.949 . S
H1892 C1898 0.950 . S
H1893 C1899 0.950 . S
H1894 C1900 0.949 . S
C1895 H1890 0.950 . S
C1895 C1897 1.327 . S
C1895 C1901 1.429 . S
C1896 C1888 1.574 . S
C1896 H1891 0.949 . S
C1896 C1902 1.368 . S
C1897 C1881 1.349 . S
C1897 H1889 0.950 . S
C1897 C1895 1.327 . S
C1898 C1886 1.349 . S
C1898 H1892 0.950 . S
C1898 C1899 1.327 . S
C1899 H1893 0.950 . S
C1899 C1898 1.327 . S
C1899 C1903 1.429 . S
C1900 C1883 1.574 . S
C1900 H1894 0.949 . S
C1900 C1904 1.368 . S
C1901 C1882 1.429 . S
C1901 C1895 1.429 . S
C1901 C1902 1.523 . S
C1902 C1883 1.368 . S
C1902 C1896 1.368 . S
C1902 C1901 1.523 . S
C1903 C1887 1.429 . S
C1903 C1899 1.429 . S
C1903 C1904 1.523 . S
C1904 C1888 1.368 . S
C1904 C1900 1.368 . S
C1904 C1903 1.523 . S
H1905 C1880 0.950 . S
H1906 C1882 0.950 . S
H1907 C1883 0.949 . S
H1908 C1885 0.950 . S
H1909 C1887 0.950 . S
C1910 C1911 1.349 . S
C1910 C1912 1.327 . S
C1910 H1935 0.950 . S
C1911 C1910 1.349 . S
C1911 C1927 1.349 . S
C1912 C1910 1.327 . S
C1912 C1931 1.429 . S
C1912 H1936 0.950 . S
C1913 C1930 1.574 . S
C1913 C1932 1.368 . S
C1913 H1937 0.949 . S
H1914 C1918 0.949 . S
C1915 C1916 1.349 . S
C1915 C1917 1.327 . S
C1915 H1938 0.950 . S
C1916 C1915 1.349 . S
C1916 C1928 1.349 . S
C1917 C1915 1.327 . S
C1917 C1933 1.429 . S
C1917 H1939 0.950 . S
C1918 H1914 0.949 . S
C1918 C1926 1.574 . S
C1918 C1934 1.368 . S
H1919 C1927 0.950 . S
H1920 C1925 0.950 . S
H1921 C1926 0.949 . S
H1922 C1928 0.950 . S
H1923 C1929 0.950 . S
H1924 C1930 0.949 . S
C1925 H1920 0.950 . S
C1925 C1927 1.327 . S
C1925 C1931 1.429 . S
C1926 C1918 1.574 . S
C1926 H1921 0.949 . S
C1926 C1932 1.368 . S
C1927 C1911 1.349 . S
C1927 H1919 0.950 . S
C1927 C1925 1.327 . S
C1928 C1916 1.349 . S
C1928 H1922 0.950 . S
C1928 C1929 1.327 . S
C1929 H1923 0.950 . S
C1929 C1928 1.327 . S
C1929 C1933 1.429 . S
C1930 C1913 1.574 . S
C1930 H1924 0.949 . S
C1930 C1934 1.368 . S
C1931 C1912 1.429 . S
C1931 C1925 1.429 . S
C1931 C1932 1.523 . S
C1932 C1913 1.368 . S
C1932 C1926 1.368 . S
C1932 C1931 1.523 . S
C1933 C1917 1.429 . S
C1933 C1929 1.429 . S
C1933 C1934 1.523 . S
C1934 C1918 1.368 . S
C1934 C1930 1.368 . S
C1934 C1933 1.523 . S
H1935 C1910 0.950 . S
H1936 C1912 0.950 . S
H1937 C1913 0.949 . S
H1938 C1915 0.950 . S
H1939 C1917 0.950 . S
C1940 C1941 1.349 . S
C1940 C1942 1.327 . S
C1940 H1965 0.950 . S
C1941 C1940 1.349 . S
C1941 C1957 1.349 . S
C1942 C1940 1.327 . S
C1942 C1961 1.429 . S
C1942 H1966 0.950 . S
C1943 C1960 1.574 . S
C1943 C1962 1.368 . S
C1943 H1967 0.949 . S
H1944 C1948 0.949 . S
C1945 C1946 1.349 . S
C1945 C1947 1.327 . S
C1945 H1968 0.950 . S
C1946 C1945 1.349 . S
C1946 C1958 1.349 . S
C1947 C1945 1.327 . S
C1947 C1963 1.429 . S
C1947 H1969 0.950 . S
C1948 H1944 0.949 . S
C1948 C1956 1.574 . S
C1948 C1964 1.368 . S
H1949 C1957 0.950 . S
H1950 C1955 0.950 . S
H1951 C1956 0.949 . S
H1952 C1958 0.950 . S
H1953 C1959 0.950 . S
H1954 C1960 0.949 . S
C1955 H1950 0.950 . S
C1955 C1957 1.327 . S
C1955 C1961 1.429 . S
C1956 C1948 1.574 . S
C1956 H1951 0.949 . S
C1956 C1962 1.368 . S
C1957 C1941 1.349 . S
C1957 H1949 0.950 . S
C1957 C1955 1.327 . S
C1958 C1946 1.349 . S
C1958 H1952 0.950 . S
C1958 C1959 1.327 . S
C1959 H1953 0.950 . S
C1959 C1958 1.327 . S
C1959 C1963 1.429 . S
C1960 C1943 1.574 . S
C1960 H1954 0.949 . S
C1960 C1964 1.368 . S
C1961 C1942 1.429 . S
C1961 C1955 1.429 . S
C1961 C1962 1.523 . S
C1962 C1943 1.368 . S
C1962 C1956 1.368 . S
C1962 C1961 1.523 . S
C1963 C1947 1.429 . S
C1963 C1959 1.429 . S
C1963 C1964 1.523 . S
C1964 C1948 1.368 . S
C1964 C1960 1.368 . S
C1964 C1963 1.523 . S
H1965 C1940 0.950 . S
H1966 C1942 0.950 . S
H1967 C1943 0.949 . S
H1968 C1945 0.950 . S
H1969 C1947 0.950 . S
C1970 C1971 1.349 . S
C1970 C1972 1.327 . S
C1970 H1995 0.950 . S
C1971 C1970 1.349 . S
C1971 C1987 1.349 . S
C1972 C1970 1.327 . S
C1972 C1991 1.429 . S
C1972 H1996 0.950 . S
C1973 C1990 1.574 . S
C1973 C1992 1.368 . S
C1973 H1997 0.949 . S
H1974 C1978 0.949 . S
C1975 C1976 1.349 . S
C1975 C1977 1.327 . S
C1975 H1998 0.950 . S
C1976 C1975 1.349 . S
C1976 C1988 1.349 . S
C1977 C1975 1.327 . S
C1977 C1993 1.429 . S
C1977 H1999 0.950 . S
C1978 H1974 0.949 . S
C1978 C1986 1.574 . S
C1978 C1994 1.368 . S
H1979 C1987 0.950 . S
H1980 C1985 0.950 . S
H1981 C1986 0.949 . S
H1982 C1988 0.950 . S
H1983 C1989 0.950 . S
H1984 C1990 0.949 . S
C1985 H1980 0.950 . S
C1985 C1987 1.327 . S
C1985 C1991 1.429 . S
C1986 C1978 1.574 . S
C1986 H1981 0.949 . S
C1986 C1992 1.368 . S
C1987 C1971 1.349 . S
C1987 H1979 0.950 . S
C1987 C1985 1.327 . S
C1988 C1976 1.349 . S
C1988 H1982 0.950 . S
C1988 C1989 1.327 . S
C1989 H1983 0.950 . S
C1989 C1988 1.327 . S
C1989 C1993 1.429 . S
C1990 C1973 1.574 . S
C1990 H1984 0.949 . S
C1990 C1994 1.368 . S
C1991 C1972 1.429 . S
C1991 C1985 1.429 . S
C1991 C1992 1.523 . S
C1992 C1973 1.368 . S
C1992 C1986 1.368 . S
C1992 C1991 1.523 . S
C1993 C1977 1.429 . S
C1993 C1989 1.429 . S
C1993 C1994 1.523 . S
C1994 C1978 1.368 . S
C1994 C1990 1.368 . S
C1994 C1993 1.523 . S
H1995 C1970 0.950 . S
H1996 C1972 0.950 . S
H1997 C1973 0.949 . S
H1998 C1975 0.950 . S
H1999 C1977 0.950 . S
C2000 C2001 1.349 . S
C2000 C2002 1.327 . S
C2000 H2025 0.950 . S
C2001 C2000 1.349 . S
C2001 C2017 1.349 . S
C2002 C2000 1.327 . S
C2002 C2021 1.429 . S
C2002 H2026 0.950 . S
C2003 C2020 1.574 . S
C2003 C2022 1.368 . S
C2003 H2027 0.949 . S
H2004 C2008 0.949 . S
C2005 C2006 1.349 . S
C2005 C2007 1.327 . S
C2005 H2028 0.950 . S
C2006 C2005 1.349 . S
C2006 C2018 1.349 . S
C2007 C2005 1.327 . S
C2007 C2023 1.429 . S
C2007 H2029 0.950 . S
C2008 H2004 0.949 . S
C2008 C2016 1.574 . S
C2008 C2024 1.368 . S
H2009 C2017 0.950 . S
H2010 C2015 0.950 . S
H2011 C2016 0.949 . S
H2012 C2018 0.950 . S
H2013 C2019 0.950 . S
H2014 C2020 0.949 . S
C2015 H2010 0.950 . S
C2015 C2017 1.327 . S
C2015 C2021 1.429 . S
C2016 C2008 1.574 . S
C2016 H2011 0.949 . S
C2016 C2022 1.368 . S
C2017 C2001 1.349 . S
C2017 H2009 0.950 . S
C2017 C2015 1.327 . S
C2018 C2006 1.349 . S
C2018 H2012 0.950 . S
C2018 C2019 1.327 . S
C2019 H2013 0.950 . S
C2019 C2018 1.327 . S
C2019 C2023 1.429 . S
C2020 C2003 1.574 . S
C2020 H2014 0.949 . S
C2020 C2024 1.368 . S
C2021 C2002 1.429 . S
C2021 C2015 1.429 . S
C2021 C2022 1.523 . S
C2022 C2003 1.368 . S
C2022 C2016 1.368 . S
C2022 C2021 1.523 . S
C2023 C2007 1.429 . S
C2023 C2019 1.429 . S
C2023 C2024 1.523 . S
C2024 C2008 1.368 . S
C2024 C2020 1.368 . S
C2024 C2023 1.523 . S
H2025 C2000 0.950 . S
H2026 C2002 0.950 . S
H2027 C2003 0.949 . S
H2028 C2005 0.950 . S
H2029 C2007 0.950 . S
C2030 C2031 1.349 . S
C2030 C2032 1.327 . S
C2030 H2055 0.950 . S
C2031 C2030 1.349 . S
C2031 C2047 1.349 . S
C2032 C2030 1.327 . S
C2032 C2051 1.429 . S
C2032 H2056 0.950 . S
C2033 C2050 1.574 . S
C2033 C2052 1.368 . S
C2033 H2057 0.949 . S
H2034 C2038 0.949 . S
C2035 C2036 1.349 . S
C2035 C2037 1.327 . S
C2035 H2058 0.950 . S
C2036 C2035 1.349 . S
C2036 C2048 1.349 . S
C2037 C2035 1.327 . S
C2037 C2053 1.429 . S
C2037 H2059 0.950 . S
C2038 H2034 0.949 . S
C2038 C2046 1.574 . S
C2038 C2054 1.368 . S
H2039 C2047 0.950 . S
H2040 C2045 0.950 . S
H2041 C2046 0.949 . S
H2042 C2048 0.950 . S
H2043 C2049 0.950 . S
H2044 C2050 0.949 . S
C2045 H2040 0.950 . S
C2045 C2047 1.327 . S
C2045 C2051 1.429 . S
C2046 C2038 1.574 . S
C2046 H2041 0.949 . S
C2046 C2052 1.368 . S
C2047 C2031 1.349 . S
C2047 H2039 0.950 . S
C2047 C2045 1.327 . S
C2048 C2036 1.349 . S
C2048 H2042 0.950 . S
C2048 C2049 1.327 . S
C2049 H2043 0.950 . S
C2049 C2048 1.327 . S
C2049 C2053 1.429 . S
C2050 C2033 1.574 . S
C2050 H2044 0.949 . S
C2050 C2054 1.368 . S
C2051 C2032 1.429 . S
C2051 C2045 1.429 . S
C2051 C2052 1.523 . S
C2052 C2033 1.368 . S
C2052 C2046 1.368 . S
C2052 C2051 1.523 . S
C2053 C2037 1.429 . S
C2053 C2049 1.429 . S
C2053 C2054 1.523 . S
C2054 C2038 1.368 . S
C2054 C2050 1.368 . S
C2054 C2053 1.523 . S
H2055 C2030 0.950 . S
H2056 C2032 0.950 . S
H2057 C2033 0.949 . S
H2058 C2035 0.950 . S
H2059 C2037 0.950 . S
C2060 C2061 1.349 . S
C2060 C2062 1.327 . S
C2060 H2085 0.950 . S
C2061 C2060 1.349 . S
C2061 C2077 1.349 . S
C2062 C2060 1.327 . S
C2062 C2081 1.429 . S
C2062 H2086 0.950 . S
C2063 C2080 1.574 . S
C2063 C2082 1.368 . S
C2063 H2087 0.949 . S
H2064 C2068 0.949 . S
C2065 C2066 1.349 . S
C2065 C2067 1.327 . S
C2065 H2088 0.950 . S
C2066 C2065 1.349 . S
C2066 C2078 1.349 . S
C2067 C2065 1.327 . S
C2067 C2083 1.429 . S
C2067 H2089 0.950 . S
C2068 H2064 0.949 . S
C2068 C2076 1.574 . S
C2068 C2084 1.368 . S
H2069 C2077 0.950 . S
H2070 C2075 0.950 . S
H2071 C2076 0.949 . S
H2072 C2078 0.950 . S
H2073 C2079 0.950 . S
H2074 C2080 0.949 . S
C2075 H2070 0.950 . S
C2075 C2077 1.327 . S
C2075 C2081 1.429 . S
C2076 C2068 1.574 . S
C2076 H2071 0.949 . S
C2076 C2082 1.368 . S
C2077 C2061 1.349 . S
C2077 H2069 0.950 . S
C2077 C2075 1.327 . S
C2078 C2066 1.349 . S
C2078 H2072 0.950 . S
C2078 C2079 1.327 . S
C2079 H2073 0.950 . S
C2079 C2078 1.327 . S
C2079 C2083 1.429 . S
C2080 C2063 1.574 . S
C2080 H2074 0.949 . S
C2080 C2084 1.368 . S
C2081 C2062 1.429 . S
C2081 C2075 1.429 . S
C2081 C2082 1.523 . S
C2082 C2063 1.368 . S
C2082 C2076 1.368 . S
C2082 C2081 1.523 . S
C2083 C2067 1.429 . S
C2083 C2079 1.429 . S
C2083 C2084 1.523 . S
C2084 C2068 1.368 . S
C2084 C2080 1.368 . S
C2084 C2083 1.523 . S
H2085 C2060 0.950 . S
H2086 C2062 0.950 . S
H2087 C2063 0.949 . S
H2088 C2065 0.950 . S
H2089 C2067 0.950 . S
C2090 C2091 1.349 . S
C2090 C2092 1.327 . S
C2090 H2115 0.950 . S
C2091 C2090 1.349 . S
C2091 C2107 1.349 . S
C2092 C2090 1.327 . S
C2092 C2111 1.429 . S
C2092 H2116 0.950 . S
C2093 C2110 1.574 . S
C2093 C2112 1.368 . S
C2093 H2117 0.949 . S
H2094 C2098 0.949 . S
C2095 C2096 1.349 . S
C2095 C2097 1.327 . S
C2095 H2118 0.950 . S
C2096 C2095 1.349 . S
C2096 C2108 1.349 . S
C2097 C2095 1.327 . S
C2097 C2113 1.429 . S
C2097 H2119 0.950 . S
C2098 H2094 0.949 . S
C2098 C2106 1.574 . S
C2098 C2114 1.368 . S
H2099 C2107 0.950 . S
H2100 C2105 0.950 . S
H2101 C2106 0.949 . S
H2102 C2108 0.950 . S
H2103 C2109 0.950 . S
H2104 C2110 0.949 . S
C2105 H2100 0.950 . S
C2105 C2107 1.327 . S
C2105 C2111 1.429 . S
C2106 C2098 1.574 . S
C2106 H2101 0.949 . S
C2106 C2112 1.368 . S
C2107 C2091 1.349 . S
C2107 H2099 0.950 . S
C2107 C2105 1.327 . S
C2108 C2096 1.349 . S
C2108 H2102 0.950 . S
C2108 C2109 1.327 . S
C2109 H2103 0.950 . S
C2109 C2108 1.327 . S
C2109 C2113 1.429 . S
C2110 C2093 1.574 . S
C2110 H2104 0.949 . S
C2110 C2114 1.368 . S
C2111 C2092 1.429 . S
C2111 C2105 1.429 . S
C2111 C2112 1.523 . S
C2112 C2093 1.368 . S
C2112 C2106 1.368 . S
C2112 C2111 1.523 . S
C2113 C2097 1.429 . S
C2113 C2109 1.429 . S
C2113 C2114 1.523 . S
C2114 C2098 1.368 . S
C2114 C2110 1.368 . S
C2114 C2113 1.523 . S
H2115 C2090 0.950 . S
H2116 C2092 0.950 . S
H2117 C2093 0.949 . S
H2118 C2095 0.950 . S
H2119 C2097 0.950 . S
C2120 C2121 1.349 . S
C2120 C2122 1.327 . S
C2120 H2145 0.950 . S
C2121 C2120 1.349 . S
C2121 C2137 1.349 . S
C2122 C2120 1.327 . S
C2122 C2141 1.429 . S
C2122 H2146 0.950 . S
C2123 C2140 1.574 . S
C2123 C2142 1.368 . S
C2123 H2147 0.949 . S
H2124 C2128 0.949 . S
C2125 C2126 1.349 . S
C2125 C2127 1.327 . S
C2125 H2148 0.950 . S
C2126 C2125 1.349 . S
C2126 C2138 1.349 . S
C2127 C2125 1.327 . S
C2127 C2143 1.429 . S
C2127 H2149 0.950 . S
C2128 H2124 0.949 . S
C2128 C2136 1.574 . S
C2128 C2144 1.368 . S
H2129 C2137 0.950 . S
H2130 C2135 0.950 . S
H2131 C2136 0.949 . S
H2132 C2138 0.950 . S
H2133 C2139 0.950 . S
H2134 C2140 0.949 . S
C2135 H2130 0.950 . S
C2135 C2137 1.327 . S
C2135 C2141 1.429 . S
C2136 C2128 1.574 . S
C2136 H2131 0.949 . S
C2136 C2142 1.368 . S
C2137 C2121 1.349 . S
C2137 H2129 0.950 . S
C2137 C2135 1.327 . S
C2138 C2126 1.349 . S
C2138 H2132 0.950 . S
C2138 C2139 1.327 . S
C2139 H2133 0.950 . S
C2139 C2138 1.327 . S
C2139 C2143 1.429 . S
C2140 C2123 1.574 . S
C2140 H2134 0.949 . S
C2140 C2144 1.368 . S
C2141 C2122 1.429 . S
C2141 C2135 1.429 . S
C2141 C2142 1.523 . S
C2142 C2123 1.368 . S
C2142 C2136 1.368 . S
C2142 C2141 1.523 . S
C2143 C2127 1.429 . S
C2143 C2139 1.429 . S
C2143 C2144 1.523 . S
C2144 C2128 1.368 . S
C2144 C2140 1.368 . S
C2144 C2143 1.523 . S
H2145 C2120 0.950 . S
H2146 C2122 0.950 . S
H2147 C2123 0.949 . S
H2148 C2125 0.950 . S
H2149 C2127 0.950 . S
C2150 C2151 1.349 . S
C2150 C2152 1.327 . S
C2150 H2175 0.950 . S
C2151 C2150 1.349 . S
C2151 C2167 1.349 . S
C2152 C2150 1.327 . S
C2152 C2171 1.429 . S
C2152 H2176 0.950 . S
C2153 C2170 1.574 . S
C2153 C2172 1.368 . S
C2153 H2177 0.949 . S
H2154 C2158 0.949 . S
C2155 C2156 1.349 . S
C2155 C2157 1.327 . S
C2155 H2178 0.950 . S
C2156 C2155 1.349 . S
C2156 C2168 1.349 . S
C2157 C2155 1.327 . S
C2157 C2173 1.429 . S
C2157 H2179 0.950 . S
C2158 H2154 0.949 . S
C2158 C2166 1.574 . S
C2158 C2174 1.368 . S
H2159 C2167 0.950 . S
H2160 C2165 0.950 . S
H2161 C2166 0.949 . S
H2162 C2168 0.950 . S
H2163 C2169 0.950 . S
H2164 C2170 0.949 . S
C2165 H2160 0.950 . S
C2165 C2167 1.327 . S
C2165 C2171 1.429 . S
C2166 C2158 1.574 . S
C2166 H2161 0.949 . S
C2166 C2172 1.368 . S
C2167 C2151 1.349 . S
C2167 H2159 0.950 . S
C2167 C2165 1.327 . S
C2168 C2156 1.349 . S
C2168 H2162 0.950 . S
C2168 C2169 1.327 . S
C2169 H2163 0.950 . S
C2169 C2168 1.327 . S
C2169 C2173 1.429 . S
C2170 C2153 1.574 . S
C2170 H2164 0.949 . S
C2170 C2174 1.368 . S
C2171 C2152 1.429 . S
C2171 C2165 1.429 . S
C2171 C2172 1.523 . S
C2172 C2153 1.368 . S
C2172 C2166 1.368 . S
C2172 C2171 1.523 . S
C2173 C2157 1.429 . S
C2173 C2169 1.429 . S
C2173 C2174 1.523 . S
C2174 C2158 1.368 . S
C2174 C2170 1.368 . S
C2174 C2173 1.523 . S
H2175 C2150 0.950 . S
H2176 C2152 0.950 . S
H2177 C2153 0.949 . S
H2178 C2155 0.950 . S
H2179 C2157 0.950 . S
C2180 C2181 1.349 . S
C2180 C2182 1.327 . S
C2180 H2205 0.950 . S
C2181 C2180 1.349 . S
C2181 C2197 1.349 . S
C2182 C2180 1.327 . S
C2182 C2201 1.429 . S
C2182 H2206 0.950 . S
C2183 C2200 1.574 . S
C2183 C2202 1.368 . S
C2183 H2207 0.949 . S
H2184 C2188 0.949 . S
C2185 C2186 1.349 . S
C2185 C2187 1.327 . S
C2185 H2208 0.950 . S
C2186 C2185 1.349 . S
C2186 C2198 1.349 . S
C2187 C2185 1.327 . S
C2187 C2203 1.429 . S
C2187 H2209 0.950 . S
C2188 H2184 0.949 . S
C2188 C2196 1.574 . S
C2188 C2204 1.368 . S
H2189 C2197 0.950 . S
H2190 C2195 0.950 . S
H2191 C2196 0.949 . S
H2192 C2198 0.950 . S
H2193 C2199 0.950 . S
H2194 C2200 0.949 . S
C2195 H2190 0.950 . S
C2195 C2197 1.327 . S
C2195 C2201 1.429 . S
C2196 C2188 1.574 . S
C2196 H2191 0.949 . S
C2196 C2202 1.368 . S
C2197 C2181 1.349 . S
C2197 H2189 0.950 . S
C2197 C2195 1.327 . S
C2198 C2186 1.349 . S
C2198 H2192 0.950 . S
C2198 C2199 1.327 . S
C2199 H2193 0.950 . S
C2199 C2198 1.327 . S
C2199 C2203 1.429 . S
C2200 C2183 1.574 . S
C2200 H2194 0.949 . S
C2200 C2204 1.368 . S
C2201 C2182 1.429 . S
C2201 C2195 1.429 . S
C2201 C2202 1.523 . S
C2202 C2183 1.368 . S
C2202 C2196 1.368 . S
C2202 C2201 1.523 . S
C2203 C2187 1.429 . S
C2203 C2199 1.429 . S
C2203 C2204 1.523 . S
C2204 C2188 1.368 . S
C2204 C2200 1.368 . S
C2204 C2203 1.523 . S
H2205 C2180 0.950 . S
H2206 C2182 0.950 . S
H2207 C2183 0.949 . S
H2208 C2185 0.950 . S
H2209 C2187 0.950 . S
C2210 C2211 1.349 . S
C2210 C2212 1.327 . S
C2210 H2235 0.950 . S
C2211 C2210 1.349 . S
C2211 C2227 1.349 . S
C2212 C2210 1.327 . S
C2212 C2231 1.429 . S
C2212 H2236 0.950 . S
C2213 C2230 1.574 . S
C2213 C2232 1.368 . S
C2213 H2237 0.949 . S
H2214 C2218 0.949 . S
C2215 C2216 1.349 . S
C2215 C2217 1.327 . S
C2215 H2238 0.950 . S
C2216 C2215 1.349 . S
C2216 C2228 1.349 . S
C2217 C2215 1.327 . S
C2217 C2233 1.429 . S
C2217 H2239 0.950 . S
C2218 H2214 0.949 . S
C2218 C2226 1.574 . S
C2218 C2234 1.368 . S
H2219 C2227 0.950 . S
H2220 C2225 0.950 . S
H2221 C2226 0.949 . S
H2222 C2228 0.950 . S
H2223 C2229 0.950 . S
H2224 C2230 0.949 . S
C2225 H2220 0.950 . S
C2225 C2227 1.327 . S
C2225 C2231 1.429 . S
C2226 C2218 1.574 . S
C2226 H2221 0.949 . S
C2226 C2232 1.368 . S
C2227 C2211 1.349 . S
C2227 H2219 0.950 . S
C2227 C2225 1.327 . S
C2228 C2216 1.349 . S
C2228 H2222 0.950 . S
C2228 C2229 1.327 . S
C2229 H2223 0.950 . S
C2229 C2228 1.327 . S
C2229 C2233 1.429 . S
C2230 C2213 1.574 . S
C2230 H2224 0.949 . S
C2230 C2234 1.368 . S
C2231 C2212 1.429 . S
C2231 C2225 1.429 . S
C2231 C2232 1.523 . S
C2232 C2213 1.368 . S
C2232 C2226 1.368 . S
C2232 C2231 1.523 . S
C2233 C2217 1.429 . S
C2233 C2229 1.429 . S
C2233 C2234 1.523 . S
C2234 C2218 1.368 . S
C2234 C2230 1.368 . S
C2234 C2233 1.523 . S
H2235 C2210 0.950 . S
H2236 C2212 0.950 . S
H2237 C2213 0.949 . S
H2238 C2215 0.950 . S
H2239 C2217 0.950 . S
C2240 C2241 1.349 . S
C2240 C2242 1.327 . S
C2240 H2265 0.950 . S
C2241 C2240 1.349 . S
C2241 C2257 1.349 . S
C2242 C2240 1.327 . S
C2242 C2261 1.429 . S
C2242 H2266 0.950 . S
C2243 C2260 1.574 1_455 S
C2243 C2262 1.368 . S
C2243 H2267 0.949 . S
H2244 C2248 0.949 . S
C2245 C2246 1.349 . S
C2245 C2247 1.327 . S
C2245 H2268 0.950 . S
C2246 C2245 1.349 . S
C2246 C2258 1.349 . S
C2247 C2245 1.327 . S
C2247 C2263 1.429 . S
C2247 H2269 0.950 . S
C2248 H2244 0.949 . S
C2248 C2256 1.574 1_655 S
C2248 C2264 1.368 . S
H2249 C2257 0.950 . S
H2250 C2255 0.950 . S
H2251 C2256 0.949 . S
H2252 C2258 0.950 . S
H2253 C2259 0.950 . S
H2254 C2260 0.949 . S
C2255 H2250 0.950 . S
C2255 C2257 1.327 . S
C2255 C2261 1.429 . S
C2256 C2248 1.574 1_455 S
C2256 H2251 0.949 . S
C2256 C2262 1.368 . S
C2257 C2241 1.349 . S
C2257 H2249 0.950 . S
C2257 C2255 1.327 . S
C2258 C2246 1.349 . S
C2258 H2252 0.950 . S
C2258 C2259 1.327 . S
C2259 H2253 0.950 . S
C2259 C2258 1.327 . S
C2259 C2263 1.429 . S
C2260 C2243 1.574 1_655 S
C2260 H2254 0.949 . S
C2260 C2264 1.368 . S
C2261 C2242 1.429 . S
C2261 C2255 1.429 . S
C2261 C2262 1.523 . S
C2262 C2243 1.368 . S
C2262 C2256 1.368 . S
C2262 C2261 1.523 . S
C2263 C2247 1.429 . S
C2263 C2259 1.429 . S
C2263 C2264 1.523 . S
C2264 C2248 1.368 . S
C2264 C2260 1.368 . S
C2264 C2263 1.523 . S
H2265 C2240 0.950 . S
H2266 C2242 0.950 . S
H2267 C2243 0.949 . S
H2268 C2245 0.950 . S
H2269 C2247 0.950 . S
C2270 C2271 1.349 . S
C2270 C2272 1.326 1_655 S
C2270 H2295 0.950 1_655 S
C2271 C2270 1.349 . S
C2271 C2287 1.349 . S
C2272 C2270 1.326 1_455 S
C2272 C2291 1.427 1_455 S
C2272 H2296 0.952 . S
C2273 C2290 1.574 . S
C2273 C2292 1.368 . S
C2273 H2297 0.949 . S
H2274 C2278 0.949 . S
C2275 C2276 1.349 . S
C2275 C2277 1.326 1_455 S
C2275 H2298 0.950 1_455 S
C2276 C2275 1.349 . S
C2276 C2288 1.349 . S
C2277 C2275 1.326 1_655 S
C2277 C2293 1.427 1_655 S
C2277 H2299 0.952 . S
C2278 H2274 0.949 . S
C2278 C2286 1.574 . S
C2278 C2294 1.368 . S
H2279 C2287 0.950 . S
H2280 C2285 0.950 . S
H2281 C2286 0.949 . S
H2282 C2288 0.950 . S
H2283 C2289 0.950 . S
H2284 C2290 0.949 . S
C2285 H2280 0.950 . S
C2285 C2287 1.327 . S
C2285 C2291 1.429 . S
C2286 C2278 1.574 . S
C2286 H2281 0.949 . S
C2286 C2292 1.368 1_455 S
C2287 C2271 1.349 . S
C2287 H2279 0.950 . S
C2287 C2285 1.327 . S
C2288 C2276 1.349 . S
C2288 H2282 0.950 . S
C2288 C2289 1.327 . S
C2289 H2283 0.950 . S
C2289 C2288 1.327 . S
C2289 C2293 1.429 . S
C2290 C2273 1.574 . S
C2290 H2284 0.949 . S
C2290 C2294 1.368 1_655 S
C2291 C2272 1.427 1_655 S
C2291 C2285 1.429 . S
C2291 C2292 1.523 . S
C2292 C2273 1.368 . S
C2292 C2286 1.368 1_655 S
C2292 C2291 1.523 . S
C2293 C2277 1.427 1_455 S
C2293 C2289 1.429 . S
C2293 C2294 1.523 . S
C2294 C2278 1.368 . S
C2294 C2290 1.368 1_455 S
C2294 C2293 1.523 . S
H2295 C2270 0.950 1_455 S
H2296 C2272 0.952 . S
H2297 C2273 0.949 . S
H2298 C2275 0.950 1_655 S
H2299 C2277 0.952 . S
C2300 C2301 1.349 . S
C2300 C2302 1.327 . S
C2300 H2325 0.950 . S
C2301 C2300 1.349 . S
C2301 C2317 1.349 . S
C2302 C2300 1.327 . S
C2302 C2321 1.429 . S
C2302 H2326 0.950 . S
C2303 C2320 1.574 . S
C2303 C2322 1.368 . S
C2303 H2327 0.949 . S
H2304 C2308 0.949 . S
C2305 C2306 1.349 . S
C2305 C2307 1.327 . S
C2305 H2328 0.950 . S
C2306 C2305 1.349 . S
C2306 C2318 1.349 . S
C2307 C2305 1.327 . S
C2307 C2323 1.429 . S
C2307 H2329 0.950 . S
C2308 H2304 0.949 . S
C2308 C2316 1.574 . S
C2308 C2324 1.368 . S
H2309 C2317 0.950 . S
H2310 C2315 0.950 . S
H2311 C2316 0.949 . S
H2312 C2318 0.950 . S
H2313 C2319 0.950 . S
H2314 C2320 0.949 . S
C2315 H2310 0.950 . S
C2315 C2317 1.327 . S
C2315 C2321 1.429 . S
C2316 C2308 1.574 . S
C2316 H2311 0.949 . S
C2316 C2322 1.368 . S
C2317 C2301 1.349 . S
C2317 H2309 0.950 . S
C2317 C2315 1.327 . S
C2318 C2306 1.349 . S
C2318 H2312 0.950 . S
C2318 C2319 1.327 . S
C2319 H2313 0.950 . S
C2319 C2318 1.327 . S
C2319 C2323 1.429 . S
C2320 C2303 1.574 . S
C2320 H2314 0.949 . S
C2320 C2324 1.368 . S
C2321 C2302 1.429 . S
C2321 C2315 1.429 . S
C2321 C2322 1.523 . S
C2322 C2303 1.368 . S
C2322 C2316 1.368 . S
C2322 C2321 1.523 . S
C2323 C2307 1.429 . S
C2323 C2319 1.429 . S
C2323 C2324 1.523 . S
C2324 C2308 1.368 . S
C2324 C2320 1.368 . S
C2324 C2323 1.523 . S
H2325 C2300 0.950 . S
H2326 C2302 0.950 . S
H2327 C2303 0.949 . S
H2328 C2305 0.950 . S
H2329 C2307 0.950 . S
C2330 C2331 1.349 . S
C2330 C2332 1.327 . S
C2330 H2355 0.950 . S
C2331 C2330 1.349 . S
C2331 C2347 1.349 . S
C2332 C2330 1.327 . S
C2332 C2351 1.429 . S
C2332 H2356 0.950 . S
C2333 C2350 1.574 . S
C2333 C2352 1.368 . S
C2333 H2357 0.949 . S
H2334 C2338 0.949 . S
C2335 C2336 1.349 . S
C2335 C2337 1.327 . S
C2335 H2358 0.950 . S
C2336 C2335 1.349 . S
C2336 C2348 1.349 . S
C2337 C2335 1.327 . S
C2337 C2353 1.429 . S
C2337 H2359 0.950 . S
C2338 H2334 0.949 . S
C2338 C2346 1.574 . S
C2338 C2354 1.368 . S
H2339 C2347 0.950 . S
H2340 C2345 0.950 . S
H2341 C2346 0.949 . S
H2342 C2348 0.950 . S
H2343 C2349 0.950 . S
H2344 C2350 0.949 . S
C2345 H2340 0.950 . S
C2345 C2347 1.327 . S
C2345 C2351 1.429 . S
C2346 C2338 1.574 . S
C2346 H2341 0.949 . S
C2346 C2352 1.368 . S
C2347 C2331 1.349 . S
C2347 H2339 0.950 . S
C2347 C2345 1.327 . S
C2348 C2336 1.349 . S
C2348 H2342 0.950 . S
C2348 C2349 1.327 . S
C2349 H2343 0.950 . S
C2349 C2348 1.327 . S
C2349 C2353 1.429 . S
C2350 C2333 1.574 . S
C2350 H2344 0.949 . S
C2350 C2354 1.368 . S
C2351 C2332 1.429 . S
C2351 C2345 1.429 . S
C2351 C2352 1.523 . S
C2352 C2333 1.368 . S
C2352 C2346 1.368 . S
C2352 C2351 1.523 . S
C2353 C2337 1.429 . S
C2353 C2349 1.429 . S
C2353 C2354 1.523 . S
C2354 C2338 1.368 . S
C2354 C2350 1.368 . S
C2354 C2353 1.523 . S
H2355 C2330 0.950 . S
H2356 C2332 0.950 . S
H2357 C2333 0.949 . S
H2358 C2335 0.950 . S
H2359 C2337 0.950 . S
C2360 C2361 1.349 . S
C2360 C2362 1.327 . S
C2360 H2385 0.950 . S
C2361 C2360 1.349 . S
C2361 C2377 1.349 . S
C2362 C2360 1.327 . S
C2362 C2381 1.429 . S
C2362 H2386 0.950 . S
C2363 C2380 1.574 1_655 S
C2363 C2382 1.368 . S
C2363 H2387 0.949 . S
H2364 C2368 0.949 . S
C2365 C2366 1.349 . S
C2365 C2367 1.327 . S
C2365 H2388 0.950 . S
C2366 C2365 1.349 . S
C2366 C2378 1.349 . S
C2367 C2365 1.327 . S
C2367 C2383 1.429 . S
C2367 H2389 0.950 . S
C2368 H2364 0.949 . S
C2368 C2376 1.574 1_455 S
C2368 C2384 1.368 . S
H2369 C2377 0.950 . S
H2370 C2375 0.950 . S
H2371 C2376 0.949 . S
H2372 C2378 0.950 . S
H2373 C2379 0.950 . S
H2374 C2380 0.949 . S
C2375 H2370 0.950 . S
C2375 C2377 1.327 . S
C2375 C2381 1.429 . S
C2376 C2368 1.574 1_655 S
C2376 H2371 0.949 . S
C2376 C2382 1.368 . S
C2377 C2361 1.349 . S
C2377 H2369 0.950 . S
C2377 C2375 1.327 . S
C2378 C2366 1.349 . S
C2378 H2372 0.950 . S
C2378 C2379 1.327 . S
C2379 H2373 0.950 . S
C2379 C2378 1.327 . S
C2379 C2383 1.429 . S
C2380 C2363 1.574 1_455 S
C2380 H2374 0.949 . S
C2380 C2384 1.368 . S
C2381 C2362 1.429 . S
C2381 C2375 1.429 . S
C2381 C2382 1.523 . S
C2382 C2363 1.368 . S
C2382 C2376 1.368 . S
C2382 C2381 1.523 . S
C2383 C2367 1.429 . S
C2383 C2379 1.429 . S
C2383 C2384 1.523 . S
C2384 C2368 1.368 . S
C2384 C2380 1.368 . S
C2384 C2383 1.523 . S
H2385 C2360 0.950 . S
H2386 C2362 0.950 . S
H2387 C2363 0.949 . S
H2388 C2365 0.950 . S
H2389 C2367 0.950 . S
C2390 C2391 1.349 . S
C2390 C2392 1.327 . S
C2390 H2415 0.950 . S
C2391 C2390 1.349 . S
C2391 C2407 1.349 . S
C2392 C2390 1.327 . S
C2392 C2411 1.429 . S
C2392 H2416 0.950 . S
C2393 C2410 1.574 . S
C2393 C2412 1.368 . S
C2393 H2417 0.949 . S
H2394 C2398 0.949 . S
C2395 C2396 1.349 . S
C2395 C2397 1.327 . S
C2395 H2418 0.950 . S
C2396 C2395 1.349 . S
C2396 C2408 1.349 . S
C2397 C2395 1.327 . S
C2397 C2413 1.429 . S
C2397 H2419 0.950 . S
C2398 H2394 0.949 . S
C2398 C2406 1.574 . S
C2398 C2414 1.368 . S
H2399 C2407 0.950 . S
H2400 C2405 0.950 . S
H2401 C2406 0.949 . S
H2402 C2408 0.950 . S
H2403 C2409 0.950 . S
H2404 C2410 0.949 . S
C2405 H2400 0.950 . S
C2405 C2407 1.327 . S
C2405 C2411 1.429 . S
C2406 C2398 1.574 . S
C2406 H2401 0.949 . S
C2406 C2412 1.368 . S
C2407 C2391 1.349 . S
C2407 H2399 0.950 . S
C2407 C2405 1.327 . S
C2408 C2396 1.349 . S
C2408 H2402 0.950 . S
C2408 C2409 1.327 . S
C2409 H2403 0.950 . S
C2409 C2408 1.327 . S
C2409 C2413 1.429 . S
C2410 C2393 1.574 . S
C2410 H2404 0.949 . S
C2410 C2414 1.368 . S
C2411 C2392 1.429 . S
C2411 C2405 1.429 . S
C2411 C2412 1.523 . S
C2412 C2393 1.368 . S
C2412 C2406 1.368 . S
C2412 C2411 1.523 . S
C2413 C2397 1.429 . S
C2413 C2409 1.429 . S
C2413 C2414 1.523 . S
C2414 C2398 1.368 . S
C2414 C2410 1.368 . S
C2414 C2413 1.523 . S
H2415 C2390 0.950 . S
H2416 C2392 0.950 . S
H2417 C2393 0.949 . S
H2418 C2395 0.950 . S
H2419 C2397 0.950 . S
C2420 C2421 1.349 . S
C2420 C2422 1.327 . S
C2420 H2445 0.950 . S
C2421 C2420 1.349 . S
C2421 C2437 1.349 . S
C2422 C2420 1.327 . S
C2422 C2441 1.429 . S
C2422 H2446 0.950 . S
C2423 C2440 1.574 . S
C2423 C2442 1.368 . S
C2423 H2447 0.949 . S
H2424 C2428 0.949 . S
C2425 C2426 1.349 . S
C2425 C2427 1.327 . S
C2425 H2448 0.950 . S
C2426 C2425 1.349 . S
C2426 C2438 1.349 . S
C2427 C2425 1.327 . S
C2427 C2443 1.429 . S
C2427 H2449 0.950 . S
C2428 H2424 0.949 . S
C2428 C2436 1.574 . S
C2428 C2444 1.368 . S
H2429 C2437 0.950 . S
H2430 C2435 0.950 . S
H2431 C2436 0.949 . S
H2432 C2438 0.950 . S
H2433 C2439 0.950 . S
H2434 C2440 0.949 . S
C2435 H2430 0.950 . S
C2435 C2437 1.327 . S
C2435 C2441 1.429 . S
C2436 C2428 1.574 . S
C2436 H2431 0.949 . S
C2436 C2442 1.368 . S
C2437 C2421 1.349 . S
C2437 H2429 0.950 . S
C2437 C2435 1.327 . S
C2438 C2426 1.349 . S
C2438 H2432 0.950 . S
C2438 C2439 1.327 . S
C2439 H2433 0.950 . S
C2439 C2438 1.327 . S
C2439 C2443 1.429 . S
C2440 C2423 1.574 . S
C2440 H2434 0.949 . S
C2440 C2444 1.368 . S
C2441 C2422 1.429 . S
C2441 C2435 1.429 . S
C2441 C2442 1.523 . S
C2442 C2423 1.368 . S
C2442 C2436 1.368 . S
C2442 C2441 1.523 . S
C2443 C2427 1.429 . S
C2443 C2439 1.429 . S
C2443 C2444 1.523 . S
C2444 C2428 1.368 . S
C2444 C2440 1.368 . S
C2444 C2443 1.523 . S
H2445 C2420 0.950 . S
H2446 C2422 0.950 . S
H2447 C2423 0.949 . S
H2448 C2425 0.950 . S
H2449 C2427 0.950 . S
C2450 C2451 1.349 . S
C2450 C2452 1.327 . S
C2450 H2475 0.950 . S
C2451 C2450 1.349 . S
C2451 C2467 1.349 . S
C2452 C2450 1.327 . S
C2452 C2471 1.429 . S
C2452 H2476 0.950 . S
C2453 C2470 1.574 . S
C2453 C2472 1.368 1_655 S
C2453 H2477 0.949 . S
H2454 C2458 0.949 . S
C2455 C2456 1.349 . S
C2455 C2457 1.327 . S
C2455 H2478 0.950 . S
C2456 C2455 1.349 . S
C2456 C2468 1.349 . S
C2457 C2455 1.327 . S
C2457 C2473 1.429 . S
C2457 H2479 0.950 . S
C2458 H2454 0.949 . S
C2458 C2466 1.574 . S
C2458 C2474 1.368 1_455 S
H2459 C2467 0.950 1_655 S
H2460 C2465 0.952 . S
H2461 C2466 0.949 . S
H2462 C2468 0.950 1_455 S
H2463 C2469 0.952 . S
H2464 C2470 0.949 . S
C2465 H2460 0.952 . S
C2465 C2467 1.326 1_655 S
C2465 C2471 1.427 1_655 S
C2466 C2458 1.574 . S
C2466 H2461 0.949 . S
C2466 C2472 1.368 . S
C2467 C2451 1.349 . S
C2467 H2459 0.950 1_455 S
C2467 C2465 1.326 1_455 S
C2468 C2456 1.349 . S
C2468 H2462 0.950 1_655 S
C2468 C2469 1.326 1_655 S
C2469 H2463 0.952 . S
C2469 C2468 1.326 1_455 S
C2469 C2473 1.427 1_455 S
C2470 C2453 1.574 . S
C2470 H2464 0.949 . S
C2470 C2474 1.368 . S
C2471 C2452 1.429 . S
C2471 C2465 1.427 1_455 S
C2471 C2472 1.523 . S
C2472 C2453 1.368 1_455 S
C2472 C2466 1.368 . S
C2472 C2471 1.523 . S
C2473 C2457 1.429 . S
C2473 C2469 1.427 1_655 S
C2473 C2474 1.523 . S
C2474 C2458 1.368 1_655 S
C2474 C2470 1.368 . S
C2474 C2473 1.523 . S
H2475 C2450 0.950 . S
H2476 C2452 0.950 . S
H2477 C2453 0.949 . S
H2478 C2455 0.950 . S
H2479 C2457 0.950 . S
C2480 C2481 1.349 . S
C2480 C2482 1.327 . S
C2480 H2505 0.950 . S
C2481 C2480 1.349 . S
C2481 C2497 1.349 . S
C2482 C2480 1.327 . S
C2482 C2501 1.429 . S
C2482 H2506 0.950 . S
C2483 C2500 1.574 1_455 S
C2483 C2502 1.368 . S
C2483 H2507 0.949 . S
H2484 C2488 0.949 . S
C2485 C2486 1.349 . S
C2485 C2487 1.327 . S
C2485 H2508 0.950 . S
C2486 C2485 1.349 . S
C2486 C2498 1.349 . S
C2487 C2485 1.327 . S
C2487 C2503 1.429 . S
C2487 H2509 0.950 . S
C2488 H2484 0.949 . S
C2488 C2496 1.574 1_655 S
C2488 C2504 1.368 . S
H2489 C2497 0.950 . S
H2490 C2495 0.950 . S
H2491 C2496 0.949 . S
H2492 C2498 0.950 . S
H2493 C2499 0.950 . S
H2494 C2500 0.949 . S
C2495 H2490 0.950 . S
C2495 C2497 1.327 . S
C2495 C2501 1.429 . S
C2496 C2488 1.574 1_455 S
C2496 H2491 0.949 . S
C2496 C2502 1.368 . S
C2497 C2481 1.349 . S
C2497 H2489 0.950 . S
C2497 C2495 1.327 . S
C2498 C2486 1.349 . S
C2498 H2492 0.950 . S
C2498 C2499 1.327 . S
C2499 H2493 0.950 . S
C2499 C2498 1.327 . S
C2499 C2503 1.429 . S
C2500 C2483 1.574 1_655 S
C2500 H2494 0.949 . S
C2500 C2504 1.368 . S
C2501 C2482 1.429 . S
C2501 C2495 1.429 . S
C2501 C2502 1.523 . S
C2502 C2483 1.368 . S
C2502 C2496 1.368 . S
C2502 C2501 1.523 . S
C2503 C2487 1.429 . S
C2503 C2499 1.429 . S
C2503 C2504 1.523 . S
C2504 C2488 1.368 . S
C2504 C2500 1.368 . S
C2504 C2503 1.523 . S
H2505 C2480 0.950 . S
H2506 C2482 0.950 . S
H2507 C2483 0.949 . S
H2508 C2485 0.950 . S
H2509 C2487 0.950 . S
C2510 C2511 1.349 . S
C2510 C2512 1.326 1_655 S
C2510 H2535 0.950 1_655 S
C2511 C2510 1.349 . S
C2511 C2527 1.349 . S
C2512 C2510 1.326 1_455 S
C2512 C2531 1.427 1_455 S
C2512 H2536 0.952 . S
C2513 C2530 1.574 . S
C2513 C2532 1.368 . S
C2513 H2537 0.949 . S
H2514 C2518 0.949 . S
C2515 C2516 1.349 . S
C2515 C2517 1.326 1_455 S
C2515 H2538 0.950 1_455 S
C2516 C2515 1.349 . S
C2516 C2528 1.349 . S
C2517 C2515 1.326 1_655 S
C2517 C2533 1.427 1_655 S
C2517 H2539 0.952 . S
C2518 H2514 0.949 . S
C2518 C2526 1.574 . S
C2518 C2534 1.368 . S
H2519 C2527 0.950 . S
H2520 C2525 0.950 . S
H2521 C2526 0.949 . S
H2522 C2528 0.950 . S
H2523 C2529 0.950 . S
H2524 C2530 0.949 . S
C2525 H2520 0.950 . S
C2525 C2527 1.327 . S
C2525 C2531 1.429 . S
C2526 C2518 1.574 . S
C2526 H2521 0.949 . S
C2526 C2532 1.368 1_455 S
C2527 C2511 1.349 . S
C2527 H2519 0.950 . S
C2527 C2525 1.327 . S
C2528 C2516 1.349 . S
C2528 H2522 0.950 . S
C2528 C2529 1.327 . S
C2529 H2523 0.950 . S
C2529 C2528 1.327 . S
C2529 C2533 1.429 . S
C2530 C2513 1.574 . S
C2530 H2524 0.949 . S
C2530 C2534 1.368 1_655 S
C2531 C2512 1.427 1_655 S
C2531 C2525 1.429 . S
C2531 C2532 1.523 . S
C2532 C2513 1.368 . S
C2532 C2526 1.368 1_655 S
C2532 C2531 1.523 . S
C2533 C2517 1.427 1_455 S
C2533 C2529 1.429 . S
C2533 C2534 1.523 . S
C2534 C2518 1.368 . S
C2534 C2530 1.368 1_455 S
C2534 C2533 1.523 . S
H2535 C2510 0.950 1_455 S
H2536 C2512 0.952 . S
H2537 C2513 0.949 . S
H2538 C2515 0.950 1_655 S
H2539 C2517 0.952 . S
C2540 C2541 1.349 . S
C2540 C2542 1.327 . S
C2540 H2565 0.950 . S
C2541 C2540 1.349 . S
C2541 C2557 1.349 . S
C2542 C2540 1.327 . S
C2542 C2561 1.429 . S
C2542 H2566 0.950 . S
C2543 C2560 1.574 . S
C2543 C2562 1.368 . S
C2543 H2567 0.949 . S
H2544 C2548 0.949 . S
C2545 C2546 1.349 . S
C2545 C2547 1.327 . S
C2545 H2568 0.950 . S
C2546 C2545 1.349 . S
C2546 C2558 1.349 . S
C2547 C2545 1.327 . S
C2547 C2563 1.429 . S
C2547 H2569 0.950 . S
C2548 H2544 0.949 . S
C2548 C2556 1.574 . S
C2548 C2564 1.368 . S
H2549 C2557 0.950 . S
H2550 C2555 0.950 . S
H2551 C2556 0.949 . S
H2552 C2558 0.950 . S
H2553 C2559 0.950 . S
H2554 C2560 0.949 . S
C2555 H2550 0.950 . S
C2555 C2557 1.327 . S
C2555 C2561 1.429 . S
C2556 C2548 1.574 . S
C2556 H2551 0.949 . S
C2556 C2562 1.368 . S
C2557 C2541 1.349 . S
C2557 H2549 0.950 . S
C2557 C2555 1.327 . S
C2558 C2546 1.349 . S
C2558 H2552 0.950 . S
C2558 C2559 1.327 . S
C2559 H2553 0.950 . S
C2559 C2558 1.327 . S
C2559 C2563 1.429 . S
C2560 C2543 1.574 . S
C2560 H2554 0.949 . S
C2560 C2564 1.368 . S
C2561 C2542 1.429 . S
C2561 C2555 1.429 . S
C2561 C2562 1.523 . S
C2562 C2543 1.368 . S
C2562 C2556 1.368 . S
C2562 C2561 1.523 . S
C2563 C2547 1.429 . S
C2563 C2559 1.429 . S
C2563 C2564 1.523 . S
C2564 C2548 1.368 . S
C2564 C2560 1.368 . S
C2564 C2563 1.523 . S
H2565 C2540 0.950 . S
H2566 C2542 0.950 . S
H2567 C2543 0.949 . S
H2568 C2545 0.950 . S
H2569 C2547 0.950 . S
C2570 C2571 1.349 . S
C2570 C2572 1.327 . S
C2570 H2595 0.950 . S
C2571 C2570 1.349 . S
C2571 C2587 1.349 . S
C2572 C2570 1.327 . S
C2572 C2591 1.429 . S
C2572 H2596 0.950 . S
C2573 C2590 1.574 . S
C2573 C2592 1.368 . S
C2573 H2597 0.949 . S
H2574 C2578 0.949 . S
C2575 C2576 1.349 . S
C2575 C2577 1.327 . S
C2575 H2598 0.950 . S
C2576 C2575 1.349 . S
C2576 C2588 1.349 . S
C2577 C2575 1.327 . S
C2577 C2593 1.429 . S
C2577 H2599 0.950 . S
C2578 H2574 0.949 . S
C2578 C2586 1.574 . S
C2578 C2594 1.368 . S
H2579 C2587 0.950 . S
H2580 C2585 0.950 . S
H2581 C2586 0.949 . S
H2582 C2588 0.950 . S
H2583 C2589 0.950 . S
H2584 C2590 0.949 . S
C2585 H2580 0.950 . S
C2585 C2587 1.327 . S
C2585 C2591 1.429 . S
C2586 C2578 1.574 . S
C2586 H2581 0.949 . S
C2586 C2592 1.368 . S
C2587 C2571 1.349 . S
C2587 H2579 0.950 . S
C2587 C2585 1.327 . S
C2588 C2576 1.349 . S
C2588 H2582 0.950 . S
C2588 C2589 1.327 . S
C2589 H2583 0.950 . S
C2589 C2588 1.327 . S
C2589 C2593 1.429 . S
C2590 C2573 1.574 . S
C2590 H2584 0.949 . S
C2590 C2594 1.368 . S
C2591 C2572 1.429 . S
C2591 C2585 1.429 . S
C2591 C2592 1.523 . S
C2592 C2573 1.368 . S
C2592 C2586 1.368 . S
C2592 C2591 1.523 . S
C2593 C2577 1.429 . S
C2593 C2589 1.429 . S
C2593 C2594 1.523 . S
C2594 C2578 1.368 . S
C2594 C2590 1.368 . S
C2594 C2593 1.523 . S
H2595 C2570 0.950 . S
H2596 C2572 0.950 . S
H2597 C2573 0.949 . S
H2598 C2575 0.950 . S
H2599 C2577 0.950 . S
C2600 C2601 1.349 . S
C2600 C2602 1.327 . S
C2600 H2625 0.950 . S
C2601 C2600 1.349 . S
C2601 C2617 1.349 . S
C2602 C2600 1.327 . S
C2602 C2621 1.429 . S
C2602 H2626 0.950 . S
C2603 C2620 1.574 1_455 S
C2603 C2622 1.368 . S
C2603 H2627 0.949 . S
H2604 C2608 0.949 . S
C2605 C2606 1.349 . S
C2605 C2607 1.327 . S
C2605 H2628 0.950 . S
C2606 C2605 1.349 . S
C2606 C2618 1.349 . S
C2607 C2605 1.327 . S
C2607 C2623 1.429 . S
C2607 H2629 0.950 . S
C2608 H2604 0.949 . S
C2608 C2616 1.574 1_655 S
C2608 C2624 1.368 . S
H2609 C2617 0.950 . S
H2610 C2615 0.950 . S
H2611 C2616 0.949 . S
H2612 C2618 0.950 . S
H2613 C2619 0.950 . S
H2614 C2620 0.949 . S
C2615 H2610 0.950 . S
C2615 C2617 1.327 . S
C2615 C2621 1.429 . S
C2616 C2608 1.574 1_455 S
C2616 H2611 0.949 . S
C2616 C2622 1.368 . S
C2617 C2601 1.349 . S
C2617 H2609 0.950 . S
C2617 C2615 1.327 . S
C2618 C2606 1.349 . S
C2618 H2612 0.950 . S
C2618 C2619 1.327 . S
C2619 H2613 0.950 . S
C2619 C2618 1.327 . S
C2619 C2623 1.429 . S
C2620 C2603 1.574 1_655 S
C2620 H2614 0.949 . S
C2620 C2624 1.368 . S
C2621 C2602 1.429 . S
C2621 C2615 1.429 . S
C2621 C2622 1.523 . S
C2622 C2603 1.368 . S
C2622 C2616 1.368 . S
C2622 C2621 1.523 . S
C2623 C2607 1.429 . S
C2623 C2619 1.429 . S
C2623 C2624 1.523 . S
C2624 C2608 1.368 . S
C2624 C2620 1.368 . S
C2624 C2623 1.523 . S
H2625 C2600 0.950 . S
H2626 C2602 0.950 . S
H2627 C2603 0.949 . S
H2628 C2605 0.950 . S
H2629 C2607 0.950 . S
C2630 C2631 1.349 . S
C2630 C2632 1.327 . S
C2630 H2655 0.950 . S
C2631 C2630 1.349 . S
C2631 C2647 1.349 . S
C2632 C2630 1.327 . S
C2632 C2651 1.429 . S
C2632 H2656 0.950 . S
C2633 C2650 1.574 . S
C2633 C2652 1.368 . S
C2633 H2657 0.949 . S
H2634 C2638 0.949 . S
C2635 C2636 1.349 . S
C2635 C2637 1.327 . S
C2635 H2658 0.950 . S
C2636 C2635 1.349 . S
C2636 C2648 1.349 . S
C2637 C2635 1.327 . S
C2637 C2653 1.429 . S
C2637 H2659 0.950 . S
C2638 H2634 0.949 . S
C2638 C2646 1.574 . S
C2638 C2654 1.368 . S
H2639 C2647 0.950 . S
H2640 C2645 0.950 . S
H2641 C2646 0.949 . S
H2642 C2648 0.950 . S
H2643 C2649 0.950 . S
H2644 C2650 0.949 . S
C2645 H2640 0.950 . S
C2645 C2647 1.327 . S
C2645 C2651 1.429 . S
C2646 C2638 1.574 . S
C2646 H2641 0.949 . S
C2646 C2652 1.368 . S
C2647 C2631 1.349 . S
C2647 H2639 0.950 . S
C2647 C2645 1.327 . S
C2648 C2636 1.349 . S
C2648 H2642 0.950 . S
C2648 C2649 1.327 . S
C2649 H2643 0.950 . S
C2649 C2648 1.327 . S
C2649 C2653 1.429 . S
C2650 C2633 1.574 . S
C2650 H2644 0.949 . S
C2650 C2654 1.368 . S
C2651 C2632 1.429 . S
C2651 C2645 1.429 . S
C2651 C2652 1.523 . S
C2652 C2633 1.368 . S
C2652 C2646 1.368 . S
C2652 C2651 1.523 . S
C2653 C2637 1.429 . S
C2653 C2649 1.429 . S
C2653 C2654 1.523 . S
C2654 C2638 1.368 . S
C2654 C2650 1.368 . S
C2654 C2653 1.523 . S
H2655 C2630 0.950 . S
H2656 C2632 0.950 . S
H2657 C2633 0.949 . S
H2658 C2635 0.950 . S
H2659 C2637 0.950 . S
C2660 C2661 1.349 . S
C2660 C2662 1.327 . S
C2660 H2685 0.950 . S
C2661 C2660 1.349 . S
C2661 C2677 1.349 . S
C2662 C2660 1.327 . S
C2662 C2681 1.429 . S
C2662 H2686 0.950 . S
C2663 C2680 1.574 . S
C2663 C2682 1.368 . S
C2663 H2687 0.949 . S
H2664 C2668 0.949 . S
C2665 C2666 1.349 . S
C2665 C2667 1.327 . S
C2665 H2688 0.950 . S
C2666 C2665 1.349 . S
C2666 C2678 1.349 . S
C2667 C2665 1.327 . S
C2667 C2683 1.429 . S
C2667 H2689 0.950 . S
C2668 H2664 0.949 . S
C2668 C2676 1.574 . S
C2668 C2684 1.368 . S
H2669 C2677 0.950 . S
H2670 C2675 0.950 . S
H2671 C2676 0.949 . S
H2672 C2678 0.950 . S
H2673 C2679 0.950 . S
H2674 C2680 0.949 . S
C2675 H2670 0.950 . S
C2675 C2677 1.327 . S
C2675 C2681 1.429 . S
C2676 C2668 1.574 . S
C2676 H2671 0.949 . S
C2676 C2682 1.368 . S
C2677 C2661 1.349 . S
C2677 H2669 0.950 . S
C2677 C2675 1.327 . S
C2678 C2666 1.349 . S
C2678 H2672 0.950 . S
C2678 C2679 1.327 . S
C2679 H2673 0.950 . S
C2679 C2678 1.327 . S
C2679 C2683 1.429 . S
C2680 C2663 1.574 . S
C2680 H2674 0.949 . S
C2680 C2684 1.368 . S
C2681 C2662 1.429 . S
C2681 C2675 1.429 . S
C2681 C2682 1.523 . S
C2682 C2663 1.368 . S
C2682 C2676 1.368 . S
C2682 C2681 1.523 . S
C2683 C2667 1.429 . S
C2683 C2679 1.429 . S
C2683 C2684 1.523 . S
C2684 C2668 1.368 . S
C2684 C2680 1.368 . S
C2684 C2683 1.523 . S
H2685 C2660 0.950 . S
H2686 C2662 0.950 . S
H2687 C2663 0.949 . S
H2688 C2665 0.950 . S
H2689 C2667 0.950 . S
C2690 C2691 1.349 . S
C2690 C2692 1.326 1_655 S
C2690 H2715 0.950 1_655 S
C2691 C2690 1.349 . S
C2691 C2707 1.349 . S
C2692 C2690 1.326 1_455 S
C2692 C2711 1.427 1_455 S
C2692 H2716 0.952 . S
C2693 C2710 1.574 . S
C2693 C2712 1.368 . S
C2693 H2717 0.949 . S
H2694 C2698 0.949 . S
C2695 C2696 1.349 . S
C2695 C2697 1.326 1_455 S
C2695 H2718 0.950 1_455 S
C2696 C2695 1.349 . S
C2696 C2708 1.349 . S
C2697 C2695 1.326 1_655 S
C2697 C2713 1.427 1_655 S
C2697 H2719 0.952 . S
C2698 H2694 0.949 . S
C2698 C2706 1.574 . S
C2698 C2714 1.368 . S
H2699 C2707 0.950 . S
H2700 C2705 0.950 . S
H2701 C2706 0.949 . S
H2702 C2708 0.950 . S
H2703 C2709 0.950 . S
H2704 C2710 0.949 . S
C2705 H2700 0.950 . S
C2705 C2707 1.327 . S
C2705 C2711 1.429 . S
C2706 C2698 1.574 . S
C2706 H2701 0.949 . S
C2706 C2712 1.368 1_455 S
C2707 C2691 1.349 . S
C2707 H2699 0.950 . S
C2707 C2705 1.327 . S
C2708 C2696 1.349 . S
C2708 H2702 0.950 . S
C2708 C2709 1.327 . S
C2709 H2703 0.950 . S
C2709 C2708 1.327 . S
C2709 C2713 1.429 . S
C2710 C2693 1.574 . S
C2710 H2704 0.949 . S
C2710 C2714 1.368 1_655 S
C2711 C2692 1.427 1_655 S
C2711 C2705 1.429 . S
C2711 C2712 1.523 . S
C2712 C2693 1.368 . S
C2712 C2706 1.368 1_655 S
C2712 C2711 1.523 . S
C2713 C2697 1.427 1_455 S
C2713 C2709 1.429 . S
C2713 C2714 1.523 . S
C2714 C2698 1.368 . S
C2714 C2710 1.368 1_455 S
C2714 C2713 1.523 . S
H2715 C2690 0.950 1_455 S
H2716 C2692 0.952 . S
H2717 C2693 0.949 . S
H2718 C2695 0.950 1_655 S
H2719 C2697 0.952 . S
C2720 C2721 1.349 . S
C2720 C2722 1.327 . S
C2720 H2745 0.950 . S
C2721 C2720 1.349 . S
C2721 C2737 1.349 . S
C2722 C2720 1.327 . S
C2722 C2741 1.429 . S
C2722 H2746 0.950 . S
C2723 C2740 1.574 . S
C2723 C2742 1.368 . S
C2723 H2747 0.949 . S
H2724 C2728 0.949 . S
C2725 C2726 1.349 . S
C2725 C2727 1.327 . S
C2725 H2748 0.950 . S
C2726 C2725 1.349 . S
C2726 C2738 1.349 . S
C2727 C2725 1.327 . S
C2727 C2743 1.429 . S
C2727 H2749 0.950 . S
C2728 H2724 0.949 . S
C2728 C2736 1.574 . S
C2728 C2744 1.368 . S
H2729 C2737 0.950 . S
H2730 C2735 0.950 . S
H2731 C2736 0.949 . S
H2732 C2738 0.950 . S
H2733 C2739 0.950 . S
H2734 C2740 0.949 . S
C2735 H2730 0.950 . S
C2735 C2737 1.327 . S
C2735 C2741 1.429 . S
C2736 C2728 1.574 . S
C2736 H2731 0.949 . S
C2736 C2742 1.368 . S
C2737 C2721 1.349 . S
C2737 H2729 0.950 . S
C2737 C2735 1.327 . S
C2738 C2726 1.349 . S
C2738 H2732 0.950 . S
C2738 C2739 1.327 . S
C2739 H2733 0.950 . S
C2739 C2738 1.327 . S
C2739 C2743 1.429 . S
C2740 C2723 1.574 . S
C2740 H2734 0.949 . S
C2740 C2744 1.368 . S
C2741 C2722 1.429 . S
C2741 C2735 1.429 . S
C2741 C2742 1.523 . S
C2742 C2723 1.368 . S
C2742 C2736 1.368 . S
C2742 C2741 1.523 . S
C2743 C2727 1.429 . S
C2743 C2739 1.429 . S
C2743 C2744 1.523 . S
C2744 C2728 1.368 . S
C2744 C2740 1.368 . S
C2744 C2743 1.523 . S
H2745 C2720 0.950 . S
H2746 C2722 0.950 . S
H2747 C2723 0.949 . S
H2748 C2725 0.950 . S
H2749 C2727 0.950 . S
C2750 C2751 1.349 . S
C2750 C2752 1.327 1_655 S
C2750 H2775 0.950 1_655 S
C2751 C2750 1.349 . S
C2751 C2767 1.349 . S
C2752 C2750 1.327 1_455 S
C2752 C2771 1.429 1_455 S
C2752 H2776 0.950 . S
C2753 C2770 1.574 . S
C2753 C2772 1.368 1_565 S
C2753 H2777 0.949 . S
H2754 C2758 0.949 . S
C2755 C2756 1.349 . S
C2755 C2757 1.327 1_455 S
C2755 H2778 0.950 1_455 S
C2756 C2755 1.349 . S
C2756 C2768 1.349 . S
C2757 C2755 1.327 1_655 S
C2757 C2773 1.429 1_655 S
C2757 H2779 0.950 . S
C2758 H2754 0.949 . S
C2758 C2766 1.574 . S
C2758 C2774 1.368 1_545 S
H2759 C2767 0.950 . S
H2760 C2765 0.950 1_565 S
H2761 C2766 0.949 . S
H2762 C2768 0.950 . S
H2763 C2769 0.950 1_545 S
H2764 C2770 0.949 . S
C2765 H2760 0.950 1_545 S
C2765 C2767 1.327 . S
C2765 C2771 1.429 . S
C2766 C2758 1.574 . S
C2766 H2761 0.949 . S
C2766 C2772 1.368 1_455 S
C2767 C2751 1.349 . S
C2767 H2759 0.950 . S
C2767 C2765 1.327 . S
C2768 C2756 1.349 . S
C2768 H2762 0.950 . S
C2768 C2769 1.327 . S
C2769 H2763 0.950 1_565 S
C2769 C2768 1.327 . S
C2769 C2773 1.429 . S
C2770 C2753 1.574 . S
C2770 H2764 0.949 . S
C2770 C2774 1.368 1_655 S
C2771 C2752 1.429 1_655 S
C2771 C2765 1.429 . S
C2771 C2772 1.523 . S
C2772 C2753 1.368 1_545 S
C2772 C2766 1.368 1_655 S
C2772 C2771 1.523 . S
C2773 C2757 1.429 1_455 S
C2773 C2769 1.429 . S
C2773 C2774 1.523 . S
C2774 C2758 1.368 1_565 S
C2774 C2770 1.368 1_455 S
C2774 C2773 1.523 . S
H2775 C2750 0.950 1_455 S
H2776 C2752 0.950 . S
H2777 C2753 0.949 . S
H2778 C2755 0.950 1_655 S
H2779 C2757 0.950 . S
C2780 C2781 1.349 . S
C2780 C2782 1.327 . S
C2780 H2805 0.950 . S
C2781 C2780 1.349 . S
C2781 C2797 1.349 . S
C2782 C2780 1.327 . S
C2782 C2801 1.429 . S
C2782 H2806 0.950 . S
C2783 C2800 1.574 . S
C2783 C2802 1.368 . S
C2783 H2807 0.949 . S
H2784 C2788 0.949 . S
C2785 C2786 1.349 . S
C2785 C2787 1.327 . S
C2785 H2808 0.950 . S
C2786 C2785 1.349 . S
C2786 C2798 1.349 . S
C2787 C2785 1.327 . S
C2787 C2803 1.429 . S
C2787 H2809 0.950 . S
C2788 H2784 0.949 . S
C2788 C2796 1.574 . S
C2788 C2804 1.368 . S
H2789 C2797 0.950 . S
H2790 C2795 0.950 . S
H2791 C2796 0.949 . S
H2792 C2798 0.950 . S
H2793 C2799 0.950 . S
H2794 C2800 0.949 . S
C2795 H2790 0.950 . S
C2795 C2797 1.327 . S
C2795 C2801 1.429 . S
C2796 C2788 1.574 . S
C2796 H2791 0.949 . S
C2796 C2802 1.368 . S
C2797 C2781 1.349 . S
C2797 H2789 0.950 . S
C2797 C2795 1.327 . S
C2798 C2786 1.349 . S
C2798 H2792 0.950 . S
C2798 C2799 1.327 . S
C2799 H2793 0.950 . S
C2799 C2798 1.327 . S
C2799 C2803 1.429 . S
C2800 C2783 1.574 . S
C2800 H2794 0.949 . S
C2800 C2804 1.368 . S
C2801 C2782 1.429 . S
C2801 C2795 1.429 . S
C2801 C2802 1.523 . S
C2802 C2783 1.368 . S
C2802 C2796 1.368 . S
C2802 C2801 1.523 . S
C2803 C2787 1.429 . S
C2803 C2799 1.429 . S
C2803 C2804 1.523 . S
C2804 C2788 1.368 . S
C2804 C2800 1.368 . S
C2804 C2803 1.523 . S
H2805 C2780 0.950 . S
H2806 C2782 0.950 . S
H2807 C2783 0.949 . S
H2808 C2785 0.950 . S
H2809 C2787 0.950 . S
C2810 C2811 1.325 1_565 S
C2810 C2812 1.334 . S
C2810 H2835 0.968 . S
C2811 C2810 1.325 1_545 S
C2811 C2827 1.349 . S
C2812 C2810 1.334 . S
C2812 C2831 1.429 1_565 S
C2812 H2836 0.950 . S
C2813 C2830 1.574 1_554 S
C2813 C2832 1.368 . S
C2813 H2837 0.949 . S
H2814 C2818 0.949 . S
C2815 C2816 1.325 1_545 S
C2815 C2817 1.334 . S
C2815 H2838 0.968 . S
C2816 C2815 1.325 1_565 S
C2816 C2828 1.349 . S
C2817 C2815 1.334 . S
C2817 C2833 1.429 1_545 S
C2817 H2839 0.950 . S
C2818 H2814 0.949 . S
C2818 C2826 1.574 1_556 S
C2818 C2834 1.368 . S
H2819 C2827 0.950 . S
H2820 C2825 0.950 . S
H2821 C2826 0.949 . S
H2822 C2828 0.950 . S
H2823 C2829 0.950 . S
H2824 C2830 0.949 . S
C2825 H2820 0.950 . S
C2825 C2827 1.327 . S
C2825 C2831 1.429 . S
C2826 C2818 1.574 1_554 S
C2826 H2821 0.949 . S
C2826 C2832 1.368 1_565 S
C2827 C2811 1.349 . S
C2827 H2819 0.950 . S
C2827 C2825 1.327 . S
C2828 C2816 1.349 . S
C2828 H2822 0.950 . S
C2828 C2829 1.327 . S
C2829 H2823 0.950 . S
C2829 C2828 1.327 . S
C2829 C2833 1.429 . S
C2830 C2813 1.574 1_556 S
C2830 H2824 0.949 . S
C2830 C2834 1.368 1_545 S
C2831 C2812 1.429 1_545 S
C2831 C2825 1.429 . S
C2831 C2832 1.523 . S
C2832 C2813 1.368 . S
C2832 C2826 1.368 1_545 S
C2832 C2831 1.523 . S
C2833 C2817 1.429 1_565 S
C2833 C2829 1.429 . S
C2833 C2834 1.523 . S
C2834 C2818 1.368 . S
C2834 C2830 1.368 1_565 S
C2834 C2833 1.523 . S
H2835 C2810 0.968 . S
H2836 C2812 0.950 . S
H2837 C2813 0.949 . S
H2838 C2815 0.968 . S
H2839 C2817 0.950 . S
C2840 C2841 1.349 . S
C2840 C2842 1.327 . S
C2840 H2865 0.950 . S
C2841 C2840 1.349 . S
C2841 C2857 1.349 . S
C2842 C2840 1.327 . S
C2842 C2861 1.429 . S
C2842 H2866 0.950 . S
C2843 C2860 1.574 . S
C2843 C2862 1.368 . S
C2843 H2867 0.949 . S
H2844 C2848 0.949 . S
C2845 C2846 1.349 . S
C2845 C2847 1.327 . S
C2845 H2868 0.950 . S
C2846 C2845 1.349 . S
C2846 C2858 1.349 . S
C2847 C2845 1.327 . S
C2847 C2863 1.429 . S
C2847 H2869 0.950 . S
C2848 H2844 0.949 . S
C2848 C2856 1.574 . S
C2848 C2864 1.368 . S
H2849 C2857 0.950 . S
H2850 C2855 0.950 . S
H2851 C2856 0.949 . S
H2852 C2858 0.950 . S
H2853 C2859 0.950 . S
H2854 C2860 0.949 . S
C2855 H2850 0.950 . S
C2855 C2857 1.327 . S
C2855 C2861 1.429 . S
C2856 C2848 1.574 . S
C2856 H2851 0.949 . S
C2856 C2862 1.368 . S
C2857 C2841 1.349 . S
C2857 H2849 0.950 . S
C2857 C2855 1.327 . S
C2858 C2846 1.349 . S
C2858 H2852 0.950 . S
C2858 C2859 1.327 . S
C2859 H2853 0.950 . S
C2859 C2858 1.327 . S
C2859 C2863 1.429 . S
C2860 C2843 1.574 . S
C2860 H2854 0.949 . S
C2860 C2864 1.368 . S
C2861 C2842 1.429 . S
C2861 C2855 1.429 . S
C2861 C2862 1.523 . S
C2862 C2843 1.368 . S
C2862 C2856 1.368 . S
C2862 C2861 1.523 . S
C2863 C2847 1.429 . S
C2863 C2859 1.429 . S
C2863 C2864 1.523 . S
C2864 C2848 1.368 . S
C2864 C2860 1.368 . S
C2864 C2863 1.523 . S
H2865 C2840 0.950 . S
H2866 C2842 0.950 . S
H2867 C2843 0.949 . S
H2868 C2845 0.950 . S
H2869 C2847 0.950 . S
C2870 C2871 1.349 . S
C2870 C2872 1.327 . S
C2870 H2895 0.950 . S
C2871 C2870 1.349 . S
C2871 C2887 1.349 1_545 S
C2872 C2870 1.327 . S
C2872 C2891 1.429 . S
C2872 H2896 0.950 . S
C2873 C2890 1.574 . S
C2873 C2892 1.368 1_565 S
C2873 H2897 0.949 . S
H2874 C2878 0.949 . S
C2875 C2876 1.349 . S
C2875 C2877 1.327 . S
C2875 H2898 0.950 . S
C2876 C2875 1.349 . S
C2876 C2888 1.349 1_565 S
C2877 C2875 1.327 . S
C2877 C2893 1.429 . S
C2877 H2899 0.950 . S
C2878 H2874 0.949 . S
C2878 C2886 1.574 . S
C2878 C2894 1.368 1_545 S
H2879 C2887 0.950 . S
H2880 C2885 0.950 . S
H2881 C2886 0.949 . S
H2882 C2888 0.950 . S
H2883 C2889 0.950 . S
H2884 C2890 0.949 . S
C2885 H2880 0.950 . S
C2885 C2887 1.327 . S
C2885 C2891 1.429 1_565 S
C2886 C2878 1.574 . S
C2886 H2881 0.949 . S
C2886 C2892 1.368 . S
C2887 C2871 1.349 1_565 S
C2887 H2879 0.950 . S
C2887 C2885 1.327 . S
C2888 C2876 1.349 1_545 S
C2888 H2882 0.950 . S
C2888 C2889 1.327 . S
C2889 H2883 0.950 . S
C2889 C2888 1.327 . S
C2889 C2893 1.429 1_545 S
C2890 C2873 1.574 . S
C2890 H2884 0.949 . S
C2890 C2894 1.368 . S
C2891 C2872 1.429 . S
C2891 C2885 1.429 1_545 S
C2891 C2892 1.523 . S
C2892 C2873 1.368 1_545 S
C2892 C2886 1.368 . S
C2892 C2891 1.523 . S
C2893 C2877 1.429 . S
C2893 C2889 1.429 1_565 S
C2893 C2894 1.523 . S
C2894 C2878 1.368 1_565 S
C2894 C2890 1.368 . S
C2894 C2893 1.523 . S
H2895 C2870 0.950 . S
H2896 C2872 0.950 . S
H2897 C2873 0.949 . S
H2898 C2875 0.950 . S
H2899 C2877 0.950 . S
C2900 C2901 1.349 . S
C2900 C2902 1.327 . S
C2900 H2925 0.950 . S
C2901 C2900 1.349 . S
C2901 C2917 1.349 . S
C2902 C2900 1.327 . S
C2902 C2921 1.429 . S
C2902 H2926 0.950 . S
C2903 C2920 1.574 . S
C2903 C2922 1.368 . S
C2903 H2927 0.949 . S
H2904 C2908 0.949 . S
C2905 C2906 1.349 . S
C2905 C2907 1.327 . S
C2905 H2928 0.950 . S
C2906 C2905 1.349 . S
C2906 C2918 1.349 . S
C2907 C2905 1.327 . S
C2907 C2923 1.429 . S
C2907 H2929 0.950 . S
C2908 H2904 0.949 . S
C2908 C2916 1.574 . S
C2908 C2924 1.368 . S
H2909 C2917 0.950 . S
H2910 C2915 0.950 . S
H2911 C2916 0.949 . S
H2912 C2918 0.950 . S
H2913 C2919 0.950 . S
H2914 C2920 0.949 . S
C2915 H2910 0.950 . S
C2915 C2917 1.327 . S
C2915 C2921 1.429 . S
C2916 C2908 1.574 . S
C2916 H2911 0.949 . S
C2916 C2922 1.368 . S
C2917 C2901 1.349 . S
C2917 H2909 0.950 . S
C2917 C2915 1.327 . S
C2918 C2906 1.349 . S
C2918 H2912 0.950 . S
C2918 C2919 1.327 . S
C2919 H2913 0.950 . S
C2919 C2918 1.327 . S
C2919 C2923 1.429 . S
C2920 C2903 1.574 . S
C2920 H2914 0.949 . S
C2920 C2924 1.368 . S
C2921 C2902 1.429 . S
C2921 C2915 1.429 . S
C2921 C2922 1.523 . S
C2922 C2903 1.368 . S
C2922 C2916 1.368 . S
C2922 C2921 1.523 . S
C2923 C2907 1.429 . S
C2923 C2919 1.429 . S
C2923 C2924 1.523 . S
C2924 C2908 1.368 . S
C2924 C2920 1.368 . S
C2924 C2923 1.523 . S
H2925 C2900 0.950 . S
H2926 C2902 0.950 . S
H2927 C2903 0.949 . S
H2928 C2905 0.950 . S
H2929 C2907 0.950 . S
C2930 C2931 1.349 . S
C2930 C2932 1.327 . S
C2930 H2955 0.950 . S
C2931 C2930 1.349 . S
C2931 C2947 1.349 . S
C2932 C2930 1.327 . S
C2932 C2951 1.429 . S
C2932 H2956 0.950 . S
C2933 C2950 1.574 1_556 S
C2933 C2952 1.368 1_665 S
C2933 H2957 0.949 . S
H2934 C2938 0.949 . S
C2935 C2936 1.349 . S
C2935 C2937 1.327 . S
C2935 H2958 0.950 . S
C2936 C2935 1.349 . S
C2936 C2948 1.349 . S
C2937 C2935 1.327 . S
C2937 C2953 1.429 . S
C2937 H2959 0.950 . S
C2938 H2934 0.949 . S
C2938 C2946 1.574 1_554 S
C2938 C2954 1.368 1_445 S
H2939 C2947 0.950 1_665 S
H2940 C2945 1.001 . S
H2941 C2946 0.949 . S
H2942 C2948 0.950 1_445 S
H2943 C2949 1.001 . S
H2944 C2950 0.949 . S
C2945 H2940 1.001 . S
C2945 C2947 1.312 1_665 S
C2945 C2951 1.396 1_665 S
C2946 C2938 1.574 1_556 S
C2946 H2941 0.949 . S
C2946 C2952 1.368 . S
C2947 C2931 1.349 . S
C2947 H2939 0.950 1_445 S
C2947 C2945 1.312 1_445 S
C2948 C2936 1.349 . S
C2948 H2942 0.950 1_665 S
C2948 C2949 1.312 1_665 S
C2949 H2943 1.001 . S
C2949 C2948 1.312 1_445 S
C2949 C2953 1.396 1_445 S
C2950 C2933 1.574 1_554 S
C2950 H2944 0.949 . S
C2950 C2954 1.368 . S
C2951 C2932 1.429 . S
C2951 C2945 1.396 1_445 S
C2951 C2952 1.523 . S
C2952 C2933 1.368 1_445 S
C2952 C2946 1.368 . S
C2952 C2951 1.523 . S
C2953 C2937 1.429 . S
C2953 C2949 1.396 1_665 S
C2953 C2954 1.523 . S
C2954 C2938 1.368 1_665 S
C2954 C2950 1.368 . S
C2954 C2953 1.523 . S
H2955 C2930 0.950 . S
H2956 C2932 0.950 . S
H2957 C2933 0.949 . S
H2958 C2935 0.950 . S
H2959 C2937 0.950 . S
C2960 C2961 1.349 . S
C2960 C2962 1.327 . S
C2960 H2985 0.950 . S
C2961 C2960 1.349 . S
C2961 C2977 1.349 . S
C2962 C2960 1.327 . S
C2962 C2981 1.429 . S
C2962 H2986 0.950 . S
C2963 C2980 1.574 . S
C2963 C2982 1.368 . S
C2963 H2987 0.949 . S
H2964 C2968 0.949 . S
C2965 C2966 1.349 . S
C2965 C2967 1.327 . S
C2965 H2988 0.950 . S
C2966 C2965 1.349 . S
C2966 C2978 1.349 . S
C2967 C2965 1.327 . S
C2967 C2983 1.429 . S
C2967 H2989 0.950 . S
C2968 H2964 0.949 . S
C2968 C2976 1.574 . S
C2968 C2984 1.368 . S
H2969 C2977 0.950 . S
H2970 C2975 0.950 . S
H2971 C2976 0.949 . S
H2972 C2978 0.950 . S
H2973 C2979 0.950 . S
H2974 C2980 0.949 . S
C2975 H2970 0.950 . S
C2975 C2977 1.327 . S
C2975 C2981 1.429 . S
C2976 C2968 1.574 . S
C2976 H2971 0.949 . S
C2976 C2982 1.368 . S
C2977 C2961 1.349 . S
C2977 H2969 0.950 . S
C2977 C2975 1.327 . S
C2978 C2966 1.349 . S
C2978 H2972 0.950 . S
C2978 C2979 1.327 . S
C2979 H2973 0.950 . S
C2979 C2978 1.327 . S
C2979 C2983 1.429 . S
C2980 C2963 1.574 . S
C2980 H2974 0.949 . S
C2980 C2984 1.368 . S
C2981 C2962 1.429 . S
C2981 C2975 1.429 . S
C2981 C2982 1.523 . S
C2982 C2963 1.368 . S
C2982 C2976 1.368 . S
C2982 C2981 1.523 . S
C2983 C2967 1.429 . S
C2983 C2979 1.429 . S
C2983 C2984 1.523 . S
C2984 C2968 1.368 . S
C2984 C2980 1.368 . S
C2984 C2983 1.523 . S
H2985 C2960 0.950 . S
H2986 C2962 0.950 . S
H2987 C2963 0.949 . S
H2988 C2965 0.950 . S
H2989 C2967 0.950 . S
C2990 C2991 1.349 . S
C2990 C2992 1.327 . S
C2990 H3015 0.950 . S
C2991 C2990 1.349 . S
C2991 C3007 1.349 . S
C2992 C2990 1.327 . S
C2992 C3011 1.429 . S
C2992 H3016 0.950 . S
C2993 C3010 1.574 . S
C2993 C3012 1.368 . S
C2993 H3017 0.949 . S
H2994 C2998 0.949 . S
C2995 C2996 1.349 . S
C2995 C2997 1.327 . S
C2995 H3018 0.950 . S
C2996 C2995 1.349 . S
C2996 C3008 1.349 . S
C2997 C2995 1.327 . S
C2997 C3013 1.429 . S
C2997 H3019 0.950 . S
C2998 H2994 0.949 . S
C2998 C3006 1.574 . S
C2998 C3014 1.368 . S
H2999 C3007 0.950 . S
H3000 C3005 0.950 . S
H3001 C3006 0.949 . S
H3002 C3008 0.950 . S
H3003 C3009 0.950 . S
H3004 C3010 0.949 . S
C3005 H3000 0.950 . S
C3005 C3007 1.327 . S
C3005 C3011 1.429 . S
C3006 C2998 1.574 . S
C3006 H3001 0.949 . S
C3006 C3012 1.368 . S
C3007 C2991 1.349 . S
C3007 H2999 0.950 . S
C3007 C3005 1.327 . S
C3008 C2996 1.349 . S
C3008 H3002 0.950 . S
C3008 C3009 1.327 . S
C3009 H3003 0.950 . S
C3009 C3008 1.327 . S
C3009 C3013 1.429 . S
C3010 C2993 1.574 . S
C3010 H3004 0.949 . S
C3010 C3014 1.368 . S
C3011 C2992 1.429 . S
C3011 C3005 1.429 . S
C3011 C3012 1.523 . S
C3012 C2993 1.368 . S
C3012 C3006 1.368 . S
C3012 C3011 1.523 . S
C3013 C2997 1.429 . S
C3013 C3009 1.429 . S
C3013 C3014 1.523 . S
C3014 C2998 1.368 . S
C3014 C3010 1.368 . S
C3014 C3013 1.523 . S
H3015 C2990 0.950 . S
H3016 C2992 0.950 . S
H3017 C2993 0.949 . S
H3018 C2995 0.950 . S
H3019 C2997 0.950 . S
C3020 C3021 1.349 . S
C3020 C3022 1.327 . S
C3020 H3045 0.950 . S
C3021 C3020 1.349 . S
C3021 C3037 1.349 . S
C3022 C3020 1.327 . S
C3022 C3041 1.429 . S
C3022 H3046 0.950 . S
C3023 C3040 1.574 . S
C3023 C3042 1.368 . S
C3023 H3047 0.949 . S
H3024 C3028 0.949 . S
C3025 C3026 1.349 . S
C3025 C3027 1.327 . S
C3025 H3048 0.950 . S
C3026 C3025 1.349 . S
C3026 C3038 1.349 . S
C3027 C3025 1.327 . S
C3027 C3043 1.429 . S
C3027 H3049 0.950 . S
C3028 H3024 0.949 . S
C3028 C3036 1.574 . S
C3028 C3044 1.368 . S
H3029 C3037 0.950 . S
H3030 C3035 0.950 . S
H3031 C3036 0.949 . S
H3032 C3038 0.950 . S
H3033 C3039 0.950 . S
H3034 C3040 0.949 . S
C3035 H3030 0.950 . S
C3035 C3037 1.327 . S
C3035 C3041 1.429 . S
C3036 C3028 1.574 . S
C3036 H3031 0.949 . S
C3036 C3042 1.368 . S
C3037 C3021 1.349 . S
C3037 H3029 0.950 . S
C3037 C3035 1.327 . S
C3038 C3026 1.349 . S
C3038 H3032 0.950 . S
C3038 C3039 1.327 . S
C3039 H3033 0.950 . S
C3039 C3038 1.327 . S
C3039 C3043 1.429 . S
C3040 C3023 1.574 . S
C3040 H3034 0.949 . S
C3040 C3044 1.368 . S
C3041 C3022 1.429 . S
C3041 C3035 1.429 . S
C3041 C3042 1.523 . S
C3042 C3023 1.368 . S
C3042 C3036 1.368 . S
C3042 C3041 1.523 . S
C3043 C3027 1.429 . S
C3043 C3039 1.429 . S
C3043 C3044 1.523 . S
C3044 C3028 1.368 . S
C3044 C3040 1.368 . S
C3044 C3043 1.523 . S
H3045 C3020 0.950 . S
H3046 C3022 0.950 . S
H3047 C3023 0.949 . S
H3048 C3025 0.950 . S
H3049 C3027 0.950 . S
C3050 C3051 1.349 . S
C3050 C3052 1.327 . S
C3050 H3075 0.950 . S
C3051 C3050 1.349 . S
C3051 C3067 1.349 . S
C3052 C3050 1.327 . S
C3052 C3071 1.429 . S
C3052 H3076 0.950 . S
C3053 C3070 1.574 . S
C3053 C3072 1.368 . S
C3053 H3077 0.949 . S
H3054 C3058 0.949 . S
C3055 C3056 1.349 . S
C3055 C3057 1.327 . S
C3055 H3078 0.950 . S
C3056 C3055 1.349 . S
C3056 C3068 1.349 . S
C3057 C3055 1.327 . S
C3057 C3073 1.429 . S
C3057 H3079 0.950 . S
C3058 H3054 0.949 . S
C3058 C3066 1.574 . S
C3058 C3074 1.368 . S
H3059 C3067 0.950 . S
H3060 C3065 0.950 . S
H3061 C3066 0.949 . S
H3062 C3068 0.950 . S
H3063 C3069 0.950 . S
H3064 C3070 0.949 . S
C3065 H3060 0.950 . S
C3065 C3067 1.327 . S
C3065 C3071 1.429 . S
C3066 C3058 1.574 . S
C3066 H3061 0.949 . S
C3066 C3072 1.368 . S
C3067 C3051 1.349 . S
C3067 H3059 0.950 . S
C3067 C3065 1.327 . S
C3068 C3056 1.349 . S
C3068 H3062 0.950 . S
C3068 C3069 1.327 . S
C3069 H3063 0.950 . S
C3069 C3068 1.327 . S
C3069 C3073 1.429 . S
C3070 C3053 1.574 . S
C3070 H3064 0.949 . S
C3070 C3074 1.368 . S
C3071 C3052 1.429 . S
C3071 C3065 1.429 . S
C3071 C3072 1.523 . S
C3072 C3053 1.368 . S
C3072 C3066 1.368 . S
C3072 C3071 1.523 . S
C3073 C3057 1.429 . S
C3073 C3069 1.429 . S
C3073 C3074 1.523 . S
C3074 C3058 1.368 . S
C3074 C3070 1.368 . S
C3074 C3073 1.523 . S
H3075 C3050 0.950 . S
H3076 C3052 0.950 . S
H3077 C3053 0.949 . S
H3078 C3055 0.950 . S
H3079 C3057 0.950 . S
C3080 C3081 1.349 . S
C3080 C3082 1.327 . S
C3080 H3105 0.950 . S
C3081 C3080 1.349 . S
C3081 C3097 1.349 . S
C3082 C3080 1.327 . S
C3082 C3101 1.429 . S
C3082 H3106 0.950 . S
C3083 C3100 1.574 1_554 S
C3083 C3102 1.368 . S
C3083 H3107 0.949 . S
H3084 C3088 0.949 . S
C3085 C3086 1.349 . S
C3085 C3087 1.327 . S
C3085 H3108 0.950 . S
C3086 C3085 1.349 . S
C3086 C3098 1.349 . S
C3087 C3085 1.327 . S
C3087 C3103 1.429 . S
C3087 H3109 0.950 . S
C3088 H3084 0.949 . S
C3088 C3096 1.574 1_556 S
C3088 C3104 1.368 . S
H3089 C3097 0.950 . S
H3090 C3095 0.950 . S
H3091 C3096 0.949 . S
H3092 C3098 0.950 . S
H3093 C3099 0.950 . S
H3094 C3100 0.949 . S
C3095 H3090 0.950 . S
C3095 C3097 1.327 . S
C3095 C3101 1.429 . S
C3096 C3088 1.574 1_554 S
C3096 H3091 0.949 . S
C3096 C3102 1.368 . S
C3097 C3081 1.349 . S
C3097 H3089 0.950 . S
C3097 C3095 1.327 . S
C3098 C3086 1.349 . S
C3098 H3092 0.950 . S
C3098 C3099 1.327 . S
C3099 H3093 0.950 . S
C3099 C3098 1.327 . S
C3099 C3103 1.429 . S
C3100 C3083 1.574 1_556 S
C3100 H3094 0.949 . S
C3100 C3104 1.368 . S
C3101 C3082 1.429 . S
C3101 C3095 1.429 . S
C3101 C3102 1.523 . S
C3102 C3083 1.368 . S
C3102 C3096 1.368 . S
C3102 C3101 1.523 . S
C3103 C3087 1.429 . S
C3103 C3099 1.429 . S
C3103 C3104 1.523 . S
C3104 C3088 1.368 . S
C3104 C3100 1.368 . S
C3104 C3103 1.523 . S
H3105 C3080 0.950 . S
H3106 C3082 0.950 . S
H3107 C3083 0.949 . S
H3108 C3085 0.950 . S
H3109 C3087 0.950 . S
C3110 C3111 1.349 . S
C3110 C3112 1.327 . S
C3110 H3135 0.950 . S
C3111 C3110 1.349 . S
C3111 C3127 1.349 . S
C3112 C3110 1.327 . S
C3112 C3131 1.429 . S
C3112 H3136 0.950 1_655 S
C3113 C3130 1.574 . S
C3113 C3132 1.368 . S
C3113 H3137 0.949 . S
H3114 C3118 0.949 . S
C3115 C3116 1.349 . S
C3115 C3117 1.327 . S
C3115 H3138 0.950 . S
C3116 C3115 1.349 . S
C3116 C3128 1.349 . S
C3117 C3115 1.327 . S
C3117 C3133 1.429 . S
C3117 H3139 0.950 1_455 S
C3118 H3114 0.949 . S
C3118 C3126 1.574 . S
C3118 C3134 1.368 . S
H3119 C3127 0.950 . S
H3120 C3125 0.950 . S
H3121 C3126 0.949 . S
H3122 C3128 0.950 . S
H3123 C3129 0.950 . S
H3124 C3130 0.949 . S
C3125 H3120 0.950 . S
C3125 C3127 1.327 . S
C3125 C3131 1.429 . S
C3126 C3118 1.574 . S
C3126 H3121 0.949 . S
C3126 C3132 1.368 1_455 S
C3127 C3111 1.349 . S
C3127 H3119 0.950 . S
C3127 C3125 1.327 . S
C3128 C3116 1.349 . S
C3128 H3122 0.950 . S
C3128 C3129 1.327 . S
C3129 H3123 0.950 . S
C3129 C3128 1.327 . S
C3129 C3133 1.429 . S
C3130 C3113 1.574 . S
C3130 H3124 0.949 . S
C3130 C3134 1.368 1_655 S
C3131 C3112 1.429 . S
C3131 C3125 1.429 . S
C3131 C3132 1.523 . S
C3132 C3113 1.368 . S
C3132 C3126 1.368 1_655 S
C3132 C3131 1.523 . S
C3133 C3117 1.429 . S
C3133 C3129 1.429 . S
C3133 C3134 1.523 . S
C3134 C3118 1.368 . S
C3134 C3130 1.368 1_455 S
C3134 C3133 1.523 . S
H3135 C3110 0.950 . S
H3136 C3112 0.950 1_455 S
H3137 C3113 0.949 . S
H3138 C3115 0.950 . S
H3139 C3117 0.950 1_655 S
C3140 C3141 1.349 . S
C3140 C3142 1.327 . S
C3140 H3165 0.950 . S
C3141 C3140 1.349 . S
C3141 C3157 1.349 . S
C3142 C3140 1.327 . S
C3142 C3161 1.429 . S
C3142 H3166 0.950 . S
C3143 C3160 1.574 1_554 S
C3143 C3162 1.368 1_655 S
C3143 H3167 0.949 . S
H3144 C3148 0.949 . S
C3145 C3146 1.349 . S
C3145 C3147 1.327 . S
C3145 H3168 0.950 . S
C3146 C3145 1.349 . S
C3146 C3158 1.349 . S
C3147 C3145 1.327 . S
C3147 C3163 1.429 . S
C3147 H3169 0.950 . S
C3148 H3144 0.949 . S
C3148 C3156 1.574 1_556 S
C3148 C3164 1.368 1_455 S
H3149 C3157 0.950 1_655 S
H3150 C3155 0.950 . S
H3151 C3156 0.949 . S
H3152 C3158 0.950 1_455 S
H3153 C3159 0.950 . S
H3154 C3160 0.949 . S
C3155 H3150 0.950 . S
C3155 C3157 1.327 1_655 S
C3155 C3161 1.429 1_655 S
C3156 C3148 1.574 1_554 S
C3156 H3151 0.949 . S
C3156 C3162 1.368 . S
C3157 C3141 1.349 . S
C3157 H3149 0.950 1_455 S
C3157 C3155 1.327 1_455 S
C3158 C3146 1.349 . S
C3158 H3152 0.950 1_655 S
C3158 C3159 1.327 1_655 S
C3159 H3153 0.950 . S
C3159 C3158 1.327 1_455 S
C3159 C3163 1.429 1_455 S
C3160 C3143 1.574 1_556 S
C3160 H3154 0.949 . S
C3160 C3164 1.368 . S
C3161 C3142 1.429 . S
C3161 C3155 1.429 1_455 S
C3161 C3162 1.523 . S
C3162 C3143 1.368 1_455 S
C3162 C3156 1.368 . S
C3162 C3161 1.523 . S
C3163 C3147 1.429 . S
C3163 C3159 1.429 1_655 S
C3163 C3164 1.523 . S
C3164 C3148 1.368 1_655 S
C3164 C3160 1.368 . S
C3164 C3163 1.523 . S
H3165 C3140 0.950 . S
H3166 C3142 0.950 . S
H3167 C3143 0.949 . S
H3168 C3145 0.950 . S
H3169 C3147 0.950 . S
C3170 C3171 1.349 . S
C3170 C3172 1.327 . S
C3170 H3195 0.950 . S
C3171 C3170 1.349 . S
C3171 C3187 1.349 . S
C3172 C3170 1.327 . S
C3172 C3191 1.429 . S
C3172 H3196 0.950 . S
C3173 C3190 1.574 . S
C3173 C3192 1.368 . S
C3173 H3197 0.949 . S
H3174 C3178 0.949 . S
C3175 C3176 1.349 . S
C3175 C3177 1.327 . S
C3175 H3198 0.950 . S
C3176 C3175 1.349 . S
C3176 C3188 1.349 . S
C3177 C3175 1.327 . S
C3177 C3193 1.429 . S
C3177 H3199 0.950 . S
C3178 H3174 0.949 . S
C3178 C3186 1.574 . S
C3178 C3194 1.368 . S
H3179 C3187 0.950 . S
H3180 C3185 0.950 . S
H3181 C3186 0.949 . S
H3182 C3188 0.950 . S
H3183 C3189 0.950 . S
H3184 C3190 0.949 . S
C3185 H3180 0.950 . S
C3185 C3187 1.327 . S
C3185 C3191 1.429 . S
C3186 C3178 1.574 . S
C3186 H3181 0.949 . S
C3186 C3192 1.368 . S
C3187 C3171 1.349 . S
C3187 H3179 0.950 . S
C3187 C3185 1.327 . S
C3188 C3176 1.349 . S
C3188 H3182 0.950 . S
C3188 C3189 1.327 . S
C3189 H3183 0.950 . S
C3189 C3188 1.327 . S
C3189 C3193 1.429 . S
C3190 C3173 1.574 . S
C3190 H3184 0.949 . S
C3190 C3194 1.368 . S
C3191 C3172 1.429 . S
C3191 C3185 1.429 . S
C3191 C3192 1.523 . S
C3192 C3173 1.368 . S
C3192 C3186 1.368 . S
C3192 C3191 1.523 . S
C3193 C3177 1.429 . S
C3193 C3189 1.429 . S
C3193 C3194 1.523 . S
C3194 C3178 1.368 . S
C3194 C3190 1.368 . S
C3194 C3193 1.523 . S
H3195 C3170 0.950 . S
H3196 C3172 0.950 . S
H3197 C3173 0.949 . S
H3198 C3175 0.950 . S
H3199 C3177 0.950 . S
C3200 C3201 1.349 . S
C3200 C3202 1.327 . S
C3200 H3225 0.950 . S
C3201 C3200 1.349 . S
C3201 C3217 1.349 . S
C3202 C3200 1.327 . S
C3202 C3221 1.429 . S
C3202 H3226 0.950 . S
C3203 C3220 1.574 . S
C3203 C3222 1.368 . S
C3203 H3227 0.949 . S
H3204 C3208 0.949 . S
C3205 C3206 1.349 . S
C3205 C3207 1.327 . S
C3205 H3228 0.950 . S
C3206 C3205 1.349 . S
C3206 C3218 1.349 . S
C3207 C3205 1.327 . S
C3207 C3223 1.429 . S
C3207 H3229 0.950 . S
C3208 H3204 0.949 . S
C3208 C3216 1.574 . S
C3208 C3224 1.368 . S
H3209 C3217 0.950 . S
H3210 C3215 0.950 . S
H3211 C3216 0.949 . S
H3212 C3218 0.950 . S
H3213 C3219 0.950 . S
H3214 C3220 0.949 . S
C3215 H3210 0.950 . S
C3215 C3217 1.327 . S
C3215 C3221 1.429 . S
C3216 C3208 1.574 . S
C3216 H3211 0.949 . S
C3216 C3222 1.368 . S
C3217 C3201 1.349 . S
C3217 H3209 0.950 . S
C3217 C3215 1.327 . S
C3218 C3206 1.349 . S
C3218 H3212 0.950 . S
C3218 C3219 1.327 . S
C3219 H3213 0.950 . S
C3219 C3218 1.327 . S
C3219 C3223 1.429 . S
C3220 C3203 1.574 . S
C3220 H3214 0.949 . S
C3220 C3224 1.368 . S
C3221 C3202 1.429 . S
C3221 C3215 1.429 . S
C3221 C3222 1.523 . S
C3222 C3203 1.368 . S
C3222 C3216 1.368 . S
C3222 C3221 1.523 . S
C3223 C3207 1.429 . S
C3223 C3219 1.429 . S
C3223 C3224 1.523 . S
C3224 C3208 1.368 . S
C3224 C3220 1.368 . S
C3224 C3223 1.523 . S
H3225 C3200 0.950 . S
H3226 C3202 0.950 . S
H3227 C3203 0.949 . S
H3228 C3205 0.950 . S
H3229 C3207 0.950 . S
C3230 C3231 1.349 . S
C3230 C3232 1.327 . S
C3230 H3255 0.950 . S
C3231 C3230 1.349 . S
C3231 C3247 1.349 . S
C3232 C3230 1.327 . S
C3232 C3251 1.429 . S
C3232 H3256 0.950 . S
C3233 C3250 1.574 . S
C3233 C3252 1.368 . S
C3233 H3257 0.949 . S
H3234 C3238 0.949 . S
C3235 C3236 1.349 . S
C3235 C3237 1.327 . S
C3235 H3258 0.950 . S
C3236 C3235 1.349 . S
C3236 C3248 1.349 . S
C3237 C3235 1.327 . S
C3237 C3253 1.429 . S
C3237 H3259 0.950 . S
C3238 H3234 0.949 . S
C3238 C3246 1.574 . S
C3238 C3254 1.368 . S
H3239 C3247 0.950 . S
H3240 C3245 0.950 . S
H3241 C3246 0.949 . S
H3242 C3248 0.950 . S
H3243 C3249 0.950 . S
H3244 C3250 0.949 . S
C3245 H3240 0.950 . S
C3245 C3247 1.327 . S
C3245 C3251 1.429 . S
C3246 C3238 1.574 . S
C3246 H3241 0.949 . S
C3246 C3252 1.368 . S
C3247 C3231 1.349 . S
C3247 H3239 0.950 . S
C3247 C3245 1.327 . S
C3248 C3236 1.349 . S
C3248 H3242 0.950 . S
C3248 C3249 1.327 . S
C3249 H3243 0.950 . S
C3249 C3248 1.327 . S
C3249 C3253 1.429 . S
C3250 C3233 1.574 . S
C3250 H3244 0.949 . S
C3250 C3254 1.368 . S
C3251 C3232 1.429 . S
C3251 C3245 1.429 . S
C3251 C3252 1.523 . S
C3252 C3233 1.368 . S
C3252 C3246 1.368 . S
C3252 C3251 1.523 . S
C3253 C3237 1.429 . S
C3253 C3249 1.429 . S
C3253 C3254 1.523 . S
C3254 C3238 1.368 . S
C3254 C3250 1.368 . S
C3254 C3253 1.523 . S
H3255 C3230 0.950 . S
H3256 C3232 0.950 . S
H3257 C3233 0.949 . S
H3258 C3235 0.950 . S
H3259 C3237 0.950 . S
C3260 C3261 1.349 . S
C3260 C3262 1.327 . S
C3260 H3285 0.950 . S
C3261 C3260 1.349 . S
C3261 C3277 1.349 . S
C3262 C3260 1.327 . S
C3262 C3281 1.429 . S
C3262 H3286 0.950 . S
C3263 C3280 1.574 . S
C3263 C3282 1.368 . S
C3263 H3287 0.949 . S
H3264 C3268 0.949 . S
C3265 C3266 1.349 . S
C3265 C3267 1.327 . S
C3265 H3288 0.950 . S
C3266 C3265 1.349 . S
C3266 C3278 1.349 . S
C3267 C3265 1.327 . S
C3267 C3283 1.429 . S
C3267 H3289 0.950 . S
C3268 H3264 0.949 . S
C3268 C3276 1.574 . S
C3268 C3284 1.368 . S
H3269 C3277 0.940 1_545 S
H3270 C3275 0.950 . S
H3271 C3276 0.949 . S
H3272 C3278 0.950 . S
H3273 C3279 0.950 . S
H3274 C3280 0.949 . S
C3275 H3270 0.950 . S
C3275 C3277 1.327 . S
C3275 C3281 1.429 . S
C3276 C3268 1.574 . S
C3276 H3271 0.949 . S
C3276 C3282 1.368 . S
C3277 C3261 1.349 . S
C3277 H3269 0.940 1_565 S
C3277 C3275 1.327 . S
C3278 C3266 1.349 . S
C3278 H3272 0.950 . S
C3278 C3279 1.327 . S
C3279 H3273 0.950 . S
C3279 C3278 1.327 . S
C3279 C3283 1.429 . S
C3280 C3263 1.574 . S
C3280 H3274 0.949 . S
C3280 C3284 1.368 . S
C3281 C3262 1.429 . S
C3281 C3275 1.429 . S
C3281 C3282 1.523 . S
C3282 C3263 1.368 . S
C3282 C3276 1.368 . S
C3282 C3281 1.523 . S
C3283 C3267 1.429 . S
C3283 C3279 1.429 . S
C3283 C3284 1.523 . S
C3284 C3268 1.368 . S
C3284 C3280 1.368 . S
C3284 C3283 1.523 . S
H3285 C3260 0.950 . S
H3286 C3262 0.950 . S
H3287 C3263 0.949 . S
H3288 C3265 0.950 . S
H3289 C3267 0.950 . S
C3290 C3291 1.349 . S
C3290 C3292 1.327 . S
C3290 H3315 0.950 . S
C3291 C3290 1.349 . S
C3291 C3307 1.349 . S
C3292 C3290 1.327 . S
C3292 C3311 1.429 . S
C3292 H3316 0.950 . S
C3293 C3310 1.574 . S
C3293 C3312 1.368 . S
C3293 H3317 0.949 . S
H3294 C3298 0.949 . S
C3295 C3296 1.349 . S
C3295 C3297 1.327 . S
C3295 H3318 0.950 . S
C3296 C3295 1.349 . S
C3296 C3308 1.349 . S
C3297 C3295 1.327 . S
C3297 C3313 1.429 . S
C3297 H3319 0.950 . S
C3298 H3294 0.949 . S
C3298 C3306 1.574 . S
C3298 C3314 1.368 . S
H3299 C3307 0.950 . S
H3300 C3305 0.950 . S
H3301 C3306 0.949 . S
H3302 C3308 0.950 . S
H3303 C3309 0.950 . S
H3304 C3310 0.949 . S
C3305 H3300 0.950 . S
C3305 C3307 1.327 . S
C3305 C3311 1.429 . S
C3306 C3298 1.574 . S
C3306 H3301 0.949 . S
C3306 C3312 1.368 . S
C3307 C3291 1.349 . S
C3307 H3299 0.950 . S
C3307 C3305 1.327 . S
C3308 C3296 1.349 . S
C3308 H3302 0.950 . S
C3308 C3309 1.327 . S
C3309 H3303 0.950 . S
C3309 C3308 1.327 . S
C3309 C3313 1.429 . S
C3310 C3293 1.574 . S
C3310 H3304 0.949 . S
C3310 C3314 1.368 . S
C3311 C3292 1.429 . S
C3311 C3305 1.429 . S
C3311 C3312 1.523 . S
C3312 C3293 1.368 . S
C3312 C3306 1.368 . S
C3312 C3311 1.523 . S
C3313 C3297 1.429 . S
C3313 C3309 1.429 . S
C3313 C3314 1.523 . S
C3314 C3298 1.368 . S
C3314 C3310 1.368 . S
C3314 C3313 1.523 . S
H3315 C3290 0.950 . S
H3316 C3292 0.950 . S
H3317 C3293 0.949 . S
H3318 C3295 0.950 . S
H3319 C3297 0.950 . S
C3320 C3321 1.349 . S
C3320 C3322 1.327 . S
C3320 H3345 0.950 . S
C3321 C3320 1.349 . S
C3321 C3337 1.349 . S
C3322 C3320 1.327 . S
C3322 C3341 1.429 . S
C3322 H3346 0.950 . S
C3323 C3340 1.574 . S
C3323 C3342 1.368 . S
C3323 H3347 0.949 . S
H3324 C3328 0.949 . S
C3325 C3326 1.349 . S
C3325 C3327 1.327 . S
C3325 H3348 0.950 . S
C3326 C3325 1.349 . S
C3326 C3338 1.349 . S
C3327 C3325 1.327 . S
C3327 C3343 1.429 . S
C3327 H3349 0.950 . S
C3328 H3324 0.949 . S
C3328 C3336 1.574 . S
C3328 C3344 1.368 . S
H3329 C3337 0.950 . S
H3330 C3335 0.950 . S
H3331 C3336 0.949 . S
H3332 C3338 0.950 . S
H3333 C3339 0.950 . S
H3334 C3340 0.949 . S
C3335 H3330 0.950 . S
C3335 C3337 1.327 . S
C3335 C3341 1.429 . S
C3336 C3328 1.574 . S
C3336 H3331 0.949 . S
C3336 C3342 1.368 . S
C3337 C3321 1.349 . S
C3337 H3329 0.950 . S
C3337 C3335 1.327 . S
C3338 C3326 1.349 . S
C3338 H3332 0.950 . S
C3338 C3339 1.327 . S
C3339 H3333 0.950 . S
C3339 C3338 1.327 . S
C3339 C3343 1.429 . S
C3340 C3323 1.574 . S
C3340 H3334 0.949 . S
C3340 C3344 1.368 . S
C3341 C3322 1.429 . S
C3341 C3335 1.429 . S
C3341 C3342 1.523 . S
C3342 C3323 1.368 . S
C3342 C3336 1.368 . S
C3342 C3341 1.523 . S
C3343 C3327 1.429 . S
C3343 C3339 1.429 . S
C3343 C3344 1.523 . S
C3344 C3328 1.368 . S
C3344 C3340 1.368 . S
C3344 C3343 1.523 . S
H3345 C3320 0.950 . S
H3346 C3322 0.950 . S
H3347 C3323 0.949 . S
H3348 C3325 0.950 . S
H3349 C3327 0.950 . S
C3350 C3351 1.349 . S
C3350 C3352 1.327 . S
C3350 H3375 0.950 . S
C3351 C3350 1.349 . S
C3351 C3367 1.349 . S
C3352 C3350 1.327 . S
C3352 C3371 1.429 . S
C3352 H3376 0.950 . S
C3353 C3370 1.574 . S
C3353 C3372 1.368 . S
C3353 H3377 0.949 . S
H3354 C3358 0.949 . S
C3355 C3356 1.349 . S
C3355 C3357 1.327 . S
C3355 H3378 0.950 . S
C3356 C3355 1.349 . S
C3356 C3368 1.349 . S
C3357 C3355 1.327 . S
C3357 C3373 1.429 . S
C3357 H3379 0.950 . S
C3358 H3354 0.949 . S
C3358 C3366 1.574 . S
C3358 C3374 1.368 . S
H3359 C3367 0.950 . S
H3360 C3365 0.950 . S
H3361 C3366 0.949 . S
H3362 C3368 0.950 . S
H3363 C3369 0.950 . S
H3364 C3370 0.949 . S
C3365 H3360 0.950 . S
C3365 C3367 1.327 . S
C3365 C3371 1.429 . S
C3366 C3358 1.574 . S
C3366 H3361 0.949 . S
C3366 C3372 1.368 . S
C3367 C3351 1.349 . S
C3367 H3359 0.950 . S
C3367 C3365 1.327 . S
C3368 C3356 1.349 . S
C3368 H3362 0.950 . S
C3368 C3369 1.327 . S
C3369 H3363 0.950 . S
C3369 C3368 1.327 . S
C3369 C3373 1.429 . S
C3370 C3353 1.574 . S
C3370 H3364 0.949 . S
C3370 C3374 1.368 . S
C3371 C3352 1.429 . S
C3371 C3365 1.429 . S
C3371 C3372 1.523 . S
C3372 C3353 1.368 . S
C3372 C3366 1.368 . S
C3372 C3371 1.523 . S
C3373 C3357 1.429 . S
C3373 C3369 1.429 . S
C3373 C3374 1.523 . S
C3374 C3358 1.368 . S
C3374 C3370 1.368 . S
C3374 C3373 1.523 . S
H3375 C3350 0.950 . S
H3376 C3352 0.950 . S
H3377 C3353 0.949 . S
H3378 C3355 0.950 . S
H3379 C3357 0.950 . S
C3380 C3381 1.349 . S
C3380 C3382 1.327 . S
C3380 H3405 0.950 . S
C3381 C3380 1.349 . S
C3381 C3397 1.349 . S
C3382 C3380 1.327 . S
C3382 C3401 1.429 . S
C3382 H3406 0.950 . S
C3383 C3400 1.574 . S
C3383 C3402 1.368 . S
C3383 H3407 0.949 . S
H3384 C3388 0.949 . S
C3385 C3386 1.349 . S
C3385 C3387 1.327 . S
C3385 H3408 0.950 . S
C3386 C3385 1.349 . S
C3386 C3398 1.349 . S
C3387 C3385 1.327 . S
C3387 C3403 1.429 . S
C3387 H3409 0.950 . S
C3388 H3384 0.949 . S
C3388 C3396 1.574 . S
C3388 C3404 1.368 . S
H3389 C3397 0.950 . S
H3390 C3395 0.950 . S
H3391 C3396 0.949 . S
H3392 C3398 0.950 . S
H3393 C3399 0.950 . S
H3394 C3400 0.949 . S
C3395 H3390 0.950 . S
C3395 C3397 1.327 . S
C3395 C3401 1.429 . S
C3396 C3388 1.574 . S
C3396 H3391 0.949 . S
C3396 C3402 1.368 . S
C3397 C3381 1.349 . S
C3397 H3389 0.950 . S
C3397 C3395 1.327 . S
C3398 C3386 1.349 . S
C3398 H3392 0.950 . S
C3398 C3399 1.327 . S
C3399 H3393 0.950 . S
C3399 C3398 1.327 . S
C3399 C3403 1.429 . S
C3400 C3383 1.574 . S
C3400 H3394 0.949 . S
C3400 C3404 1.368 . S
C3401 C3382 1.429 . S
C3401 C3395 1.429 . S
C3401 C3402 1.523 . S
C3402 C3383 1.368 . S
C3402 C3396 1.368 . S
C3402 C3401 1.523 . S
C3403 C3387 1.429 . S
C3403 C3399 1.429 . S
C3403 C3404 1.523 . S
C3404 C3388 1.368 . S
C3404 C3400 1.368 . S
C3404 C3403 1.523 . S
H3405 C3380 0.950 . S
H3406 C3382 0.950 . S
H3407 C3383 0.949 . S
H3408 C3385 0.950 . S
H3409 C3387 0.950 . S
C3410 C3411 1.349 . S
C3410 C3412 1.327 . S
C3410 H3435 0.950 . S
C3411 C3410 1.349 . S
C3411 C3427 1.349 . S
C3412 C3410 1.327 . S
C3412 C3431 1.429 . S
C3412 H3436 0.950 . S
C3413 C3430 1.574 . S
C3413 C3432 1.368 . S
C3413 H3437 0.949 . S
H3414 C3418 0.949 . S
C3415 C3416 1.349 . S
C3415 C3417 1.327 . S
C3415 H3438 0.950 . S
C3416 C3415 1.349 . S
C3416 C3428 1.349 . S
C3417 C3415 1.327 . S
C3417 C3433 1.429 . S
C3417 H3439 0.950 . S
C3418 H3414 0.949 . S
C3418 C3426 1.574 . S
C3418 C3434 1.368 . S
H3419 C3427 0.950 . S
H3420 C3425 0.950 . S
H3421 C3426 0.949 . S
H3422 C3428 0.950 . S
H3423 C3429 0.950 . S
H3424 C3430 0.949 . S
C3425 H3420 0.950 . S
C3425 C3427 1.327 . S
C3425 C3431 1.429 . S
C3426 C3418 1.574 . S
C3426 H3421 0.949 . S
C3426 C3432 1.368 . S
C3427 C3411 1.349 . S
C3427 H3419 0.950 . S
C3427 C3425 1.327 . S
C3428 C3416 1.349 . S
C3428 H3422 0.950 . S
C3428 C3429 1.327 . S
C3429 H3423 0.950 . S
C3429 C3428 1.327 . S
C3429 C3433 1.429 . S
C3430 C3413 1.574 . S
C3430 H3424 0.949 . S
C3430 C3434 1.368 . S
C3431 C3412 1.429 . S
C3431 C3425 1.429 . S
C3431 C3432 1.523 . S
C3432 C3413 1.368 . S
C3432 C3426 1.368 . S
C3432 C3431 1.523 . S
C3433 C3417 1.429 . S
C3433 C3429 1.429 . S
C3433 C3434 1.523 . S
C3434 C3418 1.368 . S
C3434 C3430 1.368 . S
C3434 C3433 1.523 . S
H3435 C3410 0.950 . S
H3436 C3412 0.950 . S
H3437 C3413 0.949 . S
H3438 C3415 0.950 . S
H3439 C3417 0.950 . S
C3440 C3441 1.349 . S
C3440 C3442 1.327 . S
C3440 H3465 0.950 . S
C3441 C3440 1.349 . S
C3441 C3457 1.349 . S
C3442 C3440 1.327 . S
C3442 C3461 1.429 . S
C3442 H3466 0.950 . S
C3443 C3460 1.574 . S
C3443 C3462 1.368 . S
C3443 H3467 0.949 . S
H3444 C3448 0.949 . S
C3445 C3446 1.349 . S
C3445 C3447 1.327 . S
C3445 H3468 0.950 . S
C3446 C3445 1.349 . S
C3446 C3458 1.349 . S
C3447 C3445 1.327 . S
C3447 C3463 1.429 . S
C3447 H3469 0.950 . S
C3448 H3444 0.949 . S
C3448 C3456 1.574 . S
C3448 C3464 1.368 . S
H3449 C3457 0.950 . S
H3450 C3455 0.950 . S
H3451 C3456 0.949 . S
H3452 C3458 0.950 . S
H3453 C3459 0.950 . S
H3454 C3460 0.949 . S
C3455 H3450 0.950 . S
C3455 C3457 1.327 . S
C3455 C3461 1.429 . S
C3456 C3448 1.574 . S
C3456 H3451 0.949 . S
C3456 C3462 1.368 . S
C3457 C3441 1.349 . S
C3457 H3449 0.950 . S
C3457 C3455 1.327 . S
C3458 C3446 1.349 . S
C3458 H3452 0.950 . S
C3458 C3459 1.327 . S
C3459 H3453 0.950 . S
C3459 C3458 1.327 . S
C3459 C3463 1.429 . S
C3460 C3443 1.574 . S
C3460 H3454 0.949 . S
C3460 C3464 1.368 . S
C3461 C3442 1.429 . S
C3461 C3455 1.429 . S
C3461 C3462 1.523 . S
C3462 C3443 1.368 . S
C3462 C3456 1.368 . S
C3462 C3461 1.523 . S
C3463 C3447 1.429 . S
C3463 C3459 1.429 . S
C3463 C3464 1.523 . S
C3464 C3448 1.368 . S
C3464 C3460 1.368 . S
C3464 C3463 1.523 . S
H3465 C3440 0.950 . S
H3466 C3442 0.950 . S
H3467 C3443 0.949 . S
H3468 C3445 0.950 . S
H3469 C3447 0.950 . S
C3470 C3471 1.349 . S
C3470 C3472 1.327 . S
C3470 H3495 0.950 . S
C3471 C3470 1.349 . S
C3471 C3487 1.349 . S
C3472 C3470 1.327 . S
C3472 C3491 1.429 . S
C3472 H3496 0.950 . S
C3473 C3490 1.574 . S
C3473 C3492 1.368 . S
C3473 H3497 0.949 . S
H3474 C3478 0.949 . S
C3475 C3476 1.349 . S
C3475 C3477 1.327 . S
C3475 H3498 0.950 . S
C3476 C3475 1.349 . S
C3476 C3488 1.349 . S
C3477 C3475 1.327 . S
C3477 C3493 1.429 . S
C3477 H3499 0.950 . S
C3478 H3474 0.949 . S
C3478 C3486 1.574 . S
C3478 C3494 1.368 . S
H3479 C3487 0.950 . S
H3480 C3485 0.950 . S
H3481 C3486 0.949 . S
H3482 C3488 0.950 . S
H3483 C3489 0.950 . S
H3484 C3490 0.949 . S
C3485 H3480 0.950 . S
C3485 C3487 1.327 . S
C3485 C3491 1.429 . S
C3486 C3478 1.574 . S
C3486 H3481 0.949 . S
C3486 C3492 1.368 . S
C3487 C3471 1.349 . S
C3487 H3479 0.950 . S
C3487 C3485 1.327 . S
C3488 C3476 1.349 . S
C3488 H3482 0.950 . S
C3488 C3489 1.327 . S
C3489 H3483 0.950 . S
C3489 C3488 1.327 . S
C3489 C3493 1.429 . S
C3490 C3473 1.574 . S
C3490 H3484 0.949 . S
C3490 C3494 1.368 . S
C3491 C3472 1.429 . S
C3491 C3485 1.429 . S
C3491 C3492 1.523 . S
C3492 C3473 1.368 . S
C3492 C3486 1.368 . S
C3492 C3491 1.523 . S
C3493 C3477 1.429 . S
C3493 C3489 1.429 . S
C3493 C3494 1.523 . S
C3494 C3478 1.368 . S
C3494 C3490 1.368 . S
C3494 C3493 1.523 . S
H3495 C3470 0.950 . S
H3496 C3472 0.950 . S
H3497 C3473 0.949 . S
H3498 C3475 0.950 . S
H3499 C3477 0.950 . S
C3500 C3501 1.349 . S
C3500 C3502 1.327 . S
C3500 H3525 0.950 . S
C3501 C3500 1.349 . S
C3501 C3517 1.349 . S
C3502 C3500 1.327 . S
C3502 C3521 1.429 . S
C3502 H3526 0.950 . S
C3503 C3520 1.574 . S
C3503 C3522 1.368 . S
C3503 H3527 0.949 . S
H3504 C3508 0.949 . S
C3505 C3506 1.349 . S
C3505 C3507 1.327 . S
C3505 H3528 0.950 . S
C3506 C3505 1.349 . S
C3506 C3518 1.349 . S
C3507 C3505 1.327 . S
C3507 C3523 1.429 . S
C3507 H3529 0.950 . S
C3508 H3504 0.949 . S
C3508 C3516 1.574 . S
C3508 C3524 1.368 . S
H3509 C3517 0.950 . S
H3510 C3515 0.950 . S
H3511 C3516 0.949 . S
H3512 C3518 0.950 . S
H3513 C3519 0.950 . S
H3514 C3520 0.949 . S
C3515 H3510 0.950 . S
C3515 C3517 1.327 . S
C3515 C3521 1.429 . S
C3516 C3508 1.574 . S
C3516 H3511 0.949 . S
C3516 C3522 1.368 . S
C3517 C3501 1.349 . S
C3517 H3509 0.950 . S
C3517 C3515 1.327 . S
C3518 C3506 1.349 . S
C3518 H3512 0.950 . S
C3518 C3519 1.327 . S
C3519 H3513 0.950 . S
C3519 C3518 1.327 . S
C3519 C3523 1.429 . S
C3520 C3503 1.574 . S
C3520 H3514 0.949 . S
C3520 C3524 1.368 . S
C3521 C3502 1.429 . S
C3521 C3515 1.429 . S
C3521 C3522 1.523 . S
C3522 C3503 1.368 . S
C3522 C3516 1.368 . S
C3522 C3521 1.523 . S
C3523 C3507 1.429 . S
C3523 C3519 1.429 . S
C3523 C3524 1.523 . S
C3524 C3508 1.368 . S
C3524 C3520 1.368 . S
C3524 C3523 1.523 . S
H3525 C3500 0.950 . S
H3526 C3502 0.950 . S
H3527 C3503 0.949 . S
H3528 C3505 0.950 . S
H3529 C3507 0.950 . S
C3530 C3531 1.349 . S
C3530 C3532 1.327 . S
C3530 H3555 0.950 . S
C3531 C3530 1.349 . S
C3531 C3547 1.349 . S
C3532 C3530 1.327 . S
C3532 C3551 1.429 . S
C3532 H3556 0.950 . S
C3533 C3550 1.574 . S
C3533 C3552 1.368 . S
C3533 H3557 0.949 . S
H3534 C3538 0.949 . S
C3535 C3536 1.349 . S
C3535 C3537 1.327 . S
C3535 H3558 0.950 . S
C3536 C3535 1.349 . S
C3536 C3548 1.349 . S
C3537 C3535 1.327 . S
C3537 C3553 1.429 . S
C3537 H3559 0.950 . S
C3538 H3534 0.949 . S
C3538 C3546 1.574 . S
C3538 C3554 1.368 . S
H3539 C3547 0.950 . S
H3540 C3545 0.950 . S
H3541 C3546 0.949 . S
H3542 C3548 0.950 . S
H3543 C3549 0.950 . S
H3544 C3550 0.949 . S
C3545 H3540 0.950 . S
C3545 C3547 1.327 . S
C3545 C3551 1.429 . S
C3546 C3538 1.574 . S
C3546 H3541 0.949 . S
C3546 C3552 1.368 . S
C3547 C3531 1.349 . S
C3547 H3539 0.950 . S
C3547 C3545 1.327 . S
C3548 C3536 1.349 . S
C3548 H3542 0.950 . S
C3548 C3549 1.327 . S
C3549 H3543 0.950 . S
C3549 C3548 1.327 . S
C3549 C3553 1.429 . S
C3550 C3533 1.574 . S
C3550 H3544 0.949 . S
C3550 C3554 1.368 . S
C3551 C3532 1.429 . S
C3551 C3545 1.429 . S
C3551 C3552 1.523 . S
C3552 C3533 1.368 . S
C3552 C3546 1.368 . S
C3552 C3551 1.523 . S
C3553 C3537 1.429 . S
C3553 C3549 1.429 . S
C3553 C3554 1.523 . S
C3554 C3538 1.368 . S
C3554 C3550 1.368 . S
C3554 C3553 1.523 . S
H3555 C3530 0.950 . S
H3556 C3532 0.950 . S
H3557 C3533 0.949 . S
H3558 C3535 0.950 . S
H3559 C3537 0.950 . S
C3560 C3561 1.349 . S
C3560 C3562 1.327 . S
C3560 H3585 0.950 . S
C3561 C3560 1.349 . S
C3561 C3577 1.349 . S
C3562 C3560 1.327 . S
C3562 C3581 1.429 . S
C3562 H3586 0.950 . S
C3563 C3580 1.574 . S
C3563 C3582 1.368 . S
C3563 H3587 0.949 . S
H3564 C3568 0.949 . S
C3565 C3566 1.349 . S
C3565 C3567 1.327 . S
C3565 H3588 0.950 . S
C3566 C3565 1.349 . S
C3566 C3578 1.349 . S
C3567 C3565 1.327 . S
C3567 C3583 1.429 . S
C3567 H3589 0.950 . S
C3568 H3564 0.949 . S
C3568 C3576 1.574 . S
C3568 C3584 1.368 . S
H3569 C3577 0.950 . S
H3570 C3575 0.950 . S
H3571 C3576 0.949 . S
H3572 C3578 0.950 . S
H3573 C3579 0.950 . S
H3574 C3580 0.949 . S
C3575 H3570 0.950 . S
C3575 C3577 1.327 . S
C3575 C3581 1.429 . S
C3576 C3568 1.574 . S
C3576 H3571 0.949 . S
C3576 C3582 1.368 . S
C3577 C3561 1.349 . S
C3577 H3569 0.950 . S
C3577 C3575 1.327 . S
C3578 C3566 1.349 . S
C3578 H3572 0.950 . S
C3578 C3579 1.327 . S
C3579 H3573 0.950 . S
C3579 C3578 1.327 . S
C3579 C3583 1.429 . S
C3580 C3563 1.574 . S
C3580 H3574 0.949 . S
C3580 C3584 1.368 . S
C3581 C3562 1.429 . S
C3581 C3575 1.429 . S
C3581 C3582 1.523 . S
C3582 C3563 1.368 . S
C3582 C3576 1.368 . S
C3582 C3581 1.523 . S
C3583 C3567 1.429 . S
C3583 C3579 1.429 . S
C3583 C3584 1.523 . S
C3584 C3568 1.368 . S
C3584 C3580 1.368 . S
C3584 C3583 1.523 . S
H3585 C3560 0.950 . S
H3586 C3562 0.950 . S
H3587 C3563 0.949 . S
H3588 C3565 0.950 . S
H3589 C3567 0.950 . S
C3590 C3591 1.349 . S
C3590 C3592 1.327 . S
C3590 H3615 0.950 . S
C3591 C3590 1.349 . S
C3591 C3607 1.349 . S
C3592 C3590 1.327 . S
C3592 C3611 1.429 . S
C3592 H3616 0.950 . S
C3593 C3610 1.574 . S
C3593 C3612 1.368 . S
C3593 H3617 0.949 . S
H3594 C3598 0.949 . S
C3595 C3596 1.349 . S
C3595 C3597 1.327 . S
C3595 H3618 0.950 . S
C3596 C3595 1.349 . S
C3596 C3608 1.349 . S
C3597 C3595 1.327 . S
C3597 C3613 1.429 . S
C3597 H3619 0.950 . S
C3598 H3594 0.949 . S
C3598 C3606 1.574 . S
C3598 C3614 1.368 . S
H3599 C3607 0.950 . S
H3600 C3605 0.950 . S
H3601 C3606 0.949 . S
H3602 C3608 0.950 . S
H3603 C3609 0.950 . S
H3604 C3610 0.949 . S
C3605 H3600 0.950 . S
C3605 C3607 1.327 . S
C3605 C3611 1.429 . S
C3606 C3598 1.574 . S
C3606 H3601 0.949 . S
C3606 C3612 1.368 . S
C3607 C3591 1.349 . S
C3607 H3599 0.950 . S
C3607 C3605 1.327 . S
C3608 C3596 1.349 . S
C3608 H3602 0.950 . S
C3608 C3609 1.327 . S
C3609 H3603 0.950 . S
C3609 C3608 1.327 . S
C3609 C3613 1.429 . S
C3610 C3593 1.574 . S
C3610 H3604 0.949 . S
C3610 C3614 1.368 . S
C3611 C3592 1.429 . S
C3611 C3605 1.429 . S
C3611 C3612 1.523 . S
C3612 C3593 1.368 . S
C3612 C3606 1.368 . S
C3612 C3611 1.523 . S
C3613 C3597 1.429 . S
C3613 C3609 1.429 . S
C3613 C3614 1.523 . S
C3614 C3598 1.368 . S
C3614 C3610 1.368 . S
C3614 C3613 1.523 . S
H3615 C3590 0.950 . S
H3616 C3592 0.950 . S
H3617 C3593 0.949 . S
H3618 C3595 0.950 . S
H3619 C3597 0.950 . S
C3620 C3621 1.349 . S
C3620 C3622 1.327 . S
C3620 H3645 0.950 . S
C3621 C3620 1.349 . S
C3621 C3637 1.349 . S
C3622 C3620 1.327 . S
C3622 C3641 1.429 . S
C3622 H3646 0.950 . S
C3623 C3640 1.574 . S
C3623 C3642 1.368 . S
C3623 H3647 0.949 . S
H3624 C3628 0.949 . S
C3625 C3626 1.349 . S
C3625 C3627 1.327 . S
C3625 H3648 0.950 . S
C3626 C3625 1.349 . S
C3626 C3638 1.349 . S
C3627 C3625 1.327 . S
C3627 C3643 1.429 . S
C3627 H3649 0.950 . S
C3628 H3624 0.949 . S
C3628 C3636 1.574 . S
C3628 C3644 1.368 . S
H3629 C3637 0.950 . S
H3630 C3635 0.950 . S
H3631 C3636 0.949 . S
H3632 C3638 0.950 . S
H3633 C3639 0.950 . S
H3634 C3640 0.949 . S
C3635 H3630 0.950 . S
C3635 C3637 1.327 . S
C3635 C3641 1.429 . S
C3636 C3628 1.574 . S
C3636 H3631 0.949 . S
C3636 C3642 1.368 . S
C3637 C3621 1.349 . S
C3637 H3629 0.950 . S
C3637 C3635 1.327 . S
C3638 C3626 1.349 . S
C3638 H3632 0.950 . S
C3638 C3639 1.327 . S
C3639 H3633 0.950 . S
C3639 C3638 1.327 . S
C3639 C3643 1.429 . S
C3640 C3623 1.574 . S
C3640 H3634 0.949 . S
C3640 C3644 1.368 . S
C3641 C3622 1.429 . S
C3641 C3635 1.429 . S
C3641 C3642 1.523 . S
C3642 C3623 1.368 . S
C3642 C3636 1.368 . S
C3642 C3641 1.523 . S
C3643 C3627 1.429 . S
C3643 C3639 1.429 . S
C3643 C3644 1.523 . S
C3644 C3628 1.368 . S
C3644 C3640 1.368 . S
C3644 C3643 1.523 . S
H3645 C3620 0.950 . S
H3646 C3622 0.950 . S
H3647 C3623 0.949 . S
H3648 C3625 0.950 . S
H3649 C3627 0.950 . S
C3650 C3651 1.349 . S
C3650 C3652 1.327 . S
C3650 H3675 0.950 . S
C3651 C3650 1.349 . S
C3651 C3667 1.349 . S
C3652 C3650 1.327 . S
C3652 C3671 1.429 . S
C3652 H3676 0.950 . S
C3653 C3670 1.574 . S
C3653 C3672 1.368 . S
C3653 H3677 0.949 . S
H3654 C3658 0.949 . S
C3655 C3656 1.349 . S
C3655 C3657 1.327 . S
C3655 H3678 0.950 . S
C3656 C3655 1.349 . S
C3656 C3668 1.349 . S
C3657 C3655 1.327 . S
C3657 C3673 1.429 . S
C3657 H3679 0.950 . S
C3658 H3654 0.949 . S
C3658 C3666 1.574 . S
C3658 C3674 1.368 . S
H3659 C3667 0.950 . S
H3660 C3665 0.950 . S
H3661 C3666 0.949 . S
H3662 C3668 0.950 . S
H3663 C3669 0.950 . S
H3664 C3670 0.949 . S
C3665 H3660 0.950 . S
C3665 C3667 1.327 . S
C3665 C3671 1.429 . S
C3666 C3658 1.574 . S
C3666 H3661 0.949 . S
C3666 C3672 1.368 . S
C3667 C3651 1.349 . S
C3667 H3659 0.950 . S
C3667 C3665 1.327 . S
C3668 C3656 1.349 . S
C3668 H3662 0.950 . S
C3668 C3669 1.327 . S
C3669 H3663 0.950 . S
C3669 C3668 1.327 . S
C3669 C3673 1.429 . S
C3670 C3653 1.574 . S
C3670 H3664 0.949 . S
C3670 C3674 1.368 . S
C3671 C3652 1.429 . S
C3671 C3665 1.429 . S
C3671 C3672 1.523 . S
C3672 C3653 1.368 . S
C3672 C3666 1.368 . S
C3672 C3671 1.523 . S
C3673 C3657 1.429 . S
C3673 C3669 1.429 . S
C3673 C3674 1.523 . S
C3674 C3658 1.368 . S
C3674 C3670 1.368 . S
C3674 C3673 1.523 . S
H3675 C3650 0.950 . S
H3676 C3652 0.950 . S
H3677 C3653 0.949 . S
H3678 C3655 0.950 . S
H3679 C3657 0.950 . S
C3680 C3681 1.349 . S
C3680 C3682 1.327 . S
C3680 H3705 0.950 . S
C3681 C3680 1.349 . S
C3681 C3697 1.349 . S
C3682 C3680 1.327 . S
C3682 C3701 1.429 . S
C3682 H3706 0.950 . S
C3683 C3700 1.574 1_545 S
C3683 C3702 1.368 . S
C3683 H3707 0.949 . S
H3684 C3688 0.949 . S
C3685 C3686 1.349 . S
C3685 C3687 1.327 . S
C3685 H3708 0.950 . S
C3686 C3685 1.349 . S
C3686 C3698 1.349 . S
C3687 C3685 1.327 . S
C3687 C3703 1.429 . S
C3687 H3709 0.950 . S
C3688 H3684 0.949 . S
C3688 C3696 1.574 1_565 S
C3688 C3704 1.368 . S
H3689 C3697 0.950 . S
H3690 C3695 0.950 . S
H3691 C3696 0.949 . S
H3692 C3698 0.950 . S
H3693 C3699 0.950 . S
H3694 C3700 0.949 . S
C3695 H3690 0.950 . S
C3695 C3697 1.327 . S
C3695 C3701 1.429 . S
C3696 C3688 1.574 1_545 S
C3696 H3691 0.949 . S
C3696 C3702 1.368 . S
C3697 C3681 1.349 . S
C3697 H3689 0.950 . S
C3697 C3695 1.327 . S
C3698 C3686 1.349 . S
C3698 H3692 0.950 . S
C3698 C3699 1.327 . S
C3699 H3693 0.950 . S
C3699 C3698 1.327 . S
C3699 C3703 1.429 . S
C3700 C3683 1.574 1_565 S
C3700 H3694 0.949 . S
C3700 C3704 1.368 . S
C3701 C3682 1.429 . S
C3701 C3695 1.429 . S
C3701 C3702 1.523 . S
C3702 C3683 1.368 . S
C3702 C3696 1.368 . S
C3702 C3701 1.523 . S
C3703 C3687 1.429 . S
C3703 C3699 1.429 . S
C3703 C3704 1.523 . S
C3704 C3688 1.368 . S
C3704 C3700 1.368 . S
C3704 C3703 1.523 . S
H3705 C3680 0.950 . S
H3706 C3682 0.950 . S
H3707 C3683 0.949 . S
H3708 C3685 0.950 . S
H3709 C3687 0.950 . S
C3710 C3711 1.349 . S
C3710 C3712 1.327 . S
C3710 H3735 0.950 . S
C3711 C3710 1.349 . S
C3711 C3727 1.349 . S
C3712 C3710 1.327 . S
C3712 C3731 1.429 . S
C3712 H3736 0.950 . S
C3713 C3730 1.574 . S
C3713 C3732 1.368 . S
C3713 H3737 0.949 . S
H3714 C3718 0.949 . S
C3715 C3716 1.349 . S
C3715 C3717 1.327 . S
C3715 H3738 0.950 . S
C3716 C3715 1.349 . S
C3716 C3728 1.349 . S
C3717 C3715 1.327 . S
C3717 C3733 1.429 . S
C3717 H3739 0.950 . S
C3718 H3714 0.949 . S
C3718 C3726 1.574 . S
C3718 C3734 1.368 . S
H3719 C3727 0.950 . S
H3720 C3725 0.950 . S
H3721 C3726 0.949 . S
H3722 C3728 0.950 . S
H3723 C3729 0.950 . S
H3724 C3730 0.949 . S
C3725 H3720 0.950 . S
C3725 C3727 1.327 . S
C3725 C3731 1.429 . S
C3726 C3718 1.574 . S
C3726 H3721 0.949 . S
C3726 C3732 1.368 . S
C3727 C3711 1.349 . S
C3727 H3719 0.950 . S
C3727 C3725 1.327 . S
C3728 C3716 1.349 . S
C3728 H3722 0.950 . S
C3728 C3729 1.327 . S
C3729 H3723 0.950 . S
C3729 C3728 1.327 . S
C3729 C3733 1.429 . S
C3730 C3713 1.574 . S
C3730 H3724 0.949 . S
C3730 C3734 1.368 . S
C3731 C3712 1.429 . S
C3731 C3725 1.429 . S
C3731 C3732 1.523 . S
C3732 C3713 1.368 . S
C3732 C3726 1.368 . S
C3732 C3731 1.523 . S
C3733 C3717 1.429 . S
C3733 C3729 1.429 . S
C3733 C3734 1.523 . S
C3734 C3718 1.368 . S
C3734 C3730 1.368 . S
C3734 C3733 1.523 . S
H3735 C3710 0.950 . S
H3736 C3712 0.950 . S
H3737 C3713 0.949 . S
H3738 C3715 0.950 . S
H3739 C3717 0.950 . S
C3740 C3741 1.349 . S
C3740 C3742 1.327 . S
C3740 H3765 0.950 . S
C3741 C3740 1.349 . S
C3741 C3757 1.349 . S
C3742 C3740 1.327 . S
C3742 C3761 1.429 . S
C3742 H3766 0.950 . S
C3743 C3760 1.574 1_545 S
C3743 C3762 1.368 . S
C3743 H3767 0.949 . S
H3744 C3748 0.949 . S
C3745 C3746 1.349 . S
C3745 C3747 1.327 . S
C3745 H3768 0.950 . S
C3746 C3745 1.349 . S
C3746 C3758 1.349 . S
C3747 C3745 1.327 . S
C3747 C3763 1.429 . S
C3747 H3769 0.950 . S
C3748 H3744 0.949 . S
C3748 C3756 1.574 1_565 S
C3748 C3764 1.368 . S
H3749 C3757 0.950 . S
H3750 C3755 0.950 . S
H3751 C3756 0.949 . S
H3752 C3758 0.950 . S
H3753 C3759 0.950 . S
H3754 C3760 0.949 . S
C3755 H3750 0.950 . S
C3755 C3757 1.327 . S
C3755 C3761 1.429 . S
C3756 C3748 1.574 1_545 S
C3756 H3751 0.949 . S
C3756 C3762 1.368 . S
C3757 C3741 1.349 . S
C3757 H3749 0.950 . S
C3757 C3755 1.327 . S
C3758 C3746 1.349 . S
C3758 H3752 0.950 . S
C3758 C3759 1.327 . S
C3759 H3753 0.950 . S
C3759 C3758 1.327 . S
C3759 C3763 1.429 . S
C3760 C3743 1.574 1_565 S
C3760 H3754 0.949 . S
C3760 C3764 1.368 . S
C3761 C3742 1.429 . S
C3761 C3755 1.429 . S
C3761 C3762 1.523 . S
C3762 C3743 1.368 . S
C3762 C3756 1.368 . S
C3762 C3761 1.523 . S
C3763 C3747 1.429 . S
C3763 C3759 1.429 . S
C3763 C3764 1.523 . S
C3764 C3748 1.368 . S
C3764 C3760 1.368 . S
C3764 C3763 1.523 . S
H3765 C3740 0.950 . S
H3766 C3742 0.950 . S
H3767 C3743 0.949 . S
H3768 C3745 0.950 . S
H3769 C3747 0.950 . S
C3770 C3771 1.349 . S
C3770 C3772 1.327 . S
C3770 H3795 0.950 . S
C3771 C3770 1.349 . S
C3771 C3787 1.349 . S
C3772 C3770 1.327 . S
C3772 C3791 1.429 . S
C3772 H3796 0.950 . S
C3773 C3790 1.643 . S
C3773 C3792 1.297 1_554 S
C3773 H3797 0.963 . S
H3774 C3778 0.963 . S
C3775 C3776 1.349 . S
C3775 C3777 1.327 . S
C3775 H3798 0.950 . S
C3776 C3775 1.349 . S
C3776 C3788 1.349 . S
C3777 C3775 1.327 . S
C3777 C3793 1.429 . S
C3777 H3799 0.950 . S
C3778 H3774 0.963 . S
C3778 C3786 1.642 . S
C3778 C3794 1.297 1_556 S
H3779 C3787 0.950 . S
H3780 C3785 0.950 . S
H3781 C3786 0.949 . S
H3782 C3788 0.950 . S
H3783 C3789 0.950 . S
H3784 C3790 0.949 . S
C3785 H3780 0.950 . S
C3785 C3787 1.327 . S
C3785 C3791 1.429 . S
C3786 C3778 1.642 . S
C3786 H3781 0.949 . S
C3786 C3792 1.368 . S
C3787 C3771 1.349 . S
C3787 H3779 0.950 . S
C3787 C3785 1.327 . S
C3788 C3776 1.349 . S
C3788 H3782 0.950 . S
C3788 C3789 1.327 . S
C3789 H3783 0.950 . S
C3789 C3788 1.327 . S
C3789 C3793 1.429 . S
C3790 C3773 1.643 . S
C3790 H3784 0.949 . S
C3790 C3794 1.368 . S
C3791 C3772 1.429 . S
C3791 C3785 1.429 . S
C3791 C3792 1.523 . S
C3792 C3773 1.297 1_556 S
C3792 C3786 1.368 . S
C3792 C3791 1.523 . S
C3793 C3777 1.429 . S
C3793 C3789 1.429 . S
C3793 C3794 1.523 . S
C3794 C3778 1.297 1_554 S
C3794 C3790 1.368 . S
C3794 C3793 1.523 . S
H3795 C3770 0.950 . S
H3796 C3772 0.950 . S
H3797 C3773 0.963 . S
H3798 C3775 0.950 . S
H3799 C3777 0.950 . S
C3800 C3801 1.349 . S
C3800 C3802 1.327 . S
C3800 H3825 0.950 . S
C3801 C3800 1.349 . S
C3801 C3817 1.349 . S
C3802 C3800 1.327 . S
C3802 C3821 1.429 . S
C3802 H3826 0.950 . S
C3803 C3820 1.543 1_565 S
C3803 C3822 1.368 . S
C3803 H3827 0.949 . S
H3804 C3808 0.949 . S
C3805 C3806 1.349 . S
C3805 C3807 1.327 . S
C3805 H3828 0.950 . S
C3806 C3805 1.349 . S
C3806 C3818 1.349 . S
C3807 C3805 1.327 . S
C3807 C3823 1.429 . S
C3807 H3829 0.950 . S
C3808 H3804 0.949 . S
C3808 C3816 1.543 1_545 S
C3808 C3824 1.368 . S
H3809 C3817 0.950 . S
H3810 C3815 0.950 . S
H3811 C3816 0.952 . S
H3812 C3818 0.950 . S
H3813 C3819 0.950 . S
H3814 C3820 0.952 . S
C3815 H3810 0.950 . S
C3815 C3817 1.327 . S
C3815 C3821 1.429 . S
C3816 C3808 1.543 1_565 S
C3816 H3811 0.952 . S
C3816 C3822 1.397 . S
C3817 C3801 1.349 . S
C3817 H3809 0.950 . S
C3817 C3815 1.327 . S
C3818 C3806 1.349 . S
C3818 H3812 0.950 . S
C3818 C3819 1.327 . S
C3819 H3813 0.950 . S
C3819 C3818 1.327 . S
C3819 C3823 1.429 . S
C3820 C3803 1.543 1_545 S
C3820 H3814 0.952 . S
C3820 C3824 1.397 . S
C3821 C3802 1.429 . S
C3821 C3815 1.429 . S
C3821 C3822 1.523 . S
C3822 C3803 1.368 . S
C3822 C3816 1.397 . S
C3822 C3821 1.523 . S
C3823 C3807 1.429 . S
C3823 C3819 1.429 . S
C3823 C3824 1.523 . S
C3824 C3808 1.368 . S
C3824 C3820 1.397 . S
C3824 C3823 1.523 . S
H3825 C3800 0.950 . S
H3826 C3802 0.950 . S
H3827 C3803 0.949 . S
H3828 C3805 0.950 . S
H3829 C3807 0.950 . S
C3830 C3831 1.349 . S
C3830 C3832 1.327 . S
C3830 H3855 0.950 . S
C3831 C3830 1.349 . S
C3831 C3847 1.349 . S
C3832 C3830 1.327 . S
C3832 C3851 1.429 . S
C3832 H3856 0.950 . S
C3833 C3850 1.574 . S
C3833 C3852 1.368 . S
C3833 H3857 0.949 . S
H3834 C3838 0.949 . S
C3835 C3836 1.349 . S
C3835 C3837 1.327 . S
C3835 H3858 0.950 . S
C3836 C3835 1.349 . S
C3836 C3848 1.349 . S
C3837 C3835 1.327 . S
C3837 C3853 1.429 . S
C3837 H3859 0.950 . S
C3838 H3834 0.949 . S
C3838 C3846 1.574 . S
C3838 C3854 1.368 . S
H3839 C3847 0.950 . S
H3840 C3845 0.950 . S
H3841 C3846 0.949 . S
H3842 C3848 0.950 . S
H3843 C3849 0.950 . S
H3844 C3850 0.949 . S
C3845 H3840 0.950 . S
C3845 C3847 1.327 . S
C3845 C3851 1.429 . S
C3846 C3838 1.574 . S
C3846 H3841 0.949 . S
C3846 C3852 1.368 . S
C3847 C3831 1.349 . S
C3847 H3839 0.950 . S
C3847 C3845 1.327 . S
C3848 C3836 1.349 . S
C3848 H3842 0.950 . S
C3848 C3849 1.327 . S
C3849 H3843 0.950 . S
C3849 C3848 1.327 . S
C3849 C3853 1.429 . S
C3850 C3833 1.574 . S
C3850 H3844 0.949 . S
C3850 C3854 1.368 . S
C3851 C3832 1.429 . S
C3851 C3845 1.429 . S
C3851 C3852 1.523 . S
C3852 C3833 1.368 . S
C3852 C3846 1.368 . S
C3852 C3851 1.523 . S
C3853 C3837 1.429 . S
C3853 C3849 1.429 . S
C3853 C3854 1.523 . S
C3854 C3838 1.368 . S
C3854 C3850 1.368 . S
C3854 C3853 1.523 . S
H3855 C3830 0.950 . S
H3856 C3832 0.950 . S
H3857 C3833 0.949 . S
H3858 C3835 0.950 . S
H3859 C3837 0.950 . S
C3860 C3861 1.349 . S
C3860 C3862 1.327 . S
C3860 H3885 0.950 . S
C3861 C3860 1.349 . S
C3861 C3877 1.349 . S
C3862 C3860 1.327 . S
C3862 C3881 1.429 . S
C3862 H3886 0.950 . S
C3863 C3880 1.583 . S
C3863 C3882 1.359 1_545 S
C3863 H3887 0.949 . S
H3864 C3868 0.949 . S
C3865 C3866 1.349 . S
C3865 C3867 1.327 . S
C3865 H3888 0.950 . S
C3866 C3865 1.349 . S
C3866 C3878 1.349 . S
C3867 C3865 1.327 . S
C3867 C3883 1.429 . S
C3867 H3889 0.950 . S
C3868 H3864 0.949 . S
C3868 C3876 1.583 . S
C3868 C3884 1.360 1_565 S
H3869 C3877 0.950 . S
H3870 C3875 0.950 . S
H3871 C3876 0.949 . S
H3872 C3878 0.950 . S
H3873 C3879 0.950 . S
H3874 C3880 0.949 . S
C3875 H3870 0.950 . S
C3875 C3877 1.327 . S
C3875 C3881 1.429 . S
C3876 C3868 1.583 . S
C3876 H3871 0.949 . S
C3876 C3882 1.368 . S
C3877 C3861 1.349 . S
C3877 H3869 0.950 . S
C3877 C3875 1.327 . S
C3878 C3866 1.349 . S
C3878 H3872 0.950 . S
C3878 C3879 1.327 . S
C3879 H3873 0.950 . S
C3879 C3878 1.327 . S
C3879 C3883 1.429 . S
C3880 C3863 1.583 . S
C3880 H3874 0.949 . S
C3880 C3884 1.368 . S
C3881 C3862 1.429 . S
C3881 C3875 1.429 . S
C3881 C3882 1.523 . S
C3882 C3863 1.359 1_565 S
C3882 C3876 1.368 . S
C3882 C3881 1.523 . S
C3883 C3867 1.429 . S
C3883 C3879 1.429 . S
C3883 C3884 1.523 . S
C3884 C3868 1.360 1_545 S
C3884 C3880 1.368 . S
C3884 C3883 1.523 . S
H3885 C3860 0.950 . S
H3886 C3862 0.950 . S
H3887 C3863 0.949 . S
H3888 C3865 0.950 . S
H3889 C3867 0.950 . S
C3890 C3891 1.349 . S
C3890 C3892 1.327 . S
C3890 H3915 0.950 . S
C3891 C3890 1.349 . S
C3891 C3907 1.349 . S
C3892 C3890 1.327 . S
C3892 C3911 1.429 . S
C3892 H3916 0.950 . S
C3893 C3910 1.642 . S
C3893 C3912 1.368 . S
C3893 H3917 0.949 . S
H3894 C3898 0.949 . S
C3895 C3896 1.349 . S
C3895 C3897 1.327 . S
C3895 H3918 0.950 . S
C3896 C3895 1.349 . S
C3896 C3908 1.349 . S
C3897 C3895 1.327 . S
C3897 C3913 1.429 . S
C3897 H3919 0.950 . S
C3898 H3894 0.949 . S
C3898 C3906 1.642 . S
C3898 C3914 1.368 . S
H3899 C3907 0.950 . S
H3900 C3905 0.950 . S
H3901 C3906 0.963 . S
H3902 C3908 0.950 . S
H3903 C3909 0.950 . S
H3904 C3910 0.963 . S
C3905 H3900 0.950 . S
C3905 C3907 1.327 . S
C3905 C3911 1.429 . S
C3906 C3898 1.642 . S
C3906 H3901 0.963 . S
C3906 C3912 1.297 1_556 S
C3907 C3891 1.349 . S
C3907 H3899 0.950 . S
C3907 C3905 1.327 . S
C3908 C3896 1.349 . S
C3908 H3902 0.950 . S
C3908 C3909 1.327 . S
C3909 H3903 0.950 . S
C3909 C3908 1.327 . S
C3909 C3913 1.429 . S
C3910 C3893 1.642 . S
C3910 H3904 0.963 . S
C3910 C3914 1.297 1_554 S
C3911 C3892 1.429 . S
C3911 C3905 1.429 . S
C3911 C3912 1.523 . S
C3912 C3893 1.368 . S
C3912 C3906 1.297 1_554 S
C3912 C3911 1.523 . S
C3913 C3897 1.429 . S
C3913 C3909 1.429 . S
C3913 C3914 1.523 . S
C3914 C3898 1.368 . S
C3914 C3910 1.297 1_556 S
C3914 C3913 1.523 . S
H3915 C3890 0.950 . S
H3916 C3892 0.950 . S
H3917 C3893 0.949 . S
H3918 C3895 0.950 . S
H3919 C3897 0.950 . S
C3920 C3921 1.349 . S
C3920 C3922 1.327 . S
C3920 H3945 0.950 . S
C3921 C3920 1.349 . S
C3921 C3937 1.349 . S
C3922 C3920 1.327 . S
C3922 C3941 1.429 . S
C3922 H3946 0.950 . S
C3923 C3940 1.574 . S
C3923 C3942 1.368 . S
C3923 H3947 0.949 . S
H3924 C3928 0.949 . S
C3925 C3926 1.349 . S
C3925 C3927 1.327 . S
C3925 H3948 0.950 . S
C3926 C3925 1.349 . S
C3926 C3938 1.349 . S
C3927 C3925 1.327 . S
C3927 C3943 1.429 . S
C3927 H3949 0.950 . S
C3928 H3924 0.949 . S
C3928 C3936 1.574 . S
C3928 C3944 1.368 . S
H3929 C3937 0.950 . S
H3930 C3935 0.950 . S
H3931 C3936 0.949 . S
H3932 C3938 0.950 . S
H3933 C3939 0.950 . S
H3934 C3940 0.949 . S
C3935 H3930 0.950 . S
C3935 C3937 1.327 . S
C3935 C3941 1.429 . S
C3936 C3928 1.574 . S
C3936 H3931 0.949 . S
C3936 C3942 1.368 . S
C3937 C3921 1.349 . S
C3937 H3929 0.950 . S
C3937 C3935 1.327 . S
C3938 C3926 1.349 . S
C3938 H3932 0.950 . S
C3938 C3939 1.327 . S
C3939 H3933 0.950 . S
C3939 C3938 1.327 . S
C3939 C3943 1.429 . S
C3940 C3923 1.574 . S
C3940 H3934 0.949 . S
C3940 C3944 1.368 . S
C3941 C3922 1.429 . S
C3941 C3935 1.429 . S
C3941 C3942 1.523 . S
C3942 C3923 1.368 . S
C3942 C3936 1.368 . S
C3942 C3941 1.523 . S
C3943 C3927 1.429 . S
C3943 C3939 1.429 . S
C3943 C3944 1.523 . S
C3944 C3928 1.368 . S
C3944 C3940 1.368 . S
C3944 C3943 1.523 . S
H3945 C3920 0.950 . S
H3946 C3922 0.950 . S
H3947 C3923 0.949 . S
H3948 C3925 0.950 . S
H3949 C3927 0.950 . S
C3950 C3951 1.349 . S
C3950 C3952 1.327 . S
C3950 H3975 0.950 . S
C3951 C3950 1.349 . S
C3951 C3967 1.349 . S
C3952 C3950 1.327 . S
C3952 C3971 1.429 . S
C3952 H3976 0.950 . S
C3953 C3970 1.642 . S
C3953 C3972 1.368 . S
C3953 H3977 0.949 . S
H3954 C3958 0.949 . S
C3955 C3956 1.349 . S
C3955 C3957 1.327 . S
C3955 H3978 0.950 . S
C3956 C3955 1.349 . S
C3956 C3968 1.349 . S
C3957 C3955 1.327 . S
C3957 C3973 1.429 . S
C3957 H3979 0.950 . S
C3958 H3954 0.949 . S
C3958 C3966 1.643 . S
C3958 C3974 1.368 . S
H3959 C3967 0.950 . S
H3960 C3965 0.950 . S
H3961 C3966 0.963 . S
H3962 C3968 0.950 . S
H3963 C3969 0.950 . S
H3964 C3970 0.963 . S
C3965 H3960 0.950 . S
C3965 C3967 1.327 . S
C3965 C3971 1.429 . S
C3966 C3958 1.643 . S
C3966 H3961 0.963 . S
C3966 C3972 1.297 1_554 S
C3967 C3951 1.349 . S
C3967 H3959 0.950 . S
C3967 C3965 1.327 . S
C3968 C3956 1.349 . S
C3968 H3962 0.950 . S
C3968 C3969 1.327 . S
C3969 H3963 0.950 . S
C3969 C3968 1.327 . S
C3969 C3973 1.429 . S
C3970 C3953 1.642 . S
C3970 H3964 0.963 . S
C3970 C3974 1.297 1_556 S
C3971 C3952 1.429 . S
C3971 C3965 1.429 . S
C3971 C3972 1.523 . S
C3972 C3953 1.368 . S
C3972 C3966 1.297 1_556 S
C3972 C3971 1.523 . S
C3973 C3957 1.429 . S
C3973 C3969 1.429 . S
C3973 C3974 1.523 . S
C3974 C3958 1.368 . S
C3974 C3970 1.297 1_554 S
C3974 C3973 1.523 . S
H3975 C3950 0.950 . S
H3976 C3952 0.950 . S
H3977 C3953 0.949 . S
H3978 C3955 0.950 . S
H3979 C3957 0.950 . S
C3980 C3981 1.349 . S
C3980 C3982 1.327 . S
C3980 H4005 0.950 . S
C3981 C3980 1.349 . S
C3981 C3997 1.349 . S
C3982 C3980 1.327 . S
C3982 C4001 1.429 . S
C3982 H4006 0.950 . S
C3983 C4000 1.574 . S
C3983 C4002 1.368 . S
C3983 H4007 0.949 . S
H3984 C3988 0.949 . S
C3985 C3986 1.349 . S
C3985 C3987 1.327 . S
C3985 H4008 0.950 . S
C3986 C3985 1.349 . S
C3986 C3998 1.349 . S
C3987 C3985 1.327 . S
C3987 C4003 1.429 . S
C3987 H4009 0.950 . S
C3988 H3984 0.949 . S
C3988 C3996 1.574 . S
C3988 C4004 1.368 . S
H3989 C3997 0.950 . S
H3990 C3995 0.950 . S
H3991 C3996 0.949 . S
H3992 C3998 0.950 . S
H3993 C3999 0.950 . S
H3994 C4000 0.949 . S
C3995 H3990 0.950 . S
C3995 C3997 1.327 . S
C3995 C4001 1.429 . S
C3996 C3988 1.574 . S
C3996 H3991 0.949 . S
C3996 C4002 1.368 . S
C3997 C3981 1.349 . S
C3997 H3989 0.950 . S
C3997 C3995 1.327 . S
C3998 C3986 1.349 . S
C3998 H3992 0.950 . S
C3998 C3999 1.327 . S
C3999 H3993 0.950 . S
C3999 C3998 1.327 . S
C3999 C4003 1.429 . S
C4000 C3983 1.574 . S
C4000 H3994 0.949 . S
C4000 C4004 1.368 . S
C4001 C3982 1.429 . S
C4001 C3995 1.429 . S
C4001 C4002 1.523 . S
C4002 C3983 1.368 . S
C4002 C3996 1.368 . S
C4002 C4001 1.523 . S
C4003 C3987 1.429 . S
C4003 C3999 1.429 . S
C4003 C4004 1.523 . S
C4004 C3988 1.368 . S
C4004 C4000 1.368 . S
C4004 C4003 1.523 . S
H4005 C3980 0.950 . S
H4006 C3982 0.950 . S
H4007 C3983 0.949 . S
H4008 C3985 0.950 . S
H4009 C3987 0.950 . S
C4010 C4011 1.349 . S
C4010 C4012 1.327 . S
C4010 H4035 0.950 . S
C4011 C4010 1.349 . S
C4011 C4027 1.349 . S
C4012 C4010 1.327 . S
C4012 C4031 1.429 . S
C4012 H4036 0.950 . S
C4013 C4030 1.574 . S
C4013 C4032 1.368 . S
C4013 H4037 0.949 . S
H4014 C4018 0.949 . S
C4015 C4016 1.349 . S
C4015 C4017 1.327 . S
C4015 H4038 0.950 . S
C4016 C4015 1.349 . S
C4016 C4028 1.349 . S
C4017 C4015 1.327 . S
C4017 C4033 1.429 . S
C4017 H4039 0.950 . S
C4018 H4014 0.949 . S
C4018 C4026 1.574 . S
C4018 C4034 1.368 . S
H4019 C4027 0.950 . S
H4020 C4025 0.950 . S
H4021 C4026 0.949 . S
H4022 C4028 0.950 . S
H4023 C4029 0.950 . S
H4024 C4030 0.949 . S
C4025 H4020 0.950 . S
C4025 C4027 1.327 . S
C4025 C4031 1.429 . S
C4026 C4018 1.574 . S
C4026 H4021 0.949 . S
C4026 C4032 1.368 . S
C4027 C4011 1.349 . S
C4027 H4019 0.950 . S
C4027 C4025 1.327 . S
C4028 C4016 1.349 . S
C4028 H4022 0.950 . S
C4028 C4029 1.327 . S
C4029 H4023 0.950 . S
C4029 C4028 1.327 . S
C4029 C4033 1.429 . S
C4030 C4013 1.574 . S
C4030 H4024 0.949 . S
C4030 C4034 1.368 . S
C4031 C4012 1.429 . S
C4031 C4025 1.429 . S
C4031 C4032 1.523 . S
C4032 C4013 1.368 . S
C4032 C4026 1.368 . S
C4032 C4031 1.523 . S
C4033 C4017 1.429 . S
C4033 C4029 1.429 . S
C4033 C4034 1.523 . S
C4034 C4018 1.368 . S
C4034 C4030 1.368 . S
C4034 C4033 1.523 . S
H4035 C4010 0.950 . S
H4036 C4012 0.950 . S
H4037 C4013 0.949 . S
H4038 C4015 0.950 . S
H4039 C4017 0.950 . S
C4040 C4041 1.349 . S
C4040 C4042 1.327 . S
C4040 H4065 0.950 . S
C4041 C4040 1.349 . S
C4041 C4057 1.349 . S
C4042 C4040 1.327 . S
C4042 C4061 1.429 . S
C4042 H4066 0.950 . S
C4043 C4060 1.574 . S
C4043 C4062 1.368 . S
C4043 H4067 0.949 . S
H4044 C4048 0.949 . S
C4045 C4046 1.349 . S
C4045 C4047 1.327 . S
C4045 H4068 0.950 . S
C4046 C4045 1.349 . S
C4046 C4058 1.349 . S
C4047 C4045 1.327 . S
C4047 C4063 1.429 . S
C4047 H4069 0.950 . S
C4048 H4044 0.949 . S
C4048 C4056 1.574 . S
C4048 C4064 1.368 . S
H4049 C4057 0.950 . S
H4050 C4055 0.950 . S
H4051 C4056 0.949 . S
H4052 C4058 0.950 . S
H4053 C4059 0.950 . S
H4054 C4060 0.949 . S
C4055 H4050 0.950 . S
C4055 C4057 1.327 . S
C4055 C4061 1.429 . S
C4056 C4048 1.574 . S
C4056 H4051 0.949 . S
C4056 C4062 1.368 . S
C4057 C4041 1.349 . S
C4057 H4049 0.950 . S
C4057 C4055 1.327 . S
C4058 C4046 1.349 . S
C4058 H4052 0.950 . S
C4058 C4059 1.327 . S
C4059 H4053 0.950 . S
C4059 C4058 1.327 . S
C4059 C4063 1.429 . S
C4060 C4043 1.574 . S
C4060 H4054 0.949 . S
C4060 C4064 1.368 . S
C4061 C4042 1.429 . S
C4061 C4055 1.429 . S
C4061 C4062 1.523 . S
C4062 C4043 1.368 . S
C4062 C4056 1.368 . S
C4062 C4061 1.523 . S
C4063 C4047 1.429 . S
C4063 C4059 1.429 . S
C4063 C4064 1.523 . S
C4064 C4048 1.368 . S
C4064 C4060 1.368 . S
C4064 C4063 1.523 . S
H4065 C4040 0.950 . S
H4066 C4042 0.950 . S
H4067 C4043 0.949 . S
H4068 C4045 0.950 . S
H4069 C4047 0.950 . S
C4070 C4071 1.349 . S
C4070 C4072 1.327 . S
C4070 H4095 0.950 . S
C4071 C4070 1.349 . S
C4071 C4087 1.349 . S
C4072 C4070 1.327 . S
C4072 C4091 1.429 . S
C4072 H4096 0.950 . S
C4073 C4090 1.643 . S
C4073 C4092 1.368 . S
C4073 H4097 0.949 . S
H4074 C4078 0.949 . S
C4075 C4076 1.349 . S
C4075 C4077 1.327 . S
C4075 H4098 0.950 . S
C4076 C4075 1.349 . S
C4076 C4088 1.349 . S
C4077 C4075 1.327 . S
C4077 C4093 1.429 . S
C4077 H4099 0.950 . S
C4078 H4074 0.949 . S
C4078 C4086 1.642 . S
C4078 C4094 1.368 . S
H4079 C4087 0.950 . S
H4080 C4085 0.950 . S
H4081 C4086 0.963 . S
H4082 C4088 0.950 . S
H4083 C4089 0.950 . S
H4084 C4090 0.963 . S
C4085 H4080 0.950 . S
C4085 C4087 1.327 . S
C4085 C4091 1.429 . S
C4086 C4078 1.642 . S
C4086 H4081 0.963 . S
C4086 C4092 1.297 1_554 S
C4087 C4071 1.349 . S
C4087 H4079 0.950 . S
C4087 C4085 1.327 . S
C4088 C4076 1.349 . S
C4088 H4082 0.950 . S
C4088 C4089 1.327 . S
C4089 H4083 0.950 . S
C4089 C4088 1.327 . S
C4089 C4093 1.429 . S
C4090 C4073 1.643 . S
C4090 H4084 0.963 . S
C4090 C4094 1.297 1_556 S
C4091 C4072 1.429 . S
C4091 C4085 1.429 . S
C4091 C4092 1.523 . S
C4092 C4073 1.368 . S
C4092 C4086 1.297 1_556 S
C4092 C4091 1.523 . S
C4093 C4077 1.429 . S
C4093 C4089 1.429 . S
C4093 C4094 1.523 . S
C4094 C4078 1.368 . S
C4094 C4090 1.297 1_554 S
C4094 C4093 1.523 . S
H4095 C4070 0.950 . S
H4096 C4072 0.950 . S
H4097 C4073 0.949 . S
H4098 C4075 0.950 . S
H4099 C4077 0.950 . S
C4100 C4101 1.349 . S
C4100 C4102 1.327 . S
C4100 H4125 0.950 . S
C4101 C4100 1.349 . S
C4101 C4117 1.349 . S
C4102 C4100 1.327 . S
C4102 C4121 1.429 . S
C4102 H4126 0.950 . S
C4103 C4120 1.574 . S
C4103 C4122 1.368 . S
C4103 H4127 0.949 . S
H4104 C4108 0.949 . S
C4105 C4106 1.349 . S
C4105 C4107 1.327 . S
C4105 H4128 0.950 . S
C4106 C4105 1.349 . S
C4106 C4118 1.349 . S
C4107 C4105 1.327 . S
C4107 C4123 1.429 . S
C4107 H4129 0.950 . S
C4108 H4104 0.949 . S
C4108 C4116 1.574 . S
C4108 C4124 1.368 . S
H4109 C4117 0.950 . S
H4110 C4115 0.950 . S
H4111 C4116 0.949 . S
H4112 C4118 0.950 . S
H4113 C4119 0.950 . S
H4114 C4120 0.949 . S
C4115 H4110 0.950 . S
C4115 C4117 1.327 . S
C4115 C4121 1.429 . S
C4116 C4108 1.574 . S
C4116 H4111 0.949 . S
C4116 C4122 1.368 . S
C4117 C4101 1.349 . S
C4117 H4109 0.950 . S
C4117 C4115 1.327 . S
C4118 C4106 1.349 . S
C4118 H4112 0.950 . S
C4118 C4119 1.327 . S
C4119 H4113 0.950 . S
C4119 C4118 1.327 . S
C4119 C4123 1.429 . S
C4120 C4103 1.574 . S
C4120 H4114 0.949 . S
C4120 C4124 1.368 . S
C4121 C4102 1.429 . S
C4121 C4115 1.429 . S
C4121 C4122 1.523 . S
C4122 C4103 1.368 . S
C4122 C4116 1.368 . S
C4122 C4121 1.523 . S
C4123 C4107 1.429 . S
C4123 C4119 1.429 . S
C4123 C4124 1.523 . S
C4124 C4108 1.368 . S
C4124 C4120 1.368 . S
C4124 C4123 1.523 . S
H4125 C4100 0.950 . S
H4126 C4102 0.950 . S
H4127 C4103 0.949 . S
H4128 C4105 0.950 . S
H4129 C4107 0.950 . S
C4130 C4131 1.349 . S
C4130 C4132 1.327 . S
C4130 H4155 0.950 . S
C4131 C4130 1.349 . S
C4131 C4147 1.349 . S
C4132 C4130 1.327 . S
C4132 C4151 1.429 . S
C4132 H4156 0.950 . S
C4133 C4150 1.574 . S
C4133 C4152 1.368 . S
C4133 H4157 0.949 . S
H4134 C4138 0.949 . S
C4135 C4136 1.349 . S
C4135 C4137 1.327 . S
C4135 H4158 0.950 . S
C4136 C4135 1.349 . S
C4136 C4148 1.349 . S
C4137 C4135 1.327 . S
C4137 C4153 1.429 . S
C4137 H4159 0.950 . S
C4138 H4134 0.949 . S
C4138 C4146 1.574 . S
C4138 C4154 1.368 . S
H4139 C4147 0.950 . S
H4140 C4145 0.950 . S
H4141 C4146 0.949 . S
H4142 C4148 0.950 . S
H4143 C4149 0.950 . S
H4144 C4150 0.949 . S
C4145 H4140 0.950 . S
C4145 C4147 1.327 . S
C4145 C4151 1.429 . S
C4146 C4138 1.574 . S
C4146 H4141 0.949 . S
C4146 C4152 1.368 . S
C4147 C4131 1.349 . S
C4147 H4139 0.950 . S
C4147 C4145 1.327 . S
C4148 C4136 1.349 . S
C4148 H4142 0.950 . S
C4148 C4149 1.327 . S
C4149 H4143 0.950 . S
C4149 C4148 1.327 . S
C4149 C4153 1.429 . S
C4150 C4133 1.574 . S
C4150 H4144 0.949 . S
C4150 C4154 1.368 . S
C4151 C4132 1.429 . S
C4151 C4145 1.429 . S
C4151 C4152 1.523 . S
C4152 C4133 1.368 . S
C4152 C4146 1.368 . S
C4152 C4151 1.523 . S
C4153 C4137 1.429 . S
C4153 C4149 1.429 . S
C4153 C4154 1.523 . S
C4154 C4138 1.368 . S
C4154 C4150 1.368 . S
C4154 C4153 1.523 . S
H4155 C4130 0.950 . S
H4156 C4132 0.950 . S
H4157 C4133 0.949 . S
H4158 C4135 0.950 . S
H4159 C4137 0.950 . S
C1281 C7 0.430 . S
C1286 C1091 0.466 . S
C1311 C47 0.429 . S
C1316 C331 0.466 . S
C1341 C87 0.430 . S
C1346 C1011 0.466 . S
C1371 C411 0.466 . S
C1376 C127 0.430 . S
C1401 C167 0.430 . S
C1406 C1171 0.466 . S
C1431 C571 0.466 . S
C1436 C207 0.430 . S
C1461 C1251 0.466 . S
C1466 C247 0.430 . S
C1491 C287 0.430 . S
C1496 C491 0.466 . S
C1521 C336 0.430 . S
C1526 C762 0.466 . S
C1551 C376 0.430 . S
C1556 C2 0.466 . S
C1581 C682 0.466 . S
C1586 C416 0.430 . S
C1611 C82 0.466 . S
C1616 C456 0.430 . S
C1641 C496 0.430 . S
C1646 C842 0.466 . S
C1671 C536 0.430 . S
C1676 C242 0.466 . S
C1701 C576 0.430 . S
C1706 C922 0.466 . S
C1731 C162 0.466 . S
C1736 C616 0.430 . S
C1761 C451 0.466 . S
C1766 C647 0.430 . S
C1791 C971 0.466 . S
C1796 C687 0.430 . S
C1821 C371 0.466 . S
C1826 C727 0.430 . S
C1851 C767 0.430 . S
C1856 C1051 0.466 . S
C1881 C531 0.466 . S
C1886 C807 0.430 . S
C1911 C1211 0.466 . S
C1916 C847 0.430 . S
C1941 C611 0.466 . S
C1946 C887 0.430 . S
C1971 C927 0.430 . S
C1976 C1131 0.466 . S
C2001 C976 0.430 . S
C2006 C122 0.466 . S
C2031 C1016 0.430 . S
C2036 C642 0.466 . S
C2061 C1056 0.430 . S
C2066 C42 0.466 . S
C2091 C1096 0.430 . S
C2096 C722 0.466 . S
C2121 C202 0.466 . S
C2126 C1136 0.430 . S
C2151 C882 0.466 . S
C2156 C1176 0.430 . S
C2181 C1216 0.430 . S
C2186 C282 0.466 . S
C2211 C1256 0.430 . S
C2216 C802 0.466 . S
C2241 C19 2.403 . S
C2246 C739 2.403 . S
C2271 C779 2.402 . S
C2276 C59 2.402 . S
C2301 C99 2.403 . S
C2306 C659 2.403 . S
C2331 C139 2.403 . S
C2336 C699 2.403 . S
C2361 C899 2.403 . S
C2366 C179 2.403 . S
C2391 C219 2.403 . S
C2396 C939 2.403 . S
C2421 C819 2.403 . S
C2426 C259 2.403 . S
C2451 C299 2.402 . S
C2456 C859 2.402 . S
C2481 C1050 2.403 . S
C2486 C330 2.403 . S
C2511 C370 2.402 . S
C2516 C1090 2.402 . S
C2541 C410 2.403 . S
C2546 C970 2.403 . S
C2571 C450 2.403 . S
C2576 C1010 2.403 . S
C2601 C1210 2.403 . S
C2606 C490 2.403 . S
C2631 C1250 2.403 . S
C2636 C530 2.403 . S
C2661 C570 2.403 . S
C2666 C1130 2.403 . S
C2691 C610 2.402 . S
C2696 C1170 2.402 . S
C2721 C11 3.162 . S
C2726 C962 3.162 . S
C2751 C362 3.161 . S
C2756 C51 3.161 . S
C2781 C91 3.162 . S
C2786 C1042 3.162 . S
C2811 C131 3.162 . S
C2816 C442 3.162 . S
C2841 C1122 3.162 . S
C2846 C171 3.162 . S
C2871 C522 3.161 . S
C2876 C211 3.161 . S
C2901 C251 3.162 . S
C2906 C1202 3.162 . S
C2931 C291 3.162 . S
C2936 C602 3.162 . S
C2961 C651 3.161 . S
C2966 C322 3.161 . S
C2991 C731 3.162 . S
C2996 C402 3.162 . S
C3021 C811 3.161 . S
C3026 C482 3.161 . S
C3051 C562 3.162 . S
C3056 C891 3.162 . S
C3081 C691 3.162 . S
C3086 C1002 3.162 . S
C3111 C771 3.161 . S
C3116 C1082 3.162 . S
C3141 C1162 3.161 . S
C3146 C851 3.161 . S
C3171 C1242 3.162 . S
C3176 C931 3.162 . S
C3201 C10 4.651 . S
C3206 C210 4.651 1_545 S
C3231 C250 4.651 . S
C3236 C50 4.651 1_545 S
C3261 C290 4.651 1_565 S
C3266 C90 4.651 . S
C3291 C170 4.651 . S
C3296 C130 4.651 1_565 S
C3321 C339 4.651 . S
C3326 C539 4.651 1_565 S
C3351 C379 4.651 1_565 S
C3356 C579 4.651 . S
C3381 C619 4.651 1_545 S
C3386 C419 4.651 . S
C3411 C459 4.651 1_545 S
C3416 C499 4.651 . S
C3441 C650 4.651 . S
C3446 C850 4.651 . S
C3471 C690 4.651 . S
C3476 C890 4.651 . S
C3501 C730 4.651 . S
C3506 C930 4.651 . S
C3531 C810 4.651 . S
C3536 C770 4.651 . S
C3561 C979 4.651 . S
C3566 C1179 4.651 . S
C3591 C1019 4.651 . S
C3596 C1219 4.651 . S
C3621 C1259 4.651 . S
C3626 C1059 4.651 . S
C3651 C1099 4.651 . S
C3656 C1139 4.651 . S
C3681 C16 0.907 . S
C3686 C176 0.907 . S
C3711 C56 0.907 . S
C3716 C216 0.907 . S
C3741 C256 0.907 . S
C3746 C96 0.907 . S
C3771 C296 0.907 . S
C3776 C136 0.907 . S
C3801 C327 0.907 . S
C3806 C487 0.907 . S
C3831 C527 0.907 . S
C3836 C367 0.907 . S
C3861 C567 0.907 . S
C3866 C407 0.907 . S
C3891 C607 0.907 . S
C3896 C447 0.907 . S
C3921 C656 0.907 . S
C3926 C816 0.907 . S
C3951 C856 0.907 . S
C3956 C696 0.907 . S
C3981 C736 0.907 . S
C3986 C896 0.907 . S
C4011 C936 0.907 . S
C4016 C776 0.907 . S
C4041 C1127 0.907 . S
C4046 C967 0.907 . S
C4071 C1007 0.907 . S
C4076 C1167 0.907 . S
C4101 C1047 0.907 . S
C4106 C1207 0.907 . S
C4131 C1087 0.907 . S
C4136 C1247 0.907 . S
