# Generated by pormake.
# Topology fob, (5)-cn, num edge types: 1
# Building blocks:
#     Node 0, Type 0, BuildingBlock: BEQFEK_clean_sbu_0, # of connection points: 5
#     Node 1, Type 0, BuildingBlock: BEQFEK_clean_sbu_0, # of connection points: 5
#     Node 2, Type 0, BuildingBlock: BEQFEK_clean_sbu_0, # of connection points: 5
#     Node 3, Type 0, BuildingBlock: BEQFEK_clean_sbu_0, # of connection points: 5
#     Node 4, Type 0, BuildingBlock: BEQFEK_clean_sbu_0, # of connection points: 5
#     Node 5, Type 0, BuildingBlock: BEQFEK_clean_sbu_0, # of connection points: 5
#     Node 6, Type 0, BuildingBlock: BEQFEK_clean_sbu_0, # of connection points: 5
#     Node 7, Type 0, BuildingBlock: BEQFEK_clean_sbu_0, # of connection points: 5
#     Node 8, Type 0, BuildingBlock: BEQFEK_clean_sbu_0, # of connection points: 5
#     Node 9, Type 0, BuildingBlock: BEQFEK_clean_sbu_0, # of connection points: 5
#     Node 10, Type 0, BuildingBlock: BEQFEK_clean_sbu_0, # of connection points: 5
#     Node 11, Type 0, BuildingBlock: BEQFEK_clean_sbu_0, # of connection points: 5
#     Node 12, Type 0, BuildingBlock: BEQFEK_clean_sbu_0, # of connection points: 5
#     Node 13, Type 0, BuildingBlock: BEQFEK_clean_sbu_0, # of connection points: 5
#     Node 14, Type 0, BuildingBlock: BEQFEK_clean_sbu_0, # of connection points: 5
#     Node 15, Type 0, BuildingBlock: BEQFEK_clean_sbu_0, # of connection points: 5
#     Edge 16, Type (0, 0), BuildingBlock: CIFDUS_clean_linker_0, # of connection points: 2
#     Edge 17, Type (0, 0), BuildingBlock: CIFDUS_clean_linker_0, # of connection points: 2
#     Edge 18, Type (0, 0), BuildingBlock: CIFDUS_clean_linker_0, # of connection points: 2
#     Edge 19, Type (0, 0), BuildingBlock: CIFDUS_clean_linker_0, # of connection points: 2
#     Edge 20, Type (0, 0), BuildingBlock: CIFDUS_clean_linker_0, # of connection points: 2
#     Edge 21, Type (0, 0), BuildingBlock: CIFDUS_clean_linker_0, # of connection points: 2
#     Edge 22, Type (0, 0), BuildingBlock: CIFDUS_clean_linker_0, # of connection points: 2
#     Edge 23, Type (0, 0), BuildingBlock: CIFDUS_clean_linker_0, # of connection points: 2
#     Edge 24, Type (0, 0), BuildingBlock: CIFDUS_clean_linker_0, # of connection points: 2
#     Edge 25, Type (0, 0), BuildingBlock: CIFDUS_clean_linker_0, # of connection points: 2
#     Edge 26, Type (0, 0), BuildingBlock: CIFDUS_clean_linker_0, # of connection points: 2
#     Edge 27, Type (0, 0), BuildingBlock: CIFDUS_clean_linker_0, # of connection points: 2
#     Edge 28, Type (0, 0), BuildingBlock: CIFDUS_clean_linker_0, # of connection points: 2
#     Edge 29, Type (0, 0), BuildingBlock: CIFDUS_clean_linker_0, # of connection points: 2
#     Edge 30, Type (0, 0), BuildingBlock: CIFDUS_clean_linker_0, # of connection points: 2
#     Edge 31, Type (0, 0), BuildingBlock: CIFDUS_clean_linker_0, # of connection points: 2
#     Edge 32, Type (0, 0), BuildingBlock: CIFDUS_clean_linker_0, # of connection points: 2
#     Edge 33, Type (0, 0), BuildingBlock: CIFDUS_clean_linker_0, # of connection points: 2
#     Edge 34, Type (0, 0), BuildingBlock: CIFDUS_clean_linker_0, # of connection points: 2
#     Edge 35, Type (0, 0), BuildingBlock: CIFDUS_clean_linker_0, # of connection points: 2
#     Edge 36, Type (0, 0), BuildingBlock: CIFDUS_clean_linker_0, # of connection points: 2
#     Edge 37, Type (0, 0), BuildingBlock: CIFDUS_clean_linker_0, # of connection points: 2
#     Edge 38, Type (0, 0), BuildingBlock: CIFDUS_clean_linker_0, # of connection points: 2
#     Edge 39, Type (0, 0), BuildingBlock: CIFDUS_clean_linker_0, # of connection points: 2
#     Edge 40, Type (0, 0), BuildingBlock: CIFDUS_clean_linker_0, # of connection points: 2
#     Edge 41, Type (0, 0), BuildingBlock: CIFDUS_clean_linker_0, # of connection points: 2
#     Edge 42, Type (0, 0), BuildingBlock: CIFDUS_clean_linker_0, # of connection points: 2
#     Edge 43, Type (0, 0), BuildingBlock: CIFDUS_clean_linker_0, # of connection points: 2
#     Edge 44, Type (0, 0), BuildingBlock: CIFDUS_clean_linker_0, # of connection points: 2
#     Edge 45, Type (0, 0), BuildingBlock: CIFDUS_clean_linker_0, # of connection points: 2
#     Edge 46, Type (0, 0), BuildingBlock: CIFDUS_clean_linker_0, # of connection points: 2
#     Edge 47, Type (0, 0), BuildingBlock: CIFDUS_clean_linker_0, # of connection points: 2
#     Edge 48, Type (0, 0), BuildingBlock: CIFDUS_clean_linker_0, # of connection points: 2
#     Edge 49, Type (0, 0), BuildingBlock: CIFDUS_clean_linker_0, # of connection points: 2
#     Edge 50, Type (0, 0), BuildingBlock: CIFDUS_clean_linker_0, # of connection points: 2
#     Edge 51, Type (0, 0), BuildingBlock: CIFDUS_clean_linker_0, # of connection points: 2
#     Edge 52, Type (0, 0), BuildingBlock: CIFDUS_clean_linker_0, # of connection points: 2
#     Edge 53, Type (0, 0), BuildingBlock: CIFDUS_clean_linker_0, # of connection points: 2
#     Edge 54, Type (0, 0), BuildingBlock: CIFDUS_clean_linker_0, # of connection points: 2
#     Edge 55, Type (0, 0), BuildingBlock: CIFDUS_clean_linker_0, # of connection points: 2
# Relax obj value: 0.086
# Max RMSD: 0.160
# Mean RMSD: 0.160
data_MOF--net-fob--node1-BEQFEK_clean_sbu_0--edge1-CIFDUS_clean_linker_0
_symmetry_space_group_name_H-M    P1
_symmetry_Int_Tables_number       1
_symmetry_cell_setting            triclinic
loop_
_symmetry_equiv_pos_as_xyz
'x, y, z'
_cell_length_a     17.776304
_cell_length_b     66.919266
_cell_length_c     49.036263
_cell_angle_alpha  89.852064
_cell_angle_beta   88.643847
_cell_angle_gamma 89.900646
loop_
_atom_site_label
_atom_site_type_symbol
_atom_site_fract_x
_atom_site_fract_y
_atom_site_fract_z
_atom_type_partial_charge
Co0 Co 0.08864 0.09917 0.4576 0.0
Co1 Co 0.1025 0.14564 0.46606 0.0
C2 C 0.19728 0.12492 0.42446 0.0
O3 O 0.17114 0.10759 0.43056 0.0
O4 O 0.17549 0.14051 0.43716 0.0
C5 C 0.11765 0.05612 0.46679 0.0
O6 O 0.18748 0.06056 0.47251 0.0
C7 C 0.15805 0.1867 0.47547 0.0
C8 C 0.05537 0.20079 0.49314 0.0
C9 C 0.12909 0.20465 0.4852 0.0
N10 N 0.10363 0.17281 0.47763 0.0
N11 N 0.04269 0.18132 0.48838 0.0
C12 C 0.23332 0.18318 0.46202 0.0
H13 H 0.25051 0.16735 0.46445 0.0
H14 H 0.27683 0.19309 0.47043 0.0
H15 H 0.22922 0.18648 0.43992 0.0
C16 C 0.09821 0.10105 0.51814 0.0
N17 N 0.10174 0.10941 0.49314 0.0
N18 N 0.11912 0.12833 0.49553 0.0
C19 C 0.13565 0.13224 0.52151 0.0
C20 C 0.12089 0.11519 0.53725 0.0
C21 C 0.06231 0.08115 0.52362 0.0
H22 H 0.02304 0.07738 0.50719 0.0
H23 H 0.10649 0.06945 0.52444 0.0
H24 H 0.02996 0.08126 0.54324 0.0
O25 O -0.00523 0.10913 0.44378 0.0
O26 O 0.00258 0.14186 0.44982 0.0
H27 H 0.12872 0.16266 0.53492 0.0
H28 H 0.20902 0.14899 0.5476 0.0
C29 C 0.17247 0.15133 0.52984 0.0
H30 H 0.20783 0.1572 0.51273 0.0
H31 H -0.00812 0.17388 0.49198 0.0
O32 O 0.07325 0.06988 0.45937 0.0
C33 C 0.96734 0.12655 0.44171 0.0
Co34 Co 0.1322 0.09829 0.77523 0.0
Co35 Co 0.10154 0.14517 0.77808 0.0
C36 C 0.00243 0.11646 0.80819 0.0
O37 O 0.03823 0.1011 0.79917 0.0
O38 O 0.02054 0.13416 0.80095 0.0
C39 C 0.12056 0.05555 0.75925 0.0
O40 O 0.04747 0.05793 0.75742 0.0
C41 C 0.03613 0.18647 0.77235 0.0
C42 C 0.1385 0.20283 0.75909 0.0
C43 C 0.06189 0.2052 0.76372 0.0
N44 N 0.09483 0.17365 0.77216 0.0
N45 N 0.15578 0.18368 0.76451 0.0
C46 C 0.95788 0.18094 0.7814 0.0
H47 H 0.9594 0.16906 0.79717 0.0
H48 H 0.9268 0.17511 0.76377 0.0
H49 H 0.92732 0.19414 0.78973 0.0
C50 C 0.14094 0.10833 0.71656 0.0
N51 N 0.12787 0.11332 0.74279 0.0
N52 N 0.10463 0.13191 0.74406 0.0
C53 C 0.09428 0.13876 0.71864 0.0
C54 C 0.11873 0.12423 0.70002 0.0
C55 C 0.18298 0.08981 0.70828 0.0
H56 H 0.22141 0.08518 0.72462 0.0
H57 H 0.14243 0.07753 0.70488 0.0
H58 H 0.21728 0.09234 0.6894 0.0
O59 O 0.21424 0.10802 0.79636 0.0
O60 O 0.19504 0.14076 0.79912 0.0
H61 H 0.09267 0.17039 0.7118 0.0
H62 H 0.02156 0.15675 0.69362 0.0
C63 C 0.05254 0.15771 0.71293 0.0
H64 H 0.01101 0.16062 0.72961 0.0
H65 H 0.20914 0.17728 0.76232 0.0
O66 O 0.16076 0.07011 0.76676 0.0
C67 C 0.23283 0.12516 0.80481 0.0
Co68 Co 0.89306 0.91569 0.51888 0.0
Co69 Co 0.86464 0.86905 0.51987 0.0
C70 C 0.75731 0.89893 0.54641 0.0
O71 O 0.79385 0.91426 0.53808 0.0
O72 O 0.77883 0.88123 0.54042 0.0
C73 C 0.88187 0.95813 0.50611 0.0
O74 O 0.80894 0.95511 0.50536 0.0
C75 C 0.79189 0.82993 0.5093 0.0
C76 C 0.89063 0.80992 0.51167 0.0
C77 C 0.81433 0.81008 0.50662 0.0
N78 N 0.85269 0.84094 0.51515 0.0
N79 N 0.91123 0.82883 0.51674 0.0
C80 C 0.71403 0.83829 0.50736 0.0
H81 H 0.70802 0.85202 0.51977 0.0
H82 H 0.70315 0.84228 0.48584 0.0
H83 H 0.67158 0.82713 0.5143 0.0
C84 C 0.90791 0.9072 0.45984 0.0
N85 N 0.89495 0.90124 0.48576 0.0
N86 N 0.88363 0.88181 0.4861 0.0
C87 C 0.88951 0.87477 0.46042 0.0
C88 C 0.90494 0.89065 0.44305 0.0
C89 C 0.92515 0.92824 0.45138 0.0
H90 H 0.97154 0.93412 0.46374 0.0
H91 H 0.87462 0.93767 0.45511 0.0
H92 H 0.94201 0.92923 0.42949 0.0
O93 O 0.96601 0.90471 0.54446 0.0
O94 O 0.95097 0.8718 0.54332 0.0
H95 H 0.91778 0.84378 0.46325 0.0
H96 H 0.88378 0.85114 0.43027 0.0
C97 C 0.87717 0.85345 0.45257 0.0
H98 H 0.81956 0.84893 0.45899 0.0
H99 H 0.96567 0.83353 0.52092 0.0
O100 O 0.925 0.94366 0.5119 0.0
C101 C 0.98359 0.88721 0.55227 0.0
Co102 Co 0.84866 0.92466 0.2069 0.0
Co103 Co 0.87271 0.87812 0.20553 0.0
C104 C 0.96827 0.90772 0.17207 0.0
O105 O 0.93755 0.92339 0.18215 0.0
O106 O 0.94813 0.89018 0.1796 0.0
C107 C 0.84115 0.96899 0.21428 0.0
O108 O 0.91087 0.97105 0.20523 0.0
C109 C 0.94939 0.83956 0.21621 0.0
C110 C 0.85325 0.81891 0.21258 0.0
C111 C 0.9291 0.8195 0.21837 0.0
N112 N 0.88787 0.85015 0.20979 0.0
N113 N 0.83088 0.83768 0.20749 0.0
C114 C 0.02572 0.84859 0.21904 0.0
H115 H 0.02922 0.86305 0.20797 0.0
H116 H 0.03599 0.8515 0.24089 0.0
H117 H 0.06989 0.83824 0.21112 0.0
C118 C 0.86468 0.91733 0.26552 0.0
N119 N 0.86446 0.91074 0.23966 0.0
N120 N 0.87067 0.89116 0.23957 0.0
C121 C 0.87276 0.88458 0.26553 0.0
C122 C 0.86936 0.90098 0.28277 0.0
C123 C 0.8628 0.93894 0.27331 0.0
H124 H 0.80452 0.9447 0.27158 0.0
H125 H 0.89993 0.94759 0.25918 0.0
H126 H 0.88171 0.9412 0.29448 0.0
O127 O 0.76478 0.91339 0.18666 0.0
O128 O 0.77577 0.88049 0.18821 0.0
H129 H 0.83302 0.85463 0.25998 0.0
H130 H 0.84883 0.86116 0.29501 0.0
C131 C 0.87011 0.86301 0.27371 0.0
H132 H 0.92754 0.85659 0.27207 0.0
H133 H 0.77628 0.84201 0.20287 0.0
O134 O 0.81186 0.95174 0.21573 0.0
C135 C 0.74102 0.89606 0.18086 0.0
Co136 Co 0.10707 0.60717 0.96185 0.0
Co137 Co 0.12588 0.65415 0.95578 0.0
C138 C 0.22469 0.62474 0.92493 0.0
O139 O 0.19379 0.60957 0.93626 0.0
O140 O 0.20438 0.64257 0.93082 0.0
C141 C 0.02882 0.57011 0.97351 0.0
O142 O 0.96897 0.58018 0.9663 0.0
C143 C 0.19035 0.69502 0.96174 0.0
C144 C 0.08834 0.71323 0.95535 0.0
C145 C 0.16406 0.71462 0.96094 0.0
N146 N 0.13228 0.68269 0.95708 0.0
N147 N 0.0717 0.69373 0.95321 0.0
C148 C 0.26974 0.68817 0.96514 0.0
H149 H 0.27647 0.67244 0.95841 0.0
H150 H 0.28474 0.68913 0.9869 0.0
H151 H 0.30885 0.698 0.95332 0.0
C152 C 0.12434 0.61772 0.01952 0.0
N153 N 0.12138 0.62301 -0.00689 0.0
N154 N 0.12778 0.64256 -0.00901 0.0
C155 C 0.13341 0.65036 0.01618 0.0
C156 C 0.13197 0.63486 0.03496 0.0
C157 C 0.12214 0.59658 0.02956 0.0
H158 H 0.16094 0.58727 0.01689 0.0
H159 H 0.13859 0.59544 0.05119 0.0
H160 H 0.06434 0.59062 0.02751 0.0
O161 O 0.01801 0.61578 0.94161 0.0
O162 O 0.02968 0.64872 0.93892 0.0
H163 H 0.09384 0.6802 0.00905 0.0
H164 H 0.11663 0.67508 0.04404 0.0
C165 C 0.13332 0.67224 0.02245 0.0
H166 H 0.19064 0.67827 0.01879 0.0
H167 H 0.01866 0.68795 0.94925 0.0
O168 O 0.09284 0.57864 0.97265 0.0
C169 C -0.00581 0.63276 0.9339 0.0
Co170 Co 0.09127 0.60491 0.27236 0.0
Co171 Co 0.10038 0.65218 0.27346 0.0
C172 C 0.9812 0.62912 0.3049 0.0
O173 O 0.00488 0.61218 0.29643 0.0
O174 O 0.01212 0.64542 0.29709 0.0
C175 C 0.14378 0.56455 0.2742 0.0
O176 O 0.19007 0.5719 0.29203 0.0
C177 C 0.05342 0.69373 0.26305 0.0
C178 C 0.1635 0.709 0.25985 0.0
C179 C 0.08697 0.71203 0.25727 0.0
N180 N 0.10791 0.68036 0.26806 0.0
N181 N 0.17346 0.68966 0.26654 0.0
C182 C 0.97102 0.68906 0.26451 0.0
H183 H 0.95883 0.67861 0.28155 0.0
H184 H 0.95413 0.68169 0.24539 0.0
H185 H 0.93697 0.70283 0.26751 0.0
C186 C 0.08701 0.61273 0.21351 0.0
N187 N 0.09061 0.61925 0.23935 0.0
N188 N 0.09635 0.63885 0.23938 0.0
C189 C 0.09707 0.64544 0.21335 0.0
C190 C 0.09064 0.6291 0.19621 0.0
C191 C 0.08494 0.59111 0.20571 0.0
H192 H 0.13442 0.58337 0.21421 0.0
H193 H 0.03352 0.58412 0.21473 0.0
H194 H 0.08599 0.58901 0.18329 0.0
O195 O 0.18209 0.61112 0.29243 0.0
O196 O 0.1892 0.64416 0.294 0.0
H197 H 0.15112 0.67399 0.21426 0.0
H198 H 0.10408 0.669 0.18273 0.0
C199 C 0.10117 0.66699 0.20515 0.0
H200 H 0.0503 0.67483 0.21294 0.0
H201 H 0.22517 0.68267 0.26925 0.0
O202 O 0.09304 0.57573 0.26443 0.0
C203 C 0.21426 0.62696 0.30011 0.0
Co204 Co 0.87458 0.41736 0.01919 0.0
Co205 Co 0.88593 0.37004 0.01735 0.0
C206 C 0.77757 0.39175 0.05523 0.0
O207 O 0.79708 0.40905 0.0466 0.0
O208 O 0.80654 0.37579 0.04533 0.0
C209 C 0.93229 0.45749 0.01627 0.0
O210 O -0.00737 0.4488 0.02568 0.0
C211 C 0.83731 0.32877 0.0076 0.0
C212 C 0.94672 0.31343 0.00158 0.0
C213 C 0.8697 0.31032 0.00151 0.0
N214 N 0.8928 0.34206 0.01096 0.0
N215 N 0.95802 0.33277 0.00763 0.0
C216 C 0.75569 0.3343 0.00796 0.0
H217 H 0.7489 0.35057 0.00431 0.0
H218 H 0.72527 0.32574 -0.00769 0.0
H219 H 0.73058 0.33072 0.02832 0.0
C220 C 0.84494 0.41073 0.96091 0.0
N221 N 0.86111 0.40378 0.98587 0.0
N222 N 0.86781 0.3842 0.98485 0.0
C223 C 0.85728 0.3781 0.95908 0.0
C224 C 0.84165 0.39466 0.94319 0.0
C225 C 0.83012 0.43225 0.9546 0.0
H226 H 0.79143 0.43862 0.9704 0.0
H227 H 0.80499 0.43415 0.93425 0.0
H228 H 0.88384 0.44065 0.95513 0.0
O229 O 0.97174 0.41048 0.03532 0.0
O230 O 0.98196 0.37758 0.03265 0.0
H231 H 0.87608 0.35637 0.92693 0.0
H232 H 0.81659 0.34824 0.95503 0.0
C233 C 0.86741 0.35704 0.94938 0.0
H234 H 0.9168 0.35019 0.9591 0.0
H235 H 0.01022 0.33974 0.00883 0.0
O236 O 0.87344 0.44705 0.01269 0.0
C237 C 0.00792 0.39443 0.03949 0.0
Co238 Co 0.83085 0.41983 0.70327 0.0
Co239 Co 0.85847 0.37282 0.70747 0.0
C240 C 0.96323 0.40064 0.67574 0.0
O241 O 0.9273 0.41648 0.68259 0.0
O242 O 0.94281 0.38333 0.68418 0.0
C243 C 0.84004 0.46374 0.70803 0.0
O244 O 0.91286 0.46198 0.70344 0.0
C245 C 0.92718 0.33269 0.71979 0.0
C246 C 0.82343 0.31546 0.72846 0.0
C247 C 0.90114 0.31381 0.72786 0.0
N248 N 0.86735 0.34481 0.71637 0.0
N249 N 0.80575 0.33427 0.72139 0.0
C250 C 0.00686 0.33903 0.71447 0.0
H251 H 0.00924 0.35153 0.69964 0.0
H252 H 0.03124 0.34427 0.73379 0.0
H253 H 0.04111 0.32636 0.70648 0.0
C254 C 0.83157 0.41552 0.76292 0.0
N255 N 0.83496 0.40752 0.73777 0.0
N256 N 0.84709 0.38816 0.73976 0.0
C257 C 0.85231 0.38327 0.76633 0.0
C258 C 0.84268 0.40046 0.78176 0.0
C259 C 0.81686 0.43714 0.76874 0.0
H260 H 0.76559 0.44201 0.75811 0.0
H261 H 0.86507 0.44615 0.7609 0.0
H262 H 0.80857 0.43999 0.79088 0.0
O263 O 0.75444 0.40766 0.68057 0.0
O264 O 0.76908 0.37485 0.68454 0.0
H265 H 0.82658 0.35235 0.77207 0.0
H266 H 0.88252 0.36283 0.79876 0.0
C267 C 0.87263 0.36291 0.77652 0.0
H268 H 0.92445 0.35771 0.76573 0.0
H269 H 0.75134 0.34006 0.72037 0.0
O270 O 0.79907 0.44821 0.70797 0.0
C271 C 0.73578 0.38992 0.67453 0.0
Co272 Co 0.59147 0.10502 0.96481 0.0
Co273 Co 0.59927 0.15224 0.96504 0.0
C274 C 0.71295 0.12657 0.93416 0.0
O275 O 0.68367 0.11 0.9419 0.0
O276 O 0.68596 0.14337 0.94198 0.0
C277 C 0.56382 0.06275 0.9551 0.0
O278 O 0.57249 0.0673 0.92913 0.0
C279 C 0.65538 0.19338 0.97341 0.0
C280 C 0.54753 0.20942 0.97982 0.0
C281 C 0.6248 0.21205 0.97954 0.0
N282 N 0.59848 0.1804 0.97055 0.0
N283 N 0.5343 0.19016 0.97402 0.0
C284 C 0.73657 0.18741 0.97279 0.0
H285 H 0.74233 0.1711 0.97636 0.0
H286 H 0.76794 0.19575 0.9884 0.0
H287 H 0.76153 0.19096 0.9524 0.0
C288 C 0.60191 0.11215 0.0241 0.0
N289 N 0.59594 0.11894 -0.00163 0.0
N290 N 0.59808 0.13859 -0.00145 0.0
C291 C 0.60495 0.14495 0.02439 0.0
C292 C 0.60771 0.12841 0.04138 0.0
C293 C 0.60165 0.0905 0.03182 0.0
H294 H 0.54785 0.08373 0.02558 0.0
H295 H 0.64805 0.0827 0.02065 0.0
H296 H 0.60764 0.0883 0.05408 0.0
O297 O 0.5064 0.11387 0.9426 0.0
O298 O 0.50869 0.14697 0.94466 0.0
H299 H 0.56758 0.17537 0.02547 0.0
H300 H 0.62211 0.16825 0.05453 0.0
C301 C 0.61603 0.16634 0.03226 0.0
H302 H 0.66773 0.17207 0.02199 0.0
H303 H 0.48137 0.18351 0.97322 0.0
O304 O 0.57332 0.07621 0.97292 0.0
C305 C 0.47975 0.13088 0.93632 0.0
Co306 Co 0.63765 0.11452 0.27539 0.0
Co307 Co 0.6022 0.16048 0.28031 0.0
C308 C 0.49555 0.12755 0.30098 0.0
O309 O 0.53635 0.11308 0.29232 0.0
O310 O 0.51517 0.1458 0.29734 0.0
C311 C 0.65336 0.07117 0.26582 0.0
O312 O 0.58317 0.06893 0.27426 0.0
C313 C 0.52783 0.20002 0.27202 0.0
C314 C 0.62111 0.21984 0.28372 0.0
C315 C 0.54804 0.21998 0.2747 0.0
N316 N 0.58692 0.18867 0.27905 0.0
N317 N 0.64219 0.20066 0.28605 0.0
C318 C 0.45276 0.1919 0.26454 0.0
H319 H 0.44783 0.17594 0.27049 0.0
H320 H 0.44588 0.1931 0.24219 0.0
H321 H 0.40714 0.20076 0.27458 0.0
C322 C 0.6397 0.12518 0.21749 0.0
N323 N 0.63699 0.13062 0.24385 0.0
N324 N 0.62607 0.15001 0.24553 0.0
C325 C 0.62389 0.15768 0.22013 0.0
C326 C 0.63177 0.14216 0.20153 0.0
C327 C 0.63836 0.10386 0.20826 0.0
H328 H 0.60031 0.09509 0.22193 0.0
H329 H 0.61869 0.10239 0.18708 0.0
H330 H 0.69583 0.09747 0.20948 0.0
O331 O 0.70342 0.12468 0.30382 0.0
O332 O 0.68535 0.1574 0.30519 0.0
H333 H 0.64391 0.18866 0.22845 0.0
H334 H 0.63413 0.18286 0.19272 0.0
C335 C 0.61336 0.17935 0.21371 0.0
H336 H 0.55269 0.18307 0.21523 0.0
H337 H 0.6948 0.19575 0.29229 0.0
O338 O 0.68238 0.08847 0.26529 0.0
C339 C 0.71766 0.14177 0.31361 0.0
Co340 Co 0.37149 0.92075 0.01582 0.0
Co341 Co 0.37528 0.87346 0.02278 0.0
C342 C 0.24541 0.89868 0.04344 0.0
O343 O 0.27406 0.91517 0.03514 0.0
O344 O 0.27807 0.88196 0.03914 0.0
C345 C 0.39109 0.96315 0.02199 0.0
O346 O 0.38431 0.95888 0.04811 0.0
C347 C 0.33267 0.8309 0.01503 0.0
C348 C 0.43984 0.8158 0.02422 0.0
C349 C 0.36711 0.81224 0.01604 0.0
N350 N 0.38341 0.84486 0.02178 0.0
N351 N 0.44708 0.83567 0.02744 0.0
C352 C 0.25204 0.83529 0.00907 0.0
H353 H 0.23443 0.84975 0.01808 0.0
H354 H 0.24475 0.83623 0.98672 0.0
H355 H 0.21518 0.82316 0.01714 0.0
C356 C 0.3981 0.90906 0.95871 0.0
N357 N 0.38749 0.90419 0.98511 0.0
N358 N 0.39072 0.88464 0.98776 0.0
C359 C 0.40397 0.87643 0.96303 0.0
C360 C 0.40862 0.89166 0.94386 0.0
C361 C 0.40069 0.93007 0.94819 0.0
H362 H 0.44614 0.93823 0.95851 0.0
H363 H 0.3466 0.93766 0.95322 0.0
H364 H 0.41189 0.93071 0.92587 0.0
O365 O 0.44943 0.91601 0.04252 0.0
O366 O 0.45208 0.88304 0.04773 0.0
H367 H 0.4489 0.8474 0.97136 0.0
H368 H 0.42311 0.85097 0.93628 0.0
C369 C 0.40748 0.85442 0.95775 0.0
H370 H 0.35162 0.8478 0.96229 0.0
H371 H 0.49591 0.843 0.0332 0.0
O372 O 0.38284 0.94928 0.00465 0.0
C373 C 0.47504 0.90041 0.05386 0.0
Co374 Co 0.36056 0.91761 0.70706 0.0
Co375 Co 0.36053 0.87003 0.70754 0.0
C376 C 0.47412 0.89472 0.67469 0.0
O377 O 0.44909 0.91177 0.68246 0.0
O378 O 0.44498 0.87842 0.68339 0.0
C379 C 0.37799 0.96213 0.71498 0.0
O380 O 0.45087 0.96102 0.71011 0.0
C381 C 0.41725 0.82881 0.71798 0.0
C382 C 0.31248 0.81153 0.7135 0.0
C383 C 0.3883 0.80949 0.71873 0.0
N384 N 0.36076 0.8416 0.71268 0.0
N385 N 0.29839 0.83111 0.71012 0.0
C386 C 0.49764 0.83496 0.72057 0.0
H387 H 0.50684 0.85015 0.7121 0.0
H388 H 0.51214 0.83519 0.74244 0.0
H389 H 0.53538 0.82408 0.71 0.0
C390 C 0.36573 0.91038 0.76615 0.0
N391 N 0.36517 0.90353 0.74041 0.0
N392 N 0.36295 0.88386 0.74089 0.0
C393 C 0.36171 0.87758 0.767 0.0
C394 C 0.36344 0.89419 0.78372 0.0
C395 C 0.36971 0.93201 0.77363 0.0
H396 H 0.31585 0.93941 0.76862 0.0
H397 H 0.41549 0.93927 0.76151 0.0
H398 H 0.38043 0.93406 0.79564 0.0
O399 O 0.27194 0.90941 0.68732 0.0
O400 O 0.26855 0.87631 0.68794 0.0
H401 H 0.30999 0.84882 0.76366 0.0
H402 H 0.33835 0.85501 0.79777 0.0
C403 C 0.35374 0.85624 0.77577 0.0
H404 H 0.40788 0.84838 0.77199 0.0
H405 H 0.24618 0.83732 0.70579 0.0
O406 O 0.33836 0.94637 0.71428 0.0
C407 C 0.24109 0.89304 0.68098 0.0
Co408 Co 0.56589 0.59795 0.46064 0.0
Co409 Co 0.58536 0.64498 0.4612 0.0
C410 C 0.6924 0.61724 0.43055 0.0
O411 O 0.66 0.60123 0.43874 0.0
O412 O 0.66887 0.63446 0.43798 0.0
C413 C 0.51085 0.55787 0.45136 0.0
O414 O 0.49641 0.56459 0.42683 0.0
C415 C 0.65526 0.68411 0.47305 0.0
C416 C 0.55618 0.70398 0.47048 0.0
C417 C 0.63226 0.7039 0.47594 0.0
N418 N 0.59504 0.67307 0.46664 0.0
N419 N 0.53624 0.68508 0.46498 0.0
C420 C 0.7333 0.67587 0.47506 0.0
H421 H 0.73932 0.66192 0.46308 0.0
H422 H 0.74479 0.67227 0.49665 0.0
H423 H 0.77538 0.68699 0.46768 0.0
C424 C 0.56996 0.60472 0.52 0.0
N425 N 0.57132 0.61164 0.49421 0.0
N426 N 0.57751 0.63123 0.49459 0.0
C427 C 0.57881 0.63743 0.52066 0.0
C428 C 0.57465 0.62084 0.53752 0.0
C429 C 0.56866 0.58302 0.52747 0.0
H430 H 0.51145 0.57703 0.52416 0.0
H431 H 0.60891 0.57469 0.51411 0.0
H432 H 0.58351 0.58058 0.54907 0.0
O433 O 0.48442 0.60852 0.43787 0.0
O434 O 0.49454 0.64153 0.44047 0.0
H435 H 0.54113 0.66774 0.51674 0.0
H436 H 0.56248 0.66051 0.55112 0.0
C437 C 0.57984 0.65886 0.52935 0.0
H438 H 0.63754 0.66486 0.52652 0.0
H439 H 0.48216 0.68033 0.46037 0.0
O440 O 0.54277 0.56933 0.46818 0.0
C441 C 0.46228 0.62602 0.43167 0.0
Co442 Co 0.62877 0.60289 0.77005 0.0
Co443 Co 0.63053 0.65045 0.77303 0.0
C444 C 0.50191 0.62541 0.7959 0.0
O445 O 0.53042 0.60857 0.78891 0.0
O446 O 0.53478 0.6419 0.79038 0.0
C447 C 0.60474 0.55922 0.75953 0.0
O448 O 0.53246 0.56123 0.76507 0.0
C449 C 0.58144 0.69256 0.76357 0.0
C450 C 0.68763 0.70865 0.77059 0.0
C451 C 0.61325 0.71157 0.76378 0.0
N452 N 0.63502 0.67909 0.76966 0.0
N453 N 0.69821 0.68888 0.77385 0.0
C454 C 0.50075 0.68739 0.75911 0.0
H455 H 0.4873 0.6724 0.76734 0.0
H456 H 0.48996 0.68723 0.73694 0.0
H457 H 0.46312 0.69871 0.7688 0.0
C458 C 0.64861 0.61232 0.71179 0.0
N459 N 0.64223 0.61822 0.73792 0.0
N460 N 0.64454 0.63787 0.73888 0.0
C461 C 0.65253 0.6451 0.7133 0.0
C462 C 0.6549 0.62912 0.69535 0.0
C463 C 0.64911 0.59094 0.70284 0.0
H464 H 0.69549 0.58292 0.71293 0.0
H465 H 0.59521 0.58379 0.7092 0.0
H466 H 0.65753 0.58947 0.68046 0.0
O467 O 0.70587 0.60931 0.79625 0.0
O468 O 0.70928 0.64242 0.79857 0.0
H469 H 0.69371 0.67488 0.7181 0.0
H470 H 0.66216 0.66951 0.68413 0.0
C471 C 0.65111 0.66685 0.70617 0.0
H472 H 0.59499 0.67303 0.71163 0.0
H473 H 0.74872 0.68203 0.779 0.0
O474 O 0.64778 0.57428 0.76113 0.0
C475 C 0.73206 0.62529 0.80616 0.0
Co476 Co 0.35842 0.41316 0.51434 0.0
Co477 Co 0.36587 0.36591 0.51839 0.0
C478 C 0.24648 0.38998 0.54811 0.0
O479 O 0.27043 0.40674 0.53889 0.0
O480 O 0.27755 0.37352 0.54115 0.0
C481 C 0.38811 0.45458 0.52181 0.0
O482 O 0.40298 0.44842 0.54657 0.0
C483 C 0.3227 0.32315 0.51356 0.0
C484 C 0.43501 0.30895 0.51114 0.0
C485 C 0.35879 0.30478 0.51069 0.0
N486 N 0.37542 0.3375 0.51514 0.0
N487 N 0.44232 0.32885 0.5138 0.0
C488 C 0.23975 0.32697 0.5157 0.0
H489 H 0.22785 0.34107 0.5266 0.0
H490 H 0.21681 0.32835 0.49494 0.0
H491 H 0.21065 0.31446 0.52644 0.0
C492 C 0.35885 0.40323 0.45568 0.0
N493 N 0.35952 0.39769 0.48208 0.0
N494 N 0.36257 0.37808 0.4836 0.0
C495 C 0.36318 0.37047 0.45818 0.0
C496 C 0.36088 0.38615 0.43965 0.0
C497 C 0.36145 0.42452 0.44623 0.0
H498 H 0.40925 0.4322 0.45585 0.0
H499 H 0.30889 0.43222 0.45292 0.0
H500 H 0.36851 0.42575 0.42377 0.0
O501 O 0.44848 0.4078 0.53557 0.0
O502 O 0.45369 0.37477 0.53879 0.0
H503 H 0.41454 0.34156 0.45896 0.0
H504 H 0.35561 0.34564 0.42988 0.0
C505 C 0.36188 0.34859 0.45193 0.0
H506 H 0.31392 0.34159 0.46309 0.0
H507 H 0.49314 0.33658 0.51456 0.0
O508 O 0.3631 0.44209 0.50477 0.0
C509 C 0.4792 0.39198 0.54439 0.0
Co510 Co 0.36607 0.42375 0.20701 0.0
Co511 Co 0.35822 0.3769 0.20091 0.0
C512 C 0.49328 0.40112 0.18196 0.0
O513 O 0.46591 0.41765 0.19053 0.0
O514 O 0.45795 0.38467 0.18529 0.0
C515 C 0.28952 0.4593 0.21866 0.0
O516 O 0.2328 0.44777 0.21236 0.0
C517 C 0.39448 0.33455 0.21159 0.0
C518 C 0.29197 0.31965 0.19707 0.0
C519 C 0.36038 0.31601 0.20903 0.0
N520 N 0.34761 0.34855 0.20199 0.0
N521 N 0.2867 0.33952 0.1932 0.0
C522 C 0.47187 0.33883 0.22146 0.0
H523 H 0.49215 0.35347 0.21368 0.0
H524 H 0.47098 0.33937 0.24405 0.0
H525 H 0.51141 0.32682 0.21491 0.0
C526 C 0.33474 0.41291 0.26448 0.0
N527 N 0.34537 0.4078 0.23813 0.0
N528 N 0.33933 0.38829 0.23575 0.0
C529 C 0.32287 0.38043 0.26055 0.0
C530 C 0.31962 0.39578 0.27944 0.0
C531 C 0.3453 0.43354 0.27549 0.0
H532 H 0.29328 0.44235 0.27238 0.0
H533 H 0.39279 0.44103 0.26457 0.0
H534 H 0.35676 0.43324 0.29763 0.0
O535 O 0.29312 0.41937 0.17801 0.0
O536 O 0.28575 0.38641 0.17455 0.0
H537 H 0.27525 0.35223 0.24944 0.0
H538 H 0.27642 0.35676 0.28575 0.0
C539 C 0.308 0.35879 0.26614 0.0
H540 H 0.36223 0.35074 0.26747 0.0
H541 H 0.2411 0.34694 0.1848 0.0
O542 O 0.356 0.45223 0.21729 0.0
C543 C 0.26693 0.40382 0.16693 0.0
H544 H 0.25935 0.21421 0.5096 0.0
H545 H 0.07758 0.23919 0.4639 0.0
H546 H 0.1334 0.2725 0.46704 0.0
H547 H 0.23372 0.29431 0.48279 0.0
H548 H 0.41279 0.26976 0.53043 0.0
H549 H 0.35987 0.23629 0.52568 0.0
C550 C 0.23297 0.22694 0.49994 0.0
C551 C 0.16551 0.22436 0.48609 0.0
C552 C 0.26479 0.24603 0.50221 0.0
C553 C 0.13002 0.24095 0.47445 0.0
C554 C 0.16183 0.25993 0.47626 0.0
C555 C 0.26015 0.28178 0.49277 0.0
C556 C 0.3258 0.28464 0.50766 0.0
C557 C 0.22889 0.26267 0.49027 0.0
C558 C 0.36165 0.26797 0.5191 0.0
C559 C 0.33141 0.24884 0.51644 0.0
H560 H 0.03018 0.96838 0.50328 0.0
H561 H 0.80726 0.99184 0.49045 0.0
H562 H 0.86115 0.02377 0.47592 0.0
H563 H 0.97076 0.04509 0.46739 0.0
H564 H 0.19393 0.02215 0.48104 0.0
H565 H 0.14047 0.98981 0.4945 0.0
C566 C -0.00674 0.98048 0.49738 0.0
C567 C 0.91464 0.9777 0.49805 0.0
C568 C 0.02464 0.99883 0.48903 0.0
C569 C 0.86785 0.99355 0.49023 0.0
C570 C 0.89864 0.01182 0.48184 0.0
C571 C 0.00801 0.033 0.47307 0.0
C572 C 0.08643 0.03605 0.47308 0.0
C573 C 0.97688 0.01461 0.48117 0.0
C574 C 0.13347 0.02021 0.48077 0.0
C575 C 0.1029 1.00174 0.48855 0.0
H576 H 0.27035 0.04853 0.75092 0.0
H577 H 0.05355 0.01967 0.74877 0.0
H578 H 0.11417 0.98841 0.73476 0.0
H579 H 0.22839 0.96927 0.72324 0.0
H580 H 0.44514 0.99823 0.72451 0.0
H581 H 0.38461 0.02949 0.73868 0.0
C582 C 0.23624 0.03539 0.74751 0.0
C583 C 0.15736 0.03646 0.75107 0.0
C584 C 0.27143 0.0175 0.73921 0.0
C585 C 0.11423 0.01931 0.74624 0.0
C586 C 0.1489 1.00141 0.73822 0.0
C587 C 0.2626 0.98241 0.72656 0.0
C588 C 0.34143 0.98134 0.72282 0.0
C589 C 0.22741 1.00034 0.73463 0.0
C590 C 0.3845 0.99858 0.72717 0.0
C591 C 0.34989 0.01647 0.73534 0.0
H592 H 0.85397 0.27554 0.72336 0.0
H593 H 0.04029 0.31052 0.75161 0.0
H594 H 0.10514 0.28012 0.76514 0.0
H595 H 0.10883 0.24343 0.76944 0.0
H596 H 0.92129 0.2086 0.74204 0.0
H597 H 0.85626 0.23905 0.72863 0.0
C598 C 0.90891 0.27656 0.73242 0.0
C599 C 0.943 0.2954 0.73555 0.0
C600 C 0.94512 0.25899 0.74089 0.0
C601 C 0.01381 0.29634 0.74767 0.0
C602 C 0.05057 0.2789 0.7559 0.0
C603 C 0.05342 0.24253 0.76072 0.0
C604 C 0.01928 0.22372 0.75745 0.0
C605 C 0.01678 0.26014 0.7526 0.0
C606 C 0.94784 0.22281 0.74584 0.0
C607 C 0.91102 0.24026 0.73774 0.0
H608 H 0.83431 0.7722 0.52394 0.0
H609 H 0.69892 0.80786 0.47045 0.0
H610 H 0.63105 0.7781 0.45652 0.0
H611 H 0.61179 0.74182 0.45883 0.0
H612 H 0.74728 0.70616 0.5123 0.0
H613 H 0.81494 0.73592 0.5263 0.0
C614 C 0.7897 0.77346 0.50931 0.0
C615 C 0.77033 0.79232 0.49886 0.0
C616 C 0.75196 0.75622 0.50097 0.0
C617 C 0.713 0.7937 0.47971 0.0
C618 C 0.67487 0.77662 0.4714 0.0
C619 C 0.65632 0.74056 0.47349 0.0
C620 C 0.6758 0.7217 0.4839 0.0
C621 C 0.694 0.75781 0.48186 0.0
C622 C 0.7331 0.72031 0.50307 0.0
C623 C 0.77112 0.7374 0.51143 0.0
H624 H 0.88608 1.00785 0.21876 0.0
H625 H 0.69501 0.96898 0.23224 0.0
H626 H 0.62054 0.99692 0.24949 0.0
H627 H 0.60898 0.03241 0.26103 0.0
H628 H 0.79964 0.07141 0.24765 0.0
H629 H 0.87437 0.04347 0.23027 0.0
C630 C 0.82813 1.00551 0.2254 0.0
C631 C 0.79644 0.98633 0.22414 0.0
C632 C 0.78527 0.02168 0.23545 0.0
C633 C 0.72115 0.98357 0.23293 0.0
C634 C 0.67829 0.99956 0.24286 0.0
C635 C 0.66689 0.0348 0.25437 0.0
C636 C 0.69846 0.05398 0.25572 0.0
C637 C 0.70975 0.01867 0.24428 0.0
C638 C 0.77369 0.0568 0.2469 0.0
C639 C 0.81664 0.04082 0.2369 0.0
H640 H 0.90733 0.78171 0.20212 0.0
H641 H 0.04768 0.81719 0.25375 0.0
H642 H 0.11097 0.78704 0.26936 0.0
H643 H 0.1214 0.75021 0.2703 0.0
H644 H 0.97712 0.71507 0.21974 0.0
H645 H 0.91913 0.7454 0.2023 0.0
C646 C 0.95212 0.78289 0.21668 0.0
C647 C 0.97355 0.80177 0.2263 0.0
C648 C -0.01353 0.76548 0.22623 0.0
C649 C 0.03157 0.80301 0.2452 0.0
C650 C 0.06708 0.78569 0.25451 0.0
C651 C 0.07714 0.74927 0.2555 0.0
C652 C 0.05179 0.73046 0.24697 0.0
C653 C 0.04428 0.76683 0.24542 0.0
C654 C -0.00462 0.72936 0.22747 0.0
C655 C 0.96289 0.7467 0.21722 0.0
H656 H 0.27757 0.80306 0.97359 0.0
H657 H 0.39209 0.77678 0.04143 0.0
H658 H 0.3441 0.74378 0.02936 0.0
H659 H 0.26448 0.72272 0.00069 0.0
H660 H 0.14847 0.74937 0.93343 0.0
H661 H 0.20112 0.782 0.94434 0.0
C662 C 0.29071 0.79021 0.98609 0.0
C663 C 0.33647 0.79244 0.00884 0.0
C664 C 0.26307 0.77133 0.979 0.0
C665 C 0.35612 0.77544 0.024 0.0
C666 C 0.3288 0.75658 0.0171 0.0
C667 C 0.25241 0.73555 0.98801 0.0
C668 C 0.20372 0.73359 0.96601 0.0
C669 C 0.28191 0.75435 -0.00531 0.0
C670 C 0.18624 0.75053 0.95038 0.0
C671 C 0.21609 0.76919 0.95665 0.0
H672 H 0.05048 0.48266 0.02088 0.0
H673 H 0.82206 0.4803 -0.00692 0.0
H674 H 0.83144 0.51506 0.97771 0.0
H675 H 0.90593 0.54585 0.97121 0.0
H676 H 0.13528 0.54748 -0.00174 0.0
H677 H 0.12398 0.5132 0.01481 0.0
C678 C 0.00246 0.48972 0.01157 0.0
C679 C 0.93561 0.47885 0.00817 0.0
C680 C 0.00857 0.50956 0.00251 0.0
C681 C 0.87412 0.48831 -0.00396 0.0
C682 C 0.87954 0.50817 0.98716 0.0
C683 C 0.95342 0.53872 0.98075 0.0
C684 C 0.02149 0.54923 0.98337 0.0
C685 C 0.94671 0.5189 0.99013 0.0
C686 C 0.08244 0.53973 -0.00422 0.0
C687 C 0.07598 0.52013 0.00533 0.0
H688 H 0.27123 0.54271 0.27751 0.0
H689 H 0.04776 0.54149 0.245 0.0
H690 H 0.07371 0.50876 0.22465 0.0
H691 H 0.16038 0.48072 0.21592 0.0
H692 H 0.38563 0.48286 0.24683 0.0
H693 H 0.35864 0.51523 0.2678 0.0
C694 C 0.22788 0.53522 0.26618 0.0
C695 C 0.15737 0.54438 0.26301 0.0
C696 C 0.24379 0.51671 0.25406 0.0
C697 C 0.10232 0.53466 0.24785 0.0
C698 C 0.11721 0.516 0.23616 0.0
C699 C 0.20363 0.4883 0.2272 0.0
C700 C 0.27487 0.47942 0.22984 0.0
C701 C 0.18786 0.50694 0.23906 0.0
C702 C 0.3305 0.48945 0.24435 0.0
C703 C 0.31498 0.5079 0.25647 0.0
H704 H 0.75569 0.22738 0.95797 0.0
H705 H 0.57779 0.23916 0.01714 0.0
H706 H 0.63726 0.27064 0.02928 0.0
H707 H 0.74058 0.29457 0.02355 0.0
H708 H 0.91848 0.28297 0.96435 0.0
H709 H 0.85967 0.2513 0.95243 0.0
C710 C 0.73075 0.23663 0.97388 0.0
C711 C 0.66312 0.23079 0.98694 0.0
C712 C 0.76524 0.25473 0.98077 0.0
C713 C 0.63 0.24333 0.00681 0.0
C714 C 0.664 0.26131 0.01382 0.0
C715 C 0.76567 0.28533 0.00767 0.0
C716 C 0.83286 0.2913 -0.00555 0.0
C717 C 0.73151 0.26718 0.00088 0.0
C718 C 0.86643 0.27871 0.97473 0.0
C719 C 0.83281 0.26063 0.96785 0.0
H720 H 0.74843 0.5516 0.7422 0.0
H721 H 0.53308 0.52309 0.75585 0.0
H722 H 0.58646 0.49123 0.74046 0.0
H723 H 0.69457 0.47142 0.72366 0.0
H724 H 0.90969 0.50011 0.7101 0.0
H725 H 0.85568 0.532 0.7248 0.0
C726 C 0.71296 0.53844 0.74186 0.0
C727 C 0.63673 0.53978 0.7503 0.0
C728 C 0.74393 0.52021 0.73292 0.0
C729 C 0.59184 0.52253 0.74955 0.0
C730 C 0.62236 0.5043 0.74072 0.0
C731 C 0.72969 0.48466 0.72376 0.0
C732 C 0.80626 0.48331 0.71574 0.0
C733 C 0.69835 0.50296 0.73239 0.0
C734 C 0.85072 0.50065 0.71613 0.0
C735 C 0.81987 0.51891 0.72459 0.0
H736 H 0.50505 0.05172 0.00462 0.0
H737 H 0.55874 0.02876 0.92432 0.0
H738 H 0.5074 0.99618 0.93755 0.0
H739 H 0.447 0.97424 0.97192 0.0
H740 H 0.39395 0.9973 0.05223 0.0
H741 H 0.44423 0.02991 0.03881 0.0
C742 C 0.50606 0.03957 0.99003 0.0
C743 C 0.53606 0.0427 0.96352 0.0
C744 C 0.47572 0.02095 -0.00232 0.0
C745 C 0.53604 0.0268 0.94484 0.0
C746 C 0.50652 1.00816 0.95238 0.0
C747 C 0.44588 0.98642 0.98644 0.0
C748 C 0.41659 0.98329 0.01306 0.0
C749 C 0.47586 1.00509 0.9787 0.0
C750 C 0.41618 0.99925 0.03163 0.0
C751 C 0.44513 0.01791 0.024 0.0
H752 H 0.42708 0.30705 0.25666 0.0
H753 H 0.34991 0.28063 0.18233 0.0
H754 H 0.39496 0.24782 0.19713 0.0
H755 H 0.46389 0.22724 0.23001 0.0
H756 H 0.54271 0.25413 0.30385 0.0
H757 H 0.49017 0.2863 0.29034 0.0
C758 C 0.42141 0.29419 0.24349 0.0
C759 C 0.38749 0.29629 0.21811 0.0
C760 C 0.44724 0.27548 0.25215 0.0
C761 C 0.37692 0.27934 0.20183 0.0
C762 C 0.40255 0.26061 0.21029 0.0
C763 C 0.46752 0.23999 0.24348 0.0
C764 C 0.50604 0.2383 0.26806 0.0
C765 C 0.43844 0.25854 0.23532 0.0
C766 C 0.51284 0.25512 0.28488 0.0
C767 C 0.48315 0.27351 0.27713 0.0
H768 H 0.49871 0.80081 0.75496 0.0
H769 H 0.36191 0.77449 0.69314 0.0
H770 H 0.41888 0.74188 0.70141 0.0
H771 H 0.50785 0.7209 0.72599 0.0
H772 H 0.64307 0.74685 0.78853 0.0
H773 H 0.58829 0.77969 0.77959 0.0
C774 C 0.48257 0.78806 0.7429 0.0
C775 C 0.42708 0.79016 0.72313 0.0
C776 C 0.51509 0.76926 0.74796 0.0
C777 C 0.40476 0.77327 0.70841 0.0
C778 C 0.43728 0.75461 0.71312 0.0
C779 C 0.52405 0.73358 0.73816 0.0
C780 C 0.57805 0.73127 0.75841 0.0
C781 C 0.49212 0.7524 0.73297 0.0
C782 C 0.60109 0.74818 0.77297 0.0
C783 C 0.56976 0.76697 0.76789 0.0
H784 H 0.51058 0.54207 0.50256 0.0
H785 H 0.45244 0.52834 0.41973 0.0
H786 H 0.40643 0.49553 0.43431 0.0
H787 H 0.38352 0.47061 0.47057 0.0
H788 H 0.44115 0.48469 0.55338 0.0
H789 H 0.48545 0.51757 0.53881 0.0
C790 C 0.48806 0.53191 0.48764 0.0
C791 C 0.48529 0.53769 0.46005 0.0
C792 C 0.46097 0.51316 0.49619 0.0
C793 C 0.45544 0.52431 0.44108 0.0
C794 C 0.42892 0.50554 0.44941 0.0
C795 C 0.40522 0.48091 0.48548 0.0
C796 C 0.40895 0.47512 0.51306 0.0
C797 C 0.43129 0.49981 0.47693 0.0
C798 C 0.43751 0.4887 0.53204 0.0
C799 C 0.46317 0.50751 0.52371 0.0
H800 H 0.26404 0.09656 0.39106 0.0
H801 H 0.24677 0.16033 0.40406 0.0
H802 H 0.32876 0.16651 0.36505 0.0
H803 H 0.41017 0.15438 0.32868 0.0
H804 H 0.43637 0.09095 0.31568 0.0
H805 H 0.3447 0.08422 0.35259 0.0
C806 C 0.27844 0.11177 0.38536 0.0
C807 C 0.24967 0.12787 0.40084 0.0
C808 C 0.32665 0.11539 0.36265 0.0
C809 C 0.26854 0.14753 0.39294 0.0
C810 C 0.31522 0.15118 0.37041 0.0
C811 C 0.39532 0.13904 0.33356 0.0
C812 C 0.43055 0.12324 0.31949 0.0
C813 C 0.34504 0.13527 0.35529 0.0
C814 C 0.41017 0.10347 0.32619 0.0
C815 C 0.35818 0.09958 0.34746 0.0
H816 H 0.73004 0.11405 0.35274 0.0
H817 H 0.80562 0.17295 0.32915 0.0
H818 H 0.8809 0.17497 0.3703 0.0
H819 H 0.93301 0.15855 0.41059 0.0
H820 H 0.85671 0.0995 0.43349 0.0
H821 H 0.77099 0.09929 0.39539 0.0
C822 C 0.76346 0.12727 0.35654 0.0
C823 C 0.76444 0.14309 0.33774 0.0
C824 C 0.80495 0.12844 0.38028 0.0
C825 C 0.80552 0.16045 0.34324 0.0
C826 C 0.84795 0.16165 0.36678 0.0
C827 C 0.89592 0.14591 0.40772 0.0
C828 C 0.90145 0.12899 0.42455 0.0
C829 C 0.84884 0.1456 0.38524 0.0
C830 C 0.85352 0.11264 0.42059 0.0
C831 C 0.80519 0.11242 0.3987 0.0
H832 H 0.24708 0.15187 0.84592 0.0
H833 H 0.34955 0.09947 0.80958 0.0
H834 H 0.43102 0.0958 0.84852 0.0
H835 H 0.46851 0.10634 0.89364 0.0
H836 H 0.37122 0.15932 0.92993 0.0
H837 H 0.29048 0.16365 0.89047 0.0
C838 C 0.28853 0.13996 0.84628 0.0
C839 C 0.29239 0.12595 0.82502 0.0
C840 C 0.33422 0.13768 0.869 0.0
C841 C 0.34563 0.11042 0.8258 0.0
C842 C 0.39168 0.10819 0.84813 0.0
C843 C 0.42865 0.11863 0.89312 0.0
C844 C 0.42417 0.13222 0.91478 0.0
C845 C 0.38503 0.12142 0.8701 0.0
C846 C 0.37434 0.14849 0.91355 0.0
C847 C 0.32893 0.15107 0.89094 0.0
H848 H 0.95621 0.14515 0.84305 0.0
H849 H 0.92218 0.08292 0.82409 0.0
H850 H 0.83232 0.08007 0.86275 0.0
H851 H 0.76201 0.09578 0.90145 0.0
H852 H 0.80221 0.15794 0.91987 0.0
H853 H 0.89235 0.16013 0.88198 0.0
C854 C 0.92878 0.13093 0.84707 0.0
C855 C 0.945 0.11433 0.83039 0.0
C856 C 0.87902 0.12935 0.86946 0.0
C857 C 0.91011 0.09597 0.83645 0.0
C858 C 0.85906 0.09434 0.85861 0.0
C859 C 0.79133 0.10971 0.8974 0.0
C860 C 0.77495 0.1267 0.91347 0.0
C861 C 0.84313 0.11096 0.87529 0.0
C862 C 0.81324 0.14466 0.90782 0.0
C863 C 0.86468 0.14597 0.88607 0.0
H864 H 0.52212 0.92384 0.63897 0.0
H865 H 0.55691 0.862 0.66103 0.0
H866 H 0.64142 0.85761 0.62186 0.0
H867 H 0.7046 0.87087 0.5814 0.0
H868 H 0.67683 0.93288 0.55938 0.0
H869 H 0.58907 0.93751 0.59818 0.0
C870 C 0.54907 0.9095 0.6354 0.0
C871 C 0.53305 0.89329 0.65297 0.0
C872 C 0.59765 0.90697 0.61258 0.0
C873 C 0.56796 0.87474 0.64787 0.0
C874 C 0.61608 0.87215 0.62537 0.0
C875 C 0.67864 0.88537 0.58475 0.0
C876 C 0.69666 0.90145 0.56732 0.0
C877 C 0.63061 0.88807 0.60746 0.0
C878 C 0.66342 0.92021 0.57238 0.0
C879 C 0.61374 0.9229 0.59467 0.0
H880 H 0.19931 0.86364 0.64678 0.0
H881 H 0.148 0.9243 0.67081 0.0
H882 H 0.06513 0.92794 0.63219 0.0
H883 H 0.01444 0.91472 0.59023 0.0
H884 H 0.06483 0.85414 0.56581 0.0
H885 H 0.14261 0.84974 0.6059 0.0
C886 C 0.16873 0.87751 0.64389 0.0
C887 C 0.17985 0.89371 0.66146 0.0
C888 C 0.12286 0.87968 0.62128 0.0
C889 C 0.14041 0.91164 0.65741 0.0
C890 C 0.09357 0.91379 0.63526 0.0
C891 C 0.04316 0.90063 0.59349 0.0
C892 C 0.03527 0.8849 0.57494 0.0
C893 C 0.08614 0.8981 0.6167 0.0
C894 C 0.07102 0.86653 0.57975 0.0
C895 C 0.11493 0.86397 0.6027 0.0
H896 H 0.68598 0.92511 0.14874 0.0
H897 H 0.66178 0.86246 0.16841 0.0
H898 H 0.57767 0.85821 0.13016 0.0
H899 H 0.51772 0.87192 0.08975 0.0
H900 H 0.54601 0.93442 0.06957 0.0
H901 H 0.62359 0.93896 0.10935 0.0
C902 C 0.66133 0.91058 0.14501 0.0
C903 C 0.68006 0.89412 0.16132 0.0
C904 C 0.61532 0.90812 0.12259 0.0
C905 C 0.64812 0.87536 0.15608 0.0
C906 C 0.60059 0.87289 0.13412 0.0
C907 C 0.54132 0.8865 0.09391 0.0
C908 C 0.52668 0.90275 0.07662 0.0
C909 C 0.58534 0.88907 0.1169 0.0
C910 C 0.55685 0.92162 0.08248 0.0
C911 C 0.60081 0.92428 0.1053 0.0
H912 H 0.00199 0.87982 0.13404 0.0
H913 H 0.05231 0.94045 0.1571 0.0
H914 H 0.13609 0.94391 0.117 0.0
H915 H 0.19926 0.92902 0.07662 0.0
H916 H 0.14761 0.86832 0.05416 0.0
H917 H 0.0582 0.86579 0.09248 0.0
C918 C 0.03171 0.89376 0.13047 0.0
C919 C 0.02204 0.90974 0.14878 0.0
C920 C 0.07845 0.89574 0.10724 0.0
C921 C 0.05953 0.92785 0.14345 0.0
C922 C 0.10704 0.92987 0.12046 0.0
C923 C 0.16706 0.91541 0.07973 0.0
C924 C 0.18008 0.89887 0.06258 0.0
C925 C 0.11711 0.91387 0.10226 0.0
C926 C 0.13865 0.88125 0.06708 0.0
C927 C 0.08799 0.87973 0.08911 0.0
H928 H 0.2558 0.64979 0.88289 0.0
H929 H 0.31268 0.59184 0.9153 0.0
H930 H 0.39684 0.58571 0.87599 0.0
H931 H 0.45852 0.59759 0.83346 0.0
H932 H 0.40046 0.6556 0.80148 0.0
H933 H 0.31068 0.66067 0.83919 0.0
C934 C 0.28714 0.63589 0.8815 0.0
C935 C 0.27915 0.62145 0.90219 0.0
C936 C 0.33408 0.63232 0.85867 0.0
C937 C 0.3186 0.60329 0.89975 0.0
C938 C 0.36632 0.59973 0.87721 0.0
C939 C 0.42476 0.6111 0.83439 0.0
C940 C 0.4361 0.6262 0.81474 0.0
C941 C 0.37465 0.61417 0.85657 0.0
C942 C 0.39277 0.64377 0.8164 0.0
C943 C 0.34191 0.64676 0.83807 0.0
H944 H 0.7681 0.65421 0.84222 0.0
H945 H 0.80991 0.59233 0.82194 0.0
H946 H 0.88685 0.58857 0.86208 0.0
H947 H 0.94531 0.60302 0.90189 0.0
H948 H 0.90769 0.66513 0.92161 0.0
H949 H 0.82388 0.66846 0.88306 0.0
C950 C 0.79465 0.63996 0.84644 0.0
C951 C 0.7839 0.62364 0.82901 0.0
C952 C 0.83824 0.63783 0.86968 0.0
C953 C 0.81767 0.60517 0.83497 0.0
C954 C 0.86128 0.60295 0.858 0.0
C955 C 0.91754 0.61718 0.89812 0.0
C956 C 0.93246 0.63379 0.91453 0.0
C957 C 0.87183 0.61917 0.87547 0.0
C958 C 0.89687 0.65212 0.90921 0.0
C959 C 0.84956 0.65408 0.88707 0.0
H960 H 0.24606 0.65346 0.33952 0.0
H961 H 0.31004 0.59574 0.30737 0.0
H962 H 0.388 0.58964 0.34688 0.0
H963 H 0.43406 0.60024 0.39111 0.0
H964 H 0.37125 0.65808 0.42316 0.0
H965 H 0.29461 0.66442 0.3833 0.0
C966 C 0.27838 0.63974 0.34088 0.0
C967 C 0.27263 0.62508 0.32063 0.0
C968 C 0.32133 0.63613 0.36392 0.0
C969 C 0.31373 0.60722 0.3228 0.0
C970 C 0.35771 0.60366 0.34545 0.0
C971 C 0.40247 0.61408 0.3896 0.0
C972 C 0.4072 0.62856 0.41012 0.0
C973 C 0.36057 0.61784 0.36637 0.0
C974 C 0.36762 0.64664 0.40765 0.0
C975 C 0.32451 0.65034 0.3848 0.0
H976 H 0.74914 0.64777 0.40022 0.0
H977 H 0.76838 0.58401 0.41216 0.0
H978 H 0.85682 0.58194 0.37332 0.0
H979 H 0.9267 0.59821 0.3356 0.0
H980 H 0.90513 0.66194 0.32376 0.0
H981 H 0.81805 0.66391 0.36275 0.0
C982 C 0.77317 0.63341 0.39459 0.0
C983 C 0.75233 0.61608 0.40919 0.0
C984 C 0.82249 0.63226 0.37197 0.0
C985 C 0.78363 0.5976 0.40135 0.0
C986 C 0.83383 0.59639 0.37904 0.0
C987 C 0.90231 0.6125 0.34133 0.0
C988 C 0.92224 0.62988 0.32664 0.0
C989 C 0.85296 0.6136 0.36403 0.0
C990 C 0.89068 0.64831 0.33458 0.0
C991 C 0.84117 0.64948 0.35699 0.0
H992 H 0.54729 0.37076 0.15049 0.0
H993 H 0.58707 0.43262 0.17047 0.0
H994 H 0.67861 0.43516 0.13272 0.0
H995 H 0.73974 0.42058 0.09198 0.0
H996 H 0.69793 0.35889 0.07172 0.0
H997 H 0.61361 0.35567 0.11149 0.0
C998 C 0.57688 0.38473 0.14697 0.0
C999 C 0.55983 0.40151 0.16324 0.0
C1000 C 0.62777 0.38626 0.1248 0.0
C1001 C 0.59888 0.41947 0.15827 0.0
C1002 C 0.65079 0.42099 0.13653 0.0
C1003 C 0.71181 0.40646 0.09616 0.0
C1004 C 0.72428 0.39008 0.0787 0.0
C1005 C 0.66401 0.40464 0.11921 0.0
C1006 C 0.68887 0.37178 0.08473 0.0
C1007 C 0.64091 0.36989 0.10752 0.0
H1008 H 0.05068 0.42494 0.0717 0.0
H1009 H 0.10971 0.36466 0.04811 0.0
H1010 H 0.19692 0.36252 0.08568 0.0
H1011 H 0.24554 0.37642 0.12771 0.0
H1012 H 0.18468 0.43639 0.15202 0.0
H1013 H 0.10758 0.43989 0.11164 0.0
C1014 C 0.08387 0.41149 0.07434 0.0
C1015 C 0.0732 0.3949 0.05735 0.0
C1016 C 0.13183 0.41012 0.09646 0.0
C1017 C 0.11661 0.37758 0.06107 0.0
C1018 C 0.16594 0.37628 0.08266 0.0
C1019 C 0.21509 0.39023 0.12426 0.0
C1020 C 0.21936 0.40598 0.14301 0.0
C1021 C 0.17176 0.39219 0.10101 0.0
C1022 C 0.18135 0.42398 0.13796 0.0
C1023 C 0.13768 0.42602 0.11486 0.0
H1024 H 0.69532 0.41723 0.63714 0.0
H1025 H 0.66069 0.35573 0.6611 0.0
H1026 H 0.58339 0.35041 0.62112 0.0
H1027 H 0.52504 0.36347 0.57983 0.0
H1028 H 0.56158 0.425 0.55617 0.0
H1029 H 0.64102 0.42989 0.59542 0.0
C1030 C 0.67016 0.4027 0.63387 0.0
C1031 C 0.68281 0.38696 0.65225 0.0
C1032 C 0.62758 0.39966 0.61067 0.0
C1033 C 0.65111 0.36813 0.64736 0.0
C1034 C 0.60746 0.36505 0.62443 0.0
C1035 C 0.55144 0.37786 0.58297 0.0
C1036 C 0.53743 0.39385 0.56511 0.0
C1037 C 0.59571 0.3807 0.60589 0.0
C1038 C 0.5715 0.41245 0.56962 0.0
C1039 C 0.61643 0.41531 0.59216 0.0
H1040 H 0.01519 0.37074 0.64348 0.0
H1041 H 0.04227 0.43378 0.65875 0.0
H1042 H 0.1293 0.43639 0.61946 0.0
H1043 H 0.19647 0.42069 0.58041 0.0
H1044 H 0.16494 0.35773 0.56523 0.0
H1045 H 0.07955 0.35534 0.60454 0.0
C1046 C 0.04083 0.38503 0.63852 0.0
C1047 C 0.0228 0.40199 0.65422 0.0
C1048 C 0.08894 0.38653 0.61557 0.0
C1049 C 0.05561 0.42045 0.64711 0.0
C1050 C 0.10494 0.42198 0.62454 0.0
C1051 C 0.17006 0.40652 0.58547 0.0
C1052 C 0.18712 0.38944 0.56978 0.0
C1053 C 0.12139 0.40515 0.60843 0.0
C1054 C 0.15298 0.37114 0.57686 0.0
C1055 C 0.10437 0.3697 0.59947 0.0
H1056 H 0.11067 0.09371 0.66262 0.0
H1057 H 0.13555 0.15785 0.66805 0.0
H1058 H 0.1227 0.16065 0.61915 0.0
H1059 H 0.10223 0.14471 0.5754 0.0
H1060 H 0.14275 0.08119 0.56842 0.0
H1061 H 0.13191 0.078 0.61777 0.0
C1062 C 0.11681 0.10831 0.65343 0.0
C1063 C 0.12078 0.12559 0.66969 0.0
C1064 C 0.12017 0.10977 0.62492 0.0
C1065 C 0.12673 0.14431 0.65666 0.0
C1066 C 0.12122 0.14595 0.62847 0.0
C1067 C 0.11315 0.13021 0.58414 0.0
C1068 C 0.12206 0.11323 0.56754 0.0
C1069 C 0.11765 0.12874 0.61246 0.0
C1070 C 0.13167 0.09452 0.58022 0.0
C1071 C 0.12713 0.09268 0.6086 0.0
H1072 H 0.81436 0.91021 0.40925 0.0
H1073 H 0.00495 0.87045 0.41067 0.0
H1074 H 0.01121 0.87011 0.36061 0.0
H1075 H 0.96216 0.88149 0.31663 0.0
H1076 H 0.76876 0.92043 0.31564 0.0
H1077 H 0.76402 0.92103 0.36548 0.0
C1078 C 0.85725 0.90156 0.39844 0.0
C1079 C 0.90923 0.89041 0.41316 0.0
C1080 C 0.85999 0.90139 0.36994 0.0
C1081 C 0.96444 0.87908 0.39938 0.0
C1082 C 0.96799 0.87892 0.37092 0.0
C1083 C 0.91883 0.88997 0.32745 0.0
C1084 C 0.86622 0.90101 0.31276 0.0
C1085 C 0.91597 0.89002 0.35601 0.0
C1086 C 0.81045 0.91207 0.32672 0.0
C1087 C 0.80749 0.91234 0.35513 0.0
H1088 H 0.03001 0.62021 0.07103 0.0
H1089 H 0.23843 0.65284 0.06508 0.0
H1090 H 0.24431 0.65408 0.11498 0.0
H1091 H 0.19142 0.64482 0.16014 0.0
H1092 H 0.98086 0.61312 0.16586 0.0
H1093 H 0.97469 0.61216 0.11605 0.0
C1094 C 0.07661 0.62754 0.0808 0.0
C1095 C 0.13404 0.63628 0.0648 0.0
C1096 C 0.07928 0.6282 0.10926 0.0
C1097 C 0.19378 0.64603 0.0773 0.0
C1098 C 0.1972 0.64668 0.10569 0.0
C1099 C 0.14396 0.63792 0.15035 0.0
C1100 C 0.08665 0.62905 0.1663 0.0
C1101 C 0.14047 0.63769 0.12185 0.0
C1102 C 0.02569 0.61991 0.15371 0.0
C1103 C 0.02208 0.61942 0.12536 0.0
H1104 H 0.91426 0.41661 0.90471 0.0
H1105 H 0.73861 0.37292 0.91633 0.0
H1106 H 0.72208 0.37107 0.86696 0.0
H1107 H 0.76122 0.3811 0.82047 0.0
H1108 H 0.93778 0.42452 0.80885 0.0
H1109 H 0.95021 0.42755 0.85831 0.0
C1110 C 0.87171 0.40695 0.89633 0.0
C1111 C 0.82764 0.39492 0.91378 0.0
C1112 C 0.86309 0.40589 0.86806 0.0
C1113 C 0.77322 0.38222 0.90298 0.0
C1114 C 0.76385 0.38116 0.87488 0.0
C1115 C 0.80224 0.3912 0.82894 0.0
C1116 C 0.84867 0.40255 0.81143 0.0
C1117 C 0.80913 0.39275 0.85723 0.0
C1118 C 0.90141 0.41573 0.82224 0.0
C1119 C 0.90858 0.41742 0.8504 0.0
H1120 H 0.71816 0.12494 0.16219 0.0
H1121 H 0.51725 0.16016 0.17508 0.0
H1122 H 0.49135 0.15873 0.1264 0.0
H1123 H 0.52384 0.14646 0.08043 0.0
H1124 H 0.7231 0.11069 0.06749 0.0
H1125 H 0.75065 0.11262 0.11617 0.0
C1126 C 0.66895 0.13233 0.1542 0.0
C1127 C 0.61996 0.14275 0.17193 0.0
C1128 C 0.65347 0.13097 0.1264 0.0
C1129 C 0.55642 0.15237 0.1616 0.0
C1130 C 0.54113 0.15135 0.13388 0.0
C1131 C 0.57309 0.13908 0.08844 0.0
C1132 C 0.62136 0.1284 0.0708 0.0
C1133 C 0.58886 0.14053 0.11618 0.0
C1134 C 0.68499 0.11881 0.08102 0.0
C1135 C 0.70098 0.12006 0.10869 0.0
H1136 H 0.4621 0.87771 0.81797 0.0
H1137 H 0.25685 0.91193 0.81549 0.0
H1138 H 0.25188 0.91371 0.86538 0.0
H1139 H 0.30709 0.90585 0.90938 0.0
H1140 H 0.51593 0.87325 0.91223 0.0
H1141 H 0.51859 0.87021 0.86235 0.0
C1142 C 0.41633 0.88543 0.82855 0.0
C1143 C 0.35987 0.89468 0.81356 0.0
C1144 C 0.4147 0.88663 0.85705 0.0
C1145 C 0.30081 0.9048 0.82699 0.0
C1146 C 0.29801 0.9058 0.85535 0.0
C1147 C 0.35326 0.89818 0.89894 0.0
C1148 C 0.41117 0.88975 0.91406 0.0
C1149 C 0.35487 0.89687 0.87053 0.0
C1150 C 0.4706 0.87969 0.9007 0.0
C1151 C 0.47218 0.87803 0.87232 0.0
H1152 H 0.68209 0.63744 0.56772 0.0
H1153 H 0.47671 0.60342 0.57352 0.0
H1154 H 0.4831 0.60328 0.6234 0.0
H1155 H 0.54689 0.61318 0.66506 0.0
H1156 H 0.75403 0.64641 0.65941 0.0
H1157 H 0.7469 0.64699 0.6095 0.0
C1158 C 0.63877 0.6301 0.58004 0.0
C1159 C 0.57898 0.62049 0.56736 0.0
C1160 C 0.64304 0.63009 0.60848 0.0
C1161 C 0.52332 0.6108 0.58315 0.0
C1162 C 0.52686 0.61079 0.61152 0.0
C1163 C 0.5905 0.62044 0.65277 0.0
C1164 C 0.65083 0.62975 0.6655 0.0
C1165 C 0.58642 0.6204 0.62435 0.0
C1166 C 0.70693 0.6393 0.64974 0.0
C1167 C 0.70297 0.63954 0.62135 0.0
H1168 H 0.40729 0.37458 0.3129 0.0
H1169 H 0.21584 0.41409 0.31218 0.0
H1170 H 0.20959 0.41397 0.36219 0.0
H1171 H 0.2623 0.40361 0.40598 0.0
H1172 H 0.45924 0.36599 0.40655 0.0
H1173 H 0.45967 0.36411 0.35669 0.0
C1174 C 0.3637 0.38289 0.32383 0.0
C1175 C 0.31171 0.39421 0.30926 0.0
C1176 C 0.36189 0.38314 0.35241 0.0
C1177 C 0.25607 0.40524 0.32329 0.0
C1178 C 0.25272 0.40522 0.35175 0.0
C1179 C 0.30533 0.39509 0.39506 0.0
C1180 C 0.36059 0.38494 0.40965 0.0
C1181 C 0.30599 0.39444 0.3665 0.0
C1182 C 0.41583 0.37377 0.39556 0.0
C1183 C 0.41621 0.37275 0.36714 0.0
loop_
_geom_bond_atom_site_label_1
_geom_bond_atom_site_label_2
_geom_bond_distance
_geom_bond_site_symmetry_2
_ccdc_geom_bond_type
Co0 O3 1.970 . S
Co0 N17 1.989 . S
Co0 O25 1.967 . S
Co0 O32 1.920 . S
Co1 O4 1.966 . S
Co1 N10 2.022 . S
Co1 N18 1.993 . S
Co1 O26 1.941 . S
C2 O3 1.258 . S
C2 O4 1.263 . S
O3 Co0 1.970 . S
O3 C2 1.258 . S
O4 Co1 1.966 . S
O4 C2 1.263 . S
C5 O6 1.235 . S
C5 O32 1.289 . S
O6 C5 1.235 . S
C7 C9 1.400 . S
C7 N10 1.351 . S
C7 C12 1.501 . S
C8 C9 1.387 . S
C8 N11 1.341 . S
C9 C7 1.400 . S
C9 C8 1.387 . S
N10 Co1 2.022 . S
N10 C7 1.351 . S
N10 N11 1.365 . S
N11 C8 1.341 . S
N11 N10 1.365 . S
N11 H31 0.862 . S
C12 C7 1.501 . S
C12 H13 0.961 . S
C12 H14 0.961 . S
C12 H15 0.960 . S
H13 C12 0.961 . S
H14 C12 0.961 . S
H15 C12 0.960 . S
C16 N17 1.342 . S
C16 C20 1.401 . S
C16 C21 1.499 . S
N17 Co0 1.989 . S
N17 C16 1.342 . S
N17 N18 1.388 . S
N18 Co1 1.993 . S
N18 N17 1.388 . S
N18 C19 1.346 . S
C19 N18 1.346 . S
C19 C20 1.396 . S
C19 C29 1.510 . S
C20 C16 1.401 . S
C20 C19 1.396 . S
C21 C16 1.499 . S
C21 H22 0.959 . S
C21 H23 0.960 . S
C21 H24 0.961 . S
H22 C21 0.959 . S
H23 C21 0.960 . S
H24 C21 0.961 . S
O25 Co0 1.967 . S
O25 C33 1.258 . S
O26 Co1 1.941 . S
O26 C33 1.266 . S
H27 C29 0.959 . S
H28 C29 0.961 . S
C29 C19 1.510 . S
C29 H27 0.959 . S
C29 H28 0.961 . S
C29 H30 0.960 . S
H30 C29 0.960 . S
H31 N11 0.862 . S
O32 Co0 1.920 . S
O32 C5 1.289 . S
C33 O25 1.258 . S
C33 O26 1.266 . S
Co34 O37 1.970 . S
Co34 N51 1.989 . S
Co34 O59 1.967 . S
Co34 O66 1.920 . S
Co35 O38 1.966 . S
Co35 N44 2.022 . S
Co35 N52 1.993 . S
Co35 O60 1.941 . S
C36 O37 1.258 . S
C36 O38 1.263 . S
O37 Co34 1.970 . S
O37 C36 1.258 . S
O38 Co35 1.966 . S
O38 C36 1.263 . S
C39 O40 1.235 . S
C39 O66 1.289 . S
O40 C39 1.235 . S
C41 C43 1.400 . S
C41 N44 1.351 . S
C41 C46 1.501 1_455 S
C42 C43 1.387 . S
C42 N45 1.341 . S
C43 C41 1.400 . S
C43 C42 1.387 . S
N44 Co35 2.022 . S
N44 C41 1.351 . S
N44 N45 1.365 . S
N45 C42 1.341 . S
N45 N44 1.365 . S
N45 H65 0.862 . S
C46 C41 1.501 1_655 S
C46 H47 0.961 . S
C46 H48 0.961 . S
C46 H49 0.960 . S
H47 C46 0.961 . S
H48 C46 0.961 . S
H49 C46 0.960 . S
C50 N51 1.342 . S
C50 C54 1.401 . S
C50 C55 1.499 . S
N51 Co34 1.989 . S
N51 C50 1.342 . S
N51 N52 1.388 . S
N52 Co35 1.993 . S
N52 N51 1.388 . S
N52 C53 1.346 . S
C53 N52 1.346 . S
C53 C54 1.396 . S
C53 C63 1.510 . S
C54 C50 1.401 . S
C54 C53 1.396 . S
C55 C50 1.499 . S
C55 H56 0.959 . S
C55 H57 0.960 . S
C55 H58 0.961 . S
H56 C55 0.959 . S
H57 C55 0.960 . S
H58 C55 0.961 . S
O59 Co34 1.967 . S
O59 C67 1.258 . S
O60 Co35 1.941 . S
O60 C67 1.266 . S
H61 C63 0.959 . S
H62 C63 0.961 . S
C63 C53 1.510 . S
C63 H61 0.959 . S
C63 H62 0.961 . S
C63 H64 0.960 . S
H64 C63 0.960 . S
H65 N45 0.862 . S
O66 Co34 1.920 . S
O66 C39 1.289 . S
C67 O59 1.258 . S
C67 O60 1.266 . S
Co68 O71 1.970 . S
Co68 N85 1.989 . S
Co68 O93 1.967 . S
Co68 O100 1.920 . S
Co69 O72 1.966 . S
Co69 N78 2.022 . S
Co69 N86 1.993 . S
Co69 O94 1.941 . S
C70 O71 1.258 . S
C70 O72 1.263 . S
O71 Co68 1.970 . S
O71 C70 1.258 . S
O72 Co69 1.966 . S
O72 C70 1.263 . S
C73 O74 1.235 . S
C73 O100 1.289 . S
O74 C73 1.235 . S
C75 C77 1.400 . S
C75 N78 1.351 . S
C75 C80 1.501 . S
C76 C77 1.387 . S
C76 N79 1.341 . S
C77 C75 1.400 . S
C77 C76 1.387 . S
N78 Co69 2.022 . S
N78 C75 1.351 . S
N78 N79 1.365 . S
N79 C76 1.341 . S
N79 N78 1.365 . S
N79 H99 0.862 . S
C80 C75 1.501 . S
C80 H81 0.961 . S
C80 H82 0.961 . S
C80 H83 0.960 . S
H81 C80 0.961 . S
H82 C80 0.961 . S
H83 C80 0.960 . S
C84 N85 1.342 . S
C84 C88 1.401 . S
C84 C89 1.499 . S
N85 Co68 1.989 . S
N85 C84 1.342 . S
N85 N86 1.388 . S
N86 Co69 1.993 . S
N86 N85 1.388 . S
N86 C87 1.346 . S
C87 N86 1.346 . S
C87 C88 1.396 . S
C87 C97 1.510 . S
C88 C84 1.401 . S
C88 C87 1.396 . S
C89 C84 1.499 . S
C89 H90 0.959 . S
C89 H91 0.960 . S
C89 H92 0.961 . S
H90 C89 0.959 . S
H91 C89 0.960 . S
H92 C89 0.961 . S
O93 Co68 1.967 . S
O93 C101 1.258 . S
O94 Co69 1.941 . S
O94 C101 1.266 . S
H95 C97 0.959 . S
H96 C97 0.961 . S
C97 C87 1.510 . S
C97 H95 0.959 . S
C97 H96 0.961 . S
C97 H98 0.960 . S
H98 C97 0.960 . S
H99 N79 0.862 . S
O100 Co68 1.920 . S
O100 C73 1.289 . S
C101 O93 1.258 . S
C101 O94 1.266 . S
Co102 O105 1.970 . S
Co102 N119 1.989 . S
Co102 O127 1.967 . S
Co102 O134 1.920 . S
Co103 O106 1.966 . S
Co103 N112 2.022 . S
Co103 N120 1.993 . S
Co103 O128 1.941 . S
C104 O105 1.258 . S
C104 O106 1.263 . S
O105 Co102 1.970 . S
O105 C104 1.258 . S
O106 Co103 1.966 . S
O106 C104 1.263 . S
C107 O108 1.235 . S
C107 O134 1.289 . S
O108 C107 1.235 . S
C109 C111 1.400 . S
C109 N112 1.351 . S
C109 C114 1.501 1_655 S
C110 C111 1.387 . S
C110 N113 1.341 . S
C111 C109 1.400 . S
C111 C110 1.387 . S
N112 Co103 2.022 . S
N112 C109 1.351 . S
N112 N113 1.365 . S
N113 C110 1.341 . S
N113 N112 1.365 . S
N113 H133 0.862 . S
C114 C109 1.501 1_455 S
C114 H115 0.961 . S
C114 H116 0.961 . S
C114 H117 0.960 . S
H115 C114 0.961 . S
H116 C114 0.961 . S
H117 C114 0.960 . S
C118 N119 1.342 . S
C118 C122 1.401 . S
C118 C123 1.499 . S
N119 Co102 1.989 . S
N119 C118 1.342 . S
N119 N120 1.388 . S
N120 Co103 1.993 . S
N120 N119 1.388 . S
N120 C121 1.346 . S
C121 N120 1.346 . S
C121 C122 1.396 . S
C121 C131 1.510 . S
C122 C118 1.401 . S
C122 C121 1.396 . S
C123 C118 1.499 . S
C123 H124 0.959 . S
C123 H125 0.960 . S
C123 H126 0.961 . S
H124 C123 0.959 . S
H125 C123 0.960 . S
H126 C123 0.961 . S
O127 Co102 1.967 . S
O127 C135 1.258 . S
O128 Co103 1.941 . S
O128 C135 1.266 . S
H129 C131 0.959 . S
H130 C131 0.961 . S
C131 C121 1.510 . S
C131 H129 0.959 . S
C131 H130 0.961 . S
C131 H132 0.960 . S
H132 C131 0.960 . S
H133 N113 0.862 . S
O134 Co102 1.920 . S
O134 C107 1.289 . S
C135 O127 1.258 . S
C135 O128 1.266 . S
Co136 O139 1.970 . S
Co136 N153 1.989 1_556 S
Co136 O161 1.967 . S
Co136 O168 1.920 . S
Co137 O140 1.966 . S
Co137 N146 2.022 . S
Co137 N154 1.993 1_556 S
Co137 O162 1.941 . S
C138 O139 1.258 . S
C138 O140 1.263 . S
O139 Co136 1.970 . S
O139 C138 1.258 . S
O140 Co137 1.966 . S
O140 C138 1.263 . S
C141 O142 1.235 . S
C141 O168 1.289 . S
O142 C141 1.235 . S
C143 C145 1.400 . S
C143 N146 1.351 . S
C143 C148 1.501 . S
C144 C145 1.387 . S
C144 N147 1.341 . S
C145 C143 1.400 . S
C145 C144 1.387 . S
N146 Co137 2.022 . S
N146 C143 1.351 . S
N146 N147 1.365 . S
N147 C144 1.341 . S
N147 N146 1.365 . S
N147 H167 0.862 . S
C148 C143 1.501 . S
C148 H149 0.961 . S
C148 H150 0.961 . S
C148 H151 0.960 . S
H149 C148 0.961 . S
H150 C148 0.961 . S
H151 C148 0.960 . S
C152 N153 1.342 . S
C152 C156 1.401 . S
C152 C157 1.499 . S
N153 Co136 1.989 1_554 S
N153 C152 1.342 . S
N153 N154 1.388 . S
N154 Co137 1.993 1_554 S
N154 N153 1.388 . S
N154 C155 1.346 . S
C155 N154 1.346 . S
C155 C156 1.396 . S
C155 C165 1.510 . S
C156 C152 1.401 . S
C156 C155 1.396 . S
C157 C152 1.499 . S
C157 H158 0.959 . S
C157 H159 0.960 . S
C157 H160 0.961 . S
H158 C157 0.959 . S
H159 C157 0.960 . S
H160 C157 0.961 . S
O161 Co136 1.967 . S
O161 C169 1.258 . S
O162 Co137 1.941 . S
O162 C169 1.266 . S
H163 C165 0.959 . S
H164 C165 0.961 . S
C165 C155 1.510 . S
C165 H163 0.959 . S
C165 H164 0.961 . S
C165 H166 0.960 . S
H166 C165 0.960 . S
H167 N147 0.862 . S
O168 Co136 1.920 . S
O168 C141 1.289 . S
C169 O161 1.258 . S
C169 O162 1.266 . S
Co170 O173 1.970 . S
Co170 N187 1.989 . S
Co170 O195 1.967 . S
Co170 O202 1.920 . S
Co171 O174 1.966 . S
Co171 N180 2.022 . S
Co171 N188 1.993 . S
Co171 O196 1.941 . S
C172 O173 1.258 . S
C172 O174 1.263 . S
O173 Co170 1.970 . S
O173 C172 1.258 . S
O174 Co171 1.966 . S
O174 C172 1.263 . S
C175 O176 1.235 . S
C175 O202 1.289 . S
O176 C175 1.235 . S
C177 C179 1.400 . S
C177 N180 1.351 . S
C177 C182 1.501 1_455 S
C178 C179 1.387 . S
C178 N181 1.341 . S
C179 C177 1.400 . S
C179 C178 1.387 . S
N180 Co171 2.022 . S
N180 C177 1.351 . S
N180 N181 1.365 . S
N181 C178 1.341 . S
N181 N180 1.365 . S
N181 H201 0.862 . S
C182 C177 1.501 1_655 S
C182 H183 0.961 . S
C182 H184 0.961 . S
C182 H185 0.960 . S
H183 C182 0.961 . S
H184 C182 0.961 . S
H185 C182 0.960 . S
C186 N187 1.342 . S
C186 C190 1.401 . S
C186 C191 1.499 . S
N187 Co170 1.989 . S
N187 C186 1.342 . S
N187 N188 1.388 . S
N188 Co171 1.993 . S
N188 N187 1.388 . S
N188 C189 1.346 . S
C189 N188 1.346 . S
C189 C190 1.396 . S
C189 C199 1.510 . S
C190 C186 1.401 . S
C190 C189 1.396 . S
C191 C186 1.499 . S
C191 H192 0.959 . S
C191 H193 0.960 . S
C191 H194 0.961 . S
H192 C191 0.959 . S
H193 C191 0.960 . S
H194 C191 0.961 . S
O195 Co170 1.967 . S
O195 C203 1.258 . S
O196 Co171 1.941 . S
O196 C203 1.266 . S
H197 C199 0.959 . S
H198 C199 0.961 . S
C199 C189 1.510 . S
C199 H197 0.959 . S
C199 H198 0.961 . S
C199 H200 0.960 . S
H200 C199 0.960 . S
H201 N181 0.862 . S
O202 Co170 1.920 . S
O202 C175 1.289 . S
C203 O195 1.258 . S
C203 O196 1.266 . S
Co204 O207 1.970 . S
Co204 N221 1.989 1_554 S
Co204 O229 1.967 . S
Co204 O236 1.920 . S
Co205 O208 1.966 . S
Co205 N214 2.022 . S
Co205 N222 1.993 1_554 S
Co205 O230 1.941 . S
C206 O207 1.258 . S
C206 O208 1.263 . S
O207 Co204 1.970 . S
O207 C206 1.258 . S
O208 Co205 1.966 . S
O208 C206 1.263 . S
C209 O210 1.235 . S
C209 O236 1.289 . S
O210 C209 1.235 . S
C211 C213 1.400 . S
C211 N214 1.351 . S
C211 C216 1.501 . S
C212 C213 1.387 . S
C212 N215 1.341 . S
C213 C211 1.400 . S
C213 C212 1.387 . S
N214 Co205 2.022 . S
N214 C211 1.351 . S
N214 N215 1.365 . S
N215 C212 1.341 . S
N215 N214 1.365 . S
N215 H235 0.862 . S
C216 C211 1.501 . S
C216 H217 0.961 . S
C216 H218 0.961 . S
C216 H219 0.960 . S
H217 C216 0.961 . S
H218 C216 0.961 . S
H219 C216 0.960 . S
C220 N221 1.342 . S
C220 C224 1.401 . S
C220 C225 1.499 . S
N221 Co204 1.989 1_556 S
N221 C220 1.342 . S
N221 N222 1.388 . S
N222 Co205 1.993 1_556 S
N222 N221 1.388 . S
N222 C223 1.346 . S
C223 N222 1.346 . S
C223 C224 1.396 . S
C223 C233 1.510 . S
C224 C220 1.401 . S
C224 C223 1.396 . S
C225 C220 1.499 . S
C225 H226 0.959 . S
C225 H227 0.960 . S
C225 H228 0.961 . S
H226 C225 0.959 . S
H227 C225 0.960 . S
H228 C225 0.961 . S
O229 Co204 1.967 . S
O229 C237 1.258 . S
O230 Co205 1.941 . S
O230 C237 1.266 . S
H231 C233 0.959 . S
H232 C233 0.961 . S
C233 C223 1.510 . S
C233 H231 0.959 . S
C233 H232 0.961 . S
C233 H234 0.960 . S
H234 C233 0.960 . S
H235 N215 0.862 . S
O236 Co204 1.920 . S
O236 C209 1.289 . S
C237 O229 1.258 . S
C237 O230 1.266 . S
Co238 O241 1.970 . S
Co238 N255 1.989 . S
Co238 O263 1.967 . S
Co238 O270 1.920 . S
Co239 O242 1.966 . S
Co239 N248 2.022 . S
Co239 N256 1.993 . S
Co239 O264 1.941 . S
C240 O241 1.258 . S
C240 O242 1.263 . S
O241 Co238 1.970 . S
O241 C240 1.258 . S
O242 Co239 1.966 . S
O242 C240 1.263 . S
C243 O244 1.235 . S
C243 O270 1.289 . S
O244 C243 1.235 . S
C245 C247 1.400 . S
C245 N248 1.351 . S
C245 C250 1.501 1_655 S
C246 C247 1.387 . S
C246 N249 1.341 . S
C247 C245 1.400 . S
C247 C246 1.387 . S
N248 Co239 2.022 . S
N248 C245 1.351 . S
N248 N249 1.365 . S
N249 C246 1.341 . S
N249 N248 1.365 . S
N249 H269 0.862 . S
C250 C245 1.501 1_455 S
C250 H251 0.961 . S
C250 H252 0.961 . S
C250 H253 0.960 . S
H251 C250 0.961 . S
H252 C250 0.961 . S
H253 C250 0.960 . S
C254 N255 1.342 . S
C254 C258 1.401 . S
C254 C259 1.499 . S
N255 Co238 1.989 . S
N255 C254 1.342 . S
N255 N256 1.388 . S
N256 Co239 1.993 . S
N256 N255 1.388 . S
N256 C257 1.346 . S
C257 N256 1.346 . S
C257 C258 1.396 . S
C257 C267 1.510 . S
C258 C254 1.401 . S
C258 C257 1.396 . S
C259 C254 1.499 . S
C259 H260 0.959 . S
C259 H261 0.960 . S
C259 H262 0.961 . S
H260 C259 0.959 . S
H261 C259 0.960 . S
H262 C259 0.961 . S
O263 Co238 1.967 . S
O263 C271 1.258 . S
O264 Co239 1.941 . S
O264 C271 1.266 . S
H265 C267 0.959 . S
H266 C267 0.961 . S
C267 C257 1.510 . S
C267 H265 0.959 . S
C267 H266 0.961 . S
C267 H268 0.960 . S
H268 C267 0.960 . S
H269 N249 0.862 . S
O270 Co238 1.920 . S
O270 C243 1.289 . S
C271 O263 1.258 . S
C271 O264 1.266 . S
Co272 O275 1.970 . S
Co272 N289 1.989 1_556 S
Co272 O297 1.967 . S
Co272 O304 1.920 . S
Co273 O276 1.966 . S
Co273 N282 2.022 . S
Co273 N290 1.993 1_556 S
Co273 O298 1.941 . S
C274 O275 1.258 . S
C274 O276 1.263 . S
O275 Co272 1.970 . S
O275 C274 1.258 . S
O276 Co273 1.966 . S
O276 C274 1.263 . S
C277 O278 1.235 . S
C277 O304 1.289 . S
O278 C277 1.235 . S
C279 C281 1.400 . S
C279 N282 1.351 . S
C279 C284 1.501 . S
C280 C281 1.387 . S
C280 N283 1.341 . S
C281 C279 1.400 . S
C281 C280 1.387 . S
N282 Co273 2.022 . S
N282 C279 1.351 . S
N282 N283 1.365 . S
N283 C280 1.341 . S
N283 N282 1.365 . S
N283 H303 0.862 . S
C284 C279 1.501 . S
C284 H285 0.961 . S
C284 H286 0.961 . S
C284 H287 0.960 . S
H285 C284 0.961 . S
H286 C284 0.961 . S
H287 C284 0.960 . S
C288 N289 1.342 . S
C288 C292 1.401 . S
C288 C293 1.499 . S
N289 Co272 1.989 1_554 S
N289 C288 1.342 . S
N289 N290 1.388 . S
N290 Co273 1.993 1_554 S
N290 N289 1.388 . S
N290 C291 1.346 . S
C291 N290 1.346 . S
C291 C292 1.396 . S
C291 C301 1.510 . S
C292 C288 1.401 . S
C292 C291 1.396 . S
C293 C288 1.499 . S
C293 H294 0.959 . S
C293 H295 0.960 . S
C293 H296 0.961 . S
H294 C293 0.959 . S
H295 C293 0.960 . S
H296 C293 0.961 . S
O297 Co272 1.967 . S
O297 C305 1.258 . S
O298 Co273 1.941 . S
O298 C305 1.266 . S
H299 C301 0.959 . S
H300 C301 0.961 . S
C301 C291 1.510 . S
C301 H299 0.959 . S
C301 H300 0.961 . S
C301 H302 0.960 . S
H302 C301 0.960 . S
H303 N283 0.862 . S
O304 Co272 1.920 . S
O304 C277 1.289 . S
C305 O297 1.258 . S
C305 O298 1.266 . S
Co306 O309 1.970 . S
Co306 N323 1.989 . S
Co306 O331 1.967 . S
Co306 O338 1.920 . S
Co307 O310 1.966 . S
Co307 N316 2.022 . S
Co307 N324 1.993 . S
Co307 O332 1.941 . S
C308 O309 1.258 . S
C308 O310 1.263 . S
O309 Co306 1.970 . S
O309 C308 1.258 . S
O310 Co307 1.966 . S
O310 C308 1.263 . S
C311 O312 1.235 . S
C311 O338 1.289 . S
O312 C311 1.235 . S
C313 C315 1.400 . S
C313 N316 1.351 . S
C313 C318 1.501 . S
C314 C315 1.387 . S
C314 N317 1.341 . S
C315 C313 1.400 . S
C315 C314 1.387 . S
N316 Co307 2.022 . S
N316 C313 1.351 . S
N316 N317 1.365 . S
N317 C314 1.341 . S
N317 N316 1.365 . S
N317 H337 0.862 . S
C318 C313 1.501 . S
C318 H319 0.961 . S
C318 H320 0.961 . S
C318 H321 0.960 . S
H319 C318 0.961 . S
H320 C318 0.961 . S
H321 C318 0.960 . S
C322 N323 1.342 . S
C322 C326 1.401 . S
C322 C327 1.499 . S
N323 Co306 1.989 . S
N323 C322 1.342 . S
N323 N324 1.388 . S
N324 Co307 1.993 . S
N324 N323 1.388 . S
N324 C325 1.346 . S
C325 N324 1.346 . S
C325 C326 1.396 . S
C325 C335 1.510 . S
C326 C322 1.401 . S
C326 C325 1.396 . S
C327 C322 1.499 . S
C327 H328 0.959 . S
C327 H329 0.960 . S
C327 H330 0.961 . S
H328 C327 0.959 . S
H329 C327 0.960 . S
H330 C327 0.961 . S
O331 Co306 1.967 . S
O331 C339 1.258 . S
O332 Co307 1.941 . S
O332 C339 1.266 . S
H333 C335 0.959 . S
H334 C335 0.961 . S
C335 C325 1.510 . S
C335 H333 0.959 . S
C335 H334 0.961 . S
C335 H336 0.960 . S
H336 C335 0.960 . S
H337 N317 0.862 . S
O338 Co306 1.920 . S
O338 C311 1.289 . S
C339 O331 1.258 . S
C339 O332 1.266 . S
Co340 O343 1.970 . S
Co340 N357 1.989 1_554 S
Co340 O365 1.967 . S
Co340 O372 1.920 . S
Co341 O344 1.966 . S
Co341 N350 2.022 . S
Co341 N358 1.993 1_554 S
Co341 O366 1.941 . S
C342 O343 1.258 . S
C342 O344 1.263 . S
O343 Co340 1.970 . S
O343 C342 1.258 . S
O344 Co341 1.966 . S
O344 C342 1.263 . S
C345 O346 1.235 . S
C345 O372 1.289 . S
O346 C345 1.235 . S
C347 C349 1.400 . S
C347 N350 1.351 . S
C347 C352 1.501 . S
C348 C349 1.387 . S
C348 N351 1.341 . S
C349 C347 1.400 . S
C349 C348 1.387 . S
N350 Co341 2.022 . S
N350 C347 1.351 . S
N350 N351 1.365 . S
N351 C348 1.341 . S
N351 N350 1.365 . S
N351 H371 0.862 . S
C352 C347 1.501 . S
C352 H353 0.961 . S
C352 H354 0.961 . S
C352 H355 0.960 . S
H353 C352 0.961 . S
H354 C352 0.961 . S
H355 C352 0.960 . S
C356 N357 1.342 . S
C356 C360 1.401 . S
C356 C361 1.499 . S
N357 Co340 1.989 1_556 S
N357 C356 1.342 . S
N357 N358 1.388 . S
N358 Co341 1.993 1_556 S
N358 N357 1.388 . S
N358 C359 1.346 . S
C359 N358 1.346 . S
C359 C360 1.396 . S
C359 C369 1.510 . S
C360 C356 1.401 . S
C360 C359 1.396 . S
C361 C356 1.499 . S
C361 H362 0.959 . S
C361 H363 0.960 . S
C361 H364 0.961 . S
H362 C361 0.959 . S
H363 C361 0.960 . S
H364 C361 0.961 . S
O365 Co340 1.967 . S
O365 C373 1.258 . S
O366 Co341 1.941 . S
O366 C373 1.266 . S
H367 C369 0.959 . S
H368 C369 0.961 . S
C369 C359 1.510 . S
C369 H367 0.959 . S
C369 H368 0.961 . S
C369 H370 0.960 . S
H370 C369 0.960 . S
H371 N351 0.862 . S
O372 Co340 1.920 . S
O372 C345 1.289 . S
C373 O365 1.258 . S
C373 O366 1.266 . S
Co374 O377 1.970 . S
Co374 N391 1.989 . S
Co374 O399 1.967 . S
Co374 O406 1.920 . S
Co375 O378 1.966 . S
Co375 N384 2.022 . S
Co375 N392 1.993 . S
Co375 O400 1.941 . S
C376 O377 1.258 . S
C376 O378 1.263 . S
O377 Co374 1.970 . S
O377 C376 1.258 . S
O378 Co375 1.966 . S
O378 C376 1.263 . S
C379 O380 1.235 . S
C379 O406 1.289 . S
O380 C379 1.235 . S
C381 C383 1.400 . S
C381 N384 1.351 . S
C381 C386 1.501 . S
C382 C383 1.387 . S
C382 N385 1.341 . S
C383 C381 1.400 . S
C383 C382 1.387 . S
N384 Co375 2.022 . S
N384 C381 1.351 . S
N384 N385 1.365 . S
N385 C382 1.341 . S
N385 N384 1.365 . S
N385 H405 0.862 . S
C386 C381 1.501 . S
C386 H387 0.961 . S
C386 H388 0.961 . S
C386 H389 0.960 . S
H387 C386 0.961 . S
H388 C386 0.961 . S
H389 C386 0.960 . S
C390 N391 1.342 . S
C390 C394 1.401 . S
C390 C395 1.499 . S
N391 Co374 1.989 . S
N391 C390 1.342 . S
N391 N392 1.388 . S
N392 Co375 1.993 . S
N392 N391 1.388 . S
N392 C393 1.346 . S
C393 N392 1.346 . S
C393 C394 1.396 . S
C393 C403 1.510 . S
C394 C390 1.401 . S
C394 C393 1.396 . S
C395 C390 1.499 . S
C395 H396 0.959 . S
C395 H397 0.960 . S
C395 H398 0.961 . S
H396 C395 0.959 . S
H397 C395 0.960 . S
H398 C395 0.961 . S
O399 Co374 1.967 . S
O399 C407 1.258 . S
O400 Co375 1.941 . S
O400 C407 1.266 . S
H401 C403 0.959 . S
H402 C403 0.961 . S
C403 C393 1.510 . S
C403 H401 0.959 . S
C403 H402 0.961 . S
C403 H404 0.960 . S
H404 C403 0.960 . S
H405 N385 0.862 . S
O406 Co374 1.920 . S
O406 C379 1.289 . S
C407 O399 1.258 . S
C407 O400 1.266 . S
Co408 O411 1.970 . S
Co408 N425 1.989 . S
Co408 O433 1.967 . S
Co408 O440 1.920 . S
Co409 O412 1.966 . S
Co409 N418 2.022 . S
Co409 N426 1.993 . S
Co409 O434 1.941 . S
C410 O411 1.258 . S
C410 O412 1.263 . S
O411 Co408 1.970 . S
O411 C410 1.258 . S
O412 Co409 1.966 . S
O412 C410 1.263 . S
C413 O414 1.235 . S
C413 O440 1.289 . S
O414 C413 1.235 . S
C415 C417 1.400 . S
C415 N418 1.351 . S
C415 C420 1.501 . S
C416 C417 1.387 . S
C416 N419 1.341 . S
C417 C415 1.400 . S
C417 C416 1.387 . S
N418 Co409 2.022 . S
N418 C415 1.351 . S
N418 N419 1.365 . S
N419 C416 1.341 . S
N419 N418 1.365 . S
N419 H439 0.862 . S
C420 C415 1.501 . S
C420 H421 0.961 . S
C420 H422 0.961 . S
C420 H423 0.960 . S
H421 C420 0.961 . S
H422 C420 0.961 . S
H423 C420 0.960 . S
C424 N425 1.342 . S
C424 C428 1.401 . S
C424 C429 1.499 . S
N425 Co408 1.989 . S
N425 C424 1.342 . S
N425 N426 1.388 . S
N426 Co409 1.993 . S
N426 N425 1.388 . S
N426 C427 1.346 . S
C427 N426 1.346 . S
C427 C428 1.396 . S
C427 C437 1.510 . S
C428 C424 1.401 . S
C428 C427 1.396 . S
C429 C424 1.499 . S
C429 H430 0.959 . S
C429 H431 0.960 . S
C429 H432 0.961 . S
H430 C429 0.959 . S
H431 C429 0.960 . S
H432 C429 0.961 . S
O433 Co408 1.967 . S
O433 C441 1.258 . S
O434 Co409 1.941 . S
O434 C441 1.266 . S
H435 C437 0.959 . S
H436 C437 0.961 . S
C437 C427 1.510 . S
C437 H435 0.959 . S
C437 H436 0.961 . S
C437 H438 0.960 . S
H438 C437 0.960 . S
H439 N419 0.862 . S
O440 Co408 1.920 . S
O440 C413 1.289 . S
C441 O433 1.258 . S
C441 O434 1.266 . S
Co442 O445 1.970 . S
Co442 N459 1.989 . S
Co442 O467 1.967 . S
Co442 O474 1.920 . S
Co443 O446 1.966 . S
Co443 N452 2.022 . S
Co443 N460 1.993 . S
Co443 O468 1.941 . S
C444 O445 1.258 . S
C444 O446 1.263 . S
O445 Co442 1.970 . S
O445 C444 1.258 . S
O446 Co443 1.966 . S
O446 C444 1.263 . S
C447 O448 1.235 . S
C447 O474 1.289 . S
O448 C447 1.235 . S
C449 C451 1.400 . S
C449 N452 1.351 . S
C449 C454 1.501 . S
C450 C451 1.387 . S
C450 N453 1.341 . S
C451 C449 1.400 . S
C451 C450 1.387 . S
N452 Co443 2.022 . S
N452 C449 1.351 . S
N452 N453 1.365 . S
N453 C450 1.341 . S
N453 N452 1.365 . S
N453 H473 0.862 . S
C454 C449 1.501 . S
C454 H455 0.961 . S
C454 H456 0.961 . S
C454 H457 0.960 . S
H455 C454 0.961 . S
H456 C454 0.961 . S
H457 C454 0.960 . S
C458 N459 1.342 . S
C458 C462 1.401 . S
C458 C463 1.499 . S
N459 Co442 1.989 . S
N459 C458 1.342 . S
N459 N460 1.388 . S
N460 Co443 1.993 . S
N460 N459 1.388 . S
N460 C461 1.346 . S
C461 N460 1.346 . S
C461 C462 1.396 . S
C461 C471 1.510 . S
C462 C458 1.401 . S
C462 C461 1.396 . S
C463 C458 1.499 . S
C463 H464 0.959 . S
C463 H465 0.960 . S
C463 H466 0.961 . S
H464 C463 0.959 . S
H465 C463 0.960 . S
H466 C463 0.961 . S
O467 Co442 1.967 . S
O467 C475 1.258 . S
O468 Co443 1.941 . S
O468 C475 1.266 . S
H469 C471 0.959 . S
H470 C471 0.961 . S
C471 C461 1.510 . S
C471 H469 0.959 . S
C471 H470 0.961 . S
C471 H472 0.960 . S
H472 C471 0.960 . S
H473 N453 0.862 . S
O474 Co442 1.920 . S
O474 C447 1.289 . S
C475 O467 1.258 . S
C475 O468 1.266 . S
Co476 O479 1.970 . S
Co476 N493 1.989 . S
Co476 O501 1.967 . S
Co476 O508 1.920 . S
Co477 O480 1.966 . S
Co477 N486 2.022 . S
Co477 N494 1.993 . S
Co477 O502 1.941 . S
C478 O479 1.258 . S
C478 O480 1.263 . S
O479 Co476 1.970 . S
O479 C478 1.258 . S
O480 Co477 1.966 . S
O480 C478 1.263 . S
C481 O482 1.235 . S
C481 O508 1.289 . S
O482 C481 1.235 . S
C483 C485 1.400 . S
C483 N486 1.351 . S
C483 C488 1.501 . S
C484 C485 1.387 . S
C484 N487 1.341 . S
C485 C483 1.400 . S
C485 C484 1.387 . S
N486 Co477 2.022 . S
N486 C483 1.351 . S
N486 N487 1.365 . S
N487 C484 1.341 . S
N487 N486 1.365 . S
N487 H507 0.862 . S
C488 C483 1.501 . S
C488 H489 0.961 . S
C488 H490 0.961 . S
C488 H491 0.960 . S
H489 C488 0.961 . S
H490 C488 0.961 . S
H491 C488 0.960 . S
C492 N493 1.342 . S
C492 C496 1.401 . S
C492 C497 1.499 . S
N493 Co476 1.989 . S
N493 C492 1.342 . S
N493 N494 1.388 . S
N494 Co477 1.993 . S
N494 N493 1.388 . S
N494 C495 1.346 . S
C495 N494 1.346 . S
C495 C496 1.396 . S
C495 C505 1.510 . S
C496 C492 1.401 . S
C496 C495 1.396 . S
C497 C492 1.499 . S
C497 H498 0.959 . S
C497 H499 0.960 . S
C497 H500 0.961 . S
H498 C497 0.959 . S
H499 C497 0.960 . S
H500 C497 0.961 . S
O501 Co476 1.967 . S
O501 C509 1.258 . S
O502 Co477 1.941 . S
O502 C509 1.266 . S
H503 C505 0.959 . S
H504 C505 0.961 . S
C505 C495 1.510 . S
C505 H503 0.959 . S
C505 H504 0.961 . S
C505 H506 0.960 . S
H506 C505 0.960 . S
H507 N487 0.862 . S
O508 Co476 1.920 . S
O508 C481 1.289 . S
C509 O501 1.258 . S
C509 O502 1.266 . S
Co510 O513 1.970 . S
Co510 N527 1.989 . S
Co510 O535 1.967 . S
Co510 O542 1.920 . S
Co511 O514 1.966 . S
Co511 N520 2.022 . S
Co511 N528 1.993 . S
Co511 O536 1.941 . S
C512 O513 1.258 . S
C512 O514 1.263 . S
O513 Co510 1.970 . S
O513 C512 1.258 . S
O514 Co511 1.966 . S
O514 C512 1.263 . S
C515 O516 1.235 . S
C515 O542 1.289 . S
O516 C515 1.235 . S
C517 C519 1.400 . S
C517 N520 1.351 . S
C517 C522 1.501 . S
C518 C519 1.387 . S
C518 N521 1.341 . S
C519 C517 1.400 . S
C519 C518 1.387 . S
N520 Co511 2.022 . S
N520 C517 1.351 . S
N520 N521 1.365 . S
N521 C518 1.341 . S
N521 N520 1.365 . S
N521 H541 0.862 . S
C522 C517 1.501 . S
C522 H523 0.961 . S
C522 H524 0.961 . S
C522 H525 0.960 . S
H523 C522 0.961 . S
H524 C522 0.961 . S
H525 C522 0.960 . S
C526 N527 1.342 . S
C526 C530 1.401 . S
C526 C531 1.499 . S
N527 Co510 1.989 . S
N527 C526 1.342 . S
N527 N528 1.388 . S
N528 Co511 1.993 . S
N528 N527 1.388 . S
N528 C529 1.346 . S
C529 N528 1.346 . S
C529 C530 1.396 . S
C529 C539 1.510 . S
C530 C526 1.401 . S
C530 C529 1.396 . S
C531 C526 1.499 . S
C531 H532 0.959 . S
C531 H533 0.960 . S
C531 H534 0.961 . S
H532 C531 0.959 . S
H533 C531 0.960 . S
H534 C531 0.961 . S
O535 Co510 1.967 . S
O535 C543 1.258 . S
O536 Co511 1.941 . S
O536 C543 1.266 . S
H537 C539 0.959 . S
H538 C539 0.961 . S
C539 C529 1.510 . S
C539 H537 0.959 . S
C539 H538 0.961 . S
C539 H540 0.960 . S
H540 C539 0.960 . S
H541 N521 0.862 . S
O542 Co510 1.920 . S
O542 C515 1.289 . S
C543 O535 1.258 . S
C543 O536 1.266 . S
H544 C550 0.930 . S
H545 C553 0.930 . S
H546 C554 0.930 . S
H547 C555 0.930 . S
H548 C558 0.930 . S
H549 C559 0.930 . S
C550 H544 0.930 . S
C550 C551 1.355 . S
C550 C552 1.415 . S
C551 C550 1.355 . S
C551 C553 1.419 . S
C552 C550 1.415 . S
C552 C557 1.425 . S
C552 C559 1.409 . S
C553 H545 0.930 . S
C553 C551 1.419 . S
C553 C554 1.362 . S
C554 H546 0.930 . S
C554 C553 1.362 . S
C554 C557 1.409 . S
C555 H547 0.930 . S
C555 C556 1.355 . S
C555 C557 1.415 . S
C556 C555 1.355 . S
C556 C558 1.419 . S
C557 C552 1.425 . S
C557 C554 1.409 . S
C557 C555 1.415 . S
C558 H548 0.930 . S
C558 C556 1.419 . S
C558 C559 1.362 . S
C559 H549 0.930 . S
C559 C552 1.409 . S
C559 C558 1.362 . S
H560 C566 0.930 . S
H561 C569 0.930 . S
H562 C570 0.930 . S
H563 C571 0.930 . S
H564 C574 0.930 . S
H565 C575 0.930 . S
C566 H560 0.930 . S
C566 C567 1.355 . S
C566 C568 1.378 1_565 S
C567 C566 1.355 . S
C567 C569 1.419 . S
C568 C566 1.378 1_545 S
C568 C573 1.420 1_645 S
C568 C575 1.452 1_655 S
C569 H561 0.930 . S
C569 C567 1.419 . S
C569 C570 1.362 . S
C570 H562 0.930 . S
C570 C569 1.362 . S
C570 C573 1.452 1_655 S
C571 H563 0.930 . S
C571 C572 1.355 . S
C571 C573 1.378 1_545 S
C572 C571 1.355 . S
C572 C574 1.419 . S
C573 C568 1.420 1_465 S
C573 C570 1.452 1_455 S
C573 C571 1.378 1_565 S
C574 H564 0.930 . S
C574 C572 1.419 . S
C574 C575 1.362 . S
C575 H565 0.930 . S
C575 C568 1.452 1_455 S
C575 C574 1.362 . S
H576 C582 0.930 . S
H577 C585 0.930 . S
H578 C586 0.930 . S
H579 C587 0.930 . S
H580 C590 0.930 . S
H581 C591 0.930 . S
C582 H576 0.930 . S
C582 C583 1.355 . S
C582 C584 1.388 1_545 S
C583 C582 1.355 . S
C583 C585 1.419 . S
C584 C582 1.388 1_565 S
C584 C589 1.423 1_565 S
C584 C591 1.439 . S
C585 H577 0.930 . S
C585 C583 1.419 . S
C585 C586 1.362 . S
C586 H578 0.930 . S
C586 C585 1.362 . S
C586 C589 1.439 . S
C587 H579 0.930 . S
C587 C588 1.355 . S
C587 C589 1.388 1_565 S
C588 C587 1.355 . S
C588 C590 1.419 . S
C589 C584 1.423 1_545 S
C589 C586 1.439 . S
C589 C587 1.388 1_545 S
C590 H580 0.930 . S
C590 C588 1.419 . S
C590 C591 1.362 . S
C591 H581 0.930 . S
C591 C584 1.439 . S
C591 C590 1.362 . S
H592 C598 0.930 . S
H593 C601 0.930 . S
H594 C602 0.930 . S
H595 C603 0.930 . S
H596 C606 0.930 . S
H597 C607 0.930 . S
C598 H592 0.930 . S
C598 C599 1.355 1_655 S
C598 C600 1.415 . S
C599 C598 1.355 1_455 S
C599 C601 1.419 . S
C600 C598 1.415 . S
C600 C605 1.425 1_655 S
C600 C607 1.409 . S
C601 H593 0.930 . S
C601 C599 1.419 . S
C601 C602 1.362 . S
C602 H594 0.930 . S
C602 C601 1.362 . S
C602 C605 1.409 . S
C603 H595 0.930 . S
C603 C604 1.355 1_455 S
C603 C605 1.415 . S
C604 C603 1.355 1_655 S
C604 C606 1.419 . S
C605 C600 1.425 1_455 S
C605 C602 1.409 . S
C605 C603 1.415 . S
C606 H596 0.930 . S
C606 C604 1.419 . S
C606 C607 1.362 . S
C607 H597 0.930 . S
C607 C600 1.409 . S
C607 C606 1.362 . S
H608 C614 0.930 . S
H609 C617 0.930 . S
H610 C618 0.930 . S
H611 C619 0.930 . S
H612 C622 0.930 . S
H613 C623 0.930 . S
C614 H608 0.930 . S
C614 C615 1.355 . S
C614 C616 1.415 . S
C615 C614 1.355 . S
C615 C617 1.419 . S
C616 C614 1.415 . S
C616 C621 1.425 . S
C616 C623 1.409 . S
C617 H609 0.930 . S
C617 C615 1.419 . S
C617 C618 1.362 . S
C618 H610 0.930 . S
C618 C617 1.362 . S
C618 C621 1.409 . S
C619 H611 0.930 . S
C619 C620 1.355 . S
C619 C621 1.415 . S
C620 C619 1.355 . S
C620 C622 1.419 . S
C621 C616 1.425 . S
C621 C618 1.409 . S
C621 C619 1.415 . S
C622 H612 0.930 . S
C622 C620 1.419 . S
C622 C623 1.362 . S
C623 H613 0.930 . S
C623 C616 1.409 . S
C623 C622 1.362 . S
H624 C630 0.930 . S
H625 C633 0.930 . S
H626 C634 0.930 . S
H627 C635 0.930 . S
H628 C638 0.930 . S
H629 C639 0.930 . S
C630 H624 0.930 . S
C630 C631 1.355 . S
C630 C632 1.415 . S
C631 C630 1.355 . S
C631 C633 1.419 . S
C632 C630 1.415 . S
C632 C637 1.425 1_565 S
C632 C639 1.409 1_565 S
C633 H625 0.930 . S
C633 C631 1.419 . S
C633 C634 1.362 . S
C634 H626 0.930 . S
C634 C633 1.362 . S
C634 C637 1.409 1_565 S
C635 H627 0.930 . S
C635 C636 1.355 . S
C635 C637 1.415 . S
C636 C635 1.355 . S
C636 C638 1.419 . S
C637 C632 1.425 1_545 S
C637 C634 1.409 1_545 S
C637 C635 1.415 . S
C638 H628 0.930 . S
C638 C636 1.419 . S
C638 C639 1.362 . S
C639 H629 0.930 . S
C639 C632 1.409 1_545 S
C639 C638 1.362 . S
H640 C646 0.930 . S
H641 C649 0.930 . S
H642 C650 0.930 . S
H643 C651 0.930 . S
H644 C654 0.930 . S
H645 C655 0.930 . S
C646 H640 0.930 . S
C646 C647 1.348 1_655 S
C646 C648 1.415 . S
C647 C646 1.348 1_455 S
C647 C649 1.427 . S
C648 C646 1.415 . S
C648 C653 1.425 1_655 S
C648 C655 1.409 . S
C649 H641 0.930 . S
C649 C647 1.427 . S
C649 C650 1.362 . S
C650 H642 0.930 . S
C650 C649 1.362 . S
C650 C653 1.409 . S
C651 H643 0.930 . S
C651 C652 1.348 1_455 S
C651 C653 1.415 . S
C652 C651 1.348 1_655 S
C652 C654 1.427 . S
C653 C648 1.425 1_455 S
C653 C650 1.409 . S
C653 C651 1.415 . S
C654 H644 0.930 . S
C654 C652 1.427 . S
C654 C655 1.362 . S
C655 H645 0.930 . S
C655 C648 1.409 . S
C655 C654 1.362 . S
H656 C662 0.930 . S
H657 C665 0.930 . S
H658 C666 0.930 . S
H659 C667 0.930 . S
H660 C670 0.930 . S
H661 C671 0.930 . S
C662 H656 0.930 . S
C662 C663 1.355 1_556 S
C662 C664 1.415 . S
C663 C662 1.355 1_554 S
C663 C665 1.419 . S
C664 C662 1.415 . S
C664 C669 1.425 1_556 S
C664 C671 1.409 . S
C665 H657 0.930 . S
C665 C663 1.419 . S
C665 C666 1.362 . S
C666 H658 0.930 . S
C666 C665 1.362 . S
C666 C669 1.409 . S
C667 H659 0.930 . S
C667 C668 1.355 1_554 S
C667 C669 1.415 . S
C668 C667 1.355 1_556 S
C668 C670 1.419 . S
C669 C664 1.425 1_554 S
C669 C666 1.409 . S
C669 C667 1.415 . S
C670 H660 0.930 . S
C670 C668 1.419 . S
C670 C671 1.362 . S
C671 H661 0.930 . S
C671 C664 1.409 . S
C671 C670 1.362 . S
H672 C678 0.930 1_556 S
H673 C681 0.931 . S
H674 C682 0.930 . S
H675 C683 0.930 1_554 S
H676 C686 0.931 . S
H677 C687 0.930 . S
C678 H672 0.930 1_554 S
C678 C679 1.355 . S
C678 C680 1.415 1_554 S
C679 C678 1.355 . S
C679 C681 1.413 1_655 S
C680 C678 1.415 1_556 S
C680 C685 1.425 1_656 S
C680 C687 1.409 . S
C681 H673 0.931 . S
C681 C679 1.413 1_455 S
C681 C682 1.367 . S
C682 H674 0.930 . S
C682 C681 1.367 . S
C682 C685 1.409 . S
C683 H675 0.930 1_556 S
C683 C684 1.355 . S
C683 C685 1.415 1_556 S
C684 C683 1.355 . S
C684 C686 1.413 1_455 S
C685 C680 1.425 1_454 S
C685 C682 1.409 . S
C685 C683 1.415 1_554 S
C686 H676 0.931 . S
C686 C684 1.413 1_655 S
C686 C687 1.367 . S
C687 H677 0.930 . S
C687 C680 1.409 . S
C687 C686 1.367 . S
H688 C694 0.930 . S
H689 C697 0.930 . S
H690 C698 0.930 . S
H691 C699 0.930 . S
H692 C702 0.930 . S
H693 C703 0.930 . S
C694 H688 0.930 . S
C694 C695 1.355 . S
C694 C696 1.415 . S
C695 C694 1.355 . S
C695 C697 1.419 . S
C696 C694 1.415 . S
C696 C701 1.425 . S
C696 C703 1.409 . S
C697 H689 0.930 . S
C697 C695 1.419 . S
C697 C698 1.362 . S
C698 H690 0.930 . S
C698 C697 1.362 . S
C698 C701 1.409 . S
C699 H691 0.930 . S
C699 C700 1.355 . S
C699 C701 1.415 . S
C700 C699 1.355 . S
C700 C702 1.419 . S
C701 C696 1.425 . S
C701 C698 1.409 . S
C701 C699 1.415 . S
C702 H692 0.930 . S
C702 C700 1.419 . S
C702 C703 1.362 . S
C703 H693 0.930 . S
C703 C696 1.409 . S
C703 C702 1.362 . S
H704 C710 0.930 . S
H705 C713 0.930 . S
H706 C714 0.930 . S
H707 C715 0.930 . S
H708 C718 0.930 . S
H709 C719 0.930 . S
C710 H704 0.930 . S
C710 C711 1.355 . S
C710 C712 1.415 . S
C711 C710 1.355 . S
C711 C713 1.419 1_556 S
C712 C710 1.415 . S
C712 C717 1.425 1_556 S
C712 C719 1.409 . S
C713 H705 0.930 . S
C713 C711 1.419 1_554 S
C713 C714 1.362 . S
C714 H706 0.930 . S
C714 C713 1.362 . S
C714 C717 1.409 . S
C715 H707 0.930 . S
C715 C716 1.355 . S
C715 C717 1.415 . S
C716 C715 1.355 . S
C716 C718 1.419 1_554 S
C717 C712 1.425 1_554 S
C717 C714 1.409 . S
C717 C715 1.415 . S
C718 H708 0.930 . S
C718 C716 1.419 1_556 S
C718 C719 1.362 . S
C719 H709 0.930 . S
C719 C712 1.409 . S
C719 C718 1.362 . S
H720 C726 0.930 . S
H721 C729 0.930 . S
H722 C730 0.930 . S
H723 C731 0.930 . S
H724 C734 0.930 . S
H725 C735 0.930 . S
C726 H720 0.930 . S
C726 C727 1.355 . S
C726 C728 1.415 . S
C727 C726 1.355 . S
C727 C729 1.419 . S
C728 C726 1.415 . S
C728 C733 1.425 . S
C728 C735 1.409 . S
C729 H721 0.930 . S
C729 C727 1.419 . S
C729 C730 1.362 . S
C730 H722 0.930 . S
C730 C729 1.362 . S
C730 C733 1.409 . S
C731 H723 0.930 . S
C731 C732 1.355 . S
C731 C733 1.415 . S
C732 C731 1.355 . S
C732 C734 1.419 . S
C733 C728 1.425 . S
C733 C730 1.409 . S
C733 C731 1.415 . S
C734 H724 0.930 . S
C734 C732 1.419 . S
C734 C735 1.362 . S
C735 H725 0.930 . S
C735 C728 1.409 . S
C735 C734 1.362 . S
H736 C742 0.930 . S
H737 C745 0.930 . S
H738 C746 0.914 1_565 S
H739 C747 0.930 . S
H740 C750 0.930 . S
H741 C751 0.914 1_545 S
C742 H736 0.930 . S
C742 C743 1.355 . S
C742 C744 1.415 . S
C743 C742 1.355 . S
C743 C745 1.419 1_556 S
C744 C742 1.415 . S
C744 C749 1.425 1_546 S
C744 C751 1.400 1_545 S
C745 H737 0.930 . S
C745 C743 1.419 1_554 S
C745 C746 1.388 . S
C746 H738 0.914 1_545 S
C746 C745 1.388 . S
C746 C749 1.400 1_545 S
C747 H739 0.930 . S
C747 C748 1.355 . S
C747 C749 1.415 . S
C748 C747 1.355 . S
C748 C750 1.419 1_554 S
C749 C744 1.425 1_564 S
C749 C746 1.400 1_565 S
C749 C747 1.415 . S
C750 H740 0.930 . S
C750 C748 1.419 1_556 S
C750 C751 1.388 . S
C751 H741 0.914 1_565 S
C751 C744 1.400 1_565 S
C751 C750 1.388 . S
H752 C758 0.930 . S
H753 C761 0.930 . S
H754 C762 0.930 . S
H755 C763 0.930 . S
H756 C766 0.930 . S
H757 C767 0.930 . S
C758 H752 0.930 . S
C758 C759 1.355 . S
C758 C760 1.415 . S
C759 C758 1.355 . S
C759 C761 1.419 . S
C760 C758 1.415 . S
C760 C765 1.425 . S
C760 C767 1.409 . S
C761 H753 0.930 . S
C761 C759 1.419 . S
C761 C762 1.362 . S
C762 H754 0.930 . S
C762 C761 1.362 . S
C762 C765 1.409 . S
C763 H755 0.930 . S
C763 C764 1.355 . S
C763 C765 1.415 . S
C764 C763 1.355 . S
C764 C766 1.419 . S
C765 C760 1.425 . S
C765 C762 1.409 . S
C765 C763 1.415 . S
C766 H756 0.930 . S
C766 C764 1.419 . S
C766 C767 1.362 . S
C767 H757 0.930 . S
C767 C760 1.409 . S
C767 C766 1.362 . S
H768 C774 0.930 . S
H769 C777 0.930 . S
H770 C778 0.930 . S
H771 C779 0.930 . S
H772 C782 0.930 . S
H773 C783 0.930 . S
C774 H768 0.930 . S
C774 C775 1.355 . S
C774 C776 1.415 . S
C775 C774 1.355 . S
C775 C777 1.419 . S
C776 C774 1.415 . S
C776 C781 1.425 . S
C776 C783 1.409 . S
C777 H769 0.930 . S
C777 C775 1.419 . S
C777 C778 1.362 . S
C778 H770 0.930 . S
C778 C777 1.362 . S
C778 C781 1.409 . S
C779 H771 0.930 . S
C779 C780 1.355 . S
C779 C781 1.415 . S
C780 C779 1.355 . S
C780 C782 1.419 . S
C781 C776 1.425 . S
C781 C778 1.409 . S
C781 C779 1.415 . S
C782 H772 0.930 . S
C782 C780 1.419 . S
C782 C783 1.362 . S
C783 H773 0.930 . S
C783 C776 1.409 . S
C783 C782 1.362 . S
H784 C790 0.930 . S
H785 C793 0.930 . S
H786 C794 0.930 . S
H787 C795 0.930 . S
H788 C798 0.930 . S
H789 C799 0.930 . S
C790 H784 0.930 . S
C790 C791 1.355 . S
C790 C792 1.415 . S
C791 C790 1.355 . S
C791 C793 1.419 . S
C792 C790 1.415 . S
C792 C797 1.425 . S
C792 C799 1.409 . S
C793 H785 0.930 . S
C793 C791 1.419 . S
C793 C794 1.362 . S
C794 H786 0.930 . S
C794 C793 1.362 . S
C794 C797 1.409 . S
C795 H787 0.930 . S
C795 C796 1.355 . S
C795 C797 1.415 . S
C796 C795 1.355 . S
C796 C798 1.419 . S
C797 C792 1.425 . S
C797 C794 1.409 . S
C797 C795 1.415 . S
C798 H788 0.930 . S
C798 C796 1.419 . S
C798 C799 1.362 . S
C799 H789 0.930 . S
C799 C792 1.409 . S
C799 C798 1.362 . S
H800 C806 0.930 . S
H801 C809 0.930 . S
H802 C810 0.930 . S
H803 C811 0.930 . S
H804 C814 0.930 . S
H805 C815 0.930 . S
C806 H800 0.930 . S
C806 C807 1.355 . S
C806 C808 1.415 . S
C807 C806 1.355 . S
C807 C809 1.419 . S
C808 C806 1.415 . S
C808 C813 1.425 . S
C808 C815 1.409 . S
C809 H801 0.930 . S
C809 C807 1.419 . S
C809 C810 1.362 . S
C810 H802 0.930 . S
C810 C809 1.362 . S
C810 C813 1.409 . S
C811 H803 0.930 . S
C811 C812 1.355 . S
C811 C813 1.415 . S
C812 C811 1.355 . S
C812 C814 1.419 . S
C813 C808 1.425 . S
C813 C810 1.409 . S
C813 C811 1.415 . S
C814 H804 0.930 . S
C814 C812 1.419 . S
C814 C815 1.362 . S
C815 H805 0.930 . S
C815 C808 1.409 . S
C815 C814 1.362 . S
H816 C822 0.930 . S
H817 C825 0.930 . S
H818 C826 0.930 . S
H819 C827 0.930 . S
H820 C830 0.930 . S
H821 C831 0.930 . S
C822 H816 0.930 . S
C822 C823 1.355 . S
C822 C824 1.415 . S
C823 C822 1.355 . S
C823 C825 1.419 . S
C824 C822 1.415 . S
C824 C829 1.425 . S
C824 C831 1.409 . S
C825 H817 0.930 . S
C825 C823 1.419 . S
C825 C826 1.362 . S
C826 H818 0.930 . S
C826 C825 1.362 . S
C826 C829 1.409 . S
C827 H819 0.930 . S
C827 C828 1.355 . S
C827 C829 1.415 . S
C828 C827 1.355 . S
C828 C830 1.419 . S
C829 C824 1.425 . S
C829 C826 1.409 . S
C829 C827 1.415 . S
C830 H820 0.930 . S
C830 C828 1.419 . S
C830 C831 1.362 . S
C831 H821 0.930 . S
C831 C824 1.409 . S
C831 C830 1.362 . S
H832 C838 0.930 . S
H833 C841 0.930 . S
H834 C842 0.930 . S
H835 C843 0.930 . S
H836 C846 0.930 . S
H837 C847 0.930 . S
C838 H832 0.930 . S
C838 C839 1.355 . S
C838 C840 1.415 . S
C839 C838 1.355 . S
C839 C841 1.419 . S
C840 C838 1.415 . S
C840 C845 1.425 . S
C840 C847 1.409 . S
C841 H833 0.930 . S
C841 C839 1.419 . S
C841 C842 1.362 . S
C842 H834 0.930 . S
C842 C841 1.362 . S
C842 C845 1.409 . S
C843 H835 0.930 . S
C843 C844 1.355 . S
C843 C845 1.415 . S
C844 C843 1.355 . S
C844 C846 1.419 . S
C845 C840 1.425 . S
C845 C842 1.409 . S
C845 C843 1.415 . S
C846 H836 0.930 . S
C846 C844 1.419 . S
C846 C847 1.362 . S
C847 H837 0.930 . S
C847 C840 1.409 . S
C847 C846 1.362 . S
H848 C854 0.930 . S
H849 C857 0.930 . S
H850 C858 0.930 . S
H851 C859 0.930 . S
H852 C862 0.930 . S
H853 C863 0.930 . S
C854 H848 0.930 . S
C854 C855 1.355 . S
C854 C856 1.415 . S
C855 C854 1.355 . S
C855 C857 1.419 . S
C856 C854 1.415 . S
C856 C861 1.425 . S
C856 C863 1.409 . S
C857 H849 0.930 . S
C857 C855 1.419 . S
C857 C858 1.362 . S
C858 H850 0.930 . S
C858 C857 1.362 . S
C858 C861 1.409 . S
C859 H851 0.930 . S
C859 C860 1.355 . S
C859 C861 1.415 . S
C860 C859 1.355 . S
C860 C862 1.419 . S
C861 C856 1.425 . S
C861 C858 1.409 . S
C861 C859 1.415 . S
C862 H852 0.930 . S
C862 C860 1.419 . S
C862 C863 1.362 . S
C863 H853 0.930 . S
C863 C856 1.409 . S
C863 C862 1.362 . S
H864 C870 0.930 . S
H865 C873 0.930 . S
H866 C874 0.930 . S
H867 C875 0.930 . S
H868 C878 0.930 . S
H869 C879 0.930 . S
C870 H864 0.930 . S
C870 C871 1.355 . S
C870 C872 1.415 . S
C871 C870 1.355 . S
C871 C873 1.419 . S
C872 C870 1.415 . S
C872 C877 1.425 . S
C872 C879 1.409 . S
C873 H865 0.930 . S
C873 C871 1.419 . S
C873 C874 1.362 . S
C874 H866 0.930 . S
C874 C873 1.362 . S
C874 C877 1.409 . S
C875 H867 0.930 . S
C875 C876 1.355 . S
C875 C877 1.415 . S
C876 C875 1.355 . S
C876 C878 1.419 . S
C877 C872 1.425 . S
C877 C874 1.409 . S
C877 C875 1.415 . S
C878 H868 0.930 . S
C878 C876 1.419 . S
C878 C879 1.362 . S
C879 H869 0.930 . S
C879 C872 1.409 . S
C879 C878 1.362 . S
H880 C886 0.930 . S
H881 C889 0.930 . S
H882 C890 0.930 . S
H883 C891 0.930 1_655 S
H884 C894 0.930 . S
H885 C895 0.930 . S
C886 H880 0.930 . S
C886 C887 1.355 . S
C886 C888 1.415 . S
C887 C886 1.355 . S
C887 C889 1.419 . S
C888 C886 1.415 . S
C888 C893 1.425 . S
C888 C895 1.409 . S
C889 H881 0.930 . S
C889 C887 1.419 . S
C889 C890 1.362 . S
C890 H882 0.930 . S
C890 C889 1.362 . S
C890 C893 1.409 . S
C891 H883 0.930 1_455 S
C891 C892 1.355 . S
C891 C893 1.415 . S
C892 C891 1.355 . S
C892 C894 1.419 . S
C893 C888 1.425 . S
C893 C890 1.409 . S
C893 C891 1.415 . S
C894 H884 0.930 . S
C894 C892 1.419 . S
C894 C895 1.362 . S
C895 H885 0.930 . S
C895 C888 1.409 . S
C895 C894 1.362 . S
H896 C902 0.930 . S
H897 C905 0.930 . S
H898 C906 0.930 . S
H899 C907 0.930 . S
H900 C910 0.930 . S
H901 C911 0.930 . S
C902 H896 0.930 . S
C902 C903 1.355 . S
C902 C904 1.415 . S
C903 C902 1.355 . S
C903 C905 1.419 . S
C904 C902 1.415 . S
C904 C909 1.425 . S
C904 C911 1.409 . S
C905 H897 0.930 . S
C905 C903 1.419 . S
C905 C906 1.362 . S
C906 H898 0.930 . S
C906 C905 1.362 . S
C906 C909 1.409 . S
C907 H899 0.930 . S
C907 C908 1.355 . S
C907 C909 1.415 . S
C908 C907 1.355 . S
C908 C910 1.419 . S
C909 C904 1.425 . S
C909 C906 1.409 . S
C909 C907 1.415 . S
C910 H900 0.930 . S
C910 C908 1.419 . S
C910 C911 1.362 . S
C911 H901 0.930 . S
C911 C904 1.409 . S
C911 C910 1.362 . S
H912 C918 0.930 . S
H913 C921 0.930 1_655 S
H914 C922 0.930 . S
H915 C923 0.930 . S
H916 C926 0.930 . S
H917 C927 0.930 . S
C918 H912 0.930 . S
C918 C919 1.355 . S
C918 C920 1.415 . S
C919 C918 1.355 . S
C919 C921 1.419 . S
C920 C918 1.415 . S
C920 C925 1.425 . S
C920 C927 1.409 . S
C921 H913 0.930 1_455 S
C921 C919 1.419 . S
C921 C922 1.362 . S
C922 H914 0.930 . S
C922 C921 1.362 . S
C922 C925 1.409 . S
C923 H915 0.930 . S
C923 C924 1.355 . S
C923 C925 1.415 . S
C924 C923 1.355 . S
C924 C926 1.419 . S
C925 C920 1.425 . S
C925 C922 1.409 . S
C925 C923 1.415 . S
C926 H916 0.930 . S
C926 C924 1.419 . S
C926 C927 1.362 . S
C927 H917 0.930 . S
C927 C920 1.409 . S
C927 C926 1.362 . S
H928 C934 0.930 . S
H929 C937 0.930 . S
H930 C938 0.930 . S
H931 C939 0.930 . S
H932 C942 0.930 . S
H933 C943 0.930 . S
C934 H928 0.930 . S
C934 C935 1.355 . S
C934 C936 1.415 . S
C935 C934 1.355 . S
C935 C937 1.419 . S
C936 C934 1.415 . S
C936 C941 1.425 . S
C936 C943 1.409 . S
C937 H929 0.930 . S
C937 C935 1.419 . S
C937 C938 1.362 . S
C938 H930 0.930 . S
C938 C937 1.362 . S
C938 C941 1.409 . S
C939 H931 0.930 . S
C939 C940 1.355 . S
C939 C941 1.415 . S
C940 C939 1.355 . S
C940 C942 1.419 . S
C941 C936 1.425 . S
C941 C938 1.409 . S
C941 C939 1.415 . S
C942 H932 0.930 . S
C942 C940 1.419 . S
C942 C943 1.362 . S
C943 H933 0.930 . S
C943 C936 1.409 . S
C943 C942 1.362 . S
H944 C950 0.930 . S
H945 C953 0.930 . S
H946 C954 0.930 . S
H947 C955 0.930 . S
H948 C958 0.930 . S
H949 C959 0.930 1_455 S
C950 H944 0.930 . S
C950 C951 1.355 . S
C950 C952 1.415 . S
C951 C950 1.355 . S
C951 C953 1.419 . S
C952 C950 1.415 . S
C952 C957 1.425 . S
C952 C959 1.409 . S
C953 H945 0.930 . S
C953 C951 1.419 . S
C953 C954 1.362 . S
C954 H946 0.930 . S
C954 C953 1.362 . S
C954 C957 1.409 . S
C955 H947 0.930 . S
C955 C956 1.355 . S
C955 C957 1.415 . S
C956 C955 1.355 . S
C956 C958 1.419 1_655 S
C957 C952 1.425 . S
C957 C954 1.409 . S
C957 C955 1.415 . S
C958 H948 0.930 . S
C958 C956 1.419 1_455 S
C958 C959 1.362 1_455 S
C959 H949 0.930 1_655 S
C959 C952 1.409 . S
C959 C958 1.362 1_655 S
H960 C966 0.930 . S
H961 C969 0.930 . S
H962 C970 0.930 . S
H963 C971 0.930 . S
H964 C974 0.930 . S
H965 C975 0.930 . S
C966 H960 0.930 . S
C966 C967 1.355 . S
C966 C968 1.415 . S
C967 C966 1.355 . S
C967 C969 1.419 . S
C968 C966 1.415 . S
C968 C973 1.425 . S
C968 C975 1.409 . S
C969 H961 0.930 . S
C969 C967 1.419 . S
C969 C970 1.362 . S
C970 H962 0.930 . S
C970 C969 1.362 . S
C970 C973 1.409 . S
C971 H963 0.930 . S
C971 C972 1.355 . S
C971 C973 1.415 . S
C972 C971 1.355 . S
C972 C974 1.419 . S
C973 C968 1.425 . S
C973 C970 1.409 . S
C973 C971 1.415 . S
C974 H964 0.930 . S
C974 C972 1.419 . S
C974 C975 1.362 . S
C975 H965 0.930 . S
C975 C968 1.409 . S
C975 C974 1.362 . S
H976 C982 0.930 . S
H977 C985 0.930 . S
H978 C986 0.930 . S
H979 C987 0.930 . S
H980 C990 0.930 . S
H981 C991 0.930 1_455 S
C982 H976 0.930 . S
C982 C983 1.355 . S
C982 C984 1.415 . S
C983 C982 1.355 . S
C983 C985 1.419 . S
C984 C982 1.415 . S
C984 C989 1.425 . S
C984 C991 1.409 . S
C985 H977 0.930 . S
C985 C983 1.419 . S
C985 C986 1.362 . S
C986 H978 0.930 . S
C986 C985 1.362 . S
C986 C989 1.409 . S
C987 H979 0.930 . S
C987 C988 1.355 . S
C987 C989 1.415 . S
C988 C987 1.355 . S
C988 C990 1.419 1_655 S
C989 C984 1.425 . S
C989 C986 1.409 . S
C989 C987 1.415 . S
C990 H980 0.930 . S
C990 C988 1.419 1_455 S
C990 C991 1.362 1_455 S
C991 H981 0.930 1_655 S
C991 C984 1.409 . S
C991 C990 1.362 1_655 S
H992 C998 0.930 . S
H993 C1001 0.930 . S
H994 C1002 0.930 . S
H995 C1003 0.930 . S
H996 C1006 0.930 . S
H997 C1007 0.930 . S
C998 H992 0.930 . S
C998 C999 1.355 . S
C998 C1000 1.415 . S
C999 C998 1.355 . S
C999 C1001 1.419 . S
C1000 C998 1.415 . S
C1000 C1005 1.425 . S
C1000 C1007 1.409 . S
C1001 H993 0.930 . S
C1001 C999 1.419 . S
C1001 C1002 1.362 . S
C1002 H994 0.930 . S
C1002 C1001 1.362 . S
C1002 C1005 1.409 . S
C1003 H995 0.930 . S
C1003 C1004 1.355 . S
C1003 C1005 1.415 . S
C1004 C1003 1.355 . S
C1004 C1006 1.419 . S
C1005 C1000 1.425 . S
C1005 C1002 1.409 . S
C1005 C1003 1.415 . S
C1006 H996 0.930 . S
C1006 C1004 1.419 . S
C1006 C1007 1.362 . S
C1007 H997 0.930 . S
C1007 C1000 1.409 . S
C1007 C1006 1.362 . S
H1008 C1014 0.930 1_655 S
H1009 C1017 0.930 . S
H1010 C1018 0.930 . S
H1011 C1019 0.930 . S
H1012 C1022 0.930 . S
H1013 C1023 0.930 . S
C1014 H1008 0.930 1_455 S
C1014 C1015 1.355 . S
C1014 C1016 1.415 . S
C1015 C1014 1.355 . S
C1015 C1017 1.419 . S
C1016 C1014 1.415 . S
C1016 C1021 1.425 . S
C1016 C1023 1.409 . S
C1017 H1009 0.930 . S
C1017 C1015 1.419 . S
C1017 C1018 1.362 . S
C1018 H1010 0.930 . S
C1018 C1017 1.362 . S
C1018 C1021 1.409 . S
C1019 H1011 0.930 . S
C1019 C1020 1.355 . S
C1019 C1021 1.415 . S
C1020 C1019 1.355 . S
C1020 C1022 1.419 . S
C1021 C1016 1.425 . S
C1021 C1018 1.409 . S
C1021 C1019 1.415 . S
C1022 H1012 0.930 . S
C1022 C1020 1.419 . S
C1022 C1023 1.362 . S
C1023 H1013 0.930 . S
C1023 C1016 1.409 . S
C1023 C1022 1.362 . S
H1024 C1030 0.930 . S
H1025 C1033 0.930 . S
H1026 C1034 0.930 . S
H1027 C1035 0.930 . S
H1028 C1038 0.930 . S
H1029 C1039 0.930 . S
C1030 H1024 0.930 . S
C1030 C1031 1.355 . S
C1030 C1032 1.415 . S
C1031 C1030 1.355 . S
C1031 C1033 1.419 . S
C1032 C1030 1.415 . S
C1032 C1037 1.425 . S
C1032 C1039 1.409 . S
C1033 H1025 0.930 . S
C1033 C1031 1.419 . S
C1033 C1034 1.362 . S
C1034 H1026 0.930 . S
C1034 C1033 1.362 . S
C1034 C1037 1.409 . S
C1035 H1027 0.930 . S
C1035 C1036 1.355 . S
C1035 C1037 1.415 . S
C1036 C1035 1.355 . S
C1036 C1038 1.419 . S
C1037 C1032 1.425 . S
C1037 C1034 1.409 . S
C1037 C1035 1.415 . S
C1038 H1028 0.930 . S
C1038 C1036 1.419 . S
C1038 C1039 1.362 . S
C1039 H1029 0.930 . S
C1039 C1032 1.409 . S
C1039 C1038 1.362 . S
H1040 C1046 0.930 . S
H1041 C1049 0.930 . S
H1042 C1050 0.930 . S
H1043 C1051 0.930 . S
H1044 C1054 0.930 . S
H1045 C1055 0.930 . S
C1046 H1040 0.930 . S
C1046 C1047 1.355 . S
C1046 C1048 1.415 . S
C1047 C1046 1.355 . S
C1047 C1049 1.419 . S
C1048 C1046 1.415 . S
C1048 C1053 1.425 . S
C1048 C1055 1.409 . S
C1049 H1041 0.930 . S
C1049 C1047 1.419 . S
C1049 C1050 1.362 . S
C1050 H1042 0.930 . S
C1050 C1049 1.362 . S
C1050 C1053 1.409 . S
C1051 H1043 0.930 . S
C1051 C1052 1.355 . S
C1051 C1053 1.415 . S
C1052 C1051 1.355 . S
C1052 C1054 1.419 . S
C1053 C1048 1.425 . S
C1053 C1050 1.409 . S
C1053 C1051 1.415 . S
C1054 H1044 0.930 . S
C1054 C1052 1.419 . S
C1054 C1055 1.362 . S
C1055 H1045 0.930 . S
C1055 C1048 1.409 . S
C1055 C1054 1.362 . S
H1056 C1062 0.930 . S
H1057 C1065 0.930 . S
H1058 C1066 0.930 . S
H1059 C1067 0.930 . S
H1060 C1070 0.930 . S
H1061 C1071 0.930 . S
C1062 H1056 0.930 . S
C1062 C1063 1.355 . S
C1062 C1064 1.415 . S
C1063 C1062 1.355 . S
C1063 C1065 1.419 . S
C1064 C1062 1.415 . S
C1064 C1069 1.425 . S
C1064 C1071 1.409 . S
C1065 H1057 0.930 . S
C1065 C1063 1.419 . S
C1065 C1066 1.362 . S
C1066 H1058 0.930 . S
C1066 C1065 1.362 . S
C1066 C1069 1.409 . S
C1067 H1059 0.930 . S
C1067 C1068 1.355 . S
C1067 C1069 1.415 . S
C1068 C1067 1.355 . S
C1068 C1070 1.419 . S
C1069 C1064 1.425 . S
C1069 C1066 1.409 . S
C1069 C1067 1.415 . S
C1070 H1060 0.930 . S
C1070 C1068 1.419 . S
C1070 C1071 1.362 . S
C1071 H1061 0.930 . S
C1071 C1064 1.409 . S
C1071 C1070 1.362 . S
H1072 C1078 0.930 . S
H1073 C1081 0.930 1_455 S
H1074 C1082 0.930 1_455 S
H1075 C1083 0.930 . S
H1076 C1086 0.930 . S
H1077 C1087 0.930 . S
C1078 H1072 0.930 . S
C1078 C1079 1.355 . S
C1078 C1080 1.415 . S
C1079 C1078 1.355 . S
C1079 C1081 1.419 . S
C1080 C1078 1.415 . S
C1080 C1085 1.425 . S
C1080 C1087 1.409 . S
C1081 H1073 0.930 1_655 S
C1081 C1079 1.419 . S
C1081 C1082 1.362 . S
C1082 H1074 0.930 1_655 S
C1082 C1081 1.362 . S
C1082 C1085 1.409 . S
C1083 H1075 0.930 . S
C1083 C1084 1.355 . S
C1083 C1085 1.415 . S
C1084 C1083 1.355 . S
C1084 C1086 1.419 . S
C1085 C1080 1.425 . S
C1085 C1082 1.409 . S
C1085 C1083 1.415 . S
C1086 H1076 0.930 . S
C1086 C1084 1.419 . S
C1086 C1087 1.362 . S
C1087 H1077 0.930 . S
C1087 C1080 1.409 . S
C1087 C1086 1.362 . S
H1088 C1094 0.930 . S
H1089 C1097 0.930 . S
H1090 C1098 0.930 . S
H1091 C1099 0.930 . S
H1092 C1102 0.930 . S
H1093 C1103 0.930 . S
C1094 H1088 0.930 . S
C1094 C1095 1.355 . S
C1094 C1096 1.415 . S
C1095 C1094 1.355 . S
C1095 C1097 1.419 . S
C1096 C1094 1.415 . S
C1096 C1101 1.425 . S
C1096 C1103 1.409 . S
C1097 H1089 0.930 . S
C1097 C1095 1.419 . S
C1097 C1098 1.362 . S
C1098 H1090 0.930 . S
C1098 C1097 1.362 . S
C1098 C1101 1.409 . S
C1099 H1091 0.930 . S
C1099 C1100 1.355 . S
C1099 C1101 1.415 . S
C1100 C1099 1.355 . S
C1100 C1102 1.419 . S
C1101 C1096 1.425 . S
C1101 C1098 1.409 . S
C1101 C1099 1.415 . S
C1102 H1092 0.930 . S
C1102 C1100 1.419 . S
C1102 C1103 1.362 . S
C1103 H1093 0.930 . S
C1103 C1096 1.409 . S
C1103 C1102 1.362 . S
H1104 C1110 0.930 . S
H1105 C1113 0.930 . S
H1106 C1114 0.930 . S
H1107 C1115 0.930 . S
H1108 C1118 0.930 . S
H1109 C1119 0.930 . S
C1110 H1104 0.930 . S
C1110 C1111 1.355 . S
C1110 C1112 1.415 . S
C1111 C1110 1.355 . S
C1111 C1113 1.419 . S
C1112 C1110 1.415 . S
C1112 C1117 1.425 . S
C1112 C1119 1.409 . S
C1113 H1105 0.930 . S
C1113 C1111 1.419 . S
C1113 C1114 1.362 . S
C1114 H1106 0.930 . S
C1114 C1113 1.362 . S
C1114 C1117 1.409 . S
C1115 H1107 0.930 . S
C1115 C1116 1.355 . S
C1115 C1117 1.415 . S
C1116 C1115 1.355 . S
C1116 C1118 1.419 . S
C1117 C1112 1.425 . S
C1117 C1114 1.409 . S
C1117 C1115 1.415 . S
C1118 H1108 0.930 . S
C1118 C1116 1.419 . S
C1118 C1119 1.362 . S
C1119 H1109 0.930 . S
C1119 C1112 1.409 . S
C1119 C1118 1.362 . S
H1120 C1126 0.930 . S
H1121 C1129 0.930 . S
H1122 C1130 0.930 . S
H1123 C1131 0.930 . S
H1124 C1134 0.930 . S
H1125 C1135 0.930 . S
C1126 H1120 0.930 . S
C1126 C1127 1.355 . S
C1126 C1128 1.415 . S
C1127 C1126 1.355 . S
C1127 C1129 1.419 . S
C1128 C1126 1.415 . S
C1128 C1133 1.425 . S
C1128 C1135 1.409 . S
C1129 H1121 0.930 . S
C1129 C1127 1.419 . S
C1129 C1130 1.362 . S
C1130 H1122 0.930 . S
C1130 C1129 1.362 . S
C1130 C1133 1.409 . S
C1131 H1123 0.930 . S
C1131 C1132 1.355 . S
C1131 C1133 1.415 . S
C1132 C1131 1.355 . S
C1132 C1134 1.419 . S
C1133 C1128 1.425 . S
C1133 C1130 1.409 . S
C1133 C1131 1.415 . S
C1134 H1124 0.930 . S
C1134 C1132 1.419 . S
C1134 C1135 1.362 . S
C1135 H1125 0.930 . S
C1135 C1128 1.409 . S
C1135 C1134 1.362 . S
H1136 C1142 0.930 . S
H1137 C1145 0.930 . S
H1138 C1146 0.930 . S
H1139 C1147 0.930 . S
H1140 C1150 0.930 . S
H1141 C1151 0.930 . S
C1142 H1136 0.930 . S
C1142 C1143 1.355 . S
C1142 C1144 1.415 . S
C1143 C1142 1.355 . S
C1143 C1145 1.419 . S
C1144 C1142 1.415 . S
C1144 C1149 1.425 . S
C1144 C1151 1.409 . S
C1145 H1137 0.930 . S
C1145 C1143 1.419 . S
C1145 C1146 1.362 . S
C1146 H1138 0.930 . S
C1146 C1145 1.362 . S
C1146 C1149 1.409 . S
C1147 H1139 0.930 . S
C1147 C1148 1.355 . S
C1147 C1149 1.415 . S
C1148 C1147 1.355 . S
C1148 C1150 1.419 . S
C1149 C1144 1.425 . S
C1149 C1146 1.409 . S
C1149 C1147 1.415 . S
C1150 H1140 0.930 . S
C1150 C1148 1.419 . S
C1150 C1151 1.362 . S
C1151 H1141 0.930 . S
C1151 C1144 1.409 . S
C1151 C1150 1.362 . S
H1152 C1158 0.930 . S
H1153 C1161 0.930 . S
H1154 C1162 0.930 . S
H1155 C1163 0.930 . S
H1156 C1166 0.930 . S
H1157 C1167 0.930 . S
C1158 H1152 0.930 . S
C1158 C1159 1.355 . S
C1158 C1160 1.415 . S
C1159 C1158 1.355 . S
C1159 C1161 1.419 . S
C1160 C1158 1.415 . S
C1160 C1165 1.425 . S
C1160 C1167 1.409 . S
C1161 H1153 0.930 . S
C1161 C1159 1.419 . S
C1161 C1162 1.362 . S
C1162 H1154 0.930 . S
C1162 C1161 1.362 . S
C1162 C1165 1.409 . S
C1163 H1155 0.930 . S
C1163 C1164 1.355 . S
C1163 C1165 1.415 . S
C1164 C1163 1.355 . S
C1164 C1166 1.419 . S
C1165 C1160 1.425 . S
C1165 C1162 1.409 . S
C1165 C1163 1.415 . S
C1166 H1156 0.930 . S
C1166 C1164 1.419 . S
C1166 C1167 1.362 . S
C1167 H1157 0.930 . S
C1167 C1160 1.409 . S
C1167 C1166 1.362 . S
H1168 C1174 0.930 . S
H1169 C1177 0.930 . S
H1170 C1178 0.930 . S
H1171 C1179 0.930 . S
H1172 C1182 0.930 . S
H1173 C1183 0.930 . S
C1174 H1168 0.930 . S
C1174 C1175 1.355 . S
C1174 C1176 1.415 . S
C1175 C1174 1.355 . S
C1175 C1177 1.419 . S
C1176 C1174 1.415 . S
C1176 C1181 1.425 . S
C1176 C1183 1.409 . S
C1177 H1169 0.930 . S
C1177 C1175 1.419 . S
C1177 C1178 1.362 . S
C1178 H1170 0.930 . S
C1178 C1177 1.362 . S
C1178 C1181 1.409 . S
C1179 H1171 0.930 . S
C1179 C1180 1.355 . S
C1179 C1181 1.415 . S
C1180 C1179 1.355 . S
C1180 C1182 1.419 . S
C1181 C1176 1.425 . S
C1181 C1178 1.409 . S
C1181 C1179 1.415 . S
C1182 H1172 0.930 . S
C1182 C1180 1.419 . S
C1182 C1183 1.362 . S
C1183 H1173 0.930 . S
C1183 C1176 1.409 . S
C1183 C1182 1.362 . S
C551 C9 1.406 . S
C556 C485 1.406 . S
C567 C73 1.845 . S
C572 C5 1.845 . S
C583 C39 1.837 . S
C588 C379 1.837 . S
C599 C247 1.501 1_455 S
C604 C43 1.501 1_655 S
C615 C77 1.459 . S
C620 C417 1.459 . S
C631 C107 1.860 . S
C636 C311 1.860 . S
C647 C111 1.474 1_455 S
C652 C179 1.474 1_655 S
C663 C349 1.412 . S
C668 C145 1.412 . S
C679 C209 1.843 . S
C684 C141 1.843 . S
C695 C175 1.855 . S
C700 C515 1.855 . S
C711 C281 1.446 . S
C716 C213 1.446 . S
C727 C447 1.862 . S
C732 C243 1.862 . S
C743 C277 1.854 . S
C748 C345 1.854 . S
C759 C519 1.431 . S
C764 C315 1.431 . S
C775 C383 1.402 . S
C780 C451 1.402 . S
C791 C413 1.878 . S
C796 C481 1.878 . S
C807 C2 1.355 . S
C812 C308 1.359 . S
C823 C339 1.337 . S
C828 C33 1.338 1_655 S
C839 C67 1.359 . S
C844 C305 1.359 . S
C855 C36 1.368 1_655 S
C860 C274 1.360 . S
C871 C376 1.355 . S
C876 C70 1.356 . S
C887 C407 1.357 . S
C892 C101 1.357 1_455 S
C903 C135 1.326 . S
C908 C373 1.327 . S
C919 C104 1.365 1_455 S
C924 C342 1.359 . S
C935 C138 1.357 . S
C940 C444 1.355 . S
C951 C475 1.317 . S
C956 C169 1.317 1_655 S
C967 C203 1.368 . S
C972 C441 1.368 . S
C983 C410 1.355 . S
C988 C172 1.357 1_655 S
C999 C512 1.376 . S
C1004 C206 1.369 . S
C1015 C237 1.368 1_455 S
C1020 C543 1.368 . S
C1031 C271 1.361 . S
C1036 C509 1.361 . S
C1047 C240 1.378 1_455 S
C1052 C478 1.373 . S
C1063 C54 1.157 . S
C1068 C20 1.144 . S
C1079 C88 1.175 . S
C1084 C122 1.166 . S
C1095 C156 1.136 . S
C1100 C190 1.125 . S
C1111 C224 1.128 . S
C1116 C258 1.119 . S
C1127 C326 1.140 . S
C1132 C292 1.128 . S
C1143 C394 1.179 . S
C1148 C360 1.178 . S
C1159 C428 1.179 . S
C1164 C462 1.178 . S
C1175 C530 1.180 . S
C1180 C496 1.177 . S
