# Generated by pormake.
# Topology umx, (4)-cn, num edge types: 1
# Building blocks:
#     Node 0, Type 0, BuildingBlock: QUQFOY_clean_sbu_1, # of connection points: 4
#     Node 1, Type 0, BuildingBlock: QUQFOY_clean_sbu_1, # of connection points: 4
#     Node 2, Type 0, BuildingBlock: QUQFOY_clean_sbu_1, # of connection points: 4
#     Node 3, Type 0, BuildingBlock: QUQFOY_clean_sbu_1, # of connection points: 4
#     Node 4, Type 0, BuildingBlock: QUQFOY_clean_sbu_1, # of connection points: 4
#     Node 5, Type 0, BuildingBlock: QUQFOY_clean_sbu_1, # of connection points: 4
#     Node 6, Type 0, BuildingBlock: QUQFOY_clean_sbu_1, # of connection points: 4
#     Node 7, Type 0, BuildingBlock: QUQFOY_clean_sbu_1, # of connection points: 4
#     Edge 8, Type (0, 0), BuildingBlock: FUNLAD_clean_linker_1, # of connection points: 2
#     Edge 9, Type (0, 0), BuildingBlock: FUNLAD_clean_linker_1, # of connection points: 2
#     Edge 10, Type (0, 0), BuildingBlock: FUNLAD_clean_linker_1, # of connection points: 2
#     Edge 11, Type (0, 0), BuildingBlock: FUNLAD_clean_linker_1, # of connection points: 2
#     Edge 12, Type (0, 0), BuildingBlock: FUNLAD_clean_linker_1, # of connection points: 2
#     Edge 13, Type (0, 0), BuildingBlock: FUNLAD_clean_linker_1, # of connection points: 2
#     Edge 14, Type (0, 0), BuildingBlock: FUNLAD_clean_linker_1, # of connection points: 2
#     Edge 15, Type (0, 0), BuildingBlock: FUNLAD_clean_linker_1, # of connection points: 2
#     Edge 16, Type (0, 0), BuildingBlock: FUNLAD_clean_linker_1, # of connection points: 2
#     Edge 17, Type (0, 0), BuildingBlock: FUNLAD_clean_linker_1, # of connection points: 2
#     Edge 18, Type (0, 0), BuildingBlock: FUNLAD_clean_linker_1, # of connection points: 2
#     Edge 19, Type (0, 0), BuildingBlock: FUNLAD_clean_linker_1, # of connection points: 2
#     Edge 20, Type (0, 0), BuildingBlock: FUNLAD_clean_linker_1, # of connection points: 2
#     Edge 21, Type (0, 0), BuildingBlock: FUNLAD_clean_linker_1, # of connection points: 2
#     Edge 22, Type (0, 0), BuildingBlock: FUNLAD_clean_linker_1, # of connection points: 2
#     Edge 23, Type (0, 0), BuildingBlock: FUNLAD_clean_linker_1, # of connection points: 2
# Relax obj value: 0.069
# Max RMSD: 0.140
# Mean RMSD: 0.140
data_MOF--net-umx--node1-QUQFOY_clean_sbu_1--edge1-FUNLAD_clean_linker_1
_symmetry_space_group_name_H-M    P1
_symmetry_Int_Tables_number       1
_symmetry_cell_setting            triclinic
loop_
_symmetry_equiv_pos_as_xyz
'x, y, z'
_cell_length_a     41.253267
_cell_length_b     41.953013
_cell_length_c     30.186579
_cell_angle_alpha  89.93564
_cell_angle_beta   90.055468
_cell_angle_gamma 90.05206
loop_
_atom_site_label
_atom_site_type_symbol
_atom_site_fract_x
_atom_site_fract_y
_atom_site_fract_z
_atom_type_partial_charge
O0 O 0.21041 0.4632 0.13362 0.0
Cd1 Cd 0.19103 0.44004 0.0798 0.0
Cd2 Cd 0.21387 0.4927 0.03842 0.0
O3 O 0.23693 0.50139 0.09838 0.0
O4 O 0.18972 0.39326 0.09423 0.0
O5 O 0.22265 0.41449 0.04436 0.0
C6 C 0.21325 0.38983 0.0665 0.0
C7 C 0.23848 0.48941 0.96918 0.0
C8 C 0.22965 0.48692 0.13412 0.0
C9 C 0.14139 0.48467 0.04376 0.0
O10 O 0.16516 0.50307 0.03599 0.0
O11 O 0.14607 0.45647 0.05817 0.0
O12 O 0.23389 0.51672 0.98786 0.0
O13 O 0.23117 0.46404 0.99115 0.0
O14 O 0.57109 0.20014 0.62902 0.0
Cd15 Cd 0.59158 0.18366 0.57124 0.0
Cd16 Cd 0.53559 0.20447 0.53703 0.0
O17 O 0.52973 0.22544 0.59861 0.0
O18 O 0.63962 0.18248 0.58021 0.0
O19 O 0.61515 0.21604 0.53433 0.0
C20 C 0.64149 0.20614 0.55301 0.0
C21 C 0.52877 0.23087 0.4698 0.0
C22 C 0.54638 0.21807 0.63258 0.0
C23 C 0.54661 0.1337 0.53782 0.0
O24 O 0.52643 0.15628 0.53324 0.0
O25 O 0.57571 0.1394 0.5495 0.0
O26 O 0.5043 0.22429 0.49472 0.0
O27 O 0.55747 0.22439 0.48442 0.0
O28 O 0.82727 0.56286 0.13518 0.0
Cd29 Cd 0.84557 0.58736 0.08181 0.0
Cd30 Cd 0.82572 0.53346 0.0393 0.0
O31 O 0.80232 0.52418 0.09886 0.0
O32 O 0.83979 0.63436 0.09308 0.0
O33 O 0.81238 0.6071 0.04256 0.0
C34 C 0.81715 0.63347 0.06344 0.0
C35 C 0.80201 0.53203 0.96904 0.0
C36 C 0.80886 0.53851 0.13495 0.0
C37 C 0.89782 0.54583 0.04664 0.0
O38 O 0.87505 0.52626 0.03869 0.0
O39 O 0.89167 0.57381 0.0608 0.0
O40 O 0.80821 0.50598 0.99024 0.0
O41 O 0.80725 0.55869 0.98889 0.0
O42 O 0.47328 0.82475 0.63306 0.0
Cd43 Cd 0.45289 0.84068 0.57475 0.0
Cd44 Cd 0.50936 0.82053 0.54181 0.0
O45 O 0.51474 0.79932 0.60338 0.0
O46 O 0.40487 0.84143 0.58349 0.0
O47 O 0.42966 0.80789 0.53806 0.0
C48 C 0.40322 0.81763 0.55657 0.0
C49 C 0.51885 0.79503 0.47459 0.0
C50 C 0.49796 0.80683 0.6371 0.0
C51 C 0.49747 0.89113 0.54211 0.0
O52 O 0.51806 0.86881 0.53874 0.0
O53 O 0.46822 0.88507 0.55258 0.0
O54 O 0.54229 0.80167 0.50127 0.0
O55 O 0.48955 0.80078 0.48742 0.0
O56 O 0.21518 0.56944 0.47076 0.0
Cd57 Cd 0.1995 0.59358 0.52613 0.0
Cd58 Cd 0.20966 0.53535 0.56258 0.0
O59 O 0.23266 0.52544 0.5032 0.0
O60 O 0.20842 0.6401 0.51493 0.0
O61 O 0.23417 0.61133 0.5654 0.0
C62 C 0.23094 0.63797 0.54455 0.0
C63 C 0.23347 0.53123 0.6324 0.0
C64 C 0.22942 0.5426 0.46871 0.0
C65 C 0.14065 0.55789 0.55587 0.0
O66 O 0.15973 0.53443 0.56141 0.0
O67 O 0.15174 0.5853 0.54569 0.0
O68 O 0.22424 0.50603 0.61128 0.0
O69 O 0.23061 0.55844 0.61293 0.0
O70 O 0.46635 0.20457 0.97297 0.0
Cd71 Cd 0.4436 0.19178 0.03124 0.0
Cd72 Cd 0.50384 0.1992 0.06308 0.0
O73 O 0.51284 0.22001 1.00223 0.0
O74 O 0.39653 0.2019 0.02344 0.0
O75 O 0.4286 0.2273 0.07063 0.0
C76 C 0.4005 0.22435 0.05218 0.0
C77 C 0.51919 0.22232 0.13005 0.0
C78 C 0.4943 0.21706 0.96884 0.0
C79 C 0.47665 0.13265 0.06139 0.0
O80 O 0.50175 0.15011 0.0645 0.0
O81 O 0.44928 0.14491 0.05208 0.0
O82 O 0.54042 0.21058 0.1034 0.0
O83 O 0.4892 0.22254 0.11768 0.0
O84 O 0.82741 0.45609 0.47061 0.0
Cd85 Cd 0.84442 0.43072 0.52436 0.0
Cd86 Cd 0.83586 0.48908 0.56297 0.0
O87 O 0.81339 0.50094 0.50386 0.0
O88 O 0.83551 0.38446 0.51108 0.0
O89 O 0.81074 0.41157 0.56397 0.0
C90 C 0.81367 0.38557 0.54167 0.0
C91 C 0.81153 0.49067 0.6325 0.0
C92 C 0.81465 0.48368 0.46929 0.0
C93 C 0.90431 0.465 0.55496 0.0
O94 O 0.88575 0.48857 0.56245 0.0
O95 O 0.89263 0.43826 0.54278 0.0
O96 O 0.82167 0.51656 0.61383 0.0
O97 O 0.81378 0.46437 0.61073 0.0
O98 O 0.57825 0.82596 0.97646 0.0
Cd99 Cd 0.60065 0.84152 0.03376 0.0
Cd100 Cd 0.54107 0.83037 0.06701 0.0
O101 O 0.53278 0.80863 1.00665 0.0
O102 O 0.64829 0.83942 0.02195 0.0
O103 O 0.62353 0.8085 0.07089 0.0
C104 C 0.64978 0.81652 0.05033 0.0
C105 C 0.52982 0.80595 0.1346 0.0
C106 C 0.55098 0.81199 0.97301 0.0
C107 C 0.56288 0.89848 0.06328 0.0
O108 O 0.53908 0.87948 0.06772 0.0
O109 O 0.59084 0.88792 0.05346 0.0
O110 O 0.50686 0.81596 0.10917 0.0
O111 O 0.55936 0.80835 0.12069 0.0
H112 H 0.25238 0.52302 0.17775 0.0
C113 C 0.24066 0.49981 0.17713 0.0
H114 H 0.22034 0.46245 0.2149 0.0
H115 H 0.29664 0.53853 0.37626 0.0
H116 H 0.34661 0.52108 0.34136 0.0
H117 H 0.34569 0.4943 0.26863 0.0
H118 H 0.29481 0.48506 0.23008 0.0
C119 C 0.23295 0.48521 0.2154 0.0
C120 C 0.23437 0.50207 0.25863 0.0
C121 C 0.26425 0.50689 0.28086 0.0
C122 C 0.26472 0.52173 0.32326 0.0
C123 C 0.2949 0.52686 0.34441 0.0
C124 C 0.32373 0.51704 0.32469 0.0
C125 C 0.32322 0.502 0.28369 0.0
C126 C 0.29388 0.49689 0.26188 0.0
H127 H 0.24685 0.50504 0.42318 0.0
C128 C 0.23913 0.52977 0.42514 0.0
H129 H 0.2263 0.57115 0.38935 0.0
H130 H 0.17299 0.49741 0.22415 0.0
H131 H 0.12312 0.51417 0.25939 0.0
H132 H 0.12381 0.53871 0.3336 0.0
H133 H 0.17437 0.54676 0.37287 0.0
C134 C 0.23504 0.54675 0.38772 0.0
C135 C 0.23528 0.53128 0.34344 0.0
C136 C 0.20542 0.52664 0.32101 0.0
C137 C 0.20498 0.51206 0.27857 0.0
C138 C 0.17479 0.50795 0.25676 0.0
C139 C 0.14593 0.51754 0.27654 0.0
C140 C 0.14632 0.5314 0.31827 0.0
C141 C 0.1756 0.53595 0.3404 0.0
H142 H 0.51162 0.23975 0.6794 0.0
C143 C 0.53478 0.22754 0.67693 0.0
H144 H 0.57269 0.20488 0.71179 0.0
H145 H 0.49764 0.28092 0.87566 0.0
H146 H 0.51639 0.32987 0.84109 0.0
H147 H 0.54405 0.32877 0.76867 0.0
H148 H 0.55281 0.27875 0.7301 0.0
C149 C 0.55015 0.21818 0.71402 0.0
C150 C 0.53406 0.21948 0.75805 0.0
C151 C 0.52972 0.24885 0.78047 0.0
C152 C 0.51457 0.24939 0.82283 0.0
C153 C 0.50969 0.27909 0.84396 0.0
C154 C 0.52022 0.30736 0.8244 0.0
C155 C 0.53574 0.30675 0.78357 0.0
C156 C 0.54052 0.2779 0.76171 0.0
H157 H 0.53185 0.23293 0.92154 0.0
C158 C 0.50675 0.22529 0.92443 0.0
H159 H 0.46443 0.21153 0.89005 0.0
H160 H 0.53785 0.15916 0.72342 0.0
H161 H 0.52022 0.11024 0.75863 0.0
H162 H 0.49549 0.111 0.83299 0.0
H163 H 0.48806 0.16071 0.8724 0.0
C164 C 0.48914 0.22035 0.88757 0.0
C165 C 0.50444 0.2205 0.84297 0.0
C166 C 0.50879 0.19114 0.82049 0.0
C167 C 0.52355 0.19065 0.77798 0.0
C168 C 0.52724 0.16098 0.75608 0.0
C169 C 0.51714 0.13266 0.77585 0.0
C170 C 0.50318 0.13309 0.81767 0.0
C171 C 0.499 0.16187 0.83988 0.0
H172 H 0.80092 0.52262 0.42357 0.0
C173 C 0.80435 0.497 0.42621 0.0
H174 H 0.80646 0.45315 0.39229 0.0
H175 H 0.74796 0.55456 0.24017 0.0
H176 H 0.70068 0.55997 0.2876 0.0
H177 H 0.69886 0.53388 0.36087 0.0
H178 H 0.74438 0.50253 0.38743 0.0
C179 C 0.80256 0.47871 0.38969 0.0
C180 C 0.80195 0.49284 0.34443 0.0
C181 C 0.77481 0.51046 0.32911 0.0
C182 C 0.77555 0.52497 0.28646 0.0
C183 C 0.74849 0.54296 0.27221 0.0
C184 C 0.72123 0.54618 0.29904 0.0
C185 C 0.72022 0.53153 0.34033 0.0
C186 C 0.74659 0.51376 0.35531 0.0
H187 H 0.78633 0.50153 0.17736 0.0
C188 C 0.79793 0.5248 0.17751 0.0
H189 H 0.81759 0.56173 0.21694 0.0
H190 H 0.85798 0.45999 0.363 0.0
H191 H 0.90428 0.45363 0.3147 0.0
H192 H 0.90501 0.47807 0.24037 0.0
H193 H 0.85937 0.50904 0.21397 0.0
C194 C 0.8055 0.53872 0.2163 0.0
C195 C 0.8031 0.5213 0.25901 0.0
C196 C 0.82981 0.50288 0.27373 0.0
C197 C 0.82926 0.48863 0.31645 0.0
C198 C 0.8567 0.47099 0.33064 0.0
C199 C 0.8836 0.46723 0.30329 0.0
C200 C 0.88402 0.481 0.26147 0.0
C201 C 0.8576 0.49872 0.24674 0.0
H202 H 0.5139 0.79381 0.92657 0.0
C203 C 0.53864 0.80259 0.92896 0.0
H204 H 0.57998 0.81795 0.89375 0.0
H205 H 0.49356 0.74634 0.73551 0.0
H206 H 0.50478 0.69689 0.77449 0.0
H207 H 0.53288 0.69724 0.84668 0.0
H208 H 0.54961 0.74707 0.88063 0.0
C209 C 0.55569 0.80799 0.89177 0.0
C210 C 0.53997 0.80701 0.8474 0.0
C211 C 0.53102 0.77765 0.82762 0.0
C212 C 0.51563 0.77739 0.78536 0.0
C213 C 0.50602 0.74783 0.76699 0.0
C214 C 0.5122 0.7193 0.7891 0.0
C215 C 0.52795 0.7195 0.8298 0.0
C216 C 0.53733 0.74826 0.849 0.0
H217 H 0.53293 0.78602 0.68452 0.0
C218 C 0.50951 0.79771 0.68168 0.0
H219 H 0.47094 0.81963 0.71588 0.0
H220 H 0.55359 0.86755 0.8763 0.0
H221 H 0.54365 0.91676 0.83656 0.0
H222 H 0.51862 0.91621 0.76233 0.0
H223 H 0.50318 0.86647 0.72758 0.0
C224 C 0.49381 0.80691 0.71852 0.0
C225 C 0.50989 0.80645 0.76266 0.0
C226 C 0.51913 0.83579 0.78232 0.0
C227 C 0.53409 0.83608 0.82474 0.0
C228 C 0.54258 0.86581 0.84385 0.0
C229 C 0.53695 0.89431 0.82145 0.0
C230 C 0.52282 0.894 0.77971 0.0
C231 C 0.51398 0.86521 0.7602 0.0
H232 H 0.79333 0.46721 0.69289 0.0
C233 C 0.80055 0.49006 0.67899 0.0
H234 H 0.81086 0.53843 0.69291 0.0
H235 H 0.73466 0.52673 0.87835 0.0
H236 H 0.69153 0.5501 0.83424 0.0
H237 H 0.6975 0.55639 0.75337 0.0
H238 H 0.74659 0.53912 0.71602 0.0
C239 C 0.80328 0.51543 0.70583 0.0
C240 C 0.79965 0.51192 0.75467 0.0
C241 C 0.77112 0.52256 0.77608 0.0
C242 C 0.76795 0.51948 0.82287 0.0
C243 C 0.73871 0.52934 0.84314 0.0
C244 C 0.71369 0.54259 0.81815 0.0
C245 C 0.71703 0.54609 0.7726 0.0
C246 C 0.74531 0.53613 0.7516 0.0
H247 H 0.79118 0.5549 0.90508 0.0
C248 C 0.79305 0.53197 0.92171 0.0
H249 H 0.79521 0.48214 0.91373 0.0
H250 H 0.85831 0.49041 0.72422 0.0
H251 H 0.90156 0.46752 0.76813 0.0
H252 H 0.8962 0.46216 0.84915 0.0
H253 H 0.84761 0.47967 0.88669 0.0
C254 C 0.79198 0.50509 0.89759 0.0
C255 C 0.79366 0.50634 0.84825 0.0
C256 C 0.82214 0.49543 0.82669 0.0
C257 C 0.82521 0.49839 0.77993 0.0
C258 C 0.85435 0.48824 0.75951 0.0
C259 C 0.87952 0.47518 0.78435 0.0
C260 C 0.8765 0.47218 0.82995 0.0
C261 C 0.84832 0.48226 0.85106 0.0
H262 H 0.49657 0.79392 0.18913 0.0
C263 C 0.52201 0.79494 0.1798 0.0
H264 H 0.57029 0.79323 0.2027 0.0
H265 H 0.52803 0.8442 0.39141 0.0
H266 H 0.55514 0.89038 0.36071 0.0
H267 H 0.57392 0.89067 0.28317 0.0
H268 H 0.56551 0.84483 0.23584 0.0
C269 C 0.5448 0.79049 0.21098 0.0
C270 C 0.53565 0.78875 0.25869 0.0
C271 C 0.54157 0.81547 0.28632 0.0
C272 C 0.53112 0.81513 0.33121 0.0
C273 C 0.53613 0.84273 0.35742 0.0
C274 C 0.55151 0.86956 0.34013 0.0
C275 C 0.56205 0.86973 0.29649 0.0
C276 C 0.55711 0.84316 0.2697 0.0
H277 H 0.55154 0.78024 0.42086 0.0
C278 C 0.52632 0.78506 0.42889 0.0
H279 H 0.47947 0.79332 0.4028 0.0
H280 H 0.52218 0.73301 0.21557 0.0
H281 H 0.49464 0.68679 0.24625 0.0
H282 H 0.47631 0.68634 0.32404 0.0
H283 H 0.4855 0.73211 0.37177 0.0
C284 C 0.50464 0.78761 0.39585 0.0
C285 C 0.51543 0.78776 0.34876 0.0
C286 C 0.50963 0.76104 0.32124 0.0
C287 C 0.51988 0.76145 0.27619 0.0
C288 C 0.51435 0.73416 0.24973 0.0
C289 C 0.49872 0.70744 0.26699 0.0
C290 C 0.48843 0.70718 0.31082 0.0
C291 C 0.49382 0.73357 0.33783 0.0
H292 H 0.25109 0.46308 0.90845 0.0
C293 C 0.24793 0.48682 0.92219 0.0
H294 H 0.2436 0.53595 0.90766 0.0
H295 H 0.30465 0.51899 0.71427 0.0
H296 H 0.35252 0.53819 0.75277 0.0
H297 H 0.3528 0.54382 0.83412 0.0
H298 H 0.30523 0.53005 0.87756 0.0
C299 C 0.24729 0.51207 0.89477 0.0
C300 C 0.24748 0.5079 0.84576 0.0
C301 C 0.27524 0.5164 0.82081 0.0
C302 C 0.27488 0.51368 0.77379 0.0
C303 C 0.30331 0.52144 0.74988 0.0
C304 C 0.33102 0.53228 0.77161 0.0
C305 C 0.33119 0.53541 0.81743 0.0
C306 C 0.30373 0.5275 0.84194 0.0
H307 H 0.24858 0.55231 0.69593 0.0
C308 C 0.24406 0.52985 0.67907 0.0
H309 H 0.23884 0.48012 0.68618 0.0
H310 H 0.1893 0.49112 0.88332 0.0
H311 H 0.14156 0.47208 0.84499 0.0
H312 H 0.14107 0.46685 0.76364 0.0
H313 H 0.18828 0.48075 0.7202 0.0
C314 C 0.24456 0.50255 0.70239 0.0
C315 C 0.24647 0.50301 0.75175 0.0
C316 C 0.21885 0.49399 0.77681 0.0
C317 C 0.21924 0.49671 0.82379 0.0
C318 C 0.19076 0.48884 0.84772 0.0
C319 C 0.16303 0.47804 0.8261 0.0
C320 C 0.16274 0.47512 0.78031 0.0
C321 C 0.19014 0.48311 0.75578 0.0
H322 H 0.49829 0.24615 0.41381 0.0
C323 C 0.5232 0.24179 0.42395 0.0
H324 H 0.57128 0.23489 0.40241 0.0
H325 H 0.5215 0.17775 0.22074 0.0
H326 H 0.54135 0.13062 0.25812 0.0
H327 H 0.56025 0.13321 0.33556 0.0
H328 H 0.55913 0.18294 0.37611 0.0
C329 C 0.54662 0.2411 0.3931 0.0
C330 C 0.53807 0.24083 0.34513 0.0
C331 C 0.53989 0.21173 0.32137 0.0
C332 C 0.52958 0.21036 0.27644 0.0
C333 C 0.53002 0.18054 0.25438 0.0
C334 C 0.54113 0.15314 0.27558 0.0
C335 C 0.55172 0.15459 0.31918 0.0
C336 C 0.55101 0.18339 0.34204 0.0
H337 H 0.55485 0.23111 0.18295 0.0
C338 C 0.52914 0.23197 0.17502 0.0
H339 H 0.48182 0.23761 0.20076 0.0
H340 H 0.53312 0.30062 0.38032 0.0
H341 H 0.51308 0.34798 0.3429 0.0
H342 H 0.49528 0.34566 0.26491 0.0
H343 H 0.49746 0.29596 0.22374 0.0
C344 C 0.50766 0.23689 0.20772 0.0
C345 C 0.51834 0.23836 0.25486 0.0
C346 C 0.51665 0.26746 0.27854 0.0
C347 C 0.52665 0.26874 0.32368 0.0
C348 C 0.52529 0.29824 0.34626 0.0
C349 C 0.51399 0.32561 0.32511 0.0
C350 C 0.504 0.32431 0.28117 0.0
C351 C 0.50533 0.29565 0.25795 0.0
H352 H 0.9344 0.51041 0.02761 0.0
C353 C 0.93137 0.53433 0.04087 0.0
H354 H 0.95532 0.5738 0.06928 0.0
H355 H 0.07421 0.49133 0.13637 0.0
H356 H 0.04977 0.50834 0.20537 0.0
H357 H 0.99771 0.53721 0.2057 0.0
H358 H 0.96996 0.54957 0.13703 0.0
C359 C 0.95779 0.55053 0.05389 0.0
C360 C 0.99034 0.53489 0.05313 0.0
C361 C 1.00618 0.52761 0.09364 0.0
C362 C 0.03594 0.51043 0.0935 0.0
C363 C 0.05137 0.50392 0.13448 0.0
C364 C 0.03763 0.51358 0.17439 0.0
C365 C 1.00835 0.52986 0.17457 0.0
C366 C 0.99268 0.53684 0.13483 0.0
H367 H 0.1063 0.52118 0.02292 0.0
C368 C 0.10841 0.49765 0.0378 0.0
H369 H 0.08333 0.46062 0.07046 0.0
H370 H 0.96889 0.54852 0.96935 0.0
H371 H 0.99243 0.53008 0.90038 0.0
H372 H 0.04173 0.49684 0.90043 0.0
H373 H 0.06809 0.48231 0.96939 0.0
C374 C 0.08158 0.48329 0.05318 0.0
C375 C 0.0498 0.50034 0.05288 0.0
C376 C 0.03397 0.50759 0.01234 0.0
C377 C 1.00466 0.52551 0.01242 0.0
C378 C 0.99039 0.53384 0.97132 0.0
C379 C 1.00379 0.52362 0.93146 0.0
C380 C 0.03161 0.50501 0.93148 0.0
C381 C 0.04662 0.49701 0.97132 0.0
H382 H 0.53369 0.92754 0.52455 0.0
C383 C 0.5088 0.92416 0.53549 0.0
H384 H 0.46651 0.947 0.55865 0.0
H385 H 0.54482 0.06717 0.62756 0.0
H386 H 0.52911 0.04205 0.69667 0.0
H387 H 0.50276 0.98924 0.69712 0.0
H388 H 0.49169 0.96135 0.62844 0.0
C389 C 0.49083 0.94983 0.54541 0.0
C390 C 0.50551 0.98231 0.54456 0.0
C391 C 0.51189 0.99827 0.58504 0.0
C392 C 0.52747 0.02854 0.58482 0.0
C393 C 0.53333 0.04401 0.62576 0.0
C394 C 0.52441 0.02988 0.66572 0.0
C395 C 0.50955 1.00017 0.66596 0.0
C396 C 0.50331 0.98443 0.62624 0.0
H397 H 0.51053 0.09755 0.51859 0.0
C398 C 0.53495 0.10076 0.53145 0.0
H399 H 0.57558 0.07781 0.55966 0.0
H400 H 0.49432 0.95955 0.46095 0.0
H401 H 0.51109 0.98414 0.39186 0.0
H402 H 0.54041 0.03543 0.39168 0.0
H403 H 0.55284 0.0626 0.46057 0.0
C404 C 0.5519 0.07506 0.54432 0.0
C405 C 0.53662 0.04285 0.54412 0.0
C406 C 0.53029 0.02689 0.50362 0.0
C407 C 0.51431 0.9968 0.5038 0.0
C408 C 0.50726 0.98195 0.4628 0.0
C409 C 0.51658 0.99589 0.42289 0.0
C410 C 0.53301 0.02481 0.42278 0.0
C411 C 0.53986 0.04024 0.46255 0.0
H412 H 0.08927 0.5734 0.55589 0.0
C413 C 0.10517 0.55287 0.55897 0.0
H414 H 0.10803 0.50287 0.56649 0.0
H415 H 0.96902 0.47764 0.64299 0.0
H416 H 1.0026 0.46666 0.70727 0.0
H417 H 0.0611 0.47888 0.70656 0.0
H418 H 0.0864 0.50222 0.64169 0.0
C419 C 0.09227 0.52344 0.56277 0.0
C420 C 0.05658 0.51744 0.56339 0.0
C421 C 0.04214 0.50364 0.60155 0.0
C422 C 1.00836 0.49659 0.60202 0.0
C423 C 0.99456 0.48326 0.64078 0.0
C424 C 1.01355 0.47689 0.67793 0.0
C425 C 0.04649 0.48377 0.67753 0.0
C426 C 0.06073 0.49706 0.63997 0.0
H427 H 0.95543 0.44862 0.55323 0.0
C428 C 0.93989 0.46918 0.55846 0.0
H429 H 0.93807 0.51898 0.56909 0.0
H430 H 0.07688 0.53962 0.48234 0.0
H431 H 0.04313 0.55069 0.41855 0.0
H432 H 0.98422 0.54072 0.42077 0.0
H433 H 0.95882 0.51914 0.48675 0.0
C434 C 0.95331 0.49803 0.56553 0.0
C435 C 0.98902 0.50332 0.56435 0.0
C436 C 1.00342 0.51687 0.52608 0.0
C437 C 0.0373 0.52346 0.52527 0.0
C438 C 0.05117 0.5353 0.4856 0.0
C439 C 0.03208 0.54153 0.4485 0.0
C440 C 0.99893 0.53586 0.44971 0.0
C441 C 0.98465 0.52356 0.48786 0.0
H442 H 0.57863 0.94888 0.06255 0.0
C443 C 0.55781 0.93326 0.06678 0.0
H444 H 0.50716 0.93079 0.07704 0.0
H445 H 0.49272 0.07083 0.15175 0.0
H446 H 0.48429 0.03976 0.21866 0.0
H447 H 0.49335 0.98163 0.21901 0.0
H448 H 0.51095 0.9542 0.15252 0.0
C449 C 0.52814 0.94605 0.07199 0.0
C450 C 0.52277 0.98119 0.07154 0.0
C451 C 0.51215 0.99681 0.11057 0.0
C452 C 0.50687 0.03035 0.11038 0.0
C453 C 0.49686 0.0454 0.15001 0.0
C454 C 0.49198 0.02786 0.18865 0.0
C455 C 0.49708 0.99513 0.18885 0.0
C456 C 0.50711 0.97966 0.15041 0.0
H457 H 0.45774 0.08323 0.06442 0.0
C458 C 0.47956 0.0977 0.06654 0.0
H459 H 0.5307 0.09752 0.07176 0.0
H460 H 0.53881 0.95833 0.98923 0.0
H461 H 0.54714 0.98948 0.92262 0.0
H462 H 0.53995 0.04785 0.92316 0.0
H463 H 0.52398 0.07533 0.99034 0.0
C464 C 0.50858 0.08345 0.07125 0.0
C465 C 0.5121 0.04817 0.07114 0.0
C466 C 0.52226 0.03253 0.03194 0.0
C467 C 0.52716 0.99896 0.03192 0.0
C468 C 0.53581 0.98386 0.99167 0.0
C469 C 0.54044 1.00145 0.95302 0.0
C470 C 0.53634 0.0343 0.9533 0.0
C471 C 0.52725 0.04977 0.99214 0.0
H472 H 0.21901 0.33788 0.07669 0.0
C473 C 0.23039 0.35903 0.06286 0.0
H474 H 0.27229 0.37857 0.03346 0.0
H475 H 0.33 0.24612 0.12622 0.0
H476 H 0.31207 0.26789 0.19641 0.0
H477 H 0.28097 0.31804 0.19915 0.0
H478 H 0.26683 0.34614 0.13185 0.0
C479 C 0.26087 0.35739 0.04718 0.0
C480 C 0.28009 0.32723 0.04657 0.0
C481 C 0.28956 0.31198 0.08663 0.0
C482 C 0.30935 0.28416 0.0853 0.0
C483 C 0.31652 0.2682 0.12549 0.0
C484 C 0.30615 0.2803 0.166 0.0
C485 C 0.28851 0.30845 0.16752 0.0
C486 C 0.28031 0.32422 0.12847 0.0
H487 H 0.38078 0.26849 0.08121 0.0
C488 C 0.37465 0.24783 0.06118 0.0
H489 H 0.33919 0.22555 0.02154 0.0
H490 H 0.26512 0.34944 0.96379 0.0
H491 H 0.28527 0.32913 0.89393 0.0
H492 H 0.32264 0.28331 0.89191 0.0
H493 H 0.33982 0.25733 0.95954 0.0
C494 C 0.34506 0.24579 0.0425 0.0
C495 C 0.32152 0.27286 0.04425 0.0
C496 C 0.31193 0.28803 1.00425 0.0
C497 C 0.29099 0.31498 1.00544 0.0
C498 C 0.28146 0.32929 0.96492 0.0
C499 C 0.29277 0.31782 0.92453 0.0
C500 C 0.31375 0.292 0.92339 0.0
C501 C 0.32333 0.27722 0.9626 0.0
H502 H 0.77097 0.36329 0.57242 0.0
C503 C 0.79044 0.35926 0.54884 0.0
H504 H 0.80939 0.32858 0.5001 0.0
H505 H 0.69171 0.2531 0.61672 0.0
H506 H 0.72608 0.25999 0.68093 0.0
H507 H 0.77872 0.28757 0.67486 0.0
H508 H 0.7967 0.30936 0.60458 0.0
C509 C 0.79062 0.33228 0.52477 0.0
C510 C 0.7628 0.30938 0.52659 0.0
C511 C 0.75378 0.29461 0.56709 0.0
C512 C 0.72454 0.27661 0.56981 0.0
C513 C 0.71459 0.26513 0.61183 0.0
C514 C 0.73397 0.26921 0.64921 0.0
C515 C 0.76352 0.28489 0.64585 0.0
C516 C 0.77341 0.29751 0.60539 0.0
H517 H 0.69485 0.21008 0.55582 0.0
C518 C 0.67281 0.22246 0.54614 0.0
H519 H 0.6524 0.26565 0.5239 0.0
H520 H 0.7734 0.33313 0.44306 0.0
H521 H 0.74124 0.3228 0.37756 0.0
H522 H 0.693 0.28814 0.38106 0.0
H523 H 0.67641 0.2639 0.45033 0.0
C524 C 0.67441 0.25314 0.53338 0.0
C525 C 0.70566 0.27115 0.5311 0.0
C526 C 0.7157 0.28442 0.4901 0.0
C527 C 0.74404 0.30378 0.4879 0.0
C528 C 0.75256 0.31771 0.44671 0.0
C529 C 0.73424 0.31205 0.40874 0.0
C530 C 0.70706 0.29258 0.41072 0.0
C531 C 0.69776 0.27889 0.45078 0.0
H532 H 0.77472 0.65654 0.03335 0.0
C533 C 0.79484 0.66045 0.056 0.0
H534 H 0.81575 0.69153 0.10279 0.0
H535 H 0.69625 0.76565 0.98731 0.0
H536 H 0.72882 0.7565 0.92199 0.0
H537 H 0.78134 0.72869 0.92725 0.0
H538 H 0.80096 0.7089 0.99789 0.0
C539 C 0.79634 0.68788 0.07898 0.0
C540 C 0.76907 0.7114 0.07727 0.0
C541 C 0.75918 0.72511 0.03642 0.0
C542 C 0.7301 0.74333 0.03401 0.0
C543 C 0.71913 0.75359 0.99183 0.0
C544 C 0.73746 0.74819 0.95385 0.0
C545 C 0.76693 0.73238 0.95676 0.0
C546 C 0.77777 0.7209 0.99745 0.0
H547 H 0.70276 0.81054 0.04526 0.0
C548 C 0.68059 0.79924 0.05676 0.0
H549 H 0.65945 0.75747 0.08278 0.0
H550 H 0.78159 0.69009 0.16161 0.0
H551 H 0.75146 0.70291 0.22792 0.0
H552 H 0.70369 0.73813 0.22467 0.0
H553 H 0.68552 0.76039 0.15484 0.0
C554 C 0.68155 0.76898 0.0714 0.0
C555 C 0.71237 0.75024 0.07323 0.0
C556 C 0.72336 0.73811 0.11447 0.0
C557 C 0.75146 0.71843 0.11647 0.0
C558 C 0.76091 0.70567 0.15802 0.0
C559 C 0.74376 0.71278 0.19648 0.0
C560 C 0.71683 0.73256 0.19464 0.0
C561 C 0.70662 0.74512 0.15426 0.0
H562 H 0.34995 0.81311 0.56012 0.0
C563 C 0.37201 0.80104 0.54988 0.0
H564 H 0.3925 0.75822 0.52654 0.0
H565 H 0.24992 0.71243 0.61018 0.0
H566 H 0.26929 0.73292 0.6805 0.0
H567 H 0.32192 0.76061 0.6856 0.0
H568 H 0.35492 0.76888 0.62042 0.0
C569 C 0.37053 0.77048 0.53665 0.0
C570 C 0.33936 0.7523 0.53482 0.0
C571 C 0.32126 0.74606 0.57396 0.0
C572 C 0.292 0.72805 0.57165 0.0
C573 C 0.27319 0.72434 0.61054 0.0
C574 C 0.28388 0.73621 0.65105 0.0
C575 C 0.31342 0.75195 0.65388 0.0
C576 C 0.33201 0.75681 0.61598 0.0
H577 H 0.27445 0.65918 0.57476 0.0
C578 C 0.25454 0.66392 0.55208 0.0
H579 H 0.23487 0.6959 0.50538 0.0
H580 H 0.36708 0.76103 0.45341 0.0
H581 H 0.34906 0.73822 0.38387 0.0
H582 H 0.30069 0.70372 0.3808 0.0
H583 H 0.26984 0.69209 0.447 0.0
C584 C 0.25411 0.69147 0.52921 0.0
C585 C 0.28213 0.71414 0.53096 0.0
C586 C 0.30013 0.72049 0.49184 0.0
C587 C 0.32853 0.7398 0.49375 0.0
C588 C 0.3457 0.74608 0.45404 0.0
C589 C 0.33558 0.73321 0.41384 0.0
C590 C 0.30832 0.71383 0.4121 0.0
C591 C 0.29076 0.70742 0.45048 0.0
loop_
_geom_bond_atom_site_label_1
_geom_bond_atom_site_label_2
_geom_bond_distance
_geom_bond_site_symmetry_2
_ccdc_geom_bond_type
O0 Cd1 2.223 . S
O0 C8 1.315 . S
Cd1 O0 2.223 . S
Cd1 O4 2.297 . S
Cd1 O5 2.439 . S
Cd1 O11 2.240 . S
Cd2 O3 2.240 . S
Cd2 O10 2.223 . S
Cd2 O12 2.297 1_554 S
Cd2 O13 2.439 1_554 S
O3 Cd2 2.240 . S
O3 C8 1.279 . S
O4 Cd1 2.297 . S
O4 C6 1.247 . S
O5 Cd1 2.439 . S
O5 C6 1.208 . S
C6 O4 1.247 . S
C6 O5 1.208 . S
C7 O12 1.247 . S
C7 O13 1.208 . S
C8 O0 1.315 . S
C8 O3 1.279 . S
C9 O10 1.315 . S
C9 O11 1.279 . S
O10 Cd2 2.223 . S
O10 C9 1.315 . S
O11 Cd1 2.240 . S
O11 C9 1.279 . S
O12 Cd2 2.297 1_556 S
O12 C7 1.247 . S
O13 Cd2 2.439 1_556 S
O13 C7 1.208 . S
O14 Cd15 2.223 . S
O14 C22 1.315 . S
Cd15 O14 2.223 . S
Cd15 O18 2.297 . S
Cd15 O19 2.439 . S
Cd15 O25 2.240 . S
Cd16 O17 2.240 . S
Cd16 O24 2.223 . S
Cd16 O26 2.297 . S
Cd16 O27 2.439 . S
O17 Cd16 2.240 . S
O17 C22 1.279 . S
O18 Cd15 2.297 . S
O18 C20 1.247 . S
O19 Cd15 2.439 . S
O19 C20 1.208 . S
C20 O18 1.247 . S
C20 O19 1.208 . S
C21 O26 1.247 . S
C21 O27 1.208 . S
C22 O14 1.315 . S
C22 O17 1.279 . S
C23 O24 1.315 . S
C23 O25 1.279 . S
O24 Cd16 2.223 . S
O24 C23 1.315 . S
O25 Cd15 2.240 . S
O25 C23 1.279 . S
O26 Cd16 2.297 . S
O26 C21 1.247 . S
O27 Cd16 2.439 . S
O27 C21 1.208 . S
O28 Cd29 2.223 . S
O28 C36 1.315 . S
Cd29 O28 2.223 . S
Cd29 O32 2.297 . S
Cd29 O33 2.439 . S
Cd29 O39 2.240 . S
Cd30 O31 2.240 . S
Cd30 O38 2.223 . S
Cd30 O40 2.297 1_554 S
Cd30 O41 2.439 1_554 S
O31 Cd30 2.240 . S
O31 C36 1.279 . S
O32 Cd29 2.297 . S
O32 C34 1.247 . S
O33 Cd29 2.439 . S
O33 C34 1.208 . S
C34 O32 1.247 . S
C34 O33 1.208 . S
C35 O40 1.247 . S
C35 O41 1.208 . S
C36 O28 1.315 . S
C36 O31 1.279 . S
C37 O38 1.315 . S
C37 O39 1.279 . S
O38 Cd30 2.223 . S
O38 C37 1.315 . S
O39 Cd29 2.240 . S
O39 C37 1.279 . S
O40 Cd30 2.297 1_556 S
O40 C35 1.247 . S
O41 Cd30 2.439 1_556 S
O41 C35 1.208 . S
O42 Cd43 2.223 . S
O42 C50 1.315 . S
Cd43 O42 2.223 . S
Cd43 O46 2.297 . S
Cd43 O47 2.439 . S
Cd43 O53 2.240 . S
Cd44 O45 2.240 . S
Cd44 O52 2.223 . S
Cd44 O54 2.297 . S
Cd44 O55 2.439 . S
O45 Cd44 2.240 . S
O45 C50 1.279 . S
O46 Cd43 2.297 . S
O46 C48 1.247 . S
O47 Cd43 2.439 . S
O47 C48 1.208 . S
C48 O46 1.247 . S
C48 O47 1.208 . S
C49 O54 1.247 . S
C49 O55 1.208 . S
C50 O42 1.315 . S
C50 O45 1.279 . S
C51 O52 1.315 . S
C51 O53 1.279 . S
O52 Cd44 2.223 . S
O52 C51 1.315 . S
O53 Cd43 2.240 . S
O53 C51 1.279 . S
O54 Cd44 2.297 . S
O54 C49 1.247 . S
O55 Cd44 2.439 . S
O55 C49 1.208 . S
O56 Cd57 2.223 . S
O56 C64 1.315 . S
Cd57 O56 2.223 . S
Cd57 O60 2.297 . S
Cd57 O61 2.439 . S
Cd57 O67 2.240 . S
Cd58 O59 2.240 . S
Cd58 O66 2.223 . S
Cd58 O68 2.297 . S
Cd58 O69 2.439 . S
O59 Cd58 2.240 . S
O59 C64 1.279 . S
O60 Cd57 2.297 . S
O60 C62 1.247 . S
O61 Cd57 2.439 . S
O61 C62 1.208 . S
C62 O60 1.247 . S
C62 O61 1.208 . S
C63 O68 1.247 . S
C63 O69 1.208 . S
C64 O56 1.315 . S
C64 O59 1.279 . S
C65 O66 1.315 . S
C65 O67 1.279 . S
O66 Cd58 2.223 . S
O66 C65 1.315 . S
O67 Cd57 2.240 . S
O67 C65 1.279 . S
O68 Cd58 2.297 . S
O68 C63 1.247 . S
O69 Cd58 2.439 . S
O69 C63 1.208 . S
O70 Cd71 2.223 1_556 S
O70 C78 1.315 . S
Cd71 O70 2.223 1_554 S
Cd71 O74 2.297 1_554 S
Cd71 O75 2.439 . S
Cd71 O81 2.240 . S
Cd72 O73 2.240 1_554 S
Cd72 O80 2.223 . S
Cd72 O82 2.297 . S
Cd72 O83 2.439 . S
O73 Cd72 2.240 1_556 S
O73 C78 1.279 . S
O74 Cd71 2.297 1_556 S
O74 C76 1.247 1_556 S
O75 Cd71 2.439 . S
O75 C76 1.208 . S
C76 O74 1.247 1_554 S
C76 O75 1.208 . S
C77 O82 1.247 . S
C77 O83 1.208 . S
C78 O70 1.315 . S
C78 O73 1.279 . S
C79 O80 1.315 . S
C79 O81 1.279 . S
O80 Cd72 2.223 . S
O80 C79 1.315 . S
O81 Cd71 2.240 . S
O81 C79 1.279 . S
O82 Cd72 2.297 . S
O82 C77 1.247 . S
O83 Cd72 2.439 . S
O83 C77 1.208 . S
O84 Cd85 2.223 . S
O84 C92 1.315 . S
Cd85 O84 2.223 . S
Cd85 O88 2.297 . S
Cd85 O89 2.439 . S
Cd85 O95 2.240 . S
Cd86 O87 2.240 . S
Cd86 O94 2.223 . S
Cd86 O96 2.297 . S
Cd86 O97 2.439 . S
O87 Cd86 2.240 . S
O87 C92 1.279 . S
O88 Cd85 2.297 . S
O88 C90 1.247 . S
O89 Cd85 2.439 . S
O89 C90 1.208 . S
C90 O88 1.247 . S
C90 O89 1.208 . S
C91 O96 1.247 . S
C91 O97 1.208 . S
C92 O84 1.315 . S
C92 O87 1.279 . S
C93 O94 1.315 . S
C93 O95 1.279 . S
O94 Cd86 2.223 . S
O94 C93 1.315 . S
O95 Cd85 2.240 . S
O95 C93 1.279 . S
O96 Cd86 2.297 . S
O96 C91 1.247 . S
O97 Cd86 2.439 . S
O97 C91 1.208 . S
O98 Cd99 2.223 1_556 S
O98 C106 1.315 . S
Cd99 O98 2.223 1_554 S
Cd99 O102 2.297 1_554 S
Cd99 O103 2.439 . S
Cd99 O109 2.240 . S
Cd100 O101 2.240 1_554 S
Cd100 O108 2.223 . S
Cd100 O110 2.297 . S
Cd100 O111 2.439 . S
O101 Cd100 2.240 1_556 S
O101 C106 1.279 . S
O102 Cd99 2.297 1_556 S
O102 C104 1.247 1_556 S
O103 Cd99 2.439 . S
O103 C104 1.208 . S
C104 O102 1.247 1_554 S
C104 O103 1.208 . S
C105 O110 1.247 . S
C105 O111 1.208 . S
C106 O98 1.315 . S
C106 O101 1.279 . S
C107 O108 1.315 . S
C107 O109 1.279 . S
O108 Cd100 2.223 . S
O108 C107 1.315 . S
O109 Cd99 2.240 . S
O109 C107 1.279 . S
O110 Cd100 2.297 . S
O110 C105 1.247 . S
O111 Cd100 2.439 . S
O111 C105 1.208 . S
H112 C113 0.951 . S
C113 H112 0.951 . S
C113 C119 1.265 . S
H114 C119 0.950 . S
H115 C123 0.949 . S
H116 C124 0.950 . S
H117 C125 0.951 . S
H118 C126 0.951 . S
C119 C113 1.265 . S
C119 H114 0.950 . S
C119 C120 1.478 . S
C120 C119 1.478 . S
C120 C121 1.397 . S
C120 C137 1.394 . S
C121 C120 1.397 . S
C121 C122 1.438 . S
C121 C126 1.429 . S
C122 C121 1.438 . S
C122 C123 1.428 . S
C122 C135 1.394 . S
C123 H115 0.949 . S
C123 C122 1.428 . S
C123 C124 1.345 . S
C124 H116 0.950 . S
C124 C123 1.345 . S
C124 C125 1.424 . S
C125 H117 0.951 . S
C125 C124 1.424 . S
C125 C126 1.347 . S
C126 H118 0.951 . S
C126 C121 1.429 . S
C126 C125 1.347 . S
H127 C128 0.951 . S
C128 H127 0.951 . S
C128 C134 1.265 . S
H129 C134 0.950 . S
H130 C138 0.949 . S
H131 C139 0.950 . S
H132 C140 0.951 . S
H133 C141 0.951 . S
C134 C128 1.265 . S
C134 H129 0.950 . S
C134 C135 1.478 . S
C135 C122 1.394 . S
C135 C134 1.478 . S
C135 C136 1.397 . S
C136 C135 1.397 . S
C136 C137 1.438 . S
C136 C141 1.429 . S
C137 C120 1.394 . S
C137 C136 1.438 . S
C137 C138 1.428 . S
C138 H130 0.949 . S
C138 C137 1.428 . S
C138 C139 1.345 . S
C139 H131 0.950 . S
C139 C138 1.345 . S
C139 C140 1.424 . S
C140 H132 0.951 . S
C140 C139 1.424 . S
C140 C141 1.347 . S
C141 H133 0.951 . S
C141 C136 1.429 . S
C141 C140 1.347 . S
H142 C143 0.951 . S
C143 H142 0.951 . S
C143 C149 1.265 . S
H144 C149 0.950 . S
H145 C153 0.949 . S
H146 C154 0.950 . S
H147 C155 0.951 . S
H148 C156 0.951 . S
C149 C143 1.265 . S
C149 H144 0.950 . S
C149 C150 1.478 . S
C150 C149 1.478 . S
C150 C151 1.397 . S
C150 C167 1.394 . S
C151 C150 1.397 . S
C151 C152 1.438 . S
C151 C156 1.429 . S
C152 C151 1.438 . S
C152 C153 1.428 . S
C152 C165 1.394 . S
C153 H145 0.949 . S
C153 C152 1.428 . S
C153 C154 1.345 . S
C154 H146 0.950 . S
C154 C153 1.345 . S
C154 C155 1.424 . S
C155 H147 0.951 . S
C155 C154 1.424 . S
C155 C156 1.347 . S
C156 H148 0.951 . S
C156 C151 1.429 . S
C156 C155 1.347 . S
H157 C158 0.951 . S
C158 H157 0.951 . S
C158 C164 1.265 . S
H159 C164 0.950 . S
H160 C168 0.949 . S
H161 C169 0.950 . S
H162 C170 0.951 . S
H163 C171 0.951 . S
C164 C158 1.265 . S
C164 H159 0.950 . S
C164 C165 1.478 . S
C165 C152 1.394 . S
C165 C164 1.478 . S
C165 C166 1.397 . S
C166 C165 1.397 . S
C166 C167 1.438 . S
C166 C171 1.429 . S
C167 C150 1.394 . S
C167 C166 1.438 . S
C167 C168 1.428 . S
C168 H160 0.949 . S
C168 C167 1.428 . S
C168 C169 1.345 . S
C169 H161 0.950 . S
C169 C168 1.345 . S
C169 C170 1.424 . S
C170 H162 0.951 . S
C170 C169 1.424 . S
C170 C171 1.347 . S
C171 H163 0.951 . S
C171 C166 1.429 . S
C171 C170 1.347 . S
H172 C173 0.951 . S
C173 H172 0.951 . S
C173 C179 1.265 . S
H174 C179 0.950 . S
H175 C183 0.949 . S
H176 C184 0.950 . S
H177 C185 0.951 . S
H178 C186 0.951 . S
C179 C173 1.265 . S
C179 H174 0.950 . S
C179 C180 1.478 . S
C180 C179 1.478 . S
C180 C181 1.397 . S
C180 C197 1.394 . S
C181 C180 1.397 . S
C181 C182 1.438 . S
C181 C186 1.429 . S
C182 C181 1.438 . S
C182 C183 1.428 . S
C182 C195 1.394 . S
C183 H175 0.949 . S
C183 C182 1.428 . S
C183 C184 1.345 . S
C184 H176 0.950 . S
C184 C183 1.345 . S
C184 C185 1.424 . S
C185 H177 0.951 . S
C185 C184 1.424 . S
C185 C186 1.347 . S
C186 H178 0.951 . S
C186 C181 1.429 . S
C186 C185 1.347 . S
H187 C188 0.951 . S
C188 H187 0.951 . S
C188 C194 1.265 . S
H189 C194 0.950 . S
H190 C198 0.949 . S
H191 C199 0.950 . S
H192 C200 0.951 . S
H193 C201 0.951 . S
C194 C188 1.265 . S
C194 H189 0.950 . S
C194 C195 1.478 . S
C195 C182 1.394 . S
C195 C194 1.478 . S
C195 C196 1.397 . S
C196 C195 1.397 . S
C196 C197 1.438 . S
C196 C201 1.429 . S
C197 C180 1.394 . S
C197 C196 1.438 . S
C197 C198 1.428 . S
C198 H190 0.949 . S
C198 C197 1.428 . S
C198 C199 1.345 . S
C199 H191 0.950 . S
C199 C198 1.345 . S
C199 C200 1.424 . S
C200 H192 0.951 . S
C200 C199 1.424 . S
C200 C201 1.347 . S
C201 H193 0.951 . S
C201 C196 1.429 . S
C201 C200 1.347 . S
H202 C203 0.951 . S
C203 H202 0.951 . S
C203 C209 1.265 . S
H204 C209 0.950 . S
H205 C213 0.949 . S
H206 C214 0.950 . S
H207 C215 0.951 . S
H208 C216 0.951 . S
C209 C203 1.265 . S
C209 H204 0.950 . S
C209 C210 1.478 . S
C210 C209 1.478 . S
C210 C211 1.397 . S
C210 C227 1.394 . S
C211 C210 1.397 . S
C211 C212 1.438 . S
C211 C216 1.429 . S
C212 C211 1.438 . S
C212 C213 1.428 . S
C212 C225 1.394 . S
C213 H205 0.949 . S
C213 C212 1.428 . S
C213 C214 1.345 . S
C214 H206 0.950 . S
C214 C213 1.345 . S
C214 C215 1.424 . S
C215 H207 0.951 . S
C215 C214 1.424 . S
C215 C216 1.347 . S
C216 H208 0.951 . S
C216 C211 1.429 . S
C216 C215 1.347 . S
H217 C218 0.951 . S
C218 H217 0.951 . S
C218 C224 1.265 . S
H219 C224 0.950 . S
H220 C228 0.949 . S
H221 C229 0.950 . S
H222 C230 0.951 . S
H223 C231 0.951 . S
C224 C218 1.265 . S
C224 H219 0.950 . S
C224 C225 1.478 . S
C225 C212 1.394 . S
C225 C224 1.478 . S
C225 C226 1.397 . S
C226 C225 1.397 . S
C226 C227 1.438 . S
C226 C231 1.429 . S
C227 C210 1.394 . S
C227 C226 1.438 . S
C227 C228 1.428 . S
C228 H220 0.949 . S
C228 C227 1.428 . S
C228 C229 1.345 . S
C229 H221 0.950 . S
C229 C228 1.345 . S
C229 C230 1.424 . S
C230 H222 0.951 . S
C230 C229 1.424 . S
C230 C231 1.347 . S
C231 H223 0.951 . S
C231 C226 1.429 . S
C231 C230 1.347 . S
H232 C233 0.951 . S
C233 H232 0.951 . S
C233 C239 1.265 . S
H234 C239 0.950 . S
H235 C243 0.949 . S
H236 C244 0.950 . S
H237 C245 0.951 . S
H238 C246 0.951 . S
C239 C233 1.265 . S
C239 H234 0.950 . S
C239 C240 1.478 . S
C240 C239 1.478 . S
C240 C241 1.397 . S
C240 C257 1.394 . S
C241 C240 1.397 . S
C241 C242 1.438 . S
C241 C246 1.429 . S
C242 C241 1.438 . S
C242 C243 1.428 . S
C242 C255 1.394 . S
C243 H235 0.949 . S
C243 C242 1.428 . S
C243 C244 1.345 . S
C244 H236 0.950 . S
C244 C243 1.345 . S
C244 C245 1.424 . S
C245 H237 0.951 . S
C245 C244 1.424 . S
C245 C246 1.347 . S
C246 H238 0.951 . S
C246 C241 1.429 . S
C246 C245 1.347 . S
H247 C248 0.951 . S
C248 H247 0.951 . S
C248 C254 1.265 . S
H249 C254 0.950 . S
H250 C258 0.949 . S
H251 C259 0.950 . S
H252 C260 0.951 . S
H253 C261 0.951 . S
C254 C248 1.265 . S
C254 H249 0.950 . S
C254 C255 1.478 . S
C255 C242 1.394 . S
C255 C254 1.478 . S
C255 C256 1.397 . S
C256 C255 1.397 . S
C256 C257 1.438 . S
C256 C261 1.429 . S
C257 C240 1.394 . S
C257 C256 1.438 . S
C257 C258 1.428 . S
C258 H250 0.949 . S
C258 C257 1.428 . S
C258 C259 1.345 . S
C259 H251 0.950 . S
C259 C258 1.345 . S
C259 C260 1.424 . S
C260 H252 0.951 . S
C260 C259 1.424 . S
C260 C261 1.347 . S
C261 H253 0.951 . S
C261 C256 1.429 . S
C261 C260 1.347 . S
H262 C263 0.951 . S
C263 H262 0.951 . S
C263 C269 1.265 . S
H264 C269 0.950 . S
H265 C273 0.949 . S
H266 C274 0.950 . S
H267 C275 0.951 . S
H268 C276 0.951 . S
C269 C263 1.265 . S
C269 H264 0.950 . S
C269 C270 1.478 . S
C270 C269 1.478 . S
C270 C271 1.397 . S
C270 C287 1.394 . S
C271 C270 1.397 . S
C271 C272 1.438 . S
C271 C276 1.429 . S
C272 C271 1.438 . S
C272 C273 1.428 . S
C272 C285 1.394 . S
C273 H265 0.949 . S
C273 C272 1.428 . S
C273 C274 1.345 . S
C274 H266 0.950 . S
C274 C273 1.345 . S
C274 C275 1.424 . S
C275 H267 0.951 . S
C275 C274 1.424 . S
C275 C276 1.347 . S
C276 H268 0.951 . S
C276 C271 1.429 . S
C276 C275 1.347 . S
H277 C278 0.951 . S
C278 H277 0.951 . S
C278 C284 1.265 . S
H279 C284 0.950 . S
H280 C288 0.949 . S
H281 C289 0.950 . S
H282 C290 0.951 . S
H283 C291 0.951 . S
C284 C278 1.265 . S
C284 H279 0.950 . S
C284 C285 1.478 . S
C285 C272 1.394 . S
C285 C284 1.478 . S
C285 C286 1.397 . S
C286 C285 1.397 . S
C286 C287 1.438 . S
C286 C291 1.429 . S
C287 C270 1.394 . S
C287 C286 1.438 . S
C287 C288 1.428 . S
C288 H280 0.949 . S
C288 C287 1.428 . S
C288 C289 1.345 . S
C289 H281 0.950 . S
C289 C288 1.345 . S
C289 C290 1.424 . S
C290 H282 0.951 . S
C290 C289 1.424 . S
C290 C291 1.347 . S
C291 H283 0.951 . S
C291 C286 1.429 . S
C291 C290 1.347 . S
H292 C293 0.951 . S
C293 H292 0.951 . S
C293 C299 1.265 . S
H294 C299 0.950 . S
H295 C303 0.949 . S
H296 C304 0.950 . S
H297 C305 0.951 . S
H298 C306 0.951 . S
C299 C293 1.265 . S
C299 H294 0.950 . S
C299 C300 1.478 . S
C300 C299 1.478 . S
C300 C301 1.397 . S
C300 C317 1.394 . S
C301 C300 1.397 . S
C301 C302 1.438 . S
C301 C306 1.429 . S
C302 C301 1.438 . S
C302 C303 1.428 . S
C302 C315 1.394 . S
C303 H295 0.949 . S
C303 C302 1.428 . S
C303 C304 1.345 . S
C304 H296 0.950 . S
C304 C303 1.345 . S
C304 C305 1.424 . S
C305 H297 0.951 . S
C305 C304 1.424 . S
C305 C306 1.347 . S
C306 H298 0.951 . S
C306 C301 1.429 . S
C306 C305 1.347 . S
H307 C308 0.951 . S
C308 H307 0.951 . S
C308 C314 1.265 . S
H309 C314 0.950 . S
H310 C318 0.949 . S
H311 C319 0.950 . S
H312 C320 0.951 . S
H313 C321 0.951 . S
C314 C308 1.265 . S
C314 H309 0.950 . S
C314 C315 1.478 . S
C315 C302 1.394 . S
C315 C314 1.478 . S
C315 C316 1.397 . S
C316 C315 1.397 . S
C316 C317 1.438 . S
C316 C321 1.429 . S
C317 C300 1.394 . S
C317 C316 1.438 . S
C317 C318 1.428 . S
C318 H310 0.949 . S
C318 C317 1.428 . S
C318 C319 1.345 . S
C319 H311 0.950 . S
C319 C318 1.345 . S
C319 C320 1.424 . S
C320 H312 0.951 . S
C320 C319 1.424 . S
C320 C321 1.347 . S
C321 H313 0.951 . S
C321 C316 1.429 . S
C321 C320 1.347 . S
H322 C323 0.951 . S
C323 H322 0.951 . S
C323 C329 1.265 . S
H324 C329 0.950 . S
H325 C333 0.949 . S
H326 C334 0.950 . S
H327 C335 0.951 . S
H328 C336 0.951 . S
C329 C323 1.265 . S
C329 H324 0.950 . S
C329 C330 1.478 . S
C330 C329 1.478 . S
C330 C331 1.397 . S
C330 C347 1.394 . S
C331 C330 1.397 . S
C331 C332 1.438 . S
C331 C336 1.429 . S
C332 C331 1.438 . S
C332 C333 1.428 . S
C332 C345 1.394 . S
C333 H325 0.949 . S
C333 C332 1.428 . S
C333 C334 1.345 . S
C334 H326 0.950 . S
C334 C333 1.345 . S
C334 C335 1.424 . S
C335 H327 0.951 . S
C335 C334 1.424 . S
C335 C336 1.347 . S
C336 H328 0.951 . S
C336 C331 1.429 . S
C336 C335 1.347 . S
H337 C338 0.951 . S
C338 H337 0.951 . S
C338 C344 1.265 . S
H339 C344 0.950 . S
H340 C348 0.949 . S
H341 C349 0.950 . S
H342 C350 0.951 . S
H343 C351 0.951 . S
C344 C338 1.265 . S
C344 H339 0.950 . S
C344 C345 1.478 . S
C345 C332 1.394 . S
C345 C344 1.478 . S
C345 C346 1.397 . S
C346 C345 1.397 . S
C346 C347 1.438 . S
C346 C351 1.429 . S
C347 C330 1.394 . S
C347 C346 1.438 . S
C347 C348 1.428 . S
C348 H340 0.949 . S
C348 C347 1.428 . S
C348 C349 1.345 . S
C349 H341 0.950 . S
C349 C348 1.345 . S
C349 C350 1.424 . S
C350 H342 0.951 . S
C350 C349 1.424 . S
C350 C351 1.347 . S
C351 H343 0.951 . S
C351 C346 1.429 . S
C351 C350 1.347 . S
H352 C353 0.951 . S
C353 H352 0.951 . S
C353 C359 1.265 . S
H354 C359 0.950 . S
H355 C363 0.949 . S
H356 C364 0.950 . S
H357 C365 0.953 . S
H358 C366 0.951 . S
C359 C353 1.265 . S
C359 H354 0.950 . S
C359 C360 1.478 . S
C360 C359 1.478 . S
C360 C361 1.397 . S
C360 C377 1.394 . S
C361 C360 1.397 . S
C361 C362 1.438 1_655 S
C361 C366 1.429 . S
C362 C361 1.438 1_455 S
C362 C363 1.428 . S
C362 C375 1.394 . S
C363 H355 0.949 . S
C363 C362 1.428 . S
C363 C364 1.345 . S
C364 H356 0.950 . S
C364 C363 1.345 . S
C364 C365 1.424 . S
C365 H357 0.953 . S
C365 C364 1.424 . S
C365 C366 1.347 1_455 S
C366 H358 0.951 . S
C366 C361 1.429 . S
C366 C365 1.347 1_655 S
H367 C368 0.951 . S
C368 H367 0.951 . S
C368 C374 1.265 . S
H369 C374 0.950 . S
H370 C378 0.949 . S
H371 C379 0.950 . S
H372 C380 0.953 . S
H373 C381 0.951 . S
C374 C368 1.265 . S
C374 H369 0.950 . S
C374 C375 1.478 . S
C375 C362 1.394 . S
C375 C374 1.478 . S
C375 C376 1.397 . S
C376 C375 1.397 . S
C376 C377 1.438 1_455 S
C376 C381 1.429 1_554 S
C377 C360 1.394 . S
C377 C376 1.438 1_655 S
C377 C378 1.428 1_554 S
C378 H370 0.949 . S
C378 C377 1.428 1_556 S
C378 C379 1.345 . S
C379 H371 0.950 . S
C379 C378 1.345 . S
C379 C380 1.424 . S
C380 H372 0.953 . S
C380 C379 1.424 . S
C380 C381 1.347 1_655 S
C381 H373 0.951 . S
C381 C376 1.429 1_556 S
C381 C380 1.347 1_455 S
H382 C383 0.951 . S
C383 H382 0.951 . S
C383 C389 1.265 . S
H384 C389 0.950 . S
H385 C393 0.949 . S
H386 C394 0.950 . S
H387 C395 0.951 . S
H388 C396 0.951 . S
C389 C383 1.265 . S
C389 H384 0.950 . S
C389 C390 1.478 . S
C390 C389 1.478 . S
C390 C391 1.397 . S
C390 C407 1.394 . S
C391 C390 1.397 . S
C391 C392 1.438 1_565 S
C391 C396 1.429 . S
C392 C391 1.438 1_545 S
C392 C393 1.428 . S
C392 C405 1.394 . S
C393 H385 0.949 . S
C393 C392 1.428 . S
C393 C394 1.345 . S
C394 H386 0.950 . S
C394 C393 1.345 . S
C394 C395 1.424 . S
C395 H387 0.951 . S
C395 C394 1.424 . S
C395 C396 1.347 1_545 S
C396 H388 0.951 . S
C396 C391 1.429 . S
C396 C395 1.347 1_565 S
H397 C398 0.951 . S
C398 H397 0.951 . S
C398 C404 1.265 . S
H399 C404 0.950 . S
H400 C408 0.949 . S
H401 C409 0.950 . S
H402 C410 0.951 . S
H403 C411 0.951 . S
C404 C398 1.265 . S
C404 H399 0.950 . S
C404 C405 1.478 . S
C405 C392 1.394 . S
C405 C404 1.478 . S
C405 C406 1.397 . S
C406 C405 1.397 . S
C406 C407 1.438 1_545 S
C406 C411 1.429 . S
C407 C390 1.394 . S
C407 C406 1.438 1_565 S
C407 C408 1.428 . S
C408 H400 0.949 . S
C408 C407 1.428 . S
C408 C409 1.345 . S
C409 H401 0.950 . S
C409 C408 1.345 . S
C409 C410 1.424 . S
C410 H402 0.951 . S
C410 C409 1.424 . S
C410 C411 1.347 1_565 S
C411 H403 0.951 . S
C411 C406 1.429 . S
C411 C410 1.347 1_545 S
H412 C413 0.951 . S
C413 H412 0.951 . S
C413 C419 1.265 . S
H414 C419 0.950 . S
H415 C423 0.949 . S
H416 C424 0.950 . S
H417 C425 0.951 . S
H418 C426 0.951 . S
C419 C413 1.265 . S
C419 H414 0.950 . S
C419 C420 1.478 . S
C420 C419 1.478 . S
C420 C421 1.397 . S
C420 C437 1.394 . S
C421 C420 1.397 . S
C421 C422 1.438 1_455 S
C421 C426 1.429 . S
C422 C421 1.438 1_655 S
C422 C423 1.428 . S
C422 C435 1.394 . S
C423 H415 0.949 . S
C423 C422 1.428 . S
C423 C424 1.345 . S
C424 H416 0.950 . S
C424 C423 1.345 . S
C424 C425 1.424 1_655 S
C425 H417 0.951 . S
C425 C424 1.424 1_455 S
C425 C426 1.347 . S
C426 H418 0.951 . S
C426 C421 1.429 . S
C426 C425 1.347 . S
H427 C428 0.951 . S
C428 H427 0.951 . S
C428 C434 1.265 . S
H429 C434 0.950 . S
H430 C438 0.949 . S
H431 C439 0.950 . S
H432 C440 0.951 . S
H433 C441 0.951 . S
C434 C428 1.265 . S
C434 H429 0.950 . S
C434 C435 1.478 . S
C435 C422 1.394 . S
C435 C434 1.478 . S
C435 C436 1.397 . S
C436 C435 1.397 . S
C436 C437 1.438 1_655 S
C436 C441 1.429 . S
C437 C420 1.394 . S
C437 C436 1.438 1_455 S
C437 C438 1.428 . S
C438 H430 0.949 . S
C438 C437 1.428 . S
C438 C439 1.345 . S
C439 H431 0.950 . S
C439 C438 1.345 . S
C439 C440 1.424 1_455 S
C440 H432 0.951 . S
C440 C439 1.424 1_655 S
C440 C441 1.347 . S
C441 H433 0.951 . S
C441 C436 1.429 . S
C441 C440 1.347 . S
H442 C443 0.951 . S
C443 H442 0.951 . S
C443 C449 1.265 . S
H444 C449 0.950 . S
H445 C453 0.949 . S
H446 C454 0.950 . S
H447 C455 0.951 . S
H448 C456 0.951 . S
C449 C443 1.265 . S
C449 H444 0.950 . S
C449 C450 1.478 . S
C450 C449 1.478 . S
C450 C451 1.397 . S
C450 C467 1.394 1_554 S
C451 C450 1.397 . S
C451 C452 1.438 1_565 S
C451 C456 1.429 . S
C452 C451 1.438 1_545 S
C452 C453 1.428 . S
C452 C465 1.394 . S
C453 H445 0.949 . S
C453 C452 1.428 . S
C453 C454 1.345 . S
C454 H446 0.950 . S
C454 C453 1.345 . S
C454 C455 1.424 1_545 S
C455 H447 0.951 . S
C455 C454 1.424 1_565 S
C455 C456 1.347 . S
C456 H448 0.951 . S
C456 C451 1.429 . S
C456 C455 1.347 . S
H457 C458 0.951 . S
C458 H457 0.951 . S
C458 C464 1.265 . S
H459 C464 0.950 . S
H460 C468 0.949 . S
H461 C469 0.950 . S
H462 C470 0.951 . S
H463 C471 0.951 . S
C464 C458 1.265 . S
C464 H459 0.950 . S
C464 C465 1.478 . S
C465 C452 1.394 . S
C465 C464 1.478 . S
C465 C466 1.397 1_554 S
C466 C465 1.397 1_556 S
C466 C467 1.438 1_545 S
C466 C471 1.429 . S
C467 C450 1.394 1_556 S
C467 C466 1.438 1_565 S
C467 C468 1.428 . S
C468 H460 0.949 . S
C468 C467 1.428 . S
C468 C469 1.345 . S
C469 H461 0.950 . S
C469 C468 1.345 . S
C469 C470 1.424 1_565 S
C470 H462 0.951 . S
C470 C469 1.424 1_545 S
C470 C471 1.347 . S
C471 H463 0.951 . S
C471 C466 1.429 . S
C471 C470 1.347 . S
H472 C473 0.951 . S
C473 H472 0.951 . S
C473 C479 1.265 . S
H474 C479 0.950 . S
H475 C483 0.949 . S
H476 C484 0.950 . S
H477 C485 0.951 . S
H478 C486 0.951 . S
C479 C473 1.265 . S
C479 H474 0.950 . S
C479 C480 1.478 . S
C480 C479 1.478 . S
C480 C481 1.397 . S
C480 C497 1.394 . S
C481 C480 1.397 . S
C481 C482 1.438 . S
C481 C486 1.429 . S
C482 C481 1.438 . S
C482 C483 1.428 . S
C482 C495 1.394 . S
C483 H475 0.949 . S
C483 C482 1.428 . S
C483 C484 1.345 . S
C484 H476 0.950 . S
C484 C483 1.345 . S
C484 C485 1.424 . S
C485 H477 0.951 . S
C485 C484 1.424 . S
C485 C486 1.347 . S
C486 H478 0.951 . S
C486 C481 1.429 . S
C486 C485 1.347 . S
H487 C488 0.951 . S
C488 H487 0.951 . S
C488 C494 1.265 . S
H489 C494 0.950 . S
H490 C498 0.949 . S
H491 C499 0.950 . S
H492 C500 0.951 . S
H493 C501 0.951 . S
C494 C488 1.265 . S
C494 H489 0.950 . S
C494 C495 1.478 . S
C495 C482 1.394 . S
C495 C494 1.478 . S
C495 C496 1.397 . S
C496 C495 1.397 . S
C496 C497 1.438 . S
C496 C501 1.429 1_554 S
C497 C480 1.394 . S
C497 C496 1.438 . S
C497 C498 1.428 1_554 S
C498 H490 0.949 . S
C498 C497 1.428 1_556 S
C498 C499 1.345 . S
C499 H491 0.950 . S
C499 C498 1.345 . S
C499 C500 1.424 . S
C500 H492 0.951 . S
C500 C499 1.424 . S
C500 C501 1.347 . S
C501 H493 0.951 . S
C501 C496 1.429 1_556 S
C501 C500 1.347 . S
H502 C503 0.951 . S
C503 H502 0.951 . S
C503 C509 1.265 . S
H504 C509 0.950 . S
H505 C513 0.949 . S
H506 C514 0.950 . S
H507 C515 0.951 . S
H508 C516 0.951 . S
C509 C503 1.265 . S
C509 H504 0.950 . S
C509 C510 1.478 . S
C510 C509 1.478 . S
C510 C511 1.397 . S
C510 C527 1.394 . S
C511 C510 1.397 . S
C511 C512 1.438 . S
C511 C516 1.429 . S
C512 C511 1.438 . S
C512 C513 1.428 . S
C512 C525 1.394 . S
C513 H505 0.949 . S
C513 C512 1.428 . S
C513 C514 1.345 . S
C514 H506 0.950 . S
C514 C513 1.345 . S
C514 C515 1.424 . S
C515 H507 0.951 . S
C515 C514 1.424 . S
C515 C516 1.347 . S
C516 H508 0.951 . S
C516 C511 1.429 . S
C516 C515 1.347 . S
H517 C518 0.951 . S
C518 H517 0.951 . S
C518 C524 1.265 . S
H519 C524 0.950 . S
H520 C528 0.949 . S
H521 C529 0.950 . S
H522 C530 0.951 . S
H523 C531 0.951 . S
C524 C518 1.265 . S
C524 H519 0.950 . S
C524 C525 1.478 . S
C525 C512 1.394 . S
C525 C524 1.478 . S
C525 C526 1.397 . S
C526 C525 1.397 . S
C526 C527 1.438 . S
C526 C531 1.429 . S
C527 C510 1.394 . S
C527 C526 1.438 . S
C527 C528 1.428 . S
C528 H520 0.949 . S
C528 C527 1.428 . S
C528 C529 1.345 . S
C529 H521 0.950 . S
C529 C528 1.345 . S
C529 C530 1.424 . S
C530 H522 0.951 . S
C530 C529 1.424 . S
C530 C531 1.347 . S
C531 H523 0.951 . S
C531 C526 1.429 . S
C531 C530 1.347 . S
H532 C533 0.951 . S
C533 H532 0.951 . S
C533 C539 1.265 . S
H534 C539 0.950 . S
H535 C543 0.949 . S
H536 C544 0.950 . S
H537 C545 0.951 . S
H538 C546 0.951 . S
C539 C533 1.265 . S
C539 H534 0.950 . S
C539 C540 1.478 . S
C540 C539 1.478 . S
C540 C541 1.397 . S
C540 C557 1.394 . S
C541 C540 1.397 . S
C541 C542 1.438 . S
C541 C546 1.429 1_554 S
C542 C541 1.438 . S
C542 C543 1.428 1_554 S
C542 C555 1.394 . S
C543 H535 0.949 . S
C543 C542 1.428 1_556 S
C543 C544 1.345 . S
C544 H536 0.950 . S
C544 C543 1.345 . S
C544 C545 1.424 . S
C545 H537 0.951 . S
C545 C544 1.424 . S
C545 C546 1.347 . S
C546 H538 0.951 . S
C546 C541 1.429 1_556 S
C546 C545 1.347 . S
H547 C548 0.951 1_556 S
C548 H547 0.951 1_554 S
C548 C554 1.265 . S
H549 C554 0.950 . S
H550 C558 0.949 . S
H551 C559 0.950 . S
H552 C560 0.951 . S
H553 C561 0.951 . S
C554 C548 1.265 . S
C554 H549 0.950 . S
C554 C555 1.478 . S
C555 C542 1.394 . S
C555 C554 1.478 . S
C555 C556 1.397 . S
C556 C555 1.397 . S
C556 C557 1.438 . S
C556 C561 1.429 . S
C557 C540 1.394 . S
C557 C556 1.438 . S
C557 C558 1.428 . S
C558 H550 0.949 . S
C558 C557 1.428 . S
C558 C559 1.345 . S
C559 H551 0.950 . S
C559 C558 1.345 . S
C559 C560 1.424 . S
C560 H552 0.951 . S
C560 C559 1.424 . S
C560 C561 1.347 . S
C561 H553 0.951 . S
C561 C556 1.429 . S
C561 C560 1.347 . S
H562 C563 0.951 . S
C563 H562 0.951 . S
C563 C569 1.265 . S
H564 C569 0.950 . S
H565 C573 0.949 . S
H566 C574 0.950 . S
H567 C575 0.951 . S
H568 C576 0.951 . S
C569 C563 1.265 . S
C569 H564 0.950 . S
C569 C570 1.478 . S
C570 C569 1.478 . S
C570 C571 1.397 . S
C570 C587 1.394 . S
C571 C570 1.397 . S
C571 C572 1.438 . S
C571 C576 1.429 . S
C572 C571 1.438 . S
C572 C573 1.428 . S
C572 C585 1.394 . S
C573 H565 0.949 . S
C573 C572 1.428 . S
C573 C574 1.345 . S
C574 H566 0.950 . S
C574 C573 1.345 . S
C574 C575 1.424 . S
C575 H567 0.951 . S
C575 C574 1.424 . S
C575 C576 1.347 . S
C576 H568 0.951 . S
C576 C571 1.429 . S
C576 C575 1.347 . S
H577 C578 0.951 . S
C578 H577 0.951 . S
C578 C584 1.265 . S
H579 C584 0.950 . S
H580 C588 0.949 . S
H581 C589 0.950 . S
H582 C590 0.951 . S
H583 C591 0.951 . S
C584 C578 1.265 . S
C584 H579 0.950 . S
C584 C585 1.478 . S
C585 C572 1.394 . S
C585 C584 1.478 . S
C585 C586 1.397 . S
C586 C585 1.397 . S
C586 C587 1.438 . S
C586 C591 1.429 . S
C587 C570 1.394 . S
C587 C586 1.438 . S
C587 C588 1.428 . S
C588 H580 0.949 . S
C588 C587 1.428 . S
C588 C589 1.345 . S
C589 H581 0.950 . S
C589 C588 1.345 . S
C589 C590 1.424 . S
C590 H582 0.951 . S
C590 C589 1.424 . S
C590 C591 1.347 . S
C591 H583 0.951 . S
C591 C586 1.429 . S
C591 C590 1.347 . S
C113 C8 1.714 . S
C128 C64 1.724 . S
C143 C22 1.724 . S
C158 C78 1.726 . S
C173 C92 1.685 . S
C188 C36 1.702 . S
C203 C106 1.725 . S
C218 C50 1.726 . S
C233 C91 1.042 . S
C248 C35 1.016 . S
C263 C105 1.010 . S
C278 C49 1.008 . S
C293 C7 1.044 . S
C308 C63 1.017 . S
C323 C21 1.010 . S
C338 C77 1.008 . S
C353 C37 1.214 . S
C368 C9 1.218 . S
C383 C51 1.215 . S
C398 C23 1.216 . S
C413 C65 1.329 . S
C428 C93 1.328 . S
C443 C107 1.332 . S
C458 C79 1.324 . S
C473 C6 1.426 . S
C488 C76 1.464 . S
C503 C90 1.464 . S
C518 C20 1.426 . S
C533 C34 1.462 . S
C548 C104 1.434 . S
C563 C48 1.425 . S
C578 C62 1.463 . S
