# Generated by pormake.
# Topology wfe, (8)-cn, num edge types: 1
# Building blocks:
#     Node 0, Type 0, BuildingBlock: TAGTUT_clean_sbu_1, # of connection points: 8
#     Node 1, Type 0, BuildingBlock: TAGTUT_clean_sbu_1, # of connection points: 8
#     Node 2, Type 0, BuildingBlock: TAGTUT_clean_sbu_1, # of connection points: 8
#     Node 3, Type 0, BuildingBlock: TAGTUT_clean_sbu_1, # of connection points: 8
#     Node 4, Type 0, BuildingBlock: TAGTUT_clean_sbu_1, # of connection points: 8
#     Node 5, Type 0, BuildingBlock: TAGTUT_clean_sbu_1, # of connection points: 8
#     Node 6, Type 0, BuildingBlock: TAGTUT_clean_sbu_1, # of connection points: 8
#     Node 7, Type 0, BuildingBlock: TAGTUT_clean_sbu_1, # of connection points: 8
#     Edge 8, Type (0, 0), BuildingBlock: CIFDUS_clean_linker_0, # of connection points: 2
#     Edge 9, Type (0, 0), BuildingBlock: CIFDUS_clean_linker_0, # of connection points: 2
#     Edge 10, Type (0, 0), BuildingBlock: CIFDUS_clean_linker_0, # of connection points: 2
#     Edge 11, Type (0, 0), BuildingBlock: CIFDUS_clean_linker_0, # of connection points: 2
#     Edge 12, Type (0, 0), BuildingBlock: CIFDUS_clean_linker_0, # of connection points: 2
#     Edge 13, Type (0, 0), BuildingBlock: CIFDUS_clean_linker_0, # of connection points: 2
#     Edge 14, Type (0, 0), BuildingBlock: CIFDUS_clean_linker_0, # of connection points: 2
#     Edge 15, Type (0, 0), BuildingBlock: CIFDUS_clean_linker_0, # of connection points: 2
#     Edge 16, Type (0, 0), BuildingBlock: CIFDUS_clean_linker_0, # of connection points: 2
#     Edge 17, Type (0, 0), BuildingBlock: CIFDUS_clean_linker_0, # of connection points: 2
#     Edge 18, Type (0, 0), BuildingBlock: CIFDUS_clean_linker_0, # of connection points: 2
#     Edge 19, Type (0, 0), BuildingBlock: CIFDUS_clean_linker_0, # of connection points: 2
#     Edge 20, Type (0, 0), BuildingBlock: CIFDUS_clean_linker_0, # of connection points: 2
#     Edge 21, Type (0, 0), BuildingBlock: CIFDUS_clean_linker_0, # of connection points: 2
#     Edge 22, Type (0, 0), BuildingBlock: CIFDUS_clean_linker_0, # of connection points: 2
#     Edge 23, Type (0, 0), BuildingBlock: CIFDUS_clean_linker_0, # of connection points: 2
#     Edge 24, Type (0, 0), BuildingBlock: CIFDUS_clean_linker_0, # of connection points: 2
#     Edge 25, Type (0, 0), BuildingBlock: CIFDUS_clean_linker_0, # of connection points: 2
#     Edge 26, Type (0, 0), BuildingBlock: CIFDUS_clean_linker_0, # of connection points: 2
#     Edge 27, Type (0, 0), BuildingBlock: CIFDUS_clean_linker_0, # of connection points: 2
#     Edge 28, Type (0, 0), BuildingBlock: CIFDUS_clean_linker_0, # of connection points: 2
#     Edge 29, Type (0, 0), BuildingBlock: CIFDUS_clean_linker_0, # of connection points: 2
#     Edge 30, Type (0, 0), BuildingBlock: CIFDUS_clean_linker_0, # of connection points: 2
#     Edge 31, Type (0, 0), BuildingBlock: CIFDUS_clean_linker_0, # of connection points: 2
#     Edge 32, Type (0, 0), BuildingBlock: CIFDUS_clean_linker_0, # of connection points: 2
#     Edge 33, Type (0, 0), BuildingBlock: CIFDUS_clean_linker_0, # of connection points: 2
#     Edge 34, Type (0, 0), BuildingBlock: CIFDUS_clean_linker_0, # of connection points: 2
#     Edge 35, Type (0, 0), BuildingBlock: CIFDUS_clean_linker_0, # of connection points: 2
#     Edge 36, Type (0, 0), BuildingBlock: CIFDUS_clean_linker_0, # of connection points: 2
#     Edge 37, Type (0, 0), BuildingBlock: CIFDUS_clean_linker_0, # of connection points: 2
#     Edge 38, Type (0, 0), BuildingBlock: CIFDUS_clean_linker_0, # of connection points: 2
#     Edge 39, Type (0, 0), BuildingBlock: CIFDUS_clean_linker_0, # of connection points: 2
# Relax obj value: 0.281
# Max RMSD: 0.307
# Mean RMSD: 0.307
data_MOF--net-wfe--node1-TAGTUT_clean_sbu_1--edge1-CIFDUS_clean_linker_0
_symmetry_space_group_name_H-M    P1
_symmetry_Int_Tables_number       1
_symmetry_cell_setting            triclinic
loop_
_symmetry_equiv_pos_as_xyz
'x, y, z'
_cell_length_a     33.645518
_cell_length_b     33.640011
_cell_length_c     21.493663
_cell_angle_alpha  90.088868
_cell_angle_beta   89.830589
_cell_angle_gamma 90.238625
loop_
_atom_site_label
_atom_site_type_symbol
_atom_site_fract_x
_atom_site_fract_y
_atom_site_fract_z
_atom_type_partial_charge
C0 C 0.51381 0.39534 0.08905 0.0
C1 C 0.45324 0.3366 0.23083 0.0
C2 C 0.61141 0.31313 0.32178 0.0
Mg3 Mg 0.49648 0.30632 0.10934 0.0
O4 O 0.54108 0.31032 0.16067 0.0
Mg5 Mg 0.5519 0.35465 0.21989 0.0
Mg6 Mg 0.56397 0.26599 0.20649 0.0
O7 O 0.5884 0.22079 0.25056 0.0
Mg8 Mg 0.64225 0.23085 0.26329 0.0
Mg9 Mg 0.57783 0.17614 0.18754 0.0
C10 C 0.54088 0.22576 0.06481 0.0
C11 C 0.49294 0.2056 0.24737 0.0
O12 O 0.52986 0.39676 0.14308 0.0
O13 O 0.50155 0.36287 0.06453 0.0
O14 O 0.48671 0.34932 0.25191 0.0
O15 O 0.45011 0.31731 0.17921 0.0
O16 O 0.51664 0.25411 0.05133 0.0
O17 O 0.55505 0.22359 0.12024 0.0
C18 C 0.63016 0.32613 0.15038 0.0
O19 O 0.62039 0.2902 0.16314 0.0
O20 O 0.61276 0.35563 0.17615 0.0
O21 O 0.60312 0.1367 0.26682 0.0
O22 O 0.6511 0.17534 0.30921 0.0
O23 O 0.63853 0.1769 0.13756 0.0
C24 C 0.6311 0.14281 0.30652 0.0
O25 O 0.66911 0.23073 0.17341 0.0
O26 O 0.63909 0.28715 0.31567 0.0
C27 C 0.665 0.20372 0.13228 0.0
O28 O 0.57782 0.30921 0.29214 0.0
O29 O 0.50401 0.24215 0.2452 0.0
O30 O 0.5156 0.17711 0.22997 0.0
C31 C 0.61764 0.01736 0.58019 0.0
C32 C 0.67323 0.94899 0.71735 0.0
C33 C 0.68396 0.10635 0.83308 0.0
Mg34 Mg 0.70663 1.00191 0.60526 0.0
O35 O 0.70036 0.03906 0.66991 0.0
Mg36 Mg 0.65161 0.04692 0.72142 0.0
Mg37 Mg 0.74036 0.06436 0.723 0.0
O38 O 0.78084 0.092 0.77453 0.0
Mg39 Mg 0.76683 0.14494 0.78884 0.0
Mg40 Mg 0.82905 0.08586 0.71746 0.0
C41 C 0.79034 0.04999 0.5859 0.0
C42 C 0.80374 0.99845 0.77255 0.0
O43 O 0.61459 0.02779 0.63728 0.0
O44 O 0.65129 0.00978 0.55482 0.0
O45 O 0.65889 0.9801 0.74438 0.0
O46 O 0.693 0.9504 0.66573 0.0
O47 O 0.7631 0.02801 0.56075 0.0
O48 O 0.78793 0.05873 0.64407 0.0
C49 C 0.68021 0.12252 0.65494 0.0
O50 O 0.71513 0.12003 0.67811 0.0
O51 O 0.65038 0.10958 0.68575 0.0
O52 O 0.86289 0.1156 0.79933 0.0
O53 O 0.81863 0.15862 0.84038 0.0
O54 O 0.82401 0.14514 0.66509 0.0
C55 C 0.85307 0.14254 0.83902 0.0
O56 O 0.76929 0.17399 0.7019 0.0
O57 O 0.70861 0.13564 0.83215 0.0
C58 C 0.79634 0.17059 0.66083 0.0
O59 O 0.69124 0.07342 0.80268 0.0
O60 O 0.76674 0.00589 0.76332 0.0
O61 O 0.83122 0.02394 0.76092 0.0
C62 C 0.97804 0.1069 0.09362 0.0
C63 C 0.05397 0.17001 0.20952 0.0
C64 C 0.92036 0.1932 0.36293 0.0
Mg65 Mg 0.99373 0.19683 0.10842 0.0
O66 O 0.95474 0.19164 0.16991 0.0
Mg67 Mg 0.9561 0.14821 0.23363 0.0
Mg68 Mg 0.94147 0.23746 0.22294 0.0
O69 O 0.93038 0.28396 0.27504 0.0
Mg70 Mg 0.89565 0.28275 0.34228 0.0
Mg71 Mg 0.92199 0.32503 0.20735 0.0
C72 C 0.94466 0.27658 0.07634 0.0
C73 C 0.01554 0.30153 0.21708 0.0
O74 O 0.9678 0.1053 0.15121 0.0
O75 O 0.9865 0.13962 0.06613 0.0
O76 O 0.02486 0.15463 0.24026 0.0
O77 O 0.04869 0.19057 0.15998 0.0
O78 O 0.96967 0.24971 0.05913 0.0
O79 O 0.93142 0.27656 0.13296 0.0
C80 C 0.87265 0.17846 0.19344 0.0
O81 O 0.87877 0.21241 0.21883 0.0
O82 O 0.88941 0.14768 0.21648 0.0
O83 O 0.91621 0.37248 0.28751 0.0
O84 O 0.91043 0.3387 0.3778 0.0
O85 O 0.8551 0.30983 0.2063 0.0
C86 C 0.9157 0.37088 0.34726 0.0
O87 O 0.83973 0.28416 0.29922 0.0
O88 O 0.90467 0.22488 0.38506 0.0
C89 C 0.83081 0.29231 0.24322 0.0
O90 O 0.94251 0.19461 0.31264 0.0
O91 O 0.00622 0.2646 0.22557 0.0
O92 O 0.98927 0.32867 0.20911 0.0
C93 C 0.89111 0.50141 0.5996 0.0
C94 C 0.82199 0.56254 0.72896 0.0
C95 C 0.81361 0.39693 0.82608 0.0
Mg96 Mg 0.80027 0.51015 0.61229 0.0
O97 O 0.80579 0.47026 0.6718 0.0
Mg98 Mg 0.85028 0.46545 0.73241 0.0
Mg99 Mg 0.76415 0.43911 0.71148 0.0
O100 O 0.7224 0.40507 0.74897 0.0
Mg101 Mg 0.74307 0.35341 0.74914 0.0
Mg102 Mg 0.67859 0.41046 0.68371 0.0
C103 C 0.72577 0.45688 0.5657 0.0
C104 C 0.69148 0.49735 0.75077 0.0
O105 O 0.89246 0.48953 0.65624 0.0
O106 O 0.85834 0.50797 0.5715 0.0
O107 O 0.83651 0.53182 0.75675 0.0
O108 O 0.80435 0.56031 0.67593 0.0
O109 O 0.75215 0.48357 0.55282 0.0
O110 O 0.72315 0.44355 0.62171 0.0
C111 C 0.83711 0.38934 0.65726 0.0
O112 O 0.79994 0.38857 0.66961 0.0
O113 O 0.86124 0.40383 0.69685 0.0
O114 O 0.64516 0.37343 0.75933 0.0
O115 O 0.69077 0.32774 0.78738 0.0
O116 O 0.69062 0.35535 0.62429 0.0
C117 C 0.65615 0.34312 0.79162 0.0
O118 O 0.74991 0.33504 0.65427 0.0
O119 O 0.79456 0.3654 0.80947 0.0
C120 C 0.72344 0.3384 0.61253 0.0
O121 O 0.80571 0.43165 0.80153 0.0
O122 O 0.72932 0.49287 0.74984 0.0
O123 O 0.66756 0.47018 0.73177 0.0
C124 C 0.36758 0.86288 0.73519 0.0
C125 C 0.34121 0.81249 0.92301 0.0
C126 C 0.46273 0.78439 0.97635 0.0
Mg127 Mg 0.3544 0.77892 0.79172 0.0
O128 O 0.40925 0.78725 0.79492 0.0
Mg129 Mg 0.42459 0.83365 0.85209 0.0
Mg130 Mg 0.43503 0.74256 0.83834 0.0
O131 O 0.45885 0.69866 0.88416 0.0
Mg132 Mg 0.50496 0.7028 0.93192 0.0
Mg133 Mg 0.44531 0.65344 0.82819 0.0
C134 C 0.37994 0.69369 0.73466 0.0
C135 C 0.36968 0.68461 0.90228 0.0
O136 O 0.39707 0.8699 0.77163 0.0
O137 O 0.34546 0.83188 0.73942 0.0
O138 O 0.36755 0.83805 0.90946 0.0
O139 O 0.33288 0.78411 0.88575 0.0
O140 O 0.35363 0.72066 0.7446 0.0
O141 O 0.41574 0.69726 0.7575 0.0
C142 C 0.50564 0.80048 0.78532 0.0
O143 O 0.49431 0.76416 0.79165 0.0
O144 O 0.48407 0.82963 0.80283 0.0
O145 O 0.4704 0.61246 0.90385 0.0
O146 O 0.50181 0.64675 0.97891 0.0
O147 O 0.50941 0.65797 0.78987 0.0
C148 C 0.48863 0.61414 0.95608 0.0
O149 O 0.54837 0.69121 0.85823 0.0
O150 O 0.48625 0.75542 0.98952 0.0
C151 C 0.54357 0.67103 0.80778 0.0
O152 O 0.44883 0.78725 0.92076 0.0
O153 O 0.38006 0.72029 0.88858 0.0
O154 O 0.38644 0.65433 0.87767 0.0
C155 C 0.15353 0.8568 0.23511 0.0
C156 C 0.22374 0.83613 0.41132 0.0
C157 C 0.23034 0.95449 0.47615 0.0
Mg158 Mg 0.24261 0.85671 0.27539 0.0
O159 O 0.22706 0.90927 0.28853 0.0
Mg160 Mg 0.18256 0.91373 0.35381 0.0
Mg161 Mg 0.2702 0.93975 0.33084 0.0
O162 O 0.31281 0.96781 0.37426 0.0
Mg163 Mg 0.30621 0.00851 0.43268 0.0
Mg164 Mg 0.35631 0.96484 0.31077 0.0
C165 C 0.31933 0.89959 0.21316 0.0
C166 C 0.34291 0.88285 0.37648 0.0
O167 O 0.14504 0.88367 0.27577 0.0
O168 O 0.18786 0.84046 0.23153 0.0
O169 O 0.19156 0.85517 0.40523 0.0
O170 O 0.24901 0.83368 0.36734 0.0
O171 O 0.29706 0.86883 0.22137 0.0
O172 O 0.31212 0.9331 0.24185 0.0
C173 C 0.19941 0.00264 0.29833 0.0
O174 O 0.23717 0.99704 0.29868 0.0
O175 O 0.17471 0.97529 0.31356 0.0
O176 O 0.39907 0.98957 0.38581 0.0
O177 O 0.36527 0.00797 0.4714 0.0
O178 O 0.34044 0.02967 0.28671 0.0
C179 C 0.39801 1.00189 0.44232 0.0
O180 O 0.30858 0.05868 0.3677 0.0
O181 O 0.25702 0.98058 0.49098 0.0
C182 C 0.32488 0.06019 0.31341 0.0
O183 O 0.22858 0.94194 0.41961 0.0
O184 O 0.30521 0.88729 0.36997 0.0
O185 O 0.36793 0.90342 0.34548 0.0
C186 C 0.12512 0.6351 0.722 0.0
C187 C 0.18196 0.71433 0.85798 0.0
C188 C 0.0555 0.72147 0.97252 0.0
Mg189 Mg 0.13653 0.7259 0.73663 0.0
O190 O 0.08827 0.71907 0.77854 0.0
Mg191 Mg 0.08962 0.67805 0.84855 0.0
Mg192 Mg 0.06782 0.7642 0.82898 0.0
O193 O 0.04757 0.80758 0.88097 0.0
Mg194 Mg 0.00685 0.80105 0.94034 0.0
Mg195 Mg 0.05165 0.8528 0.82118 0.0
C196 C 0.10143 0.811 0.69927 0.0
C197 C 0.13049 0.82439 0.87953 0.0
O198 O 0.10756 0.63262 0.77461 0.0
O199 O 0.13827 0.66776 0.69903 0.0
O200 O 0.15464 0.69114 0.8777 0.0
O201 O 0.18004 0.73121 0.80531 0.0
O202 O 0.12561 0.78218 0.68955 0.0
O203 O 0.07324 0.8084 0.74151 0.0
C204 C 0.99727 0.69777 0.81577 0.0
O205 O 0.00519 0.73523 0.81098 0.0
O206 O 0.02422 0.67186 0.82681 0.0
O207 O 0.03293 0.8931 0.90346 0.0
O208 O 0.0125 0.85743 0.98617 0.0
O209 O 0.98471 0.84469 0.80122 0.0
C210 C 0.0208 0.89063 0.96005 0.0
O211 O 0.95518 0.81078 0.87969 0.0
O212 O 0.03 0.74711 0.9925 0.0
C213 C 0.95366 0.83011 0.828 0.0
O214 O 0.06923 0.72458 0.91683 0.0
O215 O 0.12773 0.79088 0.8516 0.0
O216 O 0.11564 0.85528 0.85404 0.0
C217 C 0.3383 0.66508 0.25992 0.0
C218 C 0.26872 0.66339 0.43981 0.0
C219 C 0.27435 0.54957 0.48213 0.0
Mg220 Mg 0.25182 0.65239 0.30173 0.0
O221 O 0.27215 0.60104 0.30008 0.0
Mg222 Mg 0.31672 0.59592 0.36441 0.0
Mg223 Mg 0.23163 0.5652 0.33834 0.0
O224 O 0.1922 0.5324 0.37936 0.0
Mg225 Mg 0.20019 0.49418 0.44169 0.0
Mg226 Mg 0.14728 0.53475 0.31887 0.0
C227 C 0.17959 0.60786 0.23039 0.0
C228 C 0.15477 0.61421 0.38822 0.0
O229 O 0.34957 0.63462 0.2914 0.0
O230 O 0.30345 0.67989 0.26426 0.0
O231 O 0.30298 0.64951 0.42787 0.0
O232 O 0.24301 0.66698 0.3971 0.0
O233 O 0.19964 0.63901 0.24567 0.0
O234 O 0.1886 0.57257 0.25174 0.0
C235 C 0.30559 0.50999 0.29362 0.0
O236 O 0.2677 0.51351 0.29632 0.0
O237 O 0.32917 0.5373 0.31326 0.0
O238 O 0.10701 0.50923 0.39633 0.0
O239 O 0.142 0.49548 0.48258 0.0
O240 O 0.16557 0.46979 0.29534 0.0
C241 C 0.10895 0.49963 0.45401 0.0
O242 O 0.19714 0.44295 0.37825 0.0
O243 O 0.24899 0.52314 0.50037 0.0
C244 C 0.18095 0.43989 0.32403 0.0
O245 O 0.27388 0.56102 0.4252 0.0
O246 O 0.19279 0.6123 0.38411 0.0
O247 O 0.13234 0.59523 0.35112 0.0
H248 H 0.69791 0.11977 0.36394 0.0
H249 H 0.57024 0.11301 0.37543 0.0
H250 H 0.574 0.10516 0.48829 0.0
H251 H 0.61323 0.11484 0.58398 0.0
H252 H 0.74138 0.11783 0.57083 0.0
H253 H 0.73751 0.11501 0.45837 0.0
C254 C 0.67106 0.11468 0.39097 0.0
C255 C 0.63394 0.11764 0.36196 0.0
C256 C 0.67338 0.11199 0.45576 0.0
C257 C 0.59924 0.11074 0.39692 0.0
C258 C 0.60133 0.1073 0.46165 0.0
C259 C 0.64038 0.11462 0.55666 0.0
C260 C 0.67747 0.11914 0.58613 0.0
C261 C 0.63817 0.11053 0.49172 0.0
C262 C 0.71227 0.11666 0.54972 0.0
C263 C 0.71025 0.11413 0.48525 0.0
H264 H 0.86067 0.20971 0.90589 0.0
H265 H 0.8951 0.08641 0.9005 0.0
H266 H 0.90194 0.08604 1.01332 0.0
H267 H 0.88785 0.1176 0.1131 0.0
H268 H 0.85412 0.24132 0.11872 0.0
H269 H 0.85513 0.24403 1.00579 0.0
C270 C 0.87144 0.18331 0.92935 0.0
C271 C 0.87669 0.148 0.89548 0.0
C272 C 0.87341 0.18279 0.99421 0.0
C273 C 0.891 0.11402 0.92572 0.0
C274 C 0.89403 0.11354 0.99038 0.0
C275 C 0.88077 0.14527 0.08993 0.0
C276 C 0.86987 0.17899 0.12477 0.0
C277 C 0.88326 0.14715 1.02508 0.0
C278 C 0.86116 0.21453 0.09336 0.0
C279 C 0.86263 0.21639 0.02872 0.0
H280 H 0.85228 0.41527 0.36978 0.0
H281 H 0.97603 0.4046 0.4141 0.0
H282 H 0.96099 0.41017 0.52503 0.0
H283 H 0.91108 0.39827 0.60732 0.0
H284 H 0.78643 0.39921 0.55931 0.0
H285 H 0.80303 0.41411 0.4521 0.0
C286 C 0.87607 0.41659 0.40378 0.0
C287 C 0.91465 0.40684 0.385 0.0
C288 C 0.86651 0.41461 0.46707 0.0
C289 C 0.94567 0.41049 0.42824 0.0
C290 C 0.93693 0.41206 0.49178 0.0
C291 C 0.88752 0.40181 0.57345 0.0
C292 C 0.84761 0.39637 0.59132 0.0
C293 C 0.89717 0.41047 0.51145 0.0
C294 C 0.81748 0.40219 0.54696 0.0
C295 C 0.82681 0.41147 0.48564 0.0
H296 H 0.62936 0.27462 0.05404 0.0
H297 H 0.66105 0.39522 0.10304 0.0
H298 H 0.66189 0.41324 0.99286 0.0
H299 H 0.65164 0.39494 0.88352 0.0
H300 H 0.62642 0.27317 0.83496 0.0
H301 H 0.62399 0.2555 0.94546 0.0
C302 C 0.63803 0.30456 0.04099 0.0
C303 C 0.6456 0.33344 0.08707 0.0
C304 C 0.63734 0.31489 0.97805 0.0
C305 C 0.65567 0.37227 0.06861 0.0
C306 C 0.65527 0.38278 1.00575 0.0
C307 C 0.64352 0.36496 0.89739 0.0
C308 C 0.63729 0.33569 0.85165 0.0
C309 C 0.64492 0.35457 0.96038 0.0
C310 C 0.62927 0.29643 0.86964 0.0
C311 C 0.62875 0.28622 0.93254 0.0
H312 H 0.40478 0.83206 0.63921 0.0
H313 H 0.32969 0.9297 0.69346 0.0
H314 H 0.31855 0.94588 0.58332 0.0
H315 H 0.32299 0.92603 0.47433 0.0
H316 H 0.39309 0.82479 0.4196 0.0
H317 H 0.41309 0.81507 0.52868 0.0
C318 C 0.38687 0.85757 0.62653 0.0
C319 C 0.36851 0.8803 0.67332 0.0
C320 C 0.37876 0.8648 0.56396 0.0
C321 C 0.34458 0.9126 0.65764 0.0
C322 C 0.3378 0.92128 0.59505 0.0
C323 C 0.34271 0.90187 0.48635 0.0
C324 C 0.35572 0.87522 0.44012 0.0
C325 C 0.35348 0.89657 0.54826 0.0
C326 C 0.38205 0.84473 0.45523 0.0
C327 C 0.39354 0.83948 0.51717 0.0
H328 H 0.14228 0.79043 0.16671 0.0
H329 H 0.112 0.91467 0.17598 0.0
H330 H 0.10137 0.91583 0.06365 0.0
H331 H 0.1139 0.88467 0.96163 0.0
H332 H 0.14077 0.75935 0.954 0.0
H333 H 0.14132 0.75601 0.06641 0.0
C334 C 0.13172 0.81732 0.14442 0.0
C335 C 0.12867 0.85251 0.17923 0.0
C336 C 0.12734 0.81819 0.07968 0.0
C337 C 0.11454 0.8871 0.15018 0.0
C338 C 0.10937 0.88803 0.08565 0.0
C339 C 0.11984 0.85658 0.98438 0.0
C340 C 0.12972 0.82283 0.94873 0.0
C341 C 0.11814 0.85434 0.04964 0.0
C342 C 0.13565 0.78645 0.97962 0.0
C343 C 0.13504 0.78422 0.04424 0.0
H344 H 0.06697 0.62667 0.6423 0.0
H345 H 0.17695 0.57438 0.7016 0.0
H346 H 0.1936 0.55811 0.59372 0.0
H347 H 0.18673 0.57857 0.48611 0.0
H348 H 0.08461 0.64575 0.42754 0.0
H349 H 0.05569 0.6394 0.53214 0.0
C350 C 0.09359 0.60984 0.63132 0.0
C351 C 0.1214 0.60263 0.6783 0.0
C352 C 0.10575 0.60686 0.56957 0.0
C353 C 0.15548 0.58041 0.66537 0.0
C354 C 0.16555 0.57247 0.60376 0.0
C355 C 0.1584 0.59238 0.49645 0.0
C356 C 0.13889 0.61507 0.45115 0.0
C357 C 0.1428 0.58922 0.55602 0.0
C358 C 0.10104 0.63043 0.46347 0.0
C359 C 0.0843 0.62602 0.52249 0.0
H360 H 0.33494 0.61578 0.16545 0.0
H361 H 0.37532 0.73249 0.21941 0.0
H362 H 0.38251 0.75079 0.10947 0.0
H363 H 0.37811 0.73325 1.00007 0.0
H364 H 0.32927 0.61957 0.94563 0.0
H365 H 0.32385 0.60045 0.05525 0.0
C366 C 0.34711 0.64464 0.15288 0.0
C367 C 0.35675 0.67217 0.19975 0.0
C368 C 0.34838 0.65578 0.09034 0.0
C369 C 0.36992 0.71033 0.18374 0.0
C370 C 0.37331 0.72095 0.12123 0.0
C371 C 0.3646 0.70489 1.01188 0.0
C372 C 0.35314 0.6782 0.96473 0.0
C373 C 0.36208 0.69409 0.0744 0.0
C374 C 0.33736 0.64096 0.98119 0.0
C375 C 0.33505 0.62977 0.04364 0.0
H376 H 0.52911 0.47004 0.1304 0.0
H377 H 0.48557 0.40482 0.97093 0.0
H378 H 0.47364 0.46706 0.91635 0.0
H379 H 0.47482 0.53945 0.91439 0.0
H380 H 0.51832 0.6049 0.07357 0.0
H381 H 0.53089 0.54262 0.12801 0.0
C382 C 0.51718 0.46933 0.08361 0.0
C383 C 0.50819 0.43282 0.05488 0.0
C384 C 0.51018 0.50513 0.05261 0.0
C385 C 0.49268 0.43252 0.99424 0.0
C386 C 0.48578 0.46807 0.96297 0.0
C387 C 0.4869 0.54022 0.96109 0.0
C388 C 0.49549 0.57677 0.98993 0.0
C389 C 0.49422 0.50447 0.99191 0.0
C390 C 0.51143 0.57714 0.05029 0.0
C391 C 0.51866 0.54158 0.08145 0.0
H392 H 0.5427 0.0286 0.62229 0.0
H393 H 0.60883 1.00009 0.45565 0.0
H394 H 0.54652 0.99398 0.39771 0.0
H395 H 0.47329 0.99488 0.39571 0.0
H396 H 0.40838 0.02282 0.56397 0.0
H397 H 0.47065 0.03102 0.61994 0.0
C398 C 0.54375 0.02108 0.57325 0.0
C399 C 0.58051 0.0145 0.54354 0.0
C400 C 0.50804 0.01743 0.54055 0.0
C401 C 0.58099 0.00498 0.47986 0.0
C402 C 0.54537 1.00154 0.4467 0.0
C403 C 0.4727 0.00286 0.44458 0.0
C404 C 0.43605 0.00812 0.47551 0.0
C405 C 0.50871 0.00737 0.47679 0.0
C406 C 0.43601 0.01858 0.53884 0.0
C407 C 0.47163 0.02324 0.57101 0.0
H408 H 0.98182 0.0324 0.14134 0.0
H409 H 0.98735 0.09738 0.96827 0.0
H410 H 1.00213 0.03613 0.91223 0.0
H411 H 0.01481 0.96477 0.91262 0.0
H412 H 0.00993 0.89956 0.08544 0.0
H413 H 0.99407 0.96069 0.14158 0.0
C414 C 0.98587 0.03315 0.09128 0.0
C415 C 0.98344 0.0694 0.05906 0.0
C416 C 0.99499 0.99799 0.05947 0.0
C417 C 0.98915 0.06988 0.99425 0.0
C418 C 0.99771 0.03491 0.96216 0.0
C419 C 0.0106 0.9639 0.96265 0.0
C420 C 0.01366 0.92772 0.99483 0.0
C421 C 1.00114 0.99893 0.99442 0.0
C422 C 0.00766 0.92707 0.05956 0.0
C423 C 0.99852 0.96195 0.09166 0.0
H424 H 0.96578 0.48831 0.64238 0.0
H425 H 0.90084 0.52091 0.47705 0.0
H426 H 0.96248 0.52177 0.41727 0.0
H427 H 0.03428 0.51276 0.41169 0.0
H428 H 0.09952 0.48097 0.5771 0.0
H429 H 0.03784 0.47998 0.63701 0.0
C430 C 0.96504 0.49589 0.59336 0.0
C431 C 0.9287 0.50466 0.56437 0.0
C432 C 1.0005 0.49613 0.55915 0.0
C433 C 0.92839 0.51431 0.50074 0.0
C434 C 0.9636 0.51462 0.4664 0.0
C435 C 0.03512 0.50535 0.46078 0.0
C436 C 0.0715 0.49666 0.48969 0.0
C437 C 0.99973 0.50536 0.49508 0.0
C438 C 0.07193 0.48748 0.55348 0.0
C439 C 0.0367 0.48709 0.58786 0.0
H440 H 0.72439 0.15297 0.14956 0.0
H441 H 0.68836 0.2399 1.01808 0.0
H442 H 0.7442 0.2835 0.04771 0.0
H443 H 0.78966 0.30383 0.13455 0.0
H444 H 0.80495 0.22184 0.28768 0.0
H445 H 0.76872 0.17112 0.23243 0.0
C446 C 0.72992 0.18101 0.12596 0.0
C447 C 0.6992 0.19742 0.09118 0.0
C448 C 0.75664 0.20802 0.15247 0.0
C449 C 0.70892 0.23009 0.05334 0.0
C450 C 0.74012 0.25532 0.07129 0.0
C451 C 0.78431 0.27518 0.15613 0.0
C452 C 0.79988 0.26702 0.21531 0.0
C453 C 0.76133 0.24628 0.12561 0.0
C454 C 0.79278 0.22952 0.24267 0.0
C455 C 0.77296 0.19983 0.21046 0.0
H456 H 0.79043 0.32681 0.54385 0.0
H457 H 0.66677 0.29533 0.55023 0.0
H458 H 0.68366 0.22539 0.54172 0.0
H459 H 0.73059 0.18458 0.59858 0.0
H460 H 0.85495 0.21396 0.60313 0.0
H461 H 0.84143 0.27519 0.54542 0.0
C462 C 0.76721 0.30474 0.53882 0.0
C463 C 0.72807 0.31468 0.55559 0.0
C464 C 0.7778 0.26471 0.54092 0.0
C465 C 0.69762 0.2874 0.54288 0.0
C466 C 0.70737 0.24727 0.53928 0.0
C467 C 0.75531 0.20188 0.58132 0.0
C468 C 0.79331 0.19549 0.60552 0.0
C469 C 0.74713 0.2363 0.5485 0.0
C470 C 0.82521 0.21926 0.58593 0.0
C471 C 0.81744 0.25409 0.55279 0.0
H472 H 0.3201 0.76852 0.03047 0.0
H473 H 0.29326 0.87763 0.94087 0.0
H474 H 0.22897 0.85168 0.90743 0.0
H475 H 0.20179 0.79033 0.86377 0.0
H476 H 0.22327 0.67787 0.95356 0.0
H477 H 0.27346 0.71026 1.02051 0.0
C478 C 0.29944 0.78628 1.00437 0.0
C479 C 0.31329 0.82068 0.97418 0.0
C480 C 0.26462 0.76892 0.98105 0.0
C481 C 0.28449 0.84811 0.95579 0.0
C482 C 0.2483 0.83294 0.93487 0.0
C483 C 0.21569 0.77291 0.89982 0.0
C484 C 0.20991 0.73165 0.90262 0.0
C485 C 0.24121 0.79191 0.94046 0.0
C486 C 0.22857 0.70954 0.94942 0.0
C487 C 0.25651 0.72811 0.98824 0.0
H488 H 0.17608 0.7872 0.48014 0.0
H489 H 0.291 0.84178 0.47644 0.0
H490 H 0.32087 0.78429 0.52597 0.0
H491 H 0.31568 0.71202 0.50999 0.0
H492 H 0.201 0.65692 0.50905 0.0
H493 H 0.1687 0.72013 0.52705 0.0
C494 C 0.20706 0.78739 0.49402 0.0
C495 C 0.23281 0.81628 0.47009 0.0
C496 C 0.2238 0.75345 0.52091 0.0
C497 C 0.27212 0.81784 0.49092 0.0
C498 C 0.28895 0.78502 0.51947 0.0
C499 C 0.28391 0.71353 0.51863 0.0
C500 C 0.25973 0.68183 0.50027 0.0
C501 C 0.26587 0.75071 0.52561 0.0
C502 C 0.21945 0.6825 0.51752 0.0
C503 C 0.2009 0.71892 0.52692 0.0
H504 H 0.58214 0.15314 0.07001 0.0
H505 H 0.53551 0.23819 0.93964 0.0
H506 H 0.57065 0.20539 0.85501 0.0
H507 H 0.62267 0.15859 0.81899 0.0
H508 H 0.66934 0.07242 0.94672 0.0
H509 H 0.62735 0.09953 0.03014 0.0
C510 C 0.57969 0.16461 1.02323 0.0
C511 C 0.5567 0.19932 1.01272 0.0
C512 C 0.60047 0.1453 0.97356 0.0
C513 C 0.55274 0.212 0.95047 0.0
C514 C 0.57322 0.19324 0.90149 0.0
C515 C 0.62237 0.1445 0.86435 0.0
C516 C 0.64862 0.11244 0.8754 0.0
C517 C 0.59819 0.16064 0.91256 0.0
C518 C 0.64865 0.09594 0.93561 0.0
C519 C 0.62498 0.11203 0.98388 0.0
H520 H 0.7917 0.06889 0.45991 0.0
H521 H 0.86517 0.07358 0.62339 0.0
H522 H 0.91411 0.114 0.56792 0.0
H523 H 0.93378 0.15445 0.47503 0.0
H524 H 0.85699 0.15373 0.31596 0.0
H525 H 0.81349 0.10554 0.3654 0.0
C526 C 0.81862 0.07822 0.48336 0.0
C527 C 0.82361 0.06852 0.54707 0.0
C528 C 0.84708 0.10209 0.45076 0.0
C529 C 0.8593 0.0811 0.57546 0.0
C530 C 0.88774 0.10426 0.54332 0.0
C531 C 0.90863 0.14224 0.44993 0.0
C532 C 0.90149 0.15542 0.38818 0.0
C533 C 0.88173 0.11581 0.48116 0.0
C534 C 0.8665 0.14127 0.35952 0.0
C535 C 0.84038 0.11455 0.38934 0.0
H536 H 0.88314 0.35551 0.82443 0.0
H537 H 0.80527 0.41831 0.94887 0.0
H538 H 0.8387 0.38818 0.03869 0.0
H539 H 0.88643 0.33748 0.08226 0.0
H540 H 0.96509 0.27763 0.95375 0.0
H541 H 0.93558 0.31269 0.86739 0.0
C542 C 0.87455 0.36406 0.87124 0.0
C543 C 0.84236 0.39057 0.87908 0.0
C544 C 0.89378 0.34611 0.92295 0.0
C545 C 0.83082 0.39951 0.94068 0.0
C546 C 0.84962 0.38154 0.99237 0.0
C547 C 0.89774 0.33264 0.03562 0.0
C548 C 0.92843 0.30418 1.02605 0.0
C549 C 0.88064 0.35383 0.98431 0.0
C550 C 0.94185 0.29881 0.96421 0.0
C551 C 0.92482 0.31902 0.91393 0.0
H552 H 0.65366 0.41313 0.56568 0.0
H553 H 0.74523 0.45756 0.44294 0.0
H554 H 0.71692 0.42025 0.35685 0.0
H555 H 0.66969 0.36993 0.31642 0.0
H556 H 0.57522 0.3276 0.43445 0.0
H557 H 0.60063 0.36849 0.52069 0.0
C558 C 0.66738 0.41482 0.52014 0.0
C559 C 0.7026 0.4379 0.51238 0.0
C560 C 0.65017 0.39343 0.46909 0.0
C561 C 0.71868 0.44014 0.45175 0.0
C562 C 0.70243 0.41856 0.40187 0.0
C563 C 0.65377 0.37066 0.36036 0.0
C564 C 0.61976 0.34616 0.3678 0.0
C565 C 0.6686 0.39452 0.40996 0.0
C566 C 0.60054 0.34688 0.42614 0.0
C567 C 0.61553 0.36999 0.47601 0.0
H568 H 0.42323 0.85829 0.97406 0.0
H569 H 0.46815 0.77026 0.10087 0.0
H570 H 0.43279 0.8016 0.18642 0.0
H571 H 0.38024 0.84701 0.22365 0.0
H572 H 0.33285 0.93484 0.09935 0.0
H573 H 0.37582 0.90993 1.01523 0.0
C574 C 0.42464 0.84549 1.02005 0.0
C575 C 0.44723 0.81039 0.02919 0.0
C576 C 0.40304 0.86348 0.07009 0.0
C577 C 0.45098 0.79665 0.09091 0.0
C578 C 0.43035 0.81453 0.14044 0.0
C579 C 0.38035 0.86176 0.17881 0.0
C580 C 0.35369 0.89357 0.16884 0.0
C581 C 0.40502 0.84693 0.13033 0.0
C582 C 0.35369 0.91129 0.1095 0.0
C583 C 0.37802 0.89655 0.0609 0.0
H584 H 0.15895 0.86765 0.71698 0.0
H585 H 0.06866 0.83136 0.58744 0.0
H586 H 0.09927 0.87288 0.50647 0.0
H587 H 0.15636 0.91486 0.46861 0.0
H588 H 0.24565 0.95143 0.6006 0.0
H589 H 0.21107 0.91549 0.68292 0.0
C590 C 0.14475 0.87029 0.67195 0.0
C591 C 0.11012 0.8473 0.65996 0.0
C592 C 0.16324 0.89387 0.62478 0.0
C593 C 0.09393 0.84981 0.59967 0.0
C594 C 0.11208 0.87311 0.55265 0.0
C595 C 0.1682 0.91529 0.51538 0.0
C596 C 0.20442 0.936 0.52706 0.0
C597 C 0.14749 0.89453 0.56394 0.0
C598 C 0.21825 0.9362 0.589 0.0
C599 C 0.19836 0.91537 0.63666 0.0
H600 H 0.16126 0.59105 0.10814 0.0
H601 H 0.11798 0.65236 0.27042 0.0
H602 H 0.07334 0.69167 0.20646 0.0
H603 H 0.05367 0.71633 0.10186 0.0
H604 H 0.09451 0.65186 0.94089 0.0
H605 H 0.1323 0.60764 1.00536 0.0
C606 C 0.14059 0.61147 0.12992 0.0
C607 C 0.14249 0.61741 0.19485 0.0
C608 C 0.11528 0.63515 0.09221 0.0
C609 C 0.11642 0.64568 0.2212 0.0
C610 C 0.09129 0.66903 0.18423 0.0
C611 C 0.07005 0.69212 0.08069 0.0
C612 C 0.07188 0.68929 1.01495 0.0
C613 C 0.09147 0.66521 0.11922 0.0
C614 C 0.09343 0.65706 0.98992 0.0
C615 C 0.11501 0.63085 0.02745 0.0
H616 H 0.40254 0.66015 0.62062 0.0
H617 H 0.31882 0.64676 0.77109 0.0
H618 H 0.28008 0.59944 0.70955 0.0
H619 H 0.26547 0.56638 0.60843 0.0
H620 H 0.34981 0.57799 0.45847 0.0
H621 H 0.39187 0.62045 0.52312 0.0
C622 C 0.37671 0.64576 0.64088 0.0
C623 C 0.36454 0.65676 0.7018 0.0
C624 C 0.35369 0.61854 0.60422 0.0
C625 C 0.32977 0.63855 0.72539 0.0
C626 C 0.30715 0.61161 0.6897 0.0
C627 C 0.29339 0.57746 0.59005 0.0
C628 C 0.30343 0.56927 0.52715 0.0
C629 C 0.31813 0.60197 0.62835 0.0
C630 C 0.34013 0.58436 0.50541 0.0
C631 C 0.36461 0.60867 0.54287 0.0
H632 H 0.43736 0.1726 0.17496 0.0
H633 H 0.45854 0.21305 0.36205 0.0
H634 H 0.39845 0.17813 0.39787 0.0
H635 H 0.34954 0.12465 0.37866 0.0
H636 H 0.3318 0.0815 0.19174 0.0
H637 H 0.3795 0.13027 0.15238 0.0
C638 C 0.42792 0.17479 0.22317 0.0
C639 C 0.45215 0.19492 0.26609 0.0
C640 C 0.39395 0.15406 0.24327 0.0
C641 C 0.44007 0.19773 0.3284 0.0
C642 C 0.4059 0.17755 0.3488 0.0
C643 C 0.35461 0.12726 0.32896 0.0
C644 C 0.33745 0.09918 0.28818 0.0
C645 C 0.38375 0.15403 0.30712 0.0
C646 C 0.34469 0.10268 0.224 0.0
C647 C 0.37243 0.13019 0.20161 0.0
H648 H 0.83662 0.94384 0.69818 0.0
H649 H 0.80205 0.96499 0.88822 0.0
H650 H 0.83969 0.90636 0.92154 0.0
H651 H 0.89245 0.85759 0.8981 0.0
H652 H 0.93024 0.8404 0.70817 0.0
H653 H 0.88036 0.88774 0.67273 0.0
C654 C 0.83631 0.93467 0.74657 0.0
C655 C 0.81662 0.95831 0.79081 0.0
C656 C 0.85879 0.90167 0.76524 0.0
C657 C 0.81671 0.94682 0.85347 0.0
C658 C 0.83848 0.91351 0.87244 0.0
C659 C 0.88851 0.86286 0.84873 0.0
C660 C 0.91502 0.84546 0.80575 0.0
C661 C 0.861 0.89171 0.82903 0.0
C662 C 0.91011 0.85326 0.74204 0.0
C663 C 0.88191 0.88073 0.72187 0.0
H664 H 0.15647 0.41869 0.20788 0.0
H665 H 0.17544 0.37085 0.39141 0.0
H666 H 0.12985 0.31618 0.369 0.0
H667 H 0.07217 0.29233 0.30703 0.0
H668 H 0.05128 0.34346 0.12649 0.0
H669 H 0.10995 0.38566 0.1374 0.0
C670 C 0.15182 0.39551 0.24223 0.0
C671 C 0.16862 0.3997 0.30182 0.0
C672 C 0.12428 0.36494 0.22994 0.0
C673 C 0.16274 0.36887 0.34526 0.0
C674 C 0.13611 0.33771 0.33278 0.0
C675 C 0.08158 0.31149 0.26916 0.0
C676 C 0.05739 0.31506 0.21621 0.0
C677 C 0.11477 0.33691 0.27677 0.0
C678 C 0.06949 0.34036 0.16771 0.0
C679 C 0.10288 0.36472 0.17413 0.0
H680 H 0.61312 0.65074 0.86357 0.0
H681 H 0.55129 0.64558 0.68807 0.0
H682 H 0.59487 0.5922 0.65316 0.0
H683 H 0.64178 0.53935 0.67995 0.0
H684 H 0.70402 0.54325 0.85464 0.0
H685 H 0.66881 0.60465 0.88298 0.0
C686 C 0.61022 0.63912 0.8167 0.0
C687 C 0.57862 0.65189 0.77869 0.0
C688 C 0.63451 0.60726 0.7978 0.0
C689 C 0.5752 0.63621 0.71828 0.0
C690 C 0.59978 0.60528 0.69862 0.0
C691 C 0.64789 0.55398 0.72396 0.0
C692 C 0.6745 0.53654 0.76602 0.0
C693 C 0.62796 0.58922 0.73929 0.0
C694 C 0.68315 0.55604 0.8221 0.0
C695 C 0.66308 0.59109 0.83812 0.0
H696 H 0.64306 0.88819 0.64881 0.0
H697 H 0.66637 0.92491 0.83747 0.0
H698 H 0.62081 0.87391 0.87632 0.0
H699 H 0.56411 0.82992 0.85531 0.0
H700 H 0.53577 0.79718 0.66697 0.0
H701 H 0.59363 0.83488 0.629 0.0
C702 C 0.63948 0.88378 0.6985 0.0
C703 C 0.65814 0.91025 0.74032 0.0
C704 C 0.61156 0.85561 0.72033 0.0
C705 C 0.6525 0.90482 0.80451 0.0
C706 C 0.62611 0.87592 0.82666 0.0
C707 C 0.57166 0.8298 0.80617 0.0
C708 C 0.54612 0.81067 0.7639 0.0
C709 C 0.60393 0.85272 0.78488 0.0
C710 C 0.55547 0.81119 0.70029 0.0
C711 C 0.58827 0.83316 0.67866 0.0
H712 H 0.19746 0.05464 0.19924 0.0
H713 H 0.16335 0.04039 0.39135 0.0
H714 H 0.12038 0.09831 0.38507 0.0
H715 H 0.08271 0.14397 0.31991 0.0
H716 H 0.11484 0.15853 0.12699 0.0
H717 H 0.16887 0.11093 0.13896 0.0
C718 C 0.18159 0.06517 0.23999 0.0
C719 C 0.18304 0.04318 0.29544 0.0
C720 C 0.15614 0.09839 0.23577 0.0
C721 C 0.16229 0.05684 0.34805 0.0
C722 C 0.13761 0.08987 0.34449 0.0
C723 C 0.10243 0.13781 0.28106 0.0
C724 C 0.09424 0.15428 0.22253 0.0
C725 C 0.1328 0.10963 0.28783 0.0
C726 C 0.12035 0.14628 0.17273 0.0
C727 C 0.15102 0.11855 0.17928 0.0
H728 H 0.93734 0.70601 0.72938 0.0
H729 H 0.96523 0.65511 0.90782 0.0
H730 H 0.90541 0.61427 0.90423 0.0
H731 H 0.8541 0.58285 0.84083 0.0
H732 H 0.82653 0.63121 0.66037 0.0
H733 H 0.87565 0.68376 0.67535 0.0
C734 C 0.92944 0.68696 0.76819 0.0
C735 C 0.95589 0.68297 0.81826 0.0
C736 C 0.89513 0.6626 0.76523 0.0
C737 C 0.94547 0.65817 0.86837 0.0
C738 C 0.9113 0.63472 0.86635 0.0
C739 C 0.85774 0.60569 0.80566 0.0
C740 C 0.83736 0.60215 0.7489 0.0
C741 C 0.88711 0.6351 0.81355 0.0
C742 C 0.84203 0.63263 0.70442 0.0
C743 C 0.87064 0.66258 0.71252 0.0
H744 H 0.38637 0.3608 0.17105 0.0
H745 H 0.4414 0.35681 0.35199 0.0
H746 H 0.39757 0.40951 0.3887 0.0
H747 H 0.35249 0.46439 0.36373 0.0
H748 H 0.29672 0.4693 0.18391 0.0
H749 H 0.33218 0.40878 0.15187 0.0
C750 C 0.38761 0.37024 0.21928 0.0
C751 C 0.41741 0.35506 0.25862 0.0
C752 C 0.3632 0.4017 0.23946 0.0
C753 C 0.41883 0.36801 0.32079 0.0
C754 C 0.39414 0.39856 0.34156 0.0
C755 C 0.34785 0.45184 0.31775 0.0
C756 C 0.323 0.47151 0.27551 0.0
C757 C 0.36782 0.41699 0.30032 0.0
C758 C 0.31625 0.45476 0.21668 0.0
C759 C 0.33644 0.4202 0.19856 0.0
loop_
_geom_bond_atom_site_label_1
_geom_bond_atom_site_label_2
_geom_bond_distance
_geom_bond_site_symmetry_2
_ccdc_geom_bond_type
C0 O12 1.241 . S
C0 O13 1.280 . S
C1 O14 1.277 . S
C1 O15 1.245 . S
C2 O26 1.247 . S
C2 O28 1.289 . S
Mg3 O4 1.926 . S
Mg3 O13 1.984 . S
Mg3 O15 1.988 . S
Mg3 O16 2.061 . S
O4 Mg3 1.926 . S
O4 Mg5 1.986 . S
O4 Mg6 1.917 . S
Mg5 O4 1.986 . S
Mg5 O12 2.042 . S
Mg5 O14 2.041 . S
Mg5 O20 2.038 . S
Mg5 O28 2.238 . S
Mg6 O4 1.917 . S
Mg6 O7 1.917 . S
Mg6 O17 2.106 . S
Mg6 O19 2.079 . S
Mg6 O28 2.106 . S
Mg6 O29 2.079 . S
O7 Mg6 1.917 . S
O7 Mg8 1.926 . S
O7 Mg9 1.986 . S
Mg8 O7 1.926 . S
Mg8 O22 1.984 . S
Mg8 O25 1.988 . S
Mg8 O26 2.061 . S
Mg9 O7 1.986 . S
Mg9 O17 2.238 . S
Mg9 O21 2.042 . S
Mg9 O23 2.041 . S
Mg9 O30 2.038 . S
C10 O16 1.247 . S
C10 O17 1.289 . S
C11 O29 1.245 . S
C11 O30 1.274 . S
O12 C0 1.241 . S
O12 Mg5 2.042 . S
O13 C0 1.280 . S
O13 Mg3 1.984 . S
O14 C1 1.277 . S
O14 Mg5 2.041 . S
O15 C1 1.245 . S
O15 Mg3 1.988 . S
O16 Mg3 2.061 . S
O16 C10 1.247 . S
O17 Mg6 2.106 . S
O17 Mg9 2.238 . S
O17 C10 1.289 . S
C18 O19 1.245 . S
C18 O20 1.274 . S
O19 Mg6 2.079 . S
O19 C18 1.245 . S
O20 Mg5 2.038 . S
O20 C18 1.274 . S
O21 Mg9 2.042 . S
O21 C24 1.241 . S
O22 Mg8 1.984 . S
O22 C24 1.280 . S
O23 Mg9 2.041 . S
O23 C27 1.277 . S
C24 O21 1.241 . S
C24 O22 1.280 . S
O25 Mg8 1.988 . S
O25 C27 1.245 . S
O26 C2 1.247 . S
O26 Mg8 2.061 . S
C27 O23 1.277 . S
C27 O25 1.245 . S
O28 C2 1.289 . S
O28 Mg5 2.238 . S
O28 Mg6 2.106 . S
O29 Mg6 2.079 . S
O29 C11 1.245 . S
O30 Mg9 2.038 . S
O30 C11 1.274 . S
C31 O43 1.241 1_565 S
C31 O44 1.280 . S
C32 O45 1.277 . S
C32 O46 1.245 . S
C33 O57 1.247 . S
C33 O59 1.289 . S
Mg34 O35 1.926 1_565 S
Mg34 O44 1.984 . S
Mg34 O46 1.988 . S
Mg34 O47 2.061 1_565 S
O35 Mg34 1.926 1_545 S
O35 Mg36 1.986 . S
O35 Mg37 1.917 . S
Mg36 O35 1.986 . S
Mg36 O43 2.042 . S
Mg36 O45 2.041 1_545 S
Mg36 O51 2.038 . S
Mg36 O59 2.238 . S
Mg37 O35 1.917 . S
Mg37 O38 1.917 . S
Mg37 O48 2.106 . S
Mg37 O50 2.079 . S
Mg37 O59 2.106 . S
Mg37 O60 2.079 . S
O38 Mg37 1.917 . S
O38 Mg39 1.926 . S
O38 Mg40 1.986 . S
Mg39 O38 1.926 . S
Mg39 O53 1.984 . S
Mg39 O56 1.988 . S
Mg39 O57 2.061 . S
Mg40 O38 1.986 . S
Mg40 O48 2.238 . S
Mg40 O52 2.042 . S
Mg40 O54 2.041 . S
Mg40 O61 2.038 . S
C41 O47 1.247 . S
C41 O48 1.289 . S
C42 O60 1.245 . S
C42 O61 1.274 . S
O43 C31 1.241 1_545 S
O43 Mg36 2.042 . S
O44 C31 1.280 . S
O44 Mg34 1.984 . S
O45 C32 1.277 . S
O45 Mg36 2.041 1_565 S
O46 C32 1.245 . S
O46 Mg34 1.988 . S
O47 Mg34 2.061 1_545 S
O47 C41 1.247 . S
O48 Mg37 2.106 . S
O48 Mg40 2.238 . S
O48 C41 1.289 . S
C49 O50 1.245 . S
C49 O51 1.274 . S
O50 Mg37 2.079 . S
O50 C49 1.245 . S
O51 Mg36 2.038 . S
O51 C49 1.274 . S
O52 Mg40 2.042 . S
O52 C55 1.241 . S
O53 Mg39 1.984 . S
O53 C55 1.280 . S
O54 Mg40 2.041 . S
O54 C58 1.277 . S
C55 O52 1.241 . S
C55 O53 1.280 . S
O56 Mg39 1.988 . S
O56 C58 1.245 . S
O57 C33 1.247 . S
O57 Mg39 2.061 . S
C58 O54 1.277 . S
C58 O56 1.245 . S
O59 C33 1.289 . S
O59 Mg36 2.238 . S
O59 Mg37 2.106 . S
O60 Mg37 2.079 . S
O60 C42 1.245 . S
O61 Mg40 2.038 . S
O61 C42 1.274 . S
C62 O74 1.241 1_455 S
C62 O75 1.280 . S
C63 O76 1.277 . S
C63 O77 1.245 . S
C64 O88 1.247 . S
C64 O90 1.289 . S
Mg65 O66 1.926 1_455 S
Mg65 O75 1.984 . S
Mg65 O77 1.988 . S
Mg65 O78 2.061 1_455 S
O66 Mg65 1.926 1_655 S
O66 Mg67 1.986 . S
O66 Mg68 1.917 . S
Mg67 O66 1.986 . S
Mg67 O74 2.042 . S
Mg67 O76 2.041 1_655 S
Mg67 O82 2.038 . S
Mg67 O90 2.238 . S
Mg68 O66 1.917 . S
Mg68 O69 1.917 . S
Mg68 O79 2.106 . S
Mg68 O81 2.079 . S
Mg68 O90 2.106 . S
Mg68 O91 2.079 . S
O69 Mg68 1.917 . S
O69 Mg70 1.926 . S
O69 Mg71 1.986 . S
Mg70 O69 1.926 . S
Mg70 O84 1.984 . S
Mg70 O87 1.988 . S
Mg70 O88 2.061 . S
Mg71 O69 1.986 . S
Mg71 O79 2.238 . S
Mg71 O83 2.042 . S
Mg71 O85 2.041 . S
Mg71 O92 2.038 . S
C72 O78 1.247 . S
C72 O79 1.289 . S
C73 O91 1.245 . S
C73 O92 1.274 . S
O74 C62 1.241 1_655 S
O74 Mg67 2.042 . S
O75 C62 1.280 . S
O75 Mg65 1.984 . S
O76 C63 1.277 . S
O76 Mg67 2.041 1_455 S
O77 C63 1.245 . S
O77 Mg65 1.988 . S
O78 Mg65 2.061 1_655 S
O78 C72 1.247 . S
O79 Mg68 2.106 . S
O79 Mg71 2.238 . S
O79 C72 1.289 . S
C80 O81 1.245 . S
C80 O82 1.274 . S
O81 Mg68 2.079 . S
O81 C80 1.245 . S
O82 Mg67 2.038 . S
O82 C80 1.274 . S
O83 Mg71 2.042 . S
O83 C86 1.241 . S
O84 Mg70 1.984 . S
O84 C86 1.280 . S
O85 Mg71 2.041 . S
O85 C89 1.277 . S
C86 O83 1.241 . S
C86 O84 1.280 . S
O87 Mg70 1.988 . S
O87 C89 1.245 . S
O88 C64 1.247 . S
O88 Mg70 2.061 . S
C89 O85 1.277 . S
C89 O87 1.245 . S
O90 C64 1.289 . S
O90 Mg67 2.238 . S
O90 Mg68 2.106 . S
O91 Mg68 2.079 . S
O91 C73 1.245 . S
O92 Mg71 2.038 . S
O92 C73 1.274 . S
C93 O105 1.241 . S
C93 O106 1.280 . S
C94 O107 1.277 . S
C94 O108 1.245 . S
C95 O119 1.247 . S
C95 O121 1.289 . S
Mg96 O97 1.926 . S
Mg96 O106 1.984 . S
Mg96 O108 1.988 . S
Mg96 O109 2.061 . S
O97 Mg96 1.926 . S
O97 Mg98 1.986 . S
O97 Mg99 1.917 . S
Mg98 O97 1.986 . S
Mg98 O105 2.042 . S
Mg98 O107 2.041 . S
Mg98 O113 2.038 . S
Mg98 O121 2.238 . S
Mg99 O97 1.917 . S
Mg99 O100 1.917 . S
Mg99 O110 2.106 . S
Mg99 O112 2.079 . S
Mg99 O121 2.106 . S
Mg99 O122 2.079 . S
O100 Mg99 1.917 . S
O100 Mg101 1.926 . S
O100 Mg102 1.986 . S
Mg101 O100 1.926 . S
Mg101 O115 1.984 . S
Mg101 O118 1.988 . S
Mg101 O119 2.061 . S
Mg102 O100 1.986 . S
Mg102 O110 2.238 . S
Mg102 O114 2.042 . S
Mg102 O116 2.041 . S
Mg102 O123 2.038 . S
C103 O109 1.247 . S
C103 O110 1.289 . S
C104 O122 1.245 . S
C104 O123 1.274 . S
O105 C93 1.241 . S
O105 Mg98 2.042 . S
O106 C93 1.280 . S
O106 Mg96 1.984 . S
O107 C94 1.277 . S
O107 Mg98 2.041 . S
O108 C94 1.245 . S
O108 Mg96 1.988 . S
O109 Mg96 2.061 . S
O109 C103 1.247 . S
O110 Mg99 2.106 . S
O110 Mg102 2.238 . S
O110 C103 1.289 . S
C111 O112 1.245 . S
C111 O113 1.274 . S
O112 Mg99 2.079 . S
O112 C111 1.245 . S
O113 Mg98 2.038 . S
O113 C111 1.274 . S
O114 Mg102 2.042 . S
O114 C117 1.241 . S
O115 Mg101 1.984 . S
O115 C117 1.280 . S
O116 Mg102 2.041 . S
O116 C120 1.277 . S
C117 O114 1.241 . S
C117 O115 1.280 . S
O118 Mg101 1.988 . S
O118 C120 1.245 . S
O119 C95 1.247 . S
O119 Mg101 2.061 . S
C120 O116 1.277 . S
C120 O118 1.245 . S
O121 C95 1.289 . S
O121 Mg98 2.238 . S
O121 Mg99 2.106 . S
O122 Mg99 2.079 . S
O122 C104 1.245 . S
O123 Mg102 2.038 . S
O123 C104 1.274 . S
C124 O136 1.241 . S
C124 O137 1.280 . S
C125 O138 1.277 . S
C125 O139 1.245 . S
C126 O150 1.247 . S
C126 O152 1.289 . S
Mg127 O128 1.926 . S
Mg127 O137 1.984 . S
Mg127 O139 1.988 . S
Mg127 O140 2.061 . S
O128 Mg127 1.926 . S
O128 Mg129 1.986 . S
O128 Mg130 1.917 . S
Mg129 O128 1.986 . S
Mg129 O136 2.042 . S
Mg129 O138 2.041 . S
Mg129 O144 2.038 . S
Mg129 O152 2.238 . S
Mg130 O128 1.917 . S
Mg130 O131 1.917 . S
Mg130 O141 2.106 . S
Mg130 O143 2.079 . S
Mg130 O152 2.106 . S
Mg130 O153 2.079 . S
O131 Mg130 1.917 . S
O131 Mg132 1.926 . S
O131 Mg133 1.986 . S
Mg132 O131 1.926 . S
Mg132 O146 1.984 . S
Mg132 O149 1.988 . S
Mg132 O150 2.061 . S
Mg133 O131 1.986 . S
Mg133 O141 2.238 . S
Mg133 O145 2.042 . S
Mg133 O147 2.041 . S
Mg133 O154 2.038 . S
C134 O140 1.247 . S
C134 O141 1.289 . S
C135 O153 1.245 . S
C135 O154 1.274 . S
O136 C124 1.241 . S
O136 Mg129 2.042 . S
O137 C124 1.280 . S
O137 Mg127 1.984 . S
O138 C125 1.277 . S
O138 Mg129 2.041 . S
O139 C125 1.245 . S
O139 Mg127 1.988 . S
O140 Mg127 2.061 . S
O140 C134 1.247 . S
O141 Mg130 2.106 . S
O141 Mg133 2.238 . S
O141 C134 1.289 . S
C142 O143 1.245 . S
C142 O144 1.274 . S
O143 Mg130 2.079 . S
O143 C142 1.245 . S
O144 Mg129 2.038 . S
O144 C142 1.274 . S
O145 Mg133 2.042 . S
O145 C148 1.241 . S
O146 Mg132 1.984 . S
O146 C148 1.280 . S
O147 Mg133 2.041 . S
O147 C151 1.277 . S
C148 O145 1.241 . S
C148 O146 1.280 . S
O149 Mg132 1.988 . S
O149 C151 1.245 . S
O150 C126 1.247 . S
O150 Mg132 2.061 . S
C151 O147 1.277 . S
C151 O149 1.245 . S
O152 C126 1.289 . S
O152 Mg129 2.238 . S
O152 Mg130 2.106 . S
O153 Mg130 2.079 . S
O153 C135 1.245 . S
O154 Mg133 2.038 . S
O154 C135 1.274 . S
C155 O167 1.241 . S
C155 O168 1.280 . S
C156 O169 1.277 . S
C156 O170 1.245 . S
C157 O181 1.247 . S
C157 O183 1.289 . S
Mg158 O159 1.926 . S
Mg158 O168 1.984 . S
Mg158 O170 1.988 . S
Mg158 O171 2.061 . S
O159 Mg158 1.926 . S
O159 Mg160 1.986 . S
O159 Mg161 1.917 . S
Mg160 O159 1.986 . S
Mg160 O167 2.042 . S
Mg160 O169 2.041 . S
Mg160 O175 2.038 . S
Mg160 O183 2.238 . S
Mg161 O159 1.917 . S
Mg161 O162 1.917 . S
Mg161 O172 2.106 . S
Mg161 O174 2.079 . S
Mg161 O183 2.106 . S
Mg161 O184 2.079 . S
O162 Mg161 1.917 . S
O162 Mg163 1.926 1_565 S
O162 Mg164 1.986 . S
Mg163 O162 1.926 1_545 S
Mg163 O177 1.984 . S
Mg163 O180 1.988 . S
Mg163 O181 2.061 1_545 S
Mg164 O162 1.986 . S
Mg164 O172 2.238 . S
Mg164 O176 2.042 . S
Mg164 O178 2.041 1_565 S
Mg164 O185 2.038 . S
C165 O171 1.247 . S
C165 O172 1.289 . S
C166 O184 1.245 . S
C166 O185 1.274 . S
O167 C155 1.241 . S
O167 Mg160 2.042 . S
O168 C155 1.280 . S
O168 Mg158 1.984 . S
O169 C156 1.277 . S
O169 Mg160 2.041 . S
O170 C156 1.245 . S
O170 Mg158 1.988 . S
O171 Mg158 2.061 . S
O171 C165 1.247 . S
O172 Mg161 2.106 . S
O172 Mg164 2.238 . S
O172 C165 1.289 . S
C173 O174 1.245 . S
C173 O175 1.274 . S
O174 Mg161 2.079 . S
O174 C173 1.245 . S
O175 Mg160 2.038 . S
O175 C173 1.274 . S
O176 Mg164 2.042 . S
O176 C179 1.241 1_565 S
O177 Mg163 1.984 . S
O177 C179 1.280 . S
O178 Mg164 2.041 1_545 S
O178 C182 1.277 . S
C179 O176 1.241 1_545 S
C179 O177 1.280 . S
O180 Mg163 1.988 . S
O180 C182 1.245 . S
O181 C157 1.247 . S
O181 Mg163 2.061 1_565 S
C182 O178 1.277 . S
C182 O180 1.245 . S
O183 C157 1.289 . S
O183 Mg160 2.238 . S
O183 Mg161 2.106 . S
O184 Mg161 2.079 . S
O184 C166 1.245 . S
O185 Mg164 2.038 . S
O185 C166 1.274 . S
C186 O198 1.241 . S
C186 O199 1.280 . S
C187 O200 1.277 . S
C187 O201 1.245 . S
C188 O212 1.247 . S
C188 O214 1.289 . S
Mg189 O190 1.926 . S
Mg189 O199 1.984 . S
Mg189 O201 1.988 . S
Mg189 O202 2.061 . S
O190 Mg189 1.926 . S
O190 Mg191 1.986 . S
O190 Mg192 1.917 . S
Mg191 O190 1.986 . S
Mg191 O198 2.042 . S
Mg191 O200 2.041 . S
Mg191 O206 2.038 . S
Mg191 O214 2.238 . S
Mg192 O190 1.917 . S
Mg192 O193 1.917 . S
Mg192 O203 2.106 . S
Mg192 O205 2.079 . S
Mg192 O214 2.106 . S
Mg192 O215 2.079 . S
O193 Mg192 1.917 . S
O193 Mg194 1.926 1_455 S
O193 Mg195 1.986 . S
Mg194 O193 1.926 1_655 S
Mg194 O208 1.984 . S
Mg194 O211 1.988 . S
Mg194 O212 2.061 1_655 S
Mg195 O193 1.986 . S
Mg195 O203 2.238 . S
Mg195 O207 2.042 . S
Mg195 O209 2.041 1_455 S
Mg195 O216 2.038 . S
C196 O202 1.247 . S
C196 O203 1.289 . S
C197 O215 1.245 . S
C197 O216 1.274 . S
O198 C186 1.241 . S
O198 Mg191 2.042 . S
O199 C186 1.280 . S
O199 Mg189 1.984 . S
O200 C187 1.277 . S
O200 Mg191 2.041 . S
O201 C187 1.245 . S
O201 Mg189 1.988 . S
O202 Mg189 2.061 . S
O202 C196 1.247 . S
O203 Mg192 2.106 . S
O203 Mg195 2.238 . S
O203 C196 1.289 . S
C204 O205 1.245 . S
C204 O206 1.274 . S
O205 Mg192 2.079 . S
O205 C204 1.245 . S
O206 Mg191 2.038 . S
O206 C204 1.274 . S
O207 Mg195 2.042 . S
O207 C210 1.241 1_455 S
O208 Mg194 1.984 . S
O208 C210 1.280 . S
O209 Mg195 2.041 1_655 S
O209 C213 1.277 . S
C210 O207 1.241 1_655 S
C210 O208 1.280 . S
O211 Mg194 1.988 . S
O211 C213 1.245 . S
O212 C188 1.247 . S
O212 Mg194 2.061 1_455 S
C213 O209 1.277 . S
C213 O211 1.245 . S
O214 C188 1.289 . S
O214 Mg191 2.238 . S
O214 Mg192 2.106 . S
O215 Mg192 2.079 . S
O215 C197 1.245 . S
O216 Mg195 2.038 . S
O216 C197 1.274 . S
C217 O229 1.241 . S
C217 O230 1.280 . S
C218 O231 1.277 . S
C218 O232 1.245 . S
C219 O243 1.247 . S
C219 O245 1.289 . S
Mg220 O221 1.926 . S
Mg220 O230 1.984 . S
Mg220 O232 1.988 . S
Mg220 O233 2.061 . S
O221 Mg220 1.926 . S
O221 Mg222 1.986 . S
O221 Mg223 1.917 . S
Mg222 O221 1.986 . S
Mg222 O229 2.042 . S
Mg222 O231 2.041 . S
Mg222 O237 2.038 . S
Mg222 O245 2.238 . S
Mg223 O221 1.917 . S
Mg223 O224 1.917 . S
Mg223 O234 2.106 . S
Mg223 O236 2.079 . S
Mg223 O245 2.106 . S
Mg223 O246 2.079 . S
O224 Mg223 1.917 . S
O224 Mg225 1.926 . S
O224 Mg226 1.986 . S
Mg225 O224 1.926 . S
Mg225 O239 1.984 . S
Mg225 O242 1.988 . S
Mg225 O243 2.061 . S
Mg226 O224 1.986 . S
Mg226 O234 2.238 . S
Mg226 O238 2.042 . S
Mg226 O240 2.041 . S
Mg226 O247 2.038 . S
C227 O233 1.247 . S
C227 O234 1.289 . S
C228 O246 1.245 . S
C228 O247 1.274 . S
O229 C217 1.241 . S
O229 Mg222 2.042 . S
O230 C217 1.280 . S
O230 Mg220 1.984 . S
O231 C218 1.277 . S
O231 Mg222 2.041 . S
O232 C218 1.245 . S
O232 Mg220 1.988 . S
O233 Mg220 2.061 . S
O233 C227 1.247 . S
O234 Mg223 2.106 . S
O234 Mg226 2.238 . S
O234 C227 1.289 . S
C235 O236 1.245 . S
C235 O237 1.274 . S
O236 Mg223 2.079 . S
O236 C235 1.245 . S
O237 Mg222 2.038 . S
O237 C235 1.274 . S
O238 Mg226 2.042 . S
O238 C241 1.241 . S
O239 Mg225 1.984 . S
O239 C241 1.280 . S
O240 Mg226 2.041 . S
O240 C244 1.277 . S
C241 O238 1.241 . S
C241 O239 1.280 . S
O242 Mg225 1.988 . S
O242 C244 1.245 . S
O243 C219 1.247 . S
O243 Mg225 2.061 . S
C244 O240 1.277 . S
C244 O242 1.245 . S
O245 C219 1.289 . S
O245 Mg222 2.238 . S
O245 Mg223 2.106 . S
O246 Mg223 2.079 . S
O246 C228 1.245 . S
O247 Mg226 2.038 . S
O247 C228 1.274 . S
H248 C254 0.930 . S
H249 C257 0.930 . S
H250 C258 0.930 . S
H251 C259 0.930 . S
H252 C262 0.930 . S
H253 C263 0.930 . S
C254 H248 0.930 . S
C254 C255 1.355 . S
C254 C256 1.415 . S
C255 C254 1.355 . S
C255 C257 1.419 . S
C256 C254 1.415 . S
C256 C261 1.425 . S
C256 C263 1.409 . S
C257 H249 0.930 . S
C257 C255 1.419 . S
C257 C258 1.362 . S
C258 H250 0.930 . S
C258 C257 1.362 . S
C258 C261 1.409 . S
C259 H251 0.930 . S
C259 C260 1.355 . S
C259 C261 1.415 . S
C260 C259 1.355 . S
C260 C262 1.419 . S
C261 C256 1.425 . S
C261 C258 1.409 . S
C261 C259 1.415 . S
C262 H252 0.930 . S
C262 C260 1.419 . S
C262 C263 1.362 . S
C263 H253 0.930 . S
C263 C256 1.409 . S
C263 C262 1.362 . S
H264 C270 0.930 . S
H265 C273 0.930 . S
H266 C274 0.930 . S
H267 C275 0.930 . S
H268 C278 0.930 . S
H269 C279 0.930 . S
C270 H264 0.930 . S
C270 C271 1.355 . S
C270 C272 1.415 . S
C271 C270 1.355 . S
C271 C273 1.419 . S
C272 C270 1.415 . S
C272 C277 1.425 . S
C272 C279 1.409 1_556 S
C273 H265 0.930 . S
C273 C271 1.419 . S
C273 C274 1.362 . S
C274 H266 0.930 . S
C274 C273 1.362 . S
C274 C277 1.409 . S
C275 H267 0.930 . S
C275 C276 1.355 . S
C275 C277 1.415 1_554 S
C276 C275 1.355 . S
C276 C278 1.419 . S
C277 C272 1.425 . S
C277 C274 1.409 . S
C277 C275 1.415 1_556 S
C278 H268 0.930 . S
C278 C276 1.419 . S
C278 C279 1.362 . S
C279 H269 0.930 . S
C279 C272 1.409 1_554 S
C279 C278 1.362 . S
H280 C286 0.930 . S
H281 C289 0.930 . S
H282 C290 0.930 . S
H283 C291 0.930 . S
H284 C294 0.930 . S
H285 C295 0.930 . S
C286 H280 0.930 . S
C286 C287 1.355 . S
C286 C288 1.415 . S
C287 C286 1.355 . S
C287 C289 1.419 . S
C288 C286 1.415 . S
C288 C293 1.425 . S
C288 C295 1.409 . S
C289 H281 0.930 . S
C289 C287 1.419 . S
C289 C290 1.362 . S
C290 H282 0.930 . S
C290 C289 1.362 . S
C290 C293 1.409 . S
C291 H283 0.930 . S
C291 C292 1.355 . S
C291 C293 1.415 . S
C292 C291 1.355 . S
C292 C294 1.419 . S
C293 C288 1.425 . S
C293 C290 1.409 . S
C293 C291 1.415 . S
C294 H284 0.930 . S
C294 C292 1.419 . S
C294 C295 1.362 . S
C295 H285 0.930 . S
C295 C288 1.409 . S
C295 C294 1.362 . S
H296 C302 0.930 . S
H297 C305 0.930 . S
H298 C306 0.930 . S
H299 C307 0.930 . S
H300 C310 0.930 . S
H301 C311 0.930 . S
C302 H296 0.930 . S
C302 C303 1.355 . S
C302 C304 1.415 1_554 S
C303 C302 1.355 . S
C303 C305 1.419 . S
C304 C302 1.415 1_556 S
C304 C309 1.425 . S
C304 C311 1.409 . S
C305 H297 0.930 . S
C305 C303 1.419 . S
C305 C306 1.362 1_554 S
C306 H298 0.930 . S
C306 C305 1.362 1_556 S
C306 C309 1.409 . S
C307 H299 0.930 . S
C307 C308 1.355 . S
C307 C309 1.415 . S
C308 C307 1.355 . S
C308 C310 1.419 . S
C309 C304 1.425 . S
C309 C306 1.409 . S
C309 C307 1.415 . S
C310 H300 0.930 . S
C310 C308 1.419 . S
C310 C311 1.362 . S
C311 H301 0.930 . S
C311 C304 1.409 . S
C311 C310 1.362 . S
H312 C318 0.930 . S
H313 C321 0.930 . S
H314 C322 0.930 . S
H315 C323 0.930 . S
H316 C326 0.930 . S
H317 C327 0.930 . S
C318 H312 0.930 . S
C318 C319 1.355 . S
C318 C320 1.415 . S
C319 C318 1.355 . S
C319 C321 1.419 . S
C320 C318 1.415 . S
C320 C325 1.425 . S
C320 C327 1.409 . S
C321 H313 0.930 . S
C321 C319 1.419 . S
C321 C322 1.362 . S
C322 H314 0.930 . S
C322 C321 1.362 . S
C322 C325 1.409 . S
C323 H315 0.930 . S
C323 C324 1.355 . S
C323 C325 1.415 . S
C324 C323 1.355 . S
C324 C326 1.419 . S
C325 C320 1.425 . S
C325 C322 1.409 . S
C325 C323 1.415 . S
C326 H316 0.930 . S
C326 C324 1.419 . S
C326 C327 1.362 . S
C327 H317 0.930 . S
C327 C320 1.409 . S
C327 C326 1.362 . S
H328 C334 0.930 . S
H329 C337 0.930 . S
H330 C338 0.930 . S
H331 C339 0.930 . S
H332 C342 0.930 . S
H333 C343 0.930 . S
C334 H328 0.930 . S
C334 C335 1.355 . S
C334 C336 1.415 . S
C335 C334 1.355 . S
C335 C337 1.419 . S
C336 C334 1.415 . S
C336 C341 1.425 . S
C336 C343 1.409 . S
C337 H329 0.930 . S
C337 C335 1.419 . S
C337 C338 1.362 . S
C338 H330 0.930 . S
C338 C337 1.362 . S
C338 C341 1.409 . S
C339 H331 0.930 . S
C339 C340 1.355 . S
C339 C341 1.415 1_556 S
C340 C339 1.355 . S
C340 C342 1.419 . S
C341 C336 1.425 . S
C341 C338 1.409 . S
C341 C339 1.415 1_554 S
C342 H332 0.930 . S
C342 C340 1.419 . S
C342 C343 1.362 1_556 S
C343 H333 0.930 . S
C343 C336 1.409 . S
C343 C342 1.362 1_554 S
H344 C350 0.930 . S
H345 C353 0.930 . S
H346 C354 0.930 . S
H347 C355 0.930 . S
H348 C358 0.930 . S
H349 C359 0.930 . S
C350 H344 0.930 . S
C350 C351 1.355 . S
C350 C352 1.415 . S
C351 C350 1.355 . S
C351 C353 1.419 . S
C352 C350 1.415 . S
C352 C357 1.425 . S
C352 C359 1.409 . S
C353 H345 0.930 . S
C353 C351 1.419 . S
C353 C354 1.362 . S
C354 H346 0.930 . S
C354 C353 1.362 . S
C354 C357 1.409 . S
C355 H347 0.930 . S
C355 C356 1.355 . S
C355 C357 1.415 . S
C356 C355 1.355 . S
C356 C358 1.419 . S
C357 C352 1.425 . S
C357 C354 1.409 . S
C357 C355 1.415 . S
C358 H348 0.930 . S
C358 C356 1.419 . S
C358 C359 1.362 . S
C359 H349 0.930 . S
C359 C352 1.409 . S
C359 C358 1.362 . S
H360 C366 0.930 . S
H361 C369 0.930 . S
H362 C370 0.930 . S
H363 C371 0.930 . S
H364 C374 0.930 . S
H365 C375 0.930 . S
C366 H360 0.930 . S
C366 C367 1.355 . S
C366 C368 1.415 . S
C367 C366 1.355 . S
C367 C369 1.419 . S
C368 C366 1.415 . S
C368 C373 1.425 . S
C368 C375 1.409 . S
C369 H361 0.930 . S
C369 C367 1.419 . S
C369 C370 1.362 . S
C370 H362 0.930 . S
C370 C369 1.362 . S
C370 C373 1.409 . S
C371 H363 0.930 . S
C371 C372 1.355 . S
C371 C373 1.415 1_556 S
C372 C371 1.355 . S
C372 C374 1.419 . S
C373 C368 1.425 . S
C373 C370 1.409 . S
C373 C371 1.415 1_554 S
C374 H364 0.930 . S
C374 C372 1.419 . S
C374 C375 1.362 1_556 S
C375 H365 0.930 . S
C375 C368 1.409 . S
C375 C374 1.362 1_554 S
H376 C382 0.930 . S
H377 C385 0.930 . S
H378 C386 0.930 . S
H379 C387 0.930 . S
H380 C390 0.930 . S
H381 C391 0.930 . S
C382 H376 0.930 . S
C382 C383 1.355 . S
C382 C384 1.415 . S
C383 C382 1.355 . S
C383 C385 1.419 1_554 S
C384 C382 1.415 . S
C384 C389 1.425 1_554 S
C384 C391 1.409 . S
C385 H377 0.930 . S
C385 C383 1.419 1_556 S
C385 C386 1.362 . S
C386 H378 0.930 . S
C386 C385 1.362 . S
C386 C389 1.409 . S
C387 H379 0.930 . S
C387 C388 1.355 . S
C387 C389 1.415 . S
C388 C387 1.355 . S
C388 C390 1.419 1_556 S
C389 C384 1.425 1_556 S
C389 C386 1.409 . S
C389 C387 1.415 . S
C390 H380 0.930 . S
C390 C388 1.419 1_554 S
C390 C391 1.362 . S
C391 H381 0.930 . S
C391 C384 1.409 . S
C391 C390 1.362 . S
H392 C398 0.930 . S
H393 C401 0.930 . S
H394 C402 0.930 . S
H395 C403 0.930 . S
H396 C406 0.930 . S
H397 C407 0.930 . S
C398 H392 0.930 . S
C398 C399 1.355 1_565 S
C398 C400 1.415 . S
C399 C398 1.355 1_545 S
C399 C401 1.419 . S
C400 C398 1.415 . S
C400 C405 1.425 1_565 S
C400 C407 1.409 . S
C401 H393 0.930 . S
C401 C399 1.419 . S
C401 C402 1.362 . S
C402 H394 0.930 . S
C402 C401 1.362 . S
C402 C405 1.409 . S
C403 H395 0.930 . S
C403 C404 1.355 1_545 S
C403 C405 1.415 . S
C404 C403 1.355 1_565 S
C404 C406 1.419 . S
C405 C400 1.425 1_545 S
C405 C402 1.409 . S
C405 C403 1.415 . S
C406 H396 0.930 . S
C406 C404 1.419 . S
C406 C407 1.362 . S
C407 H397 0.930 . S
C407 C400 1.409 . S
C407 C406 1.362 . S
H408 C414 0.930 . S
H409 C417 0.930 . S
H410 C418 0.930 . S
H411 C419 0.930 . S
H412 C422 0.930 . S
H413 C423 0.930 . S
C414 H408 0.930 . S
C414 C415 1.355 1_455 S
C414 C416 1.415 . S
C415 C414 1.355 1_655 S
C415 C417 1.419 1_554 S
C416 C414 1.415 . S
C416 C421 1.425 1_444 S
C416 C423 1.409 1_545 S
C417 H409 0.930 . S
C417 C415 1.419 1_556 S
C417 C418 1.362 . S
C418 H410 0.930 . S
C418 C417 1.362 . S
C418 C421 1.409 1_545 S
C419 H411 0.930 . S
C419 C420 1.355 1_655 S
C419 C421 1.415 . S
C420 C419 1.355 1_455 S
C420 C422 1.419 1_556 S
C421 C416 1.425 1_666 S
C421 C418 1.409 1_565 S
C421 C419 1.415 . S
C422 H412 0.930 . S
C422 C420 1.419 1_554 S
C422 C423 1.362 . S
C423 H413 0.930 . S
C423 C416 1.409 1_565 S
C423 C422 1.362 . S
H424 C430 0.930 . S
H425 C433 0.930 . S
H426 C434 0.930 . S
H427 C435 0.930 . S
H428 C438 0.930 . S
H429 C439 0.930 . S
C430 H424 0.930 . S
C430 C431 1.355 . S
C430 C432 1.415 . S
C431 C430 1.355 . S
C431 C433 1.419 . S
C432 C430 1.415 . S
C432 C437 1.425 1_655 S
C432 C439 1.409 1_655 S
C433 H425 0.930 . S
C433 C431 1.419 . S
C433 C434 1.362 . S
C434 H426 0.930 . S
C434 C433 1.362 . S
C434 C437 1.409 1_655 S
C435 H427 0.930 . S
C435 C436 1.355 . S
C435 C437 1.415 . S
C436 C435 1.355 . S
C436 C438 1.419 . S
C437 C432 1.425 1_455 S
C437 C434 1.409 1_455 S
C437 C435 1.415 . S
C438 H428 0.930 . S
C438 C436 1.419 . S
C438 C439 1.362 . S
C439 H429 0.930 . S
C439 C432 1.409 1_455 S
C439 C438 1.362 . S
H440 C446 0.930 . S
H441 C449 0.930 . S
H442 C450 0.930 . S
H443 C451 0.930 . S
H444 C454 0.930 . S
H445 C455 0.930 . S
C446 H440 0.930 . S
C446 C447 1.355 . S
C446 C448 1.415 . S
C447 C446 1.355 . S
C447 C449 1.419 . S
C448 C446 1.415 . S
C448 C453 1.425 . S
C448 C455 1.409 . S
C449 H441 0.930 . S
C449 C447 1.419 . S
C449 C450 1.362 . S
C450 H442 0.930 . S
C450 C449 1.362 . S
C450 C453 1.409 . S
C451 H443 0.930 . S
C451 C452 1.355 . S
C451 C453 1.415 . S
C452 C451 1.355 . S
C452 C454 1.419 . S
C453 C448 1.425 . S
C453 C450 1.409 . S
C453 C451 1.415 . S
C454 H444 0.930 . S
C454 C452 1.419 . S
C454 C455 1.362 . S
C455 H445 0.930 . S
C455 C448 1.409 . S
C455 C454 1.362 . S
H456 C462 0.930 . S
H457 C465 0.930 . S
H458 C466 0.930 . S
H459 C467 0.930 . S
H460 C470 0.930 . S
H461 C471 0.930 . S
C462 H456 0.930 . S
C462 C463 1.355 . S
C462 C464 1.415 . S
C463 C462 1.355 . S
C463 C465 1.419 . S
C464 C462 1.415 . S
C464 C469 1.425 . S
C464 C471 1.409 . S
C465 H457 0.930 . S
C465 C463 1.419 . S
C465 C466 1.362 . S
C466 H458 0.930 . S
C466 C465 1.362 . S
C466 C469 1.409 . S
C467 H459 0.930 . S
C467 C468 1.355 . S
C467 C469 1.415 . S
C468 C467 1.355 . S
C468 C470 1.419 . S
C469 C464 1.425 . S
C469 C466 1.409 . S
C469 C467 1.415 . S
C470 H460 0.930 . S
C470 C468 1.419 . S
C470 C471 1.362 . S
C471 H461 0.930 . S
C471 C464 1.409 . S
C471 C470 1.362 . S
H472 C478 0.930 . S
H473 C481 0.930 . S
H474 C482 0.930 . S
H475 C483 0.930 . S
H476 C486 0.930 . S
H477 C487 0.930 . S
C478 H472 0.930 . S
C478 C479 1.355 . S
C478 C480 1.415 . S
C479 C478 1.355 . S
C479 C481 1.419 . S
C480 C478 1.415 . S
C480 C485 1.425 . S
C480 C487 1.409 . S
C481 H473 0.930 . S
C481 C479 1.419 . S
C481 C482 1.362 . S
C482 H474 0.930 . S
C482 C481 1.362 . S
C482 C485 1.409 . S
C483 H475 0.930 . S
C483 C484 1.355 . S
C483 C485 1.415 . S
C484 C483 1.355 . S
C484 C486 1.419 . S
C485 C480 1.425 . S
C485 C482 1.409 . S
C485 C483 1.415 . S
C486 H476 0.930 . S
C486 C484 1.419 . S
C486 C487 1.362 . S
C487 H477 0.930 . S
C487 C480 1.409 . S
C487 C486 1.362 . S
H488 C494 0.930 . S
H489 C497 0.930 . S
H490 C498 0.930 . S
H491 C499 0.930 . S
H492 C502 0.930 . S
H493 C503 0.930 . S
C494 H488 0.930 . S
C494 C495 1.355 . S
C494 C496 1.415 . S
C495 C494 1.355 . S
C495 C497 1.419 . S
C496 C494 1.415 . S
C496 C501 1.425 . S
C496 C503 1.409 . S
C497 H489 0.930 . S
C497 C495 1.419 . S
C497 C498 1.362 . S
C498 H490 0.930 . S
C498 C497 1.362 . S
C498 C501 1.409 . S
C499 H491 0.930 . S
C499 C500 1.355 . S
C499 C501 1.415 . S
C500 C499 1.355 . S
C500 C502 1.419 . S
C501 C496 1.425 . S
C501 C498 1.409 . S
C501 C499 1.415 . S
C502 H492 0.930 . S
C502 C500 1.419 . S
C502 C503 1.362 . S
C503 H493 0.930 . S
C503 C496 1.409 . S
C503 C502 1.362 . S
H504 C510 0.930 1_554 S
H505 C513 0.930 . S
H506 C514 0.930 . S
H507 C515 0.930 . S
H508 C518 0.930 . S
H509 C519 0.930 . S
C510 H504 0.930 1_556 S
C510 C511 1.355 . S
C510 C512 1.415 . S
C511 C510 1.355 . S
C511 C513 1.419 . S
C512 C510 1.415 . S
C512 C517 1.425 . S
C512 C519 1.409 . S
C513 H505 0.930 . S
C513 C511 1.419 . S
C513 C514 1.362 . S
C514 H506 0.930 . S
C514 C513 1.362 . S
C514 C517 1.409 . S
C515 H507 0.930 . S
C515 C516 1.355 . S
C515 C517 1.415 . S
C516 C515 1.355 . S
C516 C518 1.419 . S
C517 C512 1.425 . S
C517 C514 1.409 . S
C517 C515 1.415 . S
C518 H508 0.930 . S
C518 C516 1.419 . S
C518 C519 1.362 . S
C519 H509 0.930 . S
C519 C512 1.409 . S
C519 C518 1.362 . S
H520 C526 0.930 . S
H521 C529 0.930 . S
H522 C530 0.930 . S
H523 C531 0.930 . S
H524 C534 0.930 . S
H525 C535 0.930 . S
C526 H520 0.930 . S
C526 C527 1.355 . S
C526 C528 1.415 . S
C527 C526 1.355 . S
C527 C529 1.419 . S
C528 C526 1.415 . S
C528 C533 1.425 . S
C528 C535 1.409 . S
C529 H521 0.930 . S
C529 C527 1.419 . S
C529 C530 1.362 . S
C530 H522 0.930 . S
C530 C529 1.362 . S
C530 C533 1.409 . S
C531 H523 0.930 . S
C531 C532 1.355 . S
C531 C533 1.415 . S
C532 C531 1.355 . S
C532 C534 1.419 . S
C533 C528 1.425 . S
C533 C530 1.409 . S
C533 C531 1.415 . S
C534 H524 0.930 . S
C534 C532 1.419 . S
C534 C535 1.362 . S
C535 H525 0.930 . S
C535 C528 1.409 . S
C535 C534 1.362 . S
H536 C542 0.930 . S
H537 C545 0.930 . S
H538 C546 0.930 . S
H539 C547 0.930 . S
H540 C550 0.930 . S
H541 C551 0.930 . S
C542 H536 0.930 . S
C542 C543 1.355 . S
C542 C544 1.415 . S
C543 C542 1.355 . S
C543 C545 1.419 . S
C544 C542 1.415 . S
C544 C549 1.425 . S
C544 C551 1.409 . S
C545 H537 0.930 . S
C545 C543 1.419 . S
C545 C546 1.362 . S
C546 H538 0.930 . S
C546 C545 1.362 . S
C546 C549 1.409 . S
C547 H539 0.930 . S
C547 C548 1.355 . S
C547 C549 1.415 . S
C548 C547 1.355 . S
C548 C550 1.419 . S
C549 C544 1.425 . S
C549 C546 1.409 . S
C549 C547 1.415 . S
C550 H540 0.930 . S
C550 C548 1.419 . S
C550 C551 1.362 . S
C551 H541 0.930 . S
C551 C544 1.409 . S
C551 C550 1.362 . S
H552 C558 0.930 . S
H553 C561 0.930 . S
H554 C562 0.930 . S
H555 C563 0.930 . S
H556 C566 0.930 . S
H557 C567 0.930 . S
C558 H552 0.930 . S
C558 C559 1.355 . S
C558 C560 1.415 . S
C559 C558 1.355 . S
C559 C561 1.419 . S
C560 C558 1.415 . S
C560 C565 1.425 . S
C560 C567 1.409 . S
C561 H553 0.930 . S
C561 C559 1.419 . S
C561 C562 1.362 . S
C562 H554 0.930 . S
C562 C561 1.362 . S
C562 C565 1.409 . S
C563 H555 0.930 . S
C563 C564 1.355 . S
C563 C565 1.415 . S
C564 C563 1.355 . S
C564 C566 1.419 . S
C565 C560 1.425 . S
C565 C562 1.409 . S
C565 C563 1.415 . S
C566 H556 0.930 . S
C566 C564 1.419 . S
C566 C567 1.362 . S
C567 H557 0.930 . S
C567 C560 1.409 . S
C567 C566 1.362 . S
H568 C574 0.930 1_556 S
H569 C577 0.930 . S
H570 C578 0.930 . S
H571 C579 0.930 . S
H572 C582 0.930 . S
H573 C583 0.930 . S
C574 H568 0.930 1_554 S
C574 C575 1.355 . S
C574 C576 1.415 . S
C575 C574 1.355 . S
C575 C577 1.419 . S
C576 C574 1.415 . S
C576 C581 1.425 . S
C576 C583 1.409 . S
C577 H569 0.930 . S
C577 C575 1.419 . S
C577 C578 1.362 . S
C578 H570 0.930 . S
C578 C577 1.362 . S
C578 C581 1.409 . S
C579 H571 0.930 . S
C579 C580 1.355 . S
C579 C581 1.415 . S
C580 C579 1.355 . S
C580 C582 1.419 . S
C581 C576 1.425 . S
C581 C578 1.409 . S
C581 C579 1.415 . S
C582 H572 0.930 . S
C582 C580 1.419 . S
C582 C583 1.362 . S
C583 H573 0.930 . S
C583 C576 1.409 . S
C583 C582 1.362 . S
H584 C590 0.930 . S
H585 C593 0.930 . S
H586 C594 0.930 . S
H587 C595 0.930 . S
H588 C598 0.930 . S
H589 C599 0.930 . S
C590 H584 0.930 . S
C590 C591 1.355 . S
C590 C592 1.415 . S
C591 C590 1.355 . S
C591 C593 1.419 . S
C592 C590 1.415 . S
C592 C597 1.425 . S
C592 C599 1.409 . S
C593 H585 0.930 . S
C593 C591 1.419 . S
C593 C594 1.362 . S
C594 H586 0.930 . S
C594 C593 1.362 . S
C594 C597 1.409 . S
C595 H587 0.930 . S
C595 C596 1.355 . S
C595 C597 1.415 . S
C596 C595 1.355 . S
C596 C598 1.419 . S
C597 C592 1.425 . S
C597 C594 1.409 . S
C597 C595 1.415 . S
C598 H588 0.930 . S
C598 C596 1.419 . S
C598 C599 1.362 . S
C599 H589 0.930 . S
C599 C592 1.409 . S
C599 C598 1.362 . S
H600 C606 0.930 . S
H601 C609 0.930 . S
H602 C610 0.930 . S
H603 C611 0.930 . S
H604 C614 0.930 . S
H605 C615 0.930 1_556 S
C606 H600 0.930 . S
C606 C607 1.355 . S
C606 C608 1.415 . S
C607 C606 1.355 . S
C607 C609 1.419 . S
C608 C606 1.415 . S
C608 C613 1.425 . S
C608 C615 1.409 . S
C609 H601 0.930 . S
C609 C607 1.419 . S
C609 C610 1.362 . S
C610 H602 0.930 . S
C610 C609 1.362 . S
C610 C613 1.409 . S
C611 H603 0.930 . S
C611 C612 1.355 . S
C611 C613 1.415 . S
C612 C611 1.355 . S
C612 C614 1.419 1_554 S
C613 C608 1.425 . S
C613 C610 1.409 . S
C613 C611 1.415 . S
C614 H604 0.930 . S
C614 C612 1.419 1_556 S
C614 C615 1.362 1_556 S
C615 H605 0.930 1_554 S
C615 C608 1.409 . S
C615 C614 1.362 1_554 S
H616 C622 0.930 . S
H617 C625 0.930 . S
H618 C626 0.930 . S
H619 C627 0.930 . S
H620 C630 0.930 . S
H621 C631 0.930 . S
C622 H616 0.930 . S
C622 C623 1.355 . S
C622 C624 1.415 . S
C623 C622 1.355 . S
C623 C625 1.419 . S
C624 C622 1.415 . S
C624 C629 1.425 . S
C624 C631 1.409 . S
C625 H617 0.930 . S
C625 C623 1.419 . S
C625 C626 1.362 . S
C626 H618 0.930 . S
C626 C625 1.362 . S
C626 C629 1.409 . S
C627 H619 0.930 . S
C627 C628 1.355 . S
C627 C629 1.415 . S
C628 C627 1.355 . S
C628 C630 1.419 . S
C629 C624 1.425 . S
C629 C626 1.409 . S
C629 C627 1.415 . S
C630 H620 0.930 . S
C630 C628 1.419 . S
C630 C631 1.362 . S
C631 H621 0.930 . S
C631 C624 1.409 . S
C631 C630 1.362 . S
H632 C638 0.930 . S
H633 C641 0.930 . S
H634 C642 0.930 . S
H635 C643 0.930 . S
H636 C646 0.930 . S
H637 C647 0.930 . S
C638 H632 0.930 . S
C638 C639 1.355 . S
C638 C640 1.415 . S
C639 C638 1.355 . S
C639 C641 1.419 . S
C640 C638 1.415 . S
C640 C645 1.425 . S
C640 C647 1.409 . S
C641 H633 0.930 . S
C641 C639 1.419 . S
C641 C642 1.362 . S
C642 H634 0.930 . S
C642 C641 1.362 . S
C642 C645 1.409 . S
C643 H635 0.930 . S
C643 C644 1.355 . S
C643 C645 1.415 . S
C644 C643 1.355 . S
C644 C646 1.419 . S
C645 C640 1.425 . S
C645 C642 1.409 . S
C645 C643 1.415 . S
C646 H636 0.930 . S
C646 C644 1.419 . S
C646 C647 1.362 . S
C647 H637 0.930 . S
C647 C640 1.409 . S
C647 C646 1.362 . S
H648 C654 0.930 . S
H649 C657 0.930 1_545 S
H650 C658 0.930 . S
H651 C659 0.930 . S
H652 C662 0.930 . S
H653 C663 0.930 . S
C654 H648 0.930 . S
C654 C655 1.355 . S
C654 C656 1.415 . S
C655 C654 1.355 . S
C655 C657 1.419 . S
C656 C654 1.415 . S
C656 C661 1.425 . S
C656 C663 1.409 . S
C657 H649 0.930 1_565 S
C657 C655 1.419 . S
C657 C658 1.362 . S
C658 H650 0.930 . S
C658 C657 1.362 . S
C658 C661 1.409 . S
C659 H651 0.930 . S
C659 C660 1.355 . S
C659 C661 1.415 . S
C660 C659 1.355 . S
C660 C662 1.419 . S
C661 C656 1.425 . S
C661 C658 1.409 . S
C661 C659 1.415 . S
C662 H652 0.930 . S
C662 C660 1.419 . S
C662 C663 1.362 . S
C663 H653 0.930 . S
C663 C656 1.409 . S
C663 C662 1.362 . S
H664 C670 0.930 . S
H665 C673 0.930 . S
H666 C674 0.930 . S
H667 C675 0.930 . S
H668 C678 0.930 . S
H669 C679 0.930 . S
C670 H664 0.930 . S
C670 C671 1.355 . S
C670 C672 1.415 . S
C671 C670 1.355 . S
C671 C673 1.419 . S
C672 C670 1.415 . S
C672 C677 1.425 . S
C672 C679 1.409 . S
C673 H665 0.930 . S
C673 C671 1.419 . S
C673 C674 1.362 . S
C674 H666 0.930 . S
C674 C673 1.362 . S
C674 C677 1.409 . S
C675 H667 0.930 . S
C675 C676 1.355 . S
C675 C677 1.415 . S
C676 C675 1.355 . S
C676 C678 1.419 . S
C677 C672 1.425 . S
C677 C674 1.409 . S
C677 C675 1.415 . S
C678 H668 0.930 . S
C678 C676 1.419 . S
C678 C679 1.362 . S
C679 H669 0.930 . S
C679 C672 1.409 . S
C679 C678 1.362 . S
H680 C686 0.930 . S
H681 C689 0.930 . S
H682 C690 0.930 . S
H683 C691 0.930 . S
H684 C694 0.930 . S
H685 C695 0.930 . S
C686 H680 0.930 . S
C686 C687 1.355 . S
C686 C688 1.415 . S
C687 C686 1.355 . S
C687 C689 1.419 . S
C688 C686 1.415 . S
C688 C693 1.425 . S
C688 C695 1.409 . S
C689 H681 0.930 . S
C689 C687 1.419 . S
C689 C690 1.362 . S
C690 H682 0.930 . S
C690 C689 1.362 . S
C690 C693 1.409 . S
C691 H683 0.930 . S
C691 C692 1.355 . S
C691 C693 1.415 . S
C692 C691 1.355 . S
C692 C694 1.419 . S
C693 C688 1.425 . S
C693 C690 1.409 . S
C693 C691 1.415 . S
C694 H684 0.930 . S
C694 C692 1.419 . S
C694 C695 1.362 . S
C695 H685 0.930 . S
C695 C688 1.409 . S
C695 C694 1.362 . S
H696 C702 0.930 . S
H697 C705 0.930 . S
H698 C706 0.930 . S
H699 C707 0.930 . S
H700 C710 0.930 . S
H701 C711 0.930 . S
C702 H696 0.930 . S
C702 C703 1.355 . S
C702 C704 1.415 . S
C703 C702 1.355 . S
C703 C705 1.419 . S
C704 C702 1.415 . S
C704 C709 1.425 . S
C704 C711 1.409 . S
C705 H697 0.930 . S
C705 C703 1.419 . S
C705 C706 1.362 . S
C706 H698 0.930 . S
C706 C705 1.362 . S
C706 C709 1.409 . S
C707 H699 0.930 . S
C707 C708 1.355 . S
C707 C709 1.415 . S
C708 C707 1.355 . S
C708 C710 1.419 . S
C709 C704 1.425 . S
C709 C706 1.409 . S
C709 C707 1.415 . S
C710 H700 0.930 . S
C710 C708 1.419 . S
C710 C711 1.362 . S
C711 H701 0.930 . S
C711 C704 1.409 . S
C711 C710 1.362 . S
H712 C718 0.930 . S
H713 C721 0.930 . S
H714 C722 0.930 . S
H715 C723 0.930 . S
H716 C726 0.930 . S
H717 C727 0.930 . S
C718 H712 0.930 . S
C718 C719 1.355 . S
C718 C720 1.415 . S
C719 C718 1.355 . S
C719 C721 1.419 . S
C720 C718 1.415 . S
C720 C725 1.425 . S
C720 C727 1.409 . S
C721 H713 0.930 . S
C721 C719 1.419 . S
C721 C722 1.362 . S
C722 H714 0.930 . S
C722 C721 1.362 . S
C722 C725 1.409 . S
C723 H715 0.930 . S
C723 C724 1.355 . S
C723 C725 1.415 . S
C724 C723 1.355 . S
C724 C726 1.419 . S
C725 C720 1.425 . S
C725 C722 1.409 . S
C725 C723 1.415 . S
C726 H716 0.930 . S
C726 C724 1.419 . S
C726 C727 1.362 . S
C727 H717 0.930 . S
C727 C720 1.409 . S
C727 C726 1.362 . S
H728 C734 0.930 . S
H729 C737 0.930 1_455 S
H730 C738 0.930 . S
H731 C739 0.930 . S
H732 C742 0.930 . S
H733 C743 0.930 . S
C734 H728 0.930 . S
C734 C735 1.355 . S
C734 C736 1.415 . S
C735 C734 1.355 . S
C735 C737 1.419 . S
C736 C734 1.415 . S
C736 C741 1.425 . S
C736 C743 1.409 . S
C737 H729 0.930 1_655 S
C737 C735 1.419 . S
C737 C738 1.362 . S
C738 H730 0.930 . S
C738 C737 1.362 . S
C738 C741 1.409 . S
C739 H731 0.930 . S
C739 C740 1.355 . S
C739 C741 1.415 . S
C740 C739 1.355 . S
C740 C742 1.419 . S
C741 C736 1.425 . S
C741 C738 1.409 . S
C741 C739 1.415 . S
C742 H732 0.930 . S
C742 C740 1.419 . S
C742 C743 1.362 . S
C743 H733 0.930 . S
C743 C736 1.409 . S
C743 C742 1.362 . S
H744 C750 0.930 . S
H745 C753 0.930 . S
H746 C754 0.930 . S
H747 C755 0.930 . S
H748 C758 0.930 . S
H749 C759 0.930 . S
C750 H744 0.930 . S
C750 C751 1.355 . S
C750 C752 1.415 . S
C751 C750 1.355 . S
C751 C753 1.419 . S
C752 C750 1.415 . S
C752 C757 1.425 . S
C752 C759 1.409 . S
C753 H745 0.930 . S
C753 C751 1.419 . S
C753 C754 1.362 . S
C754 H746 0.930 . S
C754 C753 1.362 . S
C754 C757 1.409 . S
C755 H747 0.930 . S
C755 C756 1.355 . S
C755 C757 1.415 . S
C756 C755 1.355 . S
C756 C758 1.419 . S
C757 C752 1.425 . S
C757 C754 1.409 . S
C757 C755 1.415 . S
C758 H748 0.930 . S
C758 C756 1.419 . S
C758 C759 1.362 . S
C759 H749 0.930 . S
C759 C752 1.409 . S
C759 C758 1.362 . S
C255 C24 1.425 . S
C260 C49 1.363 . S
C271 C55 1.421 . S
C276 C80 1.402 . S
C287 C86 1.424 . S
C292 C111 1.360 . S
C303 C18 1.342 . S
C308 C117 1.373 . S
C319 C124 1.428 . S
C324 C166 1.387 . S
C335 C155 1.383 . S
C340 C197 1.318 . S
C351 C186 1.388 . S
C356 C228 1.384 . S
C367 C217 1.374 . S
C372 C135 1.353 . S
C383 C0 1.394 . S
C388 C148 1.394 . S
C399 C31 1.418 1_545 S
C404 C179 1.418 1_565 S
C415 C62 1.434 1_655 S
C420 C210 1.434 1_455 S
C431 C93 1.394 . S
C436 C241 1.394 . S
C447 C27 0.597 . S
C452 C89 0.606 . S
C463 C120 0.757 . S
C468 C58 0.565 . S
C479 C125 0.626 . S
C484 C187 0.773 . S
C495 C156 0.723 . S
C500 C218 0.542 . S
C511 C10 2.488 1_556 S
C516 C33 2.204 . S
C527 C41 2.474 . S
C532 C64 2.126 . S
C543 C95 2.132 . S
C548 C72 2.476 1_556 S
C559 C103 2.490 . S
C564 C2 2.203 . S
C575 C126 2.483 1_554 S
C580 C165 2.157 . S
C591 C196 2.204 . S
C596 C157 2.488 . S
C607 C227 2.139 . S
C612 C188 2.472 1_554 S
C623 C134 2.132 . S
C628 C219 2.471 . S
C639 C11 1.554 . S
C644 C182 1.611 . S
C655 C42 1.515 1_565 S
C660 C213 1.596 . S
C671 C244 1.539 . S
C676 C73 1.505 1_455 S
C687 C151 1.574 . S
C692 C104 1.499 . S
C703 C32 1.608 . S
C708 C142 1.569 . S
C719 C173 1.508 1_545 S
C724 C63 1.537 . S
C735 C204 1.497 1_655 S
C740 C94 1.559 . S
C751 C1 1.541 . S
C756 C235 1.568 . S
