# Generated by pormake.
# Topology cds-f, (5)-cn, num edge types: 1
# Building blocks:
#     Node 0, Type 0, BuildingBlock: XOMCOT_clean_sbu_0, # of connection points: 5
#     Node 1, Type 0, BuildingBlock: XOMCOT_clean_sbu_0, # of connection points: 5
#     Node 2, Type 0, BuildingBlock: XOMCOT_clean_sbu_0, # of connection points: 5
#     Node 3, Type 0, BuildingBlock: XOMCOT_clean_sbu_0, # of connection points: 5
#     Node 4, Type 0, BuildingBlock: XOMCOT_clean_sbu_0, # of connection points: 5
#     Node 5, Type 0, BuildingBlock: XOMCOT_clean_sbu_0, # of connection points: 5
#     Node 6, Type 0, BuildingBlock: XOMCOT_clean_sbu_0, # of connection points: 5
#     Node 7, Type 0, BuildingBlock: XOMCOT_clean_sbu_0, # of connection points: 5
#     Node 8, Type 0, BuildingBlock: XOMCOT_clean_sbu_0, # of connection points: 5
#     Node 9, Type 0, BuildingBlock: XOMCOT_clean_sbu_0, # of connection points: 5
#     Node 10, Type 0, BuildingBlock: XOMCOT_clean_sbu_0, # of connection points: 5
#     Node 11, Type 0, BuildingBlock: XOMCOT_clean_sbu_0, # of connection points: 5
#     Node 12, Type 0, BuildingBlock: XOMCOT_clean_sbu_0, # of connection points: 5
#     Node 13, Type 0, BuildingBlock: XOMCOT_clean_sbu_0, # of connection points: 5
#     Node 14, Type 0, BuildingBlock: XOMCOT_clean_sbu_0, # of connection points: 5
#     Node 15, Type 0, BuildingBlock: XOMCOT_clean_sbu_0, # of connection points: 5
#     Edge 16, Type (0, 0), BuildingBlock: TEMPAE_clean_linker_10, # of connection points: 2
#     Edge 17, Type (0, 0), BuildingBlock: TEMPAE_clean_linker_10, # of connection points: 2
#     Edge 18, Type (0, 0), BuildingBlock: TEMPAE_clean_linker_10, # of connection points: 2
#     Edge 19, Type (0, 0), BuildingBlock: TEMPAE_clean_linker_10, # of connection points: 2
#     Edge 20, Type (0, 0), BuildingBlock: TEMPAE_clean_linker_10, # of connection points: 2
#     Edge 21, Type (0, 0), BuildingBlock: TEMPAE_clean_linker_10, # of connection points: 2
#     Edge 22, Type (0, 0), BuildingBlock: TEMPAE_clean_linker_10, # of connection points: 2
#     Edge 23, Type (0, 0), BuildingBlock: TEMPAE_clean_linker_10, # of connection points: 2
#     Edge 24, Type (0, 0), BuildingBlock: TEMPAE_clean_linker_10, # of connection points: 2
#     Edge 25, Type (0, 0), BuildingBlock: TEMPAE_clean_linker_10, # of connection points: 2
#     Edge 26, Type (0, 0), BuildingBlock: TEMPAE_clean_linker_10, # of connection points: 2
#     Edge 27, Type (0, 0), BuildingBlock: TEMPAE_clean_linker_10, # of connection points: 2
#     Edge 28, Type (0, 0), BuildingBlock: TEMPAE_clean_linker_10, # of connection points: 2
#     Edge 29, Type (0, 0), BuildingBlock: TEMPAE_clean_linker_10, # of connection points: 2
#     Edge 30, Type (0, 0), BuildingBlock: TEMPAE_clean_linker_10, # of connection points: 2
#     Edge 31, Type (0, 0), BuildingBlock: TEMPAE_clean_linker_10, # of connection points: 2
#     Edge 32, Type (0, 0), BuildingBlock: TEMPAE_clean_linker_10, # of connection points: 2
#     Edge 33, Type (0, 0), BuildingBlock: TEMPAE_clean_linker_10, # of connection points: 2
#     Edge 34, Type (0, 0), BuildingBlock: TEMPAE_clean_linker_10, # of connection points: 2
#     Edge 35, Type (0, 0), BuildingBlock: TEMPAE_clean_linker_10, # of connection points: 2
#     Edge 36, Type (0, 0), BuildingBlock: TEMPAE_clean_linker_10, # of connection points: 2
#     Edge 37, Type (0, 0), BuildingBlock: TEMPAE_clean_linker_10, # of connection points: 2
#     Edge 38, Type (0, 0), BuildingBlock: TEMPAE_clean_linker_10, # of connection points: 2
#     Edge 39, Type (0, 0), BuildingBlock: TEMPAE_clean_linker_10, # of connection points: 2
#     Edge 40, Type (0, 0), BuildingBlock: TEMPAE_clean_linker_10, # of connection points: 2
#     Edge 41, Type (0, 0), BuildingBlock: TEMPAE_clean_linker_10, # of connection points: 2
#     Edge 42, Type (0, 0), BuildingBlock: TEMPAE_clean_linker_10, # of connection points: 2
#     Edge 43, Type (0, 0), BuildingBlock: TEMPAE_clean_linker_10, # of connection points: 2
#     Edge 44, Type (0, 0), BuildingBlock: TEMPAE_clean_linker_10, # of connection points: 2
#     Edge 45, Type (0, 0), BuildingBlock: TEMPAE_clean_linker_10, # of connection points: 2
#     Edge 46, Type (0, 0), BuildingBlock: TEMPAE_clean_linker_10, # of connection points: 2
#     Edge 47, Type (0, 0), BuildingBlock: TEMPAE_clean_linker_10, # of connection points: 2
#     Edge 48, Type (0, 0), BuildingBlock: TEMPAE_clean_linker_10, # of connection points: 2
#     Edge 49, Type (0, 0), BuildingBlock: TEMPAE_clean_linker_10, # of connection points: 2
#     Edge 50, Type (0, 0), BuildingBlock: TEMPAE_clean_linker_10, # of connection points: 2
#     Edge 51, Type (0, 0), BuildingBlock: TEMPAE_clean_linker_10, # of connection points: 2
#     Edge 52, Type (0, 0), BuildingBlock: TEMPAE_clean_linker_10, # of connection points: 2
#     Edge 53, Type (0, 0), BuildingBlock: TEMPAE_clean_linker_10, # of connection points: 2
#     Edge 54, Type (0, 0), BuildingBlock: TEMPAE_clean_linker_10, # of connection points: 2
#     Edge 55, Type (0, 0), BuildingBlock: TEMPAE_clean_linker_10, # of connection points: 2
# Relax obj value: 0.281
# Max RMSD: 0.216
# Mean RMSD: 0.212
data_MOF--net-cds-f--node1-XOMCOT_clean_sbu_0--edge1-TEMPAE_clean_linker_10
_symmetry_space_group_name_H-M    P1
_symmetry_Int_Tables_number       1
_symmetry_cell_setting            triclinic
loop_
_symmetry_equiv_pos_as_xyz
'x, y, z'
_cell_length_a     36.013001
_cell_length_b     35.991327
_cell_length_c     57.534383
_cell_angle_alpha  89.975493
_cell_angle_beta   89.948901
_cell_angle_gamma 93.051247
loop_
_atom_site_label
_atom_site_type_symbol
_atom_site_fract_x
_atom_site_fract_y
_atom_site_fract_z
_atom_type_partial_charge
Co0 Co 0.26287 0.27905 0.12283 0.0
C1 C 0.1792 0.2774 0.12566 0.0
C2 C 0.19992 0.22663 0.11268 0.0
C3 C 0.16173 0.22318 0.11282 0.0
N4 N 0.21108 0.2608 0.12035 0.0
N5 N 0.14864 0.25508 0.12093 0.0
H6 H 0.17807 0.30515 0.13262 0.0
H7 H 0.21823 0.20535 0.10744 0.0
C8 C 0.28841 0.22142 0.08899 0.0
O9 O 0.30204 0.20125 0.10563 0.0
N10 N 0.31487 0.29713 0.12534 0.0
C11 C 0.32659 0.33312 0.12798 0.0
C12 C 0.36476 0.33578 0.12869 0.0
C13 C 0.34648 0.27819 0.12521 0.0
N14 N 0.37735 0.30134 0.12696 0.0
C15 C 0.23629 0.35162 0.11572 0.0
C16 C 0.26622 0.36355 0.07194 0.0
C17 C 0.25195 0.39366 0.08384 0.0
C18 C 0.23577 0.38685 0.10575 0.0
C19 C 0.26681 0.32877 0.08272 0.0
N20 N 0.25273 0.32326 0.10466 0.0
H21 H 0.22609 0.34824 0.13324 0.0
H22 H 0.28091 0.3074 0.07371 0.0
H23 H 0.30872 0.35615 0.12946 0.0
H24 H 0.34712 0.24833 0.12378 0.0
O25 O 0.25398 0.29815 0.15334 0.0
O26 O 0.27059 0.2409 0.14614 0.0
O27 O 0.27324 0.25175 0.09347 0.0
C28 C 0.26171 0.26582 0.16134 0.0
H29 H 0.14484 0.19885 0.10757 0.0
H30 H 0.38203 0.36113 0.13073 0.0
H31 H 0.27854 0.36711 0.05486 0.0
H32 H 0.22514 0.40908 0.11607 0.0
Co33 Co 0.76762 0.28228 0.62482 0.0
C34 C 0.77254 0.36644 0.62696 0.0
C35 C 0.82404 0.34186 0.63452 0.0
C36 C 0.82978 0.38001 0.63528 0.0
N37 N 0.78814 0.33313 0.62928 0.0
N38 N 0.79735 0.39545 0.63059 0.0
H39 H 0.74412 0.37003 0.62212 0.0
H40 H 0.84486 0.32176 0.6373 0.0
C41 C 0.81579 0.25301 0.66271 0.0
O42 O 0.83928 0.24054 0.64749 0.0
N43 N 0.74761 0.23133 0.62034 0.0
C44 C 0.71277 0.22152 0.61323 0.0
C45 C 0.70832 0.18335 0.61247 0.0
C46 C 0.76426 0.19873 0.62315 0.0
N47 N 0.74065 0.16902 0.61867 0.0
C48 C 0.69612 0.31322 0.62618 0.0
C49 C 0.671 0.27552 0.66547 0.0
C50 C 0.64541 0.29374 0.65177 0.0
C51 C 0.65892 0.31442 0.6326 0.0
C52 C 0.70834 0.27601 0.65886 0.0
N53 N 0.72044 0.29387 0.63902 0.0
H54 H 0.70455 0.32567 0.60983 0.0
H55 H 0.72631 0.25884 0.66867 0.0
H56 H 0.69185 0.24074 0.60881 0.0
H57 H 0.79279 0.19653 0.62843 0.0
O58 O 0.75597 0.293 0.59313 0.0
O59 O 0.80959 0.27213 0.60471 0.0
O60 O 0.78734 0.26971 0.65617 0.0
C61 C 0.78868 0.28247 0.58762 0.0
H62 H 0.85581 0.39521 0.63908 0.0
H63 H 0.68336 0.16731 0.60739 0.0
H64 H 0.66198 0.25857 0.68018 0.0
H65 H 0.64049 0.32959 0.62169 0.0
Co66 Co 0.78051 0.76754 0.11681 0.0
C67 C 0.86464 0.76901 0.11862 0.0
C68 C 0.84317 0.82045 0.10744 0.0
C69 C 0.88121 0.82498 0.10857 0.0
N70 N 0.83247 0.78531 0.11348 0.0
N71 N 0.89487 0.79274 0.11566 0.0
H72 H 0.86609 0.74116 0.12537 0.0
H73 H 0.8246 0.84203 0.10325 0.0
C74 C 0.75528 0.82852 0.08544 0.0
O75 O 0.74512 0.84889 0.10301 0.0
N76 N 0.72841 0.75039 0.12022 0.0
C77 C 0.71649 0.71499 0.12475 0.0
C78 C 0.67826 0.71275 0.12549 0.0
C79 C 0.69696 0.76944 0.11875 0.0
N80 N 0.66586 0.74692 0.12171 0.0
C81 C 0.80593 0.69553 0.10665 0.0
C82 C 0.7679 0.68508 0.06525 0.0
C83 C 0.78364 0.65444 0.07573 0.0
C84 C 0.80399 0.6605 0.0963 0.0
C85 C 0.77011 0.71971 0.07634 0.0
N86 N 0.78817 0.72443 0.09716 0.0
H87 H 0.81901 0.69824 0.12343 0.0
H88 H 0.75473 0.74159 0.0688 0.0
H89 H 0.73437 0.69218 0.12738 0.0
H90 H 0.69661 0.79892 0.11538 0.0
O91 O 0.791 0.74585 0.14633 0.0
O92 O 0.77497 0.8039 0.14156 0.0
O93 O 0.76888 0.79701 0.08855 0.0
C94 C 0.78433 0.77754 0.15566 0.0
H95 H 0.89753 0.85032 0.10463 0.0
H96 H 0.66087 0.68787 0.12889 0.0
H97 H 0.75224 0.682 0.04925 0.0
H98 H 0.81594 0.6378 0.10552 0.0
Co99 Co 0.24233 0.75674 0.62221 0.0
C100 C 0.23661 0.67219 0.62708 0.0
C101 C 0.18385 0.69665 0.62479 0.0
C102 C 0.17792 0.65852 0.62581 0.0
N103 N 0.22071 0.70557 0.6254 0.0
N104 N 0.21112 0.64309 0.62726 0.0
H105 H 0.26598 0.66852 0.62801 0.0
H106 H 0.16252 0.71658 0.6235 0.0
C107 C 0.21774 0.75136 0.67167 0.0
O108 O 0.22677 0.71653 0.67104 0.0
N109 N 0.26303 0.80733 0.61831 0.0
C110 C 0.29628 0.81665 0.60861 0.0
C111 C 0.30027 0.85469 0.60675 0.0
C112 C 0.24704 0.83998 0.62214 0.0
N113 N 0.2693 0.86948 0.61511 0.0
C114 C 0.3125 0.72373 0.62445 0.0
C115 C 0.33963 0.76531 0.66167 0.0
C116 C 0.36428 0.74479 0.64865 0.0
C117 C 0.3498 0.72238 0.63053 0.0
C118 C 0.30219 0.76503 0.65542 0.0
N119 N 0.28895 0.74472 0.6368 0.0
H120 H 0.30316 0.70964 0.60879 0.0
H121 H 0.2851 0.78444 0.66409 0.0
H122 H 0.31602 0.79704 0.60278 0.0
H123 H 0.21926 0.84198 0.62906 0.0
O124 O 0.2555 0.74676 0.59051 0.0
O125 O 0.20176 0.7684 0.60135 0.0
O126 O 0.2206 0.77136 0.65327 0.0
C127 C 0.22364 0.75893 0.58452 0.0
H128 H 0.15115 0.64336 0.62561 0.0
H129 H 0.32416 0.87026 0.59959 0.0
H130 H 0.34956 0.78392 0.67536 0.0
H131 H 0.36757 0.70567 0.6201 0.0
Co132 Co 0.28634 0.77725 0.8773 0.0
C133 C 0.37055 0.78284 0.87376 0.0
C134 C 0.345 0.83328 0.8648 0.0
C135 C 0.38306 0.83934 0.8632 0.0
N136 N 0.33691 0.79785 0.87146 0.0
N137 N 0.39915 0.80757 0.86877 0.0
H138 H 0.37471 0.75495 0.87951 0.0
H139 H 0.32453 0.85358 0.86158 0.0
C140 C 0.25474 0.82092 0.83741 0.0
O141 O 0.24156 0.84587 0.85138 0.0
N142 N 0.23582 0.7572 0.88324 0.0
C143 C 0.22709 0.72455 0.89392 0.0
C144 C 0.18916 0.7206 0.89676 0.0
C145 C 0.20282 0.77286 0.87992 0.0
N146 N 0.1738 0.75098 0.88801 0.0
C147 C 0.31818 0.70616 0.87754 0.0
C148 C 0.27818 0.67734 0.84014 0.0
C149 C 0.29799 0.65323 0.85401 0.0
C150 C 0.3197 0.66857 0.87219 0.0
C151 C 0.27844 0.71512 0.84559 0.0
N152 N 0.29765 0.72912 0.86445 0.0
H153 H 0.33146 0.71604 0.89332 0.0
H154 H 0.26014 0.73194 0.8358 0.0
H155 H 0.24702 0.70512 0.89969 0.0
H156 H 0.2 0.80016 0.87263 0.0
O157 O 0.29862 0.768 0.90909 0.0
O158 O 0.27628 0.82046 0.89658 0.0
O159 O 0.27247 0.79405 0.84538 0.0
C160 C 0.28754 0.80069 0.91401 0.0
H161 H 0.39774 0.86512 0.85817 0.0
H162 H 0.17406 0.69711 0.90473 0.0
H163 H 0.26028 0.66689 0.82624 0.0
H164 H 0.33605 0.65134 0.88321 0.0
Co165 Co 0.27425 0.26172 0.37334 0.0
C166 C 0.27489 0.17874 0.37764 0.0
C167 C 0.22483 0.20063 0.39099 0.0
C168 C 0.22246 0.16256 0.39355 0.0
N169 N 0.25777 0.21092 0.38123 0.0
N170 N 0.25385 0.14866 0.38515 0.0
H171 H 0.3021 0.17739 0.36978 0.0
H172 H 0.20356 0.21942 0.39557 0.0
C173 C 0.25369 0.30629 0.41504 0.0
O174 O 0.28492 0.3263 0.41203 0.0
N175 N 0.28987 0.31325 0.36481 0.0
C176 C 0.32296 0.32575 0.35592 0.0
C177 C 0.32332 0.36373 0.35334 0.0
C178 C 0.26972 0.34414 0.36603 0.0
N179 N 0.29003 0.37544 0.35988 0.0
C180 C 0.35179 0.25492 0.38175 0.0
C181 C 0.3496 0.25642 0.42974 0.0
C182 C 0.38383 0.26111 0.41832 0.0
C183 C 0.38484 0.25817 0.39414 0.0
C184 C 0.31692 0.25295 0.41644 0.0
N185 N 0.31833 0.25654 0.39273 0.0
H186 H 0.35344 0.25244 0.36314 0.0
H187 H 0.29069 0.24846 0.42534 0.0
H188 H 0.34557 0.30895 0.35116 0.0
H189 H 0.24142 0.34401 0.37238 0.0
O190 O 0.29431 0.24455 0.34468 0.0
O191 O 0.23679 0.26216 0.34884 0.0
O192 O 0.24461 0.28013 0.4007 0.0
C193 C 0.26248 0.24999 0.3352 0.0
H194 H 0.1989 0.14623 0.40052 0.0
H195 H 0.34643 0.38151 0.34714 0.0
H196 H 0.34804 0.25666 0.44854 0.0
H197 H 0.41107 0.2597 0.38484 0.0
Co198 Co 0.77432 0.25315 0.87753 0.0
C199 C 0.68956 0.2476 0.8759 0.0
C200 C 0.71426 0.19496 0.87873 0.0
C201 C 0.67621 0.18896 0.87928 0.0
N202 N 0.72299 0.23177 0.87675 0.0
N203 N 0.66065 0.22204 0.87749 0.0
H204 H 0.68578 0.27694 0.87443 0.0
H205 H 0.73434 0.17374 0.87986 0.0
C206 C 0.76505 0.22156 0.82991 0.0
O207 O 0.73029 0.23071 0.831 0.0
N208 N 0.82543 0.27332 0.87903 0.0
C209 C 0.83654 0.30891 0.88372 0.0
C210 C 0.87477 0.31222 0.8834 0.0
C211 C 0.85716 0.25519 0.87653 0.0
N212 N 0.8877 0.27849 0.87898 0.0
C213 C 0.74217 0.32358 0.8725 0.0
C214 C 0.78052 0.34454 0.83256 0.0
C215 C 0.76185 0.37126 0.84496 0.0
C216 C 0.74125 0.36013 0.86461 0.0
C217 C 0.78017 0.30804 0.8408 0.0
N218 N 0.76162 0.2979 0.8608 0.0
H219 H 0.72962 0.31681 0.88912 0.0
H220 H 0.79838 0.28942 0.83239 0.0
H221 H 0.81817 0.33099 0.88732 0.0
H222 H 0.85791 0.22571 0.87298 0.0
O223 O 0.7666 0.2705 0.90864 0.0
O224 O 0.78655 0.21503 0.89987 0.0
O225 O 0.78646 0.22712 0.84746 0.0
C226 C 0.77783 0.23881 0.9158 0.0
H227 H 0.66112 0.16223 0.88077 0.0
H228 H 0.89186 0.33731 0.88675 0.0
H229 H 0.79744 0.35239 0.81759 0.0
H230 H 0.72737 0.38028 0.87505 0.0
Co231 Co 0.77039 0.78203 0.36905 0.0
C232 C 0.77181 0.867 0.36935 0.0
C233 C 0.82505 0.84441 0.37426 0.0
C234 C 0.82964 0.88259 0.3746 0.0
N235 N 0.78867 0.83428 0.37151 0.0
N236 N 0.79619 0.89678 0.37146 0.0
H237 H 0.74266 0.86974 0.36634 0.0
H238 H 0.84691 0.82511 0.37595 0.0
C239 C 0.80182 0.79072 0.41597 0.0
O240 O 0.78384 0.82152 0.41637 0.0
N241 N 0.75364 0.72994 0.36566 0.0
C242 C 0.72107 0.718 0.35603 0.0
C243 C 0.71944 0.67978 0.35508 0.0
C244 C 0.77142 0.6986 0.37062 0.0
N245 N 0.75102 0.66747 0.3642 0.0
C246 C 0.69883 0.80938 0.37829 0.0
C247 C 0.68166 0.76249 0.41523 0.0
C248 C 0.65338 0.7825 0.40523 0.0
C249 C 0.66297 0.80766 0.38734 0.0
C250 C 0.71771 0.76604 0.40613 0.0
N251 N 0.72598 0.789 0.38763 0.0
H252 H 0.70339 0.82434 0.36227 0.0
H253 H 0.73786 0.74741 0.41255 0.0
H254 H 0.70003 0.73595 0.34987 0.0
H255 H 0.79896 0.69858 0.37813 0.0
O256 O 0.74951 0.79243 0.33936 0.0
O257 O 0.80723 0.77592 0.34454 0.0
O258 O 0.7998 0.76967 0.39798 0.0
C259 C 0.78119 0.78533 0.33021 0.0
H260 H 0.8557 0.8987 0.37656 0.0
H261 H 0.69664 0.66228 0.34822 0.0
H262 H 0.67554 0.74204 0.42869 0.0
H263 H 0.64227 0.824 0.37911 0.0
Co264 Co 0.78517 0.77087 0.88233 0.0
C265 C 0.86998 0.77203 0.88783 0.0
C266 C 0.84775 0.82588 0.88522 0.0
C267 C 0.88577 0.83042 0.88702 0.0
N268 N 0.83739 0.78929 0.88571 0.0
N269 N 0.89987 0.79659 0.88853 0.0
H270 H 0.87249 0.74239 0.88804 0.0
H271 H 0.82893 0.84802 0.88296 0.0
C272 C 0.81253 0.7876 0.83493 0.0
O273 O 0.84295 0.77242 0.84176 0.0
N274 N 0.73292 0.75412 0.87987 0.0
C275 C 0.71836 0.72194 0.88886 0.0
C276 C 0.68023 0.72216 0.88823 0.0
C277 C 0.70315 0.77368 0.87393 0.0
N278 N 0.67056 0.75463 0.87895 0.0
C279 C 0.81443 0.69843 0.8867 0.0
C280 C 0.78622 0.67109 0.84506 0.0
C281 C 0.80324 0.64668 0.8602 0.0
C282 C 0.81819 0.66107 0.88108 0.0
C283 C 0.78371 0.70831 0.85116 0.0
N284 N 0.79823 0.7219 0.8716 0.0
H285 H 0.82344 0.70823 0.90363 0.0
H286 H 0.76742 0.72538 0.84014 0.0
H287 H 0.73436 0.70053 0.89655 0.0
H288 H 0.70524 0.802 0.86754 0.0
O289 O 0.78287 0.76056 0.91504 0.0
O290 O 0.7702 0.81458 0.89928 0.0
O291 O 0.78508 0.78997 0.84903 0.0
C292 C 0.77256 0.79424 0.91794 0.0
H293 H 0.90191 0.85664 0.88632 0.0
H294 H 0.66097 0.70055 0.89485 0.0
H295 H 0.77273 0.66119 0.82926 0.0
H296 H 0.83154 0.64342 0.89342 0.0
Co297 Co 0.26781 0.7605 0.37533 0.0
C298 C 0.26093 0.67706 0.36815 0.0
C299 C 0.21134 0.69944 0.38166 0.0
C300 C 0.20621 0.66128 0.38084 0.0
N301 N 0.24588 0.70957 0.37412 0.0
N302 N 0.23738 0.64717 0.37239 0.0
H303 H 0.28868 0.67479 0.36147 0.0
H304 H 0.19131 0.71843 0.38785 0.0
C305 C 0.21382 0.78368 0.41233 0.0
O306 O 0.19517 0.80324 0.39754 0.0
N307 N 0.28946 0.81152 0.3766 0.0
C308 C 0.32598 0.82145 0.3746 0.0
C309 C 0.33078 0.85957 0.37545 0.0
C310 C 0.27245 0.84424 0.37797 0.0
N311 N 0.29719 0.87405 0.37759 0.0
C312 C 0.33792 0.72662 0.37945 0.0
C313 C 0.35295 0.74967 0.42446 0.0
C314 C 0.38093 0.73373 0.41158 0.0
C315 C 0.3727 0.72092 0.3891 0.0
C316 C 0.3184 0.75452 0.41428 0.0
N317 N 0.31129 0.74371 0.39181 0.0
H318 H 0.33361 0.71983 0.36137 0.0
H319 H 0.29888 0.76978 0.42416 0.0
H320 H 0.34786 0.80243 0.37222 0.0
H321 H 0.24272 0.84637 0.37897 0.0
O322 O 0.2853 0.75654 0.34384 0.0
O323 O 0.23034 0.77673 0.35372 0.0
O324 O 0.24204 0.7665 0.4059 0.0
C325 C 0.25409 0.76965 0.33741 0.0
H326 H 0.18153 0.64506 0.38626 0.0
H327 H 0.35704 0.87548 0.37398 0.0
H328 H 0.35844 0.76033 0.4418 0.0
H329 H 0.39393 0.70938 0.37833 0.0
Co330 Co 0.27397 0.25547 0.88257 0.0
C331 C 0.18971 0.25492 0.88665 0.0
C332 C 0.21167 0.20085 0.88461 0.0
C333 C 0.17354 0.19669 0.88392 0.0
N334 N 0.22217 0.23731 0.88629 0.0
N335 N 0.15977 0.23063 0.88522 0.0
H336 H 0.18744 0.28464 0.88662 0.0
H337 H 0.2306 0.1787 0.88275 0.0
C338 C 0.29085 0.22448 0.83407 0.0
O339 O 0.32665 0.22242 0.83753 0.0
N340 N 0.32626 0.27264 0.87895 0.0
C341 C 0.33972 0.30826 0.88105 0.0
C342 C 0.37788 0.30921 0.88162 0.0
C343 C 0.35701 0.25233 0.87898 0.0
N344 N 0.38883 0.27412 0.88027 0.0
C345 C 0.24588 0.32839 0.88582 0.0
C346 C 0.26483 0.35048 0.84112 0.0
C347 C 0.2527 0.37676 0.85683 0.0
C348 C 0.24192 0.36528 0.87918 0.0
C349 C 0.26793 0.31388 0.84832 0.0
N350 N 0.25913 0.30316 0.87057 0.0
H351 H 0.23972 0.32043 0.90357 0.0
H352 H 0.28069 0.29554 0.83638 0.0
H353 H 0.3232 0.33217 0.88321 0.0
H354 H 0.35616 0.22222 0.8791 0.0
O355 O 0.27795 0.26817 0.91486 0.0
O356 O 0.28918 0.21275 0.90052 0.0
O357 O 0.26952 0.23423 0.85038 0.0
C358 C 0.28777 0.23456 0.91857 0.0
H359 H 0.15715 0.17078 0.882 0.0
H360 H 0.39624 0.33386 0.88335 0.0
H361 H 0.27402 0.35868 0.82384 0.0
H362 H 0.23305 0.38518 0.89189 0.0
Co363 Co 0.76517 0.2808 0.37427 0.0
C364 C 0.77086 0.36441 0.37359 0.0
C365 C 0.82291 0.34034 0.38073 0.0
C366 C 0.82855 0.37851 0.38045 0.0
N367 N 0.78681 0.33139 0.37641 0.0
N368 N 0.79585 0.39372 0.376 0.0
H369 H 0.74188 0.36707 0.36941 0.0
H370 H 0.84379 0.32038 0.38379 0.0
C371 C 0.78638 0.24198 0.41889 0.0
O372 O 0.75983 0.21632 0.41521 0.0
N373 N 0.74386 0.22981 0.37148 0.0
C374 C 0.70765 0.21806 0.37244 0.0
C375 C 0.70488 0.1799 0.37081 0.0
C376 C 0.76247 0.19834 0.36837 0.0
N377 N 0.7393 0.16744 0.36845 0.0
C378 C 0.69208 0.30777 0.37725 0.0
C379 C 0.68029 0.29515 0.42409 0.0
C380 C 0.64981 0.30162 0.40982 0.0
C381 C 0.65661 0.31062 0.38646 0.0
C382 C 0.71572 0.29343 0.41419 0.0
N383 N 0.72063 0.29625 0.39063 0.0
H384 H 0.69562 0.3126 0.3589 0.0
H385 H 0.73838 0.28889 0.42572 0.0
H386 H 0.68448 0.23544 0.37465 0.0
H387 H 0.79247 0.19792 0.36754 0.0
O388 O 0.7495 0.28975 0.34293 0.0
O389 O 0.80383 0.26822 0.3522 0.0
O390 O 0.79158 0.26899 0.40449 0.0
C391 C 0.78081 0.2775 0.33599 0.0
H392 H 0.85471 0.39391 0.38356 0.0
H393 H 0.67941 0.16255 0.37163 0.0
H394 H 0.67666 0.28955 0.44246 0.0
H395 H 0.63425 0.3178 0.375 0.0
Co396 Co 0.76301 0.27594 0.12792 0.0
C397 C 0.68005 0.27519 0.13502 0.0
C398 C 0.70124 0.22084 0.13139 0.0
C399 C 0.66305 0.21719 0.13179 0.0
N400 N 0.71207 0.25711 0.13325 0.0
N401 N 0.64966 0.25128 0.13397 0.0
H402 H 0.67882 0.30515 0.13561 0.0
H403 H 0.71988 0.19867 0.12863 0.0
C404 C 0.78484 0.22896 0.08897 0.0
O405 O 0.81265 0.21939 0.10204 0.0
N406 N 0.81428 0.29406 0.12146 0.0
C407 C 0.82465 0.31319 0.10215 0.0
C408 C 0.86264 0.31806 0.10155 0.0
C409 C 0.84676 0.28702 0.13221 0.0
N410 N 0.87679 0.30166 0.12041 0.0
C411 C 0.75629 0.35349 0.12579 0.0
C412 C 0.71817 0.3568 0.08417 0.0
C413 C 0.72988 0.39002 0.09541 0.0
C414 C 0.74876 0.38786 0.11659 0.0
C415 C 0.72609 0.32251 0.09419 0.0
N416 N 0.74567 0.32138 0.11452 0.0
H417 H 0.77252 0.35281 0.14152 0.0
H418 H 0.71704 0.29709 0.08541 0.0
H419 H 0.80597 0.32158 0.08866 0.0
H420 H 0.84863 0.2707 0.14788 0.0
O421 O 0.76713 0.29262 0.15949 0.0
O422 O 0.78064 0.23629 0.14773 0.0
O423 O 0.76135 0.25096 0.09688 0.0
C424 C 0.7786 0.26019 0.16468 0.0
H425 H 0.64629 0.19151 0.12983 0.0
H426 H 0.87866 0.331 0.08752 0.0
H427 H 0.70341 0.35733 0.0678 0.0
H428 H 0.75923 0.41268 0.1256 0.0
Co429 Co 0.76196 0.78106 0.62008 0.0
C430 C 0.76268 0.86549 0.61827 0.0
C431 C 0.81427 0.84383 0.62901 0.0
C432 C 0.81768 0.88197 0.63027 0.0
N433 N 0.77969 0.83318 0.62182 0.0
N434 N 0.78531 0.8956 0.62354 0.0
H435 H 0.73436 0.8674 0.61254 0.0
H436 H 0.83559 0.82501 0.6334 0.0
C437 C 0.81034 0.76385 0.66166 0.0
O438 O 0.83632 0.74881 0.64935 0.0
N439 N 0.74521 0.72883 0.61851 0.0
C440 C 0.71312 0.71591 0.60868 0.0
C441 C 0.71228 0.67767 0.60823 0.0
C442 C 0.76357 0.69809 0.62392 0.0
N443 N 0.74397 0.66643 0.61777 0.0
C444 C 0.68834 0.80814 0.61975 0.0
C445 C 0.66673 0.7779 0.66216 0.0
C446 C 0.64015 0.79363 0.6481 0.0
C447 C 0.65142 0.80986 0.62695 0.0
C448 C 0.70329 0.77693 0.65443 0.0
N449 N 0.71388 0.79176 0.63336 0.0
H450 H 0.69578 0.81805 0.60257 0.0
H451 H 0.72193 0.76157 0.6649 0.0
H452 H 0.69218 0.73316 0.60163 0.0
H453 H 0.79124 0.69875 0.63119 0.0
O454 O 0.75026 0.78617 0.58785 0.0
O455 O 0.80503 0.77054 0.60095 0.0
O456 O 0.78137 0.77548 0.65219 0.0
C457 C 0.78374 0.7769 0.58318 0.0
H458 H 0.84212 0.8985 0.63573 0.0
H459 H 0.69019 0.65948 0.60117 0.0
H460 H 0.65888 0.76462 0.67848 0.0
H461 H 0.63138 0.82143 0.61533 0.0
Co462 Co 0.28137 0.77676 0.1304 0.0
C463 C 0.36444 0.781 0.1291 0.0
C464 C 0.34111 0.82937 0.11435 0.0
C465 C 0.37922 0.83273 0.11192 0.0
N466 N 0.33178 0.79686 0.12495 0.0
N467 N 0.39396 0.80232 0.12113 0.0
H468 H 0.36645 0.75389 0.13701 0.0
H469 H 0.32148 0.84902 0.10842 0.0
C470 C 0.24637 0.78048 0.08325 0.0
O471 O 0.23059 0.74738 0.08746 0.0
N472 N 0.2301 0.75738 0.13641 0.0
C473 C 0.21915 0.73117 0.15218 0.0
C474 C 0.18106 0.72905 0.15375 0.0
C475 C 0.19786 0.772 0.12949 0.0
N476 N 0.16752 0.75461 0.13943 0.0
C477 C 0.29395 0.69911 0.13053 0.0
C478 C 0.31321 0.69246 0.08431 0.0
C479 C 0.3077 0.66012 0.09779 0.0
C480 C 0.29916 0.66407 0.1214 0.0
C481 C 0.30766 0.72725 0.09431 0.0
N482 N 0.29503 0.72982 0.11667 0.0
H483 H 0.28896 0.70129 0.14886 0.0
H484 H 0.3129 0.75195 0.0839 0.0
H485 H 0.23717 0.71606 0.16322 0.0
H486 H 0.19662 0.79586 0.11813 0.0
O487 O 0.29423 0.76659 0.16216 0.0
O488 O 0.27082 0.81896 0.15004 0.0
O489 O 0.26649 0.79684 0.09892 0.0
C490 C 0.28214 0.79888 0.16727 0.0
H491 H 0.39489 0.85584 0.10391 0.0
H492 H 0.16462 0.71048 0.16498 0.0
H493 H 0.32143 0.69091 0.06624 0.0
H494 H 0.29525 0.64021 0.13278 0.0
Co495 Co 0.25249 0.25775 0.62141 0.0
C496 C 0.2505 0.17302 0.61607 0.0
C497 C 0.19706 0.19642 0.61514 0.0
C498 C 0.19204 0.15845 0.61321 0.0
N499 N 0.23368 0.20595 0.61704 0.0
N500 N 0.22558 0.14361 0.61392 0.0
H501 H 0.27995 0.16998 0.61762 0.0
H502 H 0.17518 0.21582 0.61588 0.0
C503 C 0.22469 0.23199 0.66724 0.0
O504 O 0.2386 0.20042 0.66135 0.0
N505 N 0.26969 0.30977 0.62462 0.0
C506 C 0.30397 0.32363 0.61886 0.0
C507 C 0.3044 0.36183 0.61928 0.0
C508 C 0.24953 0.34001 0.62836 0.0
N509 N 0.2702 0.37227 0.6251 0.0
C510 C 0.32459 0.22743 0.62388 0.0
C511 C 0.34301 0.25743 0.66686 0.0
C512 C 0.37052 0.24137 0.65367 0.0
C513 C 0.36079 0.22518 0.63226 0.0
C514 C 0.30718 0.25882 0.65795 0.0
N515 N 0.29806 0.24386 0.6367 0.0
H516 H 0.31863 0.21816 0.60636 0.0
H517 H 0.288 0.27529 0.66726 0.0
H518 H 0.32675 0.30712 0.61361 0.0
H519 H 0.21999 0.33846 0.63196 0.0
O520 O 0.27044 0.25836 0.59009 0.0
O521 O 0.21379 0.27316 0.60018 0.0
O522 O 0.22626 0.25937 0.65283 0.0
C523 C 0.23816 0.26891 0.58369 0.0
H524 H 0.16553 0.14288 0.6123 0.0
H525 H 0.32789 0.38058 0.61495 0.0
H526 H 0.34975 0.27108 0.68321 0.0
H527 H 0.38167 0.21364 0.62122 0.0
C528 C 0.94261 0.32362 0.11555 0.0
C529 C 0.91601 0.29784 0.12497 0.0
C530 C 0.98087 0.31812 0.11698 0.0
C531 C 0.99325 0.2863 0.12848 0.0
C532 C 0.96677 0.26129 0.13928 0.0
C533 C 0.92849 0.26725 0.13733 0.0
C534 C 1.00792 0.3455 0.10511 0.0
C535 C 0.97876 0.22731 0.15203 0.0
C536 C 0.08395 0.24894 0.10678 0.0
C537 C 0.10991 0.26332 0.12305 0.0
C538 C 0.04606 0.25597 0.10852 0.0
C539 C 0.03342 0.27759 0.12721 0.0
C540 C 0.05943 0.29199 0.14386 0.0
C541 C 0.09742 0.28498 0.14146 0.0
C542 C 1.01961 0.24068 0.09008 0.0
C543 C 0.04707 0.31468 0.16422 0.0
H544 H 0.93349 0.34788 0.1065 0.0
H545 H 0.90839 0.2471 0.14466 0.0
H546 H 0.03015 0.35521 0.11735 0.0
H547 H 0.02153 0.33159 0.09041 0.0
H548 H 0.99412 0.37012 0.09827 0.0
H549 H 0.95549 0.21319 0.16187 0.0
H550 H 0.98952 0.20724 0.13938 0.0
H551 H 1.00167 0.23498 0.16429 0.0
H552 H 0.09348 0.23262 0.09235 0.0
H553 H 0.11729 0.29583 0.1542 0.0
H554 H 1.00623 0.26388 0.08123 0.0
H555 H 0.99717 0.22275 0.09818 0.0
H556 H 0.03379 0.22411 0.07677 0.0
H557 H 0.03461 0.34034 0.15792 0.0
H558 H 0.07042 0.3227 0.17612 0.0
H559 H 0.02525 0.29863 0.1742 0.0
C560 C 0.78103 0.11648 0.61196 0.0
C561 C 0.74763 0.12993 0.62014 0.0
C562 C 0.78691 0.07806 0.61202 0.0
C563 C 0.7591 0.05256 0.62103 0.0
C564 C 0.72567 0.06622 0.62978 0.0
C565 C 0.7202 0.10459 0.62897 0.0
C566 C 0.82266 0.0647 0.60213 0.0
C567 C 0.69572 0.04032 0.64016 0.0
C568 C 0.7581 0.94953 0.60448 0.0
C569 C 0.77701 0.93442 0.62323 0.0
C570 C 0.75246 0.98797 0.60336 0.0
C571 C 0.76517 1.01169 0.62173 0.0
C572 C 0.7834 0.99625 0.64099 0.0
C573 C 0.78947 0.95799 0.64135 0.0
C574 C 0.73353 1.00332 0.58232 0.0
C575 C 0.79646 0.02013 0.66127 0.0
H576 H 0.80208 0.13597 0.60491 0.0
H577 H 0.6945 0.11498 0.63551 0.0
H578 H 0.83803 0.05003 0.61574 0.0
H579 H 0.81639 0.04445 0.58794 0.0
H580 H 0.84101 0.08789 0.59517 0.0
H581 H 0.67172 0.05544 0.6467 0.0
H582 H 0.6855 0.01979 0.62696 0.0
H583 H 0.70731 0.02446 0.65476 0.0
H584 H 0.7488 0.93141 0.59037 0.0
H585 H 0.80378 0.94627 0.65596 0.0
H586 H 0.75213 0.02494 0.5739 0.0
H587 H 0.70793 1.01689 0.58764 0.0
H588 H 0.72594 0.9814 0.56932 0.0
H589 H 0.81732 0.04185 0.65531 0.0
H590 H 0.80908 1.00365 0.67525 0.0
H591 H 0.77274 0.03463 0.6687 0.0
C592 C 0.95828 0.81598 0.12682 0.0
C593 C 0.93371 0.78642 0.11986 0.0
C594 C 0.99646 0.81118 0.12985 0.0
C595 C 1.01082 0.77591 0.12579 0.0
C596 C 0.98617 0.74577 0.119 0.0
C597 C 0.94792 0.75133 0.11623 0.0
C598 C 0.02144 0.84397 0.13744 0.0
C599 C 1.00029 0.70772 0.11445 0.0
C600 C 0.11539 0.77281 0.11443 0.0
C601 C 0.12864 0.76161 0.13612 0.0
C602 C 0.07714 0.77716 0.11072 0.0
C603 C 0.05149 0.77055 0.12919 0.0
C604 C 0.06486 0.75985 0.15121 0.0
C605 C 0.1031 0.75544 0.15437 0.0
C606 C 0.06413 0.78851 0.08695 0.0
C607 C 0.03876 0.7531 0.17151 0.0
H608 H 0.94757 0.84302 0.13009 0.0
H609 H 0.92926 0.72845 0.11068 0.0
H610 H 0.03531 0.83745 0.15405 0.0
H611 H 0.04363 0.8497 0.12433 0.0
H612 H 1.00598 0.86959 0.13986 0.0
H613 H 0.97771 0.68726 0.10913 0.0
H614 H 0.0217 0.7095 0.10056 0.0
H615 H 1.01378 0.69723 0.13031 0.0
H616 H 0.13485 0.77724 0.1002 0.0
H617 H 0.11309 0.74736 0.17128 0.0
H618 H 0.04995 0.81506 0.08815 0.0
H619 H 0.04355 0.7672 0.08014 0.0
H620 H 0.08741 0.79209 0.07433 0.0
H621 H 0.02398 0.77868 0.17531 0.0
H622 H 0.05351 0.74476 0.18749 0.0
H623 H 1.01736 0.73091 0.16712 0.0
C624 C 0.27733 0.9324 0.59797 0.0
C625 C 0.2617 0.90858 0.61514 0.0
C626 C 0.27163 0.9707 0.59802 0.0
C627 C 0.24972 0.98594 0.6157 0.0
C628 C 0.23356 0.96207 0.63303 0.0
C629 C 0.23961 0.92367 0.63248 0.0
C630 C 0.28904 0.99488 0.57905 0.0
C631 C 0.21011 0.97717 0.65222 0.0
C632 C 0.26272 0.09074 0.62608 0.0
C633 C 0.23237 0.10428 0.61402 0.0
C634 C 0.26841 0.05232 0.62708 0.0
C635 C 0.24328 0.02672 0.61567 0.0
C636 C 0.21273 0.04026 0.60339 0.0
C637 C 0.20767 0.07872 0.60273 0.0
C638 C 0.30131 0.03911 0.64039 0.0
C639 C 0.18548 1.01411 0.59076 0.0
H640 H 0.29385 0.92098 0.58425 0.0
H641 H 0.22769 0.90556 0.64589 0.0
H642 H 0.2671 1.00869 0.56927 0.0
H643 H 0.3076 1.01715 0.58679 0.0
H644 H 0.30547 0.97879 0.56661 0.0
H645 H 0.19982 0.95512 0.6645 0.0
H646 H 0.22654 0.99881 0.6621 0.0
H647 H 0.18586 0.99065 0.6447 0.0
H648 H 0.28164 0.1101 0.63513 0.0
H649 H 0.18443 0.08886 0.59313 0.0
H650 H 0.31978 0.0243 0.62852 0.0
H651 H 0.29168 1.01901 0.65403 0.0
H652 H 0.3178 0.06239 0.64876 0.0
H653 H 0.20018 0.99877 0.57712 0.0
H654 H 0.1627 0.02895 0.58244 0.0
H655 H 0.17305 0.99315 0.60302 0.0
C656 C 0.96485 0.81444 0.89949 0.0
C657 C 0.93901 0.78906 0.88903 0.0
C658 C 1.0032 0.80873 0.89921 0.0
C659 C 1.01639 0.77691 0.88805 0.0
C660 C 0.99046 0.75104 0.87754 0.0
C661 C 0.95214 0.75732 0.87825 0.0
C662 C 0.02964 0.83679 0.91094 0.0
C663 C 1.00325 0.71687 0.86535 0.0
C664 C 0.11904 0.77921 0.87035 0.0
C665 C 0.13463 0.75839 0.88814 0.0
C666 C 0.08064 0.78518 0.86994 0.0
C667 C 0.0572 0.77036 0.88791 0.0
C668 C 0.07293 0.74975 0.90605 0.0
C669 C 0.11125 0.74394 0.9059 0.0
C670 C 0.06507 0.80713 0.85019 0.0
C671 C 0.04928 0.73389 0.92574 0.0
H672 H 0.95498 0.83879 0.90809 0.0
H673 H 0.93253 0.73783 0.86985 0.0
H674 H 0.04541 0.82297 0.92474 0.0
H675 H 0.05019 0.84846 0.89816 0.0
H676 H 1.015 0.86007 0.91885 0.0
H677 H 0.97974 0.69966 0.8578 0.0
H678 H 0.02295 0.72518 0.8512 0.0
H679 H 1.01837 0.69951 0.87772 0.0
H680 H 0.13677 0.79017 0.85646 0.0
H681 H 0.12305 0.72835 0.91992 0.0
H682 H 0.05187 0.83201 0.85708 0.0
H683 H 0.04314 0.78997 0.84104 0.0
H684 H 0.08679 0.81636 0.8374 0.0
H685 H 0.03569 0.75662 0.93493 0.0
H686 H 0.06571 0.71851 0.93854 0.0
H687 H 0.02686 0.71469 0.91878 0.0
C688 C 0.31653 0.9384 0.38925 0.0
C689 C 0.29025 0.91334 0.37888 0.0
C690 C 0.31126 0.97685 0.39004 0.0
C691 C 0.27899 0.99104 0.38005 0.0
C692 C 0.25226 0.96591 0.36956 0.0
C693 C 0.25808 0.9274 0.36924 0.0
C694 C 0.34022 1.00228 0.40176 0.0
C695 C 0.2176 0.97976 0.35854 0.0
C696 C 0.24797 0.08498 0.40146 0.0
C697 C 0.26173 0.10959 0.38415 0.0
C698 C 0.25341 0.04658 0.40033 0.0
C699 C 0.27282 0.03198 0.38126 0.0
C700 C 0.28701 0.0567 0.36375 0.0
C701 C 0.28155 0.09518 0.36549 0.0
C702 C 0.2384 0.02162 0.41964 0.0
C703 C 0.3076 0.04239 0.34302 0.0
H704 H 0.34121 0.92781 0.39704 0.0
H705 H 0.23784 0.90838 0.36098 0.0
H706 H 0.35123 0.02368 0.38931 0.0
H707 H 0.32742 1.01714 0.41637 0.0
H708 H 0.36385 0.98696 0.40861 0.0
H709 H 0.19995 0.9569 0.35061 0.0
H710 H 0.20093 0.99391 0.37176 0.0
H711 H 0.22528 1.00058 0.34489 0.0
H712 H 0.23306 0.09588 0.41609 0.0
H713 H 0.29193 0.11388 0.35193 0.0
H714 H 0.26142 1.00698 0.42779 0.0
H715 H 0.21846 1.00002 0.4125 0.0
H716 H 0.22411 0.03728 0.43334 0.0
H717 H 0.33263 0.02835 0.34888 0.0
H718 H 0.3164 0.06499 0.33072 0.0
H719 H 0.28964 0.02138 0.33362 0.0
C720 C 0.93904 0.23942 0.89042 0.0
C721 C 0.92634 0.26989 0.87817 0.0
C722 C 0.97728 0.23311 0.89162 0.0
C723 C 1.00332 0.25726 0.87972 0.0
C724 C 0.99035 0.28736 0.86669 0.0
C725 C 0.95214 0.29361 0.86638 0.0
C726 C 0.98991 0.20118 0.9061 0.0
C727 C 1.01684 0.3131 0.85315 0.0
C728 C 0.10525 0.26369 0.89859 0.0
C729 C 0.12109 0.23876 0.88328 0.0
C730 C 0.0669 0.26967 0.89783 0.0
C731 C 0.04409 0.2511 0.88088 0.0
C732 C 0.06035 0.22672 0.86494 0.0
C733 C 0.09847 0.22047 0.86656 0.0
C734 C 0.05065 0.29527 0.91546 0.0
C735 C 0.03749 0.20728 0.84613 0.0
H736 H 0.91912 0.22141 0.89978 0.0
H737 H 0.94223 0.31707 0.85683 0.0
H738 H 1.00531 0.18188 0.89512 0.0
H739 H 1.0093 0.2119 0.91982 0.0
H740 H 0.96627 0.18525 0.91452 0.0
H741 H 1.00212 0.33405 0.84298 0.0
H742 H 0.03653 0.32797 0.86519 0.0
H743 H 0.03357 0.29678 0.84103 0.0
H744 H 0.12271 0.27755 0.91162 0.0
H745 H 0.11083 0.20148 0.85457 0.0
H746 H 0.02837 0.27994 0.92547 0.0
H747 H 0.03773 0.31862 0.9065 0.0
H748 H 0.0719 0.30694 0.92781 0.0
H749 H 1.01538 0.18872 0.85405 0.0
H750 H 0.05461 0.1904 0.83453 0.0
H751 H 0.02351 0.22806 0.83543 0.0
C752 C 0.77815 0.11679 0.355 0.0
C753 C 0.74886 0.12893 0.36862 0.0
C754 C 0.78662 0.07898 0.35461 0.0
C755 C 0.76581 0.05282 0.36856 0.0
C756 C 0.73667 0.06518 0.38265 0.0
C757 C 0.72841 0.1029 0.38236 0.0
C758 C 0.81756 0.06692 0.33909 0.0
C759 C 0.71428 0.03859 0.39819 0.0
C760 C 0.76218 0.94875 0.35504 0.0
C761 C 0.78855 0.93578 0.37057 0.0
C762 C 0.75523 0.98685 0.35374 0.0
C763 C 0.77452 1.01258 0.36869 0.0
C764 C 0.80101 0.99952 0.3845 0.0
C765 C 0.80794 0.96143 0.38508 0.0
C766 C 0.72722 0.9996 0.33637 0.0
C767 C 0.82157 0.02568 0.40115 0.0
H768 H 0.79386 0.13677 0.34427 0.0
H769 H 0.70617 0.11221 0.39323 0.0
H770 H 0.83927 0.0542 0.34967 0.0
H771 H 0.80658 0.04536 0.32674 0.0
H772 H 0.83069 0.09047 0.32903 0.0
H773 H 0.69302 0.05275 0.40844 0.0
H774 H 0.70002 1.01642 0.38759 0.0
H775 H 0.73302 0.02482 0.41041 0.0
H776 H 0.74748 0.92911 0.34361 0.0
H777 H 0.82807 0.95148 0.39727 0.0
H778 H 0.74022 0.02167 0.32509 0.0
H779 H 0.70374 1.01184 0.3456 0.0
H780 H 0.71595 0.97648 0.32521 0.0
H781 H 0.83701 0.04815 0.39138 0.0
H782 H 0.84155 1.01122 0.41221 0.0
H783 H 0.80141 0.03913 0.4126 0.0
C784 C 0.2333 0.45978 0.08134 0.0
C785 C 0.25821 0.43266 0.07531 0.0
C786 C 0.2434 0.49777 0.07923 0.0
C787 C 0.27863 0.50896 0.06988 0.0
C788 C 0.30164 0.48188 0.06075 0.0
C789 C 0.29155 0.44401 0.06398 0.0
C790 C 0.21784 0.52572 0.08913 0.0
C791 C 0.33832 0.49275 0.04929 0.0
C792 C 0.29148 0.61405 0.06607 0.0
C793 C 0.30844 0.6222 0.08757 0.0
C794 C 0.28457 0.577 0.05884 0.0
C795 C 0.29374 0.54768 0.07384 0.0
C796 C 0.31367 0.55586 0.09458 0.0
C797 C 0.3215 0.59298 0.10088 0.0
C798 C 0.26526 0.56953 0.03593 0.0
C799 C 0.32403 0.52554 0.11119 0.0
H800 H 0.20677 0.45139 0.08913 0.0
H801 H 0.31115 0.42363 0.05901 0.0
H802 H 0.23106 0.53935 0.10457 0.0
H803 H 0.21302 0.54778 0.07621 0.0
H804 H 0.1905 0.51267 0.09446 0.0
H805 H 0.34761 0.47026 0.03778 0.0
H806 H 0.3364 0.51858 0.0389 0.0
H807 H 0.35989 0.49808 0.0628 0.0
H808 H 0.28154 0.63638 0.0555 0.0
H809 H 0.33596 0.59909 0.11706 0.0
H810 H 0.23477 0.56679 0.03879 0.0
H811 H 0.27401 0.54335 0.02791 0.0
H812 H 0.27101 0.59281 0.02354 0.0
H813 H 0.29843 0.51043 0.11772 0.0
H814 H 0.34017 0.53664 0.12635 0.0
H815 H 0.3408 0.50503 0.10213 0.0
C816 C 0.42458 0.28362 0.66439 0.0
C817 C 0.4101 0.24736 0.6601 0.0
C818 C 0.46294 0.29131 0.66653 0.0
C819 C 0.48729 0.26188 0.66466 0.0
C820 C 0.47259 0.2248 0.66206 0.0
C821 C 0.43408 0.21802 0.65947 0.0
C822 C 0.47747 0.33129 0.6688 0.0
C823 C 0.49767 0.1926 0.66054 0.0
C824 C 0.58069 0.28374 0.63638 0.0
C825 C 0.60465 0.28739 0.65559 0.0
C826 C 0.54251 0.27596 0.63923 0.0
C827 C 0.5278 0.27052 0.66185 0.0
C828 C 0.55161 0.27377 0.68137 0.0
C829 C 0.58974 0.28258 0.67803 0.0
C830 C 0.51795 0.27328 0.61793 0.0
C831 C 0.53687 0.26751 0.70571 0.0
H832 H 0.40605 0.30641 0.66458 0.0
H833 H 0.42278 0.18996 0.65627 0.0
H834 H 0.49902 0.33411 0.68252 0.0
H835 H 0.49069 0.34048 0.65219 0.0
H836 H 0.455 0.35023 0.67293 0.0
H837 H 0.48191 0.16536 0.66234 0.0
H838 H 0.51205 0.1932 0.64347 0.0
H839 H 0.51937 0.19484 0.67422 0.0
H840 H 0.59181 0.28612 0.61891 0.0
H841 H 0.60785 0.28555 0.69302 0.0
H842 H 0.49516 0.2927 0.61952 0.0
H843 H 0.50492 0.24476 0.61642 0.0
H844 H 0.53358 0.27989 0.60166 0.0
H845 H 0.51547 0.28765 0.70965 0.0
H846 H 0.55915 0.27044 0.71903 0.0
H847 H 0.52319 0.23923 0.7071 0.0
C848 C 0.73604 0.43463 0.06187 0.0
C849 C 0.7255 0.42726 0.08496 0.0
C850 C 0.74132 0.47149 0.05384 0.0
C851 C 0.73685 0.5013 0.06949 0.0
C852 C 0.72281 0.49381 0.09212 0.0
C853 C 0.71669 0.45691 0.09939 0.0
C854 C 0.7543 0.47825 0.0292 0.0
C855 C 0.71753 0.52462 0.10948 0.0
C856 C 0.80019 0.588 0.07102 0.0
C857 C 0.77471 0.61565 0.06755 0.0
C858 C 0.78895 0.55017 0.06974 0.0
C859 C 0.75163 0.53968 0.06396 0.0
C860 C 0.72723 0.56728 0.05728 0.0
C861 C 0.73882 0.605 0.05953 0.0
C862 C 0.81605 0.52167 0.07691 0.0
C863 C 0.68789 0.55718 0.0497 0.0
H864 H 0.74263 0.41184 0.05054 0.0
H865 H 0.70753 0.45123 0.11706 0.0
H866 H 0.74359 0.50426 0.02207 0.0
H867 H 0.78512 0.48099 0.02883 0.0
H868 H 0.74531 0.45465 0.01771 0.0
H869 H 0.70496 0.5141 0.12601 0.0
H870 H 0.74484 0.53896 0.11347 0.0
H871 H 0.69944 0.54562 0.10211 0.0
H872 H 0.82839 0.59589 0.0763 0.0
H873 H 0.71874 0.62586 0.0566 0.0
H874 H 0.8167 0.49918 0.0638 0.0
H875 H 0.8069 0.50875 0.09363 0.0
H876 H 0.84473 0.5341 0.07915 0.0
H877 H 0.68649 0.53118 0.0393 0.0
H878 H 0.67632 0.57982 0.03926 0.0
H879 H 0.67 0.55251 0.06524 0.0
C880 C 0.57662 0.8178 0.65231 0.0
C881 C 0.60023 0.78824 0.65382 0.0
C882 C 0.53805 0.81164 0.655 0.0
C883 C 0.52296 0.77495 0.65869 0.0
C884 C 0.5469 0.74532 0.66125 0.0
C885 C 0.58531 0.75239 0.65892 0.0
C886 C 0.51336 0.84402 0.65263 0.0
C887 C 0.53188 0.70572 0.66472 0.0
C888 C 0.42081 0.75706 0.67386 0.0
C889 C 0.40518 0.75062 0.65177 0.0
C890 C 0.45913 0.76545 0.67647 0.0
C891 C 0.48232 0.76671 0.65659 0.0
C892 C 0.46685 0.75963 0.63435 0.0
C893 C 0.42852 0.75219 0.6322 0.0
C894 C 0.47474 0.77338 0.70041 0.0
C895 C 0.49075 0.76023 0.61272 0.0
H896 H 0.58827 0.84554 0.64852 0.0
H897 H 0.60357 0.72942 0.6598 0.0
H898 H 0.49834 0.84203 0.63581 0.0
H899 H 0.49216 0.84334 0.66665 0.0
H900 H 0.52949 0.87119 0.65324 0.0
H901 H 0.55418 0.68667 0.66901 0.0
H902 H 0.51084 0.70416 0.67882 0.0
H903 H 0.51788 0.69565 0.64856 0.0
H904 H 0.4031 0.75572 0.6891 0.0
H905 H 0.41679 0.74849 0.61497 0.0
H906 H 0.48883 0.80155 0.70079 0.0
H907 H 0.49598 0.75324 0.7047 0.0
H908 H 0.45289 0.77179 0.71407 0.0
H909 H 0.50425 0.78837 0.61022 0.0
H910 H 0.4745 0.7527 0.59685 0.0
H911 H 0.51319 0.74048 0.61462 0.0
C912 C 0.29262 0.43197 0.84559 0.0
C913 C 0.25719 0.41666 0.85123 0.0
C914 C 0.2991 0.47045 0.84321 0.0
C915 C 0.26919 0.49396 0.8461 0.0
C916 C 0.23285 0.47838 0.85037 0.0
C917 C 0.22737 0.43977 0.85329 0.0
C918 C 0.3384 0.486 0.8393 0.0
C919 C 0.20014 0.5026 0.85296 0.0
C920 C 0.29113 0.58946 0.87135 0.0
C921 C 0.29237 0.61216 0.85147 0.0
C922 C 0.28413 0.55099 0.8697 0.0
C923 C 0.27685 0.53474 0.84769 0.0
C924 C 0.27758 0.55726 0.82753 0.0
C925 C 0.28586 0.59569 0.82961 0.0
C926 C 0.28432 0.52776 0.8916 0.0
C927 C 0.2692 0.54083 0.80385 0.0
H928 H 0.31571 0.41392 0.84429 0.0
H929 H 0.19999 0.42769 0.85757 0.0
H930 H 0.33936 0.50648 0.82488 0.0
H931 H 0.34845 0.50086 0.85518 0.0
H932 H 0.35779 0.4639 0.83524 0.0
H933 H 0.17322 0.48604 0.85278 0.0
H934 H 0.20239 0.51801 0.86964 0.0
H935 H 0.20007 0.52351 0.83878 0.0
H936 H 0.29482 0.60175 0.88842 0.0
H937 H 0.28702 0.6128 0.81411 0.0
H938 H 0.3041 0.50534 0.88972 0.0
H939 H 0.25634 0.51421 0.89459 0.0
H940 H 0.29226 0.54454 0.90719 0.0
H941 H 0.28969 0.51997 0.79949 0.0
H942 H 0.26981 0.56232 0.78997 0.0
H943 H 0.24133 0.52609 0.80398 0.0
C944 C 0.58447 0.2776 0.40377 0.0
C945 C 0.6109 0.2958 0.41826 0.0
C946 C 0.5472 0.27278 0.41039 0.0
C947 C 0.53589 0.28575 0.43239 0.0
C948 C 0.56268 0.30238 0.44773 0.0
C949 C 0.59995 0.30748 0.4404 0.0
C950 C 0.51973 0.25478 0.39339 0.0
C951 C 0.55198 0.3159 0.4715 0.0
C952 C 0.43581 0.30656 0.42603 0.0
C953 C 0.41881 0.2714 0.43049 0.0
C954 C 0.47399 0.31345 0.42957 0.0
C955 C 0.49545 0.28437 0.43781 0.0
C956 C 0.47735 0.2506 0.44546 0.0
C957 C 0.43903 0.24424 0.4414 0.0
C958 C 0.49195 0.34998 0.42136 0.0
C959 C 0.49907 0.2196 0.45533 0.0
H960 H 0.59291 0.2672 0.38701 0.0
H961 H 0.62024 0.32133 0.45179 0.0
H962 H 0.50537 0.22992 0.40137 0.0
H963 H 0.49819 0.27451 0.38888 0.0
H964 H 0.53323 0.24607 0.37705 0.0
H965 H 0.57628 0.31772 0.4834 0.0
H966 H 0.54124 0.34411 0.46994 0.0
H967 H 0.52977 0.2974 0.47938 0.0
H968 H 0.41989 0.32749 0.4176 0.0
H969 H 0.42573 0.21706 0.44485 0.0
H970 H 0.50592 0.34572 0.40443 0.0
H971 H 0.5134 0.36055 0.43385 0.0
H972 H 0.47125 0.37149 0.419 0.0
H973 H 0.51174 0.20419 0.44091 0.0
H974 H 0.4809 0.19963 0.46548 0.0
H975 H 0.52192 0.23084 0.46667 0.0
C976 C 0.79563 0.58028 0.87338 0.0
C977 C 0.80176 0.60599 0.85525 0.0
C978 C 0.79097 0.54206 0.86892 0.0
C979 C 0.79155 0.52916 0.8457 0.0
C980 C 0.7983 0.55471 0.8273 0.0
C981 C 0.80375 0.59278 0.83232 0.0
C982 C 0.78449 0.51557 0.88908 0.0
C983 C 0.79871 0.54195 0.80231 0.0
C984 C 0.806 0.42617 0.84019 0.0
C985 C 0.76921 0.41135 0.84031 0.0
C986 C 0.81384 0.46473 0.84066 0.0
C987 C 0.78412 0.4889 0.84091 0.0
C988 C 0.74697 0.47407 0.83931 0.0
C989 C 0.73992 0.43536 0.83932 0.0
C990 C 0.85378 0.47937 0.84276 0.0
C991 C 0.71458 0.49902 0.83901 0.0
H992 H 0.7932 0.59 0.89111 0.0
H993 H 0.80907 0.61227 0.8182 0.0
H994 H 0.75616 0.50201 0.88792 0.0
H995 H 0.80457 0.49326 0.88839 0.0
H996 H 0.7873 0.52982 0.90616 0.0
H997 H 0.80549 0.56521 0.79007 0.0
H998 H 0.8193 0.52042 0.79996 0.0
H999 H 0.77106 0.52899 0.79765 0.0
H1000 H 0.82866 0.40757 0.84133 0.0
H1001 H 0.71149 0.4238 0.83938 0.0
H1002 H 0.8587 0.4904 0.86057 0.0
H1003 H 0.85973 0.50265 0.83045 0.0
H1004 H 0.87368 0.45742 0.83944 0.0
H1005 H 0.71151 0.51185 0.85639 0.0
H1006 H 0.68804 0.48352 0.83456 0.0
H1007 H 0.71959 0.52194 0.8263 0.0
C1008 C 0.44277 0.70629 0.41715 0.0
C1009 C 0.41999 0.73638 0.41968 0.0
C1010 C 0.48144 0.7111 0.41998 0.0
C1011 C 0.49754 0.74702 0.42485 0.0
C1012 C 0.47432 0.77672 0.42933 0.0
C1013 C 0.43576 0.77096 0.42682 0.0
C1014 C 0.50519 0.67849 0.4157 0.0
C1015 C 0.49027 0.81558 0.43422 0.0
C1016 C 0.60189 0.76455 0.43364 0.0
C1017 C 0.61352 0.77368 0.41093 0.0
C1018 C 0.56427 0.75502 0.43854 0.0
C1019 C 0.53777 0.75527 0.42038 0.0
C1020 C 0.54939 0.76436 0.39749 0.0
C1021 C 0.58702 0.77283 0.39303 0.0
C1022 C 0.55288 0.74471 0.46305 0.0
C1023 C 0.52204 0.76525 0.37759 0.0
H1024 H 0.43052 0.67944 0.41186 0.0
H1025 H 0.41825 0.79439 0.4286 0.0
H1026 H 0.51732 0.68068 0.39798 0.0
H1027 H 0.52855 0.67845 0.42825 0.0
H1028 H 0.48876 0.65155 0.417 0.0
H1029 H 0.4689 0.83386 0.44107 0.0
H1030 H 0.51344 0.8151 0.44687 0.0
H1031 H 0.50165 0.828 0.41786 0.0
H1032 H 0.6221 0.76504 0.44758 0.0
H1033 H 0.59569 0.77832 0.37527 0.0
H1034 H 0.53766 0.71708 0.4632 0.0
H1035 H 0.53364 0.76513 0.4699 0.0
H1036 H 0.57713 0.74385 0.47492 0.0
H1037 H 0.5082 0.73728 0.37508 0.0
H1038 H 0.53555 0.77405 0.36096 0.0
H1039 H 0.50006 0.78475 0.38162 0.0
C1040 C 0.25969 0.21772 0.04994 0.0
C1041 C 0.28943 0.20961 0.06443 0.0
C1042 C 0.26198 0.21344 0.02582 0.0
C1043 C 0.29517 0.20134 0.0158 0.0
C1044 C 0.32435 0.19052 0.03047 0.0
C1045 C 0.32104 0.19458 0.05475 0.0
C1046 C 0.22988 0.22477 0.01098 0.0
C1047 C 0.36013 0.17746 0.02051 0.0
C1048 C 0.28701 0.18673 0.95042 0.0
C1049 C 0.29644 0.2228 0.94246 0.0
C1050 C 0.28894 0.17818 0.9743 0.0
C1051 C 0.30099 0.20628 0.9903 0.0
C1052 C 0.31346 0.24177 0.9819 0.0
C1053 C 0.31073 0.24963 0.95815 0.0
C1054 C 0.27547 0.14002 0.98253 0.0
C1055 C 0.32706 0.27249 0.99818 0.0
H1056 H 0.235 0.22891 0.05746 0.0
H1057 H 0.34409 0.18836 0.06596 0.0
H1058 H 0.23774 0.2513 0.00195 0.0
H1059 H 0.22319 0.2035 0.99746 0.0
H1060 H 0.20446 0.22881 0.02144 0.0
H1061 H 0.37671 0.1633 0.03381 0.0
H1062 H 0.35456 0.15819 0.00573 0.0
H1063 H 0.3771 0.20179 0.01381 0.0
H1064 H 0.27593 0.16597 0.93828 0.0
H1065 H 0.31854 0.27742 0.95194 0.0
H1066 H 0.24722 0.14151 0.99007 0.0
H1067 H 0.29385 0.12984 0.99634 0.0
H1068 H 0.27404 0.11954 0.96807 0.0
H1069 H 0.30333 0.28208 0.00849 0.0
H1070 H 0.33999 0.29678 0.9887 0.0
H1071 H 0.3477 0.26215 0.01058 0.0
C1072 C 0.82296 0.27718 0.4498 0.0
C1073 C 0.80252 0.24493 0.44261 0.0
C1074 C 0.83055 0.28364 0.47349 0.0
C1075 C 0.8169 0.25751 0.49028 0.0
C1076 C 0.79962 0.22332 0.48286 0.0
C1077 C 0.79295 0.21734 0.45912 0.0
C1078 C 0.85027 0.31985 0.48064 0.0
C1079 C 0.78457 0.19461 0.50008 0.0
C1080 C 0.83236 0.26427 0.55577 0.0
C1081 C 0.79948 0.28021 0.56283 0.0
C1082 C 0.83982 0.25861 0.532 0.0
C1083 C 0.81349 0.26861 0.51511 0.0
C1084 C 0.78117 0.28628 0.5222 0.0
C1085 C 0.77477 0.29206 0.54587 0.0
C1086 C 0.875 0.2405 0.52511 0.0
C1087 C 0.75216 0.29731 0.50488 0.0
H1088 H 0.83104 0.29846 0.43717 0.0
H1089 H 0.77782 0.19195 0.45374 0.0
H1090 H 0.8295 0.33947 0.48658 0.0
H1091 H 0.86956 0.31551 0.49531 0.0
H1092 H 0.86618 0.33299 0.46597 0.0
H1093 H 0.7763 0.16773 0.49158 0.0
H1094 H 0.80549 0.18951 0.51367 0.0
H1095 H 0.75978 0.20515 0.50888 0.0
H1096 H 0.85168 0.25523 0.56878 0.0
H1097 H 0.74945 0.30477 0.5511 0.0
H1098 H 0.88736 0.25371 0.50927 0.0
H1099 H 0.86846 0.21073 0.5211 0.0
H1100 H 0.89598 0.24209 0.53927 0.0
H1101 H 0.76507 0.31565 0.49129 0.0
H1102 H 0.72931 0.31207 0.51319 0.0
H1103 H 0.7399 0.27212 0.49606 0.0
C1104 C 0.76191 0.84582 0.94639 0.0
C1105 C 0.76399 0.8078 0.94153 0.0
C1106 C 0.7568 0.85821 0.96936 0.0
C1107 C 0.75359 0.8319 0.9877 0.0
C1108 C 0.7539 0.79343 0.98259 0.0
C1109 C 0.75918 0.78195 0.95965 0.0
C1110 C 0.7565 0.8994 0.97412 0.0
C1111 C 0.75032 0.76425 0.00151 0.0
C1112 C 0.78792 0.84484 0.04897 0.0
C1113 C 0.75451 0.8423 0.06143 0.0
C1114 C 0.78804 0.84593 0.02464 0.0
C1115 C 0.75379 0.84372 0.01252 0.0
C1116 C 0.72 0.84492 0.02512 0.0
C1117 C 0.72075 0.84414 0.04959 0.0
C1118 C 0.82477 0.84499 0.01203 0.0
C1119 C 0.68294 0.84298 0.01288 0.0
H1120 H 0.76549 0.8659 0.93242 0.0
H1121 H 0.76019 0.75247 0.95598 0.0
H1122 H 0.73376 0.90549 0.98633 0.0
H1123 H 0.78309 0.90895 0.98244 0.0
H1124 H 0.75315 0.91571 0.95792 0.0
H1125 H 0.7486 0.7355 0.99443 0.0
H1126 H 0.7747 0.76709 0.01328 0.0
H1127 H 0.72513 0.76822 0.01215 0.0
H1128 H 0.81401 0.84314 0.05822 0.0
H1129 H 0.69491 0.84166 0.05929 0.0
H1130 H 0.82537 0.8638 0.99675 0.0
H1131 H 0.82851 0.81635 0.0056 0.0
H1132 H 0.84859 0.85314 0.02353 0.0
H1133 H 0.68401 0.86018 0.99687 0.0
H1134 H 0.66041 0.8524 0.02432 0.0
H1135 H 0.67582 0.81378 0.00769 0.0
C1136 C 0.20471 0.74649 0.44839 0.0
C1137 C 0.2029 0.7808 0.43705 0.0
C1138 C 0.201 0.74367 0.47259 0.0
C1139 C 0.19653 0.77619 0.48593 0.0
C1140 C 0.19255 0.81065 0.47442 0.0
C1141 C 0.19537 0.81246 0.45 0.0
C1142 C 0.20461 0.70623 0.48399 0.0
C1143 C 0.18841 0.84609 0.48794 0.0
C1144 C 0.17882 0.76372 0.55112 0.0
C1145 C 0.2153 0.76506 0.55967 0.0
C1146 C 0.17193 0.76803 0.52714 0.0
C1147 C 0.20219 0.77481 0.51162 0.0
C1148 C 0.2389 0.7777 0.52048 0.0
C1149 C 0.24497 0.77234 0.54426 0.0
C1150 C 0.1325 0.76402 0.51832 0.0
C1151 C 0.27203 0.78565 0.50474 0.0
H1152 H 0.21031 0.72192 0.43833 0.0
H1153 H 0.19428 0.83906 0.44123 0.0
H1154 H 0.2322 0.70547 0.49249 0.0
H1155 H 0.18311 0.70148 0.49765 0.0
H1156 H 0.20199 0.68307 0.47123 0.0
H1157 H 0.1799 0.86917 0.47663 0.0
H1158 H 0.16769 0.84176 0.50208 0.0
H1159 H 0.21541 0.85461 0.49615 0.0
H1160 H 0.15585 0.75815 0.56302 0.0
H1161 H 0.27321 0.77407 0.55085 0.0
H1162 H 0.12911 0.73875 0.50732 0.0
H1163 H 0.12623 0.78814 0.50725 0.0
H1164 H 0.1119 0.76169 0.5327 0.0
H1165 H 0.27507 0.76196 0.49268 0.0
H1166 H 0.29836 0.79017 0.51463 0.0
H1167 H 0.26783 0.8107 0.49401 0.0
C1168 C 0.2574 0.83504 0.94653 0.0
C1169 C 0.28481 0.81175 0.93873 0.0
C1170 C 0.24966 0.83823 0.97049 0.0
C1171 C 0.26972 0.81754 0.98681 0.0
C1172 C 0.29925 0.79631 0.97897 0.0
C1173 C 0.30641 0.79379 0.95511 0.0
C1174 C 0.21845 0.86172 0.97815 0.0
C1175 C 0.32156 0.77386 0.99561 0.0
C1176 C 0.26968 0.82619 0.05269 0.0
C1177 C 0.2468 0.79497 0.05901 0.0
C1178 C 0.2751 0.83597 0.02917 0.0
C1179 C 0.25752 0.81384 0.01158 0.0
C1180 C 0.23231 0.78402 0.01798 0.0
C1181 C 0.22717 0.77508 0.04156 0.0
C1182 C 0.30158 0.86845 0.02316 0.0
C1183 C 0.21291 0.75961 0.99987 0.0
H1184 H 0.24051 0.84886 0.93395 0.0
H1185 H 0.3279 0.77602 0.94917 0.0
H1186 H 0.19356 0.84339 0.98224 0.0
H1187 H 0.22616 0.87751 0.99415 0.0
H1188 H 0.21082 0.8816 0.9644 0.0
H1189 H 0.34542 0.76124 0.98695 0.0
H1190 H 0.33234 0.79158 0.01012 0.0
H1191 H 0.30337 0.75116 0.00326 0.0
H1192 H 0.28477 0.84199 0.06601 0.0
H1193 H 0.20907 0.7512 0.04619 0.0
H1194 H 0.29033 0.88508 0.0088 0.0
H1195 H 0.32835 0.85794 0.01715 0.0
H1196 H 0.30723 0.88691 0.03836 0.0
H1197 H 0.19964 0.77685 0.98658 0.0
H1198 H 0.1913 0.74015 0.00759 0.0
H1199 H 0.23364 0.74301 0.99083 0.0
C1200 C 0.21289 0.2768 0.44603 0.0
C1201 C 0.2354 0.30726 0.43814 0.0
C1202 C 0.20411 0.27271 0.46974 0.0
C1203 C 0.21813 0.29973 0.48582 0.0
C1204 C 0.23702 0.33261 0.47751 0.0
C1205 C 0.24545 0.33596 0.45377 0.0
C1206 C 0.18337 0.23749 0.47778 0.0
C1207 C 0.25207 0.36239 0.49396 0.0
C1208 C 0.19876 0.29236 0.55107 0.0
C1209 C 0.2307 0.27537 0.55874 0.0
C1210 C 0.1935 0.29982 0.52725 0.0
C1211 C 0.22085 0.29003 0.51092 0.0
C1212 C 0.25257 0.27199 0.51864 0.0
C1213 C 0.25704 0.26496 0.54234 0.0
C1214 C 0.1593 0.31898 0.51965 0.0
C1215 C 0.28243 0.2608 0.50191 0.0
H1216 H 0.20459 0.25463 0.43408 0.0
H1217 H 0.26225 0.35996 0.44776 0.0
H1218 H 0.20355 0.21795 0.4846 0.0
H1219 H 0.16376 0.24334 0.49203 0.0
H1220 H 0.16766 0.2235 0.46334 0.0
H1221 H 0.25978 0.38881 0.48473 0.0
H1222 H 0.23145 0.36801 0.50767 0.0
H1223 H 0.27729 0.35269 0.50267 0.0
H1224 H 0.1783 0.30044 0.56367 0.0
H1225 H 0.28167 0.25148 0.54804 0.0
H1226 H 0.14613 0.30443 0.50453 0.0
H1227 H 0.16733 0.34779 0.51405 0.0
H1228 H 0.13848 0.32027 0.53385 0.0
H1229 H 0.27011 0.24239 0.48817 0.0
H1230 H 0.3048 0.246 0.51069 0.0
H1231 H 0.29522 0.28586 0.49321 0.0
C1232 C 0.75032 0.221 0.05159 0.0
C1233 C 0.78371 0.21944 0.06397 0.0
C1234 C 0.74965 0.21793 0.02729 0.0
C1235 C 0.78333 0.21402 0.01503 0.0
C1236 C 0.81681 0.2103 0.02753 0.0
C1237 C 0.81653 0.21272 0.05192 0.0
C1238 C 0.71323 0.22131 0.01468 0.0
C1239 C 0.85339 0.20666 0.01513 0.0
C1240 C 0.77869 0.19509 0.94981 0.0
C1241 C 0.78129 0.23139 0.94092 0.0
C1242 C 0.77967 0.18872 0.97395 0.0
C1243 C 0.78422 0.21937 0.98935 0.0
C1244 C 0.78816 0.25594 0.98028 0.0
C1245 C 0.78623 0.26148 0.95624 0.0
C1246 C 0.7747 0.14943 0.98302 0.0
C1247 C 0.79379 0.28941 0.99601 0.0
H1248 H 0.7248 0.22585 0.06087 0.0
H1249 H 0.84246 0.21167 0.06139 0.0
H1250 H 0.71308 0.24886 0.00602 0.0
H1251 H 0.70979 0.19974 0.00097 0.0
H1252 H 0.68903 0.21863 0.02667 0.0
H1253 H 0.87581 0.199 0.0272 0.0
H1254 H 0.85061 0.18545 0.00118 0.0
H1255 H 0.86191 0.23359 0.00679 0.0
H1256 H 0.77471 0.17181 0.93795 0.0
H1257 H 0.78868 0.28958 0.94939 0.0
H1258 H 0.74854 0.14632 0.99321 0.0
H1259 H 0.7978 0.14329 0.99492 0.0
H1260 H 0.77354 0.12855 0.96879 0.0
H1261 H 0.76889 0.29207 0.00712 0.0
H1262 H 0.79876 0.3157 0.9861 0.0
H1263 H 0.81782 0.28586 0.00771 0.0
C1264 C 0.80928 0.74372 0.44733 0.0
C1265 C 0.81842 0.77898 0.43802 0.0
C1266 C 0.81274 0.7373 0.47137 0.0
C1267 C 0.82561 0.76685 0.48612 0.0
C1268 C 0.83972 0.80067 0.47613 0.0
C1269 C 0.83571 0.80638 0.45219 0.0
C1270 C 0.79818 0.70052 0.48121 0.0
C1271 C 0.85419 0.83282 0.49099 0.0
C1272 C 0.77082 0.7826 0.54102 0.0
C1273 C 0.79552 0.77313 0.55862 0.0
C1274 C 0.78011 0.77954 0.51753 0.0
C1275 C 0.81514 0.76652 0.51121 0.0
C1276 C 0.84009 0.75611 0.52883 0.0
C1277 C 0.83004 0.75972 0.55242 0.0
C1278 C 0.75249 0.79114 0.49945 0.0
C1279 C 0.87751 0.74183 0.52279 0.0
H1280 H 0.79588 0.72248 0.43638 0.0
H1281 H 0.84309 0.83358 0.44489 0.0
H1282 H 0.81506 0.69223 0.49629 0.0
H1283 H 0.76921 0.70315 0.48735 0.0
H1284 H 0.79802 0.67816 0.4679 0.0
H1285 H 0.87073 0.85387 0.48064 0.0
H1286 H 0.83033 0.84658 0.49884 0.0
H1287 H 0.87168 0.82306 0.50536 0.0
H1288 H 0.744 0.79286 0.54556 0.0
H1289 H 0.84914 0.75208 0.56594 0.0
H1290 H 0.74597 0.76791 0.48721 0.0
H1291 H 0.76467 0.81488 0.48918 0.0
H1292 H 0.72605 0.79962 0.5073 0.0
H1293 H 0.87472 0.72056 0.50886 0.0
H1294 H 0.8911 0.72953 0.5381 0.0
H1295 H 0.89599 0.76505 0.5161 0.0
C1296 C 0.59558 0.28506 0.14771 0.0
C1297 C 0.61092 0.2597 0.13246 0.0
C1298 C 0.55718 0.29124 0.14728 0.0
C1299 C 0.53375 0.27236 0.13076 0.0
C1300 C 0.54947 0.24743 0.11494 0.0
C1301 C 0.58762 0.24111 0.11618 0.0
C1302 C 0.54157 0.31754 0.16472 0.0
C1303 C 0.52601 0.22753 0.09658 0.0
C1304 C 0.42826 0.2625 0.14001 0.0
C1305 C 0.41604 0.29242 0.12699 0.0
C1306 C 0.46647 0.2559 0.14167 0.0
C1307 C 0.49303 0.27923 0.12956 0.0
C1308 C 0.48056 0.30884 0.11589 0.0
C1309 C 0.44241 0.31529 0.11501 0.0
C1310 C 0.47849 0.22442 0.15675 0.0
C1311 C 0.50754 0.33376 0.10213 0.0
H1312 H 0.61346 0.29919 0.16042 0.0
H1313 H 0.59949 0.22179 0.10418 0.0
H1314 H 0.52892 0.34087 0.15559 0.0
H1315 H 0.5192 0.30281 0.17499 0.0
H1316 H 0.56315 0.3292 0.17686 0.0
H1317 H 0.5426 0.2097 0.08525 0.0
H1318 H 0.50359 0.20986 0.1049 0.0
H1319 H 0.51242 0.24812 0.08552 0.0
H1320 H 0.408 0.24506 0.14949 0.0
H1321 H 0.43301 0.33825 0.10478 0.0
H1322 H 0.49811 0.2354 0.17027 0.0
H1323 H 0.49348 0.20432 0.14612 0.0
H1324 H 0.45459 0.20932 0.16543 0.0
H1325 H 0.52765 0.34837 0.11402 0.0
H1326 H 0.4933 0.35489 0.09183 0.0
H1327 H 0.52377 0.31679 0.09009 0.0
C1328 C 0.81867 0.46016 0.62086 0.0
C1329 C 0.7909 0.43476 0.62927 0.0
C1330 C 0.81272 0.49844 0.61923 0.0
C1331 C 0.77837 0.51194 0.62659 0.0
C1332 C 0.75044 0.48647 0.63545 0.0
C1333 C 0.7569 0.44823 0.63647 0.0
C1334 C 0.84296 0.52433 0.60919 0.0
C1335 C 0.71364 0.49962 0.64382 0.0
C1336 C 0.77282 0.61591 0.63947 0.0
C1337 C 0.75469 0.62838 0.61961 0.0
C1338 C 0.78073 0.57814 0.64204 0.0
C1339 C 0.77102 0.55238 0.62408 0.0
C1340 C 0.75373 0.56521 0.6037 0.0
C1341 C 0.74549 0.60284 0.60183 0.0
C1342 C 0.79865 0.56561 0.66419 0.0
C1343 C 0.74365 0.53911 0.58388 0.0
H1344 H 0.84484 0.44992 0.61502 0.0
H1345 H 0.73552 0.42885 0.64325 0.0
H1346 H 0.83259 0.53794 0.59333 0.0
H1347 H 0.85074 0.5467 0.6218 0.0
H1348 H 0.8683 0.50961 0.60459 0.0
H1349 H 0.69555 0.47665 0.6513 0.0
H1350 H 0.71831 0.52154 0.65722 0.0
H1351 H 0.69867 0.51217 0.62918 0.0
H1352 H 0.77969 0.63549 0.65331 0.0
H1353 H 0.73193 0.61246 0.58632 0.0
H1354 H 0.82491 0.55216 0.66019 0.0
H1355 H 0.77996 0.54453 0.67302 0.0
H1356 H 0.80485 0.58905 0.67639 0.0
H1357 H 0.76861 0.52494 0.57799 0.0
H1358 H 0.73186 0.55376 0.56881 0.0
H1359 H 0.72296 0.51721 0.58982 0.0
C1360 C 0.6159 0.79021 0.12983 0.0
C1361 C 0.62723 0.75631 0.12096 0.0
C1362 C 0.57795 0.79829 0.13043 0.0
C1363 C 0.55061 0.77217 0.12154 0.0
C1364 C 0.56209 0.73827 0.11211 0.0
C1365 C 0.60004 0.73069 0.1121 0.0
C1366 C 0.56703 0.83456 0.1409 0.0
C1367 C 0.53426 0.70992 0.10195 0.0
C1368 C 0.44838 0.77499 0.13984 0.0
C1369 C 0.43298 0.79421 0.12127 0.0
C1370 C 0.48665 0.76825 0.14039 0.0
C1371 C 0.51009 0.78035 0.12171 0.0
C1372 C 0.49451 0.79933 0.10279 0.0
C1373 C 0.45638 0.80625 0.10289 0.0
C1374 C 0.50205 0.74834 0.16105 0.0
C1375 C 0.51804 0.81201 0.08225 0.0
H1376 H 0.63666 0.80996 0.1369 0.0
H1377 H 0.60857 0.70467 0.10492 0.0
H1378 H 0.5523 0.85091 0.12779 0.0
H1379 H 0.54748 0.82897 0.15556 0.0
H1380 H 0.59143 0.8517 0.14736 0.0
H1381 H 0.54769 0.68522 0.09491 0.0
H1382 H 0.51386 0.70045 0.11544 0.0
H1383 H 0.51847 0.72275 0.08776 0.0
H1384 H 0.43061 0.76591 0.15417 0.0
H1385 H 0.44467 0.82063 0.08832 0.0
H1386 H 0.52503 0.76572 0.16901 0.0
H1387 H 0.51384 0.72198 0.15535 0.0
H1388 H 0.48055 0.74181 0.17451 0.0
H1389 H 0.54128 0.83121 0.08811 0.0
H1390 H 0.50178 0.82642 0.06891 0.0
H1391 H 0.53053 0.78773 0.07404 0.0
C1392 C 0.23401 0.42228 0.64241 0.0
C1393 C 0.25844 0.41015 0.62535 0.0
C1394 C 0.22494 0.45996 0.64368 0.0
C1395 C 0.24005 0.48604 0.62721 0.0
C1396 C 0.26385 0.47354 0.60956 0.0
C1397 C 0.2729 0.43602 0.60897 0.0
C1398 C 0.19984 0.47206 0.66294 0.0
C1399 C 0.28004 0.49991 0.59132 0.0
C1400 C 0.19378 0.57773 0.6164 0.0
C1401 C 0.21781 0.60368 0.6279 0.0
C1402 C 0.2003 0.53946 0.61634 0.0
C1403 C 0.2314 0.52642 0.62835 0.0
C1404 C 0.25538 0.55239 0.64038 0.0
C1405 C 0.24848 0.59061 0.63987 0.0
C1406 C 0.17437 0.51308 0.6029 0.0
C1407 C 0.28862 0.53982 0.65364 0.0
H1408 H 0.22298 0.4025 0.65519 0.0
H1409 H 0.29134 0.42675 0.59553 0.0
H1410 H 0.21489 0.49333 0.67386 0.0
H1411 H 0.1753 0.48516 0.65552 0.0
H1412 H 0.19002 0.44846 0.67421 0.0
H1413 H 0.29698 0.48559 0.57828 0.0
H1414 H 0.2574 0.51363 0.58214 0.0
H1415 H 0.29786 0.52214 0.59971 0.0
H1416 H 0.17029 0.58751 0.60686 0.0
H1417 H 0.26693 0.61028 0.64906 0.0
H1418 H 0.16312 0.49046 0.61443 0.0
H1419 H 0.18992 0.49985 0.58874 0.0
H1420 H 0.15073 0.52732 0.59514 0.0
H1421 H 0.27975 0.51777 0.66627 0.0
H1422 H 0.30333 0.56304 0.66319 0.0
H1423 H 0.30851 0.52762 0.64146 0.0
C1424 C 0.60827 0.76014 0.89606 0.0
C1425 C 0.63301 0.76686 0.87748 0.0
C1426 C 0.57067 0.76859 0.89447 0.0
C1427 C 0.55694 0.78346 0.87355 0.0
C1428 C 0.58198 0.79092 0.85481 0.0
C1429 C 0.61981 0.78293 0.85711 0.0
C1430 C 0.54548 0.76099 0.91512 0.0
C1431 C 0.56854 0.80621 0.83209 0.0
C1432 C 0.45223 0.76706 0.86369 0.0
C1433 C 0.43866 0.80167 0.86959 0.0
C1434 C 0.49062 0.76112 0.86424 0.0
C1435 C 0.51626 0.79026 0.87129 0.0
C1436 C 0.50268 0.82526 0.87727 0.0
C1437 C 0.46423 0.83061 0.87616 0.0
C1438 C 0.50374 0.72353 0.85738 0.0
C1439 C 0.52872 0.85686 0.88539 0.0
H1440 H 0.61847 0.74804 0.91191 0.0
H1441 H 0.63879 0.78782 0.84267 0.0
H1442 H 0.53118 0.78648 0.91985 0.0
H1443 H 0.52366 0.73928 0.9106 0.0
H1444 H 0.56088 0.75148 0.93055 0.0
H1445 H 0.59153 0.8114 0.81942 0.0
H1446 H 0.54752 0.78627 0.82431 0.0
H1447 H 0.55475 0.83262 0.83508 0.0
H1448 H 0.43278 0.74472 0.85832 0.0
H1449 H 0.45402 0.8573 0.88098 0.0
H1450 H 0.51694 0.71038 0.87249 0.0
H1451 H 0.52511 0.72677 0.84352 0.0
H1452 H 0.48064 0.70448 0.85106 0.0
H1453 H 0.54298 0.84866 0.90154 0.0
H1454 H 0.51398 0.88263 0.88887 0.0
H1455 H 0.55055 0.86309 0.87213 0.0
C1456 C 0.30692 0.4403 0.37112 0.0
C1457 C 0.28067 0.4139 0.36212 0.0
C1458 C 0.29935 0.47816 0.37278 0.0
C1459 C 0.2649 0.49041 0.36472 0.0
C1460 C 0.2382 0.46383 0.35558 0.0
C1461 C 0.2462 0.42582 0.35469 0.0
C1462 C 0.32827 0.50503 0.38331 0.0
C1463 C 0.20144 0.47566 0.34638 0.0
C1464 C 0.23244 0.58292 0.38774 0.0
C1465 C 0.24448 0.60808 0.37031 0.0
C1466 C 0.23882 0.54474 0.38613 0.0
C1467 C 0.25687 0.53092 0.36627 0.0
C1468 C 0.26862 0.55618 0.34841 0.0
C1469 C 0.26279 0.59448 0.35081 0.0
C1470 C 0.22687 0.5193 0.40595 0.0
C1471 C 0.28723 0.54269 0.32672 0.0
H1472 H 0.33342 0.43113 0.37714 0.0
H1473 H 0.22599 0.40555 0.34758 0.0
H1474 H 0.33728 0.52646 0.37034 0.0
H1475 H 0.31616 0.51971 0.39824 0.0
H1476 H 0.35316 0.49091 0.38942 0.0
H1477 H 0.18402 0.45186 0.33935 0.0
H1478 H 0.18574 0.48903 0.3604 0.0
H1479 H 0.20627 0.49664 0.33241 0.0
H1480 H 0.21866 0.59336 0.40296 0.0
H1481 H 0.27181 0.61377 0.33722 0.0
H1482 H 0.2514 0.50584 0.41314 0.0
H1483 H 0.20723 0.4968 0.3996 0.0
H1484 H 0.21327 0.53435 0.4202 0.0
H1485 H 0.31399 0.53064 0.33127 0.0
H1486 H 0.29279 0.56538 0.31388 0.0
H1487 H 0.26948 0.5203 0.31843 0.0
C1488 C 0.43932 0.23604 0.86585 0.0
C1489 C 0.42686 0.2632 0.88101 0.0
C1490 C 0.47728 0.22818 0.86484 0.0
C1491 C 0.50324 0.24736 0.87972 0.0
C1492 C 0.4904 0.27386 0.89562 0.0
C1493 C 0.45257 0.2817 0.89588 0.0
C1494 C 0.48977 0.20015 0.8474 0.0
C1495 C 0.51673 0.29433 0.91221 0.0
C1496 C 0.59688 0.20604 0.89168 0.0
C1497 C 0.62129 0.22842 0.8779 0.0
C1498 C 0.55852 0.21174 0.89235 0.0
C1499 C 0.54386 0.24015 0.8786 0.0
C1500 C 0.56833 0.26257 0.86443 0.0
C1501 C 0.60672 0.25668 0.86443 0.0
C1502 C 0.53376 0.18775 0.90812 0.0
C1503 C 0.55392 0.29281 0.84924 0.0
H1504 H 0.41958 0.22201 0.85418 0.0
H1505 H 0.44295 0.30245 0.90777 0.0
H1506 H 0.50996 0.21387 0.83513 0.0
H1507 H 0.50425 0.17779 0.85636 0.0
H1508 H 0.46617 0.18729 0.83728 0.0
H1509 H 0.50207 0.31273 0.92425 0.0
H1510 H 0.53197 0.27416 0.92264 0.0
H1511 H 0.53772 0.31156 0.9023 0.0
H1512 H 0.60798 0.18445 0.90234 0.0
H1513 H 0.62533 0.27378 0.85357 0.0
H1514 H 0.51132 0.17322 0.89788 0.0
H1515 H 0.52022 0.20546 0.92106 0.0
H1516 H 0.54936 0.16662 0.91755 0.0
H1517 H 0.5318 0.28097 0.83757 0.0
H1518 H 0.57619 0.3067 0.83846 0.0
H1519 H 0.54127 0.31414 0.86019 0.0
C1520 C 0.75616 0.44739 0.38169 0.0
C1521 C 0.78967 0.43312 0.37422 0.0
C1522 C 0.75063 0.48591 0.38085 0.0
C1523 C 0.779 0.51088 0.37193 0.0
C1524 C 0.81272 0.49651 0.36414 0.0
C1525 C 0.8177 0.45802 0.36554 0.0
C1526 C 0.71443 0.49993 0.38961 0.0
C1527 C 0.84342 0.52177 0.35402 0.0
C1528 C 0.74968 0.60387 0.34797 0.0
C1529 C 0.7603 0.62888 0.36579 0.0
C1530 C 0.75603 0.56572 0.34964 0.0
C1531 C 0.77292 0.55176 0.36985 0.0
C1532 C 0.78404 0.57695 0.38786 0.0
C1533 C 0.77795 0.61524 0.38551 0.0
C1534 C 0.74447 0.54031 0.32975 0.0
C1535 C 0.80168 0.56332 0.40983 0.0
H1536 H 0.73454 0.42847 0.38866 0.0
H1537 H 0.84349 0.44726 0.35946 0.0
H1538 H 0.71998 0.52122 0.4033 0.0
H1539 H 0.69975 0.51355 0.37525 0.0
H1540 H 0.69573 0.47725 0.39685 0.0
H1541 H 0.86805 0.50636 0.34888 0.0
H1542 H 0.83304 0.53628 0.33849 0.0
H1543 H 0.85233 0.54346 0.36683 0.0
H1544 H 0.73641 0.61429 0.33257 0.0
H1545 H 0.78586 0.63435 0.39941 0.0
H1546 H 0.72329 0.51895 0.33578 0.0
H1547 H 0.76872 0.52542 0.32344 0.0
H1548 H 0.73274 0.55566 0.31495 0.0
H1549 H 0.78247 0.54253 0.41851 0.0
H1550 H 0.80867 0.58628 0.42223 0.0
H1551 H 0.82745 0.54917 0.40559 0.0
C1552 C 0.28865 0.23587 0.2964 0.0
C1553 C 0.25778 0.24489 0.30979 0.0
C1554 C 0.28704 0.23494 0.2721 0.0
C1555 C 0.25349 0.24262 0.26076 0.0
C1556 C 0.22149 0.24951 0.27417 0.0
C1557 C 0.22409 0.25091 0.2986 0.0
C1558 C 0.32203 0.22813 0.25857 0.0
C1559 C 0.18501 0.25703 0.26268 0.0
C1560 C 0.2652 0.28891 0.20189 0.0
C1561 C 0.26004 0.25877 0.18661 0.0
C1562 C 0.26255 0.28397 0.22598 0.0
C1563 C 0.25364 0.24807 0.2351 0.0
C1564 C 0.24774 0.21751 0.21973 0.0
C1565 C 0.25152 0.22315 0.19559 0.0
C1566 C 0.27011 0.31717 0.24168 0.0
C1567 C 0.23742 0.179 0.22882 0.0
H1568 H 0.31483 0.23095 0.30486 0.0
H1569 H 0.20007 0.25759 0.30884 0.0
H1570 H 0.31655 0.20615 0.24534 0.0
H1571 H 0.33143 0.25392 0.24921 0.0
H1572 H 0.34501 0.21971 0.26997 0.0
H1573 H 0.16164 0.25628 0.27532 0.0
H1574 H 0.18704 0.2849 0.2544 0.0
H1575 H 0.17854 0.23632 0.24878 0.0
H1576 H 0.27188 0.31649 0.19498 0.0
H1577 H 0.24699 0.19993 0.18375 0.0
H1578 H 0.29406 0.31221 0.25319 0.0
H1579 H 0.24572 0.32119 0.25301 0.0
H1580 H 0.27639 0.34326 0.23178 0.0
H1581 H 0.26046 0.16891 0.23948 0.0
H1582 H 0.23133 0.15875 0.21458 0.0
H1583 H 0.21266 0.17976 0.24027 0.0
C1584 C 0.81807 0.22482 0.80156 0.0
C1585 C 0.78092 0.2141 0.80671 0.0
C1586 C 0.83065 0.22684 0.77841 0.0
C1587 C 0.80561 0.21741 0.76009 0.0
C1588 C 0.76922 0.20301 0.76543 0.0
C1589 C 0.75726 0.20179 0.78864 0.0
C1590 C 0.86964 0.24229 0.77353 0.0
C1591 C 0.74177 0.19193 0.74651 0.0
C1592 C 0.80657 0.27158 0.70373 0.0
C1593 C 0.81991 0.24593 0.68786 0.0
C1594 C 0.80416 0.26343 0.7275 0.0
C1595 C 0.81472 0.22839 0.73566 0.0
C1596 C 0.83011 0.20309 0.7199 0.0
C1597 C 0.83277 0.2123 0.69612 0.0
C1598 C 0.78822 0.2916 0.74366 0.0
C1599 C 0.84151 0.16543 0.72787 0.0
H1600 H 0.83657 0.23437 0.81543 0.0
H1601 H 0.72865 0.19304 0.79254 0.0
H1602 H 0.8826 0.22662 0.75934 0.0
H1603 H 0.86864 0.27166 0.76779 0.0
H1604 H 0.88758 0.24151 0.78921 0.0
H1605 H 0.71675 0.17633 0.7535 0.0
H1606 H 0.73269 0.21728 0.73764 0.0
H1607 H 0.75492 0.17451 0.73326 0.0
H1608 H 0.79687 0.29775 0.6974 0.0
H1609 H 0.84284 0.1923 0.68385 0.0
H1610 H 0.80638 0.29613 0.75908 0.0
H1611 H 0.76055 0.28092 0.74999 0.0
H1612 H 0.7849 0.31882 0.73501 0.0
H1613 H 0.85763 0.16782 0.74427 0.0
H1614 H 0.85841 0.15167 0.71455 0.0
H1615 H 0.81625 0.1473 0.73141 0.0
C1616 C 0.78668 0.75024 0.19519 0.0
C1617 C 0.78725 0.78212 0.18114 0.0
C1618 C 0.78936 0.75291 0.21941 0.0
C1619 C 0.79335 0.78839 0.22993 0.0
C1620 C 0.79502 0.82078 0.21583 0.0
C1621 C 0.79154 0.81728 0.19152 0.0
C1622 C 0.78648 0.71768 0.23375 0.0
C1623 C 0.79984 0.85905 0.22644 0.0
C1624 C 0.75416 0.79153 0.29084 0.0
C1625 C 0.78582 0.78765 0.30467 0.0
C1626 C 0.75656 0.79312 0.2666 0.0
C1627 C 0.79162 0.79121 0.25573 0.0
C1628 C 0.82397 0.7884 0.26955 0.0
C1629 C 0.82067 0.78635 0.29395 0.0
C1630 C 0.72124 0.79539 0.2526 0.0
C1631 C 0.86188 0.7868 0.25853 0.0
H1632 H 0.78329 0.72294 0.18728 0.0
H1633 H 0.79245 0.84195 0.18068 0.0
H1634 H 0.81066 0.71658 0.2456 0.0
H1635 H 0.7611 0.71743 0.24473 0.0
H1636 H 0.78516 0.69221 0.22282 0.0
H1637 H 0.80448 0.8811 0.21308 0.0
H1638 H 0.77468 0.8651 0.23661 0.0
H1639 H 0.8237 0.8603 0.23866 0.0
H1640 H 0.72705 0.79256 0.29894 0.0
H1641 H 0.84523 0.7837 0.30456 0.0
H1642 H 0.71672 0.76985 0.24195 0.0
H1643 H 0.72363 0.81934 0.24046 0.0
H1644 H 0.6964 0.7984 0.26376 0.0
H1645 H 0.86358 0.76036 0.24878 0.0
H1646 H 0.88455 0.78853 0.27163 0.0
H1647 H 0.86647 0.80987 0.24588 0.0
C1648 C 0.21304 0.83188 0.80327 0.0
C1649 C 0.24721 0.8213 0.81208 0.0
C1650 C 0.20371 0.8259 0.7797 0.0
C1651 C 0.22943 0.80954 0.76462 0.0
C1652 C 0.26484 0.80108 0.77324 0.0
C1653 C 0.27309 0.80671 0.79683 0.0
C1654 C 0.16559 0.835 0.7713 0.0
C1655 C 0.29344 0.7842 0.75781 0.0
C1656 C 0.2025 0.74648 0.71393 0.0
C1657 C 0.21278 0.76886 0.69478 0.0
C1658 C 0.20497 0.7604 0.73671 0.0
C1659 C 0.21862 0.79754 0.74055 0.0
C1660 C 0.2266 0.82105 0.7212 0.0
C1661 C 0.22334 0.8065 0.69851 0.0
C1662 C 0.19548 0.73445 0.75673 0.0
C1663 C 0.24137 0.86072 0.72444 0.0
H1664 H 0.1928 0.84281 0.81505 0.0
H1665 H 0.29964 0.79868 0.80354 0.0
H1666 H 0.16751 0.85018 0.75452 0.0
H1667 H 0.14867 0.80878 0.76826 0.0
H1668 H 0.15082 0.85201 0.7841 0.0
H1669 H 0.32082 0.78275 0.76655 0.0
H1670 H 0.28359 0.75559 0.75279 0.0
H1671 H 0.29732 0.80064 0.74159 0.0
H1672 H 0.19399 0.71747 0.71118 0.0
H1673 H 0.23147 0.82399 0.68383 0.0
H1674 H 0.17782 0.74816 0.76963 0.0
H1675 H 0.22141 0.7273 0.76572 0.0
H1676 H 0.18071 0.70822 0.75089 0.0
H1677 H 0.22542 0.87481 0.73805 0.0
H1678 H 0.2403 0.877 0.70806 0.0
H1679 H 0.27073 0.86085 0.73029 0.0
C1680 C 0.77714 0.78016 0.79778 0.0
C1681 C 0.80877 0.79391 0.80976 0.0
C1682 C 0.77765 0.77671 0.77342 0.0
C1683 C 0.81028 0.78803 0.7609 0.0
C1684 C 0.84129 0.80434 0.77289 0.0
C1685 C 0.84028 0.8067 0.79719 0.0
C1686 C 0.74408 0.75901 0.76124 0.0
C1687 C 0.87617 0.8178 0.76018 0.0
C1688 C 0.82797 0.74411 0.70185 0.0
C1689 C 0.81449 0.77079 0.68682 0.0
C1690 C 0.82669 0.74929 0.72611 0.0
C1691 C 0.81235 0.78223 0.73531 0.0
C1692 C 0.80014 0.80982 0.72006 0.0
C1693 C 0.80104 0.8036 0.69605 0.0
C1694 C 0.83966 0.71911 0.7419 0.0
C1695 C 0.78559 0.84569 0.72907 0.0
H1696 H 0.75299 0.76972 0.80752 0.0
H1697 H 0.86482 0.81719 0.80651 0.0
H1698 H 0.73499 0.77729 0.74704 0.0
H1699 H 0.75152 0.73239 0.75319 0.0
H1700 H 0.72035 0.7533 0.7733 0.0
H1701 H 0.89654 0.83266 0.77186 0.0
H1702 H 0.88962 0.79377 0.75235 0.0
H1703 H 0.86924 0.83675 0.74579 0.0
H1704 H 0.83796 0.71862 0.69472 0.0
H1705 H 0.79079 0.82441 0.68439 0.0
H1706 H 0.81645 0.7089 0.75332 0.0
H1707 H 0.86231 0.73045 0.75333 0.0
H1708 H 0.84992 0.69517 0.73204 0.0
H1709 H 0.76017 0.83964 0.7396 0.0
H1710 H 0.77877 0.86502 0.71482 0.0
H1711 H 0.8065 0.85996 0.74061 0.0
C1712 C 0.30486 0.80631 0.20778 0.0
C1713 C 0.27576 0.8082 0.19181 0.0
C1714 C 0.29787 0.80559 0.23181 0.0
C1715 C 0.26069 0.80506 0.24 0.0
C1716 C 0.23132 0.80867 0.22389 0.0
C1717 C 0.2393 0.81066 0.19994 0.0
C1718 C 0.33017 0.80287 0.24832 0.0
C1719 C 0.19127 0.80721 0.23172 0.0
C1720 C 0.24917 0.75014 0.29616 0.0
C1721 C 0.24806 0.77844 0.31275 0.0
C1722 C 0.25067 0.75847 0.27232 0.0
C1723 C 0.25267 0.79614 0.26495 0.0
C1724 C 0.25038 0.82481 0.28171 0.0
C1725 C 0.24768 0.81555 0.30547 0.0
C1726 C 0.25199 0.72692 0.25509 0.0
C1727 C 0.25336 0.86527 0.27473 0.0
H1728 H 0.33297 0.80385 0.20141 0.0
H1729 H 0.2167 0.81105 0.18751 0.0
H1730 H 0.32755 0.82237 0.2631 0.0
H1731 H 0.33014 0.77431 0.2556 0.0
H1732 H 0.35731 0.80911 0.23958 0.0
H1733 H 0.17225 0.8153 0.21762 0.0
H1734 H 0.18294 0.77844 0.23731 0.0
H1735 H 0.18767 0.82571 0.24687 0.0
H1736 H 0.2499 0.72149 0.30192 0.0
H1737 H 0.24771 0.83742 0.31844 0.0
H1738 H 0.28014 0.72673 0.24727 0.0
H1739 H 0.23194 0.73074 0.24076 0.0
H1740 H 0.24553 0.69941 0.26334 0.0
H1741 H 0.28205 0.87257 0.26861 0.0
H1742 H 0.24696 0.88396 0.2894 0.0
H1743 H 0.23427 0.8705 0.26012 0.0
C1744 C 0.23131 0.26973 0.70367 0.0
C1745 C 0.21824 0.23713 0.69236 0.0
C1746 C 0.23877 0.2695 0.72769 0.0
C1747 C 0.23274 0.236 0.74048 0.0
C1748 C 0.21563 0.20437 0.72954 0.0
C1749 C 0.20837 0.20544 0.70566 0.0
C1750 C 0.2561 0.30412 0.73888 0.0
C1751 C 0.20832 0.16818 0.74249 0.0
C1752 C 0.2979 0.21755 0.79079 0.0
C1753 C 0.27545 0.2242 0.81009 0.0
C1754 C 0.28431 0.22144 0.76805 0.0
C1755 C 0.24755 0.23263 0.76452 0.0
C1756 C 0.22465 0.23903 0.7839 0.0
C1757 C 0.23871 0.23442 0.80638 0.0
C1758 C 0.3094 0.21377 0.74775 0.0
C1759 C 0.18548 0.25132 0.78091 0.0
H1760 H 0.23888 0.29435 0.69351 0.0
H1761 H 0.19793 0.18026 0.69697 0.0
H1762 H 0.24321 0.30904 0.75605 0.0
H1763 H 0.28613 0.30045 0.74183 0.0
H1764 H 0.25331 0.32912 0.72781 0.0
H1765 H 0.19094 0.1477 0.73225 0.0
H1766 H 0.23519 0.15583 0.74644 0.0
H1767 H 0.19424 0.17298 0.75929 0.0
H1768 H 0.32627 0.20982 0.79342 0.0
H1769 H 0.22101 0.23989 0.82111 0.0
H1770 H 0.3132 0.23898 0.73672 0.0
H1771 H 0.29636 0.19135 0.73676 0.0
H1772 H 0.33719 0.20525 0.7534 0.0
H1773 H 0.18595 0.27784 0.77104 0.0
H1774 H 0.17133 0.25542 0.79781 0.0
H1775 H 0.16875 0.23039 0.77068 0.0
C1776 C 0.81706 0.25125 0.30285 0.0
C1777 C 0.78762 0.27184 0.31085 0.0
C1778 C 0.82132 0.24386 0.27894 0.0
C1779 C 0.79555 0.25743 0.26281 0.0
C1780 C 0.76598 0.2784 0.2709 0.0
C1781 C 0.76246 0.28532 0.29472 0.0
C1782 C 0.8532 0.22151 0.27094 0.0
C1783 C 0.73797 0.29372 0.25438 0.0
C1784 C 0.81318 0.28069 0.19977 0.0
C1785 C 0.79083 0.25312 0.18862 0.0
C1786 C 0.8183 0.28018 0.2239 0.0
C1787 C 0.79983 0.25182 0.23727 0.0
C1788 C 0.77974 0.22214 0.22583 0.0
C1789 C 0.77562 0.22303 0.20148 0.0
C1790 C 0.84044 0.31207 0.2352 0.0
C1791 C 0.75962 0.19138 0.23942 0.0
H1792 H 0.83638 0.24044 0.31525 0.0
H1793 H 0.7396 0.30126 0.30072 0.0
H1794 H 0.84233 0.19619 0.26167 0.0
H1795 H 0.87081 0.23801 0.25844 0.0
H1796 H 0.87086 0.21298 0.28562 0.0
H1797 H 0.71599 0.30852 0.26357 0.0
H1798 H 0.75224 0.31341 0.24204 0.0
H1799 H 0.72445 0.27083 0.244 0.0
H1800 H 0.82509 0.30389 0.18971 0.0
H1801 H 0.75812 0.20188 0.19281 0.0
H1802 H 0.85833 0.30189 0.24926 0.0
H1803 H 0.82108 0.33143 0.24315 0.0
H1804 H 0.85823 0.32792 0.22244 0.0
H1805 H 0.77726 0.18167 0.25375 0.0
H1806 H 0.75119 0.1673 0.22818 0.0
H1807 H 0.73421 0.20213 0.24735 0.0
loop_
_geom_bond_atom_site_label_1
_geom_bond_atom_site_label_2
_geom_bond_distance
_geom_bond_site_symmetry_2
_ccdc_geom_bond_type
Co0 N4 2.148 . S
Co0 N10 2.128 . S
Co0 N20 2.194 . S
Co0 O25 2.351 . S
Co0 O26 2.155 . S
Co0 O27 2.096 . S
C1 N4 1.301 . S
C1 N5 1.328 . S
C1 H6 0.930 . S
C2 C3 1.333 . S
C2 N4 1.317 . S
C2 H7 0.930 . S
C3 C2 1.333 . S
C3 N5 1.350 . S
C3 H29 0.931 . S
N4 Co0 2.148 . S
N4 C1 1.301 . S
N4 C2 1.317 . S
N5 C1 1.328 . S
N5 C3 1.350 . S
H6 C1 0.930 . S
H7 C2 0.930 . S
C8 O9 1.224 . S
C8 O27 1.247 . S
O9 C8 1.224 . S
N10 Co0 2.128 . S
N10 C11 1.355 . S
N10 C13 1.311 . S
C11 N10 1.355 . S
C11 C12 1.363 . S
C11 H23 0.929 . S
C12 C11 1.363 . S
C12 N14 1.375 . S
C12 H30 0.931 . S
C13 N10 1.311 . S
C13 N14 1.347 . S
C13 H24 0.929 . S
N14 C12 1.375 . S
N14 C13 1.347 . S
C15 C18 1.365 . S
C15 N20 1.328 . S
C15 H21 0.929 . S
C16 C17 1.362 . S
C16 C19 1.378 . S
C16 H31 0.929 . S
C17 C16 1.362 . S
C17 C18 1.366 . S
C18 C15 1.365 . S
C18 C17 1.366 . S
C18 H32 0.930 . S
C19 C16 1.378 . S
C19 N20 1.315 . S
C19 H22 0.930 . S
N20 Co0 2.194 . S
N20 C15 1.328 . S
N20 C19 1.315 . S
H21 C15 0.929 . S
H22 C19 0.930 . S
H23 C11 0.929 . S
H24 C13 0.929 . S
O25 Co0 2.351 . S
O25 C28 1.244 . S
O26 Co0 2.155 . S
O26 C28 1.240 . S
O27 Co0 2.096 . S
O27 C8 1.247 . S
C28 O25 1.244 . S
C28 O26 1.240 . S
H29 C3 0.931 . S
H30 C12 0.931 . S
H31 C16 0.929 . S
H32 C18 0.930 . S
Co33 N37 2.148 . S
Co33 N43 2.128 . S
Co33 N53 2.194 . S
Co33 O58 2.351 . S
Co33 O59 2.155 . S
Co33 O60 2.096 . S
C34 N37 1.301 . S
C34 N38 1.328 . S
C34 H39 0.930 . S
C35 C36 1.333 . S
C35 N37 1.317 . S
C35 H40 0.930 . S
C36 C35 1.333 . S
C36 N38 1.350 . S
C36 H62 0.931 . S
N37 Co33 2.148 . S
N37 C34 1.301 . S
N37 C35 1.317 . S
N38 C34 1.328 . S
N38 C36 1.350 . S
H39 C34 0.930 . S
H40 C35 0.930 . S
C41 O42 1.224 . S
C41 O60 1.247 . S
O42 C41 1.224 . S
N43 Co33 2.128 . S
N43 C44 1.355 . S
N43 C46 1.311 . S
C44 N43 1.355 . S
C44 C45 1.363 . S
C44 H56 0.929 . S
C45 C44 1.363 . S
C45 N47 1.375 . S
C45 H63 0.931 . S
C46 N43 1.311 . S
C46 N47 1.347 . S
C46 H57 0.929 . S
N47 C45 1.375 . S
N47 C46 1.347 . S
C48 C51 1.365 . S
C48 N53 1.328 . S
C48 H54 0.929 . S
C49 C50 1.362 . S
C49 C52 1.378 . S
C49 H64 0.929 . S
C50 C49 1.362 . S
C50 C51 1.366 . S
C51 C48 1.365 . S
C51 C50 1.366 . S
C51 H65 0.930 . S
C52 C49 1.378 . S
C52 N53 1.315 . S
C52 H55 0.930 . S
N53 Co33 2.194 . S
N53 C48 1.328 . S
N53 C52 1.315 . S
H54 C48 0.929 . S
H55 C52 0.930 . S
H56 C44 0.929 . S
H57 C46 0.929 . S
O58 Co33 2.351 . S
O58 C61 1.244 . S
O59 Co33 2.155 . S
O59 C61 1.240 . S
O60 Co33 2.096 . S
O60 C41 1.247 . S
C61 O58 1.244 . S
C61 O59 1.240 . S
H62 C36 0.931 . S
H63 C45 0.931 . S
H64 C49 0.929 . S
H65 C51 0.930 . S
Co66 N70 2.148 . S
Co66 N76 2.128 . S
Co66 N86 2.194 . S
Co66 O91 2.351 . S
Co66 O92 2.155 . S
Co66 O93 2.096 . S
C67 N70 1.301 . S
C67 N71 1.328 . S
C67 H72 0.930 . S
C68 C69 1.333 . S
C68 N70 1.317 . S
C68 H73 0.930 . S
C69 C68 1.333 . S
C69 N71 1.350 . S
C69 H95 0.931 . S
N70 Co66 2.148 . S
N70 C67 1.301 . S
N70 C68 1.317 . S
N71 C67 1.328 . S
N71 C69 1.350 . S
H72 C67 0.930 . S
H73 C68 0.930 . S
C74 O75 1.224 . S
C74 O93 1.247 . S
O75 C74 1.224 . S
N76 Co66 2.128 . S
N76 C77 1.355 . S
N76 C79 1.311 . S
C77 N76 1.355 . S
C77 C78 1.363 . S
C77 H89 0.929 . S
C78 C77 1.363 . S
C78 N80 1.375 . S
C78 H96 0.931 . S
C79 N76 1.311 . S
C79 N80 1.347 . S
C79 H90 0.929 . S
N80 C78 1.375 . S
N80 C79 1.347 . S
C81 C84 1.365 . S
C81 N86 1.328 . S
C81 H87 0.929 . S
C82 C83 1.362 . S
C82 C85 1.378 . S
C82 H97 0.929 . S
C83 C82 1.362 . S
C83 C84 1.366 . S
C84 C81 1.365 . S
C84 C83 1.366 . S
C84 H98 0.930 . S
C85 C82 1.378 . S
C85 N86 1.315 . S
C85 H88 0.930 . S
N86 Co66 2.194 . S
N86 C81 1.328 . S
N86 C85 1.315 . S
H87 C81 0.929 . S
H88 C85 0.930 . S
H89 C77 0.929 . S
H90 C79 0.929 . S
O91 Co66 2.351 . S
O91 C94 1.244 . S
O92 Co66 2.155 . S
O92 C94 1.240 . S
O93 Co66 2.096 . S
O93 C74 1.247 . S
C94 O91 1.244 . S
C94 O92 1.240 . S
H95 C69 0.931 . S
H96 C78 0.931 . S
H97 C82 0.929 . S
H98 C84 0.930 . S
Co99 N103 2.148 . S
Co99 N109 2.128 . S
Co99 N119 2.194 . S
Co99 O124 2.351 . S
Co99 O125 2.155 . S
Co99 O126 2.096 . S
C100 N103 1.301 . S
C100 N104 1.328 . S
C100 H105 0.930 . S
C101 C102 1.333 . S
C101 N103 1.317 . S
C101 H106 0.930 . S
C102 C101 1.333 . S
C102 N104 1.350 . S
C102 H128 0.931 . S
N103 Co99 2.148 . S
N103 C100 1.301 . S
N103 C101 1.317 . S
N104 C100 1.328 . S
N104 C102 1.350 . S
H105 C100 0.930 . S
H106 C101 0.930 . S
C107 O108 1.224 . S
C107 O126 1.247 . S
O108 C107 1.224 . S
N109 Co99 2.128 . S
N109 C110 1.355 . S
N109 C112 1.311 . S
C110 N109 1.355 . S
C110 C111 1.363 . S
C110 H122 0.929 . S
C111 C110 1.363 . S
C111 N113 1.375 . S
C111 H129 0.931 . S
C112 N109 1.311 . S
C112 N113 1.347 . S
C112 H123 0.929 . S
N113 C111 1.375 . S
N113 C112 1.347 . S
C114 C117 1.365 . S
C114 N119 1.328 . S
C114 H120 0.929 . S
C115 C116 1.362 . S
C115 C118 1.378 . S
C115 H130 0.929 . S
C116 C115 1.362 . S
C116 C117 1.366 . S
C117 C114 1.365 . S
C117 C116 1.366 . S
C117 H131 0.930 . S
C118 C115 1.378 . S
C118 N119 1.315 . S
C118 H121 0.930 . S
N119 Co99 2.194 . S
N119 C114 1.328 . S
N119 C118 1.315 . S
H120 C114 0.929 . S
H121 C118 0.930 . S
H122 C110 0.929 . S
H123 C112 0.929 . S
O124 Co99 2.351 . S
O124 C127 1.244 . S
O125 Co99 2.155 . S
O125 C127 1.240 . S
O126 Co99 2.096 . S
O126 C107 1.247 . S
C127 O124 1.244 . S
C127 O125 1.240 . S
H128 C102 0.931 . S
H129 C111 0.931 . S
H130 C115 0.929 . S
H131 C117 0.930 . S
Co132 N136 2.148 . S
Co132 N142 2.128 . S
Co132 N152 2.194 . S
Co132 O157 2.351 . S
Co132 O158 2.155 . S
Co132 O159 2.096 . S
C133 N136 1.301 . S
C133 N137 1.328 . S
C133 H138 0.930 . S
C134 C135 1.333 . S
C134 N136 1.317 . S
C134 H139 0.930 . S
C135 C134 1.333 . S
C135 N137 1.350 . S
C135 H161 0.931 . S
N136 Co132 2.148 . S
N136 C133 1.301 . S
N136 C134 1.317 . S
N137 C133 1.328 . S
N137 C135 1.350 . S
H138 C133 0.930 . S
H139 C134 0.930 . S
C140 O141 1.224 . S
C140 O159 1.247 . S
O141 C140 1.224 . S
N142 Co132 2.128 . S
N142 C143 1.355 . S
N142 C145 1.311 . S
C143 N142 1.355 . S
C143 C144 1.363 . S
C143 H155 0.929 . S
C144 C143 1.363 . S
C144 N146 1.375 . S
C144 H162 0.931 . S
C145 N142 1.311 . S
C145 N146 1.347 . S
C145 H156 0.929 . S
N146 C144 1.375 . S
N146 C145 1.347 . S
C147 C150 1.365 . S
C147 N152 1.328 . S
C147 H153 0.929 . S
C148 C149 1.362 . S
C148 C151 1.378 . S
C148 H163 0.929 . S
C149 C148 1.362 . S
C149 C150 1.366 . S
C150 C147 1.365 . S
C150 C149 1.366 . S
C150 H164 0.930 . S
C151 C148 1.378 . S
C151 N152 1.315 . S
C151 H154 0.930 . S
N152 Co132 2.194 . S
N152 C147 1.328 . S
N152 C151 1.315 . S
H153 C147 0.929 . S
H154 C151 0.930 . S
H155 C143 0.929 . S
H156 C145 0.929 . S
O157 Co132 2.351 . S
O157 C160 1.244 . S
O158 Co132 2.155 . S
O158 C160 1.240 . S
O159 Co132 2.096 . S
O159 C140 1.247 . S
C160 O157 1.244 . S
C160 O158 1.240 . S
H161 C135 0.931 . S
H162 C144 0.931 . S
H163 C148 0.929 . S
H164 C150 0.930 . S
Co165 N169 2.148 . S
Co165 N175 2.128 . S
Co165 N185 2.194 . S
Co165 O190 2.351 . S
Co165 O191 2.155 . S
Co165 O192 2.096 . S
C166 N169 1.301 . S
C166 N170 1.328 . S
C166 H171 0.930 . S
C167 C168 1.333 . S
C167 N169 1.317 . S
C167 H172 0.930 . S
C168 C167 1.333 . S
C168 N170 1.350 . S
C168 H194 0.931 . S
N169 Co165 2.148 . S
N169 C166 1.301 . S
N169 C167 1.317 . S
N170 C166 1.328 . S
N170 C168 1.350 . S
H171 C166 0.930 . S
H172 C167 0.930 . S
C173 O174 1.224 . S
C173 O192 1.247 . S
O174 C173 1.224 . S
N175 Co165 2.128 . S
N175 C176 1.355 . S
N175 C178 1.311 . S
C176 N175 1.355 . S
C176 C177 1.363 . S
C176 H188 0.929 . S
C177 C176 1.363 . S
C177 N179 1.375 . S
C177 H195 0.931 . S
C178 N175 1.311 . S
C178 N179 1.347 . S
C178 H189 0.929 . S
N179 C177 1.375 . S
N179 C178 1.347 . S
C180 C183 1.365 . S
C180 N185 1.328 . S
C180 H186 0.929 . S
C181 C182 1.362 . S
C181 C184 1.378 . S
C181 H196 0.929 . S
C182 C181 1.362 . S
C182 C183 1.366 . S
C183 C180 1.365 . S
C183 C182 1.366 . S
C183 H197 0.930 . S
C184 C181 1.378 . S
C184 N185 1.315 . S
C184 H187 0.930 . S
N185 Co165 2.194 . S
N185 C180 1.328 . S
N185 C184 1.315 . S
H186 C180 0.929 . S
H187 C184 0.930 . S
H188 C176 0.929 . S
H189 C178 0.929 . S
O190 Co165 2.351 . S
O190 C193 1.244 . S
O191 Co165 2.155 . S
O191 C193 1.240 . S
O192 Co165 2.096 . S
O192 C173 1.247 . S
C193 O190 1.244 . S
C193 O191 1.240 . S
H194 C168 0.931 . S
H195 C177 0.931 . S
H196 C181 0.929 . S
H197 C183 0.930 . S
Co198 N202 2.148 . S
Co198 N208 2.128 . S
Co198 N218 2.194 . S
Co198 O223 2.351 . S
Co198 O224 2.155 . S
Co198 O225 2.096 . S
C199 N202 1.301 . S
C199 N203 1.328 . S
C199 H204 0.930 . S
C200 C201 1.333 . S
C200 N202 1.317 . S
C200 H205 0.930 . S
C201 C200 1.333 . S
C201 N203 1.350 . S
C201 H227 0.931 . S
N202 Co198 2.148 . S
N202 C199 1.301 . S
N202 C200 1.317 . S
N203 C199 1.328 . S
N203 C201 1.350 . S
H204 C199 0.930 . S
H205 C200 0.930 . S
C206 O207 1.224 . S
C206 O225 1.247 . S
O207 C206 1.224 . S
N208 Co198 2.128 . S
N208 C209 1.355 . S
N208 C211 1.311 . S
C209 N208 1.355 . S
C209 C210 1.363 . S
C209 H221 0.929 . S
C210 C209 1.363 . S
C210 N212 1.375 . S
C210 H228 0.931 . S
C211 N208 1.311 . S
C211 N212 1.347 . S
C211 H222 0.929 . S
N212 C210 1.375 . S
N212 C211 1.347 . S
C213 C216 1.365 . S
C213 N218 1.328 . S
C213 H219 0.929 . S
C214 C215 1.362 . S
C214 C217 1.378 . S
C214 H229 0.929 . S
C215 C214 1.362 . S
C215 C216 1.366 . S
C216 C213 1.365 . S
C216 C215 1.366 . S
C216 H230 0.930 . S
C217 C214 1.378 . S
C217 N218 1.315 . S
C217 H220 0.930 . S
N218 Co198 2.194 . S
N218 C213 1.328 . S
N218 C217 1.315 . S
H219 C213 0.929 . S
H220 C217 0.930 . S
H221 C209 0.929 . S
H222 C211 0.929 . S
O223 Co198 2.351 . S
O223 C226 1.244 . S
O224 Co198 2.155 . S
O224 C226 1.240 . S
O225 Co198 2.096 . S
O225 C206 1.247 . S
C226 O223 1.244 . S
C226 O224 1.240 . S
H227 C201 0.931 . S
H228 C210 0.931 . S
H229 C214 0.929 . S
H230 C216 0.930 . S
Co231 N235 2.148 . S
Co231 N241 2.128 . S
Co231 N251 2.194 . S
Co231 O256 2.351 . S
Co231 O257 2.155 . S
Co231 O258 2.096 . S
C232 N235 1.301 . S
C232 N236 1.328 . S
C232 H237 0.930 . S
C233 C234 1.333 . S
C233 N235 1.317 . S
C233 H238 0.930 . S
C234 C233 1.333 . S
C234 N236 1.350 . S
C234 H260 0.931 . S
N235 Co231 2.148 . S
N235 C232 1.301 . S
N235 C233 1.317 . S
N236 C232 1.328 . S
N236 C234 1.350 . S
H237 C232 0.930 . S
H238 C233 0.930 . S
C239 O240 1.224 . S
C239 O258 1.247 . S
O240 C239 1.224 . S
N241 Co231 2.128 . S
N241 C242 1.355 . S
N241 C244 1.311 . S
C242 N241 1.355 . S
C242 C243 1.363 . S
C242 H254 0.929 . S
C243 C242 1.363 . S
C243 N245 1.375 . S
C243 H261 0.931 . S
C244 N241 1.311 . S
C244 N245 1.347 . S
C244 H255 0.929 . S
N245 C243 1.375 . S
N245 C244 1.347 . S
C246 C249 1.365 . S
C246 N251 1.328 . S
C246 H252 0.929 . S
C247 C248 1.362 . S
C247 C250 1.378 . S
C247 H262 0.929 . S
C248 C247 1.362 . S
C248 C249 1.366 . S
C249 C246 1.365 . S
C249 C248 1.366 . S
C249 H263 0.930 . S
C250 C247 1.378 . S
C250 N251 1.315 . S
C250 H253 0.930 . S
N251 Co231 2.194 . S
N251 C246 1.328 . S
N251 C250 1.315 . S
H252 C246 0.929 . S
H253 C250 0.930 . S
H254 C242 0.929 . S
H255 C244 0.929 . S
O256 Co231 2.351 . S
O256 C259 1.244 . S
O257 Co231 2.155 . S
O257 C259 1.240 . S
O258 Co231 2.096 . S
O258 C239 1.247 . S
C259 O256 1.244 . S
C259 O257 1.240 . S
H260 C234 0.931 . S
H261 C243 0.931 . S
H262 C247 0.929 . S
H263 C249 0.930 . S
Co264 N268 2.148 . S
Co264 N274 2.128 . S
Co264 N284 2.194 . S
Co264 O289 2.351 . S
Co264 O290 2.155 . S
Co264 O291 2.096 . S
C265 N268 1.301 . S
C265 N269 1.328 . S
C265 H270 0.930 . S
C266 C267 1.333 . S
C266 N268 1.317 . S
C266 H271 0.930 . S
C267 C266 1.333 . S
C267 N269 1.350 . S
C267 H293 0.931 . S
N268 Co264 2.148 . S
N268 C265 1.301 . S
N268 C266 1.317 . S
N269 C265 1.328 . S
N269 C267 1.350 . S
H270 C265 0.930 . S
H271 C266 0.930 . S
C272 O273 1.224 . S
C272 O291 1.247 . S
O273 C272 1.224 . S
N274 Co264 2.128 . S
N274 C275 1.355 . S
N274 C277 1.311 . S
C275 N274 1.355 . S
C275 C276 1.363 . S
C275 H287 0.929 . S
C276 C275 1.363 . S
C276 N278 1.375 . S
C276 H294 0.931 . S
C277 N274 1.311 . S
C277 N278 1.347 . S
C277 H288 0.929 . S
N278 C276 1.375 . S
N278 C277 1.347 . S
C279 C282 1.365 . S
C279 N284 1.328 . S
C279 H285 0.929 . S
C280 C281 1.362 . S
C280 C283 1.378 . S
C280 H295 0.929 . S
C281 C280 1.362 . S
C281 C282 1.366 . S
C282 C279 1.365 . S
C282 C281 1.366 . S
C282 H296 0.930 . S
C283 C280 1.378 . S
C283 N284 1.315 . S
C283 H286 0.930 . S
N284 Co264 2.194 . S
N284 C279 1.328 . S
N284 C283 1.315 . S
H285 C279 0.929 . S
H286 C283 0.930 . S
H287 C275 0.929 . S
H288 C277 0.929 . S
O289 Co264 2.351 . S
O289 C292 1.244 . S
O290 Co264 2.155 . S
O290 C292 1.240 . S
O291 Co264 2.096 . S
O291 C272 1.247 . S
C292 O289 1.244 . S
C292 O290 1.240 . S
H293 C267 0.931 . S
H294 C276 0.931 . S
H295 C280 0.929 . S
H296 C282 0.930 . S
Co297 N301 2.148 . S
Co297 N307 2.128 . S
Co297 N317 2.194 . S
Co297 O322 2.351 . S
Co297 O323 2.155 . S
Co297 O324 2.096 . S
C298 N301 1.301 . S
C298 N302 1.328 . S
C298 H303 0.930 . S
C299 C300 1.333 . S
C299 N301 1.317 . S
C299 H304 0.930 . S
C300 C299 1.333 . S
C300 N302 1.350 . S
C300 H326 0.931 . S
N301 Co297 2.148 . S
N301 C298 1.301 . S
N301 C299 1.317 . S
N302 C298 1.328 . S
N302 C300 1.350 . S
H303 C298 0.930 . S
H304 C299 0.930 . S
C305 O306 1.224 . S
C305 O324 1.247 . S
O306 C305 1.224 . S
N307 Co297 2.128 . S
N307 C308 1.355 . S
N307 C310 1.311 . S
C308 N307 1.355 . S
C308 C309 1.363 . S
C308 H320 0.929 . S
C309 C308 1.363 . S
C309 N311 1.375 . S
C309 H327 0.931 . S
C310 N307 1.311 . S
C310 N311 1.347 . S
C310 H321 0.929 . S
N311 C309 1.375 . S
N311 C310 1.347 . S
C312 C315 1.365 . S
C312 N317 1.328 . S
C312 H318 0.929 . S
C313 C314 1.362 . S
C313 C316 1.378 . S
C313 H328 0.929 . S
C314 C313 1.362 . S
C314 C315 1.366 . S
C315 C312 1.365 . S
C315 C314 1.366 . S
C315 H329 0.930 . S
C316 C313 1.378 . S
C316 N317 1.315 . S
C316 H319 0.930 . S
N317 Co297 2.194 . S
N317 C312 1.328 . S
N317 C316 1.315 . S
H318 C312 0.929 . S
H319 C316 0.930 . S
H320 C308 0.929 . S
H321 C310 0.929 . S
O322 Co297 2.351 . S
O322 C325 1.244 . S
O323 Co297 2.155 . S
O323 C325 1.240 . S
O324 Co297 2.096 . S
O324 C305 1.247 . S
C325 O322 1.244 . S
C325 O323 1.240 . S
H326 C300 0.931 . S
H327 C309 0.931 . S
H328 C313 0.929 . S
H329 C315 0.930 . S
Co330 N334 2.148 . S
Co330 N340 2.128 . S
Co330 N350 2.194 . S
Co330 O355 2.351 . S
Co330 O356 2.155 . S
Co330 O357 2.096 . S
C331 N334 1.301 . S
C331 N335 1.328 . S
C331 H336 0.930 . S
C332 C333 1.333 . S
C332 N334 1.317 . S
C332 H337 0.930 . S
C333 C332 1.333 . S
C333 N335 1.350 . S
C333 H359 0.931 . S
N334 Co330 2.148 . S
N334 C331 1.301 . S
N334 C332 1.317 . S
N335 C331 1.328 . S
N335 C333 1.350 . S
H336 C331 0.930 . S
H337 C332 0.930 . S
C338 O339 1.224 . S
C338 O357 1.247 . S
O339 C338 1.224 . S
N340 Co330 2.128 . S
N340 C341 1.355 . S
N340 C343 1.311 . S
C341 N340 1.355 . S
C341 C342 1.363 . S
C341 H353 0.929 . S
C342 C341 1.363 . S
C342 N344 1.375 . S
C342 H360 0.931 . S
C343 N340 1.311 . S
C343 N344 1.347 . S
C343 H354 0.929 . S
N344 C342 1.375 . S
N344 C343 1.347 . S
C345 C348 1.365 . S
C345 N350 1.328 . S
C345 H351 0.929 . S
C346 C347 1.362 . S
C346 C349 1.378 . S
C346 H361 0.929 . S
C347 C346 1.362 . S
C347 C348 1.366 . S
C348 C345 1.365 . S
C348 C347 1.366 . S
C348 H362 0.930 . S
C349 C346 1.378 . S
C349 N350 1.315 . S
C349 H352 0.930 . S
N350 Co330 2.194 . S
N350 C345 1.328 . S
N350 C349 1.315 . S
H351 C345 0.929 . S
H352 C349 0.930 . S
H353 C341 0.929 . S
H354 C343 0.929 . S
O355 Co330 2.351 . S
O355 C358 1.244 . S
O356 Co330 2.155 . S
O356 C358 1.240 . S
O357 Co330 2.096 . S
O357 C338 1.247 . S
C358 O355 1.244 . S
C358 O356 1.240 . S
H359 C333 0.931 . S
H360 C342 0.931 . S
H361 C346 0.929 . S
H362 C348 0.930 . S
Co363 N367 2.148 . S
Co363 N373 2.128 . S
Co363 N383 2.194 . S
Co363 O388 2.351 . S
Co363 O389 2.155 . S
Co363 O390 2.096 . S
C364 N367 1.301 . S
C364 N368 1.328 . S
C364 H369 0.930 . S
C365 C366 1.333 . S
C365 N367 1.317 . S
C365 H370 0.930 . S
C366 C365 1.333 . S
C366 N368 1.350 . S
C366 H392 0.931 . S
N367 Co363 2.148 . S
N367 C364 1.301 . S
N367 C365 1.317 . S
N368 C364 1.328 . S
N368 C366 1.350 . S
H369 C364 0.930 . S
H370 C365 0.930 . S
C371 O372 1.224 . S
C371 O390 1.247 . S
O372 C371 1.224 . S
N373 Co363 2.128 . S
N373 C374 1.355 . S
N373 C376 1.311 . S
C374 N373 1.355 . S
C374 C375 1.363 . S
C374 H386 0.929 . S
C375 C374 1.363 . S
C375 N377 1.375 . S
C375 H393 0.931 . S
C376 N373 1.311 . S
C376 N377 1.347 . S
C376 H387 0.929 . S
N377 C375 1.375 . S
N377 C376 1.347 . S
C378 C381 1.365 . S
C378 N383 1.328 . S
C378 H384 0.929 . S
C379 C380 1.362 . S
C379 C382 1.378 . S
C379 H394 0.929 . S
C380 C379 1.362 . S
C380 C381 1.366 . S
C381 C378 1.365 . S
C381 C380 1.366 . S
C381 H395 0.930 . S
C382 C379 1.378 . S
C382 N383 1.315 . S
C382 H385 0.930 . S
N383 Co363 2.194 . S
N383 C378 1.328 . S
N383 C382 1.315 . S
H384 C378 0.929 . S
H385 C382 0.930 . S
H386 C374 0.929 . S
H387 C376 0.929 . S
O388 Co363 2.351 . S
O388 C391 1.244 . S
O389 Co363 2.155 . S
O389 C391 1.240 . S
O390 Co363 2.096 . S
O390 C371 1.247 . S
C391 O388 1.244 . S
C391 O389 1.240 . S
H392 C366 0.931 . S
H393 C375 0.931 . S
H394 C379 0.929 . S
H395 C381 0.930 . S
Co396 N400 2.148 . S
Co396 N406 2.128 . S
Co396 N416 2.194 . S
Co396 O421 2.351 . S
Co396 O422 2.155 . S
Co396 O423 2.096 . S
C397 N400 1.301 . S
C397 N401 1.328 . S
C397 H402 0.930 . S
C398 C399 1.333 . S
C398 N400 1.317 . S
C398 H403 0.930 . S
C399 C398 1.333 . S
C399 N401 1.350 . S
C399 H425 0.931 . S
N400 Co396 2.148 . S
N400 C397 1.301 . S
N400 C398 1.317 . S
N401 C397 1.328 . S
N401 C399 1.350 . S
H402 C397 0.930 . S
H403 C398 0.930 . S
C404 O405 1.224 . S
C404 O423 1.247 . S
O405 C404 1.224 . S
N406 Co396 2.128 . S
N406 C407 1.355 . S
N406 C409 1.311 . S
C407 N406 1.355 . S
C407 C408 1.363 . S
C407 H419 0.929 . S
C408 C407 1.363 . S
C408 N410 1.375 . S
C408 H426 0.931 . S
C409 N406 1.311 . S
C409 N410 1.347 . S
C409 H420 0.929 . S
N410 C408 1.375 . S
N410 C409 1.347 . S
C411 C414 1.365 . S
C411 N416 1.328 . S
C411 H417 0.929 . S
C412 C413 1.362 . S
C412 C415 1.378 . S
C412 H427 0.929 . S
C413 C412 1.362 . S
C413 C414 1.366 . S
C414 C411 1.365 . S
C414 C413 1.366 . S
C414 H428 0.930 . S
C415 C412 1.378 . S
C415 N416 1.315 . S
C415 H418 0.930 . S
N416 Co396 2.194 . S
N416 C411 1.328 . S
N416 C415 1.315 . S
H417 C411 0.929 . S
H418 C415 0.930 . S
H419 C407 0.929 . S
H420 C409 0.929 . S
O421 Co396 2.351 . S
O421 C424 1.244 . S
O422 Co396 2.155 . S
O422 C424 1.240 . S
O423 Co396 2.096 . S
O423 C404 1.247 . S
C424 O421 1.244 . S
C424 O422 1.240 . S
H425 C399 0.931 . S
H426 C408 0.931 . S
H427 C412 0.929 . S
H428 C414 0.930 . S
Co429 N433 2.148 . S
Co429 N439 2.128 . S
Co429 N449 2.194 . S
Co429 O454 2.351 . S
Co429 O455 2.155 . S
Co429 O456 2.096 . S
C430 N433 1.301 . S
C430 N434 1.328 . S
C430 H435 0.930 . S
C431 C432 1.333 . S
C431 N433 1.317 . S
C431 H436 0.930 . S
C432 C431 1.333 . S
C432 N434 1.350 . S
C432 H458 0.931 . S
N433 Co429 2.148 . S
N433 C430 1.301 . S
N433 C431 1.317 . S
N434 C430 1.328 . S
N434 C432 1.350 . S
H435 C430 0.930 . S
H436 C431 0.930 . S
C437 O438 1.224 . S
C437 O456 1.247 . S
O438 C437 1.224 . S
N439 Co429 2.128 . S
N439 C440 1.355 . S
N439 C442 1.311 . S
C440 N439 1.355 . S
C440 C441 1.363 . S
C440 H452 0.929 . S
C441 C440 1.363 . S
C441 N443 1.375 . S
C441 H459 0.931 . S
C442 N439 1.311 . S
C442 N443 1.347 . S
C442 H453 0.929 . S
N443 C441 1.375 . S
N443 C442 1.347 . S
C444 C447 1.365 . S
C444 N449 1.328 . S
C444 H450 0.929 . S
C445 C446 1.362 . S
C445 C448 1.378 . S
C445 H460 0.929 . S
C446 C445 1.362 . S
C446 C447 1.366 . S
C447 C444 1.365 . S
C447 C446 1.366 . S
C447 H461 0.930 . S
C448 C445 1.378 . S
C448 N449 1.315 . S
C448 H451 0.930 . S
N449 Co429 2.194 . S
N449 C444 1.328 . S
N449 C448 1.315 . S
H450 C444 0.929 . S
H451 C448 0.930 . S
H452 C440 0.929 . S
H453 C442 0.929 . S
O454 Co429 2.351 . S
O454 C457 1.244 . S
O455 Co429 2.155 . S
O455 C457 1.240 . S
O456 Co429 2.096 . S
O456 C437 1.247 . S
C457 O454 1.244 . S
C457 O455 1.240 . S
H458 C432 0.931 . S
H459 C441 0.931 . S
H460 C445 0.929 . S
H461 C447 0.930 . S
Co462 N466 2.148 . S
Co462 N472 2.128 . S
Co462 N482 2.194 . S
Co462 O487 2.351 . S
Co462 O488 2.155 . S
Co462 O489 2.096 . S
C463 N466 1.301 . S
C463 N467 1.328 . S
C463 H468 0.930 . S
C464 C465 1.333 . S
C464 N466 1.317 . S
C464 H469 0.930 . S
C465 C464 1.333 . S
C465 N467 1.350 . S
C465 H491 0.931 . S
N466 Co462 2.148 . S
N466 C463 1.301 . S
N466 C464 1.317 . S
N467 C463 1.328 . S
N467 C465 1.350 . S
H468 C463 0.930 . S
H469 C464 0.930 . S
C470 O471 1.224 . S
C470 O489 1.247 . S
O471 C470 1.224 . S
N472 Co462 2.128 . S
N472 C473 1.355 . S
N472 C475 1.311 . S
C473 N472 1.355 . S
C473 C474 1.363 . S
C473 H485 0.929 . S
C474 C473 1.363 . S
C474 N476 1.375 . S
C474 H492 0.931 . S
C475 N472 1.311 . S
C475 N476 1.347 . S
C475 H486 0.929 . S
N476 C474 1.375 . S
N476 C475 1.347 . S
C477 C480 1.365 . S
C477 N482 1.328 . S
C477 H483 0.929 . S
C478 C479 1.362 . S
C478 C481 1.378 . S
C478 H493 0.929 . S
C479 C478 1.362 . S
C479 C480 1.366 . S
C480 C477 1.365 . S
C480 C479 1.366 . S
C480 H494 0.930 . S
C481 C478 1.378 . S
C481 N482 1.315 . S
C481 H484 0.930 . S
N482 Co462 2.194 . S
N482 C477 1.328 . S
N482 C481 1.315 . S
H483 C477 0.929 . S
H484 C481 0.930 . S
H485 C473 0.929 . S
H486 C475 0.929 . S
O487 Co462 2.351 . S
O487 C490 1.244 . S
O488 Co462 2.155 . S
O488 C490 1.240 . S
O489 Co462 2.096 . S
O489 C470 1.247 . S
C490 O487 1.244 . S
C490 O488 1.240 . S
H491 C465 0.931 . S
H492 C474 0.931 . S
H493 C478 0.929 . S
H494 C480 0.930 . S
Co495 N499 2.148 . S
Co495 N505 2.128 . S
Co495 N515 2.194 . S
Co495 O520 2.351 . S
Co495 O521 2.155 . S
Co495 O522 2.096 . S
C496 N499 1.301 . S
C496 N500 1.328 . S
C496 H501 0.930 . S
C497 C498 1.333 . S
C497 N499 1.317 . S
C497 H502 0.930 . S
C498 C497 1.333 . S
C498 N500 1.350 . S
C498 H524 0.931 . S
N499 Co495 2.148 . S
N499 C496 1.301 . S
N499 C497 1.317 . S
N500 C496 1.328 . S
N500 C498 1.350 . S
H501 C496 0.930 . S
H502 C497 0.930 . S
C503 O504 1.224 . S
C503 O522 1.247 . S
O504 C503 1.224 . S
N505 Co495 2.128 . S
N505 C506 1.355 . S
N505 C508 1.311 . S
C506 N505 1.355 . S
C506 C507 1.363 . S
C506 H518 0.929 . S
C507 C506 1.363 . S
C507 N509 1.375 . S
C507 H525 0.931 . S
C508 N505 1.311 . S
C508 N509 1.347 . S
C508 H519 0.929 . S
N509 C507 1.375 . S
N509 C508 1.347 . S
C510 C513 1.365 . S
C510 N515 1.328 . S
C510 H516 0.929 . S
C511 C512 1.362 . S
C511 C514 1.378 . S
C511 H526 0.929 . S
C512 C511 1.362 . S
C512 C513 1.366 . S
C513 C510 1.365 . S
C513 C512 1.366 . S
C513 H527 0.930 . S
C514 C511 1.378 . S
C514 N515 1.315 . S
C514 H517 0.930 . S
N515 Co495 2.194 . S
N515 C510 1.328 . S
N515 C514 1.315 . S
H516 C510 0.929 . S
H517 C514 0.930 . S
H518 C506 0.929 . S
H519 C508 0.929 . S
O520 Co495 2.351 . S
O520 C523 1.244 . S
O521 Co495 2.155 . S
O521 C523 1.240 . S
O522 Co495 2.096 . S
O522 C503 1.247 . S
C523 O520 1.244 . S
C523 O521 1.240 . S
H524 C498 0.931 . S
H525 C507 0.931 . S
H526 C511 0.929 . S
H527 C513 0.930 . S
C528 C529 1.391 . S
C528 C530 1.394 . S
C528 H544 0.931 . S
C529 C528 1.391 . S
C529 C533 1.376 . S
C530 C528 1.394 . S
C530 C531 1.369 . S
C530 C534 1.531 . S
C531 C530 1.369 . S
C531 C532 1.410 . S
C531 C539 1.503 1_655 S
C532 C531 1.410 . S
C532 C533 1.392 . S
C532 C535 1.511 . S
C533 C529 1.376 . S
C533 C532 1.392 . S
C533 H545 0.929 . S
C534 C530 1.531 . S
C534 H546 0.960 . S
C534 H547 0.962 . S
C534 H548 0.960 . S
C535 C532 1.511 . S
C535 H549 0.961 . S
C535 H550 0.961 . S
C535 H551 0.961 . S
C536 C537 1.370 . S
C536 C538 1.363 . S
C536 H552 0.931 . S
C537 C536 1.370 . S
C537 C541 1.408 . S
C538 C536 1.363 . S
C538 C539 1.370 . S
C538 C542 1.524 . S
C539 C531 1.503 1_455 S
C539 C538 1.370 . S
C539 C540 1.403 . S
C540 C539 1.403 . S
C540 C541 1.404 . S
C540 C543 1.539 1_455 S
C541 C537 1.408 . S
C541 C540 1.404 . S
C541 H553 0.930 . S
C542 C538 1.524 . S
C542 H554 0.956 1_455 S
C542 H555 0.961 1_455 S
C542 H556 0.961 . S
C543 C540 1.539 1_655 S
C543 H557 0.958 . S
C543 H558 0.961 1_655 S
C543 H559 0.960 . S
H544 C528 0.931 . S
H545 C533 0.929 . S
H546 C534 0.960 . S
H547 C534 0.962 . S
H548 C534 0.960 . S
H549 C535 0.961 . S
H550 C535 0.961 . S
H551 C535 0.961 . S
H552 C536 0.931 . S
H553 C541 0.930 . S
H554 C542 0.956 1_655 S
H555 C542 0.961 1_655 S
H556 C542 0.961 . S
H557 C543 0.958 . S
H558 C543 0.961 1_455 S
H559 C543 0.960 . S
C560 C561 1.391 . S
C560 C562 1.394 . S
C560 H576 0.931 . S
C561 C560 1.391 . S
C561 C565 1.376 . S
C562 C560 1.394 . S
C562 C563 1.369 . S
C562 C566 1.531 . S
C563 C562 1.369 . S
C563 C564 1.410 . S
C563 C571 1.503 1_545 S
C564 C563 1.410 . S
C564 C565 1.392 . S
C564 C567 1.511 . S
C565 C561 1.376 . S
C565 C564 1.392 . S
C565 H577 0.929 . S
C566 C562 1.531 . S
C566 H578 0.960 1_545 S
C566 H579 0.962 . S
C566 H580 0.960 . S
C567 C564 1.511 . S
C567 H581 0.961 . S
C567 H582 0.980 . S
C567 H583 0.961 . S
C568 C569 1.370 . S
C568 C570 1.363 . S
C568 H584 0.931 . S
C569 C568 1.370 . S
C569 C573 1.408 . S
C570 C568 1.363 . S
C570 C571 1.370 . S
C570 C574 1.524 . S
C571 C563 1.503 1_565 S
C571 C570 1.370 . S
C571 C572 1.403 . S
C572 C571 1.403 . S
C572 C573 1.404 . S
C572 C575 1.539 . S
C573 C569 1.408 . S
C573 C572 1.404 . S
C573 H585 0.930 . S
C574 C570 1.524 . S
C574 H586 0.956 . S
C574 H587 0.961 1_565 S
C574 H588 0.961 . S
C575 C572 1.539 . S
C575 H589 0.958 . S
C575 H590 0.961 . S
C575 H591 0.960 . S
H576 C560 0.931 . S
H577 C565 0.929 . S
H578 C566 0.960 1_565 S
H579 C566 0.962 . S
H580 C566 0.960 . S
H581 C567 0.961 . S
H582 C567 0.980 . S
H583 C567 0.961 . S
H584 C568 0.931 . S
H585 C573 0.930 . S
H586 C574 0.956 . S
H587 C574 0.961 1_545 S
H588 C574 0.961 . S
H589 C575 0.958 . S
H590 C575 0.961 . S
H591 C575 0.960 . S
C592 C593 1.391 . S
C592 C594 1.394 . S
C592 H608 0.931 . S
C593 C592 1.391 . S
C593 C597 1.376 . S
C594 C592 1.394 . S
C594 C595 1.369 . S
C594 C598 1.531 1_655 S
C595 C594 1.369 . S
C595 C596 1.410 . S
C595 C603 1.503 1_655 S
C596 C595 1.410 . S
C596 C597 1.392 . S
C596 C599 1.511 . S
C597 C593 1.376 . S
C597 C596 1.392 . S
C597 H609 0.929 . S
C598 C594 1.531 1_455 S
C598 H610 0.960 . S
C598 H611 0.962 . S
C598 H612 0.972 . S
C599 C596 1.511 . S
C599 H613 0.961 . S
C599 H614 0.961 1_655 S
C599 H615 0.961 . S
C600 C601 1.370 . S
C600 C602 1.363 . S
C600 H616 0.931 . S
C601 C600 1.370 . S
C601 C605 1.408 . S
C602 C600 1.363 . S
C602 C603 1.370 . S
C602 C606 1.524 . S
C603 C595 1.503 1_455 S
C603 C602 1.370 . S
C603 C604 1.403 . S
C604 C603 1.403 . S
C604 C605 1.404 . S
C604 C607 1.539 . S
C605 C601 1.408 . S
C605 C604 1.404 . S
C605 H617 0.930 . S
C606 C602 1.524 . S
C606 H618 0.956 . S
C606 H619 0.961 . S
C606 H620 0.961 . S
C607 C604 1.539 . S
C607 H621 0.958 . S
C607 H622 0.961 . S
C607 H623 0.960 . S
H608 C592 0.931 . S
H609 C597 0.929 . S
H610 C598 0.960 . S
H611 C598 0.962 . S
H612 C598 0.972 . S
H613 C599 0.961 . S
H614 C599 0.961 1_455 S
H615 C599 0.961 . S
H616 C600 0.931 . S
H617 C605 0.930 . S
H618 C606 0.956 . S
H619 C606 0.961 . S
H620 C606 0.961 . S
H621 C607 0.958 . S
H622 C607 0.961 . S
H623 C607 0.960 . S
C624 C625 1.391 . S
C624 C626 1.394 . S
C624 H640 0.931 . S
C625 C624 1.391 . S
C625 C629 1.376 . S
C626 C624 1.394 . S
C626 C627 1.369 . S
C626 C630 1.531 . S
C627 C626 1.369 . S
C627 C628 1.410 . S
C627 C635 1.503 1_565 S
C628 C627 1.410 . S
C628 C629 1.392 . S
C628 C631 1.511 . S
C629 C625 1.376 . S
C629 C628 1.392 . S
C629 H641 0.929 . S
C630 C626 1.531 . S
C630 H642 0.960 . S
C630 H643 0.962 . S
C630 H644 0.960 . S
C631 C628 1.511 . S
C631 H645 0.961 . S
C631 H646 0.961 1_565 S
C631 H647 0.961 . S
C632 C633 1.370 . S
C632 C634 1.363 . S
C632 H648 0.931 . S
C633 C632 1.370 . S
C633 C637 1.408 . S
C634 C632 1.363 . S
C634 C635 1.370 . S
C634 C638 1.524 . S
C635 C627 1.503 1_545 S
C635 C634 1.370 . S
C635 C636 1.403 . S
C636 C635 1.403 . S
C636 C637 1.404 . S
C636 C639 1.539 . S
C637 C633 1.408 . S
C637 C636 1.404 . S
C637 H649 0.930 . S
C638 C634 1.524 . S
C638 H650 0.956 . S
C638 H651 0.961 . S
C638 H652 0.961 . S
C639 C636 1.539 . S
C639 H653 0.958 . S
C639 H654 0.961 . S
C639 H655 0.960 . S
H640 C624 0.931 . S
H641 C629 0.929 . S
H642 C630 0.960 . S
H643 C630 0.962 . S
H644 C630 0.960 . S
H645 C631 0.961 . S
H646 C631 0.961 1_545 S
H647 C631 0.961 . S
H648 C632 0.931 . S
H649 C637 0.930 . S
H650 C638 0.956 . S
H651 C638 0.961 . S
H652 C638 0.961 . S
H653 C639 0.958 . S
H654 C639 0.961 . S
H655 C639 0.960 . S
C656 C657 1.391 . S
C656 C658 1.394 . S
C656 H672 0.931 . S
C657 C656 1.391 . S
C657 C661 1.376 . S
C658 C656 1.394 . S
C658 C659 1.369 . S
C658 C662 1.531 . S
C659 C658 1.369 . S
C659 C660 1.410 . S
C659 C667 1.503 1_655 S
C660 C659 1.410 . S
C660 C661 1.392 . S
C660 C663 1.511 . S
C661 C657 1.376 . S
C661 C660 1.392 . S
C661 H673 0.929 . S
C662 C658 1.531 . S
C662 H674 0.960 1_655 S
C662 H675 0.962 . S
C662 H676 0.960 . S
C663 C660 1.511 . S
C663 H677 0.961 . S
C663 H678 0.946 1_655 S
C663 H679 0.961 . S
C664 C665 1.370 . S
C664 C666 1.363 . S
C664 H680 0.931 . S
C665 C664 1.370 . S
C665 C669 1.408 . S
C666 C664 1.363 . S
C666 C667 1.370 . S
C666 C670 1.524 . S
C667 C659 1.503 1_455 S
C667 C666 1.370 . S
C667 C668 1.403 . S
C668 C667 1.403 . S
C668 C669 1.404 . S
C668 C671 1.539 . S
C669 C665 1.408 . S
C669 C668 1.404 . S
C669 H681 0.930 . S
C670 C666 1.524 . S
C670 H682 0.956 1_455 S
C670 H683 0.961 1_455 S
C670 H684 0.961 . S
C671 C668 1.539 . S
C671 H685 0.958 . S
C671 H686 0.961 . S
C671 H687 0.960 . S
H672 C656 0.931 . S
H673 C661 0.929 . S
H674 C662 0.960 1_455 S
H675 C662 0.962 . S
H676 C662 0.960 . S
H677 C663 0.961 . S
H678 C663 0.946 1_455 S
H679 C663 0.961 . S
H680 C664 0.931 . S
H681 C669 0.930 . S
H682 C670 0.956 1_655 S
H683 C670 0.961 1_655 S
H684 C670 0.961 . S
H685 C671 0.958 . S
H686 C671 0.961 . S
H687 C671 0.960 . S
C688 C689 1.391 . S
C688 C690 1.394 . S
C688 H704 0.931 . S
C689 C688 1.391 . S
C689 C693 1.376 . S
C690 C688 1.394 . S
C690 C691 1.369 . S
C690 C694 1.531 . S
C691 C690 1.369 . S
C691 C692 1.410 . S
C691 C699 1.503 1_565 S
C692 C691 1.410 . S
C692 C693 1.392 . S
C692 C695 1.511 . S
C693 C689 1.376 . S
C693 C692 1.392 . S
C693 H705 0.929 . S
C694 C690 1.531 . S
C694 H706 0.960 . S
C694 H707 0.962 . S
C694 H708 0.960 . S
C695 C692 1.511 . S
C695 H709 0.961 . S
C695 H710 0.961 . S
C695 H711 0.961 . S
C696 C697 1.370 . S
C696 C698 1.363 . S
C696 H712 0.931 . S
C697 C696 1.370 . S
C697 C701 1.408 . S
C698 C696 1.363 . S
C698 C699 1.370 . S
C698 C702 1.524 . S
C699 C691 1.503 1_545 S
C699 C698 1.370 . S
C699 C700 1.403 . S
C700 C699 1.403 . S
C700 C701 1.404 . S
C700 C703 1.539 1_545 S
C701 C697 1.408 . S
C701 C700 1.404 . S
C701 H713 0.930 . S
C702 C698 1.524 . S
C702 H714 0.956 1_545 S
C702 H715 0.961 1_545 S
C702 H716 0.961 . S
C703 C700 1.539 1_565 S
C703 H717 0.958 . S
C703 H718 0.961 1_565 S
C703 H719 0.960 . S
H704 C688 0.931 . S
H705 C693 0.929 . S
H706 C694 0.960 . S
H707 C694 0.962 . S
H708 C694 0.960 . S
H709 C695 0.961 . S
H710 C695 0.961 . S
H711 C695 0.961 . S
H712 C696 0.931 . S
H713 C701 0.930 . S
H714 C702 0.956 1_565 S
H715 C702 0.961 1_565 S
H716 C702 0.961 . S
H717 C703 0.958 . S
H718 C703 0.961 1_545 S
H719 C703 0.960 . S
C720 C721 1.391 . S
C720 C722 1.394 . S
C720 H736 0.931 . S
C721 C720 1.391 . S
C721 C725 1.376 . S
C722 C720 1.394 . S
C722 C723 1.369 . S
C722 C726 1.531 . S
C723 C722 1.369 . S
C723 C724 1.410 . S
C723 C731 1.503 1_655 S
C724 C723 1.410 . S
C724 C725 1.392 . S
C724 C727 1.511 . S
C725 C721 1.376 . S
C725 C724 1.392 . S
C725 H737 0.929 . S
C726 C722 1.531 . S
C726 H738 0.960 1_655 S
C726 H739 0.962 . S
C726 H740 0.960 . S
C727 C724 1.511 . S
C727 H741 0.961 . S
C727 H742 0.961 1_655 S
C727 H743 0.961 . S
C728 C729 1.370 . S
C728 C730 1.363 . S
C728 H744 0.931 . S
C729 C728 1.370 . S
C729 C733 1.408 . S
C730 C728 1.363 . S
C730 C731 1.370 . S
C730 C734 1.524 . S
C731 C723 1.503 1_455 S
C731 C730 1.370 . S
C731 C732 1.403 . S
C732 C731 1.403 . S
C732 C733 1.404 . S
C732 C735 1.539 . S
C733 C729 1.408 . S
C733 C732 1.404 . S
C733 H745 0.930 . S
C734 C730 1.524 . S
C734 H746 0.956 1_455 S
C734 H747 0.961 1_455 S
C734 H748 0.961 . S
C735 C732 1.539 . S
C735 H749 0.958 . S
C735 H750 0.961 . S
C735 H751 0.960 . S
H736 C720 0.931 . S
H737 C725 0.929 . S
H738 C726 0.960 1_455 S
H739 C726 0.962 . S
H740 C726 0.960 . S
H741 C727 0.961 . S
H742 C727 0.961 1_455 S
H743 C727 0.961 . S
H744 C728 0.931 . S
H745 C733 0.930 . S
H746 C734 0.956 1_655 S
H747 C734 0.961 1_655 S
H748 C734 0.961 . S
H749 C735 0.958 . S
H750 C735 0.961 . S
H751 C735 0.960 . S
C752 C753 1.391 . S
C752 C754 1.394 . S
C752 H768 0.931 . S
C753 C752 1.391 . S
C753 C757 1.376 . S
C754 C752 1.394 . S
C754 C755 1.369 . S
C754 C758 1.531 . S
C755 C754 1.369 . S
C755 C756 1.410 . S
C755 C763 1.503 1_545 S
C756 C755 1.410 . S
C756 C757 1.392 . S
C756 C759 1.511 . S
C757 C753 1.376 . S
C757 C756 1.392 . S
C757 H769 0.929 . S
C758 C754 1.531 . S
C758 H770 0.960 . S
C758 H771 0.962 . S
C758 H772 0.960 . S
C759 C756 1.511 . S
C759 H773 0.961 . S
C759 H774 0.961 . S
C759 H775 0.961 . S
C760 C761 1.370 . S
C760 C762 1.363 . S
C760 H776 0.931 . S
C761 C760 1.370 . S
C761 C765 1.408 . S
C762 C760 1.363 . S
C762 C763 1.370 . S
C762 C766 1.524 1_565 S
C763 C755 1.503 1_565 S
C763 C762 1.370 . S
C763 C764 1.403 . S
C764 C763 1.403 . S
C764 C765 1.404 . S
C764 C767 1.539 . S
C765 C761 1.408 . S
C765 C764 1.404 . S
C765 H777 0.930 . S
C766 C762 1.524 1_545 S
C766 H778 0.956 . S
C766 H779 0.961 . S
C766 H780 0.961 1_545 S
C767 C764 1.539 . S
C767 H781 0.958 . S
C767 H782 0.961 . S
C767 H783 0.960 1_565 S
H768 C752 0.931 . S
H769 C757 0.929 . S
H770 C758 0.960 . S
H771 C758 0.962 . S
H772 C758 0.960 . S
H773 C759 0.961 . S
H774 C759 0.961 . S
H775 C759 0.961 . S
H776 C760 0.931 . S
H777 C765 0.930 . S
H778 C766 0.956 . S
H779 C766 0.961 . S
H780 C766 0.961 1_565 S
H781 C767 0.958 . S
H782 C767 0.961 . S
H783 C767 0.960 1_545 S
C784 C785 1.391 . S
C784 C786 1.394 . S
C784 H800 0.931 . S
C785 C784 1.391 . S
C785 C789 1.376 . S
C786 C784 1.394 . S
C786 C787 1.369 . S
C786 C790 1.531 . S
C787 C786 1.369 . S
C787 C788 1.410 . S
C787 C795 1.503 . S
C788 C787 1.410 . S
C788 C789 1.392 . S
C788 C791 1.511 . S
C789 C785 1.376 . S
C789 C788 1.392 . S
C789 H801 0.929 . S
C790 C786 1.531 . S
C790 H802 0.960 . S
C790 H803 0.962 . S
C790 H804 0.960 . S
C791 C788 1.511 . S
C791 H805 0.961 . S
C791 H806 0.961 . S
C791 H807 0.961 . S
C792 C793 1.370 . S
C792 C794 1.363 . S
C792 H808 0.931 . S
C793 C792 1.370 . S
C793 C797 1.408 . S
C794 C792 1.363 . S
C794 C795 1.370 . S
C794 C798 1.524 . S
C795 C787 1.503 . S
C795 C794 1.370 . S
C795 C796 1.403 . S
C796 C795 1.403 . S
C796 C797 1.404 . S
C796 C799 1.539 . S
C797 C793 1.408 . S
C797 C796 1.404 . S
C797 H809 0.930 . S
C798 C794 1.524 . S
C798 H810 0.956 . S
C798 H811 0.961 . S
C798 H812 0.961 . S
C799 C796 1.539 . S
C799 H813 0.958 . S
C799 H814 0.961 . S
C799 H815 0.960 . S
H800 C784 0.931 . S
H801 C789 0.929 . S
H802 C790 0.960 . S
H803 C790 0.962 . S
H804 C790 0.960 . S
H805 C791 0.961 . S
H806 C791 0.961 . S
H807 C791 0.961 . S
H808 C792 0.931 . S
H809 C797 0.930 . S
H810 C798 0.956 . S
H811 C798 0.961 . S
H812 C798 0.961 . S
H813 C799 0.958 . S
H814 C799 0.961 . S
H815 C799 0.960 . S
C816 C817 1.391 . S
C816 C818 1.394 . S
C816 H832 0.931 . S
C817 C816 1.391 . S
C817 C821 1.376 . S
C818 C816 1.394 . S
C818 C819 1.369 . S
C818 C822 1.531 . S
C819 C818 1.369 . S
C819 C820 1.410 . S
C819 C827 1.503 . S
C820 C819 1.410 . S
C820 C821 1.392 . S
C820 C823 1.511 . S
C821 C817 1.376 . S
C821 C820 1.392 . S
C821 H833 0.929 . S
C822 C818 1.531 . S
C822 H834 0.960 . S
C822 H835 0.962 . S
C822 H836 0.960 . S
C823 C820 1.511 . S
C823 H837 0.961 . S
C823 H838 0.961 . S
C823 H839 0.961 . S
C824 C825 1.370 . S
C824 C826 1.363 . S
C824 H840 0.931 . S
C825 C824 1.370 . S
C825 C829 1.408 . S
C826 C824 1.363 . S
C826 C827 1.370 . S
C826 C830 1.524 . S
C827 C819 1.503 . S
C827 C826 1.370 . S
C827 C828 1.403 . S
C828 C827 1.403 . S
C828 C829 1.404 . S
C828 C831 1.539 . S
C829 C825 1.408 . S
C829 C828 1.404 . S
C829 H841 0.930 . S
C830 C826 1.524 . S
C830 H842 0.956 . S
C830 H843 0.961 . S
C830 H844 0.961 . S
C831 C828 1.539 . S
C831 H845 0.958 . S
C831 H846 0.961 . S
C831 H847 0.960 . S
H832 C816 0.931 . S
H833 C821 0.929 . S
H834 C822 0.960 . S
H835 C822 0.962 . S
H836 C822 0.960 . S
H837 C823 0.961 . S
H838 C823 0.961 . S
H839 C823 0.961 . S
H840 C824 0.931 . S
H841 C829 0.930 . S
H842 C830 0.956 . S
H843 C830 0.961 . S
H844 C830 0.961 . S
H845 C831 0.958 . S
H846 C831 0.961 . S
H847 C831 0.960 . S
C848 C849 1.391 . S
C848 C850 1.394 . S
C848 H864 0.931 . S
C849 C848 1.391 . S
C849 C853 1.376 . S
C850 C848 1.394 . S
C850 C851 1.369 . S
C850 C854 1.531 . S
C851 C850 1.369 . S
C851 C852 1.410 . S
C851 C859 1.503 . S
C852 C851 1.410 . S
C852 C853 1.392 . S
C852 C855 1.511 . S
C853 C849 1.376 . S
C853 C852 1.392 . S
C853 H865 0.929 . S
C854 C850 1.531 . S
C854 H866 0.960 . S
C854 H867 0.962 . S
C854 H868 0.960 . S
C855 C852 1.511 . S
C855 H869 0.961 . S
C855 H870 0.961 . S
C855 H871 0.961 . S
C856 C857 1.370 . S
C856 C858 1.363 . S
C856 H872 0.931 . S
C857 C856 1.370 . S
C857 C861 1.408 . S
C858 C856 1.363 . S
C858 C859 1.370 . S
C858 C862 1.524 . S
C859 C851 1.503 . S
C859 C858 1.370 . S
C859 C860 1.403 . S
C860 C859 1.403 . S
C860 C861 1.404 . S
C860 C863 1.539 . S
C861 C857 1.408 . S
C861 C860 1.404 . S
C861 H873 0.930 . S
C862 C858 1.524 . S
C862 H874 0.956 . S
C862 H875 0.961 . S
C862 H876 0.961 . S
C863 C860 1.539 . S
C863 H877 0.958 . S
C863 H878 0.961 . S
C863 H879 0.960 . S
H864 C848 0.931 . S
H865 C853 0.929 . S
H866 C854 0.960 . S
H867 C854 0.962 . S
H868 C854 0.960 . S
H869 C855 0.961 . S
H870 C855 0.961 . S
H871 C855 0.961 . S
H872 C856 0.931 . S
H873 C861 0.930 . S
H874 C862 0.956 . S
H875 C862 0.961 . S
H876 C862 0.961 . S
H877 C863 0.958 . S
H878 C863 0.961 . S
H879 C863 0.960 . S
C880 C881 1.391 . S
C880 C882 1.394 . S
C880 H896 0.931 . S
C881 C880 1.391 . S
C881 C885 1.376 . S
C882 C880 1.394 . S
C882 C883 1.369 . S
C882 C886 1.531 . S
C883 C882 1.369 . S
C883 C884 1.410 . S
C883 C891 1.503 . S
C884 C883 1.410 . S
C884 C885 1.392 . S
C884 C887 1.511 . S
C885 C881 1.376 . S
C885 C884 1.392 . S
C885 H897 0.929 . S
C886 C882 1.531 . S
C886 H898 0.960 . S
C886 H899 0.962 . S
C886 H900 0.960 . S
C887 C884 1.511 . S
C887 H901 0.961 . S
C887 H902 0.961 . S
C887 H903 0.961 . S
C888 C889 1.370 . S
C888 C890 1.363 . S
C888 H904 0.931 . S
C889 C888 1.370 . S
C889 C893 1.408 . S
C890 C888 1.363 . S
C890 C891 1.370 . S
C890 C894 1.524 . S
C891 C883 1.503 . S
C891 C890 1.370 . S
C891 C892 1.403 . S
C892 C891 1.403 . S
C892 C893 1.404 . S
C892 C895 1.539 . S
C893 C889 1.408 . S
C893 C892 1.404 . S
C893 H905 0.930 . S
C894 C890 1.524 . S
C894 H906 0.956 . S
C894 H907 0.961 . S
C894 H908 0.961 . S
C895 C892 1.539 . S
C895 H909 0.958 . S
C895 H910 0.961 . S
C895 H911 0.960 . S
H896 C880 0.931 . S
H897 C885 0.929 . S
H898 C886 0.960 . S
H899 C886 0.962 . S
H900 C886 0.960 . S
H901 C887 0.961 . S
H902 C887 0.961 . S
H903 C887 0.961 . S
H904 C888 0.931 . S
H905 C893 0.930 . S
H906 C894 0.956 . S
H907 C894 0.961 . S
H908 C894 0.961 . S
H909 C895 0.958 . S
H910 C895 0.961 . S
H911 C895 0.960 . S
C912 C913 1.391 . S
C912 C914 1.394 . S
C912 H928 0.931 . S
C913 C912 1.391 . S
C913 C917 1.376 . S
C914 C912 1.394 . S
C914 C915 1.369 . S
C914 C918 1.531 . S
C915 C914 1.369 . S
C915 C916 1.410 . S
C915 C923 1.503 . S
C916 C915 1.410 . S
C916 C917 1.392 . S
C916 C919 1.511 . S
C917 C913 1.376 . S
C917 C916 1.392 . S
C917 H929 0.929 . S
C918 C914 1.531 . S
C918 H930 0.960 . S
C918 H931 0.962 . S
C918 H932 0.960 . S
C919 C916 1.511 . S
C919 H933 0.961 . S
C919 H934 0.961 . S
C919 H935 0.961 . S
C920 C921 1.370 . S
C920 C922 1.363 . S
C920 H936 0.931 . S
C921 C920 1.370 . S
C921 C925 1.408 . S
C922 C920 1.363 . S
C922 C923 1.370 . S
C922 C926 1.524 . S
C923 C915 1.503 . S
C923 C922 1.370 . S
C923 C924 1.403 . S
C924 C923 1.403 . S
C924 C925 1.404 . S
C924 C927 1.539 . S
C925 C921 1.408 . S
C925 C924 1.404 . S
C925 H937 0.930 . S
C926 C922 1.524 . S
C926 H938 0.956 . S
C926 H939 0.961 . S
C926 H940 0.961 . S
C927 C924 1.539 . S
C927 H941 0.958 . S
C927 H942 0.961 . S
C927 H943 0.960 . S
H928 C912 0.931 . S
H929 C917 0.929 . S
H930 C918 0.960 . S
H931 C918 0.962 . S
H932 C918 0.960 . S
H933 C919 0.961 . S
H934 C919 0.961 . S
H935 C919 0.961 . S
H936 C920 0.931 . S
H937 C925 0.930 . S
H938 C926 0.956 . S
H939 C926 0.961 . S
H940 C926 0.961 . S
H941 C927 0.958 . S
H942 C927 0.961 . S
H943 C927 0.960 . S
C944 C945 1.391 . S
C944 C946 1.394 . S
C944 H960 0.931 . S
C945 C944 1.391 . S
C945 C949 1.376 . S
C946 C944 1.394 . S
C946 C947 1.369 . S
C946 C950 1.531 . S
C947 C946 1.369 . S
C947 C948 1.410 . S
C947 C955 1.503 . S
C948 C947 1.410 . S
C948 C949 1.392 . S
C948 C951 1.511 . S
C949 C945 1.376 . S
C949 C948 1.392 . S
C949 H961 0.929 . S
C950 C946 1.531 . S
C950 H962 0.960 . S
C950 H963 0.962 . S
C950 H964 0.960 . S
C951 C948 1.511 . S
C951 H965 0.961 . S
C951 H966 0.961 . S
C951 H967 0.961 . S
C952 C953 1.370 . S
C952 C954 1.363 . S
C952 H968 0.931 . S
C953 C952 1.370 . S
C953 C957 1.408 . S
C954 C952 1.363 . S
C954 C955 1.370 . S
C954 C958 1.524 . S
C955 C947 1.503 . S
C955 C954 1.370 . S
C955 C956 1.403 . S
C956 C955 1.403 . S
C956 C957 1.404 . S
C956 C959 1.539 . S
C957 C953 1.408 . S
C957 C956 1.404 . S
C957 H969 0.930 . S
C958 C954 1.524 . S
C958 H970 0.956 . S
C958 H971 0.961 . S
C958 H972 0.961 . S
C959 C956 1.539 . S
C959 H973 0.958 . S
C959 H974 0.961 . S
C959 H975 0.960 . S
H960 C944 0.931 . S
H961 C949 0.929 . S
H962 C950 0.960 . S
H963 C950 0.962 . S
H964 C950 0.960 . S
H965 C951 0.961 . S
H966 C951 0.961 . S
H967 C951 0.961 . S
H968 C952 0.931 . S
H969 C957 0.930 . S
H970 C958 0.956 . S
H971 C958 0.961 . S
H972 C958 0.961 . S
H973 C959 0.958 . S
H974 C959 0.961 . S
H975 C959 0.960 . S
C976 C977 1.391 . S
C976 C978 1.394 . S
C976 H992 0.931 . S
C977 C976 1.391 . S
C977 C981 1.376 . S
C978 C976 1.394 . S
C978 C979 1.369 . S
C978 C982 1.531 . S
C979 C978 1.369 . S
C979 C980 1.410 . S
C979 C987 1.503 . S
C980 C979 1.410 . S
C980 C981 1.392 . S
C980 C983 1.511 . S
C981 C977 1.376 . S
C981 C980 1.392 . S
C981 H993 0.929 . S
C982 C978 1.531 . S
C982 H994 0.960 . S
C982 H995 0.962 . S
C982 H996 0.960 . S
C983 C980 1.511 . S
C983 H997 0.961 . S
C983 H998 0.961 . S
C983 H999 0.961 . S
C984 C985 1.370 . S
C984 C986 1.363 . S
C984 H1000 0.931 . S
C985 C984 1.370 . S
C985 C989 1.408 . S
C986 C984 1.363 . S
C986 C987 1.370 . S
C986 C990 1.524 . S
C987 C979 1.503 . S
C987 C986 1.370 . S
C987 C988 1.403 . S
C988 C987 1.403 . S
C988 C989 1.404 . S
C988 C991 1.539 . S
C989 C985 1.408 . S
C989 C988 1.404 . S
C989 H1001 0.930 . S
C990 C986 1.524 . S
C990 H1002 0.956 . S
C990 H1003 0.961 . S
C990 H1004 0.961 . S
C991 C988 1.539 . S
C991 H1005 0.958 . S
C991 H1006 0.961 . S
C991 H1007 0.960 . S
H992 C976 0.931 . S
H993 C981 0.929 . S
H994 C982 0.960 . S
H995 C982 0.962 . S
H996 C982 0.960 . S
H997 C983 0.961 . S
H998 C983 0.961 . S
H999 C983 0.961 . S
H1000 C984 0.931 . S
H1001 C989 0.930 . S
H1002 C990 0.956 . S
H1003 C990 0.961 . S
H1004 C990 0.961 . S
H1005 C991 0.958 . S
H1006 C991 0.961 . S
H1007 C991 0.960 . S
C1008 C1009 1.391 . S
C1008 C1010 1.394 . S
C1008 H1024 0.931 . S
C1009 C1008 1.391 . S
C1009 C1013 1.376 . S
C1010 C1008 1.394 . S
C1010 C1011 1.369 . S
C1010 C1014 1.531 . S
C1011 C1010 1.369 . S
C1011 C1012 1.410 . S
C1011 C1019 1.503 . S
C1012 C1011 1.410 . S
C1012 C1013 1.392 . S
C1012 C1015 1.511 . S
C1013 C1009 1.376 . S
C1013 C1012 1.392 . S
C1013 H1025 0.929 . S
C1014 C1010 1.531 . S
C1014 H1026 0.960 . S
C1014 H1027 0.962 . S
C1014 H1028 0.960 . S
C1015 C1012 1.511 . S
C1015 H1029 0.961 . S
C1015 H1030 0.961 . S
C1015 H1031 0.961 . S
C1016 C1017 1.370 . S
C1016 C1018 1.363 . S
C1016 H1032 0.931 . S
C1017 C1016 1.370 . S
C1017 C1021 1.408 . S
C1018 C1016 1.363 . S
C1018 C1019 1.370 . S
C1018 C1022 1.524 . S
C1019 C1011 1.503 . S
C1019 C1018 1.370 . S
C1019 C1020 1.403 . S
C1020 C1019 1.403 . S
C1020 C1021 1.404 . S
C1020 C1023 1.539 . S
C1021 C1017 1.408 . S
C1021 C1020 1.404 . S
C1021 H1033 0.930 . S
C1022 C1018 1.524 . S
C1022 H1034 0.956 . S
C1022 H1035 0.961 . S
C1022 H1036 0.961 . S
C1023 C1020 1.539 . S
C1023 H1037 0.958 . S
C1023 H1038 0.961 . S
C1023 H1039 0.960 . S
H1024 C1008 0.931 . S
H1025 C1013 0.929 . S
H1026 C1014 0.960 . S
H1027 C1014 0.962 . S
H1028 C1014 0.960 . S
H1029 C1015 0.961 . S
H1030 C1015 0.961 . S
H1031 C1015 0.961 . S
H1032 C1016 0.931 . S
H1033 C1021 0.930 . S
H1034 C1022 0.956 . S
H1035 C1022 0.961 . S
H1036 C1022 0.961 . S
H1037 C1023 0.958 . S
H1038 C1023 0.961 . S
H1039 C1023 0.960 . S
C1040 C1041 1.391 . S
C1040 C1042 1.394 . S
C1040 H1056 0.931 . S
C1041 C1040 1.391 . S
C1041 C1045 1.376 . S
C1042 C1040 1.394 . S
C1042 C1043 1.369 . S
C1042 C1046 1.531 . S
C1043 C1042 1.369 . S
C1043 C1044 1.410 . S
C1043 C1051 1.503 1_554 S
C1044 C1043 1.410 . S
C1044 C1045 1.392 . S
C1044 C1047 1.511 . S
C1045 C1041 1.376 . S
C1045 C1044 1.392 . S
C1045 H1057 0.929 . S
C1046 C1042 1.531 . S
C1046 H1058 0.960 . S
C1046 H1059 0.962 . S
C1046 H1060 0.960 . S
C1047 C1044 1.511 . S
C1047 H1061 0.961 . S
C1047 H1062 0.961 1_554 S
C1047 H1063 0.961 . S
C1048 C1049 1.370 . S
C1048 C1050 1.363 . S
C1048 H1064 0.931 . S
C1049 C1048 1.370 . S
C1049 C1053 1.408 . S
C1050 C1048 1.363 . S
C1050 C1051 1.370 . S
C1050 C1054 1.524 . S
C1051 C1043 1.503 1_556 S
C1051 C1050 1.370 . S
C1051 C1052 1.403 . S
C1052 C1051 1.403 . S
C1052 C1053 1.404 . S
C1052 C1055 1.539 . S
C1053 C1049 1.408 . S
C1053 C1052 1.404 . S
C1053 H1065 0.930 . S
C1054 C1050 1.524 . S
C1054 H1066 0.956 . S
C1054 H1067 0.961 . S
C1054 H1068 0.961 . S
C1055 C1052 1.539 . S
C1055 H1069 0.958 . S
C1055 H1070 0.961 . S
C1055 H1071 0.960 1_556 S
H1056 C1040 0.931 . S
H1057 C1045 0.929 . S
H1058 C1046 0.960 . S
H1059 C1046 0.962 . S
H1060 C1046 0.960 . S
H1061 C1047 0.961 . S
H1062 C1047 0.961 1_556 S
H1063 C1047 0.961 . S
H1064 C1048 0.931 . S
H1065 C1053 0.930 . S
H1066 C1054 0.956 . S
H1067 C1054 0.961 . S
H1068 C1054 0.961 . S
H1069 C1055 0.958 . S
H1070 C1055 0.961 . S
H1071 C1055 0.960 1_554 S
C1072 C1073 1.391 . S
C1072 C1074 1.394 . S
C1072 H1088 0.931 . S
C1073 C1072 1.391 . S
C1073 C1077 1.376 . S
C1074 C1072 1.394 . S
C1074 C1075 1.369 . S
C1074 C1078 1.531 . S
C1075 C1074 1.369 . S
C1075 C1076 1.410 . S
C1075 C1083 1.503 . S
C1076 C1075 1.410 . S
C1076 C1077 1.392 . S
C1076 C1079 1.511 . S
C1077 C1073 1.376 . S
C1077 C1076 1.392 . S
C1077 H1089 0.929 . S
C1078 C1074 1.531 . S
C1078 H1090 0.960 . S
C1078 H1091 0.962 . S
C1078 H1092 0.960 . S
C1079 C1076 1.511 . S
C1079 H1093 0.961 . S
C1079 H1094 0.961 . S
C1079 H1095 0.961 . S
C1080 C1081 1.370 . S
C1080 C1082 1.363 . S
C1080 H1096 0.931 . S
C1081 C1080 1.370 . S
C1081 C1085 1.408 . S
C1082 C1080 1.363 . S
C1082 C1083 1.370 . S
C1082 C1086 1.524 . S
C1083 C1075 1.503 . S
C1083 C1082 1.370 . S
C1083 C1084 1.403 . S
C1084 C1083 1.403 . S
C1084 C1085 1.404 . S
C1084 C1087 1.539 . S
C1085 C1081 1.408 . S
C1085 C1084 1.404 . S
C1085 H1097 0.930 . S
C1086 C1082 1.524 . S
C1086 H1098 0.956 . S
C1086 H1099 0.961 . S
C1086 H1100 0.961 . S
C1087 C1084 1.539 . S
C1087 H1101 0.958 . S
C1087 H1102 0.961 . S
C1087 H1103 0.960 . S
H1088 C1072 0.931 . S
H1089 C1077 0.929 . S
H1090 C1078 0.960 . S
H1091 C1078 0.962 . S
H1092 C1078 0.960 . S
H1093 C1079 0.961 . S
H1094 C1079 0.961 . S
H1095 C1079 0.961 . S
H1096 C1080 0.931 . S
H1097 C1085 0.930 . S
H1098 C1086 0.956 . S
H1099 C1086 0.961 . S
H1100 C1086 0.961 . S
H1101 C1087 0.958 . S
H1102 C1087 0.961 . S
H1103 C1087 0.960 . S
C1104 C1105 1.391 . S
C1104 C1106 1.394 . S
C1104 H1120 0.931 . S
C1105 C1104 1.391 . S
C1105 C1109 1.376 . S
C1106 C1104 1.394 . S
C1106 C1107 1.369 . S
C1106 C1110 1.531 . S
C1107 C1106 1.369 . S
C1107 C1108 1.410 . S
C1107 C1115 1.503 1_556 S
C1108 C1107 1.410 . S
C1108 C1109 1.392 . S
C1108 C1111 1.511 . S
C1109 C1105 1.376 . S
C1109 C1108 1.392 . S
C1109 H1121 0.929 . S
C1110 C1106 1.531 . S
C1110 H1122 0.960 . S
C1110 H1123 0.962 . S
C1110 H1124 0.960 . S
C1111 C1108 1.511 . S
C1111 H1125 0.961 . S
C1111 H1126 0.961 1_556 S
C1111 H1127 0.961 . S
C1112 C1113 1.370 . S
C1112 C1114 1.363 . S
C1112 H1128 0.931 . S
C1113 C1112 1.370 . S
C1113 C1117 1.408 . S
C1114 C1112 1.363 . S
C1114 C1115 1.370 . S
C1114 C1118 1.524 . S
C1115 C1107 1.503 1_554 S
C1115 C1114 1.370 . S
C1115 C1116 1.403 . S
C1116 C1115 1.403 . S
C1116 C1117 1.404 . S
C1116 C1119 1.539 . S
C1117 C1113 1.408 . S
C1117 C1116 1.404 . S
C1117 H1129 0.930 . S
C1118 C1114 1.524 . S
C1118 H1130 0.956 . S
C1118 H1131 0.961 . S
C1118 H1132 0.961 . S
C1119 C1116 1.539 . S
C1119 H1133 0.958 . S
C1119 H1134 0.961 . S
C1119 H1135 0.960 1_554 S
H1120 C1104 0.931 . S
H1121 C1109 0.929 . S
H1122 C1110 0.960 . S
H1123 C1110 0.962 . S
H1124 C1110 0.960 . S
H1125 C1111 0.961 . S
H1126 C1111 0.961 1_554 S
H1127 C1111 0.961 . S
H1128 C1112 0.931 . S
H1129 C1117 0.930 . S
H1130 C1118 0.956 . S
H1131 C1118 0.961 . S
H1132 C1118 0.961 . S
H1133 C1119 0.958 . S
H1134 C1119 0.961 . S
H1135 C1119 0.960 1_556 S
C1136 C1137 1.391 . S
C1136 C1138 1.394 . S
C1136 H1152 0.931 . S
C1137 C1136 1.391 . S
C1137 C1141 1.376 . S
C1138 C1136 1.394 . S
C1138 C1139 1.369 . S
C1138 C1142 1.531 . S
C1139 C1138 1.369 . S
C1139 C1140 1.410 . S
C1139 C1147 1.503 . S
C1140 C1139 1.410 . S
C1140 C1141 1.392 . S
C1140 C1143 1.511 . S
C1141 C1137 1.376 . S
C1141 C1140 1.392 . S
C1141 H1153 0.929 . S
C1142 C1138 1.531 . S
C1142 H1154 0.960 . S
C1142 H1155 0.962 . S
C1142 H1156 0.960 . S
C1143 C1140 1.511 . S
C1143 H1157 0.961 . S
C1143 H1158 0.961 . S
C1143 H1159 0.961 . S
C1144 C1145 1.370 . S
C1144 C1146 1.363 . S
C1144 H1160 0.931 . S
C1145 C1144 1.370 . S
C1145 C1149 1.408 . S
C1146 C1144 1.363 . S
C1146 C1147 1.370 . S
C1146 C1150 1.524 . S
C1147 C1139 1.503 . S
C1147 C1146 1.370 . S
C1147 C1148 1.403 . S
C1148 C1147 1.403 . S
C1148 C1149 1.404 . S
C1148 C1151 1.539 . S
C1149 C1145 1.408 . S
C1149 C1148 1.404 . S
C1149 H1161 0.930 . S
C1150 C1146 1.524 . S
C1150 H1162 0.956 . S
C1150 H1163 0.961 . S
C1150 H1164 0.961 . S
C1151 C1148 1.539 . S
C1151 H1165 0.958 . S
C1151 H1166 0.961 . S
C1151 H1167 0.960 . S
H1152 C1136 0.931 . S
H1153 C1141 0.929 . S
H1154 C1142 0.960 . S
H1155 C1142 0.962 . S
H1156 C1142 0.960 . S
H1157 C1143 0.961 . S
H1158 C1143 0.961 . S
H1159 C1143 0.961 . S
H1160 C1144 0.931 . S
H1161 C1149 0.930 . S
H1162 C1150 0.956 . S
H1163 C1150 0.961 . S
H1164 C1150 0.961 . S
H1165 C1151 0.958 . S
H1166 C1151 0.961 . S
H1167 C1151 0.960 . S
C1168 C1169 1.391 . S
C1168 C1170 1.394 . S
C1168 H1184 0.931 . S
C1169 C1168 1.391 . S
C1169 C1173 1.376 . S
C1170 C1168 1.394 . S
C1170 C1171 1.369 . S
C1170 C1174 1.531 . S
C1171 C1170 1.369 . S
C1171 C1172 1.410 . S
C1171 C1179 1.503 1_556 S
C1172 C1171 1.410 . S
C1172 C1173 1.392 . S
C1172 C1175 1.511 . S
C1173 C1169 1.376 . S
C1173 C1172 1.392 . S
C1173 H1185 0.929 . S
C1174 C1170 1.531 . S
C1174 H1186 0.960 1_556 S
C1174 H1187 0.955 1_556 S
C1174 H1188 0.960 . S
C1175 C1172 1.511 . S
C1175 H1189 0.961 . S
C1175 H1190 0.961 . S
C1175 H1191 0.961 . S
C1176 C1177 1.370 . S
C1176 C1178 1.363 . S
C1176 H1192 0.931 . S
C1177 C1176 1.370 . S
C1177 C1181 1.408 . S
C1178 C1176 1.363 . S
C1178 C1179 1.370 . S
C1178 C1182 1.524 . S
C1179 C1171 1.503 1_554 S
C1179 C1178 1.370 . S
C1179 C1180 1.403 . S
C1180 C1179 1.403 . S
C1180 C1181 1.404 . S
C1180 C1183 1.539 . S
C1181 C1177 1.408 . S
C1181 C1180 1.404 . S
C1181 H1193 0.930 . S
C1182 C1178 1.524 . S
C1182 H1194 0.956 . S
C1182 H1195 0.961 . S
C1182 H1196 0.961 . S
C1183 C1180 1.539 . S
C1183 H1197 0.958 . S
C1183 H1198 0.961 . S
C1183 H1199 0.960 1_554 S
H1184 C1168 0.931 . S
H1185 C1173 0.929 . S
H1186 C1174 0.960 1_554 S
H1187 C1174 0.955 1_554 S
H1188 C1174 0.960 . S
H1189 C1175 0.961 . S
H1190 C1175 0.961 . S
H1191 C1175 0.961 . S
H1192 C1176 0.931 . S
H1193 C1181 0.930 . S
H1194 C1182 0.956 . S
H1195 C1182 0.961 . S
H1196 C1182 0.961 . S
H1197 C1183 0.958 . S
H1198 C1183 0.961 . S
H1199 C1183 0.960 1_556 S
C1200 C1201 1.391 . S
C1200 C1202 1.394 . S
C1200 H1216 0.931 . S
C1201 C1200 1.391 . S
C1201 C1205 1.376 . S
C1202 C1200 1.394 . S
C1202 C1203 1.369 . S
C1202 C1206 1.531 . S
C1203 C1202 1.369 . S
C1203 C1204 1.410 . S
C1203 C1211 1.503 . S
C1204 C1203 1.410 . S
C1204 C1205 1.392 . S
C1204 C1207 1.511 . S
C1205 C1201 1.376 . S
C1205 C1204 1.392 . S
C1205 H1217 0.929 . S
C1206 C1202 1.531 . S
C1206 H1218 0.960 . S
C1206 H1219 0.962 . S
C1206 H1220 0.960 . S
C1207 C1204 1.511 . S
C1207 H1221 0.961 . S
C1207 H1222 0.961 . S
C1207 H1223 0.961 . S
C1208 C1209 1.370 . S
C1208 C1210 1.363 . S
C1208 H1224 0.931 . S
C1209 C1208 1.370 . S
C1209 C1213 1.408 . S
C1210 C1208 1.363 . S
C1210 C1211 1.370 . S
C1210 C1214 1.524 . S
C1211 C1203 1.503 . S
C1211 C1210 1.370 . S
C1211 C1212 1.403 . S
C1212 C1211 1.403 . S
C1212 C1213 1.404 . S
C1212 C1215 1.539 . S
C1213 C1209 1.408 . S
C1213 C1212 1.404 . S
C1213 H1225 0.930 . S
C1214 C1210 1.524 . S
C1214 H1226 0.956 . S
C1214 H1227 0.961 . S
C1214 H1228 0.961 . S
C1215 C1212 1.539 . S
C1215 H1229 0.958 . S
C1215 H1230 0.961 . S
C1215 H1231 0.960 . S
H1216 C1200 0.931 . S
H1217 C1205 0.929 . S
H1218 C1206 0.960 . S
H1219 C1206 0.962 . S
H1220 C1206 0.960 . S
H1221 C1207 0.961 . S
H1222 C1207 0.961 . S
H1223 C1207 0.961 . S
H1224 C1208 0.931 . S
H1225 C1213 0.930 . S
H1226 C1214 0.956 . S
H1227 C1214 0.961 . S
H1228 C1214 0.961 . S
H1229 C1215 0.958 . S
H1230 C1215 0.961 . S
H1231 C1215 0.960 . S
C1232 C1233 1.391 . S
C1232 C1234 1.394 . S
C1232 H1248 0.931 . S
C1233 C1232 1.391 . S
C1233 C1237 1.376 . S
C1234 C1232 1.394 . S
C1234 C1235 1.369 . S
C1234 C1238 1.531 . S
C1235 C1234 1.369 . S
C1235 C1236 1.410 . S
C1235 C1243 1.503 1_554 S
C1236 C1235 1.410 . S
C1236 C1237 1.392 . S
C1236 C1239 1.511 . S
C1237 C1233 1.376 . S
C1237 C1236 1.392 . S
C1237 H1249 0.929 . S
C1238 C1234 1.531 . S
C1238 H1250 0.960 1_554 S
C1238 H1251 0.962 . S
C1238 H1252 0.960 . S
C1239 C1236 1.511 . S
C1239 H1253 0.961 . S
C1239 H1254 0.961 . S
C1239 H1255 0.961 . S
C1240 C1241 1.370 . S
C1240 C1242 1.363 . S
C1240 H1256 0.931 . S
C1241 C1240 1.370 . S
C1241 C1245 1.408 . S
C1242 C1240 1.363 . S
C1242 C1243 1.370 . S
C1242 C1246 1.524 . S
C1243 C1235 1.503 1_556 S
C1243 C1242 1.370 . S
C1243 C1244 1.403 . S
C1244 C1243 1.403 . S
C1244 C1245 1.404 . S
C1244 C1247 1.539 . S
C1245 C1241 1.408 . S
C1245 C1244 1.404 . S
C1245 H1257 0.930 . S
C1246 C1242 1.524 . S
C1246 H1258 0.956 1_556 S
C1246 H1259 0.961 1_556 S
C1246 H1260 0.961 . S
C1247 C1244 1.539 . S
C1247 H1261 0.958 . S
C1247 H1262 0.961 . S
C1247 H1263 0.960 . S
H1248 C1232 0.931 . S
H1249 C1237 0.929 . S
H1250 C1238 0.960 1_556 S
H1251 C1238 0.962 . S
H1252 C1238 0.960 . S
H1253 C1239 0.961 . S
H1254 C1239 0.961 . S
H1255 C1239 0.961 . S
H1256 C1240 0.931 . S
H1257 C1245 0.930 . S
H1258 C1246 0.956 1_554 S
H1259 C1246 0.961 1_554 S
H1260 C1246 0.961 . S
H1261 C1247 0.958 . S
H1262 C1247 0.961 . S
H1263 C1247 0.960 . S
C1264 C1265 1.391 . S
C1264 C1266 1.394 . S
C1264 H1280 0.931 . S
C1265 C1264 1.391 . S
C1265 C1269 1.376 . S
C1266 C1264 1.394 . S
C1266 C1267 1.369 . S
C1266 C1270 1.531 . S
C1267 C1266 1.369 . S
C1267 C1268 1.410 . S
C1267 C1275 1.503 . S
C1268 C1267 1.410 . S
C1268 C1269 1.392 . S
C1268 C1271 1.511 . S
C1269 C1265 1.376 . S
C1269 C1268 1.392 . S
C1269 H1281 0.929 . S
C1270 C1266 1.531 . S
C1270 H1282 0.960 . S
C1270 H1283 0.962 . S
C1270 H1284 0.960 . S
C1271 C1268 1.511 . S
C1271 H1285 0.961 . S
C1271 H1286 0.961 . S
C1271 H1287 0.961 . S
C1272 C1273 1.370 . S
C1272 C1274 1.363 . S
C1272 H1288 0.931 . S
C1273 C1272 1.370 . S
C1273 C1277 1.408 . S
C1274 C1272 1.363 . S
C1274 C1275 1.370 . S
C1274 C1278 1.524 . S
C1275 C1267 1.503 . S
C1275 C1274 1.370 . S
C1275 C1276 1.403 . S
C1276 C1275 1.403 . S
C1276 C1277 1.404 . S
C1276 C1279 1.539 . S
C1277 C1273 1.408 . S
C1277 C1276 1.404 . S
C1277 H1289 0.930 . S
C1278 C1274 1.524 . S
C1278 H1290 0.956 . S
C1278 H1291 0.961 . S
C1278 H1292 0.961 . S
C1279 C1276 1.539 . S
C1279 H1293 0.958 . S
C1279 H1294 0.961 . S
C1279 H1295 0.960 . S
H1280 C1264 0.931 . S
H1281 C1269 0.929 . S
H1282 C1270 0.960 . S
H1283 C1270 0.962 . S
H1284 C1270 0.960 . S
H1285 C1271 0.961 . S
H1286 C1271 0.961 . S
H1287 C1271 0.961 . S
H1288 C1272 0.931 . S
H1289 C1277 0.930 . S
H1290 C1278 0.956 . S
H1291 C1278 0.961 . S
H1292 C1278 0.961 . S
H1293 C1279 0.958 . S
H1294 C1279 0.961 . S
H1295 C1279 0.960 . S
C1296 C1297 1.391 . S
C1296 C1298 1.394 . S
C1296 H1312 0.931 . S
C1297 C1296 1.391 . S
C1297 C1301 1.376 . S
C1298 C1296 1.394 . S
C1298 C1299 1.369 . S
C1298 C1302 1.531 . S
C1299 C1298 1.369 . S
C1299 C1300 1.410 . S
C1299 C1307 1.503 . S
C1300 C1299 1.410 . S
C1300 C1301 1.392 . S
C1300 C1303 1.511 . S
C1301 C1297 1.376 . S
C1301 C1300 1.392 . S
C1301 H1313 0.929 . S
C1302 C1298 1.531 . S
C1302 H1314 0.960 . S
C1302 H1315 0.962 . S
C1302 H1316 0.960 . S
C1303 C1300 1.511 . S
C1303 H1317 0.961 . S
C1303 H1318 0.961 . S
C1303 H1319 0.961 . S
C1304 C1305 1.370 . S
C1304 C1306 1.363 . S
C1304 H1320 0.931 . S
C1305 C1304 1.370 . S
C1305 C1309 1.408 . S
C1306 C1304 1.363 . S
C1306 C1307 1.370 . S
C1306 C1310 1.524 . S
C1307 C1299 1.503 . S
C1307 C1306 1.370 . S
C1307 C1308 1.403 . S
C1308 C1307 1.403 . S
C1308 C1309 1.404 . S
C1308 C1311 1.539 . S
C1309 C1305 1.408 . S
C1309 C1308 1.404 . S
C1309 H1321 0.930 . S
C1310 C1306 1.524 . S
C1310 H1322 0.956 . S
C1310 H1323 0.961 . S
C1310 H1324 0.961 . S
C1311 C1308 1.539 . S
C1311 H1325 0.958 . S
C1311 H1326 0.961 . S
C1311 H1327 0.960 . S
H1312 C1296 0.931 . S
H1313 C1301 0.929 . S
H1314 C1302 0.960 . S
H1315 C1302 0.962 . S
H1316 C1302 0.960 . S
H1317 C1303 0.961 . S
H1318 C1303 0.961 . S
H1319 C1303 0.961 . S
H1320 C1304 0.931 . S
H1321 C1309 0.930 . S
H1322 C1310 0.956 . S
H1323 C1310 0.961 . S
H1324 C1310 0.961 . S
H1325 C1311 0.958 . S
H1326 C1311 0.961 . S
H1327 C1311 0.960 . S
C1328 C1329 1.391 . S
C1328 C1330 1.394 . S
C1328 H1344 0.931 . S
C1329 C1328 1.391 . S
C1329 C1333 1.376 . S
C1330 C1328 1.394 . S
C1330 C1331 1.369 . S
C1330 C1334 1.531 . S
C1331 C1330 1.369 . S
C1331 C1332 1.410 . S
C1331 C1339 1.503 . S
C1332 C1331 1.410 . S
C1332 C1333 1.392 . S
C1332 C1335 1.511 . S
C1333 C1329 1.376 . S
C1333 C1332 1.392 . S
C1333 H1345 0.929 . S
C1334 C1330 1.531 . S
C1334 H1346 0.960 . S
C1334 H1347 0.962 . S
C1334 H1348 0.960 . S
C1335 C1332 1.511 . S
C1335 H1349 0.961 . S
C1335 H1350 0.961 . S
C1335 H1351 0.961 . S
C1336 C1337 1.370 . S
C1336 C1338 1.363 . S
C1336 H1352 0.931 . S
C1337 C1336 1.370 . S
C1337 C1341 1.408 . S
C1338 C1336 1.363 . S
C1338 C1339 1.370 . S
C1338 C1342 1.524 . S
C1339 C1331 1.503 . S
C1339 C1338 1.370 . S
C1339 C1340 1.403 . S
C1340 C1339 1.403 . S
C1340 C1341 1.404 . S
C1340 C1343 1.539 . S
C1341 C1337 1.408 . S
C1341 C1340 1.404 . S
C1341 H1353 0.930 . S
C1342 C1338 1.524 . S
C1342 H1354 0.956 . S
C1342 H1355 0.961 . S
C1342 H1356 0.961 . S
C1343 C1340 1.539 . S
C1343 H1357 0.958 . S
C1343 H1358 0.961 . S
C1343 H1359 0.960 . S
H1344 C1328 0.931 . S
H1345 C1333 0.929 . S
H1346 C1334 0.960 . S
H1347 C1334 0.962 . S
H1348 C1334 0.960 . S
H1349 C1335 0.961 . S
H1350 C1335 0.961 . S
H1351 C1335 0.961 . S
H1352 C1336 0.931 . S
H1353 C1341 0.930 . S
H1354 C1342 0.956 . S
H1355 C1342 0.961 . S
H1356 C1342 0.961 . S
H1357 C1343 0.958 . S
H1358 C1343 0.961 . S
H1359 C1343 0.960 . S
C1360 C1361 1.391 . S
C1360 C1362 1.394 . S
C1360 H1376 0.931 . S
C1361 C1360 1.391 . S
C1361 C1365 1.376 . S
C1362 C1360 1.394 . S
C1362 C1363 1.369 . S
C1362 C1366 1.531 . S
C1363 C1362 1.369 . S
C1363 C1364 1.410 . S
C1363 C1371 1.503 . S
C1364 C1363 1.410 . S
C1364 C1365 1.392 . S
C1364 C1367 1.511 . S
C1365 C1361 1.376 . S
C1365 C1364 1.392 . S
C1365 H1377 0.929 . S
C1366 C1362 1.531 . S
C1366 H1378 0.960 . S
C1366 H1379 0.962 . S
C1366 H1380 0.960 . S
C1367 C1364 1.511 . S
C1367 H1381 0.961 . S
C1367 H1382 0.961 . S
C1367 H1383 0.961 . S
C1368 C1369 1.370 . S
C1368 C1370 1.363 . S
C1368 H1384 0.931 . S
C1369 C1368 1.370 . S
C1369 C1373 1.408 . S
C1370 C1368 1.363 . S
C1370 C1371 1.370 . S
C1370 C1374 1.524 . S
C1371 C1363 1.503 . S
C1371 C1370 1.370 . S
C1371 C1372 1.403 . S
C1372 C1371 1.403 . S
C1372 C1373 1.404 . S
C1372 C1375 1.539 . S
C1373 C1369 1.408 . S
C1373 C1372 1.404 . S
C1373 H1385 0.930 . S
C1374 C1370 1.524 . S
C1374 H1386 0.956 . S
C1374 H1387 0.961 . S
C1374 H1388 0.961 . S
C1375 C1372 1.539 . S
C1375 H1389 0.958 . S
C1375 H1390 0.961 . S
C1375 H1391 0.960 . S
H1376 C1360 0.931 . S
H1377 C1365 0.929 . S
H1378 C1366 0.960 . S
H1379 C1366 0.962 . S
H1380 C1366 0.960 . S
H1381 C1367 0.961 . S
H1382 C1367 0.961 . S
H1383 C1367 0.961 . S
H1384 C1368 0.931 . S
H1385 C1373 0.930 . S
H1386 C1374 0.956 . S
H1387 C1374 0.961 . S
H1388 C1374 0.961 . S
H1389 C1375 0.958 . S
H1390 C1375 0.961 . S
H1391 C1375 0.960 . S
C1392 C1393 1.391 . S
C1392 C1394 1.394 . S
C1392 H1408 0.931 . S
C1393 C1392 1.391 . S
C1393 C1397 1.376 . S
C1394 C1392 1.394 . S
C1394 C1395 1.369 . S
C1394 C1398 1.531 . S
C1395 C1394 1.369 . S
C1395 C1396 1.410 . S
C1395 C1403 1.503 . S
C1396 C1395 1.410 . S
C1396 C1397 1.392 . S
C1396 C1399 1.511 . S
C1397 C1393 1.376 . S
C1397 C1396 1.392 . S
C1397 H1409 0.929 . S
C1398 C1394 1.531 . S
C1398 H1410 0.960 . S
C1398 H1411 0.962 . S
C1398 H1412 0.960 . S
C1399 C1396 1.511 . S
C1399 H1413 0.961 . S
C1399 H1414 0.961 . S
C1399 H1415 0.961 . S
C1400 C1401 1.370 . S
C1400 C1402 1.363 . S
C1400 H1416 0.931 . S
C1401 C1400 1.370 . S
C1401 C1405 1.408 . S
C1402 C1400 1.363 . S
C1402 C1403 1.370 . S
C1402 C1406 1.524 . S
C1403 C1395 1.503 . S
C1403 C1402 1.370 . S
C1403 C1404 1.403 . S
C1404 C1403 1.403 . S
C1404 C1405 1.404 . S
C1404 C1407 1.539 . S
C1405 C1401 1.408 . S
C1405 C1404 1.404 . S
C1405 H1417 0.930 . S
C1406 C1402 1.524 . S
C1406 H1418 0.956 . S
C1406 H1419 0.961 . S
C1406 H1420 0.961 . S
C1407 C1404 1.539 . S
C1407 H1421 0.958 . S
C1407 H1422 0.961 . S
C1407 H1423 0.960 . S
H1408 C1392 0.931 . S
H1409 C1397 0.929 . S
H1410 C1398 0.960 . S
H1411 C1398 0.962 . S
H1412 C1398 0.960 . S
H1413 C1399 0.961 . S
H1414 C1399 0.961 . S
H1415 C1399 0.961 . S
H1416 C1400 0.931 . S
H1417 C1405 0.930 . S
H1418 C1406 0.956 . S
H1419 C1406 0.961 . S
H1420 C1406 0.961 . S
H1421 C1407 0.958 . S
H1422 C1407 0.961 . S
H1423 C1407 0.960 . S
C1424 C1425 1.391 . S
C1424 C1426 1.394 . S
C1424 H1440 0.931 . S
C1425 C1424 1.391 . S
C1425 C1429 1.376 . S
C1426 C1424 1.394 . S
C1426 C1427 1.369 . S
C1426 C1430 1.531 . S
C1427 C1426 1.369 . S
C1427 C1428 1.410 . S
C1427 C1435 1.503 . S
C1428 C1427 1.410 . S
C1428 C1429 1.392 . S
C1428 C1431 1.511 . S
C1429 C1425 1.376 . S
C1429 C1428 1.392 . S
C1429 H1441 0.929 . S
C1430 C1426 1.531 . S
C1430 H1442 0.960 . S
C1430 H1443 0.962 . S
C1430 H1444 0.960 . S
C1431 C1428 1.511 . S
C1431 H1445 0.961 . S
C1431 H1446 0.961 . S
C1431 H1447 0.961 . S
C1432 C1433 1.370 . S
C1432 C1434 1.363 . S
C1432 H1448 0.931 . S
C1433 C1432 1.370 . S
C1433 C1437 1.408 . S
C1434 C1432 1.363 . S
C1434 C1435 1.370 . S
C1434 C1438 1.524 . S
C1435 C1427 1.503 . S
C1435 C1434 1.370 . S
C1435 C1436 1.403 . S
C1436 C1435 1.403 . S
C1436 C1437 1.404 . S
C1436 C1439 1.539 . S
C1437 C1433 1.408 . S
C1437 C1436 1.404 . S
C1437 H1449 0.930 . S
C1438 C1434 1.524 . S
C1438 H1450 0.956 . S
C1438 H1451 0.961 . S
C1438 H1452 0.961 . S
C1439 C1436 1.539 . S
C1439 H1453 0.958 . S
C1439 H1454 0.961 . S
C1439 H1455 0.960 . S
H1440 C1424 0.931 . S
H1441 C1429 0.929 . S
H1442 C1430 0.960 . S
H1443 C1430 0.962 . S
H1444 C1430 0.960 . S
H1445 C1431 0.961 . S
H1446 C1431 0.961 . S
H1447 C1431 0.961 . S
H1448 C1432 0.931 . S
H1449 C1437 0.930 . S
H1450 C1438 0.956 . S
H1451 C1438 0.961 . S
H1452 C1438 0.961 . S
H1453 C1439 0.958 . S
H1454 C1439 0.961 . S
H1455 C1439 0.960 . S
C1456 C1457 1.391 . S
C1456 C1458 1.394 . S
C1456 H1472 0.931 . S
C1457 C1456 1.391 . S
C1457 C1461 1.376 . S
C1458 C1456 1.394 . S
C1458 C1459 1.369 . S
C1458 C1462 1.531 . S
C1459 C1458 1.369 . S
C1459 C1460 1.410 . S
C1459 C1467 1.503 . S
C1460 C1459 1.410 . S
C1460 C1461 1.392 . S
C1460 C1463 1.511 . S
C1461 C1457 1.376 . S
C1461 C1460 1.392 . S
C1461 H1473 0.929 . S
C1462 C1458 1.531 . S
C1462 H1474 0.960 . S
C1462 H1475 0.962 . S
C1462 H1476 0.960 . S
C1463 C1460 1.511 . S
C1463 H1477 0.961 . S
C1463 H1478 0.961 . S
C1463 H1479 0.961 . S
C1464 C1465 1.370 . S
C1464 C1466 1.363 . S
C1464 H1480 0.931 . S
C1465 C1464 1.370 . S
C1465 C1469 1.408 . S
C1466 C1464 1.363 . S
C1466 C1467 1.370 . S
C1466 C1470 1.524 . S
C1467 C1459 1.503 . S
C1467 C1466 1.370 . S
C1467 C1468 1.403 . S
C1468 C1467 1.403 . S
C1468 C1469 1.404 . S
C1468 C1471 1.539 . S
C1469 C1465 1.408 . S
C1469 C1468 1.404 . S
C1469 H1481 0.930 . S
C1470 C1466 1.524 . S
C1470 H1482 0.956 . S
C1470 H1483 0.961 . S
C1470 H1484 0.961 . S
C1471 C1468 1.539 . S
C1471 H1485 0.958 . S
C1471 H1486 0.961 . S
C1471 H1487 0.960 . S
H1472 C1456 0.931 . S
H1473 C1461 0.929 . S
H1474 C1462 0.960 . S
H1475 C1462 0.962 . S
H1476 C1462 0.960 . S
H1477 C1463 0.961 . S
H1478 C1463 0.961 . S
H1479 C1463 0.961 . S
H1480 C1464 0.931 . S
H1481 C1469 0.930 . S
H1482 C1470 0.956 . S
H1483 C1470 0.961 . S
H1484 C1470 0.961 . S
H1485 C1471 0.958 . S
H1486 C1471 0.961 . S
H1487 C1471 0.960 . S
C1488 C1489 1.391 . S
C1488 C1490 1.394 . S
C1488 H1504 0.931 . S
C1489 C1488 1.391 . S
C1489 C1493 1.376 . S
C1490 C1488 1.394 . S
C1490 C1491 1.369 . S
C1490 C1494 1.531 . S
C1491 C1490 1.369 . S
C1491 C1492 1.410 . S
C1491 C1499 1.503 . S
C1492 C1491 1.410 . S
C1492 C1493 1.392 . S
C1492 C1495 1.511 . S
C1493 C1489 1.376 . S
C1493 C1492 1.392 . S
C1493 H1505 0.929 . S
C1494 C1490 1.531 . S
C1494 H1506 0.960 . S
C1494 H1507 0.962 . S
C1494 H1508 0.960 . S
C1495 C1492 1.511 . S
C1495 H1509 0.961 . S
C1495 H1510 0.961 . S
C1495 H1511 0.961 . S
C1496 C1497 1.370 . S
C1496 C1498 1.363 . S
C1496 H1512 0.931 . S
C1497 C1496 1.370 . S
C1497 C1501 1.408 . S
C1498 C1496 1.363 . S
C1498 C1499 1.370 . S
C1498 C1502 1.524 . S
C1499 C1491 1.503 . S
C1499 C1498 1.370 . S
C1499 C1500 1.403 . S
C1500 C1499 1.403 . S
C1500 C1501 1.404 . S
C1500 C1503 1.539 . S
C1501 C1497 1.408 . S
C1501 C1500 1.404 . S
C1501 H1513 0.930 . S
C1502 C1498 1.524 . S
C1502 H1514 0.956 . S
C1502 H1515 0.961 . S
C1502 H1516 0.961 . S
C1503 C1500 1.539 . S
C1503 H1517 0.958 . S
C1503 H1518 0.961 . S
C1503 H1519 0.960 . S
H1504 C1488 0.931 . S
H1505 C1493 0.929 . S
H1506 C1494 0.960 . S
H1507 C1494 0.962 . S
H1508 C1494 0.960 . S
H1509 C1495 0.961 . S
H1510 C1495 0.961 . S
H1511 C1495 0.961 . S
H1512 C1496 0.931 . S
H1513 C1501 0.930 . S
H1514 C1502 0.956 . S
H1515 C1502 0.961 . S
H1516 C1502 0.961 . S
H1517 C1503 0.958 . S
H1518 C1503 0.961 . S
H1519 C1503 0.960 . S
C1520 C1521 1.391 . S
C1520 C1522 1.394 . S
C1520 H1536 0.931 . S
C1521 C1520 1.391 . S
C1521 C1525 1.376 . S
C1522 C1520 1.394 . S
C1522 C1523 1.369 . S
C1522 C1526 1.531 . S
C1523 C1522 1.369 . S
C1523 C1524 1.410 . S
C1523 C1531 1.503 . S
C1524 C1523 1.410 . S
C1524 C1525 1.392 . S
C1524 C1527 1.511 . S
C1525 C1521 1.376 . S
C1525 C1524 1.392 . S
C1525 H1537 0.929 . S
C1526 C1522 1.531 . S
C1526 H1538 0.960 . S
C1526 H1539 0.962 . S
C1526 H1540 0.960 . S
C1527 C1524 1.511 . S
C1527 H1541 0.961 . S
C1527 H1542 0.961 . S
C1527 H1543 0.961 . S
C1528 C1529 1.370 . S
C1528 C1530 1.363 . S
C1528 H1544 0.931 . S
C1529 C1528 1.370 . S
C1529 C1533 1.408 . S
C1530 C1528 1.363 . S
C1530 C1531 1.370 . S
C1530 C1534 1.524 . S
C1531 C1523 1.503 . S
C1531 C1530 1.370 . S
C1531 C1532 1.403 . S
C1532 C1531 1.403 . S
C1532 C1533 1.404 . S
C1532 C1535 1.539 . S
C1533 C1529 1.408 . S
C1533 C1532 1.404 . S
C1533 H1545 0.930 . S
C1534 C1530 1.524 . S
C1534 H1546 0.956 . S
C1534 H1547 0.961 . S
C1534 H1548 0.961 . S
C1535 C1532 1.539 . S
C1535 H1549 0.958 . S
C1535 H1550 0.961 . S
C1535 H1551 0.960 . S
H1536 C1520 0.931 . S
H1537 C1525 0.929 . S
H1538 C1526 0.960 . S
H1539 C1526 0.962 . S
H1540 C1526 0.960 . S
H1541 C1527 0.961 . S
H1542 C1527 0.961 . S
H1543 C1527 0.961 . S
H1544 C1528 0.931 . S
H1545 C1533 0.930 . S
H1546 C1534 0.956 . S
H1547 C1534 0.961 . S
H1548 C1534 0.961 . S
H1549 C1535 0.958 . S
H1550 C1535 0.961 . S
H1551 C1535 0.960 . S
C1552 C1553 1.391 . S
C1552 C1554 1.394 . S
C1552 H1568 0.931 . S
C1553 C1552 1.391 . S
C1553 C1557 1.376 . S
C1554 C1552 1.394 . S
C1554 C1555 1.369 . S
C1554 C1558 1.531 . S
C1555 C1554 1.369 . S
C1555 C1556 1.410 . S
C1555 C1563 1.503 . S
C1556 C1555 1.410 . S
C1556 C1557 1.392 . S
C1556 C1559 1.511 . S
C1557 C1553 1.376 . S
C1557 C1556 1.392 . S
C1557 H1569 0.929 . S
C1558 C1554 1.531 . S
C1558 H1570 0.960 . S
C1558 H1571 0.962 . S
C1558 H1572 0.960 . S
C1559 C1556 1.511 . S
C1559 H1573 0.961 . S
C1559 H1574 0.961 . S
C1559 H1575 0.961 . S
C1560 C1561 1.370 . S
C1560 C1562 1.363 . S
C1560 H1576 0.931 . S
C1561 C1560 1.370 . S
C1561 C1565 1.408 . S
C1562 C1560 1.363 . S
C1562 C1563 1.370 . S
C1562 C1566 1.524 . S
C1563 C1555 1.503 . S
C1563 C1562 1.370 . S
C1563 C1564 1.403 . S
C1564 C1563 1.403 . S
C1564 C1565 1.404 . S
C1564 C1567 1.539 . S
C1565 C1561 1.408 . S
C1565 C1564 1.404 . S
C1565 H1577 0.930 . S
C1566 C1562 1.524 . S
C1566 H1578 0.956 . S
C1566 H1579 0.961 . S
C1566 H1580 0.961 . S
C1567 C1564 1.539 . S
C1567 H1581 0.958 . S
C1567 H1582 0.961 . S
C1567 H1583 0.960 . S
H1568 C1552 0.931 . S
H1569 C1557 0.929 . S
H1570 C1558 0.960 . S
H1571 C1558 0.962 . S
H1572 C1558 0.960 . S
H1573 C1559 0.961 . S
H1574 C1559 0.961 . S
H1575 C1559 0.961 . S
H1576 C1560 0.931 . S
H1577 C1565 0.930 . S
H1578 C1566 0.956 . S
H1579 C1566 0.961 . S
H1580 C1566 0.961 . S
H1581 C1567 0.958 . S
H1582 C1567 0.961 . S
H1583 C1567 0.960 . S
C1584 C1585 1.391 . S
C1584 C1586 1.394 . S
C1584 H1600 0.931 . S
C1585 C1584 1.391 . S
C1585 C1589 1.376 . S
C1586 C1584 1.394 . S
C1586 C1587 1.369 . S
C1586 C1590 1.531 . S
C1587 C1586 1.369 . S
C1587 C1588 1.410 . S
C1587 C1595 1.503 . S
C1588 C1587 1.410 . S
C1588 C1589 1.392 . S
C1588 C1591 1.511 . S
C1589 C1585 1.376 . S
C1589 C1588 1.392 . S
C1589 H1601 0.929 . S
C1590 C1586 1.531 . S
C1590 H1602 0.960 . S
C1590 H1603 0.962 . S
C1590 H1604 0.960 . S
C1591 C1588 1.511 . S
C1591 H1605 0.961 . S
C1591 H1606 0.961 . S
C1591 H1607 0.961 . S
C1592 C1593 1.370 . S
C1592 C1594 1.363 . S
C1592 H1608 0.931 . S
C1593 C1592 1.370 . S
C1593 C1597 1.408 . S
C1594 C1592 1.363 . S
C1594 C1595 1.370 . S
C1594 C1598 1.524 . S
C1595 C1587 1.503 . S
C1595 C1594 1.370 . S
C1595 C1596 1.403 . S
C1596 C1595 1.403 . S
C1596 C1597 1.404 . S
C1596 C1599 1.539 . S
C1597 C1593 1.408 . S
C1597 C1596 1.404 . S
C1597 H1609 0.930 . S
C1598 C1594 1.524 . S
C1598 H1610 0.956 . S
C1598 H1611 0.961 . S
C1598 H1612 0.961 . S
C1599 C1596 1.539 . S
C1599 H1613 0.958 . S
C1599 H1614 0.961 . S
C1599 H1615 0.960 . S
H1600 C1584 0.931 . S
H1601 C1589 0.929 . S
H1602 C1590 0.960 . S
H1603 C1590 0.962 . S
H1604 C1590 0.960 . S
H1605 C1591 0.961 . S
H1606 C1591 0.961 . S
H1607 C1591 0.961 . S
H1608 C1592 0.931 . S
H1609 C1597 0.930 . S
H1610 C1598 0.956 . S
H1611 C1598 0.961 . S
H1612 C1598 0.961 . S
H1613 C1599 0.958 . S
H1614 C1599 0.961 . S
H1615 C1599 0.960 . S
C1616 C1617 1.391 . S
C1616 C1618 1.394 . S
C1616 H1632 0.931 . S
C1617 C1616 1.391 . S
C1617 C1621 1.376 . S
C1618 C1616 1.394 . S
C1618 C1619 1.369 . S
C1618 C1622 1.531 . S
C1619 C1618 1.369 . S
C1619 C1620 1.410 . S
C1619 C1627 1.503 . S
C1620 C1619 1.410 . S
C1620 C1621 1.392 . S
C1620 C1623 1.511 . S
C1621 C1617 1.376 . S
C1621 C1620 1.392 . S
C1621 H1633 0.929 . S
C1622 C1618 1.531 . S
C1622 H1634 0.960 . S
C1622 H1635 0.962 . S
C1622 H1636 0.960 . S
C1623 C1620 1.511 . S
C1623 H1637 0.961 . S
C1623 H1638 0.961 . S
C1623 H1639 0.961 . S
C1624 C1625 1.370 . S
C1624 C1626 1.363 . S
C1624 H1640 0.931 . S
C1625 C1624 1.370 . S
C1625 C1629 1.408 . S
C1626 C1624 1.363 . S
C1626 C1627 1.370 . S
C1626 C1630 1.524 . S
C1627 C1619 1.503 . S
C1627 C1626 1.370 . S
C1627 C1628 1.403 . S
C1628 C1627 1.403 . S
C1628 C1629 1.404 . S
C1628 C1631 1.539 . S
C1629 C1625 1.408 . S
C1629 C1628 1.404 . S
C1629 H1641 0.930 . S
C1630 C1626 1.524 . S
C1630 H1642 0.956 . S
C1630 H1643 0.961 . S
C1630 H1644 0.961 . S
C1631 C1628 1.539 . S
C1631 H1645 0.958 . S
C1631 H1646 0.961 . S
C1631 H1647 0.960 . S
H1632 C1616 0.931 . S
H1633 C1621 0.929 . S
H1634 C1622 0.960 . S
H1635 C1622 0.962 . S
H1636 C1622 0.960 . S
H1637 C1623 0.961 . S
H1638 C1623 0.961 . S
H1639 C1623 0.961 . S
H1640 C1624 0.931 . S
H1641 C1629 0.930 . S
H1642 C1630 0.956 . S
H1643 C1630 0.961 . S
H1644 C1630 0.961 . S
H1645 C1631 0.958 . S
H1646 C1631 0.961 . S
H1647 C1631 0.960 . S
C1648 C1649 1.391 . S
C1648 C1650 1.394 . S
C1648 H1664 0.931 . S
C1649 C1648 1.391 . S
C1649 C1653 1.376 . S
C1650 C1648 1.394 . S
C1650 C1651 1.369 . S
C1650 C1654 1.531 . S
C1651 C1650 1.369 . S
C1651 C1652 1.410 . S
C1651 C1659 1.503 . S
C1652 C1651 1.410 . S
C1652 C1653 1.392 . S
C1652 C1655 1.511 . S
C1653 C1649 1.376 . S
C1653 C1652 1.392 . S
C1653 H1665 0.929 . S
C1654 C1650 1.531 . S
C1654 H1666 0.960 . S
C1654 H1667 0.962 . S
C1654 H1668 0.960 . S
C1655 C1652 1.511 . S
C1655 H1669 0.961 . S
C1655 H1670 0.961 . S
C1655 H1671 0.961 . S
C1656 C1657 1.370 . S
C1656 C1658 1.363 . S
C1656 H1672 0.931 . S
C1657 C1656 1.370 . S
C1657 C1661 1.408 . S
C1658 C1656 1.363 . S
C1658 C1659 1.370 . S
C1658 C1662 1.524 . S
C1659 C1651 1.503 . S
C1659 C1658 1.370 . S
C1659 C1660 1.403 . S
C1660 C1659 1.403 . S
C1660 C1661 1.404 . S
C1660 C1663 1.539 . S
C1661 C1657 1.408 . S
C1661 C1660 1.404 . S
C1661 H1673 0.930 . S
C1662 C1658 1.524 . S
C1662 H1674 0.956 . S
C1662 H1675 0.961 . S
C1662 H1676 0.961 . S
C1663 C1660 1.539 . S
C1663 H1677 0.958 . S
C1663 H1678 0.961 . S
C1663 H1679 0.960 . S
H1664 C1648 0.931 . S
H1665 C1653 0.929 . S
H1666 C1654 0.960 . S
H1667 C1654 0.962 . S
H1668 C1654 0.960 . S
H1669 C1655 0.961 . S
H1670 C1655 0.961 . S
H1671 C1655 0.961 . S
H1672 C1656 0.931 . S
H1673 C1661 0.930 . S
H1674 C1662 0.956 . S
H1675 C1662 0.961 . S
H1676 C1662 0.961 . S
H1677 C1663 0.958 . S
H1678 C1663 0.961 . S
H1679 C1663 0.960 . S
C1680 C1681 1.391 . S
C1680 C1682 1.394 . S
C1680 H1696 0.931 . S
C1681 C1680 1.391 . S
C1681 C1685 1.376 . S
C1682 C1680 1.394 . S
C1682 C1683 1.369 . S
C1682 C1686 1.531 . S
C1683 C1682 1.369 . S
C1683 C1684 1.410 . S
C1683 C1691 1.503 . S
C1684 C1683 1.410 . S
C1684 C1685 1.392 . S
C1684 C1687 1.511 . S
C1685 C1681 1.376 . S
C1685 C1684 1.392 . S
C1685 H1697 0.929 . S
C1686 C1682 1.531 . S
C1686 H1698 0.960 . S
C1686 H1699 0.962 . S
C1686 H1700 0.960 . S
C1687 C1684 1.511 . S
C1687 H1701 0.961 . S
C1687 H1702 0.961 . S
C1687 H1703 0.961 . S
C1688 C1689 1.370 . S
C1688 C1690 1.363 . S
C1688 H1704 0.931 . S
C1689 C1688 1.370 . S
C1689 C1693 1.408 . S
C1690 C1688 1.363 . S
C1690 C1691 1.370 . S
C1690 C1694 1.524 . S
C1691 C1683 1.503 . S
C1691 C1690 1.370 . S
C1691 C1692 1.403 . S
C1692 C1691 1.403 . S
C1692 C1693 1.404 . S
C1692 C1695 1.539 . S
C1693 C1689 1.408 . S
C1693 C1692 1.404 . S
C1693 H1705 0.930 . S
C1694 C1690 1.524 . S
C1694 H1706 0.956 . S
C1694 H1707 0.961 . S
C1694 H1708 0.961 . S
C1695 C1692 1.539 . S
C1695 H1709 0.958 . S
C1695 H1710 0.961 . S
C1695 H1711 0.960 . S
H1696 C1680 0.931 . S
H1697 C1685 0.929 . S
H1698 C1686 0.960 . S
H1699 C1686 0.962 . S
H1700 C1686 0.960 . S
H1701 C1687 0.961 . S
H1702 C1687 0.961 . S
H1703 C1687 0.961 . S
H1704 C1688 0.931 . S
H1705 C1693 0.930 . S
H1706 C1694 0.956 . S
H1707 C1694 0.961 . S
H1708 C1694 0.961 . S
H1709 C1695 0.958 . S
H1710 C1695 0.961 . S
H1711 C1695 0.960 . S
C1712 C1713 1.391 . S
C1712 C1714 1.394 . S
C1712 H1728 0.931 . S
C1713 C1712 1.391 . S
C1713 C1717 1.376 . S
C1714 C1712 1.394 . S
C1714 C1715 1.369 . S
C1714 C1718 1.531 . S
C1715 C1714 1.369 . S
C1715 C1716 1.410 . S
C1715 C1723 1.503 . S
C1716 C1715 1.410 . S
C1716 C1717 1.392 . S
C1716 C1719 1.511 . S
C1717 C1713 1.376 . S
C1717 C1716 1.392 . S
C1717 H1729 0.929 . S
C1718 C1714 1.531 . S
C1718 H1730 0.960 . S
C1718 H1731 0.962 . S
C1718 H1732 0.960 . S
C1719 C1716 1.511 . S
C1719 H1733 0.961 . S
C1719 H1734 0.961 . S
C1719 H1735 0.961 . S
C1720 C1721 1.370 . S
C1720 C1722 1.363 . S
C1720 H1736 0.931 . S
C1721 C1720 1.370 . S
C1721 C1725 1.408 . S
C1722 C1720 1.363 . S
C1722 C1723 1.370 . S
C1722 C1726 1.524 . S
C1723 C1715 1.503 . S
C1723 C1722 1.370 . S
C1723 C1724 1.403 . S
C1724 C1723 1.403 . S
C1724 C1725 1.404 . S
C1724 C1727 1.539 . S
C1725 C1721 1.408 . S
C1725 C1724 1.404 . S
C1725 H1737 0.930 . S
C1726 C1722 1.524 . S
C1726 H1738 0.956 . S
C1726 H1739 0.961 . S
C1726 H1740 0.961 . S
C1727 C1724 1.539 . S
C1727 H1741 0.958 . S
C1727 H1742 0.961 . S
C1727 H1743 0.960 . S
H1728 C1712 0.931 . S
H1729 C1717 0.929 . S
H1730 C1718 0.960 . S
H1731 C1718 0.962 . S
H1732 C1718 0.960 . S
H1733 C1719 0.961 . S
H1734 C1719 0.961 . S
H1735 C1719 0.961 . S
H1736 C1720 0.931 . S
H1737 C1725 0.930 . S
H1738 C1726 0.956 . S
H1739 C1726 0.961 . S
H1740 C1726 0.961 . S
H1741 C1727 0.958 . S
H1742 C1727 0.961 . S
H1743 C1727 0.960 . S
C1744 C1745 1.391 . S
C1744 C1746 1.394 . S
C1744 H1760 0.931 . S
C1745 C1744 1.391 . S
C1745 C1749 1.376 . S
C1746 C1744 1.394 . S
C1746 C1747 1.369 . S
C1746 C1750 1.531 . S
C1747 C1746 1.369 . S
C1747 C1748 1.410 . S
C1747 C1755 1.503 . S
C1748 C1747 1.410 . S
C1748 C1749 1.392 . S
C1748 C1751 1.511 . S
C1749 C1745 1.376 . S
C1749 C1748 1.392 . S
C1749 H1761 0.929 . S
C1750 C1746 1.531 . S
C1750 H1762 0.960 . S
C1750 H1763 0.962 . S
C1750 H1764 0.960 . S
C1751 C1748 1.511 . S
C1751 H1765 0.961 . S
C1751 H1766 0.961 . S
C1751 H1767 0.961 . S
C1752 C1753 1.370 . S
C1752 C1754 1.363 . S
C1752 H1768 0.931 . S
C1753 C1752 1.370 . S
C1753 C1757 1.408 . S
C1754 C1752 1.363 . S
C1754 C1755 1.370 . S
C1754 C1758 1.524 . S
C1755 C1747 1.503 . S
C1755 C1754 1.370 . S
C1755 C1756 1.403 . S
C1756 C1755 1.403 . S
C1756 C1757 1.404 . S
C1756 C1759 1.539 . S
C1757 C1753 1.408 . S
C1757 C1756 1.404 . S
C1757 H1769 0.930 . S
C1758 C1754 1.524 . S
C1758 H1770 0.956 . S
C1758 H1771 0.961 . S
C1758 H1772 0.961 . S
C1759 C1756 1.539 . S
C1759 H1773 0.958 . S
C1759 H1774 0.961 . S
C1759 H1775 0.960 . S
H1760 C1744 0.931 . S
H1761 C1749 0.929 . S
H1762 C1750 0.960 . S
H1763 C1750 0.962 . S
H1764 C1750 0.960 . S
H1765 C1751 0.961 . S
H1766 C1751 0.961 . S
H1767 C1751 0.961 . S
H1768 C1752 0.931 . S
H1769 C1757 0.930 . S
H1770 C1758 0.956 . S
H1771 C1758 0.961 . S
H1772 C1758 0.961 . S
H1773 C1759 0.958 . S
H1774 C1759 0.961 . S
H1775 C1759 0.960 . S
C1776 C1777 1.391 . S
C1776 C1778 1.394 . S
C1776 H1792 0.931 . S
C1777 C1776 1.391 . S
C1777 C1781 1.376 . S
C1778 C1776 1.394 . S
C1778 C1779 1.369 . S
C1778 C1782 1.531 . S
C1779 C1778 1.369 . S
C1779 C1780 1.410 . S
C1779 C1787 1.503 . S
C1780 C1779 1.410 . S
C1780 C1781 1.392 . S
C1780 C1783 1.511 . S
C1781 C1777 1.376 . S
C1781 C1780 1.392 . S
C1781 H1793 0.929 . S
C1782 C1778 1.531 . S
C1782 H1794 0.960 . S
C1782 H1795 0.962 . S
C1782 H1796 0.960 . S
C1783 C1780 1.511 . S
C1783 H1797 0.961 . S
C1783 H1798 0.961 . S
C1783 H1799 0.961 . S
C1784 C1785 1.370 . S
C1784 C1786 1.363 . S
C1784 H1800 0.931 . S
C1785 C1784 1.370 . S
C1785 C1789 1.408 . S
C1786 C1784 1.363 . S
C1786 C1787 1.370 . S
C1786 C1790 1.524 . S
C1787 C1779 1.503 . S
C1787 C1786 1.370 . S
C1787 C1788 1.403 . S
C1788 C1787 1.403 . S
C1788 C1789 1.404 . S
C1788 C1791 1.539 . S
C1789 C1785 1.408 . S
C1789 C1788 1.404 . S
C1789 H1801 0.930 . S
C1790 C1786 1.524 . S
C1790 H1802 0.956 . S
C1790 H1803 0.961 . S
C1790 H1804 0.961 . S
C1791 C1788 1.539 . S
C1791 H1805 0.958 . S
C1791 H1806 0.961 . S
C1791 H1807 0.960 . S
H1792 C1776 0.931 . S
H1793 C1781 0.929 . S
H1794 C1782 0.960 . S
H1795 C1782 0.962 . S
H1796 C1782 0.960 . S
H1797 C1783 0.961 . S
H1798 C1783 0.961 . S
H1799 C1783 0.961 . S
H1800 C1784 0.931 . S
H1801 C1789 0.930 . S
H1802 C1790 0.956 . S
H1803 C1790 0.961 . S
H1804 C1790 0.961 . S
H1805 C1791 0.958 . S
H1806 C1791 0.961 . S
H1807 C1791 0.960 . S
C529 N410 1.428 . S
C537 N5 1.465 . S
C561 N47 1.456 . S
C569 N434 1.438 . S
C593 N71 1.476 . S
C601 N476 1.445 . S
C625 N113 1.417 . S
C633 N500 1.451 . S
C657 N269 1.475 . S
C665 N146 1.418 . S
C689 N311 1.426 . S
C697 N170 1.465 . S
C721 N212 1.464 . S
C729 N335 1.434 . S
C753 N377 1.479 . S
C761 N236 1.443 . S
C785 C17 1.083 . S
C793 C479 1.079 . S
C817 C512 1.067 . S
C825 C50 1.063 . S
C849 C413 1.079 . S
C857 C83 1.082 . S
C881 C446 1.052 . S
C889 C116 1.063 . S
C913 C347 1.062 . S
C921 C149 1.066 . S
C945 C380 1.084 . S
C953 C182 1.080 . S
C977 C281 1.072 . S
C985 C215 1.060 . S
C1009 C314 1.075 . S
C1017 C248 1.082 . S
C1041 C8 1.179 . S
C1049 C358 1.252 . S
C1073 C371 1.258 . S
C1081 C61 1.249 . S
C1105 C292 1.276 . S
C1113 C74 1.231 . S
C1137 C305 1.266 . S
C1145 C127 1.255 . S
C1169 C160 1.230 . S
C1177 C470 1.284 . S
C1201 C173 1.166 . S
C1209 C523 1.252 . S
C1233 C404 1.263 . S
C1241 C226 1.245 . S
C1265 C239 1.249 . S
C1273 C457 1.268 . S
C1297 N401 1.830 . S
C1305 N14 1.820 . S
C1329 N38 1.861 . S
C1337 N443 1.841 . S
C1361 N80 1.843 . S
C1369 N467 1.820 . S
C1393 N509 1.860 . S
C1401 N104 1.840 . S
C1425 N278 1.842 . S
C1433 N137 1.846 . S
C1457 N179 1.797 . S
C1465 N302 1.836 . S
C1489 N344 1.850 . S
C1497 N203 1.845 . S
C1521 N368 1.799 . S
C1529 N245 1.831 . S
C1553 C193 1.480 . S
C1561 C28 1.481 . S
C1585 C206 1.438 . S
C1593 C41 1.434 . S
C1617 C94 1.431 . S
C1625 C259 1.474 . S
C1649 C140 1.448 . S
C1657 C107 1.405 . S
C1681 C272 1.285 . S
C1689 C437 1.227 . S
C1713 C490 1.320 . S
C1721 C325 1.298 . S
C1745 C503 1.282 . S
C1753 C338 1.226 . S
C1777 C391 1.260 . S
C1785 C424 1.298 . S
