# Generated by pormake.
# Topology whj, (6)-cn, num edge types: 1
# Building blocks:
#     Node 0, Type 0, BuildingBlock: IZENUY_clean_sbu_0, # of connection points: 6
#     Node 1, Type 0, BuildingBlock: IZENUY_clean_sbu_0, # of connection points: 6
#     Node 2, Type 0, BuildingBlock: IZENUY_clean_sbu_0, # of connection points: 6
#     Node 3, Type 0, BuildingBlock: IZENUY_clean_sbu_0, # of connection points: 6
#     Node 4, Type 0, BuildingBlock: IZENUY_clean_sbu_0, # of connection points: 6
#     Node 5, Type 0, BuildingBlock: IZENUY_clean_sbu_0, # of connection points: 6
#     Node 6, Type 0, BuildingBlock: IZENUY_clean_sbu_0, # of connection points: 6
#     Node 7, Type 0, BuildingBlock: IZENUY_clean_sbu_0, # of connection points: 6
#     Node 8, Type 0, BuildingBlock: IZENUY_clean_sbu_0, # of connection points: 6
#     Node 9, Type 0, BuildingBlock: IZENUY_clean_sbu_0, # of connection points: 6
#     Node 10, Type 0, BuildingBlock: IZENUY_clean_sbu_0, # of connection points: 6
#     Node 11, Type 0, BuildingBlock: IZENUY_clean_sbu_0, # of connection points: 6
#     Node 12, Type 0, BuildingBlock: IZENUY_clean_sbu_0, # of connection points: 6
#     Node 13, Type 0, BuildingBlock: IZENUY_clean_sbu_0, # of connection points: 6
#     Node 14, Type 0, BuildingBlock: IZENUY_clean_sbu_0, # of connection points: 6
#     Node 15, Type 0, BuildingBlock: IZENUY_clean_sbu_0, # of connection points: 6
#     Edge 16, Type (0, 0), BuildingBlock: XUDNAN_clean_linker_2, # of connection points: 2
#     Edge 17, Type (0, 0), BuildingBlock: XUDNAN_clean_linker_2, # of connection points: 2
#     Edge 18, Type (0, 0), BuildingBlock: XUDNAN_clean_linker_2, # of connection points: 2
#     Edge 19, Type (0, 0), BuildingBlock: XUDNAN_clean_linker_2, # of connection points: 2
#     Edge 20, Type (0, 0), BuildingBlock: XUDNAN_clean_linker_2, # of connection points: 2
#     Edge 21, Type (0, 0), BuildingBlock: XUDNAN_clean_linker_2, # of connection points: 2
#     Edge 22, Type (0, 0), BuildingBlock: XUDNAN_clean_linker_2, # of connection points: 2
#     Edge 23, Type (0, 0), BuildingBlock: XUDNAN_clean_linker_2, # of connection points: 2
#     Edge 24, Type (0, 0), BuildingBlock: XUDNAN_clean_linker_2, # of connection points: 2
#     Edge 25, Type (0, 0), BuildingBlock: XUDNAN_clean_linker_2, # of connection points: 2
#     Edge 26, Type (0, 0), BuildingBlock: XUDNAN_clean_linker_2, # of connection points: 2
#     Edge 27, Type (0, 0), BuildingBlock: XUDNAN_clean_linker_2, # of connection points: 2
#     Edge 28, Type (0, 0), BuildingBlock: XUDNAN_clean_linker_2, # of connection points: 2
#     Edge 29, Type (0, 0), BuildingBlock: XUDNAN_clean_linker_2, # of connection points: 2
#     Edge 30, Type (0, 0), BuildingBlock: XUDNAN_clean_linker_2, # of connection points: 2
#     Edge 31, Type (0, 0), BuildingBlock: XUDNAN_clean_linker_2, # of connection points: 2
#     Edge 32, Type (0, 0), BuildingBlock: XUDNAN_clean_linker_2, # of connection points: 2
#     Edge 33, Type (0, 0), BuildingBlock: XUDNAN_clean_linker_2, # of connection points: 2
#     Edge 34, Type (0, 0), BuildingBlock: XUDNAN_clean_linker_2, # of connection points: 2
#     Edge 35, Type (0, 0), BuildingBlock: XUDNAN_clean_linker_2, # of connection points: 2
#     Edge 36, Type (0, 0), BuildingBlock: XUDNAN_clean_linker_2, # of connection points: 2
#     Edge 37, Type (0, 0), BuildingBlock: XUDNAN_clean_linker_2, # of connection points: 2
#     Edge 38, Type (0, 0), BuildingBlock: XUDNAN_clean_linker_2, # of connection points: 2
#     Edge 39, Type (0, 0), BuildingBlock: XUDNAN_clean_linker_2, # of connection points: 2
#     Edge 40, Type (0, 0), BuildingBlock: XUDNAN_clean_linker_2, # of connection points: 2
#     Edge 41, Type (0, 0), BuildingBlock: XUDNAN_clean_linker_2, # of connection points: 2
#     Edge 42, Type (0, 0), BuildingBlock: XUDNAN_clean_linker_2, # of connection points: 2
#     Edge 43, Type (0, 0), BuildingBlock: XUDNAN_clean_linker_2, # of connection points: 2
#     Edge 44, Type (0, 0), BuildingBlock: XUDNAN_clean_linker_2, # of connection points: 2
#     Edge 45, Type (0, 0), BuildingBlock: XUDNAN_clean_linker_2, # of connection points: 2
#     Edge 46, Type (0, 0), BuildingBlock: XUDNAN_clean_linker_2, # of connection points: 2
#     Edge 47, Type (0, 0), BuildingBlock: XUDNAN_clean_linker_2, # of connection points: 2
#     Edge 48, Type (0, 0), BuildingBlock: XUDNAN_clean_linker_2, # of connection points: 2
#     Edge 49, Type (0, 0), BuildingBlock: XUDNAN_clean_linker_2, # of connection points: 2
#     Edge 50, Type (0, 0), BuildingBlock: XUDNAN_clean_linker_2, # of connection points: 2
#     Edge 51, Type (0, 0), BuildingBlock: XUDNAN_clean_linker_2, # of connection points: 2
#     Edge 52, Type (0, 0), BuildingBlock: XUDNAN_clean_linker_2, # of connection points: 2
#     Edge 53, Type (0, 0), BuildingBlock: XUDNAN_clean_linker_2, # of connection points: 2
#     Edge 54, Type (0, 0), BuildingBlock: XUDNAN_clean_linker_2, # of connection points: 2
#     Edge 55, Type (0, 0), BuildingBlock: XUDNAN_clean_linker_2, # of connection points: 2
#     Edge 56, Type (0, 0), BuildingBlock: XUDNAN_clean_linker_2, # of connection points: 2
#     Edge 57, Type (0, 0), BuildingBlock: XUDNAN_clean_linker_2, # of connection points: 2
#     Edge 58, Type (0, 0), BuildingBlock: XUDNAN_clean_linker_2, # of connection points: 2
#     Edge 59, Type (0, 0), BuildingBlock: XUDNAN_clean_linker_2, # of connection points: 2
#     Edge 60, Type (0, 0), BuildingBlock: XUDNAN_clean_linker_2, # of connection points: 2
#     Edge 61, Type (0, 0), BuildingBlock: XUDNAN_clean_linker_2, # of connection points: 2
#     Edge 62, Type (0, 0), BuildingBlock: XUDNAN_clean_linker_2, # of connection points: 2
#     Edge 63, Type (0, 0), BuildingBlock: XUDNAN_clean_linker_2, # of connection points: 2
# Relax obj value: 0.270
# Max RMSD: 0.261
# Mean RMSD: 0.261
data_MOF--net-whj--node1-IZENUY_clean_sbu_0--edge1-XUDNAN_clean_linker_2
_symmetry_space_group_name_H-M    P1
_symmetry_Int_Tables_number       1
_symmetry_cell_setting            triclinic
loop_
_symmetry_equiv_pos_as_xyz
'x, y, z'
_cell_length_a     36.959046
_cell_length_b     36.975307
_cell_length_c     46.716807
_cell_angle_alpha  90.031085
_cell_angle_beta   90.035733
_cell_angle_gamma 89.952078
loop_
_atom_site_label
_atom_site_type_symbol
_atom_site_fract_x
_atom_site_fract_y
_atom_site_fract_z
_atom_type_partial_charge
Fe0 Fe 0.68753 1.00904 0.089 0.0
Fe1 Fe 0.63442 0.0566 0.12317 0.0
O2 O 0.67862 0.04801 0.11005 0.0
Fe3 Fe 0.71388 0.07941 0.11707 0.0
O4 O 0.73846 0.07113 0.08356 0.0
O5 O 0.70201 0.03657 0.05861 0.0
O6 O 0.64242 1.00662 0.07279 0.0
C7 C 0.61674 0.02907 0.071 0.0
C8 C 0.7507 0.01586 0.12393 0.0
O9 O 0.61511 0.05583 0.08755 0.0
C10 C 0.67248 0.0811 0.16899 0.0
O11 O 0.67313 0.97856 0.11741 0.0
O12 O 0.62363 1.00853 0.12916 0.0
O13 O 0.74071 0.04511 0.13583 0.0
O14 O 0.73419 1.00398 0.10201 0.0
C15 C 0.65738 0.12429 0.10237 0.0
O16 O 0.64991 0.05831 0.15995 0.0
O17 O 0.69563 0.09458 0.15199 0.0
C18 C 0.64227 0.97966 0.12915 0.0
O19 O 0.63735 0.1061 0.11902 0.0
O20 O 0.68963 0.1147 0.09779 0.0
C21 C 0.72723 0.05961 0.05965 0.0
Fe22 Fe 0.44388 0.71541 0.11869 0.0
Fe23 Fe 0.51231 0.68754 0.08855 0.0
O24 O 0.47463 0.6798 0.11125 0.0
Fe25 Fe 0.46607 0.63632 0.12555 0.0
O26 O 0.41636 0.6404 0.1234 0.0
O27 O 0.40789 0.6911 0.10004 0.0
O28 O 0.45136 0.74011 0.08525 0.0
C29 C 0.46124 0.72864 0.06104 0.0
C30 C 0.44456 0.6755 0.1712 0.0
O31 O 0.48335 0.70279 0.05931 0.0
C32 C 0.54339 0.642 0.12786 0.0
O33 O 0.4792 0.74156 0.13651 0.0
O34 O 0.51957 0.73401 0.102 0.0
O35 O 0.46741 0.65305 0.16199 0.0
O36 O 0.42977 0.69761 0.15399 0.0
C37 C 0.48661 0.61898 0.0709 0.0
O38 O 0.54438 0.67231 0.11543 0.0
O39 O 0.51416 0.62413 0.12946 0.0
C40 C 0.5085 0.75069 0.12423 0.0
O41 O 0.51147 0.6425 0.07161 0.0
O42 O 0.4635 0.61674 0.09049 0.0
C43 C 0.3983 0.65909 0.10568 0.0
Fe44 Fe 0.80656 0.4503 0.11844 0.0
Fe45 Fe 0.83811 0.51778 0.08914 0.0
O46 O 0.8443 0.47774 0.10963 0.0
Fe47 Fe 0.88824 0.46413 0.12024 0.0
O48 O 0.87977 0.4151 0.11623 0.0
O49 O 0.82495 0.41274 0.09834 0.0
O50 O 0.78052 0.4612 0.08607 0.0
C51 C 0.79155 0.47148 0.06176 0.0
C52 C 0.85187 0.44388 0.16797 0.0
O53 O 0.81837 0.49238 0.05969 0.0
C54 C 0.88972 0.54162 0.12648 0.0
O55 O 0.78537 0.48694 0.13834 0.0
O56 O 0.79325 0.52791 0.10463 0.0
O57 O 0.87611 0.46404 0.15777 0.0
O58 O 0.8259 0.43325 0.15231 0.0
C59 C 0.90228 0.48788 0.06613 0.0
O60 O 0.85806 0.546 0.11679 0.0
O61 O 0.90505 0.51083 0.12522 0.0
C62 C 0.77695 0.5169 0.12697 0.0
O63 O 0.88174 0.51484 0.06999 0.0
O64 O 0.90327 0.46242 0.08381 0.0
C65 C 0.8562 0.39946 0.10085 0.0
Fe66 Fe 0.01376 0.83058 0.08905 0.0
Fe67 Fe 0.05201 0.89268 0.12066 0.0
O68 O 0.05 0.84626 0.11078 0.0
Fe69 Fe 0.08509 0.81654 0.12153 0.0
O70 O 0.09566 0.80487 0.08497 0.0
O71 O 0.04047 0.79667 0.06893 0.0
O72 O 0.02495 0.86255 0.06073 0.0
C73 C 0.02592 0.89623 0.0645 0.0
C74 C 0.02065 0.77299 0.12558 0.0
O75 O 0.02809 0.90953 0.08923 0.0
C76 C 0.08125 0.85775 0.16989 0.0
O77 O 0.98044 0.86185 0.10537 0.0
O78 O 1.00969 0.88931 0.14041 0.0
O79 O 0.05487 0.77696 0.12576 0.0
O80 O 1.00024 0.79715 0.11532 0.0
C81 C 0.1216 0.87904 0.10268 0.0
O82 O 0.07677 0.88533 0.15427 0.0
O83 O 0.07824 0.82642 0.15936 0.0
C84 C 0.98023 0.88078 0.12821 0.0
O85 O 0.09368 0.89855 0.10044 0.0
O86 O 0.12109 0.85083 0.11821 0.0
C87 C 0.07439 0.79347 0.06602 0.0
Fe88 Fe 0.18819 1.01196 0.43747 0.0
Fe89 Fe 0.13917 0.96514 0.39894 0.0
O90 O 0.1819 0.9744 0.41429 0.0
Fe91 Fe 0.21829 0.94435 0.40705 0.0
O92 O 0.2426 0.952 0.44081 0.0
O93 O 0.20437 0.98325 0.46655 0.0
O94 O 0.14257 1.00921 0.45398 0.0
C95 C 0.1188 0.98439 0.45306 0.0
C96 C 0.25199 1.00973 0.40203 0.0
O97 O 0.11855 0.96144 0.43332 0.0
C98 C 0.17941 0.94455 0.35393 0.0
O99 O 0.1721 0.04434 0.41108 0.0
O100 O 0.12555 1.01297 0.39534 0.0
O101 O 0.24359 0.98027 0.3897 0.0
O102 O 0.23472 0.02073 0.4241 0.0
C103 C 0.16291 0.89777 0.4191 0.0
O104 O 0.15714 0.96767 0.36292 0.0
O105 O 0.20122 0.92985 0.37146 0.0
C106 C 0.14196 0.04286 0.3984 0.0
O107 O 0.14451 0.9155 0.40092 0.0
O108 O 0.19462 0.90782 0.42523 0.0
C109 C 0.23103 0.96206 0.46497 0.0
Fe110 Fe 0.50811 0.19157 0.43269 0.0
Fe111 Fe 0.5582 0.13597 0.40362 0.0
O112 O 0.54832 0.18134 0.41342 0.0
Fe113 Fe 0.5791 0.21673 0.40502 0.0
O114 O 0.56936 0.24348 0.43737 0.0
O115 O 0.53413 0.20837 0.46302 0.0
O116 O 0.50464 0.14796 0.45096 0.0
C117 C 0.52691 0.12265 0.45511 0.0
C118 C 0.51529 0.2517 0.39504 0.0
O119 O 0.55502 0.12031 0.4402 0.0
C120 C 0.58438 0.17025 0.35601 0.0
O121 O 0.47955 0.17481 0.404 0.0
O122 O 0.51041 0.12452 0.39601 0.0
O123 O 0.54492 0.24107 0.38431 0.0
O124 O 0.50313 0.23713 0.41761 0.0
C125 C 0.6251 0.16305 0.42429 0.0
O126 O 0.56273 0.14722 0.36602 0.0
O127 O 0.59558 0.19613 0.37146 0.0
C128 C 0.48141 0.14299 0.39407 0.0
O129 O 0.60732 0.1396 0.41028 0.0
O130 O 0.6147 0.19549 0.42557 0.0
C131 C 0.55716 0.23354 0.46147 0.0
Fe132 Fe 0.38831 0.55632 0.40288 0.0
Fe133 Fe 0.30676 0.57466 0.40388 0.0
O134 O 0.34315 0.54495 0.41215 0.0
Fe135 Fe 0.33396 0.5043 0.43089 0.0
O136 O 0.3775 0.50142 0.44912 0.0
O137 O 0.40421 0.55257 0.4395 0.0
O138 O 0.383 0.60512 0.41026 0.0
C139 C 0.3588 0.62174 0.4244 0.0
C140 C 0.38312 0.47991 0.39163 0.0
O141 O 0.32668 0.61028 0.42515 0.0
C142 C 0.27344 0.51048 0.3933 0.0
O143 O 0.37712 0.56139 0.36538 0.0
O144 O 0.32715 0.59266 0.3708 0.0
O145 O 0.35143 0.47683 0.40173 0.0
O146 O 0.40101 0.50913 0.39449 0.0
C147 C 0.29094 0.55191 0.45994 0.0
O148 O 0.28376 0.54019 0.38254 0.0
O149 O 0.28839 0.4985 0.41582 0.0
C150 C 0.35358 0.58256 0.35547 0.0
O151 O 0.27999 0.56316 0.43584 0.0
O152 O 0.31693 0.5298 0.46151 0.0
C153 C 0.40207 0.52416 0.45409 0.0
Fe154 Fe 0.96295 0.38782 0.39474 0.0
Fe155 Fe 0.94439 0.30836 0.4035 0.0
O156 O 0.97324 0.34562 0.41033 0.0
Fe157 Fe 1.01091 0.34062 0.43353 0.0
O158 O 1.00884 0.38726 0.44836 0.0
O159 O 0.95938 0.40905 0.42904 0.0
O160 O 0.91336 0.38178 0.39708 0.0
C161 C 0.89606 0.3627 0.41504 0.0
C162 C 0.04052 0.38484 0.39265 0.0
O163 O 0.90709 0.33136 0.42126 0.0
C164 C 1.01012 0.2753 0.39985 0.0
O165 O 0.96553 0.36941 0.35902 0.0
O166 O 0.92941 0.32406 0.36768 0.0
O167 O 0.04258 0.35522 0.4061 0.0
O168 O 1.01062 0.40158 0.39048 0.0
C169 C 0.96126 0.29891 0.4617 0.0
O170 O 0.9812 0.28352 0.38661 0.0
O171 O 0.01999 0.29327 0.4219 0.0
C172 C 0.94342 0.34619 0.35013 0.0
O173 O 0.95296 0.28566 0.43765 0.0
O174 O 0.98181 0.32613 0.46308 0.0
C175 C 0.98451 0.41148 0.44693 0.0
Fe176 Fe 0.31996 0.94478 0.89836 0.0
Fe177 Fe 0.39702 0.97428 0.90438 0.0
O178 O 0.35014 0.97822 0.91163 0.0
Fe179 Fe 0.33454 0.01477 0.93295 0.0
O180 O 0.29843 0.98886 0.95113 0.0
O181 O 0.30476 0.93362 0.9342 0.0
O182 O 0.35262 0.90701 0.90257 0.0
C183 C 0.37966 0.90519 0.91935 0.0
C184 C 0.2793 1.01116 0.89414 0.0
O185 O 0.39892 0.93257 0.92443 0.0
C186 C 0.38809 0.04621 0.89576 0.0
O187 O 0.33348 0.95289 0.86107 0.0
O188 O 0.39153 0.95028 0.87057 0.0
O189 O 0.30381 0.03005 0.90546 0.0
O190 O 0.28191 0.97684 0.89303 0.0
C191 C 0.39757 0.99981 0.96062 0.0
O192 O 0.39698 0.01634 0.88455 0.0
O193 O 0.36815 0.04706 0.91808 0.0
C194 C 0.36593 0.95019 0.85274 0.0
O195 O 0.41256 0.99735 0.93658 0.0
O196 O 0.36377 1.00208 0.9627 0.0
C197 C 0.29336 0.95503 0.95319 0.0
Fe198 Fe 0.55644 0.39211 0.89977 0.0
Fe199 Fe 0.5116 0.33534 0.9316 0.0
O200 O 0.55016 0.34699 0.91124 0.0
Fe201 Fe 0.58306 0.31345 0.90269 0.0
O202 O 0.61732 0.33797 0.92285 0.0
O203 O 0.60599 0.39103 0.90357 0.0
O204 O 0.55504 0.40981 0.93596 0.0
C205 C 0.52856 0.40549 0.95254 0.0
C206 C 0.58309 0.35894 0.85289 0.0
O207 O 0.50736 0.37901 0.94945 0.0
C208 C 0.5207 0.27506 0.89442 0.0
O209 O 0.50818 0.40132 0.89419 0.0
O210 O 0.48052 0.34991 0.90353 0.0
O211 O 0.59782 0.33497 0.86852 0.0
O212 O 0.55786 0.37786 0.86288 0.0
C213 C 0.56357 0.29597 0.95964 0.0
O214 O 0.50875 0.28968 0.91705 0.0
O215 O 0.54973 0.28635 0.88287 0.0
C216 C 0.48052 0.38122 0.89257 0.0
O217 O 0.53971 0.32038 0.96136 0.0
O218 O 0.57588 0.28652 0.93543 0.0
C219 C 0.62543 0.3708 0.91914 0.0
Fe220 Fe 0.21714 0.57421 0.905 0.0
Fe221 Fe 0.13614 0.55402 0.90364 0.0
O222 O 0.18142 0.54387 0.91369 0.0
Fe223 Fe 0.19134 0.50393 0.93337 0.0
O224 O 0.20898 0.53034 0.96337 0.0
O225 O 0.24432 0.56451 0.93716 0.0
O226 O 0.1963 0.6101 0.9255 0.0
C227 C 0.16393 0.6208 0.9239 0.0
C228 C 0.251 0.50976 0.89517 0.0
O229 O 0.14041 0.60311 0.9099 0.0
C230 C 0.14195 0.47703 0.89492 0.0
O231 O 0.19643 0.59096 0.87161 0.0
O232 O 0.14773 0.55793 0.86598 0.0
O233 O 0.23653 0.49812 0.91794 0.0
O234 O 0.24086 0.53952 0.88432 0.0
C235 C 0.12288 0.52404 0.95584 0.0
O236 O 0.12405 0.50639 0.89639 0.0
O237 O 0.17365 0.47477 0.90518 0.0
C238 C 0.17056 0.57989 0.85611 0.0
O239 O 0.12003 0.55147 0.94018 0.0
O240 O 0.14807 0.50159 0.95199 0.0
C241 C 0.23448 0.55301 0.96147 0.0
Fe242 Fe 0.01416 0.18958 0.93937 0.0
Fe243 Fe 0.94662 0.2086 0.90335 0.0
O244 O 0.97774 0.17621 0.91687 0.0
Fe245 Fe 0.97167 0.12998 0.90875 0.0
O246 O 0.96719 0.11843 0.9462 0.0
O247 O 0.01582 0.14714 0.95992 0.0
O248 O 0.98275 0.20785 0.966 0.0
C249 C 0.95833 0.23091 0.96055 0.0
C250 C 0.04798 0.13931 0.90546 0.0
O251 O 0.94929 0.23799 0.93498 0.0
C252 C 0.9549 0.15845 0.85687 0.0
O253 O 0.01959 0.23407 0.92254 0.0
O254 O 0.98271 0.23405 0.88539 0.0
O255 O 0.02018 0.11958 0.90823 0.0
O256 O 0.04789 0.17178 0.91426 0.0
C257 C 0.90086 0.15336 0.91959 0.0
O258 O 0.93767 0.18407 0.869 0.0
O259 O 0.97583 0.13866 0.87118 0.0
C260 C 1.01001 0.24687 0.8985 0.0
O261 O 0.90903 0.18635 0.92159 0.0
O262 O 0.92203 0.13152 0.90732 0.0
C263 C 0.99299 0.12203 0.96347 0.0
Fe264 Fe 0.89913 0.05224 0.61699 0.0
Fe265 Fe 0.83642 1.01254 0.58791 0.0
O266 O 0.8522 0.04843 0.60985 0.0
Fe267 Fe 0.82172 0.0814 0.62391 0.0
O268 O 0.8542 0.11952 0.62076 0.0
O269 O 0.90044 0.09485 0.59839 0.0
O270 O 0.91423 0.03151 0.58394 0.0
C271 C 0.89911 0.02905 0.55993 0.0
C272 C 0.86774 0.07405 0.66939 0.0
O273 O 0.86535 0.02526 0.55804 0.0
C274 C 0.78203 0.0148 0.62758 0.0
O275 O 0.90039 1.00882 0.63524 0.0
O276 O 0.86979 0.97963 0.6017 0.0
O277 O 0.83523 0.07204 0.66102 0.0
O278 O 0.89343 0.07415 0.6516 0.0
C279 C 0.79554 0.07312 0.56889 0.0
O280 O 0.80663 0.99674 0.61568 0.0
O281 O 0.78336 0.04919 0.62837 0.0
C282 C 0.89015 0.97961 0.62366 0.0
O283 O 0.80014 0.03916 0.57041 0.0
O284 O 0.80682 0.09379 0.58838 0.0
C285 C 0.88111 0.12199 0.60394 0.0
Fe286 Fe 0.51557 0.83406 0.58304 0.0
Fe287 Fe 0.4508 0.81547 0.6219 0.0
O288 O 0.48111 0.84761 0.60712 0.0
Fe289 Fe 0.47602 0.89384 0.61589 0.0
O290 O 0.4678 0.90537 0.57918 0.0
O291 O 0.5143 0.87603 0.56144 0.0
O292 O 0.4828 0.81498 0.5581 0.0
C293 C 0.45919 0.79176 0.56467 0.0
C294 C 0.55245 0.88472 0.61432 0.0
O295 O 0.4514 0.78538 0.59058 0.0
C296 C 0.46196 0.86586 0.668 0.0
O297 O 0.52274 0.79004 0.60037 0.0
O298 O 0.48778 0.7902 0.63874 0.0
O299 O 0.52471 0.90488 0.61324 0.0
O300 O 0.55065 0.85211 0.60637 0.0
C301 C 0.40489 0.8709 0.60709 0.0
O302 O 0.44379 0.84063 0.65622 0.0
O303 O 0.48349 0.88448 0.65323 0.0
C304 C 0.51438 0.77735 0.62475 0.0
O305 O 0.41269 0.83787 0.6046 0.0
O306 O 0.42641 0.89205 0.61983 0.0
C307 C 0.48912 0.89915 0.55889 0.0
Fe308 Fe 0.63586 0.4668 0.62363 0.0
Fe309 Fe 0.68806 0.51241 0.58733 0.0
O310 O 0.67972 0.47475 0.60988 0.0
Fe311 Fe 0.71488 0.44359 0.61816 0.0
O312 O 0.69053 0.40758 0.60001 0.0
O313 O 0.63987 0.41707 0.623 0.0
O314 O 0.6173 0.46303 0.58827 0.0
C315 C 0.6199 0.48606 0.56859 0.0
C316 C 0.67504 0.44827 0.67021 0.0
O317 O 0.64334 0.5111 0.56956 0.0
C318 C 0.75056 0.50804 0.62379 0.0
O319 O 0.6231 0.51481 0.62627 0.0
O320 O 0.67192 0.54479 0.61383 0.0
O321 O 0.69634 0.43098 0.65382 0.0
O322 O 0.65217 0.46994 0.66 0.0
C323 C 0.72976 0.46088 0.56029 0.0
O324 O 0.73411 0.51966 0.60162 0.0
O325 O 0.7413 0.47866 0.63571 0.0
C326 C 0.641 0.54397 0.62531 0.0
O327 O 0.70445 0.48364 0.55848 0.0
O328 O 0.74011 0.44962 0.58452 0.0
C329 C 0.65856 0.3983 0.6058 0.0
Fe330 Fe 1.01013 0.69041 0.5903 0.0
Fe331 Fe 0.08234 0.70914 0.62011 0.0
O332 O 0.0481 0.67714 0.61096 0.0
Fe333 Fe 0.05187 0.63116 0.62163 0.0
O334 O 0.02895 0.61276 0.59027 0.0
O335 O 0.02194 0.65917 0.56166 0.0
O336 O 0.03344 0.72579 0.56991 0.0
C337 C 0.06657 0.73173 0.5652 0.0
C338 C 0.97972 0.64004 0.62991 0.0
O339 O 0.09023 0.72166 0.5829 0.0
C340 C 0.08133 0.66846 0.66958 0.0
O341 O 0.99622 0.72224 0.61745 0.0
O342 O 0.04973 0.74707 0.62534 0.0
O343 O 1.00964 0.63287 0.64183 0.0
O344 O 0.97904 0.65767 0.60665 0.0
C345 C 0.12061 0.64649 0.60248 0.0
O346 O 0.07857 0.69948 0.65838 0.0
O347 O 0.07636 0.64029 0.65483 0.0
C348 C 0.01529 0.74778 0.62716 0.0
O349 O 0.12014 0.67659 0.61565 0.0
O350 O 0.09314 0.62642 0.60155 0.0
C351 C 0.02592 0.62559 0.56537 0.0
H352 H 0.62221 0.06215 0.21005 0.0
H353 H 0.7095 0.13777 0.19335 0.0
H354 H 0.69573 0.16937 0.23864 0.0
H355 H 0.56054 0.12562 0.23958 0.0
H356 H 0.54299 0.09538 0.26644 0.0
H357 H 0.56061 0.07749 0.23339 0.0
H358 H 0.6053 0.03688 0.26156 0.0
H359 H 0.58748 0.05428 0.2947 0.0
H360 H 0.63528 0.05714 0.28745 0.0
H361 H 0.67026 0.19485 0.28483 0.0
H362 H 0.63872 0.20889 0.33007 0.0
H363 H 0.56832 0.11636 0.31697 0.0
C364 C 0.63882 0.08505 0.21604 0.0
C365 C 0.66706 0.09734 0.19796 0.0
C366 C 0.68786 0.12761 0.20673 0.0
C367 C 0.68012 0.1459 0.23242 0.0
C368 C 0.65156 0.13359 0.24931 0.0
C369 C 0.63152 0.10359 0.24165 0.0
C370 C 0.60213 0.09601 0.26354 0.0
C371 C 0.56434 0.0988 0.24992 0.0
C372 C 0.60791 0.05888 0.27765 0.0
C373 C 0.60862 0.12655 0.28464 0.0
C374 C 0.63715 0.14803 0.27598 0.0
C375 C 0.648 0.17808 0.29187 0.0
C376 C 0.62974 0.18595 0.31753 0.0
C377 C 0.60092 0.16383 0.32728 0.0
C378 C 0.59013 0.13395 0.31026 0.0
H379 H 0.46363 0.62466 0.21172 0.0
H380 H 0.38833 0.71267 0.19597 0.0
H381 H 0.35628 0.69788 0.2408 0.0
H382 H 0.39985 0.56265 0.23921 0.0
H383 H 0.42955 0.54403 0.26605 0.0
H384 H 0.44812 0.56272 0.23365 0.0
H385 H 0.4883 0.60627 0.26327 0.0
H386 H 0.47028 0.58731 0.29578 0.0
H387 H 0.46762 0.63535 0.28958 0.0
H388 H 0.32995 0.67094 0.28607 0.0
H389 H 0.31508 0.63778 0.33041 0.0
H390 H 0.40777 0.56762 0.31669 0.0
C391 C 0.44078 0.64127 0.21787 0.0
C392 C 0.42862 0.66992 0.20016 0.0
C393 C 0.39837 0.6907 0.20909 0.0
C394 C 0.37982 0.68239 0.2345 0.0
C395 C 0.39188 0.65331 0.25095 0.0
C396 C 0.42197 0.63339 0.24319 0.0
C397 C 0.42912 0.60323 0.26446 0.0
C398 C 0.42649 0.56596 0.24997 0.0
C399 C 0.46601 0.60836 0.27915 0.0
C400 C 0.3982 0.60911 0.28528 0.0
C401 C 0.37693 0.63804 0.27706 0.0
C402 C 0.34657 0.64838 0.29279 0.0
C403 C 0.33821 0.6292 0.3179 0.0
C404 C 0.36017 0.6 0.3272 0.0
C405 C 0.39032 0.58973 0.3103 0.0
H406 H 0.96441 0.39443 0.30866 0.0
H407 H 0.88422 0.31184 0.32687 0.0
H408 H 0.85132 0.32855 0.28271 0.0
H409 H 0.90387 0.46044 0.28341 0.0
H410 H 0.93337 0.4773 0.25577 0.0
H411 H 0.95226 0.4571 0.2875 0.0
H412 H 0.988 0.41116 0.25657 0.0
H413 H 0.96978 0.43167 0.22471 0.0
H414 H 0.9642 0.38385 0.23072 0.0
H415 H 0.82484 0.35752 0.23804 0.0
H416 H 0.81043 0.39184 0.19414 0.0
H417 H 0.90799 0.45559 0.20569 0.0
C418 C 0.9403 0.3793 0.30317 0.0
C419 C 0.927 0.3517 0.32135 0.0
C420 C 0.89516 0.33289 0.3133 0.0
C421 C 0.87613 0.34237 0.28832 0.0
C422 C 0.88934 0.3706 0.2715 0.0
C423 C 0.921 0.38841 0.2784 0.0
C424 C 0.92914 0.41824 0.25711 0.0
C425 C 0.92968 0.45546 0.27184 0.0
C426 C 0.9649 0.41077 0.24134 0.0
C427 C 0.89696 0.41467 0.23723 0.0
C428 C 0.87423 0.38713 0.24591 0.0
C429 C 0.8426 0.37899 0.23097 0.0
C430 C 0.83452 0.39883 0.20612 0.0
C431 C 0.858 0.42652 0.19632 0.0
C432 C 0.88934 0.43474 0.21251 0.0
H433 H 0.13832 0.97073 0.30915 0.0
H434 H 0.20354 0.8786 0.33485 0.0
H435 H 0.18412 0.8457 0.29149 0.0
H436 H 0.06429 0.92178 0.2812 0.0
H437 H 0.05629 0.95163 0.25136 0.0
H438 H 0.07649 0.96888 0.28369 0.0
H439 H 0.13141 0.99266 0.25489 0.0
H440 H 0.11106 0.97607 0.2224 0.0
H441 H 0.15615 0.96206 0.23208 0.0
H442 H 0.15326 0.82069 0.24708 0.0
H443 H 0.12081 0.80917 0.20165 0.0
H444 H 0.07792 0.91842 0.20376 0.0
C445 C 0.14905 0.94387 0.30544 0.0
C446 C 0.17255 0.92736 0.32555 0.0
C447 C 0.18578 0.89207 0.31979 0.0
C448 C 0.17465 0.87299 0.29528 0.0
C449 C 0.1506 0.88963 0.27641 0.0
C450 C 0.13857 0.92458 0.28089 0.0
C451 C 0.1131 0.9364 0.25717 0.0
C452 C 0.07531 0.94518 0.26908 0.0
C453 C 0.12888 0.96871 0.24065 0.0
C454 C 0.11237 0.90253 0.23882 0.0
C455 C 0.13385 0.87569 0.25044 0.0
C456 C 0.13665 0.84167 0.23766 0.0
C457 C 0.11784 0.83525 0.21195 0.0
C458 C 0.09681 0.86285 0.19903 0.0
C459 C 0.09384 0.89675 0.21299 0.0
H460 H 0.34503 0.89827 0.81257 0.0
H461 H 0.41306 0.99242 0.82543 0.0
H462 H 0.44471 0.97971 0.78028 0.0
H463 H 0.41191 0.84146 0.78445 0.0
H464 H 0.38466 0.81994 0.75735 0.0
H465 H 0.36365 0.83773 0.78917 0.0
H466 H 0.32097 0.87744 0.75847 0.0
H467 H 0.34124 0.85911 0.72651 0.0
H468 H 0.33993 0.90735 0.73197 0.0
H469 H 0.47489 0.95311 0.73891 0.0
H470 H 0.4952 0.92092 0.69614 0.0
H471 H 0.40649 0.84458 0.70543 0.0
C472 C 0.36554 0.91692 0.80514 0.0
C473 C 0.37629 0.94673 0.82227 0.0
C474 C 0.40415 0.96981 0.81244 0.0
C475 C 0.42249 0.96263 0.78694 0.0
C476 C 0.41259 0.93228 0.77119 0.0
C477 C 0.3842 0.91023 0.77927 0.0
C478 C 0.38018 0.87897 0.75815 0.0
C479 C 0.38541 0.84236 0.77319 0.0
C480 C 0.34339 0.88084 0.74287 0.0
C481 C 0.41119 0.88671 0.73751 0.0
C482 C 0.42958 0.91742 0.74592 0.0
C483 C 0.46024 0.92949 0.73166 0.0
C484 C 0.4717 0.91071 0.70735 0.0
C485 C 0.45231 0.8803 0.6969 0.0
C486 C 0.42193 0.86772 0.71267 0.0
H487 H 0.60784 0.32741 0.80196 0.0
H488 H 0.60417 0.42806 0.84969 0.0
H489 H 0.63445 0.45954 0.81019 0.0
H490 H 0.69642 0.34492 0.76557 0.0
H491 H 0.68178 0.32541 0.73215 0.0
H492 H 0.66356 0.30891 0.76548 0.0
H493 H 0.59858 0.32155 0.74729 0.0
H494 H 0.6166 0.33793 0.71394 0.0
H495 H 0.58701 0.36626 0.73489 0.0
H496 H 0.65816 0.48228 0.76475 0.0
H497 H 0.67425 0.49505 0.7145 0.0
H498 H 0.66502 0.38102 0.69428 0.0
C499 C 0.61413 0.35587 0.80414 0.0
C500 C 0.60365 0.3753 0.82892 0.0
C501 C 0.61177 0.41268 0.83088 0.0
C502 C 0.62918 0.43082 0.80861 0.0
C503 C 0.63853 0.41136 0.78426 0.0
C504 C 0.63144 0.37475 0.78171 0.0
C505 C 0.64206 0.36141 0.75203 0.0
C506 C 0.67279 0.3335 0.75393 0.0
C507 C 0.60909 0.34588 0.7361 0.0
C508 C 0.65512 0.39642 0.73831 0.0
C509 C 0.65311 0.42473 0.75755 0.0
C510 C 0.66065 0.46027 0.7496 0.0
C511 C 0.66982 0.4673 0.72107 0.0
C512 C 0.6718 0.43897 0.70084 0.0
C513 C 0.66498 0.40295 0.70966 0.0
H514 H 0.12548 0.55714 0.81243 0.0
H515 H 0.19825 0.64404 0.83659 0.0
H516 H 0.18123 0.67756 0.79292 0.0
H517 H 0.14457 0.56177 0.73602 0.0
H518 H 0.09868 0.55132 0.72592 0.0
H519 H 0.11677 0.53437 0.75911 0.0
H520 H 0.0635 0.56404 0.78649 0.0
H521 H 0.04556 0.58153 0.75341 0.0
H522 H 0.05537 0.61187 0.78261 0.0
H523 H 0.15339 0.70348 0.74743 0.0
H524 H 0.12364 0.7154 0.70082 0.0
H525 H 0.07158 0.61044 0.70519 0.0
C526 C 0.1381 0.58307 0.80842 0.0
C527 C 0.16325 0.59786 0.82809 0.0
C528 C 0.17913 0.63189 0.82188 0.0
C529 C 0.16941 0.65134 0.79718 0.0
C530 C 0.14403 0.63632 0.77856 0.0
C531 C 0.12911 0.60264 0.78362 0.0
C532 C 0.1033 0.59209 0.75977 0.0
C533 C 0.11664 0.55786 0.74429 0.0
C534 C 0.06465 0.5871 0.77127 0.0
C535 C 0.10588 0.62514 0.74061 0.0
C536 C 0.12913 0.6506 0.75198 0.0
C537 C 0.13531 0.68359 0.73826 0.0
C538 C 0.11807 0.69028 0.71188 0.0
C539 C 0.0953 0.66391 0.69927 0.0
C540 C 0.0889 0.63116 0.71418 0.0
H541 H 0.89617 0.17552 0.82084 0.0
H542 H 0.99536 0.11235 0.82542 0.0
H543 H 0.97891 0.08097 0.78133 0.0
H544 H 0.83887 0.10651 0.79183 0.0
H545 H 0.81513 0.13516 0.76687 0.0
H546 H 0.83358 0.15406 0.79932 0.0
H547 H 0.87017 0.20077 0.76998 0.0
H548 H 0.85116 0.18255 0.7375 0.0
H549 H 0.89957 0.18524 0.74173 0.0
H550 H 0.95136 0.05235 0.74016 0.0
H551 H 0.92062 0.03741 0.69516 0.0
H552 H 0.84057 0.12088 0.7115 0.0
C553 C 0.91467 0.1556 0.81222 0.0
C554 C 0.94684 0.1461 0.82714 0.0
C555 C 0.9703 0.11988 0.81493 0.0
C556 C 0.96115 0.10162 0.78985 0.0
C557 C 0.9287 0.11018 0.77652 0.0
C558 C 0.90626 0.13728 0.78647 0.0
C559 C 0.87395 0.14183 0.76639 0.0
C560 C 0.83827 0.13392 0.78205 0.0
C561 C 0.87371 0.17986 0.75311 0.0
C562 C 0.88196 0.11288 0.74394 0.0
C563 C 0.91338 0.09464 0.75091 0.0
C564 C 0.92692 0.06663 0.73422 0.0
C565 C 0.90907 0.05816 0.70879 0.0
C566 C 0.87819 0.0778 0.69986 0.0
C567 C 0.86372 0.10495 0.71807 0.0
H568 H 0.56798 0.07327 0.04379 0.0
H569 H 0.59046 0.96111 0.06468 0.0
H570 H 0.5313 0.94325 0.04482 0.0
H571 H 0.47161 0.07226 0.05742 0.0
H572 H 0.46045 0.10026 0.02709 0.0
H573 H 0.50372 0.1051 0.0445 0.0
H574 H 0.53676 0.09377 0.99638 0.0
H575 H 0.49361 0.08992 0.9788 0.0
H576 H 0.52618 0.05379 0.97591 0.0
H577 H 0.47053 0.93723 0.0228 0.0
H578 H 0.41675 0.94186 0.99149 0.0
H579 H 0.43432 0.05691 0.98257 0.0
C580 C 0.5604 0.04498 0.04397 0.0
C581 C 0.58367 0.01853 0.05562 0.0
C582 C 0.57315 0.98171 0.05545 0.0
C583 C 0.53941 0.97137 0.04463 0.0
C584 C 0.51673 0.99814 0.03378 0.0
C585 C 0.52707 0.03405 0.03266 0.0
C586 C 0.49887 0.05685 0.01755 0.0
C587 C 0.48271 0.0853 0.03787 0.0
C588 C 0.5148 0.07461 0.99055 0.0
C589 C 0.4713 0.02803 1.01008 0.0
C590 C 0.48176 0.99452 0.02033 0.0
C591 C 0.46172 0.96334 0.01499 0.0
C592 C 0.43102 0.9662 0.99758 0.0
C593 C 0.42099 0.99983 0.98574 0.0
C594 C 0.44084 0.03123 0.99248 0.0
H595 H 0.54424 0.59012 0.04125 0.0
H596 H 0.42769 0.58319 0.05183 0.0
H597 H 0.42645 0.52851 0.0219 0.0
H598 H 0.54582 0.55585 0.96589 0.0
H599 H 0.58731 0.53119 0.97151 0.0
H600 H 0.57878 0.57222 0.99124 0.0
H601 H 0.58893 0.53741 0.03867 0.0
H602 H 0.59673 0.49613 0.01916 0.0
H603 H 0.56203 0.4979 0.04622 0.0
H604 H 0.4379 0.47157 0.99701 0.0
H605 H 0.46031 0.4183 0.97125 0.0
H606 H 0.56963 0.4615 0.9743 0.0
C607 C 0.51843 0.57761 0.03651 0.0
C608 C 0.48608 0.59062 0.04889 0.0
C609 C 0.4528 0.57336 0.04269 0.0
C610 C 0.45179 0.54234 0.02574 0.0
C611 C 0.48425 0.52914 0.01497 0.0
C612 C 0.5169 0.54644 0.0195 0.0
C613 C 0.54785 0.52539 1.00613 0.0
C614 C 0.566 0.54748 0.98227 0.0
C615 C 0.57551 0.51351 0.02891 0.0
C616 C 0.52743 0.49326 0.99406 0.0
C617 C 0.49083 0.49609 0.99963 0.0
C618 C 0.46641 0.46919 0.99208 0.0
C619 C 0.47954 0.43883 0.97773 0.0
C620 C 0.51675 0.43575 0.97078 0.0
C621 C 0.54105 0.46326 0.97924 0.0
H622 H 0.07148 0.56732 0.98146 0.0
H623 H 0.10276 0.45528 0.96787 0.0
H624 H 0.04614 0.43506 0.99013 0.0
H625 H 0.03085 0.55128 0.05169 0.0
H626 H 0.99564 0.58434 0.04626 0.0
H627 H 0.03876 0.58975 0.02889 0.0
H628 H 1.00554 0.59381 0.98001 0.0
H629 H 0.96253 0.58706 0.99734 0.0
H630 H 0.97651 0.55722 0.96889 0.0
H631 H 0.98672 0.42635 0.01198 0.0
H632 H 0.93105 0.42899 0.04071 0.0
H633 H 0.93769 0.54623 0.04262 0.0
C634 C 0.06646 0.53858 0.9835 0.0
C635 C 0.09148 0.51288 0.97301 0.0
C636 C 0.08419 0.47546 0.97607 0.0
C637 C 0.05189 0.46367 0.98835 0.0
C638 C 0.0274 0.48959 0.9978 0.0
C639 C 0.03452 0.52621 0.99627 0.0
C640 C 1.00423 0.54805 1.00976 0.0
C641 C 0.0182 0.56962 0.03569 0.0
C642 C 0.98614 0.57301 0.98767 0.0
C643 C 0.97902 0.51784 0.01892 0.0
C644 C 0.99287 0.48444 1.01133 0.0
C645 C 0.97552 0.45226 0.01812 0.0
C646 C 0.94391 0.45406 0.03434 0.0
C647 C 0.93019 0.4878 0.04377 0.0
C648 C 0.94729 0.52018 0.0352 0.0
H649 H 0.95131 0.07693 0.99643 0.0
H650 H 0.05997 0.0926 0.96355 0.0
H651 H 0.07705 0.03164 0.9801 0.0
H652 H 0.98086 0.03016 0.06115 0.0
H653 H 0.94205 1.00067 0.0617 0.0
H654 H 0.9384 0.04508 0.04621 0.0
H655 H 0.91516 0.01608 0.99913 0.0
H656 H 0.91988 0.97153 0.01433 0.0
H657 H 0.94244 0.98253 0.98125 0.0
H658 H 0.08135 0.96805 0.99721 0.0
H659 H 0.07852 0.9123 0.02654 0.0
H660 H 0.96901 0.93931 0.05176 0.0
C661 C 0.97883 0.06764 0.99326 0.0
C662 C 1.00441 0.08938 0.97894 0.0
C663 C 0.04016 0.07651 0.97494 0.0
C664 C 0.04994 0.04172 0.9838 0.0
C665 C 0.02382 0.02044 0.99703 0.0
C666 C 0.98941 0.0333 1.00272 0.0
C667 C 0.96758 1.00594 0.01955 0.0
C668 C 0.9566 0.02138 0.04889 0.0
C669 C 0.9343 0.99328 1.00253 0.0
C670 C 0.99522 0.97587 0.02246 0.0
C671 C 0.02706 0.98436 1.00852 0.0
C672 C 0.05677 0.9611 1.00847 0.0
C673 C 0.05473 0.9293 0.02467 0.0
C674 C 0.02329 0.92149 0.04064 0.0
C675 C 0.9929 0.94447 0.03896 0.0
H676 H 0.08892 0.04184 0.48291 0.0
H677 H 0.07483 0.9276 0.46407 0.0
H678 H 1.0133 0.92979 0.48371 0.0
H679 H 0.03925 0.03849 0.55131 0.0
H680 H 0.02042 0.08306 0.54642 0.0
H681 H 0.06374 0.07204 0.53112 0.0
H682 H 0.03969 0.09152 0.48117 0.0
H683 H 0.99626 0.10171 0.49658 0.0
H684 H 0.99945 0.07047 0.46708 0.0
H685 H 0.95204 0.94464 0.50129 0.0
H686 H 0.89966 0.96748 0.52879 0.0
H687 H 0.95373 0.07052 0.53969 0.0
C688 C 0.07321 0.01714 0.48362 0.0
C689 C 0.08646 0.98474 0.47154 0.0
C690 C 0.06502 0.95293 0.47283 0.0
C691 C 0.0299 0.95389 0.48371 0.0
C692 C 0.01674 0.98668 0.49374 0.0
C693 C 0.03803 0.01741 0.49488 0.0
C694 C 0.01754 0.04857 0.50832 0.0
C695 C 0.03635 0.06127 0.53594 0.0
C696 C 1.01297 0.0799 0.487 0.0
C697 C 0.98162 0.03036 0.51455 0.0
C698 C 0.9815 0.99493 0.5052 0.0
C699 C 0.95166 0.97233 0.50879 0.0
C700 C 0.92184 0.98563 0.52398 0.0
C701 C 0.92268 0.0208 0.53571 0.0
C702 C 0.95235 0.0438 0.53021 0.0
H703 H 0.56913 0.06885 0.47826 0.0
H704 H 0.45753 0.1029 0.46659 0.0
H705 H 0.43653 0.04464 0.4857 0.0
H706 H 0.55711 0.97537 0.46004 0.0
H707 H 0.58718 0.95844 0.48732 0.0
H708 H 0.59442 1.00273 0.47229 0.0
H709 H 0.59157 0.03203 0.52288 0.0
H710 H 0.58633 0.98742 0.5376 0.0
H711 H 0.55365 0.02216 0.54576 0.0
H712 H 0.42718 0.98359 0.50557 0.0
H713 H 0.42982 0.92727 0.53368 0.0
H714 H 0.54707 0.93208 0.5335 0.0
C715 C 0.5403 0.06412 0.48006 0.0
C716 C 0.51498 0.09041 0.47102 0.0
C717 C 0.47745 0.08336 0.47372 0.0
C718 C 0.46522 0.05013 0.48415 0.0
C719 C 0.49083 0.02439 0.49203 0.0
C720 C 0.52754 0.03123 0.49083 0.0
C721 C 0.54915 0.99961 0.50243 0.0
C722 C 0.57339 0.98307 0.47911 0.0
C723 C 0.57147 1.01101 0.52873 0.0
C724 C 0.51877 0.97415 0.51061 0.0
C725 C 0.48539 0.98882 0.50386 0.0
C726 C 0.4531 0.97166 0.51083 0.0
C727 C 0.45486 0.93964 0.52661 0.0
C728 C 0.48864 0.92534 0.53535 0.0
C729 C 0.52101 0.94196 0.5263 0.0
H730 H 0.58798 0.54391 0.54119 0.0
H731 H 0.58717 0.42673 0.54728 0.0
H732 H 0.53193 0.42452 0.51797 0.0
H733 H 0.49519 0.55658 0.54814 0.0
H734 H 0.4908 0.59277 0.52253 0.0
H735 H 0.53303 0.58597 0.541 0.0
H736 H 0.56686 0.58063 0.49267 0.0
H737 H 0.52481 0.5883 0.47407 0.0
H738 H 0.55137 0.54857 0.46628 0.0
H739 H 0.47377 0.43452 0.49437 0.0
H740 H 0.41874 0.45563 0.47027 0.0
H741 H 0.4563 0.56673 0.47711 0.0
C742 C 0.57675 0.51784 0.53549 0.0
C743 C 0.59167 0.48547 0.54642 0.0
C744 C 0.57595 0.4518 0.53914 0.0
C745 C 0.54459 0.45026 0.52256 0.0
C746 C 0.52946 0.48262 0.51327 0.0
C747 C 0.54522 0.51579 0.51884 0.0
C748 C 0.52215 0.54639 0.50709 0.0
C749 C 0.50955 0.57192 0.53113 0.0
C750 C 0.54251 0.56719 0.48362 0.0
C751 C 0.4907 0.52511 0.49475 0.0
C752 C 0.4956 0.48842 0.49877 0.0
C753 C 0.46977 0.46313 0.49065 0.0
C754 C 0.43838 0.47551 0.47724 0.0
C755 C 0.43318 0.51287 0.47178 0.0
C756 C 0.45961 0.53802 0.48091 0.0
H757 H 0.05052 0.55624 0.563 0.0
H758 H 0.99128 0.63681 0.51423 0.0
H759 H 0.97703 0.59059 0.47767 0.0
H760 H 0.08688 0.50574 0.50005 0.0
H761 H 0.08259 0.46293 0.51812 0.0
H762 H 0.09148 0.50341 0.53845 0.0
H763 H 0.0349 0.49006 0.56953 0.0
H764 H 0.02542 0.45015 0.54878 0.0
H765 H 0.99147 0.48487 0.55242 0.0
H766 H 0.96247 0.53512 0.45061 0.0
H767 H 0.95409 0.4748 0.43021 0.0
H768 H 0.02498 0.42913 0.49515 0.0
C769 C 0.03508 0.56429 0.54434 0.0
C770 C 0.02172 0.59999 0.54143 0.0
C771 C 1.00181 0.60966 0.51676 0.0
C772 C 0.99353 0.58358 0.49599 0.0
C773 C 1.00598 0.54832 0.50008 0.0
C774 C 0.02696 0.53874 0.52329 0.0
C775 C 0.0357 0.49861 0.52309 0.0
C776 C 0.0766 0.49232 0.51973 0.0
C777 C 0.02098 0.47983 0.55005 0.0
C778 C 0.0153 0.48685 0.49657 0.0
C779 C 0.99839 0.51608 0.48376 0.0
C780 C 0.97607 0.51213 0.46011 0.0
C781 C 0.97126 0.47751 0.44889 0.0
C782 C 0.98892 0.44702 0.46109 0.0
C783 C 1.01135 0.45186 0.48526 0.0
H784 H 0.65033 0.91222 0.10535 0.0
H785 H 0.59095 0.97066 0.17064 0.0
H786 H 0.5535 0.9164 0.17967 0.0
H787 H 0.57464 0.87 0.07598 0.0
H788 H 0.59692 0.82797 0.06748 0.0
H789 H 0.62263 0.86922 0.06914 0.0
H790 H 0.66571 0.84063 0.10661 0.0
H791 H 0.64035 0.79907 0.10489 0.0
H792 H 0.64717 0.82127 0.13882 0.0
H793 H 0.51895 0.85705 0.17864 0.0
H794 H 0.48977 0.79871 0.16697 0.0
H795 H 0.57042 0.77991 0.10108 0.0
C796 C 0.63032 0.91318 0.12226 0.0
C797 C 0.62412 0.94547 0.13777 0.0
C798 C 0.59654 0.94607 0.15883 0.0
C799 C 0.57511 0.91537 0.16407 0.0
C800 C 0.58128 0.88423 0.1479 0.0
C801 C 0.60827 0.88293 0.12742 0.0
C802 C 0.60712 0.84748 0.11106 0.0
C803 C 0.59989 0.85407 0.07903 0.0
C804 C 0.64217 0.82583 0.11563 0.0
C805 C 0.57514 0.82916 0.12534 0.0
C806 C 0.56077 0.85061 0.14671 0.0
C807 C 0.53023 0.83992 0.1621 0.0
C808 C 0.51379 0.80665 0.15532 0.0
C809 C 0.52768 0.78444 0.13313 0.0
C810 C 0.55909 0.79594 0.11828 0.0
H811 H 0.61125 0.65262 0.10554 0.0
H812 H 0.55285 0.5898 0.16877 0.0
H813 H 0.60857 0.55513 0.17931 0.0
H814 H 0.65901 0.57951 0.07717 0.0
H815 H 0.70007 0.60422 0.07014 0.0
H816 H 0.65733 0.62752 0.07059 0.0
H817 H 0.6817 0.6717 0.10911 0.0
H818 H 0.72465 0.64858 0.10872 0.0
H819 H 0.70034 0.65394 0.14189 0.0
H820 H 0.66962 0.52391 0.18011 0.0
H821 H 0.72937 0.49708 0.16952 0.0
H822 H 0.74722 0.57902 0.10452 0.0
C823 C 0.61045 0.63231 0.12222 0.0
C824 C 0.57778 0.62435 0.1367 0.0
C825 C 0.57761 0.59662 0.15763 0.0
C826 C 0.60917 0.57682 0.16379 0.0
C827 C 0.64073 0.58483 0.1487 0.0
C828 C 0.64156 0.6119 0.1283 0.0
C829 C 0.67782 0.61282 0.11312 0.0
C830 C 0.67327 0.60557 0.08085 0.0
C831 C 0.69728 0.64891 0.11854 0.0
C832 C 0.69713 0.58177 0.12787 0.0
C833 C 0.67547 0.56625 0.14858 0.0
C834 C 0.68691 0.5361 0.16411 0.0
C835 C 0.72099 0.52104 0.15796 0.0
C836 C 0.74328 0.53587 0.13622 0.0
C837 C 0.73119 0.5671 0.12145 0.0
H838 H 0.9517 0.74807 0.11469 0.0
H839 H 0.05365 0.71626 0.15339 0.0
H840 H 0.02917 0.65499 0.16182 0.0
H841 H 0.89186 0.69377 0.16081 0.0
H842 H 0.86192 0.68252 0.13167 0.0
H843 H 0.88615 0.7248 0.13139 0.0
H844 H 0.91313 0.70885 0.08178 0.0
H845 H 0.88905 0.66658 0.08193 0.0
H846 H 0.93746 0.66693 0.07733 0.0
H847 H 0.99518 0.5954 0.16228 0.0
H848 H 0.95503 0.54292 0.15446 0.0
H849 H 0.87517 0.61353 0.11544 0.0
C850 C 0.96868 0.72855 0.12555 0.0
C851 C 1.00463 0.73732 0.13361 0.0
C852 C 0.02603 0.71046 0.14715 0.0
C853 C 1.01231 0.67551 0.15206 0.0
C854 C 0.97706 0.66763 0.14334 0.0
C855 C 0.9555 0.69346 0.13044 0.0
C856 C 0.91945 0.67746 0.12131 0.0
C857 C 0.88798 0.69573 0.13725 0.0
C858 C 0.9145 0.68011 0.08866 0.0
C859 C 0.92419 0.63849 0.13078 0.0
C860 C 0.95754 0.63339 0.14357 0.0
C861 C 0.96884 0.59924 0.1526 0.0
C862 C 0.94579 0.56953 0.14807 0.0
C863 C 0.91167 0.57393 0.13459 0.0
C864 C 0.90069 0.60915 0.12631 0.0
H865 H 0.91553 0.88056 0.09948 0.0
H866 H 0.96802 0.92607 0.17438 0.0
H867 H 0.91382 0.96384 0.18348 0.0
H868 H 0.87679 0.96183 0.07579 0.0
H869 H 0.83589 0.94119 0.06257 0.0
H870 H 0.87723 0.9155 0.0638 0.0
H871 H 0.84573 0.86632 0.09449 0.0
H872 H 0.80415 0.89171 0.09319 0.0
H873 H 0.82332 0.87912 0.12724 0.0
H874 H 0.85415 1.00055 0.18182 0.0
H875 H 0.79572 0.03034 0.17017 0.0
H876 H 0.78425 0.95982 0.09643 0.0
C877 C 0.91552 0.89781 0.11821 0.0
C878 C 0.94615 0.89996 0.13633 0.0
C879 C 0.9449 0.92361 0.16026 0.0
C880 C 0.91421 0.94528 0.16556 0.0
C881 C 0.88486 0.94309 0.14678 0.0
C882 C 0.88535 0.9197 0.12368 0.0
C883 C 0.85153 0.92358 0.10566 0.0
C884 C 0.86093 0.93628 0.07517 0.0
C885 C 0.8299 0.88807 0.10513 0.0
C886 C 0.83174 0.95274 0.12218 0.0
C887 C 0.85122 0.96386 0.14583 0.0
C888 C 0.83859 0.9917 0.16348 0.0
C889 C 0.80535 1.00853 0.15671 0.0
C890 C 0.78504 0.99744 0.13249 0.0
C891 C 0.79864 0.96893 0.11529 0.0
H892 H 0.14678 0.10907 0.42514 0.0
H893 H 0.09192 0.05342 0.3559 0.0
H894 H 0.05525 0.10824 0.3466 0.0
H895 H 0.0681 0.15245 0.45168 0.0
H896 H 0.09079 0.19357 0.46201 0.0
H897 H 0.11536 0.15152 0.46122 0.0
H898 H 0.16249 0.17973 0.42681 0.0
H899 H 0.13809 0.22195 0.42755 0.0
H900 H 0.14744 0.20014 0.39383 0.0
H901 H 0.02239 0.16852 0.34634 0.0
H902 H 0.99439 0.22783 0.35624 0.0
H903 H 0.06879 0.24371 0.4271 0.0
C904 C 0.12771 0.10873 0.40753 0.0
C905 C 0.12277 0.07707 0.39084 0.0
C906 C 0.09653 0.0774 0.36872 0.0
C907 C 0.07556 0.10846 0.3633 0.0
C908 C 0.08072 0.13901 0.3804 0.0
C909 C 0.10606 0.13932 0.40217 0.0
C910 C 0.10431 0.17459 0.41887 0.0
C911 C 0.09403 0.1676 0.4503 0.0
C912 C 0.14022 0.19533 0.41662 0.0
C913 C 0.07413 0.19414 0.40307 0.0
C914 C 0.06105 0.17322 0.38083 0.0
C915 C 0.03258 0.18513 0.36363 0.0
C916 C 0.01682 0.21901 0.36944 0.0
C917 C 0.02926 0.24081 0.39244 0.0
C918 C 0.05865 0.22806 0.40923 0.0
H919 H 0.41463 0.15126 0.4184 0.0
H920 H 0.47232 0.08969 0.35398 0.0
H921 H 0.41772 0.05217 0.34595 0.0
H922 H 0.37263 0.07608 0.44936 0.0
H923 H 0.33087 0.09883 0.45798 0.0
H924 H 0.37232 0.12417 0.45565 0.0
H925 H 0.34341 0.1667 0.41796 0.0
H926 H 0.30168 0.14169 0.42031 0.0
H927 H 0.32344 0.14769 0.38612 0.0
H928 H 0.35791 0.01882 0.34733 0.0
H929 H 0.29944 0.99053 0.35934 0.0
H930 H 0.28182 0.07191 0.42494 0.0
C931 C 0.41536 0.13069 0.4019 0.0
C932 C 0.44744 0.124 0.38621 0.0
C933 C 0.44785 0.09568 0.36581 0.0
C934 C 0.41696 0.07424 0.36116 0.0
C935 C 0.38598 0.08108 0.37739 0.0
C936 C 0.38503 0.10856 0.39744 0.0
C937 C 0.34978 0.10801 0.41411 0.0
C938 C 0.35683 0.10137 0.44616 0.0
C939 C 0.32831 0.14311 0.40933 0.0
C940 C 0.33101 0.0759 0.40037 0.0
C941 C 0.35219 0.06098 0.37904 0.0
C942 C 0.34105 0.03046 0.36388 0.0
C943 C 0.30768 0.01455 0.3709 0.0
C944 C 0.28574 0.02887 0.39311 0.0
C945 C 0.29764 0.06028 0.40774 0.0
H946 H 0.37049 0.40975 0.40744 0.0
H947 H 0.44162 0.47602 0.35567 0.0
H948 H 0.47999 0.42251 0.34588 0.0
H949 H 0.43909 0.36271 0.4412 0.0
H950 H 0.41539 0.3202 0.44326 0.0
H951 H 0.39033 0.36187 0.44206 0.0
H952 H 0.35506 0.33919 0.39759 0.0
H953 H 0.37986 0.29721 0.39875 0.0
H954 H 0.37964 0.32397 0.36651 0.0
H955 H 0.51411 0.36245 0.34588 0.0
H956 H 0.54147 0.30295 0.35725 0.0
H957 H 0.44866 0.27735 0.41034 0.0
C958 C 0.39339 0.41277 0.39319 0.0
C959 C 0.40264 0.44698 0.38185 0.0
C960 C 0.43374 0.45 0.36427 0.0
C961 C 0.45569 0.41972 0.35859 0.0
C962 C 0.44636 0.38656 0.37078 0.0
C963 C 0.41586 0.38299 0.3877 0.0
C964 C 0.41382 0.34561 0.40086 0.0
C965 C 0.41473 0.34775 0.43379 0.0
C966 C 0.38009 0.3253 0.39028 0.0
C967 C 0.44816 0.32885 0.38911 0.0
C968 C 0.46641 0.35261 0.37149 0.0
C969 C 0.49979 0.34352 0.3594 0.0
C970 C 0.51512 0.30959 0.36593 0.0
C971 C 0.4973 0.28531 0.38466 0.0
C972 C 0.46304 0.29508 0.39584 0.0
H973 H 0.10992 0.37266 0.41159 0.0
H974 H 0.04739 0.44055 0.35423 0.0
H975 H 0.10211 0.4767 0.34387 0.0
H976 H 0.15887 0.44299 0.44245 0.0
H977 H 0.2004 0.4179 0.44639 0.0
H978 H 0.15779 0.39446 0.44608 0.0
H979 H 0.17997 0.35438 0.40406 0.0
H980 H 0.22279 0.37766 0.4043 0.0
H981 H 0.19651 0.37545 0.37184 0.0
H982 H 0.16312 0.50909 0.34328 0.0
H983 H 0.22346 0.53513 0.35369 0.0
H984 H 0.24508 0.44635 0.412 0.0
C985 C 0.1079 0.39446 0.39619 0.0
C986 C 0.07433 0.4034 0.38344 0.0
C987 C 0.0728 0.43293 0.36411 0.0
C988 C 0.10379 0.45363 0.35805 0.0
C989 C 0.13627 0.44461 0.37153 0.0
C990 C 0.13847 0.41563 0.39018 0.0
C991 C 0.17558 0.41345 0.40388 0.0
C992 C 0.17299 0.41745 0.43663 0.0
C993 C 0.19485 0.37813 0.39551 0.0
C994 C 0.19377 0.44598 0.39041 0.0
C995 C 0.1709 0.46348 0.37158 0.0
C996 C 0.18136 0.49531 0.35775 0.0
C997 C 0.21577 0.50991 0.36375 0.0
C998 C 0.23925 0.49286 0.3836 0.0
C999 C 0.22806 0.46007 0.39656 0.0
H1000 H 0.38266 0.11431 0.9187 0.0
H1001 H 0.43791 0.05364 0.85224 0.0
H1002 H 0.47533 0.10723 0.84122 0.0
H1003 H 0.38299 0.20251 0.88225 0.0
H1004 H 0.39076 0.22656 0.91525 0.0
H1005 H 0.36611 0.18455 0.91553 0.0
H1006 H 0.41123 0.15857 0.95278 0.0
H1007 H 0.43613 0.20032 0.9525 0.0
H1008 H 0.45893 0.15834 0.94476 0.0
H1009 H 0.51165 0.16696 0.84124 0.0
H1010 H 0.54066 0.22619 0.85171 0.0
H1011 H 0.45943 0.24618 0.91695 0.0
C1012 C 0.40202 0.1124 0.90137 0.0
C1013 C 0.40714 0.07964 0.88635 0.0
C1014 C 0.43326 0.07841 0.86407 0.0
C1015 C 0.45473 0.10876 0.85763 0.0
C1016 C 0.44963 0.14035 0.87345 0.0
C1017 C 0.42358 0.14234 0.89467 0.0
C1018 C 0.42462 0.17843 0.9098 0.0
C1019 C 0.38901 0.19924 0.90543 0.0
C1020 C 0.43325 0.17361 0.94184 0.0
C1021 C 0.4556 0.19633 0.89412 0.0
C1022 C 0.46986 0.17422 0.87318 0.0
C1023 C 0.50027 0.18467 0.85734 0.0
C1024 C 0.5166 0.21837 0.86338 0.0
C1025 C 0.50245 0.2411 0.88508 0.0
C1026 C 0.47111 0.22983 0.90008 0.0
H1027 H 0.27801 0.44506 0.91377 0.0
H1028 H 0.29968 0.53197 0.85377 0.0
H1029 H 0.35839 0.50341 0.84173 0.0
H1030 H 0.36445 0.43988 0.94175 0.0
H1031 H 0.36457 0.39148 0.9463 0.0
H1032 H 0.32251 0.4159 0.94696 0.0
H1033 H 0.29768 0.37532 0.90617 0.0
H1034 H 0.33981 0.35072 0.90538 0.0
H1035 H 0.32267 0.37142 0.87318 0.0
H1036 H 0.4181 0.46964 0.84134 0.0
H1037 H 0.47288 0.43373 0.85209 0.0
H1038 H 0.4115 0.36835 0.91176 0.0
C1039 C 0.29464 0.45782 0.8976 0.0
C1040 C 0.28404 0.49085 0.88466 0.0
C1041 C 0.30696 0.50662 0.86384 0.0
C1042 C 0.34039 0.49054 0.85688 0.0
C1043 C 0.35035 0.45851 0.87069 0.0
C1044 C 0.32793 0.4422 0.89046 0.0
C1045 C 0.34591 0.40957 0.90408 0.0
C1046 C 0.34958 0.41453 0.93669 0.0
C1047 C 0.32529 0.37469 0.89675 0.0
C1048 C 0.38247 0.41049 0.88948 0.0
C1049 C 0.38443 0.43876 0.87013 0.0
C1050 C 0.41656 0.44702 0.85598 0.0
C1051 C 0.44755 0.42646 0.86222 0.0
C1052 C 0.44631 0.39782 0.88236 0.0
C1053 C 0.41304 0.38929 0.8956 0.0
H1054 H 0.07413 0.27486 0.91777 0.0
H1055 H 0.98711 0.29637 0.85776 0.0
H1056 H 0.01451 0.356 0.84681 0.0
H1057 H 0.07925 0.36201 0.94657 0.0
H1058 H 0.12772 0.36187 0.95074 0.0
H1059 H 0.10312 0.31993 0.95155 0.0
H1060 H 0.1431 0.29496 0.91045 0.0
H1061 H 0.16787 0.33691 0.90955 0.0
H1062 H 0.14667 0.31999 0.87747 0.0
H1063 H 0.04821 0.41676 0.84706 0.0
H1064 H 0.08604 0.47073 0.85658 0.0
H1065 H 0.15208 0.40793 0.91499 0.0
C1066 C 0.06103 0.29174 0.9019 0.0
C1067 C 0.02834 0.28068 0.88859 0.0
C1068 C 1.01223 0.30391 0.86809 0.0
C1069 C 0.0276 0.33794 0.86181 0.0
C1070 C 0.05937 0.34827 0.87592 0.0
C1071 C 0.07607 0.32554 0.89531 0.0
C1072 C 0.109 0.34337 0.90866 0.0
C1073 C 0.10448 0.347 0.9413 0.0
C1074 C 0.14372 0.32256 0.90107 0.0
C1075 C 0.10807 0.38003 0.89416 0.0
C1076 C 0.07922 0.38245 0.87537 0.0
C1077 C 0.07124 0.41479 0.86128 0.0
C1078 C 0.09291 0.44535 0.86681 0.0
C1079 C 0.12257 0.44347 0.88603 0.0
C1080 C 0.1304 0.41006 0.89947 0.0
H1081 H 0.2546 0.07694 0.91316 0.0
H1082 H 0.22414 0.9854 0.86022 0.0
H1083 H 0.16362 1.01263 0.85303 0.0
H1084 H 0.17225 0.08309 0.94938 0.0
H1085 H 0.17197 0.13172 0.95202 0.0
H1086 H 0.21428 0.1078 0.94973 0.0
H1087 H 0.23225 0.14588 0.90544 0.0
H1088 H 0.18993 0.17002 0.90761 0.0
H1089 H 0.20246 0.14741 0.87488 0.0
H1090 H 0.10503 0.04683 0.85519 0.0
H1091 H 0.05189 0.08381 0.86776 0.0
H1092 H 0.11943 0.15297 0.92041 0.0
C1093 C 0.23561 0.06304 0.89936 0.0
C1094 C 0.24444 0.02918 0.88683 0.0
C1095 C 0.21823 1.01145 0.86977 0.0
C1096 C 0.18379 0.02678 0.86554 0.0
C1097 C 0.17583 0.05981 0.87864 0.0
C1098 C 0.20098 0.07773 0.89525 0.0
C1099 C 0.18455 0.11111 0.90915 0.0
C1100 C 0.18584 0.10824 0.94201 0.0
C1101 C 0.20343 0.14565 0.89863 0.0
C1102 C 0.14598 0.10897 0.89812 0.0
C1103 C 0.14173 0.07933 0.88032 0.0
C1104 C 0.10819 0.07029 0.86882 0.0
C1105 C 0.07813 0.09149 0.87614 0.0
C1106 C 0.08149 0.1215 0.89489 0.0
C1107 C 0.11612 0.13075 0.90554 0.0
H1108 H 0.96001 0.9563 0.61742 0.0
H1109 H 0.85468 0.92387 0.6487 0.0
H1110 H 0.87853 0.86268 0.65924 0.0
H1111 H 0.97744 0.8757 0.58069 0.0
H1112 H 0.02536 0.87456 0.58783 0.0
H1113 H 1.00182 0.91715 0.58699 0.0
H1114 H 0.02481 0.93163 0.6381 0.0
H1115 H 0.04844 0.88896 0.63911 0.0
H1116 H 0.01628 0.90011 0.66674 0.0
H1117 H 0.91161 0.804 0.66188 0.0
H1118 H 0.95033 0.75058 0.65407 0.0
H1119 H 0.0348 0.81943 0.61985 0.0
C1120 C 0.94245 0.93653 0.62737 0.0
C1121 C 0.9058 0.94484 0.63309 0.0
C1122 C 0.88299 0.91805 0.64482 0.0
C1123 C 0.89635 0.88332 0.65086 0.0
C1124 C 0.93253 0.87568 0.64471 0.0
C1125 C 0.95529 0.90144 0.63311 0.0
C1126 C 0.99186 0.88502 0.62566 0.0
C1127 C 0.99955 0.8883 0.59338 0.0
C1128 C 0.02214 0.90248 0.64347 0.0
C1129 C 0.98588 0.84588 0.63439 0.0
C1130 C 0.95158 0.84131 0.64567 0.0
C1131 C 0.93868 0.80734 0.65348 0.0
C1132 C 0.96091 0.77713 0.64898 0.0
C1133 C 0.9958 0.78082 0.63676 0.0
C1134 C 1.00871 0.81585 0.63 0.0
H1135 H 0.57551 0.9557 0.61029 0.0
H1136 H 0.6104 0.84866 0.63656 0.0
H1137 H 0.67049 0.87314 0.64905 0.0
H1138 H 0.65664 0.97959 0.57632 0.0
H1139 H 0.65659 0.0265 0.58689 0.0
H1140 H 0.61452 1.00249 0.58358 0.0
H1141 H 0.59729 0.01849 0.63537 0.0
H1142 H 0.63903 0.04324 0.63923 0.0
H1143 H 0.62798 1.0077 0.66413 0.0
H1144 H 0.72765 0.90759 0.6557 0.0
H1145 H 0.78007 0.94843 0.65186 0.0
H1146 H 0.71012 0.03381 0.62035 0.0
C1147 C 0.59561 0.93759 0.61919 0.0
C1148 C 0.58807 0.90023 0.62274 0.0
C1149 C 0.61545 0.87729 0.63372 0.0
C1150 C 0.64961 0.89103 0.64105 0.0
C1151 C 0.65626 0.92782 0.63717 0.0
C1152 C 0.63019 0.95082 0.62629 0.0
C1153 C 0.64556 0.98862 0.62192 0.0
C1154 C 0.64323 0.99993 0.59028 0.0
C1155 C 0.62631 0.01614 0.64132 0.0
C1156 C 0.68457 0.98298 0.63132 0.0
C1157 C 0.68981 0.94782 0.64055 0.0
C1158 C 0.72377 0.93527 0.64884 0.0
C1159 C 0.7534 0.95875 0.64669 0.0
C1160 C 0.74916 0.99449 0.63627 0.0
C1161 C 0.71404 1.00703 0.62922 0.0
H1162 H 0.57626 0.74758 0.60258 0.0
H1163 H 0.49399 0.72934 0.6672 0.0
H1164 H 0.52084 0.6693 0.67747 0.0
H1165 H 0.57679 0.66005 0.5746 0.0
H1166 H 0.6248 0.65857 0.56799 0.0
H1167 H 0.60143 0.70127 0.56798 0.0
H1168 H 0.64536 0.7256 0.60673 0.0
H1169 H 0.66898 0.68293 0.60679 0.0
H1170 H 0.65097 0.70092 0.63971 0.0
H1171 H 0.55274 0.60799 0.67634 0.0
H1172 H 0.58826 0.55281 0.66581 0.0
H1173 H 0.6509 0.61221 0.6031 0.0
C1174 C 0.56417 0.73134 0.61932 0.0
C1175 C 0.53291 0.74343 0.63413 0.0
C1176 C 0.51802 0.721 0.65571 0.0
C1177 C 0.53308 0.68675 0.66161 0.0
C1178 C 0.56331 0.67538 0.64603 0.0
C1179 C 0.57892 0.69728 0.62555 0.0
C1180 C 0.61015 0.67826 0.61072 0.0
C1181 C 0.60284 0.67431 0.57842 0.0
C1182 C 0.64599 0.69811 0.61633 0.0
C1183 C 0.60939 0.64187 0.62564 0.0
C1184 C 0.58217 0.64068 0.64594 0.0
C1185 C 0.57451 0.60894 0.66089 0.0
C1186 C 0.59483 0.57768 0.65474 0.0
C1187 C 0.62282 0.57826 0.63399 0.0
C1188 C 0.63041 0.61107 0.61963 0.0
H1189 H 0.9124 0.64753 0.60652 0.0
H1190 H 0.97047 0.58905 0.67272 0.0
H1191 H 0.91576 0.55207 0.68178 0.0
H1192 H 0.82216 0.64596 0.6403 0.0
H1193 H 0.79984 0.63968 0.60634 0.0
H1194 H 0.84178 0.6644 0.60815 0.0
H1195 H 0.86977 0.62115 0.57049 0.0
H1196 H 0.82812 0.59615 0.56872 0.0
H1197 H 0.86979 0.57313 0.57714 0.0
H1198 H 0.85583 0.51716 0.67971 0.0
H1199 H 0.79747 0.48851 0.66714 0.0
H1200 H 0.78032 0.56998 0.60165 0.0
C1201 C 0.91357 0.62755 0.62344 0.0
C1202 C 0.94589 0.62139 0.63899 0.0
C1203 C 0.94606 0.59456 0.66066 0.0
C1204 C 0.91508 0.57336 0.6659 0.0
C1205 C 0.88408 0.57943 0.64943 0.0
C1206 C 0.88314 0.60615 0.62878 0.0
C1207 C 0.84779 0.60571 0.61237 0.0
C1208 C 0.82664 0.64104 0.61709 0.0
C1209 C 0.85428 0.5986 0.5803 0.0
C1210 C 0.82909 0.57404 0.62652 0.0
C1211 C 0.85017 0.55937 0.64804 0.0
C1212 C 0.83902 0.52876 0.66311 0.0
C1213 C 0.80577 0.51263 0.65578 0.0
C1214 C 0.78408 0.52692 0.6334 0.0
C1215 C 0.79595 0.55838 0.61898 0.0
H1216 H 0.67834 0.15225 0.05057 0.0
H1217 H 0.60044 0.16684 0.11903 0.0
H1218 H 0.57056 0.21532 0.09125 0.0
H1219 H 0.68388 0.24773 0.02756 0.0
H1220 H 0.68643 0.23585 0.9902 0.0
H1221 H 0.70429 0.20551 0.01688 0.0
H1222 H 0.66384 0.15411 0.99711 0.0
H1223 H 0.6456 0.18426 0.97052 0.0
H1224 H 0.61562 0.16089 0.99465 0.0
H1225 H 0.54722 0.26016 0.05495 0.0
H1226 H 0.53058 0.29591 0.01228 0.0
H1227 H 0.62163 0.24987 0.96622 0.0
C1228 C 0.65558 0.16633 0.06004 0.0
C1229 C 0.64208 0.15616 0.08723 0.0
C1230 C 0.61147 0.1744 0.09842 0.0
C1231 C 0.59434 0.202 0.08278 0.0
C1232 C 0.60788 0.21089 0.05583 0.0
C1233 C 0.63778 0.19355 0.0445 0.0
C1234 C 0.6451 0.20614 0.01412 0.0
C1235 C 0.68212 0.22493 0.01208 0.0
C1236 C 0.64236 0.17446 0.99286 0.0
C1237 C 0.61437 0.23291 1.00999 0.0
C1238 C 0.59354 0.23563 0.03445 0.0
C1239 C 0.56341 0.25831 0.03572 0.0
C1240 C 0.55416 0.27854 1.01133 0.0
C1241 C 0.57462 0.27567 0.98576 0.0
C1242 C 0.60528 0.25262 0.98533 0.0
H1243 H 0.28326 0.60893 0.96625 0.0
H1244 H 0.23152 0.52431 0.01584 0.0
H1245 H 0.26553 0.54399 0.05874 0.0
H1246 H 0.37074 0.60303 0.99947 0.0
H1247 H 0.37861 0.65111 0.99845 0.0
H1248 H 0.3501 0.63025 0.9719 0.0
H1249 H 0.29815 0.67433 0.98535 0.0
H1250 H 0.32655 0.69502 0.0121 0.0
H1251 H 0.28308 0.67685 0.02199 0.0
H1252 H 0.30819 0.57104 0.09579 0.0
H1253 H 0.35409 0.60433 0.124 0.0
H1254 H 0.37531 0.67347 0.05099 0.0
C1255 C 0.27904 0.59444 0.9861 0.0
C1256 C 0.25474 0.56482 0.98752 0.0
C1257 C 0.24992 0.54697 0.01409 0.0
C1258 C 0.26916 0.55799 0.03861 0.0
C1259 C 0.29289 0.58722 0.03641 0.0
C1260 C 0.29773 0.60532 1.01084 0.0
C1261 C 0.32486 0.63588 0.01413 0.0
C1262 C 0.35803 0.62968 0.99485 0.0
C1263 C 0.30709 0.6727 1.00803 0.0
C1264 C 0.3347 0.6321 0.04553 0.0
C1265 C 0.31616 0.60371 0.05797 0.0
C1266 C 0.32241 0.59363 0.08633 0.0
C1267 C 0.3485 0.61274 0.10223 0.0
C1268 C 0.36773 0.64201 0.08996 0.0
C1269 C 0.3603 0.65195 0.06128 0.0
H1270 H 0.92403 0.37108 0.08884 0.0
H1271 H 0.80937 0.35456 0.0731 0.0
H1272 H 0.82384 0.3063 0.03879 0.0
H1273 H 0.95191 0.36047 0.01798 0.0
H1274 H 0.99338 0.33669 0.02564 0.0
H1275 H 0.97459 0.3672 0.05173 0.0
H1276 H 0.97395 0.31594 0.08947 0.0
H1277 H 0.99303 0.28525 0.06354 0.0
H1278 H 0.95133 0.27396 0.08141 0.0
H1279 H 0.84973 0.26726 1.00123 0.0
H1280 H 0.88601 0.23476 0.9653 0.0
H1281 H 0.98469 0.27084 1.00648 0.0
C1282 C 0.90197 0.3565 0.07887 0.0
C1283 C 0.86548 0.36654 0.084 0.0
C1284 C 0.83749 0.34739 0.0698 0.0
C1285 C 0.84543 0.31986 0.05019 0.0
C1286 C 0.88154 0.31135 0.04503 0.0
C1287 C 0.90945 0.32864 0.05917 0.0
C1288 C 0.94594 0.31545 0.04818 0.0
C1289 C 0.96773 0.34681 0.03511 0.0
C1290 C 0.96733 0.29652 0.07208 0.0
C1291 C 0.93406 0.28865 0.02529 0.0
C1292 C 0.89671 0.28701 0.02389 0.0
C1293 C 0.87896 0.26736 1.00271 0.0
C1294 C 0.89979 0.24886 0.98243 0.0
C1295 C 0.93803 0.24913 0.98377 0.0
C1296 C 0.95546 0.26911 1.00564 0.0
H1297 H 0.23768 0.98595 0.98451 0.0
H1298 H 0.30352 0.88914 0.97766 0.0
H1299 H 0.27036 0.86192 0.01806 0.0
H1300 H 0.22737 0.98506 0.06285 0.0
H1301 H 0.18087 0.99972 0.06177 0.0
H1302 H 0.21175 0.01334 0.03394 0.0
H1303 H 0.16899 0.98629 0.99534 0.0
H1304 H 0.13809 0.97373 0.02337 0.0
H1305 H 0.15443 0.93993 0.99869 0.0
H1306 H 0.22931 0.84427 0.05828 0.0
H1307 H 0.17957 0.83493 0.09254 0.0
H1308 H 0.13697 0.9413 0.07198 0.0
C1309 C 0.24535 0.95923 0.99181 0.0
C1310 C 0.27342 0.93977 0.97804 0.0
C1311 C 0.28218 0.90456 0.98784 0.0
C1312 C 0.26359 0.88892 1.01089 0.0
C1313 C 0.2359 0.90859 0.02385 0.0
C1314 C 0.22648 0.94282 0.01453 0.0
C1315 C 0.19397 0.95696 0.03104 0.0
C1316 C 0.20411 0.99078 0.04843 0.0
C1317 C 0.16199 0.96465 1.01087 0.0
C1318 C 0.18616 0.92505 0.05059 0.0
C1319 C 0.21121 0.8978 0.04647 0.0
C1320 C 0.2096 0.86549 0.06176 0.0
C1321 C 0.18125 0.86051 0.08134 0.0
C1322 C 0.15431 0.8874 0.08523 0.0
C1323 C 0.15722 0.92029 0.06977 0.0
H1324 H 0.18807 0.86269 0.46735 0.0
H1325 H 0.09819 0.86488 0.40747 0.0
H1326 H 0.06573 0.82032 0.4371 0.0
H1327 H 0.1817 0.76552 0.48591 0.0
H1328 H 0.1927 0.77336 0.52299 0.0
H1329 H 0.21054 0.80285 0.49573 0.0
H1330 H 0.18316 0.85809 0.52191 0.0
H1331 H 0.16495 0.8289 0.54915 0.0
H1332 H 0.13539 0.85892 0.52971 0.0
H1333 H 0.04063 0.7798 0.47499 0.0
H1334 H 0.0253 0.74406 0.51777 0.0
H1335 H 0.13126 0.76698 0.55364 0.0
C1336 C 0.16197 0.85308 0.46004 0.0
C1337 C 0.14592 0.8671 0.43478 0.0
C1338 C 0.11128 0.85442 0.42649 0.0
C1339 C 0.09256 0.82911 0.44325 0.0
C1340 C 0.10876 0.81651 0.46829 0.0
C1341 C 0.14281 0.82779 0.4766 0.0
C1342 C 0.15316 0.81141 0.50532 0.0
C1343 C 0.1865 0.78682 0.50229 0.0
C1344 C 0.15953 0.8411 0.52785 0.0
C1345 C 0.11938 0.78957 0.51202 0.0
C1346 C 0.0942 0.79291 0.49029 0.0
C1347 C 0.06028 0.77668 0.492 0.0
C1348 C 0.05177 0.75651 0.51651 0.0
C1349 C 0.07703 0.75251 0.53915 0.0
C1350 C 0.11145 0.76914 0.53664 0.0
H1351 H 0.74052 0.04438 0.53525 0.0
H1352 H 0.80736 0.13977 0.54686 0.0
H1353 H 0.77485 0.1703 0.50773 0.0
H1354 H 0.73125 0.05153 0.45644 0.0
H1355 H 0.68462 0.03726 0.45655 0.0
H1356 H 0.71522 0.02108 0.48375 0.0
H1357 H 0.67198 0.04488 0.52304 0.0
H1358 H 0.64145 0.06124 0.49593 0.0
H1359 H 0.6586 0.09179 0.52277 0.0
H1360 H 0.73261 0.19275 0.47067 0.0
H1361 H 0.68212 0.20626 0.43791 0.0
H1362 H 0.64144 0.09707 0.44887 0.0
C1363 C 0.74861 0.07145 0.52917 0.0
C1364 C 0.77654 0.08968 0.54412 0.0
C1365 C 0.78594 0.12534 0.53588 0.0
C1366 C 0.76775 0.14287 0.51354 0.0
C1367 C 0.74 0.12454 0.49955 0.0
C1368 C 0.73032 0.08965 0.50696 0.0
C1369 C 0.69786 0.07725 0.48947 0.0
C1370 C 0.70785 0.04486 0.47042 0.0
C1371 C 0.66558 0.06827 0.50899 0.0
C1372 C 0.69052 0.11085 0.47159 0.0
C1373 C 0.71545 0.13762 0.47768 0.0
C1374 C 0.71323 0.17186 0.46539 0.0
C1375 C 0.68442 0.17929 0.44678 0.0
C1376 C 0.65812 0.15261 0.44044 0.0
C1377 C 0.66166 0.11771 0.45268 0.0
H1378 H 0.48602 0.74887 0.52106 0.0
H1379 H 0.38678 0.78887 0.55901 0.0
H1380 H 0.35105 0.75523 0.52322 0.0
H1381 H 0.4557 0.74425 0.44599 0.0
H1382 H 0.47795 0.70172 0.43915 0.0
H1383 H 0.49636 0.73259 0.46524 0.0
H1384 H 0.49423 0.68222 0.50375 0.0
H1385 H 0.47597 0.65122 0.47778 0.0
H1386 H 0.45208 0.6594 0.51077 0.0
H1387 H 0.32589 0.71585 0.48542 0.0
H1388 H 0.31184 0.66782 0.45083 0.0
H1389 H 0.42674 0.64816 0.43863 0.0
C1390 C 0.4568 0.75101 0.5213 0.0
C1391 C 0.439 0.77226 0.54218 0.0
C1392 C 0.40078 0.77341 0.54273 0.0
C1393 C 0.3803 0.75439 0.52251 0.0
C1394 C 0.39845 0.73354 0.50224 0.0
C1395 C 0.43579 0.73113 0.50169 0.0
C1396 C 0.44805 0.70354 0.47954 0.0
C1397 C 0.47087 0.72162 0.45608 0.0
C1398 C 0.4688 0.67225 0.49381 0.0
C1399 C 0.41177 0.69092 0.46786 0.0
C1400 C 0.38366 0.70907 0.48106 0.0
C1401 C 0.34764 0.70154 0.47481 0.0
C1402 C 0.33996 0.67414 0.45504 0.0
C1403 C 0.36812 0.65417 0.44177 0.0
C1404 C 0.40457 0.66323 0.44799 0.0
H1405 H 0.87033 0.34376 0.46801 0.0
H1406 H 0.85238 0.41886 0.39812 0.0
H1407 H 0.80515 0.44976 0.42662 0.0
H1408 H 0.77586 0.33907 0.49383 0.0
H1409 H 0.7895 0.33778 0.53085 0.0
H1410 H 0.81857 0.31899 0.50368 0.0
H1411 H 0.87092 0.35997 0.52107 0.0
H1412 H 0.84203 0.37917 0.54811 0.0
H1413 H 0.86428 0.40825 0.52267 0.0
H1414 H 0.76175 0.47434 0.46379 0.0
H1415 H 0.72767 0.49216 0.50703 0.0
H1416 H 0.77641 0.40315 0.55379 0.0
C1417 C 0.85575 0.36608 0.45837 0.0
C1418 C 0.86462 0.37847 0.43055 0.0
C1419 C 0.84578 0.4086 0.41919 0.0
C1420 C 0.8189 0.42633 0.43525 0.0
C1421 C 0.81133 0.41387 0.4628 0.0
C1422 C 0.82925 0.38444 0.47429 0.0
C1423 C 0.8181 0.3782 0.50518 0.0
C1424 C 0.7994 0.34132 0.50857 0.0
C1425 C 0.85078 0.38161 0.52544 0.0
C1426 C 0.79151 0.40906 0.50944 0.0
C1427 C 0.78758 0.42897 0.4846 0.0
C1428 C 0.7646 0.45887 0.48332 0.0
C1429 C 0.74532 0.4688 0.50805 0.0
C1430 C 0.74941 0.44927 0.53396 0.0
C1431 C 0.77278 0.41886 0.53444 0.0
H1432 H 0.42349 0.79208 0.0586 0.0
H1433 H 0.4709 0.70924 1.00448 0.0
H1434 H 0.45052 0.74289 0.96149 0.0
H1435 H 0.34495 0.8116 0.01357 0.0
H1436 H 0.34652 0.85927 0.02153 0.0
H1437 H 0.36221 0.82694 0.04758 0.0
H1438 H 0.42508 0.85904 0.04956 0.0
H1439 H 0.40803 0.89166 0.02451 0.0
H1440 H 0.44905 0.86717 0.01658 0.0
H1441 H 0.42618 0.78775 0.92416 0.0
H1442 H 0.40431 0.8412 0.89675 0.0
H1443 H 0.3753 0.89415 0.97613 0.0
C1444 C 0.42939 0.78071 0.03775 0.0
C1445 C 0.44884 0.74797 0.03495 0.0
C1446 C 0.45614 0.73432 1.00719 0.0
C1447 C 0.44449 0.75316 0.98266 0.0
C1448 C 0.42557 0.78555 0.98627 0.0
C1449 C 0.41821 0.79916 0.01321 0.0
C1450 C 0.39929 0.83539 1.01161 0.0
C1451 C 0.36097 0.83313 0.02432 0.0
C1452 C 0.42174 0.86505 0.02641 0.0
C1453 C 0.39798 0.84067 0.97955 0.0
C1454 C 0.41257 0.8114 0.96514 0.0
C1455 C 0.41458 0.81068 0.93526 0.0
C1456 C 0.40203 0.84094 0.91986 0.0
C1457 C 0.38825 0.87143 0.9345 0.0
C1458 C 0.38582 0.87102 0.96458 0.0
H1459 H 0.6529 0.35152 0.97128 0.0
H1460 H 0.66734 0.42734 0.90144 0.0
H1461 H 0.71459 0.45914 0.92922 0.0
H1462 H 0.65808 0.41616 0.02552 0.0
H1463 H 0.68147 0.38785 0.05092 0.0
H1464 H 0.65279 0.36771 0.02417 0.0
H1465 H 0.70602 0.32797 1.00655 0.0
H1466 H 0.73494 0.34769 0.03342 0.0
H1467 H 0.74801 0.3491 0.99629 0.0
H1468 H 0.75775 0.4848 0.96575 0.0
H1469 H 0.79191 0.50359 1.0088 0.0
H1470 H 0.74632 0.41331 0.05587 0.0
C1471 C 0.66683 0.37414 0.96153 0.0
C1472 C 0.65699 0.38663 0.93402 0.0
C1473 C 0.6748 0.41715 0.92236 0.0
C1474 C 0.70166 0.43534 0.93797 0.0
C1475 C 0.71012 0.42292 0.96534 0.0
C1476 C 0.69322 0.39303 0.97705 0.0
C1477 C 0.70486 0.3872 1.00782 0.0
C1478 C 0.67236 0.38991 0.0283 0.0
C1479 C 0.72463 0.35083 1.01121 0.0
C1480 C 0.73053 0.41877 1.01172 0.0
C1481 C 0.73364 0.43872 0.98685 0.0
C1482 C 0.75561 0.46932 0.98533 0.0
C1483 C 0.77487 0.47982 1.00989 0.0
C1484 C 0.77155 0.46014 0.03576 0.0
C1485 C 0.74914 0.42916 0.0365 0.0
H1486 H 0.04514 0.73861 0.03261 0.0
H1487 H 0.14029 0.80614 0.04289 0.0
H1488 H 0.17065 0.77315 1.00399 0.0
H1489 H 0.09251 0.65717 0.02124 0.0
H1490 H 0.062 0.6391 0.99476 0.0
H1491 H 0.04554 0.67039 0.02124 0.0
H1492 H 0.02161 0.71233 0.98109 0.0
H1493 H 0.03794 0.68095 0.95452 0.0
H1494 H 0.05205 0.72759 0.95349 0.0
H1495 H 0.1934 0.72983 0.968 0.0
H1496 H 0.20726 0.67811 0.93655 0.0
H1497 H 0.098 0.63775 0.94794 0.0
C1498 C 0.07203 0.74688 0.02617 0.0
C1499 C 0.0903 0.77507 0.04075 0.0
C1500 C 0.1258 0.78461 0.03213 0.0
C1501 C 0.14324 0.76613 1.00993 0.0
C1502 C 0.12494 0.73805 0.99639 0.0
C1503 C 0.09011 0.72838 1.00404 0.0
C1504 C 0.07785 0.69536 0.9872 0.0
C1505 C 0.06897 0.66365 1.00733 0.0
C1506 C 0.04544 0.70462 0.96793 0.0
C1507 C 0.11152 0.68764 0.96952 0.0
C1508 C 0.13817 0.71287 0.97507 0.0
C1509 C 0.17257 0.71024 0.96306 0.0
C1510 C 0.18022 0.68074 0.94524 0.0
C1511 C 0.15358 0.65423 0.9394 0.0
C1512 C 0.11858 0.65814 0.95136 0.0
H1513 H 0.77331 0.11704 0.05341 0.0
H1514 H 0.72522 0.02824 1.00607 0.0
H1515 H 0.76079 0.04569 0.96333 0.0
H1516 H 0.7764 0.18129 0.99365 0.0
H1517 H 0.81904 0.20016 1.00496 0.0
H1518 H 0.78814 0.18201 0.03109 0.0
H1519 H 0.83842 0.13918 0.04992 0.0
H1520 H 0.86939 0.15745 0.02401 0.0
H1521 H 0.86122 0.10942 0.02522 0.0
H1522 H 0.8068 0.06939 0.92729 0.0
H1523 H 0.85683 0.09876 0.90076 0.0
H1524 H 0.87251 0.17326 0.97122 0.0
C1525 C 0.76995 0.10137 0.034 0.0
C1526 C 0.74653 0.07109 0.03319 0.0
C1527 C 0.7429 0.05154 1.00726 0.0
C1528 C 0.76302 0.06127 0.98286 0.0
C1529 C 0.78625 0.09098 0.98457 0.0
C1530 C 0.78948 0.11094 1.00945 0.0
C1531 C 0.81707 0.14099 1.00612 0.0
C1532 C 0.79908 0.17832 1.00913 0.0
C1533 C 0.84837 0.13647 0.02759 0.0
C1534 C 0.82957 0.13437 0.97568 0.0
C1535 C 0.81148 0.10543 0.96355 0.0
C1536 C 0.82054 0.09253 0.93639 0.0
C1537 C 0.84896 0.10937 0.92146 0.0
C1538 C 0.86777 0.13906 0.93353 0.0
C1539 C 0.85756 0.15181 0.96087 0.0
H1540 H 0.93847 0.22923 0.46521 0.0
H1541 H 0.95652 0.32472 0.51723 0.0
H1542 H 0.93397 0.29146 0.55988 0.0
H1543 H 0.8568 0.19893 0.5001 0.0
H1544 H 0.86862 0.15184 0.49674 0.0
H1545 H 0.88441 0.18393 0.47058 0.0
H1546 H 0.9508 0.16408 0.48003 0.0
H1547 H 0.93497 0.13175 0.5059 0.0
H1548 H 0.96818 0.16504 0.51609 0.0
H1549 H 0.90826 0.24574 0.59715 0.0
H1550 H 0.8886 0.19165 0.62493 0.0
H1551 H 0.89122 0.12759 0.54735 0.0
C1552 C 0.93759 0.24338 0.4855 0.0
C1553 C 0.9492 0.27964 0.48787 0.0
C1554 C 0.94793 0.29687 0.51496 0.0
C1555 C 0.93493 0.27825 0.53922 0.0
C1556 C 0.92354 0.24242 0.536 0.0
C1557 C 0.92513 0.22523 0.50973 0.0
C1558 C 0.91299 0.18632 0.51167 0.0
C1559 C 0.87867 0.1799 0.49371 0.0
C1560 C 0.94357 0.16029 0.50291 0.0
C1561 C 0.90494 0.18381 0.54325 0.0
C1562 C 0.91035 0.21645 0.55705 0.0
C1563 C 0.90409 0.22011 0.58646 0.0
C1564 C 0.89281 0.18942 0.60206 0.0
C1565 C 0.88874 0.15566 0.58819 0.0
C1566 C 0.89446 0.15314 0.55845 0.0
H1567 H 0.38033 0.85317 0.554 0.0
H1568 H 0.35919 0.92463 0.62553 0.0
H1569 H 0.30943 0.95353 0.5981 0.0
H1570 H 0.36875 0.9195 0.50095 0.0
H1571 H 0.34872 0.8894 0.47505 0.0
H1572 H 0.3795 0.87194 0.50154 0.0
H1573 H 0.33088 0.82608 0.51821 0.0
H1574 H 0.29997 0.84333 0.49167 0.0
H1575 H 0.28683 0.84222 0.5288 0.0
H1576 H 0.26288 0.97573 0.56167 0.0
H1577 H 0.22677 0.99192 0.5189 0.0
H1578 H 0.28124 0.90773 0.47055 0.0
C1579 C 0.36437 0.874 0.56426 0.0
C1580 C 0.37275 0.88588 0.59225 0.0
C1581 C 0.35268 0.9147 0.60433 0.0
C1582 C 0.32441 0.93123 0.58889 0.0
C1583 C 0.31698 0.91901 0.5612 0.0
C1584 C 0.3366 0.89117 0.54896 0.0
C1585 C 0.32553 0.88508 0.51808 0.0
C1586 C 0.35752 0.8919 0.49771 0.0
C1587 C 0.30987 0.84691 0.51396 0.0
C1588 C 0.29655 0.91382 0.51476 0.0
C1589 C 0.29168 0.93287 0.53993 0.0
C1590 C 0.2665 0.96093 0.54188 0.0
C1591 C 0.24605 0.96992 0.51746 0.0
C1592 C 0.2512 0.95128 0.49125 0.0
C1593 C 0.2767 0.92269 0.49015 0.0
H1594 H 0.67577 0.37288 0.55264 0.0
H1595 H 0.60162 0.35618 0.62331 0.0
H1596 H 0.56917 0.30978 0.59495 0.0
H1597 H 0.6091 0.36845 0.49901 0.0
H1598 H 0.63745 0.34635 0.47292 0.0
H1599 H 0.65742 0.37493 0.49983 0.0
H1600 H 0.69889 0.32242 0.51621 0.0
H1601 H 0.6794 0.2936 0.48919 0.0
H1602 H 0.67905 0.2797 0.52616 0.0
H1603 H 0.54348 0.26658 0.55782 0.0
H1604 H 0.52531 0.2322 0.5147 0.0
H1605 H 0.61436 0.28018 0.4676 0.0
C1606 C 0.65331 0.35874 0.56245 0.0
C1607 C 0.64165 0.36757 0.59042 0.0
C1608 C 0.61128 0.34948 0.60207 0.0
C1609 C 0.59269 0.32312 0.5861 0.0
C1610 C 0.60451 0.31551 0.55838 0.0
C1611 C 0.63407 0.33292 0.54663 0.0
C1612 C 0.63959 0.32203 0.51566 0.0
C1613 C 0.63564 0.3549 0.49569 0.0
C1614 C 0.67642 0.30332 0.51158 0.0
C1615 C 0.60858 0.29568 0.51178 0.0
C1616 C 0.58883 0.29201 0.53671 0.0
C1617 C 0.5588 0.26924 0.5382 0.0
C1618 C 0.54867 0.24981 0.51358 0.0
C1619 C 0.56822 0.25358 0.48766 0.0
C1620 C 0.59863 0.27683 0.48697 0.0
H1621 H 0.12017 0.61737 0.54965 0.0
H1622 H 0.19288 0.64994 0.61771 0.0
H1623 H 0.24506 0.62653 0.5895 0.0
H1624 H 0.16426 0.53642 0.52846 0.0
H1625 H 0.15631 0.54325 0.49077 0.0
H1626 H 0.12541 0.5619 0.51667 0.0
H1627 H 0.13417 0.62575 0.49532 0.0
H1628 H 0.16486 0.6075 0.4691 0.0
H1629 H 0.17918 0.64404 0.492 0.0
H1630 H 0.2887 0.59583 0.55383 0.0
H1631 H 0.32042 0.56933 0.51191 0.0
H1632 H 0.21842 0.56243 0.46645 0.0
C1633 C 0.14712 0.6195 0.55866 0.0
C1634 C 0.15266 0.63492 0.58596 0.0
C1635 C 0.18823 0.63805 0.59684 0.0
C1636 C 0.21787 0.62468 0.58103 0.0
C1637 C 0.21133 0.60907 0.55422 0.0
C1638 C 0.1768 0.60722 0.54297 0.0
C1639 C 0.17673 0.59114 0.51319 0.0
C1640 C 0.15437 0.55608 0.51223 0.0
C1641 C 0.16294 0.61876 0.4911 0.0
C1642 C 0.21665 0.58362 0.5094 0.0
C1643 C 0.23624 0.59361 0.53338 0.0
C1644 C 0.27359 0.58822 0.53491 0.0
C1645 C 0.29134 0.57293 0.51114 0.0
C1646 C 0.27181 0.56393 0.48605 0.0
C1647 C 0.23401 0.56922 0.48535 0.0
loop_
_geom_bond_atom_site_label_1
_geom_bond_atom_site_label_2
_geom_bond_distance
_geom_bond_site_symmetry_2
_ccdc_geom_bond_type
Fe0 O2 1.918 1_565 S
Fe0 O5 1.997 1_565 S
Fe0 O6 2.002 . S
Fe0 O11 1.976 . S
Fe0 O14 1.996 . S
Fe1 O2 1.918 . S
Fe1 O9 1.997 . S
Fe1 O12 1.996 1_545 S
Fe1 O16 1.976 . S
Fe1 O19 2.002 . S
O2 Fe0 1.918 1_545 S
O2 Fe1 1.918 . S
O2 Fe3 1.918 . S
Fe3 O2 1.918 . S
Fe3 O4 2.002 . S
Fe3 O13 1.976 . S
Fe3 O17 1.996 . S
Fe3 O20 1.997 . S
O4 Fe3 2.002 . S
O4 C21 1.295 . S
O5 Fe0 1.997 1_545 S
O5 C21 1.235 . S
O6 Fe0 2.002 . S
O6 C7 1.295 1_565 S
C7 O6 1.295 1_545 S
C7 O9 1.235 . S
C8 O13 1.289 1_565 S
C8 O14 1.253 . S
O9 Fe1 1.997 . S
O9 C7 1.235 . S
C10 O16 1.287 . S
C10 O17 1.255 . S
O11 Fe0 1.976 . S
O11 C18 1.287 . S
O12 Fe1 1.996 1_565 S
O12 C18 1.255 . S
O13 Fe3 1.976 . S
O13 C8 1.289 1_545 S
O14 Fe0 1.996 . S
O14 C8 1.253 . S
C15 O19 1.295 . S
C15 O20 1.235 . S
O16 Fe1 1.976 . S
O16 C10 1.287 . S
O17 Fe3 1.996 . S
O17 C10 1.255 . S
C18 O11 1.287 . S
C18 O12 1.255 . S
O19 Fe1 2.002 . S
O19 C15 1.295 . S
O20 Fe3 1.997 . S
O20 C15 1.235 . S
C21 O4 1.295 . S
C21 O5 1.235 . S
Fe22 O24 1.918 . S
Fe22 O27 1.997 . S
Fe22 O28 2.002 . S
Fe22 O33 1.976 . S
Fe22 O36 1.996 . S
Fe23 O24 1.918 . S
Fe23 O31 1.997 . S
Fe23 O34 1.996 . S
Fe23 O38 1.976 . S
Fe23 O41 2.002 . S
O24 Fe22 1.918 . S
O24 Fe23 1.918 . S
O24 Fe25 1.918 . S
Fe25 O24 1.918 . S
Fe25 O26 2.002 . S
Fe25 O35 1.976 . S
Fe25 O39 1.996 . S
Fe25 O42 1.997 . S
O26 Fe25 2.002 . S
O26 C43 1.295 . S
O27 Fe22 1.997 . S
O27 C43 1.235 . S
O28 Fe22 2.002 . S
O28 C29 1.295 . S
C29 O28 1.295 . S
C29 O31 1.235 . S
C30 O35 1.287 . S
C30 O36 1.255 . S
O31 Fe23 1.997 . S
O31 C29 1.235 . S
C32 O38 1.287 . S
C32 O39 1.255 . S
O33 Fe22 1.976 . S
O33 C40 1.287 . S
O34 Fe23 1.996 . S
O34 C40 1.255 . S
O35 Fe25 1.976 . S
O35 C30 1.287 . S
O36 Fe22 1.996 . S
O36 C30 1.255 . S
C37 O41 1.295 . S
C37 O42 1.235 . S
O38 Fe23 1.976 . S
O38 C32 1.287 . S
O39 Fe25 1.996 . S
O39 C32 1.255 . S
C40 O33 1.287 . S
C40 O34 1.255 . S
O41 Fe23 2.002 . S
O41 C37 1.295 . S
O42 Fe25 1.997 . S
O42 C37 1.235 . S
C43 O26 1.295 . S
C43 O27 1.235 . S
Fe44 O46 1.918 . S
Fe44 O49 1.997 . S
Fe44 O50 2.002 . S
Fe44 O55 1.976 . S
Fe44 O58 1.996 . S
Fe45 O46 1.918 . S
Fe45 O53 1.997 . S
Fe45 O56 1.996 . S
Fe45 O60 1.976 . S
Fe45 O63 2.002 . S
O46 Fe44 1.918 . S
O46 Fe45 1.918 . S
O46 Fe47 1.918 . S
Fe47 O46 1.918 . S
Fe47 O48 2.002 . S
Fe47 O57 1.976 . S
Fe47 O61 1.996 . S
Fe47 O64 1.997 . S
O48 Fe47 2.002 . S
O48 C65 1.295 . S
O49 Fe44 1.997 . S
O49 C65 1.235 . S
O50 Fe44 2.002 . S
O50 C51 1.295 . S
C51 O50 1.295 . S
C51 O53 1.235 . S
C52 O57 1.287 . S
C52 O58 1.255 . S
O53 Fe45 1.997 . S
O53 C51 1.235 . S
C54 O60 1.287 . S
C54 O61 1.255 . S
O55 Fe44 1.976 . S
O55 C62 1.287 . S
O56 Fe45 1.996 . S
O56 C62 1.255 . S
O57 Fe47 1.976 . S
O57 C52 1.287 . S
O58 Fe44 1.996 . S
O58 C52 1.255 . S
C59 O63 1.295 . S
C59 O64 1.235 . S
O60 Fe45 1.976 . S
O60 C54 1.287 . S
O61 Fe47 1.996 . S
O61 C54 1.255 . S
C62 O55 1.287 . S
C62 O56 1.255 . S
O63 Fe45 2.002 . S
O63 C59 1.295 . S
O64 Fe47 1.997 . S
O64 C59 1.235 . S
C65 O48 1.295 . S
C65 O49 1.235 . S
Fe66 O68 1.918 1_655 S
Fe66 O71 1.997 1_655 S
Fe66 O72 2.002 . S
Fe66 O77 1.976 . S
Fe66 O80 1.996 . S
Fe67 O68 1.918 . S
Fe67 O75 1.997 . S
Fe67 O78 1.996 1_455 S
Fe67 O82 1.976 . S
Fe67 O85 2.002 . S
O68 Fe66 1.918 1_455 S
O68 Fe67 1.918 . S
O68 Fe69 1.918 . S
Fe69 O68 1.918 . S
Fe69 O70 2.002 . S
Fe69 O79 1.976 . S
Fe69 O83 1.996 . S
Fe69 O86 1.997 . S
O70 Fe69 2.002 . S
O70 C87 1.295 . S
O71 Fe66 1.997 1_455 S
O71 C87 1.235 . S
O72 Fe66 2.002 . S
O72 C73 1.295 1_655 S
C73 O72 1.295 1_455 S
C73 O75 1.235 . S
C74 O79 1.289 1_655 S
C74 O80 1.253 . S
O75 Fe67 1.997 . S
O75 C73 1.235 . S
C76 O82 1.287 . S
C76 O83 1.255 . S
O77 Fe66 1.976 . S
O77 C84 1.287 . S
O78 Fe67 1.996 1_655 S
O78 C84 1.255 . S
O79 Fe69 1.976 . S
O79 C74 1.289 1_455 S
O80 Fe66 1.996 . S
O80 C74 1.253 . S
C81 O85 1.295 . S
C81 O86 1.235 . S
O82 Fe67 1.976 . S
O82 C76 1.287 . S
O83 Fe69 1.996 . S
O83 C76 1.255 . S
C84 O77 1.287 . S
C84 O78 1.255 . S
O85 Fe67 2.002 . S
O85 C81 1.295 . S
O86 Fe69 1.997 . S
O86 C81 1.235 . S
C87 O70 1.295 . S
C87 O71 1.235 . S
Fe88 O90 1.918 1_545 S
Fe88 O93 1.997 1_545 S
Fe88 O94 2.002 . S
Fe88 O99 1.976 . S
Fe88 O102 1.996 . S
Fe89 O90 1.918 . S
Fe89 O97 1.997 . S
Fe89 O100 1.996 1_565 S
Fe89 O104 1.976 . S
Fe89 O107 2.002 . S
O90 Fe88 1.918 1_565 S
O90 Fe89 1.918 . S
O90 Fe91 1.918 . S
Fe91 O90 1.918 . S
Fe91 O92 2.002 . S
Fe91 O101 1.976 . S
Fe91 O105 1.996 . S
Fe91 O108 1.997 . S
O92 Fe91 2.002 . S
O92 C109 1.295 . S
O93 Fe88 1.997 1_565 S
O93 C109 1.235 . S
O94 Fe88 2.002 . S
O94 C95 1.295 1_545 S
C95 O94 1.295 1_565 S
C95 O97 1.235 . S
C96 O101 1.289 1_545 S
C96 O102 1.253 . S
O97 Fe89 1.997 . S
O97 C95 1.235 . S
C98 O104 1.287 . S
C98 O105 1.255 . S
O99 Fe88 1.976 . S
O99 C106 1.287 . S
O100 Fe89 1.996 1_545 S
O100 C106 1.255 . S
O101 Fe91 1.976 . S
O101 C96 1.289 1_565 S
O102 Fe88 1.996 . S
O102 C96 1.253 . S
C103 O107 1.295 . S
C103 O108 1.235 . S
O104 Fe89 1.976 . S
O104 C98 1.287 . S
O105 Fe91 1.996 . S
O105 C98 1.255 . S
C106 O99 1.287 . S
C106 O100 1.255 . S
O107 Fe89 2.002 . S
O107 C103 1.295 . S
O108 Fe91 1.997 . S
O108 C103 1.235 . S
C109 O92 1.295 . S
C109 O93 1.235 . S
Fe110 O112 1.918 . S
Fe110 O115 1.997 . S
Fe110 O116 2.002 . S
Fe110 O121 1.976 . S
Fe110 O124 1.996 . S
Fe111 O112 1.918 . S
Fe111 O119 1.997 . S
Fe111 O122 1.996 . S
Fe111 O126 1.976 . S
Fe111 O129 2.002 . S
O112 Fe110 1.918 . S
O112 Fe111 1.918 . S
O112 Fe113 1.918 . S
Fe113 O112 1.918 . S
Fe113 O114 2.002 . S
Fe113 O123 1.976 . S
Fe113 O127 1.996 . S
Fe113 O130 1.997 . S
O114 Fe113 2.002 . S
O114 C131 1.295 . S
O115 Fe110 1.997 . S
O115 C131 1.235 . S
O116 Fe110 2.002 . S
O116 C117 1.295 . S
C117 O116 1.295 . S
C117 O119 1.235 . S
C118 O123 1.287 . S
C118 O124 1.255 . S
O119 Fe111 1.997 . S
O119 C117 1.235 . S
C120 O126 1.287 . S
C120 O127 1.255 . S
O121 Fe110 1.976 . S
O121 C128 1.287 . S
O122 Fe111 1.996 . S
O122 C128 1.255 . S
O123 Fe113 1.976 . S
O123 C118 1.287 . S
O124 Fe110 1.996 . S
O124 C118 1.255 . S
C125 O129 1.295 . S
C125 O130 1.235 . S
O126 Fe111 1.976 . S
O126 C120 1.287 . S
O127 Fe113 1.996 . S
O127 C120 1.255 . S
C128 O121 1.287 . S
C128 O122 1.255 . S
O129 Fe111 2.002 . S
O129 C125 1.295 . S
O130 Fe113 1.997 . S
O130 C125 1.235 . S
C131 O114 1.295 . S
C131 O115 1.235 . S
Fe132 O134 1.918 . S
Fe132 O137 1.997 . S
Fe132 O138 2.002 . S
Fe132 O143 1.976 . S
Fe132 O146 1.996 . S
Fe133 O134 1.918 . S
Fe133 O141 1.997 . S
Fe133 O144 1.996 . S
Fe133 O148 1.976 . S
Fe133 O151 2.002 . S
O134 Fe132 1.918 . S
O134 Fe133 1.918 . S
O134 Fe135 1.918 . S
Fe135 O134 1.918 . S
Fe135 O136 2.002 . S
Fe135 O145 1.976 . S
Fe135 O149 1.996 . S
Fe135 O152 1.997 . S
O136 Fe135 2.002 . S
O136 C153 1.295 . S
O137 Fe132 1.997 . S
O137 C153 1.235 . S
O138 Fe132 2.002 . S
O138 C139 1.295 . S
C139 O138 1.295 . S
C139 O141 1.235 . S
C140 O145 1.287 . S
C140 O146 1.255 . S
O141 Fe133 1.997 . S
O141 C139 1.235 . S
C142 O148 1.287 . S
C142 O149 1.255 . S
O143 Fe132 1.976 . S
O143 C150 1.287 . S
O144 Fe133 1.996 . S
O144 C150 1.255 . S
O145 Fe135 1.976 . S
O145 C140 1.287 . S
O146 Fe132 1.996 . S
O146 C140 1.255 . S
C147 O151 1.295 . S
C147 O152 1.235 . S
O148 Fe133 1.976 . S
O148 C142 1.287 . S
O149 Fe135 1.996 . S
O149 C142 1.255 . S
C150 O143 1.287 . S
C150 O144 1.255 . S
O151 Fe133 2.002 . S
O151 C147 1.295 . S
O152 Fe135 1.997 . S
O152 C147 1.235 . S
C153 O136 1.295 . S
C153 O137 1.235 . S
Fe154 O156 1.918 . S
Fe154 O159 1.997 . S
Fe154 O160 2.002 . S
Fe154 O165 1.976 . S
Fe154 O168 1.996 1_655 S
Fe155 O156 1.918 . S
Fe155 O163 1.997 . S
Fe155 O166 1.996 . S
Fe155 O170 1.976 . S
Fe155 O173 2.002 . S
O156 Fe154 1.918 . S
O156 Fe155 1.918 . S
O156 Fe157 1.918 1_655 S
Fe157 O156 1.918 1_455 S
Fe157 O158 2.002 . S
Fe157 O167 1.976 . S
Fe157 O171 1.996 . S
Fe157 O174 1.997 1_455 S
O158 Fe157 2.002 . S
O158 C175 1.295 1_455 S
O159 Fe154 1.997 . S
O159 C175 1.235 . S
O160 Fe154 2.002 . S
O160 C161 1.295 . S
C161 O160 1.295 . S
C161 O163 1.235 . S
C162 O167 1.287 . S
C162 O168 1.255 . S
O163 Fe155 1.997 . S
O163 C161 1.235 . S
C164 O170 1.289 1_455 S
C164 O171 1.253 . S
O165 Fe154 1.976 . S
O165 C172 1.287 . S
O166 Fe155 1.996 . S
O166 C172 1.255 . S
O167 Fe157 1.976 . S
O167 C162 1.287 . S
O168 Fe154 1.996 1_455 S
O168 C162 1.255 . S
C169 O173 1.295 . S
C169 O174 1.235 . S
O170 Fe155 1.976 . S
O170 C164 1.289 1_655 S
O171 Fe157 1.996 . S
O171 C164 1.253 . S
C172 O165 1.287 . S
C172 O166 1.255 . S
O173 Fe155 2.002 . S
O173 C169 1.295 . S
O174 Fe157 1.997 1_655 S
O174 C169 1.235 . S
C175 O158 1.295 1_655 S
C175 O159 1.235 . S
Fe176 O178 1.918 . S
Fe176 O181 1.997 . S
Fe176 O182 2.002 . S
Fe176 O187 1.976 . S
Fe176 O190 1.996 . S
Fe177 O178 1.918 . S
Fe177 O185 1.997 . S
Fe177 O188 1.996 . S
Fe177 O192 1.976 1_565 S
Fe177 O195 2.002 . S
O178 Fe176 1.918 . S
O178 Fe177 1.918 . S
O178 Fe179 1.918 1_565 S
Fe179 O178 1.918 1_545 S
Fe179 O180 2.002 1_545 S
Fe179 O189 1.976 . S
Fe179 O193 1.996 . S
Fe179 O196 1.997 . S
O180 Fe179 2.002 1_565 S
O180 C197 1.295 . S
O181 Fe176 1.997 . S
O181 C197 1.235 . S
O182 Fe176 2.002 . S
O182 C183 1.295 . S
C183 O182 1.295 . S
C183 O185 1.235 . S
C184 O189 1.287 1_565 S
C184 O190 1.255 . S
O185 Fe177 1.997 . S
O185 C183 1.235 . S
C186 O192 1.287 . S
C186 O193 1.255 . S
O187 Fe176 1.976 . S
O187 C194 1.287 . S
O188 Fe177 1.996 . S
O188 C194 1.255 . S
O189 Fe179 1.976 . S
O189 C184 1.287 1_545 S
O190 Fe176 1.996 . S
O190 C184 1.255 . S
C191 O195 1.295 . S
C191 O196 1.235 1_565 S
O192 Fe177 1.976 1_545 S
O192 C186 1.287 . S
O193 Fe179 1.996 . S
O193 C186 1.255 . S
C194 O187 1.287 . S
C194 O188 1.255 . S
O195 Fe177 2.002 . S
O195 C191 1.295 . S
O196 Fe179 1.997 . S
O196 C191 1.235 1_545 S
C197 O180 1.295 . S
C197 O181 1.235 . S
Fe198 O200 1.918 . S
Fe198 O203 1.997 . S
Fe198 O204 2.002 . S
Fe198 O209 1.976 . S
Fe198 O212 1.996 . S
Fe199 O200 1.918 . S
Fe199 O207 1.997 . S
Fe199 O210 1.996 . S
Fe199 O214 1.976 . S
Fe199 O217 2.002 . S
O200 Fe198 1.918 . S
O200 Fe199 1.918 . S
O200 Fe201 1.918 . S
Fe201 O200 1.918 . S
Fe201 O202 2.002 . S
Fe201 O211 1.976 . S
Fe201 O215 1.996 . S
Fe201 O218 1.997 . S
O202 Fe201 2.002 . S
O202 C219 1.295 . S
O203 Fe198 1.997 . S
O203 C219 1.235 . S
O204 Fe198 2.002 . S
O204 C205 1.295 . S
C205 O204 1.295 . S
C205 O207 1.235 . S
C206 O211 1.287 . S
C206 O212 1.255 . S
O207 Fe199 1.997 . S
O207 C205 1.235 . S
C208 O214 1.287 . S
C208 O215 1.255 . S
O209 Fe198 1.976 . S
O209 C216 1.287 . S
O210 Fe199 1.996 . S
O210 C216 1.255 . S
O211 Fe201 1.976 . S
O211 C206 1.287 . S
O212 Fe198 1.996 . S
O212 C206 1.255 . S
C213 O217 1.295 . S
C213 O218 1.235 . S
O214 Fe199 1.976 . S
O214 C208 1.287 . S
O215 Fe201 1.996 . S
O215 C208 1.255 . S
C216 O209 1.287 . S
C216 O210 1.255 . S
O217 Fe199 2.002 . S
O217 C213 1.295 . S
O218 Fe201 1.997 . S
O218 C213 1.235 . S
C219 O202 1.295 . S
C219 O203 1.235 . S
Fe220 O222 1.918 . S
Fe220 O225 1.997 . S
Fe220 O226 2.002 . S
Fe220 O231 1.976 . S
Fe220 O234 1.996 . S
Fe221 O222 1.918 . S
Fe221 O229 1.997 . S
Fe221 O232 1.996 . S
Fe221 O236 1.976 . S
Fe221 O239 2.002 . S
O222 Fe220 1.918 . S
O222 Fe221 1.918 . S
O222 Fe223 1.918 . S
Fe223 O222 1.918 . S
Fe223 O224 2.002 . S
Fe223 O233 1.976 . S
Fe223 O237 1.996 . S
Fe223 O240 1.997 . S
O224 Fe223 2.002 . S
O224 C241 1.295 . S
O225 Fe220 1.997 . S
O225 C241 1.235 . S
O226 Fe220 2.002 . S
O226 C227 1.295 . S
C227 O226 1.295 . S
C227 O229 1.235 . S
C228 O233 1.287 . S
C228 O234 1.255 . S
O229 Fe221 1.997 . S
O229 C227 1.235 . S
C230 O236 1.287 . S
C230 O237 1.255 . S
O231 Fe220 1.976 . S
O231 C238 1.287 . S
O232 Fe221 1.996 . S
O232 C238 1.255 . S
O233 Fe223 1.976 . S
O233 C228 1.287 . S
O234 Fe220 1.996 . S
O234 C228 1.255 . S
C235 O239 1.295 . S
C235 O240 1.235 . S
O236 Fe221 1.976 . S
O236 C230 1.287 . S
O237 Fe223 1.996 . S
O237 C230 1.255 . S
C238 O231 1.287 . S
C238 O232 1.255 . S
O239 Fe221 2.002 . S
O239 C235 1.295 . S
O240 Fe223 1.997 . S
O240 C235 1.235 . S
C241 O224 1.295 . S
C241 O225 1.235 . S
Fe242 O244 1.918 1_455 S
Fe242 O247 1.997 . S
Fe242 O248 2.002 1_455 S
Fe242 O253 1.976 . S
Fe242 O256 1.996 . S
Fe243 O244 1.918 . S
Fe243 O251 1.997 . S
Fe243 O254 1.996 . S
Fe243 O258 1.976 . S
Fe243 O261 2.002 . S
O244 Fe242 1.918 1_655 S
O244 Fe243 1.918 . S
O244 Fe245 1.918 . S
Fe245 O244 1.918 . S
Fe245 O246 2.002 . S
Fe245 O255 1.976 1_655 S
Fe245 O259 1.996 . S
Fe245 O262 1.997 . S
O246 Fe245 2.002 . S
O246 C263 1.295 . S
O247 Fe242 1.997 . S
O247 C263 1.235 1_455 S
O248 Fe242 2.002 1_655 S
O248 C249 1.295 . S
C249 O248 1.295 . S
C249 O251 1.235 . S
C250 O255 1.287 . S
C250 O256 1.255 . S
O251 Fe243 1.997 . S
O251 C249 1.235 . S
C252 O258 1.287 . S
C252 O259 1.255 . S
O253 Fe242 1.976 . S
O253 C260 1.287 1_455 S
O254 Fe243 1.996 . S
O254 C260 1.255 . S
O255 Fe245 1.976 1_455 S
O255 C250 1.287 . S
O256 Fe242 1.996 . S
O256 C250 1.255 . S
C257 O261 1.295 . S
C257 O262 1.235 . S
O258 Fe243 1.976 . S
O258 C252 1.287 . S
O259 Fe245 1.996 . S
O259 C252 1.255 . S
C260 O253 1.287 1_655 S
C260 O254 1.255 . S
O261 Fe243 2.002 . S
O261 C257 1.295 . S
O262 Fe245 1.997 . S
O262 C257 1.235 . S
C263 O246 1.295 . S
C263 O247 1.235 1_655 S
Fe264 O266 1.918 . S
Fe264 O269 1.997 . S
Fe264 O270 2.002 . S
Fe264 O275 1.976 1_545 S
Fe264 O278 1.996 . S
Fe265 O266 1.918 1_565 S
Fe265 O273 1.997 . S
Fe265 O276 1.996 . S
Fe265 O280 1.976 . S
Fe265 O283 2.002 1_565 S
O266 Fe264 1.918 . S
O266 Fe265 1.918 1_545 S
O266 Fe267 1.918 . S
Fe267 O266 1.918 . S
Fe267 O268 2.002 . S
Fe267 O277 1.976 . S
Fe267 O281 1.996 . S
Fe267 O284 1.997 . S
O268 Fe267 2.002 . S
O268 C285 1.295 . S
O269 Fe264 1.997 . S
O269 C285 1.235 . S
O270 Fe264 2.002 . S
O270 C271 1.295 . S
C271 O270 1.295 . S
C271 O273 1.235 1_545 S
C272 O277 1.287 . S
C272 O278 1.255 . S
O273 Fe265 1.997 . S
O273 C271 1.235 1_565 S
C274 O280 1.287 1_545 S
C274 O281 1.255 . S
O275 Fe264 1.976 1_565 S
O275 C282 1.287 . S
O276 Fe265 1.996 . S
O276 C282 1.255 . S
O277 Fe267 1.976 . S
O277 C272 1.287 . S
O278 Fe264 1.996 . S
O278 C272 1.255 . S
C279 O283 1.295 . S
C279 O284 1.235 . S
O280 Fe265 1.976 . S
O280 C274 1.287 1_565 S
O281 Fe267 1.996 . S
O281 C274 1.255 . S
C282 O275 1.287 . S
C282 O276 1.255 . S
O283 Fe265 2.002 1_545 S
O283 C279 1.295 . S
O284 Fe267 1.997 . S
O284 C279 1.235 . S
C285 O268 1.295 . S
C285 O269 1.235 . S
Fe286 O288 1.918 . S
Fe286 O291 1.997 . S
Fe286 O292 2.002 . S
Fe286 O297 1.976 . S
Fe286 O300 1.996 . S
Fe287 O288 1.918 . S
Fe287 O295 1.997 . S
Fe287 O298 1.996 . S
Fe287 O302 1.976 . S
Fe287 O305 2.002 . S
O288 Fe286 1.918 . S
O288 Fe287 1.918 . S
O288 Fe289 1.918 . S
Fe289 O288 1.918 . S
Fe289 O290 2.002 . S
Fe289 O299 1.976 . S
Fe289 O303 1.996 . S
Fe289 O306 1.997 . S
O290 Fe289 2.002 . S
O290 C307 1.295 . S
O291 Fe286 1.997 . S
O291 C307 1.235 . S
O292 Fe286 2.002 . S
O292 C293 1.295 . S
C293 O292 1.295 . S
C293 O295 1.235 . S
C294 O299 1.287 . S
C294 O300 1.255 . S
O295 Fe287 1.997 . S
O295 C293 1.235 . S
C296 O302 1.287 . S
C296 O303 1.255 . S
O297 Fe286 1.976 . S
O297 C304 1.287 . S
O298 Fe287 1.996 . S
O298 C304 1.255 . S
O299 Fe289 1.976 . S
O299 C294 1.287 . S
O300 Fe286 1.996 . S
O300 C294 1.255 . S
C301 O305 1.295 . S
C301 O306 1.235 . S
O302 Fe287 1.976 . S
O302 C296 1.287 . S
O303 Fe289 1.996 . S
O303 C296 1.255 . S
C304 O297 1.287 . S
C304 O298 1.255 . S
O305 Fe287 2.002 . S
O305 C301 1.295 . S
O306 Fe289 1.997 . S
O306 C301 1.235 . S
C307 O290 1.295 . S
C307 O291 1.235 . S
Fe308 O310 1.918 . S
Fe308 O313 1.997 . S
Fe308 O314 2.002 . S
Fe308 O319 1.976 . S
Fe308 O322 1.996 . S
Fe309 O310 1.918 . S
Fe309 O317 1.997 . S
Fe309 O320 1.996 . S
Fe309 O324 1.976 . S
Fe309 O327 2.002 . S
O310 Fe308 1.918 . S
O310 Fe309 1.918 . S
O310 Fe311 1.918 . S
Fe311 O310 1.918 . S
Fe311 O312 2.002 . S
Fe311 O321 1.976 . S
Fe311 O325 1.996 . S
Fe311 O328 1.997 . S
O312 Fe311 2.002 . S
O312 C329 1.295 . S
O313 Fe308 1.997 . S
O313 C329 1.235 . S
O314 Fe308 2.002 . S
O314 C315 1.295 . S
C315 O314 1.295 . S
C315 O317 1.235 . S
C316 O321 1.287 . S
C316 O322 1.255 . S
O317 Fe309 1.997 . S
O317 C315 1.235 . S
C318 O324 1.287 . S
C318 O325 1.255 . S
O319 Fe308 1.976 . S
O319 C326 1.287 . S
O320 Fe309 1.996 . S
O320 C326 1.255 . S
O321 Fe311 1.976 . S
O321 C316 1.287 . S
O322 Fe308 1.996 . S
O322 C316 1.255 . S
C323 O327 1.295 . S
C323 O328 1.235 . S
O324 Fe309 1.976 . S
O324 C318 1.287 . S
O325 Fe311 1.996 . S
O325 C318 1.255 . S
C326 O319 1.287 . S
C326 O320 1.255 . S
O327 Fe309 2.002 . S
O327 C323 1.295 . S
O328 Fe311 1.997 . S
O328 C323 1.235 . S
C329 O312 1.295 . S
C329 O313 1.235 . S
Fe330 O332 1.918 1_655 S
Fe330 O335 1.997 . S
Fe330 O336 2.002 1_655 S
Fe330 O341 1.976 . S
Fe330 O344 1.996 . S
Fe331 O332 1.918 . S
Fe331 O339 1.997 . S
Fe331 O342 1.996 . S
Fe331 O346 1.976 . S
Fe331 O349 2.002 . S
O332 Fe330 1.918 1_455 S
O332 Fe331 1.918 . S
O332 Fe333 1.918 . S
Fe333 O332 1.918 . S
Fe333 O334 2.002 . S
Fe333 O343 1.976 1_455 S
Fe333 O347 1.996 . S
Fe333 O350 1.997 . S
O334 Fe333 2.002 . S
O334 C351 1.295 . S
O335 Fe330 1.997 . S
O335 C351 1.235 1_655 S
O336 Fe330 2.002 1_455 S
O336 C337 1.295 . S
C337 O336 1.295 . S
C337 O339 1.235 . S
C338 O343 1.287 . S
C338 O344 1.255 . S
O339 Fe331 1.997 . S
O339 C337 1.235 . S
C340 O346 1.287 . S
C340 O347 1.255 . S
O341 Fe330 1.976 . S
O341 C348 1.287 1_655 S
O342 Fe331 1.996 . S
O342 C348 1.255 . S
O343 Fe333 1.976 1_655 S
O343 C338 1.287 . S
O344 Fe330 1.996 . S
O344 C338 1.255 . S
C345 O349 1.295 . S
C345 O350 1.235 . S
O346 Fe331 1.976 . S
O346 C340 1.287 . S
O347 Fe333 1.996 . S
O347 C340 1.255 . S
C348 O341 1.287 1_455 S
C348 O342 1.255 . S
O349 Fe331 2.002 . S
O349 C345 1.295 . S
O350 Fe333 1.997 . S
O350 C345 1.235 . S
C351 O334 1.295 . S
C351 O335 1.235 1_455 S
H352 C364 0.930 . S
H353 C366 0.930 . S
H354 C367 0.930 . S
H355 C371 0.959 . S
H356 C371 0.959 . S
H357 C371 0.961 . S
H358 C372 0.960 . S
H359 C372 0.961 . S
H360 C372 0.959 . S
H361 C375 0.929 . S
H362 C376 0.931 . S
H363 C378 0.930 . S
C364 H352 0.930 . S
C364 C365 1.399 . S
C364 C369 1.399 . S
C365 C364 1.399 . S
C365 C366 1.376 . S
C366 H353 0.930 . S
C366 C365 1.376 . S
C366 C367 1.388 . S
C367 H354 0.930 . S
C367 C366 1.388 . S
C367 C368 1.390 . S
C368 C367 1.390 . S
C368 C369 1.394 . S
C368 C374 1.465 . S
C369 C364 1.399 . S
C369 C368 1.394 . S
C369 C370 1.516 . S
C370 C369 1.516 . S
C370 C371 1.502 . S
C370 C372 1.561 . S
C370 C373 1.526 . S
C371 H355 0.959 . S
C371 H356 0.959 . S
C371 H357 0.961 . S
C371 C370 1.502 . S
C372 H358 0.960 . S
C372 H359 0.961 . S
C372 H360 0.959 . S
C372 C370 1.561 . S
C373 C370 1.526 . S
C373 C374 1.396 . S
C373 C378 1.390 . S
C374 C368 1.465 . S
C374 C373 1.396 . S
C374 C375 1.399 . S
C375 H361 0.929 . S
C375 C374 1.399 . S
C375 C376 1.385 . S
C376 H362 0.931 . S
C376 C375 1.385 . S
C376 C377 1.389 . S
C377 C376 1.389 . S
C377 C378 1.387 . S
C378 H363 0.930 . S
C378 C373 1.390 . S
C378 C377 1.387 . S
H379 C391 0.930 . S
H380 C393 0.930 . S
H381 C394 0.930 . S
H382 C398 0.959 . S
H383 C398 0.959 . S
H384 C398 0.961 . S
H385 C399 0.960 . S
H386 C399 0.961 . S
H387 C399 0.959 . S
H388 C402 0.929 . S
H389 C403 0.931 . S
H390 C405 0.930 . S
C391 H379 0.930 . S
C391 C392 1.399 . S
C391 C396 1.399 . S
C392 C391 1.399 . S
C392 C393 1.376 . S
C393 H380 0.930 . S
C393 C392 1.376 . S
C393 C394 1.388 . S
C394 H381 0.930 . S
C394 C393 1.388 . S
C394 C395 1.390 . S
C395 C394 1.390 . S
C395 C396 1.394 . S
C395 C401 1.465 . S
C396 C391 1.399 . S
C396 C395 1.394 . S
C396 C397 1.516 . S
C397 C396 1.516 . S
C397 C398 1.502 . S
C397 C399 1.561 . S
C397 C400 1.526 . S
C398 H382 0.959 . S
C398 H383 0.959 . S
C398 H384 0.961 . S
C398 C397 1.502 . S
C399 H385 0.960 . S
C399 H386 0.961 . S
C399 H387 0.959 . S
C399 C397 1.561 . S
C400 C397 1.526 . S
C400 C401 1.396 . S
C400 C405 1.390 . S
C401 C395 1.465 . S
C401 C400 1.396 . S
C401 C402 1.399 . S
C402 H388 0.929 . S
C402 C401 1.399 . S
C402 C403 1.385 . S
C403 H389 0.931 . S
C403 C402 1.385 . S
C403 C404 1.389 . S
C404 C403 1.389 . S
C404 C405 1.387 . S
C405 H390 0.930 . S
C405 C400 1.390 . S
C405 C404 1.387 . S
H406 C418 0.930 . S
H407 C420 0.930 . S
H408 C421 0.930 . S
H409 C425 0.959 . S
H410 C425 0.959 . S
H411 C425 0.961 . S
H412 C426 0.960 . S
H413 C426 0.961 . S
H414 C426 0.959 . S
H415 C429 0.929 . S
H416 C430 0.931 . S
H417 C432 0.930 . S
C418 H406 0.930 . S
C418 C419 1.399 . S
C418 C423 1.399 . S
C419 C418 1.399 . S
C419 C420 1.376 . S
C420 H407 0.930 . S
C420 C419 1.376 . S
C420 C421 1.388 . S
C421 H408 0.930 . S
C421 C420 1.388 . S
C421 C422 1.390 . S
C422 C421 1.390 . S
C422 C423 1.394 . S
C422 C428 1.465 . S
C423 C418 1.399 . S
C423 C422 1.394 . S
C423 C424 1.516 . S
C424 C423 1.516 . S
C424 C425 1.502 . S
C424 C426 1.561 . S
C424 C427 1.526 . S
C425 H409 0.959 . S
C425 H410 0.959 . S
C425 H411 0.961 . S
C425 C424 1.502 . S
C426 H412 0.960 . S
C426 H413 0.961 . S
C426 H414 0.959 . S
C426 C424 1.561 . S
C427 C424 1.526 . S
C427 C428 1.396 . S
C427 C432 1.390 . S
C428 C422 1.465 . S
C428 C427 1.396 . S
C428 C429 1.399 . S
C429 H415 0.929 . S
C429 C428 1.399 . S
C429 C430 1.385 . S
C430 H416 0.931 . S
C430 C429 1.385 . S
C430 C431 1.389 . S
C431 C430 1.389 . S
C431 C432 1.387 . S
C432 H417 0.930 . S
C432 C427 1.390 . S
C432 C431 1.387 . S
H433 C445 0.930 . S
H434 C447 0.930 . S
H435 C448 0.930 . S
H436 C452 0.959 . S
H437 C452 0.959 . S
H438 C452 0.961 . S
H439 C453 0.960 . S
H440 C453 0.961 . S
H441 C453 0.959 . S
H442 C456 0.929 . S
H443 C457 0.931 . S
H444 C459 0.930 . S
C445 H433 0.930 . S
C445 C446 1.399 . S
C445 C450 1.399 . S
C446 C445 1.399 . S
C446 C447 1.376 . S
C447 H434 0.930 . S
C447 C446 1.376 . S
C447 C448 1.388 . S
C448 H435 0.930 . S
C448 C447 1.388 . S
C448 C449 1.390 . S
C449 C448 1.390 . S
C449 C450 1.394 . S
C449 C455 1.465 . S
C450 C445 1.399 . S
C450 C449 1.394 . S
C450 C451 1.516 . S
C451 C450 1.516 . S
C451 C452 1.502 . S
C451 C453 1.561 . S
C451 C454 1.526 . S
C452 H436 0.959 . S
C452 H437 0.959 . S
C452 H438 0.961 . S
C452 C451 1.502 . S
C453 H439 0.960 . S
C453 H440 0.961 . S
C453 H441 0.959 . S
C453 C451 1.561 . S
C454 C451 1.526 . S
C454 C455 1.396 . S
C454 C459 1.390 . S
C455 C449 1.465 . S
C455 C454 1.396 . S
C455 C456 1.399 . S
C456 H442 0.929 . S
C456 C455 1.399 . S
C456 C457 1.385 . S
C457 H443 0.931 . S
C457 C456 1.385 . S
C457 C458 1.389 . S
C458 C457 1.389 . S
C458 C459 1.387 . S
C459 H444 0.930 . S
C459 C454 1.390 . S
C459 C458 1.387 . S
H460 C472 0.930 . S
H461 C474 0.930 . S
H462 C475 0.930 . S
H463 C479 0.959 . S
H464 C479 0.959 . S
H465 C479 0.961 . S
H466 C480 0.960 . S
H467 C480 0.961 . S
H468 C480 0.959 . S
H469 C483 0.929 . S
H470 C484 0.931 . S
H471 C486 0.930 . S
C472 H460 0.930 . S
C472 C473 1.399 . S
C472 C477 1.399 . S
C473 C472 1.399 . S
C473 C474 1.376 . S
C474 H461 0.930 . S
C474 C473 1.376 . S
C474 C475 1.388 . S
C475 H462 0.930 . S
C475 C474 1.388 . S
C475 C476 1.390 . S
C476 C475 1.390 . S
C476 C477 1.394 . S
C476 C482 1.465 . S
C477 C472 1.399 . S
C477 C476 1.394 . S
C477 C478 1.516 . S
C478 C477 1.516 . S
C478 C479 1.502 . S
C478 C480 1.561 . S
C478 C481 1.526 . S
C479 H463 0.959 . S
C479 H464 0.959 . S
C479 H465 0.961 . S
C479 C478 1.502 . S
C480 H466 0.960 . S
C480 H467 0.961 . S
C480 H468 0.959 . S
C480 C478 1.561 . S
C481 C478 1.526 . S
C481 C482 1.396 . S
C481 C486 1.390 . S
C482 C476 1.465 . S
C482 C481 1.396 . S
C482 C483 1.399 . S
C483 H469 0.929 . S
C483 C482 1.399 . S
C483 C484 1.385 . S
C484 H470 0.931 . S
C484 C483 1.385 . S
C484 C485 1.389 . S
C485 C484 1.389 . S
C485 C486 1.387 . S
C486 H471 0.930 . S
C486 C481 1.390 . S
C486 C485 1.387 . S
H487 C499 0.930 . S
H488 C501 0.930 . S
H489 C502 0.930 . S
H490 C506 0.959 . S
H491 C506 0.959 . S
H492 C506 0.961 . S
H493 C507 0.960 . S
H494 C507 0.961 . S
H495 C507 0.959 . S
H496 C510 0.929 . S
H497 C511 0.931 . S
H498 C513 0.930 . S
C499 H487 0.930 . S
C499 C500 1.399 . S
C499 C504 1.399 . S
C500 C499 1.399 . S
C500 C501 1.376 . S
C501 H488 0.930 . S
C501 C500 1.376 . S
C501 C502 1.388 . S
C502 H489 0.930 . S
C502 C501 1.388 . S
C502 C503 1.390 . S
C503 C502 1.390 . S
C503 C504 1.394 . S
C503 C509 1.465 . S
C504 C499 1.399 . S
C504 C503 1.394 . S
C504 C505 1.516 . S
C505 C504 1.516 . S
C505 C506 1.502 . S
C505 C507 1.561 . S
C505 C508 1.526 . S
C506 H490 0.959 . S
C506 H491 0.959 . S
C506 H492 0.961 . S
C506 C505 1.502 . S
C507 H493 0.960 . S
C507 H494 0.961 . S
C507 H495 0.959 . S
C507 C505 1.561 . S
C508 C505 1.526 . S
C508 C509 1.396 . S
C508 C513 1.390 . S
C509 C503 1.465 . S
C509 C508 1.396 . S
C509 C510 1.399 . S
C510 H496 0.929 . S
C510 C509 1.399 . S
C510 C511 1.385 . S
C511 H497 0.931 . S
C511 C510 1.385 . S
C511 C512 1.389 . S
C512 C511 1.389 . S
C512 C513 1.387 . S
C513 H498 0.930 . S
C513 C508 1.390 . S
C513 C512 1.387 . S
H514 C526 0.930 . S
H515 C528 0.930 . S
H516 C529 0.930 . S
H517 C533 0.959 . S
H518 C533 0.959 . S
H519 C533 0.961 . S
H520 C534 0.960 . S
H521 C534 0.961 . S
H522 C534 0.959 . S
H523 C537 0.929 . S
H524 C538 0.931 . S
H525 C540 0.930 . S
C526 H514 0.930 . S
C526 C527 1.399 . S
C526 C531 1.399 . S
C527 C526 1.399 . S
C527 C528 1.376 . S
C528 H515 0.930 . S
C528 C527 1.376 . S
C528 C529 1.388 . S
C529 H516 0.930 . S
C529 C528 1.388 . S
C529 C530 1.390 . S
C530 C529 1.390 . S
C530 C531 1.394 . S
C530 C536 1.465 . S
C531 C526 1.399 . S
C531 C530 1.394 . S
C531 C532 1.516 . S
C532 C531 1.516 . S
C532 C533 1.502 . S
C532 C534 1.561 . S
C532 C535 1.526 . S
C533 H517 0.959 . S
C533 H518 0.959 . S
C533 H519 0.961 . S
C533 C532 1.502 . S
C534 H520 0.960 . S
C534 H521 0.961 . S
C534 H522 0.959 . S
C534 C532 1.561 . S
C535 C532 1.526 . S
C535 C536 1.396 . S
C535 C540 1.390 . S
C536 C530 1.465 . S
C536 C535 1.396 . S
C536 C537 1.399 . S
C537 H523 0.929 . S
C537 C536 1.399 . S
C537 C538 1.385 . S
C538 H524 0.931 . S
C538 C537 1.385 . S
C538 C539 1.389 . S
C539 C538 1.389 . S
C539 C540 1.387 . S
C540 H525 0.930 . S
C540 C535 1.390 . S
C540 C539 1.387 . S
H541 C553 0.930 . S
H542 C555 0.930 . S
H543 C556 0.930 . S
H544 C560 0.959 . S
H545 C560 0.959 . S
H546 C560 0.961 . S
H547 C561 0.960 . S
H548 C561 0.961 . S
H549 C561 0.959 . S
H550 C564 0.929 . S
H551 C565 0.931 . S
H552 C567 0.930 . S
C553 H541 0.930 . S
C553 C554 1.399 . S
C553 C558 1.399 . S
C554 C553 1.399 . S
C554 C555 1.376 . S
C555 H542 0.930 . S
C555 C554 1.376 . S
C555 C556 1.388 . S
C556 H543 0.930 . S
C556 C555 1.388 . S
C556 C557 1.390 . S
C557 C556 1.390 . S
C557 C558 1.394 . S
C557 C563 1.465 . S
C558 C553 1.399 . S
C558 C557 1.394 . S
C558 C559 1.516 . S
C559 C558 1.516 . S
C559 C560 1.502 . S
C559 C561 1.561 . S
C559 C562 1.526 . S
C560 H544 0.959 . S
C560 H545 0.959 . S
C560 H546 0.961 . S
C560 C559 1.502 . S
C561 H547 0.960 . S
C561 H548 0.961 . S
C561 H549 0.959 . S
C561 C559 1.561 . S
C562 C559 1.526 . S
C562 C563 1.396 . S
C562 C567 1.390 . S
C563 C557 1.465 . S
C563 C562 1.396 . S
C563 C564 1.399 . S
C564 H550 0.929 . S
C564 C563 1.399 . S
C564 C565 1.385 . S
C565 H551 0.931 . S
C565 C564 1.385 . S
C565 C566 1.389 . S
C566 C565 1.389 . S
C566 C567 1.387 . S
C567 H552 0.930 . S
C567 C562 1.390 . S
C567 C566 1.387 . S
H568 C580 0.930 . S
H569 C582 0.930 . S
H570 C583 0.930 . S
H571 C587 0.959 . S
H572 C587 0.959 . S
H573 C587 0.961 . S
H574 C588 0.960 . S
H575 C588 0.961 . S
H576 C588 0.959 1_565 S
H577 C591 0.929 . S
H578 C592 0.931 . S
H579 C594 0.930 . S
C580 H568 0.930 . S
C580 C581 1.399 . S
C580 C585 1.403 . S
C581 C580 1.399 . S
C581 C582 1.376 1_545 S
C582 H569 0.930 . S
C582 C581 1.376 1_565 S
C582 C583 1.388 . S
C583 H570 0.930 . S
C583 C582 1.388 . S
C583 C584 1.390 . S
C584 C583 1.390 . S
C584 C585 1.400 1_565 S
C584 C590 1.473 . S
C585 C580 1.403 . S
C585 C584 1.400 1_545 S
C585 C586 1.506 1_554 S
C586 C585 1.506 1_556 S
C586 C587 1.502 . S
C586 C588 1.561 . S
C586 C589 1.526 . S
C587 H571 0.959 . S
C587 H572 0.959 . S
C587 H573 0.961 . S
C587 C586 1.502 . S
C588 H574 0.960 . S
C588 H575 0.961 . S
C588 H576 0.959 1_545 S
C588 C586 1.561 . S
C589 C586 1.526 . S
C589 C590 1.383 1_546 S
C589 C594 1.390 . S
C590 C584 1.473 . S
C590 C589 1.383 1_564 S
C590 C591 1.402 . S
C591 H577 0.929 . S
C591 C590 1.402 . S
C591 C592 1.385 1_554 S
C592 H578 0.931 . S
C592 C591 1.385 1_556 S
C592 C593 1.389 . S
C593 C592 1.389 . S
C593 C594 1.387 1_565 S
C594 H579 0.930 . S
C594 C589 1.390 . S
C594 C593 1.387 1_545 S
H595 C607 0.930 1_556 S
H596 C609 0.930 . S
H597 C610 0.930 . S
H598 C614 0.959 . S
H599 C614 0.959 . S
H600 C614 0.961 . S
H601 C615 0.960 . S
H602 C615 0.961 . S
H603 C615 0.959 . S
H604 C618 0.929 . S
H605 C619 0.919 1_554 S
H606 C621 0.930 . S
C607 H595 0.930 1_554 S
C607 C608 1.399 . S
C607 C612 1.397 1_554 S
C608 C607 1.399 . S
C608 C609 1.376 . S
C609 H596 0.930 . S
C609 C608 1.376 . S
C609 C610 1.388 . S
C610 H597 0.930 . S
C610 C609 1.388 . S
C610 C611 1.390 . S
C611 C610 1.390 . S
C611 C612 1.386 1_554 S
C611 C617 1.465 . S
C612 C607 1.397 1_556 S
C612 C611 1.386 1_556 S
C612 C613 1.525 . S
C613 C612 1.525 . S
C613 C614 1.502 . S
C613 C615 1.561 . S
C613 C616 1.526 . S
C614 H598 0.959 . S
C614 H599 0.959 . S
C614 H600 0.961 . S
C614 C613 1.502 . S
C615 H601 0.960 . S
C615 H602 0.961 . S
C615 H603 0.959 . S
C615 C613 1.561 . S
C616 C613 1.526 . S
C616 C617 1.396 1_556 S
C616 C621 1.390 . S
C617 C611 1.465 . S
C617 C616 1.396 1_554 S
C617 C618 1.399 . S
C618 H604 0.929 . S
C618 C617 1.399 . S
C618 C619 1.363 1_554 S
C619 H605 0.919 1_556 S
C619 C618 1.363 1_556 S
C619 C620 1.424 . S
C620 C619 1.424 . S
C620 C621 1.387 . S
C621 H606 0.930 . S
C621 C616 1.390 . S
C621 C620 1.387 . S
H622 C634 0.930 . S
H623 C636 0.930 1_554 S
H624 C637 0.930 . S
H625 C641 0.959 . S
H626 C641 0.959 . S
H627 C641 0.961 . S
H628 C642 0.960 1_455 S
H629 C642 0.961 . S
H630 C642 0.959 . S
H631 C645 0.929 . S
H632 C646 0.931 . S
H633 C648 0.930 1_556 S
C634 H622 0.930 . S
C634 C635 1.399 . S
C634 C639 1.399 . S
C635 C634 1.399 . S
C635 C636 1.378 . S
C636 H623 0.930 1_556 S
C636 C635 1.378 . S
C636 C637 1.388 1_556 S
C637 H624 0.930 . S
C637 C636 1.388 1_554 S
C637 C638 1.390 . S
C638 C637 1.390 . S
C638 C639 1.394 1_554 S
C638 C644 1.465 1_455 S
C639 C634 1.399 . S
C639 C638 1.394 1_556 S
C639 C640 1.516 1_455 S
C640 C639 1.516 1_655 S
C640 C641 1.502 . S
C640 C642 1.561 . S
C640 C643 1.551 . S
C641 H625 0.959 . S
C641 H626 0.959 . S
C641 H627 0.961 . S
C641 C640 1.502 . S
C642 H628 0.960 1_655 S
C642 H629 0.961 . S
C642 H630 0.959 . S
C642 C640 1.561 . S
C643 C640 1.551 . S
C643 C644 1.376 1_556 S
C643 C648 1.383 1_556 S
C644 C638 1.465 1_655 S
C644 C643 1.376 1_554 S
C644 C645 1.399 . S
C645 H631 0.929 . S
C645 C644 1.399 . S
C645 C646 1.385 . S
C646 H632 0.931 . S
C646 C645 1.385 . S
C646 C647 1.389 . S
C647 C646 1.389 . S
C647 C648 1.387 . S
C648 H633 0.930 1_554 S
C648 C643 1.383 1_554 S
C648 C647 1.387 . S
H649 C661 0.930 . S
H650 C663 0.930 1_554 S
H651 C664 0.930 . S
H652 C668 0.959 . S
H653 C668 0.959 . S
H654 C668 0.961 . S
H655 C669 0.960 . S
H656 C669 0.961 . S
H657 C669 0.959 . S
H658 C672 0.929 . S
H659 C673 0.931 . S
H660 C675 0.922 1_656 S
C661 H649 0.930 . S
C661 C662 1.399 . S
C661 C666 1.399 . S
C662 C661 1.399 . S
C662 C663 1.376 1_655 S
C663 H650 0.930 1_556 S
C663 C662 1.376 1_455 S
C663 C664 1.388 1_556 S
C664 H651 0.930 . S
C664 C663 1.388 1_554 S
C664 C665 1.390 . S
C665 C664 1.390 . S
C665 C666 1.394 1_454 S
C665 C671 1.465 1_545 S
C666 C661 1.399 . S
C666 C665 1.394 1_656 S
C666 C667 1.516 1_545 S
C667 C666 1.516 1_565 S
C667 C668 1.502 . S
C667 C669 1.561 1_655 S
C667 C670 1.524 1_655 S
C668 H652 0.959 . S
C668 H653 0.959 . S
C668 H654 0.961 . S
C668 C667 1.502 . S
C669 H655 0.960 . S
C669 H656 0.961 . S
C669 H657 0.959 . S
C669 C667 1.561 1_455 S
C670 C667 1.524 1_455 S
C670 C671 1.398 1_556 S
C670 C675 1.389 1_556 S
C671 C665 1.465 1_565 S
C671 C670 1.398 1_554 S
C671 C672 1.399 . S
C672 H658 0.929 . S
C672 C671 1.399 . S
C672 C673 1.385 . S
C673 H659 0.931 . S
C673 C672 1.385 . S
C673 C674 1.389 . S
C674 C673 1.389 . S
C674 C675 1.396 . S
C675 H660 0.922 1_454 S
C675 C670 1.389 1_554 S
C675 C674 1.396 . S
H676 C688 0.930 . S
H677 C690 0.930 . S
H678 C691 0.930 . S
H679 C695 0.959 1_565 S
H680 C695 0.959 . S
H681 C695 0.961 . S
H682 C696 0.960 . S
H683 C696 0.961 . S
H684 C696 0.959 . S
H685 C699 0.929 . S
H686 C700 0.931 . S
H687 C702 0.930 . S
C688 H676 0.930 . S
C688 C689 1.399 1_545 S
C688 C693 1.399 . S
C689 C688 1.399 1_565 S
C689 C690 1.376 . S
C690 H677 0.930 . S
C690 C689 1.376 . S
C690 C691 1.388 . S
C691 H678 0.930 . S
C691 C690 1.388 . S
C691 C692 1.390 . S
C692 C691 1.390 . S
C692 C693 1.394 1_565 S
C692 C698 1.465 1_455 S
C693 C688 1.399 . S
C693 C692 1.394 1_545 S
C693 C694 1.516 . S
C694 C693 1.516 . S
C694 C695 1.502 . S
C694 C696 1.561 . S
C694 C697 1.526 1_455 S
C695 H679 0.959 1_545 S
C695 H680 0.959 . S
C695 H681 0.961 . S
C695 C694 1.502 . S
C696 H682 0.960 . S
C696 H683 0.961 . S
C696 H684 0.959 . S
C696 C694 1.561 . S
C697 C694 1.526 1_655 S
C697 C698 1.396 1_545 S
C697 C702 1.390 . S
C698 C692 1.465 1_655 S
C698 C697 1.396 1_565 S
C698 C699 1.399 . S
C699 H685 0.929 . S
C699 C698 1.399 . S
C699 C700 1.385 . S
C700 H686 0.931 . S
C700 C699 1.385 . S
C700 C701 1.389 1_565 S
C701 C700 1.389 1_545 S
C701 C702 1.387 . S
C702 H687 0.930 . S
C702 C697 1.390 . S
C702 C701 1.387 . S
H703 C715 0.930 . S
H704 C717 0.930 . S
H705 C718 0.930 . S
H706 C722 0.953 1_565 S
H707 C722 0.964 . S
H708 C722 0.961 . S
H709 C723 0.960 . S
H710 C723 0.961 . S
H711 C723 0.959 . S
H712 C726 0.929 . S
H713 C727 0.931 . S
H714 C729 0.930 . S
C715 H703 0.930 . S
C715 C716 1.399 . S
C715 C720 1.399 . S
C716 C715 1.399 . S
C716 C717 1.376 . S
C717 H704 0.930 . S
C717 C716 1.376 . S
C717 C718 1.388 . S
C718 H705 0.930 . S
C718 C717 1.388 . S
C718 C719 1.390 . S
C719 C718 1.390 . S
C719 C720 1.394 . S
C719 C725 1.465 1_545 S
C720 C715 1.399 . S
C720 C719 1.394 . S
C720 C721 1.516 . S
C721 C720 1.516 . S
C721 C722 1.502 . S
C721 C723 1.561 . S
C721 C724 1.526 1_545 S
C722 H706 0.953 1_545 S
C722 H707 0.964 . S
C722 H708 0.961 . S
C722 C721 1.502 . S
C723 H709 0.960 . S
C723 H710 0.961 . S
C723 H711 0.959 . S
C723 C721 1.561 . S
C724 C721 1.526 1_565 S
C724 C725 1.396 . S
C724 C729 1.390 . S
C725 C719 1.465 1_565 S
C725 C724 1.396 . S
C725 C726 1.399 . S
C726 H712 0.929 . S
C726 C725 1.399 . S
C726 C727 1.385 . S
C727 H713 0.931 . S
C727 C726 1.385 . S
C727 C728 1.389 . S
C728 C727 1.389 . S
C728 C729 1.387 . S
C729 H714 0.930 . S
C729 C724 1.390 . S
C729 C728 1.387 . S
H730 C742 0.930 . S
H731 C744 0.930 . S
H732 C745 0.930 . S
H733 C749 0.959 . S
H734 C749 0.959 . S
H735 C749 0.961 . S
H736 C750 0.960 . S
H737 C750 0.961 . S
H738 C750 0.959 . S
H739 C753 0.929 . S
H740 C754 0.931 . S
H741 C756 0.930 . S
C742 H730 0.930 . S
C742 C743 1.399 . S
C742 C747 1.399 . S
C743 C742 1.399 . S
C743 C744 1.376 . S
C744 H731 0.930 . S
C744 C743 1.376 . S
C744 C745 1.388 . S
C745 H732 0.930 . S
C745 C744 1.388 . S
C745 C746 1.390 . S
C746 C745 1.390 . S
C746 C747 1.394 . S
C746 C752 1.465 . S
C747 C742 1.399 . S
C747 C746 1.394 . S
C747 C748 1.516 . S
C748 C747 1.516 . S
C748 C749 1.502 . S
C748 C750 1.561 . S
C748 C751 1.526 . S
C749 H733 0.959 . S
C749 H734 0.959 . S
C749 H735 0.961 . S
C749 C748 1.502 . S
C750 H736 0.960 . S
C750 H737 0.961 . S
C750 H738 0.959 . S
C750 C748 1.561 . S
C751 C748 1.526 . S
C751 C752 1.396 . S
C751 C756 1.390 . S
C752 C746 1.465 . S
C752 C751 1.396 . S
C752 C753 1.399 . S
C753 H739 0.929 . S
C753 C752 1.399 . S
C753 C754 1.385 . S
C754 H740 0.931 . S
C754 C753 1.385 . S
C754 C755 1.389 . S
C755 C754 1.389 . S
C755 C756 1.387 . S
C756 H741 0.930 . S
C756 C751 1.390 . S
C756 C755 1.387 . S
H757 C769 0.930 . S
H758 C771 0.930 . S
H759 C772 0.930 . S
H760 C776 0.959 . S
H761 C776 0.959 . S
H762 C776 0.961 . S
H763 C777 0.960 . S
H764 C777 0.961 . S
H765 C777 0.959 . S
H766 C780 0.929 . S
H767 C781 0.931 . S
H768 C783 0.930 . S
C769 H757 0.930 . S
C769 C770 1.399 . S
C769 C774 1.396 1_455 S
C770 C769 1.399 . S
C770 C771 1.376 . S
C771 H758 0.930 . S
C771 C770 1.376 . S
C771 C772 1.388 . S
C772 H759 0.930 . S
C772 C771 1.388 . S
C772 C773 1.390 . S
C773 C772 1.390 . S
C773 C774 1.393 1_455 S
C773 C779 1.465 1_455 S
C774 C769 1.396 1_655 S
C774 C773 1.393 1_655 S
C774 C775 1.521 . S
C775 C774 1.521 . S
C775 C776 1.502 1_655 S
C775 C777 1.561 . S
C775 C778 1.526 . S
C776 H760 0.959 . S
C776 H761 0.959 . S
C776 H762 0.961 . S
C776 C775 1.502 1_455 S
C777 H763 0.960 . S
C777 H764 0.961 . S
C777 H765 0.959 . S
C777 C775 1.561 . S
C778 C775 1.526 . S
C778 C779 1.396 . S
C778 C783 1.390 . S
C779 C773 1.465 1_655 S
C779 C778 1.396 . S
C779 C780 1.399 . S
C780 H766 0.929 . S
C780 C779 1.399 . S
C780 C781 1.385 . S
C781 H767 0.931 . S
C781 C780 1.385 . S
C781 C782 1.389 . S
C782 C781 1.389 . S
C782 C783 1.387 . S
C783 H768 0.930 . S
C783 C778 1.390 . S
C783 C782 1.387 . S
H784 C796 0.930 . S
H785 C798 0.930 . S
H786 C799 0.930 . S
H787 C803 0.959 . S
H788 C803 0.959 . S
H789 C803 0.961 . S
H790 C804 0.960 . S
H791 C804 0.961 . S
H792 C804 0.959 . S
H793 C807 0.929 . S
H794 C808 0.931 . S
H795 C810 0.930 . S
C796 H784 0.930 . S
C796 C797 1.399 . S
C796 C801 1.399 . S
C797 C796 1.399 . S
C797 C798 1.376 . S
C798 H785 0.930 . S
C798 C797 1.376 . S
C798 C799 1.388 . S
C799 H786 0.930 . S
C799 C798 1.388 . S
C799 C800 1.390 . S
C800 C799 1.390 . S
C800 C801 1.394 . S
C800 C806 1.465 . S
C801 C796 1.399 . S
C801 C800 1.394 . S
C801 C802 1.516 . S
C802 C801 1.516 . S
C802 C803 1.502 . S
C802 C804 1.561 . S
C802 C805 1.526 . S
C803 H787 0.959 . S
C803 H788 0.959 . S
C803 H789 0.961 . S
C803 C802 1.502 . S
C804 H790 0.960 . S
C804 H791 0.961 . S
C804 H792 0.959 . S
C804 C802 1.561 . S
C805 C802 1.526 . S
C805 C806 1.396 . S
C805 C810 1.390 . S
C806 C800 1.465 . S
C806 C805 1.396 . S
C806 C807 1.399 . S
C807 H793 0.929 . S
C807 C806 1.399 . S
C807 C808 1.385 . S
C808 H794 0.931 . S
C808 C807 1.385 . S
C808 C809 1.389 . S
C809 C808 1.389 . S
C809 C810 1.387 . S
C810 H795 0.930 . S
C810 C805 1.390 . S
C810 C809 1.387 . S
H811 C823 0.930 . S
H812 C825 0.930 . S
H813 C826 0.930 . S
H814 C830 0.959 . S
H815 C830 0.959 . S
H816 C830 0.961 . S
H817 C831 0.960 . S
H818 C831 0.961 . S
H819 C831 0.959 . S
H820 C834 0.929 . S
H821 C835 0.931 . S
H822 C837 0.930 . S
C823 H811 0.930 . S
C823 C824 1.399 . S
C823 C828 1.399 . S
C824 C823 1.399 . S
C824 C825 1.376 . S
C825 H812 0.930 . S
C825 C824 1.376 . S
C825 C826 1.388 . S
C826 H813 0.930 . S
C826 C825 1.388 . S
C826 C827 1.390 . S
C827 C826 1.390 . S
C827 C828 1.394 . S
C827 C833 1.465 . S
C828 C823 1.399 . S
C828 C827 1.394 . S
C828 C829 1.516 . S
C829 C828 1.516 . S
C829 C830 1.502 . S
C829 C831 1.561 . S
C829 C832 1.526 . S
C830 H814 0.959 . S
C830 H815 0.959 . S
C830 H816 0.961 . S
C830 C829 1.502 . S
C831 H817 0.960 . S
C831 H818 0.961 . S
C831 H819 0.959 . S
C831 C829 1.561 . S
C832 C829 1.526 . S
C832 C833 1.396 . S
C832 C837 1.390 . S
C833 C827 1.465 . S
C833 C832 1.396 . S
C833 C834 1.399 . S
C834 H820 0.929 . S
C834 C833 1.399 . S
C834 C835 1.385 . S
C835 H821 0.931 . S
C835 C834 1.385 . S
C835 C836 1.389 . S
C836 C835 1.389 . S
C836 C837 1.387 . S
C837 H822 0.930 . S
C837 C832 1.390 . S
C837 C836 1.387 . S
H838 C850 0.930 . S
H839 C852 0.930 . S
H840 C853 0.930 1_455 S
H841 C857 0.959 . S
H842 C857 0.959 . S
H843 C857 0.961 . S
H844 C858 0.960 . S
H845 C858 0.961 . S
H846 C858 0.959 . S
H847 C861 0.929 . S
H848 C862 0.931 . S
H849 C864 0.930 . S
C850 H838 0.930 . S
C850 C851 1.399 . S
C850 C855 1.399 . S
C851 C850 1.399 . S
C851 C852 1.376 1_655 S
C852 H839 0.930 . S
C852 C851 1.376 1_455 S
C852 C853 1.388 1_455 S
C853 H840 0.930 1_655 S
C853 C852 1.388 1_655 S
C853 C854 1.390 . S
C854 C853 1.390 . S
C854 C855 1.394 . S
C854 C860 1.465 . S
C855 C850 1.399 . S
C855 C854 1.394 . S
C855 C856 1.516 . S
C856 C855 1.516 . S
C856 C857 1.502 . S
C856 C858 1.561 . S
C856 C859 1.526 . S
C857 H841 0.959 . S
C857 H842 0.959 . S
C857 H843 0.961 . S
C857 C856 1.502 . S
C858 H844 0.960 . S
C858 H845 0.961 . S
C858 H846 0.959 . S
C858 C856 1.561 . S
C859 C856 1.526 . S
C859 C860 1.396 . S
C859 C864 1.390 . S
C860 C854 1.465 . S
C860 C859 1.396 . S
C860 C861 1.399 . S
C861 H847 0.929 . S
C861 C860 1.399 . S
C861 C862 1.385 . S
C862 H848 0.931 . S
C862 C861 1.385 . S
C862 C863 1.389 . S
C863 C862 1.389 . S
C863 C864 1.387 . S
C864 H849 0.930 . S
C864 C859 1.390 . S
C864 C863 1.387 . S
H865 C877 0.930 . S
H866 C879 0.930 . S
H867 C880 0.930 . S
H868 C884 0.959 1_545 S
H869 C884 0.959 . S
H870 C884 0.961 . S
H871 C885 0.960 . S
H872 C885 0.961 . S
H873 C885 0.959 . S
H874 C888 0.929 . S
H875 C889 0.931 . S
H876 C891 0.930 . S
C877 H865 0.930 . S
C877 C878 1.399 . S
C877 C882 1.399 . S
C878 C877 1.399 . S
C878 C879 1.376 . S
C879 H866 0.930 . S
C879 C878 1.376 . S
C879 C880 1.388 . S
C880 H867 0.930 . S
C880 C879 1.388 . S
C880 C881 1.390 . S
C881 C880 1.390 . S
C881 C882 1.394 . S
C881 C887 1.465 . S
C882 C877 1.399 . S
C882 C881 1.394 . S
C882 C883 1.516 . S
C883 C882 1.516 . S
C883 C884 1.502 . S
C883 C885 1.561 . S
C883 C886 1.526 . S
C884 H868 0.959 1_565 S
C884 H869 0.959 . S
C884 H870 0.961 . S
C884 C883 1.502 . S
C885 H871 0.960 . S
C885 H872 0.961 . S
C885 H873 0.959 . S
C885 C883 1.561 . S
C886 C883 1.526 . S
C886 C887 1.396 . S
C886 C891 1.390 . S
C887 C881 1.465 . S
C887 C886 1.396 . S
C887 C888 1.399 . S
C888 H874 0.929 . S
C888 C887 1.399 . S
C888 C889 1.385 . S
C889 H875 0.931 . S
C889 C888 1.385 . S
C889 C890 1.389 . S
C890 C889 1.389 . S
C890 C891 1.387 . S
C891 H876 0.930 . S
C891 C886 1.390 . S
C891 C890 1.387 . S
H892 C904 0.930 . S
H893 C906 0.930 . S
H894 C907 0.930 . S
H895 C911 0.959 . S
H896 C911 0.959 . S
H897 C911 0.961 . S
H898 C912 0.960 . S
H899 C912 0.961 . S
H900 C912 0.959 . S
H901 C915 0.929 . S
H902 C916 0.931 . S
H903 C918 0.930 . S
C904 H892 0.930 . S
C904 C905 1.399 . S
C904 C909 1.399 . S
C905 C904 1.399 . S
C905 C906 1.376 . S
C906 H893 0.930 . S
C906 C905 1.376 . S
C906 C907 1.388 . S
C907 H894 0.930 . S
C907 C906 1.388 . S
C907 C908 1.390 . S
C908 C907 1.390 . S
C908 C909 1.394 . S
C908 C914 1.465 . S
C909 C904 1.399 . S
C909 C908 1.394 . S
C909 C910 1.516 . S
C910 C909 1.516 . S
C910 C911 1.502 . S
C910 C912 1.561 . S
C910 C913 1.526 . S
C911 H895 0.959 . S
C911 H896 0.959 . S
C911 H897 0.961 . S
C911 C910 1.502 . S
C912 H898 0.960 . S
C912 H899 0.961 . S
C912 H900 0.959 . S
C912 C910 1.561 . S
C913 C910 1.526 . S
C913 C914 1.396 . S
C913 C918 1.390 . S
C914 C908 1.465 . S
C914 C913 1.396 . S
C914 C915 1.399 . S
C915 H901 0.929 . S
C915 C914 1.399 . S
C915 C916 1.385 . S
C916 H902 0.931 . S
C916 C915 1.385 . S
C916 C917 1.389 . S
C917 C916 1.389 . S
C917 C918 1.387 . S
C918 H903 0.930 . S
C918 C913 1.390 . S
C918 C917 1.387 . S
H919 C931 0.930 . S
H920 C933 0.930 . S
H921 C934 0.930 . S
H922 C938 0.959 1_565 S
H923 C938 0.959 1_565 S
H924 C938 0.961 . S
H925 C939 0.960 . S
H926 C939 0.961 . S
H927 C939 0.959 . S
H928 C942 0.929 . S
H929 C943 0.931 . S
H930 C945 0.930 . S
C931 H919 0.930 . S
C931 C932 1.399 . S
C931 C936 1.399 . S
C932 C931 1.399 . S
C932 C933 1.376 . S
C933 H920 0.930 . S
C933 C932 1.376 . S
C933 C934 1.388 . S
C934 H921 0.930 . S
C934 C933 1.388 . S
C934 C935 1.390 . S
C935 C934 1.390 . S
C935 C936 1.394 . S
C935 C941 1.465 . S
C936 C931 1.399 . S
C936 C935 1.394 . S
C936 C937 1.516 . S
C937 C936 1.516 . S
C937 C938 1.502 . S
C937 C939 1.561 . S
C937 C940 1.526 . S
C938 H922 0.959 1_545 S
C938 H923 0.959 1_545 S
C938 H924 0.961 . S
C938 C937 1.502 . S
C939 H925 0.960 . S
C939 H926 0.961 . S
C939 H927 0.959 . S
C939 C937 1.561 . S
C940 C937 1.526 . S
C940 C941 1.396 . S
C940 C945 1.390 . S
C941 C935 1.465 . S
C941 C940 1.396 . S
C941 C942 1.399 . S
C942 H928 0.929 . S
C942 C941 1.399 . S
C942 C943 1.385 . S
C943 H929 0.931 . S
C943 C942 1.385 . S
C943 C944 1.389 . S
C944 C943 1.389 . S
C944 C945 1.387 . S
C945 H930 0.930 . S
C945 C940 1.390 . S
C945 C944 1.387 . S
H946 C958 0.930 . S
H947 C960 0.930 . S
H948 C961 0.930 . S
H949 C965 0.959 . S
H950 C965 0.959 . S
H951 C965 0.961 . S
H952 C966 0.960 . S
H953 C966 0.961 . S
H954 C966 0.959 . S
H955 C969 0.929 . S
H956 C970 0.931 . S
H957 C972 0.930 . S
C958 H946 0.930 . S
C958 C959 1.399 . S
C958 C963 1.399 . S
C959 C958 1.399 . S
C959 C960 1.376 . S
C960 H947 0.930 . S
C960 C959 1.376 . S
C960 C961 1.388 . S
C961 H948 0.930 . S
C961 C960 1.388 . S
C961 C962 1.390 . S
C962 C961 1.390 . S
C962 C963 1.394 . S
C962 C968 1.465 . S
C963 C958 1.399 . S
C963 C962 1.394 . S
C963 C964 1.516 . S
C964 C963 1.516 . S
C964 C965 1.502 . S
C964 C966 1.561 . S
C964 C967 1.526 . S
C965 H949 0.959 . S
C965 H950 0.959 . S
C965 H951 0.961 . S
C965 C964 1.502 . S
C966 H952 0.960 . S
C966 H953 0.961 . S
C966 H954 0.959 . S
C966 C964 1.561 . S
C967 C964 1.526 . S
C967 C968 1.396 . S
C967 C972 1.390 . S
C968 C962 1.465 . S
C968 C967 1.396 . S
C968 C969 1.399 . S
C969 H955 0.929 . S
C969 C968 1.399 . S
C969 C970 1.385 . S
C970 H956 0.931 . S
C970 C969 1.385 . S
C970 C971 1.389 . S
C971 C970 1.389 . S
C971 C972 1.387 . S
C972 H957 0.930 . S
C972 C967 1.390 . S
C972 C971 1.387 . S
H973 C985 0.930 . S
H974 C987 0.930 . S
H975 C988 0.930 . S
H976 C992 0.959 . S
H977 C992 0.959 . S
H978 C992 0.961 . S
H979 C993 0.960 . S
H980 C993 0.961 . S
H981 C993 0.959 . S
H982 C996 0.929 . S
H983 C997 0.931 . S
H984 C999 0.930 . S
C985 H973 0.930 . S
C985 C986 1.399 . S
C985 C990 1.399 . S
C986 C985 1.399 . S
C986 C987 1.376 . S
C987 H974 0.930 . S
C987 C986 1.376 . S
C987 C988 1.388 . S
C988 H975 0.930 . S
C988 C987 1.388 . S
C988 C989 1.390 . S
C989 C988 1.390 . S
C989 C990 1.394 . S
C989 C995 1.465 . S
C990 C985 1.399 . S
C990 C989 1.394 . S
C990 C991 1.516 . S
C991 C990 1.516 . S
C991 C992 1.502 . S
C991 C993 1.561 . S
C991 C994 1.526 . S
C992 H976 0.959 . S
C992 H977 0.959 . S
C992 H978 0.961 . S
C992 C991 1.502 . S
C993 H979 0.960 . S
C993 H980 0.961 . S
C993 H981 0.959 . S
C993 C991 1.561 . S
C994 C991 1.526 . S
C994 C995 1.396 . S
C994 C999 1.390 . S
C995 C989 1.465 . S
C995 C994 1.396 . S
C995 C996 1.399 . S
C996 H982 0.929 . S
C996 C995 1.399 . S
C996 C997 1.385 . S
C997 H983 0.931 . S
C997 C996 1.385 . S
C997 C998 1.389 . S
C998 C997 1.389 . S
C998 C999 1.387 . S
C999 H984 0.930 . S
C999 C994 1.390 . S
C999 C998 1.387 . S
H1000 C1012 0.930 . S
H1001 C1014 0.930 . S
H1002 C1015 0.930 . S
H1003 C1019 0.959 . S
H1004 C1019 0.959 . S
H1005 C1019 0.961 . S
H1006 C1020 0.960 . S
H1007 C1020 0.961 . S
H1008 C1020 0.959 . S
H1009 C1023 0.929 . S
H1010 C1024 0.931 . S
H1011 C1026 0.930 . S
C1012 H1000 0.930 . S
C1012 C1013 1.399 . S
C1012 C1017 1.399 . S
C1013 C1012 1.399 . S
C1013 C1014 1.376 . S
C1014 H1001 0.930 . S
C1014 C1013 1.376 . S
C1014 C1015 1.388 . S
C1015 H1002 0.930 . S
C1015 C1014 1.388 . S
C1015 C1016 1.390 . S
C1016 C1015 1.390 . S
C1016 C1017 1.394 . S
C1016 C1022 1.465 . S
C1017 C1012 1.399 . S
C1017 C1016 1.394 . S
C1017 C1018 1.516 . S
C1018 C1017 1.516 . S
C1018 C1019 1.502 . S
C1018 C1020 1.561 . S
C1018 C1021 1.526 . S
C1019 H1003 0.959 . S
C1019 H1004 0.959 . S
C1019 H1005 0.961 . S
C1019 C1018 1.502 . S
C1020 H1006 0.960 . S
C1020 H1007 0.961 . S
C1020 H1008 0.959 . S
C1020 C1018 1.561 . S
C1021 C1018 1.526 . S
C1021 C1022 1.396 . S
C1021 C1026 1.390 . S
C1022 C1016 1.465 . S
C1022 C1021 1.396 . S
C1022 C1023 1.399 . S
C1023 H1009 0.929 . S
C1023 C1022 1.399 . S
C1023 C1024 1.385 . S
C1024 H1010 0.931 . S
C1024 C1023 1.385 . S
C1024 C1025 1.389 . S
C1025 C1024 1.389 . S
C1025 C1026 1.387 . S
C1026 H1011 0.930 . S
C1026 C1021 1.390 . S
C1026 C1025 1.387 . S
H1027 C1039 0.930 . S
H1028 C1041 0.930 . S
H1029 C1042 0.930 . S
H1030 C1046 0.959 . S
H1031 C1046 0.959 . S
H1032 C1046 0.961 . S
H1033 C1047 0.960 . S
H1034 C1047 0.961 . S
H1035 C1047 0.959 . S
H1036 C1050 0.929 . S
H1037 C1051 0.931 . S
H1038 C1053 0.930 . S
C1039 H1027 0.930 . S
C1039 C1040 1.399 . S
C1039 C1044 1.399 . S
C1040 C1039 1.399 . S
C1040 C1041 1.376 . S
C1041 H1028 0.930 . S
C1041 C1040 1.376 . S
C1041 C1042 1.388 . S
C1042 H1029 0.930 . S
C1042 C1041 1.388 . S
C1042 C1043 1.390 . S
C1043 C1042 1.390 . S
C1043 C1044 1.394 . S
C1043 C1049 1.465 . S
C1044 C1039 1.399 . S
C1044 C1043 1.394 . S
C1044 C1045 1.516 . S
C1045 C1044 1.516 . S
C1045 C1046 1.502 . S
C1045 C1047 1.561 . S
C1045 C1048 1.526 . S
C1046 H1030 0.959 . S
C1046 H1031 0.959 . S
C1046 H1032 0.961 . S
C1046 C1045 1.502 . S
C1047 H1033 0.960 . S
C1047 H1034 0.961 . S
C1047 H1035 0.959 . S
C1047 C1045 1.561 . S
C1048 C1045 1.526 . S
C1048 C1049 1.396 . S
C1048 C1053 1.390 . S
C1049 C1043 1.465 . S
C1049 C1048 1.396 . S
C1049 C1050 1.399 . S
C1050 H1036 0.929 . S
C1050 C1049 1.399 . S
C1050 C1051 1.385 . S
C1051 H1037 0.931 . S
C1051 C1050 1.385 . S
C1051 C1052 1.389 . S
C1052 C1051 1.389 . S
C1052 C1053 1.387 . S
C1053 H1038 0.930 . S
C1053 C1048 1.390 . S
C1053 C1052 1.387 . S
H1054 C1066 0.930 . S
H1055 C1068 0.930 . S
H1056 C1069 0.930 1_655 S
H1057 C1073 0.959 . S
H1058 C1073 0.959 . S
H1059 C1073 0.961 . S
H1060 C1074 0.960 . S
H1061 C1074 0.961 . S
H1062 C1074 0.959 . S
H1063 C1077 0.929 . S
H1064 C1078 0.931 . S
H1065 C1080 0.930 . S
C1066 H1054 0.930 . S
C1066 C1067 1.399 . S
C1066 C1071 1.399 . S
C1067 C1066 1.399 . S
C1067 C1068 1.376 1_455 S
C1068 H1055 0.930 . S
C1068 C1067 1.376 1_655 S
C1068 C1069 1.388 1_655 S
C1069 H1056 0.930 1_455 S
C1069 C1068 1.388 1_455 S
C1069 C1070 1.390 . S
C1070 C1069 1.390 . S
C1070 C1071 1.394 . S
C1070 C1076 1.465 . S
C1071 C1066 1.399 . S
C1071 C1070 1.394 . S
C1071 C1072 1.516 . S
C1072 C1071 1.516 . S
C1072 C1073 1.502 . S
C1072 C1074 1.561 . S
C1072 C1075 1.526 . S
C1073 H1057 0.959 . S
C1073 H1058 0.959 . S
C1073 H1059 0.961 . S
C1073 C1072 1.502 . S
C1074 H1060 0.960 . S
C1074 H1061 0.961 . S
C1074 H1062 0.959 . S
C1074 C1072 1.561 . S
C1075 C1072 1.526 . S
C1075 C1076 1.396 . S
C1075 C1080 1.390 . S
C1076 C1070 1.465 . S
C1076 C1075 1.396 . S
C1076 C1077 1.399 . S
C1077 H1063 0.929 . S
C1077 C1076 1.399 . S
C1077 C1078 1.385 . S
C1078 H1064 0.931 . S
C1078 C1077 1.385 . S
C1078 C1079 1.389 . S
C1079 C1078 1.389 . S
C1079 C1080 1.387 . S
C1080 H1065 0.930 . S
C1080 C1075 1.390 . S
C1080 C1079 1.387 . S
H1081 C1093 0.930 . S
H1082 C1095 0.930 . S
H1083 C1096 0.930 1_565 S
H1084 C1100 0.959 . S
H1085 C1100 0.959 . S
H1086 C1100 0.961 . S
H1087 C1101 0.960 . S
H1088 C1101 0.961 . S
H1089 C1101 0.959 . S
H1090 C1104 0.929 . S
H1091 C1105 0.931 . S
H1092 C1107 0.930 . S
C1093 H1081 0.930 . S
C1093 C1094 1.399 . S
C1093 C1098 1.399 . S
C1094 C1093 1.399 . S
C1094 C1095 1.376 1_545 S
C1095 H1082 0.930 . S
C1095 C1094 1.376 1_565 S
C1095 C1096 1.388 1_565 S
C1096 H1083 0.930 1_545 S
C1096 C1095 1.388 1_545 S
C1096 C1097 1.390 . S
C1097 C1096 1.390 . S
C1097 C1098 1.394 . S
C1097 C1103 1.465 . S
C1098 C1093 1.399 . S
C1098 C1097 1.394 . S
C1098 C1099 1.516 . S
C1099 C1098 1.516 . S
C1099 C1100 1.502 . S
C1099 C1101 1.561 . S
C1099 C1102 1.526 . S
C1100 H1084 0.959 . S
C1100 H1085 0.959 . S
C1100 H1086 0.961 . S
C1100 C1099 1.502 . S
C1101 H1087 0.960 . S
C1101 H1088 0.961 . S
C1101 H1089 0.959 . S
C1101 C1099 1.561 . S
C1102 C1099 1.526 . S
C1102 C1103 1.396 . S
C1102 C1107 1.390 . S
C1103 C1097 1.465 . S
C1103 C1102 1.396 . S
C1103 C1104 1.399 . S
C1104 H1090 0.929 . S
C1104 C1103 1.399 . S
C1104 C1105 1.385 . S
C1105 H1091 0.931 . S
C1105 C1104 1.385 . S
C1105 C1106 1.389 . S
C1106 C1105 1.389 . S
C1106 C1107 1.387 . S
C1107 H1092 0.930 . S
C1107 C1102 1.390 . S
C1107 C1106 1.387 . S
H1108 C1120 0.930 . S
H1109 C1122 0.930 . S
H1110 C1123 0.930 . S
H1111 C1127 0.959 1_455 S
H1112 C1127 0.961 . S
H1113 C1127 0.961 . S
H1114 C1128 0.960 . S
H1115 C1128 0.961 . S
H1116 C1128 0.959 . S
H1117 C1131 0.929 . S
H1118 C1132 0.931 . S
H1119 C1134 0.930 . S
C1120 H1108 0.930 . S
C1120 C1121 1.399 . S
C1120 C1125 1.399 . S
C1121 C1120 1.399 . S
C1121 C1122 1.376 . S
C1122 H1109 0.930 . S
C1122 C1121 1.376 . S
C1122 C1123 1.388 . S
C1123 H1110 0.930 . S
C1123 C1122 1.388 . S
C1123 C1124 1.390 . S
C1124 C1123 1.390 . S
C1124 C1125 1.394 . S
C1124 C1130 1.465 . S
C1125 C1120 1.399 . S
C1125 C1124 1.394 . S
C1125 C1126 1.516 . S
C1126 C1125 1.516 . S
C1126 C1127 1.502 . S
C1126 C1128 1.561 . S
C1126 C1129 1.526 . S
C1127 H1111 0.959 1_655 S
C1127 H1112 0.961 . S
C1127 H1113 0.961 . S
C1127 C1126 1.502 . S
C1128 H1114 0.960 . S
C1128 H1115 0.961 . S
C1128 H1116 0.959 . S
C1128 C1126 1.561 . S
C1129 C1126 1.526 . S
C1129 C1130 1.396 . S
C1129 C1134 1.390 . S
C1130 C1124 1.465 . S
C1130 C1129 1.396 . S
C1130 C1131 1.399 . S
C1131 H1117 0.929 . S
C1131 C1130 1.399 . S
C1131 C1132 1.385 . S
C1132 H1118 0.931 . S
C1132 C1131 1.385 . S
C1132 C1133 1.389 . S
C1133 C1132 1.389 . S
C1133 C1134 1.387 . S
C1134 H1119 0.930 . S
C1134 C1129 1.390 . S
C1134 C1133 1.387 . S
H1135 C1147 0.930 . S
H1136 C1149 0.930 . S
H1137 C1150 0.930 . S
H1138 C1154 0.959 . S
H1139 C1154 0.959 . S
H1140 C1154 0.961 . S
H1141 C1155 0.960 . S
H1142 C1155 0.961 . S
H1143 C1155 0.959 . S
H1144 C1158 0.929 . S
H1145 C1159 0.931 . S
H1146 C1161 0.930 . S
C1147 H1135 0.930 . S
C1147 C1148 1.399 . S
C1147 C1152 1.399 . S
C1148 C1147 1.399 . S
C1148 C1149 1.376 . S
C1149 H1136 0.930 . S
C1149 C1148 1.376 . S
C1149 C1150 1.388 . S
C1150 H1137 0.930 . S
C1150 C1149 1.388 . S
C1150 C1151 1.390 . S
C1151 C1150 1.390 . S
C1151 C1152 1.394 . S
C1151 C1157 1.465 . S
C1152 C1147 1.399 . S
C1152 C1151 1.394 . S
C1152 C1153 1.516 . S
C1153 C1152 1.516 . S
C1153 C1154 1.502 . S
C1153 C1155 1.561 . S
C1153 C1156 1.526 . S
C1154 H1138 0.959 . S
C1154 H1139 0.959 . S
C1154 H1140 0.961 . S
C1154 C1153 1.502 . S
C1155 H1141 0.960 . S
C1155 H1142 0.961 . S
C1155 H1143 0.959 . S
C1155 C1153 1.561 . S
C1156 C1153 1.526 . S
C1156 C1157 1.396 . S
C1156 C1161 1.390 . S
C1157 C1151 1.465 . S
C1157 C1156 1.396 . S
C1157 C1158 1.399 . S
C1158 H1144 0.929 . S
C1158 C1157 1.399 . S
C1158 C1159 1.385 . S
C1159 H1145 0.931 . S
C1159 C1158 1.385 . S
C1159 C1160 1.389 . S
C1160 C1159 1.389 . S
C1160 C1161 1.387 . S
C1161 H1146 0.930 . S
C1161 C1156 1.390 . S
C1161 C1160 1.387 . S
H1162 C1174 0.930 . S
H1163 C1176 0.930 . S
H1164 C1177 0.930 . S
H1165 C1181 0.959 . S
H1166 C1181 0.959 . S
H1167 C1181 0.961 . S
H1168 C1182 0.960 . S
H1169 C1182 0.961 . S
H1170 C1182 0.959 . S
H1171 C1185 0.929 . S
H1172 C1186 0.931 . S
H1173 C1188 0.930 . S
C1174 H1162 0.930 . S
C1174 C1175 1.399 . S
C1174 C1179 1.399 . S
C1175 C1174 1.399 . S
C1175 C1176 1.376 . S
C1176 H1163 0.930 . S
C1176 C1175 1.376 . S
C1176 C1177 1.388 . S
C1177 H1164 0.930 . S
C1177 C1176 1.388 . S
C1177 C1178 1.390 . S
C1178 C1177 1.390 . S
C1178 C1179 1.394 . S
C1178 C1184 1.465 . S
C1179 C1174 1.399 . S
C1179 C1178 1.394 . S
C1179 C1180 1.516 . S
C1180 C1179 1.516 . S
C1180 C1181 1.502 . S
C1180 C1182 1.561 . S
C1180 C1183 1.526 . S
C1181 H1165 0.959 . S
C1181 H1166 0.959 . S
C1181 H1167 0.961 . S
C1181 C1180 1.502 . S
C1182 H1168 0.960 . S
C1182 H1169 0.961 . S
C1182 H1170 0.959 . S
C1182 C1180 1.561 . S
C1183 C1180 1.526 . S
C1183 C1184 1.396 . S
C1183 C1188 1.390 . S
C1184 C1178 1.465 . S
C1184 C1183 1.396 . S
C1184 C1185 1.399 . S
C1185 H1171 0.929 . S
C1185 C1184 1.399 . S
C1185 C1186 1.385 . S
C1186 H1172 0.931 . S
C1186 C1185 1.385 . S
C1186 C1187 1.389 . S
C1187 C1186 1.389 . S
C1187 C1188 1.387 . S
C1188 H1173 0.930 . S
C1188 C1183 1.390 . S
C1188 C1187 1.387 . S
H1189 C1201 0.930 . S
H1190 C1203 0.930 . S
H1191 C1204 0.930 . S
H1192 C1208 0.959 . S
H1193 C1208 0.959 . S
H1194 C1208 0.961 . S
H1195 C1209 0.960 . S
H1196 C1209 0.961 . S
H1197 C1209 0.959 . S
H1198 C1212 0.929 . S
H1199 C1213 0.931 . S
H1200 C1215 0.930 . S
C1201 H1189 0.930 . S
C1201 C1202 1.399 . S
C1201 C1206 1.399 . S
C1202 C1201 1.399 . S
C1202 C1203 1.376 . S
C1203 H1190 0.930 . S
C1203 C1202 1.376 . S
C1203 C1204 1.388 . S
C1204 H1191 0.930 . S
C1204 C1203 1.388 . S
C1204 C1205 1.390 . S
C1205 C1204 1.390 . S
C1205 C1206 1.394 . S
C1205 C1211 1.465 . S
C1206 C1201 1.399 . S
C1206 C1205 1.394 . S
C1206 C1207 1.516 . S
C1207 C1206 1.516 . S
C1207 C1208 1.502 . S
C1207 C1209 1.561 . S
C1207 C1210 1.526 . S
C1208 H1192 0.959 . S
C1208 H1193 0.959 . S
C1208 H1194 0.961 . S
C1208 C1207 1.502 . S
C1209 H1195 0.960 . S
C1209 H1196 0.961 . S
C1209 H1197 0.959 . S
C1209 C1207 1.561 . S
C1210 C1207 1.526 . S
C1210 C1211 1.396 . S
C1210 C1215 1.390 . S
C1211 C1205 1.465 . S
C1211 C1210 1.396 . S
C1211 C1212 1.399 . S
C1212 H1198 0.929 . S
C1212 C1211 1.399 . S
C1212 C1213 1.385 . S
C1213 H1199 0.931 . S
C1213 C1212 1.385 . S
C1213 C1214 1.389 . S
C1214 C1213 1.389 . S
C1214 C1215 1.387 . S
C1215 H1200 0.930 . S
C1215 C1210 1.390 . S
C1215 C1214 1.387 . S
H1216 C1228 0.930 . S
H1217 C1230 0.930 . S
H1218 C1231 0.930 . S
H1219 C1235 0.959 . S
H1220 C1235 0.959 . S
H1221 C1235 0.961 . S
H1222 C1236 0.960 . S
H1223 C1236 0.961 . S
H1224 C1236 0.959 . S
H1225 C1239 0.929 . S
H1226 C1240 0.931 . S
H1227 C1242 0.930 . S
C1228 H1216 0.930 . S
C1228 C1229 1.399 . S
C1228 C1233 1.399 . S
C1229 C1228 1.399 . S
C1229 C1230 1.376 . S
C1230 H1217 0.930 . S
C1230 C1229 1.376 . S
C1230 C1231 1.388 . S
C1231 H1218 0.930 . S
C1231 C1230 1.388 . S
C1231 C1232 1.390 . S
C1232 C1231 1.390 . S
C1232 C1233 1.394 . S
C1232 C1238 1.465 . S
C1233 C1228 1.399 . S
C1233 C1232 1.394 . S
C1233 C1234 1.528 . S
C1234 C1233 1.528 . S
C1234 C1235 1.498 1_554 S
C1234 C1236 1.555 1_554 S
C1234 C1237 1.525 1_554 S
C1235 H1219 0.959 . S
C1235 H1220 0.959 . S
C1235 H1221 0.961 . S
C1235 C1234 1.498 1_556 S
C1236 H1222 0.960 . S
C1236 H1223 0.961 . S
C1236 H1224 0.959 . S
C1236 C1234 1.555 1_556 S
C1237 C1234 1.525 1_556 S
C1237 C1238 1.396 1_556 S
C1237 C1242 1.390 . S
C1238 C1232 1.465 . S
C1238 C1237 1.396 1_554 S
C1238 C1239 1.399 . S
C1239 H1225 0.929 . S
C1239 C1238 1.399 . S
C1239 C1240 1.385 . S
C1240 H1226 0.931 . S
C1240 C1239 1.385 . S
C1240 C1241 1.389 1_554 S
C1241 C1240 1.389 1_556 S
C1241 C1242 1.387 . S
C1242 H1227 0.930 . S
C1242 C1237 1.390 . S
C1242 C1241 1.387 . S
H1243 C1255 0.930 . S
H1244 C1257 0.930 . S
H1245 C1258 0.930 . S
H1246 C1262 0.959 . S
H1247 C1262 0.959 . S
H1248 C1262 0.961 . S
H1249 C1263 0.960 . S
H1250 C1263 0.961 . S
H1251 C1263 0.959 . S
H1252 C1266 0.929 . S
H1253 C1267 0.931 . S
H1254 C1269 0.930 . S
C1255 H1243 0.930 . S
C1255 C1256 1.399 . S
C1255 C1260 1.399 . S
C1256 C1255 1.399 . S
C1256 C1257 1.376 1_556 S
C1257 H1244 0.930 . S
C1257 C1256 1.376 1_554 S
C1257 C1258 1.388 . S
C1258 H1245 0.930 . S
C1258 C1257 1.388 . S
C1258 C1259 1.390 . S
C1259 C1258 1.390 . S
C1259 C1260 1.394 1_554 S
C1259 C1265 1.465 . S
C1260 C1255 1.399 . S
C1260 C1259 1.394 1_556 S
C1260 C1261 1.516 1_556 S
C1261 C1260 1.516 1_554 S
C1261 C1262 1.499 1_554 S
C1261 C1263 1.559 1_554 S
C1261 C1264 1.531 . S
C1262 H1246 0.959 . S
C1262 H1247 0.959 . S
C1262 H1248 0.961 . S
C1262 C1261 1.499 1_556 S
C1263 H1249 0.960 . S
C1263 H1250 0.961 . S
C1263 H1251 0.959 . S
C1263 C1261 1.559 1_556 S
C1264 C1261 1.531 . S
C1264 C1265 1.396 . S
C1264 C1269 1.390 . S
C1265 C1259 1.465 . S
C1265 C1264 1.396 . S
C1265 C1266 1.399 . S
C1266 H1252 0.929 . S
C1266 C1265 1.399 . S
C1266 C1267 1.385 . S
C1267 H1253 0.931 . S
C1267 C1266 1.385 . S
C1267 C1268 1.389 . S
C1268 C1267 1.389 . S
C1268 C1269 1.387 . S
C1269 H1254 0.930 . S
C1269 C1264 1.390 . S
C1269 C1268 1.387 . S
H1270 C1282 0.930 . S
H1271 C1284 0.930 . S
H1272 C1285 0.930 . S
H1273 C1289 0.959 . S
H1274 C1289 0.959 . S
H1275 C1289 0.961 . S
H1276 C1290 0.960 . S
H1277 C1290 0.961 . S
H1278 C1290 0.959 . S
H1279 C1293 0.929 . S
H1280 C1294 0.931 . S
H1281 C1296 0.943 . S
C1282 H1270 0.930 . S
C1282 C1283 1.399 . S
C1282 C1287 1.399 . S
C1283 C1282 1.399 . S
C1283 C1284 1.376 . S
C1284 H1271 0.930 . S
C1284 C1283 1.376 . S
C1284 C1285 1.388 . S
C1285 H1272 0.930 . S
C1285 C1284 1.388 . S
C1285 C1286 1.390 . S
C1286 C1285 1.390 . S
C1286 C1287 1.394 . S
C1286 C1292 1.465 . S
C1287 C1282 1.399 . S
C1287 C1286 1.394 . S
C1287 C1288 1.516 . S
C1288 C1287 1.516 . S
C1288 C1289 1.502 . S
C1288 C1290 1.561 . S
C1288 C1291 1.526 . S
C1289 H1273 0.959 . S
C1289 H1274 0.959 . S
C1289 H1275 0.961 . S
C1289 C1288 1.502 . S
C1290 H1276 0.960 . S
C1290 H1277 0.961 . S
C1290 H1278 0.959 . S
C1290 C1288 1.561 . S
C1291 C1288 1.526 . S
C1291 C1292 1.396 . S
C1291 C1296 1.406 . S
C1292 C1286 1.465 . S
C1292 C1291 1.396 . S
C1292 C1293 1.399 1_554 S
C1293 H1279 0.929 . S
C1293 C1292 1.399 1_556 S
C1293 C1294 1.385 . S
C1294 H1280 0.931 . S
C1294 C1293 1.385 . S
C1294 C1295 1.389 . S
C1295 C1294 1.389 . S
C1295 C1296 1.357 1_556 S
C1296 H1281 0.943 . S
C1296 C1291 1.406 . S
C1296 C1295 1.357 1_554 S
H1297 C1309 0.917 1_554 S
H1298 C1311 0.930 . S
H1299 C1312 0.930 . S
H1300 C1316 0.959 . S
H1301 C1316 0.959 . S
H1302 C1316 0.961 . S
H1303 C1317 0.960 1_545 S
H1304 C1317 0.961 . S
H1305 C1317 0.959 . S
H1306 C1320 0.929 . S
H1307 C1321 0.931 . S
H1308 C1323 0.930 . S
C1309 H1297 0.917 1_556 S
C1309 C1310 1.432 . S
C1309 C1314 1.380 1_556 S
C1310 C1309 1.432 . S
C1310 C1311 1.376 . S
C1311 H1298 0.930 . S
C1311 C1310 1.376 . S
C1311 C1312 1.388 . S
C1312 H1299 0.930 . S
C1312 C1311 1.388 . S
C1312 C1313 1.390 1_556 S
C1313 C1312 1.390 1_554 S
C1313 C1314 1.394 . S
C1313 C1319 1.465 . S
C1314 C1309 1.380 1_554 S
C1314 C1313 1.394 . S
C1314 C1315 1.516 . S
C1315 C1314 1.516 . S
C1315 C1316 1.502 . S
C1315 C1317 1.561 . S
C1315 C1318 1.526 . S
C1316 H1300 0.959 . S
C1316 H1301 0.959 . S
C1316 H1302 0.961 . S
C1316 C1315 1.502 . S
C1317 H1303 0.960 1_565 S
C1317 H1304 0.961 . S
C1317 H1305 0.959 . S
C1317 C1315 1.561 . S
C1318 C1315 1.526 . S
C1318 C1319 1.396 . S
C1318 C1323 1.390 . S
C1319 C1313 1.465 . S
C1319 C1318 1.396 . S
C1319 C1320 1.399 . S
C1320 H1306 0.929 . S
C1320 C1319 1.399 . S
C1320 C1321 1.385 . S
C1321 H1307 0.931 . S
C1321 C1320 1.385 . S
C1321 C1322 1.389 . S
C1322 C1321 1.389 . S
C1322 C1323 1.387 . S
C1323 H1308 0.930 . S
C1323 C1318 1.390 . S
C1323 C1322 1.387 . S
H1324 C1336 0.930 . S
H1325 C1338 0.930 . S
H1326 C1339 0.930 . S
H1327 C1343 0.959 . S
H1328 C1343 0.959 . S
H1329 C1343 0.961 . S
H1330 C1344 0.960 . S
H1331 C1344 0.961 . S
H1332 C1344 0.959 . S
H1333 C1347 0.929 . S
H1334 C1348 0.931 . S
H1335 C1350 0.930 . S
C1336 H1324 0.930 . S
C1336 C1337 1.399 . S
C1336 C1341 1.399 . S
C1337 C1336 1.399 . S
C1337 C1338 1.376 . S
C1338 H1325 0.930 . S
C1338 C1337 1.376 . S
C1338 C1339 1.388 . S
C1339 H1326 0.930 . S
C1339 C1338 1.388 . S
C1339 C1340 1.390 . S
C1340 C1339 1.390 . S
C1340 C1341 1.394 . S
C1340 C1346 1.465 . S
C1341 C1336 1.399 . S
C1341 C1340 1.394 . S
C1341 C1342 1.516 . S
C1342 C1341 1.516 . S
C1342 C1343 1.502 . S
C1342 C1344 1.561 . S
C1342 C1345 1.526 . S
C1343 H1327 0.959 . S
C1343 H1328 0.959 . S
C1343 H1329 0.961 . S
C1343 C1342 1.502 . S
C1344 H1330 0.960 . S
C1344 H1331 0.961 . S
C1344 H1332 0.959 . S
C1344 C1342 1.561 . S
C1345 C1342 1.526 . S
C1345 C1346 1.396 . S
C1345 C1350 1.390 . S
C1346 C1340 1.465 . S
C1346 C1345 1.396 . S
C1346 C1347 1.399 . S
C1347 H1333 0.929 . S
C1347 C1346 1.399 . S
C1347 C1348 1.385 . S
C1348 H1334 0.931 . S
C1348 C1347 1.385 . S
C1348 C1349 1.389 . S
C1349 C1348 1.389 . S
C1349 C1350 1.387 . S
C1350 H1335 0.930 . S
C1350 C1345 1.390 . S
C1350 C1349 1.387 . S
H1351 C1363 0.930 . S
H1352 C1365 0.930 . S
H1353 C1366 0.930 . S
H1354 C1370 0.959 . S
H1355 C1370 0.959 . S
H1356 C1370 0.961 . S
H1357 C1371 0.960 1_565 S
H1358 C1371 0.961 . S
H1359 C1371 0.959 . S
H1360 C1374 0.929 . S
H1361 C1375 0.931 . S
H1362 C1377 0.930 . S
C1363 H1351 0.930 . S
C1363 C1364 1.399 . S
C1363 C1368 1.399 . S
C1364 C1363 1.399 . S
C1364 C1365 1.376 . S
C1365 H1352 0.930 . S
C1365 C1364 1.376 . S
C1365 C1366 1.388 . S
C1366 H1353 0.930 . S
C1366 C1365 1.388 . S
C1366 C1367 1.390 . S
C1367 C1366 1.390 . S
C1367 C1368 1.394 . S
C1367 C1373 1.465 . S
C1368 C1363 1.399 . S
C1368 C1367 1.394 . S
C1368 C1369 1.516 . S
C1369 C1368 1.516 . S
C1369 C1370 1.502 . S
C1369 C1371 1.561 . S
C1369 C1372 1.526 . S
C1370 H1354 0.959 . S
C1370 H1355 0.959 . S
C1370 H1356 0.961 . S
C1370 C1369 1.502 . S
C1371 H1357 0.960 1_545 S
C1371 H1358 0.961 . S
C1371 H1359 0.959 . S
C1371 C1369 1.561 . S
C1372 C1369 1.526 . S
C1372 C1373 1.396 . S
C1372 C1377 1.390 . S
C1373 C1367 1.465 . S
C1373 C1372 1.396 . S
C1373 C1374 1.399 . S
C1374 H1360 0.929 . S
C1374 C1373 1.399 . S
C1374 C1375 1.385 . S
C1375 H1361 0.931 . S
C1375 C1374 1.385 . S
C1375 C1376 1.389 . S
C1376 C1375 1.389 . S
C1376 C1377 1.387 . S
C1377 H1362 0.930 . S
C1377 C1372 1.390 . S
C1377 C1376 1.387 . S
H1378 C1390 0.930 . S
H1379 C1392 0.930 . S
H1380 C1393 0.930 . S
H1381 C1397 0.959 . S
H1382 C1397 0.959 . S
H1383 C1397 0.961 . S
H1384 C1398 0.960 . S
H1385 C1398 0.961 . S
H1386 C1398 0.959 . S
H1387 C1401 0.929 . S
H1388 C1402 0.931 . S
H1389 C1404 0.930 . S
C1390 H1378 0.930 . S
C1390 C1391 1.399 . S
C1390 C1395 1.399 . S
C1391 C1390 1.399 . S
C1391 C1392 1.376 . S
C1392 H1379 0.930 . S
C1392 C1391 1.376 . S
C1392 C1393 1.388 . S
C1393 H1380 0.930 . S
C1393 C1392 1.388 . S
C1393 C1394 1.390 . S
C1394 C1393 1.390 . S
C1394 C1395 1.394 . S
C1394 C1400 1.465 . S
C1395 C1390 1.399 . S
C1395 C1394 1.394 . S
C1395 C1396 1.516 . S
C1396 C1395 1.516 . S
C1396 C1397 1.502 . S
C1396 C1398 1.561 . S
C1396 C1399 1.526 . S
C1397 H1381 0.959 . S
C1397 H1382 0.959 . S
C1397 H1383 0.961 . S
C1397 C1396 1.502 . S
C1398 H1384 0.960 . S
C1398 H1385 0.961 . S
C1398 H1386 0.959 . S
C1398 C1396 1.561 . S
C1399 C1396 1.526 . S
C1399 C1400 1.396 . S
C1399 C1404 1.390 . S
C1400 C1394 1.465 . S
C1400 C1399 1.396 . S
C1400 C1401 1.399 . S
C1401 H1387 0.929 . S
C1401 C1400 1.399 . S
C1401 C1402 1.385 . S
C1402 H1388 0.931 . S
C1402 C1401 1.385 . S
C1402 C1403 1.389 . S
C1403 C1402 1.389 . S
C1403 C1404 1.387 . S
C1404 H1389 0.930 . S
C1404 C1399 1.390 . S
C1404 C1403 1.387 . S
H1405 C1417 0.930 . S
H1406 C1419 0.930 . S
H1407 C1420 0.930 . S
H1408 C1424 0.959 . S
H1409 C1424 0.959 . S
H1410 C1424 0.961 . S
H1411 C1425 0.960 . S
H1412 C1425 0.961 . S
H1413 C1425 0.959 . S
H1414 C1428 0.929 . S
H1415 C1429 0.931 . S
H1416 C1431 0.930 . S
C1417 H1405 0.930 . S
C1417 C1418 1.399 . S
C1417 C1422 1.399 . S
C1418 C1417 1.399 . S
C1418 C1419 1.376 . S
C1419 H1406 0.930 . S
C1419 C1418 1.376 . S
C1419 C1420 1.388 . S
C1420 H1407 0.930 . S
C1420 C1419 1.388 . S
C1420 C1421 1.390 . S
C1421 C1420 1.390 . S
C1421 C1422 1.394 . S
C1421 C1427 1.465 . S
C1422 C1417 1.399 . S
C1422 C1421 1.394 . S
C1422 C1423 1.516 . S
C1423 C1422 1.516 . S
C1423 C1424 1.502 . S
C1423 C1425 1.561 . S
C1423 C1426 1.526 . S
C1424 H1408 0.959 . S
C1424 H1409 0.959 . S
C1424 H1410 0.961 . S
C1424 C1423 1.502 . S
C1425 H1411 0.960 . S
C1425 H1412 0.961 . S
C1425 H1413 0.959 . S
C1425 C1423 1.561 . S
C1426 C1423 1.526 . S
C1426 C1427 1.396 . S
C1426 C1431 1.390 . S
C1427 C1421 1.465 . S
C1427 C1426 1.396 . S
C1427 C1428 1.399 . S
C1428 H1414 0.929 . S
C1428 C1427 1.399 . S
C1428 C1429 1.385 . S
C1429 H1415 0.931 . S
C1429 C1428 1.385 . S
C1429 C1430 1.389 . S
C1430 C1429 1.389 . S
C1430 C1431 1.387 . S
C1431 H1416 0.930 . S
C1431 C1426 1.390 . S
C1431 C1430 1.387 . S
H1432 C1444 0.930 1_556 S
H1433 C1446 0.930 . S
H1434 C1447 0.930 . S
H1435 C1451 0.959 . S
H1436 C1451 0.959 . S
H1437 C1451 0.961 . S
H1438 C1452 0.960 . S
H1439 C1452 0.961 . S
H1440 C1452 0.959 . S
H1441 C1455 0.929 . S
H1442 C1456 0.931 . S
H1443 C1458 0.930 . S
C1444 H1432 0.930 1_554 S
C1444 C1445 1.399 . S
C1444 C1449 1.399 1_554 S
C1445 C1444 1.399 . S
C1445 C1446 1.376 . S
C1446 H1433 0.930 . S
C1446 C1445 1.376 . S
C1446 C1447 1.388 . S
C1447 H1434 0.930 . S
C1447 C1446 1.388 . S
C1447 C1448 1.390 1_554 S
C1448 C1447 1.390 1_556 S
C1448 C1449 1.394 . S
C1448 C1454 1.465 . S
C1449 C1444 1.399 1_556 S
C1449 C1448 1.394 . S
C1449 C1450 1.516 . S
C1450 C1449 1.516 . S
C1450 C1451 1.502 . S
C1450 C1452 1.561 . S
C1450 C1453 1.526 . S
C1451 H1435 0.959 . S
C1451 H1436 0.959 . S
C1451 H1437 0.961 . S
C1451 C1450 1.502 . S
C1452 H1438 0.960 . S
C1452 H1439 0.961 . S
C1452 H1440 0.959 . S
C1452 C1450 1.561 . S
C1453 C1450 1.526 . S
C1453 C1454 1.396 . S
C1453 C1458 1.390 . S
C1454 C1448 1.465 . S
C1454 C1453 1.396 . S
C1454 C1455 1.399 . S
C1455 H1441 0.929 . S
C1455 C1454 1.399 . S
C1455 C1456 1.385 . S
C1456 H1442 0.931 . S
C1456 C1455 1.385 . S
C1456 C1457 1.389 . S
C1457 C1456 1.389 . S
C1457 C1458 1.387 . S
C1458 H1443 0.930 . S
C1458 C1453 1.390 . S
C1458 C1457 1.387 . S
H1459 C1471 0.930 . S
H1460 C1473 0.930 . S
H1461 C1474 0.930 . S
H1462 C1478 0.959 . S
H1463 C1478 0.959 . S
H1464 C1478 0.961 . S
H1465 C1479 0.960 . S
H1466 C1479 0.961 1_554 S
H1467 C1479 0.959 . S
H1468 C1482 0.929 . S
H1469 C1483 0.931 . S
H1470 C1485 0.930 . S
C1471 H1459 0.930 . S
C1471 C1472 1.399 . S
C1471 C1476 1.399 . S
C1472 C1471 1.399 . S
C1472 C1473 1.376 . S
C1473 H1460 0.930 . S
C1473 C1472 1.376 . S
C1473 C1474 1.388 . S
C1474 H1461 0.930 . S
C1474 C1473 1.388 . S
C1474 C1475 1.390 . S
C1475 C1474 1.390 . S
C1475 C1476 1.394 . S
C1475 C1481 1.465 . S
C1476 C1471 1.399 . S
C1476 C1475 1.394 . S
C1476 C1477 1.516 . S
C1477 C1476 1.516 . S
C1477 C1478 1.502 1_556 S
C1477 C1479 1.561 . S
C1477 C1480 1.528 . S
C1478 H1462 0.959 . S
C1478 H1463 0.959 . S
C1478 H1464 0.961 . S
C1478 C1477 1.502 1_554 S
C1479 H1465 0.960 . S
C1479 H1466 0.961 1_556 S
C1479 H1467 0.959 . S
C1479 C1477 1.561 . S
C1480 C1477 1.528 . S
C1480 C1481 1.405 . S
C1480 C1485 1.380 1_556 S
C1481 C1475 1.465 . S
C1481 C1480 1.405 . S
C1481 C1482 1.399 . S
C1482 H1468 0.929 . S
C1482 C1481 1.399 . S
C1482 C1483 1.393 . S
C1483 H1469 0.931 . S
C1483 C1482 1.393 . S
C1483 C1484 1.381 1_556 S
C1484 C1483 1.381 1_554 S
C1484 C1485 1.387 . S
C1485 H1470 0.930 . S
C1485 C1480 1.380 1_554 S
C1485 C1484 1.387 . S
H1486 C1498 0.930 . S
H1487 C1500 0.930 . S
H1488 C1501 0.930 . S
H1489 C1505 0.959 . S
H1490 C1505 0.959 . S
H1491 C1505 0.961 . S
H1492 C1506 0.960 . S
H1493 C1506 0.961 . S
H1494 C1506 0.959 . S
H1495 C1509 0.929 . S
H1496 C1510 0.931 . S
H1497 C1512 0.930 . S
C1498 H1486 0.930 . S
C1498 C1499 1.399 . S
C1498 C1503 1.399 1_554 S
C1499 C1498 1.399 . S
C1499 C1500 1.376 . S
C1500 H1487 0.930 . S
C1500 C1499 1.376 . S
C1500 C1501 1.388 1_554 S
C1501 H1488 0.930 . S
C1501 C1500 1.388 1_556 S
C1501 C1502 1.390 . S
C1502 C1501 1.390 . S
C1502 C1503 1.394 . S
C1502 C1508 1.465 . S
C1503 C1498 1.399 1_556 S
C1503 C1502 1.394 . S
C1503 C1504 1.516 . S
C1504 C1503 1.516 . S
C1504 C1505 1.502 1_556 S
C1504 C1506 1.561 . S
C1504 C1507 1.526 . S
C1505 H1489 0.959 . S
C1505 H1490 0.959 . S
C1505 H1491 0.961 . S
C1505 C1504 1.502 1_554 S
C1506 H1492 0.960 . S
C1506 H1493 0.961 . S
C1506 H1494 0.959 . S
C1506 C1504 1.561 . S
C1507 C1504 1.526 . S
C1507 C1508 1.396 . S
C1507 C1512 1.390 . S
C1508 C1502 1.465 . S
C1508 C1507 1.396 . S
C1508 C1509 1.399 . S
C1509 H1495 0.929 . S
C1509 C1508 1.399 . S
C1509 C1510 1.385 . S
C1510 H1496 0.931 . S
C1510 C1509 1.385 . S
C1510 C1511 1.389 . S
C1511 C1510 1.389 . S
C1511 C1512 1.387 . S
C1512 H1497 0.930 . S
C1512 C1507 1.390 . S
C1512 C1511 1.387 . S
H1513 C1525 0.930 . S
H1514 C1527 0.930 . S
H1515 C1528 0.930 . S
H1516 C1532 0.959 . S
H1517 C1532 0.959 . S
H1518 C1532 0.961 . S
H1519 C1533 0.960 . S
H1520 C1533 0.961 . S
H1521 C1533 0.959 . S
H1522 C1536 0.929 . S
H1523 C1537 0.931 . S
H1524 C1539 0.930 . S
C1525 H1513 0.930 . S
C1525 C1526 1.399 . S
C1525 C1530 1.399 1_554 S
C1526 C1525 1.399 . S
C1526 C1527 1.376 . S
C1527 H1514 0.930 . S
C1527 C1526 1.376 . S
C1527 C1528 1.388 1_554 S
C1528 H1515 0.930 . S
C1528 C1527 1.388 1_556 S
C1528 C1529 1.390 . S
C1529 C1528 1.390 . S
C1529 C1530 1.394 . S
C1529 C1535 1.465 . S
C1530 C1525 1.399 1_556 S
C1530 C1529 1.394 . S
C1530 C1531 1.516 . S
C1531 C1530 1.516 . S
C1531 C1532 1.502 . S
C1531 C1533 1.561 1_556 S
C1531 C1534 1.526 . S
C1532 H1516 0.959 . S
C1532 H1517 0.959 . S
C1532 H1518 0.961 . S
C1532 C1531 1.502 . S
C1533 H1519 0.960 . S
C1533 H1520 0.961 . S
C1533 H1521 0.959 . S
C1533 C1531 1.561 1_554 S
C1534 C1531 1.526 . S
C1534 C1535 1.396 . S
C1534 C1539 1.390 . S
C1535 C1529 1.465 . S
C1535 C1534 1.396 . S
C1535 C1536 1.399 . S
C1536 H1522 0.929 . S
C1536 C1535 1.399 . S
C1536 C1537 1.385 . S
C1537 H1523 0.931 . S
C1537 C1536 1.385 . S
C1537 C1538 1.389 . S
C1538 C1537 1.389 . S
C1538 C1539 1.387 . S
C1539 H1524 0.930 . S
C1539 C1534 1.390 . S
C1539 C1538 1.387 . S
H1540 C1552 0.930 . S
H1541 C1554 0.930 . S
H1542 C1555 0.930 . S
H1543 C1559 0.959 . S
H1544 C1559 0.959 . S
H1545 C1559 0.961 . S
H1546 C1560 0.960 . S
H1547 C1560 0.961 . S
H1548 C1560 0.959 . S
H1549 C1563 0.929 . S
H1550 C1564 0.931 . S
H1551 C1566 0.930 . S
C1552 H1540 0.930 . S
C1552 C1553 1.399 . S
C1552 C1557 1.399 . S
C1553 C1552 1.399 . S
C1553 C1554 1.376 . S
C1554 H1541 0.930 . S
C1554 C1553 1.376 . S
C1554 C1555 1.388 . S
C1555 H1542 0.930 . S
C1555 C1554 1.388 . S
C1555 C1556 1.390 . S
C1556 C1555 1.390 . S
C1556 C1557 1.394 . S
C1556 C1562 1.465 . S
C1557 C1552 1.399 . S
C1557 C1556 1.394 . S
C1557 C1558 1.516 . S
C1558 C1557 1.516 . S
C1558 C1559 1.502 . S
C1558 C1560 1.561 . S
C1558 C1561 1.526 . S
C1559 H1543 0.959 . S
C1559 H1544 0.959 . S
C1559 H1545 0.961 . S
C1559 C1558 1.502 . S
C1560 H1546 0.960 . S
C1560 H1547 0.961 . S
C1560 H1548 0.959 . S
C1560 C1558 1.561 . S
C1561 C1558 1.526 . S
C1561 C1562 1.396 . S
C1561 C1566 1.390 . S
C1562 C1556 1.465 . S
C1562 C1561 1.396 . S
C1562 C1563 1.399 . S
C1563 H1549 0.929 . S
C1563 C1562 1.399 . S
C1563 C1564 1.385 . S
C1564 H1550 0.931 . S
C1564 C1563 1.385 . S
C1564 C1565 1.389 . S
C1565 C1564 1.389 . S
C1565 C1566 1.387 . S
C1566 H1551 0.930 . S
C1566 C1561 1.390 . S
C1566 C1565 1.387 . S
H1567 C1579 0.930 . S
H1568 C1581 0.930 . S
H1569 C1582 0.930 . S
H1570 C1586 0.959 . S
H1571 C1586 0.959 . S
H1572 C1586 0.961 . S
H1573 C1587 0.960 . S
H1574 C1587 0.961 . S
H1575 C1587 0.959 . S
H1576 C1590 0.929 . S
H1577 C1591 0.931 . S
H1578 C1593 0.930 . S
C1579 H1567 0.930 . S
C1579 C1580 1.399 . S
C1579 C1584 1.399 . S
C1580 C1579 1.399 . S
C1580 C1581 1.376 . S
C1581 H1568 0.930 . S
C1581 C1580 1.376 . S
C1581 C1582 1.388 . S
C1582 H1569 0.930 . S
C1582 C1581 1.388 . S
C1582 C1583 1.390 . S
C1583 C1582 1.390 . S
C1583 C1584 1.394 . S
C1583 C1589 1.465 . S
C1584 C1579 1.399 . S
C1584 C1583 1.394 . S
C1584 C1585 1.516 . S
C1585 C1584 1.516 . S
C1585 C1586 1.502 . S
C1585 C1587 1.561 . S
C1585 C1588 1.526 . S
C1586 H1570 0.959 . S
C1586 H1571 0.959 . S
C1586 H1572 0.961 . S
C1586 C1585 1.502 . S
C1587 H1573 0.960 . S
C1587 H1574 0.961 . S
C1587 H1575 0.959 . S
C1587 C1585 1.561 . S
C1588 C1585 1.526 . S
C1588 C1589 1.396 . S
C1588 C1593 1.390 . S
C1589 C1583 1.465 . S
C1589 C1588 1.396 . S
C1589 C1590 1.399 . S
C1590 H1576 0.929 . S
C1590 C1589 1.399 . S
C1590 C1591 1.385 . S
C1591 H1577 0.931 . S
C1591 C1590 1.385 . S
C1591 C1592 1.389 . S
C1592 C1591 1.389 . S
C1592 C1593 1.387 . S
C1593 H1578 0.930 . S
C1593 C1588 1.390 . S
C1593 C1592 1.387 . S
H1594 C1606 0.930 . S
H1595 C1608 0.930 . S
H1596 C1609 0.930 . S
H1597 C1613 0.959 . S
H1598 C1613 0.959 . S
H1599 C1613 0.961 . S
H1600 C1614 0.960 . S
H1601 C1614 0.961 . S
H1602 C1614 0.959 . S
H1603 C1617 0.929 . S
H1604 C1618 0.931 . S
H1605 C1620 0.930 . S
C1606 H1594 0.930 . S
C1606 C1607 1.399 . S
C1606 C1611 1.399 . S
C1607 C1606 1.399 . S
C1607 C1608 1.376 . S
C1608 H1595 0.930 . S
C1608 C1607 1.376 . S
C1608 C1609 1.388 . S
C1609 H1596 0.930 . S
C1609 C1608 1.388 . S
C1609 C1610 1.390 . S
C1610 C1609 1.390 . S
C1610 C1611 1.394 . S
C1610 C1616 1.465 . S
C1611 C1606 1.399 . S
C1611 C1610 1.394 . S
C1611 C1612 1.516 . S
C1612 C1611 1.516 . S
C1612 C1613 1.502 . S
C1612 C1614 1.561 . S
C1612 C1615 1.526 . S
C1613 H1597 0.959 . S
C1613 H1598 0.959 . S
C1613 H1599 0.961 . S
C1613 C1612 1.502 . S
C1614 H1600 0.960 . S
C1614 H1601 0.961 . S
C1614 H1602 0.959 . S
C1614 C1612 1.561 . S
C1615 C1612 1.526 . S
C1615 C1616 1.396 . S
C1615 C1620 1.390 . S
C1616 C1610 1.465 . S
C1616 C1615 1.396 . S
C1616 C1617 1.399 . S
C1617 H1603 0.929 . S
C1617 C1616 1.399 . S
C1617 C1618 1.385 . S
C1618 H1604 0.931 . S
C1618 C1617 1.385 . S
C1618 C1619 1.389 . S
C1619 C1618 1.389 . S
C1619 C1620 1.387 . S
C1620 H1605 0.930 . S
C1620 C1615 1.390 . S
C1620 C1619 1.387 . S
H1621 C1633 0.930 . S
H1622 C1635 0.930 . S
H1623 C1636 0.930 . S
H1624 C1640 0.959 . S
H1625 C1640 0.959 . S
H1626 C1640 0.961 . S
H1627 C1641 0.960 . S
H1628 C1641 0.961 . S
H1629 C1641 0.959 . S
H1630 C1644 0.929 . S
H1631 C1645 0.931 . S
H1632 C1647 0.930 . S
C1633 H1621 0.930 . S
C1633 C1634 1.399 . S
C1633 C1638 1.399 . S
C1634 C1633 1.399 . S
C1634 C1635 1.376 . S
C1635 H1622 0.930 . S
C1635 C1634 1.376 . S
C1635 C1636 1.388 . S
C1636 H1623 0.930 . S
C1636 C1635 1.388 . S
C1636 C1637 1.390 . S
C1637 C1636 1.390 . S
C1637 C1638 1.394 . S
C1637 C1643 1.465 . S
C1638 C1633 1.399 . S
C1638 C1637 1.394 . S
C1638 C1639 1.516 . S
C1639 C1638 1.516 . S
C1639 C1640 1.502 . S
C1639 C1641 1.561 . S
C1639 C1642 1.526 . S
C1640 H1624 0.959 . S
C1640 H1625 0.959 . S
C1640 H1626 0.961 . S
C1640 C1639 1.502 . S
C1641 H1627 0.960 . S
C1641 H1628 0.961 . S
C1641 H1629 0.959 . S
C1641 C1639 1.561 . S
C1642 C1639 1.526 . S
C1642 C1643 1.396 . S
C1642 C1647 1.390 . S
C1643 C1637 1.465 . S
C1643 C1642 1.396 . S
C1643 C1644 1.399 . S
C1644 H1630 0.929 . S
C1644 C1643 1.399 . S
C1644 C1645 1.385 . S
C1645 H1631 0.931 . S
C1645 C1644 1.385 . S
C1645 C1646 1.389 . S
C1646 C1645 1.389 . S
C1646 C1647 1.387 . S
C1647 H1632 0.930 . S
C1647 C1642 1.390 . S
C1647 C1646 1.387 . S
C365 C10 1.366 . S
C377 C120 1.370 . S
C392 C30 1.375 . S
C404 C150 1.351 . S
C419 C172 1.377 . S
C431 C52 1.354 . S
C446 C98 1.366 . S
C458 C76 1.370 . S
C473 C194 1.372 . S
C485 C296 1.341 . S
C500 C206 1.352 . S
C512 C316 1.354 . S
C527 C238 1.374 . S
C539 C340 1.349 . S
C554 C252 1.352 . S
C566 C272 1.355 . S
C581 C7 0.800 . S
C593 C191 0.878 . S
C608 C37 0.759 . S
C620 C205 0.899 . S
C635 C235 0.902 . S
C647 C59 0.760 . S
C662 C263 0.872 . S
C674 C73 0.781 . S
C689 C95 0.765 . S
C701 C271 0.889 . S
C716 C117 0.783 . S
C728 C307 0.892 . S
C743 C315 0.900 . S
C755 C153 0.761 . S
C770 C351 0.896 . S
C782 C175 0.763 . S
C797 C18 1.590 . S
C809 C40 1.579 . S
C824 C32 1.590 . S
C836 C62 1.579 . S
C851 C74 1.562 . S
C863 C54 1.590 . S
C878 C84 1.592 . S
C890 C8 1.579 . S
C905 C106 1.557 . S
C917 C164 1.518 . S
C932 C128 1.589 . S
C944 C96 1.576 . S
C959 C140 1.588 . S
C971 C118 1.577 . S
C986 C162 1.578 . S
C998 C142 1.544 . S
C1013 C186 1.578 . S
C1025 C208 1.566 . S
C1040 C228 1.526 . S
C1052 C216 1.548 . S
C1067 C260 1.528 1_455 S
C1079 C230 1.549 . S
C1094 C184 1.532 1_545 S
C1106 C250 1.553 . S
C1121 C282 1.546 . S
C1133 C348 1.525 1_655 S
C1148 C294 1.542 . S
C1160 C274 1.520 1_565 S
C1175 C304 1.574 . S
C1187 C326 1.584 . S
C1202 C338 1.584 . S
C1214 C318 1.574 . S
C1229 C15 1.572 . S
C1241 C213 1.579 . S
C1256 C241 1.590 . S
C1268 C43 1.580 . S
C1283 C65 1.523 . S
C1295 C249 1.558 . S
C1310 C197 1.564 . S
C1322 C81 1.529 . S
C1337 C103 1.569 . S
C1349 C337 1.577 . S
C1364 C279 1.566 . S
C1376 C125 1.531 . S
C1391 C293 1.562 . S
C1403 C139 1.527 . S
C1418 C161 1.541 . S
C1430 C323 1.559 . S
C1445 C29 1.552 . S
C1457 C183 1.528 . S
C1472 C219 1.578 . S
C1484 C51 1.579 . S
C1499 C87 1.588 . S
C1511 C227 1.569 . S
C1526 C21 1.558 . S
C1538 C257 1.559 . S
C1553 C169 1.569 . S
C1565 C285 1.573 . S
C1580 C301 1.578 . S
C1592 C109 1.579 . S
C1607 C329 1.569 . S
C1619 C131 1.566 . S
C1634 C345 1.520 . S
C1646 C147 1.560 . S
