# Generated by pormake.
# Topology umz, (4)-cn, num edge types: 1
# Building blocks:
#     Node 0, Type 0, BuildingBlock: CEKHIL_clean_sbu_0, # of connection points: 4
#     Node 1, Type 0, BuildingBlock: CEKHIL_clean_sbu_0, # of connection points: 4
#     Node 2, Type 0, BuildingBlock: CEKHIL_clean_sbu_0, # of connection points: 4
#     Node 3, Type 0, BuildingBlock: CEKHIL_clean_sbu_0, # of connection points: 4
#     Node 4, Type 0, BuildingBlock: CEKHIL_clean_sbu_0, # of connection points: 4
#     Node 5, Type 0, BuildingBlock: CEKHIL_clean_sbu_0, # of connection points: 4
#     Node 6, Type 0, BuildingBlock: CEKHIL_clean_sbu_0, # of connection points: 4
#     Node 7, Type 0, BuildingBlock: CEKHIL_clean_sbu_0, # of connection points: 4
#     Node 8, Type 0, BuildingBlock: CEKHIL_clean_sbu_0, # of connection points: 4
#     Node 9, Type 0, BuildingBlock: CEKHIL_clean_sbu_0, # of connection points: 4
#     Node 10, Type 0, BuildingBlock: CEKHIL_clean_sbu_0, # of connection points: 4
#     Node 11, Type 0, BuildingBlock: CEKHIL_clean_sbu_0, # of connection points: 4
#     Node 12, Type 0, BuildingBlock: CEKHIL_clean_sbu_0, # of connection points: 4
#     Node 13, Type 0, BuildingBlock: CEKHIL_clean_sbu_0, # of connection points: 4
#     Node 14, Type 0, BuildingBlock: CEKHIL_clean_sbu_0, # of connection points: 4
#     Node 15, Type 0, BuildingBlock: CEKHIL_clean_sbu_0, # of connection points: 4
#     Edge 16, Type (0, 0), BuildingBlock: TEMPAE_clean_linker_10, # of connection points: 2
#     Edge 17, Type (0, 0), BuildingBlock: TEMPAE_clean_linker_10, # of connection points: 2
#     Edge 18, Type (0, 0), BuildingBlock: TEMPAE_clean_linker_10, # of connection points: 2
#     Edge 19, Type (0, 0), BuildingBlock: TEMPAE_clean_linker_10, # of connection points: 2
#     Edge 20, Type (0, 0), BuildingBlock: TEMPAE_clean_linker_10, # of connection points: 2
#     Edge 21, Type (0, 0), BuildingBlock: TEMPAE_clean_linker_10, # of connection points: 2
#     Edge 22, Type (0, 0), BuildingBlock: TEMPAE_clean_linker_10, # of connection points: 2
#     Edge 23, Type (0, 0), BuildingBlock: TEMPAE_clean_linker_10, # of connection points: 2
#     Edge 24, Type (0, 0), BuildingBlock: TEMPAE_clean_linker_10, # of connection points: 2
#     Edge 25, Type (0, 0), BuildingBlock: TEMPAE_clean_linker_10, # of connection points: 2
#     Edge 26, Type (0, 0), BuildingBlock: TEMPAE_clean_linker_10, # of connection points: 2
#     Edge 27, Type (0, 0), BuildingBlock: TEMPAE_clean_linker_10, # of connection points: 2
#     Edge 28, Type (0, 0), BuildingBlock: TEMPAE_clean_linker_10, # of connection points: 2
#     Edge 29, Type (0, 0), BuildingBlock: TEMPAE_clean_linker_10, # of connection points: 2
#     Edge 30, Type (0, 0), BuildingBlock: TEMPAE_clean_linker_10, # of connection points: 2
#     Edge 31, Type (0, 0), BuildingBlock: TEMPAE_clean_linker_10, # of connection points: 2
#     Edge 32, Type (0, 0), BuildingBlock: TEMPAE_clean_linker_10, # of connection points: 2
#     Edge 33, Type (0, 0), BuildingBlock: TEMPAE_clean_linker_10, # of connection points: 2
#     Edge 34, Type (0, 0), BuildingBlock: TEMPAE_clean_linker_10, # of connection points: 2
#     Edge 35, Type (0, 0), BuildingBlock: TEMPAE_clean_linker_10, # of connection points: 2
#     Edge 36, Type (0, 0), BuildingBlock: TEMPAE_clean_linker_10, # of connection points: 2
#     Edge 37, Type (0, 0), BuildingBlock: TEMPAE_clean_linker_10, # of connection points: 2
#     Edge 38, Type (0, 0), BuildingBlock: TEMPAE_clean_linker_10, # of connection points: 2
#     Edge 39, Type (0, 0), BuildingBlock: TEMPAE_clean_linker_10, # of connection points: 2
#     Edge 40, Type (0, 0), BuildingBlock: TEMPAE_clean_linker_10, # of connection points: 2
#     Edge 41, Type (0, 0), BuildingBlock: TEMPAE_clean_linker_10, # of connection points: 2
#     Edge 42, Type (0, 0), BuildingBlock: TEMPAE_clean_linker_10, # of connection points: 2
#     Edge 43, Type (0, 0), BuildingBlock: TEMPAE_clean_linker_10, # of connection points: 2
#     Edge 44, Type (0, 0), BuildingBlock: TEMPAE_clean_linker_10, # of connection points: 2
#     Edge 45, Type (0, 0), BuildingBlock: TEMPAE_clean_linker_10, # of connection points: 2
#     Edge 46, Type (0, 0), BuildingBlock: TEMPAE_clean_linker_10, # of connection points: 2
#     Edge 47, Type (0, 0), BuildingBlock: TEMPAE_clean_linker_10, # of connection points: 2
# Relax obj value: 0.260
# Max RMSD: 0.165
# Mean RMSD: 0.165
data_MOF--net-umz--node1-CEKHIL_clean_sbu_0--edge1-TEMPAE_clean_linker_10
_symmetry_space_group_name_H-M    P1
_symmetry_Int_Tables_number       1
_symmetry_cell_setting            triclinic
loop_
_symmetry_equiv_pos_as_xyz
'x, y, z'
_cell_length_a     59.071498
_cell_length_b     59.31748
_cell_length_c     23.163132
_cell_angle_alpha  90.134167
_cell_angle_beta   89.971648
_cell_angle_gamma 89.936002
loop_
_atom_site_label
_atom_site_type_symbol
_atom_site_fract_x
_atom_site_fract_y
_atom_site_fract_z
_atom_type_partial_charge
Co0 Co 0.00514 0.63295 0.08318 0.0
O1 O -0.00314 0.65603 0.02916 0.0
O2 O 0.02465 0.65869 0.09309 0.0
C3 C 0.96971 0.62449 0.11276 0.0
O4 O 0.0182 0.61339 0.14702 0.0
Co5 Co 0.98906 0.58329 0.06723 0.0
O6 O 0.00282 0.57876 0.14443 0.0
C7 C 0.02436 0.6021 -0.00816 0.0
C8 C 0.01305 0.66795 0.05174 0.0
C9 C 0.01558 0.59348 0.16791 0.0
O10 O 0.02669 0.61934 0.02504 0.0
O11 O 0.00877 0.58734 -0.0022 0.0
O12 O 0.98021 0.64179 0.13453 0.0
O13 O 0.98001 0.61454 0.07079 0.0
Co14 Co 0.86164 0.00053 0.59212 0.0
O15 O 0.839 0.98924 0.5399 0.0
O16 O 0.83518 0.01961 0.59498 0.0
C17 C 0.87067 0.96718 0.63298 0.0
O18 O 0.88065 0.01688 0.65224 0.0
Co19 Co 0.91187 0.98497 0.57993 0.0
O20 O 0.917 0.00582 0.64574 0.0
C21 C 0.8923 0.01593 0.49535 0.0
C22 C 0.82645 0.00597 0.55703 0.0
C23 C 0.90141 0.01766 0.66895 0.0
O24 O 0.87522 0.01954 0.52862 0.0
O25 O 0.90711 0.00062 0.50454 0.0
O26 O 0.85292 0.97819 0.65051 0.0
O27 O 0.88079 0.97544 0.58853 0.0
Co28 Co 0.48891 0.85793 0.08354 0.0
O29 O 0.49856 0.83417 0.03255 0.0
O30 O 0.46862 0.83252 0.08998 0.0
C31 C 0.52331 0.86585 0.12091 0.0
O32 O 0.47424 0.87838 0.14349 0.0
Co33 Co 0.50706 0.90698 0.06883 0.0
O34 O 0.49069 0.91257 0.14237 0.0
C35 C 0.47368 0.88865 0.98704 0.0
C36 C 0.48153 0.82264 0.05205 0.0
C37 C 0.47678 0.89843 0.16381 0.0
O38 O 0.46982 0.87168 0.02021 0.0
O39 O 0.48955 0.90292 -0.00438 0.0
O40 O 0.51165 0.84902 0.141 0.0
O41 O 0.51486 0.87554 0.07615 0.0
Co42 Co 0.63506 0.48731 0.59237 0.0
O43 O 0.65826 0.49936 0.54301 0.0
O44 O 0.66246 0.46985 0.60049 0.0
C45 C 0.62296 0.52046 0.62972 0.0
O46 O 0.61558 0.47053 0.65061 0.0
Co47 Co 0.58437 0.49981 0.57245 0.0
O48 O 0.57938 0.4821 0.64385 0.0
C49 C 0.60762 0.46916 0.49248 0.0
C50 C 0.6713 0.48356 0.563 0.0
C51 C 0.59481 0.47023 0.66749 0.0
O52 O 0.62419 0.4669 0.52805 0.0
O53 O 0.59165 0.48349 0.49913 0.0
O54 O 0.64096 0.51077 0.65038 0.0
O55 O 0.61463 0.51116 0.58411 0.0
Co56 Co 0.00592 0.86198 0.88759 0.0
O57 O -0.0021 0.84014 0.94495 0.0
O58 O 0.02784 0.83782 0.88747 0.0
C59 C 0.97106 0.86569 0.84956 0.0
O60 O 0.01917 0.88049 0.82221 0.0
Co61 Co 0.98478 0.91001 0.88873 0.0
O62 O 0.00022 0.91314 0.81294 0.0
C63 C 0.01962 0.89775 0.97401 0.0
C64 C 0.01561 0.82892 0.92819 0.0
C65 C 0.01513 0.89908 0.79571 0.0
O66 O 0.02411 0.87946 0.94627 0.0
O67 O 0.00308 0.91082 0.96161 0.0
O68 O 0.98403 0.84916 0.83324 0.0
O69 O 0.97871 0.87802 0.89105 0.0
Co70 Co 0.6289 0.00475 0.38873 0.0
O71 O 0.65091 0.99303 0.44208 0.0
O72 O 0.65641 0.02214 0.38397 0.0
C73 C 0.61781 0.97131 0.35142 0.0
O74 O 0.61089 0.0212 0.32683 0.0
Co75 Co 0.57777 0.99249 0.40106 0.0
O76 O 0.57462 0.00973 0.32825 0.0
C77 C 0.59899 0.02378 0.48291 0.0
C78 C 0.66439 0.00868 0.42326 0.0
C79 C 0.5906 0.02142 0.3066 0.0
O80 O 0.61653 0.02559 0.45033 0.0
O81 O 0.58306 0.00961 0.4742 0.0
O82 O 0.63627 0.98082 0.33303 0.0
O83 O 0.60826 0.98101 0.3949 0.0
Co84 Co 0.48297 0.62546 0.89293 0.0
O85 O 0.4922 0.64658 0.95178 0.0
O86 O 0.46468 0.65234 0.88858 0.0
C87 C 0.51814 0.61649 0.86159 0.0
O88 O 0.46897 0.60873 0.82481 0.0
Co89 Co 0.4971 0.5748 0.89373 0.0
O90 O 0.48532 0.57481 0.81387 0.0
C91 C 0.45918 0.59065 0.96729 0.0
C92 C 0.4767 0.65993 0.93139 0.0
C93 C 0.47205 0.5903 0.79643 0.0
O94 O 0.46079 0.61094 0.94801 0.0
O95 O 0.47251 0.57458 0.95288 0.0
O96 O 0.50831 0.6348 0.84364 0.0
O97 O 0.50736 0.60555 0.90093 0.0
Co98 Co 0.86808 0.48972 0.39201 0.0
O99 O 0.84672 0.50064 0.44842 0.0
O100 O 0.84179 0.47051 0.39318 0.0
C101 C 0.87567 0.52353 0.35145 0.0
O102 O 0.88529 0.47357 0.3278 0.0
Co103 Co 0.91835 0.50554 0.38935 0.0
O104 O 0.91949 0.48926 0.31476 0.0
C105 C 0.90293 0.47324 0.47813 0.0
C106 C 0.83384 0.48398 0.43263 0.0
C107 C 0.9041 0.47538 0.30006 0.0
O108 O 0.88367 0.47077 0.45273 0.0
O109 O 0.91775 0.48766 0.46214 0.0
O110 O 0.85763 0.51243 0.33633 0.0
O111 O 0.88709 0.51482 0.39314 0.0
Co112 Co 0.98765 0.35646 0.89248 0.0
O113 O -0.00124 0.33462 0.947 0.0
O114 O 0.9699 0.32936 0.88735 0.0
C115 C 0.02174 0.36679 0.85676 0.0
O116 O 0.97166 0.37389 0.82892 0.0
Co117 Co 0.00066 0.40745 0.89912 0.0
O118 O 0.9841 0.40975 0.82525 0.0
C119 C 0.9649 0.38921 0.97542 0.0
C120 C 0.98309 0.32131 0.92718 0.0
C121 C 0.97208 0.3936 0.8061 0.0
O122 O 0.96632 0.36947 0.95242 0.0
O123 O 0.97774 0.40576 0.96224 0.0
O124 O 0.01193 0.34854 0.83831 0.0
O125 O 0.01176 0.37681 0.89918 0.0
Co126 Co 0.13263 0.98569 0.38974 0.0
O127 O 0.15421 0.99384 0.44857 0.0
O128 O 0.15896 0.96659 0.38413 0.0
C129 C 0.12505 0.02121 0.36037 0.0
O130 O 0.11529 0.97271 0.32119 0.0
Co131 Co 0.08241 0.00153 0.38904 0.0
O132 O 0.08381 0.99311 0.30633 0.0
C133 C 0.09652 0.96292 0.46223 0.0
C134 C 0.16714 0.97822 0.42691 0.0
C135 C 0.09825 0.97849 0.28998 0.0
O136 O 0.11714 0.96397 0.44413 0.0
O137 O 0.0809 0.97664 0.44694 0.0
O138 O 0.14298 0.01079 0.34156 0.0
O139 O 0.11355 0.0106 0.39898 0.0
Co140 Co 0.50303 0.13073 0.89099 0.0
O141 O 0.49362 0.15228 0.94883 0.0
O142 O 0.52117 0.1575 0.88532 0.0
C143 C 0.46788 0.12146 0.86015 0.0
O144 O 0.51738 0.11389 0.82368 0.0
Co145 Co 0.48968 0.08007 0.8904 0.0
O146 O 0.50007 0.08073 0.80916 0.0
C147 C 0.52709 0.09623 0.96559 0.0
C148 C 0.50906 0.16549 0.92746 0.0
C149 C 0.51375 0.09609 0.79338 0.0
O150 O 0.52524 0.11656 0.94664 0.0
O151 O 0.51406 0.08006 0.95023 0.0
O152 O 0.47763 0.13969 0.84149 0.0
O153 O 0.47883 0.11061 0.89941 0.0
Co154 Co 0.35898 0.49946 0.39216 0.0
O155 O 0.3365 0.49019 0.44755 0.0
O156 O 0.33172 0.5167 0.3814 0.0
C157 C 0.36986 0.46443 0.36501 0.0
O158 O 0.37702 0.51322 0.32622 0.0
Co159 Co 0.41013 0.48738 0.4026 0.0
O160 O 0.41215 0.49885 0.3227 0.0
C161 C 0.39101 0.52525 0.47061 0.0
C162 C 0.32324 0.5049 0.42332 0.0
C163 C 0.39643 0.51102 0.30164 0.0
O164 O 0.37128 0.52271 0.4479 0.0
O165 O 0.40794 0.51242 0.46012 0.0
O166 O 0.35169 0.47345 0.34333 0.0
O167 O 0.37954 0.47593 0.40535 0.0
Co168 Co 0.98914 0.1247 0.09059 0.0
O169 O -0.00101 0.14566 0.03234 0.0
O170 O 0.97087 0.15151 0.09399 0.0
C171 C 0.02403 0.11591 0.12351 0.0
O172 O 0.97433 0.10824 0.15777 0.0
Co173 Co 0.00269 0.0741 0.09295 0.0
O174 O 0.99231 0.07554 0.17414 0.0
C175 C 0.96603 0.08979 0.01506 0.0
C176 C 0.98335 0.15906 0.0521 0.0
C177 C 0.97827 0.09078 0.18898 0.0
O178 O 0.96756 0.11013 0.03419 0.0
O179 O 0.97895 0.07366 0.03136 0.0
O180 O 0.01399 0.13421 0.14102 0.0
O181 O 0.0135 0.10464 0.08415 0.0
Co182 Co 0.36532 0.98698 0.58309 0.0
O183 O 0.34359 -0.00347 0.52588 0.0
O184 O 0.33929 0.9675 0.58481 0.0
C185 C 0.37255 0.02172 0.61919 0.0
O186 O 0.38256 0.97217 0.64903 0.0
Co187 Co 0.4154 0.00294 0.58762 0.0
O188 O 0.41454 0.99122 0.66761 0.0
C189 C 0.40163 0.96675 0.50592 0.0
C190 C 0.33094 0.98012 0.54431 0.0
C191 C 0.39988 0.9764 0.68086 0.0
O192 O 0.38108 0.96693 0.52475 0.0
O193 O 0.41704 0.98025 0.52375 0.0
O194 O 0.3547 0.0107 0.63588 0.0
O195 O 0.38423 0.0122 0.57894 0.0
Co196 Co 0.50805 0.36242 0.0915 0.0
O197 O 0.49705 0.34158 0.03401 0.0
O198 O 0.52674 0.33584 0.09052 0.0
C199 C 0.47386 0.37042 0.13052 0.0
O200 O 0.52422 0.37868 0.15704 0.0
Co201 Co 0.49339 0.41273 0.09918 0.0
O202 O 0.50631 0.41107 0.17793 0.0
C203 C 0.52813 0.39833 0.01369 0.0
C204 C 0.51324 0.32824 0.05074 0.0
C205 C 0.5209 0.39594 0.18962 0.0
O206 O 0.52795 0.37787 0.03248 0.0
O207 O 0.51493 0.41381 0.03267 0.0
O208 O 0.4846 0.35222 0.14557 0.0
O209 O 0.48325 0.38202 0.09015 0.0
Co210 Co 0.12516 0.50269 0.58177 0.0
O211 O 0.14536 0.49263 0.52138 0.0
O212 O 0.15231 0.52044 0.58289 0.0
C213 C 0.11614 0.46808 0.61533 0.0
O214 O 0.11007 0.51762 0.6509 0.0
Co215 Co 0.07422 0.49019 0.59026 0.0
O216 O 0.07714 0.50065 0.67116 0.0
C217 C 0.08918 0.52649 0.51086 0.0
C218 C 0.15927 0.50795 0.54034 0.0
C219 C 0.09305 0.51417 0.68425 0.0
O220 O 0.10995 0.52455 0.52723 0.0
O221 O 0.07312 0.51391 0.52914 0.0
O222 O 0.13497 0.47765 0.63096 0.0
O223 O 0.10449 0.47885 0.57725 0.0
C224 C 0.03435 0.70434 0.05853 0.0
C225 C 0.01745 0.69124 0.03236 0.0
C226 C 0.0375 0.72699 0.04289 0.0
C227 C 0.02335 0.73667 0.00032 0.0
C228 C 0.00679 0.72328 0.97246 0.0
C229 C 0.00407 0.70073 0.98878 0.0
C230 C 0.0554 0.74075 0.07325 0.0
C231 C 0.99136 0.73298 0.9268 0.0
C232 C 0.00825 0.79856 -0.00034 0.0
C233 C 0.02043 0.80632 0.95173 0.0
C234 C 0.01013 0.77618 0.01809 0.0
C235 C 0.02445 0.76116 0.98761 0.0
C236 C 0.03781 0.76921 0.94128 0.0
C237 C 0.03567 0.79178 0.9239 0.0
C238 C 0.99575 0.76831 0.06808 0.0
C239 C 0.05333 0.75369 0.90795 0.0
H240 H 0.04482 0.69706 0.09208 0.0
H241 H 0.99105 0.69067 0.96816 0.0
H242 H 0.06616 0.74962 0.0413 0.0
H243 H 0.04718 0.75384 0.10043 0.0
H244 H 0.0664 0.73022 0.10123 0.0
H245 H 0.98025 0.71999 0.90701 0.0
H246 H 0.98049 0.74627 0.94618 0.0
H247 H 0.00149 0.741 0.89215 0.0
H248 H -0.00337 0.80981 0.02174 0.0
H249 H 0.04518 0.79773 0.88691 0.0
H250 H 0.00622 0.75895 0.09974 0.0
H251 H 0.98255 0.75657 0.05204 0.0
H252 H 0.98727 0.78253 0.09068 0.0
H253 H 0.06384 0.74352 0.93787 0.0
H254 H 0.06469 0.76309 0.87832 0.0
H255 H 0.04306 0.74176 0.88196 0.0
C256 C 0.69556 -0.00355 0.48889 0.0
C257 C 0.68792 0.01059 0.44455 0.0
C258 C 0.7181 -0.00281 0.50776 0.0
C259 C 0.73341 0.01238 0.48148 0.0
C260 C 0.7257 0.02704 0.43751 0.0
C261 C 0.70301 0.026 0.41962 0.0
C262 C 0.72564 0.98137 0.55501 0.0
C263 C 0.74156 0.04341 0.40838 0.0
C264 C 0.78824 0.02418 0.56183 0.0
C265 C 0.80307 0.00882 0.53545 0.0
C266 C 0.76558 0.0259 0.54394 0.0
C267 C 0.7577 0.01207 0.49831 0.0
C268 C 0.7728 -0.00296 0.4704 0.0
C269 C 0.79527 -0.00448 0.48949 0.0
C270 C 0.74993 0.04204 0.57491 0.0
C271 C 0.76509 0.98215 0.42121 0.0
H272 H 0.68397 0.98456 0.50853 0.0
H273 H 0.6972 0.03699 0.38535 0.0
H274 H 0.7386 0.96955 0.53793 0.0
H275 H 0.73361 0.99103 0.59068 0.0
H276 H 0.71139 0.97136 0.5729 0.0
H277 H 0.73268 0.05439 0.37687 0.0
H278 H 0.74997 0.05422 0.44107 0.0
H279 H 0.75507 0.03398 0.38535 0.0
H280 H 0.79417 0.03449 0.59742 0.0
H281 H 0.80669 0.98372 0.46867 0.0
H282 H 0.73635 0.03245 0.59701 0.0
H283 H 0.74161 0.05343 0.54348 0.0
H284 H 0.75896 0.05244 0.60751 0.0
H285 H 0.75201 0.97021 0.4368 0.0
H286 H 0.77924 0.97229 0.40207 0.0
H287 H 0.75723 0.99252 0.38679 0.0
C288 C 0.4611 0.78572 0.05973 0.0
C289 C 0.47777 0.79905 0.03348 0.0
C290 C 0.45857 0.76287 0.04486 0.0
C291 C 0.47302 0.75321 0.0027 0.0
C292 C 0.48945 0.76678 0.97502 0.0
C293 C 0.49163 0.7895 -0.00921 0.0
C294 C 0.44085 0.74892 0.07523 0.0
C295 C 0.50511 0.75717 0.9296 0.0
C296 C 0.48668 0.69071 0.00067 0.0
C297 C 0.47383 0.68319 0.95356 0.0
C298 C 0.48578 0.71329 0.01877 0.0
C299 C 0.47178 0.72873 0.98885 0.0
C300 C 0.45807 0.72104 0.94274 0.0
C301 C 0.45923 0.69832 0.9257 0.0
C302 C 0.50054 0.72081 0.06842 0.0
C303 C 0.44293 0.73699 0.90979 0.0
H304 H 0.45032 0.79301 0.09276 0.0
H305 H 0.50449 0.79971 0.97012 0.0
H306 H 0.42978 0.74045 0.04318 0.0
H307 H 0.44919 0.7355 0.10089 0.0
H308 H 0.43013 0.75923 0.10458 0.0
H309 H 0.51634 0.77019 0.91053 0.0
H310 H 0.51584 0.74379 0.94886 0.0
H311 H 0.49513 0.74927 0.89441 0.0
H312 H 0.49789 0.67908 0.02264 0.0
H313 H 0.4492 0.69261 0.88934 0.0
H314 H 0.49031 0.73009 0.10087 0.0
H315 H 0.51372 0.73254 0.05238 0.0
H316 H 0.50904 0.70641 0.09008 0.0
H317 H 0.43214 0.74678 0.94001 0.0
H318 H 0.43184 0.72801 0.87859 0.0
H319 H 0.45346 0.74925 0.88566 0.0
C320 C 0.70336 0.49521 0.49963 0.0
C321 C 0.69518 0.4816 0.54441 0.0
C322 C 0.7261 0.49418 0.48243 0.0
C323 C 0.74109 0.47928 0.51099 0.0
C324 C 0.7329 0.4653 0.55583 0.0
C325 C 0.70999 0.46657 0.57189 0.0
C326 C 0.73414 0.50924 0.43409 0.0
C327 C 0.74842 0.44929 0.58743 0.0
C328 C 0.79575 0.46559 0.43179 0.0
C329 C 0.81072 0.48128 0.45618 0.0
C330 C 0.77316 0.46427 0.45037 0.0
C331 C 0.76544 0.47888 0.49464 0.0
C332 C 0.78072 0.49415 0.5209 0.0
C333 C 0.80316 0.49522 0.5012 0.0
C334 C 0.75734 0.44784 0.42117 0.0
C335 C 0.77319 0.50987 0.56857 0.0
H336 H 0.69199 0.5068 0.47802 0.0
H337 H 0.70377 0.45602 0.60659 0.0
H338 H 0.74731 0.52094 0.45041 0.0
H339 H 0.74198 0.49894 0.39938 0.0
H340 H 0.72017 0.51935 0.41511 0.0
H341 H 0.7393 0.43917 0.62032 0.0
H342 H 0.75668 0.43764 0.55636 0.0
H343 H 0.76207 0.45893 0.60923 0.0
H344 H 0.80149 0.45476 0.39697 0.0
H345 H 0.81468 0.5073 0.52045 0.0
H346 H 0.744 0.45724 0.39758 0.0
H347 H 0.74872 0.43721 0.4538 0.0
H348 H 0.7663 0.43667 0.39009 0.0
H349 H 0.76049 0.52194 0.55155 0.0
H350 H 0.7875 0.5196 0.58717 0.0
H351 H 0.76492 0.5002 0.60366 0.0
C352 C 0.99576 0.28937 0.98932 0.0
C353 C 0.98105 0.29775 0.94703 0.0
C354 C 0.99493 0.26669 0.00614 0.0
C355 C 0.97902 0.25206 0.97994 0.0
C356 C 0.96382 0.26051 0.93802 0.0
C357 C 0.96501 0.28329 0.92208 0.0
C358 C 0.01134 0.25829 0.05124 0.0
C359 C 0.94663 0.24539 0.90921 0.0
C360 C 0.99374 0.18982 0.9836 0.0
C361 C 0.98079 0.18234 0.03048 0.0
C362 C 0.99283 0.21237 0.96563 0.0
C363 C 0.97873 0.22779 -0.00445 0.0
C364 C 0.96516 0.2202 0.04192 0.0
C365 C 0.96629 0.19752 0.05872 0.0
C366 C 0.0074 0.21982 0.91562 0.0
C367 C 0.94997 0.23617 0.07491 0.0
H368 H 0.00818 0.30046 0.00882 0.0
H369 H 0.95358 0.28966 0.88935 0.0
H370 H 0.00197 0.25046 0.08753 0.0
H371 H 0.02243 0.2451 0.03232 0.0
H372 H 0.02218 0.272 0.06871 0.0
H373 H 0.93556 0.25475 0.87878 0.0
H374 H 0.95544 0.23179 0.88506 0.0
H375 H 0.93584 0.23717 0.94222 0.0
H376 H 0.00491 0.17814 0.96147 0.0
H377 H 0.95624 0.19184 0.09504 0.0
H378 H 0.02009 0.23226 0.93085 0.0
H379 H -0.00314 0.2283 0.8825 0.0
H380 H 0.01648 0.2055 0.89499 0.0
H381 H 0.96039 0.24918 0.09681 0.0
H382 H 0.93963 0.22737 0.10797 0.0
H383 H 0.93843 0.24508 0.04484 0.0
C384 C 0.29375 0.96001 0.54696 0.0
C385 C 0.3075 0.97691 0.52329 0.0
C386 C 0.27086 0.95809 0.53142 0.0
C387 C 0.26152 0.97344 0.49125 0.0
C388 C 0.27551 0.99006 0.46578 0.0
C389 C 0.29833 0.9916 0.48213 0.0
C390 C 0.2565 0.94012 0.55937 0.0
C391 C 0.26619 0.00668 0.42255 0.0
C392 C 0.20569 0.9612 0.41603 0.0
C393 C 0.19072 0.97511 0.44691 0.0
C394 C 0.22871 0.96001 0.43085 0.0
C395 C 0.23689 0.97294 0.47785 0.0
C396 C 0.22167 0.98631 0.51055 0.0
C397 C 0.19879 0.98728 0.49457 0.0
C398 C 0.24442 0.94556 0.39498 0.0
C399 C 0.2297 0.00015 0.56136 0.0
H400 H 0.30072 0.94857 0.57875 0.0
H401 H 0.30886 0.00468 0.46359 0.0
H402 H 0.24323 0.94815 0.58643 0.0
H403 H 0.24773 0.92996 0.52592 0.0
H404 H 0.26664 0.92862 0.58697 0.0
H405 H 0.27954 0.01781 0.40453 0.0
H406 H 0.25788 -0.00242 0.38643 0.0
H407 H 0.25312 0.01738 0.44347 0.0
H408 H 0.19957 0.95176 0.37909 0.0
H409 H 0.18729 -0.00201 0.51877 0.0
H410 H 0.25418 0.93398 0.42312 0.0
H411 H 0.25682 0.95644 0.37232 0.0
H412 H 0.23516 0.9354 0.36229 0.0
H413 H 0.23888 0.9893 0.5925 0.0
H414 H 0.21551 0.00862 0.58429 0.0
H415 H 0.24174 0.01323 0.54632 0.0
C416 C 0.49891 0.19732 -0.00637 0.0
C417 C 0.51189 0.18899 0.94762 0.0
C418 C 0.50035 0.22002 0.01045 0.0
C419 C 0.51503 0.23474 0.98028 0.0
C420 C 0.52853 0.22632 0.93459 0.0
C421 C 0.52684 0.20352 0.9189 0.0
C422 C 0.48582 0.22837 0.05974 0.0
C423 C 0.54434 0.2415 0.90135 0.0
C424 C 0.50028 0.297 0.98621 0.0
C425 C 0.51509 0.30485 0.02901 0.0
C426 C 0.50044 0.2743 0.96902 0.0
C427 C 0.51571 0.25909 -0.00451 0.0
C428 C 0.53113 0.26704 0.0376 0.0
C429 C 0.53067 0.28985 0.05376 0.0
C430 C 0.48389 0.26648 0.92354 0.0
C431 C 0.54765 0.25132 0.06677 0.0
H432 H 0.48736 0.18617 0.01606 0.0
H433 H 0.53692 0.19721 0.88323 0.0
H434 H 0.49655 0.23648 0.09313 0.0
H435 H 0.4738 0.24133 0.04384 0.0
H436 H 0.47599 0.21458 0.08024 0.0
H437 H 0.55429 0.23215 0.86836 0.0
H438 H 0.53447 0.25489 0.87936 0.0
H439 H 0.55626 0.25 0.9313 0.0
H440 H 0.48822 0.30851 0.96684 0.0
H441 H 0.54215 0.2958 0.08694 0.0
H442 H 0.47206 0.25399 0.94243 0.0
H443 H 0.49304 0.25796 0.88779 0.0
H444 H 0.47383 0.28062 0.90535 0.0
H445 H 0.53825 0.23831 0.09138 0.0
H446 H 0.55916 0.26033 0.09688 0.0
H447 H 0.55804 0.24237 0.034 0.0
C448 C 0.28502 0.52247 0.41163 0.0
C449 C 0.29925 0.50728 0.44055 0.0
C450 C 0.26192 0.52396 0.42529 0.0
C451 C 0.25288 0.50995 0.46893 0.0
C452 C 0.26723 0.49483 0.49886 0.0
C453 C 0.29025 0.49368 0.4843 0.0
C454 C 0.24713 0.54031 0.39258 0.0
C455 C 0.25821 0.47968 0.54585 0.0
C456 C 0.19781 0.52508 0.54381 0.0
C457 C 0.18259 0.51001 0.51782 0.0
C458 C 0.22063 0.52568 0.52719 0.0
C459 C 0.22838 0.51093 0.48334 0.0
C460 C 0.21293 0.4963 0.45537 0.0
C461 C 0.1902 0.49598 0.47305 0.0
C462 C 0.2366 0.54152 0.55801 0.0
C463 C 0.22056 0.48047 0.40806 0.0
H464 H 0.29187 0.53302 0.37771 0.0
H465 H 0.30115 0.4819 0.50679 0.0
H466 H 0.23354 0.53101 0.36965 0.0
H467 H 0.23876 0.55212 0.42308 0.0
H468 H 0.25685 0.55028 0.36049 0.0
H469 H 0.27167 0.46909 0.5655 0.0
H470 H 0.25022 0.48997 0.58036 0.0
H471 H 0.24494 0.46843 0.52801 0.0
H472 H 0.19205 0.53601 0.57841 0.0
H473 H 0.1785 0.48435 0.45269 0.0
H474 H 0.2459 0.552 0.52632 0.0
H475 H 0.24937 0.53164 0.58233 0.0
H476 H 0.22763 0.55285 0.58871 0.0
H477 H 0.22956 0.48996 0.37382 0.0
H478 H 0.20619 0.47123 0.38815 0.0
H479 H 0.23268 0.46799 0.42587 0.0
C480 C 0.03357 0.59579 0.88953 0.0
C481 C 0.04103 0.59765 0.94652 0.0
C482 C 0.04687 0.58497 0.84786 0.0
C483 C 0.06783 0.5753 0.86434 0.0
C484 C 0.07632 0.57894 0.92078 0.0
C485 C 0.06274 0.59023 0.96144 0.0
C486 C 0.03743 0.58195 0.78776 0.0
C487 C 0.09858 0.569 0.93998 0.0
C488 C 0.07633 0.52124 0.78133 0.0
C489 C 0.09033 0.52839 0.73619 0.0
C490 C 0.07047 0.53594 0.8263 0.0
C491 C 0.07851 0.55844 0.82547 0.0
C492 C 0.09402 0.56524 0.7824 0.0
C493 C 0.09988 0.55004 0.7383 0.0
C494 C 0.05434 0.52783 0.87242 0.0
C495 C 0.10304 0.58901 0.78022 0.0
H496 H 0.01666 0.60148 0.87849 0.0
H497 H 0.06828 0.59147 0.00597 0.0
H498 H 0.05059 0.58552 0.75485 0.0
H499 H 0.03195 0.56421 0.78185 0.0
H500 H 0.02265 0.59312 0.77976 0.0
H501 H 0.10509 0.57752 0.97938 0.0
H502 H 0.09617 0.55088 0.94997 0.0
H503 H 0.11152 0.57019 0.90539 0.0
H504 H 0.06926 0.50437 0.78039 0.0
H505 H 0.11081 0.55563 0.70356 0.0
H506 H 0.03761 0.53602 0.86649 0.0
H507 H 0.06064 0.53255 0.9159 0.0
H508 H 0.05194 0.50926 0.87093 0.0
H509 H 0.08969 0.60038 0.76321 0.0
H510 H 0.11811 0.59034 0.75173 0.0
H511 H 0.10761 0.59511 0.82399 0.0
C512 C 0.94099 0.09262 0.2393 0.0
C513 C 0.96393 0.08651 0.23988 0.0
C514 C 0.92613 0.08482 0.28214 0.0
C515 C 0.93461 0.07103 0.32698 0.0
C516 C 0.95813 0.06649 0.33031 0.0
C517 C 0.97247 0.07403 0.28623 0.0
C518 C 0.90117 0.08985 0.27681 0.0
C519 C 0.96798 0.05242 0.37845 0.0
C520 C 0.90158 0.05428 0.46054 0.0
C521 C 0.89717 0.0316 0.44814 0.0
C522 C 0.91263 0.06801 0.42004 0.0
C523 C 0.91888 0.05878 0.36587 0.0
C524 C 0.91248 0.03645 0.35153 0.0
C525 C 0.90203 0.02299 0.39332 0.0
C526 C 0.91942 0.09159 0.4373 0.0
C527 C 0.91827 0.02615 0.29368 0.0
H528 H 0.93434 0.10222 0.2033 0.0
H529 H 0.99028 0.06955 0.28702 0.0
H530 H 0.89221 0.07444 0.26206 0.0
H531 H 0.89389 0.09469 0.31921 0.0
H532 H 0.89779 0.10355 0.24535 0.0
H533 H 0.98678 0.05302 0.37905 0.0
H534 H 0.96153 0.05829 0.4209 0.0
H535 H 0.96267 0.0346 0.37295 0.0
H536 H 0.89813 0.06074 0.50351 0.0
H537 H 0.89868 0.00536 0.38417 0.0
H538 H 0.91681 0.10359 0.40127 0.0
H539 H 0.93771 0.09177 0.44816 0.0
H540 H 0.90979 0.09762 0.47558 0.0
H541 H 0.91374 0.03784 0.2582 0.0
H542 H 0.90942 0.00986 0.28654 0.0
H543 H 0.93678 0.02308 0.29122 0.0
C544 C 0.4354 0.89886 0.95161 0.0
C545 C 0.45808 0.89381 0.93962 0.0
C546 C 0.422 0.91026 0.91086 0.0
C547 C 0.43156 0.91627 0.85694 0.0
C548 C 0.45385 0.90929 0.84305 0.0
C549 C 0.46696 0.89844 0.88497 0.0
C550 C 0.39843 0.9176 0.92759 0.0
C551 C 0.46452 0.91486 0.78555 0.0
C552 C 0.39819 0.93899 0.7299 0.0
C553 C 0.40452 0.96178 0.73098 0.0
C554 C 0.40582 0.92401 0.77255 0.0
C555 C 0.4197 0.93218 0.81774 0.0
C556 C 0.42461 0.95553 0.82138 0.0
C557 C 0.4172 0.97 0.77752 0.0
C558 C 0.4004 0.89925 0.76688 0.0
C559 C 0.43884 0.96504 0.8698 0.0
H560 H 0.42873 0.89561 -0.00559 0.0
H561 H 0.48459 0.89461 0.87613 0.0
H562 H 0.39859 0.93586 0.93818 0.0
H563 H 0.38642 0.91515 0.89133 0.0
H564 H 0.39209 0.90827 0.96586 0.0
H565 H 0.48072 0.90569 0.77877 0.0
H566 H 0.45282 0.91062 0.74969 0.0
H567 H 0.46797 0.93322 0.78338 0.0
H568 H 0.38842 0.93257 0.69384 0.0
H569 H 0.42185 0.98768 0.77882 0.0
H570 H 0.39506 0.89216 0.809 0.0
H571 H 0.41583 0.89001 0.75308 0.0
H572 H 0.38684 0.8961 0.73463 0.0
H573 H 0.43268 0.95883 0.91212 0.0
H574 H 0.43867 0.98377 0.87039 0.0
H575 H 0.45661 0.9593 0.86472 0.0
C576 C 0.52887 0.41284 0.28589 0.0
C577 C 0.53623 0.39989 0.2389 0.0
C578 C 0.54407 0.41981 0.32871 0.0
C579 C 0.56729 0.41408 0.32368 0.0
C580 C 0.57456 0.39981 0.27828 0.0
C581 C 0.55886 0.39271 0.23652 0.0
C582 C 0.53547 0.43451 0.37737 0.0
C583 C 0.59914 0.39339 0.27133 0.0
C584 C 0.60114 0.46124 0.38932 0.0
C585 C 0.60476 0.45303 0.44505 0.0
C586 C 0.59111 0.44765 0.347 0.0
C587 C 0.58395 0.42561 0.36162 0.0
C588 C 0.58951 0.41656 0.41635 0.0
C589 C 0.60006 0.43043 0.45756 0.0
C590 C 0.58608 0.45775 0.28861 0.0
C591 C 0.5822 0.39318 0.43366 0.0
H592 H 0.51131 0.41812 0.28823 0.0
H593 H 0.56461 0.3827 0.20014 0.0
H594 H 0.54174 0.4282 0.41949 0.0
H595 H 0.54195 0.45193 0.37186 0.0
H596 H 0.51668 0.43519 0.37878 0.0
H597 H 0.60133 0.37897 0.24114 0.0
H598 H 0.60864 0.40801 0.25394 0.0
H599 H 0.6068 0.38896 0.31352 0.0
H600 H 0.60472 0.47879 0.38005 0.0
H601 H 0.60262 0.42426 0.50112 0.0
H602 H 0.56776 0.4618 0.28574 0.0
H603 H 0.59008 0.44557 0.25365 0.0
H604 H 0.59582 0.47349 0.28108 0.0
H605 H 0.56399 0.39352 0.44547 0.0
H606 H 0.59193 0.38695 0.47145 0.0
H607 H 0.58425 0.38109 0.39743 0.0
C608 C 0.0966 0.94227 0.23558 0.0
C609 C 0.09323 0.96565 0.237 0.0
C610 C 0.08773 0.92917 0.19039 0.0
C611 C 0.07579 0.93987 0.14509 0.0
C612 C 0.07414 0.9637 0.14394 0.0
C613 C 0.08257 0.97629 0.19046 0.0
C614 C 0.08953 0.90382 0.1937 0.0
C615 C 0.0622 0.97582 0.09545 0.0
C616 C 0.05796 0.90791 0.01005 0.0
C617 C 0.03479 0.90509 0.02055 0.0
C618 C 0.07185 0.91874 0.05082 0.0
C619 C 0.0623 0.92627 0.10358 0.0
C620 C 0.03915 0.92214 0.1155 0.0
C621 C 0.02559 0.91196 0.07333 0.0
C622 C 0.09627 0.92336 0.03591 0.0
C623 C 0.02844 0.92931 0.17188 0.0
H624 H 0.10474 0.93402 0.27179 0.0
H625 H 0.0802 0.99442 0.19134 0.0
H626 H 0.0727 0.8967 0.2047 0.0
H627 H 0.09461 0.89661 0.15142 0.0
H628 H 0.10188 0.89831 0.22698 0.0
H629 H 0.06541 0.99427 0.09647 0.0
H630 H 0.06771 0.96906 0.05301 0.0
H631 H 0.04368 0.97304 0.09904 0.0
H632 H 0.06491 0.90286 0.96865 0.0
H633 H 0.00762 0.90974 0.08112 0.0
H634 H 0.10755 0.91865 0.0722 0.0
H635 H 0.09852 0.94169 0.02832 0.0
H636 H 0.10175 0.91412 -0.00346 0.0
H637 H 0.03873 0.92327 0.20882 0.0
H638 H 0.01093 0.92277 0.17667 0.0
H639 H 0.02785 0.94798 0.17436 0.0
C640 C 0.55024 0.10002 0.73993 0.0
C641 C 0.52797 0.09183 0.74211 0.0
C642 C 0.56522 0.09291 0.69645 0.0
C643 C 0.55755 0.0776 0.65387 0.0
C644 C 0.53458 0.07071 0.65343 0.0
C645 C 0.52013 0.07772 0.69796 0.0
C646 C 0.58957 0.10053 0.69856 0.0
C647 C 0.52556 0.05485 0.60781 0.0
C648 C 0.58846 0.06194 0.51638 0.0
C649 C 0.59529 0.03996 0.52971 0.0
C650 C 0.57757 0.07538 0.55797 0.0
C651 C 0.57378 0.06653 0.61388 0.0
C652 C 0.58279 0.04518 0.6288 0.0
C653 C 0.59316 0.03198 0.58612 0.0
C654 C 0.56818 0.09799 0.54027 0.0
C655 C 0.57961 0.03535 0.68833 0.0
H656 H 0.55638 0.11091 0.77414 0.0
H657 H 0.50283 0.07162 0.69917 0.0
H658 H 0.60032 0.08642 0.71396 0.0
H659 H 0.59568 0.10523 0.65494 0.0
H660 H 0.59195 0.1151 0.72814 0.0
H661 H 0.50683 0.05323 0.60976 0.0
H662 H 0.53037 0.0608 0.56412 0.0
H663 H 0.53311 0.03788 0.61378 0.0
H664 H 0.58982 0.06785 0.47223 0.0
H665 H 0.59829 0.01484 0.59588 0.0
H666 H 0.57043 0.11067 0.57505 0.0
H667 H 0.54974 0.09634 0.53217 0.0
H668 H 0.57632 0.10431 0.50022 0.0
H669 H 0.58361 0.04806 0.72199 0.0
H670 H 0.59043 0.02026 0.69531 0.0
H671 H 0.56166 0.03032 0.69406 0.0
C672 C 0.38494 0.53873 0.22503 0.0
C673 C 0.40135 0.52436 0.24904 0.0
C674 C 0.39002 0.55233 0.17713 0.0
C675 C 0.41201 0.55159 0.15304 0.0
C676 C 0.42854 0.537 0.17677 0.0
C677 C 0.42299 0.52353 0.2242 0.0
C678 C 0.37194 0.56749 0.15242 0.0
C679 C 0.45222 0.53562 0.15214 0.0
C680 C 0.42896 0.56523 0.00088 0.0
C681 C 0.44155 0.58494 0.0094 0.0
C682 C 0.41693 0.55542 0.04636 0.0
C683 C 0.41801 0.56537 0.10184 0.0
C684 C 0.42883 0.58652 0.10916 0.0
C685 C 0.44044 0.59619 0.06242 0.0
C686 C 0.4052 0.53315 0.03629 0.0
C687 C 0.4303 0.59769 0.16761 0.0
H688 H 0.36816 0.53951 0.24387 0.0
H689 H 0.4358 0.51252 0.24224 0.0
H690 H 0.37749 0.58532 0.15478 0.0
H691 H 0.36921 0.56346 0.10615 0.0
H692 H 0.35555 0.56584 0.1756 0.0
H693 H 0.46323 0.52385 0.17666 0.0
H694 H 0.45152 0.52984 0.10659 0.0
H695 H 0.46019 0.55255 0.15247 0.0
H696 H 0.42979 0.55666 0.9595 0.0
H697 H 0.45032 0.61139 0.06884 0.0
H698 H 0.3888 0.5325 0.05955 0.0
H699 H 0.41597 0.5193 0.05313 0.0
H700 H 0.40211 0.53 -0.01035 0.0
H701 H 0.41387 0.5967 0.19067 0.0
H702 H 0.43539 0.61567 0.16417 0.0
H703 H 0.44309 0.58876 0.1942 0.0
C704 C 0.93836 0.41315 0.76863 0.0
C705 C 0.95657 0.39859 0.75864 0.0
C706 C 0.92555 0.42154 0.72263 0.0
C707 C 0.93157 0.41558 0.66543 0.0
C708 C 0.94884 0.39939 0.65565 0.0
C709 C 0.96118 0.39098 0.70273 0.0
C710 C 0.90708 0.43849 0.73503 0.0
C711 C 0.9558 0.39267 0.59534 0.0
C712 C 0.8968 0.439 0.54057 0.0
C713 C 0.90914 0.45852 0.52723 0.0
C714 C 0.90384 0.4246 0.58537 0.0
C715 C 0.92361 0.42994 0.61715 0.0
C716 C 0.93593 0.44971 0.60413 0.0
C717 C 0.92852 0.46372 0.55966 0.0
C718 C 0.89034 0.40363 0.59827 0.0
C719 C 0.95706 0.45617 0.63715 0.0
H720 H 0.93484 0.41881 0.81231 0.0
H721 H 0.97533 0.37966 0.69551 0.0
H722 H 0.91339 0.45569 0.7253 0.0
H723 H 0.8921 0.43538 0.70728 0.0
H724 H 0.9017 0.43806 0.78098 0.0
H725 H 0.9663 0.37711 0.59521 0.0
H726 H 0.94074 0.38991 0.56764 0.0
H727 H 0.96586 0.40648 0.57578 0.0
H728 H 0.88188 0.4348 0.51555 0.0
H729 H 0.93813 0.47881 0.5502 0.0
H730 H 0.88571 0.40313 0.64468 0.0
H731 H 0.90082 0.38849 0.58929 0.0
H732 H 0.87463 0.4026 0.57205 0.0
H733 H 0.95295 0.45858 0.6835 0.0
H734 H 0.96486 0.47194 0.62077 0.0
H735 H 0.96979 0.44245 0.63418 0.0
C736 C 0.9325 0.41189 0.00844 0.0
C737 C 0.94742 0.39401 0.01869 0.0
C738 C 0.92071 0.42213 0.05391 0.0
C739 C 0.92436 0.41447 0.11096 0.0
C740 C 0.93752 0.39482 0.12055 0.0
C741 C 0.94896 0.38472 0.07394 0.0
C742 C 0.90658 0.44278 0.04147 0.0
C743 C 0.94168 0.38602 0.18066 0.0
C744 C 0.9294 0.46128 0.22146 0.0
C745 C 0.90866 0.45996 0.25083 0.0
C746 C 0.93465 0.44637 0.17651 0.0
C747 C 0.91877 0.42969 0.16002 0.0
C748 C 0.89772 0.42828 0.18897 0.0
C749 C 0.89291 0.44345 0.23415 0.0
C750 C 0.95729 0.44856 0.14654 0.0
C751 C 0.88034 0.41084 0.17213 0.0
H752 H 0.93142 0.419 0.9654 0.0
H753 H 0.96069 0.37098 0.08166 0.0
H754 H 0.89097 0.44294 0.0681 0.0
H755 H 0.91645 0.4581 0.05249 0.0
H756 H 0.90175 0.44375 -0.00482 0.0
H757 H 0.94818 0.36843 0.17996 0.0
H758 H 0.95442 0.39683 0.2024 0.0
H759 H 0.92596 0.3866 0.20684 0.0
H760 H 0.94171 0.47392 0.23378 0.0
H761 H 0.87684 0.44225 0.25656 0.0
H762 H 0.9547 0.45234 0.10013 0.0
H763 H 0.96673 0.43241 0.14922 0.0
H764 H 0.96794 0.46209 0.16558 0.0
H765 H 0.87531 0.41323 0.12642 0.0
H766 H 0.86493 0.41172 0.19955 0.0
H767 H 0.88773 0.3937 0.17562 0.0
C768 C 0.02837 0.92671 0.72176 0.0
C769 C 0.02898 0.90482 0.7444 0.0
C770 C 0.04186 0.93273 0.67452 0.0
C771 C 0.05617 0.9164 0.64866 0.0
C772 C 0.05678 0.89421 0.67082 0.0
C773 C 0.04325 0.8887 0.71867 0.0
C774 C 0.04071 0.95662 0.65217 0.0
C775 C 0.07154 0.8763 0.64368 0.0
C776 C 0.06958 0.93411 0.49656 0.0
C777 C 0.08996 0.94573 0.50459 0.0
C778 C 0.05945 0.92235 0.54207 0.0
C779 C 0.06975 0.92275 0.59718 0.0
C780 C 0.09138 0.93276 0.60409 0.0
C781 C 0.10137 0.94405 0.55728 0.0
C782 C 0.03668 0.91144 0.53238 0.0
C783 C 0.10291 0.93355 0.66217 0.0
H784 H 0.0175 0.93932 0.74137 0.0
H785 H 0.04378 0.8717 0.73568 0.0
H786 H 0.05786 0.96422 0.65198 0.0
H787 H 0.03447 0.95662 0.60701 0.0
H788 H 0.02935 0.96748 0.67851 0.0
H789 H 0.07037 0.85992 0.66668 0.0
H790 H 0.06651 0.87368 0.59801 0.0
H791 H 0.08947 0.88184 0.64355 0.0
H792 H 0.06086 0.93536 0.45547 0.0
H793 H 0.11708 0.9532 0.5634 0.0
H794 H 0.02322 0.92233 0.55095 0.0
H795 H 0.03576 0.89487 0.55435 0.0
H796 H 0.03306 0.90898 0.48573 0.0
H797 H 0.09423 0.94614 0.68998 0.0
H798 H 0.12101 0.93839 0.65841 0.0
H799 H 0.10179 0.917 0.68415 0.0
C800 C 0.60234 0.04766 0.22667 0.0
C801 C 0.58525 0.03611 0.25666 0.0
C802 C 0.59719 0.06104 0.17833 0.0
C803 C 0.57445 0.06282 0.15965 0.0
C804 C 0.55709 0.05181 0.1909 0.0
C805 C 0.5627 0.03861 0.2388 0.0
C806 C 0.61613 0.07255 0.14616 0.0
C807 C 0.53257 0.05328 0.17259 0.0
C808 C 0.54851 0.10474 0.05621 0.0
C809 C 0.54451 0.09064 0.00874 0.0
C810 C 0.56045 0.09666 0.10448 0.0
C811 C 0.56855 0.07414 0.1045 0.0
C812 C 0.56676 0.0609 0.05384 0.0
C813 C 0.55465 0.06929 0.0067 0.0
C814 C 0.56241 0.11143 0.15731 0.0
C815 C 0.57548 0.03697 0.05147 0.0
H816 H 0.61982 0.04595 0.24025 0.0
H817 H 0.54929 0.03003 0.2619 0.0
H818 H 0.61947 0.06338 0.10522 0.0
H819 H 0.61137 0.09008 0.13477 0.0
H820 H 0.63205 0.07291 0.17168 0.0
H821 H 0.52101 0.04486 0.20362 0.0
H822 H 0.52735 0.07117 0.16844 0.0
H823 H 0.53041 0.04522 0.12967 0.0
H824 H 0.54076 0.12131 0.05764 0.0
H825 H 0.5519 0.05855 0.96939 0.0
H826 H 0.57921 0.10941 0.17803 0.0
H827 H 0.54937 0.10636 0.18925 0.0
H828 H 0.55978 0.12951 0.14673 0.0
H829 H 0.59269 0.03584 0.07031 0.0
H830 H 0.57602 0.03034 0.00659 0.0
H831 H 0.5642 0.02595 0.07732 0.0
C832 C 0.41256 0.55891 0.49971 0.0
C833 C 0.39512 0.54366 0.51155 0.0
C834 C 0.42234 0.57174 0.54395 0.0
C835 C 0.41479 0.56869 0.60137 0.0
C836 C 0.3955 0.55514 0.61233 0.0
C837 C 0.38577 0.54276 0.56692 0.0
C838 C 0.44246 0.58642 0.53007 0.0
C839 C 0.38685 0.55153 0.6729 0.0
C840 C 0.46106 0.56554 0.71387 0.0
C841 C 0.45836 0.58592 0.74391 0.0
C842 C 0.44703 0.55995 0.6674 0.0
C843 C 0.42991 0.5752 0.64984 0.0
C844 C 0.42751 0.59615 0.67852 0.0
C845 C 0.44171 0.60124 0.72549 0.0
C846 C 0.45033 0.53745 0.6377 0.0
C847 C 0.40969 0.61295 0.66037 0.0
H848 H 0.41973 0.5595 0.4566 0.0
H849 H 0.37238 0.53077 0.57588 0.0
H850 H 0.44212 0.60221 0.55583 0.0
H851 H 0.45826 0.57725 0.54109 0.0
H852 H 0.44307 0.59081 0.48349 0.0
H853 H 0.36957 0.54415 0.67306 0.0
H854 H 0.39839 0.5398 0.69585 0.0
H855 H 0.38657 0.5676 0.6974 0.0
H856 H 0.47392 0.55361 0.72735 0.0
H857 H 0.4395 0.61706 0.74831 0.0
H858 H 0.45417 0.54005 0.59131 0.0
H859 H 0.43453 0.5274 0.64031 0.0
H860 H 0.4643 0.52746 0.65706 0.0
H861 H 0.41038 0.61575 0.61306 0.0
H862 H 0.41167 0.62943 0.6827 0.0
H863 H 0.39264 0.60618 0.67046 0.0
C864 C 0.93014 0.03334 0.73703 0.0
C865 C 0.90755 0.03227 0.71858 0.0
C866 C 0.93628 0.04584 0.78583 0.0
C867 C 0.91945 0.05766 0.81723 0.0
C868 C 0.89673 0.05734 0.79796 0.0
C869 C 0.89102 0.0446 0.74881 0.0
C870 C 0.96075 0.0457 0.80497 0.0
C871 C 0.87836 0.06974 0.83039 0.0
C872 C 0.93867 0.06324 0.97121 0.0
C873 C 0.94927 0.08433 0.97018 0.0
C874 C 0.92671 0.05526 0.92324 0.0
C875 C 0.92576 0.06857 0.87269 0.0
C876 C 0.93467 0.09075 0.87332 0.0
C877 C 0.94626 0.09848 0.92251 0.0
C878 C 0.91704 0.03171 0.92493 0.0
C879 C 0.9339 0.10548 0.82035 0.0
H880 H 0.9431 0.02402 0.71399 0.0
H881 H 0.87351 0.04396 0.73486 0.0
H882 H 0.96699 0.06321 0.81045 0.0
H883 H 0.96221 0.03719 0.84743 0.0
H884 H 0.97195 0.03683 0.77377 0.0
H885 H 0.86219 0.07021 0.80591 0.0
H886 H 0.87525 0.06129 0.87232 0.0
H887 H 0.88369 0.08728 0.84 0.0
H888 H 0.94073 0.05245 0.0086 0.0
H889 H 0.95446 0.11483 0.92184 0.0
H890 H 0.92808 0.02021 0.89957 0.0
H891 H 0.89995 0.03128 0.90517 0.0
H892 H 0.91588 0.02514 0.96972 0.0
H893 H 0.94676 0.09951 0.78888 0.0
H894 H 0.93753 0.1234 0.83088 0.0
H895 H 0.91712 0.10442 0.79904 0.0
C896 C 0.39461 0.94647 0.41273 0.0
C897 C 0.40843 0.95059 0.46068 0.0
C898 C 0.40321 0.93497 0.36422 0.0
C899 C 0.42595 0.92727 0.36452 0.0
C900 C 0.43918 0.92968 0.41503 0.0
C901 C 0.43031 0.94147 0.46228 0.0
C902 C 0.38857 0.93269 0.31118 0.0
C903 C 0.46335 0.92138 0.41768 0.0
C904 C 0.45073 0.88986 0.24677 0.0
C905 C 0.46273 0.90565 0.21365 0.0
C906 C 0.43799 0.89664 0.29507 0.0
C907 C 0.4371 0.91975 0.31022 0.0
C908 C 0.44861 0.93581 0.27594 0.0
C909 C 0.46136 0.92857 0.22837 0.0
C910 C 0.42613 0.87903 0.33098 0.0
C911 C 0.44802 0.96066 0.29043 0.0
H912 H 0.37769 0.95356 0.41152 0.0
H913 H 0.44089 0.94439 0.49981 0.0
H914 H 0.39436 0.94486 0.278 0.0
H915 H 0.39011 0.91555 0.29232 0.0
H916 H 0.37046 0.93613 0.32076 0.0
H917 H 0.4702 0.92179 0.46234 0.0
H918 H 0.46461 0.9039 0.40091 0.0
H919 H 0.47419 0.93218 0.39008 0.0
H920 H 0.45168 0.87211 0.23574 0.0
H921 H 0.47034 0.94095 0.20279 0.0
H922 H 0.40821 0.88386 0.33834 0.0
H923 H 0.43435 0.87789 0.37393 0.0
H924 H 0.42662 0.86211 0.31038 0.0
H925 H 0.43025 0.96649 0.29502 0.0
H926 H 0.4565 0.9711 0.25706 0.0
H927 H 0.45659 0.96362 0.33238 0.0
C928 C 0.55071 0.38966 0.9243 0.0
C929 C 0.54394 0.40492 0.96726 0.0
C930 C 0.56247 0.39723 0.87514 0.0
C931 C 0.56754 0.42048 0.86944 0.0
C932 C 0.56236 0.43551 0.91506 0.0
C933 C 0.55063 0.42755 0.96326 0.0
C934 C 0.568 0.38066 0.8277 0.0
C935 C 0.56765 0.46039 0.91117 0.0
C936 C 0.60472 0.44652 0.7537 0.0
C937 C 0.58833 0.45546 0.71627 0.0
C938 C 0.59836 0.43383 0.80227 0.0
C939 C 0.57512 0.42995 0.81333 0.0
C940 C 0.55864 0.43789 0.77397 0.0
C941 C 0.56542 0.4506 0.72616 0.0
C942 C 0.61642 0.4256 0.84323 0.0
C943 C 0.53366 0.43399 0.7839 0.0
H944 H 0.5457 0.37213 0.92742 0.0
H945 H 0.54588 0.43933 -0.00297 0.0
H946 H 0.55583 0.38285 0.79169 0.0
H947 H 0.58522 0.38374 0.81025 0.0
H948 H 0.56695 0.36294 0.84294 0.0
H949 H 0.56479 0.46928 0.95282 0.0
H950 H 0.58548 0.46301 0.89783 0.0
H951 H 0.5567 0.46828 0.87792 0.0
H952 H 0.62248 0.45007 0.74621 0.0
H953 H 0.55265 0.45706 0.69696 0.0
H954 H 0.61318 0.40789 0.85602 0.0
H955 H 0.61609 0.43598 0.88312 0.0
H956 H 0.63361 0.42673 0.82401 0.0
H957 H 0.53035 0.41589 0.79235 0.0
H958 H 0.52321 0.43937 0.74651 0.0
H959 H 0.52806 0.4436 0.82253 0.0
C960 C 0.09623 0.54627 0.41748 0.0
C961 C 0.08301 0.54337 0.46707 0.0
C962 C 0.08757 0.55799 0.36962 0.0
C963 C 0.06541 0.56716 0.37227 0.0
C964 C 0.05307 0.56623 0.42455 0.0
C965 C 0.06195 0.55415 0.47116 0.0
C966 C 0.10127 0.5587 0.31468 0.0
C967 C 0.0296 0.57617 0.4297 0.0
C968 C 0.04136 0.60301 0.25081 0.0
C969 C 0.02853 0.58703 0.22019 0.0
C970 C 0.05386 0.59682 0.29995 0.0
C971 C 0.05358 0.57413 0.31858 0.0
C972 C 0.04087 0.55792 0.28754 0.0
C973 C 0.02846 0.56457 0.239 0.0
C974 C 0.06702 0.61458 0.33242 0.0
C975 C 0.04012 0.5335 0.30601 0.0
H976 H 0.11252 0.5379 0.41438 0.0
H977 H 0.05188 0.55216 0.50997 0.0
H978 H 0.09425 0.54632 0.28346 0.0
H979 H 0.10027 0.57558 0.29439 0.0
H980 H 0.11934 0.55445 0.3224 0.0
H981 H 0.02395 0.57732 0.47537 0.0
H982 H 0.02896 0.59323 0.41031 0.0
H983 H 0.01743 0.56539 0.40582 0.0
H984 H 0.04154 0.62042 0.23669 0.0
H985 H 0.01874 0.55204 0.21563 0.0
H986 H 0.08494 0.60931 0.33722 0.0
H987 H 0.05995 0.61656 0.37653 0.0
H988 H 0.06651 0.63122 0.31052 0.0
H989 H 0.05754 0.52661 0.30913 0.0
H990 H 0.03028 0.52283 0.2756 0.0
H991 H 0.0323 0.53218 0.34943 0.0
C992 C 0.90745 0.54913 0.32705 0.0
C993 C 0.885 0.54244 0.31753 0.0
C994 C 0.9179 0.56512 0.2918 0.0
C995 C 0.90529 0.57554 0.24733 0.0
C996 C 0.8821 0.57012 0.24003 0.0
C997 C 0.8723 0.55324 0.27459 0.0
C998 C 0.94284 0.56988 0.30029 0.0
C999 C 0.86786 0.58156 0.19466 0.0
C1000 C 0.93889 0.62443 0.1874 0.0
C1001 C 0.94995 0.61394 0.14102 0.0
C1002 C 0.92231 0.61285 0.21921 0.0
C1003 C 0.91739 0.59009 0.20537 0.0
C1004 C 0.92743 0.58003 0.1562 0.0
C1005 C 0.94325 0.59224 0.12403 0.0
C1006 C 0.91113 0.62447 0.26973 0.0
C1007 C 0.9231 0.55567 0.14051 0.0
H1008 H 0.91731 0.54123 0.36077 0.0
H1009 H 0.85482 0.54838 0.26765 0.0
H1010 H 0.95234 0.56533 0.26056 0.0
H1011 H 0.94557 0.58811 0.30825 0.0
H1012 H 0.95015 0.56032 0.33701 0.0
H1013 H 0.84948 0.57945 0.20323 0.0
H1014 H 0.87178 0.59984 0.19249 0.0
H1015 H 0.87163 0.57414 0.15175 0.0
H1016 H 0.94367 0.64138 0.2 0.0
H1017 H 0.95133 0.58418 0.08744 0.0
H1018 H 0.91911 0.61876 0.31049 0.0
H1019 H 0.89288 0.62012 0.2719 0.0
H1020 H 0.91286 0.64309 0.26712 0.0
H1021 H 0.93024 0.54457 0.17449 0.0
H1022 H 0.93087 0.55093 0.0985 0.0
H1023 H 0.90468 0.55228 0.13821 0.0
C1024 C 0.87258 0.92743 0.66789 0.0
C1025 C 0.88125 0.94938 0.66764 0.0
C1026 C 0.88415 0.91002 0.69677 0.0
C1027 C 0.90475 0.9149 0.72553 0.0
C1028 C 0.91311 0.93726 0.72638 0.0
C1029 C 0.90117 0.95418 0.69757 0.0
C1030 C 0.87465 0.88643 0.69555 0.0
C1031 C 0.9349 0.94333 0.7569 0.0
C1032 C 0.93273 0.88247 0.84534 0.0
C1033 C 0.95124 0.87305 0.8163 0.0
C1034 C 0.91582 0.89407 0.8151 0.0
C1035 C 0.91805 0.89698 0.75474 0.0
C1036 C 0.9359 0.88603 0.72476 0.0
C1037 C 0.95221 0.87391 0.75601 0.0
C1038 C 0.89675 0.90493 0.8485 0.0
C1039 C 0.93911 0.88905 0.6606 0.0
H1040 H 0.85712 0.92381 0.64443 0.0
H1041 H 0.90755 0.97119 0.69828 0.0
H1042 H 0.88613 0.87524 0.67063 0.0
H1043 H 0.87359 0.87956 0.73998 0.0
H1044 H 0.85757 0.88581 0.67557 0.0
H1045 H 0.93912 0.96151 0.75277 0.0
H1046 H 0.93359 0.93922 0.80347 0.0
H1047 H 0.94913 0.9333 0.73889 0.0
H1048 H 0.932 0.88164 0.89208 0.0
H1049 H 0.9667 0.86676 0.73375 0.0
H1050 H 0.88048 0.90322 0.825 0.0
H1051 H 0.90023 0.9232 0.85365 0.0
H1052 H 0.89485 0.89744 0.89216 0.0
H1053 H 0.9228 0.88716 0.63744 0.0
H1054 H 0.95148 0.87678 0.64256 0.0
H1055 H 0.94547 0.90633 0.65209 0.0
C1056 C 0.5533 0.89499 0.12863 0.0
C1057 C 0.54219 0.87641 0.15288 0.0
C1058 C 0.56847 0.90794 0.16109 0.0
C1059 C 0.5729 0.90198 0.21909 0.0
C1060 C 0.56316 0.88216 0.24239 0.0
C1061 C 0.54776 0.86962 0.20902 0.0
C1062 C 0.57826 0.92906 0.13464 0.0
C1063 C 0.56788 0.875 0.30368 0.0
C1064 C 0.61947 0.93631 0.29087 0.0
C1065 C 0.60672 0.95266 0.32013 0.0
C1066 C 0.60873 0.91879 0.26032 0.0
C1067 C 0.58478 0.91834 0.25713 0.0
C1068 C 0.57192 0.93481 0.2869 0.0
C1069 C 0.58305 0.95145 0.31897 0.0
C1070 C 0.62294 0.901 0.23092 0.0
C1071 C 0.54636 0.93544 0.28314 0.0
H1072 H 0.54931 0.90014 0.08493 0.0
H1073 H 0.53935 0.85515 0.22781 0.0
H1074 H 0.57063 0.94408 0.15572 0.0
H1075 H 0.59679 0.92987 0.14184 0.0
H1076 H 0.57497 0.93008 0.08749 0.0
H1077 H 0.56251 0.85734 0.31172 0.0
H1078 H 0.58618 0.8766 0.31371 0.0
H1079 H 0.55853 0.88616 0.33391 0.0
H1080 H 0.6378 0.93708 0.29237 0.0
H1081 H 0.57311 0.96402 0.34142 0.0
H1082 H 0.62127 0.90253 0.18341 0.0
H1083 H 0.61685 0.88394 0.24291 0.0
H1084 H 0.64114 0.90241 0.24243 0.0
H1085 H 0.54108 0.93757 0.23749 0.0
H1086 H 0.53891 0.9494 0.30898 0.0
H1087 H 0.53913 0.9193 0.29855 0.0
C1088 C 0.62101 0.55053 0.70593 0.0
C1089 C 0.61067 0.53846 0.66104 0.0
C1090 C 0.60869 0.56644 0.73837 0.0
C1091 C 0.58537 0.56971 0.72672 0.0
C1092 C 0.57508 0.55802 0.68034 0.0
C1093 C 0.58797 0.54287 0.64749 0.0
C1094 C 0.6204 0.57916 0.78626 0.0
C1095 C 0.55013 0.56053 0.66731 0.0
C1096 C 0.54457 0.58432 0.84682 0.0
C1097 C 0.53767 0.60614 0.83149 0.0
C1098 C 0.56081 0.57265 0.81442 0.0
C1099 C 0.57096 0.5833 0.76637 0.0
C1100 C 0.5653 0.60592 0.75307 0.0
C1101 C 0.54847 0.61703 0.78545 0.0
C1102 C 0.56599 0.54841 0.82954 0.0
C1103 C 0.57628 0.61803 0.70318 0.0
H1104 H 0.63864 0.54739 0.71609 0.0
H1105 H 0.57988 0.53381 0.61256 0.0
H1106 H 0.61604 0.59735 0.78434 0.0
H1107 H 0.61455 0.57275 0.82866 0.0
H1108 H 0.6391 0.57732 0.78409 0.0
H1109 H 0.54492 0.55079 0.62851 0.0
H1110 H 0.54004 0.55457 0.70471 0.0
H1111 H 0.54581 0.57851 0.66041 0.0
H1112 H 0.53657 0.57587 0.88287 0.0
H1113 H 0.5434 0.63398 0.7738 0.0
H1114 H 0.58448 0.54594 0.83465 0.0
H1115 H 0.56033 0.53721 0.79392 0.0
H1116 H 0.55747 0.543 0.86997 0.0
H1117 H 0.59487 0.61526 0.70345 0.0
H1118 H 0.57287 0.63645 0.70435 0.0
H1119 H 0.56968 0.6112 0.6619 0.0
C1120 C 0.08343 0.44314 0.63676 0.0
C1121 C 0.1061 0.44889 0.64694 0.0
C1122 C 0.07232 0.42719 0.67093 0.0
C1123 C 0.08441 0.41604 0.71519 0.0
C1124 C 0.10777 0.42051 0.72299 0.0
C1125 C 0.11831 0.43719 0.68926 0.0
C1126 C 0.04727 0.42334 0.66185 0.0
C1127 C 0.12139 0.40835 0.76838 0.0
C1128 C 0.04683 0.39983 0.84024 0.0
C1129 C 0.04039 0.37786 0.82501 0.0
C1130 C 0.0621 0.41205 0.80636 0.0
C1131 C 0.07173 0.40182 0.75686 0.0
C1132 C 0.06667 0.37903 0.74371 0.0
C1133 C 0.05078 0.36737 0.7776 0.0
C1134 C 0.06667 0.43644 0.8214 0.0
C1135 C 0.07716 0.36735 0.6923 0.0
H1136 H 0.07393 0.4518 0.60355 0.0
H1137 H 0.13593 0.44135 0.69678 0.0
H1138 H 0.0438 0.40516 0.65516 0.0
H1139 H 0.0378 0.42873 0.70094 0.0
H1140 H 0.04056 0.43281 0.62422 0.0
H1141 H 0.13988 0.41075 0.76223 0.0
H1142 H 0.11674 0.41482 0.81176 0.0
H1143 H 0.11759 0.39003 0.76768 0.0
H1144 H 0.03915 0.40796 0.87731 0.0
H1145 H 0.0461 0.35028 0.76608 0.0
H1146 H 0.05972 0.44748 0.78706 0.0
H1147 H 0.08514 0.4396 0.82372 0.0
H1148 H 0.05891 0.44144 0.86322 0.0
H1149 H 0.0692 0.37364 0.65208 0.0
H1150 H 0.07482 0.34878 0.69411 0.0
H1151 H 0.09553 0.37111 0.68967 0.0
C1152 C 0.05585 0.11855 0.19498 0.0
C1153 C 0.04372 0.10612 0.1538 0.0
C1154 C 0.07306 0.10833 0.22772 0.0
C1155 C 0.07757 0.08504 0.22029 0.0
C1156 C 0.06606 0.07275 0.1769 0.0
C1157 C 0.04962 0.08357 0.14351 0.0
C1158 C 0.08565 0.12218 0.27197 0.0
C1159 C 0.06992 0.04775 0.16836 0.0
C1160 C 0.12584 0.05076 0.28286 0.0
C1161 C 0.11507 0.0408 0.33029 0.0
C1162 C 0.11453 0.06693 0.24913 0.0
C1163 C 0.0918 0.07259 0.26237 0.0
C1164 C 0.08144 0.0636 0.31232 0.0
C1165 C 0.09338 0.04818 0.34622 0.0
C1166 C 0.12642 0.07691 0.19755 0.0
C1167 C 0.05707 0.06876 0.32746 0.0
H1168 H 0.05161 0.1361 0.20242 0.0
H1169 H 0.04062 0.07392 0.1111 0.0
H1170 H 0.07909 0.11831 0.31571 0.0
H1171 H 0.10396 0.11798 0.27154 0.0
H1172 H 0.08359 0.14055 0.26433 0.0
H1173 H 0.06025 0.04089 0.13114 0.0
H1174 H 0.08814 0.04421 0.16129 0.0
H1175 H 0.06469 0.03852 0.20781 0.0
H1176 H 0.14275 0.04538 0.27085 0.0
H1177 H 0.0851 0.04092 0.38354 0.0
H1178 H 0.12248 0.09513 0.19344 0.0
H1179 H 0.12047 0.06841 0.15765 0.0
H1180 H 0.14508 0.07475 0.20039 0.0
H1181 H 0.05426 0.08722 0.3294 0.0
H1182 H 0.05197 0.06135 0.36949 0.0
H1183 H 0.04577 0.06192 0.29339 0.0
C1184 C 0.40371 0.04883 0.63824 0.0
C1185 C 0.38187 0.04117 0.65147 0.0
C1186 C 0.41459 0.06484 0.67286 0.0
C1187 C 0.40302 0.07412 0.72085 0.0
C1188 C 0.38025 0.06789 0.73169 0.0
C1189 C 0.37002 0.05116 0.69734 0.0
C1190 C 0.43904 0.07056 0.66034 0.0
C1191 C 0.36707 0.0781 0.78107 0.0
C1192 C 0.44289 0.08843 0.84264 0.0
C1193 C 0.44847 0.11088 0.83019 0.0
C1194 C 0.4272 0.07659 0.80908 0.0
C1195 C 0.416 0.08776 0.76334 0.0
C1196 C 0.41996 0.11102 0.75393 0.0
C1197 C 0.43651 0.12226 0.78685 0.0
C1198 C 0.42397 0.05167 0.81987 0.0
C1199 C 0.40758 0.12374 0.70727 0.0
H1200 H 0.41287 0.04154 0.60223 0.0
H1201 H 0.353 0.04555 0.70725 0.0
H1202 H 0.44118 0.08904 0.65629 0.0
H1203 H 0.44987 0.0649 0.69672 0.0
H1204 H 0.44531 0.06246 0.62008 0.0
H1205 H 0.34857 0.07541 0.77601 0.0
H1206 H 0.37246 0.07022 0.8222 0.0
H1207 H 0.37041 0.09647 0.78451 0.0
H1208 H 0.45167 0.07961 0.87685 0.0
H1209 H 0.44044 0.13974 0.77772 0.0
H1210 H 0.43016 0.04192 0.78205 0.0
H1211 H 0.40576 0.04772 0.82532 0.0
H1212 H 0.4332 0.04577 0.8588 0.0
H1213 H 0.415 0.11951 0.66461 0.0
H1214 H 0.40881 0.14228 0.71358 0.0
H1215 H 0.38944 0.11888 0.70618 0.0
C1216 C 0.4444 0.36773 0.20868 0.0
C1217 C 0.45471 0.37985 0.16394 0.0
C1218 C 0.42751 0.37776 0.24314 0.0
C1219 C 0.42142 0.40056 0.23349 0.0
C1220 C 0.43127 0.41253 0.1871 0.0
C1221 C 0.44745 0.4019 0.15239 0.0
C1222 C 0.41679 0.36424 0.29097 0.0
C1223 C 0.42565 0.43702 0.17587 0.0
C1224 C 0.37119 0.43283 0.29291 0.0
C1225 C 0.38146 0.44507 0.3376 0.0
C1226 C 0.38345 0.41652 0.26175 0.0
C1227 C 0.40662 0.41295 0.27463 0.0
C1228 C 0.41659 0.42427 0.32204 0.0
C1229 C 0.40377 0.43989 0.35351 0.0
C1230 C 0.372 0.40412 0.21291 0.0
C1231 C 0.44136 0.42133 0.33664 0.0
H1232 H 0.44975 0.35059 0.21734 0.0
H1233 H 0.45503 0.4113 0.11736 0.0
H1234 H 0.42381 0.36971 0.33313 0.0
H1235 H 0.39823 0.36714 0.29229 0.0
H1236 H 0.42004 0.3459 0.28586 0.0
H1237 H 0.43456 0.44376 0.13736 0.0
H1238 H 0.40718 0.43912 0.16935 0.0
H1239 H 0.43047 0.44739 0.21389 0.0
H1240 H 0.35381 0.43648 0.28109 0.0
H1241 H 0.41172 0.44895 0.3887 0.0
H1242 H 0.377 0.38608 0.21268 0.0
H1243 H 0.37736 0.41148 0.17112 0.0
H1244 H 0.35326 0.40529 0.21585 0.0
H1245 H 0.44567 0.40321 0.34051 0.0
H1246 H 0.44604 0.42996 0.37755 0.0
H1247 H 0.45188 0.42839 0.30131 0.0
loop_
_geom_bond_atom_site_label_1
_geom_bond_atom_site_label_2
_geom_bond_distance
_geom_bond_site_symmetry_2
_ccdc_geom_bond_type
Co0 O1 2.216 1_455 S
Co0 O2 2.091 . S
Co0 O4 2.004 . S
Co0 O10 2.021 . S
Co0 O12 2.137 1_455 S
Co0 O13 2.244 1_455 S
O1 Co0 2.216 1_655 S
O1 C8 1.247 1_655 S
O2 Co0 2.091 . S
O2 C8 1.261 . S
C3 O12 1.247 . S
C3 O13 1.272 . S
O4 Co0 2.004 . S
O4 C9 1.259 . S
Co5 O6 2.061 . S
Co5 O11 2.052 . S
Co5 O13 2.135 1_455 S
O6 Co5 2.061 . S
O6 C9 1.235 . S
C7 O10 1.238 . S
C7 O11 1.241 . S
C8 O1 1.247 1_455 S
C8 O2 1.261 . S
C9 O4 1.259 . S
C9 O6 1.235 . S
O10 Co0 2.021 . S
O10 C7 1.238 . S
O11 Co5 2.052 . S
O11 C7 1.241 . S
O12 Co0 2.137 1_655 S
O12 C3 1.247 . S
O13 Co0 2.244 1_655 S
O13 C3 1.272 . S
O13 Co5 2.135 1_655 S
Co14 O15 2.216 1_545 S
Co14 O16 2.091 . S
Co14 O18 2.004 . S
Co14 O24 2.021 . S
Co14 O26 2.137 1_545 S
Co14 O27 2.244 1_545 S
O15 Co14 2.216 1_565 S
O15 C22 1.247 1_565 S
O16 Co14 2.091 . S
O16 C22 1.261 . S
C17 O26 1.247 . S
C17 O27 1.272 . S
O18 Co14 2.004 . S
O18 C23 1.259 . S
Co19 O20 2.061 . S
Co19 O25 2.052 . S
Co19 O27 2.135 1_545 S
O20 Co19 2.061 . S
O20 C23 1.235 . S
C21 O24 1.238 . S
C21 O25 1.241 . S
C22 O15 1.247 1_545 S
C22 O16 1.261 . S
C23 O18 1.259 . S
C23 O20 1.235 . S
O24 Co14 2.021 . S
O24 C21 1.238 . S
O25 Co19 2.052 . S
O25 C21 1.241 . S
O26 Co14 2.137 1_565 S
O26 C17 1.247 . S
O27 Co14 2.244 1_565 S
O27 C17 1.272 . S
O27 Co19 2.135 1_565 S
Co28 O29 2.216 . S
Co28 O30 2.091 . S
Co28 O32 2.004 . S
Co28 O38 2.021 . S
Co28 O40 2.137 . S
Co28 O41 2.244 . S
O29 Co28 2.216 . S
O29 C36 1.247 . S
O30 Co28 2.091 . S
O30 C36 1.261 . S
C31 O40 1.247 . S
C31 O41 1.272 . S
O32 Co28 2.004 . S
O32 C37 1.259 . S
Co33 O34 2.061 . S
Co33 O39 2.052 . S
Co33 O41 2.135 . S
O34 Co33 2.061 . S
O34 C37 1.235 . S
C35 O38 1.238 . S
C35 O39 1.241 . S
C36 O29 1.247 . S
C36 O30 1.261 . S
C37 O32 1.259 . S
C37 O34 1.235 . S
O38 Co28 2.021 . S
O38 C35 1.238 . S
O39 Co33 2.052 . S
O39 C35 1.241 . S
O40 Co28 2.137 . S
O40 C31 1.247 . S
O41 Co28 2.244 . S
O41 C31 1.272 . S
O41 Co33 2.135 . S
Co42 O43 2.216 . S
Co42 O44 2.091 . S
Co42 O46 2.004 . S
Co42 O52 2.021 . S
Co42 O54 2.137 . S
Co42 O55 2.244 . S
O43 Co42 2.216 . S
O43 C50 1.247 . S
O44 Co42 2.091 . S
O44 C50 1.261 . S
C45 O54 1.247 . S
C45 O55 1.272 . S
O46 Co42 2.004 . S
O46 C51 1.259 . S
Co47 O48 2.061 . S
Co47 O53 2.052 . S
Co47 O55 2.135 . S
O48 Co47 2.061 . S
O48 C51 1.235 . S
C49 O52 1.238 . S
C49 O53 1.241 . S
C50 O43 1.247 . S
C50 O44 1.261 . S
C51 O46 1.259 . S
C51 O48 1.235 . S
O52 Co42 2.021 . S
O52 C49 1.238 . S
O53 Co47 2.052 . S
O53 C49 1.241 . S
O54 Co42 2.137 . S
O54 C45 1.247 . S
O55 Co42 2.244 . S
O55 C45 1.272 . S
O55 Co47 2.135 . S
Co56 O57 2.216 1_455 S
Co56 O58 2.091 . S
Co56 O60 2.004 . S
Co56 O66 2.021 . S
Co56 O68 2.137 1_455 S
Co56 O69 2.244 1_455 S
O57 Co56 2.216 1_655 S
O57 C64 1.247 1_655 S
O58 Co56 2.091 . S
O58 C64 1.261 . S
C59 O68 1.247 . S
C59 O69 1.272 . S
O60 Co56 2.004 . S
O60 C65 1.259 . S
Co61 O62 2.061 . S
Co61 O67 2.052 . S
Co61 O69 2.135 1_455 S
O62 Co61 2.061 . S
O62 C65 1.235 . S
C63 O66 1.238 . S
C63 O67 1.241 . S
C64 O57 1.247 1_455 S
C64 O58 1.261 . S
C65 O60 1.259 . S
C65 O62 1.235 . S
O66 Co56 2.021 . S
O66 C63 1.238 . S
O67 Co61 2.052 . S
O67 C63 1.241 . S
O68 Co56 2.137 1_655 S
O68 C59 1.247 . S
O69 Co56 2.244 1_655 S
O69 C59 1.272 . S
O69 Co61 2.135 1_655 S
Co70 O71 2.216 1_545 S
Co70 O72 2.091 . S
Co70 O74 2.004 . S
Co70 O80 2.021 . S
Co70 O82 2.137 1_545 S
Co70 O83 2.244 1_545 S
O71 Co70 2.216 1_565 S
O71 C78 1.247 1_565 S
O72 Co70 2.091 . S
O72 C78 1.261 . S
C73 O82 1.247 . S
C73 O83 1.272 . S
O74 Co70 2.004 . S
O74 C79 1.259 . S
Co75 O76 2.061 . S
Co75 O81 2.052 . S
Co75 O83 2.135 1_545 S
O76 Co75 2.061 . S
O76 C79 1.235 . S
C77 O80 1.238 . S
C77 O81 1.241 . S
C78 O71 1.247 1_545 S
C78 O72 1.261 . S
C79 O74 1.259 . S
C79 O76 1.235 . S
O80 Co70 2.021 . S
O80 C77 1.238 . S
O81 Co75 2.052 . S
O81 C77 1.241 . S
O82 Co70 2.137 1_565 S
O82 C73 1.247 . S
O83 Co70 2.244 1_565 S
O83 C73 1.272 . S
O83 Co75 2.135 1_565 S
Co84 O85 2.216 . S
Co84 O86 2.091 . S
Co84 O88 2.004 . S
Co84 O94 2.021 . S
Co84 O96 2.137 . S
Co84 O97 2.244 . S
O85 Co84 2.216 . S
O85 C92 1.247 . S
O86 Co84 2.091 . S
O86 C92 1.261 . S
C87 O96 1.247 . S
C87 O97 1.272 . S
O88 Co84 2.004 . S
O88 C93 1.259 . S
Co89 O90 2.061 . S
Co89 O95 2.052 . S
Co89 O97 2.135 . S
O90 Co89 2.061 . S
O90 C93 1.235 . S
C91 O94 1.238 . S
C91 O95 1.241 . S
C92 O85 1.247 . S
C92 O86 1.261 . S
C93 O88 1.259 . S
C93 O90 1.235 . S
O94 Co84 2.021 . S
O94 C91 1.238 . S
O95 Co89 2.052 . S
O95 C91 1.241 . S
O96 Co84 2.137 . S
O96 C87 1.247 . S
O97 Co84 2.244 . S
O97 C87 1.272 . S
O97 Co89 2.135 . S
Co98 O99 2.216 . S
Co98 O100 2.091 . S
Co98 O102 2.004 . S
Co98 O108 2.021 . S
Co98 O110 2.137 . S
Co98 O111 2.244 . S
O99 Co98 2.216 . S
O99 C106 1.247 . S
O100 Co98 2.091 . S
O100 C106 1.261 . S
C101 O110 1.247 . S
C101 O111 1.272 . S
O102 Co98 2.004 . S
O102 C107 1.259 . S
Co103 O104 2.061 . S
Co103 O109 2.052 . S
Co103 O111 2.135 . S
O104 Co103 2.061 . S
O104 C107 1.235 . S
C105 O108 1.238 . S
C105 O109 1.241 . S
C106 O99 1.247 . S
C106 O100 1.261 . S
C107 O102 1.259 . S
C107 O104 1.235 . S
O108 Co98 2.021 . S
O108 C105 1.238 . S
O109 Co103 2.052 . S
O109 C105 1.241 . S
O110 Co98 2.137 . S
O110 C101 1.247 . S
O111 Co98 2.244 . S
O111 C101 1.272 . S
O111 Co103 2.135 . S
Co112 O113 2.216 1_655 S
Co112 O114 2.091 . S
Co112 O116 2.004 . S
Co112 O122 2.021 . S
Co112 O124 2.137 1_655 S
Co112 O125 2.244 1_655 S
O113 Co112 2.216 1_455 S
O113 C120 1.247 1_455 S
O114 Co112 2.091 . S
O114 C120 1.261 . S
C115 O124 1.247 . S
C115 O125 1.272 . S
O116 Co112 2.004 . S
O116 C121 1.259 . S
Co117 O118 2.061 . S
Co117 O123 2.052 . S
Co117 O125 2.135 1_655 S
O118 Co117 2.061 . S
O118 C121 1.235 . S
C119 O122 1.238 . S
C119 O123 1.241 . S
C120 O113 1.247 1_655 S
C120 O114 1.261 . S
C121 O116 1.259 . S
C121 O118 1.235 . S
O122 Co112 2.021 . S
O122 C119 1.238 . S
O123 Co117 2.052 . S
O123 C119 1.241 . S
O124 Co112 2.137 1_455 S
O124 C115 1.247 . S
O125 Co112 2.244 1_455 S
O125 C115 1.272 . S
O125 Co117 2.135 1_455 S
Co126 O127 2.216 1_565 S
Co126 O128 2.091 . S
Co126 O130 2.004 . S
Co126 O136 2.021 . S
Co126 O138 2.137 1_565 S
Co126 O139 2.244 1_565 S
O127 Co126 2.216 1_545 S
O127 C134 1.247 1_545 S
O128 Co126 2.091 . S
O128 C134 1.261 . S
C129 O138 1.247 . S
C129 O139 1.272 . S
O130 Co126 2.004 . S
O130 C135 1.259 . S
Co131 O132 2.061 . S
Co131 O137 2.052 . S
Co131 O139 2.135 1_565 S
O132 Co131 2.061 . S
O132 C135 1.235 . S
C133 O136 1.238 . S
C133 O137 1.241 . S
C134 O127 1.247 1_565 S
C134 O128 1.261 . S
C135 O130 1.259 . S
C135 O132 1.235 . S
O136 Co126 2.021 . S
O136 C133 1.238 . S
O137 Co131 2.052 . S
O137 C133 1.241 . S
O138 Co126 2.137 1_545 S
O138 C129 1.247 . S
O139 Co126 2.244 1_545 S
O139 C129 1.272 . S
O139 Co131 2.135 1_545 S
Co140 O141 2.216 . S
Co140 O142 2.091 . S
Co140 O144 2.004 . S
Co140 O150 2.021 . S
Co140 O152 2.137 . S
Co140 O153 2.244 . S
O141 Co140 2.216 . S
O141 C148 1.247 . S
O142 Co140 2.091 . S
O142 C148 1.261 . S
C143 O152 1.247 . S
C143 O153 1.272 . S
O144 Co140 2.004 . S
O144 C149 1.259 . S
Co145 O146 2.061 . S
Co145 O151 2.052 . S
Co145 O153 2.135 . S
O146 Co145 2.061 . S
O146 C149 1.235 . S
C147 O150 1.238 . S
C147 O151 1.241 . S
C148 O141 1.247 . S
C148 O142 1.261 . S
C149 O144 1.259 . S
C149 O146 1.235 . S
O150 Co140 2.021 . S
O150 C147 1.238 . S
O151 Co145 2.052 . S
O151 C147 1.241 . S
O152 Co140 2.137 . S
O152 C143 1.247 . S
O153 Co140 2.244 . S
O153 C143 1.272 . S
O153 Co145 2.135 . S
Co154 O155 2.216 . S
Co154 O156 2.091 . S
Co154 O158 2.004 . S
Co154 O164 2.021 . S
Co154 O166 2.137 . S
Co154 O167 2.244 . S
O155 Co154 2.216 . S
O155 C162 1.247 . S
O156 Co154 2.091 . S
O156 C162 1.261 . S
C157 O166 1.247 . S
C157 O167 1.272 . S
O158 Co154 2.004 . S
O158 C163 1.259 . S
Co159 O160 2.061 . S
Co159 O165 2.052 . S
Co159 O167 2.135 . S
O160 Co159 2.061 . S
O160 C163 1.235 . S
C161 O164 1.238 . S
C161 O165 1.241 . S
C162 O155 1.247 . S
C162 O156 1.261 . S
C163 O158 1.259 . S
C163 O160 1.235 . S
O164 Co154 2.021 . S
O164 C161 1.238 . S
O165 Co159 2.052 . S
O165 C161 1.241 . S
O166 Co154 2.137 . S
O166 C157 1.247 . S
O167 Co154 2.244 . S
O167 C157 1.272 . S
O167 Co159 2.135 . S
Co168 O169 2.216 1_655 S
Co168 O170 2.091 . S
Co168 O172 2.004 . S
Co168 O178 2.021 . S
Co168 O180 2.137 1_655 S
Co168 O181 2.244 1_655 S
O169 Co168 2.216 1_455 S
O169 C176 1.247 1_455 S
O170 Co168 2.091 . S
O170 C176 1.261 . S
C171 O180 1.247 . S
C171 O181 1.272 . S
O172 Co168 2.004 . S
O172 C177 1.259 . S
Co173 O174 2.061 . S
Co173 O179 2.052 . S
Co173 O181 2.135 1_655 S
O174 Co173 2.061 . S
O174 C177 1.235 . S
C175 O178 1.238 . S
C175 O179 1.241 . S
C176 O169 1.247 1_655 S
C176 O170 1.261 . S
C177 O172 1.259 . S
C177 O174 1.235 . S
O178 Co168 2.021 . S
O178 C175 1.238 . S
O179 Co173 2.052 . S
O179 C175 1.241 . S
O180 Co168 2.137 1_455 S
O180 C171 1.247 . S
O181 Co168 2.244 1_455 S
O181 C171 1.272 . S
O181 Co173 2.135 1_455 S
Co182 O183 2.216 1_565 S
Co182 O184 2.091 . S
Co182 O186 2.004 . S
Co182 O192 2.021 . S
Co182 O194 2.137 1_565 S
Co182 O195 2.244 1_565 S
O183 Co182 2.216 1_545 S
O183 C190 1.247 1_545 S
O184 Co182 2.091 . S
O184 C190 1.261 . S
C185 O194 1.247 . S
C185 O195 1.272 . S
O186 Co182 2.004 . S
O186 C191 1.259 . S
Co187 O188 2.061 . S
Co187 O193 2.052 . S
Co187 O195 2.135 1_565 S
O188 Co187 2.061 . S
O188 C191 1.235 . S
C189 O192 1.238 . S
C189 O193 1.241 . S
C190 O183 1.247 1_565 S
C190 O184 1.261 . S
C191 O186 1.259 . S
C191 O188 1.235 . S
O192 Co182 2.021 . S
O192 C189 1.238 . S
O193 Co187 2.052 . S
O193 C189 1.241 . S
O194 Co182 2.137 1_545 S
O194 C185 1.247 . S
O195 Co182 2.244 1_545 S
O195 C185 1.272 . S
O195 Co187 2.135 1_545 S
Co196 O197 2.216 . S
Co196 O198 2.091 . S
Co196 O200 2.004 . S
Co196 O206 2.021 . S
Co196 O208 2.137 . S
Co196 O209 2.244 . S
O197 Co196 2.216 . S
O197 C204 1.247 . S
O198 Co196 2.091 . S
O198 C204 1.261 . S
C199 O208 1.247 . S
C199 O209 1.272 . S
O200 Co196 2.004 . S
O200 C205 1.259 . S
Co201 O202 2.061 . S
Co201 O207 2.052 . S
Co201 O209 2.135 . S
O202 Co201 2.061 . S
O202 C205 1.235 . S
C203 O206 1.238 . S
C203 O207 1.241 . S
C204 O197 1.247 . S
C204 O198 1.261 . S
C205 O200 1.259 . S
C205 O202 1.235 . S
O206 Co196 2.021 . S
O206 C203 1.238 . S
O207 Co201 2.052 . S
O207 C203 1.241 . S
O208 Co196 2.137 . S
O208 C199 1.247 . S
O209 Co196 2.244 . S
O209 C199 1.272 . S
O209 Co201 2.135 . S
Co210 O211 2.216 . S
Co210 O212 2.091 . S
Co210 O214 2.004 . S
Co210 O220 2.021 . S
Co210 O222 2.137 . S
Co210 O223 2.244 . S
O211 Co210 2.216 . S
O211 C218 1.247 . S
O212 Co210 2.091 . S
O212 C218 1.261 . S
C213 O222 1.247 . S
C213 O223 1.272 . S
O214 Co210 2.004 . S
O214 C219 1.259 . S
Co215 O216 2.061 . S
Co215 O221 2.052 . S
Co215 O223 2.135 . S
O216 Co215 2.061 . S
O216 C219 1.235 . S
C217 O220 1.238 . S
C217 O221 1.241 . S
C218 O211 1.247 . S
C218 O212 1.261 . S
C219 O214 1.259 . S
C219 O216 1.235 . S
O220 Co210 2.021 . S
O220 C217 1.238 . S
O221 Co215 2.052 . S
O221 C217 1.241 . S
O222 Co210 2.137 . S
O222 C213 1.247 . S
O223 Co210 2.244 . S
O223 C213 1.272 . S
O223 Co215 2.135 . S
C224 C225 1.391 . S
C224 C226 1.394 . S
C224 H240 0.931 . S
C225 C224 1.391 . S
C225 C229 1.376 1_455 S
C226 C224 1.394 . S
C226 C227 1.369 . S
C226 C230 1.531 1_554 S
C227 C226 1.369 . S
C227 C228 1.410 1_455 S
C227 C235 1.503 1_554 S
C228 C227 1.410 1_655 S
C228 C229 1.392 . S
C228 C231 1.511 . S
C229 C225 1.376 1_655 S
C229 C228 1.392 . S
C229 H241 0.929 . S
C230 C226 1.531 1_556 S
C230 H242 0.960 . S
C230 H243 0.962 1_556 S
C230 H244 0.960 . S
C231 C228 1.511 . S
C231 H245 0.961 . S
C231 H246 0.961 . S
C231 H247 0.961 1_554 S
C232 C233 1.370 . S
C232 C234 1.363 1_556 S
C232 H248 0.931 1_556 S
C233 C232 1.370 . S
C233 C237 1.408 1_455 S
C234 C232 1.363 1_554 S
C234 C235 1.370 1_554 S
C234 C238 1.524 . S
C235 C227 1.503 1_556 S
C235 C234 1.370 1_556 S
C235 C236 1.403 1_455 S
C236 C235 1.403 1_655 S
C236 C237 1.404 . S
C236 C239 1.539 . S
C237 C233 1.408 1_655 S
C237 C236 1.404 . S
C237 H249 0.930 . S
C238 C234 1.524 . S
C238 H250 0.956 . S
C238 H251 0.961 . S
C238 H252 0.961 . S
C239 C236 1.539 . S
C239 H253 0.958 1_655 S
C239 H254 0.961 . S
C239 H255 0.960 . S
H240 C224 0.931 . S
H241 C229 0.929 . S
H242 C230 0.960 . S
H243 C230 0.962 1_554 S
H244 C230 0.960 . S
H245 C231 0.961 . S
H246 C231 0.961 . S
H247 C231 0.961 1_556 S
H248 C232 0.931 1_554 S
H249 C237 0.930 . S
H250 C238 0.956 . S
H251 C238 0.961 . S
H252 C238 0.961 . S
H253 C239 0.958 1_455 S
H254 C239 0.961 . S
H255 C239 0.960 . S
C256 C257 1.391 1_565 S
C256 C258 1.394 . S
C256 H272 0.931 . S
C257 C256 1.391 1_545 S
C257 C261 1.376 . S
C258 C256 1.394 . S
C258 C259 1.369 1_565 S
C258 C262 1.531 . S
C259 C258 1.369 1_545 S
C259 C260 1.410 . S
C259 C267 1.503 . S
C260 C259 1.410 . S
C260 C261 1.392 . S
C260 C263 1.511 . S
C261 C257 1.376 . S
C261 C260 1.392 . S
C261 H273 0.929 . S
C262 C258 1.531 . S
C262 H274 0.960 . S
C262 H275 0.962 . S
C262 H276 0.960 . S
C263 C260 1.511 . S
C263 H277 0.961 . S
C263 H278 0.961 . S
C263 H279 0.961 . S
C264 C265 1.370 . S
C264 C266 1.363 . S
C264 H280 0.931 . S
C265 C264 1.370 . S
C265 C269 1.406 1_545 S
C266 C264 1.363 . S
C266 C267 1.370 . S
C266 C270 1.524 . S
C267 C259 1.503 . S
C267 C266 1.370 . S
C267 C268 1.396 1_545 S
C268 C267 1.396 1_565 S
C268 C269 1.403 . S
C268 C271 1.545 . S
C269 C265 1.406 1_565 S
C269 C268 1.403 . S
C269 H281 0.932 . S
C270 C266 1.524 . S
C270 H282 0.956 1_545 S
C270 H283 0.961 . S
C270 H284 0.961 . S
C271 C268 1.545 . S
C271 H285 0.958 . S
C271 H286 0.961 1_565 S
C271 H287 0.960 1_565 S
H272 C256 0.931 . S
H273 C261 0.929 . S
H274 C262 0.960 . S
H275 C262 0.962 . S
H276 C262 0.960 . S
H277 C263 0.961 . S
H278 C263 0.961 . S
H279 C263 0.961 . S
H280 C264 0.931 . S
H281 C269 0.932 . S
H282 C270 0.956 1_565 S
H283 C270 0.961 . S
H284 C270 0.961 . S
H285 C271 0.958 . S
H286 C271 0.961 1_545 S
H287 C271 0.960 1_545 S
C288 C289 1.391 . S
C288 C290 1.394 . S
C288 H304 0.931 . S
C289 C288 1.391 . S
C289 C293 1.376 . S
C290 C288 1.394 . S
C290 C291 1.369 . S
C290 C294 1.531 . S
C291 C290 1.369 . S
C291 C292 1.410 . S
C291 C299 1.503 1_554 S
C292 C291 1.410 . S
C292 C293 1.392 . S
C292 C295 1.511 1_554 S
C293 C289 1.376 . S
C293 C292 1.392 . S
C293 H305 0.929 . S
C294 C290 1.531 . S
C294 H306 0.960 . S
C294 H307 0.962 . S
C294 H308 0.960 . S
C295 C292 1.511 1_556 S
C295 H309 0.961 . S
C295 H310 0.961 . S
C295 H311 0.961 . S
C296 C297 1.370 . S
C296 C298 1.363 1_556 S
C296 H312 0.931 1_556 S
C297 C296 1.370 . S
C297 C301 1.408 . S
C298 C296 1.363 1_554 S
C298 C299 1.370 1_554 S
C298 C302 1.524 . S
C299 C291 1.503 1_556 S
C299 C298 1.370 1_556 S
C299 C300 1.403 . S
C300 C299 1.403 . S
C300 C301 1.404 . S
C300 C303 1.539 . S
C301 C297 1.408 . S
C301 C300 1.404 . S
C301 H313 0.930 . S
C302 C298 1.524 . S
C302 H314 0.956 . S
C302 H315 0.961 . S
C302 H316 0.961 . S
C303 C300 1.539 . S
C303 H317 0.958 . S
C303 H318 0.961 . S
C303 H319 0.960 . S
H304 C288 0.931 . S
H305 C293 0.929 . S
H306 C294 0.960 . S
H307 C294 0.962 . S
H308 C294 0.960 . S
H309 C295 0.961 . S
H310 C295 0.961 . S
H311 C295 0.961 . S
H312 C296 0.931 1_554 S
H313 C301 0.930 . S
H314 C302 0.956 . S
H315 C302 0.961 . S
H316 C302 0.961 . S
H317 C303 0.958 . S
H318 C303 0.961 . S
H319 C303 0.960 . S
C320 C321 1.391 . S
C320 C322 1.394 . S
C320 H336 0.931 . S
C321 C320 1.391 . S
C321 C325 1.376 . S
C322 C320 1.394 . S
C322 C323 1.369 . S
C322 C326 1.531 . S
C323 C322 1.369 . S
C323 C324 1.410 . S
C323 C331 1.503 . S
C324 C323 1.410 . S
C324 C325 1.392 . S
C324 C327 1.511 . S
C325 C321 1.376 . S
C325 C324 1.392 . S
C325 H337 0.929 . S
C326 C322 1.531 . S
C326 H338 0.960 . S
C326 H339 0.962 . S
C326 H340 0.960 . S
C327 C324 1.511 . S
C327 H341 0.961 . S
C327 H342 0.961 . S
C327 H343 0.961 . S
C328 C329 1.370 . S
C328 C330 1.363 . S
C328 H344 0.931 . S
C329 C328 1.370 . S
C329 C333 1.408 . S
C330 C328 1.363 . S
C330 C331 1.370 . S
C330 C334 1.524 . S
C331 C323 1.503 . S
C331 C330 1.370 . S
C331 C332 1.403 . S
C332 C331 1.403 . S
C332 C333 1.404 . S
C332 C335 1.539 . S
C333 C329 1.408 . S
C333 C332 1.404 . S
C333 H345 0.930 . S
C334 C330 1.524 . S
C334 H346 0.956 . S
C334 H347 0.961 . S
C334 H348 0.961 . S
C335 C332 1.539 . S
C335 H349 0.958 . S
C335 H350 0.961 . S
C335 H351 0.960 . S
H336 C320 0.931 . S
H337 C325 0.929 . S
H338 C326 0.960 . S
H339 C326 0.962 . S
H340 C326 0.960 . S
H341 C327 0.961 . S
H342 C327 0.961 . S
H343 C327 0.961 . S
H344 C328 0.931 . S
H345 C333 0.930 . S
H346 C334 0.956 . S
H347 C334 0.961 . S
H348 C334 0.961 . S
H349 C335 0.958 . S
H350 C335 0.961 . S
H351 C335 0.960 . S
C352 C353 1.391 1_455 S
C352 C354 1.394 . S
C352 H368 0.931 . S
C353 C352 1.391 1_655 S
C353 C357 1.376 . S
C354 C352 1.394 . S
C354 C355 1.369 1_455 S
C354 C358 1.531 . S
C355 C354 1.369 1_655 S
C355 C356 1.410 . S
C355 C363 1.503 1_556 S
C356 C355 1.410 . S
C356 C357 1.392 . S
C356 C359 1.511 1_556 S
C357 C353 1.376 . S
C357 C356 1.392 . S
C357 H369 0.929 . S
C358 C354 1.531 . S
C358 H370 0.960 1_556 S
C358 H371 0.962 . S
C358 H372 0.960 . S
C359 C356 1.511 1_554 S
C359 H373 0.961 1_554 S
C359 H374 0.961 . S
C359 H375 0.961 . S
C360 C361 1.370 . S
C360 C362 1.363 1_554 S
C360 H376 0.931 1_554 S
C361 C360 1.370 . S
C361 C365 1.407 1_655 S
C362 C360 1.363 1_556 S
C362 C363 1.370 1_556 S
C362 C366 1.524 . S
C363 C355 1.503 1_554 S
C363 C362 1.370 1_554 S
C363 C364 1.398 1_655 S
C364 C363 1.398 1_455 S
C364 C365 1.403 . S
C364 C367 1.543 . S
C365 C361 1.407 1_455 S
C365 C364 1.403 . S
C365 H377 0.931 . S
C366 C362 1.524 . S
C366 H378 0.956 1_655 S
C366 H379 0.961 . S
C366 H380 0.961 . S
C367 C364 1.543 . S
C367 H381 0.958 . S
C367 H382 0.961 1_455 S
C367 H383 0.960 1_455 S
H368 C352 0.931 . S
H369 C357 0.929 . S
H370 C358 0.960 1_554 S
H371 C358 0.962 . S
H372 C358 0.960 . S
H373 C359 0.961 1_556 S
H374 C359 0.961 . S
H375 C359 0.961 . S
H376 C360 0.931 1_556 S
H377 C365 0.931 . S
H378 C366 0.956 1_455 S
H379 C366 0.961 . S
H380 C366 0.961 . S
H381 C367 0.958 . S
H382 C367 0.961 1_655 S
H383 C367 0.960 1_655 S
C384 C385 1.391 . S
C384 C386 1.394 . S
C384 H400 0.931 . S
C385 C384 1.391 . S
C385 C389 1.376 1_565 S
C386 C384 1.394 . S
C386 C387 1.369 . S
C386 C390 1.531 . S
C387 C386 1.369 . S
C387 C388 1.410 1_565 S
C387 C395 1.503 . S
C388 C387 1.410 1_545 S
C388 C389 1.392 . S
C388 C391 1.511 . S
C389 C385 1.376 1_545 S
C389 C388 1.392 . S
C389 H401 0.929 . S
C390 C386 1.531 . S
C390 H402 0.960 . S
C390 H403 0.962 . S
C390 H404 0.960 . S
C391 C388 1.511 . S
C391 H405 0.961 . S
C391 H406 0.961 . S
C391 H407 0.961 . S
C392 C393 1.370 1_545 S
C392 C394 1.363 . S
C392 H408 0.931 . S
C393 C392 1.370 1_565 S
C393 C397 1.408 . S
C394 C392 1.363 . S
C394 C395 1.370 1_545 S
C394 C398 1.524 . S
C395 C387 1.503 . S
C395 C394 1.370 1_565 S
C395 C396 1.403 . S
C396 C395 1.403 . S
C396 C397 1.404 . S
C396 C399 1.539 . S
C397 C393 1.408 . S
C397 C396 1.404 . S
C397 H409 0.930 . S
C398 C394 1.524 . S
C398 H410 0.956 . S
C398 H411 0.961 . S
C398 H412 0.961 . S
C399 C396 1.539 . S
C399 H413 0.958 . S
C399 H414 0.961 . S
C399 H415 0.960 . S
H400 C384 0.931 . S
H401 C389 0.929 . S
H402 C390 0.960 . S
H403 C390 0.962 . S
H404 C390 0.960 . S
H405 C391 0.961 . S
H406 C391 0.961 . S
H407 C391 0.961 . S
H408 C392 0.931 . S
H409 C397 0.930 . S
H410 C398 0.956 . S
H411 C398 0.961 . S
H412 C398 0.961 . S
H413 C399 0.958 . S
H414 C399 0.961 . S
H415 C399 0.960 . S
C416 C417 1.391 . S
C416 C418 1.394 1_556 S
C416 H432 0.931 . S
C417 C416 1.391 . S
C417 C421 1.376 . S
C418 C416 1.394 1_554 S
C418 C419 1.369 1_554 S
C418 C422 1.531 . S
C419 C418 1.369 1_556 S
C419 C420 1.410 . S
C419 C427 1.503 1_556 S
C420 C419 1.410 . S
C420 C421 1.392 . S
C420 C423 1.511 . S
C421 C417 1.376 . S
C421 C420 1.392 . S
C421 H433 0.929 . S
C422 C418 1.531 . S
C422 H434 0.960 . S
C422 H435 0.962 . S
C422 H436 0.960 . S
C423 C420 1.511 . S
C423 H437 0.961 . S
C423 H438 0.961 . S
C423 H439 0.961 . S
C424 C425 1.370 . S
C424 C426 1.368 . S
C424 H440 0.931 . S
C425 C424 1.370 . S
C425 C429 1.408 . S
C426 C424 1.368 . S
C426 C427 1.375 . S
C426 C430 1.515 1_554 S
C427 C419 1.503 1_554 S
C427 C426 1.375 . S
C427 C428 1.403 . S
C428 C427 1.403 . S
C428 C429 1.404 . S
C428 C431 1.539 . S
C429 C425 1.408 . S
C429 C428 1.404 . S
C429 H441 0.930 . S
C430 C426 1.515 1_556 S
C430 H442 0.956 . S
C430 H443 0.961 . S
C430 H444 0.961 . S
C431 C428 1.539 . S
C431 H445 0.958 . S
C431 H446 0.961 . S
C431 H447 0.960 . S
H432 C416 0.931 . S
H433 C421 0.929 . S
H434 C422 0.960 . S
H435 C422 0.962 . S
H436 C422 0.960 . S
H437 C423 0.961 . S
H438 C423 0.961 . S
H439 C423 0.961 . S
H440 C424 0.931 . S
H441 C429 0.930 . S
H442 C430 0.956 . S
H443 C430 0.961 . S
H444 C430 0.961 . S
H445 C431 0.958 . S
H446 C431 0.961 . S
H447 C431 0.960 . S
C448 C449 1.391 . S
C448 C450 1.394 . S
C448 H464 0.931 . S
C449 C448 1.391 . S
C449 C453 1.376 . S
C450 C448 1.394 . S
C450 C451 1.369 . S
C450 C454 1.531 . S
C451 C450 1.369 . S
C451 C452 1.410 . S
C451 C459 1.503 . S
C452 C451 1.410 . S
C452 C453 1.392 . S
C452 C455 1.511 . S
C453 C449 1.376 . S
C453 C452 1.392 . S
C453 H465 0.929 . S
C454 C450 1.531 . S
C454 H466 0.960 . S
C454 H467 0.962 . S
C454 H468 0.960 . S
C455 C452 1.511 . S
C455 H469 0.961 . S
C455 H470 0.961 . S
C455 H471 0.961 . S
C456 C457 1.370 . S
C456 C458 1.363 . S
C456 H472 0.931 . S
C457 C456 1.370 . S
C457 C461 1.408 . S
C458 C456 1.363 . S
C458 C459 1.370 . S
C458 C462 1.524 . S
C459 C451 1.503 . S
C459 C458 1.370 . S
C459 C460 1.403 . S
C460 C459 1.403 . S
C460 C461 1.404 . S
C460 C463 1.539 . S
C461 C457 1.408 . S
C461 C460 1.404 . S
C461 H473 0.930 . S
C462 C458 1.524 . S
C462 H474 0.956 . S
C462 H475 0.961 . S
C462 H476 0.961 . S
C463 C460 1.539 . S
C463 H477 0.958 . S
C463 H478 0.961 . S
C463 H479 0.960 . S
H464 C448 0.931 . S
H465 C453 0.929 . S
H466 C454 0.960 . S
H467 C454 0.962 . S
H468 C454 0.960 . S
H469 C455 0.961 . S
H470 C455 0.961 . S
H471 C455 0.961 . S
H472 C456 0.931 . S
H473 C461 0.930 . S
H474 C462 0.956 . S
H475 C462 0.961 . S
H476 C462 0.961 . S
H477 C463 0.958 . S
H478 C463 0.961 . S
H479 C463 0.960 . S
C480 C481 1.391 . S
C480 C482 1.394 . S
C480 H496 0.931 . S
C481 C480 1.391 . S
C481 C485 1.376 1_556 S
C482 C480 1.394 . S
C482 C483 1.369 . S
C482 C486 1.531 . S
C483 C482 1.369 . S
C483 C484 1.410 . S
C483 C491 1.503 . S
C484 C483 1.410 . S
C484 C485 1.392 1_556 S
C484 C487 1.511 . S
C485 C481 1.376 1_554 S
C485 C484 1.392 1_554 S
C485 H497 0.929 . S
C486 C482 1.531 . S
C486 H498 0.960 . S
C486 H499 0.962 . S
C486 H500 0.960 . S
C487 C484 1.511 . S
C487 H501 0.961 1_556 S
C487 H502 0.961 . S
C487 H503 0.961 . S
C488 C489 1.370 . S
C488 C490 1.363 . S
C488 H504 0.931 . S
C489 C488 1.370 . S
C489 C493 1.408 . S
C490 C488 1.363 . S
C490 C491 1.370 . S
C490 C494 1.524 . S
C491 C483 1.503 . S
C491 C490 1.370 . S
C491 C492 1.403 . S
C492 C491 1.403 . S
C492 C493 1.404 . S
C492 C495 1.539 . S
C493 C489 1.408 . S
C493 C492 1.404 . S
C493 H505 0.930 . S
C494 C490 1.524 . S
C494 H506 0.956 . S
C494 H507 0.961 . S
C494 H508 0.961 . S
C495 C492 1.539 . S
C495 H509 0.958 . S
C495 H510 0.961 . S
C495 H511 0.960 . S
H496 C480 0.931 . S
H497 C485 0.929 . S
H498 C486 0.960 . S
H499 C486 0.962 . S
H500 C486 0.960 . S
H501 C487 0.961 1_554 S
H502 C487 0.961 . S
H503 C487 0.961 . S
H504 C488 0.931 . S
H505 C493 0.930 . S
H506 C494 0.956 . S
H507 C494 0.961 . S
H508 C494 0.961 . S
H509 C495 0.958 . S
H510 C495 0.961 . S
H511 C495 0.960 . S
C512 C513 1.391 . S
C512 C514 1.394 . S
C512 H528 0.931 . S
C513 C512 1.391 . S
C513 C517 1.376 . S
C514 C512 1.394 . S
C514 C515 1.369 . S
C514 C518 1.531 . S
C515 C514 1.369 . S
C515 C516 1.410 . S
C515 C523 1.503 . S
C516 C515 1.410 . S
C516 C517 1.392 . S
C516 C519 1.511 . S
C517 C513 1.376 . S
C517 C516 1.392 . S
C517 H529 0.929 . S
C518 C514 1.531 . S
C518 H530 0.960 . S
C518 H531 0.962 . S
C518 H532 0.960 . S
C519 C516 1.511 . S
C519 H533 0.961 . S
C519 H534 0.961 . S
C519 H535 0.961 . S
C520 C521 1.370 . S
C520 C522 1.363 . S
C520 H536 0.931 . S
C521 C520 1.370 . S
C521 C525 1.408 . S
C522 C520 1.363 . S
C522 C523 1.370 . S
C522 C526 1.524 . S
C523 C515 1.503 . S
C523 C522 1.370 . S
C523 C524 1.403 . S
C524 C523 1.403 . S
C524 C525 1.404 . S
C524 C527 1.539 . S
C525 C521 1.408 . S
C525 C524 1.404 . S
C525 H537 0.930 . S
C526 C522 1.524 . S
C526 H538 0.956 . S
C526 H539 0.961 . S
C526 H540 0.961 . S
C527 C524 1.539 . S
C527 H541 0.958 . S
C527 H542 0.961 . S
C527 H543 0.960 . S
H528 C512 0.931 . S
H529 C517 0.929 . S
H530 C518 0.960 . S
H531 C518 0.962 . S
H532 C518 0.960 . S
H533 C519 0.961 . S
H534 C519 0.961 . S
H535 C519 0.961 . S
H536 C520 0.931 . S
H537 C525 0.930 . S
H538 C526 0.956 . S
H539 C526 0.961 . S
H540 C526 0.961 . S
H541 C527 0.958 . S
H542 C527 0.961 . S
H543 C527 0.960 . S
C544 C545 1.391 1_554 S
C544 C546 1.394 1_554 S
C544 H560 0.931 . S
C545 C544 1.391 1_556 S
C545 C549 1.378 . S
C546 C544 1.394 1_556 S
C546 C547 1.369 . S
C546 C550 1.531 . S
C547 C546 1.369 . S
C547 C548 1.410 . S
C547 C555 1.503 . S
C548 C547 1.410 . S
C548 C549 1.392 . S
C548 C551 1.511 . S
C549 C545 1.378 . S
C549 C548 1.392 . S
C549 H561 0.929 . S
C550 C546 1.531 . S
C550 H562 0.960 . S
C550 H563 0.962 . S
C550 H564 0.960 1_556 S
C551 C548 1.511 . S
C551 H565 0.961 . S
C551 H566 0.961 . S
C551 H567 0.961 . S
C552 C553 1.370 . S
C552 C554 1.363 . S
C552 H568 0.931 . S
C553 C552 1.370 . S
C553 C557 1.408 . S
C554 C552 1.363 . S
C554 C555 1.370 . S
C554 C558 1.524 . S
C555 C547 1.503 . S
C555 C554 1.370 . S
C555 C556 1.403 . S
C556 C555 1.403 . S
C556 C557 1.404 . S
C556 C559 1.539 . S
C557 C553 1.408 . S
C557 C556 1.404 . S
C557 H569 0.930 . S
C558 C554 1.524 . S
C558 H570 0.956 . S
C558 H571 0.961 . S
C558 H572 0.961 . S
C559 C556 1.539 . S
C559 H573 0.958 . S
C559 H574 0.961 . S
C559 H575 0.960 . S
H560 C544 0.931 . S
H561 C549 0.929 . S
H562 C550 0.960 . S
H563 C550 0.962 . S
H564 C550 0.960 1_554 S
H565 C551 0.961 . S
H566 C551 0.961 . S
H567 C551 0.961 . S
H568 C552 0.931 . S
H569 C557 0.930 . S
H570 C558 0.956 . S
H571 C558 0.961 . S
H572 C558 0.961 . S
H573 C559 0.958 . S
H574 C559 0.961 . S
H575 C559 0.960 . S
C576 C577 1.391 . S
C576 C578 1.394 . S
C576 H592 0.931 . S
C577 C576 1.391 . S
C577 C581 1.376 . S
C578 C576 1.394 . S
C578 C579 1.369 . S
C578 C582 1.531 . S
C579 C578 1.369 . S
C579 C580 1.410 . S
C579 C587 1.503 . S
C580 C579 1.410 . S
C580 C581 1.392 . S
C580 C583 1.511 . S
C581 C577 1.376 . S
C581 C580 1.392 . S
C581 H593 0.929 . S
C582 C578 1.531 . S
C582 H594 0.960 . S
C582 H595 0.962 . S
C582 H596 0.960 . S
C583 C580 1.511 . S
C583 H597 0.961 . S
C583 H598 0.961 . S
C583 H599 0.961 . S
C584 C585 1.370 . S
C584 C586 1.363 . S
C584 H600 0.931 . S
C585 C584 1.370 . S
C585 C589 1.408 . S
C586 C584 1.363 . S
C586 C587 1.370 . S
C586 C590 1.524 . S
C587 C579 1.503 . S
C587 C586 1.370 . S
C587 C588 1.403 . S
C588 C587 1.403 . S
C588 C589 1.404 . S
C588 C591 1.539 . S
C589 C585 1.408 . S
C589 C588 1.404 . S
C589 H601 0.930 . S
C590 C586 1.524 . S
C590 H602 0.956 . S
C590 H603 0.961 . S
C590 H604 0.961 . S
C591 C588 1.539 . S
C591 H605 0.958 . S
C591 H606 0.961 . S
C591 H607 0.960 . S
H592 C576 0.931 . S
H593 C581 0.929 . S
H594 C582 0.960 . S
H595 C582 0.962 . S
H596 C582 0.960 . S
H597 C583 0.961 . S
H598 C583 0.961 . S
H599 C583 0.961 . S
H600 C584 0.931 . S
H601 C589 0.930 . S
H602 C590 0.956 . S
H603 C590 0.961 . S
H604 C590 0.961 . S
H605 C591 0.958 . S
H606 C591 0.961 . S
H607 C591 0.960 . S
C608 C609 1.391 . S
C608 C610 1.394 . S
C608 H624 0.931 . S
C609 C608 1.391 . S
C609 C613 1.376 . S
C610 C608 1.394 . S
C610 C611 1.369 . S
C610 C614 1.531 . S
C611 C610 1.369 . S
C611 C612 1.410 . S
C611 C619 1.503 . S
C612 C611 1.410 . S
C612 C613 1.392 . S
C612 C615 1.511 . S
C613 C609 1.376 . S
C613 C612 1.392 . S
C613 H625 0.929 . S
C614 C610 1.531 . S
C614 H626 0.960 . S
C614 H627 0.962 . S
C614 H628 0.960 . S
C615 C612 1.511 . S
C615 H629 0.961 . S
C615 H630 0.961 . S
C615 H631 0.961 . S
C616 C617 1.371 . S
C616 C618 1.371 . S
C616 H632 0.922 1_554 S
C617 C616 1.371 . S
C617 C621 1.408 . S
C618 C616 1.371 . S
C618 C619 1.370 . S
C618 C622 1.524 . S
C619 C611 1.503 . S
C619 C618 1.370 . S
C619 C620 1.403 . S
C620 C619 1.403 . S
C620 C621 1.404 . S
C620 C623 1.539 . S
C621 C617 1.408 . S
C621 C620 1.404 . S
C621 H633 0.930 . S
C622 C618 1.524 . S
C622 H634 0.956 . S
C622 H635 0.961 . S
C622 H636 0.960 . S
C623 C620 1.539 . S
C623 H637 0.958 . S
C623 H638 0.961 . S
C623 H639 0.960 . S
H624 C608 0.931 . S
H625 C613 0.929 . S
H626 C614 0.960 . S
H627 C614 0.962 . S
H628 C614 0.960 . S
H629 C615 0.961 . S
H630 C615 0.961 . S
H631 C615 0.961 . S
H632 C616 0.922 1_556 S
H633 C621 0.930 . S
H634 C622 0.956 . S
H635 C622 0.961 . S
H636 C622 0.960 . S
H637 C623 0.958 . S
H638 C623 0.961 . S
H639 C623 0.960 . S
C640 C641 1.391 . S
C640 C642 1.394 . S
C640 H656 0.931 . S
C641 C640 1.391 . S
C641 C645 1.376 . S
C642 C640 1.394 . S
C642 C643 1.369 . S
C642 C646 1.531 . S
C643 C642 1.369 . S
C643 C644 1.410 . S
C643 C651 1.503 . S
C644 C643 1.410 . S
C644 C645 1.392 . S
C644 C647 1.511 . S
C645 C641 1.376 . S
C645 C644 1.392 . S
C645 H657 0.929 . S
C646 C642 1.531 . S
C646 H658 0.960 . S
C646 H659 0.962 . S
C646 H660 0.960 . S
C647 C644 1.511 . S
C647 H661 0.961 . S
C647 H662 0.961 . S
C647 H663 0.961 . S
C648 C649 1.370 . S
C648 C650 1.363 . S
C648 H664 0.931 . S
C649 C648 1.370 . S
C649 C653 1.408 . S
C650 C648 1.363 . S
C650 C651 1.370 . S
C650 C654 1.524 . S
C651 C643 1.503 . S
C651 C650 1.370 . S
C651 C652 1.403 . S
C652 C651 1.403 . S
C652 C653 1.404 . S
C652 C655 1.539 . S
C653 C649 1.408 . S
C653 C652 1.404 . S
C653 H665 0.930 . S
C654 C650 1.524 . S
C654 H666 0.956 . S
C654 H667 0.961 . S
C654 H668 0.961 . S
C655 C652 1.539 . S
C655 H669 0.958 . S
C655 H670 0.961 . S
C655 H671 0.960 . S
H656 C640 0.931 . S
H657 C645 0.929 . S
H658 C646 0.960 . S
H659 C646 0.962 . S
H660 C646 0.960 . S
H661 C647 0.961 . S
H662 C647 0.961 . S
H663 C647 0.961 . S
H664 C648 0.931 . S
H665 C653 0.930 . S
H666 C654 0.956 . S
H667 C654 0.961 . S
H668 C654 0.961 . S
H669 C655 0.958 . S
H670 C655 0.961 . S
H671 C655 0.960 . S
C672 C673 1.391 . S
C672 C674 1.394 . S
C672 H688 0.931 . S
C673 C672 1.391 . S
C673 C677 1.376 . S
C674 C672 1.394 . S
C674 C675 1.369 . S
C674 C678 1.531 . S
C675 C674 1.369 . S
C675 C676 1.410 . S
C675 C683 1.503 . S
C676 C675 1.410 . S
C676 C677 1.392 . S
C676 C679 1.511 . S
C677 C673 1.376 . S
C677 C676 1.392 . S
C677 H689 0.929 . S
C678 C674 1.531 . S
C678 H690 0.960 . S
C678 H691 0.962 . S
C678 H692 0.960 . S
C679 C676 1.511 . S
C679 H693 0.961 . S
C679 H694 0.961 . S
C679 H695 0.961 . S
C680 C681 1.370 1_556 S
C680 C682 1.363 1_556 S
C680 H696 0.931 . S
C681 C680 1.370 1_554 S
C681 C685 1.408 . S
C682 C680 1.363 1_554 S
C682 C683 1.370 . S
C682 C686 1.524 . S
C683 C675 1.503 . S
C683 C682 1.370 . S
C683 C684 1.403 . S
C684 C683 1.403 . S
C684 C685 1.404 . S
C684 C687 1.539 . S
C685 C681 1.408 . S
C685 C684 1.404 . S
C685 H697 0.930 . S
C686 C682 1.524 . S
C686 H698 0.956 . S
C686 H699 0.961 . S
C686 H700 0.961 1_554 S
C687 C684 1.539 . S
C687 H701 0.958 . S
C687 H702 0.961 . S
C687 H703 0.960 . S
H688 C672 0.931 . S
H689 C677 0.929 . S
H690 C678 0.960 . S
H691 C678 0.962 . S
H692 C678 0.960 . S
H693 C679 0.961 . S
H694 C679 0.961 . S
H695 C679 0.961 . S
H696 C680 0.931 . S
H697 C685 0.930 . S
H698 C686 0.956 . S
H699 C686 0.961 . S
H700 C686 0.961 1_556 S
H701 C687 0.958 . S
H702 C687 0.961 . S
H703 C687 0.960 . S
C704 C705 1.391 . S
C704 C706 1.394 . S
C704 H720 0.931 . S
C705 C704 1.391 . S
C705 C709 1.376 . S
C706 C704 1.394 . S
C706 C707 1.369 . S
C706 C710 1.531 . S
C707 C706 1.369 . S
C707 C708 1.410 . S
C707 C715 1.503 . S
C708 C707 1.410 . S
C708 C709 1.392 . S
C708 C711 1.511 . S
C709 C705 1.376 . S
C709 C708 1.392 . S
C709 H721 0.929 . S
C710 C706 1.531 . S
C710 H722 0.960 . S
C710 H723 0.962 . S
C710 H724 0.960 . S
C711 C708 1.511 . S
C711 H725 0.961 . S
C711 H726 0.961 . S
C711 H727 0.961 . S
C712 C713 1.370 . S
C712 C714 1.363 . S
C712 H728 0.931 . S
C713 C712 1.370 . S
C713 C717 1.408 . S
C714 C712 1.363 . S
C714 C715 1.370 . S
C714 C718 1.524 . S
C715 C707 1.503 . S
C715 C714 1.370 . S
C715 C716 1.403 . S
C716 C715 1.403 . S
C716 C717 1.404 . S
C716 C719 1.539 . S
C717 C713 1.408 . S
C717 C716 1.404 . S
C717 H729 0.930 . S
C718 C714 1.524 . S
C718 H730 0.956 . S
C718 H731 0.961 . S
C718 H732 0.961 . S
C719 C716 1.539 . S
C719 H733 0.958 . S
C719 H734 0.961 . S
C719 H735 0.960 . S
H720 C704 0.931 . S
H721 C709 0.929 . S
H722 C710 0.960 . S
H723 C710 0.962 . S
H724 C710 0.960 . S
H725 C711 0.961 . S
H726 C711 0.961 . S
H727 C711 0.961 . S
H728 C712 0.931 . S
H729 C717 0.930 . S
H730 C718 0.956 . S
H731 C718 0.961 . S
H732 C718 0.961 . S
H733 C719 0.958 . S
H734 C719 0.961 . S
H735 C719 0.960 . S
C736 C737 1.391 1_556 S
C736 C738 1.394 1_556 S
C736 H752 0.931 . S
C737 C736 1.391 1_554 S
C737 C741 1.376 . S
C738 C736 1.394 1_554 S
C738 C739 1.369 . S
C738 C742 1.531 . S
C739 C738 1.369 . S
C739 C740 1.410 . S
C739 C747 1.503 . S
C740 C739 1.410 . S
C740 C741 1.392 . S
C740 C743 1.511 . S
C741 C737 1.376 . S
C741 C740 1.392 . S
C741 H753 0.929 . S
C742 C738 1.531 . S
C742 H754 0.960 . S
C742 H755 0.962 . S
C742 H756 0.960 1_554 S
C743 C740 1.511 . S
C743 H757 0.961 . S
C743 H758 0.961 . S
C743 H759 0.961 . S
C744 C745 1.370 . S
C744 C746 1.363 . S
C744 H760 0.931 . S
C745 C744 1.370 . S
C745 C749 1.408 . S
C746 C744 1.363 . S
C746 C747 1.370 . S
C746 C750 1.524 . S
C747 C739 1.503 . S
C747 C746 1.370 . S
C747 C748 1.403 . S
C748 C747 1.403 . S
C748 C749 1.404 . S
C748 C751 1.539 . S
C749 C745 1.408 . S
C749 C748 1.404 . S
C749 H761 0.930 . S
C750 C746 1.524 . S
C750 H762 0.956 . S
C750 H763 0.961 . S
C750 H764 0.961 . S
C751 C748 1.539 . S
C751 H765 0.958 . S
C751 H766 0.961 . S
C751 H767 0.960 . S
H752 C736 0.931 . S
H753 C741 0.929 . S
H754 C742 0.960 . S
H755 C742 0.962 . S
H756 C742 0.960 1_556 S
H757 C743 0.961 . S
H758 C743 0.961 . S
H759 C743 0.961 . S
H760 C744 0.931 . S
H761 C749 0.930 . S
H762 C750 0.956 . S
H763 C750 0.961 . S
H764 C750 0.961 . S
H765 C751 0.958 . S
H766 C751 0.961 . S
H767 C751 0.960 . S
C768 C769 1.391 . S
C768 C770 1.394 . S
C768 H784 0.931 . S
C769 C768 1.391 . S
C769 C773 1.376 . S
C770 C768 1.394 . S
C770 C771 1.369 . S
C770 C774 1.531 . S
C771 C770 1.369 . S
C771 C772 1.410 . S
C771 C779 1.503 . S
C772 C771 1.410 . S
C772 C773 1.392 . S
C772 C775 1.511 . S
C773 C769 1.376 . S
C773 C772 1.392 . S
C773 H785 0.929 . S
C774 C770 1.531 . S
C774 H786 0.960 . S
C774 H787 0.962 . S
C774 H788 0.960 . S
C775 C772 1.511 . S
C775 H789 0.961 . S
C775 H790 0.961 . S
C775 H791 0.961 . S
C776 C777 1.370 . S
C776 C778 1.363 . S
C776 H792 0.931 . S
C777 C776 1.370 . S
C777 C781 1.408 . S
C778 C776 1.363 . S
C778 C779 1.370 . S
C778 C782 1.524 . S
C779 C771 1.503 . S
C779 C778 1.370 . S
C779 C780 1.403 . S
C780 C779 1.403 . S
C780 C781 1.404 . S
C780 C783 1.539 . S
C781 C777 1.408 . S
C781 C780 1.404 . S
C781 H793 0.930 . S
C782 C778 1.524 . S
C782 H794 0.956 . S
C782 H795 0.961 . S
C782 H796 0.961 . S
C783 C780 1.539 . S
C783 H797 0.958 . S
C783 H798 0.961 . S
C783 H799 0.960 . S
H784 C768 0.931 . S
H785 C773 0.929 . S
H786 C774 0.960 . S
H787 C774 0.962 . S
H788 C774 0.960 . S
H789 C775 0.961 . S
H790 C775 0.961 . S
H791 C775 0.961 . S
H792 C776 0.931 . S
H793 C781 0.930 . S
H794 C782 0.956 . S
H795 C782 0.961 . S
H796 C782 0.961 . S
H797 C783 0.958 . S
H798 C783 0.961 . S
H799 C783 0.960 . S
C800 C801 1.391 . S
C800 C802 1.394 . S
C800 H816 0.931 . S
C801 C800 1.391 . S
C801 C805 1.376 . S
C802 C800 1.394 . S
C802 C803 1.369 . S
C802 C806 1.531 . S
C803 C802 1.369 . S
C803 C804 1.410 . S
C803 C811 1.503 . S
C804 C803 1.410 . S
C804 C805 1.392 . S
C804 C807 1.511 . S
C805 C801 1.376 . S
C805 C804 1.392 . S
C805 H817 0.929 . S
C806 C802 1.531 . S
C806 H818 0.960 . S
C806 H819 0.962 . S
C806 H820 0.960 . S
C807 C804 1.511 . S
C807 H821 0.961 . S
C807 H822 0.961 . S
C807 H823 0.961 . S
C808 C809 1.370 . S
C808 C810 1.363 . S
C808 H824 0.931 . S
C809 C808 1.370 . S
C809 C813 1.408 1_554 S
C810 C808 1.363 . S
C810 C811 1.370 . S
C810 C814 1.524 . S
C811 C803 1.503 . S
C811 C810 1.370 . S
C811 C812 1.403 . S
C812 C811 1.403 . S
C812 C813 1.404 1_554 S
C812 C815 1.539 . S
C813 C809 1.408 1_556 S
C813 C812 1.404 1_556 S
C813 H825 0.930 . S
C814 C810 1.524 . S
C814 H826 0.956 . S
C814 H827 0.961 . S
C814 H828 0.961 . S
C815 C812 1.539 . S
C815 H829 0.958 1_554 S
C815 H830 0.961 1_554 S
C815 H831 0.960 . S
H816 C800 0.931 . S
H817 C805 0.929 . S
H818 C806 0.960 . S
H819 C806 0.962 . S
H820 C806 0.960 . S
H821 C807 0.961 . S
H822 C807 0.961 . S
H823 C807 0.961 . S
H824 C808 0.931 . S
H825 C813 0.930 . S
H826 C814 0.956 . S
H827 C814 0.961 . S
H828 C814 0.961 . S
H829 C815 0.958 1_556 S
H830 C815 0.961 1_556 S
H831 C815 0.960 . S
C832 C833 1.391 . S
C832 C834 1.394 . S
C832 H848 0.931 . S
C833 C832 1.391 . S
C833 C837 1.376 . S
C834 C832 1.394 . S
C834 C835 1.369 . S
C834 C838 1.531 . S
C835 C834 1.369 . S
C835 C836 1.410 . S
C835 C843 1.503 . S
C836 C835 1.410 . S
C836 C837 1.392 . S
C836 C839 1.511 . S
C837 C833 1.376 . S
C837 C836 1.392 . S
C837 H849 0.929 . S
C838 C834 1.531 . S
C838 H850 0.960 . S
C838 H851 0.962 . S
C838 H852 0.960 . S
C839 C836 1.511 . S
C839 H853 0.961 . S
C839 H854 0.961 . S
C839 H855 0.961 . S
C840 C841 1.370 . S
C840 C842 1.363 . S
C840 H856 0.931 . S
C841 C840 1.370 . S
C841 C845 1.408 . S
C842 C840 1.363 . S
C842 C843 1.370 . S
C842 C846 1.524 . S
C843 C835 1.503 . S
C843 C842 1.370 . S
C843 C844 1.403 . S
C844 C843 1.403 . S
C844 C845 1.404 . S
C844 C847 1.539 . S
C845 C841 1.408 . S
C845 C844 1.404 . S
C845 H857 0.930 . S
C846 C842 1.524 . S
C846 H858 0.956 . S
C846 H859 0.961 . S
C846 H860 0.961 . S
C847 C844 1.539 . S
C847 H861 0.958 . S
C847 H862 0.961 . S
C847 H863 0.960 . S
H848 C832 0.931 . S
H849 C837 0.929 . S
H850 C838 0.960 . S
H851 C838 0.962 . S
H852 C838 0.960 . S
H853 C839 0.961 . S
H854 C839 0.961 . S
H855 C839 0.961 . S
H856 C840 0.931 . S
H857 C845 0.930 . S
H858 C846 0.956 . S
H859 C846 0.961 . S
H860 C846 0.961 . S
H861 C847 0.958 . S
H862 C847 0.961 . S
H863 C847 0.960 . S
C864 C865 1.391 . S
C864 C866 1.394 . S
C864 H880 0.931 . S
C865 C864 1.391 . S
C865 C869 1.376 . S
C866 C864 1.394 . S
C866 C867 1.369 . S
C866 C870 1.531 . S
C867 C866 1.369 . S
C867 C868 1.410 . S
C867 C875 1.503 . S
C868 C867 1.410 . S
C868 C869 1.392 . S
C868 C871 1.511 . S
C869 C865 1.376 . S
C869 C868 1.392 . S
C869 H881 0.929 . S
C870 C866 1.531 . S
C870 H882 0.960 . S
C870 H883 0.962 . S
C870 H884 0.960 . S
C871 C868 1.511 . S
C871 H885 0.961 . S
C871 H886 0.961 . S
C871 H887 0.961 . S
C872 C873 1.370 1_554 S
C872 C874 1.363 1_554 S
C872 H888 0.931 . S
C873 C872 1.370 1_556 S
C873 C877 1.408 . S
C874 C872 1.363 1_556 S
C874 C875 1.370 . S
C874 C878 1.524 . S
C875 C867 1.503 . S
C875 C874 1.370 . S
C875 C876 1.403 . S
C876 C875 1.403 . S
C876 C877 1.404 . S
C876 C879 1.539 . S
C877 C873 1.408 . S
C877 C876 1.404 . S
C877 H889 0.930 . S
C878 C874 1.524 . S
C878 H890 0.956 . S
C878 H891 0.961 . S
C878 H892 0.961 1_556 S
C879 C876 1.539 . S
C879 H893 0.958 . S
C879 H894 0.961 . S
C879 H895 0.960 . S
H880 C864 0.931 . S
H881 C869 0.929 . S
H882 C870 0.960 . S
H883 C870 0.962 . S
H884 C870 0.960 . S
H885 C871 0.961 . S
H886 C871 0.961 . S
H887 C871 0.961 . S
H888 C872 0.931 . S
H889 C877 0.930 . S
H890 C878 0.956 . S
H891 C878 0.961 . S
H892 C878 0.961 1_554 S
H893 C879 0.958 . S
H894 C879 0.961 . S
H895 C879 0.960 . S
C896 C897 1.391 . S
C896 C898 1.394 . S
C896 H912 0.931 . S
C897 C896 1.391 . S
C897 C901 1.376 . S
C898 C896 1.394 . S
C898 C899 1.369 . S
C898 C902 1.531 . S
C899 C898 1.369 . S
C899 C900 1.410 . S
C899 C907 1.503 . S
C900 C899 1.410 . S
C900 C901 1.392 . S
C900 C903 1.511 . S
C901 C897 1.376 . S
C901 C900 1.392 . S
C901 H913 0.929 . S
C902 C898 1.531 . S
C902 H914 0.960 . S
C902 H915 0.962 . S
C902 H916 0.960 . S
C903 C900 1.511 . S
C903 H917 0.961 . S
C903 H918 0.961 . S
C903 H919 0.961 . S
C904 C905 1.370 . S
C904 C906 1.363 . S
C904 H920 0.931 . S
C905 C904 1.370 . S
C905 C909 1.408 . S
C906 C904 1.363 . S
C906 C907 1.370 . S
C906 C910 1.524 . S
C907 C899 1.503 . S
C907 C906 1.370 . S
C907 C908 1.403 . S
C908 C907 1.403 . S
C908 C909 1.404 . S
C908 C911 1.539 . S
C909 C905 1.408 . S
C909 C908 1.404 . S
C909 H921 0.930 . S
C910 C906 1.524 . S
C910 H922 0.956 . S
C910 H923 0.961 . S
C910 H924 0.961 . S
C911 C908 1.539 . S
C911 H925 0.958 . S
C911 H926 0.961 . S
C911 H927 0.960 . S
H912 C896 0.931 . S
H913 C901 0.929 . S
H914 C902 0.960 . S
H915 C902 0.962 . S
H916 C902 0.960 . S
H917 C903 0.961 . S
H918 C903 0.961 . S
H919 C903 0.961 . S
H920 C904 0.931 . S
H921 C909 0.930 . S
H922 C910 0.956 . S
H923 C910 0.961 . S
H924 C910 0.961 . S
H925 C911 0.958 . S
H926 C911 0.961 . S
H927 C911 0.960 . S
C928 C929 1.391 . S
C928 C930 1.394 . S
C928 H944 0.931 . S
C929 C928 1.391 . S
C929 C933 1.376 . S
C930 C928 1.394 . S
C930 C931 1.369 . S
C930 C934 1.531 . S
C931 C930 1.369 . S
C931 C932 1.410 . S
C931 C939 1.503 . S
C932 C931 1.410 . S
C932 C933 1.392 . S
C932 C935 1.511 . S
C933 C929 1.376 . S
C933 C932 1.392 . S
C933 H945 0.928 1_556 S
C934 C930 1.531 . S
C934 H946 0.960 . S
C934 H947 0.962 . S
C934 H948 0.960 . S
C935 C932 1.511 . S
C935 H949 0.961 . S
C935 H950 0.961 . S
C935 H951 0.961 . S
C936 C937 1.370 . S
C936 C938 1.363 . S
C936 H952 0.931 . S
C937 C936 1.370 . S
C937 C941 1.408 . S
C938 C936 1.363 . S
C938 C939 1.370 . S
C938 C942 1.524 . S
C939 C931 1.503 . S
C939 C938 1.370 . S
C939 C940 1.403 . S
C940 C939 1.403 . S
C940 C941 1.404 . S
C940 C943 1.539 . S
C941 C937 1.408 . S
C941 C940 1.404 . S
C941 H953 0.930 . S
C942 C938 1.524 . S
C942 H954 0.956 . S
C942 H955 0.961 . S
C942 H956 0.961 . S
C943 C940 1.539 . S
C943 H957 0.958 . S
C943 H958 0.961 . S
C943 H959 0.960 . S
H944 C928 0.931 . S
H945 C933 0.928 1_554 S
H946 C934 0.960 . S
H947 C934 0.962 . S
H948 C934 0.960 . S
H949 C935 0.961 . S
H950 C935 0.961 . S
H951 C935 0.961 . S
H952 C936 0.931 . S
H953 C941 0.930 . S
H954 C942 0.956 . S
H955 C942 0.961 . S
H956 C942 0.961 . S
H957 C943 0.958 . S
H958 C943 0.961 . S
H959 C943 0.960 . S
C960 C961 1.391 . S
C960 C962 1.394 . S
C960 H976 0.931 . S
C961 C960 1.391 . S
C961 C965 1.376 . S
C962 C960 1.394 . S
C962 C963 1.369 . S
C962 C966 1.531 . S
C963 C962 1.369 . S
C963 C964 1.410 . S
C963 C971 1.503 . S
C964 C963 1.410 . S
C964 C965 1.392 . S
C964 C967 1.511 . S
C965 C961 1.376 . S
C965 C964 1.392 . S
C965 H977 0.929 . S
C966 C962 1.531 . S
C966 H978 0.960 . S
C966 H979 0.962 . S
C966 H980 0.960 . S
C967 C964 1.511 . S
C967 H981 0.961 . S
C967 H982 0.961 . S
C967 H983 0.961 . S
C968 C969 1.370 . S
C968 C970 1.363 . S
C968 H984 0.931 . S
C969 C968 1.370 . S
C969 C973 1.408 . S
C970 C968 1.363 . S
C970 C971 1.370 . S
C970 C974 1.524 . S
C971 C963 1.503 . S
C971 C970 1.370 . S
C971 C972 1.403 . S
C972 C971 1.403 . S
C972 C973 1.404 . S
C972 C975 1.539 . S
C973 C969 1.408 . S
C973 C972 1.404 . S
C973 H985 0.930 . S
C974 C970 1.524 . S
C974 H986 0.956 . S
C974 H987 0.961 . S
C974 H988 0.961 . S
C975 C972 1.539 . S
C975 H989 0.958 . S
C975 H990 0.961 . S
C975 H991 0.960 . S
H976 C960 0.931 . S
H977 C965 0.929 . S
H978 C966 0.960 . S
H979 C966 0.962 . S
H980 C966 0.960 . S
H981 C967 0.961 . S
H982 C967 0.961 . S
H983 C967 0.961 . S
H984 C968 0.931 . S
H985 C973 0.930 . S
H986 C974 0.956 . S
H987 C974 0.961 . S
H988 C974 0.961 . S
H989 C975 0.958 . S
H990 C975 0.961 . S
H991 C975 0.960 . S
C992 C993 1.391 . S
C992 C994 1.394 . S
C992 H1008 0.931 . S
C993 C992 1.391 . S
C993 C997 1.376 . S
C994 C992 1.394 . S
C994 C995 1.369 . S
C994 C998 1.531 . S
C995 C994 1.369 . S
C995 C996 1.410 . S
C995 C1003 1.503 . S
C996 C995 1.410 . S
C996 C997 1.392 . S
C996 C999 1.511 . S
C997 C993 1.376 . S
C997 C996 1.392 . S
C997 H1009 0.929 . S
C998 C994 1.531 . S
C998 H1010 0.960 . S
C998 H1011 0.962 . S
C998 H1012 0.960 . S
C999 C996 1.511 . S
C999 H1013 0.961 . S
C999 H1014 0.961 . S
C999 H1015 0.961 . S
C1000 C1001 1.370 . S
C1000 C1002 1.363 . S
C1000 H1016 0.931 . S
C1001 C1000 1.370 . S
C1001 C1005 1.408 . S
C1002 C1000 1.363 . S
C1002 C1003 1.370 . S
C1002 C1006 1.524 . S
C1003 C995 1.503 . S
C1003 C1002 1.370 . S
C1003 C1004 1.403 . S
C1004 C1003 1.403 . S
C1004 C1005 1.404 . S
C1004 C1007 1.539 . S
C1005 C1001 1.408 . S
C1005 C1004 1.404 . S
C1005 H1017 0.930 . S
C1006 C1002 1.524 . S
C1006 H1018 0.956 . S
C1006 H1019 0.961 . S
C1006 H1020 0.961 . S
C1007 C1004 1.539 . S
C1007 H1021 0.958 . S
C1007 H1022 0.961 . S
C1007 H1023 0.960 . S
H1008 C992 0.931 . S
H1009 C997 0.929 . S
H1010 C998 0.960 . S
H1011 C998 0.962 . S
H1012 C998 0.960 . S
H1013 C999 0.961 . S
H1014 C999 0.961 . S
H1015 C999 0.961 . S
H1016 C1000 0.931 . S
H1017 C1005 0.930 . S
H1018 C1006 0.956 . S
H1019 C1006 0.961 . S
H1020 C1006 0.961 . S
H1021 C1007 0.958 . S
H1022 C1007 0.961 . S
H1023 C1007 0.960 . S
C1024 C1025 1.391 . S
C1024 C1026 1.394 . S
C1024 H1040 0.931 . S
C1025 C1024 1.391 . S
C1025 C1029 1.376 . S
C1026 C1024 1.394 . S
C1026 C1027 1.369 . S
C1026 C1030 1.531 . S
C1027 C1026 1.369 . S
C1027 C1028 1.410 . S
C1027 C1035 1.503 . S
C1028 C1027 1.410 . S
C1028 C1029 1.392 . S
C1028 C1031 1.511 . S
C1029 C1025 1.376 . S
C1029 C1028 1.392 . S
C1029 H1041 0.929 . S
C1030 C1026 1.531 . S
C1030 H1042 0.960 . S
C1030 H1043 0.962 . S
C1030 H1044 0.960 . S
C1031 C1028 1.511 . S
C1031 H1045 0.961 . S
C1031 H1046 0.961 . S
C1031 H1047 0.961 . S
C1032 C1033 1.370 . S
C1032 C1034 1.363 . S
C1032 H1048 0.931 . S
C1033 C1032 1.370 . S
C1033 C1037 1.408 . S
C1034 C1032 1.363 . S
C1034 C1035 1.370 . S
C1034 C1038 1.524 . S
C1035 C1027 1.503 . S
C1035 C1034 1.370 . S
C1035 C1036 1.403 . S
C1036 C1035 1.403 . S
C1036 C1037 1.404 . S
C1036 C1039 1.539 . S
C1037 C1033 1.408 . S
C1037 C1036 1.404 . S
C1037 H1049 0.930 . S
C1038 C1034 1.524 . S
C1038 H1050 0.956 . S
C1038 H1051 0.961 . S
C1038 H1052 0.961 . S
C1039 C1036 1.539 . S
C1039 H1053 0.958 . S
C1039 H1054 0.961 . S
C1039 H1055 0.960 . S
H1040 C1024 0.931 . S
H1041 C1029 0.929 . S
H1042 C1030 0.960 . S
H1043 C1030 0.962 . S
H1044 C1030 0.960 . S
H1045 C1031 0.961 . S
H1046 C1031 0.961 . S
H1047 C1031 0.961 . S
H1048 C1032 0.931 . S
H1049 C1037 0.930 . S
H1050 C1038 0.956 . S
H1051 C1038 0.961 . S
H1052 C1038 0.961 . S
H1053 C1039 0.958 . S
H1054 C1039 0.961 . S
H1055 C1039 0.960 . S
C1056 C1057 1.391 . S
C1056 C1058 1.394 . S
C1056 H1072 0.931 . S
C1057 C1056 1.391 . S
C1057 C1061 1.376 . S
C1058 C1056 1.394 . S
C1058 C1059 1.369 . S
C1058 C1062 1.531 . S
C1059 C1058 1.369 . S
C1059 C1060 1.410 . S
C1059 C1067 1.503 . S
C1060 C1059 1.410 . S
C1060 C1061 1.392 . S
C1060 C1063 1.511 . S
C1061 C1057 1.376 . S
C1061 C1060 1.392 . S
C1061 H1073 0.929 . S
C1062 C1058 1.531 . S
C1062 H1074 0.960 . S
C1062 H1075 0.962 . S
C1062 H1076 0.960 . S
C1063 C1060 1.511 . S
C1063 H1077 0.961 . S
C1063 H1078 0.961 . S
C1063 H1079 0.961 . S
C1064 C1065 1.370 . S
C1064 C1066 1.363 . S
C1064 H1080 0.931 . S
C1065 C1064 1.370 . S
C1065 C1069 1.408 . S
C1066 C1064 1.363 . S
C1066 C1067 1.370 . S
C1066 C1070 1.524 . S
C1067 C1059 1.503 . S
C1067 C1066 1.370 . S
C1067 C1068 1.403 . S
C1068 C1067 1.403 . S
C1068 C1069 1.404 . S
C1068 C1071 1.539 . S
C1069 C1065 1.408 . S
C1069 C1068 1.404 . S
C1069 H1081 0.930 . S
C1070 C1066 1.524 . S
C1070 H1082 0.956 . S
C1070 H1083 0.961 . S
C1070 H1084 0.961 . S
C1071 C1068 1.539 . S
C1071 H1085 0.958 . S
C1071 H1086 0.961 . S
C1071 H1087 0.960 . S
H1072 C1056 0.931 . S
H1073 C1061 0.929 . S
H1074 C1062 0.960 . S
H1075 C1062 0.962 . S
H1076 C1062 0.960 . S
H1077 C1063 0.961 . S
H1078 C1063 0.961 . S
H1079 C1063 0.961 . S
H1080 C1064 0.931 . S
H1081 C1069 0.930 . S
H1082 C1070 0.956 . S
H1083 C1070 0.961 . S
H1084 C1070 0.961 . S
H1085 C1071 0.958 . S
H1086 C1071 0.961 . S
H1087 C1071 0.960 . S
C1088 C1089 1.391 . S
C1088 C1090 1.394 . S
C1088 H1104 0.931 . S
C1089 C1088 1.391 . S
C1089 C1093 1.376 . S
C1090 C1088 1.394 . S
C1090 C1091 1.369 . S
C1090 C1094 1.531 . S
C1091 C1090 1.369 . S
C1091 C1092 1.410 . S
C1091 C1099 1.503 . S
C1092 C1091 1.410 . S
C1092 C1093 1.392 . S
C1092 C1095 1.511 . S
C1093 C1089 1.376 . S
C1093 C1092 1.392 . S
C1093 H1105 0.929 . S
C1094 C1090 1.531 . S
C1094 H1106 0.960 . S
C1094 H1107 0.962 . S
C1094 H1108 0.960 . S
C1095 C1092 1.511 . S
C1095 H1109 0.961 . S
C1095 H1110 0.961 . S
C1095 H1111 0.961 . S
C1096 C1097 1.370 . S
C1096 C1098 1.363 . S
C1096 H1112 0.931 . S
C1097 C1096 1.370 . S
C1097 C1101 1.408 . S
C1098 C1096 1.363 . S
C1098 C1099 1.370 . S
C1098 C1102 1.524 . S
C1099 C1091 1.503 . S
C1099 C1098 1.370 . S
C1099 C1100 1.403 . S
C1100 C1099 1.403 . S
C1100 C1101 1.404 . S
C1100 C1103 1.539 . S
C1101 C1097 1.408 . S
C1101 C1100 1.404 . S
C1101 H1113 0.930 . S
C1102 C1098 1.524 . S
C1102 H1114 0.956 . S
C1102 H1115 0.961 . S
C1102 H1116 0.961 . S
C1103 C1100 1.539 . S
C1103 H1117 0.958 . S
C1103 H1118 0.961 . S
C1103 H1119 0.960 . S
H1104 C1088 0.931 . S
H1105 C1093 0.929 . S
H1106 C1094 0.960 . S
H1107 C1094 0.962 . S
H1108 C1094 0.960 . S
H1109 C1095 0.961 . S
H1110 C1095 0.961 . S
H1111 C1095 0.961 . S
H1112 C1096 0.931 . S
H1113 C1101 0.930 . S
H1114 C1102 0.956 . S
H1115 C1102 0.961 . S
H1116 C1102 0.961 . S
H1117 C1103 0.958 . S
H1118 C1103 0.961 . S
H1119 C1103 0.960 . S
C1120 C1121 1.391 . S
C1120 C1122 1.394 . S
C1120 H1136 0.931 . S
C1121 C1120 1.391 . S
C1121 C1125 1.376 . S
C1122 C1120 1.394 . S
C1122 C1123 1.369 . S
C1122 C1126 1.531 . S
C1123 C1122 1.369 . S
C1123 C1124 1.410 . S
C1123 C1131 1.503 . S
C1124 C1123 1.410 . S
C1124 C1125 1.392 . S
C1124 C1127 1.511 . S
C1125 C1121 1.376 . S
C1125 C1124 1.392 . S
C1125 H1137 0.929 . S
C1126 C1122 1.531 . S
C1126 H1138 0.960 . S
C1126 H1139 0.962 . S
C1126 H1140 0.960 . S
C1127 C1124 1.511 . S
C1127 H1141 0.961 . S
C1127 H1142 0.961 . S
C1127 H1143 0.961 . S
C1128 C1129 1.370 . S
C1128 C1130 1.363 . S
C1128 H1144 0.931 . S
C1129 C1128 1.370 . S
C1129 C1133 1.408 . S
C1130 C1128 1.363 . S
C1130 C1131 1.370 . S
C1130 C1134 1.524 . S
C1131 C1123 1.503 . S
C1131 C1130 1.370 . S
C1131 C1132 1.403 . S
C1132 C1131 1.403 . S
C1132 C1133 1.404 . S
C1132 C1135 1.539 . S
C1133 C1129 1.408 . S
C1133 C1132 1.404 . S
C1133 H1145 0.930 . S
C1134 C1130 1.524 . S
C1134 H1146 0.956 . S
C1134 H1147 0.961 . S
C1134 H1148 0.961 . S
C1135 C1132 1.539 . S
C1135 H1149 0.958 . S
C1135 H1150 0.961 . S
C1135 H1151 0.960 . S
H1136 C1120 0.931 . S
H1137 C1125 0.929 . S
H1138 C1126 0.960 . S
H1139 C1126 0.962 . S
H1140 C1126 0.960 . S
H1141 C1127 0.961 . S
H1142 C1127 0.961 . S
H1143 C1127 0.961 . S
H1144 C1128 0.931 . S
H1145 C1133 0.930 . S
H1146 C1134 0.956 . S
H1147 C1134 0.961 . S
H1148 C1134 0.961 . S
H1149 C1135 0.958 . S
H1150 C1135 0.961 . S
H1151 C1135 0.960 . S
C1152 C1153 1.391 . S
C1152 C1154 1.394 . S
C1152 H1168 0.931 . S
C1153 C1152 1.391 . S
C1153 C1157 1.376 . S
C1154 C1152 1.394 . S
C1154 C1155 1.369 . S
C1154 C1158 1.531 . S
C1155 C1154 1.369 . S
C1155 C1156 1.410 . S
C1155 C1163 1.503 . S
C1156 C1155 1.410 . S
C1156 C1157 1.392 . S
C1156 C1159 1.511 . S
C1157 C1153 1.376 . S
C1157 C1156 1.392 . S
C1157 H1169 0.929 . S
C1158 C1154 1.531 . S
C1158 H1170 0.960 . S
C1158 H1171 0.962 . S
C1158 H1172 0.960 . S
C1159 C1156 1.511 . S
C1159 H1173 0.961 . S
C1159 H1174 0.961 . S
C1159 H1175 0.961 . S
C1160 C1161 1.370 . S
C1160 C1162 1.363 . S
C1160 H1176 0.931 . S
C1161 C1160 1.370 . S
C1161 C1165 1.408 . S
C1162 C1160 1.363 . S
C1162 C1163 1.370 . S
C1162 C1166 1.524 . S
C1163 C1155 1.503 . S
C1163 C1162 1.370 . S
C1163 C1164 1.403 . S
C1164 C1163 1.403 . S
C1164 C1165 1.404 . S
C1164 C1167 1.539 . S
C1165 C1161 1.408 . S
C1165 C1164 1.404 . S
C1165 H1177 0.930 . S
C1166 C1162 1.524 . S
C1166 H1178 0.956 . S
C1166 H1179 0.961 . S
C1166 H1180 0.961 . S
C1167 C1164 1.539 . S
C1167 H1181 0.958 . S
C1167 H1182 0.961 . S
C1167 H1183 0.960 . S
H1168 C1152 0.931 . S
H1169 C1157 0.929 . S
H1170 C1158 0.960 . S
H1171 C1158 0.962 . S
H1172 C1158 0.960 . S
H1173 C1159 0.961 . S
H1174 C1159 0.961 . S
H1175 C1159 0.961 . S
H1176 C1160 0.931 . S
H1177 C1165 0.930 . S
H1178 C1166 0.956 . S
H1179 C1166 0.961 . S
H1180 C1166 0.961 . S
H1181 C1167 0.958 . S
H1182 C1167 0.961 . S
H1183 C1167 0.960 . S
C1184 C1185 1.391 . S
C1184 C1186 1.394 . S
C1184 H1200 0.931 . S
C1185 C1184 1.391 . S
C1185 C1189 1.376 . S
C1186 C1184 1.394 . S
C1186 C1187 1.369 . S
C1186 C1190 1.531 . S
C1187 C1186 1.369 . S
C1187 C1188 1.410 . S
C1187 C1195 1.503 . S
C1188 C1187 1.410 . S
C1188 C1189 1.392 . S
C1188 C1191 1.511 . S
C1189 C1185 1.376 . S
C1189 C1188 1.392 . S
C1189 H1201 0.929 . S
C1190 C1186 1.531 . S
C1190 H1202 0.960 . S
C1190 H1203 0.962 . S
C1190 H1204 0.960 . S
C1191 C1188 1.511 . S
C1191 H1205 0.961 . S
C1191 H1206 0.961 . S
C1191 H1207 0.961 . S
C1192 C1193 1.370 . S
C1192 C1194 1.363 . S
C1192 H1208 0.931 . S
C1193 C1192 1.370 . S
C1193 C1197 1.408 . S
C1194 C1192 1.363 . S
C1194 C1195 1.370 . S
C1194 C1198 1.524 . S
C1195 C1187 1.503 . S
C1195 C1194 1.370 . S
C1195 C1196 1.403 . S
C1196 C1195 1.403 . S
C1196 C1197 1.404 . S
C1196 C1199 1.539 . S
C1197 C1193 1.408 . S
C1197 C1196 1.404 . S
C1197 H1209 0.930 . S
C1198 C1194 1.524 . S
C1198 H1210 0.956 . S
C1198 H1211 0.961 . S
C1198 H1212 0.961 . S
C1199 C1196 1.539 . S
C1199 H1213 0.958 . S
C1199 H1214 0.961 . S
C1199 H1215 0.960 . S
H1200 C1184 0.931 . S
H1201 C1189 0.929 . S
H1202 C1190 0.960 . S
H1203 C1190 0.962 . S
H1204 C1190 0.960 . S
H1205 C1191 0.961 . S
H1206 C1191 0.961 . S
H1207 C1191 0.961 . S
H1208 C1192 0.931 . S
H1209 C1197 0.930 . S
H1210 C1198 0.956 . S
H1211 C1198 0.961 . S
H1212 C1198 0.961 . S
H1213 C1199 0.958 . S
H1214 C1199 0.961 . S
H1215 C1199 0.960 . S
C1216 C1217 1.391 . S
C1216 C1218 1.394 . S
C1216 H1232 0.931 . S
C1217 C1216 1.391 . S
C1217 C1221 1.376 . S
C1218 C1216 1.394 . S
C1218 C1219 1.369 . S
C1218 C1222 1.531 . S
C1219 C1218 1.369 . S
C1219 C1220 1.410 . S
C1219 C1227 1.503 . S
C1220 C1219 1.410 . S
C1220 C1221 1.392 . S
C1220 C1223 1.511 . S
C1221 C1217 1.376 . S
C1221 C1220 1.392 . S
C1221 H1233 0.929 . S
C1222 C1218 1.531 . S
C1222 H1234 0.960 . S
C1222 H1235 0.962 . S
C1222 H1236 0.960 . S
C1223 C1220 1.511 . S
C1223 H1237 0.961 . S
C1223 H1238 0.961 . S
C1223 H1239 0.961 . S
C1224 C1225 1.370 . S
C1224 C1226 1.363 . S
C1224 H1240 0.931 . S
C1225 C1224 1.370 . S
C1225 C1229 1.408 . S
C1226 C1224 1.363 . S
C1226 C1227 1.370 . S
C1226 C1230 1.524 . S
C1227 C1219 1.503 . S
C1227 C1226 1.370 . S
C1227 C1228 1.403 . S
C1228 C1227 1.403 . S
C1228 C1229 1.404 . S
C1228 C1231 1.539 . S
C1229 C1225 1.408 . S
C1229 C1228 1.404 . S
C1229 H1241 0.930 . S
C1230 C1226 1.524 . S
C1230 H1242 0.956 . S
C1230 H1243 0.961 . S
C1230 H1244 0.961 . S
C1231 C1228 1.539 . S
C1231 H1245 0.958 . S
C1231 H1246 0.961 . S
C1231 H1247 0.960 . S
H1232 C1216 0.931 . S
H1233 C1221 0.929 . S
H1234 C1222 0.960 . S
H1235 C1222 0.962 . S
H1236 C1222 0.960 . S
H1237 C1223 0.961 . S
H1238 C1223 0.961 . S
H1239 C1223 0.961 . S
H1240 C1224 0.931 . S
H1241 C1229 0.930 . S
H1242 C1230 0.956 . S
H1243 C1230 0.961 . S
H1244 C1230 0.961 . S
H1245 C1231 0.958 . S
H1246 C1231 0.961 . S
H1247 C1231 0.960 . S
C225 C8 1.085 . S
C233 C64 1.094 . S
C257 C78 1.095 . S
C265 C22 1.087 . S
C289 C36 1.076 . S
C297 C92 1.090 . S
C321 C50 1.103 . S
C329 C106 1.092 . S
C353 C120 1.083 . S
C361 C176 1.091 . S
C385 C190 1.084 . S
C393 C134 1.084 . S
C417 C148 1.072 . S
C425 C204 1.086 . S
C449 C162 1.086 . S
C457 C218 1.085 . S
C481 C7 1.461 1_556 S
C489 C219 1.459 . S
C513 C177 1.423 . S
C521 C21 1.434 . S
C545 C35 1.398 1_556 S
C553 C191 1.441 . S
C577 C205 1.472 . S
C585 C49 1.441 . S
C609 C135 1.424 . S
C617 C63 1.434 1_554 S
C641 C149 1.430 . S
C649 C77 1.438 . S
C673 C163 1.439 . S
C681 C91 1.443 1_554 S
C705 C121 1.420 . S
C713 C105 1.424 . S
C737 C119 1.455 1_554 S
C745 C107 1.459 . S
C769 C65 1.439 . S
C777 C133 1.446 . S
C801 C79 1.439 . S
C809 C147 1.422 1_554 S
C833 C161 1.448 . S
C841 C93 1.460 . S
C865 C23 1.430 . S
C873 C175 1.442 1_556 S
C897 C189 1.427 . S
C905 C37 1.438 . S
C929 C203 1.445 1_556 S
C937 C51 1.441 . S
C961 C217 1.423 . S
C969 C9 1.438 . S
C993 C101 1.090 . S
C1001 C3 1.111 . S
C1025 C17 1.101 . S
C1033 C59 1.100 . S
C1057 C31 1.089 . S
C1065 C73 1.098 . S
C1089 C45 1.120 . S
C1097 C87 1.106 . S
C1121 C213 1.106 . S
C1129 C115 1.104 . S
C1153 C171 1.079 . S
C1161 C129 1.099 . S
C1185 C185 1.135 . S
C1193 C143 1.120 . S
C1217 C199 1.086 . S
C1225 C157 1.105 . S
