# Generated by pormake.
# Topology afw, (4)-cn, num edge types: 1
# Building blocks:
#     Node 0, Type 0, BuildingBlock: QUQFOY_clean_sbu_1, # of connection points: 4
#     Node 1, Type 0, BuildingBlock: QUQFOY_clean_sbu_1, # of connection points: 4
#     Node 2, Type 0, BuildingBlock: QUQFOY_clean_sbu_1, # of connection points: 4
#     Node 3, Type 0, BuildingBlock: QUQFOY_clean_sbu_1, # of connection points: 4
#     Node 4, Type 0, BuildingBlock: QUQFOY_clean_sbu_1, # of connection points: 4
#     Node 5, Type 0, BuildingBlock: QUQFOY_clean_sbu_1, # of connection points: 4
#     Node 6, Type 0, BuildingBlock: QUQFOY_clean_sbu_1, # of connection points: 4
#     Node 7, Type 0, BuildingBlock: QUQFOY_clean_sbu_1, # of connection points: 4
#     Node 8, Type 0, BuildingBlock: QUQFOY_clean_sbu_1, # of connection points: 4
#     Edge 9, Type (0, 0), BuildingBlock: KIFKEQ_clean_linker_1, # of connection points: 2
#     Edge 10, Type (0, 0), BuildingBlock: KIFKEQ_clean_linker_1, # of connection points: 2
#     Edge 11, Type (0, 0), BuildingBlock: KIFKEQ_clean_linker_1, # of connection points: 2
#     Edge 12, Type (0, 0), BuildingBlock: KIFKEQ_clean_linker_1, # of connection points: 2
#     Edge 13, Type (0, 0), BuildingBlock: KIFKEQ_clean_linker_1, # of connection points: 2
#     Edge 14, Type (0, 0), BuildingBlock: KIFKEQ_clean_linker_1, # of connection points: 2
#     Edge 15, Type (0, 0), BuildingBlock: KIFKEQ_clean_linker_1, # of connection points: 2
#     Edge 16, Type (0, 0), BuildingBlock: KIFKEQ_clean_linker_1, # of connection points: 2
#     Edge 17, Type (0, 0), BuildingBlock: KIFKEQ_clean_linker_1, # of connection points: 2
#     Edge 18, Type (0, 0), BuildingBlock: KIFKEQ_clean_linker_1, # of connection points: 2
#     Edge 19, Type (0, 0), BuildingBlock: KIFKEQ_clean_linker_1, # of connection points: 2
#     Edge 20, Type (0, 0), BuildingBlock: KIFKEQ_clean_linker_1, # of connection points: 2
#     Edge 21, Type (0, 0), BuildingBlock: KIFKEQ_clean_linker_1, # of connection points: 2
#     Edge 22, Type (0, 0), BuildingBlock: KIFKEQ_clean_linker_1, # of connection points: 2
#     Edge 23, Type (0, 0), BuildingBlock: KIFKEQ_clean_linker_1, # of connection points: 2
#     Edge 24, Type (0, 0), BuildingBlock: KIFKEQ_clean_linker_1, # of connection points: 2
#     Edge 25, Type (0, 0), BuildingBlock: KIFKEQ_clean_linker_1, # of connection points: 2
#     Edge 26, Type (0, 0), BuildingBlock: KIFKEQ_clean_linker_1, # of connection points: 2
# Relax obj value: 0.125
# Max RMSD: 0.152
# Mean RMSD: 0.152
data_MOF--net-afw--node1-QUQFOY_clean_sbu_1--edge1-KIFKEQ_clean_linker_1
_symmetry_space_group_name_H-M    P1
_symmetry_Int_Tables_number       1
_symmetry_cell_setting            triclinic
loop_
_symmetry_equiv_pos_as_xyz
'x, y, z'
_cell_length_a     43.628468
_cell_length_b     43.612931
_cell_length_c     37.581103
_cell_angle_alpha  89.871444
_cell_angle_beta   90.108407
_cell_angle_gamma 119.95196
loop_
_atom_site_label
_atom_site_type_symbol
_atom_site_fract_x
_atom_site_fract_y
_atom_site_fract_z
_atom_type_partial_charge
O0 O 0.06074 0.20486 1.0008 0.0
Cd1 Cd 0.01652 0.20973 0.99247 0.0
Cd2 Cd 0.01706 0.21013 0.06456 0.0
O3 O 0.0653 0.2126 0.05892 0.0
O4 O 0.01964 0.22319 0.94133 0.0
O5 O 0.02161 0.25789 0.9851 0.0
C6 C 0.02295 0.25293 0.95138 0.0
C7 C 0.0103 0.24669 0.10541 0.0
C8 C 0.07697 0.20763 0.02981 0.0
C9 C 0.9568 0.14734 0.02758 0.0
O10 O 0.97302 0.16098 0.05652 0.0
O11 O 0.9684 0.16383 0.99834 0.0
O12 O 0.01386 0.22041 0.11563 0.0
O13 O 0.01163 0.25298 0.07166 0.0
O14 O 0.87278 0.82965 0.05895 0.0
Cd15 Cd 0.82336 0.8248 0.06361 0.0
Cd16 Cd 0.82609 0.82154 0.99261 0.0
O17 O 0.87018 0.81674 1.00201 0.0
O18 O 0.81098 0.81288 0.11476 0.0
O19 O 0.78057 0.77658 0.07093 0.0
C20 C 0.78547 0.78255 0.10472 0.0
C21 C 0.78093 0.78319 0.95453 0.0
C22 C 0.88641 0.82401 0.03164 0.0
C23 C 0.82852 0.8862 0.02377 0.0
O24 O 0.83352 0.87204 0.99649 0.0
O25 O 0.82078 0.87006 0.0535 0.0
O26 O 0.8116 0.80621 0.94246 0.0
O27 O 0.77616 0.78105 0.98858 0.0
O28 O 0.16048 0.9733 1.00379 0.0
Cd29 Cd 0.20984 0.01781 0.99856 0.0
Cd30 Cd 0.20739 0.01267 0.0699 0.0
O31 O 0.16306 0.96389 0.06103 0.0
O32 O 0.22161 0.01783 0.94733 0.0
O33 O 0.25263 0.01241 0.99097 0.0
C34 C 0.24731 0.01319 0.95721 0.0
C35 C 0.25203 0.0191 0.10872 0.0
C36 C 0.14685 0.95451 0.03143 0.0
C37 C 0.20514 0.07469 0.03743 0.0
O38 O 0.20039 0.05599 0.0651 0.0
O39 O 0.21247 0.06573 1.00786 0.0
O40 O 0.22141 0.0121 0.12033 0.0
O41 O 0.25708 0.02141 0.07471 0.0
O42 O 0.64062 0.49601 0.39257 0.0
Cd43 Cd 0.68416 0.5455 0.39968 0.0
Cd44 Cd 0.68385 0.54559 0.32742 0.0
O45 O 0.63656 0.49864 0.33424 0.0
O46 O 0.68281 0.55848 0.45027 0.0
O47 O 0.67655 0.58718 0.4047 0.0
C48 C 0.67729 0.58316 0.43872 0.0
C49 C 0.68832 0.58744 0.28554 0.0
C50 C 0.62485 0.48215 0.36351 0.0
C51 C 0.74529 0.54536 0.36435 0.0
O52 O 0.72962 0.54336 0.33518 0.0
O53 O 0.7325 0.5484 0.39361 0.0
O54 O 0.68582 0.55791 0.27603 0.0
O55 O 0.68702 0.59284 0.31916 0.0
O56 O 0.53706 0.1652 0.3964 0.0
Cd57 Cd 0.48727 0.15947 0.40041 0.0
Cd58 Cd 0.49071 0.15594 0.32951 0.0
O59 O 0.5349 0.15151 0.33973 0.0
O60 O 0.47446 0.14726 0.45145 0.0
O61 O 0.44493 0.11086 0.40736 0.0
C62 C 0.44947 0.11672 0.44119 0.0
C63 C 0.44655 0.11758 0.29045 0.0
C64 C 0.55099 0.15941 0.36945 0.0
C65 C 0.49255 0.22061 0.36027 0.0
O66 O 0.49786 0.20637 0.33324 0.0
O67 O 0.48438 0.2045 0.39002 0.0
O68 O 0.47733 0.14104 0.27905 0.0
O69 O 0.44109 0.11507 0.3244 0.0
O70 O 0.87313 0.39916 0.38662 0.0
Cd71 Cd 0.87521 0.3535 0.39627 0.0
Cd72 Cd 0.87342 0.35103 0.32361 0.0
O73 O 0.87459 0.39872 0.32795 0.0
O74 O 0.88852 0.35728 0.44749 0.0
O75 O 0.92232 0.3564 0.40424 0.0
C76 C 0.91759 0.35885 0.43782 0.0
C77 C 0.91006 0.34442 0.28274 0.0
C78 C 0.87323 0.4131 0.35684 0.0
C79 C 0.81166 0.29235 0.36285 0.0
O80 O 0.82514 0.30662 0.33313 0.0
O81 O 0.82816 0.30597 0.39168 0.0
O82 O 0.88309 0.3468 0.2726 0.0
O83 O 0.91694 0.34676 0.31642 0.0
O84 O 0.39452 0.87473 0.67081 0.0
Cd85 Cd 0.34923 0.87778 0.66233 0.0
Cd86 Cd 0.34932 0.87814 0.735 0.0
O87 O 0.39671 0.87895 0.72935 0.0
O88 O 0.35192 0.89069 0.61103 0.0
O89 O 0.35293 0.9253 0.65442 0.0
C90 C 0.35446 0.92019 0.62076 0.0
C91 C 0.34378 0.91499 0.77651 0.0
C92 C 0.4096 0.87589 0.70016 0.0
C93 C 0.28921 0.81537 0.69819 0.0
O94 O 0.30478 0.82959 0.7272 0.0
O95 O 0.30149 0.83118 0.66872 0.0
O96 O 0.34659 0.88816 0.78624 0.0
O97 O 0.34518 0.9217 0.74285 0.0
O98 O 0.2052 0.49471 0.72249 0.0
Cd99 Cd 0.15691 0.49187 0.73032 0.0
Cd100 Cd 0.15703 0.49104 0.65783 0.0
O101 O 0.20308 0.48932 0.66405 0.0
O102 O 0.14656 0.47927 0.78164 0.0
O103 O 0.11335 0.44429 0.73822 0.0
C104 C 0.11988 0.44959 0.7719 0.0
C105 C 0.11401 0.45402 0.61692 0.0
C106 C 0.21898 0.49275 0.69342 0.0
C107 C 0.15982 0.55424 0.69367 0.0
O108 O 0.16171 0.53999 0.66494 0.0
O109 O 0.15562 0.53838 0.72326 0.0
O110 O 0.14382 0.48025 0.60675 0.0
O111 O 0.10894 0.44797 0.65069 0.0
O112 O 0.49282 0.63688 0.67031 0.0
Cd113 Cd 0.54055 0.68232 0.66162 0.0
Cd114 Cd 0.54225 0.6855 0.73405 0.0
O115 O 0.49529 0.63807 0.72898 0.0
O116 O 0.55242 0.68056 0.6107 0.0
O117 O 0.58403 0.67787 0.65549 0.0
C118 C 0.57869 0.67732 0.6216 0.0
C119 C 0.58583 0.69066 0.77372 0.0
C120 C 0.47923 0.62341 0.70026 0.0
C121 C 0.53892 0.74407 0.69548 0.0
O122 O 0.53934 0.73069 0.72544 0.0
O123 O 0.54047 0.72952 0.66676 0.0
O124 O 0.55641 0.68736 0.78486 0.0
O125 O 0.59032 0.69018 0.73979 0.0
H126 H 0.17557 0.09227 0.09191 0.0
H127 H 0.21772 0.12416 0.9858 0.0
H128 H 0.15333 0.13326 0.09014 0.0
H129 H 0.19672 0.16653 0.98455 0.0
H130 H 0.10091 0.18466 0.97469 0.0
H131 H 0.14053 0.16091 0.97788 0.0
H132 H 0.16096 0.19065 0.08876 0.0
H133 H 0.11987 0.21317 0.08587 0.0
C134 C 0.18097 0.10876 0.06853 0.0
C135 C 0.19791 0.10447 0.03876 0.0
C136 C 0.16838 0.13257 0.06759 0.0
C137 C 0.17277 0.15303 0.037 0.0
C138 C 0.1921 0.15063 1.00824 0.0
C139 C 0.20436 0.12648 1.00903 0.0
C140 C 0.11432 0.18679 0.99963 0.0
C141 C 0.10668 0.20027 0.03019 0.0
C142 C 0.13737 0.17333 1.00142 0.0
C143 C 0.15371 0.17333 0.03374 0.0
C144 C 0.14821 0.1894 0.06363 0.0
C145 C 0.12483 0.20257 0.06192 0.0
H146 H 0.85842 0.93278 0.96875 0.0
H147 H 0.81589 0.92372 0.07446 0.0
H148 H 0.8807 0.99599 0.96946 0.0
H149 H 0.83694 0.98708 0.07462 0.0
H150 H 0.93269 0.10101 0.08335 0.0
H151 H 0.8931 0.03766 0.08098 0.0
H152 H 0.8731 0.04578 0.9696 0.0
H153 H 0.91417 0.10938 0.97168 0.0
C154 C 0.85296 0.94412 0.99181 0.0
C155 C 0.83588 0.92323 0.02179 0.0
C156 C 0.86557 0.98052 0.99213 0.0
C157 C 0.86108 0.99693 0.0223 0.0
C158 C 0.84164 0.97554 0.05125 0.0
C159 C 0.82935 0.93913 0.05109 0.0
C160 C 0.91939 0.08948 0.05846 0.0
C161 C 0.92714 0.11026 0.02754 0.0
C162 C 0.89636 0.05298 0.05714 0.0
C163 C 0.88014 0.03631 0.02495 0.0
C164 C 0.88576 0.05755 0.99466 0.0
C165 C 0.90913 0.09409 0.9959 0.0
H166 H 0.93199 0.84955 0.08793 0.0
H167 H 0.92453 0.8143 0.97925 0.0
H168 H 0.99519 0.87209 0.0873 0.0
H169 H 0.98795 0.8357 0.97906 0.0
H170 H 0.10884 0.90736 0.08447 0.0
H171 H 0.04547 0.86521 0.0849 0.0
H172 H 0.03805 0.8929 0.97594 0.0
H173 H 0.10122 0.93369 0.97511 0.0
C174 C 0.94367 0.84569 0.06416 0.0
C175 C 0.92321 0.83068 0.03341 0.0
C176 C 0.98007 0.85845 0.06388 0.0
C177 C 0.99697 0.85623 0.03294 0.0
C178 C 0.97601 0.83863 1.00309 0.0
C179 C 0.93956 0.82612 1.00327 0.0
C180 C 0.09378 0.90381 0.06036 0.0
C181 C 0.11007 0.92433 0.02994 0.0
C182 C 0.05737 0.87979 0.06067 0.0
C183 C 0.03637 0.87598 0.03067 0.0
C184 C 0.05321 0.89473 0.9995 0.0
C185 C 0.08959 0.91845 0.99909 0.0
H186 H 0.88394 0.46009 0.41016 0.0
H187 H 0.84765 0.43428 0.30158 0.0
H188 H 0.86375 0.50306 0.41181 0.0
H189 H 0.82562 0.47538 0.3037 0.0
H190 H 0.78896 0.55223 0.30897 0.0
H191 H 0.83085 0.53074 0.30652 0.0
H192 H 0.80937 0.49964 0.41715 0.0
H193 H 0.76941 0.523 0.41991 0.0
C194 C 0.87199 0.4639 0.3865 0.0
C195 C 0.86703 0.44351 0.35588 0.0
C196 C 0.86012 0.48834 0.3875 0.0
C197 C 0.8423 0.49239 0.35816 0.0
C198 C 0.83948 0.47353 0.32678 0.0
C199 C 0.85197 0.44964 0.32557 0.0
C200 C 0.79396 0.54161 0.33296 0.0
C201 C 0.77556 0.53894 0.36451 0.0
C202 C 0.81776 0.52896 0.33152 0.0
C203 C 0.82311 0.51263 0.3614 0.0
C204 C 0.80644 0.51226 0.39359 0.0
C205 C 0.78322 0.52554 0.39519 0.0
H206 H 0.52242 0.26669 0.30485 0.0
H207 H 0.48126 0.25908 0.41099 0.0
H208 H 0.54616 0.33014 0.30541 0.0
H209 H 0.50381 0.32272 0.41102 0.0
H210 H 0.60108 0.43563 0.41913 0.0
H211 H 0.56072 0.3724 0.41688 0.0
H212 H 0.54017 0.38088 0.30574 0.0
H213 H 0.58199 0.44432 0.30769 0.0
C214 C 0.51755 0.27842 0.32798 0.0
C215 C 0.50044 0.25782 0.35812 0.0
C216 C 0.53102 0.31496 0.32822 0.0
C217 C 0.5274 0.33184 0.35847 0.0
C218 C 0.50787 0.3108 0.38758 0.0
C219 C 0.4947 0.27423 0.38748 0.0
C220 C 0.58754 0.4242 0.39431 0.0
C221 C 0.59526 0.44503 0.36344 0.0
C222 C 0.56406 0.38778 0.39307 0.0
C223 C 0.54735 0.37124 0.361 0.0
C224 C 0.55314 0.39253 0.33071 0.0
C225 C 0.57697 0.42899 0.33187 0.0
H226 H 0.59744 0.18998 0.42435 0.0
H227 H 0.58866 0.14629 0.31928 0.0
H228 H 0.66076 0.21353 0.42336 0.0
H229 H 0.65222 0.16849 0.31891 0.0
H230 H 0.76463 0.2657 0.30791 0.0
H231 H 0.70167 0.22476 0.31132 0.0
H232 H 0.71182 0.2087 0.42335 0.0
H233 H 0.775 0.25129 0.42018 0.0
C234 C 0.60888 0.18447 0.4014 0.0
C235 C 0.588 0.16679 0.37162 0.0
C236 C 0.64539 0.19783 0.40092 0.0
C237 C 0.66195 0.19347 0.37081 0.0
C238 C 0.64058 0.1732 0.3422 0.0
C239 C 0.60405 0.16021 0.34249 0.0
C240 C 0.75363 0.25302 0.33319 0.0
C241 C 0.77482 0.26229 0.36391 0.0
C242 C 0.71735 0.22918 0.33512 0.0
C243 C 0.70131 0.21358 0.36774 0.0
C244 C 0.72303 0.22082 0.39794 0.0
C245 C 0.75934 0.24508 0.3961 0.0
H246 H 0.45302 0.88158 0.64496 0.0
H247 H 0.43296 0.85311 0.75606 0.0
H248 H 0.49459 0.85965 0.64314 0.0
H249 H 0.47267 0.82941 0.75392 0.0
H250 H 0.54861 0.79124 0.74827 0.0
H251 H 0.52746 0.83346 0.74914 0.0
H252 H 0.48959 0.80426 0.64114 0.0
H253 H 0.51253 0.76388 0.63979 0.0
C254 C 0.45781 0.871 0.66911 0.0
C255 C 0.43942 0.86875 0.70054 0.0
C256 C 0.48143 0.85812 0.66802 0.0
C257 C 0.48666 0.84202 0.69817 0.0
C258 C 0.46985 0.84189 0.73018 0.0
C259 C 0.44678 0.85536 0.73141 0.0
C260 C 0.5365 0.79454 0.72447 0.0
C261 C 0.53193 0.77396 0.69409 0.0
C262 C 0.52406 0.81854 0.72503 0.0
C263 C 0.50609 0.82198 0.69547 0.0
C264 C 0.50356 0.80288 0.66436 0.0
C265 C 0.51659 0.77942 0.6636 0.0
H266 H 0.26703 0.76913 0.75389 0.0
H267 H 0.24444 0.77749 0.64347 0.0
H268 H 0.22711 0.70594 0.75214 0.0
H269 H 0.20263 0.71404 0.64213 0.0
H270 H 0.18544 0.60066 0.6382 0.0
H271 H 0.208 0.66376 0.63964 0.0
H272 H 0.17201 0.65521 0.74831 0.0
H273 H 0.15108 0.59186 0.74735 0.0
C274 C 0.25271 0.75762 0.72944 0.0
C275 C 0.25945 0.77835 0.69862 0.0
C276 C 0.22944 0.72117 0.72849 0.0
C277 C 0.21181 0.70446 0.69682 0.0
C278 C 0.21641 0.72572 0.66675 0.0
C279 C 0.2402 0.7622 0.66756 0.0
C280 C 0.18175 0.61205 0.66227 0.0
C281 C 0.16698 0.59124 0.69288 0.0
C282 C 0.19451 0.64845 0.66303 0.0
C283 C 0.19237 0.66501 0.69427 0.0
C284 C 0.17503 0.64365 0.72405 0.0
C285 C 0.16276 0.60723 0.72346 0.0
H286 H 0.25599 0.48672 0.74927 0.0
H287 H 0.26529 0.51455 0.63791 0.0
H288 H 0.31929 0.5079 0.75181 0.0
H289 H 0.32852 0.53757 0.64073 0.0
H290 H 0.4423 0.57571 0.64767 0.0
H291 H 0.37906 0.5333 0.64646 0.0
H292 H 0.36974 0.56308 0.75393 0.0
H293 H 0.43295 0.60361 0.75565 0.0
C294 C 0.27152 0.49699 0.72522 0.0
C295 C 0.25571 0.49933 0.6935 0.0
C296 C 0.30791 0.50945 0.72671 0.0
C297 C 0.32945 0.52522 0.69669 0.0
C298 C 0.31306 0.52534 0.6644 0.0
C299 C 0.27662 0.51227 0.66277 0.0
C300 C 0.42677 0.57247 0.67129 0.0
C301 C 0.44254 0.59329 0.7016 0.0
C302 C 0.39041 0.54837 0.67053 0.0
C303 C 0.36886 0.54509 0.69981 0.0
C304 C 0.38521 0.56435 0.73092 0.0
C305 C 0.42164 0.5879 0.7319 0.0
H306 H 0.03231 0.31916 0.96322 0.0
H307 H 0.03026 0.25034 0.87961 0.0
H308 H 0.04954 0.36686 0.91991 0.0
H309 H 0.04839 0.29802 0.83674 0.0
H310 H 0.06291 0.38337 0.76064 0.0
H311 H 0.03331 0.3358 0.80418 0.0
H312 H 0.10169 0.40516 0.88677 0.0
H313 H 0.13037 0.45273 0.84365 0.0
C314 C 0.03527 0.31412 0.93559 0.0
C315 C 0.03012 0.28101 0.92494 0.0
C316 C 0.04535 0.34152 0.91077 0.0
C317 C 0.0506 0.33643 0.87479 0.0
C318 C 0.04416 0.30286 0.86404 0.0
C319 C 0.03399 0.27552 0.88877 0.0
C320 C 0.07122 0.38857 0.7882 0.0
C321 C 0.09917 0.42177 0.7986 0.0
C322 C 0.05441 0.36124 0.81315 0.0
C323 C 0.06526 0.36648 0.84901 0.0
C324 C 0.09226 0.40019 0.85955 0.0
C325 C 0.10894 0.42748 0.83469 0.0
H326 H 0.78543 0.7624 0.88737 0.0
H327 H 0.7105 0.75712 0.96531 0.0
H328 H 0.73802 0.73336 0.84394 0.0
H329 H 0.66337 0.73055 0.92146 0.0
H330 H 0.57842 0.66905 0.84275 0.0
H331 H 0.62485 0.6844 0.88673 0.0
H332 H 0.70358 0.745 0.8068 0.0
H333 H 0.65704 0.72725 0.76256 0.0
C334 C 0.75869 0.7549 0.89518 0.0
C335 C 0.75161 0.76202 0.92965 0.0
C336 C 0.73147 0.73857 0.87016 0.0
C337 C 0.6966 0.72988 0.87868 0.0
C338 C 0.68954 0.73613 0.91373 0.0
C339 C 0.71664 0.75161 0.939 0.0
C340 C 0.60575 0.68516 0.83458 0.0
C341 C 0.61417 0.69703 0.7993 0.0
C342 C 0.63247 0.69433 0.8599 0.0
C343 C 0.66829 0.71649 0.85079 0.0
C344 C 0.67656 0.72745 0.81503 0.0
C345 C 0.64983 0.71747 0.78954 0.0
H346 H 0.33581 0.90384 0.84808 0.0
H347 H 0.33586 0.97292 0.76549 0.0
H348 H 0.31797 0.93312 0.89134 0.0
H349 H 0.31899 0.00319 0.80923 0.0
H350 H 0.3034 0.00248 0.96861 0.0
H351 H 0.3332 0.9851 0.92487 0.0
H352 H 0.26692 0.98983 0.84191 0.0
H353 H 0.23813 0.00823 0.88525 0.0
C354 C 0.33263 0.92575 0.83924 0.0
C355 C 0.33696 0.93582 0.80323 0.0
C356 C 0.32263 0.94278 0.8642 0.0
C357 C 0.31687 0.9705 0.85386 0.0
C358 C 0.32265 0.98157 0.81805 0.0
C359 C 0.33252 0.96437 0.79299 0.0
C360 C 0.29562 1.00033 0.94094 0.0
C361 C 0.26821 0.00649 0.93049 0.0
C362 C 0.31253 0.99015 0.91587 0.0
C363 C 0.30229 0.98572 0.87983 0.0
C364 C 0.27588 0.99335 0.86927 0.0
C365 C 0.25914 0.00369 0.89425 0.0
H366 H 0.37544 0.08715 0.30085 0.0
H367 H 0.45311 0.10034 0.22231 0.0
H368 H 0.32889 0.05934 0.25654 0.0
H369 H 0.40646 0.07033 0.17831 0.0
H370 H 0.32298 0.06074 0.098 0.0
H371 H 0.36977 0.08022 0.14221 0.0
H372 H 0.29305 0.01249 0.22062 0.0
H373 H 0.24614 0.99513 0.17675 0.0
C374 C 0.3824 0.08321 0.27428 0.0
C375 C 0.4179 0.09612 0.26497 0.0
C376 C 0.35564 0.06702 0.24875 0.0
C377 C 0.36364 0.06263 0.21343 0.0
C378 C 0.39915 0.07399 0.20481 0.0
C379 C 0.42596 0.09091 0.23014 0.0
C380 C 0.31628 0.04975 0.1246 0.0
C381 C 0.28093 0.02666 0.13402 0.0
C382 C 0.34317 0.06075 0.15006 0.0
C383 C 0.33545 0.04828 0.18542 0.0
C384 C 0.30013 0.02356 0.19411 0.0
C385 C 0.27318 0.01326 0.16885 0.0
H386 H 0.00289 0.23671 0.1772 0.0
H387 H 1.00019 0.30306 0.09315 0.0
H388 H 0.98383 0.26562 0.21973 0.0
H389 H 0.98201 0.33287 0.13609 0.0
H390 H 0.96741 0.33589 0.29494 0.0
H391 H 0.99782 0.31837 0.25202 0.0
H392 H 0.92913 0.31766 0.16862 0.0
H393 H 0.89961 0.33605 0.21109 0.0
C394 C 0.99882 0.25793 0.16788 0.0
C395 C 0.00275 0.26735 0.13168 0.0
C396 C 0.98812 0.27474 0.1924 0.0
C397 C 0.98118 0.30151 0.18139 0.0
C398 C 0.98657 0.31197 0.1454 0.0
C399 C 0.99719 0.29503 0.1208 0.0
C400 C 0.95918 0.33247 0.26733 0.0
C401 C 0.93094 0.33714 0.2565 0.0
C402 C 0.97646 0.32223 0.24275 0.0
C403 C 0.96581 0.31636 0.20684 0.0
C404 C 0.93842 0.32235 0.19588 0.0
C405 C 0.92126 0.33267 0.22038 0.0
H406 H 0.69645 0.58431 0.214 0.0
H407 H 0.69559 0.65301 0.29613 0.0
H408 H 0.71439 0.63149 0.1706 0.0
H409 H 0.71253 0.70018 0.25225 0.0
H410 H 0.7939 0.78644 0.17678 0.0
H411 H 0.7648 0.73906 0.22001 0.0
H412 H 0.69955 0.66838 0.13658 0.0
H413 H 0.72967 0.71575 0.09297 0.0
C414 C 0.69945 0.60932 0.22269 0.0
C415 C 0.69489 0.61497 0.25864 0.0
C416 C 0.70951 0.63639 0.19765 0.0
C417 C 0.71512 0.66982 0.20783 0.0
C418 C 0.70903 0.67497 0.24355 0.0
C419 C 0.6991 0.64787 0.26869 0.0
C420 C 0.77304 0.76093 0.16765 0.0
C421 C 0.76436 0.75481 0.13133 0.0
C422 C 0.75612 0.73373 0.19257 0.0
C423 C 0.7299 0.69971 0.18186 0.0
C424 C 0.72005 0.69406 0.14571 0.0
C425 C 0.73715 0.72128 0.12071 0.0
H426 H 0.11724 0.46291 0.54496 0.0
H427 H 0.04711 0.39853 0.62912 0.0
H428 H 0.06944 0.43429 0.50215 0.0
H429 H 0.99926 0.36899 0.58588 0.0
H430 H 0.91529 0.36779 0.50933 0.0
H431 H 0.96268 0.38516 0.55237 0.0
H432 H 0.03001 0.38159 0.47021 0.0
H433 H 0.98263 0.36511 0.42671 0.0
C434 C 0.09174 0.44216 0.55425 0.0
C435 C 0.08592 0.43325 0.59055 0.0
C436 C 0.06432 0.42551 0.52957 0.0
C437 C 0.03036 0.39941 0.54051 0.0
C438 C 0.02494 0.38938 0.57661 0.0
C439 C 0.05241 0.40615 0.60138 0.0
C440 C 0.94005 0.37031 0.50044 0.0
C441 C 0.94528 0.36538 0.46447 0.0
C442 C 0.96722 0.38003 0.52527 0.0
C443 C 1.0003 0.38496 0.51481 0.0
C444 C 0.00504 0.37857 0.47908 0.0
C445 C 0.97783 0.36893 0.45417 0.0
H446 H 0.70232 0.60202 0.50621 0.0
H447 H 0.63456 0.61131 0.42849 0.0
H448 H 0.68515 0.63152 0.55018 0.0
H449 H 0.61499 0.63823 0.47288 0.0
H450 H 0.59315 0.69976 0.55286 0.0
H451 H 0.62338 0.68395 0.50844 0.0
H452 H 0.63987 0.6211 0.58737 0.0
H453 H 0.61209 0.6394 0.63204 0.0
C454 C 0.68371 0.61047 0.4986 0.0
C455 C 0.66972 0.60439 0.46401 0.0
C456 C 0.67349 0.62706 0.52392 0.0
C457 C 0.64813 0.637 0.51562 0.0
C458 C 0.63499 0.63171 0.48048 0.0
C459 C 0.64603 0.61602 0.45489 0.0
C460 C 0.60388 0.68308 0.5607 0.0
C461 C 0.60028 0.67076 0.59583 0.0
C462 C 0.62091 0.67362 0.53514 0.0
C463 C 0.63383 0.65068 0.54381 0.0
C464 C 0.631 0.63926 0.57944 0.0
C465 C 0.61483 0.64957 0.6052 0.0
H466 H 0.3608 0.98532 0.63174 0.0
H467 H 0.3636 0.91793 0.54928 0.0
H468 H 0.37726 0.03266 0.58819 0.0
H469 H 0.38109 0.96532 0.50619 0.0
H470 H 0.39477 0.0494 0.42899 0.0
H471 H 0.36538 0.00159 0.4723 0.0
H472 H 0.42918 0.07258 0.55621 0.0
H473 H 0.45751 0.12036 0.5133 0.0
C474 C 0.36468 0.98052 0.6043 0.0
C475 C 0.3611 0.94792 0.59406 0.0
C476 C 0.37433 0.00772 0.57934 0.0
C477 C 0.38078 0.003 0.54362 0.0
C478 C 0.3759 0.96989 0.53326 0.0
C479 C 0.36611 0.9427 0.55812 0.0
C480 C 0.40208 0.05489 0.45678 0.0
C481 C 0.42865 0.08864 0.46762 0.0
C482 C 0.38541 0.02742 0.48161 0.0
C483 C 0.39508 0.03304 0.51781 0.0
C484 C 0.42065 0.06725 0.52873 0.0
C485 C 0.43713 0.09469 0.50399 0.0
loop_
_geom_bond_atom_site_label_1
_geom_bond_atom_site_label_2
_geom_bond_distance
_geom_bond_site_symmetry_2
_ccdc_geom_bond_type
O0 Cd1 2.223 . S
O0 C8 1.315 . S
Cd1 O0 2.223 . S
Cd1 O4 2.297 . S
Cd1 O5 2.439 . S
Cd1 O11 2.240 1_456 S
Cd2 O3 2.240 . S
Cd2 O10 2.223 1_455 S
Cd2 O12 2.297 1_455 S
Cd2 O13 2.439 1_455 S
O3 Cd2 2.240 . S
O3 C8 1.279 1_554 S
O4 Cd1 2.297 . S
O4 C6 1.247 . S
O5 Cd1 2.439 . S
O5 C6 1.208 . S
C6 O4 1.247 . S
C6 O5 1.208 . S
C7 O12 1.247 . S
C7 O13 1.208 . S
C8 O0 1.315 . S
C8 O3 1.279 1_556 S
C9 O10 1.315 . S
C9 O11 1.279 . S
O10 Cd2 2.223 1_655 S
O10 C9 1.315 . S
O11 Cd1 2.240 1_654 S
O11 C9 1.279 . S
O12 Cd2 2.297 1_655 S
O12 C7 1.247 . S
O13 Cd2 2.439 1_655 S
O13 C7 1.208 . S
O14 Cd15 2.223 . S
O14 C22 1.315 . S
Cd15 O14 2.223 . S
Cd15 O18 2.297 . S
Cd15 O19 2.439 . S
Cd15 O25 2.240 . S
Cd16 O17 2.240 1_556 S
Cd16 O24 2.223 . S
Cd16 O26 2.297 . S
Cd16 O27 2.439 . S
O17 Cd16 2.240 1_554 S
O17 C22 1.279 . S
O18 Cd15 2.297 . S
O18 C20 1.247 . S
O19 Cd15 2.439 . S
O19 C20 1.208 . S
C20 O18 1.247 . S
C20 O19 1.208 . S
C21 O26 1.247 . S
C21 O27 1.208 . S
C22 O14 1.315 . S
C22 O17 1.279 . S
C23 O24 1.315 . S
C23 O25 1.279 1_556 S
O24 Cd16 2.223 . S
O24 C23 1.315 . S
O25 Cd15 2.240 . S
O25 C23 1.279 1_554 S
O26 Cd16 2.297 . S
O26 C21 1.247 . S
O27 Cd16 2.439 . S
O27 C21 1.208 . S
O28 Cd29 2.223 1_565 S
O28 C36 1.315 . S
Cd29 O28 2.223 1_545 S
Cd29 O32 2.297 1_545 S
Cd29 O33 2.439 1_545 S
Cd29 O39 2.240 1_556 S
Cd30 O31 2.240 1_545 S
Cd30 O38 2.223 . S
Cd30 O40 2.297 . S
Cd30 O41 2.439 . S
O31 Cd30 2.240 1_565 S
O31 C36 1.279 1_554 S
O32 Cd29 2.297 1_565 S
O32 C34 1.247 . S
O33 Cd29 2.439 1_565 S
O33 C34 1.208 . S
C34 O32 1.247 . S
C34 O33 1.208 . S
C35 O40 1.247 . S
C35 O41 1.208 . S
C36 O28 1.315 . S
C36 O31 1.279 1_556 S
C37 O38 1.315 . S
C37 O39 1.279 . S
O38 Cd30 2.223 . S
O38 C37 1.315 . S
O39 Cd29 2.240 1_554 S
O39 C37 1.279 . S
O40 Cd30 2.297 . S
O40 C35 1.247 . S
O41 Cd30 2.439 . S
O41 C35 1.208 . S
O42 Cd43 2.223 . S
O42 C50 1.315 . S
Cd43 O42 2.223 . S
Cd43 O46 2.297 . S
Cd43 O47 2.439 . S
Cd43 O53 2.240 . S
Cd44 O45 2.240 . S
Cd44 O52 2.223 . S
Cd44 O54 2.297 . S
Cd44 O55 2.439 . S
O45 Cd44 2.240 . S
O45 C50 1.279 . S
O46 Cd43 2.297 . S
O46 C48 1.247 . S
O47 Cd43 2.439 . S
O47 C48 1.208 . S
C48 O46 1.247 . S
C48 O47 1.208 . S
C49 O54 1.247 . S
C49 O55 1.208 . S
C50 O42 1.315 . S
C50 O45 1.279 . S
C51 O52 1.315 . S
C51 O53 1.279 . S
O52 Cd44 2.223 . S
O52 C51 1.315 . S
O53 Cd43 2.240 . S
O53 C51 1.279 . S
O54 Cd44 2.297 . S
O54 C49 1.247 . S
O55 Cd44 2.439 . S
O55 C49 1.208 . S
O56 Cd57 2.223 . S
O56 C64 1.315 . S
Cd57 O56 2.223 . S
Cd57 O60 2.297 . S
Cd57 O61 2.439 . S
Cd57 O67 2.240 . S
Cd58 O59 2.240 . S
Cd58 O66 2.223 . S
Cd58 O68 2.297 . S
Cd58 O69 2.439 . S
O59 Cd58 2.240 . S
O59 C64 1.279 . S
O60 Cd57 2.297 . S
O60 C62 1.247 . S
O61 Cd57 2.439 . S
O61 C62 1.208 . S
C62 O60 1.247 . S
C62 O61 1.208 . S
C63 O68 1.247 . S
C63 O69 1.208 . S
C64 O56 1.315 . S
C64 O59 1.279 . S
C65 O66 1.315 . S
C65 O67 1.279 . S
O66 Cd58 2.223 . S
O66 C65 1.315 . S
O67 Cd57 2.240 . S
O67 C65 1.279 . S
O68 Cd58 2.297 . S
O68 C63 1.247 . S
O69 Cd58 2.439 . S
O69 C63 1.208 . S
O70 Cd71 2.223 . S
O70 C78 1.315 . S
Cd71 O70 2.223 . S
Cd71 O74 2.297 . S
Cd71 O75 2.439 . S
Cd71 O81 2.240 . S
Cd72 O73 2.240 . S
Cd72 O80 2.223 . S
Cd72 O82 2.297 . S
Cd72 O83 2.439 . S
O73 Cd72 2.240 . S
O73 C78 1.279 . S
O74 Cd71 2.297 . S
O74 C76 1.247 . S
O75 Cd71 2.439 . S
O75 C76 1.208 . S
C76 O74 1.247 . S
C76 O75 1.208 . S
C77 O82 1.247 . S
C77 O83 1.208 . S
C78 O70 1.315 . S
C78 O73 1.279 . S
C79 O80 1.315 . S
C79 O81 1.279 . S
O80 Cd72 2.223 . S
O80 C79 1.315 . S
O81 Cd71 2.240 . S
O81 C79 1.279 . S
O82 Cd72 2.297 . S
O82 C77 1.247 . S
O83 Cd72 2.439 . S
O83 C77 1.208 . S
O84 Cd85 2.223 . S
O84 C92 1.315 . S
Cd85 O84 2.223 . S
Cd85 O88 2.297 . S
Cd85 O89 2.439 . S
Cd85 O95 2.240 . S
Cd86 O87 2.240 . S
Cd86 O94 2.223 . S
Cd86 O96 2.297 . S
Cd86 O97 2.439 . S
O87 Cd86 2.240 . S
O87 C92 1.279 . S
O88 Cd85 2.297 . S
O88 C90 1.247 . S
O89 Cd85 2.439 . S
O89 C90 1.208 . S
C90 O88 1.247 . S
C90 O89 1.208 . S
C91 O96 1.247 . S
C91 O97 1.208 . S
C92 O84 1.315 . S
C92 O87 1.279 . S
C93 O94 1.315 . S
C93 O95 1.279 . S
O94 Cd86 2.223 . S
O94 C93 1.315 . S
O95 Cd85 2.240 . S
O95 C93 1.279 . S
O96 Cd86 2.297 . S
O96 C91 1.247 . S
O97 Cd86 2.439 . S
O97 C91 1.208 . S
O98 Cd99 2.223 . S
O98 C106 1.315 . S
Cd99 O98 2.223 . S
Cd99 O102 2.297 . S
Cd99 O103 2.439 . S
Cd99 O109 2.240 . S
Cd100 O101 2.240 . S
Cd100 O108 2.223 . S
Cd100 O110 2.297 . S
Cd100 O111 2.439 . S
O101 Cd100 2.240 . S
O101 C106 1.279 . S
O102 Cd99 2.297 . S
O102 C104 1.247 . S
O103 Cd99 2.439 . S
O103 C104 1.208 . S
C104 O102 1.247 . S
C104 O103 1.208 . S
C105 O110 1.247 . S
C105 O111 1.208 . S
C106 O98 1.315 . S
C106 O101 1.279 . S
C107 O108 1.315 . S
C107 O109 1.279 . S
O108 Cd100 2.223 . S
O108 C107 1.315 . S
O109 Cd99 2.240 . S
O109 C107 1.279 . S
O110 Cd100 2.297 . S
O110 C105 1.247 . S
O111 Cd100 2.439 . S
O111 C105 1.208 . S
O112 Cd113 2.223 . S
O112 C120 1.315 . S
Cd113 O112 2.223 . S
Cd113 O116 2.297 . S
Cd113 O117 2.439 . S
Cd113 O123 2.240 . S
Cd114 O115 2.240 . S
Cd114 O122 2.223 . S
Cd114 O124 2.297 . S
Cd114 O125 2.439 . S
O115 Cd114 2.240 . S
O115 C120 1.279 . S
O116 Cd113 2.297 . S
O116 C118 1.247 . S
O117 Cd113 2.439 . S
O117 C118 1.208 . S
C118 O116 1.247 . S
C118 O117 1.208 . S
C119 O124 1.247 . S
C119 O125 1.208 . S
C120 O112 1.315 . S
C120 O115 1.279 . S
C121 O122 1.315 . S
C121 O123 1.279 . S
O122 Cd114 2.223 . S
O122 C121 1.315 . S
O123 Cd113 2.240 . S
O123 C121 1.279 . S
O124 Cd114 2.297 . S
O124 C119 1.247 . S
O125 Cd114 2.439 . S
O125 C119 1.208 . S
H126 C134 0.950 . S
H127 C139 0.950 . S
H128 C136 0.950 . S
H129 C138 0.950 . S
H130 C140 0.950 . S
H131 C142 0.950 . S
H132 C144 0.950 . S
H133 C145 0.950 . S
C134 H126 0.950 . S
C134 C135 1.386 . S
C134 C136 1.391 . S
C135 C134 1.386 . S
C135 C139 1.393 1_554 S
C136 H128 0.950 . S
C136 C134 1.391 . S
C136 C137 1.400 . S
C137 C136 1.400 . S
C137 C138 1.398 1_554 S
C137 C143 1.491 . S
C138 H129 0.950 . S
C138 C137 1.398 1_556 S
C138 C139 1.391 . S
C139 H127 0.950 . S
C139 C135 1.393 1_556 S
C139 C138 1.391 . S
C140 H130 0.950 . S
C140 C141 1.386 1_556 S
C140 C142 1.391 . S
C141 C140 1.386 1_554 S
C141 C145 1.393 . S
C142 H131 0.950 . S
C142 C140 1.391 . S
C142 C143 1.400 1_556 S
C143 C137 1.491 . S
C143 C142 1.400 1_554 S
C143 C144 1.398 . S
C144 H132 0.950 . S
C144 C143 1.398 . S
C144 C145 1.391 . S
C145 H133 0.950 . S
C145 C141 1.393 . S
C145 C144 1.391 . S
H146 C154 0.950 . S
H147 C159 0.950 . S
H148 C156 0.950 . S
H149 C158 0.950 . S
H150 C160 0.950 . S
H151 C162 0.950 . S
H152 C164 0.950 . S
H153 C165 0.950 . S
C154 H146 0.950 . S
C154 C155 1.386 1_556 S
C154 C156 1.391 . S
C155 C154 1.386 1_554 S
C155 C159 1.393 . S
C156 H148 0.950 . S
C156 C154 1.391 . S
C156 C157 1.400 1_556 S
C157 C156 1.400 1_554 S
C157 C158 1.398 . S
C157 C163 1.491 1_565 S
C158 H149 0.950 . S
C158 C157 1.398 . S
C158 C159 1.391 . S
C159 H147 0.950 . S
C159 C155 1.393 . S
C159 C158 1.391 . S
C160 H150 0.950 . S
C160 C161 1.386 . S
C160 C162 1.391 . S
C161 C160 1.386 . S
C161 C165 1.393 1_554 S
C162 H151 0.950 . S
C162 C160 1.391 . S
C162 C163 1.400 . S
C163 C157 1.491 1_545 S
C163 C162 1.400 . S
C163 C164 1.398 1_554 S
C164 H152 0.950 . S
C164 C163 1.398 1_556 S
C164 C165 1.391 . S
C165 H153 0.950 . S
C165 C161 1.393 1_556 S
C165 C164 1.391 . S
H166 C174 0.950 . S
H167 C179 0.950 . S
H168 C176 0.950 . S
H169 C178 0.950 . S
H170 C180 0.948 1_556 S
H171 C182 0.950 . S
H172 C184 0.950 . S
H173 C185 0.950 . S
C174 H166 0.950 . S
C174 C175 1.386 . S
C174 C176 1.391 . S
C175 C174 1.386 . S
C175 C179 1.393 . S
C176 H168 0.950 . S
C176 C174 1.391 . S
C176 C177 1.400 . S
C177 C176 1.400 . S
C177 C178 1.398 . S
C177 C183 1.491 1_655 S
C178 H169 0.950 . S
C178 C177 1.398 . S
C178 C179 1.391 . S
C179 H167 0.950 . S
C179 C175 1.393 . S
C179 C178 1.391 . S
C180 H170 0.948 1_554 S
C180 C181 1.386 . S
C180 C182 1.391 . S
C181 C180 1.386 . S
C181 C185 1.393 . S
C182 H171 0.950 . S
C182 C180 1.391 . S
C182 C183 1.400 . S
C183 C177 1.491 1_455 S
C183 C182 1.400 . S
C183 C184 1.398 . S
C184 H172 0.950 . S
C184 C183 1.398 . S
C184 C185 1.391 . S
C185 H173 0.950 . S
C185 C181 1.393 . S
C185 C184 1.391 . S
H186 C194 0.950 . S
H187 C199 0.950 . S
H188 C196 0.950 . S
H189 C198 0.950 . S
H190 C200 0.950 . S
H191 C202 0.950 . S
H192 C204 0.950 . S
H193 C205 0.950 . S
C194 H186 0.950 . S
C194 C195 1.386 . S
C194 C196 1.391 . S
C195 C194 1.386 . S
C195 C199 1.393 . S
C196 H188 0.950 . S
C196 C194 1.391 . S
C196 C197 1.400 . S
C197 C196 1.400 . S
C197 C198 1.398 . S
C197 C203 1.491 . S
C198 H189 0.950 . S
C198 C197 1.398 . S
C198 C199 1.391 . S
C199 H187 0.950 . S
C199 C195 1.393 . S
C199 C198 1.391 . S
C200 H190 0.950 . S
C200 C201 1.386 . S
C200 C202 1.391 . S
C201 C200 1.386 . S
C201 C205 1.393 . S
C202 H191 0.950 . S
C202 C200 1.391 . S
C202 C203 1.400 . S
C203 C197 1.491 . S
C203 C202 1.400 . S
C203 C204 1.398 . S
C204 H192 0.950 . S
C204 C203 1.398 . S
C204 C205 1.391 . S
C205 H193 0.950 . S
C205 C201 1.393 . S
C205 C204 1.391 . S
H206 C214 0.950 . S
H207 C219 0.950 . S
H208 C216 0.950 . S
H209 C218 0.950 . S
H210 C220 0.950 . S
H211 C222 0.950 . S
H212 C224 0.950 . S
H213 C225 0.950 . S
C214 H206 0.950 . S
C214 C215 1.386 . S
C214 C216 1.391 . S
C215 C214 1.386 . S
C215 C219 1.393 . S
C216 H208 0.950 . S
C216 C214 1.391 . S
C216 C217 1.400 . S
C217 C216 1.400 . S
C217 C218 1.398 . S
C217 C223 1.491 . S
C218 H209 0.950 . S
C218 C217 1.398 . S
C218 C219 1.391 . S
C219 H207 0.950 . S
C219 C215 1.393 . S
C219 C218 1.391 . S
C220 H210 0.950 . S
C220 C221 1.386 . S
C220 C222 1.391 . S
C221 C220 1.386 . S
C221 C225 1.393 . S
C222 H211 0.950 . S
C222 C220 1.391 . S
C222 C223 1.400 . S
C223 C217 1.491 . S
C223 C222 1.400 . S
C223 C224 1.398 . S
C224 H212 0.950 . S
C224 C223 1.398 . S
C224 C225 1.391 . S
C225 H213 0.950 . S
C225 C221 1.393 . S
C225 C224 1.391 . S
H226 C234 0.950 . S
H227 C239 0.950 . S
H228 C236 0.950 . S
H229 C238 0.950 . S
H230 C240 0.950 . S
H231 C242 0.950 . S
H232 C244 0.950 . S
H233 C245 0.950 . S
C234 H226 0.950 . S
C234 C235 1.386 . S
C234 C236 1.391 . S
C235 C234 1.386 . S
C235 C239 1.393 . S
C236 H228 0.950 . S
C236 C234 1.391 . S
C236 C237 1.400 . S
C237 C236 1.400 . S
C237 C238 1.398 . S
C237 C243 1.491 . S
C238 H229 0.950 . S
C238 C237 1.398 . S
C238 C239 1.391 . S
C239 H227 0.950 . S
C239 C235 1.393 . S
C239 C238 1.391 . S
C240 H230 0.950 . S
C240 C241 1.386 . S
C240 C242 1.391 . S
C241 C240 1.386 . S
C241 C245 1.393 . S
C242 H231 0.950 . S
C242 C240 1.391 . S
C242 C243 1.400 . S
C243 C237 1.491 . S
C243 C242 1.400 . S
C243 C244 1.398 . S
C244 H232 0.950 . S
C244 C243 1.398 . S
C244 C245 1.391 . S
C245 H233 0.950 . S
C245 C241 1.393 . S
C245 C244 1.391 . S
H246 C254 0.950 . S
H247 C259 0.950 . S
H248 C256 0.950 . S
H249 C258 0.950 . S
H250 C260 0.950 . S
H251 C262 0.950 . S
H252 C264 0.950 . S
H253 C265 0.950 . S
C254 H246 0.950 . S
C254 C255 1.386 . S
C254 C256 1.391 . S
C255 C254 1.386 . S
C255 C259 1.393 . S
C256 H248 0.950 . S
C256 C254 1.391 . S
C256 C257 1.400 . S
C257 C256 1.400 . S
C257 C258 1.398 . S
C257 C263 1.491 . S
C258 H249 0.950 . S
C258 C257 1.398 . S
C258 C259 1.391 . S
C259 H247 0.950 . S
C259 C255 1.393 . S
C259 C258 1.391 . S
C260 H250 0.950 . S
C260 C261 1.386 . S
C260 C262 1.391 . S
C261 C260 1.386 . S
C261 C265 1.393 . S
C262 H251 0.950 . S
C262 C260 1.391 . S
C262 C263 1.400 . S
C263 C257 1.491 . S
C263 C262 1.400 . S
C263 C264 1.398 . S
C264 H252 0.950 . S
C264 C263 1.398 . S
C264 C265 1.391 . S
C265 H253 0.950 . S
C265 C261 1.393 . S
C265 C264 1.391 . S
H266 C274 0.950 . S
H267 C279 0.950 . S
H268 C276 0.950 . S
H269 C278 0.950 . S
H270 C280 0.950 . S
H271 C282 0.950 . S
H272 C284 0.950 . S
H273 C285 0.950 . S
C274 H266 0.950 . S
C274 C275 1.386 . S
C274 C276 1.391 . S
C275 C274 1.386 . S
C275 C279 1.393 . S
C276 H268 0.950 . S
C276 C274 1.391 . S
C276 C277 1.400 . S
C277 C276 1.400 . S
C277 C278 1.398 . S
C277 C283 1.491 . S
C278 H269 0.950 . S
C278 C277 1.398 . S
C278 C279 1.391 . S
C279 H267 0.950 . S
C279 C275 1.393 . S
C279 C278 1.391 . S
C280 H270 0.950 . S
C280 C281 1.386 . S
C280 C282 1.391 . S
C281 C280 1.386 . S
C281 C285 1.393 . S
C282 H271 0.950 . S
C282 C280 1.391 . S
C282 C283 1.400 . S
C283 C277 1.491 . S
C283 C282 1.400 . S
C283 C284 1.398 . S
C284 H272 0.950 . S
C284 C283 1.398 . S
C284 C285 1.391 . S
C285 H273 0.950 . S
C285 C281 1.393 . S
C285 C284 1.391 . S
H286 C294 0.950 . S
H287 C299 0.950 . S
H288 C296 0.950 . S
H289 C298 0.950 . S
H290 C300 0.950 . S
H291 C302 0.950 . S
H292 C304 0.950 . S
H293 C305 0.950 . S
C294 H286 0.950 . S
C294 C295 1.386 . S
C294 C296 1.391 . S
C295 C294 1.386 . S
C295 C299 1.393 . S
C296 H288 0.950 . S
C296 C294 1.391 . S
C296 C297 1.400 . S
C297 C296 1.400 . S
C297 C298 1.398 . S
C297 C303 1.491 . S
C298 H289 0.950 . S
C298 C297 1.398 . S
C298 C299 1.391 . S
C299 H287 0.950 . S
C299 C295 1.393 . S
C299 C298 1.391 . S
C300 H290 0.950 . S
C300 C301 1.386 . S
C300 C302 1.391 . S
C301 C300 1.386 . S
C301 C305 1.393 . S
C302 H291 0.950 . S
C302 C300 1.391 . S
C302 C303 1.400 . S
C303 C297 1.491 . S
C303 C302 1.400 . S
C303 C304 1.398 . S
C304 H292 0.950 . S
C304 C303 1.398 . S
C304 C305 1.391 . S
C305 H293 0.950 . S
C305 C301 1.393 . S
C305 C304 1.391 . S
H306 C314 0.950 . S
H307 C319 0.950 . S
H308 C316 0.950 . S
H309 C318 0.950 . S
H310 C320 0.950 . S
H311 C322 0.950 . S
H312 C324 0.950 . S
H313 C325 0.950 . S
C314 H306 0.950 . S
C314 C315 1.386 . S
C314 C316 1.391 . S
C315 C314 1.386 . S
C315 C319 1.393 . S
C316 H308 0.950 . S
C316 C314 1.391 . S
C316 C317 1.400 . S
C317 C316 1.400 . S
C317 C318 1.398 . S
C317 C323 1.491 . S
C318 H309 0.950 . S
C318 C317 1.398 . S
C318 C319 1.391 . S
C319 H307 0.950 . S
C319 C315 1.393 . S
C319 C318 1.391 . S
C320 H310 0.950 . S
C320 C321 1.386 . S
C320 C322 1.391 . S
C321 C320 1.386 . S
C321 C325 1.393 . S
C322 H311 0.950 . S
C322 C320 1.391 . S
C322 C323 1.400 . S
C323 C317 1.491 . S
C323 C322 1.400 . S
C323 C324 1.398 . S
C324 H312 0.950 . S
C324 C323 1.398 . S
C324 C325 1.391 . S
C325 H313 0.950 . S
C325 C321 1.393 . S
C325 C324 1.391 . S
H326 C334 0.950 . S
H327 C339 0.950 . S
H328 C336 0.950 . S
H329 C338 0.950 . S
H330 C340 0.950 . S
H331 C342 0.950 . S
H332 C344 0.950 . S
H333 C345 0.950 . S
C334 H326 0.950 . S
C334 C335 1.386 . S
C334 C336 1.391 . S
C335 C334 1.386 . S
C335 C339 1.393 . S
C336 H328 0.950 . S
C336 C334 1.391 . S
C336 C337 1.400 . S
C337 C336 1.400 . S
C337 C338 1.398 . S
C337 C343 1.491 . S
C338 H329 0.950 . S
C338 C337 1.398 . S
C338 C339 1.391 . S
C339 H327 0.950 . S
C339 C335 1.393 . S
C339 C338 1.391 . S
C340 H330 0.950 . S
C340 C341 1.386 . S
C340 C342 1.391 . S
C341 C340 1.386 . S
C341 C345 1.393 . S
C342 H331 0.950 . S
C342 C340 1.391 . S
C342 C343 1.400 . S
C343 C337 1.491 . S
C343 C342 1.400 . S
C343 C344 1.398 . S
C344 H332 0.950 . S
C344 C343 1.398 . S
C344 C345 1.391 . S
C345 H333 0.950 . S
C345 C341 1.393 . S
C345 C344 1.391 . S
H346 C354 0.950 . S
H347 C359 0.950 . S
H348 C356 0.950 . S
H349 C358 0.950 . S
H350 C360 0.950 1_545 S
H351 C362 0.950 . S
H352 C364 0.950 . S
H353 C365 0.950 . S
C354 H346 0.950 . S
C354 C355 1.386 . S
C354 C356 1.391 . S
C355 C354 1.386 . S
C355 C359 1.393 . S
C356 H348 0.950 . S
C356 C354 1.391 . S
C356 C357 1.400 . S
C357 C356 1.400 . S
C357 C358 1.398 . S
C357 C363 1.491 . S
C358 H349 0.950 . S
C358 C357 1.398 . S
C358 C359 1.391 . S
C359 H347 0.950 . S
C359 C355 1.393 . S
C359 C358 1.391 . S
C360 H350 0.950 1_565 S
C360 C361 1.386 . S
C360 C362 1.391 . S
C361 C360 1.386 . S
C361 C365 1.393 . S
C362 H351 0.950 . S
C362 C360 1.391 . S
C362 C363 1.400 . S
C363 C357 1.491 . S
C363 C362 1.400 . S
C363 C364 1.398 . S
C364 H352 0.950 . S
C364 C363 1.398 . S
C364 C365 1.391 . S
C365 H353 0.950 . S
C365 C361 1.393 . S
C365 C364 1.391 . S
H366 C374 0.950 . S
H367 C379 0.950 . S
H368 C376 0.950 . S
H369 C378 0.950 . S
H370 C380 0.950 . S
H371 C382 0.950 . S
H372 C384 0.950 . S
H373 C385 0.950 . S
C374 H366 0.950 . S
C374 C375 1.386 . S
C374 C376 1.391 . S
C375 C374 1.386 . S
C375 C379 1.393 . S
C376 H368 0.950 . S
C376 C374 1.391 . S
C376 C377 1.400 . S
C377 C376 1.400 . S
C377 C378 1.398 . S
C377 C383 1.491 . S
C378 H369 0.950 . S
C378 C377 1.398 . S
C378 C379 1.391 . S
C379 H367 0.950 . S
C379 C375 1.393 . S
C379 C378 1.391 . S
C380 H370 0.950 . S
C380 C381 1.386 . S
C380 C382 1.391 . S
C381 C380 1.386 . S
C381 C385 1.393 . S
C382 H371 0.950 . S
C382 C380 1.391 . S
C382 C383 1.400 . S
C383 C377 1.491 . S
C383 C382 1.400 . S
C383 C384 1.398 . S
C384 H372 0.950 . S
C384 C383 1.398 . S
C384 C385 1.391 . S
C385 H373 0.950 . S
C385 C381 1.393 . S
C385 C384 1.391 . S
H386 C394 0.950 . S
H387 C399 0.950 1_455 S
H388 C396 0.950 . S
H389 C398 0.950 . S
H390 C400 0.950 . S
H391 C402 0.950 . S
H392 C404 0.950 . S
H393 C405 0.950 . S
C394 H386 0.950 . S
C394 C395 1.386 . S
C394 C396 1.391 . S
C395 C394 1.386 . S
C395 C399 1.393 . S
C396 H388 0.950 . S
C396 C394 1.391 . S
C396 C397 1.400 . S
C397 C396 1.400 . S
C397 C398 1.398 . S
C397 C403 1.491 . S
C398 H389 0.950 . S
C398 C397 1.398 . S
C398 C399 1.391 . S
C399 H387 0.950 1_655 S
C399 C395 1.393 . S
C399 C398 1.391 . S
C400 H390 0.950 . S
C400 C401 1.386 . S
C400 C402 1.391 . S
C401 C400 1.386 . S
C401 C405 1.393 . S
C402 H391 0.950 . S
C402 C400 1.391 . S
C402 C403 1.400 . S
C403 C397 1.491 . S
C403 C402 1.400 . S
C403 C404 1.398 . S
C404 H392 0.950 . S
C404 C403 1.398 . S
C404 C405 1.391 . S
C405 H393 0.950 . S
C405 C401 1.393 . S
C405 C404 1.391 . S
H406 C414 0.950 . S
H407 C419 0.950 . S
H408 C416 0.950 . S
H409 C418 0.950 . S
H410 C420 0.950 . S
H411 C422 0.950 . S
H412 C424 0.950 . S
H413 C425 0.950 . S
C414 H406 0.950 . S
C414 C415 1.386 . S
C414 C416 1.391 . S
C415 C414 1.386 . S
C415 C419 1.393 . S
C416 H408 0.950 . S
C416 C414 1.391 . S
C416 C417 1.400 . S
C417 C416 1.400 . S
C417 C418 1.398 . S
C417 C423 1.491 . S
C418 H409 0.950 . S
C418 C417 1.398 . S
C418 C419 1.391 . S
C419 H407 0.950 . S
C419 C415 1.393 . S
C419 C418 1.391 . S
C420 H410 0.950 . S
C420 C421 1.386 . S
C420 C422 1.391 . S
C421 C420 1.386 . S
C421 C425 1.393 . S
C422 H411 0.950 . S
C422 C420 1.391 . S
C422 C423 1.400 . S
C423 C417 1.491 . S
C423 C422 1.400 . S
C423 C424 1.398 . S
C424 H412 0.950 . S
C424 C423 1.398 . S
C424 C425 1.391 . S
C425 H413 0.950 . S
C425 C421 1.393 . S
C425 C424 1.391 . S
H426 C434 0.950 . S
H427 C439 0.950 . S
H428 C436 0.950 . S
H429 C438 0.950 1_655 S
H430 C440 0.950 . S
H431 C442 0.950 . S
H432 C444 0.950 . S
H433 C445 0.950 . S
C434 H426 0.950 . S
C434 C435 1.386 . S
C434 C436 1.391 . S
C435 C434 1.386 . S
C435 C439 1.393 . S
C436 H428 0.950 . S
C436 C434 1.391 . S
C436 C437 1.400 . S
C437 C436 1.400 . S
C437 C438 1.398 . S
C437 C443 1.491 . S
C438 H429 0.950 1_455 S
C438 C437 1.398 . S
C438 C439 1.391 . S
C439 H427 0.950 . S
C439 C435 1.393 . S
C439 C438 1.391 . S
C440 H430 0.950 . S
C440 C441 1.386 . S
C440 C442 1.391 . S
C441 C440 1.386 . S
C441 C445 1.393 . S
C442 H431 0.950 . S
C442 C440 1.391 . S
C442 C443 1.400 1_655 S
C443 C437 1.491 . S
C443 C442 1.400 1_455 S
C443 C444 1.398 . S
C444 H432 0.950 . S
C444 C443 1.398 . S
C444 C445 1.391 1_455 S
C445 H433 0.950 . S
C445 C441 1.393 . S
C445 C444 1.391 1_655 S
H446 C454 0.950 . S
H447 C459 0.950 . S
H448 C456 0.950 . S
H449 C458 0.950 . S
H450 C460 0.950 . S
H451 C462 0.950 . S
H452 C464 0.950 . S
H453 C465 0.950 . S
C454 H446 0.950 . S
C454 C455 1.386 . S
C454 C456 1.391 . S
C455 C454 1.386 . S
C455 C459 1.393 . S
C456 H448 0.950 . S
C456 C454 1.391 . S
C456 C457 1.400 . S
C457 C456 1.400 . S
C457 C458 1.398 . S
C457 C463 1.491 . S
C458 H449 0.950 . S
C458 C457 1.398 . S
C458 C459 1.391 . S
C459 H447 0.950 . S
C459 C455 1.393 . S
C459 C458 1.391 . S
C460 H450 0.950 . S
C460 C461 1.386 . S
C460 C462 1.391 . S
C461 C460 1.386 . S
C461 C465 1.393 . S
C462 H451 0.950 . S
C462 C460 1.391 . S
C462 C463 1.400 . S
C463 C457 1.491 . S
C463 C462 1.400 . S
C463 C464 1.398 . S
C464 H452 0.950 . S
C464 C463 1.398 . S
C464 C465 1.391 . S
C465 H453 0.950 . S
C465 C461 1.393 . S
C465 C464 1.391 . S
H466 C474 0.950 1_545 S
H467 C479 0.950 . S
H468 C476 0.950 . S
H469 C478 0.950 . S
H470 C480 0.950 . S
H471 C482 0.950 1_565 S
H472 C484 0.950 . S
H473 C485 0.950 . S
C474 H466 0.950 1_565 S
C474 C475 1.386 . S
C474 C476 1.391 1_565 S
C475 C474 1.386 . S
C475 C479 1.393 . S
C476 H468 0.950 . S
C476 C474 1.391 1_545 S
C476 C477 1.400 . S
C477 C476 1.400 . S
C477 C478 1.398 1_545 S
C477 C483 1.491 . S
C478 H469 0.950 . S
C478 C477 1.398 1_565 S
C478 C479 1.391 . S
C479 H467 0.950 . S
C479 C475 1.393 . S
C479 C478 1.391 . S
C480 H470 0.950 . S
C480 C481 1.386 . S
C480 C482 1.391 . S
C481 C480 1.386 . S
C481 C485 1.393 . S
C482 H471 0.950 1_545 S
C482 C480 1.391 . S
C482 C483 1.400 . S
C483 C477 1.491 . S
C483 C482 1.400 . S
C483 C484 1.398 . S
C484 H472 0.950 . S
C484 C483 1.398 . S
C484 C485 1.391 . S
C485 H473 0.950 . S
C485 C481 1.393 . S
C485 C484 1.391 . S
C135 C37 1.222 . S
C141 C8 1.211 1_554 S
C155 C23 1.224 1_554 S
C161 C9 1.212 . S
C175 C22 1.216 . S
C181 C36 1.214 1_554 S
C195 C78 1.228 . S
C201 C51 1.213 . S
C215 C65 1.229 . S
C221 C50 1.223 . S
C235 C64 1.226 . S
C241 C79 1.212 . S
C255 C92 1.217 . S
C261 C121 1.213 . S
C275 C93 1.230 . S
C281 C107 1.219 . S
C295 C106 1.227 . S
C301 C120 1.213 . S
C315 C6 1.473 . S
C321 C104 1.471 . S
C335 C21 1.488 . S
C341 C119 1.488 . S
C355 C91 1.467 . S
C361 C34 1.467 . S
C375 C63 1.486 . S
C381 C35 1.485 . S
C395 C7 1.467 . S
C401 C77 1.467 . S
C415 C49 1.480 . S
C421 C20 1.481 . S
C435 C105 1.483 . S
C441 C76 1.484 . S
C455 C48 1.488 . S
C461 C118 1.488 . S
C475 C90 1.479 . S
C481 C62 1.477 . S
