# Generated by pormake.
# Topology upa, (4)-cn, num edge types: 1
# Building blocks:
#     Node 0, Type 0, BuildingBlock: CEKHIL_clean_sbu_0, # of connection points: 4
#     Node 1, Type 0, BuildingBlock: CEKHIL_clean_sbu_0, # of connection points: 4
#     Node 2, Type 0, BuildingBlock: CEKHIL_clean_sbu_0, # of connection points: 4
#     Node 3, Type 0, BuildingBlock: CEKHIL_clean_sbu_0, # of connection points: 4
#     Node 4, Type 0, BuildingBlock: CEKHIL_clean_sbu_0, # of connection points: 4
#     Node 5, Type 0, BuildingBlock: CEKHIL_clean_sbu_0, # of connection points: 4
#     Node 6, Type 0, BuildingBlock: CEKHIL_clean_sbu_0, # of connection points: 4
#     Node 7, Type 0, BuildingBlock: CEKHIL_clean_sbu_0, # of connection points: 4
#     Edge 8, Type (0, 0), BuildingBlock: FUNLAD_clean_linker_0, # of connection points: 2
#     Edge 9, Type (0, 0), BuildingBlock: FUNLAD_clean_linker_0, # of connection points: 2
#     Edge 10, Type (0, 0), BuildingBlock: FUNLAD_clean_linker_0, # of connection points: 2
#     Edge 11, Type (0, 0), BuildingBlock: FUNLAD_clean_linker_0, # of connection points: 2
#     Edge 12, Type (0, 0), BuildingBlock: FUNLAD_clean_linker_0, # of connection points: 2
#     Edge 13, Type (0, 0), BuildingBlock: FUNLAD_clean_linker_0, # of connection points: 2
#     Edge 14, Type (0, 0), BuildingBlock: FUNLAD_clean_linker_0, # of connection points: 2
#     Edge 15, Type (0, 0), BuildingBlock: FUNLAD_clean_linker_0, # of connection points: 2
#     Edge 16, Type (0, 0), BuildingBlock: FUNLAD_clean_linker_0, # of connection points: 2
#     Edge 17, Type (0, 0), BuildingBlock: FUNLAD_clean_linker_0, # of connection points: 2
#     Edge 18, Type (0, 0), BuildingBlock: FUNLAD_clean_linker_0, # of connection points: 2
#     Edge 19, Type (0, 0), BuildingBlock: FUNLAD_clean_linker_0, # of connection points: 2
#     Edge 20, Type (0, 0), BuildingBlock: FUNLAD_clean_linker_0, # of connection points: 2
#     Edge 21, Type (0, 0), BuildingBlock: FUNLAD_clean_linker_0, # of connection points: 2
#     Edge 22, Type (0, 0), BuildingBlock: FUNLAD_clean_linker_0, # of connection points: 2
#     Edge 23, Type (0, 0), BuildingBlock: FUNLAD_clean_linker_0, # of connection points: 2
# Relax obj value: 0.235
# Max RMSD: 0.138
# Mean RMSD: 0.138
data_MOF--net-upa--node1-CEKHIL_clean_sbu_0--edge1-FUNLAD_clean_linker_0
_symmetry_space_group_name_H-M    P1
_symmetry_Int_Tables_number       1
_symmetry_cell_setting            triclinic
loop_
_symmetry_equiv_pos_as_xyz
'x, y, z'
_cell_length_a     29.928668
_cell_length_b     29.893794
_cell_length_c     50.217113
_cell_angle_alpha  90.027164
_cell_angle_beta   90.010487
_cell_angle_gamma 89.991235
loop_
_atom_site_label
_atom_site_type_symbol
_atom_site_fract_x
_atom_site_fract_y
_atom_site_fract_z
_atom_type_partial_charge
Co0 Co 0.17832 0.23826 0.33012 0.0
O1 O 0.22983 0.2734 0.31963 0.0
O2 O 0.22927 0.1999 0.3246 0.0
C3 C 0.12729 0.26866 0.3022 0.0
O4 O 0.13287 0.18982 0.3386 0.0
Co5 Co 0.09515 0.28076 0.35706 0.0
O6 O 0.06835 0.22055 0.35257 0.0
C7 C 0.1757 0.26479 0.38937 0.0
C8 C 0.25129 0.23564 0.31801 0.0
C9 C 0.09166 0.18684 0.34565 0.0
O10 O 0.1941 0.24499 0.36932 0.0
O11 O 0.13773 0.28433 0.38783 0.0
O12 O 0.15592 0.23935 0.29365 0.0
O13 O 0.13418 0.28299 0.32621 0.0
Co14 Co 0.26455 0.68483 0.83372 0.0
O15 O 0.22592 0.7328 0.82194 0.0
O16 O 0.29903 0.73853 0.82731 0.0
C17 C 0.23841 0.62996 0.80672 0.0
O18 O 0.31559 0.64331 0.84396 0.0
Co19 Co 0.22654 0.60037 0.86171 0.0
O20 O 0.28753 0.57637 0.8556 0.0
C21 C 0.23775 0.68336 0.89287 0.0
C22 C 0.26168 0.75734 0.8203 0.0
C23 C 0.32046 0.60178 0.85011 0.0
O24 O 0.25573 0.70243 0.87246 0.0
O25 O 0.22118 0.64389 0.892 0.0
O26 O 0.26624 0.65972 0.79779 0.0
O27 O 0.2229 0.6378 0.83032 0.0
Co28 Co 0.82256 0.76923 0.33556 0.0
O29 O 0.77258 0.73473 0.32217 0.0
O30 O 0.77157 0.80761 0.32969 0.0
C31 C 0.87644 0.74215 0.30831 0.0
O32 O 0.86667 0.81689 0.34736 0.0
Co33 Co 0.90374 0.72424 0.3633 0.0
O34 O 0.93032 0.78501 0.36186 0.0
C35 C 0.82058 0.73709 0.39378 0.0
C36 C 0.75071 0.77229 0.32115 0.0
C37 C 0.90722 0.8193 0.35573 0.0
O38 O 0.80351 0.75854 0.37392 0.0
O39 O 0.85872 0.71778 0.39264 0.0
O40 O 0.84847 0.77225 0.29997 0.0
O41 O 0.86724 0.72512 0.33137 0.0
Co42 Co 0.73732 0.31855 0.8375 0.0
O43 O 0.77266 0.26837 0.82507 0.0
O44 O 0.70047 0.2656 0.83434 0.0
C45 C 0.76185 0.37065 0.80806 0.0
O46 O 0.68893 0.36246 0.84863 0.0
Co47 Co 0.78058 0.4043 0.86122 0.0
O48 O 0.72009 0.42992 0.85536 0.0
C49 C 0.77201 0.32398 0.89507 0.0
C50 C 0.73602 0.24506 0.82589 0.0
C51 C 0.68592 0.40496 0.85236 0.0
O52 O 0.75048 0.30372 0.87631 0.0
O53 O 0.78954 0.36274 0.89209 0.0
O54 O 0.73201 0.34134 0.80104 0.0
O55 O 0.77977 0.36383 0.83113 0.0
Co56 Co 0.68144 0.26784 0.1839 0.0
O57 O 0.72954 0.23043 0.19659 0.0
O58 O 0.73599 0.30238 0.18713 0.0
C59 C 0.62866 0.24706 0.2137 0.0
O60 O 0.63916 0.31773 0.17259 0.0
Co61 Co 0.59516 0.2256 0.16024 0.0
O62 O 0.5719 0.28745 0.16353 0.0
C63 C 0.67555 0.23125 0.1266 0.0
C64 C 0.75441 0.26604 0.1962 0.0
C65 C 0.59717 0.32119 0.16731 0.0
O66 O 0.69579 0.25314 0.14521 0.0
O67 O 0.63657 0.21436 0.12961 0.0
O68 O 0.65969 0.27537 0.22021 0.0
O69 O 0.63436 0.22752 0.19092 0.0
Co70 Co 0.23848 0.18415 0.68396 0.0
O71 O 0.27716 0.2328 0.69466 0.0
O72 O 0.20386 0.23789 0.69018 0.0
C73 C 0.26598 0.13054 0.71131 0.0
O74 O 0.18739 0.14179 0.67496 0.0
Co75 Co 0.27602 0.0986 0.65677 0.0
O76 O 0.21582 0.07426 0.66486 0.0
C77 C 0.26359 0.18033 0.62459 0.0
C78 C 0.2413 0.25713 0.69659 0.0
C79 C 0.18281 0.09971 0.67016 0.0
O80 O 0.24593 0.20022 0.64485 0.0
O81 O 0.28039 0.14099 0.62592 0.0
O82 O 0.23825 0.16043 0.72022 0.0
O83 O 0.28057 0.1376 0.68742 0.0
Co84 Co 0.32083 0.73764 0.18514 0.0
O85 O 0.27365 0.77608 0.19803 0.0
O86 O 0.26612 0.70383 0.18972 0.0
C87 C 0.37551 0.75858 0.21368 0.0
O88 O 0.36188 0.68713 0.1732 0.0
Co89 Co 0.40553 0.77911 0.15913 0.0
O90 O 0.42716 0.71646 0.15909 0.0
C91 C 0.32364 0.77107 0.12704 0.0
C92 C 0.24821 0.74086 0.19814 0.0
C93 C 0.40223 0.68317 0.16459 0.0
O94 O 0.3044 0.75104 0.1467 0.0
O95 O 0.36289 0.78783 0.12873 0.0
O96 O 0.34446 0.73091 0.22103 0.0
O97 O 0.36875 0.77775 0.19089 0.0
Co98 Co 0.76118 0.81914 0.68807 0.0
O99 O 0.72176 0.77082 0.69851 0.0
O100 O 0.79513 0.7652 0.69492 0.0
C101 C 0.73335 0.87391 0.71468 0.0
O102 O 0.81296 0.861 0.67955 0.0
Co103 Co 0.72488 0.90397 0.65951 0.0
O104 O 0.78496 0.92811 0.66806 0.0
C105 C 0.73717 0.82134 0.62841 0.0
C106 C 0.75736 0.74619 0.70082 0.0
C107 C 0.81769 0.90292 0.67432 0.0
O108 O 0.75504 0.80236 0.64892 0.0
O109 O 0.71992 0.8605 0.62927 0.0
O110 O 0.76006 0.84367 0.72426 0.0
O111 O 0.71958 0.86627 0.69068 0.0
C112 C 0.03491 0.13289 0.36293 0.0
C113 C 0.07017 0.14248 0.34538 0.0
C114 C 0.01406 0.09111 0.36235 0.0
C115 C 0.02761 0.05855 0.34385 0.0
C116 C 0.06238 0.06833 0.32608 0.0
C117 C 0.08398 0.10971 0.32709 0.0
C118 C 0.00475 0.01484 0.34206 0.0
C119 C 0.99148 0.99219 0.36377 0.0
C120 C 0.96928 0.94819 0.3617 0.0
C121 C 0.98102 0.91396 0.37944 0.0
C122 C 0.96111 0.87183 0.37739 0.0
C123 C 0.92807 0.86379 0.35809 0.0
H124 H 0.9259 0.96645 0.32886 0.0
C125 C 0.9154 0.89851 0.34084 0.0
C126 C 0.93613 0.94026 0.34246 0.0
H127 H 0.89002 0.89317 0.32578 0.0
H128 H 0.02358 0.15762 0.37719 0.0
H129 H 0.9867 0.0847 0.37594 0.0
H130 H 0.07307 0.04378 0.31153 0.0
H131 H 0.1108 0.11643 0.31317 0.0
H132 H 0.00095 0.99981 0.32247 0.0
H133 H 0.99956 0.00481 0.3835 0.0
H134 H 0.00627 0.91957 0.39455 0.0
H135 H 0.9712 0.8457 0.39107 0.0
C136 C 0.37253 0.53729 0.85748 0.0
C137 C 0.36613 0.58274 0.85133 0.0
C138 C 0.41547 0.51922 0.85885 0.0
C139 C 0.45312 0.54614 0.85388 0.0
C140 C 0.4468 0.59163 0.8481 0.0
C141 C 0.40381 0.60974 0.84668 0.0
C142 C 0.49936 0.52826 0.85535 0.0
C143 C 0.50944 0.48499 0.85065 0.0
C144 C 0.55536 0.46587 0.85184 0.0
C145 C 0.56007 0.41912 0.85121 0.0
C146 C 0.60232 0.3993 0.85169 0.0
C147 C 0.64103 0.42582 0.8528 0.0
H148 H 0.59268 0.52854 0.85284 0.0
C149 C 0.63644 0.47261 0.8535 0.0
C150 C 0.59419 0.49246 0.85293 0.0
H151 H 0.66555 0.49411 0.85408 0.0
H152 H 0.34436 0.51555 0.86143 0.0
H153 H 0.41888 0.48439 0.86431 0.0
H154 H 0.47524 0.61321 0.84445 0.0
H155 H 0.40019 0.64493 0.84203 0.0
H156 H 0.5255 0.55213 0.8599 0.0
H157 H 0.48275 0.46197 0.8455 0.0
H158 H 0.53089 0.39772 0.85027 0.0
H159 H 0.60454 0.36315 0.85107 0.0
C160 C 0.53731 0.37327 0.15194 0.0
C161 C 0.5764 0.36594 0.16681 0.0
C162 C 0.51529 0.41438 0.15316 0.0
C163 C 0.53164 0.44875 0.16957 0.0
C164 C 0.57076 0.44153 0.18436 0.0
C165 C 0.59334 0.40067 0.18273 0.0
C166 C 0.50725 0.49153 0.17252 0.0
C167 C 0.48583 0.51107 0.15208 0.0
C168 C 0.46268 0.55438 0.15515 0.0
C169 C 0.46866 0.58753 0.13577 0.0
C170 C 0.44868 0.6294 0.13883 0.0
C171 C 0.4211 0.63819 0.16084 0.0
H172 H 0.42898 0.53745 0.19202 0.0
C173 C 0.41354 0.6044 0.17969 0.0
C174 C 0.43466 0.5629 0.17705 0.0
H175 H 0.39247 0.61055 0.19685 0.0
H176 H 0.5234 0.34701 0.13959 0.0
H177 H 0.48469 0.41865 0.14192 0.0
H178 H 0.58379 0.4675 0.19726 0.0
H179 H 0.6231 0.39572 0.19466 0.0
H180 H 0.50883 0.50851 0.19165 0.0
H181 H 0.48817 0.49682 0.13221 0.0
H182 H 0.48985 0.58144 0.11865 0.0
H183 H 0.45474 0.65494 0.12396 0.0
C184 C 0.1316 0.03348 0.66766 0.0
C185 C 0.13741 0.07996 0.67042 0.0
C186 C 0.08888 0.0147 0.66773 0.0
C187 C 0.05092 0.042 0.67067 0.0
C188 C 0.05667 0.08842 0.67314 0.0
C189 C 0.09942 0.10722 0.6732 0.0
C190 C 0.00486 0.02355 0.67018 0.0
C191 C 0.99476 0.98141 0.67767 0.0
C192 C 0.94882 0.96235 0.677 0.0
C193 C 0.94367 0.91567 0.67829 0.0
C194 C 0.9012 0.8962 0.67754 0.0
C195 C 0.86285 0.92308 0.67547 0.0
H196 H 0.91217 0.02533 0.67551 0.0
C197 C 0.86792 0.96981 0.67464 0.0
C198 C 0.91027 0.98925 0.67555 0.0
H199 H 0.83906 0.99161 0.67352 0.0
H200 H 0.16006 0.01145 0.66532 0.0
H201 H 0.08588 0.97896 0.66488 0.0
H202 H 0.02796 0.11025 0.67517 0.0
H203 H 0.10259 0.14315 0.67524 0.0
H204 H 0.97872 0.04611 0.66365 0.0
H205 H 0.0213 0.95939 0.68441 0.0
H206 H 0.97267 0.89408 0.67966 0.0
H207 H 0.89852 0.86009 0.67833 0.0
C208 C 0.17623 0.28065 0.43858 0.0
C209 C 0.19729 0.26194 0.41609 0.0
C210 C 0.19327 0.27378 0.46421 0.0
C211 C 0.23226 0.2482 0.46817 0.0
C212 C 0.25417 0.2309 0.44558 0.0
C213 C 0.237 0.23765 0.41991 0.0
C214 C 0.24946 0.23587 0.49524 0.0
C215 C 0.23377 0.2526 0.51851 0.0
C216 C 0.24666 0.23592 0.54561 0.0
C217 C 0.23078 0.25892 0.56819 0.0
C218 C 0.23786 0.24216 0.59393 0.0
C219 C 0.26105 0.20178 0.59781 0.0
H220 H 0.28393 0.1768 0.53318 0.0
C221 C 0.27851 0.17971 0.57532 0.0
C222 C 0.27131 0.19632 0.54963 0.0
H223 H 0.29657 0.1485 0.57739 0.0
H224 H 0.14554 0.29954 0.43655 0.0
H225 H 0.17457 0.28748 0.48069 0.0
H226 H 0.28421 0.211 0.44782 0.0
H227 H 0.25423 0.22268 0.40316 0.0
H228 H 0.27578 0.21101 0.49566 0.0
H229 H 0.20939 0.27937 0.51808 0.0
H230 H 0.21164 0.28944 0.5659 0.0
H231 H 0.22385 0.26015 0.61069 0.0
C232 C 0.22255 0.6848 0.94213 0.0
C233 C 0.23985 0.70602 0.91932 0.0
C234 C 0.22964 0.7026 0.96756 0.0
C235 C 0.25397 0.74254 0.97097 0.0
C236 C 0.26972 0.76465 0.94808 0.0
C237 C 0.26272 0.74675 0.9226 0.0
C238 C 0.26704 0.76012 0.99782 0.0
C239 C 0.2493 0.746 0.02115 0.0
C240 C 0.26652 0.75832 0.04822 0.0
C241 C 0.24335 0.74267 0.07076 0.0
C242 C 0.26059 0.7487 0.09647 0.0
C243 C 0.30163 0.77063 0.10039 0.0
H244 H 0.32622 0.7946 0.03584 0.0
C245 C 0.3238 0.78818 0.07797 0.0
C246 C 0.30668 0.78202 0.05228 0.0
H247 H 0.35551 0.80528 0.08009 0.0
H248 H 0.20483 0.65333 0.94052 0.0
H249 H 0.21748 0.68362 0.98436 0.0
H250 H 0.28869 0.79536 0.94993 0.0
H251 H 0.27664 0.7641 0.90558 0.0
H252 H 0.29321 0.78515 0.998 0.0
H253 H 0.22118 0.72317 0.02073 0.0
H254 H 0.21235 0.72435 0.06846 0.0
H255 H 0.24245 0.7347 0.11316 0.0
C256 C 0.71897 0.81848 0.57955 0.0
C257 C 0.74002 0.79915 0.60185 0.0
C258 C 0.72637 0.80184 0.55388 0.0
C259 C 0.75494 0.76506 0.54972 0.0
C260 C 0.77461 0.74468 0.57211 0.0
C261 C 0.76713 0.76132 0.59785 0.0
C262 C 0.76828 0.74959 0.5225 0.0
C263 C 0.74613 0.75996 0.49981 0.0
C264 C 0.76281 0.74963 0.47236 0.0
C265 C 0.74474 0.77328 0.45065 0.0
C266 C 0.76187 0.76773 0.42487 0.0
C267 C 0.79757 0.73822 0.4201 0.0
H268 H 0.81075 0.69783 0.48301 0.0
C269 C 0.814 0.71272 0.44156 0.0
C270 C 0.7968 0.71816 0.46729 0.0
H271 H 0.84106 0.68916 0.43866 0.0
H272 H 0.69786 0.84769 0.58175 0.0
H273 H 0.71112 0.81942 0.53743 0.0
H274 H 0.79689 0.71641 0.56963 0.0
H275 H 0.78405 0.74557 0.61445 0.0
H276 H 0.79887 0.73027 0.52137 0.0
H277 H 0.71532 0.77894 0.50104 0.0
H278 H 0.7182 0.79738 0.45375 0.0
H279 H 0.74824 0.78791 0.4089 0.0
C280 C 0.74286 0.27082 0.93012 0.0
C281 C 0.77315 0.30437 0.92236 0.0
C282 C 0.73902 0.25822 0.95698 0.0
C283 C 0.76576 0.27869 0.97669 0.0
C284 C 0.79749 0.31049 0.9686 0.0
C285 C 0.80124 0.32308 0.9419 0.0
C286 C 0.75926 0.27141 1.00594 0.0
C287 C 0.73657 0.23683 0.01674 0.0
C288 C 0.72539 0.23304 0.04574 0.0
C289 C 0.69055 0.20422 0.05323 0.0
C290 C 0.67587 0.20219 0.07964 0.0
C291 C 0.69584 0.22876 0.0995 0.0
H292 H 0.77511 0.2794 0.06136 0.0
C293 C 0.73244 0.25577 0.09239 0.0
C294 C 0.74711 0.25789 0.06586 0.0
H295 H 0.74887 0.27648 0.10714 0.0
H296 H 0.72044 0.25592 0.91569 0.0
H297 H 0.71357 0.23412 0.96218 0.0
H298 H 0.81866 0.32684 0.98316 0.0
H299 H 0.82519 0.34882 0.93675 0.0
H300 H 0.7727 0.29707 0.01893 0.0
H301 H 0.72327 0.2111 1.00373 0.0
H302 H 0.67346 0.18418 0.0384 0.0
H303 H 0.64787 0.18061 0.08428 0.0
C304 C 0.5504 0.21798 0.22025 0.0
C305 C 0.58604 0.24507 0.22876 0.0
C306 C 0.5091 0.21933 0.23347 0.0
C307 C 0.50266 0.24787 0.25551 0.0
C308 C 0.53852 0.27451 0.26405 0.0
C309 C 0.57971 0.27296 0.25099 0.0
C310 C 0.45874 0.25276 0.26928 0.0
C311 C 0.42682 0.22092 0.2695 0.0
C312 C 0.383 0.22617 0.28335 0.0
C313 C 0.3596 0.18762 0.29112 0.0
C314 C 0.31753 0.19085 0.30311 0.0
C315 C 0.29746 0.23279 0.30734 0.0
H316 H 0.37943 0.29879 0.28155 0.0
C317 C 0.32088 0.2715 0.29975 0.0
C318 C 0.36316 0.26828 0.28787 0.0
H319 H 0.30619 0.30429 0.30249 0.0
H320 H 0.55409 0.19646 0.20303 0.0
H321 H 0.48206 0.19906 0.22581 0.0
H322 H 0.53459 0.29698 0.28083 0.0
H323 H 0.60633 0.29448 0.25802 0.0
H324 H 0.45353 0.28322 0.28065 0.0
H325 H 0.43357 0.18883 0.26019 0.0
H326 H 0.37382 0.15476 0.28778 0.0
H327 H 0.30035 0.16031 0.30856 0.0
C328 C 0.29963 0.8278 0.8049 0.0
C329 C 0.26007 0.80387 0.80997 0.0
C330 C 0.29805 0.87104 0.79412 0.0
C331 C 0.25676 0.89138 0.7882 0.0
C332 C 0.2173 0.86774 0.79385 0.0
C333 C 0.21889 0.82444 0.80442 0.0
C334 C 0.25327 0.93744 0.77687 0.0
C335 C 0.28564 0.95707 0.76221 0.0
C336 C 0.28099 0.00242 0.75004 0.0
C337 C 0.30584 0.01282 0.72711 0.0
C338 C 0.30167 0.05466 0.71478 0.0
C339 C 0.27295 0.08737 0.72533 0.0
H340 H 0.23439 0.02956 0.77905 0.0
C341 C 0.24909 0.07753 0.74873 0.0
C342 C 0.25304 0.03561 0.76096 0.0
H343 H 0.22681 0.10204 0.75746 0.0
H344 H 0.33192 0.813 0.80906 0.0
H345 H 0.32921 0.88851 0.79082 0.0
H346 H 0.185 0.88262 0.78976 0.0
H347 H 0.18777 0.80705 0.80816 0.0
H348 H 0.22159 0.9546 0.77945 0.0
H349 H 0.31569 0.93834 0.75748 0.0
H350 H 0.32798 0.98817 0.71838 0.0
H351 H 0.32058 0.06118 0.69681 0.0
C352 C 0.68293 0.7367 0.3005 0.0
C353 C 0.70539 0.77533 0.30921 0.0
C354 C 0.64137 0.73991 0.28776 0.0
C355 C 0.62126 0.78194 0.28344 0.0
C356 C 0.64381 0.82045 0.29216 0.0
C357 C 0.68518 0.81722 0.30505 0.0
C358 C 0.57784 0.78696 0.26907 0.0
C359 C 0.54611 0.75493 0.26875 0.0
C360 C 0.50216 0.75932 0.25494 0.0
C361 C 0.46655 0.73261 0.26372 0.0
C362 C 0.42529 0.73362 0.25075 0.0
C363 C 0.41857 0.76097 0.22833 0.0
H364 H 0.52231 0.80768 0.22493 0.0
C365 C 0.454 0.78807 0.21952 0.0
C366 C 0.49542 0.78734 0.23271 0.0
H367 H 0.45 0.8092 0.20217 0.0
H368 H 0.69775 0.70395 0.30314 0.0
H369 H 0.62581 0.70947 0.28071 0.0
H370 H 0.62938 0.85326 0.28898 0.0
H371 H 0.7017 0.8477 0.31132 0.0
H372 H 0.57108 0.81895 0.25966 0.0
H373 H 0.55141 0.72464 0.28027 0.0
H374 H 0.47071 0.71055 0.28065 0.0
H375 H 0.39886 0.71213 0.25805 0.0
C376 C 0.7653 0.1822 0.7977 0.0
C377 C 0.73429 0.198 0.81652 0.0
C378 C 0.7622 0.1385 0.78772 0.0
C379 C 0.72857 0.10936 0.79678 0.0
C380 C 0.69842 0.12476 0.81616 0.0
C381 C 0.70076 0.16884 0.8256 0.0
C382 C 0.72516 0.06248 0.7869 0.0
C383 C 0.73139 0.0516 0.7611 0.0
C384 C 0.72793 0.00502 0.75068 0.0
C385 C 0.71227 0.99807 0.72465 0.0
C386 C 0.71168 0.95513 0.71349 0.0
C387 C 0.72815 0.91823 0.72781 0.0
H388 H 0.75572 0.97214 0.78544 0.0
C389 C 0.74313 0.92503 0.75407 0.0
C390 C 0.74272 0.96789 0.76547 0.0
H391 H 0.75614 0.89736 0.76563 0.0
H392 H 0.79146 0.20392 0.79028 0.0
H393 H 0.7865 0.12734 0.77318 0.0
H394 H 0.67245 0.10288 0.82365 0.0
H395 H 0.67649 0.18002 0.84016 0.0
H396 H 0.71469 0.03683 0.8009 0.0
H397 H 0.73734 0.07815 0.74674 0.0
H398 H 0.70079 0.02607 0.71278 0.0
H399 H 0.69978 0.95123 0.69327 0.0
C400 C 0.04617 0.29048 0.29991 0.0
C401 C 0.08597 0.27826 0.28694 0.0
C402 C 0.00609 0.29407 0.28558 0.0
C403 C 0.00532 0.28658 0.25791 0.0
C404 C 0.04552 0.27664 0.24481 0.0
C405 C 0.08526 0.2718 0.25921 0.0
C406 C 0.96312 0.28866 0.24227 0.0
C407 C 0.92462 0.2709 0.25129 0.0
C408 C 0.88273 0.26921 0.23531 0.0
C409 C 0.8534 0.23311 0.23894 0.0
C410 C 0.8127 0.23125 0.2253 0.0
C411 C 0.79978 0.26609 0.20815 0.0
H412 H 0.89194 0.33234 0.2147 0.0
C413 C 0.82921 0.30221 0.20433 0.0
C414 C 0.87046 0.30362 0.21761 0.0
H415 H 0.82007 0.32972 0.19139 0.0
H416 H 0.04561 0.29581 0.32122 0.0
H417 H 0.97573 0.30269 0.29614 0.0
H418 H 0.0459 0.27109 0.22349 0.0
H419 H 0.11544 0.26253 0.24865 0.0
H420 H 0.96483 0.30132 0.22202 0.0
H421 H 0.92453 0.2541 0.2705 0.0
H422 H 0.8619 0.20626 0.25252 0.0
H423 H 0.79068 0.20314 0.22891 0.0
C424 C 0.20341 0.32733 0.71263 0.0
C425 C 0.24293 0.30376 0.70682 0.0
C426 C 0.20512 0.37049 0.72357 0.0
C427 C 0.24649 0.39112 0.72892 0.0
C428 C 0.28587 0.36786 0.7225 0.0
C429 C 0.28416 0.32466 0.71178 0.0
C430 C 0.25017 0.43706 0.74045 0.0
C431 C 0.21831 0.45644 0.75565 0.0
C432 C 0.22323 0.50172 0.76796 0.0
C433 C 0.1988 0.51199 0.79109 0.0
C434 C 0.20311 0.5538 0.80349 0.0
C435 C 0.23157 0.5866 0.79283 0.0
H436 H 0.26928 0.52911 0.73873 0.0
C437 C 0.25508 0.57685 0.76928 0.0
C438 C 0.25096 0.53499 0.75697 0.0
H439 H 0.27712 0.60144 0.76045 0.0
H440 H 0.17108 0.31227 0.70896 0.0
H441 H 0.17398 0.38765 0.72748 0.0
H442 H 0.31822 0.38295 0.72613 0.0
H443 H 0.31525 0.30756 0.70748 0.0
H444 H 0.28168 0.45437 0.73752 0.0
H445 H 0.1885 0.43756 0.76067 0.0
H446 H 0.17682 0.48728 0.79989 0.0
H447 H 0.18445 0.56024 0.82157 0.0
C448 C 0.17722 0.70336 0.21315 0.0
C449 C 0.20181 0.74272 0.20858 0.0
C450 C 0.13429 0.70531 0.22432 0.0
C451 C 0.11496 0.74677 0.23107 0.0
C452 C 0.13925 0.78603 0.22589 0.0
C453 C 0.18221 0.78406 0.21498 0.0
C454 C 0.06927 0.75083 0.24275 0.0
C455 C 0.04896 0.71835 0.25702 0.0
C456 C 0.0039 0.72393 0.2694 0.0
C457 C 0.99283 0.69883 0.29214 0.0
C458 C 0.95122 0.70405 0.30461 0.0
C459 C 0.91949 0.73415 0.29439 0.0
H460 H 0.97806 0.77205 0.24083 0.0
C461 C 0.93001 0.75826 0.27118 0.0
C462 C 0.9716 0.7532 0.25881 0.0
H463 H 0.90623 0.78151 0.26265 0.0
H464 H 0.19132 0.67097 0.20837 0.0
H465 H 0.11625 0.67435 0.22729 0.0
H466 H 0.12515 0.81847 0.23061 0.0
H467 H 0.20013 0.81504 0.21165 0.0
H468 H 0.05294 0.7831 0.24077 0.0
H469 H 0.06686 0.68756 0.26121 0.0
H470 H 0.01679 0.67567 0.3006 0.0
H471 H 0.94415 0.6849 0.32242 0.0
C472 C 0.74035 0.42457 0.77175 0.0
C473 C 0.7679 0.41349 0.79347 0.0
C474 C 0.74387 0.46646 0.75933 0.0
C475 C 0.77509 0.49834 0.76838 0.0
C476 C 0.80341 0.4866 0.7896 0.0
C477 C 0.79971 0.44489 0.80209 0.0
C478 C 0.77984 0.54368 0.75609 0.0
C479 C 0.74691 0.56471 0.74255 0.0
C480 C 0.75091 0.611 0.73145 0.0
C481 C 0.71173 0.63556 0.72644 0.0
C482 C 0.71378 0.67918 0.71631 0.0
C483 C 0.75515 0.69929 0.71064 0.0
H484 H 0.82334 0.61282 0.72805 0.0
C485 C 0.79439 0.67447 0.71506 0.0
C486 C 0.79236 0.63086 0.72531 0.0
H487 H 0.82682 0.68881 0.71076 0.0
H488 H 0.71555 0.4011 0.76455 0.0
H489 H 0.72229 0.47346 0.74256 0.0
H490 H 0.82807 0.51015 0.79689 0.0
H491 H 0.82151 0.43745 0.81872 0.0
H492 H 0.81088 0.56133 0.75988 0.0
H493 H 0.71454 0.54861 0.74078 0.0
H494 H 0.67929 0.62116 0.7307 0.0
H495 H 0.68287 0.69723 0.71307 0.0
loop_
_geom_bond_atom_site_label_1
_geom_bond_atom_site_label_2
_geom_bond_distance
_geom_bond_site_symmetry_2
_ccdc_geom_bond_type
Co0 O1 2.216 . S
Co0 O2 2.091 . S
Co0 O4 2.004 . S
Co0 O10 2.021 . S
Co0 O12 2.137 . S
Co0 O13 2.244 . S
O1 Co0 2.216 . S
O1 C8 1.247 . S
O2 Co0 2.091 . S
O2 C8 1.261 . S
C3 O12 1.247 . S
C3 O13 1.272 . S
O4 Co0 2.004 . S
O4 C9 1.259 . S
Co5 O6 2.061 . S
Co5 O11 2.052 . S
Co5 O13 2.135 . S
O6 Co5 2.061 . S
O6 C9 1.235 . S
C7 O10 1.238 . S
C7 O11 1.241 . S
C8 O1 1.247 . S
C8 O2 1.261 . S
C9 O4 1.259 . S
C9 O6 1.235 . S
O10 Co0 2.021 . S
O10 C7 1.238 . S
O11 Co5 2.052 . S
O11 C7 1.241 . S
O12 Co0 2.137 . S
O12 C3 1.247 . S
O13 Co0 2.244 . S
O13 C3 1.272 . S
O13 Co5 2.135 . S
Co14 O15 2.216 . S
Co14 O16 2.091 . S
Co14 O18 2.004 . S
Co14 O24 2.021 . S
Co14 O26 2.137 . S
Co14 O27 2.244 . S
O15 Co14 2.216 . S
O15 C22 1.247 . S
O16 Co14 2.091 . S
O16 C22 1.261 . S
C17 O26 1.247 . S
C17 O27 1.272 . S
O18 Co14 2.004 . S
O18 C23 1.259 . S
Co19 O20 2.061 . S
Co19 O25 2.052 . S
Co19 O27 2.135 . S
O20 Co19 2.061 . S
O20 C23 1.235 . S
C21 O24 1.238 . S
C21 O25 1.241 . S
C22 O15 1.247 . S
C22 O16 1.261 . S
C23 O18 1.259 . S
C23 O20 1.235 . S
O24 Co14 2.021 . S
O24 C21 1.238 . S
O25 Co19 2.052 . S
O25 C21 1.241 . S
O26 Co14 2.137 . S
O26 C17 1.247 . S
O27 Co14 2.244 . S
O27 C17 1.272 . S
O27 Co19 2.135 . S
Co28 O29 2.216 . S
Co28 O30 2.091 . S
Co28 O32 2.004 . S
Co28 O38 2.021 . S
Co28 O40 2.137 . S
Co28 O41 2.244 . S
O29 Co28 2.216 . S
O29 C36 1.247 . S
O30 Co28 2.091 . S
O30 C36 1.261 . S
C31 O40 1.247 . S
C31 O41 1.272 . S
O32 Co28 2.004 . S
O32 C37 1.259 . S
Co33 O34 2.061 . S
Co33 O39 2.052 . S
Co33 O41 2.135 . S
O34 Co33 2.061 . S
O34 C37 1.235 . S
C35 O38 1.238 . S
C35 O39 1.241 . S
C36 O29 1.247 . S
C36 O30 1.261 . S
C37 O32 1.259 . S
C37 O34 1.235 . S
O38 Co28 2.021 . S
O38 C35 1.238 . S
O39 Co33 2.052 . S
O39 C35 1.241 . S
O40 Co28 2.137 . S
O40 C31 1.247 . S
O41 Co28 2.244 . S
O41 C31 1.272 . S
O41 Co33 2.135 . S
Co42 O43 2.216 . S
Co42 O44 2.091 . S
Co42 O46 2.004 . S
Co42 O52 2.021 . S
Co42 O54 2.137 . S
Co42 O55 2.244 . S
O43 Co42 2.216 . S
O43 C50 1.247 . S
O44 Co42 2.091 . S
O44 C50 1.261 . S
C45 O54 1.247 . S
C45 O55 1.272 . S
O46 Co42 2.004 . S
O46 C51 1.259 . S
Co47 O48 2.061 . S
Co47 O53 2.052 . S
Co47 O55 2.135 . S
O48 Co47 2.061 . S
O48 C51 1.235 . S
C49 O52 1.238 . S
C49 O53 1.241 . S
C50 O43 1.247 . S
C50 O44 1.261 . S
C51 O46 1.259 . S
C51 O48 1.235 . S
O52 Co42 2.021 . S
O52 C49 1.238 . S
O53 Co47 2.052 . S
O53 C49 1.241 . S
O54 Co42 2.137 . S
O54 C45 1.247 . S
O55 Co42 2.244 . S
O55 C45 1.272 . S
O55 Co47 2.135 . S
Co56 O57 2.216 . S
Co56 O58 2.091 . S
Co56 O60 2.004 . S
Co56 O66 2.021 . S
Co56 O68 2.137 . S
Co56 O69 2.244 . S
O57 Co56 2.216 . S
O57 C64 1.247 . S
O58 Co56 2.091 . S
O58 C64 1.261 . S
C59 O68 1.247 . S
C59 O69 1.272 . S
O60 Co56 2.004 . S
O60 C65 1.259 . S
Co61 O62 2.061 . S
Co61 O67 2.052 . S
Co61 O69 2.135 . S
O62 Co61 2.061 . S
O62 C65 1.235 . S
C63 O66 1.238 . S
C63 O67 1.241 . S
C64 O57 1.247 . S
C64 O58 1.261 . S
C65 O60 1.259 . S
C65 O62 1.235 . S
O66 Co56 2.021 . S
O66 C63 1.238 . S
O67 Co61 2.052 . S
O67 C63 1.241 . S
O68 Co56 2.137 . S
O68 C59 1.247 . S
O69 Co56 2.244 . S
O69 C59 1.272 . S
O69 Co61 2.135 . S
Co70 O71 2.216 . S
Co70 O72 2.091 . S
Co70 O74 2.004 . S
Co70 O80 2.021 . S
Co70 O82 2.137 . S
Co70 O83 2.244 . S
O71 Co70 2.216 . S
O71 C78 1.247 . S
O72 Co70 2.091 . S
O72 C78 1.261 . S
C73 O82 1.247 . S
C73 O83 1.272 . S
O74 Co70 2.004 . S
O74 C79 1.259 . S
Co75 O76 2.061 . S
Co75 O81 2.052 . S
Co75 O83 2.135 . S
O76 Co75 2.061 . S
O76 C79 1.235 . S
C77 O80 1.238 . S
C77 O81 1.241 . S
C78 O71 1.247 . S
C78 O72 1.261 . S
C79 O74 1.259 . S
C79 O76 1.235 . S
O80 Co70 2.021 . S
O80 C77 1.238 . S
O81 Co75 2.052 . S
O81 C77 1.241 . S
O82 Co70 2.137 . S
O82 C73 1.247 . S
O83 Co70 2.244 . S
O83 C73 1.272 . S
O83 Co75 2.135 . S
Co84 O85 2.216 . S
Co84 O86 2.091 . S
Co84 O88 2.004 . S
Co84 O94 2.021 . S
Co84 O96 2.137 . S
Co84 O97 2.244 . S
O85 Co84 2.216 . S
O85 C92 1.247 . S
O86 Co84 2.091 . S
O86 C92 1.261 . S
C87 O96 1.247 . S
C87 O97 1.272 . S
O88 Co84 2.004 . S
O88 C93 1.259 . S
Co89 O90 2.061 . S
Co89 O95 2.052 . S
Co89 O97 2.135 . S
O90 Co89 2.061 . S
O90 C93 1.235 . S
C91 O94 1.238 . S
C91 O95 1.241 . S
C92 O85 1.247 . S
C92 O86 1.261 . S
C93 O88 1.259 . S
C93 O90 1.235 . S
O94 Co84 2.021 . S
O94 C91 1.238 . S
O95 Co89 2.052 . S
O95 C91 1.241 . S
O96 Co84 2.137 . S
O96 C87 1.247 . S
O97 Co84 2.244 . S
O97 C87 1.272 . S
O97 Co89 2.135 . S
Co98 O99 2.216 . S
Co98 O100 2.091 . S
Co98 O102 2.004 . S
Co98 O108 2.021 . S
Co98 O110 2.137 . S
Co98 O111 2.244 . S
O99 Co98 2.216 . S
O99 C106 1.247 . S
O100 Co98 2.091 . S
O100 C106 1.261 . S
C101 O110 1.247 . S
C101 O111 1.272 . S
O102 Co98 2.004 . S
O102 C107 1.259 . S
Co103 O104 2.061 . S
Co103 O109 2.052 . S
Co103 O111 2.135 . S
O104 Co103 2.061 . S
O104 C107 1.235 . S
C105 O108 1.238 . S
C105 O109 1.241 . S
C106 O99 1.247 . S
C106 O100 1.261 . S
C107 O102 1.259 . S
C107 O104 1.235 . S
O108 Co98 2.021 . S
O108 C105 1.238 . S
O109 Co103 2.052 . S
O109 C105 1.241 . S
O110 Co98 2.137 . S
O110 C101 1.247 . S
O111 Co98 2.244 . S
O111 C101 1.272 . S
O111 Co103 2.135 . S
C112 C113 1.386 . S
C112 C114 1.383 . S
C112 H128 0.951 . S
C113 C112 1.386 . S
C113 C117 1.383 . S
C114 C112 1.383 . S
C114 C115 1.402 . S
C114 H129 0.951 . S
C115 C114 1.402 . S
C115 C116 1.375 . S
C115 C118 1.481 1_455 S
C116 C115 1.375 . S
C116 C117 1.367 . S
C116 H130 0.951 . S
C117 C113 1.383 . S
C117 C116 1.367 . S
C117 H131 0.950 . S
C118 C115 1.481 1_655 S
C118 C119 1.297 1_545 S
C118 H132 0.950 . S
C119 C118 1.297 1_565 S
C119 C120 1.479 . S
C119 H133 0.939 1_655 S
C120 C119 1.479 . S
C120 C121 1.375 . S
C120 C126 1.404 . S
C121 C120 1.375 . S
C121 C122 1.369 . S
C121 H134 0.950 . S
C122 C121 1.369 . S
C122 C123 1.392 . S
C122 H135 0.951 . S
C123 C122 1.392 . S
C123 C125 1.384 . S
H124 C126 0.949 . S
C125 C123 1.384 . S
C125 C126 1.385 . S
C125 H127 0.950 . S
C126 C120 1.404 . S
C126 H124 0.949 . S
C126 C125 1.385 . S
H127 C125 0.950 . S
H128 C112 0.951 . S
H129 C114 0.951 . S
H130 C116 0.951 . S
H131 C117 0.950 . S
H132 C118 0.950 . S
H133 C119 0.939 1_455 S
H134 C121 0.950 . S
H135 C122 0.951 . S
C136 C137 1.386 . S
C136 C138 1.383 . S
C136 H152 0.951 . S
C137 C136 1.386 . S
C137 C141 1.383 . S
C138 C136 1.383 . S
C138 C139 1.402 . S
C138 H153 0.951 . S
C139 C138 1.402 . S
C139 C140 1.375 . S
C139 C142 1.481 . S
C140 C139 1.375 . S
C140 C141 1.367 . S
C140 H154 0.951 . S
C141 C137 1.383 . S
C141 C140 1.367 . S
C141 H155 0.950 . S
C142 C139 1.481 . S
C142 C143 1.297 . S
C142 H156 0.950 . S
C143 C142 1.297 . S
C143 C144 1.479 . S
C143 H157 0.950 . S
C144 C143 1.479 . S
C144 C145 1.375 . S
C144 C150 1.404 . S
C145 C144 1.375 . S
C145 C146 1.369 . S
C145 H158 0.950 . S
C146 C145 1.369 . S
C146 C147 1.392 . S
C146 H159 0.951 . S
C147 C146 1.392 . S
C147 C149 1.384 . S
H148 C150 0.949 . S
C149 C147 1.384 . S
C149 C150 1.385 . S
C149 H151 0.950 . S
C150 C144 1.404 . S
C150 H148 0.949 . S
C150 C149 1.385 . S
H151 C149 0.950 . S
H152 C136 0.951 . S
H153 C138 0.951 . S
H154 C140 0.951 . S
H155 C141 0.950 . S
H156 C142 0.950 . S
H157 C143 0.950 . S
H158 C145 0.950 . S
H159 C146 0.951 . S
C160 C161 1.386 . S
C160 C162 1.383 . S
C160 H176 0.951 . S
C161 C160 1.386 . S
C161 C165 1.383 . S
C162 C160 1.383 . S
C162 C163 1.402 . S
C162 H177 0.951 . S
C163 C162 1.402 . S
C163 C164 1.375 . S
C163 C166 1.481 . S
C164 C163 1.375 . S
C164 C165 1.367 . S
C164 H178 0.951 . S
C165 C161 1.383 . S
C165 C164 1.367 . S
C165 H179 0.950 . S
C166 C163 1.481 . S
C166 C167 1.297 . S
C166 H180 0.950 . S
C167 C166 1.297 . S
C167 C168 1.479 . S
C167 H181 0.950 . S
C168 C167 1.479 . S
C168 C169 1.375 . S
C168 C174 1.404 . S
C169 C168 1.375 . S
C169 C170 1.369 . S
C169 H182 0.950 . S
C170 C169 1.369 . S
C170 C171 1.392 . S
C170 H183 0.951 . S
C171 C170 1.392 . S
C171 C173 1.384 . S
H172 C174 0.949 . S
C173 C171 1.384 . S
C173 C174 1.385 . S
C173 H175 0.950 . S
C174 C168 1.404 . S
C174 H172 0.949 . S
C174 C173 1.385 . S
H175 C173 0.950 . S
H176 C160 0.951 . S
H177 C162 0.951 . S
H178 C164 0.951 . S
H179 C165 0.950 . S
H180 C166 0.950 . S
H181 C167 0.950 . S
H182 C169 0.950 . S
H183 C170 0.951 . S
C184 C185 1.386 . S
C184 C186 1.383 . S
C184 H200 0.951 . S
C185 C184 1.386 . S
C185 C189 1.383 . S
C186 C184 1.383 . S
C186 C187 1.402 . S
C186 H201 0.951 1_545 S
C187 C186 1.402 . S
C187 C188 1.375 . S
C187 C190 1.481 . S
C188 C187 1.375 . S
C188 C189 1.367 . S
C188 H202 0.951 . S
C189 C185 1.383 . S
C189 C188 1.367 . S
C189 H203 0.950 . S
C190 C187 1.481 . S
C190 C191 1.294 1_445 S
C190 H204 0.950 1_455 S
C191 C190 1.294 1_665 S
C191 C192 1.498 . S
C191 H205 0.933 1_655 S
C192 C191 1.498 . S
C192 C193 1.375 . S
C192 C198 1.404 . S
C193 C192 1.375 . S
C193 C194 1.369 . S
C193 H206 0.950 . S
C194 C193 1.369 . S
C194 C195 1.392 . S
C194 H207 0.951 . S
C195 C194 1.392 . S
C195 C197 1.384 . S
H196 C198 0.949 . S
C197 C195 1.384 . S
C197 C198 1.385 . S
C197 H199 0.950 . S
C198 C192 1.404 . S
C198 H196 0.949 . S
C198 C197 1.385 . S
H199 C197 0.950 . S
H200 C184 0.951 . S
H201 C186 0.951 1_565 S
H202 C188 0.951 . S
H203 C189 0.950 . S
H204 C190 0.950 1_655 S
H205 C191 0.933 1_455 S
H206 C193 0.950 . S
H207 C194 0.951 . S
C208 C209 1.386 . S
C208 C210 1.383 . S
C208 H224 0.951 . S
C209 C208 1.386 . S
C209 C213 1.383 . S
C210 C208 1.383 . S
C210 C211 1.402 . S
C210 H225 0.951 . S
C211 C210 1.402 . S
C211 C212 1.375 . S
C211 C214 1.481 . S
C212 C211 1.375 . S
C212 C213 1.367 . S
C212 H226 0.951 . S
C213 C209 1.383 . S
C213 C212 1.367 . S
C213 H227 0.950 . S
C214 C211 1.481 . S
C214 C215 1.297 . S
C214 H228 0.950 . S
C215 C214 1.297 . S
C215 C216 1.479 . S
C215 H229 0.950 . S
C216 C215 1.479 . S
C216 C217 1.375 . S
C216 C222 1.404 . S
C217 C216 1.375 . S
C217 C218 1.369 . S
C217 H230 0.950 . S
C218 C217 1.369 . S
C218 C219 1.392 . S
C218 H231 0.951 . S
C219 C218 1.392 . S
C219 C221 1.384 . S
H220 C222 0.949 . S
C221 C219 1.384 . S
C221 C222 1.385 . S
C221 H223 0.950 . S
C222 C216 1.404 . S
C222 H220 0.949 . S
C222 C221 1.385 . S
H223 C221 0.950 . S
H224 C208 0.951 . S
H225 C210 0.951 . S
H226 C212 0.951 . S
H227 C213 0.950 . S
H228 C214 0.950 . S
H229 C215 0.950 . S
H230 C217 0.950 . S
H231 C218 0.951 . S
C232 C233 1.386 . S
C232 C234 1.383 . S
C232 H248 0.951 . S
C233 C232 1.386 . S
C233 C237 1.383 . S
C234 C232 1.383 . S
C234 C235 1.402 . S
C234 H249 0.951 . S
C235 C234 1.402 . S
C235 C236 1.375 . S
C235 C238 1.481 . S
C236 C235 1.375 . S
C236 C237 1.367 . S
C236 H250 0.951 . S
C237 C233 1.383 . S
C237 C236 1.367 . S
C237 H251 0.950 . S
C238 C235 1.481 . S
C238 C239 1.297 1_556 S
C238 H252 0.950 . S
C239 C238 1.297 1_554 S
C239 C240 1.479 . S
C239 H253 0.950 . S
C240 C239 1.479 . S
C240 C241 1.375 . S
C240 C246 1.404 . S
C241 C240 1.375 . S
C241 C242 1.369 . S
C241 H254 0.950 . S
C242 C241 1.369 . S
C242 C243 1.392 . S
C242 H255 0.951 . S
C243 C242 1.392 . S
C243 C245 1.384 . S
H244 C246 0.949 . S
C245 C243 1.384 . S
C245 C246 1.385 . S
C245 H247 0.950 . S
C246 C240 1.404 . S
C246 H244 0.949 . S
C246 C245 1.385 . S
H247 C245 0.950 . S
H248 C232 0.951 . S
H249 C234 0.951 . S
H250 C236 0.951 . S
H251 C237 0.950 . S
H252 C238 0.950 . S
H253 C239 0.950 . S
H254 C241 0.950 . S
H255 C242 0.951 . S
C256 C257 1.386 . S
C256 C258 1.383 . S
C256 H272 0.951 . S
C257 C256 1.386 . S
C257 C261 1.383 . S
C258 C256 1.383 . S
C258 C259 1.402 . S
C258 H273 0.951 . S
C259 C258 1.402 . S
C259 C260 1.375 . S
C259 C262 1.481 . S
C260 C259 1.375 . S
C260 C261 1.367 . S
C260 H274 0.951 . S
C261 C257 1.383 . S
C261 C260 1.367 . S
C261 H275 0.950 . S
C262 C259 1.481 . S
C262 C263 1.297 . S
C262 H276 0.950 . S
C263 C262 1.297 . S
C263 C264 1.479 . S
C263 H277 0.950 . S
C264 C263 1.479 . S
C264 C265 1.375 . S
C264 C270 1.404 . S
C265 C264 1.375 . S
C265 C266 1.369 . S
C265 H278 0.950 . S
C266 C265 1.369 . S
C266 C267 1.392 . S
C266 H279 0.951 . S
C267 C266 1.392 . S
C267 C269 1.384 . S
H268 C270 0.949 . S
C269 C267 1.384 . S
C269 C270 1.385 . S
C269 H271 0.950 . S
C270 C264 1.404 . S
C270 H268 0.949 . S
C270 C269 1.385 . S
H271 C269 0.950 . S
H272 C256 0.951 . S
H273 C258 0.951 . S
H274 C260 0.951 . S
H275 C261 0.950 . S
H276 C262 0.950 . S
H277 C263 0.950 . S
H278 C265 0.950 . S
H279 C266 0.951 . S
C280 C281 1.386 . S
C280 C282 1.383 . S
C280 H296 0.951 . S
C281 C280 1.386 . S
C281 C285 1.383 . S
C282 C280 1.383 . S
C282 C283 1.402 . S
C282 H297 0.951 . S
C283 C282 1.402 . S
C283 C284 1.375 . S
C283 C286 1.481 . S
C284 C283 1.375 . S
C284 C285 1.367 . S
C284 H298 0.951 . S
C285 C281 1.383 . S
C285 C284 1.367 . S
C285 H299 0.950 . S
C286 C283 1.481 . S
C286 C287 1.297 1_556 S
C286 H300 0.950 1_556 S
C287 C286 1.297 1_554 S
C287 C288 1.479 . S
C287 H301 0.950 1_554 S
C288 C287 1.479 . S
C288 C289 1.375 . S
C288 C294 1.404 . S
C289 C288 1.375 . S
C289 C290 1.369 . S
C289 H302 0.950 . S
C290 C289 1.369 . S
C290 C291 1.392 . S
C290 H303 0.951 . S
C291 C290 1.392 . S
C291 C293 1.384 . S
H292 C294 0.949 . S
C293 C291 1.384 . S
C293 C294 1.385 . S
C293 H295 0.950 . S
C294 C288 1.404 . S
C294 H292 0.949 . S
C294 C293 1.385 . S
H295 C293 0.950 . S
H296 C280 0.951 . S
H297 C282 0.951 . S
H298 C284 0.951 . S
H299 C285 0.950 . S
H300 C286 0.950 1_554 S
H301 C287 0.950 1_556 S
H302 C289 0.950 . S
H303 C290 0.951 . S
C304 C305 1.386 . S
C304 C306 1.383 . S
C304 H320 0.951 . S
C305 C304 1.386 . S
C305 C309 1.383 . S
C306 C304 1.383 . S
C306 C307 1.402 . S
C306 H321 0.951 . S
C307 C306 1.402 . S
C307 C308 1.375 . S
C307 C310 1.481 . S
C308 C307 1.375 . S
C308 C309 1.367 . S
C308 H322 0.951 . S
C309 C305 1.383 . S
C309 C308 1.367 . S
C309 H323 0.950 . S
C310 C307 1.481 . S
C310 C311 1.297 . S
C310 H324 0.950 . S
C311 C310 1.297 . S
C311 C312 1.479 . S
C311 H325 0.950 . S
C312 C311 1.479 . S
C312 C313 1.375 . S
C312 C318 1.404 . S
C313 C312 1.375 . S
C313 C314 1.369 . S
C313 H326 0.950 . S
C314 C313 1.369 . S
C314 C315 1.392 . S
C314 H327 0.951 . S
C315 C314 1.392 . S
C315 C317 1.384 . S
H316 C318 0.949 . S
C317 C315 1.384 . S
C317 C318 1.385 . S
C317 H319 0.950 . S
C318 C312 1.404 . S
C318 H316 0.949 . S
C318 C317 1.385 . S
H319 C317 0.950 . S
H320 C304 0.951 . S
H321 C306 0.951 . S
H322 C308 0.951 . S
H323 C309 0.950 . S
H324 C310 0.950 . S
H325 C311 0.950 . S
H326 C313 0.950 . S
H327 C314 0.951 . S
C328 C329 1.386 . S
C328 C330 1.383 . S
C328 H344 0.951 . S
C329 C328 1.386 . S
C329 C333 1.383 . S
C330 C328 1.383 . S
C330 C331 1.402 . S
C330 H345 0.951 . S
C331 C330 1.402 . S
C331 C332 1.375 . S
C331 C334 1.481 . S
C332 C331 1.375 . S
C332 C333 1.367 . S
C332 H346 0.951 . S
C333 C329 1.383 . S
C333 C332 1.367 . S
C333 H347 0.950 . S
C334 C331 1.481 . S
C334 C335 1.297 . S
C334 H348 0.950 . S
C335 C334 1.297 . S
C335 C336 1.479 . S
C335 H349 0.950 . S
C336 C335 1.479 . S
C336 C337 1.375 . S
C336 C342 1.404 . S
C337 C336 1.375 . S
C337 C338 1.369 . S
C337 H350 0.950 . S
C338 C337 1.369 . S
C338 C339 1.392 1_565 S
C338 H351 0.951 . S
C339 C338 1.392 1_545 S
C339 C341 1.384 . S
H340 C342 0.949 . S
C341 C339 1.384 . S
C341 C342 1.385 1_545 S
C341 H343 0.950 . S
C342 C336 1.404 . S
C342 H340 0.949 . S
C342 C341 1.385 1_565 S
H343 C341 0.950 . S
H344 C328 0.951 . S
H345 C330 0.951 . S
H346 C332 0.951 . S
H347 C333 0.950 . S
H348 C334 0.950 . S
H349 C335 0.950 . S
H350 C337 0.950 . S
H351 C338 0.951 . S
C352 C353 1.386 . S
C352 C354 1.383 . S
C352 H368 0.951 . S
C353 C352 1.386 . S
C353 C357 1.383 . S
C354 C352 1.383 . S
C354 C355 1.402 . S
C354 H369 0.951 . S
C355 C354 1.402 . S
C355 C356 1.375 . S
C355 C358 1.481 . S
C356 C355 1.375 . S
C356 C357 1.367 . S
C356 H370 0.951 . S
C357 C353 1.383 . S
C357 C356 1.367 . S
C357 H371 0.950 . S
C358 C355 1.481 . S
C358 C359 1.297 . S
C358 H372 0.950 . S
C359 C358 1.297 . S
C359 C360 1.479 . S
C359 H373 0.950 . S
C360 C359 1.479 . S
C360 C361 1.375 . S
C360 C366 1.404 . S
C361 C360 1.375 . S
C361 C362 1.369 . S
C361 H374 0.950 . S
C362 C361 1.369 . S
C362 C363 1.392 . S
C362 H375 0.951 . S
C363 C362 1.392 . S
C363 C365 1.384 . S
H364 C366 0.949 . S
C365 C363 1.384 . S
C365 C366 1.385 . S
C365 H367 0.950 . S
C366 C360 1.404 . S
C366 H364 0.949 . S
C366 C365 1.385 . S
H367 C365 0.950 . S
H368 C352 0.951 . S
H369 C354 0.951 . S
H370 C356 0.951 . S
H371 C357 0.950 . S
H372 C358 0.950 . S
H373 C359 0.950 . S
H374 C361 0.950 . S
H375 C362 0.951 . S
C376 C377 1.386 . S
C376 C378 1.383 . S
C376 H392 0.951 . S
C377 C376 1.386 . S
C377 C381 1.383 . S
C378 C376 1.383 . S
C378 C379 1.402 . S
C378 H393 0.951 . S
C379 C378 1.402 . S
C379 C380 1.375 . S
C379 C382 1.481 . S
C380 C379 1.375 . S
C380 C381 1.367 . S
C380 H394 0.951 . S
C381 C377 1.383 . S
C381 C380 1.367 . S
C381 H395 0.950 . S
C382 C379 1.481 . S
C382 C383 1.297 . S
C382 H396 0.950 . S
C383 C382 1.297 . S
C383 C384 1.479 . S
C383 H397 0.950 . S
C384 C383 1.479 . S
C384 C385 1.375 . S
C384 C390 1.404 . S
C385 C384 1.375 . S
C385 C386 1.369 . S
C385 H398 0.950 . S
C386 C385 1.369 . S
C386 C387 1.392 1_545 S
C386 H399 0.951 . S
C387 C386 1.392 1_565 S
C387 C389 1.384 . S
H388 C390 0.949 . S
C389 C387 1.384 . S
C389 C390 1.385 1_565 S
C389 H391 0.950 . S
C390 C384 1.404 . S
C390 H388 0.949 . S
C390 C389 1.385 1_545 S
H391 C389 0.950 . S
H392 C376 0.951 . S
H393 C378 0.951 . S
H394 C380 0.951 . S
H395 C381 0.950 . S
H396 C382 0.950 . S
H397 C383 0.950 . S
H398 C385 0.950 . S
H399 C386 0.951 . S
C400 C401 1.386 1_655 S
C400 C402 1.383 . S
C400 H416 0.951 . S
C401 C400 1.386 1_455 S
C401 C405 1.383 . S
C402 C400 1.383 . S
C402 C403 1.402 . S
C402 H417 0.951 . S
C403 C402 1.402 . S
C403 C404 1.375 . S
C403 C406 1.481 . S
C404 C403 1.375 . S
C404 C405 1.367 1_655 S
C404 H418 0.951 . S
C405 C401 1.383 . S
C405 C404 1.367 1_455 S
C405 H419 0.950 . S
C406 C403 1.481 . S
C406 C407 1.297 . S
C406 H420 0.950 . S
C407 C406 1.297 . S
C407 C408 1.479 . S
C407 H421 0.950 . S
C408 C407 1.479 . S
C408 C409 1.375 . S
C408 C414 1.404 . S
C409 C408 1.375 . S
C409 C410 1.369 . S
C409 H422 0.950 . S
C410 C409 1.369 . S
C410 C411 1.392 . S
C410 H423 0.951 . S
C411 C410 1.392 . S
C411 C413 1.384 . S
H412 C414 0.949 . S
C413 C411 1.384 . S
C413 C414 1.385 . S
C413 H415 0.950 . S
C414 C408 1.404 . S
C414 H412 0.949 . S
C414 C413 1.385 . S
H415 C413 0.950 . S
H416 C400 0.951 . S
H417 C402 0.951 . S
H418 C404 0.951 . S
H419 C405 0.950 . S
H420 C406 0.950 . S
H421 C407 0.950 . S
H422 C409 0.950 . S
H423 C410 0.951 . S
C424 C425 1.386 . S
C424 C426 1.383 . S
C424 H440 0.951 . S
C425 C424 1.386 . S
C425 C429 1.383 . S
C426 C424 1.383 . S
C426 C427 1.402 . S
C426 H441 0.951 . S
C427 C426 1.402 . S
C427 C428 1.375 . S
C427 C430 1.481 . S
C428 C427 1.375 . S
C428 C429 1.367 . S
C428 H442 0.951 . S
C429 C425 1.383 . S
C429 C428 1.367 . S
C429 H443 0.950 . S
C430 C427 1.481 . S
C430 C431 1.297 . S
C430 H444 0.950 . S
C431 C430 1.297 . S
C431 C432 1.479 . S
C431 H445 0.950 . S
C432 C431 1.479 . S
C432 C433 1.375 . S
C432 C438 1.404 . S
C433 C432 1.375 . S
C433 C434 1.369 . S
C433 H446 0.950 . S
C434 C433 1.369 . S
C434 C435 1.392 . S
C434 H447 0.951 . S
C435 C434 1.392 . S
C435 C437 1.384 . S
H436 C438 0.949 . S
C437 C435 1.384 . S
C437 C438 1.385 . S
C437 H439 0.950 . S
C438 C432 1.404 . S
C438 H436 0.949 . S
C438 C437 1.385 . S
H439 C437 0.950 . S
H440 C424 0.951 . S
H441 C426 0.951 . S
H442 C428 0.951 . S
H443 C429 0.950 . S
H444 C430 0.950 . S
H445 C431 0.950 . S
H446 C433 0.950 . S
H447 C434 0.951 . S
C448 C449 1.386 . S
C448 C450 1.383 . S
C448 H464 0.951 . S
C449 C448 1.386 . S
C449 C453 1.383 . S
C450 C448 1.383 . S
C450 C451 1.402 . S
C450 H465 0.951 . S
C451 C450 1.402 . S
C451 C452 1.375 . S
C451 C454 1.481 . S
C452 C451 1.375 . S
C452 C453 1.367 . S
C452 H466 0.951 . S
C453 C449 1.383 . S
C453 C452 1.367 . S
C453 H467 0.950 . S
C454 C451 1.481 . S
C454 C455 1.297 . S
C454 H468 0.950 . S
C455 C454 1.297 . S
C455 C456 1.479 . S
C455 H469 0.950 . S
C456 C455 1.479 . S
C456 C457 1.375 . S
C456 C462 1.404 . S
C457 C456 1.375 . S
C457 C458 1.369 1_455 S
C457 H470 0.950 . S
C458 C457 1.369 1_655 S
C458 C459 1.392 . S
C458 H471 0.951 . S
C459 C458 1.392 . S
C459 C461 1.384 . S
H460 C462 0.949 . S
C461 C459 1.384 . S
C461 C462 1.385 1_655 S
C461 H463 0.950 . S
C462 C456 1.404 . S
C462 H460 0.949 . S
C462 C461 1.385 1_455 S
H463 C461 0.950 . S
H464 C448 0.951 . S
H465 C450 0.951 . S
H466 C452 0.951 . S
H467 C453 0.950 . S
H468 C454 0.950 . S
H469 C455 0.950 . S
H470 C457 0.950 . S
H471 C458 0.951 . S
C472 C473 1.386 . S
C472 C474 1.383 . S
C472 H488 0.951 . S
C473 C472 1.386 . S
C473 C477 1.383 . S
C474 C472 1.383 . S
C474 C475 1.402 . S
C474 H489 0.951 . S
C475 C474 1.402 . S
C475 C476 1.375 . S
C475 C478 1.481 . S
C476 C475 1.375 . S
C476 C477 1.367 . S
C476 H490 0.951 . S
C477 C473 1.383 . S
C477 C476 1.367 . S
C477 H491 0.950 . S
C478 C475 1.481 . S
C478 C479 1.297 . S
C478 H492 0.950 . S
C479 C478 1.297 . S
C479 C480 1.479 . S
C479 H493 0.950 . S
C480 C479 1.479 . S
C480 C481 1.375 . S
C480 C486 1.404 . S
C481 C480 1.375 . S
C481 C482 1.369 . S
C481 H494 0.950 . S
C482 C481 1.369 . S
C482 C483 1.392 . S
C482 H495 0.951 . S
C483 C482 1.392 . S
C483 C485 1.384 . S
H484 C486 0.949 . S
C485 C483 1.384 . S
C485 C486 1.385 . S
C485 H487 0.950 . S
C486 C480 1.404 . S
C486 H484 0.949 . S
C486 C485 1.385 . S
H487 C485 0.950 . S
H488 C472 0.951 . S
H489 C474 0.951 . S
H490 C476 0.951 . S
H491 C477 0.950 . S
H492 C478 0.950 . S
H493 C479 0.950 . S
H494 C481 0.950 . S
H495 C482 0.951 . S
C113 C9 0.316 . S
C123 C37 0.500 . S
C137 C23 0.468 . S
C147 C51 0.453 . S
C161 C65 0.329 . S
C171 C93 0.520 . S
C185 C79 0.441 . S
C195 C107 0.505 . S
C209 C7 1.270 . S
C219 C77 1.297 . S
C233 C21 1.305 . S
C243 C91 1.240 . S
C257 C105 1.270 . S
C267 C35 1.274 . S
C281 C49 1.325 . S
C291 C63 1.349 . S
C305 C59 1.687 . S
C315 C8 1.751 . S
C329 C22 1.767 . S
C339 C73 1.670 . S
C353 C36 1.728 . S
C363 C87 1.737 . S
C377 C50 1.758 . S
C387 C101 1.658 . S
C401 C3 1.738 . S
C411 C64 1.714 . S
C425 C78 1.754 . S
C435 C17 1.721 . S
C449 C92 1.756 . S
C459 C31 1.715 . S
C473 C45 1.712 . S
C483 C106 1.760 . S
