# Generated by pormake.
# Topology umr, (4)-cn, num edge types: 1
# Building blocks:
#     Node 0, Type 0, BuildingBlock: NAHDIM_clean_sbu_0, # of connection points: 4
#     Node 1, Type 0, BuildingBlock: NAHDIM_clean_sbu_0, # of connection points: 4
#     Node 2, Type 0, BuildingBlock: NAHDIM_clean_sbu_0, # of connection points: 4
#     Node 3, Type 0, BuildingBlock: NAHDIM_clean_sbu_0, # of connection points: 4
#     Node 4, Type 0, BuildingBlock: NAHDIM_clean_sbu_0, # of connection points: 4
#     Node 5, Type 0, BuildingBlock: NAHDIM_clean_sbu_0, # of connection points: 4
#     Node 6, Type 0, BuildingBlock: NAHDIM_clean_sbu_0, # of connection points: 4
#     Node 7, Type 0, BuildingBlock: NAHDIM_clean_sbu_0, # of connection points: 4
#     Node 8, Type 0, BuildingBlock: NAHDIM_clean_sbu_0, # of connection points: 4
#     Node 9, Type 0, BuildingBlock: NAHDIM_clean_sbu_0, # of connection points: 4
#     Node 10, Type 0, BuildingBlock: NAHDIM_clean_sbu_0, # of connection points: 4
#     Node 11, Type 0, BuildingBlock: NAHDIM_clean_sbu_0, # of connection points: 4
#     Node 12, Type 0, BuildingBlock: NAHDIM_clean_sbu_0, # of connection points: 4
#     Node 13, Type 0, BuildingBlock: NAHDIM_clean_sbu_0, # of connection points: 4
#     Node 14, Type 0, BuildingBlock: NAHDIM_clean_sbu_0, # of connection points: 4
#     Node 15, Type 0, BuildingBlock: NAHDIM_clean_sbu_0, # of connection points: 4
#     Node 16, Type 0, BuildingBlock: NAHDIM_clean_sbu_0, # of connection points: 4
#     Node 17, Type 0, BuildingBlock: NAHDIM_clean_sbu_0, # of connection points: 4
#     Node 18, Type 0, BuildingBlock: NAHDIM_clean_sbu_0, # of connection points: 4
#     Node 19, Type 0, BuildingBlock: NAHDIM_clean_sbu_0, # of connection points: 4
#     Node 20, Type 0, BuildingBlock: NAHDIM_clean_sbu_0, # of connection points: 4
#     Node 21, Type 0, BuildingBlock: NAHDIM_clean_sbu_0, # of connection points: 4
#     Node 22, Type 0, BuildingBlock: NAHDIM_clean_sbu_0, # of connection points: 4
#     Node 23, Type 0, BuildingBlock: NAHDIM_clean_sbu_0, # of connection points: 4
#     Node 24, Type 0, BuildingBlock: NAHDIM_clean_sbu_0, # of connection points: 4
#     Node 25, Type 0, BuildingBlock: NAHDIM_clean_sbu_0, # of connection points: 4
#     Node 26, Type 0, BuildingBlock: NAHDIM_clean_sbu_0, # of connection points: 4
#     Node 27, Type 0, BuildingBlock: NAHDIM_clean_sbu_0, # of connection points: 4
#     Node 28, Type 0, BuildingBlock: NAHDIM_clean_sbu_0, # of connection points: 4
#     Node 29, Type 0, BuildingBlock: NAHDIM_clean_sbu_0, # of connection points: 4
#     Node 30, Type 0, BuildingBlock: NAHDIM_clean_sbu_0, # of connection points: 4
#     Node 31, Type 0, BuildingBlock: NAHDIM_clean_sbu_0, # of connection points: 4
#     Edge 32, Type (0, 0), None
#     Edge 33, Type (0, 0), None
#     Edge 34, Type (0, 0), None
#     Edge 35, Type (0, 0), None
#     Edge 36, Type (0, 0), None
#     Edge 37, Type (0, 0), None
#     Edge 38, Type (0, 0), None
#     Edge 39, Type (0, 0), None
#     Edge 40, Type (0, 0), None
#     Edge 41, Type (0, 0), None
#     Edge 42, Type (0, 0), None
#     Edge 43, Type (0, 0), None
#     Edge 44, Type (0, 0), None
#     Edge 45, Type (0, 0), None
#     Edge 46, Type (0, 0), None
#     Edge 47, Type (0, 0), None
#     Edge 48, Type (0, 0), None
#     Edge 49, Type (0, 0), None
#     Edge 50, Type (0, 0), None
#     Edge 51, Type (0, 0), None
#     Edge 52, Type (0, 0), None
#     Edge 53, Type (0, 0), None
#     Edge 54, Type (0, 0), None
#     Edge 55, Type (0, 0), None
#     Edge 56, Type (0, 0), None
#     Edge 57, Type (0, 0), None
#     Edge 58, Type (0, 0), None
#     Edge 59, Type (0, 0), None
#     Edge 60, Type (0, 0), None
#     Edge 61, Type (0, 0), None
#     Edge 62, Type (0, 0), None
#     Edge 63, Type (0, 0), None
#     Edge 64, Type (0, 0), None
#     Edge 65, Type (0, 0), None
#     Edge 66, Type (0, 0), None
#     Edge 67, Type (0, 0), None
#     Edge 68, Type (0, 0), None
#     Edge 69, Type (0, 0), None
#     Edge 70, Type (0, 0), None
#     Edge 71, Type (0, 0), None
#     Edge 72, Type (0, 0), None
#     Edge 73, Type (0, 0), None
#     Edge 74, Type (0, 0), None
#     Edge 75, Type (0, 0), None
#     Edge 76, Type (0, 0), None
#     Edge 77, Type (0, 0), None
#     Edge 78, Type (0, 0), None
#     Edge 79, Type (0, 0), None
#     Edge 80, Type (0, 0), None
#     Edge 81, Type (0, 0), None
#     Edge 82, Type (0, 0), None
#     Edge 83, Type (0, 0), None
#     Edge 84, Type (0, 0), None
#     Edge 85, Type (0, 0), None
#     Edge 86, Type (0, 0), None
#     Edge 87, Type (0, 0), None
#     Edge 88, Type (0, 0), None
#     Edge 89, Type (0, 0), None
#     Edge 90, Type (0, 0), None
#     Edge 91, Type (0, 0), None
#     Edge 92, Type (0, 0), None
#     Edge 93, Type (0, 0), None
#     Edge 94, Type (0, 0), None
#     Edge 95, Type (0, 0), None
# Relax obj value: 0.118
# Max RMSD: 0.121
# Mean RMSD: 0.121
data_MOF--net-umr--node1-NAHDIM_clean_sbu_0--edge1-none
_symmetry_space_group_name_H-M    P1
_symmetry_Int_Tables_number       1
_symmetry_cell_setting            triclinic
loop_
_symmetry_equiv_pos_as_xyz
'x, y, z'
_cell_length_a     41.922544
_cell_length_b     41.923708
_cell_length_c     10.332128
_cell_angle_alpha  90.013845
_cell_angle_beta   89.999417
_cell_angle_gamma 89.998579
loop_
_atom_site_label
_atom_site_type_symbol
_atom_site_fract_x
_atom_site_fract_y
_atom_site_fract_z
_atom_type_partial_charge
C0 C 0.10018 0.32174 0.09879 0.0
O1 O 0.09307 0.29134 0.08878 0.0
O2 O 0.15773 0.27038 0.88149 0.0
Zn3 Zn 0.15846 0.293 0.05409 0.0
O4 O 0.14683 0.26421 0.20555 0.0
C5 C 0.22141 0.27859 0.06202 0.0
O6 O 0.20627 0.25123 0.0685 0.0
O7 O 0.12855 0.33075 0.07471 0.0
C8 C 0.13795 0.23524 0.21319 0.0
O9 O 0.13764 0.21706 0.10988 0.0
C10 C 0.1391 0.25031 0.82962 0.0
O11 O 0.1119 0.24305 0.88522 0.0
O12 O 0.20535 0.30433 0.06443 0.0
C13 C 0.89521 0.84998 0.34955 0.0
O14 O 0.92557 0.84277 0.339 0.0
O15 O 0.94634 0.90715 0.12989 0.0
Zn16 Zn 0.92409 0.90808 0.3033 0.0
O17 O 0.95303 0.8964 0.45426 0.0
C18 C 0.93869 0.97102 0.31091 0.0
O19 O 0.96605 0.95584 0.31636 0.0
O20 O 0.88625 0.87835 0.32515 0.0
C21 C 0.98216 0.8881 0.46222 0.0
O22 O 0.00052 0.88854 0.35944 0.0
C23 C 0.96678 0.88871 0.07923 0.0
O24 O 0.97465 0.86194 0.13683 0.0
O25 O 0.91293 0.955 0.31392 0.0
C26 C 0.3677 0.64537 0.59865 0.0
O27 O 0.3749 0.67572 0.58752 0.0
O28 O 0.31057 0.69604 0.37713 0.0
Zn29 Zn 0.3096 0.67415 0.55127 0.0
O30 O 0.32123 0.70333 0.70167 0.0
C31 C 0.24659 0.68865 0.55768 0.0
O32 O 0.26169 0.71606 0.56223 0.0
O33 O 0.33934 0.63636 0.57423 0.0
C34 C 0.32915 0.73256 0.70987 0.0
O35 O 0.32822 0.75102 0.60744 0.0
C36 C 0.32879 0.71678 0.32718 0.0
O37 O 0.35523 0.72517 0.3861 0.0
O38 O 0.26269 0.66294 0.56184 0.0
C39 C 0.57219 0.11773 0.85325 0.0
O40 O 0.54184 0.12499 0.84253 0.0
O41 O 0.52139 0.06086 0.63148 0.0
Zn42 Zn 0.54324 0.05972 0.8057 0.0
O43 O 0.5141 0.07136 0.95623 0.0
C44 C 0.52855 -0.00326 0.81102 0.0
O45 O 0.50117 0.0119 0.81538 0.0
O46 O 0.58112 0.08936 0.82869 0.0
C47 C 0.48479 0.07899 0.9646 0.0
O48 O 0.46626 0.0777 0.86244 0.0
C49 C 0.50047 0.07897 0.58217 0.0
O50 O 0.49181 0.1052 0.64202 0.0
O51 O 0.55429 0.01276 0.81579 0.0
C52 C 0.09438 0.64194 0.39324 0.0
O53 O 0.08383 0.67129 0.40477 0.0
O54 O 0.13558 0.69135 0.65919 0.0
Zn55 Zn 0.14758 0.67538 0.47946 0.0
O56 O 0.13533 0.70759 0.33969 0.0
C57 C 0.21172 0.68905 0.55035 0.0
O58 O 0.19689 0.71421 0.59538 0.0
O59 O 0.12278 0.63559 0.42848 0.0
C60 C 0.15036 0.73212 0.30169 0.0
O61 O 0.17793 0.73939 0.35414 0.0
C62 C 0.13233 0.72114 0.67818 0.0
O63 O 0.1311 0.74048 0.57852 0.0
O64 O 0.19593 0.66795 0.48872 0.0
C65 C 0.57508 0.84449 0.64682 0.0
O66 O 0.54573 0.83394 0.65831 0.0
O67 O 0.52576 0.88589 0.91286 0.0
Zn68 Zn 0.54164 0.89773 0.73282 0.0
O69 O 0.50942 0.88548 0.59288 0.0
C70 C 0.52806 0.96187 0.80343 0.0
O71 O 0.50287 0.94708 0.84835 0.0
O72 O 0.58143 0.87289 0.68198 0.0
C73 C 0.48451 0.90011 0.5562 0.0
O74 O 0.4767 0.92732 0.61046 0.0
C75 C 0.49601 0.8825 0.93235 0.0
O76 O 0.4766 0.88095 0.83301 0.0
O77 O 0.54915 0.94606 0.74187 0.0
C78 C 0.37357 0.32509 0.89444 0.0
O79 O 0.38416 0.29573 0.90491 0.0
O80 O 0.33269 0.27538 0.16087 0.0
Zn81 Zn 0.32044 0.29157 0.98176 0.0
O82 O 0.33254 0.25931 0.842 0.0
C83 C 0.25628 0.27807 0.05398 0.0
O84 O 0.27105 0.25284 0.0985 0.0
O85 O 0.34523 0.33137 0.93067 0.0
C86 C 0.31684 0.2354 0.802 0.0
O87 O 0.28873 0.22909 0.85174 0.0
C88 C 0.3355 0.24551 0.17897 0.0
O89 O 0.33605 0.2263 0.07878 0.0
O90 O 0.27208 0.29912 0.99211 0.0
C91 C 0.89246 0.12337 0.14681 0.0
O92 O 0.92183 0.13387 0.15828 0.0
O93 O 0.94183 0.08207 0.41235 0.0
Zn94 Zn 0.92581 0.07007 0.23271 0.0
O95 O 0.95807 0.08224 0.09301 0.0
C96 C 0.93923 0.00589 0.30365 0.0
O97 O 0.96442 0.02061 0.34882 0.0
O98 O 0.88608 0.09497 0.18191 0.0
C99 C 0.9824 0.06696 0.05443 0.0
O100 O -0.01068 0.03921 0.10605 0.0
C101 C 0.97165 0.08513 0.4311 0.0
O102 O -0.00905 0.08612 0.3313 0.0
O103 O 0.91821 0.02175 0.24194 0.0
C104 C 0.86771 0.6455 0.92 0.0
O105 O 0.87488 0.67586 0.93136 0.0
O106 O 0.81061 0.6962 0.14123 0.0
Zn107 Zn 0.80958 0.67427 0.96712 0.0
O108 O 0.82119 0.70341 0.81663 0.0
C109 C 0.7466 0.68889 0.96136 0.0
O110 O 0.76176 0.71626 0.95678 0.0
O111 O 0.83934 0.63647 0.94411 0.0
C112 C 0.82909 0.73264 0.80844 0.0
O113 O 0.82816 0.75111 0.91088 0.0
C114 C 0.8288 0.71697 0.19112 0.0
O115 O 0.85521 0.72541 0.13212 0.0
O116 O 0.76263 0.66314 0.95688 0.0
C117 C 0.07203 0.11741 0.67223 0.0
O118 O 0.04167 0.12457 0.68339 0.0
O119 O 0.02109 0.06018 0.89204 0.0
Zn120 Zn 0.04327 0.05925 0.71848 0.0
O121 O 0.01427 0.07092 0.5677 0.0
C122 C 0.02869 -0.00369 0.71102 0.0
O123 O 0.00132 0.01148 0.7058 0.0
O124 O 0.08106 0.08904 0.69627 0.0
C125 C -0.01486 0.07921 0.55974 0.0
O126 O 0.96678 0.07875 0.66251 0.0
C127 C 0.00063 0.0786 0.94269 0.0
O128 O -0.0073 0.10534 0.88499 0.0
O129 O 0.05444 0.01233 0.7078 0.0
C130 C 0.59987 0.32227 0.42229 0.0
O131 O 0.59263 0.29193 0.43375 0.0
O132 O 0.65678 0.27165 0.6448 0.0
Zn133 Zn 0.65789 0.29343 0.47041 0.0
O134 O 0.64623 0.26422 0.32015 0.0
C135 C 0.72088 0.27883 0.4642 0.0
O136 O 0.70576 0.25142 0.46013 0.0
O137 O 0.62822 0.33126 0.44685 0.0
C138 C 0.63853 0.23493 0.31183 0.0
O139 O 0.63975 0.21642 0.41404 0.0
C140 C 0.63862 0.25078 0.69423 0.0
O141 O 0.61235 0.24219 0.63449 0.0
O142 O 0.70481 0.30454 0.4598 0.0
C143 C 0.3951 0.8498 0.17085 0.0
O144 O 0.42543 0.84254 0.18246 0.0
O145 O 0.44562 0.90656 0.39433 0.0
Zn146 Zn 0.42399 0.90777 0.21961 0.0
O147 O 0.45328 0.89612 0.06954 0.0
C148 C 0.43871 0.97076 0.21472 0.0
O149 O 0.46609 0.95559 0.21099 0.0
O150 O 0.38612 0.87815 0.19548 0.0
C151 C 0.4826 0.88855 0.06111 0.0
O152 O 0.50116 0.88995 0.16316 0.0
C153 C 0.46664 0.88851 0.4434 0.0
O154 O 0.47548 0.86242 0.38301 0.0
O155 O 0.41297 0.95473 0.20941 0.0
C156 C 0.87329 0.32543 0.62546 0.0
O157 O 0.8838 0.29606 0.61391 0.0
O158 O 0.83177 0.27602 0.36113 0.0
Zn159 Zn 0.81995 0.29199 0.54102 0.0
O160 O 0.83227 0.25983 0.68093 0.0
C161 C 0.75576 0.27839 0.47102 0.0
O162 O 0.77053 0.25324 0.42565 0.0
O163 O 0.84483 0.33178 0.59111 0.0
C164 C 0.81737 0.23516 0.71841 0.0
O165 O 0.78993 0.22771 0.66523 0.0
C166 C 0.8351 0.24625 0.34194 0.0
O167 O 0.83652 0.22689 0.44148 0.0
O168 O 0.77161 0.29948 0.53246 0.0
C169 C 0.39212 0.12311 0.37732 0.0
O170 O 0.42149 0.13363 0.36607 0.0
O171 O 0.44158 0.08163 0.11255 0.0
Zn172 Zn 0.42559 0.0698 0.2924 0.0
O173 O 0.45774 0.08209 0.43249 0.0
C174 C 0.43919 0.00563 0.22205 0.0
O175 O 0.46438 0.0204 0.17715 0.0
O176 O 0.38579 0.09467 0.34256 0.0
C177 C 0.48253 0.06735 0.4696 0.0
O178 O 0.49018 0.04003 0.41588 0.0
C179 C 0.47135 0.08499 0.09332 0.0
O180 O 0.49073 0.08646 0.1928 0.0
O181 O 0.41808 0.02146 0.28346 0.0
C182 C 0.59433 0.64237 0.12585 0.0
O183 O 0.58378 0.67173 0.11474 0.0
O184 O 0.63561 0.69186 0.86034 0.0
Zn185 Zn 0.64758 0.67585 0.04003 0.0
O186 O 0.63535 0.70804 0.18005 0.0
C187 C 0.71173 0.68939 0.96902 0.0
O188 O 0.69695 0.7146 0.92426 0.0
O189 O 0.62274 0.63605 0.09059 0.0
C190 C 0.65026 0.73268 0.21772 0.0
O191 O 0.67773 0.7401 0.16477 0.0
C192 C 0.63238 0.72165 0.84134 0.0
O193 O 0.63114 0.74099 0.94099 0.0
O194 O 0.69592 0.66832 0.03063 0.0
C195 C 0.07498 0.84392 0.87454 0.0
O196 O 0.04561 0.8334 0.86336 0.0
O197 O 0.02549 0.88524 0.60952 0.0
Zn198 Zn 0.04157 0.89723 0.78908 0.0
O199 O 0.00934 0.88504 0.92889 0.0
C200 C 0.02815 0.96144 0.71819 0.0
O201 O 0.00295 0.94672 0.673 0.0
O202 O 0.08132 0.87233 0.83952 0.0
C203 C -0.01496 0.90035 0.96754 0.0
O204 O 0.97815 0.92811 0.91597 0.0
C205 C -0.00433 0.88219 0.59086 0.0
O206 O 0.97636 0.88122 0.69068 0.0
O207 O 0.04917 0.94556 0.77989 0.0
C208 C 0.59979 0.82234 0.60128 0.0
O209 O 0.59257 0.79199 0.59042 0.0
O210 O 0.6568 0.77149 0.37982 0.0
Zn211 Zn 0.65785 0.79345 0.55387 0.0
O212 O 0.64622 0.76435 0.70446 0.0
C213 C 0.72082 0.77881 0.55973 0.0
O214 O 0.70565 0.75144 0.56445 0.0
O215 O 0.62815 0.83131 0.57673 0.0
C216 C 0.63832 0.73512 0.71265 0.0
O217 O 0.63926 0.71665 0.61021 0.0
C218 C 0.6386 0.75072 0.32996 0.0
O219 O 0.61218 0.74231 0.38895 0.0
O220 O 0.70479 0.80456 0.56407 0.0
C221 C 0.39563 0.34989 0.84913 0.0
O222 O 0.426 0.34276 0.83802 0.0
O223 O 0.44647 0.40722 0.62933 0.0
Zn224 Zn 0.42435 0.40809 0.80302 0.0
O225 O 0.45341 0.39645 0.9537 0.0
C226 C 0.43887 0.47106 0.81012 0.0
O227 O 0.46626 0.45592 0.8153 0.0
O228 O 0.38659 0.37826 0.82521 0.0
C229 C 0.48256 0.38822 0.9617 0.0
O230 O 0.50094 0.38873 0.85897 0.0
C231 C 0.46699 0.38888 0.5787 0.0
O232 O 0.47503 0.36218 0.63648 0.0
O233 O 0.41314 0.45501 0.81365 0.0
C234 C 0.86777 0.14553 0.10141 0.0
O235 O 0.87501 0.17588 0.09061 0.0
O236 O 0.81077 0.19635 0.88039 0.0
Zn237 Zn 0.80971 0.17441 0.0544 0.0
O238 O 0.82138 0.20351 0.20498 0.0
C239 C 0.74672 0.189 0.06094 0.0
O240 O 0.76184 0.2164 0.06547 0.0
O241 O 0.8394 0.13658 0.07701 0.0
C242 C 0.82912 0.23278 0.21325 0.0
O243 O 0.82795 0.25128 0.11098 0.0
C244 C 0.82897 0.21715 0.83077 0.0
O245 O 0.85534 0.22561 0.89009 0.0
O246 O 0.76279 0.16328 0.06494 0.0
C247 C 0.07223 0.61723 0.34789 0.0
O248 O 0.04186 0.62442 0.33755 0.0
O249 O 0.021 0.55999 0.12845 0.0
Zn250 Zn 0.04338 0.5591 0.30158 0.0
O251 O 0.01446 0.57076 0.45271 0.0
C252 C 0.02886 0.49616 0.30888 0.0
O253 O 0.00149 0.51132 0.31468 0.0
O254 O 0.0812 0.58887 0.32325 0.0
C255 C -0.01457 0.57942 0.46053 0.0
O256 O 0.96716 0.5794 0.35748 0.0
C257 C 0.00076 0.57855 0.07726 0.0
O258 O -0.00682 0.60552 0.13403 0.0
O259 O 0.0546 0.51219 0.31189 0.0
C260 C 0.59437 0.14242 0.89861 0.0
O261 O 0.58385 0.17177 0.9104 0.0
O262 O 0.63585 0.19174 0.16377 0.0
Zn263 Zn 0.64768 0.17584 0.98374 0.0
O264 O 0.63539 0.20806 0.84392 0.0
C265 C 0.71185 0.18943 0.05394 0.0
O266 O 0.69706 0.21458 0.09932 0.0
O267 O 0.62282 0.13606 0.93317 0.0
C268 C 0.6502 0.23281 0.80678 0.0
O269 O 0.67756 0.24039 0.86037 0.0
C270 C 0.6325 0.2215 0.18312 0.0
O271 O 0.63102 0.24089 0.08371 0.0
O272 O 0.69601 0.16836 0.99238 0.0
C273 C 0.07537 0.34388 0.14332 0.0
O274 O 0.046 0.33332 0.15389 0.0
O275 O 0.02566 0.38497 0.40877 0.0
Zn276 Zn 0.04185 0.3971 0.22956 0.0
O277 O 0.00963 0.38494 0.08974 0.0
C278 C 0.02833 0.46129 0.30118 0.0
O279 O 0.0031 0.44654 0.34588 0.0
O280 O 0.08165 0.37226 0.17896 0.0
C281 C -0.01437 0.40056 0.05007 0.0
O282 O 0.97921 0.42859 0.10026 0.0
C283 C -0.0042 0.3821 0.42702 0.0
O284 O 0.97657 0.38142 0.32692 0.0
O285 O 0.04939 0.44545 0.23948 0.0
C286 C 0.87305 0.82527 0.39485 0.0
O287 O 0.88359 0.79591 0.40616 0.0
O288 O 0.8318 0.77589 0.66071 0.0
Zn289 Zn 0.81982 0.79186 0.48099 0.0
O290 O 0.83204 0.75965 0.34105 0.0
C291 C 0.75568 0.77831 0.55201 0.0
O292 O 0.77047 0.7531 0.59674 0.0
O293 O 0.84466 0.83163 0.43017 0.0
C294 C 0.81713 0.735 0.3034 0.0
O295 O 0.78966 0.72756 0.35634 0.0
C296 C 0.83504 0.7461 0.67974 0.0
O297 O 0.8363 0.72674 0.58014 0.0
O298 O 0.77149 0.79939 0.49041 0.0
C299 C 0.39242 0.62328 0.64445 0.0
O300 O 0.42177 0.63384 0.65575 0.0
O301 O 0.44187 0.58217 0.91076 0.0
Zn302 Zn 0.42584 0.57009 0.73119 0.0
O303 O 0.45809 0.58226 0.59145 0.0
C304 C 0.43936 0.50593 0.80258 0.0
O305 O 0.46456 0.52071 0.8475 0.0
O306 O 0.38608 0.5949 0.68005 0.0
C307 C 0.48246 0.56704 0.5529 0.0
O308 O 0.48945 0.53931 0.60457 0.0
C309 C 0.47169 0.58526 0.92948 0.0
O310 O 0.49099 0.58626 0.82966 0.0
O311 O 0.41831 0.52175 0.7408 0.0
C312 C 0.36737 0.14533 0.42172 0.0
O313 O 0.37454 0.17572 0.43129 0.0
O314 O 0.30991 0.19683 0.63926 0.0
Zn315 Zn 0.30916 0.17419 0.4667 0.0
O316 O 0.32081 0.20296 0.31516 0.0
C317 C 0.24622 0.18863 0.45867 0.0
O318 O 0.26136 0.21599 0.4521 0.0
O319 O 0.339 0.13639 0.44621 0.0
C320 C 0.32968 0.23193 0.30752 0.0
O321 O 0.32996 0.25012 0.41081 0.0
C322 C 0.32855 0.2169 0.69108 0.0
O323 O 0.35575 0.22416 0.63543 0.0
O324 O 0.26227 0.16289 0.45639 0.0
C325 C 0.57218 0.61763 0.17087 0.0
O326 O 0.54181 0.62481 0.18138 0.0
O327 O 0.52116 0.56035 0.39051 0.0
Zn328 Zn 0.54335 0.55948 0.21698 0.0
O329 O 0.51435 0.57114 0.06612 0.0
C330 C 0.52881 0.49652 0.2097 0.0
O331 O 0.50143 0.51166 0.20429 0.0
O332 O 0.58116 0.58926 0.19514 0.0
C333 C 0.4852 0.57938 0.05814 0.0
O334 O 0.46683 0.57888 0.16089 0.0
C335 C 0.50066 0.57872 0.44117 0.0
O336 O 0.49268 0.60545 0.3835 0.0
O337 O 0.55455 0.51257 0.20641 0.0
C338 C 0.09972 0.82175 0.91946 0.0
O339 O 0.09253 0.79138 0.92994 0.0
O340 O 0.15695 0.77088 0.1395 0.0
Zn341 Zn 0.15787 0.79292 0.96574 0.0
O342 O 0.14622 0.76386 0.81501 0.0
C343 C 0.22087 0.77845 0.959 0.0
O344 O 0.20578 0.75104 0.954 0.0
O345 O 0.1281 0.83072 0.9437 0.0
C346 C 0.13826 0.73464 0.80687 0.0
O347 O 0.13914 0.7162 0.90936 0.0
C348 C 0.13869 0.75021 0.18964 0.0
O349 O 0.11215 0.74195 0.13112 0.0
O350 O 0.20477 0.80415 0.95523 0.0
C351 C 0.89554 0.35016 0.6698 0.0
O352 O 0.92593 0.34297 0.67925 0.0
O353 O 0.94704 0.4075 0.88753 0.0
Zn354 Zn 0.92445 0.40833 0.71491 0.0
O355 O 0.95321 0.39666 0.56335 0.0
C356 C 0.93894 0.47127 0.70718 0.0
O357 O 0.9663 0.45611 0.70077 0.0
O358 O 0.88662 0.37854 0.69436 0.0
C359 C 0.98223 0.38796 0.55559 0.0
O360 O 0.00047 0.38789 0.65873 0.0
C361 C 0.96719 0.38889 0.93896 0.0
O362 O 0.97458 0.36179 0.88275 0.0
O363 O 0.91319 0.45523 0.70472 0.0
C364 C 0.37302 0.82513 0.12448 0.0
O365 O 0.38359 0.79579 0.11271 0.0
O366 O 0.33187 0.77581 0.85773 0.0
Zn367 Zn 0.31986 0.7917 0.0376 0.0
O368 O 0.33208 0.75943 0.17727 0.0
C369 C 0.25574 0.77804 0.9665 0.0
O370 O 0.27057 0.75289 0.92145 0.0
O371 O 0.34463 0.83149 0.08904 0.0
C372 C 0.31714 0.73481 0.21493 0.0
O373 O 0.28965 0.72743 0.16208 0.0
C374 C 0.33514 0.74602 0.83858 0.0
O375 O 0.33642 0.72666 0.93812 0.0
O376 O 0.27151 0.79913 0.02825 0.0
C377 C 0.89248 0.62344 0.87433 0.0
O378 O 0.92183 0.63403 0.86354 0.0
O379 O 0.94206 0.58244 0.60761 0.0
Zn380 Zn 0.92597 0.57029 0.78702 0.0
O381 O 0.95827 0.58241 0.9267 0.0
C382 C 0.93947 0.50613 0.7151 0.0
O383 O 0.96468 0.52089 0.67032 0.0
O384 O 0.88618 0.59509 0.83828 0.0
C385 C 0.98238 0.5669 0.96589 0.0
O386 O -0.01102 0.53897 0.91513 0.0
C387 C 0.97191 0.58533 0.58914 0.0
O388 O -0.00882 0.58609 0.68909 0.0
O389 O 0.91844 0.52195 0.777 0.0
C390 C 0.09409 0.14217 0.62663 0.0
O391 O 0.08352 0.17153 0.61596 0.0
O392 O 0.13494 0.19179 0.35985 0.0
Zn393 Zn 0.14721 0.17564 0.53899 0.0
O394 O 0.13512 0.20792 0.67866 0.0
C395 C 0.21135 0.18915 0.46677 0.0
O396 O 0.19658 0.21439 0.42228 0.0
O397 O 0.12242 0.13586 0.59034 0.0
C398 C 0.15082 0.23183 0.71869 0.0
O399 O 0.17894 0.23813 0.66904 0.0
C400 C 0.13213 0.22166 0.34174 0.0
O401 O 0.13157 0.24088 0.4419 0.0
O402 O 0.19556 0.1681 0.52861 0.0
C403 C 0.5752 0.34435 0.37599 0.0
O404 O 0.54585 0.3338 0.36442 0.0
O405 O 0.52587 0.38542 0.10915 0.0
Zn406 Zn 0.54184 0.39752 0.28879 0.0
O407 O 0.50956 0.38537 0.42843 0.0
C408 C 0.52832 0.46165 0.21734 0.0
O409 O 0.50313 0.44687 0.17244 0.0
O410 O 0.58158 0.37271 0.34029 0.0
C411 C 0.48517 0.40056 0.46689 0.0
O412 O 0.47813 0.42827 0.41513 0.0
C413 C 0.49606 0.38231 0.09036 0.0
O414 O 0.47674 0.38129 0.19012 0.0
O415 O 0.54937 0.44585 0.27914 0.0
loop_
_geom_bond_atom_site_label_1
_geom_bond_atom_site_label_2
_geom_bond_distance
_geom_bond_site_symmetry_2
_ccdc_geom_bond_type
C0 O1 1.160 . S
C0 O7 1.185 . S
O1 C0 1.160 . S
O2 Zn3 1.899 1_556 S
O2 C10 1.284 . S
Zn3 O2 1.899 1_554 S
Zn3 O4 2.032 . S
Zn3 O7 2.086 . S
Zn3 O12 1.977 . S
O4 Zn3 2.032 . S
O4 C8 1.278 . S
C5 O6 1.203 1_554 S
C5 O12 1.267 . S
O6 C5 1.203 1_556 S
O7 C0 1.185 . S
O7 Zn3 2.086 . S
C8 O4 1.278 . S
C8 O9 1.211 . S
O9 C8 1.211 . S
C10 O2 1.284 . S
C10 O11 1.273 . S
O11 C10 1.273 . S
O12 Zn3 1.977 . S
O12 C5 1.267 . S
C13 O14 1.160 . S
C13 O20 1.185 . S
O14 C13 1.160 . S
O15 Zn16 1.899 . S
O15 C23 1.284 . S
Zn16 O15 1.899 . S
Zn16 O17 2.032 . S
Zn16 O20 2.086 . S
Zn16 O25 1.977 . S
O17 Zn16 2.032 . S
O17 C21 1.278 . S
C18 O19 1.203 . S
C18 O25 1.267 . S
O19 C18 1.203 . S
O20 C13 1.185 . S
O20 Zn16 2.086 . S
C21 O17 1.278 . S
C21 O22 1.211 1_655 S
O22 C21 1.211 1_455 S
C23 O15 1.284 . S
C23 O24 1.273 1_655 S
O24 C23 1.273 1_455 S
O25 Zn16 1.977 . S
O25 C18 1.267 . S
C26 O27 1.160 . S
C26 O33 1.185 . S
O27 C26 1.160 . S
O28 Zn29 1.899 . S
O28 C36 1.284 . S
Zn29 O28 1.899 . S
Zn29 O30 2.032 . S
Zn29 O33 2.086 . S
Zn29 O38 1.977 . S
O30 Zn29 2.032 . S
O30 C34 1.278 . S
C31 O32 1.203 . S
C31 O38 1.267 . S
O32 C31 1.203 . S
O33 C26 1.185 . S
O33 Zn29 2.086 . S
C34 O30 1.278 . S
C34 O35 1.211 . S
O35 C34 1.211 . S
C36 O28 1.284 . S
C36 O37 1.273 . S
O37 C36 1.273 . S
O38 Zn29 1.977 . S
O38 C31 1.267 . S
C39 O40 1.160 . S
C39 O46 1.185 . S
O40 C39 1.160 . S
O41 Zn42 1.899 . S
O41 C49 1.284 . S
Zn42 O41 1.899 . S
Zn42 O43 2.032 . S
Zn42 O46 2.086 . S
Zn42 O51 1.977 . S
O43 Zn42 2.032 . S
O43 C47 1.278 1_556 S
C44 O45 1.203 . S
C44 O51 1.267 . S
O45 C44 1.203 . S
O46 C39 1.185 . S
O46 Zn42 2.086 . S
C47 O43 1.278 1_554 S
C47 O48 1.211 1_554 S
O48 C47 1.211 1_556 S
C49 O41 1.284 . S
C49 O50 1.273 . S
O50 C49 1.273 . S
O51 Zn42 1.977 . S
O51 C44 1.267 . S
C52 O53 1.160 . S
C52 O59 1.185 . S
O53 C52 1.160 . S
O54 Zn55 1.899 . S
O54 C62 1.284 . S
Zn55 O54 1.899 . S
Zn55 O56 2.032 . S
Zn55 O59 2.086 . S
Zn55 O64 1.977 . S
O56 Zn55 2.032 . S
O56 C60 1.278 . S
C57 O58 1.203 . S
C57 O64 1.267 . S
O58 C57 1.203 . S
O59 C52 1.185 . S
O59 Zn55 2.086 . S
C60 O56 1.278 . S
C60 O61 1.211 . S
O61 C60 1.211 . S
C62 O54 1.284 . S
C62 O63 1.273 . S
O63 C62 1.273 . S
O64 Zn55 1.977 . S
O64 C57 1.267 . S
C65 O66 1.160 . S
C65 O72 1.185 . S
O66 C65 1.160 . S
O67 Zn68 1.899 . S
O67 C75 1.284 . S
Zn68 O67 1.899 . S
Zn68 O69 2.032 . S
Zn68 O72 2.086 . S
Zn68 O77 1.977 . S
O69 Zn68 2.032 . S
O69 C73 1.278 . S
C70 O71 1.203 . S
C70 O77 1.267 . S
O71 C70 1.203 . S
O72 C65 1.185 . S
O72 Zn68 2.086 . S
C73 O69 1.278 . S
C73 O74 1.211 . S
O74 C73 1.211 . S
C75 O67 1.284 . S
C75 O76 1.273 . S
O76 C75 1.273 . S
O77 Zn68 1.977 . S
O77 C70 1.267 . S
C78 O79 1.160 . S
C78 O85 1.185 . S
O79 C78 1.160 . S
O80 Zn81 1.899 1_554 S
O80 C88 1.284 . S
Zn81 O80 1.899 1_556 S
Zn81 O82 2.032 . S
Zn81 O85 2.086 . S
Zn81 O90 1.977 . S
O82 Zn81 2.032 . S
O82 C86 1.278 . S
C83 O84 1.203 1_556 S
C83 O90 1.267 . S
O84 C83 1.203 1_554 S
O85 C78 1.185 . S
O85 Zn81 2.086 . S
C86 O82 1.278 . S
C86 O87 1.211 . S
O87 C86 1.211 . S
C88 O80 1.284 . S
C88 O89 1.273 . S
O89 C88 1.273 . S
O90 Zn81 1.977 . S
O90 C83 1.267 . S
C91 O92 1.160 . S
C91 O98 1.185 . S
O92 C91 1.160 . S
O93 Zn94 1.899 . S
O93 C101 1.284 . S
Zn94 O93 1.899 . S
Zn94 O95 2.032 . S
Zn94 O98 2.086 . S
Zn94 O103 1.977 . S
O95 Zn94 2.032 . S
O95 C99 1.278 1_554 S
C96 O97 1.203 . S
C96 O103 1.267 . S
O97 C96 1.203 . S
O98 C91 1.185 . S
O98 Zn94 2.086 . S
C99 O95 1.278 1_556 S
C99 O100 1.211 1_656 S
O100 C99 1.211 1_454 S
C101 O93 1.284 . S
C101 O102 1.273 1_655 S
O102 C101 1.273 1_455 S
O103 Zn94 1.977 . S
O103 C96 1.267 . S
C104 O105 1.160 . S
C104 O111 1.185 . S
O105 C104 1.160 . S
O106 Zn107 1.899 1_554 S
O106 C114 1.284 . S
Zn107 O106 1.899 1_556 S
Zn107 O108 2.032 . S
Zn107 O111 2.086 . S
Zn107 O116 1.977 . S
O108 Zn107 2.032 . S
O108 C112 1.278 . S
C109 O110 1.203 1_556 S
C109 O116 1.267 . S
O110 C109 1.203 1_554 S
O111 C104 1.185 . S
O111 Zn107 2.086 . S
C112 O108 1.278 . S
C112 O113 1.211 . S
O113 C112 1.211 . S
C114 O106 1.284 . S
C114 O115 1.273 . S
O115 C114 1.273 . S
O116 Zn107 1.977 . S
O116 C109 1.267 . S
C117 O118 1.160 . S
C117 O124 1.185 . S
O118 C117 1.160 . S
O119 Zn120 1.899 . S
O119 C127 1.284 . S
Zn120 O119 1.899 . S
Zn120 O121 2.032 . S
Zn120 O124 2.086 . S
Zn120 O129 1.977 . S
O121 Zn120 2.032 . S
O121 C125 1.278 . S
C122 O123 1.203 . S
C122 O129 1.267 . S
O123 C122 1.203 . S
O124 C117 1.185 . S
O124 Zn120 2.086 . S
C125 O121 1.278 . S
C125 O126 1.211 1_455 S
O126 C125 1.211 1_655 S
C127 O119 1.284 . S
C127 O128 1.273 1_455 S
O128 C127 1.273 1_655 S
O129 Zn120 1.977 . S
O129 C122 1.267 . S
C130 O131 1.160 . S
C130 O137 1.185 . S
O131 C130 1.160 . S
O132 Zn133 1.899 . S
O132 C140 1.284 . S
Zn133 O132 1.899 . S
Zn133 O134 2.032 . S
Zn133 O137 2.086 . S
Zn133 O142 1.977 . S
O134 Zn133 2.032 . S
O134 C138 1.278 . S
C135 O136 1.203 . S
C135 O142 1.267 . S
O136 C135 1.203 . S
O137 C130 1.185 . S
O137 Zn133 2.086 . S
C138 O134 1.278 . S
C138 O139 1.211 . S
O139 C138 1.211 . S
C140 O132 1.284 . S
C140 O141 1.273 . S
O141 C140 1.273 . S
O142 Zn133 1.977 . S
O142 C135 1.267 . S
C143 O144 1.160 . S
C143 O150 1.185 . S
O144 C143 1.160 . S
O145 Zn146 1.899 . S
O145 C153 1.284 . S
Zn146 O145 1.899 . S
Zn146 O147 2.032 . S
Zn146 O150 2.086 . S
Zn146 O155 1.977 . S
O147 Zn146 2.032 . S
O147 C151 1.278 1_554 S
C148 O149 1.203 . S
C148 O155 1.267 . S
O149 C148 1.203 . S
O150 C143 1.185 . S
O150 Zn146 2.086 . S
C151 O147 1.278 1_556 S
C151 O152 1.211 1_556 S
O152 C151 1.211 1_554 S
C153 O145 1.284 . S
C153 O154 1.273 . S
O154 C153 1.273 . S
O155 Zn146 1.977 . S
O155 C148 1.267 . S
C156 O157 1.160 . S
C156 O163 1.185 . S
O157 C156 1.160 . S
O158 Zn159 1.899 . S
O158 C166 1.284 . S
Zn159 O158 1.899 . S
Zn159 O160 2.032 . S
Zn159 O163 2.086 . S
Zn159 O168 1.977 . S
O160 Zn159 2.032 . S
O160 C164 1.278 . S
C161 O162 1.203 . S
C161 O168 1.267 . S
O162 C161 1.203 . S
O163 C156 1.185 . S
O163 Zn159 2.086 . S
C164 O160 1.278 . S
C164 O165 1.211 . S
O165 C164 1.211 . S
C166 O158 1.284 . S
C166 O167 1.273 . S
O167 C166 1.273 . S
O168 Zn159 1.977 . S
O168 C161 1.267 . S
C169 O170 1.160 . S
C169 O176 1.185 . S
O170 C169 1.160 . S
O171 Zn172 1.899 . S
O171 C179 1.284 . S
Zn172 O171 1.899 . S
Zn172 O173 2.032 . S
Zn172 O176 2.086 . S
Zn172 O181 1.977 . S
O173 Zn172 2.032 . S
O173 C177 1.278 . S
C174 O175 1.203 . S
C174 O181 1.267 . S
O175 C174 1.203 . S
O176 C169 1.185 . S
O176 Zn172 2.086 . S
C177 O173 1.278 . S
C177 O178 1.211 . S
O178 C177 1.211 . S
C179 O171 1.284 . S
C179 O180 1.273 . S
O180 C179 1.273 . S
O181 Zn172 1.977 . S
O181 C174 1.267 . S
C182 O183 1.160 . S
C182 O189 1.185 . S
O183 C182 1.160 . S
O184 Zn185 1.899 1_556 S
O184 C192 1.284 . S
Zn185 O184 1.899 1_554 S
Zn185 O186 2.032 . S
Zn185 O189 2.086 . S
Zn185 O194 1.977 . S
O186 Zn185 2.032 . S
O186 C190 1.278 . S
C187 O188 1.203 1_554 S
C187 O194 1.267 . S
O188 C187 1.203 1_556 S
O189 C182 1.185 . S
O189 Zn185 2.086 . S
C190 O186 1.278 . S
C190 O191 1.211 . S
O191 C190 1.211 . S
C192 O184 1.284 . S
C192 O193 1.273 . S
O193 C192 1.273 . S
O194 Zn185 1.977 . S
O194 C187 1.267 . S
C195 O196 1.160 . S
C195 O202 1.185 . S
O196 C195 1.160 . S
O197 Zn198 1.899 . S
O197 C205 1.284 . S
Zn198 O197 1.899 . S
Zn198 O199 2.032 . S
Zn198 O202 2.086 . S
Zn198 O207 1.977 . S
O199 Zn198 2.032 . S
O199 C203 1.278 1_556 S
C200 O201 1.203 . S
C200 O207 1.267 . S
O201 C200 1.203 . S
O202 C195 1.185 . S
O202 Zn198 2.086 . S
C203 O199 1.278 1_554 S
C203 O204 1.211 1_454 S
O204 C203 1.211 1_656 S
C205 O197 1.284 . S
C205 O206 1.273 1_455 S
O206 C205 1.273 1_655 S
O207 Zn198 1.977 . S
O207 C200 1.267 . S
C208 O209 1.160 . S
C208 O215 1.185 . S
O209 C208 1.160 . S
O210 Zn211 1.899 . S
O210 C218 1.284 . S
Zn211 O210 1.899 . S
Zn211 O212 2.032 . S
Zn211 O215 2.086 . S
Zn211 O220 1.977 . S
O212 Zn211 2.032 . S
O212 C216 1.278 . S
C213 O214 1.203 . S
C213 O220 1.267 . S
O214 C213 1.203 . S
O215 C208 1.185 . S
O215 Zn211 2.086 . S
C216 O212 1.278 . S
C216 O217 1.211 . S
O217 C216 1.211 . S
C218 O210 1.284 . S
C218 O219 1.273 . S
O219 C218 1.273 . S
O220 Zn211 1.977 . S
O220 C213 1.267 . S
C221 O222 1.160 . S
C221 O228 1.185 . S
O222 C221 1.160 . S
O223 Zn224 1.899 . S
O223 C231 1.284 . S
Zn224 O223 1.899 . S
Zn224 O225 2.032 . S
Zn224 O228 2.086 . S
Zn224 O233 1.977 . S
O225 Zn224 2.032 . S
O225 C229 1.278 1_556 S
C226 O227 1.203 . S
C226 O233 1.267 . S
O227 C226 1.203 . S
O228 C221 1.185 . S
O228 Zn224 2.086 . S
C229 O225 1.278 1_554 S
C229 O230 1.211 1_554 S
O230 C229 1.211 1_556 S
C231 O223 1.284 . S
C231 O232 1.273 . S
O232 C231 1.273 . S
O233 Zn224 1.977 . S
O233 C226 1.267 . S
C234 O235 1.160 . S
C234 O241 1.185 . S
O235 C234 1.160 . S
O236 Zn237 1.899 1_556 S
O236 C244 1.284 . S
Zn237 O236 1.899 1_554 S
Zn237 O238 2.032 . S
Zn237 O241 2.086 . S
Zn237 O246 1.977 . S
O238 Zn237 2.032 . S
O238 C242 1.278 . S
C239 O240 1.203 1_554 S
C239 O246 1.267 . S
O240 C239 1.203 1_556 S
O241 C234 1.185 . S
O241 Zn237 2.086 . S
C242 O238 1.278 . S
C242 O243 1.211 . S
O243 C242 1.211 . S
C244 O236 1.284 . S
C244 O245 1.273 . S
O245 C244 1.273 . S
O246 Zn237 1.977 . S
O246 C239 1.267 . S
C247 O248 1.160 . S
C247 O254 1.185 . S
O248 C247 1.160 . S
O249 Zn250 1.899 . S
O249 C257 1.284 . S
Zn250 O249 1.899 . S
Zn250 O251 2.032 . S
Zn250 O254 2.086 . S
Zn250 O259 1.977 . S
O251 Zn250 2.032 . S
O251 C255 1.278 . S
C252 O253 1.203 . S
C252 O259 1.267 . S
O253 C252 1.203 . S
O254 C247 1.185 . S
O254 Zn250 2.086 . S
C255 O251 1.278 . S
C255 O256 1.211 1_455 S
O256 C255 1.211 1_655 S
C257 O249 1.284 . S
C257 O258 1.273 1_455 S
O258 C257 1.273 1_655 S
O259 Zn250 1.977 . S
O259 C252 1.267 . S
C260 O261 1.160 . S
C260 O267 1.185 . S
O261 C260 1.160 . S
O262 Zn263 1.899 1_554 S
O262 C270 1.284 . S
Zn263 O262 1.899 1_556 S
Zn263 O264 2.032 . S
Zn263 O267 2.086 . S
Zn263 O272 1.977 . S
O264 Zn263 2.032 . S
O264 C268 1.278 . S
C265 O266 1.203 1_556 S
C265 O272 1.267 . S
O266 C265 1.203 1_554 S
O267 C260 1.185 . S
O267 Zn263 2.086 . S
C268 O264 1.278 . S
C268 O269 1.211 . S
O269 C268 1.211 . S
C270 O262 1.284 . S
C270 O271 1.273 . S
O271 C270 1.273 . S
O272 Zn263 1.977 . S
O272 C265 1.267 . S
C273 O274 1.160 . S
C273 O280 1.185 . S
O274 C273 1.160 . S
O275 Zn276 1.899 . S
O275 C283 1.284 . S
Zn276 O275 1.899 . S
Zn276 O277 2.032 . S
Zn276 O280 2.086 . S
Zn276 O285 1.977 . S
O277 Zn276 2.032 . S
O277 C281 1.278 1_554 S
C278 O279 1.203 . S
C278 O285 1.267 . S
O279 C278 1.203 . S
O280 C273 1.185 . S
O280 Zn276 2.086 . S
C281 O277 1.278 1_556 S
C281 O282 1.211 1_456 S
O282 C281 1.211 1_654 S
C283 O275 1.284 . S
C283 O284 1.273 1_455 S
O284 C283 1.273 1_655 S
O285 Zn276 1.977 . S
O285 C278 1.267 . S
C286 O287 1.160 . S
C286 O293 1.185 . S
O287 C286 1.160 . S
O288 Zn289 1.899 . S
O288 C296 1.284 . S
Zn289 O288 1.899 . S
Zn289 O290 2.032 . S
Zn289 O293 2.086 . S
Zn289 O298 1.977 . S
O290 Zn289 2.032 . S
O290 C294 1.278 . S
C291 O292 1.203 . S
C291 O298 1.267 . S
O292 C291 1.203 . S
O293 C286 1.185 . S
O293 Zn289 2.086 . S
C294 O290 1.278 . S
C294 O295 1.211 . S
O295 C294 1.211 . S
C296 O288 1.284 . S
C296 O297 1.273 . S
O297 C296 1.273 . S
O298 Zn289 1.977 . S
O298 C291 1.267 . S
C299 O300 1.160 . S
C299 O306 1.185 . S
O300 C299 1.160 . S
O301 Zn302 1.899 . S
O301 C309 1.284 . S
Zn302 O301 1.899 . S
Zn302 O303 2.032 . S
Zn302 O306 2.086 . S
Zn302 O311 1.977 . S
O303 Zn302 2.032 . S
O303 C307 1.278 . S
C304 O305 1.203 . S
C304 O311 1.267 . S
O305 C304 1.203 . S
O306 C299 1.185 . S
O306 Zn302 2.086 . S
C307 O303 1.278 . S
C307 O308 1.211 . S
O308 C307 1.211 . S
C309 O301 1.284 . S
C309 O310 1.273 . S
O310 C309 1.273 . S
O311 Zn302 1.977 . S
O311 C304 1.267 . S
C312 O313 1.160 . S
C312 O319 1.185 . S
O313 C312 1.160 . S
O314 Zn315 1.899 . S
O314 C322 1.284 . S
Zn315 O314 1.899 . S
Zn315 O316 2.032 . S
Zn315 O319 2.086 . S
Zn315 O324 1.977 . S
O316 Zn315 2.032 . S
O316 C320 1.278 . S
C317 O318 1.203 . S
C317 O324 1.267 . S
O318 C317 1.203 . S
O319 C312 1.185 . S
O319 Zn315 2.086 . S
C320 O316 1.278 . S
C320 O321 1.211 . S
O321 C320 1.211 . S
C322 O314 1.284 . S
C322 O323 1.273 . S
O323 C322 1.273 . S
O324 Zn315 1.977 . S
O324 C317 1.267 . S
C325 O326 1.160 . S
C325 O332 1.185 . S
O326 C325 1.160 . S
O327 Zn328 1.899 . S
O327 C335 1.284 . S
Zn328 O327 1.899 . S
Zn328 O329 2.032 . S
Zn328 O332 2.086 . S
Zn328 O337 1.977 . S
O329 Zn328 2.032 . S
O329 C333 1.278 1_554 S
C330 O331 1.203 . S
C330 O337 1.267 . S
O331 C330 1.203 . S
O332 C325 1.185 . S
O332 Zn328 2.086 . S
C333 O329 1.278 1_556 S
C333 O334 1.211 1_556 S
O334 C333 1.211 1_554 S
C335 O327 1.284 . S
C335 O336 1.273 . S
O336 C335 1.273 . S
O337 Zn328 1.977 . S
O337 C330 1.267 . S
C338 O339 1.160 . S
C338 O345 1.185 . S
O339 C338 1.160 . S
O340 Zn341 1.899 1_554 S
O340 C348 1.284 . S
Zn341 O340 1.899 1_556 S
Zn341 O342 2.032 . S
Zn341 O345 2.086 . S
Zn341 O350 1.977 . S
O342 Zn341 2.032 . S
O342 C346 1.278 . S
C343 O344 1.203 1_556 S
C343 O350 1.267 . S
O344 C343 1.203 1_554 S
O345 C338 1.185 . S
O345 Zn341 2.086 . S
C346 O342 1.278 . S
C346 O347 1.211 . S
O347 C346 1.211 . S
C348 O340 1.284 . S
C348 O349 1.273 . S
O349 C348 1.273 . S
O350 Zn341 1.977 . S
O350 C343 1.267 . S
C351 O352 1.160 . S
C351 O358 1.185 . S
O352 C351 1.160 . S
O353 Zn354 1.899 . S
O353 C361 1.284 . S
Zn354 O353 1.899 . S
Zn354 O355 2.032 . S
Zn354 O358 2.086 . S
Zn354 O363 1.977 . S
O355 Zn354 2.032 . S
O355 C359 1.278 . S
C356 O357 1.203 . S
C356 O363 1.267 . S
O357 C356 1.203 . S
O358 C351 1.185 . S
O358 Zn354 2.086 . S
C359 O355 1.278 . S
C359 O360 1.211 1_655 S
O360 C359 1.211 1_455 S
C361 O353 1.284 . S
C361 O362 1.273 1_655 S
O362 C361 1.273 1_455 S
O363 Zn354 1.977 . S
O363 C356 1.267 . S
C364 O365 1.160 . S
C364 O371 1.185 . S
O365 C364 1.160 . S
O366 Zn367 1.899 1_556 S
O366 C374 1.284 . S
Zn367 O366 1.899 1_554 S
Zn367 O368 2.032 . S
Zn367 O371 2.086 . S
Zn367 O376 1.977 . S
O368 Zn367 2.032 . S
O368 C372 1.278 . S
C369 O370 1.203 1_554 S
C369 O376 1.267 . S
O370 C369 1.203 1_556 S
O371 C364 1.185 . S
O371 Zn367 2.086 . S
C372 O368 1.278 . S
C372 O373 1.211 . S
O373 C372 1.211 . S
C374 O366 1.284 . S
C374 O375 1.273 . S
O375 C374 1.273 . S
O376 Zn367 1.977 . S
O376 C369 1.267 . S
C377 O378 1.160 . S
C377 O384 1.185 . S
O378 C377 1.160 . S
O379 Zn380 1.899 . S
O379 C387 1.284 . S
Zn380 O379 1.899 . S
Zn380 O381 2.032 . S
Zn380 O384 2.086 . S
Zn380 O389 1.977 . S
O381 Zn380 2.032 . S
O381 C385 1.278 1_556 S
C382 O383 1.203 . S
C382 O389 1.267 . S
O383 C382 1.203 . S
O384 C377 1.185 . S
O384 Zn380 2.086 . S
C385 O381 1.278 1_554 S
C385 O386 1.211 1_654 S
O386 C385 1.211 1_456 S
C387 O379 1.284 . S
C387 O388 1.273 1_655 S
O388 C387 1.273 1_455 S
O389 Zn380 1.977 . S
O389 C382 1.267 . S
C390 O391 1.160 . S
C390 O397 1.185 . S
O391 C390 1.160 . S
O392 Zn393 1.899 . S
O392 C400 1.284 . S
Zn393 O392 1.899 . S
Zn393 O394 2.032 . S
Zn393 O397 2.086 . S
Zn393 O402 1.977 . S
O394 Zn393 2.032 . S
O394 C398 1.278 . S
C395 O396 1.203 . S
C395 O402 1.267 . S
O396 C395 1.203 . S
O397 C390 1.185 . S
O397 Zn393 2.086 . S
C398 O394 1.278 . S
C398 O399 1.211 . S
O399 C398 1.211 . S
C400 O392 1.284 . S
C400 O401 1.273 . S
O401 C400 1.273 . S
O402 Zn393 1.977 . S
O402 C395 1.267 . S
C403 O404 1.160 . S
C403 O410 1.185 . S
O404 C403 1.160 . S
O405 Zn406 1.899 . S
O405 C413 1.284 . S
Zn406 O405 1.899 . S
Zn406 O407 2.032 . S
Zn406 O410 2.086 . S
Zn406 O415 1.977 . S
O407 Zn406 2.032 . S
O407 C411 1.278 . S
C408 O409 1.203 . S
C408 O415 1.267 . S
O409 C408 1.203 . S
O410 C403 1.185 . S
O410 Zn406 2.086 . S
C411 O407 1.278 . S
C411 O412 1.211 . S
O412 C411 1.211 . S
C413 O405 1.284 . S
C413 O414 1.273 . S
O414 C413 1.273 . S
O415 Zn406 1.977 . S
O415 C408 1.267 . S
C83 C5 1.168 1_556 S
C18 C96 1.168 1_565 S
C57 C31 1.168 . S
C44 C70 1.168 1_545 S
C187 C109 1.168 1_554 S
C200 C122 1.168 1_565 S
C135 C161 1.168 . S
C148 C174 1.168 1_565 S
C213 C291 1.168 . S
C226 C304 1.168 . S
C265 C239 1.168 1_556 S
C278 C252 1.168 . S
C317 C395 1.168 . S
C408 C330 1.168 . S
C369 C343 1.168 1_554 S
C356 C382 1.168 . S
C10 C398 1.442 . S
C203 C23 1.441 1_455 S
C36 C372 1.442 . S
C49 C177 1.441 . S
C346 C62 1.442 . S
C151 C75 1.442 . S
C88 C320 1.442 . S
C125 C101 1.442 1_455 S
C114 C294 1.442 . S
C99 C127 1.441 1_655 S
C140 C268 1.442 . S
C153 C73 1.441 . S
C242 C166 1.442 . S
C179 C47 1.442 . S
C192 C216 1.441 . S
C21 C205 1.442 1_655 S
C218 C190 1.442 . S
C231 C411 1.441 . S
C164 C244 1.442 . S
C257 C385 1.441 1_455 S
C138 C270 1.442 . S
C359 C283 1.442 1_655 S
C112 C296 1.442 . S
C333 C309 1.442 . S
C322 C86 1.442 . S
C307 C335 1.441 . S
C60 C348 1.442 . S
C361 C281 1.441 1_655 S
C374 C34 1.441 . S
C387 C255 1.442 1_655 S
C8 C400 1.442 . S
C413 C229 1.442 . S
C0 C273 1.491 . S
C286 C13 1.491 . S
C26 C299 1.491 . S
C260 C39 1.491 . S
C247 C52 1.491 . S
C208 C65 1.491 . S
C221 C78 1.491 . S
C234 C91 1.491 . S
C104 C377 1.491 . S
C390 C117 1.491 . S
C403 C130 1.491 . S
C364 C143 1.491 . S
C351 C156 1.491 . S
C312 C169 1.491 . S
C182 C325 1.491 . S
C195 C338 1.491 . S
