# Generated by pormake.
# Topology acs-a, (4)-cn, num edge types: 1
# Building blocks:
#     Node 0, Type 0, BuildingBlock: AZAVOO_clean_sbu_0, # of connection points: 4
#     Node 1, Type 0, BuildingBlock: AZAVOO_clean_sbu_0, # of connection points: 4
#     Node 2, Type 0, BuildingBlock: AZAVOO_clean_sbu_0, # of connection points: 4
#     Node 3, Type 0, BuildingBlock: AZAVOO_clean_sbu_0, # of connection points: 4
#     Node 4, Type 0, BuildingBlock: AZAVOO_clean_sbu_0, # of connection points: 4
#     Node 5, Type 0, BuildingBlock: AZAVOO_clean_sbu_0, # of connection points: 4
#     Node 6, Type 0, BuildingBlock: AZAVOO_clean_sbu_0, # of connection points: 4
#     Node 7, Type 0, BuildingBlock: AZAVOO_clean_sbu_0, # of connection points: 4
#     Node 8, Type 0, BuildingBlock: AZAVOO_clean_sbu_0, # of connection points: 4
#     Node 9, Type 0, BuildingBlock: AZAVOO_clean_sbu_0, # of connection points: 4
#     Node 10, Type 0, BuildingBlock: AZAVOO_clean_sbu_0, # of connection points: 4
#     Node 11, Type 0, BuildingBlock: AZAVOO_clean_sbu_0, # of connection points: 4
#     Edge 12, Type (0, 0), BuildingBlock: EZIPEK_clean_linker_0, # of connection points: 2
#     Edge 13, Type (0, 0), BuildingBlock: EZIPEK_clean_linker_0, # of connection points: 2
#     Edge 14, Type (0, 0), BuildingBlock: EZIPEK_clean_linker_0, # of connection points: 2
#     Edge 15, Type (0, 0), BuildingBlock: EZIPEK_clean_linker_0, # of connection points: 2
#     Edge 16, Type (0, 0), BuildingBlock: EZIPEK_clean_linker_0, # of connection points: 2
#     Edge 17, Type (0, 0), BuildingBlock: EZIPEK_clean_linker_0, # of connection points: 2
#     Edge 18, Type (0, 0), BuildingBlock: EZIPEK_clean_linker_0, # of connection points: 2
#     Edge 19, Type (0, 0), BuildingBlock: EZIPEK_clean_linker_0, # of connection points: 2
#     Edge 20, Type (0, 0), BuildingBlock: EZIPEK_clean_linker_0, # of connection points: 2
#     Edge 21, Type (0, 0), BuildingBlock: EZIPEK_clean_linker_0, # of connection points: 2
#     Edge 22, Type (0, 0), BuildingBlock: EZIPEK_clean_linker_0, # of connection points: 2
#     Edge 23, Type (0, 0), BuildingBlock: EZIPEK_clean_linker_0, # of connection points: 2
#     Edge 24, Type (0, 0), BuildingBlock: EZIPEK_clean_linker_0, # of connection points: 2
#     Edge 25, Type (0, 0), BuildingBlock: EZIPEK_clean_linker_0, # of connection points: 2
#     Edge 26, Type (0, 0), BuildingBlock: EZIPEK_clean_linker_0, # of connection points: 2
#     Edge 27, Type (0, 0), BuildingBlock: EZIPEK_clean_linker_0, # of connection points: 2
#     Edge 28, Type (0, 0), BuildingBlock: EZIPEK_clean_linker_0, # of connection points: 2
#     Edge 29, Type (0, 0), BuildingBlock: EZIPEK_clean_linker_0, # of connection points: 2
#     Edge 30, Type (0, 0), BuildingBlock: EZIPEK_clean_linker_0, # of connection points: 2
#     Edge 31, Type (0, 0), BuildingBlock: EZIPEK_clean_linker_0, # of connection points: 2
#     Edge 32, Type (0, 0), BuildingBlock: EZIPEK_clean_linker_0, # of connection points: 2
#     Edge 33, Type (0, 0), BuildingBlock: EZIPEK_clean_linker_0, # of connection points: 2
#     Edge 34, Type (0, 0), BuildingBlock: EZIPEK_clean_linker_0, # of connection points: 2
#     Edge 35, Type (0, 0), BuildingBlock: EZIPEK_clean_linker_0, # of connection points: 2
# Relax obj value: 0.377
# Max RMSD: 0.195
# Mean RMSD: 0.191
data_MOF--net-acs-a--node1-AZAVOO_clean_sbu_0--edge1-EZIPEK_clean_linker_0
_symmetry_space_group_name_H-M    P1
_symmetry_Int_Tables_number       1
_symmetry_cell_setting            triclinic
loop_
_symmetry_equiv_pos_as_xyz
'x, y, z'
_cell_length_a     31.534852
_cell_length_b     31.528314
_cell_length_c     37.713019
_cell_angle_alpha  89.966151
_cell_angle_beta   90.157969
_cell_angle_gamma 115.84761
loop_
_atom_site_label
_atom_site_type_symbol
_atom_site_fract_x
_atom_site_fract_y
_atom_site_fract_z
_atom_type_partial_charge
Mg0 Mg 0.50314 0.15196 0.10311 0.0
O1 O 0.58319 0.17322 0.10065 0.0
O2 O 0.61712 0.22914 0.14222 0.0
Mg3 Mg 0.56068 0.24178 0.17146 0.0
C4 C 0.61946 0.2028 0.11734 0.0
C5 C 0.44967 0.08323 0.04695 0.0
O6 O 0.42979 0.11194 0.05057 0.0
O7 O 0.49907 0.10804 0.15254 0.0
O8 O 0.53375 0.16606 0.19207 0.0
O9 O 0.51222 0.2103 0.06579 0.0
O10 O 0.51794 0.21785 0.12376 0.0
C11 C 0.51369 0.12239 0.18389 0.0
C12 C 0.52326 0.23761 0.09318 0.0
O13 O 0.48513 0.08953 0.06614 0.0
Mg14 Mg 0.39832 0.49164 0.62225 0.0
O15 O 0.40876 0.56775 0.61637 0.0
O16 O 0.36988 0.58485 0.65949 0.0
Mg17 Mg 0.33918 0.52047 0.69556 0.0
C18 C 0.39533 0.59582 0.63166 0.0
C19 C 0.44741 0.52434 0.55059 0.0
O20 O 0.41123 0.53446 0.54877 0.0
O21 O 0.45454 0.51622 0.66568 0.0
O22 O 0.41517 0.53368 0.70804 0.0
O23 O 0.33175 0.46857 0.59189 0.0
O24 O 0.33572 0.47618 0.64979 0.0
C25 C 0.4523 0.53163 0.69655 0.0
C26 C 0.31105 0.46939 0.62121 0.0
O27 O 0.45239 0.50472 0.57876 0.0
Mg28 Mg 0.89432 0.32539 0.13011 0.0
O29 O 0.86355 0.3785 0.12026 0.0
O30 O 0.7985 0.35792 0.15333 0.0
Mg31 Mg 0.79019 0.29396 0.18616 0.0
C32 C 0.82823 0.38476 0.13078 0.0
C33 C 0.95634 0.38703 0.06942 0.0
O34 O 0.91428 0.37739 0.05677 0.0
O35 O 0.92524 0.36394 0.18193 0.0
O36 O 0.85936 0.34329 0.2137 0.0
O37 O 0.84685 0.2779 0.08854 0.0
O38 O 0.8278 0.27549 0.14485 0.0
C39 C 0.90399 0.36591 0.21017 0.0
C40 C 0.81492 0.26162 0.11281 0.0
O41 O 0.96045 0.37179 0.09981 0.0
Mg42 Mg 0.40417 0.84828 0.59684 0.0
O43 O 0.32605 0.79537 0.58681 0.0
O44 O 0.30807 0.74088 0.62975 0.0
Mg45 Mg 0.37139 0.75744 0.66596 0.0
C46 C 0.29715 0.75762 0.60224 0.0
C47 C 0.44396 0.93035 0.54891 0.0
O48 O 0.47921 0.92606 0.56447 0.0
O49 O 0.38244 0.88136 0.64349 0.0
O50 O 0.36748 0.82486 0.68427 0.0
O51 O 0.4289 0.80346 0.56447 0.0
O52 O 0.4156 0.79589 0.62191 0.0
C53 C 0.37107 0.86521 0.67491 0.0
C54 C 0.42581 0.78024 0.59338 0.0
O55 O 0.40207 0.90194 0.55722 0.0
Mg56 Mg 0.70097 0.54546 0.10005 0.0
O57 O 0.65505 0.46563 0.09795 0.0
O58 O 0.67627 0.43165 0.14256 0.0
Mg59 Mg 0.73311 0.49051 0.17454 0.0
C60 C 0.65113 0.42939 0.1154 0.0
C61 C 0.67463 0.58873 0.03596 0.0
O62 O 0.72038 0.61455 0.03796 0.0
O63 O 0.65436 0.54938 0.14501 0.0
O64 O 0.67593 0.51424 0.18826 0.0
O65 O 0.75534 0.5354 0.06831 0.0
O66 O 0.75285 0.53376 0.12654 0.0
C67 C 0.65064 0.53375 0.17663 0.0
C68 C 0.77108 0.52694 0.09784 0.0
O69 O 0.6544 0.55623 0.05851 0.0
Mg70 Mg 0.06808 0.5341 0.6192 0.0
O71 O 0.13565 0.52472 0.62158 0.0
O72 O 0.1934 0.58535 0.64927 0.0
Mg73 Mg 0.15892 0.63178 0.66863 0.0
C74 C 0.17785 0.54598 0.63293 0.0
C75 C 0.00998 0.44123 0.57254 0.0
O76 O 0.9926 0.39575 0.56641 0.0
O77 O 0.05469 0.50959 0.67658 0.0
O78 O 0.11383 0.56902 0.70397 0.0
O79 O 0.09563 0.57872 0.57051 0.0
O80 O 0.10735 0.6066 0.62494 0.0
C81 C 0.07871 0.52839 0.70433 0.0
C82 C 0.11666 0.61406 0.59171 0.0
O83 O 0.03121 0.4574 0.60162 0.0
Mg84 Mg 0.87522 0.49535 0.39854 0.0
O85 O 0.82621 0.41585 0.4004 0.0
O86 O 0.77407 0.39765 0.35569 0.0
Mg87 Mg 0.79277 0.4648 0.32356 0.0
C88 C 0.79097 0.38628 0.38291 0.0
C89 C 0.95359 0.52021 0.45665 0.0
O90 O 0.96348 0.56346 0.44676 0.0
O91 O 0.91588 0.48043 0.35392 0.0
O92 O 0.86217 0.46161 0.3105 0.0
O93 O 0.82196 0.50836 0.42958 0.0
O94 O 0.82339 0.50614 0.37133 0.0
C95 C 0.90225 0.46707 0.32223 0.0
C96 C 0.80146 0.50755 0.39971 0.0
O97 O 0.92131 0.4855 0.44089 0.0
Mg98 Mg 0.29882 0.86301 0.89007 0.0
O99 O 0.35513 0.83595 0.88598 0.0
O100 O 0.32729 0.77064 0.85245 0.0
Mg101 Mg 0.25473 0.75905 0.83198 0.0
C102 C 0.35944 0.80148 0.87155 0.0
C103 C 0.34351 0.93477 0.94938 0.0
O104 O 0.30361 0.9047 0.9634 0.0
O105 O 0.31974 0.89529 0.83453 0.0
O106 O 0.29127 0.82898 0.80231 0.0
O107 O 0.26627 0.81238 0.93471 0.0
O108 O 0.24646 0.79542 0.87888 0.0
C109 C 0.31273 0.8738 0.80479 0.0
C110 C 0.2429 0.78112 0.91118 0.0
O111 O 0.35296 0.92881 0.91756 0.0
Mg112 Mg 0.49713 0.40463 0.36049 0.0
O113 O 0.5758 0.42982 0.37111 0.0
O114 O 0.60427 0.39194 0.33503 0.0
Mg115 Mg 0.54348 0.34515 0.29899 0.0
C116 C 0.60944 0.4214 0.3598 0.0
C117 C 0.47621 0.44924 0.42522 0.0
O118 O 0.4507 0.40398 0.43047 0.0
O119 O 0.51664 0.4526 0.31192 0.0
O120 O 0.54519 0.41383 0.27696 0.0
O121 O 0.48206 0.34486 0.39753 0.0
O122 O 0.49338 0.34123 0.34045 0.0
C123 C 0.53575 0.44863 0.28311 0.0
C124 C 0.48794 0.32185 0.37125 0.0
O125 O 0.49954 0.46313 0.39673 0.0
Mg126 Mg 0.17359 0.47661 0.90823 0.0
O127 O 0.18912 0.55494 0.91437 0.0
O128 O 0.24101 0.59582 0.87224 0.0
Mg129 Mg 0.25805 0.54452 0.83941 0.0
C130 C 0.21493 0.59357 0.89867 0.0
C131 C 0.11429 0.47565 0.97503 0.0
O132 O 0.15289 0.51325 0.98329 0.0
O133 O 0.12659 0.47173 0.86064 0.0
O134 O 0.18132 0.51221 0.82021 0.0
O135 O 0.23556 0.48672 0.94263 0.0
O136 O 0.23849 0.49689 0.88473 0.0
C137 C 0.13841 0.48846 0.82946 0.0
C138 C 0.26056 0.50072 0.91412 0.0
O139 O 0.11192 0.454 0.94615 0.0
Mg140 Mg 0.60985 0.11705 0.38942 0.0
O141 O 0.57508 0.16767 0.38482 0.0
O142 O 0.6159 0.22417 0.34536 0.0
Mg143 Mg 0.67331 0.207 0.32238 0.0
C144 C 0.58245 0.20522 0.36764 0.0
C145 C 0.52518 0.07532 0.44474 0.0
O146 O 0.52927 0.11859 0.44536 0.0
O147 O 0.57228 0.08275 0.33784 0.0
O148 O 0.61298 0.1406 0.29968 0.0
O149 O 0.66013 0.16485 0.4295 0.0
O150 O 0.67264 0.17142 0.37207 0.0
C151 C 0.57995 0.09996 0.30657 0.0
C152 C 0.68527 0.1891 0.40326 0.0
O153 O 0.55015 0.06446 0.4235 0.0
Mg154 Mg 0.55706 0.70457 0.87533 0.0
O155 O 0.48504 0.6448 0.8905 0.0
O156 O 0.4312 0.64737 0.85281 0.0
Mg157 Mg 0.46806 0.70602 0.81272 0.0
C158 C 0.44268 0.62938 0.87935 0.0
C159 C 0.57867 0.6317 0.92109 0.0
O160 O 0.54113 0.60017 0.90514 0.0
O161 O 0.56052 0.65837 0.82944 0.0
O162 O 0.50607 0.66303 0.79345 0.0
O163 O 0.54158 0.75504 0.90876 0.0
O164 O 0.52258 0.74084 0.8522 0.0
C165 C 0.53667 0.64794 0.80065 0.0
C166 C 0.51833 0.75903 0.88167 0.0
O167 O 0.59356 0.67517 0.91371 0.0
C168 C 0.5034 0.0793 0.27658 0.0
C169 C 0.54687 0.07625 0.27718 0.0
C170 C 0.54537 0.07116 0.21244 0.0
C171 C 0.51119 0.0889 0.21222 0.0
N172 N 0.45061 0.10126 0.24225 0.0
N173 N 0.60478 0.05968 0.24705 0.0
C174 C 0.487 0.08886 0.24377 0.0
C175 C 0.56561 0.06766 0.2454 0.0
N176 N 0.47941 0.07525 0.30743 0.0
N177 N 0.55951 0.05973 0.18119 0.0
H178 H 0.61856 0.05537 0.27128 0.0
H179 H 0.62392 0.05843 0.22496 0.0
H180 H 0.54467 0.06212 0.15697 0.0
H181 H 0.5827 0.04436 0.17948 0.0
H182 H 0.44635 0.075 0.30872 0.0
H183 H 0.49094 0.0678 0.33154 0.0
H184 H 0.43455 0.10743 0.26444 0.0
H185 H 0.4373 0.10641 0.21806 0.0
C186 C 0.53018 0.59723 0.71139 0.0
C187 C 0.49437 0.55202 0.71978 0.0
C188 C 0.51575 0.5657 0.78255 0.0
C189 C 0.54034 0.61432 0.77494 0.0
N190 N 0.5803 0.67614 0.73317 0.0
N191 N 0.45938 0.4887 0.76137 0.0
C192 C 0.55173 0.62968 0.73948 0.0
C193 C 0.49024 0.53442 0.75479 0.0
N194 N 0.54172 0.60944 0.67679 0.0
N195 N 0.51525 0.55035 0.81644 0.0
H196 H 0.44209 0.46525 0.74082 0.0
H197 H 0.45035 0.47431 0.78663 0.0
H198 H 0.53447 0.57324 0.83666 0.0
H199 H 0.4995 0.51506 0.8239 0.0
H200 H 0.56892 0.6412 0.66878 0.0
H201 H 0.52647 0.5858 0.65603 0.0
H202 H 0.58634 0.69162 0.70818 0.0
H203 H 0.59742 0.69949 0.75383 0.0
C204 C 0.9443 0.44726 0.23482 0.0
C205 C 0.92994 0.3983 0.23938 0.0
C206 C 0.93027 0.40811 0.30376 0.0
C207 C 0.9305 0.45258 0.29813 0.0
N208 N 0.94668 0.51908 0.26046 0.0
N209 N 0.91768 0.33306 0.27755 0.0
C210 C 0.9418 0.47411 0.26434 0.0
C211 C 0.92684 0.37935 0.27385 0.0
N212 N 0.95835 0.46731 0.20224 0.0
N213 N 0.93144 0.39304 0.33752 0.0
H214 H 0.91734 0.3124 0.2558 0.0
H215 H 0.90946 0.31501 0.30155 0.0
H216 H 0.93438 0.41406 0.35958 0.0
H217 H 0.93372 0.3619 0.34359 0.0
H218 H 0.97166 0.50333 0.19749 0.0
H219 H 0.96048 0.44821 0.18034 0.0
H220 H 0.94931 0.53556 0.23611 0.0
H221 H 0.9469 0.53952 0.28232 0.0
C222 C 0.38141 0.91587 0.76534 0.0
C223 C 0.33255 0.89952 0.77141 0.0
C224 C 0.31742 0.89021 0.70749 0.0
C225 C 0.36329 0.89372 0.70299 0.0
N226 N 0.44224 0.91881 0.72445 0.0
N227 N 0.25562 0.8827 0.74919 0.0
C228 C 0.39675 0.91081 0.73084 0.0
C229 C 0.30128 0.89168 0.74246 0.0
N230 N 0.41236 0.93418 0.79282 0.0
N231 N 0.28925 0.88332 0.67845 0.0
H232 H 0.24439 0.88536 0.77478 0.0
H233 H 0.22923 0.87286 0.73005 0.0
H234 H 0.30156 0.88288 0.65285 0.0
H235 H 0.25543 0.88121 0.67922 0.0
H236 H 0.44879 0.94859 0.79017 0.0
H237 H 0.40141 0.93848 0.81805 0.0
H238 H 0.46784 0.92638 0.74401 0.0
H239 H 0.45403 0.91698 0.69889 0.0
C240 C 0.53594 0.47566 0.22116 0.0
C241 C 0.55228 0.48694 0.25648 0.0
C242 C 0.62603 0.54996 0.23556 0.0
C243 C 0.61306 0.53288 0.20057 0.0
N244 N 0.55013 0.49495 0.15856 0.0
N245 N 0.6034 0.54537 0.29756 0.0
C246 C 0.56573 0.50133 0.19282 0.0
C247 C 0.59394 0.52831 0.26374 0.0
N248 N 0.49319 0.43849 0.21506 0.0
N249 N 0.67028 0.58465 0.24169 0.0
H250 H 0.58013 0.52998 0.31842 0.0
H251 H 0.63206 0.57674 0.30447 0.0
H252 H 0.69306 0.60202 0.22088 0.0
H253 H 0.68468 0.59544 0.26681 0.0
H254 H 0.48096 0.42446 0.19006 0.0
H255 H 0.4703 0.42095 0.23576 0.0
H256 H 0.51532 0.47411 0.15123 0.0
H257 H 0.57123 0.51427 0.13765 0.0
C258 C 0.08412 0.4635 0.73892 0.0
C259 C 0.07068 0.50097 0.73758 0.0
C260 C 0.07715 0.50835 0.80226 0.0
C261 C 0.10226 0.48054 0.80193 0.0
N262 N 0.12406 0.42558 0.77237 0.0
N263 N 0.04646 0.5539 0.76751 0.0
C264 C 0.10288 0.45526 0.77108 0.0
C265 C 0.06362 0.52096 0.76936 0.0
N266 N 0.08039 0.43707 0.70935 0.0
N267 N 0.06766 0.52356 0.83381 0.0
H268 H 0.03419 0.56154 0.74373 0.0
H269 H 0.04532 0.57418 0.78891 0.0
H270 H 0.07729 0.51441 0.85807 0.0
H271 H 0.04715 0.54181 0.83625 0.0
H272 H 0.08685 0.40741 0.70917 0.0
H273 H 0.06654 0.44202 0.68548 0.0
H274 H 0.13161 0.41058 0.75014 0.0
H275 H 0.13547 0.4171 0.7962 0.0
C276 C 0.42461 0.05677 0.98482 0.0
C277 C 0.43066 0.04504 0.02021 0.0
C278 C 0.39175 0.96131 0.0047 0.0
C279 C 0.37792 0.97304 0.97168 0.0
N280 N 0.37791 0.03242 0.93114 0.0
N281 N 0.41604 0.98557 0.06513 0.0
C282 C 0.39397 0.02092 0.96166 0.0
C283 C 0.41377 0.99714 0.03047 0.0
N284 N 0.44885 0.10212 0.97321 0.0
N285 N 0.38466 0.91602 0.01112 0.0
H286 H 0.43136 0.0105 0.08509 0.0
H287 H 0.39924 0.95117 0.07465 0.0
H288 H 0.36976 0.88913 0.99241 0.0
H289 H 0.39806 0.90629 0.03334 0.0
H290 H 0.44933 0.11197 0.94679 0.0
H291 H 0.47248 0.12898 0.98932 0.0
H292 H 0.38424 0.0668 0.9247 0.0
H293 H 0.35499 0.00739 0.91356 0.0
C294 C 0.50398 0.50208 0.51713 0.0
C295 C 0.47349 0.52426 0.51753 0.0
C296 C 0.46236 0.51404 0.45342 0.0
C297 C 0.48315 0.48227 0.45473 0.0
N298 N 0.53046 0.45099 0.48553 0.0
N299 N 0.44933 0.57498 0.48414 0.0
C300 C 0.50682 0.47846 0.4858 0.0
C301 C 0.46075 0.53791 0.48493 0.0
N302 N 0.53184 0.50607 0.5459 0.0
N303 N 0.44162 0.51903 0.42286 0.0
H304 H 0.45263 0.59558 0.50658 0.0
H305 H 0.44269 0.58887 0.46087 0.0
H306 H 0.44318 0.50283 0.39911 0.0
H307 H 0.42094 0.53724 0.42147 0.0
H308 H 0.55703 0.4931 0.5468 0.0
H309 H 0.53374 0.5278 0.56731 0.0
H310 H 0.54354 0.44201 0.50823 0.0
H311 H 0.53575 0.43582 0.46238 0.0
C312 C 0.04789 0.47849 0.0099 0.0
C313 C 0.07578 0.4549 0.00105 0.0
C314 C 0.02435 0.38634 0.03592 0.0
C315 C 0.9982 0.41101 0.04675 0.0
N316 N 0.9892 0.48307 0.04922 0.0
N317 N 0.09739 0.39139 0.01173 0.0
C318 C 0.01114 0.45788 0.03521 0.0
C319 C 0.06604 0.41028 0.01589 0.0
N320 N 0.05537 0.51963 0.99315 0.0
N321 N 0.00815 0.33935 0.04321 0.0
H322 H 0.12873 0.40817 0.99757 0.0
H323 H 0.09464 0.36142 0.02514 0.0
H324 H 0.97721 0.32001 0.05724 0.0
H325 H 0.02295 0.31844 0.0325 0.0
H326 H 0.03291 0.53579 0.99547 0.0
H327 H 0.08227 0.53595 0.97475 0.0
H328 H 0.00025 0.5189 0.04468 0.0
H329 H 0.96223 0.46907 0.06787 0.0
C330 C 0.46193 0.99589 0.46122 0.0
C331 C 0.4969 0.04065 0.47199 0.0
C332 C 0.48263 0.01562 0.53409 0.0
C333 C 0.45445 0.9688 0.52287 0.0
N334 N 0.4185 0.91298 0.47553 0.0
N335 N 0.54494 0.09161 0.51886 0.0
C336 C 0.4437 0.95856 0.48639 0.0
C337 C 0.50796 0.0505 0.50854 0.0
N338 N 0.44588 0.98932 0.42702 0.0
N339 N 0.48507 0.02664 0.56931 0.0
H340 H 0.56584 0.11776 0.50122 0.0
H341 H 0.55777 0.09799 0.54475 0.0
H342 H 0.46639 0.00174 0.58858 0.0
H343 H 0.50142 0.06107 0.57887 0.0
H344 H 0.41734 0.9589 0.4183 0.0
H345 H 0.45833 0.01616 0.40812 0.0
H346 H 0.4145 0.90271 0.44901 0.0
H347 H 0.40399 0.88477 0.49311 0.0
C348 C 0.6297 0.59481 0.94318 0.0
C349 C 0.6005 0.61744 0.9506 0.0
C350 C 0.61486 0.61529 0.01445 0.0
C351 C 0.64736 0.5965 0.00679 0.0
N352 N 0.68715 0.56883 0.96473 0.0
N353 N 0.5649 0.65023 0.9922 0.0
C354 C 0.65509 0.58626 0.97136 0.0
C355 C 0.59278 0.62775 0.98599 0.0
N356 N 0.6326 0.58107 0.90921 0.0
N357 N 0.60506 0.62103 0.04897 0.0
H358 H 0.54566 0.65711 0.97233 0.0
H359 H 0.56204 0.66399 0.01665 0.0
H360 H 0.62247 0.61493 0.07049 0.0
H361 H 0.578 0.6294 0.0567 0.0
H362 H 0.64917 0.5601 0.90226 0.0
H363 H 0.61577 0.58826 0.88778 0.0
H364 H 0.69892 0.56589 0.93953 0.0
H365 H 0.70384 0.55884 0.98474 0.0
C366 C 0.96579 0.51855 0.52213 0.0
C367 C 0.97786 0.51111 0.48721 0.0
C368 C 0.02486 0.47303 0.51107 0.0
C369 C 0.00553 0.47248 0.54503 0.0
N370 N 0.95764 0.49444 0.58379 0.0
N371 N 0.01996 0.4831 0.44766 0.0
C372 C 0.9769 0.49617 0.55106 0.0
C373 C 0.00821 0.48933 0.48148 0.0
N374 N 0.94287 0.54614 0.52751 0.0
N375 N 0.05973 0.45866 0.50745 0.0
H376 H 0.01068 0.49719 0.42555 0.0
H377 H 0.03707 0.46238 0.4413 0.0
H378 H 0.07318 0.44752 0.52898 0.0
H379 H 0.07838 0.46194 0.48407 0.0
H380 H 0.93753 0.55703 0.55246 0.0
H381 H 0.9324 0.56147 0.50687 0.0
H382 H 0.93179 0.50575 0.58887 0.0
H383 H 0.96538 0.47903 0.60579 0.0
C384 C 0.58589 0.31292 0.06728 0.0
C385 C 0.54716 0.29008 0.09062 0.0
C386 C 0.57062 0.36408 0.1237 0.0
C387 C 0.61394 0.38296 0.10506 0.0
N388 N 0.66461 0.37577 0.06016 0.0
N389 N 0.49683 0.29586 0.13633 0.0
C390 C 0.62191 0.35773 0.07688 0.0
C391 C 0.53758 0.31661 0.11723 0.0
N392 N 0.58772 0.29311 0.03548 0.0
N393 N 0.56128 0.39178 0.14737 0.0
H394 H 0.46976 0.26325 0.12929 0.0
H395 H 0.4896 0.31033 0.15897 0.0
H396 H 0.58527 0.42638 0.15304 0.0
H397 H 0.52913 0.38192 0.16004 0.0
H398 H 0.61357 0.31018 0.01654 0.0
H399 H 0.56032 0.26276 0.0256 0.0
H400 H 0.67472 0.35638 0.0426 0.0
H401 H 0.69141 0.40907 0.06583 0.0
C402 C 0.24345 0.47261 0.65438 0.0
C403 C 0.26619 0.4749 0.62158 0.0
C404 C 0.22585 0.51831 0.59518 0.0
C405 C 0.20838 0.5217 0.6291 0.0
N406 N 0.19848 0.50136 0.69124 0.0
N407 N 0.25723 0.47633 0.55806 0.0
C408 C 0.2162 0.49822 0.65878 0.0
C409 C 0.25104 0.49074 0.59097 0.0
N410 N 0.2454 0.44314 0.68025 0.0
N411 N 0.21991 0.54288 0.56724 0.0
H412 H 0.2684 0.45003 0.5544 0.0
H413 H 0.24421 0.48441 0.53492 0.0
H414 H 0.20136 0.56324 0.56931 0.0
H415 H 0.23671 0.5463 0.54294 0.0
H416 H 0.22697 0.43668 0.70402 0.0
H417 H 0.26149 0.42082 0.67603 0.0
H418 H 0.20711 0.48957 0.71471 0.0
H419 H 0.17686 0.51823 0.69518 0.0
C420 C 0.73658 0.1988 0.1302 0.0
C421 C 0.76389 0.23287 0.10482 0.0
C422 C 0.69236 0.23402 0.08019 0.0
C423 C 0.66648 0.20593 0.10906 0.0
N424 N 0.6615 0.15845 0.16032 0.0
N425 N 0.76497 0.2657 0.04658 0.0
C426 C 0.68771 0.18652 0.13329 0.0
C427 C 0.74104 0.24514 0.07681 0.0
N428 N 0.7577 0.17754 0.15057 0.0
N429 N 0.671 0.25234 0.05731 0.0
H430 H 0.79912 0.27055 0.04148 0.0
H431 H 0.74923 0.27244 0.02437 0.0
H432 H 0.63495 0.24291 0.05805 0.0
H433 H 0.68909 0.27859 0.03887 0.0
H434 H 0.73984 0.15004 0.16811 0.0
H435 H 0.79303 0.18462 0.14727 0.0
H436 H 0.67546 0.14727 0.18138 0.0
H437 H 0.62528 0.14758 0.1624 0.0
C438 C 0.45609 0.72858 0.62349 0.0
C439 C 0.43032 0.73527 0.5948 0.0
C440 C 0.38763 0.65002 0.5864 0.0
C441 C 0.41056 0.6434 0.61681 0.0
N442 N 0.47431 0.67415 0.65898 0.0
N443 N 0.38662 0.70349 0.54074 0.0
C444 C 0.44748 0.6821 0.63362 0.0
C445 C 0.401 0.6964 0.57346 0.0
N446 N 0.48814 0.76699 0.64131 0.0
N447 N 0.3515 0.61223 0.57096 0.0
H448 H 0.39712 0.73669 0.52959 0.0
H449 H 0.36864 0.67631 0.52289 0.0
H450 H 0.34153 0.57758 0.57911 0.0
H451 H 0.32931 0.61542 0.55171 0.0
H452 H 0.50404 0.76523 0.66511 0.0
H453 H 0.49845 0.80134 0.63218 0.0
H454 H 0.50432 0.70043 0.67039 0.0
H455 H 0.46836 0.64036 0.66706 0.0
C456 C 0.79755 0.4671 0.0738 0.0
C457 C 0.80131 0.5013 0.09966 0.0
C458 C 0.8358 0.46588 0.14184 0.0
C459 C 0.82341 0.42693 0.11852 0.0
N460 N 0.79237 0.38923 0.06252 0.0
N461 N 0.8429 0.54508 0.15078 0.0
C462 C 0.80497 0.42751 0.08429 0.0
C463 C 0.82647 0.50434 0.13147 0.0
N464 N 0.78979 0.47371 0.03904 0.0
N465 N 0.85459 0.46502 0.17443 0.0
H466 H 0.83889 0.57458 0.14208 0.0
H467 H 0.86437 0.55163 0.17306 0.0
H468 H 0.86337 0.43815 0.18234 0.0
H469 H 0.85963 0.48959 0.19435 0.0
H470 H 0.7895 0.45127 0.01872 0.0
H471 H 0.79101 0.50525 0.02963 0.0
H472 H 0.77297 0.38476 0.03928 0.0
H473 H 0.79855 0.36023 0.06895 0.0
C474 C 0.19219 0.66031 0.55756 0.0
C475 C 0.1565 0.65953 0.58073 0.0
C476 C 0.21109 0.73592 0.60556 0.0
C477 C 0.24864 0.73118 0.5883 0.0
N478 N 0.2761 0.69262 0.54537 0.0
N479 N 0.12641 0.7047 0.61459 0.0
C480 C 0.23937 0.69502 0.5629 0.0
C481 C 0.16429 0.70037 0.6007 0.0
N482 N 0.18088 0.62926 0.52996 0.0
N483 N 0.22083 0.77298 0.62809 0.0
H484 H 0.09193 0.67954 0.60981 0.0
H485 H 0.12843 0.73438 0.62794 0.0
H486 H 0.25466 0.80031 0.63077 0.0
H487 H 0.19616 0.77638 0.64463 0.0
H488 H 0.20496 0.62964 0.51101 0.0
H489 H 0.14622 0.60703 0.52316 0.0
H490 H 0.2731 0.66381 0.53028 0.0
H491 H 0.31034 0.71936 0.54713 0.0
C492 C 0.73664 0.51337 0.3654 0.0
C493 C 0.75108 0.49886 0.3969 0.0
C494 C 0.67007 0.44025 0.40776 0.0
C495 C 0.65722 0.45012 0.37377 0.0
N496 N 0.67617 0.49717 0.32052 0.0
N497 N 0.72738 0.46622 0.45547 0.0
C498 C 0.68975 0.4876 0.35287 0.0
C499 C 0.71659 0.4677 0.42055 0.0
N500 N 0.76784 0.55297 0.34842 0.0
N501 N 0.63854 0.4032 0.42702 0.0
H502 H 0.75897 0.49011 0.46668 0.0
H503 H 0.70281 0.44629 0.47441 0.0
H504 H 0.60392 0.38284 0.41873 0.0
H505 H 0.64751 0.39047 0.44991 0.0
H506 H 0.7595 0.56804 0.32656 0.0
H507 H 0.80143 0.57356 0.35865 0.0
H508 H 0.69912 0.52053 0.30218 0.0
H509 H 0.64168 0.48001 0.31106 0.0
C510 C 0.24035 0.70979 0.94426 0.0
C511 C 0.22109 0.72932 0.9185 0.0
C512 C 0.18443 0.65339 0.88776 0.0
C513 C 0.21149 0.63715 0.90908 0.0
N514 N 0.26364 0.64782 0.95852 0.0
N515 N 0.1579 0.7141 0.87743 0.0
C516 C 0.23831 0.6644 0.93808 0.0
C517 C 0.18752 0.69907 0.89394 0.0
N518 N 0.25805 0.73322 0.97528 0.0
N519 N 0.15785 0.62608 0.86047 0.0
H520 H 0.1583 0.74662 0.88339 0.0
H521 H 0.13013 0.69304 0.861 0.0
H522 H 0.15383 0.59191 0.85593 0.0
H523 H 0.14158 0.63777 0.84133 0.0
H524 H 0.27028 0.71959 0.99594 0.0
H525 H 0.25415 0.76315 0.98258 0.0
H526 H 0.28887 0.66829 0.97698 0.0
H527 H 0.2611 0.61392 0.95558 0.0
C528 C 0.51784 0.2233 0.3445 0.0
C529 C 0.5496 0.22669 0.37232 0.0
C530 C 0.52205 0.27553 0.40678 0.0
C531 C 0.4977 0.27988 0.37628 0.0
N532 N 0.45599 0.24332 0.32303 0.0
N533 N 0.58384 0.25686 0.42951 0.0
C534 C 0.49054 0.2491 0.34714 0.0
C535 C 0.55173 0.25242 0.40361 0.0
N536 N 0.51523 0.19678 0.31514 0.0
N537 N 0.51478 0.29068 0.43911 0.0
H538 H 0.60542 0.23952 0.42856 0.0
H539 H 0.59156 0.28042 0.45059 0.0
H540 H 0.48822 0.30116 0.44363 0.0
H541 H 0.52956 0.28572 0.46255 0.0
H542 H 0.49681 0.19651 0.29216 0.0
H543 H 0.53318 0.17584 0.31316 0.0
H544 H 0.44637 0.21955 0.30205 0.0
H545 H 0.4335 0.25942 0.32623 0.0
C546 C 0.3354 0.51282 0.88504 0.0
C547 C 0.31297 0.52336 0.914 0.0
C548 C 0.38841 0.58909 0.92977 0.0
C549 C 0.40515 0.58679 0.89546 0.0
N550 N 0.39868 0.54276 0.84199 0.0
N551 N 0.31999 0.57116 0.96624 0.0
C552 C 0.38014 0.547 0.87376 0.0
C553 C 0.34017 0.56061 0.93768 0.0
N554 N 0.31373 0.47004 0.86858 0.0
N555 N 0.41851 0.618 0.95474 0.0
H556 H 0.28559 0.55088 0.97442 0.0
H557 H 0.33704 0.60198 0.98097 0.0
H558 H 0.45444 0.63714 0.94999 0.0
H559 H 0.40908 0.61843 0.98114 0.0
H560 H 0.32961 0.45878 0.84891 0.0
H561 H 0.28161 0.44386 0.8774 0.0
H562 H 0.37984 0.51765 0.82293 0.0
H563 H 0.43283 0.56574 0.8343 0.0
C564 C 0.75923 0.25542 0.38162 0.0
C565 C 0.72244 0.23867 0.40699 0.0
C566 C 0.73804 0.31992 0.42176 0.0
C567 C 0.77044 0.3361 0.39328 0.0
N568 N 0.81358 0.32087 0.34625 0.0
N569 N 0.69336 0.25607 0.46179 0.0
C570 C 0.78212 0.30434 0.37358 0.0
C571 C 0.71671 0.27112 0.43043 0.0
N572 N 0.77336 0.2243 0.36651 0.0
N573 N 0.72594 0.3509 0.43941 0.0
H574 H 0.68249 0.22205 0.47142 0.0
H575 H 0.69087 0.27868 0.48089 0.0
H576 H 0.74199 0.38707 0.43455 0.0
H577 H 0.69781 0.34053 0.457 0.0
H578 H 0.80215 0.23391 0.34968 0.0
H579 H 0.7589 0.18885 0.37388 0.0
H580 H 0.81989 0.2994 0.32816 0.0
H581 H 0.83207 0.35665 0.34041 0.0
C582 C 0.48209 0.80961 0.85812 0.0
C583 C 0.48253 0.77768 0.88453 0.0
C584 C 0.4071 0.7714 0.90738 0.0
C585 C 0.40337 0.79668 0.87748 0.0
N586 N 0.43561 0.83886 0.82332 0.0
N587 N 0.4431 0.725 0.93319 0.0
C588 C 0.44056 0.81584 0.85263 0.0
C589 C 0.44484 0.75831 0.90932 0.0
N590 N 0.52191 0.83472 0.83886 0.0
N591 N 0.37443 0.75979 0.93389 0.0
H592 H 0.46987 0.7146 0.93646 0.0
H593 H 0.41345 0.70514 0.94833 0.0
H594 H 0.3457 0.76786 0.93286 0.0
H595 H 0.37793 0.74594 0.9582 0.0
H596 H 0.52538 0.8616 0.82138 0.0
H597 H 0.55331 0.8319 0.84307 0.0
H598 H 0.45908 0.84895 0.80214 0.0
H599 H 0.40623 0.84532 0.81907 0.0
loop_
_geom_bond_atom_site_label_1
_geom_bond_atom_site_label_2
_geom_bond_distance
_geom_bond_site_symmetry_2
_ccdc_geom_bond_type
Mg0 O1 2.028 . S
Mg0 O7 1.986 . S
Mg0 O9 2.114 . S
Mg0 O10 2.251 . S
Mg0 O13 2.010 . S
O1 Mg0 2.028 . S
O1 C4 1.250 . S
O2 Mg3 2.028 . S
O2 C4 1.248 . S
Mg3 O2 2.028 . S
Mg3 O8 2.032 . S
Mg3 O10 2.079 . S
C4 O1 1.250 . S
C4 O2 1.248 . S
C5 O6 1.264 . S
C5 O13 1.249 . S
O6 C5 1.264 . S
O7 Mg0 1.986 . S
O7 C11 1.246 . S
O8 Mg3 2.032 . S
O8 C11 1.259 . S
O9 Mg0 2.114 . S
O9 C12 1.252 . S
O10 Mg0 2.251 . S
O10 Mg3 2.079 . S
O10 C12 1.273 . S
C11 O7 1.246 . S
C11 O8 1.259 . S
C12 O9 1.252 . S
C12 O10 1.273 . S
O13 Mg0 2.010 . S
O13 C5 1.249 . S
Mg14 O15 2.028 . S
Mg14 O21 1.986 . S
Mg14 O23 2.114 . S
Mg14 O24 2.251 . S
Mg14 O27 2.010 . S
O15 Mg14 2.028 . S
O15 C18 1.250 . S
O16 Mg17 2.028 . S
O16 C18 1.248 . S
Mg17 O16 2.028 . S
Mg17 O22 2.032 . S
Mg17 O24 2.079 . S
C18 O15 1.250 . S
C18 O16 1.248 . S
C19 O20 1.264 . S
C19 O27 1.249 . S
O20 C19 1.264 . S
O21 Mg14 1.986 . S
O21 C25 1.246 . S
O22 Mg17 2.032 . S
O22 C25 1.259 . S
O23 Mg14 2.114 . S
O23 C26 1.252 . S
O24 Mg14 2.251 . S
O24 Mg17 2.079 . S
O24 C26 1.273 . S
C25 O21 1.246 . S
C25 O22 1.259 . S
C26 O23 1.252 . S
C26 O24 1.273 . S
O27 Mg14 2.010 . S
O27 C19 1.249 . S
Mg28 O29 2.028 . S
Mg28 O35 1.986 . S
Mg28 O37 2.114 . S
Mg28 O38 2.251 . S
Mg28 O41 2.010 . S
O29 Mg28 2.028 . S
O29 C32 1.250 . S
O30 Mg31 2.028 . S
O30 C32 1.248 . S
Mg31 O30 2.028 . S
Mg31 O36 2.032 . S
Mg31 O38 2.079 . S
C32 O29 1.250 . S
C32 O30 1.248 . S
C33 O34 1.264 . S
C33 O41 1.249 . S
O34 C33 1.264 . S
O35 Mg28 1.986 . S
O35 C39 1.246 . S
O36 Mg31 2.032 . S
O36 C39 1.259 . S
O37 Mg28 2.114 . S
O37 C40 1.252 . S
O38 Mg28 2.251 . S
O38 Mg31 2.079 . S
O38 C40 1.273 . S
C39 O35 1.246 . S
C39 O36 1.259 . S
C40 O37 1.252 . S
C40 O38 1.273 . S
O41 Mg28 2.010 . S
O41 C33 1.249 . S
Mg42 O43 2.028 . S
Mg42 O49 1.986 . S
Mg42 O51 2.114 . S
Mg42 O52 2.251 . S
Mg42 O55 2.010 . S
O43 Mg42 2.028 . S
O43 C46 1.250 . S
O44 Mg45 2.028 . S
O44 C46 1.248 . S
Mg45 O44 2.028 . S
Mg45 O50 2.032 . S
Mg45 O52 2.079 . S
C46 O43 1.250 . S
C46 O44 1.248 . S
C47 O48 1.264 . S
C47 O55 1.249 . S
O48 C47 1.264 . S
O49 Mg42 1.986 . S
O49 C53 1.246 . S
O50 Mg45 2.032 . S
O50 C53 1.259 . S
O51 Mg42 2.114 . S
O51 C54 1.252 . S
O52 Mg42 2.251 . S
O52 Mg45 2.079 . S
O52 C54 1.273 . S
C53 O49 1.246 . S
C53 O50 1.259 . S
C54 O51 1.252 . S
C54 O52 1.273 . S
O55 Mg42 2.010 . S
O55 C47 1.249 . S
Mg56 O57 2.028 . S
Mg56 O63 1.986 . S
Mg56 O65 2.114 . S
Mg56 O66 2.251 . S
Mg56 O69 2.010 . S
O57 Mg56 2.028 . S
O57 C60 1.250 . S
O58 Mg59 2.028 . S
O58 C60 1.248 . S
Mg59 O58 2.028 . S
Mg59 O64 2.032 . S
Mg59 O66 2.079 . S
C60 O57 1.250 . S
C60 O58 1.248 . S
C61 O62 1.264 . S
C61 O69 1.249 . S
O62 C61 1.264 . S
O63 Mg56 1.986 . S
O63 C67 1.246 . S
O64 Mg59 2.032 . S
O64 C67 1.259 . S
O65 Mg56 2.114 . S
O65 C68 1.252 . S
O66 Mg56 2.251 . S
O66 Mg59 2.079 . S
O66 C68 1.273 . S
C67 O63 1.246 . S
C67 O64 1.259 . S
C68 O65 1.252 . S
C68 O66 1.273 . S
O69 Mg56 2.010 . S
O69 C61 1.249 . S
Mg70 O71 2.028 . S
Mg70 O77 1.986 . S
Mg70 O79 2.114 . S
Mg70 O80 2.251 . S
Mg70 O83 2.010 . S
O71 Mg70 2.028 . S
O71 C74 1.250 . S
O72 Mg73 2.028 . S
O72 C74 1.248 . S
Mg73 O72 2.028 . S
Mg73 O78 2.032 . S
Mg73 O80 2.079 . S
C74 O71 1.250 . S
C74 O72 1.248 . S
C75 O76 1.264 . S
C75 O83 1.249 . S
O76 C75 1.264 . S
O77 Mg70 1.986 . S
O77 C81 1.246 . S
O78 Mg73 2.032 . S
O78 C81 1.259 . S
O79 Mg70 2.114 . S
O79 C82 1.252 . S
O80 Mg70 2.251 . S
O80 Mg73 2.079 . S
O80 C82 1.273 . S
C81 O77 1.246 . S
C81 O78 1.259 . S
C82 O79 1.252 . S
C82 O80 1.273 . S
O83 Mg70 2.010 . S
O83 C75 1.249 . S
Mg84 O85 2.028 . S
Mg84 O91 1.986 . S
Mg84 O93 2.114 . S
Mg84 O94 2.251 . S
Mg84 O97 2.010 . S
O85 Mg84 2.028 . S
O85 C88 1.250 . S
O86 Mg87 2.028 . S
O86 C88 1.248 . S
Mg87 O86 2.028 . S
Mg87 O92 2.032 . S
Mg87 O94 2.079 . S
C88 O85 1.250 . S
C88 O86 1.248 . S
C89 O90 1.264 . S
C89 O97 1.249 . S
O90 C89 1.264 . S
O91 Mg84 1.986 . S
O91 C95 1.246 . S
O92 Mg87 2.032 . S
O92 C95 1.259 . S
O93 Mg84 2.114 . S
O93 C96 1.252 . S
O94 Mg84 2.251 . S
O94 Mg87 2.079 . S
O94 C96 1.273 . S
C95 O91 1.246 . S
C95 O92 1.259 . S
C96 O93 1.252 . S
C96 O94 1.273 . S
O97 Mg84 2.010 . S
O97 C89 1.249 . S
Mg98 O99 2.028 . S
Mg98 O105 1.986 . S
Mg98 O107 2.114 . S
Mg98 O108 2.251 . S
Mg98 O111 2.010 . S
O99 Mg98 2.028 . S
O99 C102 1.250 . S
O100 Mg101 2.028 . S
O100 C102 1.248 . S
Mg101 O100 2.028 . S
Mg101 O106 2.032 . S
Mg101 O108 2.079 . S
C102 O99 1.250 . S
C102 O100 1.248 . S
C103 O104 1.264 . S
C103 O111 1.249 . S
O104 C103 1.264 . S
O105 Mg98 1.986 . S
O105 C109 1.246 . S
O106 Mg101 2.032 . S
O106 C109 1.259 . S
O107 Mg98 2.114 . S
O107 C110 1.252 . S
O108 Mg98 2.251 . S
O108 Mg101 2.079 . S
O108 C110 1.273 . S
C109 O105 1.246 . S
C109 O106 1.259 . S
C110 O107 1.252 . S
C110 O108 1.273 . S
O111 Mg98 2.010 . S
O111 C103 1.249 . S
Mg112 O113 2.028 . S
Mg112 O119 1.986 . S
Mg112 O121 2.114 . S
Mg112 O122 2.251 . S
Mg112 O125 2.010 . S
O113 Mg112 2.028 . S
O113 C116 1.250 . S
O114 Mg115 2.028 . S
O114 C116 1.248 . S
Mg115 O114 2.028 . S
Mg115 O120 2.032 . S
Mg115 O122 2.079 . S
C116 O113 1.250 . S
C116 O114 1.248 . S
C117 O118 1.264 . S
C117 O125 1.249 . S
O118 C117 1.264 . S
O119 Mg112 1.986 . S
O119 C123 1.246 . S
O120 Mg115 2.032 . S
O120 C123 1.259 . S
O121 Mg112 2.114 . S
O121 C124 1.252 . S
O122 Mg112 2.251 . S
O122 Mg115 2.079 . S
O122 C124 1.273 . S
C123 O119 1.246 . S
C123 O120 1.259 . S
C124 O121 1.252 . S
C124 O122 1.273 . S
O125 Mg112 2.010 . S
O125 C117 1.249 . S
Mg126 O127 2.028 . S
Mg126 O133 1.986 . S
Mg126 O135 2.114 . S
Mg126 O136 2.251 . S
Mg126 O139 2.010 . S
O127 Mg126 2.028 . S
O127 C130 1.250 . S
O128 Mg129 2.028 . S
O128 C130 1.248 . S
Mg129 O128 2.028 . S
Mg129 O134 2.032 . S
Mg129 O136 2.079 . S
C130 O127 1.250 . S
C130 O128 1.248 . S
C131 O132 1.264 . S
C131 O139 1.249 . S
O132 C131 1.264 . S
O133 Mg126 1.986 . S
O133 C137 1.246 . S
O134 Mg129 2.032 . S
O134 C137 1.259 . S
O135 Mg126 2.114 . S
O135 C138 1.252 . S
O136 Mg126 2.251 . S
O136 Mg129 2.079 . S
O136 C138 1.273 . S
C137 O133 1.246 . S
C137 O134 1.259 . S
C138 O135 1.252 . S
C138 O136 1.273 . S
O139 Mg126 2.010 . S
O139 C131 1.249 . S
Mg140 O141 2.028 . S
Mg140 O147 1.986 . S
Mg140 O149 2.114 . S
Mg140 O150 2.251 . S
Mg140 O153 2.010 . S
O141 Mg140 2.028 . S
O141 C144 1.250 . S
O142 Mg143 2.028 . S
O142 C144 1.248 . S
Mg143 O142 2.028 . S
Mg143 O148 2.032 . S
Mg143 O150 2.079 . S
C144 O141 1.250 . S
C144 O142 1.248 . S
C145 O146 1.264 . S
C145 O153 1.249 . S
O146 C145 1.264 . S
O147 Mg140 1.986 . S
O147 C151 1.246 . S
O148 Mg143 2.032 . S
O148 C151 1.259 . S
O149 Mg140 2.114 . S
O149 C152 1.252 . S
O150 Mg140 2.251 . S
O150 Mg143 2.079 . S
O150 C152 1.273 . S
C151 O147 1.246 . S
C151 O148 1.259 . S
C152 O149 1.252 . S
C152 O150 1.273 . S
O153 Mg140 2.010 . S
O153 C145 1.249 . S
Mg154 O155 2.028 . S
Mg154 O161 1.986 . S
Mg154 O163 2.114 . S
Mg154 O164 2.251 . S
Mg154 O167 2.010 . S
O155 Mg154 2.028 . S
O155 C158 1.250 . S
O156 Mg157 2.028 . S
O156 C158 1.248 . S
Mg157 O156 2.028 . S
Mg157 O162 2.032 . S
Mg157 O164 2.079 . S
C158 O155 1.250 . S
C158 O156 1.248 . S
C159 O160 1.264 . S
C159 O167 1.249 . S
O160 C159 1.264 . S
O161 Mg154 1.986 . S
O161 C165 1.246 . S
O162 Mg157 2.032 . S
O162 C165 1.259 . S
O163 Mg154 2.114 . S
O163 C166 1.252 . S
O164 Mg154 2.251 . S
O164 Mg157 2.079 . S
O164 C166 1.273 . S
C165 O161 1.246 . S
C165 O162 1.259 . S
C166 O163 1.252 . S
C166 O164 1.273 . S
O167 Mg154 2.010 . S
O167 C159 1.249 . S
C168 C169 1.363 . S
C168 C174 1.379 . S
C168 N176 1.356 . S
C169 C168 1.363 . S
C169 C175 1.363 . S
C170 C171 1.363 . S
C170 C175 1.379 . S
C170 N177 1.356 . S
C171 C170 1.363 . S
C171 C174 1.363 . S
N172 C174 1.356 . S
N172 H184 0.984 . S
N172 H185 0.985 . S
N173 C175 1.356 . S
N173 H178 0.984 . S
N173 H179 0.985 . S
C174 C168 1.379 . S
C174 C171 1.363 . S
C174 N172 1.356 . S
C175 C169 1.363 . S
C175 C170 1.379 . S
C175 N173 1.356 . S
N176 C168 1.356 . S
N176 H182 0.984 . S
N176 H183 0.984 . S
N177 C170 1.356 . S
N177 H180 0.984 . S
N177 H181 0.985 . S
H178 N173 0.984 . S
H179 N173 0.985 . S
H180 N177 0.984 . S
H181 N177 0.985 . S
H182 N176 0.984 . S
H183 N176 0.984 . S
H184 N172 0.984 . S
H185 N172 0.985 . S
C186 C187 1.363 . S
C186 C192 1.379 . S
C186 N194 1.356 . S
C187 C186 1.363 . S
C187 C193 1.363 . S
C188 C189 1.363 . S
C188 C193 1.379 . S
C188 N195 1.356 . S
C189 C188 1.363 . S
C189 C192 1.363 . S
N190 C192 1.356 . S
N190 H202 0.984 . S
N190 H203 0.985 . S
N191 C193 1.356 . S
N191 H196 0.984 . S
N191 H197 0.985 . S
C192 C186 1.379 . S
C192 C189 1.363 . S
C192 N190 1.356 . S
C193 C187 1.363 . S
C193 C188 1.379 . S
C193 N191 1.356 . S
N194 C186 1.356 . S
N194 H200 0.984 . S
N194 H201 0.984 . S
N195 C188 1.356 . S
N195 H198 0.984 . S
N195 H199 0.985 . S
H196 N191 0.984 . S
H197 N191 0.985 . S
H198 N195 0.984 . S
H199 N195 0.985 . S
H200 N194 0.984 . S
H201 N194 0.984 . S
H202 N190 0.984 . S
H203 N190 0.985 . S
C204 C205 1.363 . S
C204 C210 1.379 . S
C204 N212 1.356 . S
C205 C204 1.363 . S
C205 C211 1.363 . S
C206 C207 1.363 . S
C206 C211 1.379 . S
C206 N213 1.356 . S
C207 C206 1.363 . S
C207 C210 1.363 . S
N208 C210 1.356 . S
N208 H220 0.984 . S
N208 H221 0.985 . S
N209 C211 1.356 . S
N209 H214 0.984 . S
N209 H215 0.985 . S
C210 C204 1.379 . S
C210 C207 1.363 . S
C210 N208 1.356 . S
C211 C205 1.363 . S
C211 C206 1.379 . S
C211 N209 1.356 . S
N212 C204 1.356 . S
N212 H218 0.984 . S
N212 H219 0.984 . S
N213 C206 1.356 . S
N213 H216 0.984 . S
N213 H217 0.985 . S
H214 N209 0.984 . S
H215 N209 0.985 . S
H216 N213 0.984 . S
H217 N213 0.985 . S
H218 N212 0.984 . S
H219 N212 0.984 . S
H220 N208 0.984 . S
H221 N208 0.985 . S
C222 C223 1.363 . S
C222 C228 1.379 . S
C222 N230 1.356 . S
C223 C222 1.363 . S
C223 C229 1.363 . S
C224 C225 1.363 . S
C224 C229 1.379 . S
C224 N231 1.356 . S
C225 C224 1.363 . S
C225 C228 1.363 . S
N226 C228 1.356 . S
N226 H238 0.984 . S
N226 H239 0.985 . S
N227 C229 1.356 . S
N227 H232 0.984 . S
N227 H233 0.985 . S
C228 C222 1.379 . S
C228 C225 1.363 . S
C228 N226 1.356 . S
C229 C223 1.363 . S
C229 C224 1.379 . S
C229 N227 1.356 . S
N230 C222 1.356 . S
N230 H236 0.984 . S
N230 H237 0.984 . S
N231 C224 1.356 . S
N231 H234 0.984 . S
N231 H235 0.985 . S
H232 N227 0.984 . S
H233 N227 0.985 . S
H234 N231 0.984 . S
H235 N231 0.985 . S
H236 N230 0.984 . S
H237 N230 0.984 . S
H238 N226 0.984 . S
H239 N226 0.985 . S
C240 C241 1.363 . S
C240 C246 1.379 . S
C240 N248 1.356 . S
C241 C240 1.363 . S
C241 C247 1.363 . S
C242 C243 1.363 . S
C242 C247 1.379 . S
C242 N249 1.356 . S
C243 C242 1.363 . S
C243 C246 1.363 . S
N244 C246 1.356 . S
N244 H256 0.984 . S
N244 H257 0.985 . S
N245 C247 1.356 . S
N245 H250 0.984 . S
N245 H251 0.985 . S
C246 C240 1.379 . S
C246 C243 1.363 . S
C246 N244 1.356 . S
C247 C241 1.363 . S
C247 C242 1.379 . S
C247 N245 1.356 . S
N248 C240 1.356 . S
N248 H254 0.984 . S
N248 H255 0.984 . S
N249 C242 1.356 . S
N249 H252 0.984 . S
N249 H253 0.985 . S
H250 N245 0.984 . S
H251 N245 0.985 . S
H252 N249 0.984 . S
H253 N249 0.985 . S
H254 N248 0.984 . S
H255 N248 0.984 . S
H256 N244 0.984 . S
H257 N244 0.985 . S
C258 C259 1.363 . S
C258 C264 1.379 . S
C258 N266 1.356 . S
C259 C258 1.363 . S
C259 C265 1.363 . S
C260 C261 1.363 . S
C260 C265 1.379 . S
C260 N267 1.356 . S
C261 C260 1.363 . S
C261 C264 1.363 . S
N262 C264 1.356 . S
N262 H274 0.971 1_455 S
N262 H275 0.985 . S
N263 C265 1.356 . S
N263 H268 0.984 . S
N263 H269 0.985 . S
C264 C258 1.379 . S
C264 C261 1.363 . S
C264 N262 1.356 . S
C265 C259 1.363 . S
C265 C260 1.379 . S
C265 N263 1.356 . S
N266 C258 1.356 . S
N266 H272 0.984 1_455 S
N266 H273 0.984 . S
N267 C260 1.356 . S
N267 H270 0.984 . S
N267 H271 0.985 . S
H268 N263 0.984 . S
H269 N263 0.985 . S
H270 N267 0.984 . S
H271 N267 0.985 . S
H272 N266 0.984 1_655 S
H273 N266 0.984 . S
H274 N262 0.971 1_655 S
H275 N262 0.985 . S
C276 C277 1.363 1_556 S
C276 C282 1.379 . S
C276 N284 1.356 1_556 S
C277 C276 1.363 1_554 S
C277 C283 1.363 1_545 S
C278 C279 1.363 1_554 S
C278 C283 1.379 . S
C278 N285 1.356 1_554 S
C279 C278 1.363 1_556 S
C279 C282 1.363 1_565 S
N280 C282 1.356 . S
N280 H292 0.984 . S
N280 H293 0.976 1_545 S
N281 C283 1.356 . S
N281 H286 0.984 1_565 S
N281 H287 0.985 . S
C282 C276 1.379 . S
C282 C279 1.363 1_545 S
C282 N280 1.356 . S
C283 C277 1.363 1_565 S
C283 C278 1.379 . S
C283 N281 1.356 . S
N284 C276 1.356 1_554 S
N284 H290 0.984 1_554 S
N284 H291 0.984 . S
N285 C278 1.356 1_556 S
N285 H288 0.984 . S
N285 H289 0.985 1_556 S
H286 N281 0.984 1_545 S
H287 N281 0.985 . S
H288 N285 0.984 . S
H289 N285 0.985 1_554 S
H290 N284 0.984 1_556 S
H291 N284 0.984 . S
H292 N280 0.984 . S
H293 N280 0.976 1_565 S
C294 C295 1.363 . S
C294 C300 1.379 . S
C294 N302 1.356 . S
C295 C294 1.363 . S
C295 C301 1.363 . S
C296 C297 1.363 . S
C296 C301 1.379 . S
C296 N303 1.356 . S
C297 C296 1.363 . S
C297 C300 1.363 . S
N298 C300 1.356 . S
N298 H310 0.984 . S
N298 H311 0.985 . S
N299 C301 1.356 . S
N299 H304 0.984 . S
N299 H305 0.985 . S
C300 C294 1.379 . S
C300 C297 1.363 . S
C300 N298 1.356 . S
C301 C295 1.363 . S
C301 C296 1.379 . S
C301 N299 1.356 . S
N302 C294 1.356 . S
N302 H308 0.984 . S
N302 H309 0.984 . S
N303 C296 1.356 . S
N303 H306 0.984 . S
N303 H307 0.985 . S
H304 N299 0.984 . S
H305 N299 0.985 . S
H306 N303 0.984 . S
H307 N303 0.985 . S
H308 N302 0.984 . S
H309 N302 0.984 . S
H310 N298 0.984 . S
H311 N298 0.985 . S
C312 C313 1.363 1_655 S
C312 C318 1.379 . S
C312 N320 1.356 . S
C313 C312 1.363 1_455 S
C313 C319 1.363 1_556 S
C314 C315 1.363 1_455 S
C314 C319 1.379 . S
C314 N321 1.356 . S
C315 C314 1.363 1_655 S
C315 C318 1.363 1_554 S
N316 C318 1.356 . S
N316 H328 0.984 . S
N316 H329 0.985 1_556 S
N317 C319 1.356 . S
N317 H322 0.984 1_554 S
N317 H323 0.985 . S
C318 C312 1.379 . S
C318 C315 1.363 1_556 S
C318 N316 1.356 . S
C319 C313 1.363 1_554 S
C319 C314 1.379 . S
C319 N317 1.356 . S
N320 C312 1.356 . S
N320 H326 0.984 . S
N320 H327 0.984 1_655 S
N321 C314 1.356 . S
N321 H324 0.984 1_455 S
N321 H325 0.985 . S
H322 N317 0.984 1_556 S
H323 N317 0.985 . S
H324 N321 0.984 1_655 S
H325 N321 0.985 . S
H326 N320 0.984 . S
H327 N320 0.984 1_455 S
H328 N316 0.984 . S
H329 N316 0.985 1_554 S
C330 C331 1.363 1_565 S
C330 C336 1.379 . S
C330 N338 1.356 . S
C331 C330 1.363 1_545 S
C331 C337 1.363 . S
C332 C333 1.363 1_545 S
C332 C337 1.379 . S
C332 N339 1.356 . S
C333 C332 1.363 1_565 S
C333 C336 1.363 . S
N334 C336 1.356 . S
N334 H346 0.984 . S
N334 H347 0.985 . S
N335 C337 1.356 . S
N335 H340 0.984 . S
N335 H341 0.985 . S
C336 C330 1.379 . S
C336 C333 1.363 . S
C336 N334 1.356 . S
C337 C331 1.363 . S
C337 C332 1.379 . S
C337 N335 1.356 . S
N338 C330 1.356 . S
N338 H344 0.984 . S
N338 H345 0.984 1_565 S
N339 C332 1.356 . S
N339 H342 0.984 1_545 S
N339 H343 0.985 . S
H340 N335 0.984 . S
H341 N335 0.985 . S
H342 N339 0.984 1_565 S
H343 N339 0.985 . S
H344 N338 0.984 . S
H345 N338 0.984 1_545 S
H346 N334 0.984 . S
H347 N334 0.985 . S
C348 C349 1.363 . S
C348 C354 1.379 1_556 S
C348 N356 1.356 . S
C349 C348 1.363 . S
C349 C355 1.363 . S
C350 C351 1.363 . S
C350 C355 1.379 1_554 S
C350 N357 1.356 . S
C351 C350 1.363 . S
C351 C354 1.363 . S
N352 C354 1.356 . S
N352 H364 0.984 . S
N352 H365 0.985 . S
N353 C355 1.356 . S
N353 H358 0.984 . S
N353 H359 0.985 . S
C354 C348 1.379 1_554 S
C354 C351 1.363 . S
C354 N352 1.356 . S
C355 C349 1.363 . S
C355 C350 1.379 1_556 S
C355 N353 1.356 . S
N356 C348 1.356 . S
N356 H362 0.984 . S
N356 H363 0.984 . S
N357 C350 1.356 . S
N357 H360 0.984 . S
N357 H361 0.985 . S
H358 N353 0.984 . S
H359 N353 0.985 . S
H360 N357 0.984 . S
H361 N357 0.985 . S
H362 N356 0.984 . S
H363 N356 0.984 . S
H364 N352 0.984 . S
H365 N352 0.985 . S
C366 C367 1.364 . S
C366 C372 1.376 1_655 S
C366 N374 1.358 . S
C367 C366 1.364 . S
C367 C373 1.363 . S
C368 C369 1.363 1_655 S
C368 C373 1.379 . S
C368 N375 1.356 1_655 S
C369 C368 1.363 1_455 S
C369 C372 1.363 . S
N370 C372 1.356 . S
N370 H382 0.984 . S
N370 H383 0.985 . S
N371 C373 1.356 . S
N371 H376 0.984 . S
N371 H377 0.985 . S
C372 C366 1.376 1_455 S
C372 C369 1.363 . S
C372 N370 1.356 . S
C373 C367 1.363 . S
C373 C368 1.379 . S
C373 N371 1.356 . S
N374 C366 1.358 . S
N374 H380 0.984 1_655 S
N374 H381 0.984 . S
N375 C368 1.356 1_455 S
N375 H378 0.984 . S
N375 H379 0.985 1_455 S
H376 N371 0.984 . S
H377 N371 0.985 . S
H378 N375 0.984 . S
H379 N375 0.985 1_655 S
H380 N374 0.984 1_455 S
H381 N374 0.984 . S
H382 N370 0.984 . S
H383 N370 0.985 . S
C384 C385 1.363 . S
C384 C390 1.379 . S
C384 N392 1.356 . S
C385 C384 1.363 . S
C385 C391 1.363 . S
C386 C387 1.363 . S
C386 C391 1.379 . S
C386 N393 1.356 . S
C387 C386 1.363 . S
C387 C390 1.363 . S
N388 C390 1.356 . S
N388 H400 0.984 . S
N388 H401 0.985 . S
N389 C391 1.356 . S
N389 H394 0.984 . S
N389 H395 0.985 . S
C390 C384 1.379 . S
C390 C387 1.363 . S
C390 N388 1.356 . S
C391 C385 1.363 . S
C391 C386 1.379 . S
C391 N389 1.356 . S
N392 C384 1.356 . S
N392 H398 0.984 . S
N392 H399 0.984 . S
N393 C386 1.356 . S
N393 H396 0.984 . S
N393 H397 0.985 . S
H394 N389 0.984 . S
H395 N389 0.985 . S
H396 N393 0.984 . S
H397 N393 0.985 . S
H398 N392 0.984 . S
H399 N392 0.984 . S
H400 N388 0.984 . S
H401 N388 0.985 . S
C402 C403 1.363 . S
C402 C408 1.379 . S
C402 N410 1.356 . S
C403 C402 1.363 . S
C403 C409 1.363 . S
C404 C405 1.363 . S
C404 C409 1.379 . S
C404 N411 1.356 . S
C405 C404 1.363 . S
C405 C408 1.363 . S
N406 C408 1.356 . S
N406 H418 0.984 . S
N406 H419 0.985 . S
N407 C409 1.356 . S
N407 H412 0.984 . S
N407 H413 0.985 . S
C408 C402 1.379 . S
C408 C405 1.363 . S
C408 N406 1.356 . S
C409 C403 1.363 . S
C409 C404 1.379 . S
C409 N407 1.356 . S
N410 C402 1.356 . S
N410 H416 0.984 . S
N410 H417 0.984 . S
N411 C404 1.356 . S
N411 H414 0.984 . S
N411 H415 0.985 . S
H412 N407 0.984 . S
H413 N407 0.985 . S
H414 N411 0.984 . S
H415 N411 0.985 . S
H416 N410 0.984 . S
H417 N410 0.984 . S
H418 N406 0.984 . S
H419 N406 0.985 . S
C420 C421 1.363 . S
C420 C426 1.379 . S
C420 N428 1.356 . S
C421 C420 1.363 . S
C421 C427 1.363 . S
C422 C423 1.363 . S
C422 C427 1.379 . S
C422 N429 1.356 . S
C423 C422 1.363 . S
C423 C426 1.363 . S
N424 C426 1.356 . S
N424 H436 0.984 . S
N424 H437 0.985 . S
N425 C427 1.356 . S
N425 H430 0.984 . S
N425 H431 0.985 . S
C426 C420 1.379 . S
C426 C423 1.363 . S
C426 N424 1.356 . S
C427 C421 1.363 . S
C427 C422 1.379 . S
C427 N425 1.356 . S
N428 C420 1.356 . S
N428 H434 0.984 . S
N428 H435 0.984 . S
N429 C422 1.356 . S
N429 H432 0.984 . S
N429 H433 0.985 . S
H430 N425 0.984 . S
H431 N425 0.985 . S
H432 N429 0.984 . S
H433 N429 0.985 . S
H434 N428 0.984 . S
H435 N428 0.984 . S
H436 N424 0.984 . S
H437 N424 0.985 . S
C438 C439 1.363 . S
C438 C444 1.379 . S
C438 N446 1.356 . S
C439 C438 1.363 . S
C439 C445 1.363 . S
C440 C441 1.363 . S
C440 C445 1.379 . S
C440 N447 1.356 . S
C441 C440 1.363 . S
C441 C444 1.363 . S
N442 C444 1.356 . S
N442 H454 0.984 . S
N442 H455 0.985 . S
N443 C445 1.356 . S
N443 H448 0.984 . S
N443 H449 0.985 . S
C444 C438 1.379 . S
C444 C441 1.363 . S
C444 N442 1.356 . S
C445 C439 1.363 . S
C445 C440 1.379 . S
C445 N443 1.356 . S
N446 C438 1.356 . S
N446 H452 0.984 . S
N446 H453 0.984 . S
N447 C440 1.356 . S
N447 H450 0.984 . S
N447 H451 0.985 . S
H448 N443 0.984 . S
H449 N443 0.985 . S
H450 N447 0.984 . S
H451 N447 0.985 . S
H452 N446 0.984 . S
H453 N446 0.984 . S
H454 N442 0.984 . S
H455 N442 0.985 . S
C456 C457 1.363 . S
C456 C462 1.379 . S
C456 N464 1.356 . S
C457 C456 1.363 . S
C457 C463 1.363 . S
C458 C459 1.363 . S
C458 C463 1.379 . S
C458 N465 1.356 . S
C459 C458 1.363 . S
C459 C462 1.363 . S
N460 C462 1.356 . S
N460 H472 0.984 . S
N460 H473 0.985 . S
N461 C463 1.356 . S
N461 H466 0.984 . S
N461 H467 0.985 . S
C462 C456 1.379 . S
C462 C459 1.363 . S
C462 N460 1.356 . S
C463 C457 1.363 . S
C463 C458 1.379 . S
C463 N461 1.356 . S
N464 C456 1.356 . S
N464 H470 0.984 . S
N464 H471 0.984 . S
N465 C458 1.356 . S
N465 H468 0.984 . S
N465 H469 0.985 . S
H466 N461 0.984 . S
H467 N461 0.985 . S
H468 N465 0.984 . S
H469 N465 0.985 . S
H470 N464 0.984 . S
H471 N464 0.984 . S
H472 N460 0.984 . S
H473 N460 0.985 . S
C474 C475 1.363 . S
C474 C480 1.379 . S
C474 N482 1.356 . S
C475 C474 1.363 . S
C475 C481 1.363 . S
C476 C477 1.363 . S
C476 C481 1.379 . S
C476 N483 1.356 . S
C477 C476 1.363 . S
C477 C480 1.363 . S
N478 C480 1.356 . S
N478 H490 0.984 . S
N478 H491 0.985 . S
N479 C481 1.356 . S
N479 H484 0.984 . S
N479 H485 0.985 . S
C480 C474 1.379 . S
C480 C477 1.363 . S
C480 N478 1.356 . S
C481 C475 1.363 . S
C481 C476 1.379 . S
C481 N479 1.356 . S
N482 C474 1.356 . S
N482 H488 0.984 . S
N482 H489 0.984 . S
N483 C476 1.356 . S
N483 H486 0.984 . S
N483 H487 0.985 . S
H484 N479 0.984 . S
H485 N479 0.985 . S
H486 N483 0.984 . S
H487 N483 0.985 . S
H488 N482 0.984 . S
H489 N482 0.984 . S
H490 N478 0.984 . S
H491 N478 0.985 . S
C492 C493 1.363 . S
C492 C498 1.379 . S
C492 N500 1.356 . S
C493 C492 1.363 . S
C493 C499 1.363 . S
C494 C495 1.363 . S
C494 C499 1.379 . S
C494 N501 1.356 . S
C495 C494 1.363 . S
C495 C498 1.363 . S
N496 C498 1.356 . S
N496 H508 0.984 . S
N496 H509 0.985 . S
N497 C499 1.356 . S
N497 H502 0.984 . S
N497 H503 0.985 . S
C498 C492 1.379 . S
C498 C495 1.363 . S
C498 N496 1.356 . S
C499 C493 1.363 . S
C499 C494 1.379 . S
C499 N497 1.356 . S
N500 C492 1.356 . S
N500 H506 0.984 . S
N500 H507 0.984 . S
N501 C494 1.356 . S
N501 H504 0.984 . S
N501 H505 0.985 . S
H502 N497 0.984 . S
H503 N497 0.985 . S
H504 N501 0.984 . S
H505 N501 0.985 . S
H506 N500 0.984 . S
H507 N500 0.984 . S
H508 N496 0.984 . S
H509 N496 0.985 . S
C510 C511 1.363 . S
C510 C516 1.379 . S
C510 N518 1.356 . S
C511 C510 1.363 . S
C511 C517 1.363 . S
C512 C513 1.363 . S
C512 C517 1.379 . S
C512 N519 1.356 . S
C513 C512 1.363 . S
C513 C516 1.363 . S
N514 C516 1.356 . S
N514 H526 0.984 . S
N514 H527 0.985 . S
N515 C517 1.356 . S
N515 H520 0.984 . S
N515 H521 0.985 . S
C516 C510 1.379 . S
C516 C513 1.363 . S
C516 N514 1.356 . S
C517 C511 1.363 . S
C517 C512 1.379 . S
C517 N515 1.356 . S
N518 C510 1.356 . S
N518 H524 0.984 . S
N518 H525 0.984 . S
N519 C512 1.356 . S
N519 H522 0.984 . S
N519 H523 0.985 . S
H520 N515 0.984 . S
H521 N515 0.985 . S
H522 N519 0.984 . S
H523 N519 0.985 . S
H524 N518 0.984 . S
H525 N518 0.984 . S
H526 N514 0.984 . S
H527 N514 0.985 . S
C528 C529 1.363 . S
C528 C534 1.379 . S
C528 N536 1.356 . S
C529 C528 1.363 . S
C529 C535 1.363 . S
C530 C531 1.363 . S
C530 C535 1.379 . S
C530 N537 1.356 . S
C531 C530 1.363 . S
C531 C534 1.363 . S
N532 C534 1.356 . S
N532 H544 0.984 . S
N532 H545 0.985 . S
N533 C535 1.356 . S
N533 H538 0.984 . S
N533 H539 0.985 . S
C534 C528 1.379 . S
C534 C531 1.363 . S
C534 N532 1.356 . S
C535 C529 1.363 . S
C535 C530 1.379 . S
C535 N533 1.356 . S
N536 C528 1.356 . S
N536 H542 0.984 . S
N536 H543 0.984 . S
N537 C530 1.356 . S
N537 H540 0.984 . S
N537 H541 0.985 . S
H538 N533 0.984 . S
H539 N533 0.985 . S
H540 N537 0.984 . S
H541 N537 0.985 . S
H542 N536 0.984 . S
H543 N536 0.984 . S
H544 N532 0.984 . S
H545 N532 0.985 . S
C546 C547 1.363 . S
C546 C552 1.379 . S
C546 N554 1.356 . S
C547 C546 1.363 . S
C547 C553 1.363 . S
C548 C549 1.363 . S
C548 C553 1.379 . S
C548 N555 1.356 . S
C549 C548 1.363 . S
C549 C552 1.363 . S
N550 C552 1.356 . S
N550 H562 0.984 . S
N550 H563 0.985 . S
N551 C553 1.356 . S
N551 H556 0.984 . S
N551 H557 0.985 . S
C552 C546 1.379 . S
C552 C549 1.363 . S
C552 N550 1.356 . S
C553 C547 1.363 . S
C553 C548 1.379 . S
C553 N551 1.356 . S
N554 C546 1.356 . S
N554 H560 0.984 . S
N554 H561 0.984 . S
N555 C548 1.356 . S
N555 H558 0.984 . S
N555 H559 0.985 . S
H556 N551 0.984 . S
H557 N551 0.985 . S
H558 N555 0.984 . S
H559 N555 0.985 . S
H560 N554 0.984 . S
H561 N554 0.984 . S
H562 N550 0.984 . S
H563 N550 0.985 . S
C564 C565 1.363 . S
C564 C570 1.379 . S
C564 N572 1.356 . S
C565 C564 1.363 . S
C565 C571 1.363 . S
C566 C567 1.363 . S
C566 C571 1.379 . S
C566 N573 1.356 . S
C567 C566 1.363 . S
C567 C570 1.363 . S
N568 C570 1.356 . S
N568 H580 0.984 . S
N568 H581 0.985 . S
N569 C571 1.356 . S
N569 H574 0.984 . S
N569 H575 0.985 . S
C570 C564 1.379 . S
C570 C567 1.363 . S
C570 N568 1.356 . S
C571 C565 1.363 . S
C571 C566 1.379 . S
C571 N569 1.356 . S
N572 C564 1.356 . S
N572 H578 0.984 . S
N572 H579 0.984 . S
N573 C566 1.356 . S
N573 H576 0.984 . S
N573 H577 0.985 . S
H574 N569 0.984 . S
H575 N569 0.985 . S
H576 N573 0.984 . S
H577 N573 0.985 . S
H578 N572 0.984 . S
H579 N572 0.984 . S
H580 N568 0.984 . S
H581 N568 0.985 . S
C582 C583 1.363 . S
C582 C588 1.379 . S
C582 N590 1.356 . S
C583 C582 1.363 . S
C583 C589 1.363 . S
C584 C585 1.363 . S
C584 C589 1.379 . S
C584 N591 1.356 . S
C585 C584 1.363 . S
C585 C588 1.363 . S
N586 C588 1.356 . S
N586 H598 0.984 . S
N586 H599 0.985 . S
N587 C589 1.356 . S
N587 H592 0.984 . S
N587 H593 0.985 . S
C588 C582 1.379 . S
C588 C585 1.363 . S
C588 N586 1.356 . S
C589 C583 1.363 . S
C589 C584 1.379 . S
C589 N587 1.356 . S
N590 C582 1.356 . S
N590 H596 0.984 . S
N590 H597 0.984 . S
N591 C584 1.356 . S
N591 H594 0.984 . S
N591 H595 0.985 . S
H592 N587 0.984 . S
H593 N587 0.985 . S
H594 N591 0.984 . S
H595 N591 0.985 . S
H596 N590 0.984 . S
H597 N590 0.984 . S
H598 N586 0.984 . S
H599 N586 0.985 . S
C169 C151 1.379 . S
C171 C11 1.382 . S
C187 C25 1.317 . S
C189 C165 1.317 . S
C205 C39 1.379 . S
C207 C95 1.382 . S
C223 C109 1.379 . S
C225 C53 1.382 . S
C241 C123 1.317 . S
C243 C67 1.317 . S
C259 C81 1.379 . S
C261 C137 1.382 . S
C277 C5 0.916 . S
C279 C103 1.031 . S
C295 C19 0.951 . S
C297 C117 0.951 . S
C313 C131 0.916 . S
C315 C33 1.031 . S
C331 C145 1.031 . S
C333 C47 0.916 . S
C349 C159 0.951 . S
C351 C61 0.951 . S
C367 C89 0.916 . S
C369 C75 1.031 . S
C385 C12 1.144 . S
C387 C60 1.052 . S
C403 C26 1.138 . S
C405 C74 1.094 . S
C421 C40 1.152 . S
C423 C4 1.076 . S
C439 C54 1.144 . S
C441 C18 1.052 . S
C457 C68 1.138 . S
C459 C32 1.093 . S
C475 C82 1.152 . S
C477 C46 1.076 . S
C493 C96 1.144 . S
C495 C116 1.052 . S
C511 C110 1.152 . S
C513 C130 1.076 . S
C529 C144 1.094 . S
C531 C124 1.138 . S
C547 C138 1.144 . S
C549 C158 1.052 . S
C565 C152 1.152 . S
C567 C88 1.076 . S
C583 C166 1.138 . S
C585 C102 1.093 . S
