# Generated by pormake.
# Topology uoa, (4)-cn, num edge types: 1
# Building blocks:
#     Node 0, Type 0, BuildingBlock: QUQFOY_clean_sbu_1, # of connection points: 4
#     Node 1, Type 0, BuildingBlock: QUQFOY_clean_sbu_1, # of connection points: 4
#     Node 2, Type 0, BuildingBlock: QUQFOY_clean_sbu_1, # of connection points: 4
#     Node 3, Type 0, BuildingBlock: QUQFOY_clean_sbu_1, # of connection points: 4
#     Node 4, Type 0, BuildingBlock: QUQFOY_clean_sbu_1, # of connection points: 4
#     Node 5, Type 0, BuildingBlock: QUQFOY_clean_sbu_1, # of connection points: 4
#     Node 6, Type 0, BuildingBlock: QUQFOY_clean_sbu_1, # of connection points: 4
#     Node 7, Type 0, BuildingBlock: QUQFOY_clean_sbu_1, # of connection points: 4
#     Node 8, Type 0, BuildingBlock: QUQFOY_clean_sbu_1, # of connection points: 4
#     Node 9, Type 0, BuildingBlock: QUQFOY_clean_sbu_1, # of connection points: 4
#     Node 10, Type 0, BuildingBlock: QUQFOY_clean_sbu_1, # of connection points: 4
#     Node 11, Type 0, BuildingBlock: QUQFOY_clean_sbu_1, # of connection points: 4
#     Node 12, Type 0, BuildingBlock: QUQFOY_clean_sbu_1, # of connection points: 4
#     Node 13, Type 0, BuildingBlock: QUQFOY_clean_sbu_1, # of connection points: 4
#     Node 14, Type 0, BuildingBlock: QUQFOY_clean_sbu_1, # of connection points: 4
#     Node 15, Type 0, BuildingBlock: QUQFOY_clean_sbu_1, # of connection points: 4
#     Node 16, Type 0, BuildingBlock: QUQFOY_clean_sbu_1, # of connection points: 4
#     Node 17, Type 0, BuildingBlock: QUQFOY_clean_sbu_1, # of connection points: 4
#     Node 18, Type 0, BuildingBlock: QUQFOY_clean_sbu_1, # of connection points: 4
#     Node 19, Type 0, BuildingBlock: QUQFOY_clean_sbu_1, # of connection points: 4
#     Node 20, Type 0, BuildingBlock: QUQFOY_clean_sbu_1, # of connection points: 4
#     Node 21, Type 0, BuildingBlock: QUQFOY_clean_sbu_1, # of connection points: 4
#     Node 22, Type 0, BuildingBlock: QUQFOY_clean_sbu_1, # of connection points: 4
#     Node 23, Type 0, BuildingBlock: QUQFOY_clean_sbu_1, # of connection points: 4
#     Node 24, Type 0, BuildingBlock: QUQFOY_clean_sbu_1, # of connection points: 4
#     Node 25, Type 0, BuildingBlock: QUQFOY_clean_sbu_1, # of connection points: 4
#     Node 26, Type 0, BuildingBlock: QUQFOY_clean_sbu_1, # of connection points: 4
#     Node 27, Type 0, BuildingBlock: QUQFOY_clean_sbu_1, # of connection points: 4
#     Node 28, Type 0, BuildingBlock: QUQFOY_clean_sbu_1, # of connection points: 4
#     Node 29, Type 0, BuildingBlock: QUQFOY_clean_sbu_1, # of connection points: 4
#     Node 30, Type 0, BuildingBlock: QUQFOY_clean_sbu_1, # of connection points: 4
#     Node 31, Type 0, BuildingBlock: QUQFOY_clean_sbu_1, # of connection points: 4
#     Edge 32, Type (0, 0), BuildingBlock: UVAHIK_clean_linker_0, # of connection points: 2
#     Edge 33, Type (0, 0), BuildingBlock: UVAHIK_clean_linker_0, # of connection points: 2
#     Edge 34, Type (0, 0), BuildingBlock: UVAHIK_clean_linker_0, # of connection points: 2
#     Edge 35, Type (0, 0), BuildingBlock: UVAHIK_clean_linker_0, # of connection points: 2
#     Edge 36, Type (0, 0), BuildingBlock: UVAHIK_clean_linker_0, # of connection points: 2
#     Edge 37, Type (0, 0), BuildingBlock: UVAHIK_clean_linker_0, # of connection points: 2
#     Edge 38, Type (0, 0), BuildingBlock: UVAHIK_clean_linker_0, # of connection points: 2
#     Edge 39, Type (0, 0), BuildingBlock: UVAHIK_clean_linker_0, # of connection points: 2
#     Edge 40, Type (0, 0), BuildingBlock: UVAHIK_clean_linker_0, # of connection points: 2
#     Edge 41, Type (0, 0), BuildingBlock: UVAHIK_clean_linker_0, # of connection points: 2
#     Edge 42, Type (0, 0), BuildingBlock: UVAHIK_clean_linker_0, # of connection points: 2
#     Edge 43, Type (0, 0), BuildingBlock: UVAHIK_clean_linker_0, # of connection points: 2
#     Edge 44, Type (0, 0), BuildingBlock: UVAHIK_clean_linker_0, # of connection points: 2
#     Edge 45, Type (0, 0), BuildingBlock: UVAHIK_clean_linker_0, # of connection points: 2
#     Edge 46, Type (0, 0), BuildingBlock: UVAHIK_clean_linker_0, # of connection points: 2
#     Edge 47, Type (0, 0), BuildingBlock: UVAHIK_clean_linker_0, # of connection points: 2
#     Edge 48, Type (0, 0), BuildingBlock: UVAHIK_clean_linker_0, # of connection points: 2
#     Edge 49, Type (0, 0), BuildingBlock: UVAHIK_clean_linker_0, # of connection points: 2
#     Edge 50, Type (0, 0), BuildingBlock: UVAHIK_clean_linker_0, # of connection points: 2
#     Edge 51, Type (0, 0), BuildingBlock: UVAHIK_clean_linker_0, # of connection points: 2
#     Edge 52, Type (0, 0), BuildingBlock: UVAHIK_clean_linker_0, # of connection points: 2
#     Edge 53, Type (0, 0), BuildingBlock: UVAHIK_clean_linker_0, # of connection points: 2
#     Edge 54, Type (0, 0), BuildingBlock: UVAHIK_clean_linker_0, # of connection points: 2
#     Edge 55, Type (0, 0), BuildingBlock: UVAHIK_clean_linker_0, # of connection points: 2
#     Edge 56, Type (0, 0), BuildingBlock: UVAHIK_clean_linker_0, # of connection points: 2
#     Edge 57, Type (0, 0), BuildingBlock: UVAHIK_clean_linker_0, # of connection points: 2
#     Edge 58, Type (0, 0), BuildingBlock: UVAHIK_clean_linker_0, # of connection points: 2
#     Edge 59, Type (0, 0), BuildingBlock: UVAHIK_clean_linker_0, # of connection points: 2
#     Edge 60, Type (0, 0), BuildingBlock: UVAHIK_clean_linker_0, # of connection points: 2
#     Edge 61, Type (0, 0), BuildingBlock: UVAHIK_clean_linker_0, # of connection points: 2
#     Edge 62, Type (0, 0), BuildingBlock: UVAHIK_clean_linker_0, # of connection points: 2
#     Edge 63, Type (0, 0), BuildingBlock: UVAHIK_clean_linker_0, # of connection points: 2
#     Edge 64, Type (0, 0), BuildingBlock: UVAHIK_clean_linker_0, # of connection points: 2
#     Edge 65, Type (0, 0), BuildingBlock: UVAHIK_clean_linker_0, # of connection points: 2
#     Edge 66, Type (0, 0), BuildingBlock: UVAHIK_clean_linker_0, # of connection points: 2
#     Edge 67, Type (0, 0), BuildingBlock: UVAHIK_clean_linker_0, # of connection points: 2
#     Edge 68, Type (0, 0), BuildingBlock: UVAHIK_clean_linker_0, # of connection points: 2
#     Edge 69, Type (0, 0), BuildingBlock: UVAHIK_clean_linker_0, # of connection points: 2
#     Edge 70, Type (0, 0), BuildingBlock: UVAHIK_clean_linker_0, # of connection points: 2
#     Edge 71, Type (0, 0), BuildingBlock: UVAHIK_clean_linker_0, # of connection points: 2
#     Edge 72, Type (0, 0), BuildingBlock: UVAHIK_clean_linker_0, # of connection points: 2
#     Edge 73, Type (0, 0), BuildingBlock: UVAHIK_clean_linker_0, # of connection points: 2
#     Edge 74, Type (0, 0), BuildingBlock: UVAHIK_clean_linker_0, # of connection points: 2
#     Edge 75, Type (0, 0), BuildingBlock: UVAHIK_clean_linker_0, # of connection points: 2
#     Edge 76, Type (0, 0), BuildingBlock: UVAHIK_clean_linker_0, # of connection points: 2
#     Edge 77, Type (0, 0), BuildingBlock: UVAHIK_clean_linker_0, # of connection points: 2
#     Edge 78, Type (0, 0), BuildingBlock: UVAHIK_clean_linker_0, # of connection points: 2
#     Edge 79, Type (0, 0), BuildingBlock: UVAHIK_clean_linker_0, # of connection points: 2
#     Edge 80, Type (0, 0), BuildingBlock: UVAHIK_clean_linker_0, # of connection points: 2
#     Edge 81, Type (0, 0), BuildingBlock: UVAHIK_clean_linker_0, # of connection points: 2
#     Edge 82, Type (0, 0), BuildingBlock: UVAHIK_clean_linker_0, # of connection points: 2
#     Edge 83, Type (0, 0), BuildingBlock: UVAHIK_clean_linker_0, # of connection points: 2
#     Edge 84, Type (0, 0), BuildingBlock: UVAHIK_clean_linker_0, # of connection points: 2
#     Edge 85, Type (0, 0), BuildingBlock: UVAHIK_clean_linker_0, # of connection points: 2
#     Edge 86, Type (0, 0), BuildingBlock: UVAHIK_clean_linker_0, # of connection points: 2
#     Edge 87, Type (0, 0), BuildingBlock: UVAHIK_clean_linker_0, # of connection points: 2
#     Edge 88, Type (0, 0), BuildingBlock: UVAHIK_clean_linker_0, # of connection points: 2
#     Edge 89, Type (0, 0), BuildingBlock: UVAHIK_clean_linker_0, # of connection points: 2
#     Edge 90, Type (0, 0), BuildingBlock: UVAHIK_clean_linker_0, # of connection points: 2
#     Edge 91, Type (0, 0), BuildingBlock: UVAHIK_clean_linker_0, # of connection points: 2
#     Edge 92, Type (0, 0), BuildingBlock: UVAHIK_clean_linker_0, # of connection points: 2
#     Edge 93, Type (0, 0), BuildingBlock: UVAHIK_clean_linker_0, # of connection points: 2
#     Edge 94, Type (0, 0), BuildingBlock: UVAHIK_clean_linker_0, # of connection points: 2
#     Edge 95, Type (0, 0), BuildingBlock: UVAHIK_clean_linker_0, # of connection points: 2
# Relax obj value: 0.074
# Max RMSD: 0.149
# Mean RMSD: 0.149
data_MOF--net-uoa--node1-QUQFOY_clean_sbu_1--edge1-UVAHIK_clean_linker_0
_symmetry_space_group_name_H-M    P1
_symmetry_Int_Tables_number       1
_symmetry_cell_setting            triclinic
loop_
_symmetry_equiv_pos_as_xyz
'x, y, z'
_cell_length_a     101.72896
_cell_length_b     101.69077
_cell_length_c     36.652498
_cell_angle_alpha  90.013697
_cell_angle_beta   89.994312
_cell_angle_gamma 89.992694
loop_
_atom_site_label
_atom_site_type_symbol
_atom_site_fract_x
_atom_site_fract_y
_atom_site_fract_z
_atom_type_partial_charge
O0 O 0.03039 0.09028 0.15298 0.0
Cd1 Cd 0.03994 0.08541 0.10527 0.0
Cd2 Cd 0.01863 0.09597 0.07664 0.0
O3 O 0.01619 0.10392 0.12807 0.0
O4 O 0.05909 0.08507 0.1176 0.0
O5 O 0.05004 0.10001 0.08157 0.0
C6 C 0.06027 0.09575 0.09881 0.0
C7 C 0.01729 0.10844 0.02362 0.0
C8 C 0.02152 0.09899 0.1563 0.0
C9 C 0.02215 0.06685 0.06751 0.0
O10 O 0.01408 0.07639 0.06844 0.0
O11 O 0.03397 0.06853 0.07799 0.0
O12 O 0.00697 0.10589 0.04281 0.0
O13 O 0.02855 0.10457 0.0358 0.0
O14 O 0.16386 0.78291 0.39863 0.0
Cd15 Cd 0.16926 0.79101 0.34917 0.0
Cd16 Cd 0.16011 0.76804 0.3249 0.0
O17 O 0.1528 0.76599 0.37684 0.0
O18 O 0.16886 0.81042 0.35723 0.0
O19 O 0.1546 0.79988 0.3222 0.0
C20 C 0.1583 0.81069 0.33768 0.0
C21 C 0.14731 0.76376 0.27374 0.0
C22 C 0.15638 0.77306 0.40362 0.0
C23 C 0.18901 0.7732 0.31516 0.0
O24 O 0.17982 0.76474 0.31633 0.0
O25 O 0.18677 0.78504 0.32463 0.0
O26 O 0.15133 0.75442 0.29477 0.0
O27 O 0.14995 0.77573 0.28304 0.0
O28 O 0.47602 0.91034 0.64995 0.0
Cd29 Cd 0.46629 0.91672 0.60383 0.0
Cd30 Cd 0.48777 0.90714 0.57171 0.0
O31 O 0.49137 0.89883 0.62196 0.0
O32 O 0.44728 0.91705 0.61764 0.0
O33 O 0.45574 0.90286 0.57831 0.0
C34 C 0.44577 0.90681 0.59721 0.0
C35 C 0.48848 0.89501 0.51803 0.0
C36 C 0.48561 0.90233 0.65113 0.0
C37 C 0.48361 0.93628 0.56673 0.0
O38 O 0.49175 0.92683 0.56448 0.0
O39 O 0.47211 0.93427 0.57928 0.0
O40 O 0.49906 0.89773 0.53591 0.0
O41 O 0.47735 0.8986 0.53174 0.0
O42 O 0.33786 0.22613 0.89525 0.0
Cd43 Cd 0.33346 0.21477 0.8503 0.0
Cd44 Cd 0.34423 0.23484 0.81577 0.0
O45 O 0.35169 0.23927 0.86677 0.0
O46 O 0.33396 0.19601 0.86652 0.0
O47 O 0.34845 0.20472 0.82843 0.0
C48 C 0.34461 0.19477 0.84762 0.0
C49 C 0.35731 0.23602 0.76365 0.0
C50 C 0.34653 0.23513 0.89618 0.0
C51 C 0.31497 0.23068 0.80715 0.0
O52 O 0.3246 0.23862 0.80529 0.0
O53 O 0.31654 0.2194 0.82159 0.0
O54 O 0.35357 0.24646 0.78069 0.0
O55 O 0.3542 0.22476 0.77745 0.0
O56 O 0.02897 0.91308 0.34165 0.0
Cd57 Cd 0.03876 0.91906 0.38813 0.0
Cd58 Cd 0.01713 0.90971 0.41977 0.0
O59 O 0.01356 0.90155 0.36928 0.0
O60 O 0.05783 0.91886 0.37497 0.0
O61 O 0.04878 0.9048 0.41362 0.0
C62 C 0.05895 0.90852 0.39519 0.0
C63 C 0.01566 0.8976 0.47341 0.0
C64 C 0.01932 0.90515 0.34021 0.0
C65 C 0.02178 0.93878 0.42543 0.0
O66 O 0.01348 0.92945 0.42708 0.0
O67 O 0.0333 0.93663 0.41321 0.0
O68 O 0.00532 0.90058 0.45484 0.0
O69 O 0.027 0.90088 0.46039 0.0
O70 O 0.33932 0.78318 0.5978 0.0
Cd71 Cd 0.33401 0.79127 0.64733 0.0
Cd72 Cd 0.34324 0.76834 0.67149 0.0
O73 O 0.35052 0.76635 0.61949 0.0
O74 O 0.33449 0.8107 0.63945 0.0
O75 O 0.34876 0.80004 0.67418 0.0
C76 C 0.34509 0.81088 0.65882 0.0
C77 C 0.35608 0.76406 0.72257 0.0
C78 C 0.34686 0.77338 0.59274 0.0
C79 C 0.31434 0.77345 0.68148 0.0
O80 O 0.32354 0.76501 0.68017 0.0
O81 O 0.31654 0.7853 0.67207 0.0
O82 O 0.35208 0.75472 0.70151 0.0
O83 O 0.35341 0.77602 0.71334 0.0
O84 O 0.47382 0.09345 0.8513 0.0
Cd85 Cd 0.46408 0.08688 0.89728 0.0
Cd86 Cd 0.4859 0.09585 0.92912 0.0
O87 O 0.48984 0.1041 0.87904 0.0
O88 O 0.4451 0.08685 0.88345 0.0
O89 O 0.4536 0.10058 0.92393 0.0
C90 C 0.4436 0.09685 0.90475 0.0
C91 C 0.48777 0.1078 0.983 0.0
C92 C 0.48377 0.10101 0.84999 0.0
C93 C 0.48099 0.06668 0.93276 0.0
O94 O 0.4892 0.07604 0.93579 0.0
O95 O 0.46953 0.06892 0.92015 0.0
O96 O 0.49799 0.10422 0.96474 0.0
O97 O 0.47633 0.10521 0.96945 0.0
O98 O 0.16331 0.22404 0.10104 0.0
Cd99 Cd 0.16946 0.21406 0.14709 0.0
Cd100 Cd 0.16051 0.23593 0.17934 0.0
O101 O 0.15293 0.24027 0.12867 0.0
O102 O 0.16936 0.19511 0.13274 0.0
O103 O 0.15548 0.20365 0.17277 0.0
C104 C 0.15922 0.19366 0.15355 0.0
C105 C 0.14776 0.23763 0.23184 0.0
C106 C 0.15602 0.2342 0.09963 0.0
C107 C 0.18953 0.23047 0.1852 0.0
O108 O 0.18028 0.23879 0.18827 0.0
O109 O 0.18727 0.2192 0.17137 0.0
O110 O 0.1518 0.24792 0.21464 0.0
O111 O 0.15041 0.22624 0.21806 0.0
O112 O 0.97106 0.91725 0.84504 0.0
Cd113 Cd 0.96127 0.92182 0.89268 0.0
Cd114 Cd 0.98284 0.91177 0.92173 0.0
O115 O 0.98586 0.90428 0.87005 0.0
O116 O 0.94213 0.92135 0.88046 0.0
O117 O 0.9518 0.90687 0.91675 0.0
C118 C 0.94139 0.91068 0.8995 0.0
C119 C 0.98551 0.89892 0.9738 0.0
C120 C 0.98035 0.90897 0.8418 0.0
C121 C 0.97818 0.94087 0.93124 0.0
O122 O 0.98643 0.93148 0.93102 0.0
O123 O 0.96652 0.93897 0.91979 0.0
O124 O 0.99545 0.90274 0.95472 0.0
O125 O 0.97389 0.90177 0.96199 0.0
O126 O 0.83765 0.2209 0.59943 0.0
Cd127 Cd 0.83284 0.21155 0.64751 0.0
Cd128 Cd 0.84339 0.23292 0.67589 0.0
O129 O 0.85122 0.23516 0.62435 0.0
O130 O 0.83292 0.19235 0.63617 0.0
O131 O 0.84762 0.20194 0.67196 0.0
C132 C 0.8436 0.19152 0.6551 0.0
C133 C 0.85617 0.23631 0.72771 0.0
C134 C 0.84639 0.22975 0.59615 0.0
C135 C 0.8142 0.22912 0.68525 0.0
O136 O 0.82376 0.23717 0.68455 0.0
O137 O 0.81586 0.21734 0.67444 0.0
O138 O 0.85265 0.24593 0.70702 0.0
O139 O 0.85304 0.22453 0.71775 0.0
O140 O 0.52934 0.09062 0.35207 0.0
Cd141 Cd 0.5393 0.08465 0.3983 0.0
Cd142 Cd 0.51745 0.0936 0.43045 0.0
O143 O 0.51328 0.10124 0.37974 0.0
O144 O 0.55835 0.08525 0.3851 0.0
O145 O 0.54906 0.09898 0.42427 0.0
C146 C 0.5593 0.09551 0.40571 0.0
C147 C 0.51537 0.10623 0.48311 0.0
C148 C 0.51928 0.09803 0.35068 0.0
C149 C 0.52295 0.06455 0.43619 0.0
O150 O 0.51461 0.0738 0.43901 0.0
O151 O 0.53427 0.06683 0.42271 0.0
O152 O 0.5052 0.10215 0.4654 0.0
O153 O 0.52684 0.10369 0.46974 0.0
O154 O 0.6595 0.778 0.09626 0.0
Cd155 Cd 0.66646 0.78814 0.14113 0.0
Cd156 Cd 0.65764 0.76652 0.17464 0.0
O157 O 0.64894 0.76223 0.12529 0.0
O158 O 0.66686 0.80696 0.12527 0.0
O159 O 0.65316 0.79935 0.1671 0.0
C160 C 0.65702 0.80899 0.14679 0.0
C161 C 0.64629 0.76674 0.22969 0.0
C162 C 0.65189 0.76808 0.09579 0.0
C163 C 0.68676 0.77124 0.17676 0.0
O164 O 0.67746 0.763 0.18032 0.0
O165 O 0.68443 0.78265 0.16392 0.0
O166 O 0.64895 0.75584 0.21323 0.0
O167 O 0.64939 0.77761 0.21361 0.0
O168 O 0.97319 0.08846 0.65263 0.0
Cd169 Cd 0.96346 0.08378 0.60506 0.0
Cd170 Cd 0.98473 0.09431 0.57578 0.0
O171 O 0.98744 0.10198 0.62744 0.0
O172 O 0.94437 0.08347 0.61799 0.0
O173 O 0.95331 0.09847 0.58192 0.0
C174 C 0.94314 0.09419 0.59941 0.0
C175 C 0.98606 0.10722 0.52358 0.0
C176 C 0.98216 0.09708 0.65576 0.0
C177 C 0.9809 0.06524 0.56577 0.0
O178 O 0.98905 0.07473 0.56639 0.0
O179 O 0.9692 0.06697 0.57715 0.0
O180 O 0.9964 0.10436 0.54232 0.0
O181 O 0.97478 0.10333 0.53567 0.0
O182 O 0.66208 0.22432 0.39892 0.0
Cd183 Cd 0.6682 0.2144 0.35276 0.0
Cd184 Cd 0.65934 0.23627 0.32068 0.0
O185 O 0.65149 0.24038 0.37115 0.0
O186 O 0.66768 0.19534 0.36599 0.0
O187 O 0.654 0.20453 0.32653 0.0
C188 C 0.65748 0.19432 0.34518 0.0
C189 C 0.64697 0.23835 0.26758 0.0
C190 C 0.65464 0.23437 0.40023 0.0
C191 C 0.6884 0.23086 0.31573 0.0
O192 O 0.67916 0.2392 0.31289 0.0
O193 O 0.68608 0.21949 0.32881 0.0
O194 O 0.65092 0.24851 0.28552 0.0
O195 O 0.64948 0.22687 0.28096 0.0
O196 O 0.53059 0.91534 0.14592 0.0
Cd197 Cd 0.54037 0.92005 0.09842 0.0
Cd198 Cd 0.51893 0.90974 0.06905 0.0
O199 O 0.51582 0.90236 0.12078 0.0
O200 O 0.55951 0.91986 0.11089 0.0
O201 O 0.55011 0.90524 0.07454 0.0
C202 C 0.56043 0.9092 0.0919 0.0
C203 C 0.51692 0.8966 0.01734 0.0
C204 C 0.52132 0.90704 0.14907 0.0
C205 C 0.52328 0.93887 0.05927 0.0
O206 O 0.51514 0.92938 0.05915 0.0
O207 O 0.5349 0.93711 0.07123 0.0
O208 O 0.50675 0.90033 0.03562 0.0
O209 O 0.52838 0.89976 0.02971 0.0
O210 O 0.84094 0.7792 0.89752 0.0
Cd211 Cd 0.83551 0.7891 0.85084 0.0
Cd212 Cd 0.84562 0.76768 0.82075 0.0
O213 O 0.85391 0.7646 0.87153 0.0
O214 O 0.83496 0.8081 0.86504 0.0
O215 O 0.84963 0.79981 0.82686 0.0
C216 C 0.84538 0.80974 0.84543 0.0
C217 C 0.85748 0.7676 0.76652 0.0
C218 C 0.84939 0.77004 0.90013 0.0
C219 C 0.81645 0.77155 0.8139 0.0
O220 O 0.82595 0.76342 0.81354 0.0
O221 O 0.81831 0.78329 0.82491 0.0
O222 O 0.85511 0.75682 0.78391 0.0
O223 O 0.85386 0.77854 0.78136 0.0
O224 O 0.53009 0.58829 0.64666 0.0
Cd225 Cd 0.53987 0.5837 0.59904 0.0
Cd226 Cd 0.5184 0.59406 0.56995 0.0
O227 O 0.51525 0.60128 0.62184 0.0
O228 O 0.55901 0.5839 0.61147 0.0
O229 O 0.54958 0.59857 0.57535 0.0
C230 C 0.55992 0.59459 0.59261 0.0
C231 C 0.51645 0.60731 0.51848 0.0
C232 C 0.52078 0.59654 0.65001 0.0
C233 C 0.52279 0.56497 0.55947 0.0
O234 O 0.51464 0.57445 0.55959 0.0
O235 O 0.53441 0.56671 0.57148 0.0
O236 O 0.50625 0.60356 0.53662 0.0
O237 O 0.52789 0.60413 0.53089 0.0
O238 O 0.66106 0.27978 0.89899 0.0
Cd239 Cd 0.6675 0.28957 0.85295 0.0
Cd240 Cd 0.65826 0.26786 0.82102 0.0
O241 O 0.65018 0.26391 0.87129 0.0
O242 O 0.66758 0.30855 0.86691 0.0
O243 O 0.65372 0.30007 0.82674 0.0
C244 C 0.6575 0.31005 0.8459 0.0
C245 C 0.64608 0.26605 0.76754 0.0
C246 C 0.65342 0.26989 0.90034 0.0
C247 C 0.68743 0.27262 0.81653 0.0
O248 O 0.67802 0.26447 0.8137 0.0
O249 O 0.68533 0.28407 0.82937 0.0
O250 O 0.64971 0.2558 0.78564 0.0
O251 O 0.64876 0.27747 0.78101 0.0
O252 O 0.97358 0.41282 0.15555 0.0
Cd253 Cd 0.96385 0.4189 0.10909 0.0
Cd254 Cd 0.98554 0.40966 0.07745 0.0
O255 O 0.98907 0.40141 0.12786 0.0
O256 O 0.94475 0.4186 0.12185 0.0
O257 O 0.95397 0.40469 0.08306 0.0
C258 C 0.94373 0.40831 0.10135 0.0
C259 C 0.987 0.39761 0.02368 0.0
C260 C 0.98325 0.40492 0.15694 0.0
C261 C 0.98086 0.43874 0.07237 0.0
O262 O 0.98916 0.42942 0.0705 0.0
O263 O 0.96933 0.43655 0.08451 0.0
O264 O 0.99735 0.40058 0.04226 0.0
O265 O 0.97568 0.40088 0.03675 0.0
O266 O 0.83684 0.72508 0.39754 0.0
Cd267 Cd 0.83253 0.71418 0.35168 0.0
Cd268 Cd 0.84352 0.73441 0.31869 0.0
O269 O 0.85105 0.73809 0.37013 0.0
O270 O 0.83274 0.69525 0.36653 0.0
O271 O 0.84751 0.70418 0.32969 0.0
C272 C 0.84347 0.69409 0.34794 0.0
C273 C 0.85666 0.73517 0.26671 0.0
C274 C 0.84572 0.73385 0.3992 0.0
C275 C 0.81435 0.73077 0.30903 0.0
O276 O 0.82398 0.73875 0.30833 0.0
O277 O 0.81587 0.71932 0.32242 0.0
O278 O 0.8537 0.74571 0.28445 0.0
O279 O 0.85271 0.72404 0.27959 0.0
O280 O 0.52891 0.41298 0.8477 0.0
Cd281 Cd 0.53887 0.41905 0.89388 0.0
Cd282 Cd 0.51702 0.41002 0.92589 0.0
O283 O 0.5128 0.40241 0.87521 0.0
O284 O 0.55783 0.41894 0.87966 0.0
O285 O 0.54923 0.40499 0.9194 0.0
C286 C 0.55923 0.40874 0.90029 0.0
C287 C 0.51506 0.39736 0.97849 0.0
C288 C 0.51884 0.4056 0.84621 0.0
C289 C 0.52243 0.43906 0.93197 0.0
O290 O 0.51411 0.4298 0.93468 0.0
O291 O 0.53374 0.43683 0.91841 0.0
O292 O 0.50486 0.40141 0.96087 0.0
O293 O 0.52651 0.39995 0.96503 0.0
O294 O 0.84199 0.28021 0.10298 0.0
Cd295 Cd 0.83626 0.28864 0.15168 0.0
Cd296 Cd 0.84551 0.26581 0.17733 0.0
O297 O 0.85291 0.26334 0.12554 0.0
O298 O 0.836 0.30799 0.14179 0.0
O299 O 0.85051 0.29838 0.17802 0.0
C300 C 0.84648 0.30886 0.16153 0.0
C301 C 0.85835 0.26401 0.22941 0.0
C302 C 0.84943 0.27031 0.09847 0.0
C303 C 0.81664 0.27066 0.18652 0.0
O304 O 0.82586 0.26222 0.18605 0.0
O305 O 0.81884 0.28244 0.17631 0.0
O306 O 0.85522 0.25377 0.21053 0.0
O307 O 0.85478 0.27541 0.21746 0.0
O308 O 0.97232 0.59085 0.34573 0.0
Cd309 Cd 0.96291 0.58588 0.3936 0.0
Cd310 Cd 0.98436 0.59633 0.42194 0.0
O311 O 0.98678 0.60425 0.37049 0.0
O312 O 0.94371 0.58556 0.38181 0.0
O313 O 0.95287 0.60041 0.41792 0.0
C314 C 0.94258 0.59617 0.40092 0.0
C315 C 0.98572 0.60882 0.47493 0.0
C316 C 0.9813 0.59945 0.34233 0.0
C317 C 0.98076 0.56721 0.43085 0.0
O318 O 0.98885 0.57674 0.43008 0.0
O319 O 0.96894 0.56894 0.42042 0.0
O320 O 0.99604 0.60623 0.45578 0.0
O321 O 0.97445 0.60496 0.46274 0.0
O322 O 0.66593 0.72412 0.59829 0.0
Cd323 Cd 0.67019 0.71291 0.64365 0.0
Cd324 Cd 0.65987 0.73338 0.67741 0.0
O325 O 0.65242 0.73771 0.62631 0.0
O326 O 0.66945 0.6941 0.62798 0.0
O327 O 0.65512 0.70311 0.66604 0.0
C328 C 0.65882 0.69305 0.64709 0.0
C329 C 0.64698 0.73524 0.7298 0.0
C330 C 0.65747 0.73331 0.59704 0.0
C331 C 0.68907 0.7287 0.68574 0.0
O332 O 0.67959 0.73682 0.68737 0.0
O333 O 0.68727 0.71736 0.67188 0.0
O334 O 0.6509 0.74546 0.71207 0.0
O335 O 0.64977 0.72381 0.71652 0.0
O336 O 0.47353 0.41104 0.34649 0.0
Cd337 Cd 0.46376 0.41758 0.39249 0.0
Cd338 Cd 0.48553 0.40851 0.42449 0.0
O339 O 0.48947 0.40032 0.37433 0.0
O340 O 0.44474 0.4175 0.37893 0.0
O341 O 0.45343 0.4038 0.41917 0.0
C342 C 0.44337 0.40747 0.40018 0.0
C343 C 0.4874 0.3965 0.47826 0.0
C344 C 0.48345 0.40345 0.34525 0.0
C345 C 0.48065 0.43769 0.42841 0.0
O346 O 0.48884 0.42831 0.43139 0.0
O347 O 0.46921 0.4355 0.41566 0.0
O348 O 0.49762 0.4001 0.46003 0.0
O349 O 0.47596 0.39911 0.46474 0.0
O350 O 0.3408 0.72024 0.09795 0.0
Cd351 Cd 0.33525 0.71219 0.14733 0.0
Cd352 Cd 0.34449 0.73515 0.17125 0.0
O353 O 0.35193 0.73714 0.11945 0.0
O354 O 0.33496 0.69285 0.13812 0.0
O355 O 0.34957 0.70255 0.1739 0.0
C356 C 0.34548 0.69202 0.15771 0.0
C357 C 0.35715 0.73924 0.22276 0.0
C358 C 0.34833 0.73003 0.0928 0.0
C359 C 0.31558 0.73023 0.18087 0.0
O360 O 0.3248 0.73864 0.1795 0.0
O361 O 0.31778 0.71834 0.17173 0.0
O362 O 0.35333 0.74864 0.20165 0.0
O363 O 0.35443 0.72731 0.21329 0.0
O364 O 0.02931 0.58823 0.84564 0.0
Cd365 Cd 0.0392 0.5836 0.89297 0.0
Cd366 Cd 0.0181 0.59426 0.92265 0.0
O367 O 0.01534 0.60198 0.87106 0.0
O368 O 0.05822 0.58319 0.87934 0.0
O369 O 0.04951 0.5983 0.91553 0.0
C370 C 0.05957 0.59396 0.89767 0.0
C371 C 0.01688 0.60717 0.97491 0.0
C372 C 0.02045 0.59697 0.84265 0.0
C373 C 0.02182 0.56519 0.93273 0.0
O374 O 0.0137 0.5747 0.93205 0.0
O375 O 0.03352 0.56687 0.92126 0.0
O376 O 0.00651 0.60436 0.95623 0.0
O377 O 0.02813 0.60323 0.96272 0.0
O378 O 0.15996 0.27898 0.59902 0.0
Cd379 Cd 0.16674 0.2889 0.64447 0.0
Cd380 Cd 0.15785 0.26716 0.67722 0.0
O381 O 0.1495 0.26299 0.62739 0.0
O382 O 0.16695 0.30778 0.62961 0.0
O383 O 0.15328 0.29975 0.67095 0.0
C384 C 0.15706 0.30956 0.65112 0.0
C385 C 0.14606 0.26544 0.73141 0.0
C386 C 0.15245 0.26899 0.59814 0.0
C387 C 0.18703 0.27211 0.68003 0.0
O388 O 0.17768 0.26392 0.68365 0.0
O389 O 0.18477 0.28349 0.66697 0.0
O390 O 0.14962 0.25516 0.7133 0.0
O391 O 0.14858 0.27684 0.71753 0.0
O392 O 0.47591 0.59281 0.15153 0.0
Cd393 Cd 0.46614 0.58621 0.10568 0.0
Cd394 Cd 0.48753 0.59585 0.07327 0.0
O395 O 0.49123 0.60427 0.12331 0.0
O396 O 0.44728 0.58542 0.12074 0.0
O397 O 0.45497 0.59972 0.08054 0.0
C398 C 0.44529 0.59553 0.10019 0.0
C399 C 0.48801 0.60792 0.01952 0.0
C400 C 0.48549 0.60083 0.15255 0.0
C401 C 0.48353 0.5667 0.06847 0.0
O402 O 0.49162 0.57619 0.06607 0.0
O403 O 0.47204 0.56867 0.08122 0.0
O404 O 0.49865 0.60528 0.03719 0.0
O405 O 0.47693 0.60429 0.03349 0.0
O406 O 0.1627 0.71995 0.89832 0.0
Cd407 Cd 0.16831 0.7119 0.84898 0.0
Cd408 Cd 0.15897 0.73481 0.82499 0.0
O409 O 0.15151 0.73681 0.87677 0.0
O410 O 0.16874 0.69258 0.8584 0.0
O411 O 0.15408 0.70211 0.82244 0.0
C412 C 0.15824 0.69164 0.83878 0.0
C413 C 0.14629 0.73881 0.77347 0.0
C414 C 0.15513 0.72972 0.90345 0.0
C415 C 0.18791 0.73001 0.81546 0.0
O416 O 0.17865 0.73838 0.81676 0.0
O417 O 0.18577 0.71812 0.82464 0.0
O418 O 0.15007 0.74824 0.79455 0.0
O419 O 0.14907 0.72689 0.78297 0.0
O420 O 0.03125 0.41736 0.65197 0.0
Cd421 Cd 0.04112 0.42183 0.60442 0.0
Cd422 Cd 0.01956 0.41182 0.57521 0.0
O423 O 0.01648 0.40437 0.6269 0.0
O424 O 0.06023 0.42126 0.61686 0.0
O425 O 0.05053 0.4068 0.58058 0.0
C426 C 0.06094 0.41056 0.59793 0.0
C427 C 0.01691 0.39893 0.5232 0.0
C428 C 0.02196 0.40908 0.65517 0.0
C429 C 0.02433 0.4409 0.56562 0.0
O430 O 0.01606 0.43154 0.56581 0.0
O431 O 0.03598 0.43897 0.57716 0.0
O432 O 0.00696 0.4028 0.54216 0.0
O433 O 0.02853 0.40176 0.53507 0.0
O434 O 0.34511 0.27601 0.39638 0.0
Cd435 Cd 0.3381 0.28607 0.35145 0.0
Cd436 Cd 0.34734 0.26452 0.31806 0.0
O437 O 0.35586 0.26027 0.36764 0.0
O438 O 0.33736 0.30489 0.36738 0.0
O439 O 0.3513 0.29748 0.32589 0.0
C440 C 0.34723 0.30706 0.3461 0.0
C441 C 0.35899 0.26543 0.2636 0.0
C442 C 0.3528 0.26615 0.39703 0.0
C443 C 0.3182 0.26888 0.31479 0.0
O444 O 0.32762 0.26075 0.31141 0.0
O445 O 0.32033 0.28028 0.32798 0.0
O446 O 0.35647 0.25433 0.27921 0.0
O447 O 0.35556 0.27609 0.28024 0.0
C448 C 0.99504 0.11203 0.69717 0.0
C449 C 0.98635 0.1014 0.69256 0.0
C450 C 0.99877 0.11611 0.73218 0.0
C451 C 0.01088 0.11725 0.80863 0.0
H452 H 0.98529 0.11428 0.88651 0.0
C453 C 0.02506 0.1107 0.95939 0.0
C454 C 0.01589 0.11393 0.98656 0.0
C455 C 0.02217 0.11295 0.92263 0.0
C456 C 0.99255 0.1155 0.8652 0.0
H457 H 0.97492 0.08661 0.72112 0.0
H458 H 0.98161 0.09347 0.78168 0.0
H459 H 0.97845 0.11088 0.82405 0.0
H460 H 0.9972 0.1234 0.99716 0.0
H461 H 0.99243 0.12798 0.93329 0.0
H462 H 0.02497 0.12203 0.84996 0.0
C463 C 0.98531 0.09891 0.75846 0.0
C464 C 0.98864 0.11329 0.82927 0.0
C465 C 0.98155 0.0949 0.72363 0.0
C466 C 0.00437 0.12064 0.97668 0.0
C467 C 1.00159 0.12315 0.94002 0.0
C468 C 0.01478 0.11961 0.84468 0.0
C469 C 0.99389 0.10962 0.76325 0.0
C470 C 0.99783 0.1137 0.80066 0.0
C471 C 0.01012 0.11869 0.91239 0.0
C472 C 0.00574 0.11839 0.87357 0.0
H473 H 0.99889 0.11727 0.67378 0.0
H474 H 0.00533 0.12444 0.7349 0.0
H475 H 0.01821 0.11767 0.78726 0.0
H476 H 0.03401 0.10547 0.96622 0.0
H477 H 0.02897 0.10931 0.9023 0.0
C478 C 0.15036 0.72296 0.96747 0.0
C479 C 0.15061 0.73282 0.94072 0.0
C480 C 0.14664 0.72591 0.00317 0.0
C481 C 0.13178 0.75198 0.0622 0.0
H482 H 0.15248 0.73451 0.13659 0.0
C483 C 0.14053 0.77029 0.21057 0.0
C484 C 0.14153 0.76061 0.23781 0.0
C485 C 0.13816 0.7667 0.17431 0.0
C486 C 0.14644 0.73932 0.11622 0.0
H487 H 0.14687 0.75345 0.93002 0.0
H488 H 0.14098 0.75878 0.99283 0.0
H489 H 0.15557 0.72863 0.0732 0.0
H490 H 0.13939 0.73977 0.24917 0.0
H491 H 0.13523 0.73356 0.18607 0.0
H492 H 0.12321 0.76318 0.10589 0.0
C493 C 0.14329 0.74867 0.98611 0.0
C494 C 0.14818 0.73593 0.07975 0.0
C495 C 0.14676 0.74565 0.95014 0.0
C496 C 0.13887 0.74745 0.22874 0.0
C497 C 0.13652 0.74388 0.1926 0.0
C498 C 0.13017 0.75552 0.09887 0.0
C499 C 0.14338 0.73886 0.01322 0.0
C500 C 0.14092 0.74221 0.05217 0.0
C501 C 0.13676 0.75338 0.16483 0.0
C502 C 0.13751 0.74921 0.12618 0.0
H503 H 0.15305 0.71293 0.96082 0.0
H504 H 0.14648 0.71802 0.02299 0.0
H505 H 0.1259 0.75693 0.04177 0.0
H506 H 0.1425 0.78052 0.21676 0.0
H507 H 0.1384 0.77422 0.1534 0.0
C508 C 0.52214 0.90909 0.21693 0.0
C509 C 0.51709 0.90278 0.18586 0.0
C510 C 0.51843 0.90505 0.25176 0.0
C511 C 0.51532 0.89034 0.32203 0.0
H512 H 0.47897 0.8823 0.34451 0.0
C513 C 0.50066 0.88267 0.46995 0.0
C514 C 0.48939 0.8896 0.48079 0.0
C515 C 0.50304 0.88022 0.43305 0.0
C516 C 0.48916 0.88451 0.33871 0.0
H517 H 0.50412 0.88725 0.16707 0.0
H518 H 0.49779 0.88003 0.22822 0.0
H519 H 0.48535 0.88685 0.28158 0.0
H520 H 0.47127 0.89851 0.46204 0.0
H521 H 0.47564 0.89479 0.39765 0.0
H522 H 0.51909 0.88896 0.37898 0.0
C523 C 0.50451 0.88823 0.22549 0.0
C524 C 0.49285 0.88698 0.30254 0.0
C525 C 0.50817 0.89234 0.19047 0.0
C526 C 0.48003 0.89311 0.4544 0.0
C527 C 0.48254 0.89092 0.41739 0.0
C528 C 0.51163 0.88802 0.35807 0.0
C529 C 0.50967 0.89449 0.25655 0.0
C530 C 0.50591 0.89029 0.29398 0.0
C531 C 0.49437 0.88496 0.40615 0.0
C532 C 0.49845 0.88537 0.3671 0.0
H533 H 0.52894 0.91724 0.21442 0.0
H534 H 0.52236 0.91032 0.27501 0.0
H535 H 0.52553 0.89255 0.31631 0.0
H536 H 0.50795 0.8797 0.48985 0.0
H537 H 0.51203 0.8752 0.42555 0.0
C538 C 0.36252 0.24854 0.43676 0.0
C539 C 0.35806 0.26153 0.43237 0.0
C540 C 0.36668 0.24406 0.471 0.0
C541 C 0.37807 0.25512 0.56134 0.0
H542 H 0.35862 0.22537 0.59951 0.0
C543 C 0.36604 0.24953 0.71232 0.0
C544 C 0.36359 0.23707 0.72736 0.0
C545 C 0.36952 0.25083 0.6757 0.0
C546 C 0.36446 0.23346 0.58919 0.0
H547 H 0.35499 0.28017 0.4599 0.0
H548 H 0.36241 0.27242 0.51931 0.0
H549 H 0.35703 0.23082 0.53499 0.0
H550 H 0.36395 0.21611 0.71657 0.0
H551 H 0.3703 0.21836 0.65258 0.0
H552 H 0.38527 0.25799 0.61556 0.0
C553 C 0.36266 0.26568 0.49641 0.0
C554 C 0.36349 0.23661 0.55217 0.0
C555 C 0.35829 0.27008 0.46247 0.0
C556 C 0.36568 0.22586 0.70569 0.0
C557 C 0.36922 0.22716 0.66896 0.0
C558 C 0.37918 0.25189 0.59825 0.0
C559 C 0.3667 0.25259 0.50117 0.0
C560 C 0.36987 0.24776 0.53825 0.0
C561 C 0.37073 0.23969 0.65319 0.0
C562 C 0.37194 0.24136 0.61297 0.0
H563 H 0.36244 0.24173 0.41402 0.0
H564 H 0.36974 0.23392 0.47401 0.0
H565 H 0.38324 0.26366 0.5511 0.0
H566 H 0.36457 0.25838 0.72827 0.0
H567 H 0.37044 0.26066 0.6646 0.0
C568 C 0.97976 0.9113 0.77397 0.0
C569 C 0.98463 0.90481 0.80496 0.0
C570 C 0.98361 0.90742 0.7391 0.0
C571 C 0.98713 0.89321 0.66814 0.0
H572 H 0.0235 0.88466 0.64735 0.0
C573 C 0.00277 0.88563 0.52075 0.0
C574 C 0.0143 0.89226 0.51062 0.0
C575 C 1.00003 0.88324 0.55749 0.0
C576 C 0.0133 0.88703 0.65266 0.0
H577 H 0.99742 0.88911 0.82356 0.0
H578 H 0.004 0.88215 0.76237 0.0
H579 H 0.01675 0.88902 0.71006 0.0
H580 H 0.03246 0.90074 0.53055 0.0
H581 H 0.02747 0.89714 0.59465 0.0
H582 H 0.98376 0.89217 0.61093 0.0
C583 C 0.99731 0.89038 0.76518 0.0
C584 C 0.0094 0.88939 0.68871 0.0
C585 C 0.99351 0.89433 0.80023 0.0
C586 C 0.02351 0.89556 0.53762 0.0
C587 C 0.02064 0.89344 0.57446 0.0
C588 C 0.99104 0.89101 0.63221 0.0
C589 C 0.99235 0.89685 0.73418 0.0
C590 C 0.99633 0.89285 0.69672 0.0
C591 C 0.00859 0.88776 0.58495 0.0
C592 C 0.00424 0.88816 0.6238 0.0
H593 H 0.973 0.91948 0.77659 0.0
H594 H 0.97984 0.91285 0.71595 0.0
H595 H 0.97692 0.89555 0.67337 0.0
H596 H 0.99558 0.88283 0.50039 0.0
H597 H 0.99086 0.87843 0.56439 0.0
C598 C 0.36289 0.77058 0.78573 0.0
C599 C 0.36188 0.7609 0.75847 0.0
C600 C 0.36528 0.76699 0.82198 0.0
C601 C 0.35704 0.73959 0.88001 0.0
H602 H 0.37754 0.75725 0.95449 0.0
C603 C 0.35312 0.72326 0.02878 0.0
C604 C 0.35285 0.73313 0.05552 0.0
C605 C 0.35684 0.72621 0.99308 0.0
C606 C 0.37167 0.75229 0.93405 0.0
H607 H 0.36404 0.74007 0.74705 0.0
H608 H 0.36823 0.73386 0.81013 0.0
H609 H 0.38022 0.76349 0.89037 0.0
H610 H 0.35654 0.75376 0.0662 0.0
H611 H 0.36243 0.75908 0.00339 0.0
H612 H 0.34792 0.7289 0.92303 0.0
C613 C 0.36693 0.74417 0.80363 0.0
C614 C 0.37328 0.75582 0.89738 0.0
C615 C 0.36457 0.74775 0.76751 0.0
C616 C 0.35667 0.74596 0.04608 0.0
C617 C 0.36015 0.74897 0.01012 0.0
C618 C 0.3553 0.7362 0.91648 0.0
C619 C 0.36669 0.75367 0.83142 0.0
C620 C 0.36595 0.7495 0.87006 0.0
C621 C 0.36008 0.73916 0.98302 0.0
C622 C 0.36255 0.7425 0.94407 0.0
H623 H 0.36091 0.78081 0.77958 0.0
H624 H 0.36503 0.77451 0.84291 0.0
H625 H 0.35101 0.73477 0.85964 0.0
H626 H 0.35045 0.71323 0.03544 0.0
H627 H 0.35702 0.71831 0.97327 0.0
C628 C 0.50187 0.11504 0.03487 0.0
C629 C 0.48924 0.11328 0.02015 0.0
C630 C 0.50351 0.1177 0.07191 0.0
C631 C 0.48651 0.11147 0.15846 0.0
H632 H 0.51744 0.12866 0.19786 0.0
C633 C 0.50176 0.10772 0.31068 0.0
C634 C 0.51467 0.103 0.31502 0.0
C635 C 0.49737 0.11202 0.27653 0.0
C636 C 0.50871 0.12391 0.18725 0.0
H637 H 0.46838 0.11402 0.03212 0.0
H638 H 0.47124 0.11897 0.09688 0.0
H639 H 0.51157 0.13194 0.13393 0.0
H640 H 0.53318 0.09948 0.28734 0.0
H641 H 0.52556 0.10715 0.22799 0.0
H642 H 0.48383 0.10327 0.2118 0.0
C643 C 0.47989 0.11796 0.07988 0.0
C644 C 0.50536 0.12573 0.15064 0.0
C645 C 0.47825 0.11523 0.04272 0.0
C646 C 0.52317 0.10299 0.28482 0.0
C647 C 0.51885 0.10749 0.25093 0.0
C648 C 0.48977 0.10979 0.19521 0.0
C649 C 0.49256 0.11875 0.09517 0.0
C650 C 0.49452 0.11911 0.13541 0.0
C651 C 0.50588 0.11193 0.24636 0.0
C652 C 0.50116 0.1156 0.20955 0.0
H653 H 0.51056 0.11365 0.01823 0.0
H654 H 0.51342 0.11808 0.08259 0.0
H655 H 0.47819 0.10608 0.14772 0.0
H656 H 0.49499 0.10785 0.33348 0.0
H657 H 0.48732 0.11539 0.27364 0.0
C658 C 0.14714 0.27285 0.53252 0.0
C659 C 0.14727 0.26435 0.56273 0.0
C660 C 0.14279 0.26842 0.49858 0.0
C661 C 0.14166 0.23916 0.44334 0.0
H662 H 0.12027 0.26068 0.3793 0.0
C663 C 0.13924 0.22787 0.29013 0.0
C664 C 0.14158 0.23896 0.26818 0.0
C665 C 0.13573 0.22937 0.32683 0.0
C666 C 0.12625 0.25454 0.39681 0.0
H667 H 0.14271 0.24462 0.58126 0.0
H668 H 0.13542 0.23676 0.52134 0.0
H669 H 0.12235 0.26654 0.44363 0.0
H670 H 0.14109 0.26028 0.26673 0.0
H671 H 0.13528 0.26291 0.33034 0.0
H672 H 0.14635 0.22767 0.39633 0.0
C673 C 0.13857 0.24688 0.52424 0.0
C674 C 0.12739 0.25788 0.43364 0.0
C675 C 0.14272 0.25139 0.55845 0.0
C676 C 0.13943 0.25152 0.28291 0.0
C677 C 0.13597 0.25303 0.31948 0.0
C678 C 0.14065 0.2359 0.40641 0.0
C679 C 0.13865 0.25535 0.49397 0.0
C680 C 0.13546 0.25047 0.45695 0.0
C681 C 0.13451 0.24199 0.34226 0.0
C682 C 0.13332 0.24383 0.38241 0.0
H683 H 0.15051 0.28291 0.535 0.0
H684 H 0.14312 0.27511 0.4756 0.0
H685 H 0.14802 0.23333 0.46069 0.0
H686 H 0.14074 0.21804 0.27949 0.0
H687 H 0.13445 0.22066 0.34344 0.0
C688 C 0.0021 0.89494 0.30022 0.0
C689 C 0.01481 0.90017 0.30445 0.0
C690 C 0.99769 0.89084 0.26589 0.0
C691 C 0.00886 0.8807 0.1747 0.0
H692 H 0.97736 0.89786 0.13909 0.0
C693 C 1.00034 0.89136 0.02375 0.0
C694 C 0.98753 0.89294 0.01015 0.0
C695 C 0.00242 0.88824 0.06034 0.0
C696 C 0.98597 0.89265 0.14869 0.0
H697 H 0.03302 0.90473 0.27636 0.0
H698 H 0.02538 0.8974 0.21668 0.0
H699 H 0.9834 0.89993 0.20307 0.0
H700 H 0.96682 0.89135 0.02351 0.0
H701 H 0.97046 0.88556 0.08739 0.0
H702 H 0.01161 0.87358 0.12033 0.0
C703 C 0.01882 0.89652 0.23985 0.0
C704 C 0.98945 0.89391 0.1854 0.0
C705 C 0.02315 0.90083 0.27395 0.0
C706 C 0.97682 0.89031 0.03325 0.0
C707 C 0.97891 0.8871 0.06994 0.0
C708 C 0.0053 0.87928 0.1381 0.0
C709 C 0.00601 0.89165 0.23538 0.0
C710 C 1.00117 0.88834 0.19841 0.0
C711 C 0.99174 0.88651 0.08424 0.0
C712 C 0.99408 0.88568 0.12429 0.0
H713 H 0.99545 0.89432 0.32324 0.0
H714 H 0.98777 0.88711 0.26311 0.0
H715 H 0.01786 0.87614 0.18425 0.0
H716 H 0.00881 0.89327 0.00667 0.0
H717 H 0.01244 0.88803 0.07026 0.0
C718 C 0.85723 0.25392 0.0522 0.0
C719 C 0.85394 0.26692 0.06138 0.0
C720 C 0.86055 0.25066 0.01627 0.0
C721 C 0.85615 0.26349 0.92246 0.0
H722 H 0.8798 0.23509 0.89621 0.0
C723 C 0.8653 0.25195 0.77346 0.0
C724 C 0.86196 0.23899 0.76392 0.0
C725 C 0.86771 0.25526 0.80976 0.0
C726 C 0.87321 0.24307 0.90327 0.0
H727 H 0.85242 0.28685 0.04097 0.0
H728 H 0.85877 0.28135 0.97892 0.0
H729 H 0.8774 0.24143 0.96039 0.0
H730 H 0.85984 0.21909 0.78434 0.0
H731 H 0.86405 0.22492 0.84802 0.0
H732 H 0.85196 0.26516 0.86561 0.0
C733 C 0.85824 0.27351 -0.00115 0.0
C734 C 0.87176 0.24666 0.93997 0.0
C735 C 0.85466 0.2767 0.03449 0.0
C736 C 0.86234 0.22917 0.79089 0.0
C737 C 0.86477 0.2325 0.82733 0.0
C738 C 0.85774 0.26004 0.88598 0.0
C739 C 0.86089 0.2604 0.98898 0.0
C740 C 0.86312 0.25687 0.95003 0.0
C741 C 0.86686 0.24568 0.83724 0.0
C742 C 0.86621 0.24976 0.87598 0.0
H743 H 0.85675 0.24618 0.07247 0.0
H744 H 0.86239 0.24044 0.00971 0.0
H745 H 0.84912 0.27113 0.92902 0.0
H746 H 0.86527 0.25972 0.75325 0.0
H747 H 0.86952 0.26547 0.81663 0.0
C748 C 0.50116 0.11088 0.80989 0.0
C749 C 0.48829 0.10611 0.81438 0.0
C750 C 0.50555 0.11501 0.77557 0.0
C751 C 0.49427 0.12581 0.68491 0.0
H752 H 0.52494 0.10756 0.64781 0.0
C753 C 0.50117 0.11414 0.53405 0.0
C754 C 0.51382 0.1123 0.51953 0.0
C755 C 0.49951 0.11748 0.57066 0.0
C756 C 0.51657 0.11306 0.65783 0.0
H757 H 0.46977 0.10244 0.78684 0.0
H758 H 0.47738 0.1098 0.72721 0.0
H759 H 0.51927 0.10576 0.71213 0.0
H760 H 0.53467 0.11358 0.53124 0.0
H761 H 0.53177 0.11968 0.59522 0.0
H762 H 0.49136 0.13289 0.63057 0.0
C763 C 0.48409 0.11031 0.75014 0.0
C764 C 0.5133 0.11197 0.69474 0.0
C765 C 0.47977 0.10598 0.78421 0.0
C766 C 0.52479 0.11483 0.54171 0.0
C767 C 0.52313 0.11824 0.57844 0.0
C768 C 0.49762 0.12703 0.64811 0.0
C769 C 0.49706 0.11469 0.74536 0.0
C770 C 0.50185 0.11792 0.70828 0.0
C771 C 0.51045 0.11915 0.59365 0.0
C772 C 0.50851 0.12023 0.63379 0.0
H773 H 0.50795 0.1111 0.83265 0.0
H774 H 0.51561 0.11836 0.77254 0.0
H775 H 0.48549 0.13066 0.69486 0.0
H776 H 0.4925 0.11232 0.51768 0.0
H777 H 0.4896 0.11794 0.58134 0.0
C778 C 0.66223 0.73759 0.53133 0.0
C779 C 0.6538 0.73904 0.56141 0.0
C780 C 0.65897 0.74307 0.49765 0.0
C781 C 0.63191 0.75189 0.4396 0.0
H782 H 0.65812 0.77234 0.38771 0.0
C783 C 0.64309 0.77774 0.29009 0.0
C784 C 0.64149 0.76662 0.26775 0.0
C785 C 0.64146 0.77675 0.32787 0.0
C786 C 0.65058 0.76686 0.40202 0.0
H787 H 0.63524 0.74724 0.57968 0.0
H788 H 0.62935 0.75652 0.52003 0.0
H789 H 0.66205 0.76599 0.45095 0.0
H790 H 0.63569 0.7461 0.26698 0.0
H791 H 0.6327 0.74443 0.33278 0.0
H792 H 0.62076 0.75217 0.38989 0.0
C793 C 0.63856 0.75127 0.52296 0.0
C794 C 0.65289 0.76314 0.43808 0.0
C795 C 0.64195 0.746 0.55699 0.0
C796 C 0.63707 0.75482 0.28351 0.0
C797 C 0.63529 0.75388 0.32121 0.0
C798 C 0.62968 0.75546 0.40323 0.0
C799 C 0.64711 0.74992 0.49311 0.0
C800 C 0.64373 0.75537 0.4569 0.0
C801 C 0.63801 0.76468 0.3439 0.0
C802 C 0.63913 0.76274 0.38387 0.0
H803 H 0.67144 0.73232 0.53387 0.0
H804 H 0.66566 0.74178 0.47491 0.0
H805 H 0.62473 0.74585 0.45358 0.0
H806 H 0.64647 0.78698 0.27875 0.0
H807 H 0.6435 0.78526 0.34474 0.0
C808 C 0.97834 0.11006 0.45949 0.0
C809 C 0.98742 0.11313 0.48703 0.0
C810 C 0.98125 0.11279 0.42299 0.0
C811 C 0.01093 0.11653 0.36626 0.0
H812 H 0.98535 0.11876 0.28815 0.0
C813 C 0.00861 0.11381 0.19805 0.0
C814 C 0.01743 0.1033 0.1932 0.0
C815 C 0.00486 0.11777 0.23315 0.0
C816 C 0.99267 0.11834 0.30958 0.0
H817 H 0.00592 0.12279 0.49872 0.0
H818 H 0.01069 0.12822 0.43537 0.0
H819 H 0.97841 0.12249 0.351 0.0
H820 H 0.02909 0.08861 0.22144 0.0
H821 H 0.02237 0.09524 0.28214 0.0
H822 H 0.0252 0.11253 0.32503 0.0
C823 C 1.00161 0.12314 0.44153 0.0
C824 C 0.98866 0.12034 0.34571 0.0
C825 C 0.99883 0.12015 0.47791 0.0
C826 C 0.02237 0.09681 0.22412 0.0
C827 C 0.01858 0.1007 0.25904 0.0
C828 C 0.01495 0.11469 0.33026 0.0
C829 C 0.99321 0.11886 0.41341 0.0
C830 C 0.99767 0.11905 0.37464 0.0
C831 C 0.00984 0.11126 0.26407 0.0
C832 C 0.0058 0.11511 0.30158 0.0
H833 H 0.96947 0.10461 0.46576 0.0
H834 H 0.97454 0.10926 0.40227 0.0
H835 H 0.01819 0.11529 0.38758 0.0
H836 H 0.00465 0.11904 0.17475 0.0
H837 H 0.99818 0.12598 0.23607 0.0
C838 C 0.63866 0.22894 0.20863 0.0
C839 C 0.64109 0.23991 0.23094 0.0
C840 C 0.63544 0.23061 0.17179 0.0
C841 C 0.62702 0.25617 0.10189 0.0
H842 H 0.64844 0.23442 0.03846 0.0
C843 C 0.64856 0.27388 0.9662 0.0
C844 C 0.64835 0.26538 0.936 0.0
C845 C 0.64419 0.26959 0.00025 0.0
C846 C 0.64219 0.24042 0.05569 0.0
H847 H 0.64109 0.26123 0.23284 0.0
H848 H 0.63581 0.26416 0.16898 0.0
H849 H 0.64638 0.22876 0.10274 0.0
H850 H 0.64322 0.24576 0.91764 0.0
H851 H 0.63589 0.23813 0.97772 0.0
H852 H 0.62362 0.26831 0.05504 0.0
C853 C 0.63619 0.25424 0.17965 0.0
C854 C 0.64095 0.23716 0.09256 0.0
C855 C 0.63934 0.25256 0.21638 0.0
C856 C 0.64349 0.25253 0.94044 0.0
C857 C 0.63932 0.24816 0.97474 0.0
C858 C 0.6284 0.25951 0.06513 0.0
C859 C 0.63462 0.2433 0.15657 0.0
C860 C 0.63372 0.24525 0.1164 0.0
C861 C 0.63968 0.25665 0.00497 0.0
C862 C 0.63633 0.25189 0.04199 0.0
H863 H 0.63985 0.21905 0.21913 0.0
H864 H 0.63406 0.22197 0.15494 0.0
H865 H 0.62112 0.26245 0.11926 0.0
H866 H 0.65218 0.28386 0.96361 0.0
H867 H 0.64474 0.27628 0.0232 0.0
C868 C 0.48157 0.89754 0.71698 0.0
C869 C 0.49003 0.89713 0.68671 0.0
C870 C 0.48579 0.89306 0.75098 0.0
C871 C 0.51491 0.89061 0.80616 0.0
H872 H 0.49265 0.86993 0.87009 0.0
C873 C 0.52631 0.88774 0.959 0.0
C874 C 0.51534 0.89033 0.9812 0.0
C875 C 0.52462 0.88425 0.92236 0.0
C876 C 0.49899 0.87572 0.85263 0.0
H877 H 0.50949 0.89152 0.66816 0.0
H878 H 0.51701 0.88401 0.72819 0.0
H879 H 0.4868 0.87238 0.80584 0.0
H880 H 0.49403 0.8903 0.98319 0.0
H881 H 0.49109 0.88459 0.91963 0.0
H882 H 0.5266 0.89478 0.8531 0.0
C883 C 0.50706 0.88767 0.72528 0.0
C884 C 0.49566 0.87706 0.81585 0.0
C885 C 0.50275 0.89195 0.69102 0.0
C886 C 0.50269 0.88843 0.96681 0.0
C887 C 0.50101 0.88504 0.93025 0.0
C888 C 0.51816 0.88942 0.84305 0.0
C889 C 0.49863 0.88825 0.75558 0.0
C890 C 0.50336 0.88486 0.79258 0.0
C891 C 0.51194 0.88336 0.90719 0.0
C892 C 0.50998 0.88234 0.86703 0.0
H893 H 0.47168 0.9014 0.71447 0.0
H894 H 0.47915 0.89377 0.774 0.0
H895 H 0.52097 0.89674 0.78882 0.0
H896 H 0.53619 0.88902 0.96939 0.0
H897 H 0.53325 0.88277 0.90558 0.0
C898 C 0.86106 0.77824 0.70582 0.0
C899 C 0.86245 0.76721 0.72862 0.0
C900 C 0.86273 0.77702 0.66811 0.0
C901 C 0.85341 0.76699 0.59446 0.0
H902 H 0.87876 0.74522 0.54338 0.0
C903 C 0.84106 0.73805 0.46503 0.0
C904 C 0.84956 0.73931 0.43503 0.0
C905 C 0.84446 0.74334 0.49884 0.0
C906 C 0.87171 0.75146 0.55723 0.0
H907 H 0.86795 0.74661 0.73027 0.0
H908 H 0.87096 0.74453 0.66456 0.0
H909 H 0.88288 0.75164 0.60694 0.0
H910 H 0.86839 0.74694 0.41707 0.0
H911 H 0.8745 0.75591 0.47692 0.0
H912 H 0.84193 0.76626 0.54553 0.0
C913 C 0.86852 0.75409 0.67573 0.0
C914 C 0.87403 0.75508 0.59352 0.0
C915 C 0.86673 0.75527 0.71338 0.0
C916 C 0.86163 0.74586 0.43969 0.0
C917 C 0.86515 0.75095 0.47384 0.0
C918 C 0.85101 0.76322 0.55848 0.0
C919 C 0.86597 0.7648 0.65259 0.0
C920 C 0.86477 0.76267 0.6127 0.0
C921 C 0.85652 0.74982 0.50358 0.0
C922 C 0.85999 0.75518 0.53984 0.0
H923 H 0.85782 0.78759 0.71673 0.0
H924 H 0.86084 0.78547 0.65089 0.0
H925 H 0.846 0.7727 0.60862 0.0
H926 H 0.83168 0.7331 0.46231 0.0
H927 H 0.8377 0.74223 0.52149 0.0
C928 C 0.5026 0.61136 0.19227 0.0
C929 C 0.48989 0.60614 0.18803 0.0
C930 C 0.50689 0.61575 0.22645 0.0
C931 C 0.49541 0.62662 0.31673 0.0
H932 H 0.52634 0.60904 0.35454 0.0
C933 C 0.50227 0.61552 0.46786 0.0
C934 C 0.51491 0.61362 0.48238 0.0
C935 C 0.50063 0.61888 0.43127 0.0
C936 C 0.5179 0.61437 0.34432 0.0
H937 H 0.47154 0.60193 0.21583 0.0
H938 H 0.47896 0.60976 0.2752 0.0
H939 H 0.52078 0.6069 0.29026 0.0
H940 H 0.53577 0.61494 0.47078 0.0
H941 H 0.53291 0.62115 0.40692 0.0
H942 H 0.49233 0.63388 0.37082 0.0
C943 C 0.48562 0.61041 0.25219 0.0
C944 C 0.51469 0.61308 0.30744 0.0
C945 C 0.48142 0.60581 0.21828 0.0
C946 C 0.5259 0.61621 0.46029 0.0
C947 C 0.52425 0.61968 0.42362 0.0
C948 C 0.4987 0.62806 0.35351 0.0
C949 C 0.49844 0.61526 0.25672 0.0
C950 C 0.50314 0.61877 0.29367 0.0
C951 C 0.51159 0.62054 0.40831 0.0
C952 C 0.50969 0.62149 0.36812 0.0
H953 H 0.50935 0.61173 0.16942 0.0
H954 H 0.51683 0.61944 0.22931 0.0
H955 H 0.48655 0.63126 0.30658 0.0
H956 H 0.49359 0.61364 0.48416 0.0
H957 H 0.49072 0.61931 0.42056 0.0
C958 C 0.64961 0.23049 0.46605 0.0
C959 C 0.64962 0.23899 0.43584 0.0
C960 C 0.64515 0.23485 0.49996 0.0
C961 C 0.64314 0.264 0.55549 0.0
H962 H 0.62112 0.24234 0.6175 0.0
C963 C 0.63841 0.2756 0.7081 0.0
C964 C 0.64042 0.26459 0.73059 0.0
C965 C 0.63549 0.27397 0.67105 0.0
C966 C 0.62729 0.24851 0.60058 0.0
H967 H 0.64483 0.25868 0.41734 0.0
H968 H 0.63735 0.26641 0.47719 0.0
H969 H 0.62413 0.23642 0.55349 0.0
H970 H 0.63995 0.24328 0.73254 0.0
H971 H 0.63519 0.24042 0.66835 0.0
H972 H 0.64708 0.2756 0.60283 0.0
C973 C 0.64068 0.25634 0.47431 0.0
C974 C 0.62896 0.24514 0.56393 0.0
C975 C 0.64494 0.25191 0.44015 0.0
C976 C 0.63852 0.25197 0.71595 0.0
C977 C 0.63567 0.25034 0.67902 0.0
C978 C 0.64161 0.26729 0.59227 0.0
C979 C 0.64078 0.24785 0.50452 0.0
C980 C 0.63722 0.25262 0.54137 0.0
C981 C 0.63456 0.26129 0.6558 0.0
C982 C 0.63402 0.25933 0.61557 0.0
H983 H 0.65309 0.22046 0.46356 0.0
H984 H 0.64549 0.22815 0.52292 0.0
H985 H 0.64963 0.2699 0.5387 0.0
H986 H 0.63972 0.28547 0.71865 0.0
H987 H 0.63445 0.28262 0.6541 0.0
C988 C 0.02251 0.41145 0.72298 0.0
C989 C 0.01766 0.40493 0.692 0.0
C990 C 0.01868 0.40755 0.75785 0.0
C991 C 0.01531 0.39327 0.82872 0.0
H992 H 0.979 0.3846 0.84982 0.0
C993 C 0.99989 0.38567 0.97623 0.0
C994 C 0.98836 0.39229 0.98645 0.0
C995 C 0.00259 0.38327 0.93947 0.0
C996 C 0.98918 0.38701 0.84443 0.0
H997 H 0.00493 0.38918 0.67338 0.0
H998 H 0.99841 0.38219 0.73457 0.0
H999 H 0.98566 0.38901 0.78706 0.0
H1000 H 0.97014 0.40071 0.96668 0.0
H1001 H 0.97507 0.3971 0.90255 0.0
H1002 H 0.01877 0.39222 0.88589 0.0
C1003 C 0.00505 0.39045 0.73177 0.0
C1004 C 0.99304 0.38939 0.80834 0.0
C1005 C 0.00882 0.39442 0.69672 0.0
C1006 C 0.9791 0.39555 0.95954 0.0
C1007 C 0.98193 0.39342 0.92267 0.0
C1008 C 0.01146 0.39104 0.86467 0.0
C1009 C 0.01 0.39693 0.76276 0.0
C1010 C 0.00609 0.39289 0.80023 0.0
C1011 C 0.99398 0.38776 0.91209 0.0
C1012 C 0.99828 0.38816 0.8732 0.0
H1013 H 0.02923 0.41965 0.72037 0.0
H1014 H 0.02244 0.41299 0.781 0.0
H1015 H 0.02551 0.39564 0.82339 0.0
H1016 H 0.00711 0.3829 0.99653 0.0
H1017 H 0.01176 0.37848 0.93249 0.0
C1018 C 0.8703 0.74722 0.22116 0.0
C1019 C 0.86279 0.73614 0.23035 0.0
C1020 C 0.87359 0.74972 0.18481 0.0
C1021 C 0.87035 0.73659 0.08911 0.0
H1022 H 0.86436 0.77343 0.06774 0.0
C1023 C 0.84776 0.77101 0.96801 0.0
C1024 C 0.85381 0.76577 0.93677 0.0
C1025 C 0.85173 0.76712 0.00273 0.0
C1026 C 0.86602 0.76309 0.07316 0.0
H1027 H 0.85364 0.71847 0.20935 0.0
H1028 H 0.85874 0.72309 0.14587 0.0
H1029 H 0.86686 0.76648 0.13035 0.0
H1030 H 0.86885 0.75231 0.91759 0.0
H1031 H 0.87595 0.74561 0.97865 0.0
H1032 H 0.86847 0.7332 0.03163 0.0
C1033 C 0.86248 0.72973 0.1665 0.0
C1034 C 0.86772 0.7591 0.10922 0.0
C1035 C 0.85948 0.72707 0.20299 0.0
C1036 C 0.86397 0.75652 0.94113 0.0
C1037 C 0.86801 0.75265 0.97608 0.0
C1038 C 0.86849 0.74059 0.05291 0.0
C1039 C 0.86907 0.7414 0.15676 0.0
C1040 C 0.86955 0.74574 0.11788 0.0
C1041 C 0.86195 0.75795 0.0073 0.0
C1042 C 0.86588 0.75384 0.04469 0.0
H1043 H 0.87313 0.75428 0.24186 0.0
H1044 H 0.87908 0.75856 0.17859 0.0
H1045 H 0.87199 0.72626 0.09458 0.0
H1046 H 0.83983 0.77807 0.96576 0.0
H1047 H 0.8466 0.77117 0.02607 0.0
C1048 C 0.50092 0.38942 0.02949 0.0
C1049 C 0.51355 0.39133 0.01495 0.0
C1050 C 0.49928 0.38618 0.06615 0.0
C1051 C 0.51631 0.39099 0.15324 0.0
H1052 H 0.48526 0.37346 0.19067 0.0
C1053 C 0.50086 0.39353 0.30527 0.0
C1054 C 0.48799 0.39833 0.30966 0.0
C1055 C 0.50526 0.38934 0.27102 0.0
C1056 C 0.49403 0.37829 0.18061 0.0
H1057 H 0.53442 0.39022 0.02671 0.0
H1058 H 0.53154 0.38427 0.0908 0.0
H1059 H 0.49116 0.371 0.12647 0.0
H1060 H 0.4695 0.40201 0.282 0.0
H1061 H 0.47713 0.39453 0.22248 0.0
H1062 H 0.51897 0.39849 0.20735 0.0
C1063 C 0.52289 0.3856 0.07398 0.0
C1064 C 0.4974 0.37694 0.14385 0.0
C1065 C 0.52455 0.38892 0.0372 0.0
C1066 C 0.47949 0.39844 0.27945 0.0
C1067 C 0.48382 0.39405 0.24545 0.0
C1068 C 0.51302 0.39221 0.19011 0.0
C1069 C 0.51022 0.38466 0.0892 0.0
C1070 C 0.50827 0.38371 0.12937 0.0
C1071 C 0.49679 0.38962 0.24078 0.0
C1072 C 0.50158 0.38628 0.20377 0.0
H1073 H 0.49224 0.39115 0.01307 0.0
H1074 H 0.48936 0.38569 0.07682 0.0
H1075 H 0.52467 0.39648 0.1431 0.0
H1076 H 0.50763 0.39333 0.32807 0.0
H1077 H 0.51531 0.38596 0.26807 0.0
C1078 C 0.87056 0.25073 0.27549 0.0
C1079 C 0.86413 0.26246 0.26604 0.0
C1080 C 0.87327 0.24788 0.31199 0.0
C1081 C 0.87058 0.26113 0.40752 0.0
H1082 H 0.8606 0.22511 0.42815 0.0
C1083 C 0.84445 0.22892 0.52825 0.0
C1084 C 0.85096 0.23364 0.55938 0.0
C1085 C 0.84873 0.23244 0.49346 0.0
C1086 C 0.86336 0.23522 0.42293 0.0
H1087 H 0.85646 0.28087 0.28682 0.0
H1088 H 0.86062 0.27571 0.35046 0.0
H1089 H 0.86424 0.23182 0.36571 0.0
H1090 H 0.86716 0.24572 0.57838 0.0
H1091 H 0.87479 0.25169 0.51739 0.0
H1092 H 0.8687 0.26466 0.46489 0.0
C1093 C 0.8639 0.26879 0.32994 0.0
C1094 C 0.86571 0.23905 0.38701 0.0
C1095 C 0.86145 0.27175 0.29334 0.0
C1096 C 0.86189 0.24196 0.55491 0.0
C1097 C 0.86624 0.24542 0.51998 0.0
C1098 C 0.86807 0.25732 0.44355 0.0
C1099 C 0.8693 0.25655 0.33986 0.0
C1100 C 0.86902 0.25214 0.37864 0.0
C1101 C 0.85972 0.24066 0.48883 0.0
C1102 C 0.86405 0.2444 0.4515 0.0
H1103 H 0.87291 0.24347 0.25486 0.0
H1104 H 0.87786 0.23856 0.31845 0.0
H1105 H 0.87333 0.27124 0.40224 0.0
H1106 H 0.83594 0.22258 0.53068 0.0
H1107 H 0.84325 0.22885 0.47016 0.0
C1108 C 0.00769 0.61208 0.80141 0.0
C1109 C 0.01625 0.60133 0.80591 0.0
C1110 C 0.00401 0.61623 0.76644 0.0
C1111 C 0.99194 0.6176 0.68992 0.0
H1112 H 0.01757 0.61443 0.61221 0.0
C1113 C 0.97787 0.61118 0.53907 0.0
C1114 C 0.98711 0.61432 0.51199 0.0
C1115 C 0.98073 0.61344 0.57584 0.0
C1116 C 0.0103 0.6157 0.63348 0.0
H1117 H 0.02745 0.58639 0.77721 0.0
H1118 H 0.02082 0.59339 0.71672 0.0
H1119 H 0.02431 0.61088 0.67469 0.0
H1120 H 0.00587 0.62365 0.50154 0.0
H1121 H 0.0106 0.62823 0.56545 0.0
H1122 H 0.97793 0.62256 0.64852 0.0
C1123 C 0.01721 0.59886 0.74 0.0
C1124 C 0.01415 0.61341 0.66941 0.0
C1125 C 0.02093 0.59477 0.77478 0.0
C1126 C 0.99866 0.62096 0.52195 0.0
C1127 C 1.0014 0.62347 0.55864 0.0
C1128 C 0.98809 0.62003 0.65386 0.0
C1129 C 0.00879 0.6097 0.73532 0.0
C1130 C 0.00494 0.61389 0.69794 0.0
C1131 C 0.99281 0.61909 0.58619 0.0
C1132 C 0.99715 0.61874 0.62504 0.0
H1133 H 0.00394 0.61736 0.82486 0.0
H1134 H 0.99757 0.62466 0.76379 0.0
H1135 H 0.98458 0.61807 0.71125 0.0
H1136 H 0.96889 0.60602 0.53217 0.0
H1137 H 0.97388 0.60985 0.59612 0.0
C1138 C 0.64649 0.77175 0.03014 0.0
C1139 C 0.64665 0.76334 0.06054 0.0
C1140 C 0.6422 0.7672 0.99626 0.0
C1141 C 0.64129 0.73776 0.94161 0.0
H1142 H 0.61982 0.75896 0.87692 0.0
C1143 C 0.6387 0.72575 0.7887 0.0
C1144 C 0.64088 0.73673 0.76622 0.0
C1145 C 0.63531 0.72743 0.82544 0.0
C1146 C 0.62583 0.75291 0.8946 0.0
H1147 H 0.6422 0.74363 0.07946 0.0
H1148 H 0.635 0.73556 0.01964 0.0
H1149 H 0.62187 0.76507 0.94108 0.0
H1150 H 0.64025 0.75803 0.7639 0.0
H1151 H 0.63464 0.76097 0.82756 0.0
H1152 H 0.64602 0.72611 0.89493 0.0
C1153 C 0.63808 0.74571 0.02235 0.0
C1154 C 0.62695 0.75639 0.93134 0.0
C1155 C 0.64217 0.75034 0.0565 0.0
C1156 C 0.63869 0.74936 0.78049 0.0
C1157 C 0.63536 0.75104 0.81711 0.0
C1158 C 0.6403 0.73436 0.90476 0.0
C1159 C 0.63814 0.7541 0.99188 0.0
C1160 C 0.63503 0.74909 0.95491 0.0
C1161 C 0.63405 0.74012 0.84039 0.0
C1162 C 0.63292 0.74217 0.88051 0.0
H1163 H 0.64981 0.78184 0.03242 0.0
H1164 H 0.64251 0.77384 0.97315 0.0
H1165 H 0.64765 0.73201 0.95914 0.0
H1166 H 0.64023 0.71587 0.77844 0.0
H1167 H 0.63414 0.7188 0.84243 0.0
C1168 C 0.50133 0.39599 0.80602 0.0
C1169 C 0.51424 0.40067 0.81049 0.0
C1170 C 0.49694 0.39176 0.77179 0.0
C1171 C 0.5083 0.38002 0.68233 0.0
H1172 H 0.47781 0.39797 0.64304 0.0
C1173 C 0.5015 0.3892 0.53007 0.0
C1174 C 0.48888 0.39098 0.51536 0.0
C1175 C 0.50313 0.38648 0.56707 0.0
C1176 C 0.48613 0.39255 0.65371 0.0
H1177 H 0.53278 0.40418 0.78293 0.0
H1178 H 0.52517 0.39663 0.72345 0.0
H1179 H 0.48344 0.40064 0.70718 0.0
H1180 H 0.46801 0.39021 0.5273 0.0
H1181 H 0.47086 0.38517 0.59199 0.0
H1182 H 0.51118 0.37211 0.62887 0.0
C1183 C 0.51845 0.39627 0.74635 0.0
C1184 C 0.48938 0.39415 0.69049 0.0
C1185 C 0.52276 0.4007 0.78032 0.0
C1186 C 0.47788 0.38899 0.53789 0.0
C1187 C 0.47952 0.3862 0.57502 0.0
C1188 C 0.50497 0.37828 0.64568 0.0
C1189 C 0.50547 0.39188 0.74165 0.0
C1190 C 0.50076 0.38829 0.70476 0.0
C1191 C 0.49218 0.38538 0.5903 0.0
C1192 C 0.49414 0.38495 0.63054 0.0
H1193 H 0.49453 0.39585 0.82878 0.0
H1194 H 0.48688 0.38842 0.76881 0.0
H1195 H 0.51702 0.37524 0.69288 0.0
H1196 H 0.51019 0.39061 0.51345 0.0
H1197 H 0.51305 0.38608 0.57776 0.0
C1198 C 0.36344 0.73262 0.28624 0.0
C1199 C 0.36274 0.74232 0.25897 0.0
C1200 C 0.36553 0.73619 0.32267 0.0
C1201 C 0.35675 0.76352 0.38013 0.0
H1202 H 0.37673 0.74606 0.456 0.0
C1203 C 0.35166 0.78002 0.52861 0.0
C1204 C 0.35139 0.77021 0.55551 0.0
C1205 C 0.35554 0.77703 0.49307 0.0
C1206 C 0.371 0.75096 0.43517 0.0
H1207 H 0.36514 0.76314 0.2478 0.0
H1208 H 0.36878 0.76931 0.31118 0.0
H1209 H 0.37998 0.73977 0.39211 0.0
H1210 H 0.3552 0.74963 0.5666 0.0
H1211 H 0.36136 0.74422 0.50406 0.0
H1212 H 0.3472 0.7742 0.42248 0.0
C1213 C 0.36749 0.759 0.30453 0.0
C1214 C 0.37294 0.7474 0.39863 0.0
C1215 C 0.36544 0.75545 0.26824 0.0
C1216 C 0.35532 0.75739 0.54636 0.0
C1217 C 0.35896 0.75433 0.51055 0.0
C1218 C 0.35467 0.76693 0.41646 0.0
C1219 C 0.36693 0.7495 0.33225 0.0
C1220 C 0.36581 0.75367 0.37082 0.0
C1221 C 0.35895 0.76408 0.48332 0.0
C1222 C 0.36173 0.7607 0.44455 0.0
H1223 H 0.36144 0.72241 0.27991 0.0
H1224 H 0.36504 0.72867 0.34355 0.0
H1225 H 0.35088 0.7683 0.35932 0.0
H1226 H 0.3489 0.79005 0.53505 0.0
H1227 H 0.35575 0.78489 0.47316 0.0
C1228 C 0.0246 0.60989 0.03904 0.0
C1229 C 0.01557 0.61308 0.01148 0.0
C1230 C 0.0217 0.61264 0.07555 0.0
C1231 C 0.99204 0.61678 0.13223 0.0
H1232 H 0.01763 0.61867 0.2104 0.0
C1233 C 0.99434 0.6141 0.30049 0.0
C1234 C 0.98537 0.60373 0.3054 0.0
C1235 C 0.99812 0.61799 0.26537 0.0
C1236 C 0.01031 0.61836 0.18895 0.0
H1237 H 0.99719 0.62295 -0.00024 0.0
H1238 H 0.99244 0.62843 0.06312 0.0
H1239 H 0.02464 0.62228 0.14755 0.0
H1240 H 0.97343 0.58925 0.27721 0.0
H1241 H 0.9802 0.59576 0.21648 0.0
H1242 H 0.9777 0.61301 0.17344 0.0
C1243 C 1.00147 0.62324 0.05697 0.0
C1244 C 0.01436 0.62027 0.15282 0.0
C1245 C 0.00423 0.62022 0.02059 0.0
C1246 C 0.98028 0.59734 0.27449 0.0
C1247 C 0.9841 0.60116 0.23955 0.0
C1248 C 0.98799 0.61502 0.16823 0.0
C1249 C 0.00981 0.61885 0.08511 0.0
C1250 C 0.00534 0.6191 0.12387 0.0
C1251 C 0.99302 0.61157 0.23447 0.0
C1252 C 0.99713 0.61533 0.19694 0.0
H1253 H 0.0334 0.60433 0.03278 0.0
H1254 H 0.02835 0.60902 0.09628 0.0
H1255 H 0.98477 0.61563 0.11091 0.0
H1256 H 0.99842 0.61926 0.32377 0.0
H1257 H 0.00494 0.6261 0.26242 0.0
C1258 C 0.13888 0.25146 0.78359 0.0
C1259 C 0.1407 0.26405 0.76872 0.0
C1260 C 0.13632 0.24987 0.82069 0.0
C1261 C 0.14284 0.26689 0.90709 0.0
H1262 H 0.12536 0.2362 0.94689 0.0
C1263 C 0.14652 0.25179 0.05949 0.0
C1264 C 0.15107 0.23883 0.06396 0.0
C1265 C 0.14227 0.2562 0.02529 0.0
C1266 C 0.1302 0.24486 0.93616 0.0
H1267 H 0.14018 0.28494 0.78055 0.0
H1268 H 0.13539 0.28219 0.84544 0.0
H1269 H 0.12209 0.24201 0.88292 0.0
H1270 H 0.15433 0.22022 0.03645 0.0
H1271 H 0.14674 0.22786 0.97705 0.0
H1272 H 0.15111 0.26955 0.96035 0.0
C1273 C 0.13628 0.27351 0.82849 0.0
C1274 C 0.12838 0.24818 0.89953 0.0
C1275 C 0.13891 0.27509 0.79125 0.0
C1276 C 0.15096 0.23028 0.03384 0.0
C1277 C 0.1465 0.23461 -9e-05 0.0
C1278 C 0.14452 0.26366 0.94386 0.0
C1279 C 0.13541 0.26086 0.84389 0.0
C1280 C 0.13509 0.25893 0.88416 0.0
C1281 C 0.14224 0.24764 0.99521 0.0
C1282 C 0.1386 0.25235 0.95835 0.0
H1283 H 0.14015 0.24273 0.76698 0.0
H1284 H 0.13587 0.23997 0.83146 0.0
H1285 H 0.1483 0.27515 0.89622 0.0
H1286 H 0.1465 0.2586 0.08221 0.0
H1287 H 0.13903 0.26629 0.02231 0.0
C1288 C 0.50749 0.611 0.69175 0.0
C1289 C 0.51652 0.60067 0.68691 0.0
C1290 C 0.50378 0.61498 0.72685 0.0
C1291 C 0.51462 0.61275 0.82332 0.0
H1292 H 0.4782 0.62041 0.84599 0.0
C1293 C 0.49997 0.62036 0.97128 0.0
C1294 C 0.4888 0.61331 0.98225 0.0
C1295 C 0.50229 0.6228 0.93435 0.0
C1296 C 0.48841 0.6183 0.84014 0.0
H1297 H 0.52852 0.58625 0.71514 0.0
H1298 H 0.52186 0.59293 0.77589 0.0
H1299 H 0.4846 0.61599 0.78299 0.0
H1300 H 0.47078 0.60416 0.96368 0.0
H1301 H 0.47506 0.60786 0.89922 0.0
H1302 H 0.5184 0.61412 0.88028 0.0
C1303 C 0.51788 0.59823 0.75276 0.0
C1304 C 0.49211 0.6159 0.80393 0.0
C1305 C 0.52163 0.59432 0.71783 0.0
C1306 C 0.47946 0.60966 0.95595 0.0
C1307 C 0.48192 0.61183 0.9189 0.0
C1308 C 0.51093 0.615 0.85939 0.0
C1309 C 0.509 0.60868 0.75777 0.0
C1310 C 0.50521 0.61275 0.79529 0.0
C1311 C 0.49367 0.61791 0.90755 0.0
C1312 C 0.49772 0.61752 0.86848 0.0
H1313 H 0.50339 0.61612 0.66846 0.0
H1314 H 0.49698 0.6231 0.72977 0.0
H1315 H 0.52485 0.61064 0.81755 0.0
H1316 H 0.50725 0.62344 0.99111 0.0
H1317 H 0.51122 0.62791 0.92676 0.0
C1318 C 0.148 0.75701 0.44993 0.0
C1319 C 0.15184 0.76986 0.44081 0.0
C1320 C 0.14437 0.75392 0.48572 0.0
C1321 C 0.14854 0.76655 0.57983 0.0
H1322 H 0.12347 0.73917 0.6041 0.0
C1323 C 0.13787 0.75496 0.72802 0.0
C1324 C 0.14068 0.74184 0.73726 0.0
C1325 C 0.13579 0.7585 0.69173 0.0
C1326 C 0.13044 0.74686 0.5976 0.0
H1327 H 0.15416 0.78972 0.46131 0.0
H1328 H 0.14732 0.78451 0.52316 0.0
H1329 H 0.12666 0.7455 0.54023 0.0
H1330 H 0.14214 0.72195 0.71628 0.0
H1331 H 0.13849 0.72819 0.65266 0.0
H1332 H 0.15232 0.76794 0.63697 0.0
C1333 C 0.1476 0.77665 0.50324 0.0
C1334 C 0.13235 0.75044 0.56108 0.0
C1335 C 0.15148 0.77967 0.46772 0.0
C1336 C 0.14006 0.73214 0.70997 0.0
C1337 C 0.13794 0.7357 0.67355 0.0
C1338 C 0.14649 0.76312 0.61615 0.0
C1339 C 0.14429 0.76367 0.51297 0.0
C1340 C 0.14153 0.76026 0.55173 0.0
C1341 C 0.13643 0.749 0.664 0.0
C1342 C 0.13751 0.75318 0.62543 0.0
H1343 H 0.1482 0.74925 0.42968 0.0
H1344 H 0.14205 0.74379 0.49218 0.0
H1345 H 0.15595 0.77388 0.57384 0.0
H1346 H 0.13811 0.76264 0.74847 0.0
H1347 H 0.13442 0.76879 0.68511 0.0
C1348 C 0.97939 0.40048 0.22312 0.0
C1349 C 0.98775 0.39989 0.19265 0.0
C1350 C 0.98371 0.39616 0.2572 0.0
C1351 C 0.01308 0.39362 0.31167 0.0
H1352 H 0.99093 0.37333 0.37681 0.0
C1353 C 0.02564 0.39022 0.46388 0.0
C1354 C 0.01492 0.39289 0.4869 0.0
C1355 C 0.02358 0.38695 0.42723 0.0
C1356 C 0.99724 0.37902 0.35901 0.0
H1357 H 0.00714 0.3941 0.17389 0.0
H1358 H 0.01481 0.38686 0.23398 0.0
H1359 H 0.9847 0.37582 0.31285 0.0
H1360 H 0.99363 0.39323 0.49027 0.0
H1361 H 0.99005 0.38788 0.42672 0.0
H1362 H 0.02516 0.39763 0.35799 0.0
C1363 C 0.00487 0.39056 0.23119 0.0
C1364 C 0.99369 0.38039 0.32239 0.0
C1365 C 1.00047 0.39468 0.19688 0.0
C1366 C 0.00212 0.39129 0.47326 0.0
C1367 C 1.00006 0.38811 0.43669 0.0
C1368 C 0.01655 0.3924 0.3484 0.0
C1369 C 0.99654 0.39132 0.26168 0.0
C1370 C 1.00137 0.38803 0.29866 0.0
C1371 C 0.01076 0.38634 0.41286 0.0
C1372 C 0.00844 0.38544 0.37282 0.0
H1373 H 0.96951 0.40437 0.2207 0.0
H1374 H 0.97714 0.39701 0.28035 0.0
H1375 H 0.01914 0.39964 0.29399 0.0
H1376 H 0.03563 0.39127 0.47367 0.0
H1377 H 0.03204 0.38538 0.40984 0.0
C1378 C 0.36828 0.25412 0.20886 0.0
C1379 C 0.36396 0.26575 0.22572 0.0
C1380 C 0.37012 0.25364 0.17112 0.0
C1381 C 0.37557 0.25597 0.08929 0.0
H1382 H 0.34335 0.26778 0.04311 0.0
C1383 C 0.36247 0.24745 0.9358 0.0
C1384 C 0.35041 0.24086 0.93163 0.0
C1385 C 0.36612 0.2526 0.96976 0.0
C1386 C 0.35247 0.26459 0.05555 0.0
H1387 H 0.35931 0.28632 0.21673 0.0
H1388 H 0.36241 0.28542 0.15069 0.0
H1389 H 0.34764 0.27348 0.10663 0.0
H1390 H 0.33262 0.23473 0.95948 0.0
H1391 H 0.33886 0.24397 0.01834 0.0
H1392 H 0.38007 0.24662 0.03827 0.0
C1393 C 0.3643 0.27667 0.1667 0.0
C1394 C 0.35499 0.26794 0.09178 0.0
C1395 C 0.36259 0.27719 0.20452 0.0
C1396 C 0.34199 0.2397 0.96184 0.0
C1397 C 0.34552 0.24506 0.99546 0.0
C1398 C 0.37311 0.25276 0.05278 0.0
C1399 C 0.36757 0.26476 0.1495 0.0
C1400 C 0.36636 0.26332 0.10939 0.0
C1401 C 0.35762 0.2515 -0.00022 0.0
C1402 C 0.36133 0.25669 0.03605 0.0
H1403 H 0.3695 0.24516 0.2245 0.0
H1404 H 0.37258 0.2443 0.15865 0.0
H1405 H 0.38442 0.25232 0.1022 0.0
H1406 H 0.36917 0.24844 0.91298 0.0
H1407 H 0.37551 0.25752 0.97252 0.0
C1408 C 0.00463 0.05218 0.04179 0.0
C1409 C 0.01766 0.05384 0.05387 0.0
C1410 C 1.0003 0.04003 0.02861 0.0
C1411 C 0.01231 0.00862 0.99015 0.0
H1412 H 0.97746 0.99609 0.01533 0.0
C1413 C 0.99531 0.95583 0.95751 0.0
C1414 C 0.98237 0.95397 0.94498 0.0
C1415 C 0.99945 0.96807 0.97047 0.0
C1416 C 0.98715 0.99952 0.00766 0.0
H1417 H 0.03633 0.04393 0.06161 0.0
H1418 H 0.02872 0.02266 0.03889 0.0
H1419 H 0.98512 0.01715 0.0391 0.0
H1420 H 0.96361 0.96361 0.9364 0.0
H1421 H 0.97087 0.98507 0.95886 0.0
H1422 H 0.01436 0.99099 0.95877 0.0
C1423 C 0.0219 0.03084 0.03924 0.0
C1424 C 0.99156 0.01159 0.02133 0.0
C1425 C 0.02624 0.04302 0.05247 0.0
C1426 C 0.97364 0.96469 0.94587 0.0
C1427 C 0.97779 0.97697 0.95892 0.0
C1428 C 0.00791 0.99655 0.9765 0.0
C1429 C 0.00886 0.0292 0.02713 0.0
C1430 C 0.0042 0.01629 0.01279 0.0
C1431 C 0.99076 0.97881 0.97129 0.0
C1432 C 0.99529 0.99182 0.98516 0.0
H1433 H 0.99774 0.06029 0.0423 0.0
H1434 H 0.99026 0.0392 0.01903 0.0
H1435 H 0.02201 0.01203 0.98247 0.0
H1436 H 0.00232 0.94781 0.95743 0.0
H1437 H 0.00943 0.96905 0.98032 0.0
C1438 C 0.20438 0.75586 0.29194 0.0
C1439 C 0.20221 0.76903 0.30217 0.0
C1440 C 0.21664 0.75177 0.27916 0.0
C1441 C 0.24736 0.76408 0.23779 0.0
H1442 H 0.26109 0.73013 0.26742 0.0
C1443 C 0.30027 0.74765 0.20393 0.0
C1444 C 0.3024 0.73446 0.19382 0.0
C1445 C 0.28803 0.7518 0.21678 0.0
C1446 C 0.25733 0.73956 0.2585 0.0
H1447 H 0.21137 0.7882 0.30701 0.0
H1448 H 0.23289 0.781 0.28487 0.0
H1449 H 0.24007 0.7377 0.29147 0.0
H1450 H 0.29318 0.71531 0.18924 0.0
H1451 H 0.2717 0.7226 0.21146 0.0
H1452 H 0.26463 0.76594 0.2048 0.0
C1453 C 0.22499 0.77389 0.28646 0.0
C1454 C 0.24528 0.74392 0.27235 0.0
C1455 C 0.21268 0.778 0.29935 0.0
C1456 C 0.29191 0.72553 0.19681 0.0
C1457 C 0.27962 0.72969 0.20975 0.0
C1458 C 0.25942 0.75972 0.22393 0.0
C1459 C 0.22712 0.7607 0.27621 0.0
C1460 C 0.24012 0.75623 0.26214 0.0
C1461 C 0.27754 0.74289 0.21992 0.0
C1462 C 0.26456 0.7474 0.23411 0.0
H1463 H 0.19656 0.74866 0.29357 0.0
H1464 H 0.21784 0.7416 0.27099 0.0
H1465 H 0.2436 0.77351 0.22886 0.0
H1466 H 0.30811 0.75483 0.20217 0.0
H1467 H 0.28687 0.76198 0.22488 0.0
C1468 C 0.52812 0.04058 0.44705 0.0
C1469 C 0.51927 0.05118 0.44902 0.0
C1470 C 0.52444 0.02807 0.45948 0.0
C1471 C 0.49501 0.00787 0.48075 0.0
H1472 H 0.51946 0.98682 0.53698 0.0
C1473 C 0.47897 0.96029 0.55544 0.0
C1474 C 0.48766 0.94956 0.55402 0.0
C1475 C 0.48288 0.9727 0.54276 0.0
C1476 C 0.51255 0.99251 0.52099 0.0
H1477 H 0.49959 0.05687 0.46585 0.0
H1478 H 0.4933 0.03524 0.48762 0.0
H1479 H 0.52634 0.00821 0.51372 0.0
H1480 H 0.50733 0.94351 0.5381 0.0
H1481 H 0.51403 0.96499 0.51584 0.0
H1482 H 0.48121 0.99219 0.488 0.0
C1483 C 0.50301 0.0365 0.47603 0.0
C1484 C 0.51651 0.00477 0.5076 0.0
C1485 C 0.50668 0.04896 0.4637 0.0
C1486 C 0.50036 0.95154 0.53979 0.0
C1487 C 0.50426 0.96391 0.52717 0.0
C1488 C 0.49105 0.99561 0.49412 0.0
C1489 C 0.51181 0.02588 0.47405 0.0
C1490 C 0.50777 0.01263 0.48741 0.0
C1491 C 0.49558 0.97465 0.52842 0.0
C1492 C 0.49976 0.98778 0.51448 0.0
H1493 H 0.53788 0.04194 0.43588 0.0
H1494 H 0.53142 0.02007 0.45726 0.0
H1495 H 0.48809 0.01356 0.4648 0.0
H1496 H 0.46914 0.95913 0.56628 0.0
H1497 H 0.47599 0.98079 0.54453 0.0
C1498 C 0.30038 0.24731 0.77698 0.0
C1499 C 0.30195 0.23479 0.79273 0.0
C1500 C 0.28815 0.2514 0.76381 0.0
C1501 C 0.25589 0.23891 0.73282 0.0
H1502 H 0.24436 0.27465 0.75148 0.0
C1503 C 0.20264 0.25558 0.70624 0.0
C1504 C 0.20048 0.26817 0.69149 0.0
C1505 C 0.21517 0.25169 0.71741 0.0
C1506 C 0.2475 0.26469 0.74559 0.0
H1507 H 0.29182 0.21672 0.80678 0.0
H1508 H 0.27042 0.2239 0.78398 0.0
H1509 H 0.26577 0.26738 0.77358 0.0
H1510 H 0.20992 0.28655 0.67694 0.0
H1511 H 0.2319 0.2797 0.69625 0.0
H1512 H 0.23762 0.23621 0.70492 0.0
C1513 C 0.27872 0.23051 0.78151 0.0
C1514 C 0.25978 0.26051 0.75831 0.0
C1515 C 0.29098 0.22642 0.79476 0.0
C1516 C 0.21122 0.2768 0.68821 0.0
C1517 C 0.22381 0.27289 0.69945 0.0
C1518 C 0.24363 0.24309 0.72008 0.0
C1519 C 0.27715 0.24308 0.76599 0.0
C1520 C 0.26411 0.24755 0.75223 0.0
C1521 C 0.22593 0.26027 0.71415 0.0
C1522 C 0.23923 0.25602 0.72648 0.0
H1523 H 0.30861 0.25402 0.77479 0.0
H1524 H 0.28736 0.26106 0.75155 0.0
H1525 H 0.25901 0.22894 0.72708 0.0
H1526 H 0.19461 0.24867 0.70939 0.0
H1527 H 0.21637 0.242 0.72917 0.0
C1528 C 0.02683 0.96259 0.43894 0.0
C1529 C 0.01788 0.95204 0.43864 0.0
C1530 C 0.02305 0.97493 0.45244 0.0
C1531 C 0.99823 0.99073 0.51236 0.0
H1532 H 0.00883 0.02279 0.46339 0.0
C1533 C 0.97646 0.04151 0.55043 0.0
C1534 C 0.98515 0.05225 0.55141 0.0
C1535 C 0.98056 0.02933 0.53665 0.0
C1536 C 0.0059 0.01394 0.47764 0.0
H1537 H 0.99787 0.94634 0.45189 0.0
H1538 H 0.99132 0.96775 0.47486 0.0
H1539 H 0.01599 1.00157 0.43946 0.0
H1540 H 0.00503 0.05853 0.53863 0.0
H1541 H 0.01216 0.03734 0.51503 0.0
H1542 H 0.98812 0.00306 0.55049 0.0
C1543 C 1.00131 0.96647 0.46527 0.0
C1544 C 0.01002 1.00177 0.46392 0.0
C1545 C 0.00507 0.95418 0.45182 0.0
C1546 C 0.99804 0.0505 0.53827 0.0
C1547 C 0.00212 0.03835 0.52447 0.0
C1548 C 0.99411 0.00288 0.52605 0.0
C1549 C 0.01026 0.97699 0.466 0.0
C1550 C 0.00619 0.99 0.48102 0.0
C1551 C 0.99344 0.0276 0.52346 0.0
C1552 C 0.99785 0.01465 0.50883 0.0
H1553 H 0.03678 0.96129 0.42907 0.0
H1554 H 0.03023 0.9828 0.45286 0.0
H1555 H 0.99528 0.98188 0.52662 0.0
H1556 H 0.96646 0.0425 0.56021 0.0
H1557 H 0.97357 0.0213 0.53589 0.0
C1558 C 0.21161 0.72541 0.79965 0.0
C1559 C 0.20108 0.7343 0.80256 0.0
C1560 C 0.22389 0.72963 0.78677 0.0
C1561 C 0.24396 0.75973 0.77264 0.0
H1562 H 0.26345 0.73777 0.70521 0.0
C1563 C 0.29066 0.77818 0.69735 0.0
C1564 C 0.30116 0.76924 0.69453 0.0
C1565 C 0.27836 0.77402 0.71024 0.0
C1566 C 0.2582 0.74398 0.7243 0.0
H1567 H 0.19527 0.75463 0.79413 0.0
H1568 H 0.21649 0.76187 0.77153 0.0
H1569 H 0.24244 0.73013 0.72917 0.0
H1570 H 0.30689 0.7489 0.70318 0.0
H1571 H 0.28564 0.74177 0.72577 0.0
H1572 H 0.25972 0.77359 0.76776 0.0
C1573 C 0.21537 0.75169 0.77964 0.0
C1574 C 0.24616 0.73957 0.7381 0.0
C1575 C 0.20314 0.74749 0.79244 0.0
C1576 C 0.29904 0.75607 0.70479 0.0
C1577 C 0.2868 0.75194 0.71759 0.0
C1578 C 0.256 0.76414 0.75883 0.0
C1579 C 0.22591 0.74283 0.77658 0.0
C1580 C 0.23888 0.74739 0.76245 0.0
C1581 C 0.27629 0.76083 0.7205 0.0
C1582 C 0.26329 0.75631 0.73453 0.0
H1583 H 0.21038 0.71519 0.80724 0.0
H1584 H 0.23184 0.72257 0.78512 0.0
H1585 H 0.23871 0.76594 0.79174 0.0
H1586 H 0.29193 0.78838 0.68966 0.0
H1587 H 0.27043 0.78111 0.71181 0.0
C1588 C 0.50622 0.95362 0.03167 0.0
C1589 C 0.51903 0.95193 0.04541 0.0
C1590 C 0.50203 0.96585 0.01874 0.0
C1591 C 0.51436 0.99779 0.9846 0.0
H1592 H 0.47911 0.00983 0.00725 0.0
C1593 C 0.49776 0.05108 0.95781 0.0
C1594 C 0.48498 0.05326 0.94433 0.0
C1595 C 0.50171 0.03858 0.96907 0.0
C1596 C 0.48892 0.00654 0.00026 0.0
H1597 H 0.53748 0.96185 0.05619 0.0
H1598 H 0.53014 0.98327 0.03388 0.0
H1599 H 0.48652 0.98847 0.02947 0.0
H1600 H 0.46635 0.04388 0.93216 0.0
H1601 H 0.47331 0.02194 0.95171 0.0
H1602 H 0.51678 0.01588 0.95554 0.0
C1603 C 0.52337 0.97506 0.03277 0.0
C1604 C 0.49319 0.9943 0.01305 0.0
C1605 C 0.52757 0.96279 0.04575 0.0
C1606 C 0.47625 0.04256 0.94242 0.0
C1607 C 0.48022 0.03 0.9538 0.0
C1608 C 0.5101 0.01003 0.97184 0.0
C1609 C 0.51053 0.97674 0.01917 0.0
C1610 C 0.50598 0.98978 0.00549 0.0
C1611 C 0.49302 0.02787 0.96722 0.0
C1612 C 0.49734 0.0146 0.97965 0.0
H1613 H 0.49937 0.94548 0.0308 0.0
H1614 H 0.49216 0.96672 0.00797 0.0
H1615 H 0.52419 0.99453 0.9777 0.0
H1616 H 0.50476 0.05907 0.95986 0.0
H1617 H 0.51155 0.03736 0.97981 0.0
C1618 C 0.2051 0.24659 0.21359 0.0
C1619 C 0.20288 0.23408 0.19831 0.0
C1620 C 0.21753 0.25014 0.22642 0.0
C1621 C 0.2528 0.24185 0.21894 0.0
H1622 H 0.25554 0.26198 0.30855 0.0
C1623 C 0.30273 0.25234 0.28778 0.0
C1624 C 0.30484 0.26494 0.30254 0.0
C1625 C 0.29031 0.24856 0.27544 0.0
C1626 C 0.25495 0.2565 0.28327 0.0
H1627 H 0.21212 0.21551 0.18455 0.0
H1628 H 0.23387 0.22171 0.20725 0.0
H1629 H 0.23398 0.25514 0.28653 0.0
H1630 H 0.29539 0.28344 0.31599 0.0
H1631 H 0.27365 0.27685 0.29417 0.0
H1632 H 0.27376 0.24323 0.21566 0.0
C1633 C 0.22595 0.22881 0.20894 0.0
C1634 C 0.24258 0.25255 0.27063 0.0
C1635 C 0.21347 0.22523 0.19607 0.0
C1636 C 0.29413 0.27365 0.30486 0.0
C1637 C 0.28165 0.26984 0.29251 0.0
C1638 C 0.26517 0.24579 0.23158 0.0
C1639 C 0.22812 0.2413 0.22439 0.0
C1640 C 0.24134 0.24521 0.23825 0.0
C1641 C 0.2796 0.25726 0.27748 0.0
C1642 C 0.2664 0.25318 0.2639 0.0
H1643 H 0.19722 0.25371 0.21568 0.0
H1644 H 0.21886 0.25992 0.23755 0.0
H1645 H 0.2522 0.23639 0.19362 0.0
H1646 H 0.31072 0.24533 0.28564 0.0
H1647 H 0.28906 0.23873 0.2646 0.0
C1648 C 0.79032 0.22512 0.69979 0.0
C1649 C 0.80122 0.23362 0.69904 0.0
C1650 C 0.77816 0.22949 0.7131 0.0
C1651 C 0.75916 0.25989 0.73246 0.0
H1652 H 0.73804 0.2367 0.79245 0.0
C1653 C 0.71149 0.27728 0.80548 0.0
C1654 C 0.70078 0.26856 0.80442 0.0
C1655 C 0.72396 0.27325 0.79351 0.0
C1656 C 0.74376 0.24327 0.77548 0.0
H1657 H 0.80783 0.25339 0.7119 0.0
H1658 H 0.78677 0.26089 0.73533 0.0
H1659 H 0.75917 0.22911 0.76929 0.0
H1660 H 0.69484 0.24872 0.78982 0.0
H1661 H 0.71638 0.24181 0.76892 0.0
H1662 H 0.74371 0.27405 0.73864 0.0
C1663 C 0.78753 0.25092 0.72516 0.0
C1664 C 0.75588 0.2389 0.76212 0.0
C1665 C 0.79965 0.24657 0.71188 0.0
C1666 C 0.70284 0.25572 0.79122 0.0
C1667 C 0.71525 0.2517 0.7794 0.0
C1668 C 0.74704 0.26427 0.74586 0.0
C1669 C 0.77662 0.24245 0.72597 0.0
C1670 C 0.76372 0.24713 0.7403 0.0
C1671 C 0.72598 0.26039 0.78038 0.0
C1672 C 0.73915 0.25598 0.76736 0.0
H1673 H 0.79116 0.2151 0.69005 0.0
H1674 H 0.76993 0.22274 0.7129 0.0
H1675 H 0.76486 0.26645 0.71535 0.0
H1676 H 0.71026 0.28723 0.81549 0.0
H1677 H 0.73204 0.28016 0.79492 0.0
C1678 C 0.70256 0.75473 0.20225 0.0
C1679 C 0.70024 0.7674 0.18827 0.0
C1680 C 0.7151 0.75099 0.21376 0.0
C1681 C 0.74692 0.76442 0.24471 0.0
H1682 H 0.75932 0.72907 0.22479 0.0
C1683 C 0.79981 0.74763 0.27946 0.0
C1684 C 0.80141 0.73495 0.29424 0.0
C1685 C 0.78766 0.75168 0.26563 0.0
C1686 C 0.75595 0.73893 0.23094 0.0
H1687 H 0.70941 0.78608 0.17534 0.0
H1688 H 0.7314 0.77949 0.19526 0.0
H1689 H 0.73799 0.73609 0.20159 0.0
H1690 H 0.79138 0.71661 0.30597 0.0
H1691 H 0.77014 0.72373 0.28209 0.0
H1692 H 0.76488 0.76723 0.2742 0.0
C1693 C 0.72342 0.77249 0.1976 0.0
C1694 C 0.74372 0.74297 0.21759 0.0
C1695 C 0.71083 0.77625 0.18599 0.0
C1696 C 0.79053 0.72642 0.29474 0.0
C1697 C 0.77836 0.73048 0.28084 0.0
C1698 C 0.75917 0.76038 0.25806 0.0
C1699 C 0.7257 0.7598 0.21163 0.0
C1700 C 0.739 0.75574 0.22451 0.0
C1701 C 0.77677 0.74318 0.26616 0.0
C1702 C 0.76381 0.74755 0.25152 0.0
H1703 H 0.69465 0.74764 0.20459 0.0
H1704 H 0.71642 0.74122 0.22496 0.0
H1705 H 0.74352 0.77426 0.25101 0.0
H1706 H 0.80797 0.75446 0.27848 0.0
H1707 H 0.78685 0.76145 0.25409 0.0
C1708 C 0.71232 0.22563 0.30443 0.0
C1709 C 0.70181 0.23461 0.30342 0.0
C1710 C 0.72486 0.22936 0.29233 0.0
C1711 C 0.74537 0.25882 0.27422 0.0
H1712 H 0.76587 0.23507 0.21416 0.0
C1713 C 0.79283 0.27551 0.20009 0.0
C1714 C 0.80341 0.26662 0.19958 0.0
C1715 C 0.78046 0.27156 0.21286 0.0
C1716 C 0.76034 0.24178 0.23125 0.0
H1717 H 0.69631 0.25457 0.2888 0.0
H1718 H 0.718 0.26096 0.26769 0.0
H1719 H 0.74449 0.22808 0.23721 0.0
H1720 H 0.80923 0.24659 0.21228 0.0
H1721 H 0.78782 0.23982 0.23479 0.0
H1722 H 0.76121 0.27252 0.26833 0.0
C1723 C 0.71664 0.2511 0.2782 0.0
C1724 C 0.74808 0.23775 0.2445 0.0
C1725 C 0.70415 0.24738 0.29014 0.0
C1726 C 0.80131 0.25371 0.21208 0.0
C1727 C 0.78898 0.24978 0.22483 0.0
C1728 C 0.75763 0.26284 0.26102 0.0
C1729 C 0.72716 0.24216 0.27913 0.0
C1730 C 0.74042 0.24624 0.26603 0.0
C1731 C 0.77838 0.25864 0.22541 0.0
C1732 C 0.76527 0.25439 0.23929 0.0
H1733 H 0.71087 0.21572 0.3145 0.0
H1734 H 0.73278 0.22227 0.2937 0.0
H1735 H 0.73982 0.26554 0.2912 0.0
H1736 H 0.79408 0.28552 0.19061 0.0
H1737 H 0.77247 0.27861 0.21251 0.0
C1738 C 0.70401 0.74532 0.71454 0.0
C1739 C 0.70219 0.73268 0.69975 0.0
C1740 C 0.71632 0.74929 0.72737 0.0
C1741 C 0.7518 0.74185 0.71998 0.0
H1742 H 0.75419 0.76307 0.8077 0.0
C1743 C 0.8015 0.75435 0.7878 0.0
C1744 C 0.80328 0.7672 0.80123 0.0
C1745 C 0.78919 0.75012 0.77566 0.0
C1746 C 0.75368 0.75728 0.78294 0.0
H1747 H 0.71195 0.71427 0.68717 0.0
H1748 H 0.73344 0.72117 0.70996 0.0
H1749 H 0.73277 0.75542 0.78668 0.0
H1750 H 0.79339 0.78566 0.81238 0.0
H1751 H 0.77187 0.77829 0.79098 0.0
H1752 H 0.77272 0.7437 0.71629 0.0
C1753 C 0.72535 0.72807 0.71117 0.0
C1754 C 0.7414 0.75287 0.77088 0.0
C1755 C 0.713 0.72408 0.69829 0.0
C1756 C 0.79238 0.77571 0.80227 0.0
C1757 C 0.78003 0.77145 0.79019 0.0
C1758 C 0.76409 0.74624 0.73208 0.0
C1759 C 0.72716 0.74074 0.72584 0.0
C1760 C 0.74029 0.74513 0.73918 0.0
C1761 C 0.77829 0.75861 0.77666 0.0
C1762 C 0.76518 0.75402 0.76368 0.0
H1763 H 0.69594 0.75224 0.71603 0.0
H1764 H 0.71737 0.75918 0.73793 0.0
H1765 H 0.75131 0.7361 0.69516 0.0
H1766 H 0.80964 0.7475 0.78663 0.0
H1767 H 0.78817 0.74012 0.76591 0.0
C1768 C 0.50574 0.5503 0.53146 0.0
C1769 C 0.51855 0.55196 0.54522 0.0
C1770 C 0.50158 0.53812 0.51809 0.0
C1771 C 0.51397 0.50639 0.48265 0.0
H1772 H 0.47873 0.49419 0.50482 0.0
C1773 C 0.49743 0.45321 0.45378 0.0
C1774 C 0.48465 0.45108 0.4403 0.0
C1775 C 0.50137 0.46567 0.46545 0.0
C1776 C 0.48854 0.49752 0.49796 0.0
H1777 H 0.53704 0.54202 0.55558 0.0
H1778 H 0.52973 0.52069 0.5325 0.0
H1779 H 0.48612 0.51543 0.52793 0.0
H1780 H 0.466 0.46049 0.42852 0.0
H1781 H 0.47294 0.48235 0.4488 0.0
H1782 H 0.51641 0.48846 0.45281 0.0
C1783 C 0.52295 0.5289 0.53171 0.0
C1784 C 0.49279 0.5097 0.51126 0.0
C1785 C 0.52712 0.54111 0.54514 0.0
C1786 C 0.47591 0.46177 0.43876 0.0
C1787 C 0.47987 0.47429 0.45057 0.0
C1788 C 0.50972 0.49421 0.46937 0.0
C1789 C 0.51011 0.52725 0.51808 0.0
C1790 C 0.50558 0.51428 0.50388 0.0
C1791 C 0.49266 0.47638 0.46403 0.0
C1792 C 0.49697 0.48959 0.477 0.0
H1793 H 0.49887 0.55844 0.5309 0.0
H1794 H 0.49171 0.53729 0.5073 0.0
H1795 H 0.52379 0.5097 0.47587 0.0
H1796 H 0.50444 0.44522 0.45553 0.0
H1797 H 0.51122 0.46685 0.4762 0.0
C1798 C 0.9976 0.45427 0.04673 0.0
C1799 C 0.98477 0.45206 0.05971 0.0
C1800 C 1.00139 0.46665 0.0341 0.0
C1801 C 0.98814 0.49784 0.99797 0.0
H1802 H 0.023 0.51098 0.02047 0.0
C1803 C 0.00466 0.55055 0.96045 0.0
C1804 C 0.01755 0.55225 0.94732 0.0
C1805 C 1.00057 0.53845 0.97457 0.0
C1806 C 0.01329 0.5074 0.01357 0.0
H1807 H 0.96588 0.46127 0.06965 0.0
H1808 H 0.97256 0.48299 0.04776 0.0
H1809 H 0.01591 0.48989 0.04515 0.0
H1810 H 0.03623 0.54244 0.93869 0.0
H1811 H 0.02905 0.52128 0.96304 0.0
H1812 H 0.98555 0.51533 0.96627 0.0
C1813 C 0.97964 0.47504 0.04709 0.0
C1814 C 0.00921 0.4953 0.02778 0.0
C1815 C 0.97583 0.46261 0.05983 0.0
C1816 C 0.02625 0.54151 0.94863 0.0
C1817 C 0.02215 0.52939 0.9628 0.0
C1818 C 0.99223 0.50994 0.98375 0.0
C1819 C 0.99248 0.47721 0.03405 0.0
C1820 C 0.9966 0.49033 0.02001 0.0
C1821 C 0.00926 0.52771 0.97598 0.0
C1822 C 0.00488 0.51485 0.99124 0.0
H1823 H 0.00476 0.44639 0.04606 0.0
H1824 H 0.01129 0.46789 0.02374 0.0
H1825 H 0.97845 0.49422 0.99099 0.0
H1826 H 0.9977 0.5586 0.96004 0.0
H1827 H 0.99064 0.53759 0.98493 0.0
C1828 C 0.50615 0.45458 0.95985 0.0
C1829 C 0.51875 0.45239 0.94519 0.0
C1830 C 0.50252 0.46697 0.9728 0.0
C1831 C 0.51618 0.49838 0.0063 0.0
H1832 H 0.48095 0.5113 0.98749 0.0
C1833 C 0.50028 0.55148 0.04129 0.0
C1834 C 0.48758 0.55345 0.05553 0.0
C1835 C 0.50413 0.53917 0.02817 0.0
C1836 C 0.49077 0.50778 0.9934 0.0
H1837 H 0.53742 0.46163 0.93266 0.0
H1838 H 0.53103 0.48338 0.95512 0.0
H1839 H 0.48771 0.49007 0.963 0.0
H1840 H 0.46901 0.54388 0.06734 0.0
H1841 H 0.47579 0.52232 0.0447 0.0
H1842 H 0.51922 0.51609 0.03675 0.0
C1843 C 0.524 0.47541 0.95685 0.0
C1844 C 0.49466 0.4956 0.97929 0.0
C1845 C 0.52764 0.46296 0.94379 0.0
C1846 C 0.47885 0.54273 0.05652 0.0
C1847 C 0.48272 0.53039 0.04332 0.0
C1848 C 0.51228 0.51056 0.02044 0.0
C1849 C 0.51138 0.47756 0.97149 0.0
C1850 C 0.50741 0.49072 0.98564 0.0
C1851 C 0.49541 0.52846 0.02889 0.0
C1852 C 0.49951 0.51541 0.01422 0.0
H1853 H 0.49903 0.44668 0.96156 0.0
H1854 H 0.49281 0.4682 0.9844 0.0
H1855 H 0.52599 0.49484 0.01221 0.0
H1856 H 0.50727 0.5595 0.03994 0.0
H1857 H 0.51391 0.53811 0.0168 0.0
C1858 C 0.00728 0.45592 0.53921 0.0
C1859 C 0.0202 0.45401 0.55186 0.0
C1860 C 0.00319 0.46818 0.52633 0.0
C1861 C 0.01558 0.49967 0.48968 0.0
H1862 H 0.98073 0.51222 0.51489 0.0
C1863 C 0.99824 0.55244 0.45637 0.0
C1864 C 0.98522 0.55416 0.44428 0.0
C1865 C 0.00254 0.54026 0.46935 0.0
C1866 C 0.99043 0.5088 0.50721 0.0
H1867 H 0.03897 0.4636 0.56072 0.0
H1868 H 0.03178 0.4851 0.53839 0.0
H1869 H 0.98831 0.49111 0.53828 0.0
H1870 H 0.96654 0.54431 0.43629 0.0
H1871 H 0.97409 0.52298 0.45865 0.0
H1872 H 0.01768 0.51736 0.45855 0.0
C1873 C 0.02485 0.47701 0.53818 0.0
C1874 C 0.99479 0.49669 0.52067 0.0
C1875 C 0.02896 0.46471 0.55116 0.0
C1876 C 0.97661 0.54336 0.44545 0.0
C1877 C 0.98093 0.53114 0.45847 0.0
C1878 C 0.01121 0.51178 0.47619 0.0
C1879 C 0.01189 0.4789 0.52571 0.0
C1880 C 0.00741 0.49195 0.512 0.0
C1881 C 0.99395 0.52944 0.4706 0.0
C1882 C 0.99857 0.5165 0.48474 0.0
H1883 H 1.00026 0.44791 0.53914 0.0
H1884 H 0.99321 0.4692 0.51639 0.0
H1885 H 0.02527 0.49623 0.48201 0.0
H1886 H 0.00515 0.56055 0.45603 0.0
H1887 H 0.01257 0.53938 0.47895 0.0
C1888 C 0.07378 0.11524 0.07978 0.0
C1889 C 0.07256 0.1036 0.10018 0.0
C1890 C 0.08458 0.12357 0.08484 0.0
C1891 C 0.10865 0.13287 0.15481 0.0
H1892 H 0.12585 0.15116 0.07525 0.0
C1893 C 0.15432 0.17154 0.12668 0.0
C1894 C 0.15133 0.1814 0.15229 0.0
C1895 C 0.14584 0.16087 0.12152 0.0
C1896 C 0.12124 0.14604 0.09778 0.0
H1897 H 0.08202 0.09134 0.1409 0.0
H1898 H 0.10084 0.10588 0.14966 0.0
H1899 H 0.10918 0.13457 0.06192 0.0
H1900 H 0.13738 0.18744 0.19378 0.0
H1901 H 0.12264 0.16875 0.18499 0.0
H1902 H 0.1206 0.14447 0.19068 0.0
C1903 C 0.09338 0.10861 0.12998 0.0
C1904 C 0.11161 0.13662 0.09013 0.0
C1905 C 0.08264 0.10023 0.12472 0.0
C1906 C 0.13999 0.18001 0.17387 0.0
C1907 C 0.13155 0.16928 0.16888 0.0
C1908 C 0.11821 0.14237 0.16247 0.0
C1909 C 0.09435 0.1205 0.11061 0.0
C1910 C 0.10513 0.12998 0.11855 0.0
C1911 C 0.13422 0.15976 0.14203 0.0
C1912 C 0.12456 0.14913 0.13405 0.0
H1913 H 0.06618 0.11814 0.06072 0.0
H1914 H 0.08499 0.13269 0.06964 0.0
H1915 H 0.10375 0.12803 0.17735 0.0
H1916 H 0.16298 0.17228 0.10961 0.0
H1917 H 0.14827 0.1536 0.101 0.0
C1918 C 0.15318 0.83369 0.35789 0.0
C1919 C 0.14986 0.82259 0.33693 0.0
C1920 C 0.14423 0.844 0.36243 0.0
C1921 C 0.10848 0.84994 0.36078 0.0
H1922 H 0.11845 0.8866 0.36942 0.0
C1923 C 0.08132 0.90355 0.36989 0.0
C1924 C 0.07102 0.90034 0.39389 0.0
C1925 C 0.09173 0.89479 0.36417 0.0
C1926 C 0.11549 0.87642 0.36694 0.0
H1927 H 0.1348 0.81402 0.30246 0.0
H1928 H 0.11929 0.83211 0.3098 0.0
H1929 H 0.135 0.87023 0.35291 0.0
H1930 H 0.06399 0.88572 0.43229 0.0
H1931 H 0.08226 0.87057 0.42285 0.0
H1932 H 0.08897 0.85608 0.37411 0.0
C1933 C 0.12871 0.83271 0.32343 0.0
C1934 C 0.125 0.86701 0.35773 0.0
C1935 C 0.13767 0.82239 0.31892 0.0
C1936 C 0.07173 0.88848 0.41348 0.0
C1937 C 0.08215 0.87973 0.4078 0.0
C1938 C 0.09901 0.85931 0.37 0.0
C1939 C 0.13173 0.84347 0.34609 0.0
C1940 C 0.12161 0.85364 0.35452 0.0
C1941 C 0.0921 0.88262 0.38235 0.0
C1942 C 0.10237 0.87267 0.37331 0.0
H1943 H 0.16249 0.83416 0.37221 0.0
H1944 H 0.14687 0.85208 0.38022 0.0
H1945 H 0.10554 0.83972 0.35913 0.0
H1946 H 0.08108 0.91259 0.35428 0.0
H1947 H 0.09918 0.89732 0.34424 0.0
C1948 C 0.35037 0.83382 0.63848 0.0
C1949 C 0.35364 0.82269 0.65939 0.0
C1950 C 0.35944 0.84401 0.6336 0.0
C1951 C 0.37906 0.86674 0.63741 0.0
H1952 H 0.41479 0.85514 0.61951 0.0
C1953 C 0.42341 0.90238 0.62332 0.0
C1954 C 0.4335 0.89895 0.59886 0.0
C1955 C 0.41283 0.89386 0.62944 0.0
C1956 C 0.40484 0.85856 0.62405 0.0
H1957 H 0.36872 0.81397 0.6935 0.0
H1958 H 0.38444 0.83185 0.68555 0.0
H1959 H 0.39803 0.8391 0.63538 0.0
H1960 H 0.43996 0.88421 0.56005 0.0
H1961 H 0.42141 0.86947 0.57022 0.0
H1962 H 0.38589 0.8862 0.62529 0.0
C1963 C 0.37496 0.83256 0.67222 0.0
C1964 C 0.39526 0.84936 0.63378 0.0
C1965 C 0.3659 0.82236 0.67708 0.0
C1966 C 0.4324 0.88713 0.5792 0.0
C1967 C 0.42182 0.87862 0.5853 0.0
C1968 C 0.38868 0.87596 0.62771 0.0
C1969 C 0.372 0.84333 0.64954 0.0
C1970 C 0.38224 0.85332 0.64059 0.0
C1971 C 0.41209 0.88171 0.61123 0.0
C1972 C 0.40169 0.87197 0.62078 0.0
H1973 H 0.34103 0.83439 0.62442 0.0
H1974 H 0.35684 0.85211 0.61582 0.0
H1975 H 0.36915 0.87014 0.64263 0.0
H1976 H 0.42395 0.9114 0.63898 0.0
H1977 H 0.40556 0.89654 0.64972 0.0
C1978 C 0.42127 0.10152 0.87899 0.0
C1979 C 0.43128 0.10465 0.90399 0.0
C1980 C 0.41055 0.10995 0.87406 0.0
C1981 C 0.39232 0.1379 0.91457 0.0
H1982 H 0.38382 0.1461 0.81391 0.0
C1983 C 0.34975 0.17298 0.87635 0.0
C1984 C 0.35279 0.18273 0.85048 0.0
C1985 C 0.35831 0.16242 0.88231 0.0
C1986 C 0.38608 0.14392 0.84215 0.0
H1987 H 0.43751 0.1188 0.94474 0.0
H1988 H 0.41875 0.13347 0.9363 0.0
H1989 H 0.40051 0.12955 0.82738 0.0
H1990 H 0.36699 0.18875 0.80962 0.0
H1991 H 0.38185 0.17027 0.8198 0.0
H1992 H 0.37809 0.1525 0.9293 0.0
C1993 C 0.41919 0.12448 0.9205 0.0
C1994 C 0.39554 0.13434 0.8499 0.0
C1995 C 0.42997 0.11608 0.9253 0.0
C1996 C 0.36433 0.1814 0.8297 0.0
C1997 C 0.37284 0.17078 0.83547 0.0
C1998 C 0.38277 0.14741 0.90682 0.0
C1999 C 0.40953 0.12167 0.89416 0.0
C2000 C 0.39888 0.1313 0.8862 0.0
C2001 C 0.37005 0.16131 0.86234 0.0
C2002 C 0.37964 0.15063 0.87051 0.0
H2003 H 0.42194 0.09278 0.86217 0.0
H2004 H 0.40316 0.1074 0.85398 0.0
H2005 H 0.3946 0.13574 0.9428 0.0
H2006 H 0.34095 0.1737 0.89285 0.0
H2007 H 0.35579 0.15519 0.90285 0.0
C2008 C 0.86427 0.82393 0.82565 0.0
C2009 C 0.85297 0.82218 0.84717 0.0
C2010 C 0.87241 0.83487 0.83081 0.0
C2011 C 0.88215 0.85832 0.90194 0.0
H2012 H 0.89878 0.877 0.82212 0.0
C2013 C 0.91909 0.90543 0.8743 0.0
C2014 C 0.9294 0.90239 0.89846 0.0
C2015 C 0.90862 0.89669 0.86935 0.0
C2016 C 0.89412 0.87197 0.84473 0.0
H2017 H 0.8411 0.83085 0.89009 0.0
H2018 H 0.85531 0.84991 0.89905 0.0
H2019 H 0.88243 0.86004 0.80905 0.0
H2020 H 0.93645 0.88804 0.93761 0.0
H2021 H 0.9181 0.87286 0.92921 0.0
H2022 H 0.89398 0.87012 0.93761 0.0
C2023 C 0.85792 0.84276 0.87838 0.0
C2024 C 0.88485 0.86218 0.83721 0.0
C2025 C 0.84972 0.83188 0.87302 0.0
C2026 C 0.92867 0.8907 0.91882 0.0
C2027 C 0.91813 0.882 0.91407 0.0
C2028 C 0.89152 0.86803 0.90945 0.0
C2029 C 0.86949 0.84426 0.85781 0.0
C2030 C 0.87881 0.85518 0.86572 0.0
C2031 C 0.90815 0.88476 0.88865 0.0
C2032 C 0.89767 0.87492 0.88093 0.0
H2033 H 0.86707 0.81663 0.80556 0.0
H2034 H 0.88129 0.83569 0.81466 0.0
H2035 H 0.87778 0.85302 0.92451 0.0
H2036 H 0.91933 0.91435 0.85818 0.0
H2037 H 0.90099 0.89918 0.84995 0.0
C2038 C 0.92946 0.11358 0.58046 0.0
C2039 C 0.93087 0.10204 0.60122 0.0
C2040 C 0.91866 0.12189 0.58578 0.0
C2041 C 0.89517 0.13157 0.65667 0.0
H2042 H 0.87686 0.14887 0.5773 0.0
C2043 C 0.8634 0.17852 0.67447 0.0
C2044 C 0.85171 0.1794 0.65417 0.0
C2045 C 0.87197 0.16789 0.6696 0.0
C2046 C 0.88179 0.14403 0.59978 0.0
H2047 H 0.92175 0.08996 0.64296 0.0
H2048 H 0.90295 0.1045 0.65225 0.0
H2049 H 0.89364 0.13238 0.56377 0.0
H2050 H 0.83961 0.16949 0.61388 0.0
H2051 H 0.85458 0.15099 0.60539 0.0
H2052 H 0.88347 0.14338 0.69266 0.0
C2053 C 0.91025 0.10714 0.63203 0.0
C2054 C 0.89148 0.13467 0.59201 0.0
C2055 C 0.92098 0.09877 0.62647 0.0
C2056 C 0.84854 0.16914 0.62998 0.0
C2057 C 0.85716 0.15858 0.62487 0.0
C2058 C 0.88558 0.14104 0.66444 0.0
C2059 C 0.90909 0.11892 0.61222 0.0
C2060 C 0.89833 0.12838 0.62036 0.0
C2061 C 0.86909 0.15796 0.64408 0.0
C2062 C 0.87883 0.14742 0.63607 0.0
H2063 H 0.93691 0.1164 0.56084 0.0
H2064 H 0.91809 0.13093 0.57023 0.0
H2065 H 0.90036 0.12699 0.67913 0.0
H2066 H 0.86616 0.18626 0.69327 0.0
H2067 H 0.88113 0.16773 0.68467 0.0
C2068 C 0.65244 0.17177 0.36915 0.0
C2069 C 0.6492 0.18232 0.34601 0.0
C2070 C 0.64364 0.16138 0.3745 0.0
C2071 C 0.625 0.13781 0.37062 0.0
H2072 H 0.58858 0.14819 0.38277 0.0
C2073 C 0.5818 0.10067 0.38161 0.0
C2074 C 0.57124 0.10388 0.40474 0.0
C2075 C 0.59213 0.10954 0.37615 0.0
C2076 C 0.59872 0.14512 0.37983 0.0
H2077 H 0.63443 0.18982 0.30877 0.0
H2078 H 0.61916 0.17161 0.31769 0.0
H2079 H 0.60499 0.16469 0.36747 0.0
H2080 H 0.56365 0.11867 0.44182 0.0
H2081 H 0.58174 0.13405 0.4327 0.0
H2082 H 0.6187 0.11824 0.38359 0.0
C2083 C 0.62841 0.1715 0.33227 0.0
C2084 C 0.60811 0.15457 0.37047 0.0
C2085 C 0.63723 0.18189 0.32689 0.0
C2086 C 0.57159 0.11589 0.42371 0.0
C2087 C 0.58191 0.12477 0.41822 0.0
C2088 C 0.61557 0.12834 0.37988 0.0
C2089 C 0.63136 0.16129 0.35686 0.0
C2090 C 0.62137 0.15105 0.36572 0.0
C2091 C 0.59214 0.12185 0.39365 0.0
C2092 C 0.60232 0.13189 0.3847 0.0
H2093 H 0.66157 0.17179 0.38436 0.0
H2094 H 0.64621 0.15373 0.39376 0.0
H2095 H 0.63511 0.13475 0.367 0.0
H2096 H 0.58184 0.09151 0.36652 0.0
H2097 H 0.5998 0.10699 0.35691 0.0
C2098 C 0.5828 0.90429 0.11719 0.0
C2099 C 0.57253 0.90106 0.09312 0.0
C2100 C 0.59338 0.89569 0.12231 0.0
C2101 C 0.6107 0.86701 0.08272 0.0
H2102 H 0.62019 0.85961 0.18317 0.0
C2103 C 0.6526 0.83102 0.11873 0.0
C2104 C 0.64954 0.8215 0.14522 0.0
C2105 C 0.64441 0.84192 0.11342 0.0
C2106 C 0.61766 0.86158 0.15499 0.0
H2107 H 0.56564 0.88651 0.05432 0.0
H2108 H 0.58414 0.87156 0.06304 0.0
H2109 H 0.60368 0.87639 0.16989 0.0
H2110 H 0.6358 0.8163 0.18809 0.0
H2111 H 0.62157 0.83536 0.179 0.0
H2112 H 0.62444 0.85198 0.06786 0.0
C2113 C 0.58402 0.88075 0.07796 0.0
C2114 C 0.60829 0.87127 0.14734 0.0
C2115 C 0.57339 0.88932 0.07302 0.0
C2116 C 0.63845 0.82346 0.16749 0.0
C2117 C 0.63031 0.83441 0.16233 0.0
C2118 C 0.62013 0.85738 0.09036 0.0
C2119 C 0.59399 0.8837 0.10327 0.0
C2120 C 0.60459 0.874 0.11113 0.0
C2121 C 0.63302 0.84359 0.13464 0.0
C2122 C 0.62363 0.85445 0.1266 0.0
H2123 H 0.58247 0.91326 0.13311 0.0
H2124 H 0.601 0.89834 0.14161 0.0
H2125 H 0.60813 0.86893 0.05455 0.0
H2126 H 0.66106 0.82984 0.10111 0.0
H2127 H 0.64689 0.84892 0.09224 0.0
C2128 C 0.58222 0.59959 0.61822 0.0
C2129 C 0.57202 0.60272 0.5938 0.0
C2130 C 0.59281 0.60818 0.62319 0.0
C2131 C 0.6105 0.63637 0.58261 0.0
H2132 H 0.61962 0.6445 0.6829 0.0
C2133 C 0.63909 0.67985 0.66594 0.0
C2134 C 0.65054 0.68107 0.64473 0.0
C2135 C 0.6305 0.66926 0.66066 0.0
C2136 C 0.61719 0.64234 0.65476 0.0
H2137 H 0.56528 0.61707 0.55426 0.0
H2138 H 0.58383 0.632 0.56267 0.0
H2139 H 0.6029 0.62789 0.67009 0.0
H2140 H 0.66215 0.67185 0.60213 0.0
H2141 H 0.64716 0.65342 0.59296 0.0
H2142 H 0.62462 0.65099 0.5673 0.0
C2143 C 0.58362 0.6229 0.57801 0.0
C2144 C 0.6077 0.63273 0.6474 0.0
C2145 C 0.57297 0.61435 0.57324 0.0
C2146 C 0.65341 0.67123 0.61895 0.0
C2147 C 0.64478 0.66071 0.61347 0.0
C2148 C 0.62008 0.64589 0.58997 0.0
C2149 C 0.59351 0.62005 0.60364 0.0
C2150 C 0.60415 0.62973 0.61124 0.0
C2151 C 0.63312 0.6597 0.63386 0.0
C2152 C 0.62344 0.64908 0.62614 0.0
H2153 H 0.58181 0.59071 0.6345 0.0
H2154 H 0.60036 0.60562 0.64277 0.0
H2155 H 0.60804 0.63423 0.55448 0.0
H2156 H 0.63656 0.68726 0.68597 0.0
H2157 H 0.62156 0.66882 0.67666 0.0
C2158 C 0.58141 0.40391 0.87368 0.0
C2159 C 0.57147 0.40082 0.89895 0.0
C2160 C 0.59207 0.39543 0.86844 0.0
C2161 C 0.61037 0.36757 0.90899 0.0
H2162 H 0.61883 0.35918 0.80842 0.0
C2163 C 0.63829 0.32374 0.82559 0.0
C2164 C 0.64969 0.32237 0.84695 0.0
C2165 C 0.6299 0.33451 0.83054 0.0
C2166 C 0.61659 0.36142 0.83663 0.0
H2167 H 0.56528 0.38667 0.93974 0.0
H2168 H 0.58396 0.37193 0.9308 0.0
H2169 H 0.60211 0.37573 0.82174 0.0
H2170 H 0.66149 0.33158 0.88914 0.0
H2171 H 0.64688 0.35034 0.89763 0.0
H2172 H 0.62464 0.35305 0.92389 0.0
C2173 C 0.58349 0.38092 0.91503 0.0
C2174 C 0.6071 0.37099 0.84429 0.0
C2175 C 0.57277 0.38936 0.92011 0.0
C2176 C 0.65279 0.3323 0.87225 0.0
C2177 C 0.64436 0.34301 0.87735 0.0
C2178 C 0.61994 0.35807 0.90134 0.0
C2179 C 0.59311 0.3837 0.88853 0.0
C2180 C 0.60378 0.37409 0.88057 0.0
C2181 C 0.63267 0.3441 0.85712 0.0
C2182 C 0.62307 0.35479 0.86506 0.0
H2183 H 0.58073 0.41266 0.85693 0.0
H2184 H 0.59941 0.39795 0.84822 0.0
H2185 H 0.6081 0.36979 0.93721 0.0
H2186 H 0.6356 0.31626 0.80593 0.0
H2187 H 0.62094 0.33501 0.81464 0.0
C2188 C 0.85095 0.33177 0.13937 0.0
C2189 C 0.85451 0.32104 0.16147 0.0
C2190 C 0.8596 0.34231 0.13424 0.0
C2191 C 0.89512 0.34924 0.13629 0.0
H2192 H 0.88433 0.3856 0.12539 0.0
C2193 C 0.92129 0.40319 0.12593 0.0
C2194 C 0.93172 0.40005 0.10227 0.0
C2195 C 0.91096 0.39432 0.13147 0.0
C2196 C 0.88751 0.37549 0.12847 0.0
H2197 H 0.86964 0.31337 0.19733 0.0
H2198 H 0.88462 0.33183 0.18887 0.0
H2199 H 0.8681 0.36895 0.14235 0.0
H2200 H 0.93904 0.38545 0.0642 0.0
H2201 H 0.92093 0.3701 0.07341 0.0
H2202 H 0.91452 0.35573 0.12305 0.0
C2203 C 0.87525 0.33198 0.17485 0.0
C2204 C 0.87819 0.36594 0.13796 0.0
C2205 C 0.8666 0.32144 0.17998 0.0
C2206 C 0.9312 0.38816 0.08276 0.0
C2207 C 0.92088 0.3793 0.08829 0.0
C2208 C 0.9044 0.35875 0.12674 0.0
C2209 C 0.87202 0.34235 0.15109 0.0
C2210 C 0.88189 0.35269 0.14207 0.0
C2211 C 0.91082 0.38211 0.11348 0.0
C2212 C 0.90073 0.372 0.12265 0.0
H2213 H 0.84171 0.33177 0.12466 0.0
H2214 H 0.85681 0.35009 0.11563 0.0
H2215 H 0.8983 0.33911 0.13864 0.0
H2216 H 0.92138 0.41226 0.14144 0.0
H2217 H 0.90342 0.39679 0.15118 0.0
C2218 C 0.9291 0.61556 0.42096 0.0
C2219 C 0.93026 0.60397 0.40025 0.0
C2220 C 0.91825 0.62387 0.41651 0.0
C2221 C 0.89398 0.63331 0.34735 0.0
H2222 H 0.87703 0.65155 0.42746 0.0
C2223 C 0.84849 0.67213 0.37581 0.0
C2224 C 0.85152 0.68195 0.35015 0.0
C2225 C 0.85698 0.66148 0.38123 0.0
C2226 C 0.88157 0.64644 0.40479 0.0
H2227 H 0.92062 0.59178 0.35968 0.0
H2228 H 0.90172 0.60629 0.35195 0.0
H2229 H 0.89368 0.63485 0.44027 0.0
H2230 H 0.86561 0.68799 0.30903 0.0
H2231 H 0.88035 0.66934 0.31823 0.0
H2232 H 0.88202 0.64503 0.31186 0.0
C2233 C 0.90926 0.60899 0.37141 0.0
C2234 C 0.89119 0.63696 0.41214 0.0
C2235 C 0.92006 0.60063 0.37607 0.0
C2236 C 0.86297 0.68059 0.32898 0.0
C2237 C 0.8714 0.66988 0.33418 0.0
C2238 C 0.88446 0.64287 0.34 0.0
C2239 C 0.90836 0.62083 0.39103 0.0
C2240 C 0.89757 0.63035 0.38349 0.0
C2241 C 0.86864 0.66034 0.36088 0.0
C2242 C 0.87821 0.64962 0.36862 0.0
H2243 H 0.93679 0.61844 0.43978 0.0
H2244 H 0.91789 0.63296 0.43189 0.0
H2245 H 0.89881 0.62849 0.32464 0.0
H2246 H 0.83976 0.67287 0.39261 0.0
H2247 H 0.8545 0.6542 0.40168 0.0
C2248 C 0.36565 0.32176 0.32577 0.0
C2249 C 0.35454 0.31968 0.34782 0.0
C2250 C 0.37364 0.3328 0.33103 0.0
C2251 C 0.38329 0.35609 0.40294 0.0
H2252 H 0.40002 0.3748 0.32338 0.0
C2253 C 0.42096 0.4027 0.375 0.0
C2254 C 0.4311 0.39958 0.39959 0.0
C2255 C 0.41029 0.3942 0.37021 0.0
C2256 C 0.39533 0.36979 0.34595 0.0
H2257 H 0.34279 0.3279 0.39165 0.0
H2258 H 0.35669 0.34718 0.40066 0.0
H2259 H 0.38363 0.35795 0.31008 0.0
H2260 H 0.43763 0.38535 0.43977 0.0
H2261 H 0.41899 0.37055 0.43153 0.0
H2262 H 0.39508 0.36783 0.4388 0.0
C2263 C 0.35932 0.34019 0.37959 0.0
C2264 C 0.38603 0.36003 0.33828 0.0
C2265 C 0.35129 0.32918 0.3742 0.0
C2266 C 0.42998 0.38808 0.42064 0.0
C2267 C 0.41927 0.37959 0.41597 0.0
C2268 C 0.39265 0.36579 0.4106 0.0
C2269 C 0.37074 0.34199 0.35859 0.0
C2270 C 0.37998 0.35298 0.36667 0.0
C2271 C 0.40946 0.38239 0.39004 0.0
C2272 C 0.39887 0.37268 0.38219 0.0
H2273 H 0.36846 0.31462 0.30526 0.0
H2274 H 0.38241 0.33384 0.31453 0.0
H2275 H 0.37892 0.35075 0.42546 0.0
H2276 H 0.42148 0.41149 0.35838 0.0
H2277 H 0.40279 0.39675 0.35045 0.0
C2278 C 0.36533 0.67911 0.17722 0.0
C2279 C 0.35343 0.67979 0.15778 0.0
C2280 C 0.37384 0.66842 0.17252 0.0
C2281 C 0.38282 0.64395 0.10341 0.0
H2282 H 0.40292 0.62804 0.18167 0.0
C2283 C 0.42337 0.59979 0.12913 0.0
C2284 C 0.43276 0.60297 0.10237 0.0
C2285 C 0.41252 0.60795 0.13517 0.0
C2286 C 0.39729 0.63229 0.15953 0.0
H2287 H 0.34087 0.66942 0.11953 0.0
H2288 H 0.35571 0.65081 0.11143 0.0
H2289 H 0.386 0.64431 0.196 0.0
H2290 H 0.43774 0.6169 0.05978 0.0
H2291 H 0.41871 0.63106 0.07005 0.0
H2292 H 0.39425 0.63209 0.06689 0.0
C2293 C 0.35851 0.65861 0.13 0.0
C2294 C 0.38768 0.64169 0.16774 0.0
C2295 C 0.34996 0.66924 0.1349 0.0
C2296 C 0.43069 0.61415 0.08056 0.0
C2297 C 0.41977 0.62226 0.08641 0.0
C2298 C 0.39251 0.63464 0.09518 0.0
C2299 C 0.37069 0.65823 0.14808 0.0
C2300 C 0.38039 0.64769 0.13975 0.0
C2301 C 0.41073 0.61942 0.11439 0.0
C2302 C 0.39992 0.62877 0.12312 0.0
H2303 H 0.36831 0.68708 0.195 0.0
H2304 H 0.38318 0.66845 0.18673 0.0
H2305 H 0.37747 0.64849 0.08117 0.0
H2306 H 0.42466 0.59125 0.14644 0.0
H2307 H 0.40564 0.6054 0.15658 0.0
C2308 C 0.0815 0.59852 0.8692 0.0
C2309 C 0.07184 0.60179 0.8951 0.0
C2310 C 0.09218 0.60689 0.86293 0.0
C2311 C 0.10705 0.63136 0.83747 0.0
H2312 H 0.1261 0.64846 0.91583 0.0
C2313 C 0.13858 0.67849 0.81904 0.0
C2314 C 0.15038 0.67935 0.83885 0.0
C2315 C 0.13013 0.66775 0.82383 0.0
C2316 C 0.12096 0.64368 0.89361 0.0
H2317 H 0.06614 0.61615 0.9359 0.0
H2318 H 0.08488 0.63067 0.92533 0.0
H2319 H 0.10943 0.63197 0.93024 0.0
H2320 H 0.16286 0.66925 0.87788 0.0
H2321 H 0.14812 0.65058 0.88618 0.0
H2322 H 0.11843 0.64325 0.80087 0.0
C2323 C 0.08417 0.62163 0.90978 0.0
C2324 C 0.11134 0.63432 0.9019 0.0
C2325 C 0.07342 0.61332 0.91579 0.0
C2326 C 0.15384 0.66893 0.86221 0.0
C2327 C 0.14535 0.65827 0.86722 0.0
C2328 C 0.11658 0.64083 0.82919 0.0
C2329 C 0.09351 0.61866 0.8827 0.0
C2330 C 0.10422 0.62811 0.87394 0.0
C2331 C 0.13326 0.6577 0.84875 0.0
C2332 C 0.1236 0.64714 0.85718 0.0
H2333 H 0.08059 0.58972 0.85273 0.0
H2334 H 0.0993 0.60425 0.84222 0.0
H2335 H 0.10164 0.62684 0.81531 0.0
H2336 H 0.13561 0.68635 0.80088 0.0
H2337 H 0.12086 0.66763 0.8093 0.0
C2338 C 0.07356 0.39047 0.57894 0.0
C2339 C 0.07287 0.40219 0.59921 0.0
C2340 C 0.08403 0.38171 0.58387 0.0
C2341 C 0.11058 0.36767 0.58856 0.0
H2342 H 0.11978 0.35974 0.6889 0.0
C2343 C 0.15253 0.33173 0.6241 0.0
C2344 C 0.14945 0.322 0.65 0.0
C2345 C 0.14428 0.34258 0.61908 0.0
C2346 C 0.11733 0.36185 0.66075 0.0
H2347 H 0.08294 0.41412 0.63958 0.0
H2348 H 0.10119 0.39885 0.64809 0.0
H2349 H 0.10339 0.37667 0.67592 0.0
H2350 H 0.13557 0.31639 0.69213 0.0
H2351 H 0.12122 0.3354 0.68356 0.0
H2352 H 0.12432 0.35268 0.5734 0.0
C2353 C 0.09356 0.39638 0.62863 0.0
C2354 C 0.10803 0.37163 0.65328 0.0
C2355 C 0.08315 0.40518 0.62351 0.0
C2356 C 0.13825 0.32371 0.67199 0.0
C2357 C 0.13004 0.33462 0.66713 0.0
C2358 C 0.11996 0.35798 0.59601 0.0
C2359 C 0.094 0.38443 0.60937 0.0
C2360 C 0.10445 0.37457 0.6171 0.0
C2361 C 0.13279 0.34402 0.64 0.0
C2362 C 0.12336 0.35486 0.63221 0.0
H2363 H 0.06579 0.38785 0.56007 0.0
H2364 H 0.08403 0.37256 0.56876 0.0
H2365 H 0.10811 0.36976 0.5604 0.0
H2366 H 0.16108 0.33075 0.60671 0.0
H2367 H 0.14678 0.34975 0.59835 0.0
loop_
_geom_bond_atom_site_label_1
_geom_bond_atom_site_label_2
_geom_bond_distance
_geom_bond_site_symmetry_2
_ccdc_geom_bond_type
O0 Cd1 2.223 . S
O0 C8 1.315 . S
Cd1 O0 2.223 . S
Cd1 O4 2.297 . S
Cd1 O5 2.439 . S
Cd1 O11 2.240 . S
Cd2 O3 2.240 . S
Cd2 O10 2.223 . S
Cd2 O12 2.297 1_554 S
Cd2 O13 2.439 1_554 S
O3 Cd2 2.240 . S
O3 C8 1.279 . S
O4 Cd1 2.297 . S
O4 C6 1.247 . S
O5 Cd1 2.439 . S
O5 C6 1.208 . S
C6 O4 1.247 . S
C6 O5 1.208 . S
C7 O12 1.247 . S
C7 O13 1.208 . S
C8 O0 1.315 . S
C8 O3 1.279 . S
C9 O10 1.315 . S
C9 O11 1.279 . S
O10 Cd2 2.223 . S
O10 C9 1.315 . S
O11 Cd1 2.240 . S
O11 C9 1.279 . S
O12 Cd2 2.297 1_556 S
O12 C7 1.247 . S
O13 Cd2 2.439 1_556 S
O13 C7 1.208 . S
O14 Cd15 2.223 . S
O14 C22 1.315 . S
Cd15 O14 2.223 . S
Cd15 O18 2.297 . S
Cd15 O19 2.439 . S
Cd15 O25 2.240 . S
Cd16 O17 2.240 . S
Cd16 O24 2.223 . S
Cd16 O26 2.297 . S
Cd16 O27 2.439 . S
O17 Cd16 2.240 . S
O17 C22 1.279 . S
O18 Cd15 2.297 . S
O18 C20 1.247 . S
O19 Cd15 2.439 . S
O19 C20 1.208 . S
C20 O18 1.247 . S
C20 O19 1.208 . S
C21 O26 1.247 . S
C21 O27 1.208 . S
C22 O14 1.315 . S
C22 O17 1.279 . S
C23 O24 1.315 . S
C23 O25 1.279 . S
O24 Cd16 2.223 . S
O24 C23 1.315 . S
O25 Cd15 2.240 . S
O25 C23 1.279 . S
O26 Cd16 2.297 . S
O26 C21 1.247 . S
O27 Cd16 2.439 . S
O27 C21 1.208 . S
O28 Cd29 2.223 . S
O28 C36 1.315 . S
Cd29 O28 2.223 . S
Cd29 O32 2.297 . S
Cd29 O33 2.439 . S
Cd29 O39 2.240 . S
Cd30 O31 2.240 . S
Cd30 O38 2.223 . S
Cd30 O40 2.297 . S
Cd30 O41 2.439 . S
O31 Cd30 2.240 . S
O31 C36 1.279 . S
O32 Cd29 2.297 . S
O32 C34 1.247 . S
O33 Cd29 2.439 . S
O33 C34 1.208 . S
C34 O32 1.247 . S
C34 O33 1.208 . S
C35 O40 1.247 . S
C35 O41 1.208 . S
C36 O28 1.315 . S
C36 O31 1.279 . S
C37 O38 1.315 . S
C37 O39 1.279 . S
O38 Cd30 2.223 . S
O38 C37 1.315 . S
O39 Cd29 2.240 . S
O39 C37 1.279 . S
O40 Cd30 2.297 . S
O40 C35 1.247 . S
O41 Cd30 2.439 . S
O41 C35 1.208 . S
O42 Cd43 2.223 . S
O42 C50 1.315 . S
Cd43 O42 2.223 . S
Cd43 O46 2.297 . S
Cd43 O47 2.439 . S
Cd43 O53 2.240 . S
Cd44 O45 2.240 . S
Cd44 O52 2.223 . S
Cd44 O54 2.297 . S
Cd44 O55 2.439 . S
O45 Cd44 2.240 . S
O45 C50 1.279 . S
O46 Cd43 2.297 . S
O46 C48 1.247 . S
O47 Cd43 2.439 . S
O47 C48 1.208 . S
C48 O46 1.247 . S
C48 O47 1.208 . S
C49 O54 1.247 . S
C49 O55 1.208 . S
C50 O42 1.315 . S
C50 O45 1.279 . S
C51 O52 1.315 . S
C51 O53 1.279 . S
O52 Cd44 2.223 . S
O52 C51 1.315 . S
O53 Cd43 2.240 . S
O53 C51 1.279 . S
O54 Cd44 2.297 . S
O54 C49 1.247 . S
O55 Cd44 2.439 . S
O55 C49 1.208 . S
O56 Cd57 2.223 . S
O56 C64 1.315 . S
Cd57 O56 2.223 . S
Cd57 O60 2.297 . S
Cd57 O61 2.439 . S
Cd57 O67 2.240 . S
Cd58 O59 2.240 . S
Cd58 O66 2.223 . S
Cd58 O68 2.297 . S
Cd58 O69 2.439 . S
O59 Cd58 2.240 . S
O59 C64 1.279 . S
O60 Cd57 2.297 . S
O60 C62 1.247 . S
O61 Cd57 2.439 . S
O61 C62 1.208 . S
C62 O60 1.247 . S
C62 O61 1.208 . S
C63 O68 1.247 . S
C63 O69 1.208 . S
C64 O56 1.315 . S
C64 O59 1.279 . S
C65 O66 1.315 . S
C65 O67 1.279 . S
O66 Cd58 2.223 . S
O66 C65 1.315 . S
O67 Cd57 2.240 . S
O67 C65 1.279 . S
O68 Cd58 2.297 . S
O68 C63 1.247 . S
O69 Cd58 2.439 . S
O69 C63 1.208 . S
O70 Cd71 2.223 . S
O70 C78 1.315 . S
Cd71 O70 2.223 . S
Cd71 O74 2.297 . S
Cd71 O75 2.439 . S
Cd71 O81 2.240 . S
Cd72 O73 2.240 . S
Cd72 O80 2.223 . S
Cd72 O82 2.297 . S
Cd72 O83 2.439 . S
O73 Cd72 2.240 . S
O73 C78 1.279 . S
O74 Cd71 2.297 . S
O74 C76 1.247 . S
O75 Cd71 2.439 . S
O75 C76 1.208 . S
C76 O74 1.247 . S
C76 O75 1.208 . S
C77 O82 1.247 . S
C77 O83 1.208 . S
C78 O70 1.315 . S
C78 O73 1.279 . S
C79 O80 1.315 . S
C79 O81 1.279 . S
O80 Cd72 2.223 . S
O80 C79 1.315 . S
O81 Cd71 2.240 . S
O81 C79 1.279 . S
O82 Cd72 2.297 . S
O82 C77 1.247 . S
O83 Cd72 2.439 . S
O83 C77 1.208 . S
O84 Cd85 2.223 . S
O84 C92 1.315 . S
Cd85 O84 2.223 . S
Cd85 O88 2.297 . S
Cd85 O89 2.439 . S
Cd85 O95 2.240 . S
Cd86 O87 2.240 . S
Cd86 O94 2.223 . S
Cd86 O96 2.297 1_556 S
Cd86 O97 2.439 1_556 S
O87 Cd86 2.240 . S
O87 C92 1.279 . S
O88 Cd85 2.297 . S
O88 C90 1.247 . S
O89 Cd85 2.439 . S
O89 C90 1.208 . S
C90 O88 1.247 . S
C90 O89 1.208 . S
C91 O96 1.247 . S
C91 O97 1.208 . S
C92 O84 1.315 . S
C92 O87 1.279 . S
C93 O94 1.315 . S
C93 O95 1.279 . S
O94 Cd86 2.223 . S
O94 C93 1.315 . S
O95 Cd85 2.240 . S
O95 C93 1.279 . S
O96 Cd86 2.297 1_554 S
O96 C91 1.247 . S
O97 Cd86 2.439 1_554 S
O97 C91 1.208 . S
O98 Cd99 2.223 . S
O98 C106 1.315 . S
Cd99 O98 2.223 . S
Cd99 O102 2.297 . S
Cd99 O103 2.439 . S
Cd99 O109 2.240 . S
Cd100 O101 2.240 . S
Cd100 O108 2.223 . S
Cd100 O110 2.297 . S
Cd100 O111 2.439 . S
O101 Cd100 2.240 . S
O101 C106 1.279 . S
O102 Cd99 2.297 . S
O102 C104 1.247 . S
O103 Cd99 2.439 . S
O103 C104 1.208 . S
C104 O102 1.247 . S
C104 O103 1.208 . S
C105 O110 1.247 . S
C105 O111 1.208 . S
C106 O98 1.315 . S
C106 O101 1.279 . S
C107 O108 1.315 . S
C107 O109 1.279 . S
O108 Cd100 2.223 . S
O108 C107 1.315 . S
O109 Cd99 2.240 . S
O109 C107 1.279 . S
O110 Cd100 2.297 . S
O110 C105 1.247 . S
O111 Cd100 2.439 . S
O111 C105 1.208 . S
O112 Cd113 2.223 . S
O112 C120 1.315 . S
Cd113 O112 2.223 . S
Cd113 O116 2.297 . S
Cd113 O117 2.439 . S
Cd113 O123 2.240 . S
Cd114 O115 2.240 . S
Cd114 O122 2.223 . S
Cd114 O124 2.297 1_556 S
Cd114 O125 2.439 1_556 S
O115 Cd114 2.240 . S
O115 C120 1.279 . S
O116 Cd113 2.297 . S
O116 C118 1.247 . S
O117 Cd113 2.439 . S
O117 C118 1.208 . S
C118 O116 1.247 . S
C118 O117 1.208 . S
C119 O124 1.247 . S
C119 O125 1.208 . S
C120 O112 1.315 . S
C120 O115 1.279 . S
C121 O122 1.315 . S
C121 O123 1.279 . S
O122 Cd114 2.223 . S
O122 C121 1.315 . S
O123 Cd113 2.240 . S
O123 C121 1.279 . S
O124 Cd114 2.297 1_554 S
O124 C119 1.247 . S
O125 Cd114 2.439 1_554 S
O125 C119 1.208 . S
O126 Cd127 2.223 . S
O126 C134 1.315 . S
Cd127 O126 2.223 . S
Cd127 O130 2.297 . S
Cd127 O131 2.439 . S
Cd127 O137 2.240 . S
Cd128 O129 2.240 . S
Cd128 O136 2.223 . S
Cd128 O138 2.297 . S
Cd128 O139 2.439 . S
O129 Cd128 2.240 . S
O129 C134 1.279 . S
O130 Cd127 2.297 . S
O130 C132 1.247 . S
O131 Cd127 2.439 . S
O131 C132 1.208 . S
C132 O130 1.247 . S
C132 O131 1.208 . S
C133 O138 1.247 . S
C133 O139 1.208 . S
C134 O126 1.315 . S
C134 O129 1.279 . S
C135 O136 1.315 . S
C135 O137 1.279 . S
O136 Cd128 2.223 . S
O136 C135 1.315 . S
O137 Cd127 2.240 . S
O137 C135 1.279 . S
O138 Cd128 2.297 . S
O138 C133 1.247 . S
O139 Cd128 2.439 . S
O139 C133 1.208 . S
O140 Cd141 2.223 . S
O140 C148 1.315 . S
Cd141 O140 2.223 . S
Cd141 O144 2.297 . S
Cd141 O145 2.439 . S
Cd141 O151 2.240 . S
Cd142 O143 2.240 . S
Cd142 O150 2.223 . S
Cd142 O152 2.297 . S
Cd142 O153 2.439 . S
O143 Cd142 2.240 . S
O143 C148 1.279 . S
O144 Cd141 2.297 . S
O144 C146 1.247 . S
O145 Cd141 2.439 . S
O145 C146 1.208 . S
C146 O144 1.247 . S
C146 O145 1.208 . S
C147 O152 1.247 . S
C147 O153 1.208 . S
C148 O140 1.315 . S
C148 O143 1.279 . S
C149 O150 1.315 . S
C149 O151 1.279 . S
O150 Cd142 2.223 . S
O150 C149 1.315 . S
O151 Cd141 2.240 . S
O151 C149 1.279 . S
O152 Cd142 2.297 . S
O152 C147 1.247 . S
O153 Cd142 2.439 . S
O153 C147 1.208 . S
O154 Cd155 2.223 . S
O154 C162 1.315 . S
Cd155 O154 2.223 . S
Cd155 O158 2.297 . S
Cd155 O159 2.439 . S
Cd155 O165 2.240 . S
Cd156 O157 2.240 . S
Cd156 O164 2.223 . S
Cd156 O166 2.297 . S
Cd156 O167 2.439 . S
O157 Cd156 2.240 . S
O157 C162 1.279 . S
O158 Cd155 2.297 . S
O158 C160 1.247 . S
O159 Cd155 2.439 . S
O159 C160 1.208 . S
C160 O158 1.247 . S
C160 O159 1.208 . S
C161 O166 1.247 . S
C161 O167 1.208 . S
C162 O154 1.315 . S
C162 O157 1.279 . S
C163 O164 1.315 . S
C163 O165 1.279 . S
O164 Cd156 2.223 . S
O164 C163 1.315 . S
O165 Cd155 2.240 . S
O165 C163 1.279 . S
O166 Cd156 2.297 . S
O166 C161 1.247 . S
O167 Cd156 2.439 . S
O167 C161 1.208 . S
O168 Cd169 2.223 . S
O168 C176 1.315 . S
Cd169 O168 2.223 . S
Cd169 O172 2.297 . S
Cd169 O173 2.439 . S
Cd169 O179 2.240 . S
Cd170 O171 2.240 . S
Cd170 O178 2.223 . S
Cd170 O180 2.297 . S
Cd170 O181 2.439 . S
O171 Cd170 2.240 . S
O171 C176 1.279 . S
O172 Cd169 2.297 . S
O172 C174 1.247 . S
O173 Cd169 2.439 . S
O173 C174 1.208 . S
C174 O172 1.247 . S
C174 O173 1.208 . S
C175 O180 1.247 . S
C175 O181 1.208 . S
C176 O168 1.315 . S
C176 O171 1.279 . S
C177 O178 1.315 . S
C177 O179 1.279 . S
O178 Cd170 2.223 . S
O178 C177 1.315 . S
O179 Cd169 2.240 . S
O179 C177 1.279 . S
O180 Cd170 2.297 . S
O180 C175 1.247 . S
O181 Cd170 2.439 . S
O181 C175 1.208 . S
O182 Cd183 2.223 . S
O182 C190 1.315 . S
Cd183 O182 2.223 . S
Cd183 O186 2.297 . S
Cd183 O187 2.439 . S
Cd183 O193 2.240 . S
Cd184 O185 2.240 . S
Cd184 O192 2.223 . S
Cd184 O194 2.297 . S
Cd184 O195 2.439 . S
O185 Cd184 2.240 . S
O185 C190 1.279 . S
O186 Cd183 2.297 . S
O186 C188 1.247 . S
O187 Cd183 2.439 . S
O187 C188 1.208 . S
C188 O186 1.247 . S
C188 O187 1.208 . S
C189 O194 1.247 . S
C189 O195 1.208 . S
C190 O182 1.315 . S
C190 O185 1.279 . S
C191 O192 1.315 . S
C191 O193 1.279 . S
O192 Cd184 2.223 . S
O192 C191 1.315 . S
O193 Cd183 2.240 . S
O193 C191 1.279 . S
O194 Cd184 2.297 . S
O194 C189 1.247 . S
O195 Cd184 2.439 . S
O195 C189 1.208 . S
O196 Cd197 2.223 . S
O196 C204 1.315 . S
Cd197 O196 2.223 . S
Cd197 O200 2.297 . S
Cd197 O201 2.439 . S
Cd197 O207 2.240 . S
Cd198 O199 2.240 . S
Cd198 O206 2.223 . S
Cd198 O208 2.297 1_554 S
Cd198 O209 2.439 1_554 S
O199 Cd198 2.240 . S
O199 C204 1.279 . S
O200 Cd197 2.297 . S
O200 C202 1.247 . S
O201 Cd197 2.439 . S
O201 C202 1.208 . S
C202 O200 1.247 . S
C202 O201 1.208 . S
C203 O208 1.247 . S
C203 O209 1.208 . S
C204 O196 1.315 . S
C204 O199 1.279 . S
C205 O206 1.315 . S
C205 O207 1.279 . S
O206 Cd198 2.223 . S
O206 C205 1.315 . S
O207 Cd197 2.240 . S
O207 C205 1.279 . S
O208 Cd198 2.297 1_556 S
O208 C203 1.247 . S
O209 Cd198 2.439 1_556 S
O209 C203 1.208 . S
O210 Cd211 2.223 . S
O210 C218 1.315 . S
Cd211 O210 2.223 . S
Cd211 O214 2.297 . S
Cd211 O215 2.439 . S
Cd211 O221 2.240 . S
Cd212 O213 2.240 . S
Cd212 O220 2.223 . S
Cd212 O222 2.297 . S
Cd212 O223 2.439 . S
O213 Cd212 2.240 . S
O213 C218 1.279 . S
O214 Cd211 2.297 . S
O214 C216 1.247 . S
O215 Cd211 2.439 . S
O215 C216 1.208 . S
C216 O214 1.247 . S
C216 O215 1.208 . S
C217 O222 1.247 . S
C217 O223 1.208 . S
C218 O210 1.315 . S
C218 O213 1.279 . S
C219 O220 1.315 . S
C219 O221 1.279 . S
O220 Cd212 2.223 . S
O220 C219 1.315 . S
O221 Cd211 2.240 . S
O221 C219 1.279 . S
O222 Cd212 2.297 . S
O222 C217 1.247 . S
O223 Cd212 2.439 . S
O223 C217 1.208 . S
O224 Cd225 2.223 . S
O224 C232 1.315 . S
Cd225 O224 2.223 . S
Cd225 O228 2.297 . S
Cd225 O229 2.439 . S
Cd225 O235 2.240 . S
Cd226 O227 2.240 . S
Cd226 O234 2.223 . S
Cd226 O236 2.297 . S
Cd226 O237 2.439 . S
O227 Cd226 2.240 . S
O227 C232 1.279 . S
O228 Cd225 2.297 . S
O228 C230 1.247 . S
O229 Cd225 2.439 . S
O229 C230 1.208 . S
C230 O228 1.247 . S
C230 O229 1.208 . S
C231 O236 1.247 . S
C231 O237 1.208 . S
C232 O224 1.315 . S
C232 O227 1.279 . S
C233 O234 1.315 . S
C233 O235 1.279 . S
O234 Cd226 2.223 . S
O234 C233 1.315 . S
O235 Cd225 2.240 . S
O235 C233 1.279 . S
O236 Cd226 2.297 . S
O236 C231 1.247 . S
O237 Cd226 2.439 . S
O237 C231 1.208 . S
O238 Cd239 2.223 . S
O238 C246 1.315 . S
Cd239 O238 2.223 . S
Cd239 O242 2.297 . S
Cd239 O243 2.439 . S
Cd239 O249 2.240 . S
Cd240 O241 2.240 . S
Cd240 O248 2.223 . S
Cd240 O250 2.297 . S
Cd240 O251 2.439 . S
O241 Cd240 2.240 . S
O241 C246 1.279 . S
O242 Cd239 2.297 . S
O242 C244 1.247 . S
O243 Cd239 2.439 . S
O243 C244 1.208 . S
C244 O242 1.247 . S
C244 O243 1.208 . S
C245 O250 1.247 . S
C245 O251 1.208 . S
C246 O238 1.315 . S
C246 O241 1.279 . S
C247 O248 1.315 . S
C247 O249 1.279 . S
O248 Cd240 2.223 . S
O248 C247 1.315 . S
O249 Cd239 2.240 . S
O249 C247 1.279 . S
O250 Cd240 2.297 . S
O250 C245 1.247 . S
O251 Cd240 2.439 . S
O251 C245 1.208 . S
O252 Cd253 2.223 . S
O252 C260 1.315 . S
Cd253 O252 2.223 . S
Cd253 O256 2.297 . S
Cd253 O257 2.439 . S
Cd253 O263 2.240 . S
Cd254 O255 2.240 . S
Cd254 O262 2.223 . S
Cd254 O264 2.297 1_554 S
Cd254 O265 2.439 1_554 S
O255 Cd254 2.240 . S
O255 C260 1.279 . S
O256 Cd253 2.297 . S
O256 C258 1.247 . S
O257 Cd253 2.439 . S
O257 C258 1.208 . S
C258 O256 1.247 . S
C258 O257 1.208 . S
C259 O264 1.247 . S
C259 O265 1.208 . S
C260 O252 1.315 . S
C260 O255 1.279 . S
C261 O262 1.315 . S
C261 O263 1.279 . S
O262 Cd254 2.223 . S
O262 C261 1.315 . S
O263 Cd253 2.240 . S
O263 C261 1.279 . S
O264 Cd254 2.297 1_556 S
O264 C259 1.247 . S
O265 Cd254 2.439 1_556 S
O265 C259 1.208 . S
O266 Cd267 2.223 . S
O266 C274 1.315 . S
Cd267 O266 2.223 . S
Cd267 O270 2.297 . S
Cd267 O271 2.439 . S
Cd267 O277 2.240 . S
Cd268 O269 2.240 . S
Cd268 O276 2.223 . S
Cd268 O278 2.297 . S
Cd268 O279 2.439 . S
O269 Cd268 2.240 . S
O269 C274 1.279 . S
O270 Cd267 2.297 . S
O270 C272 1.247 . S
O271 Cd267 2.439 . S
O271 C272 1.208 . S
C272 O270 1.247 . S
C272 O271 1.208 . S
C273 O278 1.247 . S
C273 O279 1.208 . S
C274 O266 1.315 . S
C274 O269 1.279 . S
C275 O276 1.315 . S
C275 O277 1.279 . S
O276 Cd268 2.223 . S
O276 C275 1.315 . S
O277 Cd267 2.240 . S
O277 C275 1.279 . S
O278 Cd268 2.297 . S
O278 C273 1.247 . S
O279 Cd268 2.439 . S
O279 C273 1.208 . S
O280 Cd281 2.223 . S
O280 C288 1.315 . S
Cd281 O280 2.223 . S
Cd281 O284 2.297 . S
Cd281 O285 2.439 . S
Cd281 O291 2.240 . S
Cd282 O283 2.240 . S
Cd282 O290 2.223 . S
Cd282 O292 2.297 1_556 S
Cd282 O293 2.439 1_556 S
O283 Cd282 2.240 . S
O283 C288 1.279 . S
O284 Cd281 2.297 . S
O284 C286 1.247 . S
O285 Cd281 2.439 . S
O285 C286 1.208 . S
C286 O284 1.247 . S
C286 O285 1.208 . S
C287 O292 1.247 . S
C287 O293 1.208 . S
C288 O280 1.315 . S
C288 O283 1.279 . S
C289 O290 1.315 . S
C289 O291 1.279 . S
O290 Cd282 2.223 . S
O290 C289 1.315 . S
O291 Cd281 2.240 . S
O291 C289 1.279 . S
O292 Cd282 2.297 1_554 S
O292 C287 1.247 . S
O293 Cd282 2.439 1_554 S
O293 C287 1.208 . S
O294 Cd295 2.223 . S
O294 C302 1.315 . S
Cd295 O294 2.223 . S
Cd295 O298 2.297 . S
Cd295 O299 2.439 . S
Cd295 O305 2.240 . S
Cd296 O297 2.240 . S
Cd296 O304 2.223 . S
Cd296 O306 2.297 . S
Cd296 O307 2.439 . S
O297 Cd296 2.240 . S
O297 C302 1.279 . S
O298 Cd295 2.297 . S
O298 C300 1.247 . S
O299 Cd295 2.439 . S
O299 C300 1.208 . S
C300 O298 1.247 . S
C300 O299 1.208 . S
C301 O306 1.247 . S
C301 O307 1.208 . S
C302 O294 1.315 . S
C302 O297 1.279 . S
C303 O304 1.315 . S
C303 O305 1.279 . S
O304 Cd296 2.223 . S
O304 C303 1.315 . S
O305 Cd295 2.240 . S
O305 C303 1.279 . S
O306 Cd296 2.297 . S
O306 C301 1.247 . S
O307 Cd296 2.439 . S
O307 C301 1.208 . S
O308 Cd309 2.223 . S
O308 C316 1.315 . S
Cd309 O308 2.223 . S
Cd309 O312 2.297 . S
Cd309 O313 2.439 . S
Cd309 O319 2.240 . S
Cd310 O311 2.240 . S
Cd310 O318 2.223 . S
Cd310 O320 2.297 . S
Cd310 O321 2.439 . S
O311 Cd310 2.240 . S
O311 C316 1.279 . S
O312 Cd309 2.297 . S
O312 C314 1.247 . S
O313 Cd309 2.439 . S
O313 C314 1.208 . S
C314 O312 1.247 . S
C314 O313 1.208 . S
C315 O320 1.247 . S
C315 O321 1.208 . S
C316 O308 1.315 . S
C316 O311 1.279 . S
C317 O318 1.315 . S
C317 O319 1.279 . S
O318 Cd310 2.223 . S
O318 C317 1.315 . S
O319 Cd309 2.240 . S
O319 C317 1.279 . S
O320 Cd310 2.297 . S
O320 C315 1.247 . S
O321 Cd310 2.439 . S
O321 C315 1.208 . S
O322 Cd323 2.223 . S
O322 C330 1.315 . S
Cd323 O322 2.223 . S
Cd323 O326 2.297 . S
Cd323 O327 2.439 . S
Cd323 O333 2.240 . S
Cd324 O325 2.240 . S
Cd324 O332 2.223 . S
Cd324 O334 2.297 . S
Cd324 O335 2.439 . S
O325 Cd324 2.240 . S
O325 C330 1.279 . S
O326 Cd323 2.297 . S
O326 C328 1.247 . S
O327 Cd323 2.439 . S
O327 C328 1.208 . S
C328 O326 1.247 . S
C328 O327 1.208 . S
C329 O334 1.247 . S
C329 O335 1.208 . S
C330 O322 1.315 . S
C330 O325 1.279 . S
C331 O332 1.315 . S
C331 O333 1.279 . S
O332 Cd324 2.223 . S
O332 C331 1.315 . S
O333 Cd323 2.240 . S
O333 C331 1.279 . S
O334 Cd324 2.297 . S
O334 C329 1.247 . S
O335 Cd324 2.439 . S
O335 C329 1.208 . S
O336 Cd337 2.223 . S
O336 C344 1.315 . S
Cd337 O336 2.223 . S
Cd337 O340 2.297 . S
Cd337 O341 2.439 . S
Cd337 O347 2.240 . S
Cd338 O339 2.240 . S
Cd338 O346 2.223 . S
Cd338 O348 2.297 . S
Cd338 O349 2.439 . S
O339 Cd338 2.240 . S
O339 C344 1.279 . S
O340 Cd337 2.297 . S
O340 C342 1.247 . S
O341 Cd337 2.439 . S
O341 C342 1.208 . S
C342 O340 1.247 . S
C342 O341 1.208 . S
C343 O348 1.247 . S
C343 O349 1.208 . S
C344 O336 1.315 . S
C344 O339 1.279 . S
C345 O346 1.315 . S
C345 O347 1.279 . S
O346 Cd338 2.223 . S
O346 C345 1.315 . S
O347 Cd337 2.240 . S
O347 C345 1.279 . S
O348 Cd338 2.297 . S
O348 C343 1.247 . S
O349 Cd338 2.439 . S
O349 C343 1.208 . S
O350 Cd351 2.223 . S
O350 C358 1.315 . S
Cd351 O350 2.223 . S
Cd351 O354 2.297 . S
Cd351 O355 2.439 . S
Cd351 O361 2.240 . S
Cd352 O353 2.240 . S
Cd352 O360 2.223 . S
Cd352 O362 2.297 . S
Cd352 O363 2.439 . S
O353 Cd352 2.240 . S
O353 C358 1.279 . S
O354 Cd351 2.297 . S
O354 C356 1.247 . S
O355 Cd351 2.439 . S
O355 C356 1.208 . S
C356 O354 1.247 . S
C356 O355 1.208 . S
C357 O362 1.247 . S
C357 O363 1.208 . S
C358 O350 1.315 . S
C358 O353 1.279 . S
C359 O360 1.315 . S
C359 O361 1.279 . S
O360 Cd352 2.223 . S
O360 C359 1.315 . S
O361 Cd351 2.240 . S
O361 C359 1.279 . S
O362 Cd352 2.297 . S
O362 C357 1.247 . S
O363 Cd352 2.439 . S
O363 C357 1.208 . S
O364 Cd365 2.223 . S
O364 C372 1.315 . S
Cd365 O364 2.223 . S
Cd365 O368 2.297 . S
Cd365 O369 2.439 . S
Cd365 O375 2.240 . S
Cd366 O367 2.240 . S
Cd366 O374 2.223 . S
Cd366 O376 2.297 1_556 S
Cd366 O377 2.439 1_556 S
O367 Cd366 2.240 . S
O367 C372 1.279 . S
O368 Cd365 2.297 . S
O368 C370 1.247 . S
O369 Cd365 2.439 . S
O369 C370 1.208 . S
C370 O368 1.247 . S
C370 O369 1.208 . S
C371 O376 1.247 . S
C371 O377 1.208 . S
C372 O364 1.315 . S
C372 O367 1.279 . S
C373 O374 1.315 . S
C373 O375 1.279 . S
O374 Cd366 2.223 . S
O374 C373 1.315 . S
O375 Cd365 2.240 . S
O375 C373 1.279 . S
O376 Cd366 2.297 1_554 S
O376 C371 1.247 . S
O377 Cd366 2.439 1_554 S
O377 C371 1.208 . S
O378 Cd379 2.223 . S
O378 C386 1.315 . S
Cd379 O378 2.223 . S
Cd379 O382 2.297 . S
Cd379 O383 2.439 . S
Cd379 O389 2.240 . S
Cd380 O381 2.240 . S
Cd380 O388 2.223 . S
Cd380 O390 2.297 . S
Cd380 O391 2.439 . S
O381 Cd380 2.240 . S
O381 C386 1.279 . S
O382 Cd379 2.297 . S
O382 C384 1.247 . S
O383 Cd379 2.439 . S
O383 C384 1.208 . S
C384 O382 1.247 . S
C384 O383 1.208 . S
C385 O390 1.247 . S
C385 O391 1.208 . S
C386 O378 1.315 . S
C386 O381 1.279 . S
C387 O388 1.315 . S
C387 O389 1.279 . S
O388 Cd380 2.223 . S
O388 C387 1.315 . S
O389 Cd379 2.240 . S
O389 C387 1.279 . S
O390 Cd380 2.297 . S
O390 C385 1.247 . S
O391 Cd380 2.439 . S
O391 C385 1.208 . S
O392 Cd393 2.223 . S
O392 C400 1.315 . S
Cd393 O392 2.223 . S
Cd393 O396 2.297 . S
Cd393 O397 2.439 . S
Cd393 O403 2.240 . S
Cd394 O395 2.240 . S
Cd394 O402 2.223 . S
Cd394 O404 2.297 1_554 S
Cd394 O405 2.439 1_554 S
O395 Cd394 2.240 . S
O395 C400 1.279 . S
O396 Cd393 2.297 . S
O396 C398 1.247 . S
O397 Cd393 2.439 . S
O397 C398 1.208 . S
C398 O396 1.247 . S
C398 O397 1.208 . S
C399 O404 1.247 . S
C399 O405 1.208 . S
C400 O392 1.315 . S
C400 O395 1.279 . S
C401 O402 1.315 . S
C401 O403 1.279 . S
O402 Cd394 2.223 . S
O402 C401 1.315 . S
O403 Cd393 2.240 . S
O403 C401 1.279 . S
O404 Cd394 2.297 1_556 S
O404 C399 1.247 . S
O405 Cd394 2.439 1_556 S
O405 C399 1.208 . S
O406 Cd407 2.223 . S
O406 C414 1.315 . S
Cd407 O406 2.223 . S
Cd407 O410 2.297 . S
Cd407 O411 2.439 . S
Cd407 O417 2.240 . S
Cd408 O409 2.240 . S
Cd408 O416 2.223 . S
Cd408 O418 2.297 . S
Cd408 O419 2.439 . S
O409 Cd408 2.240 . S
O409 C414 1.279 . S
O410 Cd407 2.297 . S
O410 C412 1.247 . S
O411 Cd407 2.439 . S
O411 C412 1.208 . S
C412 O410 1.247 . S
C412 O411 1.208 . S
C413 O418 1.247 . S
C413 O419 1.208 . S
C414 O406 1.315 . S
C414 O409 1.279 . S
C415 O416 1.315 . S
C415 O417 1.279 . S
O416 Cd408 2.223 . S
O416 C415 1.315 . S
O417 Cd407 2.240 . S
O417 C415 1.279 . S
O418 Cd408 2.297 . S
O418 C413 1.247 . S
O419 Cd408 2.439 . S
O419 C413 1.208 . S
O420 Cd421 2.223 . S
O420 C428 1.315 . S
Cd421 O420 2.223 . S
Cd421 O424 2.297 . S
Cd421 O425 2.439 . S
Cd421 O431 2.240 . S
Cd422 O423 2.240 . S
Cd422 O430 2.223 . S
Cd422 O432 2.297 . S
Cd422 O433 2.439 . S
O423 Cd422 2.240 . S
O423 C428 1.279 . S
O424 Cd421 2.297 . S
O424 C426 1.247 . S
O425 Cd421 2.439 . S
O425 C426 1.208 . S
C426 O424 1.247 . S
C426 O425 1.208 . S
C427 O432 1.247 . S
C427 O433 1.208 . S
C428 O420 1.315 . S
C428 O423 1.279 . S
C429 O430 1.315 . S
C429 O431 1.279 . S
O430 Cd422 2.223 . S
O430 C429 1.315 . S
O431 Cd421 2.240 . S
O431 C429 1.279 . S
O432 Cd422 2.297 . S
O432 C427 1.247 . S
O433 Cd422 2.439 . S
O433 C427 1.208 . S
O434 Cd435 2.223 . S
O434 C442 1.315 . S
Cd435 O434 2.223 . S
Cd435 O438 2.297 . S
Cd435 O439 2.439 . S
Cd435 O445 2.240 . S
Cd436 O437 2.240 . S
Cd436 O444 2.223 . S
Cd436 O446 2.297 . S
Cd436 O447 2.439 . S
O437 Cd436 2.240 . S
O437 C442 1.279 . S
O438 Cd435 2.297 . S
O438 C440 1.247 . S
O439 Cd435 2.439 . S
O439 C440 1.208 . S
C440 O438 1.247 . S
C440 O439 1.208 . S
C441 O446 1.247 . S
C441 O447 1.208 . S
C442 O434 1.315 . S
C442 O437 1.279 . S
C443 O444 1.315 . S
C443 O445 1.279 . S
O444 Cd436 2.223 . S
O444 C443 1.315 . S
O445 Cd435 2.240 . S
O445 C443 1.279 . S
O446 Cd436 2.297 . S
O446 C441 1.247 . S
O447 Cd436 2.439 . S
O447 C441 1.208 . S
C448 C449 1.349 . S
C448 C450 1.327 . S
C448 H473 0.950 . S
C449 C448 1.349 . S
C449 C465 1.349 . S
C450 C448 1.327 . S
C450 C469 1.429 . S
C450 H474 0.950 . S
C451 C468 1.574 . S
C451 C470 1.368 1_455 S
C451 H475 0.949 . S
H452 C456 0.949 . S
C453 C454 1.349 . S
C453 C455 1.327 . S
C453 H476 0.950 . S
C454 C453 1.349 . S
C454 C466 1.349 . S
C455 C453 1.327 . S
C455 C471 1.429 . S
C455 H477 0.950 . S
C456 H452 0.949 . S
C456 C464 1.574 . S
C456 C472 1.368 1_655 S
H457 C465 0.950 . S
H458 C463 0.929 1_455 S
H459 C464 0.949 . S
H460 C466 0.950 . S
H461 C467 0.936 1_655 S
H462 C468 0.949 . S
C463 H458 0.929 1_655 S
C463 C465 1.327 . S
C463 C469 1.429 . S
C464 C456 1.574 . S
C464 H459 0.949 . S
C464 C470 1.368 . S
C465 C449 1.349 . S
C465 H457 0.950 . S
C465 C463 1.327 . S
C466 C454 1.349 . S
C466 H460 0.950 . S
C466 C467 1.327 . S
C467 H461 0.936 1_455 S
C467 C466 1.327 . S
C467 C471 1.429 . S
C468 C451 1.574 . S
C468 H462 0.949 . S
C468 C472 1.368 . S
C469 C450 1.429 . S
C469 C463 1.429 . S
C469 C470 1.523 . S
C470 C451 1.368 1_655 S
C470 C464 1.368 . S
C470 C469 1.523 . S
C471 C455 1.429 . S
C471 C467 1.429 . S
C471 C472 1.523 . S
C472 C456 1.368 1_455 S
C472 C468 1.368 . S
C472 C471 1.523 . S
H473 C448 0.950 . S
H474 C450 0.950 . S
H475 C451 0.949 . S
H476 C453 0.950 . S
H477 C455 0.950 . S
C478 C479 1.349 . S
C478 C480 1.327 . S
C478 H503 0.950 . S
C479 C478 1.349 . S
C479 C495 1.349 . S
C480 C478 1.327 . S
C480 C499 1.429 . S
C480 H504 0.950 . S
C481 C498 1.574 1_556 S
C481 C500 1.368 . S
C481 H505 0.949 . S
H482 C486 0.949 . S
C483 C484 1.349 . S
C483 C485 1.327 . S
C483 H506 0.950 . S
C484 C483 1.349 . S
C484 C496 1.349 . S
C485 C483 1.327 . S
C485 C501 1.429 . S
C485 H507 0.950 . S
C486 H482 0.949 . S
C486 C494 1.571 1_554 S
C486 C502 1.368 . S
H487 C495 0.950 . S
H488 C493 0.950 . S
H489 C494 0.950 . S
H490 C496 0.950 . S
H491 C497 0.950 . S
H492 C498 0.949 . S
C493 H488 0.950 . S
C493 C495 1.327 . S
C493 C499 1.429 . S
C494 C486 1.571 1_556 S
C494 H489 0.950 . S
C494 C500 1.370 . S
C495 C479 1.349 . S
C495 H487 0.950 . S
C495 C493 1.327 . S
C496 C484 1.349 . S
C496 H490 0.950 . S
C496 C497 1.327 . S
C497 H491 0.950 . S
C497 C496 1.327 . S
C497 C501 1.429 . S
C498 C481 1.574 1_554 S
C498 H492 0.949 . S
C498 C502 1.368 . S
C499 C480 1.429 . S
C499 C493 1.429 . S
C499 C500 1.523 . S
C500 C481 1.368 . S
C500 C494 1.370 . S
C500 C499 1.523 . S
C501 C485 1.429 . S
C501 C497 1.429 . S
C501 C502 1.523 . S
C502 C486 1.368 . S
C502 C498 1.368 . S
C502 C501 1.523 . S
H503 C478 0.950 . S
H504 C480 0.950 . S
H505 C481 0.949 . S
H506 C483 0.950 . S
H507 C485 0.950 . S
C508 C509 1.349 . S
C508 C510 1.327 . S
C508 H533 0.950 . S
C509 C508 1.349 . S
C509 C525 1.349 . S
C510 C508 1.327 . S
C510 C529 1.429 . S
C510 H534 0.950 . S
C511 C528 1.574 . S
C511 C530 1.368 . S
C511 H535 0.949 . S
H512 C516 0.949 . S
C513 C514 1.349 . S
C513 C515 1.327 . S
C513 H536 0.950 . S
C514 C513 1.349 . S
C514 C526 1.349 . S
C515 C513 1.327 . S
C515 C531 1.429 . S
C515 H537 0.950 . S
C516 H512 0.949 . S
C516 C524 1.574 . S
C516 C532 1.368 . S
H517 C525 0.950 . S
H518 C523 0.950 . S
H519 C524 0.949 . S
H520 C526 0.950 . S
H521 C527 0.950 . S
H522 C528 0.949 . S
C523 H518 0.950 . S
C523 C525 1.327 . S
C523 C529 1.429 . S
C524 C516 1.574 . S
C524 H519 0.949 . S
C524 C530 1.368 . S
C525 C509 1.349 . S
C525 H517 0.950 . S
C525 C523 1.327 . S
C526 C514 1.349 . S
C526 H520 0.950 . S
C526 C527 1.327 . S
C527 H521 0.950 . S
C527 C526 1.327 . S
C527 C531 1.429 . S
C528 C511 1.574 . S
C528 H522 0.949 . S
C528 C532 1.368 . S
C529 C510 1.429 . S
C529 C523 1.429 . S
C529 C530 1.523 . S
C530 C511 1.368 . S
C530 C524 1.368 . S
C530 C529 1.523 . S
C531 C515 1.429 . S
C531 C527 1.429 . S
C531 C532 1.523 . S
C532 C516 1.368 . S
C532 C528 1.368 . S
C532 C531 1.523 . S
H533 C508 0.950 . S
H534 C510 0.950 . S
H535 C511 0.949 . S
H536 C513 0.950 . S
H537 C515 0.950 . S
C538 C539 1.349 . S
C538 C540 1.327 . S
C538 H563 0.950 . S
C539 C538 1.349 . S
C539 C555 1.349 . S
C540 C538 1.327 . S
C540 C559 1.429 . S
C540 H564 0.950 . S
C541 C558 1.574 . S
C541 C560 1.368 . S
C541 H565 0.949 . S
H542 C546 0.949 . S
C543 C544 1.349 . S
C543 C545 1.327 . S
C543 H566 0.950 . S
C544 C543 1.349 . S
C544 C556 1.349 . S
C545 C543 1.327 . S
C545 C561 1.429 . S
C545 H567 0.950 . S
C546 H542 0.949 . S
C546 C554 1.574 . S
C546 C562 1.368 . S
H547 C555 0.950 . S
H548 C553 0.950 . S
H549 C554 0.949 . S
H550 C556 0.950 . S
H551 C557 0.950 . S
H552 C558 0.949 . S
C553 H548 0.950 . S
C553 C555 1.327 . S
C553 C559 1.429 . S
C554 C546 1.574 . S
C554 H549 0.949 . S
C554 C560 1.368 . S
C555 C539 1.349 . S
C555 H547 0.950 . S
C555 C553 1.327 . S
C556 C544 1.349 . S
C556 H550 0.950 . S
C556 C557 1.327 . S
C557 H551 0.950 . S
C557 C556 1.327 . S
C557 C561 1.429 . S
C558 C541 1.574 . S
C558 H552 0.949 . S
C558 C562 1.368 . S
C559 C540 1.429 . S
C559 C553 1.429 . S
C559 C560 1.523 . S
C560 C541 1.368 . S
C560 C554 1.368 . S
C560 C559 1.523 . S
C561 C545 1.429 . S
C561 C557 1.429 . S
C561 C562 1.523 . S
C562 C546 1.368 . S
C562 C558 1.368 . S
C562 C561 1.523 . S
H563 C538 0.950 . S
H564 C540 0.950 . S
H565 C541 0.949 . S
H566 C543 0.950 . S
H567 C545 0.950 . S
C568 C569 1.349 . S
C568 C570 1.327 . S
C568 H593 0.950 . S
C569 C568 1.349 . S
C569 C585 1.349 . S
C570 C568 1.327 . S
C570 C589 1.429 . S
C570 H594 0.950 1_655 S
C571 C588 1.574 . S
C571 C590 1.368 . S
C571 H595 0.949 . S
H572 C576 0.949 . S
C573 C574 1.349 . S
C573 C575 1.327 . S
C573 H596 0.950 . S
C574 C573 1.349 . S
C574 C586 1.349 . S
C575 C573 1.327 . S
C575 C591 1.429 . S
C575 H597 0.950 1_455 S
C576 H572 0.949 . S
C576 C584 1.574 . S
C576 C592 1.368 . S
H577 C585 0.950 . S
H578 C583 0.950 . S
H579 C584 0.949 . S
H580 C586 0.950 . S
H581 C587 0.950 . S
H582 C588 0.949 . S
C583 H578 0.950 . S
C583 C585 1.327 . S
C583 C589 1.429 . S
C584 C576 1.574 . S
C584 H579 0.949 . S
C584 C590 1.368 1_455 S
C585 C569 1.349 . S
C585 H577 0.950 . S
C585 C583 1.327 . S
C586 C574 1.349 . S
C586 H580 0.950 . S
C586 C587 1.327 . S
C587 H581 0.950 . S
C587 C586 1.327 . S
C587 C591 1.429 . S
C588 C571 1.574 . S
C588 H582 0.949 . S
C588 C592 1.368 1_655 S
C589 C570 1.429 . S
C589 C583 1.429 . S
C589 C590 1.523 . S
C590 C571 1.368 . S
C590 C584 1.368 1_655 S
C590 C589 1.523 . S
C591 C575 1.429 . S
C591 C587 1.429 . S
C591 C592 1.523 . S
C592 C576 1.368 . S
C592 C588 1.368 1_455 S
C592 C591 1.523 . S
H593 C568 0.950 . S
H594 C570 0.950 1_455 S
H595 C571 0.949 . S
H596 C573 0.950 . S
H597 C575 0.950 1_655 S
C598 C599 1.349 . S
C598 C600 1.327 . S
C598 H623 0.950 . S
C599 C598 1.349 . S
C599 C615 1.349 . S
C600 C598 1.327 . S
C600 C619 1.429 . S
C600 H624 0.950 . S
C601 C618 1.574 1_556 S
C601 C620 1.368 . S
C601 H625 0.949 . S
H602 C606 0.949 . S
C603 C604 1.349 . S
C603 C605 1.327 . S
C603 H626 0.950 . S
C604 C603 1.349 . S
C604 C616 1.349 . S
C605 C603 1.327 . S
C605 C621 1.429 . S
C605 H627 0.950 . S
C606 H602 0.949 . S
C606 C614 1.574 1_554 S
C606 C622 1.368 . S
H607 C615 0.950 . S
H608 C613 0.950 . S
H609 C614 0.949 . S
H610 C616 0.950 . S
H611 C617 0.950 . S
H612 C618 0.949 . S
C613 H608 0.950 . S
C613 C615 1.327 . S
C613 C619 1.429 . S
C614 C606 1.574 1_556 S
C614 H609 0.949 . S
C614 C620 1.368 . S
C615 C599 1.349 . S
C615 H607 0.950 . S
C615 C613 1.327 . S
C616 C604 1.349 . S
C616 H610 0.950 . S
C616 C617 1.327 . S
C617 H611 0.950 . S
C617 C616 1.327 . S
C617 C621 1.429 . S
C618 C601 1.574 1_554 S
C618 H612 0.949 . S
C618 C622 1.368 . S
C619 C600 1.429 . S
C619 C613 1.429 . S
C619 C620 1.523 . S
C620 C601 1.368 . S
C620 C614 1.368 . S
C620 C619 1.523 . S
C621 C605 1.429 . S
C621 C617 1.429 . S
C621 C622 1.523 . S
C622 C606 1.368 . S
C622 C618 1.368 . S
C622 C621 1.523 . S
H623 C598 0.950 . S
H624 C600 0.950 . S
H625 C601 0.949 . S
H626 C603 0.950 . S
H627 C605 0.950 . S
C628 C629 1.349 . S
C628 C630 1.327 . S
C628 H653 0.950 . S
C629 C628 1.349 . S
C629 C645 1.349 . S
C630 C628 1.327 . S
C630 C649 1.429 . S
C630 H654 0.950 . S
C631 C648 1.574 . S
C631 C650 1.368 . S
C631 H655 0.949 . S
H632 C636 0.949 . S
C633 C634 1.349 . S
C633 C635 1.327 . S
C633 H656 0.950 . S
C634 C633 1.349 . S
C634 C646 1.349 . S
C635 C633 1.327 . S
C635 C651 1.429 . S
C635 H657 0.950 . S
C636 H632 0.949 . S
C636 C644 1.574 . S
C636 C652 1.368 . S
H637 C645 0.950 . S
H638 C643 0.950 . S
H639 C644 0.949 . S
H640 C646 0.950 . S
H641 C647 0.950 . S
H642 C648 0.949 . S
C643 H638 0.950 . S
C643 C645 1.327 . S
C643 C649 1.429 . S
C644 C636 1.574 . S
C644 H639 0.949 . S
C644 C650 1.368 . S
C645 C629 1.349 . S
C645 H637 0.950 . S
C645 C643 1.327 . S
C646 C634 1.349 . S
C646 H640 0.950 . S
C646 C647 1.327 . S
C647 H641 0.950 . S
C647 C646 1.327 . S
C647 C651 1.429 . S
C648 C631 1.574 . S
C648 H642 0.949 . S
C648 C652 1.368 . S
C649 C630 1.429 . S
C649 C643 1.429 . S
C649 C650 1.523 . S
C650 C631 1.368 . S
C650 C644 1.368 . S
C650 C649 1.523 . S
C651 C635 1.429 . S
C651 C647 1.429 . S
C651 C652 1.523 . S
C652 C636 1.368 . S
C652 C648 1.368 . S
C652 C651 1.523 . S
H653 C628 0.950 . S
H654 C630 0.950 . S
H655 C631 0.949 . S
H656 C633 0.950 . S
H657 C635 0.950 . S
C658 C659 1.349 . S
C658 C660 1.327 . S
C658 H683 0.950 . S
C659 C658 1.349 . S
C659 C675 1.349 . S
C660 C658 1.327 . S
C660 C679 1.429 . S
C660 H684 0.950 . S
C661 C678 1.574 . S
C661 C680 1.368 . S
C661 H685 0.949 . S
H662 C666 0.949 . S
C663 C664 1.349 . S
C663 C665 1.327 . S
C663 H686 0.950 . S
C664 C663 1.349 . S
C664 C676 1.349 . S
C665 C663 1.327 . S
C665 C681 1.429 . S
C665 H687 0.950 . S
C666 H662 0.949 . S
C666 C674 1.574 . S
C666 C682 1.368 . S
H667 C675 0.950 . S
H668 C673 0.950 . S
H669 C674 0.949 . S
H670 C676 0.950 . S
H671 C677 0.950 . S
H672 C678 0.949 . S
C673 H668 0.950 . S
C673 C675 1.327 . S
C673 C679 1.429 . S
C674 C666 1.574 . S
C674 H669 0.949 . S
C674 C680 1.368 . S
C675 C659 1.349 . S
C675 H667 0.950 . S
C675 C673 1.327 . S
C676 C664 1.349 . S
C676 H670 0.950 . S
C676 C677 1.327 . S
C677 H671 0.950 . S
C677 C676 1.327 . S
C677 C681 1.429 . S
C678 C661 1.574 . S
C678 H672 0.949 . S
C678 C682 1.368 . S
C679 C660 1.429 . S
C679 C673 1.429 . S
C679 C680 1.523 . S
C680 C661 1.368 . S
C680 C674 1.368 . S
C680 C679 1.523 . S
C681 C665 1.429 . S
C681 C677 1.429 . S
C681 C682 1.523 . S
C682 C666 1.368 . S
C682 C678 1.368 . S
C682 C681 1.523 . S
H683 C658 0.950 . S
H684 C660 0.950 . S
H685 C661 0.949 . S
H686 C663 0.950 . S
H687 C665 0.950 . S
C688 C689 1.349 . S
C688 C690 1.327 . S
C688 H713 0.950 . S
C689 C688 1.349 . S
C689 C705 1.349 . S
C690 C688 1.327 . S
C690 C709 1.429 . S
C690 H714 0.935 1_455 S
C691 C708 1.574 . S
C691 C710 1.368 . S
C691 H715 0.949 . S
H692 C696 0.949 . S
C693 C694 1.349 . S
C693 C695 1.327 . S
C693 H716 0.950 . S
C694 C693 1.349 . S
C694 C706 1.349 . S
C695 C693 1.327 . S
C695 C711 1.429 . S
C695 H717 0.942 1_655 S
C696 H692 0.949 . S
C696 C704 1.574 . S
C696 C712 1.368 . S
H697 C705 0.950 . S
H698 C703 0.950 . S
H699 C704 0.949 . S
H700 C706 0.950 . S
H701 C707 0.950 . S
H702 C708 0.949 . S
C703 H698 0.950 . S
C703 C705 1.327 . S
C703 C709 1.429 . S
C704 C696 1.574 . S
C704 H699 0.949 . S
C704 C710 1.368 1_655 S
C705 C689 1.349 . S
C705 H697 0.950 . S
C705 C703 1.327 . S
C706 C694 1.349 . S
C706 H700 0.950 . S
C706 C707 1.327 . S
C707 H701 0.950 . S
C707 C706 1.327 . S
C707 C711 1.429 . S
C708 C691 1.574 . S
C708 H702 0.949 . S
C708 C712 1.368 1_455 S
C709 C690 1.429 . S
C709 C703 1.429 . S
C709 C710 1.523 . S
C710 C691 1.368 . S
C710 C704 1.368 1_455 S
C710 C709 1.523 . S
C711 C695 1.429 . S
C711 C707 1.429 . S
C711 C712 1.523 . S
C712 C696 1.368 . S
C712 C708 1.368 1_655 S
C712 C711 1.523 . S
H713 C688 0.950 . S
H714 C690 0.935 1_655 S
H715 C691 0.949 . S
H716 C693 0.950 . S
H717 C695 0.942 1_455 S
C718 C719 1.349 . S
C718 C720 1.327 . S
C718 H743 0.950 . S
C719 C718 1.349 . S
C719 C735 1.349 . S
C720 C718 1.327 . S
C720 C739 1.429 . S
C720 H744 0.950 . S
C721 C738 1.574 1_554 S
C721 C740 1.368 . S
C721 H745 0.949 . S
H722 C726 0.949 . S
C723 C724 1.349 . S
C723 C725 1.327 . S
C723 H746 0.950 . S
C724 C723 1.349 . S
C724 C736 1.349 . S
C725 C723 1.327 . S
C725 C741 1.429 . S
C725 H747 0.950 . S
C726 H722 0.949 . S
C726 C734 1.574 1_556 S
C726 C742 1.368 . S
H727 C735 0.950 . S
H728 C733 0.950 . S
H729 C734 0.949 . S
H730 C736 0.950 . S
H731 C737 0.950 . S
H732 C738 0.949 . S
C733 H728 0.950 . S
C733 C735 1.327 . S
C733 C739 1.429 . S
C734 C726 1.574 1_554 S
C734 H729 0.949 . S
C734 C740 1.368 . S
C735 C719 1.349 . S
C735 H727 0.950 . S
C735 C733 1.327 . S
C736 C724 1.349 . S
C736 H730 0.950 . S
C736 C737 1.327 . S
C737 H731 0.950 . S
C737 C736 1.327 . S
C737 C741 1.429 . S
C738 C721 1.574 1_556 S
C738 H732 0.949 . S
C738 C742 1.368 . S
C739 C720 1.429 . S
C739 C733 1.429 . S
C739 C740 1.523 . S
C740 C721 1.368 . S
C740 C734 1.368 . S
C740 C739 1.523 . S
C741 C725 1.429 . S
C741 C737 1.429 . S
C741 C742 1.523 . S
C742 C726 1.368 . S
C742 C738 1.368 . S
C742 C741 1.523 . S
H743 C718 0.950 . S
H744 C720 0.950 . S
H745 C721 0.949 . S
H746 C723 0.950 . S
H747 C725 0.950 . S
C748 C749 1.349 . S
C748 C750 1.327 . S
C748 H773 0.950 . S
C749 C748 1.349 . S
C749 C765 1.349 . S
C750 C748 1.327 . S
C750 C769 1.429 . S
C750 H774 0.950 . S
C751 C768 1.574 . S
C751 C770 1.368 . S
C751 H775 0.949 . S
H752 C756 0.949 . S
C753 C754 1.349 . S
C753 C755 1.327 . S
C753 H776 0.950 . S
C754 C753 1.349 . S
C754 C766 1.349 . S
C755 C753 1.327 . S
C755 C771 1.429 . S
C755 H777 0.950 . S
C756 H752 0.949 . S
C756 C764 1.574 . S
C756 C772 1.368 . S
H757 C765 0.950 . S
H758 C763 0.950 . S
H759 C764 0.949 . S
H760 C766 0.950 . S
H761 C767 0.950 . S
H762 C768 0.949 . S
C763 H758 0.950 . S
C763 C765 1.327 . S
C763 C769 1.429 . S
C764 C756 1.574 . S
C764 H759 0.949 . S
C764 C770 1.368 . S
C765 C749 1.349 . S
C765 H757 0.950 . S
C765 C763 1.327 . S
C766 C754 1.349 . S
C766 H760 0.950 . S
C766 C767 1.327 . S
C767 H761 0.950 . S
C767 C766 1.327 . S
C767 C771 1.429 . S
C768 C751 1.574 . S
C768 H762 0.949 . S
C768 C772 1.368 . S
C769 C750 1.429 . S
C769 C763 1.429 . S
C769 C770 1.523 . S
C770 C751 1.368 . S
C770 C764 1.368 . S
C770 C769 1.523 . S
C771 C755 1.429 . S
C771 C767 1.429 . S
C771 C772 1.523 . S
C772 C756 1.368 . S
C772 C768 1.368 . S
C772 C771 1.523 . S
H773 C748 0.950 . S
H774 C750 0.950 . S
H775 C751 0.949 . S
H776 C753 0.950 . S
H777 C755 0.950 . S
C778 C779 1.349 . S
C778 C780 1.327 . S
C778 H803 0.950 . S
C779 C778 1.349 . S
C779 C795 1.349 . S
C780 C778 1.327 . S
C780 C799 1.429 . S
C780 H804 0.950 . S
C781 C798 1.574 . S
C781 C800 1.368 . S
C781 H805 0.949 . S
H782 C786 0.949 . S
C783 C784 1.349 . S
C783 C785 1.327 . S
C783 H806 0.950 . S
C784 C783 1.349 . S
C784 C796 1.349 . S
C785 C783 1.327 . S
C785 C801 1.429 . S
C785 H807 0.950 . S
C786 H782 0.949 . S
C786 C794 1.574 . S
C786 C802 1.368 . S
H787 C795 0.950 . S
H788 C793 0.950 . S
H789 C794 0.949 . S
H790 C796 0.950 . S
H791 C797 0.950 . S
H792 C798 0.949 . S
C793 H788 0.950 . S
C793 C795 1.327 . S
C793 C799 1.429 . S
C794 C786 1.574 . S
C794 H789 0.949 . S
C794 C800 1.368 . S
C795 C779 1.349 . S
C795 H787 0.950 . S
C795 C793 1.327 . S
C796 C784 1.349 . S
C796 H790 0.950 . S
C796 C797 1.327 . S
C797 H791 0.950 . S
C797 C796 1.327 . S
C797 C801 1.429 . S
C798 C781 1.574 . S
C798 H792 0.949 . S
C798 C802 1.368 . S
C799 C780 1.429 . S
C799 C793 1.429 . S
C799 C800 1.523 . S
C800 C781 1.368 . S
C800 C794 1.368 . S
C800 C799 1.523 . S
C801 C785 1.429 . S
C801 C797 1.429 . S
C801 C802 1.523 . S
C802 C786 1.368 . S
C802 C798 1.368 . S
C802 C801 1.523 . S
H803 C778 0.950 . S
H804 C780 0.950 . S
H805 C781 0.949 . S
H806 C783 0.950 . S
H807 C785 0.950 . S
C808 C809 1.349 . S
C808 C810 1.327 . S
C808 H833 0.950 . S
C809 C808 1.349 . S
C809 C825 1.349 . S
C810 C808 1.327 . S
C810 C829 1.429 . S
C810 H834 0.950 . S
C811 C828 1.574 . S
C811 C830 1.368 1_455 S
C811 H835 0.949 . S
H812 C816 0.949 . S
C813 C814 1.349 . S
C813 C815 1.327 . S
C813 H836 0.950 . S
C814 C813 1.349 . S
C814 C826 1.349 . S
C815 C813 1.327 . S
C815 C831 1.429 . S
C815 H837 0.950 . S
C816 H812 0.949 . S
C816 C824 1.574 . S
C816 C832 1.368 1_655 S
H817 C825 0.950 . S
H818 C823 0.950 1_455 S
H819 C824 0.949 . S
H820 C826 0.950 . S
H821 C827 0.950 1_655 S
H822 C828 0.949 . S
C823 H818 0.950 1_655 S
C823 C825 1.327 . S
C823 C829 1.429 . S
C824 C816 1.574 . S
C824 H819 0.949 . S
C824 C830 1.368 . S
C825 C809 1.349 . S
C825 H817 0.950 . S
C825 C823 1.327 . S
C826 C814 1.349 . S
C826 H820 0.950 . S
C826 C827 1.327 . S
C827 H821 0.950 1_455 S
C827 C826 1.327 . S
C827 C831 1.429 . S
C828 C811 1.574 . S
C828 H822 0.949 . S
C828 C832 1.368 . S
C829 C810 1.429 . S
C829 C823 1.429 . S
C829 C830 1.523 . S
C830 C811 1.368 1_655 S
C830 C824 1.368 . S
C830 C829 1.523 . S
C831 C815 1.429 . S
C831 C827 1.429 . S
C831 C832 1.523 . S
C832 C816 1.368 1_455 S
C832 C828 1.368 . S
C832 C831 1.523 . S
H833 C808 0.950 . S
H834 C810 0.950 . S
H835 C811 0.949 . S
H836 C813 0.950 . S
H837 C815 0.950 . S
C838 C839 1.349 . S
C838 C840 1.327 . S
C838 H863 0.950 . S
C839 C838 1.349 . S
C839 C855 1.349 . S
C840 C838 1.327 . S
C840 C859 1.429 . S
C840 H864 0.950 . S
C841 C858 1.554 1_554 S
C841 C860 1.368 . S
C841 H865 0.949 . S
H842 C846 0.949 . S
C843 C844 1.349 . S
C843 C845 1.327 . S
C843 H866 0.950 . S
C844 C843 1.349 . S
C844 C856 1.349 . S
C845 C843 1.327 . S
C845 C861 1.429 . S
C845 H867 0.950 . S
C846 H842 0.949 . S
C846 C854 1.574 1_556 S
C846 C862 1.368 . S
H847 C855 0.950 . S
H848 C853 0.950 . S
H849 C854 0.949 . S
H850 C856 0.950 . S
H851 C857 0.950 . S
H852 C858 0.956 . S
C853 H848 0.950 . S
C853 C855 1.327 . S
C853 C859 1.429 . S
C854 C846 1.574 1_554 S
C854 H849 0.949 . S
C854 C860 1.368 . S
C855 C839 1.349 . S
C855 H847 0.950 . S
C855 C853 1.327 . S
C856 C844 1.349 . S
C856 H850 0.950 . S
C856 C857 1.327 . S
C857 H851 0.950 . S
C857 C856 1.327 . S
C857 C861 1.429 . S
C858 C841 1.554 1_556 S
C858 H852 0.956 . S
C858 C862 1.381 . S
C859 C840 1.429 . S
C859 C853 1.429 . S
C859 C860 1.523 . S
C860 C841 1.368 . S
C860 C854 1.368 . S
C860 C859 1.523 . S
C861 C845 1.429 . S
C861 C857 1.429 . S
C861 C862 1.523 . S
C862 C846 1.368 . S
C862 C858 1.381 . S
C862 C861 1.523 . S
H863 C838 0.950 . S
H864 C840 0.950 . S
H865 C841 0.949 . S
H866 C843 0.950 . S
H867 C845 0.950 . S
C868 C869 1.349 . S
C868 C870 1.327 . S
C868 H893 0.950 . S
C869 C868 1.349 . S
C869 C885 1.349 . S
C870 C868 1.327 . S
C870 C889 1.429 . S
C870 H894 0.950 . S
C871 C888 1.574 . S
C871 C890 1.368 . S
C871 H895 0.949 . S
H872 C876 0.949 . S
C873 C874 1.349 . S
C873 C875 1.327 . S
C873 H896 0.950 . S
C874 C873 1.349 . S
C874 C886 1.349 . S
C875 C873 1.327 . S
C875 C891 1.429 . S
C875 H897 0.950 . S
C876 H872 0.949 . S
C876 C884 1.574 . S
C876 C892 1.368 . S
H877 C885 0.950 . S
H878 C883 0.950 . S
H879 C884 0.949 . S
H880 C886 0.950 . S
H881 C887 0.950 . S
H882 C888 0.949 . S
C883 H878 0.950 . S
C883 C885 1.327 . S
C883 C889 1.429 . S
C884 C876 1.574 . S
C884 H879 0.949 . S
C884 C890 1.368 . S
C885 C869 1.349 . S
C885 H877 0.950 . S
C885 C883 1.327 . S
C886 C874 1.349 . S
C886 H880 0.950 . S
C886 C887 1.327 . S
C887 H881 0.950 . S
C887 C886 1.327 . S
C887 C891 1.429 . S
C888 C871 1.574 . S
C888 H882 0.949 . S
C888 C892 1.368 . S
C889 C870 1.429 . S
C889 C883 1.429 . S
C889 C890 1.523 . S
C890 C871 1.368 . S
C890 C884 1.368 . S
C890 C889 1.523 . S
C891 C875 1.429 . S
C891 C887 1.429 . S
C891 C892 1.523 . S
C892 C876 1.368 . S
C892 C888 1.368 . S
C892 C891 1.523 . S
H893 C868 0.950 . S
H894 C870 0.950 . S
H895 C871 0.949 . S
H896 C873 0.950 . S
H897 C875 0.950 . S
C898 C899 1.349 . S
C898 C900 1.327 . S
C898 H923 0.950 . S
C899 C898 1.349 . S
C899 C915 1.349 . S
C900 C898 1.327 . S
C900 C919 1.429 . S
C900 H924 0.950 . S
C901 C918 1.574 . S
C901 C920 1.368 . S
C901 H925 0.949 . S
H902 C906 0.949 . S
C903 C904 1.349 . S
C903 C905 1.327 . S
C903 H926 0.950 . S
C904 C903 1.349 . S
C904 C916 1.349 . S
C905 C903 1.327 . S
C905 C921 1.429 . S
C905 H927 0.950 . S
C906 H902 0.949 . S
C906 C914 1.574 . S
C906 C922 1.368 . S
H907 C915 0.950 . S
H908 C913 0.950 . S
H909 C914 0.949 . S
H910 C916 0.950 . S
H911 C917 0.950 . S
H912 C918 0.949 . S
C913 H908 0.950 . S
C913 C915 1.327 . S
C913 C919 1.429 . S
C914 C906 1.574 . S
C914 H909 0.949 . S
C914 C920 1.368 . S
C915 C899 1.349 . S
C915 H907 0.950 . S
C915 C913 1.327 . S
C916 C904 1.349 . S
C916 H910 0.950 . S
C916 C917 1.327 . S
C917 H911 0.950 . S
C917 C916 1.327 . S
C917 C921 1.429 . S
C918 C901 1.574 . S
C918 H912 0.949 . S
C918 C922 1.368 . S
C919 C900 1.429 . S
C919 C913 1.429 . S
C919 C920 1.523 . S
C920 C901 1.368 . S
C920 C914 1.368 . S
C920 C919 1.523 . S
C921 C905 1.429 . S
C921 C917 1.429 . S
C921 C922 1.523 . S
C922 C906 1.368 . S
C922 C918 1.368 . S
C922 C921 1.523 . S
H923 C898 0.950 . S
H924 C900 0.950 . S
H925 C901 0.949 . S
H926 C903 0.950 . S
H927 C905 0.950 . S
C928 C929 1.349 . S
C928 C930 1.327 . S
C928 H953 0.950 . S
C929 C928 1.349 . S
C929 C945 1.349 . S
C930 C928 1.327 . S
C930 C949 1.429 . S
C930 H954 0.950 . S
C931 C948 1.574 . S
C931 C950 1.368 . S
C931 H955 0.949 . S
H932 C936 0.949 . S
C933 C934 1.349 . S
C933 C935 1.327 . S
C933 H956 0.950 . S
C934 C933 1.349 . S
C934 C946 1.349 . S
C935 C933 1.327 . S
C935 C951 1.429 . S
C935 H957 0.950 . S
C936 H932 0.949 . S
C936 C944 1.574 . S
C936 C952 1.368 . S
H937 C945 0.950 . S
H938 C943 0.950 . S
H939 C944 0.949 . S
H940 C946 0.950 . S
H941 C947 0.950 . S
H942 C948 0.949 . S
C943 H938 0.950 . S
C943 C945 1.327 . S
C943 C949 1.429 . S
C944 C936 1.574 . S
C944 H939 0.949 . S
C944 C950 1.368 . S
C945 C929 1.349 . S
C945 H937 0.950 . S
C945 C943 1.327 . S
C946 C934 1.349 . S
C946 H940 0.950 . S
C946 C947 1.327 . S
C947 H941 0.950 . S
C947 C946 1.327 . S
C947 C951 1.429 . S
C948 C931 1.574 . S
C948 H942 0.949 . S
C948 C952 1.368 . S
C949 C930 1.429 . S
C949 C943 1.429 . S
C949 C950 1.523 . S
C950 C931 1.368 . S
C950 C944 1.368 . S
C950 C949 1.523 . S
C951 C935 1.429 . S
C951 C947 1.429 . S
C951 C952 1.523 . S
C952 C936 1.368 . S
C952 C948 1.368 . S
C952 C951 1.523 . S
H953 C928 0.950 . S
H954 C930 0.950 . S
H955 C931 0.949 . S
H956 C933 0.950 . S
H957 C935 0.950 . S
C958 C959 1.349 . S
C958 C960 1.327 . S
C958 H983 0.950 . S
C959 C958 1.349 . S
C959 C975 1.349 . S
C960 C958 1.327 . S
C960 C979 1.429 . S
C960 H984 0.950 . S
C961 C978 1.574 . S
C961 C980 1.368 . S
C961 H985 0.949 . S
H962 C966 0.949 . S
C963 C964 1.349 . S
C963 C965 1.327 . S
C963 H986 0.950 . S
C964 C963 1.349 . S
C964 C976 1.349 . S
C965 C963 1.327 . S
C965 C981 1.429 . S
C965 H987 0.950 . S
C966 H962 0.949 . S
C966 C974 1.574 . S
C966 C982 1.368 . S
H967 C975 0.950 . S
H968 C973 0.950 . S
H969 C974 0.949 . S
H970 C976 0.950 . S
H971 C977 0.950 . S
H972 C978 0.949 . S
C973 H968 0.950 . S
C973 C975 1.327 . S
C973 C979 1.429 . S
C974 C966 1.574 . S
C974 H969 0.949 . S
C974 C980 1.368 . S
C975 C959 1.349 . S
C975 H967 0.950 . S
C975 C973 1.327 . S
C976 C964 1.349 . S
C976 H970 0.950 . S
C976 C977 1.327 . S
C977 H971 0.950 . S
C977 C976 1.327 . S
C977 C981 1.429 . S
C978 C961 1.574 . S
C978 H972 0.949 . S
C978 C982 1.368 . S
C979 C960 1.429 . S
C979 C973 1.429 . S
C979 C980 1.523 . S
C980 C961 1.368 . S
C980 C974 1.368 . S
C980 C979 1.523 . S
C981 C965 1.429 . S
C981 C977 1.429 . S
C981 C982 1.523 . S
C982 C966 1.368 . S
C982 C978 1.368 . S
C982 C981 1.523 . S
H983 C958 0.950 . S
H984 C960 0.950 . S
H985 C961 0.949 . S
H986 C963 0.950 . S
H987 C965 0.950 . S
C988 C989 1.349 . S
C988 C990 1.327 . S
C988 H1013 0.950 . S
C989 C988 1.349 . S
C989 C1005 1.349 . S
C990 C988 1.327 . S
C990 C1009 1.429 . S
C990 H1014 0.950 1_455 S
C991 C1008 1.574 . S
C991 C1010 1.368 . S
C991 H1015 0.949 . S
H992 C996 0.949 . S
C993 C994 1.349 . S
C993 C995 1.327 . S
C993 H1016 0.950 . S
C994 C993 1.349 . S
C994 C1006 1.349 . S
C995 C993 1.327 . S
C995 C1011 1.429 . S
C995 H1017 0.950 1_655 S
C996 H992 0.949 . S
C996 C1004 1.574 . S
C996 C1012 1.368 . S
H997 C1005 0.950 . S
H998 C1003 0.950 . S
H999 C1004 0.949 . S
H1000 C1006 0.950 . S
H1001 C1007 0.950 . S
H1002 C1008 0.949 . S
C1003 H998 0.950 . S
C1003 C1005 1.327 . S
C1003 C1009 1.429 . S
C1004 C996 1.574 . S
C1004 H999 0.949 . S
C1004 C1010 1.368 1_655 S
C1005 C989 1.349 . S
C1005 H997 0.950 . S
C1005 C1003 1.327 . S
C1006 C994 1.349 . S
C1006 H1000 0.950 . S
C1006 C1007 1.327 . S
C1007 H1001 0.950 . S
C1007 C1006 1.327 . S
C1007 C1011 1.429 . S
C1008 C991 1.574 . S
C1008 H1002 0.949 . S
C1008 C1012 1.368 1_455 S
C1009 C990 1.429 . S
C1009 C1003 1.429 . S
C1009 C1010 1.523 . S
C1010 C991 1.368 . S
C1010 C1004 1.368 1_455 S
C1010 C1009 1.523 . S
C1011 C995 1.429 . S
C1011 C1007 1.429 . S
C1011 C1012 1.523 . S
C1012 C996 1.368 . S
C1012 C1008 1.368 1_655 S
C1012 C1011 1.523 . S
H1013 C988 0.950 . S
H1014 C990 0.950 1_655 S
H1015 C991 0.949 . S
H1016 C993 0.950 . S
H1017 C995 0.950 1_455 S
C1018 C1019 1.349 . S
C1018 C1020 1.327 . S
C1018 H1043 0.950 . S
C1019 C1018 1.349 . S
C1019 C1035 1.349 . S
C1020 C1018 1.327 . S
C1020 C1039 1.429 . S
C1020 H1044 0.950 . S
C1021 C1038 1.574 1_554 S
C1021 C1040 1.368 . S
C1021 H1045 0.949 . S
H1022 C1026 0.949 . S
C1023 C1024 1.349 . S
C1023 C1025 1.327 . S
C1023 H1046 0.950 . S
C1024 C1023 1.349 . S
C1024 C1036 1.349 . S
C1025 C1023 1.327 . S
C1025 C1041 1.429 . S
C1025 H1047 0.950 . S
C1026 H1022 0.949 . S
C1026 C1034 1.574 1_556 S
C1026 C1042 1.368 . S
H1027 C1035 0.950 . S
H1028 C1033 0.950 . S
H1029 C1034 0.949 . S
H1030 C1036 0.950 . S
H1031 C1037 0.950 . S
H1032 C1038 0.949 . S
C1033 H1028 0.950 . S
C1033 C1035 1.327 . S
C1033 C1039 1.429 . S
C1034 C1026 1.574 1_554 S
C1034 H1029 0.949 . S
C1034 C1040 1.368 . S
C1035 C1019 1.349 . S
C1035 H1027 0.950 . S
C1035 C1033 1.327 . S
C1036 C1024 1.349 . S
C1036 H1030 0.950 . S
C1036 C1037 1.327 . S
C1037 H1031 0.950 . S
C1037 C1036 1.327 . S
C1037 C1041 1.429 . S
C1038 C1021 1.574 1_556 S
C1038 H1032 0.949 . S
C1038 C1042 1.368 . S
C1039 C1020 1.429 . S
C1039 C1033 1.429 . S
C1039 C1040 1.523 . S
C1040 C1021 1.368 . S
C1040 C1034 1.368 . S
C1040 C1039 1.523 . S
C1041 C1025 1.429 . S
C1041 C1037 1.429 . S
C1041 C1042 1.523 . S
C1042 C1026 1.368 . S
C1042 C1038 1.368 . S
C1042 C1041 1.523 . S
H1043 C1018 0.950 . S
H1044 C1020 0.950 . S
H1045 C1021 0.949 . S
H1046 C1023 0.950 . S
H1047 C1025 0.950 . S
C1048 C1049 1.349 . S
C1048 C1050 1.327 . S
C1048 H1073 0.950 . S
C1049 C1048 1.349 . S
C1049 C1065 1.349 . S
C1050 C1048 1.327 . S
C1050 C1069 1.429 . S
C1050 H1074 0.950 . S
C1051 C1068 1.574 . S
C1051 C1070 1.368 . S
C1051 H1075 0.949 . S
H1052 C1056 0.949 . S
C1053 C1054 1.349 . S
C1053 C1055 1.327 . S
C1053 H1076 0.950 . S
C1054 C1053 1.349 . S
C1054 C1066 1.349 . S
C1055 C1053 1.327 . S
C1055 C1071 1.429 . S
C1055 H1077 0.950 . S
C1056 H1052 0.949 . S
C1056 C1064 1.574 . S
C1056 C1072 1.368 . S
H1057 C1065 0.950 . S
H1058 C1063 0.950 . S
H1059 C1064 0.949 . S
H1060 C1066 0.950 . S
H1061 C1067 0.950 . S
H1062 C1068 0.949 . S
C1063 H1058 0.950 . S
C1063 C1065 1.327 . S
C1063 C1069 1.429 . S
C1064 C1056 1.574 . S
C1064 H1059 0.949 . S
C1064 C1070 1.368 . S
C1065 C1049 1.349 . S
C1065 H1057 0.950 . S
C1065 C1063 1.327 . S
C1066 C1054 1.349 . S
C1066 H1060 0.950 . S
C1066 C1067 1.327 . S
C1067 H1061 0.950 . S
C1067 C1066 1.327 . S
C1067 C1071 1.429 . S
C1068 C1051 1.574 . S
C1068 H1062 0.949 . S
C1068 C1072 1.368 . S
C1069 C1050 1.429 . S
C1069 C1063 1.429 . S
C1069 C1070 1.523 . S
C1070 C1051 1.368 . S
C1070 C1064 1.368 . S
C1070 C1069 1.523 . S
C1071 C1055 1.429 . S
C1071 C1067 1.429 . S
C1071 C1072 1.523 . S
C1072 C1056 1.368 . S
C1072 C1068 1.368 . S
C1072 C1071 1.523 . S
H1073 C1048 0.950 . S
H1074 C1050 0.950 . S
H1075 C1051 0.949 . S
H1076 C1053 0.950 . S
H1077 C1055 0.950 . S
C1078 C1079 1.349 . S
C1078 C1080 1.327 . S
C1078 H1103 0.950 . S
C1079 C1078 1.349 . S
C1079 C1095 1.349 . S
C1080 C1078 1.327 . S
C1080 C1099 1.429 . S
C1080 H1104 0.950 . S
C1081 C1098 1.574 . S
C1081 C1100 1.368 . S
C1081 H1105 0.949 . S
H1082 C1086 0.949 . S
C1083 C1084 1.349 . S
C1083 C1085 1.327 . S
C1083 H1106 0.950 . S
C1084 C1083 1.349 . S
C1084 C1096 1.349 . S
C1085 C1083 1.327 . S
C1085 C1101 1.429 . S
C1085 H1107 0.950 . S
C1086 H1082 0.949 . S
C1086 C1094 1.574 . S
C1086 C1102 1.368 . S
H1087 C1095 0.950 . S
H1088 C1093 0.950 . S
H1089 C1094 0.949 . S
H1090 C1096 0.950 . S
H1091 C1097 0.950 . S
H1092 C1098 0.949 . S
C1093 H1088 0.950 . S
C1093 C1095 1.327 . S
C1093 C1099 1.429 . S
C1094 C1086 1.574 . S
C1094 H1089 0.949 . S
C1094 C1100 1.368 . S
C1095 C1079 1.349 . S
C1095 H1087 0.950 . S
C1095 C1093 1.327 . S
C1096 C1084 1.349 . S
C1096 H1090 0.950 . S
C1096 C1097 1.327 . S
C1097 H1091 0.950 . S
C1097 C1096 1.327 . S
C1097 C1101 1.429 . S
C1098 C1081 1.574 . S
C1098 H1092 0.949 . S
C1098 C1102 1.368 . S
C1099 C1080 1.429 . S
C1099 C1093 1.429 . S
C1099 C1100 1.523 . S
C1100 C1081 1.368 . S
C1100 C1094 1.368 . S
C1100 C1099 1.523 . S
C1101 C1085 1.429 . S
C1101 C1097 1.429 . S
C1101 C1102 1.523 . S
C1102 C1086 1.368 . S
C1102 C1098 1.368 . S
C1102 C1101 1.523 . S
H1103 C1078 0.950 . S
H1104 C1080 0.950 . S
H1105 C1081 0.949 . S
H1106 C1083 0.950 . S
H1107 C1085 0.950 . S
C1108 C1109 1.349 . S
C1108 C1110 1.327 . S
C1108 H1133 0.950 . S
C1109 C1108 1.349 . S
C1109 C1125 1.349 . S
C1110 C1108 1.327 . S
C1110 C1129 1.429 . S
C1110 H1134 0.950 . S
C1111 C1128 1.574 . S
C1111 C1130 1.368 1_655 S
C1111 H1135 0.949 . S
H1112 C1116 0.949 . S
C1113 C1114 1.349 . S
C1113 C1115 1.327 . S
C1113 H1136 0.950 . S
C1114 C1113 1.349 . S
C1114 C1126 1.349 . S
C1115 C1113 1.327 . S
C1115 C1131 1.429 . S
C1115 H1137 0.950 . S
C1116 H1112 0.949 . S
C1116 C1124 1.574 . S
C1116 C1132 1.368 1_455 S
H1117 C1125 0.950 . S
H1118 C1123 0.950 1_655 S
H1119 C1124 0.949 . S
H1120 C1126 0.950 . S
H1121 C1127 0.950 1_455 S
H1122 C1128 0.949 . S
C1123 H1118 0.950 1_455 S
C1123 C1125 1.327 . S
C1123 C1129 1.429 . S
C1124 C1116 1.574 . S
C1124 H1119 0.949 . S
C1124 C1130 1.368 . S
C1125 C1109 1.349 . S
C1125 H1117 0.950 . S
C1125 C1123 1.327 . S
C1126 C1114 1.349 . S
C1126 H1120 0.950 . S
C1126 C1127 1.327 . S
C1127 H1121 0.950 1_655 S
C1127 C1126 1.327 . S
C1127 C1131 1.429 . S
C1128 C1111 1.574 . S
C1128 H1122 0.949 . S
C1128 C1132 1.368 . S
C1129 C1110 1.429 . S
C1129 C1123 1.429 . S
C1129 C1130 1.523 . S
C1130 C1111 1.368 1_455 S
C1130 C1124 1.368 . S
C1130 C1129 1.523 . S
C1131 C1115 1.429 . S
C1131 C1127 1.429 . S
C1131 C1132 1.523 . S
C1132 C1116 1.368 1_655 S
C1132 C1128 1.368 . S
C1132 C1131 1.523 . S
H1133 C1108 0.950 . S
H1134 C1110 0.950 . S
H1135 C1111 0.949 . S
H1136 C1113 0.950 . S
H1137 C1115 0.950 . S
C1138 C1139 1.349 . S
C1138 C1140 1.327 . S
C1138 H1163 0.950 . S
C1139 C1138 1.349 . S
C1139 C1155 1.349 . S
C1140 C1138 1.327 . S
C1140 C1159 1.429 . S
C1140 H1164 0.950 . S
C1141 C1158 1.574 1_554 S
C1141 C1160 1.368 . S
C1141 H1165 0.949 . S
H1142 C1146 0.949 . S
C1143 C1144 1.349 . S
C1143 C1145 1.327 . S
C1143 H1166 0.950 . S
C1144 C1143 1.349 . S
C1144 C1156 1.349 . S
C1145 C1143 1.327 . S
C1145 C1161 1.429 . S
C1145 H1167 0.950 . S
C1146 H1142 0.949 . S
C1146 C1154 1.574 1_556 S
C1146 C1162 1.368 . S
H1147 C1155 0.950 . S
H1148 C1153 0.950 . S
H1149 C1154 0.949 . S
H1150 C1156 0.950 . S
H1151 C1157 0.950 . S
H1152 C1158 0.949 . S
C1153 H1148 0.950 . S
C1153 C1155 1.327 . S
C1153 C1159 1.429 . S
C1154 C1146 1.574 1_554 S
C1154 H1149 0.949 . S
C1154 C1160 1.368 . S
C1155 C1139 1.349 . S
C1155 H1147 0.950 . S
C1155 C1153 1.327 . S
C1156 C1144 1.349 . S
C1156 H1150 0.950 . S
C1156 C1157 1.327 . S
C1157 H1151 0.950 . S
C1157 C1156 1.327 . S
C1157 C1161 1.429 . S
C1158 C1141 1.574 1_556 S
C1158 H1152 0.949 . S
C1158 C1162 1.368 . S
C1159 C1140 1.429 . S
C1159 C1153 1.429 . S
C1159 C1160 1.523 . S
C1160 C1141 1.368 . S
C1160 C1154 1.368 . S
C1160 C1159 1.523 . S
C1161 C1145 1.429 . S
C1161 C1157 1.429 . S
C1161 C1162 1.523 . S
C1162 C1146 1.368 . S
C1162 C1158 1.368 . S
C1162 C1161 1.523 . S
H1163 C1138 0.950 . S
H1164 C1140 0.950 . S
H1165 C1141 0.949 . S
H1166 C1143 0.950 . S
H1167 C1145 0.950 . S
C1168 C1169 1.349 . S
C1168 C1170 1.327 . S
C1168 H1193 0.950 . S
C1169 C1168 1.349 . S
C1169 C1185 1.349 . S
C1170 C1168 1.327 . S
C1170 C1189 1.429 . S
C1170 H1194 0.950 . S
C1171 C1188 1.574 . S
C1171 C1190 1.368 . S
C1171 H1195 0.949 . S
H1172 C1176 0.949 . S
C1173 C1174 1.349 . S
C1173 C1175 1.327 . S
C1173 H1196 0.950 . S
C1174 C1173 1.349 . S
C1174 C1186 1.349 . S
C1175 C1173 1.327 . S
C1175 C1191 1.429 . S
C1175 H1197 0.950 . S
C1176 H1172 0.949 . S
C1176 C1184 1.574 . S
C1176 C1192 1.368 . S
H1177 C1185 0.950 . S
H1178 C1183 0.950 . S
H1179 C1184 0.949 . S
H1180 C1186 0.950 . S
H1181 C1187 0.950 . S
H1182 C1188 0.949 . S
C1183 H1178 0.950 . S
C1183 C1185 1.327 . S
C1183 C1189 1.429 . S
C1184 C1176 1.574 . S
C1184 H1179 0.949 . S
C1184 C1190 1.368 . S
C1185 C1169 1.349 . S
C1185 H1177 0.950 . S
C1185 C1183 1.327 . S
C1186 C1174 1.349 . S
C1186 H1180 0.950 . S
C1186 C1187 1.327 . S
C1187 H1181 0.950 . S
C1187 C1186 1.327 . S
C1187 C1191 1.429 . S
C1188 C1171 1.574 . S
C1188 H1182 0.949 . S
C1188 C1192 1.368 . S
C1189 C1170 1.429 . S
C1189 C1183 1.429 . S
C1189 C1190 1.523 . S
C1190 C1171 1.368 . S
C1190 C1184 1.368 . S
C1190 C1189 1.523 . S
C1191 C1175 1.429 . S
C1191 C1187 1.429 . S
C1191 C1192 1.523 . S
C1192 C1176 1.368 . S
C1192 C1188 1.368 . S
C1192 C1191 1.523 . S
H1193 C1168 0.950 . S
H1194 C1170 0.950 . S
H1195 C1171 0.949 . S
H1196 C1173 0.950 . S
H1197 C1175 0.950 . S
C1198 C1199 1.349 . S
C1198 C1200 1.327 . S
C1198 H1223 0.950 . S
C1199 C1198 1.349 . S
C1199 C1215 1.349 . S
C1200 C1198 1.327 . S
C1200 C1219 1.429 . S
C1200 H1224 0.950 . S
C1201 C1218 1.574 . S
C1201 C1220 1.368 . S
C1201 H1225 0.949 . S
H1202 C1206 0.949 . S
C1203 C1204 1.349 . S
C1203 C1205 1.327 . S
C1203 H1226 0.950 . S
C1204 C1203 1.349 . S
C1204 C1216 1.349 . S
C1205 C1203 1.327 . S
C1205 C1221 1.429 . S
C1205 H1227 0.950 . S
C1206 H1202 0.949 . S
C1206 C1214 1.574 . S
C1206 C1222 1.368 . S
H1207 C1215 0.950 . S
H1208 C1213 0.950 . S
H1209 C1214 0.949 . S
H1210 C1216 0.950 . S
H1211 C1217 0.950 . S
H1212 C1218 0.949 . S
C1213 H1208 0.950 . S
C1213 C1215 1.327 . S
C1213 C1219 1.429 . S
C1214 C1206 1.574 . S
C1214 H1209 0.949 . S
C1214 C1220 1.368 . S
C1215 C1199 1.349 . S
C1215 H1207 0.950 . S
C1215 C1213 1.327 . S
C1216 C1204 1.349 . S
C1216 H1210 0.950 . S
C1216 C1217 1.327 . S
C1217 H1211 0.950 . S
C1217 C1216 1.327 . S
C1217 C1221 1.429 . S
C1218 C1201 1.574 . S
C1218 H1212 0.949 . S
C1218 C1222 1.368 . S
C1219 C1200 1.429 . S
C1219 C1213 1.429 . S
C1219 C1220 1.523 . S
C1220 C1201 1.368 . S
C1220 C1214 1.368 . S
C1220 C1219 1.523 . S
C1221 C1205 1.429 . S
C1221 C1217 1.429 . S
C1221 C1222 1.523 . S
C1222 C1206 1.368 . S
C1222 C1218 1.368 . S
C1222 C1221 1.523 . S
H1223 C1198 0.950 . S
H1224 C1200 0.950 . S
H1225 C1201 0.949 . S
H1226 C1203 0.950 . S
H1227 C1205 0.950 . S
C1228 C1229 1.349 . S
C1228 C1230 1.327 . S
C1228 H1253 0.950 . S
C1229 C1228 1.349 . S
C1229 C1245 1.349 . S
C1230 C1228 1.327 . S
C1230 C1249 1.429 . S
C1230 H1254 0.950 . S
C1231 C1248 1.574 . S
C1231 C1250 1.368 1_655 S
C1231 H1255 0.949 . S
H1232 C1236 0.949 . S
C1233 C1234 1.349 . S
C1233 C1235 1.327 . S
C1233 H1256 0.950 . S
C1234 C1233 1.349 . S
C1234 C1246 1.349 . S
C1235 C1233 1.327 . S
C1235 C1251 1.429 . S
C1235 H1257 0.950 . S
C1236 H1232 0.949 . S
C1236 C1244 1.574 . S
C1236 C1252 1.368 1_455 S
H1237 C1245 0.950 . S
H1238 C1243 0.950 1_655 S
H1239 C1244 0.949 . S
H1240 C1246 0.950 . S
H1241 C1247 0.950 1_455 S
H1242 C1248 0.949 . S
C1243 H1238 0.950 1_455 S
C1243 C1245 1.327 . S
C1243 C1249 1.429 . S
C1244 C1236 1.574 . S
C1244 H1239 0.949 . S
C1244 C1250 1.368 . S
C1245 C1229 1.349 . S
C1245 H1237 0.950 . S
C1245 C1243 1.327 . S
C1246 C1234 1.349 . S
C1246 H1240 0.950 . S
C1246 C1247 1.327 . S
C1247 H1241 0.950 1_655 S
C1247 C1246 1.327 . S
C1247 C1251 1.429 . S
C1248 C1231 1.574 . S
C1248 H1242 0.949 . S
C1248 C1252 1.368 . S
C1249 C1230 1.429 . S
C1249 C1243 1.429 . S
C1249 C1250 1.523 . S
C1250 C1231 1.368 1_455 S
C1250 C1244 1.368 . S
C1250 C1249 1.523 . S
C1251 C1235 1.429 . S
C1251 C1247 1.429 . S
C1251 C1252 1.523 . S
C1252 C1236 1.368 1_655 S
C1252 C1248 1.368 . S
C1252 C1251 1.523 . S
H1253 C1228 0.950 . S
H1254 C1230 0.950 . S
H1255 C1231 0.949 . S
H1256 C1233 0.950 . S
H1257 C1235 0.950 . S
C1258 C1259 1.349 . S
C1258 C1260 1.327 . S
C1258 H1283 0.950 . S
C1259 C1258 1.349 . S
C1259 C1275 1.349 . S
C1260 C1258 1.327 . S
C1260 C1279 1.429 . S
C1260 H1284 0.950 . S
C1261 C1278 1.574 1_556 S
C1261 C1280 1.368 . S
C1261 H1285 0.949 . S
H1262 C1266 0.955 . S
C1263 C1264 1.349 . S
C1263 C1265 1.327 . S
C1263 H1286 0.950 . S
C1264 C1263 1.349 . S
C1264 C1276 1.349 . S
C1265 C1263 1.327 . S
C1265 C1281 1.429 . S
C1265 H1287 0.950 . S
C1266 H1262 0.955 . S
C1266 C1274 1.555 1_554 S
C1266 C1282 1.381 . S
H1267 C1275 0.950 . S
H1268 C1273 0.950 . S
H1269 C1274 0.949 . S
H1270 C1276 0.950 . S
H1271 C1277 0.950 . S
H1272 C1278 0.949 . S
C1273 H1268 0.950 . S
C1273 C1275 1.327 . S
C1273 C1279 1.429 . S
C1274 C1266 1.555 1_556 S
C1274 H1269 0.949 . S
C1274 C1280 1.368 . S
C1275 C1259 1.349 . S
C1275 H1267 0.950 . S
C1275 C1273 1.327 . S
C1276 C1264 1.349 . S
C1276 H1270 0.950 . S
C1276 C1277 1.327 . S
C1277 H1271 0.950 . S
C1277 C1276 1.327 . S
C1277 C1281 1.429 . S
C1278 C1261 1.574 1_554 S
C1278 H1272 0.949 . S
C1278 C1282 1.368 . S
C1279 C1260 1.429 . S
C1279 C1273 1.429 . S
C1279 C1280 1.523 . S
C1280 C1261 1.368 . S
C1280 C1274 1.368 . S
C1280 C1279 1.523 . S
C1281 C1265 1.429 . S
C1281 C1277 1.429 . S
C1281 C1282 1.523 . S
C1282 C1266 1.381 . S
C1282 C1278 1.368 . S
C1282 C1281 1.523 . S
H1283 C1258 0.950 . S
H1284 C1260 0.950 . S
H1285 C1261 0.949 . S
H1286 C1263 0.950 . S
H1287 C1265 0.950 . S
C1288 C1289 1.349 . S
C1288 C1290 1.327 . S
C1288 H1313 0.950 . S
C1289 C1288 1.349 . S
C1289 C1305 1.349 . S
C1290 C1288 1.327 . S
C1290 C1309 1.429 . S
C1290 H1314 0.950 . S
C1291 C1308 1.574 . S
C1291 C1310 1.368 . S
C1291 H1315 0.949 . S
H1292 C1296 0.949 . S
C1293 C1294 1.349 . S
C1293 C1295 1.327 . S
C1293 H1316 0.950 . S
C1294 C1293 1.349 . S
C1294 C1306 1.349 . S
C1295 C1293 1.327 . S
C1295 C1311 1.429 . S
C1295 H1317 0.950 . S
C1296 H1292 0.949 . S
C1296 C1304 1.574 . S
C1296 C1312 1.368 . S
H1297 C1305 0.950 . S
H1298 C1303 0.950 . S
H1299 C1304 0.949 . S
H1300 C1306 0.950 . S
H1301 C1307 0.950 . S
H1302 C1308 0.949 . S
C1303 H1298 0.950 . S
C1303 C1305 1.327 . S
C1303 C1309 1.429 . S
C1304 C1296 1.574 . S
C1304 H1299 0.949 . S
C1304 C1310 1.368 . S
C1305 C1289 1.349 . S
C1305 H1297 0.950 . S
C1305 C1303 1.327 . S
C1306 C1294 1.349 . S
C1306 H1300 0.950 . S
C1306 C1307 1.327 . S
C1307 H1301 0.950 . S
C1307 C1306 1.327 . S
C1307 C1311 1.429 . S
C1308 C1291 1.574 . S
C1308 H1302 0.949 . S
C1308 C1312 1.368 . S
C1309 C1290 1.429 . S
C1309 C1303 1.429 . S
C1309 C1310 1.523 . S
C1310 C1291 1.368 . S
C1310 C1304 1.368 . S
C1310 C1309 1.523 . S
C1311 C1295 1.429 . S
C1311 C1307 1.429 . S
C1311 C1312 1.523 . S
C1312 C1296 1.368 . S
C1312 C1308 1.368 . S
C1312 C1311 1.523 . S
H1313 C1288 0.950 . S
H1314 C1290 0.950 . S
H1315 C1291 0.949 . S
H1316 C1293 0.950 . S
H1317 C1295 0.950 . S
C1318 C1319 1.349 . S
C1318 C1320 1.327 . S
C1318 H1343 0.950 . S
C1319 C1318 1.349 . S
C1319 C1335 1.349 . S
C1320 C1318 1.327 . S
C1320 C1339 1.429 . S
C1320 H1344 0.950 . S
C1321 C1338 1.574 . S
C1321 C1340 1.368 . S
C1321 H1345 0.949 . S
H1322 C1326 0.949 . S
C1323 C1324 1.349 . S
C1323 C1325 1.327 . S
C1323 H1346 0.950 . S
C1324 C1323 1.349 . S
C1324 C1336 1.349 . S
C1325 C1323 1.327 . S
C1325 C1341 1.429 . S
C1325 H1347 0.950 . S
C1326 H1322 0.949 . S
C1326 C1334 1.574 . S
C1326 C1342 1.368 . S
H1327 C1335 0.950 . S
H1328 C1333 0.950 . S
H1329 C1334 0.949 . S
H1330 C1336 0.950 . S
H1331 C1337 0.950 . S
H1332 C1338 0.949 . S
C1333 H1328 0.950 . S
C1333 C1335 1.327 . S
C1333 C1339 1.429 . S
C1334 C1326 1.574 . S
C1334 H1329 0.949 . S
C1334 C1340 1.368 . S
C1335 C1319 1.349 . S
C1335 H1327 0.950 . S
C1335 C1333 1.327 . S
C1336 C1324 1.349 . S
C1336 H1330 0.950 . S
C1336 C1337 1.327 . S
C1337 H1331 0.950 . S
C1337 C1336 1.327 . S
C1337 C1341 1.429 . S
C1338 C1321 1.574 . S
C1338 H1332 0.949 . S
C1338 C1342 1.368 . S
C1339 C1320 1.429 . S
C1339 C1333 1.429 . S
C1339 C1340 1.523 . S
C1340 C1321 1.368 . S
C1340 C1334 1.368 . S
C1340 C1339 1.523 . S
C1341 C1325 1.429 . S
C1341 C1337 1.429 . S
C1341 C1342 1.523 . S
C1342 C1326 1.368 . S
C1342 C1338 1.368 . S
C1342 C1341 1.523 . S
H1343 C1318 0.950 . S
H1344 C1320 0.950 . S
H1345 C1321 0.949 . S
H1346 C1323 0.950 . S
H1347 C1325 0.950 . S
C1348 C1349 1.349 . S
C1348 C1350 1.327 . S
C1348 H1373 0.950 . S
C1349 C1348 1.349 . S
C1349 C1365 1.349 . S
C1350 C1348 1.327 . S
C1350 C1369 1.429 . S
C1350 H1374 0.950 . S
C1351 C1368 1.574 . S
C1351 C1370 1.368 1_455 S
C1351 H1375 0.949 . S
H1352 C1356 0.949 . S
C1353 C1354 1.349 . S
C1353 C1355 1.327 . S
C1353 H1376 0.950 . S
C1354 C1353 1.349 . S
C1354 C1366 1.349 . S
C1355 C1353 1.327 . S
C1355 C1371 1.429 . S
C1355 H1377 0.950 . S
C1356 H1352 0.949 . S
C1356 C1364 1.574 . S
C1356 C1372 1.368 1_655 S
H1357 C1365 0.950 . S
H1358 C1363 0.950 1_455 S
H1359 C1364 0.949 . S
H1360 C1366 0.950 . S
H1361 C1367 0.950 1_655 S
H1362 C1368 0.949 . S
C1363 H1358 0.950 1_655 S
C1363 C1365 1.327 . S
C1363 C1369 1.429 . S
C1364 C1356 1.574 . S
C1364 H1359 0.949 . S
C1364 C1370 1.368 . S
C1365 C1349 1.349 . S
C1365 H1357 0.950 . S
C1365 C1363 1.327 . S
C1366 C1354 1.349 . S
C1366 H1360 0.950 . S
C1366 C1367 1.327 . S
C1367 H1361 0.950 1_455 S
C1367 C1366 1.327 . S
C1367 C1371 1.429 . S
C1368 C1351 1.574 . S
C1368 H1362 0.949 . S
C1368 C1372 1.368 . S
C1369 C1350 1.429 . S
C1369 C1363 1.429 . S
C1369 C1370 1.523 . S
C1370 C1351 1.368 1_655 S
C1370 C1364 1.368 . S
C1370 C1369 1.523 . S
C1371 C1355 1.429 . S
C1371 C1367 1.429 . S
C1371 C1372 1.523 . S
C1372 C1356 1.368 1_455 S
C1372 C1368 1.368 . S
C1372 C1371 1.523 . S
H1373 C1348 0.950 . S
H1374 C1350 0.950 . S
H1375 C1351 0.949 . S
H1376 C1353 0.950 . S
H1377 C1355 0.950 . S
C1378 C1379 1.349 . S
C1378 C1380 1.327 . S
C1378 H1403 0.950 . S
C1379 C1378 1.349 . S
C1379 C1395 1.349 . S
C1380 C1378 1.327 . S
C1380 C1399 1.429 . S
C1380 H1404 0.950 . S
C1381 C1398 1.574 1_554 S
C1381 C1400 1.368 . S
C1381 H1405 0.949 . S
H1382 C1386 0.949 . S
C1383 C1384 1.349 . S
C1383 C1385 1.327 . S
C1383 H1406 0.950 . S
C1384 C1383 1.349 . S
C1384 C1396 1.349 . S
C1385 C1383 1.327 . S
C1385 C1401 1.429 . S
C1385 H1407 0.950 . S
C1386 H1382 0.949 . S
C1386 C1394 1.574 1_556 S
C1386 C1402 1.368 . S
H1387 C1395 0.950 . S
H1388 C1393 0.950 . S
H1389 C1394 0.949 . S
H1390 C1396 0.950 . S
H1391 C1397 0.950 . S
H1392 C1398 0.949 . S
C1393 H1388 0.950 . S
C1393 C1395 1.327 . S
C1393 C1399 1.429 . S
C1394 C1386 1.574 1_554 S
C1394 H1389 0.949 . S
C1394 C1400 1.368 . S
C1395 C1379 1.349 . S
C1395 H1387 0.950 . S
C1395 C1393 1.327 . S
C1396 C1384 1.349 . S
C1396 H1390 0.950 . S
C1396 C1397 1.327 . S
C1397 H1391 0.950 . S
C1397 C1396 1.327 . S
C1397 C1401 1.429 . S
C1398 C1381 1.574 1_556 S
C1398 H1392 0.949 . S
C1398 C1402 1.368 . S
C1399 C1380 1.429 . S
C1399 C1393 1.429 . S
C1399 C1400 1.523 . S
C1400 C1381 1.368 . S
C1400 C1394 1.368 . S
C1400 C1399 1.523 . S
C1401 C1385 1.429 . S
C1401 C1397 1.429 . S
C1401 C1402 1.523 . S
C1402 C1386 1.368 . S
C1402 C1398 1.368 . S
C1402 C1401 1.523 . S
H1403 C1378 0.950 . S
H1404 C1380 0.950 . S
H1405 C1381 0.949 . S
H1406 C1383 0.950 . S
H1407 C1385 0.950 . S
C1408 C1409 1.349 . S
C1408 C1410 1.327 . S
C1408 H1433 0.950 . S
C1409 C1408 1.349 . S
C1409 C1425 1.349 1_554 S
C1410 C1408 1.327 . S
C1410 C1429 1.429 . S
C1410 H1434 0.950 . S
C1411 C1428 1.574 1_545 S
C1411 C1430 1.368 1_556 S
C1411 H1435 0.949 . S
H1412 C1416 0.949 . S
C1413 C1414 1.349 . S
C1413 C1415 1.327 . S
C1413 H1436 0.950 . S
C1414 C1413 1.349 . S
C1414 C1426 1.349 1_556 S
C1415 C1413 1.327 . S
C1415 C1431 1.429 . S
C1415 H1437 0.950 . S
C1416 H1412 0.949 . S
C1416 C1424 1.574 1_565 S
C1416 C1432 1.368 1_554 S
H1417 C1425 0.950 . S
H1418 C1423 0.950 . S
H1419 C1424 0.949 . S
H1420 C1426 0.950 . S
H1421 C1427 0.950 . S
H1422 C1428 0.949 . S
C1423 H1418 0.950 . S
C1423 C1425 1.327 . S
C1423 C1429 1.429 1_556 S
C1424 C1416 1.574 1_545 S
C1424 H1419 0.949 . S
C1424 C1430 1.368 1_655 S
C1425 C1409 1.349 1_556 S
C1425 H1417 0.950 . S
C1425 C1423 1.327 . S
C1426 C1414 1.349 1_554 S
C1426 H1420 0.950 . S
C1426 C1427 1.327 . S
C1427 H1421 0.950 . S
C1427 C1426 1.327 . S
C1427 C1431 1.429 1_554 S
C1428 C1411 1.574 1_565 S
C1428 H1422 0.949 . S
C1428 C1432 1.368 1_455 S
C1429 C1410 1.429 . S
C1429 C1423 1.429 1_554 S
C1429 C1430 1.523 . S
C1430 C1411 1.368 1_554 S
C1430 C1424 1.368 1_455 S
C1430 C1429 1.523 . S
C1431 C1415 1.429 . S
C1431 C1427 1.429 1_556 S
C1431 C1432 1.523 . S
C1432 C1416 1.368 1_556 S
C1432 C1428 1.368 1_655 S
C1432 C1431 1.523 . S
H1433 C1408 0.950 . S
H1434 C1410 0.950 . S
H1435 C1411 0.949 . S
H1436 C1413 0.950 . S
H1437 C1415 0.950 . S
C1438 C1439 1.349 . S
C1438 C1440 1.327 . S
C1438 H1463 0.950 . S
C1439 C1438 1.349 . S
C1439 C1455 1.349 . S
C1440 C1438 1.327 . S
C1440 C1459 1.429 . S
C1440 H1464 0.950 . S
C1441 C1458 1.574 . S
C1441 C1460 1.368 . S
C1441 H1465 0.949 . S
H1442 C1446 0.949 . S
C1443 C1444 1.349 . S
C1443 C1445 1.327 . S
C1443 H1466 0.950 . S
C1444 C1443 1.349 . S
C1444 C1456 1.349 . S
C1445 C1443 1.327 . S
C1445 C1461 1.429 . S
C1445 H1467 0.950 . S
C1446 H1442 0.949 . S
C1446 C1454 1.574 . S
C1446 C1462 1.368 . S
H1447 C1455 0.950 . S
H1448 C1453 0.950 . S
H1449 C1454 0.949 . S
H1450 C1456 0.950 . S
H1451 C1457 0.950 . S
H1452 C1458 0.949 . S
C1453 H1448 0.950 . S
C1453 C1455 1.327 . S
C1453 C1459 1.429 . S
C1454 C1446 1.574 . S
C1454 H1449 0.949 . S
C1454 C1460 1.368 . S
C1455 C1439 1.349 . S
C1455 H1447 0.950 . S
C1455 C1453 1.327 . S
C1456 C1444 1.349 . S
C1456 H1450 0.950 . S
C1456 C1457 1.327 . S
C1457 H1451 0.950 . S
C1457 C1456 1.327 . S
C1457 C1461 1.429 . S
C1458 C1441 1.574 . S
C1458 H1452 0.949 . S
C1458 C1462 1.368 . S
C1459 C1440 1.429 . S
C1459 C1453 1.429 . S
C1459 C1460 1.523 . S
C1460 C1441 1.368 . S
C1460 C1454 1.368 . S
C1460 C1459 1.523 . S
C1461 C1445 1.429 . S
C1461 C1457 1.429 . S
C1461 C1462 1.523 . S
C1462 C1446 1.368 . S
C1462 C1458 1.368 . S
C1462 C1461 1.523 . S
H1463 C1438 0.950 . S
H1464 C1440 0.950 . S
H1465 C1441 0.949 . S
H1466 C1443 0.950 . S
H1467 C1445 0.950 . S
C1468 C1469 1.349 . S
C1468 C1470 1.327 . S
C1468 H1493 0.950 . S
C1469 C1468 1.349 . S
C1469 C1485 1.349 . S
C1470 C1468 1.327 . S
C1470 C1489 1.429 . S
C1470 H1494 0.950 . S
C1471 C1488 1.574 1_545 S
C1471 C1490 1.368 . S
C1471 H1495 0.949 . S
H1472 C1476 0.949 . S
C1473 C1474 1.349 . S
C1473 C1475 1.327 . S
C1473 H1496 0.950 . S
C1474 C1473 1.349 . S
C1474 C1486 1.349 . S
C1475 C1473 1.327 . S
C1475 C1491 1.429 . S
C1475 H1497 0.950 . S
C1476 H1472 0.949 . S
C1476 C1484 1.574 1_565 S
C1476 C1492 1.368 . S
H1477 C1485 0.950 . S
H1478 C1483 0.950 . S
H1479 C1484 0.949 . S
H1480 C1486 0.950 . S
H1481 C1487 0.950 . S
H1482 C1488 0.949 . S
C1483 H1478 0.950 . S
C1483 C1485 1.327 . S
C1483 C1489 1.429 . S
C1484 C1476 1.574 1_545 S
C1484 H1479 0.949 . S
C1484 C1490 1.368 . S
C1485 C1469 1.349 . S
C1485 H1477 0.950 . S
C1485 C1483 1.327 . S
C1486 C1474 1.349 . S
C1486 H1480 0.950 . S
C1486 C1487 1.327 . S
C1487 H1481 0.950 . S
C1487 C1486 1.327 . S
C1487 C1491 1.429 . S
C1488 C1471 1.574 1_565 S
C1488 H1482 0.949 . S
C1488 C1492 1.368 . S
C1489 C1470 1.429 . S
C1489 C1483 1.429 . S
C1489 C1490 1.523 . S
C1490 C1471 1.368 . S
C1490 C1484 1.368 . S
C1490 C1489 1.523 . S
C1491 C1475 1.429 . S
C1491 C1487 1.429 . S
C1491 C1492 1.523 . S
C1492 C1476 1.368 . S
C1492 C1488 1.368 . S
C1492 C1491 1.523 . S
H1493 C1468 0.950 . S
H1494 C1470 0.950 . S
H1495 C1471 0.949 . S
H1496 C1473 0.950 . S
H1497 C1475 0.950 . S
C1498 C1499 1.349 . S
C1498 C1500 1.327 . S
C1498 H1523 0.950 . S
C1499 C1498 1.349 . S
C1499 C1515 1.349 . S
C1500 C1498 1.327 . S
C1500 C1519 1.429 . S
C1500 H1524 0.950 . S
C1501 C1518 1.574 . S
C1501 C1520 1.368 . S
C1501 H1525 0.949 . S
H1502 C1506 0.949 . S
C1503 C1504 1.349 . S
C1503 C1505 1.327 . S
C1503 H1526 0.950 . S
C1504 C1503 1.349 . S
C1504 C1516 1.349 . S
C1505 C1503 1.327 . S
C1505 C1521 1.429 . S
C1505 H1527 0.950 . S
C1506 H1502 0.949 . S
C1506 C1514 1.574 . S
C1506 C1522 1.368 . S
H1507 C1515 0.950 . S
H1508 C1513 0.950 . S
H1509 C1514 0.949 . S
H1510 C1516 0.950 . S
H1511 C1517 0.950 . S
H1512 C1518 0.949 . S
C1513 H1508 0.950 . S
C1513 C1515 1.327 . S
C1513 C1519 1.429 . S
C1514 C1506 1.574 . S
C1514 H1509 0.949 . S
C1514 C1520 1.368 . S
C1515 C1499 1.349 . S
C1515 H1507 0.950 . S
C1515 C1513 1.327 . S
C1516 C1504 1.349 . S
C1516 H1510 0.950 . S
C1516 C1517 1.327 . S
C1517 H1511 0.950 . S
C1517 C1516 1.327 . S
C1517 C1521 1.429 . S
C1518 C1501 1.574 . S
C1518 H1512 0.949 . S
C1518 C1522 1.368 . S
C1519 C1500 1.429 . S
C1519 C1513 1.429 . S
C1519 C1520 1.523 . S
C1520 C1501 1.368 . S
C1520 C1514 1.368 . S
C1520 C1519 1.523 . S
C1521 C1505 1.429 . S
C1521 C1517 1.429 . S
C1521 C1522 1.523 . S
C1522 C1506 1.368 . S
C1522 C1518 1.368 . S
C1522 C1521 1.523 . S
H1523 C1498 0.950 . S
H1524 C1500 0.950 . S
H1525 C1501 0.949 . S
H1526 C1503 0.950 . S
H1527 C1505 0.950 . S
C1528 C1529 1.349 . S
C1528 C1530 1.327 . S
C1528 H1553 0.950 . S
C1529 C1528 1.349 . S
C1529 C1545 1.349 . S
C1530 C1528 1.327 . S
C1530 C1549 1.429 . S
C1530 H1554 0.950 . S
C1531 C1548 1.574 1_565 S
C1531 C1550 1.368 1_655 S
C1531 H1555 0.949 . S
H1532 C1536 0.949 . S
C1533 C1534 1.349 . S
C1533 C1535 1.327 . S
C1533 H1556 0.950 . S
C1534 C1533 1.349 . S
C1534 C1546 1.349 . S
C1535 C1533 1.327 . S
C1535 C1551 1.429 . S
C1535 H1557 0.950 . S
C1536 H1532 0.949 . S
C1536 C1544 1.574 1_545 S
C1536 C1552 1.368 1_455 S
H1537 C1545 0.950 . S
H1538 C1543 0.886 1_655 S
H1539 C1544 0.949 . S
H1540 C1546 0.950 . S
H1541 C1547 0.886 1_455 S
H1542 C1548 0.949 . S
C1543 H1538 0.886 1_455 S
C1543 C1545 1.327 . S
C1543 C1549 1.429 . S
C1544 C1536 1.574 1_565 S
C1544 H1539 0.949 . S
C1544 C1550 1.368 . S
C1545 C1529 1.349 . S
C1545 H1537 0.950 . S
C1545 C1543 1.327 . S
C1546 C1534 1.349 . S
C1546 H1540 0.950 . S
C1546 C1547 1.327 . S
C1547 H1541 0.886 1_655 S
C1547 C1546 1.327 . S
C1547 C1551 1.429 . S
C1548 C1531 1.574 1_545 S
C1548 H1542 0.949 . S
C1548 C1552 1.368 . S
C1549 C1530 1.429 . S
C1549 C1543 1.429 . S
C1549 C1550 1.523 . S
C1550 C1531 1.368 1_455 S
C1550 C1544 1.368 . S
C1550 C1549 1.523 . S
C1551 C1535 1.429 . S
C1551 C1547 1.429 . S
C1551 C1552 1.523 . S
C1552 C1536 1.368 1_655 S
C1552 C1548 1.368 . S
C1552 C1551 1.523 . S
H1553 C1528 0.950 . S
H1554 C1530 0.950 . S
H1555 C1531 0.949 . S
H1556 C1533 0.950 . S
H1557 C1535 0.950 . S
C1558 C1559 1.349 . S
C1558 C1560 1.327 . S
C1558 H1583 0.950 . S
C1559 C1558 1.349 . S
C1559 C1575 1.349 . S
C1560 C1558 1.327 . S
C1560 C1579 1.429 . S
C1560 H1584 0.950 . S
C1561 C1578 1.574 . S
C1561 C1580 1.368 . S
C1561 H1585 0.949 . S
H1562 C1566 0.949 . S
C1563 C1564 1.349 . S
C1563 C1565 1.327 . S
C1563 H1586 0.950 . S
C1564 C1563 1.349 . S
C1564 C1576 1.349 . S
C1565 C1563 1.327 . S
C1565 C1581 1.429 . S
C1565 H1587 0.950 . S
C1566 H1562 0.949 . S
C1566 C1574 1.574 . S
C1566 C1582 1.368 . S
H1567 C1575 0.950 . S
H1568 C1573 0.950 . S
H1569 C1574 0.949 . S
H1570 C1576 0.950 . S
H1571 C1577 0.950 . S
H1572 C1578 0.949 . S
C1573 H1568 0.950 . S
C1573 C1575 1.327 . S
C1573 C1579 1.429 . S
C1574 C1566 1.574 . S
C1574 H1569 0.949 . S
C1574 C1580 1.368 . S
C1575 C1559 1.349 . S
C1575 H1567 0.950 . S
C1575 C1573 1.327 . S
C1576 C1564 1.349 . S
C1576 H1570 0.950 . S
C1576 C1577 1.327 . S
C1577 H1571 0.950 . S
C1577 C1576 1.327 . S
C1577 C1581 1.429 . S
C1578 C1561 1.574 . S
C1578 H1572 0.949 . S
C1578 C1582 1.368 . S
C1579 C1560 1.429 . S
C1579 C1573 1.429 . S
C1579 C1580 1.523 . S
C1580 C1561 1.368 . S
C1580 C1574 1.368 . S
C1580 C1579 1.523 . S
C1581 C1565 1.429 . S
C1581 C1577 1.429 . S
C1581 C1582 1.523 . S
C1582 C1566 1.368 . S
C1582 C1578 1.368 . S
C1582 C1581 1.523 . S
H1583 C1558 0.950 . S
H1584 C1560 0.950 . S
H1585 C1561 0.949 . S
H1586 C1563 0.950 . S
H1587 C1565 0.950 . S
C1588 C1589 1.349 1_556 S
C1588 C1590 1.327 . S
C1588 H1613 0.950 . S
C1589 C1588 1.349 1_554 S
C1589 C1605 1.349 . S
C1590 C1588 1.327 . S
C1590 C1609 1.429 1_556 S
C1590 H1614 0.950 . S
C1591 C1608 1.574 1_565 S
C1591 C1610 1.368 . S
C1591 H1615 0.949 . S
H1592 C1596 0.949 . S
C1593 C1594 1.349 1_554 S
C1593 C1595 1.327 . S
C1593 H1616 0.950 . S
C1594 C1593 1.349 1_556 S
C1594 C1606 1.349 . S
C1595 C1593 1.327 . S
C1595 C1611 1.429 1_554 S
C1595 H1617 0.950 . S
C1596 H1592 0.949 . S
C1596 C1604 1.574 1_545 S
C1596 C1612 1.368 . S
H1597 C1605 0.950 . S
H1598 C1603 0.950 . S
H1599 C1604 0.949 . S
H1600 C1606 0.950 . S
H1601 C1607 0.950 . S
H1602 C1608 0.949 . S
C1603 H1598 0.950 . S
C1603 C1605 1.327 . S
C1603 C1609 1.429 . S
C1604 C1596 1.574 1_565 S
C1604 H1599 0.949 . S
C1604 C1610 1.368 1_556 S
C1605 C1589 1.349 . S
C1605 H1597 0.950 . S
C1605 C1603 1.327 . S
C1606 C1594 1.349 . S
C1606 H1600 0.950 . S
C1606 C1607 1.327 . S
C1607 H1601 0.950 . S
C1607 C1606 1.327 . S
C1607 C1611 1.429 . S
C1608 C1591 1.574 1_545 S
C1608 H1602 0.949 . S
C1608 C1612 1.368 1_554 S
C1609 C1590 1.429 1_554 S
C1609 C1603 1.429 . S
C1609 C1610 1.523 . S
C1610 C1591 1.368 . S
C1610 C1604 1.368 1_554 S
C1610 C1609 1.523 . S
C1611 C1595 1.429 1_556 S
C1611 C1607 1.429 . S
C1611 C1612 1.523 . S
C1612 C1596 1.368 . S
C1612 C1608 1.368 1_556 S
C1612 C1611 1.523 . S
H1613 C1588 0.950 . S
H1614 C1590 0.950 . S
H1615 C1591 0.949 . S
H1616 C1593 0.950 . S
H1617 C1595 0.950 . S
C1618 C1619 1.349 . S
C1618 C1620 1.327 . S
C1618 H1643 0.950 . S
C1619 C1618 1.349 . S
C1619 C1635 1.349 . S
C1620 C1618 1.327 . S
C1620 C1639 1.429 . S
C1620 H1644 0.950 . S
C1621 C1638 1.574 . S
C1621 C1640 1.368 . S
C1621 H1645 0.949 . S
H1622 C1626 0.949 . S
C1623 C1624 1.349 . S
C1623 C1625 1.327 . S
C1623 H1646 0.950 . S
C1624 C1623 1.349 . S
C1624 C1636 1.349 . S
C1625 C1623 1.327 . S
C1625 C1641 1.429 . S
C1625 H1647 0.950 . S
C1626 H1622 0.949 . S
C1626 C1634 1.574 . S
C1626 C1642 1.368 . S
H1627 C1635 0.950 . S
H1628 C1633 0.950 . S
H1629 C1634 0.949 . S
H1630 C1636 0.950 . S
H1631 C1637 0.950 . S
H1632 C1638 0.949 . S
C1633 H1628 0.950 . S
C1633 C1635 1.327 . S
C1633 C1639 1.429 . S
C1634 C1626 1.574 . S
C1634 H1629 0.949 . S
C1634 C1640 1.368 . S
C1635 C1619 1.349 . S
C1635 H1627 0.950 . S
C1635 C1633 1.327 . S
C1636 C1624 1.349 . S
C1636 H1630 0.950 . S
C1636 C1637 1.327 . S
C1637 H1631 0.950 . S
C1637 C1636 1.327 . S
C1637 C1641 1.429 . S
C1638 C1621 1.574 . S
C1638 H1632 0.949 . S
C1638 C1642 1.368 . S
C1639 C1620 1.429 . S
C1639 C1633 1.429 . S
C1639 C1640 1.523 . S
C1640 C1621 1.368 . S
C1640 C1634 1.368 . S
C1640 C1639 1.523 . S
C1641 C1625 1.429 . S
C1641 C1637 1.429 . S
C1641 C1642 1.523 . S
C1642 C1626 1.368 . S
C1642 C1638 1.368 . S
C1642 C1641 1.523 . S
H1643 C1618 0.950 . S
H1644 C1620 0.950 . S
H1645 C1621 0.949 . S
H1646 C1623 0.950 . S
H1647 C1625 0.950 . S
C1648 C1649 1.349 . S
C1648 C1650 1.327 . S
C1648 H1673 0.950 . S
C1649 C1648 1.349 . S
C1649 C1665 1.349 . S
C1650 C1648 1.327 . S
C1650 C1669 1.429 . S
C1650 H1674 0.950 . S
C1651 C1668 1.574 . S
C1651 C1670 1.368 . S
C1651 H1675 0.949 . S
H1652 C1656 0.949 . S
C1653 C1654 1.349 . S
C1653 C1655 1.327 . S
C1653 H1676 0.950 . S
C1654 C1653 1.349 . S
C1654 C1666 1.349 . S
C1655 C1653 1.327 . S
C1655 C1671 1.429 . S
C1655 H1677 0.950 . S
C1656 H1652 0.949 . S
C1656 C1664 1.574 . S
C1656 C1672 1.368 . S
H1657 C1665 0.950 . S
H1658 C1663 0.950 . S
H1659 C1664 0.949 . S
H1660 C1666 0.950 . S
H1661 C1667 0.950 . S
H1662 C1668 0.949 . S
C1663 H1658 0.950 . S
C1663 C1665 1.327 . S
C1663 C1669 1.429 . S
C1664 C1656 1.574 . S
C1664 H1659 0.949 . S
C1664 C1670 1.368 . S
C1665 C1649 1.349 . S
C1665 H1657 0.950 . S
C1665 C1663 1.327 . S
C1666 C1654 1.349 . S
C1666 H1660 0.950 . S
C1666 C1667 1.327 . S
C1667 H1661 0.950 . S
C1667 C1666 1.327 . S
C1667 C1671 1.429 . S
C1668 C1651 1.574 . S
C1668 H1662 0.949 . S
C1668 C1672 1.368 . S
C1669 C1650 1.429 . S
C1669 C1663 1.429 . S
C1669 C1670 1.523 . S
C1670 C1651 1.368 . S
C1670 C1664 1.368 . S
C1670 C1669 1.523 . S
C1671 C1655 1.429 . S
C1671 C1667 1.429 . S
C1671 C1672 1.523 . S
C1672 C1656 1.368 . S
C1672 C1668 1.368 . S
C1672 C1671 1.523 . S
H1673 C1648 0.950 . S
H1674 C1650 0.950 . S
H1675 C1651 0.949 . S
H1676 C1653 0.950 . S
H1677 C1655 0.950 . S
C1678 C1679 1.349 . S
C1678 C1680 1.327 . S
C1678 H1703 0.950 . S
C1679 C1678 1.349 . S
C1679 C1695 1.349 . S
C1680 C1678 1.327 . S
C1680 C1699 1.429 . S
C1680 H1704 0.950 . S
C1681 C1698 1.574 . S
C1681 C1700 1.368 . S
C1681 H1705 0.949 . S
H1682 C1686 0.949 . S
C1683 C1684 1.349 . S
C1683 C1685 1.327 . S
C1683 H1706 0.950 . S
C1684 C1683 1.349 . S
C1684 C1696 1.349 . S
C1685 C1683 1.327 . S
C1685 C1701 1.429 . S
C1685 H1707 0.950 . S
C1686 H1682 0.949 . S
C1686 C1694 1.574 . S
C1686 C1702 1.368 . S
H1687 C1695 0.950 . S
H1688 C1693 0.950 . S
H1689 C1694 0.949 . S
H1690 C1696 0.950 . S
H1691 C1697 0.950 . S
H1692 C1698 0.949 . S
C1693 H1688 0.950 . S
C1693 C1695 1.327 . S
C1693 C1699 1.429 . S
C1694 C1686 1.574 . S
C1694 H1689 0.949 . S
C1694 C1700 1.368 . S
C1695 C1679 1.349 . S
C1695 H1687 0.950 . S
C1695 C1693 1.327 . S
C1696 C1684 1.349 . S
C1696 H1690 0.950 . S
C1696 C1697 1.327 . S
C1697 H1691 0.950 . S
C1697 C1696 1.327 . S
C1697 C1701 1.429 . S
C1698 C1681 1.574 . S
C1698 H1692 0.949 . S
C1698 C1702 1.368 . S
C1699 C1680 1.429 . S
C1699 C1693 1.429 . S
C1699 C1700 1.523 . S
C1700 C1681 1.368 . S
C1700 C1694 1.368 . S
C1700 C1699 1.523 . S
C1701 C1685 1.429 . S
C1701 C1697 1.429 . S
C1701 C1702 1.523 . S
C1702 C1686 1.368 . S
C1702 C1698 1.368 . S
C1702 C1701 1.523 . S
H1703 C1678 0.950 . S
H1704 C1680 0.950 . S
H1705 C1681 0.949 . S
H1706 C1683 0.950 . S
H1707 C1685 0.950 . S
C1708 C1709 1.349 . S
C1708 C1710 1.327 . S
C1708 H1733 0.950 . S
C1709 C1708 1.349 . S
C1709 C1725 1.349 . S
C1710 C1708 1.327 . S
C1710 C1729 1.429 . S
C1710 H1734 0.950 . S
C1711 C1728 1.574 . S
C1711 C1730 1.368 . S
C1711 H1735 0.949 . S
H1712 C1716 0.949 . S
C1713 C1714 1.349 . S
C1713 C1715 1.327 . S
C1713 H1736 0.950 . S
C1714 C1713 1.349 . S
C1714 C1726 1.349 . S
C1715 C1713 1.327 . S
C1715 C1731 1.429 . S
C1715 H1737 0.950 . S
C1716 H1712 0.949 . S
C1716 C1724 1.574 . S
C1716 C1732 1.368 . S
H1717 C1725 0.950 . S
H1718 C1723 0.950 . S
H1719 C1724 0.949 . S
H1720 C1726 0.950 . S
H1721 C1727 0.950 . S
H1722 C1728 0.949 . S
C1723 H1718 0.950 . S
C1723 C1725 1.327 . S
C1723 C1729 1.429 . S
C1724 C1716 1.574 . S
C1724 H1719 0.949 . S
C1724 C1730 1.368 . S
C1725 C1709 1.349 . S
C1725 H1717 0.950 . S
C1725 C1723 1.327 . S
C1726 C1714 1.349 . S
C1726 H1720 0.950 . S
C1726 C1727 1.327 . S
C1727 H1721 0.950 . S
C1727 C1726 1.327 . S
C1727 C1731 1.429 . S
C1728 C1711 1.574 . S
C1728 H1722 0.949 . S
C1728 C1732 1.368 . S
C1729 C1710 1.429 . S
C1729 C1723 1.429 . S
C1729 C1730 1.523 . S
C1730 C1711 1.368 . S
C1730 C1724 1.368 . S
C1730 C1729 1.523 . S
C1731 C1715 1.429 . S
C1731 C1727 1.429 . S
C1731 C1732 1.523 . S
C1732 C1716 1.368 . S
C1732 C1728 1.368 . S
C1732 C1731 1.523 . S
H1733 C1708 0.950 . S
H1734 C1710 0.950 . S
H1735 C1711 0.949 . S
H1736 C1713 0.950 . S
H1737 C1715 0.950 . S
C1738 C1739 1.349 . S
C1738 C1740 1.327 . S
C1738 H1763 0.950 . S
C1739 C1738 1.349 . S
C1739 C1755 1.349 . S
C1740 C1738 1.327 . S
C1740 C1759 1.429 . S
C1740 H1764 0.950 . S
C1741 C1758 1.574 . S
C1741 C1760 1.368 . S
C1741 H1765 0.949 . S
H1742 C1746 0.949 . S
C1743 C1744 1.349 . S
C1743 C1745 1.327 . S
C1743 H1766 0.950 . S
C1744 C1743 1.349 . S
C1744 C1756 1.349 . S
C1745 C1743 1.327 . S
C1745 C1761 1.429 . S
C1745 H1767 0.950 . S
C1746 H1742 0.949 . S
C1746 C1754 1.574 . S
C1746 C1762 1.368 . S
H1747 C1755 0.950 . S
H1748 C1753 0.950 . S
H1749 C1754 0.949 . S
H1750 C1756 0.950 . S
H1751 C1757 0.950 . S
H1752 C1758 0.949 . S
C1753 H1748 0.950 . S
C1753 C1755 1.327 . S
C1753 C1759 1.429 . S
C1754 C1746 1.574 . S
C1754 H1749 0.949 . S
C1754 C1760 1.368 . S
C1755 C1739 1.349 . S
C1755 H1747 0.950 . S
C1755 C1753 1.327 . S
C1756 C1744 1.349 . S
C1756 H1750 0.950 . S
C1756 C1757 1.327 . S
C1757 H1751 0.950 . S
C1757 C1756 1.327 . S
C1757 C1761 1.429 . S
C1758 C1741 1.574 . S
C1758 H1752 0.949 . S
C1758 C1762 1.368 . S
C1759 C1740 1.429 . S
C1759 C1753 1.429 . S
C1759 C1760 1.523 . S
C1760 C1741 1.368 . S
C1760 C1754 1.368 . S
C1760 C1759 1.523 . S
C1761 C1745 1.429 . S
C1761 C1757 1.429 . S
C1761 C1762 1.523 . S
C1762 C1746 1.368 . S
C1762 C1758 1.368 . S
C1762 C1761 1.523 . S
H1763 C1738 0.950 . S
H1764 C1740 0.950 . S
H1765 C1741 0.949 . S
H1766 C1743 0.950 . S
H1767 C1745 0.950 . S
C1768 C1769 1.349 . S
C1768 C1770 1.327 . S
C1768 H1793 0.950 . S
C1769 C1768 1.349 . S
C1769 C1785 1.349 . S
C1770 C1768 1.327 . S
C1770 C1789 1.429 . S
C1770 H1794 0.950 . S
C1771 C1788 1.574 . S
C1771 C1790 1.368 . S
C1771 H1795 0.949 . S
H1772 C1776 0.949 . S
C1773 C1774 1.349 . S
C1773 C1775 1.327 . S
C1773 H1796 0.950 . S
C1774 C1773 1.349 . S
C1774 C1786 1.349 . S
C1775 C1773 1.327 . S
C1775 C1791 1.429 . S
C1775 H1797 0.950 . S
C1776 H1772 0.949 . S
C1776 C1784 1.574 . S
C1776 C1792 1.368 . S
H1777 C1785 0.950 . S
H1778 C1783 0.950 . S
H1779 C1784 0.949 . S
H1780 C1786 0.950 . S
H1781 C1787 0.950 . S
H1782 C1788 0.949 . S
C1783 H1778 0.950 . S
C1783 C1785 1.327 . S
C1783 C1789 1.429 . S
C1784 C1776 1.574 . S
C1784 H1779 0.949 . S
C1784 C1790 1.368 . S
C1785 C1769 1.349 . S
C1785 H1777 0.950 . S
C1785 C1783 1.327 . S
C1786 C1774 1.349 . S
C1786 H1780 0.950 . S
C1786 C1787 1.327 . S
C1787 H1781 0.950 . S
C1787 C1786 1.327 . S
C1787 C1791 1.429 . S
C1788 C1771 1.574 . S
C1788 H1782 0.949 . S
C1788 C1792 1.368 . S
C1789 C1770 1.429 . S
C1789 C1783 1.429 . S
C1789 C1790 1.523 . S
C1790 C1771 1.368 . S
C1790 C1784 1.368 . S
C1790 C1789 1.523 . S
C1791 C1775 1.429 . S
C1791 C1787 1.429 . S
C1791 C1792 1.523 . S
C1792 C1776 1.368 . S
C1792 C1788 1.368 . S
C1792 C1791 1.523 . S
H1793 C1768 0.950 . S
H1794 C1770 0.950 . S
H1795 C1771 0.949 . S
H1796 C1773 0.950 . S
H1797 C1775 0.950 . S
C1798 C1799 1.349 . S
C1798 C1800 1.327 . S
C1798 H1823 0.950 . S
C1799 C1798 1.349 . S
C1799 C1815 1.349 1_554 S
C1800 C1798 1.327 . S
C1800 C1819 1.429 . S
C1800 H1824 0.950 . S
C1801 C1818 1.574 . S
C1801 C1820 1.368 1_556 S
C1801 H1825 0.949 . S
H1802 C1806 0.949 . S
C1803 C1804 1.349 . S
C1803 C1805 1.327 . S
C1803 H1826 0.950 . S
C1804 C1803 1.349 . S
C1804 C1816 1.349 1_556 S
C1805 C1803 1.327 . S
C1805 C1821 1.429 . S
C1805 H1827 0.950 . S
C1806 H1802 0.949 . S
C1806 C1814 1.574 . S
C1806 C1822 1.368 1_554 S
H1807 C1815 0.950 . S
H1808 C1813 0.950 . S
H1809 C1814 0.949 . S
H1810 C1816 0.950 . S
H1811 C1817 0.950 . S
H1812 C1818 0.949 . S
C1813 H1808 0.950 . S
C1813 C1815 1.327 . S
C1813 C1819 1.429 1_556 S
C1814 C1806 1.574 . S
C1814 H1809 0.949 . S
C1814 C1820 1.368 1_455 S
C1815 C1799 1.349 1_556 S
C1815 H1807 0.950 . S
C1815 C1813 1.327 . S
C1816 C1804 1.349 1_554 S
C1816 H1810 0.950 . S
C1816 C1817 1.327 . S
C1817 H1811 0.950 . S
C1817 C1816 1.327 . S
C1817 C1821 1.429 1_554 S
C1818 C1801 1.574 . S
C1818 H1812 0.949 . S
C1818 C1822 1.368 1_655 S
C1819 C1800 1.429 . S
C1819 C1813 1.429 1_554 S
C1819 C1820 1.523 . S
C1820 C1801 1.368 1_554 S
C1820 C1814 1.368 1_655 S
C1820 C1819 1.523 . S
C1821 C1805 1.429 . S
C1821 C1817 1.429 1_556 S
C1821 C1822 1.523 . S
C1822 C1806 1.368 1_556 S
C1822 C1818 1.368 1_455 S
C1822 C1821 1.523 . S
H1823 C1798 0.950 . S
H1824 C1800 0.950 . S
H1825 C1801 0.949 . S
H1826 C1803 0.950 . S
H1827 C1805 0.950 . S
C1828 C1829 1.349 . S
C1828 C1830 1.327 . S
C1828 H1853 0.950 . S
C1829 C1828 1.349 . S
C1829 C1845 1.349 1_556 S
C1830 C1828 1.327 . S
C1830 C1849 1.429 . S
C1830 H1854 0.950 . S
C1831 C1848 1.574 . S
C1831 C1850 1.368 1_554 S
C1831 H1855 0.949 . S
H1832 C1836 0.949 . S
C1833 C1834 1.349 . S
C1833 C1835 1.327 . S
C1833 H1856 0.950 . S
C1834 C1833 1.349 . S
C1834 C1846 1.349 1_554 S
C1835 C1833 1.327 . S
C1835 C1851 1.429 . S
C1835 H1857 0.950 . S
C1836 H1832 0.949 . S
C1836 C1844 1.574 . S
C1836 C1852 1.368 1_556 S
H1837 C1845 0.950 . S
H1838 C1843 0.950 . S
H1839 C1844 0.949 . S
H1840 C1846 0.950 . S
H1841 C1847 0.950 . S
H1842 C1848 0.949 . S
C1843 H1838 0.950 . S
C1843 C1845 1.327 . S
C1843 C1849 1.429 1_554 S
C1844 C1836 1.574 . S
C1844 H1839 0.949 . S
C1844 C1850 1.368 . S
C1845 C1829 1.349 1_554 S
C1845 H1837 0.950 . S
C1845 C1843 1.327 . S
C1846 C1834 1.349 1_556 S
C1846 H1840 0.950 . S
C1846 C1847 1.327 . S
C1847 H1841 0.950 . S
C1847 C1846 1.327 . S
C1847 C1851 1.429 1_556 S
C1848 C1831 1.574 . S
C1848 H1842 0.949 . S
C1848 C1852 1.368 . S
C1849 C1830 1.429 . S
C1849 C1843 1.429 1_556 S
C1849 C1850 1.523 . S
C1850 C1831 1.368 1_556 S
C1850 C1844 1.368 . S
C1850 C1849 1.523 . S
C1851 C1835 1.429 . S
C1851 C1847 1.429 1_554 S
C1851 C1852 1.523 . S
C1852 C1836 1.368 1_554 S
C1852 C1848 1.368 . S
C1852 C1851 1.523 . S
H1853 C1828 0.950 . S
H1854 C1830 0.950 . S
H1855 C1831 0.949 . S
H1856 C1833 0.950 . S
H1857 C1835 0.950 . S
C1858 C1859 1.349 . S
C1858 C1860 1.327 . S
C1858 H1883 0.950 . S
C1859 C1858 1.349 . S
C1859 C1875 1.349 . S
C1860 C1858 1.327 . S
C1860 C1879 1.429 . S
C1860 H1884 0.950 . S
C1861 C1878 1.574 . S
C1861 C1880 1.368 . S
C1861 H1885 0.949 . S
H1862 C1866 0.949 . S
C1863 C1864 1.349 . S
C1863 C1865 1.327 . S
C1863 H1886 0.950 . S
C1864 C1863 1.349 . S
C1864 C1876 1.349 . S
C1865 C1863 1.327 . S
C1865 C1881 1.429 . S
C1865 H1887 0.950 . S
C1866 H1862 0.949 . S
C1866 C1874 1.574 . S
C1866 C1882 1.368 . S
H1867 C1875 0.950 . S
H1868 C1873 0.950 . S
H1869 C1874 0.949 . S
H1870 C1876 0.950 . S
H1871 C1877 0.950 . S
H1872 C1878 0.949 . S
C1873 H1868 0.950 . S
C1873 C1875 1.327 . S
C1873 C1879 1.429 . S
C1874 C1866 1.574 . S
C1874 H1869 0.949 . S
C1874 C1880 1.368 1_655 S
C1875 C1859 1.349 . S
C1875 H1867 0.950 . S
C1875 C1873 1.327 . S
C1876 C1864 1.349 . S
C1876 H1870 0.950 . S
C1876 C1877 1.327 . S
C1877 H1871 0.950 . S
C1877 C1876 1.327 . S
C1877 C1881 1.429 . S
C1878 C1861 1.574 . S
C1878 H1872 0.949 . S
C1878 C1882 1.368 1_455 S
C1879 C1860 1.429 . S
C1879 C1873 1.429 . S
C1879 C1880 1.523 . S
C1880 C1861 1.368 . S
C1880 C1874 1.368 1_455 S
C1880 C1879 1.523 . S
C1881 C1865 1.429 . S
C1881 C1877 1.429 . S
C1881 C1882 1.523 . S
C1882 C1866 1.368 . S
C1882 C1878 1.368 1_655 S
C1882 C1881 1.523 . S
H1883 C1858 0.950 . S
H1884 C1860 0.950 . S
H1885 C1861 0.949 . S
H1886 C1863 0.950 . S
H1887 C1865 0.950 . S
C1888 C1889 1.349 . S
C1888 C1890 1.327 . S
C1888 H1913 0.950 . S
C1889 C1888 1.349 . S
C1889 C1905 1.349 . S
C1890 C1888 1.327 . S
C1890 C1909 1.429 . S
C1890 H1914 0.950 . S
C1891 C1908 1.574 . S
C1891 C1910 1.368 . S
C1891 H1915 0.949 . S
H1892 C1896 0.949 . S
C1893 C1894 1.349 . S
C1893 C1895 1.327 . S
C1893 H1916 0.950 . S
C1894 C1893 1.349 . S
C1894 C1906 1.349 . S
C1895 C1893 1.327 . S
C1895 C1911 1.429 . S
C1895 H1917 0.950 . S
C1896 H1892 0.949 . S
C1896 C1904 1.574 . S
C1896 C1912 1.368 . S
H1897 C1905 0.950 . S
H1898 C1903 0.950 . S
H1899 C1904 0.949 . S
H1900 C1906 0.950 . S
H1901 C1907 0.950 . S
H1902 C1908 0.949 . S
C1903 H1898 0.950 . S
C1903 C1905 1.327 . S
C1903 C1909 1.429 . S
C1904 C1896 1.574 . S
C1904 H1899 0.949 . S
C1904 C1910 1.368 . S
C1905 C1889 1.349 . S
C1905 H1897 0.950 . S
C1905 C1903 1.327 . S
C1906 C1894 1.349 . S
C1906 H1900 0.950 . S
C1906 C1907 1.327 . S
C1907 H1901 0.950 . S
C1907 C1906 1.327 . S
C1907 C1911 1.429 . S
C1908 C1891 1.574 . S
C1908 H1902 0.949 . S
C1908 C1912 1.368 . S
C1909 C1890 1.429 . S
C1909 C1903 1.429 . S
C1909 C1910 1.523 . S
C1910 C1891 1.368 . S
C1910 C1904 1.368 . S
C1910 C1909 1.523 . S
C1911 C1895 1.429 . S
C1911 C1907 1.429 . S
C1911 C1912 1.523 . S
C1912 C1896 1.368 . S
C1912 C1908 1.368 . S
C1912 C1911 1.523 . S
H1913 C1888 0.950 . S
H1914 C1890 0.950 . S
H1915 C1891 0.949 . S
H1916 C1893 0.950 . S
H1917 C1895 0.950 . S
C1918 C1919 1.349 . S
C1918 C1920 1.327 . S
C1918 H1943 0.950 . S
C1919 C1918 1.349 . S
C1919 C1935 1.349 . S
C1920 C1918 1.327 . S
C1920 C1939 1.429 . S
C1920 H1944 0.950 . S
C1921 C1938 1.574 . S
C1921 C1940 1.368 . S
C1921 H1945 0.949 . S
H1922 C1926 0.949 . S
C1923 C1924 1.349 . S
C1923 C1925 1.327 . S
C1923 H1946 0.950 . S
C1924 C1923 1.349 . S
C1924 C1936 1.349 . S
C1925 C1923 1.327 . S
C1925 C1941 1.429 . S
C1925 H1947 0.950 . S
C1926 H1922 0.949 . S
C1926 C1934 1.574 . S
C1926 C1942 1.368 . S
H1927 C1935 0.950 . S
H1928 C1933 0.950 . S
H1929 C1934 0.949 . S
H1930 C1936 0.950 . S
H1931 C1937 0.950 . S
H1932 C1938 0.949 . S
C1933 H1928 0.950 . S
C1933 C1935 1.327 . S
C1933 C1939 1.429 . S
C1934 C1926 1.574 . S
C1934 H1929 0.949 . S
C1934 C1940 1.368 . S
C1935 C1919 1.349 . S
C1935 H1927 0.950 . S
C1935 C1933 1.327 . S
C1936 C1924 1.349 . S
C1936 H1930 0.950 . S
C1936 C1937 1.327 . S
C1937 H1931 0.950 . S
C1937 C1936 1.327 . S
C1937 C1941 1.429 . S
C1938 C1921 1.574 . S
C1938 H1932 0.949 . S
C1938 C1942 1.368 . S
C1939 C1920 1.429 . S
C1939 C1933 1.429 . S
C1939 C1940 1.523 . S
C1940 C1921 1.368 . S
C1940 C1934 1.368 . S
C1940 C1939 1.523 . S
C1941 C1925 1.429 . S
C1941 C1937 1.429 . S
C1941 C1942 1.523 . S
C1942 C1926 1.368 . S
C1942 C1938 1.368 . S
C1942 C1941 1.523 . S
H1943 C1918 0.950 . S
H1944 C1920 0.950 . S
H1945 C1921 0.949 . S
H1946 C1923 0.950 . S
H1947 C1925 0.950 . S
C1948 C1949 1.349 . S
C1948 C1950 1.327 . S
C1948 H1973 0.950 . S
C1949 C1948 1.349 . S
C1949 C1965 1.349 . S
C1950 C1948 1.327 . S
C1950 C1969 1.429 . S
C1950 H1974 0.950 . S
C1951 C1968 1.574 . S
C1951 C1970 1.368 . S
C1951 H1975 0.949 . S
H1952 C1956 0.949 . S
C1953 C1954 1.349 . S
C1953 C1955 1.327 . S
C1953 H1976 0.950 . S
C1954 C1953 1.349 . S
C1954 C1966 1.349 . S
C1955 C1953 1.327 . S
C1955 C1971 1.429 . S
C1955 H1977 0.950 . S
C1956 H1952 0.949 . S
C1956 C1964 1.574 . S
C1956 C1972 1.368 . S
H1957 C1965 0.950 . S
H1958 C1963 0.950 . S
H1959 C1964 0.949 . S
H1960 C1966 0.950 . S
H1961 C1967 0.950 . S
H1962 C1968 0.949 . S
C1963 H1958 0.950 . S
C1963 C1965 1.327 . S
C1963 C1969 1.429 . S
C1964 C1956 1.574 . S
C1964 H1959 0.949 . S
C1964 C1970 1.368 . S
C1965 C1949 1.349 . S
C1965 H1957 0.950 . S
C1965 C1963 1.327 . S
C1966 C1954 1.349 . S
C1966 H1960 0.950 . S
C1966 C1967 1.327 . S
C1967 H1961 0.950 . S
C1967 C1966 1.327 . S
C1967 C1971 1.429 . S
C1968 C1951 1.574 . S
C1968 H1962 0.949 . S
C1968 C1972 1.368 . S
C1969 C1950 1.429 . S
C1969 C1963 1.429 . S
C1969 C1970 1.523 . S
C1970 C1951 1.368 . S
C1970 C1964 1.368 . S
C1970 C1969 1.523 . S
C1971 C1955 1.429 . S
C1971 C1967 1.429 . S
C1971 C1972 1.523 . S
C1972 C1956 1.368 . S
C1972 C1968 1.368 . S
C1972 C1971 1.523 . S
H1973 C1948 0.950 . S
H1974 C1950 0.950 . S
H1975 C1951 0.949 . S
H1976 C1953 0.950 . S
H1977 C1955 0.950 . S
C1978 C1979 1.349 . S
C1978 C1980 1.327 . S
C1978 H2003 0.950 . S
C1979 C1978 1.349 . S
C1979 C1995 1.349 . S
C1980 C1978 1.327 . S
C1980 C1999 1.429 . S
C1980 H2004 0.950 . S
C1981 C1998 1.574 . S
C1981 C2000 1.368 . S
C1981 H2005 0.949 . S
H1982 C1986 0.949 . S
C1983 C1984 1.349 . S
C1983 C1985 1.327 . S
C1983 H2006 0.950 . S
C1984 C1983 1.349 . S
C1984 C1996 1.349 . S
C1985 C1983 1.327 . S
C1985 C2001 1.429 . S
C1985 H2007 0.950 . S
C1986 H1982 0.949 . S
C1986 C1994 1.574 . S
C1986 C2002 1.368 . S
H1987 C1995 0.950 . S
H1988 C1993 0.950 . S
H1989 C1994 0.949 . S
H1990 C1996 0.950 . S
H1991 C1997 0.950 . S
H1992 C1998 0.949 . S
C1993 H1988 0.950 . S
C1993 C1995 1.327 . S
C1993 C1999 1.429 . S
C1994 C1986 1.574 . S
C1994 H1989 0.949 . S
C1994 C2000 1.368 . S
C1995 C1979 1.349 . S
C1995 H1987 0.950 . S
C1995 C1993 1.327 . S
C1996 C1984 1.349 . S
C1996 H1990 0.950 . S
C1996 C1997 1.327 . S
C1997 H1991 0.950 . S
C1997 C1996 1.327 . S
C1997 C2001 1.429 . S
C1998 C1981 1.574 . S
C1998 H1992 0.949 . S
C1998 C2002 1.368 . S
C1999 C1980 1.429 . S
C1999 C1993 1.429 . S
C1999 C2000 1.523 . S
C2000 C1981 1.368 . S
C2000 C1994 1.368 . S
C2000 C1999 1.523 . S
C2001 C1985 1.429 . S
C2001 C1997 1.429 . S
C2001 C2002 1.523 . S
C2002 C1986 1.368 . S
C2002 C1998 1.368 . S
C2002 C2001 1.523 . S
H2003 C1978 0.950 . S
H2004 C1980 0.950 . S
H2005 C1981 0.949 . S
H2006 C1983 0.950 . S
H2007 C1985 0.950 . S
C2008 C2009 1.349 . S
C2008 C2010 1.327 . S
C2008 H2033 0.950 . S
C2009 C2008 1.349 . S
C2009 C2025 1.349 . S
C2010 C2008 1.327 . S
C2010 C2029 1.429 . S
C2010 H2034 0.950 . S
C2011 C2028 1.574 . S
C2011 C2030 1.368 . S
C2011 H2035 0.949 . S
H2012 C2016 0.949 . S
C2013 C2014 1.349 . S
C2013 C2015 1.327 . S
C2013 H2036 0.950 . S
C2014 C2013 1.349 . S
C2014 C2026 1.349 . S
C2015 C2013 1.327 . S
C2015 C2031 1.429 . S
C2015 H2037 0.950 . S
C2016 H2012 0.949 . S
C2016 C2024 1.574 . S
C2016 C2032 1.368 . S
H2017 C2025 0.950 . S
H2018 C2023 0.950 . S
H2019 C2024 0.949 . S
H2020 C2026 0.950 . S
H2021 C2027 0.950 . S
H2022 C2028 0.949 . S
C2023 H2018 0.950 . S
C2023 C2025 1.327 . S
C2023 C2029 1.429 . S
C2024 C2016 1.574 . S
C2024 H2019 0.949 . S
C2024 C2030 1.368 . S
C2025 C2009 1.349 . S
C2025 H2017 0.950 . S
C2025 C2023 1.327 . S
C2026 C2014 1.349 . S
C2026 H2020 0.950 . S
C2026 C2027 1.327 . S
C2027 H2021 0.950 . S
C2027 C2026 1.327 . S
C2027 C2031 1.429 . S
C2028 C2011 1.574 . S
C2028 H2022 0.949 . S
C2028 C2032 1.368 . S
C2029 C2010 1.429 . S
C2029 C2023 1.429 . S
C2029 C2030 1.523 . S
C2030 C2011 1.368 . S
C2030 C2024 1.368 . S
C2030 C2029 1.523 . S
C2031 C2015 1.429 . S
C2031 C2027 1.429 . S
C2031 C2032 1.523 . S
C2032 C2016 1.368 . S
C2032 C2028 1.368 . S
C2032 C2031 1.523 . S
H2033 C2008 0.950 . S
H2034 C2010 0.950 . S
H2035 C2011 0.949 . S
H2036 C2013 0.950 . S
H2037 C2015 0.950 . S
C2038 C2039 1.349 . S
C2038 C2040 1.327 . S
C2038 H2063 0.950 . S
C2039 C2038 1.349 . S
C2039 C2055 1.349 . S
C2040 C2038 1.327 . S
C2040 C2059 1.429 . S
C2040 H2064 0.950 . S
C2041 C2058 1.574 . S
C2041 C2060 1.368 . S
C2041 H2065 0.949 . S
H2042 C2046 0.949 . S
C2043 C2044 1.349 . S
C2043 C2045 1.327 . S
C2043 H2066 0.950 . S
C2044 C2043 1.349 . S
C2044 C2056 1.349 . S
C2045 C2043 1.327 . S
C2045 C2061 1.429 . S
C2045 H2067 0.950 . S
C2046 H2042 0.949 . S
C2046 C2054 1.574 . S
C2046 C2062 1.368 . S
H2047 C2055 0.950 . S
H2048 C2053 0.950 . S
H2049 C2054 0.949 . S
H2050 C2056 0.950 . S
H2051 C2057 0.950 . S
H2052 C2058 0.949 . S
C2053 H2048 0.950 . S
C2053 C2055 1.327 . S
C2053 C2059 1.429 . S
C2054 C2046 1.574 . S
C2054 H2049 0.949 . S
C2054 C2060 1.368 . S
C2055 C2039 1.349 . S
C2055 H2047 0.950 . S
C2055 C2053 1.327 . S
C2056 C2044 1.349 . S
C2056 H2050 0.950 . S
C2056 C2057 1.327 . S
C2057 H2051 0.950 . S
C2057 C2056 1.327 . S
C2057 C2061 1.429 . S
C2058 C2041 1.574 . S
C2058 H2052 0.949 . S
C2058 C2062 1.368 . S
C2059 C2040 1.429 . S
C2059 C2053 1.429 . S
C2059 C2060 1.523 . S
C2060 C2041 1.368 . S
C2060 C2054 1.368 . S
C2060 C2059 1.523 . S
C2061 C2045 1.429 . S
C2061 C2057 1.429 . S
C2061 C2062 1.523 . S
C2062 C2046 1.368 . S
C2062 C2058 1.368 . S
C2062 C2061 1.523 . S
H2063 C2038 0.950 . S
H2064 C2040 0.950 . S
H2065 C2041 0.949 . S
H2066 C2043 0.950 . S
H2067 C2045 0.950 . S
C2068 C2069 1.349 . S
C2068 C2070 1.327 . S
C2068 H2093 0.950 . S
C2069 C2068 1.349 . S
C2069 C2085 1.349 . S
C2070 C2068 1.327 . S
C2070 C2089 1.429 . S
C2070 H2094 0.950 . S
C2071 C2088 1.574 . S
C2071 C2090 1.368 . S
C2071 H2095 0.949 . S
H2072 C2076 0.949 . S
C2073 C2074 1.349 . S
C2073 C2075 1.327 . S
C2073 H2096 0.950 . S
C2074 C2073 1.349 . S
C2074 C2086 1.349 . S
C2075 C2073 1.327 . S
C2075 C2091 1.429 . S
C2075 H2097 0.950 . S
C2076 H2072 0.949 . S
C2076 C2084 1.574 . S
C2076 C2092 1.368 . S
H2077 C2085 0.950 . S
H2078 C2083 0.950 . S
H2079 C2084 0.949 . S
H2080 C2086 0.950 . S
H2081 C2087 0.950 . S
H2082 C2088 0.949 . S
C2083 H2078 0.950 . S
C2083 C2085 1.327 . S
C2083 C2089 1.429 . S
C2084 C2076 1.574 . S
C2084 H2079 0.949 . S
C2084 C2090 1.368 . S
C2085 C2069 1.349 . S
C2085 H2077 0.950 . S
C2085 C2083 1.327 . S
C2086 C2074 1.349 . S
C2086 H2080 0.950 . S
C2086 C2087 1.327 . S
C2087 H2081 0.950 . S
C2087 C2086 1.327 . S
C2087 C2091 1.429 . S
C2088 C2071 1.574 . S
C2088 H2082 0.949 . S
C2088 C2092 1.368 . S
C2089 C2070 1.429 . S
C2089 C2083 1.429 . S
C2089 C2090 1.523 . S
C2090 C2071 1.368 . S
C2090 C2084 1.368 . S
C2090 C2089 1.523 . S
C2091 C2075 1.429 . S
C2091 C2087 1.429 . S
C2091 C2092 1.523 . S
C2092 C2076 1.368 . S
C2092 C2088 1.368 . S
C2092 C2091 1.523 . S
H2093 C2068 0.950 . S
H2094 C2070 0.950 . S
H2095 C2071 0.949 . S
H2096 C2073 0.950 . S
H2097 C2075 0.950 . S
C2098 C2099 1.349 . S
C2098 C2100 1.327 . S
C2098 H2123 0.950 . S
C2099 C2098 1.349 . S
C2099 C2115 1.349 . S
C2100 C2098 1.327 . S
C2100 C2119 1.429 . S
C2100 H2124 0.950 . S
C2101 C2118 1.574 . S
C2101 C2120 1.368 . S
C2101 H2125 0.949 . S
H2102 C2106 0.949 . S
C2103 C2104 1.349 . S
C2103 C2105 1.327 . S
C2103 H2126 0.950 . S
C2104 C2103 1.349 . S
C2104 C2116 1.349 . S
C2105 C2103 1.327 . S
C2105 C2121 1.429 . S
C2105 H2127 0.950 . S
C2106 H2102 0.949 . S
C2106 C2114 1.574 . S
C2106 C2122 1.368 . S
H2107 C2115 0.950 . S
H2108 C2113 0.950 . S
H2109 C2114 0.949 . S
H2110 C2116 0.950 . S
H2111 C2117 0.950 . S
H2112 C2118 0.949 . S
C2113 H2108 0.950 . S
C2113 C2115 1.327 . S
C2113 C2119 1.429 . S
C2114 C2106 1.574 . S
C2114 H2109 0.949 . S
C2114 C2120 1.368 . S
C2115 C2099 1.349 . S
C2115 H2107 0.950 . S
C2115 C2113 1.327 . S
C2116 C2104 1.349 . S
C2116 H2110 0.950 . S
C2116 C2117 1.327 . S
C2117 H2111 0.950 . S
C2117 C2116 1.327 . S
C2117 C2121 1.429 . S
C2118 C2101 1.574 . S
C2118 H2112 0.949 . S
C2118 C2122 1.368 . S
C2119 C2100 1.429 . S
C2119 C2113 1.429 . S
C2119 C2120 1.523 . S
C2120 C2101 1.368 . S
C2120 C2114 1.368 . S
C2120 C2119 1.523 . S
C2121 C2105 1.429 . S
C2121 C2117 1.429 . S
C2121 C2122 1.523 . S
C2122 C2106 1.368 . S
C2122 C2118 1.368 . S
C2122 C2121 1.523 . S
H2123 C2098 0.950 . S
H2124 C2100 0.950 . S
H2125 C2101 0.949 . S
H2126 C2103 0.950 . S
H2127 C2105 0.950 . S
C2128 C2129 1.349 . S
C2128 C2130 1.327 . S
C2128 H2153 0.950 . S
C2129 C2128 1.349 . S
C2129 C2145 1.349 . S
C2130 C2128 1.327 . S
C2130 C2149 1.429 . S
C2130 H2154 0.950 . S
C2131 C2148 1.574 . S
C2131 C2150 1.368 . S
C2131 H2155 0.949 . S
H2132 C2136 0.949 . S
C2133 C2134 1.349 . S
C2133 C2135 1.327 . S
C2133 H2156 0.950 . S
C2134 C2133 1.349 . S
C2134 C2146 1.349 . S
C2135 C2133 1.327 . S
C2135 C2151 1.429 . S
C2135 H2157 0.950 . S
C2136 H2132 0.949 . S
C2136 C2144 1.574 . S
C2136 C2152 1.368 . S
H2137 C2145 0.950 . S
H2138 C2143 0.950 . S
H2139 C2144 0.949 . S
H2140 C2146 0.950 . S
H2141 C2147 0.950 . S
H2142 C2148 0.949 . S
C2143 H2138 0.950 . S
C2143 C2145 1.327 . S
C2143 C2149 1.429 . S
C2144 C2136 1.574 . S
C2144 H2139 0.949 . S
C2144 C2150 1.368 . S
C2145 C2129 1.349 . S
C2145 H2137 0.950 . S
C2145 C2143 1.327 . S
C2146 C2134 1.349 . S
C2146 H2140 0.950 . S
C2146 C2147 1.327 . S
C2147 H2141 0.950 . S
C2147 C2146 1.327 . S
C2147 C2151 1.429 . S
C2148 C2131 1.574 . S
C2148 H2142 0.949 . S
C2148 C2152 1.368 . S
C2149 C2130 1.429 . S
C2149 C2143 1.429 . S
C2149 C2150 1.523 . S
C2150 C2131 1.368 . S
C2150 C2144 1.368 . S
C2150 C2149 1.523 . S
C2151 C2135 1.429 . S
C2151 C2147 1.429 . S
C2151 C2152 1.523 . S
C2152 C2136 1.368 . S
C2152 C2148 1.368 . S
C2152 C2151 1.523 . S
H2153 C2128 0.950 . S
H2154 C2130 0.950 . S
H2155 C2131 0.949 . S
H2156 C2133 0.950 . S
H2157 C2135 0.950 . S
C2158 C2159 1.349 . S
C2158 C2160 1.327 . S
C2158 H2183 0.950 . S
C2159 C2158 1.349 . S
C2159 C2175 1.349 . S
C2160 C2158 1.327 . S
C2160 C2179 1.429 . S
C2160 H2184 0.950 . S
C2161 C2178 1.574 . S
C2161 C2180 1.368 . S
C2161 H2185 0.949 . S
H2162 C2166 0.949 . S
C2163 C2164 1.349 . S
C2163 C2165 1.327 . S
C2163 H2186 0.950 . S
C2164 C2163 1.349 . S
C2164 C2176 1.349 . S
C2165 C2163 1.327 . S
C2165 C2181 1.429 . S
C2165 H2187 0.950 . S
C2166 H2162 0.949 . S
C2166 C2174 1.574 . S
C2166 C2182 1.368 . S
H2167 C2175 0.950 . S
H2168 C2173 0.950 . S
H2169 C2174 0.949 . S
H2170 C2176 0.950 . S
H2171 C2177 0.950 . S
H2172 C2178 0.949 . S
C2173 H2168 0.950 . S
C2173 C2175 1.327 . S
C2173 C2179 1.429 . S
C2174 C2166 1.574 . S
C2174 H2169 0.949 . S
C2174 C2180 1.368 . S
C2175 C2159 1.349 . S
C2175 H2167 0.950 . S
C2175 C2173 1.327 . S
C2176 C2164 1.349 . S
C2176 H2170 0.950 . S
C2176 C2177 1.327 . S
C2177 H2171 0.950 . S
C2177 C2176 1.327 . S
C2177 C2181 1.429 . S
C2178 C2161 1.574 . S
C2178 H2172 0.949 . S
C2178 C2182 1.368 . S
C2179 C2160 1.429 . S
C2179 C2173 1.429 . S
C2179 C2180 1.523 . S
C2180 C2161 1.368 . S
C2180 C2174 1.368 . S
C2180 C2179 1.523 . S
C2181 C2165 1.429 . S
C2181 C2177 1.429 . S
C2181 C2182 1.523 . S
C2182 C2166 1.368 . S
C2182 C2178 1.368 . S
C2182 C2181 1.523 . S
H2183 C2158 0.950 . S
H2184 C2160 0.950 . S
H2185 C2161 0.949 . S
H2186 C2163 0.950 . S
H2187 C2165 0.950 . S
C2188 C2189 1.349 . S
C2188 C2190 1.327 . S
C2188 H2213 0.950 . S
C2189 C2188 1.349 . S
C2189 C2205 1.349 . S
C2190 C2188 1.327 . S
C2190 C2209 1.429 . S
C2190 H2214 0.950 . S
C2191 C2208 1.574 . S
C2191 C2210 1.368 . S
C2191 H2215 0.949 . S
H2192 C2196 0.949 . S
C2193 C2194 1.349 . S
C2193 C2195 1.327 . S
C2193 H2216 0.950 . S
C2194 C2193 1.349 . S
C2194 C2206 1.349 . S
C2195 C2193 1.327 . S
C2195 C2211 1.429 . S
C2195 H2217 0.950 . S
C2196 H2192 0.949 . S
C2196 C2204 1.574 . S
C2196 C2212 1.368 . S
H2197 C2205 0.950 . S
H2198 C2203 0.950 . S
H2199 C2204 0.949 . S
H2200 C2206 0.950 . S
H2201 C2207 0.950 . S
H2202 C2208 0.949 . S
C2203 H2198 0.950 . S
C2203 C2205 1.327 . S
C2203 C2209 1.429 . S
C2204 C2196 1.574 . S
C2204 H2199 0.949 . S
C2204 C2210 1.368 . S
C2205 C2189 1.349 . S
C2205 H2197 0.950 . S
C2205 C2203 1.327 . S
C2206 C2194 1.349 . S
C2206 H2200 0.950 . S
C2206 C2207 1.327 . S
C2207 H2201 0.950 . S
C2207 C2206 1.327 . S
C2207 C2211 1.429 . S
C2208 C2191 1.574 . S
C2208 H2202 0.949 . S
C2208 C2212 1.368 . S
C2209 C2190 1.429 . S
C2209 C2203 1.429 . S
C2209 C2210 1.523 . S
C2210 C2191 1.368 . S
C2210 C2204 1.368 . S
C2210 C2209 1.523 . S
C2211 C2195 1.429 . S
C2211 C2207 1.429 . S
C2211 C2212 1.523 . S
C2212 C2196 1.368 . S
C2212 C2208 1.368 . S
C2212 C2211 1.523 . S
H2213 C2188 0.950 . S
H2214 C2190 0.950 . S
H2215 C2191 0.949 . S
H2216 C2193 0.950 . S
H2217 C2195 0.950 . S
C2218 C2219 1.349 . S
C2218 C2220 1.327 . S
C2218 H2243 0.950 . S
C2219 C2218 1.349 . S
C2219 C2235 1.349 . S
C2220 C2218 1.327 . S
C2220 C2239 1.429 . S
C2220 H2244 0.950 . S
C2221 C2238 1.574 . S
C2221 C2240 1.368 . S
C2221 H2245 0.949 . S
H2222 C2226 0.949 . S
C2223 C2224 1.349 . S
C2223 C2225 1.327 . S
C2223 H2246 0.950 . S
C2224 C2223 1.349 . S
C2224 C2236 1.349 . S
C2225 C2223 1.327 . S
C2225 C2241 1.429 . S
C2225 H2247 0.950 . S
C2226 H2222 0.949 . S
C2226 C2234 1.574 . S
C2226 C2242 1.368 . S
H2227 C2235 0.950 . S
H2228 C2233 0.950 . S
H2229 C2234 0.949 . S
H2230 C2236 0.950 . S
H2231 C2237 0.950 . S
H2232 C2238 0.949 . S
C2233 H2228 0.950 . S
C2233 C2235 1.327 . S
C2233 C2239 1.429 . S
C2234 C2226 1.574 . S
C2234 H2229 0.949 . S
C2234 C2240 1.368 . S
C2235 C2219 1.349 . S
C2235 H2227 0.950 . S
C2235 C2233 1.327 . S
C2236 C2224 1.349 . S
C2236 H2230 0.950 . S
C2236 C2237 1.327 . S
C2237 H2231 0.950 . S
C2237 C2236 1.327 . S
C2237 C2241 1.429 . S
C2238 C2221 1.574 . S
C2238 H2232 0.949 . S
C2238 C2242 1.368 . S
C2239 C2220 1.429 . S
C2239 C2233 1.429 . S
C2239 C2240 1.523 . S
C2240 C2221 1.368 . S
C2240 C2234 1.368 . S
C2240 C2239 1.523 . S
C2241 C2225 1.429 . S
C2241 C2237 1.429 . S
C2241 C2242 1.523 . S
C2242 C2226 1.368 . S
C2242 C2238 1.368 . S
C2242 C2241 1.523 . S
H2243 C2218 0.950 . S
H2244 C2220 0.950 . S
H2245 C2221 0.949 . S
H2246 C2223 0.950 . S
H2247 C2225 0.950 . S
C2248 C2249 1.349 . S
C2248 C2250 1.327 . S
C2248 H2273 0.950 . S
C2249 C2248 1.349 . S
C2249 C2265 1.349 . S
C2250 C2248 1.327 . S
C2250 C2269 1.429 . S
C2250 H2274 0.950 . S
C2251 C2268 1.574 . S
C2251 C2270 1.368 . S
C2251 H2275 0.949 . S
H2252 C2256 0.949 . S
C2253 C2254 1.349 . S
C2253 C2255 1.327 . S
C2253 H2276 0.950 . S
C2254 C2253 1.349 . S
C2254 C2266 1.349 . S
C2255 C2253 1.327 . S
C2255 C2271 1.429 . S
C2255 H2277 0.950 . S
C2256 H2252 0.949 . S
C2256 C2264 1.574 . S
C2256 C2272 1.368 . S
H2257 C2265 0.950 . S
H2258 C2263 0.950 . S
H2259 C2264 0.949 . S
H2260 C2266 0.950 . S
H2261 C2267 0.950 . S
H2262 C2268 0.949 . S
C2263 H2258 0.950 . S
C2263 C2265 1.327 . S
C2263 C2269 1.429 . S
C2264 C2256 1.574 . S
C2264 H2259 0.949 . S
C2264 C2270 1.368 . S
C2265 C2249 1.349 . S
C2265 H2257 0.950 . S
C2265 C2263 1.327 . S
C2266 C2254 1.349 . S
C2266 H2260 0.950 . S
C2266 C2267 1.327 . S
C2267 H2261 0.950 . S
C2267 C2266 1.327 . S
C2267 C2271 1.429 . S
C2268 C2251 1.574 . S
C2268 H2262 0.949 . S
C2268 C2272 1.368 . S
C2269 C2250 1.429 . S
C2269 C2263 1.429 . S
C2269 C2270 1.523 . S
C2270 C2251 1.368 . S
C2270 C2264 1.368 . S
C2270 C2269 1.523 . S
C2271 C2255 1.429 . S
C2271 C2267 1.429 . S
C2271 C2272 1.523 . S
C2272 C2256 1.368 . S
C2272 C2268 1.368 . S
C2272 C2271 1.523 . S
H2273 C2248 0.950 . S
H2274 C2250 0.950 . S
H2275 C2251 0.949 . S
H2276 C2253 0.950 . S
H2277 C2255 0.950 . S
C2278 C2279 1.349 . S
C2278 C2280 1.327 . S
C2278 H2303 0.950 . S
C2279 C2278 1.349 . S
C2279 C2295 1.349 . S
C2280 C2278 1.327 . S
C2280 C2299 1.429 . S
C2280 H2304 0.950 . S
C2281 C2298 1.574 . S
C2281 C2300 1.368 . S
C2281 H2305 0.949 . S
H2282 C2286 0.949 . S
C2283 C2284 1.349 . S
C2283 C2285 1.327 . S
C2283 H2306 0.950 . S
C2284 C2283 1.349 . S
C2284 C2296 1.349 . S
C2285 C2283 1.327 . S
C2285 C2301 1.429 . S
C2285 H2307 0.950 . S
C2286 H2282 0.949 . S
C2286 C2294 1.574 . S
C2286 C2302 1.368 . S
H2287 C2295 0.950 . S
H2288 C2293 0.950 . S
H2289 C2294 0.949 . S
H2290 C2296 0.950 . S
H2291 C2297 0.950 . S
H2292 C2298 0.949 . S
C2293 H2288 0.950 . S
C2293 C2295 1.327 . S
C2293 C2299 1.429 . S
C2294 C2286 1.574 . S
C2294 H2289 0.949 . S
C2294 C2300 1.368 . S
C2295 C2279 1.349 . S
C2295 H2287 0.950 . S
C2295 C2293 1.327 . S
C2296 C2284 1.349 . S
C2296 H2290 0.950 . S
C2296 C2297 1.327 . S
C2297 H2291 0.950 . S
C2297 C2296 1.327 . S
C2297 C2301 1.429 . S
C2298 C2281 1.574 . S
C2298 H2292 0.949 . S
C2298 C2302 1.368 . S
C2299 C2280 1.429 . S
C2299 C2293 1.429 . S
C2299 C2300 1.523 . S
C2300 C2281 1.368 . S
C2300 C2294 1.368 . S
C2300 C2299 1.523 . S
C2301 C2285 1.429 . S
C2301 C2297 1.429 . S
C2301 C2302 1.523 . S
C2302 C2286 1.368 . S
C2302 C2298 1.368 . S
C2302 C2301 1.523 . S
H2303 C2278 0.950 . S
H2304 C2280 0.950 . S
H2305 C2281 0.949 . S
H2306 C2283 0.950 . S
H2307 C2285 0.950 . S
C2308 C2309 1.349 . S
C2308 C2310 1.327 . S
C2308 H2333 0.950 . S
C2309 C2308 1.349 . S
C2309 C2325 1.349 . S
C2310 C2308 1.327 . S
C2310 C2329 1.429 . S
C2310 H2334 0.950 . S
C2311 C2328 1.574 . S
C2311 C2330 1.368 . S
C2311 H2335 0.949 . S
H2312 C2316 0.949 . S
C2313 C2314 1.349 . S
C2313 C2315 1.327 . S
C2313 H2336 0.950 . S
C2314 C2313 1.349 . S
C2314 C2326 1.349 . S
C2315 C2313 1.327 . S
C2315 C2331 1.429 . S
C2315 H2337 0.950 . S
C2316 H2312 0.949 . S
C2316 C2324 1.574 . S
C2316 C2332 1.368 . S
H2317 C2325 0.950 . S
H2318 C2323 0.950 . S
H2319 C2324 0.949 . S
H2320 C2326 0.950 . S
H2321 C2327 0.950 . S
H2322 C2328 0.949 . S
C2323 H2318 0.950 . S
C2323 C2325 1.327 . S
C2323 C2329 1.429 . S
C2324 C2316 1.574 . S
C2324 H2319 0.949 . S
C2324 C2330 1.368 . S
C2325 C2309 1.349 . S
C2325 H2317 0.950 . S
C2325 C2323 1.327 . S
C2326 C2314 1.349 . S
C2326 H2320 0.950 . S
C2326 C2327 1.327 . S
C2327 H2321 0.950 . S
C2327 C2326 1.327 . S
C2327 C2331 1.429 . S
C2328 C2311 1.574 . S
C2328 H2322 0.949 . S
C2328 C2332 1.368 . S
C2329 C2310 1.429 . S
C2329 C2323 1.429 . S
C2329 C2330 1.523 . S
C2330 C2311 1.368 . S
C2330 C2324 1.368 . S
C2330 C2329 1.523 . S
C2331 C2315 1.429 . S
C2331 C2327 1.429 . S
C2331 C2332 1.523 . S
C2332 C2316 1.368 . S
C2332 C2328 1.368 . S
C2332 C2331 1.523 . S
H2333 C2308 0.950 . S
H2334 C2310 0.950 . S
H2335 C2311 0.949 . S
H2336 C2313 0.950 . S
H2337 C2315 0.950 . S
C2338 C2339 1.349 . S
C2338 C2340 1.327 . S
C2338 H2363 0.950 . S
C2339 C2338 1.349 . S
C2339 C2355 1.349 . S
C2340 C2338 1.327 . S
C2340 C2359 1.429 . S
C2340 H2364 0.950 . S
C2341 C2358 1.574 . S
C2341 C2360 1.368 . S
C2341 H2365 0.949 . S
H2342 C2346 0.949 . S
C2343 C2344 1.349 . S
C2343 C2345 1.327 . S
C2343 H2366 0.950 . S
C2344 C2343 1.349 . S
C2344 C2356 1.349 . S
C2345 C2343 1.327 . S
C2345 C2361 1.429 . S
C2345 H2367 0.950 . S
C2346 H2342 0.949 . S
C2346 C2354 1.574 . S
C2346 C2362 1.368 . S
H2347 C2355 0.950 . S
H2348 C2353 0.950 . S
H2349 C2354 0.949 . S
H2350 C2356 0.950 . S
H2351 C2357 0.950 . S
H2352 C2358 0.949 . S
C2353 H2348 0.950 . S
C2353 C2355 1.327 . S
C2353 C2359 1.429 . S
C2354 C2346 1.574 . S
C2354 H2349 0.949 . S
C2354 C2360 1.368 . S
C2355 C2339 1.349 . S
C2355 H2347 0.950 . S
C2355 C2353 1.327 . S
C2356 C2344 1.349 . S
C2356 H2350 0.950 . S
C2356 C2357 1.327 . S
C2357 H2351 0.950 . S
C2357 C2356 1.327 . S
C2357 C2361 1.429 . S
C2358 C2341 1.574 . S
C2358 H2352 0.949 . S
C2358 C2362 1.368 . S
C2359 C2340 1.429 . S
C2359 C2353 1.429 . S
C2359 C2360 1.523 . S
C2360 C2341 1.368 . S
C2360 C2354 1.368 . S
C2360 C2359 1.523 . S
C2361 C2345 1.429 . S
C2361 C2357 1.429 . S
C2361 C2362 1.523 . S
C2362 C2346 1.368 . S
C2362 C2358 1.368 . S
C2362 C2361 1.523 . S
H2363 C2338 0.950 . S
H2364 C2340 0.950 . S
H2365 C2341 0.949 . S
H2366 C2343 0.950 . S
H2367 C2345 0.950 . S
C449 C176 1.070 . S
C454 C7 1.077 . S
C479 C414 1.070 . S
C484 C21 1.077 . S
C509 C204 1.070 . S
C514 C35 1.077 . S
C539 C442 1.070 . S
C544 C49 1.077 . S
C569 C120 1.070 . S
C574 C63 1.077 . S
C599 C77 1.077 . S
C604 C358 1.070 . S
C629 C91 1.077 . S
C634 C148 1.070 . S
C659 C386 1.070 . S
C664 C105 1.077 . S
C689 C64 1.070 . S
C694 C119 1.077 . S
C719 C302 1.070 . S
C724 C133 1.077 . S
C749 C92 1.070 . S
C754 C147 1.077 . S
C779 C330 1.070 . S
C784 C161 1.077 . S
C809 C175 1.077 . S
C814 C8 1.070 . S
C839 C189 1.077 . S
C844 C246 1.070 . S
C869 C36 1.070 . S
C874 C203 1.077 . S
C899 C217 1.077 . S
C904 C274 1.070 . S
C929 C400 1.070 . S
C934 C231 1.077 . S
C959 C190 1.070 . S
C964 C245 1.077 . S
C989 C428 1.070 . S
C994 C259 1.077 . S
C1019 C273 1.077 . S
C1024 C218 1.070 . S
C1049 C287 1.077 . S
C1054 C344 1.070 . S
C1079 C301 1.077 . S
C1084 C134 1.070 . S
C1109 C372 1.070 . S
C1114 C315 1.077 . S
C1139 C162 1.070 . S
C1144 C329 1.077 . S
C1169 C288 1.070 . S
C1174 C343 1.077 . S
C1199 C357 1.077 . S
C1204 C78 1.070 . S
C1229 C371 1.077 . S
C1234 C316 1.070 . S
C1259 C385 1.077 . S
C1264 C106 1.070 . S
C1289 C232 1.070 . S
C1294 C399 1.077 . S
C1319 C22 1.070 . S
C1324 C413 1.077 . S
C1349 C260 1.070 . S
C1354 C427 1.077 . S
C1379 C441 1.077 . S
C1384 C50 1.070 . S
C1409 C9 1.288 . S
C1414 C121 1.288 . S
C1439 C23 1.287 . S
C1444 C359 1.287 . S
C1469 C149 1.288 . S
C1474 C37 1.288 . S
C1499 C51 1.287 . S
C1504 C387 1.287 . S
C1529 C65 1.288 . S
C1534 C177 1.288 . S
C1559 C415 1.288 . S
C1564 C79 1.288 . S
C1589 C205 1.287 . S
C1594 C93 1.287 . S
C1619 C107 1.288 . S
C1624 C443 1.288 . S
C1649 C135 1.287 . S
C1654 C247 1.287 . S
C1679 C163 1.287 . S
C1684 C275 1.287 . S
C1709 C191 1.288 . S
C1714 C303 1.288 . S
C1739 C331 1.288 . S
C1744 C219 1.288 . S
C1769 C233 1.288 . S
C1774 C345 1.288 . S
C1799 C261 1.288 . S
C1804 C373 1.288 . S
C1829 C289 1.287 . S
C1834 C401 1.287 . S
C1859 C429 1.288 . S
C1864 C317 1.288 . S
C1889 C6 1.357 . S
C1894 C104 1.357 . S
C1919 C20 1.357 . S
C1924 C62 1.357 . S
C1949 C76 1.357 . S
C1954 C34 1.357 . S
C1979 C90 1.357 . S
C1984 C48 1.357 . S
C2009 C216 1.357 . S
C2014 C118 1.357 . S
C2039 C174 1.357 . S
C2044 C132 1.357 . S
C2069 C188 1.357 . S
C2074 C146 1.357 . S
C2099 C202 1.357 . S
C2104 C160 1.357 . S
C2129 C230 1.357 . S
C2134 C328 1.357 . S
C2159 C286 1.357 . S
C2164 C244 1.357 . S
C2189 C300 1.357 . S
C2194 C258 1.357 . S
C2219 C314 1.357 . S
C2224 C272 1.357 . S
C2249 C440 1.357 . S
C2254 C342 1.357 . S
C2279 C356 1.357 . S
C2284 C398 1.357 . S
C2309 C370 1.357 . S
C2314 C412 1.357 . S
C2339 C426 1.357 . S
C2344 C384 1.357 . S
