# Generated by pormake.
# Topology wiz, (3)-cn, num edge types: 1
# Building blocks:
#     Node 0, Type 0, BuildingBlock: OLANEW_clean_sbu_2, # of connection points: 3
#     Node 1, Type 0, BuildingBlock: OLANEW_clean_sbu_2, # of connection points: 3
#     Node 2, Type 0, BuildingBlock: OLANEW_clean_sbu_2, # of connection points: 3
#     Node 3, Type 0, BuildingBlock: OLANEW_clean_sbu_2, # of connection points: 3
#     Node 4, Type 0, BuildingBlock: OLANEW_clean_sbu_2, # of connection points: 3
#     Node 5, Type 0, BuildingBlock: OLANEW_clean_sbu_2, # of connection points: 3
#     Node 6, Type 0, BuildingBlock: OLANEW_clean_sbu_2, # of connection points: 3
#     Node 7, Type 0, BuildingBlock: OLANEW_clean_sbu_2, # of connection points: 3
#     Node 8, Type 0, BuildingBlock: OLANEW_clean_sbu_2, # of connection points: 3
#     Node 9, Type 0, BuildingBlock: OLANEW_clean_sbu_2, # of connection points: 3
#     Node 10, Type 0, BuildingBlock: OLANEW_clean_sbu_2, # of connection points: 3
#     Node 11, Type 0, BuildingBlock: OLANEW_clean_sbu_2, # of connection points: 3
#     Edge 12, Type (0, 0), BuildingBlock: XIVTED_clean_linker_0, # of connection points: 2
#     Edge 13, Type (0, 0), BuildingBlock: XIVTED_clean_linker_0, # of connection points: 2
#     Edge 14, Type (0, 0), BuildingBlock: XIVTED_clean_linker_0, # of connection points: 2
#     Edge 15, Type (0, 0), BuildingBlock: XIVTED_clean_linker_0, # of connection points: 2
#     Edge 16, Type (0, 0), BuildingBlock: XIVTED_clean_linker_0, # of connection points: 2
#     Edge 17, Type (0, 0), BuildingBlock: XIVTED_clean_linker_0, # of connection points: 2
#     Edge 18, Type (0, 0), BuildingBlock: XIVTED_clean_linker_0, # of connection points: 2
#     Edge 19, Type (0, 0), BuildingBlock: XIVTED_clean_linker_0, # of connection points: 2
#     Edge 20, Type (0, 0), BuildingBlock: XIVTED_clean_linker_0, # of connection points: 2
#     Edge 21, Type (0, 0), BuildingBlock: XIVTED_clean_linker_0, # of connection points: 2
#     Edge 22, Type (0, 0), BuildingBlock: XIVTED_clean_linker_0, # of connection points: 2
#     Edge 23, Type (0, 0), BuildingBlock: XIVTED_clean_linker_0, # of connection points: 2
#     Edge 24, Type (0, 0), BuildingBlock: XIVTED_clean_linker_0, # of connection points: 2
#     Edge 25, Type (0, 0), BuildingBlock: XIVTED_clean_linker_0, # of connection points: 2
#     Edge 26, Type (0, 0), BuildingBlock: XIVTED_clean_linker_0, # of connection points: 2
#     Edge 27, Type (0, 0), BuildingBlock: XIVTED_clean_linker_0, # of connection points: 2
#     Edge 28, Type (0, 0), BuildingBlock: XIVTED_clean_linker_0, # of connection points: 2
#     Edge 29, Type (0, 0), BuildingBlock: XIVTED_clean_linker_0, # of connection points: 2
# Relax obj value: 0.000
# Max RMSD: 0.046
# Mean RMSD: 0.046
data_MOF--net-wiz--node1-OLANEW_clean_sbu_2--edge1-XIVTED_clean_linker_0
_symmetry_space_group_name_H-M    P1
_symmetry_Int_Tables_number       1
_symmetry_cell_setting            triclinic
loop_
_symmetry_equiv_pos_as_xyz
'x, y, z'
_cell_length_a     37.236451
_cell_length_b     37.591149
_cell_length_c     75.434293
_cell_angle_alpha  89.303288
_cell_angle_beta   89.786926
_cell_angle_gamma 120.3863
loop_
_atom_site_label
_atom_site_type_symbol
_atom_site_fract_x
_atom_site_fract_y
_atom_site_fract_z
_atom_type_partial_charge
O0 O 0.11753 0.29835 0.07264 0.0
Cd1 Cd 0.13261 0.30615 0.10441 0.0
O2 O 0.17837 0.30637 0.06492 0.0
Cd3 Cd 0.20798 0.3216 0.09088 0.0
O4 O 0.26773 0.35436 0.10446 0.0
C5 C 0.28502 0.3932 0.10615 0.0
O6 O 0.26476 0.4117 0.10105 0.0
C7 C 0.14234 0.29938 0.06073 0.0
C8 C 0.06019 0.27499 0.12527 0.0
O9 O 0.07957 0.31263 0.11982 0.0
O10 O 0.07497 0.25205 0.12085 0.0
O11 O 0.76248 0.16742 0.40293 0.0
Cd12 Cd 0.76963 0.18088 0.43482 0.0
O13 O 0.82654 0.17964 0.39973 0.0
Cd14 Cd 0.84528 0.21255 0.42479 0.0
O15 O 0.87187 0.27263 0.43752 0.0
C16 C 0.91123 0.29578 0.43785 0.0
O17 O 0.9346 0.28151 0.43183 0.0
C18 C 0.79066 0.16742 0.39334 0.0
C19 C 0.73737 0.10803 0.45513 0.0
O20 O 0.71444 0.12302 0.45069 0.0
O21 O 0.77553 0.12743 0.44995 0.0
O22 O 0.60189 0.80104 0.73438 0.0
Cd23 Cd 0.59442 0.80918 0.76613 0.0
O24 O 0.5976 0.8554 0.72653 0.0
Cd25 Cd 0.58296 0.86983 0.75261 0.0
O26 O 0.55064 0.89611 0.7668 0.0
C27 C 0.51198 0.87354 0.77026 0.0
O28 O 0.49337 0.8341 0.76659 0.0
C29 C 0.60259 0.82548 0.72238 0.0
C30 C 0.63106 0.77462 0.78724 0.0
O31 O 0.59291 0.7532 0.78257 0.0
O32 O 0.6519 0.81231 0.78189 0.0
O33 O 0.76794 0.61685 0.07087 0.0
Cd34 Cd 0.75101 0.60588 0.10261 0.0
O35 O 0.705 0.60189 0.06288 0.0
Cd36 Cd 0.6739 0.58338 0.0888 0.0
O37 O 0.61377 0.54912 0.10263 0.0
C38 C 0.59257 0.56657 0.10519 0.0
O39 O 0.60902 0.60574 0.1008 0.0
C40 C 0.74251 0.61324 0.05882 0.0
C41 C 0.82251 0.63939 0.12351 0.0
O42 O 0.80524 0.60208 0.11821 0.0
O43 O 0.80603 0.66086 0.11892 0.0
O44 O 0.10617 0.77047 0.40574 0.0
Cd45 Cd 0.09803 0.75446 0.43761 0.0
O46 O 0.05774 0.70833 0.39764 0.0
Cd47 Cd 0.04316 0.67671 0.42346 0.0
O48 O 0.01824 0.61625 0.43651 0.0
C49 C 0.04149 0.60061 0.43768 0.0
O50 O 0.0805 0.62274 0.43239 0.0
C51 C 0.08477 0.74546 0.39365 0.0
C52 C 0.13183 0.82597 0.45794 0.0
O53 O 0.154 0.81042 0.45318 0.0
O54 O 0.09372 0.80774 0.45311 0.0
O55 O 0.29406 0.13174 0.73577 0.0
Cd56 Cd 0.30504 0.12539 0.76739 0.0
O57 O 0.30497 0.08166 0.72798 0.0
Cd58 Cd 0.32334 0.06945 0.75381 0.0
O59 O 0.35795 0.04505 0.76776 0.0
C60 C 0.34071 0.00637 0.77049 0.0
O61 O 0.30146 -0.01731 0.76621 0.0
C62 C 0.29566 0.10889 0.72386 0.0
C63 C 0.27029 0.16084 0.78881 0.0
O64 O 0.30798 0.18204 0.78314 0.0
O65 O 0.24903 0.12294 0.78434 0.0
O66 O 0.59714 0.78882 0.5811 0.0
Cd67 Cd 0.58706 0.77463 0.54933 0.0
O68 O 0.58059 0.72567 0.5891 0.0
Cd69 Cd 0.56272 0.69592 0.56332 0.0
O70 O 0.52961 0.63644 0.55003 0.0
C71 C 0.54822 0.6164 0.54745 0.0
O72 O 0.5878 0.63362 0.55149 0.0
C73 C 0.59253 0.76276 0.59313 0.0
C74 C 0.61896 0.84723 0.52883 0.0
O75 O 0.58116 0.82842 0.53446 0.0
O76 O 0.64168 0.83175 0.53288 0.0
O77 O 0.78701 0.62303 0.91762 0.0
Cd78 Cd 0.79583 0.61535 0.88595 0.0
O79 O 0.84092 0.6176 0.92559 0.0
Cd80 Cd 0.85593 0.60253 0.89973 0.0
O81 O 0.88198 0.5695 0.88604 0.0
C82 C 0.85877 0.53118 0.88324 0.0
O83 O 0.81895 0.51336 0.88726 0.0
C84 C 0.81101 0.62326 0.92964 0.0
C85 C 0.75896 0.64924 0.86458 0.0
O86 O 0.73837 0.61149 0.86985 0.0
O87 O 0.79693 0.67099 0.86944 0.0
O88 O 0.13054 0.7889 0.25253 0.0
Cd89 Cd 0.1485 0.79654 0.22089 0.0
O90 O 0.19268 0.83772 0.26083 0.0
Cd91 Cd 0.22481 0.85115 0.23516 0.0
O92 O 0.28515 0.87607 0.22164 0.0
C93 C 0.30771 0.91487 0.21938 0.0
O94 O 0.29258 0.93841 0.2239 0.0
C95 C 0.15521 0.81074 0.26468 0.0
C96 C 0.07763 0.76291 0.19961 0.0
O97 O 0.09309 0.74102 0.20492 0.0
O98 O 0.09564 0.80067 0.20435 0.0
O99 O 0.28349 0.14101 0.58248 0.0
Cd100 Cd 0.28999 0.15551 0.5505 0.0
O101 O 0.29526 0.20249 0.58998 0.0
Cd102 Cd 0.30984 0.23242 0.56379 0.0
O103 O 0.34165 0.29248 0.55008 0.0
C104 C 0.38101 0.31093 0.54822 0.0
O105 O 0.40068 0.29175 0.55319 0.0
C106 C 0.28666 0.16621 0.59434 0.0
C107 C 0.25619 0.08332 0.53061 0.0
O108 O 0.29448 0.10204 0.53521 0.0
O109 O 0.23386 0.09865 0.53543 0.0
O110 O 0.11132 0.30686 0.91934 0.0
Cd111 Cd 0.10637 0.31858 0.88764 0.0
O112 O 0.06181 0.31951 0.92712 0.0
Cd113 Cd 0.05084 0.33853 0.90116 0.0
O114 O 0.02735 0.37371 0.88703 0.0
C115 C -0.01163 0.35726 0.88472 0.0
O116 O -0.0361 0.31851 0.88956 0.0
C117 C 0.08837 0.30914 0.93128 0.0
C118 C 0.14177 0.28348 0.8664 0.0
O119 O 0.16355 0.32064 0.87176 0.0
O120 O 0.10332 0.2629 0.8711 0.0
O121 O 0.74173 0.13913 0.25296 0.0
Cd122 Cd 0.72762 0.1281 0.22117 0.0
O123 O 0.72575 0.07509 0.25844 0.0
Cd124 Cd 0.69273 0.05396 0.23337 0.0
O125 O 0.63198 0.0264 0.22054 0.0
C126 C 0.61552 0.04855 0.2181 0.0
O127 O 0.63695 0.08782 0.22207 0.0
C128 C 0.73994 0.11182 0.26365 0.0
C129 C 0.80059 0.15971 0.20069 0.0
O130 O 0.78467 0.18204 0.20443 0.0
O131 O 0.7821 0.12249 0.20668 0.0
H132 H 0.14731 0.29469 0.94602 0.0
H133 H 0.07199 0.29293 0.04592 0.0
H134 H 0.04126 0.30665 0.95974 0.0
H135 H 0.18583 0.29513 0.03227 0.0
H136 H 0.05604 0.29027 0.01437 0.0
H137 H 0.15771 0.28718 0.97754 0.0
C138 C 0.12603 0.29544 0.95563 0.0
C139 C 0.09353 0.3016 0.95019 0.0
C140 C 0.0844 0.29111 0.01829 0.0
C141 C 0.10531 0.2931 0.98633 0.0
C142 C 0.09348 0.29253 0.03632 0.0
C143 C 0.13046 0.29455 0.04179 0.0
C144 C 0.11243 0.29161 0.00562 0.0
C145 C 0.15708 0.29389 0.02871 0.0
C146 C 0.13204 0.29124 0.97364 0.0
C147 C 0.06691 0.30224 0.96328 0.0
N148 N 0.14764 0.29265 0.01126 0.0
N149 N 0.07349 0.29823 0.98071 0.0
H150 H 0.73922 0.17272 0.28266 0.0
H151 H 0.82907 0.13794 0.37189 0.0
H152 H 0.76477 0.07315 0.28754 0.0
H153 H 0.73517 0.17298 0.37169 0.0
H154 H 0.81822 0.12433 0.33997 0.0
H155 H 0.75143 0.18509 0.31447 0.0
C156 C 0.74792 0.15382 0.29038 0.0
C157 C 0.75094 0.12181 0.28247 0.0
C158 C 0.79995 0.13481 0.34701 0.0
C159 C 0.76515 0.13602 0.31874 0.0
C160 C 0.8061 0.1426 0.36515 0.0
C161 C 0.78283 0.15642 0.37443 0.0
C162 C 0.77125 0.14208 0.33806 0.0
C163 C 0.75351 0.16202 0.36507 0.0
C164 C 0.75453 0.16068 0.30851 0.0
C165 C 0.76197 0.09803 0.29315 0.0
N166 N 0.7489 0.15532 0.34735 0.0
N167 N 0.76896 0.10576 0.31076 0.0
H168 H 0.60473 0.75994 0.70776 0.0
H169 H 0.61042 0.83667 0.60758 0.0
H170 H 0.61031 0.87435 0.69371 0.0
H171 H 0.59044 0.71629 0.62179 0.0
H172 H 0.61771 0.85401 0.63901 0.0
H173 H 0.60686 0.74653 0.67624 0.0
C174 C 0.60673 0.7824 0.69808 0.0
C175 C 0.60707 0.81821 0.70343 0.0
C176 C 0.61191 0.82386 0.63523 0.0
C177 C 0.6094 0.80298 0.66729 0.0
C178 C 0.60782 0.81397 0.61727 0.0
C179 C 0.59954 0.77486 0.612 0.0
C180 C 0.60781 0.79452 0.64804 0.0
C181 C 0.59655 0.74674 0.6252 0.0
C182 C 0.60783 0.77467 0.68007 0.0
C183 C 0.60972 0.8462 0.69024 0.0
N184 N 0.60054 0.75706 0.64258 0.0
N185 N 0.61061 0.83792 0.67281 0.0
H186 H 0.81741 0.62984 0.04435 0.0
H187 H 0.74524 0.6271 0.94411 0.0
H188 H 0.69765 0.61311 0.03012 0.0
H189 H 0.8588 0.62976 0.95829 0.0
H190 H 0.73067 0.6295 0.97558 0.0
H191 H 0.83639 0.6373 0.01288 0.0
C192 C 0.7952 0.62801 0.03464 0.0
C193 C 0.75576 0.62056 0.03992 0.0
C194 C 0.75889 0.62978 0.97179 0.0
C195 C 0.77728 0.62902 0.00385 0.0
C196 C 0.76728 0.62852 0.95381 0.0
C197 C 0.80317 0.62794 0.94852 0.0
C198 C 0.7866 0.63058 0.98459 0.0
C199 C 0.83061 0.62987 0.96172 0.0
C200 C 0.80603 0.63219 0.01666 0.0
C201 C 0.72831 0.61855 0.0267 0.0
N202 N 0.82167 0.63093 0.97912 0.0
N203 N 0.73953 0.62259 0.00931 0.0
H204 H 0.08116 0.74937 0.27886 0.0
H205 H 0.14683 0.81857 0.37927 0.0
H206 H 0.19754 0.85613 0.29344 0.0
H207 H 0.04021 0.70228 0.36484 0.0
H208 H 0.16144 0.83712 0.34779 0.0
H209 H 0.0613 0.73599 0.31024 0.0
C210 C 0.10241 0.77019 0.28862 0.0
C211 C 0.14122 0.80376 0.28348 0.0
C212 C 0.13472 0.80763 0.35153 0.0
C213 C 0.11868 0.78858 0.31944 0.0
C214 C 0.12629 0.79707 0.36951 0.0
C215 C 0.09241 0.75867 0.37474 0.0
C216 C 0.10901 0.7797 0.33867 0.0
C217 C 0.06687 0.73209 0.36146 0.0
C218 C 0.09109 0.76246 0.30655 0.0
C219 C 0.16744 0.8297 0.29676 0.0
N220 N 0.07578 0.74304 0.34407 0.0
N221 N 0.15576 0.82148 0.31411 0.0
H222 H 0.27761 0.0951 0.6094 0.0
H223 H 0.28384 0.16939 0.70913 0.0
H224 H 0.28575 0.2103 0.62279 0.0
H225 H 0.29147 0.06215 0.69551 0.0
H226 H 0.27688 0.18096 0.67766 0.0
H227 H 0.27504 0.07866 0.64103 0.0
C228 C 0.27856 0.11681 0.61896 0.0
C229 C 0.28218 0.15427 0.61339 0.0
C230 C 0.27988 0.15479 0.68158 0.0
C231 C 0.27931 0.13566 0.64964 0.0
C232 C 0.28376 0.1481 0.69956 0.0
C233 C 0.28852 0.11489 0.705 0.0
C234 C 0.28063 0.12801 0.66893 0.0
C235 C 0.28815 0.08831 0.69196 0.0
C236 C 0.27719 0.10745 0.63703 0.0
C237 C 0.28323 0.18117 0.62643 0.0
N238 N 0.28444 0.09553 0.67456 0.0
N239 N 0.28196 0.17141 0.64391 0.0
H240 H 0.53766 0.59366 0.11062 0.0
H241 H 0.33934 0.36597 0.11362 0.0
H242 H 0.54571 0.48305 0.1115 0.0
H243 H 0.33217 0.4769 0.10981 0.0
H244 H 0.41456 0.40831 0.11759 0.0
H245 H 0.46246 0.55149 0.11508 0.0
C246 C 0.52372 0.56053 0.11197 0.0
C247 C 0.54804 0.54186 0.11044 0.0
C248 C 0.39647 0.42337 0.11609 0.0
C249 C 0.46171 0.49327 0.11542 0.0
C250 C 0.35345 0.3992 0.11386 0.0
C251 C 0.32941 0.4179 0.11114 0.0
C252 C 0.41563 0.46658 0.11557 0.0
C253 C 0.34946 0.46111 0.11167 0.0
C254 C 0.48069 0.53643 0.11449 0.0
C255 C 0.52818 0.49878 0.11243 0.0
N256 N 0.39141 0.48395 0.11364 0.0
N257 N 0.48614 0.47593 0.11462 0.0
H258 H 0.87197 0.33836 0.44687 0.0
H259 H 0.08218 0.55727 0.44062 0.0
H260 H -0.00591 0.35387 0.43928 0.0
H261 H -0.04006 0.54293 0.44534 0.0
H262 H 0.05109 0.48285 0.4445 0.0
H263 H 0.9042 0.41282 0.45068 0.0
C264 C 0.90558 0.35731 0.44623 0.0
C265 C 0.93032 0.33983 0.44253 0.0
C266 C 0.03107 0.49598 0.44486 0.0
C267 C -0.0326 0.42519 0.44679 0.0
C268 C 0.04883 0.53855 0.44267 0.0
C269 C 0.0236 0.5564 0.44243 0.0
C270 C -0.01232 0.4709 0.44676 0.0
C271 C -0.01941 0.53052 0.44529 0.0
C272 C 0.92396 0.39988 0.44837 0.0
C273 C -0.02628 0.36596 0.44193 0.0
N274 N -0.03605 0.48905 0.44715 0.0
N275 N -0.00918 0.40731 0.44386 0.0
H276 H 0.42468 0.04546 0.77678 0.0
H277 H 0.42821 0.83479 0.77721 0.0
H278 H 0.31441 0.92461 0.77599 0.0
H279 H 0.53885 0.95542 0.77533 0.0
H280 H 0.3863 0.86717 0.78168 0.0
H281 H 0.46684 0.01313 0.78113 0.0
C282 C 0.40923 0.01215 0.77777 0.0
C283 C 0.36594 -0.01229 0.77576 0.0
C284 C 0.41979 0.88657 0.78049 0.0
C285 C 0.41414 0.95048 0.78063 0.0
C286 C 0.44379 0.86807 0.77797 0.0
C287 C 0.4871 0.89242 0.77564 0.0
C288 C 0.43916 0.92978 0.78061 0.0
C289 C 0.50553 0.93541 0.77689 0.0
C290 C 0.43338 -0.0063 0.78021 0.0
C291 C 0.3477 0.9447 0.77726 0.0
N292 N 0.48142 0.95272 0.77908 0.0
N293 N 0.37191 0.92748 0.77941 0.0
H294 H 0.35118 0.36308 0.5411 0.0
H295 H 0.57798 0.56407 0.54192 0.0
H296 H 0.46538 0.36004 0.5439 0.0
H297 H 0.4641 0.568 0.54208 0.0
H298 H 0.53737 0.48958 0.538 0.0
H299 H 0.39202 0.43793 0.53682 0.0
C300 C 0.38482 0.37804 0.54058 0.0
C301 C 0.40487 0.35524 0.5431 0.0
C302 C 0.52126 0.50675 0.5387 0.0
C303 C 0.45183 0.44102 0.53831 0.0
C304 C 0.54446 0.54937 0.54092 0.0
C305 C 0.52442 0.57233 0.54257 0.0
C306 C 0.4776 0.48678 0.5382 0.0
C307 C 0.48089 0.55154 0.54102 0.0
C308 C 0.40813 0.42083 0.53818 0.0
C309 C 0.44855 0.37634 0.54221 0.0
N310 N 0.45892 0.5099 0.53912 0.0
N311 N 0.47053 0.41803 0.54007 0.0
H312 H 0.02914 0.44047 0.87739 0.0
H313 H 0.81858 0.44802 0.87756 0.0
H314 H 0.90621 0.33253 0.8799 0.0
H315 H 0.94124 0.55642 0.87767 0.0
H316 H 0.85024 0.40545 0.8736 0.0
H317 H -0.00231 0.48324 0.8727 0.0
C318 C -0.00444 0.42566 0.87672 0.0
C319 C -0.02973 0.38285 0.87929 0.0
C320 C 0.87025 0.43858 0.8743 0.0
C321 C 0.93405 0.43173 0.87404 0.0
C322 C 0.85217 0.46297 0.87653 0.0
C323 C 0.87729 0.50585 0.87821 0.0
C324 C 0.91382 0.45714 0.8738 0.0
C325 C 0.92064 0.52345 0.87662 0.0
C326 C -0.02239 0.45015 0.87408 0.0
C327 C 0.92695 0.36543 0.87818 0.0
N328 N 0.93753 0.49899 0.87471 0.0
N329 N 0.91023 0.38995 0.87583 0.0
H330 H 0.35202 0.87598 0.21294 0.0
H331 H 0.57067 0.08695 0.21235 0.0
H332 H 0.3651 -0.00324 0.2144 0.0
H333 H 0.55865 -0.03347 0.21329 0.0
H334 H 0.49556 0.0544 0.20859 0.0
H335 H 0.42731 0.90845 0.20859 0.0
C336 C 0.37061 0.90931 0.21211 0.0
C337 C 0.35221 0.93368 0.21427 0.0
C338 C 0.50935 0.03507 0.20944 0.0
C339 C 0.43852 -0.02894 0.2094 0.0
C340 C 0.55233 0.05366 0.21156 0.0
C341 C 0.571 0.02943 0.21337 0.0
C342 C 0.48471 -0.00814 0.2092 0.0
C343 C 0.54559 -0.01356 0.2121 0.0
C344 C 0.41365 0.92784 0.20967 0.0
C345 C 0.3779 -0.02329 0.21299 0.0
N346 N 0.5037 -0.03099 0.2103 0.0
N347 N 0.41974 -0.006 0.21082 0.0
H348 H 0.84136 0.11985 0.19005 0.0
H349 H 0.02056 0.31549 0.13659 0.0
H350 H 0.84747 0.23747 0.18627 0.0
H351 H 0.01265 0.19696 0.13932 0.0
H352 H -0.04239 0.2877 0.15499 0.0
H353 H 0.90447 0.14777 0.17176 0.0
C354 C 0.85597 0.15157 0.18539 0.0
C355 C 0.83903 0.17633 0.18971 0.0
C356 C -0.03038 0.26775 0.15157 0.0
C357 C 0.91142 0.20855 0.16872 0.0
C358 C 0.0056 0.28361 0.14105 0.0
C359 C 0.02196 0.25853 0.13638 0.0
C360 C -0.05023 0.22648 0.15751 0.0
C361 C 0.00119 0.21744 0.14257 0.0
C362 C 0.89203 0.1675 0.17493 0.0
C363 C 0.85937 0.21722 0.18328 0.0
N364 N -0.03377 0.20273 0.1528 0.0
N365 N 0.89445 0.23202 0.17312 0.0
H366 H 0.57859 0.88746 0.51778 0.0
H367 H 0.77783 0.06814 0.46648 0.0
H368 H 0.69789 0.8946 0.51512 0.0
H369 H 0.65808 0.06012 0.46843 0.0
H370 H 0.74916 0.00478 0.48437 0.0
H371 H 0.60716 0.95078 0.49984 0.0
C372 C 0.6108 0.90232 0.51343 0.0
C373 C 0.63586 0.88563 0.51797 0.0
C374 C 0.72913 0.01685 0.48089 0.0
C375 C 0.66883 0.95826 0.4974 0.0
C376 C 0.74549 0.05307 0.47066 0.0
C377 C 0.72034 0.06953 0.46593 0.0
C378 C 0.68725 -0.00316 0.48647 0.0
C379 C 0.67865 0.04859 0.47175 0.0
C380 C 0.62711 0.93851 0.50317 0.0
C381 C 0.67739 0.9063 0.51194 0.0
N382 N 0.66344 0.01339 0.48171 0.0
N383 N 0.69254 0.94149 0.50198 0.0
H384 H 0.71098 0.81213 0.79952 0.0
H385 H 0.67915 0.61131 0.85208 0.0
H386 H 0.59526 0.69575 0.80075 0.0
H387 H 0.79448 0.72806 0.8511 0.0
H388 H 0.64791 0.64153 0.83323 0.0
H389 H 0.74213 0.78173 0.81829 0.0
C390 C 0.6921 0.78016 0.80372 0.0
C391 C 0.6504 0.75647 0.79853 0.0
C392 C 0.68005 0.66056 0.83713 0.0
C393 C 0.68594 0.72142 0.82009 0.0
C394 C 0.69793 0.64331 0.84791 0.0
C395 C 0.73954 0.66717 0.8532 0.0
C396 C 0.70391 0.70201 0.83157 0.0
C397 C 0.76231 0.70848 0.84736 0.0
C398 C 0.70993 0.76281 0.81446 0.0
C399 C 0.6275 0.7152 0.80441 0.0
N400 N 0.74422 0.72455 0.83687 0.0
N401 N 0.64556 0.69901 0.81486 0.0
H402 H 0.86429 0.60158 0.13584 0.0
H403 H 0.03688 0.80109 0.18655 0.0
H404 H 0.86682 0.71763 0.13655 0.0
H405 H 0.03282 0.68427 0.18696 0.0
H406 H -0.02497 0.77122 0.16799 0.0
H407 H 0.92638 0.63145 0.15428 0.0
C408 C 0.87789 0.63335 0.13986 0.0
C409 C 0.86025 0.65711 0.13463 0.0
C410 C -0.01236 0.75209 0.17213 0.0
C411 C 0.93146 0.69155 0.15578 0.0
C412 C 0.02301 0.76915 0.18274 0.0
C413 C 0.04012 0.74517 0.18834 0.0
C414 C -0.03084 0.71071 0.16704 0.0
C415 C 0.02073 0.70393 0.18297 0.0
C416 C 0.91337 0.6504 0.15041 0.0
C417 C 0.87929 0.69813 0.14026 0.0
N418 N -0.01367 0.68804 0.17263 0.0
N419 N 0.91381 0.71401 0.15052 0.0
H420 H 0.09283 0.86628 0.47023 0.0
H421 H 0.29533 0.04305 0.51839 0.0
H422 H 0.21155 0.87198 0.47022 0.0
H423 H 0.17633 0.03676 0.51862 0.0
H424 H 0.26526 -0.01956 0.50079 0.0
H425 H 0.12288 0.92867 0.48795 0.0
C426 C 0.12523 0.88063 0.47395 0.0
C427 C 0.14968 0.86381 0.46871 0.0
C428 C 0.2457 -0.00727 0.50469 0.0
C429 C 0.18437 0.9354 0.48904 0.0
C430 C 0.26286 0.02852 0.51475 0.0
C431 C 0.23834 0.04525 0.52001 0.0
C432 C 0.20366 -0.02655 0.4998 0.0
C433 C 0.19644 0.02501 0.51488 0.0
C434 C 0.14239 0.91629 0.48408 0.0
C435 C 0.1915 0.88381 0.47394 0.0
N436 N 0.18047 -0.00976 0.50507 0.0
N437 N 0.20749 0.91851 0.48381 0.0
H438 H 0.30766 0.23986 0.80116 0.0
H439 H 0.10411 0.20516 0.85334 0.0
H440 H 0.191 0.12438 0.80252 0.0
H441 H 0.22183 0.3195 0.85354 0.0
H442 H 0.13527 0.1753 0.8345 0.0
H443 H 0.27667 0.26983 0.82007 0.0
C444 C 0.27552 0.22078 0.80542 0.0
C445 C 0.25191 0.1795 0.80023 0.0
C446 C 0.15432 0.20692 0.83866 0.0
C447 C 0.21619 0.21369 0.82191 0.0
C448 C 0.13653 0.22401 0.84943 0.0
C449 C 0.16037 0.26493 0.85504 0.0
C450 C 0.19631 0.23088 0.83341 0.0
C451 C 0.20225 0.28784 0.84955 0.0
C452 C 0.25784 0.23793 0.81624 0.0
C453 C 0.21041 0.15632 0.80618 0.0
N454 N 0.21885 0.27052 0.83904 0.0
N455 N 0.1939 0.17372 0.81668 0.0
loop_
_geom_bond_atom_site_label_1
_geom_bond_atom_site_label_2
_geom_bond_distance
_geom_bond_site_symmetry_2
_ccdc_geom_bond_type
O0 Cd1 2.300 . S
O0 C7 1.275 . S
Cd1 O0 2.300 . S
Cd1 O9 2.381 . S
Cd1 O10 2.378 . S
O2 Cd3 2.385 . S
O2 C7 1.255 . S
Cd3 O2 2.385 . S
Cd3 O4 2.317 . S
O4 Cd3 2.317 . S
O4 C5 1.232 . S
C5 O4 1.232 . S
C5 O6 1.218 . S
O6 C5 1.218 . S
C7 O0 1.275 . S
C7 O2 1.255 . S
C8 O9 1.258 . S
C8 O10 1.256 . S
O9 Cd1 2.381 . S
O9 C8 1.258 . S
O10 Cd1 2.378 . S
O10 C8 1.256 . S
O11 Cd12 2.300 . S
O11 C18 1.275 . S
Cd12 O11 2.300 . S
Cd12 O20 2.381 . S
Cd12 O21 2.378 . S
O13 Cd14 2.385 . S
O13 C18 1.255 . S
Cd14 O13 2.385 . S
Cd14 O15 2.317 . S
O15 Cd14 2.317 . S
O15 C16 1.232 . S
C16 O15 1.232 . S
C16 O17 1.218 . S
O17 C16 1.218 . S
C18 O11 1.275 . S
C18 O13 1.255 . S
C19 O20 1.258 . S
C19 O21 1.256 . S
O20 Cd12 2.381 . S
O20 C19 1.258 . S
O21 Cd12 2.378 . S
O21 C19 1.256 . S
O22 Cd23 2.300 . S
O22 C29 1.275 . S
Cd23 O22 2.300 . S
Cd23 O31 2.381 . S
Cd23 O32 2.378 . S
O24 Cd25 2.385 . S
O24 C29 1.255 . S
Cd25 O24 2.385 . S
Cd25 O26 2.317 . S
O26 Cd25 2.317 . S
O26 C27 1.232 . S
C27 O26 1.232 . S
C27 O28 1.218 . S
O28 C27 1.218 . S
C29 O22 1.275 . S
C29 O24 1.255 . S
C30 O31 1.258 . S
C30 O32 1.256 . S
O31 Cd23 2.381 . S
O31 C30 1.258 . S
O32 Cd23 2.378 . S
O32 C30 1.256 . S
O33 Cd34 2.300 . S
O33 C40 1.275 . S
Cd34 O33 2.300 . S
Cd34 O42 2.381 . S
Cd34 O43 2.378 . S
O35 Cd36 2.385 . S
O35 C40 1.255 . S
Cd36 O35 2.385 . S
Cd36 O37 2.317 . S
O37 Cd36 2.317 . S
O37 C38 1.232 . S
C38 O37 1.232 . S
C38 O39 1.218 . S
O39 C38 1.218 . S
C40 O33 1.275 . S
C40 O35 1.255 . S
C41 O42 1.258 . S
C41 O43 1.256 . S
O42 Cd34 2.381 . S
O42 C41 1.258 . S
O43 Cd34 2.378 . S
O43 C41 1.256 . S
O44 Cd45 2.300 . S
O44 C51 1.275 . S
Cd45 O44 2.300 . S
Cd45 O53 2.381 . S
Cd45 O54 2.378 . S
O46 Cd47 2.385 . S
O46 C51 1.255 . S
Cd47 O46 2.385 . S
Cd47 O48 2.317 . S
O48 Cd47 2.317 . S
O48 C49 1.232 . S
C49 O48 1.232 . S
C49 O50 1.218 . S
O50 C49 1.218 . S
C51 O44 1.275 . S
C51 O46 1.255 . S
C52 O53 1.258 . S
C52 O54 1.256 . S
O53 Cd45 2.381 . S
O53 C52 1.258 . S
O54 Cd45 2.378 . S
O54 C52 1.256 . S
O55 Cd56 2.300 . S
O55 C62 1.275 . S
Cd56 O55 2.300 . S
Cd56 O64 2.381 . S
Cd56 O65 2.378 . S
O57 Cd58 2.385 . S
O57 C62 1.255 . S
Cd58 O57 2.385 . S
Cd58 O59 2.317 . S
O59 Cd58 2.317 . S
O59 C60 1.232 . S
C60 O59 1.232 . S
C60 O61 1.218 . S
O61 C60 1.218 . S
C62 O55 1.275 . S
C62 O57 1.255 . S
C63 O64 1.258 . S
C63 O65 1.256 . S
O64 Cd56 2.381 . S
O64 C63 1.258 . S
O65 Cd56 2.378 . S
O65 C63 1.256 . S
O66 Cd67 2.300 . S
O66 C73 1.275 . S
Cd67 O66 2.300 . S
Cd67 O75 2.381 . S
Cd67 O76 2.378 . S
O68 Cd69 2.385 . S
O68 C73 1.255 . S
Cd69 O68 2.385 . S
Cd69 O70 2.317 . S
O70 Cd69 2.317 . S
O70 C71 1.232 . S
C71 O70 1.232 . S
C71 O72 1.218 . S
O72 C71 1.218 . S
C73 O66 1.275 . S
C73 O68 1.255 . S
C74 O75 1.258 . S
C74 O76 1.256 . S
O75 Cd67 2.381 . S
O75 C74 1.258 . S
O76 Cd67 2.378 . S
O76 C74 1.256 . S
O77 Cd78 2.300 . S
O77 C84 1.275 . S
Cd78 O77 2.300 . S
Cd78 O86 2.381 . S
Cd78 O87 2.378 . S
O79 Cd80 2.385 . S
O79 C84 1.255 . S
Cd80 O79 2.385 . S
Cd80 O81 2.317 . S
O81 Cd80 2.317 . S
O81 C82 1.232 . S
C82 O81 1.232 . S
C82 O83 1.218 . S
O83 C82 1.218 . S
C84 O77 1.275 . S
C84 O79 1.255 . S
C85 O86 1.258 . S
C85 O87 1.256 . S
O86 Cd78 2.381 . S
O86 C85 1.258 . S
O87 Cd78 2.378 . S
O87 C85 1.256 . S
O88 Cd89 2.300 . S
O88 C95 1.275 . S
Cd89 O88 2.300 . S
Cd89 O97 2.381 . S
Cd89 O98 2.378 . S
O90 Cd91 2.385 . S
O90 C95 1.255 . S
Cd91 O90 2.385 . S
Cd91 O92 2.317 . S
O92 Cd91 2.317 . S
O92 C93 1.232 . S
C93 O92 1.232 . S
C93 O94 1.218 . S
O94 C93 1.218 . S
C95 O88 1.275 . S
C95 O90 1.255 . S
C96 O97 1.258 . S
C96 O98 1.256 . S
O97 Cd89 2.381 . S
O97 C96 1.258 . S
O98 Cd89 2.378 . S
O98 C96 1.256 . S
O99 Cd100 2.300 . S
O99 C106 1.275 . S
Cd100 O99 2.300 . S
Cd100 O108 2.381 . S
Cd100 O109 2.378 . S
O101 Cd102 2.385 . S
O101 C106 1.255 . S
Cd102 O101 2.385 . S
Cd102 O103 2.317 . S
O103 Cd102 2.317 . S
O103 C104 1.232 . S
C104 O103 1.232 . S
C104 O105 1.218 . S
O105 C104 1.218 . S
C106 O99 1.275 . S
C106 O101 1.255 . S
C107 O108 1.258 . S
C107 O109 1.256 . S
O108 Cd100 2.381 . S
O108 C107 1.258 . S
O109 Cd100 2.378 . S
O109 C107 1.256 . S
O110 Cd111 2.300 . S
O110 C117 1.275 . S
Cd111 O110 2.300 . S
Cd111 O119 2.381 . S
Cd111 O120 2.378 . S
O112 Cd113 2.385 . S
O112 C117 1.255 . S
Cd113 O112 2.385 . S
Cd113 O114 2.317 . S
O114 Cd113 2.317 . S
O114 C115 1.232 . S
C115 O114 1.232 . S
C115 O116 1.218 . S
O116 C115 1.218 . S
C117 O110 1.275 . S
C117 O112 1.255 . S
C118 O119 1.258 . S
C118 O120 1.256 . S
O119 Cd111 2.381 . S
O119 C118 1.258 . S
O120 Cd111 2.378 . S
O120 C118 1.256 . S
O121 Cd122 2.300 . S
O121 C128 1.275 . S
Cd122 O121 2.300 . S
Cd122 O130 2.381 . S
Cd122 O131 2.378 . S
O123 Cd124 2.385 . S
O123 C128 1.255 . S
Cd124 O123 2.385 . S
Cd124 O125 2.317 . S
O125 Cd124 2.317 . S
O125 C126 1.232 . S
C126 O125 1.232 . S
C126 O127 1.218 . S
O127 C126 1.218 . S
C128 O121 1.275 . S
C128 O123 1.255 . S
C129 O130 1.258 . S
C129 O131 1.256 . S
O130 Cd122 2.381 . S
O130 C129 1.258 . S
O131 Cd122 2.378 . S
O131 C129 1.256 . S
H132 C138 0.930 . S
H133 C142 0.930 . S
H134 C147 0.929 . S
H135 C145 0.929 . S
H136 C140 0.929 . S
H137 C146 0.929 . S
C138 H132 0.930 . S
C138 C139 1.367 . S
C138 C146 1.378 . S
C139 C138 1.367 . S
C139 C147 1.433 . S
C140 H136 0.929 . S
C140 C142 1.378 . S
C140 C144 1.350 . S
C141 C144 1.463 1_556 S
C141 C146 1.350 . S
C141 N149 1.427 . S
C142 H133 0.930 . S
C142 C140 1.378 . S
C142 C143 1.367 . S
C143 C142 1.367 . S
C143 C145 1.433 . S
C144 C140 1.350 . S
C144 C141 1.463 1_554 S
C144 N148 1.427 . S
C145 H135 0.929 . S
C145 C143 1.433 . S
C145 N148 1.384 . S
C146 H137 0.929 . S
C146 C138 1.378 . S
C146 C141 1.350 . S
C147 H134 0.929 . S
C147 C139 1.433 . S
C147 N149 1.384 . S
N148 C144 1.427 . S
N148 C145 1.384 . S
N149 C141 1.427 . S
N149 C147 1.384 . S
H150 C156 0.930 . S
H151 C160 0.930 . S
H152 C165 0.929 . S
H153 C163 0.929 . S
H154 C158 0.929 . S
H155 C164 0.929 . S
C156 H150 0.930 . S
C156 C157 1.367 . S
C156 C164 1.378 . S
C157 C156 1.367 . S
C157 C165 1.433 . S
C158 H154 0.929 . S
C158 C160 1.378 . S
C158 C162 1.350 . S
C159 C162 1.463 . S
C159 C164 1.350 . S
C159 N167 1.427 . S
C160 H151 0.930 . S
C160 C158 1.378 . S
C160 C161 1.367 . S
C161 C160 1.367 . S
C161 C163 1.433 . S
C162 C158 1.350 . S
C162 C159 1.463 . S
C162 N166 1.427 . S
C163 H153 0.929 . S
C163 C161 1.433 . S
C163 N166 1.384 . S
C164 H155 0.929 . S
C164 C156 1.378 . S
C164 C159 1.350 . S
C165 H152 0.929 . S
C165 C157 1.433 . S
C165 N167 1.384 . S
N166 C162 1.427 . S
N166 C163 1.384 . S
N167 C159 1.427 . S
N167 C165 1.384 . S
H168 C174 0.930 . S
H169 C178 0.930 . S
H170 C183 0.929 . S
H171 C181 0.929 . S
H172 C176 0.929 . S
H173 C182 0.929 . S
C174 H168 0.930 . S
C174 C175 1.367 . S
C174 C182 1.378 . S
C175 C174 1.367 . S
C175 C183 1.433 . S
C176 H172 0.929 . S
C176 C178 1.378 . S
C176 C180 1.350 . S
C177 C180 1.463 . S
C177 C182 1.350 . S
C177 N185 1.427 . S
C178 H169 0.930 . S
C178 C176 1.378 . S
C178 C179 1.367 . S
C179 C178 1.367 . S
C179 C181 1.433 . S
C180 C176 1.350 . S
C180 C177 1.463 . S
C180 N184 1.427 . S
C181 H171 0.929 . S
C181 C179 1.433 . S
C181 N184 1.384 . S
C182 H173 0.929 . S
C182 C174 1.378 . S
C182 C177 1.350 . S
C183 H170 0.929 . S
C183 C175 1.433 . S
C183 N185 1.384 . S
N184 C180 1.427 . S
N184 C181 1.384 . S
N185 C177 1.427 . S
N185 C183 1.384 . S
H186 C192 0.930 . S
H187 C196 0.930 . S
H188 C201 0.929 . S
H189 C199 0.929 . S
H190 C194 0.929 . S
H191 C200 0.929 . S
C192 H186 0.930 . S
C192 C193 1.367 . S
C192 C200 1.378 . S
C193 C192 1.367 . S
C193 C201 1.433 . S
C194 H190 0.929 . S
C194 C196 1.378 . S
C194 C198 1.350 . S
C195 C198 1.463 1_554 S
C195 C200 1.350 . S
C195 N203 1.427 . S
C196 H187 0.930 . S
C196 C194 1.378 . S
C196 C197 1.367 . S
C197 C196 1.367 . S
C197 C199 1.433 . S
C198 C194 1.350 . S
C198 C195 1.463 1_556 S
C198 N202 1.427 . S
C199 H189 0.929 . S
C199 C197 1.433 . S
C199 N202 1.384 . S
C200 H191 0.929 . S
C200 C192 1.378 . S
C200 C195 1.350 . S
C201 H188 0.929 . S
C201 C193 1.433 . S
C201 N203 1.384 . S
N202 C198 1.427 . S
N202 C199 1.384 . S
N203 C195 1.427 . S
N203 C201 1.384 . S
H204 C210 0.930 . S
H205 C214 0.930 . S
H206 C219 0.929 . S
H207 C217 0.929 . S
H208 C212 0.929 . S
H209 C218 0.929 . S
C210 H204 0.930 . S
C210 C211 1.367 . S
C210 C218 1.378 . S
C211 C210 1.367 . S
C211 C219 1.433 . S
C212 H208 0.929 . S
C212 C214 1.378 . S
C212 C216 1.350 . S
C213 C216 1.463 . S
C213 C218 1.350 . S
C213 N221 1.427 . S
C214 H205 0.930 . S
C214 C212 1.378 . S
C214 C215 1.367 . S
C215 C214 1.367 . S
C215 C217 1.433 . S
C216 C212 1.350 . S
C216 C213 1.463 . S
C216 N220 1.427 . S
C217 H207 0.929 . S
C217 C215 1.433 . S
C217 N220 1.384 . S
C218 H209 0.929 . S
C218 C210 1.378 . S
C218 C213 1.350 . S
C219 H206 0.929 . S
C219 C211 1.433 . S
C219 N221 1.384 . S
N220 C216 1.427 . S
N220 C217 1.384 . S
N221 C213 1.427 . S
N221 C219 1.384 . S
H222 C228 0.930 . S
H223 C232 0.930 . S
H224 C237 0.929 . S
H225 C235 0.929 . S
H226 C230 0.929 . S
H227 C236 0.929 . S
C228 H222 0.930 . S
C228 C229 1.367 . S
C228 C236 1.378 . S
C229 C228 1.367 . S
C229 C237 1.433 . S
C230 H226 0.929 . S
C230 C232 1.378 . S
C230 C234 1.350 . S
C231 C234 1.463 . S
C231 C236 1.350 . S
C231 N239 1.427 . S
C232 H223 0.930 . S
C232 C230 1.378 . S
C232 C233 1.367 . S
C233 C232 1.367 . S
C233 C235 1.433 . S
C234 C230 1.350 . S
C234 C231 1.463 . S
C234 N238 1.427 . S
C235 H225 0.929 . S
C235 C233 1.433 . S
C235 N238 1.384 . S
C236 H227 0.929 . S
C236 C228 1.378 . S
C236 C231 1.350 . S
C237 H224 0.929 . S
C237 C229 1.433 . S
C237 N239 1.384 . S
N238 C234 1.427 . S
N238 C235 1.384 . S
N239 C231 1.427 . S
N239 C237 1.384 . S
H240 C246 0.930 . S
H241 C250 0.930 . S
H242 C255 0.929 . S
H243 C253 0.929 . S
H244 C248 0.929 . S
H245 C254 0.929 . S
C246 H240 0.930 . S
C246 C247 1.367 . S
C246 C254 1.378 . S
C247 C246 1.367 . S
C247 C255 1.433 . S
C248 H244 0.929 . S
C248 C250 1.378 . S
C248 C252 1.350 . S
C249 C252 1.463 . S
C249 C254 1.350 . S
C249 N257 1.427 . S
C250 H241 0.930 . S
C250 C248 1.378 . S
C250 C251 1.367 . S
C251 C250 1.367 . S
C251 C253 1.433 . S
C252 C248 1.350 . S
C252 C249 1.463 . S
C252 N256 1.427 . S
C253 H243 0.929 . S
C253 C251 1.433 . S
C253 N256 1.384 . S
C254 H245 0.929 . S
C254 C246 1.378 . S
C254 C249 1.350 . S
C255 H242 0.929 . S
C255 C247 1.433 . S
C255 N257 1.384 . S
N256 C252 1.427 . S
N256 C253 1.384 . S
N257 C249 1.427 . S
N257 C255 1.384 . S
H258 C264 0.930 . S
H259 C268 0.930 . S
H260 C273 0.929 . S
H261 C271 0.929 . S
H262 C266 0.929 . S
H263 C272 0.929 . S
C264 H258 0.930 . S
C264 C265 1.367 . S
C264 C272 1.378 . S
C265 C264 1.367 . S
C265 C273 1.433 . S
C266 H262 0.929 . S
C266 C268 1.378 . S
C266 C270 1.350 . S
C267 C270 1.463 1_655 S
C267 C272 1.350 . S
C267 N275 1.427 . S
C268 H259 0.930 . S
C268 C266 1.378 . S
C268 C269 1.367 . S
C269 C268 1.367 . S
C269 C271 1.433 . S
C270 C266 1.350 . S
C270 C267 1.463 1_455 S
C270 N274 1.427 . S
C271 H261 0.929 . S
C271 C269 1.433 . S
C271 N274 1.384 . S
C272 H263 0.929 . S
C272 C264 1.378 . S
C272 C267 1.350 . S
C273 H260 0.929 . S
C273 C265 1.433 . S
C273 N275 1.384 . S
N274 C270 1.427 . S
N274 C271 1.384 . S
N275 C267 1.427 . S
N275 C273 1.384 . S
H276 C282 0.930 . S
H277 C286 0.930 . S
H278 C291 0.929 . S
H279 C289 0.929 . S
H280 C284 0.929 . S
H281 C290 0.929 . S
C282 H276 0.930 . S
C282 C283 1.367 . S
C282 C290 1.378 . S
C283 C282 1.367 . S
C283 C291 1.433 . S
C284 H280 0.929 . S
C284 C286 1.378 . S
C284 C288 1.350 . S
C285 C288 1.463 1_545 S
C285 C290 1.350 . S
C285 N293 1.427 . S
C286 H277 0.930 . S
C286 C284 1.378 . S
C286 C287 1.367 . S
C287 C286 1.367 . S
C287 C289 1.433 . S
C288 C284 1.350 . S
C288 C285 1.463 1_565 S
C288 N292 1.427 . S
C289 H279 0.929 . S
C289 C287 1.433 . S
C289 N292 1.384 . S
C290 H281 0.929 . S
C290 C282 1.378 . S
C290 C285 1.350 . S
C291 H278 0.929 . S
C291 C283 1.433 . S
C291 N293 1.384 . S
N292 C288 1.427 . S
N292 C289 1.384 . S
N293 C285 1.427 . S
N293 C291 1.384 . S
H294 C300 0.930 . S
H295 C304 0.930 . S
H296 C309 0.929 . S
H297 C307 0.929 . S
H298 C302 0.929 . S
H299 C308 0.929 . S
C300 H294 0.930 . S
C300 C301 1.367 . S
C300 C308 1.378 . S
C301 C300 1.367 . S
C301 C309 1.433 . S
C302 H298 0.929 . S
C302 C304 1.378 . S
C302 C306 1.350 . S
C303 C306 1.463 . S
C303 C308 1.350 . S
C303 N311 1.427 . S
C304 H295 0.930 . S
C304 C302 1.378 . S
C304 C305 1.367 . S
C305 C304 1.367 . S
C305 C307 1.433 . S
C306 C302 1.350 . S
C306 C303 1.463 . S
C306 N310 1.427 . S
C307 H297 0.929 . S
C307 C305 1.433 . S
C307 N310 1.384 . S
C308 H299 0.929 . S
C308 C300 1.378 . S
C308 C303 1.350 . S
C309 H296 0.929 . S
C309 C301 1.433 . S
C309 N311 1.384 . S
N310 C306 1.427 . S
N310 C307 1.384 . S
N311 C303 1.427 . S
N311 C309 1.384 . S
H312 C318 0.930 . S
H313 C322 0.930 . S
H314 C327 0.929 . S
H315 C325 0.929 . S
H316 C320 0.929 . S
H317 C326 0.929 . S
C318 H312 0.930 . S
C318 C319 1.367 . S
C318 C326 1.378 . S
C319 C318 1.367 . S
C319 C327 1.433 . S
C320 H316 0.929 . S
C320 C322 1.378 . S
C320 C324 1.350 . S
C321 C324 1.463 1_455 S
C321 C326 1.350 . S
C321 N329 1.427 . S
C322 H313 0.930 . S
C322 C320 1.378 . S
C322 C323 1.367 . S
C323 C322 1.367 . S
C323 C325 1.433 . S
C324 C320 1.350 . S
C324 C321 1.463 1_655 S
C324 N328 1.427 . S
C325 H315 0.929 . S
C325 C323 1.433 . S
C325 N328 1.384 . S
C326 H317 0.929 . S
C326 C318 1.378 . S
C326 C321 1.350 . S
C327 H314 0.929 . S
C327 C319 1.433 . S
C327 N329 1.384 . S
N328 C324 1.427 . S
N328 C325 1.384 . S
N329 C321 1.427 . S
N329 C327 1.384 . S
H330 C336 0.930 . S
H331 C340 0.930 . S
H332 C345 0.929 . S
H333 C343 0.929 . S
H334 C338 0.929 . S
H335 C344 0.929 . S
C336 H330 0.930 . S
C336 C337 1.367 . S
C336 C344 1.378 . S
C337 C336 1.367 . S
C337 C345 1.433 . S
C338 H334 0.929 . S
C338 C340 1.378 . S
C338 C342 1.350 . S
C339 C342 1.463 1_565 S
C339 C344 1.350 . S
C339 N347 1.427 . S
C340 H331 0.930 . S
C340 C338 1.378 . S
C340 C341 1.367 . S
C341 C340 1.367 . S
C341 C343 1.433 . S
C342 C338 1.350 . S
C342 C339 1.463 1_545 S
C342 N346 1.427 . S
C343 H333 0.929 . S
C343 C341 1.433 . S
C343 N346 1.384 . S
C344 H335 0.929 . S
C344 C336 1.378 . S
C344 C339 1.350 . S
C345 H332 0.929 . S
C345 C337 1.433 . S
C345 N347 1.384 . S
N346 C342 1.427 . S
N346 C343 1.384 . S
N347 C339 1.427 . S
N347 C345 1.384 . S
H348 C354 0.930 . S
H349 C358 0.930 . S
H350 C363 0.929 . S
H351 C361 0.929 . S
H352 C356 0.929 1_655 S
H353 C362 0.929 1_455 S
C354 H348 0.930 . S
C354 C355 1.367 . S
C354 C362 1.378 . S
C355 C354 1.367 . S
C355 C363 1.433 . S
C356 H352 0.929 1_455 S
C356 C358 1.378 . S
C356 C360 1.350 . S
C357 C360 1.463 1_655 S
C357 C362 1.350 . S
C357 N365 1.427 . S
C358 H349 0.930 . S
C358 C356 1.378 . S
C358 C359 1.367 . S
C359 C358 1.367 . S
C359 C361 1.433 . S
C360 C356 1.350 . S
C360 C357 1.463 1_455 S
C360 N364 1.427 . S
C361 H351 0.929 . S
C361 C359 1.433 . S
C361 N364 1.384 . S
C362 H353 0.929 1_655 S
C362 C354 1.378 . S
C362 C357 1.350 . S
C363 H350 0.929 . S
C363 C355 1.433 . S
C363 N365 1.384 . S
N364 C360 1.427 . S
N364 C361 1.384 . S
N365 C357 1.427 . S
N365 C363 1.384 . S
H366 C372 0.930 . S
H367 C376 0.930 . S
H368 C381 0.929 . S
H369 C379 0.929 . S
H370 C374 0.929 . S
H371 C380 0.929 . S
C372 H366 0.930 . S
C372 C373 1.367 . S
C372 C380 1.378 . S
C373 C372 1.367 . S
C373 C381 1.433 . S
C374 H370 0.929 . S
C374 C376 1.378 . S
C374 C378 1.350 . S
C375 C378 1.463 1_565 S
C375 C380 1.350 . S
C375 N383 1.427 . S
C376 H367 0.930 . S
C376 C374 1.378 . S
C376 C377 1.367 . S
C377 C376 1.367 . S
C377 C379 1.433 . S
C378 C374 1.350 . S
C378 C375 1.463 1_545 S
C378 N382 1.427 . S
C379 H369 0.929 . S
C379 C377 1.433 . S
C379 N382 1.384 . S
C380 H371 0.929 . S
C380 C372 1.378 . S
C380 C375 1.350 . S
C381 H368 0.929 . S
C381 C373 1.433 . S
C381 N383 1.384 . S
N382 C378 1.427 . S
N382 C379 1.384 . S
N383 C375 1.427 . S
N383 C381 1.384 . S
H384 C390 0.930 . S
H385 C394 0.930 . S
H386 C399 0.929 . S
H387 C397 0.929 . S
H388 C392 0.929 . S
H389 C398 0.929 . S
C390 H384 0.930 . S
C390 C391 1.367 . S
C390 C398 1.378 . S
C391 C390 1.367 . S
C391 C399 1.433 . S
C392 H388 0.929 . S
C392 C394 1.378 . S
C392 C396 1.350 . S
C393 C396 1.463 . S
C393 C398 1.350 . S
C393 N401 1.427 . S
C394 H385 0.930 . S
C394 C392 1.378 . S
C394 C395 1.367 . S
C395 C394 1.367 . S
C395 C397 1.433 . S
C396 C392 1.350 . S
C396 C393 1.463 . S
C396 N400 1.427 . S
C397 H387 0.929 . S
C397 C395 1.433 . S
C397 N400 1.384 . S
C398 H389 0.929 . S
C398 C390 1.378 . S
C398 C393 1.350 . S
C399 H386 0.929 . S
C399 C391 1.433 . S
C399 N401 1.384 . S
N400 C396 1.427 . S
N400 C397 1.384 . S
N401 C393 1.427 . S
N401 C399 1.384 . S
H402 C408 0.930 . S
H403 C412 0.930 . S
H404 C417 0.929 . S
H405 C415 0.929 . S
H406 C410 0.929 . S
H407 C416 0.929 . S
C408 H402 0.930 . S
C408 C409 1.367 . S
C408 C416 1.378 . S
C409 C408 1.367 . S
C409 C417 1.433 . S
C410 H406 0.929 . S
C410 C412 1.378 . S
C410 C414 1.350 . S
C411 C414 1.463 1_655 S
C411 C416 1.350 . S
C411 N419 1.427 . S
C412 H403 0.930 . S
C412 C410 1.378 . S
C412 C413 1.367 . S
C413 C412 1.367 . S
C413 C415 1.433 . S
C414 C410 1.350 . S
C414 C411 1.463 1_455 S
C414 N418 1.427 . S
C415 H405 0.929 . S
C415 C413 1.433 . S
C415 N418 1.384 . S
C416 H407 0.929 . S
C416 C408 1.378 . S
C416 C411 1.350 . S
C417 H404 0.929 . S
C417 C409 1.433 . S
C417 N419 1.384 . S
N418 C414 1.427 . S
N418 C415 1.384 . S
N419 C411 1.427 . S
N419 C417 1.384 . S
H420 C426 0.930 . S
H421 C430 0.930 . S
H422 C435 0.929 . S
H423 C433 0.929 . S
H424 C428 0.929 . S
H425 C434 0.929 . S
C426 H420 0.930 . S
C426 C427 1.367 . S
C426 C434 1.378 . S
C427 C426 1.367 . S
C427 C435 1.433 . S
C428 H424 0.929 . S
C428 C430 1.378 . S
C428 C432 1.350 . S
C429 C432 1.463 1_565 S
C429 C434 1.350 . S
C429 N437 1.427 . S
C430 H421 0.930 . S
C430 C428 1.378 . S
C430 C431 1.367 . S
C431 C430 1.367 . S
C431 C433 1.433 . S
C432 C428 1.350 . S
C432 C429 1.463 1_545 S
C432 N436 1.427 . S
C433 H423 0.929 . S
C433 C431 1.433 . S
C433 N436 1.384 . S
C434 H425 0.929 . S
C434 C426 1.378 . S
C434 C429 1.350 . S
C435 H422 0.929 . S
C435 C427 1.433 . S
C435 N437 1.384 . S
N436 C432 1.427 . S
N436 C433 1.384 . S
N437 C429 1.427 . S
N437 C435 1.384 . S
H438 C444 0.930 . S
H439 C448 0.930 . S
H440 C453 0.929 . S
H441 C451 0.929 . S
H442 C446 0.929 . S
H443 C452 0.929 . S
C444 H438 0.930 . S
C444 C445 1.367 . S
C444 C452 1.378 . S
C445 C444 1.367 . S
C445 C453 1.433 . S
C446 H442 0.929 . S
C446 C448 1.378 . S
C446 C450 1.350 . S
C447 C450 1.463 . S
C447 C452 1.350 . S
C447 N455 1.427 . S
C448 H439 0.930 . S
C448 C446 1.378 . S
C448 C449 1.367 . S
C449 C448 1.367 . S
C449 C451 1.433 . S
C450 C446 1.350 . S
C450 C447 1.463 . S
C450 N454 1.427 . S
C451 H441 0.929 . S
C451 C449 1.433 . S
C451 N454 1.384 . S
C452 H443 0.929 . S
C452 C444 1.378 . S
C452 C447 1.350 . S
C453 H440 0.929 . S
C453 C445 1.433 . S
C453 N455 1.384 . S
N454 C450 1.427 . S
N454 C451 1.384 . S
N455 C447 1.427 . S
N455 C453 1.384 . S
C139 C117 1.454 . S
C143 C7 1.465 . S
C157 C128 1.467 . S
C161 C18 1.454 . S
C175 C29 1.466 . S
C179 C73 1.454 . S
C193 C40 1.454 . S
C197 C84 1.465 . S
C211 C95 1.464 . S
C215 C51 1.454 . S
C229 C106 1.461 . S
C233 C62 1.457 . S
C247 C38 1.274 . S
C251 C5 1.287 . S
C265 C16 1.293 . S
C269 C49 1.283 . S
C283 C60 1.291 . S
C287 C27 1.279 . S
C301 C104 1.280 . S
C305 C71 1.268 . S
C319 C115 1.283 . S
C323 C82 1.270 . S
C337 C93 1.293 . S
C341 C126 1.283 . S
C355 C129 1.493 . S
C359 C8 1.494 . S
C373 C74 1.499 . S
C377 C19 1.496 . S
C391 C30 1.497 . S
C395 C85 1.499 . S
C409 C41 1.499 . S
C413 C96 1.496 . S
C427 C52 1.497 . S
C431 C107 1.498 . S
C445 C63 1.495 . S
C449 C118 1.494 . S
