# Generated by pormake.
# Topology pts-e, (5)-cn, num edge types: 1
# Building blocks:
#     Node 0, Type 0, BuildingBlock: XOMCOT_clean_sbu_1, # of connection points: 5
#     Node 1, Type 0, BuildingBlock: XOMCOT_clean_sbu_1, # of connection points: 5
#     Node 2, Type 0, BuildingBlock: XOMCOT_clean_sbu_1, # of connection points: 5
#     Node 3, Type 0, BuildingBlock: XOMCOT_clean_sbu_1, # of connection points: 5
#     Node 4, Type 0, BuildingBlock: XOMCOT_clean_sbu_1, # of connection points: 5
#     Node 5, Type 0, BuildingBlock: XOMCOT_clean_sbu_1, # of connection points: 5
#     Node 6, Type 0, BuildingBlock: XOMCOT_clean_sbu_1, # of connection points: 5
#     Node 7, Type 0, BuildingBlock: XOMCOT_clean_sbu_1, # of connection points: 5
#     Edge 8, Type (0, 0), BuildingBlock: TEMPAE_clean_linker_10, # of connection points: 2
#     Edge 9, Type (0, 0), BuildingBlock: TEMPAE_clean_linker_10, # of connection points: 2
#     Edge 10, Type (0, 0), BuildingBlock: TEMPAE_clean_linker_10, # of connection points: 2
#     Edge 11, Type (0, 0), BuildingBlock: TEMPAE_clean_linker_10, # of connection points: 2
#     Edge 12, Type (0, 0), BuildingBlock: TEMPAE_clean_linker_10, # of connection points: 2
#     Edge 13, Type (0, 0), BuildingBlock: TEMPAE_clean_linker_10, # of connection points: 2
#     Edge 14, Type (0, 0), BuildingBlock: TEMPAE_clean_linker_10, # of connection points: 2
#     Edge 15, Type (0, 0), BuildingBlock: TEMPAE_clean_linker_10, # of connection points: 2
#     Edge 16, Type (0, 0), BuildingBlock: TEMPAE_clean_linker_10, # of connection points: 2
#     Edge 17, Type (0, 0), BuildingBlock: TEMPAE_clean_linker_10, # of connection points: 2
#     Edge 18, Type (0, 0), BuildingBlock: TEMPAE_clean_linker_10, # of connection points: 2
#     Edge 19, Type (0, 0), BuildingBlock: TEMPAE_clean_linker_10, # of connection points: 2
#     Edge 20, Type (0, 0), BuildingBlock: TEMPAE_clean_linker_10, # of connection points: 2
#     Edge 21, Type (0, 0), BuildingBlock: TEMPAE_clean_linker_10, # of connection points: 2
#     Edge 22, Type (0, 0), BuildingBlock: TEMPAE_clean_linker_10, # of connection points: 2
#     Edge 23, Type (0, 0), BuildingBlock: TEMPAE_clean_linker_10, # of connection points: 2
#     Edge 24, Type (0, 0), BuildingBlock: TEMPAE_clean_linker_10, # of connection points: 2
#     Edge 25, Type (0, 0), BuildingBlock: TEMPAE_clean_linker_10, # of connection points: 2
#     Edge 26, Type (0, 0), BuildingBlock: TEMPAE_clean_linker_10, # of connection points: 2
#     Edge 27, Type (0, 0), BuildingBlock: TEMPAE_clean_linker_10, # of connection points: 2
# Relax obj value: 0.508
# Max RMSD: 0.254
# Mean RMSD: 0.254
data_MOF--net-pts-e--node1-XOMCOT_clean_sbu_1--edge1-TEMPAE_clean_linker_10
_symmetry_space_group_name_H-M    P1
_symmetry_Int_Tables_number       1
_symmetry_cell_setting            triclinic
loop_
_symmetry_equiv_pos_as_xyz
'x, y, z'
_cell_length_a     34.477623
_cell_length_b     34.405727
_cell_length_c     49.093324
_cell_angle_alpha  90.031112
_cell_angle_beta   89.94936
_cell_angle_gamma 90.059014
loop_
_atom_site_label
_atom_site_type_symbol
_atom_site_fract_x
_atom_site_fract_y
_atom_site_fract_z
_atom_type_partial_charge
C0 C 0.20429 0.06269 0.14502 0.0
C1 C 0.16443 0.06561 0.14511 0.0
N2 N 0.14976 0.03004 0.1501 0.0
N3 N 0.21431 0.02548 0.14995 0.0
C4 C 0.18047 0.00623 0.15246 0.0
H5 H 0.22472 0.08628 0.14244 0.0
Co6 Co 0.26419 0.0066 0.15411 0.0
C7 C 0.25389 0.94645 0.19692 0.0
O8 O 0.28395 0.96155 0.20957 0.0
N9 N 0.31527 0.98783 0.15659 0.0
C10 C 0.36886 0.95166 0.1579 0.0
C11 C 0.32909 0.95148 0.16052 0.0
C12 C 0.34694 0.00858 0.14954 0.0
N13 N 0.37995 0.98791 0.15119 0.0
O14 O 0.25973 0.98216 0.11936 0.0
H15 H 0.31161 0.92593 0.16413 0.0
H16 H 0.3458 0.03787 0.14171 0.0
O17 O 0.24376 0.96019 0.17368 0.0
C18 C 0.27109 0.00709 0.10183 0.0
O19 O 0.28374 0.04092 0.11054 0.0
N20 N 0.26813 0.03503 0.18728 0.0
C21 C 0.25777 0.09601 0.22431 0.0
C22 C 0.23229 0.06414 0.22396 0.0
C23 C 0.23807 0.03402 0.20549 0.0
C24 C 0.29474 0.06437 0.18886 0.0
C25 C 0.29084 0.09432 0.20778 0.0
H26 H 0.21551 0.01239 0.20383 0.0
H27 H 0.31696 0.06761 0.17385 0.0
H28 H 0.17818 0.97544 0.15634 0.0
H29 H 0.14762 0.09196 0.14282 0.0
H30 H 0.38796 0.92705 0.16065 0.0
H31 H 0.20575 0.06395 0.23573 0.0
H32 H 0.31189 0.11768 0.2076 0.0
C33 C 0.94126 0.19511 0.67729 0.0
C34 C 0.93597 0.15545 0.67665 0.0
N35 N 0.9698 0.13888 0.66935 0.0
N36 N 0.97841 0.20333 0.67078 0.0
C37 C 0.99484 0.16853 0.66569 0.0
H38 H 0.91946 0.21646 0.6824 0.0
Co39 Co 0.00291 0.25151 0.66998 0.0
C40 C 0.0851 0.22615 0.68084 0.0
O41 O 0.10088 0.24768 0.66171 0.0
N42 N 0.02668 0.29987 0.66928 0.0
C43 C 0.05786 0.354 0.68046 0.0
C44 C 0.05443 0.31485 0.68555 0.0
C45 C 0.01331 0.33038 0.65488 0.0
N46 N 0.03164 0.36384 0.66129 0.0
O47 O 0.01868 0.24189 0.63317 0.0
H48 H 0.06948 0.29906 0.70136 0.0
H49 H 0.98842 0.32855 0.64157 0.0
O50 O 0.04865 0.22692 0.68481 0.0
C51 C 0.98954 0.24914 0.61798 0.0
O52 O 0.95716 0.26051 0.62968 0.0
N53 N 0.98422 0.26219 0.70452 0.0
C54 C 0.93427 0.26472 0.74875 0.0
C55 C 0.97099 0.24717 0.75111 0.0
C56 C 0.9954 0.24546 0.72843 0.0
C57 C 0.95177 0.28449 0.7032 0.0
C58 C 0.92614 0.28598 0.72502 0.0
H59 H 0.02142 0.22813 0.72967 0.0
H60 H 0.94354 0.2975 0.684 0.0
H61 H 0.02494 0.16495 0.65996 0.0
H62 H 0.90931 0.14004 0.68105 0.0
H63 H 0.07701 0.37384 0.69102 0.0
H64 H 0.97927 0.23168 0.7694 0.0
H65 H 0.89841 0.29998 0.72188 0.0
C66 C 0.81087 0.94418 0.16034 0.0
C67 C 0.84923 0.9343 0.16398 0.0
N68 N 0.86972 0.96739 0.16677 0.0
N69 N 0.80758 0.98328 0.16065 0.0
C70 C 0.84391 0.99651 0.1645 0.0
H71 H 0.78705 0.92423 0.15716 0.0
Co72 Co 0.76329 0.01291 0.15505 0.0
C73 C 0.77099 0.07846 0.19352 0.0
O74 O 0.73371 0.07494 0.19848 0.0
N75 N 0.71852 0.04342 0.14855 0.0
C76 C 0.67972 0.0881 0.12995 0.0
C77 C 0.71742 0.07549 0.13258 0.0
C78 C 0.68113 0.03811 0.156 0.0
N79 N 0.65712 0.06446 0.14485 0.0
O80 O 0.78475 0.02993 0.12094 0.0
H81 H 0.74234 0.08854 0.1228 0.0
H82 H 0.67073 0.01491 0.16872 0.0
O83 O 0.7868 0.05638 0.17565 0.0
C84 C 0.77715 0.00189 0.10473 0.0
O85 O 0.75677 0.97246 0.11409 0.0
N86 N 0.74229 0.99042 0.18652 0.0
C87 C 0.73656 0.92502 0.21982 0.0
C88 C 0.75932 0.95723 0.22764 0.0
C89 C 0.76167 0.98973 0.21076 0.0
C90 C 0.71705 0.96127 0.18016 0.0
C91 C 0.7119 0.92959 0.19736 0.0
H92 H 0.78412 0.01063 0.21516 0.0
H93 H 0.70426 0.96007 0.16007 0.0
H94 H 0.85167 0.02698 0.16446 0.0
H95 H 0.8612 0.90524 0.16417 0.0
H96 H 0.66963 0.11218 0.11767 0.0
H97 H 0.77941 0.95581 0.2445 0.0
H98 H 0.69244 0.9067 0.19092 0.0
C99 C 0.04838 0.79575 0.65162 0.0
C100 C 0.05675 0.83483 0.65346 0.0
N101 N 0.02336 0.85473 0.65055 0.0
N102 N 0.00983 0.79126 0.64812 0.0
C103 C 0.99554 0.82764 0.64707 0.0
H104 H 0.06881 0.77207 0.65357 0.0
Co105 Co 0.98214 0.74498 0.64668 0.0
C106 C 0.91743 0.76063 0.68498 0.0
O107 O 0.92384 0.72618 0.69564 0.0
N108 N 0.95457 0.69784 0.64347 0.0
C109 C 0.90968 0.65183 0.63774 0.0
C110 C 0.916 0.6906 0.64319 0.0
C111 C 0.97055 0.66373 0.63579 0.0
N112 N 0.94425 0.63498 0.63314 0.0
O113 O 0.96562 0.75812 0.61074 0.0
H114 H 0.89354 0.7121 0.64596 0.0
H115 H 0.00098 0.66012 0.63142 0.0
O116 O 0.93698 0.77127 0.66399 0.0
C117 C 0.9921 0.74569 0.59478 0.0
O118 O 0.02205 0.72774 0.60554 0.0
N119 N 0.00281 0.7316 0.68144 0.0
C120 C 0.05974 0.72888 0.72179 0.0
C121 C 0.0312 0.75793 0.72211 0.0
C122 C 0.00317 0.75885 0.70177 0.0
C123 C 0.02757 0.70071 0.68287 0.0
C124 C 0.05547 0.69819 0.70332 0.0
H125 H 0.98579 0.78483 0.70033 0.0
H126 H 0.02981 0.6803 0.66655 0.0
H127 H 0.96506 0.83414 0.64465 0.0
H128 H 0.08506 0.84757 0.65685 0.0
H129 H 0.88182 0.63738 0.63678 0.0
H130 H 0.03326 0.7828 0.73555 0.0
H131 H 0.07635 0.67472 0.70257 0.0
C132 C 0.19275 0.94313 0.8489 0.0
C133 C 0.15283 0.94201 0.84872 0.0
N134 N 0.13969 0.9788 0.84699 0.0
N135 N 0.20447 0.98045 0.84725 0.0
C136 C 0.17154 0.00149 0.84643 0.0
H137 H 0.21206 0.9184 0.84961 0.0
Co138 Co 0.25534 -0.00198 0.84574 0.0
C139 C 0.25018 0.05974 0.80439 0.0
O140 O 0.28127 0.04445 0.79317 0.0
N141 N 0.30691 0.01572 0.84603 0.0
C142 C 0.36067 0.05158 0.84881 0.0
C143 C 0.32129 0.05226 0.84431 0.0
C144 C 0.33766 0.9942 0.85379 0.0
N145 N 0.37082 0.01477 0.85452 0.0
O146 O 0.24926 0.0195 0.88143 0.0
H147 H 0.30435 0.07819 0.84091 0.0
H148 H 0.33567 0.96423 0.86023 0.0
O149 O 0.23766 0.04611 0.82709 0.0
C150 C 0.25742 0.99109 0.89718 0.0
O151 O 0.26674 0.95768 0.88594 0.0
N152 N 0.26126 0.97195 0.81161 0.0
C153 C 0.25223 0.91236 0.77342 0.0
C154 C 0.22678 0.9442 0.77379 0.0
C155 C 0.23197 0.97374 0.79284 0.0
C156 C 0.28853 0.94335 0.80941 0.0
C157 C 0.28529 0.91413 0.78991 0.0
H158 H 0.20934 0.99527 0.7946 0.0
H159 H 0.31074 0.93984 0.82432 0.0
H160 H 0.17084 0.0329 0.84546 0.0
H161 H 0.13493 0.91615 0.84912 0.0
H162 H 0.38024 0.07616 0.84785 0.0
H163 H 0.20048 0.94453 0.76179 0.0
H164 H 0.30651 0.89096 0.78984 0.0
C165 C 0.05916 0.2106 0.35748 0.0
C166 C 0.06801 0.17168 0.35537 0.0
N167 N 0.03463 0.15146 0.35697 0.0
N168 N 0.02036 0.21459 0.35982 0.0
C169 C 0.00635 0.17808 0.35984 0.0
H170 H 0.0796 0.23443 0.35682 0.0
Co171 Co 0.99159 0.2599 0.36129 0.0
C172 C 0.9262 0.24732 0.32332 0.0
O173 O 0.9297 0.28397 0.31622 0.0
N174 N 0.962 0.30594 0.36379 0.0
C175 C 0.91618 0.34726 0.37777 0.0
C176 C 0.92725 0.30884 0.37651 0.0
C177 C 0.9709 0.34296 0.35715 0.0
N178 N 0.94376 0.36842 0.36538 0.0
O179 O 0.9731 0.24477 0.39647 0.0
H180 H 0.91147 0.28462 0.38515 0.0
H181 H -0.00259 0.35216 0.34762 0.0
O182 O 0.94817 0.23372 0.3421 0.0
C183 C -0.00286 0.26003 0.4131 0.0
O184 O 0.02549 0.28125 0.40307 0.0
N185 N 0.0149 0.27513 0.3284 0.0
C186 C 0.07483 0.28071 0.29022 0.0
C187 C 0.04297 0.25585 0.28583 0.0
C188 C 0.0135 0.25332 0.30517 0.0
C189 C 0.04462 0.30069 0.33231 0.0
C190 C 0.07362 0.3055 0.31287 0.0
H191 H 0.99303 0.22985 0.30299 0.0
H192 H 0.04829 0.3145 0.35192 0.0
H193 H 0.9758 0.17111 0.36123 0.0
H194 H 0.09662 0.15923 0.35285 0.0
H195 H 0.89048 0.35881 0.38752 0.0
H196 H 0.04268 0.23491 0.26938 0.0
H197 H 0.09695 0.32562 0.3172 0.0
C198 C 0.80113 0.06398 0.86019 0.0
C199 C 0.83909 0.07593 0.85737 0.0
N200 N 0.8598 0.04571 0.84778 0.0
N201 N 0.79825 0.02645 0.85247 0.0
C202 C 0.83446 0.01614 0.84517 0.0
H203 H 0.77726 0.08131 0.86772 0.0
Co204 Co 0.75423 0.99561 0.85321 0.0
C205 C 0.7635 0.9399 0.80788 0.0
O206 O 0.7268 0.94585 0.80203 0.0
N207 N 0.70957 0.96372 0.85474 0.0
C208 C 0.67102 0.91384 0.86549 0.0
C209 C 0.70873 0.92697 0.8646 0.0
C210 C 0.67207 0.9717 0.84918 0.0
N211 N 0.64825 0.94212 0.85559 0.0
O212 O 0.77444 0.97044 0.8849 0.0
H213 H 0.73389 0.911 0.87144 0.0
H214 H 0.66153 -0.00102 0.84145 0.0
O215 O 0.77871 0.95771 0.82819 0.0
C216 C 0.75803 0.98782 0.90478 0.0
O217 O 0.73139 0.01401 0.89943 0.0
N218 N 0.73425 0.02568 0.82481 0.0
C219 C 0.73021 0.09842 0.80044 0.0
C220 C 0.75121 0.06818 0.78807 0.0
C221 C 0.75322 0.03195 0.80077 0.0
C222 C 0.71035 0.05353 0.83527 0.0
C223 C 0.70683 0.08967 0.82289 0.0
H224 H 0.77481 0.01183 0.79347 0.0
H225 H 0.69819 0.04988 0.85541 0.0
H226 H 0.84259 0.98706 0.83907 0.0
H227 H 0.85063 0.10437 0.86224 0.0
H228 H 0.66103 0.8861 0.8732 0.0
H229 H 0.77044 0.07385 0.77107 0.0
H230 H 0.69034 0.11218 0.83308 0.0
C231 C 0.94905 0.8127 0.33087 0.0
C232 C 0.94471 0.85248 0.33092 0.0
N233 N 0.97941 0.86849 0.33675 0.0
N234 N 0.98646 0.80402 0.33611 0.0
C235 C 0.00404 0.83851 0.34 0.0
H236 H 0.92659 0.79143 0.32698 0.0
Co237 Co 0.00892 0.75518 0.33831 0.0
C238 C 0.07791 0.76562 0.30304 0.0
O239 O 0.06885 0.73293 0.2907 0.0
N240 N 0.03048 0.7058 0.3425 0.0
C241 C 0.06576 0.65242 0.34891 0.0
C242 C 0.06688 0.69123 0.34194 0.0
C243 C 0.00868 0.67627 0.35196 0.0
N244 N 0.02879 0.64309 0.35492 0.0
O245 O 0.02306 0.76608 0.37527 0.0
H246 H 0.09288 0.70755 0.3375 0.0
H247 H 0.9782 0.67923 0.35676 0.0
O248 O 0.05792 0.77686 0.32363 0.0
C249 C 0.99319 0.75905 0.38987 0.0
O250 O 0.96124 0.74788 0.37752 0.0
N251 N 0.99084 0.74397 0.30233 0.0
C252 C 0.93579 0.74551 0.26078 0.0
C253 C 0.96468 0.77433 0.26242 0.0
C254 C 0.99231 0.77264 0.28305 0.0
C255 C 0.96704 0.71273 0.29823 0.0
C256 C 0.94024 0.71235 0.27702 0.0
H257 H 0.01082 0.79768 0.28583 0.0
H258 H 0.96504 0.68959 0.31269 0.0
H259 H 0.03445 0.84157 0.34495 0.0
H260 H 0.9181 0.86834 0.32735 0.0
H261 H 0.09012 0.63262 0.34915 0.0
H262 H 0.96348 0.80062 0.2504 0.0
H263 H 0.92031 0.68812 0.27557 0.0
C264 C 0.29621 0.01843 0.0553 0.0
C265 C 0.26872 0.00056 0.0722 0.0
C266 C 0.29275 0.01714 0.0269 0.0
C267 C 0.26048 -0.00182 0.01505 0.0
C268 C 0.23266 0.97977 0.03202 0.0
C269 C 0.23734 0.98081 0.06051 0.0
C270 C 0.32368 0.03613 0.0096 0.0
C271 C 0.19768 0.95963 0.02009 0.0
C272 C 0.23994 0.02506 0.94107 0.0
C273 C 0.25732 0.99394 0.92729 0.0
C274 C 0.23954 0.02629 0.96977 0.0
C275 C 0.25736 0.99598 0.98484 0.0
C276 C 0.2748 0.96457 0.97094 0.0
C277 C 0.27442 0.96389 0.94245 0.0
C278 C 0.22039 0.0601 0.98398 0.0
C279 C 0.29476 0.93205 0.98613 0.0
H280 H 0.32051 0.03371 0.06437 0.0
H281 H 0.21573 0.96759 0.07363 0.0
H282 H 0.3369 0.01431 0.99577 0.0
H283 H 0.31059 0.05902 0.99664 0.0
H284 H 0.34707 0.04948 0.02205 0.0
H285 H 0.17827 0.94753 0.03605 0.0
H286 H 0.1809 0.9804 0.00746 0.0
H287 H 0.20705 0.93563 0.00651 0.0
H288 H 0.22645 0.04818 0.92948 0.0
H289 H 0.28811 0.93974 0.93203 0.0
H290 H 0.24242 0.07696 0.99547 0.0
H291 H 0.19878 0.04934 0.99896 0.0
H292 H 0.20564 0.07995 0.96947 0.0
H293 H 0.31952 0.94387 0.99796 0.0
H294 H 0.30582 0.90906 0.97226 0.0
H295 H 0.27446 0.91852 1.00088 0.0
C296 C 0.01466 0.28098 0.45987 0.0
C297 C 0.99463 0.25489 0.44298 0.0
C298 C 0.01457 0.27676 0.48822 0.0
C299 C 0.99427 0.24534 0.50014 0.0
C300 C 0.97425 0.21855 0.48324 0.0
C301 C 0.97439 0.22383 0.45477 0.0
C302 C 0.03557 0.30652 0.50543 0.0
C303 C 0.95261 0.1845 0.49526 0.0
C304 C 0.02066 0.22633 0.57434 0.0
C305 C 0.99098 0.24633 0.58789 0.0
C306 C 0.0212 0.22406 0.54568 0.0
C307 C 0.99175 0.24279 0.53037 0.0
C308 C 0.96156 0.26257 0.54407 0.0
C309 C 0.96144 0.26388 0.57256 0.0
C310 C 0.05363 0.20234 0.53174 0.0
C311 C 0.93006 0.28367 0.52862 0.0
H312 H 0.03026 0.3052 0.45093 0.0
H313 H 0.95922 0.20338 0.44176 0.0
H314 H 0.0146 0.32165 0.51891 0.0
H315 H 0.05712 0.29198 0.51873 0.0
H316 H 0.05086 0.32864 0.49291 0.0
H317 H 0.94069 0.1649 0.47934 0.0
H318 H 0.97213 0.1675 0.50869 0.0
H319 H 0.9283 0.19513 0.50806 0.0
H320 H 0.04334 0.21242 0.58609 0.0
H321 H 0.93841 0.27954 0.58283 0.0
H322 H 0.0722 0.2231 0.52036 0.0
H323 H 0.04161 0.18145 0.51672 0.0
H324 H 0.07208 0.18625 0.54645 0.0
H325 H 0.94301 0.3078 0.51667 0.0
H326 H 0.90754 0.29594 0.54234 0.0
H327 H 0.91581 0.26372 0.51396 0.0
C328 C 0.79568 0.96426 0.06382 0.0
C329 C 0.7897 0.00069 0.07596 0.0
C330 C 0.79877 0.96029 0.03552 0.0
C331 C 0.79559 0.99361 0.01886 0.0
C332 C 0.79326 0.03093 0.03115 0.0
C333 C 0.79039 0.03408 0.05972 0.0
C334 C 0.80156 0.92 0.02345 0.0
C335 C 0.7904 0.06723 0.01407 0.0
C336 C 0.80781 0.98373 0.94176 0.0
C337 C 0.76899 0.98191 0.93345 0.0
C338 C 0.81728 0.98731 0.96959 0.0
C339 C 0.78716 0.98867 0.98928 0.0
C340 C 0.74807 0.98489 0.98084 0.0
C341 C 0.73953 0.9819 0.95306 0.0
C342 C 0.85924 0.99149 0.97777 0.0
C343 C 0.715 0.98522 1.00108 0.0
H344 H 0.79584 0.93838 0.07643 0.0
H345 H 0.78586 0.06227 0.06907 0.0
H346 H 0.77289 0.91147 0.01509 0.0
H347 H 0.82272 0.91933 0.00643 0.0
H348 H 0.81025 0.89806 0.03888 0.0
H349 H 0.79541 0.09391 0.02634 0.0
H350 H 0.81167 0.0664 0.99712 0.0
H351 H 0.76102 0.06898 0.00494 0.0
H352 H 0.83052 0.98467 0.92648 0.0
H353 H 0.7095 0.98077 0.94652 0.0
H354 H 0.86628 0.97148 0.99477 0.0
H355 H 0.86448 0.02152 0.98515 0.0
H356 H 0.87927 0.98558 0.96053 0.0
H357 H 0.71918 0.962 0.01647 0.0
H358 H 0.68637 0.98083 0.99118 0.0
H359 H 0.71447 0.01339 0.01209 0.0
C360 C 0.02199 0.78185 0.43429 0.0
C361 C 0.99344 0.76126 0.41999 0.0
C362 C 0.02128 0.78355 0.46298 0.0
C363 C 0.99181 0.76356 0.47753 0.0
C364 C 0.96284 0.74304 0.46308 0.0
C365 C 0.96387 0.7424 0.43459 0.0
C366 C 0.05236 0.80615 0.47773 0.0
C367 C 0.93144 0.72055 0.47772 0.0
C368 C 0.0126 0.72564 0.54843 0.0
C369 C 0.99072 0.75075 0.56489 0.0
C370 C 0.01374 0.73006 0.5201 0.0
C371 C 0.99293 0.76079 0.5078 0.0
C372 C 0.97107 0.78662 0.5243 0.0
C373 C 0.96989 0.78105 0.55273 0.0
C374 C 0.03662 0.70126 0.50329 0.0
C375 C 0.9489 0.81999 0.5119 0.0
H376 H 0.04467 0.79675 0.4231 0.0
H377 H 0.94175 0.72622 0.42373 0.0
H378 H 0.03898 0.8265 0.49255 0.0
H379 H 0.07098 0.7859 0.48945 0.0
H380 H 0.07101 0.82297 0.46352 0.0
H381 H 0.91012 0.70745 0.46345 0.0
H382 H 0.94469 0.69691 0.48993 0.0
H383 H 0.91567 0.73981 0.49206 0.0
H384 H 0.02865 0.70202 0.55771 0.0
H385 H 0.95335 0.80078 0.56544 0.0
H386 H 0.05836 0.71668 0.49062 0.0
H387 H 0.01688 0.68555 0.48923 0.0
H388 H 0.05194 0.67954 0.51609 0.0
H389 H 0.9685 0.83782 0.49903 0.0
H390 H 0.9355 0.83898 0.5276 0.0
H391 H 0.92564 0.80862 0.49847 0.0
C392 C 0.11181 0.25595 0.2497 0.0
C393 C 0.11208 0.2735 0.27552 0.0
C394 C 0.14385 0.23463 0.24055 0.0
C395 C 0.17769 0.23317 0.25681 0.0
C396 C 0.18078 0.25721 0.27997 0.0
C397 C 0.14766 0.27637 0.28952 0.0
C398 C 0.13974 0.21009 0.21519 0.0
C399 C 0.21777 0.25938 0.29632 0.0
C400 C 0.22059 0.13259 0.25995 0.0
C401 C 0.24569 0.13314 0.23746 0.0
C402 C 0.19945 0.16566 0.26729 0.0
C403 C 0.20549 0.20087 0.2529 0.0
C404 C 0.23476 0.20308 0.23284 0.0
C405 C 0.25385 0.169 0.22486 0.0
C406 C 0.16834 0.1619 0.28888 0.0
C407 C 0.24422 0.24055 0.21829 0.0
H408 H 0.08536 0.25563 0.23781 0.0
H409 H 0.14932 0.29036 0.30921 0.0
H410 H 0.16427 0.21559 0.20112 0.0
H411 H 0.14048 0.17883 0.22079 0.0
H412 H 0.11221 0.21594 0.20419 0.0
H413 H 0.21924 0.28672 0.30833 0.0
H414 H 0.21896 0.23464 0.31076 0.0
H415 H 0.24361 0.25765 0.28286 0.0
H416 H 0.21538 0.10559 0.2707 0.0
H417 H 0.27317 0.17044 0.2075 0.0
H418 H 0.13957 0.16893 0.28002 0.0
H419 H 0.17374 0.18279 0.30565 0.0
H420 H 0.16692 0.1322 0.2977 0.0
H421 H 0.22795 0.24178 0.19883 0.0
H422 H 0.2756 0.24185 0.2132 0.0
H423 H 0.2366 0.26649 0.23061 0.0
C424 C 0.75193 0.15152 0.76918 0.0
C425 C 0.74237 0.13916 0.7955 0.0
C426 C 0.77711 0.18304 0.76529 0.0
C427 C 0.79297 0.20218 0.78831 0.0
C428 C 0.77849 0.1938 0.81455 0.0
C429 C 0.75334 0.16223 0.81788 0.0
C430 C 0.79083 0.19219 0.73681 0.0
C431 C 0.79378 0.21423 0.83954 0.0
C432 C 0.89976 0.21465 0.77635 0.0
C433 C 0.90172 0.25317 0.76701 0.0
C434 C 0.86493 0.19884 0.78577 0.0
C435 C 0.83095 0.22192 0.78546 0.0
C436 C 0.83347 0.2619 0.77913 0.0
C437 C 0.86906 0.27723 0.77026 0.0
C438 C 0.86387 0.15625 0.79344 0.0
C439 C 0.79817 0.28775 0.77927 0.0
H440 H 0.74278 0.13433 0.75181 0.0
H441 H 0.7461 0.15314 0.8384 0.0
H442 H 0.79338 0.22405 0.73382 0.0
H443 H 0.82 0.1793 0.73363 0.0
H444 H 0.77092 0.18018 0.72113 0.0
H445 H 0.7726 0.21279 0.85659 0.0
H446 H 0.82089 0.19977 0.84628 0.0
H447 H 0.80063 0.24513 0.83525 0.0
H448 H 0.92439 0.19545 0.77405 0.0
H449 H 0.8705 0.30741 0.76405 0.0
H450 H 0.84773 0.13966 0.77771 0.0
H451 H 0.84861 0.15213 0.81313 0.0
H452 H 0.89339 0.14357 0.79525 0.0
H453 H 0.78328 0.28536 0.75931 0.0
H454 H 0.80632 0.3187 0.78235 0.0
H455 H 0.77723 0.2791 0.79534 0.0
C456 C 0.767 0.88053 0.25439 0.0
C457 C 0.74685 0.88519 0.22976 0.0
C458 C 0.79119 0.84836 0.25849 0.0
C459 C 0.7928 0.81884 0.23841 0.0
C460 C 0.76658 0.81953 0.21643 0.0
C461 C 0.74458 0.85308 0.21192 0.0
C462 C 0.81814 0.84826 0.28275 0.0
C463 C 0.76461 0.78674 0.19604 0.0
C464 C 0.89493 0.78321 0.2277 0.0
C465 C 0.89753 0.75468 0.24803 0.0
C466 C 0.86012 0.80308 0.22315 0.0
C467 C 0.82644 0.79211 0.23783 0.0
C468 C 0.82727 0.75896 0.25469 0.0
C469 C 0.86294 0.74116 0.26013 0.0
C470 C 0.86047 0.83822 0.20467 0.0
C471 C 0.7914 0.74412 0.26896 0.0
H472 H 0.76691 0.90365 0.26935 0.0
H473 H 0.72865 0.85484 0.19301 0.0
H474 H 0.81515 0.82071 0.29422 0.0
H475 H 0.84867 0.85031 0.27566 0.0
H476 H 0.81241 0.87283 0.29688 0.0
H477 H 0.73562 0.7854 0.18622 0.0
H478 H 0.78647 0.79156 0.1798 0.0
H479 H 0.77076 0.7583 0.20579 0.0
H480 H 0.92079 0.79241 0.21695 0.0
H481 H 0.86358 0.71883 0.27562 0.0
H482 H 0.85315 0.86468 0.21657 0.0
H483 H 0.83829 0.83506 0.1885 0.0
H484 H 0.88912 0.84282 0.19479 0.0
H485 H 0.78971 0.757 0.28965 0.0
H486 H 0.79272 0.71205 0.27142 0.0
H487 H 0.76451 0.75167 0.25775 0.0
C488 C 0.21402 0.87456 0.73893 0.0
C489 C 0.23959 0.87482 0.76113 0.0
C490 C 0.19152 0.84169 0.73313 0.0
C491 C 0.1963 0.80766 0.74903 0.0
C492 C 0.2262 0.80581 0.76857 0.0
C493 C 0.247 0.83962 0.77481 0.0
C494 C 0.16003 0.84477 0.71182 0.0
C495 C 0.23397 0.76933 0.78473 0.0
C496 C 0.09958 0.75931 0.75867 0.0
C497 C 0.09782 0.73665 0.73496 0.0
C498 C 0.13311 0.78042 0.76501 0.0
C499 C 0.1661 0.77707 0.74796 0.0
C500 C 0.16668 0.74904 0.72699 0.0
C501 C 0.13228 0.72954 0.72039 0.0
C502 C 0.13153 0.80966 0.78796 0.0
C503 C 0.20223 0.74261 0.70961 0.0
H504 H 0.20931 0.90098 0.72741 0.0
H505 H 0.2667 0.83881 0.79196 0.0
H506 H 0.16238 0.82059 0.697 0.0
H507 H 0.13116 0.84246 0.72174 0.0
H508 H 0.16128 0.87269 0.70049 0.0
H509 H 0.26461 0.76827 0.79168 0.0
H510 H 0.21519 0.76897 0.80308 0.0
H511 H 0.22768 0.7428 0.77264 0.0
H512 H 0.07359 0.76361 0.77073 0.0
H513 H 0.13188 0.71178 0.70218 0.0
H514 H 0.13239 0.83952 0.77942 0.0
H515 H 0.15703 0.80637 0.80149 0.0
H516 H 0.1048 0.80665 0.80044 0.0
H517 H 0.20277 0.76428 0.69289 0.0
H518 H 0.20202 0.71319 0.70028 0.0
H519 H 0.22921 0.74613 0.72168 0.0
C520 C 0.89397 0.8288 0.69464 0.0
C521 C 0.8934 0.78887 0.70059 0.0
C522 C 0.87446 0.85576 0.7114 0.0
C523 C 0.85381 0.8425 0.73462 0.0
C524 C 0.85279 0.80222 0.74047 0.0
C525 C 0.87241 0.77604 0.72341 0.0
C526 C 0.8762 0.89845 0.70438 0.0
C527 C 0.83118 0.78671 0.76495 0.0
C528 C 0.82711 0.90954 0.7938 0.0
C529 C 0.78749 0.91596 0.78902 0.0
C530 C 0.8495 0.88682 0.77579 0.0
C531 C 0.83189 0.87014 0.75241 0.0
C532 C 0.7922 0.87737 0.74718 0.0
C533 C 0.77055 0.89997 0.76552 0.0
C534 C 0.89174 0.87986 0.78214 0.0
C535 C 0.77227 0.86046 0.72247 0.0
H536 H 0.91032 0.83912 0.67724 0.0
H537 H 0.87174 0.74533 0.72829 0.0
H538 H 0.84646 0.90979 0.70109 0.0
H539 H 0.88892 0.91504 0.72159 0.0
H540 H 0.89375 0.90414 0.68581 0.0
H541 H 0.83385 0.75467 0.76699 0.0
H542 H 0.8424 0.80048 0.78381 0.0
H543 H 0.79996 0.79416 0.76339 0.0
H544 H 0.84058 0.92195 0.81175 0.0
H545 H 0.74009 0.90493 0.76139 0.0
H546 H 0.90998 0.88681 0.76417 0.0
H547 H 0.89627 0.84868 0.78693 0.0
H548 H 0.90191 0.89752 0.7997 0.0
H549 H 0.78863 0.868 0.70373 0.0
H550 H 0.74199 0.87102 0.72027 0.0
H551 H 0.77169 0.8283 0.72399 0.0
C552 C 0.19238 0.90734 0.20204 0.0
C553 C 0.22928 0.91773 0.21165 0.0
C554 C 0.16773 0.88314 0.21743 0.0
C555 C 0.1805 0.86843 0.24287 0.0
C556 C 0.21799 0.8782 0.2524 0.0
C557 C 0.24179 0.90271 0.23676 0.0
C558 C 0.128 0.87338 0.20647 0.0
C559 C 0.2329 0.86298 0.27927 0.0
C560 C 0.10581 0.8321 0.29442 0.0
C561 C 0.10665 0.79183 0.2899 0.0
C562 C 0.12958 0.85742 0.27925 0.0
C563 C 0.15514 0.84209 0.25931 0.0
C564 C 0.1568 0.80139 0.25522 0.0
C565 C 0.13248 0.77685 0.27044 0.0
C566 C 0.12663 0.90067 0.28407 0.0
C567 C 0.18388 0.78375 0.23442 0.0
H568 H 0.18238 0.9186 0.18271 0.0
H569 H 0.27024 0.91041 0.24444 0.0
H570 H 0.12654 0.84193 0.20157 0.0
H571 H 0.10547 0.87928 0.22208 0.0
H572 H 0.12093 0.89016 0.18779 0.0
H573 H 0.26282 0.87312 0.28375 0.0
H574 H 0.21353 0.87253 0.29604 0.0
H575 H 0.23273 0.83073 0.27917 0.0
H576 H 0.08559 0.844 0.30911 0.0
H577 H 0.13334 0.74579 0.2668 0.0
H578 H 0.11733 0.91539 0.26505 0.0
H579 H 0.15546 0.91263 0.2896 0.0
H580 H 0.10568 0.90796 0.3005 0.0
H581 H 0.1766 0.79474 0.21381 0.0
H582 H 0.18232 0.7515 0.23413 0.0
H583 H 0.21422 0.79254 0.23877 0.0
C584 C 0.09559 0.16724 0.70949 0.0
C585 C 0.1094 0.20286 0.69953 0.0
C586 C 0.1177 0.14488 0.72768 0.0
C587 C 0.15392 0.15918 0.73695 0.0
C588 C 0.16744 0.19574 0.72754 0.0
C589 C 0.14533 0.21682 0.70854 0.0
C590 C 0.10284 0.10541 0.73625 0.0
C591 C 0.2053 0.21256 0.73754 0.0
C592 C 0.19795 0.11065 0.79978 0.0
C593 C 0.22625 0.08678 0.78792 0.0
C594 C 0.17463 0.13507 0.78356 0.0
C595 C 0.17896 0.13461 0.7548 0.0
C596 C 0.20711 0.1101 0.74281 0.0
C597 C 0.23068 0.08702 0.75948 0.0
C598 C 0.14541 0.16133 0.79715 0.0
C599 C 0.21186 0.10758 0.71225 0.0
H600 H 0.06774 0.15642 0.70258 0.0
H601 H 0.15571 0.24469 0.70123 0.0
H602 H 0.12281 0.08253 0.72868 0.0
H603 H 0.10214 0.10312 0.75876 0.0
H604 H 0.0733 0.09934 0.72825 0.0
H605 H 0.21008 0.24269 0.73013 0.0
H606 H 0.20589 0.21266 0.76014 0.0
H607 H 0.22978 0.19422 0.73052 0.0
H608 H 0.19426 0.11045 0.82171 0.0
H609 H 0.25197 0.06816 0.75003 0.0
H610 H 0.11565 0.15314 0.79077 0.0
H611 H 0.15022 0.19186 0.79065 0.0
H612 H 0.14705 0.15985 0.81972 0.0
H613 H 0.1839 0.09923 0.70271 0.0
H614 H 0.23427 0.0861 0.70612 0.0
H615 H 0.22012 0.13638 0.70392 0.0
C616 C 0.778 0.11981 0.23522 0.0
C617 C 0.79514 0.10253 0.21224 0.0
C618 C 0.80008 0.14097 0.25414 0.0
C619 C 0.84042 0.14568 0.24994 0.0
C620 C 0.85808 0.12826 0.22684 0.0
C621 C 0.83528 0.10672 0.20835 0.0
C622 C 0.78005 0.1586 0.27858 0.0
C623 C 0.90094 0.13282 0.22145 0.0
C624 C 0.88438 0.23591 0.28243 0.0
C625 C 0.90302 0.22087 0.30557 0.0
C626 C 0.86486 0.21165 0.26397 0.0
C627 C 0.86327 0.17112 0.26878 0.0
C628 C 0.88175 0.1556 0.29219 0.0
C629 C 0.90154 0.18062 0.31025 0.0
C630 C 0.84591 0.22949 0.23922 0.0
C631 C 0.88043 0.11261 0.29824 0.0
H632 H 0.74712 0.11651 0.2387 0.0
H633 H 0.8489 0.0933 0.19081 0.0
H634 H 0.79471 0.14928 0.29759 0.0
H635 H 0.782 0.19075 0.27761 0.0
H636 H 0.74896 0.15027 0.27982 0.0
H637 H 0.91045 0.11669 0.203 0.0
H638 H 0.90807 0.16404 0.21874 0.0
H639 H 0.91784 0.12224 0.23916 0.0
H640 H 0.88544 0.26686 0.2784 0.0
H641 H 0.91602 0.16861 0.32792 0.0
H642 H 0.81413 0.22454 0.23994 0.0
H643 H 0.85695 0.21537 0.22043 0.0
H644 H 0.85129 0.26126 0.23774 0.0
H645 H 0.84989 0.10321 0.30102 0.0
H646 H 0.89708 0.10494 0.31684 0.0
H647 H 0.89235 0.09594 0.2808 0.0
C648 C 0.08074 0.03638 0.13866 0.0
C649 C 0.10994 0.01983 0.1546 0.0
C650 C 0.04183 0.02589 0.14247 0.0
C651 C 0.03203 -0.00115 0.16313 0.0
C652 C 0.06139 0.98274 0.17975 0.0
C653 C 0.10012 0.99308 0.17503 0.0
C654 C 0.01128 0.04338 0.12418 0.0
C655 C 0.05205 0.95447 0.20235 0.0
C656 C 0.9266 0.00231 0.18418 0.0
C657 C 0.91098 0.97179 0.16879 0.0
C658 C 0.96643 0.0102 0.18371 0.0
C659 C 0.99097 0.98738 0.16703 0.0
C660 C 0.97559 0.95538 0.15244 0.0
C661 C 0.93568 0.94777 0.15367 0.0
C662 C 0.98195 0.04387 0.20018 0.0
C663 C 0.00091 0.9305 0.13439 0.0
H664 H 0.08854 0.05686 0.12281 0.0
H665 H 0.12278 0.98071 0.18761 0.0
H666 H 0.99546 0.01995 0.1133 0.0
H667 H 0.98971 0.0595 0.13658 0.0
H668 H 0.02383 0.06358 0.10888 0.0
H669 H 0.0772 0.94976 0.2161 0.0
H670 H 0.02719 0.96498 0.21468 0.0
H671 H 0.04364 0.92606 0.19343 0.0
H672 H 0.90742 0.02047 0.19619 0.0
H673 H 0.92346 0.92434 0.14167 0.0
H674 H 0.99103 0.06762 0.18628 0.0
H675 H 0.0079 0.03484 0.21193 0.0
H676 H 0.95998 0.05557 0.21458 0.0
H677 H 0.01238 0.94832 0.11734 0.0
H678 H 0.98489 0.90533 0.12573 0.0
H679 H 0.02618 0.91947 0.146 0.0
C680 C 0.0055 0.08519 0.64766 0.0
C681 C 0.97814 0.09809 0.66675 0.0
C682 C 0.0142 0.0456 0.64498 0.0
C683 C 0.99523 0.0183 0.66194 0.0
C684 C 0.96783 0.03114 0.68146 0.0
C685 C 0.95948 0.07093 0.68354 0.0
C686 C 0.04331 0.03293 0.62376 0.0
C687 C 0.94733 0.00285 0.70011 0.0
C688 C 0.98777 0.91392 0.63786 0.0
C689 C 0.01757 0.89601 0.65263 0.0
C690 C 0.98036 0.95375 0.6406 0.0
C691 C 0.0032 0.97617 0.65867 0.0
C692 C 0.03355 0.95836 0.67352 0.0
C693 C 0.04049 0.91845 0.67022 0.0
C694 C 0.94797 0.9718 0.62423 0.0
C695 C 0.05826 0.98134 0.69318 0.0
H696 H 0.01965 0.10608 0.63447 0.0
H697 H 0.93878 0.0809 0.6986 0.0
H698 H 0.06721 0.0165 0.63352 0.0
H699 H 0.02921 0.01312 0.60891 0.0
H700 H 0.05594 0.05792 0.61248 0.0
H701 H 0.92748 0.01766 0.71461 0.0
H702 H 0.93025 0.98178 0.68789 0.0
H703 H 0.96891 0.98592 0.71192 0.0
H704 H 0.97033 0.89673 0.62402 0.0
H705 H 0.06318 0.90456 0.68194 0.0
H706 H 0.95946 0.99592 0.61158 0.0
H707 H 0.92592 0.98436 0.63815 0.0
H708 H 0.93345 0.95043 0.61066 0.0
H709 H 0.07247 0.0059 0.68245 0.0
H710 H 0.08103 0.96323 0.70289 0.0
H711 H 0.03972 0.994 0.70939 0.0
C712 C 0.92633 0.0616 0.86207 0.0
C713 C 0.901 0.04327 0.84385 0.0
C714 C 0.96635 0.0545 0.86096 0.0
C715 C 0.98121 0.02886 0.84095 0.0
C716 C 0.956 0.01237 0.82135 0.0
C717 C 0.9161 0.0196 0.82317 0.0
C718 C 0.99238 0.07259 0.8822 0.0
C719 C 0.97082 0.98551 0.79935 0.0
C720 C 0.09017 0.02445 0.8301 0.0
C721 C 0.10001 0.99138 0.84531 0.0
C722 C 0.05158 0.03709 0.82837 0.0
C723 C 0.02228 0.01615 0.84225 0.0
C724 C 0.03209 0.98277 0.85764 0.0
C725 C 0.07084 0.9707 0.85887 0.0
C726 C 0.04218 0.07242 0.81138 0.0
C727 C 0.00167 0.9599 0.87297 0.0
H728 H 0.9146 0.07973 0.87813 0.0
H729 H 0.89647 0.00596 0.80883 0.0
H730 H 0.00376 0.04956 0.89584 0.0
H731 H 0.01768 0.0868 0.87238 0.0
H732 H 0.9769 0.09445 0.89482 0.0
H733 H 0.94817 0.97862 0.78399 0.0
H734 H -0.00394 -0.00128 0.7888 0.0
H735 H 0.9808 0.9579 0.80865 0.0
H736 H 0.1126 0.04009 0.81919 0.0
H737 H 0.07848 0.94541 0.87085 0.0
H738 H 0.02378 0.093 0.82303 0.0
H739 H 0.02548 0.06338 0.79313 0.0
H740 H 0.06871 0.08795 0.80453 0.0
H741 H 0.98656 0.9791 0.88772 0.0
H742 H 0.01422 0.93492 0.88425 0.0
H743 H 0.97951 0.94871 0.85859 0.0
C744 C 0.01688 0.92137 0.35776 0.0
C745 C 0.98865 0.90905 0.33914 0.0
C746 C 0.02625 0.96078 0.36046 0.0
C747 C 0.00706 0.98841 0.34397 0.0
C748 C 0.97892 0.97613 0.32481 0.0
C749 C 0.96988 0.9365 0.32274 0.0
C750 C 0.05608 0.9729 0.38133 0.0
C751 C 0.9582 0.00486 0.30669 0.0
C752 C -0.00015 0.09186 0.36948 0.0
C753 C 0.0293 0.11024 0.35462 0.0
C754 C 0.99256 0.05211 0.36636 0.0
C755 C 0.01511 0.03036 0.34772 0.0
C756 C 0.04518 0.04864 0.33281 0.0
C757 C 0.05209 0.08847 0.33658 0.0
C758 C 0.96059 0.03346 0.38288 0.0
C759 C 0.06949 0.02632 0.31254 0.0
H760 H 0.03107 0.90021 0.37067 0.0
H761 H 0.94848 0.92688 0.30806 0.0
H762 H 0.07961 0.98975 0.37141 0.0
H763 H 0.04244 0.99216 0.39673 0.0
H764 H 0.06913 0.94763 0.39198 0.0
H765 H 0.93821 0.99037 0.29213 0.0
H766 H 0.94122 0.0255 0.31931 0.0
H767 H 0.97963 0.0222 0.29497 0.0
H768 H 0.98257 0.10869 0.38365 0.0
H769 H 0.07453 0.10287 0.32486 0.0
H770 H 0.97242 0.00899 0.39501 0.0
H771 H 0.9382 0.02126 0.36909 0.0
H772 H 0.9464 0.05436 0.39697 0.0
H773 H 0.08376 0.00135 0.3227 0.0
H774 H 0.09219 0.04475 0.30295 0.0
H775 H 0.05064 0.01429 0.29628 0.0
C776 C 0.42683 0.04192 0.15308 0.0
C777 C 0.41875 0.00262 0.14775 0.0
C778 C 0.46468 0.05649 0.15132 0.0
C779 C 0.49523 0.0311 0.14423 0.0
C780 C 0.48724 0.99164 0.13815 0.0
C781 C 0.44904 0.97786 0.13999 0.0
C782 C 0.47213 0.0987 0.158 0.0
C783 C 0.51921 0.96373 0.13046 0.0
C784 C 0.59375 0.06863 0.12201 0.0
C785 C 0.61555 0.06265 0.1457 0.0
C786 C 0.554 0.05984 0.12142 0.0
C787 C 0.53593 0.04493 0.14513 0.0
C788 C 0.55739 0.04111 0.16952 0.0
C789 C 0.59697 0.05005 0.16948 0.0
C790 C 0.53188 0.0645 0.0951 0.0
C791 C 0.53904 0.02575 0.19532 0.0
H792 H 0.40373 0.06114 0.15952 0.0
H793 H 0.44291 0.94766 0.1355 0.0
H794 H 0.4894 0.10081 0.177 0.0
H795 H 0.48931 0.11263 0.14156 0.0
H796 H 0.44481 0.11533 0.16083 0.0
H797 H 0.50789 0.93456 0.12488 0.0
H798 H 0.53608 0.9754 0.11302 0.0
H799 H 0.53958 0.96041 0.14779 0.0
H800 H 0.60822 0.07806 0.10356 0.0
H801 H 0.61385 0.04596 0.18787 0.0
H802 H 0.50453 0.08069 0.09865 0.0
H803 H 0.52388 0.03543 0.08706 0.0
H804 H 0.54912 0.08 0.07935 0.0
H805 H 0.51256 0.04258 0.20034 0.0
H806 H 0.55914 0.02707 0.21298 0.0
H807 H 0.53009 0.99507 0.19226 0.0
C808 C 0.98702 0.58239 0.61685 0.0
C809 C 0.95268 0.59422 0.62978 0.0
C810 C -0.00046 0.54367 0.6181 0.0
C811 C 0.97695 0.51607 0.63241 0.0
C812 C 0.94072 0.52713 0.64357 0.0
C813 C 0.92904 0.56613 0.64216 0.0
C814 C 0.03823 0.53299 0.60577 0.0
C815 C 0.91556 0.4984 0.65871 0.0
C816 C 0.00034 0.40828 0.62836 0.0
C817 C 0.02064 0.40248 0.65283 0.0
C818 C 0.98639 0.44519 0.62112 0.0
C819 C 0.99322 0.47711 0.63864 0.0
C820 C 0.0148 0.47176 0.66286 0.0
C821 C 0.02809 0.43456 0.66969 0.0
C822 C 0.96354 0.44983 0.5951 0.0
C823 C 0.02298 0.50519 0.682 0.0
H824 H 0.00494 0.60371 0.60659 0.0
H825 H 0.90254 0.57498 0.65225 0.0
H826 H 0.05956 0.52791 0.6223 0.0
H827 H 0.03591 0.50567 0.59388 0.0
H828 H 0.04965 0.55625 0.59227 0.0
H829 H 0.88625 0.51027 0.66308 0.0
H830 H 0.91234 0.47117 0.64682 0.0
H831 H 0.92957 0.49076 0.67833 0.0
H832 H 0.99499 0.38387 0.61495 0.0
H833 H 0.04325 0.43054 0.68876 0.0
H834 H 0.97634 0.47318 0.58237 0.0
H835 H 0.93338 0.45866 0.59999 0.0
H836 H 0.96256 0.42257 0.58298 0.0
H837 H 0.03751 0.5292 0.67086 0.0
H838 H 0.04165 0.4965 0.69939 0.0
H839 H 0.9953 0.51677 0.69019 0.0
C840 C 0.43866 0.02264 0.86929 0.0
C841 C 0.40923 -0.00051 0.8582 0.0
C842 C 0.47693 0.00906 0.87065 0.0
C843 C 0.48586 0.97161 0.86042 0.0
C844 C 0.45601 0.94754 0.85018 0.0
C845 C 0.41801 0.96177 0.84924 0.0
C846 C 0.50805 0.03537 0.88202 0.0
C847 C 0.46449 0.9076 0.83889 0.0
C848 C 0.588 0.96222 0.83348 0.0
C849 C 0.60673 0.94378 0.85517 0.0
C850 C 0.54824 0.96999 0.8345 0.0
C851 C 0.52688 0.95935 0.85797 0.0
C852 C 0.54528 0.93904 0.87944 0.0
C853 C 0.58516 0.93127 0.8777 0.0
C854 C 0.5295 0.99111 0.81097 0.0
C855 C 0.52336 0.92739 0.90478 0.0
H856 H 0.43182 0.05156 0.87657 0.0
H857 H 0.39543 0.94394 0.84033 0.0
H858 H 0.52536 0.01974 0.89758 0.0
H859 H 0.5282 0.04407 0.86547 0.0
H860 H 0.49581 0.06208 0.89138 0.0
H861 H 0.43757 0.89106 0.83434 0.0
H862 H 0.48155 0.91039 0.81981 0.0
H863 H 0.48224 0.8906 0.85346 0.0
H864 H 0.60487 0.97151 0.81601 0.0
H865 H 0.5999 0.91739 0.89457 0.0
H866 H 0.51979 0.0203 0.81774 0.0
H867 H 0.50344 0.97508 0.80392 0.0
H868 H 0.5496 0.99479 0.79347 0.0
H869 H 0.51479 0.95383 0.91624 0.0
H870 H 0.54097 0.90862 0.91839 0.0
H871 H 0.49634 0.9117 0.89933 0.0
C872 C 0.96495 0.427 0.34141 0.0
C873 C 0.94773 0.40987 0.36427 0.0
C874 C 0.97541 0.46624 0.34146 0.0
C875 C 0.96845 0.48886 0.36503 0.0
C876 C 0.9493 0.47224 0.38774 0.0
C877 C 0.93902 0.43276 0.38706 0.0
C878 C 0.99529 0.48306 0.31667 0.0
C879 C 0.94126 0.49566 0.41313 0.0
C880 C 0.03561 0.57555 0.37123 0.0
C881 C 0.0127 0.60519 0.36016 0.0
C882 C 0.02089 0.53776 0.3742 0.0
C883 C 0.98241 0.52957 0.36588 0.0
C884 C 0.95865 0.55966 0.35575 0.0
C885 C 0.97413 0.59704 0.35291 0.0
C886 C 0.04701 0.50626 0.38519 0.0
C887 C 0.91753 0.55201 0.34657 0.0
H888 H 0.97125 0.40919 0.32373 0.0
H889 H 0.92606 0.41931 0.40482 0.0
H890 H 0.97962 0.50927 0.30952 0.0
H891 H 0.02519 0.4922 0.32205 0.0
H892 H -0.00306 0.46191 0.2996 0.0
H893 H 0.92341 0.47931 0.4281 0.0
H894 H 0.96909 0.5038 0.42294 0.0
H895 H 0.92605 0.52304 0.40787 0.0
H896 H 0.06521 0.58178 0.37719 0.0
H897 H 0.95631 0.61947 0.34389 0.0
H898 H 0.05333 0.48488 0.36885 0.0
H899 H 0.03231 0.49036 0.40193 0.0
H900 H 0.07494 0.51801 0.39291 0.0
H901 H 0.91789 0.53388 0.32788 0.0
H902 H 0.90157 0.5793 0.34208 0.0
H903 H 0.90136 0.5356 0.36238 0.0
loop_
_geom_bond_atom_site_label_1
_geom_bond_atom_site_label_2
_geom_bond_distance
_geom_bond_site_symmetry_2
_ccdc_geom_bond_type
C0 C1 1.351 . S
C0 N3 1.368 1_545 S
C0 H5 0.931 . S
C1 C0 1.351 . S
C1 N2 1.373 1_545 S
C1 H29 0.930 . S
N2 C1 1.373 1_565 S
N2 C4 1.340 . S
N3 C0 1.368 1_565 S
N3 C4 1.321 . S
N3 Co6 2.135 . S
C4 N2 1.340 . S
C4 N3 1.321 . S
C4 H28 0.930 . S
H5 C0 0.931 . S
Co6 N3 2.135 . S
Co6 N9 2.121 . S
Co6 O14 2.055 . S
Co6 O17 2.039 . S
Co6 N20 2.140 1_565 S
C7 O8 1.227 . S
C7 O17 1.265 . S
O8 C7 1.227 . S
N9 Co6 2.121 . S
N9 C11 1.375 . S
N9 C12 1.313 . S
C10 C11 1.338 . S
C10 N13 1.377 . S
C10 H30 0.930 . S
C11 N9 1.375 . S
C11 C10 1.338 . S
C11 H15 0.931 . S
C12 N9 1.313 . S
C12 N13 1.344 . S
C12 H16 0.931 . S
N13 C10 1.377 . S
N13 C12 1.344 . S
O14 Co6 2.055 . S
O14 C18 1.253 1_565 S
H15 C11 0.931 . S
H16 C12 0.931 . S
O17 Co6 2.039 . S
O17 C7 1.265 . S
C18 O14 1.253 1_545 S
C18 O19 1.227 . S
O19 C18 1.227 . S
N20 Co6 2.140 1_545 S
N20 C23 1.346 . S
N20 C24 1.345 . S
C21 C22 1.387 . S
C21 C25 1.391 . S
C22 C21 1.387 . S
C22 C23 1.369 . S
C22 H31 0.929 . S
C23 N20 1.346 . S
C23 C22 1.369 . S
C23 H26 0.928 . S
C24 N20 1.345 . S
C24 C25 1.371 . S
C24 H27 0.931 . S
C25 C21 1.391 . S
C25 C24 1.371 . S
C25 H32 0.930 . S
H26 C23 0.928 . S
H27 C24 0.931 . S
H28 C4 0.930 . S
H29 C1 0.930 . S
H30 C10 0.930 . S
H31 C22 0.929 . S
H32 C25 0.930 . S
C33 C34 1.351 . S
C33 N36 1.368 1_655 S
C33 H38 0.931 . S
C34 C33 1.351 . S
C34 N35 1.373 1_655 S
C34 H62 0.930 . S
N35 C34 1.373 1_455 S
N35 C37 1.340 . S
N36 C33 1.368 1_455 S
N36 C37 1.321 . S
N36 Co39 2.135 . S
C37 N35 1.340 . S
C37 N36 1.321 . S
C37 H61 0.930 . S
H38 C33 0.931 . S
Co39 N36 2.135 . S
Co39 N42 2.121 . S
Co39 O47 2.055 . S
Co39 O50 2.039 . S
Co39 N53 2.140 1_455 S
C40 O41 1.227 . S
C40 O50 1.265 . S
O41 C40 1.227 . S
N42 Co39 2.121 . S
N42 C44 1.375 . S
N42 C45 1.313 . S
C43 C44 1.338 . S
C43 N46 1.377 . S
C43 H63 0.930 . S
C44 N42 1.375 . S
C44 C43 1.338 . S
C44 H48 0.931 . S
C45 N42 1.313 . S
C45 N46 1.344 . S
C45 H49 0.930 . S
N46 C43 1.377 . S
N46 C45 1.344 . S
O47 Co39 2.055 . S
O47 C51 1.253 . S
H48 C44 0.931 . S
H49 C45 0.930 . S
O50 Co39 2.039 . S
O50 C40 1.265 . S
C51 O47 1.253 . S
C51 O52 1.227 1_455 S
O52 C51 1.227 1_655 S
N53 Co39 2.140 1_655 S
N53 C56 1.346 . S
N53 C57 1.345 . S
C54 C55 1.387 . S
C54 C58 1.391 . S
C55 C54 1.387 . S
C55 C56 1.369 . S
C55 H64 0.929 . S
C56 N53 1.346 . S
C56 C55 1.369 . S
C56 H59 0.928 . S
C57 N53 1.345 . S
C57 C58 1.371 . S
C57 H60 0.931 . S
C58 C54 1.391 . S
C58 C57 1.371 . S
C58 H65 0.930 . S
H59 C56 0.928 . S
H60 C57 0.931 . S
H61 C37 0.930 . S
H62 C34 0.930 . S
H63 C43 0.930 . S
H64 C55 0.929 . S
H65 C58 0.930 . S
C66 C67 1.351 . S
C66 N69 1.368 1_565 S
C66 H71 0.931 . S
C67 C66 1.351 . S
C67 N68 1.373 1_565 S
C67 H95 0.930 . S
N68 C67 1.373 1_545 S
N68 C70 1.340 . S
N69 C66 1.368 1_545 S
N69 C70 1.321 . S
N69 Co72 2.135 . S
C70 N68 1.340 . S
C70 N69 1.321 . S
C70 H94 0.930 . S
H71 C66 0.931 . S
Co72 N69 2.135 . S
Co72 N75 2.121 . S
Co72 O80 2.055 . S
Co72 O83 2.039 . S
Co72 N86 2.140 1_545 S
C73 O74 1.227 . S
C73 O83 1.265 . S
O74 C73 1.227 . S
N75 Co72 2.121 . S
N75 C77 1.375 . S
N75 C78 1.313 . S
C76 C77 1.338 . S
C76 N79 1.377 . S
C76 H96 0.930 . S
C77 N75 1.375 . S
C77 C76 1.338 . S
C77 H81 0.931 . S
C78 N75 1.313 . S
C78 N79 1.344 . S
C78 H82 0.930 . S
N79 C76 1.377 . S
N79 C78 1.344 . S
O80 Co72 2.055 . S
O80 C84 1.253 . S
H81 C77 0.931 . S
H82 C78 0.930 . S
O83 Co72 2.039 . S
O83 C73 1.265 . S
C84 O80 1.253 . S
C84 O85 1.227 1_545 S
O85 C84 1.227 1_565 S
N86 Co72 2.140 1_565 S
N86 C89 1.346 . S
N86 C90 1.345 . S
C87 C88 1.387 . S
C87 C91 1.391 . S
C88 C87 1.387 . S
C88 C89 1.369 . S
C88 H97 0.929 . S
C89 N86 1.346 . S
C89 C88 1.369 . S
C89 H92 0.928 . S
C90 N86 1.345 . S
C90 C91 1.371 . S
C90 H93 0.931 . S
C91 C87 1.391 . S
C91 C90 1.371 . S
C91 H98 0.930 . S
H92 C89 0.928 . S
H93 C90 0.931 . S
H94 C70 0.930 . S
H95 C67 0.930 . S
H96 C76 0.930 . S
H97 C88 0.929 . S
H98 C91 0.930 . S
C99 C100 1.351 . S
C99 N102 1.368 1_455 S
C99 H104 0.931 . S
C100 C99 1.351 . S
C100 N101 1.373 1_455 S
C100 H128 0.930 . S
N101 C100 1.373 1_655 S
N101 C103 1.340 . S
N102 C99 1.368 1_655 S
N102 C103 1.321 . S
N102 Co105 2.135 . S
C103 N101 1.340 . S
C103 N102 1.321 . S
C103 H127 0.930 . S
H104 C99 0.931 . S
Co105 N102 2.135 . S
Co105 N108 2.121 . S
Co105 O113 2.055 . S
Co105 O116 2.039 . S
Co105 N119 2.140 1_655 S
C106 O107 1.227 . S
C106 O116 1.265 . S
O107 C106 1.227 . S
N108 Co105 2.121 . S
N108 C110 1.375 . S
N108 C111 1.313 . S
C109 C110 1.338 . S
C109 N112 1.377 . S
C109 H129 0.930 . S
C110 N108 1.375 . S
C110 C109 1.338 . S
C110 H114 0.931 . S
C111 N108 1.313 . S
C111 N112 1.344 . S
C111 H115 0.931 . S
N112 C109 1.377 . S
N112 C111 1.344 . S
O113 Co105 2.055 . S
O113 C117 1.253 1_655 S
H114 C110 0.931 . S
H115 C111 0.931 . S
O116 Co105 2.039 . S
O116 C106 1.265 . S
C117 O113 1.253 1_455 S
C117 O118 1.227 . S
O118 C117 1.227 . S
N119 Co105 2.140 1_455 S
N119 C122 1.346 . S
N119 C123 1.345 . S
C120 C121 1.387 . S
C120 C124 1.391 . S
C121 C120 1.387 . S
C121 C122 1.369 . S
C121 H130 0.929 . S
C122 N119 1.346 . S
C122 C121 1.369 . S
C122 H125 0.928 . S
C123 N119 1.345 . S
C123 C124 1.371 . S
C123 H126 0.931 . S
C124 C120 1.391 . S
C124 C123 1.371 . S
C124 H131 0.930 . S
H125 C122 0.928 . S
H126 C123 0.931 . S
H127 C103 0.930 . S
H128 C100 0.930 . S
H129 C109 0.930 . S
H130 C121 0.929 . S
H131 C124 0.930 . S
C132 C133 1.351 . S
C132 N135 1.368 1_565 S
C132 H137 0.931 . S
C133 C132 1.351 . S
C133 N134 1.373 1_565 S
C133 H161 0.930 . S
N134 C133 1.373 1_545 S
N134 C136 1.340 . S
N135 C132 1.368 1_545 S
N135 C136 1.321 . S
N135 Co138 2.135 . S
C136 N134 1.340 . S
C136 N135 1.321 . S
C136 H160 0.930 . S
H137 C132 0.931 . S
Co138 N135 2.135 . S
Co138 N141 2.121 . S
Co138 O146 2.055 . S
Co138 O149 2.039 . S
Co138 N152 2.140 1_545 S
C139 O140 1.227 . S
C139 O149 1.265 . S
O140 C139 1.227 . S
N141 Co138 2.121 . S
N141 C143 1.375 . S
N141 C144 1.313 . S
C142 C143 1.338 . S
C142 N145 1.377 . S
C142 H162 0.930 . S
C143 N141 1.375 . S
C143 C142 1.338 . S
C143 H147 0.931 . S
C144 N141 1.313 . S
C144 N145 1.344 . S
C144 H148 0.930 . S
N145 C142 1.377 . S
N145 C144 1.344 . S
O146 Co138 2.055 . S
O146 C150 1.253 . S
H147 C143 0.931 . S
H148 C144 0.930 . S
O149 Co138 2.039 . S
O149 C139 1.265 . S
C150 O146 1.253 . S
C150 O151 1.227 1_545 S
O151 C150 1.227 1_565 S
N152 Co138 2.140 1_565 S
N152 C155 1.346 . S
N152 C156 1.345 . S
C153 C154 1.387 . S
C153 C157 1.391 . S
C154 C153 1.387 . S
C154 C155 1.369 . S
C154 H163 0.929 . S
C155 N152 1.346 . S
C155 C154 1.369 . S
C155 H158 0.928 . S
C156 N152 1.345 . S
C156 C157 1.371 . S
C156 H159 0.931 . S
C157 C153 1.391 . S
C157 C156 1.371 . S
C157 H164 0.930 . S
H158 C155 0.928 . S
H159 C156 0.931 . S
H160 C136 0.930 . S
H161 C133 0.930 . S
H162 C142 0.930 . S
H163 C154 0.929 . S
H164 C157 0.930 . S
C165 C166 1.351 . S
C165 N168 1.368 1_455 S
C165 H170 0.931 . S
C166 C165 1.351 . S
C166 N167 1.373 1_455 S
C166 H194 0.930 . S
N167 C166 1.373 1_655 S
N167 C169 1.340 . S
N168 C165 1.368 1_655 S
N168 C169 1.321 . S
N168 Co171 2.135 . S
C169 N167 1.340 . S
C169 N168 1.321 . S
C169 H193 0.930 . S
H170 C165 0.931 . S
Co171 N168 2.135 . S
Co171 N174 2.121 . S
Co171 O179 2.055 . S
Co171 O182 2.039 . S
Co171 N185 2.140 1_655 S
C172 O173 1.227 . S
C172 O182 1.265 . S
O173 C172 1.227 . S
N174 Co171 2.121 . S
N174 C176 1.375 . S
N174 C177 1.313 . S
C175 C176 1.338 . S
C175 N178 1.377 . S
C175 H195 0.930 . S
C176 N174 1.375 . S
C176 C175 1.338 . S
C176 H180 0.931 . S
C177 N174 1.313 . S
C177 N178 1.344 . S
C177 H181 0.931 . S
N178 C175 1.377 . S
N178 C177 1.344 . S
O179 Co171 2.055 . S
O179 C183 1.253 1_655 S
H180 C176 0.931 . S
H181 C177 0.931 . S
O182 Co171 2.039 . S
O182 C172 1.265 . S
C183 O179 1.253 1_455 S
C183 O184 1.227 . S
O184 C183 1.227 . S
N185 Co171 2.140 1_455 S
N185 C188 1.346 . S
N185 C189 1.345 . S
C186 C187 1.387 . S
C186 C190 1.391 . S
C187 C186 1.387 . S
C187 C188 1.369 . S
C187 H196 0.929 . S
C188 N185 1.346 . S
C188 C187 1.369 . S
C188 H191 0.928 . S
C189 N185 1.345 . S
C189 C190 1.371 . S
C189 H192 0.931 . S
C190 C186 1.391 . S
C190 C189 1.371 . S
C190 H197 0.930 . S
H191 C188 0.928 . S
H192 C189 0.931 . S
H193 C169 0.930 . S
H194 C166 0.930 . S
H195 C175 0.930 . S
H196 C187 0.929 . S
H197 C190 0.930 . S
C198 C199 1.351 . S
C198 N201 1.368 1_545 S
C198 H203 0.931 . S
C199 C198 1.351 . S
C199 N200 1.373 1_545 S
C199 H227 0.930 . S
N200 C199 1.373 1_565 S
N200 C202 1.340 . S
N201 C198 1.368 1_565 S
N201 C202 1.321 . S
N201 Co204 2.135 . S
C202 N200 1.340 . S
C202 N201 1.321 . S
C202 H226 0.930 . S
H203 C198 0.931 . S
Co204 N201 2.135 . S
Co204 N207 2.121 . S
Co204 O212 2.055 . S
Co204 O215 2.039 . S
Co204 N218 2.140 1_565 S
C205 O206 1.227 . S
C205 O215 1.265 . S
O206 C205 1.227 . S
N207 Co204 2.121 . S
N207 C209 1.375 . S
N207 C210 1.313 . S
C208 C209 1.338 . S
C208 N211 1.377 . S
C208 H228 0.930 . S
C209 N207 1.375 . S
C209 C208 1.338 . S
C209 H213 0.931 . S
C210 N207 1.313 . S
C210 N211 1.344 . S
C210 H214 0.931 . S
N211 C208 1.377 . S
N211 C210 1.344 . S
O212 Co204 2.055 . S
O212 C216 1.253 1_565 S
H213 C209 0.931 . S
H214 C210 0.931 . S
O215 Co204 2.039 . S
O215 C205 1.265 . S
C216 O212 1.253 1_545 S
C216 O217 1.227 . S
O217 C216 1.227 . S
N218 Co204 2.140 1_545 S
N218 C221 1.346 . S
N218 C222 1.345 . S
C219 C220 1.387 . S
C219 C223 1.391 . S
C220 C219 1.387 . S
C220 C221 1.369 . S
C220 H229 0.929 . S
C221 N218 1.346 . S
C221 C220 1.369 . S
C221 H224 0.928 . S
C222 N218 1.345 . S
C222 C223 1.371 . S
C222 H225 0.931 . S
C223 C219 1.391 . S
C223 C222 1.371 . S
C223 H230 0.930 . S
H224 C221 0.928 . S
H225 C222 0.931 . S
H226 C202 0.930 . S
H227 C199 0.930 . S
H228 C208 0.930 . S
H229 C220 0.929 . S
H230 C223 0.930 . S
C231 C232 1.351 . S
C231 N234 1.368 1_655 S
C231 H236 0.931 . S
C232 C231 1.351 . S
C232 N233 1.373 1_655 S
C232 H260 0.930 . S
N233 C232 1.373 1_455 S
N233 C235 1.340 . S
N234 C231 1.368 1_455 S
N234 C235 1.321 . S
N234 Co237 2.135 . S
C235 N233 1.340 . S
C235 N234 1.321 . S
C235 H259 0.930 . S
H236 C231 0.931 . S
Co237 N234 2.135 . S
Co237 N240 2.121 . S
Co237 O245 2.055 . S
Co237 O248 2.039 . S
Co237 N251 2.140 1_455 S
C238 O239 1.227 . S
C238 O248 1.265 . S
O239 C238 1.227 . S
N240 Co237 2.121 . S
N240 C242 1.375 . S
N240 C243 1.313 . S
C241 C242 1.338 . S
C241 N244 1.377 . S
C241 H261 0.930 . S
C242 N240 1.375 . S
C242 C241 1.338 . S
C242 H246 0.931 . S
C243 N240 1.313 . S
C243 N244 1.344 . S
C243 H247 0.930 . S
N244 C241 1.377 . S
N244 C243 1.344 . S
O245 Co237 2.055 . S
O245 C249 1.253 . S
H246 C242 0.931 . S
H247 C243 0.930 . S
O248 Co237 2.039 . S
O248 C238 1.265 . S
C249 O245 1.253 . S
C249 O250 1.227 1_455 S
O250 C249 1.227 1_655 S
N251 Co237 2.140 1_655 S
N251 C254 1.346 . S
N251 C255 1.345 . S
C252 C253 1.387 . S
C252 C256 1.391 . S
C253 C252 1.387 . S
C253 C254 1.369 . S
C253 H262 0.929 . S
C254 N251 1.346 . S
C254 C253 1.369 . S
C254 H257 0.928 . S
C255 N251 1.345 . S
C255 C256 1.371 . S
C255 H258 0.931 . S
C256 C252 1.391 . S
C256 C255 1.371 . S
C256 H263 0.930 . S
H257 C254 0.928 . S
H258 C255 0.931 . S
H259 C235 0.930 . S
H260 C232 0.930 . S
H261 C241 0.930 . S
H262 C253 0.929 . S
H263 C256 0.930 . S
C264 C265 1.391 1_565 S
C264 C266 1.394 . S
C264 H280 0.931 . S
C265 C264 1.391 1_545 S
C265 C269 1.376 . S
C266 C264 1.394 . S
C266 C267 1.369 . S
C266 C270 1.531 . S
C267 C266 1.369 . S
C267 C268 1.410 1_565 S
C267 C275 1.503 1_564 S
C268 C267 1.410 1_545 S
C268 C269 1.392 . S
C268 C271 1.511 . S
C269 C265 1.376 . S
C269 C268 1.392 . S
C269 H281 0.929 . S
C270 C266 1.531 . S
C270 H282 0.960 1_554 S
C270 H283 0.962 . S
C270 H284 0.960 . S
C271 C268 1.511 . S
C271 H285 0.961 . S
C271 H286 0.961 1_554 S
C271 H287 0.961 . S
C272 C273 1.370 . S
C272 C274 1.363 . S
C272 H288 0.931 . S
C273 C272 1.370 . S
C273 C277 1.408 1_545 S
C274 C272 1.363 . S
C274 C275 1.378 . S
C274 C278 1.524 . S
C275 C267 1.503 1_546 S
C275 C274 1.378 . S
C275 C276 1.395 1_545 S
C276 C275 1.395 1_565 S
C276 C277 1.404 . S
C276 C279 1.539 . S
C277 C273 1.408 1_565 S
C277 C276 1.404 . S
C277 H289 0.930 . S
C278 C274 1.524 . S
C278 H290 0.956 . S
C278 H291 0.945 1_556 S
C278 H292 0.961 . S
C279 C276 1.539 . S
C279 H293 0.958 . S
C279 H294 0.961 . S
C279 H295 0.940 1_556 S
H280 C264 0.931 . S
H281 C269 0.929 . S
H282 C270 0.960 1_556 S
H283 C270 0.962 . S
H284 C270 0.960 . S
H285 C271 0.961 . S
H286 C271 0.961 1_556 S
H287 C271 0.961 . S
H288 C272 0.931 . S
H289 C277 0.930 . S
H290 C278 0.956 . S
H291 C278 0.945 1_554 S
H292 C278 0.961 . S
H293 C279 0.958 . S
H294 C279 0.961 . S
H295 C279 0.940 1_554 S
C296 C297 1.391 . S
C296 C298 1.394 . S
C296 H312 0.931 . S
C297 C296 1.391 . S
C297 C301 1.376 1_455 S
C298 C296 1.394 . S
C298 C299 1.369 . S
C298 C302 1.531 . S
C299 C298 1.369 . S
C299 C300 1.410 1_455 S
C299 C307 1.503 . S
C300 C299 1.410 1_655 S
C300 C301 1.392 . S
C300 C303 1.511 . S
C301 C297 1.376 1_655 S
C301 C300 1.392 . S
C301 H313 0.929 . S
C302 C298 1.531 . S
C302 H314 0.960 . S
C302 H315 0.962 . S
C302 H316 0.960 . S
C303 C300 1.511 . S
C303 H317 0.961 . S
C303 H318 0.961 . S
C303 H319 0.961 . S
C304 C305 1.370 . S
C304 C306 1.363 . S
C304 H320 0.931 . S
C305 C304 1.370 . S
C305 C309 1.408 1_455 S
C306 C304 1.363 . S
C306 C307 1.370 . S
C306 C310 1.524 . S
C307 C299 1.503 . S
C307 C306 1.370 . S
C307 C308 1.403 1_455 S
C308 C307 1.403 1_655 S
C308 C309 1.404 . S
C308 C311 1.539 . S
C309 C305 1.408 1_655 S
C309 C308 1.404 . S
C309 H321 0.930 . S
C310 C306 1.524 . S
C310 H322 0.956 . S
C310 H323 0.961 . S
C310 H324 0.961 . S
C311 C308 1.539 . S
C311 H325 0.958 . S
C311 H326 0.961 . S
C311 H327 0.960 . S
H312 C296 0.931 . S
H313 C301 0.929 . S
H314 C302 0.960 . S
H315 C302 0.962 . S
H316 C302 0.960 . S
H317 C303 0.961 . S
H318 C303 0.961 . S
H319 C303 0.961 . S
H320 C304 0.931 . S
H321 C309 0.930 . S
H322 C310 0.956 . S
H323 C310 0.961 . S
H324 C310 0.961 . S
H325 C311 0.958 . S
H326 C311 0.961 . S
H327 C311 0.960 . S
C328 C329 1.391 1_565 S
C328 C330 1.394 . S
C328 H344 0.931 . S
C329 C328 1.391 1_545 S
C329 C333 1.376 . S
C330 C328 1.394 . S
C330 C331 1.369 1_565 S
C330 C334 1.531 . S
C331 C330 1.369 1_545 S
C331 C332 1.410 . S
C331 C339 1.503 1_554 S
C332 C331 1.410 . S
C332 C333 1.392 . S
C332 C335 1.511 . S
C333 C329 1.376 . S
C333 C332 1.392 . S
C333 H345 0.929 . S
C334 C330 1.531 . S
C334 H346 0.960 1_554 S
C334 H347 0.962 . S
C334 H348 0.960 . S
C335 C332 1.511 . S
C335 H349 0.961 . S
C335 H350 0.961 1_554 S
C335 H351 0.961 . S
C336 C337 1.370 . S
C336 C338 1.363 . S
C336 H352 0.931 . S
C337 C336 1.370 . S
C337 C341 1.408 1_545 S
C338 C336 1.363 . S
C338 C339 1.370 . S
C338 C342 1.524 . S
C339 C331 1.503 1_556 S
C339 C338 1.370 . S
C339 C340 1.403 1_545 S
C340 C339 1.403 1_565 S
C340 C341 1.404 . S
C340 C343 1.539 . S
C341 C337 1.408 1_565 S
C341 C340 1.404 . S
C341 H353 0.930 . S
C342 C338 1.524 . S
C342 H354 0.956 . S
C342 H355 0.961 1_556 S
C342 H356 0.961 . S
C343 C340 1.539 . S
C343 H357 0.958 . S
C343 H358 0.961 . S
C343 H359 0.989 . S
H344 C328 0.931 . S
H345 C333 0.929 . S
H346 C334 0.960 1_556 S
H347 C334 0.962 . S
H348 C334 0.960 . S
H349 C335 0.961 . S
H350 C335 0.961 1_556 S
H351 C335 0.961 . S
H352 C336 0.931 . S
H353 C341 0.930 . S
H354 C342 0.956 . S
H355 C342 0.961 1_554 S
H356 C342 0.961 . S
H357 C343 0.958 . S
H358 C343 0.961 . S
H359 C343 0.989 . S
C360 C361 1.391 . S
C360 C362 1.394 . S
C360 H376 0.931 . S
C361 C360 1.391 . S
C361 C365 1.376 1_455 S
C362 C360 1.394 . S
C362 C363 1.369 . S
C362 C366 1.531 . S
C363 C362 1.369 . S
C363 C364 1.410 1_455 S
C363 C371 1.503 . S
C364 C363 1.410 1_655 S
C364 C365 1.392 . S
C364 C367 1.511 . S
C365 C361 1.376 1_655 S
C365 C364 1.392 . S
C365 H377 0.929 . S
C366 C362 1.531 . S
C366 H378 0.960 . S
C366 H379 0.962 . S
C366 H380 0.960 . S
C367 C364 1.511 . S
C367 H381 0.961 . S
C367 H382 0.961 . S
C367 H383 0.961 . S
C368 C369 1.370 . S
C368 C370 1.363 . S
C368 H384 0.931 . S
C369 C368 1.370 . S
C369 C373 1.408 1_455 S
C370 C368 1.363 . S
C370 C371 1.370 . S
C370 C374 1.524 . S
C371 C363 1.503 . S
C371 C370 1.370 . S
C371 C372 1.403 1_455 S
C372 C371 1.403 1_655 S
C372 C373 1.404 . S
C372 C375 1.539 . S
C373 C369 1.408 1_655 S
C373 C372 1.404 . S
C373 H385 0.930 . S
C374 C370 1.524 . S
C374 H386 0.956 . S
C374 H387 0.961 . S
C374 H388 0.961 . S
C375 C372 1.539 . S
C375 H389 0.958 . S
C375 H390 0.961 . S
C375 H391 0.960 . S
H376 C360 0.931 . S
H377 C365 0.929 . S
H378 C366 0.960 . S
H379 C366 0.962 . S
H380 C366 0.960 . S
H381 C367 0.961 . S
H382 C367 0.961 . S
H383 C367 0.961 . S
H384 C368 0.931 . S
H385 C373 0.930 . S
H386 C374 0.956 . S
H387 C374 0.961 . S
H388 C374 0.961 . S
H389 C375 0.958 . S
H390 C375 0.961 . S
H391 C375 0.960 . S
C392 C393 1.391 . S
C392 C394 1.394 . S
C392 H408 0.931 . S
C393 C392 1.391 . S
C393 C397 1.376 . S
C394 C392 1.394 . S
C394 C395 1.369 . S
C394 C398 1.531 . S
C395 C394 1.369 . S
C395 C396 1.410 . S
C395 C403 1.503 . S
C396 C395 1.410 . S
C396 C397 1.392 . S
C396 C399 1.511 . S
C397 C393 1.376 . S
C397 C396 1.392 . S
C397 H409 0.929 . S
C398 C394 1.531 . S
C398 H410 0.960 . S
C398 H411 0.962 . S
C398 H412 0.960 . S
C399 C396 1.511 . S
C399 H413 0.961 . S
C399 H414 0.961 . S
C399 H415 0.961 . S
C400 C401 1.370 . S
C400 C402 1.363 . S
C400 H416 0.931 . S
C401 C400 1.370 . S
C401 C405 1.408 . S
C402 C400 1.363 . S
C402 C403 1.370 . S
C402 C406 1.524 . S
C403 C395 1.503 . S
C403 C402 1.370 . S
C403 C404 1.403 . S
C404 C403 1.403 . S
C404 C405 1.404 . S
C404 C407 1.539 . S
C405 C401 1.408 . S
C405 C404 1.404 . S
C405 H417 0.930 . S
C406 C402 1.524 . S
C406 H418 0.956 . S
C406 H419 0.961 . S
C406 H420 0.961 . S
C407 C404 1.539 . S
C407 H421 0.958 . S
C407 H422 0.961 . S
C407 H423 0.960 . S
H408 C392 0.931 . S
H409 C397 0.929 . S
H410 C398 0.960 . S
H411 C398 0.962 . S
H412 C398 0.960 . S
H413 C399 0.961 . S
H414 C399 0.961 . S
H415 C399 0.961 . S
H416 C400 0.931 . S
H417 C405 0.930 . S
H418 C406 0.956 . S
H419 C406 0.961 . S
H420 C406 0.961 . S
H421 C407 0.958 . S
H422 C407 0.961 . S
H423 C407 0.960 . S
C424 C425 1.391 . S
C424 C426 1.394 . S
C424 H440 0.931 . S
C425 C424 1.391 . S
C425 C429 1.376 . S
C426 C424 1.394 . S
C426 C427 1.369 . S
C426 C430 1.531 . S
C427 C426 1.369 . S
C427 C428 1.410 . S
C427 C435 1.503 . S
C428 C427 1.410 . S
C428 C429 1.392 . S
C428 C431 1.511 . S
C429 C425 1.376 . S
C429 C428 1.392 . S
C429 H441 0.929 . S
C430 C426 1.531 . S
C430 H442 0.960 . S
C430 H443 0.962 . S
C430 H444 0.960 . S
C431 C428 1.511 . S
C431 H445 0.961 . S
C431 H446 0.961 . S
C431 H447 0.961 . S
C432 C433 1.370 . S
C432 C434 1.363 . S
C432 H448 0.931 . S
C433 C432 1.370 . S
C433 C437 1.408 . S
C434 C432 1.363 . S
C434 C435 1.370 . S
C434 C438 1.524 . S
C435 C427 1.503 . S
C435 C434 1.370 . S
C435 C436 1.403 . S
C436 C435 1.403 . S
C436 C437 1.404 . S
C436 C439 1.539 . S
C437 C433 1.408 . S
C437 C436 1.404 . S
C437 H449 0.930 . S
C438 C434 1.524 . S
C438 H450 0.956 . S
C438 H451 0.961 . S
C438 H452 0.961 . S
C439 C436 1.539 . S
C439 H453 0.958 . S
C439 H454 0.961 . S
C439 H455 0.960 . S
H440 C424 0.931 . S
H441 C429 0.929 . S
H442 C430 0.960 . S
H443 C430 0.962 . S
H444 C430 0.960 . S
H445 C431 0.961 . S
H446 C431 0.961 . S
H447 C431 0.961 . S
H448 C432 0.931 . S
H449 C437 0.930 . S
H450 C438 0.956 . S
H451 C438 0.961 . S
H452 C438 0.961 . S
H453 C439 0.958 . S
H454 C439 0.961 . S
H455 C439 0.960 . S
C456 C457 1.391 . S
C456 C458 1.394 . S
C456 H472 0.931 . S
C457 C456 1.391 . S
C457 C461 1.376 . S
C458 C456 1.394 . S
C458 C459 1.369 . S
C458 C462 1.531 . S
C459 C458 1.369 . S
C459 C460 1.410 . S
C459 C467 1.503 . S
C460 C459 1.410 . S
C460 C461 1.392 . S
C460 C463 1.511 . S
C461 C457 1.376 . S
C461 C460 1.392 . S
C461 H473 0.929 . S
C462 C458 1.531 . S
C462 H474 0.960 . S
C462 H475 0.962 . S
C462 H476 0.960 . S
C463 C460 1.511 . S
C463 H477 0.961 . S
C463 H478 0.961 . S
C463 H479 0.961 . S
C464 C465 1.370 . S
C464 C466 1.363 . S
C464 H480 0.931 . S
C465 C464 1.370 . S
C465 C469 1.408 . S
C466 C464 1.363 . S
C466 C467 1.370 . S
C466 C470 1.524 . S
C467 C459 1.503 . S
C467 C466 1.370 . S
C467 C468 1.403 . S
C468 C467 1.403 . S
C468 C469 1.404 . S
C468 C471 1.539 . S
C469 C465 1.408 . S
C469 C468 1.404 . S
C469 H481 0.930 . S
C470 C466 1.524 . S
C470 H482 0.956 . S
C470 H483 0.961 . S
C470 H484 0.961 . S
C471 C468 1.539 . S
C471 H485 0.958 . S
C471 H486 0.961 . S
C471 H487 0.960 . S
H472 C456 0.931 . S
H473 C461 0.929 . S
H474 C462 0.960 . S
H475 C462 0.962 . S
H476 C462 0.960 . S
H477 C463 0.961 . S
H478 C463 0.961 . S
H479 C463 0.961 . S
H480 C464 0.931 . S
H481 C469 0.930 . S
H482 C470 0.956 . S
H483 C470 0.961 . S
H484 C470 0.961 . S
H485 C471 0.958 . S
H486 C471 0.961 . S
H487 C471 0.960 . S
C488 C489 1.391 . S
C488 C490 1.394 . S
C488 H504 0.931 . S
C489 C488 1.391 . S
C489 C493 1.376 . S
C490 C488 1.394 . S
C490 C491 1.369 . S
C490 C494 1.531 . S
C491 C490 1.369 . S
C491 C492 1.410 . S
C491 C499 1.503 . S
C492 C491 1.410 . S
C492 C493 1.392 . S
C492 C495 1.511 . S
C493 C489 1.376 . S
C493 C492 1.392 . S
C493 H505 0.929 . S
C494 C490 1.531 . S
C494 H506 0.960 . S
C494 H507 0.962 . S
C494 H508 0.960 . S
C495 C492 1.511 . S
C495 H509 0.961 . S
C495 H510 0.961 . S
C495 H511 0.961 . S
C496 C497 1.370 . S
C496 C498 1.363 . S
C496 H512 0.931 . S
C497 C496 1.370 . S
C497 C501 1.408 . S
C498 C496 1.363 . S
C498 C499 1.370 . S
C498 C502 1.524 . S
C499 C491 1.503 . S
C499 C498 1.370 . S
C499 C500 1.403 . S
C500 C499 1.403 . S
C500 C501 1.404 . S
C500 C503 1.539 . S
C501 C497 1.408 . S
C501 C500 1.404 . S
C501 H513 0.930 . S
C502 C498 1.524 . S
C502 H514 0.956 . S
C502 H515 0.961 . S
C502 H516 0.961 . S
C503 C500 1.539 . S
C503 H517 0.958 . S
C503 H518 0.961 . S
C503 H519 0.960 . S
H504 C488 0.931 . S
H505 C493 0.929 . S
H506 C494 0.960 . S
H507 C494 0.962 . S
H508 C494 0.960 . S
H509 C495 0.961 . S
H510 C495 0.961 . S
H511 C495 0.961 . S
H512 C496 0.931 . S
H513 C501 0.930 . S
H514 C502 0.956 . S
H515 C502 0.961 . S
H516 C502 0.961 . S
H517 C503 0.958 . S
H518 C503 0.961 . S
H519 C503 0.960 . S
C520 C521 1.391 . S
C520 C522 1.394 . S
C520 H536 0.931 . S
C521 C520 1.391 . S
C521 C525 1.376 . S
C522 C520 1.394 . S
C522 C523 1.369 . S
C522 C526 1.531 . S
C523 C522 1.369 . S
C523 C524 1.410 . S
C523 C531 1.503 . S
C524 C523 1.410 . S
C524 C525 1.392 . S
C524 C527 1.511 . S
C525 C521 1.376 . S
C525 C524 1.392 . S
C525 H537 0.929 . S
C526 C522 1.531 . S
C526 H538 0.960 . S
C526 H539 0.962 . S
C526 H540 0.960 . S
C527 C524 1.511 . S
C527 H541 0.961 . S
C527 H542 0.961 . S
C527 H543 0.961 . S
C528 C529 1.370 . S
C528 C530 1.363 . S
C528 H544 0.931 . S
C529 C528 1.370 . S
C529 C533 1.408 . S
C530 C528 1.363 . S
C530 C531 1.370 . S
C530 C534 1.524 . S
C531 C523 1.503 . S
C531 C530 1.370 . S
C531 C532 1.403 . S
C532 C531 1.403 . S
C532 C533 1.404 . S
C532 C535 1.539 . S
C533 C529 1.408 . S
C533 C532 1.404 . S
C533 H545 0.930 . S
C534 C530 1.524 . S
C534 H546 0.956 . S
C534 H547 0.961 . S
C534 H548 0.961 . S
C535 C532 1.539 . S
C535 H549 0.958 . S
C535 H550 0.961 . S
C535 H551 0.960 . S
H536 C520 0.931 . S
H537 C525 0.929 . S
H538 C526 0.960 . S
H539 C526 0.962 . S
H540 C526 0.960 . S
H541 C527 0.961 . S
H542 C527 0.961 . S
H543 C527 0.961 . S
H544 C528 0.931 . S
H545 C533 0.930 . S
H546 C534 0.956 . S
H547 C534 0.961 . S
H548 C534 0.961 . S
H549 C535 0.958 . S
H550 C535 0.961 . S
H551 C535 0.960 . S
C552 C553 1.391 . S
C552 C554 1.394 . S
C552 H568 0.931 . S
C553 C552 1.391 . S
C553 C557 1.376 . S
C554 C552 1.394 . S
C554 C555 1.369 . S
C554 C558 1.531 . S
C555 C554 1.369 . S
C555 C556 1.410 . S
C555 C563 1.503 . S
C556 C555 1.410 . S
C556 C557 1.392 . S
C556 C559 1.511 . S
C557 C553 1.376 . S
C557 C556 1.392 . S
C557 H569 0.929 . S
C558 C554 1.531 . S
C558 H570 0.960 . S
C558 H571 0.962 . S
C558 H572 0.960 . S
C559 C556 1.511 . S
C559 H573 0.961 . S
C559 H574 0.961 . S
C559 H575 0.961 . S
C560 C561 1.370 . S
C560 C562 1.363 . S
C560 H576 0.931 . S
C561 C560 1.370 . S
C561 C565 1.408 . S
C562 C560 1.363 . S
C562 C563 1.370 . S
C562 C566 1.524 . S
C563 C555 1.503 . S
C563 C562 1.370 . S
C563 C564 1.403 . S
C564 C563 1.403 . S
C564 C565 1.404 . S
C564 C567 1.539 . S
C565 C561 1.408 . S
C565 C564 1.404 . S
C565 H577 0.930 . S
C566 C562 1.524 . S
C566 H578 0.956 . S
C566 H579 0.961 . S
C566 H580 0.961 . S
C567 C564 1.539 . S
C567 H581 0.958 . S
C567 H582 0.961 . S
C567 H583 0.960 . S
H568 C552 0.931 . S
H569 C557 0.929 . S
H570 C558 0.960 . S
H571 C558 0.962 . S
H572 C558 0.960 . S
H573 C559 0.961 . S
H574 C559 0.961 . S
H575 C559 0.961 . S
H576 C560 0.931 . S
H577 C565 0.930 . S
H578 C566 0.956 . S
H579 C566 0.961 . S
H580 C566 0.961 . S
H581 C567 0.958 . S
H582 C567 0.961 . S
H583 C567 0.960 . S
C584 C585 1.391 . S
C584 C586 1.394 . S
C584 H600 0.931 . S
C585 C584 1.391 . S
C585 C589 1.376 . S
C586 C584 1.394 . S
C586 C587 1.369 . S
C586 C590 1.531 . S
C587 C586 1.369 . S
C587 C588 1.410 . S
C587 C595 1.503 . S
C588 C587 1.410 . S
C588 C589 1.392 . S
C588 C591 1.511 . S
C589 C585 1.376 . S
C589 C588 1.392 . S
C589 H601 0.929 . S
C590 C586 1.531 . S
C590 H602 0.960 . S
C590 H603 0.962 . S
C590 H604 0.960 . S
C591 C588 1.511 . S
C591 H605 0.961 . S
C591 H606 0.961 . S
C591 H607 0.961 . S
C592 C593 1.370 . S
C592 C594 1.363 . S
C592 H608 0.931 . S
C593 C592 1.370 . S
C593 C597 1.408 . S
C594 C592 1.363 . S
C594 C595 1.370 . S
C594 C598 1.524 . S
C595 C587 1.503 . S
C595 C594 1.370 . S
C595 C596 1.403 . S
C596 C595 1.403 . S
C596 C597 1.404 . S
C596 C599 1.539 . S
C597 C593 1.408 . S
C597 C596 1.404 . S
C597 H609 0.930 . S
C598 C594 1.524 . S
C598 H610 0.956 . S
C598 H611 0.961 . S
C598 H612 0.961 . S
C599 C596 1.539 . S
C599 H613 0.958 . S
C599 H614 0.961 . S
C599 H615 0.960 . S
H600 C584 0.931 . S
H601 C589 0.929 . S
H602 C590 0.960 . S
H603 C590 0.962 . S
H604 C590 0.960 . S
H605 C591 0.961 . S
H606 C591 0.961 . S
H607 C591 0.961 . S
H608 C592 0.931 . S
H609 C597 0.930 . S
H610 C598 0.956 . S
H611 C598 0.961 . S
H612 C598 0.961 . S
H613 C599 0.958 . S
H614 C599 0.961 . S
H615 C599 0.960 . S
C616 C617 1.391 . S
C616 C618 1.394 . S
C616 H632 0.931 . S
C617 C616 1.391 . S
C617 C621 1.376 . S
C618 C616 1.394 . S
C618 C619 1.369 . S
C618 C622 1.531 . S
C619 C618 1.369 . S
C619 C620 1.410 . S
C619 C627 1.503 . S
C620 C619 1.410 . S
C620 C621 1.392 . S
C620 C623 1.511 . S
C621 C617 1.376 . S
C621 C620 1.392 . S
C621 H633 0.929 . S
C622 C618 1.531 . S
C622 H634 0.960 . S
C622 H635 0.962 . S
C622 H636 0.960 . S
C623 C620 1.511 . S
C623 H637 0.961 . S
C623 H638 0.961 . S
C623 H639 0.961 . S
C624 C625 1.370 . S
C624 C626 1.363 . S
C624 H640 0.931 . S
C625 C624 1.370 . S
C625 C629 1.408 . S
C626 C624 1.363 . S
C626 C627 1.370 . S
C626 C630 1.524 . S
C627 C619 1.503 . S
C627 C626 1.370 . S
C627 C628 1.403 . S
C628 C627 1.403 . S
C628 C629 1.404 . S
C628 C631 1.539 . S
C629 C625 1.408 . S
C629 C628 1.404 . S
C629 H641 0.930 . S
C630 C626 1.524 . S
C630 H642 0.956 . S
C630 H643 0.961 . S
C630 H644 0.961 . S
C631 C628 1.539 . S
C631 H645 0.958 . S
C631 H646 0.961 . S
C631 H647 0.960 . S
H632 C616 0.931 . S
H633 C621 0.929 . S
H634 C622 0.960 . S
H635 C622 0.962 . S
H636 C622 0.960 . S
H637 C623 0.961 . S
H638 C623 0.961 . S
H639 C623 0.961 . S
H640 C624 0.931 . S
H641 C629 0.930 . S
H642 C630 0.956 . S
H643 C630 0.961 . S
H644 C630 0.961 . S
H645 C631 0.958 . S
H646 C631 0.961 . S
H647 C631 0.960 . S
C648 C649 1.391 1_545 S
C648 C650 1.394 . S
C648 H664 0.931 . S
C649 C648 1.391 1_565 S
C649 C653 1.376 . S
C650 C648 1.394 . S
C650 C651 1.369 1_545 S
C650 C654 1.531 . S
C651 C650 1.369 1_565 S
C651 C652 1.410 . S
C651 C659 1.503 1_465 S
C652 C651 1.410 . S
C652 C653 1.392 . S
C652 C655 1.511 . S
C653 C649 1.376 . S
C653 C652 1.392 . S
C653 H665 0.929 . S
C654 C650 1.531 . S
C654 H666 0.960 . S
C654 H667 0.962 . S
C654 H668 0.960 . S
C655 C652 1.511 . S
C655 H669 0.961 . S
C655 H670 0.961 1_455 S
C655 H671 0.961 . S
C656 C657 1.370 . S
C656 C658 1.363 . S
C656 H672 0.931 . S
C657 C656 1.370 . S
C657 C661 1.408 1_545 S
C658 C656 1.363 . S
C658 C659 1.370 . S
C658 C662 1.521 1_655 S
C659 C651 1.503 1_645 S
C659 C658 1.370 . S
C659 C660 1.403 1_545 S
C660 C659 1.403 1_565 S
C660 C661 1.404 . S
C660 C663 1.539 . S
C661 C657 1.408 1_565 S
C661 C660 1.404 . S
C661 H673 0.930 . S
C662 C658 1.521 1_455 S
C662 H674 0.959 . S
C662 H675 0.964 . S
C662 H676 0.958 1_455 S
C663 C660 1.539 . S
C663 H677 0.958 . S
C663 H678 0.961 . S
C663 H679 0.960 . S
H664 C648 0.931 . S
H665 C653 0.929 . S
H666 C654 0.960 . S
H667 C654 0.962 . S
H668 C654 0.960 . S
H669 C655 0.961 . S
H670 C655 0.961 1_655 S
H671 C655 0.961 . S
H672 C656 0.931 . S
H673 C661 0.930 . S
H674 C662 0.959 . S
H675 C662 0.964 . S
H676 C662 0.958 1_655 S
H677 C663 0.958 . S
H678 C663 0.961 . S
H679 C663 0.960 . S
C680 C681 1.391 . S
C680 C682 1.394 . S
C680 H696 0.931 . S
C681 C680 1.391 . S
C681 C685 1.376 1_455 S
C682 C680 1.394 . S
C682 C683 1.369 . S
C682 C686 1.531 . S
C683 C682 1.369 . S
C683 C684 1.410 1_455 S
C683 C691 1.503 1_545 S
C684 C683 1.410 1_655 S
C684 C685 1.392 . S
C684 C687 1.511 . S
C685 C681 1.376 1_655 S
C685 C684 1.392 . S
C685 H697 0.929 . S
C686 C682 1.531 . S
C686 H698 0.960 1_545 S
C686 H699 0.962 . S
C686 H700 0.960 . S
C687 C684 1.511 . S
C687 H701 0.961 . S
C687 H702 0.961 . S
C687 H703 0.961 . S
C688 C689 1.370 . S
C688 C690 1.363 . S
C688 H704 0.931 . S
C689 C688 1.370 . S
C689 C693 1.408 1_655 S
C690 C688 1.363 . S
C690 C691 1.370 1_655 S
C690 C694 1.524 . S
C691 C683 1.503 1_565 S
C691 C690 1.370 1_455 S
C691 C692 1.403 . S
C692 C691 1.403 . S
C692 C693 1.404 . S
C692 C695 1.539 . S
C693 C689 1.408 1_455 S
C693 C692 1.404 . S
C693 H705 0.930 . S
C694 C690 1.524 . S
C694 H706 0.956 1_565 S
C694 H707 0.961 1_565 S
C694 H708 0.961 . S
C695 C692 1.539 . S
C695 H709 0.958 . S
C695 H710 0.961 . S
C695 H711 0.960 1_565 S
H696 C680 0.931 . S
H697 C685 0.929 . S
H698 C686 0.960 1_565 S
H699 C686 0.962 . S
H700 C686 0.960 . S
H701 C687 0.961 . S
H702 C687 0.961 . S
H703 C687 0.961 . S
H704 C688 0.931 . S
H705 C693 0.930 . S
H706 C694 0.956 1_545 S
H707 C694 0.961 1_545 S
H708 C694 0.961 . S
H709 C695 0.958 . S
H710 C695 0.961 . S
H711 C695 0.960 1_545 S
C712 C713 1.391 1_545 S
C712 C714 1.394 . S
C712 H728 0.931 . S
C713 C712 1.391 1_565 S
C713 C717 1.376 . S
C714 C712 1.394 . S
C714 C715 1.369 . S
C714 C718 1.531 . S
C715 C714 1.369 . S
C715 C716 1.410 1_545 S
C715 C723 1.503 1_655 S
C716 C715 1.410 1_565 S
C716 C717 1.392 . S
C716 C719 1.511 . S
C717 C713 1.376 . S
C717 C716 1.392 . S
C717 H729 0.929 . S
C718 C714 1.531 . S
C718 H730 0.962 1_655 S
C718 H731 0.962 . S
C718 H732 0.960 . S
C719 C716 1.511 . S
C719 H733 0.961 . S
C719 H734 0.961 1_655 S
C719 H735 0.961 1_655 S
C720 C721 1.370 . S
C720 C722 1.363 . S
C720 H736 0.931 . S
C721 C720 1.370 . S
C721 C725 1.408 . S
C722 C720 1.363 . S
C722 C723 1.370 . S
C722 C726 1.524 . S
C723 C715 1.503 1_455 S
C723 C722 1.370 . S
C723 C724 1.403 . S
C724 C723 1.403 . S
C724 C725 1.404 . S
C724 C727 1.535 1_545 S
C725 C721 1.408 . S
C725 C724 1.404 . S
C725 H737 0.930 . S
C726 C722 1.524 . S
C726 H738 0.956 . S
C726 H739 0.961 1_545 S
C726 H740 0.961 . S
C727 C724 1.535 1_565 S
C727 H741 0.943 1_565 S
C727 H742 0.971 . S
C727 H743 0.970 . S
H728 C712 0.931 . S
H729 C717 0.929 . S
H730 C718 0.962 1_455 S
H731 C718 0.962 . S
H732 C718 0.960 . S
H733 C719 0.961 . S
H734 C719 0.961 1_455 S
H735 C719 0.961 1_455 S
H736 C720 0.931 . S
H737 C725 0.930 . S
H738 C726 0.956 . S
H739 C726 0.961 1_565 S
H740 C726 0.961 . S
H741 C727 0.943 1_545 S
H742 C727 0.971 . S
H743 C727 0.970 . S
C744 C745 1.391 . S
C744 C746 1.394 . S
C744 H760 0.931 . S
C745 C744 1.391 . S
C745 C749 1.376 1_455 S
C746 C744 1.394 . S
C746 C747 1.369 . S
C746 C750 1.531 . S
C747 C746 1.369 . S
C747 C748 1.410 1_455 S
C747 C755 1.503 1_565 S
C748 C747 1.410 1_655 S
C748 C749 1.392 . S
C748 C751 1.511 . S
C749 C745 1.376 1_655 S
C749 C748 1.392 . S
C749 H761 0.929 . S
C750 C746 1.531 . S
C750 H762 0.960 1_565 S
C750 H763 0.962 1_565 S
C750 H764 0.960 . S
C751 C748 1.511 . S
C751 H765 0.961 . S
C751 H766 0.961 1_565 S
C751 H767 0.961 . S
C752 C753 1.370 . S
C752 C754 1.363 . S
C752 H768 0.931 . S
C753 C752 1.370 . S
C753 C757 1.408 1_655 S
C754 C752 1.363 . S
C754 C755 1.370 1_655 S
C754 C758 1.524 . S
C755 C747 1.503 1_545 S
C755 C754 1.370 1_455 S
C755 C756 1.403 . S
C756 C755 1.403 . S
C756 C757 1.404 . S
C756 C759 1.539 . S
C757 C753 1.408 1_455 S
C757 C756 1.404 . S
C757 H769 0.930 . S
C758 C754 1.524 . S
C758 H770 0.956 . S
C758 H771 0.961 1_545 S
C758 H772 0.961 . S
C759 C756 1.539 . S
C759 H773 0.958 . S
C759 H774 0.961 . S
C759 H775 0.960 . S
H760 C744 0.931 . S
H761 C749 0.929 . S
H762 C750 0.960 1_545 S
H763 C750 0.962 1_545 S
H764 C750 0.960 . S
H765 C751 0.961 . S
H766 C751 0.961 1_545 S
H767 C751 0.961 . S
H768 C752 0.931 . S
H769 C757 0.930 . S
H770 C758 0.956 . S
H771 C758 0.961 1_565 S
H772 C758 0.961 . S
H773 C759 0.958 . S
H774 C759 0.961 . S
H775 C759 0.960 . S
C776 C777 1.391 1_545 S
C776 C778 1.394 . S
C776 H792 0.931 . S
C777 C776 1.391 1_565 S
C777 C781 1.376 . S
C778 C776 1.394 . S
C778 C779 1.369 . S
C778 C782 1.531 . S
C779 C778 1.369 . S
C779 C780 1.410 1_545 S
C779 C787 1.503 . S
C780 C779 1.410 1_565 S
C780 C781 1.392 . S
C780 C783 1.511 . S
C781 C777 1.376 . S
C781 C780 1.392 . S
C781 H793 0.929 . S
C782 C778 1.531 . S
C782 H794 0.960 . S
C782 H795 0.962 . S
C782 H796 0.960 . S
C783 C780 1.511 . S
C783 H797 0.961 . S
C783 H798 0.961 . S
C783 H799 0.961 . S
C784 C785 1.370 . S
C784 C786 1.363 . S
C784 H800 0.931 . S
C785 C784 1.370 . S
C785 C789 1.408 . S
C786 C784 1.363 . S
C786 C787 1.370 . S
C786 C790 1.524 1_545 S
C787 C779 1.503 . S
C787 C786 1.370 . S
C787 C788 1.403 . S
C788 C787 1.403 . S
C788 C789 1.404 . S
C788 C791 1.539 . S
C789 C785 1.408 . S
C789 C788 1.404 . S
C789 H801 0.930 . S
C790 C786 1.524 1_565 S
C790 H802 0.956 1_565 S
C790 H803 0.961 . S
C790 H804 0.961 . S
C791 C788 1.539 . S
C791 H805 0.958 . S
C791 H806 0.961 . S
C791 H807 0.960 . S
H792 C776 0.931 . S
H793 C781 0.929 . S
H794 C782 0.960 . S
H795 C782 0.962 . S
H796 C782 0.960 . S
H797 C783 0.961 . S
H798 C783 0.961 . S
H799 C783 0.961 . S
H800 C784 0.931 . S
H801 C789 0.930 . S
H802 C790 0.956 1_545 S
H803 C790 0.961 . S
H804 C790 0.961 . S
H805 C791 0.958 . S
H806 C791 0.961 . S
H807 C791 0.960 . S
C808 C809 1.391 1_655 S
C808 C810 1.397 . S
C808 H824 0.931 . S
C809 C808 1.391 1_455 S
C809 C813 1.376 . S
C810 C808 1.397 . S
C810 C811 1.362 1_655 S
C810 C814 1.535 . S
C811 C810 1.362 1_455 S
C811 C812 1.410 . S
C811 C819 1.503 . S
C812 C811 1.410 . S
C812 C813 1.392 . S
C812 C815 1.511 . S
C813 C809 1.376 . S
C813 C812 1.392 . S
C813 H825 0.929 . S
C814 C810 1.535 . S
C814 H826 0.960 1_655 S
C814 H827 0.962 . S
C814 H828 0.960 . S
C815 C812 1.511 . S
C815 H829 0.961 . S
C815 H830 0.961 . S
C815 H831 0.961 . S
C816 C817 1.370 1_655 S
C816 C818 1.363 . S
C816 H832 0.931 . S
C817 C816 1.370 1_455 S
C817 C821 1.408 . S
C818 C816 1.363 . S
C818 C819 1.370 1_655 S
C818 C822 1.524 . S
C819 C811 1.503 . S
C819 C818 1.370 1_455 S
C819 C820 1.403 . S
C820 C819 1.403 . S
C820 C821 1.404 . S
C820 C823 1.539 . S
C821 C817 1.408 . S
C821 C820 1.404 . S
C821 H833 0.930 . S
C822 C818 1.524 . S
C822 H834 0.956 . S
C822 H835 0.961 . S
C822 H836 0.961 . S
C823 C820 1.539 . S
C823 H837 0.958 . S
C823 H838 0.961 . S
C823 H839 0.960 . S
H824 C808 0.931 . S
H825 C813 0.929 . S
H826 C814 0.960 1_455 S
H827 C814 0.962 . S
H828 C814 0.960 . S
H829 C815 0.961 . S
H830 C815 0.961 . S
H831 C815 0.961 . S
H832 C816 0.931 . S
H833 C821 0.930 . S
H834 C822 0.956 . S
H835 C822 0.961 . S
H836 C822 0.961 . S
H837 C823 0.958 . S
H838 C823 0.961 . S
H839 C823 0.960 . S
C840 C841 1.391 . S
C840 C842 1.394 . S
C840 H856 0.931 . S
C841 C840 1.391 . S
C841 C845 1.376 1_545 S
C842 C840 1.394 . S
C842 C843 1.369 . S
C842 C846 1.531 . S
C843 C842 1.369 . S
C843 C844 1.410 1_545 S
C843 C851 1.503 . S
C844 C843 1.410 1_565 S
C844 C845 1.392 . S
C844 C847 1.511 . S
C845 C841 1.376 1_565 S
C845 C844 1.392 . S
C845 H857 0.929 . S
C846 C842 1.531 . S
C846 H858 0.960 . S
C846 H859 0.962 . S
C846 H860 0.960 . S
C847 C844 1.511 . S
C847 H861 0.961 . S
C847 H862 0.961 . S
C847 H863 0.961 . S
C848 C849 1.370 1_545 S
C848 C850 1.363 . S
C848 H864 0.931 . S
C849 C848 1.370 1_565 S
C849 C853 1.408 . S
C850 C848 1.363 . S
C850 C851 1.370 . S
C850 C854 1.524 . S
C851 C843 1.503 . S
C851 C850 1.370 . S
C851 C852 1.403 1_545 S
C852 C851 1.403 1_565 S
C852 C853 1.404 . S
C852 C855 1.539 . S
C853 C849 1.408 . S
C853 C852 1.404 . S
C853 H865 0.930 . S
C854 C850 1.524 . S
C854 H866 0.956 . S
C854 H867 0.961 . S
C854 H868 0.961 . S
C855 C852 1.539 . S
C855 H869 0.956 1_565 S
C855 H870 0.961 . S
C855 H871 0.960 . S
H856 C840 0.931 . S
H857 C845 0.929 . S
H858 C846 0.960 . S
H859 C846 0.962 . S
H860 C846 0.960 . S
H861 C847 0.961 . S
H862 C847 0.961 . S
H863 C847 0.961 . S
H864 C848 0.931 . S
H865 C853 0.930 . S
H866 C854 0.956 . S
H867 C854 0.961 . S
H868 C854 0.961 . S
H869 C855 0.956 1_545 S
H870 C855 0.961 . S
H871 C855 0.960 . S
C872 C873 1.391 1_455 S
C872 C874 1.394 . S
C872 H888 0.931 . S
C873 C872 1.391 1_655 S
C873 C877 1.376 . S
C874 C872 1.394 . S
C874 C875 1.369 . S
C874 C878 1.531 . S
C875 C874 1.369 . S
C875 C876 1.410 1_455 S
C875 C883 1.503 . S
C876 C875 1.410 1_655 S
C876 C877 1.392 . S
C876 C879 1.511 . S
C877 C873 1.376 . S
C877 C876 1.392 . S
C877 H889 0.929 . S
C878 C874 1.531 . S
C878 H890 0.960 . S
C878 H891 0.962 . S
C878 H892 0.960 . S
C879 C876 1.511 . S
C879 H893 0.961 . S
C879 H894 0.961 . S
C879 H895 0.961 . S
C880 C881 1.370 . S
C880 C882 1.363 . S
C880 H896 0.931 . S
C881 C880 1.370 . S
C881 C885 1.408 . S
C882 C880 1.363 . S
C882 C883 1.370 . S
C882 C886 1.524 . S
C883 C875 1.503 . S
C883 C882 1.370 . S
C883 C884 1.403 1_455 S
C884 C883 1.403 1_655 S
C884 C885 1.404 1_655 S
C884 C887 1.539 . S
C885 C881 1.408 . S
C885 C884 1.404 1_455 S
C885 H897 0.930 1_455 S
C886 C882 1.524 . S
C886 H898 0.956 . S
C886 H899 0.961 . S
C886 H900 0.961 . S
C887 C884 1.539 . S
C887 H901 0.960 1_655 S
C887 H902 0.961 . S
C887 H903 0.960 . S
H888 C872 0.931 . S
H889 C877 0.929 . S
H890 C878 0.960 . S
H891 C878 0.962 . S
H892 C878 0.960 . S
H893 C879 0.961 . S
H894 C879 0.961 . S
H895 C879 0.961 . S
H896 C880 0.931 . S
H897 C885 0.930 1_655 S
H898 C886 0.956 . S
H899 C886 0.961 . S
H900 C886 0.961 . S
H901 C887 0.960 1_455 S
H902 C887 0.961 . S
H903 C887 0.960 . S
C265 C18 1.688 . S
C273 C150 1.695 . S
C297 C183 1.702 . S
C305 C51 1.701 . S
C329 C84 1.703 . S
C337 C216 1.702 . S
C361 C249 1.684 . S
C369 C117 1.694 . S
C393 C186 0.521 . S
C401 C21 0.458 . S
C425 C219 0.487 . S
C433 C54 0.444 . S
C457 C87 0.529 . S
C465 C252 0.462 . S
C489 C153 0.495 . S
C497 C120 0.445 . S
C521 C106 1.147 . S
C529 C205 1.161 . S
C553 C7 1.195 . S
C561 C238 1.179 . S
C585 C40 1.154 . S
C593 C139 1.164 . S
C617 C73 1.120 . S
C625 C172 1.149 . S
C649 N2 0.665 . S
C657 N68 0.624 . S
C681 N35 0.704 . S
C689 N101 0.658 . S
C713 N200 0.611 . S
C721 N134 0.624 . S
C745 N233 0.705 . S
C753 N167 0.657 . S
C777 N13 1.079 . S
C785 N79 1.094 . S
C809 N112 1.115 1_455 S
C817 N46 1.103 . S
C841 N145 1.126 . S
C849 N211 1.111 . S
C873 N178 1.077 . S
C881 N244 1.097 . S
