# Generated by pormake.
# Topology una, (4)-cn, num edge types: 1
# Building blocks:
#     Node 0, Type 0, BuildingBlock: QUQFOY_clean_sbu_3, # of connection points: 4
#     Node 1, Type 0, BuildingBlock: QUQFOY_clean_sbu_3, # of connection points: 4
#     Node 2, Type 0, BuildingBlock: QUQFOY_clean_sbu_3, # of connection points: 4
#     Node 3, Type 0, BuildingBlock: QUQFOY_clean_sbu_3, # of connection points: 4
#     Node 4, Type 0, BuildingBlock: QUQFOY_clean_sbu_3, # of connection points: 4
#     Node 5, Type 0, BuildingBlock: QUQFOY_clean_sbu_3, # of connection points: 4
#     Node 6, Type 0, BuildingBlock: QUQFOY_clean_sbu_3, # of connection points: 4
#     Node 7, Type 0, BuildingBlock: QUQFOY_clean_sbu_3, # of connection points: 4
#     Node 8, Type 0, BuildingBlock: QUQFOY_clean_sbu_3, # of connection points: 4
#     Node 9, Type 0, BuildingBlock: QUQFOY_clean_sbu_3, # of connection points: 4
#     Node 10, Type 0, BuildingBlock: QUQFOY_clean_sbu_3, # of connection points: 4
#     Node 11, Type 0, BuildingBlock: QUQFOY_clean_sbu_3, # of connection points: 4
#     Edge 12, Type (0, 0), BuildingBlock: XIVTED_clean_linker_0, # of connection points: 2
#     Edge 13, Type (0, 0), BuildingBlock: XIVTED_clean_linker_0, # of connection points: 2
#     Edge 14, Type (0, 0), BuildingBlock: XIVTED_clean_linker_0, # of connection points: 2
#     Edge 15, Type (0, 0), BuildingBlock: XIVTED_clean_linker_0, # of connection points: 2
#     Edge 16, Type (0, 0), BuildingBlock: XIVTED_clean_linker_0, # of connection points: 2
#     Edge 17, Type (0, 0), BuildingBlock: XIVTED_clean_linker_0, # of connection points: 2
#     Edge 18, Type (0, 0), BuildingBlock: XIVTED_clean_linker_0, # of connection points: 2
#     Edge 19, Type (0, 0), BuildingBlock: XIVTED_clean_linker_0, # of connection points: 2
#     Edge 20, Type (0, 0), BuildingBlock: XIVTED_clean_linker_0, # of connection points: 2
#     Edge 21, Type (0, 0), BuildingBlock: XIVTED_clean_linker_0, # of connection points: 2
#     Edge 22, Type (0, 0), BuildingBlock: XIVTED_clean_linker_0, # of connection points: 2
#     Edge 23, Type (0, 0), BuildingBlock: XIVTED_clean_linker_0, # of connection points: 2
#     Edge 24, Type (0, 0), BuildingBlock: XIVTED_clean_linker_0, # of connection points: 2
#     Edge 25, Type (0, 0), BuildingBlock: XIVTED_clean_linker_0, # of connection points: 2
#     Edge 26, Type (0, 0), BuildingBlock: XIVTED_clean_linker_0, # of connection points: 2
#     Edge 27, Type (0, 0), BuildingBlock: XIVTED_clean_linker_0, # of connection points: 2
#     Edge 28, Type (0, 0), BuildingBlock: XIVTED_clean_linker_0, # of connection points: 2
#     Edge 29, Type (0, 0), BuildingBlock: XIVTED_clean_linker_0, # of connection points: 2
#     Edge 30, Type (0, 0), BuildingBlock: XIVTED_clean_linker_0, # of connection points: 2
#     Edge 31, Type (0, 0), BuildingBlock: XIVTED_clean_linker_0, # of connection points: 2
#     Edge 32, Type (0, 0), BuildingBlock: XIVTED_clean_linker_0, # of connection points: 2
#     Edge 33, Type (0, 0), BuildingBlock: XIVTED_clean_linker_0, # of connection points: 2
#     Edge 34, Type (0, 0), BuildingBlock: XIVTED_clean_linker_0, # of connection points: 2
#     Edge 35, Type (0, 0), BuildingBlock: XIVTED_clean_linker_0, # of connection points: 2
# Relax obj value: 0.026
# Max RMSD: 0.045
# Mean RMSD: 0.044
data_MOF--net-una--node1-QUQFOY_clean_sbu_3--edge1-XIVTED_clean_linker_0
_symmetry_space_group_name_H-M    P1
_symmetry_Int_Tables_number       1
_symmetry_cell_setting            triclinic
loop_
_symmetry_equiv_pos_as_xyz
'x, y, z'
_cell_length_a     60.724711
_cell_length_b     60.566689
_cell_length_c     23.091218
_cell_angle_alpha  89.930801
_cell_angle_beta   90.009989
_cell_angle_gamma 120.12591
loop_
_atom_site_label
_atom_site_type_symbol
_atom_site_fract_x
_atom_site_fract_y
_atom_site_fract_z
_atom_type_partial_charge
C0 C 0.15534 0.46005 0.91318 0.0
O1 O 0.16224 0.48166 0.93567 0.0
Cd2 Cd 0.14449 0.48595 0.02295 0.0
O3 O 0.13667 0.43977 0.93424 0.0
Cd4 Cd 0.10303 0.42687 0.01092 0.0
C5 C 0.15031 0.44057 0.10533 0.0
O6 O 0.10027 0.46528 0.00217 0.0
O7 O 0.08295 0.44364 0.07927 0.0
O8 O 0.07679 0.40301 0.92915 0.0
C9 C 0.08706 0.46226 0.04685 0.0
O10 O 0.1571 0.46345 0.09107 0.0
C11 C 0.06041 0.38386 0.95756 0.0
O12 O 0.13059 0.42187 0.0828 0.0
O13 O 0.06416 0.38393 0.01179 0.0
C14 C 0.68585 0.17253 0.11779 0.0
O15 O 0.67074 0.17877 0.14059 0.0
Cd16 Cd 0.64236 0.15555 0.21702 0.0
O17 O 0.68549 0.15213 0.13335 0.0
Cd18 Cd 0.6607 0.11523 0.2002 0.0
C19 C 0.68682 0.15573 0.31228 0.0
O20 O 0.61987 0.11262 0.18448 0.0
O21 O 0.62127 0.09228 0.2593 0.0
O22 O 0.66087 0.09123 0.11624 0.0
C23 C 0.60799 0.09743 0.22552 0.0
O24 O 0.67075 0.16244 0.29804 0.0
C25 C 0.66269 0.07411 0.14382 0.0
O26 O 0.68908 0.13928 0.28229 0.0
O27 O 0.66496 0.07663 0.19854 0.0
C28 C 0.52482 0.71144 0.28802 0.0
O29 O 0.50584 0.70369 0.32182 0.0
Cd30 Cd 0.4956 0.67283 0.39732 0.0
O31 O 0.54095 0.70399 0.29405 0.0
Cd32 Cd 0.55004 0.67724 0.36023 0.0
C33 C 0.54858 0.71008 0.47951 0.0
O34 O 0.50622 0.64347 0.35638 0.0
O35 O 0.5296 0.63526 0.41194 0.0
O36 O 0.56907 0.67197 0.27213 0.0
C37 C 0.5079 0.62783 0.38973 0.0
O38 O 0.52446 0.69753 0.47455 0.0
C39 C 0.58782 0.6721 0.29673 0.0
O40 O 0.56299 0.70828 0.44184 0.0
O41 O 0.58962 0.67546 0.35127 0.0
C42 C 0.79659 0.51152 0.4311 0.0
O43 O 0.79117 0.49044 0.45468 0.0
Cd44 Cd 0.81474 0.48662 0.53199 0.0
O45 O 0.81645 0.53217 0.44631 0.0
Cd46 Cd 0.85338 0.54589 0.51367 0.0
C47 C 0.81271 0.53054 0.6256 0.0
O48 O 0.85771 0.50842 0.50088 0.0
O49 O 0.87667 0.53081 0.57594 0.0
O50 O 0.87764 0.56981 0.42946 0.0
C51 C 0.87244 0.51231 0.54314 0.0
O52 O 0.80697 0.50787 0.61218 0.0
C53 C 0.89399 0.58941 0.45661 0.0
O54 O 0.82848 0.54948 0.59493 0.0
O55 O 0.89086 0.58961 0.51105 0.0
C56 C 0.26288 0.7983 0.62514 0.0
O57 O 0.27588 0.79042 0.65212 0.0
Cd58 Cd 0.30783 0.8131 0.72271 0.0
O59 O 0.26647 0.82071 0.6338 0.0
Cd60 Cd 0.29443 0.85935 0.69366 0.0
C61 C 0.2689 0.82344 0.81582 0.0
O62 O 0.33029 0.85358 0.6794 0.0
O63 O 0.33809 0.8839 0.73842 0.0
O64 O 0.29427 0.88167 0.60586 0.0
C65 C 0.3462 0.87111 0.71169 0.0
O66 O 0.28282 0.81384 0.80388 0.0
C67 C 0.29388 0.90008 0.63103 0.0
O68 O 0.26776 0.83952 0.78182 0.0
O69 O 0.2926 0.89916 0.68605 0.0
C70 C 0.44153 0.27214 0.7802 0.0
O71 O 0.46265 0.28657 0.80489 0.0
Cd72 Cd 0.46848 0.31604 0.87895 0.0
O73 O 0.42181 0.27352 0.79298 0.0
Cd74 Cd 0.41077 0.29974 0.85775 0.0
C75 C 0.42247 0.27335 0.97384 0.0
O76 O 0.4502 0.33976 0.84227 0.0
O77 O 0.42893 0.33954 0.91667 0.0
O78 O 0.38805 0.30074 0.77194 0.0
C79 C 0.44757 0.35223 0.88281 0.0
O80 O 0.44559 0.28916 0.96123 0.0
C81 C 0.36952 0.30035 0.79816 0.0
O82 O 0.40442 0.27097 0.94124 0.0
O83 O 0.36914 0.29818 0.85301 0.0
C84 C 0.51985 0.8115 0.95141 0.0
O85 O 0.50003 0.7994 0.92038 0.0
Cd86 Cd 0.49179 0.8158 0.83439 0.0
O87 O 0.53721 0.83418 0.93864 0.0
Cd88 Cd 0.54838 0.86834 0.86463 0.0
C89 C 0.54702 0.82583 0.76511 0.0
O90 O 0.50493 0.85824 0.86246 0.0
O91 O 0.529 0.88889 0.80502 0.0
O92 O 0.56679 0.89409 0.95101 0.0
C93 C 0.50693 0.87457 0.82562 0.0
O94 O 0.52306 0.81348 0.77328 0.0
C95 C 0.58594 0.91229 0.9261 0.0
O96 O 0.56141 0.84653 0.79224 0.0
O97 O 0.58817 0.90994 0.872 0.0
C98 C 0.68202 0.50964 0.11575 0.0
O99 O 0.6666 0.48799 0.09433 0.0
Cd100 Cd 0.64189 0.48357 0.01133 0.0
O101 O 0.68316 0.52986 0.09587 0.0
Cd102 Cd 0.66083 0.54257 0.0231 0.0
C103 C 0.6908 0.52753 0.92194 0.0
O104 O 0.6193 0.50484 0.0358 0.0
O105 O 0.62303 0.5259 0.958 0.0
O106 O 0.66024 0.56686 0.10578 0.0
C107 C 0.60866 0.50789 -0.00805 0.0
O108 O 0.67445 0.50487 0.93712 0.0
C109 C 0.66254 0.5859 0.07774 0.0
O110 O 0.69144 0.54664 0.94688 0.0
O111 O 0.66528 0.58564 0.02316 0.0
C112 C 0.15173 0.68871 0.3033 0.0
O113 O 0.15854 0.67375 0.28206 0.0
Cd114 Cd 0.14191 0.65203 0.1939 0.0
O115 O 0.13358 0.69062 0.28056 0.0
Cd116 Cd 0.10068 0.67016 0.20223 0.0
C117 C 0.14941 0.70398 0.11119 0.0
O118 O 0.09744 0.62882 0.2114 0.0
O119 O 0.08118 0.63346 0.13304 0.0
O120 O 0.07393 0.66767 0.28277 0.0
C121 C 0.08485 0.6188 0.16586 0.0
O122 O 0.15573 0.68771 0.12662 0.0
C123 C 0.05787 0.6706 0.25371 0.0
O124 O 0.12942 0.70298 0.13172 0.0
O125 O 0.06202 0.67439 0.19959 0.0
C126 C 0.44409 0.16097 0.46221 0.0
O127 O 0.46565 0.16778 0.43978 0.0
Cd128 Cd 0.47029 0.14957 0.3537 0.0
O129 O 0.4239 0.14202 0.44181 0.0
Cd130 Cd 0.41161 0.1078 0.36645 0.0
C131 C 0.42483 0.15438 0.26975 0.0
O132 O 0.45002 0.1054 0.3752 0.0
O133 O 0.42904 0.08866 0.29714 0.0
O134 O 0.3894 0.0808 0.44863 0.0
C135 C 0.44732 0.09248 0.33017 0.0
O136 O 0.44764 0.16124 0.28415 0.0
C137 C 0.37007 0.06415 0.42131 0.0
O138 O 0.40616 0.13486 0.29322 0.0
O139 O 0.36906 0.06826 0.36756 0.0
C140 C 0.26463 0.45846 0.59053 0.0
O141 O 0.27766 0.47946 0.56369 0.0
Cd142 Cd 0.30911 0.48886 0.49176 0.0
O143 O 0.26784 0.4395 0.58085 0.0
Cd144 Cd 0.29517 0.42876 0.51909 0.0
C145 C 0.26963 0.43981 0.39819 0.0
O146 O 0.33136 0.4704 0.53308 0.0
O147 O 0.33855 0.44787 0.4729 0.0
O148 O 0.29508 0.40588 0.60615 0.0
C149 C 0.34698 0.4688 0.49988 0.0
O150 O 0.28376 0.46335 0.41057 0.0
C151 C 0.29463 0.38717 0.58034 0.0
O152 O 0.2683 0.42234 0.43162 0.0
O153 O 0.29324 0.38703 0.52535 0.0
C154 C 0.80059 0.28676 0.80353 0.0
O155 O 0.79552 0.30299 0.78204 0.0
Cd156 Cd 0.81582 0.32684 0.69787 0.0
O157 O 0.81877 0.28425 0.78319 0.0
Cd158 Cd 0.85369 0.30476 0.70936 0.0
C159 C 0.80754 0.27614 0.60987 0.0
O160 O 0.85985 0.3473 0.71937 0.0
O161 O 0.87571 0.34163 0.6416 0.0
O162 O 0.87873 0.30524 0.79165 0.0
C163 C 0.87308 0.35695 0.67435 0.0
O164 O 0.80268 0.29348 0.62495 0.0
C165 C 0.89456 0.30163 0.76351 0.0
O166 O 0.82541 0.27434 0.63448 0.0
O167 O 0.89086 0.29812 0.70922 0.0
H168 H 0.13974 0.39749 0.16962 0.0
H169 H 0.28148 0.46618 0.29768 0.0
H170 H 0.19959 0.47424 0.1311 0.0
H171 H 0.22028 0.40035 0.38175 0.0
H172 H 0.25235 0.46278 0.22141 0.0
H173 H 0.16921 0.39279 0.23554 0.0
C174 C 0.15899 0.41326 0.17481 0.0
C175 C 0.16709 0.43639 0.14518 0.0
C176 C 0.24521 0.44884 0.25609 0.0
C177 C 0.20081 0.43095 0.21906 0.0
C178 C 0.26192 0.45069 0.29949 0.0
C179 C 0.25323 0.43369 0.34638 0.0
C180 C 0.21937 0.43003 0.25961 0.0
C181 C 0.22771 0.41383 0.34622 0.0
C182 C 0.17575 0.41055 0.21231 0.0
C183 C 0.19227 0.45615 0.15339 0.0
N184 N 0.21148 0.41275 0.30388 0.0
N185 N 0.2081 0.45294 0.18924 0.0
H186 H 0.76531 0.27271 0.56071 0.0
H187 H 0.73267 0.1589 0.34174 0.0
H188 H 0.81086 0.23624 0.55895 0.0
H189 H 0.68044 0.18372 0.39524 0.0
H190 H 0.76294 0.18693 0.41625 0.0
H191 H 0.73621 0.24135 0.49283 0.0
C192 C 0.76933 0.25812 0.54595 0.0
C193 C 0.7907 0.25721 0.56597 0.0
C194 C 0.7447 0.18591 0.41184 0.0
C195 C 0.75684 0.22066 0.48727 0.0
C196 C 0.7274 0.16988 0.36957 0.0
C197 C 0.70408 0.16918 0.36166 0.0
C198 C 0.73857 0.20132 0.44588 0.0
C199 C 0.69828 0.18384 0.3989 0.0
C200 C 0.75249 0.24001 0.50718 0.0
C201 C 0.79463 0.23767 0.54478 0.0
N202 N 0.71542 0.19937 0.43874 0.0
N203 N 0.77786 0.22014 0.50631 0.0
H204 H 0.58365 0.76114 0.47379 0.0
H205 H 0.54397 0.78126 0.79078 0.0
H206 H 0.53595 0.70114 0.59277 0.0
H207 H 0.57328 0.84059 0.6615 0.0
H208 H 0.55308 0.75475 0.72706 0.0
H209 H 0.59144 0.79286 0.54969 0.0
C210 C 0.57561 0.75466 0.51653 0.0
C211 C 0.55919 0.72858 0.52738 0.0
C212 C 0.55796 0.77371 0.71272 0.0
C213 C 0.56771 0.76445 0.61354 0.0
C214 C 0.55287 0.78887 0.74921 0.0
C215 C 0.55783 0.813 0.73107 0.0
C216 C 0.56765 0.78251 0.65699 0.0
C217 C 0.5693 0.82206 0.67689 0.0
C218 C 0.57982 0.77272 0.5595 0.0
C219 C 0.54875 0.72109 0.58286 0.0
N220 N 0.57347 0.80659 0.64113 0.0
N221 N 0.55305 0.73892 0.62365 0.0
H222 H 0.78858 0.49698 0.71289 0.0
H223 H 0.72817 0.57202 0.86925 0.0
H224 H 0.80544 0.5712 0.65151 0.0
H225 H 0.69791 0.49051 0.87484 0.0
H226 H 0.76086 0.57567 0.80003 0.0
H227 H 0.76091 0.49858 0.7863 0.0
C228 C 0.78661 0.51377 0.71507 0.0
C229 C 0.79911 0.53382 0.67528 0.0
C230 C 0.74695 0.55707 0.81657 0.0
C231 C 0.76692 0.53566 0.75966 0.0
C232 C 0.7283 0.55495 0.85593 0.0
C233 C 0.71017 0.53092 0.87802 0.0
C234 C 0.7476 0.53505 0.80019 0.0
C235 C 0.71131 0.50947 0.85923 0.0
C236 C 0.77067 0.51463 0.75703 0.0
C237 C 0.79607 0.55527 0.68117 0.0
N238 N 0.72968 0.5121 0.82192 0.0
N239 N 0.78003 0.55555 0.72232 0.0
H240 H 0.22023 0.8152 0.83239 0.0
H241 H 0.19931 0.72043 0.09273 0.0
H242 H 0.27955 0.8075 0.91588 0.0
H243 H 0.13996 0.73585 0.04165 0.0
H244 H 0.22864 0.75387 0.02859 0.0
H245 H 0.19057 0.78901 0.90988 0.0
C246 C 0.22718 0.80861 0.86777 0.0
C247 C 0.25231 0.81328 0.86747 0.0
C248 C 0.20927 0.75019 0.03125 0.0
C249 C 0.2186 0.78315 0.95515 0.0
C250 C 0.19236 0.73085 0.06779 0.0
C251 C 0.16697 0.72505 0.07226 0.0
C252 C 0.2009 0.7639 -0.00229 0.0
C253 C 0.15935 0.73962 0.03933 0.0
C254 C 0.21022 0.79352 0.91167 0.0
C255 C 0.26027 0.8041 0.91397 0.0
N256 N 0.17619 0.75824 0.00281 0.0
N257 N 0.24347 0.78933 0.95534 0.0
H258 H 0.38131 0.14419 0.20805 0.0
H259 H 0.45147 0.28468 0.07018 0.0
H260 H 0.45935 0.20274 0.2379 0.0
H261 H 0.38308 0.22394 -0.00665 0.0
H262 H 0.44894 0.25562 0.14579 0.0
H263 H 0.37689 0.1734 0.14032 0.0
C264 C 0.39743 0.16309 0.20055 0.0
C265 C 0.4208 0.1709 0.22847 0.0
C266 C 0.43431 0.24854 0.11276 0.0
C267 C 0.41572 0.20432 0.1524 0.0
C268 C 0.43569 0.26521 0.06963 0.0
C269 C 0.41765 0.25667 0.02493 0.0
C270 C 0.41486 0.22286 0.11138 0.0
C271 C 0.39741 0.23128 0.02702 0.0
C272 C 0.39489 0.17969 0.16199 0.0
C273 C 0.44103 0.19563 0.2172 0.0
N274 N 0.39672 0.21508 0.06919 0.0
N275 N 0.43797 0.21131 0.18042 0.0
H276 H 0.07314 0.47043 0.15438 0.0
H277 H 0.07305 0.59755 0.05717 0.0
H278 H 0.08725 0.49923 0.97922 0.0
H279 H 0.08415 0.58159 0.23355 0.0
H280 H 0.06873 0.55665 0.0276 0.0
H281 H 0.06767 0.50634 0.18351 0.0
C282 C 0.07475 0.48411 0.12195 0.0
C283 C 0.08092 0.48202 0.06444 0.0
C284 C 0.07187 0.56204 0.07284 0.0
C285 C 0.0746 0.52296 0.0973 0.0
C286 C 0.07423 0.5853 0.08975 0.0
C287 C 0.07923 0.59307 0.14778 0.0
C288 C 0.07423 0.54637 0.1144 0.0
C289 C 0.08057 0.57645 0.18823 0.0
C290 C 0.07173 0.50462 0.13861 0.0
C291 C 0.08278 0.50028 0.02416 0.0
N292 N 0.07819 0.55394 0.17077 0.0
N293 N 0.07973 0.52002 0.04137 0.0
H294 H 0.58206 0.07862 0.32751 0.0
H295 H 0.45871 0.083 0.22112 0.0
H296 H 0.57369 0.10048 0.15456 0.0
H297 H 0.48159 0.08921 0.40002 0.0
H298 H 0.49558 0.07893 0.19356 0.0
H299 H 0.53985 0.07193 0.35181 0.0
C300 C 0.57121 0.08167 0.29445 0.0
C301 C 0.58149 0.09041 0.23917 0.0
C302 C 0.49231 0.0809 0.23887 0.0
C303 C 0.53327 0.0827 0.26653 0.0
C304 C 0.47125 0.0831 0.25461 0.0
C305 C 0.4673 0.08672 0.31284 0.0
C306 C 0.50923 0.08196 0.28181 0.0
C307 C 0.48413 0.08674 0.35454 0.0
C308 C 0.54719 0.07794 0.30839 0.0
C309 C 0.56658 0.09402 0.19793 0.0
N310 N 0.5044 0.08451 0.33822 0.0
N311 N 0.54326 0.09026 0.21251 0.0
H312 H 0.35996 0.51828 0.51585 0.0
H313 H 0.50514 0.58373 0.42974 0.0
H314 H 0.38973 0.47163 0.45097 0.0
H315 H 0.45877 0.61697 0.38749 0.0
H316 H 0.4662 0.54374 0.45659 0.0
H317 H 0.39974 0.55644 0.48919 0.0
C318 C 0.37494 0.51605 0.49628 0.0
C319 C 0.37151 0.49174 0.48528 0.0
C320 C 0.46472 0.55986 0.44125 0.0
C321 C 0.41721 0.53543 0.45553 0.0
C322 C 0.48681 0.58262 0.4263 0.0
C323 C 0.48508 0.60361 0.40639 0.0
C324 C 0.441 0.55851 0.43773 0.0
C325 C 0.46093 0.60121 0.40241 0.0
C326 C 0.39757 0.53784 0.48091 0.0
C327 C 0.39161 0.49005 0.45977 0.0
N328 N 0.43987 0.57918 0.41854 0.0
N329 N 0.41379 0.51169 0.44602 0.0
H330 H 0.87134 0.4749 0.47554 0.0
H331 H 0.87668 0.39559 0.7413 0.0
H332 H 0.88868 0.50539 0.64894 0.0
H333 H 0.88446 0.37727 0.56475 0.0
H334 H 0.88234 0.43649 0.70855 0.0
H335 H 0.87733 0.43967 0.50659 0.0
C336 C 0.8767 0.47432 0.52003 0.0
C337 C 0.87928 0.49295 0.55988 0.0
C338 C 0.88318 0.42371 0.67702 0.0
C339 C 0.88585 0.45253 0.59587 0.0
C340 C 0.87989 0.40033 0.69567 0.0
C341 C 0.87988 0.38294 0.65558 0.0
C342 C 0.88603 0.42957 0.61769 0.0
C343 C 0.88427 0.3901 0.59706 0.0
C344 C 0.88018 0.45425 0.53768 0.0
C345 C 0.88641 0.49138 0.61686 0.0
N346 N 0.88677 0.41273 0.57971 0.0
N347 N 0.88907 0.47128 0.63339 0.0
H348 H 0.35899 0.83454 0.69583 0.0
H349 H 0.50448 0.91549 0.78177 0.0
H350 H 0.38934 0.91152 0.75867 0.0
H351 H 0.45795 0.83569 0.8248 0.0
H352 H 0.46569 0.91612 0.75261 0.0
H353 H 0.39889 0.83644 0.72146 0.0
C354 C 0.37413 0.85194 0.71469 0.0
C355 C 0.37081 0.87288 0.7255 0.0
C356 C 0.46415 0.89856 0.76844 0.0
C357 C 0.41664 0.87522 0.75403 0.0
C358 C 0.48616 0.89812 0.78465 0.0
C359 C 0.48432 0.8755 0.8057 0.0
C360 C 0.44041 0.87604 0.77185 0.0
C361 C 0.46018 0.85354 0.80902 0.0
C362 C 0.39683 0.85294 0.72945 0.0
C363 C 0.39111 0.89491 0.75008 0.0
N364 N 0.4392 0.8543 0.79177 0.0
N365 N 0.41333 0.8956 0.7633 0.0
H366 H 0.48469 0.38603 0.81053 0.0
H367 H 0.57166 0.47376 0.06381 0.0
H368 H 0.45761 0.37765 -0.0136 0.0
H369 H 0.58585 0.49766 0.88504 0.0
H370 H 0.52973 0.43858 0.03664 0.0
H371 H 0.52171 0.42705 0.83631 0.0
C372 C 0.48642 0.39298 0.85446 0.0
C373 C 0.46818 0.37834 0.89654 0.0
C374 C 0.54186 0.4517 0.00344 0.0
C375 C 0.51064 0.42508 0.92649 0.0
C376 C 0.56582 0.47173 0.01887 0.0
C377 C 0.58231 0.4885 0.97651 0.0
C378 C 0.53449 0.4481 0.94503 0.0
C379 C 0.57374 0.48511 0.91902 0.0
C380 C 0.5075 0.41642 0.86908 0.0
C381 C 0.47125 0.38831 0.95267 0.0
N382 N 0.55054 0.46504 0.90479 0.0
N383 N 0.49232 0.4109 0.96627 0.0
H384 H 0.23298 0.41741 0.65964 0.0
H385 H 0.18879 0.49941 0.84521 0.0
H386 H 0.25415 0.49554 0.62239 0.0
H387 H 0.15408 0.41776 0.86548 0.0
H388 H 0.21345 0.49778 0.7643 0.0
H389 H 0.20431 0.41645 0.73583 0.0
C390 C 0.23153 0.43429 0.6672 0.0
C391 C 0.24615 0.45664 0.63476 0.0
C392 C 0.20037 0.48015 0.78612 0.0
C393 C 0.21358 0.45567 0.72169 0.0
C394 C 0.18631 0.48108 0.83256 0.0
C395 C 0.1694 0.4587 0.86237 0.0
C396 C 0.19781 0.45669 0.76939 0.0
C397 C 0.1669 0.43548 0.84364 0.0
C398 C 0.21516 0.4337 0.7106 0.0
C399 C 0.24343 0.4779 0.64636 0.0
N400 N 0.18112 0.43508 0.79849 0.0
N401 N 0.22763 0.47691 0.68896 0.0
H402 H 0.72214 0.1667 0.05928 0.0
H403 H 0.76388 0.29051 0.86323 0.0
H404 H 0.69061 0.21648 0.07344 0.0
H405 H 0.8013 0.24593 0.85427 0.0
H406 H 0.73692 0.26301 0.94049 0.0
H407 H 0.75127 0.19484 0.98414 0.0
C408 C 0.72134 0.18351 0.0467 0.0
C409 C 0.70384 0.18919 0.07267 0.0
C410 C 0.75105 0.25921 0.92186 0.0
C411 C 0.73704 0.22137 -0.01306 0.0
C412 C 0.76648 0.27494 0.87757 0.0
C413 C 0.78487 0.2705 0.85201 0.0
C414 C 0.75383 0.23872 0.94088 0.0
C415 C 0.78737 0.25005 0.87273 0.0
C416 C 0.73799 0.19957 0.00389 0.0
C417 C 0.7037 0.21126 0.0547 0.0
N418 N 0.77193 0.23482 0.91588 0.0
N419 N 0.71997 0.22645 0.01298 0.0
H420 H 0.54281 0.71197 0.17974 0.0
H421 H 0.53898 0.83174 0.05789 0.0
H422 H 0.5128 0.74923 0.28639 0.0
H423 H 0.50821 0.76212 0.95893 0.0
H424 H 0.54265 0.80884 0.14238 0.0
H425 H 0.54383 0.73806 0.09708 0.0
C426 C 0.53681 0.72591 0.18587 0.0
C427 C 0.52755 0.72844 0.23959 0.0
C428 C 0.53526 0.79877 0.1019 0.0
C429 C 0.52921 0.75841 0.14632 0.0
C430 C 0.53323 0.81173 0.05396 0.0
C431 C 0.52311 0.79863 0.0019 0.0
C432 C 0.52794 0.77292 0.09666 0.0
C433 C 0.51586 0.77274 -0.00134 0.0
C434 C 0.5373 0.74061 0.13886 0.0
C435 C 0.51985 0.74663 0.24539 0.0
N436 N 0.51863 0.76073 0.04536 0.0
N437 N 0.52098 0.76111 0.19923 0.0
H438 H 0.75396 0.47076 0.38667 0.0
H439 H 0.72098 0.55247 0.16727 0.0
H440 H 0.80024 0.55275 0.37183 0.0
H441 H 0.68142 0.47009 0.17373 0.0
H442 H 0.74902 0.55374 0.24529 0.0
H443 H 0.72599 0.47096 0.31179 0.0
C444 C 0.75828 0.48887 0.36768 0.0
C445 C 0.77957 0.51178 0.38558 0.0
C446 C 0.73416 0.53543 0.22954 0.0
C447 C 0.74741 0.51213 0.29931 0.0
C448 C 0.71813 0.53468 0.18513 0.0
C449 C 0.69884 0.51113 0.16378 0.0
C450 C 0.73076 0.51247 0.2528 0.0
C451 C 0.69604 0.48869 0.18854 0.0
C452 C 0.74225 0.48896 0.32476 0.0
C453 C 0.78408 0.53462 0.35927 0.0
N454 N 0.7118 0.48994 0.2316 0.0
N455 N 0.76812 0.53422 0.31738 0.0
H456 H 0.15101 0.73041 0.34853 0.0
H457 H 0.25024 0.74951 0.59846 0.0
H458 H 0.18362 0.68213 0.37475 0.0
H459 H 0.23224 0.80796 0.55371 0.0
H460 H 0.22096 0.72213 0.52436 0.0
H461 H 0.17602 0.75669 0.43088 0.0
C462 C 0.16326 0.72524 0.37178 0.0
C463 C 0.16536 0.70414 0.35452 0.0
C464 C 0.22333 0.74092 0.53069 0.0
C465 C 0.19379 0.73393 0.44842 0.0
C466 C 0.24007 0.75662 0.57316 0.0
C467 C 0.24394 0.78123 0.58207 0.0
C468 C 0.21022 0.74975 0.49656 0.0
C469 C 0.22998 0.78918 0.54809 0.0
C470 C 0.17755 0.74027 0.41856 0.0
C471 C 0.18153 0.69832 0.38611 0.0
N472 N 0.21378 0.77351 0.50654 0.0
N473 N 0.19509 0.71312 0.43137 0.0
H474 H 0.40004 0.23746 0.71658 0.0
H475 H 0.48359 0.19646 0.52649 0.0
H476 H 0.48023 0.26539 0.74224 0.0
H477 H 0.40175 0.15896 0.5114 0.0
H478 H 0.482 0.22199 0.60548 0.0
H479 H 0.39951 0.20865 0.6412 0.0
C480 C 0.41748 0.2375 0.70656 0.0
C481 C 0.44024 0.25398 0.73566 0.0
C482 C 0.46432 0.20813 0.58521 0.0
C483 C 0.43974 0.22119 0.64969 0.0
C484 C 0.46522 0.19354 0.53987 0.0
C485 C 0.44277 0.17558 0.51203 0.0
C486 C 0.44081 0.20501 0.60293 0.0
C487 C 0.41952 0.17259 0.53168 0.0
C488 C 0.41714 0.22104 0.66363 0.0
C489 C 0.46225 0.25316 0.72096 0.0
N490 N 0.41914 0.1873 0.5758 0.0
N491 N 0.46144 0.23716 0.67899 0.0
H492 H 0.05205 0.37414 0.84188 0.0
H493 H 0.90258 0.29992 0.87929 0.0
H494 H 0.01513 0.34897 0.00791 0.0
H495 H 0.93945 0.31095 0.71352 0.0
H496 H 0.94319 0.31329 0.92725 0.0
H497 H 0.0113 0.34704 0.79418 0.0
C498 C 0.03541 0.36257 0.86834 0.0
C499 C 0.03693 0.36404 0.92901 0.0
C500 C 0.94237 0.31237 0.88041 0.0
C501 C -0.00997 0.33322 0.87456 0.0
C502 C 0.91916 0.30472 0.85296 0.0
C503 C 0.91769 0.3046 0.79227 0.0
C504 C 0.96443 0.32041 0.84699 0.0
C505 C 0.93974 0.31086 0.76039 0.0
C506 C 0.01212 0.34706 0.84103 0.0
C507 C 0.0148 0.34849 0.96105 0.0
N508 N 0.96231 0.31896 0.78811 0.0
N509 N -0.00783 0.33407 0.93344 0.0
H510 H 0.62199 0.95866 0.88221 0.0
H511 H 0.65135 0.02798 0.19106 0.0
H512 H 0.58983 0.91942 0.0433 0.0
H513 H 0.66543 0.06748 0.02764 0.0
H514 H 0.63791 -0.01192 0.13845 0.0
H515 H 0.64683 -0.00148 0.9362 0.0
C516 C 0.62044 0.95835 0.92897 0.0
C517 C 0.60359 0.93576 0.95824 0.0
C518 C 0.64431 0.00557 0.11418 0.0
C519 C 0.63193 0.98122 0.02019 0.0
C520 C 0.65214 0.02837 0.14418 0.0
C521 C 0.65924 0.05102 0.11366 0.0
C522 C 0.64378 0.00549 0.05331 0.0
C523 C 0.65983 0.05039 0.0529 0.0
C524 C 0.63455 0.98111 0.95973 0.0
C525 C 0.60237 0.93646 0.01891 0.0
N526 N 0.65198 0.02797 0.02473 0.0
N527 N 0.6162 0.95884 0.04782 0.0
H528 H 0.65083 0.62027 0.02984 0.0
H529 H 0.62397 0.6619 0.3392 0.0
H530 H 0.66616 0.59616 0.1934 0.0
H531 H 0.59128 0.66897 0.17918 0.0
H532 H 0.64829 0.64672 0.28437 0.0
H533 H 0.63793 0.64718 0.08226 0.0
C534 C 0.65201 0.62106 0.07667 0.0
C535 C 0.65931 0.60575 0.10735 0.0
C536 C 0.63602 0.6519 0.26122 0.0
C537 C 0.64449 0.63631 0.16746 0.0
C538 C 0.6222 0.66064 0.29248 0.0
C539 C 0.60533 0.66641 0.26381 0.0
C540 C 0.63306 0.64903 0.20084 0.0
C541 C 0.60386 0.66447 0.20314 0.0
C542 C 0.64449 0.63628 0.10656 0.0
C543 C 0.66039 0.60745 0.16804 0.0
N544 N 0.61737 0.65575 0.17372 0.0
N545 N 0.65286 0.62225 0.19609 0.0
H546 H 0.01294 0.6603 0.20207 0.0
H547 H 0.93862 0.62654 0.5049 0.0
H548 H 0.0491 0.67228 0.369 0.0
H549 H 0.9022 0.59701 0.34008 0.0
H550 H -0.02103 0.65323 0.45429 0.0
H551 H 0.97226 0.64691 0.25099 0.0
C552 C 0.01244 0.66064 0.24893 0.0
C553 C 0.03435 0.66709 0.28153 0.0
C554 C 0.96204 0.64121 0.42918 0.0
C555 C -0.01202 0.65176 0.33766 0.0
C556 C 0.93897 0.62608 0.45803 0.0
C557 C 0.91709 0.60927 0.42672 0.0
C558 C 0.96318 0.6396 0.36861 0.0
C559 C 0.91868 0.60947 0.366 0.0
C560 C -0.01079 0.65287 0.27683 0.0
C561 C 0.0326 0.66714 0.34218 0.0
N562 N 0.94137 0.62416 0.33898 0.0
N563 N 0.0098 0.65937 0.36826 0.0
H564 H 0.33214 0.02003 0.37181 0.0
H565 H 0.29294 0.90507 0.51349 0.0
H566 H 0.36574 0.05318 0.53681 0.0
H567 H 0.30352 0.94658 0.67246 0.0
H568 H 0.30535 0.94397 0.45891 0.0
H569 H 0.30667 0.97865 0.41948 0.0
C570 C 0.33397 0.01865 0.41814 0.0
C571 C 0.35142 0.04002 0.45016 0.0
C572 C 0.30427 0.94458 0.50556 0.0
C573 C 0.32298 -0.00748 0.50493 0.0
C574 C 0.29734 0.92229 0.53692 0.0
C575 C 0.29731 0.92256 0.59773 0.0
C576 C 0.3114 0.96747 0.53521 0.0
C577 C 0.30329 0.94547 0.62566 0.0
C578 C 0.31967 -0.0051 0.44532 0.0
C579 C 0.35282 0.03715 0.51019 0.0
N580 N 0.31048 0.96707 0.59422 0.0
N581 N 0.339 0.01385 0.53545 0.0
H582 H 0.29269 0.37992 0.6976 0.0
H583 H 0.36143 0.298 0.68142 0.0
H584 H 0.30525 0.35127 0.53745 0.0
H585 H 0.33669 0.31492 0.84198 0.0
H586 H 0.33732 0.31373 0.62814 0.0
H587 H 0.30498 0.353 0.75128 0.0
C588 C 0.29769 0.36769 0.67368 0.0
C589 C 0.29817 0.36805 0.61287 0.0
C590 C 0.3368 0.31366 0.67501 0.0
C591 C 0.31262 0.33735 0.67422 0.0
C592 C 0.35056 0.30464 0.70552 0.0
C593 C 0.35126 0.30535 0.7663 0.0
C594 C 0.32391 0.32386 0.70539 0.0
C595 C 0.33673 0.31406 0.79516 0.0
C596 C 0.30471 0.35229 0.70442 0.0
C597 C 0.30469 0.35169 0.58427 0.0
N598 N 0.32398 0.32335 0.76446 0.0
N599 N 0.31201 0.33729 0.61516 0.0
loop_
_geom_bond_atom_site_label_1
_geom_bond_atom_site_label_2
_geom_bond_distance
_geom_bond_site_symmetry_2
_ccdc_geom_bond_type
C0 O1 1.306 . S
C0 O3 1.160 . S
O1 C0 1.306 . S
O1 Cd2 2.228 1_556 S
Cd2 O1 2.228 1_554 S
Cd2 O6 2.273 . S
Cd2 O10 2.277 . S
O3 C0 1.160 . S
O3 Cd4 2.203 1_556 S
Cd4 O3 2.203 1_554 S
Cd4 O6 2.411 . S
Cd4 O7 2.333 . S
Cd4 O8 2.352 1_554 S
Cd4 O12 2.277 . S
Cd4 O13 2.356 . S
C5 O10 1.209 . S
C5 O12 1.226 . S
O6 Cd2 2.273 . S
O6 Cd4 2.411 . S
O6 C9 1.320 . S
O7 Cd4 2.333 . S
O7 C9 1.214 . S
O8 Cd4 2.352 1_556 S
O8 C11 1.258 . S
C9 O6 1.320 . S
C9 O7 1.214 . S
O10 Cd2 2.277 . S
O10 C5 1.209 . S
C11 O8 1.258 . S
C11 O13 1.282 1_556 S
O12 Cd4 2.277 . S
O12 C5 1.226 . S
O13 Cd4 2.356 . S
O13 C11 1.282 1_554 S
C14 O15 1.306 . S
C14 O17 1.160 . S
O15 C14 1.306 . S
O15 Cd16 2.228 . S
Cd16 O15 2.228 . S
Cd16 O20 2.273 . S
Cd16 O24 2.277 . S
O17 C14 1.160 . S
O17 Cd18 2.203 . S
Cd18 O17 2.203 . S
Cd18 O20 2.411 . S
Cd18 O21 2.333 . S
Cd18 O22 2.352 . S
Cd18 O26 2.277 . S
Cd18 O27 2.356 . S
C19 O24 1.209 . S
C19 O26 1.226 . S
O20 Cd16 2.273 . S
O20 Cd18 2.411 . S
O20 C23 1.320 . S
O21 Cd18 2.333 . S
O21 C23 1.214 . S
O22 Cd18 2.352 . S
O22 C25 1.258 . S
C23 O20 1.320 . S
C23 O21 1.214 . S
O24 Cd16 2.277 . S
O24 C19 1.209 . S
C25 O22 1.258 . S
C25 O27 1.282 . S
O26 Cd18 2.277 . S
O26 C19 1.226 . S
O27 Cd18 2.356 . S
O27 C25 1.282 . S
C28 O29 1.306 . S
C28 O31 1.160 . S
O29 C28 1.306 . S
O29 Cd30 2.228 . S
Cd30 O29 2.228 . S
Cd30 O34 2.273 . S
Cd30 O38 2.277 . S
O31 C28 1.160 . S
O31 Cd32 2.203 . S
Cd32 O31 2.203 . S
Cd32 O34 2.411 . S
Cd32 O35 2.333 . S
Cd32 O36 2.352 . S
Cd32 O40 2.277 . S
Cd32 O41 2.356 . S
C33 O38 1.209 . S
C33 O40 1.226 . S
O34 Cd30 2.273 . S
O34 Cd32 2.411 . S
O34 C37 1.320 . S
O35 Cd32 2.333 . S
O35 C37 1.214 . S
O36 Cd32 2.352 . S
O36 C39 1.258 . S
C37 O34 1.320 . S
C37 O35 1.214 . S
O38 Cd30 2.277 . S
O38 C33 1.209 . S
C39 O36 1.258 . S
C39 O41 1.282 . S
O40 Cd32 2.277 . S
O40 C33 1.226 . S
O41 Cd32 2.356 . S
O41 C39 1.282 . S
C42 O43 1.306 . S
C42 O45 1.160 . S
O43 C42 1.306 . S
O43 Cd44 2.228 . S
Cd44 O43 2.228 . S
Cd44 O48 2.273 . S
Cd44 O52 2.277 . S
O45 C42 1.160 . S
O45 Cd46 2.203 . S
Cd46 O45 2.203 . S
Cd46 O48 2.411 . S
Cd46 O49 2.333 . S
Cd46 O50 2.352 . S
Cd46 O54 2.277 . S
Cd46 O55 2.356 . S
C47 O52 1.209 . S
C47 O54 1.226 . S
O48 Cd44 2.273 . S
O48 Cd46 2.411 . S
O48 C51 1.320 . S
O49 Cd46 2.333 . S
O49 C51 1.214 . S
O50 Cd46 2.352 . S
O50 C53 1.258 . S
C51 O48 1.320 . S
C51 O49 1.214 . S
O52 Cd44 2.277 . S
O52 C47 1.209 . S
C53 O50 1.258 . S
C53 O55 1.282 . S
O54 Cd46 2.277 . S
O54 C47 1.226 . S
O55 Cd46 2.356 . S
O55 C53 1.282 . S
C56 O57 1.306 . S
C56 O59 1.160 . S
O57 C56 1.306 . S
O57 Cd58 2.228 . S
Cd58 O57 2.228 . S
Cd58 O62 2.273 . S
Cd58 O66 2.277 . S
O59 C56 1.160 . S
O59 Cd60 2.203 . S
Cd60 O59 2.203 . S
Cd60 O62 2.411 . S
Cd60 O63 2.333 . S
Cd60 O64 2.352 . S
Cd60 O68 2.277 . S
Cd60 O69 2.356 . S
C61 O66 1.209 . S
C61 O68 1.226 . S
O62 Cd58 2.273 . S
O62 Cd60 2.411 . S
O62 C65 1.320 . S
O63 Cd60 2.333 . S
O63 C65 1.214 . S
O64 Cd60 2.352 . S
O64 C67 1.258 . S
C65 O62 1.320 . S
C65 O63 1.214 . S
O66 Cd58 2.277 . S
O66 C61 1.209 . S
C67 O64 1.258 . S
C67 O69 1.282 . S
O68 Cd60 2.277 . S
O68 C61 1.226 . S
O69 Cd60 2.356 . S
O69 C67 1.282 . S
C70 O71 1.306 . S
C70 O73 1.160 . S
O71 C70 1.306 . S
O71 Cd72 2.228 . S
Cd72 O71 2.228 . S
Cd72 O76 2.273 . S
Cd72 O80 2.277 . S
O73 C70 1.160 . S
O73 Cd74 2.203 . S
Cd74 O73 2.203 . S
Cd74 O76 2.411 . S
Cd74 O77 2.333 . S
Cd74 O78 2.352 . S
Cd74 O82 2.277 . S
Cd74 O83 2.356 . S
C75 O80 1.209 . S
C75 O82 1.226 . S
O76 Cd72 2.273 . S
O76 Cd74 2.411 . S
O76 C79 1.320 . S
O77 Cd74 2.333 . S
O77 C79 1.214 . S
O78 Cd74 2.352 . S
O78 C81 1.258 . S
C79 O76 1.320 . S
C79 O77 1.214 . S
O80 Cd72 2.277 . S
O80 C75 1.209 . S
C81 O78 1.258 . S
C81 O83 1.282 . S
O82 Cd74 2.277 . S
O82 C75 1.226 . S
O83 Cd74 2.356 . S
O83 C81 1.282 . S
C84 O85 1.306 . S
C84 O87 1.160 . S
O85 C84 1.306 . S
O85 Cd86 2.228 . S
Cd86 O85 2.228 . S
Cd86 O90 2.273 . S
Cd86 O94 2.277 . S
O87 C84 1.160 . S
O87 Cd88 2.203 . S
Cd88 O87 2.203 . S
Cd88 O90 2.411 . S
Cd88 O91 2.333 . S
Cd88 O92 2.352 . S
Cd88 O96 2.277 . S
Cd88 O97 2.356 . S
C89 O94 1.209 . S
C89 O96 1.226 . S
O90 Cd86 2.273 . S
O90 Cd88 2.411 . S
O90 C93 1.320 . S
O91 Cd88 2.333 . S
O91 C93 1.214 . S
O92 Cd88 2.352 . S
O92 C95 1.258 . S
C93 O90 1.320 . S
C93 O91 1.214 . S
O94 Cd86 2.277 . S
O94 C89 1.209 . S
C95 O92 1.258 . S
C95 O97 1.282 . S
O96 Cd88 2.277 . S
O96 C89 1.226 . S
O97 Cd88 2.356 . S
O97 C95 1.282 . S
C98 O99 1.306 . S
C98 O101 1.160 . S
O99 C98 1.306 . S
O99 Cd100 2.228 . S
Cd100 O99 2.228 . S
Cd100 O104 2.273 . S
Cd100 O108 2.277 1_554 S
O101 C98 1.160 . S
O101 Cd102 2.203 . S
Cd102 O101 2.203 . S
Cd102 O104 2.411 . S
Cd102 O105 2.333 1_554 S
Cd102 O106 2.352 . S
Cd102 O110 2.277 1_554 S
Cd102 O111 2.356 . S
C103 O108 1.209 . S
C103 O110 1.226 . S
O104 Cd100 2.273 . S
O104 Cd102 2.411 . S
O104 C107 1.320 . S
O105 Cd102 2.333 1_556 S
O105 C107 1.214 1_556 S
O106 Cd102 2.352 . S
O106 C109 1.258 . S
C107 O104 1.320 . S
C107 O105 1.214 1_554 S
O108 Cd100 2.277 1_556 S
O108 C103 1.209 . S
C109 O106 1.258 . S
C109 O111 1.282 . S
O110 Cd102 2.277 1_556 S
O110 C103 1.226 . S
O111 Cd102 2.356 . S
O111 C109 1.282 . S
C112 O113 1.306 . S
C112 O115 1.160 . S
O113 C112 1.306 . S
O113 Cd114 2.228 . S
Cd114 O113 2.228 . S
Cd114 O118 2.273 . S
Cd114 O122 2.277 . S
O115 C112 1.160 . S
O115 Cd116 2.203 . S
Cd116 O115 2.203 . S
Cd116 O118 2.411 . S
Cd116 O119 2.333 . S
Cd116 O120 2.352 . S
Cd116 O124 2.277 . S
Cd116 O125 2.356 . S
C117 O122 1.209 . S
C117 O124 1.226 . S
O118 Cd114 2.273 . S
O118 Cd116 2.411 . S
O118 C121 1.320 . S
O119 Cd116 2.333 . S
O119 C121 1.214 . S
O120 Cd116 2.352 . S
O120 C123 1.258 . S
C121 O118 1.320 . S
C121 O119 1.214 . S
O122 Cd114 2.277 . S
O122 C117 1.209 . S
C123 O120 1.258 . S
C123 O125 1.282 . S
O124 Cd116 2.277 . S
O124 C117 1.226 . S
O125 Cd116 2.356 . S
O125 C123 1.282 . S
C126 O127 1.306 . S
C126 O129 1.160 . S
O127 C126 1.306 . S
O127 Cd128 2.228 . S
Cd128 O127 2.228 . S
Cd128 O132 2.273 . S
Cd128 O136 2.277 . S
O129 C126 1.160 . S
O129 Cd130 2.203 . S
Cd130 O129 2.203 . S
Cd130 O132 2.411 . S
Cd130 O133 2.333 . S
Cd130 O134 2.352 . S
Cd130 O138 2.277 . S
Cd130 O139 2.356 . S
C131 O136 1.209 . S
C131 O138 1.226 . S
O132 Cd128 2.273 . S
O132 Cd130 2.411 . S
O132 C135 1.320 . S
O133 Cd130 2.333 . S
O133 C135 1.214 . S
O134 Cd130 2.352 . S
O134 C137 1.258 . S
C135 O132 1.320 . S
C135 O133 1.214 . S
O136 Cd128 2.277 . S
O136 C131 1.209 . S
C137 O134 1.258 . S
C137 O139 1.282 . S
O138 Cd130 2.277 . S
O138 C131 1.226 . S
O139 Cd130 2.356 . S
O139 C137 1.282 . S
C140 O141 1.306 . S
C140 O143 1.160 . S
O141 C140 1.306 . S
O141 Cd142 2.228 . S
Cd142 O141 2.228 . S
Cd142 O146 2.273 . S
Cd142 O150 2.277 . S
O143 C140 1.160 . S
O143 Cd144 2.203 . S
Cd144 O143 2.203 . S
Cd144 O146 2.411 . S
Cd144 O147 2.333 . S
Cd144 O148 2.352 . S
Cd144 O152 2.277 . S
Cd144 O153 2.356 . S
C145 O150 1.209 . S
C145 O152 1.226 . S
O146 Cd142 2.273 . S
O146 Cd144 2.411 . S
O146 C149 1.320 . S
O147 Cd144 2.333 . S
O147 C149 1.214 . S
O148 Cd144 2.352 . S
O148 C151 1.258 . S
C149 O146 1.320 . S
C149 O147 1.214 . S
O150 Cd142 2.277 . S
O150 C145 1.209 . S
C151 O148 1.258 . S
C151 O153 1.282 . S
O152 Cd144 2.277 . S
O152 C145 1.226 . S
O153 Cd144 2.356 . S
O153 C151 1.282 . S
C154 O155 1.306 . S
C154 O157 1.160 . S
O155 C154 1.306 . S
O155 Cd156 2.228 . S
Cd156 O155 2.228 . S
Cd156 O160 2.273 . S
Cd156 O164 2.277 . S
O157 C154 1.160 . S
O157 Cd158 2.203 . S
Cd158 O157 2.203 . S
Cd158 O160 2.411 . S
Cd158 O161 2.333 . S
Cd158 O162 2.352 . S
Cd158 O166 2.277 . S
Cd158 O167 2.356 . S
C159 O164 1.209 . S
C159 O166 1.226 . S
O160 Cd156 2.273 . S
O160 Cd158 2.411 . S
O160 C163 1.320 . S
O161 Cd158 2.333 . S
O161 C163 1.214 . S
O162 Cd158 2.352 . S
O162 C165 1.258 . S
C163 O160 1.320 . S
C163 O161 1.214 . S
O164 Cd156 2.277 . S
O164 C159 1.209 . S
C165 O162 1.258 . S
C165 O167 1.282 . S
O166 Cd158 2.277 . S
O166 C159 1.226 . S
O167 Cd158 2.356 . S
O167 C165 1.282 . S
H168 C174 0.930 . S
H169 C178 0.930 . S
H170 C183 0.929 . S
H171 C181 0.929 . S
H172 C176 0.929 . S
H173 C182 0.929 . S
C174 H168 0.930 . S
C174 C175 1.367 . S
C174 C182 1.378 . S
C175 C174 1.367 . S
C175 C183 1.433 . S
C176 H172 0.929 . S
C176 C178 1.378 . S
C176 C180 1.350 . S
C177 C180 1.463 . S
C177 C182 1.350 . S
C177 N185 1.427 . S
C178 H169 0.930 . S
C178 C176 1.378 . S
C178 C179 1.367 . S
C179 C178 1.367 . S
C179 C181 1.433 . S
C180 C176 1.350 . S
C180 C177 1.463 . S
C180 N184 1.427 . S
C181 H171 0.929 . S
C181 C179 1.433 . S
C181 N184 1.384 . S
C182 H173 0.929 . S
C182 C174 1.378 . S
C182 C177 1.350 . S
C183 H170 0.929 . S
C183 C175 1.433 . S
C183 N185 1.384 . S
N184 C180 1.427 . S
N184 C181 1.384 . S
N185 C177 1.427 . S
N185 C183 1.384 . S
H186 C192 0.930 . S
H187 C196 0.930 . S
H188 C201 0.929 . S
H189 C199 0.929 . S
H190 C194 0.929 . S
H191 C200 0.929 . S
C192 H186 0.930 . S
C192 C193 1.367 . S
C192 C200 1.378 . S
C193 C192 1.367 . S
C193 C201 1.433 . S
C194 H190 0.929 . S
C194 C196 1.378 . S
C194 C198 1.350 . S
C195 C198 1.463 . S
C195 C200 1.350 . S
C195 N203 1.427 . S
C196 H187 0.930 . S
C196 C194 1.378 . S
C196 C197 1.367 . S
C197 C196 1.367 . S
C197 C199 1.433 . S
C198 C194 1.350 . S
C198 C195 1.463 . S
C198 N202 1.427 . S
C199 H189 0.929 . S
C199 C197 1.433 . S
C199 N202 1.384 . S
C200 H191 0.929 . S
C200 C192 1.378 . S
C200 C195 1.350 . S
C201 H188 0.929 . S
C201 C193 1.433 . S
C201 N203 1.384 . S
N202 C198 1.427 . S
N202 C199 1.384 . S
N203 C195 1.427 . S
N203 C201 1.384 . S
H204 C210 0.930 . S
H205 C214 0.930 . S
H206 C219 0.929 . S
H207 C217 0.929 . S
H208 C212 0.929 . S
H209 C218 0.929 . S
C210 H204 0.930 . S
C210 C211 1.367 . S
C210 C218 1.378 . S
C211 C210 1.367 . S
C211 C219 1.433 . S
C212 H208 0.929 . S
C212 C214 1.378 . S
C212 C216 1.350 . S
C213 C216 1.463 . S
C213 C218 1.350 . S
C213 N221 1.427 . S
C214 H205 0.930 . S
C214 C212 1.378 . S
C214 C215 1.367 . S
C215 C214 1.367 . S
C215 C217 1.433 . S
C216 C212 1.350 . S
C216 C213 1.463 . S
C216 N220 1.427 . S
C217 H207 0.929 . S
C217 C215 1.433 . S
C217 N220 1.384 . S
C218 H209 0.929 . S
C218 C210 1.378 . S
C218 C213 1.350 . S
C219 H206 0.929 . S
C219 C211 1.433 . S
C219 N221 1.384 . S
N220 C216 1.427 . S
N220 C217 1.384 . S
N221 C213 1.427 . S
N221 C219 1.384 . S
H222 C228 0.930 . S
H223 C232 0.930 . S
H224 C237 0.929 . S
H225 C235 0.929 . S
H226 C230 0.929 . S
H227 C236 0.929 . S
C228 H222 0.930 . S
C228 C229 1.367 . S
C228 C236 1.378 . S
C229 C228 1.367 . S
C229 C237 1.433 . S
C230 H226 0.929 . S
C230 C232 1.378 . S
C230 C234 1.350 . S
C231 C234 1.463 . S
C231 C236 1.350 . S
C231 N239 1.427 . S
C232 H223 0.930 . S
C232 C230 1.378 . S
C232 C233 1.367 . S
C233 C232 1.367 . S
C233 C235 1.433 . S
C234 C230 1.350 . S
C234 C231 1.463 . S
C234 N238 1.427 . S
C235 H225 0.929 . S
C235 C233 1.433 . S
C235 N238 1.384 . S
C236 H227 0.929 . S
C236 C228 1.378 . S
C236 C231 1.350 . S
C237 H224 0.929 . S
C237 C229 1.433 . S
C237 N239 1.384 . S
N238 C234 1.427 . S
N238 C235 1.384 . S
N239 C231 1.427 . S
N239 C237 1.384 . S
H240 C246 0.930 . S
H241 C250 0.930 . S
H242 C255 0.929 . S
H243 C253 0.929 . S
H244 C248 0.929 . S
H245 C254 0.929 . S
C246 H240 0.930 . S
C246 C247 1.367 . S
C246 C254 1.378 . S
C247 C246 1.367 . S
C247 C255 1.433 . S
C248 H244 0.929 . S
C248 C250 1.378 . S
C248 C252 1.350 1_554 S
C249 C252 1.463 . S
C249 C254 1.350 . S
C249 N257 1.427 . S
C250 H241 0.930 . S
C250 C248 1.378 . S
C250 C251 1.367 . S
C251 C250 1.367 . S
C251 C253 1.433 . S
C252 C248 1.350 1_556 S
C252 C249 1.463 . S
C252 N256 1.427 . S
C253 H243 0.929 . S
C253 C251 1.433 . S
C253 N256 1.384 1_554 S
C254 H245 0.929 . S
C254 C246 1.378 . S
C254 C249 1.350 . S
C255 H242 0.929 . S
C255 C247 1.433 . S
C255 N257 1.384 . S
N256 C252 1.427 . S
N256 C253 1.384 1_556 S
N257 C249 1.427 . S
N257 C255 1.384 . S
H258 C264 0.930 . S
H259 C268 0.930 . S
H260 C273 0.929 . S
H261 C271 0.929 . S
H262 C266 0.929 . S
H263 C272 0.929 . S
C264 H258 0.930 . S
C264 C265 1.367 . S
C264 C272 1.378 . S
C265 C264 1.367 . S
C265 C273 1.433 . S
C266 H262 0.929 . S
C266 C268 1.378 . S
C266 C270 1.350 . S
C267 C270 1.463 . S
C267 C272 1.350 . S
C267 N275 1.427 . S
C268 H259 0.930 . S
C268 C266 1.378 . S
C268 C269 1.367 . S
C269 C268 1.367 . S
C269 C271 1.433 . S
C270 C266 1.350 . S
C270 C267 1.463 . S
C270 N274 1.427 . S
C271 H261 0.929 . S
C271 C269 1.433 . S
C271 N274 1.384 . S
C272 H263 0.929 . S
C272 C264 1.378 . S
C272 C267 1.350 . S
C273 H260 0.929 . S
C273 C265 1.433 . S
C273 N275 1.384 . S
N274 C270 1.427 . S
N274 C271 1.384 . S
N275 C267 1.427 . S
N275 C273 1.384 . S
H276 C282 0.930 . S
H277 C286 0.930 . S
H278 C291 0.929 . S
H279 C289 0.929 . S
H280 C284 0.929 . S
H281 C290 0.929 . S
C282 H276 0.930 . S
C282 C283 1.367 . S
C282 C290 1.378 . S
C283 C282 1.367 . S
C283 C291 1.433 . S
C284 H280 0.929 . S
C284 C286 1.378 . S
C284 C288 1.350 . S
C285 C288 1.463 . S
C285 C290 1.350 . S
C285 N293 1.427 . S
C286 H277 0.930 . S
C286 C284 1.378 . S
C286 C287 1.367 . S
C287 C286 1.367 . S
C287 C289 1.433 . S
C288 C284 1.350 . S
C288 C285 1.463 . S
C288 N292 1.427 . S
C289 H279 0.929 . S
C289 C287 1.433 . S
C289 N292 1.384 . S
C290 H281 0.929 . S
C290 C282 1.378 . S
C290 C285 1.350 . S
C291 H278 0.929 . S
C291 C283 1.433 . S
C291 N293 1.384 . S
N292 C288 1.427 . S
N292 C289 1.384 . S
N293 C285 1.427 . S
N293 C291 1.384 . S
H294 C300 0.930 . S
H295 C304 0.930 . S
H296 C309 0.929 . S
H297 C307 0.929 . S
H298 C302 0.929 . S
H299 C308 0.929 . S
C300 H294 0.930 . S
C300 C301 1.367 . S
C300 C308 1.378 . S
C301 C300 1.367 . S
C301 C309 1.433 . S
C302 H298 0.929 . S
C302 C304 1.378 . S
C302 C306 1.350 . S
C303 C306 1.463 . S
C303 C308 1.350 . S
C303 N311 1.427 . S
C304 H295 0.930 . S
C304 C302 1.378 . S
C304 C305 1.367 . S
C305 C304 1.367 . S
C305 C307 1.433 . S
C306 C302 1.350 . S
C306 C303 1.463 . S
C306 N310 1.427 . S
C307 H297 0.929 . S
C307 C305 1.433 . S
C307 N310 1.384 . S
C308 H299 0.929 . S
C308 C300 1.378 . S
C308 C303 1.350 . S
C309 H296 0.929 . S
C309 C301 1.433 . S
C309 N311 1.384 . S
N310 C306 1.427 . S
N310 C307 1.384 . S
N311 C303 1.427 . S
N311 C309 1.384 . S
H312 C318 0.930 . S
H313 C322 0.930 . S
H314 C327 0.929 . S
H315 C325 0.929 . S
H316 C320 0.929 . S
H317 C326 0.929 . S
C318 H312 0.930 . S
C318 C319 1.367 . S
C318 C326 1.378 . S
C319 C318 1.367 . S
C319 C327 1.433 . S
C320 H316 0.929 . S
C320 C322 1.378 . S
C320 C324 1.350 . S
C321 C324 1.463 . S
C321 C326 1.350 . S
C321 N329 1.427 . S
C322 H313 0.930 . S
C322 C320 1.378 . S
C322 C323 1.367 . S
C323 C322 1.367 . S
C323 C325 1.433 . S
C324 C320 1.350 . S
C324 C321 1.463 . S
C324 N328 1.427 . S
C325 H315 0.929 . S
C325 C323 1.433 . S
C325 N328 1.384 . S
C326 H317 0.929 . S
C326 C318 1.378 . S
C326 C321 1.350 . S
C327 H314 0.929 . S
C327 C319 1.433 . S
C327 N329 1.384 . S
N328 C324 1.427 . S
N328 C325 1.384 . S
N329 C321 1.427 . S
N329 C327 1.384 . S
H330 C336 0.930 . S
H331 C340 0.930 . S
H332 C345 0.929 . S
H333 C343 0.929 . S
H334 C338 0.929 . S
H335 C344 0.929 . S
C336 H330 0.930 . S
C336 C337 1.367 . S
C336 C344 1.378 . S
C337 C336 1.367 . S
C337 C345 1.433 . S
C338 H334 0.929 . S
C338 C340 1.378 . S
C338 C342 1.350 . S
C339 C342 1.463 . S
C339 C344 1.350 . S
C339 N347 1.427 . S
C340 H331 0.930 . S
C340 C338 1.378 . S
C340 C341 1.367 . S
C341 C340 1.367 . S
C341 C343 1.433 . S
C342 C338 1.350 . S
C342 C339 1.463 . S
C342 N346 1.427 . S
C343 H333 0.929 . S
C343 C341 1.433 . S
C343 N346 1.384 . S
C344 H335 0.929 . S
C344 C336 1.378 . S
C344 C339 1.350 . S
C345 H332 0.929 . S
C345 C337 1.433 . S
C345 N347 1.384 . S
N346 C342 1.427 . S
N346 C343 1.384 . S
N347 C339 1.427 . S
N347 C345 1.384 . S
H348 C354 0.930 . S
H349 C358 0.930 . S
H350 C363 0.929 . S
H351 C361 0.929 . S
H352 C356 0.929 . S
H353 C362 0.929 . S
C354 H348 0.930 . S
C354 C355 1.367 . S
C354 C362 1.378 . S
C355 C354 1.367 . S
C355 C363 1.433 . S
C356 H352 0.929 . S
C356 C358 1.378 . S
C356 C360 1.350 . S
C357 C360 1.463 . S
C357 C362 1.350 . S
C357 N365 1.427 . S
C358 H349 0.930 . S
C358 C356 1.378 . S
C358 C359 1.367 . S
C359 C358 1.367 . S
C359 C361 1.433 . S
C360 C356 1.350 . S
C360 C357 1.463 . S
C360 N364 1.427 . S
C361 H351 0.929 . S
C361 C359 1.433 . S
C361 N364 1.384 . S
C362 H353 0.929 . S
C362 C354 1.378 . S
C362 C357 1.350 . S
C363 H350 0.929 . S
C363 C355 1.433 . S
C363 N365 1.384 . S
N364 C360 1.427 . S
N364 C361 1.384 . S
N365 C357 1.427 . S
N365 C363 1.384 . S
H366 C372 0.930 . S
H367 C376 0.930 . S
H368 C381 0.929 1_554 S
H369 C379 0.929 . S
H370 C374 0.929 . S
H371 C380 0.929 . S
C372 H366 0.930 . S
C372 C373 1.367 . S
C372 C380 1.378 . S
C373 C372 1.367 . S
C373 C381 1.433 . S
C374 H370 0.929 . S
C374 C376 1.378 . S
C374 C378 1.350 1_554 S
C375 C378 1.463 . S
C375 C380 1.350 . S
C375 N383 1.427 . S
C376 H367 0.930 . S
C376 C374 1.378 . S
C376 C377 1.367 1_554 S
C377 C376 1.367 1_556 S
C377 C379 1.433 . S
C378 C374 1.350 1_556 S
C378 C375 1.463 . S
C378 N382 1.427 . S
C379 H369 0.929 . S
C379 C377 1.433 . S
C379 N382 1.384 . S
C380 H371 0.929 . S
C380 C372 1.378 . S
C380 C375 1.350 . S
C381 H368 0.929 1_556 S
C381 C373 1.433 . S
C381 N383 1.384 . S
N382 C378 1.427 . S
N382 C379 1.384 . S
N383 C375 1.427 . S
N383 C381 1.384 . S
H384 C390 0.930 . S
H385 C394 0.930 . S
H386 C399 0.929 . S
H387 C397 0.929 . S
H388 C392 0.929 . S
H389 C398 0.929 . S
C390 H384 0.930 . S
C390 C391 1.367 . S
C390 C398 1.378 . S
C391 C390 1.367 . S
C391 C399 1.433 . S
C392 H388 0.929 . S
C392 C394 1.378 . S
C392 C396 1.350 . S
C393 C396 1.463 . S
C393 C398 1.350 . S
C393 N401 1.427 . S
C394 H385 0.930 . S
C394 C392 1.378 . S
C394 C395 1.367 . S
C395 C394 1.367 . S
C395 C397 1.433 . S
C396 C392 1.350 . S
C396 C393 1.463 . S
C396 N400 1.427 . S
C397 H387 0.929 . S
C397 C395 1.433 . S
C397 N400 1.384 . S
C398 H389 0.929 . S
C398 C390 1.378 . S
C398 C393 1.350 . S
C399 H386 0.929 . S
C399 C391 1.433 . S
C399 N401 1.384 . S
N400 C396 1.427 . S
N400 C397 1.384 . S
N401 C393 1.427 . S
N401 C399 1.384 . S
H402 C408 0.930 . S
H403 C412 0.930 . S
H404 C417 0.929 . S
H405 C415 0.929 . S
H406 C410 0.929 . S
H407 C416 0.929 . S
C408 H402 0.930 . S
C408 C409 1.367 . S
C408 C416 1.378 . S
C409 C408 1.367 . S
C409 C417 1.433 . S
C410 H406 0.929 . S
C410 C412 1.378 . S
C410 C414 1.350 . S
C411 C414 1.463 . S
C411 C416 1.350 1_556 S
C411 N419 1.427 . S
C412 H403 0.930 . S
C412 C410 1.378 . S
C412 C413 1.367 . S
C413 C412 1.367 . S
C413 C415 1.433 . S
C414 C410 1.350 . S
C414 C411 1.463 . S
C414 N418 1.427 . S
C415 H405 0.929 . S
C415 C413 1.433 . S
C415 N418 1.384 . S
C416 H407 0.929 . S
C416 C408 1.378 . S
C416 C411 1.350 1_554 S
C417 H404 0.929 . S
C417 C409 1.433 . S
C417 N419 1.384 1_554 S
N418 C414 1.427 . S
N418 C415 1.384 . S
N419 C411 1.427 . S
N419 C417 1.384 1_556 S
H420 C426 0.930 . S
H421 C430 0.930 . S
H422 C435 0.929 . S
H423 C433 0.929 1_556 S
H424 C428 0.929 . S
H425 C434 0.929 . S
C426 H420 0.930 . S
C426 C427 1.367 . S
C426 C434 1.378 . S
C427 C426 1.367 . S
C427 C435 1.433 . S
C428 H424 0.929 . S
C428 C430 1.378 . S
C428 C432 1.350 . S
C429 C432 1.463 . S
C429 C434 1.350 . S
C429 N437 1.427 . S
C430 H421 0.930 . S
C430 C428 1.378 . S
C430 C431 1.367 . S
C431 C430 1.367 . S
C431 C433 1.433 . S
C432 C428 1.350 . S
C432 C429 1.463 . S
C432 N436 1.427 . S
C433 H423 0.929 1_554 S
C433 C431 1.433 . S
C433 N436 1.384 . S
C434 H425 0.929 . S
C434 C426 1.378 . S
C434 C429 1.350 . S
C435 H422 0.929 . S
C435 C427 1.433 . S
C435 N437 1.384 . S
N436 C432 1.427 . S
N436 C433 1.384 . S
N437 C429 1.427 . S
N437 C435 1.384 . S
H438 C444 0.930 . S
H439 C448 0.930 . S
H440 C453 0.929 . S
H441 C451 0.929 . S
H442 C446 0.929 . S
H443 C452 0.929 . S
C444 H438 0.930 . S
C444 C445 1.367 . S
C444 C452 1.378 . S
C445 C444 1.367 . S
C445 C453 1.433 . S
C446 H442 0.929 . S
C446 C448 1.378 . S
C446 C450 1.350 . S
C447 C450 1.463 . S
C447 C452 1.350 . S
C447 N455 1.427 . S
C448 H439 0.930 . S
C448 C446 1.378 . S
C448 C449 1.367 . S
C449 C448 1.367 . S
C449 C451 1.433 . S
C450 C446 1.350 . S
C450 C447 1.463 . S
C450 N454 1.427 . S
C451 H441 0.929 . S
C451 C449 1.433 . S
C451 N454 1.384 . S
C452 H443 0.929 . S
C452 C444 1.378 . S
C452 C447 1.350 . S
C453 H440 0.929 . S
C453 C445 1.433 . S
C453 N455 1.384 . S
N454 C450 1.427 . S
N454 C451 1.384 . S
N455 C447 1.427 . S
N455 C453 1.384 . S
H456 C462 0.930 . S
H457 C466 0.930 . S
H458 C471 0.929 . S
H459 C469 0.929 . S
H460 C464 0.929 . S
H461 C470 0.929 . S
C462 H456 0.930 . S
C462 C463 1.367 . S
C462 C470 1.378 . S
C463 C462 1.367 . S
C463 C471 1.433 . S
C464 H460 0.929 . S
C464 C466 1.378 . S
C464 C468 1.350 . S
C465 C468 1.463 . S
C465 C470 1.350 . S
C465 N473 1.427 . S
C466 H457 0.930 . S
C466 C464 1.378 . S
C466 C467 1.367 . S
C467 C466 1.367 . S
C467 C469 1.433 . S
C468 C464 1.350 . S
C468 C465 1.463 . S
C468 N472 1.427 . S
C469 H459 0.929 . S
C469 C467 1.433 . S
C469 N472 1.384 . S
C470 H461 0.929 . S
C470 C462 1.378 . S
C470 C465 1.350 . S
C471 H458 0.929 . S
C471 C463 1.433 . S
C471 N473 1.384 . S
N472 C468 1.427 . S
N472 C469 1.384 . S
N473 C465 1.427 . S
N473 C471 1.384 . S
H474 C480 0.930 . S
H475 C484 0.930 . S
H476 C489 0.929 . S
H477 C487 0.929 . S
H478 C482 0.929 . S
H479 C488 0.929 . S
C480 H474 0.930 . S
C480 C481 1.367 . S
C480 C488 1.378 . S
C481 C480 1.367 . S
C481 C489 1.433 . S
C482 H478 0.929 . S
C482 C484 1.378 . S
C482 C486 1.350 . S
C483 C486 1.463 . S
C483 C488 1.350 . S
C483 N491 1.427 . S
C484 H475 0.930 . S
C484 C482 1.378 . S
C484 C485 1.367 . S
C485 C484 1.367 . S
C485 C487 1.433 . S
C486 C482 1.350 . S
C486 C483 1.463 . S
C486 N490 1.427 . S
C487 H477 0.929 . S
C487 C485 1.433 . S
C487 N490 1.384 . S
C488 H479 0.929 . S
C488 C480 1.378 . S
C488 C483 1.350 . S
C489 H476 0.929 . S
C489 C481 1.433 . S
C489 N491 1.384 . S
N490 C486 1.427 . S
N490 C487 1.384 . S
N491 C483 1.427 . S
N491 C489 1.384 . S
H492 C498 0.930 . S
H493 C502 0.930 . S
H494 C507 0.929 1_554 S
H495 C505 0.929 . S
H496 C500 0.929 . S
H497 C506 0.929 . S
C498 H492 0.930 . S
C498 C499 1.367 . S
C498 C506 1.378 . S
C499 C498 1.367 . S
C499 C507 1.433 . S
C500 H496 0.929 . S
C500 C502 1.378 . S
C500 C504 1.350 . S
C501 C504 1.463 1_455 S
C501 C506 1.350 . S
C501 N509 1.427 . S
C502 H493 0.930 . S
C502 C500 1.378 . S
C502 C503 1.367 . S
C503 C502 1.367 . S
C503 C505 1.433 . S
C504 C500 1.350 . S
C504 C501 1.463 1_655 S
C504 N508 1.427 . S
C505 H495 0.929 . S
C505 C503 1.433 . S
C505 N508 1.384 . S
C506 H497 0.929 . S
C506 C498 1.378 . S
C506 C501 1.350 . S
C507 H494 0.929 1_556 S
C507 C499 1.433 . S
C507 N509 1.384 . S
N508 C504 1.427 . S
N508 C505 1.384 . S
N509 C501 1.427 . S
N509 C507 1.384 . S
H510 C516 0.930 . S
H511 C520 0.930 . S
H512 C525 0.929 . S
H513 C523 0.929 . S
H514 C518 0.929 1_565 S
H515 C524 0.929 1_545 S
C516 H510 0.930 . S
C516 C517 1.367 . S
C516 C524 1.378 . S
C517 C516 1.367 . S
C517 C525 1.433 1_556 S
C518 H514 0.929 1_545 S
C518 C520 1.378 . S
C518 C522 1.350 . S
C519 C522 1.463 1_565 S
C519 C524 1.350 1_554 S
C519 N527 1.427 . S
C520 H511 0.930 . S
C520 C518 1.378 . S
C520 C521 1.367 . S
C521 C520 1.367 . S
C521 C523 1.433 . S
C522 C518 1.350 . S
C522 C519 1.463 1_545 S
C522 N526 1.427 . S
C523 H513 0.929 . S
C523 C521 1.433 . S
C523 N526 1.384 . S
C524 H515 0.929 1_565 S
C524 C516 1.378 . S
C524 C519 1.350 1_556 S
C525 H512 0.929 . S
C525 C517 1.433 1_554 S
C525 N527 1.384 . S
N526 C522 1.427 . S
N526 C523 1.384 . S
N527 C519 1.427 . S
N527 C525 1.384 . S
H528 C534 0.930 . S
H529 C538 0.930 . S
H530 C543 0.929 . S
H531 C541 0.929 . S
H532 C536 0.929 . S
H533 C542 0.929 . S
C534 H528 0.930 . S
C534 C535 1.367 . S
C534 C542 1.378 . S
C535 C534 1.367 . S
C535 C543 1.433 . S
C536 H532 0.929 . S
C536 C538 1.378 . S
C536 C540 1.350 . S
C537 C540 1.463 . S
C537 C542 1.350 . S
C537 N545 1.427 . S
C538 H529 0.930 . S
C538 C536 1.378 . S
C538 C539 1.367 . S
C539 C538 1.367 . S
C539 C541 1.433 . S
C540 C536 1.350 . S
C540 C537 1.463 . S
C540 N544 1.427 . S
C541 H531 0.929 . S
C541 C539 1.433 . S
C541 N544 1.384 . S
C542 H533 0.929 . S
C542 C534 1.378 . S
C542 C537 1.350 . S
C543 H530 0.929 . S
C543 C535 1.433 . S
C543 N545 1.384 . S
N544 C540 1.427 . S
N544 C541 1.384 . S
N545 C537 1.427 . S
N545 C543 1.384 . S
H546 C552 0.930 . S
H547 C556 0.930 . S
H548 C561 0.929 . S
H549 C559 0.929 . S
H550 C554 0.929 . S
H551 C560 0.929 . S
C552 H546 0.930 . S
C552 C553 1.367 . S
C552 C560 1.378 . S
C553 C552 1.367 . S
C553 C561 1.433 . S
C554 H550 0.929 . S
C554 C556 1.378 . S
C554 C558 1.350 . S
C555 C558 1.463 1_455 S
C555 C560 1.350 . S
C555 N563 1.427 . S
C556 H547 0.930 . S
C556 C554 1.378 . S
C556 C557 1.367 . S
C557 C556 1.367 . S
C557 C559 1.433 . S
C558 C554 1.350 . S
C558 C555 1.463 1_655 S
C558 N562 1.427 . S
C559 H549 0.929 . S
C559 C557 1.433 . S
C559 N562 1.384 . S
C560 H551 0.929 . S
C560 C552 1.378 . S
C560 C555 1.350 . S
C561 H548 0.929 . S
C561 C553 1.433 . S
C561 N563 1.384 . S
N562 C558 1.427 . S
N562 C559 1.384 . S
N563 C555 1.427 . S
N563 C561 1.384 . S
H564 C570 0.930 . S
H565 C574 0.930 . S
H566 C579 0.929 . S
H567 C577 0.929 . S
H568 C572 0.929 . S
H569 C578 0.929 . S
C570 H564 0.930 . S
C570 C571 1.367 . S
C570 C578 1.378 . S
C571 C570 1.367 . S
C571 C579 1.433 . S
C572 H568 0.929 . S
C572 C574 1.378 . S
C572 C576 1.350 . S
C573 C576 1.463 1_545 S
C573 C578 1.350 . S
C573 N581 1.427 . S
C574 H565 0.930 . S
C574 C572 1.378 . S
C574 C575 1.367 . S
C575 C574 1.367 . S
C575 C577 1.433 . S
C576 C572 1.350 . S
C576 C573 1.463 1_565 S
C576 N580 1.427 . S
C577 H567 0.929 . S
C577 C575 1.433 . S
C577 N580 1.384 . S
C578 H569 0.929 . S
C578 C570 1.378 . S
C578 C573 1.350 . S
C579 H566 0.929 . S
C579 C571 1.433 . S
C579 N581 1.384 . S
N580 C576 1.427 . S
N580 C577 1.384 . S
N581 C573 1.427 . S
N581 C579 1.384 . S
H582 C588 0.930 . S
H583 C592 0.930 . S
H584 C597 0.929 . S
H585 C595 0.929 . S
H586 C590 0.929 . S
H587 C596 0.929 . S
C588 H582 0.930 . S
C588 C589 1.367 . S
C588 C596 1.378 . S
C589 C588 1.367 . S
C589 C597 1.433 . S
C590 H586 0.929 . S
C590 C592 1.378 . S
C590 C594 1.350 . S
C591 C594 1.463 . S
C591 C596 1.350 . S
C591 N599 1.427 . S
C592 H583 0.930 . S
C592 C590 1.378 . S
C592 C593 1.367 . S
C593 C592 1.367 . S
C593 C595 1.433 . S
C594 C590 1.350 . S
C594 C591 1.463 . S
C594 N598 1.427 . S
C595 H585 0.929 . S
C595 C593 1.433 . S
C595 N598 1.384 . S
C596 H587 0.929 . S
C596 C588 1.378 . S
C596 C591 1.350 . S
C597 H584 0.929 . S
C597 C589 1.433 . S
C597 N599 1.384 . S
N598 C594 1.427 . S
N598 C595 1.384 . S
N599 C591 1.427 . S
N599 C597 1.384 . S
C175 C5 1.522 . S
C179 C145 1.518 . S
C193 C159 1.517 . S
C197 C19 1.521 . S
C211 C33 1.519 . S
C215 C89 1.517 . S
C229 C47 1.519 . S
C233 C103 1.523 . S
C247 C61 1.520 . S
C251 C117 1.517 . S
C265 C131 1.522 . S
C269 C75 1.518 1_554 S
C283 C9 1.599 . S
C287 C121 1.596 . S
C301 C23 1.597 . S
C305 C135 1.598 . S
C319 C149 1.598 . S
C323 C37 1.595 . S
C337 C51 1.596 . S
C341 C163 1.597 . S
C355 C65 1.599 . S
C359 C93 1.596 . S
C373 C79 1.596 . S
C377 C107 1.597 1_556 S
C391 C140 1.284 . S
C395 C0 1.278 . S
C409 C14 1.283 . S
C413 C154 1.278 . S
C427 C28 1.284 . S
C431 C84 1.280 1_554 S
C445 C42 1.277 . S
C449 C98 1.283 . S
C463 C112 1.282 . S
C467 C56 1.278 . S
C481 C70 1.284 . S
C485 C126 1.278 . S
C499 C11 1.409 . S
C503 C165 1.411 . S
C517 C95 1.411 . S
C521 C25 1.413 . S
C535 C109 1.413 . S
C539 C39 1.412 . S
C553 C123 1.411 . S
C557 C53 1.413 . S
C571 C137 1.413 . S
C575 C67 1.410 . S
C589 C151 1.409 . S
C593 C81 1.411 . S
