# Generated by pormake.
# Topology lcy-e, (6)-cn, num edge types: 1
# Building blocks:
#     Node 0, Type 0, BuildingBlock: CUKXOW_clean_sbu_0, # of connection points: 6
#     Node 1, Type 0, BuildingBlock: CUKXOW_clean_sbu_0, # of connection points: 6
#     Node 2, Type 0, BuildingBlock: CUKXOW_clean_sbu_0, # of connection points: 6
#     Node 3, Type 0, BuildingBlock: CUKXOW_clean_sbu_0, # of connection points: 6
#     Node 4, Type 0, BuildingBlock: CUKXOW_clean_sbu_0, # of connection points: 6
#     Node 5, Type 0, BuildingBlock: CUKXOW_clean_sbu_0, # of connection points: 6
#     Node 6, Type 0, BuildingBlock: CUKXOW_clean_sbu_0, # of connection points: 6
#     Node 7, Type 0, BuildingBlock: CUKXOW_clean_sbu_0, # of connection points: 6
#     Node 8, Type 0, BuildingBlock: CUKXOW_clean_sbu_0, # of connection points: 6
#     Node 9, Type 0, BuildingBlock: CUKXOW_clean_sbu_0, # of connection points: 6
#     Node 10, Type 0, BuildingBlock: CUKXOW_clean_sbu_0, # of connection points: 6
#     Node 11, Type 0, BuildingBlock: CUKXOW_clean_sbu_0, # of connection points: 6
#     Edge 12, Type (0, 0), BuildingBlock: CIFDUS_clean_linker_0, # of connection points: 2
#     Edge 13, Type (0, 0), BuildingBlock: CIFDUS_clean_linker_0, # of connection points: 2
#     Edge 14, Type (0, 0), BuildingBlock: CIFDUS_clean_linker_0, # of connection points: 2
#     Edge 15, Type (0, 0), BuildingBlock: CIFDUS_clean_linker_0, # of connection points: 2
#     Edge 16, Type (0, 0), BuildingBlock: CIFDUS_clean_linker_0, # of connection points: 2
#     Edge 17, Type (0, 0), BuildingBlock: CIFDUS_clean_linker_0, # of connection points: 2
#     Edge 18, Type (0, 0), BuildingBlock: CIFDUS_clean_linker_0, # of connection points: 2
#     Edge 19, Type (0, 0), BuildingBlock: CIFDUS_clean_linker_0, # of connection points: 2
#     Edge 20, Type (0, 0), BuildingBlock: CIFDUS_clean_linker_0, # of connection points: 2
#     Edge 21, Type (0, 0), BuildingBlock: CIFDUS_clean_linker_0, # of connection points: 2
#     Edge 22, Type (0, 0), BuildingBlock: CIFDUS_clean_linker_0, # of connection points: 2
#     Edge 23, Type (0, 0), BuildingBlock: CIFDUS_clean_linker_0, # of connection points: 2
#     Edge 24, Type (0, 0), BuildingBlock: CIFDUS_clean_linker_0, # of connection points: 2
#     Edge 25, Type (0, 0), BuildingBlock: CIFDUS_clean_linker_0, # of connection points: 2
#     Edge 26, Type (0, 0), BuildingBlock: CIFDUS_clean_linker_0, # of connection points: 2
#     Edge 27, Type (0, 0), BuildingBlock: CIFDUS_clean_linker_0, # of connection points: 2
#     Edge 28, Type (0, 0), BuildingBlock: CIFDUS_clean_linker_0, # of connection points: 2
#     Edge 29, Type (0, 0), BuildingBlock: CIFDUS_clean_linker_0, # of connection points: 2
#     Edge 30, Type (0, 0), BuildingBlock: CIFDUS_clean_linker_0, # of connection points: 2
#     Edge 31, Type (0, 0), BuildingBlock: CIFDUS_clean_linker_0, # of connection points: 2
#     Edge 32, Type (0, 0), BuildingBlock: CIFDUS_clean_linker_0, # of connection points: 2
#     Edge 33, Type (0, 0), BuildingBlock: CIFDUS_clean_linker_0, # of connection points: 2
#     Edge 34, Type (0, 0), BuildingBlock: CIFDUS_clean_linker_0, # of connection points: 2
#     Edge 35, Type (0, 0), BuildingBlock: CIFDUS_clean_linker_0, # of connection points: 2
#     Edge 36, Type (0, 0), BuildingBlock: CIFDUS_clean_linker_0, # of connection points: 2
#     Edge 37, Type (0, 0), BuildingBlock: CIFDUS_clean_linker_0, # of connection points: 2
#     Edge 38, Type (0, 0), BuildingBlock: CIFDUS_clean_linker_0, # of connection points: 2
#     Edge 39, Type (0, 0), BuildingBlock: CIFDUS_clean_linker_0, # of connection points: 2
#     Edge 40, Type (0, 0), BuildingBlock: CIFDUS_clean_linker_0, # of connection points: 2
#     Edge 41, Type (0, 0), BuildingBlock: CIFDUS_clean_linker_0, # of connection points: 2
#     Edge 42, Type (0, 0), BuildingBlock: CIFDUS_clean_linker_0, # of connection points: 2
#     Edge 43, Type (0, 0), BuildingBlock: CIFDUS_clean_linker_0, # of connection points: 2
#     Edge 44, Type (0, 0), BuildingBlock: CIFDUS_clean_linker_0, # of connection points: 2
#     Edge 45, Type (0, 0), BuildingBlock: CIFDUS_clean_linker_0, # of connection points: 2
#     Edge 46, Type (0, 0), BuildingBlock: CIFDUS_clean_linker_0, # of connection points: 2
#     Edge 47, Type (0, 0), BuildingBlock: CIFDUS_clean_linker_0, # of connection points: 2
# Relax obj value: 0.165
# Max RMSD: 0.262
# Mean RMSD: 0.229
data_MOF--net-lcy-e--node1-CUKXOW_clean_sbu_0--edge1-CIFDUS_clean_linker_0
_symmetry_space_group_name_H-M    P1
_symmetry_Int_Tables_number       1
_symmetry_cell_setting            triclinic
loop_
_symmetry_equiv_pos_as_xyz
'x, y, z'
_cell_length_a     30.683949
_cell_length_b     33.111168
_cell_length_c     33.360453
_cell_angle_alpha  89.945959
_cell_angle_beta   91.332738
_cell_angle_gamma 88.52659
loop_
_atom_site_label
_atom_site_type_symbol
_atom_site_fract_x
_atom_site_fract_y
_atom_site_fract_z
_atom_type_partial_charge
Tb0 Tb 0.16523 0.19463 0.4215 0.0
C1 C 0.07787 0.14627 0.3985 0.0
Tb2 Tb 0.07917 0.21064 0.4665 0.0
O3 O 0.19199 0.15904 0.47365 0.0
O4 O 0.12642 0.16435 0.46172 0.0
O5 O 0.11724 0.15778 0.3871 0.0
C6 C 0.02556 0.20864 0.52741 0.0
O7 O 0.05919 0.15954 0.43157 0.0
C8 C 0.08455 0.24645 0.39784 0.0
C9 C 0.15888 0.26941 0.48188 0.0
O10 O 0.01915 0.23031 0.49513 0.0
O11 O 0.06225 0.18859 0.52528 0.0
O12 O 0.04723 0.23828 0.41354 0.0
O13 O 0.11514 0.23914 0.42274 0.0
O14 O 0.12309 0.25317 0.49605 0.0
O15 O 0.17875 0.25396 0.4498 0.0
C16 C 0.22507 0.18471 0.36488 0.0
O17 O 0.23351 0.18868 0.403 0.0
O18 O 0.18319 0.18638 0.35886 0.0
C19 C 0.15367 0.15144 0.48709 0.0
Tb20 Tb 0.1049 0.92387 0.70542 0.0
C21 C 0.13129 0.83254 0.69077 0.0
Tb22 Tb 0.07118 0.86108 0.76142 0.0
O23 O 0.17084 0.9123 0.72884 0.0
O24 O 0.11779 0.90742 0.76656 0.0
O25 O 0.12445 0.86842 0.6732 0.0
C26 C 0.06325 0.80562 0.81873 0.0
O27 O 0.11816 0.82498 0.72754 0.0
C28 C 0.01927 0.88034 0.70013 0.0
C29 C 0.03334 0.9482 0.77076 0.0
O30 O 0.0417 0.80654 0.7848 0.0
O31 O 0.08918 0.83585 0.82026 0.0
O32 O 1.00514 0.86864 0.73458 0.0
O33 O 0.06011 0.87728 0.70065 0.0
O34 O 0.04279 0.91381 0.78963 0.0
O35 O 0.05096 0.95737 0.73576 0.0
C36 C 0.12432 0.98366 0.65547 0.0
O37 O 0.09356 0.95797 0.64939 0.0
O38 O 0.14351 0.97593 0.68961 0.0
C39 C 0.15881 0.9029 0.76449 0.0
Tb40 Tb 0.44585 0.82888 0.96522 0.0
C41 C 0.35192 0.85302 0.92184 0.0
Tb42 Tb 0.36069 0.79604 0.99559 0.0
O43 O 0.46306 0.77128 0.9362 0.0
O44 O 0.39866 0.78847 0.94326 0.0
O45 O 0.39501 0.8592 0.92494 0.0
C46 C 0.29905 0.74319 1.00749 0.0
O47 O 0.33221 0.82684 0.94465 0.0
C48 C 0.38115 0.86804 0.02085 0.0
C49 C 0.44704 0.77671 0.04721 0.0
O50 O 0.30242 0.77726 0.02657 0.0
O51 O 0.3306 0.73889 0.98255 0.0
O52 O 0.3409 0.85658 0.01739 0.0
O53 O 0.40631 0.8384 1.01446 0.0
O54 O 0.40685 0.76577 0.03741 0.0
O55 O 0.46779 0.80369 0.02498 0.0
C56 C 0.50486 0.88417 0.94655 0.0
O57 O 0.51281 0.84543 0.94911 0.0
O58 O 0.46409 0.89109 0.95393 0.0
C59 C 0.42295 0.75983 0.93149 0.0
Tb60 Tb 0.45624 0.14166 0.14591 0.0
C61 C 0.43241 0.23589 0.14091 0.0
Tb62 Tb 0.49991 0.19871 0.20453 0.0
O63 O 0.42205 0.11303 0.19516 0.0
O64 O 0.4381 0.17283 0.19871 0.0
O65 O 0.42766 0.19952 0.12429 0.0
C66 C 0.51713 0.24202 0.27029 0.0
O67 O 0.45866 0.24264 0.17234 0.0
C68 C 0.5491 0.17493 0.14454 0.0
C69 C 0.52308 0.10701 0.20976 0.0
O70 O 0.53235 0.24903 0.23485 0.0
O71 O 0.4917 0.21145 0.26813 0.0
O72 O 0.56387 0.18393 0.18012 0.0
O73 O 0.50851 0.1824 0.14279 0.0
O74 O 0.51566 0.14007 0.23079 0.0
O75 O 0.50874 0.10338 0.17226 0.0
C76 C 0.42834 0.09325 0.08703 0.0
O77 O 0.46883 0.09938 0.09692 0.0
O78 O 0.40368 0.11612 0.10909 0.0
C79 C 0.42309 0.14427 0.21841 0.0
Tb80 Tb 0.6115 0.34468 0.57011 0.0
C81 C 0.70712 0.37278 0.5988 0.0
Tb82 Tb 0.69247 0.3148 0.52629 0.0
O83 O 0.6043 0.284 0.59474 0.0
O84 O 0.66532 0.3055 0.58351 0.0
O85 O 0.66413 0.38114 0.5978 0.0
C86 C 0.74511 0.25454 0.50073 0.0
O87 O 0.72546 0.34502 0.57532 0.0
C88 C 0.65958 0.38549 0.50204 0.0
C89 C 0.59753 0.29208 0.49234 0.0
O90 O 0.74236 0.2908 0.48533 0.0
O91 O 0.71956 0.25318 0.53106 0.0
O92 O 0.70073 0.37498 0.49851 0.0
O93 O 0.63983 0.35525 0.51447 0.0
O94 O 0.64033 0.28535 0.49233 0.0
O95 O 0.57842 0.31593 0.51905 0.0
C96 C 0.54419 0.38499 0.60208 0.0
O97 O 0.56127 0.39307 0.56788 0.0
O98 O 0.56574 0.35504 0.61872 0.0
C99 C 0.64585 0.27527 0.59648 0.0
Tb100 Tb 0.92296 0.43401 0.84259 0.0
C101 C 0.88907 0.34245 0.84561 0.0
Tb102 Tb 0.96083 0.36848 0.7843 0.0
O103 O 0.85983 0.43821 0.81024 0.0
O104 O 0.91632 0.41859 0.78166 0.0
O105 O 0.89159 0.37816 0.86456 0.0
C106 C 0.96328 0.32578 0.71767 0.0
O107 O 0.90956 0.33455 0.81179 0.0
C108 C 1.00459 0.37771 0.85163 0.0
C109 C 1.00883 0.45073 0.78861 0.0
O110 O 0.9722 0.31116 0.75325 0.0
O111 O 0.95481 0.36424 0.71971 0.0
O112 O 0.02179 0.35994 0.82061 0.0
O113 O 0.96462 0.38339 0.84476 0.0
O114 O 1.00349 0.41659 0.76863 0.0
O115 O 0.98269 0.4625 0.81837 0.0
C116 C 0.91237 0.48718 0.90231 0.0
O117 O 0.91163 0.49606 0.86435 0.0
O118 O 0.91851 0.44843 0.90644 0.0
C119 C 0.87523 0.42154 0.77809 0.0
Tb120 Tb 0.84875 0.69832 0.12799 0.0
C121 C 0.9354 0.64212 0.13422 0.0
Tb122 Tb 0.93215 0.7233 0.08429 0.0
O123 O 0.8404 0.64662 0.08901 0.0
O124 O 0.87127 0.69785 0.06825 0.0
O125 O 0.89589 0.65042 0.14884 0.0
C126 C 0.99158 0.72678 0.02746 0.0
O127 O 0.95436 0.66539 0.10781 0.0
C128 C 0.92037 0.75732 0.15461 0.0
C129 C 0.85283 0.78369 0.08118 0.0
O130 O 0.9542 0.70968 0.02417 0.0
O131 O 0.99595 0.74181 0.06329 0.0
O132 O 0.94435 0.77269 0.12707 0.0
O133 O 0.90929 0.72259 0.1436 0.0
O134 O 0.88859 0.77111 0.06309 0.0
O135 O 0.83337 0.76189 0.10906 0.0
C136 C 0.77975 0.68711 0.17426 0.0
O137 O 0.77823 0.69335 0.13581 0.0
O138 O 0.82015 0.68783 0.18681 0.0
C139 C 0.86242 0.66158 0.06014 0.0
Tb140 Tb 0.55725 0.67322 0.34858 0.0
C141 C 0.56612 0.58444 0.38565 0.0
Tb142 Tb 0.49214 0.60917 0.32143 0.0
O143 O 0.5307 0.67613 0.40891 0.0
O144 O 0.49054 0.66025 0.36065 0.0
O145 O 0.58672 0.61835 0.37675 0.0
C146 C 0.42021 0.56588 0.31068 0.0
O147 O 0.52616 0.57706 0.37122 0.0
C148 C 0.56078 0.61675 0.27585 0.0
C149 C 0.49437 0.68954 0.27146 0.0
O150 O 0.45984 0.55252 0.30482 0.0
O151 O 0.42185 0.60264 0.32364 0.0
O152 O 0.5237 0.60339 0.26261 0.0
O153 O 0.55846 0.62105 0.31307 0.0
O154 O 0.46995 0.65976 0.28386 0.0
O155 O 0.53172 0.69838 0.29032 0.0
C156 C 0.61978 0.72826 0.35593 0.0
O157 O 0.57808 0.73616 0.35605 0.0
O158 O 0.62595 0.68954 0.35213 0.0
C159 C 0.49288 0.66231 0.39874 0.0
Tb160 Tb 0.16502 0.3982 0.1469 0.0
C161 C 0.13037 0.40609 0.05996 0.0
Tb162 Tb 0.1945 0.46797 0.0988 0.0
O163 O 0.09974 0.42623 0.15343 0.0
O164 O 0.15386 0.46184 0.14866 0.0
O165 O 0.14454 0.3793 0.08708 0.0
C166 C 0.20026 0.53469 0.055 0.0
O167 O 0.14003 0.44475 0.06316 0.0
C168 C 0.24776 0.40468 0.09937 0.0
C169 C 0.23578 0.45748 0.18414 0.0
O170 O 0.2153 0.49925 0.04511 0.0
O171 O 0.18227 0.53256 0.08963 0.0
O172 O 0.26063 0.4416 0.09658 0.0
O173 O 0.20674 0.40452 0.09817 0.0
O174 O 0.22684 0.48367 0.15487 0.0
O175 O 0.21776 0.42146 0.18569 0.0
C176 C 0.15829 0.33256 0.19225 0.0
O177 O 0.12615 0.3522 0.17475 0.0
O178 O 0.19442 0.34964 0.18366 0.0
C179 C 0.11288 0.46279 0.14963 0.0
Tb180 Tb 0.72513 0.10563 0.86242 0.0
C181 C 0.68785 0.1169 0.95035 0.0
Tb182 Tb 0.76701 0.05594 0.9311 0.0
O183 O 0.66617 0.07174 0.8671 0.0
O184 O 0.72665 0.04361 0.88034 0.0
O185 O 0.68962 0.13289 0.91345 0.0
C186 C 0.77351 0.99354 0.98316 0.0
O187 O 0.71394 0.08634 0.96243 0.0
C188 C 0.80369 0.12598 0.91648 0.0
C189 C 0.81189 0.05049 0.84852 0.0
O190 O 0.8025 0.02128 0.9791 0.0
O191 O 0.74105 1.00194 0.95888 0.0
O192 O 0.8244 0.09475 0.93234 0.0
O193 O 0.76375 0.11819 0.9137 0.0
O194 O 0.80538 0.03171 0.88282 0.0
O195 O 0.78607 0.08108 0.83553 0.0
C196 C 0.70017 0.1478 0.7964 0.0
O197 O 0.68525 0.1136 0.80779 0.0
O198 O 0.7295 0.15914 0.82266 0.0
C199 C 0.68567 0.03915 0.88036 0.0
Tb200 Tb 0.85654 0.94425 0.42144 0.0
C201 C 0.86494 0.90372 0.33661 0.0
Tb202 Tb 0.80045 0.97835 0.34666 0.0
O203 O 0.82018 0.88882 0.42115 0.0
O204 O 0.79074 0.94199 0.39883 0.0
O205 O 0.88658 0.91338 0.37034 0.0
C206 C 0.73046 0.99193 0.29914 0.0
O207 O 0.82661 0.92056 0.32567 0.0
C208 C 0.87979 1.00844 0.35251 0.0
C209 C 0.80838 0.03242 0.42444 0.0
O210 O 0.77019 0.98706 0.28685 0.0
O211 O 0.73043 0.98902 0.33794 0.0
O212 O 0.85181 0.01914 0.32416 0.0
O213 O 0.8612 0.98295 0.37324 0.0
O214 O 0.78897 0.02741 0.3888 0.0
O215 O 0.83569 1.00513 0.44165 0.0
C216 C 0.90649 0.92982 0.48685 0.0
O217 O 0.86466 0.93702 0.48643 0.0
O218 O 0.92035 0.93065 0.45027 0.0
C219 C 0.78635 0.90421 0.40221 0.0
Tb220 Tb 0.30737 0.59343 0.67628 0.0
C221 C 0.34327 0.60297 0.58536 0.0
Tb222 Tb 0.26242 0.54752 0.60359 0.0
O223 O 0.36187 0.55025 0.68138 0.0
O224 O 0.30318 0.53353 0.6544 0.0
O225 O 0.3425 0.61737 0.62325 0.0
C226 C 0.24342 0.48715 0.55227 0.0
O227 O 0.31589 0.57508 0.57193 0.0
C228 C 0.2329 0.62178 0.61938 0.0
C229 C 0.22416 0.53803 0.69044 0.0
O230 O 0.21527 0.51096 0.56966 0.0
O231 O 0.28225 0.49884 0.56225 0.0
O232 O 0.20995 0.59552 0.59945 0.0
O233 O 0.27038 0.60686 0.62438 0.0
O234 O 0.23022 0.5217 0.65465 0.0
O235 O 0.24822 0.56839 0.70422 0.0
C236 C 0.32762 0.6421 0.73883 0.0
O237 O 0.29025 0.6416 0.71959 0.0
O238 O 0.35356 0.61582 0.72223 0.0
C239 C 0.34277 0.52286 0.66016 0.0
H240 H 0.23224 0.31485 0.46824 0.0
H241 H 0.11188 0.31608 0.53308 0.0
H242 H 0.12563 0.38357 0.55712 0.0
H243 H 0.17111 0.4431 0.56073 0.0
H244 H 0.29453 0.44196 0.50192 0.0
H245 H 0.2802 0.37459 0.4745 0.0
C246 C 0.20921 0.32978 0.48783 0.0
C247 C 0.17102 0.30977 0.49859 0.0
C248 C 0.21757 0.36917 0.50245 0.0
C249 C 0.14171 0.33 0.52417 0.0
C250 C 0.14934 0.36902 0.53794 0.0
C251 C 0.19464 0.42834 0.54148 0.0
C252 C 0.23344 0.44789 0.53277 0.0
C253 C 0.18695 0.38903 0.5272 0.0
C254 C 0.26411 0.42781 0.50865 0.0
C255 C 0.25601 0.38914 0.49316 0.0
H256 H 0.8876 0.02094 0.88044 0.0
H257 H 0.82665 0.05292 0.76678 0.0
H258 H 0.89199 0.02809 0.73196 0.0
H259 H 0.96512 0.99194 0.7342 0.0
H260 H 0.02375 0.96192 0.84958 0.0
H261 H 0.96123 0.99181 0.88316 0.0
C262 C 0.88842 0.02253 0.84798 0.0
C263 C 0.85176 0.03802 0.82625 0.0
C264 C 0.9261 1.00872 0.82843 0.0
C265 C 0.85415 0.04081 0.78429 0.0
C266 C 0.89159 0.02658 0.76439 0.0
C267 C 0.96464 0.99304 0.76667 0.0
C268 C 0.99937 0.97473 0.78933 0.0
C269 C 0.9277 1.00989 0.78613 0.0
C270 C 0.9977 0.97574 0.83139 0.0
C271 C 0.96174 0.99264 0.85069 0.0
H272 H 0.2895 0.67437 0.96649 0.0
H273 H 0.23927 0.74157 0.06679 0.0
H274 H 0.19713 0.68329 0.08677 0.0
H275 H 0.18422 0.61051 0.08125 0.0
H276 H 0.23899 0.54272 0.9833 0.0
H277 H 0.26926 0.60428 0.95621 0.0
C278 C 0.26876 0.67642 0.99236 0.0
C279 C 0.2679 0.71162 0.01568 0.0
C280 C 0.24578 0.64269 1.00409 0.0
C281 C 0.24058 0.71441 0.04873 0.0
C282 C 0.21669 0.68114 0.06018 0.0
C283 C 0.20199 0.60949 0.05351 0.0
C284 C 0.21011 0.57236 0.03449 0.0
C285 C 0.22044 0.64468 0.03895 0.0
C286 C 0.23283 0.57112 0.99851 0.0
C287 C 0.25025 0.60619 0.98316 0.0
H288 H 0.59228 0.06808 0.17658 0.0
H289 H 0.51946 0.07824 0.28519 0.0
H290 H 0.57561 0.03829 0.32151 0.0
H291 H 0.64936 1.00869 0.32449 0.0
H292 H 0.72604 1.00361 0.2179 0.0
H293 H 0.66467 0.03317 0.17852 0.0
C294 C 0.58835 0.06051 0.20791 0.0
C295 C 0.55192 0.07577 0.22831 0.0
C296 C 0.62183 0.03911 0.22904 0.0
C297 C 0.54731 0.06657 0.26903 0.0
C298 C 0.57948 0.044 0.28981 0.0
C299 C 0.6524 1.01349 0.29251 0.0
C300 C 0.69214 1.00438 0.27412 0.0
C301 C 0.61755 0.0314 0.27048 0.0
C302 C 0.69572 1.01061 0.23269 0.0
C303 C 0.66069 0.02756 0.21023 0.0
H304 H 0.76273 0.18171 0.53573 0.0
H305 H 0.77041 0.24506 0.42328 0.0
H306 H 0.79069 0.18179 0.38963 0.0
H307 H 0.80123 0.10746 0.3914 0.0
H308 H 0.79827 0.04484 0.50459 0.0
H309 H 0.78112 0.10861 0.53877 0.0
C310 C 0.76959 0.18173 0.50397 0.0
C311 C 0.76494 0.21802 0.48198 0.0
C312 C 0.78148 0.14523 0.48491 0.0
C313 C 0.77402 0.21764 0.44092 0.0
C314 C 0.78525 0.18137 0.42161 0.0
C315 C 0.79688 0.10785 0.42357 0.0
C316 C 0.80024 0.07137 0.44539 0.0
C317 C 0.78816 0.14483 0.44313 0.0
C318 C 0.79557 0.07244 0.48715 0.0
C319 C 0.78576 0.10891 0.50667 0.0
H320 H 0.08414 0.4218 0.75787 0.0
H321 H 0.02256 0.53337 0.79555 0.0
H322 H 0.08562 0.57089 0.77233 0.0
H323 H 0.15696 0.57195 0.73588 0.0
H324 H 0.21564 0.45827 0.69985 0.0
H325 H 0.1557 0.42199 0.72813 0.0
C326 C 0.08427 0.45439 0.76117 0.0
C327 C 0.04796 0.47464 0.77789 0.0
C328 C 0.12061 0.47554 0.74803 0.0
C329 C 0.0497 0.51683 0.78262 0.0
C330 C 0.08587 0.53832 0.76922 0.0
C331 C 0.15706 0.53923 0.7352 0.0
C332 C 0.19119 0.51794 0.7157 0.0
C333 C 0.12145 0.51807 0.75125 0.0
C334 C 0.19013 0.47551 0.71456 0.0
C335 C 0.15561 0.45464 0.73059 0.0
H336 H 0.84326 0.96668 0.02936 0.0
H337 H 0.71511 0.9334 0.9878 0.0
H338 H 0.7255 0.86654 0.01819 0.0
H339 H 0.77409 0.81468 0.05158 0.0
H340 H 0.90285 0.84816 0.09102 0.0
H341 H 0.88906 0.91718 0.06742 0.0
C342 C 0.8174 0.945 0.02753 0.0
C343 C 0.77858 0.95508 1.0062 0.0
C344 C 0.82377 0.90625 0.04478 0.0
C345 C 0.74541 0.9265 1.00401 0.0
C346 C 0.75134 0.8881 0.02134 0.0
C347 C 0.79857 0.83743 0.0558 0.0
C348 C 0.83938 0.82638 0.07315 0.0
C349 C 0.79075 0.87721 0.04116 0.0
C350 C 0.87115 0.85599 0.0778 0.0
C351 C 0.86338 0.89548 0.06413 0.0
H352 H 0.40806 0.48837 0.28433 0.0
H353 H 0.34124 0.60294 0.3024 0.0
H354 H 0.27687 0.57872 0.26691 0.0
H355 H 0.24212 0.52761 0.22458 0.0
H356 H 0.30545 0.41122 0.20966 0.0
H357 H 0.36825 0.43309 0.25027 0.0
C358 C 0.37907 0.50763 0.28109 0.0
C359 C 0.37963 0.54753 0.29549 0.0
C360 C 0.34162 0.49328 0.26096 0.0
C361 C 0.34176 0.57214 0.29144 0.0
C362 C 0.3049 0.55841 0.27098 0.0
C363 C 0.26938 0.50688 0.23095 0.0
C364 C 0.26951 0.46808 0.21419 0.0
C365 C 0.30488 0.51947 0.25469 0.0
C366 C 0.30471 0.44122 0.22263 0.0
C367 C 0.34069 0.45382 0.24557 0.0
H368 H 0.48447 0.23149 0.34452 0.0
H369 H 0.58536 0.29178 0.28137 0.0
H370 H 0.61837 0.31283 0.34511 0.0
H371 H 0.62148 0.31009 0.41841 0.0
H372 H 0.5197 0.25304 0.48287 0.0
H373 H 0.48374 0.23457 0.41889 0.0
C374 C 0.51332 0.24976 0.34481 0.0
C375 C 0.5327 0.25993 0.30835 0.0
C376 C 0.53211 0.26176 0.38166 0.0
C377 C 0.56988 0.28369 0.309 0.0
C378 C 0.5889 0.29549 0.34543 0.0
C379 C 0.59141 0.29352 0.41839 0.0
C380 C 0.57363 0.28196 0.455 0.0
C381 C 0.57083 0.28393 0.38184 0.0
C382 C 0.53409 0.2617 0.45489 0.0
C383 C 0.51366 0.25124 0.41839 0.0
H384 H 0.96393 0.26543 0.54154 0.0
H385 H 0.03778 0.16716 0.59725 0.0
H386 H 0.01855 0.19214 0.66364 0.0
H387 H 0.99359 0.24953 0.70482 0.0
H388 H 0.92607 0.3508 0.64773 0.0
H389 H 0.92974 0.31719 0.58292 0.0
C390 C 0.97462 0.24884 0.56822 0.0
C391 C 1.00283 0.21523 0.56494 0.0
C392 C 0.96548 0.26456 0.606 0.0
C393 C 0.01634 0.19355 0.59942 0.0
C394 C 1.00573 0.208 0.6373 0.0
C395 C 0.97915 0.26375 0.67819 0.0
C396 C 0.96074 0.30277 0.68044 0.0
C397 C 0.98249 0.24476 0.64087 0.0
C398 C 0.94145 0.32103 0.6462 0.0
C399 C 0.94332 0.30181 0.60924 0.0
H400 H 0.0974 0.80971 0.89402 0.0
H401 H 1.00807 0.74276 0.81952 0.0
H402 H 0.98299 0.70686 0.87839 0.0
H403 H 0.97896 0.7021 0.9514 0.0
H404 H 0.06454 0.77227 0.02656 0.0
H405 H 0.09941 0.79879 0.96706 0.0
C406 C 0.07306 0.78668 0.89067 0.0
C407 C 0.05409 0.77914 0.85276 0.0
C408 C 0.058 0.76703 0.92476 0.0
C409 C 0.02279 0.74921 0.84857 0.0
C410 C 1.00839 0.72879 0.88219 0.0
C411 C 1.00587 0.72255 0.95475 0.0
C412 C 0.0189 0.73573 0.99309 0.0
C413 C 0.02462 0.73858 0.92052 0.0
C414 C 0.05391 0.76196 0.99721 0.0
C415 C 0.07361 0.77728 0.96323 0.0
H416 H 0.54435 0.72641 0.21332 0.0
H417 H 0.41208 0.6971 0.2411 0.0
H418 H 0.38711 0.71997 0.17511 0.0
H419 H 0.40179 0.74574 0.10867 0.0
H420 H 0.53217 0.77801 0.0783 0.0
H421 H 0.55863 0.75648 0.14548 0.0
C422 C 0.50996 0.7258 0.20519 0.0
C423 C 0.48022 0.70996 0.23277 0.0
C424 C 0.49542 0.73894 0.16627 0.0
C425 C 0.4359 0.70892 0.221 0.0
C426 C 0.42147 0.72192 0.18298 0.0
C427 C 0.43618 0.74799 0.11631 0.0
C428 C 0.46492 0.76306 0.08768 0.0
C429 C 0.45088 0.73636 0.15515 0.0
C430 C 0.50916 0.76629 0.09922 0.0
C431 C 0.52429 0.75405 0.13785 0.0
H432 H 0.16078 0.26151 0.36384 0.0
H433 H 0.02247 0.25737 0.33883 0.0
H434 H 0.03398 0.27807 0.26941 0.0
H435 H 0.08322 0.30254 0.2182 0.0
H436 H 0.22183 0.30329 0.24315 0.0
H437 H 0.21074 0.27545 0.30988 0.0
C438 C 0.13329 0.26412 0.34292 0.0
C439 C 0.09094 0.25797 0.35608 0.0
C440 C 0.14034 0.27459 0.30311 0.0
C441 C 0.05537 0.26231 0.32915 0.0
C442 C 0.06197 0.2738 0.28953 0.0
C443 C 0.11103 0.29561 0.23793 0.0
C444 C 0.15313 0.30546 0.22637 0.0
C445 C 0.10429 0.28059 0.27642 0.0
C446 C 0.18908 0.29611 0.25175 0.0
C447 C 0.18272 0.28071 0.28998 0.0
H448 H 0.0464 0.89079 0.6242 0.0
H449 H 0.9312 0.89343 0.69582 0.0
H450 H 0.88605 0.9098 0.63615 0.0
H451 H 0.87937 0.92231 0.56332 0.0
H452 H 0.99472 0.91893 0.49184 0.0
H453 H 0.03992 0.90423 0.55177 0.0
C454 C 0.01144 0.89522 0.62677 0.0
C455 C 0.99208 0.89096 0.66431 0.0
C456 C 0.98579 0.90443 0.59235 0.0
C457 C 0.94675 0.89643 0.66718 0.0
C458 C 0.92098 0.90582 0.6331 0.0
C459 C 0.91442 0.91841 0.56093 0.0
C460 C 0.93373 0.92157 0.52324 0.0
C461 C 0.94012 0.90971 0.59549 0.0
C462 C 0.97913 0.91649 0.52051 0.0
C463 C 1.00496 0.90809 0.55476 0.0
H464 H 0.40302 0.64021 0.78398 0.0
H465 H 0.27605 0.69879 0.7757 0.0
H466 H 0.2929 0.7383 0.83595 0.0
H467 H 0.34453 0.75744 0.89041 0.0
H468 H 0.47209 0.69978 0.89765 0.0
H469 H 0.45406 0.65841 0.83909 0.0
C470 C 0.37904 0.66165 0.79535 0.0
C471 C 0.33832 0.66658 0.77516 0.0
C472 C 0.38899 0.68427 0.83015 0.0
C473 C 0.30762 0.69442 0.79048 0.0
C474 C 0.31724 0.71697 0.82505 0.0
C475 C 0.36821 0.73547 0.8795 0.0
C476 C 0.40968 0.73167 0.89868 0.0
C477 C 0.35786 0.71224 0.84517 0.0
C478 C 0.43998 0.70328 0.8837 0.0
C479 C 0.42972 0.67972 0.85002 0.0
H480 H 0.53622 0.18382 0.06239 0.0
H481 H 0.62632 0.13561 0.15255 0.0
H482 H 0.67673 0.11448 0.10088 0.0
H483 H 0.69625 0.11014 0.03087 0.0
H484 H 0.60996 0.16016 0.93875 0.0
H485 H 0.55767 0.18094 0.99017 0.0
C486 C 0.56679 0.16847 0.07051 0.0
C487 C 0.57736 0.16104 0.11137 0.0
C488 C 0.59662 0.15725 0.04034 0.0
C489 C 0.61734 0.14163 0.12147 0.0
C490 C 0.64631 0.12961 0.0919 0.0
C491 C 0.66605 0.12566 0.02177 0.0
C492 C 0.65714 0.13342 0.98078 0.0
C493 C 0.63647 0.13745 0.05135 0.0
C494 C 0.61794 0.15401 0.96999 0.0
C495 C 0.58787 0.16562 0.99944 0.0
H496 H 0.6053 0.21892 0.64068 0.0
H497 H 0.72914 0.27552 0.62762 0.0
H498 H 0.75681 0.24305 0.68931 0.0
H499 H 0.7446 0.20041 0.74932 0.0
H500 H 0.62166 0.14153 0.75961 0.0
H501 H 0.59487 0.17318 0.69744 0.0
C502 C 0.63856 0.22366 0.651 0.0
C503 C 0.66492 0.24982 0.62958 0.0
C504 C 0.65427 0.20491 0.68661 0.0
C505 C 0.70804 0.25554 0.64343 0.0
C506 C 0.72383 0.23718 0.67896 0.0
C507 C 0.71191 0.19481 0.73795 0.0
C508 C 0.68492 0.1691 0.75933 0.0
C509 C 0.69699 0.21233 0.70128 0.0
C510 C 0.64296 0.16141 0.74386 0.0
C511 C 0.62762 0.17939 0.70818 0.0
H512 H 0.07725 0.45134 1.01199 0.0
H513 H 0.13333 0.33118 0.02526 0.0
H514 H 0.10139 0.312 0.96019 0.0
H515 H 0.05831 0.33043 0.89857 0.0
H516 H 0.99998 0.44988 0.88905 0.0
H517 H 0.03236 0.46857 0.95313 0.0
C518 C 0.08236 0.42088 1.00072 0.0
C519 C 0.10768 0.39278 0.02313 0.0
C520 C 0.06388 0.41015 0.96369 0.0
C521 C 0.11365 0.35328 1.00851 0.0
C522 C 0.09572 0.34241 0.97121 0.0
C523 C 0.05323 0.36058 0.91056 0.0
C524 C 0.02713 0.38892 0.88908 0.0
C525 C 0.07112 0.37078 0.94831 0.0
C526 C 0.01986 0.4276 0.90499 0.0
C527 C 0.03838 0.43833 0.94174 0.0
H528 H 0.82227 0.84805 0.29328 0.0
H529 H 0.95051 0.89399 0.31646 0.0
H530 H 0.97968 0.85213 0.26204 0.0
H531 H 0.96701 0.80577 0.2045 0.0
H532 H 0.8388 0.75898 0.18435 0.0
H533 H 0.81123 0.79748 0.24076 0.0
C534 C 0.85673 0.8485 0.28669 0.0
C535 C 0.88421 0.87417 0.30852 0.0
C536 C 0.87314 0.82429 0.25572 0.0
C537 C 0.92884 0.87423 0.30012 0.0
C538 C 0.94539 0.85057 0.26882 0.0
C539 C 0.93317 0.80384 0.21283 0.0
C540 C 0.90498 0.77913 0.19049 0.0
C541 C 0.91763 0.82605 0.24586 0.0
C542 C 0.86132 0.77678 0.20155 0.0
C543 C 0.84543 0.79923 0.23366 0.0
H544 H 0.33408 0.60615 0.5035 0.0
H545 H 0.42355 0.63582 0.59998 0.0
H546 H 0.47723 0.65637 0.55107 0.0
H547 H 0.49998 0.66361 0.48054 0.0
H548 H 0.40776 0.64014 0.38469 0.0
H549 H 0.35443 0.61898 0.43332 0.0
C550 C 0.36525 0.61729 0.51397 0.0
C551 C 0.37464 0.61912 0.55571 0.0
C552 C 0.39581 0.62965 0.48555 0.0
C553 C 0.41514 0.63416 0.56832 0.0
C554 C 0.44601 0.64574 0.54023 0.0
C555 C 0.46816 0.65394 0.47018 0.0
C556 C 0.45873 0.65198 0.42844 0.0
C557 C 0.43691 0.64327 0.49873 0.0
C558 C 0.41692 0.64014 0.41607 0.0
C559 C 0.38608 0.62858 0.44412 0.0
H560 H 0.31355 0.17722 0.37346 0.0
H561 H 0.20857 0.17715 0.28518 0.0
H562 H 0.26055 0.16373 0.23219 0.0
H563 H 0.33592 0.15145 0.21075 0.0
H564 H 0.44141 0.15248 0.29805 0.0
H565 H 0.38952 0.16602 0.35167 0.0
C566 C 0.3022 0.17433 0.3426 0.0
C567 C 0.25733 0.17795 0.33322 0.0
C568 C 0.33237 0.16663 0.31218 0.0
C569 C 0.24295 0.17429 0.29314 0.0
C570 C 0.27263 0.16659 0.26281 0.0
C571 C 0.3473 0.15444 0.24162 0.0
C572 C 0.39207 0.15088 0.2508 0.0
C573 C 0.31735 0.16249 0.27199 0.0
C574 C 0.40692 0.15521 0.29058 0.0
C575 C 0.37729 0.1629 0.32112 0.0
H576 H 0.20398 0.12141 0.5501 0.0
H577 H 0.07884 0.11069 0.48992 0.0
H578 H 0.05923 0.05765 0.53552 0.0
H579 H 0.07699 1.01357 0.59259 0.0
H580 H 0.19939 0.02577 0.65676 0.0
H581 H 0.22062 0.07853 0.61005 0.0
C582 C 0.17252 0.10738 0.54716 0.0
C583 C 0.1431 0.11993 0.51648 0.0
C584 C 0.16084 0.07702 0.57431 0.0
C585 C 0.10223 0.10171 0.51314 0.0
C586 C 0.09085 0.07122 0.53927 0.0
C587 C 0.10829 0.02783 0.59627 0.0
C588 C 0.13666 1.01584 0.62775 0.0
C589 C 0.11984 0.05856 0.5699 0.0
C590 C 0.17699 0.03468 0.63258 0.0
C591 C 0.18917 0.06478 0.60589 0.0
H592 H 0.24743 0.89954 0.76265 0.0
H593 H 0.14019 0.89423 0.84371 0.0
H594 H 0.19144 0.88251 0.89997 0.0
H595 H 0.26605 0.87056 0.92549 0.0
H596 H 0.37416 0.8757 0.84551 0.0
H597 H 0.32334 0.89241 0.78952 0.0
C598 C 0.2353 0.89592 0.79267 0.0
C599 C 0.18988 0.89683 0.79887 0.0
C600 C 0.26514 0.88983 0.82503 0.0
C601 C 0.17476 0.89263 0.83797 0.0
C602 C 0.20413 0.88632 0.87019 0.0
C603 C 0.27867 0.87587 0.89589 0.0
C604 C 0.3239 0.87173 0.88964 0.0
C605 C 0.24927 0.88444 0.86397 0.0
C606 C 0.33966 0.87909 0.85123 0.0
C607 C 0.31049 0.88812 0.81916 0.0
H608 H 0.477 0.02809 0.06612 0.0
H609 H 0.3452 0.07638 0.06254 0.0
H610 H 0.31843 1.01089 0.03987 0.0
H611 H 0.33228 0.938 0.02665 0.0
H612 H 0.46407 0.88982 0.03667 0.0
H613 H 0.49101 0.95682 0.05131 0.0
C614 C 0.44252 0.02453 0.05953 0.0
C615 C 0.41311 0.05698 0.06573 0.0
C616 C 0.42729 0.98648 0.04832 0.0
C617 C 0.36846 0.05181 0.05769 0.0
C618 C 0.35313 1.01429 0.0451 0.0
C619 C 0.36683 0.94233 0.03205 0.0
C620 C 0.39615 0.90906 0.03035 0.0
C621 C 0.38214 0.98106 0.04138 0.0
C622 C 0.44084 0.91498 0.03751 0.0
C623 C 0.45634 0.95332 0.04589 0.0
H624 H 0.80521 0.46073 0.74271 0.0
H625 H 0.88077 0.34969 0.73946 0.0
H626 H 0.83903 0.32731 0.68106 0.0
H627 H 0.77954 0.33814 0.63237 0.0
H628 H 0.69636 0.44476 0.63939 0.0
H629 H 0.74181 0.47001 0.69514 0.0
C630 C 0.81259 0.43181 0.72887 0.0
C631 C 0.8482 0.40796 0.74358 0.0
C632 C 0.78666 0.41833 0.69627 0.0
C633 C 0.85632 0.36997 0.72651 0.0
C634 C 0.83157 0.35676 0.69372 0.0
C635 C 0.77151 0.3672 0.64566 0.0
C636 C 0.73496 0.38987 0.63125 0.0
C637 C 0.79686 0.38078 0.67822 0.0
C638 C 0.72449 0.42689 0.6497 0.0
C639 C 0.75044 0.44125 0.68161 0.0
H640 H 0.90603 0.5699 0.89903 0.0
H641 H 0.90726 0.46886 0.98092 0.0
H642 H 0.89516 0.51461 0.03699 0.0
H643 H 0.88008 0.58235 0.06238 0.0
H644 H 0.87905 0.68474 0.98258 0.0
H645 H 0.89609 0.6397 0.92606 0.0
C646 C 0.90376 0.55806 0.9292 0.0
C647 C 0.90693 0.51599 0.93579 0.0
C648 C 0.897 0.58474 0.96157 0.0
C649 C 0.90452 0.50102 0.97503 0.0
C650 C 0.89764 0.52716 1.00713 0.0
C651 C 0.88388 0.59488 0.03262 0.0
C652 C 0.87815 0.63667 0.02646 0.0
C653 C 0.89321 0.56891 1.00066 0.0
C654 C 0.88365 0.65264 0.98798 0.0
C655 C 0.89301 0.62683 0.95571 0.0
H656 H 0.69637 0.67402 0.14897 0.0
H657 H 0.7791 0.67678 0.25517 0.0
H658 H 0.71858 0.65539 0.29599 0.0
H659 H 0.64304 0.63286 0.301 0.0
H660 H 0.55993 0.63038 0.1952 0.0
H661 H 0.61976 0.65384 0.1545 0.0
C662 C 0.701 0.6702 0.18109 0.0
C663 C 0.74216 0.67688 0.19906 0.0
C664 C 0.66614 0.65741 0.2043 0.0
C665 C 0.74776 0.67172 0.24066 0.0
C666 C 0.7132 0.65939 0.26399 0.0
C667 C 0.63793 0.63802 0.26914 0.0
C668 C 0.59716 0.63015 0.25113 0.0
C669 C 0.67241 0.6517 0.24608 0.0
C670 C 0.59117 0.63597 0.20966 0.0
C671 C 0.6253 0.64958 0.18644 0.0
H672 H 0.6942 0.45628 0.47419 0.0
H673 H 0.57289 0.39482 0.486 0.0
H674 H 0.53351 0.45064 0.45286 0.0
H675 H 0.53295 0.51619 0.4184 0.0
H676 H 0.65326 0.57933 0.40689 0.0
H677 H 0.69299 0.52428 0.44186 0.0
C678 C 0.65915 0.45526 0.46962 0.0
C679 C 0.63671 0.42119 0.4828 0.0
C680 C 0.63627 0.48794 0.45039 0.0
C681 C 0.59118 0.42057 0.47661 0.0
C682 C 0.56848 0.45255 0.45742 0.0
C683 C 0.56784 0.51813 0.42363 0.0
C684 C 0.58986 0.55211 0.40969 0.0
C685 C 0.59062 0.4863 0.44393 0.0
C686 C 0.63516 0.55382 0.41721 0.0
C687 C 0.65807 0.52214 0.43716 0.0
H688 H 0.33544 0.40289 0.10932 0.0
H689 H 0.22508 0.32549 0.09714 0.0
H690 H 0.27337 0.26571 0.1043 0.0
H691 H 0.3469 0.2356 0.11773 0.0
H692 H 0.45602 0.31383 0.13422 0.0
H693 H 0.40865 0.37302 0.12093 0.0
C694 C 0.32205 0.3729 0.10792 0.0
C695 C 0.27687 0.36852 0.10265 0.0
C696 C 0.34991 0.3388 0.11258 0.0
C697 C 0.25982 0.32957 0.10121 0.0
C698 C 0.28743 0.2954 0.10522 0.0
C699 C 0.36034 0.26558 0.11747 0.0
C700 C 0.40492 0.27042 0.12646 0.0
C701 C 0.33253 0.29964 0.11124 0.0
C702 C 0.42183 0.30943 0.12711 0.0
C703 C 0.39473 0.34327 0.11974 0.0
H704 H 0.91942 0.26543 0.84938 0.0
H705 H 0.8091 0.34005 0.88265 0.0
H706 H 0.77174 0.27966 0.90607 0.0
H707 H 0.77013 0.20436 0.91541 0.0
H708 H 0.88432 0.13243 0.8868 0.0
H709 H 0.92021 0.19264 0.86297 0.0
C710 C 0.88721 0.26861 0.86194 0.0
C711 C 0.86699 0.30733 0.86397 0.0
C712 C 0.8665 0.23395 0.87593 0.0
C713 C 0.82553 0.31079 0.88086 0.0
C714 C 0.80409 0.27613 0.89401 0.0
C715 C 0.80286 0.20202 0.90395 0.0
C716 C 0.82443 0.16373 0.90263 0.0
C717 C 0.8241 0.23737 0.89139 0.0
C718 C 0.86703 0.16134 0.88821 0.0
C719 C 0.88758 0.19583 0.87453 0.0
H720 H 0.02382 0.46851 0.15172 0.0
H721 H 0.13904 0.54044 0.15439 0.0
H722 H 0.09392 0.60218 0.15307 0.0
H723 H 0.0221 0.63577 0.14704 0.0
H724 H 0.90586 0.56549 0.14654 0.0
H725 H 0.95074 0.50306 0.15247 0.0
C726 C 0.03895 0.49774 0.15227 0.0
C727 C 0.08483 0.49989 0.15188 0.0
C728 C 0.01258 0.53334 0.15237 0.0
C729 C 0.10395 0.53793 0.15326 0.0
C730 C 0.07812 0.57327 0.15295 0.0
C731 C 1.00653 0.6068 0.14894 0.0
C732 C 0.96073 0.6052 0.14638 0.0
C733 C 0.03248 0.57133 0.15187 0.0
C734 C 0.941 0.56753 0.149 0.0
C735 C 0.96672 0.53185 0.15189 0.0
H736 H 0.79118 0.82552 0.38505 0.0
H737 H 0.70014 0.92668 0.38662 0.0
H738 H 0.63983 0.88122 0.37087 0.0
H739 H 0.61285 0.81111 0.36161 0.0
H740 H 0.70631 0.71149 0.35977 0.0
H741 H 0.76577 0.75784 0.37076 0.0
C742 C 0.75814 0.83774 0.38164 0.0
C743 C 0.74998 0.87929 0.38731 0.0
C744 C 0.72404 0.81151 0.37294 0.0
C745 C 0.7072 0.89481 0.38223 0.0
C746 C 0.67275 0.86873 0.37355 0.0
C747 C 0.64628 0.79972 0.36346 0.0
C748 C 0.6551 0.75779 0.36042 0.0
C749 C 0.68068 0.82681 0.36966 0.0
C750 C 0.69857 0.74348 0.36239 0.0
C751 C 0.73265 0.76999 0.36863 0.0
H752 H 0.48348 0.43048 0.56137 0.0
H753 H 0.51605 0.38218 0.67864 0.0
H754 H 0.45132 0.41588 0.70601 0.0
H755 H 0.3892 0.46406 0.69748 0.0
H756 H 0.35859 0.51311 0.58053 0.0
H757 H 0.41725 0.47313 0.55174 0.0
C758 C 0.47623 0.42728 0.59288 0.0
C759 C 0.50469 0.40458 0.61818 0.0
C760 C 0.43867 0.44617 0.60821 0.0
C761 C 0.49472 0.39995 0.65876 0.0
C762 C 0.45767 0.41905 0.67435 0.0
C763 C 0.39442 0.46466 0.66543 0.0
C764 C 0.36811 0.49025 0.64086 0.0
C765 C 0.42974 0.4427 0.64945 0.0
C766 C 0.37628 0.49209 0.59972 0.0
C767 C 0.41085 0.4699 0.58339 0.0
H768 H 0.15314 0.6614 0.6107 0.0
H769 H 0.28614 0.67799 0.65059 0.0
H770 H 0.26771 0.74564 0.67405 0.0
H771 H 0.21268 0.79918 0.68743 0.0
H772 H 0.08067 0.78544 0.64432 0.0
H773 H 0.09966 0.71859 0.61721 0.0
C774 C 0.17801 0.68 0.62428 0.0
C775 C 0.22061 0.66402 0.63016 0.0
C776 C 0.16742 0.71978 0.63679 0.0
C777 C 0.25272 0.68886 0.64703 0.0
C778 C 0.24234 0.72786 0.66014 0.0
C779 C 0.18853 0.78191 0.67108 0.0
C780 C 0.14563 0.79723 0.66717 0.0
C781 C 0.19969 0.74348 0.65576 0.0
C782 C 0.11418 0.77437 0.64684 0.0
C783 C 0.12492 0.73601 0.63174 0.0
H784 H 0.59238 0.87706 0.92814 0.0
H785 H 0.48708 0.96401 0.94495 0.0
H786 H 0.53455 0.01881 0.92827 0.0
H787 H 0.6042 0.04246 0.90637 0.0
H788 H 0.7115 0.95846 0.88855 0.0
H789 H 0.66553 0.90225 0.9087 0.0
C790 C 0.58005 0.90804 0.92819 0.0
C791 C 0.53599 0.91633 0.93735 0.0
C792 C 0.60788 0.93994 0.91847 0.0
C793 C 0.52058 0.95664 0.93764 0.0
C794 C 0.54776 0.98812 0.92817 0.0
C795 C 0.61773 1.01185 0.90697 0.0
C796 C 0.66111 1.00459 0.89582 0.0
C797 C 0.59117 0.98012 0.91813 0.0
C798 C 0.67821 0.96483 0.89717 0.0
C799 C 0.65181 0.93273 0.90847 0.0
H800 H 0.92646 0.06082 0.30723 0.0
H801 H 0.92832 0.99657 0.41955 0.0
H802 H 0.99687 0.02657 0.43915 0.0
H803 H 0.05081 0.07749 0.42864 0.0
H804 H 0.04703 0.14869 0.32064 0.0
H805 H 0.98587 0.10915 0.29421 0.0
C806 C 0.94235 0.05313 0.33568 0.0
C807 C 0.9227 0.02588 0.3618 0.0
C808 C 0.98156 0.07176 0.34732 0.0
C809 C 0.94335 0.01639 0.39863 0.0
C810 C 0.98243 0.03389 0.40999 0.0
C811 C 0.03747 0.08342 0.39873 0.0
C812 C 0.0534 0.11549 0.37639 0.0
C813 C 1.00125 0.06222 0.38502 0.0
C814 C 0.03574 0.12346 0.33793 0.0
C815 C 1.00028 0.10136 0.32324 0.0
loop_
_geom_bond_atom_site_label_1
_geom_bond_atom_site_label_2
_geom_bond_distance
_geom_bond_site_symmetry_2
_ccdc_geom_bond_type
Tb0 O3 2.453 . S
Tb0 O4 2.596 . S
Tb0 O5 2.374 . S
Tb0 O13 2.343 . S
Tb0 O15 2.353 . S
Tb0 O17 2.427 . S
Tb0 O18 2.513 . S
C1 O5 1.251 . S
C1 O7 1.263 . S
Tb2 O4 2.343 . S
Tb2 O7 2.353 . S
Tb2 O10 2.427 . S
Tb2 O11 2.513 . S
Tb2 O12 2.453 . S
Tb2 O13 2.596 . S
Tb2 O14 2.374 . S
O3 Tb0 2.453 . S
O3 C19 1.245 . S
O4 Tb0 2.596 . S
O4 Tb2 2.343 . S
O4 C19 1.259 . S
O5 Tb0 2.374 . S
O5 C1 1.251 . S
C6 O10 1.275 . S
C6 O11 1.246 . S
O7 C1 1.263 . S
O7 Tb2 2.353 . S
C8 O12 1.245 . S
C8 O13 1.259 . S
C9 O14 1.250 . S
C9 O15 1.263 . S
O10 Tb2 2.427 . S
O10 C6 1.275 . S
O11 Tb2 2.513 . S
O11 C6 1.246 . S
O12 Tb2 2.453 . S
O12 C8 1.245 . S
O13 Tb0 2.343 . S
O13 Tb2 2.596 . S
O13 C8 1.259 . S
O14 Tb2 2.374 . S
O14 C9 1.250 . S
O15 Tb0 2.353 . S
O15 C9 1.263 . S
C16 O17 1.275 . S
C16 O18 1.246 . S
O17 Tb0 2.427 . S
O17 C16 1.275 . S
O18 Tb0 2.513 . S
O18 C16 1.246 . S
C19 O3 1.245 . S
C19 O4 1.259 . S
Tb20 O23 2.453 . S
Tb20 O24 2.596 . S
Tb20 O25 2.374 . S
Tb20 O33 2.343 . S
Tb20 O35 2.353 . S
Tb20 O37 2.427 . S
Tb20 O38 2.513 . S
C21 O25 1.251 . S
C21 O27 1.263 . S
Tb22 O24 2.343 . S
Tb22 O27 2.353 . S
Tb22 O30 2.427 . S
Tb22 O31 2.513 . S
Tb22 O32 2.453 1_455 S
Tb22 O33 2.596 . S
Tb22 O34 2.374 . S
O23 Tb20 2.453 . S
O23 C39 1.245 . S
O24 Tb20 2.596 . S
O24 Tb22 2.343 . S
O24 C39 1.259 . S
O25 Tb20 2.374 . S
O25 C21 1.251 . S
C26 O30 1.275 . S
C26 O31 1.246 . S
O27 C21 1.263 . S
O27 Tb22 2.353 . S
C28 O32 1.245 1_455 S
C28 O33 1.259 . S
C29 O34 1.250 . S
C29 O35 1.263 . S
O30 Tb22 2.427 . S
O30 C26 1.275 . S
O31 Tb22 2.513 . S
O31 C26 1.246 . S
O32 Tb22 2.453 1_655 S
O32 C28 1.245 1_655 S
O33 Tb20 2.343 . S
O33 Tb22 2.596 . S
O33 C28 1.259 . S
O34 Tb22 2.374 . S
O34 C29 1.250 . S
O35 Tb20 2.353 . S
O35 C29 1.263 . S
C36 O37 1.275 . S
C36 O38 1.246 . S
O37 Tb20 2.427 . S
O37 C36 1.275 . S
O38 Tb20 2.513 . S
O38 C36 1.246 . S
C39 O23 1.245 . S
C39 O24 1.259 . S
Tb40 O43 2.453 . S
Tb40 O44 2.596 . S
Tb40 O45 2.374 . S
Tb40 O53 2.343 . S
Tb40 O55 2.353 . S
Tb40 O57 2.427 . S
Tb40 O58 2.513 . S
C41 O45 1.251 . S
C41 O47 1.263 . S
Tb42 O44 2.343 . S
Tb42 O47 2.353 . S
Tb42 O50 2.427 . S
Tb42 O51 2.508 1_556 S
Tb42 O52 2.453 1_556 S
Tb42 O53 2.596 . S
Tb42 O54 2.374 1_556 S
O43 Tb40 2.453 . S
O43 C59 1.245 . S
O44 Tb40 2.596 . S
O44 Tb42 2.343 . S
O44 C59 1.259 . S
O45 Tb40 2.374 . S
O45 C41 1.251 . S
C46 O50 1.275 . S
C46 O51 1.232 1_556 S
O47 C41 1.263 . S
O47 Tb42 2.353 . S
C48 O52 1.245 . S
C48 O53 1.259 1_554 S
C49 O54 1.250 . S
C49 O55 1.263 1_554 S
O50 Tb42 2.427 . S
O50 C46 1.275 . S
O51 Tb42 2.508 1_554 S
O51 C46 1.232 1_554 S
O52 Tb42 2.453 1_554 S
O52 C48 1.245 . S
O53 Tb40 2.343 . S
O53 Tb42 2.596 . S
O53 C48 1.259 1_556 S
O54 Tb42 2.374 1_554 S
O54 C49 1.250 . S
O55 Tb40 2.353 . S
O55 C49 1.263 1_556 S
C56 O57 1.275 . S
C56 O58 1.246 . S
O57 Tb40 2.427 . S
O57 C56 1.275 . S
O58 Tb40 2.513 . S
O58 C56 1.246 . S
C59 O43 1.245 . S
C59 O44 1.259 . S
Tb60 O63 2.453 . S
Tb60 O64 2.596 . S
Tb60 O65 2.374 . S
Tb60 O73 2.343 . S
Tb60 O75 2.353 . S
Tb60 O77 2.427 . S
Tb60 O78 2.513 . S
C61 O65 1.251 . S
C61 O67 1.263 . S
Tb62 O64 2.343 . S
Tb62 O67 2.353 . S
Tb62 O70 2.427 . S
Tb62 O71 2.513 . S
Tb62 O72 2.453 . S
Tb62 O73 2.596 . S
Tb62 O74 2.374 . S
O63 Tb60 2.453 . S
O63 C79 1.245 . S
O64 Tb60 2.596 . S
O64 Tb62 2.343 . S
O64 C79 1.259 . S
O65 Tb60 2.374 . S
O65 C61 1.251 . S
C66 O70 1.275 . S
C66 O71 1.246 . S
O67 C61 1.263 . S
O67 Tb62 2.353 . S
C68 O72 1.245 . S
C68 O73 1.259 . S
C69 O74 1.250 . S
C69 O75 1.263 . S
O70 Tb62 2.427 . S
O70 C66 1.275 . S
O71 Tb62 2.513 . S
O71 C66 1.246 . S
O72 Tb62 2.453 . S
O72 C68 1.245 . S
O73 Tb60 2.343 . S
O73 Tb62 2.596 . S
O73 C68 1.259 . S
O74 Tb62 2.374 . S
O74 C69 1.250 . S
O75 Tb60 2.353 . S
O75 C69 1.263 . S
C76 O77 1.275 . S
C76 O78 1.246 . S
O77 Tb60 2.427 . S
O77 C76 1.275 . S
O78 Tb60 2.513 . S
O78 C76 1.246 . S
C79 O63 1.245 . S
C79 O64 1.259 . S
Tb80 O83 2.453 . S
Tb80 O84 2.596 . S
Tb80 O85 2.374 . S
Tb80 O93 2.343 . S
Tb80 O95 2.353 . S
Tb80 O97 2.427 . S
Tb80 O98 2.513 . S
C81 O85 1.251 . S
C81 O87 1.263 . S
Tb82 O84 2.343 . S
Tb82 O87 2.353 . S
Tb82 O90 2.427 . S
Tb82 O91 2.513 . S
Tb82 O92 2.453 . S
Tb82 O93 2.596 . S
Tb82 O94 2.374 . S
O83 Tb80 2.453 . S
O83 C99 1.245 . S
O84 Tb80 2.596 . S
O84 Tb82 2.343 . S
O84 C99 1.259 . S
O85 Tb80 2.374 . S
O85 C81 1.251 . S
C86 O90 1.275 . S
C86 O91 1.246 . S
O87 C81 1.263 . S
O87 Tb82 2.353 . S
C88 O92 1.245 . S
C88 O93 1.259 . S
C89 O94 1.250 . S
C89 O95 1.263 . S
O90 Tb82 2.427 . S
O90 C86 1.275 . S
O91 Tb82 2.513 . S
O91 C86 1.246 . S
O92 Tb82 2.453 . S
O92 C88 1.245 . S
O93 Tb80 2.343 . S
O93 Tb82 2.596 . S
O93 C88 1.259 . S
O94 Tb82 2.374 . S
O94 C89 1.250 . S
O95 Tb80 2.353 . S
O95 C89 1.263 . S
C96 O97 1.275 . S
C96 O98 1.246 . S
O97 Tb80 2.427 . S
O97 C96 1.275 . S
O98 Tb80 2.513 . S
O98 C96 1.246 . S
C99 O83 1.245 . S
C99 O84 1.259 . S
Tb100 O103 2.453 . S
Tb100 O104 2.596 . S
Tb100 O105 2.374 . S
Tb100 O113 2.343 . S
Tb100 O115 2.353 . S
Tb100 O117 2.427 . S
Tb100 O118 2.513 . S
C101 O105 1.251 . S
C101 O107 1.263 . S
Tb102 O104 2.343 . S
Tb102 O107 2.353 . S
Tb102 O110 2.427 . S
Tb102 O111 2.513 . S
Tb102 O112 2.453 1_655 S
Tb102 O113 2.596 . S
Tb102 O114 2.374 1_655 S
O103 Tb100 2.453 . S
O103 C119 1.245 . S
O104 Tb100 2.596 . S
O104 Tb102 2.343 . S
O104 C119 1.259 . S
O105 Tb100 2.374 . S
O105 C101 1.251 . S
C106 O110 1.275 . S
C106 O111 1.246 . S
O107 C101 1.263 . S
O107 Tb102 2.353 . S
C108 O112 1.245 1_655 S
C108 O113 1.259 . S
C109 O114 1.250 1_655 S
C109 O115 1.263 . S
O110 Tb102 2.427 . S
O110 C106 1.275 . S
O111 Tb102 2.513 . S
O111 C106 1.246 . S
O112 Tb102 2.453 1_455 S
O112 C108 1.245 1_455 S
O113 Tb100 2.343 . S
O113 Tb102 2.596 . S
O113 C108 1.259 . S
O114 Tb102 2.374 1_455 S
O114 C109 1.250 1_455 S
O115 Tb100 2.353 . S
O115 C109 1.263 . S
C116 O117 1.275 . S
C116 O118 1.246 . S
O117 Tb100 2.427 . S
O117 C116 1.275 . S
O118 Tb100 2.513 . S
O118 C116 1.246 . S
C119 O103 1.245 . S
C119 O104 1.259 . S
Tb120 O123 2.453 . S
Tb120 O124 2.596 . S
Tb120 O125 2.374 . S
Tb120 O133 2.343 . S
Tb120 O135 2.353 . S
Tb120 O137 2.427 . S
Tb120 O138 2.513 . S
C121 O125 1.251 . S
C121 O127 1.263 . S
Tb122 O124 2.343 . S
Tb122 O127 2.353 . S
Tb122 O130 2.407 1_655 S
Tb122 O131 2.513 . S
Tb122 O132 2.453 . S
Tb122 O133 2.596 . S
Tb122 O134 2.374 . S
O123 Tb120 2.453 . S
O123 C139 1.245 . S
O124 Tb120 2.596 . S
O124 Tb122 2.343 . S
O124 C139 1.259 . S
O125 Tb120 2.374 . S
O125 C121 1.251 . S
C126 O130 1.266 1_655 S
C126 O131 1.246 . S
O127 C121 1.263 . S
O127 Tb122 2.353 . S
C128 O132 1.245 . S
C128 O133 1.259 . S
C129 O134 1.250 . S
C129 O135 1.263 . S
O130 Tb122 2.407 1_455 S
O130 C126 1.266 1_455 S
O131 Tb122 2.513 . S
O131 C126 1.246 . S
O132 Tb122 2.453 . S
O132 C128 1.245 . S
O133 Tb120 2.343 . S
O133 Tb122 2.596 . S
O133 C128 1.259 . S
O134 Tb122 2.374 . S
O134 C129 1.250 . S
O135 Tb120 2.353 . S
O135 C129 1.263 . S
C136 O137 1.275 . S
C136 O138 1.246 . S
O137 Tb120 2.427 . S
O137 C136 1.275 . S
O138 Tb120 2.513 . S
O138 C136 1.246 . S
C139 O123 1.245 . S
C139 O124 1.259 . S
Tb140 O143 2.453 . S
Tb140 O144 2.596 . S
Tb140 O145 2.374 . S
Tb140 O153 2.343 . S
Tb140 O155 2.353 . S
Tb140 O157 2.427 . S
Tb140 O158 2.513 . S
C141 O145 1.251 . S
C141 O147 1.263 . S
Tb142 O144 2.343 . S
Tb142 O147 2.353 . S
Tb142 O150 2.427 . S
Tb142 O151 2.513 . S
Tb142 O152 2.453 . S
Tb142 O153 2.596 . S
Tb142 O154 2.374 . S
O143 Tb140 2.453 . S
O143 C159 1.245 . S
O144 Tb140 2.596 . S
O144 Tb142 2.343 . S
O144 C159 1.259 . S
O145 Tb140 2.374 . S
O145 C141 1.251 . S
C146 O150 1.275 . S
C146 O151 1.246 . S
O147 C141 1.263 . S
O147 Tb142 2.353 . S
C148 O152 1.245 . S
C148 O153 1.259 . S
C149 O154 1.250 . S
C149 O155 1.263 . S
O150 Tb142 2.427 . S
O150 C146 1.275 . S
O151 Tb142 2.513 . S
O151 C146 1.246 . S
O152 Tb142 2.453 . S
O152 C148 1.245 . S
O153 Tb140 2.343 . S
O153 Tb142 2.596 . S
O153 C148 1.259 . S
O154 Tb142 2.374 . S
O154 C149 1.250 . S
O155 Tb140 2.353 . S
O155 C149 1.263 . S
C156 O157 1.275 . S
C156 O158 1.246 . S
O157 Tb140 2.427 . S
O157 C156 1.275 . S
O158 Tb140 2.513 . S
O158 C156 1.246 . S
C159 O143 1.245 . S
C159 O144 1.259 . S
Tb160 O163 2.453 . S
Tb160 O164 2.596 . S
Tb160 O165 2.374 . S
Tb160 O173 2.343 . S
Tb160 O175 2.353 . S
Tb160 O177 2.427 . S
Tb160 O178 2.513 . S
C161 O165 1.251 . S
C161 O167 1.263 . S
Tb162 O164 2.343 . S
Tb162 O167 2.353 . S
Tb162 O170 2.427 . S
Tb162 O171 2.513 . S
Tb162 O172 2.453 . S
Tb162 O173 2.596 . S
Tb162 O174 2.374 . S
O163 Tb160 2.453 . S
O163 C179 1.245 . S
O164 Tb160 2.596 . S
O164 Tb162 2.343 . S
O164 C179 1.259 . S
O165 Tb160 2.374 . S
O165 C161 1.251 . S
C166 O170 1.275 . S
C166 O171 1.246 . S
O167 C161 1.263 . S
O167 Tb162 2.353 . S
C168 O172 1.245 . S
C168 O173 1.259 . S
C169 O174 1.250 . S
C169 O175 1.263 . S
O170 Tb162 2.427 . S
O170 C166 1.275 . S
O171 Tb162 2.513 . S
O171 C166 1.246 . S
O172 Tb162 2.453 . S
O172 C168 1.245 . S
O173 Tb160 2.343 . S
O173 Tb162 2.596 . S
O173 C168 1.259 . S
O174 Tb162 2.374 . S
O174 C169 1.250 . S
O175 Tb160 2.353 . S
O175 C169 1.263 . S
C176 O177 1.275 . S
C176 O178 1.246 . S
O177 Tb160 2.427 . S
O177 C176 1.275 . S
O178 Tb160 2.513 . S
O178 C176 1.246 . S
C179 O163 1.245 . S
C179 O164 1.259 . S
Tb180 O183 2.453 1_545 S
Tb180 O184 2.596 . S
Tb180 O185 2.374 . S
Tb180 O193 2.343 . S
Tb180 O195 2.353 . S
Tb180 O197 2.427 . S
Tb180 O198 2.513 . S
C181 O185 1.251 . S
C181 O187 1.263 . S
Tb182 O184 2.343 . S
Tb182 O187 2.353 . S
Tb182 O190 2.443 . S
Tb182 O191 2.513 1_545 S
Tb182 O192 2.453 . S
Tb182 O193 2.596 . S
Tb182 O194 2.374 . S
O183 Tb180 2.453 1_565 S
O183 C199 1.245 . S
O184 Tb180 2.596 . S
O184 Tb182 2.343 . S
O184 C199 1.259 1_545 S
O185 Tb180 2.374 . S
O185 C181 1.251 . S
C186 O190 1.251 1_565 S
C186 O191 1.246 . S
O187 C181 1.263 . S
O187 Tb182 2.353 . S
C188 O192 1.245 . S
C188 O193 1.259 . S
C189 O194 1.250 . S
C189 O195 1.263 . S
O190 Tb182 2.443 . S
O190 C186 1.251 1_545 S
O191 Tb182 2.513 1_565 S
O191 C186 1.246 . S
O192 Tb182 2.453 . S
O192 C188 1.245 . S
O193 Tb180 2.343 . S
O193 Tb182 2.596 . S
O193 C188 1.259 . S
O194 Tb182 2.374 . S
O194 C189 1.250 . S
O195 Tb180 2.353 . S
O195 C189 1.263 . S
C196 O197 1.275 . S
C196 O198 1.246 . S
O197 Tb180 2.427 . S
O197 C196 1.275 . S
O198 Tb180 2.513 . S
O198 C196 1.246 . S
C199 O183 1.245 . S
C199 O184 1.259 1_565 S
Tb200 O203 2.453 . S
Tb200 O204 2.596 . S
Tb200 O205 2.374 . S
Tb200 O213 2.343 . S
Tb200 O215 2.353 . S
Tb200 O217 2.427 . S
Tb200 O218 2.513 . S
C201 O205 1.251 . S
C201 O207 1.263 . S
Tb202 O204 2.343 . S
Tb202 O207 2.353 . S
Tb202 O210 2.427 . S
Tb202 O211 2.513 . S
Tb202 O212 2.453 1_565 S
Tb202 O213 2.596 . S
Tb202 O214 2.374 1_565 S
O203 Tb200 2.453 . S
O203 C219 1.245 . S
O204 Tb200 2.596 . S
O204 Tb202 2.343 . S
O204 C219 1.259 . S
O205 Tb200 2.374 . S
O205 C201 1.251 . S
C206 O210 1.275 . S
C206 O211 1.246 . S
O207 C201 1.263 . S
O207 Tb202 2.353 . S
C208 O212 1.245 1_565 S
C208 O213 1.259 . S
C209 O214 1.250 . S
C209 O215 1.263 1_545 S
O210 Tb202 2.427 . S
O210 C206 1.275 . S
O211 Tb202 2.513 . S
O211 C206 1.246 . S
O212 Tb202 2.453 1_545 S
O212 C208 1.245 1_545 S
O213 Tb200 2.343 . S
O213 Tb202 2.596 . S
O213 C208 1.259 . S
O214 Tb202 2.374 1_545 S
O214 C209 1.250 . S
O215 Tb200 2.353 . S
O215 C209 1.263 1_565 S
C216 O217 1.275 . S
C216 O218 1.246 . S
O217 Tb200 2.427 . S
O217 C216 1.275 . S
O218 Tb200 2.513 . S
O218 C216 1.246 . S
C219 O203 1.245 . S
C219 O204 1.259 . S
Tb220 O223 2.453 . S
Tb220 O224 2.596 . S
Tb220 O225 2.374 . S
Tb220 O233 2.343 . S
Tb220 O235 2.353 . S
Tb220 O237 2.427 . S
Tb220 O238 2.513 . S
C221 O225 1.251 . S
C221 O227 1.263 . S
Tb222 O224 2.343 . S
Tb222 O227 2.353 . S
Tb222 O230 2.427 . S
Tb222 O231 2.513 . S
Tb222 O232 2.453 . S
Tb222 O233 2.596 . S
Tb222 O234 2.374 . S
O223 Tb220 2.453 . S
O223 C239 1.245 . S
O224 Tb220 2.596 . S
O224 Tb222 2.343 . S
O224 C239 1.259 . S
O225 Tb220 2.374 . S
O225 C221 1.251 . S
C226 O230 1.275 . S
C226 O231 1.246 . S
O227 C221 1.263 . S
O227 Tb222 2.353 . S
C228 O232 1.245 . S
C228 O233 1.259 . S
C229 O234 1.250 . S
C229 O235 1.263 . S
O230 Tb222 2.427 . S
O230 C226 1.275 . S
O231 Tb222 2.513 . S
O231 C226 1.246 . S
O232 Tb222 2.453 . S
O232 C228 1.245 . S
O233 Tb220 2.343 . S
O233 Tb222 2.596 . S
O233 C228 1.259 . S
O234 Tb222 2.374 . S
O234 C229 1.250 . S
O235 Tb220 2.353 . S
O235 C229 1.263 . S
C236 O237 1.275 . S
C236 O238 1.246 . S
O237 Tb220 2.427 . S
O237 C236 1.275 . S
O238 Tb220 2.513 . S
O238 C236 1.246 . S
C239 O223 1.245 . S
C239 O224 1.259 . S
H240 C246 0.930 . S
H241 C249 0.930 . S
H242 C250 0.930 . S
H243 C251 0.930 . S
H244 C254 0.930 . S
H245 C255 0.930 . S
C246 H240 0.930 . S
C246 C247 1.355 . S
C246 C248 1.415 . S
C247 C246 1.355 . S
C247 C249 1.419 . S
C248 C246 1.415 . S
C248 C253 1.425 . S
C248 C255 1.409 . S
C249 H241 0.930 . S
C249 C247 1.419 . S
C249 C250 1.362 . S
C250 H242 0.930 . S
C250 C249 1.362 . S
C250 C253 1.409 . S
C251 H243 0.930 . S
C251 C252 1.355 . S
C251 C253 1.415 . S
C252 C251 1.355 . S
C252 C254 1.419 . S
C253 C248 1.425 . S
C253 C250 1.409 . S
C253 C251 1.415 . S
C254 H244 0.930 . S
C254 C252 1.419 . S
C254 C255 1.362 . S
C255 H245 0.930 . S
C255 C248 1.409 . S
C255 C254 1.362 . S
H256 C262 0.930 . S
H257 C265 0.930 . S
H258 C266 0.930 . S
H259 C267 0.930 . S
H260 C270 0.930 . S
H261 C271 0.930 . S
C262 H256 0.930 . S
C262 C263 1.355 1_565 S
C262 C264 1.415 . S
C263 C262 1.355 1_545 S
C263 C265 1.419 . S
C264 C262 1.415 . S
C264 C269 1.425 . S
C264 C271 1.409 . S
C265 H257 0.930 . S
C265 C263 1.419 . S
C265 C266 1.362 . S
C266 H258 0.930 . S
C266 C265 1.362 . S
C266 C269 1.409 1_545 S
C267 H259 0.930 . S
C267 C268 1.355 . S
C267 C269 1.415 . S
C268 C267 1.355 . S
C268 C270 1.419 . S
C269 C264 1.425 . S
C269 C266 1.409 1_565 S
C269 C267 1.415 . S
C270 H260 0.930 . S
C270 C268 1.419 . S
C270 C271 1.362 . S
C271 H261 0.930 . S
C271 C264 1.409 . S
C271 C270 1.362 . S
H272 C278 0.930 . S
H273 C281 0.933 . S
H274 C282 0.930 . S
H275 C283 0.930 . S
H276 C286 0.930 . S
H277 C287 0.930 . S
C278 H272 0.930 . S
C278 C279 1.355 . S
C278 C280 1.415 . S
C279 C278 1.355 . S
C279 C281 1.407 1_556 S
C280 C278 1.415 . S
C280 C285 1.425 1_556 S
C280 C287 1.409 . S
C281 H273 0.933 . S
C281 C279 1.407 1_554 S
C281 C282 1.372 . S
C282 H274 0.930 . S
C282 C281 1.372 . S
C282 C285 1.409 . S
C283 H275 0.930 . S
C283 C284 1.355 . S
C283 C285 1.415 . S
C284 C283 1.355 . S
C284 C286 1.419 . S
C285 C280 1.425 1_554 S
C285 C282 1.409 . S
C285 C283 1.415 . S
C286 H276 0.930 . S
C286 C284 1.419 . S
C286 C287 1.362 1_554 S
C287 H277 0.930 . S
C287 C280 1.409 . S
C287 C286 1.362 1_556 S
H288 C294 0.930 . S
H289 C297 0.930 . S
H290 C298 0.930 1_565 S
H291 C299 0.930 . S
H292 C302 0.930 . S
H293 C303 0.930 . S
C294 H288 0.930 . S
C294 C295 1.355 . S
C294 C296 1.415 . S
C295 C294 1.355 . S
C295 C297 1.419 . S
C296 C294 1.415 . S
C296 C301 1.425 . S
C296 C303 1.409 . S
C297 H289 0.930 . S
C297 C295 1.419 . S
C297 C298 1.362 . S
C298 H290 0.930 1_545 S
C298 C297 1.362 . S
C298 C301 1.409 . S
C299 H291 0.930 . S
C299 C300 1.355 . S
C299 C301 1.415 1_565 S
C300 C299 1.355 . S
C300 C302 1.419 1_565 S
C301 C296 1.425 . S
C301 C298 1.409 . S
C301 C299 1.415 1_545 S
C302 H292 0.930 . S
C302 C300 1.419 1_545 S
C302 C303 1.362 . S
C303 H293 0.930 . S
C303 C296 1.409 . S
C303 C302 1.362 . S
H304 C310 0.930 . S
H305 C313 0.930 . S
H306 C314 0.930 . S
H307 C315 0.930 . S
H308 C318 0.930 . S
H309 C319 0.930 . S
C310 H304 0.930 . S
C310 C311 1.355 . S
C310 C312 1.415 . S
C311 C310 1.355 . S
C311 C313 1.419 . S
C312 C310 1.415 . S
C312 C317 1.425 . S
C312 C319 1.409 . S
C313 H305 0.930 . S
C313 C311 1.419 . S
C313 C314 1.362 . S
C314 H306 0.930 . S
C314 C313 1.362 . S
C314 C317 1.409 . S
C315 H307 0.930 . S
C315 C316 1.355 . S
C315 C317 1.415 . S
C316 C315 1.355 . S
C316 C318 1.419 . S
C317 C312 1.425 . S
C317 C314 1.409 . S
C317 C315 1.415 . S
C318 H308 0.930 . S
C318 C316 1.419 . S
C318 C319 1.362 . S
C319 H309 0.930 . S
C319 C312 1.409 . S
C319 C318 1.362 . S
H320 C326 0.930 . S
H321 C329 0.925 1_655 S
H322 C330 0.930 . S
H323 C331 0.930 . S
H324 C334 0.930 . S
H325 C335 0.930 . S
C326 H320 0.930 . S
C326 C327 1.355 . S
C326 C328 1.415 . S
C327 C326 1.355 . S
C327 C329 1.419 . S
C328 C326 1.415 . S
C328 C333 1.425 . S
C328 C335 1.409 . S
C329 H321 0.925 1_455 S
C329 C327 1.419 . S
C329 C330 1.362 . S
C330 H322 0.930 . S
C330 C329 1.362 . S
C330 C333 1.409 . S
C331 H323 0.930 . S
C331 C332 1.355 . S
C331 C333 1.415 . S
C332 C331 1.355 . S
C332 C334 1.419 . S
C333 C328 1.425 . S
C333 C330 1.409 . S
C333 C331 1.415 . S
C334 H324 0.930 . S
C334 C332 1.419 . S
C334 C335 1.362 . S
C335 H325 0.930 . S
C335 C328 1.409 . S
C335 C334 1.362 . S
H336 C342 0.930 . S
H337 C345 0.930 . S
H338 C346 0.930 . S
H339 C347 0.930 . S
H340 C350 0.930 . S
H341 C351 0.930 . S
C342 H336 0.930 . S
C342 C343 1.355 . S
C342 C344 1.415 1_556 S
C343 C342 1.355 . S
C343 C345 1.419 . S
C344 C342 1.415 1_554 S
C344 C349 1.425 . S
C344 C351 1.409 . S
C345 H337 0.930 . S
C345 C343 1.419 . S
C345 C346 1.362 1_556 S
C346 H338 0.930 . S
C346 C345 1.362 1_554 S
C346 C349 1.409 . S
C347 H339 0.930 . S
C347 C348 1.355 . S
C347 C349 1.415 . S
C348 C347 1.355 . S
C348 C350 1.419 . S
C349 C344 1.425 . S
C349 C346 1.409 . S
C349 C347 1.415 . S
C350 H340 0.930 . S
C350 C348 1.419 . S
C350 C351 1.362 . S
C351 H341 0.930 . S
C351 C344 1.409 . S
C351 C350 1.362 . S
H352 C358 0.930 . S
H353 C361 0.930 . S
H354 C362 0.930 . S
H355 C363 0.930 . S
H356 C366 0.930 . S
H357 C367 0.930 . S
C358 H352 0.930 . S
C358 C359 1.355 . S
C358 C360 1.415 . S
C359 C358 1.355 . S
C359 C361 1.419 . S
C360 C358 1.415 . S
C360 C365 1.425 . S
C360 C367 1.409 . S
C361 H353 0.930 . S
C361 C359 1.419 . S
C361 C362 1.362 . S
C362 H354 0.930 . S
C362 C361 1.362 . S
C362 C365 1.409 . S
C363 H355 0.930 . S
C363 C364 1.355 . S
C363 C365 1.415 . S
C364 C363 1.355 . S
C364 C366 1.419 . S
C365 C360 1.425 . S
C365 C362 1.409 . S
C365 C363 1.415 . S
C366 H356 0.930 . S
C366 C364 1.419 . S
C366 C367 1.362 . S
C367 H357 0.930 . S
C367 C360 1.409 . S
C367 C366 1.362 . S
H368 C374 0.930 . S
H369 C377 0.930 . S
H370 C378 0.930 . S
H371 C379 0.930 . S
H372 C382 0.930 . S
H373 C383 0.930 . S
C374 H368 0.930 . S
C374 C375 1.355 . S
C374 C376 1.415 . S
C375 C374 1.355 . S
C375 C377 1.419 . S
C376 C374 1.415 . S
C376 C381 1.425 . S
C376 C383 1.409 . S
C377 H369 0.930 . S
C377 C375 1.419 . S
C377 C378 1.362 . S
C378 H370 0.930 . S
C378 C377 1.362 . S
C378 C381 1.409 . S
C379 H371 0.930 . S
C379 C380 1.355 . S
C379 C381 1.415 . S
C380 C379 1.355 . S
C380 C382 1.419 . S
C381 C376 1.425 . S
C381 C378 1.409 . S
C381 C379 1.415 . S
C382 H372 0.930 . S
C382 C380 1.419 . S
C382 C383 1.362 . S
C383 H373 0.930 . S
C383 C376 1.409 . S
C383 C382 1.362 . S
H384 C390 0.930 . S
H385 C393 0.930 . S
H386 C394 0.930 . S
H387 C395 0.930 . S
H388 C398 0.930 . S
H389 C399 0.930 . S
C390 H384 0.930 . S
C390 C391 1.355 1_655 S
C390 C392 1.415 . S
C391 C390 1.355 1_455 S
C391 C393 1.419 . S
C392 C390 1.415 . S
C392 C397 1.425 1_655 S
C392 C399 1.409 . S
C393 H385 0.930 . S
C393 C391 1.419 . S
C393 C394 1.362 . S
C394 H386 0.930 . S
C394 C393 1.362 . S
C394 C397 1.409 . S
C395 H387 0.930 . S
C395 C396 1.355 1_455 S
C395 C397 1.415 . S
C396 C395 1.355 1_655 S
C396 C398 1.419 . S
C397 C392 1.425 1_455 S
C397 C394 1.409 . S
C397 C395 1.415 . S
C398 H388 0.930 . S
C398 C396 1.419 . S
C398 C399 1.362 . S
C399 H389 0.930 . S
C399 C392 1.409 . S
C399 C398 1.362 . S
H400 C406 0.930 1_655 S
H401 C409 0.930 . S
H402 C410 0.930 . S
H403 C411 0.930 . S
H404 C414 0.930 . S
H405 C415 0.930 . S
C406 H400 0.930 1_455 S
C406 C407 1.355 . S
C406 C408 1.415 . S
C407 C406 1.355 . S
C407 C409 1.419 . S
C408 C406 1.415 . S
C408 C413 1.425 . S
C408 C415 1.409 1_455 S
C409 H401 0.930 . S
C409 C407 1.419 . S
C409 C410 1.362 . S
C410 H402 0.930 . S
C410 C409 1.362 . S
C410 C413 1.409 . S
C411 H403 0.930 . S
C411 C412 1.355 1_455 S
C411 C413 1.415 . S
C412 C411 1.355 1_655 S
C412 C414 1.419 . S
C413 C408 1.425 . S
C413 C410 1.409 . S
C413 C411 1.415 . S
C414 H404 0.930 . S
C414 C412 1.419 . S
C414 C415 1.362 . S
C415 H405 0.930 . S
C415 C408 1.409 1_655 S
C415 C414 1.362 . S
H416 C422 0.930 . S
H417 C425 0.930 . S
H418 C426 0.930 . S
H419 C427 0.930 . S
H420 C430 0.930 . S
H421 C431 0.930 . S
C422 H416 0.930 . S
C422 C423 1.355 . S
C422 C424 1.415 . S
C423 C422 1.355 . S
C423 C425 1.419 . S
C424 C422 1.415 . S
C424 C429 1.425 . S
C424 C431 1.409 . S
C425 H417 0.930 . S
C425 C423 1.419 . S
C425 C426 1.362 . S
C426 H418 0.930 . S
C426 C425 1.362 . S
C426 C429 1.409 . S
C427 H419 0.930 . S
C427 C428 1.355 . S
C427 C429 1.415 . S
C428 C427 1.355 . S
C428 C430 1.419 . S
C429 C424 1.425 . S
C429 C426 1.409 . S
C429 C427 1.415 . S
C430 H420 0.930 . S
C430 C428 1.419 . S
C430 C431 1.362 . S
C431 H421 0.930 . S
C431 C424 1.409 . S
C431 C430 1.362 . S
H432 C438 0.930 . S
H433 C441 0.930 . S
H434 C442 0.930 . S
H435 C443 0.930 . S
H436 C446 0.930 . S
H437 C447 0.930 . S
C438 H432 0.930 . S
C438 C439 1.355 . S
C438 C440 1.415 . S
C439 C438 1.355 . S
C439 C441 1.419 . S
C440 C438 1.415 . S
C440 C445 1.425 . S
C440 C447 1.409 . S
C441 H433 0.930 . S
C441 C439 1.419 . S
C441 C442 1.362 . S
C442 H434 0.930 . S
C442 C441 1.362 . S
C442 C445 1.409 . S
C443 H435 0.930 . S
C443 C444 1.355 . S
C443 C445 1.415 . S
C444 C443 1.355 . S
C444 C446 1.419 . S
C445 C440 1.425 . S
C445 C442 1.409 . S
C445 C443 1.415 . S
C446 H436 0.930 . S
C446 C444 1.419 . S
C446 C447 1.362 . S
C447 H437 0.930 . S
C447 C440 1.409 . S
C447 C446 1.362 . S
H448 C454 0.930 . S
H449 C457 0.930 1_455 S
H450 C458 0.930 . S
H451 C459 0.930 . S
H452 C462 0.930 . S
H453 C463 0.930 . S
C454 H448 0.930 . S
C454 C455 1.351 1_655 S
C454 C456 1.415 . S
C455 C454 1.351 1_455 S
C455 C457 1.418 1_455 S
C456 C454 1.415 . S
C456 C461 1.425 . S
C456 C463 1.409 . S
C457 H449 0.930 1_655 S
C457 C455 1.418 1_655 S
C457 C458 1.362 . S
C458 H450 0.930 . S
C458 C457 1.362 . S
C458 C461 1.409 . S
C459 H451 0.930 . S
C459 C460 1.355 . S
C459 C461 1.415 . S
C460 C459 1.355 . S
C460 C462 1.419 . S
C461 C456 1.425 . S
C461 C458 1.409 . S
C461 C459 1.415 . S
C462 H452 0.930 . S
C462 C460 1.419 . S
C462 C463 1.362 . S
C463 H453 0.930 . S
C463 C456 1.409 . S
C463 C462 1.362 . S
H464 C470 0.930 . S
H465 C473 0.930 . S
H466 C474 0.930 . S
H467 C475 0.930 . S
H468 C478 0.930 . S
H469 C479 0.930 . S
C470 H464 0.930 . S
C470 C471 1.355 . S
C470 C472 1.415 . S
C471 C470 1.355 . S
C471 C473 1.419 . S
C472 C470 1.415 . S
C472 C477 1.425 . S
C472 C479 1.409 . S
C473 H465 0.930 . S
C473 C471 1.419 . S
C473 C474 1.362 . S
C474 H466 0.930 . S
C474 C473 1.362 . S
C474 C477 1.409 . S
C475 H467 0.930 . S
C475 C476 1.355 . S
C475 C477 1.415 . S
C476 C475 1.355 . S
C476 C478 1.419 . S
C477 C472 1.425 . S
C477 C474 1.409 . S
C477 C475 1.415 . S
C478 H468 0.930 . S
C478 C476 1.419 . S
C478 C479 1.362 . S
C479 H469 0.930 . S
C479 C472 1.409 . S
C479 C478 1.362 . S
H480 C486 0.930 . S
H481 C489 0.930 . S
H482 C490 0.930 . S
H483 C491 0.929 1_554 S
H484 C494 0.930 . S
H485 C495 0.930 . S
C486 H480 0.930 . S
C486 C487 1.355 . S
C486 C488 1.415 . S
C487 C486 1.355 . S
C487 C489 1.419 . S
C488 C486 1.415 . S
C488 C493 1.425 . S
C488 C495 1.409 1_554 S
C489 H481 0.930 . S
C489 C487 1.419 . S
C489 C490 1.362 . S
C490 H482 0.930 . S
C490 C489 1.362 . S
C490 C493 1.409 . S
C491 H483 0.929 1_556 S
C491 C492 1.355 . S
C491 C493 1.415 1_556 S
C492 C491 1.355 . S
C492 C494 1.419 . S
C493 C488 1.425 . S
C493 C490 1.409 . S
C493 C491 1.415 1_554 S
C494 H484 0.930 . S
C494 C492 1.419 . S
C494 C495 1.362 . S
C495 H485 0.930 . S
C495 C488 1.409 1_556 S
C495 C494 1.362 . S
H496 C502 0.930 . S
H497 C505 0.930 . S
H498 C506 0.930 . S
H499 C507 0.930 . S
H500 C510 0.930 . S
H501 C511 0.930 . S
C502 H496 0.930 . S
C502 C503 1.355 . S
C502 C504 1.415 . S
C503 C502 1.355 . S
C503 C505 1.419 . S
C504 C502 1.415 . S
C504 C509 1.425 . S
C504 C511 1.409 . S
C505 H497 0.930 . S
C505 C503 1.419 . S
C505 C506 1.362 . S
C506 H498 0.930 . S
C506 C505 1.362 . S
C506 C509 1.409 . S
C507 H499 0.930 . S
C507 C508 1.355 . S
C507 C509 1.415 . S
C508 C507 1.355 . S
C508 C510 1.419 . S
C509 C504 1.425 . S
C509 C506 1.409 . S
C509 C507 1.415 . S
C510 H500 0.930 . S
C510 C508 1.419 . S
C510 C511 1.362 . S
C511 H501 0.930 . S
C511 C504 1.409 . S
C511 C510 1.362 . S
H512 C518 0.930 . S
H513 C521 0.930 . S
H514 C522 0.930 . S
H515 C523 0.930 . S
H516 C526 0.930 . S
H517 C527 0.930 . S
C518 H512 0.930 . S
C518 C519 1.355 . S
C518 C520 1.415 1_554 S
C519 C518 1.355 . S
C519 C521 1.419 1_554 S
C520 C518 1.415 1_556 S
C520 C525 1.425 . S
C520 C527 1.409 1_455 S
C521 H513 0.930 . S
C521 C519 1.419 1_556 S
C521 C522 1.362 . S
C522 H514 0.930 . S
C522 C521 1.362 . S
C522 C525 1.409 . S
C523 H515 0.930 . S
C523 C524 1.355 . S
C523 C525 1.415 . S
C524 C523 1.355 . S
C524 C526 1.419 1_455 S
C525 C520 1.425 . S
C525 C522 1.409 . S
C525 C523 1.415 . S
C526 H516 0.930 . S
C526 C524 1.419 1_655 S
C526 C527 1.362 . S
C527 H517 0.930 . S
C527 C520 1.409 1_655 S
C527 C526 1.362 . S
H528 C534 0.930 . S
H529 C537 0.930 . S
H530 C538 0.930 . S
H531 C539 0.930 . S
H532 C542 0.930 . S
H533 C543 0.930 . S
C534 H528 0.930 . S
C534 C535 1.355 . S
C534 C536 1.415 . S
C535 C534 1.355 . S
C535 C537 1.419 . S
C536 C534 1.415 . S
C536 C541 1.425 . S
C536 C543 1.409 . S
C537 H529 0.930 . S
C537 C535 1.419 . S
C537 C538 1.362 . S
C538 H530 0.930 . S
C538 C537 1.362 . S
C538 C541 1.409 . S
C539 H531 0.930 . S
C539 C540 1.355 . S
C539 C541 1.415 . S
C540 C539 1.355 . S
C540 C542 1.419 . S
C541 C536 1.425 . S
C541 C538 1.409 . S
C541 C539 1.415 . S
C542 H532 0.930 . S
C542 C540 1.419 . S
C542 C543 1.362 . S
C543 H533 0.930 . S
C543 C536 1.409 . S
C543 C542 1.362 . S
H544 C550 0.930 . S
H545 C553 0.930 . S
H546 C554 0.930 . S
H547 C555 0.930 . S
H548 C558 0.930 . S
H549 C559 0.930 . S
C550 H544 0.930 . S
C550 C551 1.355 . S
C550 C552 1.415 . S
C551 C550 1.355 . S
C551 C553 1.419 . S
C552 C550 1.415 . S
C552 C557 1.425 . S
C552 C559 1.409 . S
C553 H545 0.930 . S
C553 C551 1.419 . S
C553 C554 1.362 . S
C554 H546 0.930 . S
C554 C553 1.362 . S
C554 C557 1.409 . S
C555 H547 0.930 . S
C555 C556 1.355 . S
C555 C557 1.415 . S
C556 C555 1.355 . S
C556 C558 1.419 . S
C557 C552 1.425 . S
C557 C554 1.409 . S
C557 C555 1.415 . S
C558 H548 0.930 . S
C558 C556 1.419 . S
C558 C559 1.362 . S
C559 H549 0.930 . S
C559 C552 1.409 . S
C559 C558 1.362 . S
H560 C566 0.930 . S
H561 C569 0.930 . S
H562 C570 0.930 . S
H563 C571 0.930 . S
H564 C574 0.930 . S
H565 C575 0.930 . S
C566 H560 0.930 . S
C566 C567 1.355 . S
C566 C568 1.415 . S
C567 C566 1.355 . S
C567 C569 1.419 . S
C568 C566 1.415 . S
C568 C573 1.425 . S
C568 C575 1.409 . S
C569 H561 0.930 . S
C569 C567 1.419 . S
C569 C570 1.362 . S
C570 H562 0.930 . S
C570 C569 1.362 . S
C570 C573 1.409 . S
C571 H563 0.930 . S
C571 C572 1.355 . S
C571 C573 1.415 . S
C572 C571 1.355 . S
C572 C574 1.419 . S
C573 C568 1.425 . S
C573 C570 1.409 . S
C573 C571 1.415 . S
C574 H564 0.930 . S
C574 C572 1.419 . S
C574 C575 1.362 . S
C575 H565 0.930 . S
C575 C568 1.409 . S
C575 C574 1.362 . S
H576 C582 0.930 . S
H577 C585 0.930 . S
H578 C586 0.930 . S
H579 C587 0.930 1_565 S
H580 C590 0.931 1_565 S
H581 C591 0.930 . S
C582 H576 0.930 . S
C582 C583 1.355 . S
C582 C584 1.415 . S
C583 C582 1.355 . S
C583 C585 1.419 . S
C584 C582 1.415 . S
C584 C589 1.425 . S
C584 C591 1.409 . S
C585 H577 0.930 . S
C585 C583 1.419 . S
C585 C586 1.362 . S
C586 H578 0.930 . S
C586 C585 1.362 . S
C586 C589 1.409 . S
C587 H579 0.930 1_545 S
C587 C588 1.355 1_545 S
C587 C589 1.415 . S
C588 C587 1.355 1_565 S
C588 C590 1.420 1_565 S
C589 C584 1.425 . S
C589 C586 1.409 . S
C589 C587 1.415 . S
C590 H580 0.931 1_545 S
C590 C588 1.420 1_545 S
C590 C591 1.360 . S
C591 H581 0.930 . S
C591 C584 1.409 . S
C591 C590 1.360 . S
H592 C598 0.930 . S
H593 C601 0.930 . S
H594 C602 0.930 . S
H595 C603 0.930 . S
H596 C606 0.930 . S
H597 C607 0.930 . S
C598 H592 0.930 . S
C598 C599 1.355 . S
C598 C600 1.415 . S
C599 C598 1.355 . S
C599 C601 1.419 . S
C600 C598 1.415 . S
C600 C605 1.425 . S
C600 C607 1.409 . S
C601 H593 0.930 . S
C601 C599 1.419 . S
C601 C602 1.362 . S
C602 H594 0.930 . S
C602 C601 1.362 . S
C602 C605 1.409 . S
C603 H595 0.930 . S
C603 C604 1.355 . S
C603 C605 1.415 . S
C604 C603 1.355 . S
C604 C606 1.419 . S
C605 C600 1.425 . S
C605 C602 1.409 . S
C605 C603 1.415 . S
C606 H596 0.930 . S
C606 C604 1.419 . S
C606 C607 1.362 . S
C607 H597 0.930 . S
C607 C600 1.409 . S
C607 C606 1.362 . S
H608 C614 0.930 . S
H609 C617 0.930 . S
H610 C618 0.930 . S
H611 C619 0.930 . S
H612 C622 0.930 . S
H613 C623 0.930 . S
C614 H608 0.930 . S
C614 C615 1.355 1_565 S
C614 C616 1.415 . S
C615 C614 1.355 1_545 S
C615 C617 1.419 . S
C616 C614 1.415 . S
C616 C621 1.425 . S
C616 C623 1.409 . S
C617 H609 0.930 . S
C617 C615 1.419 . S
C617 C618 1.362 1_545 S
C618 H610 0.930 . S
C618 C617 1.362 1_565 S
C618 C621 1.409 . S
C619 H611 0.930 . S
C619 C620 1.355 . S
C619 C621 1.415 . S
C620 C619 1.355 . S
C620 C622 1.419 . S
C621 C616 1.425 . S
C621 C618 1.409 . S
C621 C619 1.415 . S
C622 H612 0.930 . S
C622 C620 1.419 . S
C622 C623 1.362 . S
C623 H613 0.930 . S
C623 C616 1.409 . S
C623 C622 1.362 . S
H624 C630 0.930 . S
H625 C633 0.930 . S
H626 C634 0.930 . S
H627 C635 0.930 . S
H628 C638 0.930 . S
H629 C639 0.930 . S
C630 H624 0.930 . S
C630 C631 1.355 . S
C630 C632 1.415 . S
C631 C630 1.355 . S
C631 C633 1.419 . S
C632 C630 1.415 . S
C632 C637 1.425 . S
C632 C639 1.409 . S
C633 H625 0.930 . S
C633 C631 1.419 . S
C633 C634 1.362 . S
C634 H626 0.930 . S
C634 C633 1.362 . S
C634 C637 1.409 . S
C635 H627 0.930 . S
C635 C636 1.355 . S
C635 C637 1.415 . S
C636 C635 1.355 . S
C636 C638 1.419 . S
C637 C632 1.425 . S
C637 C634 1.409 . S
C637 C635 1.415 . S
C638 H628 0.930 . S
C638 C636 1.419 . S
C638 C639 1.362 . S
C639 H629 0.930 . S
C639 C632 1.409 . S
C639 C638 1.362 . S
H640 C646 0.930 . S
H641 C649 0.930 . S
H642 C650 0.930 . S
H643 C651 0.930 . S
H644 C654 0.930 . S
H645 C655 0.930 . S
C646 H640 0.930 . S
C646 C647 1.355 . S
C646 C648 1.415 . S
C647 C646 1.355 . S
C647 C649 1.419 . S
C648 C646 1.415 . S
C648 C653 1.425 . S
C648 C655 1.409 . S
C649 H641 0.930 . S
C649 C647 1.419 . S
C649 C650 1.362 . S
C650 H642 0.930 . S
C650 C649 1.362 . S
C650 C653 1.409 . S
C651 H643 0.930 . S
C651 C652 1.355 . S
C651 C653 1.415 . S
C652 C651 1.355 . S
C652 C654 1.419 1_556 S
C653 C648 1.425 . S
C653 C650 1.409 . S
C653 C651 1.415 . S
C654 H644 0.930 . S
C654 C652 1.419 1_554 S
C654 C655 1.362 1_554 S
C655 H645 0.930 . S
C655 C648 1.409 . S
C655 C654 1.362 1_556 S
H656 C662 0.930 . S
H657 C665 0.930 . S
H658 C666 0.930 . S
H659 C667 0.930 . S
H660 C670 0.930 . S
H661 C671 0.930 . S
C662 H656 0.930 . S
C662 C663 1.355 . S
C662 C664 1.415 . S
C663 C662 1.355 . S
C663 C665 1.419 . S
C664 C662 1.415 . S
C664 C669 1.425 . S
C664 C671 1.409 . S
C665 H657 0.930 . S
C665 C663 1.419 . S
C665 C666 1.362 . S
C666 H658 0.930 . S
C666 C665 1.362 . S
C666 C669 1.409 . S
C667 H659 0.930 . S
C667 C668 1.355 . S
C667 C669 1.415 . S
C668 C667 1.355 . S
C668 C670 1.419 . S
C669 C664 1.425 . S
C669 C666 1.409 . S
C669 C667 1.415 . S
C670 H660 0.930 . S
C670 C668 1.419 . S
C670 C671 1.362 . S
C671 H661 0.930 . S
C671 C664 1.409 . S
C671 C670 1.362 . S
H672 C678 0.930 . S
H673 C681 0.930 . S
H674 C682 0.930 . S
H675 C683 0.930 . S
H676 C686 0.930 . S
H677 C687 0.930 . S
C678 H672 0.930 . S
C678 C679 1.355 . S
C678 C680 1.415 . S
C679 C678 1.355 . S
C679 C681 1.419 . S
C680 C678 1.415 . S
C680 C685 1.425 . S
C680 C687 1.409 . S
C681 H673 0.930 . S
C681 C679 1.419 . S
C681 C682 1.362 . S
C682 H674 0.930 . S
C682 C681 1.362 . S
C682 C685 1.409 . S
C683 H675 0.930 . S
C683 C684 1.355 . S
C683 C685 1.415 . S
C684 C683 1.355 . S
C684 C686 1.419 . S
C685 C680 1.425 . S
C685 C682 1.409 . S
C685 C683 1.415 . S
C686 H676 0.930 . S
C686 C684 1.419 . S
C686 C687 1.362 . S
C687 H677 0.930 . S
C687 C680 1.409 . S
C687 C686 1.362 . S
H688 C694 0.930 . S
H689 C697 0.930 . S
H690 C698 0.930 . S
H691 C699 0.930 . S
H692 C702 0.930 . S
H693 C703 0.930 . S
C694 H688 0.930 . S
C694 C695 1.355 . S
C694 C696 1.415 . S
C695 C694 1.355 . S
C695 C697 1.419 . S
C696 C694 1.415 . S
C696 C701 1.425 . S
C696 C703 1.409 . S
C697 H689 0.930 . S
C697 C695 1.419 . S
C697 C698 1.362 . S
C698 H690 0.930 . S
C698 C697 1.362 . S
C698 C701 1.409 . S
C699 H691 0.930 . S
C699 C700 1.355 . S
C699 C701 1.415 . S
C700 C699 1.355 . S
C700 C702 1.419 . S
C701 C696 1.425 . S
C701 C698 1.409 . S
C701 C699 1.415 . S
C702 H692 0.930 . S
C702 C700 1.419 . S
C702 C703 1.362 . S
C703 H693 0.930 . S
C703 C696 1.409 . S
C703 C702 1.362 . S
H704 C710 0.930 . S
H705 C713 0.930 . S
H706 C714 0.930 . S
H707 C715 0.930 . S
H708 C718 0.930 . S
H709 C719 0.930 . S
C710 H704 0.930 . S
C710 C711 1.355 . S
C710 C712 1.415 . S
C711 C710 1.355 . S
C711 C713 1.419 . S
C712 C710 1.415 . S
C712 C717 1.425 . S
C712 C719 1.409 . S
C713 H705 0.930 . S
C713 C711 1.419 . S
C713 C714 1.362 . S
C714 H706 0.930 . S
C714 C713 1.362 . S
C714 C717 1.409 . S
C715 H707 0.930 . S
C715 C716 1.355 . S
C715 C717 1.415 . S
C716 C715 1.355 . S
C716 C718 1.419 . S
C717 C712 1.425 . S
C717 C714 1.409 . S
C717 C715 1.415 . S
C718 H708 0.930 . S
C718 C716 1.419 . S
C718 C719 1.362 . S
C719 H709 0.930 . S
C719 C712 1.409 . S
C719 C718 1.362 . S
H720 C726 0.930 . S
H721 C729 0.930 . S
H722 C730 0.930 . S
H723 C731 0.930 . S
H724 C734 0.930 . S
H725 C735 0.930 . S
C726 H720 0.930 . S
C726 C727 1.355 . S
C726 C728 1.415 . S
C727 C726 1.355 . S
C727 C729 1.419 . S
C728 C726 1.415 . S
C728 C733 1.425 . S
C728 C735 1.409 . S
C729 H721 0.930 . S
C729 C727 1.419 . S
C729 C730 1.362 . S
C730 H722 0.930 . S
C730 C729 1.362 . S
C730 C733 1.409 . S
C731 H723 0.930 . S
C731 C732 1.355 1_455 S
C731 C733 1.415 . S
C732 C731 1.355 1_655 S
C732 C734 1.419 . S
C733 C728 1.425 . S
C733 C730 1.409 . S
C733 C731 1.415 . S
C734 H724 0.930 . S
C734 C732 1.419 . S
C734 C735 1.362 1_655 S
C735 H725 0.930 . S
C735 C728 1.409 . S
C735 C734 1.362 1_455 S
H736 C742 0.930 . S
H737 C745 0.930 . S
H738 C746 0.930 . S
H739 C747 0.930 . S
H740 C750 0.930 . S
H741 C751 0.930 . S
C742 H736 0.930 . S
C742 C743 1.355 . S
C742 C744 1.415 . S
C743 C742 1.355 . S
C743 C745 1.419 . S
C744 C742 1.415 . S
C744 C749 1.425 . S
C744 C751 1.409 . S
C745 H737 0.930 . S
C745 C743 1.419 . S
C745 C746 1.362 . S
C746 H738 0.930 . S
C746 C745 1.362 . S
C746 C749 1.409 . S
C747 H739 0.930 . S
C747 C748 1.355 . S
C747 C749 1.415 . S
C748 C747 1.355 . S
C748 C750 1.419 . S
C749 C744 1.425 . S
C749 C746 1.409 . S
C749 C747 1.415 . S
C750 H740 0.930 . S
C750 C748 1.419 . S
C750 C751 1.362 . S
C751 H741 0.930 . S
C751 C744 1.409 . S
C751 C750 1.362 . S
H752 C758 0.930 . S
H753 C761 0.930 . S
H754 C762 0.930 . S
H755 C763 0.930 . S
H756 C766 0.930 . S
H757 C767 0.930 . S
C758 H752 0.930 . S
C758 C759 1.355 . S
C758 C760 1.415 . S
C759 C758 1.355 . S
C759 C761 1.419 . S
C760 C758 1.415 . S
C760 C765 1.425 . S
C760 C767 1.409 . S
C761 H753 0.930 . S
C761 C759 1.419 . S
C761 C762 1.362 . S
C762 H754 0.930 . S
C762 C761 1.362 . S
C762 C765 1.409 . S
C763 H755 0.930 . S
C763 C764 1.355 . S
C763 C765 1.415 . S
C764 C763 1.355 . S
C764 C766 1.419 . S
C765 C760 1.425 . S
C765 C762 1.409 . S
C765 C763 1.415 . S
C766 H756 0.930 . S
C766 C764 1.419 . S
C766 C767 1.362 . S
C767 H757 0.930 . S
C767 C760 1.409 . S
C767 C766 1.362 . S
H768 C774 0.930 . S
H769 C777 0.930 . S
H770 C778 0.930 . S
H771 C779 0.930 . S
H772 C782 0.930 . S
H773 C783 0.930 . S
C774 H768 0.930 . S
C774 C775 1.355 . S
C774 C776 1.415 . S
C775 C774 1.355 . S
C775 C777 1.419 . S
C776 C774 1.415 . S
C776 C781 1.425 . S
C776 C783 1.409 . S
C777 H769 0.930 . S
C777 C775 1.419 . S
C777 C778 1.362 . S
C778 H770 0.930 . S
C778 C777 1.362 . S
C778 C781 1.409 . S
C779 H771 0.930 . S
C779 C780 1.355 . S
C779 C781 1.415 . S
C780 C779 1.355 . S
C780 C782 1.419 . S
C781 C776 1.425 . S
C781 C778 1.409 . S
C781 C779 1.415 . S
C782 H772 0.930 . S
C782 C780 1.419 . S
C782 C783 1.362 . S
C783 H773 0.930 . S
C783 C776 1.409 . S
C783 C782 1.362 . S
H784 C790 0.930 . S
H785 C793 0.930 . S
H786 C794 0.930 . S
H787 C795 0.930 . S
H788 C798 0.930 . S
H789 C799 0.930 . S
C790 H784 0.930 . S
C790 C791 1.355 . S
C790 C792 1.415 . S
C791 C790 1.355 . S
C791 C793 1.419 . S
C792 C790 1.415 . S
C792 C797 1.425 . S
C792 C799 1.409 . S
C793 H785 0.930 . S
C793 C791 1.419 . S
C793 C794 1.362 . S
C794 H786 0.930 . S
C794 C793 1.362 . S
C794 C797 1.409 . S
C795 H787 0.930 . S
C795 C796 1.355 . S
C795 C797 1.415 . S
C796 C795 1.355 . S
C796 C798 1.419 . S
C797 C792 1.425 . S
C797 C794 1.409 . S
C797 C795 1.415 . S
C798 H788 0.930 . S
C798 C796 1.419 . S
C798 C799 1.362 . S
C799 H789 0.930 . S
C799 C792 1.409 . S
C799 C798 1.362 . S
H800 C806 0.930 . S
H801 C809 0.930 . S
H802 C810 0.930 . S
H803 C811 0.930 . S
H804 C814 0.930 . S
H805 C815 0.928 1_655 S
C806 H800 0.930 . S
C806 C807 1.355 . S
C806 C808 1.415 . S
C807 C806 1.355 . S
C807 C809 1.419 . S
C808 C806 1.415 . S
C808 C813 1.425 . S
C808 C815 1.409 1_655 S
C809 H801 0.930 . S
C809 C807 1.419 . S
C809 C810 1.362 . S
C810 H802 0.930 . S
C810 C809 1.362 . S
C810 C813 1.409 . S
C811 H803 0.930 . S
C811 C812 1.355 . S
C811 C813 1.415 1_455 S
C812 C811 1.355 . S
C812 C814 1.419 . S
C813 C808 1.425 . S
C813 C810 1.409 . S
C813 C811 1.415 1_655 S
C814 H804 0.930 . S
C814 C812 1.419 . S
C814 C815 1.362 . S
C815 H805 0.928 1_455 S
C815 C808 1.409 1_455 S
C815 C814 1.362 . S
C247 C9 1.579 . S
C252 C226 1.657 . S
C263 C189 1.780 . S
C268 C29 1.711 1_655 S
C279 C46 1.241 . S
C284 C166 1.174 . S
C295 C69 1.469 . S
C300 C206 1.379 . S
C311 C86 1.584 . S
C316 C209 1.633 . S
C327 C109 1.705 1_455 S
C332 C229 1.694 . S
C343 C186 1.598 . S
C348 C129 1.568 . S
C359 C146 1.382 . S
C364 C169 1.480 . S
C375 C66 1.552 . S
C380 C89 1.611 . S
C391 C6 1.222 . S
C396 C106 1.294 . S
C407 C26 1.289 . S
C412 C126 1.211 1_556 S
C423 C149 1.979 . S
C428 C49 1.997 . S
C439 C8 1.426 . S
C444 C176 1.410 . S
C455 C28 1.431 . S
C460 C216 1.343 . S
C471 C236 1.747 . S
C476 C59 1.722 . S
C487 C68 1.680 . S
C492 C181 1.753 . S
C503 C99 1.640 . S
C508 C196 1.724 . S
C519 C161 1.587 . S
C524 C108 1.566 1_455 S
C535 C201 1.565 . S
C540 C128 1.565 . S
C551 C221 1.815 . S
C556 C159 1.744 . S
C567 C16 1.301 . S
C572 C79 1.207 . S
C583 C19 1.348 . S
C588 C36 1.337 . S
C599 C39 1.274 . S
C604 C41 1.304 . S
C615 C76 1.343 . S
C620 C48 1.445 . S
C631 C119 1.658 . S
C636 C81 1.716 . S
C647 C116 1.786 . S
C652 C139 1.736 1_556 S
C663 C136 1.638 . S
C668 C148 1.658 . S
C679 C88 1.975 . S
C684 C141 1.986 . S
C695 C168 1.592 . S
C700 C61 1.626 . S
C711 C101 1.775 . S
C716 C188 1.719 . S
C727 C179 1.302 . S
C732 C121 1.437 . S
C743 C219 1.459 . S
C748 C156 1.564 . S
C759 C96 1.436 . S
C764 C239 1.453 . S
C775 C228 1.646 . S
C780 C21 1.606 . S
C791 C56 1.573 . S
C796 C199 1.488 . S
C807 C208 1.493 1_545 S
C812 C1 1.494 . S
