# Generated by pormake.
# Topology wlk, (5)-cn, num edge types: 1
# Building blocks:
#     Node 0, Type 0, BuildingBlock: BEQFEK_clean_sbu_0, # of connection points: 5
#     Node 1, Type 0, BuildingBlock: BEQFEK_clean_sbu_0, # of connection points: 5
#     Node 2, Type 0, BuildingBlock: BEQFEK_clean_sbu_0, # of connection points: 5
#     Node 3, Type 0, BuildingBlock: BEQFEK_clean_sbu_0, # of connection points: 5
#     Node 4, Type 0, BuildingBlock: BEQFEK_clean_sbu_0, # of connection points: 5
#     Node 5, Type 0, BuildingBlock: BEQFEK_clean_sbu_0, # of connection points: 5
#     Node 6, Type 0, BuildingBlock: BEQFEK_clean_sbu_0, # of connection points: 5
#     Node 7, Type 0, BuildingBlock: BEQFEK_clean_sbu_0, # of connection points: 5
#     Node 8, Type 0, BuildingBlock: BEQFEK_clean_sbu_0, # of connection points: 5
#     Node 9, Type 0, BuildingBlock: BEQFEK_clean_sbu_0, # of connection points: 5
#     Node 10, Type 0, BuildingBlock: BEQFEK_clean_sbu_0, # of connection points: 5
#     Node 11, Type 0, BuildingBlock: BEQFEK_clean_sbu_0, # of connection points: 5
#     Node 12, Type 0, BuildingBlock: BEQFEK_clean_sbu_0, # of connection points: 5
#     Node 13, Type 0, BuildingBlock: BEQFEK_clean_sbu_0, # of connection points: 5
#     Node 14, Type 0, BuildingBlock: BEQFEK_clean_sbu_0, # of connection points: 5
#     Node 15, Type 0, BuildingBlock: BEQFEK_clean_sbu_0, # of connection points: 5
#     Node 16, Type 0, BuildingBlock: BEQFEK_clean_sbu_0, # of connection points: 5
#     Node 17, Type 0, BuildingBlock: BEQFEK_clean_sbu_0, # of connection points: 5
#     Edge 18, Type (0, 0), BuildingBlock: ZUJKAS_clean_linker_0, # of connection points: 2
#     Edge 19, Type (0, 0), BuildingBlock: ZUJKAS_clean_linker_0, # of connection points: 2
#     Edge 20, Type (0, 0), BuildingBlock: ZUJKAS_clean_linker_0, # of connection points: 2
#     Edge 21, Type (0, 0), BuildingBlock: ZUJKAS_clean_linker_0, # of connection points: 2
#     Edge 22, Type (0, 0), BuildingBlock: ZUJKAS_clean_linker_0, # of connection points: 2
#     Edge 23, Type (0, 0), BuildingBlock: ZUJKAS_clean_linker_0, # of connection points: 2
#     Edge 24, Type (0, 0), BuildingBlock: ZUJKAS_clean_linker_0, # of connection points: 2
#     Edge 25, Type (0, 0), BuildingBlock: ZUJKAS_clean_linker_0, # of connection points: 2
#     Edge 26, Type (0, 0), BuildingBlock: ZUJKAS_clean_linker_0, # of connection points: 2
#     Edge 27, Type (0, 0), BuildingBlock: ZUJKAS_clean_linker_0, # of connection points: 2
#     Edge 28, Type (0, 0), BuildingBlock: ZUJKAS_clean_linker_0, # of connection points: 2
#     Edge 29, Type (0, 0), BuildingBlock: ZUJKAS_clean_linker_0, # of connection points: 2
#     Edge 30, Type (0, 0), BuildingBlock: ZUJKAS_clean_linker_0, # of connection points: 2
#     Edge 31, Type (0, 0), BuildingBlock: ZUJKAS_clean_linker_0, # of connection points: 2
#     Edge 32, Type (0, 0), BuildingBlock: ZUJKAS_clean_linker_0, # of connection points: 2
#     Edge 33, Type (0, 0), BuildingBlock: ZUJKAS_clean_linker_0, # of connection points: 2
#     Edge 34, Type (0, 0), BuildingBlock: ZUJKAS_clean_linker_0, # of connection points: 2
#     Edge 35, Type (0, 0), BuildingBlock: ZUJKAS_clean_linker_0, # of connection points: 2
#     Edge 36, Type (0, 0), BuildingBlock: ZUJKAS_clean_linker_0, # of connection points: 2
#     Edge 37, Type (0, 0), BuildingBlock: ZUJKAS_clean_linker_0, # of connection points: 2
#     Edge 38, Type (0, 0), BuildingBlock: ZUJKAS_clean_linker_0, # of connection points: 2
#     Edge 39, Type (0, 0), BuildingBlock: ZUJKAS_clean_linker_0, # of connection points: 2
#     Edge 40, Type (0, 0), BuildingBlock: ZUJKAS_clean_linker_0, # of connection points: 2
#     Edge 41, Type (0, 0), BuildingBlock: ZUJKAS_clean_linker_0, # of connection points: 2
#     Edge 42, Type (0, 0), BuildingBlock: ZUJKAS_clean_linker_0, # of connection points: 2
#     Edge 43, Type (0, 0), BuildingBlock: ZUJKAS_clean_linker_0, # of connection points: 2
#     Edge 44, Type (0, 0), BuildingBlock: ZUJKAS_clean_linker_0, # of connection points: 2
#     Edge 45, Type (0, 0), BuildingBlock: ZUJKAS_clean_linker_0, # of connection points: 2
#     Edge 46, Type (0, 0), BuildingBlock: ZUJKAS_clean_linker_0, # of connection points: 2
#     Edge 47, Type (0, 0), BuildingBlock: ZUJKAS_clean_linker_0, # of connection points: 2
#     Edge 48, Type (0, 0), BuildingBlock: ZUJKAS_clean_linker_0, # of connection points: 2
#     Edge 49, Type (0, 0), BuildingBlock: ZUJKAS_clean_linker_0, # of connection points: 2
#     Edge 50, Type (0, 0), BuildingBlock: ZUJKAS_clean_linker_0, # of connection points: 2
#     Edge 51, Type (0, 0), BuildingBlock: ZUJKAS_clean_linker_0, # of connection points: 2
#     Edge 52, Type (0, 0), BuildingBlock: ZUJKAS_clean_linker_0, # of connection points: 2
#     Edge 53, Type (0, 0), BuildingBlock: ZUJKAS_clean_linker_0, # of connection points: 2
#     Edge 54, Type (0, 0), BuildingBlock: ZUJKAS_clean_linker_0, # of connection points: 2
#     Edge 55, Type (0, 0), BuildingBlock: ZUJKAS_clean_linker_0, # of connection points: 2
#     Edge 56, Type (0, 0), BuildingBlock: ZUJKAS_clean_linker_0, # of connection points: 2
#     Edge 57, Type (0, 0), BuildingBlock: ZUJKAS_clean_linker_0, # of connection points: 2
#     Edge 58, Type (0, 0), BuildingBlock: ZUJKAS_clean_linker_0, # of connection points: 2
#     Edge 59, Type (0, 0), BuildingBlock: ZUJKAS_clean_linker_0, # of connection points: 2
#     Edge 60, Type (0, 0), BuildingBlock: ZUJKAS_clean_linker_0, # of connection points: 2
#     Edge 61, Type (0, 0), BuildingBlock: ZUJKAS_clean_linker_0, # of connection points: 2
#     Edge 62, Type (0, 0), BuildingBlock: ZUJKAS_clean_linker_0, # of connection points: 2
# Relax obj value: 0.045
# Max RMSD: 0.100
# Mean RMSD: 0.100
data_MOF--net-wlk--node1-BEQFEK_clean_sbu_0--edge1-ZUJKAS_clean_linker_0
_symmetry_space_group_name_H-M    P1
_symmetry_Int_Tables_number       1
_symmetry_cell_setting            triclinic
loop_
_symmetry_equiv_pos_as_xyz
'x, y, z'
_cell_length_a     81.932436
_cell_length_b     81.923554
_cell_length_c     39.411648
_cell_angle_alpha  89.983019
_cell_angle_beta   90.020925
_cell_angle_gamma 120.00718
loop_
_atom_site_label
_atom_site_type_symbol
_atom_site_fract_x
_atom_site_fract_y
_atom_site_fract_z
_atom_type_partial_charge
Co0 Co 0.21721 0.26853 0.15183 0.0
Co1 Co 0.18384 0.26404 0.10579 0.0
C2 C 0.19569 0.23493 0.10614 0.0
O3 O 0.20857 0.24453 0.12759 0.0
O4 O 0.18457 0.2405 0.09569 0.0
C5 C 0.23297 0.25583 0.20234 0.0
O6 O 0.21741 0.23978 0.19669 0.0
C7 C 0.1457 0.24766 0.07607 0.0
C8 C 0.1468 0.27285 0.05329 0.0
C9 C 0.13525 0.25356 0.05713 0.0
N10 N 0.16257 0.26283 0.08313 0.0
N11 N 0.16307 0.27783 0.06953 0.0
C12 C 0.14085 0.22791 0.08442 0.0
H13 H 0.14995 0.22425 0.06921 0.0
H14 H 0.14392 0.22707 0.11159 0.0
H15 H 0.12597 0.21749 0.07871 0.0
C16 C 0.19621 0.27654 0.20316 0.0
N17 N 0.19719 0.27007 0.1723 0.0
N18 N 0.1832 0.26845 0.15339 0.0
C19 C 0.17286 0.27391 0.17185 0.0
C20 C 0.18087 0.27937 0.20397 0.0
C21 C 0.21076 0.28153 0.23028 0.0
H22 H 0.22467 0.29265 0.22075 0.0
H23 H 0.21189 0.26894 0.23646 0.0
H24 H 0.20714 0.28644 0.25383 0.0
O25 O 0.23022 0.28955 0.11939 0.0
O26 O 0.20678 0.28567 0.08561 0.0
H27 H 0.16362 0.2879 0.13778 0.0
H28 H 0.15057 0.2807 0.17706 0.0
C29 C 0.15754 0.27666 0.15732 0.0
H30 H 0.14688 0.26346 0.14483 0.0
H31 H 0.17469 0.29143 0.07084 0.0
O32 O 0.23577 0.27045 0.1862 0.0
C33 C 0.22417 0.29446 0.0938 0.0
Co34 Co 0.73491 0.94927 0.15471 0.0
Co35 Co 0.73855 0.92066 0.10664 0.0
C36 C 0.7684 0.96152 0.10921 0.0
O37 O 0.75952 0.96473 0.13227 0.0
O38 O 0.76194 0.9451 0.09667 0.0
C39 C 0.74691 0.97542 0.20935 0.0
O40 O 0.76241 0.97453 0.20623 0.0
C41 C 0.75385 0.89762 0.07761 0.0
C42 C 0.72932 0.87663 0.04826 0.0
C43 C 0.7479 0.88224 0.05595 0.0
N44 N 0.73941 0.90082 0.08241 0.0
N45 N 0.72478 0.88814 0.06492 0.0
C46 C 0.77311 0.90963 0.09228 0.0
H47 H 0.77505 0.92328 0.10127 0.0
H48 H 0.77489 0.90227 0.11439 0.0
H49 H 0.78407 0.91205 0.07321 0.0
C50 C 0.72576 0.91893 0.20422 0.0
N51 N 0.73236 0.92691 0.17371 0.0
N52 N 0.73413 0.91492 0.154 0.0
C53 C 0.72874 0.89887 0.17157 0.0
C54 C 0.72326 0.90086 0.20404 0.0
C55 C 0.71906 0.92731 0.23077 0.0
H56 H 0.71128 0.93359 0.2186 0.0
H57 H 0.73145 0.9387 0.24414 0.0
H58 H 0.70971 0.91671 0.24963 0.0
O59 O 0.71456 0.94285 0.12122 0.0
O60 O 0.71701 0.9224 0.08761 0.0
H61 H 0.71649 0.87572 0.1369 0.0
H62 H 0.72438 0.87061 0.17636 0.0
C63 C 0.72759 0.88151 0.15673 0.0
H64 H 0.7412 0.88522 0.14459 0.0
H65 H 0.71177 0.88755 0.06385 0.0
O66 O 0.733 0.96539 0.19006 0.0
C67 C 0.70904 0.9318 0.09572 0.0
Co68 Co 0.0528 0.78435 0.15103 0.0
Co69 Co 0.08234 0.81776 0.10624 0.0
C70 C 0.04177 0.8071 0.10621 0.0
O71 O 0.03812 0.7942 0.12789 0.0
O72 O 0.05849 0.81764 0.09535 0.0
C73 C 0.02779 0.7707 0.20722 0.0
O74 O 0.03174 0.78833 0.20846 0.0
C75 C 0.10481 0.85565 0.07611 0.0
C76 C 0.13083 0.85562 0.06159 0.0
C77 C 0.12242 0.86667 0.0614 0.0
N78 N 0.10295 0.83889 0.08455 0.0
N79 N 0.11852 0.83894 0.07558 0.0
C80 C 0.09049 0.86131 0.08426 0.0
H81 H 0.08288 0.85424 0.10791 0.0
H82 H 0.09723 0.87682 0.0872 0.0
H83 H 0.08008 0.85675 0.06329 0.0
C84 C 0.08225 0.80427 0.20301 0.0
N85 N 0.07478 0.80357 0.1722 0.0
N86 N 0.08693 0.81805 0.15396 0.0
C87 C 0.1024 0.82867 0.17302 0.0
C88 C 0.09999 0.82026 0.2047 0.0
C89 C 0.07395 0.78837 0.22801 0.0
H90 H 0.06643 0.77469 0.21453 0.0
H91 H 0.06374 0.78984 0.24436 0.0
H92 H 0.08493 0.78837 0.24447 0.0
O93 O 0.05993 0.77109 0.11763 0.0
O94 O 0.08084 0.79476 0.08587 0.0
H95 H 0.12775 0.84179 0.14388 0.0
H96 H 0.12871 0.85439 0.18206 0.0
C97 C 0.1196 0.84598 0.16062 0.0
H98 H 0.11543 0.85481 0.1458 0.0
H99 H 0.1208 0.82763 0.07936 0.0
O100 O 0.03554 0.76578 0.18464 0.0
C101 C 0.07142 0.77721 0.09281 0.0
Co102 Co 0.78628 0.73366 0.84855 0.0
Co103 Co 0.81881 0.73724 0.89596 0.0
C104 C 0.8074 0.76674 0.89529 0.0
O105 O 0.79493 0.75764 0.87291 0.0
O106 O 0.81798 0.76068 0.90649 0.0
C107 C 0.77101 0.74683 0.7978 0.0
O108 O 0.78633 0.76292 0.80441 0.0
C109 C 0.85745 0.75254 0.92332 0.0
C110 C 0.85392 0.72864 0.95467 0.0
C111 C 0.86698 0.74697 0.94555 0.0
N112 N 0.83966 0.73815 0.91968 0.0
N113 N 0.83773 0.72389 0.93832 0.0
C114 C 0.86466 0.77147 0.90725 0.0
H115 H 0.8529 0.7732 0.89774 0.0
H116 H 0.8737 0.77275 0.8853 0.0
H117 H 0.87326 0.78283 0.92565 0.0
C118 C 0.80764 0.72559 0.79811 0.0
N119 N 0.80639 0.73193 0.82892 0.0
N120 N 0.81999 0.73313 0.84844 0.0
C121 C 0.83029 0.72743 0.83052 0.0
C122 C 0.82273 0.72236 0.79802 0.0
C123 C 0.79353 0.72107 0.77034 0.0
H124 H 0.79256 0.73378 0.76449 0.0
H125 H 0.79748 0.71645 0.74682 0.0
H126 H 0.77946 0.70986 0.77906 0.0
O127 O 0.77263 0.7125 0.88062 0.0
O128 O 0.79555 0.71562 0.915 0.0
H129 H 0.83889 0.71423 0.86768 0.0
H130 H 0.85069 0.71796 0.82727 0.0
C131 C 0.84503 0.72401 0.84587 0.0
H132 H 0.85673 0.73752 0.8556 0.0
H133 H 0.82521 0.71102 0.94048 0.0
O134 O 0.7682 0.73206 0.81344 0.0
C135 C 0.77825 0.70719 0.90629 0.0
Co136 Co 0.26717 0.05212 0.84736 0.0
Co137 Co 0.26432 0.08168 0.89399 0.0
C138 C 0.23381 0.04112 0.89265 0.0
O139 O 0.24266 0.0374 0.87031 0.0
O140 O 0.24044 0.05775 0.90434 0.0
C141 C 0.25423 0.0234 0.7969 0.0
O142 O 0.23799 0.02235 0.80326 0.0
C143 C 0.24883 0.10446 0.92156 0.0
C144 C 0.2737 0.1276 0.94687 0.0
C145 C 0.2547 0.12074 0.94069 0.0
N146 N 0.26363 0.10186 0.91697 0.0
N147 N 0.27845 0.11572 0.93221 0.0
C148 C 0.22989 0.0921 0.90601 0.0
H149 H 0.23128 0.08505 0.88303 0.0
H150 H 0.22303 0.1004 0.89927 0.0
H151 H 0.22084 0.08102 0.92451 0.0
C152 C 0.27656 0.0818 0.79657 0.0
N153 N 0.26997 0.07433 0.82736 0.0
N154 N 0.26884 0.08688 0.84652 0.0
C155 C 0.2748 0.10286 0.82836 0.0
C156 C 0.28001 0.1002 0.7961 0.0
C157 C 0.2809 0.07194 0.76908 0.0
H158 H 0.26806 0.05832 0.76334 0.0
H159 H 0.28566 0.08041 0.74545 0.0
H160 H 0.29195 0.06889 0.77802 0.0
O161 O 0.28757 0.05872 0.88095 0.0
O162 O 0.28548 0.07964 0.91382 0.0
H163 H 0.28875 0.12531 0.86401 0.0
H164 H 0.28349 0.13253 0.82412 0.0
C165 C 0.27823 0.1211 0.8433 0.0
H166 H 0.26494 0.11916 0.8544 0.0
H167 H 0.2918 0.11706 0.93262 0.0
O168 O 0.26887 0.03552 0.81262 0.0
C169 C 0.29322 0.06996 0.90619 0.0
Co170 Co 0.95108 0.21739 0.84864 0.0
Co171 Co 0.92112 0.18408 0.89326 0.0
C172 C 0.96167 0.19425 0.8931 0.0
O173 O 0.96553 0.20725 0.87157 0.0
O174 O 0.94489 0.18384 0.90387 0.0
C175 C 0.97806 0.23239 0.79525 0.0
O176 O 0.97595 0.2154 0.79569 0.0
C177 C 0.89826 0.14618 0.92347 0.0
C178 C 0.87286 0.14701 0.93962 0.0
C179 C 0.88086 0.13558 0.9392 0.0
N180 N 0.90039 0.16307 0.91507 0.0
N181 N 0.88519 0.16347 0.92497 0.0
C182 C 0.91222 0.14014 0.9148 0.0
H183 H 0.91974 0.14711 0.89103 0.0
H184 H 0.90516 0.12461 0.91185 0.0
H185 H 0.92276 0.14451 0.93551 0.0
C186 C 0.92181 0.19789 0.79644 0.0
N187 N 0.92905 0.19834 0.82733 0.0
N188 N 0.91651 0.18409 0.84553 0.0
C189 C 0.90091 0.17397 0.82643 0.0
C190 C 0.90371 0.18248 0.79477 0.0
C191 C 0.9316 0.21279 0.76996 0.0
H192 H 0.93637 0.22688 0.78119 0.0
H193 H 0.9442 0.21237 0.76098 0.0
H194 H 0.92247 0.21067 0.74771 0.0
O195 O 0.94409 0.23066 0.88235 0.0
O196 O 0.92302 0.20711 0.9141 0.0
H197 H 0.87647 0.16391 0.85763 0.0
H198 H 0.87255 0.15062 0.81912 0.0
C199 C 0.88278 0.15815 0.83979 0.0
H200 H 0.88555 0.14803 0.85377 0.0
H201 H 0.8832 0.175 0.92163 0.0
O202 O 0.96839 0.23627 0.81544 0.0
C203 C 0.93265 0.22465 0.90725 0.0
Co204 Co 0.88393 0.60152 0.48718 0.0
Co205 Co 0.85175 0.59869 0.43987 0.0
C206 C 0.86188 0.5683 0.44118 0.0
O207 O 0.87445 0.57721 0.46352 0.0
O208 O 0.85173 0.57481 0.42974 0.0
C209 C 0.89748 0.58856 0.54128 0.0
O210 O 0.88056 0.57367 0.53895 0.0
C211 C 0.81338 0.58457 0.4117 0.0
C212 C 0.81805 0.60893 0.38047 0.0
C213 C 0.80448 0.59072 0.3892 0.0
N214 N 0.83134 0.59853 0.41586 0.0
N215 N 0.83394 0.61307 0.39729 0.0
C216 C 0.8054 0.56548 0.4275 0.0
H217 H 0.81676 0.56318 0.4373 0.0
H218 H 0.7963 0.56444 0.44918 0.0
H219 H 0.79666 0.55436 0.40883 0.0
C220 C 0.86341 0.61108 0.53736 0.0
N221 N 0.86437 0.60429 0.5068 0.0
N222 N 0.85079 0.60315 0.48728 0.0
C223 C 0.84074 0.60924 0.50499 0.0
C224 C 0.84848 0.61455 0.53731 0.0
C225 C 0.87759 0.61568 0.56504 0.0
H226 H 0.89194 0.62538 0.55515 0.0
H227 H 0.8771 0.60254 0.57342 0.0
H228 H 0.87477 0.62211 0.58739 0.0
O229 O 0.89807 0.6223 0.45465 0.0
O230 O 0.87529 0.61982 0.42063 0.0
H231 H 0.83228 0.62254 0.4678 0.0
H232 H 0.82039 0.61877 0.50811 0.0
C233 C 0.82607 0.61272 0.48954 0.0
H234 H 0.81437 0.59924 0.47971 0.0
H235 H 0.84672 0.6257 0.39549 0.0
O236 O 0.90189 0.60258 0.52194 0.0
C237 C 0.89263 0.62782 0.42903 0.0
Co238 Co 0.40142 0.28253 0.4852 0.0
Co239 Co 0.40443 0.25279 0.43933 0.0
C240 C 0.43463 0.29344 0.43929 0.0
O241 O 0.42564 0.29714 0.46141 0.0
O242 O 0.42827 0.27671 0.42826 0.0
C243 C 0.41451 0.31143 0.53534 0.0
O244 O 0.43072 0.31239 0.52913 0.0
C245 C 0.4196 0.23003 0.4097 0.0
C246 C 0.39363 0.20506 0.39137 0.0
C247 C 0.413 0.21284 0.39331 0.0
N248 N 0.40478 0.23226 0.41701 0.0
N249 N 0.38933 0.21732 0.40581 0.0
C250 C 0.4394 0.24366 0.42014 0.0
H251 H 0.43943 0.25113 0.44365 0.0
H252 H 0.44752 0.23631 0.42431 0.0
H253 H 0.44634 0.25429 0.39977 0.0
C254 C 0.39253 0.25336 0.5368 0.0
N255 N 0.39895 0.2606 0.50578 0.0
N256 N 0.40022 0.24799 0.48703 0.0
C257 C 0.39461 0.23224 0.50577 0.0
C258 C 0.38939 0.23509 0.53788 0.0
C259 C 0.38805 0.26331 0.56392 0.0
H260 H 0.40086 0.27693 0.56971 0.0
H261 H 0.38317 0.25492 0.58762 0.0
H262 H 0.37706 0.26635 0.55458 0.0
O263 O 0.38081 0.27555 0.45211 0.0
O264 O 0.38304 0.25459 0.41958 0.0
H265 H 0.37975 0.20852 0.47308 0.0
H266 H 0.38796 0.20324 0.51171 0.0
C267 C 0.39151 0.21397 0.49161 0.0
H268 H 0.40438 0.21631 0.47814 0.0
H269 H 0.37581 0.21545 0.4082 0.0
O270 O 0.39987 0.29935 0.51958 0.0
C271 C 0.37517 0.26418 0.42709 0.0
Co272 Co 0.71915 0.11871 0.48742 0.0
Co273 Co 0.74834 0.15071 0.43971 0.0
C274 C 0.70755 0.14018 0.44139 0.0
O275 O 0.70405 0.12813 0.46468 0.0
O276 O 0.72404 0.14987 0.42898 0.0
C277 C 0.69299 0.10485 0.54198 0.0
O278 O 0.69464 0.12161 0.53967 0.0
C279 C 0.77172 0.18916 0.41175 0.0
C280 C 0.79196 0.18539 0.3805 0.0
C281 C 0.78678 0.19854 0.3894 0.0
N282 N 0.76827 0.17138 0.41567 0.0
N283 N 0.78053 0.1693 0.3971 0.0
C284 C 0.76009 0.19651 0.42769 0.0
H285 H 0.7466 0.18482 0.43738 0.0
H286 H 0.76792 0.20564 0.44951 0.0
H287 H 0.75734 0.20506 0.40916 0.0
C288 C 0.74943 0.13953 0.5373 0.0
N289 N 0.74154 0.13838 0.50678 0.0
N290 N 0.75381 0.152 0.48713 0.0
C291 C 0.76997 0.16226 0.50469 0.0
C292 C 0.76774 0.15464 0.53706 0.0
C293 C 0.74009 0.12539 0.56513 0.0
H294 H 0.73547 0.11104 0.5553 0.0
H295 H 0.72744 0.1258 0.57376 0.0
H296 H 0.7495 0.12833 0.58729 0.0
O297 O 0.7256 0.10463 0.4542 0.0
O298 O 0.74668 0.12743 0.42118 0.0
H299 H 0.79165 0.17082 0.46733 0.0
H300 H 0.7998 0.18286 0.50751 0.0
C301 C 0.788 0.17702 0.48904 0.0
H302 H 0.78605 0.1886 0.47915 0.0
H303 H 0.78082 0.15675 0.39516 0.0
O304 O 0.70266 0.10066 0.52239 0.0
C305 C 0.73699 0.11006 0.4292 0.0
Co306 Co 0.45219 0.06741 0.1814 0.0
Co307 Co 0.48454 0.06952 0.22736 0.0
C308 C 0.4751 0.10051 0.22683 0.0
O309 O 0.46248 0.09196 0.20439 0.0
O310 O 0.48481 0.09352 0.23844 0.0
C311 C 0.43618 0.08046 0.13132 0.0
O312 O 0.45137 0.09674 0.13743 0.0
C313 C 0.52239 0.08433 0.25722 0.0
C314 C 0.52118 0.0582 0.27517 0.0
C315 C 0.53286 0.07757 0.27357 0.0
N316 N 0.50533 0.06961 0.24963 0.0
N317 N 0.50469 0.05405 0.26058 0.0
C318 C 0.5287 0.10421 0.24716 0.0
H319 H 0.52145 0.10443 0.22351 0.0
H320 H 0.5442 0.11233 0.24338 0.0
H321 H 0.52489 0.11104 0.26755 0.0
C322 C 0.47204 0.05803 0.12972 0.0
N323 N 0.47129 0.06437 0.16085 0.0
N324 N 0.48502 0.06529 0.17962 0.0
C325 C 0.49497 0.05951 0.16078 0.0
C326 C 0.48696 0.05457 0.12858 0.0
C327 C 0.45779 0.05404 0.10245 0.0
H328 H 0.45726 0.06705 0.09707 0.0
H329 H 0.46129 0.04928 0.0786 0.0
H330 H 0.44365 0.04312 0.11143 0.0
O331 O 0.43835 0.04699 0.21487 0.0
O332 O 0.46125 0.04836 0.24714 0.0
H333 H 0.5035 0.04428 0.19327 0.0
H334 H 0.51702 0.05243 0.15468 0.0
C335 C 0.50996 0.05608 0.17485 0.0
H336 H 0.52061 0.06884 0.18843 0.0
H337 H 0.493 0.04058 0.25797 0.0
O338 O 0.43377 0.06587 0.14709 0.0
C339 C 0.44382 0.04096 0.23971 0.0
Co340 Co 0.934 0.38535 0.18223 0.0
Co341 Co 0.92972 0.41423 0.22867 0.0
C342 C 0.90019 0.37339 0.2272 0.0
O343 O 0.90952 0.37004 0.20525 0.0
O344 O 0.9062 0.38999 0.2385 0.0
C345 C 0.92148 0.35756 0.13028 0.0
O346 O 0.90541 0.35707 0.13559 0.0
C347 C 0.91449 0.43752 0.25696 0.0
C348 C 0.93914 0.45869 0.28585 0.0
C349 C 0.92052 0.453 0.27838 0.0
N350 N 0.92893 0.43431 0.25213 0.0
N351 N 0.94363 0.44712 0.26931 0.0
C352 C 0.89516 0.42541 0.24266 0.0
H353 H 0.89324 0.41178 0.23359 0.0
H354 H 0.89319 0.43271 0.22068 0.0
H355 H 0.88431 0.42295 0.26199 0.0
C356 C 0.94303 0.41514 0.13167 0.0
N357 N 0.93636 0.40745 0.16234 0.0
N358 N 0.93442 0.41957 0.18136 0.0
C359 C 0.93975 0.43542 0.16319 0.0
C360 C 0.94541 0.43317 0.13105 0.0
C361 C 0.94982 0.40651 0.10579 0.0
H362 H 0.95812 0.40094 0.11849 0.0
H363 H 0.93747 0.39452 0.09346 0.0
H364 H 0.95871 0.41675 0.08605 0.0
O365 O 0.95432 0.39218 0.21589 0.0
O366 O 0.95096 0.41234 0.24878 0.0
H367 H 0.95182 0.45899 0.19692 0.0
H368 H 0.94372 0.46346 0.15708 0.0
C369 C 0.94068 0.45283 0.17719 0.0
H370 H 0.92705 0.4491 0.1893 0.0
H371 H 0.95664 0.44772 0.27033 0.0
O372 O 0.93591 0.36898 0.1473 0.0
C373 C 0.95929 0.40318 0.24143 0.0
Co374 Co 0.6163 0.54979 0.18087 0.0
Co375 Co 0.58739 0.51722 0.2281 0.0
C376 C 0.62825 0.52845 0.22696 0.0
O377 O 0.63151 0.54079 0.20437 0.0
O378 O 0.61169 0.51803 0.23863 0.0
C379 C 0.64281 0.56384 0.12694 0.0
O380 O 0.64123 0.54711 0.12951 0.0
C381 C 0.56378 0.47866 0.25597 0.0
C382 C 0.54356 0.48263 0.28689 0.0
C383 C 0.54863 0.46938 0.27816 0.0
N384 N 0.5674 0.4965 0.25198 0.0
N385 N 0.55515 0.49869 0.27038 0.0
C386 C 0.5753 0.47113 0.24025 0.0
H387 H 0.58896 0.48275 0.231 0.0
H388 H 0.56756 0.46218 0.21819 0.0
H389 H 0.57771 0.46234 0.25877 0.0
C390 C 0.58633 0.52884 0.13069 0.0
N391 N 0.59418 0.52992 0.16122 0.0
N392 N 0.58195 0.51614 0.18066 0.0
C393 C 0.56585 0.50585 0.16294 0.0
C394 C 0.56807 0.51362 0.13069 0.0
C395 C 0.59563 0.54317 0.10313 0.0
H396 H 0.6085 0.54311 0.09474 0.0
H397 H 0.58634 0.54015 0.08077 0.0
H398 H 0.5999 0.55741 0.11315 0.0
O399 O 0.60938 0.56356 0.21376 0.0
O400 O 0.58902 0.54046 0.24715 0.0
H401 H 0.54403 0.49695 0.20008 0.0
H402 H 0.53611 0.485 0.15978 0.0
C403 C 0.54785 0.4909 0.17837 0.0
H404 H 0.54993 0.4794 0.18821 0.0
H405 H 0.55495 0.5113 0.27222 0.0
O406 O 0.63292 0.56796 0.14612 0.0
C407 C 0.59823 0.55786 0.23911 0.0
Co408 Co 0.55026 0.93454 0.82085 0.0
Co409 Co 0.51808 0.93113 0.77274 0.0
C410 C 0.5292 0.90144 0.77405 0.0
O411 O 0.54161 0.91052 0.79656 0.0
O412 O 0.51872 0.90757 0.7626 0.0
C413 C 0.56571 0.92165 0.87214 0.0
O414 O 0.55072 0.90531 0.86537 0.0
C415 C 0.47985 0.91659 0.74358 0.0
C416 C 0.48431 0.94114 0.71319 0.0
C417 C 0.4709 0.92276 0.72122 0.0
N418 N 0.49767 0.93071 0.74832 0.0
N419 N 0.50015 0.94536 0.73024 0.0
C420 C 0.47206 0.89738 0.75876 0.0
H421 H 0.48351 0.89517 0.76833 0.0
H422 H 0.46287 0.89601 0.78052 0.0
H423 H 0.46345 0.88638 0.7398 0.0
C424 C 0.52875 0.94282 0.87062 0.0
N425 N 0.53011 0.93641 0.83995 0.0
N426 N 0.51665 0.93529 0.82011 0.0
C427 C 0.50634 0.94112 0.83767 0.0
C428 C 0.51375 0.9462 0.87026 0.0
C429 C 0.54268 0.94729 0.89868 0.0
H430 H 0.54367 0.93458 0.90453 0.0
H431 H 0.53856 0.95181 0.92212 0.0
H432 H 0.55679 0.95857 0.89026 0.0
O433 O 0.56424 0.9557 0.78891 0.0
O434 O 0.54152 0.9526 0.75407 0.0
H435 H 0.4982 0.95465 0.80041 0.0
H436 H 0.48587 0.95052 0.84032 0.0
C437 C 0.49179 0.94465 0.82185 0.0
H438 H 0.48023 0.93123 0.81153 0.0
H439 H 0.51281 0.95815 0.72898 0.0
O440 O 0.56818 0.93626 0.85637 0.0
C441 C 0.55877 0.96101 0.76304 0.0
Co442 Co 0.06584 0.61367 0.821 0.0
Co443 Co 0.0701 0.58503 0.77414 0.0
C444 C 0.0991 0.62581 0.77405 0.0
O445 O 0.0897 0.62891 0.79621 0.0
O446 O 0.09346 0.60922 0.76298 0.0
C447 C 0.07926 0.64153 0.87261 0.0
O448 O 0.0949 0.64113 0.86741 0.0
C449 C 0.08569 0.56318 0.74203 0.0
C450 C 0.05969 0.53726 0.72683 0.0
C451 C 0.07917 0.54582 0.72632 0.0
N452 N 0.07073 0.56476 0.75127 0.0
N453 N 0.05525 0.54925 0.74194 0.0
C454 C 0.10564 0.57753 0.75026 0.0
H455 H 0.10618 0.58496 0.77415 0.0
H456 H 0.11447 0.57083 0.75281 0.0
H457 H 0.11142 0.5881 0.72952 0.0
C458 C 0.0583 0.5846 0.87205 0.0
N459 N 0.06438 0.5921 0.84105 0.0
N460 N 0.0664 0.58006 0.82193 0.0
C461 C 0.06185 0.56451 0.84053 0.0
C462 C 0.05648 0.56682 0.87288 0.0
C463 C 0.05141 0.59307 0.8981 0.0
H464 H 0.04316 0.59873 0.88555 0.0
H465 H 0.06373 0.60495 0.91073 0.0
H466 H 0.04246 0.58268 0.9176 0.0
O467 O 0.04461 0.6059 0.78926 0.0
O468 O 0.0482 0.58632 0.75509 0.0
H469 H 0.0489 0.5395 0.81042 0.0
H470 H 0.06066 0.53778 0.84787 0.0
C471 C 0.06141 0.54724 0.827 0.0
H472 H 0.07423 0.55132 0.81169 0.0
H473 H 0.04163 0.5468 0.74616 0.0
O474 O 0.0646 0.63048 0.85576 0.0
C475 C 0.03949 0.59494 0.76367 0.0
Co476 Co 0.386 0.45189 0.81869 0.0
Co477 Co 0.41567 0.48461 0.77253 0.0
C478 C 0.37495 0.47411 0.77304 0.0
O479 O 0.37123 0.46148 0.79529 0.0
O480 O 0.39166 0.48434 0.76189 0.0
C481 C 0.35898 0.43764 0.87183 0.0
O482 O 0.36068 0.45442 0.86939 0.0
C483 C 0.4396 0.52326 0.74532 0.0
C484 C 0.46006 0.51939 0.71493 0.0
C485 C 0.4549 0.53261 0.72343 0.0
N486 N 0.43599 0.50542 0.74933 0.0
N487 N 0.44839 0.5033 0.73129 0.0
C488 C 0.42792 0.5307 0.76066 0.0
H489 H 0.41434 0.51907 0.77015 0.0
H490 H 0.43561 0.53986 0.78254 0.0
H491 H 0.42535 0.53924 0.74183 0.0
C492 C 0.41572 0.4721 0.86973 0.0
N493 N 0.40818 0.47135 0.83902 0.0
N494 N 0.4207 0.48518 0.82003 0.0
C495 C 0.43667 0.49519 0.83821 0.0
C496 C 0.43407 0.48716 0.87031 0.0
C497 C 0.40601 0.45766 0.89696 0.0
H498 H 0.39314 0.45785 0.90493 0.0
H499 H 0.41506 0.46045 0.91962 0.0
H500 H 0.40167 0.44344 0.88678 0.0
O501 O 0.39281 0.43817 0.78547 0.0
O502 O 0.4137 0.46136 0.75287 0.0
H503 H 0.45881 0.50415 0.80173 0.0
H504 H 0.46643 0.51585 0.8423 0.0
C505 C 0.45487 0.51013 0.82336 0.0
H506 H 0.45298 0.52176 0.81351 0.0
H507 H 0.4486 0.4907 0.72949 0.0
O508 O 0.36898 0.43356 0.85289 0.0
C509 C 0.40413 0.44391 0.76038 0.0
Co510 Co 0.12055 0.40176 0.51327 0.0
Co511 Co 0.15309 0.40521 0.56027 0.0
C512 C 0.14314 0.43577 0.55699 0.0
O513 O 0.13054 0.42668 0.5348 0.0
O514 O 0.15308 0.42922 0.5693 0.0
C515 C 0.09148 0.40625 0.48435 0.0
O516 O 0.09229 0.41373 0.51422 0.0
C517 C 0.19107 0.42111 0.58974 0.0
C518 C 0.18922 0.39619 0.61521 0.0
C519 C 0.20117 0.41529 0.60987 0.0
N520 N 0.174 0.40607 0.58348 0.0
N521 N 0.17304 0.39122 0.59863 0.0
C522 C 0.19643 0.44078 0.57962 0.0
H523 H 0.18852 0.4456 0.59565 0.0
H524 H 0.19226 0.44087 0.55285 0.0
H525 H 0.21167 0.4508 0.58292 0.0
C526 C 0.14069 0.39202 0.46312 0.0
N527 N 0.13988 0.39879 0.49375 0.0
N528 N 0.15357 0.40002 0.51301 0.0
C529 C 0.16351 0.39388 0.49507 0.0
C530 C 0.15556 0.38846 0.46288 0.0
C531 C 0.12648 0.38763 0.4356 0.0
H532 H 0.11266 0.37574 0.44376 0.0
H533 H 0.12475 0.40006 0.43125 0.0
H534 H 0.1308 0.38392 0.41146 0.0
O535 O 0.10681 0.38167 0.54739 0.0
O536 O 0.12988 0.38443 0.58096 0.0
H537 H 0.17201 0.37988 0.53058 0.0
H538 H 0.18479 0.38561 0.49098 0.0
C539 C 0.17837 0.39058 0.51017 0.0
H540 H 0.18951 0.40385 0.52175 0.0
H541 H 0.16117 0.37777 0.59823 0.0
O542 O 0.10237 0.39976 0.47815 0.0
C543 C 0.11246 0.37648 0.57318 0.0
Co544 Co 0.60274 0.71967 0.51439 0.0
Co545 Co 0.5988 0.74847 0.56151 0.0
C546 C 0.56946 0.70749 0.56069 0.0
O547 O 0.57854 0.70421 0.53814 0.0
O548 O 0.57554 0.72409 0.57211 0.0
C549 C 0.58995 0.69251 0.46154 0.0
O550 O 0.57425 0.69286 0.46629 0.0
C551 C 0.5834 0.77148 0.59032 0.0
C552 C 0.60806 0.79282 0.61892 0.0
C553 C 0.58937 0.78697 0.6117 0.0
N554 N 0.59792 0.76843 0.58527 0.0
N555 N 0.61263 0.78133 0.60229 0.0
C556 C 0.56404 0.75921 0.57623 0.0
H557 H 0.5622 0.7456 0.56725 0.0
H558 H 0.56194 0.7664 0.55421 0.0
H559 H 0.55322 0.75672 0.59564 0.0
C560 C 0.61111 0.74938 0.46394 0.0
N561 N 0.60471 0.74165 0.49471 0.0
N562 N 0.60288 0.75374 0.51403 0.0
C563 C 0.60802 0.76959 0.49597 0.0
C564 C 0.61342 0.76738 0.46358 0.0
C565 C 0.61784 0.74086 0.43771 0.0
H566 H 0.62604 0.7351 0.45009 0.0
H567 H 0.60545 0.72905 0.42511 0.0
H568 H 0.6268 0.75124 0.4182 0.0
O569 O 0.62351 0.72678 0.54716 0.0
O570 O 0.62058 0.74706 0.58045 0.0
H571 H 0.62034 0.7931 0.52984 0.0
H572 H 0.61203 0.79767 0.49034 0.0
C573 C 0.60909 0.787 0.51031 0.0
H574 H 0.59554 0.78328 0.52274 0.0
H575 H 0.62571 0.78207 0.60311 0.0
O576 O 0.60436 0.70326 0.47923 0.0
C577 C 0.62888 0.73795 0.57247 0.0
Co578 Co 0.28172 0.88233 0.51367 0.0
Co579 Co 0.25355 0.8497 0.5618 0.0
C580 C 0.29448 0.86148 0.55959 0.0
O581 O 0.29739 0.87372 0.53697 0.0
O582 O 0.27805 0.85089 0.57167 0.0
C583 C 0.30865 0.89695 0.46017 0.0
O584 O 0.30881 0.88116 0.46496 0.0
C585 C 0.23048 0.81148 0.59191 0.0
C586 C 0.20915 0.81523 0.61959 0.0
C587 C 0.21488 0.80222 0.61314 0.0
N588 N 0.2337 0.82907 0.58619 0.0
N589 N 0.22081 0.83112 0.60271 0.0
C590 C 0.24263 0.8041 0.57849 0.0
H591 H 0.25646 0.81576 0.57004 0.0
H592 H 0.2356 0.79494 0.55625 0.0
H593 H 0.24468 0.79556 0.59811 0.0
C594 C 0.25157 0.86067 0.46429 0.0
N595 N 0.2596 0.86219 0.49479 0.0
N596 N 0.24781 0.84827 0.51447 0.0
C597 C 0.23185 0.83734 0.49684 0.0
C598 C 0.23367 0.84483 0.46442 0.0
C599 C 0.25972 0.87585 0.43787 0.0
H600 H 0.2656 0.88985 0.45018 0.0
H601 H 0.27139 0.87529 0.4247 0.0
H602 H 0.24909 0.87437 0.41886 0.0
O603 O 0.27492 0.89608 0.54667 0.0
O604 O 0.25519 0.873 0.58076 0.0
H605 H 0.20845 0.82584 0.53096 0.0
H606 H 0.20406 0.81275 0.49176 0.0
C607 C 0.21473 0.82082 0.51156 0.0
H608 H 0.21884 0.81133 0.52419 0.0
H609 H 0.22015 0.84352 0.60289 0.0
O610 O 0.29774 0.90029 0.47804 0.0
C611 C 0.26411 0.89037 0.57246 0.0
H612 H 0.26695 0.28651 0.21893 0.0
H613 H 0.29058 0.28768 0.25838 0.0
H614 H 0.25466 0.22864 0.28068 0.0
H615 H 0.23088 0.22733 0.24152 0.0
H616 H 0.27084 0.25161 0.33867 0.0
H617 H 0.32423 0.26435 0.23975 0.0
H618 H 0.31553 0.2806 0.23926 0.0
H619 H 0.29983 0.25615 0.22978 0.0
C620 C 0.26405 0.27377 0.23224 0.0
C621 C 0.24708 0.25679 0.22692 0.0
C622 C 0.27761 0.27446 0.25465 0.0
C623 C 0.27446 0.25818 0.27202 0.0
C624 C 0.25738 0.24132 0.26735 0.0
H625 H 0.35797 0.24015 0.37376 0.0
H626 H 0.33287 0.23818 0.3374 0.0
C627 C 0.24383 0.24061 0.24492 0.0
C628 C 0.28896 0.25868 0.29507 0.0
H629 H 0.33385 0.2662 0.29698 0.0
C630 C 0.28462 0.25477 0.32962 0.0
C631 C 0.30681 0.26256 0.28302 0.0
C632 C 0.31189 0.266 0.24588 0.0
C633 C 0.29777 0.2549 0.35259 0.0
C634 C 0.31581 0.25929 0.34069 0.0
C635 C 0.32005 0.26295 0.30606 0.0
C636 C 0.33051 0.26009 0.36367 0.0
C637 C 0.29214 0.25001 0.38926 0.0
C638 C 0.33753 0.27311 0.39042 0.0
C639 C 0.35183 0.27424 0.41136 0.0
C640 C 0.3595 0.26247 0.40572 0.0
C641 C 0.3524 0.24942 0.37886 0.0
C642 C 0.33806 0.24828 0.35802 0.0
H643 H 0.27657 0.2422 0.39238 0.0
H644 H 0.29788 0.24136 0.3999 0.0
H645 H 0.29788 0.2632 0.40428 0.0
H646 H 0.33218 0.28264 0.39478 0.0
H647 H 0.35705 0.28454 0.43163 0.0
H648 H 0.71708 0.98079 0.22169 0.0
H649 H 0.7159 0.00331 0.26084 0.0
H650 H 0.77303 0.02203 0.29211 0.0
H651 H 0.77432 0.9994 0.25325 0.0
H652 H 0.74823 0.01634 0.34631 0.0
H653 H 0.74341 0.06061 0.24452 0.0
H654 H 0.72582 0.03609 0.24201 0.0
H655 H 0.75025 0.04318 0.23633 0.0
C656 C 0.7294 0.98965 0.23693 0.0
C657 C 0.74586 0.98841 0.23415 0.0
C658 C 0.72871 0.00257 0.25917 0.0
C659 C 0.74448 0.01453 0.2789 0.0
C660 C 0.76075 0.01298 0.27691 0.0
H661 H 0.76256 0.1165 0.37896 0.0
H662 H 0.76503 0.09319 0.34411 0.0
C663 C 0.76146 1.00006 0.25467 0.0
C664 C 0.74406 0.02877 0.3014 0.0
H665 H 0.73889 0.06759 0.30096 0.0
C666 C 0.74625 0.0276 0.33647 0.0
C667 C 0.74175 0.04357 0.28834 0.0
C668 C 0.74035 0.04611 0.25072 0.0
C669 C 0.74584 0.04067 0.35897 0.0
C670 C 0.74287 0.05509 0.34601 0.0
C671 C 0.74101 0.05643 0.31086 0.0
C672 C 0.74176 0.06906 0.36832 0.0
C673 C 0.74891 0.03911 0.39631 0.0
C674 C 0.7278 0.06323 0.39342 0.0
C675 C 0.72641 0.07652 0.41356 0.0
C676 C 0.73881 0.09592 0.40865 0.0
C677 C 0.75276 0.10169 0.38342 0.0
C678 C 0.7542 0.08839 0.36346 0.0
H679 H 0.75613 0.03088 0.40081 0.0
H680 H 0.7574 0.05325 0.40801 0.0
H681 H 0.73505 0.03173 0.40931 0.0
H682 H 0.71777 0.04841 0.39707 0.0
H683 H 0.71541 0.07159 0.43257 0.0
H684 H 0.01432 0.77751 0.26576 0.0
H685 H 0.99254 0.75436 0.30658 0.0
H686 H 0.98916 0.70934 0.2447 0.0
H687 H 0.01139 0.73238 0.20444 0.0
H688 H 0.95698 0.72711 0.29917 0.0
H689 H 0.9999 0.69502 0.3358 0.0
H690 H 0.00945 0.71657 0.31162 0.0
H691 H 0.99616 0.69407 0.29086 0.0
C692 C 0.00904 0.76268 0.26098 0.0
C693 C 0.01466 0.75677 0.23199 0.0
C694 C 0.99659 0.74947 0.28432 0.0
C695 C 0.98949 0.73012 0.27905 0.0
C696 C 0.99488 0.7242 0.24984 0.0
H697 H 0.88798 0.63847 0.36566 0.0
H698 H 0.9116 0.66394 0.33069 0.0
C699 C 0.00749 0.73739 0.22671 0.0
C700 C 0.9759 0.71611 0.3034 0.0
H701 H 0.9673 0.67787 0.35122 0.0
C702 C 0.95931 0.71645 0.3108 0.0
C703 C 0.97909 0.70239 0.31905 0.0
C704 C 0.99721 0.70209 0.31422 0.0
C705 C 0.94559 0.70315 0.33268 0.0
C706 C 0.94829 0.68877 0.34675 0.0
C707 C 0.96511 0.68874 0.34009 0.0
C708 C 0.93383 0.67351 0.36823 0.0
C709 C 0.92849 0.70483 0.34081 0.0
C710 C 0.93859 0.67002 0.40058 0.0
C711 C 0.92521 0.65522 0.4204 0.0
C712 C 0.90675 0.64367 0.40829 0.0
C713 C 0.90201 0.64723 0.3759 0.0
C714 C 0.91547 0.66188 0.35595 0.0
H715 H 0.93142 0.71951 0.33733 0.0
H716 H 0.91686 0.69567 0.32333 0.0
H717 H 0.92367 0.7004 0.36728 0.0
H718 H 0.9527 0.67876 0.41052 0.0
H719 H 0.92932 0.65288 0.44524 0.0
H720 H 0.64472 0.76087 0.62763 0.0
H721 H 0.66999 0.7632 0.66394 0.0
H722 H 0.67385 0.72172 0.60251 0.0
H723 H 0.64878 0.71943 0.56574 0.0
H724 H 0.66978 0.73449 0.70154 0.0
H725 H 0.72876 0.76417 0.60903 0.0
H726 H 0.70699 0.76415 0.6017 0.0
H727 H 0.70818 0.74308 0.59485 0.0
C728 C 0.65103 0.75234 0.62161 0.0
C729 C 0.64473 0.73998 0.59369 0.0
C730 C 0.66546 0.75369 0.64243 0.0
C731 C 0.67393 0.7428 0.63566 0.0
C732 C 0.66776 0.73052 0.60777 0.0
H733 H 0.73803 0.71586 0.77796 0.0
H734 H 0.71459 0.71482 0.73821 0.0
C735 C 0.65335 0.72917 0.58689 0.0
C736 C 0.68862 0.74368 0.65872 0.0
H737 H 0.73435 0.75363 0.6617 0.0
C738 C 0.68392 0.73873 0.69288 0.0
C739 C 0.70709 0.74939 0.64738 0.0
C740 C 0.71317 0.75567 0.61131 0.0
C741 C 0.69713 0.7391 0.71597 0.0
C742 C 0.71543 0.74427 0.7044 0.0
C743 C 0.72023 0.74948 0.67036 0.0
C744 C 0.7299 0.74473 0.72749 0.0
C745 C 0.69149 0.73425 0.75265 0.0
C746 C 0.74651 0.7618 0.73384 0.0
C747 C 0.75997 0.76244 0.75641 0.0
C748 C 0.75709 0.74598 0.77291 0.0
C749 C 0.74062 0.72881 0.76587 0.0
C750 C 0.72717 0.72819 0.74329 0.0
H751 H 0.67872 0.73511 0.75895 0.0
H752 H 0.6883 0.71961 0.75762 0.0
H753 H 0.70311 0.74381 0.76985 0.0
H754 H 0.74891 0.77469 0.72175 0.0
H755 H 0.77253 0.77588 0.76117 0.0
H756 H 0.28571 0.02255 0.77642 0.0
H757 H 0.28743 1.00075 0.73613 0.0
H758 H 0.22728 0.97322 0.72122 0.0
H759 H 0.22543 0.99506 0.76112 0.0
H760 H 0.2696 0.96172 0.74086 0.0
H761 H 0.24777 0.98361 0.62408 0.0
H762 H 0.25508 0.99775 0.66216 0.0
H763 H 0.23167 0.97779 0.65894 0.0
C764 C 0.27285 0.01194 0.76441 0.0
C765 C 0.25543 0.01057 0.77192 0.0
C766 C 0.27387 0.9995 0.74142 0.0
C767 C 0.25752 0.98554 0.72538 0.0
C768 C 0.24012 0.98413 0.7328 0.0
H769 H 0.24235 0.88361 0.62925 0.0
H770 H 0.24067 0.90677 0.66595 0.0
C771 C 0.23908 0.99657 0.75577 0.0
C772 C 0.25858 0.97198 0.70193 0.0
H773 H 0.24937 0.95544 0.6206 0.0
C774 C 0.26525 0.96038 0.71453 0.0
C775 C 0.25308 0.97044 0.66752 0.0
C776 C 0.24666 0.98317 0.65221 0.0
C777 C 0.26628 0.94702 0.69377 0.0
C778 C 0.26018 0.94503 0.65966 0.0
C779 C 0.25383 0.95687 0.64688 0.0
C780 C 0.2606 0.93094 0.63672 0.0
C781 C 0.27416 0.93535 0.70837 0.0
C782 C 0.2719 0.93684 0.60754 0.0
C783 C 0.27283 0.92365 0.58636 0.0
C784 C 0.26238 0.90428 0.59393 0.0
C785 C 0.25069 0.89841 0.62278 0.0
C786 C 0.24978 0.91162 0.6439 0.0
H787 H 0.2825 0.9418 0.73175 0.0
H788 H 0.26235 0.92116 0.71505 0.0
H789 H 0.28326 0.93356 0.68963 0.0
H790 H 0.28028 0.9517 0.60147 0.0
H791 H 0.28192 0.92869 0.56433 0.0
H792 H 0.99417 0.22695 0.73889 0.0
H793 H 0.01649 0.25092 0.69982 0.0
H794 H 0.01492 0.29435 0.75924 0.0
H795 H 0.99203 0.27039 0.79759 0.0
H796 H 0.01355 0.30062 0.69405 0.0
H797 H 0.07156 0.28557 0.71554 0.0
H798 H 0.05043 0.26532 0.70076 0.0
H799 H 0.05062 0.27542 0.74145 0.0
C800 C 0.99861 0.24162 0.74365 0.0
C801 C 0.99144 0.24681 0.77142 0.0
C802 C 0.01147 0.25532 0.72142 0.0
C803 C 0.01773 0.27449 0.72701 0.0
C804 C 0.01037 0.27965 0.7545 0.0
H805 H 0.11735 0.36791 0.638 0.0
H806 H 0.09398 0.34332 0.67475 0.0
C807 C 0.9973 0.26595 0.77642 0.0
C808 C 0.03171 0.28918 0.70402 0.0
H809 H 0.07562 0.30635 0.67005 0.0
C810 C 0.02716 0.30192 0.6889 0.0
C811 C 0.04958 0.29106 0.69771 0.0
C812 C 0.05594 0.27874 0.71499 0.0
C813 C 0.03992 0.31641 0.66753 0.0
C814 C 0.05748 0.31781 0.66013 0.0
C815 C 0.06207 0.30514 0.6754 0.0
C816 C 0.07157 0.33266 0.63747 0.0
C817 C 0.03461 0.33038 0.65397 0.0
C818 C 0.06685 0.3347 0.6041 0.0
C819 C 0.08011 0.34896 0.58319 0.0
C820 C 0.09848 0.36116 0.59501 0.0
C821 C 0.10333 0.35874 0.62811 0.0
C822 C 0.08998 0.34468 0.64915 0.0
H823 H 0.02364 0.3308 0.66991 0.0
H824 H 0.04704 0.3448 0.65273 0.0
H825 H 0.02877 0.3261 0.62801 0.0
H826 H 0.05292 0.32524 0.59414 0.0
H827 H 0.07601 0.35031 0.55767 0.0
H828 H 0.89046 0.56557 0.5961 0.0
H829 H 0.91327 0.56632 0.63707 0.0
H830 H 0.95829 0.61269 0.58267 0.0
H831 H 0.9355 0.6125 0.5425 0.0
H832 H 0.94178 0.56044 0.62899 0.0
H833 H 0.96964 0.63303 0.67702 0.0
H834 H 0.94886 0.62149 0.65076 0.0
H835 H 0.97198 0.63268 0.63186 0.0
C836 C 0.90521 0.57603 0.59306 0.0
C837 C 0.91118 0.58907 0.56624 0.0
C838 C 0.91823 0.57643 0.61646 0.0
C839 C 0.93747 0.58979 0.61335 0.0
C840 C 0.94348 0.60263 0.58625 0.0
H841 H 0.03018 0.58116 0.69906 0.0
H842 H 0.00469 0.57914 0.66384 0.0
C843 C 0.93044 0.60243 0.56315 0.0
C844 C 0.95132 0.58984 0.63767 0.0
H845 H 0.98789 0.61836 0.68975 0.0
C846 C 0.95175 0.57307 0.64253 0.0
C847 C 0.96413 0.60621 0.65582 0.0
C848 C 0.96351 0.6243 0.6539 0.0
C849 C 0.96491 0.57234 0.66435 0.0
C850 C 0.97843 0.58899 0.68093 0.0
C851 C 0.97769 0.60564 0.67672 0.0
C852 C 0.99352 0.58958 0.70263 0.0
C853 C 0.96396 0.55364 0.66977 0.0
C854 C 0.99608 0.59661 0.73587 0.0
C855 C 0.01089 0.59816 0.75581 0.0
C856 C 0.02338 0.5926 0.74298 0.0
C857 C 0.02068 0.58537 0.70982 0.0
C858 C 0.00602 0.58408 0.68972 0.0
H859 H 0.94958 0.54166 0.66468 0.0
H860 H 0.97379 0.55244 0.65194 0.0
H861 H 0.96801 0.55231 0.69608 0.0
H862 H 0.98666 0.60101 0.74634 0.0
H863 H 0.01256 0.60375 0.78128 0.0
H864 H 0.42678 0.45077 0.70489 0.0
H865 H 0.42855 0.42766 0.6682 0.0
H866 H 0.3871 0.38251 0.73003 0.0
H867 H 0.38534 0.40547 0.76718 0.0
H868 H 0.41817 0.37833 0.71253 0.0
H869 H 0.38738 0.39383 0.59999 0.0
H870 H 0.40741 0.41409 0.618 0.0
H871 H 0.38602 0.40165 0.64218 0.0
C872 C 0.41805 0.43593 0.71079 0.0
C873 C 0.40581 0.42998 0.73888 0.0
C874 C 0.41902 0.42275 0.68967 0.0
C875 C 0.40773 0.4034 0.69611 0.0
C876 C 0.39585 0.3974 0.72455 0.0
H877 H 0.38311 0.31263 0.55499 0.0
H878 H 0.38133 0.33431 0.59546 0.0
C879 C 0.39486 0.41056 0.74571 0.0
C880 C 0.40823 0.38939 0.6731 0.0
H881 H 0.39986 0.37353 0.59135 0.0
C882 C 0.41413 0.37722 0.68605 0.0
C883 C 0.40269 0.38784 0.63872 0.0
C884 C 0.39535 0.39991 0.62388 0.0
C885 C 0.41498 0.36374 0.66531 0.0
C886 C 0.41002 0.36261 0.63066 0.0
C887 C 0.4038 0.37455 0.61788 0.0
C888 C 0.41112 0.3491 0.60715 0.0
C889 C 0.42092 0.35066 0.68073 0.0
C890 C 0.42849 0.35033 0.60021 0.0
C891 C 0.42957 0.33797 0.57711 0.0
C892 C 0.4133 0.32423 0.56038 0.0
C893 C 0.39591 0.32304 0.56744 0.0
C894 C 0.39485 0.33541 0.59054 0.0
H895 H 0.41954 0.35006 0.70881 0.0
H896 H 0.41239 0.33616 0.67042 0.0
H897 H 0.43592 0.35582 0.67445 0.0
H898 H 0.44127 0.36104 0.61228 0.0
H899 H 0.4432 0.33932 0.57214 0.0
H900 H 0.59429 0.9881 0.78179 0.0
H901 H 0.61751 0.01443 0.74761 0.0
H902 H 0.57855 0.99593 0.66355 0.0
H903 H 0.55503 0.97009 0.69797 0.0
H904 H 0.63474 0.01455 0.69173 0.0
H905 H 0.5942 0.05046 0.66523 0.0
H906 H 0.58664 0.03186 0.69622 0.0
H907 H 0.5816 0.02633 0.65184 0.0
C908 C 0.59062 0.98975 0.75611 0.0
C909 C 0.57278 0.97708 0.74264 0.0
C910 C 0.6039 0.0048 0.73661 0.0
C911 C 0.59966 0.0074 0.70321 0.0
C912 C 0.58195 0.99461 0.68958 0.0
H913 H 0.6803 0.06708 0.54422 0.0
H914 H 0.65828 0.04412 0.58483 0.0
C915 C 0.56855 0.97974 0.70923 0.0
C916 C 0.61408 0.02292 0.68209 0.0
H917 H 0.62112 0.05911 0.62983 0.0
C918 C 0.63183 0.02442 0.67849 0.0
C919 C 0.61042 0.03604 0.66527 0.0
C920 C 0.59225 0.03623 0.67013 0.0
C921 C 0.64581 0.03829 0.65779 0.0
C922 C 0.64172 0.05062 0.63926 0.0
C923 C 0.62418 0.04949 0.64365 0.0
C924 C 0.6553 0.06462 0.61486 0.0
C925 C 0.66489 0.03971 0.65642 0.0
C926 C 0.66047 0.0837 0.61748 0.0
C927 C 0.67275 0.0968 0.59383 0.0
C928 C 0.68017 0.09107 0.56723 0.0
C929 C 0.67499 0.07197 0.56466 0.0
C930 C 0.66251 0.05884 0.58803 0.0
H931 H 0.66771 0.03394 0.67981 0.0
H932 H 0.66528 0.03133 0.63465 0.0
H933 H 0.67636 0.05454 0.65319 0.0
H934 H 0.655 0.08847 0.63785 0.0
H935 H 0.67649 0.11143 0.59648 0.0
H936 H 0.40368 0.04887 0.11186 0.0
H937 H 0.38009 0.04681 0.07136 0.0
H938 H 0.41291 0.10676 0.05422 0.0
H939 H 0.43668 0.10896 0.09439 0.0
H940 H 0.35914 0.06507 0.07521 0.0
H941 H 0.40228 0.08486 0.95781 0.0
H942 H 0.40911 0.07785 0.99628 0.0
H943 H 0.41285 0.10133 0.99208 0.0
C944 C 0.40595 0.06161 0.09933 0.0
C945 C 0.42208 0.07909 0.10631 0.0
C946 C 0.39245 0.0604 0.07622 0.0
C947 C 0.39489 0.07659 0.0595 0.0
C948 C 0.41095 0.09404 0.06637 0.0
H949 H 0.30902 0.09233 0.96198 0.0
H950 H 0.33377 0.09382 0.99867 0.0
C951 C 0.42447 0.09528 0.08948 0.0
C952 C 0.38022 0.07532 0.03594 0.0
H953 H 0.3726 0.08343 0.95405 0.0
C954 C 0.36204 0.06901 0.04868 0.0
C955 C 0.38403 0.08028 0.00128 0.0
C956 C 0.40307 0.0863 0.98588 0.0
C957 C 0.34762 0.06784 0.02783 0.0
C958 C 0.3516 0.07341 0.99346 0.0
C959 C 0.36967 0.07937 0.98052 0.0
C960 C 0.3371 0.07301 0.9705 0.0
C961 C 0.32819 0.06044 0.04265 0.0
C962 C 0.3312 0.06123 0.94192 0.0
C963 C 0.31711 0.0604 0.92075 0.0
C964 C 0.30873 0.07142 0.92772 0.0
C965 C 0.31505 0.08355 0.95597 0.0
C966 C 0.32913 0.08436 0.97709 0.0
H967 H 0.32631 0.05241 0.06645 0.0
H968 H 0.32606 0.07247 0.04867 0.0
H969 H 0.31714 0.05116 0.02428 0.0
H970 H 0.33727 0.05244 0.93632 0.0
H971 H 0.31265 0.05095 0.89917 0.0
H972 H 0.95291 0.35658 0.11007 0.0
H973 H 0.95459 0.33456 0.07027 0.0
H974 H 0.89444 0.30703 0.05534 0.0
H975 H 0.89265 0.32915 0.09465 0.0
H976 H 0.93713 0.29585 0.07554 0.0
H977 H 0.91441 0.31647 0.95831 0.0
H978 H 0.92158 0.33083 0.99613 0.0
H979 H 0.89832 0.31059 0.99318 0.0
C980 C 0.94005 0.34592 0.09814 0.0
C981 C 0.92265 0.34464 0.10546 0.0
C982 C 0.94104 0.33335 0.07543 0.0
C983 C 0.92468 0.31932 0.05953 0.0
C984 C 0.90729 0.318 0.06677 0.0
H985 H 0.91077 0.21749 0.96404 0.0
H986 H 0.90865 0.24039 1.00083 0.0
C987 C 0.90629 0.3306 0.08939 0.0
C988 C 0.92573 0.30562 0.03641 0.0
H989 H 0.91649 0.28856 0.95542 0.0
C990 C 0.93267 0.29429 0.04925 0.0
C991 C 0.92007 0.30376 0.00204 0.0
C992 C 0.91334 0.31617 0.98644 0.0
C993 C 0.93388 0.28094 0.02874 0.0
C994 C 0.92771 0.27869 0.99467 0.0
C995 C 0.92102 0.2902 0.98168 0.0
C996 C 0.92851 0.26474 0.97189 0.0
C997 C 0.94207 0.26958 0.04354 0.0
C998 C 0.93999 0.27083 0.94295 0.0
C999 C 0.94119 0.2578 0.92179 0.0
C1000 C 0.93084 0.2384 0.92908 0.0
C1001 C 0.91902 0.23232 0.95775 0.0
C1002 C 0.91785 0.24539 0.97892 0.0
H1003 H 0.95021 0.27609 0.06708 0.0
H1004 H 0.93044 0.25525 0.04996 0.0
H1005 H 0.95144 0.26811 0.02496 0.0
H1006 H 0.94824 0.28572 0.93702 0.0
H1007 H 0.95037 0.26299 0.89986 0.0
H1008 H 0.65552 0.60162 0.12463 0.0
H1009 H 0.67794 0.62464 0.08454 0.0
H1010 H 0.68168 0.58035 0.03227 0.0
H1011 H 0.6598 0.55734 0.07314 0.0
H1012 H 0.71548 0.60967 0.04101 0.0
H1013 H 0.66936 0.63494 0.98913 0.0
H1014 H 0.67148 0.63755 0.03433 0.0
H1015 H 0.66047 0.61434 0.01578 0.0
C1016 C 0.66102 0.59676 0.10445 0.0
C1017 C 0.65585 0.57766 0.10196 0.0
C1018 C 0.67374 0.60992 0.08139 0.0
C1019 C 0.6812 0.60418 0.05492 0.0
C1020 C 0.67603 0.5851 0.05237 0.0
H1021 H 0.7428 0.67992 0.88771 0.0
H1022 H 0.71957 0.65381 0.92222 0.0
C1023 C 0.66352 0.57196 0.07573 0.0
C1024 C 0.69499 0.6182 0.03077 0.0
H1025 H 0.70235 0.65415 0.97764 0.0
C1026 C 0.71254 0.61928 0.02689 0.0
C1027 C 0.69105 0.63052 0.01185 0.0
C1028 C 0.67199 0.62916 0.01268 0.0
C1029 C 0.72643 0.63264 0.00533 0.0
C1030 C 0.7229 0.64572 0.98803 0.0
C1031 C 0.70517 0.64431 0.99122 0.0
C1032 C 0.73739 0.66106 0.9667 0.0
C1033 C 0.74459 0.63236 1.00098 0.0
C1034 C 0.75514 0.67389 0.9802 0.0
C1035 C 0.76855 0.68864 0.96034 0.0
C1036 C 0.76431 0.69113 0.92684 0.0
C1037 C 0.74648 0.6784 0.91346 0.0
C1038 C 0.73319 0.66347 0.93316 0.0
H1039 H 0.74258 0.61815 0.0063 0.0
H1040 H 0.75029 0.63656 0.9749 0.0
H1041 H 0.75519 0.64235 0.01923 0.0
H1042 H 0.75853 0.67272 0.00631 0.0
H1043 H 0.78208 0.69835 0.97152 0.0
H1044 H 0.56493 0.89315 0.90952 0.0
H1045 H 0.58866 0.89525 0.94966 0.0
H1046 H 0.62175 0.95516 0.93226 0.0
H1047 H 0.59819 0.95319 0.89181 0.0
H1048 H 0.6424 0.93653 0.92784 0.0
H1049 H 0.59995 0.91738 0.04603 0.0
H1050 H 0.58906 0.90091 0.01186 0.0
H1051 H 0.59305 0.92448 0.00775 0.0
C1052 C 0.57718 0.9068 0.91439 0.0
C1053 C 0.57966 0.92301 0.89747 0.0
C1054 C 0.59067 0.90799 0.93749 0.0
C1055 C 0.60683 0.92539 0.94422 0.0
C1056 C 0.60932 0.9416 0.9275 0.0
H1057 H 0.68959 0.95075 0.10321 0.0
H1058 H 0.66483 0.94924 0.06647 0.0
C1059 C 0.59583 0.94045 0.90442 0.0
C1060 C 0.62155 0.92657 0.96751 0.0
H1061 H 0.62951 0.91853 0.04923 0.0
C1062 C 0.63963 0.93267 0.95441 0.0
C1063 C 0.61791 0.92171 0.00222 0.0
C1064 C 0.599 0.91591 0.01797 0.0
C1065 C 0.6541 0.93374 0.97499 0.0
C1066 C 0.65028 0.92827 0.00943 0.0
C1067 C 0.63231 0.92251 0.02271 0.0
C1068 C 0.66486 0.92866 0.03215 0.0
C1069 C 0.67342 0.94096 0.95979 0.0
C1070 C 0.67281 0.9173 0.02535 0.0
C1071 C 0.687 0.91814 0.04622 0.0
C1072 C 0.69342 0.93028 0.07445 0.0
C1073 C 0.68505 0.94129 0.08164 0.0
C1074 C 0.67088 0.94044 0.06071 0.0
H1075 H 0.67524 0.94899 0.93601 0.0
H1076 H 0.68462 0.95019 0.97797 0.0
H1077 H 0.67537 0.92883 0.95362 0.0
H1078 H 0.66808 0.90783 0.0038 0.0
H1079 H 0.69301 0.90936 0.04006 0.0
H1080 H 0.04909 0.64533 0.89067 0.0
H1081 H 0.04895 0.66879 0.92882 0.0
H1082 H 0.10844 0.69221 0.94696 0.0
H1083 H 0.1087 0.66865 0.9092 0.0
H1084 H 0.08788 0.68769 0.00587 0.0
H1085 H 0.07085 0.7247 0.9062 0.0
H1086 H 0.05448 0.69983 0.90841 0.0
H1087 H 0.07854 0.70809 0.8964 0.0
C1088 C 0.06215 0.65545 0.90278 0.0
C1089 C 0.07894 0.65521 0.89672 0.0
C1090 C 0.06206 0.66891 0.92443 0.0
C1091 C 0.07876 0.68244 0.94019 0.0
C1092 C 0.09543 0.68196 0.93484 0.0
H1093 H 0.09464 0.78472 0.03787 0.0
H1094 H 0.09753 0.76202 0.00173 0.0
C1095 C 0.09555 0.66849 0.91325 0.0
C1096 C 0.07881 0.69703 0.96243 0.0
H1097 H 0.06955 0.73328 0.96336 0.0
C1098 C 0.08395 0.69772 0.99659 0.0
C1099 C 0.07397 0.71027 0.95007 0.0
C1100 C 0.06932 0.71087 0.9132 0.0
C1101 C 0.08395 0.71104 0.01897 0.0
C1102 C 0.07837 0.72378 0.00692 0.0
C1103 C 0.07366 0.72338 0.97258 0.0
C1104 C 0.07708 0.73751 0.02959 0.0
C1105 C 0.0901 0.71148 0.05521 0.0
C1106 C 0.06453 0.73122 0.05707 0.0
C1107 C 0.06286 0.74412 0.07781 0.0
C1108 C 0.0736 0.7636 0.07129 0.0
C1109 C 0.08617 0.76984 0.04367 0.0
C1110 C 0.08784 0.7569 0.02296 0.0
H1111 H 0.09877 0.70459 0.05791 0.0
H1112 H 0.09836 0.72618 0.0647 0.0
H1113 H 0.07745 0.70376 0.0715 0.0
H1114 H 0.05581 0.71629 0.06219 0.0
H1115 H 0.05297 0.73879 0.09872 0.0
H1116 H 0.25939 0.32244 0.1116 0.0
H1117 H 0.28218 0.3484 0.07633 0.0
H1118 H 0.2429 0.32808 0.99272 0.0
H1119 H 0.21976 0.30256 0.0283 0.0
H1120 H 0.2993 0.34759 0.02123 0.0
H1121 H 0.25826 0.38251 0.99043 0.0
H1122 H 0.25081 0.36447 0.02251 0.0
H1123 H 0.24593 0.35816 0.97836 0.0
C1124 C 0.25554 0.32362 0.0858 0.0
C1125 C 0.23774 0.3105 0.07277 0.0
C1126 C 0.26858 0.33846 0.06566 0.0
C1127 C 0.26417 0.34041 0.03201 0.0
C1128 C 0.24644 0.32724 0.01889 0.0
H1129 H 0.34634 0.39986 0.87411 0.0
H1130 H 0.32369 0.37674 0.91382 0.0
C1131 C 0.23327 0.31257 0.0392 0.0
C1132 C 0.2785 0.35561 0.0102 0.0
H1133 H 0.28554 0.39116 0.95623 0.0
C1134 C 0.29633 0.35723 0.00727 0.0
C1135 C 0.27477 0.36841 0.99238 0.0
C1136 C 0.25647 0.36845 0.99635 0.0
C1137 C 0.31039 0.37098 0.9865 0.0
C1138 C 0.30628 0.38305 0.96716 0.0
C1139 C 0.28861 0.38174 0.97069 0.0
C1140 C 0.32008 0.3971 0.94306 0.0
C1141 C 0.32957 0.37261 0.98602 0.0
C1142 C 0.32511 0.41615 0.94549 0.0
C1143 C 0.33777 0.42934 0.92236 0.0
C1144 C 0.34571 0.42374 0.89648 0.0
C1145 C 0.34063 0.40465 0.89403 0.0
C1146 C 0.32778 0.39144 0.91687 0.0
H1147 H 0.33222 0.36694 0.0097 0.0
H1148 H 0.33028 0.36426 0.9645 0.0
H1149 H 0.34096 0.38748 0.98292 0.0
H1150 H 0.31928 0.42083 0.96538 0.0
H1151 H 0.3414 0.44394 0.9249 0.0
H1152 H 0.98045 0.38595 0.23437 0.0
H1153 H 0.00374 0.38668 0.27416 0.0
H1154 H 0.99572 0.42435 0.33929 0.0
H1155 H 0.97239 0.42372 0.29989 0.0
H1156 H 0.03804 0.41884 0.30081 0.0
H1157 H 0.98485 0.37839 0.40025 0.0
H1158 H 0.97853 0.37899 0.35655 0.0
H1159 H 0.98432 0.39863 0.38406 0.0
C1160 C 0.98369 0.39448 0.25705 0.0
C1161 C 0.97441 0.40465 0.26406 0.0
C1162 C 0.99702 0.39488 0.27972 0.0
C1163 C 0.00119 0.40533 0.30982 0.0
C1164 C 0.99243 0.41596 0.3164 0.0
H1165 H 0.06886 0.42183 0.48769 0.0
H1166 H 0.04759 0.42162 0.44405 0.0
C1167 C 0.97916 0.41563 0.29376 0.0
C1168 C 0.01443 0.40486 0.33475 0.0
H1169 H 0.01691 0.39127 0.41552 0.0
C1170 C 0.03347 0.41274 0.32585 0.0
C1171 C 0.00832 0.39685 0.3673 0.0
C1172 C 0.98787 0.38758 0.37766 0.0
C1173 C 0.04674 0.41332 0.34911 0.0
C1174 C 0.04064 0.40543 0.3818 0.0
C1175 C 0.02154 0.39734 0.39048 0.0
C1176 C 0.05387 0.40571 0.40774 0.0
C1177 C 0.06721 0.42286 0.33884 0.0
C1178 C 0.06431 0.39665 0.40192 0.0
C1179 C 0.07656 0.39681 0.42678 0.0
C1180 C 0.07842 0.40587 0.45805 0.0
C1181 C 0.06776 0.41472 0.46391 0.0
C1182 C 0.0556 0.41463 0.43899 0.0
H1183 H 0.07017 0.43233 0.31669 0.0
H1184 H 0.07651 0.43122 0.36015 0.0
H1185 H 0.07085 0.41197 0.33164 0.0
H1186 H 0.06285 0.38931 0.37828 0.0
H1187 H 0.0845 0.38977 0.42157 0.0
H1188 H 0.56105 0.66598 0.42312 0.0
H1189 H 0.56192 0.64316 0.38425 0.0
H1190 H 0.62121 0.6665 0.40449 0.0
H1191 H 0.62045 0.68921 0.44377 0.0
H1192 H 0.58326 0.64855 0.32588 0.0
H1193 H 0.59915 0.61034 0.42498 0.0
H1194 H 0.5913 0.6268 0.43504 0.0
H1195 H 0.61548 0.63524 0.42376 0.0
C1196 C 0.5743 0.66629 0.41929 0.0
C1197 C 0.59065 0.67931 0.43677 0.0
C1198 C 0.57476 0.65325 0.39704 0.0
C1199 C 0.59155 0.65295 0.39196 0.0
C1200 C 0.60802 0.66625 0.40863 0.0
H1201 H 0.61715 0.5963 0.23247 0.0
H1202 H 0.61478 0.61921 0.26874 0.0
C1203 C 0.60757 0.67927 0.43094 0.0
C1204 C 0.5918 0.63867 0.36928 0.0
H1205 H 0.6007 0.60219 0.36775 0.0
C1206 C 0.58702 0.63837 0.335 0.0
C1207 C 0.59644 0.62524 0.38142 0.0
C1208 C 0.60071 0.62424 0.41837 0.0
C1209 C 0.58709 0.62518 0.31233 0.0
C1210 C 0.59236 0.61218 0.32424 0.0
C1211 C 0.59682 0.61228 0.35865 0.0
C1212 C 0.59332 0.59829 0.30151 0.0
C1213 C 0.58123 0.6251 0.276 0.0
C1214 C 0.58228 0.57894 0.30827 0.0
C1215 C 0.58369 0.56579 0.28776 0.0
C1216 C 0.59626 0.57177 0.26015 0.0
C1217 C 0.60725 0.59119 0.25338 0.0
C1218 C 0.60584 0.60432 0.27397 0.0
H1219 H 0.57285 0.63228 0.27324 0.0
H1220 H 0.59402 0.63271 0.25999 0.0
H1221 H 0.57279 0.61048 0.26622 0.0
H1222 H 0.57259 0.57401 0.32951 0.0
H1223 H 0.57503 0.55096 0.29374 0.0
H1224 H 0.31113 0.93046 0.44285 0.0
H1225 H 0.33319 0.95413 0.40307 0.0
H1226 H 0.35751 0.91915 0.38173 0.0
H1227 H 0.33535 0.89528 0.42109 0.0
H1228 H 0.37213 0.97341 0.4068 0.0
H1229 H 0.34767 0.93265 0.28694 0.0
H1230 H 0.33381 0.92545 0.32535 0.0
H1231 H 0.353 0.92094 0.31999 0.0
C1232 C 0.32106 0.92771 0.42949 0.0
C1233 C 0.32147 0.91096 0.4351 0.0
C1234 C 0.33367 0.94127 0.40679 0.0
C1235 C 0.34683 0.93829 0.38916 0.0
C1236 C 0.34721 0.92156 0.39456 0.0
H1237 H 0.45 0.02412 0.29446 0.0
H1238 H 0.42643 0.99909 0.33034 0.0
C1239 C 0.3346 0.90798 0.41722 0.0
C1240 C 0.3607 0.95309 0.36631 0.0
H1241 H 0.37664 0.96173 0.28458 0.0
C1242 C 0.37308 0.97089 0.38005 0.0
C1243 C 0.36177 0.9498 0.33136 0.0
C1244 C 0.34825 0.93124 0.31489 0.0
C1245 C 0.38671 0.98544 0.35988 0.0
C1246 C 0.38818 0.98197 0.32518 0.0
C1247 C 0.3756 0.96427 0.31129 0.0
C1248 C 0.40248 0.99667 0.30275 0.0
C1249 C 0.39921 0.00449 0.37577 0.0
C1250 C 0.39682 0.0032 0.27475 0.0
C1251 C 0.41024 0.01743 0.25405 0.0
C1252 C 0.42961 0.02536 0.26089 0.0
C1253 C 0.43522 0.01846 0.28857 0.0
C1254 C 0.42177 0.00421 0.30924 0.0
H1255 H 0.3932 0.00619 0.3999 0.0
H1256 H 0.41316 0.00601 0.3815 0.0
H1257 H 0.4014 0.01602 0.35821 0.0
H1258 H 0.38199 0.99748 0.26924 0.0
H1259 H 0.4054 0.02235 0.2329 0.0
H1260 H 0.18768 0.39787 0.42718 0.0
H1261 H 0.19181 0.37915 0.38266 0.0
H1262 H 0.13456 0.33441 0.39803 0.0
H1263 H 0.13041 0.35309 0.44209 0.0
H1264 H 0.18796 0.34321 0.38504 0.0
H1265 H 0.1359 0.34425 0.29628 0.0
H1266 H 0.14499 0.35975 0.3325 0.0
H1267 H 0.12665 0.33564 0.33785 0.0
C1268 C 0.17607 0.384 0.42101 0.0
C1269 C 0.15868 0.37695 0.43761 0.0
C1270 C 0.1784 0.37336 0.39563 0.0
C1271 C 0.16335 0.35556 0.3865 0.0
C1272 C 0.14619 0.34829 0.40399 0.0
H1273 H 0.14894 0.26892 0.24104 0.0
H1274 H 0.1444 0.28733 0.2857 0.0
C1275 C 0.14386 0.35892 0.42922 0.0
C1276 C 0.16554 0.34447 0.35891 0.0
H1277 H 0.14759 0.32378 0.28218 0.0
C1278 C 0.17921 0.33905 0.36247 0.0
C1279 C 0.15406 0.339 0.32951 0.0
C1280 C 0.13969 0.34509 0.32355 0.0
C1281 C 0.1815 0.32803 0.33768 0.0
C1282 C 0.17 0.32255 0.30832 0.0
C1283 C 0.15632 0.32794 0.30478 0.0
C1284 C 0.17236 0.31163 0.28063 0.0
C1285 C 0.19597 0.32205 0.34341 0.0
C1286 C 0.18933 0.3194 0.26246 0.0
C1287 C 0.19186 0.30898 0.23709 0.0
C1288 C 0.17746 0.29062 0.22937 0.0
C1289 C 0.16023 0.28304 0.24671 0.0
C1290 C 0.15768 0.29351 0.27216 0.0
H1291 H 0.20008 0.32319 0.37055 0.0
H1292 H 0.19058 0.30731 0.3349 0.0
H1293 H 0.20882 0.33134 0.32851 0.0
H1294 H 0.20067 0.33351 0.26802 0.0
H1295 H 0.20517 0.31522 0.22363 0.0
H1296 H 0.60522 0.76561 0.39628 0.0
H1297 H 0.6241 0.78834 0.35192 0.0
H1298 H 0.66343 0.8247 0.42782 0.0
H1299 H 0.64483 0.80183 0.47202 0.0
H1300 H 0.63542 0.82681 0.34355 0.0
H1301 H 0.69695 0.8165 0.36062 0.0
H1302 H 0.67406 0.80061 0.37837 0.0
H1303 H 0.68932 0.82278 0.39866 0.0
C1304 C 0.61782 0.77855 0.4034 0.0
C1305 C 0.62357 0.78204 0.43747 0.0
C1306 C 0.62858 0.79149 0.37813 0.0
C1307 C 0.64534 0.80806 0.38651 0.0
C1308 C 0.65074 0.81185 0.42072 0.0
H1309 H 0.73135 0.90224 0.27129 0.0
H1310 H 0.71237 0.87934 0.31533 0.0
C1311 C 0.63999 0.79892 0.44598 0.0
C1312 C 0.65728 0.82122 0.35942 0.0
H1313 H 0.701 0.84096 0.3233 0.0
C1314 C 0.64973 0.82986 0.339 0.0
C1315 C 0.67595 0.82515 0.35355 0.0
C1316 C 0.68455 0.81567 0.37371 0.0
C1317 C 0.66047 0.84263 0.31329 0.0
C1318 C 0.67915 0.84657 0.30743 0.0
C1319 C 0.68669 0.83791 0.32783 0.0
C1320 C 0.69114 0.85982 0.28049 0.0
C1321 C 0.65189 0.85213 0.29317 0.0
C1322 C 0.68579 0.8562 0.24623 0.0
C1323 C 0.69661 0.86924 0.22115 0.0
C1324 C 0.71304 0.88605 0.22989 0.0
C1325 C 0.71874 0.88935 0.26399 0.0
C1326 C 0.70792 0.87632 0.28908 0.0
H1327 H 0.63947 0.85128 0.30626 0.0
H1328 H 0.66237 0.8672 0.28859 0.0
H1329 H 0.64713 0.84505 0.26819 0.0
H1330 H 0.67309 0.8434 0.23895 0.0
H1331 H 0.6918 0.86647 0.19508 0.0
H1332 H 0.1356 0.82613 0.19667 0.0
H1333 H 0.15824 0.83033 0.24126 0.0
H1334 H 0.11907 0.82742 0.31739 0.0
H1335 H 0.09648 0.82354 0.27269 0.0
H1336 H 0.15745 0.85677 0.32756 0.0
H1337 H 0.15132 0.78701 0.30462 0.0
H1338 H 0.15686 0.80179 0.26778 0.0
H1339 H 0.13445 0.7931 0.28832 0.0
C1340 C 0.13199 0.82676 0.22287 0.0
C1341 C 0.11437 0.82463 0.23133 0.0
C1342 C 0.14481 0.82891 0.24832 0.0
C1343 C 0.1402 0.82888 0.28263 0.0
C1344 C 0.12285 0.82737 0.29107 0.0
H1345 H 0.19875 0.84054 0.47386 0.0
H1346 H 0.17542 0.83575 0.43026 0.0
C1347 C 0.11 0.82518 0.26561 0.0
C1348 C 0.15336 0.83017 0.30972 0.0
H1349 H 0.1747 0.80721 0.34372 0.0
C1350 C 0.16117 0.84592 0.33124 0.0
C1351 C 0.15819 0.81597 0.31438 0.0
C1352 C 0.14967 0.79841 0.29278 0.0
C1353 C 0.17402 0.84806 0.35688 0.0
C1354 C 0.17884 0.83385 0.36159 0.0
C1355 C 0.17097 0.81807 0.3401 0.0
C1356 C 0.19224 0.83525 0.38836 0.0
C1357 C 0.1827 0.86578 0.37807 0.0
C1358 C 0.20904 0.83566 0.37947 0.0
C1359 C 0.22221 0.83806 0.40441 0.0
C1360 C 0.21876 0.83999 0.43865 0.0
C1361 C 0.20166 0.83888 0.44767 0.0
C1362 C 0.18846 0.83642 0.42275 0.0
H1363 H 0.18143 0.87726 0.3656 0.0
H1364 H 0.1753 0.86273 0.40283 0.0
H1365 H 0.19784 0.87087 0.38304 0.0
H1366 H 0.2122 0.83465 0.35311 0.0
H1367 H 0.23532 0.83887 0.3969 0.0
H1368 H 0.79823 0.68685 0.77687 0.0
H1369 H 0.80304 0.66867 0.73265 0.0
H1370 H 0.85982 0.7145 0.71766 0.0
H1371 H 0.85502 0.73268 0.7623 0.0
H1372 H 0.81155 0.67839 0.6651 0.0
H1373 H 0.86721 0.66894 0.7268 0.0
H1374 H 0.85317 0.67656 0.74988 0.0
H1375 H 0.87252 0.69299 0.724 0.0
C1376 C 0.81176 0.69297 0.7642 0.0
C1377 C 0.82625 0.71115 0.77271 0.0
C1378 C 0.8145 0.6826 0.739 0.0
C1379 C 0.83182 0.69015 0.72201 0.0
C1380 C 0.84644 0.70826 0.73083 0.0
H1381 H 0.87295 0.65031 0.55731 0.0
H1382 H 0.86831 0.66876 0.60128 0.0
C1383 C 0.8437 0.71865 0.75617 0.0
C1384 C 0.83422 0.67928 0.69425 0.0
H1385 H 0.86006 0.65912 0.66948 0.0
C1386 C 0.82211 0.67411 0.66609 0.0
C1387 C 0.848 0.67372 0.6956 0.0
C1388 C 0.86088 0.67816 0.7258 0.0
C1389 C 0.8236 0.66379 0.639 0.0
C1390 C 0.83738 0.65822 0.64037 0.0
C1391 C 0.84951 0.66341 0.66849 0.0
C1392 C 0.83967 0.64723 0.61272 0.0
C1393 C 0.8107 0.65928 0.60884 0.0
C1394 C 0.82507 0.62902 0.60444 0.0
C1395 C 0.82772 0.61847 0.5793 0.0
C1396 C 0.84506 0.62593 0.56239 0.0
C1397 C 0.85951 0.64423 0.57029 0.0
C1398 C 0.85688 0.65475 0.59534 0.0
H1399 H 0.8043 0.66845 0.60786 0.0
H1400 H 0.81839 0.66091 0.58475 0.0
H1401 H 0.7991 0.64443 0.61066 0.0
H1402 H 0.81177 0.62282 0.61791 0.0
H1403 H 0.81642 0.60436 0.5736 0.0
H1404 H 0.31535 0.11063 0.77473 0.0
H1405 H 0.33394 0.13388 0.73112 0.0
H1406 H 0.28876 0.14582 0.71645 0.0
H1407 H 0.27015 0.12255 0.76042 0.0
H1408 H 0.32478 0.13383 0.66341 0.0
H1409 H 0.33475 0.19834 0.72835 0.0
H1410 H 0.32671 0.17628 0.75035 0.0
H1411 H 0.31062 0.17988 0.72471 0.0
C1412 C 0.30944 0.11828 0.7622 0.0
C1413 C 0.29134 0.11483 0.77069 0.0
C1414 C 0.32005 0.13155 0.73737 0.0
C1415 C 0.31282 0.14172 0.72074 0.0
C1416 C 0.29475 0.13838 0.72939 0.0
H1417 H 0.3539 0.22431 0.55878 0.0
H1418 H 0.33541 0.20119 0.60266 0.0
C1419 C 0.28412 0.12508 0.75433 0.0
C1420 C 0.32403 0.15534 0.69364 0.0
H1421 H 0.34487 0.20175 0.6711 0.0
C1422 C 0.32924 0.1487 0.66513 0.0
C1423 C 0.32984 0.17473 0.69596 0.0
C1424 C 0.32536 0.18282 0.7266 0.0
C1425 C 0.33983 0.16086 0.6386 0.0
C1426 C 0.34562 0.18024 0.64091 0.0
C1427 C 0.34041 0.18688 0.66941 0.0
C1428 C 0.3568 0.19383 0.61378 0.0
C1429 C 0.34437 0.1528 0.60798 0.0
C1430 C 0.37499 0.1974 0.60551 0.0
C1431 C 0.38558 0.21065 0.58046 0.0
C1432 C 0.37817 0.22059 0.56357 0.0
C1433 C 0.35995 0.21691 0.57171 0.0
C1434 C 0.3494 0.20371 0.59669 0.0
H1435 H 0.33515 0.13725 0.6064 0.0
H1436 H 0.34283 0.15919 0.58422 0.0
H1437 H 0.35919 0.15598 0.60971 0.0
H1438 H 0.3811 0.19016 0.61878 0.0
H1439 H 0.39965 0.21337 0.57466 0.0
H1440 H 0.77984 0.13075 0.55672 0.0
H1441 H 0.8032 0.13589 0.6005 0.0
H1442 H 0.81297 0.19215 0.61677 0.0
H1443 H 0.78932 0.18688 0.5731 0.0
H1444 H 0.84167 0.16368 0.60493 0.0
H1445 H 0.80018 0.16826 0.7123 0.0
H1446 H 0.78991 0.15905 0.67124 0.0
H1447 H 0.80411 0.18405 0.6776 0.0
C1448 C 0.78699 0.14419 0.56974 0.0
C1449 C 0.78269 0.15836 0.56205 0.0
C1450 C 0.80033 0.14713 0.59461 0.0
C1451 C 0.80958 0.16427 0.6123 0.0
C1452 C 0.80571 0.17868 0.60388 0.0
H1453 H 0.89115 0.20612 0.77598 0.0
H1454 H 0.86837 0.20137 0.73131 0.0
C1455 C 0.79235 0.17574 0.57888 0.0
C1456 C 0.82318 0.16692 0.63957 0.0
H1457 H 0.8309 0.17419 0.72483 0.0
C1458 C 0.83933 0.16595 0.63117 0.0
C1459 C 0.82004 0.16981 0.67377 0.0
C1460 C 0.80256 0.17021 0.68447 0.0
C1461 C 0.85261 0.16815 0.65597 0.0
C1462 C 0.84944 0.17099 0.69021 0.0
C1463 C 0.83329 0.17196 0.69859 0.0
C1464 C 0.86296 0.17352 0.71761 0.0
C1465 C 0.87012 0.16785 0.64516 0.0
C1466 C 0.86723 0.15929 0.72521 0.0
C1467 C 0.88033 0.16205 0.75063 0.0
C1468 C 0.88926 0.17902 0.76885 0.0
C1469 C 0.88459 0.193 0.7619 0.0
C1470 C 0.87156 0.19027 0.73652 0.0
H1471 H 0.87271 0.17033 0.61746 0.0
H1472 H 0.8827 0.17869 0.659 0.0
H1473 H 0.86841 0.15383 0.65104 0.0
H1474 H 0.86045 0.14607 0.71148 0.0
H1475 H 0.88366 0.15105 0.75579 0.0
H1476 H 0.51902 0.06465 0.09222 0.0
H1477 H 0.52343 0.0463 0.04732 0.0
H1478 H 0.46634 0.0011 0.06218 0.0
H1479 H 0.46196 0.01936 0.10679 0.0
H1480 H 0.5195 0.00994 0.05057 0.0
H1481 H 0.46845 0.01156 0.95993 0.0
H1482 H 0.4775 0.02714 0.99605 0.0
H1483 H 0.45902 0.00312 0.0015 0.0
C1484 C 0.5075 0.05077 0.08583 0.0
C1485 C 0.49011 0.04344 0.10253 0.0
C1486 C 0.50998 0.04034 0.06024 0.0
C1487 C 0.49507 0.0225 0.05096 0.0
C1488 C 0.47787 0.01501 0.06833 0.0
H1489 H 0.48125 0.93643 0.90493 0.0
H1490 H 0.47648 0.95495 0.94904 0.0
C1491 C 0.4754 0.0254 0.09384 0.0
C1492 C 0.49752 0.01153 0.02348 0.0
H1493 H 0.48036 0.99124 0.94619 0.0
C1494 C 0.51103 0.00594 0.02765 0.0
C1495 C 0.48637 0.00624 0.9937 0.0
C1496 C 0.47213 0.01245 0.98726 0.0
C1497 C 0.51348 0.99493 0.00308 0.0
C1498 C 0.50235 0.98967 0.97326 0.0
C1499 C 0.48882 0.99524 0.9691 0.0
C1500 C 0.50486 0.97874 0.94579 0.0
C1501 C 0.52769 0.98869 0.0096 0.0
C1502 C 0.52217 0.9862 0.92878 0.0
C1503 C 0.52485 0.9757 0.90378 0.0
C1504 C 0.51025 0.95758 0.89523 0.0
C1505 C 0.4927 0.95034 0.91131 0.0
C1506 C 0.49001 0.96088 0.93643 0.0
H1507 H 0.53124 0.98947 0.03698 0.0
H1508 H 0.52235 0.97402 1.00066 0.0
H1509 H 0.54086 0.99807 0.99559 0.0
H1510 H 0.53366 1.00013 0.93496 0.0
H1511 H 0.53841 0.98167 0.89126 0.0
H1512 H 0.02577 0.53187 0.86479 0.0
H1513 H 0.00725 0.50923 0.90931 0.0
H1514 H 0.04607 0.54651 0.98493 0.0
H1515 H 0.0646 0.56923 0.94033 0.0
H1516 H 0.01667 0.49058 0.9583 0.0
H1517 H 0.99513 0.53827 0.01808 0.0
H1518 H 0.00588 0.54271 0.97663 0.0
H1519 H 0.02015 0.54812 0.01414 0.0
C1520 C 0.03053 0.53505 0.89085 0.0
C1521 C 0.04661 0.55224 0.89924 0.0
C1522 C 0.01988 0.52218 0.91627 0.0
C1523 C 0.02508 0.52634 0.95049 0.0
C1524 C 0.04157 0.5432 0.95876 0.0
H1525 H 0.97675 0.46762 0.13982 0.0
H1526 H 0.99573 0.49039 0.09572 0.0
C1527 C 0.05221 0.55608 0.93333 0.0
C1528 C 0.01304 0.51315 0.97746 0.0
H1529 H 0.98634 0.5096 0.0467 0.0
C1530 C 0.00999 0.49471 0.97758 0.0
C1531 C 0.0043 0.51857 0.00254 0.0
C1532 C 0.00635 0.53794 0.0028 0.0
C1533 C 0.99871 0.48161 0.00245 0.0
C1534 C 0.98998 0.48703 0.02751 0.0
C1535 C 0.99304 0.50549 0.02744 0.0
C1536 C 0.97778 0.47378 0.05425 0.0
C1537 C 0.99656 0.46221 0.00212 0.0
C1538 C 0.9611 0.45718 0.04565 0.0
C1539 C 0.9502 0.44426 0.07082 0.0
C1540 C 0.95573 0.44779 0.10498 0.0
C1541 C 0.97206 0.4647 0.11369 0.0
C1542 C 0.98295 0.47763 0.08853 0.0
H1543 H 0.00771 0.46181 0.98672 0.0
H1544 H 0.99707 0.45744 0.02827 0.0
H1545 H 0.98271 0.45207 0.99089 0.0
H1546 H 0.95665 0.45411 0.01942 0.0
H1547 H 0.93763 0.43132 0.06357 0.0
H1548 H 0.45557 0.51904 0.90735 0.0
H1549 H 0.47881 0.52372 0.95149 0.0
H1550 H 0.46827 0.46723 0.93454 0.0
H1551 H 0.4454 0.46271 0.89025 0.0
H1552 H 0.47212 0.50237 0.01135 0.0
H1553 H 0.52578 0.49873 0.93091 0.0
H1554 H 0.50747 0.50239 0.91348 0.0
H1555 H 0.50235 0.47914 0.92559 0.0
C1556 C 0.45844 0.50776 0.91294 0.0
C1557 C 0.44873 0.49051 0.89569 0.0
C1558 C 0.47162 0.5104 0.93811 0.0
C1559 C 0.47541 0.49588 0.94605 0.0
C1560 C 0.46582 0.47873 0.92846 0.0
H1561 H 0.54661 0.48157 0.09406 0.0
H1562 H 0.52306 0.47654 0.0503 0.0
C1563 C 0.45268 0.4761 0.90339 0.0
C1564 C 0.48877 0.49831 0.97366 0.0
H1565 H 0.52931 0.49759 0.99058 0.0
C1566 C 0.4847 0.50145 0.0068 0.0
C1567 C 0.50509 0.49695 0.9677 0.0
C1568 C 0.51057 0.49429 0.93246 0.0
C1569 C 0.49634 0.50299 0.03424 0.0
C1570 C 0.51267 0.50166 0.02827 0.0
C1571 C 0.51673 0.49849 0.99514 0.0
C1572 C 0.52611 0.50422 0.05583 0.0
C1573 C 0.49084 0.50564 0.06948 0.0
C1574 C 0.53558 0.5214 0.07338 0.0
C1575 C 0.54889 0.52422 0.09824 0.0
C1576 C 0.55313 0.50999 0.10576 0.0
C1577 C 0.54351 0.4927 0.08861 0.0
C1578 C 0.53016 0.48987 0.06365 0.0
H1579 H 0.47559 0.50102 0.07107 0.0
H1580 H 0.49409 0.49767 0.08851 0.0
H1581 H 0.49891 0.52081 0.07623 0.0
H1582 H 0.53295 0.53279 0.06738 0.0
H1583 H 0.5561 0.53764 0.1113 0.0
H1584 H 0.17365 0.21297 0.05332 0.0
H1585 H 0.17626 0.18809 0.02361 0.0
H1586 H 0.21972 0.19474 0.09343 0.0
H1587 H 0.2169 0.21907 0.1236 0.0
H1588 H 0.20679 0.19275 0.99061 0.0
H1589 H 0.18887 0.13841 0.08883 0.0
H1590 H 0.18346 0.15712 0.09359 0.0
H1591 H 0.20655 0.16102 0.10413 0.0
C1592 C 0.18342 0.2088 0.06285 0.0
C1593 C 0.19508 0.21807 0.09085 0.0
C1594 C 0.18494 0.19461 0.04577 0.0
C1595 C 0.19802 0.18935 0.05652 0.0
C1596 C 0.20918 0.19816 0.08512 0.0
H1597 H 0.26745 0.15802 0.94975 0.0
H1598 H 0.25079 0.17284 0.97457 0.0
C1599 C 0.20765 0.21224 0.10222 0.0
C1600 C 0.20159 0.17621 0.03606 0.0
H1601 H 0.20916 0.13898 0.04332 0.0
C1602 C 0.20693 0.18075 0.00196 0.0
C1603 C 0.2015 0.16036 0.05057 0.0
C1604 C 0.19458 0.15383 0.0862 0.0
C1605 C 0.21334 0.17065 0.98274 0.0
C1606 C 0.21484 0.15587 0.99822 0.0
C1607 C 0.20831 0.15051 0.03158 0.0
C1608 C 0.22441 0.14675 0.98124 0.0
C1609 C 0.21875 0.17613 0.94617 0.0
C1610 C 0.2153 0.12709 0.97743 0.0
C1611 C 0.22489 0.11854 0.96348 0.0
C1612 C 0.24379 0.12952 0.95315 0.0
C1613 C 0.25284 0.14918 0.95709 0.0
C1614 C 0.24327 0.1577 0.971 0.0
H1615 H 0.21094 0.18273 0.93518 0.0
H1616 H 0.23402 0.18661 0.94474 0.0
H1617 H 0.21594 0.16374 0.93046 0.0
H1618 H 0.20084 0.11834 0.98571 0.0
H1619 H 0.21769 0.10333 0.96203 0.0
H1620 H 0.84415 0.1083 0.93559 0.0
H1621 H 0.82867 0.07778 0.96444 0.0
H1622 H 0.88206 0.0894 0.00639 0.0
H1623 H 0.8977 0.11985 0.97691 0.0
H1624 H 0.86035 0.05223 0.9871 0.0
H1625 H 0.81839 0.07403 0.06521 0.0
H1626 H 0.8149 0.07554 0.02066 0.0
H1627 H 0.83778 0.09042 0.03913 0.0
C1628 C 0.85262 0.10424 0.95067 0.0
C1629 C 0.87213 0.1164 0.95389 0.0
C1630 C 0.84375 0.08686 0.96728 0.0
C1631 C 0.85413 0.08148 0.98818 0.0
C1632 C 0.87376 0.09328 0.99046 0.0
H1633 H 0.79239 0.99505 0.13942 0.0
H1634 H 0.81639 0.02381 0.11186 0.0
C1635 C 0.8827 0.11063 0.97345 0.0
C1636 C 0.8443 0.06395 0.00871 0.0
H1637 H 0.80877 0.04138 0.06611 0.0
C1638 C 0.84917 0.04988 0.00463 0.0
C1639 C 0.83003 0.06106 0.03217 0.0
C1640 C 0.8251 0.07615 0.03987 0.0
C1641 C 0.83967 0.03273 0.02251 0.0
C1642 C 0.82462 0.02942 0.04444 0.0
C1643 C 0.8202 0.04377 0.04918 0.0
C1644 C 0.81278 0.01115 0.06218 0.0
C1645 C 0.84603 0.01848 0.01797 0.0
C1646 C 0.80319 0.9942 0.04383 0.0
C1647 C 0.78972 0.9776 0.05978 0.0
C1648 C 0.78525 0.97776 0.09417 0.0
C1649 C 0.79548 0.9945 0.11285 0.0
C1650 C 0.80917 0.01097 0.09708 0.0
H1651 H 0.86112 0.02542 0.01053 0.0
H1652 H 0.84403 0.01026 0.04154 0.0
H1653 H 0.83767 0.00857 0.99738 0.0
H1654 H 0.8053 0.99399 0.01676 0.0
H1655 H 0.78192 0.96498 0.04463 0.0
H1656 H 0.04168 0.82557 0.04807 0.0
H1657 H 0.01404 0.82261 0.01829 0.0
H1658 H 0.97818 0.7876 0.09918 0.0
H1659 H 0.00554 0.79056 0.12908 0.0
H1660 H 0.98462 0.7881 0.99637 0.0
H1661 H 0.95719 0.82257 0.08119 0.0
H1662 H 0.981 0.82681 0.08426 0.0
H1663 H 0.9618 0.8062 0.10345 0.0
C1664 C 0.02797 0.81765 0.05993 0.0
C1665 C 0.02582 0.80823 0.09091 0.0
C1666 C 0.01218 0.81593 0.04281 0.0
C1667 C 0.99406 0.80503 0.05665 0.0
C1668 C 0.99204 0.79639 0.0883 0.0
H1669 H 0.87831 0.74398 0.00871 0.0
H1670 H 0.91005 0.76065 0.03253 0.0
C1671 C 0.00773 0.79799 0.10528 0.0
C1672 C 0.97703 0.80077 0.03665 0.0
H1673 H 0.93481 0.79947 0.04225 0.0
C1674 C 0.97388 0.79094 0.00596 0.0
C1675 C 0.96303 0.80446 0.04927 0.0
C1676 C 0.96599 0.81576 0.08119 0.0
C1677 C 0.95662 0.78363 0.98867 0.0
C1678 C 0.94228 0.78655 0.00218 0.0
C1679 C 0.94579 0.79718 0.032 0.0
C1680 C 0.92301 0.77725 0.98753 0.0
C1681 C 0.95349 0.77191 0.95722 0.0
C1682 C 0.9197 0.78115 0.95434 0.0
C1683 C 0.90151 0.77151 0.94051 0.0
C1684 C 0.88629 0.75797 0.9598 0.0
C1685 C 0.8897 0.75431 0.99314 0.0
C1686 C 0.90782 0.76391 0.00689 0.0
H1687 H 0.96458 0.76801 0.95391 0.0
H1688 H 0.93955 0.75879 0.95816 0.0
H1689 H 0.9537 0.78007 0.93459 0.0
H1690 H 0.9312 0.7915 0.93903 0.0
H1691 H 0.89957 0.77433 0.91449 0.0
H1692 H 0.74396 0.86727 0.99313 0.0
H1693 H 0.76024 0.85187 0.96894 0.0
H1694 H 0.79237 0.86248 0.06112 0.0
H1695 H 0.77563 0.8773 0.08601 0.0
H1696 H 0.79911 0.86586 0.95789 0.0
H1697 H 0.76827 0.80532 0.04783 0.0
H1698 H 0.75907 0.82115 0.04344 0.0
H1699 H 0.78052 0.82842 0.06652 0.0
C1700 C 0.75451 0.86636 0.0083 0.0
C1701 C 0.75866 0.87378 0.04136 0.0
C1702 C 0.76386 0.85764 0.99435 0.0
C1703 C 0.77745 0.85596 0.01327 0.0
C1704 C 0.78183 0.86352 0.04616 0.0
H1705 H 0.82562 0.78542 0.95353 0.0
H1706 H 0.82243 0.81005 0.98298 0.0
C1707 C 0.77244 0.87227 0.06018 0.0
C1708 C 0.78649 0.84578 0.99852 0.0
H1709 H 0.78804 0.80502 0.00509 0.0
C1710 C 0.79688 0.85266 0.9684 0.0
C1711 C 0.78364 0.82861 0.01238 0.0
C1712 C 0.77217 0.82029 0.04418 0.0
C1713 C 0.80403 0.84256 0.95123 0.0
C1714 C 0.80044 0.82498 0.96426 0.0
C1715 C 0.79081 0.81852 0.99519 0.0
C1716 C 0.80467 0.8121 0.94457 0.0
C1717 C 0.81512 0.85067 0.91902 0.0
C1718 C 0.79595 0.80528 0.91303 0.0
C1719 C 0.7977 0.79124 0.89623 0.0
C1720 C 0.80813 0.78361 0.91069 0.0
C1721 C 0.81754 0.79103 0.94162 0.0
C1722 C 0.8157 0.80507 0.95854 0.0
H1723 H 0.82191 0.86628 0.91862 0.0
H1724 H 0.82617 0.84671 0.91594 0.0
H1725 H 0.80542 0.84511 0.89698 0.0
H1726 H 0.78706 0.8102 0.90208 0.0
H1727 H 0.79026 0.78588 0.87247 0.0
H1728 H 0.22042 0.03866 0.95716 0.0
H1729 H 0.19771 0.00974 0.98655 0.0
H1730 H 0.18637 0.97869 0.89289 0.0
H1731 H 0.20951 0.00732 0.8637 0.0
H1732 H 0.16036 0.98162 0.98147 0.0
H1733 H 0.20809 0.95379 0.9521 0.0
H1734 H 0.2146 0.97799 0.94445 0.0
H1735 H 0.19965 0.95986 0.91492 0.0
C1736 C 0.21274 0.02576 0.94267 0.0
C1737 C 0.21697 0.02517 0.90827 0.0
C1738 C 0.19979 0.00923 0.95951 0.0
C1739 C 0.19077 0.99196 0.94211 0.0
C1740 C 0.19358 0.99176 0.90702 0.0
H1741 H 0.10606 0.8822 0.02207 0.0
H1742 H 0.12176 0.91329 0.99498 0.0
C1743 C 0.20673 0.00816 0.89033 0.0
C1744 C 0.17999 0.97398 0.96107 0.0
H1745 H 0.17903 0.93264 0.97781 0.0
C1746 C 0.16441 0.97089 0.98076 0.0
C1747 C 0.18557 0.96017 0.96071 0.0
C1748 C 0.203 0.96315 0.94221 0.0
C1749 C 0.15409 0.95422 0.9997 0.0
C1750 C 0.15929 0.94014 0.99829 0.0
C1751 C 0.17495 0.94336 0.97877 0.0
C1752 C 0.1491 0.92205 0.01723 0.0
C1753 C 0.13806 0.95209 0.02165 0.0
C1754 C 0.15923 0.91646 0.03842 0.0
C1755 C 0.15036 0.89863 0.05339 0.0
C1756 C 0.13111 0.88608 0.04791 0.0
C1757 C 0.12081 0.89178 0.02743 0.0
C1758 C 0.12977 0.90958 0.012 0.0
H1759 H 0.13947 0.96597 0.02776 0.0
H1760 H 0.12458 0.94365 0.00781 0.0
H1761 H 0.13731 0.94472 0.04575 0.0
H1762 H 0.17415 0.92578 0.04279 0.0
H1763 H 0.15862 0.89456 0.069 0.0
H1764 H 0.12482 0.25682 0.99345 0.0
H1765 H 0.09328 0.24014 0.96843 0.0
H1766 H 0.07129 0.20859 0.06109 0.0
H1767 H 0.10278 0.2258 0.08669 0.0
H1768 H 0.06841 0.20142 0.95757 0.0
H1769 H 0.03825 0.23239 0.0461 0.0
H1770 H 0.06329 0.24149 0.04243 0.0
H1771 H 0.04884 0.22006 0.06544 0.0
C1772 C 0.11327 0.24625 0.00841 0.0
C1773 C 0.11631 0.24234 0.04177 0.0
C1774 C 0.09528 0.23668 0.99406 0.0
C1775 C 0.07991 0.22318 0.01292 0.0
C1776 C 0.08292 0.21905 0.04615 0.0
H1777 H 0.96151 0.17555 0.95115 0.0
H1778 H 0.98904 0.17828 0.98102 0.0
C1779 C 0.10097 0.22866 0.06057 0.0
C1780 C 0.06074 0.21406 0.99783 0.0
H1781 H 0.01836 0.21244 0.00334 0.0
C1782 C 0.05738 0.20364 0.96778 0.0
C1783 C 0.04633 0.21689 0.01127 0.0
C1784 C 0.0493 0.22842 0.04293 0.0
C1785 C 0.0402 0.19645 0.95028 0.0
C1786 C 0.02613 0.20002 0.96289 0.0
C1787 C 0.02915 0.20967 0.99376 0.0
C1788 C 0.00913 0.19582 0.94277 0.0
C1789 C 0.0374 0.18533 0.91818 0.0
C1790 C 0.01125 0.2045 0.91113 0.0
C1791 C 0.99562 0.20301 0.89409 0.0
C1792 C 0.97749 0.19287 0.9084 0.0
C1793 C 0.97525 0.1834 0.93934 0.0
C1794 C 0.99097 0.18499 0.95651 0.0
H1795 H 0.04615 0.17846 0.91823 0.0
H1796 H 0.0224 0.17434 0.91474 0.0
H1797 H 0.04178 0.19503 0.89611 0.0
H1798 H 0.02513 0.21325 0.90032 0.0
H1799 H 0.99789 0.21049 0.87031 0.0
H1800 H 0.8434 0.54985 0.38298 0.0
H1801 H 0.84617 0.52506 0.35324 0.0
H1802 H 0.88106 0.52396 0.43413 0.0
H1803 H 0.87825 0.54843 0.46406 0.0
H1804 H 0.88029 0.52988 0.33107 0.0
H1805 H 0.84615 0.46813 0.41634 0.0
H1806 H 0.84208 0.48781 0.4197 0.0
H1807 H 0.86273 0.48908 0.43843 0.0
C1808 C 0.85126 0.54398 0.39485 0.0
C1809 C 0.86068 0.5512 0.42584 0.0
C1810 C 0.85286 0.52986 0.37776 0.0
C1811 C 0.86367 0.52253 0.3916 0.0
C1812 C 0.87233 0.5291 0.42326 0.0
H1813 H 0.92454 0.46788 0.3413 0.0
H1814 H 0.90817 0.48307 0.36591 0.0
C1815 C 0.87081 0.54323 0.44025 0.0
C1816 C 0.86783 0.5097 0.37158 0.0
H1817 H 0.86907 0.46875 0.37706 0.0
C1818 C 0.87748 0.51631 0.3407 0.0
C1819 C 0.86419 0.49204 0.38425 0.0
C1820 C 0.85305 0.48376 0.41634 0.0
C1821 C 0.88463 0.50628 0.32322 0.0
C1822 C 0.88175 0.48904 0.33675 0.0
C1823 C 0.87133 0.48201 0.3668 0.0
C1824 C 0.89083 0.47896 0.32176 0.0
C1825 C 0.89612 0.51474 0.29149 0.0
C1826 C 0.88641 0.47146 0.28883 0.0
C1827 C 0.89585 0.46283 0.27457 0.0
C1828 C 0.90973 0.46139 0.29318 0.0
C1829 C 0.91393 0.46875 0.32628 0.0
C1830 C 0.90451 0.47735 0.34047 0.0
H1831 H 0.89994 0.5297 0.28798 0.0
H1832 H 0.90926 0.51397 0.29222 0.0
H1833 H 0.88782 0.50666 0.26908 0.0
H1834 H 0.87581 0.47247 0.27402 0.0
H1835 H 0.89262 0.45782 0.24873 0.0
H1836 H 0.54238 0.43642 0.24714 0.0
H1837 H 0.52603 0.40454 0.2712 0.0
H1838 H 0.51802 0.42669 0.36497 0.0
H1839 H 0.53449 0.45849 0.34144 0.0
H1840 H 0.53268 0.38903 0.33509 0.0
H1841 H 0.46414 0.38728 0.33115 0.0
H1842 H 0.48437 0.40397 0.30692 0.0
H1843 H 0.48268 0.4079 0.35134 0.0
C1844 C 0.53759 0.4346 0.27314 0.0
C1845 C 0.53992 0.45006 0.29248 0.0
C1846 C 0.52812 0.41633 0.28676 0.0
C1847 C 0.52071 0.41328 0.31974 0.0
C1848 C 0.52346 0.42873 0.33932 0.0
H1849 H 0.45494 0.32936 0.46311 0.0
H1850 H 0.47781 0.35717 0.43197 0.0
C1851 C 0.53286 0.4469 0.3258 0.0
C1852 C 0.50923 0.39396 0.33353 0.0
H1853 H 0.46544 0.36382 0.36488 0.0
C1854 C 0.51791 0.38333 0.34119 0.0
C1855 C 0.48994 0.38656 0.34117 0.0
C1856 C 0.47964 0.39692 0.33195 0.0
C1857 C 0.50795 0.36587 0.35799 0.0
C1858 C 0.48893 0.35898 0.36708 0.0
C1859 C 0.4801 0.36926 0.35812 0.0
C1860 C 0.47801 0.34172 0.38767 0.0
C1861 C 0.51792 0.35523 0.36725 0.0
C1862 C 0.47101 0.32373 0.37345 0.0
C1863 C 0.45785 0.30767 0.39128 0.0
C1864 C 0.4514 0.30947 0.42341 0.0
C1865 C 0.45945 0.32745 0.43833 0.0
C1866 C 0.47256 0.34339 0.42059 0.0
H1867 H 0.53318 0.36328 0.36102 0.0
H1868 H 0.51627 0.35193 0.3948 0.0
H1869 H 0.51141 0.34165 0.3533 0.0
H1870 H 0.47492 0.32218 0.3479 0.0
H1871 H 0.45188 0.29404 0.37903 0.0
H1872 H 0.55966 0.06745 0.27112 0.0
H1873 H 0.59044 0.08273 0.29906 0.0
H1874 H 0.58007 0.12601 0.33745 0.0
H1875 H 0.54936 0.11095 0.3089 0.0
H1876 H 0.61699 0.14049 0.31722 0.0
H1877 H 0.595 0.07845 0.40034 0.0
H1878 H 0.59301 0.07242 0.35621 0.0
H1879 H 0.57856 0.08116 0.37384 0.0
C1880 C 0.56405 0.08034 0.28522 0.0
C1881 C 0.55217 0.08806 0.28771 0.0
C1882 C 0.58158 0.08901 0.3013 0.0
C1883 C 0.5874 0.1053 0.32094 0.0
C1884 C 0.57586 0.11344 0.32248 0.0
H1885 H 0.67448 0.13216 0.47163 0.0
H1886 H 0.64577 0.12736 0.4438 0.0
C1887 C 0.55836 0.10487 0.306 0.0
C1888 C 0.60509 0.11323 0.34102 0.0
H1889 H 0.62772 0.10117 0.3999 0.0
C1890 C 0.61932 0.13198 0.33554 0.0
C1891 C 0.60796 0.10226 0.36548 0.0
C1892 C 0.59275 0.08253 0.37462 0.0
C1893 C 0.6366 0.13983 0.35306 0.0
C1894 C 0.63985 0.12847 0.37608 0.0
C1895 C 0.62536 0.10991 0.38216 0.0
C1896 C 0.65819 0.13509 0.3937 0.0
C1897 C 0.65103 0.16024 0.34699 0.0
C1898 C 0.67499 0.14175 0.37515 0.0
C1899 C 0.69157 0.14492 0.39123 0.0
C1900 C 0.6915 0.141 0.42597 0.0
C1901 C 0.67494 0.13524 0.44479 0.0
C1902 C 0.65851 0.13245 0.42887 0.0
H1903 H 0.64424 0.16839 0.33861 0.0
H1904 H 0.65944 0.16694 0.37018 0.0
H1905 H 0.66076 0.16115 0.32655 0.0
H1906 H 0.67508 0.14347 0.3479 0.0
H1907 H 0.70407 0.14915 0.376 0.0
H1908 H 0.46837 0.12639 0.19652 0.0
H1909 H 0.46403 0.15055 0.22442 0.0
H1910 H 0.47888 0.13624 0.32054 0.0
H1911 H 0.48414 0.11267 0.29234 0.0
H1912 H 0.43743 0.1422 0.26748 0.0
H1913 H 0.50416 0.19199 0.33127 0.0
H1914 H 0.50289 0.17555 0.29944 0.0
H1915 H 0.49656 0.16807 0.3428 0.0
C1916 C 0.47132 0.12884 0.22342 0.0
C1917 C 0.47656 0.11763 0.24228 0.0
C1918 C 0.46878 0.14262 0.23939 0.0
C1919 C 0.47114 0.14531 0.27465 0.0
C1920 C 0.47739 0.13482 0.29324 0.0
H1921 H 0.4029 0.17592 0.39569 0.0
H1922 H 0.41838 0.16051 0.36822 0.0
C1923 C 0.48032 0.12126 0.27711 0.0
C1924 C 0.4645 0.15702 0.29222 0.0
H1925 H 0.47618 0.1915 0.35172 0.0
C1926 C 0.44605 0.15314 0.28557 0.0
C1927 C 0.4757 0.17141 0.3157 0.0
C1928 C 0.49599 0.17714 0.32246 0.0
C1929 C 0.43837 0.16289 0.3021 0.0
C1930 C 0.44916 0.1765 0.32699 0.0
C1931 C 0.4678 0.18082 0.33306 0.0
C1932 C 0.44113 0.18621 0.34691 0.0
C1933 C 0.41878 0.15859 0.29239 0.0
C1934 C 0.44928 0.2059 0.34551 0.0
C1935 C 0.44059 0.21478 0.3617 0.0
C1936 C 0.42362 0.20409 0.37955 0.0
C1937 C 0.4159 0.18448 0.38192 0.0
C1938 C 0.42469 0.17567 0.36613 0.0
H1939 H 0.41488 0.1524 0.26655 0.0
H1940 H 0.40845 0.14817 0.3105 0.0
H1941 H 0.41753 0.17148 0.29316 0.0
H1942 H 0.46197 0.21431 0.33085 0.0
H1943 H 0.44667 0.22986 0.35889 0.0
H1944 H 0.80089 0.20952 0.32604 0.0
H1945 H 0.81588 0.24113 0.30168 0.0
H1946 H 0.80659 0.2628 0.39492 0.0
H1947 H 0.79222 0.2313 0.42 0.0
H1948 H 0.80175 0.26577 0.29166 0.0
H1949 H 0.86336 0.29613 0.37918 0.0
H1950 H 0.84754 0.27107 0.37542 0.0
H1951 H 0.84054 0.28535 0.39889 0.0
C1952 C 0.80202 0.22099 0.34143 0.0
C1953 C 0.7951 0.21778 0.37485 0.0
C1954 C 0.8105 0.23904 0.32738 0.0
C1955 C 0.81243 0.25433 0.34651 0.0
C1956 C 0.80537 0.25121 0.37978 0.0
H1957 H 0.88144 0.37291 0.28526 0.0
H1958 H 0.85707 0.34506 0.315 0.0
C1959 C 0.79687 0.2331 0.39392 0.0
C1960 C 0.82231 0.27351 0.33153 0.0
H1961 H 0.86295 0.31601 0.33675 0.0
C1962 C 0.81503 0.27684 0.30171 0.0
C1963 C 0.83959 0.28796 0.34478 0.0
C1964 C 0.84836 0.28501 0.37618 0.0
C1965 C 0.82484 0.29404 0.28425 0.0
C1966 C 0.84251 0.30816 0.29669 0.0
C1967 C 0.84937 0.30517 0.32732 0.0
C1968 C 0.85506 0.32525 0.27665 0.0
C1969 C 0.81635 0.29682 0.25236 0.0
C1970 C 0.86177 0.32336 0.245 0.0
C1971 C 0.87568 0.33917 0.22803 0.0
C1972 C 0.88326 0.35724 0.24242 0.0
C1973 C 0.87587 0.35922 0.27339 0.0
C1974 C 0.86198 0.34332 0.29048 0.0
H1975 H 0.80075 0.2878 0.25234 0.0
H1976 H 0.82006 0.31177 0.24936 0.0
H1977 H 0.82186 0.29282 0.23007 0.0
H1978 H 0.85691 0.30954 0.23414 0.0
H1979 H 0.88104 0.33712 0.20424 0.0
H1980 H 0.66413 0.54471 0.2026 0.0
H1981 H 0.69227 0.55012 0.23318 0.0
H1982 H 0.658 0.51778 0.31779 0.0
H1983 H 0.62956 0.51217 0.28721 0.0
H1984 H 0.70003 0.56939 0.29823 0.0
H1985 H 0.69849 0.50072 0.30573 0.0
H1986 H 0.68616 0.50568 0.27291 0.0
H1987 H 0.67716 0.50105 0.3154 0.0
C1988 C 0.66246 0.53834 0.22739 0.0
C1989 C 0.64458 0.52816 0.2426 0.0
C1990 C 0.67859 0.54145 0.24482 0.0
C1991 C 0.67722 0.53438 0.27772 0.0
C1992 C 0.65934 0.52319 0.29224 0.0
H1993 H 0.77109 0.56459 0.41977 0.0
H1994 H 0.73942 0.54941 0.39488 0.0
C1995 C 0.6431 0.52002 0.27473 0.0
C1996 C 0.69462 0.54083 0.29796 0.0
H1997 H 0.72404 0.52692 0.33223 0.0
C1998 C 0.70523 0.56008 0.30581 0.0
C1999 C 0.70121 0.5286 0.30818 0.0
C2000 C 0.69029 0.50785 0.30009 0.0
C2001 C 0.72249 0.56755 0.3229 0.0
C2002 C 0.72953 0.55551 0.33183 0.0
C2003 C 0.71862 0.53611 0.32515 0.0
C2004 C 0.74871 0.56321 0.3462 0.0
C2005 C 0.73313 0.58834 0.33106 0.0
C2006 C 0.76441 0.57564 0.32683 0.0
C2007 C 0.78246 0.58422 0.34085 0.0
C2008 C 0.78525 0.58038 0.37445 0.0
C2009 C 0.76954 0.56751 0.39359 0.0
C2010 C 0.7514 0.55892 0.37949 0.0
H2011 H 0.7237 0.59445 0.33108 0.0
H2012 H 0.74015 0.59096 0.35619 0.0
H2013 H 0.74416 0.59586 0.31154 0.0
H2014 H 0.76266 0.57896 0.30095 0.0
H2015 H 0.79426 0.59398 0.32535 0.0
H2016 H 0.56116 0.79139 0.58233 0.0
H2017 H 0.54428 0.80594 0.60768 0.0
H2018 H 0.57715 0.81722 0.69908 0.0
H2019 H 0.59359 0.8021 0.67444 0.0
H2020 H 0.53818 0.80274 0.71094 0.0
H2021 H 0.56794 0.86313 0.62064 0.0
H2022 H 0.55583 0.83998 0.60215 0.0
H2023 H 0.57746 0.84756 0.62483 0.0
C2024 C 0.56449 0.79652 0.60809 0.0
C2025 C 0.57853 0.79529 0.62656 0.0
C2026 C 0.55501 0.80511 0.62237 0.0
C2027 C 0.55955 0.81278 0.65518 0.0
C2028 C 0.5734 0.81137 0.67374 0.0
H2029 H 0.54652 0.88243 0.79672 0.0
H2030 H 0.5498 0.85819 0.76699 0.0
C2031 C 0.58285 0.80281 0.65954 0.0
C2032 C 0.55041 0.8228 0.67017 0.0
H2033 H 0.54835 0.86329 0.66387 0.0
C2034 C 0.54021 0.81588 0.70046 0.0
C2035 C 0.55299 0.83987 0.65635 0.0
C2036 C 0.56425 0.84822 0.62434 0.0
C2037 C 0.53299 0.82586 0.71784 0.0
C2038 C 0.53633 0.84337 0.70484 0.0
C2039 C 0.54577 0.84985 0.67375 0.0
C2040 C 0.53203 0.85615 0.72468 0.0
C2041 C 0.52209 0.8177 0.7502 0.0
C2042 C 0.52088 0.86308 0.71087 0.0
C2043 C 0.519 0.87708 0.72784 0.0
C2044 C 0.52848 0.88456 0.75869 0.0
C2045 C 0.53902 0.87702 0.77302 0.0
C2046 C 0.54081 0.86302 0.75616 0.0
H2047 H 0.5154 0.8021 0.75058 0.0
H2048 H 0.53189 0.82332 0.77209 0.0
H2049 H 0.51097 0.82155 0.75358 0.0
H2050 H 0.51409 0.85806 0.68648 0.0
H2051 H 0.51083 0.88261 0.71602 0.0
H2052 H 0.19902 0.79167 0.67536 0.0
H2053 H 0.18252 0.76007 0.69979 0.0
H2054 H 0.19366 0.73762 0.60942 0.0
H2055 H 0.21 0.76924 0.5845 0.0
H2056 H 0.15043 0.72932 0.66953 0.0
H2057 H 0.20871 0.71384 0.68844 0.0
H2058 H 0.21295 0.73757 0.68323 0.0
H2059 H 0.20673 0.72219 0.64724 0.0
C2060 C 0.19814 0.78006 0.66075 0.0
C2061 C 0.20613 0.78307 0.62818 0.0
C2062 C 0.18875 0.76201 0.67481 0.0
C2063 C 0.18711 0.74655 0.65664 0.0
C2064 C 0.19518 0.74945 0.6242 0.0
H2065 H 0.11716 0.62728 0.7143 0.0
H2066 H 0.14007 0.65584 0.68394 0.0
C2067 C 0.20461 0.76757 0.61006 0.0
C2068 C 0.17565 0.72734 0.67093 0.0
H2069 H 0.1781 0.69009 0.70434 0.0
C2070 C 0.15647 0.7207 0.67695 0.0
C2071 C 0.18354 0.71607 0.68029 0.0
C2072 C 0.20414 0.72273 0.67474 0.0
C2073 C 0.14504 0.70331 0.69277 0.0
C2074 C 0.15306 0.69235 0.70335 0.0
C2075 C 0.17207 0.6986 0.6963 0.0
C2076 C 0.14191 0.67497 0.72351 0.0
C2077 C 0.12447 0.69685 0.69846 0.0
C2078 C 0.13606 0.67631 0.75628 0.0
C2079 C 0.12302 0.66014 0.77357 0.0
C2080 C 0.1156 0.64226 0.75846 0.0
C2081 C 0.12257 0.64083 0.72661 0.0
C2082 C 0.13563 0.65712 0.70921 0.0
H2083 H 0.11956 0.70453 0.68196 0.0
H2084 H 0.11558 0.6815 0.69357 0.0
H2085 H 0.12237 0.69951 0.72527 0.0
H2086 H 0.14093 0.68998 0.76786 0.0
H2087 H 0.11814 0.66176 0.79821 0.0
H2088 H 0.21102 0.41393 0.6749 0.0
H2089 H 0.24248 0.43067 0.70016 0.0
H2090 H 0.26559 0.45827 0.60458 0.0
H2091 H 0.23411 0.44102 0.57889 0.0
H2092 H 0.28511 0.44247 0.63269 0.0
H2093 H 0.27478 0.48535 0.72943 0.0
H2094 H 0.2571 0.4609 0.73182 0.0
H2095 H 0.25864 0.4743 0.69453 0.0
C2096 C 0.22279 0.42377 0.65942 0.0
C2097 C 0.22007 0.42658 0.62521 0.0
C2098 C 0.24072 0.43345 0.67394 0.0
C2099 C 0.25632 0.44612 0.65452 0.0
C2100 C 0.25368 0.44885 0.62021 0.0
H2101 H 0.37529 0.49325 0.71547 0.0
H2102 H 0.34784 0.4903 0.68498 0.0
C2103 C 0.23569 0.43915 0.60565 0.0
C2104 C 0.2755 0.45517 0.66953 0.0
H2105 H 0.30104 0.4803 0.73837 0.0
C2106 C 0.28877 0.45108 0.65538 0.0
C2107 C 0.28025 0.46642 0.69912 0.0
C2108 C 0.267 0.47217 0.71442 0.0
C2109 C 0.3062 0.45693 0.67121 0.0
C2110 C 0.31057 0.46743 0.70171 0.0
C2111 C 0.29765 0.47225 0.71501 0.0
C2112 C 0.32751 0.47168 0.72194 0.0
C2113 C 0.31932 0.4509 0.65626 0.0
C2114 C 0.32524 0.46296 0.75357 0.0
C2115 C 0.34083 0.46467 0.77108 0.0
C2116 C 0.35907 0.4752 0.75735 0.0
C2117 C 0.36145 0.48496 0.72669 0.0
C2118 C 0.34577 0.4832 0.70911 0.0
H2119 H 0.31245 0.4402 0.63592 0.0
H2120 H 0.33176 0.46334 0.64517 0.0
H2121 H 0.32441 0.44496 0.67624 0.0
H2122 H 0.31128 0.4541 0.76402 0.0
H2123 H 0.33846 0.45709 0.79476 0.0
H2124 H 0.11148 0.56332 0.68801 0.0
H2125 H 0.12696 0.54836 0.65854 0.0
H2126 H 0.08639 0.49459 0.70097 0.0
H2127 H 0.07072 0.50939 0.7299 0.0
H2128 H 0.14339 0.52742 0.67838 0.0
H2129 H 0.07999 0.48425 0.60002 0.0
H2130 H 0.08251 0.50351 0.62596 0.0
H2131 H 0.07502 0.48077 0.64459 0.0
C2132 C 0.10611 0.54839 0.69157 0.0
C2133 C 0.08993 0.53751 0.71133 0.0
C2134 C 0.1149 0.53984 0.67458 0.0
C2135 C 0.10762 0.5203 0.67704 0.0
C2136 C 0.09199 0.50961 0.69804 0.0
H2137 H 0.15371 0.44971 0.62122 0.0
H2138 H 0.14797 0.47307 0.64887 0.0
C2139 C 0.08309 0.51809 0.71467 0.0
C2140 C 0.11573 0.51085 0.65659 0.0
H2141 H 0.10364 0.47549 0.59918 0.0
C2142 C 0.13478 0.51617 0.66081 0.0
C2143 C 0.10461 0.49647 0.63309 0.0
C2144 C 0.08446 0.49104 0.62533 0.0
C2145 C 0.14281 0.50701 0.64302 0.0
C2146 C 0.13136 0.49187 0.62102 0.0
C2147 C 0.11246 0.487 0.61614 0.0
C2148 C 0.13819 0.48037 0.60335 0.0
C2149 C 0.1635 0.51379 0.64775 0.0
C2150 C 0.13485 0.47675 0.56844 0.0
C2151 C 0.1377 0.46308 0.5528 0.0
C2152 C 0.1442 0.4529 0.57163 0.0
C2153 C 0.14889 0.45748 0.60597 0.0
C2154 C 0.14569 0.47093 0.6218 0.0
H2155 H 0.17136 0.52888 0.65531 0.0
H2156 H 0.16522 0.50552 0.66833 0.0
H2157 H 0.1699 0.51201 0.62423 0.0
H2158 H 0.12913 0.48386 0.5536 0.0
H2159 H 0.134 0.45989 0.52627 0.0
H2160 H 0.46956 0.54351 0.66037 0.0
H2161 H 0.48487 0.57511 0.63591 0.0
H2162 H 0.47498 0.59696 0.72835 0.0
H2163 H 0.46025 0.56546 0.75354 0.0
H2164 H 0.47093 0.59989 0.62495 0.0
H2165 H 0.53194 0.6301 0.71384 0.0
H2166 H 0.51608 0.60505 0.70999 0.0
H2167 H 0.50897 0.61938 0.73298 0.0
C2168 C 0.47063 0.55502 0.67558 0.0
C2169 C 0.46343 0.55186 0.70881 0.0
C2170 C 0.4793 0.57306 0.66146 0.0
C2171 C 0.48115 0.5884 0.68034 0.0
C2172 C 0.47382 0.58533 0.71341 0.0
H2173 H 0.55084 0.70697 0.61901 0.0
H2174 H 0.52648 0.67913 0.6488 0.0
C2175 C 0.46512 0.56722 0.72761 0.0
C2176 C 0.49121 0.60758 0.6653 0.0
H2177 H 0.53193 0.64999 0.67098 0.0
C2178 C 0.48417 0.61093 0.63521 0.0
C2179 C 0.50844 0.62199 0.67881 0.0
C2180 C 0.51695 0.61902 0.71053 0.0
C2181 C 0.49415 0.62811 0.61774 0.0
C2182 C 0.51177 0.6422 0.63044 0.0
C2183 C 0.5184 0.63918 0.66133 0.0
C2184 C 0.52447 0.65929 0.61051 0.0
C2185 C 0.48586 0.63092 0.5856 0.0
C2186 C 0.53122 0.65739 0.57891 0.0
C2187 C 0.54512 0.6732 0.5619 0.0
C2188 C 0.55267 0.69129 0.57621 0.0
C2189 C 0.5453 0.69327 0.6072 0.0
C2190 C 0.53141 0.67737 0.62432 0.0
H2191 H 0.47025 0.62199 0.58537 0.0
H2192 H 0.48969 0.64589 0.58241 0.0
H2193 H 0.49141 0.6268 0.56352 0.0
H2194 H 0.52637 0.64356 0.56807 0.0
H2195 H 0.55046 0.67113 0.5381 0.0
H2196 H 0.29637 0.84539 0.61961 0.0
H2197 H 0.32511 0.8513 0.64952 0.0
H2198 H 0.35866 0.88365 0.5643 0.0
H2199 H 0.33023 0.87799 0.53438 0.0
H2200 H 0.35861 0.84707 0.63084 0.0
H2201 H 0.37439 0.92089 0.64734 0.0
H2202 H 0.35126 0.90191 0.63602 0.0
H2203 H 0.36944 0.91239 0.60442 0.0
C2204 C 0.30983 0.85338 0.60691 0.0
C2205 C 0.31103 0.86147 0.57482 0.0
C2206 C 0.32622 0.85676 0.62407 0.0
C2207 C 0.34397 0.86819 0.60931 0.0
C2208 C 0.34508 0.87501 0.57627 0.0
H2209 H 0.46078 0.92695 0.65783 0.0
H2210 H 0.42931 0.91182 0.63294 0.0
C2211 C 0.32879 0.87174 0.55922 0.0
C2212 C 0.36146 0.87463 0.62927 0.0
H2213 H 0.39885 0.91455 0.66122 0.0
C2214 C 0.36736 0.86176 0.63786 0.0
C2215 C 0.3727 0.89379 0.6386 0.0
C2216 C 0.3666 0.90805 0.63144 0.0
C2217 C 0.38474 0.86779 0.6542 0.0
C2218 C 0.39628 0.88709 0.66234 0.0
C2219 C 0.39002 0.89978 0.65473 0.0
C2220 C 0.41539 0.89481 0.67706 0.0
C2221 C 0.391 0.85369 0.66148 0.0
C2222 C 0.41801 0.89025 0.71019 0.0
C2223 C 0.43607 0.89896 0.72462 0.0
C2224 C 0.45177 0.91235 0.70608 0.0
C2225 C 0.44902 0.9167 0.67281 0.0
C2226 C 0.43104 0.90802 0.65848 0.0
H2227 H 0.38195 0.83999 0.6486 0.0
H2228 H 0.40583 0.85928 0.65326 0.0
H2229 H 0.39035 0.85112 0.68923 0.0
H2230 H 0.40604 0.88042 0.72525 0.0
H2231 H 0.43755 0.89573 0.75064 0.0
loop_
_geom_bond_atom_site_label_1
_geom_bond_atom_site_label_2
_geom_bond_distance
_geom_bond_site_symmetry_2
_ccdc_geom_bond_type
Co0 O3 1.970 . S
Co0 N17 1.989 . S
Co0 O25 1.967 . S
Co0 O32 1.920 . S
Co1 O4 1.966 . S
Co1 N10 2.022 . S
Co1 N18 1.993 . S
Co1 O26 1.941 . S
C2 O3 1.258 . S
C2 O4 1.263 . S
O3 Co0 1.970 . S
O3 C2 1.258 . S
O4 Co1 1.966 . S
O4 C2 1.263 . S
C5 O6 1.235 . S
C5 O32 1.289 . S
O6 C5 1.235 . S
C7 C9 1.400 . S
C7 N10 1.351 . S
C7 C12 1.501 . S
C8 C9 1.387 . S
C8 N11 1.341 . S
C9 C7 1.400 . S
C9 C8 1.387 . S
N10 Co1 2.022 . S
N10 C7 1.351 . S
N10 N11 1.365 . S
N11 C8 1.341 . S
N11 N10 1.365 . S
N11 H31 0.862 . S
C12 C7 1.501 . S
C12 H13 0.961 . S
C12 H14 0.961 . S
C12 H15 0.960 . S
H13 C12 0.961 . S
H14 C12 0.961 . S
H15 C12 0.960 . S
C16 N17 1.342 . S
C16 C20 1.401 . S
C16 C21 1.499 . S
N17 Co0 1.989 . S
N17 C16 1.342 . S
N17 N18 1.388 . S
N18 Co1 1.993 . S
N18 N17 1.388 . S
N18 C19 1.346 . S
C19 N18 1.346 . S
C19 C20 1.396 . S
C19 C29 1.510 . S
C20 C16 1.401 . S
C20 C19 1.396 . S
C21 C16 1.499 . S
C21 H22 0.959 . S
C21 H23 0.960 . S
C21 H24 0.961 . S
H22 C21 0.959 . S
H23 C21 0.960 . S
H24 C21 0.961 . S
O25 Co0 1.967 . S
O25 C33 1.258 . S
O26 Co1 1.941 . S
O26 C33 1.266 . S
H27 C29 0.959 . S
H28 C29 0.961 . S
C29 C19 1.510 . S
C29 H27 0.959 . S
C29 H28 0.961 . S
C29 H30 0.960 . S
H30 C29 0.960 . S
H31 N11 0.862 . S
O32 Co0 1.920 . S
O32 C5 1.289 . S
C33 O25 1.258 . S
C33 O26 1.266 . S
Co34 O37 1.970 . S
Co34 N51 1.989 . S
Co34 O59 1.967 . S
Co34 O66 1.920 . S
Co35 O38 1.966 . S
Co35 N44 2.022 . S
Co35 N52 1.993 . S
Co35 O60 1.941 . S
C36 O37 1.258 . S
C36 O38 1.263 . S
O37 Co34 1.970 . S
O37 C36 1.258 . S
O38 Co35 1.966 . S
O38 C36 1.263 . S
C39 O40 1.235 . S
C39 O66 1.289 . S
O40 C39 1.235 . S
C41 C43 1.400 . S
C41 N44 1.351 . S
C41 C46 1.501 . S
C42 C43 1.387 . S
C42 N45 1.341 . S
C43 C41 1.400 . S
C43 C42 1.387 . S
N44 Co35 2.022 . S
N44 C41 1.351 . S
N44 N45 1.365 . S
N45 C42 1.341 . S
N45 N44 1.365 . S
N45 H65 0.862 . S
C46 C41 1.501 . S
C46 H47 0.961 . S
C46 H48 0.961 . S
C46 H49 0.960 . S
H47 C46 0.961 . S
H48 C46 0.961 . S
H49 C46 0.960 . S
C50 N51 1.342 . S
C50 C54 1.401 . S
C50 C55 1.499 . S
N51 Co34 1.989 . S
N51 C50 1.342 . S
N51 N52 1.388 . S
N52 Co35 1.993 . S
N52 N51 1.388 . S
N52 C53 1.346 . S
C53 N52 1.346 . S
C53 C54 1.396 . S
C53 C63 1.510 . S
C54 C50 1.401 . S
C54 C53 1.396 . S
C55 C50 1.499 . S
C55 H56 0.959 . S
C55 H57 0.960 . S
C55 H58 0.961 . S
H56 C55 0.959 . S
H57 C55 0.960 . S
H58 C55 0.961 . S
O59 Co34 1.967 . S
O59 C67 1.258 . S
O60 Co35 1.941 . S
O60 C67 1.266 . S
H61 C63 0.959 . S
H62 C63 0.961 . S
C63 C53 1.510 . S
C63 H61 0.959 . S
C63 H62 0.961 . S
C63 H64 0.960 . S
H64 C63 0.960 . S
H65 N45 0.862 . S
O66 Co34 1.920 . S
O66 C39 1.289 . S
C67 O59 1.258 . S
C67 O60 1.266 . S
Co68 O71 1.970 . S
Co68 N85 1.989 . S
Co68 O93 1.967 . S
Co68 O100 1.920 . S
Co69 O72 1.966 . S
Co69 N78 2.022 . S
Co69 N86 1.993 . S
Co69 O94 1.941 . S
C70 O71 1.258 . S
C70 O72 1.263 . S
O71 Co68 1.970 . S
O71 C70 1.258 . S
O72 Co69 1.966 . S
O72 C70 1.263 . S
C73 O74 1.235 . S
C73 O100 1.289 . S
O74 C73 1.235 . S
C75 C77 1.400 . S
C75 N78 1.351 . S
C75 C80 1.501 . S
C76 C77 1.387 . S
C76 N79 1.341 . S
C77 C75 1.400 . S
C77 C76 1.387 . S
N78 Co69 2.022 . S
N78 C75 1.351 . S
N78 N79 1.365 . S
N79 C76 1.341 . S
N79 N78 1.365 . S
N79 H99 0.862 . S
C80 C75 1.501 . S
C80 H81 0.961 . S
C80 H82 0.961 . S
C80 H83 0.960 . S
H81 C80 0.961 . S
H82 C80 0.961 . S
H83 C80 0.960 . S
C84 N85 1.342 . S
C84 C88 1.401 . S
C84 C89 1.499 . S
N85 Co68 1.989 . S
N85 C84 1.342 . S
N85 N86 1.388 . S
N86 Co69 1.993 . S
N86 N85 1.388 . S
N86 C87 1.346 . S
C87 N86 1.346 . S
C87 C88 1.396 . S
C87 C97 1.510 . S
C88 C84 1.401 . S
C88 C87 1.396 . S
C89 C84 1.499 . S
C89 H90 0.959 . S
C89 H91 0.960 . S
C89 H92 0.961 . S
H90 C89 0.959 . S
H91 C89 0.960 . S
H92 C89 0.961 . S
O93 Co68 1.967 . S
O93 C101 1.258 . S
O94 Co69 1.941 . S
O94 C101 1.266 . S
H95 C97 0.959 . S
H96 C97 0.961 . S
C97 C87 1.510 . S
C97 H95 0.959 . S
C97 H96 0.961 . S
C97 H98 0.960 . S
H98 C97 0.960 . S
H99 N79 0.862 . S
O100 Co68 1.920 . S
O100 C73 1.289 . S
C101 O93 1.258 . S
C101 O94 1.266 . S
Co102 O105 1.970 . S
Co102 N119 1.989 . S
Co102 O127 1.967 . S
Co102 O134 1.920 . S
Co103 O106 1.966 . S
Co103 N112 2.022 . S
Co103 N120 1.993 . S
Co103 O128 1.941 . S
C104 O105 1.258 . S
C104 O106 1.263 . S
O105 Co102 1.970 . S
O105 C104 1.258 . S
O106 Co103 1.966 . S
O106 C104 1.263 . S
C107 O108 1.235 . S
C107 O134 1.289 . S
O108 C107 1.235 . S
C109 C111 1.400 . S
C109 N112 1.351 . S
C109 C114 1.501 . S
C110 C111 1.387 . S
C110 N113 1.341 . S
C111 C109 1.400 . S
C111 C110 1.387 . S
N112 Co103 2.022 . S
N112 C109 1.351 . S
N112 N113 1.365 . S
N113 C110 1.341 . S
N113 N112 1.365 . S
N113 H133 0.862 . S
C114 C109 1.501 . S
C114 H115 0.961 . S
C114 H116 0.961 . S
C114 H117 0.960 . S
H115 C114 0.961 . S
H116 C114 0.961 . S
H117 C114 0.960 . S
C118 N119 1.342 . S
C118 C122 1.401 . S
C118 C123 1.499 . S
N119 Co102 1.989 . S
N119 C118 1.342 . S
N119 N120 1.388 . S
N120 Co103 1.993 . S
N120 N119 1.388 . S
N120 C121 1.346 . S
C121 N120 1.346 . S
C121 C122 1.396 . S
C121 C131 1.510 . S
C122 C118 1.401 . S
C122 C121 1.396 . S
C123 C118 1.499 . S
C123 H124 0.959 . S
C123 H125 0.960 . S
C123 H126 0.961 . S
H124 C123 0.959 . S
H125 C123 0.960 . S
H126 C123 0.961 . S
O127 Co102 1.967 . S
O127 C135 1.258 . S
O128 Co103 1.941 . S
O128 C135 1.266 . S
H129 C131 0.959 . S
H130 C131 0.961 . S
C131 C121 1.510 . S
C131 H129 0.959 . S
C131 H130 0.961 . S
C131 H132 0.960 . S
H132 C131 0.960 . S
H133 N113 0.862 . S
O134 Co102 1.920 . S
O134 C107 1.289 . S
C135 O127 1.258 . S
C135 O128 1.266 . S
Co136 O139 1.970 . S
Co136 N153 1.989 . S
Co136 O161 1.967 . S
Co136 O168 1.920 . S
Co137 O140 1.966 . S
Co137 N146 2.022 . S
Co137 N154 1.993 . S
Co137 O162 1.941 . S
C138 O139 1.258 . S
C138 O140 1.263 . S
O139 Co136 1.970 . S
O139 C138 1.258 . S
O140 Co137 1.966 . S
O140 C138 1.263 . S
C141 O142 1.235 . S
C141 O168 1.289 . S
O142 C141 1.235 . S
C143 C145 1.400 . S
C143 N146 1.351 . S
C143 C148 1.501 . S
C144 C145 1.387 . S
C144 N147 1.341 . S
C145 C143 1.400 . S
C145 C144 1.387 . S
N146 Co137 2.022 . S
N146 C143 1.351 . S
N146 N147 1.365 . S
N147 C144 1.341 . S
N147 N146 1.365 . S
N147 H167 0.862 . S
C148 C143 1.501 . S
C148 H149 0.961 . S
C148 H150 0.961 . S
C148 H151 0.960 . S
H149 C148 0.961 . S
H150 C148 0.961 . S
H151 C148 0.960 . S
C152 N153 1.342 . S
C152 C156 1.401 . S
C152 C157 1.499 . S
N153 Co136 1.989 . S
N153 C152 1.342 . S
N153 N154 1.388 . S
N154 Co137 1.993 . S
N154 N153 1.388 . S
N154 C155 1.346 . S
C155 N154 1.346 . S
C155 C156 1.396 . S
C155 C165 1.510 . S
C156 C152 1.401 . S
C156 C155 1.396 . S
C157 C152 1.499 . S
C157 H158 0.959 . S
C157 H159 0.960 . S
C157 H160 0.961 . S
H158 C157 0.959 . S
H159 C157 0.960 . S
H160 C157 0.961 . S
O161 Co136 1.967 . S
O161 C169 1.258 . S
O162 Co137 1.941 . S
O162 C169 1.266 . S
H163 C165 0.959 . S
H164 C165 0.961 . S
C165 C155 1.510 . S
C165 H163 0.959 . S
C165 H164 0.961 . S
C165 H166 0.960 . S
H166 C165 0.960 . S
H167 N147 0.862 . S
O168 Co136 1.920 . S
O168 C141 1.289 . S
C169 O161 1.258 . S
C169 O162 1.266 . S
Co170 O173 1.970 . S
Co170 N187 1.989 . S
Co170 O195 1.967 . S
Co170 O202 1.920 . S
Co171 O174 1.966 . S
Co171 N180 2.022 . S
Co171 N188 1.993 . S
Co171 O196 1.941 . S
C172 O173 1.258 . S
C172 O174 1.263 . S
O173 Co170 1.970 . S
O173 C172 1.258 . S
O174 Co171 1.966 . S
O174 C172 1.263 . S
C175 O176 1.235 . S
C175 O202 1.289 . S
O176 C175 1.235 . S
C177 C179 1.400 . S
C177 N180 1.351 . S
C177 C182 1.501 . S
C178 C179 1.387 . S
C178 N181 1.341 . S
C179 C177 1.400 . S
C179 C178 1.387 . S
N180 Co171 2.022 . S
N180 C177 1.351 . S
N180 N181 1.365 . S
N181 C178 1.341 . S
N181 N180 1.365 . S
N181 H201 0.862 . S
C182 C177 1.501 . S
C182 H183 0.961 . S
C182 H184 0.961 . S
C182 H185 0.960 . S
H183 C182 0.961 . S
H184 C182 0.961 . S
H185 C182 0.960 . S
C186 N187 1.342 . S
C186 C190 1.401 . S
C186 C191 1.499 . S
N187 Co170 1.989 . S
N187 C186 1.342 . S
N187 N188 1.388 . S
N188 Co171 1.993 . S
N188 N187 1.388 . S
N188 C189 1.346 . S
C189 N188 1.346 . S
C189 C190 1.396 . S
C189 C199 1.510 . S
C190 C186 1.401 . S
C190 C189 1.396 . S
C191 C186 1.499 . S
C191 H192 0.959 . S
C191 H193 0.960 . S
C191 H194 0.961 . S
H192 C191 0.959 . S
H193 C191 0.960 . S
H194 C191 0.961 . S
O195 Co170 1.967 . S
O195 C203 1.258 . S
O196 Co171 1.941 . S
O196 C203 1.266 . S
H197 C199 0.959 . S
H198 C199 0.961 . S
C199 C189 1.510 . S
C199 H197 0.959 . S
C199 H198 0.961 . S
C199 H200 0.960 . S
H200 C199 0.960 . S
H201 N181 0.862 . S
O202 Co170 1.920 . S
O202 C175 1.289 . S
C203 O195 1.258 . S
C203 O196 1.266 . S
Co204 O207 1.970 . S
Co204 N221 1.989 . S
Co204 O229 1.967 . S
Co204 O236 1.920 . S
Co205 O208 1.966 . S
Co205 N214 2.022 . S
Co205 N222 1.993 . S
Co205 O230 1.941 . S
C206 O207 1.258 . S
C206 O208 1.263 . S
O207 Co204 1.970 . S
O207 C206 1.258 . S
O208 Co205 1.966 . S
O208 C206 1.263 . S
C209 O210 1.235 . S
C209 O236 1.289 . S
O210 C209 1.235 . S
C211 C213 1.400 . S
C211 N214 1.351 . S
C211 C216 1.501 . S
C212 C213 1.387 . S
C212 N215 1.341 . S
C213 C211 1.400 . S
C213 C212 1.387 . S
N214 Co205 2.022 . S
N214 C211 1.351 . S
N214 N215 1.365 . S
N215 C212 1.341 . S
N215 N214 1.365 . S
N215 H235 0.862 . S
C216 C211 1.501 . S
C216 H217 0.961 . S
C216 H218 0.961 . S
C216 H219 0.960 . S
H217 C216 0.961 . S
H218 C216 0.961 . S
H219 C216 0.960 . S
C220 N221 1.342 . S
C220 C224 1.401 . S
C220 C225 1.499 . S
N221 Co204 1.989 . S
N221 C220 1.342 . S
N221 N222 1.388 . S
N222 Co205 1.993 . S
N222 N221 1.388 . S
N222 C223 1.346 . S
C223 N222 1.346 . S
C223 C224 1.396 . S
C223 C233 1.510 . S
C224 C220 1.401 . S
C224 C223 1.396 . S
C225 C220 1.499 . S
C225 H226 0.959 . S
C225 H227 0.960 . S
C225 H228 0.961 . S
H226 C225 0.959 . S
H227 C225 0.960 . S
H228 C225 0.961 . S
O229 Co204 1.967 . S
O229 C237 1.258 . S
O230 Co205 1.941 . S
O230 C237 1.266 . S
H231 C233 0.959 . S
H232 C233 0.961 . S
C233 C223 1.510 . S
C233 H231 0.959 . S
C233 H232 0.961 . S
C233 H234 0.960 . S
H234 C233 0.960 . S
H235 N215 0.862 . S
O236 Co204 1.920 . S
O236 C209 1.289 . S
C237 O229 1.258 . S
C237 O230 1.266 . S
Co238 O241 1.970 . S
Co238 N255 1.989 . S
Co238 O263 1.967 . S
Co238 O270 1.920 . S
Co239 O242 1.966 . S
Co239 N248 2.022 . S
Co239 N256 1.993 . S
Co239 O264 1.941 . S
C240 O241 1.258 . S
C240 O242 1.263 . S
O241 Co238 1.970 . S
O241 C240 1.258 . S
O242 Co239 1.966 . S
O242 C240 1.263 . S
C243 O244 1.235 . S
C243 O270 1.289 . S
O244 C243 1.235 . S
C245 C247 1.400 . S
C245 N248 1.351 . S
C245 C250 1.501 . S
C246 C247 1.387 . S
C246 N249 1.341 . S
C247 C245 1.400 . S
C247 C246 1.387 . S
N248 Co239 2.022 . S
N248 C245 1.351 . S
N248 N249 1.365 . S
N249 C246 1.341 . S
N249 N248 1.365 . S
N249 H269 0.862 . S
C250 C245 1.501 . S
C250 H251 0.961 . S
C250 H252 0.961 . S
C250 H253 0.960 . S
H251 C250 0.961 . S
H252 C250 0.961 . S
H253 C250 0.960 . S
C254 N255 1.342 . S
C254 C258 1.401 . S
C254 C259 1.499 . S
N255 Co238 1.989 . S
N255 C254 1.342 . S
N255 N256 1.388 . S
N256 Co239 1.993 . S
N256 N255 1.388 . S
N256 C257 1.346 . S
C257 N256 1.346 . S
C257 C258 1.396 . S
C257 C267 1.510 . S
C258 C254 1.401 . S
C258 C257 1.396 . S
C259 C254 1.499 . S
C259 H260 0.959 . S
C259 H261 0.960 . S
C259 H262 0.961 . S
H260 C259 0.959 . S
H261 C259 0.960 . S
H262 C259 0.961 . S
O263 Co238 1.967 . S
O263 C271 1.258 . S
O264 Co239 1.941 . S
O264 C271 1.266 . S
H265 C267 0.959 . S
H266 C267 0.961 . S
C267 C257 1.510 . S
C267 H265 0.959 . S
C267 H266 0.961 . S
C267 H268 0.960 . S
H268 C267 0.960 . S
H269 N249 0.862 . S
O270 Co238 1.920 . S
O270 C243 1.289 . S
C271 O263 1.258 . S
C271 O264 1.266 . S
Co272 O275 1.970 . S
Co272 N289 1.989 . S
Co272 O297 1.967 . S
Co272 O304 1.920 . S
Co273 O276 1.966 . S
Co273 N282 2.022 . S
Co273 N290 1.993 . S
Co273 O298 1.941 . S
C274 O275 1.258 . S
C274 O276 1.263 . S
O275 Co272 1.970 . S
O275 C274 1.258 . S
O276 Co273 1.966 . S
O276 C274 1.263 . S
C277 O278 1.235 . S
C277 O304 1.289 . S
O278 C277 1.235 . S
C279 C281 1.400 . S
C279 N282 1.351 . S
C279 C284 1.501 . S
C280 C281 1.387 . S
C280 N283 1.341 . S
C281 C279 1.400 . S
C281 C280 1.387 . S
N282 Co273 2.022 . S
N282 C279 1.351 . S
N282 N283 1.365 . S
N283 C280 1.341 . S
N283 N282 1.365 . S
N283 H303 0.862 . S
C284 C279 1.501 . S
C284 H285 0.961 . S
C284 H286 0.961 . S
C284 H287 0.960 . S
H285 C284 0.961 . S
H286 C284 0.961 . S
H287 C284 0.960 . S
C288 N289 1.342 . S
C288 C292 1.401 . S
C288 C293 1.499 . S
N289 Co272 1.989 . S
N289 C288 1.342 . S
N289 N290 1.388 . S
N290 Co273 1.993 . S
N290 N289 1.388 . S
N290 C291 1.346 . S
C291 N290 1.346 . S
C291 C292 1.396 . S
C291 C301 1.510 . S
C292 C288 1.401 . S
C292 C291 1.396 . S
C293 C288 1.499 . S
C293 H294 0.959 . S
C293 H295 0.960 . S
C293 H296 0.961 . S
H294 C293 0.959 . S
H295 C293 0.960 . S
H296 C293 0.961 . S
O297 Co272 1.967 . S
O297 C305 1.258 . S
O298 Co273 1.941 . S
O298 C305 1.266 . S
H299 C301 0.959 . S
H300 C301 0.961 . S
C301 C291 1.510 . S
C301 H299 0.959 . S
C301 H300 0.961 . S
C301 H302 0.960 . S
H302 C301 0.960 . S
H303 N283 0.862 . S
O304 Co272 1.920 . S
O304 C277 1.289 . S
C305 O297 1.258 . S
C305 O298 1.266 . S
Co306 O309 1.970 . S
Co306 N323 1.989 . S
Co306 O331 1.967 . S
Co306 O338 1.920 . S
Co307 O310 1.966 . S
Co307 N316 2.022 . S
Co307 N324 1.993 . S
Co307 O332 1.941 . S
C308 O309 1.258 . S
C308 O310 1.263 . S
O309 Co306 1.970 . S
O309 C308 1.258 . S
O310 Co307 1.966 . S
O310 C308 1.263 . S
C311 O312 1.235 . S
C311 O338 1.289 . S
O312 C311 1.235 . S
C313 C315 1.400 . S
C313 N316 1.351 . S
C313 C318 1.501 . S
C314 C315 1.387 . S
C314 N317 1.341 . S
C315 C313 1.400 . S
C315 C314 1.387 . S
N316 Co307 2.022 . S
N316 C313 1.351 . S
N316 N317 1.365 . S
N317 C314 1.341 . S
N317 N316 1.365 . S
N317 H337 0.862 . S
C318 C313 1.501 . S
C318 H319 0.961 . S
C318 H320 0.961 . S
C318 H321 0.960 . S
H319 C318 0.961 . S
H320 C318 0.961 . S
H321 C318 0.960 . S
C322 N323 1.342 . S
C322 C326 1.401 . S
C322 C327 1.499 . S
N323 Co306 1.989 . S
N323 C322 1.342 . S
N323 N324 1.388 . S
N324 Co307 1.993 . S
N324 N323 1.388 . S
N324 C325 1.346 . S
C325 N324 1.346 . S
C325 C326 1.396 . S
C325 C335 1.510 . S
C326 C322 1.401 . S
C326 C325 1.396 . S
C327 C322 1.499 . S
C327 H328 0.959 . S
C327 H329 0.960 . S
C327 H330 0.961 . S
H328 C327 0.959 . S
H329 C327 0.960 . S
H330 C327 0.961 . S
O331 Co306 1.967 . S
O331 C339 1.258 . S
O332 Co307 1.941 . S
O332 C339 1.266 . S
H333 C335 0.959 . S
H334 C335 0.961 . S
C335 C325 1.510 . S
C335 H333 0.959 . S
C335 H334 0.961 . S
C335 H336 0.960 . S
H336 C335 0.960 . S
H337 N317 0.862 . S
O338 Co306 1.920 . S
O338 C311 1.289 . S
C339 O331 1.258 . S
C339 O332 1.266 . S
Co340 O343 1.970 . S
Co340 N357 1.989 . S
Co340 O365 1.967 . S
Co340 O372 1.920 . S
Co341 O344 1.966 . S
Co341 N350 2.022 . S
Co341 N358 1.993 . S
Co341 O366 1.941 . S
C342 O343 1.258 . S
C342 O344 1.263 . S
O343 Co340 1.970 . S
O343 C342 1.258 . S
O344 Co341 1.966 . S
O344 C342 1.263 . S
C345 O346 1.235 . S
C345 O372 1.289 . S
O346 C345 1.235 . S
C347 C349 1.400 . S
C347 N350 1.351 . S
C347 C352 1.501 . S
C348 C349 1.387 . S
C348 N351 1.341 . S
C349 C347 1.400 . S
C349 C348 1.387 . S
N350 Co341 2.022 . S
N350 C347 1.351 . S
N350 N351 1.365 . S
N351 C348 1.341 . S
N351 N350 1.365 . S
N351 H371 0.862 . S
C352 C347 1.501 . S
C352 H353 0.961 . S
C352 H354 0.961 . S
C352 H355 0.960 . S
H353 C352 0.961 . S
H354 C352 0.961 . S
H355 C352 0.960 . S
C356 N357 1.342 . S
C356 C360 1.401 . S
C356 C361 1.499 . S
N357 Co340 1.989 . S
N357 C356 1.342 . S
N357 N358 1.388 . S
N358 Co341 1.993 . S
N358 N357 1.388 . S
N358 C359 1.346 . S
C359 N358 1.346 . S
C359 C360 1.396 . S
C359 C369 1.510 . S
C360 C356 1.401 . S
C360 C359 1.396 . S
C361 C356 1.499 . S
C361 H362 0.959 . S
C361 H363 0.960 . S
C361 H364 0.961 . S
H362 C361 0.959 . S
H363 C361 0.960 . S
H364 C361 0.961 . S
O365 Co340 1.967 . S
O365 C373 1.258 . S
O366 Co341 1.941 . S
O366 C373 1.266 . S
H367 C369 0.959 . S
H368 C369 0.961 . S
C369 C359 1.510 . S
C369 H367 0.959 . S
C369 H368 0.961 . S
C369 H370 0.960 . S
H370 C369 0.960 . S
H371 N351 0.862 . S
O372 Co340 1.920 . S
O372 C345 1.289 . S
C373 O365 1.258 . S
C373 O366 1.266 . S
Co374 O377 1.970 . S
Co374 N391 1.989 . S
Co374 O399 1.967 . S
Co374 O406 1.920 . S
Co375 O378 1.966 . S
Co375 N384 2.022 . S
Co375 N392 1.993 . S
Co375 O400 1.941 . S
C376 O377 1.258 . S
C376 O378 1.263 . S
O377 Co374 1.970 . S
O377 C376 1.258 . S
O378 Co375 1.966 . S
O378 C376 1.263 . S
C379 O380 1.235 . S
C379 O406 1.289 . S
O380 C379 1.235 . S
C381 C383 1.400 . S
C381 N384 1.351 . S
C381 C386 1.501 . S
C382 C383 1.387 . S
C382 N385 1.341 . S
C383 C381 1.400 . S
C383 C382 1.387 . S
N384 Co375 2.022 . S
N384 C381 1.351 . S
N384 N385 1.365 . S
N385 C382 1.341 . S
N385 N384 1.365 . S
N385 H405 0.862 . S
C386 C381 1.501 . S
C386 H387 0.961 . S
C386 H388 0.961 . S
C386 H389 0.960 . S
H387 C386 0.961 . S
H388 C386 0.961 . S
H389 C386 0.960 . S
C390 N391 1.342 . S
C390 C394 1.401 . S
C390 C395 1.499 . S
N391 Co374 1.989 . S
N391 C390 1.342 . S
N391 N392 1.388 . S
N392 Co375 1.993 . S
N392 N391 1.388 . S
N392 C393 1.346 . S
C393 N392 1.346 . S
C393 C394 1.396 . S
C393 C403 1.510 . S
C394 C390 1.401 . S
C394 C393 1.396 . S
C395 C390 1.499 . S
C395 H396 0.959 . S
C395 H397 0.960 . S
C395 H398 0.961 . S
H396 C395 0.959 . S
H397 C395 0.960 . S
H398 C395 0.961 . S
O399 Co374 1.967 . S
O399 C407 1.258 . S
O400 Co375 1.941 . S
O400 C407 1.266 . S
H401 C403 0.959 . S
H402 C403 0.961 . S
C403 C393 1.510 . S
C403 H401 0.959 . S
C403 H402 0.961 . S
C403 H404 0.960 . S
H404 C403 0.960 . S
H405 N385 0.862 . S
O406 Co374 1.920 . S
O406 C379 1.289 . S
C407 O399 1.258 . S
C407 O400 1.266 . S
Co408 O411 1.970 . S
Co408 N425 1.989 . S
Co408 O433 1.967 . S
Co408 O440 1.920 . S
Co409 O412 1.966 . S
Co409 N418 2.022 . S
Co409 N426 1.993 . S
Co409 O434 1.941 . S
C410 O411 1.258 . S
C410 O412 1.263 . S
O411 Co408 1.970 . S
O411 C410 1.258 . S
O412 Co409 1.966 . S
O412 C410 1.263 . S
C413 O414 1.235 . S
C413 O440 1.289 . S
O414 C413 1.235 . S
C415 C417 1.400 . S
C415 N418 1.351 . S
C415 C420 1.501 . S
C416 C417 1.387 . S
C416 N419 1.341 . S
C417 C415 1.400 . S
C417 C416 1.387 . S
N418 Co409 2.022 . S
N418 C415 1.351 . S
N418 N419 1.365 . S
N419 C416 1.341 . S
N419 N418 1.365 . S
N419 H439 0.862 . S
C420 C415 1.501 . S
C420 H421 0.961 . S
C420 H422 0.961 . S
C420 H423 0.960 . S
H421 C420 0.961 . S
H422 C420 0.961 . S
H423 C420 0.960 . S
C424 N425 1.342 . S
C424 C428 1.401 . S
C424 C429 1.499 . S
N425 Co408 1.989 . S
N425 C424 1.342 . S
N425 N426 1.388 . S
N426 Co409 1.993 . S
N426 N425 1.388 . S
N426 C427 1.346 . S
C427 N426 1.346 . S
C427 C428 1.396 . S
C427 C437 1.510 . S
C428 C424 1.401 . S
C428 C427 1.396 . S
C429 C424 1.499 . S
C429 H430 0.959 . S
C429 H431 0.960 . S
C429 H432 0.961 . S
H430 C429 0.959 . S
H431 C429 0.960 . S
H432 C429 0.961 . S
O433 Co408 1.967 . S
O433 C441 1.258 . S
O434 Co409 1.941 . S
O434 C441 1.266 . S
H435 C437 0.959 . S
H436 C437 0.961 . S
C437 C427 1.510 . S
C437 H435 0.959 . S
C437 H436 0.961 . S
C437 H438 0.960 . S
H438 C437 0.960 . S
H439 N419 0.862 . S
O440 Co408 1.920 . S
O440 C413 1.289 . S
C441 O433 1.258 . S
C441 O434 1.266 . S
Co442 O445 1.970 . S
Co442 N459 1.989 . S
Co442 O467 1.967 . S
Co442 O474 1.920 . S
Co443 O446 1.966 . S
Co443 N452 2.022 . S
Co443 N460 1.993 . S
Co443 O468 1.941 . S
C444 O445 1.258 . S
C444 O446 1.263 . S
O445 Co442 1.970 . S
O445 C444 1.258 . S
O446 Co443 1.966 . S
O446 C444 1.263 . S
C447 O448 1.235 . S
C447 O474 1.289 . S
O448 C447 1.235 . S
C449 C451 1.400 . S
C449 N452 1.351 . S
C449 C454 1.501 . S
C450 C451 1.387 . S
C450 N453 1.341 . S
C451 C449 1.400 . S
C451 C450 1.387 . S
N452 Co443 2.022 . S
N452 C449 1.351 . S
N452 N453 1.365 . S
N453 C450 1.341 . S
N453 N452 1.365 . S
N453 H473 0.862 . S
C454 C449 1.501 . S
C454 H455 0.961 . S
C454 H456 0.961 . S
C454 H457 0.960 . S
H455 C454 0.961 . S
H456 C454 0.961 . S
H457 C454 0.960 . S
C458 N459 1.342 . S
C458 C462 1.401 . S
C458 C463 1.499 . S
N459 Co442 1.989 . S
N459 C458 1.342 . S
N459 N460 1.388 . S
N460 Co443 1.993 . S
N460 N459 1.388 . S
N460 C461 1.346 . S
C461 N460 1.346 . S
C461 C462 1.396 . S
C461 C471 1.510 . S
C462 C458 1.401 . S
C462 C461 1.396 . S
C463 C458 1.499 . S
C463 H464 0.959 . S
C463 H465 0.960 . S
C463 H466 0.961 . S
H464 C463 0.959 . S
H465 C463 0.960 . S
H466 C463 0.961 . S
O467 Co442 1.967 . S
O467 C475 1.258 . S
O468 Co443 1.941 . S
O468 C475 1.266 . S
H469 C471 0.959 . S
H470 C471 0.961 . S
C471 C461 1.510 . S
C471 H469 0.959 . S
C471 H470 0.961 . S
C471 H472 0.960 . S
H472 C471 0.960 . S
H473 N453 0.862 . S
O474 Co442 1.920 . S
O474 C447 1.289 . S
C475 O467 1.258 . S
C475 O468 1.266 . S
Co476 O479 1.970 . S
Co476 N493 1.989 . S
Co476 O501 1.967 . S
Co476 O508 1.920 . S
Co477 O480 1.966 . S
Co477 N486 2.022 . S
Co477 N494 1.993 . S
Co477 O502 1.941 . S
C478 O479 1.258 . S
C478 O480 1.263 . S
O479 Co476 1.970 . S
O479 C478 1.258 . S
O480 Co477 1.966 . S
O480 C478 1.263 . S
C481 O482 1.235 . S
C481 O508 1.289 . S
O482 C481 1.235 . S
C483 C485 1.400 . S
C483 N486 1.351 . S
C483 C488 1.501 . S
C484 C485 1.387 . S
C484 N487 1.341 . S
C485 C483 1.400 . S
C485 C484 1.387 . S
N486 Co477 2.022 . S
N486 C483 1.351 . S
N486 N487 1.365 . S
N487 C484 1.341 . S
N487 N486 1.365 . S
N487 H507 0.862 . S
C488 C483 1.501 . S
C488 H489 0.961 . S
C488 H490 0.961 . S
C488 H491 0.960 . S
H489 C488 0.961 . S
H490 C488 0.961 . S
H491 C488 0.960 . S
C492 N493 1.342 . S
C492 C496 1.401 . S
C492 C497 1.499 . S
N493 Co476 1.989 . S
N493 C492 1.342 . S
N493 N494 1.388 . S
N494 Co477 1.993 . S
N494 N493 1.388 . S
N494 C495 1.346 . S
C495 N494 1.346 . S
C495 C496 1.396 . S
C495 C505 1.510 . S
C496 C492 1.401 . S
C496 C495 1.396 . S
C497 C492 1.499 . S
C497 H498 0.959 . S
C497 H499 0.960 . S
C497 H500 0.961 . S
H498 C497 0.959 . S
H499 C497 0.960 . S
H500 C497 0.961 . S
O501 Co476 1.967 . S
O501 C509 1.258 . S
O502 Co477 1.941 . S
O502 C509 1.266 . S
H503 C505 0.959 . S
H504 C505 0.961 . S
C505 C495 1.510 . S
C505 H503 0.959 . S
C505 H504 0.961 . S
C505 H506 0.960 . S
H506 C505 0.960 . S
H507 N487 0.862 . S
O508 Co476 1.920 . S
O508 C481 1.289 . S
C509 O501 1.258 . S
C509 O502 1.266 . S
Co510 O513 1.970 . S
Co510 N527 1.989 . S
Co510 O535 1.967 . S
Co510 O542 1.920 . S
Co511 O514 1.966 . S
Co511 N520 2.022 . S
Co511 N528 1.993 . S
Co511 O536 1.941 . S
C512 O513 1.258 . S
C512 O514 1.263 . S
O513 Co510 1.970 . S
O513 C512 1.258 . S
O514 Co511 1.966 . S
O514 C512 1.263 . S
C515 O516 1.235 . S
C515 O542 1.289 . S
O516 C515 1.235 . S
C517 C519 1.400 . S
C517 N520 1.351 . S
C517 C522 1.501 . S
C518 C519 1.387 . S
C518 N521 1.341 . S
C519 C517 1.400 . S
C519 C518 1.387 . S
N520 Co511 2.022 . S
N520 C517 1.351 . S
N520 N521 1.365 . S
N521 C518 1.341 . S
N521 N520 1.365 . S
N521 H541 0.862 . S
C522 C517 1.501 . S
C522 H523 0.961 . S
C522 H524 0.961 . S
C522 H525 0.960 . S
H523 C522 0.961 . S
H524 C522 0.961 . S
H525 C522 0.960 . S
C526 N527 1.342 . S
C526 C530 1.401 . S
C526 C531 1.499 . S
N527 Co510 1.989 . S
N527 C526 1.342 . S
N527 N528 1.388 . S
N528 Co511 1.993 . S
N528 N527 1.388 . S
N528 C529 1.346 . S
C529 N528 1.346 . S
C529 C530 1.396 . S
C529 C539 1.510 . S
C530 C526 1.401 . S
C530 C529 1.396 . S
C531 C526 1.499 . S
C531 H532 0.959 . S
C531 H533 0.960 . S
C531 H534 0.961 . S
H532 C531 0.959 . S
H533 C531 0.960 . S
H534 C531 0.961 . S
O535 Co510 1.967 . S
O535 C543 1.258 . S
O536 Co511 1.941 . S
O536 C543 1.266 . S
H537 C539 0.959 . S
H538 C539 0.961 . S
C539 C529 1.510 . S
C539 H537 0.959 . S
C539 H538 0.961 . S
C539 H540 0.960 . S
H540 C539 0.960 . S
H541 N521 0.862 . S
O542 Co510 1.920 . S
O542 C515 1.289 . S
C543 O535 1.258 . S
C543 O536 1.266 . S
Co544 O547 1.970 . S
Co544 N561 1.989 . S
Co544 O569 1.967 . S
Co544 O576 1.920 . S
Co545 O548 1.966 . S
Co545 N554 2.022 . S
Co545 N562 1.993 . S
Co545 O570 1.941 . S
C546 O547 1.258 . S
C546 O548 1.263 . S
O547 Co544 1.970 . S
O547 C546 1.258 . S
O548 Co545 1.966 . S
O548 C546 1.263 . S
C549 O550 1.235 . S
C549 O576 1.289 . S
O550 C549 1.235 . S
C551 C553 1.400 . S
C551 N554 1.351 . S
C551 C556 1.501 . S
C552 C553 1.387 . S
C552 N555 1.341 . S
C553 C551 1.400 . S
C553 C552 1.387 . S
N554 Co545 2.022 . S
N554 C551 1.351 . S
N554 N555 1.365 . S
N555 C552 1.341 . S
N555 N554 1.365 . S
N555 H575 0.862 . S
C556 C551 1.501 . S
C556 H557 0.961 . S
C556 H558 0.961 . S
C556 H559 0.960 . S
H557 C556 0.961 . S
H558 C556 0.961 . S
H559 C556 0.960 . S
C560 N561 1.342 . S
C560 C564 1.401 . S
C560 C565 1.499 . S
N561 Co544 1.989 . S
N561 C560 1.342 . S
N561 N562 1.388 . S
N562 Co545 1.993 . S
N562 N561 1.388 . S
N562 C563 1.346 . S
C563 N562 1.346 . S
C563 C564 1.396 . S
C563 C573 1.510 . S
C564 C560 1.401 . S
C564 C563 1.396 . S
C565 C560 1.499 . S
C565 H566 0.959 . S
C565 H567 0.960 . S
C565 H568 0.961 . S
H566 C565 0.959 . S
H567 C565 0.960 . S
H568 C565 0.961 . S
O569 Co544 1.967 . S
O569 C577 1.258 . S
O570 Co545 1.941 . S
O570 C577 1.266 . S
H571 C573 0.959 . S
H572 C573 0.961 . S
C573 C563 1.510 . S
C573 H571 0.959 . S
C573 H572 0.961 . S
C573 H574 0.960 . S
H574 C573 0.960 . S
H575 N555 0.862 . S
O576 Co544 1.920 . S
O576 C549 1.289 . S
C577 O569 1.258 . S
C577 O570 1.266 . S
Co578 O581 1.970 . S
Co578 N595 1.989 . S
Co578 O603 1.967 . S
Co578 O610 1.920 . S
Co579 O582 1.966 . S
Co579 N588 2.022 . S
Co579 N596 1.993 . S
Co579 O604 1.941 . S
C580 O581 1.258 . S
C580 O582 1.263 . S
O581 Co578 1.970 . S
O581 C580 1.258 . S
O582 Co579 1.966 . S
O582 C580 1.263 . S
C583 O584 1.235 . S
C583 O610 1.289 . S
O584 C583 1.235 . S
C585 C587 1.400 . S
C585 N588 1.351 . S
C585 C590 1.501 . S
C586 C587 1.387 . S
C586 N589 1.341 . S
C587 C585 1.400 . S
C587 C586 1.387 . S
N588 Co579 2.022 . S
N588 C585 1.351 . S
N588 N589 1.365 . S
N589 C586 1.341 . S
N589 N588 1.365 . S
N589 H609 0.862 . S
C590 C585 1.501 . S
C590 H591 0.961 . S
C590 H592 0.961 . S
C590 H593 0.960 . S
H591 C590 0.961 . S
H592 C590 0.961 . S
H593 C590 0.960 . S
C594 N595 1.342 . S
C594 C598 1.401 . S
C594 C599 1.499 . S
N595 Co578 1.989 . S
N595 C594 1.342 . S
N595 N596 1.388 . S
N596 Co579 1.993 . S
N596 N595 1.388 . S
N596 C597 1.346 . S
C597 N596 1.346 . S
C597 C598 1.396 . S
C597 C607 1.510 . S
C598 C594 1.401 . S
C598 C597 1.396 . S
C599 C594 1.499 . S
C599 H600 0.959 . S
C599 H601 0.960 . S
C599 H602 0.961 . S
H600 C599 0.959 . S
H601 C599 0.960 . S
H602 C599 0.961 . S
O603 Co578 1.967 . S
O603 C611 1.258 . S
O604 Co579 1.941 . S
O604 C611 1.266 . S
H605 C607 0.959 . S
H606 C607 0.961 . S
C607 C597 1.510 . S
C607 H605 0.959 . S
C607 H606 0.961 . S
C607 H608 0.960 . S
H608 C607 0.960 . S
H609 N589 0.862 . S
O610 Co578 1.920 . S
O610 C583 1.289 . S
C611 O603 1.258 . S
C611 O604 1.266 . S
H612 C620 0.929 . S
H613 C622 0.930 . S
H614 C624 0.930 . S
H615 C627 0.929 . S
H616 C630 0.930 . S
H617 C632 0.960 . S
H618 C632 0.960 . S
H619 C632 0.960 . S
C620 H612 0.929 . S
C620 C621 1.377 . S
C620 C622 1.384 . S
C621 C620 1.377 . S
C621 C627 1.390 . S
C622 H613 0.930 . S
C622 C620 1.384 . S
C622 C623 1.372 . S
C623 C622 1.372 . S
C623 C624 1.400 . S
C623 C628 1.490 . S
C624 H614 0.930 . S
C624 C623 1.400 . S
C624 C627 1.386 . S
H625 C641 0.930 . S
H626 C642 0.931 . S
C627 H615 0.929 . S
C627 C621 1.390 . S
C627 C624 1.386 . S
C628 C623 1.490 . S
C628 C630 1.395 . S
C628 C631 1.403 . S
H629 C635 0.930 . S
C630 H616 0.930 . S
C630 C628 1.395 . S
C630 C633 1.403 . S
C631 C628 1.403 . S
C631 C632 1.524 . S
C631 C635 1.400 . S
C632 H617 0.960 . S
C632 H618 0.960 . S
C632 H619 0.960 . S
C632 C631 1.524 . S
C633 C630 1.403 . S
C633 C634 1.392 . S
C633 C637 1.495 . S
C634 C633 1.392 . S
C634 C635 1.385 . S
C634 C636 1.478 . S
C635 H629 0.930 . S
C635 C631 1.400 . S
C635 C634 1.385 . S
C636 C634 1.478 . S
C636 C638 1.381 . S
C636 C642 1.383 . S
C637 C633 1.495 . S
C637 H643 0.959 . S
C637 H644 0.961 . S
C637 H645 0.960 . S
C638 C636 1.381 . S
C638 C639 1.394 . S
C638 H646 0.930 . S
C639 C638 1.394 . S
C639 C640 1.383 . S
C639 H647 0.929 . S
C640 C639 1.383 . S
C640 C641 1.377 . S
C641 H625 0.930 . S
C641 C640 1.377 . S
C641 C642 1.379 . S
C642 H626 0.931 . S
C642 C636 1.383 . S
C642 C641 1.379 . S
H643 C637 0.959 . S
H644 C637 0.961 . S
H645 C637 0.960 . S
H646 C638 0.930 . S
H647 C639 0.929 . S
H648 C656 0.929 . S
H649 C658 0.930 . S
H650 C660 0.930 . S
H651 C663 0.929 . S
H652 C666 0.930 . S
H653 C668 0.960 . S
H654 C668 0.960 . S
H655 C668 0.960 . S
C656 H648 0.929 . S
C656 C657 1.377 . S
C656 C658 1.384 1_565 S
C657 C656 1.377 . S
C657 C663 1.390 . S
C658 H649 0.930 . S
C658 C656 1.384 1_545 S
C658 C659 1.372 . S
C659 C658 1.372 . S
C659 C660 1.400 . S
C659 C664 1.490 . S
C660 H650 0.930 . S
C660 C659 1.400 . S
C660 C663 1.386 1_545 S
H661 C677 0.930 . S
H662 C678 0.931 . S
C663 H651 0.929 . S
C663 C657 1.390 . S
C663 C660 1.386 1_565 S
C664 C659 1.490 . S
C664 C666 1.395 . S
C664 C667 1.403 . S
H665 C671 0.930 . S
C666 H652 0.930 . S
C666 C664 1.395 . S
C666 C669 1.403 . S
C667 C664 1.403 . S
C667 C668 1.524 . S
C667 C671 1.400 . S
C668 H653 0.960 . S
C668 H654 0.960 . S
C668 H655 0.960 . S
C668 C667 1.524 . S
C669 C666 1.403 . S
C669 C670 1.392 . S
C669 C673 1.495 . S
C670 C669 1.392 . S
C670 C671 1.385 . S
C670 C672 1.478 . S
C671 H665 0.930 . S
C671 C667 1.400 . S
C671 C670 1.385 . S
C672 C670 1.478 . S
C672 C674 1.381 . S
C672 C678 1.383 . S
C673 C669 1.495 . S
C673 H679 0.959 . S
C673 H680 0.961 . S
C673 H681 0.960 . S
C674 C672 1.381 . S
C674 C675 1.394 . S
C674 H682 0.930 . S
C675 C674 1.394 . S
C675 C676 1.383 . S
C675 H683 0.929 . S
C676 C675 1.383 . S
C676 C677 1.377 . S
C677 H661 0.930 . S
C677 C676 1.377 . S
C677 C678 1.379 . S
C678 H662 0.931 . S
C678 C672 1.383 . S
C678 C677 1.379 . S
H679 C673 0.959 . S
H680 C673 0.961 . S
H681 C673 0.960 . S
H682 C674 0.930 . S
H683 C675 0.929 . S
H684 C692 0.929 . S
H685 C694 0.930 . S
H686 C696 0.930 . S
H687 C699 0.929 . S
H688 C702 0.930 . S
H689 C704 0.960 . S
H690 C704 0.957 . S
H691 C704 0.960 . S
C692 H684 0.929 . S
C692 C693 1.377 . S
C692 C694 1.384 1_455 S
C693 C692 1.377 . S
C693 C699 1.390 . S
C694 H685 0.930 . S
C694 C692 1.384 1_655 S
C694 C695 1.372 . S
C695 C694 1.372 . S
C695 C696 1.400 . S
C695 C700 1.490 . S
C696 H686 0.930 . S
C696 C695 1.400 . S
C696 C699 1.386 1_655 S
H697 C713 0.930 . S
H698 C714 0.931 . S
C699 H687 0.929 . S
C699 C693 1.390 . S
C699 C696 1.386 1_455 S
C700 C695 1.490 . S
C700 C702 1.395 . S
C700 C703 1.403 . S
H701 C707 0.930 . S
C702 H688 0.930 . S
C702 C700 1.395 . S
C702 C705 1.403 . S
C703 C700 1.403 . S
C703 C704 1.524 . S
C703 C707 1.400 . S
C704 H689 0.960 . S
C704 H690 0.957 . S
C704 H691 0.960 . S
C704 C703 1.524 . S
C705 C702 1.403 . S
C705 C706 1.392 . S
C705 C709 1.495 . S
C706 C705 1.392 . S
C706 C707 1.385 . S
C706 C708 1.478 . S
C707 H701 0.930 . S
C707 C703 1.400 . S
C707 C706 1.385 . S
C708 C706 1.478 . S
C708 C710 1.381 . S
C708 C714 1.383 . S
C709 C705 1.495 . S
C709 H715 0.959 . S
C709 H716 0.961 . S
C709 H717 0.960 . S
C710 C708 1.381 . S
C710 C711 1.394 . S
C710 H718 0.930 . S
C711 C710 1.394 . S
C711 C712 1.383 . S
C711 H719 0.929 . S
C712 C711 1.383 . S
C712 C713 1.377 . S
C713 H697 0.930 . S
C713 C712 1.377 . S
C713 C714 1.379 . S
C714 H698 0.931 . S
C714 C708 1.383 . S
C714 C713 1.379 . S
H715 C709 0.959 . S
H716 C709 0.961 . S
H717 C709 0.960 . S
H718 C710 0.930 . S
H719 C711 0.929 . S
H720 C728 0.929 . S
H721 C730 0.930 . S
H722 C732 0.930 . S
H723 C735 0.929 . S
H724 C738 0.930 . S
H725 C740 0.960 . S
H726 C740 0.960 . S
H727 C740 0.960 . S
C728 H720 0.929 . S
C728 C729 1.377 . S
C728 C730 1.384 . S
C729 C728 1.377 . S
C729 C735 1.390 . S
C730 H721 0.930 . S
C730 C728 1.384 . S
C730 C731 1.372 . S
C731 C730 1.372 . S
C731 C732 1.400 . S
C731 C736 1.490 . S
C732 H722 0.930 . S
C732 C731 1.400 . S
C732 C735 1.386 . S
H733 C749 0.930 . S
H734 C750 0.931 . S
C735 H723 0.929 . S
C735 C729 1.390 . S
C735 C732 1.386 . S
C736 C731 1.490 . S
C736 C738 1.395 . S
C736 C739 1.403 . S
H737 C743 0.930 . S
C738 H724 0.930 . S
C738 C736 1.395 . S
C738 C741 1.403 . S
C739 C736 1.403 . S
C739 C740 1.524 . S
C739 C743 1.400 . S
C740 H725 0.960 . S
C740 H726 0.960 . S
C740 H727 0.960 . S
C740 C739 1.524 . S
C741 C738 1.403 . S
C741 C742 1.392 . S
C741 C745 1.495 . S
C742 C741 1.392 . S
C742 C743 1.385 . S
C742 C744 1.478 . S
C743 H737 0.930 . S
C743 C739 1.400 . S
C743 C742 1.385 . S
C744 C742 1.478 . S
C744 C746 1.381 . S
C744 C750 1.383 . S
C745 C741 1.495 . S
C745 H751 0.959 . S
C745 H752 0.961 . S
C745 H753 0.960 . S
C746 C744 1.381 . S
C746 C747 1.394 . S
C746 H754 0.930 . S
C747 C746 1.394 . S
C747 C748 1.383 . S
C747 H755 0.929 . S
C748 C747 1.383 . S
C748 C749 1.377 . S
C749 H733 0.930 . S
C749 C748 1.377 . S
C749 C750 1.379 . S
C750 H734 0.931 . S
C750 C744 1.383 . S
C750 C749 1.379 . S
H751 C745 0.959 . S
H752 C745 0.961 . S
H753 C745 0.960 . S
H754 C746 0.930 . S
H755 C747 0.929 . S
H756 C764 0.929 . S
H757 C766 0.930 . S
H758 C768 0.930 . S
H759 C771 0.904 . S
H760 C774 0.930 . S
H761 C776 0.960 . S
H762 C776 0.960 . S
H763 C776 0.960 . S
C764 H756 0.929 . S
C764 C765 1.377 . S
C764 C766 1.384 . S
C765 C764 1.377 . S
C765 C771 1.365 1_545 S
C766 H757 0.930 . S
C766 C764 1.384 . S
C766 C767 1.372 1_545 S
C767 C766 1.372 1_565 S
C767 C768 1.400 . S
C767 C772 1.490 . S
C768 H758 0.930 . S
C768 C767 1.400 . S
C768 C771 1.440 . S
H769 C785 0.930 . S
H770 C786 0.931 . S
C771 H759 0.904 . S
C771 C765 1.365 1_565 S
C771 C768 1.440 . S
C772 C767 1.490 . S
C772 C774 1.395 . S
C772 C775 1.403 . S
H773 C779 0.930 . S
C774 H760 0.930 . S
C774 C772 1.395 . S
C774 C777 1.403 . S
C775 C772 1.403 . S
C775 C776 1.524 . S
C775 C779 1.400 . S
C776 H761 0.960 . S
C776 H762 0.960 . S
C776 H763 0.960 . S
C776 C775 1.524 . S
C777 C774 1.403 . S
C777 C778 1.392 . S
C777 C781 1.495 . S
C778 C777 1.392 . S
C778 C779 1.385 . S
C778 C780 1.478 . S
C779 H773 0.930 . S
C779 C775 1.400 . S
C779 C778 1.385 . S
C780 C778 1.478 . S
C780 C782 1.381 . S
C780 C786 1.383 . S
C781 C777 1.495 . S
C781 H787 0.959 . S
C781 H788 0.961 . S
C781 H789 0.960 . S
C782 C780 1.381 . S
C782 C783 1.394 . S
C782 H790 0.930 . S
C783 C782 1.394 . S
C783 C784 1.383 . S
C783 H791 0.929 . S
C784 C783 1.383 . S
C784 C785 1.377 . S
C785 H769 0.930 . S
C785 C784 1.377 . S
C785 C786 1.379 . S
C786 H770 0.931 . S
C786 C780 1.383 . S
C786 C785 1.379 . S
H787 C781 0.959 . S
H788 C781 0.961 . S
H789 C781 0.960 . S
H790 C782 0.930 . S
H791 C783 0.929 . S
H792 C800 0.929 . S
H793 C802 0.930 . S
H794 C804 0.930 . S
H795 C807 0.929 . S
H796 C810 0.930 . S
H797 C812 0.960 . S
H798 C812 0.960 . S
H799 C812 0.960 . S
C800 H792 0.929 . S
C800 C801 1.377 . S
C800 C802 1.384 . S
C801 C800 1.377 . S
C801 C807 1.390 1_655 S
C802 H793 0.930 . S
C802 C800 1.384 . S
C802 C803 1.372 1_655 S
C803 C802 1.372 1_455 S
C803 C804 1.400 . S
C803 C808 1.490 . S
C804 H794 0.930 . S
C804 C803 1.400 . S
C804 C807 1.386 . S
H805 C821 0.930 . S
H806 C822 0.931 . S
C807 H795 0.929 . S
C807 C801 1.390 1_455 S
C807 C804 1.386 . S
C808 C803 1.490 . S
C808 C810 1.395 . S
C808 C811 1.403 . S
H809 C815 0.930 . S
C810 H796 0.930 . S
C810 C808 1.395 . S
C810 C813 1.403 . S
C811 C808 1.403 . S
C811 C812 1.524 . S
C811 C815 1.400 . S
C812 H797 0.960 . S
C812 H798 0.960 . S
C812 H799 0.960 . S
C812 C811 1.524 . S
C813 C810 1.403 . S
C813 C814 1.392 . S
C813 C817 1.495 . S
C814 C813 1.392 . S
C814 C815 1.385 . S
C814 C816 1.478 . S
C815 H809 0.930 . S
C815 C811 1.400 . S
C815 C814 1.385 . S
C816 C814 1.478 . S
C816 C818 1.381 . S
C816 C822 1.383 . S
C817 C813 1.495 . S
C817 H823 0.959 . S
C817 H824 0.961 . S
C817 H825 0.960 . S
C818 C816 1.381 . S
C818 C819 1.394 . S
C818 H826 0.930 . S
C819 C818 1.394 . S
C819 C820 1.383 . S
C819 H827 0.929 . S
C820 C819 1.383 . S
C820 C821 1.377 . S
C821 H805 0.930 . S
C821 C820 1.377 . S
C821 C822 1.379 . S
C822 H806 0.931 . S
C822 C816 1.383 . S
C822 C821 1.379 . S
H823 C817 0.959 . S
H824 C817 0.961 . S
H825 C817 0.960 . S
H826 C818 0.930 . S
H827 C819 0.929 . S
H828 C836 0.929 . S
H829 C838 0.930 . S
H830 C840 0.930 . S
H831 C843 0.929 . S
H832 C846 0.930 . S
H833 C848 0.960 1_455 S
H834 C848 0.960 . S
H835 C848 0.960 . S
C836 H828 0.929 . S
C836 C837 1.377 . S
C836 C838 1.384 . S
C837 C836 1.377 . S
C837 C843 1.390 . S
C838 H829 0.930 . S
C838 C836 1.384 . S
C838 C839 1.372 . S
C839 C838 1.372 . S
C839 C840 1.400 . S
C839 C844 1.490 . S
C840 H830 0.930 . S
C840 C839 1.400 . S
C840 C843 1.386 . S
H841 C857 0.930 . S
H842 C858 0.931 . S
C843 H831 0.929 . S
C843 C837 1.390 . S
C843 C840 1.386 . S
C844 C839 1.490 . S
C844 C846 1.395 . S
C844 C847 1.403 . S
H845 C851 0.930 1_455 S
C846 H832 0.930 . S
C846 C844 1.395 . S
C846 C849 1.403 . S
C847 C844 1.403 . S
C847 C848 1.524 . S
C847 C851 1.400 . S
C848 H833 0.960 1_655 S
C848 H834 0.960 . S
C848 H835 0.960 . S
C848 C847 1.524 . S
C849 C846 1.403 . S
C849 C850 1.392 . S
C849 C853 1.495 . S
C850 C849 1.392 . S
C850 C851 1.385 . S
C850 C852 1.478 . S
C851 H845 0.930 1_655 S
C851 C847 1.400 . S
C851 C850 1.385 . S
C852 C850 1.478 . S
C852 C854 1.385 1_655 S
C852 C858 1.383 1_655 S
C853 C849 1.495 . S
C853 H859 0.959 . S
C853 H860 0.961 . S
C853 H861 0.960 . S
C854 C852 1.385 1_455 S
C854 C855 1.432 . S
C854 H862 0.889 1_455 S
C855 C854 1.432 . S
C855 C856 1.383 . S
C855 H863 0.929 . S
C856 C855 1.383 . S
C856 C857 1.377 . S
C857 H841 0.930 . S
C857 C856 1.377 . S
C857 C858 1.379 . S
C858 H842 0.931 . S
C858 C852 1.383 1_455 S
C858 C857 1.379 . S
H859 C853 0.959 . S
H860 C853 0.961 . S
H861 C853 0.960 . S
H862 C854 0.889 1_655 S
H863 C855 0.929 . S
H864 C872 0.929 . S
H865 C874 0.930 . S
H866 C876 0.930 . S
H867 C879 0.929 . S
H868 C882 0.930 . S
H869 C884 0.960 . S
H870 C884 0.960 . S
H871 C884 0.960 . S
C872 H864 0.929 . S
C872 C873 1.377 . S
C872 C874 1.384 . S
C873 C872 1.377 . S
C873 C879 1.390 . S
C874 H865 0.930 . S
C874 C872 1.384 . S
C874 C875 1.372 . S
C875 C874 1.372 . S
C875 C876 1.400 . S
C875 C880 1.490 . S
C876 H866 0.930 . S
C876 C875 1.400 . S
C876 C879 1.386 . S
H877 C893 0.930 . S
H878 C894 0.931 . S
C879 H867 0.929 . S
C879 C873 1.390 . S
C879 C876 1.386 . S
C880 C875 1.490 . S
C880 C882 1.395 . S
C880 C883 1.403 . S
H881 C887 0.930 . S
C882 H868 0.930 . S
C882 C880 1.395 . S
C882 C885 1.403 . S
C883 C880 1.403 . S
C883 C884 1.524 . S
C883 C887 1.400 . S
C884 H869 0.960 . S
C884 H870 0.960 . S
C884 H871 0.960 . S
C884 C883 1.524 . S
C885 C882 1.403 . S
C885 C886 1.392 . S
C885 C889 1.495 . S
C886 C885 1.392 . S
C886 C887 1.385 . S
C886 C888 1.478 . S
C887 H881 0.930 . S
C887 C883 1.400 . S
C887 C886 1.385 . S
C888 C886 1.478 . S
C888 C890 1.381 . S
C888 C894 1.383 . S
C889 C885 1.495 . S
C889 H895 0.959 . S
C889 H896 0.961 . S
C889 H897 0.960 . S
C890 C888 1.381 . S
C890 C891 1.394 . S
C890 H898 0.930 . S
C891 C890 1.394 . S
C891 C892 1.383 . S
C891 H899 0.929 . S
C892 C891 1.383 . S
C892 C893 1.377 . S
C893 H877 0.930 . S
C893 C892 1.377 . S
C893 C894 1.379 . S
C894 H878 0.931 . S
C894 C888 1.383 . S
C894 C893 1.379 . S
H895 C889 0.959 . S
H896 C889 0.961 . S
H897 C889 0.960 . S
H898 C890 0.930 . S
H899 C891 0.929 . S
H900 C908 0.929 . S
H901 C910 0.930 . S
H902 C912 0.930 . S
H903 C915 0.929 . S
H904 C918 0.930 . S
H905 C920 0.960 . S
H906 C920 0.960 . S
H907 C920 0.960 1_565 S
C908 H900 0.929 . S
C908 C909 1.377 . S
C908 C910 1.384 1_565 S
C909 C908 1.377 . S
C909 C915 1.390 . S
C910 H901 0.930 . S
C910 C908 1.384 1_545 S
C910 C911 1.342 1_545 S
C911 C910 1.342 1_565 S
C911 C912 1.456 . S
C911 C916 1.467 1_565 S
C912 H902 0.930 . S
C912 C911 1.456 . S
C912 C915 1.386 . S
H913 C929 0.930 . S
H914 C930 0.931 . S
C915 H903 0.929 . S
C915 C909 1.390 . S
C915 C912 1.386 . S
C916 C911 1.467 1_545 S
C916 C918 1.395 . S
C916 C919 1.403 . S
H917 C923 0.930 . S
C918 H904 0.930 . S
C918 C916 1.395 . S
C918 C921 1.403 . S
C919 C916 1.403 . S
C919 C920 1.524 . S
C919 C923 1.400 . S
C920 H905 0.960 . S
C920 H906 0.960 . S
C920 H907 0.960 1_545 S
C920 C919 1.524 . S
C921 C918 1.403 . S
C921 C922 1.392 . S
C921 C925 1.495 . S
C922 C921 1.392 . S
C922 C923 1.385 . S
C922 C924 1.478 . S
C923 H917 0.930 . S
C923 C919 1.400 . S
C923 C922 1.385 . S
C924 C922 1.478 . S
C924 C926 1.381 . S
C924 C930 1.383 . S
C925 C921 1.495 . S
C925 H931 0.959 . S
C925 H932 0.961 . S
C925 H933 0.960 . S
C926 C924 1.381 . S
C926 C927 1.394 . S
C926 H934 0.930 . S
C927 C926 1.394 . S
C927 C928 1.383 . S
C927 H935 0.929 . S
C928 C927 1.383 . S
C928 C929 1.377 . S
C929 H913 0.930 . S
C929 C928 1.377 . S
C929 C930 1.379 . S
C930 H914 0.931 . S
C930 C924 1.383 . S
C930 C929 1.379 . S
H931 C925 0.959 . S
H932 C925 0.961 . S
H933 C925 0.960 . S
H934 C926 0.930 . S
H935 C927 0.929 . S
H936 C944 0.929 . S
H937 C946 0.930 . S
H938 C948 0.930 . S
H939 C951 0.929 . S
H940 C954 0.930 . S
H941 C956 0.960 . S
H942 C956 0.960 . S
H943 C956 0.960 1_554 S
C944 H936 0.929 . S
C944 C945 1.377 . S
C944 C946 1.384 . S
C945 C944 1.377 . S
C945 C951 1.390 . S
C946 H937 0.930 . S
C946 C944 1.384 . S
C946 C947 1.372 . S
C947 C946 1.372 . S
C947 C948 1.400 . S
C947 C952 1.490 . S
C948 H938 0.930 . S
C948 C947 1.400 . S
C948 C951 1.386 . S
H949 C965 0.930 . S
H950 C966 0.931 . S
C951 H939 0.929 . S
C951 C945 1.390 . S
C951 C948 1.386 . S
C952 C947 1.490 . S
C952 C954 1.395 . S
C952 C955 1.403 . S
H953 C959 0.930 . S
C954 H940 0.930 . S
C954 C952 1.395 . S
C954 C957 1.403 . S
C955 C952 1.403 . S
C955 C956 1.524 1_554 S
C955 C959 1.400 1_554 S
C956 H941 0.960 . S
C956 H942 0.960 . S
C956 H943 0.960 1_556 S
C956 C955 1.524 1_556 S
C957 C954 1.403 . S
C957 C958 1.392 . S
C957 C961 1.495 . S
C958 C957 1.392 . S
C958 C959 1.385 1_554 S
C958 C960 1.478 1_554 S
C959 H953 0.930 . S
C959 C955 1.400 1_556 S
C959 C958 1.385 1_556 S
C960 C958 1.478 1_556 S
C960 C962 1.381 . S
C960 C966 1.383 . S
C961 C957 1.495 . S
C961 H967 0.959 . S
C961 H968 0.961 . S
C961 H969 0.960 . S
C962 C960 1.381 . S
C962 C963 1.394 . S
C962 H970 0.930 . S
C963 C962 1.394 . S
C963 C964 1.383 . S
C963 H971 0.929 . S
C964 C963 1.383 . S
C964 C965 1.377 . S
C965 H949 0.930 . S
C965 C964 1.377 . S
C965 C966 1.379 . S
C966 H950 0.931 . S
C966 C960 1.383 . S
C966 C965 1.379 . S
H967 C961 0.959 . S
H968 C961 0.961 . S
H969 C961 0.960 . S
H970 C962 0.930 . S
H971 C963 0.929 . S
H972 C980 0.929 . S
H973 C982 0.930 . S
H974 C984 0.930 . S
H975 C987 0.929 . S
H976 C990 0.930 . S
H977 C992 0.960 1_556 S
H978 C992 0.960 . S
H979 C992 0.960 . S
C980 H972 0.929 . S
C980 C981 1.377 . S
C980 C982 1.384 . S
C981 C980 1.377 . S
C981 C987 1.390 . S
C982 H973 0.930 . S
C982 C980 1.384 . S
C982 C983 1.372 . S
C983 C982 1.372 . S
C983 C984 1.400 . S
C983 C988 1.490 . S
C984 H974 0.930 . S
C984 C983 1.400 . S
C984 C987 1.386 . S
H985 C1001 0.930 . S
H986 C1002 0.947 . S
C987 H975 0.929 . S
C987 C981 1.390 . S
C987 C984 1.386 . S
C988 C983 1.490 . S
C988 C990 1.395 . S
C988 C991 1.403 . S
H989 C995 0.944 . S
C990 H976 0.930 . S
C990 C988 1.395 . S
C990 C993 1.403 . S
C991 C988 1.403 . S
C991 C992 1.524 . S
C991 C995 1.388 1_554 S
C992 H977 0.960 1_554 S
C992 H978 0.960 . S
C992 H979 0.960 . S
C992 C991 1.524 . S
C993 C990 1.403 . S
C993 C994 1.392 . S
C993 C997 1.495 . S
C994 C993 1.392 . S
C994 C995 1.384 1_554 S
C994 C996 1.478 1_554 S
C995 H989 0.944 . S
C995 C991 1.388 1_556 S
C995 C994 1.384 1_556 S
C996 C994 1.478 1_556 S
C996 C998 1.381 . S
C996 C1002 1.383 . S
C997 C993 1.495 . S
C997 H1003 0.959 . S
C997 H1004 0.961 . S
C997 H1005 0.960 . S
C998 C996 1.381 . S
C998 C999 1.394 . S
C998 H1006 0.930 . S
C999 C998 1.394 . S
C999 C1000 1.383 . S
C999 H1007 0.929 . S
C1000 C999 1.383 . S
C1000 C1001 1.377 . S
C1001 H985 0.930 . S
C1001 C1000 1.377 . S
C1001 C1002 1.379 . S
C1002 H986 0.947 . S
C1002 C996 1.383 . S
C1002 C1001 1.379 . S
H1003 C997 0.959 . S
H1004 C997 0.961 . S
H1005 C997 0.960 . S
H1006 C998 0.930 . S
H1007 C999 0.929 . S
H1008 C1016 0.929 . S
H1009 C1018 0.930 . S
H1010 C1020 0.930 . S
H1011 C1023 0.929 . S
H1012 C1026 0.930 . S
H1013 C1028 0.960 . S
H1014 C1028 0.960 1_554 S
H1015 C1028 0.960 . S
C1016 H1008 0.929 . S
C1016 C1017 1.377 . S
C1016 C1018 1.384 . S
C1017 C1016 1.377 . S
C1017 C1023 1.390 . S
C1018 H1009 0.930 . S
C1018 C1016 1.384 . S
C1018 C1019 1.372 . S
C1019 C1018 1.372 . S
C1019 C1020 1.400 . S
C1019 C1024 1.490 . S
C1020 H1010 0.930 . S
C1020 C1019 1.400 . S
C1020 C1023 1.386 . S
H1021 C1037 0.930 . S
H1022 C1038 0.931 . S
C1023 H1011 0.929 . S
C1023 C1017 1.390 . S
C1023 C1020 1.386 . S
C1024 C1019 1.490 . S
C1024 C1026 1.395 . S
C1024 C1027 1.403 . S
H1025 C1031 0.930 . S
C1026 H1012 0.930 . S
C1026 C1024 1.395 . S
C1026 C1029 1.403 . S
C1027 C1024 1.403 . S
C1027 C1028 1.524 1_554 S
C1027 C1031 1.400 1_554 S
C1028 H1013 0.960 . S
C1028 H1014 0.960 1_556 S
C1028 H1015 0.960 . S
C1028 C1027 1.524 1_556 S
C1029 C1026 1.403 . S
C1029 C1030 1.392 . S
C1029 C1033 1.495 . S
C1030 C1029 1.392 . S
C1030 C1031 1.385 1_554 S
C1030 C1032 1.478 1_554 S
C1031 H1025 0.930 . S
C1031 C1027 1.400 1_556 S
C1031 C1030 1.385 1_556 S
C1032 C1030 1.478 1_556 S
C1032 C1034 1.381 . S
C1032 C1038 1.383 . S
C1033 C1029 1.495 . S
C1033 H1039 0.959 . S
C1033 H1040 0.961 . S
C1033 H1041 0.960 . S
C1034 C1032 1.381 . S
C1034 C1035 1.394 . S
C1034 H1042 0.930 1_556 S
C1035 C1034 1.394 . S
C1035 C1036 1.383 . S
C1035 H1043 0.929 . S
C1036 C1035 1.383 . S
C1036 C1037 1.377 . S
C1037 H1021 0.930 . S
C1037 C1036 1.377 . S
C1037 C1038 1.379 . S
C1038 H1022 0.931 . S
C1038 C1032 1.383 . S
C1038 C1037 1.379 . S
H1039 C1033 0.959 . S
H1040 C1033 0.961 . S
H1041 C1033 0.960 . S
H1042 C1034 0.930 1_554 S
H1043 C1035 0.929 . S
H1044 C1052 0.929 . S
H1045 C1054 0.930 . S
H1046 C1056 0.930 . S
H1047 C1059 0.929 . S
H1048 C1062 0.930 . S
H1049 C1064 0.960 . S
H1050 C1064 0.960 . S
H1051 C1064 0.960 1_556 S
C1052 H1044 0.929 . S
C1052 C1053 1.377 . S
C1052 C1054 1.384 . S
C1053 C1052 1.377 . S
C1053 C1059 1.390 . S
C1054 H1045 0.930 . S
C1054 C1052 1.384 . S
C1054 C1055 1.372 . S
C1055 C1054 1.372 . S
C1055 C1056 1.400 . S
C1055 C1060 1.490 . S
C1056 H1046 0.930 . S
C1056 C1055 1.400 . S
C1056 C1059 1.386 . S
H1057 C1073 0.930 . S
H1058 C1074 0.931 . S
C1059 H1047 0.929 . S
C1059 C1053 1.390 . S
C1059 C1056 1.386 . S
C1060 C1055 1.490 . S
C1060 C1062 1.395 . S
C1060 C1063 1.403 . S
H1061 C1067 0.930 . S
C1062 H1048 0.930 . S
C1062 C1060 1.395 . S
C1062 C1065 1.403 . S
C1063 C1060 1.403 . S
C1063 C1064 1.524 1_556 S
C1063 C1067 1.400 1_556 S
C1064 H1049 0.960 . S
C1064 H1050 0.960 . S
C1064 H1051 0.960 1_554 S
C1064 C1063 1.524 1_554 S
C1065 C1062 1.403 . S
C1065 C1066 1.392 . S
C1065 C1069 1.495 . S
C1066 C1065 1.392 . S
C1066 C1067 1.385 1_556 S
C1066 C1068 1.478 1_556 S
C1067 H1061 0.930 . S
C1067 C1063 1.400 1_554 S
C1067 C1066 1.385 1_554 S
C1068 C1066 1.478 1_554 S
C1068 C1070 1.381 . S
C1068 C1074 1.383 . S
C1069 C1065 1.495 . S
C1069 H1075 0.959 . S
C1069 H1076 0.961 . S
C1069 H1077 0.960 . S
C1070 C1068 1.381 . S
C1070 C1071 1.394 . S
C1070 H1078 0.930 . S
C1071 C1070 1.394 . S
C1071 C1072 1.383 . S
C1071 H1079 0.929 . S
C1072 C1071 1.383 . S
C1072 C1073 1.377 . S
C1073 H1057 0.930 . S
C1073 C1072 1.377 . S
C1073 C1074 1.379 . S
C1074 H1058 0.931 . S
C1074 C1068 1.383 . S
C1074 C1073 1.379 . S
H1075 C1069 0.959 . S
H1076 C1069 0.961 . S
H1077 C1069 0.960 . S
H1078 C1070 0.930 . S
H1079 C1071 0.929 . S
H1080 C1088 0.929 . S
H1081 C1090 0.930 . S
H1082 C1092 0.930 . S
H1083 C1095 0.929 . S
H1084 C1098 0.930 . S
H1085 C1100 0.960 . S
H1086 C1100 0.960 . S
H1087 C1100 0.960 . S
C1088 H1080 0.929 . S
C1088 C1089 1.377 . S
C1088 C1090 1.384 . S
C1089 C1088 1.377 . S
C1089 C1095 1.390 . S
C1090 H1081 0.930 . S
C1090 C1088 1.384 . S
C1090 C1091 1.372 . S
C1091 C1090 1.372 . S
C1091 C1092 1.400 . S
C1091 C1096 1.490 . S
C1092 H1082 0.930 . S
C1092 C1091 1.400 . S
C1092 C1095 1.386 . S
H1093 C1109 0.930 . S
H1094 C1110 0.931 . S
C1095 H1083 0.929 . S
C1095 C1089 1.390 . S
C1095 C1092 1.386 . S
C1096 C1091 1.490 . S
C1096 C1098 1.395 . S
C1096 C1099 1.403 . S
H1097 C1103 0.930 . S
C1098 H1084 0.930 . S
C1098 C1096 1.395 . S
C1098 C1101 1.403 1_556 S
C1099 C1096 1.403 . S
C1099 C1100 1.524 . S
C1099 C1103 1.400 . S
C1100 H1085 0.960 . S
C1100 H1086 0.960 . S
C1100 H1087 0.960 . S
C1100 C1099 1.524 . S
C1101 C1098 1.403 1_554 S
C1101 C1102 1.392 . S
C1101 C1105 1.495 . S
C1102 C1101 1.392 . S
C1102 C1103 1.385 1_554 S
C1102 C1104 1.478 . S
C1103 H1097 0.930 . S
C1103 C1099 1.400 . S
C1103 C1102 1.385 1_556 S
C1104 C1102 1.478 . S
C1104 C1106 1.381 . S
C1104 C1110 1.383 . S
C1105 C1101 1.495 . S
C1105 H1111 0.959 . S
C1105 H1112 0.961 . S
C1105 H1113 0.960 . S
C1106 C1104 1.381 . S
C1106 C1107 1.394 . S
C1106 H1114 0.930 . S
C1107 C1106 1.394 . S
C1107 C1108 1.383 . S
C1107 H1115 0.929 . S
C1108 C1107 1.383 . S
C1108 C1109 1.377 . S
C1109 H1093 0.930 . S
C1109 C1108 1.377 . S
C1109 C1110 1.379 . S
C1110 H1094 0.931 . S
C1110 C1104 1.383 . S
C1110 C1109 1.379 . S
H1111 C1105 0.959 . S
H1112 C1105 0.961 . S
H1113 C1105 0.960 . S
H1114 C1106 0.930 . S
H1115 C1107 0.929 . S
H1116 C1124 0.929 . S
H1117 C1126 0.930 . S
H1118 C1128 0.930 1_556 S
H1119 C1131 0.929 . S
H1120 C1134 0.930 . S
H1121 C1136 0.960 . S
H1122 C1136 0.960 . S
H1123 C1136 0.960 . S
C1124 H1116 0.929 . S
C1124 C1125 1.377 . S
C1124 C1126 1.384 . S
C1125 C1124 1.377 . S
C1125 C1131 1.390 . S
C1126 H1117 0.930 . S
C1126 C1124 1.384 . S
C1126 C1127 1.372 . S
C1127 C1126 1.372 . S
C1127 C1128 1.400 . S
C1127 C1132 1.490 . S
C1128 H1118 0.930 1_554 S
C1128 C1127 1.400 . S
C1128 C1131 1.386 . S
H1129 C1145 0.930 . S
H1130 C1146 0.931 . S
C1131 H1119 0.929 . S
C1131 C1125 1.390 . S
C1131 C1128 1.386 . S
C1132 C1127 1.490 . S
C1132 C1134 1.395 . S
C1132 C1135 1.403 1_554 S
H1133 C1139 0.930 . S
C1134 H1120 0.930 . S
C1134 C1132 1.395 . S
C1134 C1137 1.403 1_554 S
C1135 C1132 1.403 1_556 S
C1135 C1136 1.524 . S
C1135 C1139 1.400 . S
C1136 H1121 0.960 . S
C1136 H1122 0.960 . S
C1136 H1123 0.960 . S
C1136 C1135 1.524 . S
C1137 C1134 1.403 1_556 S
C1137 C1138 1.392 . S
C1137 C1141 1.495 1_556 S
C1138 C1137 1.392 . S
C1138 C1139 1.385 . S
C1138 C1140 1.478 . S
C1139 H1133 0.930 . S
C1139 C1135 1.400 . S
C1139 C1138 1.385 . S
C1140 C1138 1.478 . S
C1140 C1142 1.381 . S
C1140 C1146 1.383 . S
C1141 C1137 1.495 1_554 S
C1141 H1147 0.959 . S
C1141 H1148 0.961 1_554 S
C1141 H1149 0.960 . S
C1142 C1140 1.381 . S
C1142 C1143 1.394 . S
C1142 H1150 0.930 . S
C1143 C1142 1.394 . S
C1143 C1144 1.383 . S
C1143 H1151 0.929 . S
C1144 C1143 1.383 . S
C1144 C1145 1.377 . S
C1145 H1129 0.930 . S
C1145 C1144 1.377 . S
C1145 C1146 1.379 . S
C1146 H1130 0.931 . S
C1146 C1140 1.383 . S
C1146 C1145 1.379 . S
H1147 C1141 0.959 . S
H1148 C1141 0.961 1_556 S
H1149 C1141 0.960 . S
H1150 C1142 0.930 . S
H1151 C1143 0.929 . S
H1152 C1160 0.929 . S
H1153 C1162 0.911 1_455 S
H1154 C1164 0.930 . S
H1155 C1167 0.929 . S
H1156 C1170 0.930 . S
H1157 C1172 0.960 . S
H1158 C1172 0.960 . S
H1159 C1172 0.960 . S
C1160 H1152 0.929 . S
C1160 C1161 1.377 . S
C1160 C1162 1.384 . S
C1161 C1160 1.377 . S
C1161 C1167 1.390 . S
C1162 H1153 0.911 1_655 S
C1162 C1160 1.384 . S
C1162 C1163 1.372 . S
C1163 C1162 1.372 . S
C1163 C1164 1.400 . S
C1163 C1168 1.490 1_655 S
C1164 H1154 0.930 . S
C1164 C1163 1.400 . S
C1164 C1167 1.386 . S
H1165 C1181 0.930 . S
H1166 C1182 0.931 . S
C1167 H1155 0.929 . S
C1167 C1161 1.390 . S
C1167 C1164 1.386 . S
C1168 C1163 1.490 1_455 S
C1168 C1170 1.395 . S
C1168 C1171 1.403 . S
H1169 C1175 0.930 . S
C1170 H1156 0.930 . S
C1170 C1168 1.395 . S
C1170 C1173 1.403 . S
C1171 C1168 1.403 . S
C1171 C1172 1.524 1_455 S
C1171 C1175 1.400 . S
C1172 H1157 0.960 . S
C1172 H1158 0.960 . S
C1172 H1159 0.960 . S
C1172 C1171 1.524 1_655 S
C1173 C1170 1.403 . S
C1173 C1174 1.392 . S
C1173 C1177 1.495 . S
C1174 C1173 1.392 . S
C1174 C1175 1.385 . S
C1174 C1176 1.478 . S
C1175 H1169 0.930 . S
C1175 C1171 1.400 . S
C1175 C1174 1.385 . S
C1176 C1174 1.478 . S
C1176 C1178 1.381 . S
C1176 C1182 1.383 . S
C1177 C1173 1.495 . S
C1177 H1183 0.959 . S
C1177 H1184 0.961 . S
C1177 H1185 0.960 . S
C1178 C1176 1.381 . S
C1178 C1179 1.394 . S
C1178 H1186 0.930 . S
C1179 C1178 1.394 . S
C1179 C1180 1.383 . S
C1179 H1187 0.929 . S
C1180 C1179 1.383 . S
C1180 C1181 1.377 . S
C1181 H1165 0.930 . S
C1181 C1180 1.377 . S
C1181 C1182 1.379 . S
C1182 H1166 0.931 . S
C1182 C1176 1.383 . S
C1182 C1181 1.379 . S
H1183 C1177 0.959 . S
H1184 C1177 0.961 . S
H1185 C1177 0.960 . S
H1186 C1178 0.930 . S
H1187 C1179 0.929 . S
H1188 C1196 0.929 . S
H1189 C1198 0.930 . S
H1190 C1200 0.930 . S
H1191 C1203 0.929 . S
H1192 C1206 0.930 . S
H1193 C1208 0.960 . S
H1194 C1208 0.960 . S
H1195 C1208 0.960 . S
C1196 H1188 0.929 . S
C1196 C1197 1.377 . S
C1196 C1198 1.384 . S
C1197 C1196 1.377 . S
C1197 C1203 1.390 . S
C1198 H1189 0.930 . S
C1198 C1196 1.384 . S
C1198 C1199 1.372 . S
C1199 C1198 1.372 . S
C1199 C1200 1.400 . S
C1199 C1204 1.490 . S
C1200 H1190 0.930 . S
C1200 C1199 1.400 . S
C1200 C1203 1.386 . S
H1201 C1217 0.930 . S
H1202 C1218 0.931 . S
C1203 H1191 0.929 . S
C1203 C1197 1.390 . S
C1203 C1200 1.386 . S
C1204 C1199 1.490 . S
C1204 C1206 1.395 . S
C1204 C1207 1.403 . S
H1205 C1211 0.930 . S
C1206 H1192 0.930 . S
C1206 C1204 1.395 . S
C1206 C1209 1.403 . S
C1207 C1204 1.403 . S
C1207 C1208 1.524 . S
C1207 C1211 1.400 . S
C1208 H1193 0.960 . S
C1208 H1194 0.960 . S
C1208 H1195 0.960 . S
C1208 C1207 1.524 . S
C1209 C1206 1.403 . S
C1209 C1210 1.392 . S
C1209 C1213 1.495 . S
C1210 C1209 1.392 . S
C1210 C1211 1.385 . S
C1210 C1212 1.478 . S
C1211 H1205 0.930 . S
C1211 C1207 1.400 . S
C1211 C1210 1.385 . S
C1212 C1210 1.478 . S
C1212 C1214 1.381 . S
C1212 C1218 1.383 . S
C1213 C1209 1.495 . S
C1213 H1219 0.959 . S
C1213 H1220 0.961 . S
C1213 H1221 0.960 . S
C1214 C1212 1.381 . S
C1214 C1215 1.394 . S
C1214 H1222 0.930 . S
C1215 C1214 1.394 . S
C1215 C1216 1.383 . S
C1215 H1223 0.929 . S
C1216 C1215 1.383 . S
C1216 C1217 1.377 . S
C1217 H1201 0.930 . S
C1217 C1216 1.377 . S
C1217 C1218 1.379 . S
C1218 H1202 0.931 . S
C1218 C1212 1.383 . S
C1218 C1217 1.379 . S
H1219 C1213 0.959 . S
H1220 C1213 0.961 . S
H1221 C1213 0.960 . S
H1222 C1214 0.930 . S
H1223 C1215 0.929 . S
H1224 C1232 0.929 . S
H1225 C1234 0.930 . S
H1226 C1236 0.930 . S
H1227 C1239 0.929 . S
H1228 C1242 0.930 . S
H1229 C1244 0.960 . S
H1230 C1244 0.960 . S
H1231 C1244 0.960 . S
C1232 H1224 0.929 . S
C1232 C1233 1.377 . S
C1232 C1234 1.384 . S
C1233 C1232 1.377 . S
C1233 C1239 1.390 . S
C1234 H1225 0.930 . S
C1234 C1232 1.384 . S
C1234 C1235 1.372 . S
C1235 C1234 1.372 . S
C1235 C1236 1.400 . S
C1235 C1240 1.490 . S
C1236 H1226 0.930 . S
C1236 C1235 1.400 . S
C1236 C1239 1.386 . S
H1237 C1253 0.930 . S
H1238 C1254 0.931 1_565 S
C1239 H1227 0.929 . S
C1239 C1233 1.390 . S
C1239 C1236 1.386 . S
C1240 C1235 1.490 . S
C1240 C1242 1.395 . S
C1240 C1243 1.403 . S
H1241 C1247 0.930 . S
C1242 H1228 0.930 . S
C1242 C1240 1.395 . S
C1242 C1245 1.403 . S
C1243 C1240 1.403 . S
C1243 C1244 1.524 . S
C1243 C1247 1.400 . S
C1244 H1229 0.960 . S
C1244 H1230 0.960 . S
C1244 H1231 0.960 . S
C1244 C1243 1.524 . S
C1245 C1242 1.403 . S
C1245 C1246 1.392 . S
C1245 C1249 1.495 1_565 S
C1246 C1245 1.392 . S
C1246 C1247 1.385 . S
C1246 C1248 1.478 1_565 S
C1247 H1241 0.930 . S
C1247 C1243 1.400 . S
C1247 C1246 1.385 . S
C1248 C1246 1.478 1_545 S
C1248 C1250 1.381 . S
C1248 C1254 1.383 . S
C1249 C1245 1.495 1_545 S
C1249 H1255 0.959 . S
C1249 H1256 0.961 . S
C1249 H1257 0.960 . S
C1250 C1248 1.381 . S
C1250 C1251 1.394 . S
C1250 H1258 0.930 . S
C1251 C1250 1.394 . S
C1251 C1252 1.383 . S
C1251 H1259 0.929 . S
C1252 C1251 1.383 . S
C1252 C1253 1.377 . S
C1253 H1237 0.930 . S
C1253 C1252 1.377 . S
C1253 C1254 1.379 . S
C1254 H1238 0.931 1_545 S
C1254 C1248 1.383 . S
C1254 C1253 1.379 . S
H1255 C1249 0.959 . S
H1256 C1249 0.961 . S
H1257 C1249 0.960 . S
H1258 C1250 0.930 . S
H1259 C1251 0.929 . S
H1260 C1268 0.929 . S
H1261 C1270 0.930 . S
H1262 C1272 0.930 . S
H1263 C1275 0.929 . S
H1264 C1278 0.930 . S
H1265 C1280 0.960 . S
H1266 C1280 0.960 . S
H1267 C1280 0.960 . S
C1268 H1260 0.929 . S
C1268 C1269 1.377 . S
C1268 C1270 1.384 . S
C1269 C1268 1.377 . S
C1269 C1275 1.390 . S
C1270 H1261 0.930 . S
C1270 C1268 1.384 . S
C1270 C1271 1.372 . S
C1271 C1270 1.372 . S
C1271 C1272 1.400 . S
C1271 C1276 1.490 . S
C1272 H1262 0.930 . S
C1272 C1271 1.400 . S
C1272 C1275 1.386 . S
H1273 C1289 0.930 . S
H1274 C1290 0.931 . S
C1275 H1263 0.929 . S
C1275 C1269 1.390 . S
C1275 C1272 1.386 . S
C1276 C1271 1.490 . S
C1276 C1278 1.395 . S
C1276 C1279 1.403 . S
H1277 C1283 0.930 . S
C1278 H1264 0.930 . S
C1278 C1276 1.395 . S
C1278 C1281 1.403 . S
C1279 C1276 1.403 . S
C1279 C1280 1.524 . S
C1279 C1283 1.400 . S
C1280 H1265 0.960 . S
C1280 H1266 0.960 . S
C1280 H1267 0.960 . S
C1280 C1279 1.524 . S
C1281 C1278 1.403 . S
C1281 C1282 1.392 . S
C1281 C1285 1.495 . S
C1282 C1281 1.392 . S
C1282 C1283 1.385 . S
C1282 C1284 1.478 . S
C1283 H1277 0.930 . S
C1283 C1279 1.400 . S
C1283 C1282 1.385 . S
C1284 C1282 1.478 . S
C1284 C1286 1.381 . S
C1284 C1290 1.383 . S
C1285 C1281 1.495 . S
C1285 H1291 0.959 . S
C1285 H1292 0.961 . S
C1285 H1293 0.960 . S
C1286 C1284 1.381 . S
C1286 C1287 1.394 . S
C1286 H1294 0.930 . S
C1287 C1286 1.394 . S
C1287 C1288 1.383 . S
C1287 H1295 0.929 . S
C1288 C1287 1.383 . S
C1288 C1289 1.377 . S
C1289 H1273 0.930 . S
C1289 C1288 1.377 . S
C1289 C1290 1.379 . S
C1290 H1274 0.931 . S
C1290 C1284 1.383 . S
C1290 C1289 1.379 . S
H1291 C1285 0.959 . S
H1292 C1285 0.961 . S
H1293 C1285 0.960 . S
H1294 C1286 0.930 . S
H1295 C1287 0.929 . S
H1296 C1304 0.929 . S
H1297 C1306 0.930 . S
H1298 C1308 0.930 . S
H1299 C1311 0.929 . S
H1300 C1314 0.930 . S
H1301 C1316 0.960 . S
H1302 C1316 0.960 . S
H1303 C1316 0.960 . S
C1304 H1296 0.929 . S
C1304 C1305 1.377 . S
C1304 C1306 1.384 . S
C1305 C1304 1.377 . S
C1305 C1311 1.390 . S
C1306 H1297 0.930 . S
C1306 C1304 1.384 . S
C1306 C1307 1.372 . S
C1307 C1306 1.372 . S
C1307 C1308 1.400 . S
C1307 C1312 1.490 . S
C1308 H1298 0.930 . S
C1308 C1307 1.400 . S
C1308 C1311 1.386 . S
H1309 C1325 0.930 . S
H1310 C1326 0.931 . S
C1311 H1299 0.929 . S
C1311 C1305 1.390 . S
C1311 C1308 1.386 . S
C1312 C1307 1.490 . S
C1312 C1314 1.395 . S
C1312 C1315 1.403 . S
H1313 C1319 0.930 . S
C1314 H1300 0.930 . S
C1314 C1312 1.395 . S
C1314 C1317 1.403 . S
C1315 C1312 1.403 . S
C1315 C1316 1.524 . S
C1315 C1319 1.400 . S
C1316 H1301 0.960 . S
C1316 H1302 0.960 . S
C1316 H1303 0.960 . S
C1316 C1315 1.524 . S
C1317 C1314 1.403 . S
C1317 C1318 1.392 . S
C1317 C1321 1.495 . S
C1318 C1317 1.392 . S
C1318 C1319 1.385 . S
C1318 C1320 1.478 . S
C1319 H1313 0.930 . S
C1319 C1315 1.400 . S
C1319 C1318 1.385 . S
C1320 C1318 1.478 . S
C1320 C1322 1.381 . S
C1320 C1326 1.383 . S
C1321 C1317 1.495 . S
C1321 H1327 0.959 . S
C1321 H1328 0.961 . S
C1321 H1329 0.960 . S
C1322 C1320 1.381 . S
C1322 C1323 1.394 . S
C1322 H1330 0.930 . S
C1323 C1322 1.394 . S
C1323 C1324 1.383 . S
C1323 H1331 0.929 . S
C1324 C1323 1.383 . S
C1324 C1325 1.377 . S
C1325 H1309 0.930 . S
C1325 C1324 1.377 . S
C1325 C1326 1.379 . S
C1326 H1310 0.931 . S
C1326 C1320 1.383 . S
C1326 C1325 1.379 . S
H1327 C1321 0.959 . S
H1328 C1321 0.961 . S
H1329 C1321 0.960 . S
H1330 C1322 0.930 . S
H1331 C1323 0.929 . S
H1332 C1340 0.929 . S
H1333 C1342 0.930 . S
H1334 C1344 0.930 . S
H1335 C1347 0.929 . S
H1336 C1350 0.930 . S
H1337 C1352 0.960 . S
H1338 C1352 0.960 . S
H1339 C1352 0.960 . S
C1340 H1332 0.929 . S
C1340 C1341 1.377 . S
C1340 C1342 1.384 . S
C1341 C1340 1.377 . S
C1341 C1347 1.390 . S
C1342 H1333 0.930 . S
C1342 C1340 1.384 . S
C1342 C1343 1.372 . S
C1343 C1342 1.372 . S
C1343 C1344 1.400 . S
C1343 C1348 1.490 . S
C1344 H1334 0.930 . S
C1344 C1343 1.400 . S
C1344 C1347 1.386 . S
H1345 C1361 0.930 . S
H1346 C1362 0.931 . S
C1347 H1335 0.929 . S
C1347 C1341 1.390 . S
C1347 C1344 1.386 . S
C1348 C1343 1.490 . S
C1348 C1350 1.395 . S
C1348 C1351 1.403 . S
H1349 C1355 0.930 . S
C1350 H1336 0.930 . S
C1350 C1348 1.395 . S
C1350 C1353 1.403 . S
C1351 C1348 1.403 . S
C1351 C1352 1.524 . S
C1351 C1355 1.400 . S
C1352 H1337 0.960 . S
C1352 H1338 0.960 . S
C1352 H1339 0.960 . S
C1352 C1351 1.524 . S
C1353 C1350 1.403 . S
C1353 C1354 1.392 . S
C1353 C1357 1.495 . S
C1354 C1353 1.392 . S
C1354 C1355 1.385 . S
C1354 C1356 1.478 . S
C1355 H1349 0.930 . S
C1355 C1351 1.400 . S
C1355 C1354 1.385 . S
C1356 C1354 1.478 . S
C1356 C1358 1.381 . S
C1356 C1362 1.383 . S
C1357 C1353 1.495 . S
C1357 H1363 0.959 . S
C1357 H1364 0.961 . S
C1357 H1365 0.960 . S
C1358 C1356 1.381 . S
C1358 C1359 1.394 . S
C1358 H1366 0.930 . S
C1359 C1358 1.394 . S
C1359 C1360 1.383 . S
C1359 H1367 0.929 . S
C1360 C1359 1.383 . S
C1360 C1361 1.377 . S
C1361 H1345 0.930 . S
C1361 C1360 1.377 . S
C1361 C1362 1.379 . S
C1362 H1346 0.931 . S
C1362 C1356 1.383 . S
C1362 C1361 1.379 . S
H1363 C1357 0.959 . S
H1364 C1357 0.961 . S
H1365 C1357 0.960 . S
H1366 C1358 0.930 . S
H1367 C1359 0.929 . S
H1368 C1376 0.929 . S
H1369 C1378 0.930 . S
H1370 C1380 0.930 . S
H1371 C1383 0.929 . S
H1372 C1386 0.930 . S
H1373 C1388 0.960 . S
H1374 C1388 0.960 . S
H1375 C1388 0.960 . S
C1376 H1368 0.929 . S
C1376 C1377 1.377 . S
C1376 C1378 1.384 . S
C1377 C1376 1.377 . S
C1377 C1383 1.390 . S
C1378 H1369 0.930 . S
C1378 C1376 1.384 . S
C1378 C1379 1.372 . S
C1379 C1378 1.372 . S
C1379 C1380 1.400 . S
C1379 C1384 1.490 . S
C1380 H1370 0.930 . S
C1380 C1379 1.400 . S
C1380 C1383 1.386 . S
H1381 C1397 0.930 . S
H1382 C1398 0.931 . S
C1383 H1371 0.929 . S
C1383 C1377 1.390 . S
C1383 C1380 1.386 . S
C1384 C1379 1.490 . S
C1384 C1386 1.395 . S
C1384 C1387 1.403 . S
H1385 C1391 0.930 . S
C1386 H1372 0.930 . S
C1386 C1384 1.395 . S
C1386 C1389 1.403 . S
C1387 C1384 1.403 . S
C1387 C1388 1.524 . S
C1387 C1391 1.400 . S
C1388 H1373 0.960 . S
C1388 H1374 0.960 . S
C1388 H1375 0.960 . S
C1388 C1387 1.524 . S
C1389 C1386 1.403 . S
C1389 C1390 1.392 . S
C1389 C1393 1.495 . S
C1390 C1389 1.392 . S
C1390 C1391 1.385 . S
C1390 C1392 1.478 . S
C1391 H1385 0.930 . S
C1391 C1387 1.400 . S
C1391 C1390 1.385 . S
C1392 C1390 1.478 . S
C1392 C1394 1.381 . S
C1392 C1398 1.383 . S
C1393 C1389 1.495 . S
C1393 H1399 0.959 . S
C1393 H1400 0.961 . S
C1393 H1401 0.960 . S
C1394 C1392 1.381 . S
C1394 C1395 1.394 . S
C1394 H1402 0.930 . S
C1395 C1394 1.394 . S
C1395 C1396 1.383 . S
C1395 H1403 0.929 . S
C1396 C1395 1.383 . S
C1396 C1397 1.377 . S
C1397 H1381 0.930 . S
C1397 C1396 1.377 . S
C1397 C1398 1.379 . S
C1398 H1382 0.931 . S
C1398 C1392 1.383 . S
C1398 C1397 1.379 . S
H1399 C1393 0.959 . S
H1400 C1393 0.961 . S
H1401 C1393 0.960 . S
H1402 C1394 0.930 . S
H1403 C1395 0.929 . S
H1404 C1412 0.929 . S
H1405 C1414 0.930 . S
H1406 C1416 0.930 . S
H1407 C1419 0.929 . S
H1408 C1422 0.930 . S
H1409 C1424 0.960 . S
H1410 C1424 0.960 . S
H1411 C1424 0.960 . S
C1412 H1404 0.929 . S
C1412 C1413 1.377 . S
C1412 C1414 1.384 . S
C1413 C1412 1.377 . S
C1413 C1419 1.390 . S
C1414 H1405 0.930 . S
C1414 C1412 1.384 . S
C1414 C1415 1.372 . S
C1415 C1414 1.372 . S
C1415 C1416 1.400 . S
C1415 C1420 1.490 . S
C1416 H1406 0.930 . S
C1416 C1415 1.400 . S
C1416 C1419 1.386 . S
H1417 C1433 0.930 . S
H1418 C1434 0.931 . S
C1419 H1407 0.929 . S
C1419 C1413 1.390 . S
C1419 C1416 1.386 . S
C1420 C1415 1.490 . S
C1420 C1422 1.395 . S
C1420 C1423 1.403 . S
H1421 C1427 0.930 . S
C1422 H1408 0.930 . S
C1422 C1420 1.395 . S
C1422 C1425 1.403 . S
C1423 C1420 1.403 . S
C1423 C1424 1.524 . S
C1423 C1427 1.400 . S
C1424 H1409 0.960 . S
C1424 H1410 0.960 . S
C1424 H1411 0.960 . S
C1424 C1423 1.524 . S
C1425 C1422 1.403 . S
C1425 C1426 1.392 . S
C1425 C1429 1.495 . S
C1426 C1425 1.392 . S
C1426 C1427 1.385 . S
C1426 C1428 1.478 . S
C1427 H1421 0.930 . S
C1427 C1423 1.400 . S
C1427 C1426 1.385 . S
C1428 C1426 1.478 . S
C1428 C1430 1.381 . S
C1428 C1434 1.383 . S
C1429 C1425 1.495 . S
C1429 H1435 0.959 . S
C1429 H1436 0.961 . S
C1429 H1437 0.960 . S
C1430 C1428 1.381 . S
C1430 C1431 1.394 . S
C1430 H1438 0.930 . S
C1431 C1430 1.394 . S
C1431 C1432 1.383 . S
C1431 H1439 0.929 . S
C1432 C1431 1.383 . S
C1432 C1433 1.377 . S
C1433 H1417 0.930 . S
C1433 C1432 1.377 . S
C1433 C1434 1.379 . S
C1434 H1418 0.931 . S
C1434 C1428 1.383 . S
C1434 C1433 1.379 . S
H1435 C1429 0.959 . S
H1436 C1429 0.961 . S
H1437 C1429 0.960 . S
H1438 C1430 0.930 . S
H1439 C1431 0.929 . S
H1440 C1448 0.929 . S
H1441 C1450 0.930 . S
H1442 C1452 0.930 . S
H1443 C1455 0.929 . S
H1444 C1458 0.930 . S
H1445 C1460 0.960 . S
H1446 C1460 0.960 . S
H1447 C1460 0.960 . S
C1448 H1440 0.929 . S
C1448 C1449 1.377 . S
C1448 C1450 1.384 . S
C1449 C1448 1.377 . S
C1449 C1455 1.390 . S
C1450 H1441 0.930 . S
C1450 C1448 1.384 . S
C1450 C1451 1.372 . S
C1451 C1450 1.372 . S
C1451 C1452 1.400 . S
C1451 C1456 1.490 . S
C1452 H1442 0.930 . S
C1452 C1451 1.400 . S
C1452 C1455 1.386 . S
H1453 C1469 0.930 . S
H1454 C1470 0.931 . S
C1455 H1443 0.929 . S
C1455 C1449 1.390 . S
C1455 C1452 1.386 . S
C1456 C1451 1.490 . S
C1456 C1458 1.395 . S
C1456 C1459 1.403 . S
H1457 C1463 0.930 . S
C1458 H1444 0.930 . S
C1458 C1456 1.395 . S
C1458 C1461 1.403 . S
C1459 C1456 1.403 . S
C1459 C1460 1.524 . S
C1459 C1463 1.400 . S
C1460 H1445 0.960 . S
C1460 H1446 0.960 . S
C1460 H1447 0.960 . S
C1460 C1459 1.524 . S
C1461 C1458 1.403 . S
C1461 C1462 1.392 . S
C1461 C1465 1.495 . S
C1462 C1461 1.392 . S
C1462 C1463 1.385 . S
C1462 C1464 1.478 . S
C1463 H1457 0.930 . S
C1463 C1459 1.400 . S
C1463 C1462 1.385 . S
C1464 C1462 1.478 . S
C1464 C1466 1.381 . S
C1464 C1470 1.383 . S
C1465 C1461 1.495 . S
C1465 H1471 0.959 . S
C1465 H1472 0.961 . S
C1465 H1473 0.960 . S
C1466 C1464 1.381 . S
C1466 C1467 1.394 . S
C1466 H1474 0.930 . S
C1467 C1466 1.394 . S
C1467 C1468 1.383 . S
C1467 H1475 0.929 . S
C1468 C1467 1.383 . S
C1468 C1469 1.377 . S
C1469 H1453 0.930 . S
C1469 C1468 1.377 . S
C1469 C1470 1.379 . S
C1470 H1454 0.931 . S
C1470 C1464 1.383 . S
C1470 C1469 1.379 . S
H1471 C1465 0.959 . S
H1472 C1465 0.961 . S
H1473 C1465 0.960 . S
H1474 C1466 0.930 . S
H1475 C1467 0.929 . S
H1476 C1484 0.929 . S
H1477 C1486 0.930 . S
H1478 C1488 0.930 . S
H1479 C1491 0.929 . S
H1480 C1494 0.930 . S
H1481 C1496 0.960 . S
H1482 C1496 0.960 . S
H1483 C1496 0.960 1_554 S
C1484 H1476 0.929 . S
C1484 C1485 1.377 . S
C1484 C1486 1.384 . S
C1485 C1484 1.377 . S
C1485 C1491 1.390 . S
C1486 H1477 0.930 . S
C1486 C1484 1.384 . S
C1486 C1487 1.372 . S
C1487 C1486 1.372 . S
C1487 C1488 1.400 . S
C1487 C1492 1.490 . S
C1488 H1478 0.930 . S
C1488 C1487 1.400 . S
C1488 C1491 1.386 . S
H1489 C1505 0.930 . S
H1490 C1506 0.931 . S
C1491 H1479 0.929 . S
C1491 C1485 1.390 . S
C1491 C1488 1.386 . S
C1492 C1487 1.490 . S
C1492 C1494 1.395 . S
C1492 C1495 1.403 1_554 S
H1493 C1499 0.930 . S
C1494 H1480 0.930 . S
C1494 C1492 1.395 . S
C1494 C1497 1.403 1_545 S
C1495 C1492 1.403 1_556 S
C1495 C1496 1.524 . S
C1495 C1499 1.400 1_545 S
C1496 H1481 0.960 . S
C1496 H1482 0.960 . S
C1496 H1483 0.960 1_556 S
C1496 C1495 1.524 . S
C1497 C1494 1.403 1_565 S
C1497 C1498 1.392 1_554 S
C1497 C1501 1.495 . S
C1498 C1497 1.392 1_556 S
C1498 C1499 1.385 . S
C1498 C1500 1.478 . S
C1499 H1493 0.930 . S
C1499 C1495 1.400 1_565 S
C1499 C1498 1.385 . S
C1500 C1498 1.478 . S
C1500 C1502 1.381 . S
C1500 C1506 1.383 . S
C1501 C1497 1.495 . S
C1501 H1507 0.959 . S
C1501 H1508 0.961 . S
C1501 H1509 0.960 1_554 S
C1502 C1500 1.381 . S
C1502 C1503 1.394 . S
C1502 H1510 0.930 . S
C1503 C1502 1.394 . S
C1503 C1504 1.383 . S
C1503 H1511 0.929 . S
C1504 C1503 1.383 . S
C1504 C1505 1.377 . S
C1505 H1489 0.930 . S
C1505 C1504 1.377 . S
C1505 C1506 1.379 . S
C1506 H1490 0.931 . S
C1506 C1500 1.383 . S
C1506 C1505 1.379 . S
H1507 C1501 0.959 . S
H1508 C1501 0.961 . S
H1509 C1501 0.960 1_556 S
H1510 C1502 0.930 . S
H1511 C1503 0.929 . S
H1512 C1520 0.929 . S
H1513 C1522 0.930 . S
H1514 C1524 0.930 . S
H1515 C1527 0.929 . S
H1516 C1530 0.930 . S
H1517 C1532 0.960 . S
H1518 C1532 0.960 1_556 S
H1519 C1532 0.960 . S
C1520 H1512 0.929 . S
C1520 C1521 1.377 . S
C1520 C1522 1.384 . S
C1521 C1520 1.377 . S
C1521 C1527 1.390 . S
C1522 H1513 0.930 . S
C1522 C1520 1.384 . S
C1522 C1523 1.372 . S
C1523 C1522 1.372 . S
C1523 C1524 1.400 . S
C1523 C1528 1.490 . S
C1524 H1514 0.930 . S
C1524 C1523 1.400 . S
C1524 C1527 1.386 . S
H1525 C1541 0.930 . S
H1526 C1542 0.931 . S
C1527 H1515 0.929 . S
C1527 C1521 1.390 . S
C1527 C1524 1.386 . S
C1528 C1523 1.490 . S
C1528 C1530 1.395 . S
C1528 C1531 1.403 1_556 S
H1529 C1535 0.930 . S
C1530 H1516 0.930 . S
C1530 C1528 1.395 . S
C1530 C1533 1.403 1_455 S
C1531 C1528 1.403 1_554 S
C1531 C1532 1.524 . S
C1531 C1535 1.400 1_455 S
C1532 H1517 0.960 . S
C1532 H1518 0.960 1_554 S
C1532 H1519 0.960 . S
C1532 C1531 1.524 . S
C1533 C1530 1.403 1_655 S
C1533 C1534 1.392 1_556 S
C1533 C1537 1.495 . S
C1534 C1533 1.392 1_554 S
C1534 C1535 1.385 . S
C1534 C1536 1.478 . S
C1535 H1529 0.930 . S
C1535 C1531 1.400 1_655 S
C1535 C1534 1.385 . S
C1536 C1534 1.478 . S
C1536 C1538 1.381 . S
C1536 C1542 1.383 . S
C1537 C1533 1.495 . S
C1537 H1543 0.959 . S
C1537 H1544 0.951 1_556 S
C1537 H1545 0.960 . S
C1538 C1536 1.381 . S
C1538 C1539 1.394 . S
C1538 H1546 0.930 . S
C1539 C1538 1.394 . S
C1539 C1540 1.383 . S
C1539 H1547 0.929 . S
C1540 C1539 1.383 . S
C1540 C1541 1.377 . S
C1541 H1525 0.930 . S
C1541 C1540 1.377 . S
C1541 C1542 1.379 . S
C1542 H1526 0.931 . S
C1542 C1536 1.383 . S
C1542 C1541 1.379 . S
H1543 C1537 0.959 . S
H1544 C1537 0.951 1_554 S
H1545 C1537 0.960 . S
H1546 C1538 0.930 . S
H1547 C1539 0.929 . S
H1548 C1556 0.929 . S
H1549 C1558 0.930 . S
H1550 C1560 0.930 . S
H1551 C1563 0.929 . S
H1552 C1566 0.930 . S
H1553 C1568 0.960 . S
H1554 C1568 0.960 . S
H1555 C1568 0.960 . S
C1556 H1548 0.929 . S
C1556 C1557 1.377 . S
C1556 C1558 1.384 . S
C1557 C1556 1.377 . S
C1557 C1563 1.390 . S
C1558 H1549 0.930 . S
C1558 C1556 1.384 . S
C1558 C1559 1.372 . S
C1559 C1558 1.372 . S
C1559 C1560 1.400 . S
C1559 C1564 1.490 . S
C1560 H1550 0.930 . S
C1560 C1559 1.400 . S
C1560 C1563 1.386 . S
H1561 C1577 0.930 . S
H1562 C1578 0.931 . S
C1563 H1551 0.929 . S
C1563 C1557 1.390 . S
C1563 C1560 1.386 . S
C1564 C1559 1.490 . S
C1564 C1566 1.395 1_556 S
C1564 C1567 1.403 . S
H1565 C1571 0.930 . S
C1566 H1552 0.930 . S
C1566 C1564 1.395 1_554 S
C1566 C1569 1.403 . S
C1567 C1564 1.403 . S
C1567 C1568 1.524 . S
C1567 C1571 1.400 . S
C1568 H1553 0.960 . S
C1568 H1554 0.960 . S
C1568 H1555 0.960 . S
C1568 C1567 1.524 . S
C1569 C1566 1.403 . S
C1569 C1570 1.392 . S
C1569 C1573 1.495 . S
C1570 C1569 1.392 . S
C1570 C1571 1.385 1_554 S
C1570 C1572 1.478 . S
C1571 H1565 0.930 . S
C1571 C1567 1.400 . S
C1571 C1570 1.385 1_556 S
C1572 C1570 1.478 . S
C1572 C1574 1.381 . S
C1572 C1578 1.383 . S
C1573 C1569 1.495 . S
C1573 H1579 0.959 . S
C1573 H1580 0.961 . S
C1573 H1581 0.960 . S
C1574 C1572 1.381 . S
C1574 C1575 1.394 . S
C1574 H1582 0.930 . S
C1575 C1574 1.394 . S
C1575 C1576 1.383 . S
C1575 H1583 0.929 . S
C1576 C1575 1.383 . S
C1576 C1577 1.377 . S
C1577 H1561 0.930 . S
C1577 C1576 1.377 . S
C1577 C1578 1.379 . S
C1578 H1562 0.931 . S
C1578 C1572 1.383 . S
C1578 C1577 1.379 . S
H1579 C1573 0.959 . S
H1580 C1573 0.961 . S
H1581 C1573 0.960 . S
H1582 C1574 0.930 . S
H1583 C1575 0.929 . S
H1584 C1592 0.929 . S
H1585 C1594 0.930 . S
H1586 C1596 0.930 . S
H1587 C1599 0.929 . S
H1588 C1602 0.930 . S
H1589 C1604 0.960 . S
H1590 C1604 0.960 . S
H1591 C1604 0.960 . S
C1592 H1584 0.929 . S
C1592 C1593 1.377 . S
C1592 C1594 1.384 . S
C1593 C1592 1.377 . S
C1593 C1599 1.390 . S
C1594 H1585 0.930 . S
C1594 C1592 1.384 . S
C1594 C1595 1.372 . S
C1595 C1594 1.372 . S
C1595 C1596 1.400 . S
C1595 C1600 1.490 . S
C1596 H1586 0.930 . S
C1596 C1595 1.400 . S
C1596 C1599 1.386 . S
H1597 C1613 0.930 . S
H1598 C1614 0.931 . S
C1599 H1587 0.929 . S
C1599 C1593 1.390 . S
C1599 C1596 1.386 . S
C1600 C1595 1.490 . S
C1600 C1602 1.395 . S
C1600 C1603 1.403 . S
H1601 C1607 0.930 . S
C1602 H1588 0.930 . S
C1602 C1600 1.395 . S
C1602 C1605 1.403 1_554 S
C1603 C1600 1.403 . S
C1603 C1604 1.524 . S
C1603 C1607 1.400 . S
C1604 H1589 0.960 . S
C1604 H1590 0.960 . S
C1604 H1591 0.960 . S
C1604 C1603 1.524 . S
C1605 C1602 1.403 1_556 S
C1605 C1606 1.392 . S
C1605 C1609 1.495 . S
C1606 C1605 1.392 . S
C1606 C1607 1.385 1_556 S
C1606 C1608 1.478 . S
C1607 H1601 0.930 . S
C1607 C1603 1.400 . S
C1607 C1606 1.385 1_554 S
C1608 C1606 1.478 . S
C1608 C1610 1.381 . S
C1608 C1614 1.383 . S
C1609 C1605 1.495 . S
C1609 H1615 0.959 . S
C1609 H1616 0.961 . S
C1609 H1617 0.960 . S
C1610 C1608 1.381 . S
C1610 C1611 1.394 . S
C1610 H1618 0.930 1_556 S
C1611 C1610 1.394 . S
C1611 C1612 1.383 . S
C1611 H1619 0.929 . S
C1612 C1611 1.383 . S
C1612 C1613 1.377 . S
C1613 H1597 0.930 . S
C1613 C1612 1.377 . S
C1613 C1614 1.379 . S
C1614 H1598 0.931 . S
C1614 C1608 1.383 . S
C1614 C1613 1.379 . S
H1615 C1609 0.959 . S
H1616 C1609 0.961 . S
H1617 C1609 0.960 . S
H1618 C1610 0.930 1_554 S
H1619 C1611 0.929 . S
H1620 C1628 0.929 . S
H1621 C1630 0.930 . S
H1622 C1632 0.930 1_554 S
H1623 C1635 0.929 . S
H1624 C1638 0.930 . S
H1625 C1640 0.960 . S
H1626 C1640 0.960 . S
H1627 C1640 0.960 . S
C1628 H1620 0.929 . S
C1628 C1629 1.377 . S
C1628 C1630 1.384 . S
C1629 C1628 1.377 . S
C1629 C1635 1.390 . S
C1630 H1621 0.930 . S
C1630 C1628 1.384 . S
C1630 C1631 1.372 . S
C1631 C1630 1.372 . S
C1631 C1632 1.400 . S
C1631 C1636 1.490 . S
C1632 H1622 0.930 1_556 S
C1632 C1631 1.400 . S
C1632 C1635 1.386 . S
H1633 C1649 0.930 . S
H1634 C1650 0.931 . S
C1635 H1623 0.929 . S
C1635 C1629 1.390 . S
C1635 C1632 1.386 . S
C1636 C1631 1.490 . S
C1636 C1638 1.395 . S
C1636 C1639 1.403 1_556 S
H1637 C1643 0.930 . S
C1638 H1624 0.930 . S
C1638 C1636 1.395 . S
C1638 C1641 1.397 1_556 S
C1639 C1636 1.403 1_554 S
C1639 C1640 1.524 . S
C1639 C1643 1.400 . S
C1640 H1625 0.960 . S
C1640 H1626 0.960 . S
C1640 H1627 0.960 . S
C1640 C1639 1.524 . S
C1641 C1638 1.397 1_554 S
C1641 C1642 1.405 . S
C1641 C1645 1.489 1_554 S
C1642 C1641 1.405 . S
C1642 C1643 1.385 . S
C1642 C1644 1.478 . S
C1643 H1637 0.930 . S
C1643 C1639 1.400 . S
C1643 C1642 1.385 . S
C1644 C1642 1.478 . S
C1644 C1646 1.381 1_545 S
C1644 C1650 1.383 . S
C1645 C1641 1.489 1_556 S
C1645 H1651 0.959 . S
C1645 H1652 0.961 1_556 S
C1645 H1653 0.960 . S
C1646 C1644 1.381 1_565 S
C1646 C1647 1.394 . S
C1646 H1654 0.930 . S
C1647 C1646 1.394 . S
C1647 C1648 1.383 . S
C1647 H1655 0.929 . S
C1648 C1647 1.383 . S
C1648 C1649 1.377 . S
C1649 H1633 0.930 . S
C1649 C1648 1.377 . S
C1649 C1650 1.379 1_565 S
C1650 H1634 0.931 . S
C1650 C1644 1.383 . S
C1650 C1649 1.379 1_545 S
H1651 C1645 0.959 . S
H1652 C1645 0.961 1_554 S
H1653 C1645 0.960 . S
H1654 C1646 0.930 . S
H1655 C1647 0.929 . S
H1656 C1664 0.929 . S
H1657 C1666 0.930 . S
H1658 C1668 0.930 . S
H1659 C1671 0.929 . S
H1660 C1674 0.943 . S
H1661 C1676 0.960 . S
H1662 C1676 0.960 . S
H1663 C1676 0.960 . S
C1664 H1656 0.929 . S
C1664 C1665 1.377 . S
C1664 C1666 1.384 . S
C1665 C1664 1.377 . S
C1665 C1671 1.390 . S
C1666 H1657 0.930 . S
C1666 C1664 1.384 . S
C1666 C1667 1.372 1_455 S
C1667 C1666 1.372 1_655 S
C1667 C1668 1.400 . S
C1667 C1672 1.490 . S
C1668 H1658 0.930 . S
C1668 C1667 1.400 . S
C1668 C1671 1.386 1_655 S
H1669 C1685 0.930 . S
H1670 C1686 0.931 1_554 S
C1671 H1659 0.929 . S
C1671 C1665 1.390 . S
C1671 C1668 1.386 1_455 S
C1672 C1667 1.490 . S
C1672 C1674 1.366 1_554 S
C1672 C1675 1.403 . S
H1673 C1679 0.930 . S
C1674 H1660 0.943 . S
C1674 C1672 1.366 1_556 S
C1674 C1677 1.420 . S
C1675 C1672 1.403 . S
C1675 C1676 1.524 . S
C1675 C1679 1.400 . S
C1676 H1661 0.960 . S
C1676 H1662 0.960 . S
C1676 H1663 0.960 . S
C1676 C1675 1.524 . S
C1677 C1674 1.420 . S
C1677 C1678 1.392 . S
C1677 C1681 1.495 . S
C1678 C1677 1.392 . S
C1678 C1679 1.385 1_556 S
C1678 C1680 1.478 . S
C1679 H1673 0.930 . S
C1679 C1675 1.400 . S
C1679 C1678 1.385 1_554 S
C1680 C1678 1.478 . S
C1680 C1682 1.381 . S
C1680 C1686 1.383 . S
C1681 C1677 1.495 . S
C1681 H1687 0.959 . S
C1681 H1688 0.961 . S
C1681 H1689 0.960 . S
C1682 C1680 1.381 . S
C1682 C1683 1.394 . S
C1682 H1690 0.930 . S
C1683 C1682 1.394 . S
C1683 C1684 1.383 . S
C1683 H1691 0.929 . S
C1684 C1683 1.383 . S
C1684 C1685 1.377 . S
C1685 H1669 0.930 . S
C1685 C1684 1.377 . S
C1685 C1686 1.379 . S
C1686 H1670 0.931 1_556 S
C1686 C1680 1.383 . S
C1686 C1685 1.379 . S
H1687 C1681 0.959 . S
H1688 C1681 0.961 . S
H1689 C1681 0.960 . S
H1690 C1682 0.930 . S
H1691 C1683 0.929 . S
H1692 C1700 0.929 . S
H1693 C1702 0.930 1_556 S
H1694 C1704 0.930 . S
H1695 C1707 0.929 . S
H1696 C1710 0.930 . S
H1697 C1712 0.960 . S
H1698 C1712 0.960 . S
H1699 C1712 0.960 . S
C1700 H1692 0.929 . S
C1700 C1701 1.377 . S
C1700 C1702 1.384 . S
C1701 C1700 1.377 . S
C1701 C1707 1.390 . S
C1702 H1693 0.930 1_554 S
C1702 C1700 1.384 . S
C1702 C1703 1.372 . S
C1703 C1702 1.372 . S
C1703 C1704 1.400 . S
C1703 C1708 1.490 1_554 S
C1704 H1694 0.930 . S
C1704 C1703 1.400 . S
C1704 C1707 1.386 . S
H1705 C1721 0.930 . S
H1706 C1722 0.931 . S
C1707 H1695 0.929 . S
C1707 C1701 1.390 . S
C1707 C1704 1.386 . S
C1708 C1703 1.490 1_556 S
C1708 C1710 1.395 . S
C1708 C1711 1.403 1_556 S
H1709 C1715 0.930 . S
C1710 H1696 0.930 . S
C1710 C1708 1.395 . S
C1710 C1713 1.403 . S
C1711 C1708 1.403 1_554 S
C1711 C1712 1.524 . S
C1711 C1715 1.400 1_554 S
C1712 H1697 0.960 . S
C1712 H1698 0.960 . S
C1712 H1699 0.960 . S
C1712 C1711 1.524 . S
C1713 C1710 1.403 . S
C1713 C1714 1.392 . S
C1713 C1717 1.495 . S
C1714 C1713 1.392 . S
C1714 C1715 1.385 . S
C1714 C1716 1.478 . S
C1715 H1709 0.930 . S
C1715 C1711 1.400 1_556 S
C1715 C1714 1.385 . S
C1716 C1714 1.478 . S
C1716 C1718 1.381 . S
C1716 C1722 1.383 . S
C1717 C1713 1.495 . S
C1717 H1723 0.959 . S
C1717 H1724 0.961 . S
C1717 H1725 0.960 . S
C1718 C1716 1.381 . S
C1718 C1719 1.394 . S
C1718 H1726 0.930 . S
C1719 C1718 1.394 . S
C1719 C1720 1.383 . S
C1719 H1727 0.929 . S
C1720 C1719 1.383 . S
C1720 C1721 1.377 . S
C1721 H1705 0.930 . S
C1721 C1720 1.377 . S
C1721 C1722 1.379 . S
C1722 H1706 0.931 . S
C1722 C1716 1.383 . S
C1722 C1721 1.379 . S
H1723 C1717 0.959 . S
H1724 C1717 0.961 . S
H1725 C1717 0.960 . S
H1726 C1718 0.930 . S
H1727 C1719 0.929 . S
H1728 C1736 0.929 . S
H1729 C1738 0.930 . S
H1730 C1740 0.930 . S
H1731 C1743 0.929 . S
H1732 C1746 0.930 1_554 S
H1733 C1748 0.960 . S
H1734 C1748 0.960 . S
H1735 C1748 0.960 . S
C1736 H1728 0.929 . S
C1736 C1737 1.377 . S
C1736 C1738 1.384 . S
C1737 C1736 1.377 . S
C1737 C1743 1.390 . S
C1738 H1729 0.930 . S
C1738 C1736 1.384 . S
C1738 C1739 1.372 1_545 S
C1739 C1738 1.372 1_565 S
C1739 C1740 1.400 . S
C1739 C1744 1.490 . S
C1740 H1730 0.930 . S
C1740 C1739 1.400 . S
C1740 C1743 1.386 1_565 S
H1741 C1757 0.930 . S
H1742 C1758 0.931 1_556 S
C1743 H1731 0.929 . S
C1743 C1737 1.390 . S
C1743 C1740 1.386 1_545 S
C1744 C1739 1.490 . S
C1744 C1746 1.395 . S
C1744 C1747 1.403 . S
H1745 C1751 0.930 . S
C1746 H1732 0.930 1_556 S
C1746 C1744 1.395 . S
C1746 C1749 1.403 1_556 S
C1747 C1744 1.403 . S
C1747 C1748 1.524 . S
C1747 C1751 1.400 . S
C1748 H1733 0.960 . S
C1748 H1734 0.960 . S
C1748 H1735 0.960 . S
C1748 C1747 1.524 . S
C1749 C1746 1.403 1_554 S
C1749 C1750 1.392 . S
C1749 C1753 1.495 . S
C1750 C1749 1.392 . S
C1750 C1751 1.385 1_554 S
C1750 C1752 1.478 . S
C1751 H1745 0.930 . S
C1751 C1747 1.400 . S
C1751 C1750 1.385 1_556 S
C1752 C1750 1.478 . S
C1752 C1754 1.381 . S
C1752 C1758 1.383 . S
C1753 C1749 1.495 . S
C1753 H1759 0.959 . S
C1753 H1760 0.961 . S
C1753 H1761 0.960 . S
C1754 C1752 1.381 . S
C1754 C1755 1.394 . S
C1754 H1762 0.930 . S
C1755 C1754 1.394 . S
C1755 C1756 1.383 . S
C1755 H1763 0.929 . S
C1756 C1755 1.383 . S
C1756 C1757 1.377 . S
C1757 H1741 0.930 . S
C1757 C1756 1.377 . S
C1757 C1758 1.379 . S
C1758 H1742 0.931 1_554 S
C1758 C1752 1.383 . S
C1758 C1757 1.379 . S
H1759 C1753 0.959 . S
H1760 C1753 0.961 . S
H1761 C1753 0.960 . S
H1762 C1754 0.930 . S
H1763 C1755 0.929 . S
H1764 C1772 0.929 . S
H1765 C1774 0.930 1_556 S
H1766 C1776 0.930 . S
H1767 C1779 0.929 . S
H1768 C1782 0.930 . S
H1769 C1784 0.960 . S
H1770 C1784 0.960 . S
H1771 C1784 0.960 . S
C1772 H1764 0.929 . S
C1772 C1773 1.377 . S
C1772 C1774 1.384 . S
C1773 C1772 1.377 . S
C1773 C1779 1.390 . S
C1774 H1765 0.930 1_554 S
C1774 C1772 1.384 . S
C1774 C1775 1.372 . S
C1775 C1774 1.372 . S
C1775 C1776 1.400 . S
C1775 C1780 1.490 1_554 S
C1776 H1766 0.930 . S
C1776 C1775 1.400 . S
C1776 C1779 1.386 . S
H1777 C1793 0.930 . S
H1778 C1794 0.931 . S
C1779 H1767 0.929 . S
C1779 C1773 1.390 . S
C1779 C1776 1.386 . S
C1780 C1775 1.490 1_556 S
C1780 C1782 1.395 . S
C1780 C1783 1.403 1_556 S
H1781 C1787 0.930 1_554 S
C1782 H1768 0.930 . S
C1782 C1780 1.395 . S
C1782 C1785 1.403 . S
C1783 C1780 1.403 1_554 S
C1783 C1784 1.524 . S
C1783 C1787 1.400 1_554 S
C1784 H1769 0.960 . S
C1784 H1770 0.960 . S
C1784 H1771 0.960 . S
C1784 C1783 1.524 . S
C1785 C1782 1.403 . S
C1785 C1786 1.392 . S
C1785 C1789 1.495 . S
C1786 C1785 1.392 . S
C1786 C1787 1.385 . S
C1786 C1788 1.478 . S
C1787 H1781 0.930 1_556 S
C1787 C1783 1.400 1_556 S
C1787 C1786 1.385 . S
C1788 C1786 1.478 . S
C1788 C1790 1.381 . S
C1788 C1794 1.383 1_455 S
C1789 C1785 1.495 . S
C1789 H1795 0.959 . S
C1789 H1796 0.961 . S
C1789 H1797 0.960 . S
C1790 C1788 1.381 . S
C1790 C1791 1.394 1_455 S
C1790 H1798 0.930 . S
C1791 C1790 1.394 1_655 S
C1791 C1792 1.383 . S
C1791 H1799 0.929 . S
C1792 C1791 1.383 . S
C1792 C1793 1.377 . S
C1793 H1777 0.930 . S
C1793 C1792 1.377 . S
C1793 C1794 1.379 . S
C1794 H1778 0.931 . S
C1794 C1788 1.383 1_655 S
C1794 C1793 1.379 . S
H1795 C1789 0.959 . S
H1796 C1789 0.961 . S
H1797 C1789 0.960 . S
H1798 C1790 0.930 . S
H1799 C1791 0.929 . S
H1800 C1808 0.929 . S
H1801 C1810 0.930 . S
H1802 C1812 0.930 . S
H1803 C1815 0.929 . S
H1804 C1818 0.930 . S
H1805 C1820 0.960 . S
H1806 C1820 0.960 . S
H1807 C1820 0.960 . S
C1808 H1800 0.929 . S
C1808 C1809 1.377 . S
C1808 C1810 1.384 . S
C1809 C1808 1.377 . S
C1809 C1815 1.390 . S
C1810 H1801 0.930 . S
C1810 C1808 1.384 . S
C1810 C1811 1.372 . S
C1811 C1810 1.372 . S
C1811 C1812 1.400 . S
C1811 C1816 1.490 . S
C1812 H1802 0.930 . S
C1812 C1811 1.400 . S
C1812 C1815 1.386 . S
H1813 C1829 0.930 . S
H1814 C1830 0.931 . S
C1815 H1803 0.929 . S
C1815 C1809 1.390 . S
C1815 C1812 1.386 . S
C1816 C1811 1.490 . S
C1816 C1818 1.395 . S
C1816 C1819 1.403 . S
H1817 C1823 0.930 . S
C1818 H1804 0.930 . S
C1818 C1816 1.395 . S
C1818 C1821 1.403 . S
C1819 C1816 1.403 . S
C1819 C1820 1.524 . S
C1819 C1823 1.400 . S
C1820 H1805 0.960 . S
C1820 H1806 0.960 . S
C1820 H1807 0.960 . S
C1820 C1819 1.524 . S
C1821 C1818 1.403 . S
C1821 C1822 1.392 . S
C1821 C1825 1.495 . S
C1822 C1821 1.392 . S
C1822 C1823 1.385 . S
C1822 C1824 1.478 . S
C1823 H1817 0.930 . S
C1823 C1819 1.400 . S
C1823 C1822 1.385 . S
C1824 C1822 1.478 . S
C1824 C1826 1.381 . S
C1824 C1830 1.383 . S
C1825 C1821 1.495 . S
C1825 H1831 0.959 . S
C1825 H1832 0.961 . S
C1825 H1833 0.960 . S
C1826 C1824 1.381 . S
C1826 C1827 1.394 . S
C1826 H1834 0.930 . S
C1827 C1826 1.394 . S
C1827 C1828 1.383 . S
C1827 H1835 0.929 . S
C1828 C1827 1.383 . S
C1828 C1829 1.377 . S
C1829 H1813 0.930 . S
C1829 C1828 1.377 . S
C1829 C1830 1.379 . S
C1830 H1814 0.931 . S
C1830 C1824 1.383 . S
C1830 C1829 1.379 . S
H1831 C1825 0.959 . S
H1832 C1825 0.961 . S
H1833 C1825 0.960 . S
H1834 C1826 0.930 . S
H1835 C1827 0.929 . S
H1836 C1844 0.929 . S
H1837 C1846 0.930 . S
H1838 C1848 0.930 . S
H1839 C1851 0.929 . S
H1840 C1854 0.930 . S
H1841 C1856 0.960 . S
H1842 C1856 0.960 . S
H1843 C1856 0.960 . S
C1844 H1836 0.929 . S
C1844 C1845 1.377 . S
C1844 C1846 1.384 . S
C1845 C1844 1.377 . S
C1845 C1851 1.390 . S
C1846 H1837 0.930 . S
C1846 C1844 1.384 . S
C1846 C1847 1.372 . S
C1847 C1846 1.372 . S
C1847 C1848 1.400 . S
C1847 C1852 1.490 . S
C1848 H1838 0.930 . S
C1848 C1847 1.400 . S
C1848 C1851 1.386 . S
H1849 C1865 0.930 . S
H1850 C1866 0.931 . S
C1851 H1839 0.929 . S
C1851 C1845 1.390 . S
C1851 C1848 1.386 . S
C1852 C1847 1.490 . S
C1852 C1854 1.395 . S
C1852 C1855 1.403 . S
H1853 C1859 0.930 . S
C1854 H1840 0.930 . S
C1854 C1852 1.395 . S
C1854 C1857 1.403 . S
C1855 C1852 1.403 . S
C1855 C1856 1.524 . S
C1855 C1859 1.400 . S
C1856 H1841 0.960 . S
C1856 H1842 0.960 . S
C1856 H1843 0.960 . S
C1856 C1855 1.524 . S
C1857 C1854 1.403 . S
C1857 C1858 1.392 . S
C1857 C1861 1.495 . S
C1858 C1857 1.392 . S
C1858 C1859 1.385 . S
C1858 C1860 1.478 . S
C1859 H1853 0.930 . S
C1859 C1855 1.400 . S
C1859 C1858 1.385 . S
C1860 C1858 1.478 . S
C1860 C1862 1.381 . S
C1860 C1866 1.383 . S
C1861 C1857 1.495 . S
C1861 H1867 0.959 . S
C1861 H1868 0.961 . S
C1861 H1869 0.960 . S
C1862 C1860 1.381 . S
C1862 C1863 1.394 . S
C1862 H1870 0.930 . S
C1863 C1862 1.394 . S
C1863 C1864 1.383 . S
C1863 H1871 0.929 . S
C1864 C1863 1.383 . S
C1864 C1865 1.377 . S
C1865 H1849 0.930 . S
C1865 C1864 1.377 . S
C1865 C1866 1.379 . S
C1866 H1850 0.931 . S
C1866 C1860 1.383 . S
C1866 C1865 1.379 . S
H1867 C1861 0.959 . S
H1868 C1861 0.961 . S
H1869 C1861 0.960 . S
H1870 C1862 0.930 . S
H1871 C1863 0.929 . S
H1872 C1880 0.929 . S
H1873 C1882 0.930 . S
H1874 C1884 0.930 . S
H1875 C1887 0.929 . S
H1876 C1890 0.930 . S
H1877 C1892 0.960 . S
H1878 C1892 0.960 . S
H1879 C1892 0.960 . S
C1880 H1872 0.929 . S
C1880 C1881 1.377 . S
C1880 C1882 1.384 . S
C1881 C1880 1.377 . S
C1881 C1887 1.390 . S
C1882 H1873 0.930 . S
C1882 C1880 1.384 . S
C1882 C1883 1.372 . S
C1883 C1882 1.372 . S
C1883 C1884 1.400 . S
C1883 C1888 1.490 . S
C1884 H1874 0.930 . S
C1884 C1883 1.400 . S
C1884 C1887 1.386 . S
H1885 C1901 0.930 . S
H1886 C1902 0.931 . S
C1887 H1875 0.929 . S
C1887 C1881 1.390 . S
C1887 C1884 1.386 . S
C1888 C1883 1.490 . S
C1888 C1890 1.395 . S
C1888 C1891 1.403 . S
H1889 C1895 0.930 . S
C1890 H1876 0.930 . S
C1890 C1888 1.395 . S
C1890 C1893 1.403 . S
C1891 C1888 1.403 . S
C1891 C1892 1.524 . S
C1891 C1895 1.400 . S
C1892 H1877 0.960 . S
C1892 H1878 0.960 . S
C1892 H1879 0.960 . S
C1892 C1891 1.524 . S
C1893 C1890 1.403 . S
C1893 C1894 1.392 . S
C1893 C1897 1.495 . S
C1894 C1893 1.392 . S
C1894 C1895 1.385 . S
C1894 C1896 1.478 . S
C1895 H1889 0.930 . S
C1895 C1891 1.400 . S
C1895 C1894 1.385 . S
C1896 C1894 1.478 . S
C1896 C1898 1.381 . S
C1896 C1902 1.383 . S
C1897 C1893 1.495 . S
C1897 H1903 0.959 . S
C1897 H1904 0.961 . S
C1897 H1905 0.960 . S
C1898 C1896 1.381 . S
C1898 C1899 1.394 . S
C1898 H1906 0.930 . S
C1899 C1898 1.394 . S
C1899 C1900 1.383 . S
C1899 H1907 0.929 . S
C1900 C1899 1.383 . S
C1900 C1901 1.377 . S
C1901 H1885 0.930 . S
C1901 C1900 1.377 . S
C1901 C1902 1.379 . S
C1902 H1886 0.931 . S
C1902 C1896 1.383 . S
C1902 C1901 1.379 . S
H1903 C1897 0.959 . S
H1904 C1897 0.961 . S
H1905 C1897 0.960 . S
H1906 C1898 0.930 . S
H1907 C1899 0.929 . S
H1908 C1916 0.929 . S
H1909 C1918 0.930 . S
H1910 C1920 0.930 . S
H1911 C1923 0.929 . S
H1912 C1926 0.930 . S
H1913 C1928 0.960 . S
H1914 C1928 0.960 . S
H1915 C1928 0.960 . S
C1916 H1908 0.929 . S
C1916 C1917 1.377 . S
C1916 C1918 1.384 . S
C1917 C1916 1.377 . S
C1917 C1923 1.390 . S
C1918 H1909 0.930 . S
C1918 C1916 1.384 . S
C1918 C1919 1.372 . S
C1919 C1918 1.372 . S
C1919 C1920 1.400 . S
C1919 C1924 1.490 . S
C1920 H1910 0.930 . S
C1920 C1919 1.400 . S
C1920 C1923 1.386 . S
H1921 C1937 0.930 . S
H1922 C1938 0.931 . S
C1923 H1911 0.929 . S
C1923 C1917 1.390 . S
C1923 C1920 1.386 . S
C1924 C1919 1.490 . S
C1924 C1926 1.395 . S
C1924 C1927 1.403 . S
H1925 C1931 0.930 . S
C1926 H1912 0.930 . S
C1926 C1924 1.395 . S
C1926 C1929 1.403 . S
C1927 C1924 1.403 . S
C1927 C1928 1.524 . S
C1927 C1931 1.400 . S
C1928 H1913 0.960 . S
C1928 H1914 0.960 . S
C1928 H1915 0.960 . S
C1928 C1927 1.524 . S
C1929 C1926 1.403 . S
C1929 C1930 1.392 . S
C1929 C1933 1.495 . S
C1930 C1929 1.392 . S
C1930 C1931 1.385 . S
C1930 C1932 1.478 . S
C1931 H1925 0.930 . S
C1931 C1927 1.400 . S
C1931 C1930 1.385 . S
C1932 C1930 1.478 . S
C1932 C1934 1.381 . S
C1932 C1938 1.383 . S
C1933 C1929 1.495 . S
C1933 H1939 0.959 . S
C1933 H1940 0.961 . S
C1933 H1941 0.960 . S
C1934 C1932 1.381 . S
C1934 C1935 1.394 . S
C1934 H1942 0.930 . S
C1935 C1934 1.394 . S
C1935 C1936 1.383 . S
C1935 H1943 0.929 . S
C1936 C1935 1.383 . S
C1936 C1937 1.377 . S
C1937 H1921 0.930 . S
C1937 C1936 1.377 . S
C1937 C1938 1.379 . S
C1938 H1922 0.931 . S
C1938 C1932 1.383 . S
C1938 C1937 1.379 . S
H1939 C1933 0.959 . S
H1940 C1933 0.961 . S
H1941 C1933 0.960 . S
H1942 C1934 0.930 . S
H1943 C1935 0.929 . S
H1944 C1952 0.929 . S
H1945 C1954 0.930 . S
H1946 C1956 0.930 . S
H1947 C1959 0.929 . S
H1948 C1962 0.930 . S
H1949 C1964 0.960 . S
H1950 C1964 0.960 . S
H1951 C1964 0.960 . S
C1952 H1944 0.929 . S
C1952 C1953 1.377 . S
C1952 C1954 1.384 . S
C1953 C1952 1.377 . S
C1953 C1959 1.390 . S
C1954 H1945 0.930 . S
C1954 C1952 1.384 . S
C1954 C1955 1.372 . S
C1955 C1954 1.372 . S
C1955 C1956 1.400 . S
C1955 C1960 1.490 . S
C1956 H1946 0.930 . S
C1956 C1955 1.400 . S
C1956 C1959 1.386 . S
H1957 C1973 0.930 . S
H1958 C1974 0.931 . S
C1959 H1947 0.929 . S
C1959 C1953 1.390 . S
C1959 C1956 1.386 . S
C1960 C1955 1.490 . S
C1960 C1962 1.395 . S
C1960 C1963 1.403 . S
H1961 C1967 0.930 . S
C1962 H1948 0.930 . S
C1962 C1960 1.395 . S
C1962 C1965 1.403 . S
C1963 C1960 1.403 . S
C1963 C1964 1.524 . S
C1963 C1967 1.400 . S
C1964 H1949 0.960 . S
C1964 H1950 0.960 . S
C1964 H1951 0.960 . S
C1964 C1963 1.524 . S
C1965 C1962 1.403 . S
C1965 C1966 1.392 . S
C1965 C1969 1.495 . S
C1966 C1965 1.392 . S
C1966 C1967 1.385 . S
C1966 C1968 1.478 . S
C1967 H1961 0.930 . S
C1967 C1963 1.400 . S
C1967 C1966 1.385 . S
C1968 C1966 1.478 . S
C1968 C1970 1.381 . S
C1968 C1974 1.383 . S
C1969 C1965 1.495 . S
C1969 H1975 0.959 . S
C1969 H1976 0.961 . S
C1969 H1977 0.960 . S
C1970 C1968 1.381 . S
C1970 C1971 1.394 . S
C1970 H1978 0.930 . S
C1971 C1970 1.394 . S
C1971 C1972 1.383 . S
C1971 H1979 0.929 . S
C1972 C1971 1.383 . S
C1972 C1973 1.377 . S
C1973 H1957 0.930 . S
C1973 C1972 1.377 . S
C1973 C1974 1.379 . S
C1974 H1958 0.931 . S
C1974 C1968 1.383 . S
C1974 C1973 1.379 . S
H1975 C1969 0.959 . S
H1976 C1969 0.961 . S
H1977 C1969 0.960 . S
H1978 C1970 0.930 . S
H1979 C1971 0.929 . S
H1980 C1988 0.929 . S
H1981 C1990 0.930 . S
H1982 C1992 0.930 . S
H1983 C1995 0.929 . S
H1984 C1998 0.930 . S
H1985 C2000 0.960 . S
H1986 C2000 0.960 . S
H1987 C2000 0.960 . S
C1988 H1980 0.929 . S
C1988 C1989 1.377 . S
C1988 C1990 1.384 . S
C1989 C1988 1.377 . S
C1989 C1995 1.390 . S
C1990 H1981 0.930 . S
C1990 C1988 1.384 . S
C1990 C1991 1.372 . S
C1991 C1990 1.372 . S
C1991 C1992 1.400 . S
C1991 C1996 1.490 . S
C1992 H1982 0.930 . S
C1992 C1991 1.400 . S
C1992 C1995 1.386 . S
H1993 C2009 0.930 . S
H1994 C2010 0.931 . S
C1995 H1983 0.929 . S
C1995 C1989 1.390 . S
C1995 C1992 1.386 . S
C1996 C1991 1.490 . S
C1996 C1998 1.395 . S
C1996 C1999 1.403 . S
H1997 C2003 0.930 . S
C1998 H1984 0.930 . S
C1998 C1996 1.395 . S
C1998 C2001 1.403 . S
C1999 C1996 1.403 . S
C1999 C2000 1.524 . S
C1999 C2003 1.400 . S
C2000 H1985 0.960 . S
C2000 H1986 0.960 . S
C2000 H1987 0.960 . S
C2000 C1999 1.524 . S
C2001 C1998 1.403 . S
C2001 C2002 1.392 . S
C2001 C2005 1.495 . S
C2002 C2001 1.392 . S
C2002 C2003 1.385 . S
C2002 C2004 1.478 . S
C2003 H1997 0.930 . S
C2003 C1999 1.400 . S
C2003 C2002 1.385 . S
C2004 C2002 1.478 . S
C2004 C2006 1.381 . S
C2004 C2010 1.383 . S
C2005 C2001 1.495 . S
C2005 H2011 0.959 . S
C2005 H2012 0.961 . S
C2005 H2013 0.960 . S
C2006 C2004 1.381 . S
C2006 C2007 1.394 . S
C2006 H2014 0.930 . S
C2007 C2006 1.394 . S
C2007 C2008 1.383 . S
C2007 H2015 0.929 . S
C2008 C2007 1.383 . S
C2008 C2009 1.377 . S
C2009 H1993 0.930 . S
C2009 C2008 1.377 . S
C2009 C2010 1.379 . S
C2010 H1994 0.931 . S
C2010 C2004 1.383 . S
C2010 C2009 1.379 . S
H2011 C2005 0.959 . S
H2012 C2005 0.961 . S
H2013 C2005 0.960 . S
H2014 C2006 0.930 . S
H2015 C2007 0.929 . S
H2016 C2024 0.929 . S
H2017 C2026 0.930 . S
H2018 C2028 0.930 . S
H2019 C2031 0.929 . S
H2020 C2034 0.930 . S
H2021 C2036 0.960 . S
H2022 C2036 0.960 . S
H2023 C2036 0.960 . S
C2024 H2016 0.929 . S
C2024 C2025 1.377 . S
C2024 C2026 1.384 . S
C2025 C2024 1.377 . S
C2025 C2031 1.390 . S
C2026 H2017 0.930 . S
C2026 C2024 1.384 . S
C2026 C2027 1.372 . S
C2027 C2026 1.372 . S
C2027 C2028 1.400 . S
C2027 C2032 1.490 . S
C2028 H2018 0.930 . S
C2028 C2027 1.400 . S
C2028 C2031 1.386 . S
H2029 C2045 0.930 . S
H2030 C2046 0.931 . S
C2031 H2019 0.929 . S
C2031 C2025 1.390 . S
C2031 C2028 1.386 . S
C2032 C2027 1.490 . S
C2032 C2034 1.395 . S
C2032 C2035 1.403 . S
H2033 C2039 0.930 . S
C2034 H2020 0.930 . S
C2034 C2032 1.395 . S
C2034 C2037 1.403 . S
C2035 C2032 1.403 . S
C2035 C2036 1.524 . S
C2035 C2039 1.400 . S
C2036 H2021 0.960 . S
C2036 H2022 0.960 . S
C2036 H2023 0.960 . S
C2036 C2035 1.524 . S
C2037 C2034 1.403 . S
C2037 C2038 1.392 . S
C2037 C2041 1.495 . S
C2038 C2037 1.392 . S
C2038 C2039 1.385 . S
C2038 C2040 1.478 . S
C2039 H2033 0.930 . S
C2039 C2035 1.400 . S
C2039 C2038 1.385 . S
C2040 C2038 1.478 . S
C2040 C2042 1.381 . S
C2040 C2046 1.383 . S
C2041 C2037 1.495 . S
C2041 H2047 0.959 . S
C2041 H2048 0.961 . S
C2041 H2049 0.960 . S
C2042 C2040 1.381 . S
C2042 C2043 1.394 . S
C2042 H2050 0.930 . S
C2043 C2042 1.394 . S
C2043 C2044 1.383 . S
C2043 H2051 0.929 . S
C2044 C2043 1.383 . S
C2044 C2045 1.377 . S
C2045 H2029 0.930 . S
C2045 C2044 1.377 . S
C2045 C2046 1.379 . S
C2046 H2030 0.931 . S
C2046 C2040 1.383 . S
C2046 C2045 1.379 . S
H2047 C2041 0.959 . S
H2048 C2041 0.961 . S
H2049 C2041 0.960 . S
H2050 C2042 0.930 . S
H2051 C2043 0.929 . S
H2052 C2060 0.929 . S
H2053 C2062 0.930 . S
H2054 C2064 0.930 . S
H2055 C2067 0.929 . S
H2056 C2070 0.930 . S
H2057 C2072 0.960 . S
H2058 C2072 0.960 . S
H2059 C2072 0.960 . S
C2060 H2052 0.929 . S
C2060 C2061 1.377 . S
C2060 C2062 1.384 . S
C2061 C2060 1.377 . S
C2061 C2067 1.390 . S
C2062 H2053 0.930 . S
C2062 C2060 1.384 . S
C2062 C2063 1.372 . S
C2063 C2062 1.372 . S
C2063 C2064 1.400 . S
C2063 C2068 1.490 . S
C2064 H2054 0.930 . S
C2064 C2063 1.400 . S
C2064 C2067 1.386 . S
H2065 C2081 0.930 . S
H2066 C2082 0.931 . S
C2067 H2055 0.929 . S
C2067 C2061 1.390 . S
C2067 C2064 1.386 . S
C2068 C2063 1.490 . S
C2068 C2070 1.395 . S
C2068 C2071 1.403 . S
H2069 C2075 0.930 . S
C2070 H2056 0.930 . S
C2070 C2068 1.395 . S
C2070 C2073 1.403 . S
C2071 C2068 1.403 . S
C2071 C2072 1.524 . S
C2071 C2075 1.400 . S
C2072 H2057 0.960 . S
C2072 H2058 0.960 . S
C2072 H2059 0.960 . S
C2072 C2071 1.524 . S
C2073 C2070 1.403 . S
C2073 C2074 1.392 . S
C2073 C2077 1.495 . S
C2074 C2073 1.392 . S
C2074 C2075 1.385 . S
C2074 C2076 1.478 . S
C2075 H2069 0.930 . S
C2075 C2071 1.400 . S
C2075 C2074 1.385 . S
C2076 C2074 1.478 . S
C2076 C2078 1.381 . S
C2076 C2082 1.383 . S
C2077 C2073 1.495 . S
C2077 H2083 0.959 . S
C2077 H2084 0.961 . S
C2077 H2085 0.960 . S
C2078 C2076 1.381 . S
C2078 C2079 1.394 . S
C2078 H2086 0.930 . S
C2079 C2078 1.394 . S
C2079 C2080 1.383 . S
C2079 H2087 0.929 . S
C2080 C2079 1.383 . S
C2080 C2081 1.377 . S
C2081 H2065 0.930 . S
C2081 C2080 1.377 . S
C2081 C2082 1.379 . S
C2082 H2066 0.931 . S
C2082 C2076 1.383 . S
C2082 C2081 1.379 . S
H2083 C2077 0.959 . S
H2084 C2077 0.961 . S
H2085 C2077 0.960 . S
H2086 C2078 0.930 . S
H2087 C2079 0.929 . S
H2088 C2096 0.929 . S
H2089 C2098 0.930 . S
H2090 C2100 0.930 . S
H2091 C2103 0.929 . S
H2092 C2106 0.930 . S
H2093 C2108 0.960 . S
H2094 C2108 0.960 . S
H2095 C2108 0.960 . S
C2096 H2088 0.929 . S
C2096 C2097 1.377 . S
C2096 C2098 1.384 . S
C2097 C2096 1.377 . S
C2097 C2103 1.390 . S
C2098 H2089 0.930 . S
C2098 C2096 1.384 . S
C2098 C2099 1.372 . S
C2099 C2098 1.372 . S
C2099 C2100 1.400 . S
C2099 C2104 1.490 . S
C2100 H2090 0.930 . S
C2100 C2099 1.400 . S
C2100 C2103 1.386 . S
H2101 C2117 0.930 . S
H2102 C2118 0.931 . S
C2103 H2091 0.929 . S
C2103 C2097 1.390 . S
C2103 C2100 1.386 . S
C2104 C2099 1.490 . S
C2104 C2106 1.395 . S
C2104 C2107 1.403 . S
H2105 C2111 0.930 . S
C2106 H2092 0.930 . S
C2106 C2104 1.395 . S
C2106 C2109 1.403 . S
C2107 C2104 1.403 . S
C2107 C2108 1.524 . S
C2107 C2111 1.400 . S
C2108 H2093 0.960 . S
C2108 H2094 0.960 . S
C2108 H2095 0.960 . S
C2108 C2107 1.524 . S
C2109 C2106 1.403 . S
C2109 C2110 1.392 . S
C2109 C2113 1.495 . S
C2110 C2109 1.392 . S
C2110 C2111 1.385 . S
C2110 C2112 1.478 . S
C2111 H2105 0.930 . S
C2111 C2107 1.400 . S
C2111 C2110 1.385 . S
C2112 C2110 1.478 . S
C2112 C2114 1.381 . S
C2112 C2118 1.383 . S
C2113 C2109 1.495 . S
C2113 H2119 0.959 . S
C2113 H2120 0.961 . S
C2113 H2121 0.960 . S
C2114 C2112 1.381 . S
C2114 C2115 1.394 . S
C2114 H2122 0.930 . S
C2115 C2114 1.394 . S
C2115 C2116 1.383 . S
C2115 H2123 0.929 . S
C2116 C2115 1.383 . S
C2116 C2117 1.377 . S
C2117 H2101 0.930 . S
C2117 C2116 1.377 . S
C2117 C2118 1.379 . S
C2118 H2102 0.931 . S
C2118 C2112 1.383 . S
C2118 C2117 1.379 . S
H2119 C2113 0.959 . S
H2120 C2113 0.961 . S
H2121 C2113 0.960 . S
H2122 C2114 0.930 . S
H2123 C2115 0.929 . S
H2124 C2132 0.929 . S
H2125 C2134 0.930 . S
H2126 C2136 0.930 . S
H2127 C2139 0.929 . S
H2128 C2142 0.930 . S
H2129 C2144 0.960 . S
H2130 C2144 0.960 . S
H2131 C2144 0.960 . S
C2132 H2124 0.929 . S
C2132 C2133 1.377 . S
C2132 C2134 1.384 . S
C2133 C2132 1.377 . S
C2133 C2139 1.390 . S
C2134 H2125 0.930 . S
C2134 C2132 1.384 . S
C2134 C2135 1.372 . S
C2135 C2134 1.372 . S
C2135 C2136 1.400 . S
C2135 C2140 1.490 . S
C2136 H2126 0.930 . S
C2136 C2135 1.400 . S
C2136 C2139 1.386 . S
H2137 C2153 0.930 . S
H2138 C2154 0.931 . S
C2139 H2127 0.929 . S
C2139 C2133 1.390 . S
C2139 C2136 1.386 . S
C2140 C2135 1.490 . S
C2140 C2142 1.395 . S
C2140 C2143 1.403 . S
H2141 C2147 0.930 . S
C2142 H2128 0.930 . S
C2142 C2140 1.395 . S
C2142 C2145 1.403 . S
C2143 C2140 1.403 . S
C2143 C2144 1.524 . S
C2143 C2147 1.400 . S
C2144 H2129 0.960 . S
C2144 H2130 0.960 . S
C2144 H2131 0.960 . S
C2144 C2143 1.524 . S
C2145 C2142 1.403 . S
C2145 C2146 1.392 . S
C2145 C2149 1.495 . S
C2146 C2145 1.392 . S
C2146 C2147 1.385 . S
C2146 C2148 1.478 . S
C2147 H2141 0.930 . S
C2147 C2143 1.400 . S
C2147 C2146 1.385 . S
C2148 C2146 1.478 . S
C2148 C2150 1.381 . S
C2148 C2154 1.383 . S
C2149 C2145 1.495 . S
C2149 H2155 0.959 . S
C2149 H2156 0.961 . S
C2149 H2157 0.960 . S
C2150 C2148 1.381 . S
C2150 C2151 1.394 . S
C2150 H2158 0.930 . S
C2151 C2150 1.394 . S
C2151 C2152 1.383 . S
C2151 H2159 0.929 . S
C2152 C2151 1.383 . S
C2152 C2153 1.377 . S
C2153 H2137 0.930 . S
C2153 C2152 1.377 . S
C2153 C2154 1.379 . S
C2154 H2138 0.931 . S
C2154 C2148 1.383 . S
C2154 C2153 1.379 . S
H2155 C2149 0.959 . S
H2156 C2149 0.961 . S
H2157 C2149 0.960 . S
H2158 C2150 0.930 . S
H2159 C2151 0.929 . S
H2160 C2168 0.929 . S
H2161 C2170 0.930 . S
H2162 C2172 0.930 . S
H2163 C2175 0.929 . S
H2164 C2178 0.930 . S
H2165 C2180 0.960 . S
H2166 C2180 0.960 . S
H2167 C2180 0.960 . S
C2168 H2160 0.929 . S
C2168 C2169 1.377 . S
C2168 C2170 1.384 . S
C2169 C2168 1.377 . S
C2169 C2175 1.390 . S
C2170 H2161 0.930 . S
C2170 C2168 1.384 . S
C2170 C2171 1.372 . S
C2171 C2170 1.372 . S
C2171 C2172 1.400 . S
C2171 C2176 1.490 . S
C2172 H2162 0.930 . S
C2172 C2171 1.400 . S
C2172 C2175 1.386 . S
H2173 C2189 0.930 . S
H2174 C2190 0.931 . S
C2175 H2163 0.929 . S
C2175 C2169 1.390 . S
C2175 C2172 1.386 . S
C2176 C2171 1.490 . S
C2176 C2178 1.395 . S
C2176 C2179 1.403 . S
H2177 C2183 0.930 . S
C2178 H2164 0.930 . S
C2178 C2176 1.395 . S
C2178 C2181 1.403 . S
C2179 C2176 1.403 . S
C2179 C2180 1.524 . S
C2179 C2183 1.400 . S
C2180 H2165 0.960 . S
C2180 H2166 0.960 . S
C2180 H2167 0.960 . S
C2180 C2179 1.524 . S
C2181 C2178 1.403 . S
C2181 C2182 1.392 . S
C2181 C2185 1.495 . S
C2182 C2181 1.392 . S
C2182 C2183 1.385 . S
C2182 C2184 1.478 . S
C2183 H2177 0.930 . S
C2183 C2179 1.400 . S
C2183 C2182 1.385 . S
C2184 C2182 1.478 . S
C2184 C2186 1.381 . S
C2184 C2190 1.383 . S
C2185 C2181 1.495 . S
C2185 H2191 0.959 . S
C2185 H2192 0.961 . S
C2185 H2193 0.960 . S
C2186 C2184 1.381 . S
C2186 C2187 1.394 . S
C2186 H2194 0.930 . S
C2187 C2186 1.394 . S
C2187 C2188 1.383 . S
C2187 H2195 0.929 . S
C2188 C2187 1.383 . S
C2188 C2189 1.377 . S
C2189 H2173 0.930 . S
C2189 C2188 1.377 . S
C2189 C2190 1.379 . S
C2190 H2174 0.931 . S
C2190 C2184 1.383 . S
C2190 C2189 1.379 . S
H2191 C2185 0.959 . S
H2192 C2185 0.961 . S
H2193 C2185 0.960 . S
H2194 C2186 0.930 . S
H2195 C2187 0.929 . S
H2196 C2204 0.929 . S
H2197 C2206 0.930 . S
H2198 C2208 0.930 . S
H2199 C2211 0.929 . S
H2200 C2214 0.930 . S
H2201 C2216 0.960 . S
H2202 C2216 0.960 . S
H2203 C2216 0.960 . S
C2204 H2196 0.929 . S
C2204 C2205 1.377 . S
C2204 C2206 1.384 . S
C2205 C2204 1.377 . S
C2205 C2211 1.390 . S
C2206 H2197 0.930 . S
C2206 C2204 1.384 . S
C2206 C2207 1.372 . S
C2207 C2206 1.372 . S
C2207 C2208 1.400 . S
C2207 C2212 1.490 . S
C2208 H2198 0.930 . S
C2208 C2207 1.400 . S
C2208 C2211 1.386 . S
H2209 C2225 0.930 . S
H2210 C2226 0.931 . S
C2211 H2199 0.929 . S
C2211 C2205 1.390 . S
C2211 C2208 1.386 . S
C2212 C2207 1.490 . S
C2212 C2214 1.395 . S
C2212 C2215 1.403 . S
H2213 C2219 0.930 . S
C2214 H2200 0.930 . S
C2214 C2212 1.395 . S
C2214 C2217 1.403 . S
C2215 C2212 1.403 . S
C2215 C2216 1.524 . S
C2215 C2219 1.400 . S
C2216 H2201 0.960 . S
C2216 H2202 0.960 . S
C2216 H2203 0.960 . S
C2216 C2215 1.524 . S
C2217 C2214 1.403 . S
C2217 C2218 1.392 . S
C2217 C2221 1.495 . S
C2218 C2217 1.392 . S
C2218 C2219 1.385 . S
C2218 C2220 1.478 . S
C2219 H2213 0.930 . S
C2219 C2215 1.400 . S
C2219 C2218 1.385 . S
C2220 C2218 1.478 . S
C2220 C2222 1.381 . S
C2220 C2226 1.383 . S
C2221 C2217 1.495 . S
C2221 H2227 0.959 . S
C2221 H2228 0.961 . S
C2221 H2229 0.960 . S
C2222 C2220 1.381 . S
C2222 C2223 1.394 . S
C2222 H2230 0.930 . S
C2223 C2222 1.394 . S
C2223 C2224 1.383 . S
C2223 H2231 0.929 . S
C2224 C2223 1.383 . S
C2224 C2225 1.377 . S
C2225 H2209 0.930 . S
C2225 C2224 1.377 . S
C2225 C2226 1.379 . S
C2226 H2210 0.931 . S
C2226 C2220 1.383 . S
C2226 C2225 1.379 . S
H2227 C2221 0.959 . S
H2228 C2221 0.961 . S
H2229 C2221 0.960 . S
H2230 C2222 0.930 . S
H2231 C2223 0.929 . S
C621 C5 1.320 . S
C640 C271 1.335 . S
C657 C39 1.319 . S
C676 C305 1.333 . S
C693 C73 1.317 . S
C712 C237 1.331 . S
C729 C577 1.334 . S
C748 C107 1.318 . S
C765 C141 1.318 . S
C784 C611 1.325 . S
C801 C175 1.313 . S
C820 C543 1.333 . S
C837 C209 1.319 . S
C856 C475 1.335 . S
C873 C509 1.333 . S
C892 C243 1.306 . S
C909 C441 1.334 . S
C928 C277 1.314 . S
C945 C311 1.318 . S
C964 C169 1.325 . S
C981 C345 1.316 . S
C1000 C203 1.327 . S
C1017 C379 1.321 . S
C1036 C135 1.326 . S
C1053 C413 1.313 . S
C1072 C67 1.325 . S
C1089 C447 1.321 . S
C1108 C101 1.336 . S
C1125 C33 1.334 . S
C1144 C481 1.320 . S
C1161 C373 1.333 . S
C1180 C515 1.299 . S
C1197 C549 1.316 . S
C1216 C407 1.336 . S
C1233 C583 1.318 . S
C1252 C339 1.325 . S
C1269 C530 1.619 . S
C1288 C20 1.607 . S
C1305 C564 1.617 . S
C1324 C54 1.603 . S
C1341 C88 1.618 . S
C1360 C598 1.603 . S
C1377 C122 1.616 . S
C1396 C224 1.620 . S
C1413 C156 1.617 . S
C1432 C258 1.619 . S
C1449 C292 1.616 . S
C1468 C190 1.613 . S
C1485 C326 1.619 . S
C1504 C428 1.609 . S
C1521 C462 1.616 . S
C1540 C360 1.608 . S
C1557 C496 1.619 . S
C1576 C394 1.608 . S
C1593 C2 1.461 . S
C1612 C145 1.445 . S
C1629 C179 1.415 . S
C1648 C36 1.470 . S
C1665 C70 1.464 . S
C1684 C111 1.415 . S
C1701 C43 1.413 . S
C1720 C104 1.468 . S
C1737 C138 1.458 . S
C1756 C77 1.445 . S
C1773 C9 1.415 . S
C1792 C172 1.462 . S
C1809 C206 1.464 . S
C1828 C349 1.402 . S
C1845 C383 1.421 . S
C1864 C240 1.474 . S
C1881 C315 1.416 . S
C1900 C274 1.472 . S
C1917 C308 1.464 . S
C1936 C247 1.395 . S
C1953 C281 1.414 . S
C1972 C342 1.469 . S
C1989 C376 1.463 . S
C2008 C213 1.389 . S
C2025 C553 1.424 . S
C2044 C410 1.468 . S
C2061 C587 1.420 . S
C2080 C444 1.442 . S
C2097 C519 1.414 . S
C2116 C478 1.449 . S
C2133 C451 1.415 . S
C2152 C512 1.473 . S
C2169 C485 1.415 . S
C2188 C546 1.461 . S
C2205 C580 1.459 . S
C2224 C417 1.443 . S
