# Generated by pormake.
# Topology uob, (4)-cn, num edge types: 1
# Building blocks:
#     Node 0, Type 0, BuildingBlock: KUFVIS_clean_sbu_0, # of connection points: 4
#     Node 1, Type 0, BuildingBlock: KUFVIS_clean_sbu_0, # of connection points: 4
#     Node 2, Type 0, BuildingBlock: KUFVIS_clean_sbu_0, # of connection points: 4
#     Node 3, Type 0, BuildingBlock: KUFVIS_clean_sbu_0, # of connection points: 4
#     Node 4, Type 0, BuildingBlock: KUFVIS_clean_sbu_0, # of connection points: 4
#     Node 5, Type 0, BuildingBlock: KUFVIS_clean_sbu_0, # of connection points: 4
#     Node 6, Type 0, BuildingBlock: KUFVIS_clean_sbu_0, # of connection points: 4
#     Node 7, Type 0, BuildingBlock: KUFVIS_clean_sbu_0, # of connection points: 4
#     Node 8, Type 0, BuildingBlock: KUFVIS_clean_sbu_0, # of connection points: 4
#     Node 9, Type 0, BuildingBlock: KUFVIS_clean_sbu_0, # of connection points: 4
#     Node 10, Type 0, BuildingBlock: KUFVIS_clean_sbu_0, # of connection points: 4
#     Node 11, Type 0, BuildingBlock: KUFVIS_clean_sbu_0, # of connection points: 4
#     Node 12, Type 0, BuildingBlock: KUFVIS_clean_sbu_0, # of connection points: 4
#     Node 13, Type 0, BuildingBlock: KUFVIS_clean_sbu_0, # of connection points: 4
#     Node 14, Type 0, BuildingBlock: KUFVIS_clean_sbu_0, # of connection points: 4
#     Node 15, Type 0, BuildingBlock: KUFVIS_clean_sbu_0, # of connection points: 4
#     Edge 16, Type (0, 0), None
#     Edge 17, Type (0, 0), None
#     Edge 18, Type (0, 0), None
#     Edge 19, Type (0, 0), None
#     Edge 20, Type (0, 0), None
#     Edge 21, Type (0, 0), None
#     Edge 22, Type (0, 0), None
#     Edge 23, Type (0, 0), None
#     Edge 24, Type (0, 0), None
#     Edge 25, Type (0, 0), None
#     Edge 26, Type (0, 0), None
#     Edge 27, Type (0, 0), None
#     Edge 28, Type (0, 0), None
#     Edge 29, Type (0, 0), None
#     Edge 30, Type (0, 0), None
#     Edge 31, Type (0, 0), None
#     Edge 32, Type (0, 0), None
#     Edge 33, Type (0, 0), None
#     Edge 34, Type (0, 0), None
#     Edge 35, Type (0, 0), None
#     Edge 36, Type (0, 0), None
#     Edge 37, Type (0, 0), None
#     Edge 38, Type (0, 0), None
#     Edge 39, Type (0, 0), None
#     Edge 40, Type (0, 0), None
#     Edge 41, Type (0, 0), None
#     Edge 42, Type (0, 0), None
#     Edge 43, Type (0, 0), None
#     Edge 44, Type (0, 0), None
#     Edge 45, Type (0, 0), None
#     Edge 46, Type (0, 0), None
#     Edge 47, Type (0, 0), None
# Relax obj value: 0.165
# Max RMSD: 0.223
# Mean RMSD: 0.223
data_MOF--net-uob--node1-KUFVIS_clean_sbu_0--edge1-none
_symmetry_space_group_name_H-M    P1
_symmetry_Int_Tables_number       1
_symmetry_cell_setting            triclinic
loop_
_symmetry_equiv_pos_as_xyz
'x, y, z'
_cell_length_a     25.125231
_cell_length_b     25.816072
_cell_length_c     11.944657
_cell_angle_alpha  89.478333
_cell_angle_beta   88.479923
_cell_angle_gamma 89.115639
loop_
_atom_site_label
_atom_site_type_symbol
_atom_site_fract_x
_atom_site_fract_y
_atom_site_fract_z
_atom_type_partial_charge
Mn0 Mn 0.15424 0.03823 0.28235 0.0
Mn1 Mn 0.05232 0.13161 0.29615 0.0
C2 C 0.11873 0.0639 0.45672 0.0
C3 C 0.23336 0.05038 0.4124 0.0
C4 C 0.02787 0.02059 0.26142 0.0
O5 O 0.15058 0.06387 0.12336 0.0
O6 O 0.09096 0.12948 0.13534 0.0
C7 C 1.00366 0.21677 0.16772 0.0
N8 N 0.99681 0.17839 0.2439 0.0
C9 C 0.9137 0.22046 0.30232 0.0
C10 C 0.91333 0.24843 0.20333 0.0
C11 C 0.95967 0.24869 0.13832 0.0
C12 C 0.9574 0.18667 0.32116 0.0
H13 H 0.04324 0.22358 0.13541 0.0
C14 C 0.12425 0.09968 0.0768 0.0
O15 O 0.19998 0.01316 0.42265 0.0
O16 O 0.22465 0.07711 0.32332 0.0
N17 N 0.00651 0.1319 0.43321 0.0
C18 C 1.00012 0.09456 0.51398 0.0
C19 C 0.96795 0.10516 0.60969 0.0
C20 C 0.93027 0.14446 0.60625 0.0
C21 C 0.92587 0.17336 0.50934 0.0
C22 C 0.96466 0.16543 0.42346 0.0
H23 H 0.02113 0.05795 0.50854 0.0
O24 O 0.14263 0.02109 0.44221 0.0
O25 O 0.11291 0.0911 0.36557 0.0
O26 O 0.07772 0.00451 0.26609 0.0
O27 O 0.01332 0.06832 0.25947 0.0
C28 C 0.88078 0.20468 0.49032 0.0
C29 C 0.87464 0.22838 0.38627 0.0
H30 H 0.88055 0.27439 0.18329 0.0
H31 H 0.96037 0.27561 0.07029 0.0
H32 H 0.96325 0.07777 0.67667 0.0
H33 H 0.89877 0.14457 0.66821 0.0
H34 H 0.84945 0.20903 0.55334 0.0
H35 H 0.8404 0.25345 0.37243 0.0
Mn36 Mn 0.99027 0.63263 0.48202 0.0
Mn37 Mn 0.89001 0.54481 0.47211 0.0
C38 C 0.9523 0.59802 0.65106 0.0
C39 C 0.97834 0.71468 0.60814 0.0
C40 C 0.00655 0.51025 0.45064 0.0
O41 O 0.96969 0.62544 0.31549 0.0
O42 O 0.90128 0.57338 0.31984 0.0
C43 C 0.81764 0.63523 0.48081 0.0
N44 N 0.82624 0.58332 0.48883 0.0
C45 C 0.73708 0.56766 0.55171 0.0
C46 C 0.72542 0.62067 0.53632 0.0
C47 C 0.76671 0.65511 0.50821 0.0
C48 C 0.7899 0.55223 0.53687 0.0
H49 H 0.84941 0.66061 0.45367 0.0
C50 C 0.93328 0.60174 0.2654 0.0
O51 O 0.01044 0.67623 0.62886 0.0
O52 O 0.95445 0.70666 0.516 0.0
N53 N 0.86354 0.50708 0.59868 0.0
C54 C 0.88723 0.48032 0.68186 0.0
C55 C 0.85453 0.457 0.76621 0.0
C56 C 0.79963 0.45324 0.75154 0.0
C57 C 0.7764 0.48148 0.66531 0.0
C58 C 0.80987 0.51061 0.59503 0.0
H59 H 0.92996 0.48223 0.6888 0.0
O60 O 0.99719 0.62058 0.64746 0.0
O61 O 0.92826 0.59858 0.55652 0.0
O62 O 0.02718 0.55611 0.46371 0.0
O63 O 0.95611 0.50265 0.45586 0.0
C64 C 0.72109 0.48721 0.65416 0.0
C65 C 0.70119 0.53052 0.59492 0.0
H66 H 0.68633 0.63658 0.55214 0.0
H67 H 0.75858 0.69632 0.50205 0.0
H68 H 0.87136 0.43896 0.83938 0.0
H69 H 0.77553 0.43181 0.81152 0.0
H70 H 0.69376 0.46229 0.70014 0.0
H71 H 0.65886 0.53562 0.59004 0.0
Mn72 Mn 0.3795 0.41825 0.90992 0.0
Mn73 Mn 0.50838 0.36398 0.90918 0.0
C74 C 0.41964 0.41126 0.07993 0.0
C75 C 0.28047 0.40684 0.91168 0.0
C76 C 0.49051 0.4774 0.8664 0.0
O77 O 0.39 0.39247 0.74991 0.0
O78 O 0.47431 0.36598 0.75646 0.0
C79 C 0.47928 0.24999 0.88451 0.0
N80 N 0.50965 0.28853 0.92393 0.0
C81 C 0.58391 0.22791 0.94664 0.0
C82 C 0.55587 0.18979 0.89467 0.0
C83 C 0.50335 0.20002 0.86705 0.0
C84 C 0.55834 0.27591 0.96431 0.0
H85 H 0.43927 0.25858 0.85777 0.0
C86 C 0.43254 0.37625 0.70114 0.0
O87 O 0.30409 0.44902 0.87946 0.0
O88 O 0.31384 0.37093 0.9413 0.0
N89 N 0.55508 0.35784 0.03408 0.0
C90 C 0.57614 0.39551 0.09402 0.0
C91 C 0.61926 0.38559 0.16462 0.0
C92 C 0.64832 0.33943 0.15237 0.0
C93 C 0.63031 0.30253 0.07834 0.0
C94 C 0.58136 0.3122 0.02699 0.0
H95 H 0.5576 0.43224 0.0869 0.0
O96 O 0.37743 0.43877 0.06474 0.0
O97 O 0.43729 0.38078 -0.00431 0.0
O98 O 0.43835 0.47615 0.86824 0.0
O99 O 0.5197 0.43855 0.89173 0.0
C100 C 0.65906 0.25695 0.052 0.0
C101 C 0.63615 0.21984 -0.01646 0.0
H102 H 0.57353 0.1519 0.87888 0.0
H103 H 0.48372 0.16868 0.8284 0.0
H104 H 0.63276 0.41493 0.22082 0.0
H105 H 0.68446 0.33313 0.1984 0.0
H106 H 0.69792 0.24939 0.08635 0.0
H107 H 0.65734 0.18371 0.96708 0.0
Mn108 Mn 0.53776 0.8917 0.08543 0.0
Mn109 Mn 0.61457 0.00033 0.05659 0.0
C110 C 0.57178 0.92581 0.24177 0.0
C111 C 0.53137 0.79957 0.13168 0.0
C112 C 0.49543 0.0103 0.06385 0.0
O113 O 0.55187 0.89542 0.91408 0.0
O114 O 0.60339 0.96531 0.90803 0.0
C115 C 0.71422 0.93697 0.03468 0.0
N116 N 0.6877 0.98183 0.05693 0.0
C117 C 0.76848 0.0266 0.09113 0.0
C118 C 0.79666 0.9851 0.04439 0.0
C119 C 0.77015 0.93795 0.02793 0.0
C120 C 0.71347 0.02233 0.09944 0.0
H121 H 0.69276 0.90208 0.01725 0.0
C122 C 0.58028 0.92816 0.85862 0.0
O123 O 0.49044 0.82703 0.10115 0.0
O124 O 0.57617 0.8221 0.11099 0.0
N125 N 0.63217 0.04191 0.18179 0.0
C126 C 0.60262 0.06141 0.2685 0.0
C127 C 0.62726 0.09261 0.34787 0.0
C128 C 0.67895 0.11047 0.32609 0.0
C129 C 0.70847 0.09024 0.23558 0.0
C130 C 0.68399 0.05379 0.16904 0.0
H131 H 0.56195 0.04906 0.28169 0.0
O132 O 0.53707 0.89143 0.24454 0.0
O133 O 0.5935 0.937 0.14336 0.0
O134 O 0.48664 0.96051 0.07104 0.0
O135 O 0.54206 0.02821 0.05868 0.0
C136 C 0.76254 0.10111 0.21425 0.0
C137 C 0.79294 0.06902 0.14126 0.0
H138 H 0.83909 0.98833 0.03185 0.0
H139 H 0.79222 0.90315 0.00564 0.0
H140 H 0.60543 0.10548 0.42194 0.0
H141 H 0.69617 0.13796 0.38171 0.0
H142 H 0.7816 0.13191 0.25806 0.0
H143 H 0.83555 0.07438 0.13271 0.0
Mn144 Mn 0.12017 0.39374 0.90706 0.0
Mn145 Mn 0.99581 0.33121 0.90953 0.0
C146 C 0.08262 0.377 0.73799 0.0
C147 C 0.21933 0.4003 0.91269 0.0
C148 C 0.00525 0.44585 0.94005 0.0
O149 O 0.10929 0.36786 0.06895 0.0
O150 O 0.03011 0.32987 0.06204 0.0
C151 C 0.03181 0.21909 0.93182 0.0
N152 N 0.99998 0.25671 0.88883 0.0
C153 C 0.92786 0.19588 0.87252 0.0
C154 C 0.95796 0.15799 0.9245 0.0
C155 C 0.01011 0.16894 0.95078 0.0
C156 C 0.95177 0.24363 0.84959 0.0
H157 H 0.07106 0.2285 0.95986 0.0
C158 C 0.06994 0.34499 0.117 0.0
O159 O 0.18646 0.43755 0.93883 0.0
O160 O 0.19517 0.3579 0.88734 0.0
N161 N 0.94862 0.32728 0.78551 0.0
C162 C 0.92379 0.36607 0.73051 0.0
C163 C 0.8798 0.35584 0.66341 0.0
C164 C 0.85316 0.3092 0.67794 0.0
C165 C 0.875 0.27153 0.74795 0.0
C166 C 0.92536 0.28073 0.79152 0.0
H167 H 0.94182 0.40308 0.73254 0.0
O168 O 0.12063 0.40944 0.74815 0.0
O169 O 0.06753 0.34921 0.82765 0.0
O170 O 0.05678 0.44632 0.93547 0.0
O171 O 0.97837 0.40514 0.9293 0.0
C172 C 0.84844 0.22586 0.77875 0.0
C173 C 0.87446 0.18852 0.84469 0.0
H174 H 0.9416 0.12033 0.94469 0.0
H175 H 0.03037 0.13912 -0.00474 0.0
H176 H 0.86418 0.3847 0.60651 0.0
H177 H 0.81615 0.30291 0.63593 0.0
H178 H 0.80854 0.21875 0.75089 0.0
H179 H 0.85448 0.15275 0.8663 0.0
Mn180 Mn 0.52837 0.65833 0.28525 0.0
Mn181 Mn 0.61839 0.5629 0.30159 0.0
C182 C 0.55873 0.62092 0.12096 0.0
C183 C 0.52872 0.74966 0.20201 0.0
C184 C 0.50306 0.5425 0.34777 0.0
O185 O 0.55505 0.66567 0.44775 0.0
O186 O 0.60506 0.59392 0.45133 0.0
C187 C 0.69958 0.64411 0.29073 0.0
N188 N 0.68563 0.59367 0.28534 0.0
C189 C 0.77291 0.5663 0.22555 0.0
C190 C 0.78989 0.61763 0.23718 0.0
C191 C 0.75235 0.65722 0.26278 0.0
C192 C 0.71883 0.55793 0.23978 0.0
H193 H 0.67058 0.67348 0.31561 0.0
C194 C 0.58191 0.63128 0.50206 0.0
O195 O 0.48706 0.7284 0.24456 0.0
O196 O 0.56988 0.72316 0.22502 0.0
N197 N 0.64182 0.52326 0.17587 0.0
C198 C 0.61651 0.50246 0.08918 0.0
C199 C 0.64639 0.47389 0.00793 0.0
C200 C 0.70009 0.46191 0.02587 0.0
C201 C 0.72556 0.48629 0.11286 0.0
C202 C 0.69514 0.51935 0.1818 0.0
H203 H 0.57469 0.51128 0.07889 0.0
O204 O 0.51303 0.64234 0.12836 0.0
O205 O 0.58547 0.61927 0.21277 0.0
O206 O 0.48638 0.59044 0.34007 0.0
O207 O 0.55031 0.52787 0.31893 0.0
C208 C 0.7808 0.48426 0.12662 0.0
C209 C 0.80467 0.52432 0.18578 0.0
H210 H 0.83035 0.62852 0.22008 0.0
H211 H 0.76469 0.69714 0.26635 0.0
H212 H 0.6274 0.45795 0.93604 0.0
H213 H 0.72195 0.43707 0.9681 0.0
H214 H 0.80556 0.45584 0.08286 0.0
H215 H 0.84698 0.52273 0.19406 0.0
Mn216 Mn 0.35106 0.09766 0.54528 0.0
Mn217 Mn 0.45707 0.18253 0.54929 0.0
C218 C 0.37333 0.13719 0.38302 0.0
C219 C 0.26482 0.06886 0.51018 0.0
C220 C 0.47775 0.07011 0.56427 0.0
O221 O 0.35291 0.11706 0.7094 0.0
O222 O 0.41528 0.17936 0.70843 0.0
C223 C 0.51085 0.26575 0.66449 0.0
N224 N 0.51653 0.22296 0.60106 0.0
C225 C 0.60346 0.25507 0.5418 0.0
C226 C 0.60417 0.28625 0.63513 0.0
C227 C 0.55628 0.29464 0.69243 0.0
C228 C 0.55752 0.2253 0.52548 0.0
H229 H 0.47115 0.27758 0.68882 0.0
C230 C 0.37927 0.1502 0.7619 0.0
O231 O 0.30004 0.03836 0.55379 0.0
O232 O 0.27464 0.11776 0.52022 0.0
N233 N 0.50305 0.17838 0.41388 0.0
C234 C 0.50703 0.13956 0.3371 0.0
C235 C 0.5376 0.1484 0.2383 0.0
C236 C 0.57753 0.18469 0.23804 0.0
C237 C 0.58645 0.2107 0.33598 0.0
C238 C 0.54814 0.20595 0.42353 0.0
H239 H 0.48143 0.10645 0.34324 0.0
O240 O 0.34308 0.09998 0.38768 0.0
O241 O 0.39169 0.15324 0.4788 0.0
O242 O 0.42745 0.06118 0.55324 0.0
O243 O 0.49439 0.11557 0.58229 0.0
C244 C 0.63419 0.2366 0.35323 0.0
C245 C 0.64293 0.2587 0.45708 0.0
H246 H 0.6382 0.30991 0.65256 0.0
H247 H 0.55542 0.32545 0.75212 0.0
H248 H 0.53815 0.12248 0.16919 0.0
H249 H 0.6066 0.18439 0.171 0.0
H250 H 0.66474 0.23899 0.28796 0.0
H251 H 0.67867 0.28076 0.46888 0.0
Mn252 Mn 0.95688 0.8545 0.73183 0.0
Mn253 Mn 0.88429 0.96879 0.75278 0.0
C254 C 0.92277 0.89039 0.57286 0.0
C255 C 0.96786 0.7617 0.68577 0.0
C256 C 1.00245 0.97118 0.7592 0.0
O257 O 0.9386 0.85796 0.90357 0.0
O258 O 0.88901 0.93198 0.90335 0.0
C259 C 0.77644 0.92314 0.78215 0.0
N260 N 0.81018 0.96012 0.74496 0.0
C261 C 0.73931 0.02128 0.71342 0.0
C262 C 0.70542 0.98813 0.77056 0.0
C263 C 0.72205 0.93636 0.79172 0.0
C264 C 0.79165 0.0048 0.69966 0.0
H265 H 0.79133 0.88569 0.80933 0.0
C266 C 0.91033 0.89314 0.95525 0.0
O267 O 0.00568 0.78918 0.72526 0.0
O268 O 0.92171 0.78445 0.69689 0.0
N269 N 0.87529 0.01096 0.6218 0.0
C270 C 0.90806 0.02415 0.53434 0.0
C271 C 0.88922 0.05909 0.45215 0.0
C272 C 0.84018 0.08483 0.46948 0.0
C273 C 0.80769 0.07083 0.5609 0.0
C274 C 0.82574 0.03075 0.62987 0.0
H275 H 0.94671 0.00548 0.52495 0.0
O276 O 0.95837 0.85595 0.57258 0.0
O277 O 0.90204 0.9029 0.67118 0.0
O278 O 0.00931 0.92095 0.74989 0.0
O279 O 0.95687 -0.00843 0.76184 0.0
C280 C 0.75677 0.09236 0.5831 0.0
C281 C 0.72248 0.06795 0.66192 0.0
H282 H 0.66565 0.00191 0.78809 0.0
H283 H 0.69399 0.90792 0.82225 0.0
H284 H 0.91381 0.06914 0.37998 0.0
H285 H 0.82772 0.11453 0.41144 0.0
H286 H 0.74304 0.12605 0.53742 0.0
H287 H 0.68207 0.08247 0.67408 0.0
Mn288 Mn 0.62834 0.59076 0.85152 0.0
Mn289 Mn 0.5006 0.64042 0.8313 0.0
C290 C 0.58499 0.61571 0.01234 0.0
C291 C 0.72534 0.59298 0.86537 0.0
C292 C 0.51987 0.52696 0.84144 0.0
O293 O 0.61841 0.60407 0.68098 0.0
O294 O 0.53899 0.64445 0.68217 0.0
C295 C 0.53984 0.74705 0.82063 0.0
N296 N 0.50232 0.71262 0.85098 0.0
C297 C 0.44149 0.77929 0.91261 0.0
C298 C 0.47492 0.81581 0.86077 0.0
C299 C 0.52586 0.7996 0.82104 0.0
C300 C 0.45816 0.72766 0.90845 0.0
H301 H 0.57875 0.73396 0.79118 0.0
C302 C 0.58099 0.62835 0.6298 0.0
O303 O 0.69937 0.55211 0.84008 0.0
O304 O 0.69645 0.6352 0.86415 0.0
N305 N 0.45246 0.64117 0.95746 0.0
C306 C 0.42771 0.6005 0.00841 0.0
C307 C 0.38209 0.60961 0.07523 0.0
C308 C 0.36098 0.66002 0.08745 0.0
C309 C 0.386 0.70116 0.03125 0.0
C310 C 0.43188 0.68971 0.96686 0.0
H311 H 0.4423 0.56137 -0.00247 0.0
O312 O 0.62994 0.59251 0.0121 0.0
O313 O 0.56873 0.63289 0.91487 0.0
O314 O 0.5711 0.52975 0.85293 0.0
O315 O 0.49134 0.5659 0.81588 0.0
C316 C 0.36653 0.75276 0.03313 0.0
C317 C 0.3941 0.79188 0.97281 0.0
H318 H 0.46346 0.8564 0.8585 0.0
H319 H 0.55422 0.82657 0.78736 0.0
H320 H 0.36257 0.57726 0.11306 0.0
H321 H 0.32509 0.66644 0.13796 0.0
H322 H 0.33064 0.76277 0.08087 0.0
H323 H 0.3796 0.83159 -0.02375 0.0
Mn324 Mn 0.42543 0.17498 0.10836 0.0
Mn325 Mn 0.33623 0.07393 0.10589 0.0
C326 C 0.38818 0.15174 0.27296 0.0
C327 C 0.44752 0.26151 0.14795 0.0
C328 C 0.45153 0.05175 0.06934 0.0
O329 O 0.40672 0.17375 0.94497 0.0
O330 O 0.34006 0.1155 0.94847 0.0
C331 C 0.24693 0.02279 -0.00344 0.0
N332 N 0.29177 0.01707 0.05575 0.0
C333 C 0.2587 0.9324 0.11395 0.0
C334 C 0.22579 0.93184 0.02387 0.0
C335 C 0.21662 0.97846 0.97015 0.0
C336 C 0.28963 0.97702 0.1298 0.0
H337 H 0.23567 0.06131 0.97082 0.0
C338 C 0.37285 0.14777 0.89339 0.0
O339 O 0.48256 0.2286 0.10849 0.0
O340 O 0.39846 0.24828 0.13638 0.0
N341 N 0.34108 0.02818 0.23802 0.0
C342 C 0.38237 0.02264 0.30927 0.0
C343 C 0.37496 -0.00825 0.4065 0.0
C344 C 0.33635 0.95425 0.40998 0.0
C345 C 0.30698 0.94753 0.31563 0.0
C346 C 0.31094 0.98541 0.23002 0.0
H347 H 0.41709 0.04652 0.29993 0.0
O348 O 0.42723 0.18025 0.26688 0.0
O349 O 0.36984 0.1351 0.17757 0.0
O350 O 0.46396 0.09998 0.08693 0.0
O351 O 0.40338 0.0376 0.06126 0.0
C352 C 0.28051 0.90118 0.29738 0.0
C353 C 0.25612 0.89345 0.19594 0.0
H354 H 0.2014 0.8987 0.00658 0.0
H355 H 0.18477 0.97832 0.91265 0.0
H356 H 0.40352 0.98875 0.46991 0.0
H357 H 0.33631 0.92603 0.47666 0.0
H358 H 0.2822 0.86982 0.35743 0.0
H359 H 0.23405 0.85833 0.18332 0.0
Mn360 Mn 0.86683 0.9372 0.30672 0.0
Mn361 Mn 0.98381 0.86689 0.282 0.0
C362 C 0.90454 0.90673 0.46524 0.0
C363 C 0.77263 0.94553 0.36491 0.0
C364 C 0.98573 0.98008 0.26968 0.0
O365 O 0.86995 0.91655 0.13768 0.0
O366 O 0.95038 0.87713 0.13178 0.0
C367 C 0.93999 0.77097 0.20887 0.0
N368 N 0.9705 0.79634 0.28066 0.0
C369 C 0.03194 0.72526 0.29693 0.0
C370 C 0.00798 0.70361 0.20622 0.0
C371 C 0.957 0.72216 0.17513 0.0
C372 C 0.01233 0.77307 0.33001 0.0
H373 H 0.90538 0.78932 0.1729 0.0
C374 C 0.90876 0.89417 0.0828 0.0
O375 O 0.799 0.98376 0.32006 0.0
O376 O 0.79639 0.90116 0.35046 0.0
N377 N 0.02536 0.85152 0.41075 0.0
C378 C 0.04556 0.88147 0.49178 0.0
C379 C 0.07273 0.85621 0.58007 0.0
C380 C 0.09312 0.80593 0.56453 0.0
C381 C 0.07711 0.77799 0.47269 0.0
C382 C 0.03863 0.80105 0.40545 0.0
H383 H 0.03363 0.92181 0.49723 0.0
O384 O 0.86986 0.94242 0.46524 0.0
O385 O 0.91613 0.88436 0.36861 0.0
O386 O 0.93421 0.98825 0.27433 0.0
O387 O 0.00648 0.93604 0.28083 0.0
C388 C 0.09584 0.72777 0.44643 0.0
C389 C 0.07488 0.70221 0.35395 0.0
H390 H 0.02747 0.67035 0.16937 0.0
H391 H 0.93166 0.70147 0.12079 0.0
H392 H 0.08267 0.87628 0.65524 0.0
H393 H 0.11993 0.78922 0.62436 0.0
H394 H 0.12653 0.70906 0.49505 0.0
H395 H 0.09028 0.6643 0.33052 0.0
Mn396 Mn 0.01772 0.33962 0.47039 0.0
Mn397 Mn 0.13448 0.39314 0.43041 0.0
C398 C 0.0594 0.37443 0.62806 0.0
C399 C 0.05341 0.25651 0.57693 0.0
C400 C 0.0393 0.46034 0.43404 0.0
O401 O 0.0366 0.31681 0.30545 0.0
O402 O 0.099 0.37622 0.28901 0.0
C403 C 0.16236 0.28282 0.37757 0.0
N404 N 0.17238 0.32772 0.43304 0.0
C405 C 0.22862 0.28127 0.56072 0.0
C406 C 0.21597 0.23482 0.50978 0.0
C407 C 0.18298 0.23544 0.41717 0.0
C408 C 0.20318 0.32658 0.52396 0.0
H409 H 0.13732 0.28213 0.30647 0.0
C410 C 0.06771 0.34484 0.24407 0.0
O411 O 0.00675 0.26466 0.54619 0.0
O412 O 0.08212 0.29034 0.53163 0.0
N413 N 0.18058 0.4135 0.54331 0.0
C414 C 0.1988 0.4626 0.55144 0.0
C415 C 0.24578 0.47162 0.60753 0.0
C416 C 0.27455 0.42959 0.65113 0.0
C417 C 0.25598 0.37902 0.6398 0.0
C418 C 0.21096 0.37286 0.57598 0.0
H419 H 0.17994 0.49394 0.5061 0.0
O420 O 0.01027 0.36752 0.62268 0.0
O421 O 0.08544 0.35841 0.53918 0.0
O422 O 0.0127 0.41854 0.41652 0.0
O423 O 0.09025 0.45864 0.44277 0.0
C424 C 0.28311 0.33414 0.6778 0.0
C425 C 0.26741 0.28489 0.6428 0.0
H426 H 0.23225 0.19888 0.54017 0.0
H427 H 0.17377 0.19963 0.37589 0.0
H428 H 0.26137 0.51039 0.61145 0.0
H429 H 0.31295 0.4368 0.68414 0.0
H430 H 0.31634 0.33646 0.73221 0.0
H431 H 0.28839 0.25061 0.67224 0.0
Mn432 Mn 0.62826 0.96473 0.5072 0.0
Mn433 Mn 0.50573 0.9101 0.52914 0.0
C434 C 0.58734 0.9431 0.34866 0.0
C435 C 0.7222 0.95181 0.44069 0.0
C436 C 0.51614 0.02436 0.54706 0.0
O437 O 0.62335 0.94242 0.67459 0.0
O438 O 0.5387 0.91597 0.68133 0.0
C439 C 0.55205 0.80716 0.56915 0.0
N440 N 0.51288 0.838 0.53036 0.0
C441 C 0.45689 0.76644 0.4928 0.0
C442 C 0.49163 0.73506 0.55225 0.0
C443 C 0.54239 0.75427 0.57773 0.0
C444 C 0.46993 0.81828 0.48191 0.0
H445 H 0.58896 0.82329 0.59648 0.0
C446 C 0.58175 0.92741 0.73052 0.0
O447 O 0.70435 -0.00491 0.48242 0.0
O448 O 0.69019 0.91431 0.46107 0.0
N449 N 0.46352 0.89855 0.39908 0.0
C450 C 0.45049 0.92876 0.30993 0.0
C451 C 0.41629 0.90939 0.22874 0.0
C452 C 0.3937 0.8605 0.24323 0.0
C453 C 0.40756 0.83012 0.33516 0.0
C454 C 0.44457 0.85005 0.40831 0.0
H455 H 0.46873 0.96618 0.29902 0.0
O456 O 0.62453 0.97504 0.34973 0.0
O457 O 0.57427 0.92028 0.44395 0.0
O458 O 0.56834 0.02571 0.54377 0.0
O459 O 0.49119 0.98325 0.52941 0.0
C460 C 0.38925 0.77932 0.35294 0.0
C461 C 0.41334 0.74752 0.43437 0.0
H462 H 0.48155 0.69502 0.56616 0.0
H463 H 0.5738 0.72942 0.60698 0.0
H464 H 0.40492 0.9328 0.15778 0.0
H465 H 0.36645 0.84646 0.18228 0.0
H466 H 0.35931 0.76338 0.30008 0.0
H467 H 0.40183 0.70738 0.44283 0.0
Mn468 Mn 0.09156 0.12764 0.72102 0.0
Mn469 Mn 0.16572 0.01245 0.75558 0.0
C470 C 0.11975 0.08663 0.5654 0.0
C471 C 0.07075 0.21518 0.66085 0.0
C472 C 0.04838 0.00938 0.76104 0.0
O473 O 0.10811 0.13446 0.88801 0.0
O474 O 0.15005 0.05804 0.89814 0.0
C475 C 0.28176 0.04741 0.78579 0.0
N476 N 0.24414 0.01474 0.74968 0.0
C477 C 0.31164 0.9453 0.73487 0.0
C478 C 0.34794 0.97599 0.78547 0.0
C479 C 0.33389 0.0269 0.80786 0.0
C480 C 0.26062 0.96634 0.71637 0.0
H481 H 0.27058 0.08681 0.8068 0.0
C482 C 0.12923 0.09887 0.94678 0.0
O483 O 0.0363 0.18559 0.7105 0.0
O484 O 0.11974 0.19892 0.66981 0.0
N485 N 0.17905 0.96291 0.63869 0.0
C486 C 0.14545 0.94221 0.56573 0.0
C487 C 0.16434 0.90329 0.49177 0.0
C488 C 0.20904 0.87411 0.52034 0.0
C489 C 0.24144 0.89271 0.60298 0.0
C490 C 0.22648 0.9398 0.65395 0.0
H491 H 0.10594 0.95855 0.55943 0.0
O492 O 0.08774 0.12352 0.5687 0.0
O493 O 0.14753 0.07593 0.65674 0.0
O494 O 0.04215 0.05974 0.75574 0.0
O495 O 0.09358 0.98885 0.76237 0.0
C496 C 0.2898 0.8686 0.63065 0.0
C497 C 0.32515 0.89507 0.69765 0.0
H498 H 0.38784 0.96182 0.80218 0.0
H499 H 0.36549 0.0485 0.84151 0.0
H500 H 0.14202 0.89214 0.42002 0.0
H501 H 0.21913 0.83897 0.47524 0.0
H502 H 0.30173 0.83169 0.59466 0.0
H503 H 0.36393 0.87801 0.7137 0.0
Mn504 Mn 0.87861 0.57225 0.91921 0.0
Mn505 Mn 0.01051 0.6055 0.93805 0.0
C506 C 0.92499 0.59204 0.75825 0.0
C507 C 0.78292 0.58861 0.90382 0.0
C508 C 0.97653 0.49651 0.95054 0.0
O509 O 0.89102 0.58288 0.08876 0.0
O510 O 0.97225 0.61803 0.08317 0.0
C511 C 1.00305 0.72159 0.94192 0.0
N512 N 0.02611 0.6767 0.90669 0.0
C513 C 0.10432 0.72168 0.84052 0.0
C514 C 0.08523 0.76651 0.8946 0.0
C515 C 0.03375 0.76673 0.94412 0.0
C516 C 0.07331 0.67728 0.84979 0.0
H517 H 0.96132 0.72309 0.96269 0.0
C518 C 0.93138 0.60151 0.1381 0.0
O519 O 0.80346 0.54423 0.93151 0.0
O520 O 0.81679 0.6262 0.90322 0.0
N521 N 0.05579 0.59174 0.81167 0.0
C522 C 0.0644 0.54666 0.75569 0.0
C523 C 0.10745 0.54269 0.6797 0.0
C524 C 0.14286 0.58412 0.66554 0.0
C525 C 0.13338 0.63002 0.72535 0.0
C526 C 0.08835 0.63235 0.79635 0.0
H527 H 0.0378 0.51458 0.76655 0.0
O528 O 0.8786 0.57285 0.75783 0.0
O529 O 0.94187 0.6076 0.85539 0.0
O530 O 0.92718 0.50382 0.9259 0.0
O531 O 0.00711 0.53295 0.97166 0.0
C532 C 0.16631 0.6737 0.71715 0.0
C533 C 0.15236 0.71918 0.7768 0.0
H534 H 0.10807 0.80177 0.89214 0.0
H535 H 0.017 0.8021 -0.02129 0.0
H536 H 0.11273 0.50745 0.63341 0.0
H537 H 0.17664 0.58059 0.6078 0.0
H538 H 0.20212 0.67289 0.66462 0.0
H539 H 0.17781 0.7526 0.76965 0.0
Mn540 Mn 0.48642 0.38158 0.35073 0.0
Mn541 Mn 0.37032 0.43953 0.39101 0.0
C542 C 0.44188 0.41636 0.19169 0.0
C543 C 0.46163 0.3002 0.23525 0.0
C544 C 0.46875 0.49847 0.38749 0.0
O545 O 0.46853 0.35423 0.51216 0.0
O546 O 0.40359 0.41327 0.53139 0.0
C547 C 0.33803 0.33045 0.42002 0.0
N548 N 0.32687 0.3795 0.38283 0.0
C549 C 0.2621 0.34708 0.25808 0.0
C550 C 0.27671 0.29627 0.28675 0.0
C551 C 0.31487 0.28791 0.36871 0.0
C552 C 0.292 0.38709 0.30033 0.0
H553 H 0.36764 0.32305 0.48156 0.0
C554 C 0.43543 0.38011 0.57445 0.0
O555 O 0.50716 0.31103 0.26503 0.0
O556 O 0.4293 0.32825 0.28821 0.0
N557 N 0.32672 0.4693 0.27981 0.0
C558 C 0.31855 0.52109 0.26371 0.0
C559 C 0.27384 0.53894 0.20571 0.0
C560 C 0.23675 0.5034 0.16903 0.0
C561 C 0.24401 0.45082 0.1947 0.0
C562 C 0.28867 0.43575 0.25412 0.0
H563 H 0.34489 0.5489 0.29901 0.0
O564 O 0.49119 0.41411 0.20092 0.0
O565 O 0.41697 0.40102 0.28197 0.0
O566 O 0.49291 0.45611 0.41495 0.0
O567 O 0.41818 0.5005 0.38136 0.0
C568 C 0.20693 0.41308 0.17026 0.0
C569 C 0.2187 0.36025 0.19109 0.0
H570 H 0.25786 0.26356 0.24893 0.0
H571 H 0.32584 0.24886 0.39357 0.0
H572 H 0.26738 0.58002 0.19178 0.0
H573 H 0.20202 0.51703 0.12498 0.0
H574 H 0.16995 0.42527 0.13502 0.0
H575 H 0.19273 0.33053 0.16189 0.0
loop_
_geom_bond_atom_site_label_1
_geom_bond_atom_site_label_2
_geom_bond_distance
_geom_bond_site_symmetry_2
_ccdc_geom_bond_type
Mn0 O5 2.095 . S
Mn0 O15 2.162 . S
Mn0 O16 2.297 . S
Mn0 O24 2.385 . S
Mn0 O25 2.209 . S
Mn0 O26 2.087 1_545 S
Mn1 O6 2.121 . S
Mn1 N8 2.257 1_455 S
Mn1 N17 2.282 1_455 S
Mn1 O25 2.215 . S
Mn1 O27 2.117 . S
C2 O24 1.234 . S
C2 O25 1.283 . S
C3 O15 1.281 . S
C3 O16 1.236 . S
C4 O26 1.239 1_545 S
C4 O27 1.264 . S
O5 Mn0 2.095 . S
O5 C14 1.250 . S
O6 Mn1 2.121 . S
O6 C14 1.258 . S
C7 N8 1.326 1_455 S
C7 C11 1.460 1_455 S
C7 H13 0.929 . S
N8 Mn1 2.257 1_655 S
N8 C7 1.326 1_655 S
N8 C12 1.362 . S
C9 C10 1.258 . S
C9 C12 1.431 . S
C9 C29 1.449 . S
C10 C9 1.258 . S
C10 C11 1.477 . S
C10 H30 0.931 . S
C11 C7 1.460 1_655 S
C11 C10 1.477 . S
C11 H31 0.936 . S
C12 N8 1.362 . S
C12 C9 1.431 . S
C12 C22 1.476 . S
H13 C7 0.929 . S
C14 O5 1.250 . S
C14 O6 1.258 . S
O15 Mn0 2.162 . S
O15 C3 1.281 . S
O16 Mn0 2.297 . S
O16 C3 1.236 . S
N17 Mn1 2.282 1_655 S
N17 C18 1.328 . S
N17 C22 1.318 . S
C18 N17 1.328 . S
C18 C19 1.457 . S
C18 H23 0.929 . S
C19 C18 1.457 . S
C19 C20 1.291 . S
C19 H32 0.931 . S
C20 C19 1.291 . S
C20 C21 1.373 . S
C20 H33 0.929 . S
C21 C20 1.373 . S
C21 C22 1.396 . S
C21 C28 1.403 . S
C22 C12 1.476 . S
C22 N17 1.318 . S
C22 C21 1.396 . S
H23 C18 0.929 . S
O24 Mn0 2.385 . S
O24 C2 1.234 . S
O25 Mn0 2.209 . S
O25 Mn1 2.215 . S
O25 C2 1.283 . S
O26 Mn0 2.087 1_565 S
O26 C4 1.239 1_565 S
O27 Mn1 2.117 . S
O27 C4 1.264 . S
C28 C21 1.403 . S
C28 C29 1.399 . S
C28 H34 0.929 . S
C29 C9 1.449 . S
C29 C28 1.399 . S
C29 H35 0.930 . S
H30 C10 0.931 . S
H31 C11 0.936 . S
H32 C19 0.931 . S
H33 C20 0.929 . S
H34 C28 0.929 . S
H35 C29 0.930 . S
Mn36 O41 2.095 . S
Mn36 O51 2.162 . S
Mn36 O52 2.297 . S
Mn36 O60 2.385 . S
Mn36 O61 2.209 . S
Mn36 O62 2.086 1_655 S
Mn37 O42 2.121 . S
Mn37 N44 2.257 . S
Mn37 N53 2.282 . S
Mn37 O61 2.215 . S
Mn37 O63 2.117 . S
C38 O60 1.234 . S
C38 O61 1.283 . S
C39 O51 1.281 . S
C39 O52 1.236 . S
C40 O62 1.239 1_655 S
C40 O63 1.264 . S
O41 Mn36 2.095 . S
O41 C50 1.250 . S
O42 Mn37 2.121 . S
O42 C50 1.258 . S
C43 N44 1.326 . S
C43 C47 1.460 . S
C43 H49 0.929 . S
N44 Mn37 2.257 . S
N44 C43 1.326 . S
N44 C48 1.362 . S
C45 C46 1.258 . S
C45 C48 1.431 . S
C45 C65 1.449 . S
C46 C45 1.258 . S
C46 C47 1.477 . S
C46 H66 0.931 . S
C47 C43 1.460 . S
C47 C46 1.477 . S
C47 H67 0.930 . S
C48 N44 1.362 . S
C48 C45 1.431 . S
C48 C58 1.476 . S
H49 C43 0.929 . S
C50 O41 1.250 . S
C50 O42 1.258 . S
O51 Mn36 2.162 . S
O51 C39 1.281 . S
O52 Mn36 2.297 . S
O52 C39 1.236 . S
N53 Mn37 2.282 . S
N53 C54 1.328 . S
N53 C58 1.318 . S
C54 N53 1.328 . S
C54 C55 1.457 . S
C54 H59 0.929 . S
C55 C54 1.457 . S
C55 C56 1.291 . S
C55 H68 0.931 . S
C56 C55 1.291 . S
C56 C57 1.373 . S
C56 H69 0.929 1_556 S
C57 C56 1.373 . S
C57 C58 1.396 . S
C57 C64 1.403 . S
C58 C48 1.476 . S
C58 N53 1.318 . S
C58 C57 1.396 . S
H59 C54 0.929 . S
O60 Mn36 2.385 . S
O60 C38 1.234 . S
O61 Mn36 2.209 . S
O61 Mn37 2.215 . S
O61 C38 1.283 . S
O62 Mn36 2.086 1_455 S
O62 C40 1.239 1_455 S
O63 Mn37 2.117 . S
O63 C40 1.264 . S
C64 C57 1.403 . S
C64 C65 1.399 . S
C64 H70 0.929 . S
C65 C45 1.449 . S
C65 C64 1.399 . S
C65 H71 0.930 . S
H66 C46 0.931 . S
H67 C47 0.930 . S
H68 C55 0.931 . S
H69 C56 0.929 1_554 S
H70 C64 0.929 . S
H71 C65 0.930 . S
Mn72 O77 2.095 . S
Mn72 O87 2.162 . S
Mn72 O88 2.297 . S
Mn72 O96 2.385 1_556 S
Mn72 O97 2.209 . S
Mn72 O98 2.094 . S
Mn73 O78 2.121 . S
Mn73 N80 2.257 . S
Mn73 N89 2.282 . S
Mn73 O97 2.215 . S
Mn73 O99 2.117 . S
C74 O96 1.234 . S
C74 O97 1.283 1_554 S
C75 O87 1.281 . S
C75 O88 1.236 . S
C76 O98 1.240 . S
C76 O99 1.264 . S
O77 Mn72 2.095 . S
O77 C86 1.250 . S
O78 Mn73 2.121 . S
O78 C86 1.258 . S
C79 N80 1.326 . S
C79 C83 1.460 . S
C79 H85 0.929 . S
N80 Mn73 2.257 . S
N80 C79 1.326 . S
N80 C84 1.362 . S
C81 C82 1.258 . S
C81 C84 1.431 . S
C81 C101 1.449 1_556 S
C82 C81 1.258 . S
C82 C83 1.477 . S
C82 H102 0.931 . S
C83 C79 1.460 . S
C83 C82 1.477 . S
C83 H103 0.930 . S
C84 N80 1.362 . S
C84 C81 1.431 . S
C84 C94 1.476 1_556 S
H85 C79 0.929 . S
C86 O77 1.250 . S
C86 O78 1.258 . S
O87 Mn72 2.162 . S
O87 C75 1.281 . S
O88 Mn72 2.297 . S
O88 C75 1.236 . S
N89 Mn73 2.282 . S
N89 C90 1.328 1_556 S
N89 C94 1.318 1_556 S
C90 N89 1.328 1_554 S
C90 C91 1.457 . S
C90 H95 0.929 . S
C91 C90 1.457 . S
C91 C92 1.291 . S
C91 H104 0.931 . S
C92 C91 1.291 . S
C92 C93 1.373 . S
C92 H105 0.929 . S
C93 C92 1.373 . S
C93 C94 1.396 . S
C93 C100 1.403 . S
C94 C84 1.476 1_554 S
C94 N89 1.318 1_554 S
C94 C93 1.396 . S
H95 C90 0.929 . S
O96 Mn72 2.385 1_554 S
O96 C74 1.234 . S
O97 Mn72 2.209 . S
O97 Mn73 2.215 . S
O97 C74 1.283 1_556 S
O98 Mn72 2.094 . S
O98 C76 1.240 . S
O99 Mn73 2.117 . S
O99 C76 1.264 . S
C100 C93 1.403 . S
C100 C101 1.399 . S
C100 H106 0.929 . S
C101 C81 1.449 1_554 S
C101 C100 1.399 . S
C101 H107 0.930 . S
H102 C82 0.931 . S
H103 C83 0.930 . S
H104 C91 0.931 . S
H105 C92 0.929 . S
H106 C100 0.929 . S
H107 C101 0.930 . S
Mn108 O113 2.095 1_554 S
Mn108 O123 2.162 . S
Mn108 O124 2.297 . S
Mn108 O132 2.385 . S
Mn108 O133 2.209 . S
Mn108 O134 2.094 . S
Mn109 O114 2.121 1_554 S
Mn109 N116 2.257 1_565 S
Mn109 N125 2.282 1_565 S
Mn109 O133 2.215 . S
Mn109 O135 2.117 . S
C110 O132 1.234 . S
C110 O133 1.283 . S
C111 O123 1.281 . S
C111 O124 1.236 . S
C112 O134 1.240 . S
C112 O135 1.264 . S
O113 Mn108 2.095 1_556 S
O113 C122 1.250 . S
O114 Mn109 2.121 1_556 S
O114 C122 1.258 . S
C115 N116 1.326 1_565 S
C115 C119 1.460 1_565 S
C115 H121 0.929 1_554 S
N116 Mn109 2.257 1_545 S
N116 C115 1.326 1_545 S
N116 C120 1.362 . S
C117 C118 1.258 . S
C117 C120 1.431 . S
C117 C137 1.449 . S
C118 C117 1.258 . S
C118 C119 1.477 . S
C118 H138 0.931 . S
C119 C115 1.460 1_545 S
C119 C118 1.477 . S
C119 H139 0.935 . S
C120 N116 1.362 . S
C120 C117 1.431 . S
C120 C130 1.476 . S
H121 C115 0.929 1_556 S
C122 O113 1.250 . S
C122 O114 1.258 . S
O123 Mn108 2.162 . S
O123 C111 1.281 . S
O124 Mn108 2.297 . S
O124 C111 1.236 . S
N125 Mn109 2.282 1_545 S
N125 C126 1.328 . S
N125 C130 1.318 . S
C126 N125 1.328 . S
C126 C127 1.457 . S
C126 H131 0.929 . S
C127 C126 1.457 . S
C127 C128 1.291 . S
C127 H140 0.931 . S
C128 C127 1.291 . S
C128 C129 1.373 . S
C128 H141 0.929 . S
C129 C128 1.373 . S
C129 C130 1.396 . S
C129 C136 1.403 . S
C130 C120 1.476 . S
C130 N125 1.318 . S
C130 C129 1.396 . S
H131 C126 0.929 . S
O132 Mn108 2.385 . S
O132 C110 1.234 . S
O133 Mn108 2.209 . S
O133 Mn109 2.215 . S
O133 C110 1.283 . S
O134 Mn108 2.094 . S
O134 C112 1.240 . S
O135 Mn109 2.117 . S
O135 C112 1.264 . S
C136 C129 1.403 . S
C136 C137 1.399 . S
C136 H142 0.929 . S
C137 C117 1.449 . S
C137 C136 1.399 . S
C137 H143 0.930 . S
H138 C118 0.931 . S
H139 C119 0.935 . S
H140 C127 0.931 . S
H141 C128 0.929 . S
H142 C136 0.929 . S
H143 C137 0.930 . S
Mn144 O149 2.095 . S
Mn144 O159 2.162 . S
Mn144 O160 2.297 . S
Mn144 O168 2.385 1_554 S
Mn144 O169 2.209 1_554 S
Mn144 O170 2.094 . S
Mn145 O150 2.121 . S
Mn145 N152 2.257 1_455 S
Mn145 N161 2.282 1_454 S
Mn145 O169 2.215 1_554 S
Mn145 O171 2.117 . S
C146 O168 1.234 . S
C146 O169 1.283 . S
C147 O159 1.281 1_556 S
C147 O160 1.235 1_556 S
C148 O170 1.240 . S
C148 O171 1.264 . S
O149 Mn144 2.095 . S
O149 C158 1.250 . S
O150 Mn145 2.121 . S
O150 C158 1.258 . S
C151 N152 1.326 1_455 S
C151 C155 1.460 1_455 S
C151 H157 0.929 . S
N152 Mn145 2.257 1_655 S
N152 C151 1.326 1_655 S
N152 C156 1.362 1_554 S
C153 C154 1.258 . S
C153 C156 1.431 . S
C153 C173 1.449 . S
C154 C153 1.258 . S
C154 C155 1.477 1_556 S
C154 H174 0.931 . S
C155 C151 1.460 1_655 S
C155 C154 1.477 1_554 S
C155 H175 0.936 . S
C156 N152 1.362 1_556 S
C156 C153 1.431 . S
C156 C166 1.476 . S
H157 C151 0.929 . S
C158 O149 1.250 . S
C158 O150 1.258 . S
O159 Mn144 2.162 . S
O159 C147 1.281 1_554 S
O160 Mn144 2.297 . S
O160 C147 1.235 1_554 S
N161 Mn145 2.282 1_656 S
N161 C162 1.328 . S
N161 C166 1.318 . S
C162 N161 1.328 . S
C162 C163 1.457 . S
C162 H167 0.929 . S
C163 C162 1.457 . S
C163 C164 1.291 . S
C163 H176 0.931 . S
C164 C163 1.291 . S
C164 C165 1.373 . S
C164 H177 0.929 . S
C165 C164 1.373 . S
C165 C166 1.396 . S
C165 C172 1.403 . S
C166 C156 1.476 . S
C166 N161 1.318 . S
C166 C165 1.396 . S
H167 C162 0.929 . S
O168 Mn144 2.385 1_556 S
O168 C146 1.234 . S
O169 Mn144 2.209 1_556 S
O169 Mn145 2.215 1_556 S
O169 C146 1.283 . S
O170 Mn144 2.094 . S
O170 C148 1.240 . S
O171 Mn145 2.117 . S
O171 C148 1.264 . S
C172 C165 1.403 . S
C172 C173 1.399 . S
C172 H178 0.929 . S
C173 C153 1.449 . S
C173 C172 1.399 . S
C173 H179 0.930 . S
H174 C154 0.931 . S
H175 C155 0.936 . S
H176 C163 0.931 . S
H177 C164 0.929 . S
H178 C172 0.929 . S
H179 C173 0.930 . S
Mn180 O185 2.095 . S
Mn180 O195 2.162 . S
Mn180 O196 2.297 . S
Mn180 O204 2.385 . S
Mn180 O205 2.209 . S
Mn180 O206 2.094 . S
Mn181 O186 2.121 . S
Mn181 N188 2.257 . S
Mn181 N197 2.282 . S
Mn181 O205 2.215 . S
Mn181 O207 2.117 . S
C182 O204 1.234 . S
C182 O205 1.283 . S
C183 O195 1.281 . S
C183 O196 1.236 . S
C184 O206 1.240 . S
C184 O207 1.264 . S
O185 Mn180 2.095 . S
O185 C194 1.250 . S
O186 Mn181 2.121 . S
O186 C194 1.258 . S
C187 N188 1.326 . S
C187 C191 1.460 . S
C187 H193 0.929 . S
N188 Mn181 2.257 . S
N188 C187 1.326 . S
N188 C192 1.362 . S
C189 C190 1.258 . S
C189 C192 1.431 . S
C189 C209 1.449 . S
C190 C189 1.258 . S
C190 C191 1.477 . S
C190 H210 0.931 . S
C191 C187 1.460 . S
C191 C190 1.477 . S
C191 H211 0.930 . S
C192 N188 1.362 . S
C192 C189 1.431 . S
C192 C202 1.476 . S
H193 C187 0.929 . S
C194 O185 1.250 . S
C194 O186 1.258 . S
O195 Mn180 2.162 . S
O195 C183 1.281 . S
O196 Mn180 2.297 . S
O196 C183 1.236 . S
N197 Mn181 2.282 . S
N197 C198 1.328 . S
N197 C202 1.318 . S
C198 N197 1.328 . S
C198 C199 1.457 1_554 S
C198 H203 0.929 . S
C199 C198 1.457 1_556 S
C199 C200 1.291 . S
C199 H212 0.931 . S
C200 C199 1.291 . S
C200 C201 1.373 . S
C200 H213 0.929 . S
C201 C200 1.373 . S
C201 C202 1.396 1_556 S
C201 C208 1.403 . S
C202 C192 1.476 . S
C202 N197 1.318 . S
C202 C201 1.396 1_554 S
H203 C198 0.929 . S
O204 Mn180 2.385 . S
O204 C182 1.234 . S
O205 Mn180 2.209 . S
O205 Mn181 2.215 . S
O205 C182 1.283 . S
O206 Mn180 2.094 . S
O206 C184 1.240 . S
O207 Mn181 2.117 . S
O207 C184 1.264 . S
C208 C201 1.403 . S
C208 C209 1.399 1_556 S
C208 H214 0.929 . S
C209 C189 1.449 . S
C209 C208 1.399 1_554 S
C209 H215 0.930 . S
H210 C190 0.931 . S
H211 C191 0.930 . S
H212 C199 0.931 . S
H213 C200 0.929 . S
H214 C208 0.929 . S
H215 C209 0.930 . S
Mn216 O221 2.095 . S
Mn216 O231 2.162 . S
Mn216 O232 2.297 . S
Mn216 O240 2.385 . S
Mn216 O241 2.209 . S
Mn216 O242 2.087 1_545 S
Mn217 O222 2.121 . S
Mn217 N224 2.257 . S
Mn217 N233 2.282 . S
Mn217 O241 2.215 . S
Mn217 O243 2.117 . S
C218 O240 1.234 . S
C218 O241 1.283 . S
C219 O231 1.281 . S
C219 O232 1.236 . S
C220 O242 1.239 1_545 S
C220 O243 1.264 . S
O221 Mn216 2.095 . S
O221 C230 1.250 . S
O222 Mn217 2.121 . S
O222 C230 1.258 . S
C223 N224 1.326 . S
C223 C227 1.460 . S
C223 H229 0.929 . S
N224 Mn217 2.257 . S
N224 C223 1.326 . S
N224 C228 1.362 . S
C225 C226 1.258 . S
C225 C228 1.431 . S
C225 C245 1.449 . S
C226 C225 1.258 . S
C226 C227 1.477 . S
C226 H246 0.931 . S
C227 C223 1.460 . S
C227 C226 1.477 . S
C227 H247 0.930 . S
C228 N224 1.362 . S
C228 C225 1.431 . S
C228 C238 1.476 . S
H229 C223 0.929 . S
C230 O221 1.250 . S
C230 O222 1.258 . S
O231 Mn216 2.162 . S
O231 C219 1.281 . S
O232 Mn216 2.297 . S
O232 C219 1.236 . S
N233 Mn217 2.282 . S
N233 C234 1.328 . S
N233 C238 1.318 . S
C234 N233 1.328 . S
C234 C235 1.457 . S
C234 H239 0.929 . S
C235 C234 1.457 . S
C235 C236 1.291 . S
C235 H248 0.931 . S
C236 C235 1.291 . S
C236 C237 1.373 . S
C236 H249 0.929 . S
C237 C236 1.373 . S
C237 C238 1.396 . S
C237 C244 1.403 . S
C238 C228 1.476 . S
C238 N233 1.318 . S
C238 C237 1.396 . S
H239 C234 0.929 . S
O240 Mn216 2.385 . S
O240 C218 1.234 . S
O241 Mn216 2.209 . S
O241 Mn217 2.215 . S
O241 C218 1.283 . S
O242 Mn216 2.087 1_565 S
O242 C220 1.239 1_565 S
O243 Mn217 2.117 . S
O243 C220 1.264 . S
C244 C237 1.403 . S
C244 C245 1.399 . S
C244 H250 0.929 . S
C245 C225 1.449 . S
C245 C244 1.399 . S
C245 H251 0.930 . S
H246 C226 0.931 . S
H247 C227 0.930 . S
H248 C235 0.931 . S
H249 C236 0.929 . S
H250 C244 0.929 . S
H251 C245 0.930 . S
Mn252 O257 2.095 . S
Mn252 O267 2.162 . S
Mn252 O268 2.297 . S
Mn252 O276 2.385 . S
Mn252 O277 2.209 . S
Mn252 O278 2.086 1_655 S
Mn253 O258 2.121 . S
Mn253 N260 2.257 1_565 S
Mn253 N269 2.282 1_565 S
Mn253 O277 2.215 . S
Mn253 O279 2.117 . S
C254 O276 1.234 . S
C254 O277 1.283 . S
C255 O267 1.281 . S
C255 O268 1.236 . S
C256 O278 1.239 1_655 S
C256 O279 1.264 . S
O257 Mn252 2.095 . S
O257 C266 1.250 . S
O258 Mn253 2.121 . S
O258 C266 1.258 . S
C259 N260 1.326 1_565 S
C259 C263 1.460 1_565 S
C259 H265 0.929 . S
N260 Mn253 2.257 1_545 S
N260 C259 1.326 1_545 S
N260 C264 1.362 . S
C261 C262 1.258 . S
C261 C264 1.431 . S
C261 C281 1.449 . S
C262 C261 1.258 . S
C262 C263 1.477 . S
C262 H282 0.931 . S
C263 C259 1.460 1_545 S
C263 C262 1.477 . S
C263 H283 0.935 . S
C264 N260 1.362 . S
C264 C261 1.431 . S
C264 C274 1.476 . S
H265 C259 0.929 . S
C266 O257 1.250 . S
C266 O258 1.258 . S
O267 Mn252 2.162 . S
O267 C255 1.281 . S
O268 Mn252 2.297 . S
O268 C255 1.236 . S
N269 Mn253 2.282 1_545 S
N269 C270 1.328 . S
N269 C274 1.318 . S
C270 N269 1.328 . S
C270 C271 1.457 . S
C270 H275 0.929 . S
C271 C270 1.457 . S
C271 C272 1.291 . S
C271 H284 0.931 . S
C272 C271 1.291 . S
C272 C273 1.373 . S
C272 H285 0.929 . S
C273 C272 1.373 . S
C273 C274 1.396 . S
C273 C280 1.403 . S
C274 C264 1.476 . S
C274 N269 1.318 . S
C274 C273 1.396 . S
H275 C270 0.929 . S
O276 Mn252 2.385 . S
O276 C254 1.234 . S
O277 Mn252 2.209 . S
O277 Mn253 2.215 . S
O277 C254 1.283 . S
O278 Mn252 2.086 1_455 S
O278 C256 1.239 1_455 S
O279 Mn253 2.117 . S
O279 C256 1.264 . S
C280 C273 1.403 . S
C280 C281 1.399 . S
C280 H286 0.929 . S
C281 C261 1.449 . S
C281 C280 1.399 . S
C281 H287 0.930 . S
H282 C262 0.931 . S
H283 C263 0.935 . S
H284 C271 0.931 . S
H285 C272 0.929 . S
H286 C280 0.929 . S
H287 C281 0.930 . S
Mn288 O293 2.095 . S
Mn288 O303 2.162 . S
Mn288 O304 2.297 . S
Mn288 O312 2.385 1_556 S
Mn288 O313 2.209 . S
Mn288 O314 2.094 . S
Mn289 O294 2.121 . S
Mn289 N296 2.257 . S
Mn289 N305 2.282 . S
Mn289 O313 2.215 . S
Mn289 O315 2.117 . S
C290 O312 1.234 . S
C290 O313 1.283 1_554 S
C291 O303 1.281 . S
C291 O304 1.236 . S
C292 O314 1.240 . S
C292 O315 1.264 . S
O293 Mn288 2.095 . S
O293 C302 1.250 . S
O294 Mn289 2.121 . S
O294 C302 1.258 . S
C295 N296 1.326 . S
C295 C299 1.460 . S
C295 H301 0.929 . S
N296 Mn289 2.257 . S
N296 C295 1.326 . S
N296 C300 1.362 . S
C297 C298 1.258 . S
C297 C300 1.431 . S
C297 C317 1.449 1_556 S
C298 C297 1.258 . S
C298 C299 1.477 . S
C298 H318 0.931 . S
C299 C295 1.460 . S
C299 C298 1.477 . S
C299 H319 0.930 . S
C300 N296 1.362 . S
C300 C297 1.431 . S
C300 C310 1.476 1_556 S
H301 C295 0.929 . S
C302 O293 1.250 . S
C302 O294 1.258 . S
O303 Mn288 2.162 . S
O303 C291 1.281 . S
O304 Mn288 2.297 . S
O304 C291 1.236 . S
N305 Mn289 2.282 . S
N305 C306 1.328 1_556 S
N305 C310 1.318 1_556 S
C306 N305 1.328 1_554 S
C306 C307 1.457 . S
C306 H311 0.929 . S
C307 C306 1.457 . S
C307 C308 1.291 . S
C307 H320 0.931 . S
C308 C307 1.291 . S
C308 C309 1.373 . S
C308 H321 0.929 . S
C309 C308 1.373 . S
C309 C310 1.396 . S
C309 C316 1.403 . S
C310 C300 1.476 1_554 S
C310 N305 1.318 1_554 S
C310 C309 1.396 . S
H311 C306 0.929 . S
O312 Mn288 2.385 1_554 S
O312 C290 1.234 . S
O313 Mn288 2.209 . S
O313 Mn289 2.215 . S
O313 C290 1.283 1_556 S
O314 Mn288 2.094 . S
O314 C292 1.240 . S
O315 Mn289 2.117 . S
O315 C292 1.264 . S
C316 C309 1.403 . S
C316 C317 1.399 . S
C316 H322 0.929 . S
C317 C297 1.449 1_554 S
C317 C316 1.399 . S
C317 H323 0.930 . S
H318 C298 0.931 . S
H319 C299 0.930 . S
H320 C307 0.931 . S
H321 C308 0.929 . S
H322 C316 0.929 . S
H323 C317 0.930 . S
Mn324 O329 2.095 1_554 S
Mn324 O339 2.162 . S
Mn324 O340 2.297 . S
Mn324 O348 2.385 . S
Mn324 O349 2.209 . S
Mn324 O350 2.094 . S
Mn325 O330 2.121 1_554 S
Mn325 N332 2.257 1_545 S
Mn325 N341 2.282 1_545 S
Mn325 O349 2.215 . S
Mn325 O351 2.117 . S
C326 O348 1.234 . S
C326 O349 1.283 . S
C327 O339 1.281 . S
C327 O340 1.236 . S
C328 O350 1.240 . S
C328 O351 1.264 . S
O329 Mn324 2.095 1_556 S
O329 C338 1.250 . S
O330 Mn325 2.121 1_556 S
O330 C338 1.258 . S
C331 N332 1.326 1_545 S
C331 C335 1.460 1_545 S
C331 H337 0.929 1_554 S
N332 Mn325 2.257 1_565 S
N332 C331 1.326 1_565 S
N332 C336 1.362 . S
C333 C334 1.258 . S
C333 C336 1.431 . S
C333 C353 1.449 . S
C334 C333 1.258 . S
C334 C335 1.477 . S
C334 H354 0.931 . S
C335 C331 1.460 1_565 S
C335 C334 1.477 . S
C335 H355 0.935 . S
C336 N332 1.362 . S
C336 C333 1.431 . S
C336 C346 1.476 . S
H337 C331 0.929 1_556 S
C338 O329 1.250 . S
C338 O330 1.258 . S
O339 Mn324 2.162 . S
O339 C327 1.281 . S
O340 Mn324 2.297 . S
O340 C327 1.236 . S
N341 Mn325 2.282 1_565 S
N341 C342 1.328 . S
N341 C346 1.318 . S
C342 N341 1.328 . S
C342 C343 1.457 . S
C342 H347 0.929 . S
C343 C342 1.457 . S
C343 C344 1.291 . S
C343 H356 0.931 . S
C344 C343 1.291 . S
C344 C345 1.373 . S
C344 H357 0.929 . S
C345 C344 1.373 . S
C345 C346 1.396 . S
C345 C352 1.403 . S
C346 C336 1.476 . S
C346 N341 1.318 . S
C346 C345 1.396 . S
H347 C342 0.929 . S
O348 Mn324 2.385 . S
O348 C326 1.234 . S
O349 Mn324 2.209 . S
O349 Mn325 2.215 . S
O349 C326 1.283 . S
O350 Mn324 2.094 . S
O350 C328 1.240 . S
O351 Mn325 2.117 . S
O351 C328 1.264 . S
C352 C345 1.403 . S
C352 C353 1.399 . S
C352 H358 0.929 . S
C353 C333 1.449 . S
C353 C352 1.399 . S
C353 H359 0.930 . S
H354 C334 0.931 . S
H355 C335 0.935 . S
H356 C343 0.931 . S
H357 C344 0.929 . S
H358 C352 0.929 . S
H359 C353 0.930 . S
Mn360 O365 2.095 . S
Mn360 O375 2.162 . S
Mn360 O376 2.297 . S
Mn360 O384 2.385 . S
Mn360 O385 2.209 . S
Mn360 O386 2.087 1_565 S
Mn361 O366 2.121 . S
Mn361 N368 2.257 1_655 S
Mn361 N377 2.282 1_655 S
Mn361 O385 2.215 . S
Mn361 O387 2.117 . S
C362 O384 1.234 . S
C362 O385 1.283 . S
C363 O375 1.281 . S
C363 O376 1.236 . S
C364 O386 1.239 1_565 S
C364 O387 1.264 . S
O365 Mn360 2.095 . S
O365 C374 1.250 . S
O366 Mn361 2.121 . S
O366 C374 1.258 . S
C367 N368 1.326 1_655 S
C367 C371 1.460 1_655 S
C367 H373 0.929 . S
N368 Mn361 2.257 1_455 S
N368 C367 1.326 1_455 S
N368 C372 1.362 . S
C369 C370 1.258 . S
C369 C372 1.431 . S
C369 C389 1.449 . S
C370 C369 1.258 . S
C370 C371 1.477 . S
C370 H390 0.931 . S
C371 C367 1.460 1_455 S
C371 C370 1.477 . S
C371 H391 0.936 . S
C372 N368 1.362 . S
C372 C369 1.431 . S
C372 C382 1.476 . S
H373 C367 0.929 . S
C374 O365 1.250 . S
C374 O366 1.258 . S
O375 Mn360 2.162 . S
O375 C363 1.281 . S
O376 Mn360 2.297 . S
O376 C363 1.236 . S
N377 Mn361 2.282 1_455 S
N377 C378 1.328 . S
N377 C382 1.318 . S
C378 N377 1.328 . S
C378 C379 1.457 . S
C378 H383 0.929 . S
C379 C378 1.457 . S
C379 C380 1.291 . S
C379 H392 0.931 . S
C380 C379 1.291 . S
C380 C381 1.373 . S
C380 H393 0.929 . S
C381 C380 1.373 . S
C381 C382 1.396 . S
C381 C388 1.403 . S
C382 C372 1.476 . S
C382 N377 1.318 . S
C382 C381 1.396 . S
H383 C378 0.929 . S
O384 Mn360 2.385 . S
O384 C362 1.234 . S
O385 Mn360 2.209 . S
O385 Mn361 2.215 . S
O385 C362 1.283 . S
O386 Mn360 2.087 1_545 S
O386 C364 1.239 1_545 S
O387 Mn361 2.117 . S
O387 C364 1.264 . S
C388 C381 1.403 . S
C388 C389 1.399 . S
C388 H394 0.929 . S
C389 C369 1.449 . S
C389 C388 1.399 . S
C389 H395 0.930 . S
H390 C370 0.931 . S
H391 C371 0.936 . S
H392 C379 0.931 . S
H393 C380 0.929 . S
H394 C388 0.929 . S
H395 C389 0.930 . S
Mn396 O401 2.095 . S
Mn396 O411 2.162 . S
Mn396 O412 2.297 . S
Mn396 O420 2.385 . S
Mn396 O421 2.209 . S
Mn396 O422 2.086 1_455 S
Mn397 O402 2.121 . S
Mn397 N404 2.257 . S
Mn397 N413 2.282 . S
Mn397 O421 2.215 . S
Mn397 O423 2.117 . S
C398 O420 1.234 . S
C398 O421 1.283 . S
C399 O411 1.281 . S
C399 O412 1.236 . S
C400 O422 1.239 1_455 S
C400 O423 1.264 . S
O401 Mn396 2.095 . S
O401 C410 1.250 . S
O402 Mn397 2.121 . S
O402 C410 1.258 . S
C403 N404 1.326 . S
C403 C407 1.460 . S
C403 H409 0.929 . S
N404 Mn397 2.257 . S
N404 C403 1.326 . S
N404 C408 1.362 . S
C405 C406 1.258 . S
C405 C408 1.431 . S
C405 C425 1.449 . S
C406 C405 1.258 . S
C406 C407 1.477 . S
C406 H426 0.931 . S
C407 C403 1.460 . S
C407 C406 1.477 . S
C407 H427 0.930 . S
C408 N404 1.362 . S
C408 C405 1.431 . S
C408 C418 1.476 . S
H409 C403 0.929 . S
C410 O401 1.250 . S
C410 O402 1.258 . S
O411 Mn396 2.162 . S
O411 C399 1.281 . S
O412 Mn396 2.297 . S
O412 C399 1.236 . S
N413 Mn397 2.282 . S
N413 C414 1.328 . S
N413 C418 1.318 . S
C414 N413 1.328 . S
C414 C415 1.457 . S
C414 H419 0.929 . S
C415 C414 1.457 . S
C415 C416 1.291 . S
C415 H428 0.931 . S
C416 C415 1.291 . S
C416 C417 1.373 . S
C416 H429 0.929 1_556 S
C417 C416 1.373 . S
C417 C418 1.396 . S
C417 C424 1.403 . S
C418 C408 1.476 . S
C418 N413 1.318 . S
C418 C417 1.396 . S
H419 C414 0.929 . S
O420 Mn396 2.385 . S
O420 C398 1.234 . S
O421 Mn396 2.209 . S
O421 Mn397 2.215 . S
O421 C398 1.283 . S
O422 Mn396 2.086 1_655 S
O422 C400 1.239 1_655 S
O423 Mn397 2.117 . S
O423 C400 1.264 . S
C424 C417 1.403 . S
C424 C425 1.399 . S
C424 H430 0.929 . S
C425 C405 1.449 . S
C425 C424 1.399 . S
C425 H431 0.930 . S
H426 C406 0.931 . S
H427 C407 0.930 . S
H428 C415 0.931 . S
H429 C416 0.929 1_554 S
H430 C424 0.929 . S
H431 C425 0.930 . S
Mn432 O437 2.095 . S
Mn432 O447 2.162 . S
Mn432 O448 2.297 . S
Mn432 O456 2.385 . S
Mn432 O457 2.209 . S
Mn432 O458 2.087 1_565 S
Mn433 O438 2.121 . S
Mn433 N440 2.257 . S
Mn433 N449 2.282 . S
Mn433 O457 2.215 . S
Mn433 O459 2.117 . S
C434 O456 1.234 . S
C434 O457 1.283 . S
C435 O447 1.281 . S
C435 O448 1.236 . S
C436 O458 1.239 1_565 S
C436 O459 1.264 . S
O437 Mn432 2.095 . S
O437 C446 1.250 . S
O438 Mn433 2.121 . S
O438 C446 1.258 . S
C439 N440 1.326 . S
C439 C443 1.460 . S
C439 H445 0.929 . S
N440 Mn433 2.257 . S
N440 C439 1.326 . S
N440 C444 1.362 . S
C441 C442 1.258 . S
C441 C444 1.431 . S
C441 C461 1.449 . S
C442 C441 1.258 . S
C442 C443 1.477 . S
C442 H462 0.931 . S
C443 C439 1.460 . S
C443 C442 1.477 . S
C443 H463 0.930 . S
C444 N440 1.362 . S
C444 C441 1.431 . S
C444 C454 1.476 . S
H445 C439 0.929 . S
C446 O437 1.250 . S
C446 O438 1.258 . S
O447 Mn432 2.162 . S
O447 C435 1.281 . S
O448 Mn432 2.297 . S
O448 C435 1.236 . S
N449 Mn433 2.282 . S
N449 C450 1.328 . S
N449 C454 1.318 . S
C450 N449 1.328 . S
C450 C451 1.457 . S
C450 H455 0.929 . S
C451 C450 1.457 . S
C451 C452 1.291 . S
C451 H464 0.931 . S
C452 C451 1.291 . S
C452 C453 1.373 . S
C452 H465 0.929 . S
C453 C452 1.373 . S
C453 C454 1.396 . S
C453 C460 1.403 . S
C454 C444 1.476 . S
C454 N449 1.318 . S
C454 C453 1.396 . S
H455 C450 0.929 . S
O456 Mn432 2.385 . S
O456 C434 1.234 . S
O457 Mn432 2.209 . S
O457 Mn433 2.215 . S
O457 C434 1.283 . S
O458 Mn432 2.087 1_545 S
O458 C436 1.239 1_545 S
O459 Mn433 2.117 . S
O459 C436 1.264 . S
C460 C453 1.403 . S
C460 C461 1.399 . S
C460 H466 0.929 . S
C461 C441 1.449 . S
C461 C460 1.399 . S
C461 H467 0.930 . S
H462 C442 0.931 . S
H463 C443 0.930 . S
H464 C451 0.931 . S
H465 C452 0.929 . S
H466 C460 0.929 . S
H467 C461 0.930 . S
Mn468 O473 2.095 . S
Mn468 O483 2.162 . S
Mn468 O484 2.297 . S
Mn468 O492 2.385 . S
Mn468 O493 2.209 . S
Mn468 O494 2.086 1_455 S
Mn469 O474 2.121 . S
Mn469 N476 2.257 1_545 S
Mn469 N485 2.282 1_545 S
Mn469 O493 2.215 . S
Mn469 O495 2.117 . S
C470 O492 1.234 . S
C470 O493 1.283 . S
C471 O483 1.281 . S
C471 O484 1.236 . S
C472 O494 1.239 1_455 S
C472 O495 1.264 . S
O473 Mn468 2.095 . S
O473 C482 1.250 . S
O474 Mn469 2.121 . S
O474 C482 1.258 . S
C475 N476 1.326 1_545 S
C475 C479 1.460 1_545 S
C475 H481 0.929 . S
N476 Mn469 2.257 1_565 S
N476 C475 1.326 1_565 S
N476 C480 1.362 . S
C477 C478 1.258 . S
C477 C480 1.431 . S
C477 C497 1.449 . S
C478 C477 1.258 . S
C478 C479 1.477 . S
C478 H498 0.931 . S
C479 C475 1.460 1_565 S
C479 C478 1.477 . S
C479 H499 0.935 . S
C480 N476 1.362 . S
C480 C477 1.431 . S
C480 C490 1.476 . S
H481 C475 0.929 . S
C482 O473 1.250 . S
C482 O474 1.258 . S
O483 Mn468 2.162 . S
O483 C471 1.281 . S
O484 Mn468 2.297 . S
O484 C471 1.236 . S
N485 Mn469 2.282 1_565 S
N485 C486 1.328 . S
N485 C490 1.318 . S
C486 N485 1.328 . S
C486 C487 1.457 . S
C486 H491 0.929 . S
C487 C486 1.457 . S
C487 C488 1.291 . S
C487 H500 0.931 . S
C488 C487 1.291 . S
C488 C489 1.373 . S
C488 H501 0.929 . S
C489 C488 1.373 . S
C489 C490 1.396 . S
C489 C496 1.403 . S
C490 C480 1.476 . S
C490 N485 1.318 . S
C490 C489 1.396 . S
H491 C486 0.929 . S
O492 Mn468 2.385 . S
O492 C470 1.234 . S
O493 Mn468 2.209 . S
O493 Mn469 2.215 . S
O493 C470 1.283 . S
O494 Mn468 2.086 1_655 S
O494 C472 1.239 1_655 S
O495 Mn469 2.117 . S
O495 C472 1.264 . S
C496 C489 1.403 . S
C496 C497 1.399 . S
C496 H502 0.929 . S
C497 C477 1.449 . S
C497 C496 1.399 . S
C497 H503 0.930 . S
H498 C478 0.931 . S
H499 C479 0.935 . S
H500 C487 0.931 . S
H501 C488 0.929 . S
H502 C496 0.929 . S
H503 C497 0.930 . S
Mn504 O509 2.095 . S
Mn504 O519 2.162 . S
Mn504 O520 2.297 . S
Mn504 O528 2.385 1_554 S
Mn504 O529 2.209 1_554 S
Mn504 O530 2.094 . S
Mn505 O510 2.121 . S
Mn505 N512 2.257 1_655 S
Mn505 N521 2.282 1_654 S
Mn505 O529 2.215 1_554 S
Mn505 O531 2.117 . S
C506 O528 1.234 . S
C506 O529 1.283 . S
C507 O519 1.281 1_556 S
C507 O520 1.235 1_556 S
C508 O530 1.240 . S
C508 O531 1.264 . S
O509 Mn504 2.095 . S
O509 C518 1.250 . S
O510 Mn505 2.121 . S
O510 C518 1.258 . S
C511 N512 1.326 1_655 S
C511 C515 1.460 1_655 S
C511 H517 0.929 . S
N512 Mn505 2.257 1_455 S
N512 C511 1.326 1_455 S
N512 C516 1.362 1_554 S
C513 C514 1.258 . S
C513 C516 1.431 . S
C513 C533 1.449 . S
C514 C513 1.258 . S
C514 C515 1.477 1_556 S
C514 H534 0.931 . S
C515 C511 1.460 1_455 S
C515 C514 1.477 1_554 S
C515 H535 0.936 . S
C516 N512 1.362 1_556 S
C516 C513 1.431 . S
C516 C526 1.476 . S
H517 C511 0.929 . S
C518 O509 1.250 . S
C518 O510 1.258 . S
O519 Mn504 2.162 . S
O519 C507 1.281 1_554 S
O520 Mn504 2.297 . S
O520 C507 1.235 1_554 S
N521 Mn505 2.282 1_456 S
N521 C522 1.328 . S
N521 C526 1.318 . S
C522 N521 1.328 . S
C522 C523 1.457 . S
C522 H527 0.929 . S
C523 C522 1.457 . S
C523 C524 1.291 . S
C523 H536 0.931 . S
C524 C523 1.291 . S
C524 C525 1.373 . S
C524 H537 0.929 . S
C525 C524 1.373 . S
C525 C526 1.396 . S
C525 C532 1.403 . S
C526 C516 1.476 . S
C526 N521 1.318 . S
C526 C525 1.396 . S
H527 C522 0.929 . S
O528 Mn504 2.385 1_556 S
O528 C506 1.234 . S
O529 Mn504 2.209 1_556 S
O529 Mn505 2.215 1_556 S
O529 C506 1.283 . S
O530 Mn504 2.094 . S
O530 C508 1.240 . S
O531 Mn505 2.117 . S
O531 C508 1.264 . S
C532 C525 1.403 . S
C532 C533 1.399 . S
C532 H538 0.929 . S
C533 C513 1.449 . S
C533 C532 1.399 . S
C533 H539 0.930 . S
H534 C514 0.931 . S
H535 C515 0.936 . S
H536 C523 0.931 . S
H537 C524 0.929 . S
H538 C532 0.929 . S
H539 C533 0.930 . S
Mn540 O545 2.095 . S
Mn540 O555 2.162 . S
Mn540 O556 2.297 . S
Mn540 O564 2.385 . S
Mn540 O565 2.209 . S
Mn540 O566 2.094 . S
Mn541 O546 2.121 . S
Mn541 N548 2.257 . S
Mn541 N557 2.282 . S
Mn541 O565 2.215 . S
Mn541 O567 2.117 . S
C542 O564 1.234 . S
C542 O565 1.283 . S
C543 O555 1.281 . S
C543 O556 1.236 . S
C544 O566 1.240 . S
C544 O567 1.264 . S
O545 Mn540 2.095 . S
O545 C554 1.250 . S
O546 Mn541 2.121 . S
O546 C554 1.258 . S
C547 N548 1.326 . S
C547 C551 1.460 . S
C547 H553 0.929 . S
N548 Mn541 2.257 . S
N548 C547 1.326 . S
N548 C552 1.362 . S
C549 C550 1.258 . S
C549 C552 1.431 . S
C549 C569 1.449 . S
C550 C549 1.258 . S
C550 C551 1.477 . S
C550 H570 0.931 . S
C551 C547 1.460 . S
C551 C550 1.477 . S
C551 H571 0.930 . S
C552 N548 1.362 . S
C552 C549 1.431 . S
C552 C562 1.476 . S
H553 C547 0.929 . S
C554 O545 1.250 . S
C554 O546 1.258 . S
O555 Mn540 2.162 . S
O555 C543 1.281 . S
O556 Mn540 2.297 . S
O556 C543 1.236 . S
N557 Mn541 2.282 . S
N557 C558 1.328 . S
N557 C562 1.318 . S
C558 N557 1.328 . S
C558 C559 1.457 1_554 S
C558 H563 0.929 . S
C559 C558 1.457 1_556 S
C559 C560 1.291 . S
C559 H572 0.931 . S
C560 C559 1.291 . S
C560 C561 1.373 . S
C560 H573 0.929 . S
C561 C560 1.373 . S
C561 C562 1.396 1_556 S
C561 C568 1.403 . S
C562 C552 1.476 . S
C562 N557 1.318 . S
C562 C561 1.396 1_554 S
H563 C558 0.929 . S
O564 Mn540 2.385 . S
O564 C542 1.234 . S
O565 Mn540 2.209 . S
O565 Mn541 2.215 . S
O565 C542 1.283 . S
O566 Mn540 2.094 . S
O566 C544 1.240 . S
O567 Mn541 2.117 . S
O567 C544 1.264 . S
C568 C561 1.403 . S
C568 C569 1.399 1_556 S
C568 H574 0.929 . S
C569 C549 1.449 . S
C569 C568 1.399 1_554 S
C569 H575 0.930 . S
H570 C550 0.931 . S
H571 C551 0.930 . S
H572 C559 0.931 . S
H573 C560 0.929 . S
H574 C568 0.929 . S
H575 C569 0.930 . S
C219 C3 1.779 . S
C255 C39 1.779 . S
C75 C147 1.780 . S
C111 C183 1.780 . S
C291 C507 1.780 . S
C543 C327 1.780 . S
C363 C435 1.779 . S
C399 C471 1.779 . S
C4 C364 1.483 1_445 S
C40 C400 1.484 1_655 S
C76 C292 1.483 . S
C112 C328 1.484 1_565 S
C148 C508 1.483 1_455 S
C544 C184 1.484 . S
C220 C436 1.483 1_545 S
C472 C256 1.484 1_445 S
C470 C2 1.229 . S
C38 C506 1.229 . S
C542 C74 1.229 . S
C434 C110 1.229 . S
C398 C146 1.229 . S
C182 C290 1.229 . S
C218 C326 1.229 . S
C254 C362 1.229 . S
C482 C14 1.942 1_556 S
C50 C518 1.942 . S
C86 C554 1.942 . S
C446 C122 1.942 . S
C410 C158 1.942 . S
C302 C194 1.942 . S
C230 C338 1.942 . S
C374 C266 1.942 1_554 S
