# Generated by pormake.
# Topology wiu, (6)-cn, num edge types: 1
# Building blocks:
#     Node 0, Type 0, BuildingBlock: GEDQOX_clean_sbu_0, # of connection points: 6
#     Node 1, Type 0, BuildingBlock: GEDQOX_clean_sbu_0, # of connection points: 6
#     Node 2, Type 0, BuildingBlock: GEDQOX_clean_sbu_0, # of connection points: 6
#     Node 3, Type 0, BuildingBlock: GEDQOX_clean_sbu_0, # of connection points: 6
#     Node 4, Type 0, BuildingBlock: GEDQOX_clean_sbu_0, # of connection points: 6
#     Node 5, Type 0, BuildingBlock: GEDQOX_clean_sbu_0, # of connection points: 6
#     Node 6, Type 0, BuildingBlock: GEDQOX_clean_sbu_0, # of connection points: 6
#     Node 7, Type 0, BuildingBlock: GEDQOX_clean_sbu_0, # of connection points: 6
#     Node 8, Type 0, BuildingBlock: GEDQOX_clean_sbu_0, # of connection points: 6
#     Node 9, Type 0, BuildingBlock: GEDQOX_clean_sbu_0, # of connection points: 6
#     Node 10, Type 0, BuildingBlock: GEDQOX_clean_sbu_0, # of connection points: 6
#     Node 11, Type 0, BuildingBlock: GEDQOX_clean_sbu_0, # of connection points: 6
#     Node 12, Type 0, BuildingBlock: GEDQOX_clean_sbu_0, # of connection points: 6
#     Node 13, Type 0, BuildingBlock: GEDQOX_clean_sbu_0, # of connection points: 6
#     Node 14, Type 0, BuildingBlock: GEDQOX_clean_sbu_0, # of connection points: 6
#     Node 15, Type 0, BuildingBlock: GEDQOX_clean_sbu_0, # of connection points: 6
#     Edge 16, Type (0, 0), BuildingBlock: UVAHIK_clean_linker_0, # of connection points: 2
#     Edge 17, Type (0, 0), BuildingBlock: UVAHIK_clean_linker_0, # of connection points: 2
#     Edge 18, Type (0, 0), BuildingBlock: UVAHIK_clean_linker_0, # of connection points: 2
#     Edge 19, Type (0, 0), BuildingBlock: UVAHIK_clean_linker_0, # of connection points: 2
#     Edge 20, Type (0, 0), BuildingBlock: UVAHIK_clean_linker_0, # of connection points: 2
#     Edge 21, Type (0, 0), BuildingBlock: UVAHIK_clean_linker_0, # of connection points: 2
#     Edge 22, Type (0, 0), BuildingBlock: UVAHIK_clean_linker_0, # of connection points: 2
#     Edge 23, Type (0, 0), BuildingBlock: UVAHIK_clean_linker_0, # of connection points: 2
#     Edge 24, Type (0, 0), BuildingBlock: UVAHIK_clean_linker_0, # of connection points: 2
#     Edge 25, Type (0, 0), BuildingBlock: UVAHIK_clean_linker_0, # of connection points: 2
#     Edge 26, Type (0, 0), BuildingBlock: UVAHIK_clean_linker_0, # of connection points: 2
#     Edge 27, Type (0, 0), BuildingBlock: UVAHIK_clean_linker_0, # of connection points: 2
#     Edge 28, Type (0, 0), BuildingBlock: UVAHIK_clean_linker_0, # of connection points: 2
#     Edge 29, Type (0, 0), BuildingBlock: UVAHIK_clean_linker_0, # of connection points: 2
#     Edge 30, Type (0, 0), BuildingBlock: UVAHIK_clean_linker_0, # of connection points: 2
#     Edge 31, Type (0, 0), BuildingBlock: UVAHIK_clean_linker_0, # of connection points: 2
#     Edge 32, Type (0, 0), BuildingBlock: UVAHIK_clean_linker_0, # of connection points: 2
#     Edge 33, Type (0, 0), BuildingBlock: UVAHIK_clean_linker_0, # of connection points: 2
#     Edge 34, Type (0, 0), BuildingBlock: UVAHIK_clean_linker_0, # of connection points: 2
#     Edge 35, Type (0, 0), BuildingBlock: UVAHIK_clean_linker_0, # of connection points: 2
#     Edge 36, Type (0, 0), BuildingBlock: UVAHIK_clean_linker_0, # of connection points: 2
#     Edge 37, Type (0, 0), BuildingBlock: UVAHIK_clean_linker_0, # of connection points: 2
#     Edge 38, Type (0, 0), BuildingBlock: UVAHIK_clean_linker_0, # of connection points: 2
#     Edge 39, Type (0, 0), BuildingBlock: UVAHIK_clean_linker_0, # of connection points: 2
#     Edge 40, Type (0, 0), BuildingBlock: UVAHIK_clean_linker_0, # of connection points: 2
#     Edge 41, Type (0, 0), BuildingBlock: UVAHIK_clean_linker_0, # of connection points: 2
#     Edge 42, Type (0, 0), BuildingBlock: UVAHIK_clean_linker_0, # of connection points: 2
#     Edge 43, Type (0, 0), BuildingBlock: UVAHIK_clean_linker_0, # of connection points: 2
#     Edge 44, Type (0, 0), BuildingBlock: UVAHIK_clean_linker_0, # of connection points: 2
#     Edge 45, Type (0, 0), BuildingBlock: UVAHIK_clean_linker_0, # of connection points: 2
#     Edge 46, Type (0, 0), BuildingBlock: UVAHIK_clean_linker_0, # of connection points: 2
#     Edge 47, Type (0, 0), BuildingBlock: UVAHIK_clean_linker_0, # of connection points: 2
#     Edge 48, Type (0, 0), BuildingBlock: UVAHIK_clean_linker_0, # of connection points: 2
#     Edge 49, Type (0, 0), BuildingBlock: UVAHIK_clean_linker_0, # of connection points: 2
#     Edge 50, Type (0, 0), BuildingBlock: UVAHIK_clean_linker_0, # of connection points: 2
#     Edge 51, Type (0, 0), BuildingBlock: UVAHIK_clean_linker_0, # of connection points: 2
#     Edge 52, Type (0, 0), BuildingBlock: UVAHIK_clean_linker_0, # of connection points: 2
#     Edge 53, Type (0, 0), BuildingBlock: UVAHIK_clean_linker_0, # of connection points: 2
#     Edge 54, Type (0, 0), BuildingBlock: UVAHIK_clean_linker_0, # of connection points: 2
#     Edge 55, Type (0, 0), BuildingBlock: UVAHIK_clean_linker_0, # of connection points: 2
#     Edge 56, Type (0, 0), BuildingBlock: UVAHIK_clean_linker_0, # of connection points: 2
#     Edge 57, Type (0, 0), BuildingBlock: UVAHIK_clean_linker_0, # of connection points: 2
#     Edge 58, Type (0, 0), BuildingBlock: UVAHIK_clean_linker_0, # of connection points: 2
#     Edge 59, Type (0, 0), BuildingBlock: UVAHIK_clean_linker_0, # of connection points: 2
#     Edge 60, Type (0, 0), BuildingBlock: UVAHIK_clean_linker_0, # of connection points: 2
#     Edge 61, Type (0, 0), BuildingBlock: UVAHIK_clean_linker_0, # of connection points: 2
#     Edge 62, Type (0, 0), BuildingBlock: UVAHIK_clean_linker_0, # of connection points: 2
#     Edge 63, Type (0, 0), BuildingBlock: UVAHIK_clean_linker_0, # of connection points: 2
# Relax obj value: 0.216
# Max RMSD: 0.298
# Mean RMSD: 0.263
data_MOF--net-wiu--node1-GEDQOX_clean_sbu_0--edge1-UVAHIK_clean_linker_0
_symmetry_space_group_name_H-M    P1
_symmetry_Int_Tables_number       1
_symmetry_cell_setting            triclinic
loop_
_symmetry_equiv_pos_as_xyz
'x, y, z'
_cell_length_a     37.464833
_cell_length_b     36.032555
_cell_length_c     106.23889
_cell_angle_alpha  80.436338
_cell_angle_beta   81.587261
_cell_angle_gamma 80.566925
loop_
_atom_site_label
_atom_site_type_symbol
_atom_site_fract_x
_atom_site_fract_y
_atom_site_fract_z
_atom_type_partial_charge
Nd0 Nd 0.35934 0.0251 0.10839 0.0
Nd1 Nd 0.3137 0.0738 0.08942 0.0
C2 C 0.38213 -0.01137 0.13043 0.0
C3 C 0.37938 -0.00515 0.14418 0.0
C4 C 0.34577 0.00064 0.15201 0.0
C5 C 0.3444 0.00626 0.16491 0.0
C6 C 0.37656 0.00647 0.17038 0.0
C7 C 0.41005 0.00085 0.16246 0.0
C8 C 0.4114 -0.00495 0.14962 0.0
C9 C 0.39623 0.07573 0.09164 0.0
C10 C 0.31138 0.10748 0.11529 0.0
C11 C 0.28297 0.1134 0.06956 0.0
C12 C 0.2826 0.11061 0.05594 0.0
C13 C 0.27864 0.14386 0.04703 0.0
C14 C 0.27462 0.14196 0.0343 0.0
C15 C 0.27413 0.10673 0.03029 0.0
C16 C 0.2797 0.0733 0.03916 0.0
C17 C 0.28408 0.07522 0.05186 0.0
C18 C 0.27427 0.03007 0.10826 0.0
C19 C 0.37669 0.00565 0.07885 0.0
O20 O 0.35327 0.98187 0.12603 0.0
O21 O 0.40108 0.01066 0.12198 0.0
O22 O 0.41094 0.04159 0.09588 0.0
O23 O 0.36387 0.08305 0.09688 0.0
O24 O 0.32788 0.07332 0.11958 0.0
O25 O 0.30688 0.11738 0.10306 0.0
O26 O 0.3132 0.12053 0.07284 0.0
O27 O 0.26768 0.0879 0.07788 0.0
O28 O 0.26423 0.06535 0.10393 0.0
O29 O 0.30518 0.01736 0.10251 0.0
O30 O 0.35204 0.03559 0.07634 0.0
O31 O 0.38242 -0.00816 0.09097 0.0
H32 H 0.32047 0.00094 0.14817 0.0
H33 H 0.31801 0.01089 0.17057 0.0
H34 H 0.43549 0.00019 0.16624 0.0
H35 H 0.43775 -0.00944 0.14391 0.0
H36 H 0.27779 0.17138 0.05 0.0
H37 H 0.27126 0.16819 0.02766 0.0
H38 H 0.27921 0.04571 0.03648 0.0
H39 H 0.28743 0.04912 0.05858 0.0
Nd40 Nd 0.62595 0.58294 0.35057 0.0
Nd41 Nd 0.61112 0.54121 0.3307 0.0
C42 C 0.6572 0.60925 0.36743 0.0
C43 C 0.65977 0.60713 0.38117 0.0
C44 C 0.65482 0.57406 0.38992 0.0
C45 C 0.66038 0.57213 0.40277 0.0
C46 C 0.67076 0.60329 0.40705 0.0
C47 C 0.67487 0.63653 0.39825 0.0
C48 C 0.66941 0.63838 0.38545 0.0
C49 C 0.56776 0.61821 0.33851 0.0
C50 C 0.55451 0.54005 0.35688 0.0
C51 C 0.60054 0.5112 0.31076 0.0
C52 C 0.60564 0.51711 0.29663 0.0
C53 C 0.5812 0.50444 0.29008 0.0
C54 C 0.58766 0.50564 0.27675 0.0
C55 C 0.6188 0.51947 0.26973 0.0
C56 C 0.64261 0.53343 0.27628 0.0
C57 C 0.63605 0.53232 0.28963 0.0
C58 C 0.64203 0.4941 0.35079 0.0
C59 C 0.6659 0.60649 0.32105 0.0
O60 O 0.67133 0.57918 0.36208 0.0
O61 O 0.62676 0.6261 0.36321 0.0
O62 O 0.56871 0.61633 0.35078 0.0
O63 O 0.59727 0.6031 0.33285 0.0
O64 O 0.5819 0.54786 0.36221 0.0
O65 O 0.55701 0.54138 0.34425 0.0
O66 O 0.57525 0.53451 0.31653 0.0
O67 O 0.63025 0.50231 0.3164 0.0
O68 O 0.61606 0.48682 0.34526 0.0
O69 O 0.65216 0.52552 0.34546 0.0
O70 O 0.65216 0.57809 0.31798 0.0
O71 O 0.65948 0.61429 0.33298 0.0
H72 H 0.64724 0.54965 0.38677 0.0
H73 H 0.65666 0.54627 0.40935 0.0
H74 H 0.68342 0.6608 0.40116 0.0
H75 H 0.67355 0.66402 0.3788 0.0
H76 H 0.5577 0.49243 0.29534 0.0
H77 H 0.56902 0.49426 0.27202 0.0
H78 H 0.66658 0.54468 0.27112 0.0
H79 H 0.65526 0.54231 0.29451 0.0
Nd80 Nd 0.1658 0.87527 0.58399 0.0
Nd81 Nd 0.2181 0.84717 0.56242 0.0
C82 C 0.13463 0.90261 0.60516 0.0
C83 C 0.14122 0.90602 0.61817 0.0
C84 C 0.17632 0.90741 0.62107 0.0
C85 C 0.18112 0.91485 0.63319 0.0
C86 C 0.15086 0.92104 0.64254 0.0
C87 C 0.11603 0.91802 0.6397 0.0
C88 C 0.11129 0.91066 0.62761 0.0
C89 C 0.13487 0.83545 0.56963 0.0
C90 C 0.21659 0.79121 0.5895 0.0
C91 C 0.25885 0.83095 0.54083 0.0
C92 C 0.2629 0.84201 0.52671 0.0
C93 C 0.23313 0.85797 0.51997 0.0
C94 C 0.23872 0.87058 0.50667 0.0
C95 C 0.2742 0.86784 0.49994 0.0
C96 C 0.30371 0.85137 0.50677 0.0
C97 C 0.29809 0.83861 0.51997 0.0
C98 C 0.24957 0.87741 0.57958 0.0
C99 C 0.15051 0.91756 0.55575 0.0
O100 O 0.15306 0.92209 0.59563 0.0
O101 O 0.13123 0.86886 0.60288 0.0
O102 O 0.11755 0.86445 0.57483 0.0
O103 O 0.16664 0.82652 0.57283 0.0
O104 O 0.19826 0.82134 0.59439 0.0
O105 O 0.22468 0.79181 0.57688 0.0
O106 O 0.23185 0.81261 0.54633 0.0
O107 O 0.26478 0.85626 0.54747 0.0
O108 O 0.26343 0.84706 0.57461 0.0
O109 O 0.21996 0.8921 0.57513 0.0
O110 O 0.17566 0.89066 0.55152 0.0
O111 O 0.14534 0.92155 0.56803 0.0
H112 H 0.1998 0.90378 0.61388 0.0
H113 H 0.20828 0.91707 0.63508 0.0
H114 H 0.0923 0.9218 0.64677 0.0
H115 H 0.08405 0.90951 0.62554 0.0
H116 H 0.20575 0.86124 0.52501 0.0
H117 H 0.2154 0.88335 0.50173 0.0
H118 H 0.33129 0.84825 0.50189 0.0
H119 H 0.32146 0.82652 0.52499 0.0
Nd120 Nd 0.81468 0.50337 0.83351 0.0
Nd121 Nd 0.89079 0.51941 0.83605 0.0
C122 C 0.75772 0.46951 0.8328 0.0
C123 C 0.75098 0.44285 0.82465 0.0
C124 C 0.77547 0.43593 0.81369 0.0
C125 C 0.7709 0.4084 0.80647 0.0
C126 C 0.74171 0.3872 0.81008 0.0
C127 C 0.71697 0.39457 0.821 0.0
C128 C 0.72162 0.42217 0.82823 0.0
C129 C 0.81596 0.57623 0.83831 0.0
C130 C 0.86428 0.5283 0.80678 0.0
C131 C 0.95088 0.54651 0.83845 0.0
C132 C 0.97289 0.5484 0.84883 0.0
C133 C 0.99525 0.57686 0.84734 0.0
C134 C 0.01787 0.57786 0.85667 0.0
C135 C 0.01889 0.55026 0.86776 0.0
C136 C 0.99576 0.52217 0.86934 0.0
C137 C 0.97304 0.52128 0.86 0.0
C138 C 0.88599 0.44577 0.83403 0.0
C139 C 0.84311 0.48501 0.86225 0.0
O140 O 0.78267 0.45596 0.84043 0.0
O141 O 0.76074 0.5042 0.82712 0.0
O142 O 0.7941 0.5679 0.83111 0.0
O143 O 0.83445 0.54624 0.8431 0.0
O144 O 0.83749 0.50948 0.81236 0.0
O145 O 0.88656 0.53902 0.8138 0.0
O146 O 0.91873 0.56739 0.83854 0.0
O147 O 0.95081 0.51277 0.83544 0.0
O148 O 0.90632 0.45494 0.84161 0.0
O149 O 0.87069 0.4748 0.82753 0.0
O150 O 0.87077 0.50388 0.85758 0.0
O151 O 0.82029 0.47866 0.85472 0.0
H152 H 0.79856 0.45135 0.81087 0.0
H153 H 0.79078 0.40305 0.79825 0.0
H154 H 0.69403 0.379 0.82396 0.0
H155 H 0.70262 0.42698 0.83672 0.0
H156 H 0.99553 0.59819 0.83884 0.0
H157 H 0.03455 0.60044 0.85516 0.0
H158 H 0.99583 0.50021 0.87764 0.0
H159 H 0.956 0.49901 0.86141 0.0
Nd160 Nd 0.68208 0.89217 0.9476 0.0
Nd161 Nd 0.63539 0.94025 0.92885 0.0
C162 C 0.71352 0.85362 0.9675 0.0
C163 C 0.71614 0.85878 0.98078 0.0
C164 C 0.71651 0.82739 0.99053 0.0
C165 C 0.72143 0.83127 1.00301 0.0
C166 C 0.7264 0.86663 1.00597 0.0
C167 C 0.72488 0.89831 0.99622 0.0
C168 C 0.71962 0.89446 0.98377 0.0
C169 C 0.71936 0.93926 0.92915 0.0
C170 C 0.61826 0.95931 0.95845 0.0
C171 C 0.61192 0.97761 0.90701 0.0
C172 C 0.61572 0.97302 0.89312 0.0
C173 C 0.64664 0.95207 0.88708 0.0
C174 C 0.64851 0.94679 0.87412 0.0
C175 C 0.61943 0.96218 0.86683 0.0
C176 C 0.58866 0.9833 0.87297 0.0
C177 C 0.58687 -0.01144 0.88589 0.0
C178 C 0.59939 0.88962 0.94583 0.0
C179 C 0.68434 0.85862 0.92171 0.0
O180 O 0.6818 0.84815 0.965 0.0
O181 O 0.72975 0.87631 0.95837 0.0
O182 O 0.73099 0.90397 0.93295 0.0
O183 O 0.68822 0.94985 0.9351 0.0
O184 O 0.64385 0.93015 0.96083 0.0
O185 O 0.61167 0.97276 0.94639 0.0
O186 O 0.64009 0.98509 0.91165 0.0
O187 O 0.59423 0.95346 0.91504 0.0
O188 O 0.58434 0.92353 0.94148 0.0
O189 O 0.63162 0.88214 0.94045 0.0
O190 O 0.66803 0.89294 0.9175 0.0
O191 O 0.68869 0.8485 0.93395 0.0
H192 H 0.71352 0.79971 0.98843 0.0
H193 H 0.7216 0.80645 1.01033 0.0
H194 H 0.72892 0.92589 0.99807 0.0
H195 H 0.7191 0.91922 0.97642 0.0
H196 H 0.66923 0.93942 0.89242 0.0
H197 H 0.67253 0.92998 0.86989 0.0
H198 H 0.56591 -0.0038 0.86776 0.0
H199 H 0.56263 0.00474 0.89027 0.0
Nd200 Nd 0.37669 0.4461 0.70692 0.0
Nd201 Nd 0.36151 0.39779 0.68945 0.0
C202 C 0.38408 0.48493 0.72523 0.0
C203 C 0.37923 0.48422 0.73933 0.0
C204 C 0.40387 0.46108 0.74714 0.0
C205 C 0.4009 0.46382 0.76024 0.0
C206 C 0.37328 0.48974 0.7658 0.0
C207 C 0.34808 0.51205 0.75805 0.0
C208 C 0.35113 0.50943 0.74496 0.0
C209 C 0.34538 0.48616 0.68579 0.0
C210 C 0.31846 0.3843 0.71818 0.0
C211 C 0.34323 0.36952 0.67024 0.0
C212 C 0.3401 0.37582 0.65639 0.0
C213 C 0.32818 0.41196 0.64987 0.0
C214 C 0.32029 0.41596 0.63719 0.0
C215 C 0.32407 0.38387 0.63089 0.0
C216 C 0.33777 0.34812 0.63727 0.0
C217 C 0.34566 0.34417 0.6499 0.0
C218 C 0.40067 0.35724 0.7084 0.0
C219 C 0.43749 0.43722 0.68251 0.0
O220 O 0.41058 0.46136 0.72019 0.0
O221 O 0.35453 0.48956 0.7196 0.0
O222 O 0.37296 0.49486 0.69009 0.0
O223 O 0.33469 0.45675 0.69257 0.0
O224 O 0.34088 0.40575 0.72096 0.0
O225 O 0.31724 0.38099 0.70605 0.0
O226 O 0.32047 0.39142 0.67735 0.0
O227 O 0.37586 0.3616 0.67385 0.0
O228 O 0.37588 0.3443 0.70373 0.0
O229 O 0.40603 0.38946 0.70245 0.0
O230 O 0.41193 0.424 0.67777 0.0
O231 O 0.43223 0.44413 0.69452 0.0
H232 H 0.42592 0.44144 0.7431 0.0
H233 H 0.42051 0.44598 0.766 0.0
H234 H 0.32681 0.53266 0.76198 0.0
H235 H 0.33205 0.52796 0.73914 0.0
H236 H 0.32372 0.43681 0.65472 0.0
H237 H 0.30971 0.44384 0.63253 0.0
H238 H 0.34163 0.323 0.63259 0.0
H239 H 0.35488 0.31609 0.65476 0.0
Nd240 Nd 0.77488 0.13056 0.47593 0.0
Nd241 Nd 0.82975 0.11795 0.45303 0.0
C242 C 0.7296 0.15021 0.49624 0.0
C243 C 0.72529 0.13925 0.51041 0.0
C244 C 0.75537 0.1299 0.51744 0.0
C245 C 0.75036 0.11777 0.53077 0.0
C246 C 0.71525 0.11428 0.53733 0.0
C247 C 0.6853 0.12391 0.53023 0.0
C248 C 0.69029 0.13629 0.51696 0.0
C249 C 0.7563 0.08443 0.45996 0.0
C250 C 0.84725 0.06841 0.48137 0.0
C251 C 0.86999 0.08648 0.43399 0.0
C252 C 0.86824 0.08075 0.42077 0.0
C253 C 0.84009 0.10039 0.41382 0.0
C254 C 0.83868 0.09359 0.40132 0.0
C255 C 0.8654 0.06704 0.39563 0.0
C256 C 0.89329 0.0473 0.40275 0.0
C257 C 0.89468 0.05416 0.4152 0.0
C258 C 0.84541 0.17047 0.46643 0.0
C259 C 0.76808 0.18989 0.44861 0.0
O260 O 0.75669 0.16853 0.4909 0.0
O261 O 0.72465 0.12454 0.48959 0.0
O262 O 0.75188 0.07709 0.47242 0.0
O263 O 0.7703 0.11435 0.45665 0.0
O264 O 0.81868 0.08967 0.48669 0.0
O265 O 0.85426 0.07133 0.46869 0.0
O266 O 0.84875 0.06811 0.44293 0.0
O267 O 0.87123 0.12123 0.4359 0.0
O268 O 0.85127 0.173 0.45397 0.0
O269 O 0.83384 0.1397 0.4714 0.0
O270 O 0.78865 0.16258 0.44291 0.0
O271 O 0.76209 0.18659 0.46139 0.0
H272 H 0.78274 0.13148 0.51261 0.0
H273 H 0.77408 0.11025 0.53589 0.0
H274 H 0.65786 0.12208 0.53494 0.0
H275 H 0.66669 0.1432 0.51175 0.0
H276 H 0.81932 0.1209 0.41806 0.0
H277 H 0.817 0.10943 0.39606 0.0
H278 H 0.91387 0.02615 0.39878 0.0
H279 H 0.91634 0.03847 0.42052 0.0
Nd280 Nd 0.11583 0.44417 0.2002 0.0
Nd281 Nd 0.18899 0.46982 0.20174 0.0
C282 C 0.05829 0.41202 0.1983 0.0
C283 C 0.0326 0.41358 0.18862 0.0
C284 C 0.04359 0.39678 0.17735 0.0
C285 C 0.01888 0.39727 0.16856 0.0
C286 C 0.98239 0.41458 0.17074 0.0
C287 C 0.97154 0.43176 0.18194 0.0
C288 C 0.99624 0.43112 0.19077 0.0
C289 C 0.11412 0.52116 0.19864 0.0
C290 C 0.16184 0.48021 0.17372 0.0
C291 C 0.24259 0.5033 0.20614 0.0
C292 C 0.24742 0.52715 0.2155 0.0
C293 C 0.2188 0.53676 0.22501 0.0
C294 C 0.22233 0.5622 0.23319 0.0
C295 C 0.25459 0.57844 0.232 0.0
C296 C 0.28354 0.56784 0.22266 0.0
C297 C 0.27992 0.54245 0.21446 0.0
C298 C 0.19549 0.40054 0.19357 0.0
C299 C 0.1403 0.44317 0.22921 0.0
O300 O 0.09205 0.39622 0.19562 0.0
O301 O 0.05605 0.44202 0.204 0.0
O302 O 0.09665 0.50577 0.19166 0.0
O303 O 0.13104 0.49611 0.20618 0.0
O304 O 0.14019 0.45451 0.17875 0.0
O305 O 0.17881 0.49571 0.18112 0.0
O306 O 0.21923 0.51898 0.19807 0.0
O307 O 0.23943 0.46768 0.21062 0.0
O308 O 0.21875 0.42415 0.18978 0.0
O309 O 0.17176 0.41184 0.20236 0.0
O310 O 0.16973 0.4569 0.22318 0.0
O311 O 0.11551 0.43472 0.22272 0.0
H312 H 0.07132 0.383 0.17531 0.0
H313 H 0.02849 0.38418 0.15999 0.0
H314 H 0.94366 0.44496 0.18407 0.0
H315 H 0.98674 0.44406 0.19938 0.0
H316 H 0.19343 0.52529 0.22588 0.0
H317 H 0.19935 0.57005 0.24016 0.0
H318 H 0.30891 0.57938 0.22162 0.0
H319 H 0.30224 0.53531 0.20716 0.0
Nd320 Nd 0.86023 0.52562 0.60853 0.0
Nd321 Nd 0.81205 0.57409 0.59071 0.0
C322 C 0.8857 0.48888 0.6301 0.0
C323 C 0.88365 0.49503 0.64388 0.0
C324 C 0.85928 0.47793 0.65365 0.0
C325 C 0.85866 0.48258 0.66661 0.0
C326 C 0.88255 0.5043 0.67026 0.0
C327 C 0.90675 0.5215 0.66044 0.0
C328 C 0.90735 0.51689 0.64752 0.0
C329 C 0.89489 0.57768 0.59162 0.0
C330 C 0.81289 0.60699 0.61644 0.0
C331 C 0.77554 0.61405 0.5722 0.0
C332 C 0.77331 0.61511 0.55848 0.0
C333 C 0.80189 0.59736 0.55048 0.0
C334 C 0.79791 0.59645 0.53765 0.0
C335 C 0.76531 0.61336 0.53266 0.0
C336 C 0.73702 0.63148 0.54073 0.0
C337 C 0.74103 0.6323 0.55353 0.0
C338 C 0.77583 0.52746 0.60973 0.0
C339 C 0.87579 0.5088 0.57874 0.0
O340 O 0.85668 0.48129 0.62602 0.0
O341 O 0.90359 0.51133 0.62141 0.0
O342 O 0.91027 0.54335 0.59525 0.0
O343 O 0.86313 0.58437 0.5974 0.0
O344 O 0.82836 0.57217 0.6205 0.0
O345 O 0.8082 0.6175 0.60426 0.0
O346 O 0.80497 0.62354 0.57532 0.0
O347 O 0.76464 0.58456 0.57975 0.0
O348 O 0.76504 0.56316 0.60632 0.0
O349 O 0.80597 0.51636 0.60323 0.0
O350 O 0.85112 0.53909 0.57668 0.0
O351 O 0.88191 0.49369 0.59073 0.0
H352 H 0.84088 0.46056 0.6513 0.0
H353 H 0.83988 0.46839 0.67381 0.0
H354 H 0.92522 0.53894 0.6627 0.0
H355 H 0.92671 0.53044 0.64037 0.0
H356 H 0.82703 0.58393 0.55419 0.0
H357 H 0.8203 0.58257 0.53164 0.0
H358 H 0.71136 0.64421 0.53727 0.0
H359 H 0.71859 0.64579 0.55963 0.0
Nd360 Nd 0.12461 0.08525 0.84854 0.0
Nd361 Nd 0.11304 0.03674 0.83051 0.0
C362 C 0.1409 0.11216 0.86837 0.0
C363 C 0.14644 0.10135 0.88207 0.0
C364 C 0.1804 0.08275 0.88552 0.0
C365 C 0.18736 0.07714 0.89829 0.0
C366 C 0.16058 0.09007 0.90793 0.0
C367 C 0.12608 0.10718 0.90456 0.0
C368 C 0.11915 0.11293 0.89175 0.0
C369 C 0.08202 0.12434 0.83026 0.0
C370 C 0.05242 0.04006 0.85527 0.0
C371 C 0.10763 -0.00163 0.81186 0.0
C372 C 0.11626 -0.00145 0.79792 0.0
C373 C 0.11441 0.03243 0.78917 0.0
C374 C 0.12306 0.0312 0.77595 0.0
C375 C 0.13405 -0.00387 0.77134 0.0
C376 C 0.13606 0.96243 0.78019 0.0
C377 C 0.1272 0.96368 0.79334 0.0
C378 C 0.14568 -0.00338 0.85136 0.0
C379 C 0.16716 0.10294 0.81988 0.0
O380 O 0.16523 0.09645 0.85996 0.0
O381 O 0.1077 0.11639 0.86534 0.0
O382 O 0.10551 0.1391 0.835 0.0
O383 O 0.08 0.09091 0.83578 0.0
O384 O 0.07684 0.05471 0.8601 0.0
O385 O 0.05803 0.0341 0.84314 0.0
O386 O 0.08165 0.02415 0.81595 0.0
O387 O 0.13548 -0.00804 0.8184 0.0
O388 O 0.12018 0.98607 0.84641 0.0
O389 O 0.15453 0.02766 0.84509 0.0
O390 O 0.1472 0.07936 0.81688 0.0
O391 O 0.1671 0.10664 0.83204 0.0
H392 H 0.20219 0.07373 0.8783 0.0
H393 H 0.21439 0.06434 0.90049 0.0
H394 H 0.10467 0.11697 0.91177 0.0
H395 H 0.09279 0.12752 0.88938 0.0
H396 H 0.10635 0.0597 0.79255 0.0
H397 H 0.1215 0.05761 0.76935 0.0
H398 H 0.14388 0.93497 0.77693 0.0
H399 H 0.12883 0.93727 0.79996 0.0
Nd400 Nd 0.67148 0.37631 0.08348 0.0
Nd401 Nd 0.71665 0.34143 0.06154 0.0
C402 C 0.64593 0.40703 0.1045 0.0
C403 C 0.6526 0.41054 0.11756 0.0
C404 C 0.68268 0.42631 0.11974 0.0
C405 C 0.68547 0.43411 0.13201 0.0
C406 C 0.65809 0.42653 0.14225 0.0
C407 C 0.62897 0.40914 0.14014 0.0
C408 C 0.62623 0.40132 0.12792 0.0
C409 C 0.63319 0.33751 0.07127 0.0
C410 C 0.7184 0.29065 0.08938 0.0
C411 C 0.74963 0.31769 0.0398 0.0
C412 C 0.75387 0.33013 0.02573 0.0
C413 C 0.72517 0.35116 0.01928 0.0
C414 C 0.73109 0.36441 1.00604 0.0
C415 C 0.76588 0.35717 0.99905 0.0
C416 C 0.79428 0.33568 1.00557 0.0
C417 C 0.78831 0.32234 1.01873 0.0
C418 C 0.75575 0.37271 0.0762 0.0
C419 C 0.65368 0.41672 0.05515 0.0
O420 O 0.66585 0.42379 0.09471 0.0
O421 O 0.63827 0.37439 0.1026 0.0
O422 O 0.61947 0.36836 0.07603 0.0
O423 O 0.66543 0.32634 0.0738 0.0
O424 O 0.70564 0.32332 0.09371 0.0
O425 O 0.72029 0.28801 0.07698 0.0
O426 O 0.71824 0.30828 0.04546 0.0
O427 O 0.7642 0.33704 0.04653 0.0
O428 O 0.76661 0.34138 0.07146 0.0
O429 O 0.72522 0.38823 0.07258 0.0
O430 O 0.67682 0.38838 0.05089 0.0
O431 O 0.65045 0.42178 0.06732 0.0
H432 H 0.70332 0.4339 0.11192 0.0
H433 H 0.70815 0.44766 0.13332 0.0
H434 H 0.60778 0.40236 0.14789 0.0
H435 H 0.60276 0.38923 0.12647 0.0
H436 H 0.6984 0.35779 0.0245 0.0
H437 H 0.70866 0.38109 1.00136 0.0
H438 H 0.82123 0.32901 1.00048 0.0
H439 H 0.81086 0.30623 0.0235 0.0
Nd440 Nd 0.31425 -0.00236 0.33487 0.0
Nd441 Nd 0.3854 0.02994 0.33511 0.0
C442 C 0.26274 0.96174 0.33006 0.0
C443 C 0.26148 0.93413 0.3215 0.0
C444 C 0.29251 0.92255 0.31318 0.0
C445 C 0.29213 0.89413 0.30574 0.0
C446 C 0.2607 0.8768 0.30651 0.0
C447 C 0.22949 0.88902 0.31471 0.0
C448 C 0.22993 0.91745 0.32216 0.0
C449 C 0.30388 0.06818 0.3423 0.0
C450 C 0.36009 0.02899 0.30734 0.0
C451 C 0.43747 0.06425 0.34081 0.0
C452 C 0.46132 0.06162 0.35109 0.0
C453 C 0.44718 0.06346 0.36404 0.0
C454 C 0.47059 0.0619 0.3734 0.0
C455 C 0.50875 0.05845 0.37007 0.0
C456 C 0.52265 0.05608 0.35711 0.0
C457 C 0.4993 0.05778 0.34779 0.0
C458 C 0.39461 0.95771 0.32914 0.0
C459 C 0.34385 0.98549 0.36232 0.0
O460 O 0.2829 0.94922 0.33936 0.0
O461 O 0.26725 -0.00379 0.32452 0.0
O462 O 0.28316 0.04235 0.34675 0.0
O463 O 0.32762 0.05779 0.33332 0.0
O464 O 0.34018 0.0035 0.31384 0.0
O465 O 0.37708 0.04899 0.31346 0.0
O466 O 0.4026 0.0763 0.3433 0.0
O467 O 0.44382 0.03668 0.33384 0.0
O468 O 0.41684 0.9819 0.32425 0.0
O469 O 0.37111 0.97083 0.3376 0.0
O470 O 0.3679 0.00847 0.35685 0.0
O471 O 0.32269 0.97326 0.3555 0.0
H472 H 0.31724 0.93495 0.31265 0.0
H473 H 0.31675 0.88505 0.29965 0.0
H474 H 0.20473 0.87658 0.31539 0.0
H475 H 0.20581 0.92602 0.32857 0.0
H476 H 0.41803 0.06636 0.36694 0.0
H477 H 0.45865 0.06416 0.3832 0.0
H478 H 0.55174 0.05261 0.35413 0.0
H479 H 0.51103 0.05617 0.33791 0.0
Nd480 Nd 0.17964 0.39085 0.44846 0.0
Nd481 Nd 0.13644 0.44032 0.42909 0.0
C482 C 0.20962 0.35212 0.46866 0.0
C483 C 0.21396 0.35845 0.48173 0.0
C484 C 0.18459 0.35942 0.49164 0.0
C485 C 0.18956 0.36594 0.50385 0.0
C486 C 0.22387 0.3719 0.50635 0.0
C487 C 0.25315 0.37077 0.49646 0.0
C488 C 0.2483 0.36389 0.48433 0.0
C489 C 0.22157 0.43273 0.42977 0.0
C490 C 0.11877 0.46113 0.45855 0.0
C491 C 0.11395 0.47755 0.40704 0.0
C492 C 0.11764 0.47405 0.39305 0.0
C493 C 0.14893 0.45462 0.38665 0.0
C494 C 0.15043 0.45025 0.3736 0.0
C495 C 0.12061 0.46497 0.3666 0.0
C496 C 0.08952 0.48459 0.3731 0.0
C497 C 0.0881 0.48898 0.38607 0.0
C498 C 0.0969 0.39261 0.44606 0.0
C499 C 0.18165 0.35654 0.42284 0.0
O500 O 0.17709 0.3487 0.4663 0.0
O501 O 0.2273 0.37233 0.45918 0.0
O502 O 0.22978 0.39717 0.43417 0.0
O503 O 0.19074 0.44668 0.43525 0.0
O504 O 0.1432 0.43117 0.46123 0.0
O505 O 0.11315 0.47428 0.44637 0.0
O506 O 0.14177 0.48517 0.41185 0.0
O507 O 0.09649 0.45281 0.41487 0.0
O508 O 0.08383 0.42707 0.44153 0.0
O509 O 0.12906 0.38323 0.44095 0.0
O510 O 0.16894 0.39187 0.41821 0.0
O511 O 0.18278 0.34635 0.43529 0.0
H512 H 0.15777 0.3553 0.48996 0.0
H513 H 0.1665 0.36679 0.5113 0.0
H514 H 0.28002 0.37466 0.49816 0.0
H515 H 0.2715 0.36293 0.47692 0.0
H516 H 0.17205 0.44246 0.39178 0.0
H517 H 0.17477 0.43461 0.36909 0.0
H518 H 0.06618 0.49698 0.36812 0.0
H519 H 0.06357 0.50397 0.39073 0.0
Nd520 Nd 0.87825 0.94564 0.20799 0.0
Nd521 Nd 0.86136 0.90057 0.18969 0.0
C522 C 0.88925 0.98163 0.22654 0.0
C523 C 0.88776 0.97953 0.24052 0.0
C524 C 0.86254 0.96018 0.24916 0.0
C525 C 0.85998 0.96152 0.26236 0.0
C526 C 0.88268 0.98213 0.26709 0.0
C527 C 0.90838 0.0007 0.25836 0.0
C528 C 0.91087 -0.00064 0.24522 0.0
C529 C 0.84618 -0.01048 0.18754 0.0
C530 C 0.81949 0.88446 0.21868 0.0
C531 C 0.84161 0.8764 0.16988 0.0
C532 C 0.83817 0.8856 0.15596 0.0
C533 C 0.80614 0.9069 0.15168 0.0
C534 C 0.8004 0.91061 0.1388 0.0
C535 C 0.8265 0.89301 0.1299 0.0
C536 C 0.85926 0.8732 0.13407 0.0
C537 C 0.86495 0.86938 0.14697 0.0
C538 C 0.90106 0.85701 0.20801 0.0
C539 C 0.93827 0.93764 0.18327 0.0
O540 O 0.9149 0.95882 0.22079 0.0
O541 O 0.85817 0.98592 0.22188 0.0
O542 O 0.87314 -0.00246 0.19238 0.0
O543 O 0.83581 0.95907 0.19367 0.0
O544 O 0.84215 0.90524 0.22168 0.0
O545 O 0.81791 0.88221 0.20647 0.0
O546 O 0.8192 0.8966 0.17764 0.0
O547 O 0.87429 0.86702 0.17343 0.0
O548 O 0.87582 0.84526 0.20318 0.0
O549 O 0.90639 0.88969 0.2025 0.0
O550 O 0.91167 0.92745 0.17818 0.0
O551 O 0.93374 0.94198 0.19553 0.0
H552 H 0.84449 0.94464 0.24568 0.0
H553 H 0.84015 0.94664 0.26886 0.0
H554 H 0.92585 0.01735 0.26162 0.0
H555 H 0.93033 0.01465 0.23867 0.0
H556 H 0.78474 0.91945 0.15836 0.0
H557 H 0.77468 0.9257 0.13598 0.0
H558 H 0.8802 0.85981 0.12743 0.0
H559 H 0.88981 0.85258 0.14997 0.0
Nd560 Nd 0.27914 0.63015 0.97484 0.0
Nd561 Nd 0.33497 0.61766 0.95211 0.0
C562 C 0.23358 0.64911 0.99519 0.0
C563 C 0.22956 0.63765 1.00934 0.0
C564 C 0.25986 0.62393 1.01605 0.0
C565 C 0.25501 0.61106 0.02934 0.0
C566 C 0.21977 0.61123 0.03618 0.0
C567 C 0.18961 0.62531 0.02939 0.0
C568 C 0.19448 0.63836 1.01615 0.0
C569 C 0.26144 0.58411 0.95867 0.0
C570 C 0.35127 0.56747 0.98043 0.0
C571 C 0.37584 0.58737 0.93293 0.0
C572 C 0.3741 0.58309 0.91956 0.0
C573 C 0.34541 0.60279 0.91288 0.0
C574 C 0.34373 0.59716 0.90027 0.0
C575 C 0.37077 0.5718 0.89417 0.0
C576 C 0.39942 0.55223 0.90096 0.0
C577 C 0.40102 0.55785 0.91354 0.0
C578 C 0.35024 0.66944 0.96596 0.0
C579 C 0.27344 0.68992 0.94754 0.0
O580 O 0.26052 0.66773 0.98992 0.0
O581 O 0.22892 0.62353 0.98845 0.0
O582 O 0.25623 0.57694 0.97113 0.0
O583 O 0.2755 0.61403 0.95544 0.0
O584 O 0.32272 0.58898 0.98566 0.0
O585 O 0.35861 0.57038 0.96776 0.0
O586 O 0.35429 0.56862 0.94164 0.0
O587 O 0.37722 0.6217 0.93523 0.0
O588 O 0.3565 0.67243 0.9535 0.0
O589 O 0.33827 0.63873 0.97067 0.0
O590 O 0.29442 0.66266 0.94192 0.0
O591 O 0.26666 0.68641 0.96032 0.0
H592 H 0.28722 0.62261 1.01099 0.0
H593 H 0.27887 0.60008 0.0342 0.0
H594 H 0.16211 0.62638 0.03432 0.0
H595 H 0.17069 0.64863 1.01119 0.0
H596 H 0.32434 0.62238 0.91743 0.0
H597 H 0.3215 0.6129 0.89527 0.0
H598 H 0.42032 0.53203 0.89664 0.0
H599 H 0.42317 0.54218 0.91862 0.0
Nd600 Nd 0.61603 0.93988 0.70101 0.0
Nd601 Nd 0.68302 0.97645 0.7026 0.0
C602 C 0.56455 0.90001 0.69849 0.0
C603 C 0.53668 0.90257 0.68954 0.0
C604 C 0.53681 0.87245 0.68266 0.0
C605 C 0.51066 0.87407 0.67429 0.0
C606 C 0.48336 0.90583 0.6726 0.0
C607 C 0.48342 0.9361 0.67947 0.0
C608 C 0.5097 0.93453 0.6878 0.0
C609 C 0.60302 0.0168 0.70147 0.0
C610 C 0.65427 0.98695 0.67494 0.0
C611 C 0.73084 0.01722 0.70723 0.0
C612 C 0.7337 0.04074 0.71697 0.0
C613 C 0.70701 0.0434 0.72765 0.0
C614 C 0.7078 0.06912 0.7361 0.0
C615 C 0.73524 0.09267 0.73396 0.0
C616 C 0.76253 0.08892 0.72345 0.0
C617 C 0.76169 0.06324 0.71502 0.0
C618 C 0.69873 0.90989 0.69222 0.0
C619 C 0.64143 0.93762 0.72988 0.0
O620 O 0.59879 0.89171 0.69382 0.0
O621 O 0.55982 0.92556 0.70625 0.0
O622 O 0.58742 2e-05 0.69433 0.0
O623 O 0.62353 -0.00691 0.70819 0.0
O624 O 0.63738 0.95712 0.67957 0.0
O625 O 0.66821 0.00439 0.68265 0.0
O626 O 0.70517 0.03072 0.69986 0.0
O627 O 0.73295 0.98044 0.71096 0.0
O628 O 0.7162 0.93873 0.68852 0.0
O629 O 0.67524 0.91537 0.70181 0.0
O630 O 0.66768 0.95682 0.72397 0.0
O631 O 0.6184 0.92632 0.72334 0.0
H632 H 0.55727 0.84751 0.68374 0.0
H633 H 0.51214 0.85043 0.66905 0.0
H634 H 0.46274 0.96086 0.67861 0.0
H635 H 0.5087 0.95835 0.69293 0.0
H636 H 0.68504 0.02637 0.72925 0.0
H637 H 0.6862 0.07153 0.74402 0.0
H638 H 0.78435 0.10619 0.72164 0.0
H639 H 0.78243 0.06158 0.7068 0.0
C640 C 0.40061 0.14173 0.08037 0.0
C641 C 0.41725 0.10433 0.08383 0.0
C642 C 0.42162 0.16959 0.07412 0.0
C643 C 0.51566 0.18477 0.05869 0.0
H644 H 0.49306 0.27584 0.07495 0.0
C645 C 0.57572 0.33078 0.06347 0.0
C646 C 0.61048 0.31432 0.06663 0.0
C647 C 0.55135 0.30812 0.06112 0.0
C648 C 0.49944 0.25105 0.07006 0.0
H649 H 0.46823 0.06594 0.08275 0.0
H650 H 0.50505 0.11454 0.07233 0.0
H651 H 0.45029 0.23048 0.07894 0.0
H652 H 0.6484 0.26206 0.06874 0.0
H653 H 0.60543 0.22207 0.06489 0.0
H654 H 0.56605 0.20474 0.05044 0.0
C655 C 0.47583 0.12255 0.07418 0.0
C656 C 0.47478 0.22497 0.07233 0.0
C657 C 0.45478 0.09471 0.0803 0.0
C658 C 0.6216 0.2753 0.0664 0.0
C659 C 0.59708 0.25252 0.06412 0.0
C660 C 0.54053 0.21084 0.05649 0.0
C661 C 0.45968 0.16055 0.07133 0.0
C662 C 0.48301 0.19098 0.06698 0.0
C663 C 0.56123 0.26855 0.06196 0.0
C664 C 0.53304 0.24377 0.06243 0.0
H665 H 0.37157 0.14972 0.08284 0.0
H666 H 0.40821 0.19844 0.07184 0.0
H667 H 0.52254 0.15917 0.05423 0.0
H668 H 0.56681 0.361 0.06333 0.0
H669 H 0.52416 0.32134 0.05923 0.0
C670 C 0.50162 0.6378 0.33803 0.0
C671 C 0.53726 0.63966 0.33204 0.0
C672 C 0.47279 0.66379 0.33356 0.0
C673 C 0.45082 0.75136 0.30965 0.0
H674 H 0.40064 0.78893 0.34061 0.0
C675 C 0.37103 0.89596 0.33112 0.0
C676 C 0.39673 0.91989 0.32539 0.0
C677 C 0.37503 0.85878 0.32844 0.0
C678 C 0.41336 0.77866 0.33176 0.0
H679 H 0.57094 0.66724 0.3161 0.0
H680 H 0.52118 0.71472 0.30881 0.0
H681 H 0.43219 0.72512 0.34205 0.0
H682 H 0.44503 0.92512 0.31164 0.0
H683 H 0.45313 0.85972 0.3074 0.0
H684 H 0.43399 0.80681 0.29963 0.0
C685 C 0.51481 0.69255 0.31664 0.0
C686 C 0.43161 0.74167 0.33257 0.0
C687 C 0.5435 0.66559 0.32087 0.0
C688 C 0.42513 0.90698 0.31631 0.0
C689 C 0.4294 0.86967 0.31374 0.0
C690 C 0.43265 0.78868 0.30886 0.0
C691 C 0.47943 0.69323 0.3234 0.0
C692 C 0.45216 0.72811 0.32165 0.0
C693 C 0.40517 0.84472 0.32015 0.0
C694 C 0.4153 0.80323 0.32004 0.0
H695 H 0.49631 0.61741 0.34656 0.0
H696 H 0.44573 0.66254 0.33871 0.0
H697 H 0.46558 0.74154 0.30099 0.0
H698 H 0.34858 0.90547 0.33802 0.0
H699 H 0.35559 0.84043 0.33337 0.0
C700 C 0.12388 0.77009 0.56838 0.0
C701 C 0.11538 0.80943 0.56493 0.0
C702 C 0.10072 0.74581 0.5662 0.0
C703 C 0.00361 0.75009 0.56174 0.0
H704 H 0.03374 0.64151 0.5636 0.0
C705 C 0.90784 0.64436 0.5861 0.0
C706 C 0.91489 0.6067 0.58366 0.0
C707 C 0.93046 0.67059 0.57977 0.0
C708 C 0.02448 0.67178 0.56277 0.0
H709 H 0.07868 0.85435 0.55535 0.0
H710 H 0.03948 0.81187 0.55067 0.0
H711 H 0.07919 0.68378 0.55837 0.0
H712 H 0.94847 0.56732 0.57197 0.0
H713 H 0.98653 0.6136 0.56023 0.0
H714 H 0.9488 0.73823 0.56554 0.0
C715 C 0.06273 0.79962 0.5557 0.0
C716 C 0.05087 0.69615 0.56001 0.0
C717 C 0.08533 0.82399 0.55825 0.0
C718 C 0.94305 0.59621 0.57414 0.0
C719 C 0.965 0.62272 0.5675 0.0
C720 C 0.97716 0.72582 0.56411 0.0
C721 C 0.06909 0.76035 0.5602 0.0
C722 C 0.04097 0.73547 0.56013 0.0
C723 C 0.95996 0.65992 0.57058 0.0
C724 C 0.98728 0.68616 0.56533 0.0
H725 H 0.14691 0.75832 0.5736 0.0
H726 H 0.10657 0.71599 0.57 0.0
H727 H 0.99452 0.78009 0.56195 0.0
H728 H 0.88621 0.65296 0.59345 0.0
H729 H 0.9258 0.69859 0.58264 0.0
C730 C 0.05651 0.18529 0.81803 0.0
C731 C 0.05245 0.14801 0.8237 0.0
C732 C 0.02637 0.21068 0.81429 0.0
C733 C 0.95833 0.26122 0.80668 0.0
H734 H 0.89151 0.26211 0.8382 0.0
C735 C 0.87605 0.40025 0.81997 0.0
C736 C 0.88688 0.40683 0.83143 0.0
C737 C 0.88193 0.36352 0.81671 0.0
C738 C 0.9093 0.26194 0.82919 0.0
H739 H 0.01485 0.10655 0.82867 0.0
H740 H 0.96181 0.15132 0.82232 0.0
H741 H 0.93235 0.20417 0.83438 0.0
H742 H 0.90934 0.38039 0.84895 0.0
H743 H 0.91946 0.31636 0.84334 0.0
H744 H 0.9376 0.32012 0.80211 0.0
C745 C 0.98824 0.16092 0.8208 0.0
C746 C 0.93256 0.22867 0.82694 0.0
C747 C 0.01856 0.13537 0.82443 0.0
C748 C 0.90108 0.37599 0.84001 0.0
C749 C 0.90646 0.33932 0.83685 0.0
C750 C 0.93495 0.29448 0.80891 0.0
C751 C 0.99157 0.19927 0.81625 0.0
C752 C 0.95902 0.22879 0.81608 0.0
C753 C 0.89811 0.33289 0.82498 0.0
C754 C 0.91206 0.29574 0.82061 0.0
H755 H 0.08251 0.19551 0.81723 0.0
H756 H 0.02988 0.24008 0.81092 0.0
H757 H 0.97809 0.26189 0.79814 0.0
H758 H 0.86492 0.42369 0.81322 0.0
H759 H 0.87527 0.35929 0.80751 0.0
C760 C 0.59555 0.82551 0.95906 0.0
C761 C 0.57947 0.86282 0.95509 0.0
C762 C 0.57485 0.79987 0.96709 0.0
C763 C 0.48153 0.79382 0.98562 0.0
H764 H 0.49253 0.69899 0.97184 0.0
C765 C 0.372 0.72749 0.96959 0.0
C766 C 0.37106 0.68841 0.97297 0.0
C767 C 0.3977 0.74447 0.97401 0.0
C768 C 0.48959 0.72483 0.9761 0.0
H769 H 0.53018 0.90345 0.95701 0.0
H770 H 0.49391 0.85899 0.97032 0.0
H771 H 0.54162 0.73742 0.96696 0.0
H772 H 0.39458 0.63643 0.98406 0.0
H773 H 0.44113 0.66601 0.99125 0.0
H774 H 0.42742 0.78296 0.99336 0.0
C775 C 0.52248 0.84916 0.96766 0.0
C776 C 0.51781 0.74695 0.97333 0.0
C777 C 0.54317 0.87468 0.95979 0.0
C778 C 0.39466 0.6668 0.98146 0.0
C779 C 0.42119 0.68359 0.98556 0.0
C780 C 0.45296 0.77212 0.9881 0.0
C781 C 0.53768 0.81111 0.97117 0.0
C782 C 0.51325 0.78284 0.9774 0.0
C783 C 0.42347 0.72233 0.98155 0.0
C784 C 0.45622 0.73843 0.98281 0.0
H785 H 0.62374 0.8159 0.95569 0.0
H786 H 0.58765 0.77098 0.96976 0.0
H787 H 0.47757 0.82064 0.98932 0.0
H788 H 0.35414 0.74447 0.96298 0.0
H789 H 0.39939 0.7743 0.97064 0.0
C790 C 0.56186 0.07803 0.69813 0.0
C791 C 0.59044 0.05571 0.70422 0.0
C792 C 0.54627 0.11268 0.70206 0.0
C793 C 0.55736 0.18942 0.71893 0.0
H794 H 0.45178 0.2009 0.72338 0.0
C795 C 0.46494 0.33031 0.71083 0.0
C796 C 0.4278 0.33134 0.71538 0.0
C797 C 0.48959 0.29833 0.71462 0.0
C798 C 0.48121 0.19812 0.72259 0.0
H799 H 0.62706 0.05291 0.71851 0.0
H800 H 0.59961 0.11396 0.72538 0.0
H801 H 0.48643 0.14126 0.71862 0.0
H802 H 0.38774 0.30376 0.72884 0.0
H803 H 0.43111 0.2489 0.73613 0.0
H804 H 0.55194 0.24694 0.72261 0.0
C805 C 0.58921 0.10445 0.71766 0.0
C806 C 0.50105 0.16399 0.71961 0.0
C807 C 0.60478 0.06961 0.71374 0.0
C808 C 0.41632 0.30296 0.72508 0.0
C809 C 0.44112 0.27157 0.72917 0.0
C810 C 0.53739 0.22385 0.72196 0.0
C811 C 0.55903 0.12559 0.71213 0.0
C812 C 0.53916 0.15989 0.7172 0.0
C813 C 0.47733 0.26745 0.72316 0.0
C814 C 0.49901 0.22904 0.72333 0.0
H815 H 0.55062 0.06811 0.69068 0.0
H816 H 0.52351 0.12898 0.69745 0.0
H817 H 0.58684 0.18666 0.71725 0.0
H818 H 0.47426 0.35216 0.70335 0.0
H819 H 0.51722 0.29631 0.7098 0.0
C820 C 0.0383 0.37975 0.45887 0.0
C821 C 0.07509 0.36702 0.4551 0.0
C822 C 0.01623 0.3552 0.46657 0.0
C823 C 0.01062 0.25296 0.47374 0.0
H824 H 0.91798 0.29175 0.49184 0.0
C825 C 0.88892 0.17087 0.48198 0.0
C826 C 0.8654 0.19097 0.47323 0.0
C827 C 0.91469 0.1891 0.48593 0.0
C828 C 0.94409 0.28022 0.48712 0.0
H829 H 0.1186 0.31961 0.45715 0.0
H830 H 0.08018 0.27659 0.47098 0.0
H831 H 0.96783 0.32984 0.48768 0.0
H832 H 0.84771 0.24586 0.46259 0.0
H833 H 0.89161 0.27819 0.46993 0.0
H834 H 0.98629 0.20381 0.47293 0.0
C835 C 0.06804 0.30531 0.46769 0.0
C836 C 0.97251 0.30213 0.48456 0.0
C837 C 0.0901 0.32989 0.45979 0.0
C838 C 0.86556 0.23003 0.4694 0.0
C839 C 0.8905 0.24846 0.47364 0.0
C840 C 0.9825 0.2307 0.47659 0.0
C841 C 0.03053 0.31734 0.47087 0.0
C842 C 0.00524 0.28988 0.47706 0.0
C843 C 0.91628 0.22778 0.48147 0.0
C844 C 0.94841 0.24514 0.48262 0.0
H845 H 0.02609 0.4084 0.45548 0.0
H846 H 0.98748 0.36557 0.46853 0.0
H847 H 0.03521 0.24243 0.46793 0.0
H848 H 0.88941 0.14054 0.48494 0.0
H849 H 0.93462 0.17263 0.49185 0.0
C850 C 0.1146 0.5731 0.21148 0.0
C851 C 0.1044 0.56096 0.20077 0.0
C852 C 0.09892 0.60841 0.21502 0.0
C853 C 0.01215 0.66707 0.2138 0.0
H854 H 0.055 0.74984 0.22189 0.0
C855 C 0.91814 0.79845 0.22287 0.0
C856 C 0.92869 0.83 0.21442 0.0
C857 C 0.94409 0.76733 0.22622 0.0
C858 C 0.04271 0.72671 0.2198 0.0
H859 H 0.07321 0.57737 0.18459 0.0
H860 H 0.04593 0.63897 0.19074 0.0
H861 H 0.09462 0.69242 0.21586 0.0
H862 H 0.97449 0.85634 0.20405 0.0
H863 H 0.01966 0.80116 0.20924 0.0
H864 H 0.9607 0.70096 0.217 0.0
C865 C 0.06544 0.62099 0.19652 0.0
C866 C 0.06533 0.69402 0.21637 0.0
C867 C 0.08105 0.58586 0.193 0.0
C868 C 0.96583 0.83202 0.21053 0.0
C869 C 0.99173 0.80045 0.21359 0.0
C870 C 0.98972 0.69933 0.21725 0.0
C871 C 0.07295 0.63173 0.20787 0.0
C872 C 0.05011 0.66464 0.2129 0.0
C873 C 0.9807 0.76687 0.22075 0.0
C874 C 0.00467 0.73006 0.21994 0.0
H875 H 0.13283 0.5544 0.21758 0.0
H876 H 0.10516 0.61627 0.22378 0.0
H877 H -0.00021 0.64438 0.21141 0.0
H878 H 0.88958 0.7968 0.22615 0.0
H879 H 0.93496 0.74231 0.23212 0.0
C880 C 0.43833 0.97871 0.06734 0.0
C881 C 0.40086 -0.00767 0.06722 0.0
C882 C 0.46184 0.97463 0.05572 0.0
C883 C 0.462 0.97346 0.01981 0.0
H884 H 0.56011 -0.00276 1.01717 0.0
C885 C 0.55645 0.98529 0.9701 0.0
C886 C 0.594 0.97198 0.97016 0.0
C887 C 0.53298 -0.01093 0.98174 0.0
C888 C 0.53297 -0.00996 1.01765 0.0
H889 H 0.35924 0.01128 0.05445 0.0
H890 H 0.39927 0.00399 0.03463 0.0
H891 H 0.52065 -0.00209 0.03754 0.0
H892 H 0.63577 0.95315 0.98289 0.0
H893 H 0.59576 0.9599 1.00276 0.0
H894 H 0.47432 0.96559 0.99993 0.0
C895 C 0.41097 -0.00399 0.04359 0.0
C896 C 0.51009 -0.00966 0.0295 0.0
C897 C 0.3877 0.00025 0.05511 0.0
C898 C 0.60724 0.96396 0.98226 0.0
C899 C 0.584 0.9679 0.99381 0.0
C900 C 0.48488 0.97315 1.00796 0.0
C901 C 0.44875 0.98383 0.04355 0.0
C902 C 0.47401 0.98211 0.03088 0.0
C903 C 0.54617 0.97986 0.9939 0.0
C904 C 0.52096 0.98142 1.00658 0.0
H905 H 0.4499 0.97299 0.07635 0.0
H906 H 0.49049 0.96468 0.05632 0.0
H907 H 0.43485 0.96628 0.02029 0.0
H908 H 0.54482 -0.00892 0.9611 0.0
H909 H 0.50429 -0.00114 0.98117 0.0
C910 C 0.68555 0.63 0.29749 0.0
C911 C 0.68468 0.6331 0.31059 0.0
C912 C 0.69997 0.65694 0.28767 0.0
C913 C 0.7259 0.75625 0.28174 0.0
H914 H 0.77151 0.72705 0.24901 0.0
C915 C 0.80199 0.85996 0.2423 0.0
C916 C 0.8001 0.85863 0.22922 0.0
C917 C 0.78721 0.8333 0.25213 0.0
C918 C 0.75849 0.73602 0.25801 0.0
H919 H 0.69942 0.66741 0.32342 0.0
H920 H 0.7253 0.71342 0.30649 0.0
H921 H 0.749 0.67925 0.266 0.0
H922 H 0.78043 0.82757 0.21646 0.0
H923 H 0.75458 0.78158 0.23349 0.0
H924 H 0.73584 0.81298 0.27375 0.0
C925 C 0.71406 0.69062 0.30369 0.0
C926 C 0.74541 0.70835 0.26786 0.0
C927 C 0.69947 0.66378 0.3135 0.0
C928 C 0.78237 0.82995 0.22636 0.0
C929 C 0.76781 0.80312 0.23619 0.0
C930 C 0.73917 0.78387 0.27191 0.0
C931 C 0.71428 0.68808 0.29054 0.0
C932 C 0.72877 0.71782 0.27995 0.0
C933 C 0.77021 0.80402 0.24928 0.0
C934 C 0.75569 0.77436 0.25983 0.0
H935 H 0.67416 0.60722 0.29474 0.0
H936 H 0.69888 0.65376 0.27779 0.0
H937 H 0.71274 0.7654 0.2907 0.0
H938 H 0.81561 0.88122 0.24498 0.0
H939 H 0.79013 0.83507 0.26199 0.0
C940 C 0.09159 0.96136 0.55219 0.0
C941 C 0.12266 0.93808 0.5472 0.0
C942 C 0.0625 0.9756 0.54491 0.0
C943 C 0.02164 0.9581 0.51652 0.0
H944 H 0.96237 0.05508 0.52063 0.0
C945 C 0.90798 0.02678 0.48392 0.0
C946 C 0.87608 0.04764 0.48947 0.0
C947 C 0.93748 0.01228 0.49099 0.0
C948 C 0.97827 0.02767 0.51945 0.0
H949 H 0.14743 0.9128 0.53028 0.0
H950 H 0.09747 0.93838 0.51752 0.0
H951 H 0.01525 0.03433 0.53226 0.0
H952 H 0.8504 0.06851 0.5071 0.0
H953 H 0.9014 0.04302 0.5194 0.0
H954 H 0.98473 0.95171 0.50361 0.0
C955 C 0.0951 0.94502 0.52721 0.0
C956 C 0.00884 0.01567 0.52616 0.0
C957 C 0.12418 0.93067 0.5345 0.0
C958 C 0.87426 0.05247 0.50246 0.0
C959 C 0.90386 0.03819 0.5095 0.0
C960 C 0.99116 0.9702 0.50976 0.0
C961 C 0.06338 0.9672 0.53235 0.0
C962 C 0.03109 0.98059 0.52487 0.0
C963 C 0.93625 0.01838 0.50383 0.0
C964 C 0.96883 0.00515 0.51114 0.0
H965 H 0.08898 0.96748 0.56195 0.0
H966 H 0.03867 -0.00792 0.54939 0.0
H967 H 0.03738 0.93061 0.51537 0.0
H968 H 0.91071 0.02262 0.47395 0.0
H969 H 0.96186 -0.00252 0.4862 0.0
C970 C 0.72838 0.32176 0.80891 0.0
C971 C 0.7377 0.35701 0.8026 0.0
C972 C 0.72601 0.29288 0.80187 0.0
C973 C 0.71585 0.27583 0.76924 0.0
H974 H 0.75812 0.17253 0.78109 0.0
C975 C 0.74222 0.15875 0.73678 0.0
C976 C 0.73457 0.12221 0.74228 0.0
C977 C 0.74104 0.1869 0.74447 0.0
C978 C 0.74577 0.20113 0.77773 0.0
H979 H 0.75102 0.38978 0.78393 0.0
H980 H 0.74749 0.33929 0.77169 0.0
H981 H 0.75843 0.22274 0.7939 0.0
H982 H 0.71989 0.08657 0.76024 0.0
H983 H 0.71743 0.13597 0.7737 0.0
H984 H 0.70348 0.25433 0.75302 0.0
C985 C 0.74171 0.33403 0.78207 0.0
C986 C 0.74593 0.22992 0.78508 0.0
C987 C 0.74413 0.36285 0.78909 0.0
C988 C 0.72571 0.11449 0.75569 0.0
C989 C 0.72462 0.14269 0.76341 0.0
C990 C 0.71571 0.24708 0.7619 0.0
C991 C 0.7328 0.29862 0.78837 0.0
C992 C 0.73125 0.26768 0.78086 0.0
C993 C 0.73216 0.17927 0.75787 0.0
C994 C 0.73097 0.20945 0.76599 0.0
H995 H 0.72361 0.31619 0.81931 0.0
H996 H 0.71874 0.26608 0.80702 0.0
H997 H 0.70372 0.30447 0.76582 0.0
H998 H 0.74866 0.16583 0.72646 0.0
H999 H 0.74743 0.21462 0.73991 0.0
C1000 C 0.27938 0.33152 0.72603 0.0
C1001 C 0.2994 0.35845 0.72881 0.0
C1002 C 0.26501 0.30448 0.73582 0.0
C1003 C 0.2747 0.25782 0.76998 0.0
H1004 H 0.18474 0.22123 0.7675 0.0
C1005 C 0.20483 0.15706 0.81225 0.0
C1006 C 0.18578 0.12948 0.80935 0.0
C1007 C 0.21916 0.18426 0.80251 0.0
C1008 C 0.21019 0.23059 0.76834 0.0
H1009 H 0.31916 0.37771 0.74444 0.0
H1010 H 0.29364 0.33151 0.76142 0.0
H1011 H 0.2072 0.26993 0.75085 0.0
H1012 H 0.16762 0.10931 0.79357 0.0
H1013 H 0.19284 0.15601 0.7767 0.0
H1014 H 0.27759 0.21854 0.78751 0.0
C1015 C 0.28947 0.33071 0.75161 0.0
C1016 C 0.2232 0.25883 0.7587 0.0
C1017 C 0.30386 0.35775 0.74181 0.0
C1018 C 0.18214 0.12979 0.7963 0.0
C1019 C 0.19638 0.15706 0.78656 0.0
C1020 C 0.26165 0.22963 0.77964 0.0
C1021 C 0.27006 0.30319 0.74881 0.0
C1022 C 0.25577 0.27308 0.75929 0.0
C1023 C 0.2149 0.18514 0.78946 0.0
C1024 C 0.22912 0.21535 0.77903 0.0
H1025 H 0.27554 0.3306 0.71619 0.0
H1026 H 0.25079 0.2838 0.73308 0.0
H1027 H 0.30019 0.26711 0.77083 0.0
H1028 H 0.20806 0.15823 0.82213 0.0
H1029 H 0.23274 0.20537 0.80531 0.0
C1030 C 0.24456 0.8132 0.30465 0.0
C1031 C 0.26071 0.84553 0.29899 0.0
C1032 C 0.24477 0.78359 0.29764 0.0
C1033 C 0.2921 0.74214 0.26904 0.0
H1034 H 0.20533 0.69389 0.27221 0.0
C1035 C 0.27377 0.6399 0.23474 0.0
C1036 C 0.25743 0.60745 0.24012 0.0
C1037 C 0.27523 0.66798 0.2422 0.0
C1038 C 0.22993 0.70674 0.27134 0.0
H1039 H 0.28941 0.87228 0.28149 0.0
H1040 H 0.28963 0.82067 0.26923 0.0
H1041 H 0.20554 0.74506 0.28458 0.0
H1042 H 0.23058 0.57872 0.25765 0.0
H1043 H 0.23303 0.62787 0.27066 0.0
H1044 H 0.31635 0.70398 0.2557 0.0
C1045 C 0.2773 0.81795 0.27915 0.0
C1046 C 0.23006 0.73608 0.27843 0.0
C1047 C 0.27713 0.84755 0.28617 0.0
C1048 C 0.2429 0.6036 0.25317 0.0
C1049 C 0.24429 0.63175 0.26062 0.0
C1050 C 0.29194 0.71284 0.26193 0.0
C1051 C 0.26111 0.78562 0.28481 0.0
C1052 C 0.26112 0.75419 0.27734 0.0
C1053 C 0.26031 0.66435 0.2552 0.0
C1054 C 0.26082 0.69487 0.26298 0.0
H1055 H 0.23225 0.81047 0.31457 0.0
H1056 H 0.23259 0.75883 0.30235 0.0
H1057 H 0.31667 0.75505 0.26813 0.0
H1058 H 0.28464 0.64412 0.22467 0.0
H1059 H 0.28726 0.69301 0.23768 0.0
C1060 C 0.10735 0.46708 0.48224 0.0
C1061 C 0.09444 0.47488 0.47009 0.0
C1062 C 0.08387 0.47125 0.49372 0.0
C1063 C 0.98899 0.51196 0.50743 0.0
H1064 H 0.01117 0.43936 0.53749 0.0
C1065 C 0.88672 0.50571 0.5548 0.0
C1066 C 0.89986 0.49667 0.56691 0.0
C1067 C 0.90993 0.50196 0.54322 0.0
C1068 C 0.00451 0.46032 0.52932 0.0
H1069 H 0.04553 0.49395 0.46086 0.0
H1070 H 0.00449 0.50172 0.48083 0.0
H1071 H 0.05107 0.43685 0.5173 0.0
H1072 H 0.94882 0.47588 0.57596 0.0
H1073 H 0.98937 0.46908 0.55587 0.0
H1074 H 0.94247 0.5355 0.51945 0.0
C1075 C 0.03325 0.49264 0.48147 0.0
C1076 C 0.0277 0.45891 0.51757 0.0
C1077 C 0.05697 0.48849 0.46989 0.0
C1078 C 0.93723 0.4824 0.56695 0.0
C1079 C 0.96066 0.47875 0.5553 0.0
C1080 C 0.9658 0.51341 0.51918 0.0
C1081 C 0.04607 0.4832 0.49369 0.0
C1082 C 0.0206 0.48475 0.50633 0.0
C1083 C 0.94766 0.48919 0.54312 0.0
C1084 C 0.97294 0.48759 0.53043 0.0
H1085 H 0.13585 0.45634 0.48296 0.0
H1086 H 0.09558 0.46453 0.5027 0.0
H1087 H 0.98234 0.53286 0.49923 0.0
H1088 H 0.85823 0.51672 0.55422 0.0
H1089 H 0.89802 0.50944 0.5343 0.0
C1090 C 0.59448 0.46058 0.05199 0.0
C1091 C 0.62577 0.43808 0.04676 0.0
C1092 C 0.5652 0.47501 0.04481 0.0
C1093 C 0.53838 0.49359 1.01139 0.0
H1094 H 0.44065 0.49032 0.02913 0.0
C1095 C 0.4121 0.52629 0.98314 0.0
C1096 C 0.37987 0.54673 0.98863 0.0
C1097 C 0.44145 0.51203 0.99031 0.0
C1098 C 0.46764 0.49196 0.02398 0.0
H1099 H 0.65069 0.41448 0.02954 0.0
H1100 H 0.60011 0.43975 1.01706 0.0
H1101 H 0.49297 0.4701 0.04108 0.0
H1102 H 0.35349 0.56721 1.00625 0.0
H1103 H 0.40433 0.54274 1.01863 0.0
H1104 H 0.51314 0.51568 0.9943 0.0
C1105 C 0.59814 0.44643 0.02673 0.0
C1106 C 0.49786 0.48031 0.03089 0.0
C1107 C 0.62734 0.43183 0.03393 0.0
C1108 C 0.37755 0.55131 1.00166 0.0
C1109 C 0.40695 0.53716 1.00881 0.0
C1110 C 0.50816 0.50538 1.00448 0.0
C1111 C 0.5662 0.46761 0.03212 0.0
C1112 C 0.5338 0.48087 0.02473 0.0
C1113 C 0.43974 0.51783 1.00321 0.0
C1114 C 0.47218 0.50474 1.01063 0.0
H1115 H 0.5919 0.46592 0.06184 0.0
H1116 H 0.54151 0.4917 0.04929 0.0
H1117 H 0.56542 0.49504 1.00626 0.0
H1118 H 0.41515 0.52214 0.97316 0.0
H1119 H 0.46568 0.49666 0.98564 0.0
C1120 C 0.26826 0.16399 0.12138 0.0
C1121 C 0.29679 0.1348 0.12438 0.0
C1122 C 0.25374 0.18956 0.12997 0.0
C1123 C 0.25216 0.20572 0.16403 0.0
H1124 H 0.21865 0.30968 0.14974 0.0
C1125 C 0.23189 0.3381 0.1904 0.0
C1126 C 0.19967 0.36361 0.189 0.0
C1127 C 0.23968 0.30639 0.18394 0.0
C1128 C 0.22747 0.28062 0.15386 0.0
H1129 H 0.33252 0.10939 0.13875 0.0
H1130 H 0.30863 0.15524 0.15349 0.0
H1131 H 0.24194 0.26296 0.13539 0.0
H1132 H 0.15038 0.37646 0.1798 0.0
H1133 H 0.1642 0.32124 0.16829 0.0
H1134 H 0.23943 0.22465 0.18252 0.0
C1135 C 0.2965 0.15779 0.14468 0.0
C1136 C 0.24075 0.25366 0.14565 0.0
C1137 C 0.31051 0.13165 0.13618 0.0
C1138 C 0.17485 0.35655 0.18132 0.0
C1139 C 0.18296 0.32526 0.17463 0.0
C1140 C 0.23954 0.23299 0.17224 0.0
C1141 C 0.26789 0.1872 0.1417 0.0
C1142 C 0.2533 0.21575 0.15058 0.0
C1143 C 0.21581 0.30036 0.17569 0.0
C1144 C 0.22705 0.27066 0.16722 0.0
H1145 H 0.25665 0.16673 0.11245 0.0
H1146 H 0.23112 0.211 0.12742 0.0
H1147 H 0.26089 0.17679 0.16826 0.0
H1148 H 0.25169 0.34353 0.19611 0.0
H1149 H 0.26535 0.28788 0.1848 0.0
C1150 C 0.4875 0.535 0.359 0.0
C1151 C 0.51923 0.53309 0.3649 0.0
C1152 C 0.45393 0.52975 0.36636 0.0
C1153 C 0.41421 0.48354 0.39765 0.0
H1154 H 0.32347 0.54466 0.38883 0.0
C1155 C 0.27716 0.43013 0.41398 0.0
C1156 C 0.24947 0.45274 0.42092 0.0
C1157 C 0.30801 0.44472 0.40736 0.0
C1158 C 0.34858 0.52763 0.39149 0.0
H1159 H 0.54005 0.5241 0.38331 0.0
H1160 H 0.4816 0.51395 0.39616 0.0
H1161 H 0.3819 0.56067 0.37714 0.0
H1162 H 0.23172 0.5096 0.42562 0.0
H1163 H 0.28603 0.53588 0.41356 0.0
H1164 H 0.38101 0.44973 0.41166 0.0
C1165 C 0.48277 0.51979 0.38578 0.0
C1166 C 0.38208 0.53654 0.38473 0.0
C1167 C 0.51633 0.52564 0.37841 0.0
C1168 C 0.25243 0.49146 0.42034 0.0
C1169 C 0.2836 0.50637 0.4135 0.0
C1170 C 0.38083 0.47433 0.40424 0.0
C1171 C 0.45102 0.52187 0.37986 0.0
C1172 C 0.41537 0.51432 0.38762 0.0
C1173 C 0.31228 0.48267 0.40729 0.0
C1174 C 0.34753 0.49587 0.40115 0.0
H1175 H 0.48844 0.54094 0.34863 0.0
H1176 H 0.43031 0.53112 0.36142 0.0
H1177 H 0.43909 0.46561 0.40011 0.0
H1178 H 0.27568 0.40031 0.41403 0.0
H1179 H 0.32907 0.42589 0.40247 0.0
C1180 C 0.25914 0.73079 0.59559 0.0
C1181 C 0.22751 0.75621 0.59855 0.0
C1182 C 0.26993 0.69894 0.60453 0.0
C1183 C 0.25051 0.65791 0.6397 0.0
H1184 H 0.31183 0.56898 0.6285 0.0
C1185 C 0.29095 0.51793 0.6745 0.0
C1186 C 0.32888 0.5096 0.67465 0.0
C1187 C 0.27624 0.54508 0.66475 0.0
C1188 C 0.29451 0.59357 0.63176 0.0
H1189 H 0.18163 0.7672 0.61304 0.0
H1190 H 0.19876 0.71107 0.62817 0.0
H1191 H 0.29042 0.62164 0.61253 0.0
H1192 H 0.38107 0.52151 0.66441 0.0
H1193 H 0.35552 0.56719 0.64714 0.0
H1194 H 0.25398 0.6288 0.65895 0.0
C1195 C 0.21661 0.71618 0.61928 0.0
C1196 C 0.28249 0.62418 0.62259 0.0
C1197 C 0.20643 0.74846 0.6105 0.0
C1198 C 0.35172 0.52735 0.66453 0.0
C1199 C 0.33712 0.55347 0.65463 0.0
C1200 C 0.26179 0.6269 0.64882 0.0
C1201 C 0.24888 0.69099 0.61659 0.0
C1202 C 0.26063 0.65726 0.62638 0.0
C1203 C 0.29924 0.56341 0.65478 0.0
C1204 C 0.28429 0.59457 0.64498 0.0
H1205 H 0.27617 0.73612 0.58651 0.0
H1206 H 0.29529 0.68111 0.60202 0.0
H1207 H 0.2346 0.68277 0.64323 0.0
H1208 H 0.27272 0.50495 0.68223 0.0
H1209 H 0.24692 0.55216 0.6651 0.0
C1210 C 0.03431 0.54006 0.89073 0.0
C1211 C 0.04438 0.55053 0.87745 0.0
C1212 C 0.05821 0.54072 0.89972 0.0
C1213 C 0.13907 0.58382 0.90353 0.0
H1214 H 0.14868 0.50519 0.93304 0.0
C1215 C 0.24916 0.58022 0.93649 0.0
C1216 C 0.2401 0.57124 0.94984 0.0
C1217 C 0.22634 0.57441 0.92789 0.0
C1218 C 0.14612 0.52765 0.92493 0.0
H1219 H 0.08855 0.56868 0.86337 0.0
H1220 H 0.12968 0.57019 0.87894 0.0
H1221 H 0.10657 0.50218 0.9178 0.0
H1222 H 0.20037 0.54773 0.96462 0.0
H1223 H 0.16008 0.53791 0.94962 0.0
H1224 H 0.17801 0.60968 0.91064 0.0
C1225 C 0.10302 0.56207 0.88245 0.0
C1226 C 0.12189 0.5259 0.91617 0.0
C1227 C 0.07926 0.56128 0.87348 0.0
C1228 C 0.20831 0.55466 0.95438 0.0
C1229 C 0.18518 0.54908 0.94574 0.0
C1230 C 0.16309 0.58565 0.91228 0.0
C1231 C 0.09285 0.55199 0.89573 0.0
C1232 C 0.11817 0.55386 0.90528 0.0
C1233 C 0.19339 0.5598 0.93236 0.0
C1234 C 0.16729 0.55748 0.9231 0.0
H1235 H 0.00763 0.53205 0.89425 0.0
H1236 H 0.04916 0.53317 0.90985 0.0
H1237 H 0.1365 0.60635 0.89545 0.0
H1238 H 0.27354 0.59288 0.93267 0.0
H1239 H 0.23435 0.58205 0.91769 0.0
C1240 C 0.82486 0.61192 0.85559 0.0
C1241 C 0.80774 0.61058 0.84478 0.0
C1242 C 0.81322 0.6411 0.86307 0.0
C1243 C 0.76227 0.73719 0.86397 0.0
H1244 H 0.74158 0.70166 0.90042 0.0
C1245 C 0.68811 0.83787 0.90003 0.0
C1246 C 0.69844 0.83133 0.9125 0.0
C1247 C 0.70178 0.81211 0.89136 0.0
C1248 C 0.74774 0.71233 0.89032 0.0
H1249 H 0.76659 0.64007 0.83286 0.0
H1250 H 0.74662 0.69163 0.84587 0.0
H1251 H 0.76671 0.65622 0.88576 0.0
H1252 H 0.73197 0.79302 0.92552 0.0
H1253 H 0.75659 0.74893 0.91038 0.0
H1254 H 0.74401 0.79345 0.86854 0.0
C1255 C 0.76884 0.66984 0.84858 0.0
C1256 C 0.76206 0.68615 0.8819 0.0
C1257 C 0.78024 0.64033 0.84115 0.0
C1258 C 0.72304 0.7987 0.91605 0.0
C1259 C 0.73705 0.77324 0.90735 0.0
C1260 C 0.74836 0.76356 0.87244 0.0
C1261 C 0.7845 0.66987 0.85983 0.0
C1262 C 0.76957 0.69824 0.86865 0.0
C1263 C 0.72646 0.77936 0.89489 0.0
C1264 C 0.74096 0.75149 0.88575 0.0
H1265 H 0.84628 0.58954 0.8586 0.0
H1266 H 0.82619 0.6407 0.87157 0.0
H1267 H 0.76794 0.74734 0.8538 0.0
H1268 H 0.66912 0.8627 0.897 0.0
H1269 H 0.69252 0.81764 0.88195 0.0
C1270 C 0.49885 0.45989 0.67937 0.0
C1271 C 0.47328 0.44301 0.67458 0.0
C1272 C 0.53311 0.46411 0.67238 0.0
C1273 C 0.58596 0.4634 0.63951 0.0
H1274 H 0.66829 0.45596 0.6585 0.0
C1275 C 0.73262 0.47894 0.61346 0.0
C1276 C 0.75071 0.50369 0.61833 0.0
C1277 C 0.70092 0.46594 0.62047 0.0
C1278 C 0.64564 0.45829 0.65301 0.0
H1279 H 0.46421 0.41756 0.65843 0.0
H1280 H 0.52416 0.42438 0.64629 0.0
H1281 H 0.6089 0.44527 0.67001 0.0
H1282 H 0.75016 0.5336 0.63441 0.0
H1283 H 0.69619 0.51008 0.64678 0.0
H1284 H 0.62305 0.47644 0.62248 0.0
C1285 C 0.51751 0.4349 0.65544 0.0
C1286 C 0.6113 0.45233 0.65964 0.0
C1287 C 0.48301 0.43083 0.66244 0.0
C1288 C 0.73745 0.51366 0.63057 0.0
C1289 C 0.70626 0.50031 0.63764 0.0
C1290 C 0.62046 0.46913 0.63285 0.0
C1291 C 0.54332 0.45137 0.66034 0.0
C1292 C 0.58061 0.45544 0.65305 0.0
C1293 C 0.68676 0.47719 0.63255 0.0
C1294 C 0.65076 0.46727 0.63951 0.0
H1295 H 0.49249 0.46993 0.68861 0.0
H1296 H 0.5515 0.47778 0.67643 0.0
H1297 H 0.56323 0.46647 0.63401 0.0
H1298 H 0.74148 0.47174 0.60389 0.0
H1299 H 0.68689 0.44799 0.61625 0.0
C1300 C 0.74695 0.26078 0.44358 0.0
C1301 C 0.75157 0.22394 0.44024 0.0
C1302 C 0.73493 0.29279 0.43484 0.0
C1303 C 0.68253 0.32181 0.40726 0.0
H1304 H 0.7397 0.40455 0.39645 0.0
C1305 C 0.65442 0.42763 0.36192 0.0
C1306 C 0.65891 0.46598 0.36102 0.0
C1307 C 0.66626 0.40055 0.37204 0.0
C1308 C 0.72297 0.3821 0.39946 0.0
H1309 H 0.74626 0.19191 0.42522 0.0
H1310 H 0.72406 0.24712 0.41033 0.0
H1311 H 0.75748 0.3537 0.41375 0.0
H1312 H 0.68025 0.50568 0.37009 0.0
H1313 H 0.69999 0.45857 0.38817 0.0
H1314 H 0.64746 0.3499 0.39341 0.0
C1315 C 0.73018 0.25151 0.41958 0.0
C1316 C 0.73327 0.35285 0.4094 0.0
C1317 C 0.74295 0.21982 0.42814 0.0
C1318 C 0.6765 0.4764 0.37045 0.0
C1319 C 0.68787 0.44921 0.38082 0.0
C1320 C 0.67189 0.35118 0.39755 0.0
C1321 C 0.72638 0.28847 0.42272 0.0
C1322 C 0.7136 0.3219 0.41321 0.0
C1323 C 0.68231 0.41084 0.38191 0.0
C1324 C 0.69243 0.38139 0.39318 0.0
H1325 H 0.75375 0.26496 0.45276 0.0
H1326 H 0.73216 0.32087 0.43756 0.0
H1327 H 0.66642 0.29874 0.4101 0.0
H1328 H 0.64136 0.41838 0.35476 0.0
H1329 H 0.66256 0.37135 0.37209 0.0
C1330 C 0.76471 0.41675 0.09168 0.0
C1331 C 0.77405 0.38235 0.08656 0.0
C1332 C 0.78326 0.42382 0.10152 0.0
C1333 C 0.83998 0.37227 0.12688 0.0
H1334 H 0.87862 0.46661 0.12513 0.0
C1335 C 0.95621 0.38101 0.15588 0.0
C1336 C 0.95568 0.41377 0.16155 0.0
C1337 C 0.93113 0.37978 0.14743 0.0
C1338 C 0.86765 0.44023 0.12588 0.0
H1339 H 0.81016 0.32852 0.08788 0.0
H1340 H 0.8417 0.34064 0.10471 0.0
H1341 H 0.83877 0.46059 0.10942 0.0
H1342 H 0.92815 0.47127 0.16248 0.0
H1343 H 0.88421 0.469 0.14778 0.0
H1344 H 0.86898 0.35153 0.14315 0.0
C1345 C 0.82011 0.3622 0.10132 0.0
C1346 C 0.8447 0.43683 0.11687 0.0
C1347 C 0.80206 0.3554 0.09153 0.0
C1348 C 0.92928 0.4454 0.15842 0.0
C1349 C 0.90424 0.44424 0.14987 0.0
C1350 C 0.86279 0.37563 0.13584 0.0
C1351 C 0.81105 0.39635 0.10654 0.0
C1352 C 0.83129 0.40242 0.11705 0.0
C1353 C 0.90464 0.41128 0.14431 0.0
C1354 C 0.87773 0.4093 0.13532 0.0
H1355 H 0.74329 0.4381 0.08807 0.0
H1356 H 0.7755 0.45045 0.10533 0.0
H1357 H 0.82954 0.34561 0.12754 0.0
H1358 H 0.97576 0.35592 0.15812 0.0
H1359 H 0.93277 0.35405 0.14323 0.0
C1360 C 0.79605 0.67396 0.62086 0.0
C1361 C 0.80111 0.63488 0.62554 0.0
C1362 C 0.78481 0.70065 0.62929 0.0
C1363 C 0.73428 0.7173 0.66005 0.0
H1364 H 0.79139 0.79961 0.65686 0.0
C1365 C 0.6985 0.84008 0.69176 0.0
C1366 C 0.70606 0.87603 0.68559 0.0
C1367 C 0.70939 0.80803 0.68541 0.0
C1368 C 0.77476 0.77717 0.6578 0.0
H1369 H 0.79775 0.59306 0.64274 0.0
H1370 H 0.77715 0.64014 0.65753 0.0
H1371 H 0.81186 0.74857 0.64399 0.0
H1372 H 0.72834 0.9073 0.66775 0.0
H1373 H 0.74575 0.85245 0.65661 0.0
H1374 H 0.6963 0.7468 0.6735 0.0
C1375 C 0.78229 0.64985 0.64731 0.0
C1376 C 0.78673 0.74777 0.65047 0.0
C1377 C 0.79427 0.62302 0.63886 0.0
C1378 C 0.72285 0.87977 0.67284 0.0
C1379 C 0.73313 0.84816 0.66648 0.0
C1380 C 0.72192 0.74717 0.66729 0.0
C1381 C 0.77776 0.68892 0.64259 0.0
C1382 C 0.76636 0.71789 0.65135 0.0
C1383 C 0.72758 0.81164 0.67276 0.0
C1384 C 0.74165 0.77794 0.66603 0.0
H1385 H 0.80114 0.68404 0.61066 0.0
H1386 H 0.78131 0.7306 0.6254 0.0
H1387 H 0.71805 0.69455 0.66087 0.0
H1388 H 0.68546 0.83655 0.70159 0.0
H1389 H 0.7046 0.78038 0.69055 0.0
C1390 C 0.76056 -0.01035 0.92479 0.0
C1391 C 0.74357 0.96332 0.92027 0.0
C1392 C 0.79156 0.00349 0.91758 0.0
C1393 C 0.84641 0.01056 0.88502 0.0
H1394 H 0.92843 0.00677 0.90382 0.0
C1395 C 0.99264 0.01409 0.85846 0.0
C1396 C 0.01718 0.03243 0.86321 0.0
C1397 C 0.95869 0.00854 0.86548 0.0
C1398 C 0.90579 0.00863 0.89837 0.0
H1399 H 0.74519 0.93151 0.9046 0.0
H1400 H 0.79802 0.95645 0.89185 0.0
H1401 H 0.86924 -0.00477 0.9155 0.0
H1402 H 0.02477 0.05917 0.87927 0.0
H1403 H 0.96544 0.0501 0.89142 0.0
H1404 H 0.88263 0.024 0.86791 0.0
C1405 C 0.78761 0.96677 0.90088 0.0
C1406 C 0.87165 0.002 0.90512 0.0
C1407 C 0.7571 0.95259 0.90815 0.0
C1408 C 0.0068 0.04471 0.8753 0.0
C1409 C 0.97264 0.03936 0.88232 0.0
C1410 C 0.8804 0.01746 0.87829 0.0
C1411 C 0.80608 -0.0085 0.90564 0.0
C1412 C 0.84154 0.0023 0.89854 0.0
C1413 C 0.94783 0.02141 0.87748 0.0
C1414 C 0.91091 0.01601 0.88482 0.0
H1415 H 0.75142 -0.00248 0.93427 0.0
H1416 H 0.80484 0.02269 0.92153 0.0
H1417 H 0.82384 0.01162 0.8796 0.0
H1418 H -0.00043 0.00401 0.84924 0.0
H1419 H 0.94106 -0.0062 0.86148 0.0
C1420 C 0.80813 0.00536 0.1689 0.0
C1421 C 0.82713 0.01694 0.17772 0.0
C1422 C 0.79342 0.0321 0.15902 0.0
C1423 C 0.7608 0.13434 0.15073 0.0
H1424 H 0.78802 0.12156 0.11492 0.0
C1425 C 0.73878 0.26218 0.11082 0.0
C1426 C 0.73049 0.25692 0.0988 0.0
C1427 C 0.74874 0.23106 0.12004 0.0
C1428 C 0.77952 0.1255 0.12485 0.0
H1429 H 0.84489 0.06565 0.1832 0.0
H1430 H 0.81831 0.11191 0.16646 0.0
H1431 H 0.80636 0.0699 0.13185 0.0
H1432 H 0.7266 0.21434 0.08708 0.0
H1433 H 0.74293 0.15982 0.10332 0.0
H1434 H 0.73353 0.18931 0.14399 0.0
C1435 C 0.81501 0.08234 0.16702 0.0
C1436 C 0.79014 0.09576 0.13457 0.0
C1437 C 0.83032 0.05573 0.17661 0.0
C1438 C 0.73292 0.21947 0.09621 0.0
C1439 C 0.74245 0.18814 0.10555 0.0
C1440 C 0.74975 0.16372 0.14108 0.0
C1441 C 0.79664 0.07099 0.158 0.0
C1442 C 0.78159 0.10018 0.14763 0.0
C1443 C 0.7502 0.19342 0.1177 0.0
C1444 C 0.75968 0.16032 0.12795 0.0
H1445 H 0.80557 0.97564 0.16941 0.0
H1446 H 0.77939 0.02245 0.15222 0.0
H1447 H 0.75334 0.13851 0.16069 0.0
H1448 H 0.73778 0.29055 0.11312 0.0
H1449 H 0.75555 0.23675 0.12903 0.0
C1450 C 0.70462 0.05193 0.45606 0.0
C1451 C 0.73433 0.07169 0.45129 0.0
C1452 C 0.68094 0.04567 0.44772 0.0
C1453 C 0.67226 0.04871 0.41272 0.0
H1454 H 0.5684 0.06373 0.42397 0.0
C1455 C 0.56601 0.07489 0.37659 0.0
C1456 C 0.53408 0.05769 0.37992 0.0
C1457 C 0.59022 0.0736 0.3856 0.0
C1458 C 0.59732 0.05898 0.42069 0.0
H1459 H 0.76315 0.09902 0.43395 0.0
H1460 H 0.72235 0.08837 0.41955 0.0
H1461 H 0.61142 0.06504 0.43903 0.0
H1462 H 0.503 0.02563 0.39563 0.0
H1463 H 0.54499 0.02384 0.41137 0.0
H1464 H 0.65819 0.04334 0.39433 0.0
C1465 C 0.71715 0.07729 0.42966 0.0
C1466 C 0.62211 0.05963 0.42938 0.0
C1467 C 0.74062 0.08358 0.43796 0.0
C1468 C 0.52695 0.03963 0.39267 0.0
C1469 C 0.55116 0.03852 0.40173 0.0
C1470 C 0.64752 0.04822 0.40405 0.0
C1471 C 0.68651 0.05884 0.4344 0.0
C1472 C 0.66 0.05502 0.42548 0.0
C1473 C 0.58332 0.05526 0.3983 0.0
C1474 C 0.60964 0.05385 0.40783 0.0
H1475 H 0.69888 0.04256 0.46628 0.0
H1476 H 0.658 0.03087 0.45174 0.0
H1477 H 0.70113 0.04419 0.40937 0.0
H1478 H 0.57223 0.0899 0.367 0.0
H1479 H 0.61421 0.08756 0.38263 0.0
C1480 C 0.19908 0.33961 0.40049 0.0
C1481 C 0.19601 0.32849 0.41391 0.0
C1482 C 0.21377 0.31326 0.39211 0.0
C1483 C 0.22974 0.21019 0.39088 0.0
H1484 H 0.29952 0.23441 0.36103 0.0
C1485 C 0.30195 0.09286 0.36271 0.0
C1486 C 0.30383 0.10023 0.34927 0.0
C1487 C 0.29333 0.12251 0.37003 0.0
C1488 C 0.27984 0.22734 0.36926 0.0
H1489 H 0.20619 0.28089 0.42899 0.0
H1490 H 0.23159 0.23511 0.41443 0.0
H1491 H 0.27396 0.28284 0.37486 0.0
H1492 H 0.30007 0.14426 0.33281 0.0
H1493 H 0.28405 0.19675 0.34568 0.0
H1494 H 0.23495 0.15513 0.38534 0.0
C1495 C 0.22239 0.26412 0.41037 0.0
C1496 C 0.26517 0.25507 0.37718 0.0
C1497 C 0.20792 0.29044 0.41873 0.0
C1498 C 0.29914 0.13804 0.34317 0.0
C1499 C 0.28988 0.16796 0.35056 0.0
C1500 C 0.2442 0.18268 0.38299 0.0
C1501 C 0.22547 0.27515 0.39696 0.0
C1502 C 0.24026 0.2466 0.38817 0.0
C1503 C 0.28546 0.16031 0.36411 0.0
C1504 C 0.26984 0.19062 0.37218 0.0
H1505 H 0.19031 0.36873 0.39644 0.0
H1506 H 0.21547 0.32259 0.38184 0.0
H1507 H 0.20998 0.20297 0.39908 0.0
H1508 H 0.30558 0.06389 0.36763 0.0
H1509 H 0.29133 0.11559 0.38041 0.0
C1510 C 0.00556 0.93897 0.18204 0.0
C1511 C 0.97471 0.9417 0.17563 0.0
C1512 C 0.04004 0.94276 0.17521 0.0
C1513 C 0.09355 0.94681 0.14204 0.0
H1514 H 0.15829 -0.00793 0.15832 0.0
C1515 C 0.23916 0.97433 0.11667 0.0
C1516 C 0.2491 0.00927 0.11806 0.0
C1517 C 0.20826 0.96103 0.12429 0.0
C1518 C 0.14067 0.97961 0.15351 0.0
H1519 H 0.95647 0.95017 0.15681 0.0
H1520 H 0.01638 0.95852 0.14482 0.0
H1521 H 0.09906 0.98165 0.16949 0.0
H1522 H 0.23529 0.05678 0.12878 0.0
H1523 H 0.18256 0.0342 0.14183 0.0
H1524 H 0.13488 0.94701 0.12571 0.0
C1525 C 0.01415 0.95247 0.1552 0.0
C1526 C 0.1065 0.97297 0.16007 0.0
C1527 C 0.97955 0.94797 0.16209 0.0
C1528 C 0.2287 0.02947 0.12759 0.0
C1529 C 0.19824 0.01635 0.13514 0.0
C1530 C 0.12776 0.95392 0.13538 0.0
C1531 C 0.04506 0.95023 0.16166 0.0
C1532 C 0.08208 0.95659 0.15449 0.0
C1533 C 0.18681 0.98234 0.13348 0.0
C1534 C 0.15176 0.97093 0.14094 0.0
H1535 H 0.00322 0.93341 0.19244 0.0
H1536 H 0.06286 0.93952 0.18067 0.0
H1537 H 0.07612 0.93363 0.13738 0.0
H1538 H 0.25383 0.95849 0.10923 0.0
H1539 H 0.20072 0.93451 0.12277 0.0
C1540 C 0.17648 0.98242 0.87176 0.0
C1541 C 0.16597 0.97023 0.86111 0.0
C1542 C 0.19035 0.95562 0.88182 0.0
C1543 C 0.23491 0.85597 0.88891 0.0
H1544 H 0.18951 0.85709 0.92408 0.0
C1545 C 0.25531 0.72163 0.92613 0.0
C1546 C 0.25806 0.72439 0.939 0.0
C1547 C 0.24483 0.75385 0.91742 0.0
C1548 C 0.20297 0.85651 0.91437 0.0
H1549 H 0.16253 0.92063 0.85255 0.0
H1550 H 0.18782 0.87454 0.86959 0.0
H1551 H 0.17255 0.91026 0.90738 0.0
H1552 H 0.25088 0.7637 0.95282 0.0
H1553 H 0.23309 0.8205 0.93749 0.0
H1554 H 0.26555 0.80285 0.89566 0.0
C1555 C 0.18521 0.90451 0.87035 0.0
C1556 C 0.1932 0.88712 0.90477 0.0
C1557 C 0.17069 0.931 0.86055 0.0
C1558 C 0.24886 0.76046 0.94301 0.0
C1559 C 0.23867 0.79306 0.93418 0.0
C1560 C 0.24494 0.82577 0.89845 0.0
C1561 C 0.19477 0.91623 0.88123 0.0
C1562 C 0.20843 0.88676 0.89185 0.0
C1563 C 0.2372 0.79035 0.92115 0.0
C1564 C 0.22845 0.82486 0.9113 0.0
H1565 H 0.17252 0.01242 0.87258 0.0
H1566 H 0.19749 0.96564 0.89005 0.0
H1567 H 0.24765 0.85497 0.87911 0.0
H1568 H 0.26165 0.69435 0.92269 0.0
H1569 H 0.24288 0.74995 0.90767 0.0
C1570 C 0.44122 0.94143 0.65647 0.0
C1571 C 0.45486 0.90713 0.66383 0.0
C1572 C 0.41465 0.94242 0.64829 0.0
C1573 C 0.34565 0.88572 0.64165 0.0
H1574 H 0.351 0.94904 0.60833 0.0
C1575 C 0.28 0.85621 0.59933 0.0
C1576 C 0.26342 0.88644 0.59099 0.0
C1577 C 0.29781 0.86295 0.60923 0.0
C1578 C 0.34868 0.93168 0.61768 0.0
H1579 H 0.45018 0.84701 0.66833 0.0
H1580 H 0.40518 0.84849 0.6539 0.0
H1581 H 0.39384 0.95203 0.62329 0.0
H1582 H 0.25174 0.94769 0.5867 0.0
H1583 H 0.28389 0.95976 0.60401 0.0
H1584 H 0.30133 0.86446 0.63584 0.0
C1585 C 0.4145 0.87491 0.65456 0.0
C1586 C 0.37335 0.93332 0.6263 0.0
C1587 C 0.44094 0.87393 0.66275 0.0
C1588 C 0.2641 0.92385 0.59303 0.0
C1589 C 0.28274 0.93069 0.60286 0.0
C1590 C 0.32123 0.88392 0.63302 0.0
C1591 C 0.40082 0.90916 0.64719 0.0
C1592 C 0.37273 0.90977 0.63833 0.0
C1593 C 0.30022 0.9002 0.61099 0.0
C1594 C 0.32283 0.90629 0.62081 0.0
H1595 H 0.45139 0.96759 0.65688 0.0
H1596 H 0.40475 0.96945 0.64291 0.0
H1597 H 0.34344 0.86788 0.65091 0.0
H1598 H 0.27996 0.82701 0.59804 0.0
H1599 H 0.31113 0.83875 0.61516 0.0
C1600 C 0.23905 0.13265 1.01159 0.0
C1601 C 0.26549 0.10501 1.01719 0.0
C1602 C 0.22924 0.13014 0.99962 0.0
C1603 C 0.22544 0.06191 0.97819 0.0
H1604 H 0.21425 0.15153 0.95246 0.0
C1605 C 0.19291 0.05747 0.92682 0.0
C1606 C 0.1698 0.0886 0.92116 0.0
C1607 C 0.20466 0.05812 0.93867 0.0
C1608 C 0.21673 0.12634 0.95961 0.0
H1609 H 0.30293 0.05347 1.01438 0.0
H1610 H 0.28513 0.04877 0.99353 0.0
H1611 H 0.23606 0.15567 0.97261 0.0
H1612 H 0.1402 0.14441 0.92374 0.0
H1613 H 0.15946 0.14487 0.94456 0.0
H1614 H 0.20545 0.0327 0.9653 0.0
C1615 C 0.27199 0.07226 0.9985 0.0
C1616 C 0.22941 0.12871 0.97111 0.0
C1617 C 0.2821 0.07495 1.01044 0.0
C1618 C 0.15765 0.11975 0.92785 0.0
C1619 C 0.16921 0.1203 0.93971 0.0
C1620 C 0.21248 0.05958 0.9667 0.0
C1621 C 0.24535 0.09977 0.99301 0.0
C1622 C 0.23366 0.09661 0.98055 0.0
C1623 C 0.19343 0.08985 0.94514 0.0
C1624 C 0.2077 0.09187 0.95731 0.0
H1625 H 0.22506 0.15572 1.01661 0.0
H1626 H 0.20825 0.15146 0.9957 0.0
H1627 H 0.22811 0.03682 0.98538 0.0
H1628 H 0.20241 0.03282 0.92199 0.0
H1629 H 0.22342 0.03425 0.94254 0.0
C1630 C 0.62604 0.45691 0.16111 0.0
C1631 C 0.65836 0.439 0.15486 0.0
C1632 C 0.62581 0.46916 0.1729 0.0
C1633 C 0.67454 0.45229 0.20126 0.0
H1634 H 0.61676 0.54799 0.2082 0.0
C1635 C 0.66294 0.50378 0.25055 0.0
C1636 C 0.62735 0.51709 0.25577 0.0
C1637 C 0.67033 0.49802 0.23768 0.0
C1638 C 0.63289 0.52113 0.20643 0.0
H1639 H 0.7159 0.42004 0.15606 0.0
H1640 H 0.71554 0.44167 0.17677 0.0
H1641 H 0.62337 0.53034 0.18671 0.0
H1642 H 0.57198 0.53636 0.25143 0.0
H1643 H 0.5847 0.52584 0.22905 0.0
H1644 H 0.68337 0.44267 0.22107 0.0
C1645 C 0.69034 0.44598 0.17252 0.0
C1646 C 0.63668 0.51102 0.19413 0.0
C1647 C 0.69061 0.43384 0.16064 0.0
C1648 C 0.59959 0.52573 0.24773 0.0
C1649 C 0.60699 0.52007 0.23486 0.0
C1650 C 0.67072 0.4624 0.21359 0.0
C1651 C 0.65791 0.46384 0.17875 0.0
C1652 C 0.65696 0.47616 0.19147 0.0
C1653 C 0.64232 0.50558 0.22974 0.0
C1654 C 0.64929 0.49662 0.21637 0.0
H1655 H 0.60086 0.46184 0.15682 0.0
H1656 H 0.60028 0.48235 0.17753 0.0
H1657 H 0.69005 0.42509 0.19955 0.0
H1658 H 0.68487 0.49652 0.25652 0.0
H1659 H 0.6979 0.48721 0.23398 0.0
C1660 C 0.25847 0.8756 0.47723 0.0
C1661 C 0.28081 0.8824 0.48589 0.0
C1662 C 0.26573 0.88808 0.464 0.0
C1663 C 0.33972 0.92027 0.43893 0.0
H1664 H 0.26 0.9543 0.41837 0.0
C1665 C 0.36007 0.98603 0.38462 0.0
C1666 C 0.33924 0.9737 0.37653 0.0
C1667 C 0.35389 0.97596 0.39804 0.0
C1668 C 0.28263 0.94463 0.42395 0.0
H1669 H 0.32761 0.90896 0.48742 0.0
H1670 H 0.33989 0.93119 0.46449 0.0
H1671 H 0.24688 0.9353 0.44146 0.0
H1672 H 0.29581 0.94059 0.37636 0.0
H1673 H 0.2853 0.92326 0.39951 0.0
H1674 H 0.3754 0.92997 0.42133 0.0
C1675 C 0.31731 0.9153 0.46781 0.0
C1676 C 0.27509 0.93357 0.43722 0.0
C1677 C 0.31019 0.90261 0.48101 0.0
C1678 C 0.31242 0.9508 0.38221 0.0
C1679 C 0.30614 0.94101 0.39555 0.0
C1680 C 0.34725 0.93158 0.42564 0.0
C1681 C 0.29537 0.90801 0.45908 0.0
C1682 C 0.3035 0.92087 0.44492 0.0
C1683 C 0.32652 0.95364 0.40368 0.0
C1684 C 0.31879 0.94352 0.41795 0.0
H1685 H 0.23587 0.85977 0.48062 0.0
H1686 H 0.24848 0.88134 0.45761 0.0
H1687 H 0.3624 0.91019 0.44445 0.0
H1688 H 0.38085 0.0038 0.38061 0.0
H1689 H 0.37 0.98633 0.40403 0.0
C1690 C 0.84983 0.51206 0.69266 0.0
C1691 C 0.88247 0.50891 0.68417 0.0
C1692 C 0.84977 0.51687 0.70555 0.0
C1693 C 0.9105 0.50613 0.73157 0.0
H1694 H 0.82915 0.56993 0.74771 0.0
C1695 C 0.90341 0.53573 0.78487 0.0
C1696 C 0.8692 0.53439 0.79233 0.0
C1697 C 0.90711 0.5357 0.77141 0.0
C1698 C 0.85204 0.55171 0.74345 0.0
H1699 H 0.94096 0.50768 0.68304 0.0
H1700 H 0.94074 0.5167 0.7053 0.0
H1701 H 0.83114 0.56269 0.72525 0.0
H1702 H 0.81201 0.5333 0.79124 0.0
H1703 H 0.81833 0.53346 0.76825 0.0
H1704 H 0.93119 0.49502 0.74988 0.0
C1705 C 0.91505 0.5152 0.70202 0.0
C1706 C 0.85312 0.54745 0.73047 0.0
C1707 C 0.91509 0.51048 0.68912 0.0
C1708 C 0.83886 0.53442 0.78589 0.0
C1709 C 0.84245 0.53471 0.77258 0.0
C1710 C 0.9094 0.5104 0.74459 0.0
C1711 C 0.88236 0.51866 0.71048 0.0
C1712 C 0.88211 0.52419 0.72431 0.0
C1713 C 0.87663 0.53485 0.76506 0.0
C1714 C 0.87986 0.53285 0.75082 0.0
H1715 H 0.82404 0.51137 0.68931 0.0
H1716 H 0.824 0.51883 0.71169 0.0
H1717 H 0.9332 0.48769 0.7273 0.0
H1718 H 0.92745 0.53531 0.78947 0.0
H1719 H 0.9339 0.53611 0.76599 0.0
C1720 C 0.79891 0.92485 0.10987 0.0
C1721 C 0.81824 0.89275 0.11663 0.0
C1722 C 0.78865 0.9233 0.09784 0.0
C1723 C 0.77309 0.85377 0.07787 0.0
H1724 H 0.77561 0.93874 0.05023 0.0
C1725 C 0.75723 0.84075 0.02573 0.0
C1726 C 0.73466 0.87012 1.01899 0.0
C1727 C 0.76608 0.84431 0.03775 0.0
C1728 C 0.7744 0.91495 0.05791 0.0
H1729 H 0.84229 0.83398 0.11588 0.0
H1730 H 0.82561 0.83174 0.09481 0.0
H1731 H 0.79496 0.94378 0.07079 0.0
H1732 H 0.70321 0.9261 0.01982 0.0
H1733 H 0.71932 0.93252 0.04073 0.0
H1734 H 0.7531 0.82475 0.06492 0.0
C1735 C 0.81774 0.85793 0.09889 0.0
C1736 C 0.78545 0.91782 0.0697 0.0
C1737 C 0.82785 0.85942 0.11091 0.0
C1738 C 0.7211 0.90314 0.02462 0.0
C1739 C 0.73025 0.90683 0.03662 0.0
C1740 C 0.7623 0.85083 0.06609 0.0
C1741 C 0.79753 0.88964 0.09228 0.0
C1742 C 0.78518 0.88714 0.07979 0.0
C1743 C 0.75285 0.87745 0.04329 0.0
C1744 C 0.76303 0.88128 0.05595 0.0
H1745 H 0.79139 0.95111 0.11392 0.0
H1746 H 0.77294 0.94821 0.09306 0.0
H1747 H 0.77169 0.8299 0.08552 0.0
H1748 H 0.76885 0.81526 0.0216 0.0
H1749 H 0.78399 0.82141 0.04258 0.0
C1750 C 0.33607 0.56184 0.87673 0.0
C1751 C 0.36925 0.56541 0.8808 0.0
C1752 C 0.3351 0.55427 0.86429 0.0
C1753 C 0.3884 0.55843 0.83195 0.0
H1754 H 0.32935 0.48433 0.827 0.0
C1755 C 0.40416 0.49769 0.78438 0.0
C1756 C 0.37198 0.49531 0.77941 0.0
C1757 C 0.40285 0.50582 0.79685 0.0
C1758 C 0.3457 0.50535 0.82821 0.0
H1759 H 0.42723 0.56488 0.87488 0.0
H1760 H 0.42567 0.55091 0.85336 0.0
H1761 H 0.32839 0.50066 0.84847 0.0
H1762 H 0.31329 0.49835 0.78379 0.0
H1763 H 0.31099 0.51278 0.8056 0.0
H1764 H 0.40598 0.56285 0.81174 0.0
C1765 C 0.40032 0.55426 0.8597 0.0
C1766 C 0.34509 0.51479 0.8405 0.0
C1767 C 0.40129 0.56183 0.8721 0.0
C1768 C 0.33852 0.50032 0.78732 0.0
C1769 C 0.33723 0.50828 0.79983 0.0
C1770 C 0.3891 0.5489 0.81969 0.0
C1771 C 0.36726 0.55021 0.85566 0.0
C1772 C 0.36664 0.54125 0.84253 0.0
C1773 C 0.36935 0.51164 0.80467 0.0
C1774 C 0.36797 0.52206 0.8177 0.0
H1775 H 0.31094 0.56413 0.88323 0.0
H1776 H 0.30912 0.55172 0.86143 0.0
H1777 H 0.40479 0.57946 0.83312 0.0
H1778 H 0.43033 0.49437 0.77849 0.0
H1779 H 0.42812 0.50773 0.80036 0.0
C1780 C 0.68085 0.02899 0.65569 0.0
C1781 C 0.65918 0.0003 0.66081 0.0
C1782 C 0.68681 0.04075 0.6424 0.0
C1783 C 0.64957 0.04234 0.61184 0.0
H1784 H 0.7467 0.0598 0.59621 0.0
C1785 C 0.68498 0.07443 0.55647 0.0
C1786 C 0.70968 0.10028 0.55146 0.0
C1787 C 0.67914 0.06172 0.56971 0.0
C1788 C 0.71926 0.05563 0.60039 0.0
H1789 H 0.62652 0.96177 0.65579 0.0
H1790 H 0.63673 0.9825 0.63259 0.0
H1791 H 0.7355 0.03911 0.61929 0.0
H1792 H 0.74748 0.13311 0.5566 0.0
H1793 H 0.73693 0.11157 0.57968 0.0
H1794 H 0.6331 0.05939 0.59302 0.0
C1795 C 0.64903 -0.00401 0.63891 0.0
C1796 C 0.71285 0.04361 0.61368 0.0
C1797 C 0.64328 0.98399 0.65223 0.0
C1798 C 0.72857 0.11288 0.56008 0.0
C1799 C 0.72253 0.10039 0.57336 0.0
C1800 C 0.6559 0.05462 0.59857 0.0
C1801 C 0.6711 0.02437 0.6338 0.0
C1802 C 0.67792 0.03681 0.6196 0.0
C1803 C 0.69764 0.07465 0.5784 0.0
C1804 C 0.69087 0.06147 0.59261 0.0
H1805 H 0.69359 0.04227 0.66195 0.0
H1806 H 0.70354 0.063 0.63886 0.0
H1807 H 0.62222 0.0379 0.61607 0.0
H1808 H 0.6704 0.06357 0.55012 0.0
H1809 H 0.66037 0.04132 0.57311 0.0
C1810 C 0.15386 0.46172 0.34397 0.0
C1811 C 0.12164 0.46013 0.35264 0.0
C1812 C 0.1544 0.45846 0.3309 0.0
C1813 C 0.10249 0.42695 0.30764 0.0
H1814 H 0.16222 0.48811 0.28231 0.0
C1815 C 0.10213 0.43654 0.25143 0.0
C1816 C 0.13574 0.4397 0.24369 0.0
C1817 C 0.09868 0.43772 0.26483 0.0
C1818 C 0.14565 0.47035 0.2892 0.0
H1819 H 0.06485 0.45254 0.35404 0.0
H1820 H 0.06568 0.4475 0.3314 0.0
H1821 H 0.16024 0.49234 0.30499 0.0
H1822 H 0.19239 0.4448 0.24441 0.0
H1823 H 0.18651 0.44622 0.26727 0.0
H1824 H 0.08792 0.40508 0.29171 0.0
C1825 C 0.09073 0.45114 0.33469 0.0
C1826 C 0.14456 0.47278 0.30233 0.0
C1827 C 0.09015 0.45453 0.34775 0.0
C1828 C 0.16582 0.44272 0.24986 0.0
C1829 C 0.1624 0.44388 0.2631 0.0
C1830 C 0.1036 0.4245 0.29445 0.0
C1831 C 0.12279 0.45334 0.32598 0.0
C1832 C 0.12325 0.45091 0.31184 0.0
C1833 C 0.12871 0.44219 0.27085 0.0
C1834 C 0.12557 0.44585 0.28499 0.0
H1835 H 0.17868 0.46624 0.34721 0.0
H1836 H 0.17987 0.45976 0.32466 0.0
H1837 H 0.08592 0.40932 0.31458 0.0
H1838 H 0.07828 0.43437 0.24709 0.0
H1839 H 0.07219 0.43633 0.2704 0.0
C1840 C 0.69911 0.56835 0.42648 0.0
C1841 C 0.67877 0.60106 0.42045 0.0
C1842 C 0.7096 0.56779 0.43863 0.0
C1843 C 0.72681 0.63286 0.45952 0.0
H1844 H 0.72036 0.5472 0.48676 0.0
C1845 C 0.74224 0.64306 0.51179 0.0
C1846 C 0.7601 0.61143 0.51921 0.0
C1847 C 0.73488 0.64062 0.49948 0.0
C1848 C 0.72288 0.5711 0.47918 0.0
H1849 H 0.65176 0.65799 0.42275 0.0
H1850 H 0.67018 0.65705 0.44387 0.0
H1851 H 0.70113 0.54446 0.46596 0.0
H1852 H 0.78489 0.55259 0.51941 0.0
H1853 H 0.77274 0.54857 0.49774 0.0
H1854 H 0.74855 0.65956 0.47264 0.0
C1855 C 0.67863 0.63213 0.43911 0.0
C1856 C 0.71175 0.56956 0.4673 0.0
C1857 C 0.66805 0.63264 0.42702 0.0
C1858 C 0.77132 0.57755 0.51389 0.0
C1859 C 0.76396 0.57511 0.50155 0.0
C1860 C 0.73806 0.63434 0.47135 0.0
C1861 C 0.70005 0.59997 0.44495 0.0
C1862 C 0.71314 0.60066 0.45741 0.0
C1863 C 0.74533 0.60653 0.49425 0.0
C1864 C 0.73578 0.60371 0.48139 0.0
H1865 H 0.70811 0.5437 0.42162 0.0
H1866 H 0.72626 0.54268 0.44287 0.0
H1867 H 0.72893 0.65695 0.45198 0.0
H1868 H 0.73363 0.66971 0.51554 0.0
H1869 H 0.72015 0.66526 0.49418 0.0
C1870 C 0.18388 0.91387 0.662 0.0
C1871 C 0.15506 0.93193 0.65507 0.0
C1872 C 0.18668 0.92347 0.67402 0.0
C1873 C 0.15421 -0.002 0.69498 0.0
H1874 H 0.17256 0.91528 0.72268 0.0
C1875 C 0.1194 0.01534 0.74866 0.0
C1876 C 0.14253 -0.00587 0.75737 0.0
C1877 C 0.12536 0.01042 0.7357 0.0
C1878 C 0.16802 0.9388 0.71503 0.0
H1879 H 0.1075 0.97535 0.65506 0.0
H1880 H 0.11194 -0.00854 0.67606 0.0
H1881 H 0.1754 0.90149 0.70086 0.0
H1882 H 0.19128 0.95289 0.7592 0.0
H1883 H 0.20188 0.94453 0.73657 0.0
H1884 H 0.14614 0.03525 0.70921 0.0
C1885 C 0.13253 0.97007 0.67222 0.0
C1886 C 0.16966 0.93086 0.70251 0.0
C1887 C 0.12969 0.96044 0.66026 0.0
C1888 C 0.17262 0.96912 0.75275 0.0
C1889 C 0.17865 0.96429 0.7398 0.0
C1890 C 0.15259 0.00595 0.7075 0.0
C1891 C 0.16084 0.95148 0.6793 0.0
C1892 C 0.16225 0.96031 0.69237 0.0
C1893 C 0.15468 0.9843 0.73118 0.0
C1894 C 0.15901 0.97638 0.7177 0.0
H1895 H 0.2038 0.89174 0.65827 0.0
H1896 H 0.20901 0.90888 0.6792 0.0
H1897 H 0.14891 0.02138 0.68734 0.0
H1898 H 0.0958 0.03455 0.75197 0.0
H1899 H 0.10614 0.02596 0.72935 0.0
C1900 C 0.80503 0.45466 0.88146 0.0
C1901 C 0.83619 0.47183 0.87633 0.0
C1902 C 0.79778 0.44274 0.89468 0.0
C1903 C 0.82085 0.45585 0.92644 0.0
H1904 H 0.77764 0.36358 0.9383 0.0
C1905 C 0.80528 0.38736 0.98007 0.0
C1906 C 0.77295 0.37213 0.98505 0.0
C1907 C 0.8127 0.40028 0.9669 0.0
C1908 C 0.78931 0.38965 0.93517 0.0
H1909 H 0.88435 0.4896 0.88125 0.0
H1910 H 0.87204 0.46819 0.90432 0.0
H1911 H 0.79219 0.38369 0.91532 0.0
H1912 H 0.72295 0.35891 0.98 0.0
H1913 H 0.73577 0.38167 0.95703 0.0
H1914 H 0.81826 0.46148 0.94635 0.0
C1915 C 0.85282 0.46451 0.8981 0.0
C1916 C 0.79768 0.40126 0.92195 0.0
C1917 C 0.86004 0.47659 0.88483 0.0
C1918 C 0.748 0.37064 0.97652 0.0
C1919 C 0.75555 0.38334 0.96332 0.0
C1920 C 0.81263 0.44413 0.93967 0.0
C1921 C 0.82154 0.44741 0.90322 0.0
C1922 C 0.81345 0.43462 0.91737 0.0
C1923 C 0.78809 0.39819 0.95832 0.0
C1924 C 0.79664 0.41092 0.94422 0.0
H1925 H 0.78586 0.45066 0.87527 0.0
H1926 H 0.7731 0.43038 0.89822 0.0
H1927 H 0.8324 0.482 0.92333 0.0
H1928 H 0.82493 0.3894 0.98636 0.0
H1929 H 0.83813 0.41125 0.96342 0.0
C1930 C 0.38972 0.05092 0.28445 0.0
C1931 C 0.36327 0.03245 0.29289 0.0
C1932 C 0.393 0.05035 0.27101 0.0
C1933 C 0.36818 -0.0056 0.24746 0.0
H1934 H 0.38714 0.08078 0.22173 0.0
C1935 C 0.35042 -0.00441 0.19398 0.0
C1936 C 0.37544 0.01188 0.18426 0.0
C1937 C 0.35028 -0.0006 0.20696 0.0
C1938 C 0.38219 0.05616 0.22876 0.0
H1939 H 0.31854 0.00037 0.29343 0.0
H1940 H 0.32403 -0.00018 0.27058 0.0
H1941 H 0.38563 0.08537 0.24457 0.0
H1942 H 0.41937 0.04615 0.18087 0.0
H1943 H 0.41936 0.0524 0.20341 0.0
H1944 H 0.36464 0.96513 0.23181 0.0
C1945 C 0.343 0.01394 0.27418 0.0
C1946 C 0.38138 0.05882 0.24192 0.0
C1947 C 0.33972 0.01454 0.28743 0.0
C1948 C 0.39993 0.03269 0.188 0.0
C1949 C 0.39967 0.03666 0.20099 0.0
C1950 C 0.36895 -0.00824 0.23438 0.0
C1951 C 0.37002 0.03116 0.2657 0.0
C1952 C 0.37379 0.02813 0.25152 0.0
C1953 C 0.37506 0.01978 0.21074 0.0
C1954 C 0.37548 0.0227 0.22477 0.0
H1955 H 0.40838 0.06498 0.28823 0.0
H1956 H 0.41418 0.06403 0.26483 0.0
H1957 H 0.3632 0.96968 0.25444 0.0
H1958 H 0.33127 0.97911 0.19161 0.0
H1959 H 0.33047 0.98638 0.21406 0.0
C1960 C 0.31991 0.41668 0.60818 0.0
C1961 C 0.31177 0.38699 0.61803 0.0
C1962 C 0.30827 0.41903 0.59609 0.0
C1963 C 0.24093 0.38677 0.57973 0.0
H1964 H 0.31017 0.40309 0.54916 0.0
C1965 C 0.21664 0.35534 0.53038 0.0
C1966 C 0.2296 0.37863 0.51926 0.0
C1967 C 0.22443 0.35992 0.54246 0.0
C1968 C 0.29024 0.39915 0.55756 0.0
H1969 H 0.28412 0.33719 0.62307 0.0
H1970 H 0.26423 0.34107 0.60202 0.0
H1971 H 0.32797 0.4052 0.57016 0.0
H1972 H 0.25941 0.42609 0.51211 0.0
H1973 H 0.27242 0.43465 0.5332 0.0
H1974 H 0.20321 0.38058 0.56718 0.0
C1975 C 0.2795 0.36258 0.60361 0.0
C1976 C 0.30051 0.40032 0.56961 0.0
C1977 C 0.29131 0.36009 0.61562 0.0
C1978 C 0.24954 0.40735 0.52051 0.0
C1979 C 0.25708 0.41215 0.53258 0.0
C1980 C 0.23058 0.38582 0.56769 0.0
C1981 C 0.28793 0.39197 0.59369 0.0
C1982 C 0.27614 0.39361 0.58083 0.0
C1983 C 0.2451 0.38813 0.5437 0.0
C1984 C 0.25526 0.3915 0.55646 0.0
H1985 H 0.3357 0.43776 0.60975 0.0
H1986 H 0.31498 0.44214 0.58865 0.0
H1987 H 0.22136 0.38206 0.5882 0.0
H1988 H 0.20154 0.33271 0.52969 0.0
H1989 H 0.2152 0.34053 0.55077 0.0
C1990 C 0.89719 0.05471 0.37397 0.0
C1991 C 0.86459 0.05984 0.38231 0.0
C1992 C 0.89696 0.04652 0.36161 0.0
C1993 C 0.84213 0.00867 0.3418 0.0
H1994 H 0.90845 0.05217 0.31381 0.0
C1995 C 0.84417 -0.0071 0.28799 0.0
C1996 C 0.87883 0.98597 0.28095 0.0
C1997 C 0.84069 0.00068 0.30062 0.0
C1998 C 0.89001 0.03953 0.32156 0.0
H1999 H 0.80605 0.06069 0.38413 0.0
H2000 H 0.80553 0.0473 0.36235 0.0
H2001 H 0.90478 0.07031 0.33507 0.0
H2002 H 0.937 0.97935 0.28195 0.0
H2003 H 0.9309 -0.00679 0.3039 0.0
H2004 H 0.82724 0.97814 0.32812 0.0
C2005 C 0.83136 0.04906 0.36548 0.0
C2006 C 0.8879 0.04991 0.33375 0.0
C2007 C 0.8316 0.05718 0.3779 0.0
C2008 C 0.9099 0.98539 0.28701 0.0
C2009 C 0.90642 -0.00667 0.29957 0.0
C2010 C 0.84408 -0.00154 0.32955 0.0
C2011 C 0.86409 0.04351 0.35721 0.0
C2012 C 0.86435 0.0342 0.34407 0.0
C2013 C 0.87181 0.00183 0.30642 0.0
C2014 C 0.86845 0.01339 0.31935 0.0
H2015 H 0.92302 0.05706 0.37698 0.0
H2016 H 0.92273 0.04194 0.35557 0.0
H2017 H 0.82396 -0.00424 0.34957 0.0
H2018 H 0.81969 -0.0061 0.28357 0.0
H2019 H 0.81367 0.00727 0.30566 0.0
C2020 C 0.19304 0.51679 0.15408 0.0
C2021 C 0.16741 0.49224 0.1595 0.0
C2022 C 0.19868 0.52828 0.14077 0.0
C2023 C 0.15546 0.53896 0.11089 0.0
H2024 H 0.25391 0.54448 0.09408 0.0
C2025 C 0.18649 0.57416 0.05536 0.0
C2026 C 0.21428 0.5964 0.05027 0.0
C2027 C 0.18097 0.56054 0.06855 0.0
C2028 C 0.22616 0.54366 0.0986 0.0
H2029 H 0.12755 0.46066 0.155 0.0
H2030 H 0.13732 0.48088 0.13173 0.0
H2031 H 0.24376 0.5225 0.1171 0.0
H2032 H 0.25783 0.6219 0.05525 0.0
H2033 H 0.24796 0.59875 0.07823 0.0
H2034 H 0.13773 0.56067 0.09246 0.0
C2035 C 0.15296 0.49136 0.13784 0.0
C2036 C 0.22034 0.53089 0.11185 0.0
C2037 C 0.14748 0.47959 0.1512 0.0
C2038 C 0.23647 0.60449 0.05877 0.0
C2039 C 0.2308 0.59107 0.07199 0.0
C2040 C 0.16125 0.55197 0.09765 0.0
C2041 C 0.17876 0.51579 0.13243 0.0
C2042 C 0.1849 0.52846 0.11821 0.0
C2043 C 0.20292 0.56888 0.07711 0.0
C2044 C 0.1967 0.55464 0.09128 0.0
H2045 H 0.20893 0.52722 0.16012 0.0
H2046 H 0.2184 0.54749 0.13701 0.0
H2047 H 0.12776 0.53798 0.11546 0.0
H2048 H 0.16923 0.56676 0.0491 0.0
H2049 H 0.15971 0.54297 0.07199 0.0
C2050 C 0.65378 0.95637 0.84452 0.0
C2051 C 0.62099 0.95648 0.85295 0.0
C2052 C 0.65493 0.95219 0.83152 0.0
C2053 C 0.60344 0.92064 0.80821 0.0
H2054 H 0.66564 0.9789 0.78283 0.0
C2055 C 0.60422 0.92845 0.75211 0.0
C2056 C 0.63774 0.93174 0.74434 0.0
C2057 C 0.60096 0.92934 0.76551 0.0
C2058 C 0.64843 0.96188 0.78974 0.0
H2059 H 0.56377 0.95099 0.854 0.0
H2060 H 0.56568 0.94433 0.83143 0.0
H2061 H 0.66283 0.98445 0.80543 0.0
H2062 H 0.69449 0.93637 0.74493 0.0
H2063 H 0.68909 0.93692 0.76788 0.0
H2064 H 0.58904 0.89817 0.79239 0.0
C2065 C 0.59069 0.94733 0.83488 0.0
C2066 C 0.64682 0.96511 0.80282 0.0
C2067 C 0.58952 0.95166 0.84788 0.0
C2068 C 0.66805 0.93415 0.75047 0.0
C2069 C 0.66487 0.93487 0.76373 0.0
C2070 C 0.60509 0.91735 0.79507 0.0
C2071 C 0.62337 0.9478 0.82641 0.0
C2072 C 0.62453 0.94439 0.81234 0.0
C2073 C 0.63114 0.93353 0.7715 0.0
C2074 C 0.62792 0.93765 0.78559 0.0
H2075 H 0.67862 0.96026 0.84791 0.0
H2076 H 0.68081 0.95219 0.82546 0.0
H2077 H 0.58611 0.90388 0.81517 0.0
H2078 H 0.58019 0.92692 0.74777 0.0
H2079 H 0.57444 0.92824 0.77108 0.0
loop_
_geom_bond_atom_site_label_1
_geom_bond_atom_site_label_2
_geom_bond_distance
_geom_bond_site_symmetry_2
_ccdc_geom_bond_type
Nd0 C2 2.836 . S
Nd0 O20 2.500 . S
Nd0 O21 2.492 . S
Nd0 O22 2.487 . S
Nd0 O23 2.682 . S
Nd0 O24 2.410 . S
Nd0 O29 2.414 . S
Nd0 O31 2.424 . S
Nd1 C11 2.836 . S
Nd1 O23 2.414 . S
Nd1 O25 2.424 . S
Nd1 O26 2.500 . S
Nd1 O27 2.492 . S
Nd1 O28 2.487 . S
Nd1 O29 2.682 . S
Nd1 O30 2.410 . S
C2 Nd0 2.836 . S
C2 C3 1.498 . S
C2 O20 1.258 . S
C2 O21 1.239 . S
C3 C2 1.498 . S
C3 C4 1.366 . S
C3 C8 1.407 . S
C4 C3 1.366 . S
C4 C5 1.392 . S
C4 H32 0.930 . S
C5 C4 1.392 . S
C5 C6 1.398 . S
C5 H33 0.929 . S
C6 C5 1.398 . S
C6 C7 1.352 . S
C7 C6 1.352 . S
C7 C8 1.384 . S
C7 H34 0.930 . S
C8 C3 1.407 . S
C8 C7 1.384 . S
C8 H35 0.929 . S
C9 O22 1.241 . S
C9 O23 1.273 . S
C10 O24 1.251 . S
C10 O25 1.268 . S
C11 Nd1 2.836 . S
C11 C12 1.498 . S
C11 O26 1.258 . S
C11 O27 1.239 . S
C12 C11 1.498 . S
C12 C13 1.366 . S
C12 C17 1.407 . S
C13 C12 1.366 . S
C13 C14 1.392 . S
C13 H36 0.930 . S
C14 C13 1.392 . S
C14 C15 1.398 . S
C14 H37 0.929 . S
C15 C14 1.398 . S
C15 C16 1.352 . S
C16 C15 1.352 . S
C16 C17 1.384 . S
C16 H38 0.930 . S
C17 C12 1.407 . S
C17 C16 1.384 . S
C17 H39 0.929 . S
C18 O28 1.241 . S
C18 O29 1.273 . S
C19 O30 1.251 . S
C19 O31 1.268 . S
O20 Nd0 2.500 . S
O20 C2 1.258 . S
O21 Nd0 2.492 . S
O21 C2 1.239 . S
O22 Nd0 2.487 . S
O22 C9 1.241 . S
O23 Nd0 2.682 . S
O23 Nd1 2.414 . S
O23 C9 1.273 . S
O24 Nd0 2.410 . S
O24 C10 1.251 . S
O25 Nd1 2.424 . S
O25 C10 1.268 . S
O26 Nd1 2.500 . S
O26 C11 1.258 . S
O27 Nd1 2.492 . S
O27 C11 1.239 . S
O28 Nd1 2.487 . S
O28 C18 1.241 . S
O29 Nd0 2.414 . S
O29 Nd1 2.682 . S
O29 C18 1.273 . S
O30 Nd1 2.410 . S
O30 C19 1.251 . S
O31 Nd0 2.424 . S
O31 C19 1.268 . S
H32 C4 0.930 . S
H33 C5 0.929 . S
H34 C7 0.930 . S
H35 C8 0.929 . S
H36 C13 0.930 . S
H37 C14 0.929 . S
H38 C16 0.930 . S
H39 C17 0.929 . S
Nd40 C42 2.836 . S
Nd40 O60 2.500 . S
Nd40 O61 2.492 . S
Nd40 O62 2.487 . S
Nd40 O63 2.682 . S
Nd40 O64 2.410 . S
Nd40 O69 2.414 . S
Nd40 O71 2.424 . S
Nd41 C51 2.836 . S
Nd41 O63 2.414 . S
Nd41 O65 2.424 . S
Nd41 O66 2.500 . S
Nd41 O67 2.492 . S
Nd41 O68 2.487 . S
Nd41 O69 2.682 . S
Nd41 O70 2.410 . S
C42 Nd40 2.836 . S
C42 C43 1.498 . S
C42 O60 1.258 . S
C42 O61 1.239 . S
C43 C42 1.498 . S
C43 C44 1.366 . S
C43 C48 1.407 . S
C44 C43 1.366 . S
C44 C45 1.392 . S
C44 H72 0.930 . S
C45 C44 1.392 . S
C45 C46 1.398 . S
C45 H73 0.929 . S
C46 C45 1.398 . S
C46 C47 1.352 . S
C47 C46 1.352 . S
C47 C48 1.384 . S
C47 H74 0.930 . S
C48 C43 1.407 . S
C48 C47 1.384 . S
C48 H75 0.929 . S
C49 O62 1.241 . S
C49 O63 1.273 . S
C50 O64 1.251 . S
C50 O65 1.268 . S
C51 Nd41 2.836 . S
C51 C52 1.498 . S
C51 O66 1.258 . S
C51 O67 1.239 . S
C52 C51 1.498 . S
C52 C53 1.366 . S
C52 C57 1.407 . S
C53 C52 1.366 . S
C53 C54 1.392 . S
C53 H76 0.930 . S
C54 C53 1.392 . S
C54 C55 1.398 . S
C54 H77 0.929 . S
C55 C54 1.398 . S
C55 C56 1.352 . S
C56 C55 1.352 . S
C56 C57 1.384 . S
C56 H78 0.930 . S
C57 C52 1.407 . S
C57 C56 1.384 . S
C57 H79 0.929 . S
C58 O68 1.241 . S
C58 O69 1.273 . S
C59 O70 1.251 . S
C59 O71 1.268 . S
O60 Nd40 2.500 . S
O60 C42 1.258 . S
O61 Nd40 2.492 . S
O61 C42 1.239 . S
O62 Nd40 2.487 . S
O62 C49 1.241 . S
O63 Nd40 2.682 . S
O63 Nd41 2.414 . S
O63 C49 1.273 . S
O64 Nd40 2.410 . S
O64 C50 1.251 . S
O65 Nd41 2.424 . S
O65 C50 1.268 . S
O66 Nd41 2.500 . S
O66 C51 1.258 . S
O67 Nd41 2.492 . S
O67 C51 1.239 . S
O68 Nd41 2.487 . S
O68 C58 1.241 . S
O69 Nd40 2.414 . S
O69 Nd41 2.682 . S
O69 C58 1.273 . S
O70 Nd41 2.410 . S
O70 C59 1.251 . S
O71 Nd40 2.424 . S
O71 C59 1.268 . S
H72 C44 0.930 . S
H73 C45 0.929 . S
H74 C47 0.930 . S
H75 C48 0.929 . S
H76 C53 0.930 . S
H77 C54 0.929 . S
H78 C56 0.930 . S
H79 C57 0.929 . S
Nd80 C82 2.836 . S
Nd80 O100 2.500 . S
Nd80 O101 2.492 . S
Nd80 O102 2.487 . S
Nd80 O103 2.682 . S
Nd80 O104 2.410 . S
Nd80 O109 2.414 . S
Nd80 O111 2.424 . S
Nd81 C91 2.836 . S
Nd81 O103 2.414 . S
Nd81 O105 2.424 . S
Nd81 O106 2.500 . S
Nd81 O107 2.492 . S
Nd81 O108 2.487 . S
Nd81 O109 2.682 . S
Nd81 O110 2.410 . S
C82 Nd80 2.836 . S
C82 C83 1.498 . S
C82 O100 1.258 . S
C82 O101 1.239 . S
C83 C82 1.498 . S
C83 C84 1.366 . S
C83 C88 1.407 . S
C84 C83 1.366 . S
C84 C85 1.392 . S
C84 H112 0.930 . S
C85 C84 1.392 . S
C85 C86 1.398 . S
C85 H113 0.929 . S
C86 C85 1.398 . S
C86 C87 1.352 . S
C87 C86 1.352 . S
C87 C88 1.384 . S
C87 H114 0.930 . S
C88 C83 1.407 . S
C88 C87 1.384 . S
C88 H115 0.929 . S
C89 O102 1.241 . S
C89 O103 1.273 . S
C90 O104 1.251 . S
C90 O105 1.268 . S
C91 Nd81 2.836 . S
C91 C92 1.498 . S
C91 O106 1.258 . S
C91 O107 1.239 . S
C92 C91 1.498 . S
C92 C93 1.366 . S
C92 C97 1.407 . S
C93 C92 1.366 . S
C93 C94 1.392 . S
C93 H116 0.930 . S
C94 C93 1.392 . S
C94 C95 1.398 . S
C94 H117 0.929 . S
C95 C94 1.398 . S
C95 C96 1.352 . S
C96 C95 1.352 . S
C96 C97 1.384 . S
C96 H118 0.930 . S
C97 C92 1.407 . S
C97 C96 1.384 . S
C97 H119 0.929 . S
C98 O108 1.241 . S
C98 O109 1.273 . S
C99 O110 1.251 . S
C99 O111 1.268 . S
O100 Nd80 2.500 . S
O100 C82 1.258 . S
O101 Nd80 2.492 . S
O101 C82 1.239 . S
O102 Nd80 2.487 . S
O102 C89 1.241 . S
O103 Nd80 2.682 . S
O103 Nd81 2.414 . S
O103 C89 1.273 . S
O104 Nd80 2.410 . S
O104 C90 1.251 . S
O105 Nd81 2.424 . S
O105 C90 1.268 . S
O106 Nd81 2.500 . S
O106 C91 1.258 . S
O107 Nd81 2.492 . S
O107 C91 1.239 . S
O108 Nd81 2.487 . S
O108 C98 1.241 . S
O109 Nd80 2.414 . S
O109 Nd81 2.682 . S
O109 C98 1.273 . S
O110 Nd81 2.410 . S
O110 C99 1.251 . S
O111 Nd80 2.424 . S
O111 C99 1.268 . S
H112 C84 0.930 . S
H113 C85 0.929 . S
H114 C87 0.930 . S
H115 C88 0.929 . S
H116 C93 0.930 . S
H117 C94 0.929 . S
H118 C96 0.930 . S
H119 C97 0.929 . S
Nd120 C122 2.836 . S
Nd120 O140 2.500 . S
Nd120 O141 2.492 . S
Nd120 O142 2.487 . S
Nd120 O143 2.682 . S
Nd120 O144 2.410 . S
Nd120 O149 2.414 . S
Nd120 O151 2.424 . S
Nd121 C131 2.836 . S
Nd121 O143 2.414 . S
Nd121 O145 2.424 . S
Nd121 O146 2.500 . S
Nd121 O147 2.492 . S
Nd121 O148 2.487 . S
Nd121 O149 2.682 . S
Nd121 O150 2.410 . S
C122 Nd120 2.836 . S
C122 C123 1.498 . S
C122 O140 1.258 . S
C122 O141 1.239 . S
C123 C122 1.498 . S
C123 C124 1.366 . S
C123 C128 1.407 . S
C124 C123 1.366 . S
C124 C125 1.392 . S
C124 H152 0.930 . S
C125 C124 1.392 . S
C125 C126 1.398 . S
C125 H153 0.929 . S
C126 C125 1.398 . S
C126 C127 1.352 . S
C127 C126 1.352 . S
C127 C128 1.384 . S
C127 H154 0.930 . S
C128 C123 1.407 . S
C128 C127 1.384 . S
C128 H155 0.929 . S
C129 O142 1.241 . S
C129 O143 1.273 . S
C130 O144 1.251 . S
C130 O145 1.268 . S
C131 Nd121 2.836 . S
C131 C132 1.498 . S
C131 O146 1.258 . S
C131 O147 1.239 . S
C132 C131 1.498 . S
C132 C133 1.366 . S
C132 C137 1.407 1_655 S
C133 C132 1.366 . S
C133 C134 1.392 . S
C133 H156 0.930 . S
C134 C133 1.392 . S
C134 C135 1.398 1_655 S
C134 H157 0.929 . S
C135 C134 1.398 1_455 S
C135 C136 1.352 . S
C136 C135 1.352 . S
C136 C137 1.384 . S
C136 H158 0.930 . S
C137 C132 1.407 1_455 S
C137 C136 1.384 . S
C137 H159 0.929 . S
C138 O148 1.241 . S
C138 O149 1.273 . S
C139 O150 1.251 . S
C139 O151 1.268 . S
O140 Nd120 2.500 . S
O140 C122 1.258 . S
O141 Nd120 2.492 . S
O141 C122 1.239 . S
O142 Nd120 2.487 . S
O142 C129 1.241 . S
O143 Nd120 2.682 . S
O143 Nd121 2.414 . S
O143 C129 1.273 . S
O144 Nd120 2.410 . S
O144 C130 1.251 . S
O145 Nd121 2.424 . S
O145 C130 1.268 . S
O146 Nd121 2.500 . S
O146 C131 1.258 . S
O147 Nd121 2.492 . S
O147 C131 1.239 . S
O148 Nd121 2.487 . S
O148 C138 1.241 . S
O149 Nd120 2.414 . S
O149 Nd121 2.682 . S
O149 C138 1.273 . S
O150 Nd121 2.410 . S
O150 C139 1.251 . S
O151 Nd120 2.424 . S
O151 C139 1.268 . S
H152 C124 0.930 . S
H153 C125 0.929 . S
H154 C127 0.930 . S
H155 C128 0.929 . S
H156 C133 0.930 . S
H157 C134 0.929 . S
H158 C136 0.930 . S
H159 C137 0.929 . S
Nd160 C162 2.836 . S
Nd160 O180 2.500 . S
Nd160 O181 2.492 . S
Nd160 O182 2.487 . S
Nd160 O183 2.682 . S
Nd160 O184 2.410 . S
Nd160 O189 2.414 . S
Nd160 O191 2.424 . S
Nd161 C171 2.836 . S
Nd161 O183 2.414 . S
Nd161 O185 2.424 . S
Nd161 O186 2.500 . S
Nd161 O187 2.492 . S
Nd161 O188 2.487 . S
Nd161 O189 2.682 . S
Nd161 O190 2.410 . S
C162 Nd160 2.836 . S
C162 C163 1.498 . S
C162 O180 1.258 . S
C162 O181 1.239 . S
C163 C162 1.498 . S
C163 C164 1.366 . S
C163 C168 1.407 . S
C164 C163 1.366 . S
C164 C165 1.392 . S
C164 H192 0.930 . S
C165 C164 1.392 . S
C165 C166 1.398 . S
C165 H193 0.929 . S
C166 C165 1.398 . S
C166 C167 1.352 . S
C167 C166 1.352 . S
C167 C168 1.384 . S
C167 H194 0.930 . S
C168 C163 1.407 . S
C168 C167 1.384 . S
C168 H195 0.929 . S
C169 O182 1.241 . S
C169 O183 1.273 . S
C170 O184 1.251 . S
C170 O185 1.268 . S
C171 Nd161 2.836 . S
C171 C172 1.498 . S
C171 O186 1.258 . S
C171 O187 1.239 . S
C172 C171 1.498 . S
C172 C173 1.366 . S
C172 C177 1.407 . S
C173 C172 1.366 . S
C173 C174 1.392 . S
C173 H196 0.930 . S
C174 C173 1.392 . S
C174 C175 1.398 . S
C174 H197 0.929 . S
C175 C174 1.398 . S
C175 C176 1.352 . S
C176 C175 1.352 . S
C176 C177 1.384 . S
C176 H198 0.930 . S
C177 C172 1.407 . S
C177 C176 1.384 . S
C177 H199 0.929 . S
C178 O188 1.241 . S
C178 O189 1.273 . S
C179 O190 1.251 . S
C179 O191 1.268 . S
O180 Nd160 2.500 . S
O180 C162 1.258 . S
O181 Nd160 2.492 . S
O181 C162 1.239 . S
O182 Nd160 2.487 . S
O182 C169 1.241 . S
O183 Nd160 2.682 . S
O183 Nd161 2.414 . S
O183 C169 1.273 . S
O184 Nd160 2.410 . S
O184 C170 1.251 . S
O185 Nd161 2.424 . S
O185 C170 1.268 . S
O186 Nd161 2.500 . S
O186 C171 1.258 . S
O187 Nd161 2.492 . S
O187 C171 1.239 . S
O188 Nd161 2.487 . S
O188 C178 1.241 . S
O189 Nd160 2.414 . S
O189 Nd161 2.682 . S
O189 C178 1.273 . S
O190 Nd161 2.410 . S
O190 C179 1.251 . S
O191 Nd160 2.424 . S
O191 C179 1.268 . S
H192 C164 0.930 . S
H193 C165 0.929 . S
H194 C167 0.930 . S
H195 C168 0.929 . S
H196 C173 0.930 . S
H197 C174 0.929 . S
H198 C176 0.930 . S
H199 C177 0.929 . S
Nd200 C202 2.836 . S
Nd200 O220 2.500 . S
Nd200 O221 2.492 . S
Nd200 O222 2.487 . S
Nd200 O223 2.682 . S
Nd200 O224 2.410 . S
Nd200 O229 2.414 . S
Nd200 O231 2.424 . S
Nd201 C211 2.836 . S
Nd201 O223 2.414 . S
Nd201 O225 2.424 . S
Nd201 O226 2.500 . S
Nd201 O227 2.492 . S
Nd201 O228 2.487 . S
Nd201 O229 2.682 . S
Nd201 O230 2.410 . S
C202 Nd200 2.836 . S
C202 C203 1.498 . S
C202 O220 1.258 . S
C202 O221 1.239 . S
C203 C202 1.498 . S
C203 C204 1.366 . S
C203 C208 1.407 . S
C204 C203 1.366 . S
C204 C205 1.392 . S
C204 H232 0.930 . S
C205 C204 1.392 . S
C205 C206 1.398 . S
C205 H233 0.929 . S
C206 C205 1.398 . S
C206 C207 1.352 . S
C207 C206 1.352 . S
C207 C208 1.384 . S
C207 H234 0.930 . S
C208 C203 1.407 . S
C208 C207 1.384 . S
C208 H235 0.929 . S
C209 O222 1.241 . S
C209 O223 1.273 . S
C210 O224 1.251 . S
C210 O225 1.268 . S
C211 Nd201 2.836 . S
C211 C212 1.498 . S
C211 O226 1.258 . S
C211 O227 1.239 . S
C212 C211 1.498 . S
C212 C213 1.366 . S
C212 C217 1.407 . S
C213 C212 1.366 . S
C213 C214 1.392 . S
C213 H236 0.930 . S
C214 C213 1.392 . S
C214 C215 1.398 . S
C214 H237 0.929 . S
C215 C214 1.398 . S
C215 C216 1.352 . S
C216 C215 1.352 . S
C216 C217 1.384 . S
C216 H238 0.930 . S
C217 C212 1.407 . S
C217 C216 1.384 . S
C217 H239 0.929 . S
C218 O228 1.241 . S
C218 O229 1.273 . S
C219 O230 1.251 . S
C219 O231 1.268 . S
O220 Nd200 2.500 . S
O220 C202 1.258 . S
O221 Nd200 2.492 . S
O221 C202 1.239 . S
O222 Nd200 2.487 . S
O222 C209 1.241 . S
O223 Nd200 2.682 . S
O223 Nd201 2.414 . S
O223 C209 1.273 . S
O224 Nd200 2.410 . S
O224 C210 1.251 . S
O225 Nd201 2.424 . S
O225 C210 1.268 . S
O226 Nd201 2.500 . S
O226 C211 1.258 . S
O227 Nd201 2.492 . S
O227 C211 1.239 . S
O228 Nd201 2.487 . S
O228 C218 1.241 . S
O229 Nd200 2.414 . S
O229 Nd201 2.682 . S
O229 C218 1.273 . S
O230 Nd201 2.410 . S
O230 C219 1.251 . S
O231 Nd200 2.424 . S
O231 C219 1.268 . S
H232 C204 0.930 . S
H233 C205 0.929 . S
H234 C207 0.930 . S
H235 C208 0.929 . S
H236 C213 0.930 . S
H237 C214 0.929 . S
H238 C216 0.930 . S
H239 C217 0.929 . S
Nd240 C242 2.836 . S
Nd240 O260 2.500 . S
Nd240 O261 2.492 . S
Nd240 O262 2.487 . S
Nd240 O263 2.682 . S
Nd240 O264 2.410 . S
Nd240 O269 2.414 . S
Nd240 O271 2.424 . S
Nd241 C251 2.836 . S
Nd241 O263 2.414 . S
Nd241 O265 2.424 . S
Nd241 O266 2.500 . S
Nd241 O267 2.492 . S
Nd241 O268 2.487 . S
Nd241 O269 2.682 . S
Nd241 O270 2.410 . S
C242 Nd240 2.836 . S
C242 C243 1.498 . S
C242 O260 1.258 . S
C242 O261 1.239 . S
C243 C242 1.498 . S
C243 C244 1.366 . S
C243 C248 1.407 . S
C244 C243 1.366 . S
C244 C245 1.392 . S
C244 H272 0.930 . S
C245 C244 1.392 . S
C245 C246 1.398 . S
C245 H273 0.929 . S
C246 C245 1.398 . S
C246 C247 1.352 . S
C247 C246 1.352 . S
C247 C248 1.384 . S
C247 H274 0.930 . S
C248 C243 1.407 . S
C248 C247 1.384 . S
C248 H275 0.929 . S
C249 O262 1.241 . S
C249 O263 1.273 . S
C250 O264 1.251 . S
C250 O265 1.268 . S
C251 Nd241 2.836 . S
C251 C252 1.498 . S
C251 O266 1.258 . S
C251 O267 1.239 . S
C252 C251 1.498 . S
C252 C253 1.366 . S
C252 C257 1.407 . S
C253 C252 1.366 . S
C253 C254 1.392 . S
C253 H276 0.930 . S
C254 C253 1.392 . S
C254 C255 1.398 . S
C254 H277 0.929 . S
C255 C254 1.398 . S
C255 C256 1.352 . S
C256 C255 1.352 . S
C256 C257 1.384 . S
C256 H278 0.930 . S
C257 C252 1.407 . S
C257 C256 1.384 . S
C257 H279 0.929 . S
C258 O268 1.241 . S
C258 O269 1.273 . S
C259 O270 1.251 . S
C259 O271 1.268 . S
O260 Nd240 2.500 . S
O260 C242 1.258 . S
O261 Nd240 2.492 . S
O261 C242 1.239 . S
O262 Nd240 2.487 . S
O262 C249 1.241 . S
O263 Nd240 2.682 . S
O263 Nd241 2.414 . S
O263 C249 1.273 . S
O264 Nd240 2.410 . S
O264 C250 1.251 . S
O265 Nd241 2.424 . S
O265 C250 1.268 . S
O266 Nd241 2.500 . S
O266 C251 1.258 . S
O267 Nd241 2.492 . S
O267 C251 1.239 . S
O268 Nd241 2.487 . S
O268 C258 1.241 . S
O269 Nd240 2.414 . S
O269 Nd241 2.682 . S
O269 C258 1.273 . S
O270 Nd241 2.410 . S
O270 C259 1.251 . S
O271 Nd240 2.424 . S
O271 C259 1.268 . S
H272 C244 0.930 . S
H273 C245 0.929 . S
H274 C247 0.930 . S
H275 C248 0.929 . S
H276 C253 0.930 . S
H277 C254 0.929 . S
H278 C256 0.930 . S
H279 C257 0.929 . S
Nd280 C282 2.836 . S
Nd280 O300 2.500 . S
Nd280 O301 2.492 . S
Nd280 O302 2.487 . S
Nd280 O303 2.682 . S
Nd280 O304 2.410 . S
Nd280 O309 2.414 . S
Nd280 O311 2.424 . S
Nd281 C291 2.836 . S
Nd281 O303 2.414 . S
Nd281 O305 2.424 . S
Nd281 O306 2.500 . S
Nd281 O307 2.492 . S
Nd281 O308 2.487 . S
Nd281 O309 2.682 . S
Nd281 O310 2.410 . S
C282 Nd280 2.836 . S
C282 C283 1.498 . S
C282 O300 1.258 . S
C282 O301 1.239 . S
C283 C282 1.498 . S
C283 C284 1.366 . S
C283 C288 1.407 1_455 S
C284 C283 1.366 . S
C284 C285 1.392 . S
C284 H312 0.930 . S
C285 C284 1.392 . S
C285 C286 1.398 1_455 S
C285 H313 0.929 . S
C286 C285 1.398 1_655 S
C286 C287 1.352 . S
C287 C286 1.352 . S
C287 C288 1.384 . S
C287 H314 0.930 . S
C288 C283 1.407 1_655 S
C288 C287 1.384 . S
C288 H315 0.929 . S
C289 O302 1.241 . S
C289 O303 1.273 . S
C290 O304 1.251 . S
C290 O305 1.268 . S
C291 Nd281 2.836 . S
C291 C292 1.498 . S
C291 O306 1.258 . S
C291 O307 1.239 . S
C292 C291 1.498 . S
C292 C293 1.366 . S
C292 C297 1.407 . S
C293 C292 1.366 . S
C293 C294 1.392 . S
C293 H316 0.930 . S
C294 C293 1.392 . S
C294 C295 1.398 . S
C294 H317 0.929 . S
C295 C294 1.398 . S
C295 C296 1.352 . S
C296 C295 1.352 . S
C296 C297 1.384 . S
C296 H318 0.930 . S
C297 C292 1.407 . S
C297 C296 1.384 . S
C297 H319 0.929 . S
C298 O308 1.241 . S
C298 O309 1.273 . S
C299 O310 1.251 . S
C299 O311 1.268 . S
O300 Nd280 2.500 . S
O300 C282 1.258 . S
O301 Nd280 2.492 . S
O301 C282 1.239 . S
O302 Nd280 2.487 . S
O302 C289 1.241 . S
O303 Nd280 2.682 . S
O303 Nd281 2.414 . S
O303 C289 1.273 . S
O304 Nd280 2.410 . S
O304 C290 1.251 . S
O305 Nd281 2.424 . S
O305 C290 1.268 . S
O306 Nd281 2.500 . S
O306 C291 1.258 . S
O307 Nd281 2.492 . S
O307 C291 1.239 . S
O308 Nd281 2.487 . S
O308 C298 1.241 . S
O309 Nd280 2.414 . S
O309 Nd281 2.682 . S
O309 C298 1.273 . S
O310 Nd281 2.410 . S
O310 C299 1.251 . S
O311 Nd280 2.424 . S
O311 C299 1.268 . S
H312 C284 0.930 . S
H313 C285 0.929 . S
H314 C287 0.930 . S
H315 C288 0.929 . S
H316 C293 0.930 . S
H317 C294 0.929 . S
H318 C296 0.930 . S
H319 C297 0.929 . S
Nd320 C322 2.836 . S
Nd320 O340 2.500 . S
Nd320 O341 2.492 . S
Nd320 O342 2.487 . S
Nd320 O343 2.682 . S
Nd320 O344 2.410 . S
Nd320 O349 2.414 . S
Nd320 O351 2.424 . S
Nd321 C331 2.836 . S
Nd321 O343 2.414 . S
Nd321 O345 2.424 . S
Nd321 O346 2.500 . S
Nd321 O347 2.492 . S
Nd321 O348 2.487 . S
Nd321 O349 2.682 . S
Nd321 O350 2.410 . S
C322 Nd320 2.836 . S
C322 C323 1.498 . S
C322 O340 1.258 . S
C322 O341 1.239 . S
C323 C322 1.498 . S
C323 C324 1.366 . S
C323 C328 1.407 . S
C324 C323 1.366 . S
C324 C325 1.392 . S
C324 H352 0.930 . S
C325 C324 1.392 . S
C325 C326 1.398 . S
C325 H353 0.929 . S
C326 C325 1.398 . S
C326 C327 1.352 . S
C327 C326 1.352 . S
C327 C328 1.384 . S
C327 H354 0.930 . S
C328 C323 1.407 . S
C328 C327 1.384 . S
C328 H355 0.929 . S
C329 O342 1.241 . S
C329 O343 1.273 . S
C330 O344 1.251 . S
C330 O345 1.268 . S
C331 Nd321 2.836 . S
C331 C332 1.498 . S
C331 O346 1.258 . S
C331 O347 1.239 . S
C332 C331 1.498 . S
C332 C333 1.366 . S
C332 C337 1.407 . S
C333 C332 1.366 . S
C333 C334 1.392 . S
C333 H356 0.930 . S
C334 C333 1.392 . S
C334 C335 1.398 . S
C334 H357 0.929 . S
C335 C334 1.398 . S
C335 C336 1.352 . S
C336 C335 1.352 . S
C336 C337 1.384 . S
C336 H358 0.930 . S
C337 C332 1.407 . S
C337 C336 1.384 . S
C337 H359 0.929 . S
C338 O348 1.241 . S
C338 O349 1.273 . S
C339 O350 1.251 . S
C339 O351 1.268 . S
O340 Nd320 2.500 . S
O340 C322 1.258 . S
O341 Nd320 2.492 . S
O341 C322 1.239 . S
O342 Nd320 2.487 . S
O342 C329 1.241 . S
O343 Nd320 2.682 . S
O343 Nd321 2.414 . S
O343 C329 1.273 . S
O344 Nd320 2.410 . S
O344 C330 1.251 . S
O345 Nd321 2.424 . S
O345 C330 1.268 . S
O346 Nd321 2.500 . S
O346 C331 1.258 . S
O347 Nd321 2.492 . S
O347 C331 1.239 . S
O348 Nd321 2.487 . S
O348 C338 1.241 . S
O349 Nd320 2.414 . S
O349 Nd321 2.682 . S
O349 C338 1.273 . S
O350 Nd321 2.410 . S
O350 C339 1.251 . S
O351 Nd320 2.424 . S
O351 C339 1.268 . S
H352 C324 0.930 . S
H353 C325 0.929 . S
H354 C327 0.930 . S
H355 C328 0.929 . S
H356 C333 0.930 . S
H357 C334 0.929 . S
H358 C336 0.930 . S
H359 C337 0.929 . S
Nd360 C362 2.836 . S
Nd360 O380 2.500 . S
Nd360 O381 2.492 . S
Nd360 O382 2.487 . S
Nd360 O383 2.682 . S
Nd360 O384 2.410 . S
Nd360 O389 2.414 . S
Nd360 O391 2.424 . S
Nd361 C371 2.836 . S
Nd361 O383 2.414 . S
Nd361 O385 2.424 . S
Nd361 O386 2.500 . S
Nd361 O387 2.492 . S
Nd361 O388 2.487 1_545 S
Nd361 O389 2.682 . S
Nd361 O390 2.410 . S
C362 Nd360 2.836 . S
C362 C363 1.498 . S
C362 O380 1.258 . S
C362 O381 1.239 . S
C363 C362 1.498 . S
C363 C364 1.366 . S
C363 C368 1.407 . S
C364 C363 1.366 . S
C364 C365 1.392 . S
C364 H392 0.930 . S
C365 C364 1.392 . S
C365 C366 1.398 . S
C365 H393 0.929 . S
C366 C365 1.398 . S
C366 C367 1.352 . S
C367 C366 1.352 . S
C367 C368 1.384 . S
C367 H394 0.930 . S
C368 C363 1.407 . S
C368 C367 1.384 . S
C368 H395 0.929 . S
C369 O382 1.241 . S
C369 O383 1.273 . S
C370 O384 1.251 . S
C370 O385 1.268 . S
C371 Nd361 2.836 . S
C371 C372 1.498 . S
C371 O386 1.258 . S
C371 O387 1.239 . S
C372 C371 1.498 . S
C372 C373 1.366 . S
C372 C377 1.407 . S
C373 C372 1.366 . S
C373 C374 1.392 . S
C373 H396 0.930 . S
C374 C373 1.392 . S
C374 C375 1.398 . S
C374 H397 0.929 . S
C375 C374 1.398 . S
C375 C376 1.352 . S
C376 C375 1.352 . S
C376 C377 1.384 . S
C376 H398 0.930 1_545 S
C377 C372 1.407 . S
C377 C376 1.384 . S
C377 H399 0.929 1_545 S
C378 O388 1.246 . S
C378 O389 1.263 1_565 S
C379 O390 1.251 . S
C379 O391 1.268 . S
O380 Nd360 2.500 . S
O380 C362 1.258 . S
O381 Nd360 2.492 . S
O381 C362 1.239 . S
O382 Nd360 2.487 . S
O382 C369 1.241 . S
O383 Nd360 2.682 . S
O383 Nd361 2.414 . S
O383 C369 1.273 . S
O384 Nd360 2.410 . S
O384 C370 1.251 . S
O385 Nd361 2.424 . S
O385 C370 1.268 . S
O386 Nd361 2.500 . S
O386 C371 1.258 . S
O387 Nd361 2.492 . S
O387 C371 1.239 . S
O388 Nd361 2.487 1_565 S
O388 C378 1.246 . S
O389 Nd360 2.414 . S
O389 Nd361 2.682 . S
O389 C378 1.263 1_545 S
O390 Nd361 2.410 . S
O390 C379 1.251 . S
O391 Nd360 2.424 . S
O391 C379 1.268 . S
H392 C364 0.930 . S
H393 C365 0.929 . S
H394 C367 0.930 . S
H395 C368 0.929 . S
H396 C373 0.930 . S
H397 C374 0.929 . S
H398 C376 0.930 1_565 S
H399 C377 0.929 1_565 S
Nd400 C402 2.836 . S
Nd400 O420 2.500 . S
Nd400 O421 2.492 . S
Nd400 O422 2.487 . S
Nd400 O423 2.682 . S
Nd400 O424 2.410 . S
Nd400 O429 2.414 . S
Nd400 O431 2.424 . S
Nd401 C411 2.836 . S
Nd401 O423 2.414 . S
Nd401 O425 2.424 . S
Nd401 O426 2.500 . S
Nd401 O427 2.492 . S
Nd401 O428 2.487 . S
Nd401 O429 2.682 . S
Nd401 O430 2.410 . S
C402 Nd400 2.836 . S
C402 C403 1.498 . S
C402 O420 1.258 . S
C402 O421 1.239 . S
C403 C402 1.498 . S
C403 C404 1.366 . S
C403 C408 1.407 . S
C404 C403 1.366 . S
C404 C405 1.392 . S
C404 H432 0.930 . S
C405 C404 1.392 . S
C405 C406 1.398 . S
C405 H433 0.929 . S
C406 C405 1.398 . S
C406 C407 1.352 . S
C407 C406 1.352 . S
C407 C408 1.384 . S
C407 H434 0.930 . S
C408 C403 1.407 . S
C408 C407 1.384 . S
C408 H435 0.929 . S
C409 O422 1.241 . S
C409 O423 1.273 . S
C410 O424 1.251 . S
C410 O425 1.268 . S
C411 Nd401 2.836 . S
C411 C412 1.498 . S
C411 O426 1.258 . S
C411 O427 1.239 . S
C412 C411 1.498 . S
C412 C413 1.366 . S
C412 C417 1.407 . S
C413 C412 1.366 . S
C413 C414 1.392 1_554 S
C413 H436 0.930 . S
C414 C413 1.392 1_556 S
C414 C415 1.398 . S
C414 H437 0.929 . S
C415 C414 1.398 . S
C415 C416 1.352 . S
C416 C415 1.352 . S
C416 C417 1.384 1_556 S
C416 H438 0.930 . S
C417 C412 1.407 . S
C417 C416 1.384 1_554 S
C417 H439 0.929 . S
C418 O428 1.241 . S
C418 O429 1.273 . S
C419 O430 1.251 . S
C419 O431 1.268 . S
O420 Nd400 2.500 . S
O420 C402 1.258 . S
O421 Nd400 2.492 . S
O421 C402 1.239 . S
O422 Nd400 2.487 . S
O422 C409 1.241 . S
O423 Nd400 2.682 . S
O423 Nd401 2.414 . S
O423 C409 1.273 . S
O424 Nd400 2.410 . S
O424 C410 1.251 . S
O425 Nd401 2.424 . S
O425 C410 1.268 . S
O426 Nd401 2.500 . S
O426 C411 1.258 . S
O427 Nd401 2.492 . S
O427 C411 1.239 . S
O428 Nd401 2.487 . S
O428 C418 1.241 . S
O429 Nd400 2.414 . S
O429 Nd401 2.682 . S
O429 C418 1.273 . S
O430 Nd401 2.410 . S
O430 C419 1.251 . S
O431 Nd400 2.424 . S
O431 C419 1.268 . S
H432 C404 0.930 . S
H433 C405 0.929 . S
H434 C407 0.930 . S
H435 C408 0.929 . S
H436 C413 0.930 . S
H437 C414 0.929 . S
H438 C416 0.930 . S
H439 C417 0.929 . S
Nd440 C442 2.836 . S
Nd440 O460 2.500 . S
Nd440 O461 2.492 . S
Nd440 O462 2.487 1_565 S
Nd440 O463 2.682 1_565 S
Nd440 O464 2.410 . S
Nd440 O469 2.414 . S
Nd440 O471 2.424 . S
Nd441 C451 2.836 1_565 S
Nd441 O463 2.414 1_565 S
Nd441 O465 2.424 . S
Nd441 O466 2.500 1_565 S
Nd441 O467 2.492 . S
Nd441 O468 2.487 . S
Nd441 O469 2.682 . S
Nd441 O470 2.410 . S
C442 Nd440 2.836 . S
C442 C443 1.498 . S
C442 O460 1.258 . S
C442 O461 1.239 . S
C443 C442 1.498 . S
C443 C444 1.366 . S
C443 C448 1.407 . S
C444 C443 1.366 . S
C444 C445 1.392 . S
C444 H472 0.930 . S
C445 C444 1.392 . S
C445 C446 1.398 . S
C445 H473 0.929 . S
C446 C445 1.398 . S
C446 C447 1.352 . S
C447 C446 1.352 . S
C447 C448 1.384 . S
C447 H474 0.930 . S
C448 C443 1.407 . S
C448 C447 1.384 . S
C448 H475 0.929 . S
C449 O462 1.241 . S
C449 O463 1.273 . S
C450 O464 1.251 . S
C450 O465 1.268 . S
C451 Nd441 2.836 1_545 S
C451 C452 1.498 . S
C451 O466 1.258 . S
C451 O467 1.239 1_545 S
C452 C451 1.498 . S
C452 C453 1.366 . S
C452 C457 1.407 1_545 S
C453 C452 1.366 . S
C453 C454 1.392 . S
C453 H476 0.930 . S
C454 C453 1.392 . S
C454 C455 1.398 . S
C454 H477 0.929 . S
C455 C454 1.398 . S
C455 C456 1.352 . S
C456 C455 1.352 . S
C456 C457 1.383 1_545 S
C456 H478 0.930 . S
C457 C452 1.407 1_565 S
C457 C456 1.383 1_565 S
C457 H479 0.930 . S
C458 O468 1.241 . S
C458 O469 1.273 . S
C459 O470 1.251 . S
C459 O471 1.268 . S
O460 Nd440 2.500 . S
O460 C442 1.258 . S
O461 Nd440 2.492 . S
O461 C442 1.239 . S
O462 Nd440 2.487 1_545 S
O462 C449 1.241 . S
O463 Nd440 2.682 1_545 S
O463 Nd441 2.414 1_545 S
O463 C449 1.273 . S
O464 Nd440 2.410 . S
O464 C450 1.251 . S
O465 Nd441 2.424 . S
O465 C450 1.268 . S
O466 Nd441 2.500 1_545 S
O466 C451 1.258 . S
O467 Nd441 2.492 . S
O467 C451 1.239 1_565 S
O468 Nd441 2.487 . S
O468 C458 1.241 . S
O469 Nd440 2.414 . S
O469 Nd441 2.682 . S
O469 C458 1.273 . S
O470 Nd441 2.410 . S
O470 C459 1.251 . S
O471 Nd440 2.424 . S
O471 C459 1.268 . S
H472 C444 0.930 . S
H473 C445 0.929 . S
H474 C447 0.930 . S
H475 C448 0.929 . S
H476 C453 0.930 . S
H477 C454 0.929 . S
H478 C456 0.930 . S
H479 C457 0.930 . S
Nd480 C482 2.836 . S
Nd480 O500 2.500 . S
Nd480 O501 2.492 . S
Nd480 O502 2.487 . S
Nd480 O503 2.682 . S
Nd480 O504 2.410 . S
Nd480 O509 2.414 . S
Nd480 O511 2.424 . S
Nd481 C491 2.836 . S
Nd481 O503 2.414 . S
Nd481 O505 2.424 . S
Nd481 O506 2.500 . S
Nd481 O507 2.492 . S
Nd481 O508 2.487 . S
Nd481 O509 2.682 . S
Nd481 O510 2.410 . S
C482 Nd480 2.836 . S
C482 C483 1.498 . S
C482 O500 1.258 . S
C482 O501 1.239 . S
C483 C482 1.498 . S
C483 C484 1.366 . S
C483 C488 1.407 . S
C484 C483 1.366 . S
C484 C485 1.392 . S
C484 H512 0.930 . S
C485 C484 1.392 . S
C485 C486 1.398 . S
C485 H513 0.929 . S
C486 C485 1.398 . S
C486 C487 1.352 . S
C487 C486 1.352 . S
C487 C488 1.384 . S
C487 H514 0.930 . S
C488 C483 1.407 . S
C488 C487 1.384 . S
C488 H515 0.929 . S
C489 O502 1.241 . S
C489 O503 1.273 . S
C490 O504 1.251 . S
C490 O505 1.268 . S
C491 Nd481 2.836 . S
C491 C492 1.498 . S
C491 O506 1.258 . S
C491 O507 1.239 . S
C492 C491 1.498 . S
C492 C493 1.366 . S
C492 C497 1.407 . S
C493 C492 1.366 . S
C493 C494 1.392 . S
C493 H516 0.930 . S
C494 C493 1.392 . S
C494 C495 1.398 . S
C494 H517 0.929 . S
C495 C494 1.398 . S
C495 C496 1.352 . S
C496 C495 1.352 . S
C496 C497 1.384 . S
C496 H518 0.930 . S
C497 C492 1.407 . S
C497 C496 1.384 . S
C497 H519 0.929 . S
C498 O508 1.241 . S
C498 O509 1.273 . S
C499 O510 1.251 . S
C499 O511 1.268 . S
O500 Nd480 2.500 . S
O500 C482 1.258 . S
O501 Nd480 2.492 . S
O501 C482 1.239 . S
O502 Nd480 2.487 . S
O502 C489 1.241 . S
O503 Nd480 2.682 . S
O503 Nd481 2.414 . S
O503 C489 1.273 . S
O504 Nd480 2.410 . S
O504 C490 1.251 . S
O505 Nd481 2.424 . S
O505 C490 1.268 . S
O506 Nd481 2.500 . S
O506 C491 1.258 . S
O507 Nd481 2.492 . S
O507 C491 1.239 . S
O508 Nd481 2.487 . S
O508 C498 1.241 . S
O509 Nd480 2.414 . S
O509 Nd481 2.682 . S
O509 C498 1.273 . S
O510 Nd481 2.410 . S
O510 C499 1.251 . S
O511 Nd480 2.424 . S
O511 C499 1.268 . S
H512 C484 0.930 . S
H513 C485 0.929 . S
H514 C487 0.930 . S
H515 C488 0.929 . S
H516 C493 0.930 . S
H517 C494 0.929 . S
H518 C496 0.930 . S
H519 C497 0.929 . S
Nd520 C522 2.836 . S
Nd520 O540 2.500 . S
Nd520 O541 2.492 . S
Nd520 O542 2.487 1_565 S
Nd520 O543 2.682 . S
Nd520 O544 2.410 . S
Nd520 O549 2.414 . S
Nd520 O551 2.424 . S
Nd521 C531 2.836 . S
Nd521 O543 2.414 . S
Nd521 O545 2.424 . S
Nd521 O546 2.500 . S
Nd521 O547 2.492 . S
Nd521 O548 2.487 . S
Nd521 O549 2.682 . S
Nd521 O550 2.410 . S
C522 Nd520 2.836 . S
C522 C523 1.498 . S
C522 O540 1.258 . S
C522 O541 1.239 . S
C523 C522 1.498 . S
C523 C524 1.366 . S
C523 C528 1.407 . S
C524 C523 1.366 . S
C524 C525 1.392 . S
C524 H552 0.930 . S
C525 C524 1.392 . S
C525 C526 1.398 . S
C525 H553 0.929 . S
C526 C525 1.398 . S
C526 C527 1.352 . S
C527 C526 1.352 . S
C527 C528 1.384 . S
C527 H554 0.930 1_565 S
C528 C523 1.407 . S
C528 C527 1.384 . S
C528 H555 0.929 1_565 S
C529 O542 1.246 . S
C529 O543 1.263 1_545 S
C530 O544 1.251 . S
C530 O545 1.268 . S
C531 Nd521 2.836 . S
C531 C532 1.498 . S
C531 O546 1.258 . S
C531 O547 1.239 . S
C532 C531 1.498 . S
C532 C533 1.366 . S
C532 C537 1.407 . S
C533 C532 1.366 . S
C533 C534 1.392 . S
C533 H556 0.930 . S
C534 C533 1.392 . S
C534 C535 1.398 . S
C534 H557 0.929 . S
C535 C534 1.398 . S
C535 C536 1.352 . S
C536 C535 1.352 . S
C536 C537 1.384 . S
C536 H558 0.930 . S
C537 C532 1.407 . S
C537 C536 1.384 . S
C537 H559 0.929 . S
C538 O548 1.241 . S
C538 O549 1.273 . S
C539 O550 1.251 . S
C539 O551 1.268 . S
O540 Nd520 2.500 . S
O540 C522 1.258 . S
O541 Nd520 2.492 . S
O541 C522 1.239 . S
O542 Nd520 2.487 1_545 S
O542 C529 1.246 . S
O543 Nd520 2.682 . S
O543 Nd521 2.414 . S
O543 C529 1.263 1_565 S
O544 Nd520 2.410 . S
O544 C530 1.251 . S
O545 Nd521 2.424 . S
O545 C530 1.268 . S
O546 Nd521 2.500 . S
O546 C531 1.258 . S
O547 Nd521 2.492 . S
O547 C531 1.239 . S
O548 Nd521 2.487 . S
O548 C538 1.241 . S
O549 Nd520 2.414 . S
O549 Nd521 2.682 . S
O549 C538 1.273 . S
O550 Nd521 2.410 . S
O550 C539 1.251 . S
O551 Nd520 2.424 . S
O551 C539 1.268 . S
H552 C524 0.930 . S
H553 C525 0.929 . S
H554 C527 0.930 1_545 S
H555 C528 0.929 1_545 S
H556 C533 0.930 . S
H557 C534 0.929 . S
H558 C536 0.930 . S
H559 C537 0.929 . S
Nd560 C562 2.836 . S
Nd560 O580 2.500 . S
Nd560 O581 2.492 . S
Nd560 O582 2.487 . S
Nd560 O583 2.682 . S
Nd560 O584 2.410 . S
Nd560 O589 2.414 . S
Nd560 O591 2.424 . S
Nd561 C571 2.836 . S
Nd561 O583 2.414 . S
Nd561 O585 2.424 . S
Nd561 O586 2.500 . S
Nd561 O587 2.492 . S
Nd561 O588 2.487 . S
Nd561 O589 2.682 . S
Nd561 O590 2.410 . S
C562 Nd560 2.836 . S
C562 C563 1.498 . S
C562 O580 1.258 . S
C562 O581 1.239 . S
C563 C562 1.498 . S
C563 C564 1.366 . S
C563 C568 1.407 . S
C564 C563 1.366 . S
C564 C565 1.392 1_556 S
C564 H592 0.930 . S
C565 C564 1.392 1_554 S
C565 C566 1.398 . S
C565 H593 0.929 . S
C566 C565 1.398 . S
C566 C567 1.352 . S
C567 C566 1.352 . S
C567 C568 1.384 1_554 S
C567 H594 0.930 . S
C568 C563 1.407 . S
C568 C567 1.384 1_556 S
C568 H595 0.929 . S
C569 O582 1.241 . S
C569 O583 1.273 . S
C570 O584 1.251 . S
C570 O585 1.268 . S
C571 Nd561 2.836 . S
C571 C572 1.498 . S
C571 O586 1.258 . S
C571 O587 1.239 . S
C572 C571 1.498 . S
C572 C573 1.366 . S
C572 C577 1.407 . S
C573 C572 1.366 . S
C573 C574 1.392 . S
C573 H596 0.930 . S
C574 C573 1.392 . S
C574 C575 1.398 . S
C574 H597 0.929 . S
C575 C574 1.398 . S
C575 C576 1.352 . S
C576 C575 1.352 . S
C576 C577 1.384 . S
C576 H598 0.930 . S
C577 C572 1.407 . S
C577 C576 1.384 . S
C577 H599 0.929 . S
C578 O588 1.241 . S
C578 O589 1.273 . S
C579 O590 1.251 . S
C579 O591 1.268 . S
O580 Nd560 2.500 . S
O580 C562 1.258 . S
O581 Nd560 2.492 . S
O581 C562 1.239 . S
O582 Nd560 2.487 . S
O582 C569 1.241 . S
O583 Nd560 2.682 . S
O583 Nd561 2.414 . S
O583 C569 1.273 . S
O584 Nd560 2.410 . S
O584 C570 1.251 . S
O585 Nd561 2.424 . S
O585 C570 1.268 . S
O586 Nd561 2.500 . S
O586 C571 1.258 . S
O587 Nd561 2.492 . S
O587 C571 1.239 . S
O588 Nd561 2.487 . S
O588 C578 1.241 . S
O589 Nd560 2.414 . S
O589 Nd561 2.682 . S
O589 C578 1.273 . S
O590 Nd561 2.410 . S
O590 C579 1.251 . S
O591 Nd560 2.424 . S
O591 C579 1.268 . S
H592 C564 0.930 . S
H593 C565 0.929 . S
H594 C567 0.930 . S
H595 C568 0.929 . S
H596 C573 0.930 . S
H597 C574 0.929 . S
H598 C576 0.930 . S
H599 C577 0.929 . S
Nd600 C602 2.836 1_545 S
Nd600 O620 2.500 1_545 S
Nd600 O621 2.492 . S
Nd600 O622 2.487 . S
Nd600 O623 2.682 . S
Nd600 O624 2.410 . S
Nd600 O629 2.414 1_545 S
Nd600 O631 2.424 . S
Nd601 C611 2.836 . S
Nd601 O623 2.414 . S
Nd601 O625 2.424 . S
Nd601 O626 2.500 . S
Nd601 O627 2.492 . S
Nd601 O628 2.487 1_545 S
Nd601 O629 2.682 1_545 S
Nd601 O630 2.410 . S
C602 Nd600 2.836 1_565 S
C602 C603 1.498 . S
C602 O620 1.258 . S
C602 O621 1.239 1_565 S
C603 C602 1.498 . S
C603 C604 1.366 . S
C603 C608 1.407 1_565 S
C604 C603 1.366 . S
C604 C605 1.392 . S
C604 H632 0.930 . S
C605 C604 1.392 . S
C605 C606 1.398 . S
C605 H633 0.929 . S
C606 C605 1.398 . S
C606 C607 1.352 . S
C607 C606 1.352 . S
C607 C608 1.383 1_565 S
C607 H634 0.930 . S
C608 C603 1.407 1_545 S
C608 C607 1.383 1_545 S
C608 H635 0.930 . S
C609 O622 1.241 . S
C609 O623 1.273 . S
C610 O624 1.251 . S
C610 O625 1.268 . S
C611 Nd601 2.836 . S
C611 C612 1.498 . S
C611 O626 1.258 . S
C611 O627 1.239 . S
C612 C611 1.498 . S
C612 C613 1.366 . S
C612 C617 1.407 . S
C613 C612 1.366 . S
C613 C614 1.392 . S
C613 H636 0.930 . S
C614 C613 1.392 . S
C614 C615 1.398 . S
C614 H637 0.929 . S
C615 C614 1.398 . S
C615 C616 1.352 . S
C616 C615 1.352 . S
C616 C617 1.384 . S
C616 H638 0.930 . S
C617 C612 1.407 . S
C617 C616 1.384 . S
C617 H639 0.929 . S
C618 O628 1.241 . S
C618 O629 1.273 . S
C619 O630 1.251 . S
C619 O631 1.268 . S
O620 Nd600 2.500 1_565 S
O620 C602 1.258 . S
O621 Nd600 2.492 . S
O621 C602 1.239 1_545 S
O622 Nd600 2.487 . S
O622 C609 1.241 . S
O623 Nd600 2.682 . S
O623 Nd601 2.414 . S
O623 C609 1.273 . S
O624 Nd600 2.410 . S
O624 C610 1.251 . S
O625 Nd601 2.424 . S
O625 C610 1.268 . S
O626 Nd601 2.500 . S
O626 C611 1.258 . S
O627 Nd601 2.492 . S
O627 C611 1.239 . S
O628 Nd601 2.487 1_565 S
O628 C618 1.241 . S
O629 Nd600 2.414 1_565 S
O629 Nd601 2.682 1_565 S
O629 C618 1.273 . S
O630 Nd601 2.410 . S
O630 C619 1.251 . S
O631 Nd600 2.424 . S
O631 C619 1.268 . S
H632 C604 0.930 . S
H633 C605 0.929 . S
H634 C607 0.930 . S
H635 C608 0.930 . S
H636 C613 0.930 . S
H637 C614 0.929 . S
H638 C616 0.930 . S
H639 C617 0.929 . S
C640 C641 1.349 . S
C640 C642 1.327 . S
C640 H665 0.950 . S
C641 C640 1.349 . S
C641 C657 1.349 . S
C642 C640 1.327 . S
C642 C661 1.429 . S
C642 H666 0.950 . S
C643 C660 1.574 . S
C643 C662 1.368 . S
C643 H667 0.949 . S
H644 C648 0.949 . S
C645 C646 1.349 . S
C645 C647 1.327 . S
C645 H668 0.950 . S
C646 C645 1.349 . S
C646 C658 1.349 . S
C647 C645 1.327 . S
C647 C663 1.429 . S
C647 H669 0.950 . S
C648 H644 0.949 . S
C648 C656 1.574 . S
C648 C664 1.368 . S
H649 C657 0.950 . S
H650 C655 0.950 . S
H651 C656 0.949 . S
H652 C658 0.950 . S
H653 C659 0.950 . S
H654 C660 0.949 . S
C655 H650 0.950 . S
C655 C657 1.327 . S
C655 C661 1.429 . S
C656 C648 1.574 . S
C656 H651 0.949 . S
C656 C662 1.368 . S
C657 C641 1.349 . S
C657 H649 0.950 . S
C657 C655 1.327 . S
C658 C646 1.349 . S
C658 H652 0.950 . S
C658 C659 1.327 . S
C659 H653 0.950 . S
C659 C658 1.327 . S
C659 C663 1.429 . S
C660 C643 1.574 . S
C660 H654 0.949 . S
C660 C664 1.368 . S
C661 C642 1.429 . S
C661 C655 1.429 . S
C661 C662 1.523 . S
C662 C643 1.368 . S
C662 C656 1.368 . S
C662 C661 1.523 . S
C663 C647 1.429 . S
C663 C659 1.429 . S
C663 C664 1.523 . S
C664 C648 1.368 . S
C664 C660 1.368 . S
C664 C663 1.523 . S
H665 C640 0.950 . S
H666 C642 0.950 . S
H667 C643 0.949 . S
H668 C645 0.950 . S
H669 C647 0.950 . S
C670 C671 1.349 . S
C670 C672 1.327 . S
C670 H695 0.950 . S
C671 C670 1.349 . S
C671 C687 1.349 . S
C672 C670 1.327 . S
C672 C691 1.429 . S
C672 H696 0.950 . S
C673 C690 1.574 . S
C673 C692 1.368 . S
C673 H697 0.949 . S
H674 C678 0.949 . S
C675 C676 1.349 . S
C675 C677 1.327 . S
C675 H698 0.950 . S
C676 C675 1.349 . S
C676 C688 1.349 . S
C677 C675 1.327 . S
C677 C693 1.429 . S
C677 H699 0.950 . S
C678 H674 0.949 . S
C678 C686 1.574 . S
C678 C694 1.368 . S
H679 C687 0.950 . S
H680 C685 0.950 . S
H681 C686 0.949 . S
H682 C688 0.950 . S
H683 C689 0.950 . S
H684 C690 0.949 . S
C685 H680 0.950 . S
C685 C687 1.327 . S
C685 C691 1.429 . S
C686 C678 1.574 . S
C686 H681 0.949 . S
C686 C692 1.368 . S
C687 C671 1.349 . S
C687 H679 0.950 . S
C687 C685 1.327 . S
C688 C676 1.349 . S
C688 H682 0.950 . S
C688 C689 1.327 . S
C689 H683 0.950 . S
C689 C688 1.327 . S
C689 C693 1.429 . S
C690 C673 1.574 . S
C690 H684 0.949 . S
C690 C694 1.368 . S
C691 C672 1.429 . S
C691 C685 1.429 . S
C691 C692 1.523 . S
C692 C673 1.368 . S
C692 C686 1.368 . S
C692 C691 1.523 . S
C693 C677 1.429 . S
C693 C689 1.429 . S
C693 C694 1.523 . S
C694 C678 1.368 . S
C694 C690 1.368 . S
C694 C693 1.523 . S
H695 C670 0.950 . S
H696 C672 0.950 . S
H697 C673 0.949 . S
H698 C675 0.950 . S
H699 C677 0.950 . S
C700 C701 1.349 . S
C700 C702 1.327 . S
C700 H725 0.950 . S
C701 C700 1.349 . S
C701 C717 1.349 . S
C702 C700 1.327 . S
C702 C721 1.429 . S
C702 H726 0.950 . S
C703 C720 1.574 . S
C703 C722 1.368 1_655 S
C703 H727 0.949 . S
H704 C708 0.950 . S
C705 C706 1.349 . S
C705 C707 1.327 . S
C705 H728 0.950 . S
C706 C705 1.349 . S
C706 C718 1.349 . S
C707 C705 1.327 . S
C707 C723 1.429 . S
C707 H729 0.950 . S
C708 H704 0.950 . S
C708 C716 1.567 1_655 S
C708 C724 1.373 . S
H709 C717 0.950 . S
H710 C715 0.950 . S
H711 C716 0.949 . S
H712 C718 0.950 . S
H713 C719 0.950 . S
H714 C720 0.949 . S
C715 H710 0.950 . S
C715 C717 1.327 . S
C715 C721 1.429 . S
C716 C708 1.567 1_455 S
C716 H711 0.949 . S
C716 C722 1.368 . S
C717 C701 1.349 . S
C717 H709 0.950 . S
C717 C715 1.327 . S
C718 C706 1.349 . S
C718 H712 0.950 . S
C718 C719 1.327 . S
C719 H713 0.950 . S
C719 C718 1.327 . S
C719 C723 1.429 . S
C720 C703 1.574 . S
C720 H714 0.949 . S
C720 C724 1.368 . S
C721 C702 1.429 . S
C721 C715 1.429 . S
C721 C722 1.523 . S
C722 C703 1.368 1_455 S
C722 C716 1.368 . S
C722 C721 1.523 . S
C723 C707 1.429 . S
C723 C719 1.429 . S
C723 C724 1.523 . S
C724 C708 1.373 . S
C724 C720 1.368 . S
C724 C723 1.523 . S
H725 C700 0.950 . S
H726 C702 0.950 . S
H727 C703 0.949 . S
H728 C705 0.950 . S
H729 C707 0.950 . S
C730 C731 1.349 . S
C730 C732 1.327 . S
C730 H755 0.950 . S
C731 C730 1.349 . S
C731 C747 1.349 . S
C732 C730 1.327 . S
C732 C751 1.429 . S
C732 H756 0.950 . S
C733 C750 1.574 1_455 S
C733 C752 1.368 . S
C733 H757 0.949 . S
H734 C738 0.949 . S
C735 C736 1.349 . S
C735 C737 1.327 . S
C735 H758 0.950 . S
C736 C735 1.349 . S
C736 C748 1.349 . S
C737 C735 1.327 . S
C737 C753 1.429 . S
C737 H759 0.950 . S
C738 H734 0.949 . S
C738 C746 1.574 . S
C738 C754 1.368 1_455 S
H739 C747 0.950 . S
H740 C745 0.950 . S
H741 C746 0.949 . S
H742 C748 0.950 . S
H743 C749 0.950 . S
H744 C750 0.949 . S
C745 H740 0.950 . S
C745 C747 1.327 . S
C745 C751 1.429 . S
C746 C738 1.574 . S
C746 H741 0.949 . S
C746 C752 1.368 . S
C747 C731 1.349 . S
C747 H739 0.950 . S
C747 C745 1.327 . S
C748 C736 1.349 . S
C748 H742 0.950 . S
C748 C749 1.327 . S
C749 H743 0.950 . S
C749 C748 1.327 . S
C749 C753 1.429 . S
C750 C733 1.574 1_655 S
C750 H744 0.949 . S
C750 C754 1.368 . S
C751 C732 1.429 . S
C751 C745 1.429 . S
C751 C752 1.523 . S
C752 C733 1.368 . S
C752 C746 1.368 . S
C752 C751 1.523 . S
C753 C737 1.429 . S
C753 C749 1.429 . S
C753 C754 1.523 . S
C754 C738 1.368 1_655 S
C754 C750 1.368 . S
C754 C753 1.523 . S
H755 C730 0.950 . S
H756 C732 0.950 . S
H757 C733 0.949 . S
H758 C735 0.950 . S
H759 C737 0.950 . S
C760 C761 1.349 . S
C760 C762 1.327 . S
C760 H785 0.950 . S
C761 C760 1.349 . S
C761 C777 1.349 . S
C762 C760 1.327 . S
C762 C781 1.429 . S
C762 H786 0.950 . S
C763 C780 1.574 . S
C763 C782 1.368 . S
C763 H787 0.949 . S
H764 C768 0.949 . S
C765 C766 1.349 . S
C765 C767 1.327 . S
C765 H788 0.950 . S
C766 C765 1.349 . S
C766 C778 1.349 . S
C767 C765 1.327 . S
C767 C783 1.429 . S
C767 H789 0.950 . S
C768 H764 0.949 . S
C768 C776 1.574 . S
C768 C784 1.368 . S
H769 C777 0.950 . S
H770 C775 0.950 . S
H771 C776 0.949 . S
H772 C778 0.950 . S
H773 C779 0.950 . S
H774 C780 0.949 . S
C775 H770 0.950 . S
C775 C777 1.327 . S
C775 C781 1.429 . S
C776 C768 1.574 . S
C776 H771 0.949 . S
C776 C782 1.368 . S
C777 C761 1.349 . S
C777 H769 0.950 . S
C777 C775 1.327 . S
C778 C766 1.349 . S
C778 H772 0.950 . S
C778 C779 1.327 . S
C779 H773 0.950 . S
C779 C778 1.327 . S
C779 C783 1.429 . S
C780 C763 1.574 . S
C780 H774 0.949 . S
C780 C784 1.368 . S
C781 C762 1.429 . S
C781 C775 1.429 . S
C781 C782 1.523 . S
C782 C763 1.368 . S
C782 C776 1.368 . S
C782 C781 1.523 . S
C783 C767 1.429 . S
C783 C779 1.429 . S
C783 C784 1.523 . S
C784 C768 1.368 . S
C784 C780 1.368 . S
C784 C783 1.523 . S
H785 C760 0.950 . S
H786 C762 0.950 . S
H787 C763 0.949 . S
H788 C765 0.950 . S
H789 C767 0.950 . S
C790 C791 1.349 . S
C790 C792 1.327 . S
C790 H815 0.950 . S
C791 C790 1.349 . S
C791 C807 1.349 . S
C792 C790 1.327 . S
C792 C811 1.429 . S
C792 H816 0.950 . S
C793 C810 1.574 . S
C793 C812 1.368 . S
C793 H817 0.949 . S
H794 C798 0.949 . S
C795 C796 1.349 . S
C795 C797 1.327 . S
C795 H818 0.950 . S
C796 C795 1.349 . S
C796 C808 1.349 . S
C797 C795 1.327 . S
C797 C813 1.429 . S
C797 H819 0.950 . S
C798 H794 0.949 . S
C798 C806 1.574 . S
C798 C814 1.368 . S
H799 C807 0.950 . S
H800 C805 0.950 . S
H801 C806 0.949 . S
H802 C808 0.950 . S
H803 C809 0.950 . S
H804 C810 0.949 . S
C805 H800 0.950 . S
C805 C807 1.327 . S
C805 C811 1.429 . S
C806 C798 1.574 . S
C806 H801 0.949 . S
C806 C812 1.368 . S
C807 C791 1.349 . S
C807 H799 0.950 . S
C807 C805 1.327 . S
C808 C796 1.349 . S
C808 H802 0.950 . S
C808 C809 1.327 . S
C809 H803 0.950 . S
C809 C808 1.327 . S
C809 C813 1.429 . S
C810 C793 1.574 . S
C810 H804 0.949 . S
C810 C814 1.368 . S
C811 C792 1.429 . S
C811 C805 1.429 . S
C811 C812 1.523 . S
C812 C793 1.368 . S
C812 C806 1.368 . S
C812 C811 1.523 . S
C813 C797 1.429 . S
C813 C809 1.429 . S
C813 C814 1.523 . S
C814 C798 1.368 . S
C814 C810 1.368 . S
C814 C813 1.523 . S
H815 C790 0.950 . S
H816 C792 0.950 . S
H817 C793 0.949 . S
H818 C795 0.950 . S
H819 C797 0.950 . S
C820 C821 1.349 . S
C820 C822 1.327 . S
C820 H845 0.950 . S
C821 C820 1.349 . S
C821 C837 1.349 . S
C822 C820 1.327 . S
C822 C841 1.429 . S
C822 H846 0.950 . S
C823 C840 1.549 1_455 S
C823 C842 1.368 . S
C823 H847 0.949 . S
H824 C828 0.949 . S
C825 C826 1.349 . S
C825 C827 1.327 . S
C825 H848 0.950 . S
C826 C825 1.349 . S
C826 C838 1.349 . S
C827 C825 1.327 . S
C827 C843 1.429 . S
C827 H849 0.950 . S
C828 H824 0.949 . S
C828 C836 1.574 1_655 S
C828 C844 1.368 . S
H829 C837 0.950 . S
H830 C835 0.950 . S
H831 C836 0.949 . S
H832 C838 0.950 . S
H833 C839 0.950 . S
H834 C840 0.958 . S
C835 H830 0.950 . S
C835 C837 1.327 . S
C835 C841 1.429 . S
C836 C828 1.574 1_455 S
C836 H831 0.949 . S
C836 C842 1.368 . S
C837 C821 1.349 . S
C837 H829 0.950 . S
C837 C835 1.327 . S
C838 C826 1.349 . S
C838 H832 0.950 . S
C838 C839 1.327 . S
C839 H833 0.950 . S
C839 C838 1.327 . S
C839 C843 1.429 . S
C840 C823 1.549 1_655 S
C840 H834 0.958 . S
C840 C844 1.384 . S
C841 C822 1.429 . S
C841 C835 1.429 . S
C841 C842 1.523 . S
C842 C823 1.368 . S
C842 C836 1.368 . S
C842 C841 1.523 . S
C843 C827 1.429 . S
C843 C839 1.429 . S
C843 C844 1.523 . S
C844 C828 1.368 . S
C844 C840 1.384 . S
C844 C843 1.523 . S
H845 C820 0.950 . S
H846 C822 0.950 . S
H847 C823 0.949 . S
H848 C825 0.950 . S
H849 C827 0.950 . S
C850 C851 1.349 . S
C850 C852 1.327 . S
C850 H875 0.950 . S
C851 C850 1.349 . S
C851 C867 1.349 . S
C852 C850 1.327 . S
C852 C871 1.429 . S
C852 H876 0.950 . S
C853 C870 1.574 . S
C853 C872 1.368 1_655 S
C853 H877 0.949 . S
H854 C858 0.947 1_455 S
C855 C856 1.349 . S
C855 C857 1.327 . S
C855 H878 0.950 . S
C856 C855 1.349 . S
C856 C868 1.349 . S
C857 C855 1.327 . S
C857 C873 1.429 . S
C857 H879 0.950 . S
C858 H854 0.947 1_655 S
C858 C866 1.574 1_655 S
C858 C874 1.368 . S
H859 C867 0.950 . S
H860 C865 0.950 . S
H861 C866 0.949 . S
H862 C868 0.950 . S
H863 C869 0.950 . S
H864 C870 0.949 . S
C865 H860 0.950 . S
C865 C867 1.327 . S
C865 C871 1.429 . S
C866 C858 1.574 1_455 S
C866 H861 0.949 . S
C866 C872 1.368 . S
C867 C851 1.349 . S
C867 H859 0.950 . S
C867 C865 1.327 . S
C868 C856 1.349 . S
C868 H862 0.950 . S
C868 C869 1.327 . S
C869 H863 0.950 . S
C869 C868 1.327 . S
C869 C873 1.429 . S
C870 C853 1.574 . S
C870 H864 0.949 . S
C870 C874 1.368 . S
C871 C852 1.429 . S
C871 C865 1.429 . S
C871 C872 1.523 . S
C872 C853 1.368 1_455 S
C872 C866 1.368 . S
C872 C871 1.523 . S
C873 C857 1.429 . S
C873 C869 1.429 . S
C873 C874 1.523 . S
C874 C858 1.368 . S
C874 C870 1.368 . S
C874 C873 1.523 . S
H875 C850 0.950 . S
H876 C852 0.950 . S
H877 C853 0.949 . S
H878 C855 0.950 . S
H879 C857 0.950 . S
C880 C881 1.349 . S
C880 C882 1.327 . S
C880 H905 0.950 . S
C881 C880 1.349 . S
C881 C897 1.349 1_545 S
C882 C880 1.327 . S
C882 C901 1.429 . S
C882 H906 0.950 . S
C883 C900 1.574 1_554 S
C883 C902 1.368 1_565 S
C883 H907 0.949 . S
H884 C888 0.949 . S
C885 C886 1.349 . S
C885 C887 1.327 . S
C885 H908 0.950 . S
C886 C885 1.349 . S
C886 C898 1.349 1_565 S
C887 C885 1.327 . S
C887 C903 1.429 . S
C887 H909 0.950 . S
C888 H884 0.949 . S
C888 C896 1.574 1_556 S
C888 C904 1.368 1_545 S
H889 C897 0.950 . S
H890 C895 0.950 . S
H891 C896 0.949 . S
H892 C898 0.950 . S
H893 C899 0.950 . S
H894 C900 0.949 . S
C895 H890 0.950 . S
C895 C897 1.327 . S
C895 C901 1.429 1_565 S
C896 C888 1.574 1_554 S
C896 H891 0.949 . S
C896 C902 1.368 . S
C897 C881 1.349 1_565 S
C897 H889 0.950 . S
C897 C895 1.327 . S
C898 C886 1.349 1_545 S
C898 H892 0.950 . S
C898 C899 1.327 . S
C899 H893 0.950 . S
C899 C898 1.327 . S
C899 C903 1.429 1_545 S
C900 C883 1.574 1_556 S
C900 H894 0.949 . S
C900 C904 1.368 . S
C901 C882 1.429 . S
C901 C895 1.429 1_545 S
C901 C902 1.523 . S
C902 C883 1.368 1_545 S
C902 C896 1.368 . S
C902 C901 1.523 . S
C903 C887 1.429 . S
C903 C899 1.429 1_565 S
C903 C904 1.523 . S
C904 C888 1.368 1_565 S
C904 C900 1.368 . S
C904 C903 1.523 . S
H905 C880 0.950 . S
H906 C882 0.950 . S
H907 C883 0.949 . S
H908 C885 0.950 . S
H909 C887 0.950 . S
C910 C911 1.349 . S
C910 C912 1.327 . S
C910 H935 0.950 . S
C911 C910 1.349 . S
C911 C927 1.349 . S
C912 C910 1.327 . S
C912 C931 1.429 . S
C912 H936 0.950 . S
C913 C930 1.574 . S
C913 C932 1.368 . S
C913 H937 0.949 . S
H914 C918 0.949 . S
C915 C916 1.349 . S
C915 C917 1.327 . S
C915 H938 0.950 . S
C916 C915 1.349 . S
C916 C928 1.349 . S
C917 C915 1.327 . S
C917 C933 1.429 . S
C917 H939 0.950 . S
C918 H914 0.949 . S
C918 C926 1.574 . S
C918 C934 1.368 . S
H919 C927 0.950 . S
H920 C925 0.950 . S
H921 C926 0.949 . S
H922 C928 0.950 . S
H923 C929 0.950 . S
H924 C930 0.949 . S
C925 H920 0.950 . S
C925 C927 1.327 . S
C925 C931 1.429 . S
C926 C918 1.574 . S
C926 H921 0.949 . S
C926 C932 1.368 . S
C927 C911 1.349 . S
C927 H919 0.950 . S
C927 C925 1.327 . S
C928 C916 1.349 . S
C928 H922 0.950 . S
C928 C929 1.327 . S
C929 H923 0.950 . S
C929 C928 1.327 . S
C929 C933 1.429 . S
C930 C913 1.574 . S
C930 H924 0.949 . S
C930 C934 1.368 . S
C931 C912 1.429 . S
C931 C925 1.429 . S
C931 C932 1.523 . S
C932 C913 1.368 . S
C932 C926 1.368 . S
C932 C931 1.523 . S
C933 C917 1.429 . S
C933 C929 1.429 . S
C933 C934 1.523 . S
C934 C918 1.368 . S
C934 C930 1.368 . S
C934 C933 1.523 . S
H935 C910 0.950 . S
H936 C912 0.950 . S
H937 C913 0.949 . S
H938 C915 0.950 . S
H939 C917 0.950 . S
C940 C941 1.349 . S
C940 C942 1.327 . S
C940 H965 0.950 1_565 S
C941 C940 1.349 . S
C941 C957 1.349 . S
C942 C940 1.327 . S
C942 C961 1.429 . S
C942 H966 0.950 1_565 S
C943 C960 1.574 1_455 S
C943 C962 1.368 . S
C943 H967 0.949 . S
H944 C948 0.949 . S
C945 C946 1.349 . S
C945 C947 1.327 . S
C945 H968 0.950 1_545 S
C946 C945 1.349 . S
C946 C958 1.349 . S
C947 C945 1.327 . S
C947 C963 1.429 . S
C947 H969 0.950 1_545 S
C948 H944 0.949 . S
C948 C956 1.574 1_655 S
C948 C964 1.368 . S
H949 C957 0.950 . S
H950 C955 0.950 . S
H951 C956 0.949 . S
H952 C958 0.950 . S
H953 C959 0.950 . S
H954 C960 0.949 . S
C955 H950 0.950 . S
C955 C957 1.327 . S
C955 C961 1.429 . S
C956 C948 1.574 1_455 S
C956 H951 0.949 . S
C956 C962 1.368 1_545 S
C957 C941 1.349 . S
C957 H949 0.950 . S
C957 C955 1.327 . S
C958 C946 1.349 . S
C958 H952 0.950 . S
C958 C959 1.327 . S
C959 H953 0.950 . S
C959 C958 1.327 . S
C959 C963 1.429 . S
C960 C943 1.574 1_655 S
C960 H954 0.949 . S
C960 C964 1.368 1_565 S
C961 C942 1.429 . S
C961 C955 1.429 . S
C961 C962 1.523 . S
C962 C943 1.368 . S
C962 C956 1.368 1_565 S
C962 C961 1.523 . S
C963 C947 1.429 . S
C963 C959 1.429 . S
C963 C964 1.523 . S
C964 C948 1.368 . S
C964 C960 1.368 1_545 S
C964 C963 1.523 . S
H965 C940 0.950 1_545 S
H966 C942 0.950 1_545 S
H967 C943 0.949 . S
H968 C945 0.950 1_565 S
H969 C947 0.950 1_565 S
C970 C971 1.349 . S
C970 C972 1.327 . S
C970 H995 0.950 . S
C971 C970 1.349 . S
C971 C987 1.349 . S
C972 C970 1.327 . S
C972 C991 1.429 . S
C972 H996 0.950 . S
C973 C990 1.574 . S
C973 C992 1.368 . S
C973 H997 0.949 . S
H974 C978 0.949 . S
C975 C976 1.349 . S
C975 C977 1.327 . S
C975 H998 0.950 . S
C976 C975 1.349 . S
C976 C988 1.349 . S
C977 C975 1.327 . S
C977 C993 1.429 . S
C977 H999 0.950 . S
C978 H974 0.949 . S
C978 C986 1.574 . S
C978 C994 1.368 . S
H979 C987 0.950 . S
H980 C985 0.950 . S
H981 C986 0.949 . S
H982 C988 0.950 . S
H983 C989 0.950 . S
H984 C990 0.949 . S
C985 H980 0.950 . S
C985 C987 1.327 . S
C985 C991 1.429 . S
C986 C978 1.574 . S
C986 H981 0.949 . S
C986 C992 1.368 . S
C987 C971 1.349 . S
C987 H979 0.950 . S
C987 C985 1.327 . S
C988 C976 1.349 . S
C988 H982 0.950 . S
C988 C989 1.327 . S
C989 H983 0.950 . S
C989 C988 1.327 . S
C989 C993 1.429 . S
C990 C973 1.574 . S
C990 H984 0.949 . S
C990 C994 1.368 . S
C991 C972 1.429 . S
C991 C985 1.429 . S
C991 C992 1.523 . S
C992 C973 1.368 . S
C992 C986 1.368 . S
C992 C991 1.523 . S
C993 C977 1.429 . S
C993 C989 1.429 . S
C993 C994 1.523 . S
C994 C978 1.368 . S
C994 C990 1.368 . S
C994 C993 1.523 . S
H995 C970 0.950 . S
H996 C972 0.950 . S
H997 C973 0.949 . S
H998 C975 0.950 . S
H999 C977 0.950 . S
C1000 C1001 1.349 . S
C1000 C1002 1.327 . S
C1000 H1025 0.950 . S
C1001 C1000 1.349 . S
C1001 C1017 1.349 . S
C1002 C1000 1.327 . S
C1002 C1021 1.429 . S
C1002 H1026 0.950 . S
C1003 C1020 1.574 . S
C1003 C1022 1.368 . S
C1003 H1027 0.949 . S
H1004 C1008 0.949 . S
C1005 C1006 1.349 . S
C1005 C1007 1.327 . S
C1005 H1028 0.950 . S
C1006 C1005 1.349 . S
C1006 C1018 1.349 . S
C1007 C1005 1.327 . S
C1007 C1023 1.429 . S
C1007 H1029 0.950 . S
C1008 H1004 0.949 . S
C1008 C1016 1.574 . S
C1008 C1024 1.368 . S
H1009 C1017 0.950 . S
H1010 C1015 0.950 . S
H1011 C1016 0.949 . S
H1012 C1018 0.950 . S
H1013 C1019 0.950 . S
H1014 C1020 0.949 . S
C1015 H1010 0.950 . S
C1015 C1017 1.327 . S
C1015 C1021 1.429 . S
C1016 C1008 1.574 . S
C1016 H1011 0.949 . S
C1016 C1022 1.368 . S
C1017 C1001 1.349 . S
C1017 H1009 0.950 . S
C1017 C1015 1.327 . S
C1018 C1006 1.349 . S
C1018 H1012 0.950 . S
C1018 C1019 1.327 . S
C1019 H1013 0.950 . S
C1019 C1018 1.327 . S
C1019 C1023 1.429 . S
C1020 C1003 1.574 . S
C1020 H1014 0.949 . S
C1020 C1024 1.368 . S
C1021 C1002 1.429 . S
C1021 C1015 1.429 . S
C1021 C1022 1.523 . S
C1022 C1003 1.368 . S
C1022 C1016 1.368 . S
C1022 C1021 1.523 . S
C1023 C1007 1.429 . S
C1023 C1019 1.429 . S
C1023 C1024 1.523 . S
C1024 C1008 1.368 . S
C1024 C1020 1.368 . S
C1024 C1023 1.523 . S
H1025 C1000 0.950 . S
H1026 C1002 0.950 . S
H1027 C1003 0.949 . S
H1028 C1005 0.950 . S
H1029 C1007 0.950 . S
C1030 C1031 1.349 . S
C1030 C1032 1.327 . S
C1030 H1055 0.950 . S
C1031 C1030 1.349 . S
C1031 C1047 1.349 . S
C1032 C1030 1.327 . S
C1032 C1051 1.429 . S
C1032 H1056 0.950 . S
C1033 C1050 1.574 . S
C1033 C1052 1.368 . S
C1033 H1057 0.949 . S
H1034 C1038 0.949 . S
C1035 C1036 1.349 . S
C1035 C1037 1.327 . S
C1035 H1058 0.950 . S
C1036 C1035 1.349 . S
C1036 C1048 1.349 . S
C1037 C1035 1.327 . S
C1037 C1053 1.429 . S
C1037 H1059 0.950 . S
C1038 H1034 0.949 . S
C1038 C1046 1.574 . S
C1038 C1054 1.368 . S
H1039 C1047 0.950 . S
H1040 C1045 0.950 . S
H1041 C1046 0.949 . S
H1042 C1048 0.950 . S
H1043 C1049 0.950 . S
H1044 C1050 0.949 . S
C1045 H1040 0.950 . S
C1045 C1047 1.327 . S
C1045 C1051 1.429 . S
C1046 C1038 1.574 . S
C1046 H1041 0.949 . S
C1046 C1052 1.368 . S
C1047 C1031 1.349 . S
C1047 H1039 0.950 . S
C1047 C1045 1.327 . S
C1048 C1036 1.349 . S
C1048 H1042 0.950 . S
C1048 C1049 1.327 . S
C1049 H1043 0.950 . S
C1049 C1048 1.327 . S
C1049 C1053 1.429 . S
C1050 C1033 1.574 . S
C1050 H1044 0.949 . S
C1050 C1054 1.368 . S
C1051 C1032 1.429 . S
C1051 C1045 1.429 . S
C1051 C1052 1.523 . S
C1052 C1033 1.368 . S
C1052 C1046 1.368 . S
C1052 C1051 1.523 . S
C1053 C1037 1.429 . S
C1053 C1049 1.429 . S
C1053 C1054 1.523 . S
C1054 C1038 1.368 . S
C1054 C1050 1.368 . S
C1054 C1053 1.523 . S
H1055 C1030 0.950 . S
H1056 C1032 0.950 . S
H1057 C1033 0.949 . S
H1058 C1035 0.950 . S
H1059 C1037 0.950 . S
C1060 C1061 1.349 . S
C1060 C1062 1.327 . S
C1060 H1085 0.950 . S
C1061 C1060 1.349 . S
C1061 C1077 1.349 . S
C1062 C1060 1.327 . S
C1062 C1081 1.429 . S
C1062 H1086 0.950 . S
C1063 C1080 1.574 . S
C1063 C1082 1.368 1_655 S
C1063 H1087 0.949 . S
H1064 C1068 0.949 . S
C1065 C1066 1.349 . S
C1065 C1067 1.327 . S
C1065 H1088 0.950 . S
C1066 C1065 1.349 . S
C1066 C1078 1.349 . S
C1067 C1065 1.327 . S
C1067 C1083 1.429 . S
C1067 H1089 0.950 . S
C1068 H1064 0.949 . S
C1068 C1076 1.574 . S
C1068 C1084 1.368 1_455 S
H1069 C1077 0.950 . S
H1070 C1075 0.950 . S
H1071 C1076 0.949 . S
H1072 C1078 0.950 . S
H1073 C1079 0.950 . S
H1074 C1080 0.949 . S
C1075 H1070 0.950 . S
C1075 C1077 1.327 . S
C1075 C1081 1.429 . S
C1076 C1068 1.574 . S
C1076 H1071 0.949 . S
C1076 C1082 1.368 . S
C1077 C1061 1.349 . S
C1077 H1069 0.950 . S
C1077 C1075 1.327 . S
C1078 C1066 1.349 . S
C1078 H1072 0.950 . S
C1078 C1079 1.327 . S
C1079 H1073 0.950 . S
C1079 C1078 1.327 . S
C1079 C1083 1.429 . S
C1080 C1063 1.574 . S
C1080 H1074 0.949 . S
C1080 C1084 1.368 . S
C1081 C1062 1.429 . S
C1081 C1075 1.429 . S
C1081 C1082 1.523 . S
C1082 C1063 1.368 1_455 S
C1082 C1076 1.368 . S
C1082 C1081 1.523 . S
C1083 C1067 1.429 . S
C1083 C1079 1.429 . S
C1083 C1084 1.523 . S
C1084 C1068 1.368 1_655 S
C1084 C1080 1.368 . S
C1084 C1083 1.523 . S
H1085 C1060 0.950 . S
H1086 C1062 0.950 . S
H1087 C1063 0.949 . S
H1088 C1065 0.950 . S
H1089 C1067 0.950 . S
C1090 C1091 1.349 . S
C1090 C1092 1.327 . S
C1090 H1115 0.950 . S
C1091 C1090 1.349 . S
C1091 C1107 1.349 . S
C1092 C1090 1.327 . S
C1092 C1111 1.429 . S
C1092 H1116 0.950 . S
C1093 C1110 1.574 1_554 S
C1093 C1112 1.368 . S
C1093 H1117 0.949 . S
H1094 C1098 0.949 . S
C1095 C1096 1.349 . S
C1095 C1097 1.327 . S
C1095 H1118 0.950 . S
C1096 C1095 1.349 . S
C1096 C1108 1.349 . S
C1097 C1095 1.327 . S
C1097 C1113 1.429 . S
C1097 H1119 0.950 . S
C1098 H1094 0.949 . S
C1098 C1106 1.574 1_556 S
C1098 C1114 1.368 . S
H1099 C1107 0.950 . S
H1100 C1105 0.950 . S
H1101 C1106 0.949 . S
H1102 C1108 0.950 . S
H1103 C1109 0.950 . S
H1104 C1110 0.949 . S
C1105 H1100 0.950 . S
C1105 C1107 1.327 . S
C1105 C1111 1.429 . S
C1106 C1098 1.574 1_554 S
C1106 H1101 0.949 . S
C1106 C1112 1.368 . S
C1107 C1091 1.349 . S
C1107 H1099 0.950 . S
C1107 C1105 1.327 . S
C1108 C1096 1.349 . S
C1108 H1102 0.950 . S
C1108 C1109 1.327 . S
C1109 H1103 0.950 . S
C1109 C1108 1.327 . S
C1109 C1113 1.429 . S
C1110 C1093 1.574 1_556 S
C1110 H1104 0.949 . S
C1110 C1114 1.368 . S
C1111 C1092 1.429 . S
C1111 C1105 1.429 . S
C1111 C1112 1.523 . S
C1112 C1093 1.368 . S
C1112 C1106 1.368 . S
C1112 C1111 1.523 . S
C1113 C1097 1.429 . S
C1113 C1109 1.429 . S
C1113 C1114 1.523 . S
C1114 C1098 1.368 . S
C1114 C1110 1.368 . S
C1114 C1113 1.523 . S
H1115 C1090 0.950 . S
H1116 C1092 0.950 . S
H1117 C1093 0.949 . S
H1118 C1095 0.950 . S
H1119 C1097 0.950 . S
C1120 C1121 1.349 . S
C1120 C1122 1.327 . S
C1120 H1145 0.950 . S
C1121 C1120 1.349 . S
C1121 C1137 1.349 . S
C1122 C1120 1.327 . S
C1122 C1141 1.429 . S
C1122 H1146 0.950 . S
C1123 C1140 1.574 . S
C1123 C1142 1.368 . S
C1123 H1147 0.949 . S
H1124 C1128 0.949 . S
C1125 C1126 1.349 . S
C1125 C1127 1.327 . S
C1125 H1148 0.950 . S
C1126 C1125 1.349 . S
C1126 C1138 1.349 . S
C1127 C1125 1.327 . S
C1127 C1143 1.429 . S
C1127 H1149 0.950 . S
C1128 H1124 0.949 . S
C1128 C1136 1.574 . S
C1128 C1144 1.368 . S
H1129 C1137 0.950 . S
H1130 C1135 0.950 . S
H1131 C1136 0.949 . S
H1132 C1138 0.950 . S
H1133 C1139 0.950 . S
H1134 C1140 0.949 . S
C1135 H1130 0.950 . S
C1135 C1137 1.327 . S
C1135 C1141 1.429 . S
C1136 C1128 1.574 . S
C1136 H1131 0.949 . S
C1136 C1142 1.368 . S
C1137 C1121 1.349 . S
C1137 H1129 0.950 . S
C1137 C1135 1.327 . S
C1138 C1126 1.349 . S
C1138 H1132 0.950 . S
C1138 C1139 1.327 . S
C1139 H1133 0.950 . S
C1139 C1138 1.327 . S
C1139 C1143 1.429 . S
C1140 C1123 1.574 . S
C1140 H1134 0.949 . S
C1140 C1144 1.368 . S
C1141 C1122 1.429 . S
C1141 C1135 1.429 . S
C1141 C1142 1.523 . S
C1142 C1123 1.368 . S
C1142 C1136 1.368 . S
C1142 C1141 1.523 . S
C1143 C1127 1.429 . S
C1143 C1139 1.429 . S
C1143 C1144 1.523 . S
C1144 C1128 1.368 . S
C1144 C1140 1.368 . S
C1144 C1143 1.523 . S
H1145 C1120 0.950 . S
H1146 C1122 0.950 . S
H1147 C1123 0.949 . S
H1148 C1125 0.950 . S
H1149 C1127 0.950 . S
C1150 C1151 1.349 . S
C1150 C1152 1.327 . S
C1150 H1175 0.950 . S
C1151 C1150 1.349 . S
C1151 C1167 1.349 . S
C1152 C1150 1.327 . S
C1152 C1171 1.429 . S
C1152 H1176 0.950 . S
C1153 C1170 1.574 . S
C1153 C1172 1.368 . S
C1153 H1177 0.949 . S
H1154 C1158 0.949 . S
C1155 C1156 1.349 . S
C1155 C1157 1.327 . S
C1155 H1178 0.950 . S
C1156 C1155 1.349 . S
C1156 C1168 1.349 . S
C1157 C1155 1.327 . S
C1157 C1173 1.429 . S
C1157 H1179 0.950 . S
C1158 H1154 0.949 . S
C1158 C1166 1.574 . S
C1158 C1174 1.368 . S
H1159 C1167 0.950 . S
H1160 C1165 0.950 . S
H1161 C1166 0.949 . S
H1162 C1168 0.950 . S
H1163 C1169 0.950 . S
H1164 C1170 0.949 . S
C1165 H1160 0.950 . S
C1165 C1167 1.327 . S
C1165 C1171 1.429 . S
C1166 C1158 1.574 . S
C1166 H1161 0.949 . S
C1166 C1172 1.368 . S
C1167 C1151 1.349 . S
C1167 H1159 0.950 . S
C1167 C1165 1.327 . S
C1168 C1156 1.349 . S
C1168 H1162 0.950 . S
C1168 C1169 1.327 . S
C1169 H1163 0.950 . S
C1169 C1168 1.327 . S
C1169 C1173 1.429 . S
C1170 C1153 1.574 . S
C1170 H1164 0.949 . S
C1170 C1174 1.368 . S
C1171 C1152 1.429 . S
C1171 C1165 1.429 . S
C1171 C1172 1.523 . S
C1172 C1153 1.368 . S
C1172 C1166 1.368 . S
C1172 C1171 1.523 . S
C1173 C1157 1.429 . S
C1173 C1169 1.429 . S
C1173 C1174 1.523 . S
C1174 C1158 1.368 . S
C1174 C1170 1.368 . S
C1174 C1173 1.523 . S
H1175 C1150 0.950 . S
H1176 C1152 0.950 . S
H1177 C1153 0.949 . S
H1178 C1155 0.950 . S
H1179 C1157 0.950 . S
C1180 C1181 1.349 . S
C1180 C1182 1.327 . S
C1180 H1205 0.950 . S
C1181 C1180 1.349 . S
C1181 C1197 1.349 . S
C1182 C1180 1.327 . S
C1182 C1201 1.429 . S
C1182 H1206 0.950 . S
C1183 C1200 1.574 . S
C1183 C1202 1.368 . S
C1183 H1207 0.949 . S
H1184 C1188 0.949 . S
C1185 C1186 1.349 . S
C1185 C1187 1.327 . S
C1185 H1208 0.950 . S
C1186 C1185 1.349 . S
C1186 C1198 1.349 . S
C1187 C1185 1.327 . S
C1187 C1203 1.429 . S
C1187 H1209 0.950 . S
C1188 H1184 0.949 . S
C1188 C1196 1.574 . S
C1188 C1204 1.368 . S
H1189 C1197 0.950 . S
H1190 C1195 0.950 . S
H1191 C1196 0.949 . S
H1192 C1198 0.950 . S
H1193 C1199 0.950 . S
H1194 C1200 0.949 . S
C1195 H1190 0.950 . S
C1195 C1197 1.327 . S
C1195 C1201 1.429 . S
C1196 C1188 1.574 . S
C1196 H1191 0.949 . S
C1196 C1202 1.368 . S
C1197 C1181 1.349 . S
C1197 H1189 0.950 . S
C1197 C1195 1.327 . S
C1198 C1186 1.349 . S
C1198 H1192 0.950 . S
C1198 C1199 1.327 . S
C1199 H1193 0.950 . S
C1199 C1198 1.327 . S
C1199 C1203 1.429 . S
C1200 C1183 1.574 . S
C1200 H1194 0.949 . S
C1200 C1204 1.368 . S
C1201 C1182 1.429 . S
C1201 C1195 1.429 . S
C1201 C1202 1.523 . S
C1202 C1183 1.368 . S
C1202 C1196 1.368 . S
C1202 C1201 1.523 . S
C1203 C1187 1.429 . S
C1203 C1199 1.429 . S
C1203 C1204 1.523 . S
C1204 C1188 1.368 . S
C1204 C1200 1.368 . S
C1204 C1203 1.523 . S
H1205 C1180 0.950 . S
H1206 C1182 0.950 . S
H1207 C1183 0.949 . S
H1208 C1185 0.950 . S
H1209 C1187 0.950 . S
C1210 C1211 1.349 . S
C1210 C1212 1.327 . S
C1210 H1235 0.950 . S
C1211 C1210 1.349 . S
C1211 C1227 1.349 . S
C1212 C1210 1.327 . S
C1212 C1231 1.429 . S
C1212 H1236 0.950 . S
C1213 C1230 1.574 . S
C1213 C1232 1.368 . S
C1213 H1237 0.949 . S
H1214 C1218 0.949 . S
C1215 C1216 1.349 . S
C1215 C1217 1.327 . S
C1215 H1238 0.950 . S
C1216 C1215 1.349 . S
C1216 C1228 1.349 . S
C1217 C1215 1.327 . S
C1217 C1233 1.429 . S
C1217 H1239 0.950 . S
C1218 H1214 0.949 . S
C1218 C1226 1.574 . S
C1218 C1234 1.368 . S
H1219 C1227 0.950 . S
H1220 C1225 0.950 . S
H1221 C1226 0.949 . S
H1222 C1228 0.950 . S
H1223 C1229 0.950 . S
H1224 C1230 0.949 . S
C1225 H1220 0.950 . S
C1225 C1227 1.327 . S
C1225 C1231 1.429 . S
C1226 C1218 1.574 . S
C1226 H1221 0.949 . S
C1226 C1232 1.368 . S
C1227 C1211 1.349 . S
C1227 H1219 0.950 . S
C1227 C1225 1.327 . S
C1228 C1216 1.349 . S
C1228 H1222 0.950 . S
C1228 C1229 1.327 . S
C1229 H1223 0.950 . S
C1229 C1228 1.327 . S
C1229 C1233 1.429 . S
C1230 C1213 1.574 . S
C1230 H1224 0.949 . S
C1230 C1234 1.368 . S
C1231 C1212 1.429 . S
C1231 C1225 1.429 . S
C1231 C1232 1.523 . S
C1232 C1213 1.368 . S
C1232 C1226 1.368 . S
C1232 C1231 1.523 . S
C1233 C1217 1.429 . S
C1233 C1229 1.429 . S
C1233 C1234 1.523 . S
C1234 C1218 1.368 . S
C1234 C1230 1.368 . S
C1234 C1233 1.523 . S
H1235 C1210 0.950 . S
H1236 C1212 0.950 . S
H1237 C1213 0.949 . S
H1238 C1215 0.950 . S
H1239 C1217 0.950 . S
C1240 C1241 1.349 . S
C1240 C1242 1.327 . S
C1240 H1265 0.950 . S
C1241 C1240 1.349 . S
C1241 C1257 1.349 . S
C1242 C1240 1.327 . S
C1242 C1261 1.429 . S
C1242 H1266 0.950 . S
C1243 C1260 1.574 . S
C1243 C1262 1.368 . S
C1243 H1267 0.949 . S
H1244 C1248 0.949 . S
C1245 C1246 1.349 . S
C1245 C1247 1.327 . S
C1245 H1268 0.950 . S
C1246 C1245 1.349 . S
C1246 C1258 1.349 . S
C1247 C1245 1.327 . S
C1247 C1263 1.429 . S
C1247 H1269 0.950 . S
C1248 H1244 0.949 . S
C1248 C1256 1.574 . S
C1248 C1264 1.368 . S
H1249 C1257 0.950 . S
H1250 C1255 0.950 . S
H1251 C1256 0.949 . S
H1252 C1258 0.950 . S
H1253 C1259 0.950 . S
H1254 C1260 0.949 . S
C1255 H1250 0.950 . S
C1255 C1257 1.327 . S
C1255 C1261 1.429 . S
C1256 C1248 1.574 . S
C1256 H1251 0.949 . S
C1256 C1262 1.368 . S
C1257 C1241 1.349 . S
C1257 H1249 0.950 . S
C1257 C1255 1.327 . S
C1258 C1246 1.349 . S
C1258 H1252 0.950 . S
C1258 C1259 1.327 . S
C1259 H1253 0.950 . S
C1259 C1258 1.327 . S
C1259 C1263 1.429 . S
C1260 C1243 1.574 . S
C1260 H1254 0.949 . S
C1260 C1264 1.368 . S
C1261 C1242 1.429 . S
C1261 C1255 1.429 . S
C1261 C1262 1.523 . S
C1262 C1243 1.368 . S
C1262 C1256 1.368 . S
C1262 C1261 1.523 . S
C1263 C1247 1.429 . S
C1263 C1259 1.429 . S
C1263 C1264 1.523 . S
C1264 C1248 1.368 . S
C1264 C1260 1.368 . S
C1264 C1263 1.523 . S
H1265 C1240 0.950 . S
H1266 C1242 0.950 . S
H1267 C1243 0.949 . S
H1268 C1245 0.950 . S
H1269 C1247 0.950 . S
C1270 C1271 1.349 . S
C1270 C1272 1.327 . S
C1270 H1295 0.950 . S
C1271 C1270 1.349 . S
C1271 C1287 1.349 . S
C1272 C1270 1.327 . S
C1272 C1291 1.429 . S
C1272 H1296 0.950 . S
C1273 C1290 1.574 . S
C1273 C1292 1.368 . S
C1273 H1297 0.949 . S
H1274 C1278 0.949 . S
C1275 C1276 1.349 . S
C1275 C1277 1.327 . S
C1275 H1298 0.950 . S
C1276 C1275 1.349 . S
C1276 C1288 1.349 . S
C1277 C1275 1.327 . S
C1277 C1293 1.429 . S
C1277 H1299 0.950 . S
C1278 H1274 0.949 . S
C1278 C1286 1.574 . S
C1278 C1294 1.368 . S
H1279 C1287 0.950 . S
H1280 C1285 0.950 . S
H1281 C1286 0.949 . S
H1282 C1288 0.950 . S
H1283 C1289 0.950 . S
H1284 C1290 0.949 . S
C1285 H1280 0.950 . S
C1285 C1287 1.327 . S
C1285 C1291 1.429 . S
C1286 C1278 1.574 . S
C1286 H1281 0.949 . S
C1286 C1292 1.368 . S
C1287 C1271 1.349 . S
C1287 H1279 0.950 . S
C1287 C1285 1.327 . S
C1288 C1276 1.349 . S
C1288 H1282 0.950 . S
C1288 C1289 1.327 . S
C1289 H1283 0.950 . S
C1289 C1288 1.327 . S
C1289 C1293 1.429 . S
C1290 C1273 1.574 . S
C1290 H1284 0.949 . S
C1290 C1294 1.368 . S
C1291 C1272 1.429 . S
C1291 C1285 1.429 . S
C1291 C1292 1.523 . S
C1292 C1273 1.368 . S
C1292 C1286 1.368 . S
C1292 C1291 1.523 . S
C1293 C1277 1.429 . S
C1293 C1289 1.429 . S
C1293 C1294 1.523 . S
C1294 C1278 1.368 . S
C1294 C1290 1.368 . S
C1294 C1293 1.523 . S
H1295 C1270 0.950 . S
H1296 C1272 0.950 . S
H1297 C1273 0.949 . S
H1298 C1275 0.950 . S
H1299 C1277 0.950 . S
C1300 C1301 1.349 . S
C1300 C1302 1.327 . S
C1300 H1325 0.950 . S
C1301 C1300 1.349 . S
C1301 C1317 1.349 . S
C1302 C1300 1.327 . S
C1302 C1321 1.429 . S
C1302 H1326 0.950 . S
C1303 C1320 1.574 . S
C1303 C1322 1.368 . S
C1303 H1327 0.949 . S
H1304 C1308 0.949 . S
C1305 C1306 1.349 . S
C1305 C1307 1.327 . S
C1305 H1328 0.950 . S
C1306 C1305 1.349 . S
C1306 C1318 1.349 . S
C1307 C1305 1.327 . S
C1307 C1323 1.429 . S
C1307 H1329 0.950 . S
C1308 H1304 0.949 . S
C1308 C1316 1.574 . S
C1308 C1324 1.368 . S
H1309 C1317 0.950 . S
H1310 C1315 0.950 . S
H1311 C1316 0.949 . S
H1312 C1318 0.950 . S
H1313 C1319 0.950 . S
H1314 C1320 0.949 . S
C1315 H1310 0.950 . S
C1315 C1317 1.327 . S
C1315 C1321 1.429 . S
C1316 C1308 1.574 . S
C1316 H1311 0.949 . S
C1316 C1322 1.368 . S
C1317 C1301 1.349 . S
C1317 H1309 0.950 . S
C1317 C1315 1.327 . S
C1318 C1306 1.349 . S
C1318 H1312 0.950 . S
C1318 C1319 1.327 . S
C1319 H1313 0.950 . S
C1319 C1318 1.327 . S
C1319 C1323 1.429 . S
C1320 C1303 1.574 . S
C1320 H1314 0.949 . S
C1320 C1324 1.368 . S
C1321 C1302 1.429 . S
C1321 C1315 1.429 . S
C1321 C1322 1.523 . S
C1322 C1303 1.368 . S
C1322 C1316 1.368 . S
C1322 C1321 1.523 . S
C1323 C1307 1.429 . S
C1323 C1319 1.429 . S
C1323 C1324 1.523 . S
C1324 C1308 1.368 . S
C1324 C1320 1.368 . S
C1324 C1323 1.523 . S
H1325 C1300 0.950 . S
H1326 C1302 0.950 . S
H1327 C1303 0.949 . S
H1328 C1305 0.950 . S
H1329 C1307 0.950 . S
C1330 C1331 1.349 . S
C1330 C1332 1.327 . S
C1330 H1355 0.950 . S
C1331 C1330 1.349 . S
C1331 C1347 1.349 . S
C1332 C1330 1.327 . S
C1332 C1351 1.429 . S
C1332 H1356 0.950 . S
C1333 C1350 1.574 . S
C1333 C1352 1.368 . S
C1333 H1357 0.949 . S
H1334 C1338 0.949 . S
C1335 C1336 1.349 . S
C1335 C1337 1.327 . S
C1335 H1358 0.950 . S
C1336 C1335 1.349 . S
C1336 C1348 1.349 . S
C1337 C1335 1.327 . S
C1337 C1353 1.429 . S
C1337 H1359 0.950 . S
C1338 H1334 0.949 . S
C1338 C1346 1.574 . S
C1338 C1354 1.368 . S
H1339 C1347 0.950 . S
H1340 C1345 0.950 . S
H1341 C1346 0.949 . S
H1342 C1348 0.950 . S
H1343 C1349 0.950 . S
H1344 C1350 0.949 . S
C1345 H1340 0.950 . S
C1345 C1347 1.327 . S
C1345 C1351 1.429 . S
C1346 C1338 1.574 . S
C1346 H1341 0.949 . S
C1346 C1352 1.368 . S
C1347 C1331 1.349 . S
C1347 H1339 0.950 . S
C1347 C1345 1.327 . S
C1348 C1336 1.349 . S
C1348 H1342 0.950 . S
C1348 C1349 1.327 . S
C1349 H1343 0.950 . S
C1349 C1348 1.327 . S
C1349 C1353 1.429 . S
C1350 C1333 1.574 . S
C1350 H1344 0.949 . S
C1350 C1354 1.368 . S
C1351 C1332 1.429 . S
C1351 C1345 1.429 . S
C1351 C1352 1.523 . S
C1352 C1333 1.368 . S
C1352 C1346 1.368 . S
C1352 C1351 1.523 . S
C1353 C1337 1.429 . S
C1353 C1349 1.429 . S
C1353 C1354 1.523 . S
C1354 C1338 1.368 . S
C1354 C1350 1.368 . S
C1354 C1353 1.523 . S
H1355 C1330 0.950 . S
H1356 C1332 0.950 . S
H1357 C1333 0.949 . S
H1358 C1335 0.950 . S
H1359 C1337 0.950 . S
C1360 C1361 1.349 . S
C1360 C1362 1.327 . S
C1360 H1385 0.950 . S
C1361 C1360 1.349 . S
C1361 C1377 1.349 . S
C1362 C1360 1.327 . S
C1362 C1381 1.429 . S
C1362 H1386 0.950 . S
C1363 C1380 1.574 . S
C1363 C1382 1.368 . S
C1363 H1387 0.949 . S
H1364 C1368 0.949 . S
C1365 C1366 1.349 . S
C1365 C1367 1.327 . S
C1365 H1388 0.950 . S
C1366 C1365 1.349 . S
C1366 C1378 1.349 . S
C1367 C1365 1.327 . S
C1367 C1383 1.429 . S
C1367 H1389 0.950 . S
C1368 H1364 0.949 . S
C1368 C1376 1.574 . S
C1368 C1384 1.368 . S
H1369 C1377 0.950 . S
H1370 C1375 0.950 . S
H1371 C1376 0.949 . S
H1372 C1378 0.950 . S
H1373 C1379 0.950 . S
H1374 C1380 0.949 . S
C1375 H1370 0.950 . S
C1375 C1377 1.327 . S
C1375 C1381 1.429 . S
C1376 C1368 1.574 . S
C1376 H1371 0.949 . S
C1376 C1382 1.368 . S
C1377 C1361 1.349 . S
C1377 H1369 0.950 . S
C1377 C1375 1.327 . S
C1378 C1366 1.349 . S
C1378 H1372 0.950 . S
C1378 C1379 1.327 . S
C1379 H1373 0.950 . S
C1379 C1378 1.327 . S
C1379 C1383 1.429 . S
C1380 C1363 1.574 . S
C1380 H1374 0.949 . S
C1380 C1384 1.368 . S
C1381 C1362 1.429 . S
C1381 C1375 1.429 . S
C1381 C1382 1.523 . S
C1382 C1363 1.368 . S
C1382 C1376 1.368 . S
C1382 C1381 1.523 . S
C1383 C1367 1.429 . S
C1383 C1379 1.429 . S
C1383 C1384 1.523 . S
C1384 C1368 1.368 . S
C1384 C1380 1.368 . S
C1384 C1383 1.523 . S
H1385 C1360 0.950 . S
H1386 C1362 0.950 . S
H1387 C1363 0.949 . S
H1388 C1365 0.950 . S
H1389 C1367 0.950 . S
C1390 C1391 1.349 . S
C1390 C1392 1.327 . S
C1390 H1415 0.950 . S
C1391 C1390 1.349 . S
C1391 C1407 1.349 . S
C1392 C1390 1.327 . S
C1392 C1411 1.429 . S
C1392 H1416 0.950 . S
C1393 C1410 1.582 . S
C1393 C1412 1.368 . S
C1393 H1417 0.949 . S
H1394 C1398 0.949 . S
C1395 C1396 1.349 . S
C1395 C1397 1.327 1_455 S
C1395 H1418 0.950 . S
C1396 C1395 1.349 . S
C1396 C1408 1.349 . S
C1397 C1395 1.327 1_655 S
C1397 C1413 1.429 . S
C1397 H1419 0.950 . S
C1398 H1394 0.949 . S
C1398 C1406 1.574 . S
C1398 C1414 1.368 . S
H1399 C1407 0.950 . S
H1400 C1405 0.950 . S
H1401 C1406 0.949 . S
H1402 C1408 0.950 . S
H1403 C1409 0.950 1_665 S
H1404 C1410 0.944 1_545 S
C1405 H1400 0.950 . S
C1405 C1407 1.327 . S
C1405 C1411 1.429 . S
C1406 C1398 1.574 . S
C1406 H1401 0.949 . S
C1406 C1412 1.368 . S
C1407 C1391 1.349 . S
C1407 H1399 0.950 . S
C1407 C1405 1.327 . S
C1408 C1396 1.349 . S
C1408 H1402 0.950 . S
C1408 C1409 1.326 . S
C1409 H1403 0.950 1_445 S
C1409 C1408 1.326 . S
C1409 C1413 1.430 1_455 S
C1410 C1393 1.582 . S
C1410 H1404 0.944 1_565 S
C1410 C1414 1.367 . S
C1411 C1392 1.429 . S
C1411 C1405 1.429 . S
C1411 C1412 1.523 . S
C1412 C1393 1.368 . S
C1412 C1406 1.368 . S
C1412 C1411 1.523 . S
C1413 C1397 1.429 . S
C1413 C1409 1.430 1_655 S
C1413 C1414 1.523 1_545 S
C1414 C1398 1.368 . S
C1414 C1410 1.367 . S
C1414 C1413 1.523 1_565 S
H1415 C1390 0.950 . S
H1416 C1392 0.950 . S
H1417 C1393 0.949 . S
H1418 C1395 0.950 . S
H1419 C1397 0.950 . S
C1420 C1421 1.349 . S
C1420 C1422 1.327 . S
C1420 H1445 0.950 1_545 S
C1421 C1420 1.349 . S
C1421 C1437 1.349 . S
C1422 C1420 1.327 . S
C1422 C1441 1.429 . S
C1422 H1446 0.950 . S
C1423 C1440 1.574 . S
C1423 C1442 1.368 . S
C1423 H1447 0.949 . S
H1424 C1428 0.949 . S
C1425 C1426 1.349 . S
C1425 C1427 1.327 . S
C1425 H1448 0.950 . S
C1426 C1425 1.349 . S
C1426 C1438 1.349 . S
C1427 C1425 1.327 . S
C1427 C1443 1.429 . S
C1427 H1449 0.950 . S
C1428 H1424 0.949 . S
C1428 C1436 1.574 . S
C1428 C1444 1.368 . S
H1429 C1437 0.950 . S
H1430 C1435 0.950 . S
H1431 C1436 0.949 . S
H1432 C1438 0.950 . S
H1433 C1439 0.950 . S
H1434 C1440 0.949 . S
C1435 H1430 0.950 . S
C1435 C1437 1.327 . S
C1435 C1441 1.429 . S
C1436 C1428 1.574 . S
C1436 H1431 0.949 . S
C1436 C1442 1.368 . S
C1437 C1421 1.349 . S
C1437 H1429 0.950 . S
C1437 C1435 1.327 . S
C1438 C1426 1.349 . S
C1438 H1432 0.950 . S
C1438 C1439 1.327 . S
C1439 H1433 0.950 . S
C1439 C1438 1.327 . S
C1439 C1443 1.429 . S
C1440 C1423 1.574 . S
C1440 H1434 0.949 . S
C1440 C1444 1.368 . S
C1441 C1422 1.429 . S
C1441 C1435 1.429 . S
C1441 C1442 1.523 . S
C1442 C1423 1.368 . S
C1442 C1436 1.368 . S
C1442 C1441 1.523 . S
C1443 C1427 1.429 . S
C1443 C1439 1.429 . S
C1443 C1444 1.523 . S
C1444 C1428 1.368 . S
C1444 C1440 1.368 . S
C1444 C1443 1.523 . S
H1445 C1420 0.950 1_565 S
H1446 C1422 0.950 . S
H1447 C1423 0.949 . S
H1448 C1425 0.950 . S
H1449 C1427 0.950 . S
C1450 C1451 1.349 . S
C1450 C1452 1.327 . S
C1450 H1475 0.950 . S
C1451 C1450 1.349 . S
C1451 C1467 1.349 . S
C1452 C1450 1.327 . S
C1452 C1471 1.429 . S
C1452 H1476 0.950 . S
C1453 C1470 1.574 . S
C1453 C1472 1.368 . S
C1453 H1477 0.949 . S
H1454 C1458 0.949 . S
C1455 C1456 1.349 . S
C1455 C1457 1.327 . S
C1455 H1478 0.950 . S
C1456 C1455 1.349 . S
C1456 C1468 1.349 . S
C1457 C1455 1.327 . S
C1457 C1473 1.429 . S
C1457 H1479 0.950 . S
C1458 H1454 0.949 . S
C1458 C1466 1.574 . S
C1458 C1474 1.368 . S
H1459 C1467 0.950 . S
H1460 C1465 0.950 . S
H1461 C1466 0.949 . S
H1462 C1468 0.950 . S
H1463 C1469 0.950 . S
H1464 C1470 0.949 . S
C1465 H1460 0.950 . S
C1465 C1467 1.327 . S
C1465 C1471 1.429 . S
C1466 C1458 1.574 . S
C1466 H1461 0.949 . S
C1466 C1472 1.368 . S
C1467 C1451 1.349 . S
C1467 H1459 0.950 . S
C1467 C1465 1.327 . S
C1468 C1456 1.349 . S
C1468 H1462 0.950 . S
C1468 C1469 1.327 . S
C1469 H1463 0.950 . S
C1469 C1468 1.327 . S
C1469 C1473 1.429 . S
C1470 C1453 1.574 . S
C1470 H1464 0.949 . S
C1470 C1474 1.368 . S
C1471 C1452 1.429 . S
C1471 C1465 1.429 . S
C1471 C1472 1.523 . S
C1472 C1453 1.368 . S
C1472 C1466 1.368 . S
C1472 C1471 1.523 . S
C1473 C1457 1.429 . S
C1473 C1469 1.429 . S
C1473 C1474 1.523 . S
C1474 C1458 1.368 . S
C1474 C1470 1.368 . S
C1474 C1473 1.523 . S
H1475 C1450 0.950 . S
H1476 C1452 0.950 . S
H1477 C1453 0.949 . S
H1478 C1455 0.950 . S
H1479 C1457 0.950 . S
C1480 C1481 1.349 . S
C1480 C1482 1.327 . S
C1480 H1505 0.950 . S
C1481 C1480 1.349 . S
C1481 C1497 1.349 . S
C1482 C1480 1.327 . S
C1482 C1501 1.429 . S
C1482 H1506 0.950 . S
C1483 C1500 1.574 . S
C1483 C1502 1.368 . S
C1483 H1507 0.949 . S
H1484 C1488 0.949 . S
C1485 C1486 1.349 . S
C1485 C1487 1.327 . S
C1485 H1508 0.950 . S
C1486 C1485 1.349 . S
C1486 C1498 1.349 . S
C1487 C1485 1.327 . S
C1487 C1503 1.429 . S
C1487 H1509 0.950 . S
C1488 H1484 0.949 . S
C1488 C1496 1.574 . S
C1488 C1504 1.368 . S
H1489 C1497 0.950 . S
H1490 C1495 0.950 . S
H1491 C1496 0.949 . S
H1492 C1498 0.950 . S
H1493 C1499 0.950 . S
H1494 C1500 0.949 . S
C1495 H1490 0.950 . S
C1495 C1497 1.327 . S
C1495 C1501 1.429 . S
C1496 C1488 1.574 . S
C1496 H1491 0.949 . S
C1496 C1502 1.368 . S
C1497 C1481 1.349 . S
C1497 H1489 0.950 . S
C1497 C1495 1.327 . S
C1498 C1486 1.349 . S
C1498 H1492 0.950 . S
C1498 C1499 1.327 . S
C1499 H1493 0.950 . S
C1499 C1498 1.327 . S
C1499 C1503 1.429 . S
C1500 C1483 1.574 . S
C1500 H1494 0.949 . S
C1500 C1504 1.368 . S
C1501 C1482 1.429 . S
C1501 C1495 1.429 . S
C1501 C1502 1.523 . S
C1502 C1483 1.368 . S
C1502 C1496 1.368 . S
C1502 C1501 1.523 . S
C1503 C1487 1.429 . S
C1503 C1499 1.429 . S
C1503 C1504 1.523 . S
C1504 C1488 1.368 . S
C1504 C1500 1.368 . S
C1504 C1503 1.523 . S
H1505 C1480 0.950 . S
H1506 C1482 0.950 . S
H1507 C1483 0.949 . S
H1508 C1485 0.950 . S
H1509 C1487 0.950 . S
C1510 C1511 1.325 1_545 S
C1510 C1512 1.338 1_655 S
C1510 H1535 0.964 . S
C1511 C1510 1.325 1_565 S
C1511 C1527 1.349 . S
C1512 C1510 1.338 1_455 S
C1512 C1531 1.429 1_545 S
C1512 H1536 0.950 . S
C1513 C1530 1.574 . S
C1513 C1532 1.368 1_565 S
C1513 H1537 0.949 . S
H1514 C1518 0.949 . S
C1515 C1516 1.349 . S
C1515 C1517 1.327 . S
C1515 H1538 0.950 . S
C1516 C1515 1.349 . S
C1516 C1528 1.349 . S
C1517 C1515 1.327 . S
C1517 C1533 1.429 . S
C1517 H1539 0.959 . S
C1518 H1514 0.949 . S
C1518 C1526 1.574 . S
C1518 C1534 1.368 . S
H1519 C1527 0.950 . S
H1520 C1525 0.950 . S
H1521 C1526 0.949 . S
H1522 C1528 0.950 . S
H1523 C1529 0.950 . S
H1524 C1530 0.949 . S
C1525 H1520 0.950 . S
C1525 C1527 1.327 1_455 S
C1525 C1531 1.429 . S
C1526 C1518 1.574 . S
C1526 H1521 0.949 . S
C1526 C1532 1.368 . S
C1527 C1511 1.349 . S
C1527 H1519 0.950 . S
C1527 C1525 1.327 1_655 S
C1528 C1516 1.349 . S
C1528 H1522 0.950 . S
C1528 C1529 1.327 . S
C1529 H1523 0.950 . S
C1529 C1528 1.327 . S
C1529 C1533 1.429 . S
C1530 C1513 1.574 . S
C1530 H1524 0.949 . S
C1530 C1534 1.368 1_565 S
C1531 C1512 1.429 1_565 S
C1531 C1525 1.429 . S
C1531 C1532 1.523 1_565 S
C1532 C1513 1.368 1_545 S
C1532 C1526 1.368 . S
C1532 C1531 1.523 1_545 S
C1533 C1517 1.429 . S
C1533 C1529 1.429 . S
C1533 C1534 1.523 . S
C1534 C1518 1.368 . S
C1534 C1530 1.368 1_545 S
C1534 C1533 1.523 . S
H1535 C1510 0.964 . S
H1536 C1512 0.950 . S
H1537 C1513 0.949 . S
H1538 C1515 0.950 . S
H1539 C1517 0.959 . S
C1540 C1541 1.349 . S
C1540 C1542 1.327 . S
C1540 H1565 0.950 . S
C1541 C1540 1.349 . S
C1541 C1557 1.349 . S
C1542 C1540 1.327 . S
C1542 C1561 1.429 . S
C1542 H1566 0.950 . S
C1543 C1560 1.574 . S
C1543 C1562 1.368 . S
C1543 H1567 0.949 . S
H1544 C1548 0.949 . S
C1545 C1546 1.349 . S
C1545 C1547 1.327 . S
C1545 H1568 0.950 . S
C1546 C1545 1.349 . S
C1546 C1558 1.349 . S
C1547 C1545 1.327 . S
C1547 C1563 1.429 . S
C1547 H1569 0.950 . S
C1548 H1544 0.949 . S
C1548 C1556 1.574 . S
C1548 C1564 1.368 . S
H1549 C1557 0.950 . S
H1550 C1555 0.950 . S
H1551 C1556 0.949 . S
H1552 C1558 0.950 . S
H1553 C1559 0.950 . S
H1554 C1560 0.949 . S
C1555 H1550 0.950 . S
C1555 C1557 1.327 . S
C1555 C1561 1.429 . S
C1556 C1548 1.574 . S
C1556 H1551 0.949 . S
C1556 C1562 1.368 . S
C1557 C1541 1.349 . S
C1557 H1549 0.950 . S
C1557 C1555 1.327 . S
C1558 C1546 1.349 . S
C1558 H1552 0.950 . S
C1558 C1559 1.327 . S
C1559 H1553 0.950 . S
C1559 C1558 1.327 . S
C1559 C1563 1.429 . S
C1560 C1543 1.574 . S
C1560 H1554 0.949 . S
C1560 C1564 1.368 . S
C1561 C1542 1.429 . S
C1561 C1555 1.429 . S
C1561 C1562 1.523 . S
C1562 C1543 1.368 . S
C1562 C1556 1.368 . S
C1562 C1561 1.523 . S
C1563 C1547 1.429 . S
C1563 C1559 1.429 . S
C1563 C1564 1.523 . S
C1564 C1548 1.368 . S
C1564 C1560 1.368 . S
C1564 C1563 1.523 . S
H1565 C1540 0.950 . S
H1566 C1542 0.950 . S
H1567 C1543 0.949 . S
H1568 C1545 0.950 . S
H1569 C1547 0.950 . S
C1570 C1571 1.349 . S
C1570 C1572 1.327 . S
C1570 H1595 0.950 1_565 S
C1571 C1570 1.349 . S
C1571 C1587 1.349 . S
C1572 C1570 1.327 . S
C1572 C1591 1.429 . S
C1572 H1596 0.950 . S
C1573 C1590 1.574 . S
C1573 C1592 1.368 . S
C1573 H1597 0.949 . S
H1574 C1578 0.949 . S
C1575 C1576 1.349 . S
C1575 C1577 1.327 . S
C1575 H1598 0.950 . S
C1576 C1575 1.349 . S
C1576 C1588 1.349 . S
C1577 C1575 1.327 . S
C1577 C1593 1.429 . S
C1577 H1599 0.950 . S
C1578 H1574 0.949 . S
C1578 C1586 1.574 . S
C1578 C1594 1.368 . S
H1579 C1587 0.950 . S
H1580 C1585 0.950 . S
H1581 C1586 0.949 . S
H1582 C1588 0.950 . S
H1583 C1589 0.950 . S
H1584 C1590 0.949 . S
C1585 H1580 0.950 . S
C1585 C1587 1.327 . S
C1585 C1591 1.429 . S
C1586 C1578 1.574 . S
C1586 H1581 0.949 . S
C1586 C1592 1.368 . S
C1587 C1571 1.349 . S
C1587 H1579 0.950 . S
C1587 C1585 1.327 . S
C1588 C1576 1.349 . S
C1588 H1582 0.950 . S
C1588 C1589 1.327 . S
C1589 H1583 0.950 . S
C1589 C1588 1.327 . S
C1589 C1593 1.429 . S
C1590 C1573 1.574 . S
C1590 H1584 0.949 . S
C1590 C1594 1.368 . S
C1591 C1572 1.429 . S
C1591 C1585 1.429 . S
C1591 C1592 1.523 . S
C1592 C1573 1.368 . S
C1592 C1586 1.368 . S
C1592 C1591 1.523 . S
C1593 C1577 1.429 . S
C1593 C1589 1.429 . S
C1593 C1594 1.523 . S
C1594 C1578 1.368 . S
C1594 C1590 1.368 . S
C1594 C1593 1.523 . S
H1595 C1570 0.950 1_545 S
H1596 C1572 0.950 . S
H1597 C1573 0.949 . S
H1598 C1575 0.950 . S
H1599 C1577 0.950 . S
C1600 C1601 1.349 . S
C1600 C1602 1.327 . S
C1600 H1625 0.950 . S
C1601 C1600 1.349 . S
C1601 C1617 1.349 . S
C1602 C1600 1.327 . S
C1602 C1621 1.429 . S
C1602 H1626 0.950 . S
C1603 C1620 1.574 . S
C1603 C1622 1.368 . S
C1603 H1627 0.949 . S
H1604 C1608 0.949 . S
C1605 C1606 1.349 . S
C1605 C1607 1.327 . S
C1605 H1628 0.950 . S
C1606 C1605 1.349 . S
C1606 C1618 1.349 . S
C1607 C1605 1.327 . S
C1607 C1623 1.429 . S
C1607 H1629 0.950 . S
C1608 H1604 0.949 . S
C1608 C1616 1.574 . S
C1608 C1624 1.368 . S
H1609 C1617 0.950 1_554 S
H1610 C1615 0.950 . S
H1611 C1616 0.949 . S
H1612 C1618 0.950 . S
H1613 C1619 0.950 . S
H1614 C1620 0.949 . S
C1615 H1610 0.950 . S
C1615 C1617 1.327 . S
C1615 C1621 1.429 . S
C1616 C1608 1.574 . S
C1616 H1611 0.949 . S
C1616 C1622 1.368 . S
C1617 C1601 1.349 . S
C1617 H1609 0.950 1_556 S
C1617 C1615 1.327 . S
C1618 C1606 1.349 . S
C1618 H1612 0.950 . S
C1618 C1619 1.327 . S
C1619 H1613 0.950 . S
C1619 C1618 1.327 . S
C1619 C1623 1.429 . S
C1620 C1603 1.574 . S
C1620 H1614 0.949 . S
C1620 C1624 1.368 . S
C1621 C1602 1.429 . S
C1621 C1615 1.429 . S
C1621 C1622 1.523 . S
C1622 C1603 1.368 . S
C1622 C1616 1.368 . S
C1622 C1621 1.523 . S
C1623 C1607 1.429 . S
C1623 C1619 1.429 . S
C1623 C1624 1.523 . S
C1624 C1608 1.368 . S
C1624 C1620 1.368 . S
C1624 C1623 1.523 . S
H1625 C1600 0.950 . S
H1626 C1602 0.950 . S
H1627 C1603 0.949 . S
H1628 C1605 0.950 . S
H1629 C1607 0.950 . S
C1630 C1631 1.349 . S
C1630 C1632 1.327 . S
C1630 H1655 0.950 . S
C1631 C1630 1.349 . S
C1631 C1647 1.349 . S
C1632 C1630 1.327 . S
C1632 C1651 1.429 . S
C1632 H1656 0.950 . S
C1633 C1650 1.574 . S
C1633 C1652 1.368 . S
C1633 H1657 0.949 . S
H1634 C1638 0.949 . S
C1635 C1636 1.349 . S
C1635 C1637 1.327 . S
C1635 H1658 0.950 . S
C1636 C1635 1.349 . S
C1636 C1648 1.349 . S
C1637 C1635 1.327 . S
C1637 C1653 1.429 . S
C1637 H1659 0.950 . S
C1638 H1634 0.949 . S
C1638 C1646 1.574 . S
C1638 C1654 1.368 . S
H1639 C1647 0.950 . S
H1640 C1645 0.950 . S
H1641 C1646 0.949 . S
H1642 C1648 0.950 . S
H1643 C1649 0.950 . S
H1644 C1650 0.949 . S
C1645 H1640 0.950 . S
C1645 C1647 1.327 . S
C1645 C1651 1.429 . S
C1646 C1638 1.574 . S
C1646 H1641 0.949 . S
C1646 C1652 1.368 . S
C1647 C1631 1.349 . S
C1647 H1639 0.950 . S
C1647 C1645 1.327 . S
C1648 C1636 1.349 . S
C1648 H1642 0.950 . S
C1648 C1649 1.327 . S
C1649 H1643 0.950 . S
C1649 C1648 1.327 . S
C1649 C1653 1.429 . S
C1650 C1633 1.574 . S
C1650 H1644 0.949 . S
C1650 C1654 1.368 . S
C1651 C1632 1.429 . S
C1651 C1645 1.429 . S
C1651 C1652 1.523 . S
C1652 C1633 1.368 . S
C1652 C1646 1.368 . S
C1652 C1651 1.523 . S
C1653 C1637 1.429 . S
C1653 C1649 1.429 . S
C1653 C1654 1.523 . S
C1654 C1638 1.368 . S
C1654 C1650 1.368 . S
C1654 C1653 1.523 . S
H1655 C1630 0.950 . S
H1656 C1632 0.950 . S
H1657 C1633 0.949 . S
H1658 C1635 0.950 . S
H1659 C1637 0.950 . S
C1660 C1661 1.349 . S
C1660 C1662 1.327 . S
C1660 H1685 0.950 . S
C1661 C1660 1.349 . S
C1661 C1677 1.349 . S
C1662 C1660 1.327 . S
C1662 C1681 1.429 . S
C1662 H1686 0.950 . S
C1663 C1680 1.574 . S
C1663 C1682 1.368 . S
C1663 H1687 0.949 . S
H1664 C1668 0.949 . S
C1665 C1666 1.349 . S
C1665 C1667 1.327 . S
C1665 H1688 0.950 . S
C1666 C1665 1.349 . S
C1666 C1678 1.349 . S
C1667 C1665 1.327 . S
C1667 C1683 1.429 . S
C1667 H1689 0.950 . S
C1668 H1664 0.949 . S
C1668 C1676 1.574 . S
C1668 C1684 1.368 . S
H1669 C1677 0.950 . S
H1670 C1675 0.950 . S
H1671 C1676 0.949 . S
H1672 C1678 0.950 . S
H1673 C1679 0.950 . S
H1674 C1680 0.949 . S
C1675 H1670 0.950 . S
C1675 C1677 1.327 . S
C1675 C1681 1.429 . S
C1676 C1668 1.574 . S
C1676 H1671 0.949 . S
C1676 C1682 1.368 . S
C1677 C1661 1.349 . S
C1677 H1669 0.950 . S
C1677 C1675 1.327 . S
C1678 C1666 1.349 . S
C1678 H1672 0.950 . S
C1678 C1679 1.327 . S
C1679 H1673 0.950 . S
C1679 C1678 1.327 . S
C1679 C1683 1.429 . S
C1680 C1663 1.574 . S
C1680 H1674 0.949 . S
C1680 C1684 1.368 . S
C1681 C1662 1.429 . S
C1681 C1675 1.429 . S
C1681 C1682 1.523 . S
C1682 C1663 1.368 . S
C1682 C1676 1.368 . S
C1682 C1681 1.523 . S
C1683 C1667 1.429 . S
C1683 C1679 1.429 . S
C1683 C1684 1.523 . S
C1684 C1668 1.368 . S
C1684 C1680 1.368 . S
C1684 C1683 1.523 . S
H1685 C1660 0.950 . S
H1686 C1662 0.950 . S
H1687 C1663 0.949 . S
H1688 C1665 0.950 . S
H1689 C1667 0.950 . S
C1690 C1691 1.349 . S
C1690 C1692 1.327 . S
C1690 H1715 0.950 . S
C1691 C1690 1.349 . S
C1691 C1707 1.349 . S
C1692 C1690 1.327 . S
C1692 C1711 1.429 . S
C1692 H1716 0.950 . S
C1693 C1710 1.574 . S
C1693 C1712 1.368 . S
C1693 H1717 0.949 . S
H1694 C1698 0.949 . S
C1695 C1696 1.349 . S
C1695 C1697 1.327 . S
C1695 H1718 0.950 . S
C1696 C1695 1.349 . S
C1696 C1708 1.349 . S
C1697 C1695 1.327 . S
C1697 C1713 1.429 . S
C1697 H1719 0.950 . S
C1698 H1694 0.949 . S
C1698 C1706 1.574 . S
C1698 C1714 1.368 . S
H1699 C1707 0.950 . S
H1700 C1705 0.950 . S
H1701 C1706 0.949 . S
H1702 C1708 0.950 . S
H1703 C1709 0.950 . S
H1704 C1710 0.949 . S
C1705 H1700 0.950 . S
C1705 C1707 1.327 . S
C1705 C1711 1.429 . S
C1706 C1698 1.574 . S
C1706 H1701 0.949 . S
C1706 C1712 1.368 . S
C1707 C1691 1.349 . S
C1707 H1699 0.950 . S
C1707 C1705 1.327 . S
C1708 C1696 1.349 . S
C1708 H1702 0.950 . S
C1708 C1709 1.327 . S
C1709 H1703 0.950 . S
C1709 C1708 1.327 . S
C1709 C1713 1.429 . S
C1710 C1693 1.574 . S
C1710 H1704 0.949 . S
C1710 C1714 1.368 . S
C1711 C1692 1.429 . S
C1711 C1705 1.429 . S
C1711 C1712 1.523 . S
C1712 C1693 1.368 . S
C1712 C1706 1.368 . S
C1712 C1711 1.523 . S
C1713 C1697 1.429 . S
C1713 C1709 1.429 . S
C1713 C1714 1.523 . S
C1714 C1698 1.368 . S
C1714 C1710 1.368 . S
C1714 C1713 1.523 . S
H1715 C1690 0.950 . S
H1716 C1692 0.950 . S
H1717 C1693 0.949 . S
H1718 C1695 0.950 . S
H1719 C1697 0.950 . S
C1720 C1721 1.349 . S
C1720 C1722 1.327 . S
C1720 H1745 0.950 . S
C1721 C1720 1.349 . S
C1721 C1737 1.349 . S
C1722 C1720 1.327 . S
C1722 C1741 1.429 . S
C1722 H1746 0.950 . S
C1723 C1740 1.574 . S
C1723 C1742 1.368 . S
C1723 H1747 0.949 . S
H1724 C1728 0.949 . S
C1725 C1726 1.349 . S
C1725 C1727 1.327 . S
C1725 H1748 0.950 . S
C1726 C1725 1.349 . S
C1726 C1738 1.349 . S
C1727 C1725 1.327 . S
C1727 C1743 1.429 . S
C1727 H1749 0.950 . S
C1728 H1724 0.949 . S
C1728 C1736 1.574 . S
C1728 C1744 1.368 . S
H1729 C1737 0.950 . S
H1730 C1735 0.950 . S
H1731 C1736 0.949 . S
H1732 C1738 0.950 1_556 S
H1733 C1739 0.950 . S
H1734 C1740 0.949 . S
C1735 H1730 0.950 . S
C1735 C1737 1.327 . S
C1735 C1741 1.429 . S
C1736 C1728 1.574 . S
C1736 H1731 0.949 . S
C1736 C1742 1.368 . S
C1737 C1721 1.349 . S
C1737 H1729 0.950 . S
C1737 C1735 1.327 . S
C1738 C1726 1.349 . S
C1738 H1732 0.950 1_554 S
C1738 C1739 1.327 . S
C1739 H1733 0.950 . S
C1739 C1738 1.327 . S
C1739 C1743 1.429 . S
C1740 C1723 1.574 . S
C1740 H1734 0.949 . S
C1740 C1744 1.368 . S
C1741 C1722 1.429 . S
C1741 C1735 1.429 . S
C1741 C1742 1.523 . S
C1742 C1723 1.368 . S
C1742 C1736 1.368 . S
C1742 C1741 1.523 . S
C1743 C1727 1.429 . S
C1743 C1739 1.429 . S
C1743 C1744 1.523 . S
C1744 C1728 1.368 . S
C1744 C1740 1.368 . S
C1744 C1743 1.523 . S
H1745 C1720 0.950 . S
H1746 C1722 0.950 . S
H1747 C1723 0.949 . S
H1748 C1725 0.950 . S
H1749 C1727 0.950 . S
C1750 C1751 1.349 . S
C1750 C1752 1.327 . S
C1750 H1775 0.950 . S
C1751 C1750 1.349 . S
C1751 C1767 1.349 . S
C1752 C1750 1.327 . S
C1752 C1771 1.429 . S
C1752 H1776 0.950 . S
C1753 C1770 1.574 . S
C1753 C1772 1.368 . S
C1753 H1777 0.949 . S
H1754 C1758 0.949 . S
C1755 C1756 1.349 . S
C1755 C1757 1.327 . S
C1755 H1778 0.950 . S
C1756 C1755 1.349 . S
C1756 C1768 1.349 . S
C1757 C1755 1.327 . S
C1757 C1773 1.429 . S
C1757 H1779 0.950 . S
C1758 H1754 0.949 . S
C1758 C1766 1.574 . S
C1758 C1774 1.368 . S
H1759 C1767 0.950 . S
H1760 C1765 0.950 . S
H1761 C1766 0.949 . S
H1762 C1768 0.950 . S
H1763 C1769 0.950 . S
H1764 C1770 0.949 . S
C1765 H1760 0.950 . S
C1765 C1767 1.327 . S
C1765 C1771 1.429 . S
C1766 C1758 1.574 . S
C1766 H1761 0.949 . S
C1766 C1772 1.368 . S
C1767 C1751 1.349 . S
C1767 H1759 0.950 . S
C1767 C1765 1.327 . S
C1768 C1756 1.349 . S
C1768 H1762 0.950 . S
C1768 C1769 1.327 . S
C1769 H1763 0.950 . S
C1769 C1768 1.327 . S
C1769 C1773 1.429 . S
C1770 C1753 1.574 . S
C1770 H1764 0.949 . S
C1770 C1774 1.368 . S
C1771 C1752 1.429 . S
C1771 C1765 1.429 . S
C1771 C1772 1.523 . S
C1772 C1753 1.368 . S
C1772 C1766 1.368 . S
C1772 C1771 1.523 . S
C1773 C1757 1.429 . S
C1773 C1769 1.429 . S
C1773 C1774 1.523 . S
C1774 C1758 1.368 . S
C1774 C1770 1.368 . S
C1774 C1773 1.523 . S
H1775 C1750 0.950 . S
H1776 C1752 0.950 . S
H1777 C1753 0.949 . S
H1778 C1755 0.950 . S
H1779 C1757 0.950 . S
C1780 C1781 1.349 . S
C1780 C1782 1.327 . S
C1780 H1805 0.950 . S
C1781 C1780 1.349 . S
C1781 C1797 1.349 . S
C1782 C1780 1.327 . S
C1782 C1801 1.429 . S
C1782 H1806 0.950 . S
C1783 C1800 1.574 . S
C1783 C1802 1.368 . S
C1783 H1807 0.949 . S
H1784 C1788 0.949 . S
C1785 C1786 1.349 . S
C1785 C1787 1.327 . S
C1785 H1808 0.950 . S
C1786 C1785 1.349 . S
C1786 C1798 1.349 . S
C1787 C1785 1.327 . S
C1787 C1803 1.429 . S
C1787 H1809 0.950 . S
C1788 H1784 0.949 . S
C1788 C1796 1.574 . S
C1788 C1804 1.368 . S
H1789 C1797 0.950 . S
H1790 C1795 0.950 . S
H1791 C1796 0.949 . S
H1792 C1798 0.950 . S
H1793 C1799 0.950 . S
H1794 C1800 0.949 . S
C1795 H1790 0.950 . S
C1795 C1797 1.327 . S
C1795 C1801 1.429 . S
C1796 C1788 1.574 . S
C1796 H1791 0.949 . S
C1796 C1802 1.368 . S
C1797 C1781 1.349 . S
C1797 H1789 0.950 . S
C1797 C1795 1.327 . S
C1798 C1786 1.349 . S
C1798 H1792 0.950 . S
C1798 C1799 1.327 . S
C1799 H1793 0.950 . S
C1799 C1798 1.327 . S
C1799 C1803 1.429 . S
C1800 C1783 1.574 . S
C1800 H1794 0.949 . S
C1800 C1804 1.368 . S
C1801 C1782 1.429 . S
C1801 C1795 1.429 . S
C1801 C1802 1.523 . S
C1802 C1783 1.368 . S
C1802 C1796 1.368 . S
C1802 C1801 1.523 . S
C1803 C1787 1.429 . S
C1803 C1799 1.429 . S
C1803 C1804 1.523 . S
C1804 C1788 1.368 . S
C1804 C1800 1.368 . S
C1804 C1803 1.523 . S
H1805 C1780 0.950 . S
H1806 C1782 0.950 . S
H1807 C1783 0.949 . S
H1808 C1785 0.950 . S
H1809 C1787 0.950 . S
C1810 C1811 1.349 . S
C1810 C1812 1.327 . S
C1810 H1835 0.950 . S
C1811 C1810 1.349 . S
C1811 C1827 1.349 . S
C1812 C1810 1.327 . S
C1812 C1831 1.429 . S
C1812 H1836 0.950 . S
C1813 C1830 1.574 . S
C1813 C1832 1.368 . S
C1813 H1837 0.949 . S
H1814 C1818 0.949 . S
C1815 C1816 1.349 . S
C1815 C1817 1.327 . S
C1815 H1838 0.950 . S
C1816 C1815 1.349 . S
C1816 C1828 1.349 . S
C1817 C1815 1.327 . S
C1817 C1833 1.429 . S
C1817 H1839 0.950 . S
C1818 H1814 0.949 . S
C1818 C1826 1.574 . S
C1818 C1834 1.368 . S
H1819 C1827 0.950 . S
H1820 C1825 0.950 . S
H1821 C1826 0.949 . S
H1822 C1828 0.950 . S
H1823 C1829 0.950 . S
H1824 C1830 0.949 . S
C1825 H1820 0.950 . S
C1825 C1827 1.327 . S
C1825 C1831 1.429 . S
C1826 C1818 1.574 . S
C1826 H1821 0.949 . S
C1826 C1832 1.368 . S
C1827 C1811 1.349 . S
C1827 H1819 0.950 . S
C1827 C1825 1.327 . S
C1828 C1816 1.349 . S
C1828 H1822 0.950 . S
C1828 C1829 1.327 . S
C1829 H1823 0.950 . S
C1829 C1828 1.327 . S
C1829 C1833 1.429 . S
C1830 C1813 1.574 . S
C1830 H1824 0.949 . S
C1830 C1834 1.368 . S
C1831 C1812 1.429 . S
C1831 C1825 1.429 . S
C1831 C1832 1.523 . S
C1832 C1813 1.368 . S
C1832 C1826 1.368 . S
C1832 C1831 1.523 . S
C1833 C1817 1.429 . S
C1833 C1829 1.429 . S
C1833 C1834 1.523 . S
C1834 C1818 1.368 . S
C1834 C1830 1.368 . S
C1834 C1833 1.523 . S
H1835 C1810 0.950 . S
H1836 C1812 0.950 . S
H1837 C1813 0.949 . S
H1838 C1815 0.950 . S
H1839 C1817 0.950 . S
C1840 C1841 1.349 . S
C1840 C1842 1.327 . S
C1840 H1865 0.950 . S
C1841 C1840 1.349 . S
C1841 C1857 1.349 . S
C1842 C1840 1.327 . S
C1842 C1861 1.429 . S
C1842 H1866 0.950 . S
C1843 C1860 1.574 . S
C1843 C1862 1.368 . S
C1843 H1867 0.949 . S
H1844 C1848 0.949 . S
C1845 C1846 1.349 . S
C1845 C1847 1.327 . S
C1845 H1868 0.950 . S
C1846 C1845 1.349 . S
C1846 C1858 1.349 . S
C1847 C1845 1.327 . S
C1847 C1863 1.429 . S
C1847 H1869 0.950 . S
C1848 H1844 0.949 . S
C1848 C1856 1.574 . S
C1848 C1864 1.368 . S
H1849 C1857 0.950 . S
H1850 C1855 0.950 . S
H1851 C1856 0.949 . S
H1852 C1858 0.950 . S
H1853 C1859 0.950 . S
H1854 C1860 0.949 . S
C1855 H1850 0.950 . S
C1855 C1857 1.327 . S
C1855 C1861 1.429 . S
C1856 C1848 1.574 . S
C1856 H1851 0.949 . S
C1856 C1862 1.368 . S
C1857 C1841 1.349 . S
C1857 H1849 0.950 . S
C1857 C1855 1.327 . S
C1858 C1846 1.349 . S
C1858 H1852 0.950 . S
C1858 C1859 1.327 . S
C1859 H1853 0.950 . S
C1859 C1858 1.327 . S
C1859 C1863 1.429 . S
C1860 C1843 1.574 . S
C1860 H1854 0.949 . S
C1860 C1864 1.368 . S
C1861 C1842 1.429 . S
C1861 C1855 1.429 . S
C1861 C1862 1.523 . S
C1862 C1843 1.368 . S
C1862 C1856 1.368 . S
C1862 C1861 1.523 . S
C1863 C1847 1.429 . S
C1863 C1859 1.429 . S
C1863 C1864 1.523 . S
C1864 C1848 1.368 . S
C1864 C1860 1.368 . S
C1864 C1863 1.523 . S
H1865 C1840 0.950 . S
H1866 C1842 0.950 . S
H1867 C1843 0.949 . S
H1868 C1845 0.950 . S
H1869 C1847 0.950 . S
C1870 C1871 1.349 . S
C1870 C1872 1.327 . S
C1870 H1895 0.950 . S
C1871 C1870 1.349 . S
C1871 C1887 1.349 . S
C1872 C1870 1.327 . S
C1872 C1891 1.429 . S
C1872 H1896 0.950 . S
C1873 C1890 1.574 . S
C1873 C1892 1.368 . S
C1873 H1897 0.949 . S
H1874 C1878 0.949 . S
C1875 C1876 1.349 . S
C1875 C1877 1.327 . S
C1875 H1898 0.950 . S
C1876 C1875 1.349 . S
C1876 C1888 1.335 1_545 S
C1877 C1875 1.327 . S
C1877 C1893 1.429 1_545 S
C1877 H1899 0.950 . S
C1878 H1874 0.949 . S
C1878 C1886 1.574 . S
C1878 C1894 1.368 . S
H1879 C1887 0.950 . S
H1880 C1885 0.950 . S
H1881 C1886 0.949 . S
H1882 C1888 0.953 . S
H1883 C1889 0.950 . S
H1884 C1890 0.949 1_545 S
C1885 H1880 0.950 . S
C1885 C1887 1.327 . S
C1885 C1891 1.429 . S
C1886 C1878 1.574 . S
C1886 H1881 0.949 . S
C1886 C1892 1.368 . S
C1887 C1871 1.349 . S
C1887 H1879 0.950 . S
C1887 C1885 1.327 . S
C1888 C1876 1.335 1_565 S
C1888 H1882 0.953 . S
C1888 C1889 1.339 . S
C1889 H1883 0.950 . S
C1889 C1888 1.339 . S
C1889 C1893 1.429 . S
C1890 C1873 1.574 . S
C1890 H1884 0.949 1_565 S
C1890 C1894 1.368 . S
C1891 C1872 1.429 . S
C1891 C1885 1.429 . S
C1891 C1892 1.523 . S
C1892 C1873 1.368 . S
C1892 C1886 1.368 . S
C1892 C1891 1.523 . S
C1893 C1877 1.429 1_565 S
C1893 C1889 1.429 . S
C1893 C1894 1.523 . S
C1894 C1878 1.368 . S
C1894 C1890 1.368 . S
C1894 C1893 1.523 . S
H1895 C1870 0.950 . S
H1896 C1872 0.950 . S
H1897 C1873 0.949 . S
H1898 C1875 0.950 . S
H1899 C1877 0.950 . S
C1900 C1901 1.349 . S
C1900 C1902 1.327 . S
C1900 H1925 0.950 . S
C1901 C1900 1.349 . S
C1901 C1917 1.349 . S
C1902 C1900 1.327 . S
C1902 C1921 1.429 . S
C1902 H1926 0.950 . S
C1903 C1920 1.574 . S
C1903 C1922 1.368 . S
C1903 H1927 0.949 . S
H1904 C1908 0.949 . S
C1905 C1906 1.349 . S
C1905 C1907 1.327 . S
C1905 H1928 0.950 . S
C1906 C1905 1.349 . S
C1906 C1918 1.349 . S
C1907 C1905 1.327 . S
C1907 C1923 1.429 . S
C1907 H1929 0.950 . S
C1908 H1904 0.949 . S
C1908 C1916 1.574 . S
C1908 C1924 1.368 . S
H1909 C1917 0.950 . S
H1910 C1915 0.950 . S
H1911 C1916 0.949 . S
H1912 C1918 0.950 . S
H1913 C1919 0.950 . S
H1914 C1920 0.949 . S
C1915 H1910 0.950 . S
C1915 C1917 1.327 . S
C1915 C1921 1.429 . S
C1916 C1908 1.574 . S
C1916 H1911 0.949 . S
C1916 C1922 1.368 . S
C1917 C1901 1.349 . S
C1917 H1909 0.950 . S
C1917 C1915 1.327 . S
C1918 C1906 1.349 . S
C1918 H1912 0.950 . S
C1918 C1919 1.327 . S
C1919 H1913 0.950 . S
C1919 C1918 1.327 . S
C1919 C1923 1.429 . S
C1920 C1903 1.574 . S
C1920 H1914 0.949 . S
C1920 C1924 1.368 . S
C1921 C1902 1.429 . S
C1921 C1915 1.429 . S
C1921 C1922 1.523 . S
C1922 C1903 1.368 . S
C1922 C1916 1.368 . S
C1922 C1921 1.523 . S
C1923 C1907 1.429 . S
C1923 C1919 1.429 . S
C1923 C1924 1.523 . S
C1924 C1908 1.368 . S
C1924 C1920 1.368 . S
C1924 C1923 1.523 . S
H1925 C1900 0.950 . S
H1926 C1902 0.950 . S
H1927 C1903 0.949 . S
H1928 C1905 0.950 . S
H1929 C1907 0.950 . S
C1930 C1931 1.349 1_545 S
C1930 C1932 1.327 . S
C1930 H1955 0.950 . S
C1931 C1930 1.349 1_565 S
C1931 C1947 1.349 . S
C1932 C1930 1.327 . S
C1932 C1951 1.429 . S
C1932 H1956 0.950 . S
C1933 C1950 1.573 1_565 S
C1933 C1952 1.359 1_565 S
C1933 H1957 0.959 . S
H1934 C1938 0.949 . S
C1935 C1936 1.349 . S
C1935 C1937 1.327 . S
C1935 H1958 0.950 . S
C1936 C1935 1.349 . S
C1936 C1948 1.349 . S
C1937 C1935 1.327 . S
C1937 C1953 1.429 . S
C1937 H1959 0.950 . S
C1938 H1934 0.949 . S
C1938 C1946 1.574 . S
C1938 C1954 1.368 . S
H1939 C1947 0.950 . S
H1940 C1945 0.950 . S
H1941 C1946 0.949 . S
H1942 C1948 0.950 . S
H1943 C1949 0.950 . S
H1944 C1950 0.949 1_565 S
C1945 H1940 0.950 . S
C1945 C1947 1.327 . S
C1945 C1951 1.429 1_565 S
C1946 C1938 1.574 . S
C1946 H1941 0.949 . S
C1946 C1952 1.368 . S
C1947 C1931 1.349 . S
C1947 H1939 0.950 . S
C1947 C1945 1.327 . S
C1948 C1936 1.349 . S
C1948 H1942 0.950 . S
C1948 C1949 1.327 . S
C1949 H1943 0.950 . S
C1949 C1948 1.327 . S
C1949 C1953 1.429 . S
C1950 C1933 1.573 1_545 S
C1950 H1944 0.949 1_545 S
C1950 C1954 1.368 . S
C1951 C1932 1.429 . S
C1951 C1945 1.429 1_545 S
C1951 C1952 1.523 . S
C1952 C1933 1.359 1_545 S
C1952 C1946 1.368 . S
C1952 C1951 1.523 . S
C1953 C1937 1.429 . S
C1953 C1949 1.429 . S
C1953 C1954 1.523 . S
C1954 C1938 1.368 . S
C1954 C1950 1.368 . S
C1954 C1953 1.523 . S
H1955 C1930 0.950 . S
H1956 C1932 0.950 . S
H1957 C1933 0.959 . S
H1958 C1935 0.950 . S
H1959 C1937 0.950 . S
C1960 C1961 1.349 . S
C1960 C1962 1.327 . S
C1960 H1985 0.950 . S
C1961 C1960 1.349 . S
C1961 C1977 1.349 . S
C1962 C1960 1.327 . S
C1962 C1981 1.429 . S
C1962 H1986 0.950 . S
C1963 C1980 1.574 . S
C1963 C1982 1.368 . S
C1963 H1987 0.949 . S
H1964 C1968 0.949 . S
C1965 C1966 1.349 . S
C1965 C1967 1.327 . S
C1965 H1988 0.950 . S
C1966 C1965 1.349 . S
C1966 C1978 1.349 . S
C1967 C1965 1.327 . S
C1967 C1983 1.429 . S
C1967 H1989 0.950 . S
C1968 H1964 0.949 . S
C1968 C1976 1.574 . S
C1968 C1984 1.368 . S
H1969 C1977 0.950 . S
H1970 C1975 0.950 . S
H1971 C1976 0.949 . S
H1972 C1978 0.950 . S
H1973 C1979 0.950 . S
H1974 C1980 0.949 . S
C1975 H1970 0.950 . S
C1975 C1977 1.327 . S
C1975 C1981 1.429 . S
C1976 C1968 1.574 . S
C1976 H1971 0.949 . S
C1976 C1982 1.368 . S
C1977 C1961 1.349 . S
C1977 H1969 0.950 . S
C1977 C1975 1.327 . S
C1978 C1966 1.349 . S
C1978 H1972 0.950 . S
C1978 C1979 1.327 . S
C1979 H1973 0.950 . S
C1979 C1978 1.327 . S
C1979 C1983 1.429 . S
C1980 C1963 1.574 . S
C1980 H1974 0.949 . S
C1980 C1984 1.368 . S
C1981 C1962 1.429 . S
C1981 C1975 1.429 . S
C1981 C1982 1.523 . S
C1982 C1963 1.368 . S
C1982 C1976 1.368 . S
C1982 C1981 1.523 . S
C1983 C1967 1.429 . S
C1983 C1979 1.429 . S
C1983 C1984 1.523 . S
C1984 C1968 1.368 . S
C1984 C1980 1.368 . S
C1984 C1983 1.523 . S
H1985 C1960 0.950 . S
H1986 C1962 0.950 . S
H1987 C1963 0.949 . S
H1988 C1965 0.950 . S
H1989 C1967 0.950 . S
C1990 C1991 1.349 . S
C1990 C1992 1.327 . S
C1990 H2015 0.950 . S
C1991 C1990 1.349 . S
C1991 C2007 1.349 . S
C1992 C1990 1.327 . S
C1992 C2011 1.429 . S
C1992 H2016 0.950 . S
C1993 C2010 1.574 . S
C1993 C2012 1.368 . S
C1993 H2017 0.949 . S
H1994 C1998 0.949 . S
C1995 C1996 1.349 . S
C1995 C1997 1.327 . S
C1995 H2018 0.950 . S
C1996 C1995 1.349 . S
C1996 C2008 1.349 1_565 S
C1997 C1995 1.327 . S
C1997 C2013 1.429 1_565 S
C1997 H2019 0.950 . S
C1998 H1994 0.949 . S
C1998 C2006 1.574 . S
C1998 C2014 1.368 . S
H1999 C2007 0.950 . S
H2000 C2005 0.950 . S
H2001 C2006 0.949 . S
H2002 C2008 0.950 . S
H2003 C2009 0.950 . S
H2004 C2010 0.949 1_565 S
C2005 H2000 0.950 . S
C2005 C2007 1.327 . S
C2005 C2011 1.429 . S
C2006 C1998 1.574 . S
C2006 H2001 0.949 . S
C2006 C2012 1.368 . S
C2007 C1991 1.349 . S
C2007 H1999 0.950 . S
C2007 C2005 1.327 . S
C2008 C1996 1.349 1_545 S
C2008 H2002 0.950 . S
C2008 C2009 1.327 . S
C2009 H2003 0.950 . S
C2009 C2008 1.327 . S
C2009 C2013 1.429 . S
C2010 C1993 1.574 . S
C2010 H2004 0.949 1_545 S
C2010 C2014 1.368 . S
C2011 C1992 1.429 . S
C2011 C2005 1.429 . S
C2011 C2012 1.523 . S
C2012 C1993 1.368 . S
C2012 C2006 1.368 . S
C2012 C2011 1.523 . S
C2013 C1997 1.429 1_545 S
C2013 C2009 1.429 . S
C2013 C2014 1.523 . S
C2014 C1998 1.368 . S
C2014 C2010 1.368 . S
C2014 C2013 1.523 . S
H2015 C1990 0.950 . S
H2016 C1992 0.950 . S
H2017 C1993 0.949 . S
H2018 C1995 0.950 . S
H2019 C1997 0.950 . S
C2020 C2021 1.349 . S
C2020 C2022 1.327 . S
C2020 H2045 0.950 . S
C2021 C2020 1.349 . S
C2021 C2037 1.349 . S
C2022 C2020 1.327 . S
C2022 C2041 1.429 . S
C2022 H2046 0.950 . S
C2023 C2040 1.574 . S
C2023 C2042 1.368 . S
C2023 H2047 0.949 . S
H2024 C2028 0.949 . S
C2025 C2026 1.349 . S
C2025 C2027 1.327 . S
C2025 H2048 0.950 . S
C2026 C2025 1.349 . S
C2026 C2038 1.349 . S
C2027 C2025 1.327 . S
C2027 C2043 1.429 . S
C2027 H2049 0.950 . S
C2028 H2024 0.949 . S
C2028 C2036 1.574 . S
C2028 C2044 1.368 . S
H2029 C2037 0.950 . S
H2030 C2035 0.950 . S
H2031 C2036 0.949 . S
H2032 C2038 0.950 . S
H2033 C2039 0.950 . S
H2034 C2040 0.949 . S
C2035 H2030 0.950 . S
C2035 C2037 1.327 . S
C2035 C2041 1.429 . S
C2036 C2028 1.574 . S
C2036 H2031 0.949 . S
C2036 C2042 1.368 . S
C2037 C2021 1.349 . S
C2037 H2029 0.950 . S
C2037 C2035 1.327 . S
C2038 C2026 1.349 . S
C2038 H2032 0.950 . S
C2038 C2039 1.327 . S
C2039 H2033 0.950 . S
C2039 C2038 1.327 . S
C2039 C2043 1.429 . S
C2040 C2023 1.574 . S
C2040 H2034 0.949 . S
C2040 C2044 1.368 . S
C2041 C2022 1.429 . S
C2041 C2035 1.429 . S
C2041 C2042 1.523 . S
C2042 C2023 1.368 . S
C2042 C2036 1.368 . S
C2042 C2041 1.523 . S
C2043 C2027 1.429 . S
C2043 C2039 1.429 . S
C2043 C2044 1.523 . S
C2044 C2028 1.368 . S
C2044 C2040 1.368 . S
C2044 C2043 1.523 . S
H2045 C2020 0.950 . S
H2046 C2022 0.950 . S
H2047 C2023 0.949 . S
H2048 C2025 0.950 . S
H2049 C2027 0.950 . S
C2050 C2051 1.349 . S
C2050 C2052 1.327 . S
C2050 H2075 0.950 . S
C2051 C2050 1.349 . S
C2051 C2067 1.349 . S
C2052 C2050 1.327 . S
C2052 C2071 1.429 . S
C2052 H2076 0.950 . S
C2053 C2070 1.574 . S
C2053 C2072 1.368 . S
C2053 H2077 0.949 . S
H2054 C2058 0.935 1_545 S
C2055 C2056 1.349 1_565 S
C2055 C2057 1.327 . S
C2055 H2078 0.950 . S
C2056 C2055 1.349 1_545 S
C2056 C2068 1.349 . S
C2057 C2055 1.327 . S
C2057 C2073 1.429 . S
C2057 H2079 0.950 . S
C2058 H2054 0.935 1_565 S
C2058 C2066 1.575 . S
C2058 C2074 1.383 . S
H2059 C2067 0.950 . S
H2060 C2065 0.950 . S
H2061 C2066 0.949 1_545 S
H2062 C2068 0.950 . S
H2063 C2069 0.950 . S
H2064 C2070 0.949 . S
C2065 H2060 0.950 . S
C2065 C2067 1.327 . S
C2065 C2071 1.429 . S
C2066 C2058 1.575 . S
C2066 H2061 0.949 1_565 S
C2066 C2072 1.368 . S
C2067 C2051 1.349 . S
C2067 H2059 0.950 . S
C2067 C2065 1.327 . S
C2068 C2056 1.349 . S
C2068 H2062 0.950 . S
C2068 C2069 1.327 . S
C2069 H2063 0.950 . S
C2069 C2068 1.327 . S
C2069 C2073 1.429 1_545 S
C2070 C2053 1.574 . S
C2070 H2064 0.949 . S
C2070 C2074 1.368 . S
C2071 C2052 1.429 . S
C2071 C2065 1.429 . S
C2071 C2072 1.523 . S
C2072 C2053 1.368 . S
C2072 C2066 1.368 . S
C2072 C2071 1.523 . S
C2073 C2057 1.429 . S
C2073 C2069 1.429 1_565 S
C2073 C2074 1.523 . S
C2074 C2058 1.383 . S
C2074 C2070 1.368 . S
C2074 C2073 1.523 . S
H2075 C2050 0.950 . S
H2076 C2052 0.950 . S
H2077 C2053 0.949 . S
H2078 C2055 0.950 . S
H2079 C2057 0.950 . S
C641 C9 0.505 . S
C646 C409 0.519 . S
C671 C49 0.860 . S
C676 C458 0.575 . S
C701 C89 0.519 . S
C706 C329 0.505 . S
C731 C369 0.860 . S
C736 C138 0.575 . S
C761 C178 0.505 . S
C766 C578 0.519 . S
C791 C609 0.575 . S
C796 C218 0.860 . S
C821 C498 0.505 . S
C826 C258 0.519 . S
C851 C289 0.575 . S
C856 C538 0.860 . S
C881 C19 3.520 . S
C886 C170 3.520 . S
C911 C59 2.922 . S
C916 C530 2.922 . S
C941 C99 2.340 . S
C946 C250 2.340 . S
C971 C126 1.489 . S
C976 C615 1.489 . S
C1001 C210 2.922 . S
C1006 C379 2.922 . S
C1031 C446 1.489 . S
C1036 C295 1.489 . S
C1061 C490 3.519 . S
C1066 C339 3.519 . S
C1091 C419 2.340 . S
C1096 C570 2.340 . S
C1121 C10 1.380 . S
C1126 C298 1.390 . S
C1151 C50 1.655 . S
C1156 C489 1.661 . S
C1181 C90 1.434 . S
C1186 C209 1.431 . S
C1211 C135 0.580 . S
C1216 C569 0.600 . S
C1241 C129 1.390 . S
C1246 C179 1.380 . S
C1271 C219 1.655 . S
C1276 C338 1.661 . S
C1301 C259 1.434 . S
C1306 C58 1.431 . S
C1331 C418 0.600 . S
C1336 C286 0.580 . S
C1361 C330 1.380 . S
C1366 C618 1.390 . S
C1391 C169 1.661 . S
C1396 C370 1.655 . S
C1421 C529 1.437 . S
C1426 C410 1.434 . S
C1451 C249 0.600 . S
C1456 C455 0.580 . S
C1481 C499 1.380 . S
C1486 C449 1.390 . S
C1511 C539 1.655 . S
C1516 C18 1.661 . S
C1541 C378 1.437 . S
C1546 C579 1.434 . S
C1571 C606 0.580 . S
C1576 C98 0.600 . S
C1601 C15 1.552 1_556 S
C1606 C366 1.526 . S
C1631 C406 1.601 . S
C1636 C55 1.625 . S
C1661 C95 1.818 . S
C1666 C459 1.800 . S
C1691 C326 2.374 . S
C1696 C130 2.357 . S
C1721 C535 1.526 . S
C1726 C166 1.552 1_554 S
C1751 C575 1.601 . S
C1756 C206 1.625 . S
C1781 C610 1.800 . S
C1786 C246 1.818 . S
C1811 C495 2.374 . S
C1816 C299 2.358 . S
C1841 C46 1.526 . S
C1846 C335 1.552 . S
C1871 C86 1.601 . S
C1876 C375 1.625 . S
C1901 C139 1.800 . S
C1906 C415 1.818 . S
C1931 C450 2.357 . S
C1936 C6 2.374 . S
C1961 C215 1.526 . S
C1966 C486 1.551 . S
C1991 C255 1.601 . S
C1996 C526 1.625 . S
C2021 C290 1.800 . S
C2026 C566 1.818 . S
C2051 C175 2.374 . S
C2056 C619 2.357 . S
