# Generated by pormake.
# Topology whm, (6)-cn, num edge types: 1
# Building blocks:
#     Node 0, Type 0, BuildingBlock: IZENUY_clean_sbu_0, # of connection points: 6
#     Node 1, Type 0, BuildingBlock: IZENUY_clean_sbu_0, # of connection points: 6
#     Node 2, Type 0, BuildingBlock: IZENUY_clean_sbu_0, # of connection points: 6
#     Node 3, Type 0, BuildingBlock: IZENUY_clean_sbu_0, # of connection points: 6
#     Node 4, Type 0, BuildingBlock: IZENUY_clean_sbu_0, # of connection points: 6
#     Node 5, Type 0, BuildingBlock: IZENUY_clean_sbu_0, # of connection points: 6
#     Node 6, Type 0, BuildingBlock: IZENUY_clean_sbu_0, # of connection points: 6
#     Node 7, Type 0, BuildingBlock: IZENUY_clean_sbu_0, # of connection points: 6
#     Node 8, Type 0, BuildingBlock: IZENUY_clean_sbu_0, # of connection points: 6
#     Node 9, Type 0, BuildingBlock: IZENUY_clean_sbu_0, # of connection points: 6
#     Node 10, Type 0, BuildingBlock: IZENUY_clean_sbu_0, # of connection points: 6
#     Node 11, Type 0, BuildingBlock: IZENUY_clean_sbu_0, # of connection points: 6
#     Node 12, Type 0, BuildingBlock: IZENUY_clean_sbu_0, # of connection points: 6
#     Node 13, Type 0, BuildingBlock: IZENUY_clean_sbu_0, # of connection points: 6
#     Node 14, Type 0, BuildingBlock: IZENUY_clean_sbu_0, # of connection points: 6
#     Node 15, Type 0, BuildingBlock: IZENUY_clean_sbu_0, # of connection points: 6
#     Edge 16, Type (0, 0), BuildingBlock: AJUNOK_clean_linker_0, # of connection points: 2
#     Edge 17, Type (0, 0), BuildingBlock: AJUNOK_clean_linker_0, # of connection points: 2
#     Edge 18, Type (0, 0), BuildingBlock: AJUNOK_clean_linker_0, # of connection points: 2
#     Edge 19, Type (0, 0), BuildingBlock: AJUNOK_clean_linker_0, # of connection points: 2
#     Edge 20, Type (0, 0), BuildingBlock: AJUNOK_clean_linker_0, # of connection points: 2
#     Edge 21, Type (0, 0), BuildingBlock: AJUNOK_clean_linker_0, # of connection points: 2
#     Edge 22, Type (0, 0), BuildingBlock: AJUNOK_clean_linker_0, # of connection points: 2
#     Edge 23, Type (0, 0), BuildingBlock: AJUNOK_clean_linker_0, # of connection points: 2
#     Edge 24, Type (0, 0), BuildingBlock: AJUNOK_clean_linker_0, # of connection points: 2
#     Edge 25, Type (0, 0), BuildingBlock: AJUNOK_clean_linker_0, # of connection points: 2
#     Edge 26, Type (0, 0), BuildingBlock: AJUNOK_clean_linker_0, # of connection points: 2
#     Edge 27, Type (0, 0), BuildingBlock: AJUNOK_clean_linker_0, # of connection points: 2
#     Edge 28, Type (0, 0), BuildingBlock: AJUNOK_clean_linker_0, # of connection points: 2
#     Edge 29, Type (0, 0), BuildingBlock: AJUNOK_clean_linker_0, # of connection points: 2
#     Edge 30, Type (0, 0), BuildingBlock: AJUNOK_clean_linker_0, # of connection points: 2
#     Edge 31, Type (0, 0), BuildingBlock: AJUNOK_clean_linker_0, # of connection points: 2
#     Edge 32, Type (0, 0), BuildingBlock: AJUNOK_clean_linker_0, # of connection points: 2
#     Edge 33, Type (0, 0), BuildingBlock: AJUNOK_clean_linker_0, # of connection points: 2
#     Edge 34, Type (0, 0), BuildingBlock: AJUNOK_clean_linker_0, # of connection points: 2
#     Edge 35, Type (0, 0), BuildingBlock: AJUNOK_clean_linker_0, # of connection points: 2
#     Edge 36, Type (0, 0), BuildingBlock: AJUNOK_clean_linker_0, # of connection points: 2
#     Edge 37, Type (0, 0), BuildingBlock: AJUNOK_clean_linker_0, # of connection points: 2
#     Edge 38, Type (0, 0), BuildingBlock: AJUNOK_clean_linker_0, # of connection points: 2
#     Edge 39, Type (0, 0), BuildingBlock: AJUNOK_clean_linker_0, # of connection points: 2
#     Edge 40, Type (0, 0), BuildingBlock: AJUNOK_clean_linker_0, # of connection points: 2
#     Edge 41, Type (0, 0), BuildingBlock: AJUNOK_clean_linker_0, # of connection points: 2
#     Edge 42, Type (0, 0), BuildingBlock: AJUNOK_clean_linker_0, # of connection points: 2
#     Edge 43, Type (0, 0), BuildingBlock: AJUNOK_clean_linker_0, # of connection points: 2
#     Edge 44, Type (0, 0), BuildingBlock: AJUNOK_clean_linker_0, # of connection points: 2
#     Edge 45, Type (0, 0), BuildingBlock: AJUNOK_clean_linker_0, # of connection points: 2
#     Edge 46, Type (0, 0), BuildingBlock: AJUNOK_clean_linker_0, # of connection points: 2
#     Edge 47, Type (0, 0), BuildingBlock: AJUNOK_clean_linker_0, # of connection points: 2
#     Edge 48, Type (0, 0), BuildingBlock: AJUNOK_clean_linker_0, # of connection points: 2
#     Edge 49, Type (0, 0), BuildingBlock: AJUNOK_clean_linker_0, # of connection points: 2
#     Edge 50, Type (0, 0), BuildingBlock: AJUNOK_clean_linker_0, # of connection points: 2
#     Edge 51, Type (0, 0), BuildingBlock: AJUNOK_clean_linker_0, # of connection points: 2
#     Edge 52, Type (0, 0), BuildingBlock: AJUNOK_clean_linker_0, # of connection points: 2
#     Edge 53, Type (0, 0), BuildingBlock: AJUNOK_clean_linker_0, # of connection points: 2
#     Edge 54, Type (0, 0), BuildingBlock: AJUNOK_clean_linker_0, # of connection points: 2
#     Edge 55, Type (0, 0), BuildingBlock: AJUNOK_clean_linker_0, # of connection points: 2
#     Edge 56, Type (0, 0), BuildingBlock: AJUNOK_clean_linker_0, # of connection points: 2
#     Edge 57, Type (0, 0), BuildingBlock: AJUNOK_clean_linker_0, # of connection points: 2
#     Edge 58, Type (0, 0), BuildingBlock: AJUNOK_clean_linker_0, # of connection points: 2
#     Edge 59, Type (0, 0), BuildingBlock: AJUNOK_clean_linker_0, # of connection points: 2
#     Edge 60, Type (0, 0), BuildingBlock: AJUNOK_clean_linker_0, # of connection points: 2
#     Edge 61, Type (0, 0), BuildingBlock: AJUNOK_clean_linker_0, # of connection points: 2
#     Edge 62, Type (0, 0), BuildingBlock: AJUNOK_clean_linker_0, # of connection points: 2
#     Edge 63, Type (0, 0), BuildingBlock: AJUNOK_clean_linker_0, # of connection points: 2
# Relax obj value: 0.317
# Max RMSD: 0.231
# Mean RMSD: 0.231
data_MOF--net-whm--node1-IZENUY_clean_sbu_0--edge1-AJUNOK_clean_linker_0
_symmetry_space_group_name_H-M    P1
_symmetry_Int_Tables_number       1
_symmetry_cell_setting            triclinic
loop_
_symmetry_equiv_pos_as_xyz
'x, y, z'
_cell_length_a     37.710264
_cell_length_b     37.70765
_cell_length_c     21.101899
_cell_angle_alpha  90.143342
_cell_angle_beta   90.136233
_cell_angle_gamma 90.054562
loop_
_atom_site_label
_atom_site_type_symbol
_atom_site_fract_x
_atom_site_fract_y
_atom_site_fract_z
_atom_type_partial_charge
Fe0 Fe 0.54574 0.17536 0.22216 0.0
Fe1 Fe 0.58917 0.10827 0.18666 0.0
O2 O 0.58121 0.15453 0.1803 0.0
Fe3 Fe 0.61001 0.17997 0.13188 0.0
O4 O 0.60601 0.22141 0.17605 0.0
O5 O 0.57482 0.20748 0.25955 0.0
O6 O 0.55172 0.14828 0.29429 0.0
C7 C 0.57553 0.1262 0.31049 0.0
C8 C 0.54531 0.20726 0.09814 0.0
O9 O 0.59583 0.1118 0.27068 0.0
C10 C 0.60399 0.11575 0.0626 0.0
O11 O 0.512 0.14511 0.19163 0.0
O12 O 0.54286 0.09594 0.19861 0.0
O13 O 0.57354 0.1921 0.08051 0.0
O14 O 0.53511 0.2062 0.1558 0.0
C15 C 0.65828 0.13747 0.19025 0.0
O16 O 0.58323 0.10144 0.10179 0.0
O17 O 0.62017 0.14401 0.07667 0.0
C18 C 0.51341 0.11178 0.19625 0.0
O19 O 0.63764 0.11173 0.17863 0.0
O20 O 0.64808 0.16901 0.18142 0.0
C21 C 0.59583 0.22789 0.23153 0.0
Fe22 Fe 0.34829 0.54805 0.71935 0.0
Fe23 Fe 0.41595 0.59039 0.686 0.0
O24 O 0.37039 0.58108 0.67398 0.0
Fe25 Fe 0.34706 0.60646 0.61714 0.0
O26 O 0.30398 0.60463 0.65626 0.0
O27 O 0.31482 0.57911 0.74705 0.0
O28 O 0.37267 0.55869 0.79357 0.0
C29 C 0.39119 0.58582 0.80777 0.0
C30 C 0.31996 0.54076 0.59206 0.0
O31 O 0.40741 0.60345 0.76624 0.0
C32 C 0.41387 0.5956 0.55911 0.0
O33 O 0.38034 0.51328 0.69877 0.0
O34 O 0.42789 0.54596 0.71175 0.0
O35 O 0.33701 0.56715 0.57145 0.0
O36 O 0.31955 0.53351 0.65134 0.0
C37 C 0.38709 0.65837 0.67157 0.0
O38 O 0.42688 0.57829 0.60478 0.0
O39 O 0.38543 0.61294 0.56579 0.0
C40 C 0.41302 0.51602 0.71186 0.0
O41 O 0.41296 0.6374 0.66554 0.0
O42 O 0.35593 0.64756 0.66068 0.0
C43 C 0.29519 0.5978 0.71242 0.0
Fe44 Fe 0.9321 0.41662 0.18817 0.0
Fe45 Fe 0.91632 0.34544 0.12641 0.0
O46 O 0.94233 0.37103 0.17962 0.0
Fe47 Fe 0.97701 0.3513 0.22472 0.0
O48 O 0.96691 0.37716 0.2976 0.0
O49 O 0.92086 0.40998 0.26951 0.0
O50 O 0.88463 0.41182 0.17044 0.0
C51 C 0.86449 0.38548 0.17927 0.0
C52 C 1.00698 0.41662 0.21087 0.0
O53 O 0.87607 0.35445 0.17131 0.0
C54 C 0.98243 0.31985 0.09967 0.0
O55 O 0.94257 0.4254 0.10562 0.0
O56 O 0.90809 0.38225 0.07186 0.0
O57 O 1.01031 0.38382 0.19959 0.0
O58 O 0.97664 0.43062 0.21092 0.0
C59 C 0.928 0.29704 0.22618 0.0
O60 O 0.95482 0.33495 0.07935 0.0
O61 O 0.99106 0.32139 0.15835 0.0
C62 C 0.92471 0.4109 0.06193 0.0
O63 O 0.91949 0.30357 0.16966 0.0
O64 O 0.94787 0.31767 0.25677 0.0
C65 C 0.93952 0.39531 0.31157 0.0
Fe66 Fe 0.11795 0.94917 0.69608 0.0
Fe67 Fe 0.18996 0.92299 0.64338 0.0
O68 O 0.16464 0.95429 0.68693 0.0
Fe69 Fe 0.1869 0.99098 0.72268 0.0
O70 O 0.17489 0.97456 0.80105 0.0
O71 O 0.11834 0.96446 0.77865 0.0
O72 O 0.12192 0.90438 0.72741 0.0
C73 C 0.14028 0.87896 0.70663 0.0
C74 C 0.11921 0.02147 0.69586 0.0
O75 O 0.16431 0.88399 0.66622 0.0
C76 C 0.21703 0.98982 0.6045 0.0
O77 O 0.11022 0.93233 0.61498 0.0
O78 O 0.16366 0.92938 0.57322 0.0
O79 O 0.14872 0.02103 0.72392 0.0
O80 O 0.10876 0.99389 0.66704 0.0
C81 C 0.23821 0.93674 0.73578 0.0
O82 O 0.22014 0.95657 0.61137 0.0
O83 O 0.20005 1.00843 0.64469 0.0
C84 C 0.13042 0.92833 0.56751 0.0
O85 O 0.2187 0.91358 0.71061 0.0
O86 O 0.22997 0.96905 0.73139 0.0
C87 C 0.14344 0.96734 0.81847 0.0
Fe88 Fe 0.60663 0.34106 0.87465 0.0
Fe89 Fe 0.53936 0.34101 0.79248 0.0
O90 O 0.57472 0.36477 0.82953 0.0
Fe91 Fe 0.57794 0.41141 0.81905 0.0
O92 O 0.62284 0.40908 0.7892 0.0
O93 O 0.64474 0.36792 0.8517 0.0
O94 O 0.61739 0.31201 0.80833 0.0
C95 C 0.59512 0.29184 0.78224 0.0
C96 C 0.59912 0.40122 0.94807 0.0
O97 O 0.56256 0.29872 0.78629 0.0
C98 C 0.50626 0.40761 0.81741 0.0
O99 O 0.57361 0.31028 0.90649 0.0
O100 O 0.52128 0.3277 0.86978 0.0
O101 O 0.59382 0.42054 0.89996 0.0
O102 O 0.59958 0.36786 0.94454 0.0
C103 C 0.5638 0.384 0.69681 0.0
O104 O 0.50804 0.37835 0.7885 0.0
O105 O 0.53303 0.41854 0.84755 0.0
C106 C 0.54006 0.31149 0.91087 0.0
O107 O 0.55706 0.35261 0.71477 0.0
O108 O 0.56347 0.40974 0.73568 0.0
C109 C 0.64887 0.39259 0.81217 0.0
Fe110 Fe 0.1838 0.54311 0.28682 0.0
Fe111 Fe 0.11448 0.58368 0.31187 0.0
O112 O 0.16073 0.57846 0.32456 0.0
Fe113 Fe 0.18422 0.6089 0.37316 0.0
O114 O 0.21407 0.62102 0.30908 0.0
O115 O 0.22623 0.56645 0.28117 0.0
O116 O 0.17242 0.56113 0.20852 0.0
C117 C 0.1411 0.56861 0.19099 0.0
C118 C 0.21364 0.54191 0.40599 0.0
O119 O 0.11581 0.56791 0.23013 0.0
C120 C 0.12332 0.60235 0.44171 0.0
O121 O 0.14551 0.51263 0.2838 0.0
O122 O 0.10517 0.53921 0.34111 0.0
O123 O 0.21494 0.57546 0.4036 0.0
O124 O 0.19724 0.52407 0.36369 0.0
C125 C 0.13603 0.65318 0.30709 0.0
O126 O 0.10494 0.60135 0.39152 0.0
O127 O 0.15654 0.59925 0.44057 0.0
C128 C 0.11596 0.5118 0.31226 0.0
O129 O 0.12024 0.62787 0.28012 0.0
O130 O 0.15743 0.6478 0.35221 0.0
C131 C 0.23385 0.59907 0.28113 0.0
Fe132 Fe 0.93508 0.11571 0.81459 0.0
Fe133 Fe 0.91774 0.18418 0.88421 0.0
O134 O 0.94457 0.16109 0.82891 0.0
Fe135 Fe 0.97957 0.18304 0.78832 0.0
O136 O 0.9712 0.1595 0.71291 0.0
O137 O 0.92531 0.12444 0.73297 0.0
O138 O 0.88747 0.11926 0.83026 0.0
C139 C 0.86691 0.1455 0.82451 0.0
C140 C 1.01015 0.11715 0.79655 0.0
O141 O 0.87789 0.17645 0.83655 0.0
C142 C 0.98302 0.21 0.91703 0.0
O143 O 0.94478 0.10433 0.8961 0.0
O144 O 0.90917 0.14538 0.93362 0.0
O145 O 1.01322 0.14979 0.81054 0.0
O146 O 0.97992 0.10309 0.79376 0.0
C147 C 0.93071 0.23746 0.79284 0.0
O148 O 0.95569 0.1932 0.9342 0.0
O149 O 0.99245 0.2105 0.85878 0.0
C150 C 0.92732 0.11759 0.94101 0.0
O151 O 0.9214 0.22768 0.84727 0.0
O152 O 0.95011 0.2179 0.75902 0.0
C153 C 0.94637 0.13898 0.69463 0.0
Fe154 Fe 0.41706 0.93837 0.33312 0.0
Fe155 Fe 0.34511 0.91951 0.38804 0.0
O156 O 0.37077 0.94634 0.33668 0.0
Fe157 Fe 0.35057 0.97947 0.28858 0.0
O158 O 0.37826 0.96889 0.2182 0.0
O159 O 0.41346 0.92581 0.25176 0.0
O160 O 0.41433 0.89108 0.35185 0.0
C161 C 0.38958 0.86936 0.34074 0.0
C162 C 0.41413 1.01263 0.30627 0.0
O163 O 0.35768 0.87927 0.34518 0.0
C164 C 0.31688 0.98536 0.41125 0.0
O165 O 0.42296 0.95012 0.41613 0.0
O166 O 0.38063 0.91384 0.44605 0.0
O167 O 0.38101 0.01466 0.31399 0.0
O168 O 0.42946 0.98307 0.31002 0.0
C169 C 0.29809 0.92835 0.28473 0.0
O170 O 0.33141 0.95777 0.43289 0.0
O171 O 0.31922 0.99369 0.35258 0.0
C172 C 0.40843 0.9314 0.45834 0.0
O173 O 0.3042 0.92006 0.34142 0.0
O174 O 0.31862 0.94868 0.25536 0.0
C175 C 0.39865 0.94257 0.20745 0.0
Fe176 Fe 0.45132 0.91166 0.82389 0.0
Fe177 Fe 0.48837 0.84151 0.78854 0.0
O178 O 0.45374 0.86469 0.8279 0.0
Fe179 Fe 0.4217 0.83997 0.87032 0.0
O180 O 0.38416 0.86946 0.85429 0.0
O181 O 0.40639 0.91111 0.7939 0.0
O182 O 0.46522 0.91309 0.74061 0.0
C183 C 0.46606 0.88896 0.69861 0.0
C184 C 0.43304 0.89559 0.95208 0.0
O185 O 0.47185 0.85683 0.71281 0.0
C186 C 0.48696 0.80715 0.90195 0.0
O187 O 0.49656 0.917 0.85219 0.0
O188 O 0.52076 0.87805 0.7897 0.0
O189 O 0.43212 0.86266 0.94261 0.0
O190 O 0.43613 0.91732 0.90649 0.0
C191 C 0.42962 0.79578 0.77022 0.0
O192 O 0.50594 0.82513 0.86415 0.0
O193 O 0.45353 0.80585 0.89551 0.0
C194 C 0.52262 0.90712 0.81932 0.0
O195 O 0.46277 0.80044 0.77581 0.0
O196 O 0.40865 0.81545 0.8002 0.0
C197 C 0.38014 0.89479 0.81597 0.0
Fe198 Fe 0.60923 0.44082 0.31957 0.0
Fe199 Fe 0.67988 0.47937 0.29296 0.0
O200 O 0.65595 0.44463 0.33105 0.0
Fe201 Fe 0.67976 0.41358 0.37825 0.0
O202 O 0.65298 0.37499 0.35712 0.0
O203 O 0.61199 0.39534 0.2925 0.0
O204 O 0.61117 0.45336 0.23552 0.0
C205 C 0.637 0.45386 0.1971 0.0
C206 C 0.61937 0.42234 0.45021 0.0
O207 O 0.66827 0.46096 0.21557 0.0
C208 C 0.70987 0.48071 0.41128 0.0
O209 O 0.60112 0.48635 0.34414 0.0
O210 O 0.6427 0.51065 0.28741 0.0
O211 O 0.65279 0.42217 0.44728 0.0
O212 O 0.60011 0.42669 0.40146 0.0
C213 C 0.72758 0.42278 0.2826 0.0
O214 O 0.69323 0.49861 0.36962 0.0
O215 O 0.71094 0.44707 0.40874 0.0
C216 C 0.61245 0.51235 0.31261 0.0
O217 O 0.72191 0.45556 0.28766 0.0
O218 O 0.70858 0.40124 0.31269 0.0
C219 C 0.62881 0.36998 0.31675 0.0
Fe220 Fe 0.11224 0.68375 0.87216 0.0
Fe221 Fe 0.08484 0.61409 0.81228 0.0
O222 O 0.08105 0.66068 0.82425 0.0
Fe223 Fe 0.04649 0.68445 0.78569 0.0
O224 O 0.07036 0.72664 0.77982 0.0
O225 O 0.12462 0.71393 0.80832 0.0
O226 O 0.1506 0.65639 0.84973 0.0
C227 C 0.1548 0.63491 0.80426 0.0
C228 C 0.04565 0.71439 0.90486 0.0
O229 O 0.12896 0.61871 0.77986 0.0
C230 C 1.01327 0.61735 0.81137 0.0
O231 O 0.1027 0.6562 0.94 0.0
O232 O 0.10261 0.60436 0.89179 0.0
O233 O 0.02753 0.69861 0.86216 0.0
O234 O 0.07926 0.71474 0.9033 0.0
C235 C 0.07119 0.64016 0.69126 0.0
O236 O 0.04005 0.60569 0.84119 0.0
O237 O 0.01522 0.64693 0.78317 0.0
C238 C 0.10487 0.62291 0.94169 0.0
O239 O 0.06864 0.61556 0.73121 0.0
O240 O 0.06475 0.67201 0.70757 0.0
C241 C 0.1029 0.73441 0.78139 0.0
Fe242 Fe 0.84826 0.10874 0.37804 0.0
Fe243 Fe 0.91834 0.08788 0.31788 0.0
O244 O 0.87219 0.08024 0.32673 0.0
Fe245 Fe 0.8504 0.04578 0.28377 0.0
O246 O 0.81757 0.07582 0.25039 0.0
O247 O 0.80628 0.10706 0.33538 0.0
O248 O 0.85972 0.14756 0.33049 0.0
C249 C 0.89141 0.15714 0.32158 0.0
C250 C 0.81948 0.04419 0.40911 0.0
O251 O 0.91637 0.13574 0.33277 0.0
C252 C 0.91454 1.01268 0.29913 0.0
O253 O 0.88543 0.11591 0.43203 0.0
O254 O 0.92662 0.07846 0.40102 0.0
O255 O 0.82061 0.03409 0.3512 0.0
O256 O 0.8354 0.07187 0.42756 0.0
C257 C 0.8974 0.07846 0.19518 0.0
O258 O 0.92999 0.04231 0.29787 0.0
O259 O 0.88154 1.01113 0.30977 0.0
C260 C 0.91256 0.09736 0.44353 0.0
O261 O 0.91234 0.09796 0.23578 0.0
O262 O 0.87628 0.05359 0.21082 0.0
C263 C 0.79862 0.09782 0.27974 0.0
Fe264 Fe 0.44591 0.61496 0.19053 0.0
Fe265 Fe 0.48799 0.68273 0.22435 0.0
O266 O 0.45153 0.66168 0.18621 0.0
Fe267 Fe 0.42077 0.68831 0.14432 0.0
O268 O 0.38176 0.66109 0.16068 0.0
O269 O 0.40151 0.61872 0.22225 0.0
O270 O 0.46094 0.61254 0.27316 0.0
C271 C 0.46494 0.63623 0.31541 0.0
C272 C 0.42653 0.6323 0.06273 0.0
O273 O 0.47202 0.66812 0.30106 0.0
C274 C 0.48713 0.71724 0.11083 0.0
O275 O 0.49037 0.60628 0.16106 0.0
O276 O 0.51802 0.64445 0.22127 0.0
O277 O 0.42947 0.66511 0.07194 0.0
O278 O 0.42902 0.61042 0.10835 0.0
C279 C 0.43204 0.73146 0.2448 0.0
O280 O 0.50545 0.69819 0.14803 0.0
O281 O 0.45407 0.72075 0.11888 0.0
C282 C 0.5176 0.61511 0.19229 0.0
O283 O 0.46484 0.72511 0.23837 0.0
O284 O 0.40971 0.71327 0.21471 0.0
C285 C 0.37637 0.63704 0.20085 0.0
Fe286 Fe 0.91101 0.44948 0.69631 0.0
Fe287 Fe 0.84196 0.49051 0.72506 0.0
O288 O 0.8641 0.45381 0.68996 0.0
Fe289 Fe 0.83831 0.42145 0.64982 0.0
O290 O 0.86613 0.38313 0.66981 0.0
O291 O 0.9082 0.40537 0.72974 0.0
O292 O 0.91208 0.46539 0.77848 0.0
C293 C 0.88757 0.46874 0.81917 0.0
C294 C 0.89486 0.42821 0.56893 0.0
O295 O 0.8558 0.47543 0.80312 0.0
C296 C 0.80796 0.48682 0.61064 0.0
O297 O 0.91932 0.49381 0.66587 0.0
O298 O 0.87979 0.52117 0.72296 0.0
O299 O 0.86199 0.42869 0.57812 0.0
O300 O 0.91671 0.43211 0.61452 0.0
C301 C 0.79223 0.4351 0.74417 0.0
O302 O 0.82667 0.50641 0.64698 0.0
O303 O 0.80589 0.45368 0.61996 0.0
C304 C 0.90949 0.52117 0.69555 0.0
O305 O 0.79969 0.46753 0.73755 0.0
O306 O 0.81212 0.41195 0.71998 0.0
C307 C 0.89098 0.37924 0.70923 0.0
Fe308 Fe 0.05025 0.84714 0.22343 0.0
Fe309 Fe 0.11132 0.84603 0.12653 0.0
O310 O 0.08337 0.86989 0.17893 0.0
Fe311 Fe 0.09042 0.91615 0.18716 0.0
O312 O 0.09943 0.91151 0.27008 0.0
O313 O 0.05785 0.87303 0.29711 0.0
O314 O 0.08205 0.81556 0.25531 0.0
C315 C 0.10125 0.79544 0.22269 0.0
C316 C 0.01511 0.91009 0.20354 0.0
O317 O 0.10847 0.80329 0.1664 0.0
C318 C 0.10333 0.91131 0.06195 0.0
O319 O 0.03841 0.81731 0.1551 0.0
O320 O 0.07374 0.8348 0.07717 0.0
O321 O 0.04408 0.92696 0.20294 0.0
O322 O 1.01438 0.87668 0.19948 0.0
C323 C 0.15987 0.8882 0.18544 0.0
O324 O 0.12015 0.8832 0.07374 0.0
O325 O 0.08264 0.92429 0.10287 0.0
C326 C 0.04685 0.81779 0.0962 0.0
O327 O 0.15027 0.85653 0.17483 0.0
O328 O 0.13864 0.91367 0.17589 0.0
C329 C 0.08214 0.89506 0.31167 0.0
Fe330 Fe 0.61375 0.07983 0.69426 0.0
Fe331 Fe 0.68532 0.04239 0.71698 0.0
O332 O 0.66012 0.07657 0.68047 0.0
Fe333 Fe 0.68182 0.10782 0.63107 0.0
O334 O 0.6532 0.14531 0.65099 0.0
O335 O 0.6176 0.12468 0.7243 0.0
O336 O 0.61646 0.06533 0.77666 0.0
C337 C 0.64229 0.06429 0.81487 0.0
C338 C 0.62101 0.0956 0.56353 0.0
O339 O 0.67363 0.05906 0.79547 0.0
C340 C 0.71468 0.04282 0.59803 0.0
O341 O 0.60601 0.0348 0.66682 0.0
O342 O 0.64877 1.00985 0.72072 0.0
O343 O 0.65442 0.09558 0.56412 0.0
O344 O 0.60307 0.09553 0.6141 0.0
C345 C 0.73061 0.10192 0.72604 0.0
O346 O 0.69908 0.02418 0.6397 0.0
O347 O 0.71464 0.0763 0.60146 0.0
C348 C 0.61805 1.00836 0.69648 0.0
O349 O 0.72618 0.06867 0.72306 0.0
O350 O 0.7107 0.12237 0.69508 0.0
C351 C 0.63278 0.15025 0.69739 0.0
C352 C 0.63895 0.27389 0.26712 0.0
C353 C 0.60364 0.26293 0.25871 0.0
C354 C 0.64687 0.30841 0.28774 0.0
C355 C 0.61975 0.33333 0.29829 0.0
H356 H 0.66051 0.25573 0.25733 0.0
H357 H 0.67442 0.31598 0.29355 0.0
S358 S 0.5231 0.3175 0.28215 0.0
N359 N 0.54142 0.27916 0.26314 0.0
N360 N 0.55628 0.34451 0.29946 0.0
C361 C 0.58436 0.32259 0.28995 0.0
C362 C 0.57631 0.28721 0.27076 0.0
C363 C 0.2528 0.61194 0.80062 0.0
C364 C 0.25963 0.60871 0.73524 0.0
C365 C 0.21901 0.62143 0.82289 0.0
C366 C 0.19077 0.62722 0.78055 0.0
H367 H 0.27371 0.60716 0.83484 0.0
H368 H 0.21472 0.62333 0.87353 0.0
S369 S 0.19472 0.62344 0.60513 0.0
N370 N 0.23521 0.61319 0.62852 0.0
N371 N 0.17195 0.63052 0.67066 0.0
C372 C 0.19728 0.62449 0.71527 0.0
C373 C 0.23165 0.61539 0.69252 0.0
C374 C 0.87502 0.21478 0.26943 0.0
C375 C 0.90023 0.19386 0.30147 0.0
C376 C 0.88405 0.24833 0.24532 0.0
C377 C 0.91826 0.26249 0.25402 0.0
H378 H 0.84846 0.20476 0.26123 0.0
H379 H 0.86416 0.26331 0.21972 0.0
S380 S 0.99395 0.21895 0.33451 0.0
N381 N 0.96121 0.19006 0.33962 0.0
N382 N 0.97731 0.25342 0.2968 0.0
C383 C 0.9434 0.24232 0.28708 0.0
C384 C 0.93461 0.20793 0.31014 0.0
C385 C 0.31551 0.88187 0.79823 0.0
C386 C 0.34384 0.90625 0.79809 0.0
C387 C 0.2813 0.89192 0.77873 0.0
C388 C 0.274 0.92691 0.75955 0.0
H389 H 0.31995 0.85458 0.81209 0.0
H390 H 0.26048 0.87211 0.77846 0.0
S391 S 0.3388 1.00122 0.75309 0.0
N392 N 0.36212 0.96707 0.77846 0.0
N393 N 0.29809 0.98616 0.74304 0.0
C394 C 0.30201 0.95171 0.76069 0.0
C395 C 0.33684 0.94134 0.77952 0.0
C396 C 0.58012 0.22959 0.75244 0.0
C397 C 0.60584 0.25663 0.75747 0.0
C398 C 0.58918 0.19525 0.73357 0.0
C399 C 0.62412 0.18678 0.71685 0.0
H400 H 0.55268 0.23471 0.76418 0.0
H401 H 0.56855 0.17525 0.73139 0.0
S402 S 0.70127 0.24788 0.71817 0.0
N403 N 0.66779 0.27258 0.74255 0.0
N404 N 0.68459 0.20804 0.70456 0.0
C405 C 0.65003 0.21361 0.71962 0.0
C406 C 0.64096 0.24853 0.7405 0.0
C407 C 0.3305 0.59314 0.2331 0.0
C408 C 0.33964 0.62842 0.21972 0.0
C409 C 0.29601 0.58405 0.25106 0.0
C410 C 0.26937 0.60997 0.25806 0.0
H411 H 0.35008 0.57224 0.22906 0.0
H412 H 0.29047 0.55641 0.26056 0.0
S413 S 0.27993 0.70642 0.22904 0.0
N414 N 0.31944 0.68956 0.21393 0.0
N415 N 0.25463 0.67258 0.24959 0.0
C416 C 0.27817 0.64545 0.24484 0.0
C417 C 0.31326 0.65463 0.2252 0.0
C418 C 0.90487 0.31528 0.68713 0.0
C419 C 0.90079 0.34324 0.73084 0.0
C420 C 0.91531 0.28123 0.70711 0.0
C421 C 0.92091 0.27376 0.77171 0.0
H422 H 0.90058 0.31992 0.63705 0.0
H423 H 0.9184 0.26051 0.67191 0.0
S424 S 0.9124 0.33795 0.90502 0.0
N425 N 0.90304 0.36139 0.84118 0.0
N426 N 0.92099 0.29745 0.87934 0.0
C427 C 0.91634 0.30157 0.81586 0.0
C428 C 0.90673 0.33629 0.79527 0.0
C429 C 0.21529 0.87439 0.24665 0.0
C430 C 0.1967 0.8967 0.20489 0.0
C431 C 0.24838 0.88454 0.27171 0.0
C432 C 0.2644 0.91691 0.2546 0.0
H433 H 0.20355 0.84965 0.26209 0.0
H434 H 0.26138 0.86706 0.30515 0.0
S435 S 0.22734 0.98392 0.14438 0.0
N436 N 0.19717 0.95224 0.1464 0.0
N437 N 0.25957 0.97061 0.19167 0.0
C438 C 0.24663 0.93877 0.21109 0.0
C439 C 0.21273 0.92886 0.18675 0.0
C440 C 0.42997 0.70821 0.68247 0.0
C441 C 0.39494 0.69573 0.68882 0.0
C442 C 0.44028 0.74121 0.7063 0.0
C443 C 0.41615 0.7633 0.73811 0.0
H444 H 0.45013 0.6919 0.66045 0.0
H445 H 0.46783 0.74887 0.70142 0.0
S446 S 0.32033 0.74449 0.76274 0.0
N447 N 0.33537 0.70905 0.7254 0.0
N448 N 0.35464 0.77142 0.77057 0.0
C449 C 0.38046 0.75207 0.74193 0.0
C450 C 0.3699 0.71825 0.71723 0.0
C451 C 0.77586 0.37793 0.26313 0.0
C452 C 0.75981 0.41067 0.2487 0.0
C453 C 0.809 0.36871 0.23745 0.0
C454 C 0.82708 0.39198 0.19668 0.0
H455 H 0.76366 0.3601 0.29684 0.0
H456 H 0.8214 0.34421 0.25243 0.0
S457 S 0.79312 0.4773 0.1339 0.0
N458 N 0.76217 0.46376 0.18343 0.0
N459 N 0.82422 0.44658 0.13591 0.0
C460 C 0.81003 0.42343 0.1782 0.0
C461 C 0.77644 0.43273 0.20399 0.0
C462 C 0.09721 0.83298 0.74415 0.0
C463 C 0.13198 0.84203 0.7266 0.0
C464 C 0.08825 0.7981 0.76066 0.0
C465 C 0.11377 0.77075 0.76162 0.0
H466 H 0.07651 0.85288 0.74411 0.0
H467 H 0.06099 0.79271 0.77361 0.0
S468 S 0.20907 0.78075 0.72218 0.0
N469 N 0.19241 0.82086 0.71228 0.0
N470 N 0.17562 0.75546 0.74474 0.0
C471 C 0.14882 0.77951 0.74523 0.0
C472 C 0.15787 0.81503 0.72731 0.0
C473 C 0.71073 0.0969 0.19192 0.0
C474 C 0.69545 0.12971 0.20875 0.0
C475 C 0.74478 0.08742 0.21265 0.0
C476 C 0.76464 0.11009 0.25204 0.0
H477 H 0.6961 0.07813 0.16299 0.0
H478 H 0.75502 0.06157 0.19972 0.0
S479 S 0.7378 0.1998 0.30664 0.0
N480 N 0.70369 0.18565 0.26431 0.0
N481 N 0.76744 0.16761 0.3043 0.0
C482 C 0.75014 0.14338 0.26777 0.0
C483 C 0.71566 0.15327 0.2458 0.0
C484 C 0.37506 0.81063 0.29095 0.0
C485 C 0.39901 0.83227 0.32448 0.0
C486 C 0.38546 0.77736 0.26754 0.0
C487 C 0.4202 0.76445 0.27694 0.0
H488 H 0.3486 0.82008 0.28024 0.0
H489 H 0.36646 0.76232 0.23981 0.0
S490 S 0.49131 0.80853 0.37013 0.0
N491 N 0.45797 0.83679 0.37145 0.0
N492 N 0.4771 0.77425 0.3285 0.0
C493 C 0.44363 0.78488 0.31384 0.0
C494 C 0.43317 0.81878 0.33726 0.0
C495 C 0.71325 0.37921 0.79541 0.0
C496 C 0.68528 0.40391 0.7959 0.0
C497 C 0.74795 0.38953 0.77992 0.0
C498 C 0.75609 0.42507 0.76567 0.0
H499 H 0.70817 0.35155 0.80589 0.0
H500 H 0.76848 0.36946 0.7787 0.0
S501 S 0.69238 0.50041 0.76472 0.0
N502 N 0.66811 0.46555 0.78324 0.0
N503 N 0.73308 0.48528 0.75572 0.0
C504 C 0.72837 0.45019 0.76793 0.0
C505 C 0.69304 0.43952 0.78249 0.0
C506 C 0.11402 0.73157 0.20279 0.0
C507 C 0.11087 0.7598 0.24625 0.0
C508 C 0.12189 0.69716 0.22309 0.0
C509 C 0.12789 0.68983 0.28743 0.0
H510 H 0.1097 0.73589 0.15262 0.0
H511 H 0.12365 0.67621 0.18799 0.0
S512 S 0.12342 0.75431 0.42028 0.0
N513 N 0.11429 0.77808 0.35664 0.0
N514 N 0.13031 0.71344 0.39472 0.0
C515 C 0.12539 0.71782 0.33141 0.0
C516 C 0.11652 0.75279 0.31085 0.0
C517 C 0.81098 0.15946 0.76477 0.0
C518 C 0.82935 0.13835 0.80875 0.0
C519 C 0.77801 0.14849 0.74009 0.0
C520 C 0.76255 0.11606 0.75863 0.0
H521 H 0.82304 0.18346 0.74665 0.0
H522 H 0.76549 0.16463 0.70403 0.0
S523 S 0.79706 0.05498 0.88186 0.0
N524 N 0.82747 0.0863 0.87633 0.0
N525 N 0.76592 0.06576 0.83035 0.0
C526 C 0.77953 0.09627 0.8062 0.0
C527 C 0.81284 0.1074 0.83114 0.0
C528 C 0.58977 0.0809 0.96494 0.0
C529 C 0.61499 0.09692 1.00458 0.0
C530 C 0.59941 0.06833 0.9048 0.0
C531 C 0.63465 0.07103 0.88265 0.0
H532 H 0.56217 0.07987 0.97895 0.0
H533 H 0.57872 0.05772 0.87447 0.0
S534 S 0.71154 0.1057 0.97356 0.0
N535 N 0.67735 0.11099 0.02136 0.0
N536 N 0.69538 0.08736 0.9085 0.0
C537 C 0.66055 0.08448 0.9241 0.0
C538 C 0.6507 0.09752 0.985 0.0
C539 C 0.44366 0.57932 0.45818 0.0
C540 C 0.43573 0.60483 0.50424 0.0
C541 C 0.45555 0.58968 0.3981 0.0
C542 C 0.45973 0.62589 0.38238 0.0
H543 H 0.4383 0.55154 0.46704 0.0
H544 H 0.45965 0.5692 0.36277 0.0
S545 S 0.44704 0.70229 0.49125 0.0
N546 N 0.43642 0.66715 0.53368 0.0
N547 N 0.45879 0.68678 0.42116 0.0
C548 C 0.45464 0.65133 0.43026 0.0
C549 C 0.44252 0.64073 0.49112 0.0
C550 C 0.8803 0.42911 0.98178 0.0
C551 C 0.91539 0.43091 1.00453 0.0
C552 C 0.87084 0.44408 0.92371 0.0
C553 C 0.89628 0.46089 0.8858 0.0
H554 H 0.8601 0.41512 0.00831 0.0
H555 H 0.84392 0.44047 0.90676 0.0
S556 S 0.99084 0.47619 0.92731 0.0
N557 N 0.97486 0.45365 0.98795 0.0
N558 N 0.95736 0.4815 0.87761 0.0
C559 C 0.93104 0.46471 0.90967 0.0
C560 C 0.94054 0.44982 0.96944 0.0
C561 C 0.12781 0.91136 0.3908 0.0
C562 C 0.0924 0.90189 0.37838 0.0
C563 C 0.13924 0.92003 0.45167 0.0
C564 C 0.11583 0.92007 0.50352 0.0
H565 H 0.14721 0.91195 0.35295 0.0
H566 H 0.16697 0.92669 0.4578 0.0
S567 S 0.02012 0.89676 0.49673 0.0
N568 N 0.03376 0.8925 0.42273 0.0
N569 N 0.05522 0.90917 0.53833 0.0
C570 C 0.08019 0.91044 0.49211 0.0
C571 C 0.06853 0.90116 0.42942 0.0
C572 C 0.58679 0.43917 0.04293 0.0
C573 C 0.61021 0.41776 0.00831 0.0
C574 C 0.59624 0.45206 0.10321 0.0
C575 C 0.62977 0.44471 0.12998 0.0
H576 H 0.56057 0.4448 0.02444 0.0
H577 H 0.57688 0.46728 0.12963 0.0
S578 S 0.7015 0.39217 0.05511 0.0
N579 N 0.66877 0.39117 1.00295 0.0
N580 N 0.68696 0.41618 0.11522 0.0
C581 C 0.654 0.42479 0.09411 0.0
C582 C 0.64407 0.41105 0.03353 0.0
C583 C 0.08867 0.64265 0.51287 0.0
C584 C 0.10642 0.61028 0.50276 0.0
C585 C 0.07692 0.65246 0.57379 0.0
C586 C 0.08201 0.62983 0.62597 0.0
H587 H 0.08509 0.66102 0.47399 0.0
H588 H 0.06412 0.67792 0.5801 0.0
S589 S 0.12679 0.54162 0.622 0.0
N590 N 0.12834 0.55575 0.54819 0.0
N591 N 0.10588 0.57291 0.66182 0.0
C592 C 0.09899 0.59683 0.6152 0.0
C593 C 0.11132 0.58739 0.55381 0.0
C594 C 0.89195 0.08288 0.01674 0.0
C595 C 0.92418 0.09934 1.0012 0.0
C596 C 0.88402 0.07439 0.07963 0.0
C597 C 0.90776 0.08316 0.12858 0.0
H598 H 0.87204 0.07832 0.98056 0.0
H599 H 0.85839 0.06288 0.0903 0.0
S600 S 0.99721 0.12341 0.11003 0.0
N601 N 0.98101 0.12145 0.03736 0.0
N602 N 0.96637 0.10624 0.15614 0.0
C603 C 0.94095 0.098 0.1127 0.0
C604 C 0.94911 0.1059 0.04868 0.0
C605 C 0.45736 0.9349 0.6146 0.0
C606 C 0.45774 0.89883 0.63257 0.0
C607 C 0.44326 0.94554 0.55609 0.0
C608 C 0.42871 0.92045 0.51445 0.0
H609 H 0.46673 0.95524 0.64694 0.0
H610 H 0.44195 0.97355 0.54498 0.0
S611 S 0.42724 0.82261 0.53498 0.0
N612 N 0.44565 0.83792 0.60056 0.0
N613 N 0.41864 0.85792 0.49164 0.0
C614 C 0.43097 0.88423 0.53004 0.0
C615 C 0.4457 0.87338 0.58886 0.0
C616 C 0.41557 0.9435 0.02946 0.0
C617 C 0.42637 0.90831 0.0176 0.0
C618 C 0.40593 0.95463 0.09076 0.0
C619 C 0.40703 0.93098 0.14215 0.0
H620 H 0.41389 0.96241 0.99102 0.0
H621 H 0.39793 0.98192 0.09801 0.0
S622 S 0.4332 0.8359 0.13664 0.0
N623 N 0.43782 0.85005 0.0633 0.0
N624 N 0.41913 0.8706 0.17693 0.0
C625 C 0.41783 0.89577 0.13083 0.0
C626 C 0.42771 0.88456 0.06904 0.0
C627 C 0.57891 0.43358 0.54237 0.0
C628 C 0.60276 0.41132 0.51037 0.0
C629 C 0.56524 0.42397 0.60192 0.0
C630 C 0.5741 0.39131 0.63035 0.0
H631 H 0.57182 0.45905 0.52239 0.0
H632 H 0.54809 0.4425 0.62641 0.0
S633 S 0.63372 0.3228 0.56309 0.0
N634 N 0.63364 0.35481 0.50978 0.0
N635 N 0.60716 0.3363 0.62038 0.0
C636 C 0.5967 0.36824 0.59723 0.0
C637 C 0.61126 0.37839 0.53757 0.0
C638 C 0.09455 0.61641 0.05704 0.0
C639 C 0.11335 0.60606 1.00294 0.0
C640 C 0.10366 0.60347 0.11688 0.0
C641 C 0.13257 0.58023 0.12555 0.0
H642 H 0.07264 0.6348 0.05308 0.0
H643 H 0.08825 0.61257 0.15703 0.0
S644 S 0.19102 0.54582 0.99854 0.0
N645 N 0.16224 0.5713 0.96091 0.0
N646 N 0.18015 0.54759 0.07434 0.0
C647 C 0.15182 0.56974 0.07173 0.0
C648 C 0.14195 0.58241 0.01019 0.0
C649 C 0.92941 0.08082 0.55229 0.0
C650 C 0.93123 0.10514 0.50249 0.0
C651 C 0.93595 0.09184 0.61454 0.0
C652 C 0.94465 0.12741 0.62838 0.0
H653 H 0.92027 0.05396 0.54376 0.0
H654 H 0.93279 0.07273 0.65238 0.0
S655 S 0.95571 0.20023 0.51307 0.0
N656 N 0.94441 0.16544 0.46976 0.0
N657 N 0.95759 0.18597 0.58696 0.0
C658 C 0.94913 0.15124 0.5784 0.0
C659 C 0.94209 0.14012 0.51522 0.0
C660 C 0.40268 0.57241 0.92266 0.0
C661 C 0.39628 0.59703 0.87409 0.0
C662 C 0.41275 0.58383 0.98365 0.0
C663 C 0.41627 0.62022 0.99806 0.0
H664 H 0.40115 0.54423 0.91293 0.0
H665 H 0.41814 0.564 0.01945 0.0
S666 S 0.39736 0.6951 0.88791 0.0
N667 N 0.39091 0.65904 0.84511 0.0
N668 N 0.40906 0.68077 0.9587 0.0
C669 C 0.40819 0.645 0.94997 0.0
C670 C 0.3983 0.63332 0.88834 0.0
C671 C 0.95373 0.40488 0.42736 0.0
C672 C 0.9288 0.40135 0.37801 0.0
C673 C 0.94292 0.41415 0.48912 0.0
C674 C 0.90685 0.41994 0.50337 0.0
H675 H 0.98172 0.40135 0.41788 0.0
H676 H 0.9629 0.41676 0.52578 0.0
S677 S 0.83109 0.41128 0.39028 0.0
N678 N 0.86657 0.40219 0.34794 0.0
N679 N 0.84619 0.4201 0.46189 0.0
C680 C 0.88176 0.41577 0.45396 0.0
C681 C 0.89275 0.40626 0.39194 0.0
C682 C 0.09968 0.96205 0.90726 0.0
C683 C 0.13511 0.95995 0.8858 0.0
C684 C 0.08961 0.94846 0.96652 0.0
C685 C 0.11454 0.93177 0.00571 0.0
H686 H 0.07923 0.97298 0.87691 0.0
H687 H 0.0619 0.94911 0.97991 0.0
S688 S 0.21129 0.92327 0.97549 0.0
N689 N 0.1956 0.94316 0.91176 0.0
N690 N 0.17677 0.91707 0.02211 0.0
C691 C 0.15039 0.93156 0.98662 0.0
C692 C 0.16068 0.94586 0.92696 0.0
C693 C 0.59044 0.13513 0.487 0.0
C694 C 0.60312 0.10124 0.5028 0.0
C695 C 0.57907 0.1427 0.42509 0.0
C696 C 0.5804 0.11655 0.37755 0.0
H697 H 0.59106 0.15632 0.52179 0.0
H698 H 0.57131 0.16958 0.41355 0.0
S699 S 0.60544 0.02217 0.39895 0.0
N700 N 0.61215 0.04044 0.46921 0.0
N701 N 0.59085 0.05435 0.35279 0.0
C702 C 0.59069 0.08195 0.39435 0.0
C703 C 0.60214 0.07437 0.45712 0.0
C704 C 0.45742 0.03067 0.22373 0.0
C705 C 0.43415 0.04106 0.27266 0.0
C706 C 0.48051 0.05475 0.1949 0.0
C707 C 0.48149 0.09055 0.2132 0.0
H708 H 0.45875 1.00319 0.20877 0.0
H709 H 0.49919 0.04475 0.16024 0.0
S710 S 0.42349 0.13249 0.33409 0.0
N711 N 0.4112 0.09038 0.3341 0.0
N712 N 0.45506 0.136 0.28023 0.0
C713 C 0.45662 0.10205 0.25883 0.0
C714 C 0.43283 0.07725 0.28842 0.0
C715 C 0.45412 0.42544 0.7485 0.0
C716 C 0.47771 0.4333 0.79905 0.0
C717 C 0.43191 0.4516 0.72168 0.0
C718 C 0.43277 0.48674 0.74383 0.0
H719 H 0.45389 0.39923 0.72738 0.0
H720 H 0.4153 0.44467 0.68157 0.0
S721 S 0.48519 0.52011 0.88137 0.0
N722 N 0.49675 0.47809 0.87484 0.0
N723 N 0.45609 0.52699 0.82423 0.0
C724 C 0.45452 0.49434 0.79683 0.0
C725 C 0.47664 0.46776 0.82449 0.0
C726 C 0.07121 0.43669 0.2186 0.0
C727 C 0.03623 0.43747 0.24124 0.0
C728 C 0.09749 0.45927 0.24448 0.0
C729 C 0.08995 0.48322 0.29459 0.0
H730 H 0.07796 0.41972 0.17895 0.0
H731 H 0.12354 0.45894 0.22302 0.0
S732 S 1.0038 0.49055 0.37832 0.0
N733 N 0.99658 0.461 0.32196 0.0
N734 N 0.04565 0.50253 0.37059 0.0
C735 C 0.05565 0.48219 0.32044 0.0
C736 C 0.02894 0.45962 0.29378 0.0
C737 C 0.0569 0.04485 0.70127 0.0
C738 C 0.09314 0.0499 0.71382 0.0
C739 C 0.03106 0.06702 0.72792 0.0
C740 C 0.03983 0.09574 0.76848 0.0
H741 H 0.04809 0.02266 0.67257 0.0
H742 H 1.00363 0.06111 0.71671 0.0
S743 S 0.13111 0.12326 0.81142 0.0
N744 N 0.13677 0.08791 0.76614 0.0
N745 N 0.08783 0.12963 0.81552 0.0
C746 C 0.07601 0.10245 0.77879 0.0
C747 C 0.10262 0.07959 0.75179 0.0
C748 C 0.60405 0.94756 0.73967 0.0
C749 C 0.59272 0.98206 0.72399 0.0
C750 C 0.58184 0.92386 0.77274 0.0
C751 C 0.54791 0.93411 0.79393 0.0
H752 H 0.63028 0.93875 0.726 0.0
H753 H 0.59125 0.89719 0.78156 0.0
S754 S 0.50603 0.02204 0.76753 0.0
N755 N 0.54518 0.02533 0.73329 0.0
N756 N 0.50428 0.98156 0.79685 0.0
C757 C 0.53659 0.96882 0.77971 0.0
C758 C 0.55871 0.99252 0.74444 0.0
C759 C 0.59918 0.57278 0.26792 0.0
C760 C 0.58708 0.5389 0.28593 0.0
C761 C 0.57714 0.59668 0.23501 0.0
C762 C 0.54242 0.58733 0.21644 0.0
H763 H 0.62597 0.58095 0.27955 0.0
H764 H 0.58729 0.62288 0.2244 0.0
S765 S 0.49817 0.5013 0.2498 0.0
N766 N 0.53797 0.49711 0.28163 0.0
N767 N 0.49711 0.5414 0.21867 0.0
C768 C 0.53022 0.55324 0.23307 0.0
C769 C 0.55232 0.52927 0.26807 0.0
C770 C 0.97068 0.53521 0.73712 0.0
C771 C 0.93647 0.54699 0.71994 0.0
C772 C 0.99453 0.55725 0.7706 0.0
C773 C 0.98542 0.59225 0.78781 0.0
H774 H 0.97881 0.50834 0.72622 0.0
H775 H 0.02072 0.5471 0.78132 0.0
S776 S 0.89927 0.63602 0.7545 0.0
N777 N 0.8947 0.59589 0.72399 0.0
N778 N 0.93971 0.63752 0.78466 0.0
C779 C 0.95139 0.60433 0.77073 0.0
C780 C 0.92695 0.58174 0.73754 0.0
C781 C 0.93809 0.94911 0.2976 0.0
C782 C 0.93407 0.98252 0.26868 0.0
C783 C 0.96215 0.92369 0.27288 0.0
C784 C 0.9826 0.93082 0.21824 0.0
H785 H 0.9244 0.94348 0.34149 0.0
H786 H 0.96662 0.89947 0.29918 0.0
S787 S 0.97822 1.01174 0.12 0.0
N788 N 0.95022 0.01919 0.17848 0.0
N789 N 0.9944 0.97182 0.13301 0.0
C790 C 0.97676 0.96286 0.18681 0.0
C791 C 0.95279 0.98855 0.21175 0.0
C792 C 0.52789 0.26918 0.06923 0.0
C793 C 0.52959 0.23299 0.05287 0.0
C794 C 0.52583 0.29556 0.02211 0.0
C795 C 0.52444 0.28663 0.95727 0.0
H796 H 0.53211 0.27734 0.11795 0.0
H797 H 0.52897 0.32306 0.03614 0.0
S798 S 0.52257 0.19565 0.89072 0.0
N799 N 0.52582 0.18961 0.96802 0.0
N800 N 0.52068 0.23901 0.88021 0.0
C801 C 0.52216 0.25053 0.94119 0.0
C802 C 0.52507 0.22375 0.98879 0.0
C803 C 0.22988 0.52744 0.51755 0.0
C804 C 0.23809 0.52525 0.4525 0.0
C805 C 0.25669 0.52725 0.56438 0.0
C806 C 0.29284 0.52586 0.54773 0.0
H807 H 0.20287 0.5328 0.53204 0.0
H808 H 0.2492 0.53231 0.61311 0.0
S809 S 0.32816 0.51633 0.38467 0.0
N810 N 0.28473 0.51799 0.37478 0.0
N811 N 0.33501 0.51874 0.46192 0.0
C812 C 0.3011 0.52065 0.48331 0.0
C813 C 0.27379 0.52013 0.43595 0.0
C814 C 0.99522 0.25645 0.07483 0.0
C815 C 0.99744 0.29229 0.05683 0.0
C816 C 0.99475 0.22915 0.02911 0.0
C817 C 0.99709 0.2365 0.96364 0.0
H818 H 0.98991 0.24965 0.12377 0.0
H819 H 0.98945 0.20235 0.04485 0.0
S820 S 1.01035 0.32561 0.89325 0.0
N821 N 1.0068 0.33333 0.97008 0.0
N822 N 1.00719 0.28216 0.88456 0.0
C823 C 1.0036 0.27188 0.94588 0.0
C824 C 1.00335 0.29972 0.99234 0.0
C825 C 0.30108 1.00853 0.51817 0.0
C826 C 0.291 1.0026 0.45462 0.0
C827 C 0.2758 1.01022 0.56704 0.0
C828 C 0.23943 1.0058 0.55441 0.0
H829 H 0.32892 1.00828 0.53105 0.0
H830 H 0.28511 1.01097 0.61563 0.0
S831 S 0.19878 0.99418 0.39553 0.0
N832 N 0.24177 0.99645 0.38116 0.0
N833 N 0.19438 0.99904 0.473 0.0
C834 C 0.22879 1.00342 0.49055 0.0
C835 C 0.25454 1.00207 0.44061 0.0
C836 C 0.50636 0.775 0.06606 0.0
C837 C 0.50305 0.73802 0.05881 0.0
C838 C 0.50636 0.79768 0.01313 0.0
C839 C 0.50259 0.78415 0.9513 0.0
H840 H 0.50546 0.78667 0.113 0.0
H841 H 0.50564 0.82607 0.02107 0.0
S842 S 0.49683 0.68925 0.90658 0.0
N843 N 0.49945 0.68884 0.98476 0.0
N844 N 0.49872 0.73141 0.88563 0.0
C845 C 0.50229 0.74716 0.94328 0.0
C846 C 0.50269 0.72409 0.99701 0.0
C847 C 0.74643 0.49811 0.57399 0.0
C848 C 0.78309 0.50137 0.56257 0.0
C849 C 0.72175 0.49624 0.52389 0.0
C850 C 0.73267 0.49769 0.46025 0.0
H851 H 0.73708 0.49333 0.6217 0.0
H852 H 0.69435 0.49018 0.53495 0.0
S853 S 0.82515 0.50921 0.40471 0.0
N854 N 0.82868 0.50861 0.4828 0.0
N855 N 0.78238 0.50526 0.38877 0.0
C856 C 0.76886 0.50386 0.44831 0.0
C857 C 0.79403 0.50571 0.49941 0.0
C858 C 0.02826 0.77505 0.93751 0.0
C859 C 0.02939 0.73867 0.95195 0.0
C860 C 0.02954 0.80099 0.98558 0.0
C861 C 0.03181 0.79163 0.05016 0.0
H862 H 0.03029 0.78357 0.88864 0.0
H863 H 0.03201 0.82854 0.97179 0.0
S864 S 0.03117 0.69992 0.11318 0.0
N865 N 0.02953 0.69465 0.03546 0.0
N866 N 0.03116 0.74319 0.1258 0.0
C867 C 0.02924 0.75539 0.06537 0.0
C868 C 0.02834 0.72898 0.01626 0.0
C869 C 0.80145 0.02552 0.51824 0.0
C870 C 0.79262 0.0296 0.45369 0.0
C871 C 0.77511 0.02418 0.56545 0.0
C872 C 0.73892 0.02735 0.55008 0.0
H873 H 0.82901 0.02638 0.53284 0.0
H874 H 0.78334 0.02447 0.61469 0.0
S875 S 0.70167 0.0368 0.38827 0.0
N876 N 0.7449 0.03431 0.37689 0.0
N877 N 0.69568 0.03291 0.4655 0.0
C878 C 0.72969 0.02884 0.4855 0.0
C879 C 0.75645 0.02961 0.43733 0.0
loop_
_geom_bond_atom_site_label_1
_geom_bond_atom_site_label_2
_geom_bond_distance
_geom_bond_site_symmetry_2
_ccdc_geom_bond_type
Fe0 O2 1.918 . S
Fe0 O5 1.997 . S
Fe0 O6 2.002 . S
Fe0 O11 1.976 . S
Fe0 O14 1.996 . S
Fe1 O2 1.918 . S
Fe1 O9 1.997 . S
Fe1 O12 1.996 . S
Fe1 O16 1.976 . S
Fe1 O19 2.002 . S
O2 Fe0 1.918 . S
O2 Fe1 1.918 . S
O2 Fe3 1.918 . S
Fe3 O2 1.918 . S
Fe3 O4 2.002 . S
Fe3 O13 1.976 . S
Fe3 O17 1.996 . S
Fe3 O20 1.997 . S
O4 Fe3 2.002 . S
O4 C21 1.295 . S
O5 Fe0 1.997 . S
O5 C21 1.235 . S
O6 Fe0 2.002 . S
O6 C7 1.295 . S
C7 O6 1.295 . S
C7 O9 1.235 . S
C8 O13 1.287 . S
C8 O14 1.255 . S
O9 Fe1 1.997 . S
O9 C7 1.235 . S
C10 O16 1.287 . S
C10 O17 1.255 . S
O11 Fe0 1.976 . S
O11 C18 1.287 . S
O12 Fe1 1.996 . S
O12 C18 1.255 . S
O13 Fe3 1.976 . S
O13 C8 1.287 . S
O14 Fe0 1.996 . S
O14 C8 1.255 . S
C15 O19 1.295 . S
C15 O20 1.235 . S
O16 Fe1 1.976 . S
O16 C10 1.287 . S
O17 Fe3 1.996 . S
O17 C10 1.255 . S
C18 O11 1.287 . S
C18 O12 1.255 . S
O19 Fe1 2.002 . S
O19 C15 1.295 . S
O20 Fe3 1.997 . S
O20 C15 1.235 . S
C21 O4 1.295 . S
C21 O5 1.235 . S
Fe22 O24 1.918 . S
Fe22 O27 1.997 . S
Fe22 O28 2.002 . S
Fe22 O33 1.976 . S
Fe22 O36 1.996 . S
Fe23 O24 1.918 . S
Fe23 O31 1.997 . S
Fe23 O34 1.996 . S
Fe23 O38 1.976 . S
Fe23 O41 2.002 . S
O24 Fe22 1.918 . S
O24 Fe23 1.918 . S
O24 Fe25 1.918 . S
Fe25 O24 1.918 . S
Fe25 O26 2.002 . S
Fe25 O35 1.976 . S
Fe25 O39 1.996 . S
Fe25 O42 1.997 . S
O26 Fe25 2.002 . S
O26 C43 1.295 . S
O27 Fe22 1.997 . S
O27 C43 1.235 . S
O28 Fe22 2.002 . S
O28 C29 1.295 . S
C29 O28 1.295 . S
C29 O31 1.235 . S
C30 O35 1.287 . S
C30 O36 1.255 . S
O31 Fe23 1.997 . S
O31 C29 1.235 . S
C32 O38 1.287 . S
C32 O39 1.255 . S
O33 Fe22 1.976 . S
O33 C40 1.287 . S
O34 Fe23 1.996 . S
O34 C40 1.255 . S
O35 Fe25 1.976 . S
O35 C30 1.287 . S
O36 Fe22 1.996 . S
O36 C30 1.255 . S
C37 O41 1.295 . S
C37 O42 1.235 . S
O38 Fe23 1.976 . S
O38 C32 1.287 . S
O39 Fe25 1.996 . S
O39 C32 1.255 . S
C40 O33 1.287 . S
C40 O34 1.255 . S
O41 Fe23 2.002 . S
O41 C37 1.295 . S
O42 Fe25 1.997 . S
O42 C37 1.235 . S
C43 O26 1.295 . S
C43 O27 1.235 . S
Fe44 O46 1.918 . S
Fe44 O49 1.997 . S
Fe44 O50 2.002 . S
Fe44 O55 1.976 . S
Fe44 O58 1.996 . S
Fe45 O46 1.918 . S
Fe45 O53 1.997 . S
Fe45 O56 1.996 . S
Fe45 O60 1.976 . S
Fe45 O63 2.002 . S
O46 Fe44 1.918 . S
O46 Fe45 1.918 . S
O46 Fe47 1.918 . S
Fe47 O46 1.918 . S
Fe47 O48 2.002 . S
Fe47 O57 1.976 1_655 S
Fe47 O61 1.996 . S
Fe47 O64 1.997 . S
O48 Fe47 2.002 . S
O48 C65 1.295 . S
O49 Fe44 1.997 . S
O49 C65 1.235 . S
O50 Fe44 2.002 . S
O50 C51 1.295 . S
C51 O50 1.295 . S
C51 O53 1.235 . S
C52 O57 1.287 . S
C52 O58 1.255 1_455 S
O53 Fe45 1.997 . S
O53 C51 1.235 . S
C54 O60 1.287 . S
C54 O61 1.255 . S
O55 Fe44 1.976 . S
O55 C62 1.287 . S
O56 Fe45 1.996 . S
O56 C62 1.255 . S
O57 Fe47 1.976 1_455 S
O57 C52 1.287 . S
O58 Fe44 1.996 . S
O58 C52 1.255 1_655 S
C59 O63 1.295 . S
C59 O64 1.235 . S
O60 Fe45 1.976 . S
O60 C54 1.287 . S
O61 Fe47 1.996 . S
O61 C54 1.255 . S
C62 O55 1.287 . S
C62 O56 1.255 . S
O63 Fe45 2.002 . S
O63 C59 1.295 . S
O64 Fe47 1.997 . S
O64 C59 1.235 . S
C65 O48 1.295 . S
C65 O49 1.235 . S
Fe66 O68 1.918 . S
Fe66 O71 1.997 . S
Fe66 O72 2.002 . S
Fe66 O77 1.976 . S
Fe66 O80 1.996 . S
Fe67 O68 1.918 . S
Fe67 O75 1.997 . S
Fe67 O78 1.996 . S
Fe67 O82 1.976 . S
Fe67 O85 2.002 . S
O68 Fe66 1.918 . S
O68 Fe67 1.918 . S
O68 Fe69 1.918 . S
Fe69 O68 1.918 . S
Fe69 O70 2.002 . S
Fe69 O79 1.976 1_565 S
Fe69 O83 1.996 . S
Fe69 O86 1.997 . S
O70 Fe69 2.002 . S
O70 C87 1.295 . S
O71 Fe66 1.997 . S
O71 C87 1.235 . S
O72 Fe66 2.002 . S
O72 C73 1.295 . S
C73 O72 1.295 . S
C73 O75 1.235 . S
C74 O79 1.287 . S
C74 O80 1.255 1_545 S
O75 Fe67 1.997 . S
O75 C73 1.235 . S
C76 O82 1.287 . S
C76 O83 1.255 . S
O77 Fe66 1.976 . S
O77 C84 1.287 . S
O78 Fe67 1.996 . S
O78 C84 1.255 . S
O79 Fe69 1.976 1_545 S
O79 C74 1.287 . S
O80 Fe66 1.996 . S
O80 C74 1.255 1_565 S
C81 O85 1.295 . S
C81 O86 1.235 . S
O82 Fe67 1.976 . S
O82 C76 1.287 . S
O83 Fe69 1.996 . S
O83 C76 1.255 . S
C84 O77 1.287 . S
C84 O78 1.255 . S
O85 Fe67 2.002 . S
O85 C81 1.295 . S
O86 Fe69 1.997 . S
O86 C81 1.235 . S
C87 O70 1.295 . S
C87 O71 1.235 . S
Fe88 O90 1.918 . S
Fe88 O93 1.997 . S
Fe88 O94 2.002 . S
Fe88 O99 1.976 . S
Fe88 O102 1.996 . S
Fe89 O90 1.918 . S
Fe89 O97 1.997 . S
Fe89 O100 1.996 . S
Fe89 O104 1.976 . S
Fe89 O107 2.002 . S
O90 Fe88 1.918 . S
O90 Fe89 1.918 . S
O90 Fe91 1.918 . S
Fe91 O90 1.918 . S
Fe91 O92 2.002 . S
Fe91 O101 1.976 . S
Fe91 O105 1.996 . S
Fe91 O108 1.997 . S
O92 Fe91 2.002 . S
O92 C109 1.295 . S
O93 Fe88 1.997 . S
O93 C109 1.235 . S
O94 Fe88 2.002 . S
O94 C95 1.295 . S
C95 O94 1.295 . S
C95 O97 1.235 . S
C96 O101 1.287 . S
C96 O102 1.255 . S
O97 Fe89 1.997 . S
O97 C95 1.235 . S
C98 O104 1.287 . S
C98 O105 1.255 . S
O99 Fe88 1.976 . S
O99 C106 1.287 . S
O100 Fe89 1.996 . S
O100 C106 1.255 . S
O101 Fe91 1.976 . S
O101 C96 1.287 . S
O102 Fe88 1.996 . S
O102 C96 1.255 . S
C103 O107 1.295 . S
C103 O108 1.235 . S
O104 Fe89 1.976 . S
O104 C98 1.287 . S
O105 Fe91 1.996 . S
O105 C98 1.255 . S
C106 O99 1.287 . S
C106 O100 1.255 . S
O107 Fe89 2.002 . S
O107 C103 1.295 . S
O108 Fe91 1.997 . S
O108 C103 1.235 . S
C109 O92 1.295 . S
C109 O93 1.235 . S
Fe110 O112 1.918 . S
Fe110 O115 1.997 . S
Fe110 O116 2.002 . S
Fe110 O121 1.976 . S
Fe110 O124 1.996 . S
Fe111 O112 1.918 . S
Fe111 O119 1.997 . S
Fe111 O122 1.996 . S
Fe111 O126 1.976 . S
Fe111 O129 2.002 . S
O112 Fe110 1.918 . S
O112 Fe111 1.918 . S
O112 Fe113 1.918 . S
Fe113 O112 1.918 . S
Fe113 O114 2.002 . S
Fe113 O123 1.976 . S
Fe113 O127 1.996 . S
Fe113 O130 1.997 . S
O114 Fe113 2.002 . S
O114 C131 1.295 . S
O115 Fe110 1.997 . S
O115 C131 1.235 . S
O116 Fe110 2.002 . S
O116 C117 1.295 . S
C117 O116 1.295 . S
C117 O119 1.235 . S
C118 O123 1.287 . S
C118 O124 1.255 . S
O119 Fe111 1.997 . S
O119 C117 1.235 . S
C120 O126 1.287 . S
C120 O127 1.255 . S
O121 Fe110 1.976 . S
O121 C128 1.287 . S
O122 Fe111 1.996 . S
O122 C128 1.255 . S
O123 Fe113 1.976 . S
O123 C118 1.287 . S
O124 Fe110 1.996 . S
O124 C118 1.255 . S
C125 O129 1.295 . S
C125 O130 1.235 . S
O126 Fe111 1.976 . S
O126 C120 1.287 . S
O127 Fe113 1.996 . S
O127 C120 1.255 . S
C128 O121 1.287 . S
C128 O122 1.255 . S
O129 Fe111 2.002 . S
O129 C125 1.295 . S
O130 Fe113 1.997 . S
O130 C125 1.235 . S
C131 O114 1.295 . S
C131 O115 1.235 . S
Fe132 O134 1.918 . S
Fe132 O137 1.997 . S
Fe132 O138 2.002 . S
Fe132 O143 1.976 . S
Fe132 O146 1.996 . S
Fe133 O134 1.918 . S
Fe133 O141 1.997 . S
Fe133 O144 1.996 . S
Fe133 O148 1.976 . S
Fe133 O151 2.002 . S
O134 Fe132 1.918 . S
O134 Fe133 1.918 . S
O134 Fe135 1.918 . S
Fe135 O134 1.918 . S
Fe135 O136 2.002 . S
Fe135 O145 1.976 1_655 S
Fe135 O149 1.996 . S
Fe135 O152 1.997 . S
O136 Fe135 2.002 . S
O136 C153 1.295 . S
O137 Fe132 1.997 . S
O137 C153 1.235 . S
O138 Fe132 2.002 . S
O138 C139 1.295 . S
C139 O138 1.295 . S
C139 O141 1.235 . S
C140 O145 1.287 . S
C140 O146 1.255 1_455 S
O141 Fe133 1.997 . S
O141 C139 1.235 . S
C142 O148 1.287 . S
C142 O149 1.255 . S
O143 Fe132 1.976 . S
O143 C150 1.287 . S
O144 Fe133 1.996 . S
O144 C150 1.255 . S
O145 Fe135 1.976 1_455 S
O145 C140 1.287 . S
O146 Fe132 1.996 . S
O146 C140 1.255 1_655 S
C147 O151 1.295 . S
C147 O152 1.235 . S
O148 Fe133 1.976 . S
O148 C142 1.287 . S
O149 Fe135 1.996 . S
O149 C142 1.255 . S
C150 O143 1.287 . S
C150 O144 1.255 . S
O151 Fe133 2.002 . S
O151 C147 1.295 . S
O152 Fe135 1.997 . S
O152 C147 1.235 . S
C153 O136 1.295 . S
C153 O137 1.235 . S
Fe154 O156 1.918 . S
Fe154 O159 1.997 . S
Fe154 O160 2.002 . S
Fe154 O165 1.976 . S
Fe154 O168 1.996 . S
Fe155 O156 1.918 . S
Fe155 O163 1.997 . S
Fe155 O166 1.996 . S
Fe155 O170 1.976 . S
Fe155 O173 2.002 . S
O156 Fe154 1.918 . S
O156 Fe155 1.918 . S
O156 Fe157 1.918 . S
Fe157 O156 1.918 . S
Fe157 O158 2.002 . S
Fe157 O167 1.976 1_565 S
Fe157 O171 1.996 . S
Fe157 O174 1.997 . S
O158 Fe157 2.002 . S
O158 C175 1.295 . S
O159 Fe154 1.997 . S
O159 C175 1.235 . S
O160 Fe154 2.002 . S
O160 C161 1.295 . S
C161 O160 1.295 . S
C161 O163 1.235 . S
C162 O167 1.287 . S
C162 O168 1.255 1_545 S
O163 Fe155 1.997 . S
O163 C161 1.235 . S
C164 O170 1.287 . S
C164 O171 1.255 . S
O165 Fe154 1.976 . S
O165 C172 1.287 . S
O166 Fe155 1.996 . S
O166 C172 1.255 . S
O167 Fe157 1.976 1_545 S
O167 C162 1.287 . S
O168 Fe154 1.996 . S
O168 C162 1.255 1_565 S
C169 O173 1.295 . S
C169 O174 1.235 . S
O170 Fe155 1.976 . S
O170 C164 1.287 . S
O171 Fe157 1.996 . S
O171 C164 1.255 . S
C172 O165 1.287 . S
C172 O166 1.255 . S
O173 Fe155 2.002 . S
O173 C169 1.295 . S
O174 Fe157 1.997 . S
O174 C169 1.235 . S
C175 O158 1.295 . S
C175 O159 1.235 . S
Fe176 O178 1.918 . S
Fe176 O181 1.997 . S
Fe176 O182 2.002 . S
Fe176 O187 1.976 . S
Fe176 O190 1.996 . S
Fe177 O178 1.918 . S
Fe177 O185 1.997 . S
Fe177 O188 1.996 . S
Fe177 O192 1.976 . S
Fe177 O195 2.002 . S
O178 Fe176 1.918 . S
O178 Fe177 1.918 . S
O178 Fe179 1.918 . S
Fe179 O178 1.918 . S
Fe179 O180 2.002 . S
Fe179 O189 1.976 . S
Fe179 O193 1.996 . S
Fe179 O196 1.997 . S
O180 Fe179 2.002 . S
O180 C197 1.295 . S
O181 Fe176 1.997 . S
O181 C197 1.235 . S
O182 Fe176 2.002 . S
O182 C183 1.295 . S
C183 O182 1.295 . S
C183 O185 1.235 . S
C184 O189 1.287 . S
C184 O190 1.255 . S
O185 Fe177 1.997 . S
O185 C183 1.235 . S
C186 O192 1.287 . S
C186 O193 1.255 . S
O187 Fe176 1.976 . S
O187 C194 1.287 . S
O188 Fe177 1.996 . S
O188 C194 1.255 . S
O189 Fe179 1.976 . S
O189 C184 1.287 . S
O190 Fe176 1.996 . S
O190 C184 1.255 . S
C191 O195 1.295 . S
C191 O196 1.235 . S
O192 Fe177 1.976 . S
O192 C186 1.287 . S
O193 Fe179 1.996 . S
O193 C186 1.255 . S
C194 O187 1.287 . S
C194 O188 1.255 . S
O195 Fe177 2.002 . S
O195 C191 1.295 . S
O196 Fe179 1.997 . S
O196 C191 1.235 . S
C197 O180 1.295 . S
C197 O181 1.235 . S
Fe198 O200 1.918 . S
Fe198 O203 1.997 . S
Fe198 O204 2.002 . S
Fe198 O209 1.976 . S
Fe198 O212 1.996 . S
Fe199 O200 1.918 . S
Fe199 O207 1.997 . S
Fe199 O210 1.996 . S
Fe199 O214 1.976 . S
Fe199 O217 2.002 . S
O200 Fe198 1.918 . S
O200 Fe199 1.918 . S
O200 Fe201 1.918 . S
Fe201 O200 1.918 . S
Fe201 O202 2.002 . S
Fe201 O211 1.976 . S
Fe201 O215 1.996 . S
Fe201 O218 1.997 . S
O202 Fe201 2.002 . S
O202 C219 1.295 . S
O203 Fe198 1.997 . S
O203 C219 1.235 . S
O204 Fe198 2.002 . S
O204 C205 1.295 . S
C205 O204 1.295 . S
C205 O207 1.235 . S
C206 O211 1.287 . S
C206 O212 1.255 . S
O207 Fe199 1.997 . S
O207 C205 1.235 . S
C208 O214 1.287 . S
C208 O215 1.255 . S
O209 Fe198 1.976 . S
O209 C216 1.287 . S
O210 Fe199 1.996 . S
O210 C216 1.255 . S
O211 Fe201 1.976 . S
O211 C206 1.287 . S
O212 Fe198 1.996 . S
O212 C206 1.255 . S
C213 O217 1.295 . S
C213 O218 1.235 . S
O214 Fe199 1.976 . S
O214 C208 1.287 . S
O215 Fe201 1.996 . S
O215 C208 1.255 . S
C216 O209 1.287 . S
C216 O210 1.255 . S
O217 Fe199 2.002 . S
O217 C213 1.295 . S
O218 Fe201 1.997 . S
O218 C213 1.235 . S
C219 O202 1.295 . S
C219 O203 1.235 . S
Fe220 O222 1.918 . S
Fe220 O225 1.997 . S
Fe220 O226 2.002 . S
Fe220 O231 1.976 . S
Fe220 O234 1.996 . S
Fe221 O222 1.918 . S
Fe221 O229 1.997 . S
Fe221 O232 1.996 . S
Fe221 O236 1.976 . S
Fe221 O239 2.002 . S
O222 Fe220 1.918 . S
O222 Fe221 1.918 . S
O222 Fe223 1.918 . S
Fe223 O222 1.918 . S
Fe223 O224 2.002 . S
Fe223 O233 1.976 . S
Fe223 O237 1.996 1_455 S
Fe223 O240 1.997 . S
O224 Fe223 2.002 . S
O224 C241 1.295 . S
O225 Fe220 1.997 . S
O225 C241 1.235 . S
O226 Fe220 2.002 . S
O226 C227 1.295 . S
C227 O226 1.295 . S
C227 O229 1.235 . S
C228 O233 1.287 . S
C228 O234 1.255 . S
O229 Fe221 1.997 . S
O229 C227 1.235 . S
C230 O236 1.287 1_655 S
C230 O237 1.255 . S
O231 Fe220 1.976 . S
O231 C238 1.287 . S
O232 Fe221 1.996 . S
O232 C238 1.255 . S
O233 Fe223 1.976 . S
O233 C228 1.287 . S
O234 Fe220 1.996 . S
O234 C228 1.255 . S
C235 O239 1.295 . S
C235 O240 1.235 . S
O236 Fe221 1.976 . S
O236 C230 1.287 1_455 S
O237 Fe223 1.996 1_655 S
O237 C230 1.255 . S
C238 O231 1.287 . S
C238 O232 1.255 . S
O239 Fe221 2.002 . S
O239 C235 1.295 . S
O240 Fe223 1.997 . S
O240 C235 1.235 . S
C241 O224 1.295 . S
C241 O225 1.235 . S
Fe242 O244 1.918 . S
Fe242 O247 1.997 . S
Fe242 O248 2.002 . S
Fe242 O253 1.976 . S
Fe242 O256 1.996 . S
Fe243 O244 1.918 . S
Fe243 O251 1.997 . S
Fe243 O254 1.996 . S
Fe243 O258 1.976 . S
Fe243 O261 2.002 . S
O244 Fe242 1.918 . S
O244 Fe243 1.918 . S
O244 Fe245 1.918 . S
Fe245 O244 1.918 . S
Fe245 O246 2.002 . S
Fe245 O255 1.976 . S
Fe245 O259 1.996 1_545 S
Fe245 O262 1.997 . S
O246 Fe245 2.002 . S
O246 C263 1.295 . S
O247 Fe242 1.997 . S
O247 C263 1.235 . S
O248 Fe242 2.002 . S
O248 C249 1.295 . S
C249 O248 1.295 . S
C249 O251 1.235 . S
C250 O255 1.287 . S
C250 O256 1.255 . S
O251 Fe243 1.997 . S
O251 C249 1.235 . S
C252 O258 1.287 1_565 S
C252 O259 1.255 . S
O253 Fe242 1.976 . S
O253 C260 1.287 . S
O254 Fe243 1.996 . S
O254 C260 1.255 . S
O255 Fe245 1.976 . S
O255 C250 1.287 . S
O256 Fe242 1.996 . S
O256 C250 1.255 . S
C257 O261 1.295 . S
C257 O262 1.235 . S
O258 Fe243 1.976 . S
O258 C252 1.287 1_545 S
O259 Fe245 1.996 1_565 S
O259 C252 1.255 . S
C260 O253 1.287 . S
C260 O254 1.255 . S
O261 Fe243 2.002 . S
O261 C257 1.295 . S
O262 Fe245 1.997 . S
O262 C257 1.235 . S
C263 O246 1.295 . S
C263 O247 1.235 . S
Fe264 O266 1.918 . S
Fe264 O269 1.997 . S
Fe264 O270 2.002 . S
Fe264 O275 1.976 . S
Fe264 O278 1.996 . S
Fe265 O266 1.918 . S
Fe265 O273 1.997 . S
Fe265 O276 1.996 . S
Fe265 O280 1.976 . S
Fe265 O283 2.002 . S
O266 Fe264 1.918 . S
O266 Fe265 1.918 . S
O266 Fe267 1.918 . S
Fe267 O266 1.918 . S
Fe267 O268 2.002 . S
Fe267 O277 1.976 . S
Fe267 O281 1.996 . S
Fe267 O284 1.997 . S
O268 Fe267 2.002 . S
O268 C285 1.295 . S
O269 Fe264 1.997 . S
O269 C285 1.235 . S
O270 Fe264 2.002 . S
O270 C271 1.295 . S
C271 O270 1.295 . S
C271 O273 1.235 . S
C272 O277 1.287 . S
C272 O278 1.255 . S
O273 Fe265 1.997 . S
O273 C271 1.235 . S
C274 O280 1.287 . S
C274 O281 1.255 . S
O275 Fe264 1.976 . S
O275 C282 1.287 . S
O276 Fe265 1.996 . S
O276 C282 1.255 . S
O277 Fe267 1.976 . S
O277 C272 1.287 . S
O278 Fe264 1.996 . S
O278 C272 1.255 . S
C279 O283 1.295 . S
C279 O284 1.235 . S
O280 Fe265 1.976 . S
O280 C274 1.287 . S
O281 Fe267 1.996 . S
O281 C274 1.255 . S
C282 O275 1.287 . S
C282 O276 1.255 . S
O283 Fe265 2.002 . S
O283 C279 1.295 . S
O284 Fe267 1.997 . S
O284 C279 1.235 . S
C285 O268 1.295 . S
C285 O269 1.235 . S
Fe286 O288 1.918 . S
Fe286 O291 1.997 . S
Fe286 O292 2.002 . S
Fe286 O297 1.976 . S
Fe286 O300 1.996 . S
Fe287 O288 1.918 . S
Fe287 O295 1.997 . S
Fe287 O298 1.996 . S
Fe287 O302 1.976 . S
Fe287 O305 2.002 . S
O288 Fe286 1.918 . S
O288 Fe287 1.918 . S
O288 Fe289 1.918 . S
Fe289 O288 1.918 . S
Fe289 O290 2.002 . S
Fe289 O299 1.976 . S
Fe289 O303 1.996 . S
Fe289 O306 1.997 . S
O290 Fe289 2.002 . S
O290 C307 1.295 . S
O291 Fe286 1.997 . S
O291 C307 1.235 . S
O292 Fe286 2.002 . S
O292 C293 1.295 . S
C293 O292 1.295 . S
C293 O295 1.235 . S
C294 O299 1.287 . S
C294 O300 1.255 . S
O295 Fe287 1.997 . S
O295 C293 1.235 . S
C296 O302 1.287 . S
C296 O303 1.255 . S
O297 Fe286 1.976 . S
O297 C304 1.287 . S
O298 Fe287 1.996 . S
O298 C304 1.255 . S
O299 Fe289 1.976 . S
O299 C294 1.287 . S
O300 Fe286 1.996 . S
O300 C294 1.255 . S
C301 O305 1.295 . S
C301 O306 1.235 . S
O302 Fe287 1.976 . S
O302 C296 1.287 . S
O303 Fe289 1.996 . S
O303 C296 1.255 . S
C304 O297 1.287 . S
C304 O298 1.255 . S
O305 Fe287 2.002 . S
O305 C301 1.295 . S
O306 Fe289 1.997 . S
O306 C301 1.235 . S
C307 O290 1.295 . S
C307 O291 1.235 . S
Fe308 O310 1.918 . S
Fe308 O313 1.997 . S
Fe308 O314 2.002 . S
Fe308 O319 1.976 . S
Fe308 O322 1.996 1_455 S
Fe309 O310 1.918 . S
Fe309 O317 1.997 . S
Fe309 O320 1.996 . S
Fe309 O324 1.976 . S
Fe309 O327 2.002 . S
O310 Fe308 1.918 . S
O310 Fe309 1.918 . S
O310 Fe311 1.918 . S
Fe311 O310 1.918 . S
Fe311 O312 2.002 . S
Fe311 O321 1.976 . S
Fe311 O325 1.996 . S
Fe311 O328 1.997 . S
O312 Fe311 2.002 . S
O312 C329 1.295 . S
O313 Fe308 1.997 . S
O313 C329 1.235 . S
O314 Fe308 2.002 . S
O314 C315 1.295 . S
C315 O314 1.295 . S
C315 O317 1.235 . S
C316 O321 1.287 1_655 S
C316 O322 1.255 . S
O317 Fe309 1.997 . S
O317 C315 1.235 . S
C318 O324 1.287 . S
C318 O325 1.255 . S
O319 Fe308 1.976 . S
O319 C326 1.287 . S
O320 Fe309 1.996 . S
O320 C326 1.255 . S
O321 Fe311 1.976 . S
O321 C316 1.287 1_455 S
O322 Fe308 1.996 1_655 S
O322 C316 1.255 . S
C323 O327 1.295 . S
C323 O328 1.235 . S
O324 Fe309 1.976 . S
O324 C318 1.287 . S
O325 Fe311 1.996 . S
O325 C318 1.255 . S
C326 O319 1.287 . S
C326 O320 1.255 . S
O327 Fe309 2.002 . S
O327 C323 1.295 . S
O328 Fe311 1.997 . S
O328 C323 1.235 . S
C329 O312 1.295 . S
C329 O313 1.235 . S
Fe330 O332 1.918 . S
Fe330 O335 1.997 . S
Fe330 O336 2.002 . S
Fe330 O341 1.976 . S
Fe330 O344 1.996 . S
Fe331 O332 1.918 . S
Fe331 O339 1.997 . S
Fe331 O342 1.996 1_545 S
Fe331 O346 1.976 . S
Fe331 O349 2.002 . S
O332 Fe330 1.918 . S
O332 Fe331 1.918 . S
O332 Fe333 1.918 . S
Fe333 O332 1.918 . S
Fe333 O334 2.002 . S
Fe333 O343 1.976 . S
Fe333 O347 1.996 . S
Fe333 O350 1.997 . S
O334 Fe333 2.002 . S
O334 C351 1.295 . S
O335 Fe330 1.997 . S
O335 C351 1.235 . S
O336 Fe330 2.002 . S
O336 C337 1.295 . S
C337 O336 1.295 . S
C337 O339 1.235 . S
C338 O343 1.287 . S
C338 O344 1.255 . S
O339 Fe331 1.997 . S
O339 C337 1.235 . S
C340 O346 1.287 . S
C340 O347 1.255 . S
O341 Fe330 1.976 . S
O341 C348 1.287 1_545 S
O342 Fe331 1.996 1_565 S
O342 C348 1.255 . S
O343 Fe333 1.976 . S
O343 C338 1.287 . S
O344 Fe330 1.996 . S
O344 C338 1.255 . S
C345 O349 1.295 . S
C345 O350 1.235 . S
O346 Fe331 1.976 . S
O346 C340 1.287 . S
O347 Fe333 1.996 . S
O347 C340 1.255 . S
C348 O341 1.287 1_565 S
C348 O342 1.255 . S
O349 Fe331 2.002 . S
O349 C345 1.295 . S
O350 Fe333 1.997 . S
O350 C345 1.235 . S
C351 O334 1.295 . S
C351 O335 1.235 . S
C352 C353 1.369 . S
C352 C354 1.419 . S
C352 H356 0.930 . S
C353 C352 1.369 . S
C353 C362 1.429 . S
C354 C352 1.419 . S
C354 C355 1.363 . S
C354 H357 0.929 . S
C355 C354 1.363 . S
C355 C361 1.428 . S
H356 C352 0.930 . S
H357 C354 0.929 . S
S358 N359 1.613 . S
S358 N360 1.610 . S
N359 S358 1.613 . S
N359 C362 1.350 . S
N360 S358 1.610 . S
N360 C361 1.351 . S
C361 C355 1.428 . S
C361 N360 1.351 . S
C361 C362 1.434 . S
C362 C353 1.429 . S
C362 N359 1.350 . S
C362 C361 1.434 . S
C363 C364 1.369 . S
C363 C365 1.419 . S
C363 H367 0.930 . S
C364 C363 1.369 . S
C364 C373 1.429 . S
C365 C363 1.419 . S
C365 C366 1.363 . S
C365 H368 0.929 . S
C366 C365 1.363 . S
C366 C372 1.428 . S
H367 C363 0.930 . S
H368 C365 0.929 . S
S369 N370 1.613 . S
S369 N371 1.610 . S
N370 S369 1.613 . S
N370 C373 1.350 . S
N371 S369 1.610 . S
N371 C372 1.351 . S
C372 C366 1.428 . S
C372 N371 1.351 . S
C372 C373 1.434 . S
C373 C364 1.429 . S
C373 N370 1.350 . S
C373 C372 1.434 . S
C374 C375 1.369 . S
C374 C376 1.419 . S
C374 H378 0.930 . S
C375 C374 1.369 . S
C375 C384 1.429 . S
C376 C374 1.419 . S
C376 C377 1.363 . S
C376 H379 0.929 . S
C377 C376 1.363 . S
C377 C383 1.428 . S
H378 C374 0.930 . S
H379 C376 0.929 . S
S380 N381 1.613 . S
S380 N382 1.610 . S
N381 S380 1.613 . S
N381 C384 1.350 . S
N382 S380 1.610 . S
N382 C383 1.351 . S
C383 C377 1.428 . S
C383 N382 1.351 . S
C383 C384 1.434 . S
C384 C375 1.429 . S
C384 N381 1.350 . S
C384 C383 1.434 . S
C385 C386 1.369 . S
C385 C387 1.419 . S
C385 H389 0.930 . S
C386 C385 1.369 . S
C386 C395 1.429 . S
C387 C385 1.419 . S
C387 C388 1.363 . S
C387 H390 0.929 . S
C388 C387 1.363 . S
C388 C394 1.428 . S
H389 C385 0.930 . S
H390 C387 0.929 . S
S391 N392 1.613 . S
S391 N393 1.610 . S
N392 S391 1.613 . S
N392 C395 1.350 . S
N393 S391 1.610 . S
N393 C394 1.351 . S
C394 C388 1.428 . S
C394 N393 1.351 . S
C394 C395 1.434 . S
C395 C386 1.429 . S
C395 N392 1.350 . S
C395 C394 1.434 . S
C396 C397 1.369 . S
C396 C398 1.419 . S
C396 H400 0.930 . S
C397 C396 1.369 . S
C397 C406 1.429 . S
C398 C396 1.419 . S
C398 C399 1.363 . S
C398 H401 0.929 . S
C399 C398 1.363 . S
C399 C405 1.428 . S
H400 C396 0.930 . S
H401 C398 0.929 . S
S402 N403 1.613 . S
S402 N404 1.610 . S
N403 S402 1.613 . S
N403 C406 1.350 . S
N404 S402 1.610 . S
N404 C405 1.351 . S
C405 C399 1.428 . S
C405 N404 1.351 . S
C405 C406 1.434 . S
C406 C397 1.429 . S
C406 N403 1.350 . S
C406 C405 1.434 . S
C407 C408 1.369 . S
C407 C409 1.419 . S
C407 H411 0.930 . S
C408 C407 1.369 . S
C408 C417 1.429 . S
C409 C407 1.419 . S
C409 C410 1.363 . S
C409 H412 0.929 . S
C410 C409 1.363 . S
C410 C416 1.428 . S
H411 C407 0.930 . S
H412 C409 0.929 . S
S413 N414 1.613 . S
S413 N415 1.610 . S
N414 S413 1.613 . S
N414 C417 1.350 . S
N415 S413 1.610 . S
N415 C416 1.351 . S
C416 C410 1.428 . S
C416 N415 1.351 . S
C416 C417 1.434 . S
C417 C408 1.429 . S
C417 N414 1.350 . S
C417 C416 1.434 . S
C418 C419 1.369 . S
C418 C420 1.419 . S
C418 H422 0.930 . S
C419 C418 1.369 . S
C419 C428 1.429 . S
C420 C418 1.419 . S
C420 C421 1.363 . S
C420 H423 0.929 . S
C421 C420 1.363 . S
C421 C427 1.428 . S
H422 C418 0.930 . S
H423 C420 0.929 . S
S424 N425 1.613 . S
S424 N426 1.610 . S
N425 S424 1.613 . S
N425 C428 1.350 . S
N426 S424 1.610 . S
N426 C427 1.351 . S
C427 C421 1.428 . S
C427 N426 1.351 . S
C427 C428 1.434 . S
C428 C419 1.429 . S
C428 N425 1.350 . S
C428 C427 1.434 . S
C429 C430 1.369 . S
C429 C431 1.419 . S
C429 H433 0.930 . S
C430 C429 1.369 . S
C430 C439 1.429 . S
C431 C429 1.419 . S
C431 C432 1.363 . S
C431 H434 0.929 . S
C432 C431 1.363 . S
C432 C438 1.428 . S
H433 C429 0.930 . S
H434 C431 0.929 . S
S435 N436 1.613 . S
S435 N437 1.610 . S
N436 S435 1.613 . S
N436 C439 1.350 . S
N437 S435 1.610 . S
N437 C438 1.351 . S
C438 C432 1.428 . S
C438 N437 1.351 . S
C438 C439 1.434 . S
C439 C430 1.429 . S
C439 N436 1.350 . S
C439 C438 1.434 . S
C440 C441 1.369 . S
C440 C442 1.419 . S
C440 H444 0.930 . S
C441 C440 1.369 . S
C441 C450 1.429 . S
C442 C440 1.419 . S
C442 C443 1.363 . S
C442 H445 0.929 . S
C443 C442 1.363 . S
C443 C449 1.428 . S
H444 C440 0.930 . S
H445 C442 0.929 . S
S446 N447 1.613 . S
S446 N448 1.610 . S
N447 S446 1.613 . S
N447 C450 1.350 . S
N448 S446 1.610 . S
N448 C449 1.351 . S
C449 C443 1.428 . S
C449 N448 1.351 . S
C449 C450 1.434 . S
C450 C441 1.429 . S
C450 N447 1.350 . S
C450 C449 1.434 . S
C451 C452 1.369 . S
C451 C453 1.419 . S
C451 H455 0.930 . S
C452 C451 1.369 . S
C452 C461 1.429 . S
C453 C451 1.419 . S
C453 C454 1.363 . S
C453 H456 0.929 . S
C454 C453 1.363 . S
C454 C460 1.428 . S
H455 C451 0.930 . S
H456 C453 0.929 . S
S457 N458 1.613 . S
S457 N459 1.610 . S
N458 S457 1.613 . S
N458 C461 1.350 . S
N459 S457 1.610 . S
N459 C460 1.351 . S
C460 C454 1.428 . S
C460 N459 1.351 . S
C460 C461 1.434 . S
C461 C452 1.429 . S
C461 N458 1.350 . S
C461 C460 1.434 . S
C462 C463 1.369 . S
C462 C464 1.419 . S
C462 H466 0.930 . S
C463 C462 1.369 . S
C463 C472 1.429 . S
C464 C462 1.419 . S
C464 C465 1.363 . S
C464 H467 0.929 . S
C465 C464 1.363 . S
C465 C471 1.428 . S
H466 C462 0.930 . S
H467 C464 0.929 . S
S468 N469 1.613 . S
S468 N470 1.610 . S
N469 S468 1.613 . S
N469 C472 1.350 . S
N470 S468 1.610 . S
N470 C471 1.351 . S
C471 C465 1.428 . S
C471 N470 1.351 . S
C471 C472 1.434 . S
C472 C463 1.429 . S
C472 N469 1.350 . S
C472 C471 1.434 . S
C473 C474 1.369 . S
C473 C475 1.419 . S
C473 H477 0.930 . S
C474 C473 1.369 . S
C474 C483 1.429 . S
C475 C473 1.419 . S
C475 C476 1.363 . S
C475 H478 0.929 . S
C476 C475 1.363 . S
C476 C482 1.428 . S
H477 C473 0.930 . S
H478 C475 0.929 . S
S479 N480 1.613 . S
S479 N481 1.610 . S
N480 S479 1.613 . S
N480 C483 1.350 . S
N481 S479 1.610 . S
N481 C482 1.351 . S
C482 C476 1.428 . S
C482 N481 1.351 . S
C482 C483 1.434 . S
C483 C474 1.429 . S
C483 N480 1.350 . S
C483 C482 1.434 . S
C484 C485 1.369 . S
C484 C486 1.419 . S
C484 H488 0.930 . S
C485 C484 1.369 . S
C485 C494 1.429 . S
C486 C484 1.419 . S
C486 C487 1.363 . S
C486 H489 0.929 . S
C487 C486 1.363 . S
C487 C493 1.428 . S
H488 C484 0.930 . S
H489 C486 0.929 . S
S490 N491 1.613 . S
S490 N492 1.610 . S
N491 S490 1.613 . S
N491 C494 1.350 . S
N492 S490 1.610 . S
N492 C493 1.351 . S
C493 C487 1.428 . S
C493 N492 1.351 . S
C493 C494 1.434 . S
C494 C485 1.429 . S
C494 N491 1.350 . S
C494 C493 1.434 . S
C495 C496 1.369 . S
C495 C497 1.419 . S
C495 H499 0.930 . S
C496 C495 1.369 . S
C496 C505 1.429 . S
C497 C495 1.419 . S
C497 C498 1.363 . S
C497 H500 0.929 . S
C498 C497 1.363 . S
C498 C504 1.428 . S
H499 C495 0.930 . S
H500 C497 0.929 . S
S501 N502 1.613 . S
S501 N503 1.610 . S
N502 S501 1.613 . S
N502 C505 1.350 . S
N503 S501 1.610 . S
N503 C504 1.351 . S
C504 C498 1.428 . S
C504 N503 1.351 . S
C504 C505 1.434 . S
C505 C496 1.429 . S
C505 N502 1.350 . S
C505 C504 1.434 . S
C506 C507 1.369 . S
C506 C508 1.419 . S
C506 H510 0.930 . S
C507 C506 1.369 . S
C507 C516 1.429 . S
C508 C506 1.419 . S
C508 C509 1.363 . S
C508 H511 0.929 . S
C509 C508 1.363 . S
C509 C515 1.428 . S
H510 C506 0.930 . S
H511 C508 0.929 . S
S512 N513 1.613 . S
S512 N514 1.610 . S
N513 S512 1.613 . S
N513 C516 1.350 . S
N514 S512 1.610 . S
N514 C515 1.351 . S
C515 C509 1.428 . S
C515 N514 1.351 . S
C515 C516 1.434 . S
C516 C507 1.429 . S
C516 N513 1.350 . S
C516 C515 1.434 . S
C517 C518 1.369 . S
C517 C519 1.419 . S
C517 H521 0.930 . S
C518 C517 1.369 . S
C518 C527 1.429 . S
C519 C517 1.419 . S
C519 C520 1.363 . S
C519 H522 0.929 . S
C520 C519 1.363 . S
C520 C526 1.428 . S
H521 C517 0.930 . S
H522 C519 0.929 . S
S523 N524 1.613 . S
S523 N525 1.610 . S
N524 S523 1.613 . S
N524 C527 1.350 . S
N525 S523 1.610 . S
N525 C526 1.351 . S
C526 C520 1.428 . S
C526 N525 1.351 . S
C526 C527 1.434 . S
C527 C518 1.429 . S
C527 N524 1.350 . S
C527 C526 1.434 . S
C528 C529 1.369 1_556 S
C528 C530 1.419 . S
C528 H532 0.930 . S
C529 C528 1.369 1_554 S
C529 C538 1.429 . S
C530 C528 1.419 . S
C530 C531 1.363 . S
C530 H533 0.929 . S
C531 C530 1.363 . S
C531 C537 1.428 . S
H532 C528 0.930 . S
H533 C530 0.929 . S
S534 N535 1.613 . S
S534 N536 1.610 1_554 S
N535 S534 1.613 . S
N535 C538 1.350 . S
N536 S534 1.610 1_556 S
N536 C537 1.351 . S
C537 C531 1.428 . S
C537 N536 1.351 . S
C537 C538 1.434 1_556 S
C538 C529 1.429 . S
C538 N535 1.350 . S
C538 C537 1.434 1_554 S
C539 C540 1.369 . S
C539 C541 1.419 . S
C539 H543 0.930 . S
C540 C539 1.369 . S
C540 C549 1.429 . S
C541 C539 1.419 . S
C541 C542 1.363 . S
C541 H544 0.929 . S
C542 C541 1.363 . S
C542 C548 1.428 . S
H543 C539 0.930 . S
H544 C541 0.929 . S
S545 N546 1.613 . S
S545 N547 1.610 . S
N546 S545 1.613 . S
N546 C549 1.350 . S
N547 S545 1.610 . S
N547 C548 1.351 . S
C548 C542 1.428 . S
C548 N547 1.351 . S
C548 C549 1.434 . S
C549 C540 1.429 . S
C549 N546 1.350 . S
C549 C548 1.434 . S
C550 C551 1.369 1_556 S
C550 C552 1.419 . S
C550 H554 0.930 . S
C551 C550 1.369 1_554 S
C551 C560 1.429 . S
C552 C550 1.419 . S
C552 C553 1.363 . S
C552 H555 0.929 . S
C553 C552 1.363 . S
C553 C559 1.428 . S
H554 C550 0.930 . S
H555 C552 0.929 . S
S556 N557 1.613 . S
S556 N558 1.610 1_554 S
N557 S556 1.613 . S
N557 C560 1.350 . S
N558 S556 1.610 1_556 S
N558 C559 1.351 . S
C559 C553 1.428 . S
C559 N558 1.351 . S
C559 C560 1.434 1_556 S
C560 C551 1.429 . S
C560 N557 1.350 . S
C560 C559 1.434 1_554 S
C561 C562 1.369 . S
C561 C563 1.419 . S
C561 H565 0.930 . S
C562 C561 1.369 . S
C562 C571 1.429 . S
C563 C561 1.419 . S
C563 C564 1.363 . S
C563 H566 0.929 . S
C564 C563 1.363 . S
C564 C570 1.428 . S
H565 C561 0.930 . S
H566 C563 0.929 . S
S567 N568 1.613 1_655 S
S567 N569 1.610 1_655 S
N568 S567 1.613 1_455 S
N568 C571 1.350 . S
N569 S567 1.610 1_455 S
N569 C570 1.351 . S
C570 C564 1.428 . S
C570 N569 1.351 . S
C570 C571 1.434 . S
C571 C562 1.429 . S
C571 N568 1.350 . S
C571 C570 1.434 . S
C572 C573 1.369 1_554 S
C572 C574 1.419 . S
C572 H576 0.930 1_554 S
C573 C572 1.369 1_556 S
C573 C582 1.429 1_556 S
C574 C572 1.419 . S
C574 C575 1.363 . S
C574 H577 0.929 . S
C575 C574 1.363 . S
C575 C581 1.428 . S
H576 C572 0.930 1_556 S
H577 C574 0.929 . S
S578 N579 1.613 . S
S578 N580 1.610 . S
N579 S578 1.613 . S
N579 C582 1.350 . S
N580 S578 1.610 . S
N580 C581 1.351 . S
C581 C575 1.428 . S
C581 N580 1.351 . S
C581 C582 1.434 . S
C582 C573 1.429 1_554 S
C582 N579 1.350 . S
C582 C581 1.434 . S
C583 C584 1.369 . S
C583 C585 1.419 . S
C583 H587 0.930 . S
C584 C583 1.369 . S
C584 C593 1.429 . S
C585 C583 1.419 . S
C585 C586 1.363 . S
C585 H588 0.929 . S
C586 C585 1.363 . S
C586 C592 1.428 . S
H587 C583 0.930 . S
H588 C585 0.929 . S
S589 N590 1.613 . S
S589 N591 1.610 . S
N590 S589 1.613 . S
N590 C593 1.350 . S
N591 S589 1.610 . S
N591 C592 1.351 . S
C592 C586 1.428 . S
C592 N591 1.351 . S
C592 C593 1.434 . S
C593 C584 1.429 . S
C593 N590 1.350 . S
C593 C592 1.434 . S
C594 C595 1.369 1_554 S
C594 C596 1.419 . S
C594 H598 0.930 1_554 S
C595 C594 1.369 1_556 S
C595 C604 1.429 1_556 S
C596 C594 1.419 . S
C596 C597 1.363 . S
C596 H599 0.929 . S
C597 C596 1.363 . S
C597 C603 1.428 . S
H598 C594 0.930 1_556 S
H599 C596 0.929 . S
S600 N601 1.613 . S
S600 N602 1.610 . S
N601 S600 1.613 . S
N601 C604 1.350 . S
N602 S600 1.610 . S
N602 C603 1.351 . S
C603 C597 1.428 . S
C603 N602 1.351 . S
C603 C604 1.434 . S
C604 C595 1.429 1_554 S
C604 N601 1.350 . S
C604 C603 1.434 . S
C605 C606 1.369 . S
C605 C607 1.419 . S
C605 H609 0.930 . S
C606 C605 1.369 . S
C606 C615 1.429 . S
C607 C605 1.419 . S
C607 C608 1.363 . S
C607 H610 0.929 . S
C608 C607 1.363 . S
C608 C614 1.428 . S
H609 C605 0.930 . S
H610 C607 0.929 . S
S611 N612 1.613 . S
S611 N613 1.610 . S
N612 S611 1.613 . S
N612 C615 1.350 . S
N613 S611 1.610 . S
N613 C614 1.351 . S
C614 C608 1.428 . S
C614 N613 1.351 . S
C614 C615 1.434 . S
C615 C606 1.429 . S
C615 N612 1.350 . S
C615 C614 1.434 . S
C616 C617 1.369 1_554 S
C616 C618 1.419 . S
C616 H620 0.930 1_554 S
C617 C616 1.369 1_556 S
C617 C626 1.429 1_556 S
C618 C616 1.419 . S
C618 C619 1.363 . S
C618 H621 0.929 . S
C619 C618 1.363 . S
C619 C625 1.428 . S
H620 C616 0.930 1_556 S
H621 C618 0.929 . S
S622 N623 1.613 . S
S622 N624 1.610 . S
N623 S622 1.613 . S
N623 C626 1.350 . S
N624 S622 1.610 . S
N624 C625 1.351 . S
C625 C619 1.428 . S
C625 N624 1.351 . S
C625 C626 1.434 . S
C626 C617 1.429 1_554 S
C626 N623 1.350 . S
C626 C625 1.434 . S
C627 C628 1.369 . S
C627 C629 1.419 . S
C627 H631 0.930 . S
C628 C627 1.369 . S
C628 C637 1.429 . S
C629 C627 1.419 . S
C629 C630 1.363 . S
C629 H632 0.929 . S
C630 C629 1.363 . S
C630 C636 1.428 . S
H631 C627 0.930 . S
H632 C629 0.929 . S
S633 N634 1.613 . S
S633 N635 1.610 . S
N634 S633 1.613 . S
N634 C637 1.350 . S
N635 S633 1.610 . S
N635 C636 1.351 . S
C636 C630 1.428 . S
C636 N635 1.351 . S
C636 C637 1.434 . S
C637 C628 1.429 . S
C637 N634 1.350 . S
C637 C636 1.434 . S
C638 C639 1.369 1_554 S
C638 C640 1.419 . S
C638 H642 0.930 . S
C639 C638 1.369 1_556 S
C639 C648 1.429 . S
C640 C638 1.419 . S
C640 C641 1.363 . S
C640 H643 0.929 . S
C641 C640 1.363 . S
C641 C647 1.428 . S
H642 C638 0.930 . S
H643 C640 0.929 . S
S644 N645 1.613 . S
S644 N646 1.610 1_556 S
N645 S644 1.613 . S
N645 C648 1.350 . S
N646 S644 1.610 1_554 S
N646 C647 1.351 . S
C647 C641 1.428 . S
C647 N646 1.351 . S
C647 C648 1.434 1_554 S
C648 C639 1.429 . S
C648 N645 1.350 . S
C648 C647 1.434 1_556 S
C649 C650 1.369 . S
C649 C651 1.419 . S
C649 H653 0.930 . S
C650 C649 1.369 . S
C650 C659 1.429 . S
C651 C649 1.419 . S
C651 C652 1.363 . S
C651 H654 0.929 . S
C652 C651 1.363 . S
C652 C658 1.428 . S
H653 C649 0.930 . S
H654 C651 0.929 . S
S655 N656 1.613 . S
S655 N657 1.610 . S
N656 S655 1.613 . S
N656 C659 1.350 . S
N657 S655 1.610 . S
N657 C658 1.351 . S
C658 C652 1.428 . S
C658 N657 1.351 . S
C658 C659 1.434 . S
C659 C650 1.429 . S
C659 N656 1.350 . S
C659 C658 1.434 . S
C660 C661 1.369 . S
C660 C662 1.419 . S
C660 H664 0.930 . S
C661 C660 1.369 . S
C661 C670 1.429 . S
C662 C660 1.419 . S
C662 C663 1.363 1_556 S
C662 H665 0.929 1_556 S
C663 C662 1.363 1_554 S
C663 C669 1.428 1_554 S
H664 C660 0.930 . S
H665 C662 0.929 1_554 S
S666 N667 1.613 . S
S666 N668 1.610 . S
N667 S666 1.613 . S
N667 C670 1.350 . S
N668 S666 1.610 . S
N668 C669 1.351 . S
C669 C663 1.428 1_556 S
C669 N668 1.351 . S
C669 C670 1.434 . S
C670 C661 1.429 . S
C670 N667 1.350 . S
C670 C669 1.434 . S
C671 C672 1.369 . S
C671 C673 1.419 . S
C671 H675 0.930 . S
C672 C671 1.369 . S
C672 C681 1.429 . S
C673 C671 1.419 . S
C673 C674 1.363 . S
C673 H676 0.929 . S
C674 C673 1.363 . S
C674 C680 1.428 . S
H675 C671 0.930 . S
H676 C673 0.929 . S
S677 N678 1.613 . S
S677 N679 1.610 . S
N678 S677 1.613 . S
N678 C681 1.350 . S
N679 S677 1.610 . S
N679 C680 1.351 . S
C680 C674 1.428 . S
C680 N679 1.351 . S
C680 C681 1.434 . S
C681 C672 1.429 . S
C681 N678 1.350 . S
C681 C680 1.434 . S
C682 C683 1.369 . S
C682 C684 1.419 . S
C682 H686 0.930 . S
C683 C682 1.369 . S
C683 C692 1.429 . S
C684 C682 1.419 . S
C684 C685 1.363 1_556 S
C684 H687 0.929 1_556 S
C685 C684 1.363 1_554 S
C685 C691 1.428 1_554 S
H686 C682 0.930 . S
H687 C684 0.929 1_554 S
S688 N689 1.613 . S
S688 N690 1.610 . S
N689 S688 1.613 . S
N689 C692 1.350 . S
N690 S688 1.610 . S
N690 C691 1.351 . S
C691 C685 1.428 1_556 S
C691 N690 1.351 . S
C691 C692 1.434 . S
C692 C683 1.429 . S
C692 N689 1.350 . S
C692 C691 1.434 . S
C693 C694 1.369 . S
C693 C695 1.419 . S
C693 H697 0.930 . S
C694 C693 1.369 . S
C694 C703 1.429 . S
C695 C693 1.419 . S
C695 C696 1.363 . S
C695 H698 0.929 . S
C696 C695 1.363 . S
C696 C702 1.428 . S
H697 C693 0.930 . S
H698 C695 0.929 . S
S699 N700 1.613 . S
S699 N701 1.610 . S
N700 S699 1.613 . S
N700 C703 1.350 . S
N701 S699 1.610 . S
N701 C702 1.351 . S
C702 C696 1.428 . S
C702 N701 1.351 . S
C702 C703 1.434 . S
C703 C694 1.429 . S
C703 N700 1.350 . S
C703 C702 1.434 . S
C704 C705 1.369 . S
C704 C706 1.419 . S
C704 H708 0.930 . S
C705 C704 1.369 . S
C705 C714 1.429 . S
C706 C704 1.419 . S
C706 C707 1.363 . S
C706 H709 0.929 . S
C707 C706 1.363 . S
C707 C713 1.428 . S
H708 C704 0.930 . S
H709 C706 0.929 . S
S710 N711 1.613 . S
S710 N712 1.610 . S
N711 S710 1.613 . S
N711 C714 1.350 . S
N712 S710 1.610 . S
N712 C713 1.351 . S
C713 C707 1.428 . S
C713 N712 1.351 . S
C713 C714 1.434 . S
C714 C705 1.429 . S
C714 N711 1.350 . S
C714 C713 1.434 . S
C715 C716 1.369 . S
C715 C717 1.419 . S
C715 H719 0.930 . S
C716 C715 1.369 . S
C716 C725 1.429 . S
C717 C715 1.419 . S
C717 C718 1.363 . S
C717 H720 0.929 . S
C718 C717 1.363 . S
C718 C724 1.428 . S
H719 C715 0.930 . S
H720 C717 0.929 . S
S721 N722 1.613 . S
S721 N723 1.610 . S
N722 S721 1.613 . S
N722 C725 1.350 . S
N723 S721 1.610 . S
N723 C724 1.351 . S
C724 C718 1.428 . S
C724 N723 1.351 . S
C724 C725 1.434 . S
C725 C716 1.429 . S
C725 N722 1.350 . S
C725 C724 1.434 . S
C726 C727 1.369 . S
C726 C728 1.419 . S
C726 H730 0.930 . S
C727 C726 1.369 . S
C727 C736 1.429 . S
C728 C726 1.419 . S
C728 C729 1.363 . S
C728 H731 0.929 . S
C729 C728 1.363 . S
C729 C735 1.428 . S
H730 C726 0.930 . S
H731 C728 0.929 . S
S732 N733 1.613 . S
S732 N734 1.610 . S
N733 S732 1.613 . S
N733 C736 1.350 . S
N734 S732 1.610 . S
N734 C735 1.351 . S
C735 C729 1.428 . S
C735 N734 1.351 . S
C735 C736 1.434 . S
C736 C727 1.429 . S
C736 N733 1.350 . S
C736 C735 1.434 . S
C737 C738 1.369 . S
C737 C739 1.419 . S
C737 H741 0.930 . S
C738 C737 1.369 . S
C738 C747 1.429 . S
C739 C737 1.419 . S
C739 C740 1.363 . S
C739 H742 0.929 . S
C740 C739 1.363 . S
C740 C746 1.428 . S
H741 C737 0.930 . S
H742 C739 0.929 . S
S743 N744 1.613 . S
S743 N745 1.610 . S
N744 S743 1.613 . S
N744 C747 1.350 . S
N745 S743 1.610 . S
N745 C746 1.351 . S
C746 C740 1.428 . S
C746 N745 1.351 . S
C746 C747 1.434 . S
C747 C738 1.429 . S
C747 N744 1.350 . S
C747 C746 1.434 . S
C748 C749 1.369 . S
C748 C750 1.419 . S
C748 H752 0.930 . S
C749 C748 1.369 . S
C749 C758 1.429 . S
C750 C748 1.419 . S
C750 C751 1.363 . S
C750 H753 0.929 . S
C751 C750 1.363 . S
C751 C757 1.428 . S
H752 C748 0.930 . S
H753 C750 0.929 . S
S754 N755 1.614 . S
S754 N756 1.601 1_545 S
N755 S754 1.614 . S
N755 C758 1.350 1_545 S
N756 S754 1.601 1_565 S
N756 C757 1.351 . S
C757 C751 1.428 . S
C757 N756 1.351 . S
C757 C758 1.434 . S
C758 C749 1.429 . S
C758 N755 1.350 1_565 S
C758 C757 1.434 . S
C759 C760 1.369 . S
C759 C761 1.419 . S
C759 H763 0.930 . S
C760 C759 1.369 . S
C760 C769 1.429 . S
C761 C759 1.419 . S
C761 C762 1.363 . S
C761 H764 0.929 . S
C762 C761 1.363 . S
C762 C768 1.428 . S
H763 C759 0.930 . S
H764 C761 0.929 . S
S765 N766 1.613 . S
S765 N767 1.610 . S
N766 S765 1.613 . S
N766 C769 1.350 . S
N767 S765 1.610 . S
N767 C768 1.351 . S
C768 C762 1.428 . S
C768 N767 1.351 . S
C768 C769 1.434 . S
C769 C760 1.429 . S
C769 N766 1.350 . S
C769 C768 1.434 . S
C770 C771 1.369 . S
C770 C772 1.419 . S
C770 H774 0.930 . S
C771 C770 1.369 . S
C771 C780 1.429 . S
C772 C770 1.419 . S
C772 C773 1.363 . S
C772 H775 0.929 . S
C773 C772 1.363 . S
C773 C779 1.428 . S
H774 C770 0.930 . S
H775 C772 0.929 . S
S776 N777 1.613 . S
S776 N778 1.610 . S
N777 S776 1.613 . S
N777 C780 1.350 . S
N778 S776 1.610 . S
N778 C779 1.351 . S
C779 C773 1.428 . S
C779 N778 1.351 . S
C779 C780 1.434 . S
C780 C771 1.429 . S
C780 N777 1.350 . S
C780 C779 1.434 . S
C781 C782 1.369 . S
C781 C783 1.419 . S
C781 H785 0.930 . S
C782 C781 1.369 . S
C782 C791 1.429 . S
C783 C781 1.419 . S
C783 C784 1.363 . S
C783 H786 0.929 . S
C784 C783 1.363 . S
C784 C790 1.428 . S
H785 C781 0.930 . S
H786 C783 0.929 . S
S787 N788 1.613 . S
S787 N789 1.610 . S
N788 S787 1.613 . S
N788 C791 1.350 . S
N789 S787 1.610 . S
N789 C790 1.351 . S
C790 C784 1.428 . S
C790 N789 1.351 . S
C790 C791 1.434 . S
C791 C782 1.429 . S
C791 N788 1.350 . S
C791 C790 1.434 . S
C792 C793 1.369 . S
C792 C794 1.419 1_554 S
C792 H796 0.930 . S
C793 C792 1.369 . S
C793 C802 1.429 . S
C794 C792 1.419 1_556 S
C794 C795 1.363 . S
C794 H797 0.929 . S
C795 C794 1.363 . S
C795 C801 1.428 . S
H796 C792 0.930 . S
H797 C794 0.929 . S
S798 N799 1.613 1_556 S
S798 N800 1.610 . S
N799 S798 1.613 1_554 S
N799 C802 1.350 . S
N800 S798 1.610 . S
N800 C801 1.351 . S
C801 C795 1.428 . S
C801 N800 1.351 . S
C801 C802 1.434 1_556 S
C802 C793 1.429 . S
C802 N799 1.350 . S
C802 C801 1.434 1_554 S
C803 C804 1.369 . S
C803 C805 1.419 . S
C803 H807 0.930 . S
C804 C803 1.369 . S
C804 C813 1.429 . S
C805 C803 1.419 . S
C805 C806 1.363 . S
C805 H808 0.929 . S
C806 C805 1.363 . S
C806 C812 1.428 . S
H807 C803 0.930 . S
H808 C805 0.929 . S
S809 N810 1.613 . S
S809 N811 1.610 . S
N810 S809 1.613 . S
N810 C813 1.350 . S
N811 S809 1.610 . S
N811 C812 1.351 . S
C812 C806 1.428 . S
C812 N811 1.351 . S
C812 C813 1.434 . S
C813 C804 1.429 . S
C813 N810 1.350 . S
C813 C812 1.434 . S
C814 C815 1.369 . S
C814 C816 1.419 1_554 S
C814 H818 0.930 . S
C815 C814 1.369 . S
C815 C824 1.429 1_655 S
C816 C814 1.419 1_556 S
C816 C817 1.363 . S
C816 H819 0.929 . S
C817 C816 1.363 . S
C817 C823 1.428 1_655 S
H818 C814 0.930 . S
H819 C816 0.929 . S
S820 N821 1.613 1_556 S
S820 N822 1.610 . S
N821 S820 1.613 1_554 S
N821 C824 1.350 . S
N822 S820 1.610 . S
N822 C823 1.351 . S
C823 C817 1.428 1_455 S
C823 N822 1.351 . S
C823 C824 1.434 1_556 S
C824 C815 1.429 1_455 S
C824 N821 1.350 . S
C824 C823 1.434 1_554 S
C825 C826 1.369 1_545 S
C825 C827 1.419 . S
C825 H829 0.930 . S
C826 C825 1.369 1_565 S
C826 C835 1.429 . S
C827 C825 1.419 . S
C827 C828 1.363 1_545 S
C827 H830 0.929 . S
C828 C827 1.363 1_565 S
C828 C834 1.428 . S
H829 C825 0.930 . S
H830 C827 0.929 . S
S831 N832 1.613 . S
S831 N833 1.610 . S
N832 S831 1.613 . S
N832 C835 1.350 . S
N833 S831 1.610 . S
N833 C834 1.351 . S
C834 C828 1.428 . S
C834 N833 1.351 . S
C834 C835 1.434 . S
C835 C826 1.429 . S
C835 N832 1.350 . S
C835 C834 1.434 . S
C836 C837 1.369 . S
C836 C838 1.419 . S
C836 H840 0.930 . S
C837 C836 1.369 . S
C837 C846 1.429 1_554 S
C838 C836 1.419 . S
C838 C839 1.363 1_554 S
C838 H841 0.929 . S
C839 C838 1.363 1_556 S
C839 C845 1.428 . S
H840 C836 0.930 . S
H841 C838 0.929 . S
S842 N843 1.613 . S
S842 N844 1.610 . S
N843 S842 1.613 . S
N843 C846 1.350 . S
N844 S842 1.610 . S
N844 C845 1.351 . S
C845 C839 1.428 . S
C845 N844 1.351 . S
C845 C846 1.434 . S
C846 C837 1.429 1_556 S
C846 N843 1.350 . S
C846 C845 1.434 . S
C847 C848 1.369 . S
C847 C849 1.419 . S
C847 H851 0.930 . S
C848 C847 1.369 . S
C848 C857 1.429 . S
C849 C847 1.419 . S
C849 C850 1.363 . S
C849 H852 0.929 . S
C850 C849 1.363 . S
C850 C856 1.428 . S
H851 C847 0.930 . S
H852 C849 0.929 . S
S853 N854 1.613 . S
S853 N855 1.610 . S
N854 S853 1.613 . S
N854 C857 1.350 . S
N855 S853 1.610 . S
N855 C856 1.351 . S
C856 C850 1.428 . S
C856 N855 1.351 . S
C856 C857 1.434 . S
C857 C848 1.429 . S
C857 N854 1.350 . S
C857 C856 1.434 . S
C858 C859 1.369 1_655 S
C858 C860 1.419 1_556 S
C858 H862 0.930 . S
C859 C858 1.369 1_455 S
C859 C868 1.429 1_556 S
C860 C858 1.419 1_554 S
C860 C861 1.363 1_655 S
C860 H863 0.929 1_554 S
C861 C860 1.363 1_455 S
C861 C867 1.428 . S
H862 C858 0.930 . S
H863 C860 0.929 1_556 S
S864 N865 1.613 . S
S864 N866 1.610 . S
N865 S864 1.613 . S
N865 C868 1.350 . S
N866 S864 1.610 . S
N866 C867 1.351 . S
C867 C861 1.428 . S
C867 N866 1.351 . S
C867 C868 1.434 . S
C868 C859 1.429 1_554 S
C868 N865 1.350 . S
C868 C867 1.434 . S
C869 C870 1.369 1_565 S
C869 C871 1.419 . S
C869 H873 0.930 . S
C870 C869 1.369 1_545 S
C870 C879 1.429 . S
C871 C869 1.419 . S
C871 C872 1.363 1_565 S
C871 H874 0.929 . S
C872 C871 1.363 1_545 S
C872 C878 1.428 . S
H873 C869 0.930 . S
H874 C871 0.929 . S
S875 N876 1.613 . S
S875 N877 1.610 . S
N876 S875 1.613 . S
N876 C879 1.350 . S
N877 S875 1.610 . S
N877 C878 1.351 . S
C878 C872 1.428 . S
C878 N877 1.351 . S
C878 C879 1.434 . S
C879 C870 1.429 . S
C879 N876 1.350 . S
C879 C878 1.434 . S
C353 C21 1.383 . S
C355 C219 1.403 . S
C364 C43 1.383 . S
C366 C227 1.403 . S
C375 C249 1.400 . S
C377 C59 1.389 . S
C386 C197 1.400 . S
C388 C81 1.389 . S
C397 C95 1.389 . S
C399 C351 1.403 . S
C408 C285 1.403 . S
C410 C131 1.389 . S
C419 C307 1.401 . S
C421 C147 1.385 . S
C430 C323 1.400 . S
C432 C169 1.387 . S
C441 C37 1.396 . S
C443 C191 1.389 . S
C452 C213 1.388 . S
C454 C51 1.393 . S
C463 C73 1.396 . S
C465 C241 1.388 . S
C474 C15 1.398 . S
C476 C263 1.386 . S
C485 C161 1.393 . S
C487 C279 1.387 . S
C496 C109 1.393 . S
C498 C301 1.386 . S
C507 C315 1.390 . S
C509 C125 1.394 . S
C518 C139 1.394 . S
C520 C345 1.385 . S
C529 C10 1.440 . S
C531 C337 1.425 . S
C540 C32 1.439 . S
C542 C271 1.424 . S
C551 C62 1.442 . S
C553 C293 1.425 . S
C562 C329 1.424 . S
C564 C84 1.443 . S
C573 C96 1.440 . S
C575 C205 1.420 . S
C584 C120 1.443 . S
C586 C235 1.419 . S
C595 C150 1.444 . S
C597 C257 1.422 . S
C606 C183 1.426 . S
C608 C172 1.440 . S
C617 C184 1.450 . S
C619 C175 1.438 . S
C628 C206 1.450 . S
C630 C103 1.441 . S
C639 C238 1.453 . S
C641 C117 1.441 . S
C650 C260 1.450 . S
C652 C153 1.441 . S
C661 C29 1.436 . S
C663 C272 1.452 . S
C672 C65 1.436 . S
C674 C294 1.454 . S
C683 C87 1.437 . S
C685 C318 1.451 . S
C694 C338 1.455 . S
C696 C7 1.437 . S
C705 C162 1.352 . S
C707 C18 1.345 . S
C716 C98 1.349 . S
C718 C40 1.342 . S
C727 C52 1.342 . S
C729 C128 1.350 . S
C738 C74 1.346 . S
C740 C140 1.350 . S
C749 C348 1.352 . S
C751 C194 1.359 . S
C760 C216 1.352 . S
C762 C282 1.358 . S
C771 C304 1.362 . S
C773 C230 1.355 . S
C782 C252 1.352 . S
C784 C316 1.360 . S
C793 C8 1.467 . S
C795 C106 1.466 . S
C804 C118 1.467 . S
C806 C30 1.466 . S
C815 C54 1.466 . S
C817 C142 1.466 . S
C826 C164 1.461 . S
C828 C76 1.460 . S
C837 C274 1.435 . S
C839 C186 1.435 . S
C848 C296 1.435 . S
C850 C208 1.436 . S
C859 C228 1.431 . S
C861 C326 1.433 . S
C870 C250 1.427 . S
C872 C340 1.428 . S
