# Generated by pormake.
# Topology utj, (3)-cn, num edge types: 1
# Building blocks:
#     Node 0, Type 0, BuildingBlock: OLANEW_clean_sbu_2, # of connection points: 3
#     Node 1, Type 0, BuildingBlock: OLANEW_clean_sbu_2, # of connection points: 3
#     Node 2, Type 0, BuildingBlock: OLANEW_clean_sbu_2, # of connection points: 3
#     Node 3, Type 0, BuildingBlock: OLANEW_clean_sbu_2, # of connection points: 3
#     Node 4, Type 0, BuildingBlock: OLANEW_clean_sbu_2, # of connection points: 3
#     Node 5, Type 0, BuildingBlock: OLANEW_clean_sbu_2, # of connection points: 3
#     Node 6, Type 0, BuildingBlock: OLANEW_clean_sbu_2, # of connection points: 3
#     Node 7, Type 0, BuildingBlock: OLANEW_clean_sbu_2, # of connection points: 3
#     Node 8, Type 0, BuildingBlock: OLANEW_clean_sbu_2, # of connection points: 3
#     Node 9, Type 0, BuildingBlock: OLANEW_clean_sbu_2, # of connection points: 3
#     Node 10, Type 0, BuildingBlock: OLANEW_clean_sbu_2, # of connection points: 3
#     Node 11, Type 0, BuildingBlock: OLANEW_clean_sbu_2, # of connection points: 3
#     Node 12, Type 0, BuildingBlock: OLANEW_clean_sbu_2, # of connection points: 3
#     Node 13, Type 0, BuildingBlock: OLANEW_clean_sbu_2, # of connection points: 3
#     Node 14, Type 0, BuildingBlock: OLANEW_clean_sbu_2, # of connection points: 3
#     Node 15, Type 0, BuildingBlock: OLANEW_clean_sbu_2, # of connection points: 3
#     Edge 16, Type (0, 0), BuildingBlock: OJICUG_clean_linker_0, # of connection points: 2
#     Edge 17, Type (0, 0), BuildingBlock: OJICUG_clean_linker_0, # of connection points: 2
#     Edge 18, Type (0, 0), BuildingBlock: OJICUG_clean_linker_0, # of connection points: 2
#     Edge 19, Type (0, 0), BuildingBlock: OJICUG_clean_linker_0, # of connection points: 2
#     Edge 20, Type (0, 0), BuildingBlock: OJICUG_clean_linker_0, # of connection points: 2
#     Edge 21, Type (0, 0), BuildingBlock: OJICUG_clean_linker_0, # of connection points: 2
#     Edge 22, Type (0, 0), BuildingBlock: OJICUG_clean_linker_0, # of connection points: 2
#     Edge 23, Type (0, 0), BuildingBlock: OJICUG_clean_linker_0, # of connection points: 2
#     Edge 24, Type (0, 0), BuildingBlock: OJICUG_clean_linker_0, # of connection points: 2
#     Edge 25, Type (0, 0), BuildingBlock: OJICUG_clean_linker_0, # of connection points: 2
#     Edge 26, Type (0, 0), BuildingBlock: OJICUG_clean_linker_0, # of connection points: 2
#     Edge 27, Type (0, 0), BuildingBlock: OJICUG_clean_linker_0, # of connection points: 2
#     Edge 28, Type (0, 0), BuildingBlock: OJICUG_clean_linker_0, # of connection points: 2
#     Edge 29, Type (0, 0), BuildingBlock: OJICUG_clean_linker_0, # of connection points: 2
#     Edge 30, Type (0, 0), BuildingBlock: OJICUG_clean_linker_0, # of connection points: 2
#     Edge 31, Type (0, 0), BuildingBlock: OJICUG_clean_linker_0, # of connection points: 2
#     Edge 32, Type (0, 0), BuildingBlock: OJICUG_clean_linker_0, # of connection points: 2
#     Edge 33, Type (0, 0), BuildingBlock: OJICUG_clean_linker_0, # of connection points: 2
#     Edge 34, Type (0, 0), BuildingBlock: OJICUG_clean_linker_0, # of connection points: 2
#     Edge 35, Type (0, 0), BuildingBlock: OJICUG_clean_linker_0, # of connection points: 2
#     Edge 36, Type (0, 0), BuildingBlock: OJICUG_clean_linker_0, # of connection points: 2
#     Edge 37, Type (0, 0), BuildingBlock: OJICUG_clean_linker_0, # of connection points: 2
#     Edge 38, Type (0, 0), BuildingBlock: OJICUG_clean_linker_0, # of connection points: 2
#     Edge 39, Type (0, 0), BuildingBlock: OJICUG_clean_linker_0, # of connection points: 2
# Relax obj value: 0.000
# Max RMSD: 0.030
# Mean RMSD: 0.030
data_MOF--net-utj--node1-OLANEW_clean_sbu_2--edge1-OJICUG_clean_linker_0
_symmetry_space_group_name_H-M    P1
_symmetry_Int_Tables_number       1
_symmetry_cell_setting            triclinic
loop_
_symmetry_equiv_pos_as_xyz
'x, y, z'
_cell_length_a     48.614566
_cell_length_b     48.368346
_cell_length_c     26.288577
_cell_angle_alpha  90.051307
_cell_angle_beta   90.242342
_cell_angle_gamma 89.756974
loop_
_atom_site_label
_atom_site_type_symbol
_atom_site_fract_x
_atom_site_fract_y
_atom_site_fract_z
_atom_type_partial_charge
O0 O 0.06353 0.35985 0.08685 0.0
Cd1 Cd 0.04624 0.35058 0.0009 0.0
O2 O 0.02472 0.34916 0.12449 0.0
Cd3 Cd 0.00177 0.355 0.05401 0.0
O4 O 0.97954 0.38887 0.01708 0.0
C5 C 0.97767 0.41079 0.04367 0.0
O6 O -0.01127 0.41101 0.08937 0.0
C7 C 0.05001 0.35555 0.12735 0.0
C8 C 0.04468 0.29407 0.97847 0.0
O9 O 0.06689 0.30797 0.97356 0.0
O10 O 0.02316 0.30682 -0.00581 0.0
O11 O 0.13846 0.12144 0.57668 0.0
Cd12 Cd 0.15981 0.12556 0.49298 0.0
O13 O 0.11229 0.08842 0.54665 0.0
Cd14 Cd 0.07855 0.05844 0.54764 0.0
O15 O 0.04812 0.02561 0.5385 0.0
C16 C 0.02381 0.02734 0.55597 0.0
O17 O 0.01648 0.04958 0.58133 0.0
C18 C 0.11951 0.10384 0.58358 0.0
C19 C 0.21521 0.11017 0.49088 0.0
O20 O 0.20795 0.13493 0.50211 0.0
O21 O 0.19624 0.09255 0.48137 0.0
O22 O 0.41114 0.12062 0.08627 0.0
Cd23 Cd 0.42877 0.12992 0.00087 0.0
O24 O 0.44984 0.13119 0.1251 0.0
Cd25 Cd 0.47307 0.12571 0.05519 0.0
O26 O 0.49574 0.09242 0.01765 0.0
C27 C 0.49818 0.07043 0.04383 0.0
O28 O 0.48742 0.0698 0.08959 0.0
C29 C 0.42453 0.12482 0.12719 0.0
C30 C 0.42995 0.18644 0.97871 0.0
O31 O 0.40789 0.17234 0.97299 0.0
O32 O 0.45149 0.17387 -0.00493 0.0
O33 O 0.33724 0.36694 0.57686 0.0
Cd34 Cd 0.31643 0.36458 0.49212 0.0
O35 O 0.36768 0.39615 0.5476 0.0
Cd36 Cd 0.40506 0.42139 0.55151 0.0
O37 O 0.44107 0.4484 0.55026 0.0
C38 C 0.46411 0.4391 0.53505 0.0
O39 O 0.46596 0.41305 0.52117 0.0
C40 C 0.35812 0.38214 0.58443 0.0
C41 C 0.2603 0.37708 0.49032 0.0
O42 O 0.26885 0.35242 0.49902 0.0
O43 O 0.27832 0.39594 0.48314 0.0
O44 O 0.06215 0.11986 0.80541 0.0
Cd45 Cd 0.04143 0.12328 0.88983 0.0
O46 O 0.05412 0.07559 0.79243 0.0
Cd47 Cd 0.03101 0.06755 0.86174 0.0
O48 O 0.00549 0.04181 0.91067 0.0
C49 C -0.00232 0.01881 0.89221 0.0
O50 O 0.00516 0.01223 0.84576 0.0
C51 C 0.06427 0.09839 0.77772 0.0
C52 C 0.0418 0.17833 0.92272 0.0
O53 O 0.06284 0.16263 0.92895 0.0
O54 O 0.02041 0.16796 0.90153 0.0
O55 O 0.39698 0.09245 0.36156 0.0
Cd56 Cd 0.38538 0.07154 0.44345 0.0
O57 O 0.37547 0.0602 0.31802 0.0
Cd58 Cd 0.37788 0.03182 0.38219 0.0
O59 O 0.40401 0.00244 0.42319 0.0
C60 C 0.42617 -0.0044 0.40081 0.0
O61 O 0.43126 0.0061 0.35575 0.0
C62 C 0.38778 0.08333 0.31942 0.0
C63 C 0.33021 0.08236 0.46562 0.0
O64 O 0.34919 0.09923 0.47895 0.0
O65 O 0.33736 0.06013 0.44257 0.0
O66 O 0.41196 0.36212 0.80909 0.0
Cd67 Cd 0.43218 0.35776 0.89411 0.0
O68 O 0.42304 0.40573 0.79659 0.0
Cd69 Cd 0.44585 0.41271 0.86698 0.0
O70 O 0.47139 0.43883 0.91563 0.0
C71 C 0.47918 0.4616 0.89641 0.0
O72 O 0.47167 0.46761 0.84962 0.0
C73 C 0.41151 0.38367 0.78138 0.0
C74 C 0.43203 0.30243 0.92505 0.0
O75 O 0.41083 0.3179 0.931 0.0
O76 O 0.45346 0.31315 0.90496 0.0
O77 O 0.07686 0.38725 0.36296 0.0
Cd78 Cd 0.0882 0.40806 0.44531 0.0
O79 O 0.09698 0.42054 0.32024 0.0
Cd80 Cd 0.09379 0.44855 0.38492 0.0
O81 O 0.06753 0.47755 0.42625 0.0
C82 C 0.04519 0.48426 0.40404 0.0
O83 O 0.03992 0.47382 0.35888 0.0
C84 C 0.08554 0.39695 0.32107 0.0
C85 C 0.14397 0.39955 0.46656 0.0
O86 O 0.12589 0.38168 0.47934 0.0
O87 O 0.13564 0.42169 0.44449 0.0
O88 O 0.91584 0.61334 0.87134 0.0
Cd89 Cd 0.92524 0.61698 0.96246 0.0
O90 O 0.88822 0.57762 0.87857 0.0
Cd91 Cd 0.90217 0.56603 0.95448 0.0
O92 O 0.92156 0.53089 -0.00712 0.0
C93 C 0.92394 0.50919 0.96584 0.0
O94 O 0.91458 0.50962 0.91888 0.0
C95 C 0.89887 0.5965 0.85154 0.0
C96 C 0.92581 0.67277 -0.00965 0.0
O97 O 0.94812 0.66004 0.97891 0.0
O98 O 0.90334 0.65902 -0.01058 0.0
O99 O 0.8511 0.91881 0.37428 0.0
Cd100 Cd 0.84051 0.93552 0.45963 0.0
O101 O 0.8883 0.89591 0.39739 0.0
Cd102 Cd 0.89214 0.91747 0.47008 0.0
O103 O 0.9189 0.94661 0.51009 0.0
C104 C 0.94439 0.94364 0.50083 0.0
O105 O 0.95218 0.92311 0.47137 0.0
C106 C 0.87059 0.90221 0.36357 0.0
C107 C 0.78379 0.93224 0.47482 0.0
O108 O 0.79485 0.95472 0.45942 0.0
O109 O 0.7996 0.91153 0.48386 0.0
O110 O 0.55983 0.86894 0.86785 0.0
Cd111 Cd 0.55129 0.86569 0.95915 0.0
O112 O 0.58743 0.90476 0.87405 0.0
Cd113 Cd 0.57441 0.91646 0.95028 0.0
O114 O 0.55522 0.95127 -0.01021 0.0
C115 C 0.55248 0.97313 0.96332 0.0
O116 O 0.56145 0.97304 0.91622 0.0
C117 C 0.57652 0.88574 0.84746 0.0
C118 C 0.55053 0.80999 -0.01262 0.0
O119 O 0.52823 0.82285 0.97608 0.0
O120 O 0.57309 0.82358 -0.01384 0.0
O121 O 0.62035 0.56596 0.37812 0.0
Cd122 Cd 0.62997 0.5496 0.4642 0.0
O123 O 0.58393 0.59049 0.3992 0.0
Cd124 Cd 0.57889 0.56932 0.47181 0.0
O125 O 0.55196 0.53969 0.50951 0.0
C126 C 0.55347 0.51448 0.49605 0.0
O127 O 0.57262 0.50704 0.46359 0.0
C128 C 0.60161 0.58322 0.36624 0.0
C129 C 0.68671 0.55177 0.48091 0.0
O130 O 0.67522 0.52943 0.46569 0.0
O131 O 0.67131 0.57286 0.48917 0.0
O132 O 0.91163 0.85619 0.14343 0.0
Cd133 Cd 0.92588 0.84668 0.05599 0.0
O134 O 0.88377 0.89002 0.12073 0.0
Cd135 Cd 0.90094 0.89398 0.04466 0.0
O136 O 0.92478 0.91971 -0.00708 0.0
C137 C 0.93229 0.94292 0.01087 0.0
O138 O 0.92526 0.94939 0.05762 0.0
C139 C 0.8934 0.87406 0.1549 0.0
C140 C 0.92601 0.78994 0.03565 0.0
O141 O 0.94796 0.80225 0.05032 0.0
O142 O 0.90407 0.80447 0.03045 0.0
O143 O 0.60375 0.90962 0.61004 0.0
Cd144 Cd 0.60969 0.91858 0.51942 0.0
O145 O 0.56767 0.88262 0.60195 0.0
Cd146 Cd 0.55886 0.89602 0.52445 0.0
O147 O 0.52973 0.91946 0.47776 0.0
C148 C 0.50703 0.92535 0.4992 0.0
O149 O 0.50286 0.91665 0.54586 0.0
C150 C 0.58631 0.89332 0.62963 0.0
C151 C 0.66595 0.92342 0.50036 0.0
O152 O 0.65109 0.94488 0.5088 0.0
O153 O 0.65409 0.89981 0.49979 0.0
O154 O 0.56324 0.62752 0.14299 0.0
Cd155 Cd 0.54979 0.63635 0.05472 0.0
O156 O 0.59139 0.59359 0.1225 0.0
Cd157 Cd 0.57492 0.58893 0.04578 0.0
O158 O 0.55146 0.56234 -0.0055 0.0
C159 C 0.54412 0.53929 0.01321 0.0
O160 O 0.55112 0.53347 0.06035 0.0
C161 C 0.58139 0.6098 0.15579 0.0
C162 C 0.54986 0.69296 0.03351 0.0
O163 O 0.5278 0.68075 0.04751 0.0
O164 O 0.57181 0.67838 0.02934 0.0
O165 O 0.86839 0.57182 0.61517 0.0
Cd166 Cd 0.86133 0.56239 0.52485 0.0
O167 O 0.90517 0.59769 0.60595 0.0
Cd168 Cd 0.91302 0.58368 0.52852 0.0
O169 O 0.94181 0.56005 0.48176 0.0
C170 C 0.96464 0.55419 0.50308 0.0
O171 O 0.96911 0.56299 0.54969 0.0
C172 C 0.88649 0.58773 0.63413 0.0
C173 C 0.8048 0.5585 0.50675 0.0
O174 O 0.81934 0.53682 0.51538 0.0
O175 O 0.81709 0.58188 0.50559 0.0
C176 C 0.04943 0.35316 0.22247 0.0
C177 C 0.06238 0.36178 0.17753 0.0
H178 H 0.04703 0.35713 0.30342 0.0
C179 C 0.08529 0.37932 0.181 0.0
H180 H 0.03182 0.33954 0.22101 0.0
C181 C 0.09372 0.38975 0.2281 0.0
C182 C 0.07972 0.38244 0.27272 0.0
H183 H 0.09572 0.38634 0.14708 0.0
H184 H 0.11055 0.40435 0.22933 0.0
C185 C 0.05819 0.3632 0.26968 0.0
C186 C 0.10282 0.12609 0.66355 0.0
C187 C 0.1056 0.10227 0.63335 0.0
H188 H 0.08739 0.14368 0.73256 0.0
C189 C 0.09532 0.07709 0.65147 0.0
H190 H 0.11072 0.14577 0.65062 0.0
C191 C 0.08186 0.07586 0.69825 0.0
C192 C 0.07863 0.09977 0.72819 0.0
H193 H 0.09819 0.05817 0.63014 0.0
H194 H 0.07416 0.05608 0.71105 0.0
C195 C 0.08939 0.12489 0.71041 0.0
C196 C 0.37995 0.09104 0.22636 0.0
C197 C 0.39398 0.09791 0.27143 0.0
H198 H 0.37822 0.09477 0.14535 0.0
C199 C 0.41587 0.11675 0.2692 0.0
H200 H 0.36285 0.07676 0.22695 0.0
C201 C 0.42492 0.12681 0.22236 0.0
C202 C 0.41194 0.11859 0.17697 0.0
H203 H 0.42706 0.1225 0.30329 0.0
H204 H 0.44277 0.14012 0.22156 0.0
C205 C 0.38869 0.10147 0.17962 0.0
C206 C 0.38473 0.35912 0.71315 0.0
C207 C 0.39752 0.38326 0.73119 0.0
H208 H 0.36222 0.33994 0.65244 0.0
C209 C 0.39672 0.40719 0.70085 0.0
H210 H 0.38483 0.34036 0.73563 0.0
C211 C 0.38373 0.40691 0.65337 0.0
C212 C 0.37145 0.38267 0.63499 0.0
H213 H 0.40603 0.42626 0.71379 0.0
H214 H 0.38283 0.42587 0.6316 0.0
C215 C 0.37173 0.35888 0.6656 0.0
C216 C 0.90944 0.61333 0.76365 0.0
C217 C 0.89321 0.59719 0.7962 0.0
H218 H 0.92003 0.62304 0.68681 0.0
C219 C 0.87296 0.57998 0.77495 0.0
H220 H 0.92517 0.62686 0.7788 0.0
C221 C 0.86992 0.57789 0.72226 0.0
C222 C 0.8872 0.59282 0.68964 0.0
H223 H 0.85997 0.56743 0.79898 0.0
H224 H 0.85471 0.56374 0.70717 0.0
C225 C 0.90653 0.61108 0.71089 0.0
C226 C 0.90027 0.86591 0.24827 0.0
C227 C 0.88512 0.87815 0.20852 0.0
H228 H 0.90756 0.86387 0.32854 0.0
C229 C 0.8634 0.89624 0.22061 0.0
H230 H 0.91709 0.85183 0.24028 0.0
C231 C 0.85784 0.90304 0.27119 0.0
C232 C 0.87401 0.89205 0.3108 0.0
H233 H 0.85119 0.90587 0.1909 0.0
H234 H 0.84154 0.91776 0.27901 0.0
C235 C 0.89484 0.87288 0.29889 0.0
C236 C 0.60367 0.90402 0.71719 0.0
C237 C 0.58628 0.88859 0.68524 0.0
H238 H 0.61432 0.91513 0.79347 0.0
C239 C 0.5675 0.87015 0.70727 0.0
H240 H 0.61847 0.91832 0.7015 0.0
C241 C 0.56522 0.86821 0.76013 0.0
C242 C 0.58154 0.88481 0.79201 0.0
H243 H 0.55393 0.85782 0.68373 0.0
H244 H 0.54989 0.85451 0.77588 0.0
C245 C 0.60126 0.90222 0.76998 0.0
C246 C 0.57857 0.61243 0.29961 0.0
C247 C 0.59894 0.59301 0.31308 0.0
H248 H 0.55726 0.63328 0.23933 0.0
C249 C 0.61534 0.58141 0.2746 0.0
H250 H 0.56571 0.62191 0.32835 0.0
C251 C 0.61041 0.58784 0.22359 0.0
C252 C 0.5891 0.60615 0.20991 0.0
H253 H 0.6313 0.5665 0.28364 0.0
H254 H 0.62276 0.57773 0.19478 0.0
C255 C 0.57377 0.61901 0.24855 0.0
C256 C 0.06835 0.24896 0.96103 0.0
C257 C 0.04385 0.26427 0.96565 0.0
H258 H 0.08687 0.20972 0.9446 0.0
C259 C 0.01861 0.25094 0.9571 0.0
H260 H 0.08811 0.25862 0.96756 0.0
C261 C 0.01792 0.22301 0.94321 0.0
C262 C 0.04243 0.20772 0.93852 0.0
H263 H -0.00061 0.26221 0.96025 0.0
H264 H -0.00183 0.2134 0.93624 0.0
C265 C 0.06763 0.22092 0.94805 0.0
C266 C 0.28029 0.06958 0.4626 0.0
C267 C 0.30085 0.08883 0.47497 0.0
H268 H 0.23715 0.06113 0.45828 0.0
C269 C 0.29303 0.11471 0.49465 0.0
H270 H 0.28563 0.04943 0.44748 0.0
C271 C 0.26524 0.12146 0.50061 0.0
C272 C 0.24465 0.10242 0.48731 0.0
H273 H 0.30836 0.13 0.50458 0.0
H274 H 0.2599 0.14175 0.51509 0.0
C275 C 0.25249 0.07628 0.46885 0.0
C276 C 0.40647 0.25945 0.94846 0.0
C277 C 0.4316 0.27293 0.94006 0.0
H278 H 0.38624 0.22148 0.96666 0.0
C279 C 0.45622 0.25785 0.94531 0.0
H280 H 0.38714 0.27049 0.94456 0.0
C281 C 0.45571 0.22986 0.95871 0.0
C282 C 0.43056 0.21626 0.9662 0.0
H283 H 0.47591 0.26768 0.93923 0.0
H284 H 0.47502 0.21877 0.96237 0.0
C285 C 0.40595 0.23135 0.96094 0.0
C286 C 0.21095 0.36305 0.49876 0.0
C287 C 0.2305 0.38337 0.48703 0.0
H288 H 0.16834 0.35227 0.50192 0.0
C289 C 0.22129 0.40946 0.47049 0.0
H290 H 0.21736 0.34276 0.51175 0.0
C291 C 0.19317 0.41487 0.46458 0.0
C292 C 0.17365 0.39437 0.47544 0.0
H293 H 0.23581 0.42558 0.46115 0.0
H294 H 0.18677 0.43503 0.45097 0.0
C295 C 0.18284 0.36851 0.4932 0.0
C296 C 0.9011 0.7458 0.01696 0.0
C297 C 0.92599 0.75988 0.02488 0.0
H298 H 0.88151 0.70725 0.00039 0.0
C299 C 0.95082 0.74497 0.02219 0.0
H300 H 0.8816 0.75667 0.01893 0.0
C301 C 0.95078 0.71666 0.01116 0.0
C302 C 0.92589 0.7026 0.00316 0.0
H303 H 0.97035 0.75521 0.02807 0.0
H304 H 0.97028 0.70581 0.00892 0.0
C305 C 0.90104 0.71745 0.00649 0.0
C306 C 0.71279 0.90199 0.49392 0.0
C307 C 0.69603 0.92573 0.49286 0.0
H308 H 0.75363 0.88547 0.48963 0.0
C309 C 0.70836 0.95167 0.48576 0.0
H310 H 0.70395 0.88171 0.49952 0.0
C311 C 0.73685 0.9538 0.4797 0.0
C312 C 0.75363 0.93008 0.48127 0.0
H313 H 0.696 0.97035 0.48476 0.0
H314 H 0.74573 0.97407 0.47419 0.0
C315 C 0.74129 0.90416 0.48848 0.0
C316 C 0.57495 0.73693 0.01478 0.0
C317 C 0.55 0.72298 0.02245 0.0
H318 H 0.5947 0.77534 -0.00178 0.0
C319 C 0.52523 0.73799 0.01929 0.0
H320 H 0.5944 0.72599 0.01711 0.0
C321 C 0.52538 0.76626 0.0081 0.0
C322 C 0.55034 0.78019 0.00036 0.0
H323 H 0.50566 0.72785 0.02497 0.0
H324 H 0.50593 0.77719 0.00552 0.0
C325 C 0.57512 0.76524 0.00411 0.0
C326 C 0.72976 0.5791 0.49466 0.0
C327 C 0.71691 0.55338 0.4878 0.0
H328 H 0.76756 0.6009 0.50539 0.0
C329 C 0.73324 0.52933 0.48679 0.0
H330 H 0.71778 0.59803 0.49539 0.0
C331 C 0.76179 0.53096 0.4929 0.0
C332 C 0.77464 0.55671 0.49951 0.0
H333 H 0.72396 0.5092 0.48156 0.0
H334 H 0.7738 0.51205 0.49224 0.0
C335 C 0.75831 0.58076 0.50015 0.0
C336 C 0.93948 0.46002 0.95583 0.0
C337 C 0.93735 0.48392 -0.01386 0.0
H338 H 0.95381 0.4182 0.9501 0.0
C339 C 0.94837 0.48345 0.0356 0.0
H340 H 0.9312 0.45967 0.91752 0.0
C341 C 0.96137 0.45966 0.05422 0.0
C342 C 0.9636 0.4358 0.02384 0.0
H343 H 0.94709 0.50149 0.05992 0.0
H344 H 0.96972 0.46004 0.09247 0.0
C345 C 0.95244 0.43622 0.97448 0.0
C346 C 0.0119 0.98114 0.51917 0.0
C347 C 0.00368 0.00512 0.54532 0.0
H348 H -0.00024 0.94294 0.48515 0.0
C349 C 0.97594 0.00799 0.55948 0.0
H350 H 0.03312 0.97815 0.50795 0.0
C351 C 0.9567 0.9877 0.54632 0.0
C352 C 0.96484 0.96412 0.51881 0.0
H353 H 0.96894 0.02617 0.57981 0.0
H354 H 0.93538 -0.00921 0.55675 0.0
C355 C -0.00727 0.96089 0.50613 0.0
C356 C 0.52328 0.04573 0.97391 0.0
C357 C 0.51249 0.04574 0.02338 0.0
H358 H 0.54436 0.02285 0.91623 0.0
C359 C 0.51526 0.02175 0.05323 0.0
H360 H 0.52151 0.06385 0.94993 0.0
C361 C 0.52839 -0.00178 0.03396 0.0
C362 C 0.53902 -0.00186 -0.01564 0.0
H363 H 0.50719 0.02105 0.09155 0.0
H364 H 0.53006 0.98006 0.05786 0.0
C365 C 0.53639 0.02219 0.95461 0.0
C366 C 0.53383 0.46669 0.49655 0.0
C367 C 0.53191 0.49458 0.51119 0.0
H368 H 0.51409 0.42729 0.49288 0.0
C369 C 0.50823 0.50362 0.53697 0.0
H370 H 0.55183 0.45901 0.47681 0.0
C371 C 0.48647 0.48544 0.5459 0.0
C372 C 0.48799 0.45779 0.52954 0.0
H373 H 0.50608 0.52497 0.54882 0.0
H374 H 0.46822 0.49324 0.56467 0.0
C375 C 0.51216 0.44848 0.50575 0.0
C376 C 0.97239 0.97408 0.9017 0.0
C377 C 0.98072 -0.00046 0.92243 0.0
H378 H 0.95059 0.93623 0.91323 0.0
C379 C 0.97283 0.00626 0.97229 0.0
H380 H 0.9781 0.96825 0.86338 0.0
C381 C 0.95705 0.98788 0.00085 0.0
C382 C 0.94881 0.96237 0.9802 0.0
H383 H 0.97888 0.0257 -0.0106 0.0
H384 H 0.95138 -0.0063 0.03921 0.0
C385 C 0.95661 0.95569 0.93027 0.0
C386 C 0.47101 0.96986 0.40042 0.0
C387 C 0.44639 0.97685 0.42537 0.0
H388 H 0.50942 0.9481 0.40398 0.0
C389 C 0.44162 0.96618 0.4742 0.0
H390 H 0.47533 0.97768 0.36271 0.0
C391 C 0.46119 0.94921 0.49783 0.0
C392 C 0.48597 0.94252 0.47317 0.0
H393 H 0.42287 0.97113 0.49444 0.0
H394 H 0.45695 0.94154 0.53568 0.0
C395 C 0.49058 0.95288 0.42405 0.0
C396 C 0.51966 0.49404 0.00448 0.0
C397 C 0.52778 0.51934 -0.01701 0.0
H398 H 0.49802 0.45598 -0.00587 0.0
C399 C 0.51998 0.52535 0.93268 0.0
H400 H 0.52533 0.48874 0.04316 0.0
C401 C 0.50431 0.50653 0.90457 0.0
C402 C 0.49609 0.48129 0.92615 0.0
H403 H 0.5259 0.54463 0.91498 0.0
H404 H 0.49858 0.51185 0.86593 0.0
C405 C 0.50399 0.47523 0.97638 0.0
C406 C 0.98069 0.52663 0.42783 0.0
C407 C 0.98557 0.53703 0.47694 0.0
H408 H -0.00433 0.50189 0.36633 0.0
C409 C 0.01052 0.53043 0.50146 0.0
H410 H 0.9617 0.53134 0.40787 0.0
C411 C 0.03001 0.51353 0.47767 0.0
C412 C 0.02499 0.50285 0.42882 0.0
H413 H 0.01496 0.53812 0.5393 0.0
H414 H 0.04891 0.50867 0.49778 0.0
C415 C 0.00018 0.50973 0.40404 0.0
loop_
_geom_bond_atom_site_label_1
_geom_bond_atom_site_label_2
_geom_bond_distance
_geom_bond_site_symmetry_2
_ccdc_geom_bond_type
O0 Cd1 2.300 . S
O0 C7 1.275 . S
Cd1 O0 2.300 . S
Cd1 O9 2.381 . S
Cd1 O10 2.378 . S
O2 Cd3 2.385 1_455 S
O2 C7 1.255 . S
Cd3 O2 2.385 1_655 S
Cd3 O4 2.317 1_655 S
O4 Cd3 2.317 1_455 S
O4 C5 1.232 . S
C5 O4 1.232 . S
C5 O6 1.218 . S
O6 C5 1.218 . S
C7 O0 1.275 . S
C7 O2 1.255 . S
C8 O9 1.258 . S
C8 O10 1.256 . S
O9 Cd1 2.381 . S
O9 C8 1.258 . S
O10 Cd1 2.378 . S
O10 C8 1.256 . S
O11 Cd12 2.300 . S
O11 C18 1.275 . S
Cd12 O11 2.300 . S
Cd12 O20 2.381 . S
Cd12 O21 2.378 . S
O13 Cd14 2.385 1_545 S
O13 C18 1.255 . S
Cd14 O13 2.385 1_565 S
Cd14 O15 2.317 1_565 S
O15 Cd14 2.317 1_545 S
O15 C16 1.232 . S
C16 O15 1.232 . S
C16 O17 1.218 . S
O17 C16 1.218 . S
C18 O11 1.275 . S
C18 O13 1.255 . S
C19 O20 1.258 . S
C19 O21 1.256 . S
O20 Cd12 2.381 . S
O20 C19 1.258 . S
O21 Cd12 2.378 . S
O21 C19 1.256 . S
O22 Cd23 2.300 . S
O22 C29 1.275 . S
Cd23 O22 2.300 . S
Cd23 O31 2.381 . S
Cd23 O32 2.378 . S
O24 Cd25 2.385 . S
O24 C29 1.255 . S
Cd25 O24 2.385 . S
Cd25 O26 2.317 . S
O26 Cd25 2.317 . S
O26 C27 1.232 . S
C27 O26 1.232 . S
C27 O28 1.218 . S
O28 C27 1.218 . S
C29 O22 1.275 . S
C29 O24 1.255 . S
C30 O31 1.258 . S
C30 O32 1.256 . S
O31 Cd23 2.381 . S
O31 C30 1.258 . S
O32 Cd23 2.378 . S
O32 C30 1.256 . S
O33 Cd34 2.300 . S
O33 C40 1.275 . S
Cd34 O33 2.300 . S
Cd34 O42 2.381 . S
Cd34 O43 2.378 . S
O35 Cd36 2.385 . S
O35 C40 1.255 . S
Cd36 O35 2.385 . S
Cd36 O37 2.317 . S
O37 Cd36 2.317 . S
O37 C38 1.232 . S
C38 O37 1.232 . S
C38 O39 1.218 . S
O39 C38 1.218 . S
C40 O33 1.275 . S
C40 O35 1.255 . S
C41 O42 1.258 . S
C41 O43 1.256 . S
O42 Cd34 2.381 . S
O42 C41 1.258 . S
O43 Cd34 2.378 . S
O43 C41 1.256 . S
O44 Cd45 2.300 . S
O44 C51 1.275 . S
Cd45 O44 2.300 . S
Cd45 O53 2.381 . S
Cd45 O54 2.378 . S
O46 Cd47 2.385 1_455 S
O46 C51 1.255 . S
Cd47 O46 2.385 1_655 S
Cd47 O48 2.317 1_655 S
O48 Cd47 2.317 1_455 S
O48 C49 1.232 . S
C49 O48 1.232 . S
C49 O50 1.218 . S
O50 C49 1.218 . S
C51 O44 1.275 . S
C51 O46 1.255 . S
C52 O53 1.258 . S
C52 O54 1.256 . S
O53 Cd45 2.381 . S
O53 C52 1.258 . S
O54 Cd45 2.378 . S
O54 C52 1.256 . S
O55 Cd56 2.300 . S
O55 C62 1.275 . S
Cd56 O55 2.300 . S
Cd56 O64 2.381 . S
Cd56 O65 2.378 . S
O57 Cd58 2.385 1_545 S
O57 C62 1.255 . S
Cd58 O57 2.385 1_565 S
Cd58 O59 2.317 1_565 S
O59 Cd58 2.317 1_545 S
O59 C60 1.232 . S
C60 O59 1.232 . S
C60 O61 1.218 . S
O61 C60 1.218 . S
C62 O55 1.275 . S
C62 O57 1.255 . S
C63 O64 1.258 . S
C63 O65 1.256 . S
O64 Cd56 2.381 . S
O64 C63 1.258 . S
O65 Cd56 2.378 . S
O65 C63 1.256 . S
O66 Cd67 2.300 . S
O66 C73 1.275 . S
Cd67 O66 2.300 . S
Cd67 O75 2.381 . S
Cd67 O76 2.378 . S
O68 Cd69 2.385 . S
O68 C73 1.255 . S
Cd69 O68 2.385 . S
Cd69 O70 2.317 . S
O70 Cd69 2.317 . S
O70 C71 1.232 . S
C71 O70 1.232 . S
C71 O72 1.218 . S
O72 C71 1.218 . S
C73 O66 1.275 . S
C73 O68 1.255 . S
C74 O75 1.258 . S
C74 O76 1.256 . S
O75 Cd67 2.381 . S
O75 C74 1.258 . S
O76 Cd67 2.378 . S
O76 C74 1.256 . S
O77 Cd78 2.300 . S
O77 C84 1.275 . S
Cd78 O77 2.300 . S
Cd78 O86 2.381 . S
Cd78 O87 2.378 . S
O79 Cd80 2.385 . S
O79 C84 1.255 . S
Cd80 O79 2.385 . S
Cd80 O81 2.317 . S
O81 Cd80 2.317 . S
O81 C82 1.232 . S
C82 O81 1.232 . S
C82 O83 1.218 . S
O83 C82 1.218 . S
C84 O77 1.275 . S
C84 O79 1.255 . S
C85 O86 1.258 . S
C85 O87 1.256 . S
O86 Cd78 2.381 . S
O86 C85 1.258 . S
O87 Cd78 2.378 . S
O87 C85 1.256 . S
O88 Cd89 2.300 . S
O88 C95 1.275 . S
Cd89 O88 2.300 . S
Cd89 O97 2.381 . S
Cd89 O98 2.378 1_556 S
O90 Cd91 2.385 . S
O90 C95 1.255 . S
Cd91 O90 2.385 . S
Cd91 O92 2.317 . S
O92 Cd91 2.317 . S
O92 C93 1.232 . S
C93 O92 1.232 . S
C93 O94 1.218 . S
O94 C93 1.218 . S
C95 O88 1.275 . S
C95 O90 1.255 . S
C96 O97 1.258 . S
C96 O98 1.256 1_556 S
O97 Cd89 2.381 . S
O97 C96 1.258 . S
O98 Cd89 2.378 1_554 S
O98 C96 1.256 1_554 S
O99 Cd100 2.300 . S
O99 C106 1.275 . S
Cd100 O99 2.300 . S
Cd100 O108 2.381 . S
Cd100 O109 2.378 . S
O101 Cd102 2.385 . S
O101 C106 1.255 . S
Cd102 O101 2.385 . S
Cd102 O103 2.317 . S
O103 Cd102 2.317 . S
O103 C104 1.232 . S
C104 O103 1.232 . S
C104 O105 1.218 . S
O105 C104 1.218 . S
C106 O99 1.275 . S
C106 O101 1.255 . S
C107 O108 1.258 . S
C107 O109 1.256 . S
O108 Cd100 2.381 . S
O108 C107 1.258 . S
O109 Cd100 2.378 . S
O109 C107 1.256 . S
O110 Cd111 2.300 . S
O110 C117 1.275 . S
Cd111 O110 2.300 . S
Cd111 O119 2.381 . S
Cd111 O120 2.378 1_556 S
O112 Cd113 2.385 . S
O112 C117 1.255 . S
Cd113 O112 2.385 . S
Cd113 O114 2.317 . S
O114 Cd113 2.317 . S
O114 C115 1.232 . S
C115 O114 1.232 . S
C115 O116 1.218 . S
O116 C115 1.218 . S
C117 O110 1.275 . S
C117 O112 1.255 . S
C118 O119 1.258 . S
C118 O120 1.256 1_556 S
O119 Cd111 2.381 . S
O119 C118 1.258 . S
O120 Cd111 2.378 1_554 S
O120 C118 1.256 1_554 S
O121 Cd122 2.300 . S
O121 C128 1.275 . S
Cd122 O121 2.300 . S
Cd122 O130 2.381 . S
Cd122 O131 2.378 . S
O123 Cd124 2.385 . S
O123 C128 1.255 . S
Cd124 O123 2.385 . S
Cd124 O125 2.317 . S
O125 Cd124 2.317 . S
O125 C126 1.232 . S
C126 O125 1.232 . S
C126 O127 1.218 . S
O127 C126 1.218 . S
C128 O121 1.275 . S
C128 O123 1.255 . S
C129 O130 1.258 . S
C129 O131 1.256 . S
O130 Cd122 2.381 . S
O130 C129 1.258 . S
O131 Cd122 2.378 . S
O131 C129 1.256 . S
O132 Cd133 2.300 . S
O132 C139 1.275 . S
Cd133 O132 2.300 . S
Cd133 O141 2.381 . S
Cd133 O142 2.378 1_554 S
O134 Cd135 2.385 . S
O134 C139 1.255 . S
Cd135 O134 2.385 . S
Cd135 O136 2.317 . S
O136 Cd135 2.317 . S
O136 C137 1.232 . S
C137 O136 1.232 . S
C137 O138 1.218 . S
O138 C137 1.218 . S
C139 O132 1.275 . S
C139 O134 1.255 . S
C140 O141 1.258 . S
C140 O142 1.256 1_554 S
O141 Cd133 2.381 . S
O141 C140 1.258 . S
O142 Cd133 2.378 1_556 S
O142 C140 1.256 1_556 S
O143 Cd144 2.300 . S
O143 C150 1.275 . S
Cd144 O143 2.300 . S
Cd144 O152 2.381 . S
Cd144 O153 2.378 . S
O145 Cd146 2.385 . S
O145 C150 1.255 . S
Cd146 O145 2.385 . S
Cd146 O147 2.317 . S
O147 Cd146 2.317 . S
O147 C148 1.232 . S
C148 O147 1.232 . S
C148 O149 1.218 . S
O149 C148 1.218 . S
C150 O143 1.275 . S
C150 O145 1.255 . S
C151 O152 1.258 . S
C151 O153 1.256 . S
O152 Cd144 2.381 . S
O152 C151 1.258 . S
O153 Cd144 2.378 . S
O153 C151 1.256 . S
O154 Cd155 2.300 . S
O154 C161 1.275 . S
Cd155 O154 2.300 . S
Cd155 O163 2.381 . S
Cd155 O164 2.378 1_554 S
O156 Cd157 2.385 . S
O156 C161 1.255 . S
Cd157 O156 2.385 . S
Cd157 O158 2.317 . S
O158 Cd157 2.317 . S
O158 C159 1.232 . S
C159 O158 1.232 . S
C159 O160 1.218 . S
O160 C159 1.218 . S
C161 O154 1.275 . S
C161 O156 1.255 . S
C162 O163 1.258 . S
C162 O164 1.256 1_554 S
O163 Cd155 2.381 . S
O163 C162 1.258 . S
O164 Cd155 2.378 1_556 S
O164 C162 1.256 1_556 S
O165 Cd166 2.300 . S
O165 C172 1.275 . S
Cd166 O165 2.300 . S
Cd166 O174 2.381 . S
Cd166 O175 2.378 . S
O167 Cd168 2.385 . S
O167 C172 1.255 . S
Cd168 O167 2.385 . S
Cd168 O169 2.317 . S
O169 Cd168 2.317 . S
O169 C170 1.232 . S
C170 O169 1.232 . S
C170 O171 1.218 . S
O171 C170 1.218 . S
C172 O165 1.275 . S
C172 O167 1.255 . S
C173 O174 1.258 . S
C173 O175 1.256 . S
O174 Cd166 2.381 . S
O174 C173 1.258 . S
O175 Cd166 2.378 . S
O175 C173 1.256 . S
C176 C177 1.387 . S
C176 H180 0.950 . S
C176 C185 1.390 . S
C177 C176 1.387 . S
C177 C179 1.387 . S
H178 C185 0.950 . S
C179 C177 1.387 . S
C179 C181 1.390 . S
C179 H183 0.950 . S
H180 C176 0.950 . S
C181 C179 1.390 . S
C181 C182 1.387 . S
C181 H184 0.950 . S
C182 C181 1.387 . S
C182 C185 1.387 . S
H183 C179 0.950 . S
H184 C181 0.950 . S
C185 C176 1.390 . S
C185 H178 0.950 . S
C185 C182 1.387 . S
C186 C187 1.387 . S
C186 H190 0.950 . S
C186 C195 1.390 . S
C187 C186 1.387 . S
C187 C189 1.387 . S
H188 C195 0.950 . S
C189 C187 1.387 . S
C189 C191 1.390 . S
C189 H193 0.950 . S
H190 C186 0.950 . S
C191 C189 1.390 . S
C191 C192 1.387 . S
C191 H194 0.950 . S
C192 C191 1.387 . S
C192 C195 1.387 . S
H193 C189 0.950 . S
H194 C191 0.950 . S
C195 C186 1.390 . S
C195 H188 0.950 . S
C195 C192 1.387 . S
C196 C197 1.387 . S
C196 H200 0.950 . S
C196 C205 1.390 . S
C197 C196 1.387 . S
C197 C199 1.387 . S
H198 C205 0.950 . S
C199 C197 1.387 . S
C199 C201 1.390 . S
C199 H203 0.950 . S
H200 C196 0.950 . S
C201 C199 1.390 . S
C201 C202 1.387 . S
C201 H204 0.950 . S
C202 C201 1.387 . S
C202 C205 1.387 . S
H203 C199 0.950 . S
H204 C201 0.950 . S
C205 C196 1.390 . S
C205 H198 0.950 . S
C205 C202 1.387 . S
C206 C207 1.387 . S
C206 H210 0.950 . S
C206 C215 1.390 . S
C207 C206 1.387 . S
C207 C209 1.387 . S
H208 C215 0.950 . S
C209 C207 1.387 . S
C209 C211 1.390 . S
C209 H213 0.950 . S
H210 C206 0.950 . S
C211 C209 1.390 . S
C211 C212 1.387 . S
C211 H214 0.950 . S
C212 C211 1.387 . S
C212 C215 1.387 . S
H213 C209 0.950 . S
H214 C211 0.950 . S
C215 C206 1.390 . S
C215 H208 0.950 . S
C215 C212 1.387 . S
C216 C217 1.387 . S
C216 H220 0.950 . S
C216 C225 1.390 . S
C217 C216 1.387 . S
C217 C219 1.387 . S
H218 C225 0.950 . S
C219 C217 1.387 . S
C219 C221 1.390 . S
C219 H223 0.950 . S
H220 C216 0.950 . S
C221 C219 1.390 . S
C221 C222 1.387 . S
C221 H224 0.950 . S
C222 C221 1.387 . S
C222 C225 1.387 . S
H223 C219 0.950 . S
H224 C221 0.950 . S
C225 C216 1.390 . S
C225 H218 0.950 . S
C225 C222 1.387 . S
C226 C227 1.387 . S
C226 H230 0.950 . S
C226 C235 1.390 . S
C227 C226 1.387 . S
C227 C229 1.387 . S
H228 C235 0.950 . S
C229 C227 1.387 . S
C229 C231 1.390 . S
C229 H233 0.950 . S
H230 C226 0.950 . S
C231 C229 1.390 . S
C231 C232 1.387 . S
C231 H234 0.950 . S
C232 C231 1.387 . S
C232 C235 1.387 . S
H233 C229 0.950 . S
H234 C231 0.950 . S
C235 C226 1.390 . S
C235 H228 0.950 . S
C235 C232 1.387 . S
C236 C237 1.387 . S
C236 H240 0.950 . S
C236 C245 1.390 . S
C237 C236 1.387 . S
C237 C239 1.387 . S
H238 C245 0.950 . S
C239 C237 1.387 . S
C239 C241 1.390 . S
C239 H243 0.950 . S
H240 C236 0.950 . S
C241 C239 1.390 . S
C241 C242 1.387 . S
C241 H244 0.950 . S
C242 C241 1.387 . S
C242 C245 1.387 . S
H243 C239 0.950 . S
H244 C241 0.950 . S
C245 C236 1.390 . S
C245 H238 0.950 . S
C245 C242 1.387 . S
C246 C247 1.387 . S
C246 H250 0.950 . S
C246 C255 1.390 . S
C247 C246 1.387 . S
C247 C249 1.387 . S
H248 C255 0.950 . S
C249 C247 1.387 . S
C249 C251 1.390 . S
C249 H253 0.950 . S
H250 C246 0.950 . S
C251 C249 1.390 . S
C251 C252 1.387 . S
C251 H254 0.950 . S
C252 C251 1.387 . S
C252 C255 1.387 . S
H253 C249 0.950 . S
H254 C251 0.950 . S
C255 C246 1.390 . S
C255 H248 0.950 . S
C255 C252 1.387 . S
C256 C257 1.387 . S
C256 H260 0.950 . S
C256 C265 1.390 1_554 S
C257 C256 1.387 . S
C257 C259 1.387 . S
H258 C265 0.950 . S
C259 C257 1.387 . S
C259 C261 1.390 1_554 S
C259 H263 0.950 . S
H260 C256 0.950 . S
C261 C259 1.390 1_556 S
C261 C262 1.387 . S
C261 H264 0.950 . S
C262 C261 1.387 . S
C262 C265 1.387 . S
H263 C259 0.950 . S
H264 C261 0.950 . S
C265 C256 1.390 1_556 S
C265 H258 0.950 . S
C265 C262 1.387 . S
C266 C267 1.387 . S
C266 H270 0.950 . S
C266 C275 1.390 . S
C267 C266 1.387 . S
C267 C269 1.387 . S
H268 C275 0.950 . S
C269 C267 1.387 . S
C269 C271 1.390 . S
C269 H273 0.950 . S
H270 C266 0.950 . S
C271 C269 1.390 . S
C271 C272 1.387 . S
C271 H274 0.950 . S
C272 C271 1.387 . S
C272 C275 1.387 . S
H273 C269 0.950 . S
H274 C271 0.950 . S
C275 C266 1.390 . S
C275 H268 0.950 . S
C275 C272 1.387 . S
C276 C277 1.387 . S
C276 H280 0.950 . S
C276 C285 1.390 1_556 S
C277 C276 1.387 . S
C277 C279 1.387 . S
H278 C285 0.950 . S
C279 C277 1.387 . S
C279 C281 1.390 1_556 S
C279 H283 0.950 . S
H280 C276 0.950 . S
C281 C279 1.390 1_554 S
C281 C282 1.387 . S
C281 H284 0.950 . S
C282 C281 1.387 . S
C282 C285 1.387 . S
H283 C279 0.950 . S
H284 C281 0.950 . S
C285 C276 1.390 1_554 S
C285 H278 0.950 . S
C285 C282 1.387 . S
C286 C287 1.387 . S
C286 H290 0.950 . S
C286 C295 1.390 . S
C287 C286 1.387 . S
C287 C289 1.387 . S
H288 C295 0.950 . S
C289 C287 1.387 . S
C289 C291 1.390 . S
C289 H293 0.950 . S
H290 C286 0.950 . S
C291 C289 1.390 . S
C291 C292 1.387 . S
C291 H294 0.950 . S
C292 C291 1.387 . S
C292 C295 1.387 . S
H293 C289 0.950 . S
H294 C291 0.950 . S
C295 C286 1.390 . S
C295 H288 0.950 . S
C295 C292 1.387 . S
C296 C297 1.387 . S
C296 H300 0.950 . S
C296 C305 1.390 1_554 S
C297 C296 1.387 . S
C297 C299 1.387 . S
H298 C305 0.950 . S
C299 C297 1.387 . S
C299 C301 1.390 1_554 S
C299 H303 0.950 . S
H300 C296 0.950 . S
C301 C299 1.390 1_556 S
C301 C302 1.387 . S
C301 H304 0.950 . S
C302 C301 1.387 . S
C302 C305 1.387 . S
H303 C299 0.950 . S
H304 C301 0.950 . S
C305 C296 1.390 1_556 S
C305 H298 0.950 . S
C305 C302 1.387 . S
C306 C307 1.387 . S
C306 H310 0.950 . S
C306 C315 1.390 . S
C307 C306 1.387 . S
C307 C309 1.387 . S
H308 C315 0.950 . S
C309 C307 1.387 . S
C309 C311 1.390 . S
C309 H313 0.950 . S
H310 C306 0.950 . S
C311 C309 1.390 . S
C311 C312 1.387 . S
C311 H314 0.950 . S
C312 C311 1.387 . S
C312 C315 1.387 . S
H313 C309 0.950 . S
H314 C311 0.950 . S
C315 C306 1.390 . S
C315 H308 0.950 . S
C315 C312 1.387 . S
C316 C317 1.387 . S
C316 H320 0.950 . S
C316 C325 1.390 1_554 S
C317 C316 1.387 . S
C317 C319 1.387 . S
H318 C325 0.950 . S
C319 C317 1.387 . S
C319 C321 1.390 1_554 S
C319 H323 0.950 . S
H320 C316 0.950 . S
C321 C319 1.390 1_556 S
C321 C322 1.387 . S
C321 H324 0.950 . S
C322 C321 1.387 . S
C322 C325 1.387 . S
H323 C319 0.950 . S
H324 C321 0.950 . S
C325 C316 1.390 1_556 S
C325 H318 0.950 . S
C325 C322 1.387 . S
C326 C327 1.387 . S
C326 H330 0.950 . S
C326 C335 1.390 . S
C327 C326 1.387 . S
C327 C329 1.387 . S
H328 C335 0.950 . S
C329 C327 1.387 . S
C329 C331 1.390 . S
C329 H333 0.950 . S
H330 C326 0.950 . S
C331 C329 1.390 . S
C331 C332 1.387 . S
C331 H334 0.950 . S
C332 C331 1.387 . S
C332 C335 1.387 . S
H333 C329 0.950 . S
H334 C331 0.950 . S
C335 C326 1.390 . S
C335 H328 0.950 . S
C335 C332 1.387 . S
C336 C337 1.387 . S
C336 H340 0.950 . S
C336 C345 1.390 1_655 S
C337 C336 1.387 . S
C337 C339 1.387 1_556 S
H338 C345 0.950 . S
C339 C337 1.387 1_554 S
C339 C341 1.390 1_655 S
C339 H343 0.950 . S
H340 C336 0.950 . S
C341 C339 1.390 1_455 S
C341 C342 1.387 . S
C341 H344 0.950 . S
C342 C341 1.387 . S
C342 C345 1.387 1_554 S
H343 C339 0.950 . S
H344 C341 0.950 . S
C345 C336 1.390 1_455 S
C345 H338 0.950 . S
C345 C342 1.387 1_556 S
C346 C347 1.387 1_565 S
C346 H350 0.950 . S
C346 C355 1.377 1_455 S
C347 C346 1.387 1_545 S
C347 C349 1.400 . S
H348 C355 0.950 . S
C349 C347 1.400 . S
C349 C351 1.377 1_455 S
C349 H353 0.950 . S
H350 C346 0.950 . S
C351 C349 1.377 1_655 S
C351 C352 1.387 1_545 S
C351 H354 0.950 . S
C352 C351 1.387 1_565 S
C352 C355 1.400 . S
H353 C349 0.950 . S
H354 C351 0.950 . S
C355 C346 1.377 1_655 S
C355 H348 0.950 . S
C355 C352 1.400 . S
C356 C357 1.387 1_556 S
C356 H360 0.950 . S
C356 C365 1.390 1_545 S
C357 C356 1.387 1_554 S
C357 C359 1.387 . S
H358 C365 0.950 . S
C359 C357 1.387 . S
C359 C361 1.390 1_545 S
C359 H363 0.950 . S
H360 C356 0.950 . S
C361 C359 1.390 1_565 S
C361 C362 1.387 1_554 S
C361 H364 0.950 . S
C362 C361 1.387 1_556 S
C362 C365 1.387 . S
H363 C359 0.950 . S
H364 C361 0.950 . S
C365 C356 1.390 1_565 S
C365 H358 0.950 . S
C365 C362 1.387 . S
C366 C367 1.387 . S
C366 H370 0.950 . S
C366 C375 1.390 . S
C367 C366 1.387 . S
C367 C369 1.387 . S
H368 C375 0.950 . S
C369 C367 1.387 . S
C369 C371 1.390 . S
C369 H373 0.950 . S
H370 C366 0.950 . S
C371 C369 1.390 . S
C371 C372 1.387 . S
C371 H374 0.950 . S
C372 C371 1.387 . S
C372 C375 1.387 . S
H373 C369 0.950 . S
H374 C371 0.950 . S
C375 C366 1.390 . S
C375 H368 0.950 . S
C375 C372 1.387 . S
C376 C377 1.387 1_655 S
C376 H380 0.950 . S
C376 C385 1.390 1_545 S
C377 C376 1.387 1_455 S
C377 C379 1.387 1_556 S
H378 C385 0.950 . S
C379 C377 1.387 1_554 S
C379 C381 1.390 1_545 S
C379 H383 0.950 . S
H380 C376 0.950 . S
C381 C379 1.390 1_565 S
C381 C382 1.387 1_455 S
C381 H384 0.950 . S
C382 C381 1.387 1_655 S
C382 C385 1.387 1_554 S
H383 C379 0.950 . S
H384 C381 0.950 . S
C385 C376 1.390 1_565 S
C385 H378 0.950 . S
C385 C382 1.387 1_556 S
C386 C387 1.387 . S
C386 H390 0.950 . S
C386 C395 1.390 1_545 S
C387 C386 1.387 . S
C387 C389 1.387 . S
H388 C395 0.950 . S
C389 C387 1.387 . S
C389 C391 1.390 1_545 S
C389 H393 0.950 . S
H390 C386 0.950 . S
C391 C389 1.390 1_565 S
C391 C392 1.387 . S
C391 H394 0.950 . S
C392 C391 1.387 . S
C392 C395 1.387 . S
H393 C389 0.950 . S
H394 C391 0.950 . S
C395 C386 1.390 1_565 S
C395 H388 0.950 . S
C395 C392 1.387 . S
C396 C397 1.387 . S
C396 H400 0.950 . S
C396 C405 1.390 . S
C397 C396 1.387 . S
C397 C399 1.387 1_554 S
H398 C405 0.950 . S
C399 C397 1.387 1_556 S
C399 C401 1.390 . S
C399 H403 0.950 . S
H400 C396 0.950 . S
C401 C399 1.390 . S
C401 C402 1.387 . S
C401 H404 0.950 . S
C402 C401 1.387 . S
C402 C405 1.387 1_556 S
H403 C399 0.950 . S
H404 C401 0.950 . S
C405 C396 1.390 . S
C405 H398 0.950 . S
C405 C402 1.387 1_554 S
C406 C407 1.387 . S
C406 H410 0.950 . S
C406 C415 1.390 1_655 S
C407 C406 1.387 . S
C407 C409 1.387 . S
H408 C415 0.950 . S
C409 C407 1.387 . S
C409 C411 1.390 1_655 S
C409 H413 0.950 . S
H410 C406 0.950 . S
C411 C409 1.390 1_455 S
C411 C412 1.387 . S
C411 H414 0.950 . S
C412 C411 1.387 . S
C412 C415 1.387 . S
H413 C409 0.950 . S
H414 C411 0.950 . S
C415 C406 1.390 1_455 S
C415 H408 0.950 . S
C415 C412 1.387 . S
C177 C7 1.454 . S
C182 C84 1.453 . S
C187 C18 1.452 . S
C192 C51 1.452 . S
C197 C62 1.453 . S
C202 C29 1.453 . S
C207 C73 1.453 . S
C212 C40 1.452 . S
C217 C95 1.496 . S
C222 C172 1.498 . S
C227 C139 1.496 . S
C232 C106 1.497 . S
C237 C150 1.496 . S
C242 C117 1.497 . S
C247 C128 1.498 . S
C252 C161 1.496 . S
C257 C8 1.502 . S
C262 C52 1.502 . S
C267 C63 1.501 . S
C272 C19 1.501 . S
C277 C74 1.502 . S
C282 C30 1.502 . S
C287 C41 1.502 . S
C292 C85 1.502 . S
C297 C140 1.516 . S
C302 C96 1.516 . S
C307 C151 1.516 . S
C312 C107 1.516 . S
C317 C162 1.516 . S
C322 C118 1.516 . S
C327 C129 1.516 . S
C332 C173 1.516 . S
C337 C93 1.393 . S
C342 C5 1.255 . S
C347 C16 1.254 . S
C352 C104 1.396 . S
C357 C27 1.255 . S
C362 C115 1.393 . S
C367 C126 1.394 . S
C372 C38 1.253 . S
C377 C49 1.252 . S
C382 C137 1.397 . S
C387 C60 1.250 . S
C392 C148 1.398 . S
C397 C159 1.393 . S
C402 C71 1.256 . S
C407 C170 1.398 . S
C412 C82 1.251 . S
