# Generated by pormake.
# Topology uom, (4)-cn, num edge types: 1
# Building blocks:
#     Node 0, Type 0, BuildingBlock: KOZSID_clean_sbu_0, # of connection points: 4
#     Node 1, Type 0, BuildingBlock: KOZSID_clean_sbu_0, # of connection points: 4
#     Node 2, Type 0, BuildingBlock: KOZSID_clean_sbu_0, # of connection points: 4
#     Node 3, Type 0, BuildingBlock: KOZSID_clean_sbu_0, # of connection points: 4
#     Node 4, Type 0, BuildingBlock: KOZSID_clean_sbu_0, # of connection points: 4
#     Node 5, Type 0, BuildingBlock: KOZSID_clean_sbu_0, # of connection points: 4
#     Edge 6, Type (0, 0), BuildingBlock: FUNLAD_clean_linker_0, # of connection points: 2
#     Edge 7, Type (0, 0), BuildingBlock: FUNLAD_clean_linker_0, # of connection points: 2
#     Edge 8, Type (0, 0), BuildingBlock: FUNLAD_clean_linker_0, # of connection points: 2
#     Edge 9, Type (0, 0), BuildingBlock: FUNLAD_clean_linker_0, # of connection points: 2
#     Edge 10, Type (0, 0), BuildingBlock: FUNLAD_clean_linker_0, # of connection points: 2
#     Edge 11, Type (0, 0), BuildingBlock: FUNLAD_clean_linker_0, # of connection points: 2
#     Edge 12, Type (0, 0), BuildingBlock: FUNLAD_clean_linker_0, # of connection points: 2
#     Edge 13, Type (0, 0), BuildingBlock: FUNLAD_clean_linker_0, # of connection points: 2
#     Edge 14, Type (0, 0), BuildingBlock: FUNLAD_clean_linker_0, # of connection points: 2
#     Edge 15, Type (0, 0), BuildingBlock: FUNLAD_clean_linker_0, # of connection points: 2
#     Edge 16, Type (0, 0), BuildingBlock: FUNLAD_clean_linker_0, # of connection points: 2
#     Edge 17, Type (0, 0), BuildingBlock: FUNLAD_clean_linker_0, # of connection points: 2
# Relax obj value: 0.147
# Max RMSD: 0.171
# Mean RMSD: 0.171
data_MOF--net-uom--node1-KOZSID_clean_sbu_0--edge1-FUNLAD_clean_linker_0
_symmetry_space_group_name_H-M    P1
_symmetry_Int_Tables_number       1
_symmetry_cell_setting            triclinic
loop_
_symmetry_equiv_pos_as_xyz
'x, y, z'
_cell_length_a     42.760351
_cell_length_b     42.737118
_cell_length_c     48.662544
_cell_angle_alpha  89.985246
_cell_angle_beta   90.012456
_cell_angle_gamma 119.93342
loop_
_atom_site_label
_atom_site_type_symbol
_atom_site_fract_x
_atom_site_fract_y
_atom_site_fract_z
_atom_type_partial_charge
C0 C 0.35918 0.13149 0.09519 0.0
C1 C 0.35918 0.1138 0.11909 0.0
C2 C 0.36142 0.08409 0.11114 0.0
C3 C 0.36274 0.08532 0.0829 0.0
N4 N 0.36132 0.11388 0.07278 0.0
Co5 Co 0.36253 0.12607 0.03344 0.0
N6 N 0.3473 0.07605 0.02197 0.0
C7 C 0.34987 0.05116 0.03721 0.0
C8 C 0.33633 0.01861 0.02385 0.0
C9 C 0.32477 0.02357 0.99869 0.0
C10 C 0.33208 0.05906 0.99804 0.0
N11 N 0.36386 0.1383 0.99413 0.0
C12 C 0.34729 0.11624 0.97252 0.0
C13 C 0.35533 0.13584 0.94827 0.0
C14 C 0.3777 0.17145 0.95519 0.0
C15 C 0.38214 0.17159 0.98318 0.0
N16 N 0.37785 0.17612 0.04485 0.0
C17 C 0.3945 0.20564 0.02882 0.0
C18 C 0.40143 0.2366 0.04246 0.0
C19 C 0.38848 0.22576 0.06865 0.0
C20 C 0.37444 0.18865 0.06957 0.0
N21 N 0.41294 0.13817 0.03152 0.0
C22 C 0.48299 0.14892 0.03157 0.0
C23 C 0.45944 0.13109 0.00969 0.0
C24 C 0.4246 0.12602 0.01005 0.0
C25 C 0.47122 0.16264 0.05282 0.0
C26 C 0.4362 0.15712 0.05235 0.0
N27 N 0.31233 0.11371 0.03546 0.0
C28 C 0.26514 0.1265 0.02451 0.0
C29 C 0.24007 0.09503 0.03815 0.0
C30 C 0.25182 0.07313 0.05039 0.0
C31 C 0.28801 0.08285 0.04867 0.0
C32 C 0.30126 0.1355 0.02356 0.0
H33 H 0.2963 0.06529 0.05799 0.0
H34 H 0.32024 0.16002 0.01321 0.0
H35 H 0.40671 0.11124 0.99334 0.0
H36 H 0.42763 0.16735 0.06926 0.0
C37 C 0.35835 0.0573 0.06533 0.0
C38 C 0.35986 0.1662 0.09433 0.0
C39 C 0.32604 0.07668 0.97426 0.0
C40 C 0.39687 0.20213 1.0003 0.0
H41 H 0.35786 0.12163 0.14002 0.0
H42 H 0.36061 0.06331 0.12434 0.0
H43 H 0.33351 0.99372 0.03189 0.0
H44 H 0.31226 0.00332 0.98282 0.0
H45 H 0.34607 0.12549 0.92778 0.0
H46 H 0.38808 0.19454 0.94159 0.0
H47 H 0.413 0.26358 0.03408 0.0
H48 H 0.38928 0.24318 0.08509 0.0
H49 H 0.46731 0.11981 0.99292 0.0
H50 H 0.48877 0.1771 0.06991 0.0
H51 H 0.25699 0.14425 0.01503 0.0
H52 H 0.2331 0.04843 0.0609 0.0
C53 C 0.31935 0.35228 0.42972 0.0
C54 C 0.32907 0.34251 0.45409 0.0
C55 C 0.35371 0.33205 0.4473 0.0
C56 C 0.3577 0.33608 0.41927 0.0
N57 N 0.33705 0.34832 0.40815 0.0
Co58 Co 0.3343 0.35778 0.36863 0.0
N59 N 0.35363 0.32607 0.35761 0.0
C60 C 0.37238 0.31585 0.37393 0.0
C61 C 0.3832 0.29459 0.36051 0.0
C62 C 0.37073 0.29156 0.3341 0.0
C63 C 0.35286 0.31118 0.33285 0.0
N64 N 0.33171 0.36744 0.32908 0.0
C65 C 0.33265 0.34912 0.30664 0.0
C66 C 0.32973 0.36524 0.28273 0.0
C67 C 0.32767 0.395 0.29061 0.0
C68 C 0.32919 0.39536 0.3188 0.0
N69 N 0.315 0.38944 0.37984 0.0
C70 C 0.31444 0.4152 0.36433 0.0
C71 C 0.29847 0.43205 0.37752 0.0
C72 C 0.28851 0.41587 0.40288 0.0
C73 C 0.29913 0.39004 0.40378 0.0
N74 N 0.38333 0.39885 0.37021 0.0
C75 C 0.45363 0.45765 0.37241 0.0
C76 C 0.44248 0.43326 0.35043 0.0
C77 C 0.40735 0.4041 0.34975 0.0
C78 C 0.42876 0.45191 0.3933 0.0
C79 C 0.3938 0.42243 0.39179 0.0
N80 N 0.28551 0.31699 0.36717 0.0
C81 C 0.22327 0.29185 0.35446 0.0
C82 C 0.21478 0.25995 0.36834 0.0
C83 C 0.24238 0.25679 0.3811 0.0
C84 C 0.27762 0.2855 0.38005 0.0
C85 C 0.25884 0.32021 0.35428 0.0
H86 H 0.29845 0.28242 0.38998 0.0
H87 H 0.26469 0.34491 0.34407 0.0
H88 H 0.39964 0.38588 0.33253 0.0
H89 H 0.37523 0.4187 0.40815 0.0
C90 C 0.3745 0.32223 0.40236 0.0
C91 C 0.29537 0.36757 0.42785 0.0
C92 C 0.33899 0.31825 0.30731 0.0
C93 C 0.3223 0.41743 0.33618 0.0
H94 H 0.31941 0.34297 0.47456 0.0
H95 H 0.36591 0.32125 0.46102 0.0
H96 H 0.39758 0.28199 0.36905 0.0
H97 H 0.3749 0.27713 0.31755 0.0
H98 H 0.32931 0.35659 0.26178 0.0
H99 H 0.32411 0.41335 0.27738 0.0
H100 H 0.29298 0.45232 0.36922 0.0
H101 H 0.27478 0.42219 0.41871 0.0
H102 H 0.46054 0.43692 0.33358 0.0
H103 H 0.43628 0.46984 0.41083 0.0
H104 H 0.2025 0.29511 0.34434 0.0
H105 H 0.2368 0.23218 0.39161 0.0
C106 C 0.06846 0.31999 0.76039 0.0
C107 C 0.08804 0.33243 0.78459 0.0
C108 C 0.12079 0.3617 0.77767 0.0
C109 C 0.11938 0.36557 0.74973 0.0
N110 N 0.08784 0.34043 0.73879 0.0
Co111 Co 0.07427 0.33639 0.69957 0.0
N112 N 0.12534 0.36505 0.68801 0.0
C113 C 0.15316 0.38771 0.70401 0.0
C114 C 0.1855 0.40334 0.69018 0.0
C115 C 0.1773 0.38965 0.66393 0.0
C116 C 0.14027 0.36642 0.6632 0.0
N117 N 0.06083 0.33242 0.66031 0.0
C118 C 0.08106 0.33626 0.63783 0.0
C119 C 0.06116 0.33073 0.614 0.0
C120 C 0.02725 0.32311 0.62211 0.0
C121 C 0.02836 0.32448 0.65035 0.0
N122 N 0.0232 0.30792 0.71113 0.0
C123 C 0.99444 0.30222 0.69604 0.0
C124 C 0.96236 0.28088 0.70939 0.0
C125 C 0.97166 0.27296 0.73442 0.0
C126 C 0.00908 0.29015 0.73503 0.0
N127 N 0.07201 0.38072 0.70248 0.0
C128 C 0.075 0.44715 0.70817 0.0
C129 C 0.08919 0.43957 0.68485 0.0
C130 C 0.0874 0.40631 0.68239 0.0
C131 C 0.05787 0.4202 0.7281 0.0
C132 C 0.05667 0.38711 0.72487 0.0
N133 N 0.07697 0.29259 0.6964 0.0
C134 C 0.05599 0.23474 0.6754 0.0
C135 C 0.08748 0.23504 0.68373 0.0
C136 C 0.11256 0.26375 0.69987 0.0
C137 C 0.10668 0.29213 0.70611 0.0
C138 C 0.05117 0.26375 0.68208 0.0
H139 H 0.12702 0.31451 0.71772 0.0
H140 H 0.02729 0.26354 0.67473 0.0
H141 H 0.09925 0.40164 0.66443 0.0
H142 H 0.04411 0.36704 0.74077 0.0
C143 C 0.14869 0.38777 0.73262 0.0
C144 C 0.03068 0.29081 0.75883 0.0
C145 C 0.11956 0.34732 0.63862 0.0
C146 C -0.00154 0.31151 0.66802 0.0
H147 H 0.07945 0.32168 0.80507 0.0
H148 H 0.14336 0.37735 0.79125 0.0
H149 H 0.21209 0.42113 0.69849 0.0
H150 H 0.19638 0.39594 0.64735 0.0
H151 H 0.07019 0.33204 0.59304 0.0
H152 H 0.00413 0.31573 0.60901 0.0
H153 H 0.93537 0.27084 0.70144 0.0
H154 H 0.95298 0.25634 0.75025 0.0
H155 H 0.10192 0.45935 0.66864 0.0
H156 H 0.04652 0.42499 0.74643 0.0
H157 H 0.03552 0.21259 0.66346 0.0
H158 H 0.13732 0.26511 0.7067 0.0
C159 C 0.85164 0.07016 0.09492 0.0
C160 C 0.86492 0.09081 0.1186 0.0
C161 C 0.8748 0.12566 0.1115 0.0
C162 C 0.8674 0.12452 0.08393 0.0
N163 N 0.85362 0.09114 0.07335 0.0
Co164 Co 0.84092 0.07773 0.03427 0.0
N165 N 0.8719 0.12824 0.02194 0.0
C166 C 0.88364 0.1578 0.0378 0.0
C167 C 0.90411 0.18928 0.02349 0.0
C168 C 0.90503 0.17878 0.99698 0.0
C169 C 0.88504 0.14131 0.9966 0.0
N170 N 0.82793 0.06426 0.99525 0.0
C171 C 0.84467 0.08255 0.97206 0.0
C172 C 0.82644 0.06295 0.94889 0.0
C173 C 0.79701 0.03174 0.95807 0.0
C174 C 0.79893 0.03382 0.98624 0.0
N175 N 0.81011 0.02731 0.04671 0.0
C176 C 0.78274 0.00078 0.03252 0.0
C177 C 0.76659 0.96852 0.0465 0.0
C178 C 0.78502 0.97539 0.07094 0.0
C179 C 0.81155 0.01153 0.07044 0.0
N180 N 0.80032 0.08624 0.03801 0.0
C181 C 0.74279 0.09941 0.04358 0.0
C182 C 0.76517 0.1115 0.0204 0.0
C183 C 0.79371 0.10468 0.01803 0.0
C184 C 0.74975 0.08039 0.06386 0.0
C185 C 0.77858 0.07407 0.06067 0.0
N186 N 0.88127 0.06922 0.0306 0.0
C187 C 0.90511 0.03159 0.01598 0.0
C188 C 0.93807 0.05518 0.02841 0.0
C189 C 0.94242 0.0863 0.04136 0.0
C190 C 0.9138 0.09301 0.04198 0.0
C191 C 0.87686 0.03897 0.01751 0.0
H192 H 0.9178 0.11721 0.05202 0.0
H193 H 0.85132 0.01996 0.00848 0.0
H194 H 0.81044 0.11438 0.99996 0.0
H195 H 0.7834 0.05948 0.07665 0.0
C196 C 0.87988 0.15454 0.06648 0.0
C197 C 0.83603 0.03073 0.09342 0.0
C198 C 0.87616 0.11932 0.97149 0.0
C199 C 0.77808 0.00557 1.00458 0.0
H200 H 0.8677 0.08199 0.13881 0.0
H201 H 0.88778 0.14928 0.12455 0.0
H202 H 0.91773 0.21654 0.03149 0.0
H203 H 0.91844 0.19666 0.97984 0.0
H204 H 0.83351 0.07039 0.9276 0.0
H205 H 0.77742 0.0096 0.94566 0.0
H206 H 0.74512 0.94271 0.03931 0.0
H207 H 0.77959 0.95609 0.08723 0.0
H208 H 0.76047 0.12578 1.00398 0.0
H209 H 0.73339 0.07085 0.08226 0.0
H210 H 0.90098 0.00729 0.00578 0.0
H211 H 0.96784 0.10536 0.05084 0.0
C212 C 0.87607 0.83493 0.42223 0.0
C213 C 0.8587 0.83665 0.44582 0.0
C214 C 0.82796 0.83647 0.43739 0.0
C215 C 0.8283 0.83492 0.40921 0.0
N216 N 0.85753 0.83445 0.39948 0.0
Co217 Co 0.86863 0.83264 0.36015 0.0
N218 N 0.83545 0.84976 0.34827 0.0
C219 C 0.80819 0.84815 0.36317 0.0
C220 C 0.78969 0.86191 0.34935 0.0
C221 C 0.80637 0.87269 0.32422 0.0
C222 C 0.83431 0.86501 0.32417 0.0
N223 N 0.87956 0.83076 0.32078 0.0
C224 C 0.87516 0.84793 0.29896 0.0
C225 C 0.88793 0.84035 0.2751 0.0
C226 C 0.89998 0.81711 0.28235 0.0
C227 C 0.89427 0.812 0.31016 0.0
N228 N 0.90175 0.81543 0.372 0.0
C229 C 0.91384 0.79793 0.35611 0.0
C230 C 0.93608 0.78882 0.37007 0.0
C231 C 0.93786 0.80121 0.39639 0.0
C232 C 0.91659 0.81733 0.397 0.0
N233 N 0.82899 0.78287 0.35813 0.0
C234 C 0.76674 0.71487 0.35836 0.0
C235 C 0.77453 0.7384 0.33609 0.0
C236 C 0.80568 0.77219 0.33638 0.0
C237 C 0.79194 0.7253 0.37976 0.0
C238 C 0.82296 0.75932 0.37918 0.0
N239 N 0.90773 0.88229 0.36209 0.0
C240 C 0.96723 0.92827 0.34895 0.0
C241 C 0.96119 0.95471 0.36067 0.0
C242 C 0.9283 0.94406 0.3738 0.0
C243 C 0.90195 0.90774 0.37427 0.0
C244 C 0.94019 0.89214 0.35004 0.0
H245 H 0.87652 0.90037 0.38391 0.0
H246 H 0.94523 0.87224 0.34065 0.0
H247 H 0.81023 0.79016 0.31939 0.0
H248 H 0.84136 0.76707 0.3963 0.0
C249 C 0.80548 0.8401 0.39134 0.0
C250 C 0.90853 0.83124 0.42206 0.0
C251 C 0.85752 0.86998 0.30036 0.0
C252 C 0.90874 0.79622 0.32755 0.0
H253 H 0.86719 0.83779 0.46691 0.0
H254 H 0.8085 0.83867 0.45026 0.0
H255 H 0.76771 0.86516 0.357 0.0
H256 H 0.79878 0.88467 0.3078 0.0
H257 H 0.88886 0.85066 0.25465 0.0
H258 H 0.91312 0.80678 0.26913 0.0
H259 H 0.95034 0.77589 0.36191 0.0
H260 H 0.95279 0.79838 0.41324 0.0
H261 H 0.75629 0.73114 0.31877 0.0
H262 H 0.78705 0.70804 0.39743 0.0
H263 H 0.9926 0.93546 0.33898 0.0
H264 H 0.92254 0.96373 0.38297 0.0
C265 C 0.12795 0.88643 0.76285 0.0
C266 C 0.10795 0.88392 0.78607 0.0
C267 C 0.0726 0.86673 0.77821 0.0
C268 C 0.07295 0.85961 0.7508 0.0
N269 N 0.10639 0.87086 0.74068 0.0
Co270 Co 0.11915 0.86662 0.70167 0.0
N271 N 0.06765 0.84557 0.68939 0.0
C272 C 0.03864 0.83678 0.70553 0.0
C273 C 0.00711 0.82467 0.69115 0.0
C274 C 0.01659 0.82639 0.66418 0.0
C275 C 0.05352 0.83941 0.66365 0.0
N276 N 0.13192 0.86297 0.66255 0.0
C277 C 0.11177 0.85555 0.63934 0.0
C278 C 0.13152 0.85775 0.61609 0.0
C279 C 0.1656 0.86775 0.62481 0.0
C280 C 0.16472 0.87099 0.65279 0.0
N281 N 0.17068 0.88785 0.71389 0.0
C282 C 0.19907 0.89329 0.69815 0.0
C283 C 0.23136 0.90956 0.71188 0.0
C284 C 0.22324 0.91515 0.73788 0.0
C285 C 0.18623 0.90174 0.73862 0.0
N286 N 0.1106 0.81712 0.7093 0.0
C287 C 0.0966 0.74582 0.71691 0.0
C288 C 0.12787 0.77154 0.70366 0.0
C289 C 0.13429 0.80662 0.70018 0.0
C290 C 0.07303 0.75663 0.72717 0.0
C291 C 0.08053 0.79209 0.72321 0.0
N292 N 0.12747 0.91538 0.69386 0.0
C293 C 0.162 0.97326 0.67166 0.0
C294 C 0.13563 0.98208 0.67828 0.0
C295 C 0.10583 0.95764 0.69368 0.0
C296 C 0.10241 0.92474 0.70135 0.0
C297 C 0.15739 0.93988 0.6796 0.0
H298 H 0.07909 0.90706 0.71302 0.0
H299 H 0.17801 0.93419 0.67361 0.0
H300 H 0.15854 0.8245 0.68987 0.0
H301 H 0.06127 0.79824 0.73138 0.0
C302 C 0.04259 0.84409 0.73372 0.0
C303 C 0.16733 0.90394 0.76298 0.0
C304 C 0.07437 0.84759 0.63824 0.0
C305 C 0.1949 0.88513 0.67006 0.0
H306 H 0.1179 0.89377 0.80653 0.0
H307 H 0.04946 0.86075 0.79087 0.0
H308 H 0.98069 0.81712 0.69922 0.0
H309 H -0.00147 0.81993 0.64686 0.0
H310 H 0.12243 0.85351 0.59495 0.0
H311 H 0.18865 0.87346 0.61214 0.0
H312 H 0.25782 0.9174 0.70372 0.0
H313 H 0.24255 0.92831 0.75427 0.0
H314 H 0.14746 0.76468 0.69593 0.0
H315 H 0.04839 0.73763 0.7376 0.0
H316 H 0.18564 0.99163 0.6599 0.0
H317 H 0.08524 0.96392 0.69989 0.0
C318 C 0.38316 0.20735 0.13533 0.0
C319 C 0.35384 0.18149 0.11997 0.0
C320 C 0.37746 0.22157 0.15955 0.0
C321 C 0.34215 0.21022 0.16892 0.0
C322 C 0.31294 0.18367 0.15368 0.0
C323 C 0.31871 0.16946 0.12948 0.0
C324 C 0.33462 0.22444 0.19474 0.0
C325 C 0.3585 0.25605 0.20671 0.0
C326 C 0.3516 0.27105 0.23238 0.0
C327 C 0.37574 0.30732 0.23915 0.0
C328 C 0.37132 0.32263 0.26321 0.0
C329 C 0.3425 0.30212 0.28111 0.0
H330 H 0.30413 0.22212 0.2468 0.0
C331 C 0.31847 0.2658 0.27474 0.0
C332 C 0.32288 0.25035 0.25062 0.0
H333 H 0.29645 0.24932 0.28857 0.0
H334 H 0.41053 0.21641 0.12862 0.0
H335 H 0.40087 0.24089 0.17098 0.0
H336 H 0.28548 0.17398 0.16045 0.0
H337 H 0.29572 0.14917 0.1181 0.0
H338 H 0.30777 0.20876 0.20337 0.0
H339 H 0.38432 0.27285 0.19677 0.0
H340 H 0.39833 0.32395 0.22583 0.0
H341 H 0.39066 0.3505 0.268 0.0
C342 C 0.24285 0.33693 0.46024 0.0
C343 C 0.27508 0.36789 0.45262 0.0
C344 C 0.22409 0.33698 0.4839 0.0
C345 C 0.23756 0.36804 0.50063 0.0
C346 C 0.26997 0.3989 0.4928 0.0
C347 C 0.28861 0.39878 0.46919 0.0
C348 C 0.21864 0.37011 0.5259 0.0
C349 C 0.19199 0.34131 0.53917 0.0
C350 C 0.1738 0.34394 0.56469 0.0
C351 C 0.15455 0.313 0.58118 0.0
C352 C 0.13699 0.31413 0.60517 0.0
C353 C 0.13827 0.34624 0.61318 0.0
H354 H 0.18759 0.40014 0.56022 0.0
C355 C 0.15679 0.37705 0.59663 0.0
C356 C 0.17431 0.37596 0.57261 0.0
H357 H 0.15751 0.40193 0.60226 0.0
H358 H 0.23207 0.31275 0.44774 0.0
H359 H 0.19894 0.31281 0.48862 0.0
H360 H 0.28111 0.42326 0.50509 0.0
H361 H 0.31369 0.42283 0.46387 0.0
H362 H 0.2284 0.39685 0.53444 0.0
H363 H 0.18394 0.31433 0.53193 0.0
H364 H 0.15323 0.28784 0.57557 0.0
H365 H 0.12251 0.28996 0.61755 0.0
C366 C 0.92754 0.1486 0.93784 0.0
C367 C 0.89167 0.13766 0.94477 0.0
C368 C 0.94278 0.16788 0.91349 0.0
C369 C 0.92235 0.1767 0.89558 0.0
C370 C 0.8865 0.16582 0.90285 0.0
C371 C 0.87137 0.1466 0.92713 0.0
C372 C 0.93751 0.19857 0.86995 0.0
C373 C 0.96778 0.20382 0.85707 0.0
C374 C 0.98263 0.22601 0.83153 0.0
C375 C 0.00668 0.22077 0.81504 0.0
C376 C 0.02183 0.24146 0.79129 0.0
C377 C 0.01329 0.2679 0.78347 0.0
H378 H 0.95742 0.25913 0.83631 0.0
C379 C 0.98988 0.27379 0.80008 0.0
C380 C 0.97465 0.2531 0.82382 0.0
H381 H 0.98376 0.29481 0.79486 0.0
H382 H 0.94391 0.14262 0.95149 0.0
H383 H 0.97075 0.1765 0.90927 0.0
H384 H 0.87013 0.17247 0.88977 0.0
H385 H 0.84388 0.13915 0.93237 0.0
H386 H 0.92205 0.20978 0.86088 0.0
H387 H 0.98175 0.19028 0.86475 0.0
H388 H 0.01379 0.20054 0.82055 0.0
H389 H 0.04034 0.23691 0.77904 0.0
C390 C 0.8249 0.00922 0.14263 0.0
C391 C 0.83954 0.00985 0.11665 0.0
C392 C 0.8281 0.98931 0.16426 0.0
C393 C 0.84553 0.96908 0.16023 0.0
C394 C 0.85909 0.96887 0.13394 0.0
C395 C 0.85628 0.98915 0.11242 0.0
C396 C 0.84849 0.94664 0.18255 0.0
C397 C 0.85026 0.95481 0.20954 0.0
C398 C 0.85317 0.9325 0.23198 0.0
C399 C 0.86905 0.94908 0.25712 0.0
C400 C 0.87112 0.92885 0.279 0.0
C401 C 0.8571 0.89151 0.27634 0.0
H402 H 0.82524 0.8809 0.21082 0.0
C403 C 0.84052 0.87467 0.25147 0.0
C404 C 0.83881 0.89493 0.22944 0.0
H405 H 0.82829 0.84568 0.24925 0.0
H406 H 0.81068 0.0239 0.14613 0.0
H407 H 0.81611 0.98915 0.18389 0.0
H408 H 0.87215 0.95314 0.13007 0.0
H409 H 0.8672 0.98871 0.09242 0.0
H410 H 0.85102 0.9236 0.17632 0.0
H411 H 0.85122 0.97975 0.21554 0.0
H412 H 0.8799 0.97783 0.25986 0.0
H413 H 0.88342 0.94233 0.29815 0.0
C414 C 0.0326 0.81658 0.5984 0.0
C415 C 0.05789 0.84859 0.61146 0.0
C416 C 0.01675 0.81771 0.57345 0.0
C417 C 0.02581 0.85107 0.56106 0.0
C418 C 0.05179 0.88298 0.57405 0.0
C419 C 0.06761 0.88178 0.59896 0.0
C420 C 0.00963 0.85393 0.53448 0.0
C421 C 0.97848 0.82719 0.52379 0.0
C422 C 0.96146 0.82985 0.49758 0.0
C423 C 0.92566 0.80301 0.49197 0.0
C424 C 0.90848 0.80369 0.46767 0.0
C425 C 0.92657 0.83138 0.44836 0.0
H426 H 0.00761 0.87802 0.48072 0.0
C427 C 0.96246 0.85797 0.45352 0.0
C428 C 0.97979 0.85731 0.47786 0.0
H429 H 0.97715 0.87917 0.4386 0.0
H430 H 0.02512 0.79066 0.60755 0.0
H431 H -0.00213 0.79236 0.56392 0.0
H432 H 0.05971 0.90906 0.565 0.0
H433 H 0.08727 0.9068 0.60862 0.0
H434 H 0.02339 0.87983 0.52413 0.0
H435 H 0.96355 0.80223 0.53525 0.0
H436 H 0.91084 0.78126 0.50645 0.0
H437 H 0.88104 0.7824 0.46385 0.0
C438 C 0.31705 0.0378 0.9328 0.0
C439 C 0.30453 0.05553 0.95006 0.0
C440 C 0.29765 0.01964 0.90919 0.0
C441 C 0.26522 0.0189 0.9023 0.0
C442 C 0.25314 0.03712 0.91957 0.0
C443 C 0.27256 0.05524 0.94314 0.0
C444 C 0.24404 0.00098 0.87686 0.0
C445 C 0.24717 0.97572 0.8623 0.0
C446 C 0.22598 0.95785 0.83686 0.0
C447 C 0.22338 0.9252 0.82822 0.0
C448 C 0.2044 0.90774 0.80432 0.0
C449 C 0.18789 0.92272 0.78831 0.0
H450 H 0.21145 0.99838 0.82592 0.0
C451 C 0.19048 0.95537 0.79667 0.0
C452 C 0.20942 0.97287 0.82062 0.0
H453 H 0.17799 0.96743 0.78454 0.0
H454 H 0.34224 0.03859 0.93733 0.0
H455 H 0.30879 0.00715 0.89615 0.0
H456 H 0.22858 0.03748 0.91476 0.0
H457 H 0.26275 0.06928 0.95592 0.0
H458 H 0.2241 0.00819 0.8706 0.0
H459 H 0.26501 0.96638 0.86977 0.0
H460 H 0.23596 0.913 0.84008 0.0
H461 H 0.2026 0.88249 0.79831 0.0
C462 C 0.18324 0.0856 0.01622 0.0
C463 C 0.20182 0.08511 0.03983 0.0
C464 C 0.14707 0.07637 0.01791 0.0
C465 C 0.129 0.06666 0.04332 0.0
C466 C 0.14771 0.06644 0.06691 0.0
C467 C 0.18373 0.07526 0.06516 0.0
C468 C 0.09165 0.05956 0.04628 0.0
C469 C 0.06688 0.04502 0.02614 0.0
C470 C 0.03115 0.04271 0.02761 0.0
C471 C 0.0131 0.04068 1.00297 0.0
C472 C 0.98172 0.04311 1.00321 0.0
C473 C 0.9681 0.04772 0.02813 0.0
H474 H 0.02755 0.0443 0.07226 0.0
C475 C 0.9847 0.04746 0.05288 0.0
C476 C 0.01569 0.04453 0.05269 0.0
H477 H 0.97399 0.05016 0.07236 0.0
H478 H 0.19669 0.09307 0.99646 0.0
H479 H 0.13376 0.07794 0.99947 0.0
H480 H 0.13445 0.05956 0.08676 0.0
H481 H 0.19768 0.07509 0.08371 0.0
H482 H 0.08521 0.06772 0.06557 0.0
H483 H 0.07391 0.03683 0.00706 0.0
H484 H 0.02412 0.03878 0.9834 0.0
H485 H 0.96909 0.04308 0.9839 0.0
C486 C 0.99701 0.01567 0.38199 0.0
C487 C 0.98873 0.99331 0.35887 0.0
C488 C 0.0228 0.0522 0.38033 0.0
C489 C 0.04061 0.06724 0.35532 0.0
C490 C 0.03224 0.04474 0.33224 0.0
C491 C 0.00655 0.00814 0.33396 0.0
C492 C 0.06971 0.10542 0.35281 0.0
C493 C 0.07643 0.13107 0.37166 0.0
C494 C 0.10958 0.1667 0.37055 0.0
C495 C 0.12826 0.18187 0.39506 0.0
C496 C 0.16215 0.21291 0.39441 0.0
C497 C 0.17745 0.22962 0.36926 0.0
H498 H 0.10968 0.17383 0.32636 0.0
C499 C 0.15772 0.21587 0.3449 0.0
C500 C 0.12403 0.1845 0.3455 0.0
H501 H 0.16902 0.22851 0.3253 0.0
H502 H 0.98401 0.00473 0.40154 0.0
H503 H 0.02908 0.06797 0.39894 0.0
H504 H 0.04572 0.05547 0.31279 0.0
H505 H 0.00037 0.99151 0.31574 0.0
H506 H 0.08751 0.1122 0.33515 0.0
H507 H 0.05963 0.12511 0.38975 0.0
H508 H 0.11742 0.16872 0.4146 0.0
H509 H 0.17678 0.22345 0.41348 0.0
C510 C 0.11027 0.19263 0.69356 0.0
C511 C 0.09483 0.20623 0.67503 0.0
C512 C 0.11826 0.16627 0.68526 0.0
C513 C 0.11106 0.15297 0.65818 0.0
C514 C 0.09513 0.1661 0.63976 0.0
C515 C 0.08733 0.19274 0.64802 0.0
C516 C 0.11672 0.12296 0.64978 0.0
C517 C 0.14238 0.1178 0.66129 0.0
C518 C 0.14216 0.08309 0.66021 0.0
C519 C 0.17285 0.08218 0.66933 0.0
C520 C 0.17141 0.04925 0.67392 0.0
C521 C 0.13908 0.01673 0.66968 0.0
H522 H 0.08591 0.0496 0.64786 0.0
C523 C 0.10903 0.01755 0.65902 0.0
C524 C 0.11045 0.05037 0.65438 0.0
H525 H 0.08394 0.99273 0.65524 0.0
H526 H 0.11562 0.20194 0.71465 0.0
H527 H 0.12904 0.1556 0.70039 0.0
H528 H 0.08882 0.1558 0.61894 0.0
H529 H 0.07581 0.20305 0.63321 0.0
H530 H 0.09819 0.10399 0.63477 0.0
H531 H 0.16294 0.13899 0.67402 0.0
H532 H 0.1975 0.10697 0.67416 0.0
H533 H 0.19493 0.04927 0.68221 0.0
C534 C 0.7162 0.13983 0.0383 0.0
C535 C 0.71226 0.10646 0.04639 0.0
C536 C 0.68718 0.1461 0.04005 0.0
C537 C 0.65349 0.11901 0.04985 0.0
C538 C 0.64985 0.08608 0.05866 0.0
C539 C 0.67884 0.07976 0.05683 0.0
C540 C 0.62169 0.12418 0.0514 0.0
C541 C 0.61699 0.14657 0.03461 0.0
C542 C 0.5837 0.14926 0.03478 0.0
C543 C 0.57255 0.15818 0.01033 0.0
C544 C 0.54024 0.15888 0.00935 0.0
C545 C 0.51869 0.15114 0.03296 0.0
H546 H 0.57115 0.13703 0.07811 0.0
C547 C 0.53063 0.14371 0.05773 0.0
C548 C 0.56282 0.14284 0.05867 0.0
H549 H 0.51457 0.13752 0.07625 0.0
H550 H 0.74186 0.16129 0.03081 0.0
H551 H 0.69144 0.17231 0.03401 0.0
H552 H 0.62426 0.06485 0.06648 0.0
H553 H 0.6748 0.05366 0.06305 0.0
H554 H 0.60025 0.10683 0.06545 0.0
H555 H 0.6367 0.16123 0.01865 0.0
H556 H 0.5884 0.16372 0.99174 0.0
H557 H 0.53199 0.16521 0.99007 0.0
C558 C 0.69979 0.68026 0.35169 0.0
C559 C 0.73153 0.68082 0.36004 0.0
C560 C 0.66635 0.64886 0.35405 0.0
C561 C 0.66375 0.61727 0.36521 0.0
C562 C 0.6955 0.61755 0.37303 0.0
C563 C 0.72906 0.64904 0.37061 0.0
C564 C 0.62849 0.58344 0.36813 0.0
C565 C 0.59702 0.58326 0.37085 0.0
C566 C 0.56105 0.55 0.37249 0.0
C567 C 0.55507 0.51594 0.36403 0.0
C568 C 0.52034 0.48589 0.36453 0.0
C569 C 0.49076 0.48921 0.37319 0.0
H570 H 0.5352 0.57907 0.38781 0.0
C571 C 0.4968 0.52314 0.38182 0.0
C572 C 0.53151 0.55315 0.38142 0.0
H573 H 0.47456 0.52678 0.38823 0.0
H574 H 0.70063 0.70432 0.34368 0.0
H575 H 0.64276 0.64951 0.34683 0.0
H576 H 0.69432 0.59344 0.3813 0.0
H577 H 0.75306 0.64845 0.37689 0.0
H578 H 0.62897 0.55833 0.369 0.0
H579 H 0.59741 0.60878 0.37254 0.0
H580 H 0.57674 0.51226 0.35637 0.0
H581 H 0.51666 0.46005 0.35797 0.0
C582 C 0.09496 0.69121 0.69691 0.0
C583 C 0.08846 0.70791 0.71929 0.0
C584 C 0.08852 0.65599 0.69908 0.0
C585 C 0.07566 0.63668 0.72381 0.0
C586 C 0.06783 0.65278 0.74587 0.0
C587 C 0.07432 0.68818 0.7437 0.0
C588 C 0.07007 0.59969 0.7268 0.0
C589 C 0.09129 0.58953 0.71372 0.0
C590 C 0.08667 0.55278 0.71491 0.0
C591 C 0.11571 0.54849 0.7066 0.0
C592 C 0.11206 0.51429 0.7051 0.0
C593 C 0.07912 0.48344 0.7117 0.0
H594 H 0.03055 0.52403 0.72811 0.0
C595 C 0.0502 0.48762 0.72071 0.0
C596 C 0.05384 0.52199 0.7222 0.0
H597 H 0.0244 0.46425 0.72568 0.0
H598 H 0.1048 0.70531 0.67756 0.0
H599 H 0.09339 0.64388 0.68124 0.0
H600 H 0.05749 0.63827 0.76501 0.0
H601 H 0.06902 0.70035 0.76129 0.0
H602 H 0.04939 0.58141 0.74096 0.0
H603 H 0.11405 0.60949 0.70182 0.0
H604 H 0.14129 0.5717 0.70088 0.0
H605 H 0.13504 0.51198 0.69856 0.0
loop_
_geom_bond_atom_site_label_1
_geom_bond_atom_site_label_2
_geom_bond_distance
_geom_bond_site_symmetry_2
_ccdc_geom_bond_type
C0 C1 1.443 . S
C0 N4 1.376 . S
C0 C38 1.389 . S
C1 C0 1.443 . S
C1 C2 1.340 . S
C1 H41 0.951 . S
C2 C1 1.340 . S
C2 C3 1.439 . S
C2 H42 0.950 . S
C3 C2 1.439 . S
C3 N4 1.374 . S
C3 C37 1.395 . S
N4 C0 1.376 . S
N4 C3 1.374 . S
N4 Co5 2.008 . S
Co5 N4 2.008 . S
Co5 N6 1.995 . S
Co5 N11 2.008 1_554 S
Co5 N16 1.995 . S
Co5 N21 2.282 . S
Co5 N27 2.282 . S
N6 Co5 1.995 . S
N6 C7 1.376 . S
N6 C10 1.383 1_554 S
C7 N6 1.376 . S
C7 C8 1.446 . S
C7 C37 1.391 . S
C8 C7 1.446 . S
C8 C9 1.339 1_554 S
C8 H43 0.949 . S
C9 C8 1.339 1_556 S
C9 C10 1.439 . S
C9 H44 0.950 . S
C10 N6 1.383 1_556 S
C10 C9 1.439 . S
C10 C39 1.392 . S
N11 Co5 2.008 1_556 S
N11 C12 1.376 . S
N11 C15 1.374 . S
C12 N11 1.376 . S
C12 C13 1.443 . S
C12 C39 1.389 . S
C13 C12 1.443 . S
C13 C14 1.340 . S
C13 H45 0.951 . S
C14 C13 1.340 . S
C14 C15 1.439 . S
C14 H46 0.950 . S
C15 N11 1.374 . S
C15 C14 1.439 . S
C15 C40 1.395 . S
N16 Co5 1.995 . S
N16 C17 1.376 . S
N16 C20 1.383 . S
C17 N16 1.376 . S
C17 C18 1.446 . S
C17 C40 1.391 1_554 S
C18 C17 1.446 . S
C18 C19 1.339 . S
C18 H47 0.949 . S
C19 C18 1.339 . S
C19 C20 1.439 . S
C19 H48 0.950 . S
C20 N16 1.383 . S
C20 C19 1.439 . S
C20 C38 1.392 . S
N21 Co5 2.282 . S
N21 C24 1.332 . S
N21 C26 1.332 . S
C22 C23 1.386 . S
C22 C25 1.388 . S
C23 C22 1.386 . S
C23 C24 1.382 . S
C23 H49 0.950 . S
C24 N21 1.332 . S
C24 C23 1.382 . S
C24 H35 0.952 . S
C25 C22 1.388 . S
C25 C26 1.382 . S
C25 H50 0.950 . S
C26 N21 1.332 . S
C26 C25 1.382 . S
C26 H36 0.948 . S
N27 Co5 2.282 . S
N27 C31 1.332 . S
N27 C32 1.332 . S
C28 C29 1.388 . S
C28 C32 1.382 . S
C28 H51 0.950 . S
C29 C28 1.388 . S
C29 C30 1.386 . S
C30 C29 1.386 . S
C30 C31 1.382 . S
C30 H52 0.950 . S
C31 N27 1.332 . S
C31 C30 1.382 . S
C31 H33 0.952 . S
C32 N27 1.332 . S
C32 C28 1.382 . S
C32 H34 0.948 . S
H33 C31 0.952 . S
H34 C32 0.948 . S
H35 C24 0.952 . S
H36 C26 0.948 . S
C37 C3 1.395 . S
C37 C7 1.391 . S
C38 C0 1.389 . S
C38 C20 1.392 . S
C39 C10 1.392 . S
C39 C12 1.389 . S
C40 C15 1.395 . S
C40 C17 1.391 1_556 S
H41 C1 0.951 . S
H42 C2 0.950 . S
H43 C8 0.949 . S
H44 C9 0.950 . S
H45 C13 0.951 . S
H46 C14 0.950 . S
H47 C18 0.949 . S
H48 C19 0.950 . S
H49 C23 0.950 . S
H50 C25 0.950 . S
H51 C28 0.950 . S
H52 C30 0.950 . S
C53 C54 1.443 . S
C53 N57 1.376 . S
C53 C91 1.389 . S
C54 C53 1.443 . S
C54 C55 1.340 . S
C54 H94 0.951 . S
C55 C54 1.340 . S
C55 C56 1.439 . S
C55 H95 0.950 . S
C56 C55 1.439 . S
C56 N57 1.374 . S
C56 C90 1.395 . S
N57 C53 1.376 . S
N57 C56 1.374 . S
N57 Co58 2.008 . S
Co58 N57 2.008 . S
Co58 N59 1.995 . S
Co58 N64 2.008 . S
Co58 N69 1.995 . S
Co58 N74 2.282 . S
Co58 N80 2.282 . S
N59 Co58 1.995 . S
N59 C60 1.376 . S
N59 C63 1.383 . S
C60 N59 1.376 . S
C60 C61 1.446 . S
C60 C90 1.391 . S
C61 C60 1.446 . S
C61 C62 1.339 . S
C61 H96 0.949 . S
C62 C61 1.339 . S
C62 C63 1.439 . S
C62 H97 0.950 . S
C63 N59 1.383 . S
C63 C62 1.439 . S
C63 C92 1.392 . S
N64 Co58 2.008 . S
N64 C65 1.376 . S
N64 C68 1.374 . S
C65 N64 1.376 . S
C65 C66 1.443 . S
C65 C92 1.389 . S
C66 C65 1.443 . S
C66 C67 1.340 . S
C66 H98 0.951 . S
C67 C66 1.340 . S
C67 C68 1.439 . S
C67 H99 0.950 . S
C68 N64 1.374 . S
C68 C67 1.439 . S
C68 C93 1.395 . S
N69 Co58 1.995 . S
N69 C70 1.376 . S
N69 C73 1.383 . S
C70 N69 1.376 . S
C70 C71 1.446 . S
C70 C93 1.391 . S
C71 C70 1.446 . S
C71 C72 1.339 . S
C71 H100 0.949 . S
C72 C71 1.339 . S
C72 C73 1.439 . S
C72 H101 0.950 . S
C73 N69 1.383 . S
C73 C72 1.439 . S
C73 C91 1.392 . S
N74 Co58 2.282 . S
N74 C77 1.332 . S
N74 C79 1.332 . S
C75 C76 1.386 . S
C75 C78 1.388 . S
C76 C75 1.386 . S
C76 C77 1.382 . S
C76 H102 0.950 . S
C77 N74 1.332 . S
C77 C76 1.382 . S
C77 H88 0.952 . S
C78 C75 1.388 . S
C78 C79 1.382 . S
C78 H103 0.950 . S
C79 N74 1.332 . S
C79 C78 1.382 . S
C79 H89 0.948 . S
N80 Co58 2.282 . S
N80 C84 1.332 . S
N80 C85 1.332 . S
C81 C82 1.388 . S
C81 C85 1.382 . S
C81 H104 0.950 . S
C82 C81 1.388 . S
C82 C83 1.386 . S
C83 C82 1.386 . S
C83 C84 1.382 . S
C83 H105 0.950 . S
C84 N80 1.332 . S
C84 C83 1.382 . S
C84 H86 0.952 . S
C85 N80 1.332 . S
C85 C81 1.382 . S
C85 H87 0.948 . S
H86 C84 0.952 . S
H87 C85 0.948 . S
H88 C77 0.952 . S
H89 C79 0.948 . S
C90 C56 1.395 . S
C90 C60 1.391 . S
C91 C53 1.389 . S
C91 C73 1.392 . S
C92 C63 1.392 . S
C92 C65 1.389 . S
C93 C68 1.395 . S
C93 C70 1.391 . S
H94 C54 0.951 . S
H95 C55 0.950 . S
H96 C61 0.949 . S
H97 C62 0.950 . S
H98 C66 0.951 . S
H99 C67 0.950 . S
H100 C71 0.949 . S
H101 C72 0.950 . S
H102 C76 0.950 . S
H103 C78 0.950 . S
H104 C81 0.950 . S
H105 C83 0.950 . S
C106 C107 1.443 . S
C106 N110 1.376 . S
C106 C144 1.389 1_455 S
C107 C106 1.443 . S
C107 C108 1.340 . S
C107 H147 0.951 . S
C108 C107 1.340 . S
C108 C109 1.439 . S
C108 H148 0.950 . S
C109 C108 1.439 . S
C109 N110 1.374 . S
C109 C143 1.395 . S
N110 C106 1.376 . S
N110 C109 1.374 . S
N110 Co111 2.008 . S
Co111 N110 2.008 . S
Co111 N112 1.995 . S
Co111 N117 2.008 . S
Co111 N122 1.995 1_455 S
Co111 N127 2.282 . S
Co111 N133 2.282 . S
N112 Co111 1.995 . S
N112 C113 1.376 . S
N112 C116 1.383 . S
C113 N112 1.376 . S
C113 C114 1.446 . S
C113 C143 1.391 . S
C114 C113 1.446 . S
C114 C115 1.339 . S
C114 H149 0.949 . S
C115 C114 1.339 . S
C115 C116 1.439 . S
C115 H150 0.950 . S
C116 N112 1.383 . S
C116 C115 1.439 . S
C116 C145 1.392 . S
N117 Co111 2.008 . S
N117 C118 1.376 . S
N117 C121 1.374 1_455 S
C118 N117 1.376 . S
C118 C119 1.443 . S
C118 C145 1.389 . S
C119 C118 1.443 . S
C119 C120 1.340 1_455 S
C119 H151 0.951 . S
C120 C119 1.340 1_655 S
C120 C121 1.439 . S
C120 H152 0.950 . S
C121 N117 1.374 1_655 S
C121 C120 1.439 . S
C121 C146 1.395 . S
N122 Co111 1.995 1_655 S
N122 C123 1.376 . S
N122 C126 1.383 . S
C123 N122 1.376 . S
C123 C124 1.446 . S
C123 C146 1.391 . S
C124 C123 1.446 . S
C124 C125 1.339 . S
C124 H153 0.949 . S
C125 C124 1.339 . S
C125 C126 1.439 . S
C125 H154 0.950 . S
C126 N122 1.383 . S
C126 C125 1.439 . S
C126 C144 1.392 . S
N127 Co111 2.282 . S
N127 C130 1.332 1_455 S
N127 C132 1.332 . S
C128 C129 1.386 1_455 S
C128 C131 1.388 . S
C129 C128 1.386 1_655 S
C129 C130 1.382 . S
C129 H155 0.950 . S
C130 N127 1.332 1_655 S
C130 C129 1.382 . S
C130 H141 0.952 . S
C131 C128 1.388 . S
C131 C132 1.382 . S
C131 H156 0.950 . S
C132 N127 1.332 . S
C132 C131 1.382 . S
C132 H142 0.948 . S
N133 Co111 2.282 . S
N133 C137 1.332 . S
N133 C138 1.332 1_455 S
C134 C135 1.388 1_655 S
C134 C138 1.382 . S
C134 H157 0.950 . S
C135 C134 1.388 1_455 S
C135 C136 1.386 . S
C136 C135 1.386 . S
C136 C137 1.382 . S
C136 H158 0.950 . S
C137 N133 1.332 . S
C137 C136 1.382 . S
C137 H139 0.952 . S
C138 N133 1.332 1_655 S
C138 C134 1.382 . S
C138 H140 0.948 . S
H139 C137 0.952 . S
H140 C138 0.948 . S
H141 C130 0.952 . S
H142 C132 0.948 . S
C143 C109 1.395 . S
C143 C113 1.391 . S
C144 C106 1.389 1_655 S
C144 C126 1.392 . S
C145 C116 1.392 . S
C145 C118 1.389 . S
C146 C121 1.395 . S
C146 C123 1.391 . S
H147 C107 0.951 . S
H148 C108 0.950 . S
H149 C114 0.949 . S
H150 C115 0.950 . S
H151 C119 0.951 . S
H152 C120 0.950 . S
H153 C124 0.949 . S
H154 C125 0.950 . S
H155 C129 0.950 . S
H156 C131 0.950 . S
H157 C134 0.950 . S
H158 C136 0.950 . S
C159 C160 1.443 . S
C159 N163 1.376 . S
C159 C197 1.389 1_545 S
C160 C159 1.443 . S
C160 C161 1.340 . S
C160 H200 0.951 . S
C161 C160 1.340 . S
C161 C162 1.439 . S
C161 H201 0.950 . S
C162 C161 1.439 . S
C162 N163 1.374 . S
C162 C196 1.395 . S
N163 C159 1.376 . S
N163 C162 1.374 . S
N163 Co164 2.008 . S
Co164 N163 2.008 . S
Co164 N165 1.995 . S
Co164 N170 2.008 1_554 S
Co164 N175 1.995 1_545 S
Co164 N180 2.282 . S
Co164 N186 2.282 . S
N165 Co164 1.995 . S
N165 C166 1.376 . S
N165 C169 1.383 1_554 S
C166 N165 1.376 . S
C166 C167 1.446 . S
C166 C196 1.391 . S
C167 C166 1.446 . S
C167 C168 1.339 1_554 S
C167 H202 0.949 . S
C168 C167 1.339 1_556 S
C168 C169 1.439 . S
C168 H203 0.950 . S
C169 N165 1.383 1_556 S
C169 C168 1.439 . S
C169 C198 1.392 . S
N170 Co164 2.008 1_556 S
N170 C171 1.376 . S
N170 C174 1.374 1_545 S
C171 N170 1.376 . S
C171 C172 1.443 . S
C171 C198 1.389 . S
C172 C171 1.443 . S
C172 C173 1.340 1_545 S
C172 H204 0.951 . S
C173 C172 1.340 1_565 S
C173 C174 1.439 . S
C173 H205 0.950 . S
C174 N170 1.374 1_565 S
C174 C173 1.439 . S
C174 C199 1.395 . S
N175 Co164 1.995 1_565 S
N175 C176 1.376 . S
N175 C179 1.383 . S
C176 N175 1.376 . S
C176 C177 1.446 . S
C176 C199 1.391 1_554 S
C177 C176 1.446 . S
C177 C178 1.339 . S
C177 H206 0.949 . S
C178 C177 1.339 . S
C178 C179 1.439 . S
C178 H207 0.950 . S
C179 N175 1.383 . S
C179 C178 1.439 . S
C179 C197 1.392 . S
N180 Co164 2.282 . S
N180 C183 1.332 1_545 S
N180 C185 1.332 . S
C181 C182 1.386 1_545 S
C181 C184 1.388 . S
C182 C181 1.386 1_565 S
C182 C183 1.382 . S
C182 H208 0.950 . S
C183 N180 1.332 1_565 S
C183 C182 1.382 . S
C183 H194 0.952 . S
C184 C181 1.388 . S
C184 C185 1.382 . S
C184 H209 0.950 . S
C185 N180 1.332 . S
C185 C184 1.382 . S
C185 H195 0.948 . S
N186 Co164 2.282 . S
N186 C190 1.332 . S
N186 C191 1.332 1_545 S
C187 C188 1.388 1_565 S
C187 C191 1.382 . S
C187 H210 0.950 . S
C188 C187 1.388 1_545 S
C188 C189 1.386 . S
C189 C188 1.386 . S
C189 C190 1.382 . S
C189 H211 0.950 . S
C190 N186 1.332 . S
C190 C189 1.382 . S
C190 H192 0.952 . S
C191 N186 1.332 1_565 S
C191 C187 1.382 . S
C191 H193 0.948 . S
H192 C190 0.952 . S
H193 C191 0.948 . S
H194 C183 0.952 . S
H195 C185 0.948 . S
C196 C162 1.395 . S
C196 C166 1.391 . S
C197 C159 1.389 1_565 S
C197 C179 1.392 . S
C198 C169 1.392 . S
C198 C171 1.389 . S
C199 C174 1.395 . S
C199 C176 1.391 1_556 S
H200 C160 0.951 . S
H201 C161 0.950 . S
H202 C167 0.949 . S
H203 C168 0.950 . S
H204 C172 0.951 . S
H205 C173 0.950 . S
H206 C177 0.949 . S
H207 C178 0.950 . S
H208 C182 0.950 . S
H209 C184 0.950 . S
H210 C187 0.950 . S
H211 C189 0.950 . S
C212 C213 1.443 . S
C212 N216 1.376 . S
C212 C250 1.389 . S
C213 C212 1.443 . S
C213 C214 1.340 . S
C213 H253 0.951 . S
C214 C213 1.340 . S
C214 C215 1.439 . S
C214 H254 0.950 . S
C215 C214 1.439 . S
C215 N216 1.374 . S
C215 C249 1.395 . S
N216 C212 1.376 . S
N216 C215 1.374 . S
N216 Co217 2.008 . S
Co217 N216 2.008 . S
Co217 N218 1.995 . S
Co217 N223 2.008 . S
Co217 N228 1.995 . S
Co217 N233 2.282 . S
Co217 N239 2.282 . S
N218 Co217 1.995 . S
N218 C219 1.376 . S
N218 C222 1.383 . S
C219 N218 1.376 . S
C219 C220 1.446 . S
C219 C249 1.391 . S
C220 C219 1.446 . S
C220 C221 1.339 . S
C220 H255 0.949 . S
C221 C220 1.339 . S
C221 C222 1.439 . S
C221 H256 0.950 . S
C222 N218 1.383 . S
C222 C221 1.439 . S
C222 C251 1.392 . S
N223 Co217 2.008 . S
N223 C224 1.376 . S
N223 C227 1.374 . S
C224 N223 1.376 . S
C224 C225 1.443 . S
C224 C251 1.389 . S
C225 C224 1.443 . S
C225 C226 1.340 . S
C225 H257 0.951 . S
C226 C225 1.340 . S
C226 C227 1.439 . S
C226 H258 0.950 . S
C227 N223 1.374 . S
C227 C226 1.439 . S
C227 C252 1.395 . S
N228 Co217 1.995 . S
N228 C229 1.376 . S
N228 C232 1.383 . S
C229 N228 1.376 . S
C229 C230 1.446 . S
C229 C252 1.391 . S
C230 C229 1.446 . S
C230 C231 1.339 . S
C230 H259 0.949 . S
C231 C230 1.339 . S
C231 C232 1.439 . S
C231 H260 0.950 . S
C232 N228 1.383 . S
C232 C231 1.439 . S
C232 C250 1.392 . S
N233 Co217 2.282 . S
N233 C236 1.332 . S
N233 C238 1.332 . S
C234 C235 1.386 . S
C234 C237 1.388 . S
C235 C234 1.386 . S
C235 C236 1.382 . S
C235 H261 0.950 . S
C236 N233 1.332 . S
C236 C235 1.382 . S
C236 H247 0.952 . S
C237 C234 1.388 . S
C237 C238 1.382 . S
C237 H262 0.950 . S
C238 N233 1.332 . S
C238 C237 1.382 . S
C238 H248 0.948 . S
N239 Co217 2.282 . S
N239 C243 1.332 . S
N239 C244 1.332 . S
C240 C241 1.388 . S
C240 C244 1.382 1_455 S
C240 H263 0.950 . S
C241 C240 1.388 . S
C241 C242 1.386 1_455 S
C242 C241 1.386 1_655 S
C242 C243 1.382 . S
C242 H264 0.950 . S
C243 N239 1.332 . S
C243 C242 1.382 . S
C243 H245 0.952 . S
C244 N239 1.332 . S
C244 C240 1.382 1_655 S
C244 H246 0.948 . S
H245 C243 0.952 . S
H246 C244 0.948 . S
H247 C236 0.952 . S
H248 C238 0.948 . S
C249 C215 1.395 . S
C249 C219 1.391 . S
C250 C212 1.389 . S
C250 C232 1.392 . S
C251 C222 1.392 . S
C251 C224 1.389 . S
C252 C227 1.395 . S
C252 C229 1.391 . S
H253 C213 0.951 . S
H254 C214 0.950 . S
H255 C220 0.949 . S
H256 C221 0.950 . S
H257 C225 0.951 . S
H258 C226 0.950 . S
H259 C230 0.949 . S
H260 C231 0.950 . S
H261 C235 0.950 . S
H262 C237 0.950 . S
H263 C240 0.950 . S
H264 C242 0.950 . S
C265 C266 1.443 . S
C265 N269 1.376 . S
C265 C303 1.389 . S
C266 C265 1.443 . S
C266 C267 1.340 . S
C266 H306 0.951 . S
C267 C266 1.340 . S
C267 C268 1.439 . S
C267 H307 0.950 . S
C268 C267 1.439 . S
C268 N269 1.374 . S
C268 C302 1.395 . S
N269 C265 1.376 . S
N269 C268 1.374 . S
N269 Co270 2.008 . S
Co270 N269 2.008 . S
Co270 N271 1.995 . S
Co270 N276 2.008 . S
Co270 N281 1.995 . S
Co270 N286 2.282 . S
Co270 N292 2.282 . S
N271 Co270 1.995 . S
N271 C272 1.376 . S
N271 C275 1.383 . S
C272 N271 1.376 . S
C272 C273 1.446 . S
C272 C302 1.391 . S
C273 C272 1.446 . S
C273 C274 1.339 . S
C273 H308 0.949 . S
C274 C273 1.339 . S
C274 C275 1.439 . S
C274 H309 0.950 . S
C275 N271 1.383 . S
C275 C274 1.439 . S
C275 C304 1.392 . S
N276 Co270 2.008 . S
N276 C277 1.376 . S
N276 C280 1.374 . S
C277 N276 1.376 . S
C277 C278 1.443 . S
C277 C304 1.389 . S
C278 C277 1.443 . S
C278 C279 1.340 . S
C278 H310 0.951 . S
C279 C278 1.340 . S
C279 C280 1.439 . S
C279 H311 0.950 . S
C280 N276 1.374 . S
C280 C279 1.439 . S
C280 C305 1.395 . S
N281 Co270 1.995 . S
N281 C282 1.376 . S
N281 C285 1.383 . S
C282 N281 1.376 . S
C282 C283 1.446 . S
C282 C305 1.391 . S
C283 C282 1.446 . S
C283 C284 1.339 . S
C283 H312 0.949 . S
C284 C283 1.339 . S
C284 C285 1.439 . S
C284 H313 0.950 . S
C285 N281 1.383 . S
C285 C284 1.439 . S
C285 C303 1.392 . S
N286 Co270 2.282 . S
N286 C289 1.332 . S
N286 C291 1.332 . S
C287 C288 1.386 . S
C287 C290 1.388 . S
C288 C287 1.386 . S
C288 C289 1.382 . S
C288 H314 0.950 . S
C289 N286 1.332 . S
C289 C288 1.382 . S
C289 H300 0.952 . S
C290 C287 1.388 . S
C290 C291 1.382 . S
C290 H315 0.950 . S
C291 N286 1.332 . S
C291 C290 1.382 . S
C291 H301 0.948 . S
N292 Co270 2.282 . S
N292 C296 1.332 . S
N292 C297 1.332 . S
C293 C294 1.388 . S
C293 C297 1.382 1_545 S
C293 H316 0.950 . S
C294 C293 1.388 . S
C294 C295 1.386 1_545 S
C295 C294 1.386 1_565 S
C295 C296 1.382 . S
C295 H317 0.950 . S
C296 N292 1.332 . S
C296 C295 1.382 . S
C296 H298 0.952 . S
C297 N292 1.332 . S
C297 C293 1.382 1_565 S
C297 H299 0.948 . S
H298 C296 0.952 . S
H299 C297 0.948 . S
H300 C289 0.952 . S
H301 C291 0.948 . S
C302 C268 1.395 . S
C302 C272 1.391 . S
C303 C265 1.389 . S
C303 C285 1.392 . S
C304 C275 1.392 . S
C304 C277 1.389 . S
C305 C280 1.395 . S
C305 C282 1.391 . S
H306 C266 0.951 . S
H307 C267 0.950 . S
H308 C273 0.949 . S
H309 C274 0.950 . S
H310 C278 0.951 . S
H311 C279 0.950 . S
H312 C283 0.949 . S
H313 C284 0.950 . S
H314 C288 0.950 . S
H315 C290 0.950 . S
H316 C293 0.950 . S
H317 C295 0.950 . S
C318 C319 1.386 . S
C318 C320 1.383 . S
C318 H334 0.951 . S
C319 C318 1.386 . S
C319 C323 1.383 . S
C320 C318 1.383 . S
C320 C321 1.402 . S
C320 H335 0.951 . S
C321 C320 1.402 . S
C321 C322 1.375 . S
C321 C324 1.481 . S
C322 C321 1.375 . S
C322 C323 1.367 . S
C322 H336 0.951 . S
C323 C319 1.383 . S
C323 C322 1.367 . S
C323 H337 0.950 . S
C324 C321 1.481 . S
C324 C325 1.297 . S
C324 H338 0.950 . S
C325 C324 1.297 . S
C325 C326 1.479 . S
C325 H339 0.950 . S
C326 C325 1.479 . S
C326 C327 1.375 . S
C326 C332 1.404 . S
C327 C326 1.375 . S
C327 C328 1.369 . S
C327 H340 0.950 . S
C328 C327 1.369 . S
C328 C329 1.392 . S
C328 H341 0.951 . S
C329 C328 1.392 . S
C329 C331 1.384 . S
H330 C332 0.949 . S
C331 C329 1.384 . S
C331 C332 1.385 . S
C331 H333 0.950 . S
C332 C326 1.404 . S
C332 H330 0.949 . S
C332 C331 1.385 . S
H333 C331 0.950 . S
H334 C318 0.951 . S
H335 C320 0.951 . S
H336 C322 0.951 . S
H337 C323 0.950 . S
H338 C324 0.950 . S
H339 C325 0.950 . S
H340 C327 0.950 . S
H341 C328 0.951 . S
C342 C343 1.386 . S
C342 C344 1.383 . S
C342 H358 0.951 . S
C343 C342 1.386 . S
C343 C347 1.383 . S
C344 C342 1.383 . S
C344 C345 1.402 . S
C344 H359 0.951 . S
C345 C344 1.402 . S
C345 C346 1.375 . S
C345 C348 1.481 . S
C346 C345 1.375 . S
C346 C347 1.367 . S
C346 H360 0.951 . S
C347 C343 1.383 . S
C347 C346 1.367 . S
C347 H361 0.950 . S
C348 C345 1.481 . S
C348 C349 1.297 . S
C348 H362 0.950 . S
C349 C348 1.297 . S
C349 C350 1.479 . S
C349 H363 0.950 . S
C350 C349 1.479 . S
C350 C351 1.375 . S
C350 C356 1.404 . S
C351 C350 1.375 . S
C351 C352 1.369 . S
C351 H364 0.950 . S
C352 C351 1.369 . S
C352 C353 1.392 . S
C352 H365 0.951 . S
C353 C352 1.392 . S
C353 C355 1.384 . S
H354 C356 0.949 . S
C355 C353 1.384 . S
C355 C356 1.385 . S
C355 H357 0.950 . S
C356 C350 1.404 . S
C356 H354 0.949 . S
C356 C355 1.385 . S
H357 C355 0.950 . S
H358 C342 0.951 . S
H359 C344 0.951 . S
H360 C346 0.951 . S
H361 C347 0.950 . S
H362 C348 0.950 . S
H363 C349 0.950 . S
H364 C351 0.950 . S
H365 C352 0.951 . S
C366 C367 1.386 . S
C366 C368 1.383 . S
C366 H382 0.951 . S
C367 C366 1.386 . S
C367 C371 1.383 . S
C368 C366 1.383 . S
C368 C369 1.402 . S
C368 H383 0.951 . S
C369 C368 1.402 . S
C369 C370 1.375 . S
C369 C372 1.481 . S
C370 C369 1.375 . S
C370 C371 1.367 . S
C370 H384 0.951 . S
C371 C367 1.383 . S
C371 C370 1.367 . S
C371 H385 0.950 . S
C372 C369 1.481 . S
C372 C373 1.297 . S
C372 H386 0.950 . S
C373 C372 1.297 . S
C373 C374 1.479 . S
C373 H387 0.950 . S
C374 C373 1.479 . S
C374 C375 1.375 . S
C374 C380 1.404 . S
C375 C374 1.375 . S
C375 C376 1.369 . S
C375 H388 0.950 . S
C376 C375 1.369 . S
C376 C377 1.392 . S
C376 H389 0.951 1_655 S
C377 C376 1.392 . S
C377 C379 1.384 . S
H378 C380 0.949 . S
C379 C377 1.384 . S
C379 C380 1.385 . S
C379 H381 0.950 . S
C380 C374 1.404 . S
C380 H378 0.949 . S
C380 C379 1.385 . S
H381 C379 0.950 . S
H382 C366 0.951 . S
H383 C368 0.951 . S
H384 C370 0.951 . S
H385 C371 0.950 . S
H386 C372 0.950 . S
H387 C373 0.950 . S
H388 C375 0.950 . S
H389 C376 0.951 1_455 S
C390 C391 1.386 . S
C390 C392 1.383 . S
C390 H406 0.951 . S
C391 C390 1.386 . S
C391 C395 1.383 . S
C392 C390 1.383 . S
C392 C393 1.402 . S
C392 H407 0.951 . S
C393 C392 1.402 . S
C393 C394 1.375 . S
C393 C396 1.481 . S
C394 C393 1.375 . S
C394 C395 1.367 . S
C394 H408 0.951 . S
C395 C391 1.383 . S
C395 C394 1.367 . S
C395 H409 0.950 . S
C396 C393 1.481 . S
C396 C397 1.297 . S
C396 H410 0.950 . S
C397 C396 1.297 . S
C397 C398 1.479 . S
C397 H411 0.950 . S
C398 C397 1.479 . S
C398 C399 1.375 . S
C398 C404 1.404 . S
C399 C398 1.375 . S
C399 C400 1.369 . S
C399 H412 0.950 . S
C400 C399 1.369 . S
C400 C401 1.392 . S
C400 H413 0.951 . S
C401 C400 1.392 . S
C401 C403 1.384 . S
H402 C404 0.949 . S
C403 C401 1.384 . S
C403 C404 1.385 . S
C403 H405 0.950 . S
C404 C398 1.404 . S
C404 H402 0.949 . S
C404 C403 1.385 . S
H405 C403 0.950 . S
H406 C390 0.951 . S
H407 C392 0.951 . S
H408 C394 0.951 . S
H409 C395 0.950 . S
H410 C396 0.950 . S
H411 C397 0.950 . S
H412 C399 0.950 . S
H413 C400 0.951 . S
C414 C415 1.386 . S
C414 C416 1.383 . S
C414 H430 0.951 . S
C415 C414 1.386 . S
C415 C419 1.383 . S
C416 C414 1.383 . S
C416 C417 1.402 . S
C416 H431 0.951 . S
C417 C416 1.402 . S
C417 C418 1.375 . S
C417 C420 1.481 . S
C418 C417 1.375 . S
C418 C419 1.367 . S
C418 H432 0.951 . S
C419 C415 1.383 . S
C419 C418 1.367 . S
C419 H433 0.950 . S
C420 C417 1.481 . S
C420 C421 1.297 . S
C420 H434 0.950 . S
C421 C420 1.297 . S
C421 C422 1.479 . S
C421 H435 0.950 . S
C422 C421 1.479 . S
C422 C423 1.375 1_455 S
C422 C428 1.404 . S
C423 C422 1.375 1_655 S
C423 C424 1.369 . S
C423 H436 0.950 . S
C424 C423 1.369 . S
C424 C425 1.392 . S
C424 H437 0.951 . S
C425 C424 1.392 . S
C425 C427 1.395 . S
H426 C428 0.949 . S
C427 C425 1.395 . S
C427 C428 1.377 1_655 S
C427 H429 0.947 1_655 S
C428 C422 1.404 . S
C428 H426 0.949 . S
C428 C427 1.377 1_455 S
H429 C427 0.947 1_455 S
H430 C414 0.951 . S
H431 C416 0.951 . S
H432 C418 0.951 . S
H433 C419 0.950 . S
H434 C420 0.950 . S
H435 C421 0.950 . S
H436 C423 0.950 . S
H437 C424 0.951 . S
C438 C439 1.386 . S
C438 C440 1.383 . S
C438 H454 0.951 . S
C439 C438 1.386 . S
C439 C443 1.383 . S
C440 C438 1.383 . S
C440 C441 1.402 . S
C440 H455 0.951 . S
C441 C440 1.402 . S
C441 C442 1.375 . S
C441 C444 1.481 . S
C442 C441 1.375 . S
C442 C443 1.367 . S
C442 H456 0.951 . S
C443 C439 1.383 . S
C443 C442 1.367 . S
C443 H457 0.950 . S
C444 C441 1.481 . S
C444 C445 1.297 . S
C444 H458 0.950 . S
C445 C444 1.297 . S
C445 C446 1.479 1_545 S
C445 H459 0.950 . S
C446 C445 1.479 1_565 S
C446 C447 1.375 . S
C446 C452 1.404 . S
C447 C446 1.375 . S
C447 C448 1.369 . S
C447 H460 0.950 . S
C448 C447 1.369 . S
C448 C449 1.392 . S
C448 H461 0.951 . S
C449 C448 1.392 . S
C449 C451 1.384 . S
H450 C452 0.949 . S
C451 C449 1.384 . S
C451 C452 1.385 . S
C451 H453 0.950 . S
C452 C446 1.404 . S
C452 H450 0.949 . S
C452 C451 1.385 . S
H453 C451 0.950 . S
H454 C438 0.951 . S
H455 C440 0.951 . S
H456 C442 0.951 . S
H457 C443 0.950 . S
H458 C444 0.950 . S
H459 C445 0.950 . S
H460 C447 0.950 . S
H461 C448 0.951 . S
C462 C463 1.386 . S
C462 C464 1.383 . S
C462 H478 0.951 1_554 S
C463 C462 1.386 . S
C463 C467 1.383 . S
C464 C462 1.383 . S
C464 C465 1.402 . S
C464 H479 0.951 . S
C465 C464 1.402 . S
C465 C466 1.375 . S
C465 C468 1.481 . S
C466 C465 1.375 . S
C466 C467 1.367 . S
C466 H480 0.951 . S
C467 C463 1.383 . S
C467 C466 1.367 . S
C467 H481 0.950 . S
C468 C465 1.481 . S
C468 C469 1.297 . S
C468 H482 0.950 . S
C469 C468 1.297 . S
C469 C470 1.479 . S
C469 H483 0.950 . S
C470 C469 1.479 . S
C470 C471 1.375 . S
C470 C476 1.404 . S
C471 C470 1.375 . S
C471 C472 1.369 1_455 S
C471 H484 0.950 1_554 S
C472 C471 1.369 1_655 S
C472 C473 1.392 . S
C472 H485 0.951 1_554 S
C473 C472 1.392 . S
C473 C475 1.384 . S
H474 C476 0.949 . S
C475 C473 1.384 . S
C475 C476 1.385 1_655 S
C475 H477 0.950 . S
C476 C470 1.404 . S
C476 H474 0.949 . S
C476 C475 1.385 1_455 S
H477 C475 0.950 . S
H478 C462 0.951 1_556 S
H479 C464 0.951 . S
H480 C466 0.951 . S
H481 C467 0.950 . S
H482 C468 0.950 . S
H483 C469 0.950 . S
H484 C471 0.950 1_556 S
H485 C472 0.951 1_556 S
C486 C487 1.399 . S
C486 C488 1.355 1_565 S
C486 H502 0.967 . S
C487 C486 1.399 . S
C487 C491 1.383 . S
C488 C486 1.355 1_545 S
C488 C489 1.402 . S
C488 H503 0.951 . S
C489 C488 1.402 . S
C489 C490 1.375 . S
C489 C492 1.481 . S
C490 C489 1.375 . S
C490 C491 1.367 1_545 S
C490 H504 0.951 . S
C491 C487 1.383 . S
C491 C490 1.367 1_565 S
C491 H505 0.950 . S
C492 C489 1.481 . S
C492 C493 1.297 . S
C492 H506 0.950 . S
C493 C492 1.297 . S
C493 C494 1.479 . S
C493 H507 0.950 . S
C494 C493 1.479 . S
C494 C495 1.375 . S
C494 C500 1.404 . S
C495 C494 1.375 . S
C495 C496 1.369 . S
C495 H508 0.950 . S
C496 C495 1.369 . S
C496 C497 1.392 . S
C496 H509 0.951 . S
C497 C496 1.392 . S
C497 C499 1.384 . S
H498 C500 0.949 . S
C499 C497 1.384 . S
C499 C500 1.385 . S
C499 H501 0.950 . S
C500 C494 1.404 . S
C500 H498 0.949 . S
C500 C499 1.385 . S
H501 C499 0.950 . S
H502 C486 0.967 . S
H503 C488 0.951 . S
H504 C490 0.951 . S
H505 C491 0.950 . S
H506 C492 0.950 . S
H507 C493 0.950 . S
H508 C495 0.950 . S
H509 C496 0.951 . S
C510 C511 1.386 . S
C510 C512 1.383 . S
C510 H526 0.951 . S
C511 C510 1.386 . S
C511 C515 1.383 . S
C512 C510 1.383 . S
C512 C513 1.402 . S
C512 H527 0.951 . S
C513 C512 1.402 . S
C513 C514 1.375 . S
C513 C516 1.481 . S
C514 C513 1.375 . S
C514 C515 1.367 . S
C514 H528 0.951 . S
C515 C511 1.383 . S
C515 C514 1.367 . S
C515 H529 0.950 1_455 S
C516 C513 1.481 . S
C516 C517 1.297 . S
C516 H530 0.950 . S
C517 C516 1.297 . S
C517 C518 1.479 . S
C517 H531 0.950 . S
C518 C517 1.479 . S
C518 C519 1.375 . S
C518 C524 1.404 . S
C519 C518 1.375 . S
C519 C520 1.369 . S
C519 H532 0.950 . S
C520 C519 1.369 . S
C520 C521 1.392 . S
C520 H533 0.951 . S
C521 C520 1.392 . S
C521 C523 1.384 . S
H522 C524 0.949 . S
C523 C521 1.384 . S
C523 C524 1.385 . S
C523 H525 0.950 . S
C524 C518 1.404 . S
C524 H522 0.949 . S
C524 C523 1.385 . S
H525 C523 0.950 . S
H526 C510 0.951 . S
H527 C512 0.951 . S
H528 C514 0.951 . S
H529 C515 0.950 1_655 S
H530 C516 0.950 . S
H531 C517 0.950 . S
H532 C519 0.950 . S
H533 C520 0.951 . S
C534 C535 1.386 . S
C534 C536 1.383 . S
C534 H550 0.951 . S
C535 C534 1.386 . S
C535 C539 1.383 . S
C536 C534 1.383 . S
C536 C537 1.402 . S
C536 H551 0.951 . S
C537 C536 1.402 . S
C537 C538 1.375 . S
C537 C540 1.481 . S
C538 C537 1.375 . S
C538 C539 1.367 . S
C538 H552 0.951 . S
C539 C535 1.383 . S
C539 C538 1.367 . S
C539 H553 0.950 1_545 S
C540 C537 1.481 . S
C540 C541 1.297 . S
C540 H554 0.950 . S
C541 C540 1.297 . S
C541 C542 1.479 . S
C541 H555 0.950 1_554 S
C542 C541 1.479 . S
C542 C543 1.375 . S
C542 C548 1.404 . S
C543 C542 1.375 . S
C543 C544 1.369 . S
C543 H556 0.950 . S
C544 C543 1.369 . S
C544 C545 1.392 . S
C544 H557 0.951 . S
C545 C544 1.392 . S
C545 C547 1.384 . S
H546 C548 0.949 . S
C547 C545 1.384 . S
C547 C548 1.385 . S
C547 H549 0.950 . S
C548 C542 1.404 . S
C548 H546 0.949 . S
C548 C547 1.385 . S
H549 C547 0.950 . S
H550 C534 0.951 . S
H551 C536 0.951 . S
H552 C538 0.951 . S
H553 C539 0.950 1_565 S
H554 C540 0.950 . S
H555 C541 0.950 1_556 S
H556 C543 0.950 . S
H557 C544 0.951 . S
C558 C559 1.386 . S
C558 C560 1.383 . S
C558 H574 0.951 . S
C559 C558 1.386 . S
C559 C563 1.383 . S
C560 C558 1.383 . S
C560 C561 1.402 . S
C560 H575 0.951 . S
C561 C560 1.402 . S
C561 C562 1.375 . S
C561 C564 1.481 . S
C562 C561 1.375 . S
C562 C563 1.367 . S
C562 H576 0.951 . S
C563 C559 1.383 . S
C563 C562 1.367 . S
C563 H577 0.950 . S
C564 C561 1.481 . S
C564 C565 1.297 . S
C564 H578 0.950 . S
C565 C564 1.297 . S
C565 C566 1.479 . S
C565 H579 0.950 . S
C566 C565 1.479 . S
C566 C567 1.375 . S
C566 C572 1.404 . S
C567 C566 1.375 . S
C567 C568 1.369 . S
C567 H580 0.950 . S
C568 C567 1.369 . S
C568 C569 1.392 . S
C568 H581 0.951 . S
C569 C568 1.392 . S
C569 C571 1.384 . S
H570 C572 0.949 . S
C571 C569 1.384 . S
C571 C572 1.385 . S
C571 H573 0.950 . S
C572 C566 1.404 . S
C572 H570 0.949 . S
C572 C571 1.385 . S
H573 C571 0.950 . S
H574 C558 0.951 . S
H575 C560 0.951 . S
H576 C562 0.951 . S
H577 C563 0.950 . S
H578 C564 0.950 . S
H579 C565 0.950 . S
H580 C567 0.950 . S
H581 C568 0.951 . S
C582 C583 1.386 . S
C582 C584 1.383 . S
C582 H598 0.951 . S
C583 C582 1.386 . S
C583 C587 1.383 . S
C584 C582 1.383 . S
C584 C585 1.402 . S
C584 H599 0.951 . S
C585 C584 1.402 . S
C585 C586 1.375 . S
C585 C588 1.481 . S
C586 C585 1.375 . S
C586 C587 1.367 . S
C586 H600 0.951 . S
C587 C583 1.383 . S
C587 C586 1.367 . S
C587 H601 0.950 . S
C588 C585 1.481 . S
C588 C589 1.297 . S
C588 H602 0.950 . S
C589 C588 1.297 . S
C589 C590 1.479 . S
C589 H603 0.950 . S
C590 C589 1.479 . S
C590 C591 1.375 . S
C590 C596 1.404 . S
C591 C590 1.375 . S
C591 C592 1.369 . S
C591 H604 0.950 . S
C592 C591 1.369 . S
C592 C593 1.392 . S
C592 H605 0.951 . S
C593 C592 1.392 . S
C593 C595 1.384 . S
H594 C596 0.949 . S
C595 C593 1.384 . S
C595 C596 1.385 . S
C595 H597 0.950 . S
C596 C590 1.404 . S
C596 H594 0.949 . S
C596 C595 1.385 . S
H597 C595 0.950 . S
H598 C582 0.951 . S
H599 C584 0.951 . S
H600 C586 0.951 . S
H601 C587 0.950 . S
H602 C588 0.950 . S
H603 C589 0.950 . S
H604 C591 0.950 . S
H605 C592 0.951 . S
C319 C38 1.927 . S
C329 C92 1.892 . S
C343 C91 1.938 . S
C353 C145 1.865 . S
C367 C198 1.901 . S
C377 C144 1.914 . S
C391 C197 1.932 . S
C401 C251 1.906 . S
C415 C304 1.871 . S
C425 C250 1.922 . S
C439 C39 1.866 . S
C449 C303 1.933 . S
C463 C29 1.468 . S
C473 C188 1.526 . S
C487 C241 1.482 . S
C497 C82 1.413 . S
C511 C135 1.510 . S
C521 C294 1.449 . S
C535 C181 1.955 . S
C545 C22 1.935 . S
C559 C234 1.936 . S
C569 C75 1.894 . S
C583 C287 1.930 . S
C593 C128 1.897 . S
