# Generated by pormake.
# Topology afw, (4)-cn, num edge types: 1
# Building blocks:
#     Node 0, Type 0, BuildingBlock: ICAMEG_clean_sbu_1, # of connection points: 4
#     Node 1, Type 0, BuildingBlock: ICAMEG_clean_sbu_1, # of connection points: 4
#     Node 2, Type 0, BuildingBlock: ICAMEG_clean_sbu_1, # of connection points: 4
#     Node 3, Type 0, BuildingBlock: ICAMEG_clean_sbu_1, # of connection points: 4
#     Node 4, Type 0, BuildingBlock: ICAMEG_clean_sbu_1, # of connection points: 4
#     Node 5, Type 0, BuildingBlock: ICAMEG_clean_sbu_1, # of connection points: 4
#     Node 6, Type 0, BuildingBlock: ICAMEG_clean_sbu_1, # of connection points: 4
#     Node 7, Type 0, BuildingBlock: ICAMEG_clean_sbu_1, # of connection points: 4
#     Node 8, Type 0, BuildingBlock: ICAMEG_clean_sbu_1, # of connection points: 4
#     Edge 9, Type (0, 0), BuildingBlock: ZUJKAS_clean_linker_0, # of connection points: 2
#     Edge 10, Type (0, 0), BuildingBlock: ZUJKAS_clean_linker_0, # of connection points: 2
#     Edge 11, Type (0, 0), BuildingBlock: ZUJKAS_clean_linker_0, # of connection points: 2
#     Edge 12, Type (0, 0), BuildingBlock: ZUJKAS_clean_linker_0, # of connection points: 2
#     Edge 13, Type (0, 0), BuildingBlock: ZUJKAS_clean_linker_0, # of connection points: 2
#     Edge 14, Type (0, 0), BuildingBlock: ZUJKAS_clean_linker_0, # of connection points: 2
#     Edge 15, Type (0, 0), BuildingBlock: ZUJKAS_clean_linker_0, # of connection points: 2
#     Edge 16, Type (0, 0), BuildingBlock: ZUJKAS_clean_linker_0, # of connection points: 2
#     Edge 17, Type (0, 0), BuildingBlock: ZUJKAS_clean_linker_0, # of connection points: 2
#     Edge 18, Type (0, 0), BuildingBlock: ZUJKAS_clean_linker_0, # of connection points: 2
#     Edge 19, Type (0, 0), BuildingBlock: ZUJKAS_clean_linker_0, # of connection points: 2
#     Edge 20, Type (0, 0), BuildingBlock: ZUJKAS_clean_linker_0, # of connection points: 2
#     Edge 21, Type (0, 0), BuildingBlock: ZUJKAS_clean_linker_0, # of connection points: 2
#     Edge 22, Type (0, 0), BuildingBlock: ZUJKAS_clean_linker_0, # of connection points: 2
#     Edge 23, Type (0, 0), BuildingBlock: ZUJKAS_clean_linker_0, # of connection points: 2
#     Edge 24, Type (0, 0), BuildingBlock: ZUJKAS_clean_linker_0, # of connection points: 2
#     Edge 25, Type (0, 0), BuildingBlock: ZUJKAS_clean_linker_0, # of connection points: 2
#     Edge 26, Type (0, 0), BuildingBlock: ZUJKAS_clean_linker_0, # of connection points: 2
# Relax obj value: 0.104
# Max RMSD: 0.138
# Mean RMSD: 0.138
data_MOF--net-afw--node1-ICAMEG_clean_sbu_1--edge1-ZUJKAS_clean_linker_0
_symmetry_space_group_name_H-M    P1
_symmetry_Int_Tables_number       1
_symmetry_cell_setting            triclinic
loop_
_symmetry_equiv_pos_as_xyz
'x, y, z'
_cell_length_a     58.963594
_cell_length_b     58.980676
_cell_length_c     44.502232
_cell_angle_alpha  89.975714
_cell_angle_beta   90.060092
_cell_angle_gamma 120.02204
loop_
_atom_site_label
_atom_site_type_symbol
_atom_site_fract_x
_atom_site_fract_y
_atom_site_fract_z
_atom_type_partial_charge
Co0 Co 0.01156 0.20347 0.04715 0.0
Co1 Co 0.00564 0.20123 0.97043 0.0
O2 O 0.01023 0.21916 0.00887 0.0
C3 C 0.9711 0.21794 0.06162 0.0
O4 O 0.95777 0.20522 0.03767 0.0
C5 C 0.0525 0.25301 0.95623 0.0
O6 O 0.06447 0.25112 0.98019 0.0
O7 O 0.03618 0.1963 0.97916 0.0
O8 O 0.03047 0.18715 0.02839 0.0
H9 H -0.00065 0.12987 0.90319 0.0
H10 H 0.03081 0.26042 0.04368 0.0
O11 O 0.99297 0.21959 0.06758 0.0
H12 H 0.10668 0.25317 0.07721 0.0
H13 H 0.02391 0.20316 0.15914 0.0
H14 H 0.00237 0.15126 0.0659 0.0
H15 H 0.06398 0.21355 0.068 0.0
H16 H 0.0229 0.22266 0.11048 0.0
O17 O 0.02916 0.23528 0.95021 0.0
H18 H 0.00464 0.15255 0.95145 0.0
H19 H 0.9975 0.21248 0.90714 0.0
H20 H 0.00334 0.13105 0.11403 0.0
H21 H 0.07313 0.30058 0.05288 0.0
H22 H 0.01418 0.15706 0.16111 0.0
H23 H 0.11144 0.29708 0.06971 0.0
O24 O 0.97754 0.17118 0.03835 0.0
H25 H 0.95882 0.25262 0.96589 0.0
H26 H 0.95089 0.16639 0.94862 0.0
H27 H 0.91273 0.172 0.93961 0.0
H28 H 0.91657 0.2154 0.9482 0.0
H29 H 0.99642 0.24605 0.97488 0.0
H30 H 0.99239 0.19059 0.85837 0.0
H31 H 0.99319 0.1489 0.8562 0.0
O32 O 0.98159 0.16661 0.98897 0.0
C33 C 0.04111 0.18784 0.00328 0.0
C34 C -0.00107 0.148 0.90385 0.0
C35 C 0.99506 0.18209 0.87869 0.0
N36 N 0.00129 0.18377 0.93214 0.0
C37 C 0.00187 0.16091 0.93112 0.0
C38 C 0.99806 0.19445 0.90636 0.0
C39 C 0.99549 0.1587 0.87749 0.0
C40 C 0.04735 0.25876 0.05123 0.0
N41 N 0.04489 0.23468 0.05544 0.0
C42 C 0.07128 0.28155 0.05631 0.0
C43 C 0.09278 0.27958 0.06571 0.0
C44 C 0.09012 0.25495 0.06991 0.0
C45 C 0.0659 0.23258 0.06459 0.0
C46 C 0.01919 0.19164 0.13878 0.0
C47 C 0.00722 0.16275 0.08625 0.0
C48 C 0.01853 0.20256 0.11116 0.0
N49 N 0.01273 0.18816 0.08533 0.0
C50 C 0.00769 0.15118 0.11346 0.0
C51 C 0.01374 0.16577 0.13987 0.0
C52 C 0.97039 0.15775 0.01417 0.0
C53 C 0.95691 0.23363 0.96202 0.0
C54 C 0.95268 0.18527 0.95257 0.0
C55 C 0.93103 0.18837 0.94733 0.0
C56 C 0.9332 0.21273 0.95213 0.0
N57 N 0.97588 0.20587 0.96224 0.0
C58 C 0.97815 0.22981 0.96699 0.0
Co59 Co 0.8292 0.8323 0.97669 0.0
Co60 Co 0.82734 0.83692 0.05393 0.0
O61 O 0.8131 0.81866 0.01587 0.0
C62 C 0.77652 0.82557 0.96338 0.0
O63 O 0.77938 0.84146 0.98557 0.0
C64 C 0.82538 0.78649 0.06873 0.0
O65 O 0.84075 0.78965 0.04587 0.0
O66 O 0.86322 0.84327 0.04409 0.0
O67 O 0.86465 0.84512 0.99368 0.0
H68 H 0.89257 0.90995 0.11943 0.0
H69 H 0.7868 0.77716 0.98324 0.0
O70 O 0.79397 0.81941 0.9582 0.0
H71 H 0.86245 0.77244 0.94377 0.0
H72 H 0.83557 0.82891 0.86409 0.0
H73 H 0.87581 0.88102 0.95551 0.0
H74 H 0.86557 0.81515 0.95281 0.0
H75 H 0.81607 0.81203 0.91387 0.0
O76 O 0.81812 0.80311 0.074 0.0
H77 H 0.87435 0.88682 0.07159 0.0
H78 H 0.81011 0.82517 0.11791 0.0
H79 H 0.89609 0.89853 0.90619 0.0
H80 H 0.78271 0.73399 0.97427 0.0
H81 H 0.87593 0.87242 0.86003 0.0
H82 H 0.82074 0.73145 0.95446 0.0
O83 O 0.83254 0.86722 0.98507 0.0
H84 H 0.72932 0.78317 0.06184 0.0
H85 H 0.80664 0.87053 0.07733 0.0
H86 H 0.76264 0.86363 0.08826 0.0
H87 H 0.72358 0.81965 0.08059 0.0
H88 H 0.77369 0.79104 0.05091 0.0
H89 H 0.82777 0.84753 0.16628 0.0
H90 H 0.86924 0.8903 0.16723 0.0
O91 O 0.83635 0.87093 0.03529 0.0
C92 C 0.87547 0.84766 0.01917 0.0
C93 C 0.87445 0.89136 0.1193 0.0
C94 C 0.8381 0.85631 0.1456 0.0
N95 N 0.84111 0.85474 0.09192 0.0
C96 C 0.864 0.8782 0.09227 0.0
C97 C 0.82824 0.8437 0.11815 0.0
C98 C 0.86136 0.88031 0.14612 0.0
C99 C 0.8034 0.77621 0.97448 0.0
N100 N 0.82642 0.79867 0.96857 0.0
C101 C 0.80098 0.75171 0.9695 0.0
C102 C 0.82233 0.7503 0.95842 0.0
C103 C 0.84574 0.77329 0.95244 0.0
C104 C 0.84744 0.79743 0.95772 0.0
C105 C 0.84455 0.84046 0.88404 0.0
C106 C 0.86701 0.86946 0.93555 0.0
C107 C 0.83356 0.83104 0.91229 0.0
N108 N 0.84487 0.84546 0.93761 0.0
C109 C 0.87854 0.87951 0.90767 0.0
C110 C 0.86721 0.86486 0.88178 0.0
C111 C 0.83673 0.88026 0.00938 0.0
C112 C 0.74619 0.80242 0.06529 0.0
C113 C 0.78975 0.85141 0.07372 0.0
C114 C 0.76488 0.84758 0.08007 0.0
C115 C 0.74298 0.8229 0.07578 0.0
N116 N 0.79275 0.83123 0.06346 0.0
C117 C 0.77136 0.80698 0.0592 0.0
Co118 Co 0.19565 0.01683 0.05234 0.0
Co119 Co 0.20534 0.03138 0.97631 0.0
O120 O 0.21565 0.0235 0.01505 0.0
C121 C 0.24708 0.06248 0.06945 0.0
O122 O 0.24704 0.07416 0.04433 0.0
C123 C 0.20808 0.98366 0.96114 0.0
O124 O 0.19409 0.97202 0.98512 0.0
O125 O 0.16825 0.00217 0.98103 0.0
O126 O 0.16263 0.99376 0.03062 0.0
H127 H 0.14825 0.04842 0.90688 0.0
H128 H 0.24119 0.00857 0.04915 0.0
O129 O 0.22839 0.03959 0.07537 0.0
H130 H 0.1663 0.92282 0.07739 0.0
H131 H 0.1791 0.99754 0.16297 0.0
H132 H 0.14525 0.01332 0.0686 0.0
H133 H 0.16055 0.96112 0.0703 0.0
H134 H 0.20384 0.00581 0.11571 0.0
O135 O 0.21456 0.00724 0.95524 0.0
H136 H 0.16142 0.03831 0.95541 0.0
H137 H 0.22805 0.04157 0.91451 0.0
H138 H 0.11975 0.00488 0.11529 0.0
H139 H 0.24793 0.97087 0.05634 0.0
H140 H 0.13667 0.99693 0.16292 0.0
H141 H 0.21028 0.92759 0.07044 0.0
O142 O 0.19042 0.04753 0.04549 0.0
H143 H 0.30322 0.07192 0.9795 0.0
H144 H 0.23013 0.08766 0.95855 0.0
H145 H 0.27558 0.12413 0.95409 0.0
H146 H 0.31252 0.11634 0.96456 0.0
H147 H 0.25743 0.03609 0.98399 0.0
H148 H 0.21546 0.05146 0.86548 0.0
H149 H 0.17535 0.05506 0.86147 0.0
O150 O 0.19618 0.05578 0.99596 0.0
C151 C 0.15424 0.9897 0.00369 0.0
C152 C 0.16579 0.04694 0.90835 0.0
C153 C 0.20348 0.0486 0.8851 0.0
N154 N 0.19552 0.03941 0.93782 0.0
C155 C 0.17337 0.04126 0.93578 0.0
C156 C 0.21046 0.0429 0.91291 0.0
C157 C 0.18099 0.05064 0.88287 0.0
C158 C 0.22474 0.98982 0.05544 0.0
N159 N 0.20047 0.98701 0.05918 0.0
C160 C 0.22867 0.96854 0.05941 0.0
C161 C 0.20753 0.94425 0.0673 0.0
C162 C 0.18284 0.94156 0.07117 0.0
C163 C 0.17966 0.96327 0.06697 0.0
C164 C 0.17152 0.00098 0.14236 0.0
C165 C 0.15269 0.00976 0.08921 0.0
C166 C 0.18549 0.00577 0.11555 0.0
N167 N 0.17597 0.00998 0.0894 0.0
C168 C 0.13819 0.00505 0.11559 0.0
C169 C 0.1477 0.00062 0.14231 0.0
C170 C 0.19089 0.06038 0.02216 0.0
C171 C 0.28729 0.07556 0.97487 0.0
C172 C 0.24608 0.08418 0.96337 0.0
C173 C 0.27178 0.10487 0.96067 0.0
C174 C 0.2925 0.10048 0.96652 0.0
N175 N 0.24112 0.0598 0.9716 0.0
C176 C 0.26133 0.05533 0.9773 0.0
Co177 Co 0.68157 0.54025 0.31405 0.0
Co178 Co 0.69457 0.54462 0.39048 0.0
O179 O 0.68773 0.55778 0.35311 0.0
C180 C 0.72819 0.59178 0.29908 0.0
O181 O 0.74068 0.58922 0.32211 0.0
C182 C 0.64736 0.54797 0.40651 0.0
O183 O 0.637 0.53789 0.38028 0.0
O184 O 0.66501 0.50827 0.38274 0.0
O185 O 0.65846 0.50581 0.33289 0.0
H186 H 0.70885 0.48187 0.45294 0.0
H187 H 0.67315 0.58545 0.32111 0.0
O188 O 0.70451 0.57451 0.29377 0.0
H189 H 0.5874 0.51162 0.29068 0.0
H190 H 0.66365 0.53124 0.20274 0.0
H191 H 0.67826 0.49109 0.29245 0.0
H192 H 0.62573 0.50567 0.29607 0.0
H193 H 0.67139 0.5527 0.25221 0.0
O194 O 0.67024 0.55256 0.41324 0.0
H195 H 0.70012 0.49883 0.40631 0.0
H196 H 0.70384 0.56286 0.45426 0.0
H197 H 0.67037 0.46885 0.24346 0.0
H198 H 0.63537 0.59233 0.31575 0.0
H199 H 0.66301 0.48895 0.19815 0.0
H200 H 0.5921 0.55522 0.30051 0.0
O201 O 0.71217 0.53462 0.31933 0.0
H202 H 0.73644 0.64248 0.39668 0.0
H203 H 0.75034 0.56728 0.40954 0.0
H204 H 0.78715 0.61203 0.41799 0.0
H205 H 0.78028 0.65001 0.41161 0.0
H206 H 0.70026 0.59739 0.38815 0.0
H207 H 0.71232 0.54644 0.50148 0.0
H208 H 0.71499 0.50572 0.50098 0.0
O209 O 0.71913 0.53653 0.36921 0.0
C210 C 0.65341 0.49564 0.35897 0.0
C211 C 0.70778 0.49966 0.45344 0.0
C212 C 0.70969 0.53588 0.48069 0.0
N213 N 0.7016 0.53187 0.42753 0.0
C214 C 0.70291 0.50939 0.4271 0.0
C215 C 0.7048 0.54504 0.4539 0.0
C216 C 0.7112 0.51304 0.48039 0.0
C217 C 0.65443 0.56927 0.31424 0.0
N218 N 0.65168 0.54522 0.3088 0.0
C219 C 0.63309 0.57326 0.31134 0.0
C220 C 0.60881 0.55242 0.30283 0.0
C221 C 0.60616 0.52794 0.29732 0.0
C222 C 0.62792 0.52467 0.30049 0.0
C223 C 0.66683 0.52229 0.22231 0.0
C224 C 0.67499 0.49992 0.27287 0.0
C225 C 0.67131 0.53439 0.25038 0.0
N226 N 0.67522 0.52314 0.27523 0.0
C227 C 0.67057 0.48726 0.24517 0.0
C228 C 0.66646 0.49855 0.21976 0.0
C229 C 0.7244 0.53332 0.34238 0.0
C230 C 0.73968 0.62609 0.39953 0.0
C231 C 0.74728 0.58372 0.40647 0.0
C232 C 0.76815 0.609 0.41143 0.0
C233 C 0.76428 0.63031 0.40788 0.0
N234 N 0.72322 0.57975 0.39826 0.0
C235 C 0.71926 0.60053 0.39479 0.0
Co236 Co 0.50145 0.17122 0.3094 0.0
Co237 Co 0.4908 0.16841 0.38596 0.0
O238 O 0.48046 0.15433 0.34524 0.0
C239 C 0.44978 0.16518 0.29275 0.0
O240 O 0.44817 0.17371 0.31947 0.0
C241 C 0.48541 0.11616 0.39867 0.0
O242 O 0.50425 0.12116 0.37948 0.0
O243 O 0.52652 0.17289 0.38081 0.0
O244 O 0.53412 0.18013 0.33136 0.0
H245 H 0.55051 0.23181 0.46404 0.0
H246 H 0.45677 0.11695 0.30607 0.0
O247 O 0.4693 0.1626 0.28589 0.0
H248 H 0.53411 0.11095 0.2762 0.0
H249 H 0.52171 0.17868 0.1987 0.0
H250 H 0.55135 0.22039 0.29798 0.0
H251 H 0.53844 0.15359 0.28908 0.0
H252 H 0.4958 0.15756 0.24417 0.0
O253 O 0.4772 0.13225 0.40227 0.0
H254 H 0.53724 0.21415 0.41279 0.0
H255 H 0.46573 0.15162 0.44627 0.0
H256 H 0.57799 0.24208 0.25313 0.0
H257 H 0.45148 0.0739 0.29307 0.0
H258 H 0.56319 0.22121 0.20303 0.0
H259 H 0.49035 0.07071 0.27807 0.0
O260 O 0.50535 0.20576 0.32081 0.0
H261 H 0.39257 0.1202 0.37934 0.0
H262 H 0.47101 0.2031 0.40821 0.0
H263 H 0.42734 0.19867 0.41345 0.0
H264 H 0.38773 0.15696 0.399 0.0
H265 H 0.43665 0.12556 0.37423 0.0
H266 H 0.47834 0.16848 0.4979 0.0
H267 H 0.52096 0.20892 0.50704 0.0
O268 O 0.50429 0.20471 0.37121 0.0
C269 C 0.54149 0.17896 0.35791 0.0
C270 C 0.53186 0.21421 0.46034 0.0
C271 C 0.49137 0.17865 0.47935 0.0
N272 N 0.50066 0.18198 0.4265 0.0
C273 C 0.5242 0.20415 0.43136 0.0
C274 C 0.48436 0.16916 0.45006 0.0
C275 C 0.51528 0.20135 0.48445 0.0
C276 C 0.47375 0.11573 0.29938 0.0
N277 N 0.49788 0.13777 0.29828 0.0
C278 C 0.47064 0.0913 0.29213 0.0
C279 C 0.49246 0.08951 0.28375 0.0
C280 C 0.51702 0.11208 0.28271 0.0
C281 C 0.51938 0.13617 0.29014 0.0
C282 C 0.52838 0.18797 0.2204 0.0
C283 C 0.54484 0.21113 0.27628 0.0
C284 C 0.51374 0.17614 0.24622 0.0
N285 N 0.5221 0.18769 0.27373 0.0
C286 C 0.55998 0.22353 0.25095 0.0
C287 C 0.55165 0.21182 0.22285 0.0
C288 C 0.50797 0.21671 0.34633 0.0
C289 C 0.40968 0.13845 0.38577 0.0
C290 C 0.45389 0.18493 0.40176 0.0
C291 C 0.4292 0.18251 0.40485 0.0
C292 C 0.40698 0.15909 0.39677 0.0
N293 N 0.45637 0.16458 0.39099 0.0
C294 C 0.43468 0.14157 0.38303 0.0
Co295 Co 0.85861 0.35185 0.31731 0.0
Co296 Co 0.86412 0.3458 0.39317 0.0
O297 O 0.87841 0.35132 0.35242 0.0
C298 C 0.87461 0.31382 0.29728 0.0
O299 O 0.86606 0.30124 0.32284 0.0
C300 C 0.9155 0.39433 0.4045 0.0
O301 O 0.9104 0.40677 0.38347 0.0
O302 O 0.85696 0.37537 0.38838 0.0
O303 O 0.84279 0.36915 0.34066 0.0
H304 H 0.79833 0.33575 0.47143 0.0
H305 H 0.91593 0.37365 0.31267 0.0
O306 O 0.87381 0.33465 0.29235 0.0
H307 H 0.90154 0.44718 0.28891 0.0
H308 H 0.8469 0.3646 0.20764 0.0
H309 H 0.80406 0.34009 0.30681 0.0
H310 H 0.86422 0.40345 0.30044 0.0
H311 H 0.87147 0.36436 0.2524 0.0
O312 O 0.89962 0.37024 0.40972 0.0
H313 H 0.8165 0.34225 0.42023 0.0
H314 H 0.88202 0.33823 0.45322 0.0
H315 H 0.77882 0.3403 0.26272 0.0
H316 H 0.95382 0.41704 0.301 0.0
H317 H 0.80025 0.35261 0.21266 0.0
H318 H 0.94673 0.45418 0.28908 0.0
O319 O 0.82832 0.31702 0.32822 0.0
H320 H 0.91883 0.30271 0.38448 0.0
H321 H 0.8332 0.29064 0.41532 0.0
H322 H 0.84144 0.25371 0.41961 0.0
H323 H 0.88456 0.25964 0.40418 0.0
H324 H 0.90962 0.33904 0.38029 0.0
H325 H 0.86471 0.33198 0.50483 0.0
H326 H 0.8225 0.33058 0.51418 0.0
O327 O 0.82821 0.32077 0.37834 0.0
C328 C 0.8455 0.37948 0.36647 0.0
C329 C 0.81672 0.33628 0.46764 0.0
C330 C 0.85399 0.3342 0.48639 0.0
N331 N 0.85026 0.34054 0.4337 0.0
C332 C 0.82709 0.33991 0.43868 0.0
C333 C 0.86375 0.33785 0.45713 0.0
C334 C 0.8303 0.3334 0.49162 0.0
C335 C 0.91269 0.38968 0.30725 0.0
N336 N 0.8879 0.38598 0.30706 0.0
C337 C 0.93422 0.41421 0.30077 0.0
C338 C 0.93023 0.43505 0.29412 0.0
C339 C 0.90488 0.43114 0.29403 0.0
C340 C 0.88383 0.40634 0.30063 0.0
C341 C 0.83735 0.35923 0.22933 0.0
C342 C 0.81357 0.34561 0.28515 0.0
C343 C 0.85114 0.35898 0.25474 0.0
N344 N 0.83926 0.35235 0.28224 0.0
C345 C 0.79916 0.34563 0.26024 0.0
C346 C 0.81118 0.35251 0.23217 0.0
C347 C 0.81728 0.30944 0.35379 0.0
C348 C 0.89998 0.29989 0.39131 0.0
C349 C 0.85192 0.29333 0.40838 0.0
C350 C 0.85653 0.27238 0.41097 0.0
C351 C 0.88073 0.27572 0.40234 0.0
N352 N 0.8709 0.31698 0.39756 0.0
C353 C 0.89468 0.32041 0.38908 0.0
Co354 Co 0.35299 0.8744 0.72538 0.0
Co355 Co 0.34509 0.87673 0.64858 0.0
O356 O 0.3483 0.89068 0.6893 0.0
C357 C 0.30578 0.87809 0.7407 0.0
O358 O 0.29673 0.87069 0.71334 0.0
C359 C 0.39173 0.92941 0.63714 0.0
O360 O 0.40516 0.92468 0.65724 0.0
O361 O 0.37646 0.87248 0.65423 0.0
O362 O 0.37822 0.86733 0.704 0.0
H363 H 0.34236 0.81356 0.57093 0.0
H364 H 0.35949 0.92747 0.72849 0.0
O365 O 0.32789 0.88107 0.74832 0.0
H366 H 0.4445 0.93835 0.76039 0.0
H367 H 0.36495 0.86739 0.83643 0.0
H368 H 0.35675 0.82689 0.73711 0.0
H369 H 0.40784 0.89476 0.74695 0.0
H370 H 0.35932 0.88772 0.79072 0.0
O371 O 0.36767 0.91294 0.63245 0.0
H372 H 0.34621 0.83114 0.62211 0.0
H373 H 0.33733 0.89354 0.58799 0.0
H374 H 0.36259 0.80604 0.78222 0.0
H375 H 0.39555 0.97143 0.74203 0.0
H376 H 0.36672 0.8263 0.83234 0.0
H377 H 0.43844 0.97708 0.75805 0.0
O378 O 0.32367 0.83911 0.71356 0.0
H379 H 0.2946 0.92447 0.65398 0.0
H380 H 0.29088 0.8419 0.62546 0.0
H381 H 0.25155 0.84607 0.61947 0.0
H382 H 0.25327 0.88762 0.63373 0.0
H383 H 0.3334 0.91934 0.65986 0.0
H384 H 0.33361 0.87675 0.53641 0.0
H385 H 0.33602 0.83642 0.52763 0.0
O386 O 0.32229 0.84042 0.66321 0.0
C387 C 0.38628 0.8678 0.67739 0.0
C388 C 0.3412 0.83111 0.57447 0.0
C389 C 0.33633 0.86659 0.55509 0.0
N390 N 0.34182 0.86324 0.60808 0.0
C391 C 0.3433 0.84112 0.60342 0.0
C392 C 0.33851 0.87604 0.58435 0.0
C393 C 0.33767 0.84396 0.55019 0.0
C394 C 0.37806 0.92976 0.73562 0.0
N395 N 0.38154 0.90856 0.73696 0.0
C396 C 0.39842 0.9547 0.74318 0.0
C397 C 0.42249 0.95786 0.75214 0.0
C398 C 0.4259 0.93615 0.75343 0.0
C399 C 0.40511 0.91151 0.74568 0.0
C400 C 0.3632 0.85838 0.81472 0.0
C401 C 0.35867 0.83591 0.75882 0.0
C402 C 0.35994 0.86977 0.78876 0.0
N403 N 0.35783 0.85857 0.76125 0.0
C404 C 0.36191 0.82397 0.78429 0.0
C405 C 0.3642 0.83534 0.8124 0.0
C406 C 0.31486 0.82825 0.6881 0.0
C407 C 0.29361 0.90628 0.64763 0.0
C408 C 0.29175 0.85998 0.63186 0.0
C409 C 0.26944 0.86227 0.62833 0.0
C410 C 0.27042 0.88559 0.63631 0.0
N411 N 0.31442 0.88036 0.64296 0.0
C412 C 0.31554 0.9033 0.65082 0.0
Co413 Co 0.16921 0.4987 0.64155 0.0
Co414 Co 0.16229 0.50803 0.71722 0.0
O415 O 0.14982 0.48808 0.67962 0.0
C416 C 0.11881 0.49631 0.62579 0.0
O417 O 0.11754 0.50465 0.65274 0.0
C418 C 0.1568 0.4565 0.73399 0.0
O419 O 0.16563 0.45489 0.70747 0.0
O420 O 0.19886 0.51475 0.711 0.0
O421 O 0.2015 0.50554 0.66261 0.0
H422 H 0.22371 0.58503 0.78068 0.0
H423 H 0.11995 0.4478 0.64601 0.0
O424 O 0.13734 0.49218 0.61878 0.0
H425 H 0.18782 0.42587 0.61902 0.0
H426 H 0.18224 0.4909 0.53096 0.0
H427 H 0.22179 0.5414 0.62354 0.0
H428 H 0.19905 0.47191 0.62494 0.0
H429 H 0.15791 0.47791 0.5788 0.0
O430 O 0.15372 0.47578 0.74051 0.0
H431 H 0.20782 0.55935 0.7339 0.0
H432 H 0.1425 0.49912 0.78036 0.0
H433 H 0.24692 0.55488 0.57626 0.0
H434 H 0.10777 0.40148 0.64005 0.0
H435 H 0.22713 0.52957 0.52952 0.0
H436 H 0.14186 0.39027 0.62654 0.0
O437 O 0.17865 0.53616 0.64704 0.0
H438 H 0.06428 0.4522 0.72125 0.0
H439 H 0.1394 0.54145 0.73383 0.0
H440 H 0.09455 0.53365 0.74071 0.0
H441 H 0.0566 0.48873 0.73446 0.0
H442 H 0.10948 0.46097 0.71428 0.0
H443 H 0.15782 0.52404 0.82769 0.0
H444 H 0.19865 0.56737 0.82802 0.0
O445 O 0.17107 0.54065 0.69553 0.0
C446 C 0.21123 0.51242 0.68876 0.0
C447 C 0.20586 0.56619 0.78081 0.0
C448 C 0.16891 0.53194 0.8072 0.0
N449 N 0.17421 0.52781 0.75436 0.0
C450 C 0.19674 0.55159 0.75438 0.0
C451 C 0.16037 0.51789 0.78035 0.0
C452 C 0.19181 0.55626 0.80737 0.0
C453 C 0.13485 0.44307 0.63992 0.0
N454 N 0.16017 0.46253 0.6358 0.0
C455 C 0.12785 0.41681 0.63667 0.0
C456 C 0.147 0.41054 0.62913 0.0
C457 C 0.17279 0.4305 0.62493 0.0
C458 C 0.17906 0.45654 0.62841 0.0
C459 C 0.19109 0.50207 0.55118 0.0
C460 C 0.2131 0.53019 0.60333 0.0
C461 C 0.17737 0.49486 0.57832 0.0
N462 N 0.18847 0.50881 0.60398 0.0
C463 C 0.2274 0.53796 0.57661 0.0
C464 C 0.21628 0.52376 0.55039 0.0
C465 C 0.1778 0.54961 0.66905 0.0
C466 C 0.08066 0.47186 0.72406 0.0
C467 C 0.12299 0.52191 0.73087 0.0
C468 C 0.09764 0.51758 0.73492 0.0
C469 C 0.07636 0.49236 0.73144 0.0
N470 N 0.12705 0.5017 0.72364 0.0
C471 C 0.10629 0.47692 0.72023 0.0
Co472 Co 0.53444 0.69361 0.71106 0.0
Co473 Co 0.53658 0.69738 0.63399 0.0
O474 O 0.5507 0.6941 0.67254 0.0
C475 C 0.58858 0.73663 0.72509 0.0
O476 O 0.58751 0.75028 0.70236 0.0
C477 C 0.54136 0.65014 0.62183 0.0
O478 O 0.52863 0.6392 0.64675 0.0
O479 O 0.50117 0.66725 0.64405 0.0
O480 O 0.49883 0.67325 0.69346 0.0
H481 H 0.47032 0.70189 0.56696 0.0
H482 H 0.57334 0.67584 0.7078 0.0
O483 O 0.56968 0.71369 0.7303 0.0
H484 H 0.49217 0.59968 0.745 0.0
H485 H 0.52514 0.68512 0.82362 0.0
H486 H 0.49071 0.70156 0.73015 0.0
H487 H 0.49368 0.64144 0.7343 0.0
H488 H 0.54469 0.6852 0.77463 0.0
O489 O 0.54646 0.67308 0.61465 0.0
H490 H 0.48861 0.69798 0.61526 0.0
H491 H 0.5547 0.7035 0.57031 0.0
H492 H 0.47045 0.70145 0.77862 0.0
H493 H 0.57275 0.6345 0.71847 0.0
H494 H 0.48767 0.69318 0.82582 0.0
H495 H 0.53192 0.59603 0.73713 0.0
O496 O 0.53467 0.72676 0.7011 0.0
H497 H 0.63472 0.74346 0.62752 0.0
H498 H 0.55645 0.75131 0.60944 0.0
H499 H 0.6002 0.78893 0.59878 0.0
H500 H 0.63974 0.78512 0.60777 0.0
H501 H 0.59057 0.70641 0.63816 0.0
H502 H 0.53698 0.70717 0.52149 0.0
H503 H 0.49455 0.70651 0.51962 0.0
O504 O 0.52663 0.72214 0.65157 0.0
C505 C 0.48835 0.66237 0.6686 0.0
C506 C 0.48884 0.70224 0.56748 0.0
C507 C 0.52623 0.70516 0.54196 0.0
N508 N 0.52273 0.70056 0.59563 0.0
C509 C 0.49932 0.70007 0.59477 0.0
C510 C 0.53612 0.70296 0.56966 0.0
C511 C 0.50243 0.70481 0.54093 0.0
C512 C 0.55557 0.65925 0.71616 0.0
N513 N 0.53362 0.6611 0.72056 0.0
C514 C 0.55532 0.63587 0.72206 0.0
C515 C 0.5324 0.61428 0.7325 0.0
C516 C 0.51008 0.61631 0.7369 0.0
C517 C 0.51105 0.64 0.73074 0.0
C518 C 0.51743 0.68869 0.80321 0.0
C519 C 0.49823 0.6978 0.75056 0.0
C520 C 0.52845 0.68882 0.7754 0.0
N521 N 0.51873 0.69319 0.74951 0.0
C522 C 0.48671 0.69783 0.77795 0.0
C523 C 0.4964 0.69321 0.80442 0.0
C524 C 0.52861 0.73355 0.6765 0.0
C525 C 0.61764 0.74536 0.6235 0.0
C526 C 0.57354 0.74956 0.61363 0.0
C527 C 0.59827 0.7709 0.60742 0.0
C528 C 0.62045 0.76874 0.61244 0.0
N529 N 0.57093 0.7267 0.62445 0.0
C530 C 0.59259 0.72443 0.62941 0.0
H531 H 0.20226 0.09995 0.9828 0.0
H532 H 0.18265 0.12764 0.98034 0.0
H533 H 0.14124 0.09394 0.06297 0.0
H534 H 0.16104 0.06599 0.06577 0.0
H535 H 0.12796 0.10486 0.97621 0.0
H536 H 0.16862 0.17346 0.07269 0.0
H537 H 0.18434 0.15634 0.05763 0.0
H538 H 0.15631 0.13957 0.08172 0.0
C539 C 0.18944 0.09874 1.00087 0.0
C540 C 0.18305 0.08055 0.02438 0.0
C541 C 0.17826 0.11464 0.99938 0.0
C542 C 0.16053 0.11284 0.02142 0.0
C543 C 0.15519 0.09585 0.04592 0.0
H544 H 0.04782 0.15968 0.04711 0.0
H545 H 0.07858 0.14386 0.04864 0.0
C546 C 0.16649 0.07989 0.0475 0.0
C547 C 0.14553 0.12651 0.01678 0.0
H548 H 0.13191 0.17125 0.0476 0.0
C549 C 0.12898 0.11959 0.99162 0.0
C550 C 0.14704 0.1457 0.03689 0.0
C551 C 0.16519 0.15444 0.06364 0.0
C552 C 0.11299 0.13058 0.98668 0.0
C553 C 0.11406 0.14941 0.00715 0.0
C554 C 0.13121 0.15687 0.03186 0.0
C555 C 0.09566 0.15957 0.00522 0.0
C556 C 0.09425 0.12103 0.96043 0.0
C557 C 0.09491 0.17367 0.9801 0.0
C558 C 0.07693 0.18265 0.97892 0.0
C559 C 0.05974 0.17791 0.00306 0.0
C560 C 0.06077 0.16385 0.02811 0.0
C561 C 0.07845 0.1548 0.02913 0.0
H562 H 0.09206 0.10272 0.95059 0.0
H563 H 0.07462 0.1174 0.96733 0.0
H564 H 0.10175 0.13622 0.94261 0.0
H565 H 0.10834 0.17791 0.96157 0.0
H566 H 0.07675 0.19357 0.95944 0.0
H567 H 0.85084 0.91307 0.96019 0.0
H568 H 0.8679 0.96061 0.96086 0.0
H569 H 0.85537 0.95766 0.05652 0.0
H570 H 0.83882 0.91087 0.05632 0.0
H571 H 0.8454 0.99309 0.98694 0.0
H572 H 0.93613 0.00725 0.04253 0.0
H573 H 0.91401 0.97763 0.02258 0.0
H574 H 0.9059 0.98336 0.05963 0.0
C575 C 0.85133 0.9225 0.98126 0.0
C576 C 0.84366 0.90811 0.00821 0.0
C577 C 0.86106 0.94961 0.98159 0.0
C578 C 0.86316 0.96255 0.00883 0.0
C579 C 0.85416 0.94803 0.03536 0.0
H580 H 0.94746 0.12642 0.06364 0.0
H581 H 0.91755 0.07889 0.06375 0.0
C582 C 0.84463 0.92117 0.0351 0.0
C583 C 0.87647 0.99141 0.01035 0.0
H584 H 0.9312 0.04443 0.03831 0.0
C585 C 0.86419 0.0044 0.99804 0.0
C586 C 0.90085 0.00596 0.02515 0.0
C587 C 0.91517 0.99294 0.03806 0.0
C588 C 0.87567 0.03173 1.00037 0.0
C589 C 0.90017 0.0463 0.01497 0.0
C590 C 0.91228 0.03319 0.02744 0.0
C591 C 0.91486 0.07528 0.01529 0.0
C592 C 0.86136 0.04473 0.98747 0.0
C593 C 0.92299 0.08894 0.98809 0.0
C594 C 0.94003 0.11589 0.98793 0.0
C595 C 0.94949 0.12987 0.01504 0.0
C596 C 0.94049 0.11631 0.04239 0.0
C597 C 0.92344 0.08917 0.04249 0.0
H598 H 0.83996 0.0308 0.98584 0.0
H599 H 0.8646 0.06176 1.00132 0.0
H600 H 0.86875 0.05183 0.96447 0.0
H601 H 0.91715 0.07858 0.96686 0.0
H602 H 0.94656 0.12554 0.9664 0.0
H603 H 0.91053 0.86801 0.06625 0.0
H604 H 0.9585 0.88904 0.06321 0.0
H605 H 0.95279 0.87115 0.96864 0.0
H606 H 0.90547 0.85036 0.97129 0.0
H607 H 0.98924 0.86171 1.00083 0.0
H608 H 0.00299 0.9611 0.01994 0.0
H609 H 0.98411 0.93668 0.0477 0.0
H610 H 0.97164 0.9333 0.01017 0.0
C611 C 0.91949 0.86822 0.04494 0.0
C612 C 0.90407 0.85754 0.01902 0.0
C613 C 0.94687 0.88038 0.0432 0.0
C614 C 0.95911 0.88189 0.01559 0.0
C615 C 0.94372 0.87024 0.99012 0.0
H616 H 0.12022 0.98984 0.9617 0.0
H617 H 0.07227 0.96181 0.96162 0.0
C618 C 0.91656 0.85832 0.99176 0.0
C619 C 0.98797 0.89649 0.01248 0.0
H620 H 0.04114 0.95817 0.01334 0.0
C621 C 0.00064 0.88279 0.00369 0.0
C622 C 0.00261 0.92403 0.01554 0.0
C623 C 0.98973 0.93979 0.02362 0.0
C624 C 0.02773 0.8959 0.99833 0.0
C625 C 0.04246 0.92337 0.00203 0.0
C626 C 0.02973 0.93711 0.01043 0.0
C627 C 0.07133 0.93808 0.99924 0.0
C628 C 0.04037 0.88034 0.98846 0.0
C629 C 0.08654 0.93364 0.02 0.0
C630 C 0.11369 0.94956 0.02013 0.0
C631 C 0.12623 0.97026 0.9995 0.0
C632 C 0.11111 0.9739 0.97767 0.0
C633 C 0.08377 0.95804 0.97774 0.0
H634 H 0.02576 0.86097 0.9791 0.0
H635 H 0.05568 0.89119 0.97126 0.0
H636 H 0.04985 0.8769 0.00812 0.0
H637 H 0.07733 0.91858 0.037 0.0
H638 H 0.1248 0.94616 0.03711 0.0
H639 H 0.80262 0.37454 0.33872 0.0
H640 H 0.78711 0.40571 0.33763 0.0
H641 H 0.84742 0.45517 0.40057 0.0
H642 H 0.86346 0.42372 0.40155 0.0
H643 H 0.76986 0.42548 0.38512 0.0
H644 H 0.85807 0.503 0.3261 0.0
H645 H 0.85083 0.46944 0.32793 0.0
H646 H 0.86309 0.49001 0.36049 0.0
C647 C 0.81254 0.39194 0.35255 0.0
C648 C 0.83441 0.39685 0.37002 0.0
C649 C 0.8036 0.40971 0.35192 0.0
C650 C 0.81637 0.43289 0.36862 0.0
C651 C 0.83757 0.4375 0.38718 0.0
H652 H 0.76894 0.55025 0.37496 0.0
H653 H 0.7947 0.5284 0.37971 0.0
C654 C 0.84652 0.41947 0.38798 0.0
C655 C 0.80731 0.45207 0.36555 0.0
H656 H 0.82281 0.51061 0.33308 0.0
C657 C 0.78152 0.44422 0.37405 0.0
C658 C 0.82257 0.47638 0.35086 0.0
C659 C 0.85015 0.48531 0.34058 0.0
C660 C 0.77037 0.45981 0.36773 0.0
C661 C 0.78531 0.48369 0.35222 0.0
C662 C 0.81139 0.49207 0.3446 0.0
C663 C 0.77392 0.50025 0.34455 0.0
C664 C 0.74256 0.45058 0.37745 0.0
C665 C 0.75464 0.4924 0.32213 0.0
C666 C 0.73996 0.50498 0.31922 0.0
C667 C 0.74424 0.52529 0.33899 0.0
C668 C 0.76506 0.53445 0.35966 0.0
C669 C 0.77984 0.52207 0.36236 0.0
H670 H 0.73508 0.43371 0.39316 0.0
H671 H 0.74121 0.46673 0.38853 0.0
H672 H 0.72965 0.44445 0.35737 0.0
H673 H 0.74991 0.47556 0.30816 0.0
H674 H 0.72396 0.49743 0.30324 0.0
H675 H 0.52483 0.25255 0.30005 0.0
H676 H 0.54523 0.30031 0.30451 0.0
H677 H 0.53337 0.293 0.40034 0.0
H678 H 0.51302 0.24565 0.39637 0.0
H679 H 0.52373 0.33298 0.33921 0.0
H680 H 0.6162 0.34034 0.38145 0.0
H681 H 0.59304 0.31314 0.35875 0.0
H682 H 0.58575 0.31545 0.39735 0.0
C683 C 0.52618 0.26105 0.32201 0.0
C684 C 0.51742 0.24519 0.34784 0.0
C685 C 0.53784 0.28831 0.3245 0.0
C686 C 0.54094 0.30002 0.35279 0.0
C687 C 0.53126 0.28425 0.37836 0.0
H688 H 0.63855 0.46335 0.40863 0.0
H689 H 0.60845 0.41585 0.40973 0.0
C690 C 0.51961 0.25713 0.37595 0.0
C691 C 0.55564 0.32879 0.35606 0.0
H692 H 0.61459 0.37933 0.37903 0.0
C693 C 0.54359 0.34319 0.34789 0.0
C694 C 0.58135 0.34185 0.36785 0.0
C695 C 0.59505 0.32705 0.37677 0.0
C696 C 0.55674 0.37055 0.35107 0.0
C697 C 0.5828 0.38376 0.36204 0.0
C698 C 0.5946 0.36919 0.37074 0.0
C699 C 0.59898 0.41273 0.36235 0.0
C700 C 0.5425 0.38499 0.34292 0.0
C701 C 0.60362 0.42665 0.33542 0.0
C702 C 0.62061 0.45361 0.33472 0.0
C703 C 0.63369 0.46736 0.36093 0.0
C704 C 0.62873 0.45344 0.38808 0.0
C705 C 0.61158 0.42631 0.38874 0.0
H706 H 0.52095 0.37212 0.34501 0.0
H707 H 0.54877 0.40249 0.35736 0.0
H708 H 0.54683 0.39153 0.31918 0.0
H709 H 0.59473 0.41655 0.31462 0.0
H710 H 0.62396 0.4635 0.3133 0.0
H711 H 0.57692 0.18839 0.31354 0.0
H712 H 0.62291 0.20236 0.31846 0.0
H713 H 0.61584 0.19933 0.415 0.0
H714 H 0.56905 0.18517 0.41038 0.0
H715 H 0.6561 0.24661 0.39273 0.0
H716 H 0.66172 0.16414 0.34162 0.0
H717 H 0.64408 0.17493 0.31838 0.0
H718 H 0.63131 0.16104 0.35475 0.0
C719 C 0.58479 0.19015 0.33595 0.0
C720 C 0.5691 0.18552 0.36162 0.0
C721 C 0.6112 0.19799 0.33865 0.0
C722 C 0.62268 0.20134 0.36704 0.0
C723 C 0.60718 0.19647 0.39285 0.0
H724 H 0.79014 0.2839 0.4041 0.0
H725 H 0.74324 0.25439 0.40887 0.0
C726 C 0.58051 0.18843 0.39018 0.0
C727 C 0.65139 0.21267 0.36915 0.0
H728 H 0.70186 0.20598 0.34181 0.0
C729 C 0.66614 0.23751 0.3822 0.0
C730 C 0.66438 0.20081 0.35511 0.0
C731 C 0.64952 0.17364 0.34193 0.0
C732 C 0.69354 0.25143 0.38023 0.0
C733 C 0.70647 0.23996 0.36523 0.0
C734 C 0.69181 0.21474 0.35309 0.0
C735 C 0.73523 0.25435 0.36147 0.0
C736 C 0.70837 0.2788 0.39301 0.0
C737 C 0.7464 0.26299 0.33293 0.0
C738 C 0.77345 0.27979 0.32997 0.0
C739 C 0.7896 0.2882 0.35558 0.0
C740 C 0.77837 0.27805 0.38387 0.0
C741 C 0.75149 0.26122 0.38673 0.0
H742 H 0.69524 0.28673 0.39818 0.0
H743 H 0.71819 0.27851 0.41416 0.0
H744 H 0.7237 0.2923 0.37709 0.0
H745 H 0.73407 0.25773 0.31314 0.0
H746 H 0.78144 0.28715 0.30788 0.0
H747 H 0.41551 0.8632 0.72185 0.0
H748 H 0.4466 0.84797 0.7178 0.0
H749 H 0.43664 0.84223 0.62158 0.0
H750 H 0.40487 0.85749 0.62536 0.0
H751 H 0.42881 0.79668 0.64865 0.0
H752 H 0.52181 0.8803 0.68946 0.0
H753 H 0.49501 0.87236 0.71446 0.0
H754 H 0.49457 0.88388 0.67712 0.0
C755 C 0.42019 0.8593 0.69964 0.0
C756 C 0.40758 0.8616 0.67388 0.0
C757 C 0.43825 0.85075 0.69741 0.0
C758 C 0.4443 0.84441 0.66939 0.0
C759 C 0.43241 0.84735 0.64341 0.0
H760 H 0.52286 0.75803 0.62763 0.0
H761 H 0.50553 0.7876 0.62592 0.0
C762 C 0.4143 0.85606 0.6456 0.0
C763 C 0.46045 0.83168 0.66809 0.0
H764 H 0.51854 0.83791 0.69147 0.0
C765 C 0.44859 0.80585 0.65752 0.0
C766 C 0.48613 0.84359 0.68008 0.0
C767 C 0.50022 0.87166 0.69066 0.0
C768 C 0.46136 0.79127 0.65954 0.0
C769 C 0.48681 0.803 0.67206 0.0
C770 C 0.49893 0.82898 0.68214 0.0
C771 C 0.50112 0.78845 0.67401 0.0
C772 C 0.44722 0.76314 0.64905 0.0
C773 C 0.50553 0.78012 0.70187 0.0
C774 C 0.51581 0.76323 0.70307 0.0
C775 C 0.52167 0.75447 0.67637 0.0
C776 C 0.51853 0.7642 0.6487 0.0
C777 C 0.50851 0.78109 0.64758 0.0
H778 H 0.42587 0.75541 0.64623 0.0
H779 H 0.45529 0.76183 0.62702 0.0
H780 H 0.45011 0.75044 0.66518 0.0
H781 H 0.49995 0.78573 0.72254 0.0
H782 H 0.51799 0.75614 0.72472 0.0
H783 H 0.28789 0.79978 0.63897 0.0
H784 H 0.26097 0.75251 0.63461 0.0
H785 H 0.27262 0.7441 0.7287 0.0
H786 H 0.29998 0.79179 0.73343 0.0
H787 H 0.28375 0.71295 0.6896 0.0
H788 H 0.18648 0.702 0.66486 0.0
H789 H 0.21255 0.72557 0.64164 0.0
H790 H 0.21296 0.73131 0.68135 0.0
C791 C 0.28448 0.78805 0.65897 0.0
C792 C 0.29613 0.7997 0.68663 0.0
C793 C 0.26893 0.76096 0.65639 0.0
C794 C 0.26457 0.74485 0.68137 0.0
C795 C 0.27566 0.75629 0.70919 0.0
H796 H 0.16365 0.57939 0.70183 0.0
H797 H 0.18407 0.62691 0.70176 0.0
C798 C 0.2912 0.78352 0.71187 0.0
C799 C 0.25 0.71604 0.67771 0.0
H800 H 0.19089 0.6645 0.65661 0.0
C801 C 0.26342 0.70231 0.6825 0.0
C802 C 0.2235 0.7023 0.66844 0.0
C803 C 0.20791 0.71597 0.66401 0.0
C804 C 0.25108 0.67516 0.67804 0.0
C805 C 0.22476 0.66149 0.66814 0.0
C806 C 0.21123 0.67516 0.66366 0.0
C807 C 0.21034 0.63266 0.66497 0.0
C808 C 0.2661 0.66118 0.68459 0.0
C809 C 0.21766 0.62009 0.64345 0.0
C810 C 0.20589 0.59274 0.64333 0.0
C811 C 0.1868 0.57772 0.66489 0.0
C812 C 0.1785 0.5904 0.68516 0.0
C813 C 0.1901 0.61758 0.68512 0.0
H814 H 0.28449 0.67376 0.69719 0.0
H815 H 0.25392 0.6431 0.69781 0.0
H816 H 0.27132 0.65541 0.6631 0.0
H817 H 0.23306 0.63147 0.62745 0.0
H818 H 0.21271 0.58353 0.62749 0.0
H819 H 0.24694 0.54651 0.72965 0.0
H820 H 0.29478 0.56665 0.72659 0.0
H821 H 0.2865 0.51719 0.65123 0.0
H822 H 0.23902 0.49698 0.6541 0.0
H823 H 0.33088 0.54219 0.72189 0.0
H824 H 0.32737 0.59677 0.62137 0.0
H825 H 0.30114 0.58267 0.64855 0.0
H826 H 0.30527 0.56195 0.62232 0.0
C827 C 0.25529 0.53942 0.71301 0.0
C828 C 0.23921 0.52041 0.69187 0.0
C829 C 0.28258 0.551 0.7112 0.0
C830 C 0.29401 0.54364 0.68834 0.0
C831 C 0.27798 0.52332 0.66875 0.0
H832 H 0.45723 0.62765 0.6245 0.0
H833 H 0.41006 0.59576 0.62781 0.0
C834 C 0.25084 0.5118 0.67048 0.0
C835 C 0.32256 0.55865 0.68318 0.0
H836 H 0.36879 0.60429 0.63651 0.0
C837 C 0.33923 0.55571 0.70321 0.0
C838 C 0.33322 0.57591 0.65847 0.0
C839 C 0.31594 0.57975 0.63644 0.0
C840 C 0.36651 0.56996 0.69939 0.0
C841 C 0.37729 0.58809 0.67538 0.0
C842 C 0.3605 0.59038 0.65484 0.0
C843 C 0.40581 0.60667 0.67302 0.0
C844 C 0.38351 0.56543 0.72113 0.0
C845 C 0.41877 0.6237 0.69695 0.0
C846 C 0.44541 0.64165 0.69519 0.0
C847 C 0.45984 0.64338 0.66923 0.0
C848 C 0.44673 0.62675 0.64483 0.0
C849 C 0.41985 0.60852 0.64673 0.0
H850 H 0.37279 0.5454 0.73085 0.0
H851 H 0.4016 0.56817 0.71012 0.0
H852 H 0.38921 0.57957 0.73997 0.0
H853 H 0.40819 0.62328 0.71702 0.0
H854 H 0.45462 0.6543 0.71434 0.0
H855 H 0.03337 0.25976 0.90342 0.0
H856 H 0.05515 0.29466 0.86692 0.0
H857 H 0.12392 0.33158 0.9232 0.0
H858 H 0.10227 0.29597 0.96001 0.0
H859 H 0.07251 0.34603 0.87457 0.0
H860 H 0.15463 0.33069 0.84108 0.0
H861 H 0.12676 0.3067 0.86219 0.0
H862 H 0.15228 0.33514 0.88068 0.0
C863 C 0.05318 0.27516 0.90818 0.0
C864 C 0.06609 0.27498 0.93472 0.0
C865 C 0.06562 0.29515 0.88717 0.0
C866 C 0.09127 0.31556 0.89209 0.0
C867 C 0.10429 0.31571 0.91865 0.0
H868 H 0.15321 0.46145 0.79415 0.0
H869 H 0.13957 0.42773 0.83257 0.0
C870 C 0.09183 0.29548 0.93977 0.0
C871 C 0.1035 0.33705 0.86973 0.0
H872 H 0.15404 0.36728 0.8198 0.0
C873 C 0.09038 0.3507 0.86266 0.0
C874 C 0.12659 0.34284 0.85389 0.0
C875 C 0.14083 0.32796 0.85956 0.0
C876 C 0.09958 0.36989 0.84017 0.0
C877 C 0.12301 0.37617 0.82481 0.0
C878 C 0.13618 0.36252 0.83176 0.0
C879 C 0.13403 0.39706 0.80169 0.0
C880 C 0.0837 0.38279 0.83259 0.0
C881 C 0.13668 0.39132 0.77168 0.0
C882 C 0.14482 0.41076 0.74951 0.0
C883 C 0.15027 0.43613 0.75712 0.0
C884 C 0.14865 0.44197 0.78741 0.0
C885 C 0.14084 0.42272 0.80946 0.0
H886 H 0.06305 0.3708 0.84012 0.0
H887 H 0.09231 0.40201 0.84416 0.0
H888 H 0.08381 0.3862 0.80803 0.0
H889 H 0.13166 0.37163 0.76527 0.0
H890 H 0.14602 0.40574 0.72638 0.0
H891 H 0.76206 0.78811 0.92032 0.0
H892 H 0.73038 0.77769 0.88002 0.0
H893 H 0.71028 0.83331 0.91572 0.0
H894 H 0.74207 0.84387 0.95662 0.0
H895 H 0.66672 0.78548 0.89701 0.0
H896 H 0.74292 0.82677 0.80865 0.0
H897 H 0.74552 0.80337 0.83202 0.0
H898 H 0.75042 0.83348 0.84812 0.0
C899 C 0.75083 0.79808 0.91982 0.0
C900 C 0.75481 0.81706 0.94153 0.0
C901 C 0.73285 0.7922 0.89661 0.0
C902 C 0.71855 0.80526 0.89442 0.0
C903 C 0.72142 0.82328 0.91684 0.0
H904 H 0.62735 0.78823 0.73029 0.0
H905 H 0.65931 0.80793 0.77131 0.0
C906 C 0.73947 0.82918 0.94024 0.0
C907 C 0.70067 0.79985 0.8686 0.0
H908 H 0.69887 0.79806 0.79186 0.0
C909 C 0.67375 0.78856 0.87403 0.0
C910 C 0.70995 0.80433 0.83862 0.0
C911 C 0.73881 0.81791 0.83144 0.0
C912 C 0.65571 0.78026 0.85022 0.0
C913 C 0.66487 0.783 0.82029 0.0
C914 C 0.69188 0.79566 0.81483 0.0
C915 C 0.6466 0.77131 0.79463 0.0
C916 C 0.62695 0.76829 0.85733 0.0
C917 C 0.62965 0.74416 0.7936 0.0
C918 C 0.61158 0.73291 0.77031 0.0
C919 C 0.61012 0.74856 0.74736 0.0
C920 C 0.62795 0.77566 0.74763 0.0
C921 C 0.64612 0.78694 0.7711 0.0
H922 H 0.62388 0.77475 0.87966 0.0
H923 H 0.61675 0.77348 0.84001 0.0
H924 H 0.6178 0.74665 0.85787 0.0
H925 H 0.63021 0.73165 0.81108 0.0
H926 H 0.59836 0.71193 0.77067 0.0
H927 H 0.31012 0.87662 0.80116 0.0
H928 H 0.28887 0.88892 0.83947 0.0
H929 H 0.2468 0.90444 0.77068 0.0
H930 H 0.26769 0.89138 0.73191 0.0
H931 H 0.29542 0.93683 0.84484 0.0
H932 H 0.18957 0.86471 0.8325 0.0
H933 H 0.21479 0.85994 0.81581 0.0
H934 H 0.20508 0.88121 0.7982 0.0
C935 C 0.2961 0.88234 0.79411 0.0
C936 C 0.29071 0.88325 0.76349 0.0
C937 C 0.2839 0.88929 0.81609 0.0
C938 C 0.26613 0.89746 0.80802 0.0
C939 C 0.26006 0.89769 0.77748 0.0
H940 H 0.23572 0.00257 0.90932 0.0
H941 H 0.24841 0.9799 0.87345 0.0
C942 C 0.2721 0.89039 0.75535 0.0
C943 C 0.25621 0.90811 0.83153 0.0
H944 H 0.20074 0.90188 0.86364 0.0
C945 C 0.2747 0.92902 0.84906 0.0
C946 C 0.22919 0.89775 0.83726 0.0
C947 C 0.20848 0.8745 0.82017 0.0
C948 C 0.26698 0.94017 0.87174 0.0
C949 C 0.24001 0.93056 0.87666 0.0
C950 C 0.22142 0.90927 0.85967 0.0
C951 C 0.23101 0.94349 0.89822 0.0
C952 C 0.28782 0.96218 0.89031 0.0
C953 C 0.21644 0.93029 0.9238 0.0
C954 C 0.20898 0.94324 0.94455 0.0
C955 C 0.2159 0.96952 0.93983 0.0
C956 C 0.23017 0.98241 0.91388 0.0
C957 C 0.23752 0.9695 0.89328 0.0
H958 H 0.30667 0.9622 0.88962 0.0
H959 H 0.29134 0.98118 0.88118 0.0
H960 H 0.28159 0.96076 0.9141 0.0
H961 H 0.21118 0.91014 0.9279 0.0
H962 H 0.19789 0.93273 0.96421 0.0
H963 H 0.45353 0.15905 0.23285 0.0
H964 H 0.41964 0.14579 0.19478 0.0
H965 H 0.36531 0.1423 0.26197 0.0
H966 H 0.39962 0.15621 0.30052 0.0
H967 H 0.37433 0.09975 0.19377 0.0
H968 H 0.35408 0.18212 0.19381 0.0
H969 H 0.38282 0.18442 0.21127 0.0
H970 H 0.35171 0.16766 0.23005 0.0
C971 C 0.43446 0.15568 0.23964 0.0
C972 C 0.42922 0.15854 0.2698 0.0
C973 C 0.41511 0.14816 0.21775 0.0
C974 C 0.39001 0.14325 0.22543 0.0
C975 C 0.38471 0.14649 0.25543 0.0
H976 H 0.25035 0.04433 0.12461 0.0
H977 H 0.28516 0.06529 0.16161 0.0
C978 C 0.40426 0.15427 0.27746 0.0
C979 C 0.36915 0.13284 0.2022 0.0
H980 H 0.32524 0.14449 0.16505 0.0
C981 C 0.36368 0.10961 0.18745 0.0
C982 C 0.3555 0.1459 0.1937 0.0
C983 C 0.36143 0.17154 0.2078 0.0
C984 C 0.34475 0.09889 0.1647 0.0
C985 C 0.33047 0.11142 0.15689 0.0
C986 C 0.33616 0.13488 0.17124 0.0
C987 C 0.30889 0.09972 0.13468 0.0
C988 C 0.34036 0.0743 0.14904 0.0
C989 C 0.31036 0.11248 0.10749 0.0
C990 C 0.2903 0.10054 0.0861 0.0
C991 C 0.26846 0.07571 0.09172 0.0
C992 C 0.26695 0.06334 0.11931 0.0
C993 C 0.28687 0.07527 0.14056 0.0
H994 H 0.35743 0.07132 0.1517 0.0
H995 H 0.32302 0.05713 0.15899 0.0
H996 H 0.33659 0.07493 0.12468 0.0
H997 H 0.32722 0.13144 0.10262 0.0
H998 H 0.292 0.11062 0.06515 0.0
H999 H 0.92389 0.21695 0.05967 0.0
H1000 H 0.90597 0.23369 0.09793 0.0
H1001 H 0.97557 0.25946 0.1516 0.0
H1002 H 0.99376 0.24359 0.11363 0.0
H1003 H 0.89509 0.21963 0.15793 0.0
H1004 H 0.96944 0.3247 0.14827 0.0
H1005 H 0.96588 0.30091 0.12041 0.0
H1006 H 0.98396 0.30467 0.15446 0.0
C1007 C 0.93547 0.22646 0.07946 0.0
C1008 C 0.9603 0.22902 0.08346 0.0
C1009 C 0.92517 0.23592 0.10133 0.0
C1010 C 0.93962 0.24816 0.1274 0.0
C1011 C 0.96433 0.25063 0.13138 0.0
H1012 H 0.88459 0.27297 0.29956 0.0
H1013 H 0.89949 0.25609 0.2582 0.0
C1014 C 0.97464 0.24137 0.10962 0.0
C1015 C 0.92884 0.25778 0.15106 0.0
H1016 H 0.94315 0.3119 0.19268 0.0
C1017 C 0.90542 0.23985 0.16537 0.0
C1018 C 0.94224 0.28422 0.16055 0.0
C1019 C 0.96663 0.30479 0.14491 0.0
C1020 C 0.89535 0.24755 0.18943 0.0
C1021 C 0.90944 0.27373 0.19982 0.0
C1022 C 0.93255 0.29174 0.18502 0.0
C1023 C 0.90011 0.28334 0.2251 0.0
C1024 C 0.86957 0.22769 0.20316 0.0
C1025 C 0.89626 0.30468 0.22048 0.0
C1026 C 0.88826 0.31459 0.24404 0.0
C1027 C 0.88379 0.30333 0.27287 0.0
C1028 C 0.88772 0.28197 0.2776 0.0
C1029 C 0.89601 0.27218 0.25392 0.0
H1030 H 0.85803 0.21101 0.18768 0.0
H1031 H 0.87336 0.21975 0.22397 0.0
H1032 H 0.8576 0.23675 0.20914 0.0
H1033 H 0.89937 0.31368 0.1985 0.0
H1034 H 0.88537 0.331 0.23947 0.0
H1035 H 0.78089 0.62754 0.29525 0.0
H1036 H 0.80314 0.66071 0.25601 0.0
H1037 H 0.72861 0.63789 0.21451 0.0
H1038 H 0.70638 0.60476 0.25309 0.0
H1039 H 0.76653 0.6413 0.17401 0.0
H1040 H 0.80407 0.73049 0.24537 0.0
H1041 H 0.81257 0.70646 0.2569 0.0
H1042 H 0.779 0.69866 0.25816 0.0
C1043 C 0.76926 0.62981 0.27794 0.0
C1044 C 0.74187 0.61348 0.27731 0.0
C1045 C 0.78199 0.64876 0.25556 0.0
C1046 C 0.7675 0.65178 0.23239 0.0
C1047 C 0.74018 0.6358 0.23208 0.0
H1048 H 0.78891 0.77157 0.11296 0.0
H1049 H 0.7781 0.73839 0.15139 0.0
C1050 C 0.7275 0.61691 0.25427 0.0
C1051 C 0.78041 0.67125 0.20804 0.0
H1052 H 0.81263 0.73686 0.19358 0.0
C1053 C 0.77691 0.66222 0.17824 0.0
C1054 C 0.79383 0.69848 0.21371 0.0
C1055 C 0.79752 0.70925 0.2452 0.0
C1056 C 0.78562 0.67971 0.15387 0.0
C1057 C 0.79847 0.70692 0.15953 0.0
C1058 C 0.80285 0.71596 0.18936 0.0
C1059 C 0.80494 0.72628 0.13507 0.0
C1060 C 0.77983 0.66893 0.12231 0.0
C1061 C 0.82345 0.73028 0.11278 0.0
C1062 C 0.82965 0.7493 0.09044 0.0
C1063 C 0.81756 0.76468 0.0903 0.0
C1064 C 0.79873 0.7602 0.11242 0.0
C1065 C 0.79254 0.74126 0.13452 0.0
H1066 H 0.76592 0.64748 0.12191 0.0
H1067 H 0.77148 0.67881 0.10873 0.0
H1068 H 0.79831 0.67268 0.11143 0.0
H1069 H 0.83345 0.71909 0.113 0.0
H1070 H 0.84434 0.75239 0.07384 0.0
H1071 H 0.06694 0.48133 0.63352 0.0
H1072 H 0.03366 0.46857 0.59379 0.0
H1073 H 0.09341 0.48936 0.52639 0.0
H1074 H 0.12627 0.50106 0.56566 0.0
H1075 H 0.02622 0.49274 0.54437 0.0
H1076 H 0.04407 0.41311 0.50797 0.0
H1077 H 0.05748 0.43117 0.54228 0.0
H1078 H 0.073 0.4448 0.50681 0.0
C1079 C 0.0729 0.48335 0.6102 0.0
C1080 C 0.09902 0.49166 0.60263 0.0
C1081 C 0.05394 0.47611 0.58756 0.0
C1082 C 0.06099 0.47739 0.55715 0.0
C1083 C 0.0874 0.48747 0.54968 0.0
H1084 H 0.95365 0.44661 0.40416 0.0
H1085 H 0.99018 0.46904 0.43977 0.0
C1086 C 0.10616 0.4942 0.57216 0.0
C1087 C 0.04072 0.46678 0.53324 0.0
H1088 H 0.01638 0.42135 0.47703 0.0
C1089 C 0.024 0.47712 0.52963 0.0
C1090 C 0.03771 0.44619 0.51424 0.0
C1091 C 0.05383 0.43298 0.51816 0.0
C1092 C 0.00429 0.46737 0.50749 0.0
C1093 C 0.00169 0.44717 0.48812 0.0
C1094 C 0.01859 0.43705 0.49165 0.0
C1095 C 0.98006 0.43429 0.46596 0.0
C1096 C 0.9859 0.47816 0.50574 0.0
C1097 C 0.96286 0.40726 0.46822 0.0
C1098 C 0.94246 0.39442 0.44776 0.0
C1099 C 0.93856 0.4083 0.42451 0.0
C1100 C 0.95605 0.43537 0.42186 0.0
C1101 C 0.97676 0.44826 0.44238 0.0
H1102 H 0.9868 0.48923 0.52632 0.0
H1103 H 0.99142 0.49169 0.48631 0.0
H1104 H 0.96538 0.46216 0.50241 0.0
H1105 H 0.96506 0.39602 0.48611 0.0
H1106 H 0.92954 0.37355 0.45052 0.0
H1107 H 0.60455 0.55419 0.39794 0.0
H1108 H 0.58308 0.56747 0.43581 0.0
H1109 H 0.63519 0.56743 0.50385 0.0
H1110 H 0.65689 0.55481 0.46645 0.0
H1111 H 0.55836 0.54566 0.49252 0.0
H1112 H 0.64841 0.64254 0.50545 0.0
H1113 H 0.64383 0.62074 0.47469 0.0
H1114 H 0.65358 0.61533 0.51107 0.0
C1115 C 0.61127 0.55688 0.42102 0.0
C1116 C 0.63271 0.55394 0.4291 0.0
C1117 C 0.59897 0.56438 0.4426 0.0
C1118 C 0.6079 0.56888 0.47249 0.0
C1119 C 0.62838 0.56461 0.4808 0.0
H1120 H 0.53885 0.60247 0.62963 0.0
H1121 H 0.5534 0.58043 0.59403 0.0
C1122 C 0.64078 0.55742 0.45933 0.0
C1123 C 0.59701 0.57948 0.49481 0.0
H1124 H 0.61444 0.63212 0.54049 0.0
C1125 C 0.57053 0.56458 0.50301 0.0
C1126 C 0.61295 0.60426 0.50825 0.0
C1127 C 0.6412 0.62179 0.49926 0.0
C1128 C 0.5596 0.57381 0.52452 0.0
C1129 C 0.57573 0.59835 0.53836 0.0
C1130 C 0.60218 0.61317 0.53008 0.0
C1131 C 0.56541 0.61029 0.55969 0.0
C1132 C 0.53081 0.5576 0.5317 0.0
C1133 C 0.56765 0.63442 0.55236 0.0
C1134 C 0.55978 0.64709 0.5726 0.0
C1135 C 0.54934 0.63593 0.60079 0.0
C1136 C 0.54676 0.61154 0.6081 0.0
C1137 C 0.55487 0.59885 0.58771 0.0
H1138 H 0.52012 0.54193 0.51479 0.0
H1139 H 0.5284 0.5482 0.55397 0.0
H1140 H 0.5217 0.57012 0.53281 0.0
H1141 H 0.57575 0.64362 0.53091 0.0
H1142 H 0.56199 0.66575 0.56603 0.0
H1143 H 0.44419 0.95894 0.62448 0.0
H1144 H 0.46455 0.9921 0.58475 0.0
H1145 H 0.3894 0.98364 0.56337 0.0
H1146 H 0.36887 0.95047 0.60258 0.0
H1147 H 0.43879 0.97855 0.51694 0.0
H1148 H 0.45035 0.06712 0.57555 0.0
H1149 H 0.4518 0.04107 0.5953 0.0
H1150 H 0.42092 0.0363 0.58234 0.0
C1151 C 0.43211 0.96451 0.61169 0.0
C1152 C 0.40493 0.95208 0.61662 0.0
C1153 C 0.44374 0.9833 0.58893 0.0
C1154 C 0.42839 0.99014 0.57122 0.0
C1155 C 0.4015 0.97856 0.57689 0.0
H1156 H 0.44072 0.09451 0.43181 0.0
H1157 H 0.42839 0.06268 0.47239 0.0
C1158 C 0.38985 0.95965 0.59932 0.0
C1159 C 0.43986 0.00839 0.54566 0.0
H1160 H 0.45675 0.07005 0.523 0.0
C1161 C 0.44311 0.99869 0.51821 0.0
C1162 C 0.44516 0.03445 0.54756 0.0
C1163 C 0.44206 0.04558 0.57676 0.0
C1164 C 0.45062 0.01421 0.49213 0.0
C1165 C 0.45545 0.04023 0.49385 0.0
C1166 C 0.45295 0.05008 0.52165 0.0
C1167 C 0.46188 0.05731 0.46701 0.0
C1168 C 0.45213 0.00225 0.46277 0.0
C1169 C 0.4845 0.06441 0.44993 0.0
C1170 C 0.49143 0.08241 0.42632 0.0
C1171 C 0.47607 0.0939 0.4198 0.0
C1172 C 0.453 0.08606 0.43631 0.0
C1173 C 0.44598 0.06794 0.4596 0.0
H1174 H 0.44165 0.98052 0.46387 0.0
H1175 H 0.4437 0.00822 0.44412 0.0
H1176 H 0.47296 0.00916 0.45741 0.0
H1177 H 0.49733 0.05684 0.45556 0.0
H1178 H 0.50948 0.0883 0.41424 0.0
loop_
_geom_bond_atom_site_label_1
_geom_bond_atom_site_label_2
_geom_bond_distance
_geom_bond_site_symmetry_2
_ccdc_geom_bond_type
Co0 O2 2.143 . S
Co0 O8 2.074 . S
Co0 O11 2.093 1_455 S
Co0 O24 2.097 1_455 S
Co0 N41 2.151 . S
Co0 N49 2.214 . S
Co1 O2 2.160 1_556 S
Co1 O7 2.058 . S
Co1 O17 2.057 . S
Co1 O32 2.037 1_455 S
Co1 N36 2.145 . S
Co1 N57 2.257 1_455 S
O2 Co0 2.143 . S
O2 Co1 2.160 1_554 S
C3 O4 1.278 . S
C3 O11 1.224 . S
O4 C3 1.278 . S
C5 O6 1.245 . S
C5 O17 1.232 . S
O6 C5 1.245 . S
O7 Co1 2.058 . S
O7 C33 1.269 1_556 S
O8 Co0 2.074 . S
O8 C33 1.257 . S
H9 C34 0.932 1_655 S
H10 C40 0.930 . S
O11 Co0 2.093 1_655 S
O11 C3 1.224 . S
H12 C44 0.929 . S
H13 C46 0.930 . S
H14 C47 0.930 . S
H15 C45 0.929 . S
H16 C48 0.928 . S
O17 Co1 2.057 . S
O17 C5 1.232 . S
H18 C37 0.929 . S
H19 C38 0.929 . S
H20 C50 0.931 . S
H21 C42 0.929 . S
H22 C51 0.930 . S
H23 C43 0.931 . S
O24 Co0 2.097 1_655 S
O24 C52 1.214 . S
H25 C53 0.929 . S
H26 C54 0.929 . S
H27 C55 0.930 . S
H28 C56 0.929 . S
H29 C58 0.930 . S
H30 C35 0.930 . S
H31 C39 0.930 1_655 S
O32 Co1 2.037 1_655 S
O32 C52 1.234 1_556 S
C33 O7 1.269 1_554 S
C33 O8 1.257 . S
C34 H9 0.932 1_455 S
C34 C37 1.387 . S
C34 C39 1.417 . S
C35 H30 0.930 . S
C35 C38 1.404 . S
C35 C39 1.353 . S
N36 Co1 2.145 . S
N36 C37 1.397 . S
N36 C38 1.334 . S
C37 H18 0.929 . S
C37 C34 1.387 . S
C37 N36 1.397 . S
C38 H19 0.929 . S
C38 C35 1.404 . S
C38 N36 1.334 . S
C39 H31 0.930 1_455 S
C39 C34 1.417 . S
C39 C35 1.353 . S
C40 H10 0.930 . S
C40 N41 1.330 . S
C40 C42 1.446 . S
N41 Co0 2.151 . S
N41 C40 1.330 . S
N41 C45 1.418 . S
C42 H21 0.929 . S
C42 C40 1.446 . S
C42 C43 1.332 . S
C43 H23 0.931 . S
C43 C42 1.332 . S
C43 C44 1.267 . S
C44 H12 0.929 . S
C44 C43 1.267 . S
C44 C45 1.251 . S
C45 H15 0.929 . S
C45 N41 1.418 . S
C45 C44 1.251 . S
C46 H13 0.930 . S
C46 C48 1.406 . S
C46 C51 1.261 . S
C47 H14 0.930 . S
C47 N49 1.325 . S
C47 C50 1.357 . S
C48 H16 0.928 . S
C48 C46 1.406 . S
C48 N49 1.261 . S
N49 Co0 2.214 . S
N49 C47 1.325 . S
N49 C48 1.261 . S
C50 H20 0.931 . S
C50 C47 1.357 . S
C50 C51 1.312 . S
C51 H22 0.930 . S
C51 C46 1.261 . S
C51 C50 1.312 . S
C52 O24 1.214 . S
C52 O32 1.234 1_554 S
C53 H25 0.929 . S
C53 C56 1.391 . S
C53 C58 1.391 . S
C54 H26 0.929 . S
C54 C55 1.390 . S
C54 N57 1.391 . S
C55 H27 0.930 . S
C55 C54 1.390 . S
C55 C56 1.392 . S
C56 H28 0.929 . S
C56 C53 1.391 . S
C56 C55 1.392 . S
N57 Co1 2.257 1_655 S
N57 C54 1.391 . S
N57 C58 1.388 . S
C58 H29 0.930 . S
C58 C53 1.391 . S
C58 N57 1.388 . S
Co59 O61 2.143 1_556 S
Co59 O67 2.074 . S
Co59 O70 2.093 . S
Co59 O83 2.097 . S
Co59 N100 2.151 . S
Co59 N108 2.214 . S
Co60 O61 2.160 . S
Co60 O66 2.058 . S
Co60 O76 2.057 . S
Co60 O91 2.037 . S
Co60 N95 2.145 . S
Co60 N116 2.257 . S
O61 Co59 2.143 1_554 S
O61 Co60 2.160 . S
C62 O63 1.278 . S
C62 O70 1.224 . S
O63 C62 1.278 . S
C64 O65 1.245 . S
C64 O76 1.232 . S
O65 C64 1.245 . S
O66 Co60 2.058 . S
O66 C92 1.269 . S
O67 Co59 2.074 . S
O67 C92 1.257 1_556 S
H68 C93 0.930 . S
H69 C99 0.930 . S
O70 Co59 2.093 . S
O70 C62 1.224 . S
H71 C103 0.929 . S
H72 C105 0.930 . S
H73 C106 0.930 . S
H74 C104 0.929 . S
H75 C107 0.928 . S
O76 Co60 2.057 . S
O76 C64 1.232 . S
H77 C96 0.929 . S
H78 C97 0.929 . S
H79 C109 0.931 . S
H80 C101 0.929 . S
H81 C110 0.930 . S
H82 C102 0.931 . S
O83 Co59 2.097 . S
O83 C111 1.214 1_556 S
H84 C112 0.929 . S
H85 C113 0.929 . S
H86 C114 0.930 . S
H87 C115 0.929 . S
H88 C117 0.930 . S
H89 C94 0.930 . S
H90 C98 0.930 . S
O91 Co60 2.037 . S
O91 C111 1.234 . S
C92 O66 1.269 . S
C92 O67 1.257 1_554 S
C93 H68 0.930 . S
C93 C96 1.388 . S
C93 C98 1.418 . S
C94 H89 0.930 . S
C94 C97 1.404 . S
C94 C98 1.353 . S
N95 Co60 2.145 . S
N95 C96 1.397 . S
N95 C97 1.334 . S
C96 H77 0.929 . S
C96 C93 1.388 . S
C96 N95 1.397 . S
C97 H78 0.929 . S
C97 C94 1.404 . S
C97 N95 1.334 . S
C98 H90 0.930 . S
C98 C93 1.418 . S
C98 C94 1.353 . S
C99 H69 0.930 . S
C99 N100 1.330 . S
C99 C101 1.446 . S
N100 Co59 2.151 . S
N100 C99 1.330 . S
N100 C104 1.418 . S
C101 H80 0.929 . S
C101 C99 1.446 . S
C101 C102 1.332 . S
C102 H82 0.931 . S
C102 C101 1.332 . S
C102 C103 1.267 . S
C103 H71 0.929 . S
C103 C102 1.267 . S
C103 C104 1.251 . S
C104 H74 0.929 . S
C104 N100 1.418 . S
C104 C103 1.251 . S
C105 H72 0.930 . S
C105 C107 1.406 . S
C105 C110 1.261 . S
C106 H73 0.930 . S
C106 N108 1.325 . S
C106 C109 1.357 . S
C107 H75 0.928 . S
C107 C105 1.406 . S
C107 N108 1.261 . S
N108 Co59 2.214 . S
N108 C106 1.325 . S
N108 C107 1.261 . S
C109 H79 0.931 . S
C109 C106 1.357 . S
C109 C110 1.312 . S
C110 H81 0.930 . S
C110 C105 1.261 . S
C110 C109 1.312 . S
C111 O83 1.214 1_554 S
C111 O91 1.234 . S
C112 H84 0.929 . S
C112 C115 1.391 . S
C112 C117 1.391 . S
C113 H85 0.929 . S
C113 C114 1.390 . S
C113 N116 1.391 . S
C114 H86 0.930 . S
C114 C113 1.390 . S
C114 C115 1.392 . S
C115 H87 0.929 . S
C115 C112 1.391 . S
C115 C114 1.392 . S
N116 Co60 2.257 . S
N116 C113 1.391 . S
N116 C117 1.388 . S
C117 H88 0.930 . S
C117 C112 1.391 . S
C117 N116 1.388 . S
Co118 O120 2.143 . S
Co118 O126 2.074 1_545 S
Co118 O129 2.093 . S
Co118 O142 2.097 . S
Co118 N159 2.151 1_545 S
Co118 N167 2.214 . S
Co119 O120 2.160 1_556 S
Co119 O125 2.058 1_545 S
Co119 O135 2.057 . S
Co119 O150 2.037 . S
Co119 N154 2.145 . S
Co119 N175 2.257 . S
O120 Co118 2.143 . S
O120 Co119 2.160 1_554 S
C121 O122 1.278 . S
C121 O129 1.224 . S
O122 C121 1.278 . S
C123 O124 1.245 . S
C123 O135 1.232 1_565 S
O124 C123 1.245 . S
O125 Co119 2.058 1_565 S
O125 C151 1.269 1_556 S
O126 Co118 2.074 1_565 S
O126 C151 1.257 . S
H127 C152 0.930 . S
H128 C158 0.930 . S
O129 Co118 2.093 . S
O129 C121 1.224 . S
H130 C162 0.929 . S
H131 C164 0.930 . S
H132 C165 0.930 . S
H133 C163 0.929 . S
H134 C166 0.928 . S
O135 Co119 2.057 . S
O135 C123 1.232 1_545 S
H136 C155 0.929 . S
H137 C156 0.929 . S
H138 C168 0.931 . S
H139 C160 0.929 . S
H140 C169 0.930 . S
H141 C161 0.931 . S
O142 Co118 2.097 . S
O142 C170 1.214 . S
H143 C171 0.929 . S
H144 C172 0.929 . S
H145 C173 0.930 . S
H146 C174 0.929 . S
H147 C176 0.930 . S
H148 C153 0.930 . S
H149 C157 0.930 . S
O150 Co119 2.037 . S
O150 C170 1.234 1_556 S
C151 O125 1.269 1_554 S
C151 O126 1.257 . S
C152 H127 0.930 . S
C152 C155 1.388 . S
C152 C157 1.418 . S
C153 H148 0.930 . S
C153 C156 1.404 . S
C153 C157 1.353 . S
N154 Co119 2.145 . S
N154 C155 1.397 . S
N154 C156 1.334 . S
C155 H136 0.929 . S
C155 C152 1.388 . S
C155 N154 1.397 . S
C156 H137 0.929 . S
C156 C153 1.404 . S
C156 N154 1.334 . S
C157 H149 0.930 . S
C157 C152 1.418 . S
C157 C153 1.353 . S
C158 H128 0.930 . S
C158 N159 1.330 . S
C158 C160 1.446 . S
N159 Co118 2.151 1_565 S
N159 C158 1.330 . S
N159 C163 1.418 . S
C160 H139 0.929 . S
C160 C158 1.446 . S
C160 C161 1.332 . S
C161 H141 0.931 . S
C161 C160 1.332 . S
C161 C162 1.267 . S
C162 H130 0.929 . S
C162 C161 1.267 . S
C162 C163 1.251 . S
C163 H133 0.929 . S
C163 N159 1.418 . S
C163 C162 1.251 . S
C164 H131 0.930 . S
C164 C166 1.406 . S
C164 C169 1.261 . S
C165 H132 0.930 . S
C165 N167 1.325 . S
C165 C168 1.357 . S
C166 H134 0.928 . S
C166 C164 1.406 . S
C166 N167 1.261 . S
N167 Co118 2.214 . S
N167 C165 1.325 . S
N167 C166 1.261 . S
C168 H138 0.931 . S
C168 C165 1.357 . S
C168 C169 1.312 . S
C169 H140 0.930 . S
C169 C164 1.261 . S
C169 C168 1.312 . S
C170 O142 1.214 . S
C170 O150 1.234 1_554 S
C171 H143 0.929 . S
C171 C174 1.391 . S
C171 C176 1.391 . S
C172 H144 0.929 . S
C172 C173 1.390 . S
C172 N175 1.391 . S
C173 H145 0.930 . S
C173 C172 1.390 . S
C173 C174 1.392 . S
C174 H146 0.929 . S
C174 C171 1.391 . S
C174 C173 1.392 . S
N175 Co119 2.257 . S
N175 C172 1.391 . S
N175 C176 1.388 . S
C176 H147 0.930 . S
C176 C171 1.391 . S
C176 N175 1.388 . S
Co177 O179 2.143 . S
Co177 O185 2.074 . S
Co177 O188 2.093 . S
Co177 O201 2.097 . S
Co177 N218 2.151 . S
Co177 N226 2.214 . S
Co178 O179 2.160 . S
Co178 O184 2.058 . S
Co178 O194 2.057 . S
Co178 O209 2.037 . S
Co178 N213 2.145 . S
Co178 N234 2.257 . S
O179 Co177 2.143 . S
O179 Co178 2.160 . S
C180 O181 1.278 . S
C180 O188 1.224 . S
O181 C180 1.278 . S
C182 O183 1.245 . S
C182 O194 1.232 . S
O183 C182 1.245 . S
O184 Co178 2.058 . S
O184 C210 1.269 . S
O185 Co177 2.074 . S
O185 C210 1.257 . S
H186 C211 0.930 . S
H187 C217 0.930 . S
O188 Co177 2.093 . S
O188 C180 1.224 . S
H189 C221 0.929 . S
H190 C223 0.930 . S
H191 C224 0.930 . S
H192 C222 0.929 . S
H193 C225 0.928 . S
O194 Co178 2.057 . S
O194 C182 1.232 . S
H195 C214 0.929 . S
H196 C215 0.929 . S
H197 C227 0.931 . S
H198 C219 0.929 . S
H199 C228 0.930 . S
H200 C220 0.931 . S
O201 Co177 2.097 . S
O201 C229 1.214 . S
H202 C230 0.929 . S
H203 C231 0.929 . S
H204 C232 0.930 . S
H205 C233 0.929 . S
H206 C235 0.930 . S
H207 C212 0.930 . S
H208 C216 0.930 . S
O209 Co178 2.037 . S
O209 C229 1.234 . S
C210 O184 1.269 . S
C210 O185 1.257 . S
C211 H186 0.930 . S
C211 C214 1.388 . S
C211 C216 1.418 . S
C212 H207 0.930 . S
C212 C215 1.404 . S
C212 C216 1.353 . S
N213 Co178 2.145 . S
N213 C214 1.397 . S
N213 C215 1.334 . S
C214 H195 0.929 . S
C214 C211 1.388 . S
C214 N213 1.397 . S
C215 H196 0.929 . S
C215 C212 1.404 . S
C215 N213 1.334 . S
C216 H208 0.930 . S
C216 C211 1.418 . S
C216 C212 1.353 . S
C217 H187 0.930 . S
C217 N218 1.330 . S
C217 C219 1.446 . S
N218 Co177 2.151 . S
N218 C217 1.330 . S
N218 C222 1.418 . S
C219 H198 0.929 . S
C219 C217 1.446 . S
C219 C220 1.332 . S
C220 H200 0.931 . S
C220 C219 1.332 . S
C220 C221 1.267 . S
C221 H189 0.929 . S
C221 C220 1.267 . S
C221 C222 1.251 . S
C222 H192 0.929 . S
C222 N218 1.418 . S
C222 C221 1.251 . S
C223 H190 0.930 . S
C223 C225 1.406 . S
C223 C228 1.261 . S
C224 H191 0.930 . S
C224 N226 1.325 . S
C224 C227 1.357 . S
C225 H193 0.928 . S
C225 C223 1.406 . S
C225 N226 1.261 . S
N226 Co177 2.214 . S
N226 C224 1.325 . S
N226 C225 1.261 . S
C227 H197 0.931 . S
C227 C224 1.357 . S
C227 C228 1.312 . S
C228 H199 0.930 . S
C228 C223 1.261 . S
C228 C227 1.312 . S
C229 O201 1.214 . S
C229 O209 1.234 . S
C230 H202 0.929 . S
C230 C233 1.391 . S
C230 C235 1.391 . S
C231 H203 0.929 . S
C231 C232 1.390 . S
C231 N234 1.391 . S
C232 H204 0.930 . S
C232 C231 1.390 . S
C232 C233 1.392 . S
C233 H205 0.929 . S
C233 C230 1.391 . S
C233 C232 1.392 . S
N234 Co178 2.257 . S
N234 C231 1.391 . S
N234 C235 1.388 . S
C235 H206 0.930 . S
C235 C230 1.391 . S
C235 N234 1.388 . S
Co236 O238 2.143 . S
Co236 O244 2.074 . S
Co236 O247 2.093 . S
Co236 O260 2.097 . S
Co236 N277 2.151 . S
Co236 N285 2.214 . S
Co237 O238 2.160 . S
Co237 O243 2.058 . S
Co237 O253 2.057 . S
Co237 O268 2.037 . S
Co237 N272 2.145 . S
Co237 N293 2.257 . S
O238 Co236 2.143 . S
O238 Co237 2.160 . S
C239 O240 1.278 . S
C239 O247 1.224 . S
O240 C239 1.278 . S
C241 O242 1.245 . S
C241 O253 1.232 . S
O242 C241 1.245 . S
O243 Co237 2.058 . S
O243 C269 1.269 . S
O244 Co236 2.074 . S
O244 C269 1.257 . S
H245 C270 0.930 . S
H246 C276 0.930 . S
O247 Co236 2.093 . S
O247 C239 1.224 . S
H248 C280 0.929 . S
H249 C282 0.930 . S
H250 C283 0.930 . S
H251 C281 0.929 . S
H252 C284 0.928 . S
O253 Co237 2.057 . S
O253 C241 1.232 . S
H254 C273 0.929 . S
H255 C274 0.929 . S
H256 C286 0.931 . S
H257 C278 0.929 . S
H258 C287 0.930 . S
H259 C279 0.931 . S
O260 Co236 2.097 . S
O260 C288 1.214 . S
H261 C289 0.929 . S
H262 C290 0.929 . S
H263 C291 0.930 . S
H264 C292 0.929 . S
H265 C294 0.930 . S
H266 C271 0.930 . S
H267 C275 0.930 . S
O268 Co237 2.037 . S
O268 C288 1.234 . S
C269 O243 1.269 . S
C269 O244 1.257 . S
C270 H245 0.930 . S
C270 C273 1.388 . S
C270 C275 1.418 . S
C271 H266 0.930 . S
C271 C274 1.404 . S
C271 C275 1.353 . S
N272 Co237 2.145 . S
N272 C273 1.397 . S
N272 C274 1.334 . S
C273 H254 0.929 . S
C273 C270 1.388 . S
C273 N272 1.397 . S
C274 H255 0.929 . S
C274 C271 1.404 . S
C274 N272 1.334 . S
C275 H267 0.930 . S
C275 C270 1.418 . S
C275 C271 1.353 . S
C276 H246 0.930 . S
C276 N277 1.330 . S
C276 C278 1.446 . S
N277 Co236 2.151 . S
N277 C276 1.330 . S
N277 C281 1.418 . S
C278 H257 0.929 . S
C278 C276 1.446 . S
C278 C279 1.332 . S
C279 H259 0.931 . S
C279 C278 1.332 . S
C279 C280 1.267 . S
C280 H248 0.929 . S
C280 C279 1.267 . S
C280 C281 1.251 . S
C281 H251 0.929 . S
C281 N277 1.418 . S
C281 C280 1.251 . S
C282 H249 0.930 . S
C282 C284 1.406 . S
C282 C287 1.261 . S
C283 H250 0.930 . S
C283 N285 1.325 . S
C283 C286 1.357 . S
C284 H252 0.928 . S
C284 C282 1.406 . S
C284 N285 1.261 . S
N285 Co236 2.214 . S
N285 C283 1.325 . S
N285 C284 1.261 . S
C286 H256 0.931 . S
C286 C283 1.357 . S
C286 C287 1.312 . S
C287 H258 0.930 . S
C287 C282 1.261 . S
C287 C286 1.312 . S
C288 O260 1.214 . S
C288 O268 1.234 . S
C289 H261 0.929 . S
C289 C292 1.391 . S
C289 C294 1.391 . S
C290 H262 0.929 . S
C290 C291 1.390 . S
C290 N293 1.391 . S
C291 H263 0.930 . S
C291 C290 1.390 . S
C291 C292 1.392 . S
C292 H264 0.929 . S
C292 C289 1.391 . S
C292 C291 1.392 . S
N293 Co237 2.257 . S
N293 C290 1.391 . S
N293 C294 1.388 . S
C294 H265 0.930 . S
C294 C289 1.391 . S
C294 N293 1.388 . S
Co295 O297 2.143 . S
Co295 O303 2.074 . S
Co295 O306 2.093 . S
Co295 O319 2.097 . S
Co295 N336 2.151 . S
Co295 N344 2.214 . S
Co296 O297 2.160 . S
Co296 O302 2.058 . S
Co296 O312 2.057 . S
Co296 O327 2.037 . S
Co296 N331 2.145 . S
Co296 N352 2.257 . S
O297 Co295 2.143 . S
O297 Co296 2.160 . S
C298 O299 1.278 . S
C298 O306 1.224 . S
O299 C298 1.278 . S
C300 O301 1.245 . S
C300 O312 1.232 . S
O301 C300 1.245 . S
O302 Co296 2.058 . S
O302 C328 1.269 . S
O303 Co295 2.074 . S
O303 C328 1.257 . S
H304 C329 0.930 . S
H305 C335 0.930 . S
O306 Co295 2.093 . S
O306 C298 1.224 . S
H307 C339 0.929 . S
H308 C341 0.930 . S
H309 C342 0.930 . S
H310 C340 0.929 . S
H311 C343 0.928 . S
O312 Co296 2.057 . S
O312 C300 1.232 . S
H313 C332 0.929 . S
H314 C333 0.929 . S
H315 C345 0.931 . S
H316 C337 0.929 . S
H317 C346 0.930 . S
H318 C338 0.931 . S
O319 Co295 2.097 . S
O319 C347 1.214 . S
H320 C348 0.929 . S
H321 C349 0.929 . S
H322 C350 0.930 . S
H323 C351 0.929 . S
H324 C353 0.930 . S
H325 C330 0.930 . S
H326 C334 0.930 . S
O327 Co296 2.037 . S
O327 C347 1.234 . S
C328 O302 1.269 . S
C328 O303 1.257 . S
C329 H304 0.930 . S
C329 C332 1.388 . S
C329 C334 1.418 . S
C330 H325 0.930 . S
C330 C333 1.404 . S
C330 C334 1.353 . S
N331 Co296 2.145 . S
N331 C332 1.397 . S
N331 C333 1.334 . S
C332 H313 0.929 . S
C332 C329 1.388 . S
C332 N331 1.397 . S
C333 H314 0.929 . S
C333 C330 1.404 . S
C333 N331 1.334 . S
C334 H326 0.930 . S
C334 C329 1.418 . S
C334 C330 1.353 . S
C335 H305 0.930 . S
C335 N336 1.330 . S
C335 C337 1.446 . S
N336 Co295 2.151 . S
N336 C335 1.330 . S
N336 C340 1.418 . S
C337 H316 0.929 . S
C337 C335 1.446 . S
C337 C338 1.332 . S
C338 H318 0.931 . S
C338 C337 1.332 . S
C338 C339 1.267 . S
C339 H307 0.929 . S
C339 C338 1.267 . S
C339 C340 1.251 . S
C340 H310 0.929 . S
C340 N336 1.418 . S
C340 C339 1.251 . S
C341 H308 0.930 . S
C341 C343 1.406 . S
C341 C346 1.261 . S
C342 H309 0.930 . S
C342 N344 1.325 . S
C342 C345 1.357 . S
C343 H311 0.928 . S
C343 C341 1.406 . S
C343 N344 1.261 . S
N344 Co295 2.214 . S
N344 C342 1.325 . S
N344 C343 1.261 . S
C345 H315 0.931 . S
C345 C342 1.357 . S
C345 C346 1.312 . S
C346 H317 0.930 . S
C346 C341 1.261 . S
C346 C345 1.312 . S
C347 O319 1.214 . S
C347 O327 1.234 . S
C348 H320 0.929 . S
C348 C351 1.391 . S
C348 C353 1.391 . S
C349 H321 0.929 . S
C349 C350 1.390 . S
C349 N352 1.391 . S
C350 H322 0.930 . S
C350 C349 1.390 . S
C350 C351 1.392 . S
C351 H323 0.929 . S
C351 C348 1.391 . S
C351 C350 1.392 . S
N352 Co296 2.257 . S
N352 C349 1.391 . S
N352 C353 1.388 . S
C353 H324 0.930 . S
C353 C348 1.391 . S
C353 N352 1.388 . S
Co354 O356 2.143 . S
Co354 O362 2.074 . S
Co354 O365 2.093 . S
Co354 O378 2.097 . S
Co354 N395 2.151 . S
Co354 N403 2.214 . S
Co355 O356 2.160 . S
Co355 O361 2.058 . S
Co355 O371 2.057 . S
Co355 O386 2.037 . S
Co355 N390 2.145 . S
Co355 N411 2.257 . S
O356 Co354 2.143 . S
O356 Co355 2.160 . S
C357 O358 1.278 . S
C357 O365 1.224 . S
O358 C357 1.278 . S
C359 O360 1.245 . S
C359 O371 1.232 . S
O360 C359 1.245 . S
O361 Co355 2.058 . S
O361 C387 1.269 . S
O362 Co354 2.074 . S
O362 C387 1.257 . S
H363 C388 0.930 . S
H364 C394 0.930 . S
O365 Co354 2.093 . S
O365 C357 1.224 . S
H366 C398 0.929 . S
H367 C400 0.930 . S
H368 C401 0.930 . S
H369 C399 0.929 . S
H370 C402 0.928 . S
O371 Co355 2.057 . S
O371 C359 1.232 . S
H372 C391 0.929 . S
H373 C392 0.929 . S
H374 C404 0.931 . S
H375 C396 0.929 . S
H376 C405 0.930 . S
H377 C397 0.931 . S
O378 Co354 2.097 . S
O378 C406 1.214 . S
H379 C407 0.929 . S
H380 C408 0.929 . S
H381 C409 0.930 . S
H382 C410 0.929 . S
H383 C412 0.930 . S
H384 C389 0.930 . S
H385 C393 0.930 . S
O386 Co355 2.037 . S
O386 C406 1.234 . S
C387 O361 1.269 . S
C387 O362 1.257 . S
C388 H363 0.930 . S
C388 C391 1.388 . S
C388 C393 1.418 . S
C389 H384 0.930 . S
C389 C392 1.404 . S
C389 C393 1.353 . S
N390 Co355 2.145 . S
N390 C391 1.397 . S
N390 C392 1.334 . S
C391 H372 0.929 . S
C391 C388 1.388 . S
C391 N390 1.397 . S
C392 H373 0.929 . S
C392 C389 1.404 . S
C392 N390 1.334 . S
C393 H385 0.930 . S
C393 C388 1.418 . S
C393 C389 1.353 . S
C394 H364 0.930 . S
C394 N395 1.330 . S
C394 C396 1.446 . S
N395 Co354 2.151 . S
N395 C394 1.330 . S
N395 C399 1.418 . S
C396 H375 0.929 . S
C396 C394 1.446 . S
C396 C397 1.332 . S
C397 H377 0.931 . S
C397 C396 1.332 . S
C397 C398 1.267 . S
C398 H366 0.929 . S
C398 C397 1.267 . S
C398 C399 1.251 . S
C399 H369 0.929 . S
C399 N395 1.418 . S
C399 C398 1.251 . S
C400 H367 0.930 . S
C400 C402 1.406 . S
C400 C405 1.261 . S
C401 H368 0.930 . S
C401 N403 1.325 . S
C401 C404 1.357 . S
C402 H370 0.928 . S
C402 C400 1.406 . S
C402 N403 1.261 . S
N403 Co354 2.214 . S
N403 C401 1.325 . S
N403 C402 1.261 . S
C404 H374 0.931 . S
C404 C401 1.357 . S
C404 C405 1.312 . S
C405 H376 0.930 . S
C405 C400 1.261 . S
C405 C404 1.312 . S
C406 O378 1.214 . S
C406 O386 1.234 . S
C407 H379 0.929 . S
C407 C410 1.391 . S
C407 C412 1.391 . S
C408 H380 0.929 . S
C408 C409 1.390 . S
C408 N411 1.391 . S
C409 H381 0.930 . S
C409 C408 1.390 . S
C409 C410 1.392 . S
C410 H382 0.929 . S
C410 C407 1.391 . S
C410 C409 1.392 . S
N411 Co355 2.257 . S
N411 C408 1.391 . S
N411 C412 1.388 . S
C412 H383 0.930 . S
C412 C407 1.391 . S
C412 N411 1.388 . S
Co413 O415 2.143 . S
Co413 O421 2.074 . S
Co413 O424 2.093 . S
Co413 O437 2.097 . S
Co413 N454 2.151 . S
Co413 N462 2.214 . S
Co414 O415 2.160 . S
Co414 O420 2.058 . S
Co414 O430 2.057 . S
Co414 O445 2.037 . S
Co414 N449 2.145 . S
Co414 N470 2.257 . S
O415 Co413 2.143 . S
O415 Co414 2.160 . S
C416 O417 1.278 . S
C416 O424 1.224 . S
O417 C416 1.278 . S
C418 O419 1.245 . S
C418 O430 1.232 . S
O419 C418 1.245 . S
O420 Co414 2.058 . S
O420 C446 1.269 . S
O421 Co413 2.074 . S
O421 C446 1.257 . S
H422 C447 0.930 . S
H423 C453 0.930 . S
O424 Co413 2.093 . S
O424 C416 1.224 . S
H425 C457 0.929 . S
H426 C459 0.930 . S
H427 C460 0.930 . S
H428 C458 0.929 . S
H429 C461 0.928 . S
O430 Co414 2.057 . S
O430 C418 1.232 . S
H431 C450 0.929 . S
H432 C451 0.929 . S
H433 C463 0.931 . S
H434 C455 0.929 . S
H435 C464 0.930 . S
H436 C456 0.931 . S
O437 Co413 2.097 . S
O437 C465 1.214 . S
H438 C466 0.929 . S
H439 C467 0.929 . S
H440 C468 0.930 . S
H441 C469 0.929 . S
H442 C471 0.930 . S
H443 C448 0.930 . S
H444 C452 0.930 . S
O445 Co414 2.037 . S
O445 C465 1.234 . S
C446 O420 1.269 . S
C446 O421 1.257 . S
C447 H422 0.930 . S
C447 C450 1.388 . S
C447 C452 1.418 . S
C448 H443 0.930 . S
C448 C451 1.404 . S
C448 C452 1.353 . S
N449 Co414 2.145 . S
N449 C450 1.397 . S
N449 C451 1.334 . S
C450 H431 0.929 . S
C450 C447 1.388 . S
C450 N449 1.397 . S
C451 H432 0.929 . S
C451 C448 1.404 . S
C451 N449 1.334 . S
C452 H444 0.930 . S
C452 C447 1.418 . S
C452 C448 1.353 . S
C453 H423 0.930 . S
C453 N454 1.330 . S
C453 C455 1.446 . S
N454 Co413 2.151 . S
N454 C453 1.330 . S
N454 C458 1.418 . S
C455 H434 0.929 . S
C455 C453 1.446 . S
C455 C456 1.332 . S
C456 H436 0.931 . S
C456 C455 1.332 . S
C456 C457 1.267 . S
C457 H425 0.929 . S
C457 C456 1.267 . S
C457 C458 1.251 . S
C458 H428 0.929 . S
C458 N454 1.418 . S
C458 C457 1.251 . S
C459 H426 0.930 . S
C459 C461 1.406 . S
C459 C464 1.261 . S
C460 H427 0.930 . S
C460 N462 1.325 . S
C460 C463 1.357 . S
C461 H429 0.928 . S
C461 C459 1.406 . S
C461 N462 1.261 . S
N462 Co413 2.214 . S
N462 C460 1.325 . S
N462 C461 1.261 . S
C463 H433 0.931 . S
C463 C460 1.357 . S
C463 C464 1.312 . S
C464 H435 0.930 . S
C464 C459 1.261 . S
C464 C463 1.312 . S
C465 O437 1.214 . S
C465 O445 1.234 . S
C466 H438 0.929 . S
C466 C469 1.391 . S
C466 C471 1.391 . S
C467 H439 0.929 . S
C467 C468 1.390 . S
C467 N470 1.391 . S
C468 H440 0.930 . S
C468 C467 1.390 . S
C468 C469 1.392 . S
C469 H441 0.929 . S
C469 C466 1.391 . S
C469 C468 1.392 . S
N470 Co414 2.257 . S
N470 C467 1.391 . S
N470 C471 1.388 . S
C471 H442 0.930 . S
C471 C466 1.391 . S
C471 N470 1.388 . S
Co472 O474 2.143 . S
Co472 O480 2.074 . S
Co472 O483 2.093 . S
Co472 O496 2.097 . S
Co472 N513 2.151 . S
Co472 N521 2.214 . S
Co473 O474 2.160 . S
Co473 O479 2.058 . S
Co473 O489 2.057 . S
Co473 O504 2.037 . S
Co473 N508 2.145 . S
Co473 N529 2.257 . S
O474 Co472 2.143 . S
O474 Co473 2.160 . S
C475 O476 1.278 . S
C475 O483 1.224 . S
O476 C475 1.278 . S
C477 O478 1.245 . S
C477 O489 1.232 . S
O478 C477 1.245 . S
O479 Co473 2.058 . S
O479 C505 1.269 . S
O480 Co472 2.074 . S
O480 C505 1.257 . S
H481 C506 0.930 . S
H482 C512 0.930 . S
O483 Co472 2.093 . S
O483 C475 1.224 . S
H484 C516 0.929 . S
H485 C518 0.930 . S
H486 C519 0.930 . S
H487 C517 0.929 . S
H488 C520 0.928 . S
O489 Co473 2.057 . S
O489 C477 1.232 . S
H490 C509 0.929 . S
H491 C510 0.929 . S
H492 C522 0.931 . S
H493 C514 0.929 . S
H494 C523 0.930 . S
H495 C515 0.931 . S
O496 Co472 2.097 . S
O496 C524 1.214 . S
H497 C525 0.929 . S
H498 C526 0.929 . S
H499 C527 0.930 . S
H500 C528 0.929 . S
H501 C530 0.930 . S
H502 C507 0.930 . S
H503 C511 0.930 . S
O504 Co473 2.037 . S
O504 C524 1.234 . S
C505 O479 1.269 . S
C505 O480 1.257 . S
C506 H481 0.930 . S
C506 C509 1.388 . S
C506 C511 1.418 . S
C507 H502 0.930 . S
C507 C510 1.404 . S
C507 C511 1.353 . S
N508 Co473 2.145 . S
N508 C509 1.397 . S
N508 C510 1.334 . S
C509 H490 0.929 . S
C509 C506 1.388 . S
C509 N508 1.397 . S
C510 H491 0.929 . S
C510 C507 1.404 . S
C510 N508 1.334 . S
C511 H503 0.930 . S
C511 C506 1.418 . S
C511 C507 1.353 . S
C512 H482 0.930 . S
C512 N513 1.330 . S
C512 C514 1.446 . S
N513 Co472 2.151 . S
N513 C512 1.330 . S
N513 C517 1.418 . S
C514 H493 0.929 . S
C514 C512 1.446 . S
C514 C515 1.332 . S
C515 H495 0.931 . S
C515 C514 1.332 . S
C515 C516 1.267 . S
C516 H484 0.929 . S
C516 C515 1.267 . S
C516 C517 1.251 . S
C517 H487 0.929 . S
C517 N513 1.418 . S
C517 C516 1.251 . S
C518 H485 0.930 . S
C518 C520 1.406 . S
C518 C523 1.261 . S
C519 H486 0.930 . S
C519 N521 1.325 . S
C519 C522 1.357 . S
C520 H488 0.928 . S
C520 C518 1.406 . S
C520 N521 1.261 . S
N521 Co472 2.214 . S
N521 C519 1.325 . S
N521 C520 1.261 . S
C522 H492 0.931 . S
C522 C519 1.357 . S
C522 C523 1.312 . S
C523 H494 0.930 . S
C523 C518 1.261 . S
C523 C522 1.312 . S
C524 O496 1.214 . S
C524 O504 1.234 . S
C525 H497 0.929 . S
C525 C528 1.391 . S
C525 C530 1.391 . S
C526 H498 0.929 . S
C526 C527 1.390 . S
C526 N529 1.391 . S
C527 H499 0.930 . S
C527 C526 1.390 . S
C527 C528 1.392 . S
C528 H500 0.929 . S
C528 C525 1.391 . S
C528 C527 1.392 . S
N529 Co473 2.257 . S
N529 C526 1.391 . S
N529 C530 1.388 . S
C530 H501 0.930 . S
C530 C525 1.391 . S
C530 N529 1.388 . S
H531 C539 0.931 1_556 S
H532 C541 0.930 . S
H533 C543 0.930 . S
H534 C546 0.929 . S
H535 C549 0.930 . S
H536 C551 0.960 . S
H537 C551 0.960 . S
H538 C551 0.960 . S
C539 H531 0.931 1_554 S
C539 C540 1.375 . S
C539 C541 1.384 1_554 S
C540 C539 1.375 . S
C540 C546 1.390 . S
C541 H532 0.930 . S
C541 C539 1.384 1_556 S
C541 C542 1.372 1_556 S
C542 C541 1.372 1_554 S
C542 C543 1.400 . S
C542 C547 1.490 . S
C543 H533 0.930 . S
C543 C542 1.400 . S
C543 C546 1.386 . S
H544 C560 0.930 . S
H545 C561 0.931 . S
C546 H534 0.929 . S
C546 C540 1.390 . S
C546 C543 1.386 . S
C547 C542 1.490 . S
C547 C549 1.395 1_554 S
C547 C550 1.403 . S
H548 C554 0.930 . S
C549 H535 0.930 . S
C549 C547 1.395 1_556 S
C549 C552 1.403 . S
C550 C547 1.403 . S
C550 C551 1.524 . S
C550 C554 1.400 . S
C551 H536 0.960 . S
C551 H537 0.960 . S
C551 H538 0.960 . S
C551 C550 1.524 . S
C552 C549 1.403 . S
C552 C553 1.392 1_556 S
C552 C556 1.495 . S
C553 C552 1.392 1_554 S
C553 C554 1.385 . S
C553 C555 1.478 . S
C554 H548 0.930 . S
C554 C550 1.400 . S
C554 C553 1.385 . S
C555 C553 1.478 . S
C555 C557 1.381 1_554 S
C555 C561 1.383 . S
C556 C552 1.495 . S
C556 H562 0.959 . S
C556 H563 0.961 . S
C556 H564 0.960 . S
C557 C555 1.381 1_556 S
C557 C558 1.394 . S
C557 H565 0.930 . S
C558 C557 1.394 . S
C558 C559 1.383 1_556 S
C558 H566 0.929 . S
C559 C558 1.383 1_554 S
C559 C560 1.377 . S
C560 H544 0.930 . S
C560 C559 1.377 . S
C560 C561 1.379 . S
C561 H545 0.931 . S
C561 C555 1.383 . S
C561 C560 1.379 . S
H562 C556 0.959 . S
H563 C556 0.961 . S
H564 C556 0.960 . S
H565 C557 0.930 . S
H566 C558 0.929 . S
H567 C575 0.929 . S
H568 C577 0.930 . S
H569 C579 0.930 . S
H570 C582 0.929 . S
H571 C585 0.930 1_565 S
H572 C587 0.960 1_545 S
H573 C587 0.960 1_556 S
H574 C587 0.960 . S
C575 H567 0.929 . S
C575 C576 1.377 1_556 S
C575 C577 1.384 . S
C576 C575 1.377 1_554 S
C576 C582 1.390 . S
C577 H568 0.930 . S
C577 C575 1.384 . S
C577 C578 1.372 1_556 S
C578 C577 1.372 1_554 S
C578 C579 1.400 . S
C578 C583 1.490 . S
C579 H569 0.930 . S
C579 C578 1.400 . S
C579 C582 1.386 . S
H580 C596 0.930 . S
H581 C597 0.931 . S
C582 H570 0.929 . S
C582 C576 1.390 . S
C582 C579 1.386 . S
C583 C578 1.490 . S
C583 C585 1.395 1_565 S
C583 C586 1.403 1_565 S
H584 C590 0.930 . S
C585 H571 0.930 1_545 S
C585 C583 1.395 1_545 S
C585 C588 1.403 . S
C586 C583 1.403 1_545 S
C586 C587 1.524 1_545 S
C586 C590 1.400 . S
C587 H572 0.960 1_565 S
C587 H573 0.960 1_554 S
C587 H574 0.960 . S
C587 C586 1.524 1_565 S
C588 C585 1.403 . S
C588 C589 1.392 . S
C588 C592 1.495 . S
C589 C588 1.392 . S
C589 C590 1.385 . S
C589 C591 1.478 . S
C590 H584 0.930 . S
C590 C586 1.400 . S
C590 C589 1.385 . S
C591 C589 1.478 . S
C591 C593 1.381 1_554 S
C591 C597 1.383 . S
C592 C588 1.495 . S
C592 H598 0.959 . S
C592 H599 0.961 . S
C592 H600 0.960 1_554 S
C593 C591 1.381 1_556 S
C593 C594 1.394 . S
C593 H601 0.930 . S
C594 C593 1.394 . S
C594 C595 1.383 1_556 S
C594 H602 0.929 . S
C595 C594 1.383 1_554 S
C595 C596 1.377 . S
C596 H580 0.930 . S
C596 C595 1.377 . S
C596 C597 1.379 . S
C597 H581 0.931 . S
C597 C591 1.383 . S
C597 C596 1.379 . S
H598 C592 0.959 . S
H599 C592 0.961 . S
H600 C592 0.960 1_556 S
H601 C593 0.930 . S
H602 C594 0.929 . S
H603 C611 0.929 . S
H604 C613 0.930 . S
H605 C615 0.930 . S
H606 C618 0.929 . S
H607 C621 0.930 1_655 S
H608 C623 0.960 1_455 S
H609 C623 0.960 . S
H610 C623 0.960 . S
C611 H603 0.929 . S
C611 C612 1.377 . S
C611 C613 1.384 . S
C612 C611 1.377 . S
C612 C618 1.390 1_554 S
C613 H604 0.930 . S
C613 C611 1.384 . S
C613 C614 1.372 . S
C614 C613 1.372 . S
C614 C615 1.400 1_554 S
C614 C619 1.490 . S
C615 H605 0.930 . S
C615 C614 1.400 1_556 S
C615 C618 1.386 . S
H616 C632 0.930 . S
H617 C633 0.931 . S
C618 H606 0.929 . S
C618 C612 1.390 1_556 S
C618 C615 1.386 . S
C619 C614 1.490 . S
C619 C621 1.395 1_655 S
C619 C622 1.403 1_655 S
H620 C626 0.930 . S
C621 H607 0.930 1_455 S
C621 C619 1.395 1_455 S
C621 C624 1.403 . S
C622 C619 1.403 1_455 S
C622 C623 1.524 1_455 S
C622 C626 1.400 . S
C623 H608 0.960 1_655 S
C623 H609 0.960 . S
C623 H610 0.960 . S
C623 C622 1.524 1_655 S
C624 C621 1.403 . S
C624 C625 1.392 . S
C624 C628 1.495 . S
C625 C624 1.392 . S
C625 C626 1.385 . S
C625 C627 1.478 . S
C626 H620 0.930 . S
C626 C622 1.400 . S
C626 C625 1.385 . S
C627 C625 1.478 . S
C627 C629 1.381 . S
C627 C633 1.383 1_554 S
C628 C624 1.495 . S
C628 H634 0.959 . S
C628 H635 0.961 1_554 S
C628 H636 0.960 . S
C629 C627 1.381 . S
C629 C630 1.394 . S
C629 H637 0.930 . S
C630 C629 1.394 . S
C630 C631 1.383 . S
C630 H638 0.929 . S
C631 C630 1.383 . S
C631 C632 1.377 1_554 S
C632 H616 0.930 . S
C632 C631 1.377 1_556 S
C632 C633 1.379 . S
C633 H617 0.931 . S
C633 C627 1.383 1_556 S
C633 C632 1.379 . S
H634 C628 0.959 . S
H635 C628 0.961 1_556 S
H636 C628 0.960 . S
H637 C629 0.930 . S
H638 C630 0.929 . S
H639 C647 0.929 . S
H640 C649 0.930 . S
H641 C651 0.930 . S
H642 C654 0.929 . S
H643 C657 0.930 . S
H644 C659 0.960 . S
H645 C659 0.960 . S
H646 C659 0.960 . S
C647 H639 0.929 . S
C647 C648 1.377 . S
C647 C649 1.384 . S
C648 C647 1.377 . S
C648 C654 1.390 . S
C649 H640 0.930 . S
C649 C647 1.384 . S
C649 C650 1.372 . S
C650 C649 1.372 . S
C650 C651 1.400 . S
C650 C655 1.490 . S
C651 H641 0.930 . S
C651 C650 1.400 . S
C651 C654 1.386 . S
H652 C668 0.930 . S
H653 C669 0.931 . S
C654 H642 0.929 . S
C654 C648 1.390 . S
C654 C651 1.386 . S
C655 C650 1.490 . S
C655 C657 1.395 . S
C655 C658 1.403 . S
H656 C662 0.930 . S
C657 H643 0.930 . S
C657 C655 1.395 . S
C657 C660 1.403 . S
C658 C655 1.403 . S
C658 C659 1.524 . S
C658 C662 1.400 . S
C659 H644 0.960 . S
C659 H645 0.960 . S
C659 H646 0.960 . S
C659 C658 1.524 . S
C660 C657 1.403 . S
C660 C661 1.392 . S
C660 C664 1.495 . S
C661 C660 1.392 . S
C661 C662 1.385 . S
C661 C663 1.478 . S
C662 H656 0.930 . S
C662 C658 1.400 . S
C662 C661 1.385 . S
C663 C661 1.478 . S
C663 C665 1.381 . S
C663 C669 1.383 . S
C664 C660 1.495 . S
C664 H670 0.959 . S
C664 H671 0.961 . S
C664 H672 0.960 . S
C665 C663 1.381 . S
C665 C666 1.394 . S
C665 H673 0.930 . S
C666 C665 1.394 . S
C666 C667 1.383 . S
C666 H674 0.929 . S
C667 C666 1.383 . S
C667 C668 1.377 . S
C668 H652 0.930 . S
C668 C667 1.377 . S
C668 C669 1.379 . S
C669 H653 0.931 . S
C669 C663 1.383 . S
C669 C668 1.379 . S
H670 C664 0.959 . S
H671 C664 0.961 . S
H672 C664 0.960 . S
H673 C665 0.930 . S
H674 C666 0.929 . S
H675 C683 0.929 . S
H676 C685 0.930 . S
H677 C687 0.930 . S
H678 C690 0.929 . S
H679 C693 0.930 . S
H680 C695 0.960 . S
H681 C695 0.960 . S
H682 C695 0.960 . S
C683 H675 0.929 . S
C683 C684 1.377 . S
C683 C685 1.384 . S
C684 C683 1.377 . S
C684 C690 1.390 . S
C685 H676 0.930 . S
C685 C683 1.384 . S
C685 C686 1.372 . S
C686 C685 1.372 . S
C686 C687 1.400 . S
C686 C691 1.490 . S
C687 H677 0.930 . S
C687 C686 1.400 . S
C687 C690 1.386 . S
H688 C704 0.930 . S
H689 C705 0.931 . S
C690 H678 0.929 . S
C690 C684 1.390 . S
C690 C687 1.386 . S
C691 C686 1.490 . S
C691 C693 1.395 . S
C691 C694 1.403 . S
H692 C698 0.930 . S
C693 H679 0.930 . S
C693 C691 1.395 . S
C693 C696 1.403 . S
C694 C691 1.403 . S
C694 C695 1.524 . S
C694 C698 1.400 . S
C695 H680 0.960 . S
C695 H681 0.960 . S
C695 H682 0.960 . S
C695 C694 1.524 . S
C696 C693 1.403 . S
C696 C697 1.392 . S
C696 C700 1.495 . S
C697 C696 1.392 . S
C697 C698 1.385 . S
C697 C699 1.478 . S
C698 H692 0.930 . S
C698 C694 1.400 . S
C698 C697 1.385 . S
C699 C697 1.478 . S
C699 C701 1.381 . S
C699 C705 1.383 . S
C700 C696 1.495 . S
C700 H706 0.959 . S
C700 H707 0.961 . S
C700 H708 0.960 . S
C701 C699 1.381 . S
C701 C702 1.394 . S
C701 H709 0.930 . S
C702 C701 1.394 . S
C702 C703 1.383 . S
C702 H710 0.929 . S
C703 C702 1.383 . S
C703 C704 1.377 . S
C704 H688 0.930 . S
C704 C703 1.377 . S
C704 C705 1.379 . S
C705 H689 0.931 . S
C705 C699 1.383 . S
C705 C704 1.379 . S
H706 C700 0.959 . S
H707 C700 0.961 . S
H708 C700 0.960 . S
H709 C701 0.930 . S
H710 C702 0.929 . S
H711 C719 0.929 . S
H712 C721 0.930 . S
H713 C723 0.930 . S
H714 C726 0.929 . S
H715 C729 0.930 . S
H716 C731 0.960 . S
H717 C731 0.960 . S
H718 C731 0.960 . S
C719 H711 0.929 . S
C719 C720 1.377 . S
C719 C721 1.384 . S
C720 C719 1.377 . S
C720 C726 1.390 . S
C721 H712 0.930 . S
C721 C719 1.384 . S
C721 C722 1.372 . S
C722 C721 1.372 . S
C722 C723 1.400 . S
C722 C727 1.490 . S
C723 H713 0.930 . S
C723 C722 1.400 . S
C723 C726 1.386 . S
H724 C740 0.930 . S
H725 C741 0.931 . S
C726 H714 0.929 . S
C726 C720 1.390 . S
C726 C723 1.386 . S
C727 C722 1.490 . S
C727 C729 1.395 . S
C727 C730 1.403 . S
H728 C734 0.930 . S
C729 H715 0.930 . S
C729 C727 1.395 . S
C729 C732 1.403 . S
C730 C727 1.403 . S
C730 C731 1.524 . S
C730 C734 1.400 . S
C731 H716 0.960 . S
C731 H717 0.960 . S
C731 H718 0.960 . S
C731 C730 1.524 . S
C732 C729 1.403 . S
C732 C733 1.392 . S
C732 C736 1.495 . S
C733 C732 1.392 . S
C733 C734 1.385 . S
C733 C735 1.478 . S
C734 H728 0.930 . S
C734 C730 1.400 . S
C734 C733 1.385 . S
C735 C733 1.478 . S
C735 C737 1.381 . S
C735 C741 1.383 . S
C736 C732 1.495 . S
C736 H742 0.959 . S
C736 H743 0.961 . S
C736 H744 0.960 . S
C737 C735 1.381 . S
C737 C738 1.394 . S
C737 H745 0.930 . S
C738 C737 1.394 . S
C738 C739 1.383 . S
C738 H746 0.929 . S
C739 C738 1.383 . S
C739 C740 1.377 . S
C740 H724 0.930 . S
C740 C739 1.377 . S
C740 C741 1.379 . S
C741 H725 0.931 . S
C741 C735 1.383 . S
C741 C740 1.379 . S
H742 C736 0.959 . S
H743 C736 0.961 . S
H744 C736 0.960 . S
H745 C737 0.930 . S
H746 C738 0.929 . S
H747 C755 0.929 . S
H748 C757 0.930 . S
H749 C759 0.930 . S
H750 C762 0.929 . S
H751 C765 0.930 . S
H752 C767 0.960 . S
H753 C767 0.960 . S
H754 C767 0.960 . S
C755 H747 0.929 . S
C755 C756 1.377 . S
C755 C757 1.384 . S
C756 C755 1.377 . S
C756 C762 1.390 . S
C757 H748 0.930 . S
C757 C755 1.384 . S
C757 C758 1.372 . S
C758 C757 1.372 . S
C758 C759 1.400 . S
C758 C763 1.490 . S
C759 H749 0.930 . S
C759 C758 1.400 . S
C759 C762 1.386 . S
H760 C776 0.930 . S
H761 C777 0.931 . S
C762 H750 0.929 . S
C762 C756 1.390 . S
C762 C759 1.386 . S
C763 C758 1.490 . S
C763 C765 1.395 . S
C763 C766 1.403 . S
H764 C770 0.930 . S
C765 H751 0.930 . S
C765 C763 1.395 . S
C765 C768 1.403 . S
C766 C763 1.403 . S
C766 C767 1.524 . S
C766 C770 1.400 . S
C767 H752 0.960 . S
C767 H753 0.960 . S
C767 H754 0.960 . S
C767 C766 1.524 . S
C768 C765 1.403 . S
C768 C769 1.392 . S
C768 C772 1.495 . S
C769 C768 1.392 . S
C769 C770 1.385 . S
C769 C771 1.478 . S
C770 H764 0.930 . S
C770 C766 1.400 . S
C770 C769 1.385 . S
C771 C769 1.478 . S
C771 C773 1.381 . S
C771 C777 1.383 . S
C772 C768 1.495 . S
C772 H778 0.959 . S
C772 H779 0.961 . S
C772 H780 0.960 . S
C773 C771 1.381 . S
C773 C774 1.394 . S
C773 H781 0.930 . S
C774 C773 1.394 . S
C774 C775 1.383 . S
C774 H782 0.929 . S
C775 C774 1.383 . S
C775 C776 1.377 . S
C776 H760 0.930 . S
C776 C775 1.377 . S
C776 C777 1.379 . S
C777 H761 0.931 . S
C777 C771 1.383 . S
C777 C776 1.379 . S
H778 C772 0.959 . S
H779 C772 0.961 . S
H780 C772 0.960 . S
H781 C773 0.930 . S
H782 C774 0.929 . S
H783 C791 0.929 . S
H784 C793 0.930 . S
H785 C795 0.930 . S
H786 C798 0.929 . S
H787 C801 0.930 . S
H788 C803 0.960 . S
H789 C803 0.960 . S
H790 C803 0.960 . S
C791 H783 0.929 . S
C791 C792 1.377 . S
C791 C793 1.384 . S
C792 C791 1.377 . S
C792 C798 1.390 . S
C793 H784 0.930 . S
C793 C791 1.384 . S
C793 C794 1.372 . S
C794 C793 1.372 . S
C794 C795 1.400 . S
C794 C799 1.490 . S
C795 H785 0.930 . S
C795 C794 1.400 . S
C795 C798 1.386 . S
H796 C812 0.930 . S
H797 C813 0.931 . S
C798 H786 0.929 . S
C798 C792 1.390 . S
C798 C795 1.386 . S
C799 C794 1.490 . S
C799 C801 1.395 . S
C799 C802 1.403 . S
H800 C806 0.930 . S
C801 H787 0.930 . S
C801 C799 1.395 . S
C801 C804 1.403 . S
C802 C799 1.403 . S
C802 C803 1.524 . S
C802 C806 1.400 . S
C803 H788 0.960 . S
C803 H789 0.960 . S
C803 H790 0.960 . S
C803 C802 1.524 . S
C804 C801 1.403 . S
C804 C805 1.392 . S
C804 C808 1.495 . S
C805 C804 1.392 . S
C805 C806 1.385 . S
C805 C807 1.478 . S
C806 H800 0.930 . S
C806 C802 1.400 . S
C806 C805 1.385 . S
C807 C805 1.478 . S
C807 C809 1.381 . S
C807 C813 1.383 . S
C808 C804 1.495 . S
C808 H814 0.959 . S
C808 H815 0.961 . S
C808 H816 0.960 . S
C809 C807 1.381 . S
C809 C810 1.394 . S
C809 H817 0.930 . S
C810 C809 1.394 . S
C810 C811 1.383 . S
C810 H818 0.929 . S
C811 C810 1.383 . S
C811 C812 1.377 . S
C812 H796 0.930 . S
C812 C811 1.377 . S
C812 C813 1.379 . S
C813 H797 0.931 . S
C813 C807 1.383 . S
C813 C812 1.379 . S
H814 C808 0.959 . S
H815 C808 0.961 . S
H816 C808 0.960 . S
H817 C809 0.930 . S
H818 C810 0.929 . S
H819 C827 0.929 . S
H820 C829 0.930 . S
H821 C831 0.930 . S
H822 C834 0.929 . S
H823 C837 0.930 . S
H824 C839 0.960 . S
H825 C839 0.960 . S
H826 C839 0.960 . S
C827 H819 0.929 . S
C827 C828 1.377 . S
C827 C829 1.384 . S
C828 C827 1.377 . S
C828 C834 1.390 . S
C829 H820 0.930 . S
C829 C827 1.384 . S
C829 C830 1.372 . S
C830 C829 1.372 . S
C830 C831 1.400 . S
C830 C835 1.490 . S
C831 H821 0.930 . S
C831 C830 1.400 . S
C831 C834 1.386 . S
H832 C848 0.930 . S
H833 C849 0.931 . S
C834 H822 0.929 . S
C834 C828 1.390 . S
C834 C831 1.386 . S
C835 C830 1.490 . S
C835 C837 1.395 . S
C835 C838 1.403 . S
H836 C842 0.930 . S
C837 H823 0.930 . S
C837 C835 1.395 . S
C837 C840 1.403 . S
C838 C835 1.403 . S
C838 C839 1.524 . S
C838 C842 1.400 . S
C839 H824 0.960 . S
C839 H825 0.960 . S
C839 H826 0.960 . S
C839 C838 1.524 . S
C840 C837 1.403 . S
C840 C841 1.392 . S
C840 C844 1.495 . S
C841 C840 1.392 . S
C841 C842 1.385 . S
C841 C843 1.478 . S
C842 H836 0.930 . S
C842 C838 1.400 . S
C842 C841 1.385 . S
C843 C841 1.478 . S
C843 C845 1.381 . S
C843 C849 1.383 . S
C844 C840 1.495 . S
C844 H850 0.959 . S
C844 H851 0.961 . S
C844 H852 0.960 . S
C845 C843 1.381 . S
C845 C846 1.394 . S
C845 H853 0.930 . S
C846 C845 1.394 . S
C846 C847 1.383 . S
C846 H854 0.929 . S
C847 C846 1.383 . S
C847 C848 1.377 . S
C848 H832 0.930 . S
C848 C847 1.377 . S
C848 C849 1.379 . S
C849 H833 0.931 . S
C849 C843 1.383 . S
C849 C848 1.379 . S
H850 C844 0.959 . S
H851 C844 0.961 . S
H852 C844 0.960 . S
H853 C845 0.930 . S
H854 C846 0.929 . S
H855 C863 0.929 . S
H856 C865 0.930 . S
H857 C867 0.930 . S
H858 C870 0.929 . S
H859 C873 0.930 . S
H860 C875 0.960 . S
H861 C875 0.960 . S
H862 C875 0.960 . S
C863 H855 0.929 . S
C863 C864 1.377 . S
C863 C865 1.384 . S
C864 C863 1.377 . S
C864 C870 1.390 . S
C865 H856 0.930 . S
C865 C863 1.384 . S
C865 C866 1.372 . S
C866 C865 1.372 . S
C866 C867 1.400 . S
C866 C871 1.490 . S
C867 H857 0.930 . S
C867 C866 1.400 . S
C867 C870 1.386 . S
H868 C884 0.930 . S
H869 C885 0.931 . S
C870 H858 0.929 . S
C870 C864 1.390 . S
C870 C867 1.386 . S
C871 C866 1.490 . S
C871 C873 1.395 . S
C871 C874 1.403 . S
H872 C878 0.930 . S
C873 H859 0.930 . S
C873 C871 1.395 . S
C873 C876 1.403 . S
C874 C871 1.403 . S
C874 C875 1.524 . S
C874 C878 1.400 . S
C875 H860 0.960 . S
C875 H861 0.960 . S
C875 H862 0.960 . S
C875 C874 1.524 . S
C876 C873 1.403 . S
C876 C877 1.392 . S
C876 C880 1.495 . S
C877 C876 1.392 . S
C877 C878 1.385 . S
C877 C879 1.478 . S
C878 H872 0.930 . S
C878 C874 1.400 . S
C878 C877 1.385 . S
C879 C877 1.478 . S
C879 C881 1.381 . S
C879 C885 1.383 . S
C880 C876 1.495 . S
C880 H886 0.959 . S
C880 H887 0.961 . S
C880 H888 0.960 . S
C881 C879 1.381 . S
C881 C882 1.394 . S
C881 H889 0.930 . S
C882 C881 1.394 . S
C882 C883 1.383 . S
C882 H890 0.929 . S
C883 C882 1.383 . S
C883 C884 1.377 . S
C884 H868 0.930 . S
C884 C883 1.377 . S
C884 C885 1.379 . S
C885 H869 0.931 . S
C885 C879 1.383 . S
C885 C884 1.379 . S
H886 C880 0.959 . S
H887 C880 0.961 . S
H888 C880 0.960 . S
H889 C881 0.930 . S
H890 C882 0.929 . S
H891 C899 0.929 . S
H892 C901 0.930 . S
H893 C903 0.930 . S
H894 C906 0.929 . S
H895 C909 0.930 . S
H896 C911 0.960 . S
H897 C911 0.960 . S
H898 C911 0.960 . S
C899 H891 0.929 . S
C899 C900 1.377 . S
C899 C901 1.384 . S
C900 C899 1.377 . S
C900 C906 1.390 . S
C901 H892 0.930 . S
C901 C899 1.384 . S
C901 C902 1.372 . S
C902 C901 1.372 . S
C902 C903 1.400 . S
C902 C907 1.490 . S
C903 H893 0.930 . S
C903 C902 1.400 . S
C903 C906 1.386 . S
H904 C920 0.930 . S
H905 C921 0.931 . S
C906 H894 0.929 . S
C906 C900 1.390 . S
C906 C903 1.386 . S
C907 C902 1.490 . S
C907 C909 1.395 . S
C907 C910 1.403 . S
H908 C914 0.930 . S
C909 H895 0.930 . S
C909 C907 1.395 . S
C909 C912 1.403 . S
C910 C907 1.403 . S
C910 C911 1.524 . S
C910 C914 1.400 . S
C911 H896 0.960 . S
C911 H897 0.960 . S
C911 H898 0.960 . S
C911 C910 1.524 . S
C912 C909 1.403 . S
C912 C913 1.392 . S
C912 C916 1.495 . S
C913 C912 1.392 . S
C913 C914 1.385 . S
C913 C915 1.478 . S
C914 H908 0.930 . S
C914 C910 1.400 . S
C914 C913 1.385 . S
C915 C913 1.478 . S
C915 C917 1.381 . S
C915 C921 1.383 . S
C916 C912 1.495 . S
C916 H922 0.959 . S
C916 H923 0.961 . S
C916 H924 0.960 . S
C917 C915 1.381 . S
C917 C918 1.394 . S
C917 H925 0.930 . S
C918 C917 1.394 . S
C918 C919 1.383 . S
C918 H926 0.929 . S
C919 C918 1.383 . S
C919 C920 1.377 . S
C920 H904 0.930 . S
C920 C919 1.377 . S
C920 C921 1.379 . S
C921 H905 0.931 . S
C921 C915 1.383 . S
C921 C920 1.379 . S
H922 C916 0.959 . S
H923 C916 0.961 . S
H924 C916 0.960 . S
H925 C917 0.930 . S
H926 C918 0.929 . S
H927 C935 0.929 . S
H928 C937 0.930 . S
H929 C939 0.930 . S
H930 C942 0.929 . S
H931 C945 0.930 . S
H932 C947 0.960 . S
H933 C947 0.960 . S
H934 C947 0.960 . S
C935 H927 0.929 . S
C935 C936 1.377 . S
C935 C937 1.384 . S
C936 C935 1.377 . S
C936 C942 1.390 . S
C937 H928 0.930 . S
C937 C935 1.384 . S
C937 C938 1.372 . S
C938 C937 1.372 . S
C938 C939 1.400 . S
C938 C943 1.490 . S
C939 H929 0.930 . S
C939 C938 1.400 . S
C939 C942 1.386 . S
H940 C956 0.930 1_545 S
H941 C957 0.931 . S
C942 H930 0.929 . S
C942 C936 1.390 . S
C942 C939 1.386 . S
C943 C938 1.490 . S
C943 C945 1.395 . S
C943 C946 1.403 . S
H944 C950 0.930 . S
C945 H931 0.930 . S
C945 C943 1.395 . S
C945 C948 1.403 . S
C946 C943 1.403 . S
C946 C947 1.524 . S
C946 C950 1.400 . S
C947 H932 0.960 . S
C947 H933 0.960 . S
C947 H934 0.960 . S
C947 C946 1.524 . S
C948 C945 1.403 . S
C948 C949 1.392 . S
C948 C952 1.495 . S
C949 C948 1.392 . S
C949 C950 1.385 . S
C949 C951 1.478 . S
C950 H944 0.930 . S
C950 C946 1.400 . S
C950 C949 1.385 . S
C951 C949 1.478 . S
C951 C953 1.381 . S
C951 C957 1.383 . S
C952 C948 1.495 . S
C952 H958 0.959 . S
C952 H959 0.961 . S
C952 H960 0.960 . S
C953 C951 1.381 . S
C953 C954 1.394 . S
C953 H961 0.930 . S
C954 C953 1.394 . S
C954 C955 1.383 . S
C954 H962 0.929 . S
C955 C954 1.383 . S
C955 C956 1.377 . S
C956 H940 0.930 1_565 S
C956 C955 1.377 . S
C956 C957 1.379 . S
C957 H941 0.931 . S
C957 C951 1.383 . S
C957 C956 1.379 . S
H958 C952 0.959 . S
H959 C952 0.961 . S
H960 C952 0.960 . S
H961 C953 0.930 . S
H962 C954 0.929 . S
H963 C971 0.929 . S
H964 C973 0.930 . S
H965 C975 0.930 . S
H966 C978 0.929 . S
H967 C981 0.930 . S
H968 C983 0.960 . S
H969 C983 0.960 . S
H970 C983 0.960 . S
C971 H963 0.929 . S
C971 C972 1.377 . S
C971 C973 1.384 . S
C972 C971 1.377 . S
C972 C978 1.390 . S
C973 H964 0.930 . S
C973 C971 1.384 . S
C973 C974 1.372 . S
C974 C973 1.372 . S
C974 C975 1.400 . S
C974 C979 1.490 . S
C975 H965 0.930 . S
C975 C974 1.400 . S
C975 C978 1.386 . S
H976 C992 0.930 . S
H977 C993 0.931 . S
C978 H966 0.929 . S
C978 C972 1.390 . S
C978 C975 1.386 . S
C979 C974 1.490 . S
C979 C981 1.395 . S
C979 C982 1.403 . S
H980 C986 0.930 . S
C981 H967 0.930 . S
C981 C979 1.395 . S
C981 C984 1.403 . S
C982 C979 1.403 . S
C982 C983 1.524 . S
C982 C986 1.400 . S
C983 H968 0.960 . S
C983 H969 0.960 . S
C983 H970 0.960 . S
C983 C982 1.524 . S
C984 C981 1.403 . S
C984 C985 1.392 . S
C984 C988 1.495 . S
C985 C984 1.392 . S
C985 C986 1.385 . S
C985 C987 1.478 . S
C986 H980 0.930 . S
C986 C982 1.400 . S
C986 C985 1.385 . S
C987 C985 1.478 . S
C987 C989 1.381 . S
C987 C993 1.383 . S
C988 C984 1.495 . S
C988 H994 0.959 . S
C988 H995 0.961 . S
C988 H996 0.960 . S
C989 C987 1.381 . S
C989 C990 1.394 . S
C989 H997 0.930 . S
C990 C989 1.394 . S
C990 C991 1.383 . S
C990 H998 0.929 . S
C991 C990 1.383 . S
C991 C992 1.377 . S
C992 H976 0.930 . S
C992 C991 1.377 . S
C992 C993 1.379 . S
C993 H977 0.931 . S
C993 C987 1.383 . S
C993 C992 1.379 . S
H994 C988 0.959 . S
H995 C988 0.961 . S
H996 C988 0.960 . S
H997 C989 0.930 . S
H998 C990 0.929 . S
H999 C1007 0.929 . S
H1000 C1009 0.930 . S
H1001 C1011 0.930 . S
H1002 C1014 0.929 1_455 S
H1003 C1017 0.930 . S
H1004 C1019 0.960 . S
H1005 C1019 0.960 . S
H1006 C1019 0.926 1_455 S
C1007 H999 0.929 . S
C1007 C1008 1.377 . S
C1007 C1009 1.384 . S
C1008 C1007 1.377 . S
C1008 C1014 1.390 . S
C1009 H1000 0.930 . S
C1009 C1007 1.384 . S
C1009 C1010 1.372 . S
C1010 C1009 1.372 . S
C1010 C1011 1.400 . S
C1010 C1015 1.490 . S
C1011 H1001 0.930 . S
C1011 C1010 1.400 . S
C1011 C1014 1.386 . S
H1012 C1028 0.930 . S
H1013 C1029 0.931 . S
C1014 H1002 0.929 1_655 S
C1014 C1008 1.390 . S
C1014 C1011 1.386 . S
C1015 C1010 1.490 . S
C1015 C1017 1.395 . S
C1015 C1018 1.403 . S
H1016 C1022 0.930 . S
C1017 H1003 0.930 . S
C1017 C1015 1.395 . S
C1017 C1020 1.403 . S
C1018 C1015 1.403 . S
C1018 C1019 1.524 . S
C1018 C1022 1.400 . S
C1019 H1004 0.960 . S
C1019 H1005 0.960 . S
C1019 H1006 0.926 1_655 S
C1019 C1018 1.524 . S
C1020 C1017 1.403 . S
C1020 C1021 1.392 . S
C1020 C1024 1.495 . S
C1021 C1020 1.392 . S
C1021 C1022 1.385 . S
C1021 C1023 1.478 . S
C1022 H1016 0.930 . S
C1022 C1018 1.400 . S
C1022 C1021 1.385 . S
C1023 C1021 1.478 . S
C1023 C1025 1.381 . S
C1023 C1029 1.383 . S
C1024 C1020 1.495 . S
C1024 H1030 0.959 . S
C1024 H1031 0.961 . S
C1024 H1032 0.960 . S
C1025 C1023 1.381 . S
C1025 C1026 1.394 . S
C1025 H1033 0.930 . S
C1026 C1025 1.394 . S
C1026 C1027 1.383 . S
C1026 H1034 0.929 . S
C1027 C1026 1.383 . S
C1027 C1028 1.377 . S
C1028 H1012 0.930 . S
C1028 C1027 1.377 . S
C1028 C1029 1.379 . S
C1029 H1013 0.931 . S
C1029 C1023 1.383 . S
C1029 C1028 1.379 . S
H1030 C1024 0.959 . S
H1031 C1024 0.961 . S
H1032 C1024 0.960 . S
H1033 C1025 0.930 . S
H1034 C1026 0.929 . S
H1035 C1043 0.929 . S
H1036 C1045 0.930 . S
H1037 C1047 0.930 . S
H1038 C1050 0.929 . S
H1039 C1053 0.930 . S
H1040 C1055 0.960 . S
H1041 C1055 0.960 . S
H1042 C1055 0.960 . S
C1043 H1035 0.929 . S
C1043 C1044 1.377 . S
C1043 C1045 1.384 . S
C1044 C1043 1.377 . S
C1044 C1050 1.390 . S
C1045 H1036 0.930 . S
C1045 C1043 1.384 . S
C1045 C1046 1.372 . S
C1046 C1045 1.372 . S
C1046 C1047 1.400 . S
C1046 C1051 1.490 . S
C1047 H1037 0.930 . S
C1047 C1046 1.400 . S
C1047 C1050 1.386 . S
H1048 C1064 0.930 . S
H1049 C1065 0.931 . S
C1050 H1038 0.929 . S
C1050 C1044 1.390 . S
C1050 C1047 1.386 . S
C1051 C1046 1.490 . S
C1051 C1053 1.395 . S
C1051 C1054 1.403 . S
H1052 C1058 0.930 . S
C1053 H1039 0.930 . S
C1053 C1051 1.395 . S
C1053 C1056 1.403 . S
C1054 C1051 1.403 . S
C1054 C1055 1.524 . S
C1054 C1058 1.400 . S
C1055 H1040 0.960 . S
C1055 H1041 0.960 . S
C1055 H1042 0.960 . S
C1055 C1054 1.524 . S
C1056 C1053 1.403 . S
C1056 C1057 1.392 . S
C1056 C1060 1.495 . S
C1057 C1056 1.392 . S
C1057 C1058 1.385 . S
C1057 C1059 1.478 . S
C1058 H1052 0.930 . S
C1058 C1054 1.400 . S
C1058 C1057 1.385 . S
C1059 C1057 1.478 . S
C1059 C1061 1.381 . S
C1059 C1065 1.383 . S
C1060 C1056 1.495 . S
C1060 H1066 0.959 . S
C1060 H1067 0.961 . S
C1060 H1068 0.960 . S
C1061 C1059 1.381 . S
C1061 C1062 1.394 . S
C1061 H1069 0.930 . S
C1062 C1061 1.394 . S
C1062 C1063 1.383 . S
C1062 H1070 0.929 . S
C1063 C1062 1.383 . S
C1063 C1064 1.377 . S
C1064 H1048 0.930 . S
C1064 C1063 1.377 . S
C1064 C1065 1.379 . S
C1065 H1049 0.931 . S
C1065 C1059 1.383 . S
C1065 C1064 1.379 . S
H1066 C1060 0.959 . S
H1067 C1060 0.961 . S
H1068 C1060 0.960 . S
H1069 C1061 0.930 . S
H1070 C1062 0.929 . S
H1071 C1079 0.929 . S
H1072 C1081 0.930 . S
H1073 C1083 0.930 . S
H1074 C1086 0.929 . S
H1075 C1089 0.930 . S
H1076 C1091 0.960 . S
H1077 C1091 0.960 . S
H1078 C1091 0.960 . S
C1079 H1071 0.929 . S
C1079 C1080 1.377 . S
C1079 C1081 1.384 . S
C1080 C1079 1.377 . S
C1080 C1086 1.390 . S
C1081 H1072 0.930 . S
C1081 C1079 1.384 . S
C1081 C1082 1.372 . S
C1082 C1081 1.372 . S
C1082 C1083 1.400 . S
C1082 C1087 1.490 . S
C1083 H1073 0.930 . S
C1083 C1082 1.400 . S
C1083 C1086 1.386 . S
H1084 C1100 0.930 . S
H1085 C1101 0.931 . S
C1086 H1074 0.929 . S
C1086 C1080 1.390 . S
C1086 C1083 1.386 . S
C1087 C1082 1.490 . S
C1087 C1089 1.395 . S
C1087 C1090 1.403 . S
H1088 C1094 0.930 . S
C1089 H1075 0.930 . S
C1089 C1087 1.395 . S
C1089 C1092 1.403 1_455 S
C1090 C1087 1.403 . S
C1090 C1091 1.524 . S
C1090 C1094 1.400 . S
C1091 H1076 0.960 . S
C1091 H1077 0.960 . S
C1091 H1078 0.960 . S
C1091 C1090 1.524 . S
C1092 C1089 1.403 1_655 S
C1092 C1093 1.392 . S
C1092 C1096 1.495 . S
C1093 C1092 1.392 . S
C1093 C1094 1.385 1_655 S
C1093 C1095 1.478 . S
C1094 H1088 0.930 . S
C1094 C1090 1.400 . S
C1094 C1093 1.385 1_455 S
C1095 C1093 1.478 . S
C1095 C1097 1.381 . S
C1095 C1101 1.383 . S
C1096 C1092 1.495 . S
C1096 H1102 0.959 . S
C1096 H1103 0.961 . S
C1096 H1104 0.960 . S
C1097 C1095 1.381 . S
C1097 C1098 1.394 . S
C1097 H1105 0.930 . S
C1098 C1097 1.394 . S
C1098 C1099 1.383 . S
C1098 H1106 0.929 . S
C1099 C1098 1.383 . S
C1099 C1100 1.377 . S
C1100 H1084 0.930 . S
C1100 C1099 1.377 . S
C1100 C1101 1.379 . S
C1101 H1085 0.931 . S
C1101 C1095 1.383 . S
C1101 C1100 1.379 . S
H1102 C1096 0.959 . S
H1103 C1096 0.961 . S
H1104 C1096 0.960 . S
H1105 C1097 0.930 . S
H1106 C1098 0.929 . S
H1107 C1115 0.929 . S
H1108 C1117 0.930 . S
H1109 C1119 0.930 . S
H1110 C1122 0.929 . S
H1111 C1125 0.930 . S
H1112 C1127 0.960 . S
H1113 C1127 0.960 . S
H1114 C1127 0.960 . S
C1115 H1107 0.929 . S
C1115 C1116 1.377 . S
C1115 C1117 1.384 . S
C1116 C1115 1.377 . S
C1116 C1122 1.390 . S
C1117 H1108 0.930 . S
C1117 C1115 1.384 . S
C1117 C1118 1.372 . S
C1118 C1117 1.372 . S
C1118 C1119 1.400 . S
C1118 C1123 1.490 . S
C1119 H1109 0.930 . S
C1119 C1118 1.400 . S
C1119 C1122 1.386 . S
H1120 C1136 0.930 . S
H1121 C1137 0.931 . S
C1122 H1110 0.929 . S
C1122 C1116 1.390 . S
C1122 C1119 1.386 . S
C1123 C1118 1.490 . S
C1123 C1125 1.395 . S
C1123 C1126 1.403 . S
H1124 C1130 0.930 . S
C1125 H1111 0.930 . S
C1125 C1123 1.395 . S
C1125 C1128 1.403 . S
C1126 C1123 1.403 . S
C1126 C1127 1.524 . S
C1126 C1130 1.400 . S
C1127 H1112 0.960 . S
C1127 H1113 0.960 . S
C1127 H1114 0.960 . S
C1127 C1126 1.524 . S
C1128 C1125 1.403 . S
C1128 C1129 1.392 . S
C1128 C1132 1.495 . S
C1129 C1128 1.392 . S
C1129 C1130 1.385 . S
C1129 C1131 1.478 . S
C1130 H1124 0.930 . S
C1130 C1126 1.400 . S
C1130 C1129 1.385 . S
C1131 C1129 1.478 . S
C1131 C1133 1.381 . S
C1131 C1137 1.383 . S
C1132 C1128 1.495 . S
C1132 H1138 0.959 . S
C1132 H1139 0.961 . S
C1132 H1140 0.960 . S
C1133 C1131 1.381 . S
C1133 C1134 1.394 . S
C1133 H1141 0.930 . S
C1134 C1133 1.394 . S
C1134 C1135 1.383 . S
C1134 H1142 0.929 . S
C1135 C1134 1.383 . S
C1135 C1136 1.377 . S
C1136 H1120 0.930 . S
C1136 C1135 1.377 . S
C1136 C1137 1.379 . S
C1137 H1121 0.931 . S
C1137 C1131 1.383 . S
C1137 C1136 1.379 . S
H1138 C1132 0.959 . S
H1139 C1132 0.961 . S
H1140 C1132 0.960 . S
H1141 C1133 0.930 . S
H1142 C1134 0.929 . S
H1143 C1151 0.929 . S
H1144 C1153 0.930 . S
H1145 C1155 0.930 . S
H1146 C1158 0.929 . S
H1147 C1161 0.930 . S
H1148 C1163 0.960 . S
H1149 C1163 0.960 . S
H1150 C1163 0.960 . S
C1151 H1143 0.929 . S
C1151 C1152 1.377 . S
C1151 C1153 1.384 . S
C1152 C1151 1.377 . S
C1152 C1158 1.390 . S
C1153 H1144 0.930 . S
C1153 C1151 1.384 . S
C1153 C1154 1.372 . S
C1154 C1153 1.372 . S
C1154 C1155 1.400 . S
C1154 C1159 1.490 1_565 S
C1155 H1145 0.930 . S
C1155 C1154 1.400 . S
C1155 C1158 1.386 . S
H1156 C1172 0.930 . S
H1157 C1173 0.931 . S
C1158 H1146 0.929 . S
C1158 C1152 1.390 . S
C1158 C1155 1.386 . S
C1159 C1154 1.490 1_545 S
C1159 C1161 1.395 1_545 S
C1159 C1162 1.403 . S
H1160 C1166 0.930 . S
C1161 H1147 0.930 . S
C1161 C1159 1.395 1_565 S
C1161 C1164 1.403 1_565 S
C1162 C1159 1.403 . S
C1162 C1163 1.524 . S
C1162 C1166 1.400 . S
C1163 H1148 0.960 . S
C1163 H1149 0.960 . S
C1163 H1150 0.960 . S
C1163 C1162 1.524 . S
C1164 C1161 1.403 1_545 S
C1164 C1165 1.392 . S
C1164 C1168 1.495 . S
C1165 C1164 1.392 . S
C1165 C1166 1.385 . S
C1165 C1167 1.478 . S
C1166 H1160 0.930 . S
C1166 C1162 1.400 . S
C1166 C1165 1.385 . S
C1167 C1165 1.478 . S
C1167 C1169 1.381 . S
C1167 C1173 1.383 . S
C1168 C1164 1.495 . S
C1168 H1174 0.959 1_545 S
C1168 H1175 0.961 . S
C1168 H1176 0.960 . S
C1169 C1167 1.381 . S
C1169 C1170 1.394 . S
C1169 H1177 0.930 . S
C1170 C1169 1.394 . S
C1170 C1171 1.383 . S
C1170 H1178 0.929 . S
C1171 C1170 1.383 . S
C1171 C1172 1.377 . S
C1172 H1156 0.930 . S
C1172 C1171 1.377 . S
C1172 C1173 1.379 . S
C1173 H1157 0.931 . S
C1173 C1167 1.383 . S
C1173 C1172 1.379 . S
H1174 C1168 0.959 1_565 S
H1175 C1168 0.961 . S
H1176 C1168 0.960 . S
H1177 C1169 0.930 . S
H1178 C1170 0.929 . S
C540 C170 1.116 . S
C559 C33 1.103 . S
C576 C111 1.114 . S
C595 C52 1.123 . S
C612 C92 1.108 . S
C631 C151 1.125 . S
C648 C328 1.104 . S
C667 C229 1.097 . S
C684 C288 1.109 . S
C703 C210 1.117 . S
C720 C269 1.107 . S
C739 C347 1.098 . S
C756 C387 1.104 . S
C775 C524 1.095 . S
C792 C406 1.109 . S
C811 C465 1.097 . S
C828 C446 1.101 . S
C847 C505 1.094 . S
C864 C5 1.491 . S
C883 C418 1.489 . S
C900 C62 1.486 . S
C919 C475 1.473 . S
C936 C357 1.481 . S
C955 C123 1.494 . S
C972 C239 1.480 . S
C991 C121 1.492 . S
C1008 C3 1.487 . S
C1027 C298 1.475 . S
C1044 C180 1.484 . S
C1063 C64 1.493 . S
C1080 C416 1.485 . S
C1099 C300 1.485 . S
C1116 C182 1.493 . S
C1135 C477 1.484 . S
C1152 C359 1.494 . S
C1171 C241 1.493 . S
