# Generated by pormake.
# Topology ukk, (4)-cn, num edge types: 1
# Building blocks:
#     Node 0, Type 0, BuildingBlock: KOZSID_clean_sbu_0, # of connection points: 4
#     Node 1, Type 0, BuildingBlock: KOZSID_clean_sbu_0, # of connection points: 4
#     Node 2, Type 0, BuildingBlock: KOZSID_clean_sbu_0, # of connection points: 4
#     Node 3, Type 0, BuildingBlock: KOZSID_clean_sbu_0, # of connection points: 4
#     Node 4, Type 0, BuildingBlock: KOZSID_clean_sbu_0, # of connection points: 4
#     Node 5, Type 0, BuildingBlock: KOZSID_clean_sbu_0, # of connection points: 4
#     Node 6, Type 0, BuildingBlock: KOZSID_clean_sbu_0, # of connection points: 4
#     Node 7, Type 0, BuildingBlock: KOZSID_clean_sbu_0, # of connection points: 4
#     Node 8, Type 0, BuildingBlock: KOZSID_clean_sbu_0, # of connection points: 4
#     Node 9, Type 0, BuildingBlock: KOZSID_clean_sbu_0, # of connection points: 4
#     Node 10, Type 0, BuildingBlock: KOZSID_clean_sbu_0, # of connection points: 4
#     Node 11, Type 0, BuildingBlock: KOZSID_clean_sbu_0, # of connection points: 4
#     Node 12, Type 0, BuildingBlock: KOZSID_clean_sbu_0, # of connection points: 4
#     Node 13, Type 0, BuildingBlock: KOZSID_clean_sbu_0, # of connection points: 4
#     Node 14, Type 0, BuildingBlock: KOZSID_clean_sbu_0, # of connection points: 4
#     Node 15, Type 0, BuildingBlock: KOZSID_clean_sbu_0, # of connection points: 4
#     Edge 16, Type (0, 0), BuildingBlock: EZIPEK_clean_linker_0, # of connection points: 2
#     Edge 17, Type (0, 0), BuildingBlock: EZIPEK_clean_linker_0, # of connection points: 2
#     Edge 18, Type (0, 0), BuildingBlock: EZIPEK_clean_linker_0, # of connection points: 2
#     Edge 19, Type (0, 0), BuildingBlock: EZIPEK_clean_linker_0, # of connection points: 2
#     Edge 20, Type (0, 0), BuildingBlock: EZIPEK_clean_linker_0, # of connection points: 2
#     Edge 21, Type (0, 0), BuildingBlock: EZIPEK_clean_linker_0, # of connection points: 2
#     Edge 22, Type (0, 0), BuildingBlock: EZIPEK_clean_linker_0, # of connection points: 2
#     Edge 23, Type (0, 0), BuildingBlock: EZIPEK_clean_linker_0, # of connection points: 2
#     Edge 24, Type (0, 0), BuildingBlock: EZIPEK_clean_linker_0, # of connection points: 2
#     Edge 25, Type (0, 0), BuildingBlock: EZIPEK_clean_linker_0, # of connection points: 2
#     Edge 26, Type (0, 0), BuildingBlock: EZIPEK_clean_linker_0, # of connection points: 2
#     Edge 27, Type (0, 0), BuildingBlock: EZIPEK_clean_linker_0, # of connection points: 2
#     Edge 28, Type (0, 0), BuildingBlock: EZIPEK_clean_linker_0, # of connection points: 2
#     Edge 29, Type (0, 0), BuildingBlock: EZIPEK_clean_linker_0, # of connection points: 2
#     Edge 30, Type (0, 0), BuildingBlock: EZIPEK_clean_linker_0, # of connection points: 2
#     Edge 31, Type (0, 0), BuildingBlock: EZIPEK_clean_linker_0, # of connection points: 2
#     Edge 32, Type (0, 0), BuildingBlock: EZIPEK_clean_linker_0, # of connection points: 2
#     Edge 33, Type (0, 0), BuildingBlock: EZIPEK_clean_linker_0, # of connection points: 2
#     Edge 34, Type (0, 0), BuildingBlock: EZIPEK_clean_linker_0, # of connection points: 2
#     Edge 35, Type (0, 0), BuildingBlock: EZIPEK_clean_linker_0, # of connection points: 2
#     Edge 36, Type (0, 0), BuildingBlock: EZIPEK_clean_linker_0, # of connection points: 2
#     Edge 37, Type (0, 0), BuildingBlock: EZIPEK_clean_linker_0, # of connection points: 2
#     Edge 38, Type (0, 0), BuildingBlock: EZIPEK_clean_linker_0, # of connection points: 2
#     Edge 39, Type (0, 0), BuildingBlock: EZIPEK_clean_linker_0, # of connection points: 2
#     Edge 40, Type (0, 0), BuildingBlock: EZIPEK_clean_linker_0, # of connection points: 2
#     Edge 41, Type (0, 0), BuildingBlock: EZIPEK_clean_linker_0, # of connection points: 2
#     Edge 42, Type (0, 0), BuildingBlock: EZIPEK_clean_linker_0, # of connection points: 2
#     Edge 43, Type (0, 0), BuildingBlock: EZIPEK_clean_linker_0, # of connection points: 2
#     Edge 44, Type (0, 0), BuildingBlock: EZIPEK_clean_linker_0, # of connection points: 2
#     Edge 45, Type (0, 0), BuildingBlock: EZIPEK_clean_linker_0, # of connection points: 2
#     Edge 46, Type (0, 0), BuildingBlock: EZIPEK_clean_linker_0, # of connection points: 2
#     Edge 47, Type (0, 0), BuildingBlock: EZIPEK_clean_linker_0, # of connection points: 2
# Relax obj value: 0.055
# Max RMSD: 0.206
# Mean RMSD: 0.206
data_MOF--net-ukk--node1-KOZSID_clean_sbu_0--edge1-EZIPEK_clean_linker_0
_symmetry_space_group_name_H-M    P1
_symmetry_Int_Tables_number       1
_symmetry_cell_setting            triclinic
loop_
_symmetry_equiv_pos_as_xyz
'x, y, z'
_cell_length_a     50.351901
_cell_length_b     50.31202
_cell_length_c     21.365123
_cell_angle_alpha  90.003203
_cell_angle_beta   90.015731
_cell_angle_gamma 89.985773
loop_
_atom_site_label
_atom_site_type_symbol
_atom_site_fract_x
_atom_site_fract_y
_atom_site_fract_z
_atom_type_partial_charge
C0 C 0.35988 0.07842 0.19903 0.0
C1 C 0.34445 0.06864 0.24769 0.0
C2 C 0.33016 0.08962 0.27036 0.0
C3 C 0.33771 0.11097 0.23468 0.0
N4 N 0.35592 0.10497 0.19083 0.0
Co5 Co 0.37257 0.13063 0.13109 0.0
N6 N 0.3587 0.16224 0.17799 0.0
C7 C 0.34043 0.16141 0.2241 0.0
C8 C 0.33586 0.18556 0.25166 0.0
C9 C 0.35196 0.20295 0.22077 0.0
C10 C 0.36513 0.18852 0.17472 0.0
N11 N 0.38966 0.15653 0.07265 0.0
C12 C 0.39255 0.18358 0.07619 0.0
C13 C 0.4045 0.19335 0.02242 0.0
C14 C 0.40907 0.17196 0.98407 0.0
C15 C 0.39966 0.15026 0.01615 0.0
N16 N 0.38486 0.09882 0.08308 0.0
C17 C 0.39444 0.09936 0.02436 0.0
C18 C 0.40135 0.07458 1.00262 0.0
C19 C 0.39572 0.05733 0.05069 0.0
C20 C 0.38571 0.07257 0.09927 0.0
N21 N 0.33982 0.13059 0.07755 0.0
C22 C 0.29967 0.12918 0.98327 0.0
C23 C 0.30701 0.1062 0.01648 0.0
C24 C 0.3269 0.10733 0.06321 0.0
C25 C 0.31208 0.15303 1.00058 0.0
C26 C 0.33179 0.15331 0.04756 0.0
N27 N 0.40633 0.13042 0.18235 0.0
C28 C 0.45203 0.1155 0.19584 0.0
C29 C 0.45618 0.13222 0.2473 0.0
C30 C 0.43421 0.14743 0.26687 0.0
C31 C 0.40944 0.14537 0.23581 0.0
C32 C 0.42802 0.11603 0.16261 0.0
H33 H 0.39322 0.15646 0.25539 0.0
H34 H 0.42802 0.10486 0.12004 0.0
H35 H 0.33248 0.08905 0.08598 0.0
H36 H 0.34125 0.17187 0.05772 0.0
C37 C 0.33113 0.13727 0.24693 0.0
C38 C 0.37665 0.06146 0.15948 0.0
C39 C 0.38187 0.20102 0.12631 0.0
C40 C 0.40066 0.12372 0.9961 0.0
H41 H 0.34353 0.04845 0.26498 0.0
H42 H 0.3166 0.08949 0.30968 0.0
H43 H 0.32317 0.18982 0.29129 0.0
H44 H 0.35366 0.22392 0.23112 0.0
H45 H 0.40879 0.21389 0.01137 0.0
H46 H 0.41807 0.17224 0.93808 0.0
H47 H 0.41045 0.06973 0.95817 0.0
H48 H 0.3988 0.03604 0.05035 0.0
H49 H 0.2979 0.0873 1.00526 0.0
H50 H 0.30702 0.17137 0.97682 0.0
H51 H 0.46795 0.10296 0.17873 0.0
H52 H 0.43603 0.16084 0.30627 0.0
C53 C 0.07847 0.62818 0.9108 0.0
C54 C 0.06395 0.61615 0.95806 0.0
C55 C 0.0812 0.61204 0.007 0.0
C56 C 0.10526 0.62177 0.98705 0.0
N57 N 0.10427 0.63156 0.92855 0.0
Co58 Co 0.13474 0.64772 0.88296 0.0
N59 N 0.16156 0.63236 0.94138 0.0
C60 C 0.15612 0.62307 0.99907 0.0
C61 C 0.17843 0.61496 0.03077 0.0
C62 C 0.19924 0.61968 0.99081 0.0
C63 C 0.18849 0.63033 0.93651 0.0
N64 N 0.16512 0.66355 0.8362 0.0
C65 C 0.19141 0.65724 0.83672 0.0
C66 C 0.20503 0.67156 0.7913 0.0
C67 C 0.18698 0.68809 0.76351 0.0
C68 C 0.16327 0.68268 0.79231 0.0
N69 N 0.10804 0.66361 0.825 0.0
C70 C 0.11264 0.68364 0.78468 0.0
C71 C 0.09074 0.6905 0.75006 0.0
C72 C 0.07099 0.67385 0.76991 0.0
C73 C 0.08196 0.65777 0.81599 0.0
N74 N 0.13244 0.67975 0.93819 0.0
C75 C 0.1291 0.72016 0.03127 0.0
C76 C 0.15369 0.71029 0.01086 0.0
C77 C 0.15491 0.69038 0.96443 0.0
C78 C 0.10624 0.70999 1.00213 0.0
C79 C 0.10831 0.68997 0.95595 0.0
N80 N 0.13698 0.61536 0.82996 0.0
C81 C 0.13716 0.59301 0.72915 0.0
C82 C 0.13972 0.56798 0.75798 0.0
C83 C 0.1409 0.56748 0.82355 0.0
C84 C 0.13902 0.59102 0.85827 0.0
C85 C 0.13629 0.61641 0.76582 0.0
H86 H 0.139 0.58933 0.90845 0.0
H87 H 0.13481 0.63529 0.74219 0.0
H88 H 0.17413 0.68298 0.95128 0.0
H89 H 0.09025 0.68225 0.93594 0.0
C90 C 0.12971 0.61909 0.01803 0.0
C91 C 0.06661 0.63826 0.85222 0.0
C92 C 0.20469 0.64023 0.88369 0.0
C93 C 0.13855 0.69186 0.77229 0.0
H94 H 0.04302 0.61126 0.95748 0.0
H95 H 0.07681 0.60253 0.05124 0.0
H96 H 0.17942 0.60612 0.07689 0.0
H97 H 0.21999 0.616 1.00079 0.0
H98 H 0.22592 0.6705 0.77977 0.0
H99 H 0.19055 0.70165 0.72509 0.0
H100 H 0.08957 0.70499 0.71272 0.0
H101 H 0.05086 0.67357 0.7522 0.0
H102 H 0.17192 0.7176 0.03153 0.0
H103 H 0.08679 0.71708 0.01593 0.0
H104 H 0.13583 0.59448 0.67869 0.0
H105 H 0.14264 0.54874 0.84821 0.0
C106 C 0.65914 0.94514 0.18546 0.0
C107 C 0.67458 0.95533 0.23365 0.0
C108 C 0.68313 0.93416 0.2679 0.0
C109 C 0.67266 0.91234 0.23855 0.0
N110 N 0.65833 0.91805 0.18697 0.0
Co111 Co 0.64038 0.89135 0.13083 0.0
N112 N 0.65641 0.86038 0.17678 0.0
C113 C 0.67008 0.86187 0.23094 0.0
C114 C 0.67725 0.83773 0.25509 0.0
C115 C 0.66742 0.81953 0.21406 0.0
C116 C 0.65502 0.83367 0.16636 0.0
N117 N 0.62224 0.86454 0.07593 0.0
C118 C 0.62475 0.83752 0.07219 0.0
C119 C 0.60839 0.82724 0.02588 0.0
C120 C 0.59451 0.84821 1.00137 0.0
C121 C 0.6033 0.87016 0.03337 0.0
N122 N 0.62466 0.92269 0.08533 0.0
C123 C 0.60565 0.92118 0.04112 0.0
C124 C 0.59715 0.94557 0.02038 0.0
C125 C 0.61124 0.96381 0.05445 0.0
C126 C 0.62767 0.94954 0.09419 0.0
N127 N 0.67142 0.89199 0.07171 0.0
C128 C 0.71439 0.89225 0.9838 0.0
C129 C 0.68781 0.89096 0.96445 0.0
C130 C 0.66698 0.89135 0.00831 0.0
C131 C 0.71887 0.89343 0.04895 0.0
C132 C 0.69731 0.89287 0.09179 0.0
N133 N 0.60867 0.89038 0.18746 0.0
C134 C 0.57165 0.91325 0.23668 0.0
C135 C 0.55949 0.88924 0.25293 0.0
C136 C 0.573 0.86572 0.23763 0.0
C137 C 0.59748 0.86674 0.20571 0.0
C138 C 0.59565 0.9133 0.20334 0.0
H139 H 0.60665 0.84819 0.19399 0.0
H140 H 0.60276 0.932 0.18793 0.0
H141 H 0.6472 0.89116 0.98992 0.0
H142 H 0.70177 0.89318 0.14106 0.0
C143 C 0.67674 0.88623 0.25688 0.0
C144 C 0.64291 0.96226 0.14526 0.0
C145 C 0.64045 0.82062 0.11509 0.0
C146 C 0.59633 0.89651 0.02043 0.0
H147 H 0.67835 0.97602 0.24438 0.0
H148 H 0.69535 0.93462 0.30958 0.0
H149 H 0.68817 0.83383 0.29776 0.0
H150 H 0.66874 0.79822 0.21985 0.0
H151 H 0.60625 0.80664 0.01225 0.0
H152 H 0.58002 0.84755 0.96398 0.0
H153 H 0.58204 0.94962 0.98562 0.0
H154 H 0.60892 0.98518 0.05224 0.0
H155 H 0.68304 0.89003 0.91505 0.0
H156 H 0.73897 0.89456 0.0668 0.0
H157 H 0.562 0.93198 0.24715 0.0
H158 H 0.56441 0.84659 0.24911 0.0
C159 C 0.94346 0.39425 0.91799 0.0
C160 C 0.95794 0.40705 0.96421 0.0
C161 C 0.94069 0.41178 0.01284 0.0
C162 C 0.91663 0.40176 0.99363 0.0
N163 N 0.91765 0.39122 0.93588 0.0
Co164 Co 0.88701 0.37542 0.89008 0.0
N165 N 0.86024 0.39151 0.94748 0.0
C166 C 0.86569 0.40114 1.00488 0.0
C167 C 0.84338 0.40944 0.0363 0.0
C168 C 0.82255 0.40447 0.99651 0.0
C169 C 0.83328 0.3935 0.94256 0.0
N170 N 0.8565 0.36004 0.84268 0.0
C171 C 0.83033 0.36684 0.84237 0.0
C172 C 0.81671 0.35291 0.79624 0.0
C173 C 0.83452 0.33595 0.76919 0.0
C174 C 0.85814 0.34081 0.79896 0.0
N175 N 0.91347 0.35856 0.83325 0.0
C176 C 0.90865 0.33816 0.79408 0.0
C177 C 0.93074 0.32981 0.7621 0.0
C178 C 0.95086 0.34588 0.78245 0.0
C179 C 0.9398 0.36324 0.82574 0.0
N180 N 0.88857 0.34357 0.94617 0.0
C181 C 0.89067 0.30315 0.04002 0.0
C182 C 0.8664 0.312 0.01485 0.0
C183 C 0.8658 0.33221 0.96894 0.0
C184 C 0.91389 0.31457 0.01513 0.0
C185 C 0.91245 0.33419 0.96795 0.0
N186 N 0.88586 0.40778 0.83655 0.0
C187 C 0.88628 0.42992 0.73551 0.0
C188 C 0.88611 0.45514 0.76412 0.0
C189 C 0.88581 0.45592 0.8296 0.0
C190 C 0.88578 0.4323 0.86455 0.0
C191 C 0.88601 0.40655 0.77243 0.0
H192 H 0.88593 0.43408 0.91469 0.0
H193 H 0.8861 0.38753 0.7491 0.0
H194 H 0.84681 0.33917 0.95313 0.0
H195 H 0.93082 0.34224 0.95038 0.0
C196 C 0.89211 0.40501 0.02403 0.0
C197 C 0.95524 0.38302 0.86044 0.0
C198 C 0.81702 0.38355 0.88978 0.0
C199 C 0.88267 0.33065 0.78054 0.0
H200 H 0.97886 0.41198 0.96327 0.0
H201 H 0.94505 0.42197 0.05626 0.0
H202 H 0.84239 0.41851 0.08217 0.0
H203 H 0.80181 0.40824 1.00633 0.0
H204 H 0.79592 0.35439 0.78399 0.0
H205 H 0.83088 0.32238 0.73084 0.0
H206 H 0.93189 0.3146 0.72637 0.0
H207 H 0.97132 0.34493 0.76711 0.0
H208 H 0.84786 0.30379 0.03174 0.0
H209 H 0.93318 0.30844 0.03232 0.0
H210 H 0.88659 0.42829 0.68498 0.0
H211 H 0.88573 0.47483 0.85386 0.0
C212 C 0.36244 0.443 0.07379 0.0
C213 C 0.34614 0.45447 0.02884 0.0
C214 C 0.32986 0.43477 0.00712 0.0
C215 C 0.33713 0.41242 0.03963 0.0
N216 N 0.35702 0.41669 0.08051 0.0
Co217 Co 0.37322 0.38933 0.13622 0.0
N218 N 0.35816 0.3594 0.08612 0.0
C219 C 0.33937 0.36171 0.04157 0.0
C220 C 0.33467 0.33848 0.00995 0.0
C221 C 0.35127 0.3202 0.03659 0.0
C222 C 0.36485 0.33315 0.08432 0.0
N223 N 0.38867 0.36173 0.19247 0.0
C224 C 0.3906 0.33477 0.18591 0.0
C225 C 0.40099 0.3234 0.23977 0.0
C226 C 0.40564 0.34377 0.28113 0.0
C227 C 0.39774 0.36649 0.2507 0.0
N228 N 0.38882 0.41939 0.18448 0.0
C229 C 0.39863 0.41766 0.24283 0.0
C230 C 0.40834 0.44152 0.26435 0.0
C231 C 0.40423 0.45938 0.21654 0.0
C232 C 0.39222 0.44542 0.16832 0.0
N233 N 0.34093 0.39027 0.19126 0.0
C234 C 0.30027 0.39091 0.28504 0.0
C235 C 0.31234 0.41446 0.2635 0.0
C236 C 0.33196 0.41377 0.21614 0.0
C237 C 0.30857 0.36714 0.25621 0.0
C238 C 0.32895 0.36722 0.21066 0.0
N239 N 0.40593 0.38871 0.08408 0.0
C240 C 0.45405 0.38821 0.07914 0.0
C241 C 0.45376 0.39002 0.01376 0.0
C242 C 0.42878 0.39112 0.98418 0.0
C243 C 0.40518 0.3902 0.02002 0.0
C244 C 0.43021 0.38777 0.11308 0.0
H245 H 0.38637 0.39092 0.9959 0.0
H246 H 0.4316 0.38695 0.16326 0.0
H247 H 0.34038 0.4324 0.20109 0.0
H248 H 0.33554 0.34845 0.19248 0.0
C249 C 0.32964 0.38658 0.02416 0.0
C250 C 0.38208 0.45794 0.11042 0.0
C251 C 0.38113 0.31909 0.13154 0.0
C252 C 0.40147 0.39272 0.27174 0.0
H253 H 0.34614 0.47487 0.01284 0.0
H254 H 0.31544 0.43629 0.96971 0.0
H255 H 0.32146 0.33541 0.97062 0.0
H256 H 0.35275 0.29955 0.02297 0.0
H257 H 0.40458 0.30252 0.24852 0.0
H258 H 0.41423 0.34222 0.32742 0.0
H259 H 0.4179 0.44536 0.30881 0.0
H260 H 0.40911 0.48032 0.21731 0.0
H261 H 0.30672 0.43343 0.28343 0.0
H262 H 0.29986 0.34838 0.27016 0.0
H263 H 0.47276 0.38738 0.10412 0.0
H264 H 0.42753 0.39256 0.93371 0.0
C265 C 0.44927 0.6291 0.85174 0.0
C266 C 0.46372 0.61781 0.80338 0.0
C267 C 0.44615 0.61338 0.75525 0.0
C268 C 0.42196 0.62217 0.77677 0.0
N269 N 0.42319 0.63173 0.83546 0.0
Co270 Co 0.39256 0.64628 0.88355 0.0
N271 N 0.36563 0.63038 0.82597 0.0
C272 C 0.37094 0.62141 0.7679 0.0
C273 C 0.34861 0.6134 0.73621 0.0
C274 C 0.32785 0.61792 0.77644 0.0
C275 C 0.33864 0.62836 0.83093 0.0
N276 N 0.3621 0.66065 0.93297 0.0
C277 C 0.33589 0.65396 0.93278 0.0
C278 C 0.32238 0.66701 0.98048 0.0
C279 C 0.34029 0.68337 0.00915 0.0
C280 C 0.36383 0.67904 0.97865 0.0
N281 N 0.41928 0.66264 0.94084 0.0
C282 C 0.4144 0.68202 0.98275 0.0
C283 C 0.43643 0.6895 0.01614 0.0
C284 C 0.45659 0.67393 0.99393 0.0
C285 C 0.44568 0.65781 0.94788 0.0
N286 N 0.39304 0.67886 0.82966 0.0
C287 C 0.39335 0.71996 0.73773 0.0
C288 C 0.36955 0.70884 0.75947 0.0
C289 C 0.36984 0.68863 0.80516 0.0
C290 C 0.41703 0.71065 0.76495 0.0
C291 C 0.41646 0.69026 0.81063 0.0
N292 N 0.39217 0.61328 0.93491 0.0
C293 C 0.39202 0.59012 0.03466 0.0
C294 C 0.39157 0.56519 1.00469 0.0
C295 C 0.39172 0.56509 0.93913 0.0
C296 C 0.39219 0.58906 0.90549 0.0
C297 C 0.39211 0.61383 0.99908 0.0
H298 H 0.39259 0.58784 0.85524 0.0
H299 H 0.39214 0.63258 0.02356 0.0
H300 H 0.35122 0.68022 0.81892 0.0
H301 H 0.4351 0.6832 0.82912 0.0
C302 C 0.39729 0.61858 0.74739 0.0
C303 C 0.46131 0.63909 0.91021 0.0
C304 C 0.32235 0.63835 0.88368 0.0
C305 C 0.38839 0.68893 0.99764 0.0
H306 H 0.48479 0.61357 0.80279 0.0
H307 H 0.4504 0.60416 0.71059 0.0
H308 H 0.34753 0.60506 0.68958 0.0
H309 H 0.30709 0.61444 0.76629 0.0
H310 H 0.30159 0.6654 0.99259 0.0
H311 H 0.33673 0.69626 0.04885 0.0
H312 H 0.43747 0.70365 0.05423 0.0
H313 H 0.47695 0.67432 0.01014 0.0
H314 H 0.35074 0.71538 0.74028 0.0
H315 H 0.43595 0.71869 0.75003 0.0
H316 H 0.39206 0.59125 0.08527 0.0
H317 H 0.39152 0.54644 0.91379 0.0
C318 C 0.66149 0.57888 0.06728 0.0
C319 C 0.6771 0.56709 0.02147 0.0
C320 C 0.69309 0.58663 0.99783 0.0
C321 C 0.68634 0.60919 0.03017 0.0
N322 N 0.66705 0.6052 0.07274 0.0
Co323 Co 0.65156 0.63288 0.12873 0.0
N324 N 0.66599 0.66244 0.07658 0.0
C325 C 0.68421 0.65986 0.0308 0.0
C326 C 0.6885 0.68289 0.99808 0.0
C327 C 0.67226 0.70132 0.0253 0.0
C328 C 0.65935 0.68866 0.07445 0.0
N329 N 0.63655 0.66074 0.1849 0.0
C330 C 0.63453 0.68762 0.17749 0.0
C331 C 0.62474 0.69935 0.23157 0.0
C332 C 0.62062 0.67926 0.27396 0.0
C333 C 0.6282 0.65637 0.24389 0.0
N334 N 0.63692 0.60311 0.1795 0.0
C335 C 0.62806 0.60518 0.23863 0.0
C336 C 0.6189 0.58141 0.26195 0.0
C337 C 0.62236 0.56325 0.21451 0.0
C338 C 0.63346 0.57696 0.16472 0.0
N339 N 0.68448 0.63254 0.18147 0.0
C340 C 0.72542 0.63212 0.27394 0.0
C341 C 0.71498 0.65602 0.25053 0.0
C342 C 0.69488 0.6558 0.20439 0.0
C343 C 0.71563 0.60842 0.24772 0.0
C344 C 0.69535 0.60905 0.20187 0.0
N345 N 0.61816 0.63307 0.07891 0.0
C346 C 0.56998 0.63351 0.07736 0.0
C347 C 0.56942 0.63254 0.01189 0.0
C348 C 0.59401 0.63172 0.98054 0.0
C349 C 0.61808 0.63217 0.01477 0.0
C350 C 0.59426 0.63361 0.10964 0.0
H351 H 0.63658 0.63171 0.98933 0.0
H352 H 0.59353 0.63401 0.15993 0.0
H353 H 0.6871 0.67459 0.18899 0.0
H354 H 0.68786 0.59037 0.18448 0.0
C355 C 0.69368 0.6349 0.01338 0.0
C356 C 0.6425 0.56418 0.10623 0.0
C357 C 0.64373 0.70294 0.12231 0.0
C358 C 0.62521 0.6303 0.26656 0.0
H359 H 0.67686 0.54658 1.00625 0.0
H360 H 0.70698 0.58485 0.9594 0.0
H361 H 0.70116 0.68572 0.9577 0.0
H362 H 0.67059 0.72188 0.01109 0.0
H363 H 0.62137 0.72029 0.23994 0.0
H364 H 0.6127 0.68114 0.32085 0.0
H365 H 0.61003 0.57783 0.3073 0.0
H366 H 0.61759 0.5423 0.21646 0.0
H367 H 0.72199 0.67485 0.26867 0.0
H368 H 0.72315 0.58944 0.26375 0.0
H369 H 0.5516 0.63409 0.10368 0.0
H370 H 0.59462 0.63089 0.92992 0.0
C371 C 0.57319 0.39533 0.84998 0.0
C372 C 0.55908 0.4074 0.80207 0.0
C373 C 0.57678 0.41163 0.75408 0.0
C374 C 0.6007 0.40196 0.77524 0.0
N375 N 0.59918 0.39208 0.83358 0.0
Co376 Co 0.62935 0.3763 0.88124 0.0
N377 N 0.65667 0.39154 0.82407 0.0
C378 C 0.6517 0.40065 0.76597 0.0
C379 C 0.6743 0.40831 0.73483 0.0
C380 C 0.69482 0.40347 0.77559 0.0
C381 C 0.68363 0.3932 0.82977 0.0
N382 N 0.65939 0.36113 0.93079 0.0
C383 C 0.68563 0.36766 0.93167 0.0
C384 C 0.6988 0.35409 0.97911 0.0
C385 C 0.68061 0.33766 1.00656 0.0
C386 C 0.65725 0.34244 0.97563 0.0
N387 N 0.60224 0.36022 0.93772 0.0
C388 C 0.60664 0.3404 0.97878 0.0
C389 C 0.58438 0.33304 0.01142 0.0
C390 C 0.56458 0.34914 0.98954 0.0
C391 C 0.57592 0.36544 0.9444 0.0
N392 N 0.62807 0.34399 0.82645 0.0
C393 C 0.62767 0.30356 0.7323 0.0
C394 C 0.65116 0.31096 0.76345 0.0
C395 C 0.65099 0.33134 0.80888 0.0
C396 C 0.60418 0.31629 0.75189 0.0
C397 C 0.6047 0.33567 0.79977 0.0
N398 N 0.63051 0.40903 0.93323 0.0
C399 C 0.63064 0.43191 0.03328 0.0
C400 C 0.63179 0.45686 1.00358 0.0
C401 C 0.63208 0.45715 0.93808 0.0
C402 C 0.63131 0.4333 0.90414 0.0
C403 C 0.63019 0.40829 0.99738 0.0
H404 H 0.63128 0.43468 0.85392 0.0
H405 H 0.62954 0.38948 0.02153 0.0
H406 H 0.66964 0.3374 0.82838 0.0
H407 H 0.5861 0.34446 0.81363 0.0
C408 C 0.62545 0.40462 0.74561 0.0
C409 C 0.56079 0.38483 0.90755 0.0
C410 C 0.69944 0.38369 0.88374 0.0
C411 C 0.63247 0.33284 0.9938 0.0
H412 H 0.53811 0.41214 0.80152 0.0
H413 H 0.57277 0.42116 0.70966 0.0
H414 H 0.67568 0.41688 0.68849 0.0
H415 H 0.71567 0.40686 0.76624 0.0
H416 H 0.71953 0.35547 0.99199 0.0
H417 H 0.68385 0.32449 0.04589 0.0
H418 H 0.58297 0.3186 0.04882 0.0
H419 H 0.54419 0.34898 1.00544 0.0
H420 H 0.66985 0.30167 0.75117 0.0
H421 H 0.58539 0.31136 0.73012 0.0
H422 H 0.63027 0.43068 0.08387 0.0
H423 H 0.63284 0.47586 0.91304 0.0
C424 C 0.86295 0.57876 0.69118 0.0
C425 C 0.84662 0.56903 0.7382 0.0
C426 C 0.83311 0.59033 0.76184 0.0
C427 C 0.8419 0.61182 0.7282 0.0
N428 N 0.86003 0.60548 0.6843 0.0
Co429 Co 0.87814 0.63107 0.62663 0.0
N430 N 0.86592 0.66257 0.67583 0.0
C431 C 0.85041 0.66178 0.72716 0.0
C432 C 0.85165 0.68452 0.76236 0.0
C433 C 0.86834 0.70104 0.73034 0.0
C434 C 0.87514 0.68801 0.67529 0.0
N435 N 0.89598 0.65702 0.56917 0.0
C436 C 0.9008 0.68366 0.57618 0.0
C437 C 0.92044 0.69157 0.5347 0.0
C438 C 0.92483 0.67071 0.49474 0.0
C439 C 0.90909 0.65047 0.51643 0.0
N440 N 0.89079 0.59932 0.57896 0.0
C441 C 0.90185 0.59982 0.52168 0.0
C442 C 0.90934 0.57503 0.5011 0.0
C443 C 0.90262 0.55783 0.54842 0.0
C444 C 0.89147 0.57311 0.59549 0.0
N445 N 0.84571 0.63237 0.57226 0.0
C446 C 0.80504 0.63269 0.47909 0.0
C447 C 0.81298 0.60907 0.5087 0.0
C448 C 0.83311 0.60932 0.55481 0.0
C449 C 0.81726 0.65631 0.49926 0.0
C450 C 0.83728 0.65575 0.54572 0.0
N451 N 0.91112 0.6294 0.67869 0.0
C452 C 0.95927 0.62721 0.68368 0.0
C453 C 0.95912 0.62891 0.74897 0.0
C454 C 0.93421 0.63007 0.7787 0.0
C455 C 0.91058 0.63039 0.74289 0.0
C456 C 0.93538 0.6272 0.64993 0.0
H457 H 0.89197 0.63149 0.76748 0.0
H458 H 0.93694 0.62541 0.6002 0.0
H459 H 0.83902 0.59058 0.57487 0.0
H460 H 0.84643 0.67427 0.55866 0.0
C461 C 0.83855 0.63815 0.74639 0.0
C462 C 0.88077 0.56192 0.6541 0.0
C463 C 0.88575 0.70169 0.61913 0.0
C464 C 0.90985 0.62405 0.49542 0.0
H465 H 0.84509 0.54879 0.75487 0.0
H466 H 0.81985 0.59039 0.80173 0.0
H467 H 0.8423 0.68829 0.8071 0.0
H468 H 0.87369 0.72099 0.74441 0.0
H469 H 0.93092 0.71029 0.53362 0.0
H470 H 0.939 0.66993 0.45671 0.0
H471 H 0.91976 0.57018 0.4583 0.0
H472 H 0.9058 0.53656 0.54869 0.0
H473 H 0.80407 0.59033 0.49525 0.0
H474 H 0.81171 0.67511 0.47836 0.0
H475 H 0.97791 0.62594 0.65854 0.0
H476 H 0.93304 0.63107 0.82925 0.0
C477 C 0.5773 0.12727 0.4051 0.0
C478 C 0.56427 0.10844 0.4412 0.0
C479 C 0.58246 0.0988 0.48304 0.0
C480 C 0.6057 0.11184 0.46972 0.0
N481 N 0.60338 0.12953 0.42243 0.0
Co482 Co 0.6337 0.1482 0.37987 0.0
N483 N 0.66114 0.13167 0.43609 0.0
C484 C 0.65607 0.11653 0.48696 0.0
C485 C 0.67856 0.10886 0.51841 0.0
C486 C 0.69921 0.11959 0.48535 0.0
C487 C 0.68819 0.13294 0.43476 0.0
N488 N 0.66387 0.16547 0.33389 0.0
C489 C 0.69048 0.16064 0.33623 0.0
C490 C 0.70375 0.17347 0.28784 0.0
C491 C 0.68517 0.18738 0.25509 0.0
C492 C 0.66158 0.18189 0.28414 0.0
N493 N 0.60639 0.16598 0.32571 0.0
C494 C 0.6111 0.18505 0.28272 0.0
C495 C 0.58859 0.19569 0.25689 0.0
C496 C 0.56816 0.18233 0.28448 0.0
C497 C 0.57948 0.16387 0.32484 0.0
N498 N 0.63133 0.17904 0.44096 0.0
C499 C 0.62955 0.22158 0.53101 0.0
C500 C 0.63274 0.22646 0.46651 0.0
C501 C 0.63413 0.20516 0.42302 0.0
C502 C 0.62709 0.1949 0.54863 0.0
C503 C 0.62727 0.17447 0.50368 0.0
N504 N 0.63612 0.11709 0.32085 0.0
C505 C 0.63074 0.09637 0.21827 0.0
C506 C 0.63713 0.07117 0.24253 0.0
C507 C 0.64351 0.06976 0.30594 0.0
C508 C 0.64264 0.09241 0.34368 0.0
C509 C 0.63072 0.11902 0.25787 0.0
H510 H 0.64688 0.08909 0.39178 0.0
H511 H 0.62584 0.13786 0.23711 0.0
H512 H 0.63754 0.2103 0.37512 0.0
H513 H 0.624 0.15504 0.52138 0.0
C514 C 0.63029 0.10713 0.4986 0.0
C515 C 0.56406 0.14285 0.35541 0.0
C516 C 0.70424 0.14499 0.38454 0.0
C517 C 0.63688 0.19079 0.26384 0.0
H518 H 0.54378 0.10219 0.43753 0.0
H519 H 0.57927 0.08354 0.51794 0.0
H520 H 0.67986 0.0961 0.55908 0.0
H521 H 0.72006 0.11706 0.49605 0.0
H522 H 0.7247 0.17283 0.27685 0.0
H523 H 0.68837 0.1995 0.21391 0.0
H524 H 0.58721 0.21074 0.22085 0.0
H525 H 0.5473 0.18512 0.27409 0.0
H526 H 0.63455 0.24667 0.44967 0.0
H527 H 0.62451 0.18971 0.59747 0.0
H528 H 0.62542 0.0985 0.16943 0.0
H529 H 0.64843 0.05081 0.32712 0.0
C530 C 0.16384 0.44197 0.69205 0.0
C531 C 0.17961 0.4513 0.7406 0.0
C532 C 0.18803 0.42956 0.773 0.0
C533 C 0.17712 0.40831 0.74227 0.0
N534 N 0.16265 0.4149 0.69148 0.0
Co535 Co 0.14393 0.38923 0.63402 0.0
N536 N 0.15934 0.35743 0.67797 0.0
C537 C 0.17335 0.35804 0.73176 0.0
C538 C 0.17995 0.33351 0.75455 0.0
C539 C 0.16941 0.31596 0.71295 0.0
C540 C 0.1572 0.33086 0.66626 0.0
N541 N 0.12498 0.36342 0.57801 0.0
C542 C 0.12676 0.33637 0.57288 0.0
C543 C 0.11002 0.32697 0.5263 0.0
C544 C 0.09665 0.34852 0.50305 0.0
C545 C 0.1061 0.36993 0.53601 0.0
N546 N 0.12892 0.42141 0.59049 0.0
C547 C 0.10992 0.42081 0.54613 0.0
C548 C 0.10197 0.44562 0.52696 0.0
C549 C 0.1164 0.46316 0.56229 0.0
C550 C 0.13246 0.44808 0.60118 0.0
N551 N 0.17486 0.38976 0.57425 0.0
C552 C 0.21753 0.39052 0.48513 0.0
C553 C 0.19085 0.38927 0.4665 0.0
C554 C 0.1702 0.38945 0.5109 0.0
C555 C 0.22225 0.39133 0.55027 0.0
C556 C 0.20087 0.3905 0.59366 0.0
N557 N 0.11227 0.38847 0.69104 0.0
C558 C 0.07565 0.41181 0.74087 0.0
C559 C 0.063 0.388 0.75647 0.0
C560 C 0.07605 0.36428 0.74054 0.0
C561 C 0.10058 0.36496 0.70858 0.0
C562 C 0.09966 0.41153 0.70761 0.0
H563 H 0.10934 0.34628 0.6962 0.0
H564 H 0.10707 0.43018 0.69283 0.0
H565 H 0.15037 0.38943 0.49286 0.0
H566 H 0.20556 0.39055 0.64283 0.0
C567 C 0.18073 0.38194 0.75886 0.0
C568 C 0.14771 0.45982 0.65356 0.0
C569 C 0.14218 0.31868 0.61456 0.0
C570 C 0.09989 0.39659 0.52433 0.0
H571 H 0.18368 0.47178 0.75283 0.0
H572 H 0.20038 0.42929 0.81447 0.0
H573 H 0.19094 0.32892 0.79674 0.0
H574 H 0.17015 0.29458 0.71773 0.0
H575 H 0.1073 0.30656 0.51164 0.0
H576 H 0.08208 0.3486 0.46579 0.0
H577 H 0.08692 0.4504 0.49256 0.0
H578 H 0.11449 0.48458 0.56162 0.0
H579 H 0.18584 0.38859 0.41722 0.0
H580 H 0.24242 0.39241 0.56768 0.0
H581 H 0.06637 0.43069 0.75179 0.0
H582 H 0.06706 0.34528 0.75146 0.0
C583 C 0.44051 0.89201 0.41613 0.0
C584 C 0.45514 0.90437 0.46277 0.0
C585 C 0.43806 0.90858 0.51199 0.0
C586 C 0.41394 0.89873 0.4927 0.0
N587 N 0.41478 0.88877 0.43434 0.0
Co588 Co 0.38403 0.87346 0.38823 0.0
N589 N 0.35746 0.88936 0.4464 0.0
C590 C 0.36301 0.89862 0.50407 0.0
C591 C 0.3408 0.90707 0.53564 0.0
C592 C 0.31992 0.9026 0.49563 0.0
C593 C 0.33053 0.89175 0.44142 0.0
N594 N 0.35342 0.85832 0.34096 0.0
C595 C 0.32729 0.86521 0.34105 0.0
C596 C 0.31352 0.8514 0.29497 0.0
C597 C 0.33122 0.83445 0.26748 0.0
C598 C 0.35492 0.83918 0.29696 0.0
N599 N 0.41029 0.85708 0.33018 0.0
C600 C 0.40543 0.8369 0.29045 0.0
C601 C 0.42741 0.82899 0.25742 0.0
C602 C 0.44749 0.84513 0.2777 0.0
C603 C 0.43653 0.86209 0.32199 0.0
N604 N 0.38574 0.84124 0.44307 0.0
C605 C 0.38892 0.80038 0.53526 0.0
C606 C 0.41174 0.81004 0.50504 0.0
C607 C 0.40975 0.83031 0.45948 0.0
C608 C 0.36441 0.81105 0.51646 0.0
C609 C 0.36326 0.83118 0.47043 0.0
N610 N 0.38274 0.90614 0.33593 0.0
C611 C 0.38199 0.92889 0.23567 0.0
C612 C 0.38236 0.95392 0.26517 0.0
C613 C 0.38295 0.95431 0.33064 0.0
C614 C 0.3832 0.93049 0.36477 0.0
C615 C 0.38207 0.90531 0.2718 0.0
H616 H 0.38395 0.93194 0.41495 0.0
H617 H 0.38173 0.88642 0.24785 0.0
H618 H 0.42787 0.83764 0.4389 0.0
H619 H 0.34415 0.83919 0.45846 0.0
C620 C 0.38948 0.90201 0.52336 0.0
C621 C 0.45202 0.88161 0.35745 0.0
C622 C 0.31417 0.882 0.38858 0.0
C623 C 0.37942 0.82924 0.27757 0.0
H624 H 0.47602 0.90944 0.46163 0.0
H625 H 0.44253 0.91843 0.55577 0.0
H626 H 0.3399 0.91591 0.58176 0.0
H627 H 0.29922 0.90656 0.50552 0.0
H628 H 0.29271 0.85299 0.28294 0.0
H629 H 0.32746 0.82103 0.22888 0.0
H630 H 0.42849 0.81401 0.22113 0.0
H631 H 0.46789 0.84446 0.26177 0.0
H632 H 0.43112 0.80237 0.51759 0.0
H633 H 0.3462 0.80417 0.53799 0.0
H634 H 0.38161 0.92758 0.1851 0.0
H635 H 0.38333 0.97307 0.35552 0.0
C636 C 0.86141 0.94249 0.57691 0.0
C637 C 0.84535 0.95454 0.53229 0.0
C638 C 0.82828 0.93544 0.51091 0.0
C639 C 0.83492 0.91281 0.54309 0.0
N640 N 0.85523 0.91634 0.58327 0.0
Co641 Co 0.87092 0.88831 0.63784 0.0
N642 N 0.85453 0.85915 0.58774 0.0
C643 C 0.83448 0.86208 0.5466 0.0
C644 C 0.82686 0.83868 0.51902 0.0
C645 C 0.84296 0.81967 0.54467 0.0
C646 C 0.85955 0.83258 0.5868 0.0
N647 N 0.88606 0.86005 0.6926 0.0
C648 C 0.88819 0.83327 0.68369 0.0
C649 C 0.89961 0.82121 0.73547 0.0
C650 C 0.90451 0.84103 0.77824 0.0
C651 C 0.89587 0.8641 0.75043 0.0
N652 N 0.88752 0.91764 0.68671 0.0
C653 C 0.89746 0.91529 0.74486 0.0
C654 C 0.90762 0.93882 0.76723 0.0
C655 C 0.90363 0.95711 0.7203 0.0
C656 C 0.89126 0.94374 0.67167 0.0
N657 N 0.83894 0.88978 0.69365 0.0
C658 C 0.79806 0.89114 0.78659 0.0
C659 C 0.81081 0.91444 0.76589 0.0
C660 C 0.83055 0.91342 0.71893 0.0
C661 C 0.80583 0.86726 0.75755 0.0
C662 C 0.82632 0.86696 0.71235 0.0
N663 N 0.90332 0.88701 0.58476 0.0
C664 C 0.95141 0.88577 0.5788 0.0
C665 C 0.95088 0.88689 0.51339 0.0
C666 C 0.9258 0.88802 0.48425 0.0
C667 C 0.90231 0.88788 0.52067 0.0
C668 C 0.92771 0.88597 0.61323 0.0
H669 H 0.88337 0.88866 0.49706 0.0
H670 H 0.92932 0.88551 0.66339 0.0
H671 H 0.83947 0.93187 0.70433 0.0
H672 H 0.83229 0.84805 0.69357 0.0
C673 C 0.82575 0.88733 0.52921 0.0
C674 C 0.8812 0.95689 0.61447 0.0
C675 C 0.87773 0.81844 0.62926 0.0
C676 C 0.90012 0.89008 0.77261 0.0
H677 H 0.84585 0.97497 0.5166 0.0
H678 H 0.81355 0.93755 0.47433 0.0
H679 H 0.81184 0.83584 0.4834 0.0
H680 H 0.8422 0.79863 0.53431 0.0
H681 H 0.90363 0.80026 0.74186 0.0
H682 H 0.91395 0.83891 0.82348 0.0
H683 H 0.91741 0.94216 0.81164 0.0
H684 H 0.90887 0.97797 0.72191 0.0
H685 H 0.80558 0.93348 0.78606 0.0
H686 H 0.79655 0.84869 0.77093 0.0
H687 H 0.9702 0.88494 0.60344 0.0
H688 H 0.92438 0.88896 0.43373 0.0
C689 C 0.94907 0.12752 0.34407 0.0
C690 C 0.96288 0.11386 0.29817 0.0
C691 C 0.94441 0.10513 0.25584 0.0
C692 C 0.92038 0.11394 0.27804 0.0
N693 N 0.92246 0.12799 0.33166 0.0
Co694 Co 0.89219 0.14332 0.38097 0.0
N695 N 0.86452 0.1255 0.32733 0.0
C696 C 0.86937 0.11006 0.27676 0.0
C697 C 0.84675 0.10126 0.24763 0.0
C698 C 0.82622 0.11146 0.28197 0.0
C699 C 0.83743 0.12587 0.33065 0.0
N700 N 0.86214 0.15887 0.43071 0.0
C701 C 0.83547 0.15454 0.42784 0.0
C702 C 0.82224 0.16771 0.47576 0.0
C703 C 0.84088 0.18157 0.50834 0.0
C704 C 0.86445 0.17578 0.47952 0.0
N705 N 0.91969 0.16037 0.43634 0.0
C706 C 0.91499 0.17705 0.4846 0.0
C707 C 0.93734 0.18471 0.51633 0.0
C708 C 0.95767 0.17176 0.48736 0.0
C709 C 0.94646 0.15697 0.43924 0.0
N710 N 0.89192 0.1756 0.32302 0.0
C711 C 0.89249 0.21985 0.23737 0.0
C712 C 0.89842 0.22304 0.30133 0.0
C713 C 0.8977 0.201 0.34298 0.0
C714 C 0.88603 0.19417 0.21798 0.0
C715 C 0.88617 0.1728 0.26032 0.0
N716 N 0.89246 0.11101 0.43638 0.0
C717 C 0.89064 0.08949 0.53852 0.0
C718 C 0.89161 0.06406 0.51121 0.0
C719 C 0.89351 0.06284 0.4461 0.0
C720 C 0.89413 0.08614 0.41021 0.0
C721 C 0.89089 0.11255 0.50049 0.0
H722 H 0.89597 0.08346 0.361 0.0
H723 H 0.88978 0.13148 0.52352 0.0
H724 H 0.902 0.20506 0.39104 0.0
H725 H 0.88164 0.15419 0.23993 0.0
C726 C 0.89545 0.10606 0.25532 0.0
C727 C 0.96203 0.13935 0.39914 0.0
C728 C 0.82151 0.13943 0.37901 0.0
C729 C 0.88919 0.18362 0.50161 0.0
H730 H 0.98404 0.11013 0.29638 0.0
H731 H 0.94798 0.09273 0.21529 0.0
H732 H 0.84534 0.08926 0.20571 0.0
H733 H 0.80534 0.10866 0.27206 0.0
H734 H 0.80123 0.16744 0.48631 0.0
H735 H 0.83773 0.19378 0.5494 0.0
H736 H 0.9386 0.19746 0.55704 0.0
H737 H 0.97833 0.17265 0.50113 0.0
H738 H 0.90355 0.2425 0.31925 0.0
H739 H 0.88122 0.1904 0.16933 0.0
H740 H 0.88942 0.09153 0.58889 0.0
H741 H 0.89456 0.04377 0.42267 0.0
C742 C 0.15987 0.07658 0.56324 0.0
C743 C 0.17562 0.06463 0.5179 0.0
C744 C 0.19206 0.08395 0.49504 0.0
C745 C 0.18542 0.10657 0.52729 0.0
N746 N 0.16577 0.10282 0.56906 0.0
Co747 Co 0.15024 0.13071 0.62444 0.0
N748 N 0.16555 0.16011 0.57316 0.0
C749 C 0.18405 0.15729 0.52809 0.0
C750 C 0.18884 0.18025 0.49551 0.0
C751 C 0.17265 0.19889 0.52208 0.0
C752 C 0.15926 0.18641 0.57077 0.0
N753 N 0.1352 0.15876 0.68007 0.0
C754 C 0.13369 0.18569 0.6728 0.0
C755 C 0.12372 0.19751 0.72659 0.0
C756 C 0.11892 0.17744 0.76862 0.0
C757 C 0.12632 0.15446 0.73866 0.0
N758 N 0.13469 0.10113 0.67436 0.0
C759 C 0.12537 0.1033 0.73308 0.0
C760 C 0.11575 0.07965 0.75599 0.0
C761 C 0.11939 0.06145 0.70874 0.0
C762 C 0.13105 0.07502 0.65946 0.0
N763 N 0.18266 0.1298 0.6787 0.0
C764 C 0.22252 0.1286 0.77348 0.0
C765 C 0.21285 0.1527 0.74944 0.0
C766 C 0.19325 0.15287 0.70215 0.0
C767 C 0.2126 0.10509 0.7467 0.0
C768 C 0.19287 0.1061 0.69964 0.0
N769 N 0.11735 0.13148 0.573 0.0
C770 C 0.06923 0.1327 0.56894 0.0
C771 C 0.06931 0.13169 0.50346 0.0
C772 C 0.09416 0.13046 0.4734 0.0
C773 C 0.11787 0.13057 0.50888 0.0
C774 C 0.09319 0.13243 0.60249 0.0
H775 H 0.13659 0.1298 0.48442 0.0
H776 H 0.092 0.13285 0.65274 0.0
H777 H 0.18599 0.17181 0.68629 0.0
H778 H 0.18524 0.08757 0.68178 0.0
C779 C 0.19325 0.13219 0.51095 0.0
C780 C 0.14046 0.06208 0.60148 0.0
C781 C 0.14352 0.20092 0.6181 0.0
C782 C 0.12271 0.12843 0.76102 0.0
H783 H 0.17518 0.04416 0.50248 0.0
H784 H 0.20618 0.08203 0.45712 0.0
H785 H 0.2018 0.1829 0.45558 0.0
H786 H 0.17132 0.21947 0.50776 0.0
H787 H 0.12067 0.21849 0.73504 0.0
H788 H 0.1107 0.17939 0.8152 0.0
H789 H 0.1065 0.07618 0.80097 0.0
H790 H 0.11438 0.04055 0.71051 0.0
H791 H 0.22005 0.17139 0.76799 0.0
H792 H 0.21959 0.08597 0.76318 0.0
H793 H 0.05062 0.13356 0.59427 0.0
H794 H 0.09523 0.12955 0.42282 0.0
C795 C 0.07008 0.89007 0.34933 0.0
C796 C 0.05566 0.90113 0.3006 0.0
C797 C 0.07328 0.90537 0.25246 0.0
C798 C 0.09746 0.8967 0.27434 0.0
N799 N 0.09617 0.88743 0.33327 0.0
Co800 Co 0.12672 0.87301 0.38182 0.0
N801 N 0.15366 0.88885 0.32442 0.0
C802 C 0.14851 0.89757 0.26608 0.0
C803 C 0.17089 0.90588 0.23503 0.0
C804 C 0.19149 0.90186 0.27607 0.0
C805 C 0.18056 0.8914 0.33035 0.0
N806 N 0.15709 0.85875 0.43158 0.0
C807 C 0.18316 0.86586 0.4323 0.0
C808 C 0.19662 0.85286 0.48017 0.0
C809 C 0.17882 0.83614 0.50801 0.0
C810 C 0.15537 0.84022 0.47693 0.0
N811 N 0.09998 0.85676 0.43911 0.0
C812 C 0.10481 0.83735 0.48096 0.0
C813 C 0.08275 0.82993 0.51429 0.0
C814 C 0.06263 0.84554 0.49201 0.0
C815 C 0.0736 0.86163 0.44597 0.0
N816 N 0.12628 0.84038 0.32828 0.0
C817 C 0.12571 0.79951 0.23593 0.0
C818 C 0.10212 0.80865 0.26382 0.0
C819 C 0.10282 0.82895 0.30963 0.0
C820 C 0.14958 0.8106 0.25738 0.0
C821 C 0.14943 0.83068 0.30341 0.0
N822 N 0.12709 0.90608 0.43267 0.0
C823 C 0.12824 0.92953 0.53192 0.0
C824 C 0.12862 0.95432 0.50136 0.0
C825 C 0.12781 0.95424 0.43587 0.0
C826 C 0.1269 0.93018 0.40277 0.0
C827 C 0.12764 0.90571 0.49682 0.0
H828 H 0.12614 0.93124 0.35253 0.0
H829 H 0.12772 0.88703 0.52159 0.0
H830 H 0.08422 0.83594 0.32846 0.0
H831 H 0.16811 0.83907 0.31715 0.0
C832 C 0.12218 0.90022 0.24508 0.0
C833 C 0.05802 0.88025 0.40792 0.0
C834 C 0.19663 0.882 0.38405 0.0
C835 C 0.1308 0.83031 0.49579 0.0
H836 H 0.03458 0.90532 0.29975 0.0
H837 H 0.06905 0.91438 0.20755 0.0
H838 H 0.17209 0.91421 0.18841 0.0
H839 H 0.21225 0.90576 0.2667 0.0
H840 H 0.2173 0.85481 0.4931 0.0
H841 H 0.18234 0.82329 0.54781 0.0
H842 H 0.08166 0.81575 0.55232 0.0
H843 H 0.04226 0.84516 0.5081 0.0
H844 H 0.08316 0.80059 0.2492 0.0
H845 H 0.16833 0.80412 0.23776 0.0
H846 H 0.12867 0.92859 0.58254 0.0
H847 H 0.12792 0.9728 0.41019 0.0
C848 C 0.40502 0.99677 0.23098 0.0
C849 C 0.38233 0.97987 0.22901 0.0
C850 C 0.35904 0.01399 0.16615 0.0
C851 C 0.38016 0.03226 0.17636 0.0
N852 N 0.42294 0.04151 0.22146 0.0
N853 N 0.33654 0.97367 0.19945 0.0
C854 C 0.40317 0.02366 0.20915 0.0
C855 C 0.35911 0.98871 0.19714 0.0
N856 N 0.42857 0.98687 0.25258 0.0
N857 N 0.33882 0.0209 0.12674 0.0
H858 H 0.33566 0.95524 0.22165 0.0
H859 H 0.31813 0.9803 0.18368 0.0
H860 H 0.3381 0.03923 0.10402 0.0
H861 H 0.32415 1.0077 0.11217 0.0
H862 H 0.44651 0.99709 0.24966 0.0
H863 H 0.43066 0.96736 0.26831 0.0
H864 H 0.43873 0.03765 0.25158 0.0
H865 H 0.4227 0.06091 0.20433 0.0
C866 C 0.01841 0.65356 0.84838 0.0
C867 C 0.03761 0.63354 0.83586 0.0
C868 C 1.00301 0.60767 0.78106 0.0
C869 C 0.98517 0.62962 0.78458 0.0
N870 N 0.97754 0.67509 0.81596 0.0
N871 N 0.04861 0.59183 0.78735 0.0
C872 C 0.99319 0.6529 0.81747 0.0
C873 C 0.02993 0.61055 0.8018 0.0
N874 N 0.02436 0.67335 0.88982 0.0
N875 N 0.99398 0.58381 0.75916 0.0
H876 H 0.06816 0.59289 0.8034 0.0
H877 H 0.04522 0.57619 0.75645 0.0
H878 H 0.97438 0.58091 0.74486 0.0
H879 H 1.00507 0.56635 0.76076 0.0
H880 H 0.01045 0.68709 0.90581 0.0
H881 H 0.0426 0.67444 0.91283 0.0
H882 H 0.98367 0.69353 0.83276 0.0
H883 H 0.95929 0.67579 0.79302 0.0
C884 C 0.62176 0.9987 0.21348 0.0
C885 C 0.63902 0.99145 0.16334 0.0
C886 C 0.65401 0.03838 0.15896 0.0
C887 C 0.63517 0.04549 0.20577 0.0
N888 N 0.59534 0.03348 0.26104 0.0
N889 N 0.66867 1.00587 0.08167 0.0
C890 C 0.61699 0.02598 0.22683 0.0
C891 C 0.65402 0.01188 0.13352 0.0
N892 N 0.61163 0.97983 0.25256 0.0
N893 N 0.6728 0.0564 0.14115 0.0
H894 H 0.66984 0.98667 0.06342 0.0
H895 H 0.67798 0.02021 0.05419 0.0
H896 H 0.67322 0.07581 0.15822 0.0
H897 H 0.68891 0.05164 0.11273 0.0
H898 H 0.60054 0.98442 0.29231 0.0
H899 H 0.6178 0.9602 0.2516 0.0
H900 H 0.58019 0.02032 0.27308 0.0
H901 H 0.59118 0.05336 0.2711 0.0
C902 C 0.01379 0.39988 0.75417 0.0
C903 C 0.0357 0.38815 0.78617 0.0
C904 C 1.00509 0.37416 0.87032 0.0
C905 C 0.98375 0.38779 0.84071 0.0
N906 N 0.96915 0.41808 0.76076 0.0
N907 N 0.05283 0.36931 0.88181 0.0
C908 C 0.98866 0.4022 0.78481 0.0
C909 C 0.03152 0.37684 0.84643 0.0
N910 N 0.01643 0.40736 0.69298 0.0
N911 N 1.00003 0.35759 0.91954 0.0
H912 H 0.07239 0.37137 0.86656 0.0
H913 H 0.05121 0.36345 0.92842 0.0
H914 H 0.98112 0.3551 0.93847 0.0
H915 H 0.0142 0.34478 0.93834 0.0
H916 H 1.00051 0.41347 0.66535 0.0
H917 H 0.03396 0.40489 0.66769 0.0
H918 H 0.97223 0.43115 0.72365 0.0
H919 H 0.95056 0.42006 0.78189 0.0
C920 C 0.36797 0.50661 0.1085 0.0
C921 C 0.38727 0.48692 0.09396 0.0
C922 C 0.41235 0.52071 0.03437 0.0
C923 C 0.39099 0.53912 0.04053 0.0
N924 N 0.34669 0.54799 0.07823 0.0
N925 N 0.42705 0.4747 0.03888 0.0
C926 C 0.36845 0.53176 0.07694 0.0
C927 C 0.40937 0.49392 0.05614 0.0
N928 N 0.34896 0.50112 0.15219 0.0
N929 N 0.43582 0.52903 0.00896 0.0
H930 H 0.42596 0.45522 0.05549 0.0
H931 H 0.44168 0.4776 1.00511 0.0
H932 H 0.43885 0.54848 0.99371 0.0
H933 H 0.45299 0.51748 0.00857 0.0
H934 H 0.33586 0.51533 0.16962 0.0
H935 H 0.34791 0.48288 0.17528 0.0
H936 H 0.32859 0.54244 0.09784 0.0
H937 H 0.34588 0.56617 0.05494 0.0
C938 C 0.49822 0.61286 0.96369 0.0
C939 C 0.49043 0.63482 0.92619 0.0
C940 C 0.53488 0.65475 0.94126 0.0
C941 C 0.543 0.63244 0.97758 0.0
N942 N 0.53408 0.58767 0.01157 0.0
N943 N 0.50312 0.67364 0.86776 0.0
C944 C 0.52512 0.6107 0.98509 0.0
C945 C 0.50946 0.65468 0.91102 0.0
N946 N 0.4796 0.59447 0.98077 0.0
N947 N 0.55071 0.67679 0.93874 0.0
H948 H 0.48467 0.67432 0.84561 0.0
H949 H 0.51682 0.68711 0.8497 0.0
H950 H 0.56915 0.67792 0.96075 0.0
H951 H 0.54467 0.69479 0.91933 0.0
H952 H 0.48296 0.57979 0.01419 0.0
H953 H 0.46013 0.59486 0.96407 0.0
H954 H 0.52309 0.57015 0.01285 0.0
H955 H 0.55353 0.58538 0.02738 0.0
C956 C 0.65547 0.49018 0.07478 0.0
C957 C 0.6326 0.48283 0.03953 0.0
C958 C 0.61445 0.52806 0.0551 0.0
C959 C 0.63702 0.53517 0.09126 0.0
N960 N 0.67591 0.52122 0.1477 0.0
N961 N 0.5876 0.49287 0.0095 0.0
C962 C 0.6564 0.51551 0.10537 0.0
C963 C 0.61124 0.50124 0.03394 0.0
N964 N 0.67705 0.47371 0.07588 0.0
N965 N 0.59653 0.54724 0.0388 0.0
H966 H 0.58448 0.4734 0.99447 0.0
H967 H 0.57042 0.5044 0.00958 0.0
H968 H 0.59774 0.56673 0.05527 0.0
H969 H 0.58151 0.54427 1.00605 0.0
H970 H 0.69537 0.47918 0.09445 0.0
H971 H 0.67742 0.45527 0.05366 0.0
H972 H 0.68915 0.50709 0.16489 0.0
H973 H 0.67731 0.53962 0.17 0.0
C974 C 0.49769 0.41241 0.98648 0.0
C975 C 0.47972 0.39082 0.97773 0.0
C976 C 0.51252 0.36988 0.90703 0.0
C977 C 0.53175 0.38935 0.92354 0.0
N978 N 0.54318 0.42864 0.98157 0.0
N979 N 0.47153 0.34728 0.93448 0.0
C980 C 0.52436 0.41063 0.96353 0.0
C981 C 0.48741 0.36925 0.93852 0.0
N982 N 0.48904 0.43494 0.01578 0.0
N983 N 0.51846 0.35176 0.86152 0.0
H984 H 0.45335 0.3457 0.95745 0.0
H985 H 0.47734 0.3297 0.91272 0.0
H986 H 0.53672 0.35149 0.8385 0.0
H987 H 0.50458 0.33867 0.84266 0.0
H988 H 0.50006 0.45241 0.01818 0.0
H989 H 0.46978 0.43693 0.03295 0.0
H990 H 0.54018 0.44268 0.01666 0.0
H991 H 0.56247 0.42856 0.96372 0.0
C992 C 0.90873 0.49821 0.731 0.0
C993 C 0.8864 0.48089 0.72707 0.0
C994 C 0.8639 0.5142 0.66027 0.0
C995 C 0.88445 0.5329 0.67229 0.0
N996 N 0.92599 0.54326 0.72226 0.0
N997 N 0.84134 0.47378 0.69263 0.0
C998 C 0.90687 0.52494 0.7081 0.0
C999 C 0.86372 0.48914 0.69224 0.0
N1000 N 0.932 0.48885 0.75544 0.0
N1001 N 0.84444 0.5205 0.61826 0.0
H1002 H 0.84023 0.45554 0.71563 0.0
H1003 H 0.82319 0.48003 0.67446 0.0
H1004 H 0.8439 0.53868 0.59481 0.0
H1005 H 0.83032 0.50695 0.60247 0.0
H1006 H 0.94978 0.4994 0.75422 0.0
H1007 H 0.93414 0.46943 0.7718 0.0
H1008 H 0.94115 0.53983 0.75441 0.0
H1009 H 0.92577 0.5626 0.70461 0.0
C1010 C 0.53237 0.13156 0.2667 0.0
C1011 C 0.53609 0.13695 0.33135 0.0
C1012 C 0.48735 0.13454 0.34369 0.0
C1013 C 0.48366 0.13429 0.27739 0.0
N1014 N 0.50509 0.1419 0.17734 0.0
N1015 N 0.5154 0.14981 0.42873 0.0
C1016 C 0.50688 0.13532 0.23919 0.0
C1017 C 0.51307 0.14025 0.36925 0.0
N1018 N 0.55326 0.12329 0.23098 0.0
N1019 N 0.46688 0.12812 0.38265 0.0
H1020 H 0.53362 0.15514 0.44824 0.0
H1021 H 0.49896 0.15474 0.45605 0.0
H1022 H 0.4485 0.12161 0.36622 0.0
H1023 H 0.46931 0.12615 0.4309 0.0
H1024 H 0.55102 0.11743 0.18444 0.0
H1025 H 0.572 0.1196 0.24991 0.0
H1026 H 0.52178 0.14476 0.14926 0.0
H1027 H 0.48738 0.14801 0.15653 0.0
C1028 C 0.1597 0.53527 0.6775 0.0
C1029 C 0.13963 0.54196 0.72197 0.0
C1030 C 0.12608 0.49512 0.72409 0.0
C1031 C 0.14394 0.48864 0.67464 0.0
N1032 N 0.17516 0.50431 0.59767 0.0
N1033 N 0.0982 0.52909 0.76967 0.0
C1034 C 0.15971 0.5094 0.64878 0.0
C1035 C 0.12091 0.52217 0.73881 0.0
N1036 N 0.17972 0.55283 0.66544 0.0
N1037 N 0.11576 0.47575 0.76144 0.0
H1038 H 0.09339 0.54881 0.77971 0.0
H1039 H 0.08297 0.51556 0.77857 0.0
H1040 H 0.12271 0.45636 0.76063 0.0
H1041 H 0.10391 0.47986 0.80028 0.0
H1042 H 0.19634 0.54802 0.6387 0.0
H1043 H 0.18094 0.57144 0.68659 0.0
H1044 H 0.1851 0.51913 0.57298 0.0
H1045 H 0.17627 0.48554 0.57707 0.0
C1046 C 0.50202 0.8736 0.36642 0.0
C1047 C 0.48036 0.88687 0.33726 0.0
C1048 C 0.51004 0.90008 0.25099 0.0
C1049 C 0.53225 0.88885 0.28281 0.0
N1050 N 0.54984 0.87019 0.37822 0.0
N1051 N 0.46499 0.91715 0.25804 0.0
C1052 C 0.52836 0.87719 0.34281 0.0
C1053 C 0.48489 0.90165 0.28171 0.0
N1054 N 0.49739 0.85649 0.41485 0.0
N1055 N 0.51244 0.90775 0.18988 0.0
H1056 H 0.44635 0.91858 0.27918 0.0
H1057 H 0.46776 0.93045 0.22124 0.0
H1058 H 0.52999 0.90576 0.16445 0.0
H1059 H 0.49634 0.91351 0.16241 0.0
H1060 H 0.51194 0.84399 0.43322 0.0
H1061 H 0.47852 0.85317 0.4333 0.0
H1062 H 0.54832 0.86407 0.42466 0.0
H1063 H 0.56936 0.87301 0.36327 0.0
C1064 C 0.86677 1.00545 0.61299 0.0
C1065 C 0.88655 0.98603 0.60018 0.0
C1066 C 0.91274 0.02054 0.54591 0.0
C1067 C 0.89088 0.03849 0.54886 0.0
N1068 N 0.84562 0.04661 0.58084 0.0
N1069 N 0.92818 0.97482 0.55193 0.0
C1070 C 0.86762 0.03072 0.5821 0.0
C1071 C 0.90963 0.99362 0.56651 0.0
N1072 N 0.84695 0.99957 0.65436 0.0
N1073 N 0.9367 0.02944 0.52446 0.0
H1074 H 0.92698 0.95528 0.56801 0.0
H1075 H 0.94376 0.97818 0.52091 0.0
H1076 H 0.93974 0.04906 0.51036 0.0
H1077 H 0.95407 0.01825 0.52643 0.0
H1078 H 0.83331 0.01356 0.67043 0.0
H1079 H 0.84576 0.98127 0.67715 0.0
H1080 H 0.82717 0.04068 0.59789 0.0
H1081 H 0.84511 0.06492 0.55807 0.0
C1082 C 0.01033 0.15415 0.39999 0.0
C1083 C 0.99106 0.13453 0.41491 0.0
C1084 C 0.02517 0.11014 0.47486 0.0
C1085 C 0.04325 0.13173 0.46783 0.0
N1086 N 0.0517 0.17586 0.42843 0.0
N1087 N 0.97954 0.09441 0.46977 0.0
C1088 C 0.03559 0.15403 0.4309 0.0
C1089 C 0.99842 0.11253 0.45277 0.0
N1090 N 1.00431 0.17308 0.35641 0.0
N1091 N 0.03379 0.08704 0.50165 0.0
H1092 H 0.96012 0.09495 0.45274 0.0
H1093 H 0.98262 0.07981 0.50353 0.0
H1094 H 0.05314 0.0846 0.51795 0.0
H1095 H 0.02265 0.06962 0.5026 0.0
H1096 H 0.01817 0.18646 0.33863 0.0
H1097 H 0.98596 0.17381 0.33376 0.0
H1098 H 0.046 0.19385 0.40845 0.0
H1099 H 0.07006 0.17681 0.45089 0.0
C1100 C 0.15308 0.98798 0.57025 0.0
C1101 C 0.12986 0.9805 0.53643 0.0
C1102 C 0.11197 0.02586 0.55184 0.0
C1103 C 0.13486 0.03306 0.58676 0.0
N1104 N 0.17405 0.0191 0.64208 0.0
N1105 N 0.08456 0.99051 0.50882 0.0
C1106 C 0.15428 0.01337 0.60045 0.0
C1107 C 0.10848 0.99894 0.53159 0.0
N1108 N 0.17472 0.97158 0.57029 0.0
N1109 N 0.09399 0.04502 0.53585 0.0
H1110 H 0.08121 0.97095 0.49467 0.0
H1111 H 0.06743 1.00211 0.50956 0.0
H1112 H 0.09544 0.06459 0.5516 0.0
H1113 H 0.07868 0.04191 0.50393 0.0
H1114 H 0.19319 0.97716 0.5878 0.0
H1115 H 0.17496 0.95314 0.54805 0.0
H1116 H 0.18736 1.00495 0.6589 0.0
H1117 H 0.17558 0.03751 0.66427 0.0
C1118 C 0.9846 0.8648 0.44043 0.0
C1119 C 0.97677 0.88712 0.47706 0.0
C1120 C 0.0214 0.90675 0.46135 0.0
C1121 C 0.02897 0.88469 0.42397 0.0
N1122 N 0.01597 0.84579 0.36619 0.0
N1123 N 0.98584 0.93196 0.51026 0.0
C1124 C 1.00985 0.86482 0.40945 0.0
C1125 C 0.99466 0.90891 0.48365 0.0
N1126 N 0.96867 0.84283 0.43834 0.0
N1127 N 0.0401 0.9252 0.47756 0.0
H1128 H 0.96649 0.93419 0.5266 0.0
H1129 H 0.9968 0.9495 0.51105 0.0
H1130 H 0.05946 0.92483 0.46012 0.0
H1131 H 0.03695 0.93995 0.51091 0.0
H1132 H 0.97453 0.82481 0.41874 0.0
H1133 H 0.9503 0.84182 0.46068 0.0
H1134 H 1.0022 0.83227 0.34868 0.0
H1135 H 0.03431 0.84509 0.34355 0.0
C1136 C 0.40674 0.27455 0.12652 0.0
C1137 C 0.38225 0.28863 0.13151 0.0
C1138 C 0.35873 0.24613 0.11752 0.0
C1139 C 0.38281 0.23145 0.12198 0.0
N1140 N 0.43004 0.23249 0.14013 0.0
N1141 N 0.33517 0.2853 0.15146 0.0
C1142 C 0.40697 0.24593 0.129 0.0
C1143 C 0.35835 0.27361 0.13311 0.0
N1144 N 0.42976 0.2884 0.11802 0.0
N1145 N 0.33601 0.23395 0.0979 0.0
H1146 H 0.3342 0.305 0.1661 0.0
H1147 H 0.31771 0.2746 0.15865 0.0
H1148 H 0.33555 0.21411 0.08436 0.0
H1149 H 0.3185 0.24433 0.08883 0.0
H1150 H 0.44784 0.27929 0.10788 0.0
H1151 H 0.43032 0.30912 0.1161 0.0
H1152 H 0.44776 0.24193 0.15202 0.0
H1153 H 0.43094 0.2118 0.14231 0.0
C1154 C 0.24884 0.61441 0.87934 0.0
C1155 C 0.23496 0.63892 0.886 0.0
C1156 C 0.27762 0.66244 0.87889 0.0
C1157 C 0.29199 0.63809 0.88078 0.0
N1158 N 0.29046 0.59047 0.89311 0.0
N1159 N 0.23805 0.68549 0.91212 0.0
C1160 C 0.27733 0.61389 0.88391 0.0
C1161 C 0.24997 0.66266 0.89212 0.0
N1162 N 0.23493 0.59169 0.86722 0.0
N1163 N 0.29014 0.68552 0.8631 0.0
H1164 H 0.21809 0.68632 0.9246 0.0
H1165 H 0.24868 0.70271 0.92264 0.0
H1166 H 0.31012 0.68625 0.85114 0.0
H1167 H 0.27997 0.7033 0.85559 0.0
H1168 H 0.24401 0.57375 0.85563 0.0
H1169 H 0.21426 0.59134 0.86387 0.0
H1170 H 0.28078 0.57258 0.90206 0.0
H1171 H 0.31108 0.58936 0.89692 0.0
C1172 C 0.6646 0.7764 0.10518 0.0
C1173 C 0.64019 0.79028 0.1117 0.0
C1174 C 0.61743 0.74675 0.11877 0.0
C1175 C 0.64227 0.73329 0.12105 0.0
N1176 N 0.68967 0.73754 0.13567 0.0
N1177 N 0.59372 0.78775 0.13963 0.0
C1178 C 0.66592 0.74881 0.12006 0.0
C1179 C 0.61663 0.7752 0.12261 0.0
N1180 N 0.68669 0.78957 0.08494 0.0
N1181 N 0.59455 0.73251 0.1118 0.0
H1182 H 0.59236 0.80829 0.14475 0.0
H1183 H 0.57681 0.77756 0.15424 0.0
H1184 H 0.59433 0.71182 0.10851 0.0
H1185 H 0.57617 0.74141 0.10373 0.0
H1186 H 0.70445 0.77988 0.07446 0.0
H1187 H 0.6864 0.80966 0.0727 0.0
H1188 H 0.70706 0.74855 0.14099 0.0
H1189 H 0.69135 0.71779 0.14976 0.0
C1190 C 0.74452 0.3605 0.88054 0.0
C1191 C 0.72977 0.38456 0.88274 0.0
C1192 C 0.77253 0.40893 0.88524 0.0
C1193 C 0.78671 0.38457 0.89189 0.0
N1194 N 0.78387 0.33777 0.91603 0.0
N1195 N 0.73033 0.4321 0.89674 0.0
C1196 C 0.77193 0.36059 0.89609 0.0
C1197 C 0.74398 0.40896 0.88784 0.0
N1198 N 0.73262 0.33746 0.86203 0.0
N1199 N 0.7862 0.43192 0.87478 0.0
H1200 H 0.70964 0.43284 0.89879 0.0
H1201 H 0.73957 0.4501 0.90702 0.0
H1202 H 0.80689 0.43261 0.87276 0.0
H1203 H 0.77697 0.4498 0.86328 0.0
H1204 H 0.74315 0.31989 0.85465 0.0
H1205 H 0.71295 0.33675 0.84735 0.0
H1206 H 0.77333 0.32032 0.92483 0.0
H1207 H 0.80361 0.33719 0.93026 0.0
C1208 C 0.85813 0.74455 0.64019 0.0
C1209 C 0.8793 0.73175 0.60796 0.0
C1210 C 0.89579 0.77615 0.57885 0.0
C1211 C 0.87927 0.78828 0.62471 0.0
N1212 N 0.84303 0.78312 0.69785 0.0
N1213 N 0.89499 0.74055 0.50422 0.0
C1214 C 0.85987 0.7722 0.65495 0.0
C1215 C 0.89265 0.74853 0.5648 0.0
N1216 N 0.83487 0.73116 0.64894 0.0
N1217 N 0.91383 0.791 0.54662 0.0
H1218 H 0.88595 0.72308 0.48862 0.0
H1219 H 0.90204 0.75299 0.46886 0.0
H1220 H 0.91646 0.8113 0.55458 0.0
H1221 H 0.92726 0.78241 0.51538 0.0
H1222 H 0.81774 0.74007 0.66651 0.0
H1223 H 0.83208 0.71199 0.63138 0.0
H1224 H 0.83034 0.77168 0.72543 0.0
H1225 H 0.84329 0.80323 0.70933 0.0
C1226 C 0.77584 0.11658 0.3839 0.0
C1227 C 0.79126 0.14009 0.3766 0.0
C1228 C 0.75024 0.16635 0.38642 0.0
C1229 C 0.73445 0.14295 0.38424 0.0
N1230 N 0.73307 0.09553 0.36699 0.0
N1231 N 0.7913 0.18705 0.35354 0.0
C1232 C 0.74751 0.11794 0.37881 0.0
C1233 C 0.77783 0.16487 0.37214 0.0
N1234 N 0.78802 0.09307 0.39789 0.0
N1235 N 0.7391 0.18999 0.4036 0.0
H1236 H 0.81129 0.18658 0.3407 0.0
H1237 H 0.78189 0.20513 0.34477 0.0
H1238 H 0.71921 0.1917 0.41678 0.0
H1239 H 0.75027 0.20716 0.4109 0.0
H1240 H 0.77751 0.07592 0.40952 0.0
H1241 H 0.80853 0.09139 0.40351 0.0
H1242 H 0.74183 0.07726 0.35694 0.0
H1243 H 0.71249 0.09579 0.36139 0.0
C1244 C 0.1655 0.27414 0.60223 0.0
C1245 C 0.14134 0.28839 0.60944 0.0
C1246 C 0.11792 0.24518 0.615 0.0
C1247 C 0.14254 0.2313 0.61707 0.0
N1248 N 0.18998 0.23484 0.63221 0.0
N1249 N 0.09487 0.28641 0.63757 0.0
C1250 C 0.16641 0.24648 0.61652 0.0
C1251 C 0.11756 0.27361 0.61988 0.0
N1252 N 0.18778 0.28705 0.58219 0.0
N1253 N 0.09482 0.23135 0.60737 0.0
H1254 H 0.09387 0.30691 0.64369 0.0
H1255 H 0.07781 0.27636 0.6518 0.0
H1256 H 0.09429 0.2107 0.60319 0.0
H1257 H 0.0766 0.24061 0.59959 0.0
H1258 H 0.20537 0.27712 0.5714 0.0
H1259 H 0.18778 0.30719 0.57043 0.0
H1260 H 0.20751 0.2456 0.63777 0.0
H1261 H 0.19135 0.21505 0.64619 0.0
C1262 C 0.24173 0.85883 0.38064 0.0
C1263 C 0.22696 0.8829 0.38244 0.0
C1264 C 0.26968 0.90733 0.38426 0.0
C1265 C 0.28389 0.88301 0.3911 0.0
N1266 N 0.28125 0.83626 0.41579 0.0
N1267 N 0.22748 0.93048 0.39578 0.0
C1268 C 0.26918 0.85901 0.39579 0.0
C1269 C 0.24114 0.90734 0.38705 0.0
N1270 N 0.22978 0.83567 0.36311 0.0
N1271 N 0.28332 0.93032 0.37348 0.0
H1272 H 0.2068 0.93121 0.39803 0.0
H1273 H 0.23672 0.94852 0.40573 0.0
H1274 H 0.30401 0.93103 0.37147 0.0
H1275 H 0.27407 0.94816 0.3618 0.0
H1276 H 0.24032 0.81809 0.35582 0.0
H1277 H 0.20999 0.83475 0.34943 0.0
H1278 H 0.27079 0.81882 0.42509 0.0
H1279 H 0.30108 0.83571 0.42944 0.0
C1280 C 0.2335 0.12504 0.8902 0.0
C1281 C 0.2424 0.12808 0.82726 0.0
C1282 C 0.28885 0.12933 0.86625 0.0
C1283 C 0.27982 0.12829 0.92944 0.0
N1284 N 0.24321 0.12838 1.00175 0.0
N1285 N 0.27851 0.13596 0.75589 0.0
C1286 C 0.25202 0.1269 0.94133 0.0
C1287 C 0.2701 0.13104 0.81559 0.0
N1288 N 0.20722 0.12004 0.90116 0.0
N1289 N 0.31549 0.12774 0.85447 0.0
H1290 H 0.26566 0.13621 0.71757 0.0
H1291 H 0.29783 0.14151 0.74462 0.0
H1292 H 0.32971 0.12662 0.8899 0.0
H1293 H 0.3235 0.12541 0.80991 0.0
H1294 H 0.1997 0.11451 0.94461 0.0
H1295 H 0.19299 0.11967 0.86568 0.0
H1296 H 0.22333 0.13054 0.01402 0.0
H1297 H 0.25604 0.1294 0.04001 0.0
C1298 C 0.12109 0.7869 0.12044 0.0
C1299 C 0.12558 0.77896 0.18362 0.0
C1300 C 0.12993 0.73228 0.14745 0.0
C1301 C 0.1274 0.74049 0.08389 0.0
N1302 N 0.12354 0.77609 0.00932 0.0
N1303 N 0.13689 0.74437 0.25669 0.0
C1304 C 0.12366 0.76795 0.07037 0.0
C1305 C 0.13074 0.75169 0.19681 0.0
N1306 N 0.11405 0.81263 0.10827 0.0
N1307 N 0.13073 0.70572 0.16083 0.0
H1308 H 0.13647 0.75762 0.29423 0.0
H1309 H 0.14402 0.72565 0.26882 0.0
H1310 H 0.13049 0.69106 0.1263 0.0
H1311 H 0.1296 0.69802 0.20595 0.0
H1312 H 0.10746 0.81925 0.06482 0.0
H1313 H 0.11308 0.82722 0.14288 0.0
H1314 H 0.12396 0.79593 0.99557 0.0
H1315 H 0.12493 0.76289 0.97181 0.0
C1316 C 0.75767 0.87345 0.93621 0.0
C1317 C 0.73685 0.89268 0.93543 0.0
C1318 C 0.75435 0.90872 0.83365 0.0
C1319 C 0.77695 0.89175 0.83824 0.0
N1320 N 0.80272 0.86272 0.90478 0.0
N1321 N 0.72042 0.93334 0.88955 0.0
C1322 C 0.77934 0.87548 0.89272 0.0
C1323 C 0.73673 0.9117 0.88591 0.0
N1324 N 0.75633 0.8524 0.97641 0.0
N1325 N 0.74879 0.92116 0.77837 0.0
H1326 H 0.70828 0.93707 0.92811 0.0
H1327 H 0.72128 0.94904 0.85778 0.0
H1328 H 0.76014 0.91846 0.73806 0.0
H1329 H 0.73126 0.93168 0.77073 0.0
H1330 H 0.76956 0.83648 0.97462 0.0
H1331 H 0.74047 0.8494 0.00692 0.0
H1332 H 0.80639 0.85269 0.94659 0.0
H1333 H 0.81944 0.86465 0.87636 0.0
C1334 C 0.87645 0.26511 0.19492 0.0
C1335 C 0.89337 0.2425 0.18971 0.0
C1336 C 0.9065 0.25832 0.08419 0.0
C1337 C 0.89177 0.28229 0.09205 0.0
N1338 N 0.86791 0.31072 0.16363 0.0
N1339 N 0.92971 0.22184 0.1345 0.0
C1340 C 0.87824 0.2863 0.15 0.0
C1341 C 0.90995 0.24044 0.13583 0.0
N1342 N 0.85771 0.26598 0.24105 0.0
N1343 N 0.91621 0.25179 0.02652 0.0
H1344 H 0.93358 0.20914 0.17199 0.0
H1345 H 0.94401 0.22107 0.0993 0.0
H1346 H 0.91314 0.26349 0.98691 0.0
H1347 H 0.92476 0.23339 0.01667 0.0
H1348 H 0.84301 0.28054 0.24307 0.0
H1349 H 0.85519 0.2508 0.27371 0.0
H1350 H 0.86016 0.31556 0.2074 0.0
H1351 H 0.86967 0.32698 0.13366 0.0
C1352 C 0.23914 0.41043 0.38663 0.0
C1353 C 0.23977 0.39135 0.43604 0.0
C1354 C 0.28233 0.37489 0.39184 0.0
C1355 C 0.2794 0.39113 0.33743 0.0
N1356 N 0.25035 0.42007 0.27866 0.0
N1357 N 0.2601 0.35128 0.4759 0.0
C1358 C 0.25649 0.40773 0.33371 0.0
C1359 C 0.2609 0.37244 0.43595 0.0
N1360 N 0.22263 0.43189 0.39097 0.0
N1361 N 0.30599 0.36255 0.40329 0.0
H1362 H 0.24441 0.34794 0.50673 0.0
H1363 H 0.27357 0.33558 0.47354 0.0
H1364 H 0.32256 0.36486 0.37454 0.0
H1365 H 0.31002 0.35256 0.44496 0.0
H1366 H 0.22311 0.44761 0.35922 0.0
H1367 H 0.21074 0.43547 0.43003 0.0
H1368 H 0.2326 0.43032 0.27171 0.0
H1369 H 0.26144 0.41752 0.2379 0.0
C1370 C 0.39648 0.78745 0.64978 0.0
C1371 C 0.39069 0.77966 0.58707 0.0
C1372 C 0.38942 0.73264 0.62219 0.0
C1373 C 0.39324 0.74061 0.68557 0.0
N1374 N 0.39733 0.77599 0.76066 0.0
N1375 N 0.37899 0.74496 0.51462 0.0
C1376 C 0.39605 0.76815 0.69947 0.0
C1377 C 0.38641 0.75225 0.57373 0.0
N1378 N 0.40272 0.81339 0.66181 0.0
N1379 N 0.38953 0.70614 0.60797 0.0
H1380 H 0.37773 0.75843 0.47761 0.0
H1381 H 0.37243 0.72599 0.5029 0.0
H1382 H 0.39148 0.69133 0.64185 0.0
H1383 H 0.38979 0.69874 0.56249 0.0
H1384 H 0.41018 0.82005 0.70444 0.0
H1385 H 0.4021 0.8282 0.62767 0.0
H1386 H 0.39632 0.79572 0.77507 0.0
H1387 H 0.39752 0.76257 0.79785 0.0
C1388 C 0.73796 0.62764 0.38976 0.0
C1389 C 0.74594 0.632 0.32653 0.0
C1390 C 0.79273 0.63517 0.36282 0.0
C1391 C 0.78455 0.63258 0.42641 0.0
N1392 N 0.74886 0.62978 0.50088 0.0
N1393 N 0.78075 0.64287 0.25375 0.0
C1394 C 0.75699 0.62964 0.43985 0.0
C1395 C 0.7733 0.63666 0.3135 0.0
N1396 N 0.71209 0.62126 0.40199 0.0
N1397 N 0.81926 0.6352 0.34923 0.0
H1398 H 0.7675 0.64287 0.21621 0.0
H1399 H 0.79959 0.64969 0.24184 0.0
H1400 H 0.83395 0.63435 0.38361 0.0
H1401 H 0.82684 0.634 0.30401 0.0
H1402 H 0.70538 0.61468 0.44536 0.0
H1403 H 0.69742 0.62088 0.36752 0.0
H1404 H 0.72905 0.63072 0.5146 0.0
H1405 H 0.76207 0.631 0.53839 0.0
C1406 C 0.64866 0.26346 0.58477 0.0
C1407 C 0.62845 0.24369 0.58026 0.0
C1408 C 0.60977 0.2611 0.6795 0.0
C1409 C 0.62777 0.28297 0.67943 0.0
N1410 N 0.65964 0.30807 0.61886 0.0
N1411 N 0.58514 0.2297 0.61615 0.0
C1412 C 0.64585 0.28506 0.62817 0.0
C1413 C 0.60762 0.24433 0.62552 0.0
N1414 N 0.67131 0.26117 0.55006 0.0
N1415 N 0.59551 0.2553 0.73209 0.0
H1416 H 0.58194 0.21855 0.57568 0.0
H1417 H 0.56851 0.23123 0.64497 0.0
H1418 H 0.5977 0.26574 0.77392 0.0
H1419 H 0.58393 0.23822 0.73617 0.0
H1420 H 0.68758 0.27372 0.55603 0.0
H1421 H 0.67506 0.24506 0.52071 0.0
H1422 H 0.67125 0.31139 0.57922 0.0
H1423 H 0.65701 0.32492 0.6466 0.0
loop_
_geom_bond_atom_site_label_1
_geom_bond_atom_site_label_2
_geom_bond_distance
_geom_bond_site_symmetry_2
_ccdc_geom_bond_type
C0 C1 1.443 . S
C0 N4 1.376 . S
C0 C38 1.389 . S
C1 C0 1.443 . S
C1 C2 1.340 . S
C1 H41 0.951 . S
C2 C1 1.340 . S
C2 C3 1.439 . S
C2 H42 0.950 . S
C3 C2 1.439 . S
C3 N4 1.374 . S
C3 C37 1.395 . S
N4 C0 1.376 . S
N4 C3 1.374 . S
N4 Co5 2.008 . S
Co5 N4 2.008 . S
Co5 N6 1.995 . S
Co5 N11 2.008 . S
Co5 N16 1.995 . S
Co5 N21 2.282 . S
Co5 N27 2.282 . S
N6 Co5 1.995 . S
N6 C7 1.376 . S
N6 C10 1.383 . S
C7 N6 1.376 . S
C7 C8 1.446 . S
C7 C37 1.391 . S
C8 C7 1.446 . S
C8 C9 1.339 . S
C8 H43 0.949 . S
C9 C8 1.339 . S
C9 C10 1.439 . S
C9 H44 0.950 . S
C10 N6 1.383 . S
C10 C9 1.439 . S
C10 C39 1.392 . S
N11 Co5 2.008 . S
N11 C12 1.376 . S
N11 C15 1.374 . S
C12 N11 1.376 . S
C12 C13 1.443 . S
C12 C39 1.389 . S
C13 C12 1.443 . S
C13 C14 1.340 1_554 S
C13 H45 0.951 1_554 S
C14 C13 1.340 1_556 S
C14 C15 1.439 1_556 S
C14 H46 0.950 . S
C15 N11 1.374 . S
C15 C14 1.439 1_554 S
C15 C40 1.395 . S
N16 Co5 1.995 . S
N16 C17 1.376 . S
N16 C20 1.383 . S
C17 N16 1.376 . S
C17 C18 1.446 . S
C17 C40 1.391 . S
C18 C17 1.446 . S
C18 C19 1.339 . S
C18 H47 0.949 1_554 S
C19 C18 1.339 . S
C19 C20 1.439 . S
C19 H48 0.950 . S
C20 N16 1.383 . S
C20 C19 1.439 . S
C20 C38 1.392 . S
N21 Co5 2.282 . S
N21 C24 1.332 . S
N21 C26 1.332 . S
C22 C23 1.386 1_554 S
C22 C25 1.388 . S
C23 C22 1.386 1_556 S
C23 C24 1.382 1_556 S
C23 H49 0.950 . S
C24 N21 1.332 . S
C24 C23 1.382 1_554 S
C24 H35 0.952 . S
C25 C22 1.388 . S
C25 C26 1.382 . S
C25 H50 0.950 . S
C26 N21 1.332 . S
C26 C25 1.382 . S
C26 H36 0.948 . S
N27 Co5 2.282 . S
N27 C31 1.332 . S
N27 C32 1.332 . S
C28 C29 1.388 . S
C28 C32 1.382 . S
C28 H51 0.950 . S
C29 C28 1.388 . S
C29 C30 1.386 . S
C30 C29 1.386 . S
C30 C31 1.382 . S
C30 H52 0.950 . S
C31 N27 1.332 . S
C31 C30 1.382 . S
C31 H33 0.952 . S
C32 N27 1.332 . S
C32 C28 1.382 . S
C32 H34 0.948 . S
H33 C31 0.952 . S
H34 C32 0.948 . S
H35 C24 0.952 . S
H36 C26 0.948 . S
C37 C3 1.395 . S
C37 C7 1.391 . S
C38 C0 1.389 . S
C38 C20 1.392 . S
C39 C10 1.392 . S
C39 C12 1.389 . S
C40 C15 1.395 . S
C40 C17 1.391 . S
H41 C1 0.951 . S
H42 C2 0.950 . S
H43 C8 0.949 . S
H44 C9 0.950 . S
H45 C13 0.951 1_556 S
H46 C14 0.950 . S
H47 C18 0.949 1_556 S
H48 C19 0.950 . S
H49 C23 0.950 . S
H50 C25 0.950 . S
H51 C28 0.950 . S
H52 C30 0.950 . S
C53 C54 1.443 . S
C53 N57 1.376 . S
C53 C91 1.389 . S
C54 C53 1.443 . S
C54 C55 1.340 . S
C54 H94 0.951 . S
C55 C54 1.340 . S
C55 C56 1.439 . S
C55 H95 0.950 . S
C56 C55 1.439 . S
C56 N57 1.374 . S
C56 C90 1.395 . S
N57 C53 1.376 . S
N57 C56 1.374 . S
N57 Co58 2.008 . S
Co58 N57 2.008 . S
Co58 N59 1.995 . S
Co58 N64 2.008 . S
Co58 N69 1.995 . S
Co58 N74 2.282 . S
Co58 N80 2.282 . S
N59 Co58 1.995 . S
N59 C60 1.376 . S
N59 C63 1.383 . S
C60 N59 1.376 . S
C60 C61 1.446 1_556 S
C60 C90 1.391 . S
C61 C60 1.446 1_554 S
C61 C62 1.339 1_554 S
C61 H96 0.949 . S
C62 C61 1.339 1_556 S
C62 C63 1.439 . S
C62 H97 0.948 1_556 S
C63 N59 1.383 . S
C63 C62 1.439 . S
C63 C92 1.392 . S
N64 Co58 2.008 . S
N64 C65 1.376 . S
N64 C68 1.374 . S
C65 N64 1.376 . S
C65 C66 1.443 . S
C65 C92 1.389 . S
C66 C65 1.443 . S
C66 C67 1.340 . S
C66 H98 0.951 . S
C67 C66 1.340 . S
C67 C68 1.439 . S
C67 H99 0.950 . S
C68 N64 1.374 . S
C68 C67 1.439 . S
C68 C93 1.395 . S
N69 Co58 1.995 . S
N69 C70 1.376 . S
N69 C73 1.383 . S
C70 N69 1.376 . S
C70 C71 1.446 . S
C70 C93 1.391 . S
C71 C70 1.446 . S
C71 C72 1.339 . S
C71 H100 0.949 . S
C72 C71 1.339 . S
C72 C73 1.439 . S
C72 H101 0.950 . S
C73 N69 1.383 . S
C73 C72 1.439 . S
C73 C91 1.392 . S
N74 Co58 2.282 . S
N74 C77 1.332 . S
N74 C79 1.332 . S
C75 C76 1.386 . S
C75 C78 1.388 1_556 S
C76 C75 1.386 . S
C76 C77 1.382 . S
C76 H102 0.950 . S
C77 N74 1.332 . S
C77 C76 1.382 . S
C77 H88 0.952 . S
C78 C75 1.388 1_554 S
C78 C79 1.382 1_554 S
C78 H103 0.950 . S
C79 N74 1.332 . S
C79 C78 1.382 1_556 S
C79 H89 0.948 . S
N80 Co58 2.282 . S
N80 C84 1.332 . S
N80 C85 1.332 . S
C81 C82 1.388 . S
C81 C85 1.382 . S
C81 H104 0.950 . S
C82 C81 1.388 . S
C82 C83 1.386 . S
C83 C82 1.386 . S
C83 C84 1.382 . S
C83 H105 0.950 . S
C84 N80 1.332 . S
C84 C83 1.382 . S
C84 H86 0.952 . S
C85 N80 1.332 . S
C85 C81 1.382 . S
C85 H87 0.948 . S
H86 C84 0.952 . S
H87 C85 0.948 . S
H88 C77 0.952 . S
H89 C79 0.948 . S
C90 C56 1.395 . S
C90 C60 1.391 . S
C91 C53 1.389 . S
C91 C73 1.392 . S
C92 C63 1.392 . S
C92 C65 1.389 . S
C93 C68 1.395 . S
C93 C70 1.391 . S
H94 C54 0.951 . S
H95 C55 0.950 . S
H96 C61 0.949 . S
H97 C62 0.948 1_554 S
H98 C66 0.951 . S
H99 C67 0.950 . S
H100 C71 0.949 . S
H101 C72 0.950 . S
H102 C76 0.950 . S
H103 C78 0.950 . S
H104 C81 0.950 . S
H105 C83 0.950 . S
C106 C107 1.443 . S
C106 N110 1.376 . S
C106 C144 1.389 . S
C107 C106 1.443 . S
C107 C108 1.340 . S
C107 H147 0.951 . S
C108 C107 1.340 . S
C108 C109 1.439 . S
C108 H148 0.950 . S
C109 C108 1.439 . S
C109 N110 1.374 . S
C109 C143 1.395 . S
N110 C106 1.376 . S
N110 C109 1.374 . S
N110 Co111 2.008 . S
Co111 N110 2.008 . S
Co111 N112 1.995 . S
Co111 N117 2.008 . S
Co111 N122 1.995 . S
Co111 N127 2.282 . S
Co111 N133 2.282 . S
N112 Co111 1.995 . S
N112 C113 1.376 . S
N112 C116 1.383 . S
C113 N112 1.376 . S
C113 C114 1.446 . S
C113 C143 1.391 . S
C114 C113 1.446 . S
C114 C115 1.339 . S
C114 H149 0.949 . S
C115 C114 1.339 . S
C115 C116 1.439 . S
C115 H150 0.950 . S
C116 N112 1.383 . S
C116 C115 1.439 . S
C116 C145 1.392 . S
N117 Co111 2.008 . S
N117 C118 1.376 . S
N117 C121 1.374 . S
C118 N117 1.376 . S
C118 C119 1.443 . S
C118 C145 1.389 . S
C119 C118 1.443 . S
C119 C120 1.340 1_554 S
C119 H151 0.951 1_554 S
C120 C119 1.340 1_556 S
C120 C121 1.439 1_556 S
C120 H152 0.950 . S
C121 N117 1.374 . S
C121 C120 1.439 1_554 S
C121 C146 1.395 . S
N122 Co111 1.995 . S
N122 C123 1.376 . S
N122 C126 1.383 . S
C123 N122 1.376 . S
C123 C124 1.446 . S
C123 C146 1.391 . S
C124 C123 1.446 . S
C124 C125 1.339 . S
C124 H153 0.949 1_554 S
C125 C124 1.339 . S
C125 C126 1.439 . S
C125 H154 0.950 . S
C126 N122 1.383 . S
C126 C125 1.439 . S
C126 C144 1.392 . S
N127 Co111 2.282 . S
N127 C130 1.332 . S
N127 C132 1.332 . S
C128 C129 1.386 1_554 S
C128 C131 1.388 . S
C129 C128 1.386 1_556 S
C129 C130 1.382 1_556 S
C129 H155 0.950 . S
C130 N127 1.332 . S
C130 C129 1.382 1_554 S
C130 H141 0.952 . S
C131 C128 1.388 . S
C131 C132 1.382 . S
C131 H156 0.950 . S
C132 N127 1.332 . S
C132 C131 1.382 . S
C132 H142 0.948 . S
N133 Co111 2.282 . S
N133 C137 1.332 . S
N133 C138 1.332 . S
C134 C135 1.388 . S
C134 C138 1.382 . S
C134 H157 0.950 . S
C135 C134 1.388 . S
C135 C136 1.386 . S
C136 C135 1.386 . S
C136 C137 1.382 . S
C136 H158 0.950 . S
C137 N133 1.332 . S
C137 C136 1.382 . S
C137 H139 0.952 . S
C138 N133 1.332 . S
C138 C134 1.382 . S
C138 H140 0.948 . S
H139 C137 0.952 . S
H140 C138 0.948 . S
H141 C130 0.952 . S
H142 C132 0.948 . S
C143 C109 1.395 . S
C143 C113 1.391 . S
C144 C106 1.389 . S
C144 C126 1.392 . S
C145 C116 1.392 . S
C145 C118 1.389 . S
C146 C121 1.395 . S
C146 C123 1.391 . S
H147 C107 0.951 . S
H148 C108 0.950 . S
H149 C114 0.949 . S
H150 C115 0.950 . S
H151 C119 0.951 1_556 S
H152 C120 0.950 . S
H153 C124 0.949 1_556 S
H154 C125 0.950 . S
H155 C129 0.950 . S
H156 C131 0.950 . S
H157 C134 0.950 . S
H158 C136 0.950 . S
C159 C160 1.443 . S
C159 N163 1.376 . S
C159 C197 1.389 . S
C160 C159 1.443 . S
C160 C161 1.340 . S
C160 H200 0.951 . S
C161 C160 1.340 . S
C161 C162 1.439 . S
C161 H201 0.950 . S
C162 C161 1.439 . S
C162 N163 1.374 . S
C162 C196 1.395 . S
N163 C159 1.376 . S
N163 C162 1.374 . S
N163 Co164 2.008 . S
Co164 N163 2.008 . S
Co164 N165 1.995 . S
Co164 N170 2.008 . S
Co164 N175 1.995 . S
Co164 N180 2.282 . S
Co164 N186 2.282 . S
N165 Co164 1.995 . S
N165 C166 1.376 . S
N165 C169 1.383 . S
C166 N165 1.376 . S
C166 C167 1.446 1_556 S
C166 C196 1.391 . S
C167 C166 1.446 1_554 S
C167 C168 1.339 1_554 S
C167 H202 0.949 . S
C168 C167 1.339 1_556 S
C168 C169 1.439 . S
C168 H203 0.948 1_556 S
C169 N165 1.383 . S
C169 C168 1.439 . S
C169 C198 1.392 . S
N170 Co164 2.008 . S
N170 C171 1.376 . S
N170 C174 1.374 . S
C171 N170 1.376 . S
C171 C172 1.443 . S
C171 C198 1.389 . S
C172 C171 1.443 . S
C172 C173 1.340 . S
C172 H204 0.951 . S
C173 C172 1.340 . S
C173 C174 1.439 . S
C173 H205 0.950 . S
C174 N170 1.374 . S
C174 C173 1.439 . S
C174 C199 1.395 . S
N175 Co164 1.995 . S
N175 C176 1.376 . S
N175 C179 1.383 . S
C176 N175 1.376 . S
C176 C177 1.446 . S
C176 C199 1.391 . S
C177 C176 1.446 . S
C177 C178 1.339 . S
C177 H206 0.949 . S
C178 C177 1.339 . S
C178 C179 1.439 . S
C178 H207 0.950 . S
C179 N175 1.383 . S
C179 C178 1.439 . S
C179 C197 1.392 . S
N180 Co164 2.282 . S
N180 C183 1.332 . S
N180 C185 1.332 . S
C181 C182 1.386 . S
C181 C184 1.388 1_556 S
C182 C181 1.386 . S
C182 C183 1.382 . S
C182 H208 0.950 . S
C183 N180 1.332 . S
C183 C182 1.382 . S
C183 H194 0.952 . S
C184 C181 1.388 1_554 S
C184 C185 1.382 1_554 S
C184 H209 0.950 . S
C185 N180 1.332 . S
C185 C184 1.382 1_556 S
C185 H195 0.948 . S
N186 Co164 2.282 . S
N186 C190 1.332 . S
N186 C191 1.332 . S
C187 C188 1.388 . S
C187 C191 1.382 . S
C187 H210 0.950 . S
C188 C187 1.388 . S
C188 C189 1.386 . S
C189 C188 1.386 . S
C189 C190 1.382 . S
C189 H211 0.950 . S
C190 N186 1.332 . S
C190 C189 1.382 . S
C190 H192 0.952 . S
C191 N186 1.332 . S
C191 C187 1.382 . S
C191 H193 0.948 . S
H192 C190 0.952 . S
H193 C191 0.948 . S
H194 C183 0.952 . S
H195 C185 0.948 . S
C196 C162 1.395 . S
C196 C166 1.391 . S
C197 C159 1.389 . S
C197 C179 1.392 . S
C198 C169 1.392 . S
C198 C171 1.389 . S
C199 C174 1.395 . S
C199 C176 1.391 . S
H200 C160 0.951 . S
H201 C161 0.950 . S
H202 C167 0.949 . S
H203 C168 0.948 1_554 S
H204 C172 0.951 . S
H205 C173 0.950 . S
H206 C177 0.949 . S
H207 C178 0.950 . S
H208 C182 0.950 . S
H209 C184 0.950 . S
H210 C187 0.950 . S
H211 C189 0.950 . S
C212 C213 1.443 1_554 S
C212 N216 1.376 . S
C212 C250 1.389 . S
C213 C212 1.443 1_556 S
C213 C214 1.340 . S
C213 H253 0.951 . S
C214 C213 1.340 . S
C214 C215 1.439 . S
C214 H254 0.950 . S
C215 C214 1.439 . S
C215 N216 1.374 1_556 S
C215 C249 1.395 . S
N216 C212 1.376 . S
N216 C215 1.374 1_554 S
N216 Co217 2.008 . S
Co217 N216 2.008 . S
Co217 N218 1.995 . S
Co217 N223 2.008 . S
Co217 N228 1.995 . S
Co217 N233 2.282 . S
Co217 N239 2.282 . S
N218 Co217 1.995 . S
N218 C219 1.376 . S
N218 C222 1.383 . S
C219 N218 1.376 . S
C219 C220 1.446 1_554 S
C219 C249 1.391 1_554 S
C220 C219 1.446 1_556 S
C220 C221 1.339 1_556 S
C220 H255 0.949 . S
C221 C220 1.339 1_554 S
C221 C222 1.439 . S
C221 H256 0.950 . S
C222 N218 1.383 . S
C222 C221 1.439 . S
C222 C251 1.392 . S
N223 Co217 2.008 . S
N223 C224 1.376 . S
N223 C227 1.374 . S
C224 N223 1.376 . S
C224 C225 1.443 . S
C224 C251 1.389 . S
C225 C224 1.443 . S
C225 C226 1.340 . S
C225 H257 0.951 . S
C226 C225 1.340 . S
C226 C227 1.439 . S
C226 H258 0.950 . S
C227 N223 1.374 . S
C227 C226 1.439 . S
C227 C252 1.395 . S
N228 Co217 1.995 . S
N228 C229 1.376 . S
N228 C232 1.383 . S
C229 N228 1.376 . S
C229 C230 1.446 . S
C229 C252 1.391 . S
C230 C229 1.446 . S
C230 C231 1.339 . S
C230 H259 0.949 . S
C231 C230 1.339 . S
C231 C232 1.439 . S
C231 H260 0.950 . S
C232 N228 1.383 . S
C232 C231 1.439 . S
C232 C250 1.392 . S
N233 Co217 2.282 . S
N233 C236 1.332 . S
N233 C238 1.332 . S
C234 C235 1.386 . S
C234 C237 1.388 . S
C235 C234 1.386 . S
C235 C236 1.382 . S
C235 H261 0.950 . S
C236 N233 1.332 . S
C236 C235 1.382 . S
C236 H247 0.952 . S
C237 C234 1.388 . S
C237 C238 1.382 . S
C237 H262 0.950 . S
C238 N233 1.332 . S
C238 C237 1.382 . S
C238 H248 0.948 . S
N239 Co217 2.282 . S
N239 C243 1.332 1_554 S
N239 C244 1.332 . S
C240 C241 1.388 1_554 S
C240 C244 1.382 . S
C240 H263 0.950 . S
C241 C240 1.388 1_556 S
C241 C242 1.386 . S
C242 C241 1.386 . S
C242 C243 1.382 . S
C242 H264 0.950 . S
C243 N239 1.332 1_556 S
C243 C242 1.382 . S
C243 H245 0.952 . S
C244 N239 1.332 . S
C244 C240 1.382 . S
C244 H246 0.948 . S
H245 C243 0.952 . S
H246 C244 0.948 . S
H247 C236 0.952 . S
H248 C238 0.948 . S
C249 C215 1.395 . S
C249 C219 1.391 1_556 S
C250 C212 1.389 . S
C250 C232 1.392 . S
C251 C222 1.392 . S
C251 C224 1.389 . S
C252 C227 1.395 . S
C252 C229 1.391 . S
H253 C213 0.951 . S
H254 C214 0.950 . S
H255 C220 0.949 . S
H256 C221 0.950 . S
H257 C225 0.951 . S
H258 C226 0.950 . S
H259 C230 0.949 . S
H260 C231 0.950 . S
H261 C235 0.950 . S
H262 C237 0.950 . S
H263 C240 0.950 . S
H264 C242 0.950 . S
C265 C266 1.443 . S
C265 N269 1.376 . S
C265 C303 1.389 . S
C266 C265 1.443 . S
C266 C267 1.340 . S
C266 H306 0.951 . S
C267 C266 1.340 . S
C267 C268 1.439 . S
C267 H307 0.950 . S
C268 C267 1.439 . S
C268 N269 1.374 . S
C268 C302 1.395 . S
N269 C265 1.376 . S
N269 C268 1.374 . S
N269 Co270 2.008 . S
Co270 N269 2.008 . S
Co270 N271 1.995 . S
Co270 N276 2.008 . S
Co270 N281 1.995 . S
Co270 N286 2.282 . S
Co270 N292 2.282 . S
N271 Co270 1.995 . S
N271 C272 1.376 . S
N271 C275 1.383 . S
C272 N271 1.376 . S
C272 C273 1.446 . S
C272 C302 1.391 . S
C273 C272 1.446 . S
C273 C274 1.339 . S
C273 H308 0.949 . S
C274 C273 1.339 . S
C274 C275 1.439 . S
C274 H309 0.950 . S
C275 N271 1.383 . S
C275 C274 1.439 . S
C275 C304 1.392 . S
N276 Co270 2.008 . S
N276 C277 1.376 . S
N276 C280 1.374 . S
C277 N276 1.376 . S
C277 C278 1.443 . S
C277 C304 1.389 . S
C278 C277 1.443 . S
C278 C279 1.340 . S
C278 H310 0.951 . S
C279 C278 1.340 . S
C279 C280 1.439 . S
C279 H311 0.950 1_556 S
C280 N276 1.374 . S
C280 C279 1.439 . S
C280 C305 1.395 1_556 S
N281 Co270 1.995 . S
N281 C282 1.376 1_556 S
N281 C285 1.383 . S
C282 N281 1.376 1_554 S
C282 C283 1.446 . S
C282 C305 1.391 . S
C283 C282 1.446 . S
C283 C284 1.339 . S
C283 H312 0.949 . S
C284 C283 1.339 . S
C284 C285 1.439 1_554 S
C284 H313 0.950 . S
C285 N281 1.383 . S
C285 C284 1.439 1_556 S
C285 C303 1.392 . S
N286 Co270 2.282 . S
N286 C289 1.332 . S
N286 C291 1.332 . S
C287 C288 1.386 . S
C287 C290 1.388 . S
C288 C287 1.386 . S
C288 C289 1.382 . S
C288 H314 0.950 . S
C289 N286 1.332 . S
C289 C288 1.382 . S
C289 H300 0.952 . S
C290 C287 1.388 . S
C290 C291 1.382 . S
C290 H315 0.950 . S
C291 N286 1.332 . S
C291 C290 1.382 . S
C291 H301 0.948 . S
N292 Co270 2.282 . S
N292 C296 1.332 . S
N292 C297 1.332 1_556 S
C293 C294 1.388 . S
C293 C297 1.382 . S
C293 H316 0.950 . S
C294 C293 1.388 . S
C294 C295 1.386 1_554 S
C295 C294 1.386 1_556 S
C295 C296 1.382 . S
C295 H317 0.950 . S
C296 N292 1.332 . S
C296 C295 1.382 . S
C296 H298 0.952 . S
C297 N292 1.332 1_554 S
C297 C293 1.382 . S
C297 H299 0.948 . S
H298 C296 0.952 . S
H299 C297 0.948 . S
H300 C289 0.952 . S
H301 C291 0.948 . S
C302 C268 1.395 . S
C302 C272 1.391 . S
C303 C265 1.389 . S
C303 C285 1.392 . S
C304 C275 1.392 . S
C304 C277 1.389 . S
C305 C280 1.395 1_554 S
C305 C282 1.391 . S
H306 C266 0.951 . S
H307 C267 0.950 . S
H308 C273 0.949 . S
H309 C274 0.950 . S
H310 C278 0.951 . S
H311 C279 0.950 1_554 S
H312 C283 0.949 . S
H313 C284 0.950 . S
H314 C288 0.950 . S
H315 C290 0.950 . S
H316 C293 0.950 . S
H317 C295 0.950 . S
C318 C319 1.443 1_554 S
C318 N322 1.376 . S
C318 C356 1.389 . S
C319 C318 1.443 1_556 S
C319 C320 1.340 . S
C319 H359 0.951 . S
C320 C319 1.340 . S
C320 C321 1.439 . S
C320 H360 0.950 . S
C321 C320 1.439 . S
C321 N322 1.374 1_556 S
C321 C355 1.395 . S
N322 C318 1.376 . S
N322 C321 1.374 1_554 S
N322 Co323 2.008 . S
Co323 N322 2.008 . S
Co323 N324 1.995 . S
Co323 N329 2.008 . S
Co323 N334 1.995 . S
Co323 N339 2.282 . S
Co323 N345 2.282 . S
N324 Co323 1.995 . S
N324 C325 1.376 . S
N324 C328 1.383 . S
C325 N324 1.376 . S
C325 C326 1.446 1_554 S
C325 C355 1.391 1_554 S
C326 C325 1.446 1_556 S
C326 C327 1.339 1_556 S
C326 H361 0.949 . S
C327 C326 1.339 1_554 S
C327 C328 1.439 . S
C327 H362 0.950 . S
C328 N324 1.383 . S
C328 C327 1.439 . S
C328 C357 1.392 . S
N329 Co323 2.008 . S
N329 C330 1.376 . S
N329 C333 1.374 . S
C330 N329 1.376 . S
C330 C331 1.443 . S
C330 C357 1.389 . S
C331 C330 1.443 . S
C331 C332 1.340 . S
C331 H363 0.951 . S
C332 C331 1.340 . S
C332 C333 1.439 . S
C332 H364 0.950 . S
C333 N329 1.374 . S
C333 C332 1.439 . S
C333 C358 1.395 . S
N334 Co323 1.995 . S
N334 C335 1.376 . S
N334 C338 1.383 . S
C335 N334 1.376 . S
C335 C336 1.446 . S
C335 C358 1.391 . S
C336 C335 1.446 . S
C336 C337 1.339 . S
C336 H365 0.949 . S
C337 C336 1.339 . S
C337 C338 1.439 . S
C337 H366 0.950 . S
C338 N334 1.383 . S
C338 C337 1.439 . S
C338 C356 1.392 . S
N339 Co323 2.282 . S
N339 C342 1.332 . S
N339 C344 1.332 . S
C340 C341 1.386 . S
C340 C343 1.388 . S
C341 C340 1.386 . S
C341 C342 1.382 . S
C341 H367 0.950 . S
C342 N339 1.332 . S
C342 C341 1.382 . S
C342 H353 0.952 . S
C343 C340 1.388 . S
C343 C344 1.382 . S
C343 H368 0.950 . S
C344 N339 1.332 . S
C344 C343 1.382 . S
C344 H354 0.948 . S
N345 Co323 2.282 . S
N345 C349 1.332 1_554 S
N345 C350 1.332 . S
C346 C347 1.388 1_554 S
C346 C350 1.382 . S
C346 H369 0.950 . S
C347 C346 1.388 1_556 S
C347 C348 1.386 . S
C348 C347 1.386 . S
C348 C349 1.382 . S
C348 H370 0.950 . S
C349 N345 1.332 1_556 S
C349 C348 1.382 . S
C349 H351 0.952 . S
C350 N345 1.332 . S
C350 C346 1.382 . S
C350 H352 0.948 . S
H351 C349 0.952 . S
H352 C350 0.948 . S
H353 C342 0.952 . S
H354 C344 0.948 . S
C355 C321 1.395 . S
C355 C325 1.391 1_556 S
C356 C318 1.389 . S
C356 C338 1.392 . S
C357 C328 1.392 . S
C357 C330 1.389 . S
C358 C333 1.395 . S
C358 C335 1.391 . S
H359 C319 0.951 . S
H360 C320 0.950 . S
H361 C326 0.949 . S
H362 C327 0.950 . S
H363 C331 0.951 . S
H364 C332 0.950 . S
H365 C336 0.949 . S
H366 C337 0.950 . S
H367 C341 0.950 . S
H368 C343 0.950 . S
H369 C346 0.950 . S
H370 C348 0.950 . S
C371 C372 1.443 . S
C371 N375 1.376 . S
C371 C409 1.389 . S
C372 C371 1.443 . S
C372 C373 1.340 . S
C372 H412 0.951 . S
C373 C372 1.340 . S
C373 C374 1.439 . S
C373 H413 0.950 . S
C374 C373 1.439 . S
C374 N375 1.374 . S
C374 C408 1.395 . S
N375 C371 1.376 . S
N375 C374 1.374 . S
N375 Co376 2.008 . S
Co376 N375 2.008 . S
Co376 N377 1.995 . S
Co376 N382 2.008 . S
Co376 N387 1.995 . S
Co376 N392 2.282 . S
Co376 N398 2.282 . S
N377 Co376 1.995 . S
N377 C378 1.376 . S
N377 C381 1.383 . S
C378 N377 1.376 . S
C378 C379 1.446 . S
C378 C408 1.391 . S
C379 C378 1.446 . S
C379 C380 1.339 . S
C379 H414 0.949 . S
C380 C379 1.339 . S
C380 C381 1.439 . S
C380 H415 0.950 . S
C381 N377 1.383 . S
C381 C380 1.439 . S
C381 C410 1.392 . S
N382 Co376 2.008 . S
N382 C383 1.376 . S
N382 C386 1.374 . S
C383 N382 1.376 . S
C383 C384 1.443 . S
C383 C410 1.389 . S
C384 C383 1.443 . S
C384 C385 1.340 . S
C384 H416 0.951 . S
C385 C384 1.340 . S
C385 C386 1.439 . S
C385 H417 0.950 1_556 S
C386 N382 1.374 . S
C386 C385 1.439 . S
C386 C411 1.395 1_556 S
N387 Co376 1.995 . S
N387 C388 1.376 1_556 S
N387 C391 1.383 . S
C388 N387 1.376 1_554 S
C388 C389 1.446 . S
C388 C411 1.391 . S
C389 C388 1.446 . S
C389 C390 1.339 . S
C389 H418 0.949 . S
C390 C389 1.339 . S
C390 C391 1.439 1_554 S
C390 H419 0.950 . S
C391 N387 1.383 . S
C391 C390 1.439 1_556 S
C391 C409 1.392 . S
N392 Co376 2.282 . S
N392 C395 1.332 . S
N392 C397 1.332 . S
C393 C394 1.386 . S
C393 C396 1.388 . S
C394 C393 1.386 . S
C394 C395 1.382 . S
C394 H420 0.950 . S
C395 N392 1.332 . S
C395 C394 1.382 . S
C395 H406 0.952 . S
C396 C393 1.388 . S
C396 C397 1.382 . S
C396 H421 0.950 . S
C397 N392 1.332 . S
C397 C396 1.382 . S
C397 H407 0.948 . S
N398 Co376 2.282 . S
N398 C402 1.332 . S
N398 C403 1.332 1_556 S
C399 C400 1.388 . S
C399 C403 1.382 . S
C399 H422 0.950 . S
C400 C399 1.388 . S
C400 C401 1.386 1_554 S
C401 C400 1.386 1_556 S
C401 C402 1.382 . S
C401 H423 0.950 . S
C402 N398 1.332 . S
C402 C401 1.382 . S
C402 H404 0.952 . S
C403 N398 1.332 1_554 S
C403 C399 1.382 . S
C403 H405 0.948 . S
H404 C402 0.952 . S
H405 C403 0.948 . S
H406 C395 0.952 . S
H407 C397 0.948 . S
C408 C374 1.395 . S
C408 C378 1.391 . S
C409 C371 1.389 . S
C409 C391 1.392 . S
C410 C381 1.392 . S
C410 C383 1.389 . S
C411 C386 1.395 1_554 S
C411 C388 1.391 . S
H412 C372 0.951 . S
H413 C373 0.950 . S
H414 C379 0.949 . S
H415 C380 0.950 . S
H416 C384 0.951 . S
H417 C385 0.950 1_554 S
H418 C389 0.949 . S
H419 C390 0.950 . S
H420 C394 0.950 . S
H421 C396 0.950 . S
H422 C399 0.950 . S
H423 C401 0.950 . S
C424 C425 1.443 . S
C424 N428 1.376 . S
C424 C462 1.389 . S
C425 C424 1.443 . S
C425 C426 1.340 . S
C425 H465 0.951 . S
C426 C425 1.340 . S
C426 C427 1.439 . S
C426 H466 0.950 . S
C427 C426 1.439 . S
C427 N428 1.374 . S
C427 C461 1.395 . S
N428 C424 1.376 . S
N428 C427 1.374 . S
N428 Co429 2.008 . S
Co429 N428 2.008 . S
Co429 N430 1.995 . S
Co429 N435 2.008 . S
Co429 N440 1.995 . S
Co429 N445 2.282 . S
Co429 N451 2.282 . S
N430 Co429 1.995 . S
N430 C431 1.376 . S
N430 C434 1.383 . S
C431 N430 1.376 . S
C431 C432 1.446 . S
C431 C461 1.391 . S
C432 C431 1.446 . S
C432 C433 1.339 . S
C432 H467 0.949 . S
C433 C432 1.339 . S
C433 C434 1.439 . S
C433 H468 0.950 . S
C434 N430 1.383 . S
C434 C433 1.439 . S
C434 C463 1.392 . S
N435 Co429 2.008 . S
N435 C436 1.376 . S
N435 C439 1.374 . S
C436 N435 1.376 . S
C436 C437 1.443 . S
C436 C463 1.389 . S
C437 C436 1.443 . S
C437 C438 1.340 . S
C437 H469 0.951 . S
C438 C437 1.340 . S
C438 C439 1.439 . S
C438 H470 0.950 . S
C439 N435 1.374 . S
C439 C438 1.439 . S
C439 C464 1.395 . S
N440 Co429 1.995 . S
N440 C441 1.376 . S
N440 C444 1.383 . S
C441 N440 1.376 . S
C441 C442 1.446 . S
C441 C464 1.391 . S
C442 C441 1.446 . S
C442 C443 1.339 . S
C442 H471 0.949 . S
C443 C442 1.339 . S
C443 C444 1.439 . S
C443 H472 0.950 . S
C444 N440 1.383 . S
C444 C443 1.439 . S
C444 C462 1.392 . S
N445 Co429 2.282 . S
N445 C448 1.332 . S
N445 C450 1.332 . S
C446 C447 1.386 . S
C446 C449 1.388 . S
C447 C446 1.386 . S
C447 C448 1.382 . S
C447 H473 0.950 . S
C448 N445 1.332 . S
C448 C447 1.382 . S
C448 H459 0.952 . S
C449 C446 1.388 . S
C449 C450 1.382 . S
C449 H474 0.950 . S
C450 N445 1.332 . S
C450 C449 1.382 . S
C450 H460 0.948 . S
N451 Co429 2.282 . S
N451 C455 1.332 . S
N451 C456 1.332 . S
C452 C453 1.388 . S
C452 C456 1.382 . S
C452 H475 0.950 . S
C453 C452 1.388 . S
C453 C454 1.386 . S
C454 C453 1.386 . S
C454 C455 1.382 . S
C454 H476 0.950 . S
C455 N451 1.332 . S
C455 C454 1.382 . S
C455 H457 0.952 . S
C456 N451 1.332 . S
C456 C452 1.382 . S
C456 H458 0.948 . S
H457 C455 0.952 . S
H458 C456 0.948 . S
H459 C448 0.952 . S
H460 C450 0.948 . S
C461 C427 1.395 . S
C461 C431 1.391 . S
C462 C424 1.389 . S
C462 C444 1.392 . S
C463 C434 1.392 . S
C463 C436 1.389 . S
C464 C439 1.395 . S
C464 C441 1.391 . S
H465 C425 0.951 . S
H466 C426 0.950 . S
H467 C432 0.949 . S
H468 C433 0.950 . S
H469 C437 0.951 . S
H470 C438 0.950 . S
H471 C442 0.949 . S
H472 C443 0.950 . S
H473 C447 0.950 . S
H474 C449 0.950 . S
H475 C452 0.950 . S
H476 C454 0.950 . S
C477 C478 1.443 . S
C477 N481 1.376 . S
C477 C515 1.389 . S
C478 C477 1.443 . S
C478 C479 1.340 . S
C478 H518 0.951 . S
C479 C478 1.340 . S
C479 C480 1.439 . S
C479 H519 0.950 . S
C480 C479 1.439 . S
C480 N481 1.374 . S
C480 C514 1.395 . S
N481 C477 1.376 . S
N481 C480 1.374 . S
N481 Co482 2.008 . S
Co482 N481 2.008 . S
Co482 N483 1.995 . S
Co482 N488 2.008 . S
Co482 N493 1.995 . S
Co482 N498 2.282 . S
Co482 N504 2.282 . S
N483 Co482 1.995 . S
N483 C484 1.376 . S
N483 C487 1.383 . S
C484 N483 1.376 . S
C484 C485 1.446 . S
C484 C514 1.391 . S
C485 C484 1.446 . S
C485 C486 1.339 . S
C485 H520 0.949 . S
C486 C485 1.339 . S
C486 C487 1.439 . S
C486 H521 0.950 . S
C487 N483 1.383 . S
C487 C486 1.439 . S
C487 C516 1.392 . S
N488 Co482 2.008 . S
N488 C489 1.376 . S
N488 C492 1.374 . S
C489 N488 1.376 . S
C489 C490 1.443 . S
C489 C516 1.389 . S
C490 C489 1.443 . S
C490 C491 1.340 . S
C490 H522 0.951 . S
C491 C490 1.340 . S
C491 C492 1.439 . S
C491 H523 0.950 . S
C492 N488 1.374 . S
C492 C491 1.439 . S
C492 C517 1.395 . S
N493 Co482 1.995 . S
N493 C494 1.376 . S
N493 C497 1.383 . S
C494 N493 1.376 . S
C494 C495 1.446 . S
C494 C517 1.391 . S
C495 C494 1.446 . S
C495 C496 1.339 . S
C495 H524 0.949 . S
C496 C495 1.339 . S
C496 C497 1.439 . S
C496 H525 0.950 . S
C497 N493 1.383 . S
C497 C496 1.439 . S
C497 C515 1.392 . S
N498 Co482 2.282 . S
N498 C501 1.332 . S
N498 C503 1.332 . S
C499 C500 1.386 . S
C499 C502 1.388 . S
C500 C499 1.386 . S
C500 C501 1.382 . S
C500 H526 0.950 . S
C501 N498 1.332 . S
C501 C500 1.382 . S
C501 H512 0.952 . S
C502 C499 1.388 . S
C502 C503 1.382 . S
C502 H527 0.950 . S
C503 N498 1.332 . S
C503 C502 1.382 . S
C503 H513 0.948 . S
N504 Co482 2.282 . S
N504 C508 1.332 . S
N504 C509 1.332 . S
C505 C506 1.388 . S
C505 C509 1.382 . S
C505 H528 0.950 . S
C506 C505 1.388 . S
C506 C507 1.386 . S
C507 C506 1.386 . S
C507 C508 1.382 . S
C507 H529 0.950 . S
C508 N504 1.332 . S
C508 C507 1.382 . S
C508 H510 0.952 . S
C509 N504 1.332 . S
C509 C505 1.382 . S
C509 H511 0.948 . S
H510 C508 0.952 . S
H511 C509 0.948 . S
H512 C501 0.952 . S
H513 C503 0.948 . S
C514 C480 1.395 . S
C514 C484 1.391 . S
C515 C477 1.389 . S
C515 C497 1.392 . S
C516 C487 1.392 . S
C516 C489 1.389 . S
C517 C492 1.395 . S
C517 C494 1.391 . S
H518 C478 0.951 . S
H519 C479 0.950 . S
H520 C485 0.949 . S
H521 C486 0.950 . S
H522 C490 0.951 . S
H523 C491 0.950 . S
H524 C495 0.949 . S
H525 C496 0.950 . S
H526 C500 0.950 . S
H527 C502 0.950 . S
H528 C505 0.950 . S
H529 C507 0.950 . S
C530 C531 1.443 . S
C530 N534 1.376 . S
C530 C568 1.389 . S
C531 C530 1.443 . S
C531 C532 1.340 . S
C531 H571 0.951 . S
C532 C531 1.340 . S
C532 C533 1.439 . S
C532 H572 0.950 . S
C533 C532 1.439 . S
C533 N534 1.374 . S
C533 C567 1.395 . S
N534 C530 1.376 . S
N534 C533 1.374 . S
N534 Co535 2.008 . S
Co535 N534 2.008 . S
Co535 N536 1.995 . S
Co535 N541 2.008 . S
Co535 N546 1.995 . S
Co535 N551 2.282 . S
Co535 N557 2.282 . S
N536 Co535 1.995 . S
N536 C537 1.376 . S
N536 C540 1.383 . S
C537 N536 1.376 . S
C537 C538 1.446 . S
C537 C567 1.391 . S
C538 C537 1.446 . S
C538 C539 1.339 . S
C538 H573 0.949 . S
C539 C538 1.339 . S
C539 C540 1.439 . S
C539 H574 0.950 . S
C540 N536 1.383 . S
C540 C539 1.439 . S
C540 C569 1.392 . S
N541 Co535 2.008 . S
N541 C542 1.376 . S
N541 C545 1.374 . S
C542 N541 1.376 . S
C542 C543 1.443 . S
C542 C569 1.389 . S
C543 C542 1.443 . S
C543 C544 1.340 . S
C543 H575 0.951 . S
C544 C543 1.340 . S
C544 C545 1.439 . S
C544 H576 0.950 . S
C545 N541 1.374 . S
C545 C544 1.439 . S
C545 C570 1.395 . S
N546 Co535 1.995 . S
N546 C547 1.376 . S
N546 C550 1.383 . S
C547 N546 1.376 . S
C547 C548 1.446 . S
C547 C570 1.391 . S
C548 C547 1.446 . S
C548 C549 1.339 . S
C548 H577 0.949 . S
C549 C548 1.339 . S
C549 C550 1.439 . S
C549 H578 0.950 . S
C550 N546 1.383 . S
C550 C549 1.439 . S
C550 C568 1.392 . S
N551 Co535 2.282 . S
N551 C554 1.332 . S
N551 C556 1.332 . S
C552 C553 1.386 . S
C552 C555 1.388 . S
C553 C552 1.386 . S
C553 C554 1.382 . S
C553 H579 0.950 . S
C554 N551 1.332 . S
C554 C553 1.382 . S
C554 H565 0.952 . S
C555 C552 1.388 . S
C555 C556 1.382 . S
C555 H580 0.950 . S
C556 N551 1.332 . S
C556 C555 1.382 . S
C556 H566 0.948 . S
N557 Co535 2.282 . S
N557 C561 1.332 . S
N557 C562 1.332 . S
C558 C559 1.388 . S
C558 C562 1.382 . S
C558 H581 0.950 . S
C559 C558 1.388 . S
C559 C560 1.386 . S
C560 C559 1.386 . S
C560 C561 1.382 . S
C560 H582 0.950 . S
C561 N557 1.332 . S
C561 C560 1.382 . S
C561 H563 0.952 . S
C562 N557 1.332 . S
C562 C558 1.382 . S
C562 H564 0.948 . S
H563 C561 0.952 . S
H564 C562 0.948 . S
H565 C554 0.952 . S
H566 C556 0.948 . S
C567 C533 1.395 . S
C567 C537 1.391 . S
C568 C530 1.389 . S
C568 C550 1.392 . S
C569 C540 1.392 . S
C569 C542 1.389 . S
C570 C545 1.395 . S
C570 C547 1.391 . S
H571 C531 0.951 . S
H572 C532 0.950 . S
H573 C538 0.949 . S
H574 C539 0.950 . S
H575 C543 0.951 . S
H576 C544 0.950 . S
H577 C548 0.949 . S
H578 C549 0.950 . S
H579 C553 0.950 . S
H580 C555 0.950 . S
H581 C558 0.950 . S
H582 C560 0.950 . S
C583 C584 1.443 . S
C583 N587 1.376 . S
C583 C621 1.389 . S
C584 C583 1.443 . S
C584 C585 1.340 . S
C584 H624 0.951 . S
C585 C584 1.340 . S
C585 C586 1.439 . S
C585 H625 0.950 . S
C586 C585 1.439 . S
C586 N587 1.374 . S
C586 C620 1.395 . S
N587 C583 1.376 . S
N587 C586 1.374 . S
N587 Co588 2.008 . S
Co588 N587 2.008 . S
Co588 N589 1.995 . S
Co588 N594 2.008 . S
Co588 N599 1.995 . S
Co588 N604 2.282 . S
Co588 N610 2.282 . S
N589 Co588 1.995 . S
N589 C590 1.376 . S
N589 C593 1.383 . S
C590 N589 1.376 . S
C590 C591 1.446 . S
C590 C620 1.391 . S
C591 C590 1.446 . S
C591 C592 1.339 . S
C591 H626 0.949 . S
C592 C591 1.339 . S
C592 C593 1.439 . S
C592 H627 0.950 . S
C593 N589 1.383 . S
C593 C592 1.439 . S
C593 C622 1.392 . S
N594 Co588 2.008 . S
N594 C595 1.376 . S
N594 C598 1.374 . S
C595 N594 1.376 . S
C595 C596 1.443 . S
C595 C622 1.389 . S
C596 C595 1.443 . S
C596 C597 1.340 . S
C596 H628 0.951 . S
C597 C596 1.340 . S
C597 C598 1.439 . S
C597 H629 0.950 . S
C598 N594 1.374 . S
C598 C597 1.439 . S
C598 C623 1.395 . S
N599 Co588 1.995 . S
N599 C600 1.376 . S
N599 C603 1.383 . S
C600 N599 1.376 . S
C600 C601 1.446 . S
C600 C623 1.391 . S
C601 C600 1.446 . S
C601 C602 1.339 . S
C601 H630 0.949 . S
C602 C601 1.339 . S
C602 C603 1.439 . S
C602 H631 0.950 . S
C603 N599 1.383 . S
C603 C602 1.439 . S
C603 C621 1.392 . S
N604 Co588 2.282 . S
N604 C607 1.332 . S
N604 C609 1.332 . S
C605 C606 1.386 . S
C605 C608 1.388 . S
C606 C605 1.386 . S
C606 C607 1.382 . S
C606 H632 0.950 . S
C607 N604 1.332 . S
C607 C606 1.382 . S
C607 H618 0.952 . S
C608 C605 1.388 . S
C608 C609 1.382 . S
C608 H633 0.950 . S
C609 N604 1.332 . S
C609 C608 1.382 . S
C609 H619 0.948 . S
N610 Co588 2.282 . S
N610 C614 1.332 . S
N610 C615 1.332 . S
C611 C612 1.388 . S
C611 C615 1.382 . S
C611 H634 0.950 . S
C612 C611 1.388 . S
C612 C613 1.386 . S
C613 C612 1.386 . S
C613 C614 1.382 . S
C613 H635 0.950 . S
C614 N610 1.332 . S
C614 C613 1.382 . S
C614 H616 0.952 . S
C615 N610 1.332 . S
C615 C611 1.382 . S
C615 H617 0.948 . S
H616 C614 0.952 . S
H617 C615 0.948 . S
H618 C607 0.952 . S
H619 C609 0.948 . S
C620 C586 1.395 . S
C620 C590 1.391 . S
C621 C583 1.389 . S
C621 C603 1.392 . S
C622 C593 1.392 . S
C622 C595 1.389 . S
C623 C598 1.395 . S
C623 C600 1.391 . S
H624 C584 0.951 . S
H625 C585 0.950 . S
H626 C591 0.949 . S
H627 C592 0.950 . S
H628 C596 0.951 . S
H629 C597 0.950 . S
H630 C601 0.949 . S
H631 C602 0.950 . S
H632 C606 0.950 . S
H633 C608 0.950 . S
H634 C611 0.950 . S
H635 C613 0.950 . S
C636 C637 1.443 . S
C636 N640 1.376 . S
C636 C674 1.389 . S
C637 C636 1.443 . S
C637 C638 1.340 . S
C637 H677 0.951 . S
C638 C637 1.340 . S
C638 C639 1.439 . S
C638 H678 0.950 . S
C639 C638 1.439 . S
C639 N640 1.374 . S
C639 C673 1.395 . S
N640 C636 1.376 . S
N640 C639 1.374 . S
N640 Co641 2.008 . S
Co641 N640 2.008 . S
Co641 N642 1.995 . S
Co641 N647 2.008 . S
Co641 N652 1.995 . S
Co641 N657 2.282 . S
Co641 N663 2.282 . S
N642 Co641 1.995 . S
N642 C643 1.376 . S
N642 C646 1.383 . S
C643 N642 1.376 . S
C643 C644 1.446 . S
C643 C673 1.391 . S
C644 C643 1.446 . S
C644 C645 1.339 . S
C644 H679 0.949 . S
C645 C644 1.339 . S
C645 C646 1.439 . S
C645 H680 0.950 . S
C646 N642 1.383 . S
C646 C645 1.439 . S
C646 C675 1.392 . S
N647 Co641 2.008 . S
N647 C648 1.376 . S
N647 C651 1.374 . S
C648 N647 1.376 . S
C648 C649 1.443 . S
C648 C675 1.389 . S
C649 C648 1.443 . S
C649 C650 1.340 . S
C649 H681 0.951 . S
C650 C649 1.340 . S
C650 C651 1.439 . S
C650 H682 0.950 . S
C651 N647 1.374 . S
C651 C650 1.439 . S
C651 C676 1.395 . S
N652 Co641 1.995 . S
N652 C653 1.376 . S
N652 C656 1.383 . S
C653 N652 1.376 . S
C653 C654 1.446 . S
C653 C676 1.391 . S
C654 C653 1.446 . S
C654 C655 1.339 . S
C654 H683 0.949 . S
C655 C654 1.339 . S
C655 C656 1.439 . S
C655 H684 0.950 . S
C656 N652 1.383 . S
C656 C655 1.439 . S
C656 C674 1.392 . S
N657 Co641 2.282 . S
N657 C660 1.332 . S
N657 C662 1.332 . S
C658 C659 1.386 . S
C658 C661 1.388 . S
C659 C658 1.386 . S
C659 C660 1.382 . S
C659 H685 0.950 . S
C660 N657 1.332 . S
C660 C659 1.382 . S
C660 H671 0.952 . S
C661 C658 1.388 . S
C661 C662 1.382 . S
C661 H686 0.950 . S
C662 N657 1.332 . S
C662 C661 1.382 . S
C662 H672 0.948 . S
N663 Co641 2.282 . S
N663 C667 1.332 . S
N663 C668 1.332 . S
C664 C665 1.388 . S
C664 C668 1.382 . S
C664 H687 0.950 . S
C665 C664 1.388 . S
C665 C666 1.386 . S
C666 C665 1.386 . S
C666 C667 1.382 . S
C666 H688 0.950 . S
C667 N663 1.332 . S
C667 C666 1.382 . S
C667 H669 0.952 . S
C668 N663 1.332 . S
C668 C664 1.382 . S
C668 H670 0.948 . S
H669 C667 0.952 . S
H670 C668 0.948 . S
H671 C660 0.952 . S
H672 C662 0.948 . S
C673 C639 1.395 . S
C673 C643 1.391 . S
C674 C636 1.389 . S
C674 C656 1.392 . S
C675 C646 1.392 . S
C675 C648 1.389 . S
C676 C651 1.395 . S
C676 C653 1.391 . S
H677 C637 0.951 . S
H678 C638 0.950 . S
H679 C644 0.949 . S
H680 C645 0.950 . S
H681 C649 0.951 . S
H682 C650 0.950 . S
H683 C654 0.949 . S
H684 C655 0.950 . S
H685 C659 0.950 . S
H686 C661 0.950 . S
H687 C664 0.950 . S
H688 C666 0.950 . S
C689 C690 1.443 . S
C689 N693 1.376 . S
C689 C727 1.389 . S
C690 C689 1.443 . S
C690 C691 1.340 . S
C690 H730 0.951 . S
C691 C690 1.340 . S
C691 C692 1.439 . S
C691 H731 0.950 . S
C692 C691 1.439 . S
C692 N693 1.374 . S
C692 C726 1.395 . S
N693 C689 1.376 . S
N693 C692 1.374 . S
N693 Co694 2.008 . S
Co694 N693 2.008 . S
Co694 N695 1.995 . S
Co694 N700 2.008 . S
Co694 N705 1.995 . S
Co694 N710 2.282 . S
Co694 N716 2.282 . S
N695 Co694 1.995 . S
N695 C696 1.376 . S
N695 C699 1.383 . S
C696 N695 1.376 . S
C696 C697 1.446 . S
C696 C726 1.391 . S
C697 C696 1.446 . S
C697 C698 1.339 . S
C697 H732 0.949 . S
C698 C697 1.339 . S
C698 C699 1.439 . S
C698 H733 0.950 . S
C699 N695 1.383 . S
C699 C698 1.439 . S
C699 C728 1.392 . S
N700 Co694 2.008 . S
N700 C701 1.376 . S
N700 C704 1.374 . S
C701 N700 1.376 . S
C701 C702 1.443 . S
C701 C728 1.389 . S
C702 C701 1.443 . S
C702 C703 1.340 . S
C702 H734 0.951 . S
C703 C702 1.340 . S
C703 C704 1.439 . S
C703 H735 0.950 . S
C704 N700 1.374 . S
C704 C703 1.439 . S
C704 C729 1.395 . S
N705 Co694 1.995 . S
N705 C706 1.376 . S
N705 C709 1.383 . S
C706 N705 1.376 . S
C706 C707 1.446 . S
C706 C729 1.391 . S
C707 C706 1.446 . S
C707 C708 1.339 . S
C707 H736 0.949 . S
C708 C707 1.339 . S
C708 C709 1.439 . S
C708 H737 0.950 . S
C709 N705 1.383 . S
C709 C708 1.439 . S
C709 C727 1.392 . S
N710 Co694 2.282 . S
N710 C713 1.332 . S
N710 C715 1.332 . S
C711 C712 1.386 . S
C711 C714 1.388 . S
C712 C711 1.386 . S
C712 C713 1.382 . S
C712 H738 0.950 . S
C713 N710 1.332 . S
C713 C712 1.382 . S
C713 H724 0.952 . S
C714 C711 1.388 . S
C714 C715 1.382 . S
C714 H739 0.950 . S
C715 N710 1.332 . S
C715 C714 1.382 . S
C715 H725 0.948 . S
N716 Co694 2.282 . S
N716 C720 1.332 . S
N716 C721 1.332 . S
C717 C718 1.388 . S
C717 C721 1.382 . S
C717 H740 0.950 . S
C718 C717 1.388 . S
C718 C719 1.386 . S
C719 C718 1.386 . S
C719 C720 1.382 . S
C719 H741 0.950 . S
C720 N716 1.332 . S
C720 C719 1.382 . S
C720 H722 0.952 . S
C721 N716 1.332 . S
C721 C717 1.382 . S
C721 H723 0.948 . S
H722 C720 0.952 . S
H723 C721 0.948 . S
H724 C713 0.952 . S
H725 C715 0.948 . S
C726 C692 1.395 . S
C726 C696 1.391 . S
C727 C689 1.389 . S
C727 C709 1.392 . S
C728 C699 1.392 . S
C728 C701 1.389 . S
C729 C704 1.395 . S
C729 C706 1.391 . S
H730 C690 0.951 . S
H731 C691 0.950 . S
H732 C697 0.949 . S
H733 C698 0.950 . S
H734 C702 0.951 . S
H735 C703 0.950 . S
H736 C707 0.949 . S
H737 C708 0.950 . S
H738 C712 0.950 . S
H739 C714 0.950 . S
H740 C717 0.950 . S
H741 C719 0.950 . S
C742 C743 1.443 . S
C742 N746 1.376 . S
C742 C780 1.389 . S
C743 C742 1.443 . S
C743 C744 1.340 . S
C743 H783 0.951 . S
C744 C743 1.340 . S
C744 C745 1.439 . S
C744 H784 0.950 . S
C745 C744 1.439 . S
C745 N746 1.374 . S
C745 C779 1.395 . S
N746 C742 1.376 . S
N746 C745 1.374 . S
N746 Co747 2.008 . S
Co747 N746 2.008 . S
Co747 N748 1.995 . S
Co747 N753 2.008 . S
Co747 N758 1.995 . S
Co747 N763 2.282 . S
Co747 N769 2.282 . S
N748 Co747 1.995 . S
N748 C749 1.376 . S
N748 C752 1.383 . S
C749 N748 1.376 . S
C749 C750 1.446 . S
C749 C779 1.391 . S
C750 C749 1.446 . S
C750 C751 1.339 . S
C750 H785 0.949 . S
C751 C750 1.339 . S
C751 C752 1.439 . S
C751 H786 0.950 . S
C752 N748 1.383 . S
C752 C751 1.439 . S
C752 C781 1.392 . S
N753 Co747 2.008 . S
N753 C754 1.376 . S
N753 C757 1.374 . S
C754 N753 1.376 . S
C754 C755 1.443 . S
C754 C781 1.389 . S
C755 C754 1.443 . S
C755 C756 1.340 . S
C755 H787 0.951 . S
C756 C755 1.340 . S
C756 C757 1.439 . S
C756 H788 0.950 . S
C757 N753 1.374 . S
C757 C756 1.439 . S
C757 C782 1.395 . S
N758 Co747 1.995 . S
N758 C759 1.376 . S
N758 C762 1.383 . S
C759 N758 1.376 . S
C759 C760 1.446 . S
C759 C782 1.391 . S
C760 C759 1.446 . S
C760 C761 1.339 . S
C760 H789 0.949 . S
C761 C760 1.339 . S
C761 C762 1.439 . S
C761 H790 0.950 . S
C762 N758 1.383 . S
C762 C761 1.439 . S
C762 C780 1.392 . S
N763 Co747 2.282 . S
N763 C766 1.332 . S
N763 C768 1.332 . S
C764 C765 1.386 . S
C764 C767 1.388 . S
C765 C764 1.386 . S
C765 C766 1.382 . S
C765 H791 0.950 . S
C766 N763 1.332 . S
C766 C765 1.382 . S
C766 H777 0.952 . S
C767 C764 1.388 . S
C767 C768 1.382 . S
C767 H792 0.950 . S
C768 N763 1.332 . S
C768 C767 1.382 . S
C768 H778 0.948 . S
N769 Co747 2.282 . S
N769 C773 1.332 . S
N769 C774 1.332 . S
C770 C771 1.388 . S
C770 C774 1.382 . S
C770 H793 0.950 . S
C771 C770 1.388 . S
C771 C772 1.386 . S
C772 C771 1.386 . S
C772 C773 1.382 . S
C772 H794 0.950 . S
C773 N769 1.332 . S
C773 C772 1.382 . S
C773 H775 0.952 . S
C774 N769 1.332 . S
C774 C770 1.382 . S
C774 H776 0.948 . S
H775 C773 0.952 . S
H776 C774 0.948 . S
H777 C766 0.952 . S
H778 C768 0.948 . S
C779 C745 1.395 . S
C779 C749 1.391 . S
C780 C742 1.389 . S
C780 C762 1.392 . S
C781 C752 1.392 . S
C781 C754 1.389 . S
C782 C757 1.395 . S
C782 C759 1.391 . S
H783 C743 0.951 . S
H784 C744 0.950 . S
H785 C750 0.949 . S
H786 C751 0.950 . S
H787 C755 0.951 . S
H788 C756 0.950 . S
H789 C760 0.949 . S
H790 C761 0.950 . S
H791 C765 0.950 . S
H792 C767 0.950 . S
H793 C770 0.950 . S
H794 C772 0.950 . S
C795 C796 1.443 . S
C795 N799 1.376 . S
C795 C833 1.389 . S
C796 C795 1.443 . S
C796 C797 1.340 . S
C796 H836 0.951 . S
C797 C796 1.340 . S
C797 C798 1.439 . S
C797 H837 0.950 . S
C798 C797 1.439 . S
C798 N799 1.374 . S
C798 C832 1.395 . S
N799 C795 1.376 . S
N799 C798 1.374 . S
N799 Co800 2.008 . S
Co800 N799 2.008 . S
Co800 N801 1.995 . S
Co800 N806 2.008 . S
Co800 N811 1.995 . S
Co800 N816 2.282 . S
Co800 N822 2.282 . S
N801 Co800 1.995 . S
N801 C802 1.376 . S
N801 C805 1.383 . S
C802 N801 1.376 . S
C802 C803 1.446 . S
C802 C832 1.391 . S
C803 C802 1.446 . S
C803 C804 1.339 . S
C803 H838 0.949 . S
C804 C803 1.339 . S
C804 C805 1.439 . S
C804 H839 0.950 . S
C805 N801 1.383 . S
C805 C804 1.439 . S
C805 C834 1.392 . S
N806 Co800 2.008 . S
N806 C807 1.376 . S
N806 C810 1.374 . S
C807 N806 1.376 . S
C807 C808 1.443 . S
C807 C834 1.389 . S
C808 C807 1.443 . S
C808 C809 1.340 . S
C808 H840 0.951 . S
C809 C808 1.340 . S
C809 C810 1.439 . S
C809 H841 0.950 . S
C810 N806 1.374 . S
C810 C809 1.439 . S
C810 C835 1.395 . S
N811 Co800 1.995 . S
N811 C812 1.376 . S
N811 C815 1.383 . S
C812 N811 1.376 . S
C812 C813 1.446 . S
C812 C835 1.391 . S
C813 C812 1.446 . S
C813 C814 1.339 . S
C813 H842 0.949 . S
C814 C813 1.339 . S
C814 C815 1.439 . S
C814 H843 0.950 . S
C815 N811 1.383 . S
C815 C814 1.439 . S
C815 C833 1.392 . S
N816 Co800 2.282 . S
N816 C819 1.332 . S
N816 C821 1.332 . S
C817 C818 1.386 . S
C817 C820 1.388 . S
C818 C817 1.386 . S
C818 C819 1.382 . S
C818 H844 0.950 . S
C819 N816 1.332 . S
C819 C818 1.382 . S
C819 H830 0.952 . S
C820 C817 1.388 . S
C820 C821 1.382 . S
C820 H845 0.950 . S
C821 N816 1.332 . S
C821 C820 1.382 . S
C821 H831 0.948 . S
N822 Co800 2.282 . S
N822 C826 1.332 . S
N822 C827 1.332 . S
C823 C824 1.388 . S
C823 C827 1.382 . S
C823 H846 0.950 . S
C824 C823 1.388 . S
C824 C825 1.386 . S
C825 C824 1.386 . S
C825 C826 1.382 . S
C825 H847 0.950 . S
C826 N822 1.332 . S
C826 C825 1.382 . S
C826 H828 0.952 . S
C827 N822 1.332 . S
C827 C823 1.382 . S
C827 H829 0.948 . S
H828 C826 0.952 . S
H829 C827 0.948 . S
H830 C819 0.952 . S
H831 C821 0.948 . S
C832 C798 1.395 . S
C832 C802 1.391 . S
C833 C795 1.389 . S
C833 C815 1.392 . S
C834 C805 1.392 . S
C834 C807 1.389 . S
C835 C810 1.395 . S
C835 C812 1.391 . S
H836 C796 0.951 . S
H837 C797 0.950 . S
H838 C803 0.949 . S
H839 C804 0.950 . S
H840 C808 0.951 . S
H841 C809 0.950 . S
H842 C813 0.949 . S
H843 C814 0.950 . S
H844 C818 0.950 . S
H845 C820 0.950 . S
H846 C823 0.950 . S
H847 C825 0.950 . S
C848 C849 1.363 . S
C848 C854 1.379 1_565 S
C848 N856 1.356 . S
C849 C848 1.363 . S
C849 C855 1.363 . S
C850 C851 1.363 . S
C850 C855 1.379 1_545 S
C850 N857 1.356 . S
C851 C850 1.363 . S
C851 C854 1.363 . S
N852 C854 1.356 . S
N852 H864 0.984 . S
N852 H865 0.985 . S
N853 C855 1.356 . S
N853 H858 0.984 . S
N853 H859 0.985 . S
C854 C848 1.379 1_545 S
C854 C851 1.363 . S
C854 N852 1.356 . S
C855 C849 1.363 . S
C855 C850 1.379 1_565 S
C855 N853 1.356 . S
N856 C848 1.356 . S
N856 H862 0.984 . S
N856 H863 0.984 . S
N857 C850 1.356 . S
N857 H860 0.984 . S
N857 H861 0.985 . S
H858 N853 0.984 . S
H859 N853 0.985 . S
H860 N857 0.984 . S
H861 N857 0.985 . S
H862 N856 0.984 . S
H863 N856 0.984 . S
H864 N852 0.984 . S
H865 N852 0.985 . S
C866 C867 1.363 . S
C866 C872 1.379 1_455 S
C866 N874 1.356 . S
C867 C866 1.363 . S
C867 C873 1.363 . S
C868 C869 1.363 . S
C868 C873 1.379 1_655 S
C868 N875 1.356 . S
C869 C868 1.363 . S
C869 C872 1.363 . S
N870 C872 1.356 . S
N870 H882 0.984 . S
N870 H883 0.985 . S
N871 C873 1.356 . S
N871 H876 0.984 . S
N871 H877 0.985 . S
C872 C866 1.379 1_655 S
C872 C869 1.363 . S
C872 N870 1.356 . S
C873 C867 1.363 . S
C873 C868 1.379 1_455 S
C873 N871 1.356 . S
N874 C866 1.356 . S
N874 H880 0.984 . S
N874 H881 0.984 . S
N875 C868 1.356 . S
N875 H878 0.984 . S
N875 H879 0.985 . S
H876 N871 0.984 . S
H877 N871 0.985 . S
H878 N875 0.984 . S
H879 N875 0.985 . S
H880 N874 0.984 . S
H881 N874 0.984 . S
H882 N870 0.984 . S
H883 N870 0.985 . S
C884 C885 1.363 . S
C884 C890 1.379 1_565 S
C884 N892 1.356 . S
C885 C884 1.363 . S
C885 C891 1.363 . S
C886 C887 1.363 . S
C886 C891 1.379 1_545 S
C886 N893 1.356 . S
C887 C886 1.363 . S
C887 C890 1.363 . S
N888 C890 1.356 . S
N888 H900 0.984 . S
N888 H901 0.985 . S
N889 C891 1.356 . S
N889 H894 0.984 . S
N889 H895 0.985 . S
C890 C884 1.379 1_545 S
C890 C887 1.363 . S
C890 N888 1.356 . S
C891 C885 1.363 . S
C891 C886 1.379 1_565 S
C891 N889 1.356 . S
N892 C884 1.356 . S
N892 H898 0.984 . S
N892 H899 0.984 . S
N893 C886 1.356 . S
N893 H896 0.984 . S
N893 H897 0.985 . S
H894 N889 0.984 . S
H895 N889 0.985 . S
H896 N893 0.984 . S
H897 N893 0.985 . S
H898 N892 0.984 . S
H899 N892 0.984 . S
H900 N888 0.984 . S
H901 N888 0.985 . S
C902 C903 1.363 . S
C902 C908 1.379 1_455 S
C902 N910 1.356 . S
C903 C902 1.363 . S
C903 C909 1.363 . S
C904 C905 1.363 . S
C904 C909 1.379 1_655 S
C904 N911 1.356 . S
C905 C904 1.363 . S
C905 C908 1.363 . S
N906 C908 1.356 . S
N906 H918 0.984 . S
N906 H919 0.985 . S
N907 C909 1.356 . S
N907 H912 0.984 . S
N907 H913 0.985 . S
C908 C902 1.379 1_655 S
C908 C905 1.363 . S
C908 N906 1.356 . S
C909 C903 1.363 . S
C909 C904 1.379 1_455 S
C909 N907 1.356 . S
N910 C902 1.356 . S
N910 H916 0.984 . S
N910 H917 0.984 . S
N911 C904 1.356 . S
N911 H914 0.984 . S
N911 H915 0.985 . S
H912 N907 0.984 . S
H913 N907 0.985 . S
H914 N911 0.984 . S
H915 N911 0.985 . S
H916 N910 0.984 . S
H917 N910 0.984 . S
H918 N906 0.984 . S
H919 N906 0.985 . S
C920 C921 1.363 . S
C920 C926 1.379 . S
C920 N928 1.356 . S
C921 C920 1.363 . S
C921 C927 1.363 . S
C922 C923 1.364 1_556 S
C922 C927 1.379 1_556 S
C922 N929 1.355 . S
C923 C922 1.364 1_554 S
C923 C926 1.363 . S
N924 C926 1.356 . S
N924 H936 0.984 . S
N924 H937 0.985 . S
N925 C927 1.356 1_556 S
N925 H930 0.984 . S
N925 H931 0.985 . S
C926 C920 1.379 . S
C926 C923 1.363 . S
C926 N924 1.356 . S
C927 C921 1.363 . S
C927 C922 1.379 1_554 S
C927 N925 1.356 1_554 S
N928 C920 1.356 . S
N928 H934 0.984 . S
N928 H935 0.984 . S
N929 C922 1.355 . S
N929 H932 0.984 . S
N929 H933 0.985 . S
H930 N925 0.984 . S
H931 N925 0.985 . S
H932 N929 0.984 . S
H933 N929 0.985 . S
H934 N928 0.984 . S
H935 N928 0.984 . S
H936 N924 0.984 . S
H937 N924 0.985 . S
C938 C939 1.363 . S
C938 C944 1.379 . S
C938 N946 1.356 . S
C939 C938 1.363 . S
C939 C945 1.363 . S
C940 C941 1.363 . S
C940 C945 1.379 . S
C940 N947 1.356 . S
C941 C940 1.363 . S
C941 C944 1.363 . S
N942 C944 1.356 . S
N942 H954 0.984 . S
N942 H955 0.985 . S
N943 C945 1.356 . S
N943 H948 0.984 . S
N943 H949 0.985 . S
C944 C938 1.379 . S
C944 C941 1.363 . S
C944 N942 1.356 . S
C945 C939 1.363 . S
C945 C940 1.379 . S
C945 N943 1.356 . S
N946 C938 1.356 . S
N946 H952 0.984 . S
N946 H953 0.984 . S
N947 C940 1.356 . S
N947 H950 0.984 . S
N947 H951 0.985 . S
H948 N943 0.984 . S
H949 N943 0.985 . S
H950 N947 0.984 . S
H951 N947 0.985 . S
H952 N946 0.984 . S
H953 N946 0.984 . S
H954 N942 0.984 . S
H955 N942 0.985 . S
C956 C957 1.363 . S
C956 C962 1.379 . S
C956 N964 1.356 1_554 S
C957 C956 1.363 . S
C957 C963 1.363 . S
C958 C959 1.363 . S
C958 C963 1.379 . S
C958 N965 1.356 . S
C959 C958 1.363 . S
C959 C962 1.363 . S
N960 C962 1.356 1_556 S
N960 H972 0.984 . S
N960 H973 0.985 . S
N961 C963 1.356 . S
N961 H966 0.984 . S
N961 H967 0.985 . S
C962 C956 1.379 . S
C962 C959 1.363 . S
C962 N960 1.356 1_554 S
C963 C957 1.363 . S
C963 C958 1.379 . S
C963 N961 1.356 . S
N964 C956 1.356 1_556 S
N964 H970 0.984 . S
N964 H971 0.984 . S
N965 C958 1.356 . S
N965 H968 0.984 . S
N965 H969 0.985 . S
H966 N961 0.984 . S
H967 N961 0.985 . S
H968 N965 0.984 . S
H969 N965 0.985 . S
H970 N964 0.984 . S
H971 N964 0.984 . S
H972 N960 0.984 . S
H973 N960 0.985 . S
C974 C975 1.363 . S
C974 C980 1.379 . S
C974 N982 1.356 1_556 S
C975 C974 1.363 . S
C975 C981 1.363 . S
C976 C977 1.363 . S
C976 C981 1.379 . S
C976 N983 1.356 . S
C977 C976 1.363 . S
C977 C980 1.363 . S
N978 C980 1.356 . S
N978 H990 0.984 1_556 S
N978 H991 0.985 . S
N979 C981 1.356 . S
N979 H984 0.984 . S
N979 H985 0.985 . S
C980 C974 1.379 . S
C980 C977 1.363 . S
C980 N978 1.356 . S
C981 C975 1.363 . S
C981 C976 1.379 . S
C981 N979 1.356 . S
N982 C974 1.356 1_554 S
N982 H988 0.984 . S
N982 H989 0.984 . S
N983 C976 1.356 . S
N983 H986 0.984 . S
N983 H987 0.985 . S
H984 N979 0.984 . S
H985 N979 0.985 . S
H986 N983 0.984 . S
H987 N983 0.985 . S
H988 N982 0.984 . S
H989 N982 0.984 . S
H990 N978 0.984 1_554 S
H991 N978 0.985 . S
C992 C993 1.363 . S
C992 C998 1.379 . S
C992 N1000 1.356 . S
C993 C992 1.363 . S
C993 C999 1.363 . S
C994 C995 1.363 . S
C994 C999 1.379 . S
C994 N1001 1.356 . S
C995 C994 1.363 . S
C995 C998 1.363 . S
N996 C998 1.356 . S
N996 H1008 0.984 . S
N996 H1009 0.985 . S
N997 C999 1.356 . S
N997 H1002 0.984 . S
N997 H1003 0.985 . S
C998 C992 1.379 . S
C998 C995 1.363 . S
C998 N996 1.356 . S
C999 C993 1.363 . S
C999 C994 1.379 . S
C999 N997 1.356 . S
N1000 C992 1.356 . S
N1000 H1006 0.984 . S
N1000 H1007 0.984 . S
N1001 C994 1.356 . S
N1001 H1004 0.984 . S
N1001 H1005 0.985 . S
H1002 N997 0.984 . S
H1003 N997 0.985 . S
H1004 N1001 0.984 . S
H1005 N1001 0.985 . S
H1006 N1000 0.984 . S
H1007 N1000 0.984 . S
H1008 N996 0.984 . S
H1009 N996 0.985 . S
C1010 C1011 1.363 . S
C1010 C1016 1.379 . S
C1010 N1018 1.356 . S
C1011 C1010 1.363 . S
C1011 C1017 1.363 . S
C1012 C1013 1.363 . S
C1012 C1017 1.379 . S
C1012 N1019 1.356 . S
C1013 C1012 1.363 . S
C1013 C1016 1.363 . S
N1014 C1016 1.356 . S
N1014 H1026 0.984 . S
N1014 H1027 0.985 . S
N1015 C1017 1.356 . S
N1015 H1020 0.984 . S
N1015 H1021 0.985 . S
C1016 C1010 1.379 . S
C1016 C1013 1.363 . S
C1016 N1014 1.356 . S
C1017 C1011 1.363 . S
C1017 C1012 1.379 . S
C1017 N1015 1.356 . S
N1018 C1010 1.356 . S
N1018 H1024 0.984 . S
N1018 H1025 0.984 . S
N1019 C1012 1.356 . S
N1019 H1022 0.984 . S
N1019 H1023 0.985 . S
H1020 N1015 0.984 . S
H1021 N1015 0.985 . S
H1022 N1019 0.984 . S
H1023 N1019 0.985 . S
H1024 N1018 0.984 . S
H1025 N1018 0.984 . S
H1026 N1014 0.984 . S
H1027 N1014 0.985 . S
C1028 C1029 1.363 . S
C1028 C1034 1.379 . S
C1028 N1036 1.356 . S
C1029 C1028 1.363 . S
C1029 C1035 1.363 . S
C1030 C1031 1.363 . S
C1030 C1035 1.379 . S
C1030 N1037 1.356 . S
C1031 C1030 1.363 . S
C1031 C1034 1.363 . S
N1032 C1034 1.356 . S
N1032 H1044 0.984 . S
N1032 H1045 0.985 . S
N1033 C1035 1.356 . S
N1033 H1038 0.984 . S
N1033 H1039 0.985 . S
C1034 C1028 1.379 . S
C1034 C1031 1.363 . S
C1034 N1032 1.356 . S
C1035 C1029 1.363 . S
C1035 C1030 1.379 . S
C1035 N1033 1.356 . S
N1036 C1028 1.356 . S
N1036 H1042 0.984 . S
N1036 H1043 0.984 . S
N1037 C1030 1.356 . S
N1037 H1040 0.984 . S
N1037 H1041 0.985 . S
H1038 N1033 0.984 . S
H1039 N1033 0.985 . S
H1040 N1037 0.984 . S
H1041 N1037 0.985 . S
H1042 N1036 0.984 . S
H1043 N1036 0.984 . S
H1044 N1032 0.984 . S
H1045 N1032 0.985 . S
C1046 C1047 1.363 . S
C1046 C1052 1.379 . S
C1046 N1054 1.356 . S
C1047 C1046 1.363 . S
C1047 C1053 1.363 . S
C1048 C1049 1.363 . S
C1048 C1053 1.379 . S
C1048 N1055 1.356 . S
C1049 C1048 1.363 . S
C1049 C1052 1.363 . S
N1050 C1052 1.356 . S
N1050 H1062 0.984 . S
N1050 H1063 0.985 . S
N1051 C1053 1.356 . S
N1051 H1056 0.984 . S
N1051 H1057 0.985 . S
C1052 C1046 1.379 . S
C1052 C1049 1.363 . S
C1052 N1050 1.356 . S
C1053 C1047 1.363 . S
C1053 C1048 1.379 . S
C1053 N1051 1.356 . S
N1054 C1046 1.356 . S
N1054 H1060 0.984 . S
N1054 H1061 0.984 . S
N1055 C1048 1.356 . S
N1055 H1058 0.984 . S
N1055 H1059 0.985 . S
H1056 N1051 0.984 . S
H1057 N1051 0.985 . S
H1058 N1055 0.984 . S
H1059 N1055 0.985 . S
H1060 N1054 0.984 . S
H1061 N1054 0.984 . S
H1062 N1050 0.984 . S
H1063 N1050 0.985 . S
C1064 C1065 1.363 . S
C1064 C1070 1.379 1_565 S
C1064 N1072 1.356 . S
C1065 C1064 1.363 . S
C1065 C1071 1.363 . S
C1066 C1067 1.363 . S
C1066 C1071 1.379 1_545 S
C1066 N1073 1.356 . S
C1067 C1066 1.363 . S
C1067 C1070 1.363 . S
N1068 C1070 1.356 . S
N1068 H1080 0.984 . S
N1068 H1081 0.985 . S
N1069 C1071 1.356 . S
N1069 H1074 0.984 . S
N1069 H1075 0.985 . S
C1070 C1064 1.379 1_545 S
C1070 C1067 1.363 . S
C1070 N1068 1.356 . S
C1071 C1065 1.363 . S
C1071 C1066 1.379 1_565 S
C1071 N1069 1.356 . S
N1072 C1064 1.356 . S
N1072 H1078 0.984 . S
N1072 H1079 0.984 . S
N1073 C1066 1.356 . S
N1073 H1076 0.984 . S
N1073 H1077 0.985 . S
H1074 N1069 0.984 . S
H1075 N1069 0.985 . S
H1076 N1073 0.984 . S
H1077 N1073 0.985 . S
H1078 N1072 0.984 . S
H1079 N1072 0.984 . S
H1080 N1068 0.984 . S
H1081 N1068 0.985 . S
C1082 C1083 1.363 . S
C1082 C1088 1.379 1_655 S
C1082 N1090 1.356 . S
C1083 C1082 1.363 . S
C1083 C1089 1.363 . S
C1084 C1085 1.363 . S
C1084 C1089 1.379 1_455 S
C1084 N1091 1.356 . S
C1085 C1084 1.363 . S
C1085 C1088 1.363 . S
N1086 C1088 1.356 . S
N1086 H1098 0.984 . S
N1086 H1099 0.985 . S
N1087 C1089 1.356 . S
N1087 H1092 0.984 . S
N1087 H1093 0.985 . S
C1088 C1082 1.379 1_455 S
C1088 C1085 1.363 . S
C1088 N1086 1.356 . S
C1089 C1083 1.363 . S
C1089 C1084 1.379 1_655 S
C1089 N1087 1.356 . S
N1090 C1082 1.356 . S
N1090 H1096 0.984 . S
N1090 H1097 0.984 . S
N1091 C1084 1.356 . S
N1091 H1094 0.984 . S
N1091 H1095 0.985 . S
H1092 N1087 0.984 . S
H1093 N1087 0.985 . S
H1094 N1091 0.984 . S
H1095 N1091 0.985 . S
H1096 N1090 0.984 . S
H1097 N1090 0.984 . S
H1098 N1086 0.984 . S
H1099 N1086 0.985 . S
C1100 C1101 1.363 . S
C1100 C1106 1.379 1_565 S
C1100 N1108 1.356 . S
C1101 C1100 1.363 . S
C1101 C1107 1.363 . S
C1102 C1103 1.363 . S
C1102 C1107 1.379 1_545 S
C1102 N1109 1.356 . S
C1103 C1102 1.363 . S
C1103 C1106 1.363 . S
N1104 C1106 1.356 . S
N1104 H1116 0.984 . S
N1104 H1117 0.985 . S
N1105 C1107 1.356 . S
N1105 H1110 0.984 . S
N1105 H1111 0.985 . S
C1106 C1100 1.379 1_545 S
C1106 C1103 1.363 . S
C1106 N1104 1.356 . S
C1107 C1101 1.363 . S
C1107 C1102 1.379 1_565 S
C1107 N1105 1.356 . S
N1108 C1100 1.356 . S
N1108 H1114 0.984 . S
N1108 H1115 0.984 . S
N1109 C1102 1.356 . S
N1109 H1112 0.984 . S
N1109 H1113 0.985 . S
H1110 N1105 0.984 . S
H1111 N1105 0.985 . S
H1112 N1109 0.984 . S
H1113 N1109 0.985 . S
H1114 N1108 0.984 . S
H1115 N1108 0.984 . S
H1116 N1104 0.984 . S
H1117 N1104 0.985 . S
C1118 C1119 1.363 . S
C1118 C1124 1.379 1_655 S
C1118 N1126 1.356 . S
C1119 C1118 1.363 . S
C1119 C1125 1.363 . S
C1120 C1121 1.363 . S
C1120 C1125 1.379 1_455 S
C1120 N1127 1.356 . S
C1121 C1120 1.363 . S
C1121 C1124 1.363 . S
N1122 C1124 1.356 . S
N1122 H1134 0.984 . S
N1122 H1135 0.985 . S
N1123 C1125 1.356 . S
N1123 H1128 0.984 . S
N1123 H1129 0.985 . S
C1124 C1118 1.379 1_455 S
C1124 C1121 1.363 . S
C1124 N1122 1.356 . S
C1125 C1119 1.363 . S
C1125 C1120 1.379 1_655 S
C1125 N1123 1.356 . S
N1126 C1118 1.356 . S
N1126 H1132 0.984 . S
N1126 H1133 0.984 . S
N1127 C1120 1.356 . S
N1127 H1130 0.984 . S
N1127 H1131 0.985 . S
H1128 N1123 0.984 . S
H1129 N1123 0.985 . S
H1130 N1127 0.984 . S
H1131 N1127 0.985 . S
H1132 N1126 0.984 . S
H1133 N1126 0.984 . S
H1134 N1122 0.984 . S
H1135 N1122 0.985 . S
C1136 C1137 1.363 . S
C1136 C1142 1.379 . S
C1136 N1144 1.356 . S
C1137 C1136 1.363 . S
C1137 C1143 1.363 . S
C1138 C1139 1.363 . S
C1138 C1143 1.379 . S
C1138 N1145 1.356 . S
C1139 C1138 1.363 . S
C1139 C1142 1.363 . S
N1140 C1142 1.356 . S
N1140 H1152 0.984 . S
N1140 H1153 0.985 . S
N1141 C1143 1.356 . S
N1141 H1146 0.984 . S
N1141 H1147 0.985 . S
C1142 C1136 1.379 . S
C1142 C1139 1.363 . S
C1142 N1140 1.356 . S
C1143 C1137 1.363 . S
C1143 C1138 1.379 . S
C1143 N1141 1.356 . S
N1144 C1136 1.356 . S
N1144 H1150 0.984 . S
N1144 H1151 0.984 . S
N1145 C1138 1.356 . S
N1145 H1148 0.984 . S
N1145 H1149 0.985 . S
H1146 N1141 0.984 . S
H1147 N1141 0.985 . S
H1148 N1145 0.984 . S
H1149 N1145 0.985 . S
H1150 N1144 0.984 . S
H1151 N1144 0.984 . S
H1152 N1140 0.984 . S
H1153 N1140 0.985 . S
C1154 C1155 1.363 . S
C1154 C1160 1.379 . S
C1154 N1162 1.356 . S
C1155 C1154 1.363 . S
C1155 C1161 1.363 . S
C1156 C1157 1.363 . S
C1156 C1161 1.379 . S
C1156 N1163 1.356 . S
C1157 C1156 1.363 . S
C1157 C1160 1.363 . S
N1158 C1160 1.356 . S
N1158 H1170 0.984 . S
N1158 H1171 0.985 . S
N1159 C1161 1.356 . S
N1159 H1164 0.984 . S
N1159 H1165 0.985 . S
C1160 C1154 1.379 . S
C1160 C1157 1.363 . S
C1160 N1158 1.356 . S
C1161 C1155 1.363 . S
C1161 C1156 1.379 . S
C1161 N1159 1.356 . S
N1162 C1154 1.356 . S
N1162 H1168 0.984 . S
N1162 H1169 0.984 . S
N1163 C1156 1.356 . S
N1163 H1166 0.984 . S
N1163 H1167 0.985 . S
H1164 N1159 0.984 . S
H1165 N1159 0.985 . S
H1166 N1163 0.984 . S
H1167 N1163 0.985 . S
H1168 N1162 0.984 . S
H1169 N1162 0.984 . S
H1170 N1158 0.984 . S
H1171 N1158 0.985 . S
C1172 C1173 1.363 . S
C1172 C1178 1.379 . S
C1172 N1180 1.356 . S
C1173 C1172 1.363 . S
C1173 C1179 1.363 . S
C1174 C1175 1.363 . S
C1174 C1179 1.379 . S
C1174 N1181 1.356 . S
C1175 C1174 1.363 . S
C1175 C1178 1.363 . S
N1176 C1178 1.356 . S
N1176 H1188 0.984 . S
N1176 H1189 0.985 . S
N1177 C1179 1.356 . S
N1177 H1182 0.984 . S
N1177 H1183 0.985 1_554 S
C1178 C1172 1.379 . S
C1178 C1175 1.363 . S
C1178 N1176 1.356 . S
C1179 C1173 1.363 . S
C1179 C1174 1.379 . S
C1179 N1177 1.356 . S
N1180 C1172 1.356 . S
N1180 H1186 0.984 . S
N1180 H1187 0.984 . S
N1181 C1174 1.356 . S
N1181 H1184 0.984 . S
N1181 H1185 0.985 . S
H1182 N1177 0.984 . S
H1183 N1177 0.985 1_556 S
H1184 N1181 0.984 . S
H1185 N1181 0.985 . S
H1186 N1180 0.984 . S
H1187 N1180 0.984 . S
H1188 N1176 0.984 . S
H1189 N1176 0.985 . S
C1190 C1191 1.363 . S
C1190 C1196 1.379 . S
C1190 N1198 1.356 . S
C1191 C1190 1.363 . S
C1191 C1197 1.363 . S
C1192 C1193 1.363 . S
C1192 C1197 1.379 . S
C1192 N1199 1.356 . S
C1193 C1192 1.363 . S
C1193 C1196 1.363 . S
N1194 C1196 1.356 . S
N1194 H1206 0.984 . S
N1194 H1207 0.985 . S
N1195 C1197 1.356 . S
N1195 H1200 0.984 . S
N1195 H1201 0.985 . S
C1196 C1190 1.379 . S
C1196 C1193 1.363 . S
C1196 N1194 1.356 . S
C1197 C1191 1.363 . S
C1197 C1192 1.379 . S
C1197 N1195 1.356 . S
N1198 C1190 1.356 . S
N1198 H1204 0.984 . S
N1198 H1205 0.984 . S
N1199 C1192 1.356 . S
N1199 H1202 0.984 . S
N1199 H1203 0.985 . S
H1200 N1195 0.984 . S
H1201 N1195 0.985 . S
H1202 N1199 0.984 . S
H1203 N1199 0.985 . S
H1204 N1198 0.984 . S
H1205 N1198 0.984 . S
H1206 N1194 0.984 . S
H1207 N1194 0.985 . S
C1208 C1209 1.363 . S
C1208 C1214 1.379 . S
C1208 N1216 1.356 . S
C1209 C1208 1.363 . S
C1209 C1215 1.363 . S
C1210 C1211 1.363 . S
C1210 C1215 1.379 . S
C1210 N1217 1.356 . S
C1211 C1210 1.363 . S
C1211 C1214 1.363 . S
N1212 C1214 1.356 . S
N1212 H1224 0.984 . S
N1212 H1225 0.985 . S
N1213 C1215 1.356 . S
N1213 H1218 0.984 . S
N1213 H1219 0.985 . S
C1214 C1208 1.379 . S
C1214 C1211 1.363 . S
C1214 N1212 1.356 . S
C1215 C1209 1.363 . S
C1215 C1210 1.379 . S
C1215 N1213 1.356 . S
N1216 C1208 1.356 . S
N1216 H1222 0.984 . S
N1216 H1223 0.984 . S
N1217 C1210 1.356 . S
N1217 H1220 0.984 . S
N1217 H1221 0.985 . S
H1218 N1213 0.984 . S
H1219 N1213 0.985 . S
H1220 N1217 0.984 . S
H1221 N1217 0.985 . S
H1222 N1216 0.984 . S
H1223 N1216 0.984 . S
H1224 N1212 0.984 . S
H1225 N1212 0.985 . S
C1226 C1227 1.363 . S
C1226 C1232 1.379 . S
C1226 N1234 1.356 . S
C1227 C1226 1.363 . S
C1227 C1233 1.363 . S
C1228 C1229 1.363 . S
C1228 C1233 1.379 . S
C1228 N1235 1.356 . S
C1229 C1228 1.363 . S
C1229 C1232 1.363 . S
N1230 C1232 1.356 . S
N1230 H1242 0.984 . S
N1230 H1243 0.985 . S
N1231 C1233 1.356 . S
N1231 H1236 0.984 . S
N1231 H1237 0.985 . S
C1232 C1226 1.379 . S
C1232 C1229 1.363 . S
C1232 N1230 1.356 . S
C1233 C1227 1.363 . S
C1233 C1228 1.379 . S
C1233 N1231 1.356 . S
N1234 C1226 1.356 . S
N1234 H1240 0.984 . S
N1234 H1241 0.984 . S
N1235 C1228 1.356 . S
N1235 H1238 0.984 . S
N1235 H1239 0.985 . S
H1236 N1231 0.984 . S
H1237 N1231 0.985 . S
H1238 N1235 0.984 . S
H1239 N1235 0.985 . S
H1240 N1234 0.984 . S
H1241 N1234 0.984 . S
H1242 N1230 0.984 . S
H1243 N1230 0.985 . S
C1244 C1245 1.363 . S
C1244 C1250 1.379 . S
C1244 N1252 1.356 . S
C1245 C1244 1.363 . S
C1245 C1251 1.363 . S
C1246 C1247 1.363 . S
C1246 C1251 1.379 . S
C1246 N1253 1.356 . S
C1247 C1246 1.363 . S
C1247 C1250 1.363 . S
N1248 C1250 1.356 . S
N1248 H1260 0.984 . S
N1248 H1261 0.985 . S
N1249 C1251 1.356 . S
N1249 H1254 0.984 . S
N1249 H1255 0.985 . S
C1250 C1244 1.379 . S
C1250 C1247 1.363 . S
C1250 N1248 1.356 . S
C1251 C1245 1.363 . S
C1251 C1246 1.379 . S
C1251 N1249 1.356 . S
N1252 C1244 1.356 . S
N1252 H1258 0.984 . S
N1252 H1259 0.984 . S
N1253 C1246 1.356 . S
N1253 H1256 0.984 . S
N1253 H1257 0.985 . S
H1254 N1249 0.984 . S
H1255 N1249 0.985 . S
H1256 N1253 0.984 . S
H1257 N1253 0.985 . S
H1258 N1252 0.984 . S
H1259 N1252 0.984 . S
H1260 N1248 0.984 . S
H1261 N1248 0.985 . S
C1262 C1263 1.363 . S
C1262 C1268 1.379 . S
C1262 N1270 1.356 . S
C1263 C1262 1.363 . S
C1263 C1269 1.363 . S
C1264 C1265 1.363 . S
C1264 C1269 1.379 . S
C1264 N1271 1.356 . S
C1265 C1264 1.363 . S
C1265 C1268 1.363 . S
N1266 C1268 1.356 . S
N1266 H1278 0.984 . S
N1266 H1279 0.985 . S
N1267 C1269 1.356 . S
N1267 H1272 0.984 . S
N1267 H1273 0.985 . S
C1268 C1262 1.379 . S
C1268 C1265 1.363 . S
C1268 N1266 1.356 . S
C1269 C1263 1.363 . S
C1269 C1264 1.379 . S
C1269 N1267 1.356 . S
N1270 C1262 1.356 . S
N1270 H1276 0.984 . S
N1270 H1277 0.984 . S
N1271 C1264 1.356 . S
N1271 H1274 0.984 . S
N1271 H1275 0.985 . S
H1272 N1267 0.984 . S
H1273 N1267 0.985 . S
H1274 N1271 0.984 . S
H1275 N1271 0.985 . S
H1276 N1270 0.984 . S
H1277 N1270 0.984 . S
H1278 N1266 0.984 . S
H1279 N1266 0.985 . S
C1280 C1281 1.363 . S
C1280 C1286 1.379 . S
C1280 N1288 1.356 . S
C1281 C1280 1.363 . S
C1281 C1287 1.363 . S
C1282 C1283 1.363 . S
C1282 C1287 1.379 . S
C1282 N1289 1.356 . S
C1283 C1282 1.363 . S
C1283 C1286 1.363 . S
N1284 C1286 1.356 . S
N1284 H1296 0.984 . S
N1284 H1297 0.985 1_556 S
N1285 C1287 1.356 . S
N1285 H1290 0.984 . S
N1285 H1291 0.985 . S
C1286 C1280 1.379 . S
C1286 C1283 1.363 . S
C1286 N1284 1.356 . S
C1287 C1281 1.363 . S
C1287 C1282 1.379 . S
C1287 N1285 1.356 . S
N1288 C1280 1.356 . S
N1288 H1294 0.984 . S
N1288 H1295 0.984 . S
N1289 C1282 1.356 . S
N1289 H1292 0.984 . S
N1289 H1293 0.985 . S
H1290 N1285 0.984 . S
H1291 N1285 0.985 . S
H1292 N1289 0.984 . S
H1293 N1289 0.985 . S
H1294 N1288 0.984 . S
H1295 N1288 0.984 . S
H1296 N1284 0.984 . S
H1297 N1284 0.985 1_554 S
C1298 C1299 1.363 . S
C1298 C1304 1.379 . S
C1298 N1306 1.356 . S
C1299 C1298 1.363 . S
C1299 C1305 1.363 . S
C1300 C1301 1.363 . S
C1300 C1305 1.379 . S
C1300 N1307 1.356 . S
C1301 C1300 1.363 . S
C1301 C1304 1.363 . S
N1302 C1304 1.356 . S
N1302 H1314 0.984 . S
N1302 H1315 0.985 1_554 S
N1303 C1305 1.356 . S
N1303 H1308 0.984 . S
N1303 H1309 0.985 . S
C1304 C1298 1.379 . S
C1304 C1301 1.363 . S
C1304 N1302 1.356 . S
C1305 C1299 1.363 . S
C1305 C1300 1.379 . S
C1305 N1303 1.356 . S
N1306 C1298 1.356 . S
N1306 H1312 0.984 . S
N1306 H1313 0.984 . S
N1307 C1300 1.356 . S
N1307 H1310 0.984 . S
N1307 H1311 0.985 . S
H1308 N1303 0.984 . S
H1309 N1303 0.985 . S
H1310 N1307 0.984 . S
H1311 N1307 0.985 . S
H1312 N1306 0.984 . S
H1313 N1306 0.984 . S
H1314 N1302 0.984 . S
H1315 N1302 0.985 1_556 S
C1316 C1317 1.363 . S
C1316 C1322 1.379 . S
C1316 N1324 1.356 . S
C1317 C1316 1.363 . S
C1317 C1323 1.363 . S
C1318 C1319 1.363 . S
C1318 C1323 1.379 . S
C1318 N1325 1.356 . S
C1319 C1318 1.363 . S
C1319 C1322 1.363 . S
N1320 C1322 1.356 . S
N1320 H1332 0.984 . S
N1320 H1333 0.985 . S
N1321 C1323 1.356 . S
N1321 H1326 0.984 . S
N1321 H1327 0.985 . S
C1322 C1316 1.379 . S
C1322 C1319 1.363 . S
C1322 N1320 1.356 . S
C1323 C1317 1.363 . S
C1323 C1318 1.379 . S
C1323 N1321 1.356 . S
N1324 C1316 1.356 . S
N1324 H1330 0.984 . S
N1324 H1331 0.984 1_556 S
N1325 C1318 1.356 . S
N1325 H1328 0.984 . S
N1325 H1329 0.985 . S
H1326 N1321 0.984 . S
H1327 N1321 0.985 . S
H1328 N1325 0.984 . S
H1329 N1325 0.985 . S
H1330 N1324 0.984 . S
H1331 N1324 0.984 1_554 S
H1332 N1320 0.984 . S
H1333 N1320 0.985 . S
C1334 C1335 1.363 . S
C1334 C1340 1.379 . S
C1334 N1342 1.356 . S
C1335 C1334 1.363 . S
C1335 C1341 1.363 . S
C1336 C1337 1.363 . S
C1336 C1341 1.379 . S
C1336 N1343 1.356 . S
C1337 C1336 1.363 . S
C1337 C1340 1.363 . S
N1338 C1340 1.356 . S
N1338 H1350 0.984 . S
N1338 H1351 0.985 . S
N1339 C1341 1.356 . S
N1339 H1344 0.984 . S
N1339 H1345 0.985 . S
C1340 C1334 1.379 . S
C1340 C1337 1.363 . S
C1340 N1338 1.356 . S
C1341 C1335 1.363 . S
C1341 C1336 1.379 . S
C1341 N1339 1.356 . S
N1342 C1334 1.356 . S
N1342 H1348 0.984 . S
N1342 H1349 0.984 . S
N1343 C1336 1.356 . S
N1343 H1346 0.984 1_554 S
N1343 H1347 0.985 . S
H1344 N1339 0.984 . S
H1345 N1339 0.985 . S
H1346 N1343 0.984 1_556 S
H1347 N1343 0.985 . S
H1348 N1342 0.984 . S
H1349 N1342 0.984 . S
H1350 N1338 0.984 . S
H1351 N1338 0.985 . S
C1352 C1353 1.363 . S
C1352 C1358 1.379 . S
C1352 N1360 1.356 . S
C1353 C1352 1.363 . S
C1353 C1359 1.363 . S
C1354 C1355 1.363 . S
C1354 C1359 1.379 . S
C1354 N1361 1.356 . S
C1355 C1354 1.363 . S
C1355 C1358 1.363 . S
N1356 C1358 1.356 . S
N1356 H1368 0.984 . S
N1356 H1369 0.985 . S
N1357 C1359 1.356 . S
N1357 H1362 0.984 . S
N1357 H1363 0.985 . S
C1358 C1352 1.379 . S
C1358 C1355 1.363 . S
C1358 N1356 1.356 . S
C1359 C1353 1.363 . S
C1359 C1354 1.379 . S
C1359 N1357 1.356 . S
N1360 C1352 1.356 . S
N1360 H1366 0.984 . S
N1360 H1367 0.984 . S
N1361 C1354 1.356 . S
N1361 H1364 0.984 . S
N1361 H1365 0.985 . S
H1362 N1357 0.984 . S
H1363 N1357 0.985 . S
H1364 N1361 0.984 . S
H1365 N1361 0.985 . S
H1366 N1360 0.984 . S
H1367 N1360 0.984 . S
H1368 N1356 0.984 . S
H1369 N1356 0.985 . S
C1370 C1371 1.363 . S
C1370 C1376 1.379 . S
C1370 N1378 1.356 . S
C1371 C1370 1.363 . S
C1371 C1377 1.363 . S
C1372 C1373 1.363 . S
C1372 C1377 1.379 . S
C1372 N1379 1.356 . S
C1373 C1372 1.363 . S
C1373 C1376 1.363 . S
N1374 C1376 1.356 . S
N1374 H1386 0.984 . S
N1374 H1387 0.985 . S
N1375 C1377 1.356 . S
N1375 H1380 0.984 . S
N1375 H1381 0.985 . S
C1376 C1370 1.379 . S
C1376 C1373 1.363 . S
C1376 N1374 1.356 . S
C1377 C1371 1.363 . S
C1377 C1372 1.379 . S
C1377 N1375 1.356 . S
N1378 C1370 1.356 . S
N1378 H1384 0.984 . S
N1378 H1385 0.984 . S
N1379 C1372 1.356 . S
N1379 H1382 0.984 . S
N1379 H1383 0.985 . S
H1380 N1375 0.984 . S
H1381 N1375 0.985 . S
H1382 N1379 0.984 . S
H1383 N1379 0.985 . S
H1384 N1378 0.984 . S
H1385 N1378 0.984 . S
H1386 N1374 0.984 . S
H1387 N1374 0.985 . S
C1388 C1389 1.363 . S
C1388 C1394 1.379 . S
C1388 N1396 1.356 . S
C1389 C1388 1.363 . S
C1389 C1395 1.363 . S
C1390 C1391 1.363 . S
C1390 C1395 1.379 . S
C1390 N1397 1.356 . S
C1391 C1390 1.363 . S
C1391 C1394 1.363 . S
N1392 C1394 1.356 . S
N1392 H1404 0.984 . S
N1392 H1405 0.985 . S
N1393 C1395 1.356 . S
N1393 H1398 0.984 . S
N1393 H1399 0.985 . S
C1394 C1388 1.379 . S
C1394 C1391 1.363 . S
C1394 N1392 1.356 . S
C1395 C1389 1.363 . S
C1395 C1390 1.379 . S
C1395 N1393 1.356 . S
N1396 C1388 1.356 . S
N1396 H1402 0.984 . S
N1396 H1403 0.984 . S
N1397 C1390 1.356 . S
N1397 H1400 0.984 . S
N1397 H1401 0.985 . S
H1398 N1393 0.984 . S
H1399 N1393 0.985 . S
H1400 N1397 0.984 . S
H1401 N1397 0.985 . S
H1402 N1396 0.984 . S
H1403 N1396 0.984 . S
H1404 N1392 0.984 . S
H1405 N1392 0.985 . S
C1406 C1407 1.363 . S
C1406 C1412 1.379 . S
C1406 N1414 1.356 . S
C1407 C1406 1.363 . S
C1407 C1413 1.363 . S
C1408 C1409 1.363 . S
C1408 C1413 1.379 . S
C1408 N1415 1.356 . S
C1409 C1408 1.363 . S
C1409 C1412 1.363 . S
N1410 C1412 1.356 . S
N1410 H1422 0.984 . S
N1410 H1423 0.985 . S
N1411 C1413 1.356 . S
N1411 H1416 0.984 . S
N1411 H1417 0.985 . S
C1412 C1406 1.379 . S
C1412 C1409 1.363 . S
C1412 N1410 1.356 . S
C1413 C1407 1.363 . S
C1413 C1408 1.379 . S
C1413 N1411 1.356 . S
N1414 C1406 1.356 . S
N1414 H1420 0.984 . S
N1414 H1421 0.984 . S
N1415 C1408 1.356 . S
N1415 H1418 0.984 . S
N1415 H1419 0.985 . S
H1416 N1411 0.984 . S
H1417 N1411 0.985 . S
H1418 N1415 0.984 . S
H1419 N1415 0.985 . S
H1420 N1414 0.984 . S
H1421 N1414 0.984 . S
H1422 N1410 0.984 . S
H1423 N1410 0.985 . S
C849 C612 1.706 . S
C851 C38 1.753 . S
C867 C91 1.751 . S
C869 C453 1.699 . S
C885 C144 1.753 . S
C887 C506 1.706 . S
C903 C559 1.699 . S
C905 C197 1.751 . S
C921 C250 1.753 . S
C923 C294 1.705 . S
C939 C303 1.751 . S
C941 C347 1.699 . S
C957 C400 1.706 . S
C959 C356 1.753 . S
C975 C241 1.699 . S
C977 C409 1.751 . S
C993 C188 1.706 . S
C995 C462 1.753 . S
C1011 C515 1.751 . S
C1013 C29 1.699 . S
C1029 C82 1.706 . S
C1031 C568 1.753 . S
C1047 C621 1.751 . S
C1049 C135 1.699 . S
C1065 C674 1.753 . S
C1067 C718 1.705 . S
C1083 C727 1.751 . S
C1085 C771 1.699 . S
C1101 C824 1.706 . S
C1103 C780 1.753 . S
C1119 C665 1.699 . S
C1121 C833 1.751 . S
C1137 C251 1.519 . S
C1139 C39 1.519 . S
C1155 C92 1.512 . S
C1157 C304 1.512 . S
C1173 C145 1.519 . S
C1175 C357 1.519 . S
C1191 C410 1.512 . S
C1193 C198 1.512 . S
C1209 C463 1.519 . S
C1211 C675 1.519 . S
C1227 C728 1.512 . S
C1229 C516 1.512 . S
C1245 C569 1.519 . S
C1247 C781 1.519 . S
C1263 C834 1.512 . S
C1265 C622 1.512 . S
C1281 C764 2.099 . S
C1283 C22 2.099 1_556 S
C1299 C817 2.088 . S
C1301 C75 2.088 1_554 S
C1317 C128 2.099 1_556 S
C1319 C658 2.099 . S
C1335 C711 2.088 . S
C1337 C181 2.088 1_554 S
C1353 C552 2.099 . S
C1355 C234 2.099 . S
C1371 C605 2.088 . S
C1373 C287 2.088 . S
C1389 C340 2.099 . S
C1391 C446 2.099 . S
C1407 C499 2.088 . S
C1409 C393 2.088 . S
