# Generated by pormake.
# Topology why, (6)-cn, num edge types: 1
# Building blocks:
#     Node 0, Type 0, BuildingBlock: BETFAJ_clean_sbu_0, # of connection points: 6
#     Node 1, Type 0, BuildingBlock: BETFAJ_clean_sbu_0, # of connection points: 6
#     Node 2, Type 0, BuildingBlock: BETFAJ_clean_sbu_0, # of connection points: 6
#     Node 3, Type 0, BuildingBlock: BETFAJ_clean_sbu_0, # of connection points: 6
#     Node 4, Type 0, BuildingBlock: BETFAJ_clean_sbu_0, # of connection points: 6
#     Node 5, Type 0, BuildingBlock: BETFAJ_clean_sbu_0, # of connection points: 6
#     Node 6, Type 0, BuildingBlock: BETFAJ_clean_sbu_0, # of connection points: 6
#     Node 7, Type 0, BuildingBlock: BETFAJ_clean_sbu_0, # of connection points: 6
#     Node 8, Type 0, BuildingBlock: BETFAJ_clean_sbu_0, # of connection points: 6
#     Node 9, Type 0, BuildingBlock: BETFAJ_clean_sbu_0, # of connection points: 6
#     Node 10, Type 0, BuildingBlock: BETFAJ_clean_sbu_0, # of connection points: 6
#     Node 11, Type 0, BuildingBlock: BETFAJ_clean_sbu_0, # of connection points: 6
#     Node 12, Type 0, BuildingBlock: BETFAJ_clean_sbu_0, # of connection points: 6
#     Node 13, Type 0, BuildingBlock: BETFAJ_clean_sbu_0, # of connection points: 6
#     Node 14, Type 0, BuildingBlock: BETFAJ_clean_sbu_0, # of connection points: 6
#     Node 15, Type 0, BuildingBlock: BETFAJ_clean_sbu_0, # of connection points: 6
#     Edge 16, Type (0, 0), BuildingBlock: AJUNOK_clean_linker_0, # of connection points: 2
#     Edge 17, Type (0, 0), BuildingBlock: AJUNOK_clean_linker_0, # of connection points: 2
#     Edge 18, Type (0, 0), BuildingBlock: AJUNOK_clean_linker_0, # of connection points: 2
#     Edge 19, Type (0, 0), BuildingBlock: AJUNOK_clean_linker_0, # of connection points: 2
#     Edge 20, Type (0, 0), BuildingBlock: AJUNOK_clean_linker_0, # of connection points: 2
#     Edge 21, Type (0, 0), BuildingBlock: AJUNOK_clean_linker_0, # of connection points: 2
#     Edge 22, Type (0, 0), BuildingBlock: AJUNOK_clean_linker_0, # of connection points: 2
#     Edge 23, Type (0, 0), BuildingBlock: AJUNOK_clean_linker_0, # of connection points: 2
#     Edge 24, Type (0, 0), BuildingBlock: AJUNOK_clean_linker_0, # of connection points: 2
#     Edge 25, Type (0, 0), BuildingBlock: AJUNOK_clean_linker_0, # of connection points: 2
#     Edge 26, Type (0, 0), BuildingBlock: AJUNOK_clean_linker_0, # of connection points: 2
#     Edge 27, Type (0, 0), BuildingBlock: AJUNOK_clean_linker_0, # of connection points: 2
#     Edge 28, Type (0, 0), BuildingBlock: AJUNOK_clean_linker_0, # of connection points: 2
#     Edge 29, Type (0, 0), BuildingBlock: AJUNOK_clean_linker_0, # of connection points: 2
#     Edge 30, Type (0, 0), BuildingBlock: AJUNOK_clean_linker_0, # of connection points: 2
#     Edge 31, Type (0, 0), BuildingBlock: AJUNOK_clean_linker_0, # of connection points: 2
#     Edge 32, Type (0, 0), BuildingBlock: AJUNOK_clean_linker_0, # of connection points: 2
#     Edge 33, Type (0, 0), BuildingBlock: AJUNOK_clean_linker_0, # of connection points: 2
#     Edge 34, Type (0, 0), BuildingBlock: AJUNOK_clean_linker_0, # of connection points: 2
#     Edge 35, Type (0, 0), BuildingBlock: AJUNOK_clean_linker_0, # of connection points: 2
#     Edge 36, Type (0, 0), BuildingBlock: AJUNOK_clean_linker_0, # of connection points: 2
#     Edge 37, Type (0, 0), BuildingBlock: AJUNOK_clean_linker_0, # of connection points: 2
#     Edge 38, Type (0, 0), BuildingBlock: AJUNOK_clean_linker_0, # of connection points: 2
#     Edge 39, Type (0, 0), BuildingBlock: AJUNOK_clean_linker_0, # of connection points: 2
#     Edge 40, Type (0, 0), BuildingBlock: AJUNOK_clean_linker_0, # of connection points: 2
#     Edge 41, Type (0, 0), BuildingBlock: AJUNOK_clean_linker_0, # of connection points: 2
#     Edge 42, Type (0, 0), BuildingBlock: AJUNOK_clean_linker_0, # of connection points: 2
#     Edge 43, Type (0, 0), BuildingBlock: AJUNOK_clean_linker_0, # of connection points: 2
#     Edge 44, Type (0, 0), BuildingBlock: AJUNOK_clean_linker_0, # of connection points: 2
#     Edge 45, Type (0, 0), BuildingBlock: AJUNOK_clean_linker_0, # of connection points: 2
#     Edge 46, Type (0, 0), BuildingBlock: AJUNOK_clean_linker_0, # of connection points: 2
#     Edge 47, Type (0, 0), BuildingBlock: AJUNOK_clean_linker_0, # of connection points: 2
#     Edge 48, Type (0, 0), BuildingBlock: AJUNOK_clean_linker_0, # of connection points: 2
#     Edge 49, Type (0, 0), BuildingBlock: AJUNOK_clean_linker_0, # of connection points: 2
#     Edge 50, Type (0, 0), BuildingBlock: AJUNOK_clean_linker_0, # of connection points: 2
#     Edge 51, Type (0, 0), BuildingBlock: AJUNOK_clean_linker_0, # of connection points: 2
#     Edge 52, Type (0, 0), BuildingBlock: AJUNOK_clean_linker_0, # of connection points: 2
#     Edge 53, Type (0, 0), BuildingBlock: AJUNOK_clean_linker_0, # of connection points: 2
#     Edge 54, Type (0, 0), BuildingBlock: AJUNOK_clean_linker_0, # of connection points: 2
#     Edge 55, Type (0, 0), BuildingBlock: AJUNOK_clean_linker_0, # of connection points: 2
#     Edge 56, Type (0, 0), BuildingBlock: AJUNOK_clean_linker_0, # of connection points: 2
#     Edge 57, Type (0, 0), BuildingBlock: AJUNOK_clean_linker_0, # of connection points: 2
#     Edge 58, Type (0, 0), BuildingBlock: AJUNOK_clean_linker_0, # of connection points: 2
#     Edge 59, Type (0, 0), BuildingBlock: AJUNOK_clean_linker_0, # of connection points: 2
#     Edge 60, Type (0, 0), BuildingBlock: AJUNOK_clean_linker_0, # of connection points: 2
#     Edge 61, Type (0, 0), BuildingBlock: AJUNOK_clean_linker_0, # of connection points: 2
#     Edge 62, Type (0, 0), BuildingBlock: AJUNOK_clean_linker_0, # of connection points: 2
#     Edge 63, Type (0, 0), BuildingBlock: AJUNOK_clean_linker_0, # of connection points: 2
# Relax obj value: 0.549
# Max RMSD: 0.254
# Mean RMSD: 0.254
data_MOF--net-why--node1-BETFAJ_clean_sbu_0--edge1-AJUNOK_clean_linker_0
_symmetry_space_group_name_H-M    P1
_symmetry_Int_Tables_number       1
_symmetry_cell_setting            triclinic
loop_
_symmetry_equiv_pos_as_xyz
'x, y, z'
_cell_length_a     35.253729
_cell_length_b     34.656247
_cell_length_c     32.516538
_cell_angle_alpha  90.164375
_cell_angle_beta   89.763936
_cell_angle_gamma 89.95021
loop_
_atom_site_label
_atom_site_type_symbol
_atom_site_fract_x
_atom_site_fract_y
_atom_site_fract_z
_atom_type_partial_charge
Sm0 Sm 0.55041 0.28011 0.0512 0.0
Sm1 Sm 0.50914 0.32872 0.08999 0.0
C2 C 0.6004 0.23994 0.008 0.0
C3 C 0.61814 0.24856 0.96829 0.0
C4 C 0.62417 0.28706 0.95655 0.0
C5 C 0.63842 0.29554 0.91759 0.0
C6 C 0.64625 0.26568 0.88966 0.0
C7 C 0.63989 0.2272 0.90122 0.0
C8 C 0.62589 0.21868 0.94039 0.0
C9 C 0.52288 0.24017 0.12231 0.0
C10 C 0.5962 0.36102 0.08643 0.0
C11 C 0.45619 0.36225 0.13515 0.0
C12 C 0.4369 0.39894 0.12807 0.0
C13 C 0.4139 0.41473 0.15876 0.0
C14 C 0.39999 0.45209 0.15446 0.0
C15 C 0.4093 0.47429 0.11957 0.0
C16 C 0.43095 0.45782 0.08795 0.0
C17 C 0.44422 0.42002 0.09195 0.0
C18 C 0.53276 0.36579 0.01961 0.0
C19 C 0.46428 0.29111 0.00869 0.0
O20 O 0.60989 0.26236 0.03863 0.0
O21 O 0.56403 0.23363 0.00638 0.0
O22 O 0.53642 0.27461 0.12161 0.0
O23 O 0.52028 0.22882 0.08459 0.0
O24 O 0.59862 0.32904 0.06345 0.0
O25 O 0.56308 0.36689 0.10486 0.0
O26 O 0.44881 0.33507 0.10862 0.0
O27 O 0.49227 0.36508 0.1433 0.0
O28 O 0.5234 0.33093 0.02178 0.0
O29 O 0.52762 0.38304 0.05451 0.0
O30 O 0.45925 0.30947 0.0442 0.0
O31 O 0.49951 0.27838 0.00205 0.0
H32 H 0.61751 0.31062 0.97735 0.0
H33 H 0.64311 0.32538 0.90914 0.0
H34 H 0.64626 0.20376 0.88017 0.0
H35 H 0.62081 0.18889 0.94879 0.0
H36 H 0.40811 0.39888 0.18677 0.0
H37 H 0.38398 0.4646 0.17971 0.0
H38 H 0.43881 0.47461 0.0612 0.0
H39 H 0.46144 0.40782 0.06761 0.0
Sm40 Sm 0.79596 0.81886 0.30499 0.0
Sm41 Sm 0.75225 0.7782 0.34567 0.0
C42 C 0.83428 0.87089 0.26294 0.0
C43 C 0.82513 0.88829 0.22341 0.0
C44 C 0.787 0.89353 0.21229 0.0
C45 C 0.77776 0.90426 0.17239 0.0
C46 C 0.8065 0.90916 0.14305 0.0
C47 C 0.84464 0.90449 0.15424 0.0
C48 C 0.85392 0.8941 0.19433 0.0
C49 C 0.83696 0.79593 0.37688 0.0
C50 C 0.71598 0.86416 0.33869 0.0
C51 C 0.73823 0.72524 0.40179 0.0
C52 C 0.75234 0.72177 0.44374 0.0
C53 C 0.77376 0.75176 0.46102 0.0
C54 C 0.78576 0.74966 0.50176 0.0
C55 C 0.77599 0.71774 0.52597 0.0
C56 C 0.75632 0.68672 0.50752 0.0
C57 C 0.74477 0.6887 0.46664 0.0
C58 C 0.71022 0.79414 0.27742 0.0
C59 C 0.78847 0.73187 0.2627 0.0
O60 O 0.81198 0.87988 0.29368 0.0
O61 O 0.84148 0.83408 0.2608 0.0
O62 O 0.8035 0.81052 0.37552 0.0
O63 O 0.84651 0.78855 0.33929 0.0
O64 O 0.74382 0.8641 0.31083 0.0
O65 O 0.71561 0.83378 0.36349 0.0
O66 O 0.76427 0.72133 0.3735 0.0
O67 O 0.71552 0.75435 0.39503 0.0
O68 O 0.74572 0.78924 0.27701 0.0
O69 O 0.69546 0.78803 0.31349 0.0
O70 O 0.76912 0.72741 0.29763 0.0
O71 O 0.80146 0.76735 0.25644 0.0
H72 H 0.76426 0.88826 0.23404 0.0
H73 H 0.74822 0.90797 0.16419 0.0
H74 H 0.86715 0.90889 0.13195 0.0
H75 H 0.88339 0.8895 0.20233 0.0
H76 H 0.77977 0.77746 0.44345 0.0
H77 H 0.8004 0.774 0.51521 0.0
H78 H 0.74715 0.66209 0.52539 0.0
H79 H 0.72855 0.66518 0.45351 0.0
Sm80 Sm 0.26158 1.06912 0.55316 0.0
Sm81 Sm 0.30159 1.0226 0.59195 0.0
C82 C 0.2136 1.11098 0.50953 0.0
C83 C 0.20153 1.10646 0.46681 0.0
C84 C 0.22508 1.08692 0.4387 0.0
C85 C 0.21208 1.07799 0.39942 0.0
C86 C 0.17544 1.08889 0.3876 0.0
C87 C 1.15248 1.10991 0.41524 0.0
C88 C 0.16542 1.11853 0.45471 0.0
C89 C 0.28791 1.11112 0.62372 0.0
C90 C 0.21509 0.98845 0.58776 0.0
C91 C 0.35415 0.99105 0.63859 0.0
C92 C 0.37346 0.95407 0.63353 0.0
C93 C 0.3957 0.93966 0.66534 0.0
C94 C 0.40932 0.90201 0.66314 0.0
C95 C 0.40044 0.87823 0.6293 0.0
C96 C 0.37972 0.89329 0.59649 0.0
C97 C 0.36679 0.93136 0.59834 0.0
C98 C 0.28072 0.98295 0.52206 0.0
C99 C 0.34786 1.05813 0.51072 0.0
O100 O 0.24914 1.12002 0.51439 0.0
O101 O 0.2026 1.08373 0.53447 0.0
O102 O 0.27401 1.07677 0.62383 0.0
O103 O 0.29201 1.12056 0.58564 0.0
O104 O 0.21243 1.02096 0.56588 0.0
O105 O 0.24835 0.98265 0.60559 0.0
O106 O 0.36178 1.01674 0.61062 0.0
O107 O 0.31798 0.98867 0.64686 0.0
O108 O 0.28891 1.01825 0.5232 0.0
O109 O 0.28499 0.96712 0.55769 0.0
O110 O 0.35248 1.04146 0.54703 0.0
O111 O 0.31245 1.06959 0.50323 0.0
H112 H 0.25317 1.07756 0.44757 0.0
H113 H 0.23009 1.06128 0.37898 0.0
H114 H 1.12416 1.11886 0.40659 0.0
H115 H 1.14693 1.1336 0.47606 0.0
H116 H 0.40102 0.95682 0.69262 0.0
H117 H 0.42464 0.89057 0.68925 0.0
H118 H 0.37226 0.87525 0.57051 0.0
H119 H 0.35027 0.94251 0.57313 0.0
Sm120 Sm 1.01064 0.52968 0.80178 0.0
Sm121 Sm 1.05171 0.57135 0.84016 0.0
C122 C 0.97439 0.47618 0.75965 0.0
C123 C 0.98655 0.45727 0.72167 0.0
C124 C 1.02543 0.45134 0.71428 0.0
C125 C 1.03784 0.43775 0.67632 0.0
C126 C 1.0116 0.43057 0.64513 0.0
C127 C 0.97276 0.43659 0.65223 0.0
C128 C 0.96024 0.44985 0.69051 0.0
C129 C 0.9677 0.55364 0.87238 0.0
C130 C 1.09154 0.48676 0.8372 0.0
C131 C 1.06604 0.63147 0.8869 0.0
C132 C 1.09053 0.66429 0.87887 0.0
C133 C 1.09656 0.69127 0.91 0.0
C134 C 1.131 0.71077 0.91135 0.0
C135 C 1.15979 0.701 0.88291 0.0
C136 C 1.14965 0.68208 0.8464 0.0
C137 C 1.11492 0.66307 0.84463 0.0
C138 C 1.0958 0.55492 0.77275 0.0
C139 C 1.01712 0.6165 0.75794 0.0
O140 O 0.96735 0.51286 0.75576 0.0
O141 O 0.99449 0.46843 0.79222 0.0
O142 O 1.00139 0.53973 0.87211 0.0
O143 O 0.95883 0.55949 0.83441 0.0
O144 O 1.06165 0.48345 0.8124 0.0
O145 O 1.09344 0.51993 0.85767 0.0
O146 O 1.03598 0.62923 0.86385 0.0
O147 O 1.08395 0.59856 0.89063 0.0
O148 O 1.06017 0.55876 0.77155 0.0
O149 O 1.10931 0.56169 0.80917 0.0
O150 O 1.03607 0.62151 0.79254 0.0
O151 O 1.00458 0.5807 0.75215 0.0
H152 H 1.04637 0.45799 0.73748 0.0
H153 H 1.06791 0.43328 0.67108 0.0
H154 H 0.95223 0.43077 0.6283 0.0
H155 H 0.93026 0.45506 0.69551 0.0
H156 H 1.07729 0.69327 0.93598 0.0
H157 H 1.13752 0.72656 0.93924 0.0
H158 H 0.17105 0.67527 0.82348 0.0
H159 H 1.10985 0.64299 0.81965 0.0
Sm160 Sm 0.81153 1.01244 0.9143 0.0
Sm161 Sm 0.76969 1.06011 0.95714 0.0
C162 C 0.86405 0.99016 0.86127 0.0
C163 C 0.8889 1.01266 0.83455 0.0
C164 C 0.88058 1.05146 0.82609 0.0
C165 C 0.90113 1.07132 0.7961 0.0
C166 C 0.93026 1.0525 0.77434 0.0
C167 C 0.94094 1.01487 0.78642 0.0
C168 C 0.92024 0.99509 0.81615 0.0
C169 C 0.78944 0.97242 0.9824 0.0
C170 C 0.85612 1.05042 0.99629 0.0
C171 C 0.72049 1.09958 0.00212 0.0
C172 C 0.70239 1.09071 0.04159 0.0
C173 C 0.69388 1.05235 0.0519 0.0
C174 C 0.67928 1.04356 0.09063 0.0
C175 C 0.67317 1.07297 0.11963 0.0
C176 C 0.68233 1.11123 0.10961 0.0
C177 C 0.69683 1.12006 0.07072 0.0
C178 C 0.79667 1.10157 0.88661 0.0
C179 C 0.72402 0.98018 0.92035 0.0
O180 O 0.82801 0.99144 0.85229 0.0
O181 O 0.87048 0.99401 0.90041 0.0
O182 O 0.79808 1.00766 0.98207 0.0
O183 O 0.79498 0.95615 0.94683 0.0
O184 O 0.86131 1.03515 0.95904 0.0
O185 O 0.82059 1.0604 0.0051 0.0
O186 O 0.7105 1.07826 0.97074 0.0
O187 O 0.75702 1.1049 0.00408 0.0
O188 O 0.7827 1.06739 0.88701 0.0
O189 O 0.79962 1.11226 0.92451 0.0
O190 O 0.72299 1.00975 0.94678 0.0
O191 O 0.75587 0.97631 0.89864 0.0
H192 H 0.85679 1.0656 0.8409 0.0
H193 H 0.89211 1.10005 0.7874 0.0
H194 H 0.96272 0.99897 0.77 0.0
H195 H 0.92731 0.96535 0.82294 0.0
H196 H 0.69877 1.02912 0.03014 0.0
H197 H 0.67262 1.01383 0.09794 0.0
H198 H 0.67754 1.13432 0.13157 0.0
H199 H 0.70391 1.14969 0.06346 0.0
Sm200 Sm 0.5678 0.56585 0.66077 0.0
Sm201 Sm 0.52284 0.52499 0.6991 0.0
C202 C 0.59329 0.62238 0.61451 0.0
C203 C 0.62207 0.65101 0.62468 0.0
C204 C 0.63291 0.6782 0.59548 0.0
C205 C 0.66488 0.70078 0.60231 0.0
C206 C 0.68668 0.69606 0.63828 0.0
C207 C 0.67384 0.67098 0.66903 0.0
C208 C 0.64141 0.64875 0.66236 0.0
C209 C 0.60747 0.54764 0.7303 0.0
C210 C 0.53098 0.61268 0.74221 0.0
C211 C 0.48369 0.47319 0.74075 0.0
C212 C 0.49255 0.45488 0.78004 0.0
C213 C 0.53021 0.44497 0.78938 0.0
C214 C 0.53961 0.43244 0.82866 0.0
C215 C 0.51165 0.43041 0.85925 0.0
C216 C 0.47395 0.43992 0.84995 0.0
C217 C 0.46442 0.45202 0.81042 0.0
C218 C 0.48303 0.54925 0.62691 0.0
C219 C 0.60395 0.4794 0.66667 0.0
O220 O 0.56187 0.62497 0.63562 0.0
O221 O 0.60589 0.58706 0.61144 0.0
O222 O 0.57217 0.55345 0.72966 0.0
O223 O 0.62304 0.55309 0.69467 0.0
O224 O 0.55017 0.61695 0.70733 0.0
O225 O 0.51796 0.57705 0.74845 0.0
O226 O 0.50569 0.4642 0.70977 0.0
O227 O 0.47704 0.5101 0.74327 0.0
O228 O 0.51681 0.53538 0.62833 0.0
O229 O 0.47245 0.55479 0.66453 0.0
O230 O 0.57298 0.47716 0.69036 0.0
O231 O 0.60764 0.51217 0.64604 0.0
H232 H 0.61812 0.68031 0.56642 0.0
H233 H 0.67449 0.71935 0.57762 0.0
H234 H 0.69026 0.66663 0.69671 0.0
H235 H 0.6328 0.62814 0.68552 0.0
H236 H 0.55261 0.4478 0.7667 0.0
H237 H 0.5688 0.42507 0.83542 0.0
H238 H 0.45197 0.43794 0.87324 0.0
H239 H 0.43537 0.46012 0.80386 0.0
Sm240 Sm 1.01706 0.32416 0.419 0.0
Sm241 Sm 1.05869 0.275 0.45496 0.0
C242 C 0.96317 0.35271 0.37193 0.0
C243 C 0.93467 0.33472 0.34591 0.0
C244 C 0.93819 0.29584 0.33426 0.0
C245 C 0.91518 0.28086 0.30327 0.0
C246 C 0.88859 0.30474 0.2838 0.0
C247 C 0.88224 0.34225 0.29946 0.0
C248 C 0.90533 0.35716 0.3302 0.0
C249 C 1.04168 0.36066 0.48898 0.0
C250 C 0.97322 0.28386 0.49887 0.0
C251 C 1.11124 0.23261 0.49129 0.0
C252 C 1.13388 0.23962 0.52801 0.0
C253 C 1.13817 0.27746 0.54266 0.0
C254 C 1.15421 0.28412 0.58105 0.0
C255 C 0.16621 0.25301 0.60525 0.0
C256 C 0.16398 0.21527 0.58939 0.0
C257 C 1.14758 0.20859 0.55103 0.0
C258 C 1.02842 0.23557 0.38519 0.0
C259 C 1.10419 0.35637 0.42095 0.0
O260 O 0.99826 0.34858 0.35961 0.0
O261 O 0.95881 0.34697 0.41116 0.0
O262 O 1.03279 0.32558 0.48682 0.0
O263 O 1.03615 0.37814 0.4543 0.0
O264 O 0.96762 0.29942 0.46215 0.0
O265 O 1.00907 0.27368 0.50629 0.0
O266 O 1.07503 0.22849 0.49821 0.0
O267 O 1.11834 0.25514 0.46013 0.0
O268 O 1.04272 0.26973 0.38546 0.0
O269 O 1.02586 0.22485 0.42307 0.0
O270 O 1.10679 0.32392 0.44283 0.0
O271 O 1.07068 0.36299 0.404 0.0
H272 H 0.96047 0.27799 0.34697 0.0
H273 H 0.92075 0.25205 0.29172 0.0
H274 H 0.86249 0.3618 0.28484 0.0
H275 H 0.90203 0.38704 0.3395 0.0
H276 H 1.12763 0.30176 0.52519 0.0
H277 H 1.15566 0.31345 0.59256 0.0
H278 H 0.17407 0.19091 0.60706 0.0
H279 H 1.14448 0.17924 0.54001 0.0
Sm280 Sm 0.26142 0.77313 0.16846 0.0
Sm281 Sm 0.30721 0.81378 0.20672 0.0
C282 C 0.24344 0.7099 0.12756 0.0
C283 C 0.24538 0.68602 0.09065 0.0
C284 C 0.27977 0.67939 0.06977 0.0
C285 C 0.27928 0.66314 0.03053 0.0
C286 C 0.24443 0.65461 0.01216 0.0
C287 C 0.21133 0.654 0.03632 0.0
C288 C 0.21172 0.67037 0.07536 0.0
C289 C 0.22229 0.79364 0.23792 0.0
C290 C 0.29823 0.72688 0.24959 0.0
C291 C 0.34453 0.86671 0.24888 0.0
C292 C 0.33392 0.88637 0.28727 0.0
C293 C 0.29681 0.90032 0.29306 0.0
C294 C 0.28511 0.91362 0.33153 0.0
C295 C 0.31013 0.91272 0.3649 0.0
C296 C 0.34744 0.89952 0.359 0.0
C297 C 0.35926 0.88643 0.32039 0.0
C298 C 0.34735 0.78916 0.13427 0.0
C299 C 0.22719 0.85942 0.17088 0.0
O300 O 0.27491 0.7143 0.148 0.0
O301 O 0.22199 0.74082 0.12736 0.0
O302 O 0.25731 0.78625 0.23691 0.0
O303 O 0.20629 0.78827 0.20247 0.0
O304 O 0.27534 0.72453 0.21766 0.0
O305 O 0.31528 0.76086 0.25414 0.0
O306 O 0.3244 0.87484 0.2164 0.0
O307 O 0.35076 0.82987 0.25275 0.0
O308 O 0.31337 0.80281 0.13566 0.0
O309 O 0.35774 0.78439 0.17194 0.0
O310 O 0.25527 0.85968 0.19846 0.0
O311 O 0.22574 0.82794 0.14744 0.0
H312 H 0.30644 0.68975 0.08198 0.0
H313 H 0.3051 0.6631 0.01235 0.0
H314 H 0.18414 0.64711 0.02267 0.0
H315 H 0.18523 0.67388 0.09202 0.0
H316 H 0.27643 0.89991 0.26826 0.0
H317 H 0.25625 0.9238 0.33546 0.0
H318 H 0.36743 0.89942 0.38422 0.0
H319 H 0.38783 0.87537 0.31664 0.0
Sm320 Sm 1.04537 0.78009 0.55175 0.0
Sm321 Sm 1.00402 0.82872 0.59278 0.0
C322 C 1.09547 0.7408 0.50775 0.0
C323 C 1.1156 0.75041 0.46959 0.0
C324 C 1.13047 0.78759 0.46363 0.0
C325 C 1.14611 0.7978 0.42581 0.0
C326 C 1.14712 0.77103 0.3934 0.0
C327 C 1.1322 0.73389 0.39931 0.0
C328 C 1.11659 0.72363 0.43723 0.0
C329 C 1.01829 0.73888 0.62199 0.0
C330 C 1.09143 0.8614 0.58702 0.0
C331 C 0.95365 0.86365 0.64011 0.0
C332 C 0.94308 0.90441 0.64043 0.0
C333 C 0.92772 0.9207 0.67604 0.0
C334 C 0.92512 0.96063 0.67956 0.0
C335 C 0.93857 0.98467 0.64782 0.0
C336 C 0.95176 0.96836 0.61114 0.0
C337 C 0.95332 0.92826 0.6072 0.0
C338 C 1.02766 0.86552 0.52246 0.0
C339 C 0.95773 0.79055 0.51273 0.0
O340 O 1.10455 0.76079 0.54038 0.0
O341 O 1.05896 0.73632 0.5039 0.0
O342 O 1.03151 0.77347 0.6221 0.0
O343 O 1.01586 0.72823 0.58403 0.0
O344 O 1.09353 0.8294 0.56391 0.0
O345 O 1.05843 0.86729 0.60585 0.0
O346 O 0.94443 0.8446 0.60707 0.0
O347 O 0.98827 0.85655 0.65204 0.0
O348 O 1.01726 0.83106 0.5247 0.0
O349 O 1.02321 0.88297 0.55737 0.0
O350 O 0.95342 0.80719 0.54933 0.0
O351 O 0.99301 0.77889 0.50408 0.0
H352 H 1.1292 0.80913 0.4878 0.0
H353 H 1.1569 0.8268 0.42167 0.0
H354 H 1.13295 0.71275 0.3747 0.0
H355 H 1.10475 0.69502 0.44113 0.0
H356 H 0.91978 0.90274 0.7019 0.0
H357 H 0.91517 0.97286 0.70836 0.0
H358 H 0.96241 0.98645 0.58656 0.0
H359 H 0.96434 0.91599 0.57902 0.0
Sm360 Sm 0.30204 0.32116 0.8016 0.0
Sm361 Sm 0.26192 0.2808 0.84152 0.0
C362 C 0.34223 0.37484 0.76371 0.0
C363 C 0.33301 0.39795 0.72797 0.0
C364 C 0.30018 0.38897 0.7059 0.0
C365 C 0.29394 0.40542 0.66768 0.0
C366 C 0.3199 0.43217 0.6517 0.0
C367 C 0.35147 0.44321 0.6754 0.0
C368 C 0.35822 0.42581 0.7133 0.0
C369 C 0.34502 0.29695 0.87168 0.0
C370 C 0.22059 0.36475 0.83589 0.0
C371 C 0.2471 0.2301 0.898 0.0
C372 C 0.23473 0.1901 0.89504 0.0
C373 C 0.24965 1.16298 0.92238 0.0
C374 C 0.22824 1.13027 0.93142 0.0
C375 C 0.19011 1.1303 0.91881 0.0
C376 C 0.1829 1.14692 0.88025 0.0
C377 C 0.20437 0.1793 0.86948 0.0
C378 C 0.22427 0.27835 0.76887 0.0
C379 C 0.29663 0.23588 0.75888 0.0
O380 O 0.34538 0.33807 0.75581 0.0
O381 O 0.32192 0.38182 0.79647 0.0
O382 O 0.31249 0.31313 0.87134 0.0
O383 O 0.35178 0.28705 0.83397 0.0
O384 O 0.25218 0.36872 0.81332 0.0
O385 O 0.21725 0.33097 0.8547 0.0
O386 O 0.2816 0.23632 0.88484 0.0
O387 O 0.2224 0.25677 0.88761 0.0
O388 O 0.24222 0.30819 0.78053 0.0
O389 O 0.22537 0.25032 0.79497 0.0
O390 O 0.28565 0.2301 0.79745 0.0
O391 O 0.3034 0.27244 0.74993 0.0
H392 H 0.28053 0.36757 0.71737 0.0
H393 H 0.26999 0.39545 0.64983 0.0
H394 H 0.37172 0.46407 0.66382 0.0
H395 H 0.38365 0.43298 0.73029 0.0
H396 H 0.27493 1.16916 0.94005 0.0
H397 H 0.23722 1.11287 0.95723 0.0
H398 H 1.15541 1.14323 0.86602 0.0
H399 H 0.19398 0.19838 0.84574 0.0
Sm400 Sm 0.76211 0.56994 0.05251 0.0
Sm401 Sm 0.80465 0.5246 0.09196 0.0
C402 C 0.71192 0.60777 0.00807 0.0
C403 C 0.69618 0.59732 0.96797 0.0
C404 C 0.69113 0.55824 0.9577 0.0
C405 C 0.67983 0.54778 0.91825 0.0
C406 C 0.6741 0.57615 0.88833 0.0
C407 C 0.6793 0.61522 0.89843 0.0
C408 C 0.69027 0.62576 0.93813 0.0
C409 C 0.7872 0.61209 0.12337 0.0
C410 C 0.71866 0.4883 0.08774 0.0
C411 C 0.85786 0.4954 0.13954 0.0
C412 C 0.87301 0.45628 0.14034 0.0
C413 C 0.89166 0.4432 0.17536 0.0
C414 C 0.89676 0.40376 0.18103 0.0
C415 C 0.88237 0.37724 0.15215 0.0
C416 C 0.86691 0.39052 0.11534 0.0
C417 C 0.86299 0.4301 0.10912 0.0
C418 C 0.78376 0.4836 0.0233 0.0
C419 C 0.84861 0.56172 0.01034 0.0
O420 O 0.70239 0.58556 0.03882 0.0
O421 O 0.74801 0.61576 0.00749 0.0
O422 O 0.77462 0.57741 0.12286 0.0
O423 O 0.79033 0.62272 0.08548 0.0
O424 O 0.71501 0.52036 0.06544 0.0
O425 O 0.75217 0.48335 0.10551 0.0
O426 O 0.86536 0.515 0.10643 0.0
O427 O 0.82241 0.49827 0.15093 0.0
O428 O 0.79097 0.51915 0.02375 0.0
O429 O 0.78883 0.46832 0.05913 0.0
O430 O 0.85436 0.54642 0.04712 0.0
O431 O 0.81272 0.57136 0.00281 0.0
H432 H 0.69652 0.53571 0.97996 0.0
H433 H 0.67593 0.51752 0.91093 0.0
H434 H 0.6745 0.63751 0.87573 0.0
H435 H 0.6947 0.65595 0.94538 0.0
H436 H 0.89959 0.46309 0.19962 0.0
H437 H 0.90839 0.39381 0.20994 0.0
H438 H 0.8555 0.37045 0.09301 0.0
H439 H 0.8496 0.44008 0.08134 0.0
Sm440 Sm 0.50739 1.02993 0.29876 0.0
Sm441 Sm 0.54995 1.07 0.34111 0.0
C442 C 0.4717 0.97739 0.25463 0.0
C443 C 0.48289 0.95841 0.21607 0.0
C444 C 0.51876 0.94097 0.21199 0.0
C445 C 0.53116 0.92767 0.17379 0.0
C446 C 0.50816 0.93211 0.13906 0.0
C447 C 0.47205 0.94881 0.14324 0.0
C448 C 0.45949 0.96183 0.18153 0.0
C449 C 0.46561 1.05113 0.37132 0.0
C450 C 0.58609 0.98458 0.336 0.0
C451 C 0.56181 1.12895 0.38986 0.0
C452 C 0.5766 1.16705 0.38008 0.0
C453 C 0.57315 0.19692 0.40865 0.0
C454 C 0.59793 0.22811 0.40617 0.0
C455 C 0.6282 0.22665 0.37757 0.0
C456 C 0.62295 0.20415 0.34206 0.0
C457 C 0.59852 1.17258 0.34439 0.0
C458 C 0.59322 1.05415 0.27329 0.0
C459 C 0.51608 1.11794 0.25854 0.0
O460 O 0.49157 0.9689 0.28718 0.0
O461 O 0.46488 1.01423 0.25148 0.0
O462 O 0.49909 1.03678 0.36963 0.0
O463 O 0.456 1.05866 0.33386 0.0
O464 O 0.55989 0.98514 0.30646 0.0
O465 O 0.58512 1.01464 0.36145 0.0
O466 O 0.5285 1.12137 0.37449 0.0
O467 O 0.58612 1.10052 0.38598 0.0
O468 O 0.55791 1.06014 0.27254 0.0
O469 O 0.60749 1.05944 0.3097 0.0
O470 O 0.53511 1.12105 0.29355 0.0
O471 O 0.50231 1.08285 0.25123 0.0
H472 H 0.5377 0.93846 0.23798 0.0
H473 H 0.55903 0.91466 0.17117 0.0
H474 H 0.45351 0.95159 0.11693 0.0
H475 H 0.43188 0.97544 0.18402 0.0
H476 H 0.55463 0.19411 0.43515 0.0
H477 H 0.59853 0.24757 0.43224 0.0
H478 H 0.64402 0.20452 0.31771 0.0
H479 H 0.60016 1.15046 0.32085 0.0
Sm480 Sm 0.31709 0.51875 0.41088 0.0
Sm481 Sm 0.27278 0.56073 0.45508 0.0
C482 C 0.34532 0.49779 0.33937 0.0
C483 C 0.35925 0.52064 0.30449 0.0
C484 C 0.33812 0.55183 0.28895 0.0
C485 C 0.34961 0.57051 0.253 0.0
C486 C 0.38232 0.55815 0.23204 0.0
C487 C 0.40506 0.52917 0.24996 0.0
C488 C 0.39354 0.51059 0.28577 0.0
C489 C 0.3123 0.47982 0.48225 0.0
C490 C 0.36319 0.55154 0.49014 0.0
C491 C 0.23613 0.60474 0.50898 0.0
C492 C 0.21963 0.59887 0.54995 0.0
C493 C 0.2369 0.57427 0.57864 0.0
C494 C 0.21862 0.56586 0.61577 0.0
C495 C 0.18261 0.58133 0.62423 0.0
C496 C 0.16611 0.60701 0.5961 0.0
C497 C 0.18449 0.61568 0.55923 0.0
C498 C 0.28648 0.60009 0.37904 0.0
C499 C 0.22789 0.48207 0.4207 0.0
O500 O 0.30889 0.49999 0.34663 0.0
O501 O 0.36585 0.49875 0.37272 0.0
O502 O 0.28464 0.49781 0.46666 0.0
O503 O 0.34206 0.47859 0.45847 0.0
O504 O 0.36891 0.53776 0.45247 0.0
O505 O 0.32747 0.56105 0.49945 0.0
O506 O 0.27303 0.60352 0.50607 0.0
O507 O 0.21936 0.58631 0.4792 0.0
O508 O 0.31098 0.58493 0.4028 0.0
O509 O 0.2536 0.59024 0.3932 0.0
O510 O 0.22408 0.51332 0.44425 0.0
O511 O 0.26195 0.47766 0.40313 0.0
H512 H 0.31167 0.56045 0.30324 0.0
H513 H 0.33141 0.59242 0.23986 0.0
H514 H 0.43001 0.51809 0.23438 0.0
H515 H 0.41042 0.48697 0.29757 0.0
H516 H 0.26393 0.5607 0.57188 0.0
H517 H 0.23191 0.54614 0.63713 0.0
H518 H 1.13871 0.61997 0.60243 0.0
H519 H 0.1708 0.63472 0.53745 0.0
Sm520 Sm 1.05722 1.06329 0.16789 0.0
Sm521 Sm 1.01684 1.02564 0.20549 0.0
C522 C 1.06451 1.12216 0.11859 0.0
C523 C 1.07913 1.16147 0.11784 0.0
C524 C 1.06282 0.1856 0.08841 0.0
C525 C 1.08676 0.20521 0.0616 0.0
C526 C 1.12588 0.19816 0.06439 0.0
C527 C 1.14058 0.18785 0.10292 0.0
C528 C 1.11672 1.16819 0.13002 0.0
C529 C 1.10218 1.05165 0.23455 0.0
C530 C 1.02441 1.11227 0.24903 0.0
C531 C 0.97773 0.9738 0.24676 0.0
C532 C 0.98762 0.95764 0.28639 0.0
C533 C 1.02491 0.96216 0.30067 0.0
C534 C 1.03443 0.95032 0.34002 0.0
C535 C 1.00662 0.9343 0.36541 0.0
C536 C 0.96928 0.92991 0.35141 0.0
C537 C 0.95973 0.94171 0.31184 0.0
C538 C 0.97542 1.04634 0.13329 0.0
C539 C 1.09699 0.98027 0.17174 0.0
O540 O 1.03364 1.11626 0.13993 0.0
O541 O 1.08935 1.09395 0.12011 0.0
O542 O 1.06633 1.05306 0.23679 0.0
O543 O 1.11534 1.05717 0.19758 0.0
O544 O 1.04449 1.11554 0.21479 0.0
O545 O 1.01005 1.07723 0.2547 0.0
O546 O 0.97011 1.01051 0.24819 0.0
O547 O 1.00061 0.9647 0.21662 0.0
O548 O 1.00823 1.03057 0.135 0.0
O549 O 0.96741 1.05692 0.17047 0.0
O550 O 1.06953 0.98038 0.2001 0.0
O551 O 1.09619 1.01055 0.14693 0.0
H552 H 1.03317 0.18262 0.08029 0.0
H553 H 1.07456 0.21646 0.03354 0.0
H554 H 0.17096 0.18529 0.10711 0.0
H555 H 1.12932 1.15147 0.15456 0.0
H556 H 1.04654 0.97524 0.2815 0.0
H557 H 1.0634 0.95342 0.35056 0.0
H558 H 0.94779 0.91705 0.37094 0.0
H559 H 0.93074 0.9388 0.30131 0.0
Sm560 Sm 0.51425 0.82089 0.91297 0.0
Sm561 Sm 0.55428 0.77414 0.95472 0.0
C562 C 0.46101 0.83979 0.8598 0.0
C563 C 0.44876 0.82292 0.82101 0.0
C564 C 0.46969 0.79306 0.80252 0.0
C565 C 0.4586 0.77802 0.76454 0.0
C566 C 0.42634 0.79273 0.74482 0.0
C567 C 0.40425 0.82105 0.7651 0.0
C568 C 0.4154 0.83594 0.80291 0.0
C569 C 0.53356 0.86169 0.98178 0.0
C570 C 0.46751 0.78541 0.99577 0.0
C571 C 0.60394 0.73615 -0.00023 0.0
C572 C 0.62021 0.74667 0.0396 0.0
C573 C 0.62333 0.78575 0.05074 0.0
C574 C 0.63509 0.796 0.09014 0.0
C575 C 0.64321 0.76734 0.11911 0.0
C576 C 0.64015 0.72827 0.10798 0.0
C577 C 0.62871 0.71798 0.06836 0.0
C578 C 0.53157 0.7332 0.8818 0.0
C579 C 0.60051 0.85406 0.9191 0.0
O580 O 0.49453 0.85583 0.85997 0.0
O581 O 0.45495 0.81797 0.89164 0.0
O582 O 0.52586 0.82622 0.98113 0.0
O583 O 0.52822 0.87768 0.94618 0.0
O584 O 0.4638 0.80469 0.96064 0.0
O585 O 0.50209 0.77122 0.00232 0.0
O586 O 0.61378 0.75776 0.96865 0.0
O587 O 0.56766 0.72907 0.00079 0.0
O588 O 0.54507 0.76754 0.8838 0.0
O589 O 0.52632 0.72217 0.91933 0.0
O590 O 0.60051 0.82533 0.94635 0.0
O591 O 0.56973 0.85657 0.89581 0.0
H592 H 0.49523 0.78242 0.81687 0.0
H593 H 0.47638 0.75668 0.74949 0.0
H594 H 0.37989 0.83407 0.75043 0.0
H595 H 0.39873 0.85861 0.81725 0.0
H596 H 0.61602 0.80836 0.02924 0.0
H597 H 0.63732 0.82627 0.09821 0.0
H598 H 0.64684 0.70577 0.12986 0.0
H599 H 0.62587 0.68774 0.0604 0.0
Sm600 Sm 0.76882 0.27088 0.66907 0.0
Sm601 Sm 0.81125 0.31159 0.70894 0.0
C602 C 0.75093 0.21786 0.61545 0.0
C603 C 0.74088 0.18839 0.58568 0.0
C604 C 0.76805 0.18004 0.5553 0.0
C605 C 0.7568 0.17836 0.51429 0.0
C606 C 0.71854 0.18377 0.50473 0.0
C607 C 0.691 0.18261 0.53597 0.0
C608 C 0.70227 0.1844 0.57679 0.0
C609 C 0.72511 0.28749 0.73619 0.0
C610 C 0.80237 0.22353 0.75027 0.0
C611 C 0.84793 0.36403 0.75243 0.0
C612 C 0.83677 0.38297 0.79085 0.0
C613 C 0.79815 0.38914 0.79957 0.0
C614 C 0.78698 0.40351 0.83774 0.0
C615 C 0.81419 0.41113 0.86787 0.0
C616 C 0.85281 0.40509 0.85925 0.0
C617 C 0.86406 0.39112 0.82079 0.0
C618 C 0.85362 0.28871 0.63726 0.0
C619 C 0.732 0.35681 0.67251 0.0
O620 O 0.7816 0.21536 0.63767 0.0
O621 O 0.73 0.24845 0.62145 0.0
O622 O 0.76067 0.28299 0.73786 0.0
O623 O 0.71166 0.28149 0.69972 0.0
O624 O 0.78425 0.21934 0.71493 0.0
O625 O 0.8151 0.25912 0.7574 0.0
O626 O 0.82755 0.37253 0.72028 0.0
O627 O 0.85445 0.32717 0.75564 0.0
O628 O 0.81988 0.30264 0.63838 0.0
O629 O 0.86317 0.28254 0.67502 0.0
O630 O 0.76118 0.35894 0.69844 0.0
O631 O 0.73011 0.32428 0.65115 0.0
H632 H 0.79806 0.18227 0.562 0.0
H633 H 0.77819 0.17835 0.49027 0.0
H634 H 0.66117 0.18591 0.52878 0.0
H635 H 0.68099 0.19003 0.60023 0.0
H636 H 0.77652 0.38218 0.77719 0.0
H637 H 0.75709 0.40803 0.84402 0.0
H638 H 0.87414 0.41129 0.88223 0.0
H639 H 0.89389 0.38597 0.81469 0.0
C640 C 0.61961 0.43296 0.09165 0.0
C641 C 0.62819 0.39285 0.08741 0.0
C642 C 0.64799 0.46303 0.09124 0.0
C643 C 0.68762 0.45554 0.08817 0.0
H644 H 0.59018 0.44155 0.09451 0.0
H645 H 0.63859 0.49268 0.09394 0.0
S646 S 0.72705 0.35627 0.07506 0.0
N647 N 0.68086 0.34857 0.07802 0.0
N648 N 0.733 0.40336 0.07972 0.0
C649 C 0.69661 0.41557 0.08408 0.0
C650 C 0.66763 0.38508 0.08304 0.0
C651 C 0.66567 0.91061 0.37439 0.0
C652 C 0.68305 0.89523 0.33816 0.0
C653 C 0.63554 0.9391 0.37374 0.0
C654 C 0.61893 0.95339 0.33682 0.0
H655 H 0.67592 0.90102 0.40399 0.0
H656 H 0.62469 0.94959 0.40289 0.0
S657 S 0.65206 0.92264 0.23259 0.0
N658 N 0.67995 0.89797 0.26368 0.0
N659 N 0.62357 0.94829 0.26249 0.0
C660 C 0.63561 0.93767 0.30043 0.0
C661 C 0.66713 0.9098 0.30109 0.0
C662 C 1.14418 0.96325 0.59465 0.0
C663 C 0.18349 0.95597 0.58777 0.0
C664 C 1.11565 0.93319 0.59529 0.0
C665 C 1.12359 0.89331 0.58763 0.0
H666 H 1.13518 0.99267 0.60034 0.0
H667 H 1.08657 0.94166 0.60123 0.0
S668 S 0.22113 0.85749 0.56464 0.0
N669 N 0.22769 0.90418 0.57209 0.0
N670 N 0.17523 0.84973 0.57085 0.0
C671 C 1.1626 0.88587 0.5795 0.0
C672 C 0.1918 0.91623 0.58024 0.0
C673 C 1.11865 0.41546 0.84323 0.0
C674 C 1.12473 0.45584 0.83793 0.0
C675 C 1.149 0.3872 0.84367 0.0
C676 C 0.18808 0.39649 0.83722 0.0
H677 H 1.08988 0.40536 0.84765 0.0
H678 H 1.14141 0.35727 0.84831 0.0
S679 S 0.22072 0.4973 0.81836 0.0
N680 N 0.1745 0.50254 0.8249 0.0
N681 N 0.22963 0.45072 0.8233 0.0
C682 C 0.19434 0.43664 0.83068 0.0
C683 C 0.16362 0.46554 0.83166 0.0
C684 C 0.67669 0.93159 0.95558 0.0
C685 C 0.69192 0.94854 0.91918 0.0
C686 C 0.64867 0.90117 0.95522 0.0
C687 C 0.63243 0.88596 0.91849 0.0
H688 H 0.68715 0.94143 0.98507 0.0
H689 H 0.63906 0.8899 0.9845 0.0
S690 S 0.66071 0.91988 0.81412 0.0
N691 N 0.68766 0.94613 0.84484 0.0
N692 N 0.63462 0.89209 0.84424 0.0
C693 C 0.6469 0.90317 0.88196 0.0
C694 C 0.67642 0.93317 0.88228 0.0
C695 C 0.63044 0.40763 0.66379 0.0
C696 C 0.63675 0.44813 0.66757 0.0
C697 C 0.66065 0.37924 0.66432 0.0
C698 C 0.69973 0.3886 0.6704 0.0
H699 H 0.60165 0.39754 0.6597 0.0
H700 H 0.65298 0.34918 0.66077 0.0
S701 S 0.73295 0.48978 0.68512 0.0
N702 N 0.68679 0.49503 0.67855 0.0
N703 N 0.74157 0.44297 0.68211 0.0
C704 C 0.70621 0.42886 0.67547 0.0
C705 C 0.67569 0.45785 0.67339 0.0
C706 C 1.12859 0.42783 0.41506 0.0
C707 C 1.13659 0.38771 0.41979 0.0
C708 C 1.15733 0.45749 0.41568 0.0
C709 C 0.19677 0.44951 0.41952 0.0
H710 H 1.09933 0.43678 0.4117 0.0
H711 H 1.14836 0.48722 0.41264 0.0
S712 S 0.23471 0.35005 0.43407 0.0
N713 N 0.18851 0.34286 0.43027 0.0
N714 N 0.24138 0.39701 0.42922 0.0
C715 C 0.20524 0.40956 0.42402 0.0
C716 C 0.17585 0.37946 0.42474 0.0
C717 C 0.17711 0.90549 0.13455 0.0
C718 C 0.19457 0.89105 0.17097 0.0
C719 C 1.14695 0.93403 0.13475 0.0
C720 C 1.13027 0.94937 0.17143 0.0
H721 H 0.18726 0.89502 0.10511 0.0
H722 H 1.13606 0.94365 0.10544 0.0
S723 S 0.16389 0.92191 0.27605 0.0
N724 N 0.19169 0.89628 0.24536 0.0
N725 N 1.13523 0.94656 0.24577 0.0
C726 C 1.14715 0.93477 0.20801 0.0
C727 C 0.17875 0.90688 0.20778 0.0
C728 C 0.36812 0.30868 0.94791 0.0
C729 C 0.37474 0.29455 0.90738 0.0
C730 C 0.39625 0.30701 0.98002 0.0
C731 C 0.4332 0.29096 0.97424 0.0
H732 H 0.34087 0.32155 0.95502 0.0
H733 H 0.38887 0.31886 0.00983 0.0
S734 S 0.46647 0.25033 0.87414 0.0
N735 N 0.42259 0.26406 0.86425 0.0
N736 N 0.47393 0.26106 0.92293 0.0
C737 C 0.44003 0.27677 0.93385 0.0
C738 C 0.41154 0.27849 0.90128 0.0
C739 C 0.77543 0.63363 0.20057 0.0
C740 C 0.78872 0.6415 0.16006 0.0
C741 C 0.77574 0.66203 0.23321 0.0
C742 C 0.7897 0.70035 0.22798 0.0
H743 H 0.76409 0.60529 0.20718 0.0
H744 H 0.76458 0.65374 0.26296 0.0
S745 S 0.82779 0.73701 0.12836 0.0
N746 N 0.81628 0.69193 0.11772 0.0
N747 N 0.81707 0.74356 0.17733 0.0
C748 C 0.80323 0.70831 0.18769 0.0
C749 C 0.8027 0.67968 0.1546 0.0
C750 C 0.40035 1.0695 0.40366 0.0
C751 C 0.4372 1.05325 0.40848 0.0
C752 C 0.37269 1.0715 0.43619 0.0
C753 C 0.37943 1.05743 0.47652 0.0
H754 H 0.39243 1.08085 0.37392 0.0
H755 H 0.34532 1.08405 0.4293 0.0
S756 S 0.47065 1.01106 0.50706 0.0
N757 N 0.47805 1.02229 0.45832 0.0
N758 N 0.4272 1.02574 0.51832 0.0
C759 C 0.41621 1.04102 0.48188 0.0
C760 C 0.44448 1.03906 0.4486 0.0
C761 C 1.02971 0.71583 0.69852 0.0
C762 C 1.01667 0.70875 0.65786 0.0
C763 C 1.0294 0.68671 0.73021 0.0
C764 C 1.01575 0.64837 0.72386 0.0
H765 H 1.04084 0.74408 0.70597 0.0
H766 H 1.04034 0.69445 0.76018 0.0
S767 S 0.97872 0.61345 0.62336 0.0
N768 N 0.98984 0.65886 0.61405 0.0
N769 N 0.98918 0.60594 0.67211 0.0
C770 C 1.00258 0.64111 0.68344 0.0
C771 C 1.00306 0.67049 0.65126 0.0
C772 C 0.92475 1.03495 0.02447 0.0
C773 C 0.88775 1.05095 0.03015 0.0
C774 C 0.9529 1.03357 0.05668 0.0
C775 C 0.94618 1.04809 0.09707 0.0
H776 H 0.93208 1.0228 0.99477 0.0
H777 H 0.98017 1.02065 0.04977 0.0
S778 S 0.85463 1.09323 0.12957 0.0
N779 N 0.84718 1.08175 0.081 0.0
N780 N 0.89841 1.07941 0.13964 0.0
C781 C 0.90943 1.06432 0.10286 0.0
C782 C 0.88098 1.06566 0.07033 0.0
C783 C 0.51563 0.66639 0.84891 0.0
C784 C 0.53086 0.70426 0.84439 0.0
C785 C 0.51513 0.63807 0.81644 0.0
C786 C 0.52991 0.64499 0.77638 0.0
H787 H 0.50392 0.65813 0.87843 0.0
H788 H 0.50328 0.60998 0.82323 0.0
S789 S 0.57369 0.73889 0.74628 0.0
N790 N 0.56158 0.74622 0.79484 0.0
N791 N 0.56059 0.69435 0.73498 0.0
C792 C 0.54517 0.68284 0.77124 0.0
C793 C 0.54565 0.71177 0.80446 0.0
C794 C 0.92053 0.27345 0.60632 0.0
C795 C 0.88269 0.28695 0.60047 0.0
C796 C 0.94864 0.27192 0.57409 0.0
C797 C 0.94141 0.2837 0.533 0.0
H798 H 0.92892 0.26399 0.63666 0.0
H799 H 0.97672 0.26165 0.58183 0.0
S800 S 0.84751 0.32208 0.49948 0.0
N801 N 0.84045 0.31267 0.54871 0.0
N802 N 0.89194 0.31001 0.48934 0.0
C803 C 0.90364 0.29728 0.52663 0.0
C804 C 0.87498 0.2988 0.55959 0.0
C805 C 0.26339 0.63936 0.31639 0.0
C806 C 0.29225 0.63178 0.34559 0.0
C807 C 0.26624 0.66898 0.28594 0.0
C808 C 0.29777 0.69435 0.28271 0.0
H809 H 0.2379 0.62195 0.3169 0.0
H810 H 0.24269 0.67246 0.26499 0.0
S811 S 0.38217 0.68793 0.35083 0.0
N812 N 0.3546 0.65278 0.36781 0.0
N813 N 0.35918 0.70864 0.31254 0.0
C814 C 0.32697 0.68727 0.31173 0.0
C815 C 0.32447 0.65625 0.34227 0.0
C816 C 0.90103 0.77404 0.4091 0.0
C817 C 0.86592 0.79415 0.41344 0.0
C818 C 0.92948 0.7725 0.44068 0.0
C819 C 0.9253 0.79081 0.47961 0.0
H820 H 0.90697 0.75923 0.38042 0.0
H821 H 0.95539 0.75681 0.43414 0.0
S822 S 0.84057 0.85027 0.50747 0.0
N823 N 0.83048 0.8349 0.46062 0.0
N824 N 0.88229 0.83157 0.5191 0.0
C825 C 0.89038 0.81129 0.48439 0.0
C826 C 0.86147 0.81305 0.45198 0.0
C827 C 0.28652 1.1639 0.7334 0.0
C828 C 0.29568 0.20329 0.72504 0.0
C829 C 0.28402 1.13441 0.70184 0.0
C830 C 0.29037 1.14201 0.65932 0.0
H831 H 0.28092 1.15556 0.7649 0.0
H832 H 0.27692 1.1053 0.71104 0.0
S833 S 0.31307 0.24032 0.61917 0.0
N834 N 0.3096 0.24733 0.66924 0.0
N835 N 0.30522 0.1939 0.61173 0.0
C836 C 0.29914 0.18139 0.65077 0.0
C837 C 0.30165 0.21114 0.68269 0.0
C838 C 0.91746 0.54746 0.98209 0.0
C839 C 0.87982 0.56145 0.97581 0.0
C840 C 0.94562 0.54521 0.94976 0.0
C841 C 0.93827 0.55662 0.90855 0.0
H842 H 0.92535 0.53766 0.01245 0.0
H843 H 0.97342 0.53401 0.95723 0.0
S844 S 0.84467 0.59492 0.87404 0.0
N845 N 0.83778 0.5866 0.92345 0.0
N846 N 0.88906 0.58257 0.8644 0.0
C847 C 0.90078 0.57067 0.90204 0.0
C848 C 0.87232 0.57299 0.93479 0.0
C849 C 0.50277 1.14463 0.18474 0.0
C850 C 0.51642 1.15077 0.22528 0.0
C851 C 0.50469 1.17341 0.15304 0.0
C852 C 0.52024 0.21097 0.159 0.0
H853 H 0.49081 1.11681 0.17694 0.0
H854 H 0.49387 1.16576 0.12299 0.0
S855 S 0.5607 0.24347 0.25879 0.0
N856 N 0.54662 0.19896 0.26865 0.0
N857 N 0.54995 0.2518 0.2102 0.0
C858 C 0.53385 0.21772 0.19939 0.0
C859 C 0.53205 0.18828 0.23179 0.0
C860 C 0.38809 0.56405 0.56465 0.0
C861 C 0.39533 0.55206 0.52353 0.0
C862 C 0.41626 0.56324 0.59645 0.0
C863 C 0.45425 0.55029 0.59017 0.0
H864 H 0.35991 0.57401 0.57277 0.0
H865 H 0.40779 0.57283 0.62685 0.0
S866 S 0.4896 0.51474 0.48887 0.0
N867 N 0.44496 0.52608 0.47925 0.0
N868 N 0.49672 0.52469 0.53798 0.0
C869 C 0.46205 0.53817 0.54924 0.0
C870 C 0.43325 0.53899 0.51664 0.0
C871 C 1.03966 0.21182 0.30838 0.0
C872 C 1.02578 0.20555 0.34898 0.0
C873 C 1.03877 0.18246 0.27668 0.0
C874 C 1.02362 1.14468 0.28292 0.0
H875 H 1.052 0.23955 0.301 0.0
H876 H 1.05047 0.18955 0.24681 0.0
S877 S 0.98337 1.11216 0.38304 0.0
N878 N 0.99612 1.15714 0.39241 0.0
N879 N 0.99443 1.10385 0.33445 0.0
C880 C 1.00942 1.13835 0.3232 0.0
C881 C 1.01049 1.16795 0.35536 0.0
C882 C 0.37008 0.80157 0.05706 0.0
C883 C 0.37672 0.78748 0.09755 0.0
C884 C 0.39856 0.80061 0.02477 0.0
C885 C 0.43586 0.7852 0.03019 0.0
H886 H 0.34266 0.81398 0.05017 0.0
H887 H 0.39114 0.81239 0.99507 0.0
S888 S 0.46942 0.7452 0.12993 0.0
N889 N 0.42525 0.758 0.14005 0.0
N890 N 0.4768 0.75614 0.08121 0.0
C891 C 0.44264 0.77115 0.07049 0.0
C892 C 0.41397 0.7723 0.1032 0.0
C893 C 0.81444 0.19795 0.8248 0.0
C894 C 0.80264 0.19094 0.78372 0.0
C895 C 0.81274 1.16923 0.85657 0.0
C896 C 0.79924 1.13093 0.85011 0.0
H897 H 0.82469 0.22639 0.83294 0.0
H898 H 0.822 0.17751 0.88705 0.0
S899 S 0.76568 1.09559 0.7484 0.0
N900 N 0.7773 1.14093 0.73905 0.0
N901 N 0.77459 1.08812 0.79759 0.0
C902 C 0.78792 1.12323 0.80908 0.0
C903 C 0.78944 1.1526 0.77663 0.0
C904 C 0.69793 0.29459 0.8479 0.0
C905 C 0.66336 0.27455 0.84942 0.0
C906 C 0.71697 0.29993 0.8106 0.0
C907 C 0.70173 0.28598 0.77359 0.0
H908 H 0.71108 0.30482 0.87595 0.0
H909 H 0.7443 0.31424 0.81087 0.0
S910 S 0.61012 0.23482 0.76092 0.0
N911 N 0.61331 0.24288 0.81089 0.0
N912 N 0.64884 0.25351 0.7403 0.0
C913 C 0.66618 0.26766 0.7744 0.0
C914 C 0.64707 0.2617 0.81253 0.0
C915 C 0.77843 0.95665 0.09552 0.0
C916 C 0.79688 0.92125 0.10123 0.0
C917 C 0.77396 0.97175 0.05617 0.0
C918 C 0.78724 0.95162 0.02139 0.0
H919 H 0.76931 0.97373 0.12174 0.0
H920 H 0.76169 1.00026 0.05309 0.0
S921 S 0.83311 0.8554 0.02021 0.0
N922 N 0.82546 0.86471 0.06941 0.0
N923 N 0.81639 0.89293 0.99481 0.0
C924 C 0.80324 0.91488 0.02649 0.0
C925 C 0.80835 0.89975 0.06672 0.0
C926 C 1.10692 1.04837 0.31012 0.0
C927 C 1.12478 1.05587 0.27222 0.0
C928 C 1.12409 1.05831 0.34716 0.0
C929 C 1.15983 1.07607 0.34779 0.0
H930 H 1.07873 1.03599 0.31126 0.0
H931 H 1.10889 1.05269 0.37556 0.0
S932 S 0.22018 1.09858 0.2573 0.0
N933 N 0.18146 1.07933 0.23752 0.0
N934 N 0.21389 1.09838 0.30768 0.0
C935 C 0.17908 1.08176 0.31031 0.0
C936 C 1.16151 1.07153 0.27235 0.0
C937 C 1.02868 0.41918 0.53129 0.0
C938 C 1.04126 0.38073 0.52871 0.0
C939 C 1.02006 0.43582 0.56946 0.0
C940 C 1.02457 0.41466 0.60583 0.0
H941 H 1.02334 0.43572 0.50369 0.0
H942 H 1.00882 0.46492 0.57053 0.0
S943 S 1.06016 0.3147 0.61593 0.0
N944 N 1.06035 0.3231 0.56597 0.0
N945 N 1.04478 0.3549 0.63768 0.0
C946 C 1.03938 0.37725 0.60389 0.0
C947 C 1.04768 0.36014 0.56522 0.0
C948 C 0.67176 1.07431 0.19659 0.0
C949 C 0.65452 1.06421 0.15914 0.0
C950 C 0.65268 1.06896 0.23411 0.0
C951 C 0.61561 1.05407 0.235 0.0
H952 H 0.69982 1.08703 0.19674 0.0
H953 H 0.66635 1.07811 0.26227 0.0
S954 S 0.55883 1.02235 0.14525 0.0
N955 N 0.59916 1.03764 0.12522 0.0
N956 N 0.56314 1.02778 0.19546 0.0
C957 C 0.5987 1.04277 0.19778 0.0
C958 C 0.6182 1.04784 0.15986 0.0
C959 C 0.53567 0.3792 0.9052 0.0
C960 C 0.52154 0.41674 0.9005 0.0
C961 C 0.54127 0.36379 0.94429 0.0
C962 C 0.53338 0.38563 0.97984 0.0
H963 H 0.54078 0.36107 0.87853 0.0
H964 H 0.55041 0.33402 0.94669 0.0
S965 S 0.50034 0.4872 0.98333 0.0
N966 N 0.5028 0.47666 0.9338 0.0
N967 N 0.51403 0.44789 0.00779 0.0
C968 C 0.52159 0.42412 0.97547 0.0
C969 C 0.51535 0.43961 0.93556 0.0
C970 C 0.21927 0.29633 0.69516 0.0
C971 C 0.20617 0.27436 0.7285 0.0
C972 C 0.20624 0.28925 0.6553 0.0
C973 C 0.17952 0.26006 0.64758 0.0
H974 H 0.24084 0.31804 0.69957 0.0
H975 H 0.2178 0.30615 0.63023 0.0
S976 S 1.13336 0.19727 0.72523 0.0
N977 N 0.16337 0.22391 0.75184 0.0
N978 N 1.13799 0.21125 0.67697 0.0
C979 C 0.16516 0.23882 0.68093 0.0
C980 C 0.17868 0.24584 0.72142 0.0
C981 C 0.27525 0.98159 0.44643 0.0
C982 C 0.28218 0.96146 0.48307 0.0
C983 C 0.28286 0.9649 0.4082 0.0
C984 C 0.2979 0.9275 0.40535 0.0
H985 H 0.26523 1.01106 0.44733 0.0
H986 H 0.2786 0.98206 0.38079 0.0
S987 S 0.31643 0.86061 0.49176 0.0
N988 N 0.30144 0.90072 0.51409 0.0
N989 N 0.31578 0.86913 0.44181 0.0
C990 C 0.30284 0.90608 0.44157 0.0
C991 C 0.29482 0.92306 0.48062 0.0
C992 C 1.14558 0.77513 0.31672 0.0
C993 C 0.16499 0.78128 0.35387 0.0
C994 C 0.16348 0.78153 0.27881 0.0
C995 C 0.20144 0.79376 0.2771 0.0
H996 H 1.11666 0.76456 0.31702 0.0
H997 H 1.1481 0.77515 0.25084 0.0
S998 S 0.26374 0.81605 0.36571 0.0
N999 N 0.22338 0.80193 0.38668 0.0
N1000 N 0.25702 0.81417 0.31555 0.0
C1001 C 0.2205 0.80165 0.31405 0.0
C1002 C 0.20228 0.7953 0.35248 0.0
C1003 C 0.3489 0.44368 0.58323 0.0
C1004 C 0.31658 0.44489 0.60865 0.0
C1005 C 0.34679 0.45371 0.54187 0.0
C1006 C 0.31226 0.46515 0.52441 0.0
H1007 H 0.37607 0.43449 0.59522 0.0
H1008 H 0.37264 0.45316 0.52373 0.0
S1009 S 0.21893 0.47143 0.57709 0.0
N1010 N 0.24877 0.45786 0.6133 0.0
N1011 N 0.24464 0.47576 0.53481 0.0
C1012 C 0.27947 0.46577 0.54909 0.0
C1013 C 0.28167 0.45584 0.59143 0.0
C1014 C 0.6098 0.53822 0.80544 0.0
C1015 C 0.62836 0.5497 0.76916 0.0
C1016 C 0.62568 0.54556 0.84392 0.0
C1017 C 0.66038 0.56508 0.84732 0.0
H1018 H 0.58215 0.52459 0.80413 0.0
H1019 H 0.60995 0.53739 0.87124 0.0
S1020 S 0.72203 0.59785 0.76175 0.0
N1021 N 0.68474 0.57872 0.73885 0.0
N1022 N 0.71438 0.59311 0.81166 0.0
C1023 C 0.68013 0.57515 0.81136 0.0
C1024 C 0.6642 0.56717 0.77205 0.0
C1025 C 0.53843 0.86145 0.05745 0.0
C1026 C 0.53413 0.88278 0.021 0.0
C1027 C 0.53186 0.87831 0.09578 0.0
C1028 C 0.52074 0.91706 0.09892 0.0
H1029 H 0.54512 0.83093 0.05635 0.0
H1030 H 0.53351 0.86034 0.12293 0.0
S1031 S 0.5123 0.98715 0.01355 0.0
N1032 N 0.52313 0.94591 0.99073 0.0
N1033 N 0.51058 0.97776 0.0633 0.0
C1034 C 0.51919 0.93954 0.06307 0.0
C1035 C 0.52612 0.92237 0.0239 0.0
C1036 C 0.17838 0.57449 0.70075 0.0
C1037 C 1.16163 0.57024 0.66183 0.0
C1038 C 1.15742 0.56781 0.7368 0.0
C1039 C 1.11911 0.5566 0.73497 0.0
H1040 H 0.20738 0.58449 0.70335 0.0
H1041 H 0.17091 0.5729 0.76619 0.0
S1042 S 1.06422 0.53555 0.6403 0.0
N1043 N 1.10614 0.54981 0.62343 0.0
N1044 N 1.06665 0.5374 0.69096 0.0
C1045 C 1.10284 0.54999 0.69614 0.0
C1046 C 1.12412 0.55682 0.6596 0.0
C1047 C 1.01171 0.94056 0.44115 0.0
C1048 C 1.01728 0.91878 0.40522 0.0
C1049 C 1.01788 0.924 0.47973 0.0
C1050 C 1.0292 0.88523 0.48288 0.0
H1051 H 1.00132 0.96994 0.43937 0.0
H1052 H 1.01168 0.94086 0.50706 0.0
S1053 S 1.05048 0.8179 0.3969 0.0
N1054 N 1.03725 0.85832 0.37436 0.0
N1055 N 1.04853 0.82669 0.44681 0.0
C1056 C 1.03677 0.86406 0.44684 0.0
C1057 C 1.03076 0.881 0.40786 0.0
C1058 C 0.69 0.79992 0.16423 0.0
C1059 C 0.65665 0.77817 0.16036 0.0
C1060 C 0.70595 0.80671 0.20283 0.0
C1061 C 0.68875 0.7925 0.23882 0.0
H1062 H 0.70479 0.81021 0.13711 0.0
H1063 H 0.7327 0.82202 0.2044 0.0
S1064 S 0.59865 0.73773 0.24512 0.0
N1065 N 0.6052 0.74509 0.19542 0.0
N1066 N 0.63491 0.75843 0.26843 0.0
C1067 C 0.65409 0.77281 0.23556 0.0
C1068 C 0.63815 0.76538 0.19611 0.0
C1069 C 0.77701 0.4803 0.94779 0.0
C1070 C 0.78583 0.46151 0.98481 0.0
C1071 C 0.78489 0.46299 0.90988 0.0
C1072 C 0.80238 0.42667 0.90793 0.0
H1073 H 0.76521 0.50919 0.94811 0.0
H1074 H 0.77881 0.4788 0.88196 0.0
S1075 S 0.82781 0.36388 0.99555 0.0
N1076 N 0.80997 0.40316 0.01708 0.0
N1077 N 0.82567 0.37104 0.94541 0.0
C1078 C 0.80975 0.40676 0.94451 0.0
C1079 C 0.80111 0.42407 0.98317 0.0
C1080 C 0.36443 0.52744 0.12972 0.0
C1081 C 0.40195 0.51607 0.12148 0.0
C1082 C 0.35683 0.55258 0.16251 0.0
C1083 C 0.38682 0.56567 0.18742 0.0
H1084 H 0.34109 0.51106 0.11692 0.0
H1085 H 0.32776 0.55443 0.17328 0.0
S1086 S 0.48873 0.56256 0.16121 0.0
N1087 N 0.46839 0.5335 0.1275 0.0
N1088 N 0.45388 0.58118 0.18904 0.0
C1089 C 0.42347 0.56471 0.17044 0.0
C1090 C 0.43126 0.53907 0.13722 0.0
C1091 C 0.75746 0.75252 0.58912 0.0
C1092 C 0.7765 0.72072 0.57144 0.0
C1093 C 0.73277 0.74695 0.62238 0.0
C1094 C 0.7264 0.70946 0.63723 0.0
H1095 H 0.75566 0.77971 0.57289 0.0
H1096 H 0.7129 0.76982 0.62988 0.0
S1097 S 0.78697 0.62408 0.61765 0.0
N1098 N 0.8013 0.65645 0.58378 0.0
N1099 N 0.75373 0.64552 0.64548 0.0
C1100 C 0.75396 0.68128 0.62845 0.0
C1101 C 0.77945 0.68705 0.59505 0.0
C1102 C 0.44431 0.82483 0.64194 0.0
C1103 C 0.40702 0.83656 0.63357 0.0
C1104 C 0.45142 0.80012 0.67497 0.0
C1105 C 0.42119 0.78755 0.69999 0.0
H1106 H 0.46796 0.84047 0.62867 0.0
H1107 H 0.48044 0.79779 0.68553 0.0
S1108 S 0.31915 0.79355 0.67548 0.0
N1109 N 0.34014 0.82136 0.64105 0.0
N1110 N 0.35363 0.77435 0.70298 0.0
C1111 C 0.38441 0.78963 0.68374 0.0
C1112 C 0.37716 0.81485 0.65027 0.0
C1113 C 0.22547 0.63937 0.94063 0.0
C1114 C 0.23906 0.66598 0.96935 0.0
C1115 C 0.20539 0.65218 0.90631 0.0
C1116 C 0.1969 0.69179 0.90112 0.0
H1117 H 0.22684 0.6087 0.94692 0.0
H1118 H 0.19168 0.63048 0.88747 0.0
S1119 S 0.23063 0.77247 0.96581 0.0
N1120 N 0.24746 0.73334 0.98804 0.0
N1121 N 0.2083 0.75726 0.92428 0.0
C1122 C 0.21453 0.71863 0.92693 0.0
C1123 C 0.23568 0.70567 0.96124 0.0
C1124 C 0.91031 1.06764 0.70439 0.0
C1125 C 0.94069 1.06537 0.73235 0.0
C1126 C 0.91213 1.04721 0.66725 0.0
C1127 C 0.94463 1.02557 0.65764 0.0
H1128 H 0.88262 1.07746 0.71457 0.0
H1129 H 0.88595 1.04201 0.65078 0.0
S1130 S 1.0378 1.0318 0.70875 0.0
N1131 N 1.00863 1.05621 0.73909 0.0
N1132 N 1.0122 1.01791 0.66891 0.0
C1133 C 0.97826 1.03424 0.67863 0.0
C1134 C 0.97632 1.05478 0.7165 0.0
C1135 C 0.90704 0.31509 0.17574 0.0
C1136 C 0.87537 0.33782 0.16643 0.0
C1137 C 0.90793 0.29412 0.21238 0.0
C1138 C 0.87765 0.29705 0.2407 0.0
H1139 H 0.93327 0.31889 0.15873 0.0
H1140 H 0.93506 0.2825 0.22184 0.0
S1141 S 0.78307 0.3388 0.22072 0.0
N1142 N 0.80885 0.35074 0.18019 0.0
N1143 N 0.8109 0.31207 0.24987 0.0
C1144 C 0.84283 0.31114 0.22633 0.0
C1145 C 0.84172 0.3319 0.18872 0.0
C1146 C 1.15229 0.18203 0.95362 0.0
C1147 C 0.16475 1.14311 0.95273 0.0
C1148 C 1.14194 0.20016 0.99024 0.0
C1149 C 1.14277 0.18013 0.02744 0.0
H1150 H 1.15267 0.19986 0.9264 0.0
H1151 H 1.13323 0.23015 0.98949 0.0
S1152 S 0.1656 1.07582 0.04074 0.0
N1153 N 0.17249 1.08402 0.99131 0.0
N1154 N 1.15171 1.11742 0.0605 0.0
C1155 C 1.15227 1.14038 0.02668 0.0
C1156 C 0.16308 1.12202 0.98926 0.0
C1157 C 0.70585 0.17716 0.43023 0.0
C1158 C 0.70802 0.20041 0.46516 0.0
C1159 C 0.68599 0.19 0.39584 0.0
C1160 C 0.66649 0.22586 0.39643 0.0
H1161 H 0.71633 1.14777 0.43089 0.0
H1162 H 0.68133 1.16907 0.37161 0.0
S1163 S 0.67575 0.30171 0.47602 0.0
N1164 N 0.69861 0.26415 0.49495 0.0
N1165 N 0.6609 0.2883 0.43002 0.0
C1166 C 0.67505 0.25184 0.42822 0.0
C1167 C 0.69523 0.23877 0.46322 0.0
loop_
_geom_bond_atom_site_label_1
_geom_bond_atom_site_label_2
_geom_bond_distance
_geom_bond_site_symmetry_2
_ccdc_geom_bond_type
Sm0 C2 2.846 . S
Sm0 O20 2.543 . S
Sm0 O21 2.450 . S
Sm0 O22 2.681 1_556 S
Sm0 O23 2.464 1_556 S
Sm0 O24 2.396 1_556 S
Sm0 O28 2.386 . S
Sm0 O31 2.408 . S
Sm1 C11 2.846 . S
Sm1 O22 2.386 . S
Sm1 O25 2.408 . S
Sm1 O26 2.543 . S
Sm1 O27 2.450 . S
Sm1 O28 2.681 1_554 S
Sm1 O29 2.464 . S
Sm1 O30 2.396 . S
C2 Sm0 2.846 . S
C2 C3 1.506 . S
C2 O20 1.261 . S
C2 O21 1.242 . S
C3 C2 1.506 . S
C3 C4 1.358 . S
C3 C8 1.382 . S
C4 C3 1.358 . S
C4 C5 1.385 . S
C4 H32 0.930 . S
C5 C4 1.385 . S
C5 C6 1.395 . S
C5 H33 0.929 . S
C6 C5 1.395 . S
C6 C7 1.335 . S
C7 C6 1.335 . S
C7 C8 1.398 . S
C7 H34 0.930 . S
C8 C3 1.382 . S
C8 C7 1.398 . S
C8 H35 0.929 . S
C9 O22 1.271 . S
C9 O23 1.251 . S
C10 O24 1.252 . S
C10 O25 1.272 . S
C11 Sm1 2.846 . S
C11 C12 1.506 . S
C11 O26 1.261 . S
C11 O27 1.242 . S
C12 C11 1.506 . S
C12 C13 1.358 . S
C12 C17 1.382 . S
C13 C12 1.358 . S
C13 C14 1.385 . S
C13 H36 0.930 . S
C14 C13 1.385 . S
C14 C15 1.395 . S
C14 H37 0.929 . S
C15 C14 1.395 . S
C15 C16 1.335 . S
C16 C15 1.335 . S
C16 C17 1.398 . S
C16 H38 0.930 . S
C17 C12 1.382 . S
C17 C16 1.398 . S
C17 H39 0.929 . S
C18 O28 1.271 . S
C18 O29 1.251 1_556 S
C19 O30 1.252 . S
C19 O31 1.272 1_554 S
O20 Sm0 2.543 . S
O20 C2 1.261 . S
O21 Sm0 2.450 . S
O21 C2 1.242 . S
O22 Sm0 2.681 1_554 S
O22 Sm1 2.386 . S
O22 C9 1.271 . S
O23 Sm0 2.464 1_554 S
O23 C9 1.251 . S
O24 Sm0 2.396 1_554 S
O24 C10 1.252 . S
O25 Sm1 2.408 . S
O25 C10 1.272 . S
O26 Sm1 2.543 . S
O26 C11 1.261 . S
O27 Sm1 2.450 . S
O27 C11 1.242 . S
O28 Sm0 2.386 . S
O28 Sm1 2.681 1_556 S
O28 C18 1.271 . S
O29 Sm1 2.464 . S
O29 C18 1.251 1_554 S
O30 Sm1 2.396 . S
O30 C19 1.252 . S
O31 Sm0 2.408 . S
O31 C19 1.272 1_556 S
H32 C4 0.930 . S
H33 C5 0.929 . S
H34 C7 0.930 . S
H35 C8 0.929 . S
H36 C13 0.930 . S
H37 C14 0.929 . S
H38 C16 0.930 . S
H39 C17 0.929 . S
Sm40 C42 2.846 . S
Sm40 O60 2.543 . S
Sm40 O61 2.450 . S
Sm40 O62 2.681 . S
Sm40 O63 2.464 . S
Sm40 O64 2.396 . S
Sm40 O68 2.386 . S
Sm40 O71 2.408 . S
Sm41 C51 2.846 . S
Sm41 O62 2.386 . S
Sm41 O65 2.408 . S
Sm41 O66 2.543 . S
Sm41 O67 2.450 . S
Sm41 O68 2.681 . S
Sm41 O69 2.464 . S
Sm41 O70 2.396 . S
C42 Sm40 2.846 . S
C42 C43 1.506 . S
C42 O60 1.261 . S
C42 O61 1.242 . S
C43 C42 1.506 . S
C43 C44 1.358 . S
C43 C48 1.382 . S
C44 C43 1.358 . S
C44 C45 1.385 . S
C44 H72 0.930 . S
C45 C44 1.385 . S
C45 C46 1.395 . S
C45 H73 0.929 . S
C46 C45 1.395 . S
C46 C47 1.335 . S
C47 C46 1.335 . S
C47 C48 1.398 . S
C47 H74 0.930 . S
C48 C43 1.382 . S
C48 C47 1.398 . S
C48 H75 0.929 . S
C49 O62 1.271 . S
C49 O63 1.251 . S
C50 O64 1.252 . S
C50 O65 1.272 . S
C51 Sm41 2.846 . S
C51 C52 1.506 . S
C51 O66 1.261 . S
C51 O67 1.242 . S
C52 C51 1.506 . S
C52 C53 1.358 . S
C52 C57 1.382 . S
C53 C52 1.358 . S
C53 C54 1.385 . S
C53 H76 0.930 . S
C54 C53 1.385 . S
C54 C55 1.395 . S
C54 H77 0.929 . S
C55 C54 1.395 . S
C55 C56 1.335 . S
C56 C55 1.335 . S
C56 C57 1.398 . S
C56 H78 0.930 . S
C57 C52 1.382 . S
C57 C56 1.398 . S
C57 H79 0.929 . S
C58 O68 1.271 . S
C58 O69 1.251 . S
C59 O70 1.252 . S
C59 O71 1.272 . S
O60 Sm40 2.543 . S
O60 C42 1.261 . S
O61 Sm40 2.450 . S
O61 C42 1.242 . S
O62 Sm40 2.681 . S
O62 Sm41 2.386 . S
O62 C49 1.271 . S
O63 Sm40 2.464 . S
O63 C49 1.251 . S
O64 Sm40 2.396 . S
O64 C50 1.252 . S
O65 Sm41 2.408 . S
O65 C50 1.272 . S
O66 Sm41 2.543 . S
O66 C51 1.261 . S
O67 Sm41 2.450 . S
O67 C51 1.242 . S
O68 Sm40 2.386 . S
O68 Sm41 2.681 . S
O68 C58 1.271 . S
O69 Sm41 2.464 . S
O69 C58 1.251 . S
O70 Sm41 2.396 . S
O70 C59 1.252 . S
O71 Sm40 2.408 . S
O71 C59 1.272 . S
H72 C44 0.930 . S
H73 C45 0.929 . S
H74 C47 0.930 . S
H75 C48 0.929 . S
H76 C53 0.930 . S
H77 C54 0.929 . S
H78 C56 0.930 . S
H79 C57 0.929 . S
Sm80 C82 2.846 . S
Sm80 O100 2.543 . S
Sm80 O101 2.450 . S
Sm80 O102 2.681 . S
Sm80 O103 2.464 . S
Sm80 O104 2.396 . S
Sm80 O108 2.386 . S
Sm80 O111 2.408 . S
Sm81 C91 2.846 . S
Sm81 O102 2.386 . S
Sm81 O105 2.408 . S
Sm81 O106 2.543 . S
Sm81 O107 2.450 . S
Sm81 O108 2.681 . S
Sm81 O109 2.464 . S
Sm81 O110 2.396 . S
C82 Sm80 2.846 . S
C82 C83 1.506 . S
C82 O100 1.261 . S
C82 O101 1.242 . S
C83 C82 1.506 . S
C83 C84 1.358 . S
C83 C88 1.382 . S
C84 C83 1.358 . S
C84 C85 1.385 1_455 S
C84 H112 0.930 . S
C85 C84 1.385 1_655 S
C85 C86 1.395 . S
C85 H113 0.929 . S
C86 C85 1.395 . S
C86 C87 1.335 . S
C87 C86 1.335 . S
C87 C88 1.398 1_655 S
C87 H114 0.930 . S
C88 C83 1.382 . S
C88 C87 1.398 1_455 S
C88 H115 0.929 . S
C89 O102 1.271 . S
C89 O103 1.251 . S
C90 O104 1.252 . S
C90 O105 1.272 . S
C91 Sm81 2.846 . S
C91 C92 1.506 . S
C91 O106 1.261 . S
C91 O107 1.242 . S
C92 C91 1.506 . S
C92 C93 1.358 . S
C92 C97 1.382 . S
C93 C92 1.358 . S
C93 C94 1.385 . S
C93 H116 0.930 . S
C94 C93 1.385 . S
C94 C95 1.395 . S
C94 H117 0.929 . S
C95 C94 1.395 . S
C95 C96 1.335 . S
C96 C95 1.335 . S
C96 C97 1.398 . S
C96 H118 0.930 . S
C97 C92 1.382 . S
C97 C96 1.398 . S
C97 H119 0.929 . S
C98 O108 1.271 . S
C98 O109 1.251 . S
C99 O110 1.252 . S
C99 O111 1.272 . S
O100 Sm80 2.543 . S
O100 C82 1.261 . S
O101 Sm80 2.450 . S
O101 C82 1.242 . S
O102 Sm80 2.681 . S
O102 Sm81 2.386 . S
O102 C89 1.271 . S
O103 Sm80 2.464 . S
O103 C89 1.251 . S
O104 Sm80 2.396 . S
O104 C90 1.252 . S
O105 Sm81 2.408 . S
O105 C90 1.272 . S
O106 Sm81 2.543 . S
O106 C91 1.261 . S
O107 Sm81 2.450 . S
O107 C91 1.242 . S
O108 Sm80 2.386 . S
O108 Sm81 2.681 . S
O108 C98 1.271 . S
O109 Sm81 2.464 . S
O109 C98 1.251 . S
O110 Sm81 2.396 . S
O110 C99 1.252 . S
O111 Sm80 2.408 . S
O111 C99 1.272 . S
H112 C84 0.930 . S
H113 C85 0.929 . S
H114 C87 0.930 . S
H115 C88 0.929 . S
H116 C93 0.930 . S
H117 C94 0.929 . S
H118 C96 0.930 . S
H119 C97 0.929 . S
Sm120 C122 2.846 . S
Sm120 O140 2.543 . S
Sm120 O141 2.450 . S
Sm120 O142 2.681 . S
Sm120 O143 2.464 . S
Sm120 O144 2.396 . S
Sm120 O148 2.386 . S
Sm120 O151 2.408 . S
Sm121 C131 2.846 . S
Sm121 O142 2.386 . S
Sm121 O145 2.408 . S
Sm121 O146 2.543 . S
Sm121 O147 2.450 . S
Sm121 O148 2.681 . S
Sm121 O149 2.464 . S
Sm121 O150 2.396 . S
C122 Sm120 2.846 . S
C122 C123 1.506 . S
C122 O140 1.261 . S
C122 O141 1.242 . S
C123 C122 1.506 . S
C123 C124 1.358 . S
C123 C128 1.382 . S
C124 C123 1.358 . S
C124 C125 1.385 . S
C124 H152 0.930 . S
C125 C124 1.385 . S
C125 C126 1.395 . S
C125 H153 0.929 . S
C126 C125 1.395 . S
C126 C127 1.335 . S
C127 C126 1.335 . S
C127 C128 1.398 . S
C127 H154 0.930 . S
C128 C123 1.382 . S
C128 C127 1.398 . S
C128 H155 0.929 . S
C129 O142 1.271 . S
C129 O143 1.251 . S
C130 O144 1.252 . S
C130 O145 1.272 . S
C131 Sm121 2.846 . S
C131 C132 1.506 . S
C131 O146 1.261 . S
C131 O147 1.242 . S
C132 C131 1.506 . S
C132 C133 1.358 . S
C132 C137 1.382 . S
C133 C132 1.358 . S
C133 C134 1.385 . S
C133 H156 0.930 . S
C134 C133 1.385 . S
C134 C135 1.395 . S
C134 H157 0.929 . S
C135 C134 1.395 . S
C135 C136 1.335 . S
C136 C135 1.335 . S
C136 C137 1.398 . S
C136 H158 0.930 . S
C137 C132 1.382 . S
C137 C136 1.398 . S
C137 H159 0.929 . S
C138 O148 1.271 . S
C138 O149 1.251 . S
C139 O150 1.252 . S
C139 O151 1.272 . S
O140 Sm120 2.543 . S
O140 C122 1.261 . S
O141 Sm120 2.450 . S
O141 C122 1.242 . S
O142 Sm120 2.681 . S
O142 Sm121 2.386 . S
O142 C129 1.271 . S
O143 Sm120 2.464 . S
O143 C129 1.251 . S
O144 Sm120 2.396 . S
O144 C130 1.252 . S
O145 Sm121 2.408 . S
O145 C130 1.272 . S
O146 Sm121 2.543 . S
O146 C131 1.261 . S
O147 Sm121 2.450 . S
O147 C131 1.242 . S
O148 Sm120 2.386 . S
O148 Sm121 2.681 . S
O148 C138 1.271 . S
O149 Sm121 2.464 . S
O149 C138 1.251 . S
O150 Sm121 2.396 . S
O150 C139 1.252 . S
O151 Sm120 2.408 . S
O151 C139 1.272 . S
H152 C124 0.930 . S
H153 C125 0.929 . S
H154 C127 0.930 . S
H155 C128 0.929 . S
H156 C133 0.930 . S
H157 C134 0.929 . S
H158 C136 0.930 . S
H159 C137 0.929 . S
Sm160 C162 2.846 . S
Sm160 O180 2.543 . S
Sm160 O181 2.450 . S
Sm160 O182 2.681 1_556 S
Sm160 O183 2.464 . S
Sm160 O184 2.396 . S
Sm160 O188 2.386 . S
Sm160 O191 2.408 . S
Sm161 C171 2.846 . S
Sm161 O182 2.386 . S
Sm161 O185 2.408 . S
Sm161 O186 2.543 . S
Sm161 O187 2.450 . S
Sm161 O188 2.681 1_554 S
Sm161 O189 2.464 1_554 S
Sm161 O190 2.396 1_554 S
C162 Sm160 2.846 . S
C162 C163 1.506 . S
C162 O180 1.261 . S
C162 O181 1.242 . S
C163 C162 1.506 . S
C163 C164 1.358 . S
C163 C168 1.382 . S
C164 C163 1.358 . S
C164 C165 1.385 . S
C164 H192 0.930 . S
C165 C164 1.385 . S
C165 C166 1.395 . S
C165 H193 0.929 . S
C166 C165 1.395 . S
C166 C167 1.335 . S
C167 C166 1.335 . S
C167 C168 1.398 . S
C167 H194 0.930 . S
C168 C163 1.382 . S
C168 C167 1.398 . S
C168 H195 0.929 . S
C169 O182 1.271 . S
C169 O183 1.251 1_554 S
C170 O184 1.252 . S
C170 O185 1.272 1_556 S
C171 Sm161 2.846 . S
C171 C172 1.506 . S
C171 O186 1.261 . S
C171 O187 1.242 . S
C172 C171 1.506 . S
C172 C173 1.358 . S
C172 C177 1.382 . S
C173 C172 1.358 . S
C173 C174 1.385 . S
C173 H196 0.930 . S
C174 C173 1.385 . S
C174 C175 1.395 . S
C174 H197 0.929 . S
C175 C174 1.395 . S
C175 C176 1.335 . S
C176 C175 1.335 . S
C176 C177 1.398 . S
C176 H198 0.930 . S
C177 C172 1.382 . S
C177 C176 1.398 . S
C177 H199 0.929 . S
C178 O188 1.271 . S
C178 O189 1.251 . S
C179 O190 1.252 . S
C179 O191 1.272 . S
O180 Sm160 2.543 . S
O180 C162 1.261 . S
O181 Sm160 2.450 . S
O181 C162 1.242 . S
O182 Sm160 2.681 1_554 S
O182 Sm161 2.386 . S
O182 C169 1.271 . S
O183 Sm160 2.464 . S
O183 C169 1.251 1_556 S
O184 Sm160 2.396 . S
O184 C170 1.252 . S
O185 Sm161 2.408 . S
O185 C170 1.272 1_554 S
O186 Sm161 2.543 . S
O186 C171 1.261 . S
O187 Sm161 2.450 . S
O187 C171 1.242 . S
O188 Sm160 2.386 . S
O188 Sm161 2.681 1_556 S
O188 C178 1.271 . S
O189 Sm161 2.464 1_556 S
O189 C178 1.251 . S
O190 Sm161 2.396 1_556 S
O190 C179 1.252 . S
O191 Sm160 2.408 . S
O191 C179 1.272 . S
H192 C164 0.930 . S
H193 C165 0.929 . S
H194 C167 0.930 . S
H195 C168 0.929 . S
H196 C173 0.930 . S
H197 C174 0.929 . S
H198 C176 0.930 . S
H199 C177 0.929 . S
Sm200 C202 2.846 . S
Sm200 O220 2.543 . S
Sm200 O221 2.450 . S
Sm200 O222 2.681 . S
Sm200 O223 2.464 . S
Sm200 O224 2.396 . S
Sm200 O228 2.386 . S
Sm200 O231 2.408 . S
Sm201 C211 2.846 . S
Sm201 O222 2.386 . S
Sm201 O225 2.408 . S
Sm201 O226 2.543 . S
Sm201 O227 2.450 . S
Sm201 O228 2.681 . S
Sm201 O229 2.464 . S
Sm201 O230 2.396 . S
C202 Sm200 2.846 . S
C202 C203 1.506 . S
C202 O220 1.261 . S
C202 O221 1.242 . S
C203 C202 1.506 . S
C203 C204 1.358 . S
C203 C208 1.382 . S
C204 C203 1.358 . S
C204 C205 1.385 . S
C204 H232 0.930 . S
C205 C204 1.385 . S
C205 C206 1.395 . S
C205 H233 0.929 . S
C206 C205 1.395 . S
C206 C207 1.335 . S
C207 C206 1.335 . S
C207 C208 1.398 . S
C207 H234 0.930 . S
C208 C203 1.382 . S
C208 C207 1.398 . S
C208 H235 0.929 . S
C209 O222 1.271 . S
C209 O223 1.251 . S
C210 O224 1.252 . S
C210 O225 1.272 . S
C211 Sm201 2.846 . S
C211 C212 1.506 . S
C211 O226 1.261 . S
C211 O227 1.242 . S
C212 C211 1.506 . S
C212 C213 1.358 . S
C212 C217 1.382 . S
C213 C212 1.358 . S
C213 C214 1.385 . S
C213 H236 0.930 . S
C214 C213 1.385 . S
C214 C215 1.395 . S
C214 H237 0.929 . S
C215 C214 1.395 . S
C215 C216 1.335 . S
C216 C215 1.335 . S
C216 C217 1.398 . S
C216 H238 0.930 . S
C217 C212 1.382 . S
C217 C216 1.398 . S
C217 H239 0.929 . S
C218 O228 1.271 . S
C218 O229 1.251 . S
C219 O230 1.252 . S
C219 O231 1.272 . S
O220 Sm200 2.543 . S
O220 C202 1.261 . S
O221 Sm200 2.450 . S
O221 C202 1.242 . S
O222 Sm200 2.681 . S
O222 Sm201 2.386 . S
O222 C209 1.271 . S
O223 Sm200 2.464 . S
O223 C209 1.251 . S
O224 Sm200 2.396 . S
O224 C210 1.252 . S
O225 Sm201 2.408 . S
O225 C210 1.272 . S
O226 Sm201 2.543 . S
O226 C211 1.261 . S
O227 Sm201 2.450 . S
O227 C211 1.242 . S
O228 Sm200 2.386 . S
O228 Sm201 2.681 . S
O228 C218 1.271 . S
O229 Sm201 2.464 . S
O229 C218 1.251 . S
O230 Sm201 2.396 . S
O230 C219 1.252 . S
O231 Sm200 2.408 . S
O231 C219 1.272 . S
H232 C204 0.930 . S
H233 C205 0.929 . S
H234 C207 0.930 . S
H235 C208 0.929 . S
H236 C213 0.930 . S
H237 C214 0.929 . S
H238 C216 0.930 . S
H239 C217 0.929 . S
Sm240 C242 2.846 . S
Sm240 O260 2.543 . S
Sm240 O261 2.450 . S
Sm240 O262 2.681 . S
Sm240 O263 2.464 . S
Sm240 O264 2.396 . S
Sm240 O268 2.386 . S
Sm240 O271 2.408 . S
Sm241 C251 2.846 . S
Sm241 O262 2.386 . S
Sm241 O265 2.408 . S
Sm241 O266 2.543 . S
Sm241 O267 2.450 . S
Sm241 O268 2.681 . S
Sm241 O269 2.464 . S
Sm241 O270 2.396 . S
C242 Sm240 2.846 . S
C242 C243 1.506 . S
C242 O260 1.261 . S
C242 O261 1.242 . S
C243 C242 1.506 . S
C243 C244 1.358 . S
C243 C248 1.382 . S
C244 C243 1.358 . S
C244 C245 1.385 . S
C244 H272 0.930 . S
C245 C244 1.385 . S
C245 C246 1.395 . S
C245 H273 0.929 . S
C246 C245 1.395 . S
C246 C247 1.335 . S
C247 C246 1.335 . S
C247 C248 1.398 . S
C247 H274 0.930 . S
C248 C243 1.382 . S
C248 C247 1.398 . S
C248 H275 0.929 . S
C249 O262 1.271 . S
C249 O263 1.251 . S
C250 O264 1.252 . S
C250 O265 1.272 . S
C251 Sm241 2.846 . S
C251 C252 1.506 . S
C251 O266 1.261 . S
C251 O267 1.242 . S
C252 C251 1.506 . S
C252 C253 1.358 . S
C252 C257 1.382 . S
C253 C252 1.358 . S
C253 C254 1.385 1_655 S
C253 H276 0.930 . S
C254 C253 1.385 1_455 S
C254 C255 1.395 . S
C254 H277 0.929 . S
C255 C254 1.395 . S
C255 C256 1.335 . S
C256 C255 1.335 . S
C256 C257 1.398 1_455 S
C256 H278 0.930 . S
C257 C252 1.382 . S
C257 C256 1.398 1_655 S
C257 H279 0.929 . S
C258 O268 1.271 . S
C258 O269 1.251 . S
C259 O270 1.252 . S
C259 O271 1.272 . S
O260 Sm240 2.543 . S
O260 C242 1.261 . S
O261 Sm240 2.450 . S
O261 C242 1.242 . S
O262 Sm240 2.681 . S
O262 Sm241 2.386 . S
O262 C249 1.271 . S
O263 Sm240 2.464 . S
O263 C249 1.251 . S
O264 Sm240 2.396 . S
O264 C250 1.252 . S
O265 Sm241 2.408 . S
O265 C250 1.272 . S
O266 Sm241 2.543 . S
O266 C251 1.261 . S
O267 Sm241 2.450 . S
O267 C251 1.242 . S
O268 Sm240 2.386 . S
O268 Sm241 2.681 . S
O268 C258 1.271 . S
O269 Sm241 2.464 . S
O269 C258 1.251 . S
O270 Sm241 2.396 . S
O270 C259 1.252 . S
O271 Sm240 2.408 . S
O271 C259 1.272 . S
H272 C244 0.930 . S
H273 C245 0.929 . S
H274 C247 0.930 . S
H275 C248 0.929 . S
H276 C253 0.930 . S
H277 C254 0.929 . S
H278 C256 0.930 . S
H279 C257 0.929 . S
Sm280 C282 2.846 . S
Sm280 O300 2.543 . S
Sm280 O301 2.450 . S
Sm280 O302 2.681 . S
Sm280 O303 2.464 . S
Sm280 O304 2.396 . S
Sm280 O308 2.386 . S
Sm280 O311 2.408 . S
Sm281 C291 2.846 . S
Sm281 O302 2.386 . S
Sm281 O305 2.408 . S
Sm281 O306 2.543 . S
Sm281 O307 2.450 . S
Sm281 O308 2.681 . S
Sm281 O309 2.464 . S
Sm281 O310 2.396 . S
C282 Sm280 2.846 . S
C282 C283 1.506 . S
C282 O300 1.261 . S
C282 O301 1.242 . S
C283 C282 1.506 . S
C283 C284 1.358 . S
C283 C288 1.382 . S
C284 C283 1.358 . S
C284 C285 1.385 . S
C284 H312 0.930 . S
C285 C284 1.385 . S
C285 C286 1.395 . S
C285 H313 0.929 . S
C286 C285 1.395 . S
C286 C287 1.335 . S
C287 C286 1.335 . S
C287 C288 1.398 . S
C287 H314 0.930 . S
C288 C283 1.382 . S
C288 C287 1.398 . S
C288 H315 0.929 . S
C289 O302 1.271 . S
C289 O303 1.251 . S
C290 O304 1.252 . S
C290 O305 1.272 . S
C291 Sm281 2.846 . S
C291 C292 1.506 . S
C291 O306 1.261 . S
C291 O307 1.242 . S
C292 C291 1.506 . S
C292 C293 1.358 . S
C292 C297 1.382 . S
C293 C292 1.358 . S
C293 C294 1.385 . S
C293 H316 0.930 . S
C294 C293 1.385 . S
C294 C295 1.395 . S
C294 H317 0.929 . S
C295 C294 1.395 . S
C295 C296 1.335 . S
C296 C295 1.335 . S
C296 C297 1.398 . S
C296 H318 0.930 . S
C297 C292 1.382 . S
C297 C296 1.398 . S
C297 H319 0.929 . S
C298 O308 1.271 . S
C298 O309 1.251 . S
C299 O310 1.252 . S
C299 O311 1.272 . S
O300 Sm280 2.543 . S
O300 C282 1.261 . S
O301 Sm280 2.450 . S
O301 C282 1.242 . S
O302 Sm280 2.681 . S
O302 Sm281 2.386 . S
O302 C289 1.271 . S
O303 Sm280 2.464 . S
O303 C289 1.251 . S
O304 Sm280 2.396 . S
O304 C290 1.252 . S
O305 Sm281 2.408 . S
O305 C290 1.272 . S
O306 Sm281 2.543 . S
O306 C291 1.261 . S
O307 Sm281 2.450 . S
O307 C291 1.242 . S
O308 Sm280 2.386 . S
O308 Sm281 2.681 . S
O308 C298 1.271 . S
O309 Sm281 2.464 . S
O309 C298 1.251 . S
O310 Sm281 2.396 . S
O310 C299 1.252 . S
O311 Sm280 2.408 . S
O311 C299 1.272 . S
H312 C284 0.930 . S
H313 C285 0.929 . S
H314 C287 0.930 . S
H315 C288 0.929 . S
H316 C293 0.930 . S
H317 C294 0.929 . S
H318 C296 0.930 . S
H319 C297 0.929 . S
Sm320 C322 2.846 . S
Sm320 O340 2.543 . S
Sm320 O341 2.450 . S
Sm320 O342 2.681 . S
Sm320 O343 2.464 . S
Sm320 O344 2.396 . S
Sm320 O348 2.386 . S
Sm320 O351 2.408 . S
Sm321 C331 2.846 . S
Sm321 O342 2.386 . S
Sm321 O345 2.408 . S
Sm321 O346 2.543 . S
Sm321 O347 2.450 . S
Sm321 O348 2.681 . S
Sm321 O349 2.464 . S
Sm321 O350 2.396 . S
C322 Sm320 2.846 . S
C322 C323 1.506 . S
C322 O340 1.261 . S
C322 O341 1.242 . S
C323 C322 1.506 . S
C323 C324 1.358 . S
C323 C328 1.382 . S
C324 C323 1.358 . S
C324 C325 1.385 1_655 S
C324 H352 0.930 . S
C325 C324 1.385 1_455 S
C325 C326 1.395 . S
C325 H353 0.929 . S
C326 C325 1.395 . S
C326 C327 1.335 . S
C327 C326 1.335 . S
C327 C328 1.398 1_455 S
C327 H354 0.930 . S
C328 C323 1.382 . S
C328 C327 1.398 1_655 S
C328 H355 0.929 . S
C329 O342 1.271 . S
C329 O343 1.251 . S
C330 O344 1.252 . S
C330 O345 1.272 . S
C331 Sm321 2.846 . S
C331 C332 1.506 . S
C331 O346 1.261 . S
C331 O347 1.242 . S
C332 C331 1.506 . S
C332 C333 1.358 . S
C332 C337 1.382 . S
C333 C332 1.358 . S
C333 C334 1.385 . S
C333 H356 0.930 . S
C334 C333 1.385 . S
C334 C335 1.395 . S
C334 H357 0.929 . S
C335 C334 1.395 . S
C335 C336 1.335 . S
C336 C335 1.335 . S
C336 C337 1.398 . S
C336 H358 0.930 . S
C337 C332 1.382 . S
C337 C336 1.398 . S
C337 H359 0.929 . S
C338 O348 1.271 . S
C338 O349 1.251 . S
C339 O350 1.252 . S
C339 O351 1.272 . S
O340 Sm320 2.543 . S
O340 C322 1.261 . S
O341 Sm320 2.450 . S
O341 C322 1.242 . S
O342 Sm320 2.681 . S
O342 Sm321 2.386 . S
O342 C329 1.271 . S
O343 Sm320 2.464 . S
O343 C329 1.251 . S
O344 Sm320 2.396 . S
O344 C330 1.252 . S
O345 Sm321 2.408 . S
O345 C330 1.272 . S
O346 Sm321 2.543 . S
O346 C331 1.261 . S
O347 Sm321 2.450 . S
O347 C331 1.242 . S
O348 Sm320 2.386 . S
O348 Sm321 2.681 . S
O348 C338 1.271 . S
O349 Sm321 2.464 . S
O349 C338 1.251 . S
O350 Sm321 2.396 . S
O350 C339 1.252 . S
O351 Sm320 2.408 . S
O351 C339 1.272 . S
H352 C324 0.930 . S
H353 C325 0.929 . S
H354 C327 0.930 . S
H355 C328 0.929 . S
H356 C333 0.930 . S
H357 C334 0.929 . S
H358 C336 0.930 . S
H359 C337 0.929 . S
Sm360 C362 2.846 . S
Sm360 O380 2.543 . S
Sm360 O381 2.450 . S
Sm360 O382 2.681 . S
Sm360 O383 2.464 . S
Sm360 O384 2.396 . S
Sm360 O388 2.386 . S
Sm360 O391 2.408 . S
Sm361 C371 2.846 . S
Sm361 O382 2.386 . S
Sm361 O385 2.408 . S
Sm361 O386 2.543 . S
Sm361 O387 2.450 . S
Sm361 O388 2.681 . S
Sm361 O389 2.464 . S
Sm361 O390 2.396 . S
C362 Sm360 2.846 . S
C362 C363 1.506 . S
C362 O380 1.261 . S
C362 O381 1.242 . S
C363 C362 1.506 . S
C363 C364 1.358 . S
C363 C368 1.382 . S
C364 C363 1.358 . S
C364 C365 1.385 . S
C364 H392 0.930 . S
C365 C364 1.385 . S
C365 C366 1.395 . S
C365 H393 0.929 . S
C366 C365 1.395 . S
C366 C367 1.335 . S
C367 C366 1.335 . S
C367 C368 1.398 . S
C367 H394 0.930 . S
C368 C363 1.382 . S
C368 C367 1.398 . S
C368 H395 0.929 . S
C369 O382 1.271 . S
C369 O383 1.251 . S
C370 O384 1.252 . S
C370 O385 1.272 . S
C371 Sm361 2.846 . S
C371 C372 1.506 . S
C371 O386 1.261 . S
C371 O387 1.242 . S
C372 C371 1.506 . S
C372 C373 1.358 . S
C372 C377 1.382 . S
C373 C372 1.358 . S
C373 C374 1.385 1_545 S
C373 H396 0.930 . S
C374 C373 1.385 1_565 S
C374 C375 1.395 . S
C374 H397 0.929 . S
C375 C374 1.395 . S
C375 C376 1.338 . S
C376 C375 1.338 . S
C376 C377 1.393 1_565 S
C376 H398 0.932 . S
C377 C372 1.382 . S
C377 C376 1.393 1_545 S
C377 H399 0.929 . S
C378 O388 1.271 . S
C378 O389 1.251 . S
C379 O390 1.252 . S
C379 O391 1.272 . S
O380 Sm360 2.543 . S
O380 C362 1.261 . S
O381 Sm360 2.450 . S
O381 C362 1.242 . S
O382 Sm360 2.681 . S
O382 Sm361 2.386 . S
O382 C369 1.271 . S
O383 Sm360 2.464 . S
O383 C369 1.251 . S
O384 Sm360 2.396 . S
O384 C370 1.252 . S
O385 Sm361 2.408 . S
O385 C370 1.272 . S
O386 Sm361 2.543 . S
O386 C371 1.261 . S
O387 Sm361 2.450 . S
O387 C371 1.242 . S
O388 Sm360 2.386 . S
O388 Sm361 2.681 . S
O388 C378 1.271 . S
O389 Sm361 2.464 . S
O389 C378 1.251 . S
O390 Sm361 2.396 . S
O390 C379 1.252 . S
O391 Sm360 2.408 . S
O391 C379 1.272 . S
H392 C364 0.930 . S
H393 C365 0.929 . S
H394 C367 0.930 . S
H395 C368 0.929 . S
H396 C373 0.930 . S
H397 C374 0.929 . S
H398 C376 0.932 . S
H399 C377 0.929 . S
Sm400 C402 2.846 . S
Sm400 O420 2.543 . S
Sm400 O421 2.450 . S
Sm400 O422 2.681 1_556 S
Sm400 O423 2.464 1_556 S
Sm400 O424 2.396 1_556 S
Sm400 O428 2.386 . S
Sm400 O431 2.408 . S
Sm401 C411 2.846 . S
Sm401 O422 2.386 . S
Sm401 O425 2.408 . S
Sm401 O426 2.543 . S
Sm401 O427 2.450 . S
Sm401 O428 2.681 1_554 S
Sm401 O429 2.464 . S
Sm401 O430 2.396 . S
C402 Sm400 2.846 . S
C402 C403 1.506 . S
C402 O420 1.261 . S
C402 O421 1.242 . S
C403 C402 1.506 . S
C403 C404 1.358 . S
C403 C408 1.382 . S
C404 C403 1.358 . S
C404 C405 1.385 . S
C404 H432 0.930 . S
C405 C404 1.385 . S
C405 C406 1.395 . S
C405 H433 0.929 . S
C406 C405 1.395 . S
C406 C407 1.335 . S
C407 C406 1.335 . S
C407 C408 1.398 . S
C407 H434 0.930 . S
C408 C403 1.382 . S
C408 C407 1.398 . S
C408 H435 0.929 . S
C409 O422 1.271 . S
C409 O423 1.251 . S
C410 O424 1.252 . S
C410 O425 1.272 . S
C411 Sm401 2.846 . S
C411 C412 1.506 . S
C411 O426 1.261 . S
C411 O427 1.242 . S
C412 C411 1.506 . S
C412 C413 1.358 . S
C412 C417 1.382 . S
C413 C412 1.358 . S
C413 C414 1.385 . S
C413 H436 0.930 . S
C414 C413 1.385 . S
C414 C415 1.395 . S
C414 H437 0.929 . S
C415 C414 1.395 . S
C415 C416 1.335 . S
C416 C415 1.335 . S
C416 C417 1.398 . S
C416 H438 0.930 . S
C417 C412 1.382 . S
C417 C416 1.398 . S
C417 H439 0.929 . S
C418 O428 1.271 . S
C418 O429 1.251 1_556 S
C419 O430 1.252 . S
C419 O431 1.272 1_554 S
O420 Sm400 2.543 . S
O420 C402 1.261 . S
O421 Sm400 2.450 . S
O421 C402 1.242 . S
O422 Sm400 2.681 1_554 S
O422 Sm401 2.386 . S
O422 C409 1.271 . S
O423 Sm400 2.464 1_554 S
O423 C409 1.251 . S
O424 Sm400 2.396 1_554 S
O424 C410 1.252 . S
O425 Sm401 2.408 . S
O425 C410 1.272 . S
O426 Sm401 2.543 . S
O426 C411 1.261 . S
O427 Sm401 2.450 . S
O427 C411 1.242 . S
O428 Sm400 2.386 . S
O428 Sm401 2.681 1_556 S
O428 C418 1.271 . S
O429 Sm401 2.464 . S
O429 C418 1.251 1_554 S
O430 Sm401 2.396 . S
O430 C419 1.252 . S
O431 Sm400 2.408 . S
O431 C419 1.272 1_556 S
H432 C404 0.930 . S
H433 C405 0.929 . S
H434 C407 0.930 . S
H435 C408 0.929 . S
H436 C413 0.930 . S
H437 C414 0.929 . S
H438 C416 0.930 . S
H439 C417 0.929 . S
Sm440 C442 2.846 . S
Sm440 O460 2.543 . S
Sm440 O461 2.450 . S
Sm440 O462 2.681 . S
Sm440 O463 2.464 . S
Sm440 O464 2.396 . S
Sm440 O468 2.386 . S
Sm440 O471 2.408 . S
Sm441 C451 2.846 . S
Sm441 O462 2.386 . S
Sm441 O465 2.408 . S
Sm441 O466 2.543 . S
Sm441 O467 2.450 . S
Sm441 O468 2.681 . S
Sm441 O469 2.464 . S
Sm441 O470 2.396 . S
C442 Sm440 2.846 . S
C442 C443 1.506 . S
C442 O460 1.261 . S
C442 O461 1.242 . S
C443 C442 1.506 . S
C443 C444 1.358 . S
C443 C448 1.382 . S
C444 C443 1.358 . S
C444 C445 1.385 . S
C444 H472 0.930 . S
C445 C444 1.385 . S
C445 C446 1.395 . S
C445 H473 0.929 . S
C446 C445 1.395 . S
C446 C447 1.335 . S
C447 C446 1.335 . S
C447 C448 1.398 . S
C447 H474 0.930 . S
C448 C443 1.382 . S
C448 C447 1.398 . S
C448 H475 0.929 . S
C449 O462 1.271 . S
C449 O463 1.251 . S
C450 O464 1.252 . S
C450 O465 1.272 . S
C451 Sm441 2.846 . S
C451 C452 1.506 . S
C451 O466 1.261 . S
C451 O467 1.242 . S
C452 C451 1.506 . S
C452 C453 1.358 . S
C452 C457 1.382 . S
C453 C452 1.358 . S
C453 C454 1.385 1_565 S
C453 H476 0.930 . S
C454 C453 1.385 1_545 S
C454 C455 1.395 . S
C454 H477 0.929 . S
C455 C454 1.395 . S
C455 C456 1.338 . S
C456 C455 1.338 . S
C456 C457 1.393 1_545 S
C456 H478 0.932 . S
C457 C452 1.382 . S
C457 C456 1.393 1_565 S
C457 H479 0.929 . S
C458 O468 1.271 . S
C458 O469 1.251 . S
C459 O470 1.252 . S
C459 O471 1.272 . S
O460 Sm440 2.543 . S
O460 C442 1.261 . S
O461 Sm440 2.450 . S
O461 C442 1.242 . S
O462 Sm440 2.681 . S
O462 Sm441 2.386 . S
O462 C449 1.271 . S
O463 Sm440 2.464 . S
O463 C449 1.251 . S
O464 Sm440 2.396 . S
O464 C450 1.252 . S
O465 Sm441 2.408 . S
O465 C450 1.272 . S
O466 Sm441 2.543 . S
O466 C451 1.261 . S
O467 Sm441 2.450 . S
O467 C451 1.242 . S
O468 Sm440 2.386 . S
O468 Sm441 2.681 . S
O468 C458 1.271 . S
O469 Sm441 2.464 . S
O469 C458 1.251 . S
O470 Sm441 2.396 . S
O470 C459 1.252 . S
O471 Sm440 2.408 . S
O471 C459 1.272 . S
H472 C444 0.930 . S
H473 C445 0.929 . S
H474 C447 0.930 . S
H475 C448 0.929 . S
H476 C453 0.930 . S
H477 C454 0.929 . S
H478 C456 0.932 . S
H479 C457 0.929 . S
Sm480 C482 2.846 . S
Sm480 O500 2.543 . S
Sm480 O501 2.450 . S
Sm480 O502 2.681 . S
Sm480 O503 2.464 . S
Sm480 O504 2.396 . S
Sm480 O508 2.386 . S
Sm480 O511 2.408 . S
Sm481 C491 2.846 . S
Sm481 O502 2.386 . S
Sm481 O505 2.408 . S
Sm481 O506 2.543 . S
Sm481 O507 2.450 . S
Sm481 O508 2.681 . S
Sm481 O509 2.464 . S
Sm481 O510 2.396 . S
C482 Sm480 2.846 . S
C482 C483 1.506 . S
C482 O500 1.261 . S
C482 O501 1.242 . S
C483 C482 1.506 . S
C483 C484 1.358 . S
C483 C488 1.382 . S
C484 C483 1.358 . S
C484 C485 1.385 . S
C484 H512 0.930 . S
C485 C484 1.385 . S
C485 C486 1.395 . S
C485 H513 0.929 . S
C486 C485 1.395 . S
C486 C487 1.335 . S
C487 C486 1.335 . S
C487 C488 1.398 . S
C487 H514 0.930 . S
C488 C483 1.382 . S
C488 C487 1.398 . S
C488 H515 0.929 . S
C489 O502 1.271 . S
C489 O503 1.251 . S
C490 O504 1.252 . S
C490 O505 1.272 . S
C491 Sm481 2.846 . S
C491 C492 1.506 . S
C491 O506 1.261 . S
C491 O507 1.242 . S
C492 C491 1.506 . S
C492 C493 1.358 . S
C492 C497 1.382 . S
C493 C492 1.358 . S
C493 C494 1.385 1_455 S
C493 H516 0.930 . S
C494 C493 1.385 1_655 S
C494 C495 1.395 . S
C494 H517 0.929 . S
C495 C494 1.395 . S
C495 C496 1.335 . S
C496 C495 1.335 . S
C496 C497 1.398 1_655 S
C496 H518 0.930 . S
C497 C492 1.382 . S
C497 C496 1.398 1_455 S
C497 H519 0.929 . S
C498 O508 1.271 . S
C498 O509 1.251 . S
C499 O510 1.252 . S
C499 O511 1.272 . S
O500 Sm480 2.543 . S
O500 C482 1.261 . S
O501 Sm480 2.450 . S
O501 C482 1.242 . S
O502 Sm480 2.681 . S
O502 Sm481 2.386 . S
O502 C489 1.271 . S
O503 Sm480 2.464 . S
O503 C489 1.251 . S
O504 Sm480 2.396 . S
O504 C490 1.252 . S
O505 Sm481 2.408 . S
O505 C490 1.272 . S
O506 Sm481 2.543 . S
O506 C491 1.261 . S
O507 Sm481 2.450 . S
O507 C491 1.242 . S
O508 Sm480 2.386 . S
O508 Sm481 2.681 . S
O508 C498 1.271 . S
O509 Sm481 2.464 . S
O509 C498 1.251 . S
O510 Sm481 2.396 . S
O510 C499 1.252 . S
O511 Sm480 2.408 . S
O511 C499 1.272 . S
H512 C484 0.930 . S
H513 C485 0.929 . S
H514 C487 0.930 . S
H515 C488 0.929 . S
H516 C493 0.930 . S
H517 C494 0.929 . S
H518 C496 0.930 . S
H519 C497 0.929 . S
Sm520 C522 2.846 . S
Sm520 O540 2.543 . S
Sm520 O541 2.450 . S
Sm520 O542 2.681 . S
Sm520 O543 2.464 . S
Sm520 O544 2.396 . S
Sm520 O548 2.386 . S
Sm520 O551 2.408 . S
Sm521 C531 2.846 . S
Sm521 O542 2.386 . S
Sm521 O545 2.408 . S
Sm521 O546 2.543 . S
Sm521 O547 2.450 . S
Sm521 O548 2.681 . S
Sm521 O549 2.464 . S
Sm521 O550 2.396 . S
C522 Sm520 2.846 . S
C522 C523 1.506 . S
C522 O540 1.261 . S
C522 O541 1.242 . S
C523 C522 1.506 . S
C523 C524 1.358 . S
C523 C528 1.382 . S
C524 C523 1.358 . S
C524 C525 1.385 1_565 S
C524 H552 0.930 . S
C525 C524 1.385 1_545 S
C525 C526 1.395 . S
C525 H553 0.929 . S
C526 C525 1.395 . S
C526 C527 1.338 . S
C527 C526 1.338 . S
C527 C528 1.393 1_545 S
C527 H554 0.932 . S
C528 C523 1.382 . S
C528 C527 1.393 1_565 S
C528 H555 0.929 . S
C529 O542 1.271 . S
C529 O543 1.251 . S
C530 O544 1.252 . S
C530 O545 1.272 . S
C531 Sm521 2.846 . S
C531 C532 1.506 . S
C531 O546 1.261 . S
C531 O547 1.242 . S
C532 C531 1.506 . S
C532 C533 1.358 . S
C532 C537 1.382 . S
C533 C532 1.358 . S
C533 C534 1.385 . S
C533 H556 0.930 . S
C534 C533 1.385 . S
C534 C535 1.395 . S
C534 H557 0.929 . S
C535 C534 1.395 . S
C535 C536 1.335 . S
C536 C535 1.335 . S
C536 C537 1.398 . S
C536 H558 0.930 . S
C537 C532 1.382 . S
C537 C536 1.398 . S
C537 H559 0.929 . S
C538 O548 1.271 . S
C538 O549 1.251 . S
C539 O550 1.252 . S
C539 O551 1.272 . S
O540 Sm520 2.543 . S
O540 C522 1.261 . S
O541 Sm520 2.450 . S
O541 C522 1.242 . S
O542 Sm520 2.681 . S
O542 Sm521 2.386 . S
O542 C529 1.271 . S
O543 Sm520 2.464 . S
O543 C529 1.251 . S
O544 Sm520 2.396 . S
O544 C530 1.252 . S
O545 Sm521 2.408 . S
O545 C530 1.272 . S
O546 Sm521 2.543 . S
O546 C531 1.261 . S
O547 Sm521 2.450 . S
O547 C531 1.242 . S
O548 Sm520 2.386 . S
O548 Sm521 2.681 . S
O548 C538 1.271 . S
O549 Sm521 2.464 . S
O549 C538 1.251 . S
O550 Sm521 2.396 . S
O550 C539 1.252 . S
O551 Sm520 2.408 . S
O551 C539 1.272 . S
H552 C524 0.930 . S
H553 C525 0.929 . S
H554 C527 0.932 . S
H555 C528 0.929 . S
H556 C533 0.930 . S
H557 C534 0.929 . S
H558 C536 0.930 . S
H559 C537 0.929 . S
Sm560 C562 2.846 . S
Sm560 O580 2.543 . S
Sm560 O581 2.450 . S
Sm560 O582 2.681 1_556 S
Sm560 O583 2.464 . S
Sm560 O584 2.396 . S
Sm560 O588 2.386 . S
Sm560 O591 2.408 . S
Sm561 C571 2.846 . S
Sm561 O582 2.386 . S
Sm561 O585 2.408 . S
Sm561 O586 2.543 . S
Sm561 O587 2.450 . S
Sm561 O588 2.681 1_554 S
Sm561 O589 2.464 1_554 S
Sm561 O590 2.396 1_554 S
C562 Sm560 2.846 . S
C562 C563 1.506 . S
C562 O580 1.261 . S
C562 O581 1.242 . S
C563 C562 1.506 . S
C563 C564 1.358 . S
C563 C568 1.382 . S
C564 C563 1.358 . S
C564 C565 1.385 . S
C564 H592 0.930 . S
C565 C564 1.385 . S
C565 C566 1.395 . S
C565 H593 0.929 . S
C566 C565 1.395 . S
C566 C567 1.335 . S
C567 C566 1.335 . S
C567 C568 1.398 . S
C567 H594 0.930 . S
C568 C563 1.382 . S
C568 C567 1.398 . S
C568 H595 0.929 . S
C569 O582 1.271 . S
C569 O583 1.251 1_554 S
C570 O584 1.252 . S
C570 O585 1.272 1_556 S
C571 Sm561 2.846 . S
C571 C572 1.506 . S
C571 O586 1.261 . S
C571 O587 1.242 . S
C572 C571 1.506 . S
C572 C573 1.358 . S
C572 C577 1.382 . S
C573 C572 1.358 . S
C573 C574 1.385 . S
C573 H596 0.930 . S
C574 C573 1.385 . S
C574 C575 1.395 . S
C574 H597 0.929 . S
C575 C574 1.395 . S
C575 C576 1.335 . S
C576 C575 1.335 . S
C576 C577 1.398 . S
C576 H598 0.930 . S
C577 C572 1.382 . S
C577 C576 1.398 . S
C577 H599 0.929 . S
C578 O588 1.271 . S
C578 O589 1.251 . S
C579 O590 1.252 . S
C579 O591 1.272 . S
O580 Sm560 2.543 . S
O580 C562 1.261 . S
O581 Sm560 2.450 . S
O581 C562 1.242 . S
O582 Sm560 2.681 1_554 S
O582 Sm561 2.386 . S
O582 C569 1.271 . S
O583 Sm560 2.464 . S
O583 C569 1.251 1_556 S
O584 Sm560 2.396 . S
O584 C570 1.252 . S
O585 Sm561 2.408 . S
O585 C570 1.272 1_554 S
O586 Sm561 2.543 . S
O586 C571 1.261 . S
O587 Sm561 2.450 . S
O587 C571 1.242 . S
O588 Sm560 2.386 . S
O588 Sm561 2.681 1_556 S
O588 C578 1.271 . S
O589 Sm561 2.464 1_556 S
O589 C578 1.251 . S
O590 Sm561 2.396 1_556 S
O590 C579 1.252 . S
O591 Sm560 2.408 . S
O591 C579 1.272 . S
H592 C564 0.930 . S
H593 C565 0.929 . S
H594 C567 0.930 . S
H595 C568 0.929 . S
H596 C573 0.930 . S
H597 C574 0.929 . S
H598 C576 0.930 . S
H599 C577 0.929 . S
Sm600 C602 2.846 . S
Sm600 O620 2.543 . S
Sm600 O621 2.450 . S
Sm600 O622 2.681 . S
Sm600 O623 2.464 . S
Sm600 O624 2.396 . S
Sm600 O628 2.386 . S
Sm600 O631 2.408 . S
Sm601 C611 2.846 . S
Sm601 O622 2.386 . S
Sm601 O625 2.408 . S
Sm601 O626 2.543 . S
Sm601 O627 2.450 . S
Sm601 O628 2.681 . S
Sm601 O629 2.464 . S
Sm601 O630 2.396 . S
C602 Sm600 2.846 . S
C602 C603 1.506 . S
C602 O620 1.261 . S
C602 O621 1.242 . S
C603 C602 1.506 . S
C603 C604 1.358 . S
C603 C608 1.382 . S
C604 C603 1.358 . S
C604 C605 1.385 1_545 S
C604 H632 0.930 . S
C605 C604 1.385 1_565 S
C605 C606 1.395 . S
C605 H633 0.929 . S
C606 C605 1.395 . S
C606 C607 1.338 . S
C607 C606 1.338 . S
C607 C608 1.393 1_565 S
C607 H634 0.932 . S
C608 C603 1.382 . S
C608 C607 1.393 1_545 S
C608 H635 0.929 . S
C609 O622 1.271 . S
C609 O623 1.251 . S
C610 O624 1.252 . S
C610 O625 1.272 . S
C611 Sm601 2.846 . S
C611 C612 1.506 . S
C611 O626 1.261 . S
C611 O627 1.242 . S
C612 C611 1.506 . S
C612 C613 1.358 . S
C612 C617 1.382 . S
C613 C612 1.358 . S
C613 C614 1.385 . S
C613 H636 0.930 . S
C614 C613 1.385 . S
C614 C615 1.395 . S
C614 H637 0.929 . S
C615 C614 1.395 . S
C615 C616 1.335 . S
C616 C615 1.335 . S
C616 C617 1.398 . S
C616 H638 0.930 . S
C617 C612 1.382 . S
C617 C616 1.398 . S
C617 H639 0.929 . S
C618 O628 1.271 . S
C618 O629 1.251 . S
C619 O630 1.252 . S
C619 O631 1.272 . S
O620 Sm600 2.543 . S
O620 C602 1.261 . S
O621 Sm600 2.450 . S
O621 C602 1.242 . S
O622 Sm600 2.681 . S
O622 Sm601 2.386 . S
O622 C609 1.271 . S
O623 Sm600 2.464 . S
O623 C609 1.251 . S
O624 Sm600 2.396 . S
O624 C610 1.252 . S
O625 Sm601 2.408 . S
O625 C610 1.272 . S
O626 Sm601 2.543 . S
O626 C611 1.261 . S
O627 Sm601 2.450 . S
O627 C611 1.242 . S
O628 Sm600 2.386 . S
O628 Sm601 2.681 . S
O628 C618 1.271 . S
O629 Sm601 2.464 . S
O629 C618 1.251 . S
O630 Sm601 2.396 . S
O630 C619 1.252 . S
O631 Sm600 2.408 . S
O631 C619 1.272 . S
H632 C604 0.930 . S
H633 C605 0.929 . S
H634 C607 0.932 . S
H635 C608 0.929 . S
H636 C613 0.930 . S
H637 C614 0.929 . S
H638 C616 0.930 . S
H639 C617 0.929 . S
C640 C641 1.369 . S
C640 C642 1.419 . S
C640 H644 0.930 . S
C641 C640 1.369 . S
C641 C650 1.429 . S
C642 C640 1.419 . S
C642 C643 1.363 . S
C642 H645 0.929 . S
C643 C642 1.363 . S
C643 C649 1.428 . S
H644 C640 0.930 . S
H645 C642 0.929 . S
S646 N647 1.613 . S
S646 N648 1.610 . S
N647 S646 1.613 . S
N647 C650 1.350 . S
N648 S646 1.610 . S
N648 C649 1.351 . S
C649 C643 1.428 . S
C649 N648 1.351 . S
C649 C650 1.434 . S
C650 C641 1.429 . S
C650 N647 1.350 . S
C650 C649 1.434 . S
C651 C652 1.369 . S
C651 C653 1.419 . S
C651 H655 0.930 . S
C652 C651 1.369 . S
C652 C661 1.429 . S
C653 C651 1.419 . S
C653 C654 1.363 . S
C653 H656 0.929 . S
C654 C653 1.363 . S
C654 C660 1.428 . S
H655 C651 0.930 . S
H656 C653 0.929 . S
S657 N658 1.613 . S
S657 N659 1.610 . S
N658 S657 1.613 . S
N658 C661 1.350 . S
N659 S657 1.610 . S
N659 C660 1.351 . S
C660 C654 1.428 . S
C660 N659 1.351 . S
C660 C661 1.434 . S
C661 C652 1.429 . S
C661 N658 1.350 . S
C661 C660 1.434 . S
C662 C663 1.369 1_655 S
C662 C664 1.419 . S
C662 H666 0.930 . S
C663 C662 1.369 1_455 S
C663 C672 1.429 . S
C664 C662 1.419 . S
C664 C665 1.363 . S
C664 H667 0.929 . S
C665 C664 1.363 . S
C665 C671 1.428 1_655 S
H666 C662 0.930 . S
H667 C664 0.929 . S
S668 N669 1.613 . S
S668 N670 1.610 . S
N669 S668 1.613 . S
N669 C672 1.350 . S
N670 S668 1.610 . S
N670 C671 1.351 . S
C671 C665 1.428 1_455 S
C671 N670 1.351 . S
C671 C672 1.434 . S
C672 C663 1.429 . S
C672 N669 1.350 . S
C672 C671 1.434 . S
C673 C674 1.369 . S
C673 C675 1.419 1_655 S
C673 H677 0.930 . S
C674 C673 1.369 . S
C674 C683 1.429 . S
C675 C673 1.419 1_455 S
C675 C676 1.363 . S
C675 H678 0.929 . S
C676 C675 1.363 . S
C676 C682 1.428 . S
H677 C673 0.930 . S
H678 C675 0.929 . S
S679 N680 1.613 1_455 S
S679 N681 1.610 . S
N680 S679 1.613 1_655 S
N680 C683 1.350 . S
N681 S679 1.610 . S
N681 C682 1.351 . S
C682 C676 1.428 . S
C682 N681 1.351 . S
C682 C683 1.434 1_455 S
C683 C674 1.429 . S
C683 N680 1.350 . S
C683 C682 1.434 1_655 S
C684 C685 1.369 . S
C684 C686 1.419 . S
C684 H688 0.930 1_556 S
C685 C684 1.369 . S
C685 C694 1.429 . S
C686 C684 1.419 . S
C686 C687 1.363 . S
C686 H689 0.929 1_556 S
C687 C686 1.363 . S
C687 C693 1.428 . S
H688 C684 0.930 1_554 S
H689 C686 0.929 1_554 S
S690 N691 1.613 . S
S690 N692 1.610 . S
N691 S690 1.613 . S
N691 C694 1.350 . S
N692 S690 1.610 . S
N692 C693 1.351 . S
C693 C687 1.428 . S
C693 N692 1.351 . S
C693 C694 1.434 . S
C694 C685 1.429 . S
C694 N691 1.350 . S
C694 C693 1.434 . S
C695 C696 1.369 . S
C695 C697 1.419 . S
C695 H699 0.930 . S
C696 C695 1.369 . S
C696 C705 1.429 . S
C697 C695 1.419 . S
C697 C698 1.363 . S
C697 H700 0.929 . S
C698 C697 1.363 . S
C698 C704 1.428 . S
H699 C695 0.930 . S
H700 C697 0.929 . S
S701 N702 1.613 . S
S701 N703 1.610 . S
N702 S701 1.613 . S
N702 C705 1.350 . S
N703 S701 1.610 . S
N703 C704 1.351 . S
C704 C698 1.428 . S
C704 N703 1.351 . S
C704 C705 1.434 . S
C705 C696 1.429 . S
C705 N702 1.350 . S
C705 C704 1.434 . S
C706 C707 1.369 . S
C706 C708 1.419 . S
C706 H710 0.930 . S
C707 C706 1.369 . S
C707 C716 1.429 1_655 S
C708 C706 1.419 . S
C708 C709 1.363 1_655 S
C708 H711 0.929 . S
C709 C708 1.363 1_455 S
C709 C715 1.428 . S
H710 C706 0.930 . S
H711 C708 0.929 . S
S712 N713 1.613 . S
S712 N714 1.610 . S
N713 S712 1.613 . S
N713 C716 1.350 . S
N714 S712 1.610 . S
N714 C715 1.351 . S
C715 C709 1.428 . S
C715 N714 1.351 . S
C715 C716 1.434 . S
C716 C707 1.429 1_455 S
C716 N713 1.350 . S
C716 C715 1.434 . S
C717 C718 1.369 . S
C717 C719 1.419 1_455 S
C717 H721 0.930 . S
C718 C717 1.369 . S
C718 C727 1.429 . S
C719 C717 1.419 1_655 S
C719 C720 1.363 . S
C719 H722 0.929 . S
C720 C719 1.363 . S
C720 C726 1.428 . S
H721 C717 0.930 . S
H722 C719 0.929 . S
S723 N724 1.613 1_655 S
S723 N725 1.610 . S
N724 S723 1.613 1_455 S
N724 C727 1.350 . S
N725 S723 1.610 . S
N725 C726 1.351 . S
C726 C720 1.428 . S
C726 N725 1.351 . S
C726 C727 1.434 1_655 S
C727 C718 1.429 . S
C727 N724 1.350 . S
C727 C726 1.434 1_455 S
C728 C729 1.369 . S
C728 C730 1.419 . S
C728 H732 0.930 . S
C729 C728 1.369 . S
C729 C738 1.429 . S
C730 C728 1.419 . S
C730 C731 1.363 . S
C730 H733 0.929 . S
C731 C730 1.363 . S
C731 C737 1.428 . S
H732 C728 0.930 . S
H733 C730 0.929 . S
S734 N735 1.613 . S
S734 N736 1.610 . S
N735 S734 1.613 . S
N735 C738 1.350 . S
N736 S734 1.610 . S
N736 C737 1.351 . S
C737 C731 1.428 . S
C737 N736 1.351 . S
C737 C738 1.434 . S
C738 C729 1.429 . S
C738 N735 1.350 . S
C738 C737 1.434 . S
C739 C740 1.369 . S
C739 C741 1.419 . S
C739 H743 0.930 . S
C740 C739 1.369 . S
C740 C749 1.429 . S
C741 C739 1.419 . S
C741 C742 1.363 . S
C741 H744 0.929 . S
C742 C741 1.363 . S
C742 C748 1.428 . S
H743 C739 0.930 . S
H744 C741 0.929 . S
S745 N746 1.613 . S
S745 N747 1.610 . S
N746 S745 1.613 . S
N746 C749 1.350 . S
N747 S745 1.610 . S
N747 C748 1.351 . S
C748 C742 1.428 . S
C748 N747 1.351 . S
C748 C749 1.434 . S
C749 C740 1.429 . S
C749 N746 1.350 . S
C749 C748 1.434 . S
C750 C751 1.369 . S
C750 C752 1.419 . S
C750 H754 0.930 . S
C751 C750 1.369 . S
C751 C760 1.429 . S
C752 C750 1.419 . S
C752 C753 1.363 . S
C752 H755 0.929 . S
C753 C752 1.363 . S
C753 C759 1.428 . S
H754 C750 0.930 . S
H755 C752 0.929 . S
S756 N757 1.613 . S
S756 N758 1.610 . S
N757 S756 1.613 . S
N757 C760 1.350 . S
N758 S756 1.610 . S
N758 C759 1.351 . S
C759 C753 1.428 . S
C759 N758 1.351 . S
C759 C760 1.434 . S
C760 C751 1.429 . S
C760 N757 1.350 . S
C760 C759 1.434 . S
C761 C762 1.369 . S
C761 C763 1.419 . S
C761 H765 0.930 . S
C762 C761 1.369 . S
C762 C771 1.429 . S
C763 C761 1.419 . S
C763 C764 1.363 . S
C763 H766 0.929 . S
C764 C763 1.363 . S
C764 C770 1.428 . S
H765 C761 0.930 . S
H766 C763 0.929 . S
S767 N768 1.613 . S
S767 N769 1.610 . S
N768 S767 1.613 . S
N768 C771 1.350 . S
N769 S767 1.610 . S
N769 C770 1.351 . S
C770 C764 1.428 . S
C770 N769 1.351 . S
C770 C771 1.434 . S
C771 C762 1.429 . S
C771 N768 1.350 . S
C771 C770 1.434 . S
C772 C773 1.369 . S
C772 C774 1.419 . S
C772 H776 0.930 . S
C773 C772 1.369 . S
C773 C782 1.429 . S
C774 C772 1.419 . S
C774 C775 1.363 . S
C774 H777 0.929 . S
C775 C774 1.363 . S
C775 C781 1.428 . S
H776 C772 0.930 . S
H777 C774 0.929 . S
S778 N779 1.613 . S
S778 N780 1.610 . S
N779 S778 1.613 . S
N779 C782 1.350 . S
N780 S778 1.610 . S
N780 C781 1.351 . S
C781 C775 1.428 . S
C781 N780 1.351 . S
C781 C782 1.434 . S
C782 C773 1.429 . S
C782 N779 1.350 . S
C782 C781 1.434 . S
C783 C784 1.369 . S
C783 C785 1.419 . S
C783 H787 0.930 . S
C784 C783 1.369 . S
C784 C793 1.429 . S
C785 C783 1.419 . S
C785 C786 1.363 . S
C785 H788 0.929 . S
C786 C785 1.363 . S
C786 C792 1.428 . S
H787 C783 0.930 . S
H788 C785 0.929 . S
S789 N790 1.613 . S
S789 N791 1.610 . S
N790 S789 1.613 . S
N790 C793 1.350 . S
N791 S789 1.610 . S
N791 C792 1.351 . S
C792 C786 1.428 . S
C792 N791 1.351 . S
C792 C793 1.434 . S
C793 C784 1.429 . S
C793 N790 1.350 . S
C793 C792 1.434 . S
C794 C795 1.369 . S
C794 C796 1.419 . S
C794 H798 0.930 . S
C795 C794 1.369 . S
C795 C804 1.429 . S
C796 C794 1.419 . S
C796 C797 1.363 . S
C796 H799 0.929 . S
C797 C796 1.363 . S
C797 C803 1.428 . S
H798 C794 0.930 . S
H799 C796 0.929 . S
S800 N801 1.613 . S
S800 N802 1.610 . S
N801 S800 1.613 . S
N801 C804 1.350 . S
N802 S800 1.610 . S
N802 C803 1.351 . S
C803 C797 1.428 . S
C803 N802 1.351 . S
C803 C804 1.434 . S
C804 C795 1.429 . S
C804 N801 1.350 . S
C804 C803 1.434 . S
C805 C806 1.369 . S
C805 C807 1.419 . S
C805 H809 0.930 . S
C806 C805 1.369 . S
C806 C815 1.429 . S
C807 C805 1.419 . S
C807 C808 1.363 . S
C807 H810 0.929 . S
C808 C807 1.363 . S
C808 C814 1.428 . S
H809 C805 0.930 . S
H810 C807 0.929 . S
S811 N812 1.613 . S
S811 N813 1.610 . S
N812 S811 1.613 . S
N812 C815 1.350 . S
N813 S811 1.610 . S
N813 C814 1.351 . S
C814 C808 1.428 . S
C814 N813 1.351 . S
C814 C815 1.434 . S
C815 C806 1.429 . S
C815 N812 1.350 . S
C815 C814 1.434 . S
C816 C817 1.369 . S
C816 C818 1.419 . S
C816 H820 0.930 . S
C817 C816 1.369 . S
C817 C826 1.429 . S
C818 C816 1.419 . S
C818 C819 1.363 . S
C818 H821 0.929 . S
C819 C818 1.363 . S
C819 C825 1.428 . S
H820 C816 0.930 . S
H821 C818 0.929 . S
S822 N823 1.613 . S
S822 N824 1.610 . S
N823 S822 1.613 . S
N823 C826 1.350 . S
N824 S822 1.610 . S
N824 C825 1.351 . S
C825 C819 1.428 . S
C825 N824 1.351 . S
C825 C826 1.434 . S
C826 C817 1.429 . S
C826 N823 1.350 . S
C826 C825 1.434 . S
C827 C828 1.369 1_565 S
C827 C829 1.419 . S
C827 H831 0.930 . S
C828 C827 1.369 1_545 S
C828 C837 1.429 . S
C829 C827 1.419 . S
C829 C830 1.363 . S
C829 H832 0.929 . S
C830 C829 1.363 . S
C830 C836 1.428 . S
H831 C827 0.930 . S
H832 C829 0.929 . S
S833 N834 1.613 . S
S833 N835 1.610 1_545 S
N834 S833 1.613 . S
N834 C837 1.350 . S
N835 S833 1.610 1_565 S
N835 C836 1.351 . S
C836 C830 1.428 . S
C836 N835 1.351 . S
C836 C837 1.434 1_565 S
C837 C828 1.429 . S
C837 N834 1.350 . S
C837 C836 1.434 1_545 S
C838 C839 1.369 . S
C838 C840 1.419 . S
C838 H842 0.930 . S
C839 C838 1.369 . S
C839 C848 1.429 . S
C840 C838 1.419 . S
C840 C841 1.363 . S
C840 H843 0.929 . S
C841 C840 1.363 . S
C841 C847 1.428 . S
H842 C838 0.930 . S
H843 C840 0.929 . S
S844 N845 1.613 . S
S844 N846 1.610 . S
N845 S844 1.613 . S
N845 C848 1.350 . S
N846 S844 1.610 . S
N846 C847 1.351 . S
C847 C841 1.428 . S
C847 N846 1.351 . S
C847 C848 1.434 . S
C848 C839 1.429 . S
C848 N845 1.350 . S
C848 C847 1.434 . S
C849 C850 1.369 1_545 S
C849 C851 1.419 . S
C849 H853 0.930 . S
C850 C849 1.369 1_565 S
C850 C859 1.426 1_565 S
C851 C849 1.419 . S
C851 C852 1.363 . S
C851 H854 0.929 . S
C852 C851 1.363 . S
C852 C858 1.428 . S
H853 C849 0.930 . S
H854 C851 0.929 . S
S855 N856 1.613 1_545 S
S855 N857 1.610 . S
N856 S855 1.613 1_565 S
N856 C859 1.347 1_565 S
N857 S855 1.610 . S
N857 C858 1.351 . S
C858 C852 1.428 . S
C858 N857 1.351 . S
C858 C859 1.440 . S
C859 C850 1.426 1_545 S
C859 N856 1.347 1_545 S
C859 C858 1.440 . S
C860 C861 1.369 . S
C860 C862 1.419 . S
C860 H864 0.930 . S
C861 C860 1.369 . S
C861 C870 1.429 . S
C862 C860 1.419 . S
C862 C863 1.363 . S
C862 H865 0.929 . S
C863 C862 1.363 . S
C863 C869 1.428 . S
H864 C860 0.930 . S
H865 C862 0.929 . S
S866 N867 1.613 . S
S866 N868 1.610 . S
N867 S866 1.613 . S
N867 C870 1.350 . S
N868 S866 1.610 . S
N868 C869 1.351 . S
C869 C863 1.428 . S
C869 N868 1.351 . S
C869 C870 1.434 . S
C870 C861 1.429 . S
C870 N867 1.350 . S
C870 C869 1.434 . S
C871 C872 1.369 . S
C871 C873 1.419 . S
C871 H875 0.930 . S
C872 C871 1.369 . S
C872 C881 1.429 . S
C873 C871 1.419 . S
C873 C874 1.363 1_545 S
C873 H876 0.929 1_545 S
C874 C873 1.363 1_565 S
C874 C880 1.428 1_565 S
H875 C871 0.930 . S
H876 C873 0.929 1_565 S
S877 N878 1.613 . S
S877 N879 1.611 . S
N878 S877 1.613 . S
N878 C881 1.350 . S
N879 S877 1.611 . S
N879 C880 1.351 . S
C880 C874 1.428 1_545 S
C880 N879 1.351 . S
C880 C881 1.434 . S
C881 C872 1.429 . S
C881 N878 1.350 . S
C881 C880 1.434 . S
C882 C883 1.369 . S
C882 C884 1.419 . S
C882 H886 0.930 . S
C883 C882 1.369 . S
C883 C892 1.429 . S
C884 C882 1.419 . S
C884 C885 1.363 . S
C884 H887 0.929 . S
C885 C884 1.363 . S
C885 C891 1.428 . S
H886 C882 0.930 . S
H887 C884 0.929 . S
S888 N889 1.613 . S
S888 N890 1.610 . S
N889 S888 1.613 . S
N889 C892 1.350 . S
N890 S888 1.610 . S
N890 C891 1.351 . S
C891 C885 1.428 . S
C891 N890 1.351 . S
C891 C892 1.434 . S
C892 C883 1.429 . S
C892 N889 1.350 . S
C892 C891 1.434 . S
C893 C894 1.369 1_565 S
C893 C895 1.419 . S
C893 H897 0.930 1_565 S
C894 C893 1.369 1_545 S
C894 C903 1.429 1_545 S
C895 C893 1.419 . S
C895 C896 1.363 . S
C895 H898 0.929 . S
C896 C895 1.363 . S
C896 C902 1.428 . S
H897 C893 0.930 1_545 S
H898 C895 0.929 . S
S899 N900 1.590 1_565 S
S899 N901 1.610 . S
N900 S899 1.590 1_545 S
N900 C903 1.341 1_545 S
N901 S899 1.610 . S
N901 C902 1.351 . S
C902 C896 1.428 . S
C902 N901 1.351 . S
C902 C903 1.434 . S
C903 C894 1.429 1_565 S
C903 N900 1.341 1_565 S
C903 C902 1.434 . S
C904 C905 1.369 . S
C904 C906 1.419 . S
C904 H908 0.930 . S
C905 C904 1.369 . S
C905 C914 1.429 . S
C906 C904 1.419 . S
C906 C907 1.363 . S
C906 H909 0.929 . S
C907 C906 1.363 . S
C907 C913 1.428 . S
H908 C904 0.930 . S
H909 C906 0.929 . S
S910 N911 1.613 . S
S910 N912 1.610 . S
N911 S910 1.613 . S
N911 C914 1.350 . S
N912 S910 1.610 . S
N912 C913 1.351 . S
C913 C907 1.428 . S
C913 N912 1.351 . S
C913 C914 1.434 . S
C914 C905 1.429 . S
C914 N911 1.350 . S
C914 C913 1.434 . S
C915 C916 1.369 . S
C915 C917 1.419 . S
C915 H919 0.930 . S
C916 C915 1.369 . S
C916 C925 1.429 . S
C917 C915 1.419 . S
C917 C918 1.363 . S
C917 H920 0.929 . S
C918 C917 1.363 . S
C918 C924 1.428 . S
H919 C915 0.930 . S
H920 C917 0.929 . S
S921 N922 1.613 . S
S921 N923 1.610 . S
N922 S921 1.613 . S
N922 C925 1.350 . S
N923 S921 1.610 . S
N923 C924 1.351 . S
C924 C918 1.428 . S
C924 N923 1.351 . S
C924 C925 1.434 . S
C925 C916 1.429 . S
C925 N922 1.350 . S
C925 C924 1.434 . S
C926 C927 1.369 . S
C926 C928 1.419 . S
C926 H930 0.930 . S
C927 C926 1.369 . S
C927 C936 1.429 . S
C928 C926 1.419 . S
C928 C929 1.363 . S
C928 H931 0.929 . S
C929 C928 1.363 . S
C929 C935 1.428 . S
H930 C926 0.930 . S
H931 C928 0.929 . S
S932 N933 1.600 1_455 S
S932 N934 1.610 . S
N933 S932 1.600 1_655 S
N933 C936 1.366 . S
N934 S932 1.610 . S
N934 C935 1.351 1_455 S
C935 C929 1.428 . S
C935 N934 1.351 1_655 S
C935 C936 1.434 . S
C936 C927 1.429 . S
C936 N933 1.366 . S
C936 C935 1.434 . S
C937 C938 1.369 . S
C937 C939 1.419 . S
C937 H941 0.930 . S
C938 C937 1.369 . S
C938 C947 1.429 . S
C939 C937 1.419 . S
C939 C940 1.363 . S
C939 H942 0.929 . S
C940 C939 1.363 . S
C940 C946 1.428 . S
H941 C937 0.930 . S
H942 C939 0.929 . S
S943 N944 1.613 . S
S943 N945 1.610 . S
N944 S943 1.613 . S
N944 C947 1.350 . S
N945 S943 1.610 . S
N945 C946 1.351 . S
C946 C940 1.428 . S
C946 N945 1.351 . S
C946 C947 1.434 . S
C947 C938 1.429 . S
C947 N944 1.350 . S
C947 C946 1.434 . S
C948 C949 1.369 . S
C948 C950 1.419 . S
C948 H952 0.930 . S
C949 C948 1.369 . S
C949 C958 1.429 . S
C950 C948 1.419 . S
C950 C951 1.363 . S
C950 H953 0.929 . S
C951 C950 1.363 . S
C951 C957 1.428 . S
H952 C948 0.930 . S
H953 C950 0.929 . S
S954 N955 1.613 . S
S954 N956 1.610 . S
N955 S954 1.613 . S
N955 C958 1.350 . S
N956 S954 1.610 . S
N956 C957 1.351 . S
C957 C951 1.428 . S
C957 N956 1.351 . S
C957 C958 1.434 . S
C958 C949 1.429 . S
C958 N955 1.350 . S
C958 C957 1.434 . S
C959 C960 1.369 . S
C959 C961 1.419 . S
C959 H963 0.930 . S
C960 C959 1.369 . S
C960 C969 1.429 . S
C961 C959 1.419 . S
C961 C962 1.363 . S
C961 H964 0.929 . S
C962 C961 1.363 . S
C962 C968 1.428 . S
H963 C959 0.930 . S
H964 C961 0.929 . S
S965 N966 1.613 . S
S965 N967 1.610 . S
N966 S965 1.613 . S
N966 C969 1.350 . S
N967 S965 1.610 . S
N967 C968 1.351 . S
C968 C962 1.428 . S
C968 N967 1.351 . S
C968 C969 1.434 . S
C969 C960 1.429 . S
C969 N966 1.350 . S
C969 C968 1.434 . S
C970 C971 1.369 . S
C970 C972 1.419 . S
C970 H974 0.930 . S
C971 C970 1.369 . S
C971 C980 1.429 . S
C972 C970 1.419 . S
C972 C973 1.363 . S
C972 H975 0.929 . S
C973 C972 1.363 . S
C973 C979 1.428 . S
H974 C970 0.930 . S
H975 C972 0.929 . S
S976 N977 1.620 . S
S976 N978 1.610 . S
N977 S976 1.620 . S
N977 C980 1.341 1_655 S
N978 S976 1.610 . S
N978 C979 1.351 1_655 S
C979 C973 1.428 . S
C979 N978 1.351 1_455 S
C979 C980 1.434 . S
C980 C971 1.429 . S
C980 N977 1.341 1_455 S
C980 C979 1.434 . S
C981 C982 1.369 . S
C981 C983 1.419 . S
C981 H985 0.930 . S
C982 C981 1.369 . S
C982 C991 1.429 . S
C983 C981 1.419 . S
C983 C984 1.363 . S
C983 H986 0.929 . S
C984 C983 1.363 . S
C984 C990 1.428 . S
H985 C981 0.930 . S
H986 C983 0.929 . S
S987 N988 1.613 . S
S987 N989 1.610 . S
N988 S987 1.613 . S
N988 C991 1.350 . S
N989 S987 1.610 . S
N989 C990 1.351 . S
C990 C984 1.428 . S
C990 N989 1.351 . S
C990 C991 1.434 . S
C991 C982 1.429 . S
C991 N988 1.350 . S
C991 C990 1.434 . S
C992 C993 1.369 . S
C992 C994 1.419 . S
C992 H996 0.930 . S
C993 C992 1.369 . S
C993 C1002 1.429 . S
C994 C992 1.419 . S
C994 C995 1.363 . S
C994 H997 0.929 . S
C995 C994 1.363 . S
C995 C1001 1.428 . S
H996 C992 0.930 . S
H997 C994 0.929 . S
S998 N999 1.613 . S
S998 N1000 1.610 . S
N999 S998 1.613 . S
N999 C1002 1.350 . S
N1000 S998 1.610 . S
N1000 C1001 1.351 . S
C1001 C995 1.428 . S
C1001 N1000 1.351 . S
C1001 C1002 1.434 . S
C1002 C993 1.429 . S
C1002 N999 1.350 . S
C1002 C1001 1.434 . S
C1003 C1004 1.369 . S
C1003 C1005 1.419 . S
C1003 H1007 0.930 . S
C1004 C1003 1.369 . S
C1004 C1013 1.429 . S
C1005 C1003 1.419 . S
C1005 C1006 1.363 . S
C1005 H1008 0.929 . S
C1006 C1005 1.363 . S
C1006 C1012 1.428 . S
H1007 C1003 0.930 . S
H1008 C1005 0.929 . S
S1009 N1010 1.613 . S
S1009 N1011 1.610 . S
N1010 S1009 1.613 . S
N1010 C1013 1.350 . S
N1011 S1009 1.610 . S
N1011 C1012 1.351 . S
C1012 C1006 1.428 . S
C1012 N1011 1.351 . S
C1012 C1013 1.434 . S
C1013 C1004 1.429 . S
C1013 N1010 1.350 . S
C1013 C1012 1.434 . S
C1014 C1015 1.369 . S
C1014 C1016 1.419 . S
C1014 H1018 0.930 . S
C1015 C1014 1.369 . S
C1015 C1024 1.429 . S
C1016 C1014 1.419 . S
C1016 C1017 1.363 . S
C1016 H1019 0.929 . S
C1017 C1016 1.363 . S
C1017 C1023 1.428 . S
H1018 C1014 0.930 . S
H1019 C1016 0.929 . S
S1020 N1021 1.613 . S
S1020 N1022 1.610 . S
N1021 S1020 1.613 . S
N1021 C1024 1.350 . S
N1022 S1020 1.610 . S
N1022 C1023 1.351 . S
C1023 C1017 1.428 . S
C1023 N1022 1.351 . S
C1023 C1024 1.434 . S
C1024 C1015 1.429 . S
C1024 N1021 1.350 . S
C1024 C1023 1.434 . S
C1025 C1026 1.369 . S
C1025 C1027 1.419 . S
C1025 H1029 0.930 . S
C1026 C1025 1.369 . S
C1026 C1035 1.429 . S
C1027 C1025 1.419 . S
C1027 C1028 1.363 . S
C1027 H1030 0.929 . S
C1028 C1027 1.363 . S
C1028 C1034 1.428 . S
H1029 C1025 0.930 . S
H1030 C1027 0.929 . S
S1031 N1032 1.613 . S
S1031 N1033 1.610 . S
N1032 S1031 1.613 . S
N1032 C1035 1.350 . S
N1033 S1031 1.610 . S
N1033 C1034 1.351 . S
C1034 C1028 1.428 . S
C1034 N1033 1.351 . S
C1034 C1035 1.434 . S
C1035 C1026 1.429 . S
C1035 N1032 1.350 . S
C1035 C1034 1.434 . S
C1036 C1037 1.369 . S
C1036 C1038 1.419 . S
C1036 H1040 0.930 . S
C1037 C1036 1.369 . S
C1037 C1046 1.429 . S
C1038 C1036 1.419 . S
C1038 C1039 1.363 . S
C1038 H1041 0.929 . S
C1039 C1038 1.363 . S
C1039 C1045 1.428 . S
H1040 C1036 0.930 . S
H1041 C1038 0.929 . S
S1042 N1043 1.613 . S
S1042 N1044 1.610 . S
N1043 S1042 1.613 . S
N1043 C1046 1.350 . S
N1044 S1042 1.610 . S
N1044 C1045 1.351 . S
C1045 C1039 1.428 . S
C1045 N1044 1.351 . S
C1045 C1046 1.434 . S
C1046 C1037 1.429 . S
C1046 N1043 1.350 . S
C1046 C1045 1.434 . S
C1047 C1048 1.369 . S
C1047 C1049 1.419 . S
C1047 H1051 0.930 . S
C1048 C1047 1.369 . S
C1048 C1057 1.429 . S
C1049 C1047 1.419 . S
C1049 C1050 1.363 . S
C1049 H1052 0.929 . S
C1050 C1049 1.363 . S
C1050 C1056 1.428 . S
H1051 C1047 0.930 . S
H1052 C1049 0.929 . S
S1053 N1054 1.613 . S
S1053 N1055 1.610 . S
N1054 S1053 1.613 . S
N1054 C1057 1.350 . S
N1055 S1053 1.610 . S
N1055 C1056 1.351 . S
C1056 C1050 1.428 . S
C1056 N1055 1.351 . S
C1056 C1057 1.434 . S
C1057 C1048 1.429 . S
C1057 N1054 1.350 . S
C1057 C1056 1.434 . S
C1058 C1059 1.369 . S
C1058 C1060 1.419 . S
C1058 H1062 0.930 . S
C1059 C1058 1.369 . S
C1059 C1068 1.429 . S
C1060 C1058 1.419 . S
C1060 C1061 1.363 . S
C1060 H1063 0.929 . S
C1061 C1060 1.363 . S
C1061 C1067 1.428 . S
H1062 C1058 0.930 . S
H1063 C1060 0.929 . S
S1064 N1065 1.613 . S
S1064 N1066 1.610 . S
N1065 S1064 1.613 . S
N1065 C1068 1.350 . S
N1066 S1064 1.610 . S
N1066 C1067 1.351 . S
C1067 C1061 1.428 . S
C1067 N1066 1.351 . S
C1067 C1068 1.434 . S
C1068 C1059 1.429 . S
C1068 N1065 1.350 . S
C1068 C1067 1.434 . S
C1069 C1070 1.369 . S
C1069 C1071 1.419 . S
C1069 H1073 0.930 . S
C1070 C1069 1.369 . S
C1070 C1079 1.429 . S
C1071 C1069 1.419 . S
C1071 C1072 1.363 . S
C1071 H1074 0.929 . S
C1072 C1071 1.363 . S
C1072 C1078 1.428 . S
H1073 C1069 0.930 . S
H1074 C1071 0.929 . S
S1075 N1076 1.613 . S
S1075 N1077 1.610 . S
N1076 S1075 1.613 . S
N1076 C1079 1.350 . S
N1077 S1075 1.610 . S
N1077 C1078 1.351 . S
C1078 C1072 1.428 . S
C1078 N1077 1.351 . S
C1078 C1079 1.434 . S
C1079 C1070 1.429 . S
C1079 N1076 1.350 . S
C1079 C1078 1.434 . S
C1080 C1081 1.369 . S
C1080 C1082 1.419 . S
C1080 H1084 0.930 . S
C1081 C1080 1.369 . S
C1081 C1090 1.429 . S
C1082 C1080 1.419 . S
C1082 C1083 1.363 . S
C1082 H1085 0.929 . S
C1083 C1082 1.363 . S
C1083 C1089 1.428 . S
H1084 C1080 0.930 . S
H1085 C1082 0.929 . S
S1086 N1087 1.613 . S
S1086 N1088 1.610 . S
N1087 S1086 1.613 . S
N1087 C1090 1.350 . S
N1088 S1086 1.610 . S
N1088 C1089 1.351 . S
C1089 C1083 1.428 . S
C1089 N1088 1.351 . S
C1089 C1090 1.434 . S
C1090 C1081 1.429 . S
C1090 N1087 1.350 . S
C1090 C1089 1.434 . S
C1091 C1092 1.369 . S
C1091 C1093 1.419 . S
C1091 H1095 0.930 . S
C1092 C1091 1.369 . S
C1092 C1101 1.429 . S
C1093 C1091 1.419 . S
C1093 C1094 1.363 . S
C1093 H1096 0.929 . S
C1094 C1093 1.363 . S
C1094 C1100 1.428 . S
H1095 C1091 0.930 . S
H1096 C1093 0.929 . S
S1097 N1098 1.613 . S
S1097 N1099 1.610 . S
N1098 S1097 1.613 . S
N1098 C1101 1.350 . S
N1099 S1097 1.610 . S
N1099 C1100 1.351 . S
C1100 C1094 1.428 . S
C1100 N1099 1.351 . S
C1100 C1101 1.434 . S
C1101 C1092 1.429 . S
C1101 N1098 1.350 . S
C1101 C1100 1.434 . S
C1102 C1103 1.369 . S
C1102 C1104 1.419 . S
C1102 H1106 0.930 . S
C1103 C1102 1.369 . S
C1103 C1112 1.429 . S
C1104 C1102 1.419 . S
C1104 C1105 1.363 . S
C1104 H1107 0.929 . S
C1105 C1104 1.363 . S
C1105 C1111 1.428 . S
H1106 C1102 0.930 . S
H1107 C1104 0.929 . S
S1108 N1109 1.613 . S
S1108 N1110 1.610 . S
N1109 S1108 1.613 . S
N1109 C1112 1.350 . S
N1110 S1108 1.610 . S
N1110 C1111 1.351 . S
C1111 C1105 1.428 . S
C1111 N1110 1.351 . S
C1111 C1112 1.434 . S
C1112 C1103 1.429 . S
C1112 N1109 1.350 . S
C1112 C1111 1.434 . S
C1113 C1114 1.369 . S
C1113 C1115 1.419 1_454 S
C1113 H1117 0.930 . S
C1114 C1113 1.369 . S
C1114 C1123 1.429 . S
C1115 C1113 1.419 1_656 S
C1115 C1116 1.363 . S
C1115 H1118 0.929 . S
C1116 C1115 1.363 . S
C1116 C1122 1.429 . S
H1117 C1113 0.930 . S
H1118 C1115 0.929 . S
S1119 N1120 1.613 . S
S1119 N1121 1.610 1_455 S
N1120 S1119 1.613 . S
N1120 C1123 1.350 . S
N1121 S1119 1.610 1_655 S
N1121 C1122 1.351 1_554 S
C1122 C1116 1.429 . S
C1122 N1121 1.351 1_556 S
C1122 C1123 1.434 1_656 S
C1123 C1114 1.429 . S
C1123 N1120 1.350 . S
C1123 C1122 1.434 1_454 S
C1124 C1125 1.369 . S
C1124 C1126 1.419 . S
C1124 H1128 0.930 . S
C1125 C1124 1.369 . S
C1125 C1134 1.429 . S
C1126 C1124 1.419 . S
C1126 C1127 1.363 . S
C1126 H1129 0.929 . S
C1127 C1126 1.363 . S
C1127 C1133 1.428 . S
H1128 C1124 0.930 . S
H1129 C1126 0.929 . S
S1130 N1131 1.613 . S
S1130 N1132 1.610 . S
N1131 S1130 1.613 . S
N1131 C1134 1.350 . S
N1132 S1130 1.610 . S
N1132 C1133 1.351 . S
C1133 C1127 1.428 . S
C1133 N1132 1.351 . S
C1133 C1134 1.434 . S
C1134 C1125 1.429 . S
C1134 N1131 1.350 . S
C1134 C1133 1.434 . S
C1135 C1136 1.369 . S
C1135 C1137 1.419 . S
C1135 H1139 0.930 . S
C1136 C1135 1.369 . S
C1136 C1145 1.429 . S
C1137 C1135 1.419 . S
C1137 C1138 1.363 . S
C1137 H1140 0.929 . S
C1138 C1137 1.363 . S
C1138 C1144 1.428 . S
H1139 C1135 0.930 . S
H1140 C1137 0.929 . S
S1141 N1142 1.613 . S
S1141 N1143 1.610 . S
N1142 S1141 1.613 . S
N1142 C1145 1.350 . S
N1143 S1141 1.610 . S
N1143 C1144 1.351 . S
C1144 C1138 1.428 . S
C1144 N1143 1.351 . S
C1144 C1145 1.434 . S
C1145 C1136 1.429 . S
C1145 N1142 1.350 . S
C1145 C1144 1.434 . S
C1146 C1147 1.369 1_545 S
C1146 C1148 1.419 1_455 S
C1146 H1150 0.930 . S
C1147 C1146 1.369 1_565 S
C1147 C1156 1.429 1_556 S
C1148 C1146 1.419 1_655 S
C1148 C1149 1.363 1_556 S
C1148 H1151 0.929 . S
C1149 C1148 1.363 1_554 S
C1149 C1155 1.428 1_545 S
H1150 C1146 0.930 . S
H1151 C1148 0.929 . S
S1152 N1153 1.613 . S
S1152 N1154 1.610 1_455 S
N1153 S1152 1.613 . S
N1153 C1156 1.350 . S
N1154 S1152 1.610 1_655 S
N1154 C1155 1.351 . S
C1155 C1149 1.428 1_565 S
C1155 N1154 1.351 . S
C1155 C1156 1.434 1_655 S
C1156 C1147 1.429 1_554 S
C1156 N1153 1.350 . S
C1156 C1155 1.434 1_455 S
C1157 C1158 1.369 . S
C1157 C1159 1.419 . S
C1157 H1161 0.930 . S
C1158 C1157 1.369 . S
C1158 C1167 1.429 1_565 S
C1159 C1157 1.419 . S
C1159 C1160 1.363 1_565 S
C1159 H1162 0.929 . S
C1160 C1159 1.363 1_545 S
C1160 C1166 1.428 . S
H1161 C1157 0.930 . S
H1162 C1159 0.929 . S
S1163 N1164 1.613 . S
S1163 N1165 1.610 . S
N1164 S1163 1.613 . S
N1164 C1167 1.350 . S
N1165 S1163 1.610 . S
N1165 C1166 1.351 . S
C1166 C1160 1.428 . S
C1166 N1165 1.351 . S
C1166 C1167 1.434 . S
C1167 C1158 1.429 1_545 S
C1167 N1164 1.350 . S
C1167 C1166 1.434 . S
C641 C10 3.524 . S
C643 C410 3.521 . S
C652 C50 3.521 . S
C654 C450 3.523 . S
C663 C90 3.520 . S
C665 C330 3.524 . S
C674 C130 3.520 . S
C676 C370 3.524 . S
C685 C179 3.524 . S
C687 C579 3.522 . S
C696 C219 3.521 . S
C698 C619 3.523 . S
C707 C259 3.524 . S
C709 C499 3.521 . S
C718 C299 3.521 . S
C720 C539 3.523 . S
C729 C369 3.815 . S
C731 C19 3.692 1_556 S
C740 C409 3.815 . S
C742 C59 3.692 . S
C751 C449 3.818 . S
C753 C99 3.695 . S
C762 C329 3.816 . S
C764 C139 3.693 . S
C773 C170 3.694 1_554 S
C775 C538 3.816 . S
C784 C578 3.818 . S
C786 C210 3.695 . S
C795 C618 3.818 . S
C797 C250 3.695 . S
C806 C498 3.816 . S
C808 C290 3.693 . S
C817 C49 3.818 . S
C819 C339 3.695 . S
C828 C379 3.692 . S
C830 C89 3.816 . S
C839 C419 3.691 1_556 S
C841 C129 3.816 . S
C850 C459 3.692 . S
C852 C9 3.817 . S
C861 C490 3.691 . S
C863 C218 3.816 . S
C872 C258 3.817 . S
C874 C530 3.694 . S
C883 C298 3.815 . S
C885 C570 3.692 1_554 S
C894 C610 3.691 . S
C896 C178 3.817 . S
C905 C6 0.705 . S
C907 C609 0.629 . S
C916 C46 0.707 . S
C918 C169 0.628 . S
C927 C529 0.651 . S
C929 C86 0.685 . S
C938 C249 0.642 . S
C940 C126 0.697 . S
C949 C175 0.701 . S
C951 C458 0.641 . S
C960 C215 0.688 . S
C962 C18 0.638 . S
C971 C378 0.647 . S
C973 C255 0.684 . S
C982 C98 0.627 . S
C984 C295 0.700 . S
C993 C326 0.703 . S
C995 C289 0.638 . S
C1004 C366 0.680 . S
C1006 C489 0.647 . S
C1015 C209 0.634 . S
C1017 C406 0.695 . S
C1026 C569 0.639 . S
C1028 C446 0.691 . S
C1037 C495 0.697 . S
C1039 C138 0.643 . S
C1048 C535 0.711 . S
C1050 C338 0.633 . S
C1059 C575 0.702 . S
C1061 C58 0.629 . S
C1070 C418 0.626 . S
C1072 C615 0.702 . S
C1081 C15 2.230 . S
C1083 C486 2.240 . S
C1092 C55 2.240 . S
C1094 C206 2.232 . S
C1103 C95 2.230 . S
C1105 C566 2.240 . S
C1114 C286 2.230 . S
C1116 C135 2.240 . S
C1125 C166 2.240 . S
C1127 C335 2.232 . S
C1136 C415 2.230 . S
C1138 C246 2.240 . S
C1147 C375 2.241 . S
C1149 C526 2.231 . S
C1158 C606 2.230 . S
C1160 C455 2.240 . S
