# Generated by pormake.
# Topology uoi, (4)-cn, num edge types: 1
# Building blocks:
#     Node 0, Type 0, BuildingBlock: QUQFOY_clean_sbu_1, # of connection points: 4
#     Node 1, Type 0, BuildingBlock: QUQFOY_clean_sbu_1, # of connection points: 4
#     Node 2, Type 0, BuildingBlock: QUQFOY_clean_sbu_1, # of connection points: 4
#     Node 3, Type 0, BuildingBlock: QUQFOY_clean_sbu_1, # of connection points: 4
#     Node 4, Type 0, BuildingBlock: QUQFOY_clean_sbu_1, # of connection points: 4
#     Node 5, Type 0, BuildingBlock: QUQFOY_clean_sbu_1, # of connection points: 4
#     Node 6, Type 0, BuildingBlock: QUQFOY_clean_sbu_1, # of connection points: 4
#     Node 7, Type 0, BuildingBlock: QUQFOY_clean_sbu_1, # of connection points: 4
#     Node 8, Type 0, BuildingBlock: QUQFOY_clean_sbu_1, # of connection points: 4
#     Node 9, Type 0, BuildingBlock: QUQFOY_clean_sbu_1, # of connection points: 4
#     Node 10, Type 0, BuildingBlock: QUQFOY_clean_sbu_1, # of connection points: 4
#     Node 11, Type 0, BuildingBlock: QUQFOY_clean_sbu_1, # of connection points: 4
#     Node 12, Type 0, BuildingBlock: QUQFOY_clean_sbu_1, # of connection points: 4
#     Node 13, Type 0, BuildingBlock: QUQFOY_clean_sbu_1, # of connection points: 4
#     Node 14, Type 0, BuildingBlock: QUQFOY_clean_sbu_1, # of connection points: 4
#     Node 15, Type 0, BuildingBlock: QUQFOY_clean_sbu_1, # of connection points: 4
#     Node 16, Type 0, BuildingBlock: QUQFOY_clean_sbu_1, # of connection points: 4
#     Node 17, Type 0, BuildingBlock: QUQFOY_clean_sbu_1, # of connection points: 4
#     Node 18, Type 0, BuildingBlock: QUQFOY_clean_sbu_1, # of connection points: 4
#     Node 19, Type 0, BuildingBlock: QUQFOY_clean_sbu_1, # of connection points: 4
#     Node 20, Type 0, BuildingBlock: QUQFOY_clean_sbu_1, # of connection points: 4
#     Node 21, Type 0, BuildingBlock: QUQFOY_clean_sbu_1, # of connection points: 4
#     Node 22, Type 0, BuildingBlock: QUQFOY_clean_sbu_1, # of connection points: 4
#     Node 23, Type 0, BuildingBlock: QUQFOY_clean_sbu_1, # of connection points: 4
#     Node 24, Type 0, BuildingBlock: QUQFOY_clean_sbu_1, # of connection points: 4
#     Node 25, Type 0, BuildingBlock: QUQFOY_clean_sbu_1, # of connection points: 4
#     Node 26, Type 0, BuildingBlock: QUQFOY_clean_sbu_1, # of connection points: 4
#     Node 27, Type 0, BuildingBlock: QUQFOY_clean_sbu_1, # of connection points: 4
#     Node 28, Type 0, BuildingBlock: QUQFOY_clean_sbu_1, # of connection points: 4
#     Node 29, Type 0, BuildingBlock: QUQFOY_clean_sbu_1, # of connection points: 4
#     Node 30, Type 0, BuildingBlock: QUQFOY_clean_sbu_1, # of connection points: 4
#     Node 31, Type 0, BuildingBlock: QUQFOY_clean_sbu_1, # of connection points: 4
#     Edge 32, Type (0, 0), BuildingBlock: EZIPEK_clean_linker_0, # of connection points: 2
#     Edge 33, Type (0, 0), BuildingBlock: EZIPEK_clean_linker_0, # of connection points: 2
#     Edge 34, Type (0, 0), BuildingBlock: EZIPEK_clean_linker_0, # of connection points: 2
#     Edge 35, Type (0, 0), BuildingBlock: EZIPEK_clean_linker_0, # of connection points: 2
#     Edge 36, Type (0, 0), BuildingBlock: EZIPEK_clean_linker_0, # of connection points: 2
#     Edge 37, Type (0, 0), BuildingBlock: EZIPEK_clean_linker_0, # of connection points: 2
#     Edge 38, Type (0, 0), BuildingBlock: EZIPEK_clean_linker_0, # of connection points: 2
#     Edge 39, Type (0, 0), BuildingBlock: EZIPEK_clean_linker_0, # of connection points: 2
#     Edge 40, Type (0, 0), BuildingBlock: EZIPEK_clean_linker_0, # of connection points: 2
#     Edge 41, Type (0, 0), BuildingBlock: EZIPEK_clean_linker_0, # of connection points: 2
#     Edge 42, Type (0, 0), BuildingBlock: EZIPEK_clean_linker_0, # of connection points: 2
#     Edge 43, Type (0, 0), BuildingBlock: EZIPEK_clean_linker_0, # of connection points: 2
#     Edge 44, Type (0, 0), BuildingBlock: EZIPEK_clean_linker_0, # of connection points: 2
#     Edge 45, Type (0, 0), BuildingBlock: EZIPEK_clean_linker_0, # of connection points: 2
#     Edge 46, Type (0, 0), BuildingBlock: EZIPEK_clean_linker_0, # of connection points: 2
#     Edge 47, Type (0, 0), BuildingBlock: EZIPEK_clean_linker_0, # of connection points: 2
#     Edge 48, Type (0, 0), BuildingBlock: EZIPEK_clean_linker_0, # of connection points: 2
#     Edge 49, Type (0, 0), BuildingBlock: EZIPEK_clean_linker_0, # of connection points: 2
#     Edge 50, Type (0, 0), BuildingBlock: EZIPEK_clean_linker_0, # of connection points: 2
#     Edge 51, Type (0, 0), BuildingBlock: EZIPEK_clean_linker_0, # of connection points: 2
#     Edge 52, Type (0, 0), BuildingBlock: EZIPEK_clean_linker_0, # of connection points: 2
#     Edge 53, Type (0, 0), BuildingBlock: EZIPEK_clean_linker_0, # of connection points: 2
#     Edge 54, Type (0, 0), BuildingBlock: EZIPEK_clean_linker_0, # of connection points: 2
#     Edge 55, Type (0, 0), BuildingBlock: EZIPEK_clean_linker_0, # of connection points: 2
#     Edge 56, Type (0, 0), BuildingBlock: EZIPEK_clean_linker_0, # of connection points: 2
#     Edge 57, Type (0, 0), BuildingBlock: EZIPEK_clean_linker_0, # of connection points: 2
#     Edge 58, Type (0, 0), BuildingBlock: EZIPEK_clean_linker_0, # of connection points: 2
#     Edge 59, Type (0, 0), BuildingBlock: EZIPEK_clean_linker_0, # of connection points: 2
#     Edge 60, Type (0, 0), BuildingBlock: EZIPEK_clean_linker_0, # of connection points: 2
#     Edge 61, Type (0, 0), BuildingBlock: EZIPEK_clean_linker_0, # of connection points: 2
#     Edge 62, Type (0, 0), BuildingBlock: EZIPEK_clean_linker_0, # of connection points: 2
#     Edge 63, Type (0, 0), BuildingBlock: EZIPEK_clean_linker_0, # of connection points: 2
#     Edge 64, Type (0, 0), BuildingBlock: EZIPEK_clean_linker_0, # of connection points: 2
#     Edge 65, Type (0, 0), BuildingBlock: EZIPEK_clean_linker_0, # of connection points: 2
#     Edge 66, Type (0, 0), BuildingBlock: EZIPEK_clean_linker_0, # of connection points: 2
#     Edge 67, Type (0, 0), BuildingBlock: EZIPEK_clean_linker_0, # of connection points: 2
#     Edge 68, Type (0, 0), BuildingBlock: EZIPEK_clean_linker_0, # of connection points: 2
#     Edge 69, Type (0, 0), BuildingBlock: EZIPEK_clean_linker_0, # of connection points: 2
#     Edge 70, Type (0, 0), BuildingBlock: EZIPEK_clean_linker_0, # of connection points: 2
#     Edge 71, Type (0, 0), BuildingBlock: EZIPEK_clean_linker_0, # of connection points: 2
#     Edge 72, Type (0, 0), BuildingBlock: EZIPEK_clean_linker_0, # of connection points: 2
#     Edge 73, Type (0, 0), BuildingBlock: EZIPEK_clean_linker_0, # of connection points: 2
#     Edge 74, Type (0, 0), BuildingBlock: EZIPEK_clean_linker_0, # of connection points: 2
#     Edge 75, Type (0, 0), BuildingBlock: EZIPEK_clean_linker_0, # of connection points: 2
#     Edge 76, Type (0, 0), BuildingBlock: EZIPEK_clean_linker_0, # of connection points: 2
#     Edge 77, Type (0, 0), BuildingBlock: EZIPEK_clean_linker_0, # of connection points: 2
#     Edge 78, Type (0, 0), BuildingBlock: EZIPEK_clean_linker_0, # of connection points: 2
#     Edge 79, Type (0, 0), BuildingBlock: EZIPEK_clean_linker_0, # of connection points: 2
#     Edge 80, Type (0, 0), BuildingBlock: EZIPEK_clean_linker_0, # of connection points: 2
#     Edge 81, Type (0, 0), BuildingBlock: EZIPEK_clean_linker_0, # of connection points: 2
#     Edge 82, Type (0, 0), BuildingBlock: EZIPEK_clean_linker_0, # of connection points: 2
#     Edge 83, Type (0, 0), BuildingBlock: EZIPEK_clean_linker_0, # of connection points: 2
#     Edge 84, Type (0, 0), BuildingBlock: EZIPEK_clean_linker_0, # of connection points: 2
#     Edge 85, Type (0, 0), BuildingBlock: EZIPEK_clean_linker_0, # of connection points: 2
#     Edge 86, Type (0, 0), BuildingBlock: EZIPEK_clean_linker_0, # of connection points: 2
#     Edge 87, Type (0, 0), BuildingBlock: EZIPEK_clean_linker_0, # of connection points: 2
#     Edge 88, Type (0, 0), BuildingBlock: EZIPEK_clean_linker_0, # of connection points: 2
#     Edge 89, Type (0, 0), BuildingBlock: EZIPEK_clean_linker_0, # of connection points: 2
#     Edge 90, Type (0, 0), BuildingBlock: EZIPEK_clean_linker_0, # of connection points: 2
#     Edge 91, Type (0, 0), BuildingBlock: EZIPEK_clean_linker_0, # of connection points: 2
#     Edge 92, Type (0, 0), BuildingBlock: EZIPEK_clean_linker_0, # of connection points: 2
#     Edge 93, Type (0, 0), BuildingBlock: EZIPEK_clean_linker_0, # of connection points: 2
#     Edge 94, Type (0, 0), BuildingBlock: EZIPEK_clean_linker_0, # of connection points: 2
#     Edge 95, Type (0, 0), BuildingBlock: EZIPEK_clean_linker_0, # of connection points: 2
# Relax obj value: 0.229
# Max RMSD: 0.156
# Mean RMSD: 0.155
data_MOF--net-uoi--node1-QUQFOY_clean_sbu_1--edge1-EZIPEK_clean_linker_0
_symmetry_space_group_name_H-M    P1
_symmetry_Int_Tables_number       1
_symmetry_cell_setting            triclinic
loop_
_symmetry_equiv_pos_as_xyz
'x, y, z'
_cell_length_a     66.241897
_cell_length_b     66.225935
_cell_length_c     14.834447
_cell_angle_alpha  89.966201
_cell_angle_beta   89.997348
_cell_angle_gamma 89.988229
loop_
_atom_site_label
_atom_site_type_symbol
_atom_site_fract_x
_atom_site_fract_y
_atom_site_fract_z
_atom_type_partial_charge
O0 O 0.15348 0.21472 0.27209 0.0
Cd1 Cd 0.14341 0.18964 0.33959 0.0
Cd2 Cd 0.18147 0.19747 0.42888 0.0
O3 O 0.18371 0.21965 0.33193 0.0
O4 O 0.11985 0.1813 0.26389 0.0
O5 O 0.1465 0.16173 0.28461 0.0
C6 C 0.12923 0.16475 0.2466 0.0
C7 C 0.21103 0.18416 0.49444 0.0
C8 C 0.16971 0.22485 0.27803 0.0
C9 C 0.14156 0.20444 0.52737 0.0
O10 O 0.16065 0.20515 0.52285 0.0
O11 O 0.13117 0.19686 0.46377 0.0
O12 O 0.20627 0.20287 0.5017 0.0
O13 O 0.19938 0.17273 0.4471 0.0
O14 O 0.03239 0.90957 0.49635 0.0
Cd15 Cd 0.05756 0.89961 0.56234 0.0
Cd16 Cd 0.04811 0.93655 0.66014 0.0
O17 O 0.02631 0.93902 0.56161 0.0
O18 O 0.06645 0.87708 0.48185 0.0
O19 O 0.08534 0.90395 0.50781 0.0
C20 C 0.08277 0.88702 0.46629 0.0
C21 C 0.05954 0.96626 0.73122 0.0
C22 C 0.02179 0.92543 0.50459 0.0
C23 C 0.04254 0.89519 0.74907 0.0
O24 O 0.04123 0.91429 0.74925 0.0
O25 O 0.05035 0.88579 0.683 0.0
O26 O 0.04113 0.96037 0.73674 0.0
O27 O 0.07177 0.95554 0.68344 0.0
O28 O 0.35799 0.78309 0.78586 0.0
Cd29 Cd 0.35863 0.80983 0.85472 0.0
Cd30 Cd 0.31997 0.80031 0.87107 0.0
O31 O 0.32514 0.78223 0.75997 0.0
O32 O 0.38251 0.82441 0.80517 0.0
O33 O 0.35098 0.83491 0.78565 0.0
C34 C 0.36999 0.83669 0.76718 0.0
C35 C 0.28956 0.81577 0.91097 0.0
C36 C 0.34281 0.7751 0.74798 0.0
C37 C 0.34869 0.79228 0.02464 0.0
O38 O 0.33267 0.7879 0.98256 0.0
O39 O 0.36121 0.80489 0.99197 0.0
O40 O 0.29095 0.79651 0.90207 0.0
O41 O 0.30493 0.82669 0.8889 0.0
O42 O 0.45817 0.09752 0.98503 0.0
Cd43 Cd 0.43209 0.09875 0.05805 0.0
Cd44 Cd 0.44398 0.0589 0.08151 0.0
O45 O 0.46143 0.06443 0.96859 0.0
O46 O 0.41902 0.12378 0.01113 0.0
O47 O 0.40592 0.0933 0.99197 0.0
C48 C 0.40549 0.11243 0.97475 0.0
C49 C 0.43407 0.02712 0.13526 0.0
C50 C 0.46711 0.08241 0.95105 0.0
C51 C 0.451 0.09041 0.22741 0.0
O52 O 0.45533 0.07407 0.18798 0.0
O53 O 0.43832 0.10269 0.19355 0.0
O54 O 0.4527 0.03145 0.12127 0.0
O55 O 0.42061 0.04002 0.11 0.0
O56 O 0.14782 0.79127 0.26396 0.0
Cd57 Cd 0.1451 0.81169 0.16401 0.0
Cd58 Cd 0.18598 0.80601 0.14625 0.0
O59 O 0.18106 0.78796 0.25899 0.0
O60 O 0.11928 0.82525 0.19565 0.0
O61 O 0.14897 0.84081 0.19784 0.0
C62 C 0.12994 0.84081 0.21746 0.0
C63 C 0.21733 0.81991 0.10615 0.0
C64 C 0.16385 0.7827 0.28975 0.0
C65 C 0.15829 0.78721 0.00954 0.0
O66 O 0.17596 0.79119 0.03622 0.0
O67 O 0.14297 0.79582 0.04444 0.0
O68 O 0.21526 0.80104 0.12313 0.0
O69 O 0.20214 0.83162 0.12111 0.0
O70 O 0.4682 0.88756 0.48106 0.0
Cd71 Cd 0.44194 0.88862 0.40901 0.0
Cd72 Cd 0.45319 0.92678 0.39893 0.0
O73 O 0.47054 0.92019 0.51095 0.0
O74 O 0.42574 0.8655 0.4554 0.0
O75 O 0.41708 0.89756 0.47609 0.0
C76 C 0.41415 0.87864 0.49352 0.0
C77 C 0.43883 0.95742 0.35571 0.0
C78 C 0.47673 0.9021 0.52146 0.0
C79 C 0.46105 0.89889 0.24308 0.0
O80 O 0.46588 0.91431 0.28834 0.0
O81 O 0.44776 0.88661 0.27213 0.0
O82 O 0.45793 0.95578 0.36986 0.0
O83 O 0.42737 0.94235 0.37657 0.0
O84 O 0.35882 0.21541 0.75753 0.0
Cd85 Cd 0.35458 0.19358 0.66471 0.0
Cd86 Cd 0.31595 0.19919 0.69509 0.0
O87 O 0.32708 0.2155 0.80395 0.0
O88 O 0.37695 0.17401 0.6826 0.0
O89 O 0.3448 0.16755 0.71656 0.0
C90 C 0.3637 0.16265 0.72203 0.0
C91 C 0.2851 0.18289 0.67764 0.0
C92 C 0.3451 0.22236 0.808 0.0
C93 C 0.3342 0.21791 0.52956 0.0
O94 O 0.31933 0.21567 0.58187 0.0
O95 O 0.35023 0.20754 0.54097 0.0
O96 O 0.28603 0.20154 0.70134 0.0
O97 O 0.30158 0.17248 0.67805 0.0
O98 O 0.02722 0.11406 0.98215 0.0
Cd99 Cd 0.05348 0.11009 0.91146 0.0
Cd100 Cd 0.04314 0.07228 0.93226 0.0
O101 O 0.02558 0.08303 0.0367 0.0
O102 O 0.07092 0.13347 0.94338 0.0
O103 O 0.07776 0.10182 0.98325 0.0
C104 C 0.08175 0.12091 0.9894 0.0
C105 C 0.05774 0.04062 0.91514 0.0
C106 C 0.01908 0.10114 0.03369 0.0
C107 C 0.03534 0.09289 0.755 0.0
O108 O 0.0306 0.07955 0.81215 0.0
O109 O 0.0481 0.10655 0.77481 0.0
O110 O 0.03862 0.04263 0.92734 0.0
O111 O 0.06909 0.05633 0.92499 0.0
O112 O 0.84983 0.79276 0.72941 0.0
Cd113 Cd 0.85625 0.81901 0.66144 0.0
Cd114 Cd 0.81568 0.80497 0.59038 0.0
O115 O 0.81751 0.78638 0.70185 0.0
O116 O 0.88004 0.82962 0.73089 0.0
O117 O 0.85106 0.84602 0.7218 0.0
C118 C 0.86906 0.84474 0.75475 0.0
C119 C 0.78435 0.81026 0.51839 0.0
C120 C 0.83404 0.78218 0.74139 0.0
C121 C 0.8554 0.80316 0.47838 0.0
O122 O 0.83719 0.79893 0.49643 0.0
O123 O 0.8661 0.8137 0.53173 0.0
O124 O 0.79242 0.79268 0.52367 0.0
O125 O 0.79341 0.82499 0.55832 0.0
O126 O 0.95977 0.0997 0.4922 0.0
Cd127 Cd 0.93348 0.10434 0.42271 0.0
Cd128 Cd 0.94697 0.06514 0.36427 0.0
O129 O 0.96452 0.06671 0.47956 0.0
O130 O 0.92219 0.12862 0.48538 0.0
O131 O 0.90668 0.09907 0.48519 0.0
C132 C 0.90746 0.11755 0.51272 0.0
C133 C 0.93807 0.03478 0.2917 0.0
C134 C 0.96953 0.08381 0.51197 0.0
C135 C 0.95153 0.10287 0.24602 0.0
O136 O 0.95643 0.08517 0.26977 0.0
O137 O 0.93907 0.11326 0.2918 0.0
O138 O 0.95659 0.03988 0.30375 0.0
O139 O 0.92432 0.04609 0.32701 0.0
O140 O 0.65721 0.20237 0.27572 0.0
Cd141 Cd 0.64986 0.18337 0.17508 0.0
Cd142 Cd 0.69056 0.1907 0.12343 0.0
O143 O 0.68877 0.20923 0.23682 0.0
O144 O 0.62336 0.17365 0.22167 0.0
O145 O 0.64954 0.1534 0.20231 0.0
C146 C 0.63152 0.15621 0.23313 0.0
C147 C 0.7214 0.17906 0.06447 0.0
C148 C 0.67324 0.21246 0.28549 0.0
C149 C 0.65712 0.20819 0.01085 0.0
O150 O 0.6755 0.20338 0.01899 0.0
O151 O 0.64367 0.2008 0.06251 0.0
O152 O 0.71798 0.19789 0.07719 0.0
O153 O 0.70815 0.16632 0.09306 0.0
O154 O 0.53774 0.88981 0.98299 0.0
Cd155 Cd 0.56389 0.88877 0.90962 0.0
Cd156 Cd 0.55184 0.92823 0.88564 0.0
O157 O 0.53454 0.92289 -0.00097 0.0
O158 O 0.57755 0.8641 0.95704 0.0
O159 O 0.59014 0.89487 0.97336 0.0
C160 C 0.59102 0.8758 0.99163 0.0
C161 C 0.56251 0.95999 0.83473 0.0
C162 C 0.52882 0.90495 0.0169 0.0
C163 C 0.54504 0.89677 0.73985 0.0
O164 O 0.5404 0.91312 0.77865 0.0
O165 O 0.55794 0.88479 0.77415 0.0
O166 O 0.54375 0.95598 0.84724 0.0
O167 O 0.57565 0.9467 0.85933 0.0
O168 O 0.85772 0.22091 0.75592 0.0
Cd169 Cd 0.85339 0.1959 0.83546 0.0
Cd170 Cd 0.81697 0.20572 0.80712 0.0
O171 O 0.82775 0.21934 0.691 0.0
O172 O 0.87646 0.17732 0.80907 0.0
O173 O 0.84479 0.17092 0.76939 0.0
C174 C 0.86375 0.16641 0.76418 0.0
C175 C 0.78955 0.18569 0.84393 0.0
C176 C 0.84543 0.22693 0.69607 0.0
C177 C 0.83506 0.21798 0.97965 0.0
O178 O 0.82324 0.22283 0.91634 0.0
O179 O 0.84751 0.20346 0.9694 0.0
O180 O 0.78705 0.20402 0.81615 0.0
O181 O 0.80727 0.17775 0.83628 0.0
O182 O 0.52778 0.09893 0.48407 0.0
Cd183 Cd 0.55374 0.09939 0.55879 0.0
Cd184 Cd 0.54322 0.06046 0.57379 0.0
O185 O 0.52546 0.06596 0.46187 0.0
O186 O 0.56809 0.1239 0.51449 0.0
O187 O 0.57966 0.09279 0.49399 0.0
C188 C 0.58115 0.11194 0.47827 0.0
C189 C 0.55793 0.03007 0.61886 0.0
C190 C 0.5193 0.0839 0.44715 0.0
C191 C 0.53486 0.08928 0.72632 0.0
O192 O 0.5306 0.07335 0.68353 0.0
O193 O 0.54755 0.10189 0.69503 0.0
O194 O 0.53879 0.03159 0.60614 0.0
O195 O 0.56922 0.04516 0.59648 0.0
O196 O 0.63559 0.77536 0.29207 0.0
Cd197 Cd 0.64398 0.80292 0.34601 0.0
Cd198 Cd 0.67857 0.78708 0.3222 0.0
O199 O 0.66482 0.76979 0.22485 0.0
O200 O 0.62235 0.82246 0.31248 0.0
O201 O 0.65336 0.82345 0.25559 0.0
C202 C 0.63495 0.82998 0.25496 0.0
C203 C 0.71011 0.80224 0.33034 0.0
C204 C 0.64632 0.7653 0.23716 0.0
C205 C 0.66231 0.78748 0.50655 0.0
O206 O 0.67168 0.77737 0.44762 0.0
O207 O 0.65165 0.80255 0.48255 0.0
O208 O 0.7083 0.78287 0.3252 0.0
O209 O 0.6942 0.81309 0.31656 0.0
O210 O 0.96815 0.89119 0.02245 0.0
Cd211 Cd 0.94218 0.90064 0.08745 0.0
Cd212 Cd 0.95823 0.93376 0.05201 0.0
O213 O 0.972 0.91948 0.94546 0.0
O214 O 0.9213 0.87919 0.07188 0.0
O215 O 0.91954 0.90882 0.00503 0.0
C216 C 0.91196 0.89104 0.01647 0.0
C217 C 0.94198 0.96417 0.07647 0.0
C218 C 0.97686 0.90115 0.96038 0.0
C219 C 0.96278 0.91953 0.23451 0.0
O220 O 0.9724 0.92671 0.16831 0.0
O221 O 0.94608 0.91054 0.22054 0.0
O222 O 0.96086 0.96364 0.0546 0.0
O223 O 0.93155 0.94777 0.06805 0.0
O224 O 0.65429 0.71766 0.76104 0.0
Cd225 Cd 0.64512 0.69146 0.82232 0.0
Cd226 Cd 0.683 0.70187 0.92383 0.0
O227 O 0.6824 0.72563 0.83373 0.0
O228 O 0.62145 0.68393 0.74517 0.0
O229 O 0.64834 0.66445 0.75853 0.0
C230 C 0.63092 0.66778 0.7225 0.0
C231 C 0.71439 0.69294 0.98801 0.0
C232 C 0.66902 0.72955 0.77483 0.0
C233 C 0.64185 0.70208 0.01811 0.0
O234 O 0.66089 0.70401 0.01803 0.0
O235 O 0.63243 0.69633 0.94796 0.0
O236 O 0.70639 0.71036 0.00038 0.0
O237 O 0.70486 0.68037 0.93713 0.0
O238 O 0.53858 0.41023 0.97766 0.0
Cd239 Cd 0.56418 0.40079 0.04202 0.0
Cd240 Cd 0.55461 0.43848 0.1397 0.0
O241 O 0.53157 0.43907 0.04642 0.0
O242 O 0.5722 0.37745 0.96417 0.0
O243 O 0.59169 0.40417 0.98316 0.0
C244 C 0.58857 0.38695 0.945 0.0
C245 C 0.56466 0.46951 0.20344 0.0
C246 C 0.52732 0.42554 0.98876 0.0
C247 C 0.55159 0.39755 0.23452 0.0
O248 O 0.55028 0.41665 0.2339 0.0
O249 O 0.55802 0.38794 0.16611 0.0
O250 O 0.54681 0.46241 0.21405 0.0
O251 O 0.57711 0.45922 0.15496 0.0
O252 O 0.83673 0.30053 0.19639 0.0
Cd253 Cd 0.85188 0.31724 0.29071 0.0
Cd254 Cd 0.81608 0.30795 0.38871 0.0
O255 O 0.81771 0.28462 0.29508 0.0
O256 O 0.87651 0.32399 0.21925 0.0
O257 O 0.85526 0.34727 0.26784 0.0
C258 C 0.871 0.34259 0.22107 0.0
C259 C 0.78531 0.31947 0.44807 0.0
C260 C 0.82673 0.28506 0.21941 0.0
C261 C 0.85365 0.29608 0.47092 0.0
O262 O 0.83692 0.30452 0.48742 0.0
O263 O 0.86265 0.29936 0.39654 0.0
O264 O 0.79141 0.30125 0.45996 0.0
O265 O 0.79607 0.33117 0.39777 0.0
O266 O 0.96971 0.60687 0.52003 0.0
Cd267 Cd 0.94207 0.60828 0.58229 0.0
Cd268 Cd 0.95388 0.56844 0.61162 0.0
O269 O 0.97186 0.57381 0.50024 0.0
O270 O 0.91787 0.60607 0.49861 0.0
O271 O 0.93128 0.63492 0.54163 0.0
C272 C 0.91854 0.62549 0.4914 0.0
C273 C 0.94349 0.53653 0.66209 0.0
C274 C 0.9784 0.59162 0.48568 0.0
C275 C 0.95796 0.60019 0.75757 0.0
O276 O 0.96391 0.58414 0.71981 0.0
O277 O 0.94498 0.61153 0.71997 0.0
O278 O 0.96226 0.541 0.65323 0.0
O279 O 0.93029 0.54944 0.63438 0.0
O280 O 0.64196 0.28554 0.74306 0.0
Cd281 Cd 0.64434 0.30676 0.64593 0.0
Cd282 Cd 0.6833 0.3035 0.67512 0.0
O283 O 0.67375 0.28745 0.78755 0.0
O284 O 0.62035 0.32429 0.66214 0.0
O285 O 0.6519 0.33415 0.69034 0.0
C286 C 0.63265 0.33727 0.69743 0.0
C287 C 0.71318 0.32076 0.64806 0.0
C288 C 0.65616 0.27963 0.79347 0.0
C289 C 0.66554 0.28263 0.51378 0.0
O290 O 0.68024 0.28582 0.56589 0.0
O291 O 0.64904 0.2923 0.52384 0.0
O292 O 0.71328 0.30251 0.67768 0.0
O293 O 0.69629 0.33051 0.64869 0.0
O294 O 0.97708 0.39548 0.98853 0.0
Cd295 Cd 0.9517 0.39775 0.91101 0.0
Cd296 Cd 0.96252 0.43548 0.91487 0.0
O297 O 0.97861 0.42755 0.02916 0.0
O298 O 0.93481 0.37425 0.94587 0.0
O299 O 0.92617 0.4061 0.97361 0.0
C300 C 0.92279 0.38699 0.98408 0.0
C301 C 0.94723 0.46578 0.87461 0.0
C302 C 0.98488 0.40939 0.03565 0.0
C303 C 0.97238 0.41031 0.75321 0.0
O304 O 0.97687 0.42485 0.80453 0.0
O305 O 0.95873 0.39775 0.7754 0.0
O306 O 0.96615 0.46495 0.89416 0.0
O307 O 0.93629 0.44996 0.88912 0.0
O308 O 0.86439 0.7277 0.21448 0.0
Cd309 Cd 0.85929 0.70067 0.15094 0.0
Cd310 Cd 0.82205 0.71203 0.17563 0.0
O311 O 0.83412 0.7298 0.27661 0.0
O312 O 0.88401 0.68414 0.16972 0.0
O313 O 0.85494 0.67756 0.23713 0.0
C314 C 0.87408 0.67405 0.22965 0.0
C315 C 0.79032 0.69746 0.16306 0.0
C316 C 0.85218 0.73621 0.26826 0.0
C317 C 0.84106 0.71803 0.99476 0.0
O318 O 0.82867 0.72399 0.05382 0.0
O319 O 0.85409 0.7046 0.01408 0.0
O320 O 0.79238 0.71661 0.17458 0.0
O321 O 0.80609 0.68611 0.17125 0.0
O322 O 0.52871 0.61894 0.44042 0.0
Cd323 Cd 0.55562 0.61589 0.37364 0.0
Cd324 Cd 0.5456 0.57758 0.38629 0.0
O325 O 0.527 0.5874 0.48868 0.0
O326 O 0.57261 0.63922 0.41129 0.0
O327 O 0.57956 0.60737 0.4473 0.0
C328 C 0.58338 0.62644 0.45635 0.0
C329 C 0.56023 0.54578 0.37124 0.0
C330 C 0.52026 0.60542 0.4878 0.0
C331 C 0.53904 0.59967 0.21136 0.0
O332 O 0.53416 0.58563 0.26483 0.0
O333 O 0.55137 0.61335 0.23583 0.0
O334 O 0.541 0.54794 0.37804 0.0
O335 O 0.57153 0.56143 0.38342 0.0
O336 O 0.3467 0.29818 0.29054 0.0
Cd337 Cd 0.35457 0.31742 0.19108 0.0
Cd338 Cd 0.31307 0.30997 0.13363 0.0
O339 O 0.31524 0.29156 0.24816 0.0
O340 O 0.38073 0.32808 0.23797 0.0
O341 O 0.35382 0.34737 0.21778 0.0
C342 C 0.37202 0.34532 0.24759 0.0
C343 C 0.28136 0.31779 0.06918 0.0
C344 C 0.33051 0.28822 0.29854 0.0
C345 C 0.34789 0.29379 0.02317 0.0
O346 O 0.3296 0.29906 0.0292 0.0
O347 O 0.36107 0.30027 0.07833 0.0
O348 O 0.28698 0.29956 0.08366 0.0
O349 O 0.29282 0.33204 0.0988 0.0
O350 O 0.46497 0.60539 0.93585 0.0
Cd351 Cd 0.43702 0.60695 0.87715 0.0
Cd352 Cd 0.45152 0.56837 0.82798 0.0
O353 O 0.46873 0.57221 0.94315 0.0
O354 O 0.41373 0.60282 0.96487 0.0
O355 O 0.42591 0.63258 0.92835 0.0
C356 C 0.41403 0.62206 0.97843 0.0
C357 C 0.44375 0.53709 0.7615 0.0
C358 C 0.47437 0.58998 0.96463 0.0
C359 C 0.4529 0.60396 0.6988 0.0
O360 O 0.46014 0.58761 0.72888 0.0
O361 O 0.43917 0.61337 0.74143 0.0
O362 O 0.46208 0.54278 0.77398 0.0
O363 O 0.42957 0.54832 0.79386 0.0
O364 O 0.14621 0.70772 0.75181 0.0
Cd365 Cd 0.14684 0.68609 0.65669 0.0
Cd366 Cd 0.1868 0.69274 0.6613 0.0
O367 O 0.17913 0.70954 0.77505 0.0
O368 O 0.12225 0.67017 0.68488 0.0
O369 O 0.15349 0.65852 0.70374 0.0
C370 C 0.13428 0.65673 0.71828 0.0
C371 C 0.21781 0.6785 0.62124 0.0
C372 C 0.16117 0.71572 0.79056 0.0
C373 C 0.16233 0.71115 0.51139 0.0
O374 O 0.17882 0.70902 0.55284 0.0
O375 O 0.14695 0.70057 0.53253 0.0
O376 O 0.21646 0.69692 0.64759 0.0
O377 O 0.20211 0.66712 0.62988 0.0
O378 O 0.04857 0.3994 0.49514 0.0
Cd379 Cd 0.07391 0.39538 0.41931 0.0
Cd380 Cd 0.06345 0.43607 0.38637 0.0
O381 O 0.04692 0.43277 0.50309 0.0
O382 O 0.08504 0.36986 0.47115 0.0
O383 O 0.10091 0.39919 0.48082 0.0
C384 C 0.09973 0.38036 0.50329 0.0
C385 C 0.07267 0.46755 0.32617 0.0
C386 C 0.04058 0.41535 0.52599 0.0
C387 C 0.05394 0.40254 0.25114 0.0
O388 O 0.0509 0.4197 0.28581 0.0
O389 O 0.0663 0.3901 0.2863 0.0
O390 O 0.05419 0.46296 0.34186 0.0
O391 O 0.08643 0.455 0.35158 0.0
O392 O 0.3572 0.71675 0.29423 0.0
Cd393 Cd 0.35642 0.68934 0.35791 0.0
Cd394 Cd 0.31819 0.69996 0.36903 0.0
O395 O 0.32482 0.71766 0.25789 0.0
O396 O 0.38207 0.67578 0.32198 0.0
O397 O 0.35229 0.66604 0.27173 0.0
C398 C 0.37174 0.66478 0.26709 0.0
C399 C 0.28806 0.68417 0.40939 0.0
C400 C 0.34267 0.72476 0.25144 0.0
C401 C 0.34547 0.70664 0.52644 0.0
O402 O 0.33045 0.71244 0.4807 0.0
O403 O 0.35716 0.69296 0.49645 0.0
O404 O 0.28898 0.7034 0.3973 0.0
O405 O 0.30365 0.67342 0.3884 0.0
O406 O 0.03464 0.60969 0.01575 0.0
Cd407 Cd 0.06173 0.60698 0.08062 0.0
Cd408 Cd 0.04988 0.5697 0.08802 0.0
O409 O 0.03159 0.57741 0.98064 0.0
O410 O 0.07886 0.62917 0.03237 0.0
O411 O 0.08496 0.59671 0.00613 0.0
C412 C 0.08903 0.61548 0.99015 0.0
C413 C 0.06511 0.53893 0.12057 0.0
C414 C 0.02555 0.59564 0.97436 0.0
C415 C 0.04462 0.59614 0.25012 0.0
O416 O 0.03863 0.58127 0.20387 0.0
O417 O 0.05797 0.60811 0.21923 0.0
O418 O 0.04583 0.54044 0.11227 0.0
O419 O 0.07611 0.55435 0.09965 0.0
O420 O 0.13882 0.27826 0.80539 0.0
Cd421 Cd 0.14713 0.30511 0.86518 0.0
Cd422 Cd 0.18088 0.29036 0.83424 0.0
O423 O 0.16719 0.2756 0.72813 0.0
O424 O 0.12633 0.32579 0.83298 0.0
O425 O 0.15736 0.32546 0.77617 0.0
C426 C 0.13925 0.33274 0.77533 0.0
C427 C 0.21051 0.30796 0.85998 0.0
C428 C 0.14908 0.26995 0.74328 0.0
C429 C 0.16571 0.28589 0.01587 0.0
O430 O 0.17371 0.27652 0.95089 0.0
O431 O 0.15619 0.30226 0.00024 0.0
O432 O 0.21087 0.289 0.8392 0.0
O433 O 0.19371 0.31763 0.85045 0.0
O434 O 0.47748 0.39222 0.50786 0.0
Cd435 Cd 0.45052 0.40082 0.567 0.0
Cd436 Cd 0.46601 0.4346 0.53725 0.0
O437 O 0.48159 0.42089 0.43409 0.0
O438 O 0.43047 0.37915 0.54117 0.0
O439 O 0.42917 0.40971 0.47947 0.0
C440 C 0.42245 0.39139 0.48347 0.0
C441 C 0.44967 0.46523 0.55644 0.0
C442 C 0.48662 0.40259 0.44842 0.0
C443 C 0.46861 0.4194 0.72043 0.0
O444 O 0.4785 0.42754 0.65726 0.0
O445 O 0.45254 0.40971 0.70206 0.0
O446 O 0.46885 0.46447 0.54092 0.0
O447 O 0.43927 0.44891 0.54529 0.0
C448 C 0.2656 0.17222 0.54028 0.0
C449 C 0.26623 0.17537 0.6353 0.0
C450 C 0.22934 0.178 0.63937 0.0
C451 C 0.22891 0.17642 0.5439 0.0
N452 N 0.24525 0.16583 0.40706 0.0
N453 N 0.24905 0.1756 0.77756 0.0
C454 C 0.24659 0.1712 0.49577 0.0
C455 C 0.2481 0.17628 0.6856 0.0
N456 N 0.28309 0.17203 0.49122 0.0
N457 N 0.21183 0.18183 0.68508 0.0
H458 H 0.26273 0.17411 0.81186 0.0
H459 H 0.23645 0.17477 0.81931 0.0
H460 H 0.19773 0.1818 0.65357 0.0
H461 H 0.21121 0.18554 0.75317 0.0
H462 H 0.28349 0.17272 0.42113 0.0
H463 H 0.29741 0.17237 0.51997 0.0
H464 H 0.25729 0.1599 0.37047 0.0
H465 H 0.23161 0.16551 0.37211 0.0
C466 C 0.07135 0.00228 0.7355 0.0
C467 C 0.06602 0.98442 0.78234 0.0
C468 C 0.06395 0.00351 0.92417 0.0
C469 C 0.06536 0.02166 0.87432 0.0
N470 N 0.07043 0.03885 0.73237 0.0
N471 N 0.05956 0.96705 0.92206 0.0
C472 C 0.06965 0.02121 0.78032 0.0
C473 C 0.06331 0.98473 0.8774 0.0
N474 N 0.07752 0.00121 0.64772 0.0
N475 N 0.06318 0.00442 0.01614 0.0
H476 H 0.06048 0.95299 0.8906 0.0
H477 H 0.05514 0.96621 0.98924 0.0
H478 H 0.06386 0.01811 0.05091 0.0
H479 H 0.06348 0.99185 0.05817 0.0
H480 H 0.08358 0.01339 0.61255 0.0
H481 H 0.07827 0.9877 0.61198 0.0
H482 H 0.07064 0.03951 0.66229 0.0
H483 H 0.06973 0.05307 0.76217 0.0
C484 C 0.25407 0.8281 0.10307 0.0
C485 C 0.23551 0.8267 0.05648 0.0
C486 C 0.25349 0.82681 0.91157 0.0
C487 C 0.27186 0.82431 0.95873 0.0
N488 N 0.29053 0.82417 0.09807 0.0
N489 N 0.21685 0.82608 0.917 0.0
C490 C 0.27246 0.82591 0.05423 0.0
C491 C 0.23501 0.82699 0.96066 0.0
N492 N 0.2539 0.8313 0.19405 0.0
N493 N 0.25389 0.82881 0.81992 0.0
H494 H 0.20307 0.82694 0.95076 0.0
H495 H 0.21532 0.82377 0.84798 0.0
H496 H 0.26738 0.82871 0.7835 0.0
H497 H 0.24129 0.83224 0.78095 0.0
H498 H 0.26677 0.8339 0.23249 0.0
H499 H 0.24046 0.83299 0.23009 0.0
H500 H 0.29198 0.82289 0.16764 0.0
H501 H 0.30428 0.82339 0.06398 0.0
C502 C 0.42546 0.99055 0.15521 0.0
C503 C 0.42905 0.00971 0.19393 0.0
C504 C 0.43126 0.9943 0.34442 0.0
C505 C 0.43122 0.97499 0.30371 0.0
N506 N 0.42801 0.95416 0.17098 0.0
N507 N 0.43425 0.03059 0.3249 0.0
C508 C 0.42776 0.97292 0.20943 0.0
C509 C 0.43126 0.01183 0.2888 0.0
N510 N 0.42008 0.98933 0.06648 0.0
N511 N 0.43127 0.9957 0.43634 0.0
H512 H 0.4332 0.0438 0.28681 0.0
H513 H 0.43844 0.03314 0.39151 0.0
H514 H 0.43115 0.98296 0.47782 0.0
H515 H 0.4297 0.0092 0.4715 0.0
H516 H 0.41552 0.97604 0.03513 0.0
H517 H 0.4185 0.00212 0.0259 0.0
H518 H 0.42807 0.95167 0.10174 0.0
H519 H 0.42912 0.94089 0.20845 0.0
C520 C 0.74787 0.80449 0.32315 0.0
C521 C 0.72954 0.81096 0.36321 0.0
C522 C 0.74782 0.82051 0.50092 0.0
C523 C 0.76598 0.81324 0.46228 0.0
N524 N 0.78452 0.80417 0.32849 0.0
N525 N 0.71354 0.83187 0.4766 0.0
C526 C 0.76638 0.80711 0.37052 0.0
C527 C 0.73001 0.82134 0.44724 0.0
N528 N 0.74744 0.79543 0.24045 0.0
N529 N 0.74714 0.82527 0.59052 0.0
H530 H 0.70027 0.83326 0.43977 0.0
H531 H 0.71381 0.84116 0.53323 0.0
H532 H 0.75977 0.82486 0.63233 0.0
H533 H 0.73374 0.82805 0.62513 0.0
H534 H 0.75973 0.78797 0.21214 0.0
H535 H 0.73437 0.79488 0.20121 0.0
H536 H 0.786 0.80134 0.25979 0.0
H537 H 0.79832 0.80646 0.36086 0.0
C538 C 0.93938 0.01912 0.13795 0.0
C539 C 0.9332 0.01782 0.22956 0.0
C540 C 0.92577 0.98177 0.21059 0.0
C541 C 0.93378 0.98268 0.12114 0.0
N542 N 0.94169 0.00279 0.99139 0.0
N543 N 0.91506 0.99991 0.345 0.0
C544 C 0.93843 0.00164 0.08223 0.0
C545 C 0.9244 0.99983 0.26283 0.0
N546 N 0.94658 0.03701 0.10498 0.0
N547 N 0.92098 0.96359 0.24877 0.0
H548 H 0.91458 0.01262 0.38636 0.0
H549 H 0.90634 0.988 0.3691 0.0
H550 H 0.92076 0.95 0.21394 0.0
H551 H 0.91821 0.96165 0.31728 0.0
H552 H 0.95371 0.03852 0.04284 0.0
H553 H 0.94596 0.05046 0.14148 0.0
H554 H 0.94365 0.01627 0.95636 0.0
H555 H 0.9405 0.99018 0.94953 0.0
C556 C 0.75335 0.17502 0.85586 0.0
C557 C 0.77291 0.17558 0.89454 0.0
C558 C 0.75829 0.17185 0.04586 0.0
C559 C 0.73878 0.173 0.00771 0.0
N560 N 0.71727 0.17009 0.8777 0.0
N561 N 0.79414 0.16713 0.02211 0.0
C562 C 0.7362 0.17253 0.91279 0.0
C563 C 0.77545 0.17138 0.98808 0.0
N564 N 0.75129 0.17762 0.76494 0.0
N565 N 0.76042 0.17227 0.13747 0.0
H566 H 0.80711 0.16633 0.98283 0.0
H567 H 0.79657 0.16231 0.08803 0.0
H568 H 0.74808 0.17157 0.18115 0.0
H569 H 0.77419 0.17433 0.17 0.0
H570 H 0.73753 0.17982 0.73259 0.0
H571 H 0.76371 0.17803 0.72165 0.0
H572 H 0.71432 0.16817 0.80937 0.0
H573 H 0.70451 0.16838 0.91823 0.0
C574 C 0.56833 0.97605 0.68439 0.0
C575 C 0.56806 0.97786 0.77989 0.0
C576 C 0.56706 0.01471 0.76752 0.0
C577 C 0.56578 0.01284 0.67216 0.0
N578 N 0.57024 0.99294 0.53865 0.0
N579 N 0.57239 0.99814 0.9123 0.0
C580 C 0.56819 0.99383 0.63023 0.0
C581 C 0.56927 0.99702 0.82138 0.0
N582 N 0.56765 0.95731 0.64591 0.0
N583 N 0.565 0.0333 0.8065 0.0
H584 H 0.57401 0.98527 0.95233 0.0
H585 H 0.57502 0.01155 0.9469 0.0
H586 H 0.56413 0.04661 0.76907 0.0
H587 H 0.5634 0.0356 0.87548 0.0
H588 H 0.56547 0.95479 0.57741 0.0
H589 H 0.56862 0.94403 0.68354 0.0
H590 H 0.57359 0.97981 0.50321 0.0
H591 H 0.5702 0.00589 0.49844 0.0
C592 C 0.75141 0.68436 0.98486 0.0
C593 C 0.73354 0.6878 0.03517 0.0
C594 C 0.75347 0.68971 0.17502 0.0
C595 C 0.77132 0.68982 0.12274 0.0
N596 N 0.78786 0.68734 0.97807 0.0
N597 N 0.71679 0.69134 0.17848 0.0
C598 C 0.77049 0.68662 0.02795 0.0
C599 C 0.73436 0.6895 0.13074 0.0
N600 N 0.7502 0.67938 0.89561 0.0
N601 N 0.75499 0.68977 0.26692 0.0
H602 H 0.70261 0.68957 0.14885 0.0
H603 H 0.71607 0.6949 0.24667 0.0
H604 H 0.76892 0.6897 0.29987 0.0
H605 H 0.74278 0.68841 0.31059 0.0
H606 H 0.76248 0.6745 0.85764 0.0
H607 H 0.73661 0.67848 0.86061 0.0
H608 H 0.78814 0.68804 0.90801 0.0
H609 H 0.80219 0.68836 0.0066 0.0
C610 C 0.56781 0.50903 0.38773 0.0
C611 C 0.56829 0.52666 0.334 0.0
C612 C 0.57453 0.50617 0.19869 0.0
C613 C 0.57033 0.48857 0.24982 0.0
N614 N 0.56562 0.47239 0.39373 0.0
N615 N 0.57253 0.54269 0.18913 0.0
C616 C 0.56805 0.48976 0.34503 0.0
C617 C 0.57234 0.52545 0.24001 0.0
N618 N 0.56707 0.51093 0.47942 0.0
N619 N 0.58014 0.50448 0.11034 0.0
H620 H 0.57164 0.55712 0.21692 0.0
H621 H 0.57257 0.54282 0.119 0.0
H622 H 0.58116 0.4907 0.07696 0.0
H623 H 0.5854 0.51652 0.07182 0.0
H624 H 0.56788 0.49888 0.52426 0.0
H625 H 0.56711 0.52499 0.51118 0.0
H626 H 0.56169 0.47196 0.46157 0.0
H627 H 0.5673 0.45808 0.36518 0.0
C628 C 0.74886 0.32962 0.45216 0.0
C629 C 0.76733 0.32674 0.49812 0.0
C630 C 0.74977 0.32938 0.64355 0.0
C631 C 0.7311 0.3281 0.59772 0.0
N632 N 0.71245 0.32683 0.45745 0.0
N633 N 0.78625 0.3258 0.63671 0.0
C634 C 0.73046 0.32878 0.50168 0.0
C635 C 0.76806 0.32752 0.59379 0.0
N636 N 0.7489 0.33264 0.36104 0.0
N637 N 0.74981 0.33228 0.73474 0.0
H638 H 0.79996 0.32575 0.60202 0.0
H639 H 0.78783 0.32386 0.70594 0.0
H640 H 0.73645 0.33386 0.77148 0.0
H641 H 0.76277 0.3348 0.77267 0.0
H642 H 0.73615 0.33684 0.32454 0.0
H643 H 0.76213 0.33276 0.32292 0.0
H644 H 0.71127 0.32433 0.38838 0.0
H645 H 0.69853 0.32655 0.48993 0.0
C646 C 0.93728 0.50213 0.86458 0.0
C647 C 0.9396 0.48321 0.82175 0.0
C648 C 0.93648 0.4995 0.67328 0.0
C649 C 0.93782 0.51852 0.71585 0.0
N650 N 0.93814 0.53869 0.85091 0.0
N651 N 0.9408 0.46322 0.68584 0.0
C652 C 0.93742 0.52006 0.8114 0.0
C653 C 0.93853 0.48164 0.72615 0.0
N654 N 0.93499 0.50279 0.95609 0.0
N655 N 0.9334 0.49864 0.58228 0.0
H656 H 0.94173 0.44976 0.72207 0.0
H657 H 0.94264 0.46124 0.61678 0.0
H658 H 0.93195 0.51163 0.54286 0.0
H659 H 0.93055 0.48536 0.54711 0.0
H660 H 0.93167 0.51585 0.99205 0.0
H661 H 0.93476 0.48973 0.99556 0.0
H662 H 0.94023 0.54099 0.91961 0.0
H663 H 0.9373 0.55207 0.81392 0.0
C664 C 0.24763 0.31437 0.86288 0.0
C665 C 0.22854 0.31727 0.90374 0.0
C666 C 0.24544 0.32863 0.04305 0.0
C667 C 0.26398 0.32157 0.00809 0.0
N668 N 0.28369 0.30958 0.88247 0.0
N669 N 0.20897 0.32811 0.03342 0.0
C670 C 0.26538 0.31526 0.91675 0.0
C671 C 0.22732 0.32525 0.99316 0.0
N672 N 0.24863 0.311 0.7721 0.0
N673 N 0.24514 0.33821 0.12459 0.0
H674 H 0.19523 0.32631 0.00067 0.0
H675 H 0.20718 0.33108 0.10183 0.0
H676 H 0.25813 0.34035 0.16317 0.0
H677 H 0.23253 0.34561 0.15029 0.0
H678 H 0.26206 0.31032 0.73583 0.0
H679 H 0.23577 0.31079 0.73142 0.0
H680 H 0.28551 0.30237 0.8207 0.0
H681 H 0.29718 0.31155 0.91766 0.0
C682 C 0.44621 0.50269 0.55644 0.0
C683 C 0.4409 0.48402 0.59628 0.0
C684 C 0.43022 0.50194 0.73414 0.0
C685 C 0.43954 0.51969 0.70077 0.0
N686 N 0.45388 0.53826 0.57639 0.0
N687 N 0.42559 0.46577 0.72045 0.0
C688 C 0.44655 0.52049 0.61019 0.0
C689 C 0.43166 0.48367 0.68334 0.0
N690 N 0.45067 0.50323 0.46648 0.0
N691 N 0.42032 0.50249 0.81495 0.0
H692 H 0.42514 0.4522 0.68542 0.0
H693 H 0.4217 0.46399 0.78793 0.0
H694 H 0.41983 0.51532 0.85553 0.0
H695 H 0.41128 0.49084 0.83908 0.0
H696 H 0.4533 0.51642 0.43024 0.0
H697 H 0.44989 0.49036 0.42602 0.0
H698 H 0.46154 0.53951 0.51541 0.0
H699 H 0.45271 0.55194 0.61086 0.0
C700 C 0.2516 0.67465 0.41598 0.0
C701 C 0.2706 0.67556 0.45906 0.0
C702 C 0.25433 0.66965 0.60583 0.0
C703 C 0.23531 0.67256 0.5647 0.0
N704 N 0.2152 0.67709 0.43046 0.0
N705 N 0.29075 0.67291 0.59395 0.0
C706 C 0.23372 0.67433 0.46932 0.0
C707 C 0.27221 0.67227 0.55359 0.0
N708 N 0.2508 0.67418 0.32396 0.0
N709 N 0.25513 0.66456 0.69502 0.0
H710 H 0.30417 0.67412 0.5576 0.0
H711 H 0.2929 0.67303 0.66341 0.0
H712 H 0.2421 0.66259 0.73363 0.0
H713 H 0.26834 0.66063 0.72867 0.0
H714 H 0.23761 0.6718 0.28739 0.0
H715 H 0.26381 0.67437 0.28424 0.0
H716 H 0.21312 0.68109 0.36326 0.0
H717 H 0.20173 0.67621 0.46656 0.0
C718 C 0.08254 0.50382 0.30746 0.0
C719 C 0.07718 0.48517 0.26797 0.0
C720 C 0.07197 0.50189 0.12196 0.0
C721 C 0.07366 0.52082 0.16541 0.0
N722 N 0.08079 0.54036 0.29912 0.0
N723 N 0.06824 0.46555 0.13719 0.0
C724 C 0.07953 0.52197 0.2576 0.0
C725 C 0.07265 0.48391 0.1745 0.0
N726 N 0.09019 0.5041 0.39298 0.0
N727 N 0.06974 0.50128 0.03041 0.0
H728 H 0.0698 0.45202 0.17258 0.0
H729 H 0.06244 0.46367 0.07256 0.0
H730 H 0.06941 0.51437 0.99112 0.0
H731 H 0.06993 0.48805 0.99263 0.0
H732 H 0.0961 0.51695 0.42352 0.0
H733 H 0.09223 0.49095 0.43071 0.0
H734 H 0.08246 0.54219 0.36838 0.0
H735 H 0.07916 0.554 0.26484 0.0
C736 C 0.11261 0.14145 0.02404 0.0
C737 C 0.09685 0.12871 0.05493 0.0
C738 C 0.10708 0.13518 0.2117 0.0
C739 C 0.12053 0.15027 0.18096 0.0
N740 N 0.13627 0.16836 0.05883 0.0
N741 N 0.07763 0.11483 0.17921 0.0
C742 C 0.12352 0.15343 0.08724 0.0
C743 C 0.0939 0.12562 0.14908 0.0
N744 N 0.11731 0.1418 0.93433 0.0
N745 N 0.10682 0.13013 0.30103 0.0
H746 H 0.06734 0.10776 0.1366 0.0
H747 H 0.07332 0.1142 0.24665 0.0
H748 H 0.11613 0.13712 0.34843 0.0
H749 H 0.09885 0.11785 0.32661 0.0
H750 H 0.12977 0.14934 0.90793 0.0
H751 H 0.10973 0.13296 0.88697 0.0
H752 H 0.13732 0.17315 0.99214 0.0
H753 H 0.14519 0.17674 0.10313 0.0
C754 C 0.12696 0.8582 0.36757 0.0
C755 C 0.12086 0.85664 0.27575 0.0
C756 C 0.09149 0.87815 0.3065 0.0
C757 C 0.09739 0.87935 0.3985 0.0
N758 N 0.12301 0.87498 0.512 0.0
N759 N 0.10033 0.8685 0.15319 0.0
C760 C 0.116 0.871 0.42719 0.0
C761 C 0.10405 0.86775 0.24379 0.0
N762 N 0.14218 0.84624 0.39984 0.0
N763 N 0.07364 0.88663 0.27972 0.0
H764 H 0.10949 0.86117 0.10622 0.0
H765 H 0.08938 0.87765 0.12379 0.0
H766 H 0.06482 0.89554 0.32227 0.0
H767 H 0.06715 0.88428 0.21671 0.0
H768 H 0.14554 0.84474 0.46808 0.0
H769 H 0.15064 0.83653 0.35957 0.0
H770 H 0.13747 0.87119 0.53366 0.0
H771 H 0.11501 0.88363 0.55856 0.0
C772 C 0.38341 0.85892 0.5376 0.0
C773 C 0.3994 0.87191 0.56298 0.0
C774 C 0.39103 0.8665 0.72277 0.0
C775 C 0.37742 0.85103 0.69746 0.0
N776 N 0.3607 0.83188 0.58081 0.0
N777 N 0.41914 0.88788 0.67992 0.0
C778 C 0.37331 0.84731 0.6048 0.0
C779 C 0.40317 0.87598 0.65567 0.0
N780 N 0.37782 0.85787 0.44905 0.0
N781 N 0.39218 0.87218 0.81118 0.0
H782 H 0.42814 0.8955 0.63345 0.0
H783 H 0.42429 0.88928 0.74591 0.0
H784 H 0.38338 0.86549 0.86132 0.0
H785 H 0.40033 0.88465 0.83355 0.0
H786 H 0.36507 0.85019 0.42649 0.0
H787 H 0.38494 0.86631 0.39886 0.0
H788 H 0.35912 0.82668 0.51498 0.0
H789 H 0.35259 0.82336 0.62747 0.0
C790 C 0.368 0.14967 0.8803 0.0
C791 C 0.37058 0.14671 0.78584 0.0
C792 C 0.39334 0.11821 0.81581 0.0
C793 C 0.39088 0.12138 0.91 0.0
N794 N 0.37198 0.13609 0.0314 0.0
N795 N 0.38177 0.1257 0.6637 0.0
C796 C 0.37685 0.13578 0.94188 0.0
C797 C 0.38198 0.13012 0.75366 0.0
N798 N 0.3584 0.16654 0.91172 0.0
N799 N 0.40731 0.10461 0.78573 0.0
H800 H 0.37352 0.13419 0.61722 0.0
H801 H 0.38822 0.11276 0.63627 0.0
H802 H 0.41534 0.09512 0.82883 0.0
H803 H 0.41174 0.10339 0.71862 0.0
H804 H 0.35833 0.17077 0.97932 0.0
H805 H 0.35177 0.1773 0.86997 0.0
H806 H 0.36036 0.14485 0.05802 0.0
H807 H 0.37827 0.12602 0.0777 0.0
C808 C 0.88576 0.86451 0.98436 0.0
C809 C 0.89491 0.88301 0.95947 0.0
C810 C 0.88209 0.87881 0.80485 0.0
C811 C 0.87621 0.85877 0.82636 0.0
N812 N 0.87211 0.83233 0.93688 0.0
N813 N 0.892 0.91181 0.86051 0.0
C814 C 0.8777 0.85166 0.91658 0.0
C815 C 0.8902 0.89149 0.87382 0.0
N816 N 0.88368 0.85992 0.0737 0.0
N817 N 0.88085 0.88538 0.71766 0.0
H818 H 0.89482 0.92182 0.91308 0.0
H819 H 0.88764 0.91911 0.80145 0.0
H820 H 0.87459 0.87667 0.66617 0.0
H821 H 0.88721 0.89883 0.69509 0.0
H822 H 0.87569 0.84749 0.09756 0.0
H823 H 0.88777 0.87009 0.12428 0.0
H824 H 0.87515 0.82539 -0.00157 0.0
H825 H 0.86548 0.82273 0.88997 0.0
C826 C 0.88427 0.1352 0.73395 0.0
C827 C 0.87121 0.15051 0.70112 0.0
C828 C 0.87707 0.13864 0.5459 0.0
C829 C 0.89262 0.12592 0.57786 0.0
N830 N 0.91078 0.11092 0.70131 0.0
N831 N 0.85544 0.16734 0.5742 0.0
C832 C 0.89595 0.12365 0.67184 0.0
C833 C 0.86731 0.15211 0.60674 0.0
N834 N 0.88511 0.13149 0.82453 0.0
N835 N 0.87166 0.13775 0.45706 0.0
H836 H 0.84771 0.17748 0.61505 0.0
H837 H 0.85422 0.17087 0.50604 0.0
H838 H 0.87871 0.12806 0.41136 0.0
H839 H 0.85906 0.14505 0.43054 0.0
H840 H 0.89297 0.11947 0.85302 0.0
H841 H 0.87638 0.13946 0.87103 0.0
H842 H 0.91592 0.11039 0.76757 0.0
H843 H 0.91849 0.10124 0.65791 0.0
C844 C 0.58775 0.12615 0.32448 0.0
C845 C 0.59539 0.11991 0.40961 0.0
C846 C 0.62839 0.13451 0.37257 0.0
C847 C 0.6207 0.14071 0.28722 0.0
N848 N 0.59516 0.13787 0.17292 0.0
N849 N 0.62386 0.11386 0.50663 0.0
C850 C 0.60101 0.13502 0.26039 0.0
C851 C 0.61608 0.12254 0.43061 0.0
N852 N 0.56763 0.12414 0.30585 0.0
N853 N 0.64681 0.14127 0.40121 0.0
H854 H 0.61506 0.10558 0.55177 0.0
H855 H 0.63924 0.11342 0.52106 0.0
H856 H 0.65635 0.15007 0.36164 0.0
H857 H 0.6521 0.13936 0.46676 0.0
H858 H 0.56067 0.13054 0.2498 0.0
H859 H 0.55755 0.11707 0.34957 0.0
H860 H 0.5817 0.13237 0.14637 0.0
H861 H 0.60476 0.14405 0.1244 0.0
C862 C 0.61897 0.85166 0.02708 0.0
C863 C 0.60601 0.86736 0.05614 0.0
C864 C 0.61756 0.86222 0.21193 0.0
C865 C 0.62765 0.84434 0.18491 0.0
N866 N 0.63658 0.82088 0.06625 0.0
N867 N 0.59166 0.88689 0.17796 0.0
C868 C 0.62831 0.8389 0.09209 0.0
C869 C 0.60519 0.87272 0.1489 0.0
N870 N 0.6224 0.84904 0.93699 0.0
N871 N 0.62001 0.86924 0.29783 0.0
H872 H 0.58236 0.89505 0.13459 0.0
H873 H 0.5886 0.88956 0.24577 0.0
H874 H 0.62917 0.86196 0.34497 0.0
H875 H 0.61466 0.88321 0.31947 0.0
H876 H 0.63321 0.83916 0.91148 0.0
H877 H 0.61582 0.85828 0.88807 0.0
H878 H 0.63517 0.81502 0.00143 0.0
H879 H 0.64352 0.8109 0.11076 0.0
C880 C 0.61411 0.64688 0.49533 0.0
C881 C 0.5983 0.63389 0.52363 0.0
C882 C 0.60848 0.63883 0.68157 0.0
C883 C 0.62207 0.6541 0.65389 0.0
N884 N 0.6378 0.67339 0.53544 0.0
N885 N 0.57884 0.6191 0.645 0.0
C886 C 0.62504 0.65819 0.56087 0.0
C887 C 0.59525 0.62998 0.61709 0.0
N888 N 0.61885 0.64809 0.4058 0.0
N889 N 0.60815 0.6329 0.76983 0.0
H890 H 0.56845 0.61262 0.60097 0.0
H891 H 0.57451 0.61786 0.71224 0.0
H892 H 0.6175 0.63934 0.81861 0.0
H893 H 0.60007 0.62045 0.79292 0.0
H894 H 0.63134 0.65586 0.38102 0.0
H895 H 0.61127 0.63976 0.35665 0.0
H896 H 0.63883 0.67885 0.46978 0.0
H897 H 0.64671 0.68133 0.58137 0.0
C898 C 0.61984 0.36733 0.90954 0.0
C899 C 0.60285 0.37822 0.87849 0.0
C900 C 0.60975 0.36694 0.72365 0.0
C901 C 0.62455 0.3534 0.7572 0.0
N902 N 0.64196 0.33883 0.88555 0.0
N903 N 0.58122 0.38877 0.75671 0.0
C904 C 0.62947 0.35334 0.85082 0.0
C905 C 0.59779 0.37828 0.78545 0.0
N906 N 0.62654 0.37007 0.9958 0.0
N907 N 0.60739 0.36909 0.63262 0.0
H908 H 0.57284 0.3981 0.79928 0.0
H909 H 0.57521 0.38755 0.69209 0.0
H910 H 0.61619 0.36116 0.58621 0.0
H911 H 0.59813 0.37993 0.60309 0.0
H912 H 0.64011 0.36417 0.01961 0.0
H913 H 0.61949 0.37983 0.04109 0.0
H914 H 0.64404 0.33659 0.95441 0.0
H915 H 0.64893 0.32772 0.84689 0.0
C916 C 0.89462 0.37184 0.19779 0.0
C917 C 0.88118 0.35738 0.16123 0.0
C918 C 0.89099 0.36742 0.00781 0.0
C919 C 0.9066 0.37948 0.04451 0.0
N920 N 0.92414 0.39286 0.17414 0.0
N921 N 0.86572 0.34146 0.03232 0.0
C922 C 0.90841 0.38196 0.13947 0.0
C923 C 0.87899 0.35534 0.06632 0.0
N924 N 0.89433 0.37568 0.28829 0.0
N925 N 0.88749 0.36789 0.91698 0.0
H926 H 0.85565 0.3334 0.07268 0.0
H927 H 0.86517 0.33729 0.96474 0.0
H928 H 0.89596 0.37683 0.87304 0.0
H929 H 0.87526 0.36092 0.88595 0.0
H930 H 0.90227 0.38746 0.31832 0.0
H931 H 0.8848 0.36807 0.33279 0.0
H932 H 0.92784 0.39314 0.2423 0.0
H933 H 0.93441 0.40074 0.1342 0.0
C934 C 0.90427 0.66703 0.3277 0.0
C935 C 0.88506 0.66085 0.2953 0.0
C936 C 0.8864 0.63205 0.40018 0.0
C937 C 0.90682 0.63679 0.42138 0.0
N938 N 0.93681 0.65511 0.37542 0.0
N939 N 0.85985 0.6345 0.28816 0.0
C940 C 0.91628 0.65313 0.37601 0.0
C941 C 0.87665 0.64246 0.32781 0.0
N942 N 0.91078 0.68649 0.3178 0.0
N943 N 0.87595 0.61839 0.4509 0.0
H944 H 0.85289 0.64106 0.23235 0.0
H945 H 0.85423 0.62025 0.30444 0.0
H946 H 0.88209 0.61121 0.50705 0.0
H947 H 0.86052 0.61588 0.44293 0.0
H948 H 0.92416 0.69167 0.3468 0.0
H949 H 0.90172 0.69803 0.2924 0.0
H950 H 0.94414 0.66613 0.33723 0.0
H951 H 0.94651 0.6443 0.40249 0.0
C952 C 0.41185 0.38235 0.32521 0.0
C953 C 0.40709 0.38381 0.41864 0.0
C954 C 0.37693 0.36296 0.39546 0.0
C955 C 0.38193 0.36116 0.30265 0.0
N956 N 0.40085 0.37276 0.17472 0.0
N957 N 0.3828 0.3801 0.53787 0.0
C958 C 0.39833 0.37213 0.26611 0.0
C959 C 0.38883 0.37558 0.45211 0.0
N960 N 0.42987 0.38958 0.29383 0.0
N961 N 0.36145 0.35176 0.43042 0.0
H962 H 0.39118 0.38948 0.58029 0.0
H963 H 0.36875 0.3762 0.56404 0.0
H964 H 0.35199 0.34283 0.39085 0.0
H965 H 0.35863 0.35038 0.49919 0.0
H966 H 0.43536 0.3867 0.22936 0.0
H967 H 0.44009 0.39747 0.33384 0.0
H968 H 0.41131 0.38203 0.14253 0.0
H969 H 0.39114 0.36531 0.13041 0.0
C970 C 0.38332 0.62557 0.08259 0.0
C971 C 0.40291 0.6319 0.05473 0.0
C972 C 0.40008 0.66099 0.15506 0.0
C973 C 0.38215 0.65309 0.19411 0.0
N974 N 0.35938 0.62463 0.20609 0.0
N975 N 0.43239 0.65173 0.09478 0.0
C976 C 0.37449 0.6344 0.16122 0.0
C977 C 0.41208 0.64839 0.10017 0.0
N978 N 0.37269 0.6119 0.03276 0.0
N979 N 0.40527 0.68083 0.16509 0.0
H980 H 0.44233 0.64173 0.06355 0.0
H981 H 0.43957 0.66294 0.13237 0.0
H982 H 0.39583 0.69151 0.19478 0.0
H983 H 0.41766 0.68716 0.132 0.0
H984 H 0.3577 0.60825 0.04654 0.0
H985 H 0.37796 0.60597 0.97216 0.0
H986 H 0.35455 0.61017 0.18863 0.0
H987 H 0.35336 0.62987 0.2666 0.0
C988 C 0.11152 0.62789 0.75977 0.0
C989 C 0.12631 0.64217 0.78591 0.0
C990 C 0.1208 0.63316 0.94494 0.0
C991 C 0.10377 0.6216 0.91961 0.0
N992 N 0.08218 0.6082 0.80288 0.0
N993 N 0.14413 0.65977 0.9048 0.0
C994 C 0.09913 0.61869 0.82685 0.0
C995 C 0.13102 0.64492 0.87883 0.0
N996 N 0.10943 0.62314 0.67065 0.0
N997 N 0.12719 0.63283 0.03251 0.0
H998 H 0.15202 0.66886 0.85961 0.0
H999 H 0.14611 0.66418 0.97159 0.0
H1000 H 0.11995 0.62428 0.08205 0.0
H1001 H 0.14068 0.63931 0.05403 0.0
H1002 H 0.10025 0.61151 0.64722 0.0
H1003 H 0.11839 0.62968 0.62064 0.0
H1004 H 0.07657 0.60771 0.73738 0.0
H1005 H 0.07293 0.6009 0.84942 0.0
C1006 C 0.12382 0.36577 0.72794 0.0
C1007 C 0.13266 0.34706 0.70362 0.0
C1008 C 0.12533 0.35416 0.5441 0.0
C1009 C 0.11366 0.37108 0.57014 0.0
N1010 N 0.10064 0.39264 0.68787 0.0
N1011 N 0.14036 0.32237 0.58822 0.0
C1012 C 0.11284 0.37701 0.66223 0.0
C1013 C 0.13334 0.34109 0.6114 0.0
N1014 N 0.12622 0.37293 0.81366 0.0
N1015 N 0.12887 0.35071 0.45465 0.0
H1016 H 0.1463 0.31213 0.6344 0.0
H1017 H 0.13883 0.31626 0.52393 0.0
H1018 H 0.12324 0.36014 0.40411 0.0
H1019 H 0.13892 0.33983 0.4311 0.0
H1020 H 0.12188 0.38736 0.83361 0.0
H1021 H 0.13434 0.3651 0.86282 0.0
H1022 H 0.09734 0.39598 0.75486 0.0
H1023 H 0.09271 0.40157 0.64218 0.0
C1024 C 0.18787 0.2494 0.17558 0.0
C1025 C 0.17086 0.24429 0.22861 0.0
C1026 C 0.15164 0.27236 0.16288 0.0
C1027 C 0.16835 0.27679 0.10663 0.0
N1028 N 0.20443 0.27528 0.08734 0.0
N1029 N 0.14025 0.25606 0.29993 0.0
C1030 C 0.18724 0.26735 0.1237 0.0
C1031 C 0.15392 0.2575 0.23121 0.0
N1032 N 0.20394 0.23655 0.16874 0.0
N1033 N 0.13332 0.28124 0.14835 0.0
H1034 H 0.14203 0.24596 0.35337 0.0
H1035 H 0.12856 0.26638 0.30929 0.0
H1036 H 0.13106 0.29285 0.10223 0.0
H1037 H 0.12012 0.27639 0.17982 0.0
H1038 H 0.21568 0.23873 0.12299 0.0
H1039 H 0.20479 0.22281 0.20262 0.0
H1040 H 0.21884 0.27007 0.1032 0.0
H1041 H 0.20419 0.28841 0.04862 0.0
C1042 C 0.9808 0.94189 0.34114 0.0
C1043 C 0.97165 0.92281 0.32513 0.0
C1044 C 0.98967 0.90933 0.45543 0.0
C1045 C 0.00262 0.92643 0.45371 0.0
N1046 N 0.0106 0.95938 0.39337 0.0
N1047 N 0.9672 0.88794 0.36983 0.0
C1048 C 0.99797 0.94309 0.39781 0.0
C1049 C 0.97561 0.90648 0.38436 0.0
N1050 N 0.97327 0.95873 0.30007 0.0
N1051 N 0.99075 0.89595 0.52545 0.0
H1052 H 0.95642 0.88516 0.32041 0.0
H1053 H 0.97177 0.87499 0.4042 0.0
H1054 H 1.00045 0.89807 0.5801 0.0
H1055 H 0.98054 0.88414 0.5342 0.0
H1056 H 0.97815 0.97331 0.31485 0.0
H1057 H 0.9607 0.9581 0.25804 0.0
H1058 H 0.00901 0.97083 0.34573 0.0
H1059 H 0.02359 0.96077 0.4324 0.0
C1060 C 0.33864 0.71999 0.67904 0.0
C1061 C 0.35115 0.71985 0.60192 0.0
C1062 C 0.35906 0.75559 0.62295 0.0
C1063 C 0.34587 0.75602 0.69829 0.0
N1064 N 0.32796 0.73759 0.8141 0.0
N1065 N 0.37785 0.73514 0.51617 0.0
C1066 C 0.33714 0.73787 0.73152 0.0
C1067 C 0.3631 0.73686 0.58006 0.0
N1068 N 0.32762 0.70318 0.69946 0.0
N1069 N 0.36677 0.7732 0.58919 0.0
H1070 H 0.38099 0.7215 0.48399 0.0
H1071 H 0.3882 0.74651 0.50173 0.0
H1072 H 0.36387 0.78727 0.61781 0.0
H1073 H 0.37467 0.77413 0.52868 0.0
H1074 H 0.31617 0.70292 0.74751 0.0
H1075 H 0.32971 0.68957 0.66516 0.0
H1076 H 0.32299 0.72442 0.84537 0.0
H1077 H 0.32686 0.75031 0.85524 0.0
C1078 C 0.5025 0.10349 0.7736 0.0
C1079 C 0.52092 0.09441 0.79978 0.0
C1080 C 0.5047 0.08064 0.93459 0.0
C1081 C 0.48562 0.08628 0.89857 0.0
N1082 N 0.46599 0.10249 0.78214 0.0
N1083 N 0.54031 0.07494 0.905 0.0
C1084 C 0.48442 0.09786 0.81826 0.0
C1085 C 0.52229 0.08341 0.8812 0.0
N1086 N 0.50236 0.11701 0.70399 0.0
N1087 N 0.50606 0.07322 0.02043 0.0
H1088 H 0.55357 0.07787 0.86915 0.0
H1089 H 0.54195 0.06461 0.95745 0.0
H1090 H 0.49351 0.07112 0.06193 0.0
H1091 H 0.51972 0.07074 0.05329 0.0
H1092 H 0.48973 0.1254 0.68552 0.0
H1093 H 0.51552 0.12126 0.67038 0.0
H1094 H 0.46409 0.10901 0.71884 0.0
H1095 H 0.45241 0.09826 0.81222 0.0
C1096 C 0.16777 0.74826 0.49262 0.0
C1097 C 0.16051 0.72966 0.45593 0.0
C1098 C 0.15188 0.74712 0.31622 0.0
C1099 C 0.16203 0.76477 0.34827 0.0
N1100 N 0.18104 0.78169 0.46426 0.0
N1101 N 0.14818 0.7108 0.32872 0.0
C1102 C 0.17048 0.76515 0.43548 0.0
C1103 C 0.15307 0.72894 0.36684 0.0
N1104 N 0.17124 0.75013 0.58315 0.0
N1105 N 0.14098 0.74761 0.23796 0.0
H1106 H 0.14897 0.69716 0.36368 0.0
H1107 H 0.14504 0.70905 0.26036 0.0
H1108 H 0.13999 0.76018 0.19613 0.0
H1109 H 0.13152 0.7359 0.2177 0.0
H1110 H 0.17422 0.76386 0.61461 0.0
H1111 H 0.16907 0.73846 0.62904 0.0
H1112 H 0.18985 0.78172 0.52243 0.0
H1113 H 0.18207 0.79505 0.42727 0.0
C1114 C 0.49528 0.88532 0.64804 0.0
C1115 C 0.49564 0.89784 0.57046 0.0
C1116 C 0.53221 0.90216 0.58558 0.0
C1117 C 0.53157 0.89072 0.66596 0.0
N1118 N 0.51458 0.86637 0.75873 0.0
N1119 N 0.51495 0.91291 0.44961 0.0
C1120 C 0.51377 0.88039 0.69128 0.0
C1121 C 0.51431 0.90461 0.53401 0.0
N1122 N 0.47723 0.87908 0.68306 0.0
N1123 N 0.54982 0.91142 0.56153 0.0
H1124 H 0.50214 0.91481 0.40957 0.0
H1125 H 0.52832 0.91636 0.4161 0.0
H1126 H 0.56328 0.90881 0.59636 0.0
H1127 H 0.55095 0.922 0.50985 0.0
H1128 H 0.47579 0.87177 0.74485 0.0
H1129 H 0.46339 0.8825 0.65334 0.0
H1130 H 0.50251 0.85714 0.77664 0.0
H1131 H 0.52807 0.86261 0.79091 0.0
C1132 C 0.35865 0.25768 0.83237 0.0
C1133 C 0.3498 0.23961 0.86748 0.0
C1134 C 0.34203 0.25674 0.00779 0.0
C1135 C 0.35137 0.27468 0.97449 0.0
N1136 N 0.37259 0.29086 0.86501 0.0
N1137 N 0.33947 0.22045 0.99742 0.0
C1138 C 0.36123 0.27461 0.8903 0.0
C1139 C 0.3436 0.23867 0.95816 0.0
N1140 N 0.36321 0.25933 0.74276 0.0
N1141 N 0.33065 0.25709 0.08453 0.0
H1142 H 0.34083 0.2068 0.96298 0.0
H1143 H 0.33688 0.21876 0.06633 0.0
H1144 H 0.32929 0.26973 0.12532 0.0
H1145 H 0.32144 0.24514 0.1046 0.0
H1146 H 0.36733 0.2729 0.71236 0.0
H1147 H 0.36134 0.24773 0.69635 0.0
H1148 H 0.38177 0.29094 0.80798 0.0
H1149 H 0.37423 0.30359 0.90579 0.0
C1150 C 0.9996 0.119 0.1548 0.0
C1151 C 0.99983 0.10642 0.07756 0.0
C1152 C 0.96337 0.10118 0.08956 0.0
C1153 C 0.96368 0.11157 0.17265 0.0
N1154 N 0.97932 0.13627 0.26782 0.0
N1155 N 0.9815 0.09097 0.9549 0.0
C1156 C 0.9809 0.12273 0.19882 0.0
C1157 C 0.98149 0.09935 0.03915 0.0
N1158 N 0.01732 0.12644 0.18837 0.0
N1159 N 0.94594 0.09191 0.06308 0.0
H1160 H 0.9946 0.0893 0.91657 0.0
H1161 H 0.96845 0.08706 0.92002 0.0
H1162 H 0.93244 0.09395 0.09835 0.0
H1163 H 0.94493 0.08194 0.00905 0.0
H1164 H 0.01851 0.13399 0.24962 0.0
H1165 H 0.0312 0.12416 0.15672 0.0
H1166 H 0.99092 0.14588 0.28769 0.0
H1167 H 0.96557 0.13917 0.29957 0.0
C1168 C 0.84472 0.76785 0.88842 0.0
C1169 C 0.83559 0.76472 0.80335 0.0
C1170 C 0.83307 0.72846 0.83627 0.0
C1171 C 0.84373 0.73171 0.91758 0.0
N1172 N 0.86485 0.75332 0.0076 0.0
N1173 N 0.82499 0.74127 0.68746 0.0
C1174 C 0.85146 0.75103 0.93834 0.0
C1175 C 0.83085 0.74478 0.77433 0.0
N1176 N 0.84576 0.78681 0.92424 0.0
N1177 N 0.82471 0.71001 0.81954 0.0
H1178 H 0.82357 0.75271 0.63956 0.0
H1179 H 0.8232 0.72682 0.66097 0.0
H1180 H 0.82709 0.69765 0.86198 0.0
H1181 H 0.81477 0.70733 0.76648 0.0
H1182 H 0.85079 0.78968 0.98955 0.0
H1183 H 0.83922 0.79929 0.8927 0.0
H1184 H 0.87206 0.76696 0.02162 0.0
H1185 H 0.87025 0.74105 0.04455 0.0
C1186 C 0.00235 0.10383 0.6996 0.0
C1187 C 0.02127 0.09509 0.67901 0.0
C1188 C 0.00689 0.0801 0.54249 0.0
C1189 C 0.9873 0.0861 0.57168 0.0
N1190 N 0.96617 0.1004 0.68779 0.0
N1191 N 0.04172 0.07374 0.58529 0.0
C1192 C 0.98499 0.0972 0.65274 0.0
C1193 C 0.02363 0.08295 0.60133 0.0
N1194 N 1.00096 0.11808 0.76589 0.0
N1195 N 0.00968 0.07253 0.45774 0.0
H1196 H 0.05446 0.07657 0.62474 0.0
H1197 H 0.04375 0.06272 0.53602 0.0
H1198 H 0.99795 0.07061 0.41173 0.0
H1199 H 0.0239 0.0698 0.4303 0.0
H1200 H 0.98781 0.12619 0.77908 0.0
H1201 H 0.01354 0.12321 0.80146 0.0
H1202 H 0.96367 0.10675 0.75104 0.0
H1203 H 0.95316 0.09457 0.65816 0.0
C1204 C 0.67618 0.2467 0.48806 0.0
C1205 C 0.66709 0.26478 0.45399 0.0
C1206 C 0.66003 0.24739 0.31285 0.0
C1207 C 0.67199 0.2307 0.34201 0.0
N1208 N 0.69403 0.21582 0.45259 0.0
N1209 N 0.65417 0.2833 0.32633 0.0
C1210 C 0.6811 0.2309 0.42772 0.0
C1211 C 0.66007 0.26544 0.36414 0.0
N1212 N 0.6788 0.2439 0.57869 0.0
N1213 N 0.64809 0.24595 0.23801 0.0
H1214 H 0.6546 0.297 0.3609 0.0
H1215 H 0.65088 0.28481 0.25793 0.0
H1216 H 0.64714 0.23301 0.19842 0.0
H1217 H 0.63769 0.25704 0.2199 0.0
H1218 H 0.68354 0.23024 0.6065 0.0
H1219 H 0.6739 0.25411 0.62729 0.0
H1220 H 0.70267 0.21642 0.51127 0.0
H1221 H 0.6974 0.20358 0.41096 0.0
C1222 C 0.49299 0.88403 0.19339 0.0
C1223 C 0.47483 0.89383 0.16878 0.0
C1224 C 0.49129 0.90777 0.03488 0.0
C1225 C 0.51024 0.90124 0.06937 0.0
N1226 N 0.52951 0.88392 0.18381 0.0
N1227 N 0.456 0.91467 0.06678 0.0
C1228 C 0.51119 0.88927 0.14859 0.0
C1229 C 0.47372 0.90536 0.08876 0.0
N1230 N 0.4928 0.87019 0.26172 0.0
N1231 N 0.49001 0.91567 0.94989 0.0
H1232 H 0.44269 0.91202 0.10268 0.0
H1233 H 0.45469 0.92544 0.01591 0.0
H1234 H 0.5025 0.91743 0.90779 0.0
H1235 H 0.47636 0.91887 0.91809 0.0
H1236 H 0.50517 0.86128 0.27888 0.0
H1237 H 0.47955 0.86624 0.29547 0.0
H1238 H 0.53127 0.87705 0.24646 0.0
H1239 H 0.5432 0.88788 0.15394 0.0
C1240 C 0.8549 0.25824 0.48693 0.0
C1241 C 0.85819 0.27777 0.52503 0.0
C1242 C 0.85458 0.26351 0.67661 0.0
C1243 C 0.85129 0.24412 0.63802 0.0
N1244 N 0.85448 0.22207 0.51014 0.0
N1245 N 0.86639 0.29791 0.65428 0.0
C1246 C 0.85351 0.24119 0.54434 0.0
C1247 C 0.8599 0.27995 0.61957 0.0
N1248 N 0.85146 0.25597 0.39677 0.0
N1249 N 0.85147 0.26649 0.76678 0.0
H1250 H 0.8704 0.31005 0.61301 0.0
H1251 H 0.86966 0.30011 0.72222 0.0
H1252 H 0.84728 0.25496 0.81089 0.0
H1253 H 0.8515 0.28068 0.79696 0.0
H1254 H 0.84604 0.24267 0.36814 0.0
H1255 H 0.85265 0.26764 0.35072 0.0
H1256 H 0.85832 0.21894 0.44347 0.0
H1257 H 0.85346 0.20928 0.55072 0.0
C1258 C 0.48404 0.10379 0.26713 0.0
C1259 C 0.46527 0.09637 0.29829 0.0
C1260 C 0.48159 0.08385 0.43531 0.0
C1261 C 0.50071 0.08766 0.39516 0.0
N1262 N 0.52035 0.09959 0.2693 0.0
N1263 N 0.44552 0.07973 0.41148 0.0
C1264 C 0.50203 0.09747 0.31056 0.0
C1265 C 0.46381 0.08681 0.38322 0.0
N1266 N 0.48456 0.11615 0.19343 0.0
N1267 N 0.48043 0.07771 0.52318 0.0
H1268 H 0.43226 0.08268 0.37572 0.0
H1269 H 0.44365 0.07043 0.46749 0.0
H1270 H 0.49315 0.07514 0.56305 0.0
H1271 H 0.46689 0.07664 0.55856 0.0
H1272 H 0.49762 0.12327 0.17068 0.0
H1273 H 0.47142 0.12081 0.16062 0.0
H1274 H 0.52212 0.10495 0.20379 0.0
H1275 H 0.53366 0.09403 0.29744 0.0
C1276 C 0.64337 0.72771 0.23277 0.0
C1277 C 0.63798 0.74678 0.19621 0.0
C1278 C 0.62059 0.72992 0.07212 0.0
C1279 C 0.63126 0.7121 0.0937 0.0
N1280 N 0.64744 0.69164 0.20472 0.0
N1281 N 0.61892 0.76635 0.08875 0.0
C1282 C 0.64031 0.71013 0.17948 0.0
C1283 C 0.62537 0.74798 0.11918 0.0
N1284 N 0.6517 0.72662 0.31693 0.0
N1285 N 0.60644 0.7295 0.00544 0.0
H1286 H 0.62165 0.77972 0.12381 0.0
H1287 H 0.61163 0.76844 0.02728 0.0
H1288 H 0.60234 0.71602 0.97394 0.0
H1289 H 0.59734 0.74176 0.98877 0.0
H1290 H 0.65514 0.71316 0.34965 0.0
H1291 H 0.65401 0.73938 0.35689 0.0
H1292 H 0.65595 0.68893 0.26242 0.0
H1293 H 0.64474 0.67886 0.1652 0.0
C1294 C 0.03177 0.89146 0.90655 0.0
C1295 C 0.0299 0.88476 0.81662 0.0
C1296 C 0.99324 0.88281 0.83173 0.0
C1297 C 0.9949 0.89251 0.91642 0.0
N1298 N 0.01518 0.9003 0.04717 0.0
N1299 N 0.0107 0.86547 0.71006 0.0
C1300 C 0.01405 0.89469 0.95865 0.0
C1301 C 0.01118 0.87728 0.78532 0.0
N1302 N 0.05053 0.89626 0.93814 0.0
N1303 N 0.97465 0.87972 0.79437 0.0
H1304 H 0.02389 0.86083 0.67778 0.0
H1305 H 0.99766 0.8586 0.68571 0.0
H1306 H 0.96127 0.88304 0.82848 0.0
H1307 H 0.97248 0.87476 0.7285 0.0
H1308 H 0.05328 0.90335 -0.00052 0.0
H1309 H 0.06347 0.8933 0.90007 0.0
H1310 H 0.02857 0.90088 0.08367 0.0
H1311 H 0.00242 0.90311 0.08641 0.0
C1312 C 0.68412 0.77405 0.62649 0.0
C1313 C 0.66457 0.78063 0.60113 0.0
C1314 C 0.65046 0.76022 0.72266 0.0
C1315 C 0.66891 0.74926 0.72724 0.0
N1316 N 0.70393 0.74611 0.68245 0.0
N1317 N 0.62875 0.78127 0.63107 0.0
C1318 C 0.68616 0.75657 0.68096 0.0
C1319 C 0.64762 0.77453 0.65245 0.0
N1320 N 0.70062 0.78409 0.59448 0.0
N1321 N 0.63582 0.75708 0.78605 0.0
H1322 H 0.62613 0.79257 0.58376 0.0
H1323 H 0.61564 0.7751 0.65843 0.0
H1324 H 0.63785 0.74729 0.8405 0.0
H1325 H 0.62275 0.76578 0.79028 0.0
H1326 H 0.71532 0.78101 0.61533 0.0
H1327 H 0.69913 0.79692 0.55409 0.0
H1328 H 0.7162 0.74979 0.64165 0.0
H1329 H 0.70603 0.73281 0.71867 0.0
C1330 C 0.48478 0.44161 0.83257 0.0
C1331 C 0.47661 0.42229 0.81285 0.0
C1332 C 0.49575 0.40837 0.93891 0.0
C1333 C 0.5079 0.42607 0.93956 0.0
N1334 N 0.51394 0.45999 0.88538 0.0
N1335 N 0.4736 0.38696 0.85155 0.0
C1336 C 0.50214 0.44308 0.88784 0.0
C1337 C 0.48146 0.40562 0.86866 0.0
N1338 N 0.47626 0.45841 0.79526 0.0
N1339 N 0.4978 0.39435 0.00594 0.0
H1340 H 0.46244 0.38437 0.80359 0.0
H1341 H 0.47882 0.37385 0.8827 0.0
H1342 H 0.50767 0.39633 0.06009 0.0
H1343 H 0.4882 0.38199 0.0131 0.0
H1344 H 0.48041 0.47308 0.8126 0.0
H1345 H 0.46362 0.45747 0.7537 0.0
H1346 H 0.51148 0.47186 0.84056 0.0
H1347 H 0.52716 0.4616 0.92269 0.0
C1348 C 0.81274 0.25335 0.14795 0.0
C1349 C 0.82943 0.26608 0.16698 0.0
C1350 C 0.85147 0.24418 0.07635 0.0
C1351 C 0.83492 0.23119 0.05985 0.0
N1352 N 0.80141 0.22031 0.09851 0.0
N1353 N 0.86601 0.26944 0.17318 0.0
C1354 C 0.81611 0.23474 0.10264 0.0
C1355 C 0.84921 0.26023 0.13871 0.0
N1356 N 0.79355 0.25953 0.1677 0.0
N1357 N 0.869 0.24213 0.02854 0.0
H1358 H 0.86558 0.28088 0.22112 0.0
H1359 H 0.88059 0.26412 0.16166 0.0
H1360 H 0.87166 0.2304 0.98336 0.0
H1361 H 0.88039 0.25298 0.02898 0.0
H1362 H 0.78071 0.25173 0.1471 0.0
H1363 H 0.79031 0.27345 0.19707 0.0
H1364 H 0.78795 0.22112 0.13461 0.0
H1365 H 0.80369 0.20655 0.06583 0.0
C1366 C 0.01557 0.58637 0.46108 0.0
C1367 C 0.99698 0.595 0.43246 0.0
C1368 C 0.0147 0.61292 0.3117 0.0
C1369 C 0.03209 0.60114 0.32891 0.0
N1370 N 0.04979 0.57697 0.41974 0.0
N1371 N 0.97838 0.61531 0.32557 0.0
C1372 C 0.03282 0.58817 0.40457 0.0
C1373 C 0.99645 0.60826 0.35726 0.0
N1374 N 0.01688 0.57701 0.54301 0.0
N1375 N 0.01555 0.62806 0.24924 0.0
H1376 H 0.96454 0.61151 0.35451 0.0
H1377 H 0.97687 0.62335 0.26561 0.0
H1378 H 0.02882 0.63163 0.21485 0.0
H1379 H 0.00386 0.6383 0.23848 0.0
H1380 H 0.03045 0.57209 0.57083 0.0
H1381 H 0.00466 0.57573 0.58703 0.0
H1382 H 0.05054 0.56527 0.46657 0.0
H1383 H 0.06295 0.57907 0.38213 0.0
C1384 C 0.65947 0.26339 0.94357 0.0
C1385 C 0.65266 0.2622 0.8538 0.0
C1386 C 0.6427 0.22681 0.87858 0.0
C1387 C 0.65317 0.22711 0.96128 0.0
N1388 N 0.67387 0.24553 0.06882 0.0
N1389 N 0.63932 0.24177 0.73105 0.0
C1390 C 0.6621 0.24539 0.99317 0.0
C1391 C 0.64431 0.24375 0.82008 0.0
N1392 N 0.66306 0.28179 0.98216 0.0
N1393 N 0.63168 0.21019 0.85497 0.0
H1394 H 0.64049 0.25332 0.68385 0.0
H1395 H 0.63562 0.22799 0.70159 0.0
H1396 H 0.63083 0.19735 0.89553 0.0
H1397 H 0.62203 0.20987 0.79955 0.0
H1398 H 0.66611 0.28361 0.05061 0.0
H1399 H 0.66072 0.29538 0.94802 0.0
H1400 H 0.68271 0.25785 0.08757 0.0
H1401 H 0.67593 0.23304 0.11015 0.0
C1402 C 0.00265 0.39237 0.164 0.0
C1403 C 0.00355 0.40465 0.08569 0.0
C1404 C 0.04044 0.40659 0.09764 0.0
C1405 C 0.03926 0.39657 0.18161 0.0
N1406 N 0.0204 0.37804 0.29261 0.0
N1407 N 0.02325 0.41836 0.96302 0.0
C1408 C 0.02073 0.38832 0.21261 0.0
C1409 C 0.02248 0.4102 0.04776 0.0
N1410 N 0.98449 0.38467 0.19147 0.0
N1411 N 0.05872 0.41372 0.06916 0.0
H1412 H 0.01041 0.42133 0.92457 0.0
H1413 H 0.03657 0.42095 0.92773 0.0
H1414 H 0.0721 0.41021 0.10301 0.0
H1415 H 0.06068 0.42341 0.01462 0.0
H1416 H 0.98276 0.37419 0.24309 0.0
H1417 H 0.97087 0.38816 0.15976 0.0
H1418 H 0.00735 0.37365 0.32621 0.0
H1419 H 0.03357 0.37406 0.32678 0.0
C1420 C 0.87201 0.75618 0.38166 0.0
C1421 C 0.85809 0.75565 0.30908 0.0
C1422 C 0.85279 0.79211 0.32132 0.0
C1423 C 0.86415 0.79192 0.40193 0.0
N1424 N 0.8911 0.777 0.4866 0.0
N1425 N 0.84024 0.77356 0.19173 0.0
C1426 C 0.87619 0.77501 0.42379 0.0
C1427 C 0.85021 0.77385 0.27246 0.0
N1428 N 0.88032 0.73863 0.41303 0.0
N1429 N 0.84326 0.80955 0.29677 0.0
H1430 H 0.83793 0.76034 0.15496 0.0
H1431 H 0.83541 0.78646 0.15799 0.0
H1432 H 0.84578 0.82304 0.33147 0.0
H1433 H 0.83276 0.81064 0.24484 0.0
H1434 H 0.88897 0.7377 0.47144 0.0
H1435 H 0.87767 0.72465 0.3829 0.0
H1436 H 0.9013 0.7656 0.50273 0.0
H1437 H 0.89451 0.79092 0.51564 0.0
C1438 C 0.48283 0.60146 0.49179 0.0
C1439 C 0.5006 0.60998 0.52963 0.0
C1440 C 0.48038 0.62576 0.64803 0.0
C1441 C 0.4641 0.6131 0.62367 0.0
N1442 N 0.44809 0.59114 0.51752 0.0
N1443 N 0.5165 0.6317 0.63899 0.0
C1444 C 0.46465 0.60209 0.54225 0.0
C1445 C 0.49938 0.62301 0.60523 0.0
N1446 N 0.48342 0.59294 0.40791 0.0
N1447 N 0.47771 0.63966 0.71483 0.0
H1448 H 0.53063 0.63002 0.6088 0.0
H1449 H 0.51699 0.63966 0.69941 0.0
H1450 H 0.46375 0.6417 0.74611 0.0
H1451 H 0.48852 0.65031 0.73298 0.0
H1452 H 0.47066 0.58793 0.37367 0.0
H1453 H 0.49654 0.59242 0.36902 0.0
H1454 H 0.448 0.5807 0.46509 0.0
H1455 H 0.43449 0.59222 0.55285 0.0
C1456 C 0.32547 0.25435 0.50225 0.0
C1457 C 0.33373 0.2358 0.46914 0.0
C1458 C 0.34251 0.25291 0.32902 0.0
C1459 C 0.33108 0.2701 0.35642 0.0
N1460 N 0.3092 0.28599 0.46483 0.0
N1461 N 0.34661 0.21675 0.34305 0.0
C1462 C 0.32155 0.27033 0.44127 0.0
C1463 C 0.34127 0.23485 0.38016 0.0
N1464 N 0.3228 0.25742 0.59267 0.0
N1465 N 0.35511 0.25389 0.25624 0.0
H1466 H 0.34531 0.20308 0.37746 0.0
H1467 H 0.35032 0.21514 0.27513 0.0
H1468 H 0.35714 0.26691 0.21792 0.0
H1469 H 0.36507 0.24231 0.23932 0.0
H1470 H 0.3186 0.27132 0.61974 0.0
H1471 H 0.32727 0.24712 0.64182 0.0
H1472 H 0.30029 0.28578 0.52276 0.0
H1473 H 0.30661 0.29837 0.42289 0.0
C1474 C 0.52804 0.58922 0.05782 0.0
C1475 C 0.52573 0.60221 0.13279 0.0
C1476 C 0.48975 0.60582 0.10078 0.0
C1477 C 0.49205 0.59338 0.02358 0.0
N1478 N 0.51427 0.57725 0.91619 0.0
N1479 N 0.50599 0.62698 0.2123 0.0
C1480 C 0.51148 0.58624 0.99817 0.0
C1481 C 0.50712 0.61206 0.14887 0.0
N1482 N 0.54589 0.57926 0.04561 0.0
N1483 N 0.47087 0.6106 0.13161 0.0
H1484 H 0.51853 0.63177 0.24905 0.0
H1485 H 0.49324 0.63592 0.22183 0.0
H1486 H 0.45766 0.60545 0.10102 0.0
H1487 H 0.46825 0.61789 0.19271 0.0
H1488 H 0.54782 0.56765 -0.00092 0.0
H1489 H 0.55855 0.58218 0.08547 0.0
H1490 H 0.52844 0.57352 0.89073 0.0
H1491 H 0.5026 0.57507 0.87005 0.0
C1492 C 0.16417 0.75011 0.99343 0.0
C1493 C 0.15595 0.76837 0.95718 0.0
C1494 C 0.1475 0.75088 0.81716 0.0
C1495 C 0.1576 0.73325 0.85022 0.0
N1496 N 0.1698 0.71409 0.97654 0.0
N1497 N 0.14121 0.78682 0.83424 0.0
C1498 C 0.16439 0.73233 0.94027 0.0
C1499 C 0.14762 0.76884 0.86966 0.0
N1500 N 0.17246 0.74992 0.07794 0.0
N1501 N 0.1374 0.7505 0.7367 0.0
H1502 H 0.14073 0.80018 0.8714 0.0
H1503 H 0.1377 0.78896 0.76652 0.0
H1504 H 0.13737 0.73834 0.69251 0.0
H1505 H 0.12762 0.76186 0.71567 0.0
H1506 H 0.18149 0.73832 0.10275 0.0
H1507 H 0.17107 0.76178 0.12337 0.0
H1508 H 0.17266 0.71171 0.04467 0.0
H1509 H 0.16961 0.70065 0.93993 0.0
C1510 C 0.00319 0.41862 0.54493 0.0
C1511 C 0.02227 0.41303 0.58119 0.0
C1512 C 0.00557 0.39735 0.71025 0.0
C1513 C 0.98707 0.40595 0.68188 0.0
N1514 N 0.96763 0.42474 0.57424 0.0
N1515 N 0.04205 0.39837 0.70101 0.0
C1516 C 0.98564 0.4164 0.59912 0.0
C1517 C 0.02358 0.40252 0.66421 0.0
N1518 N 0.00175 0.42536 0.45801 0.0
N1519 N 0.00581 0.38457 0.78265 0.0
H1520 H 0.05558 0.40234 0.66976 0.0
H1521 H 0.04404 0.39263 0.76574 0.0
H1522 H 0.99268 0.38057 0.8172 0.0
H1523 H 0.01851 0.3765 0.803 0.0
H1524 H 0.98806 0.42768 0.42516 0.0
H1525 H 0.01424 0.42714 0.4159 0.0
H1526 H 0.96603 0.43474 0.52052 0.0
H1527 H 0.95436 0.4221 0.61036 0.0
C1528 C 0.33858 0.7621 0.23163 0.0
C1529 C 0.34668 0.7435 0.20052 0.0
C1530 C 0.36495 0.76142 0.08133 0.0
C1531 C 0.35368 0.77902 0.10121 0.0
N1532 N 0.33077 0.7971 0.19673 0.0
N1533 N 0.36733 0.725 0.095 0.0
C1534 C 0.34104 0.77972 0.17797 0.0
C1535 C 0.36012 0.74307 0.12606 0.0
N1536 N 0.329 0.76299 0.31319 0.0
N1537 N 0.37986 0.76224 0.01781 0.0
H1538 H 0.36384 0.7112 0.12507 0.0
H1539 H 0.37547 0.72343 0.03541 0.0
H1540 H 0.38363 0.77558 0.98445 0.0
H1541 H 0.38976 0.75039 0.00473 0.0
H1542 H 0.32446 0.77644 0.34337 0.0
H1543 H 0.32702 0.7504 0.35455 0.0
H1544 H 0.3193 0.7981 0.24451 0.0
H1545 H 0.33348 0.81047 0.16138 0.0
C1546 C 0.98757 0.61849 0.81169 0.0
C1547 C 0.9703 0.607 0.83399 0.0
C1548 C 0.98797 0.59281 0.96407 0.0
C1549 C 0.00637 0.60048 0.9286 0.0
N1550 N 0.02402 0.62116 0.82012 0.0
N1551 N 0.95264 0.58516 0.93544 0.0
C1552 C 0.00624 0.61387 0.85391 0.0
C1553 C 0.96998 0.59509 0.9129 0.0
N1554 N 0.9861 0.63322 0.74762 0.0
N1555 N 0.98768 0.58374 0.04688 0.0
H1556 H 0.93918 0.58757 0.90033 0.0
H1557 H 0.95172 0.57434 0.98617 0.0
H1558 H 1.00057 0.58207 0.08662 0.0
H1559 H 0.97449 0.57938 0.07966 0.0
H1560 H 0.99774 0.6432 0.73211 0.0
H1561 H 0.97242 0.63672 0.7165 0.0
H1562 H 0.02509 0.62922 0.76004 0.0
H1563 H 0.03802 0.61795 0.8488 0.0
C1564 C 0.12751 0.25305 0.62639 0.0
C1565 C 0.14108 0.25153 0.69998 0.0
C1566 C 0.14123 0.21475 0.68525 0.0
C1567 C 0.13239 0.21687 0.59932 0.0
N1568 N 0.11219 0.23646 0.497 0.0
N1569 N 0.15842 0.23101 0.81004 0.0
C1570 C 0.12344 0.23549 0.57397 0.0
C1571 C 0.14688 0.23232 0.73386 0.0
N1572 N 0.11875 0.27123 0.60687 0.0
N1573 N 0.14502 0.19575 0.71671 0.0
H1574 H 0.16221 0.24358 0.84888 0.0
H1575 H 0.1648 0.21766 0.83362 0.0
H1576 H 0.14096 0.18301 0.67932 0.0
H1577 H 0.15053 0.19258 0.78086 0.0
H1578 H 0.10781 0.27333 0.55749 0.0
H1579 H 0.12152 0.2842 0.64476 0.0
H1580 H 0.10731 0.24982 0.46724 0.0
H1581 H 0.10748 0.22353 0.46301 0.0
C1582 C 0.52418 0.39906 0.44614 0.0
C1583 C 0.50517 0.3944 0.40699 0.0
C1584 C 0.52225 0.37746 0.28216 0.0
C1585 C 0.5403 0.38732 0.30751 0.0
N1586 N 0.56044 0.40252 0.42234 0.0
N1587 N 0.48571 0.37659 0.29528 0.0
C1588 C 0.54196 0.39592 0.39431 0.0
C1589 C 0.50408 0.38242 0.32804 0.0
N1590 N 0.52505 0.40677 0.53151 0.0
N1591 N 0.5226 0.36379 0.21346 0.0
H1592 H 0.4723 0.37928 0.33002 0.0
H1593 H 0.4837 0.36983 0.23259 0.0
H1594 H 0.5361 0.35939 0.18299 0.0
H1595 H 0.51015 0.35527 0.19388 0.0
H1596 H 0.53842 0.40948 0.56619 0.0
H1597 H 0.51218 0.40927 0.57046 0.0
H1598 H 0.56295 0.41083 0.48076 0.0
H1599 H 0.57342 0.39967 0.38433 0.0
loop_
_geom_bond_atom_site_label_1
_geom_bond_atom_site_label_2
_geom_bond_distance
_geom_bond_site_symmetry_2
_ccdc_geom_bond_type
O0 Cd1 2.223 . S
O0 C8 1.315 . S
Cd1 O0 2.223 . S
Cd1 O4 2.297 . S
Cd1 O5 2.439 . S
Cd1 O11 2.240 . S
Cd2 O3 2.240 . S
Cd2 O10 2.223 . S
Cd2 O12 2.297 . S
Cd2 O13 2.439 . S
O3 Cd2 2.240 . S
O3 C8 1.279 . S
O4 Cd1 2.297 . S
O4 C6 1.247 . S
O5 Cd1 2.439 . S
O5 C6 1.208 . S
C6 O4 1.247 . S
C6 O5 1.208 . S
C7 O12 1.247 . S
C7 O13 1.208 . S
C8 O0 1.315 . S
C8 O3 1.279 . S
C9 O10 1.315 . S
C9 O11 1.279 . S
O10 Cd2 2.223 . S
O10 C9 1.315 . S
O11 Cd1 2.240 . S
O11 C9 1.279 . S
O12 Cd2 2.297 . S
O12 C7 1.247 . S
O13 Cd2 2.439 . S
O13 C7 1.208 . S
O14 Cd15 2.223 . S
O14 C22 1.315 . S
Cd15 O14 2.223 . S
Cd15 O18 2.297 . S
Cd15 O19 2.439 . S
Cd15 O25 2.240 . S
Cd16 O17 2.240 . S
Cd16 O24 2.223 . S
Cd16 O26 2.297 . S
Cd16 O27 2.439 . S
O17 Cd16 2.240 . S
O17 C22 1.279 . S
O18 Cd15 2.297 . S
O18 C20 1.247 . S
O19 Cd15 2.439 . S
O19 C20 1.208 . S
C20 O18 1.247 . S
C20 O19 1.208 . S
C21 O26 1.247 . S
C21 O27 1.208 . S
C22 O14 1.315 . S
C22 O17 1.279 . S
C23 O24 1.315 . S
C23 O25 1.279 . S
O24 Cd16 2.223 . S
O24 C23 1.315 . S
O25 Cd15 2.240 . S
O25 C23 1.279 . S
O26 Cd16 2.297 . S
O26 C21 1.247 . S
O27 Cd16 2.439 . S
O27 C21 1.208 . S
O28 Cd29 2.223 . S
O28 C36 1.315 . S
Cd29 O28 2.223 . S
Cd29 O32 2.297 . S
Cd29 O33 2.439 . S
Cd29 O39 2.240 . S
Cd30 O31 2.240 . S
Cd30 O38 2.223 . S
Cd30 O40 2.297 . S
Cd30 O41 2.439 . S
O31 Cd30 2.240 . S
O31 C36 1.279 . S
O32 Cd29 2.297 . S
O32 C34 1.247 . S
O33 Cd29 2.439 . S
O33 C34 1.208 . S
C34 O32 1.247 . S
C34 O33 1.208 . S
C35 O40 1.247 . S
C35 O41 1.208 . S
C36 O28 1.315 . S
C36 O31 1.279 . S
C37 O38 1.315 . S
C37 O39 1.279 . S
O38 Cd30 2.223 . S
O38 C37 1.315 . S
O39 Cd29 2.240 . S
O39 C37 1.279 . S
O40 Cd30 2.297 . S
O40 C35 1.247 . S
O41 Cd30 2.439 . S
O41 C35 1.208 . S
O42 Cd43 2.223 . S
O42 C50 1.315 1_554 S
Cd43 O42 2.223 . S
Cd43 O46 2.297 1_554 S
Cd43 O47 2.439 . S
Cd43 O53 2.240 . S
Cd44 O45 2.240 1_554 S
Cd44 O52 2.223 . S
Cd44 O54 2.297 . S
Cd44 O55 2.439 . S
O45 Cd44 2.240 1_556 S
O45 C50 1.279 . S
O46 Cd43 2.297 1_556 S
O46 C48 1.247 . S
O47 Cd43 2.439 . S
O47 C48 1.208 1_554 S
C48 O46 1.247 . S
C48 O47 1.208 1_556 S
C49 O54 1.247 . S
C49 O55 1.208 . S
C50 O42 1.315 1_556 S
C50 O45 1.279 . S
C51 O52 1.315 . S
C51 O53 1.279 . S
O52 Cd44 2.223 . S
O52 C51 1.315 . S
O53 Cd43 2.240 . S
O53 C51 1.279 . S
O54 Cd44 2.297 . S
O54 C49 1.247 . S
O55 Cd44 2.439 . S
O55 C49 1.208 . S
O56 Cd57 2.223 . S
O56 C64 1.315 . S
Cd57 O56 2.223 . S
Cd57 O60 2.297 . S
Cd57 O61 2.439 . S
Cd57 O67 2.240 . S
Cd58 O59 2.240 . S
Cd58 O66 2.223 . S
Cd58 O68 2.297 . S
Cd58 O69 2.439 . S
O59 Cd58 2.240 . S
O59 C64 1.279 . S
O60 Cd57 2.297 . S
O60 C62 1.247 . S
O61 Cd57 2.439 . S
O61 C62 1.208 . S
C62 O60 1.247 . S
C62 O61 1.208 . S
C63 O68 1.247 . S
C63 O69 1.208 . S
C64 O56 1.315 . S
C64 O59 1.279 . S
C65 O66 1.315 . S
C65 O67 1.279 . S
O66 Cd58 2.223 . S
O66 C65 1.315 . S
O67 Cd57 2.240 . S
O67 C65 1.279 . S
O68 Cd58 2.297 . S
O68 C63 1.247 . S
O69 Cd58 2.439 . S
O69 C63 1.208 . S
O70 Cd71 2.223 . S
O70 C78 1.315 . S
Cd71 O70 2.223 . S
Cd71 O74 2.297 . S
Cd71 O75 2.439 . S
Cd71 O81 2.240 . S
Cd72 O73 2.240 . S
Cd72 O80 2.223 . S
Cd72 O82 2.297 . S
Cd72 O83 2.439 . S
O73 Cd72 2.240 . S
O73 C78 1.279 . S
O74 Cd71 2.297 . S
O74 C76 1.247 . S
O75 Cd71 2.439 . S
O75 C76 1.208 . S
C76 O74 1.247 . S
C76 O75 1.208 . S
C77 O82 1.247 . S
C77 O83 1.208 . S
C78 O70 1.315 . S
C78 O73 1.279 . S
C79 O80 1.315 . S
C79 O81 1.279 . S
O80 Cd72 2.223 . S
O80 C79 1.315 . S
O81 Cd71 2.240 . S
O81 C79 1.279 . S
O82 Cd72 2.297 . S
O82 C77 1.247 . S
O83 Cd72 2.439 . S
O83 C77 1.208 . S
O84 Cd85 2.223 . S
O84 C92 1.315 . S
Cd85 O84 2.223 . S
Cd85 O88 2.297 . S
Cd85 O89 2.439 . S
Cd85 O95 2.240 . S
Cd86 O87 2.240 . S
Cd86 O94 2.223 . S
Cd86 O96 2.297 . S
Cd86 O97 2.439 . S
O87 Cd86 2.240 . S
O87 C92 1.279 . S
O88 Cd85 2.297 . S
O88 C90 1.247 . S
O89 Cd85 2.439 . S
O89 C90 1.208 . S
C90 O88 1.247 . S
C90 O89 1.208 . S
C91 O96 1.247 . S
C91 O97 1.208 . S
C92 O84 1.315 . S
C92 O87 1.279 . S
C93 O94 1.315 . S
C93 O95 1.279 . S
O94 Cd86 2.223 . S
O94 C93 1.315 . S
O95 Cd85 2.240 . S
O95 C93 1.279 . S
O96 Cd86 2.297 . S
O96 C91 1.247 . S
O97 Cd86 2.439 . S
O97 C91 1.208 . S
O98 Cd99 2.223 . S
O98 C106 1.315 1_556 S
Cd99 O98 2.223 . S
Cd99 O102 2.297 1_556 S
Cd99 O103 2.439 . S
Cd99 O109 2.240 . S
Cd100 O101 2.240 1_556 S
Cd100 O108 2.223 . S
Cd100 O110 2.297 . S
Cd100 O111 2.439 . S
O101 Cd100 2.240 1_554 S
O101 C106 1.279 . S
O102 Cd99 2.297 1_554 S
O102 C104 1.247 . S
O103 Cd99 2.439 . S
O103 C104 1.208 1_556 S
C104 O102 1.247 . S
C104 O103 1.208 1_554 S
C105 O110 1.247 . S
C105 O111 1.208 . S
C106 O98 1.315 1_554 S
C106 O101 1.279 . S
C107 O108 1.315 . S
C107 O109 1.279 . S
O108 Cd100 2.223 . S
O108 C107 1.315 . S
O109 Cd99 2.240 . S
O109 C107 1.279 . S
O110 Cd100 2.297 . S
O110 C105 1.247 . S
O111 Cd100 2.439 . S
O111 C105 1.208 . S
O112 Cd113 2.223 . S
O112 C120 1.315 . S
Cd113 O112 2.223 . S
Cd113 O116 2.297 . S
Cd113 O117 2.439 . S
Cd113 O123 2.240 . S
Cd114 O115 2.240 . S
Cd114 O122 2.223 . S
Cd114 O124 2.297 . S
Cd114 O125 2.439 . S
O115 Cd114 2.240 . S
O115 C120 1.279 . S
O116 Cd113 2.297 . S
O116 C118 1.247 . S
O117 Cd113 2.439 . S
O117 C118 1.208 . S
C118 O116 1.247 . S
C118 O117 1.208 . S
C119 O124 1.247 . S
C119 O125 1.208 . S
C120 O112 1.315 . S
C120 O115 1.279 . S
C121 O122 1.315 . S
C121 O123 1.279 . S
O122 Cd114 2.223 . S
O122 C121 1.315 . S
O123 Cd113 2.240 . S
O123 C121 1.279 . S
O124 Cd114 2.297 . S
O124 C119 1.247 . S
O125 Cd114 2.439 . S
O125 C119 1.208 . S
O126 Cd127 2.223 . S
O126 C134 1.315 . S
Cd127 O126 2.223 . S
Cd127 O130 2.297 . S
Cd127 O131 2.439 . S
Cd127 O137 2.240 . S
Cd128 O129 2.240 . S
Cd128 O136 2.223 . S
Cd128 O138 2.297 . S
Cd128 O139 2.439 . S
O129 Cd128 2.240 . S
O129 C134 1.279 . S
O130 Cd127 2.297 . S
O130 C132 1.247 . S
O131 Cd127 2.439 . S
O131 C132 1.208 . S
C132 O130 1.247 . S
C132 O131 1.208 . S
C133 O138 1.247 . S
C133 O139 1.208 . S
C134 O126 1.315 . S
C134 O129 1.279 . S
C135 O136 1.315 . S
C135 O137 1.279 . S
O136 Cd128 2.223 . S
O136 C135 1.315 . S
O137 Cd127 2.240 . S
O137 C135 1.279 . S
O138 Cd128 2.297 . S
O138 C133 1.247 . S
O139 Cd128 2.439 . S
O139 C133 1.208 . S
O140 Cd141 2.223 . S
O140 C148 1.315 . S
Cd141 O140 2.223 . S
Cd141 O144 2.297 . S
Cd141 O145 2.439 . S
Cd141 O151 2.240 . S
Cd142 O143 2.240 . S
Cd142 O150 2.223 . S
Cd142 O152 2.297 . S
Cd142 O153 2.439 . S
O143 Cd142 2.240 . S
O143 C148 1.279 . S
O144 Cd141 2.297 . S
O144 C146 1.247 . S
O145 Cd141 2.439 . S
O145 C146 1.208 . S
C146 O144 1.247 . S
C146 O145 1.208 . S
C147 O152 1.247 . S
C147 O153 1.208 . S
C148 O140 1.315 . S
C148 O143 1.279 . S
C149 O150 1.315 . S
C149 O151 1.279 . S
O150 Cd142 2.223 . S
O150 C149 1.315 . S
O151 Cd141 2.240 . S
O151 C149 1.279 . S
O152 Cd142 2.297 . S
O152 C147 1.247 . S
O153 Cd142 2.439 . S
O153 C147 1.208 . S
O154 Cd155 2.223 . S
O154 C162 1.315 1_556 S
Cd155 O154 2.223 . S
Cd155 O158 2.297 1_556 S
Cd155 O159 2.439 . S
Cd155 O165 2.240 . S
Cd156 O157 2.240 1_556 S
Cd156 O164 2.223 . S
Cd156 O166 2.297 . S
Cd156 O167 2.439 . S
O157 Cd156 2.240 1_554 S
O157 C162 1.279 . S
O158 Cd155 2.297 1_554 S
O158 C160 1.247 . S
O159 Cd155 2.439 . S
O159 C160 1.208 1_556 S
C160 O158 1.247 . S
C160 O159 1.208 1_554 S
C161 O166 1.247 . S
C161 O167 1.208 . S
C162 O154 1.315 1_554 S
C162 O157 1.279 . S
C163 O164 1.315 . S
C163 O165 1.279 . S
O164 Cd156 2.223 . S
O164 C163 1.315 . S
O165 Cd155 2.240 . S
O165 C163 1.279 . S
O166 Cd156 2.297 . S
O166 C161 1.247 . S
O167 Cd156 2.439 . S
O167 C161 1.208 . S
O168 Cd169 2.223 . S
O168 C176 1.315 . S
Cd169 O168 2.223 . S
Cd169 O172 2.297 . S
Cd169 O173 2.439 . S
Cd169 O179 2.240 . S
Cd170 O171 2.240 . S
Cd170 O178 2.223 . S
Cd170 O180 2.297 . S
Cd170 O181 2.439 . S
O171 Cd170 2.240 . S
O171 C176 1.279 . S
O172 Cd169 2.297 . S
O172 C174 1.247 . S
O173 Cd169 2.439 . S
O173 C174 1.208 . S
C174 O172 1.247 . S
C174 O173 1.208 . S
C175 O180 1.247 . S
C175 O181 1.208 . S
C176 O168 1.315 . S
C176 O171 1.279 . S
C177 O178 1.315 . S
C177 O179 1.279 . S
O178 Cd170 2.223 . S
O178 C177 1.315 . S
O179 Cd169 2.240 . S
O179 C177 1.279 . S
O180 Cd170 2.297 . S
O180 C175 1.247 . S
O181 Cd170 2.439 . S
O181 C175 1.208 . S
O182 Cd183 2.223 . S
O182 C190 1.315 . S
Cd183 O182 2.223 . S
Cd183 O186 2.297 . S
Cd183 O187 2.439 . S
Cd183 O193 2.240 . S
Cd184 O185 2.240 . S
Cd184 O192 2.223 . S
Cd184 O194 2.297 . S
Cd184 O195 2.439 . S
O185 Cd184 2.240 . S
O185 C190 1.279 . S
O186 Cd183 2.297 . S
O186 C188 1.247 . S
O187 Cd183 2.439 . S
O187 C188 1.208 . S
C188 O186 1.247 . S
C188 O187 1.208 . S
C189 O194 1.247 . S
C189 O195 1.208 . S
C190 O182 1.315 . S
C190 O185 1.279 . S
C191 O192 1.315 . S
C191 O193 1.279 . S
O192 Cd184 2.223 . S
O192 C191 1.315 . S
O193 Cd183 2.240 . S
O193 C191 1.279 . S
O194 Cd184 2.297 . S
O194 C189 1.247 . S
O195 Cd184 2.439 . S
O195 C189 1.208 . S
O196 Cd197 2.223 . S
O196 C204 1.315 . S
Cd197 O196 2.223 . S
Cd197 O200 2.297 . S
Cd197 O201 2.439 . S
Cd197 O207 2.240 . S
Cd198 O199 2.240 . S
Cd198 O206 2.223 . S
Cd198 O208 2.297 . S
Cd198 O209 2.439 . S
O199 Cd198 2.240 . S
O199 C204 1.279 . S
O200 Cd197 2.297 . S
O200 C202 1.247 . S
O201 Cd197 2.439 . S
O201 C202 1.208 . S
C202 O200 1.247 . S
C202 O201 1.208 . S
C203 O208 1.247 . S
C203 O209 1.208 . S
C204 O196 1.315 . S
C204 O199 1.279 . S
C205 O206 1.315 . S
C205 O207 1.279 . S
O206 Cd198 2.223 . S
O206 C205 1.315 . S
O207 Cd197 2.240 . S
O207 C205 1.279 . S
O208 Cd198 2.297 . S
O208 C203 1.247 . S
O209 Cd198 2.439 . S
O209 C203 1.208 . S
O210 Cd211 2.223 . S
O210 C218 1.315 1_554 S
Cd211 O210 2.223 . S
Cd211 O214 2.297 1_554 S
Cd211 O215 2.439 . S
Cd211 O221 2.240 . S
Cd212 O213 2.240 1_554 S
Cd212 O220 2.223 . S
Cd212 O222 2.297 . S
Cd212 O223 2.439 . S
O213 Cd212 2.240 1_556 S
O213 C218 1.279 . S
O214 Cd211 2.297 1_556 S
O214 C216 1.247 . S
O215 Cd211 2.439 . S
O215 C216 1.208 1_554 S
C216 O214 1.247 . S
C216 O215 1.208 1_556 S
C217 O222 1.247 . S
C217 O223 1.208 . S
C218 O210 1.315 1_556 S
C218 O213 1.279 . S
C219 O220 1.315 . S
C219 O221 1.279 . S
O220 Cd212 2.223 . S
O220 C219 1.315 . S
O221 Cd211 2.240 . S
O221 C219 1.279 . S
O222 Cd212 2.297 . S
O222 C217 1.247 . S
O223 Cd212 2.439 . S
O223 C217 1.208 . S
O224 Cd225 2.223 . S
O224 C232 1.315 . S
Cd225 O224 2.223 . S
Cd225 O228 2.297 . S
Cd225 O229 2.439 . S
Cd225 O235 2.240 . S
Cd226 O227 2.240 . S
Cd226 O234 2.223 . S
Cd226 O236 2.297 . S
Cd226 O237 2.439 . S
O227 Cd226 2.240 . S
O227 C232 1.279 . S
O228 Cd225 2.297 . S
O228 C230 1.247 . S
O229 Cd225 2.439 . S
O229 C230 1.208 . S
C230 O228 1.247 . S
C230 O229 1.208 . S
C231 O236 1.247 . S
C231 O237 1.208 . S
C232 O224 1.315 . S
C232 O227 1.279 . S
C233 O234 1.315 . S
C233 O235 1.279 . S
O234 Cd226 2.223 . S
O234 C233 1.315 . S
O235 Cd225 2.240 . S
O235 C233 1.279 . S
O236 Cd226 2.297 . S
O236 C231 1.247 . S
O237 Cd226 2.439 . S
O237 C231 1.208 . S
O238 Cd239 2.223 . S
O238 C246 1.315 1_554 S
Cd239 O238 2.223 . S
Cd239 O242 2.297 1_554 S
Cd239 O243 2.439 . S
Cd239 O249 2.240 . S
Cd240 O241 2.240 1_554 S
Cd240 O248 2.223 . S
Cd240 O250 2.297 . S
Cd240 O251 2.439 . S
O241 Cd240 2.240 1_556 S
O241 C246 1.279 . S
O242 Cd239 2.297 1_556 S
O242 C244 1.247 . S
O243 Cd239 2.439 . S
O243 C244 1.208 1_554 S
C244 O242 1.247 . S
C244 O243 1.208 1_556 S
C245 O250 1.247 . S
C245 O251 1.208 . S
C246 O238 1.315 1_556 S
C246 O241 1.279 . S
C247 O248 1.315 . S
C247 O249 1.279 . S
O248 Cd240 2.223 . S
O248 C247 1.315 . S
O249 Cd239 2.240 . S
O249 C247 1.279 . S
O250 Cd240 2.297 . S
O250 C245 1.247 . S
O251 Cd240 2.439 . S
O251 C245 1.208 . S
O252 Cd253 2.223 . S
O252 C260 1.315 . S
Cd253 O252 2.223 . S
Cd253 O256 2.297 . S
Cd253 O257 2.439 . S
Cd253 O263 2.240 . S
Cd254 O255 2.240 . S
Cd254 O262 2.223 . S
Cd254 O264 2.297 . S
Cd254 O265 2.439 . S
O255 Cd254 2.240 . S
O255 C260 1.279 . S
O256 Cd253 2.297 . S
O256 C258 1.247 . S
O257 Cd253 2.439 . S
O257 C258 1.208 . S
C258 O256 1.247 . S
C258 O257 1.208 . S
C259 O264 1.247 . S
C259 O265 1.208 . S
C260 O252 1.315 . S
C260 O255 1.279 . S
C261 O262 1.315 . S
C261 O263 1.279 . S
O262 Cd254 2.223 . S
O262 C261 1.315 . S
O263 Cd253 2.240 . S
O263 C261 1.279 . S
O264 Cd254 2.297 . S
O264 C259 1.247 . S
O265 Cd254 2.439 . S
O265 C259 1.208 . S
O266 Cd267 2.223 . S
O266 C274 1.315 . S
Cd267 O266 2.223 . S
Cd267 O270 2.297 . S
Cd267 O271 2.439 . S
Cd267 O277 2.240 . S
Cd268 O269 2.240 . S
Cd268 O276 2.223 . S
Cd268 O278 2.297 . S
Cd268 O279 2.439 . S
O269 Cd268 2.240 . S
O269 C274 1.279 . S
O270 Cd267 2.297 . S
O270 C272 1.247 . S
O271 Cd267 2.439 . S
O271 C272 1.208 . S
C272 O270 1.247 . S
C272 O271 1.208 . S
C273 O278 1.247 . S
C273 O279 1.208 . S
C274 O266 1.315 . S
C274 O269 1.279 . S
C275 O276 1.315 . S
C275 O277 1.279 . S
O276 Cd268 2.223 . S
O276 C275 1.315 . S
O277 Cd267 2.240 . S
O277 C275 1.279 . S
O278 Cd268 2.297 . S
O278 C273 1.247 . S
O279 Cd268 2.439 . S
O279 C273 1.208 . S
O280 Cd281 2.223 . S
O280 C288 1.315 . S
Cd281 O280 2.223 . S
Cd281 O284 2.297 . S
Cd281 O285 2.439 . S
Cd281 O291 2.240 . S
Cd282 O283 2.240 . S
Cd282 O290 2.223 . S
Cd282 O292 2.297 . S
Cd282 O293 2.439 . S
O283 Cd282 2.240 . S
O283 C288 1.279 . S
O284 Cd281 2.297 . S
O284 C286 1.247 . S
O285 Cd281 2.439 . S
O285 C286 1.208 . S
C286 O284 1.247 . S
C286 O285 1.208 . S
C287 O292 1.247 . S
C287 O293 1.208 . S
C288 O280 1.315 . S
C288 O283 1.279 . S
C289 O290 1.315 . S
C289 O291 1.279 . S
O290 Cd282 2.223 . S
O290 C289 1.315 . S
O291 Cd281 2.240 . S
O291 C289 1.279 . S
O292 Cd282 2.297 . S
O292 C287 1.247 . S
O293 Cd282 2.439 . S
O293 C287 1.208 . S
O294 Cd295 2.223 . S
O294 C302 1.315 1_556 S
Cd295 O294 2.223 . S
Cd295 O298 2.297 1_556 S
Cd295 O299 2.439 . S
Cd295 O305 2.240 . S
Cd296 O297 2.240 1_556 S
Cd296 O304 2.223 . S
Cd296 O306 2.297 . S
Cd296 O307 2.439 . S
O297 Cd296 2.240 1_554 S
O297 C302 1.279 . S
O298 Cd295 2.297 1_554 S
O298 C300 1.247 . S
O299 Cd295 2.439 . S
O299 C300 1.208 1_556 S
C300 O298 1.247 . S
C300 O299 1.208 1_554 S
C301 O306 1.247 . S
C301 O307 1.208 . S
C302 O294 1.315 1_554 S
C302 O297 1.279 . S
C303 O304 1.315 . S
C303 O305 1.279 . S
O304 Cd296 2.223 . S
O304 C303 1.315 . S
O305 Cd295 2.240 . S
O305 C303 1.279 . S
O306 Cd296 2.297 . S
O306 C301 1.247 . S
O307 Cd296 2.439 . S
O307 C301 1.208 . S
O308 Cd309 2.223 . S
O308 C316 1.315 . S
Cd309 O308 2.223 . S
Cd309 O312 2.297 . S
Cd309 O313 2.439 . S
Cd309 O319 2.240 . S
Cd310 O311 2.240 . S
Cd310 O318 2.223 . S
Cd310 O320 2.297 . S
Cd310 O321 2.439 . S
O311 Cd310 2.240 . S
O311 C316 1.279 . S
O312 Cd309 2.297 . S
O312 C314 1.247 . S
O313 Cd309 2.439 . S
O313 C314 1.208 . S
C314 O312 1.247 . S
C314 O313 1.208 . S
C315 O320 1.247 . S
C315 O321 1.208 . S
C316 O308 1.315 . S
C316 O311 1.279 . S
C317 O318 1.315 . S
C317 O319 1.279 . S
O318 Cd310 2.223 . S
O318 C317 1.315 . S
O319 Cd309 2.240 . S
O319 C317 1.279 . S
O320 Cd310 2.297 . S
O320 C315 1.247 . S
O321 Cd310 2.439 . S
O321 C315 1.208 . S
O322 Cd323 2.223 . S
O322 C330 1.315 . S
Cd323 O322 2.223 . S
Cd323 O326 2.297 . S
Cd323 O327 2.439 . S
Cd323 O333 2.240 . S
Cd324 O325 2.240 . S
Cd324 O332 2.223 . S
Cd324 O334 2.297 . S
Cd324 O335 2.439 . S
O325 Cd324 2.240 . S
O325 C330 1.279 . S
O326 Cd323 2.297 . S
O326 C328 1.247 . S
O327 Cd323 2.439 . S
O327 C328 1.208 . S
C328 O326 1.247 . S
C328 O327 1.208 . S
C329 O334 1.247 . S
C329 O335 1.208 . S
C330 O322 1.315 . S
C330 O325 1.279 . S
C331 O332 1.315 . S
C331 O333 1.279 . S
O332 Cd324 2.223 . S
O332 C331 1.315 . S
O333 Cd323 2.240 . S
O333 C331 1.279 . S
O334 Cd324 2.297 . S
O334 C329 1.247 . S
O335 Cd324 2.439 . S
O335 C329 1.208 . S
O336 Cd337 2.223 . S
O336 C344 1.315 . S
Cd337 O336 2.223 . S
Cd337 O340 2.297 . S
Cd337 O341 2.439 . S
Cd337 O347 2.240 . S
Cd338 O339 2.240 . S
Cd338 O346 2.223 . S
Cd338 O348 2.297 . S
Cd338 O349 2.439 . S
O339 Cd338 2.240 . S
O339 C344 1.279 . S
O340 Cd337 2.297 . S
O340 C342 1.247 . S
O341 Cd337 2.439 . S
O341 C342 1.208 . S
C342 O340 1.247 . S
C342 O341 1.208 . S
C343 O348 1.247 . S
C343 O349 1.208 . S
C344 O336 1.315 . S
C344 O339 1.279 . S
C345 O346 1.315 . S
C345 O347 1.279 . S
O346 Cd338 2.223 . S
O346 C345 1.315 . S
O347 Cd337 2.240 . S
O347 C345 1.279 . S
O348 Cd338 2.297 . S
O348 C343 1.247 . S
O349 Cd338 2.439 . S
O349 C343 1.208 . S
O350 Cd351 2.223 . S
O350 C358 1.315 1_556 S
Cd351 O350 2.223 . S
Cd351 O354 2.297 1_556 S
Cd351 O355 2.439 . S
Cd351 O361 2.240 . S
Cd352 O353 2.240 1_556 S
Cd352 O360 2.223 . S
Cd352 O362 2.297 . S
Cd352 O363 2.439 . S
O353 Cd352 2.240 1_554 S
O353 C358 1.279 . S
O354 Cd351 2.297 1_554 S
O354 C356 1.247 . S
O355 Cd351 2.439 . S
O355 C356 1.208 1_556 S
C356 O354 1.247 . S
C356 O355 1.208 1_554 S
C357 O362 1.247 . S
C357 O363 1.208 . S
C358 O350 1.315 1_554 S
C358 O353 1.279 . S
C359 O360 1.315 . S
C359 O361 1.279 . S
O360 Cd352 2.223 . S
O360 C359 1.315 . S
O361 Cd351 2.240 . S
O361 C359 1.279 . S
O362 Cd352 2.297 . S
O362 C357 1.247 . S
O363 Cd352 2.439 . S
O363 C357 1.208 . S
O364 Cd365 2.223 . S
O364 C372 1.315 . S
Cd365 O364 2.223 . S
Cd365 O368 2.297 . S
Cd365 O369 2.439 . S
Cd365 O375 2.240 . S
Cd366 O367 2.240 . S
Cd366 O374 2.223 . S
Cd366 O376 2.297 . S
Cd366 O377 2.439 . S
O367 Cd366 2.240 . S
O367 C372 1.279 . S
O368 Cd365 2.297 . S
O368 C370 1.247 . S
O369 Cd365 2.439 . S
O369 C370 1.208 . S
C370 O368 1.247 . S
C370 O369 1.208 . S
C371 O376 1.247 . S
C371 O377 1.208 . S
C372 O364 1.315 . S
C372 O367 1.279 . S
C373 O374 1.315 . S
C373 O375 1.279 . S
O374 Cd366 2.223 . S
O374 C373 1.315 . S
O375 Cd365 2.240 . S
O375 C373 1.279 . S
O376 Cd366 2.297 . S
O376 C371 1.247 . S
O377 Cd366 2.439 . S
O377 C371 1.208 . S
O378 Cd379 2.223 . S
O378 C386 1.315 . S
Cd379 O378 2.223 . S
Cd379 O382 2.297 . S
Cd379 O383 2.439 . S
Cd379 O389 2.240 . S
Cd380 O381 2.240 . S
Cd380 O388 2.223 . S
Cd380 O390 2.297 . S
Cd380 O391 2.439 . S
O381 Cd380 2.240 . S
O381 C386 1.279 . S
O382 Cd379 2.297 . S
O382 C384 1.247 . S
O383 Cd379 2.439 . S
O383 C384 1.208 . S
C384 O382 1.247 . S
C384 O383 1.208 . S
C385 O390 1.247 . S
C385 O391 1.208 . S
C386 O378 1.315 . S
C386 O381 1.279 . S
C387 O388 1.315 . S
C387 O389 1.279 . S
O388 Cd380 2.223 . S
O388 C387 1.315 . S
O389 Cd379 2.240 . S
O389 C387 1.279 . S
O390 Cd380 2.297 . S
O390 C385 1.247 . S
O391 Cd380 2.439 . S
O391 C385 1.208 . S
O392 Cd393 2.223 . S
O392 C400 1.315 . S
Cd393 O392 2.223 . S
Cd393 O396 2.297 . S
Cd393 O397 2.439 . S
Cd393 O403 2.240 . S
Cd394 O395 2.240 . S
Cd394 O402 2.223 . S
Cd394 O404 2.297 . S
Cd394 O405 2.439 . S
O395 Cd394 2.240 . S
O395 C400 1.279 . S
O396 Cd393 2.297 . S
O396 C398 1.247 . S
O397 Cd393 2.439 . S
O397 C398 1.208 . S
C398 O396 1.247 . S
C398 O397 1.208 . S
C399 O404 1.247 . S
C399 O405 1.208 . S
C400 O392 1.315 . S
C400 O395 1.279 . S
C401 O402 1.315 . S
C401 O403 1.279 . S
O402 Cd394 2.223 . S
O402 C401 1.315 . S
O403 Cd393 2.240 . S
O403 C401 1.279 . S
O404 Cd394 2.297 . S
O404 C399 1.247 . S
O405 Cd394 2.439 . S
O405 C399 1.208 . S
O406 Cd407 2.223 . S
O406 C414 1.315 1_554 S
Cd407 O406 2.223 . S
Cd407 O410 2.297 1_554 S
Cd407 O411 2.439 . S
Cd407 O417 2.240 . S
Cd408 O409 2.240 1_554 S
Cd408 O416 2.223 . S
Cd408 O418 2.297 . S
Cd408 O419 2.439 . S
O409 Cd408 2.240 1_556 S
O409 C414 1.279 . S
O410 Cd407 2.297 1_556 S
O410 C412 1.247 . S
O411 Cd407 2.439 . S
O411 C412 1.208 1_554 S
C412 O410 1.247 . S
C412 O411 1.208 1_556 S
C413 O418 1.247 . S
C413 O419 1.208 . S
C414 O406 1.315 1_556 S
C414 O409 1.279 . S
C415 O416 1.315 . S
C415 O417 1.279 . S
O416 Cd408 2.223 . S
O416 C415 1.315 . S
O417 Cd407 2.240 . S
O417 C415 1.279 . S
O418 Cd408 2.297 . S
O418 C413 1.247 . S
O419 Cd408 2.439 . S
O419 C413 1.208 . S
O420 Cd421 2.223 . S
O420 C428 1.315 . S
Cd421 O420 2.223 . S
Cd421 O424 2.297 . S
Cd421 O425 2.439 . S
Cd421 O431 2.240 . S
Cd422 O423 2.240 . S
Cd422 O430 2.223 . S
Cd422 O432 2.297 . S
Cd422 O433 2.439 . S
O423 Cd422 2.240 . S
O423 C428 1.279 . S
O424 Cd421 2.297 . S
O424 C426 1.247 . S
O425 Cd421 2.439 . S
O425 C426 1.208 . S
C426 O424 1.247 . S
C426 O425 1.208 . S
C427 O432 1.247 . S
C427 O433 1.208 . S
C428 O420 1.315 . S
C428 O423 1.279 . S
C429 O430 1.315 . S
C429 O431 1.279 . S
O430 Cd422 2.223 . S
O430 C429 1.315 . S
O431 Cd421 2.240 . S
O431 C429 1.279 . S
O432 Cd422 2.297 . S
O432 C427 1.247 . S
O433 Cd422 2.439 . S
O433 C427 1.208 . S
O434 Cd435 2.223 . S
O434 C442 1.315 . S
Cd435 O434 2.223 . S
Cd435 O438 2.297 . S
Cd435 O439 2.439 . S
Cd435 O445 2.240 . S
Cd436 O437 2.240 . S
Cd436 O444 2.223 . S
Cd436 O446 2.297 . S
Cd436 O447 2.439 . S
O437 Cd436 2.240 . S
O437 C442 1.279 . S
O438 Cd435 2.297 . S
O438 C440 1.247 . S
O439 Cd435 2.439 . S
O439 C440 1.208 . S
C440 O438 1.247 . S
C440 O439 1.208 . S
C441 O446 1.247 . S
C441 O447 1.208 . S
C442 O434 1.315 . S
C442 O437 1.279 . S
C443 O444 1.315 . S
C443 O445 1.279 . S
O444 Cd436 2.223 . S
O444 C443 1.315 . S
O445 Cd435 2.240 . S
O445 C443 1.279 . S
O446 Cd436 2.297 . S
O446 C441 1.247 . S
O447 Cd436 2.439 . S
O447 C441 1.208 . S
C448 C449 1.363 . S
C448 C454 1.379 . S
C448 N456 1.356 . S
C449 C448 1.363 . S
C449 C455 1.363 . S
C450 C451 1.363 . S
C450 C455 1.379 . S
C450 N457 1.356 . S
C451 C450 1.363 . S
C451 C454 1.363 . S
N452 C454 1.356 . S
N452 H464 0.984 . S
N452 H465 0.985 . S
N453 C455 1.356 . S
N453 H458 0.984 . S
N453 H459 0.985 . S
C454 C448 1.379 . S
C454 C451 1.363 . S
C454 N452 1.356 . S
C455 C449 1.363 . S
C455 C450 1.379 . S
C455 N453 1.356 . S
N456 C448 1.356 . S
N456 H462 0.984 . S
N456 H463 0.984 . S
N457 C450 1.356 . S
N457 H460 0.984 . S
N457 H461 0.985 . S
H458 N453 0.984 . S
H459 N453 0.985 . S
H460 N457 0.984 . S
H461 N457 0.985 . S
H462 N456 0.984 . S
H463 N456 0.984 . S
H464 N452 0.984 . S
H465 N452 0.985 . S
C466 C467 1.363 . S
C466 C472 1.379 1_565 S
C466 N474 1.356 . S
C467 C466 1.363 . S
C467 C473 1.363 . S
C468 C469 1.363 . S
C468 C473 1.379 1_545 S
C468 N475 1.356 . S
C469 C468 1.363 . S
C469 C472 1.363 . S
N470 C472 1.356 . S
N470 H482 0.984 . S
N470 H483 0.985 . S
N471 C473 1.356 . S
N471 H476 0.984 . S
N471 H477 0.985 . S
C472 C466 1.379 1_545 S
C472 C469 1.363 . S
C472 N470 1.356 . S
C473 C467 1.363 . S
C473 C468 1.379 1_565 S
C473 N471 1.356 . S
N474 C466 1.356 . S
N474 H480 0.984 . S
N474 H481 0.984 . S
N475 C468 1.356 . S
N475 H478 0.984 . S
N475 H479 0.985 . S
H476 N471 0.984 . S
H477 N471 0.985 . S
H478 N475 0.984 . S
H479 N475 0.985 . S
H480 N474 0.984 . S
H481 N474 0.984 . S
H482 N470 0.984 . S
H483 N470 0.985 . S
C484 C485 1.363 . S
C484 C490 1.379 . S
C484 N492 1.356 . S
C485 C484 1.363 . S
C485 C491 1.363 1_554 S
C486 C487 1.363 . S
C486 C491 1.379 . S
C486 N493 1.356 . S
C487 C486 1.363 . S
C487 C490 1.363 1_556 S
N488 C490 1.356 . S
N488 H500 0.984 . S
N488 H501 0.985 . S
N489 C491 1.356 . S
N489 H494 0.984 . S
N489 H495 0.985 . S
C490 C484 1.379 . S
C490 C487 1.363 1_554 S
C490 N488 1.356 . S
C491 C485 1.363 1_556 S
C491 C486 1.379 . S
C491 N489 1.356 . S
N492 C484 1.356 . S
N492 H498 0.984 . S
N492 H499 0.984 . S
N493 C486 1.356 . S
N493 H496 0.984 . S
N493 H497 0.985 . S
H494 N489 0.984 . S
H495 N489 0.985 . S
H496 N493 0.984 . S
H497 N493 0.985 . S
H498 N492 0.984 . S
H499 N492 0.984 . S
H500 N488 0.984 . S
H501 N488 0.985 . S
C502 C503 1.363 . S
C502 C508 1.379 1_545 S
C502 N510 1.356 . S
C503 C502 1.363 . S
C503 C509 1.363 . S
C504 C505 1.363 . S
C504 C509 1.379 1_565 S
C504 N511 1.356 . S
C505 C504 1.363 . S
C505 C508 1.363 . S
N506 C508 1.356 . S
N506 H518 0.984 . S
N506 H519 0.985 . S
N507 C509 1.356 . S
N507 H512 0.984 . S
N507 H513 0.985 . S
C508 C502 1.379 1_565 S
C508 C505 1.363 . S
C508 N506 1.356 . S
C509 C503 1.363 . S
C509 C504 1.379 1_545 S
C509 N507 1.356 . S
N510 C502 1.356 . S
N510 H516 0.984 . S
N510 H517 0.984 . S
N511 C504 1.356 . S
N511 H514 0.984 . S
N511 H515 0.985 . S
H512 N507 0.984 . S
H513 N507 0.985 . S
H514 N511 0.984 . S
H515 N511 0.985 . S
H516 N510 0.984 . S
H517 N510 0.984 . S
H518 N506 0.984 . S
H519 N506 0.985 . S
C520 C521 1.363 . S
C520 C526 1.379 . S
C520 N528 1.356 . S
C521 C520 1.363 . S
C521 C527 1.363 . S
C522 C523 1.363 . S
C522 C527 1.379 . S
C522 N529 1.356 . S
C523 C522 1.363 . S
C523 C526 1.363 . S
N524 C526 1.356 . S
N524 H536 0.984 . S
N524 H537 0.985 . S
N525 C527 1.356 . S
N525 H530 0.984 . S
N525 H531 0.985 . S
C526 C520 1.379 . S
C526 C523 1.363 . S
C526 N524 1.356 . S
C527 C521 1.363 . S
C527 C522 1.379 . S
C527 N525 1.356 . S
N528 C520 1.356 . S
N528 H534 0.984 . S
N528 H535 0.984 . S
N529 C522 1.356 . S
N529 H532 0.984 . S
N529 H533 0.985 . S
H530 N525 0.984 . S
H531 N525 0.985 . S
H532 N529 0.984 . S
H533 N529 0.985 . S
H534 N528 0.984 . S
H535 N528 0.984 . S
H536 N524 0.984 . S
H537 N524 0.985 . S
C538 C539 1.363 . S
C538 C544 1.379 1_545 S
C538 N546 1.356 . S
C539 C538 1.363 . S
C539 C545 1.363 . S
C540 C541 1.363 . S
C540 C545 1.379 1_565 S
C540 N547 1.356 . S
C541 C540 1.363 . S
C541 C544 1.363 . S
N542 C544 1.356 . S
N542 H554 0.984 . S
N542 H555 0.985 . S
N543 C545 1.356 . S
N543 H548 0.984 . S
N543 H549 0.985 . S
C544 C538 1.379 1_565 S
C544 C541 1.363 . S
C544 N542 1.356 . S
C545 C539 1.363 . S
C545 C540 1.379 1_545 S
C545 N543 1.356 . S
N546 C538 1.356 . S
N546 H552 0.984 . S
N546 H553 0.984 . S
N547 C540 1.356 . S
N547 H550 0.984 . S
N547 H551 0.985 . S
H548 N543 0.984 . S
H549 N543 0.985 . S
H550 N547 0.984 . S
H551 N547 0.985 . S
H552 N546 0.984 . S
H553 N546 0.984 . S
H554 N542 0.984 . S
H555 N542 0.985 . S
C556 C557 1.363 . S
C556 C562 1.379 . S
C556 N564 1.356 . S
C557 C556 1.363 . S
C557 C563 1.363 1_556 S
C558 C559 1.363 . S
C558 C563 1.379 . S
C558 N565 1.356 . S
C559 C558 1.363 . S
C559 C562 1.363 1_554 S
N560 C562 1.356 . S
N560 H572 0.984 . S
N560 H573 0.985 . S
N561 C563 1.356 . S
N561 H566 0.984 . S
N561 H567 0.985 . S
C562 C556 1.379 . S
C562 C559 1.363 1_556 S
C562 N560 1.356 . S
C563 C557 1.363 1_554 S
C563 C558 1.379 . S
C563 N561 1.356 . S
N564 C556 1.356 . S
N564 H570 0.984 . S
N564 H571 0.984 . S
N565 C558 1.356 . S
N565 H568 0.984 . S
N565 H569 0.985 . S
H566 N561 0.984 . S
H567 N561 0.985 . S
H568 N565 0.984 . S
H569 N565 0.985 . S
H570 N564 0.984 . S
H571 N564 0.984 . S
H572 N560 0.984 . S
H573 N560 0.985 . S
C574 C575 1.363 . S
C574 C580 1.379 1_565 S
C574 N582 1.356 . S
C575 C574 1.363 . S
C575 C581 1.363 . S
C576 C577 1.363 . S
C576 C581 1.379 1_545 S
C576 N583 1.356 . S
C577 C576 1.363 . S
C577 C580 1.363 . S
N578 C580 1.356 . S
N578 H590 0.984 . S
N578 H591 0.985 . S
N579 C581 1.356 . S
N579 H584 0.984 . S
N579 H585 0.985 . S
C580 C574 1.379 1_545 S
C580 C577 1.363 . S
C580 N578 1.356 . S
C581 C575 1.363 . S
C581 C576 1.379 1_565 S
C581 N579 1.356 . S
N582 C574 1.356 . S
N582 H588 0.984 . S
N582 H589 0.984 . S
N583 C576 1.356 . S
N583 H586 0.984 . S
N583 H587 0.985 . S
H584 N579 0.984 . S
H585 N579 0.985 . S
H586 N583 0.984 . S
H587 N583 0.985 . S
H588 N582 0.984 . S
H589 N582 0.984 . S
H590 N578 0.984 . S
H591 N578 0.985 . S
C592 C593 1.363 . S
C592 C598 1.379 . S
C592 N600 1.356 . S
C593 C592 1.363 . S
C593 C599 1.363 1_556 S
C594 C595 1.363 . S
C594 C599 1.379 . S
C594 N601 1.356 . S
C595 C594 1.363 . S
C595 C598 1.363 1_554 S
N596 C598 1.356 . S
N596 H608 0.984 . S
N596 H609 0.985 . S
N597 C599 1.356 . S
N597 H602 0.984 . S
N597 H603 0.985 . S
C598 C592 1.379 . S
C598 C595 1.363 1_556 S
C598 N596 1.356 . S
C599 C593 1.363 1_554 S
C599 C594 1.379 . S
C599 N597 1.356 . S
N600 C592 1.356 . S
N600 H606 0.984 . S
N600 H607 0.984 . S
N601 C594 1.356 . S
N601 H604 0.984 . S
N601 H605 0.985 . S
H602 N597 0.984 . S
H603 N597 0.985 . S
H604 N601 0.984 . S
H605 N601 0.985 . S
H606 N600 0.984 . S
H607 N600 0.984 . S
H608 N596 0.984 . S
H609 N596 0.985 . S
C610 C611 1.363 . S
C610 C616 1.379 . S
C610 N618 1.356 . S
C611 C610 1.363 . S
C611 C617 1.363 . S
C612 C613 1.363 . S
C612 C617 1.379 . S
C612 N619 1.356 . S
C613 C612 1.363 . S
C613 C616 1.363 . S
N614 C616 1.356 . S
N614 H626 0.984 . S
N614 H627 0.985 . S
N615 C617 1.356 . S
N615 H620 0.984 . S
N615 H621 0.985 . S
C616 C610 1.379 . S
C616 C613 1.363 . S
C616 N614 1.356 . S
C617 C611 1.363 . S
C617 C612 1.379 . S
C617 N615 1.356 . S
N618 C610 1.356 . S
N618 H624 0.984 . S
N618 H625 0.984 . S
N619 C612 1.356 . S
N619 H622 0.984 . S
N619 H623 0.985 . S
H620 N615 0.984 . S
H621 N615 0.985 . S
H622 N619 0.984 . S
H623 N619 0.985 . S
H624 N618 0.984 . S
H625 N618 0.984 . S
H626 N614 0.984 . S
H627 N614 0.985 . S
C628 C629 1.363 . S
C628 C634 1.379 . S
C628 N636 1.356 . S
C629 C628 1.363 . S
C629 C635 1.363 . S
C630 C631 1.363 . S
C630 C635 1.379 . S
C630 N637 1.356 . S
C631 C630 1.363 . S
C631 C634 1.363 . S
N632 C634 1.356 . S
N632 H644 0.984 . S
N632 H645 0.985 . S
N633 C635 1.356 . S
N633 H638 0.984 . S
N633 H639 0.985 . S
C634 C628 1.379 . S
C634 C631 1.363 . S
C634 N632 1.356 . S
C635 C629 1.363 . S
C635 C630 1.379 . S
C635 N633 1.356 . S
N636 C628 1.356 . S
N636 H642 0.984 . S
N636 H643 0.984 . S
N637 C630 1.356 . S
N637 H640 0.984 . S
N637 H641 0.985 . S
H638 N633 0.984 . S
H639 N633 0.985 . S
H640 N637 0.984 . S
H641 N637 0.985 . S
H642 N636 0.984 . S
H643 N636 0.984 . S
H644 N632 0.984 . S
H645 N632 0.985 . S
C646 C647 1.363 . S
C646 C652 1.379 . S
C646 N654 1.356 . S
C647 C646 1.363 . S
C647 C653 1.363 . S
C648 C649 1.363 . S
C648 C653 1.379 . S
C648 N655 1.356 . S
C649 C648 1.363 . S
C649 C652 1.363 . S
N650 C652 1.356 . S
N650 H662 0.984 . S
N650 H663 0.985 . S
N651 C653 1.356 . S
N651 H656 0.984 . S
N651 H657 0.985 . S
C652 C646 1.379 . S
C652 C649 1.363 . S
C652 N650 1.356 . S
C653 C647 1.363 . S
C653 C648 1.379 . S
C653 N651 1.356 . S
N654 C646 1.356 . S
N654 H660 0.984 . S
N654 H661 0.984 . S
N655 C648 1.356 . S
N655 H658 0.984 . S
N655 H659 0.985 . S
H656 N651 0.984 . S
H657 N651 0.985 . S
H658 N655 0.984 . S
H659 N655 0.985 . S
H660 N654 0.984 . S
H661 N654 0.984 . S
H662 N650 0.984 . S
H663 N650 0.985 . S
C664 C665 1.363 . S
C664 C670 1.379 . S
C664 N672 1.356 . S
C665 C664 1.363 . S
C665 C671 1.363 1_556 S
C666 C667 1.363 . S
C666 C671 1.379 . S
C666 N673 1.356 . S
C667 C666 1.363 . S
C667 C670 1.363 1_554 S
N668 C670 1.356 . S
N668 H680 0.984 . S
N668 H681 0.985 . S
N669 C671 1.356 . S
N669 H674 0.984 . S
N669 H675 0.985 . S
C670 C664 1.379 . S
C670 C667 1.363 1_556 S
C670 N668 1.356 . S
C671 C665 1.363 1_554 S
C671 C666 1.379 . S
C671 N669 1.356 . S
N672 C664 1.356 . S
N672 H678 0.984 . S
N672 H679 0.984 . S
N673 C666 1.356 . S
N673 H676 0.984 . S
N673 H677 0.985 . S
H674 N669 0.984 . S
H675 N669 0.985 . S
H676 N673 0.984 . S
H677 N673 0.985 . S
H678 N672 0.984 . S
H679 N672 0.984 . S
H680 N668 0.984 . S
H681 N668 0.985 . S
C682 C683 1.363 . S
C682 C688 1.379 . S
C682 N690 1.356 . S
C683 C682 1.363 . S
C683 C689 1.363 . S
C684 C685 1.363 . S
C684 C689 1.379 . S
C684 N691 1.356 . S
C685 C684 1.363 . S
C685 C688 1.363 . S
N686 C688 1.356 . S
N686 H698 0.984 . S
N686 H699 0.985 . S
N687 C689 1.356 . S
N687 H692 0.984 . S
N687 H693 0.985 . S
C688 C682 1.379 . S
C688 C685 1.363 . S
C688 N686 1.356 . S
C689 C683 1.363 . S
C689 C684 1.379 . S
C689 N687 1.356 . S
N690 C682 1.356 . S
N690 H696 0.984 . S
N690 H697 0.984 . S
N691 C684 1.356 . S
N691 H694 0.984 . S
N691 H695 0.985 . S
H692 N687 0.984 . S
H693 N687 0.985 . S
H694 N691 0.984 . S
H695 N691 0.985 . S
H696 N690 0.984 . S
H697 N690 0.984 . S
H698 N686 0.984 . S
H699 N686 0.985 . S
C700 C701 1.363 . S
C700 C706 1.379 . S
C700 N708 1.356 . S
C701 C700 1.363 . S
C701 C707 1.363 . S
C702 C703 1.363 . S
C702 C707 1.379 . S
C702 N709 1.356 . S
C703 C702 1.363 . S
C703 C706 1.363 . S
N704 C706 1.356 . S
N704 H716 0.984 . S
N704 H717 0.985 . S
N705 C707 1.356 . S
N705 H710 0.984 . S
N705 H711 0.985 . S
C706 C700 1.379 . S
C706 C703 1.363 . S
C706 N704 1.356 . S
C707 C701 1.363 . S
C707 C702 1.379 . S
C707 N705 1.356 . S
N708 C700 1.356 . S
N708 H714 0.984 . S
N708 H715 0.984 . S
N709 C702 1.356 . S
N709 H712 0.984 . S
N709 H713 0.985 . S
H710 N705 0.984 . S
H711 N705 0.985 . S
H712 N709 0.984 . S
H713 N709 0.985 . S
H714 N708 0.984 . S
H715 N708 0.984 . S
H716 N704 0.984 . S
H717 N704 0.985 . S
C718 C719 1.363 . S
C718 C724 1.379 . S
C718 N726 1.356 . S
C719 C718 1.363 . S
C719 C725 1.363 . S
C720 C721 1.363 . S
C720 C725 1.379 . S
C720 N727 1.356 . S
C721 C720 1.363 . S
C721 C724 1.363 . S
N722 C724 1.356 . S
N722 H734 0.984 . S
N722 H735 0.985 . S
N723 C725 1.356 . S
N723 H728 0.984 . S
N723 H729 0.985 . S
C724 C718 1.379 . S
C724 C721 1.363 . S
C724 N722 1.356 . S
C725 C719 1.363 . S
C725 C720 1.379 . S
C725 N723 1.356 . S
N726 C718 1.356 . S
N726 H732 0.984 . S
N726 H733 0.984 . S
N727 C720 1.356 . S
N727 H730 0.984 . S
N727 H731 0.985 . S
H728 N723 0.984 . S
H729 N723 0.985 . S
H730 N727 0.984 . S
H731 N727 0.985 . S
H732 N726 0.984 . S
H733 N726 0.984 . S
H734 N722 0.984 . S
H735 N722 0.985 . S
C736 C737 1.363 . S
C736 C742 1.379 . S
C736 N744 1.356 1_554 S
C737 C736 1.363 . S
C737 C743 1.363 . S
C738 C739 1.363 . S
C738 C743 1.379 . S
C738 N745 1.356 . S
C739 C738 1.363 . S
C739 C742 1.363 . S
N740 C742 1.356 . S
N740 H752 0.984 . S
N740 H753 0.985 . S
N741 C743 1.356 . S
N741 H746 0.984 . S
N741 H747 0.985 . S
C742 C736 1.379 . S
C742 C739 1.363 . S
C742 N740 1.356 . S
C743 C737 1.363 . S
C743 C738 1.379 . S
C743 N741 1.356 . S
N744 C736 1.356 1_556 S
N744 H750 0.984 . S
N744 H751 0.984 . S
N745 C738 1.356 . S
N745 H748 0.984 . S
N745 H749 0.985 . S
H746 N741 0.984 . S
H747 N741 0.985 . S
H748 N745 0.984 . S
H749 N745 0.985 . S
H750 N744 0.984 . S
H751 N744 0.984 . S
H752 N740 0.984 . S
H753 N740 0.985 . S
C754 C755 1.363 . S
C754 C760 1.379 . S
C754 N762 1.356 . S
C755 C754 1.363 . S
C755 C761 1.363 . S
C756 C757 1.363 . S
C756 C761 1.379 . S
C756 N763 1.356 . S
C757 C756 1.363 . S
C757 C760 1.363 . S
N758 C760 1.356 . S
N758 H770 0.984 . S
N758 H771 0.985 . S
N759 C761 1.356 . S
N759 H764 0.984 . S
N759 H765 0.985 . S
C760 C754 1.379 . S
C760 C757 1.363 . S
C760 N758 1.356 . S
C761 C755 1.363 . S
C761 C756 1.379 . S
C761 N759 1.356 . S
N762 C754 1.356 . S
N762 H768 0.984 . S
N762 H769 0.984 . S
N763 C756 1.356 . S
N763 H766 0.984 . S
N763 H767 0.985 . S
H764 N759 0.984 . S
H765 N759 0.985 . S
H766 N763 0.984 . S
H767 N763 0.985 . S
H768 N762 0.984 . S
H769 N762 0.984 . S
H770 N758 0.984 . S
H771 N758 0.985 . S
C772 C773 1.363 . S
C772 C778 1.379 . S
C772 N780 1.356 . S
C773 C772 1.363 . S
C773 C779 1.363 . S
C774 C775 1.363 . S
C774 C779 1.379 . S
C774 N781 1.356 . S
C775 C774 1.363 . S
C775 C778 1.363 . S
N776 C778 1.356 . S
N776 H788 0.984 . S
N776 H789 0.985 . S
N777 C779 1.356 . S
N777 H782 0.984 . S
N777 H783 0.985 . S
C778 C772 1.379 . S
C778 C775 1.363 . S
C778 N776 1.356 . S
C779 C773 1.363 . S
C779 C774 1.379 . S
C779 N777 1.356 . S
N780 C772 1.356 . S
N780 H786 0.984 . S
N780 H787 0.984 . S
N781 C774 1.356 . S
N781 H784 0.984 . S
N781 H785 0.985 . S
H782 N777 0.984 . S
H783 N777 0.985 . S
H784 N781 0.984 . S
H785 N781 0.985 . S
H786 N780 0.984 . S
H787 N780 0.984 . S
H788 N776 0.984 . S
H789 N776 0.985 . S
C790 C791 1.363 . S
C790 C796 1.379 . S
C790 N798 1.356 . S
C791 C790 1.363 . S
C791 C797 1.363 . S
C792 C793 1.363 . S
C792 C797 1.379 . S
C792 N799 1.356 . S
C793 C792 1.363 . S
C793 C796 1.363 . S
N794 C796 1.356 1_554 S
N794 H806 0.984 . S
N794 H807 0.985 . S
N795 C797 1.356 . S
N795 H800 0.984 . S
N795 H801 0.985 . S
C796 C790 1.379 . S
C796 C793 1.363 . S
C796 N794 1.356 1_556 S
C797 C791 1.363 . S
C797 C792 1.379 . S
C797 N795 1.356 . S
N798 C790 1.356 . S
N798 H804 0.984 . S
N798 H805 0.984 . S
N799 C792 1.356 . S
N799 H802 0.984 . S
N799 H803 0.985 . S
H800 N795 0.984 . S
H801 N795 0.985 . S
H802 N799 0.984 . S
H803 N799 0.985 . S
H804 N798 0.984 . S
H805 N798 0.984 . S
H806 N794 0.984 . S
H807 N794 0.985 . S
C808 C809 1.363 . S
C808 C814 1.379 . S
C808 N816 1.363 . S
C809 C808 1.363 . S
C809 C815 1.363 . S
C810 C811 1.363 . S
C810 C815 1.379 . S
C810 N817 1.356 . S
C811 C810 1.363 . S
C811 C814 1.363 . S
N812 C814 1.356 . S
N812 H824 0.984 . S
N812 H825 0.985 . S
N813 C815 1.356 . S
N813 H818 0.984 . S
N813 H819 0.985 . S
C814 C808 1.379 . S
C814 C811 1.363 . S
C814 N812 1.356 . S
C815 C809 1.363 . S
C815 C810 1.379 . S
C815 N813 1.356 . S
N816 C808 1.363 . S
N816 H822 0.983 1_556 S
N816 H823 0.980 1_556 S
N817 C810 1.356 . S
N817 H820 0.984 . S
N817 H821 0.985 . S
H818 N813 0.984 . S
H819 N813 0.985 . S
H820 N817 0.984 . S
H821 N817 0.985 . S
H822 N816 0.983 1_554 S
H823 N816 0.980 1_554 S
H824 N812 0.984 . S
H825 N812 0.985 . S
C826 C827 1.363 . S
C826 C832 1.379 . S
C826 N834 1.356 . S
C827 C826 1.363 . S
C827 C833 1.363 . S
C828 C829 1.363 . S
C828 C833 1.379 . S
C828 N835 1.356 . S
C829 C828 1.363 . S
C829 C832 1.363 . S
N830 C832 1.356 . S
N830 H842 0.984 . S
N830 H843 0.985 . S
N831 C833 1.356 . S
N831 H836 0.984 . S
N831 H837 0.985 . S
C832 C826 1.379 . S
C832 C829 1.363 . S
C832 N830 1.356 . S
C833 C827 1.363 . S
C833 C828 1.379 . S
C833 N831 1.356 . S
N834 C826 1.356 . S
N834 H840 0.984 . S
N834 H841 0.984 . S
N835 C828 1.356 . S
N835 H838 0.984 . S
N835 H839 0.985 . S
H836 N831 0.984 . S
H837 N831 0.985 . S
H838 N835 0.984 . S
H839 N835 0.985 . S
H840 N834 0.984 . S
H841 N834 0.984 . S
H842 N830 0.984 . S
H843 N830 0.985 . S
C844 C845 1.363 . S
C844 C850 1.379 . S
C844 N852 1.356 . S
C845 C844 1.363 . S
C845 C851 1.363 . S
C846 C847 1.363 . S
C846 C851 1.379 . S
C846 N853 1.356 . S
C847 C846 1.363 . S
C847 C850 1.363 . S
N848 C850 1.356 . S
N848 H860 0.984 . S
N848 H861 0.985 . S
N849 C851 1.356 . S
N849 H854 0.984 . S
N849 H855 0.985 . S
C850 C844 1.379 . S
C850 C847 1.363 . S
C850 N848 1.356 . S
C851 C845 1.363 . S
C851 C846 1.379 . S
C851 N849 1.356 . S
N852 C844 1.356 . S
N852 H858 0.984 . S
N852 H859 0.984 . S
N853 C846 1.356 . S
N853 H856 0.984 . S
N853 H857 0.985 . S
H854 N849 0.984 . S
H855 N849 0.985 . S
H856 N853 0.984 . S
H857 N853 0.985 . S
H858 N852 0.984 . S
H859 N852 0.984 . S
H860 N848 0.984 . S
H861 N848 0.985 . S
C862 C863 1.363 . S
C862 C868 1.379 . S
C862 N870 1.356 . S
C863 C862 1.363 . S
C863 C869 1.363 . S
C864 C865 1.363 . S
C864 C869 1.379 . S
C864 N871 1.356 . S
C865 C864 1.363 . S
C865 C868 1.363 . S
N866 C868 1.356 . S
N866 H878 0.984 . S
N866 H879 0.985 . S
N867 C869 1.356 . S
N867 H872 0.984 . S
N867 H873 0.985 . S
C868 C862 1.379 . S
C868 C865 1.363 . S
C868 N866 1.356 . S
C869 C863 1.363 . S
C869 C864 1.379 . S
C869 N867 1.356 . S
N870 C862 1.356 . S
N870 H876 0.984 . S
N870 H877 0.984 1_554 S
N871 C864 1.356 . S
N871 H874 0.984 . S
N871 H875 0.985 . S
H872 N867 0.984 . S
H873 N867 0.985 . S
H874 N871 0.984 . S
H875 N871 0.985 . S
H876 N870 0.984 . S
H877 N870 0.984 1_556 S
H878 N866 0.984 . S
H879 N866 0.985 . S
C880 C881 1.363 . S
C880 C886 1.379 . S
C880 N888 1.356 . S
C881 C880 1.363 . S
C881 C887 1.363 . S
C882 C883 1.363 . S
C882 C887 1.379 . S
C882 N889 1.356 . S
C883 C882 1.363 . S
C883 C886 1.363 . S
N884 C886 1.356 . S
N884 H896 0.984 . S
N884 H897 0.985 . S
N885 C887 1.356 . S
N885 H890 0.984 . S
N885 H891 0.985 . S
C886 C880 1.379 . S
C886 C883 1.363 . S
C886 N884 1.356 . S
C887 C881 1.363 . S
C887 C882 1.379 . S
C887 N885 1.356 . S
N888 C880 1.356 . S
N888 H894 0.984 . S
N888 H895 0.984 . S
N889 C882 1.356 . S
N889 H892 0.984 . S
N889 H893 0.985 . S
H890 N885 0.984 . S
H891 N885 0.985 . S
H892 N889 0.984 . S
H893 N889 0.985 . S
H894 N888 0.984 . S
H895 N888 0.984 . S
H896 N884 0.984 . S
H897 N884 0.985 . S
C898 C899 1.363 . S
C898 C904 1.379 . S
C898 N906 1.356 1_556 S
C899 C898 1.363 . S
C899 C905 1.363 . S
C900 C901 1.363 . S
C900 C905 1.379 . S
C900 N907 1.356 . S
C901 C900 1.363 . S
C901 C904 1.363 . S
N902 C904 1.356 . S
N902 H914 0.984 . S
N902 H915 0.985 . S
N903 C905 1.356 . S
N903 H908 0.984 . S
N903 H909 0.985 . S
C904 C898 1.379 . S
C904 C901 1.363 . S
C904 N902 1.356 . S
C905 C899 1.363 . S
C905 C900 1.379 . S
C905 N903 1.356 . S
N906 C898 1.356 1_554 S
N906 H912 0.984 . S
N906 H913 0.984 . S
N907 C900 1.356 . S
N907 H910 0.984 . S
N907 H911 0.985 . S
H908 N903 0.984 . S
H909 N903 0.985 . S
H910 N907 0.984 . S
H911 N907 0.985 . S
H912 N906 0.984 . S
H913 N906 0.984 . S
H914 N902 0.984 . S
H915 N902 0.985 . S
C916 C917 1.363 . S
C916 C922 1.379 . S
C916 N924 1.356 . S
C917 C916 1.363 . S
C917 C923 1.363 . S
C918 C919 1.363 . S
C918 C923 1.379 . S
C918 N925 1.356 1_554 S
C919 C918 1.363 . S
C919 C922 1.363 . S
N920 C922 1.356 . S
N920 H932 0.984 . S
N920 H933 0.985 . S
N921 C923 1.356 . S
N921 H926 0.984 . S
N921 H927 0.985 . S
C922 C916 1.379 . S
C922 C919 1.363 . S
C922 N920 1.356 . S
C923 C917 1.363 . S
C923 C918 1.379 . S
C923 N921 1.356 . S
N924 C916 1.356 . S
N924 H930 0.984 . S
N924 H931 0.984 . S
N925 C918 1.356 1_556 S
N925 H928 0.984 . S
N925 H929 0.985 . S
H926 N921 0.984 . S
H927 N921 0.985 . S
H928 N925 0.984 . S
H929 N925 0.985 . S
H930 N924 0.984 . S
H931 N924 0.984 . S
H932 N920 0.984 . S
H933 N920 0.985 . S
C934 C935 1.363 . S
C934 C940 1.379 . S
C934 N942 1.356 . S
C935 C934 1.363 . S
C935 C941 1.363 . S
C936 C937 1.363 . S
C936 C941 1.379 . S
C936 N943 1.356 . S
C937 C936 1.363 . S
C937 C940 1.363 . S
N938 C940 1.356 . S
N938 H950 0.984 . S
N938 H951 0.985 . S
N939 C941 1.356 . S
N939 H944 0.984 . S
N939 H945 0.985 . S
C940 C934 1.379 . S
C940 C937 1.363 . S
C940 N938 1.356 . S
C941 C935 1.363 . S
C941 C936 1.379 . S
C941 N939 1.356 . S
N942 C934 1.356 . S
N942 H948 0.984 . S
N942 H949 0.984 . S
N943 C936 1.356 . S
N943 H946 0.984 . S
N943 H947 0.985 . S
H944 N939 0.984 . S
H945 N939 0.985 . S
H946 N943 0.984 . S
H947 N943 0.985 . S
H948 N942 0.984 . S
H949 N942 0.984 . S
H950 N938 0.984 . S
H951 N938 0.985 . S
C952 C953 1.363 . S
C952 C958 1.379 . S
C952 N960 1.356 . S
C953 C952 1.363 . S
C953 C959 1.363 . S
C954 C955 1.363 . S
C954 C959 1.379 . S
C954 N961 1.356 . S
C955 C954 1.363 . S
C955 C958 1.363 . S
N956 C958 1.356 . S
N956 H968 0.984 . S
N956 H969 0.985 . S
N957 C959 1.356 . S
N957 H962 0.984 . S
N957 H963 0.985 . S
C958 C952 1.379 . S
C958 C955 1.363 . S
C958 N956 1.356 . S
C959 C953 1.363 . S
C959 C954 1.379 . S
C959 N957 1.356 . S
N960 C952 1.356 . S
N960 H966 0.984 . S
N960 H967 0.984 . S
N961 C954 1.356 . S
N961 H964 0.984 . S
N961 H965 0.985 . S
H962 N957 0.984 . S
H963 N957 0.985 . S
H964 N961 0.984 . S
H965 N961 0.985 . S
H966 N960 0.984 . S
H967 N960 0.984 . S
H968 N956 0.984 . S
H969 N956 0.985 . S
C970 C971 1.363 . S
C970 C976 1.379 . S
C970 N978 1.356 . S
C971 C970 1.363 . S
C971 C977 1.363 . S
C972 C973 1.363 . S
C972 C977 1.379 . S
C972 N979 1.356 . S
C973 C972 1.363 . S
C973 C976 1.363 . S
N974 C976 1.356 . S
N974 H986 0.984 . S
N974 H987 0.985 . S
N975 C977 1.356 . S
N975 H980 0.993 . S
N975 H981 0.985 . S
C976 C970 1.379 . S
C976 C973 1.363 . S
C976 N974 1.356 . S
C977 C971 1.363 . S
C977 C972 1.379 . S
C977 N975 1.356 . S
N978 C970 1.356 . S
N978 H984 0.984 . S
N978 H985 0.984 . S
N979 C972 1.356 . S
N979 H982 0.984 . S
N979 H983 0.985 . S
H980 N975 0.993 . S
H981 N975 0.985 . S
H982 N979 0.984 . S
H983 N979 0.985 . S
H984 N978 0.984 . S
H985 N978 0.984 . S
H986 N974 0.984 . S
H987 N974 0.985 . S
C988 C989 1.363 . S
C988 C994 1.379 . S
C988 N996 1.356 . S
C989 C988 1.363 . S
C989 C995 1.363 . S
C990 C991 1.363 . S
C990 C995 1.379 . S
C990 N997 1.356 1_556 S
C991 C990 1.363 . S
C991 C994 1.363 . S
N992 C994 1.356 . S
N992 H1004 0.984 . S
N992 H1005 0.985 . S
N993 C995 1.356 . S
N993 H998 0.984 . S
N993 H999 0.985 . S
C994 C988 1.379 . S
C994 C991 1.363 . S
C994 N992 1.356 . S
C995 C989 1.363 . S
C995 C990 1.379 . S
C995 N993 1.356 . S
N996 C988 1.356 . S
N996 H1002 0.984 . S
N996 H1003 0.984 . S
N997 C990 1.356 1_554 S
N997 H1000 0.984 . S
N997 H1001 0.985 . S
H998 N993 0.984 . S
H999 N993 0.985 . S
H1000 N997 0.984 . S
H1001 N997 0.985 . S
H1002 N996 0.984 . S
H1003 N996 0.984 . S
H1004 N992 0.984 . S
H1005 N992 0.985 . S
C1006 C1007 1.363 . S
C1006 C1012 1.379 . S
C1006 N1014 1.356 . S
C1007 C1006 1.363 . S
C1007 C1013 1.363 . S
C1008 C1009 1.363 . S
C1008 C1013 1.379 . S
C1008 N1015 1.356 . S
C1009 C1008 1.363 . S
C1009 C1012 1.363 . S
N1010 C1012 1.356 . S
N1010 H1022 0.984 . S
N1010 H1023 0.985 . S
N1011 C1013 1.356 . S
N1011 H1016 0.984 . S
N1011 H1017 0.985 . S
C1012 C1006 1.379 . S
C1012 C1009 1.363 . S
C1012 N1010 1.356 . S
C1013 C1007 1.363 . S
C1013 C1008 1.379 . S
C1013 N1011 1.356 . S
N1014 C1006 1.356 . S
N1014 H1020 0.984 . S
N1014 H1021 0.984 . S
N1015 C1008 1.356 . S
N1015 H1018 0.984 . S
N1015 H1019 0.985 . S
H1016 N1011 0.984 . S
H1017 N1011 0.985 . S
H1018 N1015 0.984 . S
H1019 N1015 0.985 . S
H1020 N1014 0.984 . S
H1021 N1014 0.984 . S
H1022 N1010 0.984 . S
H1023 N1010 0.985 . S
C1024 C1025 1.363 . S
C1024 C1030 1.379 . S
C1024 N1032 1.356 . S
C1025 C1024 1.363 . S
C1025 C1031 1.363 . S
C1026 C1027 1.363 . S
C1026 C1031 1.379 . S
C1026 N1033 1.356 . S
C1027 C1026 1.363 . S
C1027 C1030 1.363 . S
N1028 C1030 1.356 1_556 S
N1028 H1040 0.984 . S
N1028 H1041 0.985 . S
N1029 C1031 1.356 . S
N1029 H1034 0.984 . S
N1029 H1035 0.985 . S
C1030 C1024 1.379 . S
C1030 C1027 1.363 . S
C1030 N1028 1.356 1_554 S
C1031 C1025 1.363 . S
C1031 C1026 1.379 . S
C1031 N1029 1.356 . S
N1032 C1024 1.356 . S
N1032 H1038 0.984 . S
N1032 H1039 0.984 . S
N1033 C1026 1.356 . S
N1033 H1036 0.984 . S
N1033 H1037 0.985 . S
H1034 N1029 0.984 . S
H1035 N1029 0.985 . S
H1036 N1033 0.984 . S
H1037 N1033 0.985 . S
H1038 N1032 0.984 . S
H1039 N1032 0.984 . S
H1040 N1028 0.984 . S
H1041 N1028 0.985 . S
C1042 C1043 1.376 . S
C1042 C1048 1.365 1_655 S
C1042 N1050 1.362 . S
C1043 C1042 1.376 . S
C1043 C1049 1.363 . S
C1044 C1045 1.363 . S
C1044 C1049 1.379 1_455 S
C1044 N1051 1.356 . S
C1045 C1044 1.363 . S
C1045 C1048 1.363 . S
N1046 C1048 1.356 . S
N1046 H1058 0.984 . S
N1046 H1059 0.985 . S
N1047 C1049 1.356 . S
N1047 H1052 0.984 . S
N1047 H1053 0.985 . S
C1048 C1042 1.365 1_455 S
C1048 C1045 1.363 . S
C1048 N1046 1.356 . S
C1049 C1043 1.363 . S
C1049 C1044 1.379 1_655 S
C1049 N1047 1.356 . S
N1050 C1042 1.362 . S
N1050 H1056 0.984 1_655 S
N1050 H1057 0.984 . S
N1051 C1044 1.356 . S
N1051 H1054 0.984 . S
N1051 H1055 0.969 1_455 S
H1052 N1047 0.984 . S
H1053 N1047 0.985 . S
H1054 N1051 0.984 . S
H1055 N1051 0.969 1_655 S
H1056 N1050 0.984 1_455 S
H1057 N1050 0.984 . S
H1058 N1046 0.984 . S
H1059 N1046 0.985 . S
C1060 C1061 1.363 . S
C1060 C1066 1.379 . S
C1060 N1068 1.356 . S
C1061 C1060 1.363 . S
C1061 C1067 1.363 . S
C1062 C1063 1.363 . S
C1062 C1067 1.379 . S
C1062 N1069 1.356 . S
C1063 C1062 1.363 . S
C1063 C1066 1.363 . S
N1064 C1066 1.356 . S
N1064 H1076 0.984 . S
N1064 H1077 0.985 . S
N1065 C1067 1.356 . S
N1065 H1070 0.984 . S
N1065 H1071 0.985 . S
C1066 C1060 1.379 . S
C1066 C1063 1.363 . S
C1066 N1064 1.356 . S
C1067 C1061 1.363 . S
C1067 C1062 1.379 . S
C1067 N1065 1.356 . S
N1068 C1060 1.356 . S
N1068 H1074 0.984 . S
N1068 H1075 0.984 . S
N1069 C1062 1.356 . S
N1069 H1072 0.984 . S
N1069 H1073 0.985 . S
H1070 N1065 0.984 . S
H1071 N1065 0.985 . S
H1072 N1069 0.984 . S
H1073 N1069 0.985 . S
H1074 N1068 0.984 . S
H1075 N1068 0.984 . S
H1076 N1064 0.984 . S
H1077 N1064 0.985 . S
C1078 C1079 1.363 . S
C1078 C1084 1.379 . S
C1078 N1086 1.356 . S
C1079 C1078 1.363 . S
C1079 C1085 1.363 . S
C1080 C1081 1.363 . S
C1080 C1085 1.379 . S
C1080 N1087 1.356 . S
C1081 C1080 1.363 . S
C1081 C1084 1.363 . S
N1082 C1084 1.356 . S
N1082 H1094 0.984 . S
N1082 H1095 0.985 . S
N1083 C1085 1.356 . S
N1083 H1088 0.984 . S
N1083 H1089 0.985 . S
C1084 C1078 1.379 . S
C1084 C1081 1.363 . S
C1084 N1082 1.356 . S
C1085 C1079 1.363 . S
C1085 C1080 1.379 . S
C1085 N1083 1.356 . S
N1086 C1078 1.356 . S
N1086 H1092 0.984 . S
N1086 H1093 0.984 . S
N1087 C1080 1.356 . S
N1087 H1090 0.984 1_556 S
N1087 H1091 0.985 1_556 S
H1088 N1083 0.984 . S
H1089 N1083 0.985 . S
H1090 N1087 0.984 1_554 S
H1091 N1087 0.985 1_554 S
H1092 N1086 0.984 . S
H1093 N1086 0.984 . S
H1094 N1082 0.984 . S
H1095 N1082 0.985 . S
C1096 C1097 1.363 . S
C1096 C1102 1.379 . S
C1096 N1104 1.356 . S
C1097 C1096 1.363 . S
C1097 C1103 1.363 . S
C1098 C1099 1.363 . S
C1098 C1103 1.379 . S
C1098 N1105 1.356 . S
C1099 C1098 1.363 . S
C1099 C1102 1.363 . S
N1100 C1102 1.356 . S
N1100 H1112 0.984 . S
N1100 H1113 0.985 . S
N1101 C1103 1.356 . S
N1101 H1106 0.984 . S
N1101 H1107 0.985 . S
C1102 C1096 1.379 . S
C1102 C1099 1.363 . S
C1102 N1100 1.356 . S
C1103 C1097 1.363 . S
C1103 C1098 1.379 . S
C1103 N1101 1.356 . S
N1104 C1096 1.356 . S
N1104 H1110 0.984 . S
N1104 H1111 0.984 . S
N1105 C1098 1.356 . S
N1105 H1108 0.984 . S
N1105 H1109 0.985 . S
H1106 N1101 0.984 . S
H1107 N1101 0.985 . S
H1108 N1105 0.984 . S
H1109 N1105 0.985 . S
H1110 N1104 0.984 . S
H1111 N1104 0.984 . S
H1112 N1100 0.984 . S
H1113 N1100 0.985 . S
C1114 C1115 1.363 . S
C1114 C1120 1.379 . S
C1114 N1122 1.356 . S
C1115 C1114 1.363 . S
C1115 C1121 1.363 . S
C1116 C1117 1.363 . S
C1116 C1121 1.379 . S
C1116 N1123 1.356 . S
C1117 C1116 1.363 . S
C1117 C1120 1.363 . S
N1118 C1120 1.356 . S
N1118 H1130 0.984 . S
N1118 H1131 0.985 . S
N1119 C1121 1.356 . S
N1119 H1124 0.984 . S
N1119 H1125 0.985 . S
C1120 C1114 1.379 . S
C1120 C1117 1.363 . S
C1120 N1118 1.356 . S
C1121 C1115 1.363 . S
C1121 C1116 1.379 . S
C1121 N1119 1.356 . S
N1122 C1114 1.356 . S
N1122 H1128 0.984 . S
N1122 H1129 0.984 . S
N1123 C1116 1.356 . S
N1123 H1126 0.984 . S
N1123 H1127 0.985 . S
H1124 N1119 0.984 . S
H1125 N1119 0.985 . S
H1126 N1123 0.984 . S
H1127 N1123 0.985 . S
H1128 N1122 0.984 . S
H1129 N1122 0.984 . S
H1130 N1118 0.984 . S
H1131 N1118 0.985 . S
C1132 C1133 1.363 . S
C1132 C1138 1.379 . S
C1132 N1140 1.356 . S
C1133 C1132 1.363 . S
C1133 C1139 1.363 . S
C1134 C1135 1.364 . S
C1134 C1139 1.381 . S
C1134 N1141 1.353 1_556 S
C1135 C1134 1.364 . S
C1135 C1138 1.363 . S
N1136 C1138 1.356 . S
N1136 H1148 0.984 . S
N1136 H1149 0.985 . S
N1137 C1139 1.356 . S
N1137 H1142 0.984 . S
N1137 H1143 0.985 . S
C1138 C1132 1.379 . S
C1138 C1135 1.363 . S
C1138 N1136 1.356 . S
C1139 C1133 1.363 . S
C1139 C1134 1.381 . S
C1139 N1137 1.356 . S
N1140 C1132 1.356 . S
N1140 H1146 0.984 . S
N1140 H1147 0.984 . S
N1141 C1134 1.353 1_554 S
N1141 H1144 0.984 . S
N1141 H1145 0.985 . S
H1142 N1137 0.984 . S
H1143 N1137 0.985 . S
H1144 N1141 0.984 . S
H1145 N1141 0.985 . S
H1146 N1140 0.984 . S
H1147 N1140 0.984 . S
H1148 N1136 0.984 . S
H1149 N1136 0.985 . S
C1150 C1151 1.363 . S
C1150 C1156 1.379 1_455 S
C1150 N1158 1.356 . S
C1151 C1150 1.363 . S
C1151 C1157 1.363 . S
C1152 C1153 1.363 . S
C1152 C1157 1.379 1_655 S
C1152 N1159 1.356 . S
C1153 C1152 1.363 . S
C1153 C1156 1.363 . S
N1154 C1156 1.356 . S
N1154 H1166 0.984 . S
N1154 H1167 0.985 . S
N1155 C1157 1.356 . S
N1155 H1160 0.984 1_554 S
N1155 H1161 0.985 . S
C1156 C1150 1.379 1_655 S
C1156 C1153 1.363 . S
C1156 N1154 1.356 . S
C1157 C1151 1.363 . S
C1157 C1152 1.379 1_455 S
C1157 N1155 1.356 . S
N1158 C1150 1.356 . S
N1158 H1164 0.984 . S
N1158 H1165 0.984 . S
N1159 C1152 1.356 . S
N1159 H1162 0.984 . S
N1159 H1163 0.985 . S
H1160 N1155 0.984 1_556 S
H1161 N1155 0.985 . S
H1162 N1159 0.984 . S
H1163 N1159 0.985 . S
H1164 N1158 0.984 . S
H1165 N1158 0.984 . S
H1166 N1154 0.984 . S
H1167 N1154 0.985 . S
C1168 C1169 1.363 . S
C1168 C1174 1.386 . S
C1168 N1176 1.356 . S
C1169 C1168 1.363 . S
C1169 C1175 1.363 . S
C1170 C1171 1.363 . S
C1170 C1175 1.379 . S
C1170 N1177 1.356 . S
C1171 C1170 1.363 . S
C1171 C1174 1.365 . S
N1172 C1174 1.347 1_554 S
N1172 H1184 0.984 . S
N1172 H1185 0.985 . S
N1173 C1175 1.356 . S
N1173 H1178 0.984 . S
N1173 H1179 0.985 . S
C1174 C1168 1.386 . S
C1174 C1171 1.365 . S
C1174 N1172 1.347 1_556 S
C1175 C1169 1.363 . S
C1175 C1170 1.379 . S
C1175 N1173 1.356 . S
N1176 C1168 1.356 . S
N1176 H1182 0.984 . S
N1176 H1183 0.984 . S
N1177 C1170 1.356 . S
N1177 H1180 0.984 . S
N1177 H1181 0.985 . S
H1178 N1173 0.984 . S
H1179 N1173 0.985 . S
H1180 N1177 0.984 . S
H1181 N1177 0.985 . S
H1182 N1176 0.984 . S
H1183 N1176 0.984 . S
H1184 N1172 0.984 . S
H1185 N1172 0.985 . S
C1186 C1187 1.363 1_655 S
C1186 C1192 1.379 . S
C1186 N1194 1.356 . S
C1187 C1186 1.363 1_455 S
C1187 C1193 1.363 . S
C1188 C1189 1.363 1_455 S
C1188 C1193 1.379 . S
C1188 N1195 1.356 . S
C1189 C1188 1.363 1_655 S
C1189 C1192 1.363 . S
N1190 C1192 1.356 . S
N1190 H1202 0.984 . S
N1190 H1203 0.985 . S
N1191 C1193 1.356 . S
N1191 H1196 0.984 . S
N1191 H1197 0.985 . S
C1192 C1186 1.379 . S
C1192 C1189 1.363 . S
C1192 N1190 1.356 . S
C1193 C1187 1.363 . S
C1193 C1188 1.379 . S
C1193 N1191 1.356 . S
N1194 C1186 1.356 . S
N1194 H1200 0.984 . S
N1194 H1201 0.984 1_655 S
N1195 C1188 1.356 . S
N1195 H1198 0.984 1_455 S
N1195 H1199 0.985 . S
H1196 N1191 0.984 . S
H1197 N1191 0.985 . S
H1198 N1195 0.984 1_655 S
H1199 N1195 0.985 . S
H1200 N1194 0.984 . S
H1201 N1194 0.984 1_455 S
H1202 N1190 0.984 . S
H1203 N1190 0.985 . S
C1204 C1205 1.363 . S
C1204 C1210 1.379 . S
C1204 N1212 1.356 . S
C1205 C1204 1.363 . S
C1205 C1211 1.363 . S
C1206 C1207 1.363 . S
C1206 C1211 1.379 . S
C1206 N1213 1.356 . S
C1207 C1206 1.363 . S
C1207 C1210 1.363 . S
N1208 C1210 1.356 . S
N1208 H1220 0.984 . S
N1208 H1221 0.985 . S
N1209 C1211 1.356 . S
N1209 H1214 0.984 . S
N1209 H1215 0.985 . S
C1210 C1204 1.379 . S
C1210 C1207 1.363 . S
C1210 N1208 1.356 . S
C1211 C1205 1.363 . S
C1211 C1206 1.379 . S
C1211 N1209 1.356 . S
N1212 C1204 1.356 . S
N1212 H1218 0.984 . S
N1212 H1219 0.984 . S
N1213 C1206 1.356 . S
N1213 H1216 0.984 . S
N1213 H1217 0.985 . S
H1214 N1209 0.984 . S
H1215 N1209 0.985 . S
H1216 N1213 0.984 . S
H1217 N1213 0.985 . S
H1218 N1212 0.984 . S
H1219 N1212 0.984 . S
H1220 N1208 0.984 . S
H1221 N1208 0.985 . S
C1222 C1223 1.363 . S
C1222 C1228 1.379 . S
C1222 N1230 1.356 . S
C1223 C1222 1.363 . S
C1223 C1229 1.363 . S
C1224 C1225 1.363 . S
C1224 C1229 1.379 . S
C1224 N1231 1.356 . S
C1225 C1224 1.363 . S
C1225 C1228 1.363 . S
N1226 C1228 1.356 . S
N1226 H1238 0.984 . S
N1226 H1239 0.985 . S
N1227 C1229 1.356 . S
N1227 H1232 0.984 . S
N1227 H1233 0.985 . S
C1228 C1222 1.379 . S
C1228 C1225 1.363 . S
C1228 N1226 1.356 . S
C1229 C1223 1.363 . S
C1229 C1224 1.379 . S
C1229 N1227 1.356 . S
N1230 C1222 1.356 . S
N1230 H1236 0.984 . S
N1230 H1237 0.984 . S
N1231 C1224 1.356 . S
N1231 H1234 0.984 1_554 S
N1231 H1235 0.985 . S
H1232 N1227 0.984 . S
H1233 N1227 0.985 . S
H1234 N1231 0.984 1_556 S
H1235 N1231 0.985 . S
H1236 N1230 0.984 . S
H1237 N1230 0.984 . S
H1238 N1226 0.984 . S
H1239 N1226 0.985 . S
C1240 C1241 1.363 . S
C1240 C1246 1.379 . S
C1240 N1248 1.356 . S
C1241 C1240 1.363 . S
C1241 C1247 1.363 . S
C1242 C1243 1.363 . S
C1242 C1247 1.379 . S
C1242 N1249 1.356 . S
C1243 C1242 1.363 . S
C1243 C1246 1.363 . S
N1244 C1246 1.356 . S
N1244 H1256 0.984 . S
N1244 H1257 0.985 . S
N1245 C1247 1.356 . S
N1245 H1250 0.984 . S
N1245 H1251 0.985 . S
C1246 C1240 1.379 . S
C1246 C1243 1.363 . S
C1246 N1244 1.356 . S
C1247 C1241 1.363 . S
C1247 C1242 1.379 . S
C1247 N1245 1.356 . S
N1248 C1240 1.356 . S
N1248 H1254 0.984 . S
N1248 H1255 0.984 . S
N1249 C1242 1.356 . S
N1249 H1252 0.984 . S
N1249 H1253 0.985 . S
H1250 N1245 0.984 . S
H1251 N1245 0.985 . S
H1252 N1249 0.984 . S
H1253 N1249 0.985 . S
H1254 N1248 0.984 . S
H1255 N1248 0.984 . S
H1256 N1244 0.984 . S
H1257 N1244 0.985 . S
C1258 C1259 1.363 . S
C1258 C1264 1.379 . S
C1258 N1266 1.356 . S
C1259 C1258 1.363 . S
C1259 C1265 1.363 . S
C1260 C1261 1.363 . S
C1260 C1265 1.379 . S
C1260 N1267 1.356 . S
C1261 C1260 1.363 . S
C1261 C1264 1.363 . S
N1262 C1264 1.356 . S
N1262 H1274 0.984 . S
N1262 H1275 0.985 . S
N1263 C1265 1.356 . S
N1263 H1268 0.984 . S
N1263 H1269 0.985 . S
C1264 C1258 1.379 . S
C1264 C1261 1.363 . S
C1264 N1262 1.356 . S
C1265 C1259 1.363 . S
C1265 C1260 1.379 . S
C1265 N1263 1.356 . S
N1266 C1258 1.356 . S
N1266 H1272 0.984 . S
N1266 H1273 0.984 . S
N1267 C1260 1.356 . S
N1267 H1270 0.984 . S
N1267 H1271 0.985 . S
H1268 N1263 0.984 . S
H1269 N1263 0.985 . S
H1270 N1267 0.984 . S
H1271 N1267 0.985 . S
H1272 N1266 0.984 . S
H1273 N1266 0.984 . S
H1274 N1262 0.984 . S
H1275 N1262 0.985 . S
C1276 C1277 1.363 . S
C1276 C1282 1.379 . S
C1276 N1284 1.356 . S
C1277 C1276 1.363 . S
C1277 C1283 1.363 . S
C1278 C1279 1.363 1_556 S
C1278 C1283 1.379 1_556 S
C1278 N1285 1.356 . S
C1279 C1278 1.363 1_554 S
C1279 C1282 1.363 . S
N1280 C1282 1.356 . S
N1280 H1292 0.984 . S
N1280 H1293 0.985 . S
N1281 C1283 1.356 . S
N1281 H1286 0.984 . S
N1281 H1287 0.985 . S
C1282 C1276 1.379 . S
C1282 C1279 1.363 . S
C1282 N1280 1.356 . S
C1283 C1277 1.363 . S
C1283 C1278 1.379 1_554 S
C1283 N1281 1.356 . S
N1284 C1276 1.356 . S
N1284 H1290 0.984 . S
N1284 H1291 0.984 . S
N1285 C1278 1.356 . S
N1285 H1288 0.984 . S
N1285 H1289 0.985 . S
H1286 N1281 0.984 . S
H1287 N1281 0.985 . S
H1288 N1285 0.984 . S
H1289 N1285 0.985 . S
H1290 N1284 0.984 . S
H1291 N1284 0.984 . S
H1292 N1280 0.984 . S
H1293 N1280 0.985 . S
C1294 C1295 1.363 . S
C1294 C1300 1.379 1_455 S
C1294 N1302 1.356 . S
C1295 C1294 1.363 . S
C1295 C1301 1.363 . S
C1296 C1297 1.363 . S
C1296 C1301 1.379 1_655 S
C1296 N1303 1.356 . S
C1297 C1296 1.363 . S
C1297 C1300 1.363 . S
N1298 C1300 1.356 . S
N1298 H1310 0.984 . S
N1298 H1311 0.985 1_556 S
N1299 C1301 1.356 . S
N1299 H1304 0.984 . S
N1299 H1305 1.001 . S
C1300 C1294 1.379 1_655 S
C1300 C1297 1.363 . S
C1300 N1298 1.356 . S
C1301 C1295 1.363 . S
C1301 C1296 1.379 1_455 S
C1301 N1299 1.356 . S
N1302 C1294 1.356 . S
N1302 H1308 0.984 . S
N1302 H1309 0.984 . S
N1303 C1296 1.356 . S
N1303 H1306 0.984 . S
N1303 H1307 0.985 . S
H1304 N1299 0.984 . S
H1305 N1299 1.001 . S
H1306 N1303 0.984 . S
H1307 N1303 0.985 . S
H1308 N1302 0.984 . S
H1309 N1302 0.984 . S
H1310 N1298 0.984 . S
H1311 N1298 0.985 1_554 S
C1312 C1313 1.363 . S
C1312 C1318 1.379 . S
C1312 N1320 1.356 . S
C1313 C1312 1.363 . S
C1313 C1319 1.363 . S
C1314 C1315 1.363 . S
C1314 C1319 1.379 . S
C1314 N1321 1.356 . S
C1315 C1314 1.363 . S
C1315 C1318 1.363 . S
N1316 C1318 1.356 . S
N1316 H1328 0.984 . S
N1316 H1329 0.985 . S
N1317 C1319 1.356 . S
N1317 H1322 0.984 . S
N1317 H1323 0.985 . S
C1318 C1312 1.379 . S
C1318 C1315 1.363 . S
C1318 N1316 1.356 . S
C1319 C1313 1.363 . S
C1319 C1314 1.379 . S
C1319 N1317 1.356 . S
N1320 C1312 1.356 . S
N1320 H1326 0.984 . S
N1320 H1327 0.984 . S
N1321 C1314 1.356 . S
N1321 H1324 0.984 . S
N1321 H1325 0.985 . S
H1322 N1317 0.984 . S
H1323 N1317 0.985 . S
H1324 N1321 0.984 . S
H1325 N1321 0.985 . S
H1326 N1320 0.984 . S
H1327 N1320 0.984 . S
H1328 N1316 0.984 . S
H1329 N1316 0.985 . S
C1330 C1331 1.363 . S
C1330 C1336 1.379 . S
C1330 N1338 1.356 . S
C1331 C1330 1.363 . S
C1331 C1337 1.363 . S
C1332 C1333 1.363 . S
C1332 C1337 1.379 . S
C1332 N1339 1.356 . S
C1333 C1332 1.363 . S
C1333 C1336 1.363 . S
N1334 C1336 1.356 . S
N1334 H1346 0.984 . S
N1334 H1347 0.985 . S
N1335 C1337 1.356 . S
N1335 H1340 0.984 . S
N1335 H1341 0.985 . S
C1336 C1330 1.379 . S
C1336 C1333 1.363 . S
C1336 N1334 1.356 . S
C1337 C1331 1.363 . S
C1337 C1332 1.379 . S
C1337 N1335 1.356 . S
N1338 C1330 1.356 . S
N1338 H1344 0.984 . S
N1338 H1345 0.984 . S
N1339 C1332 1.356 . S
N1339 H1342 0.984 . S
N1339 H1343 0.985 . S
H1340 N1335 0.984 . S
H1341 N1335 0.985 . S
H1342 N1339 0.984 . S
H1343 N1339 0.985 . S
H1344 N1338 0.984 . S
H1345 N1338 0.984 . S
H1346 N1334 0.984 . S
H1347 N1334 0.985 . S
C1348 C1349 1.363 . S
C1348 C1354 1.379 . S
C1348 N1356 1.356 . S
C1349 C1348 1.363 . S
C1349 C1355 1.363 . S
C1350 C1351 1.363 . S
C1350 C1355 1.379 . S
C1350 N1357 1.356 . S
C1351 C1350 1.363 . S
C1351 C1354 1.363 . S
N1352 C1354 1.356 1_556 S
N1352 H1364 0.984 . S
N1352 H1365 0.985 . S
N1353 C1355 1.356 . S
N1353 H1358 0.984 . S
N1353 H1359 0.985 . S
C1354 C1348 1.379 . S
C1354 C1351 1.363 . S
C1354 N1352 1.356 1_554 S
C1355 C1349 1.363 . S
C1355 C1350 1.379 . S
C1355 N1353 1.356 . S
N1356 C1348 1.356 . S
N1356 H1362 0.984 . S
N1356 H1363 0.984 . S
N1357 C1350 1.356 . S
N1357 H1360 0.984 1_554 S
N1357 H1361 0.985 . S
H1358 N1353 0.984 . S
H1359 N1353 0.985 . S
H1360 N1357 0.984 1_556 S
H1361 N1357 0.985 . S
H1362 N1356 0.984 . S
H1363 N1356 0.984 . S
H1364 N1352 0.984 . S
H1365 N1352 0.985 . S
C1366 C1367 1.363 . S
C1366 C1372 1.379 1_655 S
C1366 N1374 1.356 . S
C1367 C1366 1.363 . S
C1367 C1373 1.363 . S
C1368 C1369 1.363 . S
C1368 C1373 1.379 1_455 S
C1368 N1375 1.356 . S
C1369 C1368 1.363 . S
C1369 C1372 1.363 . S
N1370 C1372 1.356 . S
N1370 H1382 0.984 . S
N1370 H1383 0.985 . S
N1371 C1373 1.356 . S
N1371 H1376 0.984 . S
N1371 H1377 0.985 . S
C1372 C1366 1.379 1_455 S
C1372 C1369 1.363 . S
C1372 N1370 1.356 . S
C1373 C1367 1.363 . S
C1373 C1368 1.379 1_655 S
C1373 N1371 1.356 . S
N1374 C1366 1.356 . S
N1374 H1380 0.984 . S
N1374 H1381 0.984 . S
N1375 C1368 1.356 . S
N1375 H1378 0.984 . S
N1375 H1379 0.985 . S
H1376 N1371 0.984 . S
H1377 N1371 0.985 . S
H1378 N1375 0.984 . S
H1379 N1375 0.985 . S
H1380 N1374 0.984 . S
H1381 N1374 0.984 . S
H1382 N1370 0.984 . S
H1383 N1370 0.985 . S
C1384 C1385 1.363 . S
C1384 C1390 1.379 . S
C1384 N1392 1.356 . S
C1385 C1384 1.363 . S
C1385 C1391 1.363 . S
C1386 C1387 1.363 . S
C1386 C1391 1.379 . S
C1386 N1393 1.356 . S
C1387 C1386 1.363 . S
C1387 C1390 1.363 . S
N1388 C1390 1.356 1_554 S
N1388 H1400 0.984 . S
N1388 H1401 0.985 . S
N1389 C1391 1.356 . S
N1389 H1394 0.984 . S
N1389 H1395 0.985 . S
C1390 C1384 1.379 . S
C1390 C1387 1.363 . S
C1390 N1388 1.356 1_556 S
C1391 C1385 1.363 . S
C1391 C1386 1.379 . S
C1391 N1389 1.356 . S
N1392 C1384 1.356 . S
N1392 H1398 0.984 . S
N1392 H1399 0.984 . S
N1393 C1386 1.356 . S
N1393 H1396 0.984 . S
N1393 H1397 0.985 . S
H1394 N1389 0.984 . S
H1395 N1389 0.985 . S
H1396 N1393 0.984 . S
H1397 N1393 0.985 . S
H1398 N1392 0.984 . S
H1399 N1392 0.984 . S
H1400 N1388 0.984 . S
H1401 N1388 0.985 . S
C1402 C1403 1.363 . S
C1402 C1408 1.379 1_655 S
C1402 N1410 1.356 . S
C1403 C1402 1.363 . S
C1403 C1409 1.363 . S
C1404 C1405 1.363 . S
C1404 C1409 1.379 1_455 S
C1404 N1411 1.356 . S
C1405 C1404 1.363 . S
C1405 C1408 1.363 . S
N1406 C1408 1.356 . S
N1406 H1418 0.984 . S
N1406 H1419 0.985 . S
N1407 C1409 1.356 . S
N1407 H1412 0.984 1_554 S
N1407 H1413 0.985 . S
C1408 C1402 1.379 1_455 S
C1408 C1405 1.363 . S
C1408 N1406 1.356 . S
C1409 C1403 1.363 . S
C1409 C1404 1.379 1_655 S
C1409 N1407 1.356 . S
N1410 C1402 1.356 . S
N1410 H1416 0.984 . S
N1410 H1417 0.984 . S
N1411 C1404 1.356 . S
N1411 H1414 0.984 . S
N1411 H1415 0.985 . S
H1412 N1407 0.984 1_556 S
H1413 N1407 0.985 . S
H1414 N1411 0.984 . S
H1415 N1411 0.985 . S
H1416 N1410 0.984 . S
H1417 N1410 0.984 . S
H1418 N1406 0.984 . S
H1419 N1406 0.985 . S
C1420 C1421 1.363 . S
C1420 C1426 1.379 . S
C1420 N1428 1.356 . S
C1421 C1420 1.363 . S
C1421 C1427 1.363 . S
C1422 C1423 1.363 . S
C1422 C1427 1.379 . S
C1422 N1429 1.356 . S
C1423 C1422 1.363 . S
C1423 C1426 1.363 . S
N1424 C1426 1.356 . S
N1424 H1436 0.984 . S
N1424 H1437 0.985 . S
N1425 C1427 1.356 . S
N1425 H1430 0.984 . S
N1425 H1431 0.985 . S
C1426 C1420 1.379 . S
C1426 C1423 1.363 . S
C1426 N1424 1.356 . S
C1427 C1421 1.363 . S
C1427 C1422 1.379 . S
C1427 N1425 1.356 . S
N1428 C1420 1.356 . S
N1428 H1434 0.984 . S
N1428 H1435 0.984 . S
N1429 C1422 1.356 . S
N1429 H1432 0.984 . S
N1429 H1433 0.985 . S
H1430 N1425 0.984 . S
H1431 N1425 0.985 . S
H1432 N1429 0.984 . S
H1433 N1429 0.985 . S
H1434 N1428 0.984 . S
H1435 N1428 0.984 . S
H1436 N1424 0.984 . S
H1437 N1424 0.985 . S
C1438 C1439 1.363 . S
C1438 C1444 1.379 . S
C1438 N1446 1.356 . S
C1439 C1438 1.363 . S
C1439 C1445 1.363 . S
C1440 C1441 1.363 . S
C1440 C1445 1.379 . S
C1440 N1447 1.356 . S
C1441 C1440 1.363 . S
C1441 C1444 1.363 . S
N1442 C1444 1.356 . S
N1442 H1454 0.984 . S
N1442 H1455 0.985 . S
N1443 C1445 1.356 . S
N1443 H1448 0.984 . S
N1443 H1449 0.985 . S
C1444 C1438 1.379 . S
C1444 C1441 1.363 . S
C1444 N1442 1.356 . S
C1445 C1439 1.363 . S
C1445 C1440 1.379 . S
C1445 N1443 1.356 . S
N1446 C1438 1.356 . S
N1446 H1452 0.984 . S
N1446 H1453 0.984 . S
N1447 C1440 1.356 . S
N1447 H1450 0.984 . S
N1447 H1451 0.985 . S
H1448 N1443 0.984 . S
H1449 N1443 0.985 . S
H1450 N1447 0.984 . S
H1451 N1447 0.985 . S
H1452 N1446 0.984 . S
H1453 N1446 0.984 . S
H1454 N1442 0.984 . S
H1455 N1442 0.985 . S
C1456 C1457 1.363 . S
C1456 C1462 1.379 . S
C1456 N1464 1.356 . S
C1457 C1456 1.363 . S
C1457 C1463 1.363 . S
C1458 C1459 1.363 . S
C1458 C1463 1.379 . S
C1458 N1465 1.356 . S
C1459 C1458 1.363 . S
C1459 C1462 1.363 . S
N1460 C1462 1.356 . S
N1460 H1472 0.984 . S
N1460 H1473 0.985 . S
N1461 C1463 1.356 . S
N1461 H1466 0.984 . S
N1461 H1467 0.985 . S
C1462 C1456 1.379 . S
C1462 C1459 1.363 . S
C1462 N1460 1.356 . S
C1463 C1457 1.363 . S
C1463 C1458 1.379 . S
C1463 N1461 1.356 . S
N1464 C1456 1.356 . S
N1464 H1470 0.984 . S
N1464 H1471 0.984 . S
N1465 C1458 1.356 . S
N1465 H1468 0.984 . S
N1465 H1469 0.985 . S
H1466 N1461 0.984 . S
H1467 N1461 0.985 . S
H1468 N1465 0.984 . S
H1469 N1465 0.985 . S
H1470 N1464 0.984 . S
H1471 N1464 0.984 . S
H1472 N1460 0.984 . S
H1473 N1460 0.985 . S
C1474 C1475 1.363 . S
C1474 C1480 1.379 . S
C1474 N1482 1.356 . S
C1475 C1474 1.363 . S
C1475 C1481 1.363 . S
C1476 C1477 1.363 . S
C1476 C1481 1.379 . S
C1476 N1483 1.356 . S
C1477 C1476 1.363 . S
C1477 C1480 1.363 . S
N1478 C1480 1.356 1_556 S
N1478 H1490 0.984 . S
N1478 H1491 0.985 . S
N1479 C1481 1.356 . S
N1479 H1484 0.984 . S
N1479 H1485 0.985 . S
C1480 C1474 1.379 . S
C1480 C1477 1.363 . S
C1480 N1478 1.356 1_554 S
C1481 C1475 1.363 . S
C1481 C1476 1.379 . S
C1481 N1479 1.356 . S
N1482 C1474 1.356 . S
N1482 H1488 0.984 . S
N1482 H1489 0.984 . S
N1483 C1476 1.356 . S
N1483 H1486 0.984 . S
N1483 H1487 0.985 . S
H1484 N1479 0.984 . S
H1485 N1479 0.985 . S
H1486 N1483 0.984 . S
H1487 N1483 0.985 . S
H1488 N1482 0.984 . S
H1489 N1482 0.984 . S
H1490 N1478 0.984 . S
H1491 N1478 0.985 . S
C1492 C1493 1.363 . S
C1492 C1498 1.379 . S
C1492 N1500 1.356 1_556 S
C1493 C1492 1.363 . S
C1493 C1499 1.363 . S
C1494 C1495 1.363 . S
C1494 C1499 1.379 . S
C1494 N1501 1.356 . S
C1495 C1494 1.363 . S
C1495 C1498 1.363 . S
N1496 C1498 1.356 . S
N1496 H1508 0.984 . S
N1496 H1509 0.985 . S
N1497 C1499 1.356 . S
N1497 H1502 0.984 . S
N1497 H1503 0.985 . S
C1498 C1492 1.379 . S
C1498 C1495 1.363 . S
C1498 N1496 1.356 . S
C1499 C1493 1.363 . S
C1499 C1494 1.379 . S
C1499 N1497 1.356 . S
N1500 C1492 1.356 1_554 S
N1500 H1506 0.984 . S
N1500 H1507 0.984 . S
N1501 C1494 1.356 . S
N1501 H1504 0.984 . S
N1501 H1505 0.985 . S
H1502 N1497 0.984 . S
H1503 N1497 0.985 . S
H1504 N1501 0.984 . S
H1505 N1501 0.985 . S
H1506 N1500 0.984 . S
H1507 N1500 0.984 . S
H1508 N1496 0.984 . S
H1509 N1496 0.985 . S
C1510 C1511 1.363 . S
C1510 C1516 1.379 1_455 S
C1510 N1518 1.356 . S
C1511 C1510 1.363 . S
C1511 C1517 1.363 . S
C1512 C1513 1.365 . S
C1512 C1517 1.376 1_655 S
C1512 N1519 1.357 . S
C1513 C1512 1.365 . S
C1513 C1516 1.363 . S
N1514 C1516 1.356 . S
N1514 H1526 0.984 . S
N1514 H1527 0.985 . S
N1515 C1517 1.356 . S
N1515 H1520 0.984 . S
N1515 H1521 0.985 . S
C1516 C1510 1.379 1_655 S
C1516 C1513 1.363 . S
C1516 N1514 1.356 . S
C1517 C1511 1.363 . S
C1517 C1512 1.376 1_455 S
C1517 N1515 1.356 . S
N1518 C1510 1.356 . S
N1518 H1524 0.984 1_455 S
N1518 H1525 0.984 . S
N1519 C1512 1.357 . S
N1519 H1522 0.984 . S
N1519 H1523 0.985 1_655 S
H1520 N1515 0.984 . S
H1521 N1515 0.985 . S
H1522 N1519 0.984 . S
H1523 N1519 0.985 1_455 S
H1524 N1518 0.984 1_655 S
H1525 N1518 0.984 . S
H1526 N1514 0.984 . S
H1527 N1514 0.985 . S
C1528 C1529 1.363 . S
C1528 C1534 1.379 . S
C1528 N1536 1.356 . S
C1529 C1528 1.363 . S
C1529 C1535 1.363 . S
C1530 C1531 1.362 1_556 S
C1530 C1535 1.377 1_556 S
C1530 N1537 1.359 . S
C1531 C1530 1.362 1_554 S
C1531 C1534 1.363 . S
N1532 C1534 1.356 . S
N1532 H1544 0.984 . S
N1532 H1545 0.985 . S
N1533 C1535 1.356 . S
N1533 H1538 0.984 . S
N1533 H1539 0.985 . S
C1534 C1528 1.379 . S
C1534 C1531 1.363 . S
C1534 N1532 1.356 . S
C1535 C1529 1.363 . S
C1535 C1530 1.377 1_554 S
C1535 N1533 1.356 . S
N1536 C1528 1.356 . S
N1536 H1542 0.984 . S
N1536 H1543 0.984 . S
N1537 C1530 1.359 . S
N1537 H1540 0.984 . S
N1537 H1541 0.985 . S
H1538 N1533 0.984 . S
H1539 N1533 0.985 . S
H1540 N1537 0.984 . S
H1541 N1537 0.985 . S
H1542 N1536 0.984 . S
H1543 N1536 0.984 . S
H1544 N1532 0.984 . S
H1545 N1532 0.985 . S
C1546 C1547 1.363 1_455 S
C1546 C1552 1.379 . S
C1546 N1554 1.356 1_455 S
C1547 C1546 1.363 1_655 S
C1547 C1553 1.363 . S
C1548 C1549 1.321 1_655 S
C1548 C1553 1.416 . S
C1548 N1555 1.347 1_655 S
C1549 C1548 1.321 1_455 S
C1549 C1552 1.363 . S
N1550 C1552 1.356 . S
N1550 H1562 0.984 . S
N1550 H1563 0.985 . S
N1551 C1553 1.356 . S
N1551 H1556 0.984 . S
N1551 H1557 0.985 . S
C1552 C1546 1.379 . S
C1552 C1549 1.363 . S
C1552 N1550 1.356 . S
C1553 C1547 1.363 . S
C1553 C1548 1.416 . S
C1553 N1551 1.356 . S
N1554 C1546 1.356 1_655 S
N1554 H1560 0.984 1_655 S
N1554 H1561 0.984 . S
N1555 C1548 1.347 1_455 S
N1555 H1558 0.984 1_556 S
N1555 H1559 0.985 1_456 S
H1556 N1551 0.984 . S
H1557 N1551 0.985 . S
H1558 N1555 0.984 1_554 S
H1559 N1555 0.985 1_654 S
H1560 N1554 0.984 1_455 S
H1561 N1554 0.984 . S
H1562 N1550 0.984 . S
H1563 N1550 0.985 . S
C1564 C1565 1.363 . S
C1564 C1570 1.379 . S
C1564 N1572 1.356 . S
C1565 C1564 1.363 . S
C1565 C1571 1.363 . S
C1566 C1567 1.363 . S
C1566 C1571 1.379 . S
C1566 N1573 1.356 . S
C1567 C1566 1.363 . S
C1567 C1570 1.363 . S
N1568 C1570 1.356 . S
N1568 H1580 0.984 . S
N1568 H1581 0.985 . S
N1569 C1571 1.356 . S
N1569 H1574 0.984 . S
N1569 H1575 0.985 . S
C1570 C1564 1.379 . S
C1570 C1567 1.363 . S
C1570 N1568 1.356 . S
C1571 C1565 1.363 . S
C1571 C1566 1.379 . S
C1571 N1569 1.356 . S
N1572 C1564 1.356 . S
N1572 H1578 0.984 . S
N1572 H1579 0.984 . S
N1573 C1566 1.356 . S
N1573 H1576 0.984 . S
N1573 H1577 0.985 . S
H1574 N1569 0.984 . S
H1575 N1569 0.985 . S
H1576 N1573 0.984 . S
H1577 N1573 0.985 . S
H1578 N1572 0.984 . S
H1579 N1572 0.984 . S
H1580 N1568 0.984 . S
H1581 N1568 0.985 . S
C1582 C1583 1.363 . S
C1582 C1588 1.379 . S
C1582 N1590 1.356 . S
C1583 C1582 1.363 . S
C1583 C1589 1.363 . S
C1584 C1585 1.363 . S
C1584 C1589 1.379 . S
C1584 N1591 1.356 . S
C1585 C1584 1.363 . S
C1585 C1588 1.363 . S
N1586 C1588 1.356 . S
N1586 H1598 0.984 . S
N1586 H1599 0.985 . S
N1587 C1589 1.356 . S
N1587 H1592 0.984 . S
N1587 H1593 0.985 . S
C1588 C1582 1.379 . S
C1588 C1585 1.363 . S
C1588 N1586 1.356 . S
C1589 C1583 1.363 . S
C1589 C1584 1.379 . S
C1589 N1587 1.356 . S
N1590 C1582 1.356 . S
N1590 H1596 0.984 . S
N1590 H1597 0.984 . S
N1591 C1584 1.356 . S
N1591 H1594 0.984 . S
N1591 H1595 0.985 . S
H1592 N1587 0.984 . S
H1593 N1587 0.985 . S
H1594 N1591 0.984 . S
H1595 N1591 0.985 . S
H1596 N1590 0.984 . S
H1597 N1590 0.984 . S
H1598 N1586 0.984 . S
H1599 N1586 0.985 . S
C449 C91 1.364 . S
C451 C7 1.364 . S
C467 C21 1.364 . S
C469 C105 1.364 . S
C485 C63 1.364 . S
C487 C35 1.364 . S
C503 C49 1.364 . S
C505 C77 1.364 . S
C521 C203 1.364 . S
C523 C119 1.364 . S
C539 C133 1.364 . S
C541 C217 1.364 . S
C557 C175 1.364 . S
C559 C147 1.364 . S
C575 C161 1.364 . S
C577 C189 1.364 . S
C593 C231 1.364 . S
C595 C315 1.364 . S
C611 C329 1.364 . S
C613 C245 1.364 . S
C629 C259 1.364 . S
C631 C287 1.364 . S
C647 C301 1.364 . S
C649 C273 1.364 . S
C665 C427 1.364 . S
C667 C343 1.364 . S
C683 C441 1.364 . S
C685 C357 1.364 . S
C701 C399 1.364 . S
C703 C371 1.364 . S
C719 C385 1.364 . S
C721 C413 1.364 . S
C737 C104 1.173 . S
C739 C6 1.173 . S
C755 C62 1.173 . S
C757 C20 1.173 . S
C773 C76 1.173 . S
C775 C34 1.173 . S
C791 C90 1.173 . S
C793 C48 1.173 . S
C809 C216 1.173 . S
C811 C118 1.173 . S
C827 C174 1.173 . S
C829 C132 1.173 . S
C845 C188 1.173 . S
C847 C146 1.173 . S
C863 C160 1.173 . S
C865 C202 1.173 . S
C881 C328 1.173 . S
C883 C230 1.173 . S
C899 C244 1.173 . S
C901 C286 1.173 . S
C917 C258 1.173 . S
C919 C300 1.173 . S
C935 C314 1.173 . S
C937 C272 1.173 . S
C953 C440 1.173 . S
C955 C342 1.173 . S
C971 C356 1.173 . S
C973 C398 1.173 . S
C989 C370 1.173 . S
C991 C412 1.173 . S
C1007 C426 1.173 . S
C1009 C384 1.173 . S
C1025 C8 1.568 . S
C1027 C429 1.525 1_554 S
C1043 C219 1.525 . S
C1045 C22 1.568 . S
C1061 C401 1.525 . S
C1063 C36 1.568 . S
C1079 C191 1.525 . S
C1081 C50 1.568 . S
C1097 C373 1.525 . S
C1099 C64 1.568 . S
C1115 C78 1.568 . S
C1117 C163 1.525 . S
C1133 C92 1.568 . S
C1135 C345 1.525 1_556 S
C1151 C106 1.568 . S
C1153 C135 1.525 . S
C1169 C120 1.568 . S
C1171 C317 1.525 1_556 S
C1187 C107 1.525 . S
C1189 C134 1.568 . S
C1205 C289 1.525 . S
C1207 C148 1.568 . S
C1223 C79 1.525 . S
C1225 C162 1.568 . S
C1241 C261 1.525 . S
C1243 C176 1.568 . S
C1259 C51 1.525 . S
C1261 C190 1.568 . S
C1277 C204 1.568 . S
C1279 C233 1.525 1_554 S
C1295 C23 1.525 . S
C1297 C218 1.568 . S
C1313 C205 1.525 . S
C1315 C232 1.568 . S
C1331 C443 1.525 . S
C1333 C246 1.568 . S
C1349 C260 1.568 . S
C1351 C177 1.525 1_554 S
C1367 C274 1.568 . S
C1369 C415 1.525 . S
C1385 C288 1.568 . S
C1387 C149 1.525 1_556 S
C1403 C302 1.568 . S
C1405 C387 1.525 . S
C1421 C316 1.568 . S
C1423 C121 1.525 . S
C1439 C330 1.568 . S
C1441 C359 1.525 . S
C1457 C93 1.525 . S
C1459 C344 1.568 . S
C1475 C331 1.525 . S
C1477 C358 1.568 . S
C1493 C65 1.525 1_556 S
C1495 C372 1.568 . S
C1511 C386 1.568 . S
C1513 C303 1.525 . S
C1529 C400 1.568 . S
C1531 C37 1.525 1_554 S
C1547 C275 1.525 . S
C1549 C414 1.568 . S
C1565 C428 1.568 . S
C1567 C9 1.525 . S
C1583 C442 1.568 . S
C1585 C247 1.525 . S
