# Generated by pormake.
# Topology ulj, (4)-cn, num edge types: 1
# Building blocks:
#     Node 0, Type 0, BuildingBlock: QUQFOY_clean_sbu_1, # of connection points: 4
#     Node 1, Type 0, BuildingBlock: QUQFOY_clean_sbu_1, # of connection points: 4
#     Node 2, Type 0, BuildingBlock: QUQFOY_clean_sbu_1, # of connection points: 4
#     Node 3, Type 0, BuildingBlock: QUQFOY_clean_sbu_1, # of connection points: 4
#     Node 4, Type 0, BuildingBlock: QUQFOY_clean_sbu_1, # of connection points: 4
#     Node 5, Type 0, BuildingBlock: QUQFOY_clean_sbu_1, # of connection points: 4
#     Node 6, Type 0, BuildingBlock: QUQFOY_clean_sbu_1, # of connection points: 4
#     Node 7, Type 0, BuildingBlock: QUQFOY_clean_sbu_1, # of connection points: 4
#     Node 8, Type 0, BuildingBlock: QUQFOY_clean_sbu_1, # of connection points: 4
#     Node 9, Type 0, BuildingBlock: QUQFOY_clean_sbu_1, # of connection points: 4
#     Node 10, Type 0, BuildingBlock: QUQFOY_clean_sbu_1, # of connection points: 4
#     Node 11, Type 0, BuildingBlock: QUQFOY_clean_sbu_1, # of connection points: 4
#     Node 12, Type 0, BuildingBlock: QUQFOY_clean_sbu_1, # of connection points: 4
#     Node 13, Type 0, BuildingBlock: QUQFOY_clean_sbu_1, # of connection points: 4
#     Node 14, Type 0, BuildingBlock: QUQFOY_clean_sbu_1, # of connection points: 4
#     Node 15, Type 0, BuildingBlock: QUQFOY_clean_sbu_1, # of connection points: 4
#     Node 16, Type 0, BuildingBlock: QUQFOY_clean_sbu_1, # of connection points: 4
#     Node 17, Type 0, BuildingBlock: QUQFOY_clean_sbu_1, # of connection points: 4
#     Node 18, Type 0, BuildingBlock: QUQFOY_clean_sbu_1, # of connection points: 4
#     Node 19, Type 0, BuildingBlock: QUQFOY_clean_sbu_1, # of connection points: 4
#     Node 20, Type 0, BuildingBlock: QUQFOY_clean_sbu_1, # of connection points: 4
#     Node 21, Type 0, BuildingBlock: QUQFOY_clean_sbu_1, # of connection points: 4
#     Node 22, Type 0, BuildingBlock: QUQFOY_clean_sbu_1, # of connection points: 4
#     Node 23, Type 0, BuildingBlock: QUQFOY_clean_sbu_1, # of connection points: 4
#     Node 24, Type 0, BuildingBlock: QUQFOY_clean_sbu_1, # of connection points: 4
#     Node 25, Type 0, BuildingBlock: QUQFOY_clean_sbu_1, # of connection points: 4
#     Node 26, Type 0, BuildingBlock: QUQFOY_clean_sbu_1, # of connection points: 4
#     Node 27, Type 0, BuildingBlock: QUQFOY_clean_sbu_1, # of connection points: 4
#     Node 28, Type 0, BuildingBlock: QUQFOY_clean_sbu_1, # of connection points: 4
#     Node 29, Type 0, BuildingBlock: QUQFOY_clean_sbu_1, # of connection points: 4
#     Node 30, Type 0, BuildingBlock: QUQFOY_clean_sbu_1, # of connection points: 4
#     Node 31, Type 0, BuildingBlock: QUQFOY_clean_sbu_1, # of connection points: 4
#     Node 32, Type 0, BuildingBlock: QUQFOY_clean_sbu_1, # of connection points: 4
#     Node 33, Type 0, BuildingBlock: QUQFOY_clean_sbu_1, # of connection points: 4
#     Node 34, Type 0, BuildingBlock: QUQFOY_clean_sbu_1, # of connection points: 4
#     Node 35, Type 0, BuildingBlock: QUQFOY_clean_sbu_1, # of connection points: 4
#     Node 36, Type 0, BuildingBlock: QUQFOY_clean_sbu_1, # of connection points: 4
#     Node 37, Type 0, BuildingBlock: QUQFOY_clean_sbu_1, # of connection points: 4
#     Node 38, Type 0, BuildingBlock: QUQFOY_clean_sbu_1, # of connection points: 4
#     Node 39, Type 0, BuildingBlock: QUQFOY_clean_sbu_1, # of connection points: 4
#     Node 40, Type 0, BuildingBlock: QUQFOY_clean_sbu_1, # of connection points: 4
#     Node 41, Type 0, BuildingBlock: QUQFOY_clean_sbu_1, # of connection points: 4
#     Node 42, Type 0, BuildingBlock: QUQFOY_clean_sbu_1, # of connection points: 4
#     Node 43, Type 0, BuildingBlock: QUQFOY_clean_sbu_1, # of connection points: 4
#     Node 44, Type 0, BuildingBlock: QUQFOY_clean_sbu_1, # of connection points: 4
#     Node 45, Type 0, BuildingBlock: QUQFOY_clean_sbu_1, # of connection points: 4
#     Node 46, Type 0, BuildingBlock: QUQFOY_clean_sbu_1, # of connection points: 4
#     Node 47, Type 0, BuildingBlock: QUQFOY_clean_sbu_1, # of connection points: 4
#     Edge 48, Type (0, 0), BuildingBlock: AJUNOK_clean_linker_0, # of connection points: 2
#     Edge 49, Type (0, 0), BuildingBlock: AJUNOK_clean_linker_0, # of connection points: 2
#     Edge 50, Type (0, 0), BuildingBlock: AJUNOK_clean_linker_0, # of connection points: 2
#     Edge 51, Type (0, 0), BuildingBlock: AJUNOK_clean_linker_0, # of connection points: 2
#     Edge 52, Type (0, 0), BuildingBlock: AJUNOK_clean_linker_0, # of connection points: 2
#     Edge 53, Type (0, 0), BuildingBlock: AJUNOK_clean_linker_0, # of connection points: 2
#     Edge 54, Type (0, 0), BuildingBlock: AJUNOK_clean_linker_0, # of connection points: 2
#     Edge 55, Type (0, 0), BuildingBlock: AJUNOK_clean_linker_0, # of connection points: 2
#     Edge 56, Type (0, 0), BuildingBlock: AJUNOK_clean_linker_0, # of connection points: 2
#     Edge 57, Type (0, 0), BuildingBlock: AJUNOK_clean_linker_0, # of connection points: 2
#     Edge 58, Type (0, 0), BuildingBlock: AJUNOK_clean_linker_0, # of connection points: 2
#     Edge 59, Type (0, 0), BuildingBlock: AJUNOK_clean_linker_0, # of connection points: 2
#     Edge 60, Type (0, 0), BuildingBlock: AJUNOK_clean_linker_0, # of connection points: 2
#     Edge 61, Type (0, 0), BuildingBlock: AJUNOK_clean_linker_0, # of connection points: 2
#     Edge 62, Type (0, 0), BuildingBlock: AJUNOK_clean_linker_0, # of connection points: 2
#     Edge 63, Type (0, 0), BuildingBlock: AJUNOK_clean_linker_0, # of connection points: 2
#     Edge 64, Type (0, 0), BuildingBlock: AJUNOK_clean_linker_0, # of connection points: 2
#     Edge 65, Type (0, 0), BuildingBlock: AJUNOK_clean_linker_0, # of connection points: 2
#     Edge 66, Type (0, 0), BuildingBlock: AJUNOK_clean_linker_0, # of connection points: 2
#     Edge 67, Type (0, 0), BuildingBlock: AJUNOK_clean_linker_0, # of connection points: 2
#     Edge 68, Type (0, 0), BuildingBlock: AJUNOK_clean_linker_0, # of connection points: 2
#     Edge 69, Type (0, 0), BuildingBlock: AJUNOK_clean_linker_0, # of connection points: 2
#     Edge 70, Type (0, 0), BuildingBlock: AJUNOK_clean_linker_0, # of connection points: 2
#     Edge 71, Type (0, 0), BuildingBlock: AJUNOK_clean_linker_0, # of connection points: 2
#     Edge 72, Type (0, 0), BuildingBlock: AJUNOK_clean_linker_0, # of connection points: 2
#     Edge 73, Type (0, 0), BuildingBlock: AJUNOK_clean_linker_0, # of connection points: 2
#     Edge 74, Type (0, 0), BuildingBlock: AJUNOK_clean_linker_0, # of connection points: 2
#     Edge 75, Type (0, 0), BuildingBlock: AJUNOK_clean_linker_0, # of connection points: 2
#     Edge 76, Type (0, 0), BuildingBlock: AJUNOK_clean_linker_0, # of connection points: 2
#     Edge 77, Type (0, 0), BuildingBlock: AJUNOK_clean_linker_0, # of connection points: 2
#     Edge 78, Type (0, 0), BuildingBlock: AJUNOK_clean_linker_0, # of connection points: 2
#     Edge 79, Type (0, 0), BuildingBlock: AJUNOK_clean_linker_0, # of connection points: 2
#     Edge 80, Type (0, 0), BuildingBlock: AJUNOK_clean_linker_0, # of connection points: 2
#     Edge 81, Type (0, 0), BuildingBlock: AJUNOK_clean_linker_0, # of connection points: 2
#     Edge 82, Type (0, 0), BuildingBlock: AJUNOK_clean_linker_0, # of connection points: 2
#     Edge 83, Type (0, 0), BuildingBlock: AJUNOK_clean_linker_0, # of connection points: 2
#     Edge 84, Type (0, 0), BuildingBlock: AJUNOK_clean_linker_0, # of connection points: 2
#     Edge 85, Type (0, 0), BuildingBlock: AJUNOK_clean_linker_0, # of connection points: 2
#     Edge 86, Type (0, 0), BuildingBlock: AJUNOK_clean_linker_0, # of connection points: 2
#     Edge 87, Type (0, 0), BuildingBlock: AJUNOK_clean_linker_0, # of connection points: 2
#     Edge 88, Type (0, 0), BuildingBlock: AJUNOK_clean_linker_0, # of connection points: 2
#     Edge 89, Type (0, 0), BuildingBlock: AJUNOK_clean_linker_0, # of connection points: 2
#     Edge 90, Type (0, 0), BuildingBlock: AJUNOK_clean_linker_0, # of connection points: 2
#     Edge 91, Type (0, 0), BuildingBlock: AJUNOK_clean_linker_0, # of connection points: 2
#     Edge 92, Type (0, 0), BuildingBlock: AJUNOK_clean_linker_0, # of connection points: 2
#     Edge 93, Type (0, 0), BuildingBlock: AJUNOK_clean_linker_0, # of connection points: 2
#     Edge 94, Type (0, 0), BuildingBlock: AJUNOK_clean_linker_0, # of connection points: 2
#     Edge 95, Type (0, 0), BuildingBlock: AJUNOK_clean_linker_0, # of connection points: 2
#     Edge 96, Type (0, 0), BuildingBlock: AJUNOK_clean_linker_0, # of connection points: 2
#     Edge 97, Type (0, 0), BuildingBlock: AJUNOK_clean_linker_0, # of connection points: 2
#     Edge 98, Type (0, 0), BuildingBlock: AJUNOK_clean_linker_0, # of connection points: 2
#     Edge 99, Type (0, 0), BuildingBlock: AJUNOK_clean_linker_0, # of connection points: 2
#     Edge 100, Type (0, 0), BuildingBlock: AJUNOK_clean_linker_0, # of connection points: 2
#     Edge 101, Type (0, 0), BuildingBlock: AJUNOK_clean_linker_0, # of connection points: 2
#     Edge 102, Type (0, 0), BuildingBlock: AJUNOK_clean_linker_0, # of connection points: 2
#     Edge 103, Type (0, 0), BuildingBlock: AJUNOK_clean_linker_0, # of connection points: 2
#     Edge 104, Type (0, 0), BuildingBlock: AJUNOK_clean_linker_0, # of connection points: 2
#     Edge 105, Type (0, 0), BuildingBlock: AJUNOK_clean_linker_0, # of connection points: 2
#     Edge 106, Type (0, 0), BuildingBlock: AJUNOK_clean_linker_0, # of connection points: 2
#     Edge 107, Type (0, 0), BuildingBlock: AJUNOK_clean_linker_0, # of connection points: 2
#     Edge 108, Type (0, 0), BuildingBlock: AJUNOK_clean_linker_0, # of connection points: 2
#     Edge 109, Type (0, 0), BuildingBlock: AJUNOK_clean_linker_0, # of connection points: 2
#     Edge 110, Type (0, 0), BuildingBlock: AJUNOK_clean_linker_0, # of connection points: 2
#     Edge 111, Type (0, 0), BuildingBlock: AJUNOK_clean_linker_0, # of connection points: 2
#     Edge 112, Type (0, 0), BuildingBlock: AJUNOK_clean_linker_0, # of connection points: 2
#     Edge 113, Type (0, 0), BuildingBlock: AJUNOK_clean_linker_0, # of connection points: 2
#     Edge 114, Type (0, 0), BuildingBlock: AJUNOK_clean_linker_0, # of connection points: 2
#     Edge 115, Type (0, 0), BuildingBlock: AJUNOK_clean_linker_0, # of connection points: 2
#     Edge 116, Type (0, 0), BuildingBlock: AJUNOK_clean_linker_0, # of connection points: 2
#     Edge 117, Type (0, 0), BuildingBlock: AJUNOK_clean_linker_0, # of connection points: 2
#     Edge 118, Type (0, 0), BuildingBlock: AJUNOK_clean_linker_0, # of connection points: 2
#     Edge 119, Type (0, 0), BuildingBlock: AJUNOK_clean_linker_0, # of connection points: 2
#     Edge 120, Type (0, 0), BuildingBlock: AJUNOK_clean_linker_0, # of connection points: 2
#     Edge 121, Type (0, 0), BuildingBlock: AJUNOK_clean_linker_0, # of connection points: 2
#     Edge 122, Type (0, 0), BuildingBlock: AJUNOK_clean_linker_0, # of connection points: 2
#     Edge 123, Type (0, 0), BuildingBlock: AJUNOK_clean_linker_0, # of connection points: 2
#     Edge 124, Type (0, 0), BuildingBlock: AJUNOK_clean_linker_0, # of connection points: 2
#     Edge 125, Type (0, 0), BuildingBlock: AJUNOK_clean_linker_0, # of connection points: 2
#     Edge 126, Type (0, 0), BuildingBlock: AJUNOK_clean_linker_0, # of connection points: 2
#     Edge 127, Type (0, 0), BuildingBlock: AJUNOK_clean_linker_0, # of connection points: 2
#     Edge 128, Type (0, 0), BuildingBlock: AJUNOK_clean_linker_0, # of connection points: 2
#     Edge 129, Type (0, 0), BuildingBlock: AJUNOK_clean_linker_0, # of connection points: 2
#     Edge 130, Type (0, 0), BuildingBlock: AJUNOK_clean_linker_0, # of connection points: 2
#     Edge 131, Type (0, 0), BuildingBlock: AJUNOK_clean_linker_0, # of connection points: 2
#     Edge 132, Type (0, 0), BuildingBlock: AJUNOK_clean_linker_0, # of connection points: 2
#     Edge 133, Type (0, 0), BuildingBlock: AJUNOK_clean_linker_0, # of connection points: 2
#     Edge 134, Type (0, 0), BuildingBlock: AJUNOK_clean_linker_0, # of connection points: 2
#     Edge 135, Type (0, 0), BuildingBlock: AJUNOK_clean_linker_0, # of connection points: 2
#     Edge 136, Type (0, 0), BuildingBlock: AJUNOK_clean_linker_0, # of connection points: 2
#     Edge 137, Type (0, 0), BuildingBlock: AJUNOK_clean_linker_0, # of connection points: 2
#     Edge 138, Type (0, 0), BuildingBlock: AJUNOK_clean_linker_0, # of connection points: 2
#     Edge 139, Type (0, 0), BuildingBlock: AJUNOK_clean_linker_0, # of connection points: 2
#     Edge 140, Type (0, 0), BuildingBlock: AJUNOK_clean_linker_0, # of connection points: 2
#     Edge 141, Type (0, 0), BuildingBlock: AJUNOK_clean_linker_0, # of connection points: 2
#     Edge 142, Type (0, 0), BuildingBlock: AJUNOK_clean_linker_0, # of connection points: 2
#     Edge 143, Type (0, 0), BuildingBlock: AJUNOK_clean_linker_0, # of connection points: 2
# Relax obj value: 0.222
# Max RMSD: 0.289
# Mean RMSD: 0.263
data_MOF--net-ulj--node1-QUQFOY_clean_sbu_1--edge1-AJUNOK_clean_linker_0
_symmetry_space_group_name_H-M    P1
_symmetry_Int_Tables_number       1
_symmetry_cell_setting            triclinic
loop_
_symmetry_equiv_pos_as_xyz
'x, y, z'
_cell_length_a     44.737006
_cell_length_b     48.09898
_cell_length_c     50.341376
_cell_angle_alpha  89.985379
_cell_angle_beta   90.011979
_cell_angle_gamma 89.948501
loop_
_atom_site_label
_atom_site_type_symbol
_atom_site_fract_x
_atom_site_fract_y
_atom_site_fract_z
_atom_type_partial_charge
O0 O 0.09905 0.17081 0.34839 0.0
Cd1 Cd 0.13515 0.19529 0.33864 0.0
Cd2 Cd 0.10964 0.18973 0.29036 0.0
O3 O 0.07284 0.17629 0.31165 0.0
O4 O 0.14668 0.21632 0.3718 0.0
O5 O 0.12735 0.23609 0.33609 0.0
C6 C 0.13658 0.2384 0.36025 0.0
C7 C 0.11274 0.22715 0.26085 0.0
C8 C 0.07501 0.16727 0.33537 0.0
C9 C 0.16812 0.16139 0.29857 0.0
O10 O 0.14377 0.16167 0.2856 0.0
O11 O 0.17093 0.17625 0.31942 0.0
O12 O 0.09981 0.20423 0.25394 0.0
O13 O 0.1215 0.22936 0.28515 0.0
O14 O 0.39547 0.63687 0.89805 0.0
Cd15 Cd 0.42637 0.60595 0.90459 0.0
Cd16 Cd 0.42199 0.62321 0.95433 0.0
O17 O 0.40572 0.65875 0.93532 0.0
O18 O 0.45062 0.60315 0.87147 0.0
O19 O 0.4678 0.61999 0.90948 0.0
C20 C 0.47184 0.61527 0.88447 0.0
C21 C 0.45847 0.62412 0.98802 0.0
C22 C 0.39364 0.65855 0.91239 0.0
C23 C 0.39849 0.56629 0.94117 0.0
O24 O 0.39602 0.5876 0.95598 0.0
O25 O 0.41321 0.56786 0.91963 0.0
O26 O 0.43132 0.63198 0.99235 0.0
O27 O 0.46544 0.61744 0.96397 0.0
O28 O 0.9007 0.32947 0.34734 0.0
Cd29 Cd 0.86352 0.30593 0.3387 0.0
Cd30 Cd 0.88809 0.30884 0.28944 0.0
O31 O 0.92536 0.32253 0.30993 0.0
O32 O 0.85264 0.28373 0.3714 0.0
O33 O 0.87057 0.26532 0.33446 0.0
C34 C 0.86177 0.26202 0.35863 0.0
C35 C 0.88556 0.27182 0.25932 0.0
C36 C 0.92425 0.33227 0.33344 0.0
C37 C 0.83047 0.33911 0.29807 0.0
O38 O 0.85421 0.33716 0.28436 0.0
O39 O 0.82791 0.32561 0.31977 0.0
O40 O 0.89823 0.29497 0.25286 0.0
O41 O 0.87655 0.26912 0.2835 0.0
O42 O 0.60234 0.8644 0.8961 0.0
Cd43 Cd 0.5719 0.89578 0.90217 0.0
Cd44 Cd 0.57592 0.87891 0.95271 0.0
O45 O 0.59217 0.84328 0.93385 0.0
O46 O 0.54569 0.89767 0.87 0.0
O47 O 0.531 0.88183 0.9092 0.0
C48 C 0.52528 0.88607 0.8844 0.0
C49 C 0.53888 0.87832 0.98596 0.0
C50 C 0.60409 0.843 0.91085 0.0
C51 C 0.59968 0.93572 0.93872 0.0
O52 O 0.60167 0.91466 0.95394 0.0
O53 O 0.58541 0.9339 0.91694 0.0
O54 O 0.56598 0.87063 0.99083 0.0
O55 O 0.53238 0.88466 0.96174 0.0
O56 O 0.09888 0.82762 0.15493 0.0
Cd57 Cd 0.13506 0.80354 0.16524 0.0
Cd58 Cd 0.10942 0.81045 0.21354 0.0
O59 O 0.07249 0.82307 0.19168 0.0
O60 O 0.14675 0.78157 0.13258 0.0
O61 O 0.12756 0.76282 0.16884 0.0
C62 C 0.137 0.75978 0.14483 0.0
C63 C 0.11393 0.77376 0.24378 0.0
C64 C 0.07476 0.83149 0.16775 0.0
C65 C 0.16768 0.8387 0.20472 0.0
O66 O 0.14321 0.8389 0.21753 0.0
O67 O 0.17054 0.82329 0.18425 0.0
O68 O 0.10026 0.79644 0.25033 0.0
O69 O 0.12238 0.77122 0.21943 0.0
O70 O 0.10227 0.63383 0.1071 0.0
Cd71 Cd 0.0708 0.60377 0.09995 0.0
Cd72 Cd 0.07669 0.62197 0.05031 0.0
O73 O 0.09271 0.65703 0.0704 0.0
O74 O 0.04448 0.60163 0.13205 0.0
O75 O 0.03044 0.6192 0.09333 0.0
C76 C 0.02451 0.6143 0.11797 0.0
C77 C 0.03975 0.62286 0.017 0.0
C78 C 0.10442 0.65599 0.09349 0.0
C79 C 0.09865 0.56441 0.06304 0.0
O80 O 0.1022 0.58603 0.0488 0.0
O81 O 0.08325 0.5658 0.08422 0.0
O82 O 0.06679 0.63085 0.01228 0.0
O83 O 0.03325 0.6162 0.04112 0.0
O84 O 0.89812 0.67247 0.15395 0.0
Cd85 Cd 0.8623 0.69717 0.16392 0.0
Cd86 Cd 0.88756 0.69071 0.21213 0.0
O87 O 0.92434 0.67727 0.19075 0.0
O88 O 0.8509 0.71828 0.13077 0.0
O89 O 0.87038 0.73793 0.16646 0.0
C90 C 0.86119 0.74028 0.14229 0.0
C91 C 0.88434 0.72801 0.2417 0.0
C92 C 0.92213 0.66858 0.16693 0.0
C93 C 0.8288 0.66322 0.20364 0.0
O94 O 0.85317 0.66291 0.2166 0.0
O95 O 0.82635 0.67828 0.1829 0.0
O96 O 0.89725 0.70506 0.2486 0.0
O97 O 0.87573 0.73034 0.21736 0.0
O98 O 0.89613 0.86556 0.10501 0.0
Cd99 Cd 0.92705 0.89651 0.09897 0.0
Cd100 Cd 0.92374 0.8788 0.04894 0.0
O101 O 0.90776 0.84334 0.0682 0.0
O102 O 0.95272 0.89841 0.13153 0.0
O103 O 0.96781 0.88176 0.09276 0.0
C104 C 0.97312 0.88615 0.1176 0.0
C105 C 0.96103 0.87846 0.01591 0.0
C106 C 0.89503 0.8437 0.09086 0.0
C107 C 0.89922 0.93549 0.06162 0.0
O108 O 0.89718 0.91399 0.04702 0.0
O109 O 0.91408 0.93448 0.08315 0.0
O110 O 0.93415 0.87015 0.01101 0.0
O111 O 0.96723 0.88522 0.04008 0.0
O112 O 0.34826 0.07683 0.24429 0.0
Cd113 Cd 0.3134 0.07791 0.21737 0.0
Cd114 Cd 0.32705 0.1292 0.21905 0.0
O115 O 0.36795 0.11725 0.23346 0.0
O116 O 0.31083 0.04041 0.20023 0.0
O117 O 0.3264 0.07817 0.17927 0.0
C118 C 0.32227 0.05159 0.17921 0.0
C119 C 0.31623 0.15982 0.18474 0.0
C120 C 0.36937 0.09444 0.24614 0.0
C121 C 0.2718 0.11381 0.24657 0.0
O122 O 0.29426 0.12983 0.24714 0.0
O123 O 0.27234 0.09225 0.23184 0.0
O124 O 0.32893 0.16819 0.20632 0.0
O125 O 0.31227 0.13343 0.1816 0.0
O126 O 0.35474 0.37965 0.06276 0.0
Cd127 Cd 0.39194 0.38271 0.03872 0.0
Cd128 Cd 0.36593 0.43034 0.02803 0.0
O129 O 0.32793 0.40903 0.0391 0.0
O130 O 0.40211 0.34446 0.02652 0.0
O131 O 0.38514 0.37775 0.99993 0.0
C132 C 0.39277 0.35203 0.00332 0.0
C133 C 0.36515 0.46469 0.99501 0.0
C134 C 0.32964 0.39042 0.05693 0.0
C135 C 0.42123 0.42894 0.06261 0.0
O136 O 0.39623 0.4403 0.05746 0.0
O137 O 0.42739 0.40516 0.05315 0.0
O138 O 0.3516 0.46791 0.01736 0.0
O139 O 0.37749 0.44086 0.99051 0.0
O140 O 0.65066 0.4232 0.24354 0.0
Cd141 Cd 0.6856 0.42304 0.21663 0.0
Cd142 Cd 0.6728 0.37174 0.2175 0.0
O143 O 0.63152 0.38292 0.23153 0.0
O144 O 0.68762 0.46066 0.19968 0.0
O145 O 0.67259 0.42283 0.17853 0.0
C146 C 0.67634 0.44946 0.1786 0.0
C147 C 0.68481 0.34154 0.18316 0.0
C148 C 0.62983 0.40525 0.24494 0.0
C149 C 0.72746 0.38739 0.2457 0.0
O150 O 0.70512 0.37122 0.24605 0.0
O151 O 0.72686 0.409 0.23103 0.0
O152 O 0.67185 0.33283 0.20451 0.0
O153 O 0.68809 0.36802 0.18018 0.0
O154 O 0.64151 0.12205 0.06087 0.0
Cd155 Cd 0.60471 0.11936 0.03634 0.0
Cd156 Cd 0.63082 0.07182 0.02546 0.0
O157 O 0.66871 0.09279 0.03744 0.0
O158 O 0.59537 0.15754 0.02334 0.0
O159 O 0.61213 0.12341 0.99759 0.0
C160 C 0.60469 0.14925 1.00036 0.0
C161 C 0.6323 0.03749 0.99241 0.0
C162 C 0.66663 0.11106 0.05556 0.0
C163 C 0.57502 0.07314 0.05965 0.0
O164 O 0.59997 0.06173 0.0544 0.0
O165 O 0.56899 0.09708 0.05045 0.0
O166 O 0.64533 0.03424 0.015 0.0
O167 O 0.62009 0.06133 0.9877 0.0
O168 O 0.34047 0.93217 0.25767 0.0
Cd169 Cd 0.30679 0.92992 0.28559 0.0
Cd170 Cd 0.32429 0.88007 0.28492 0.0
O171 O 0.36439 0.89462 0.2708 0.0
O172 O 0.3028 0.96728 0.30289 0.0
O173 O 0.32151 0.93034 0.32318 0.0
C174 C 0.3158 0.95667 0.32349 0.0
C175 C 0.31417 0.84967 0.31959 0.0
C176 C 0.36333 0.91646 0.25658 0.0
C177 C 0.26833 0.89163 0.25676 0.0
O178 O 0.29215 0.87737 0.25633 0.0
O179 O 0.26661 0.91281 0.27192 0.0
O180 O 0.32809 0.84147 0.29851 0.0
O181 O 0.30895 0.87593 0.32213 0.0
O182 O 0.13926 0.37825 0.94038 0.0
Cd183 Cd 0.10273 0.38125 0.96529 0.0
Cd184 Cd 0.12889 0.42867 0.97485 0.0
O185 O 0.16679 0.40743 0.96352 0.0
O186 O 0.0931 0.3429 0.9776 0.0
O187 O 0.11056 0.37614 0.00395 0.0
C188 C 0.10302 0.3504 1.00063 0.0
C189 C 0.12989 0.46295 0.00789 0.0
C190 C 0.1645 0.38906 0.94552 0.0
C191 C 0.07333 0.4269 0.94082 0.0
O192 O 0.09849 0.43819 0.94534 0.0
O193 O 0.06687 0.40368 0.95135 0.0
O194 O 0.14314 0.46627 0.9854 0.0
O195 O 0.1176 0.43913 0.01243 0.0
O196 O 0.65308 0.57354 0.25976 0.0
Cd197 Cd 0.68831 0.57545 0.28628 0.0
Cd198 Cd 0.67235 0.62596 0.28549 0.0
O199 O 0.63157 0.6127 0.27201 0.0
O200 O 0.69271 0.53786 0.30289 0.0
O201 O 0.67582 0.57473 0.32453 0.0
C202 C 0.68114 0.54832 0.32419 0.0
C203 C 0.68295 0.6567 0.31969 0.0
C204 C 0.63104 0.59025 0.25873 0.0
C205 C 0.72722 0.61277 0.25632 0.0
O206 O 0.70405 0.62792 0.25649 0.0
O207 O 0.72842 0.59137 0.27123 0.0
O208 O 0.66924 0.66476 0.29848 0.0
O209 O 0.68811 0.63045 0.32257 0.0
O210 O 0.85947 0.12235 0.93875 0.0
Cd211 Cd 0.89649 0.11879 0.96291 0.0
Cd212 Cd 0.87009 0.07118 0.97358 0.0
O213 O 0.83241 0.09297 0.96212 0.0
O214 O 0.90637 0.15673 0.97617 0.0
O215 O 0.8894 0.12255 0.00174 0.0
C216 C 0.89706 0.14835 0.99912 0.0
C217 C 0.8678 0.03657 0.00642 0.0
C218 C 0.8343 0.11171 0.94441 0.0
C219 C 0.92569 0.07238 0.93912 0.0
O220 O 0.90075 0.06102 0.94446 0.0
O221 O 0.93184 0.09626 0.94837 0.0
O222 O 0.85488 0.03375 0.98373 0.0
O223 O 0.8807 0.06004 0.01126 0.0
O224 O 0.23192 0.30752 0.09318 0.0
Cd225 Cd 0.20353 0.2754 0.10175 0.0
Cd226 Cd 0.2105 0.29637 0.14857 0.0
O227 O 0.2241 0.33219 0.12949 0.0
O228 O 0.18229 0.26832 0.0676 0.0
O229 O 0.1609 0.28769 0.10271 0.0
C230 C 0.15978 0.28137 0.07779 0.0
C231 C 0.17235 0.28997 0.17954 0.0
C232 C 0.23488 0.32996 0.1062 0.0
C233 C 0.24266 0.24354 0.13629 0.0
O234 O 0.24256 0.26598 0.14958 0.0
O235 O 0.22389 0.24009 0.11753 0.0
O236 O 0.19689 0.3024 0.18603 0.0
O237 O 0.16868 0.28333 0.1549 0.0
O238 O 0.23827 0.69865 0.41288 0.0
Cd239 Cd 0.20832 0.7299 0.40523 0.0
Cd240 Cd 0.21397 0.70993 0.35806 0.0
O241 O 0.22961 0.67439 0.37648 0.0
O242 O 0.18625 0.73548 0.43921 0.0
O243 O 0.16643 0.71587 0.40349 0.0
C244 C 0.16453 0.72179 0.42846 0.0
C245 C 0.1759 0.71464 0.32659 0.0
C246 C 0.2415 0.67657 0.39936 0.0
C247 C 0.2443 0.76372 0.36968 0.0
O248 O 0.24475 0.74134 0.3563 0.0
O249 O 0.22645 0.76612 0.38927 0.0
O250 O 0.20111 0.70314 0.32055 0.0
O251 O 0.17153 0.72129 0.35113 0.0
O252 O 0.92281 0.58815 0.86049 0.0
Cd253 Cd 0.91713 0.56627 0.89538 0.0
Cd254 Cd 0.9694 0.54669 0.88298 0.0
O255 O 0.95212 0.55493 0.84584 0.0
O256 O 0.87389 0.55543 0.89693 0.0
O257 O 0.91067 0.5259 0.88836 0.0
C258 C 0.88232 0.53092 0.88943 0.0
C259 C 0.99471 0.50519 0.89077 0.0
C260 C 0.93497 0.57539 0.84122 0.0
C261 C 0.96605 0.58586 0.92886 0.0
O262 O 0.98138 0.57809 0.90893 0.0
O263 O 0.93832 0.57993 0.92988 0.0
O264 O 0.00667 0.52515 0.87738 0.0
O265 O 0.96757 0.50841 0.8989 0.0
O266 O 0.76432 0.80663 0.40964 0.0
Cd267 Cd 0.79343 0.775 0.40111 0.0
Cd268 Cd 0.78564 0.79553 0.3542 0.0
O269 O 0.77115 0.83116 0.37308 0.0
O270 O 0.81486 0.76841 0.43525 0.0
O271 O 0.83581 0.78795 0.40002 0.0
C272 C 0.8371 0.78173 0.42496 0.0
C273 C 0.82382 0.78982 0.32315 0.0
C274 C 0.76062 0.82887 0.39646 0.0
C275 C 0.75495 0.74213 0.36699 0.0
O276 O 0.75439 0.76445 0.35352 0.0
O277 O 0.77388 0.73921 0.3857 0.0
O278 O 0.7989 0.80165 0.31668 0.0
O279 O 0.82778 0.78339 0.34781 0.0
O280 O 0.57747 0.41267 0.36096 0.0
Cd281 Cd 0.58266 0.43511 0.39559 0.0
Cd282 Cd 0.53051 0.4541 0.38198 0.0
O283 O 0.54815 0.44528 0.34504 0.0
O284 O 0.62576 0.44656 0.39752 0.0
O285 O 0.58857 0.47545 0.38832 0.0
C286 C 0.61697 0.47091 0.38986 0.0
C287 C 0.50492 0.49551 0.38946 0.0
C288 C 0.56523 0.42458 0.34123 0.0
C289 C 0.53335 0.41569 0.42854 0.0
O290 O 0.51838 0.42297 0.40821 0.0
O291 O 0.56098 0.42187 0.42995 0.0
O292 O 0.49315 0.47548 0.37605 0.0
O293 O 0.53208 0.49248 0.39762 0.0
O294 O 0.26763 0.691 0.59288 0.0
Cd295 Cd 0.2961 0.72328 0.60095 0.0
Cd296 Cd 0.28887 0.70341 0.64825 0.0
O297 O 0.27503 0.66731 0.62986 0.0
O298 O 0.31859 0.72924 0.56723 0.0
O299 O 0.3386 0.71104 0.60354 0.0
C300 C 0.34067 0.71649 0.5785 0.0
C301 C 0.32634 0.70967 0.67995 0.0
C302 C 0.26422 0.66903 0.60654 0.0
C303 C 0.25697 0.75611 0.63448 0.0
O304 O 0.25706 0.73407 0.64838 0.0
O305 O 0.27572 0.75903 0.61564 0.0
O306 O 0.3014 0.69774 0.68608 0.0
O307 O 0.33074 0.71593 0.65532 0.0
O308 O 0.9187 0.416 0.64024 0.0
Cd309 Cd 0.91467 0.43738 0.60488 0.0
Cd310 Cd 0.96771 0.45503 0.61818 0.0
O311 O 0.9477 0.44953 0.65468 0.0
O312 O 0.87234 0.45127 0.60301 0.0
O313 O 0.91145 0.47807 0.61145 0.0
C314 C 0.88281 0.47518 0.61022 0.0
C315 C 0.99482 0.4952 0.60945 0.0
C316 C 0.93002 0.42953 0.65941 0.0
C317 C 0.96354 0.41502 0.57315 0.0
O318 O 0.97851 0.42215 0.59351 0.0
O319 O 0.93637 0.42268 0.57099 0.0
O320 O 0.00565 0.47549 0.62397 0.0
O321 O 0.96787 0.49249 0.60072 0.0
O322 O 0.0764 0.08721 0.63963 0.0
Cd323 Cd 0.08076 0.06414 0.60529 0.0
Cd324 Cd 0.02817 0.04716 0.61928 0.0
O325 O 0.04644 0.05546 0.65609 0.0
O326 O 0.12357 0.05163 0.60334 0.0
O327 O 0.08578 0.02379 0.61323 0.0
C328 C 0.11426 0.02763 0.61147 0.0
C329 C 0.00217 0.00621 0.61114 0.0
C330 C 0.06412 0.07576 0.65958 0.0
C331 C 0.03176 0.08476 0.57243 0.0
O332 O 0.01683 0.07859 0.5931 0.0
O333 O 0.05906 0.07738 0.57086 0.0
O334 O 0.99054 0.02611 0.62488 0.0
O335 O 0.02941 0.00904 0.6032 0.0
O336 O 0.5982 0.67095 0.8486 0.0
Cd337 Cd 0.63506 0.69492 0.83984 0.0
Cd338 Cd 0.61124 0.69049 0.79058 0.0
O339 O 0.57393 0.67654 0.8108 0.0
O340 O 0.64591 0.71617 0.87305 0.0
O341 O 0.62783 0.73574 0.83673 0.0
C342 C 0.63646 0.73824 0.86105 0.0
C343 C 0.61403 0.72805 0.76119 0.0
C344 C 0.57488 0.66744 0.83454 0.0
C345 C 0.66946 0.66182 0.79984 0.0
O346 O 0.64577 0.66279 0.78595 0.0
O347 O 0.67121 0.67564 0.82141 0.0
O348 O 0.60171 0.70491 0.75409 0.0
O349 O 0.62243 0.73035 0.78558 0.0
O350 O 0.89482 0.13479 0.39442 0.0
Cd351 Cd 0.92541 0.10378 0.4014 0.0
Cd352 Cd 0.92033 0.12193 0.45118 0.0
O353 O 0.90531 0.15747 0.4312 0.0
O354 O 0.95183 0.10125 0.36937 0.0
O355 O 0.96611 0.11824 0.40824 0.0
C356 C 0.97202 0.11343 0.38359 0.0
C357 C 0.95751 0.12168 0.48437 0.0
C358 C 0.89341 0.15689 0.40817 0.0
C359 C 0.89601 0.06532 0.43817 0.0
O360 O 0.89343 0.08694 0.45255 0.0
O361 O 0.91175 0.0661 0.41715 0.0
O362 O 0.93076 0.13043 0.48922 0.0
O363 O 0.96361 0.11478 0.46023 0.0
O364 O 0.39765 0.82972 0.84909 0.0
Cd365 Cd 0.36159 0.80522 0.83924 0.0
Cd366 Cd 0.38764 0.81003 0.79111 0.0
O367 O 0.42424 0.82339 0.8127 0.0
O368 O 0.34978 0.78414 0.87232 0.0
O369 O 0.36969 0.76448 0.83682 0.0
C370 C 0.3602 0.76212 0.86089 0.0
C371 C 0.38487 0.77245 0.76179 0.0
C372 C 0.42189 0.83279 0.83626 0.0
C373 C 0.3292 0.83862 0.79836 0.0
O374 O 0.35374 0.8382 0.78571 0.0
O375 O 0.32606 0.82399 0.81933 0.0
O376 O 0.39802 0.79528 0.75493 0.0
O377 O 0.37567 0.77043 0.78597 0.0
O378 O 0.10303 0.36418 0.39708 0.0
Cd379 Cd 0.07222 0.39524 0.40307 0.0
Cd380 Cd 0.0753 0.37802 0.45291 0.0
O381 O 0.09133 0.3423 0.43401 0.0
O382 O 0.04807 0.39771 0.36983 0.0
O383 O 0.03085 0.38116 0.40795 0.0
C384 C 0.02689 0.3856 0.38288 0.0
C385 C 0.03818 0.3775 0.48608 0.0
C386 C 0.10404 0.3424 0.41135 0.0
C387 C 0.09977 0.43469 0.43998 0.0
O388 O 0.1017 0.41335 0.45485 0.0
O389 O 0.08539 0.43327 0.41824 0.0
O390 O 0.06514 0.36931 0.4908 0.0
O391 O 0.03177 0.38434 0.46195 0.0
O392 O 0.59758 0.32775 0.65359 0.0
Cd393 Cd 0.63441 0.30445 0.66368 0.0
Cd394 Cd 0.60739 0.30819 0.71189 0.0
O395 O 0.57075 0.32095 0.6898 0.0
O396 O 0.64712 0.28273 0.63116 0.0
O397 O 0.62773 0.26373 0.66722 0.0
C398 C 0.63768 0.2608 0.64338 0.0
C399 C 0.61113 0.27092 0.74159 0.0
C400 C 0.57316 0.3304 0.66624 0.0
C401 C 0.66487 0.33878 0.70498 0.0
O402 O 0.64034 0.33719 0.71759 0.0
O403 O 0.66877 0.3246 0.68384 0.0
O404 O 0.59707 0.29338 0.74814 0.0
O405 O 0.62059 0.26894 0.71749 0.0
O406 O 0.60479 0.13423 0.60651 0.0
Cd407 Cd 0.57291 0.10435 0.59983 0.0
Cd408 Cd 0.57773 0.12229 0.55046 0.0
O409 O 0.5941 0.15742 0.5701 0.0
O410 O 0.54845 0.10198 0.63293 0.0
O411 O 0.5321 0.11987 0.59505 0.0
C412 C 0.52777 0.11497 0.61997 0.0
C413 C 0.54023 0.12316 0.51774 0.0
C414 C 0.60646 0.15641 0.5929 0.0
C415 C 0.59981 0.06478 0.56265 0.0
O416 O 0.6033 0.08642 0.54844 0.0
O417 O 0.5847 0.06622 0.584 0.0
O418 O 0.56717 0.13118 0.51265 0.0
O419 O 0.53411 0.1165 0.54196 0.0
O420 O 0.40211 0.1724 0.65531 0.0
Cd421 Cd 0.36492 0.19609 0.66391 0.0
Cd422 Cd 0.38906 0.19229 0.71295 0.0
O423 O 0.42657 0.17864 0.6929 0.0
O424 O 0.35369 0.21677 0.63049 0.0
O425 O 0.37136 0.23707 0.66658 0.0
C426 C 0.36269 0.23913 0.64223 0.0
C427 C 0.38569 0.22979 0.74234 0.0
C428 C 0.42555 0.16921 0.66929 0.0
C429 C 0.33148 0.16248 0.70386 0.0
O430 O 0.35518 0.16399 0.71766 0.0
O431 O 0.3291 0.17641 0.6824 0.0
O432 O 0.39836 0.2068 0.74942 0.0
O433 O 0.37724 0.23202 0.71794 0.0
O434 O 0.39388 0.36543 0.60536 0.0
Cd435 Cd 0.42485 0.39634 0.59943 0.0
Cd436 Cd 0.42117 0.37927 0.54916 0.0
O437 O 0.40557 0.3436 0.56835 0.0
O438 O 0.45089 0.39779 0.63175 0.0
O439 O 0.46539 0.38137 0.59271 0.0
C440 C 0.47103 0.38553 0.61752 0.0
C441 C 0.45846 0.37916 0.51614 0.0
C442 C 0.39297 0.34366 0.59107 0.0
C443 C 0.39726 0.43594 0.56249 0.0
O444 O 0.39478 0.4146 0.54772 0.0
O445 O 0.41223 0.43453 0.58393 0.0
O446 O 0.43157 0.37095 0.51114 0.0
O447 O 0.46463 0.38575 0.54035 0.0
O448 O 0.84823 0.57698 0.74346 0.0
Cd449 Cd 0.81307 0.57845 0.71685 0.0
Cd450 Cd 0.82703 0.62961 0.71897 0.0
O451 O 0.86813 0.61731 0.73264 0.0
O452 O 0.81032 0.54119 0.69924 0.0
O453 O 0.82579 0.57922 0.67867 0.0
C454 C 0.82167 0.55264 0.67831 0.0
C455 C 0.81572 0.66065 0.68507 0.0
C456 C 0.86951 0.59443 0.74521 0.0
C457 C 0.77243 0.6138 0.7474 0.0
O458 O 0.79492 0.62979 0.74768 0.0
O459 O 0.77224 0.59272 0.73204 0.0
O460 O 0.82874 0.66876 0.7066 0.0
O461 O 0.8116 0.63431 0.68177 0.0
O462 O 0.85587 0.88019 0.56175 0.0
Cd463 Cd 0.8923 0.88309 0.53683 0.0
Cd464 Cd 0.86579 0.93054 0.52636 0.0
O465 O 0.82817 0.90937 0.53869 0.0
O466 O 0.90231 0.84469 0.5249 0.0
O467 O 0.88467 0.8776 0.4982 0.0
C468 C 0.89247 0.85195 0.50176 0.0
C469 C 0.8634 0.96469 0.49315 0.0
C470 C 0.83062 0.89109 0.55676 0.0
C471 C 0.92189 0.92949 0.56007 0.0
O472 O 0.89682 0.94083 0.5551 0.0
O473 O 0.92795 0.90567 0.55064 0.0
O474 O 0.85073 0.96793 0.51589 0.0
O475 O 0.87606 0.94104 0.48848 0.0
O476 O 0.15011 0.92227 0.74186 0.0
Cd477 Cd 0.18521 0.92192 0.7151 0.0
Cd478 Cd 0.17186 0.87069 0.7156 0.0
O479 O 0.13076 0.88207 0.72989 0.0
O480 O 0.18824 0.95991 0.69913 0.0
O481 O 0.17278 0.92299 0.67678 0.0
C482 C 0.17729 0.94951 0.67756 0.0
C483 C 0.18288 0.84021 0.68127 0.0
C484 C 0.12922 0.90438 0.74331 0.0
C485 C 0.22659 0.88573 0.74419 0.0
O486 O 0.20425 0.86956 0.74408 0.0
O487 O 0.22617 0.90758 0.72984 0.0
O488 O 0.17 0.83181 0.70275 0.0
O489 O 0.18693 0.8666 0.67821 0.0
O490 O 0.14384 0.62008 0.56255 0.0
Cd491 Cd 0.10738 0.61789 0.53754 0.0
Cd492 Cd 0.13319 0.57012 0.52715 0.0
O493 O 0.17119 0.59092 0.53916 0.0
O494 O 0.09786 0.65664 0.52635 0.0
O495 O 0.11519 0.62419 0.49904 0.0
C496 C 0.10772 0.64984 0.50311 0.0
C497 C 0.13411 0.53586 0.49405 0.0
C498 C 0.169 0.6091 0.55734 0.0
C499 C 0.07703 0.57176 0.56051 0.0
O500 O 0.10214 0.56032 0.55598 0.0
O501 O 0.07127 0.59556 0.55087 0.0
O502 O 0.14723 0.53242 0.51659 0.0
O503 O 0.12225 0.55987 0.48941 0.0
O504 O 0.83859 0.43122 0.75697 0.0
Cd505 Cd 0.80568 0.42864 0.78564 0.0
Cd506 Cd 0.82249 0.37873 0.7834 0.0
O507 O 0.86243 0.3932 0.76888 0.0
O508 O 0.80212 0.46587 0.80319 0.0
O509 O 0.82127 0.42883 0.823 0.0
C510 C 0.81553 0.45516 0.82352 0.0
C511 C 0.81266 0.34746 0.81736 0.0
C512 C 0.86126 0.41535 0.75511 0.0
C513 C 0.76574 0.39113 0.75733 0.0
O514 O 0.78957 0.377 0.75547 0.0
O515 O 0.76493 0.412 0.77292 0.0
O516 O 0.82612 0.33975 0.79589 0.0
O517 O 0.80791 0.3737 0.82076 0.0
O518 O 0.63992 0.87753 0.44034 0.0
Cd519 Cd 0.60284 0.88103 0.46454 0.0
Cd520 Cd 0.6288 0.92876 0.4742 0.0
O521 O 0.6668 0.90737 0.46333 0.0
O522 O 0.59323 0.84311 0.47808 0.0
O523 O 0.61001 0.87756 0.5034 0.0
C524 C 0.60249 0.85171 0.50098 0.0
C525 C 0.62989 0.9632 0.50711 0.0
C526 C 0.66502 0.88844 0.44583 0.0
C527 C 0.5735 0.92667 0.43973 0.0
O528 O 0.59846 0.93819 0.4446 0.0
O529 O 0.56719 0.90327 0.44994 0.0
O530 O 0.64312 0.96639 0.4846 0.0
O531 O 0.61749 0.93945 0.51172 0.0
O532 O 0.15114 0.07703 0.75661 0.0
Cd533 Cd 0.18633 0.07727 0.78338 0.0
Cd534 Cd 0.17307 0.12852 0.78261 0.0
O535 O 0.1319 0.11732 0.76854 0.0
O536 O 0.18958 0.03924 0.79923 0.0
O537 O 0.17404 0.07605 0.82173 0.0
C538 C 0.17874 0.04955 0.82088 0.0
C539 C 0.1847 0.15864 0.81703 0.0
C540 C 0.13026 0.09497 0.75518 0.0
C541 C 0.22792 0.11345 0.75454 0.0
O542 O 0.20545 0.12949 0.75413 0.0
O543 O 0.22739 0.09174 0.76906 0.0
O544 O 0.17171 0.16733 0.79568 0.0
O545 O 0.18819 0.13216 0.81999 0.0
O546 O 0.36221 0.62432 0.44111 0.0
Cd547 Cd 0.39892 0.61981 0.46552 0.0
Cd548 Cd 0.37145 0.57276 0.47516 0.0
O549 O 0.33423 0.59546 0.4642 0.0
O550 O 0.40939 0.65739 0.4793 0.0
O551 O 0.39155 0.62315 0.50434 0.0
C552 C 0.39967 0.64886 0.50208 0.0
C553 C 0.36855 0.5379 0.5077 0.0
C554 C 0.33675 0.61412 0.44649 0.0
C555 C 0.42686 0.57369 0.44054 0.0
O556 O 0.40164 0.56272 0.44558 0.0
O557 O 0.43388 0.59689 0.45079 0.0
O558 O 0.35552 0.5355 0.48501 0.0
O559 O 0.38204 0.56105 0.51266 0.0
O560 O 0.73289 0.80913 0.59348 0.0
Cd561 Cd 0.70425 0.77704 0.60161 0.0
Cd562 Cd 0.71059 0.79772 0.64869 0.0
O563 O 0.72447 0.83356 0.62984 0.0
O564 O 0.68223 0.77076 0.56767 0.0
O565 O 0.66183 0.78963 0.60347 0.0
C566 C 0.66013 0.78392 0.57846 0.0
C567 C 0.67264 0.79152 0.6799 0.0
C568 C 0.73579 0.83142 0.60674 0.0
C569 C 0.74276 0.74485 0.63638 0.0
O570 O 0.74253 0.76722 0.64978 0.0
O571 O 0.72428 0.74155 0.61737 0.0
O572 O 0.69731 0.80382 0.68625 0.0
O573 O 0.66874 0.78494 0.65529 0.0
O574 O 0.73534 0.19472 0.90869 0.0
Cd575 Cd 0.70586 0.22615 0.90045 0.0
Cd576 Cd 0.7134 0.20586 0.85295 0.0
O577 O 0.72893 0.17053 0.87185 0.0
O578 O 0.68368 0.2319 0.93444 0.0
O579 O 0.66378 0.21265 0.89864 0.0
C580 C 0.66191 0.21832 0.92364 0.0
C581 C 0.67431 0.21071 0.82253 0.0
C582 C 0.73935 0.17267 0.89529 0.0
C583 C 0.74266 0.26014 0.86529 0.0
O584 O 0.74356 0.23787 0.85175 0.0
O585 O 0.72451 0.26225 0.88471 0.0
O586 O 0.69939 0.19948 0.81559 0.0
O587 O 0.67082 0.21694 0.84726 0.0
O588 O 0.42283 0.08911 0.36152 0.0
Cd589 Cd 0.41689 0.06727 0.3964 0.0
Cd590 Cd 0.46907 0.04717 0.38407 0.0
O591 O 0.45184 0.05562 0.347 0.0
O592 O 0.37359 0.05665 0.3977 0.0
O593 O 0.41027 0.02694 0.38933 0.0
C594 C 0.38195 0.03212 0.3902 0.0
C595 C 0.4945 0.00561 0.39123 0.0
C596 C 0.43487 0.07619 0.3423 0.0
C597 C 0.46582 0.08635 0.43005 0.0
O598 O 0.48117 0.07837 0.4102 0.0
O599 O 0.43802 0.08073 0.43097 0.0
O600 O 0.50638 0.02581 0.37812 0.0
O601 O 0.46739 0.00867 0.39953 0.0
O602 O 0.26434 0.30799 0.90948 0.0
Cd603 Cd 0.29394 0.27658 0.90132 0.0
Cd604 Cd 0.28719 0.29722 0.85437 0.0
O605 O 0.27189 0.33261 0.87309 0.0
O606 O 0.31507 0.26986 0.93557 0.0
O607 O 0.33626 0.28974 0.90063 0.0
C608 C 0.33741 0.28323 0.9255 0.0
C609 C 0.32565 0.29213 0.82353 0.0
C610 C 0.26063 0.33017 0.89618 0.0
C611 C 0.257 0.24334 0.86607 0.0
O612 O 0.25636 0.26583 0.85284 0.0
O613 O 0.27524 0.24068 0.88534 0.0
O614 O 0.30067 0.30379 0.817 0.0
O615 O 0.32954 0.28563 0.84818 0.0
O616 O 0.07815 0.91223 0.85972 0.0
Cd617 Cd 0.08348 0.93502 0.89414 0.0
Cd618 Cd 0.03087 0.95316 0.88092 0.0
O619 O 0.04817 0.94436 0.84386 0.0
O620 O 0.12638 0.94725 0.89545 0.0
O621 O 0.08849 0.97537 0.88641 0.0
C622 C 0.11699 0.97137 0.88766 0.0
C623 C 0.0052 0.99444 0.88881 0.0
C624 C 0.0655 0.92384 0.84003 0.0
C625 C 0.03484 0.91513 0.92767 0.0
O626 O 0.01956 0.92201 0.90739 0.0
O627 O 0.06238 0.92177 0.92882 0.0
O628 O 0.99327 0.97439 0.8755 0.0
O629 O 0.03252 0.99152 0.89652 0.0
O630 O 0.76599 0.1924 0.09104 0.0
Cd631 Cd 0.79519 0.22414 0.09897 0.0
Cd632 Cd 0.78865 0.20374 0.14624 0.0
O633 O 0.77387 0.1681 0.1276 0.0
O634 O 0.81734 0.23004 0.06503 0.0
O635 O 0.83742 0.21107 0.10092 0.0
C636 C 0.83928 0.21674 0.07592 0.0
C637 C 0.82688 0.20947 0.1773 0.0
C638 C 0.76259 0.17028 0.10448 0.0
C639 C 0.75783 0.25732 0.13401 0.0
O640 O 0.75751 0.23492 0.14738 0.0
O641 O 0.77602 0.26002 0.1147 0.0
O642 O 0.80199 0.19765 0.1838 0.0
O643 O 0.83082 0.21568 0.15261 0.0
O644 O 0.421 0.91508 0.14222 0.0
Cd645 Cd 0.41589 0.93597 0.10674 0.0
Cd646 Cd 0.46901 0.95495 0.119 0.0
O647 O 0.44979 0.94916 0.15579 0.0
O648 O 0.37335 0.94933 0.10528 0.0
O649 O 0.41224 0.97667 0.1129 0.0
C650 C 0.38363 0.97347 0.11201 0.0
C651 C 0.49511 0.99563 0.11 0.0
C652 C 0.43249 0.92901 0.16104 0.0
C653 C 0.46475 0.91491 0.07393 0.0
O654 O 0.48009 0.92247 0.09394 0.0
O655 O 0.43718 0.92144 0.07265 0.0
O656 O 0.5066 0.97609 0.1243 0.0
O657 O 0.46806 0.99248 0.10166 0.0
O658 O 0.57658 0.58612 0.14372 0.0
Cd659 Cd 0.58089 0.56507 0.10818 0.0
Cd660 Cd 0.52794 0.54697 0.12127 0.0
O661 O 0.54648 0.55344 0.15822 0.0
O662 O 0.62346 0.55188 0.10597 0.0
O663 O 0.58488 0.52435 0.11417 0.0
C664 C 0.61345 0.52767 0.11273 0.0
C665 C 0.50154 0.50634 0.11263 0.0
C666 C 0.56444 0.57323 0.16292 0.0
C667 C 0.53199 0.587 0.07606 0.0
O668 O 0.5168 0.57941 0.09614 0.0
O669 O 0.55937 0.57993 0.07427 0.0
O670 O 0.49014 0.52614 0.12666 0.0
O671 O 0.52865 0.50922 0.10437 0.0
C672 C 0.1312 0.2581 0.1937 0.0
C673 C 0.15144 0.27947 0.20019 0.0
C674 C 0.11666 0.2427 0.21352 0.0
C675 C 0.12163 0.24815 0.24063 0.0
H676 H 0.12812 0.2518 0.17322 0.0
H677 H 0.10299 0.22524 0.20747 0.0
S678 S 0.16711 0.30607 0.26798 0.0
N679 N 0.17181 0.30826 0.23551 0.0
N680 N 0.14428 0.2796 0.27275 0.0
C681 C 0.13928 0.27139 0.2473 0.0
C682 C 0.15425 0.28697 0.22708 0.0
C683 C 0.52515 0.59692 0.02738 0.0
C684 C 0.51635 0.60138 0.05388 0.0
C685 C 0.50717 0.60583 0.00606 0.0
C686 C 0.47981 0.61972 0.01042 0.0
H687 H 0.54513 0.58502 0.02305 0.0
H688 H 0.51411 0.60055 0.98607 0.0
S689 S 0.44951 0.64081 0.07611 0.0
N690 N 0.48046 0.62365 0.08322 0.0
N691 N 0.44695 0.64058 0.04341 0.0
C692 C 0.47205 0.6262 0.03682 0.0
C693 C 0.49022 0.61698 0.05845 0.0
C694 C 0.85535 0.23075 0.24507 0.0
C695 C 0.87703 0.25097 0.23889 0.0
C696 C 0.84096 0.21552 0.22506 0.0
C697 C 0.84781 0.21974 0.19807 0.0
H698 H 0.84781 0.22799 0.26535 0.0
H699 H 0.82297 0.2017 0.23078 0.0
S700 S 0.90785 0.26549 0.17187 0.0
N701 N 0.90819 0.27096 0.20425 0.0
N702 N 0.88145 0.24216 0.16666 0.0
C703 C 0.87177 0.23762 0.19188 0.0
C704 C 0.88629 0.25329 0.21228 0.0
C705 C 0.52702 0.88078 0.03446 0.0
C706 C 0.51717 0.8829 0.00799 0.0
C707 C 0.50913 0.8897 0.05566 0.0
C708 C 0.48045 0.90101 0.05144 0.0
H709 H 0.54935 0.87339 0.0389 0.0
H710 H 0.51843 0.88868 0.07551 0.0
S711 S 0.4424 0.90773 0.9862 0.0
N712 N 0.47554 0.89464 0.97892 0.0
N713 N 0.44187 0.91129 0.01883 0.0
C714 C 0.46941 0.90143 0.02525 0.0
C715 C 0.48777 0.89245 0.00354 0.0
C716 C 0.13307 0.74429 0.31154 0.0
C717 C 0.15485 0.72407 0.30554 0.0
C718 C 0.11799 0.75877 0.29136 0.0
C719 C 0.12394 0.75351 0.26436 0.0
H720 H 0.12906 0.75043 0.33193 0.0
H721 H 0.10296 0.7754 0.29705 0.0
S722 S 0.17456 0.69866 0.23819 0.0
N723 N 0.17829 0.69665 0.27074 0.0
N724 N 0.14994 0.72363 0.23286 0.0
C725 C 0.14346 0.7314 0.25816 0.0
C726 C 0.15892 0.71676 0.27873 0.0
C727 C 0.0283 0.61985 0.96845 0.0
C728 C 0.01821 0.61815 0.99486 0.0
C729 C 0.01055 0.61073 0.94723 0.0
C730 C 0.98177 0.59966 0.95138 0.0
H731 H 0.0507 0.62705 0.96409 0.0
H732 H 0.02001 0.61147 0.92744 0.0
S733 S 0.94315 0.59402 0.01642 0.0
N734 N 0.97628 0.60701 0.02378 0.0
N735 N 0.94287 0.59002 0.98383 0.0
C736 C 0.97052 0.59962 0.9775 0.0
C737 C 0.98874 0.60879 0.99923 0.0
C738 C 0.88032 0.74344 0.28905 0.0
C739 C 0.87522 0.74889 0.26196 0.0
C740 C 0.86554 0.75859 0.30892 0.0
C741 C 0.84492 0.77969 0.30249 0.0
H742 H 0.89429 0.72614 0.29506 0.0
H743 H 0.86874 0.75227 0.32938 0.0
S744 S 0.8287 0.80628 0.23477 0.0
N745 N 0.85199 0.78013 0.22992 0.0
N746 N 0.82401 0.80831 0.26725 0.0
C747 C 0.84195 0.78724 0.27561 0.0
C748 C 0.85717 0.77193 0.25535 0.0
C749 C 0.9907 0.88984 0.94619 0.0
C750 C 0.01919 0.90152 0.95035 0.0
C751 C 0.97293 0.88083 0.96742 0.0
C752 C 0.9827 0.88324 0.99389 0.0
H753 H 0.98147 0.8885 0.92633 0.0
H754 H 0.95074 0.87311 0.963 0.0
S755 S 0.05702 0.90916 0.01559 0.0
N756 N 0.05755 0.91253 0.98294 0.0
N757 N 0.02409 0.89572 0.02293 0.0
C758 C 0.01192 0.89323 0.99832 0.0
C759 C 0.03017 0.9023 0.97656 0.0
C760 C 0.24806 0.14122 0.28295 0.0
C761 C 0.24497 0.12193 0.26204 0.0
C762 C 0.22312 0.15272 0.29564 0.0
C763 C 0.19397 0.14564 0.28778 0.0
H764 H 0.27002 0.14821 0.2891 0.0
H765 H 0.22679 0.16824 0.31088 0.0
S766 S 0.17359 0.09363 0.23626 0.0
N767 N 0.21048 0.09434 0.23571 0.0
N768 N 0.16342 0.11599 0.25945 0.0
C769 C 0.19052 0.12515 0.26794 0.0
C770 C 0.21604 0.11325 0.25514 0.0
C771 C 0.36509 0.53933 0.97135 0.0
C772 C 0.38627 0.53934 0.9507 0.0
C773 C 0.35679 0.5147 0.98417 0.0
C774 C 0.36947 0.48895 0.97709 0.0
H775 H 0.35563 0.55869 0.97846 0.0
H776 H 0.34138 0.51619 1.00071 0.0
S777 S 0.42309 0.477 0.92196 0.0
N778 N 0.41748 0.51094 0.92185 0.0
N779 N 0.40203 0.46458 0.94613 0.0
C780 C 0.38906 0.48831 0.95519 0.0
C781 C 0.39742 0.51351 0.94196 0.0
C782 C 0.7757 0.34919 0.29564 0.0
C783 C 0.80491 0.35524 0.28721 0.0
C784 C 0.75088 0.36087 0.28284 0.0
C785 C 0.75422 0.37935 0.2613 0.0
H786 H 0.77183 0.33426 0.31138 0.0
H787 H 0.72882 0.35462 0.28939 0.0
S788 S 0.82597 0.40486 0.23377 0.0
N789 N 0.83585 0.38308 0.25756 0.0
N790 N 0.78906 0.4051 0.23369 0.0
C791 C 0.78327 0.38706 0.25382 0.0
C792 C 0.80863 0.37495 0.26669 0.0
C793 C 0.63295 0.96287 0.96884 0.0
C794 C 0.61189 0.96274 0.94809 0.0
C795 C 0.64107 0.98754 0.98164 0.0
C796 C 0.62833 0.01324 0.97443 0.0
H797 H 0.64241 0.94355 0.97607 0.0
H798 H 0.65636 0.98614 0.99828 0.0
S799 S 0.5751 0.02489 0.91892 0.0
N800 N 0.58081 0.99096 0.91894 0.0
N801 N 0.59594 0.03744 0.94319 0.0
C802 C 0.60893 0.01377 0.95239 0.0
C803 C 0.60075 0.98851 0.93918 0.0
C804 C 0.18905 0.87277 0.23735 0.0
C805 C 0.19326 0.85513 0.21522 0.0
C806 C 0.21323 0.88596 0.24985 0.0
C807 C 0.24257 0.88184 0.24083 0.0
H808 H 0.16698 0.87578 0.24572 0.0
H809 H 0.20903 0.8983 0.26746 0.0
S810 S 0.26556 0.84096 0.18164 0.0
N811 N 0.229 0.83672 0.1833 0.0
N812 N 0.27434 0.86136 0.20681 0.0
C813 C 0.24697 0.86565 0.21782 0.0
C814 C 0.22236 0.85236 0.205 0.0
C815 C 0.13917 0.51267 0.01924 0.0
C816 C 0.12601 0.48706 0.02605 0.0
C817 C 0.13143 0.53725 0.03242 0.0
C818 C 0.11031 0.53737 0.05312 0.0
H819 H 0.15456 0.5141 0.00269 0.0
H820 H 0.14127 0.55652 0.02553 0.0
S821 S 0.07237 0.4753 0.08118 0.0
N822 N 0.09309 0.46285 0.05678 0.0
N823 N 0.07864 0.50913 0.08171 0.0
C824 C 0.09867 0.51162 0.06156 0.0
C825 C 0.10649 0.48647 0.04799 0.0
C826 C 0.80679 0.6294 0.23616 0.0
C827 C 0.80287 0.64735 0.21421 0.0
C828 C 0.78236 0.61679 0.24879 0.0
C829 C 0.75304 0.62184 0.24011 0.0
H830 H 0.82887 0.62571 0.24427 0.0
H831 H 0.78638 0.60419 0.26627 0.0
S832 S 0.73062 0.66391 0.1815 0.0
N833 N 0.76732 0.66706 0.1828 0.0
N834 N 0.72151 0.64352 0.2066 0.0
C835 C 0.74888 0.63833 0.21727 0.0
C836 C 0.77374 0.65102 0.20429 0.0
C837 C 0.89321 0.01215 0.04434 0.0
C838 C 0.87096 0.01231 0.02453 0.0
C839 C 0.90093 0.98751 0.05776 0.0
C840 C 0.88677 0.96216 0.05172 0.0
H841 H 0.90601 0.03077 0.04844 0.0
H842 H 0.91938 0.98803 0.07169 0.0
S843 S 0.82315 0.95249 0.00534 0.0
N844 N 0.83191 0.98568 0.00251 0.0
N845 N 0.84661 0.93957 0.02744 0.0
C846 C 0.86287 0.96256 0.03358 0.0
C847 C 0.8549 0.98758 0.02008 0.0
C848 C 0.25752 0.1934 0.14114 0.0
C849 C 0.26458 0.22176 0.14359 0.0
C850 C 0.27595 0.17294 0.15256 0.0
C851 C 0.30201 0.18023 0.16671 0.0
H852 H 0.23674 0.18709 0.13189 0.0
H853 H 0.26858 0.1515 0.15191 0.0
S854 S 0.33359 0.25112 0.17347 0.0
N855 N 0.30186 0.25568 0.15731 0.0
N856 N 0.33623 0.21733 0.17875 0.0
C857 C 0.31064 0.20827 0.16703 0.0
C858 C 0.29197 0.22902 0.15549 0.0
C859 C 0.30707 0.80065 0.33395 0.0
C860 C 0.30042 0.82894 0.33767 0.0
C861 C 0.28958 0.7799 0.34557 0.0
C862 C 0.26472 0.78646 0.36154 0.0
H863 H 0.32498 0.79434 0.32077 0.0
H864 H 0.29503 0.75845 0.34111 0.0
S865 S 0.24028 0.85732 0.38079 0.0
N866 N 0.26915 0.86252 0.36096 0.0
N867 N 0.23631 0.82326 0.38293 0.0
C868 C 0.25922 0.8146 0.36728 0.0
C869 C 0.27708 0.83589 0.35532 0.0
C870 C 0.00246 0.46336 0.91962 0.0
C871 C 0.01283 0.48097 0.89922 0.0
C872 C 0.0216 0.44409 0.93188 0.0
C873 C 0.05169 0.44204 0.9242 0.0
H874 H 0.97996 0.46557 0.92729 0.0
H875 H 0.01336 0.43218 0.94861 0.0
S876 S 0.08821 0.47905 0.86838 0.0
N877 N 0.05393 0.49175 0.86921 0.0
N878 N 0.08983 0.45593 0.89258 0.0
C879 C 0.06158 0.45771 0.90239 0.0
C880 C 0.04214 0.47708 0.88978 0.0
C881 C 0.74139 0.69168 0.36247 0.0
C882 C 0.73352 0.71986 0.36002 0.0
C883 C 0.72335 0.67079 0.35134 0.0
C884 C 0.69688 0.67747 0.33749 0.0
H885 H 0.76247 0.68586 0.37149 0.0
H886 H 0.73131 0.64953 0.35196 0.0
S887 S 0.66329 0.74764 0.33092 0.0
N888 N 0.69515 0.75294 0.34666 0.0
N889 N 0.66147 0.7138 0.32579 0.0
C890 C 0.68747 0.70532 0.3372 0.0
C891 C 0.70577 0.7265 0.34844 0.0
C892 C 0.47843 0.55686 0.43035 0.0
C893 C 0.448 0.55824 0.42366 0.0
C894 C 0.49744 0.53771 0.41781 0.0
C895 C 0.4866 0.51953 0.39807 0.0
H896 H 0.48716 0.5693 0.44653 0.0
H897 H 0.5203 0.5361 0.42474 0.0
S898 S 0.40991 0.51946 0.36979 0.0
N899 N 0.40883 0.54302 0.3936 0.0
N900 N 0.44447 0.5074 0.36969 0.0
C901 C 0.45682 0.52269 0.38957 0.0
C902 C 0.43751 0.54194 0.4025 0.0
C903 C 0.24218 0.80633 0.63862 0.0
C904 C 0.23495 0.77802 0.64109 0.0
C905 C 0.2236 0.82692 0.64963 0.0
C906 C 0.19723 0.81977 0.66337 0.0
H907 H 0.26321 0.81251 0.62973 0.0
H908 H 0.2311 0.84832 0.64906 0.0
S909 S 0.16519 0.74902 0.66986 0.0
N910 N 0.19726 0.74428 0.65428 0.0
N911 N 0.16257 0.78284 0.67493 0.0
C912 C 0.18844 0.79177 0.66362 0.0
C913 C 0.20727 0.77091 0.65251 0.0
C914 C 0.06488 0.53538 0.59369 0.0
C915 C 0.05477 0.55619 0.57624 0.0
C916 C 0.04498 0.51698 0.60576 0.0
C917 C 0.01412 0.51841 0.60066 0.0
H918 H 0.08856 0.53259 0.59736 0.0
H919 H 0.05417 0.50061 0.6181 0.0
S920 S 0.97576 0.57161 0.55942 0.0
N921 N 0.01163 0.57921 0.55669 0.0
N922 N 0.97397 0.54434 0.5793 0.0
C923 C 0.00342 0.54037 0.58474 0.0
C924 C 0.02381 0.55936 0.57256 0.0
C925 C 0.93299 0.96533 0.59405 0.0
C926 C 0.94366 0.94505 0.57631 0.0
C927 C 0.95245 0.98368 0.60675 0.0
C928 C 0.9834 0.98276 0.60199 0.0
H929 H 0.90922 0.96774 0.59748 0.0
H930 H 0.94284 0.99966 0.61929 0.0
S931 S 0.02308 0.93105 0.56001 0.0
N932 N 0.98737 0.92304 0.55677 0.0
N933 N 0.02421 0.95784 0.5805 0.0
C934 C 0.99465 0.96129 0.58576 0.0
C935 C 0.9747 0.94234 0.57295 0.0
C936 C 0.63153 0.75971 0.69417 0.0
C937 C 0.65191 0.78097 0.70065 0.0
C938 C 0.61726 0.74412 0.71399 0.0
C939 C 0.62263 0.74927 0.7411 0.0
H940 H 0.62816 0.75362 0.67368 0.0
H941 H 0.60348 0.72675 0.70793 0.0
S942 S 0.66856 0.80687 0.7685 0.0
N943 N 0.6728 0.80939 0.736 0.0
N944 N 0.64576 0.78037 0.77327 0.0
C945 C 0.64038 0.77245 0.7478 0.0
C946 C 0.65509 0.78821 0.72757 0.0
C947 C 0.96959 0.11917 0.53287 0.0
C948 C 0.97919 0.11667 0.50636 0.0
C949 C 0.98746 0.11012 0.55405 0.0
C950 C 0.0159 0.0983 0.54979 0.0
H951 H 0.94746 0.12702 0.53735 0.0
H952 H 0.97836 0.11156 0.57394 0.0
S953 S 0.05324 0.09023 0.48437 0.0
N954 N 0.02032 0.10384 0.47716 0.0
N955 N 0.05396 0.08696 0.51702 0.0
C956 C 0.02667 0.09735 0.52352 0.0
C957 C 0.00832 0.10646 0.50183 0.0
C958 C 0.38187 0.75656 0.71453 0.0
C959 C 0.37624 0.75137 0.74158 0.0
C960 C 0.36758 0.74117 0.69457 0.0
C961 C 0.34693 0.72007 0.70086 0.0
H962 H 0.39588 0.77383 0.70859 0.0
H963 H 0.37118 0.74728 0.67411 0.0
S964 S 0.3295 0.6941 0.76854 0.0
N965 N 0.35254 0.72038 0.77353 0.0
N966 N 0.32546 0.69174 0.73601 0.0
C967 C 0.34346 0.71279 0.72775 0.0
C968 C 0.35818 0.72835 0.74811 0.0
C969 C 0.98947 0.39644 0.50343 0.0
C970 C 0.01645 0.38204 0.50814 0.0
C971 C 0.9712 0.40544 0.52451 0.0
C972 C 0.97931 0.40053 0.55111 0.0
H973 H 0.98308 0.40206 0.48337 0.0
H974 H 0.95156 0.41774 0.51994 0.0
S975 S 0.04483 0.35969 0.57414 0.0
N976 N 0.04813 0.36023 0.54149 0.0
N977 N 0.01408 0.3773 0.58087 0.0
C978 C 0.00502 0.38443 0.556 0.0
C979 C 0.02349 0.37513 0.5346 0.0
C980 C 0.64318 0.23081 0.75532 0.0
C981 C 0.62085 0.25032 0.76189 0.0
C982 C 0.65873 0.21617 0.77506 0.0
C983 C 0.65246 0.22026 0.80217 0.0
H984 H 0.65029 0.22821 0.7349 0.0
H985 H 0.67711 0.20293 0.76901 0.0
S986 S 0.59126 0.26402 0.8295 0.0
N987 N 0.58982 0.26936 0.79713 0.0
N988 N 0.61874 0.24163 0.83422 0.0
C989 C 0.62793 0.23733 0.80882 0.0
C990 C 0.61221 0.25242 0.78868 0.0
C991 C 0.51013 0.11162 0.44819 0.0
C992 C 0.48161 0.1001 0.45254 0.0
C993 C 0.52804 0.12069 0.46931 0.0
C994 C 0.51839 0.11846 0.49583 0.0
H995 H 0.51927 0.11276 0.42829 0.0
H996 H 0.55025 0.12827 0.46477 0.0
S997 S 0.4441 0.09286 0.51793 0.0
N998 N 0.44338 0.08937 0.4853 0.0
N999 N 0.4771 0.10626 0.52509 0.0
C1000 C 0.48914 0.10862 0.50042 0.0
C1001 C 0.47075 0.09951 0.47878 0.0
C1002 C 0.38206 0.24566 0.78957 0.0
C1003 C 0.37676 0.25087 0.76246 0.0
C1004 C 0.36745 0.26099 0.80939 0.0
C1005 C 0.3468 0.28204 0.8029 0.0
H1006 H 0.39605 0.22839 0.79563 0.0
H1007 H 0.37077 0.25482 0.82987 0.0
S1008 S 0.33021 0.30813 0.73508 0.0
N1009 N 0.35341 0.28189 0.7303 0.0
N1010 N 0.32574 0.31044 0.76756 0.0
C1011 C 0.3437 0.2894 0.77599 0.0
C1012 C 0.35874 0.2739 0.75577 0.0
C1013 C 0.48856 0.39104 0.44663 0.0
C1014 C 0.51727 0.40216 0.45102 0.0
C1015 C 0.47053 0.38206 0.46771 0.0
C1016 C 0.48024 0.38397 0.49423 0.0
H1017 H 0.47938 0.3901 0.42673 0.0
H1018 H 0.44821 0.37477 0.46314 0.0
S1019 S 0.55494 0.40841 0.51647 0.0
N1020 N 0.55567 0.41215 0.48386 0.0
N1021 N 0.52172 0.39543 0.52355 0.0
C1022 C 0.50962 0.39345 0.49886 0.0
C1023 C 0.52813 0.40246 0.47727 0.0
C1024 C 0.69231 0.62929 0.76655 0.0
C1025 C 0.69559 0.64608 0.7894 0.0
C1026 C 0.7171 0.6172 0.75395 0.0
C1027 C 0.74613 0.62166 0.76358 0.0
H1028 H 0.6705 0.62622 0.75769 0.0
H1029 H 0.71362 0.60563 0.73576 0.0
S1030 S 0.76683 0.66034 0.82469 0.0
N1031 N 0.73019 0.6638 0.82264 0.0
N1032 N 0.77667 0.64128 0.79886 0.0
C1033 C 0.74962 0.63683 0.7873 0.0
C1034 C 0.7244 0.64896 0.80025 0.0
C1035 C 0.8895 0.98876 0.4555 0.0
C1036 C 0.86675 0.98872 0.47485 0.0
C1037 C 0.89755 0.01334 0.44218 0.0
C1038 C 0.88323 0.03873 0.44785 0.0
H1039 H 0.90246 0.97013 0.45178 0.0
H1040 H 0.91638 0.01274 0.42867 0.0
S1041 S 0.81827 0.04858 0.49269 0.0
N1042 N 0.82702 0.0154 0.49586 0.0
N1043 N 0.84233 0.06143 0.47109 0.0
C1044 C 0.8588 0.03842 0.46542 0.0
C1045 C 0.85051 0.01345 0.47883 0.0
C1046 C 0.24954 0.8582 0.78091 0.0
C1047 C 0.25307 0.8776 0.76014 0.0
C1048 C 0.27422 0.84686 0.79417 0.0
C1049 C 0.30352 0.8542 0.78702 0.0
H1050 H 0.22748 0.85104 0.78653 0.0
H1051 H 0.27025 0.83126 0.80928 0.0
S1052 S 0.32493 0.90648 0.73606 0.0
N1053 N 0.28807 0.9055 0.73466 0.0
N1054 N 0.33461 0.88413 0.75943 0.0
C1055 C 0.30736 0.87476 0.76729 0.0
C1056 C 0.28212 0.8865 0.75393 0.0
C1057 C 0.14181 0.48573 0.48332 0.0
C1058 C 0.12963 0.51166 0.47609 0.0
C1059 C 0.13324 0.46121 0.47046 0.0
C1060 C 0.11228 0.46148 0.44963 0.0
H1061 H 0.15702 0.48404 0.49999 0.0
H1062 H 0.14232 0.44173 0.47767 0.0
S1063 S 0.07675 0.52429 0.42051 0.0
N1064 N 0.09777 0.53644 0.44484 0.0
N1065 N 0.08182 0.49028 0.42048 0.0
C1066 C 0.10164 0.48746 0.44077 0.0
C1067 C 0.11027 0.51255 0.45403 0.0
C1068 C 0.74332 0.36373 0.72033 0.0
C1069 C 0.73921 0.38163 0.7422 0.0
C1070 C 0.71908 0.35106 0.7076 0.0
C1071 C 0.68966 0.35553 0.71636 0.0
H1072 H 0.76561 0.3588 0.71335 0.0
H1073 H 0.72365 0.33676 0.69148 0.0
S1074 S 0.66646 0.40284 0.77106 0.0
N1075 N 0.70329 0.40493 0.77073 0.0
N1076 N 0.65754 0.38113 0.74693 0.0
C1077 C 0.68506 0.37455 0.73735 0.0
C1078 C 0.70985 0.38763 0.7502 0.0
C1079 C 0.63935 0.01294 0.51826 0.0
C1080 C 0.62625 0.98736 0.52525 0.0
C1081 C 0.63191 0.03754 0.53155 0.0
C1082 C 0.61116 0.0377 0.55255 0.0
H1083 H 0.65447 0.01434 0.50152 0.0
H1084 H 0.6417 0.05678 0.52453 0.0
S1085 S 0.57356 0.97571 0.58112 0.0
N1086 N 0.59382 0.96322 0.55643 0.0
N1087 N 0.57992 0.00952 0.58156 0.0
C1088 C 0.59958 0.01198 0.56112 0.0
C1089 C 0.6071 0.98681 0.54744 0.0
C1090 C 0.27666 0.15265 0.70578 0.0
C1091 C 0.30578 0.1463 0.71429 0.0
C1092 C 0.25171 0.14078 0.71815 0.0
C1093 C 0.25482 0.1218 0.73932 0.0
H1094 H 0.27296 0.16793 0.69031 0.0
H1095 H 0.22972 0.14725 0.71156 0.0
S1096 S 0.32629 0.09541 0.76683 0.0
N1097 N 0.33642 0.11769 0.74356 0.0
N1098 N 0.28939 0.09531 0.76665 0.0
C1099 C 0.2838 0.11383 0.74686 0.0
C1100 C 0.3093 0.12613 0.73442 0.0
C1101 C 0.40033 0.4879 0.55885 0.0
C1102 C 0.38544 0.46292 0.55277 0.0
C1103 C 0.39331 0.51275 0.54551 0.0
C1104 C 0.37106 0.51351 0.52571 0.0
H1105 H 0.41882 0.48792 0.57276 0.0
H1106 H 0.40665 0.53103 0.54964 0.0
S1107 S 0.32147 0.45497 0.50648 0.0
N1108 N 0.3446 0.4414 0.52851 0.0
N1109 N 0.33119 0.48794 0.5037 0.0
C1110 C 0.35427 0.48921 0.52123 0.0
C1111 C 0.36152 0.46396 0.53467 0.0
C1112 C 0.77568 0.6741 0.65275 0.0
C1113 C 0.80156 0.68128 0.6672 0.0
C1114 C 0.75744 0.69466 0.64122 0.0
C1115 C 0.76452 0.72299 0.64385 0.0
H1116 H 0.76831 0.65268 0.65188 0.0
H1117 H 0.73679 0.68842 0.6317 0.0
S1118 S 0.83314 0.7521 0.67467 0.0
N1119 N 0.83565 0.71829 0.67982 0.0
N1120 N 0.80164 0.75678 0.65817 0.0
C1121 C 0.79175 0.73014 0.65612 0.0
C1122 C 0.81022 0.70931 0.66778 0.0
C1123 C 0.80558 0.2981 0.83067 0.0
C1124 C 0.7988 0.32628 0.83492 0.0
C1125 C 0.78805 0.27704 0.84172 0.0
C1126 C 0.76298 0.28316 0.85761 0.0
H1127 H 0.82367 0.29215 0.81754 0.0
H1128 H 0.79365 0.25571 0.8369 0.0
S1129 S 0.73793 0.35353 0.87788 0.0
N1130 N 0.76704 0.35925 0.85846 0.0
N1131 N 0.73411 0.31942 0.87937 0.0
C1132 C 0.75728 0.31116 0.8638 0.0
C1133 C 0.7752 0.33277 0.85244 0.0
C1134 C 0.52167 0.94375 0.43113 0.0
C1135 C 0.55173 0.94191 0.42332 0.0
C1136 C 0.50243 0.96322 0.41928 0.0
C1137 C 0.51269 0.98125 0.39918 0.0
H1138 H 0.51353 0.93151 0.44768 0.0
H1139 H 0.47997 0.96524 0.42707 0.0
S1140 S 0.58795 0.98008 0.36807 0.0
N1141 N 0.58972 0.9565 0.39185 0.0
N1142 N 0.55365 0.99268 0.36922 0.0
C1143 C 0.54196 0.97759 0.38956 0.0
C1144 C 0.5615 0.95802 0.40176 0.0
C1145 C 0.21065 0.22778 0.84327 0.0
C1146 C 0.23615 0.22082 0.85828 0.0
C1147 C 0.19258 0.2073 0.83194 0.0
C1148 C 0.19923 0.17894 0.83503 0.0
H1149 H 0.20513 0.24933 0.83934 0.0
H1150 H 0.17414 0.2139 0.81948 0.0
S1151 S 0.26118 0.14954 0.87541 0.0
N1152 N 0.26537 0.18354 0.87803 0.0
N1153 N 0.23139 0.1448 0.85656 0.0
C1154 C 0.22329 0.17156 0.85173 0.0
C1155 C 0.24177 0.19257 0.86338 0.0
C1156 C 0.95579 0.01772 0.89271 0.0
C1157 C 0.98672 0.01823 0.89767 0.0
C1158 C 0.9365 0.03643 0.90518 0.0
C1159 C 0.94733 0.05666 0.92286 0.0
H1160 H 0.94604 0.00179 0.88021 0.0
H1161 H 0.91271 0.03431 0.90166 0.0
S1162 S 0.02681 0.06967 0.93957 0.0
N1163 N 0.02772 0.04274 0.91925 0.0
N1164 N 0.9912 0.0782 0.94254 0.0
C1165 C 0.97838 0.05899 0.92637 0.0
C1166 C 0.99815 0.03968 0.91381 0.0
C1167 C 0.71139 0.27256 0.15688 0.0
C1168 C 0.73674 0.27968 0.14177 0.0
C1169 C 0.69318 0.2929 0.16829 0.0
C1170 C 0.69951 0.32131 0.16517 0.0
H1171 H 0.70611 0.25097 0.16085 0.0
H1172 H 0.67487 0.28618 0.18083 0.0
S1173 S 0.76091 0.35114 0.12449 0.0
N1174 N 0.76544 0.31716 0.12187 0.0
N1175 N 0.73118 0.35567 0.14347 0.0
C1176 C 0.72339 0.32885 0.14835 0.0
C1177 C 0.74203 0.30797 0.13663 0.0
C1178 C 0.56409 0.03692 0.09326 0.0
C1179 C 0.55331 0.05743 0.07582 0.0
C1180 C 0.54474 0.01828 0.1057 0.0
C1181 C 0.51379 0.01917 0.10096 0.0
H1182 H 0.58788 0.03453 0.09663 0.0
H1183 H 0.55443 0.00214 0.118 0.0
S1184 S 0.47379 0.0715 0.05992 0.0
N1185 N 0.50947 0.07966 0.05669 0.0
N1186 N 0.47281 0.04433 0.07997 0.0
C1187 C 0.50241 0.04087 0.08507 0.0
C1188 C 0.52225 0.06011 0.07254 0.0
C1189 C 0.45175 0.48398 0.10837 0.0
C1190 C 0.48271 0.48285 0.10374 0.0
C1191 C 0.43229 0.46536 0.09603 0.0
C1192 C 0.44298 0.44463 0.07878 0.0
H1193 H 0.44213 0.50029 0.12051 0.0
H1194 H 0.40851 0.46794 0.09929 0.0
S1195 S 0.52248 0.42991 0.06329 0.0
N1196 N 0.52357 0.45724 0.08312 0.0
N1197 N 0.48675 0.42197 0.06 0.0
C1198 C 0.47404 0.44173 0.07563 0.0
C1199 C 0.49398 0.46094 0.08809 0.0
C1200 C 0.12981 0.2899 0.35988 0.0
C1201 C 0.13314 0.26522 0.37455 0.0
C1202 C 0.12204 0.31497 0.37225 0.0
C1203 C 0.11677 0.31643 0.39983 0.0
H1204 H 0.13237 0.28974 0.33848 0.0
H1205 H 0.11884 0.33308 0.35977 0.0
S1206 S 0.12502 0.25812 0.44763 0.0
N1207 N 0.13272 0.24412 0.41846 0.0
N1208 N 0.11766 0.2912 0.44172 0.0
C1209 C 0.1214 0.29215 0.41495 0.0
C1210 C 0.12972 0.2666 0.40233 0.0
C1211 C 0.54753 0.64883 0.87403 0.0
C1212 C 0.54886 0.65277 0.84633 0.0
C1213 C 0.52303 0.6358 0.88602 0.0
C1214 C 0.49892 0.62588 0.87084 0.0
H1215 H 0.56529 0.65638 0.88675 0.0
H1216 H 0.52284 0.63395 0.90747 0.0
S1217 S 0.49209 0.62945 0.79736 0.0
N1218 N 0.52437 0.64458 0.80388 0.0
N1219 N 0.47838 0.61993 0.82641 0.0
C1220 C 0.50031 0.62887 0.84302 0.0
C1221 C 0.5252 0.6424 0.83079 0.0
C1222 C 0.87061 0.23276 0.39915 0.0
C1223 C 0.86478 0.23452 0.37173 0.0
C1224 C 0.87862 0.20737 0.41107 0.0
C1225 C 0.88075 0.18269 0.39608 0.0
H1226 H 0.87051 0.25137 0.41128 0.0
H1227 H 0.88417 0.20733 0.43201 0.0
S1228 S 0.86365 0.17579 0.32401 0.0
N1229 N 0.85893 0.20914 0.33038 0.0
N1230 N 0.87339 0.16149 0.35254 0.0
C1231 C 0.87303 0.18398 0.3689 0.0
C1232 C 0.86524 0.20986 0.35679 0.0
C1233 C 0.49602 0.87044 0.84481 0.0
C1234 C 0.49741 0.87523 0.87236 0.0
C1235 C 0.47153 0.8568 0.83331 0.0
C1236 C 0.4473 0.84766 0.84886 0.0
H1237 H 0.51443 0.87643 0.83207 0.0
H1238 H 0.47175 0.85324 0.81206 0.0
S1239 S 0.43925 0.85672 0.92187 0.0
N1240 N 0.47186 0.87089 0.91479 0.0
N1241 N 0.42583 0.84545 0.89331 0.0
C1242 C 0.44802 0.85313 0.87638 0.0
C1243 C 0.47304 0.86685 0.88808 0.0
C1244 C 0.12831 0.73137 0.10373 0.0
C1245 C 0.13392 0.73256 0.13122 0.0
C1246 C 0.12007 0.7063 0.09135 0.0
C1247 C 0.11753 0.68138 0.10593 0.0
H1248 H 0.12869 0.7502 0.09193 0.0
H1249 H 0.11463 0.70671 0.07039 0.0
S1250 S 0.13395 0.67294 0.17795 0.0
N1251 N 0.13912 0.70635 0.17217 0.0
N1252 N 0.12433 0.65929 0.14913 0.0
C1253 C 0.12509 0.68208 0.13316 0.0
C1254 C 0.13307 0.70763 0.14573 0.0
C1255 C 0.97141 0.64376 0.16955 0.0
C1256 C 0.94735 0.65357 0.15414 0.0
C1257 C 0.99564 0.62987 0.15784 0.0
C1258 C 0.99691 0.62549 0.13022 0.0
H1259 H 0.97169 0.64697 0.19085 0.0
H1260 H 0.01395 0.62334 0.17047 0.0
S1261 S 0.93911 0.64581 0.08098 0.0
N1262 N 0.92592 0.65688 0.1097 0.0
N1263 N 0.97145 0.63095 0.08786 0.0
C1264 C 0.97272 0.63457 0.11463 0.0
C1265 C 0.94797 0.64855 0.12653 0.0
C1266 C 0.86853 0.7917 0.14249 0.0
C1267 C 0.86496 0.767 0.12791 0.0
C1268 C 0.87664 0.81663 0.13005 0.0
C1269 C 0.88203 0.81791 0.10248 0.0
H1270 H 0.86588 0.79165 0.16389 0.0
H1271 H 0.88 0.83475 0.14246 0.0
S1272 S 0.87328 0.75951 0.05489 0.0
N1273 N 0.86531 0.74572 0.08408 0.0
N1274 N 0.881 0.79252 0.06069 0.0
C1275 C 0.87717 0.79363 0.08744 0.0
C1276 C 0.8685 0.76823 0.10014 0.0
C1277 C 0.00113 0.86994 0.15779 0.0
C1278 C 0.00047 0.87478 0.13022 0.0
C1279 C 0.02514 0.85591 0.16976 0.0
C1280 C 0.04959 0.84639 0.15467 0.0
H1281 H 0.98253 0.87624 0.17018 0.0
H1282 H 0.02441 0.8524 0.19101 0.0
S1283 S 0.05942 0.85535 0.08176 0.0
N1284 N 0.02689 0.87002 0.08827 0.0
N1285 N 0.07198 0.84384 0.11056 0.0
C1286 C 0.04953 0.85183 0.12711 0.0
C1287 C 0.02502 0.86596 0.11495 0.0
C1288 C 0.40028 0.1128 0.28331 0.0
C1289 C 0.39229 0.09038 0.26683 0.0
C1290 C 0.41566 0.10833 0.30722 0.0
C1291 C 0.42429 0.08143 0.31499 0.0
H1292 H 0.39262 0.13364 0.27878 0.0
H1293 H 0.41971 0.12587 0.32024 0.0
S1294 S 0.4116 0.01624 0.2772 0.0
N1295 N 0.39602 0.04073 0.25884 0.0
N1296 N 0.42584 0.03236 0.30322 0.0
C1297 C 0.41846 0.05916 0.29762 0.0
C1298 C 0.40221 0.06363 0.27365 0.0
C1299 C 0.38386 0.34009 0.95571 0.0
C1300 C 0.38675 0.33129 0.98222 0.0
C1301 C 0.37092 0.32282 0.93646 0.0
C1302 C 0.35974 0.29638 0.94318 0.0
H1303 H 0.38997 0.36108 0.95012 0.0
H1304 H 0.36725 0.33133 0.9168 0.0
S1305 S 0.36644 0.26176 0.0087 0.0
N1306 N 0.38131 0.2928 0.01328 0.0
N1307 N 0.35616 0.26075 0.97721 0.0
C1308 C 0.36498 0.28637 0.96898 0.0
C1309 C 0.37871 0.30374 0.98849 0.0
C1310 C 0.59654 0.43505 0.27245 0.0
C1311 C 0.607 0.40838 0.26584 0.0
C1312 C 0.58064 0.43967 0.29601 0.0
C1313 C 0.57546 0.41789 0.31412 0.0
H1314 H 0.60197 0.4527 0.25998 0.0
H1315 H 0.57435 0.4608 0.30096 0.0
S1316 S 0.59569 0.34382 0.3049 0.0
N1317 N 0.60862 0.35945 0.27804 0.0
N1318 N 0.57963 0.36839 0.32283 0.0
C1319 C 0.58424 0.39088 0.30701 0.0
C1320 C 0.59976 0.38604 0.28269 0.0
C1321 C 0.62125 0.19632 0.98583 0.0
C1322 C 0.61123 0.16952 0.97903 0.0
C1323 C 0.63529 0.21341 0.96701 0.0
C1324 C 0.63922 0.20453 0.94061 0.0
H1325 H 0.62057 0.20326 0.0063 0.0
H1326 H 0.64488 0.23288 0.97364 0.0
S1327 S 0.61133 0.13834 0.91174 0.0
N1328 N 0.60234 0.13647 0.94349 0.0
N1329 N 0.6278 0.16878 0.90784 0.0
C1330 C 0.62626 0.17904 0.93297 0.0
C1331 C 0.61256 0.16143 0.95228 0.0
C1332 C 0.40113 0.8983 0.22435 0.0
C1333 C 0.38574 0.92112 0.23542 0.0
C1334 C 0.41736 0.90102 0.20063 0.0
C1335 C 0.41947 0.9268 0.18775 0.0
H1336 H 0.3991 0.87781 0.23309 0.0
H1337 H 0.42757 0.88273 0.19191 0.0
S1338 S 0.38462 0.99315 0.20884 0.0
N1339 N 0.37462 0.97056 0.23188 0.0
N1340 N 0.40579 0.97566 0.18782 0.0
C1341 C 0.4056 0.95004 0.19927 0.0
C1342 C 0.3886 0.94722 0.22302 0.0
C1343 C 0.12593 0.32089 0.06716 0.0
C1344 C 0.1373 0.29455 0.06023 0.0
C1345 C 0.1127 0.33822 0.04808 0.0
C1346 C 0.10967 0.32959 0.02154 0.0
H1347 H 0.12963 0.32927 0.08687 0.0
H1348 H 0.1064 0.35912 0.05385 0.0
S1349 S 0.13071 0.26049 0.99446 0.0
N1350 N 0.14116 0.25928 0.0259 0.0
N1351 N 0.11543 0.29143 0.99018 0.0
C1352 C 0.11803 0.30218 0.01504 0.0
C1353 C 0.13207 0.28475 0.03437 0.0
C1354 C 0.59863 0.60871 0.22263 0.0
C1355 C 0.60805 0.58598 0.23814 0.0
C1356 C 0.58306 0.60459 0.19877 0.0
C1357 C 0.57565 0.57771 0.19012 0.0
H1358 H 0.60524 0.62966 0.22787 0.0
H1359 H 0.57782 0.62246 0.1865 0.0
S1360 S 0.5926 0.51155 0.22501 0.0
N1361 N 0.60718 0.53589 0.24417 0.0
N1362 N 0.57701 0.52815 0.19984 0.0
C1363 C 0.58303 0.55497 0.20646 0.0
C1364 C 0.59948 0.55912 0.23038 0.0
C1365 C 0.86623 0.21227 0.03267 0.0
C1366 C 0.86224 0.20324 0.05902 0.0
C1367 C 0.88044 0.19534 0.01382 0.0
C1368 C 0.89058 0.16854 0.02053 0.0
H1369 H 0.85652 0.23174 0.0261 0.0
H1370 H 0.88111 0.20238 0.99338 0.0
S1371 S 0.8905 0.13704 0.0877 0.0
N1372 N 0.87382 0.16739 0.09168 0.0
N1373 N 0.8996 0.13535 0.05596 0.0
C1374 C 0.88925 0.16032 0.04725 0.0
C1375 C 0.87537 0.17778 0.0666 0.0
C1376 C 0.30356 0.37364 0.09753 0.0
C1377 C 0.30257 0.38009 0.07028 0.0
C1378 C 0.2798 0.3598 0.10991 0.0
C1379 C 0.25473 0.35136 0.09522 0.0
H1380 H 0.32332 0.37841 0.10911 0.0
H1381 H 0.28211 0.35378 0.13056 0.0
S1382 S 0.24031 0.36505 0.02393 0.0
N1383 N 0.27342 0.37906 0.02954 0.0
N1384 N 0.22925 0.35196 0.05263 0.0
C1385 C 0.25278 0.35894 0.06834 0.0
C1386 C 0.27661 0.37364 0.05589 0.0
C1387 C 0.26155 0.64807 0.43647 0.0
C1388 C 0.26226 0.65531 0.4094 0.0
C1389 C 0.28492 0.63289 0.44806 0.0
C1390 C 0.31013 0.62534 0.43308 0.0
H1391 H 0.24341 0.6552 0.449 0.0
H1392 H 0.28414 0.62863 0.46918 0.0
S1393 S 0.32173 0.63752 0.36111 0.0
N1394 N 0.289 0.65196 0.36754 0.0
N1395 N 0.33354 0.62431 0.38954 0.0
C1396 C 0.31045 0.63132 0.40576 0.0
C1397 C 0.28629 0.64608 0.39383 0.0
C1398 C 0.86919 0.48249 0.87557 0.0
C1399 C 0.86084 0.51058 0.87807 0.0
C1400 C 0.85285 0.46407 0.85955 0.0
C1401 C 0.82783 0.47315 0.84491 0.0
H1402 H 0.8894 0.47496 0.88502 0.0
H1403 H 0.86116 0.44305 0.85724 0.0
S1404 S 0.79457 0.54382 0.84691 0.0
N1405 N 0.82399 0.54586 0.86661 0.0
N1406 N 0.79373 0.51142 0.8361 0.0
C1407 C 0.81806 0.50069 0.84862 0.0
C1408 C 0.83442 0.51934 0.86532 0.0
C1409 C 0.6908 0.87107 0.40529 0.0
C1410 C 0.69205 0.87808 0.4324 0.0
C1411 C 0.71474 0.85751 0.39286 0.0
C1412 C 0.74027 0.84992 0.40737 0.0
H1413 H 0.67077 0.87525 0.39386 0.0
H1414 H 0.7123 0.85108 0.37234 0.0
S1415 S 0.7554 0.86524 0.47823 0.0
N1416 N 0.72184 0.87843 0.47279 0.0
N1417 N 0.76636 0.85183 0.44963 0.0
C1418 C 0.7424 0.858 0.4341 0.0
C1419 C 0.71838 0.87242 0.44659 0.0
C1420 C 0.62965 0.51976 0.3772 0.0
C1421 C 0.63819 0.49165 0.37884 0.0
C1422 C 0.64544 0.53864 0.36123 0.0
C1423 C 0.66998 0.52999 0.34578 0.0
H1424 H 0.60965 0.52693 0.38723 0.0
H1425 H 0.63692 0.55965 0.35953 0.0
S1426 S 0.70366 0.45947 0.3455 0.0
N1427 N 0.67485 0.45682 0.36585 0.0
N1428 N 0.70402 0.49212 0.33537 0.0
C1429 C 0.68004 0.50244 0.3487 0.0
C1430 C 0.6643 0.48332 0.36538 0.0
C1431 C 0.22167 0.62575 0.55712 0.0
C1432 C 0.19573 0.61905 0.57146 0.0
C1433 C 0.24513 0.64028 0.56925 0.0
C1434 C 0.24375 0.6477 0.59625 0.0
H1435 H 0.22294 0.62151 0.53601 0.0
H1436 H 0.26382 0.64697 0.55714 0.0
S1437 S 0.18229 0.63172 0.6431 0.0
N1438 N 0.17099 0.61874 0.61443 0.0
N1439 N 0.21564 0.64519 0.63745 0.0
C1440 C 0.21902 0.6391 0.61126 0.0
C1441 C 0.1948 0.625 0.59877 0.0
C1442 C 0.82311 0.5076 0.6533 0.0
C1443 C 0.83312 0.53518 0.65615 0.0
C1444 C 0.83764 0.48888 0.63621 0.0
C1445 C 0.86312 0.49688 0.62172 0.0
H1446 H 0.80478 0.49999 0.66533 0.0
H1447 H 0.83019 0.46745 0.63596 0.0
S1448 S 0.89647 0.56739 0.61973 0.0
N1449 N 0.86839 0.57023 0.64085 0.0
N1450 N 0.89607 0.53483 0.60938 0.0
C1451 C 0.87219 0.52481 0.62304 0.0
C1452 C 0.85709 0.54402 0.64007 0.0
C1453 C 0.14146 0.95961 0.64066 0.0
C1454 C 0.16618 0.96796 0.65603 0.0
C1455 C 0.12597 0.97866 0.62458 0.0
C1456 C 0.13503 0.00661 0.62273 0.0
H1457 H 0.13263 0.93874 0.6425 0.0
H1458 H 0.10585 0.97176 0.61459 0.0
S1459 S 0.201 0.03793 0.65596 0.0
N1460 N 0.20081 0.00534 0.66628 0.0
N1461 N 0.17225 0.04092 0.63557 0.0
C1462 C 0.16125 0.0146 0.63619 0.0
C1463 C 0.17666 0.99534 0.65299 0.0
C1464 C 0.62946 0.78972 0.85996 0.0
C1465 C 0.63307 0.76529 0.87498 0.0
C1466 C 0.62174 0.81497 0.87199 0.0
C1467 C 0.61684 0.81689 0.8996 0.0
H1468 H 0.63175 0.78921 0.83853 0.0
H1469 H 0.61829 0.83284 0.85926 0.0
S1470 S 0.62617 0.75951 0.94826 0.0
N1471 N 0.63345 0.74501 0.91924 0.0
N1472 N 0.61854 0.79244 0.94189 0.0
C1473 C 0.62183 0.79292 0.91506 0.0
C1474 C 0.63007 0.76717 0.90277 0.0
C1475 C 0.00114 0.12912 0.34392 0.0
C1476 C -0.00019 0.12432 0.37147 0.0
C1477 C 0.02551 0.14294 0.3324 0.0
C1478 C 0.04968 0.15225 0.34795 0.0
H1479 H 0.98274 0.12303 0.3312 0.0
H1480 H 0.02525 0.14651 0.31116 0.0
S1481 S 0.05787 0.14313 0.42097 0.0
N1482 N 0.02536 0.12876 0.41388 0.0
N1483 N 0.07117 0.15454 0.39241 0.0
C1484 C 0.04903 0.14675 0.37547 0.0
C1485 C 0.02412 0.13284 0.38717 0.0
C1486 C 0.37572 0.68574 0.87308 0.0
C1487 C 0.38063 0.68435 0.90071 0.0
C1488 C 0.3677 0.7107 0.86063 0.0
C1489 C 0.36376 0.73534 0.87525 0.0
H1490 H 0.37939 0.66769 0.86064 0.0
H1491 H 0.36544 0.71084 0.83919 0.0
S1492 S 0.37068 0.74249 0.94842 0.0
N1493 N 0.37868 0.70953 0.94259 0.0
N1494 N 0.36318 0.7564 0.91917 0.0
C1495 C 0.36679 0.73398 0.90306 0.0
C1496 C 0.37536 0.70854 0.91578 0.0
C1497 C 0.97568 0.36514 0.38453 0.0
C1498 C -4e-05 0.37463 0.3693 0.0
C1499 C 0.95131 0.35179 0.37267 0.0
C1500 C 0.95028 0.34705 0.34507 0.0
H1501 H 0.97565 0.36763 0.40592 0.0
H1502 H 0.9334 0.34464 0.38542 0.0
S1503 S 0.00765 0.36884 0.29602 0.0
N1504 N 0.02104 0.37921 0.32492 0.0
N1505 N 0.97527 0.35394 0.30265 0.0
C1506 C 0.97413 0.35693 0.32948 0.0
C1507 C -0.0011 0.37081 0.34157 0.0
C1508 C 0.62965 0.23202 0.60247 0.0
C1509 C 0.63538 0.23347 0.62992 0.0
C1510 C 0.62171 0.20675 0.59032 0.0
C1511 C 0.6196 0.18192 0.60509 0.0
H1512 H 0.6296 0.25078 0.59056 0.0
H1513 H 0.61609 0.20695 0.56939 0.0
S1514 S 0.6368 0.17422 0.67706 0.0
N1515 N 0.64139 0.20765 0.67102 0.0
N1516 N 0.62713 0.16022 0.64839 0.0
C1517 C 0.62742 0.18289 0.63225 0.0
C1518 C 0.63511 0.20864 0.6446 0.0
C1519 C 0.45257 0.14961 0.63007 0.0
C1520 C 0.45151 0.15427 0.65767 0.0
C1521 C 0.47684 0.13605 0.61824 0.0
C1522 C 0.50098 0.12627 0.63351 0.0
H1523 H 0.43474 0.15695 0.61729 0.0
H1524 H 0.47683 0.13359 0.59684 0.0
S1525 S 0.50864 0.13192 0.70678 0.0
N1526 N 0.47639 0.1471 0.70013 0.0
N1527 N 0.52197 0.12145 0.67789 0.0
C1528 C 0.49991 0.13007 0.66123 0.0
C1529 C 0.47525 0.14416 0.6733 0.0
C1530 C 0.37572 0.31596 0.63027 0.0
C1531 C 0.38065 0.31756 0.60265 0.0
C1532 C 0.36855 0.29075 0.64265 0.0
C1533 C 0.36553 0.26605 0.62796 0.0
H1534 H 0.37877 0.33407 0.64276 0.0
H1535 H 0.36623 0.2905 0.66407 0.0
S1536 S 0.37273 0.25933 0.55476 0.0
N1537 N 0.3796 0.29248 0.5607 0.0
N1538 N 0.3657 0.24512 0.58397 0.0
C1539 C 0.36854 0.26757 0.60015 0.0
C1540 C 0.37624 0.29328 0.58751 0.0
C1541 C 0.49943 0.36882 0.65728 0.0
C1542 C 0.49846 0.37392 0.62975 0.0
C1543 C 0.52354 0.35464 0.66889 0.0
C1544 C 0.54778 0.34525 0.65349 0.0
H1545 H 0.481 0.37507 0.6699 0.0
H1546 H 0.52308 0.35098 0.69012 0.0
S1547 S 0.55671 0.35464 0.58057 0.0
N1548 N 0.52432 0.36937 0.5875 0.0
N1549 N 0.56961 0.3429 0.60917 0.0
C1550 C 0.54741 0.35086 0.62598 0.0
C1551 C 0.52278 0.36514 0.61417 0.0
C1552 C 0.91592 0.60779 0.80631 0.0
C1553 C 0.92446 0.58082 0.81391 0.0
C1554 C 0.90056 0.61246 0.78242 0.0
C1555 C 0.89251 0.59017 0.76579 0.0
H1556 H 0.92 0.62523 0.81943 0.0
H1557 H 0.89295 0.63335 0.77802 0.0
S1558 S 0.91164 0.51592 0.77572 0.0
N1559 N 0.92591 0.53183 0.80185 0.0
N1560 N 0.89612 0.54057 0.7575 0.0
C1561 C 0.90237 0.56336 0.77246 0.0
C1562 C 0.91861 0.55868 0.7964 0.0
C1563 C 0.88313 0.83936 0.45436 0.0
C1564 C 0.88626 0.83093 0.48096 0.0
C1565 C 0.87026 0.82175 0.43536 0.0
C1566 C 0.85937 0.79529 0.44243 0.0
H1567 H 0.88906 0.86032 0.4485 0.0
H1568 H 0.86643 0.82997 0.41562 0.0
S1569 S 0.86654 0.76165 0.50837 0.0
N1570 N 0.8812 0.79285 0.51251 0.0
N1571 N 0.85615 0.76013 0.47693 0.0
C1572 C 0.86475 0.7857 0.46835 0.0
C1573 C 0.87843 0.80343 0.4876 0.0
C1574 C 0.09605 0.93415 0.77097 0.0
C1575 C 0.10657 0.90751 0.76437 0.0
C1576 C 0.08037 0.93879 0.79464 0.0
C1577 C 0.07551 0.91708 0.81287 0.0
H1578 H 0.10125 0.95177 0.75838 0.0
H1579 H 0.07402 0.95992 0.79957 0.0
S1580 S 0.09609 0.84307 0.80379 0.0
N1581 N 0.10862 0.85864 0.77676 0.0
N1582 N 0.08008 0.86764 0.82177 0.0
C1583 C 0.08437 0.89008 0.80581 0.0
C1584 C 0.09964 0.88521 0.78138 0.0
C1585 C 0.11806 0.66344 0.45612 0.0
C1586 C 0.11438 0.6713 0.48281 0.0
C1587 C 0.13133 0.68144 0.43767 0.0
C1588 C 0.14209 0.70774 0.44541 0.0
H1589 H 0.11223 0.64262 0.44975 0.0
H1590 H 0.13554 0.67364 0.41783 0.0
S1591 S 0.13346 0.74003 0.51182 0.0
N1592 N 0.11875 0.70874 0.51513 0.0
N1593 N 0.14453 0.74219 0.48059 0.0
C1594 C 0.13615 0.7168 0.4714 0.0
C1595 C 0.12208 0.69867 0.49009 0.0
C1596 C 0.8986 0.3977 0.72219 0.0
C1597 C 0.88331 0.42034 0.73371 0.0
C1598 C 0.91471 0.40082 0.69846 0.0
C1599 C 0.9168 0.42683 0.68599 0.0
H1600 H 0.89665 0.37707 0.73065 0.0
H1601 H 0.92492 0.3827 0.68945 0.0
S1602 S 0.88208 0.49281 0.70824 0.0
N1603 N 0.87218 0.46984 0.73097 0.0
N1604 N 0.90312 0.47567 0.68686 0.0
C1605 C 0.90295 0.44986 0.69789 0.0
C1606 C 0.88607 0.44664 0.72168 0.0
C1607 C 0.61905 0.80483 0.51613 0.0
C1608 C 0.60899 0.83173 0.52258 0.0
C1609 C 0.6332 0.78804 0.53516 0.0
C1610 C 0.63721 0.79732 0.56142 0.0
H1611 H 0.61835 0.79759 0.49576 0.0
H1612 H 0.64286 0.76849 0.52878 0.0
S1613 S 0.60926 0.86392 0.58944 0.0
N1614 N 0.60013 0.86531 0.55769 0.0
N1615 N 0.62582 0.83355 0.59371 0.0
C1616 C 0.62419 0.8229 0.56874 0.0
C1617 C 0.61037 0.84021 0.54922 0.0
C1618 C 0.08046 0.06059 0.70451 0.0
C1619 C 0.07496 0.08239 0.6865 0.0
C1620 C 0.09678 0.06516 0.72785 0.0
C1621 C 0.10734 0.09181 0.73435 0.0
H1622 H 0.07404 0.03949 0.69963 0.0
H1623 H 0.10237 0.0475 0.74027 0.0
S1624 S 0.09553 0.15639 0.69539 0.0
N1625 N 0.07913 0.13185 0.67768 0.0
N1626 N 0.10888 0.14072 0.72208 0.0
C1627 C 0.09989 0.11416 0.71756 0.0
C1628 C 0.08395 0.10936 0.69345 0.0
C1629 C 0.38324 0.69581 0.51699 0.0
C1630 C 0.3931 0.66889 0.52359 0.0
C1631 C 0.36869 0.71258 0.53577 0.0
C1632 C 0.36409 0.70325 0.56194 0.0
H1633 H 0.38434 0.70307 0.49664 0.0
H1634 H 0.35915 0.73213 0.52924 0.0
S1635 S 0.39144 0.63663 0.59042 0.0
N1636 N 0.40123 0.63527 0.55882 0.0
N1637 N 0.37481 0.66701 0.59443 0.0
C1638 C 0.37699 0.67768 0.5695 0.0
C1639 C 0.39121 0.66039 0.55021 0.0
C1640 C 0.77785 0.87472 0.55707 0.0
C1641 C 0.80408 0.88109 0.57112 0.0
C1642 C 0.75446 0.86027 0.56938 0.0
C1643 C 0.7562 0.85269 0.59633 0.0
H1644 H 0.77627 0.8792 0.53603 0.0
H1645 H 0.73553 0.85379 0.55746 0.0
S1646 S 0.81852 0.86783 0.64253 0.0
N1647 N 0.8295 0.88091 0.6138 0.0
N1648 N 0.78495 0.85467 0.6372 0.0
C1649 C 0.78124 0.86096 0.61108 0.0
C1650 C 0.80539 0.87494 0.59838 0.0
C1651 C 0.80856 0.12939 0.90394 0.0
C1652 C 0.80733 0.12237 0.93105 0.0
C1653 C 0.78485 0.14342 0.8916 0.0
C1654 C 0.75958 0.15148 0.90622 0.0
H1655 H 0.82845 0.12488 0.89242 0.0
H1656 H 0.7873 0.14978 0.87106 0.0
S1657 S 0.74448 0.13626 0.97712 0.0
N1658 N 0.77775 0.1225 0.97154 0.0
N1659 N 0.73366 0.14992 0.94857 0.0
C1660 C 0.75742 0.14337 0.93295 0.0
C1661 C 0.78121 0.12849 0.94534 0.0
C1662 C 0.35227 0.96543 0.36022 0.0
C1663 C 0.32779 0.97471 0.34499 0.0
C1664 C 0.36846 0.98376 0.37645 0.0
C1665 C 0.36046 0.01197 0.37858 0.0
H1666 H 0.36032 0.94429 0.35826 0.0
H1667 H 0.3883 0.97606 0.38637 0.0
S1668 S 0.29561 0.04584 0.34572 0.0
N1669 N 0.29455 0.01336 0.33514 0.0
N1670 N 0.32451 0.04764 0.36606 0.0
C1671 C 0.33453 0.02097 0.36519 0.0
C1672 C 0.31834 0.0024 0.34828 0.0
C1673 C 0.24089 0.35829 0.93363 0.0
C1674 C 0.23962 0.35096 0.9066 0.0
C1675 C 0.21722 0.37254 0.94576 0.0
C1676 C 0.19118 0.37897 0.93143 0.0
H1677 H 0.25971 0.35185 0.94572 0.0
H1678 H 0.21848 0.37691 0.96683 0.0
S1679 S 0.17791 0.36633 0.85977 0.0
N1680 N 0.21146 0.35322 0.8654 0.0
N1681 N 0.1664 0.37907 0.88848 0.0
C1682 C 0.19029 0.37301 0.90413 0.0
C1683 C 0.21472 0.35924 0.89161 0.0
C1684 C 0.12852 0.02035 0.87458 0.0
C1685 C 0.13758 0.99237 0.87619 0.0
C1686 C 0.14367 0.0394 0.85831 0.0
C1687 C 0.16804 0.03104 0.84251 0.0
H1688 H 0.10861 0.02726 0.88492 0.0
H1689 H 0.13482 0.06031 0.85668 0.0
S1690 S 0.20283 0.961 0.84184 0.0
N1691 N 0.17451 0.95801 0.86267 0.0
N1692 N 0.20245 0.99363 0.83161 0.0
C1693 C 0.17858 0.00364 0.84531 0.0
C1694 C 0.16351 0.98436 0.86229 0.0
C1695 C 0.71932 0.12758 0.0551 0.0
C1696 C 0.69345 0.12098 0.06955 0.0
C1697 C 0.74296 0.14194 0.06714 0.0
C1698 C 0.74182 0.14923 0.09418 0.0
H1699 H 0.72043 0.12333 0.034 0.0
H1700 H 0.76161 0.14855 0.05495 0.0
S1701 S 0.68061 0.13335 0.14132 0.0
N1702 N 0.669 0.1206 0.11265 0.0
N1703 N 0.714 0.14667 0.13554 0.0
C1704 C 0.71713 0.14072 0.10929 0.0
C1705 C 0.69273 0.12683 0.09688 0.0
C1706 C 0.33853 0.98724 0.13805 0.0
C1707 C 0.36384 0.99519 0.1233 0.0
C1708 C 0.32395 0.00614 0.15492 0.0
C1709 C 0.33374 0.03384 0.15728 0.0
H1710 H 0.33127 0.96576 0.13818 0.0
H1711 H 0.30576 0.9986 0.16715 0.0
S1712 S 0.39651 0.06593 0.11996 0.0
N1713 N 0.39633 0.03318 0.11014 0.0
N1714 N 0.36857 0.06891 0.14121 0.0
C1715 C 0.35751 0.0426 0.14092 0.0
C1716 C 0.37266 0.02321 0.12412 0.0
C1717 C 0.67421 0.49493 0.15438 0.0
C1718 C 0.66455 0.4672 0.15679 0.0
C1719 C 0.65923 0.51387 0.13782 0.0
C1720 C 0.63362 0.50593 0.12347 0.0
H1721 H 0.69261 0.50247 0.16638 0.0
H1722 H 0.66641 0.53537 0.13793 0.0
S1723 S 0.60129 0.43505 0.12018 0.0
N1724 N 0.62964 0.43206 0.141 0.0
N1725 N 0.6011 0.46787 0.11054 0.0
C1726 C 0.62498 0.47785 0.12423 0.0
C1727 C 0.64056 0.45843 0.1407 0.0
loop_
_geom_bond_atom_site_label_1
_geom_bond_atom_site_label_2
_geom_bond_distance
_geom_bond_site_symmetry_2
_ccdc_geom_bond_type
O0 Cd1 2.223 . S
O0 C8 1.315 . S
Cd1 O0 2.223 . S
Cd1 O4 2.297 . S
Cd1 O5 2.439 . S
Cd1 O11 2.240 . S
Cd2 O3 2.240 . S
Cd2 O10 2.223 . S
Cd2 O12 2.297 . S
Cd2 O13 2.439 . S
O3 Cd2 2.240 . S
O3 C8 1.279 . S
O4 Cd1 2.297 . S
O4 C6 1.247 . S
O5 Cd1 2.439 . S
O5 C6 1.208 . S
C6 O4 1.247 . S
C6 O5 1.208 . S
C7 O12 1.247 . S
C7 O13 1.208 . S
C8 O0 1.315 . S
C8 O3 1.279 . S
C9 O10 1.315 . S
C9 O11 1.279 . S
O10 Cd2 2.223 . S
O10 C9 1.315 . S
O11 Cd1 2.240 . S
O11 C9 1.279 . S
O12 Cd2 2.297 . S
O12 C7 1.247 . S
O13 Cd2 2.439 . S
O13 C7 1.208 . S
O14 Cd15 2.223 . S
O14 C22 1.315 . S
Cd15 O14 2.223 . S
Cd15 O18 2.297 . S
Cd15 O19 2.439 . S
Cd15 O25 2.240 . S
Cd16 O17 2.240 . S
Cd16 O24 2.223 . S
Cd16 O26 2.297 . S
Cd16 O27 2.439 . S
O17 Cd16 2.240 . S
O17 C22 1.279 . S
O18 Cd15 2.297 . S
O18 C20 1.247 . S
O19 Cd15 2.439 . S
O19 C20 1.208 . S
C20 O18 1.247 . S
C20 O19 1.208 . S
C21 O26 1.247 . S
C21 O27 1.208 . S
C22 O14 1.315 . S
C22 O17 1.279 . S
C23 O24 1.315 . S
C23 O25 1.279 . S
O24 Cd16 2.223 . S
O24 C23 1.315 . S
O25 Cd15 2.240 . S
O25 C23 1.279 . S
O26 Cd16 2.297 . S
O26 C21 1.247 . S
O27 Cd16 2.439 . S
O27 C21 1.208 . S
O28 Cd29 2.223 . S
O28 C36 1.315 . S
Cd29 O28 2.223 . S
Cd29 O32 2.297 . S
Cd29 O33 2.439 . S
Cd29 O39 2.240 . S
Cd30 O31 2.240 . S
Cd30 O38 2.223 . S
Cd30 O40 2.297 . S
Cd30 O41 2.439 . S
O31 Cd30 2.240 . S
O31 C36 1.279 . S
O32 Cd29 2.297 . S
O32 C34 1.247 . S
O33 Cd29 2.439 . S
O33 C34 1.208 . S
C34 O32 1.247 . S
C34 O33 1.208 . S
C35 O40 1.247 . S
C35 O41 1.208 . S
C36 O28 1.315 . S
C36 O31 1.279 . S
C37 O38 1.315 . S
C37 O39 1.279 . S
O38 Cd30 2.223 . S
O38 C37 1.315 . S
O39 Cd29 2.240 . S
O39 C37 1.279 . S
O40 Cd30 2.297 . S
O40 C35 1.247 . S
O41 Cd30 2.439 . S
O41 C35 1.208 . S
O42 Cd43 2.223 . S
O42 C50 1.315 . S
Cd43 O42 2.223 . S
Cd43 O46 2.297 . S
Cd43 O47 2.439 . S
Cd43 O53 2.240 . S
Cd44 O45 2.240 . S
Cd44 O52 2.223 . S
Cd44 O54 2.297 . S
Cd44 O55 2.439 . S
O45 Cd44 2.240 . S
O45 C50 1.279 . S
O46 Cd43 2.297 . S
O46 C48 1.247 . S
O47 Cd43 2.439 . S
O47 C48 1.208 . S
C48 O46 1.247 . S
C48 O47 1.208 . S
C49 O54 1.247 . S
C49 O55 1.208 . S
C50 O42 1.315 . S
C50 O45 1.279 . S
C51 O52 1.315 . S
C51 O53 1.279 . S
O52 Cd44 2.223 . S
O52 C51 1.315 . S
O53 Cd43 2.240 . S
O53 C51 1.279 . S
O54 Cd44 2.297 . S
O54 C49 1.247 . S
O55 Cd44 2.439 . S
O55 C49 1.208 . S
O56 Cd57 2.223 . S
O56 C64 1.315 . S
Cd57 O56 2.223 . S
Cd57 O60 2.297 . S
Cd57 O61 2.439 . S
Cd57 O67 2.240 . S
Cd58 O59 2.240 . S
Cd58 O66 2.223 . S
Cd58 O68 2.297 . S
Cd58 O69 2.439 . S
O59 Cd58 2.240 . S
O59 C64 1.279 . S
O60 Cd57 2.297 . S
O60 C62 1.247 . S
O61 Cd57 2.439 . S
O61 C62 1.208 . S
C62 O60 1.247 . S
C62 O61 1.208 . S
C63 O68 1.247 . S
C63 O69 1.208 . S
C64 O56 1.315 . S
C64 O59 1.279 . S
C65 O66 1.315 . S
C65 O67 1.279 . S
O66 Cd58 2.223 . S
O66 C65 1.315 . S
O67 Cd57 2.240 . S
O67 C65 1.279 . S
O68 Cd58 2.297 . S
O68 C63 1.247 . S
O69 Cd58 2.439 . S
O69 C63 1.208 . S
O70 Cd71 2.223 1_455 S
O70 C78 1.315 . S
Cd71 O70 2.223 1_655 S
Cd71 O74 2.297 . S
Cd71 O75 2.439 . S
Cd71 O81 2.240 1_655 S
Cd72 O73 2.240 . S
Cd72 O80 2.223 . S
Cd72 O82 2.297 1_454 S
Cd72 O83 2.439 1_455 S
O73 Cd72 2.240 . S
O73 C78 1.279 . S
O74 Cd71 2.297 . S
O74 C76 1.247 . S
O75 Cd71 2.439 . S
O75 C76 1.208 . S
C76 O74 1.247 . S
C76 O75 1.208 . S
C77 O82 1.247 1_554 S
C77 O83 1.208 . S
C78 O70 1.315 . S
C78 O73 1.279 . S
C79 O80 1.315 . S
C79 O81 1.279 . S
O80 Cd72 2.223 . S
O80 C79 1.315 . S
O81 Cd71 2.240 1_455 S
O81 C79 1.279 . S
O82 Cd72 2.297 1_656 S
O82 C77 1.247 1_556 S
O83 Cd72 2.439 1_655 S
O83 C77 1.208 . S
O84 Cd85 2.223 . S
O84 C92 1.315 . S
Cd85 O84 2.223 . S
Cd85 O88 2.297 . S
Cd85 O89 2.439 . S
Cd85 O95 2.240 . S
Cd86 O87 2.240 . S
Cd86 O94 2.223 . S
Cd86 O96 2.297 . S
Cd86 O97 2.439 . S
O87 Cd86 2.240 . S
O87 C92 1.279 . S
O88 Cd85 2.297 . S
O88 C90 1.247 . S
O89 Cd85 2.439 . S
O89 C90 1.208 . S
C90 O88 1.247 . S
C90 O89 1.208 . S
C91 O96 1.247 . S
C91 O97 1.208 . S
C92 O84 1.315 . S
C92 O87 1.279 . S
C93 O94 1.315 . S
C93 O95 1.279 . S
O94 Cd86 2.223 . S
O94 C93 1.315 . S
O95 Cd85 2.240 . S
O95 C93 1.279 . S
O96 Cd86 2.297 . S
O96 C91 1.247 . S
O97 Cd86 2.439 . S
O97 C91 1.208 . S
O98 Cd99 2.223 1_655 S
O98 C106 1.315 . S
Cd99 O98 2.223 1_455 S
Cd99 O102 2.297 . S
Cd99 O103 2.439 . S
Cd99 O109 2.240 1_455 S
Cd100 O101 2.240 . S
Cd100 O108 2.223 . S
Cd100 O110 2.297 1_654 S
Cd100 O111 2.439 1_655 S
O101 Cd100 2.240 . S
O101 C106 1.279 . S
O102 Cd99 2.297 . S
O102 C104 1.247 . S
O103 Cd99 2.439 . S
O103 C104 1.208 . S
C104 O102 1.247 . S
C104 O103 1.208 . S
C105 O110 1.247 1_554 S
C105 O111 1.208 . S
C106 O98 1.315 . S
C106 O101 1.279 . S
C107 O108 1.315 . S
C107 O109 1.279 . S
O108 Cd100 2.223 . S
O108 C107 1.315 . S
O109 Cd99 2.240 1_655 S
O109 C107 1.279 . S
O110 Cd100 2.297 1_456 S
O110 C105 1.247 1_556 S
O111 Cd100 2.439 1_455 S
O111 C105 1.208 . S
O112 Cd113 2.223 . S
O112 C120 1.315 . S
Cd113 O112 2.223 . S
Cd113 O116 2.297 . S
Cd113 O117 2.439 . S
Cd113 O123 2.240 . S
Cd114 O115 2.240 . S
Cd114 O122 2.223 . S
Cd114 O124 2.297 . S
Cd114 O125 2.439 . S
O115 Cd114 2.240 . S
O115 C120 1.279 . S
O116 Cd113 2.297 . S
O116 C118 1.247 . S
O117 Cd113 2.439 . S
O117 C118 1.208 . S
C118 O116 1.247 . S
C118 O117 1.208 . S
C119 O124 1.247 . S
C119 O125 1.208 . S
C120 O112 1.315 . S
C120 O115 1.279 . S
C121 O122 1.315 . S
C121 O123 1.279 . S
O122 Cd114 2.223 . S
O122 C121 1.315 . S
O123 Cd113 2.240 . S
O123 C121 1.279 . S
O124 Cd114 2.297 . S
O124 C119 1.247 . S
O125 Cd114 2.439 . S
O125 C119 1.208 . S
O126 Cd127 2.223 1_554 S
O126 C134 1.315 . S
Cd127 O126 2.223 1_556 S
Cd127 O130 2.297 . S
Cd127 O131 2.439 . S
Cd127 O137 2.240 1_556 S
Cd128 O129 2.240 . S
Cd128 O136 2.223 . S
Cd128 O138 2.306 . S
Cd128 O139 2.439 1_554 S
O129 Cd128 2.240 . S
O129 C134 1.279 . S
O130 Cd127 2.297 . S
O130 C132 1.247 . S
O131 Cd127 2.439 . S
O131 C132 1.208 . S
C132 O130 1.247 . S
C132 O131 1.208 . S
C133 O138 1.225 1_556 S
C133 O139 1.208 . S
C134 O126 1.315 . S
C134 O129 1.279 . S
C135 O136 1.315 . S
C135 O137 1.279 . S
O136 Cd128 2.223 . S
O136 C135 1.315 . S
O137 Cd127 2.240 1_554 S
O137 C135 1.279 . S
O138 Cd128 2.306 . S
O138 C133 1.225 1_554 S
O139 Cd128 2.439 1_556 S
O139 C133 1.208 . S
O140 Cd141 2.223 . S
O140 C148 1.315 . S
Cd141 O140 2.223 . S
Cd141 O144 2.297 . S
Cd141 O145 2.439 . S
Cd141 O151 2.240 . S
Cd142 O143 2.240 . S
Cd142 O150 2.223 . S
Cd142 O152 2.297 . S
Cd142 O153 2.439 . S
O143 Cd142 2.240 . S
O143 C148 1.279 . S
O144 Cd141 2.297 . S
O144 C146 1.247 . S
O145 Cd141 2.439 . S
O145 C146 1.208 . S
C146 O144 1.247 . S
C146 O145 1.208 . S
C147 O152 1.247 . S
C147 O153 1.208 . S
C148 O140 1.315 . S
C148 O143 1.279 . S
C149 O150 1.315 . S
C149 O151 1.279 . S
O150 Cd142 2.223 . S
O150 C149 1.315 . S
O151 Cd141 2.240 . S
O151 C149 1.279 . S
O152 Cd142 2.297 . S
O152 C147 1.247 . S
O153 Cd142 2.439 . S
O153 C147 1.208 . S
O154 Cd155 2.223 1_554 S
O154 C162 1.315 . S
Cd155 O154 2.223 1_556 S
Cd155 O158 2.297 . S
Cd155 O159 2.439 . S
Cd155 O165 2.240 1_556 S
Cd156 O157 2.240 . S
Cd156 O164 2.223 . S
Cd156 O166 2.305 . S
Cd156 O167 2.439 1_554 S
O157 Cd156 2.240 . S
O157 C162 1.279 . S
O158 Cd155 2.297 . S
O158 C160 1.247 . S
O159 Cd155 2.439 . S
O159 C160 1.208 . S
C160 O158 1.247 . S
C160 O159 1.208 . S
C161 O166 1.228 1_556 S
C161 O167 1.208 . S
C162 O154 1.315 . S
C162 O157 1.279 . S
C163 O164 1.315 . S
C163 O165 1.279 . S
O164 Cd156 2.223 . S
O164 C163 1.315 . S
O165 Cd155 2.240 1_554 S
O165 C163 1.279 . S
O166 Cd156 2.305 . S
O166 C161 1.228 1_554 S
O167 Cd156 2.439 1_556 S
O167 C161 1.208 . S
O168 Cd169 2.223 . S
O168 C176 1.315 . S
Cd169 O168 2.223 . S
Cd169 O172 2.297 . S
Cd169 O173 2.439 . S
Cd169 O179 2.240 . S
Cd170 O171 2.240 . S
Cd170 O178 2.223 . S
Cd170 O180 2.297 . S
Cd170 O181 2.439 . S
O171 Cd170 2.240 . S
O171 C176 1.279 . S
O172 Cd169 2.297 . S
O172 C174 1.247 . S
O173 Cd169 2.439 . S
O173 C174 1.208 . S
C174 O172 1.247 . S
C174 O173 1.208 . S
C175 O180 1.247 . S
C175 O181 1.208 . S
C176 O168 1.315 . S
C176 O171 1.279 . S
C177 O178 1.315 . S
C177 O179 1.279 . S
O178 Cd170 2.223 . S
O178 C177 1.315 . S
O179 Cd169 2.240 . S
O179 C177 1.279 . S
O180 Cd170 2.297 . S
O180 C175 1.247 . S
O181 Cd170 2.439 . S
O181 C175 1.208 . S
O182 Cd183 2.223 1_556 S
O182 C190 1.315 . S
Cd183 O182 2.223 1_554 S
Cd183 O186 2.297 . S
Cd183 O187 2.439 . S
Cd183 O193 2.240 1_554 S
Cd184 O185 2.240 . S
Cd184 O192 2.223 . S
Cd184 O194 2.297 . S
Cd184 O195 2.439 1_556 S
O185 Cd184 2.240 . S
O185 C190 1.279 . S
O186 Cd183 2.297 . S
O186 C188 1.247 . S
O187 Cd183 2.439 . S
O187 C188 1.208 . S
C188 O186 1.247 . S
C188 O187 1.208 . S
C189 O194 1.247 1_554 S
C189 O195 1.208 . S
C190 O182 1.315 . S
C190 O185 1.279 . S
C191 O192 1.315 . S
C191 O193 1.279 . S
O192 Cd184 2.223 . S
O192 C191 1.315 . S
O193 Cd183 2.240 1_556 S
O193 C191 1.279 . S
O194 Cd184 2.297 . S
O194 C189 1.247 1_556 S
O195 Cd184 2.439 1_554 S
O195 C189 1.208 . S
O196 Cd197 2.223 . S
O196 C204 1.315 . S
Cd197 O196 2.223 . S
Cd197 O200 2.297 . S
Cd197 O201 2.439 . S
Cd197 O207 2.240 . S
Cd198 O199 2.240 . S
Cd198 O206 2.223 . S
Cd198 O208 2.297 . S
Cd198 O209 2.439 . S
O199 Cd198 2.240 . S
O199 C204 1.279 . S
O200 Cd197 2.297 . S
O200 C202 1.247 . S
O201 Cd197 2.439 . S
O201 C202 1.208 . S
C202 O200 1.247 . S
C202 O201 1.208 . S
C203 O208 1.247 . S
C203 O209 1.208 . S
C204 O196 1.315 . S
C204 O199 1.279 . S
C205 O206 1.315 . S
C205 O207 1.279 . S
O206 Cd198 2.223 . S
O206 C205 1.315 . S
O207 Cd197 2.240 . S
O207 C205 1.279 . S
O208 Cd198 2.297 . S
O208 C203 1.247 . S
O209 Cd198 2.439 . S
O209 C203 1.208 . S
O210 Cd211 2.223 1_556 S
O210 C218 1.315 . S
Cd211 O210 2.223 1_554 S
Cd211 O214 2.297 . S
Cd211 O215 2.439 . S
Cd211 O221 2.240 1_554 S
Cd212 O213 2.240 . S
Cd212 O220 2.223 . S
Cd212 O222 2.297 . S
Cd212 O223 2.439 1_556 S
O213 Cd212 2.240 . S
O213 C218 1.279 . S
O214 Cd211 2.297 . S
O214 C216 1.247 . S
O215 Cd211 2.439 . S
O215 C216 1.208 . S
C216 O214 1.247 . S
C216 O215 1.208 . S
C217 O222 1.247 1_554 S
C217 O223 1.208 . S
C218 O210 1.315 . S
C218 O213 1.279 . S
C219 O220 1.315 . S
C219 O221 1.279 . S
O220 Cd212 2.223 . S
O220 C219 1.315 . S
O221 Cd211 2.240 1_556 S
O221 C219 1.279 . S
O222 Cd212 2.297 . S
O222 C217 1.247 1_556 S
O223 Cd212 2.439 1_554 S
O223 C217 1.208 . S
O224 Cd225 2.223 . S
O224 C232 1.315 . S
Cd225 O224 2.223 . S
Cd225 O228 2.297 . S
Cd225 O229 2.439 . S
Cd225 O235 2.240 . S
Cd226 O227 2.240 . S
Cd226 O234 2.223 . S
Cd226 O236 2.297 . S
Cd226 O237 2.439 . S
O227 Cd226 2.240 . S
O227 C232 1.279 . S
O228 Cd225 2.297 . S
O228 C230 1.247 . S
O229 Cd225 2.439 . S
O229 C230 1.208 . S
C230 O228 1.247 . S
C230 O229 1.208 . S
C231 O236 1.247 . S
C231 O237 1.208 . S
C232 O224 1.315 . S
C232 O227 1.279 . S
C233 O234 1.315 . S
C233 O235 1.279 . S
O234 Cd226 2.223 . S
O234 C233 1.315 . S
O235 Cd225 2.240 . S
O235 C233 1.279 . S
O236 Cd226 2.297 . S
O236 C231 1.247 . S
O237 Cd226 2.439 . S
O237 C231 1.208 . S
O238 Cd239 2.223 . S
O238 C246 1.315 . S
Cd239 O238 2.223 . S
Cd239 O242 2.297 . S
Cd239 O243 2.439 . S
Cd239 O249 2.240 . S
Cd240 O241 2.240 . S
Cd240 O248 2.223 . S
Cd240 O250 2.297 . S
Cd240 O251 2.439 . S
O241 Cd240 2.240 . S
O241 C246 1.279 . S
O242 Cd239 2.297 . S
O242 C244 1.247 . S
O243 Cd239 2.439 . S
O243 C244 1.208 . S
C244 O242 1.247 . S
C244 O243 1.208 . S
C245 O250 1.247 . S
C245 O251 1.208 . S
C246 O238 1.315 . S
C246 O241 1.279 . S
C247 O248 1.315 . S
C247 O249 1.279 . S
O248 Cd240 2.223 . S
O248 C247 1.315 . S
O249 Cd239 2.240 . S
O249 C247 1.279 . S
O250 Cd240 2.297 . S
O250 C245 1.247 . S
O251 Cd240 2.439 . S
O251 C245 1.208 . S
O252 Cd253 2.223 . S
O252 C260 1.315 . S
Cd253 O252 2.223 . S
Cd253 O256 2.297 . S
Cd253 O257 2.439 . S
Cd253 O263 2.240 . S
Cd254 O255 2.240 . S
Cd254 O262 2.223 . S
Cd254 O264 2.297 . S
Cd254 O265 2.439 . S
O255 Cd254 2.240 . S
O255 C260 1.279 . S
O256 Cd253 2.297 . S
O256 C258 1.247 . S
O257 Cd253 2.439 . S
O257 C258 1.208 . S
C258 O256 1.247 . S
C258 O257 1.208 . S
C259 O264 1.247 . S
C259 O265 1.208 . S
C260 O252 1.315 . S
C260 O255 1.279 . S
C261 O262 1.315 . S
C261 O263 1.279 . S
O262 Cd254 2.223 . S
O262 C261 1.315 . S
O263 Cd253 2.240 . S
O263 C261 1.279 . S
O264 Cd254 2.297 . S
O264 C259 1.247 . S
O265 Cd254 2.439 . S
O265 C259 1.208 . S
O266 Cd267 2.223 . S
O266 C274 1.315 . S
Cd267 O266 2.223 . S
Cd267 O270 2.297 . S
Cd267 O271 2.439 . S
Cd267 O277 2.240 . S
Cd268 O269 2.240 . S
Cd268 O276 2.223 . S
Cd268 O278 2.297 . S
Cd268 O279 2.439 . S
O269 Cd268 2.240 . S
O269 C274 1.279 . S
O270 Cd267 2.297 . S
O270 C272 1.247 . S
O271 Cd267 2.439 . S
O271 C272 1.208 . S
C272 O270 1.247 . S
C272 O271 1.208 . S
C273 O278 1.247 . S
C273 O279 1.208 . S
C274 O266 1.315 . S
C274 O269 1.279 . S
C275 O276 1.315 . S
C275 O277 1.279 . S
O276 Cd268 2.223 . S
O276 C275 1.315 . S
O277 Cd267 2.240 . S
O277 C275 1.279 . S
O278 Cd268 2.297 . S
O278 C273 1.247 . S
O279 Cd268 2.439 . S
O279 C273 1.208 . S
O280 Cd281 2.223 . S
O280 C288 1.315 . S
Cd281 O280 2.223 . S
Cd281 O284 2.297 . S
Cd281 O285 2.439 . S
Cd281 O291 2.240 . S
Cd282 O283 2.240 . S
Cd282 O290 2.223 . S
Cd282 O292 2.297 . S
Cd282 O293 2.439 . S
O283 Cd282 2.240 . S
O283 C288 1.279 . S
O284 Cd281 2.297 . S
O284 C286 1.247 . S
O285 Cd281 2.439 . S
O285 C286 1.208 . S
C286 O284 1.247 . S
C286 O285 1.208 . S
C287 O292 1.247 . S
C287 O293 1.208 . S
C288 O280 1.315 . S
C288 O283 1.279 . S
C289 O290 1.315 . S
C289 O291 1.279 . S
O290 Cd282 2.223 . S
O290 C289 1.315 . S
O291 Cd281 2.240 . S
O291 C289 1.279 . S
O292 Cd282 2.297 . S
O292 C287 1.247 . S
O293 Cd282 2.439 . S
O293 C287 1.208 . S
O294 Cd295 2.223 . S
O294 C302 1.315 . S
Cd295 O294 2.223 . S
Cd295 O298 2.297 . S
Cd295 O299 2.439 . S
Cd295 O305 2.240 . S
Cd296 O297 2.240 . S
Cd296 O304 2.223 . S
Cd296 O306 2.297 . S
Cd296 O307 2.439 . S
O297 Cd296 2.240 . S
O297 C302 1.279 . S
O298 Cd295 2.297 . S
O298 C300 1.247 . S
O299 Cd295 2.439 . S
O299 C300 1.208 . S
C300 O298 1.247 . S
C300 O299 1.208 . S
C301 O306 1.247 . S
C301 O307 1.208 . S
C302 O294 1.315 . S
C302 O297 1.279 . S
C303 O304 1.315 . S
C303 O305 1.279 . S
O304 Cd296 2.223 . S
O304 C303 1.315 . S
O305 Cd295 2.240 . S
O305 C303 1.279 . S
O306 Cd296 2.297 . S
O306 C301 1.247 . S
O307 Cd296 2.439 . S
O307 C301 1.208 . S
O308 Cd309 2.223 . S
O308 C316 1.315 . S
Cd309 O308 2.223 . S
Cd309 O312 2.297 . S
Cd309 O313 2.439 . S
Cd309 O319 2.240 . S
Cd310 O311 2.240 . S
Cd310 O318 2.223 . S
Cd310 O320 2.297 . S
Cd310 O321 2.439 . S
O311 Cd310 2.240 . S
O311 C316 1.279 . S
O312 Cd309 2.297 . S
O312 C314 1.247 . S
O313 Cd309 2.439 . S
O313 C314 1.208 . S
C314 O312 1.247 . S
C314 O313 1.208 . S
C315 O320 1.247 . S
C315 O321 1.208 . S
C316 O308 1.315 . S
C316 O311 1.279 . S
C317 O318 1.315 . S
C317 O319 1.279 . S
O318 Cd310 2.223 . S
O318 C317 1.315 . S
O319 Cd309 2.240 . S
O319 C317 1.279 . S
O320 Cd310 2.297 . S
O320 C315 1.247 . S
O321 Cd310 2.439 . S
O321 C315 1.208 . S
O322 Cd323 2.223 1_545 S
O322 C330 1.315 . S
Cd323 O322 2.223 1_565 S
Cd323 O326 2.297 . S
Cd323 O327 2.439 . S
Cd323 O333 2.240 1_565 S
Cd324 O325 2.240 . S
Cd324 O332 2.223 . S
Cd324 O334 2.297 1_545 S
Cd324 O335 2.439 1_545 S
O325 Cd324 2.240 . S
O325 C330 1.279 . S
O326 Cd323 2.297 . S
O326 C328 1.247 . S
O327 Cd323 2.439 . S
O327 C328 1.208 . S
C328 O326 1.247 . S
C328 O327 1.208 . S
C329 O334 1.247 . S
C329 O335 1.208 . S
C330 O322 1.315 . S
C330 O325 1.279 . S
C331 O332 1.315 . S
C331 O333 1.279 . S
O332 Cd324 2.223 . S
O332 C331 1.315 . S
O333 Cd323 2.240 1_545 S
O333 C331 1.279 . S
O334 Cd324 2.297 1_565 S
O334 C329 1.247 . S
O335 Cd324 2.439 1_565 S
O335 C329 1.208 . S
O336 Cd337 2.223 . S
O336 C344 1.315 . S
Cd337 O336 2.223 . S
Cd337 O340 2.297 . S
Cd337 O341 2.439 . S
Cd337 O347 2.240 . S
Cd338 O339 2.240 . S
Cd338 O346 2.223 . S
Cd338 O348 2.297 . S
Cd338 O349 2.439 . S
O339 Cd338 2.240 . S
O339 C344 1.279 . S
O340 Cd337 2.297 . S
O340 C342 1.247 . S
O341 Cd337 2.439 . S
O341 C342 1.208 . S
C342 O340 1.247 . S
C342 O341 1.208 . S
C343 O348 1.247 . S
C343 O349 1.208 . S
C344 O336 1.315 . S
C344 O339 1.279 . S
C345 O346 1.315 . S
C345 O347 1.279 . S
O346 Cd338 2.223 . S
O346 C345 1.315 . S
O347 Cd337 2.240 . S
O347 C345 1.279 . S
O348 Cd338 2.297 . S
O348 C343 1.247 . S
O349 Cd338 2.439 . S
O349 C343 1.208 . S
O350 Cd351 2.223 1_655 S
O350 C358 1.315 . S
Cd351 O350 2.223 1_455 S
Cd351 O354 2.297 . S
Cd351 O355 2.439 . S
Cd351 O361 2.240 1_455 S
Cd352 O353 2.240 . S
Cd352 O360 2.223 . S
Cd352 O362 2.297 1_655 S
Cd352 O363 2.439 1_655 S
O353 Cd352 2.240 . S
O353 C358 1.279 . S
O354 Cd351 2.297 . S
O354 C356 1.247 . S
O355 Cd351 2.439 . S
O355 C356 1.208 . S
C356 O354 1.247 . S
C356 O355 1.208 . S
C357 O362 1.247 . S
C357 O363 1.208 . S
C358 O350 1.315 . S
C358 O353 1.279 . S
C359 O360 1.315 . S
C359 O361 1.279 . S
O360 Cd352 2.223 . S
O360 C359 1.315 . S
O361 Cd351 2.240 1_655 S
O361 C359 1.279 . S
O362 Cd352 2.297 1_455 S
O362 C357 1.247 . S
O363 Cd352 2.439 1_455 S
O363 C357 1.208 . S
O364 Cd365 2.223 . S
O364 C372 1.315 . S
Cd365 O364 2.223 . S
Cd365 O368 2.297 . S
Cd365 O369 2.439 . S
Cd365 O375 2.240 . S
Cd366 O367 2.240 . S
Cd366 O374 2.223 . S
Cd366 O376 2.297 . S
Cd366 O377 2.439 . S
O367 Cd366 2.240 . S
O367 C372 1.279 . S
O368 Cd365 2.297 . S
O368 C370 1.247 . S
O369 Cd365 2.439 . S
O369 C370 1.208 . S
C370 O368 1.247 . S
C370 O369 1.208 . S
C371 O376 1.247 . S
C371 O377 1.208 . S
C372 O364 1.315 . S
C372 O367 1.279 . S
C373 O374 1.315 . S
C373 O375 1.279 . S
O374 Cd366 2.223 . S
O374 C373 1.315 . S
O375 Cd365 2.240 . S
O375 C373 1.279 . S
O376 Cd366 2.297 . S
O376 C371 1.247 . S
O377 Cd366 2.439 . S
O377 C371 1.208 . S
O378 Cd379 2.223 1_455 S
O378 C386 1.315 . S
Cd379 O378 2.223 1_655 S
Cd379 O382 2.297 . S
Cd379 O383 2.439 . S
Cd379 O389 2.240 1_655 S
Cd380 O381 2.240 . S
Cd380 O388 2.223 . S
Cd380 O390 2.297 1_455 S
Cd380 O391 2.439 1_455 S
O381 Cd380 2.240 . S
O381 C386 1.279 . S
O382 Cd379 2.297 . S
O382 C384 1.247 . S
O383 Cd379 2.439 . S
O383 C384 1.208 . S
C384 O382 1.247 . S
C384 O383 1.208 . S
C385 O390 1.247 . S
C385 O391 1.208 . S
C386 O378 1.315 . S
C386 O381 1.279 . S
C387 O388 1.315 . S
C387 O389 1.279 . S
O388 Cd380 2.223 . S
O388 C387 1.315 . S
O389 Cd379 2.240 1_455 S
O389 C387 1.279 . S
O390 Cd380 2.297 1_655 S
O390 C385 1.247 . S
O391 Cd380 2.439 1_655 S
O391 C385 1.208 . S
O392 Cd393 2.223 . S
O392 C400 1.315 . S
Cd393 O392 2.223 . S
Cd393 O396 2.297 . S
Cd393 O397 2.439 . S
Cd393 O403 2.240 . S
Cd394 O395 2.240 . S
Cd394 O402 2.223 . S
Cd394 O404 2.297 . S
Cd394 O405 2.439 . S
O395 Cd394 2.240 . S
O395 C400 1.279 . S
O396 Cd393 2.297 . S
O396 C398 1.247 . S
O397 Cd393 2.439 . S
O397 C398 1.208 . S
C398 O396 1.247 . S
C398 O397 1.208 . S
C399 O404 1.247 . S
C399 O405 1.208 . S
C400 O392 1.315 . S
C400 O395 1.279 . S
C401 O402 1.315 . S
C401 O403 1.279 . S
O402 Cd394 2.223 . S
O402 C401 1.315 . S
O403 Cd393 2.240 . S
O403 C401 1.279 . S
O404 Cd394 2.297 . S
O404 C399 1.247 . S
O405 Cd394 2.439 . S
O405 C399 1.208 . S
O406 Cd407 2.223 . S
O406 C414 1.315 . S
Cd407 O406 2.223 . S
Cd407 O410 2.297 . S
Cd407 O411 2.439 . S
Cd407 O417 2.240 . S
Cd408 O409 2.240 . S
Cd408 O416 2.223 . S
Cd408 O418 2.297 . S
Cd408 O419 2.439 . S
O409 Cd408 2.240 . S
O409 C414 1.279 . S
O410 Cd407 2.297 . S
O410 C412 1.247 . S
O411 Cd407 2.439 . S
O411 C412 1.208 . S
C412 O410 1.247 . S
C412 O411 1.208 . S
C413 O418 1.247 . S
C413 O419 1.208 . S
C414 O406 1.315 . S
C414 O409 1.279 . S
C415 O416 1.315 . S
C415 O417 1.279 . S
O416 Cd408 2.223 . S
O416 C415 1.315 . S
O417 Cd407 2.240 . S
O417 C415 1.279 . S
O418 Cd408 2.297 . S
O418 C413 1.247 . S
O419 Cd408 2.439 . S
O419 C413 1.208 . S
O420 Cd421 2.223 . S
O420 C428 1.315 . S
Cd421 O420 2.223 . S
Cd421 O424 2.297 . S
Cd421 O425 2.439 . S
Cd421 O431 2.240 . S
Cd422 O423 2.240 . S
Cd422 O430 2.223 . S
Cd422 O432 2.297 . S
Cd422 O433 2.439 . S
O423 Cd422 2.240 . S
O423 C428 1.279 . S
O424 Cd421 2.297 . S
O424 C426 1.247 . S
O425 Cd421 2.439 . S
O425 C426 1.208 . S
C426 O424 1.247 . S
C426 O425 1.208 . S
C427 O432 1.247 . S
C427 O433 1.208 . S
C428 O420 1.315 . S
C428 O423 1.279 . S
C429 O430 1.315 . S
C429 O431 1.279 . S
O430 Cd422 2.223 . S
O430 C429 1.315 . S
O431 Cd421 2.240 . S
O431 C429 1.279 . S
O432 Cd422 2.297 . S
O432 C427 1.247 . S
O433 Cd422 2.439 . S
O433 C427 1.208 . S
O434 Cd435 2.223 . S
O434 C442 1.315 . S
Cd435 O434 2.223 . S
Cd435 O438 2.297 . S
Cd435 O439 2.439 . S
Cd435 O445 2.240 . S
Cd436 O437 2.240 . S
Cd436 O444 2.223 . S
Cd436 O446 2.297 . S
Cd436 O447 2.439 . S
O437 Cd436 2.240 . S
O437 C442 1.279 . S
O438 Cd435 2.297 . S
O438 C440 1.247 . S
O439 Cd435 2.439 . S
O439 C440 1.208 . S
C440 O438 1.247 . S
C440 O439 1.208 . S
C441 O446 1.247 . S
C441 O447 1.208 . S
C442 O434 1.315 . S
C442 O437 1.279 . S
C443 O444 1.315 . S
C443 O445 1.279 . S
O444 Cd436 2.223 . S
O444 C443 1.315 . S
O445 Cd435 2.240 . S
O445 C443 1.279 . S
O446 Cd436 2.297 . S
O446 C441 1.247 . S
O447 Cd436 2.439 . S
O447 C441 1.208 . S
O448 Cd449 2.223 . S
O448 C456 1.315 . S
Cd449 O448 2.223 . S
Cd449 O452 2.297 . S
Cd449 O453 2.439 . S
Cd449 O459 2.240 . S
Cd450 O451 2.240 . S
Cd450 O458 2.223 . S
Cd450 O460 2.297 . S
Cd450 O461 2.439 . S
O451 Cd450 2.240 . S
O451 C456 1.279 . S
O452 Cd449 2.297 . S
O452 C454 1.247 . S
O453 Cd449 2.439 . S
O453 C454 1.208 . S
C454 O452 1.247 . S
C454 O453 1.208 . S
C455 O460 1.247 . S
C455 O461 1.208 . S
C456 O448 1.315 . S
C456 O451 1.279 . S
C457 O458 1.315 . S
C457 O459 1.279 . S
O458 Cd450 2.223 . S
O458 C457 1.315 . S
O459 Cd449 2.240 . S
O459 C457 1.279 . S
O460 Cd450 2.297 . S
O460 C455 1.247 . S
O461 Cd450 2.439 . S
O461 C455 1.208 . S
O462 Cd463 2.223 . S
O462 C470 1.315 . S
Cd463 O462 2.223 . S
Cd463 O466 2.297 . S
Cd463 O467 2.439 . S
Cd463 O473 2.240 . S
Cd464 O465 2.240 . S
Cd464 O472 2.223 . S
Cd464 O474 2.297 . S
Cd464 O475 2.439 . S
O465 Cd464 2.240 . S
O465 C470 1.279 . S
O466 Cd463 2.297 . S
O466 C468 1.247 . S
O467 Cd463 2.439 . S
O467 C468 1.208 . S
C468 O466 1.247 . S
C468 O467 1.208 . S
C469 O474 1.247 . S
C469 O475 1.208 . S
C470 O462 1.315 . S
C470 O465 1.279 . S
C471 O472 1.315 . S
C471 O473 1.279 . S
O472 Cd464 2.223 . S
O472 C471 1.315 . S
O473 Cd463 2.240 . S
O473 C471 1.279 . S
O474 Cd464 2.297 . S
O474 C469 1.247 . S
O475 Cd464 2.439 . S
O475 C469 1.208 . S
O476 Cd477 2.223 . S
O476 C484 1.315 . S
Cd477 O476 2.223 . S
Cd477 O480 2.297 . S
Cd477 O481 2.439 . S
Cd477 O487 2.240 . S
Cd478 O479 2.240 . S
Cd478 O486 2.223 . S
Cd478 O488 2.297 . S
Cd478 O489 2.439 . S
O479 Cd478 2.240 . S
O479 C484 1.279 . S
O480 Cd477 2.297 . S
O480 C482 1.247 . S
O481 Cd477 2.439 . S
O481 C482 1.208 . S
C482 O480 1.247 . S
C482 O481 1.208 . S
C483 O488 1.247 . S
C483 O489 1.208 . S
C484 O476 1.315 . S
C484 O479 1.279 . S
C485 O486 1.315 . S
C485 O487 1.279 . S
O486 Cd478 2.223 . S
O486 C485 1.315 . S
O487 Cd477 2.240 . S
O487 C485 1.279 . S
O488 Cd478 2.297 . S
O488 C483 1.247 . S
O489 Cd478 2.439 . S
O489 C483 1.208 . S
O490 Cd491 2.223 . S
O490 C498 1.315 . S
Cd491 O490 2.223 . S
Cd491 O494 2.297 . S
Cd491 O495 2.439 . S
Cd491 O501 2.240 . S
Cd492 O493 2.240 . S
Cd492 O500 2.223 . S
Cd492 O502 2.297 . S
Cd492 O503 2.439 . S
O493 Cd492 2.240 . S
O493 C498 1.279 . S
O494 Cd491 2.297 . S
O494 C496 1.247 . S
O495 Cd491 2.439 . S
O495 C496 1.208 . S
C496 O494 1.247 . S
C496 O495 1.208 . S
C497 O502 1.247 . S
C497 O503 1.208 . S
C498 O490 1.315 . S
C498 O493 1.279 . S
C499 O500 1.315 . S
C499 O501 1.279 . S
O500 Cd492 2.223 . S
O500 C499 1.315 . S
O501 Cd491 2.240 . S
O501 C499 1.279 . S
O502 Cd492 2.297 . S
O502 C497 1.247 . S
O503 Cd492 2.439 . S
O503 C497 1.208 . S
O504 Cd505 2.223 . S
O504 C512 1.315 . S
Cd505 O504 2.223 . S
Cd505 O508 2.297 . S
Cd505 O509 2.439 . S
Cd505 O515 2.240 . S
Cd506 O507 2.240 . S
Cd506 O514 2.223 . S
Cd506 O516 2.297 . S
Cd506 O517 2.439 . S
O507 Cd506 2.240 . S
O507 C512 1.279 . S
O508 Cd505 2.297 . S
O508 C510 1.247 . S
O509 Cd505 2.439 . S
O509 C510 1.208 . S
C510 O508 1.247 . S
C510 O509 1.208 . S
C511 O516 1.247 . S
C511 O517 1.208 . S
C512 O504 1.315 . S
C512 O507 1.279 . S
C513 O514 1.315 . S
C513 O515 1.279 . S
O514 Cd506 2.223 . S
O514 C513 1.315 . S
O515 Cd505 2.240 . S
O515 C513 1.279 . S
O516 Cd506 2.297 . S
O516 C511 1.247 . S
O517 Cd506 2.439 . S
O517 C511 1.208 . S
O518 Cd519 2.223 . S
O518 C526 1.315 . S
Cd519 O518 2.223 . S
Cd519 O522 2.297 . S
Cd519 O523 2.439 . S
Cd519 O529 2.240 . S
Cd520 O521 2.240 . S
Cd520 O528 2.223 . S
Cd520 O530 2.297 . S
Cd520 O531 2.439 . S
O521 Cd520 2.240 . S
O521 C526 1.279 . S
O522 Cd519 2.297 . S
O522 C524 1.247 . S
O523 Cd519 2.439 . S
O523 C524 1.208 . S
C524 O522 1.247 . S
C524 O523 1.208 . S
C525 O530 1.247 . S
C525 O531 1.208 . S
C526 O518 1.315 . S
C526 O521 1.279 . S
C527 O528 1.315 . S
C527 O529 1.279 . S
O528 Cd520 2.223 . S
O528 C527 1.315 . S
O529 Cd519 2.240 . S
O529 C527 1.279 . S
O530 Cd520 2.297 . S
O530 C525 1.247 . S
O531 Cd520 2.439 . S
O531 C525 1.208 . S
O532 Cd533 2.223 . S
O532 C540 1.315 . S
Cd533 O532 2.223 . S
Cd533 O536 2.297 . S
Cd533 O537 2.439 . S
Cd533 O543 2.240 . S
Cd534 O535 2.240 . S
Cd534 O542 2.223 . S
Cd534 O544 2.297 . S
Cd534 O545 2.439 . S
O535 Cd534 2.240 . S
O535 C540 1.279 . S
O536 Cd533 2.297 . S
O536 C538 1.247 . S
O537 Cd533 2.439 . S
O537 C538 1.208 . S
C538 O536 1.247 . S
C538 O537 1.208 . S
C539 O544 1.247 . S
C539 O545 1.208 . S
C540 O532 1.315 . S
C540 O535 1.279 . S
C541 O542 1.315 . S
C541 O543 1.279 . S
O542 Cd534 2.223 . S
O542 C541 1.315 . S
O543 Cd533 2.240 . S
O543 C541 1.279 . S
O544 Cd534 2.297 . S
O544 C539 1.247 . S
O545 Cd534 2.439 . S
O545 C539 1.208 . S
O546 Cd547 2.223 . S
O546 C554 1.315 . S
Cd547 O546 2.223 . S
Cd547 O550 2.297 . S
Cd547 O551 2.439 . S
Cd547 O557 2.240 . S
Cd548 O549 2.240 . S
Cd548 O556 2.223 . S
Cd548 O558 2.297 . S
Cd548 O559 2.439 . S
O549 Cd548 2.240 . S
O549 C554 1.279 . S
O550 Cd547 2.297 . S
O550 C552 1.247 . S
O551 Cd547 2.439 . S
O551 C552 1.208 . S
C552 O550 1.247 . S
C552 O551 1.208 . S
C553 O558 1.247 . S
C553 O559 1.208 . S
C554 O546 1.315 . S
C554 O549 1.279 . S
C555 O556 1.315 . S
C555 O557 1.279 . S
O556 Cd548 2.223 . S
O556 C555 1.315 . S
O557 Cd547 2.240 . S
O557 C555 1.279 . S
O558 Cd548 2.297 . S
O558 C553 1.247 . S
O559 Cd548 2.439 . S
O559 C553 1.208 . S
O560 Cd561 2.223 . S
O560 C568 1.315 . S
Cd561 O560 2.223 . S
Cd561 O564 2.297 . S
Cd561 O565 2.439 . S
Cd561 O571 2.240 . S
Cd562 O563 2.240 . S
Cd562 O570 2.223 . S
Cd562 O572 2.297 . S
Cd562 O573 2.439 . S
O563 Cd562 2.240 . S
O563 C568 1.279 . S
O564 Cd561 2.297 . S
O564 C566 1.247 . S
O565 Cd561 2.439 . S
O565 C566 1.208 . S
C566 O564 1.247 . S
C566 O565 1.208 . S
C567 O572 1.247 . S
C567 O573 1.208 . S
C568 O560 1.315 . S
C568 O563 1.279 . S
C569 O570 1.315 . S
C569 O571 1.279 . S
O570 Cd562 2.223 . S
O570 C569 1.315 . S
O571 Cd561 2.240 . S
O571 C569 1.279 . S
O572 Cd562 2.297 . S
O572 C567 1.247 . S
O573 Cd562 2.439 . S
O573 C567 1.208 . S
O574 Cd575 2.223 . S
O574 C582 1.315 . S
Cd575 O574 2.223 . S
Cd575 O578 2.297 . S
Cd575 O579 2.439 . S
Cd575 O585 2.240 . S
Cd576 O577 2.240 . S
Cd576 O584 2.223 . S
Cd576 O586 2.297 . S
Cd576 O587 2.439 . S
O577 Cd576 2.240 . S
O577 C582 1.279 . S
O578 Cd575 2.297 . S
O578 C580 1.247 . S
O579 Cd575 2.439 . S
O579 C580 1.208 . S
C580 O578 1.247 . S
C580 O579 1.208 . S
C581 O586 1.247 . S
C581 O587 1.208 . S
C582 O574 1.315 . S
C582 O577 1.279 . S
C583 O584 1.315 . S
C583 O585 1.279 . S
O584 Cd576 2.223 . S
O584 C583 1.315 . S
O585 Cd575 2.240 . S
O585 C583 1.279 . S
O586 Cd576 2.297 . S
O586 C581 1.247 . S
O587 Cd576 2.439 . S
O587 C581 1.208 . S
O588 Cd589 2.223 1_545 S
O588 C596 1.315 . S
Cd589 O588 2.223 1_565 S
Cd589 O592 2.297 . S
Cd589 O593 2.439 . S
Cd589 O599 2.240 1_565 S
Cd590 O591 2.240 . S
Cd590 O598 2.223 . S
Cd590 O600 2.297 1_545 S
Cd590 O601 2.439 1_545 S
O591 Cd590 2.240 . S
O591 C596 1.279 . S
O592 Cd589 2.297 . S
O592 C594 1.247 . S
O593 Cd589 2.439 . S
O593 C594 1.208 . S
C594 O592 1.247 . S
C594 O593 1.208 . S
C595 O600 1.247 . S
C595 O601 1.208 . S
C596 O588 1.315 . S
C596 O591 1.279 . S
C597 O598 1.315 . S
C597 O599 1.279 . S
O598 Cd590 2.223 . S
O598 C597 1.315 . S
O599 Cd589 2.240 1_545 S
O599 C597 1.279 . S
O600 Cd590 2.297 1_565 S
O600 C595 1.247 . S
O601 Cd590 2.439 1_565 S
O601 C595 1.208 . S
O602 Cd603 2.223 . S
O602 C610 1.315 . S
Cd603 O602 2.223 . S
Cd603 O606 2.297 . S
Cd603 O607 2.439 . S
Cd603 O613 2.240 . S
Cd604 O605 2.240 . S
Cd604 O612 2.223 . S
Cd604 O614 2.297 . S
Cd604 O615 2.439 . S
O605 Cd604 2.240 . S
O605 C610 1.279 . S
O606 Cd603 2.297 . S
O606 C608 1.247 . S
O607 Cd603 2.439 . S
O607 C608 1.208 . S
C608 O606 1.247 . S
C608 O607 1.208 . S
C609 O614 1.247 . S
C609 O615 1.208 . S
C610 O602 1.315 . S
C610 O605 1.279 . S
C611 O612 1.315 . S
C611 O613 1.279 . S
O612 Cd604 2.223 . S
O612 C611 1.315 . S
O613 Cd603 2.240 . S
O613 C611 1.279 . S
O614 Cd604 2.297 . S
O614 C609 1.247 . S
O615 Cd604 2.439 . S
O615 C609 1.208 . S
O616 Cd617 2.223 1_565 S
O616 C624 1.315 . S
Cd617 O616 2.223 1_545 S
Cd617 O620 2.297 . S
Cd617 O621 2.439 . S
Cd617 O627 2.240 1_545 S
Cd618 O619 2.240 . S
Cd618 O626 2.223 . S
Cd618 O628 2.297 1_565 S
Cd618 O629 2.439 1_565 S
O619 Cd618 2.240 . S
O619 C624 1.279 . S
O620 Cd617 2.297 . S
O620 C622 1.247 . S
O621 Cd617 2.439 . S
O621 C622 1.208 . S
C622 O620 1.247 . S
C622 O621 1.208 . S
C623 O628 1.247 . S
C623 O629 1.208 . S
C624 O616 1.315 . S
C624 O619 1.279 . S
C625 O626 1.315 . S
C625 O627 1.279 . S
O626 Cd618 2.223 . S
O626 C625 1.315 . S
O627 Cd617 2.240 1_565 S
O627 C625 1.279 . S
O628 Cd618 2.297 1_545 S
O628 C623 1.247 . S
O629 Cd618 2.439 1_545 S
O629 C623 1.208 . S
O630 Cd631 2.223 . S
O630 C638 1.315 . S
Cd631 O630 2.223 . S
Cd631 O634 2.297 . S
Cd631 O635 2.439 . S
Cd631 O641 2.240 . S
Cd632 O633 2.240 . S
Cd632 O640 2.223 . S
Cd632 O642 2.297 . S
Cd632 O643 2.439 . S
O633 Cd632 2.240 . S
O633 C638 1.279 . S
O634 Cd631 2.297 . S
O634 C636 1.247 . S
O635 Cd631 2.439 . S
O635 C636 1.208 . S
C636 O634 1.247 . S
C636 O635 1.208 . S
C637 O642 1.247 . S
C637 O643 1.208 . S
C638 O630 1.315 . S
C638 O633 1.279 . S
C639 O640 1.315 . S
C639 O641 1.279 . S
O640 Cd632 2.223 . S
O640 C639 1.315 . S
O641 Cd631 2.240 . S
O641 C639 1.279 . S
O642 Cd632 2.297 . S
O642 C637 1.247 . S
O643 Cd632 2.439 . S
O643 C637 1.208 . S
O644 Cd645 2.223 1_565 S
O644 C652 1.315 . S
Cd645 O644 2.223 1_545 S
Cd645 O648 2.297 . S
Cd645 O649 2.439 . S
Cd645 O655 2.240 1_545 S
Cd646 O647 2.240 . S
Cd646 O654 2.223 . S
Cd646 O656 2.297 1_565 S
Cd646 O657 2.439 1_565 S
O647 Cd646 2.240 . S
O647 C652 1.279 . S
O648 Cd645 2.297 . S
O648 C650 1.247 . S
O649 Cd645 2.439 . S
O649 C650 1.208 . S
C650 O648 1.247 . S
C650 O649 1.208 . S
C651 O656 1.247 . S
C651 O657 1.208 . S
C652 O644 1.315 . S
C652 O647 1.279 . S
C653 O654 1.315 . S
C653 O655 1.279 . S
O654 Cd646 2.223 . S
O654 C653 1.315 . S
O655 Cd645 2.240 1_565 S
O655 C653 1.279 . S
O656 Cd646 2.297 1_545 S
O656 C651 1.247 . S
O657 Cd646 2.439 1_545 S
O657 C651 1.208 . S
O658 Cd659 2.223 . S
O658 C666 1.315 . S
Cd659 O658 2.223 . S
Cd659 O662 2.297 . S
Cd659 O663 2.439 . S
Cd659 O669 2.240 . S
Cd660 O661 2.240 . S
Cd660 O668 2.223 . S
Cd660 O670 2.297 . S
Cd660 O671 2.439 . S
O661 Cd660 2.240 . S
O661 C666 1.279 . S
O662 Cd659 2.297 . S
O662 C664 1.247 . S
O663 Cd659 2.439 . S
O663 C664 1.208 . S
C664 O662 1.247 . S
C664 O663 1.208 . S
C665 O670 1.247 . S
C665 O671 1.208 . S
C666 O658 1.315 . S
C666 O661 1.279 . S
C667 O668 1.315 . S
C667 O669 1.279 . S
O668 Cd660 2.223 . S
O668 C667 1.315 . S
O669 Cd659 2.240 . S
O669 C667 1.279 . S
O670 Cd660 2.297 . S
O670 C665 1.247 . S
O671 Cd660 2.439 . S
O671 C665 1.208 . S
C672 C673 1.369 . S
C672 C674 1.419 . S
C672 H676 0.930 . S
C673 C672 1.369 . S
C673 C682 1.429 . S
C674 C672 1.419 . S
C674 C675 1.363 . S
C674 H677 0.929 . S
C675 C674 1.363 . S
C675 C681 1.428 . S
H676 C672 0.930 . S
H677 C674 0.929 . S
S678 N679 1.613 . S
S678 N680 1.610 . S
N679 S678 1.613 . S
N679 C682 1.350 . S
N680 S678 1.610 . S
N680 C681 1.351 . S
C681 C675 1.428 . S
C681 N680 1.351 . S
C681 C682 1.434 . S
C682 C673 1.429 . S
C682 N679 1.350 . S
C682 C681 1.434 . S
C683 C684 1.369 . S
C683 C685 1.419 . S
C683 H687 0.930 . S
C684 C683 1.369 . S
C684 C693 1.429 . S
C685 C683 1.419 . S
C685 C686 1.363 . S
C685 H688 0.929 . S
C686 C685 1.363 . S
C686 C692 1.428 . S
H687 C683 0.930 . S
H688 C685 0.929 . S
S689 N690 1.613 . S
S689 N691 1.610 . S
N690 S689 1.613 . S
N690 C693 1.350 . S
N691 S689 1.610 . S
N691 C692 1.351 . S
C692 C686 1.428 . S
C692 N691 1.351 . S
C692 C693 1.434 . S
C693 C684 1.429 . S
C693 N690 1.350 . S
C693 C692 1.434 . S
C694 C695 1.369 . S
C694 C696 1.419 . S
C694 H698 0.930 . S
C695 C694 1.369 . S
C695 C704 1.429 . S
C696 C694 1.419 . S
C696 C697 1.363 . S
C696 H699 0.929 . S
C697 C696 1.363 . S
C697 C703 1.428 . S
H698 C694 0.930 . S
H699 C696 0.929 . S
S700 N701 1.613 . S
S700 N702 1.610 . S
N701 S700 1.613 . S
N701 C704 1.350 . S
N702 S700 1.610 . S
N702 C703 1.351 . S
C703 C697 1.428 . S
C703 N702 1.351 . S
C703 C704 1.434 . S
C704 C695 1.429 . S
C704 N701 1.350 . S
C704 C703 1.434 . S
C705 C706 1.369 . S
C705 C707 1.419 . S
C705 H709 0.930 1_554 S
C706 C705 1.369 . S
C706 C715 1.429 . S
C707 C705 1.419 . S
C707 C708 1.363 . S
C707 H710 0.929 . S
C708 C707 1.363 . S
C708 C714 1.428 . S
H709 C705 0.930 1_556 S
H710 C707 0.929 . S
S711 N712 1.613 . S
S711 N713 1.610 . S
N712 S711 1.613 . S
N712 C715 1.350 . S
N713 S711 1.610 . S
N713 C714 1.351 . S
C714 C708 1.428 . S
C714 N713 1.351 . S
C714 C715 1.434 . S
C715 C706 1.429 . S
C715 N712 1.350 . S
C715 C714 1.434 . S
C716 C717 1.369 . S
C716 C718 1.419 . S
C716 H720 0.930 . S
C717 C716 1.369 . S
C717 C726 1.429 . S
C718 C716 1.419 . S
C718 C719 1.363 . S
C718 H721 0.929 . S
C719 C718 1.363 . S
C719 C725 1.428 . S
H720 C716 0.930 . S
H721 C718 0.929 . S
S722 N723 1.613 . S
S722 N724 1.610 . S
N723 S722 1.613 . S
N723 C726 1.350 . S
N724 S722 1.610 . S
N724 C725 1.351 . S
C725 C719 1.428 . S
C725 N724 1.351 . S
C725 C726 1.434 . S
C726 C717 1.429 . S
C726 N723 1.350 . S
C726 C725 1.434 . S
C727 C728 1.369 . S
C727 C729 1.419 . S
C727 H731 0.930 . S
C728 C727 1.369 . S
C728 C737 1.428 . S
C729 C727 1.419 . S
C729 C730 1.363 . S
C729 H732 0.929 . S
C730 C729 1.363 . S
C730 C736 1.428 . S
H731 C727 0.930 . S
H732 C729 0.929 . S
S733 N734 1.613 . S
S733 N735 1.610 . S
N734 S733 1.613 . S
N734 C737 1.351 1_554 S
N735 S733 1.610 . S
N735 C736 1.351 1_554 S
C736 C730 1.428 . S
C736 N735 1.351 1_556 S
C736 C737 1.434 . S
C737 C728 1.428 . S
C737 N734 1.351 1_556 S
C737 C736 1.434 . S
C738 C739 1.369 . S
C738 C740 1.419 . S
C738 H742 0.930 . S
C739 C738 1.369 . S
C739 C748 1.429 . S
C740 C738 1.419 . S
C740 C741 1.363 . S
C740 H743 0.929 . S
C741 C740 1.363 . S
C741 C747 1.428 . S
H742 C738 0.930 . S
H743 C740 0.929 . S
S744 N745 1.613 . S
S744 N746 1.610 . S
N745 S744 1.613 . S
N745 C748 1.350 . S
N746 S744 1.610 . S
N746 C747 1.351 . S
C747 C741 1.428 . S
C747 N746 1.351 . S
C747 C748 1.434 . S
C748 C739 1.429 . S
C748 N745 1.350 . S
C748 C747 1.434 . S
C749 C750 1.369 . S
C749 C751 1.419 . S
C749 H753 0.930 . S
C750 C749 1.369 . S
C750 C759 1.429 . S
C751 C749 1.419 . S
C751 C752 1.363 . S
C751 H754 0.929 . S
C752 C751 1.363 . S
C752 C758 1.428 . S
H753 C749 0.930 . S
H754 C751 0.929 . S
S755 N756 1.613 1_554 S
S755 N757 1.610 . S
N756 S755 1.613 1_556 S
N756 C759 1.350 . S
N757 S755 1.610 . S
N757 C758 1.351 1_554 S
C758 C752 1.428 . S
C758 N757 1.351 1_556 S
C758 C759 1.434 . S
C759 C750 1.429 . S
C759 N756 1.350 . S
C759 C758 1.434 . S
C760 C761 1.369 . S
C760 C762 1.419 . S
C760 H764 0.930 . S
C761 C760 1.369 . S
C761 C770 1.429 . S
C762 C760 1.419 . S
C762 C763 1.363 . S
C762 H765 0.929 . S
C763 C762 1.363 . S
C763 C769 1.428 . S
H764 C760 0.930 . S
H765 C762 0.929 . S
S766 N767 1.613 . S
S766 N768 1.610 . S
N767 S766 1.613 . S
N767 C770 1.350 . S
N768 S766 1.610 . S
N768 C769 1.351 . S
C769 C763 1.428 . S
C769 N768 1.351 . S
C769 C770 1.434 . S
C770 C761 1.429 . S
C770 N767 1.350 . S
C770 C769 1.434 . S
C771 C772 1.369 . S
C771 C773 1.419 . S
C771 H775 0.930 . S
C772 C771 1.369 . S
C772 C781 1.429 . S
C773 C771 1.419 . S
C773 C774 1.363 . S
C773 H776 0.929 . S
C774 C773 1.363 . S
C774 C780 1.428 . S
H775 C771 0.930 . S
H776 C773 0.929 . S
S777 N778 1.613 . S
S777 N779 1.610 . S
N778 S777 1.613 . S
N778 C781 1.350 . S
N779 S777 1.610 . S
N779 C780 1.351 . S
C780 C774 1.428 . S
C780 N779 1.351 . S
C780 C781 1.434 . S
C781 C772 1.429 . S
C781 N778 1.350 . S
C781 C780 1.434 . S
C782 C783 1.369 . S
C782 C784 1.419 . S
C782 H786 0.930 . S
C783 C782 1.369 . S
C783 C792 1.429 . S
C784 C782 1.419 . S
C784 C785 1.363 . S
C784 H787 0.929 . S
C785 C784 1.363 . S
C785 C791 1.428 . S
H786 C782 0.930 . S
H787 C784 0.929 . S
S788 N789 1.613 . S
S788 N790 1.610 . S
N789 S788 1.613 . S
N789 C792 1.350 . S
N790 S788 1.610 . S
N790 C791 1.351 . S
C791 C785 1.428 . S
C791 N790 1.351 . S
C791 C792 1.434 . S
C792 C783 1.429 . S
C792 N789 1.350 . S
C792 C791 1.434 . S
C793 C794 1.369 . S
C793 C795 1.419 . S
C793 H797 0.930 . S
C794 C793 1.369 . S
C794 C803 1.429 . S
C795 C793 1.419 . S
C795 C796 1.363 1_565 S
C795 H798 0.929 . S
C796 C795 1.363 1_545 S
C796 C802 1.428 . S
H797 C793 0.930 . S
H798 C795 0.929 . S
S799 N800 1.613 . S
S799 N801 1.610 . S
N800 S799 1.613 . S
N800 C803 1.350 1_545 S
N801 S799 1.610 . S
N801 C802 1.351 . S
C802 C796 1.428 . S
C802 N801 1.351 . S
C802 C803 1.434 1_545 S
C803 C794 1.429 . S
C803 N800 1.350 1_565 S
C803 C802 1.434 1_565 S
C804 C805 1.369 . S
C804 C806 1.419 . S
C804 H808 0.930 . S
C805 C804 1.369 . S
C805 C814 1.429 . S
C806 C804 1.419 . S
C806 C807 1.363 . S
C806 H809 0.929 . S
C807 C806 1.363 . S
C807 C813 1.428 . S
H808 C804 0.930 . S
H809 C806 0.929 . S
S810 N811 1.613 . S
S810 N812 1.610 . S
N811 S810 1.613 . S
N811 C814 1.350 . S
N812 S810 1.610 . S
N812 C813 1.351 . S
C813 C807 1.428 . S
C813 N812 1.351 . S
C813 C814 1.434 . S
C814 C805 1.429 . S
C814 N811 1.350 . S
C814 C813 1.434 . S
C815 C816 1.369 . S
C815 C817 1.419 . S
C815 H819 0.930 . S
C816 C815 1.369 . S
C816 C825 1.429 . S
C817 C815 1.419 . S
C817 C818 1.363 . S
C817 H820 0.929 . S
C818 C817 1.363 . S
C818 C824 1.428 . S
H819 C815 0.930 . S
H820 C817 0.929 . S
S821 N822 1.613 1_655 S
S821 N823 1.610 1_655 S
N822 S821 1.613 1_455 S
N822 C825 1.350 . S
N823 S821 1.610 1_455 S
N823 C824 1.351 . S
C824 C818 1.428 . S
C824 N823 1.351 . S
C824 C825 1.434 . S
C825 C816 1.429 . S
C825 N822 1.350 . S
C825 C824 1.434 . S
C826 C827 1.369 . S
C826 C828 1.419 . S
C826 H830 0.930 . S
C827 C826 1.369 . S
C827 C836 1.429 . S
C828 C826 1.419 . S
C828 C829 1.363 . S
C828 H831 0.929 . S
C829 C828 1.363 . S
C829 C835 1.428 . S
H830 C826 0.930 . S
H831 C828 0.929 . S
S832 N833 1.613 . S
S832 N834 1.610 . S
N833 S832 1.613 . S
N833 C836 1.350 . S
N834 S832 1.610 . S
N834 C835 1.351 . S
C835 C829 1.428 . S
C835 N834 1.351 . S
C835 C836 1.434 . S
C836 C827 1.429 . S
C836 N833 1.350 . S
C836 C835 1.434 . S
C837 C838 1.369 . S
C837 C839 1.419 1_545 S
C837 H841 0.930 . S
C838 C837 1.369 . S
C838 C847 1.429 1_545 S
C839 C837 1.419 1_565 S
C839 C840 1.363 . S
C839 H842 0.929 . S
C840 C839 1.363 . S
C840 C846 1.428 . S
H841 C837 0.930 . S
H842 C839 0.929 . S
S843 N844 1.613 . S
S843 N845 1.610 1_556 S
N844 S843 1.613 . S
N844 C847 1.350 1_556 S
N845 S843 1.610 1_554 S
N845 C846 1.351 . S
C846 C840 1.428 . S
C846 N845 1.351 . S
C846 C847 1.434 . S
C847 C838 1.429 1_565 S
C847 N844 1.350 1_554 S
C847 C846 1.434 . S
C848 C849 1.369 . S
C848 C850 1.419 . S
C848 H852 0.930 . S
C849 C848 1.369 . S
C849 C858 1.429 . S
C850 C848 1.419 . S
C850 C851 1.363 . S
C850 H853 0.929 . S
C851 C850 1.363 . S
C851 C857 1.428 . S
H852 C848 0.930 . S
H853 C850 0.929 . S
S854 N855 1.613 . S
S854 N856 1.610 . S
N855 S854 1.613 . S
N855 C858 1.350 . S
N856 S854 1.610 . S
N856 C857 1.351 . S
C857 C851 1.428 . S
C857 N856 1.351 . S
C857 C858 1.434 . S
C858 C849 1.429 . S
C858 N855 1.350 . S
C858 C857 1.434 . S
C859 C860 1.369 . S
C859 C861 1.419 . S
C859 H863 0.930 . S
C860 C859 1.369 . S
C860 C869 1.429 . S
C861 C859 1.419 . S
C861 C862 1.363 . S
C861 H864 0.929 . S
C862 C861 1.363 . S
C862 C868 1.428 . S
H863 C859 0.930 . S
H864 C861 0.929 . S
S865 N866 1.613 . S
S865 N867 1.610 . S
N866 S865 1.613 . S
N866 C869 1.350 . S
N867 S865 1.610 . S
N867 C868 1.351 . S
C868 C862 1.428 . S
C868 N867 1.351 . S
C868 C869 1.434 . S
C869 C860 1.429 . S
C869 N866 1.350 . S
C869 C868 1.434 . S
C870 C871 1.369 . S
C870 C872 1.419 . S
C870 H874 0.930 . S
C871 C870 1.369 . S
C871 C880 1.429 1_655 S
C872 C870 1.419 . S
C872 C873 1.363 1_655 S
C872 H875 0.929 . S
C873 C872 1.363 1_455 S
C873 C879 1.428 . S
H874 C870 0.930 . S
H875 C872 0.929 . S
S876 N877 1.613 . S
S876 N878 1.610 . S
N877 S876 1.613 . S
N877 C880 1.350 . S
N878 S876 1.610 . S
N878 C879 1.351 . S
C879 C873 1.428 . S
C879 N878 1.351 . S
C879 C880 1.434 . S
C880 C871 1.429 1_455 S
C880 N877 1.350 . S
C880 C879 1.434 . S
C881 C882 1.369 . S
C881 C883 1.419 . S
C881 H885 0.930 . S
C882 C881 1.369 . S
C882 C891 1.429 . S
C883 C881 1.419 . S
C883 C884 1.363 . S
C883 H886 0.929 . S
C884 C883 1.363 . S
C884 C890 1.428 . S
H885 C881 0.930 . S
H886 C883 0.929 . S
S887 N888 1.613 . S
S887 N889 1.610 . S
N888 S887 1.613 . S
N888 C891 1.350 . S
N889 S887 1.610 . S
N889 C890 1.351 . S
C890 C884 1.428 . S
C890 N889 1.351 . S
C890 C891 1.434 . S
C891 C882 1.429 . S
C891 N888 1.350 . S
C891 C890 1.434 . S
C892 C893 1.369 . S
C892 C894 1.419 . S
C892 H896 0.930 . S
C893 C892 1.369 . S
C893 C902 1.429 . S
C894 C892 1.419 . S
C894 C895 1.363 . S
C894 H897 0.929 . S
C895 C894 1.363 . S
C895 C901 1.428 . S
H896 C892 0.930 . S
H897 C894 0.929 . S
S898 N899 1.613 . S
S898 N900 1.610 . S
N899 S898 1.613 . S
N899 C902 1.350 . S
N900 S898 1.610 . S
N900 C901 1.351 . S
C901 C895 1.428 . S
C901 N900 1.351 . S
C901 C902 1.434 . S
C902 C893 1.429 . S
C902 N899 1.350 . S
C902 C901 1.434 . S
C903 C904 1.369 . S
C903 C905 1.419 . S
C903 H907 0.930 . S
C904 C903 1.369 . S
C904 C913 1.429 . S
C905 C903 1.419 . S
C905 C906 1.363 . S
C905 H908 0.929 . S
C906 C905 1.363 . S
C906 C912 1.428 . S
H907 C903 0.930 . S
H908 C905 0.929 . S
S909 N910 1.613 . S
S909 N911 1.610 . S
N910 S909 1.613 . S
N910 C913 1.350 . S
N911 S909 1.610 . S
N911 C912 1.351 . S
C912 C906 1.428 . S
C912 N911 1.351 . S
C912 C913 1.434 . S
C913 C904 1.429 . S
C913 N910 1.350 . S
C913 C912 1.434 . S
C914 C915 1.369 1_655 S
C914 C916 1.419 . S
C914 H918 0.930 . S
C915 C914 1.369 1_455 S
C915 C924 1.429 . S
C916 C914 1.419 . S
C916 C917 1.363 . S
C916 H919 0.929 . S
C917 C916 1.363 . S
C917 C923 1.428 . S
H918 C914 0.930 . S
H919 C916 0.929 . S
S920 N921 1.613 . S
S920 N922 1.625 . S
N921 S920 1.613 . S
N921 C924 1.350 . S
N922 S920 1.625 . S
N922 C923 1.350 1_455 S
C923 C917 1.428 . S
C923 N922 1.350 1_655 S
C923 C924 1.434 1_655 S
C924 C915 1.429 . S
C924 N921 1.350 . S
C924 C923 1.434 1_455 S
C925 C926 1.369 . S
C925 C927 1.419 1_655 S
C925 H929 0.930 . S
C926 C925 1.369 . S
C926 C935 1.429 . S
C927 C925 1.419 1_455 S
C927 C928 1.363 . S
C927 H930 0.929 . S
C928 C927 1.363 . S
C928 C934 1.428 . S
H929 C925 0.930 . S
H930 C927 0.929 . S
S931 N932 1.613 1_455 S
S931 N933 1.610 . S
N932 S931 1.613 1_655 S
N932 C935 1.350 . S
N933 S931 1.610 . S
N933 C934 1.351 . S
C934 C928 1.428 . S
C934 N933 1.351 . S
C934 C935 1.434 1_455 S
C935 C926 1.429 . S
C935 N932 1.350 . S
C935 C934 1.434 1_655 S
C936 C937 1.369 . S
C936 C938 1.419 . S
C936 H940 0.930 . S
C937 C936 1.369 . S
C937 C946 1.429 . S
C938 C936 1.419 . S
C938 C939 1.363 . S
C938 H941 0.929 . S
C939 C938 1.363 . S
C939 C945 1.428 . S
H940 C936 0.930 . S
H941 C938 0.929 . S
S942 N943 1.613 . S
S942 N944 1.610 . S
N943 S942 1.613 . S
N943 C946 1.350 . S
N944 S942 1.610 . S
N944 C945 1.351 . S
C945 C939 1.428 . S
C945 N944 1.351 . S
C945 C946 1.434 . S
C946 C937 1.429 . S
C946 N943 1.350 . S
C946 C945 1.434 . S
C947 C948 1.369 . S
C947 C949 1.419 . S
C947 H951 0.930 . S
C948 C947 1.369 . S
C948 C957 1.429 . S
C949 C947 1.419 . S
C949 C950 1.363 . S
C949 H952 0.929 . S
C950 C949 1.363 . S
C950 C956 1.428 . S
H951 C947 0.930 . S
H952 C949 0.929 . S
S953 N954 1.613 1_565 S
S953 N955 1.610 1_565 S
N954 S953 1.613 1_545 S
N954 C957 1.350 . S
N955 S953 1.610 1_545 S
N955 C956 1.351 . S
C956 C950 1.428 . S
C956 N955 1.351 . S
C956 C957 1.434 . S
C957 C948 1.429 . S
C957 N954 1.350 . S
C957 C956 1.434 . S
C958 C959 1.369 . S
C958 C960 1.419 . S
C958 H962 0.930 . S
C959 C958 1.369 . S
C959 C968 1.429 . S
C960 C958 1.419 . S
C960 C961 1.363 . S
C960 H963 0.929 . S
C961 C960 1.363 . S
C961 C967 1.428 . S
H962 C958 0.930 . S
H963 C960 0.929 . S
S964 N965 1.613 . S
S964 N966 1.610 . S
N965 S964 1.613 . S
N965 C968 1.350 . S
N966 S964 1.610 . S
N966 C967 1.351 . S
C967 C961 1.428 . S
C967 N966 1.351 . S
C967 C968 1.434 . S
C968 C959 1.429 . S
C968 N965 1.350 . S
C968 C967 1.434 . S
C969 C970 1.369 . S
C969 C971 1.419 . S
C969 H973 0.930 . S
C970 C969 1.369 . S
C970 C979 1.429 . S
C971 C969 1.419 . S
C971 C972 1.363 . S
C971 H974 0.929 . S
C972 C971 1.363 . S
C972 C978 1.428 . S
H973 C969 0.930 . S
H974 C971 0.929 . S
S975 N976 1.613 . S
S975 N977 1.610 . S
N976 S975 1.613 . S
N976 C979 1.350 . S
N977 S975 1.610 . S
N977 C978 1.351 . S
C978 C972 1.428 . S
C978 N977 1.351 . S
C978 C979 1.434 . S
C979 C970 1.429 . S
C979 N976 1.350 . S
C979 C978 1.434 . S
C980 C981 1.369 . S
C980 C982 1.419 . S
C980 H984 0.930 . S
C981 C980 1.369 . S
C981 C990 1.429 . S
C982 C980 1.419 . S
C982 C983 1.363 . S
C982 H985 0.929 . S
C983 C982 1.363 . S
C983 C989 1.428 . S
H984 C980 0.930 . S
H985 C982 0.929 . S
S986 N987 1.613 . S
S986 N988 1.610 . S
N987 S986 1.613 . S
N987 C990 1.350 . S
N988 S986 1.610 . S
N988 C989 1.351 . S
C989 C983 1.428 . S
C989 N988 1.351 . S
C989 C990 1.434 . S
C990 C981 1.429 . S
C990 N987 1.350 . S
C990 C989 1.434 . S
C991 C992 1.369 . S
C991 C993 1.419 . S
C991 H995 0.930 . S
C992 C991 1.369 . S
C992 C1001 1.429 . S
C993 C991 1.419 . S
C993 C994 1.363 . S
C993 H996 0.929 . S
C994 C993 1.363 . S
C994 C1000 1.428 . S
H995 C991 0.930 . S
H996 C993 0.929 . S
S997 N998 1.613 . S
S997 N999 1.610 . S
N998 S997 1.613 . S
N998 C1001 1.350 . S
N999 S997 1.610 . S
N999 C1000 1.351 . S
C1000 C994 1.428 . S
C1000 N999 1.351 . S
C1000 C1001 1.434 . S
C1001 C992 1.429 . S
C1001 N998 1.350 . S
C1001 C1000 1.434 . S
C1002 C1003 1.369 . S
C1002 C1004 1.419 . S
C1002 H1006 0.930 . S
C1003 C1002 1.369 . S
C1003 C1012 1.429 . S
C1004 C1002 1.419 . S
C1004 C1005 1.363 . S
C1004 H1007 0.929 . S
C1005 C1004 1.363 . S
C1005 C1011 1.428 . S
H1006 C1002 0.930 . S
H1007 C1004 0.929 . S
S1008 N1009 1.613 . S
S1008 N1010 1.610 . S
N1009 S1008 1.613 . S
N1009 C1012 1.350 . S
N1010 S1008 1.610 . S
N1010 C1011 1.351 . S
C1011 C1005 1.428 . S
C1011 N1010 1.351 . S
C1011 C1012 1.434 . S
C1012 C1003 1.429 . S
C1012 N1009 1.350 . S
C1012 C1011 1.434 . S
C1013 C1014 1.369 . S
C1013 C1015 1.419 . S
C1013 H1017 0.930 . S
C1014 C1013 1.369 . S
C1014 C1023 1.429 . S
C1015 C1013 1.419 . S
C1015 C1016 1.363 . S
C1015 H1018 0.929 . S
C1016 C1015 1.363 . S
C1016 C1022 1.428 . S
H1017 C1013 0.930 . S
H1018 C1015 0.929 . S
S1019 N1020 1.613 . S
S1019 N1021 1.610 . S
N1020 S1019 1.613 . S
N1020 C1023 1.350 . S
N1021 S1019 1.610 . S
N1021 C1022 1.351 . S
C1022 C1016 1.428 . S
C1022 N1021 1.351 . S
C1022 C1023 1.434 . S
C1023 C1014 1.429 . S
C1023 N1020 1.350 . S
C1023 C1022 1.434 . S
C1024 C1025 1.369 . S
C1024 C1026 1.419 . S
C1024 H1028 0.930 . S
C1025 C1024 1.369 . S
C1025 C1034 1.429 . S
C1026 C1024 1.419 . S
C1026 C1027 1.363 . S
C1026 H1029 0.929 . S
C1027 C1026 1.363 . S
C1027 C1033 1.428 . S
H1028 C1024 0.930 . S
H1029 C1026 0.929 . S
S1030 N1031 1.613 . S
S1030 N1032 1.610 . S
N1031 S1030 1.613 . S
N1031 C1034 1.350 . S
N1032 S1030 1.610 . S
N1032 C1033 1.351 . S
C1033 C1027 1.428 . S
C1033 N1032 1.351 . S
C1033 C1034 1.434 . S
C1034 C1025 1.429 . S
C1034 N1031 1.350 . S
C1034 C1033 1.434 . S
C1035 C1036 1.369 1_545 S
C1035 C1037 1.419 . S
C1035 H1039 0.945 . S
C1036 C1035 1.369 1_565 S
C1036 C1045 1.429 1_565 S
C1037 C1035 1.419 . S
C1037 C1038 1.363 . S
C1037 H1040 0.942 . S
C1038 C1037 1.363 . S
C1038 C1044 1.428 . S
H1039 C1035 0.945 . S
H1040 C1037 0.942 . S
S1041 N1042 1.613 1_545 S
S1041 N1043 1.610 . S
N1042 S1041 1.613 1_565 S
N1042 C1045 1.350 1_565 S
N1043 S1041 1.610 . S
N1043 C1044 1.351 . S
C1044 C1038 1.428 . S
C1044 N1043 1.351 . S
C1044 C1045 1.434 . S
C1045 C1036 1.429 1_545 S
C1045 N1042 1.350 1_545 S
C1045 C1044 1.434 . S
C1046 C1047 1.369 . S
C1046 C1048 1.419 . S
C1046 H1050 0.930 . S
C1047 C1046 1.369 . S
C1047 C1056 1.429 . S
C1048 C1046 1.419 . S
C1048 C1049 1.363 . S
C1048 H1051 0.929 . S
C1049 C1048 1.363 . S
C1049 C1055 1.428 . S
H1050 C1046 0.930 . S
H1051 C1048 0.929 . S
S1052 N1053 1.613 . S
S1052 N1054 1.610 . S
N1053 S1052 1.613 . S
N1053 C1056 1.350 . S
N1054 S1052 1.610 . S
N1054 C1055 1.351 . S
C1055 C1049 1.428 . S
C1055 N1054 1.351 . S
C1055 C1056 1.434 . S
C1056 C1047 1.429 . S
C1056 N1053 1.350 . S
C1056 C1055 1.434 . S
C1057 C1058 1.369 . S
C1057 C1059 1.419 . S
C1057 H1061 0.930 . S
C1058 C1057 1.369 . S
C1058 C1067 1.429 . S
C1059 C1057 1.419 . S
C1059 C1060 1.363 . S
C1059 H1062 0.929 . S
C1060 C1059 1.363 . S
C1060 C1066 1.428 . S
H1061 C1057 0.930 . S
H1062 C1059 0.929 . S
S1063 N1064 1.613 . S
S1063 N1065 1.610 . S
N1064 S1063 1.613 . S
N1064 C1067 1.350 . S
N1065 S1063 1.610 . S
N1065 C1066 1.351 . S
C1066 C1060 1.428 . S
C1066 N1065 1.351 . S
C1066 C1067 1.434 . S
C1067 C1058 1.429 . S
C1067 N1064 1.350 . S
C1067 C1066 1.434 . S
C1068 C1069 1.369 . S
C1068 C1070 1.419 . S
C1068 H1072 0.930 . S
C1069 C1068 1.369 . S
C1069 C1078 1.429 . S
C1070 C1068 1.419 . S
C1070 C1071 1.363 . S
C1070 H1073 0.929 . S
C1071 C1070 1.363 . S
C1071 C1077 1.428 . S
H1072 C1068 0.930 . S
H1073 C1070 0.929 . S
S1074 N1075 1.613 . S
S1074 N1076 1.610 . S
N1075 S1074 1.613 . S
N1075 C1078 1.350 . S
N1076 S1074 1.610 . S
N1076 C1077 1.351 . S
C1077 C1071 1.428 . S
C1077 N1076 1.351 . S
C1077 C1078 1.434 . S
C1078 C1069 1.429 . S
C1078 N1075 1.350 . S
C1078 C1077 1.434 . S
C1079 C1080 1.369 . S
C1079 C1081 1.419 1_565 S
C1079 H1083 0.930 . S
C1080 C1079 1.369 . S
C1080 C1089 1.429 1_565 S
C1081 C1079 1.419 1_545 S
C1081 C1082 1.363 . S
C1081 H1084 0.929 . S
C1082 C1081 1.363 . S
C1082 C1088 1.428 . S
H1083 C1079 0.930 . S
H1084 C1081 0.929 . S
S1085 N1086 1.613 . S
S1085 N1087 1.610 . S
N1086 S1085 1.613 . S
N1086 C1089 1.350 . S
N1087 S1085 1.610 . S
N1087 C1088 1.351 . S
C1088 C1082 1.428 . S
C1088 N1087 1.351 . S
C1088 C1089 1.434 . S
C1089 C1080 1.429 1_545 S
C1089 N1086 1.350 . S
C1089 C1088 1.434 . S
C1090 C1091 1.369 . S
C1090 C1092 1.419 . S
C1090 H1094 0.930 . S
C1091 C1090 1.369 . S
C1091 C1100 1.429 . S
C1092 C1090 1.419 . S
C1092 C1093 1.363 . S
C1092 H1095 0.929 . S
C1093 C1092 1.363 . S
C1093 C1099 1.428 . S
H1094 C1090 0.930 . S
H1095 C1092 0.929 . S
S1096 N1097 1.613 . S
S1096 N1098 1.610 . S
N1097 S1096 1.613 . S
N1097 C1100 1.350 . S
N1098 S1096 1.610 . S
N1098 C1099 1.351 . S
C1099 C1093 1.428 . S
C1099 N1098 1.351 . S
C1099 C1100 1.434 . S
C1100 C1091 1.429 . S
C1100 N1097 1.350 . S
C1100 C1099 1.434 . S
C1101 C1102 1.369 . S
C1101 C1103 1.419 . S
C1101 H1105 0.930 . S
C1102 C1101 1.369 . S
C1102 C1111 1.429 . S
C1103 C1101 1.419 . S
C1103 C1104 1.363 . S
C1103 H1106 0.929 . S
C1104 C1103 1.363 . S
C1104 C1110 1.428 . S
H1105 C1101 0.930 . S
H1106 C1103 0.929 . S
S1107 N1108 1.613 . S
S1107 N1109 1.610 . S
N1108 S1107 1.613 . S
N1108 C1111 1.350 . S
N1109 S1107 1.610 . S
N1109 C1110 1.351 . S
C1110 C1104 1.428 . S
C1110 N1109 1.351 . S
C1110 C1111 1.434 . S
C1111 C1102 1.429 . S
C1111 N1108 1.350 . S
C1111 C1110 1.434 . S
C1112 C1113 1.369 . S
C1112 C1114 1.419 . S
C1112 H1116 0.930 . S
C1113 C1112 1.369 . S
C1113 C1122 1.429 . S
C1114 C1112 1.419 . S
C1114 C1115 1.363 . S
C1114 H1117 0.929 . S
C1115 C1114 1.363 . S
C1115 C1121 1.428 . S
H1116 C1112 0.930 . S
H1117 C1114 0.929 . S
S1118 N1119 1.613 . S
S1118 N1120 1.610 . S
N1119 S1118 1.613 . S
N1119 C1122 1.350 . S
N1120 S1118 1.610 . S
N1120 C1121 1.351 . S
C1121 C1115 1.428 . S
C1121 N1120 1.351 . S
C1121 C1122 1.434 . S
C1122 C1113 1.429 . S
C1122 N1119 1.350 . S
C1122 C1121 1.434 . S
C1123 C1124 1.369 . S
C1123 C1125 1.419 . S
C1123 H1127 0.930 . S
C1124 C1123 1.369 . S
C1124 C1133 1.429 . S
C1125 C1123 1.419 . S
C1125 C1126 1.363 . S
C1125 H1128 0.929 . S
C1126 C1125 1.363 . S
C1126 C1132 1.428 . S
H1127 C1123 0.930 . S
H1128 C1125 0.929 . S
S1129 N1130 1.613 . S
S1129 N1131 1.610 . S
N1130 S1129 1.613 . S
N1130 C1133 1.350 . S
N1131 S1129 1.610 . S
N1131 C1132 1.351 . S
C1132 C1126 1.428 . S
C1132 N1131 1.351 . S
C1132 C1133 1.434 . S
C1133 C1124 1.429 . S
C1133 N1130 1.350 . S
C1133 C1132 1.434 . S
C1134 C1135 1.369 . S
C1134 C1136 1.419 . S
C1134 H1138 0.930 . S
C1135 C1134 1.369 . S
C1135 C1144 1.429 . S
C1136 C1134 1.419 . S
C1136 C1137 1.363 . S
C1136 H1139 0.929 . S
C1137 C1136 1.363 . S
C1137 C1143 1.428 . S
H1138 C1134 0.930 . S
H1139 C1136 0.929 . S
S1140 N1141 1.613 . S
S1140 N1142 1.610 . S
N1141 S1140 1.613 . S
N1141 C1144 1.350 . S
N1142 S1140 1.610 . S
N1142 C1143 1.351 . S
C1143 C1137 1.428 . S
C1143 N1142 1.351 . S
C1143 C1144 1.434 . S
C1144 C1135 1.429 . S
C1144 N1141 1.350 . S
C1144 C1143 1.434 . S
C1145 C1146 1.369 . S
C1145 C1147 1.419 . S
C1145 H1149 0.930 . S
C1146 C1145 1.369 . S
C1146 C1155 1.429 . S
C1147 C1145 1.419 . S
C1147 C1148 1.363 . S
C1147 H1150 0.929 . S
C1148 C1147 1.363 . S
C1148 C1154 1.428 . S
H1149 C1145 0.930 . S
H1150 C1147 0.929 . S
S1151 N1152 1.613 . S
S1151 N1153 1.610 . S
N1152 S1151 1.613 . S
N1152 C1155 1.350 . S
N1153 S1151 1.610 . S
N1153 C1154 1.351 . S
C1154 C1148 1.428 . S
C1154 N1153 1.351 . S
C1154 C1155 1.434 . S
C1155 C1146 1.429 . S
C1155 N1152 1.350 . S
C1155 C1154 1.434 . S
C1156 C1157 1.369 . S
C1156 C1158 1.419 . S
C1156 H1160 0.930 . S
C1157 C1156 1.369 . S
C1157 C1166 1.429 1_455 S
C1158 C1156 1.419 . S
C1158 C1159 1.363 1_455 S
C1158 H1161 0.929 . S
C1159 C1158 1.363 1_655 S
C1159 C1165 1.428 . S
H1160 C1156 0.930 . S
H1161 C1158 0.929 . S
S1162 N1163 1.613 . S
S1162 N1164 1.610 . S
N1163 S1162 1.613 . S
N1163 C1166 1.350 . S
N1164 S1162 1.610 . S
N1164 C1165 1.351 . S
C1165 C1159 1.428 . S
C1165 N1164 1.351 . S
C1165 C1166 1.434 . S
C1166 C1157 1.429 1_655 S
C1166 N1163 1.350 . S
C1166 C1165 1.434 . S
C1167 C1168 1.369 . S
C1167 C1169 1.419 . S
C1167 H1171 0.930 . S
C1168 C1167 1.369 . S
C1168 C1177 1.429 . S
C1169 C1167 1.419 . S
C1169 C1170 1.363 . S
C1169 H1172 0.929 . S
C1170 C1169 1.363 . S
C1170 C1176 1.428 . S
H1171 C1167 0.930 . S
H1172 C1169 0.929 . S
S1173 N1174 1.613 . S
S1173 N1175 1.610 . S
N1174 S1173 1.613 . S
N1174 C1177 1.350 . S
N1175 S1173 1.610 . S
N1175 C1176 1.351 . S
C1176 C1170 1.428 . S
C1176 N1175 1.351 . S
C1176 C1177 1.434 . S
C1177 C1168 1.429 . S
C1177 N1174 1.350 . S
C1177 C1176 1.434 . S
C1178 C1179 1.369 . S
C1178 C1180 1.419 . S
C1178 H1182 0.930 . S
C1179 C1178 1.369 . S
C1179 C1188 1.429 . S
C1180 C1178 1.419 . S
C1180 C1181 1.363 . S
C1180 H1183 0.929 . S
C1181 C1180 1.363 . S
C1181 C1187 1.428 . S
H1182 C1178 0.930 . S
H1183 C1180 0.929 . S
S1184 N1185 1.612 1_556 S
S1184 N1186 1.605 1_556 S
N1185 S1184 1.612 1_554 S
N1185 C1188 1.350 . S
N1186 S1184 1.605 1_554 S
N1186 C1187 1.351 . S
C1187 C1181 1.428 . S
C1187 N1186 1.351 . S
C1187 C1188 1.434 . S
C1188 C1179 1.429 . S
C1188 N1185 1.350 . S
C1188 C1187 1.434 . S
C1189 C1190 1.369 . S
C1189 C1191 1.419 . S
C1189 H1193 0.930 . S
C1190 C1189 1.369 . S
C1190 C1199 1.429 . S
C1191 C1189 1.419 . S
C1191 C1192 1.363 . S
C1191 H1194 0.929 . S
C1192 C1191 1.363 . S
C1192 C1198 1.428 . S
H1193 C1189 0.930 . S
H1194 C1191 0.929 . S
S1195 N1196 1.613 1_556 S
S1195 N1197 1.610 . S
N1196 S1195 1.613 1_554 S
N1196 C1199 1.350 . S
N1197 S1195 1.610 . S
N1197 C1198 1.351 1_556 S
C1198 C1192 1.428 . S
C1198 N1197 1.351 1_554 S
C1198 C1199 1.434 . S
C1199 C1190 1.429 . S
C1199 N1196 1.350 . S
C1199 C1198 1.434 . S
C1200 C1201 1.369 . S
C1200 C1202 1.419 . S
C1200 H1204 0.930 . S
C1201 C1200 1.369 . S
C1201 C1210 1.429 . S
C1202 C1200 1.419 . S
C1202 C1203 1.363 . S
C1202 H1205 0.929 . S
C1203 C1202 1.363 . S
C1203 C1209 1.428 . S
H1204 C1200 0.930 . S
H1205 C1202 0.929 . S
S1206 N1207 1.613 . S
S1206 N1208 1.610 . S
N1207 S1206 1.613 . S
N1207 C1210 1.350 . S
N1208 S1206 1.610 . S
N1208 C1209 1.351 . S
C1209 C1203 1.428 . S
C1209 N1208 1.351 . S
C1209 C1210 1.434 . S
C1210 C1201 1.429 . S
C1210 N1207 1.350 . S
C1210 C1209 1.434 . S
C1211 C1212 1.369 . S
C1211 C1213 1.419 . S
C1211 H1215 0.930 . S
C1212 C1211 1.369 . S
C1212 C1221 1.429 . S
C1213 C1211 1.419 . S
C1213 C1214 1.363 . S
C1213 H1216 0.929 . S
C1214 C1213 1.363 . S
C1214 C1220 1.428 . S
H1215 C1211 0.930 . S
H1216 C1213 0.929 . S
S1217 N1218 1.613 . S
S1217 N1219 1.610 . S
N1218 S1217 1.613 . S
N1218 C1221 1.350 . S
N1219 S1217 1.610 . S
N1219 C1220 1.351 . S
C1220 C1214 1.428 . S
C1220 N1219 1.351 . S
C1220 C1221 1.434 . S
C1221 C1212 1.429 . S
C1221 N1218 1.350 . S
C1221 C1220 1.434 . S
C1222 C1223 1.369 . S
C1222 C1224 1.419 . S
C1222 H1226 0.930 . S
C1223 C1222 1.369 . S
C1223 C1232 1.429 . S
C1224 C1222 1.419 . S
C1224 C1225 1.363 . S
C1224 H1227 0.929 . S
C1225 C1224 1.363 . S
C1225 C1231 1.428 . S
H1226 C1222 0.930 . S
H1227 C1224 0.929 . S
S1228 N1229 1.613 . S
S1228 N1230 1.610 . S
N1229 S1228 1.613 . S
N1229 C1232 1.350 . S
N1230 S1228 1.610 . S
N1230 C1231 1.351 . S
C1231 C1225 1.428 . S
C1231 N1230 1.351 . S
C1231 C1232 1.434 . S
C1232 C1223 1.429 . S
C1232 N1229 1.350 . S
C1232 C1231 1.434 . S
C1233 C1234 1.369 . S
C1233 C1235 1.419 . S
C1233 H1237 0.930 . S
C1234 C1233 1.369 . S
C1234 C1243 1.429 . S
C1235 C1233 1.419 . S
C1235 C1236 1.363 . S
C1235 H1238 0.929 . S
C1236 C1235 1.363 . S
C1236 C1242 1.428 . S
H1237 C1233 0.930 . S
H1238 C1235 0.929 . S
S1239 N1240 1.613 . S
S1239 N1241 1.610 . S
N1240 S1239 1.613 . S
N1240 C1243 1.350 . S
N1241 S1239 1.610 . S
N1241 C1242 1.351 . S
C1242 C1236 1.428 . S
C1242 N1241 1.351 . S
C1242 C1243 1.434 . S
C1243 C1234 1.429 . S
C1243 N1240 1.350 . S
C1243 C1242 1.434 . S
C1244 C1245 1.369 . S
C1244 C1246 1.419 . S
C1244 H1248 0.930 . S
C1245 C1244 1.369 . S
C1245 C1254 1.429 . S
C1246 C1244 1.419 . S
C1246 C1247 1.363 . S
C1246 H1249 0.929 . S
C1247 C1246 1.363 . S
C1247 C1253 1.428 . S
H1248 C1244 0.930 . S
H1249 C1246 0.929 . S
S1250 N1251 1.613 . S
S1250 N1252 1.610 . S
N1251 S1250 1.613 . S
N1251 C1254 1.350 . S
N1252 S1250 1.610 . S
N1252 C1253 1.351 . S
C1253 C1247 1.428 . S
C1253 N1252 1.351 . S
C1253 C1254 1.434 . S
C1254 C1245 1.429 . S
C1254 N1251 1.350 . S
C1254 C1253 1.434 . S
C1255 C1256 1.369 . S
C1255 C1257 1.419 . S
C1255 H1259 0.930 . S
C1256 C1255 1.369 . S
C1256 C1265 1.429 . S
C1257 C1255 1.419 . S
C1257 C1258 1.363 . S
C1257 H1260 0.929 . S
C1258 C1257 1.363 . S
C1258 C1264 1.428 . S
H1259 C1255 0.930 . S
H1260 C1257 0.929 . S
S1261 N1262 1.613 . S
S1261 N1263 1.610 . S
N1262 S1261 1.613 . S
N1262 C1265 1.350 . S
N1263 S1261 1.610 . S
N1263 C1264 1.351 . S
C1264 C1258 1.428 . S
C1264 N1263 1.351 . S
C1264 C1265 1.434 . S
C1265 C1256 1.429 . S
C1265 N1262 1.350 . S
C1265 C1264 1.434 . S
C1266 C1267 1.369 . S
C1266 C1268 1.419 . S
C1266 H1270 0.930 . S
C1267 C1266 1.369 . S
C1267 C1276 1.429 . S
C1268 C1266 1.419 . S
C1268 C1269 1.363 . S
C1268 H1271 0.929 . S
C1269 C1268 1.363 . S
C1269 C1275 1.428 . S
H1270 C1266 0.930 . S
H1271 C1268 0.929 . S
S1272 N1273 1.613 . S
S1272 N1274 1.610 . S
N1273 S1272 1.613 . S
N1273 C1276 1.350 . S
N1274 S1272 1.610 . S
N1274 C1275 1.351 . S
C1275 C1269 1.428 . S
C1275 N1274 1.351 . S
C1275 C1276 1.434 . S
C1276 C1267 1.429 . S
C1276 N1273 1.350 . S
C1276 C1275 1.434 . S
C1277 C1278 1.369 . S
C1277 C1279 1.419 . S
C1277 H1281 0.930 . S
C1278 C1277 1.369 . S
C1278 C1287 1.429 . S
C1279 C1277 1.419 . S
C1279 C1280 1.363 . S
C1279 H1282 0.929 . S
C1280 C1279 1.363 . S
C1280 C1286 1.428 . S
H1281 C1277 0.930 . S
H1282 C1279 0.929 . S
S1283 N1284 1.613 . S
S1283 N1285 1.610 . S
N1284 S1283 1.613 . S
N1284 C1287 1.350 . S
N1285 S1283 1.610 . S
N1285 C1286 1.351 . S
C1286 C1280 1.428 . S
C1286 N1285 1.351 . S
C1286 C1287 1.434 . S
C1287 C1278 1.429 . S
C1287 N1284 1.350 . S
C1287 C1286 1.434 . S
C1288 C1289 1.369 . S
C1288 C1290 1.419 . S
C1288 H1292 0.930 . S
C1289 C1288 1.369 . S
C1289 C1298 1.429 . S
C1290 C1288 1.419 . S
C1290 C1291 1.363 . S
C1290 H1293 0.929 . S
C1291 C1290 1.363 . S
C1291 C1297 1.428 . S
H1292 C1288 0.930 . S
H1293 C1290 0.929 . S
S1294 N1295 1.613 . S
S1294 N1296 1.610 . S
N1295 S1294 1.613 . S
N1295 C1298 1.350 . S
N1296 S1294 1.610 . S
N1296 C1297 1.351 . S
C1297 C1291 1.428 . S
C1297 N1296 1.351 . S
C1297 C1298 1.434 . S
C1298 C1289 1.429 . S
C1298 N1295 1.350 . S
C1298 C1297 1.434 . S
C1299 C1300 1.369 . S
C1299 C1301 1.419 . S
C1299 H1303 0.930 . S
C1300 C1299 1.369 . S
C1300 C1309 1.429 . S
C1301 C1299 1.419 . S
C1301 C1302 1.363 . S
C1301 H1304 0.929 . S
C1302 C1301 1.363 . S
C1302 C1308 1.428 . S
H1303 C1299 0.930 . S
H1304 C1301 0.929 . S
S1305 N1306 1.613 . S
S1305 N1307 1.610 . S
N1306 S1305 1.613 . S
N1306 C1309 1.350 . S
N1307 S1305 1.610 . S
N1307 C1308 1.351 . S
C1308 C1302 1.428 . S
C1308 N1307 1.351 . S
C1308 C1309 1.434 . S
C1309 C1300 1.429 . S
C1309 N1306 1.350 . S
C1309 C1308 1.434 . S
C1310 C1311 1.369 . S
C1310 C1312 1.419 . S
C1310 H1314 0.930 . S
C1311 C1310 1.369 . S
C1311 C1320 1.429 . S
C1312 C1310 1.419 . S
C1312 C1313 1.363 . S
C1312 H1315 0.929 . S
C1313 C1312 1.363 . S
C1313 C1319 1.428 . S
H1314 C1310 0.930 . S
H1315 C1312 0.929 . S
S1316 N1317 1.613 . S
S1316 N1318 1.610 . S
N1317 S1316 1.613 . S
N1317 C1320 1.350 . S
N1318 S1316 1.610 . S
N1318 C1319 1.351 . S
C1319 C1313 1.428 . S
C1319 N1318 1.351 . S
C1319 C1320 1.434 . S
C1320 C1311 1.429 . S
C1320 N1317 1.350 . S
C1320 C1319 1.434 . S
C1321 C1322 1.369 . S
C1321 C1323 1.419 . S
C1321 H1325 0.930 . S
C1322 C1321 1.369 . S
C1322 C1331 1.429 . S
C1323 C1321 1.419 . S
C1323 C1324 1.363 . S
C1323 H1326 0.929 . S
C1324 C1323 1.363 . S
C1324 C1330 1.428 . S
H1325 C1321 0.930 . S
H1326 C1323 0.929 . S
S1327 N1328 1.613 . S
S1327 N1329 1.610 . S
N1328 S1327 1.613 . S
N1328 C1331 1.350 . S
N1329 S1327 1.610 . S
N1329 C1330 1.351 . S
C1330 C1324 1.428 . S
C1330 N1329 1.351 . S
C1330 C1331 1.434 . S
C1331 C1322 1.429 . S
C1331 N1328 1.350 . S
C1331 C1330 1.434 . S
C1332 C1333 1.369 . S
C1332 C1334 1.419 . S
C1332 H1336 0.930 . S
C1333 C1332 1.369 . S
C1333 C1342 1.429 . S
C1334 C1332 1.419 . S
C1334 C1335 1.363 . S
C1334 H1337 0.929 . S
C1335 C1334 1.363 . S
C1335 C1341 1.428 . S
H1336 C1332 0.930 . S
H1337 C1334 0.929 . S
S1338 N1339 1.613 . S
S1338 N1340 1.610 . S
N1339 S1338 1.613 . S
N1339 C1342 1.350 . S
N1340 S1338 1.610 . S
N1340 C1341 1.351 . S
C1341 C1335 1.428 . S
C1341 N1340 1.351 . S
C1341 C1342 1.434 . S
C1342 C1333 1.429 . S
C1342 N1339 1.350 . S
C1342 C1341 1.434 . S
C1343 C1344 1.369 . S
C1343 C1345 1.419 . S
C1343 H1347 0.930 . S
C1344 C1343 1.369 . S
C1344 C1353 1.429 . S
C1345 C1343 1.419 . S
C1345 C1346 1.363 . S
C1345 H1348 0.929 . S
C1346 C1345 1.363 . S
C1346 C1352 1.428 . S
H1347 C1343 0.930 . S
H1348 C1345 0.929 . S
S1349 N1350 1.613 . S
S1349 N1351 1.610 . S
N1350 S1349 1.613 . S
N1350 C1353 1.350 . S
N1351 S1349 1.610 . S
N1351 C1352 1.351 . S
C1352 C1346 1.428 . S
C1352 N1351 1.351 . S
C1352 C1353 1.434 . S
C1353 C1344 1.429 . S
C1353 N1350 1.350 . S
C1353 C1352 1.434 . S
C1354 C1355 1.369 . S
C1354 C1356 1.419 . S
C1354 H1358 0.930 . S
C1355 C1354 1.369 . S
C1355 C1364 1.429 . S
C1356 C1354 1.419 . S
C1356 C1357 1.363 . S
C1356 H1359 0.929 . S
C1357 C1356 1.363 . S
C1357 C1363 1.428 . S
H1358 C1354 0.930 . S
H1359 C1356 0.929 . S
S1360 N1361 1.613 . S
S1360 N1362 1.610 . S
N1361 S1360 1.613 . S
N1361 C1364 1.350 . S
N1362 S1360 1.610 . S
N1362 C1363 1.351 . S
C1363 C1357 1.428 . S
C1363 N1362 1.351 . S
C1363 C1364 1.434 . S
C1364 C1355 1.429 . S
C1364 N1361 1.350 . S
C1364 C1363 1.434 . S
C1365 C1366 1.369 . S
C1365 C1367 1.419 . S
C1365 H1369 0.930 . S
C1366 C1365 1.369 . S
C1366 C1375 1.429 . S
C1367 C1365 1.419 . S
C1367 C1368 1.363 . S
C1367 H1370 0.929 . S
C1368 C1367 1.363 . S
C1368 C1374 1.428 . S
H1369 C1365 0.930 . S
H1370 C1367 0.929 . S
S1371 N1372 1.613 . S
S1371 N1373 1.610 . S
N1372 S1371 1.613 . S
N1372 C1375 1.350 . S
N1373 S1371 1.610 . S
N1373 C1374 1.351 . S
C1374 C1368 1.428 . S
C1374 N1373 1.351 . S
C1374 C1375 1.434 . S
C1375 C1366 1.429 . S
C1375 N1372 1.350 . S
C1375 C1374 1.434 . S
C1376 C1377 1.369 . S
C1376 C1378 1.419 . S
C1376 H1380 0.930 . S
C1377 C1376 1.369 . S
C1377 C1386 1.429 . S
C1378 C1376 1.419 . S
C1378 C1379 1.363 . S
C1378 H1381 0.929 . S
C1379 C1378 1.363 . S
C1379 C1385 1.428 . S
H1380 C1376 0.930 . S
H1381 C1378 0.929 . S
S1382 N1383 1.613 . S
S1382 N1384 1.610 . S
N1383 S1382 1.613 . S
N1383 C1386 1.350 . S
N1384 S1382 1.610 . S
N1384 C1385 1.351 . S
C1385 C1379 1.428 . S
C1385 N1384 1.351 . S
C1385 C1386 1.434 . S
C1386 C1377 1.429 . S
C1386 N1383 1.350 . S
C1386 C1385 1.434 . S
C1387 C1388 1.369 . S
C1387 C1389 1.419 . S
C1387 H1391 0.930 . S
C1388 C1387 1.369 . S
C1388 C1397 1.429 . S
C1389 C1387 1.419 . S
C1389 C1390 1.363 . S
C1389 H1392 0.929 . S
C1390 C1389 1.363 . S
C1390 C1396 1.428 . S
H1391 C1387 0.930 . S
H1392 C1389 0.929 . S
S1393 N1394 1.613 . S
S1393 N1395 1.610 . S
N1394 S1393 1.613 . S
N1394 C1397 1.350 . S
N1395 S1393 1.610 . S
N1395 C1396 1.351 . S
C1396 C1390 1.428 . S
C1396 N1395 1.351 . S
C1396 C1397 1.434 . S
C1397 C1388 1.429 . S
C1397 N1394 1.350 . S
C1397 C1396 1.434 . S
C1398 C1399 1.369 . S
C1398 C1400 1.419 . S
C1398 H1402 0.930 . S
C1399 C1398 1.369 . S
C1399 C1408 1.429 . S
C1400 C1398 1.419 . S
C1400 C1401 1.363 . S
C1400 H1403 0.929 . S
C1401 C1400 1.363 . S
C1401 C1407 1.428 . S
H1402 C1398 0.930 . S
H1403 C1400 0.929 . S
S1404 N1405 1.613 . S
S1404 N1406 1.610 . S
N1405 S1404 1.613 . S
N1405 C1408 1.350 . S
N1406 S1404 1.610 . S
N1406 C1407 1.351 . S
C1407 C1401 1.428 . S
C1407 N1406 1.351 . S
C1407 C1408 1.434 . S
C1408 C1399 1.429 . S
C1408 N1405 1.350 . S
C1408 C1407 1.434 . S
C1409 C1410 1.369 . S
C1409 C1411 1.419 . S
C1409 H1413 0.930 . S
C1410 C1409 1.369 . S
C1410 C1419 1.429 . S
C1411 C1409 1.419 . S
C1411 C1412 1.363 . S
C1411 H1414 0.929 . S
C1412 C1411 1.363 . S
C1412 C1418 1.428 . S
H1413 C1409 0.930 . S
H1414 C1411 0.929 . S
S1415 N1416 1.613 . S
S1415 N1417 1.610 . S
N1416 S1415 1.613 . S
N1416 C1419 1.350 . S
N1417 S1415 1.610 . S
N1417 C1418 1.351 . S
C1418 C1412 1.428 . S
C1418 N1417 1.351 . S
C1418 C1419 1.434 . S
C1419 C1410 1.429 . S
C1419 N1416 1.350 . S
C1419 C1418 1.434 . S
C1420 C1421 1.369 . S
C1420 C1422 1.419 . S
C1420 H1424 0.930 . S
C1421 C1420 1.369 . S
C1421 C1430 1.429 . S
C1422 C1420 1.419 . S
C1422 C1423 1.363 . S
C1422 H1425 0.929 . S
C1423 C1422 1.363 . S
C1423 C1429 1.428 . S
H1424 C1420 0.930 . S
H1425 C1422 0.929 . S
S1426 N1427 1.613 . S
S1426 N1428 1.610 . S
N1427 S1426 1.613 . S
N1427 C1430 1.350 . S
N1428 S1426 1.610 . S
N1428 C1429 1.351 . S
C1429 C1423 1.428 . S
C1429 N1428 1.351 . S
C1429 C1430 1.434 . S
C1430 C1421 1.429 . S
C1430 N1427 1.350 . S
C1430 C1429 1.434 . S
C1431 C1432 1.369 . S
C1431 C1433 1.419 . S
C1431 H1435 0.930 . S
C1432 C1431 1.369 . S
C1432 C1441 1.429 . S
C1433 C1431 1.419 . S
C1433 C1434 1.363 . S
C1433 H1436 0.929 . S
C1434 C1433 1.363 . S
C1434 C1440 1.428 . S
H1435 C1431 0.930 . S
H1436 C1433 0.929 . S
S1437 N1438 1.613 . S
S1437 N1439 1.610 . S
N1438 S1437 1.613 . S
N1438 C1441 1.350 . S
N1439 S1437 1.610 . S
N1439 C1440 1.351 . S
C1440 C1434 1.428 . S
C1440 N1439 1.351 . S
C1440 C1441 1.434 . S
C1441 C1432 1.429 . S
C1441 N1438 1.350 . S
C1441 C1440 1.434 . S
C1442 C1443 1.369 . S
C1442 C1444 1.419 . S
C1442 H1446 0.930 . S
C1443 C1442 1.369 . S
C1443 C1452 1.429 . S
C1444 C1442 1.419 . S
C1444 C1445 1.363 . S
C1444 H1447 0.929 . S
C1445 C1444 1.363 . S
C1445 C1451 1.428 . S
H1446 C1442 0.930 . S
H1447 C1444 0.929 . S
S1448 N1449 1.613 . S
S1448 N1450 1.610 . S
N1449 S1448 1.613 . S
N1449 C1452 1.350 . S
N1450 S1448 1.610 . S
N1450 C1451 1.351 . S
C1451 C1445 1.428 . S
C1451 N1450 1.351 . S
C1451 C1452 1.434 . S
C1452 C1443 1.429 . S
C1452 N1449 1.350 . S
C1452 C1451 1.434 . S
C1453 C1454 1.369 . S
C1453 C1455 1.419 . S
C1453 H1457 0.930 . S
C1454 C1453 1.369 . S
C1454 C1463 1.429 . S
C1455 C1453 1.419 . S
C1455 C1456 1.363 . S
C1455 H1458 0.929 . S
C1456 C1455 1.363 . S
C1456 C1462 1.428 . S
H1457 C1453 0.930 . S
H1458 C1455 0.929 . S
S1459 N1460 1.613 . S
S1459 N1461 1.610 . S
N1460 S1459 1.613 . S
N1460 C1463 1.350 . S
N1461 S1459 1.610 . S
N1461 C1462 1.351 . S
C1462 C1456 1.428 . S
C1462 N1461 1.351 . S
C1462 C1463 1.434 . S
C1463 C1454 1.429 . S
C1463 N1460 1.350 . S
C1463 C1462 1.434 . S
C1464 C1465 1.369 . S
C1464 C1466 1.419 . S
C1464 H1468 0.930 . S
C1465 C1464 1.369 . S
C1465 C1474 1.429 . S
C1466 C1464 1.419 . S
C1466 C1467 1.363 . S
C1466 H1469 0.929 . S
C1467 C1466 1.363 . S
C1467 C1473 1.428 . S
H1468 C1464 0.930 . S
H1469 C1466 0.929 . S
S1470 N1471 1.613 . S
S1470 N1472 1.610 . S
N1471 S1470 1.613 . S
N1471 C1474 1.350 . S
N1472 S1470 1.610 . S
N1472 C1473 1.351 . S
C1473 C1467 1.428 . S
C1473 N1472 1.351 . S
C1473 C1474 1.434 . S
C1474 C1465 1.429 . S
C1474 N1471 1.350 . S
C1474 C1473 1.434 . S
C1475 C1476 1.369 . S
C1475 C1477 1.419 . S
C1475 H1479 0.930 . S
C1476 C1475 1.369 . S
C1476 C1485 1.429 . S
C1477 C1475 1.419 . S
C1477 C1478 1.363 . S
C1477 H1480 0.929 . S
C1478 C1477 1.363 . S
C1478 C1484 1.428 . S
H1479 C1475 0.930 . S
H1480 C1477 0.929 . S
S1481 N1482 1.613 . S
S1481 N1483 1.610 . S
N1482 S1481 1.613 . S
N1482 C1485 1.350 . S
N1483 S1481 1.610 . S
N1483 C1484 1.351 . S
C1484 C1478 1.428 . S
C1484 N1483 1.351 . S
C1484 C1485 1.434 . S
C1485 C1476 1.429 . S
C1485 N1482 1.350 . S
C1485 C1484 1.434 . S
C1486 C1487 1.369 . S
C1486 C1488 1.419 . S
C1486 H1490 0.930 . S
C1487 C1486 1.369 . S
C1487 C1496 1.429 . S
C1488 C1486 1.419 . S
C1488 C1489 1.363 . S
C1488 H1491 0.929 . S
C1489 C1488 1.363 . S
C1489 C1495 1.428 . S
H1490 C1486 0.930 . S
H1491 C1488 0.929 . S
S1492 N1493 1.613 . S
S1492 N1494 1.610 . S
N1493 S1492 1.613 . S
N1493 C1496 1.350 . S
N1494 S1492 1.610 . S
N1494 C1495 1.351 . S
C1495 C1489 1.428 . S
C1495 N1494 1.351 . S
C1495 C1496 1.434 . S
C1496 C1487 1.429 . S
C1496 N1493 1.350 . S
C1496 C1495 1.434 . S
C1497 C1498 1.369 . S
C1497 C1499 1.419 . S
C1497 H1501 0.930 . S
C1498 C1497 1.369 . S
C1498 C1507 1.429 . S
C1499 C1497 1.419 . S
C1499 C1500 1.363 . S
C1499 H1502 0.929 . S
C1500 C1499 1.363 . S
C1500 C1506 1.428 . S
H1501 C1497 0.930 . S
H1502 C1499 0.929 . S
S1503 N1504 1.613 . S
S1503 N1505 1.610 . S
N1504 S1503 1.613 . S
N1504 C1507 1.350 . S
N1505 S1503 1.610 . S
N1505 C1506 1.351 . S
C1506 C1500 1.428 . S
C1506 N1505 1.351 . S
C1506 C1507 1.434 . S
C1507 C1498 1.429 . S
C1507 N1504 1.350 . S
C1507 C1506 1.434 . S
C1508 C1509 1.369 . S
C1508 C1510 1.419 . S
C1508 H1512 0.930 . S
C1509 C1508 1.369 . S
C1509 C1518 1.429 . S
C1510 C1508 1.419 . S
C1510 C1511 1.363 . S
C1510 H1513 0.929 . S
C1511 C1510 1.363 . S
C1511 C1517 1.428 . S
H1512 C1508 0.930 . S
H1513 C1510 0.929 . S
S1514 N1515 1.613 . S
S1514 N1516 1.610 . S
N1515 S1514 1.613 . S
N1515 C1518 1.350 . S
N1516 S1514 1.610 . S
N1516 C1517 1.351 . S
C1517 C1511 1.428 . S
C1517 N1516 1.351 . S
C1517 C1518 1.434 . S
C1518 C1509 1.429 . S
C1518 N1515 1.350 . S
C1518 C1517 1.434 . S
C1519 C1520 1.369 . S
C1519 C1521 1.419 . S
C1519 H1523 0.930 . S
C1520 C1519 1.369 . S
C1520 C1529 1.429 . S
C1521 C1519 1.419 . S
C1521 C1522 1.363 . S
C1521 H1524 0.929 . S
C1522 C1521 1.363 . S
C1522 C1528 1.428 . S
H1523 C1519 0.930 . S
H1524 C1521 0.929 . S
S1525 N1526 1.613 . S
S1525 N1527 1.610 . S
N1526 S1525 1.613 . S
N1526 C1529 1.350 . S
N1527 S1525 1.610 . S
N1527 C1528 1.351 . S
C1528 C1522 1.428 . S
C1528 N1527 1.351 . S
C1528 C1529 1.434 . S
C1529 C1520 1.429 . S
C1529 N1526 1.350 . S
C1529 C1528 1.434 . S
C1530 C1531 1.369 . S
C1530 C1532 1.419 . S
C1530 H1534 0.930 . S
C1531 C1530 1.369 . S
C1531 C1540 1.429 . S
C1532 C1530 1.419 . S
C1532 C1533 1.363 . S
C1532 H1535 0.929 . S
C1533 C1532 1.363 . S
C1533 C1539 1.428 . S
H1534 C1530 0.930 . S
H1535 C1532 0.929 . S
S1536 N1537 1.613 . S
S1536 N1538 1.610 . S
N1537 S1536 1.613 . S
N1537 C1540 1.350 . S
N1538 S1536 1.610 . S
N1538 C1539 1.351 . S
C1539 C1533 1.428 . S
C1539 N1538 1.351 . S
C1539 C1540 1.434 . S
C1540 C1531 1.429 . S
C1540 N1537 1.350 . S
C1540 C1539 1.434 . S
C1541 C1542 1.369 . S
C1541 C1543 1.419 . S
C1541 H1545 0.930 . S
C1542 C1541 1.369 . S
C1542 C1551 1.429 . S
C1543 C1541 1.419 . S
C1543 C1544 1.363 . S
C1543 H1546 0.929 . S
C1544 C1543 1.363 . S
C1544 C1550 1.428 . S
H1545 C1541 0.930 . S
H1546 C1543 0.929 . S
S1547 N1548 1.613 . S
S1547 N1549 1.610 . S
N1548 S1547 1.613 . S
N1548 C1551 1.350 . S
N1549 S1547 1.610 . S
N1549 C1550 1.351 . S
C1550 C1544 1.428 . S
C1550 N1549 1.351 . S
C1550 C1551 1.434 . S
C1551 C1542 1.429 . S
C1551 N1548 1.350 . S
C1551 C1550 1.434 . S
C1552 C1553 1.369 . S
C1552 C1554 1.419 . S
C1552 H1556 0.930 . S
C1553 C1552 1.369 . S
C1553 C1562 1.429 . S
C1554 C1552 1.419 . S
C1554 C1555 1.363 . S
C1554 H1557 0.929 . S
C1555 C1554 1.363 . S
C1555 C1561 1.428 . S
H1556 C1552 0.930 . S
H1557 C1554 0.929 . S
S1558 N1559 1.613 . S
S1558 N1560 1.610 . S
N1559 S1558 1.613 . S
N1559 C1562 1.350 . S
N1560 S1558 1.610 . S
N1560 C1561 1.351 . S
C1561 C1555 1.428 . S
C1561 N1560 1.351 . S
C1561 C1562 1.434 . S
C1562 C1553 1.429 . S
C1562 N1559 1.350 . S
C1562 C1561 1.434 . S
C1563 C1564 1.369 . S
C1563 C1565 1.419 . S
C1563 H1567 0.930 . S
C1564 C1563 1.369 . S
C1564 C1573 1.429 . S
C1565 C1563 1.419 . S
C1565 C1566 1.363 . S
C1565 H1568 0.929 . S
C1566 C1565 1.363 . S
C1566 C1572 1.428 . S
H1567 C1563 0.930 . S
H1568 C1565 0.929 . S
S1569 N1570 1.613 . S
S1569 N1571 1.610 . S
N1570 S1569 1.613 . S
N1570 C1573 1.350 . S
N1571 S1569 1.610 . S
N1571 C1572 1.351 . S
C1572 C1566 1.428 . S
C1572 N1571 1.351 . S
C1572 C1573 1.434 . S
C1573 C1564 1.429 . S
C1573 N1570 1.350 . S
C1573 C1572 1.434 . S
C1574 C1575 1.369 . S
C1574 C1576 1.419 . S
C1574 H1578 0.930 . S
C1575 C1574 1.369 . S
C1575 C1584 1.429 . S
C1576 C1574 1.419 . S
C1576 C1577 1.363 . S
C1576 H1579 0.929 . S
C1577 C1576 1.363 . S
C1577 C1583 1.428 . S
H1578 C1574 0.930 . S
H1579 C1576 0.929 . S
S1580 N1581 1.613 . S
S1580 N1582 1.610 . S
N1581 S1580 1.613 . S
N1581 C1584 1.350 . S
N1582 S1580 1.610 . S
N1582 C1583 1.351 . S
C1583 C1577 1.428 . S
C1583 N1582 1.351 . S
C1583 C1584 1.434 . S
C1584 C1575 1.429 . S
C1584 N1581 1.350 . S
C1584 C1583 1.434 . S
C1585 C1586 1.369 . S
C1585 C1587 1.419 . S
C1585 H1589 0.930 . S
C1586 C1585 1.369 . S
C1586 C1595 1.429 . S
C1587 C1585 1.419 . S
C1587 C1588 1.363 . S
C1587 H1590 0.929 . S
C1588 C1587 1.363 . S
C1588 C1594 1.428 . S
H1589 C1585 0.930 . S
H1590 C1587 0.929 . S
S1591 N1592 1.613 . S
S1591 N1593 1.610 . S
N1592 S1591 1.613 . S
N1592 C1595 1.350 . S
N1593 S1591 1.610 . S
N1593 C1594 1.351 . S
C1594 C1588 1.428 . S
C1594 N1593 1.351 . S
C1594 C1595 1.434 . S
C1595 C1586 1.429 . S
C1595 N1592 1.350 . S
C1595 C1594 1.434 . S
C1596 C1597 1.369 . S
C1596 C1598 1.419 . S
C1596 H1600 0.930 . S
C1597 C1596 1.369 . S
C1597 C1606 1.429 . S
C1598 C1596 1.419 . S
C1598 C1599 1.363 . S
C1598 H1601 0.929 . S
C1599 C1598 1.363 . S
C1599 C1605 1.428 . S
H1600 C1596 0.930 . S
H1601 C1598 0.929 . S
S1602 N1603 1.613 . S
S1602 N1604 1.610 . S
N1603 S1602 1.613 . S
N1603 C1606 1.350 . S
N1604 S1602 1.610 . S
N1604 C1605 1.351 . S
C1605 C1599 1.428 . S
C1605 N1604 1.351 . S
C1605 C1606 1.434 . S
C1606 C1597 1.429 . S
C1606 N1603 1.350 . S
C1606 C1605 1.434 . S
C1607 C1608 1.369 . S
C1607 C1609 1.419 . S
C1607 H1611 0.930 . S
C1608 C1607 1.369 . S
C1608 C1617 1.429 . S
C1609 C1607 1.419 . S
C1609 C1610 1.363 . S
C1609 H1612 0.929 . S
C1610 C1609 1.363 . S
C1610 C1616 1.428 . S
H1611 C1607 0.930 . S
H1612 C1609 0.929 . S
S1613 N1614 1.613 . S
S1613 N1615 1.610 . S
N1614 S1613 1.613 . S
N1614 C1617 1.350 . S
N1615 S1613 1.610 . S
N1615 C1616 1.351 . S
C1616 C1610 1.428 . S
C1616 N1615 1.351 . S
C1616 C1617 1.434 . S
C1617 C1608 1.429 . S
C1617 N1614 1.350 . S
C1617 C1616 1.434 . S
C1618 C1619 1.369 . S
C1618 C1620 1.419 . S
C1618 H1622 0.930 . S
C1619 C1618 1.369 . S
C1619 C1628 1.429 . S
C1620 C1618 1.419 . S
C1620 C1621 1.363 . S
C1620 H1623 0.929 . S
C1621 C1620 1.363 . S
C1621 C1627 1.428 . S
H1622 C1618 0.930 . S
H1623 C1620 0.929 . S
S1624 N1625 1.613 . S
S1624 N1626 1.610 . S
N1625 S1624 1.613 . S
N1625 C1628 1.350 . S
N1626 S1624 1.610 . S
N1626 C1627 1.351 . S
C1627 C1621 1.428 . S
C1627 N1626 1.351 . S
C1627 C1628 1.434 . S
C1628 C1619 1.429 . S
C1628 N1625 1.350 . S
C1628 C1627 1.434 . S
C1629 C1630 1.369 . S
C1629 C1631 1.419 . S
C1629 H1633 0.930 . S
C1630 C1629 1.369 . S
C1630 C1639 1.429 . S
C1631 C1629 1.419 . S
C1631 C1632 1.363 . S
C1631 H1634 0.929 . S
C1632 C1631 1.363 . S
C1632 C1638 1.428 . S
H1633 C1629 0.930 . S
H1634 C1631 0.929 . S
S1635 N1636 1.613 . S
S1635 N1637 1.610 . S
N1636 S1635 1.613 . S
N1636 C1639 1.350 . S
N1637 S1635 1.610 . S
N1637 C1638 1.351 . S
C1638 C1632 1.428 . S
C1638 N1637 1.351 . S
C1638 C1639 1.434 . S
C1639 C1630 1.429 . S
C1639 N1636 1.350 . S
C1639 C1638 1.434 . S
C1640 C1641 1.369 . S
C1640 C1642 1.419 . S
C1640 H1644 0.930 . S
C1641 C1640 1.369 . S
C1641 C1650 1.429 . S
C1642 C1640 1.419 . S
C1642 C1643 1.363 . S
C1642 H1645 0.929 . S
C1643 C1642 1.363 . S
C1643 C1649 1.428 . S
H1644 C1640 0.930 . S
H1645 C1642 0.929 . S
S1646 N1647 1.613 . S
S1646 N1648 1.610 . S
N1647 S1646 1.613 . S
N1647 C1650 1.350 . S
N1648 S1646 1.610 . S
N1648 C1649 1.351 . S
C1649 C1643 1.428 . S
C1649 N1648 1.351 . S
C1649 C1650 1.434 . S
C1650 C1641 1.429 . S
C1650 N1647 1.350 . S
C1650 C1649 1.434 . S
C1651 C1652 1.369 . S
C1651 C1653 1.419 . S
C1651 H1655 0.930 . S
C1652 C1651 1.369 . S
C1652 C1661 1.429 . S
C1653 C1651 1.419 . S
C1653 C1654 1.363 . S
C1653 H1656 0.929 . S
C1654 C1653 1.363 . S
C1654 C1660 1.428 . S
H1655 C1651 0.930 . S
H1656 C1653 0.929 . S
S1657 N1658 1.613 . S
S1657 N1659 1.610 . S
N1658 S1657 1.613 . S
N1658 C1661 1.350 . S
N1659 S1657 1.610 . S
N1659 C1660 1.351 . S
C1660 C1654 1.428 . S
C1660 N1659 1.351 . S
C1660 C1661 1.434 . S
C1661 C1652 1.429 . S
C1661 N1658 1.350 . S
C1661 C1660 1.434 . S
C1662 C1663 1.369 . S
C1662 C1664 1.419 . S
C1662 H1666 0.930 . S
C1663 C1662 1.369 . S
C1663 C1672 1.429 . S
C1664 C1662 1.419 . S
C1664 C1665 1.363 . S
C1664 H1667 0.929 . S
C1665 C1664 1.363 . S
C1665 C1671 1.428 . S
H1666 C1662 0.930 . S
H1667 C1664 0.929 . S
S1668 N1669 1.613 . S
S1668 N1670 1.610 . S
N1669 S1668 1.613 . S
N1669 C1672 1.350 . S
N1670 S1668 1.610 . S
N1670 C1671 1.351 . S
C1671 C1665 1.428 . S
C1671 N1670 1.351 . S
C1671 C1672 1.434 . S
C1672 C1663 1.429 . S
C1672 N1669 1.350 . S
C1672 C1671 1.434 . S
C1673 C1674 1.369 . S
C1673 C1675 1.419 . S
C1673 H1677 0.930 . S
C1674 C1673 1.369 . S
C1674 C1683 1.429 . S
C1675 C1673 1.419 . S
C1675 C1676 1.363 . S
C1675 H1678 0.929 . S
C1676 C1675 1.363 . S
C1676 C1682 1.428 . S
H1677 C1673 0.930 . S
H1678 C1675 0.929 . S
S1679 N1680 1.613 . S
S1679 N1681 1.610 . S
N1680 S1679 1.613 . S
N1680 C1683 1.350 . S
N1681 S1679 1.610 . S
N1681 C1682 1.351 . S
C1682 C1676 1.428 . S
C1682 N1681 1.351 . S
C1682 C1683 1.434 . S
C1683 C1674 1.429 . S
C1683 N1680 1.350 . S
C1683 C1682 1.434 . S
C1684 C1685 1.369 . S
C1684 C1686 1.419 . S
C1684 H1688 0.930 . S
C1685 C1684 1.369 . S
C1685 C1694 1.429 . S
C1686 C1684 1.419 . S
C1686 C1687 1.363 . S
C1686 H1689 0.929 . S
C1687 C1686 1.363 . S
C1687 C1693 1.428 . S
H1688 C1684 0.930 . S
H1689 C1686 0.929 . S
S1690 N1691 1.613 . S
S1690 N1692 1.610 . S
N1691 S1690 1.613 . S
N1691 C1694 1.350 . S
N1692 S1690 1.610 . S
N1692 C1693 1.351 . S
C1693 C1687 1.428 . S
C1693 N1692 1.351 . S
C1693 C1694 1.434 . S
C1694 C1685 1.429 . S
C1694 N1691 1.350 . S
C1694 C1693 1.434 . S
C1695 C1696 1.369 . S
C1695 C1697 1.419 . S
C1695 H1699 0.930 . S
C1696 C1695 1.369 . S
C1696 C1705 1.429 . S
C1697 C1695 1.419 . S
C1697 C1698 1.363 . S
C1697 H1700 0.929 . S
C1698 C1697 1.363 . S
C1698 C1704 1.428 . S
H1699 C1695 0.930 . S
H1700 C1697 0.929 . S
S1701 N1702 1.613 . S
S1701 N1703 1.610 . S
N1702 S1701 1.613 . S
N1702 C1705 1.350 . S
N1703 S1701 1.610 . S
N1703 C1704 1.351 . S
C1704 C1698 1.428 . S
C1704 N1703 1.351 . S
C1704 C1705 1.434 . S
C1705 C1696 1.429 . S
C1705 N1702 1.350 . S
C1705 C1704 1.434 . S
C1706 C1707 1.369 . S
C1706 C1708 1.419 . S
C1706 H1710 0.930 . S
C1707 C1706 1.369 . S
C1707 C1716 1.429 . S
C1708 C1706 1.419 . S
C1708 C1709 1.363 . S
C1708 H1711 0.929 . S
C1709 C1708 1.363 . S
C1709 C1715 1.428 . S
H1710 C1706 0.930 . S
H1711 C1708 0.929 . S
S1712 N1713 1.613 . S
S1712 N1714 1.610 . S
N1713 S1712 1.613 . S
N1713 C1716 1.350 . S
N1714 S1712 1.610 . S
N1714 C1715 1.351 . S
C1715 C1709 1.428 . S
C1715 N1714 1.351 . S
C1715 C1716 1.434 . S
C1716 C1707 1.429 . S
C1716 N1713 1.350 . S
C1716 C1715 1.434 . S
C1717 C1718 1.369 . S
C1717 C1719 1.419 . S
C1717 H1721 0.930 . S
C1718 C1717 1.369 . S
C1718 C1727 1.429 . S
C1719 C1717 1.419 . S
C1719 C1720 1.363 . S
C1719 H1722 0.929 . S
C1720 C1719 1.363 . S
C1720 C1726 1.428 . S
H1721 C1717 0.930 . S
H1722 C1719 0.929 . S
S1723 N1724 1.613 . S
S1723 N1725 1.610 . S
N1724 S1723 1.613 . S
N1724 C1727 1.350 . S
N1725 S1723 1.610 . S
N1725 C1726 1.351 . S
C1726 C1720 1.428 . S
C1726 N1725 1.351 . S
C1726 C1727 1.434 . S
C1727 C1718 1.429 . S
C1727 N1724 1.350 . S
C1727 C1726 1.434 . S
C673 C231 1.346 . S
C675 C7 1.438 . S
C684 C667 1.039 . S
C686 C21 1.246 1_554 S
C695 C35 1.435 . S
C697 C637 1.335 . S
C706 C49 1.227 1_554 S
C708 C653 1.012 . S
C717 C245 1.356 . S
C719 C63 1.456 . S
C728 C77 1.520 1_556 S
C730 C261 1.171 . S
C739 C91 1.454 . S
C741 C273 1.358 . S
C750 C625 1.175 . S
C752 C105 1.523 1_556 S
C761 C121 1.471 . S
C763 C9 1.273 . S
C772 C23 1.171 . S
C774 C133 1.402 . S
C783 C37 1.288 . S
C785 C149 1.469 . S
C794 C51 1.170 . S
C796 C161 1.400 . S
C805 C65 1.288 . S
C807 C177 1.471 . S
C816 C189 1.140 . S
C818 C79 0.977 . S
C827 C93 1.278 . S
C829 C205 1.478 . S
C838 C217 1.143 . S
C840 C107 0.979 . S
C849 C233 1.411 . S
C851 C119 1.501 . S
C860 C175 1.491 . S
C862 C247 1.409 . S
C871 C259 1.396 . S
C873 C191 1.119 . S
C882 C275 1.408 . S
C884 C203 1.502 . S
C893 C555 1.117 . S
C895 C287 1.437 . S
C904 C303 1.449 . S
C906 C483 1.533 . S
C915 C499 1.130 . S
C917 C315 1.413 . S
C926 C471 1.146 . S
C928 C329 1.421 . S
C937 C567 1.229 . S
C939 C343 1.304 . S
C948 C357 1.525 . S
C950 C331 1.157 . S
C959 C371 1.300 . S
C961 C301 1.235 . S
C970 C385 1.527 . S
C972 C317 1.158 . S
C981 C399 1.285 . S
C983 C581 1.214 . S
C992 C597 1.027 . S
C994 C413 1.228 . S
C1003 C427 1.281 . S
C1005 C609 1.217 . S
C1014 C289 1.037 . S
C1016 C441 1.245 . S
C1025 C345 1.503 . S
C1027 C457 1.716 . S
C1036 C469 1.123 . S
C1038 C359 0.986 . S
C1047 C485 1.734 . S
C1049 C373 1.504 . S
C1058 C497 1.122 . S
C1060 C387 0.987 . S
C1069 C513 1.715 . S
C1071 C401 1.485 . S
C1080 C525 1.376 . S
C1082 C415 1.146 . S
C1091 C429 1.505 . S
C1093 C541 1.724 . S
C1102 C443 1.147 . S
C1104 C553 1.378 . S
C1113 C455 1.534 . S
C1115 C569 1.452 . S
C1124 C511 1.545 . S
C1126 C583 1.469 . S
C1135 C527 1.115 . S
C1137 C595 1.451 . S
C1146 C611 1.462 . S
C1148 C539 1.539 . S
C1157 C623 1.399 . S
C1159 C219 1.115 . S
C1168 C639 1.429 . S
C1170 C147 1.511 . S
C1179 C163 1.103 . S
C1181 C651 1.434 . S
C1190 C665 1.419 . S
C1192 C135 1.095 . S
C1201 C6 1.159 . S
C1203 C386 1.193 . S
C1212 C344 1.570 . S
C1214 C20 1.557 . S
C1223 C34 1.156 . S
C1225 C358 1.198 . S
C1234 C48 1.549 . S
C1236 C372 1.566 . S
C1245 C62 1.181 . S
C1247 C78 1.212 . S
C1256 C92 1.853 . S
C1258 C76 1.882 . S
C1267 C90 1.177 . S
C1269 C106 1.220 . S
C1278 C104 1.879 . S
C1280 C64 1.853 . S
C1289 C120 1.460 . S
C1291 C596 1.650 . S
C1300 C132 1.715 . S
C1302 C608 1.623 . S
C1311 C148 1.501 . S
C1313 C288 1.695 . S
C1322 C160 1.713 . S
C1324 C580 1.633 . S
C1333 C176 1.441 . S
C1335 C652 1.637 . S
C1344 C230 1.563 . S
C1346 C188 1.672 . S
C1355 C204 1.476 . S
C1357 C666 1.681 . S
C1366 C636 1.578 . S
C1368 C216 1.676 . S
C1377 C134 1.820 . S
C1379 C232 1.637 . S
C1388 C246 1.695 . S
C1390 C554 1.872 . S
C1399 C258 1.577 . S
C1401 C510 1.530 . S
C1410 C526 1.875 . S
C1412 C274 1.694 . S
C1421 C286 1.436 . S
C1423 C202 1.379 . S
C1432 C498 1.723 . S
C1434 C302 1.550 . S
C1443 C454 1.542 . S
C1445 C314 1.580 . S
C1454 C482 1.539 . S
C1456 C328 1.588 . S
C1465 C342 1.893 . S
C1467 C50 1.950 . S
C1476 C356 1.862 . S
C1478 C8 1.839 . S
C1487 C22 1.959 . S
C1489 C370 1.900 . S
C1498 C384 1.863 . S
C1500 C36 1.840 . S
C1509 C398 1.881 . S
C1511 C414 1.939 . S
C1520 C428 1.550 . S
C1522 C412 1.537 . S
C1531 C442 1.948 . S
C1533 C426 1.885 . S
C1542 C440 1.538 . S
C1544 C400 1.555 . S
C1553 C260 1.818 . S
C1555 C456 1.613 . S
C1564 C468 1.660 . S
C1566 C272 1.557 . S
C1575 C484 1.621 . S
C1577 C624 1.819 . S
C1586 C496 1.655 . S
C1588 C244 1.549 . S
C1597 C512 1.619 . S
C1599 C316 1.829 . S
C1608 C524 1.697 . S
C1610 C566 1.615 . S
C1619 C330 1.832 . S
C1621 C540 1.628 . S
C1630 C552 1.700 . S
C1632 C300 1.608 . S
C1641 C470 1.727 . S
C1643 C568 1.559 . S
C1652 C218 1.671 . S
C1654 C582 1.501 . S
C1663 C174 1.382 . S
C1665 C594 1.447 . S
C1674 C610 1.501 . S
C1676 C190 1.664 . S
C1685 C622 1.579 . S
C1687 C538 1.534 . S
C1696 C162 1.825 . S
C1698 C638 1.644 . S
C1707 C650 1.432 . S
C1709 C118 1.390 . S
C1718 C146 1.372 . S
C1720 C664 1.430 . S
