# Generated by pormake.
# Topology umm, (4)-cn, num edge types: 1
# Building blocks:
#     Node 0, Type 0, BuildingBlock: ICAMEG_clean_sbu_1, # of connection points: 4
#     Node 1, Type 0, BuildingBlock: ICAMEG_clean_sbu_1, # of connection points: 4
#     Node 2, Type 0, BuildingBlock: ICAMEG_clean_sbu_1, # of connection points: 4
#     Node 3, Type 0, BuildingBlock: ICAMEG_clean_sbu_1, # of connection points: 4
#     Node 4, Type 0, BuildingBlock: ICAMEG_clean_sbu_1, # of connection points: 4
#     Node 5, Type 0, BuildingBlock: ICAMEG_clean_sbu_1, # of connection points: 4
#     Node 6, Type 0, BuildingBlock: ICAMEG_clean_sbu_1, # of connection points: 4
#     Node 7, Type 0, BuildingBlock: ICAMEG_clean_sbu_1, # of connection points: 4
#     Node 8, Type 0, BuildingBlock: ICAMEG_clean_sbu_1, # of connection points: 4
#     Node 9, Type 0, BuildingBlock: ICAMEG_clean_sbu_1, # of connection points: 4
#     Node 10, Type 0, BuildingBlock: ICAMEG_clean_sbu_1, # of connection points: 4
#     Node 11, Type 0, BuildingBlock: ICAMEG_clean_sbu_1, # of connection points: 4
#     Edge 12, Type (0, 0), BuildingBlock: AJUNOK_clean_linker_0, # of connection points: 2
#     Edge 13, Type (0, 0), BuildingBlock: AJUNOK_clean_linker_0, # of connection points: 2
#     Edge 14, Type (0, 0), BuildingBlock: AJUNOK_clean_linker_0, # of connection points: 2
#     Edge 15, Type (0, 0), BuildingBlock: AJUNOK_clean_linker_0, # of connection points: 2
#     Edge 16, Type (0, 0), BuildingBlock: AJUNOK_clean_linker_0, # of connection points: 2
#     Edge 17, Type (0, 0), BuildingBlock: AJUNOK_clean_linker_0, # of connection points: 2
#     Edge 18, Type (0, 0), BuildingBlock: AJUNOK_clean_linker_0, # of connection points: 2
#     Edge 19, Type (0, 0), BuildingBlock: AJUNOK_clean_linker_0, # of connection points: 2
#     Edge 20, Type (0, 0), BuildingBlock: AJUNOK_clean_linker_0, # of connection points: 2
#     Edge 21, Type (0, 0), BuildingBlock: AJUNOK_clean_linker_0, # of connection points: 2
#     Edge 22, Type (0, 0), BuildingBlock: AJUNOK_clean_linker_0, # of connection points: 2
#     Edge 23, Type (0, 0), BuildingBlock: AJUNOK_clean_linker_0, # of connection points: 2
#     Edge 24, Type (0, 0), BuildingBlock: AJUNOK_clean_linker_0, # of connection points: 2
#     Edge 25, Type (0, 0), BuildingBlock: AJUNOK_clean_linker_0, # of connection points: 2
#     Edge 26, Type (0, 0), BuildingBlock: AJUNOK_clean_linker_0, # of connection points: 2
#     Edge 27, Type (0, 0), BuildingBlock: AJUNOK_clean_linker_0, # of connection points: 2
#     Edge 28, Type (0, 0), BuildingBlock: AJUNOK_clean_linker_0, # of connection points: 2
#     Edge 29, Type (0, 0), BuildingBlock: AJUNOK_clean_linker_0, # of connection points: 2
#     Edge 30, Type (0, 0), BuildingBlock: AJUNOK_clean_linker_0, # of connection points: 2
#     Edge 31, Type (0, 0), BuildingBlock: AJUNOK_clean_linker_0, # of connection points: 2
#     Edge 32, Type (0, 0), BuildingBlock: AJUNOK_clean_linker_0, # of connection points: 2
#     Edge 33, Type (0, 0), BuildingBlock: AJUNOK_clean_linker_0, # of connection points: 2
#     Edge 34, Type (0, 0), BuildingBlock: AJUNOK_clean_linker_0, # of connection points: 2
#     Edge 35, Type (0, 0), BuildingBlock: AJUNOK_clean_linker_0, # of connection points: 2
# Relax obj value: 0.059
# Max RMSD: 0.165
# Mean RMSD: 0.164
data_MOF--net-umm--node1-ICAMEG_clean_sbu_1--edge1-AJUNOK_clean_linker_0
_symmetry_space_group_name_H-M    P1
_symmetry_Int_Tables_number       1
_symmetry_cell_setting            triclinic
loop_
_symmetry_equiv_pos_as_xyz
'x, y, z'
_cell_length_a     45.257175
_cell_length_b     45.238245
_cell_length_c     22.683672
_cell_angle_alpha  90.001154
_cell_angle_beta   89.995996
_cell_angle_gamma 120.05592
loop_
_atom_site_label
_atom_site_type_symbol
_atom_site_fract_x
_atom_site_fract_y
_atom_site_fract_z
_atom_type_partial_charge
Co0 Co 0.38216 0.50557 0.04177 0.0
Co1 Co 0.44222 0.58777 0.08355 0.0
O2 O 0.39774 0.54626 0.09028 0.0
C3 C 0.33484 0.53087 0.0164 0.0
O4 O 0.36255 0.56094 0.01346 0.0
C5 C 0.43812 0.5625 0.20465 0.0
O6 O 0.42506 0.53194 0.18137 0.0
O7 O 0.46614 0.56101 0.07714 0.0
O8 O 0.42694 0.50678 0.05422 0.0
H9 H 0.55733 0.66578 0.99421 0.0
H10 H 0.33793 0.50408 0.13956 0.0
O11 O 0.33743 0.50458 0.0278 0.0
H12 H 0.36372 0.41273 0.18463 0.0
H13 H 0.29472 0.38935 0.96719 0.0
H14 H 0.41361 0.48369 0.94956 0.0
H15 H 0.38706 0.44803 0.09526 0.0
H16 H 0.31593 0.44059 0.0299 0.0
O17 O 0.44719 0.58851 0.17175 0.0
H18 H 0.50129 0.61321 0.00184 0.0
H19 H 0.47759 0.65176 0.15428 0.0
H20 H 0.39358 0.43281 0.8863 0.0
H21 H 0.31331 0.46881 0.22861 0.0
H22 H 0.33372 0.38521 0.89487 0.0
H23 H 0.32632 0.42286 0.25176 0.0
O24 O 0.40071 0.5332 0.96928 0.0
H25 H 0.35918 0.61851 0.17146 0.0
H26 H 0.44485 0.6454 0.01537 0.0
H27 H 0.41473 0.67811 0.02111 0.0
H28 H 0.3716 0.66478 0.09969 0.0
H29 H 0.38972 0.58627 0.16385 0.0
H30 H 0.53355 0.70463 0.14878 0.0
H31 H 0.57384 0.71195 0.06818 0.0
O32 O 0.4381 0.58725 0.99548 0.0
C33 C 0.45766 0.53011 0.06573 0.0
C34 C 0.53999 0.66294 0.02949 0.0
C35 C 0.52668 0.68469 0.11632 0.0
N36 N 0.48618 0.62939 0.0784 0.0
C37 C 0.50817 0.63326 0.0339 0.0
C38 C 0.49508 0.65463 0.11935 0.0
C39 C 0.54925 0.6888 0.07104 0.0
C40 C 0.34339 0.48388 0.14901 0.0
N41 N 0.36375 0.47799 0.11214 0.0
C42 C 0.32945 0.46405 0.19956 0.0
C43 C 0.33681 0.43831 0.21258 0.0
C44 C 0.35785 0.43266 0.175 0.0
C45 C 0.37115 0.45284 0.12464 0.0
C46 C 0.32088 0.40989 0.96313 0.0
C47 C 0.38762 0.46294 0.95387 0.0
C48 C 0.33301 0.43897 -0.00156 0.0
N49 N 0.36604 0.46495 0.99367 0.0
C50 C 0.37639 0.43426 0.91779 0.0
C51 C 0.34278 0.40758 0.92257 0.0
C52 C 0.42165 0.56426 0.95674 0.0
C53 C 0.37801 0.62465 0.13716 0.0
C54 C 0.42609 0.63942 0.04964 0.0
C55 C 0.40914 0.65806 0.05271 0.0
C56 C 0.38495 0.65056 0.09681 0.0
N57 N 0.41921 0.6141 0.08949 0.0
C58 C 0.39548 0.60657 0.13279 0.0
Co59 Co 0.88243 0.37737 0.37616 0.0
Co60 Co 0.86281 0.43878 0.42041 0.0
O61 O 0.85814 0.3936 0.4256 0.0
C62 C 0.80946 0.33165 0.35176 0.0
O63 O 0.80898 0.36028 0.34721 0.0
C64 C 0.88208 0.43267 0.54217 0.0
O65 O 0.89794 0.41762 0.52007 0.0
O66 O 0.91322 0.46107 0.41565 0.0
O67 O 0.92691 0.42176 0.38794 0.0
H68 H 0.90836 0.55695 0.33837 0.0
H69 H 0.83993 0.33442 0.47541 0.0
O70 O 0.83778 0.33295 0.36304 0.0
H71 H 0.95678 0.35856 0.51837 0.0
H72 H 0.90853 0.28832 0.30066 0.0
H73 H 0.93555 0.40798 0.28334 0.0
H74 H 0.94455 0.38072 0.42781 0.0
H75 H 0.87927 0.31032 0.36345 0.0
O76 O 0.86639 0.44285 0.50854 0.0
H77 H 0.90144 0.49937 0.34367 0.0
H78 H 0.83465 0.47498 0.49001 0.0
H79 H 0.96561 0.38714 0.22 0.0
H80 H 0.85096 0.31153 0.56629 0.0
H81 H 0.95212 0.32689 0.22845 0.0
H82 H 0.90976 0.32368 0.58832 0.0
O83 O 0.87359 0.39652 0.30391 0.0
H84 H 0.7474 0.35967 0.50739 0.0
H85 H 0.80973 0.4447 0.35196 0.0
H86 H 0.74713 0.4182 0.35864 0.0
H87 H 0.7156 0.37568 0.4373 0.0
H88 H 0.80997 0.38654 0.4987 0.0
H89 H 0.84122 0.53247 0.48689 0.0
H90 H 0.87817 0.57387 0.41046 0.0
O91 O 0.85989 0.43574 0.3323 0.0
C92 C 0.93515 0.45238 0.40234 0.0
C93 C 0.89204 0.5391 0.37168 0.0
C94 C 0.8544 0.52537 0.45509 0.0
N95 N 0.86733 0.4837 0.4166 0.0
C96 C 0.88787 0.50639 0.37469 0.0
C97 C 0.85083 0.49287 0.4567 0.0
C98 C 0.87514 0.54858 0.4122 0.0
C99 C 0.86551 0.33949 0.4844 0.0
N100 N 0.89153 0.3587 0.44624 0.0
C101 C 0.87163 0.3266 0.53605 0.0
C102 C 0.90464 0.33347 0.54843 0.0
C103 C 0.93104 0.35306 0.50922 0.0
C104 C 0.92398 0.36559 0.45808 0.0
C105 C 0.91468 0.31464 0.29666 0.0
C106 C 0.92974 0.3818 0.28756 0.0
C107 C 0.89816 0.32721 0.33201 0.0
N108 N 0.90594 0.36046 0.32738 0.0
C109 C 0.94675 0.37012 0.25144 0.0
C110 C 0.93915 0.3363 0.25616 0.0
C111 C 0.86522 0.41897 0.2925 0.0
C112 C 0.76088 0.37836 0.47322 0.0
C113 C 0.79615 0.42596 0.38591 0.0
C114 C 0.76072 0.41116 0.38965 0.0
C115 C 0.74305 0.38733 0.43383 0.0
N116 N 0.81351 0.41738 0.4252 0.0
C117 C 0.79631 0.3937 0.46815 0.0
Co118 Co 0.51249 0.88323 0.70677 0.0
Co119 Co 0.43021 0.86059 0.74745 0.0
O120 O 0.47188 0.85839 0.75525 0.0
C121 C 0.48771 0.81056 0.68401 0.0
O122 O 0.45786 0.80848 0.67937 0.0
C123 C 0.45417 0.88464 0.86832 0.0
O124 O 0.48388 0.90567 0.84467 0.0
O125 O 0.4565 0.9114 0.74098 0.0
O126 O 0.51055 0.9266 0.71648 0.0
H127 H 0.35213 0.89734 0.65778 0.0
H128 H 0.51323 0.84238 0.80838 0.0
O129 O 0.514 0.83946 0.69557 0.0
H130 H 0.60337 0.96074 0.84994 0.0
H131 H 0.62924 0.91235 0.63529 0.0
H132 H 0.53428 0.93543 0.61243 0.0
H133 H 0.56976 0.94671 0.75811 0.0
H134 H 0.57779 0.88261 0.6976 0.0
O135 O 0.42911 0.86423 0.83594 0.0
H136 H 0.40495 0.89445 0.66602 0.0
H137 H 0.36572 0.83074 0.81678 0.0
H138 H 0.58536 0.96597 0.54952 0.0
H139 H 0.5464 0.85518 0.90055 0.0
H140 H 0.63327 0.95444 0.56073 0.0
H141 H 0.59178 0.91476 0.92186 0.0
O142 O 0.4851 0.87292 0.63365 0.0
H143 H 0.40061 0.74681 0.83437 0.0
H144 H 0.37339 0.80532 0.67831 0.0
H145 H 0.34153 0.74237 0.68308 0.0
H146 H 0.35507 0.71272 0.76158 0.0
H147 H 0.43202 0.80968 0.82771 0.0
H148 H 0.31257 0.8332 0.81059 0.0
H149 H 0.30548 0.8666 0.73052 0.0
O150 O 0.43124 0.8573 0.65919 0.0
C151 C 0.4872 0.93391 0.72823 0.0
C152 C 0.35486 0.88261 0.69277 0.0
C153 C 0.3327 0.84669 0.77863 0.0
N154 N 0.38838 0.86237 0.74168 0.0
C155 C 0.38467 0.88078 0.69753 0.0
C156 C 0.3629 0.84549 0.78203 0.0
C157 C 0.32873 0.86541 0.73365 0.0
C158 C 0.53314 0.8683 0.81715 0.0
N159 N 0.53969 0.89375 0.77786 0.0
C160 C 0.55175 0.87542 0.86949 0.0
C161 C 0.57718 0.90886 0.88145 0.0
C162 C 0.58369 0.93468 0.84113 0.0
C163 C 0.56454 0.92661 0.78929 0.0
C164 C 0.60857 0.91765 0.63008 0.0
C165 C 0.55517 0.93051 0.61788 0.0
C166 C 0.57937 0.90085 0.66516 0.0
N167 N 0.55323 0.9075 0.65892 0.0
C168 C 0.58396 0.94778 0.582 0.0
C169 C 0.61082 0.94127 0.58826 0.0
C170 C 0.45419 0.8632 0.62066 0.0
C171 C 0.3944 0.75944 0.80009 0.0
C172 C 0.37942 0.79259 0.71259 0.0
C173 C 0.36128 0.75695 0.71511 0.0
C174 C 0.36888 0.74033 0.75918 0.0
N175 N 0.40438 0.81116 0.75293 0.0
C176 C 0.41198 0.79504 0.79626 0.0
Co177 Co 0.63807 0.51177 0.04213 0.0
Co178 Co 0.57489 0.43128 0.08556 0.0
O179 O 0.62075 0.47086 0.09075 0.0
C180 C 0.68323 0.48392 0.0167 0.0
O181 O 0.65484 0.45448 0.01222 0.0
C182 C 0.5818 0.45584 0.20783 0.0
O183 O 0.59717 0.48692 0.18625 0.0
O184 O 0.5538 0.46065 0.08261 0.0
O185 O 0.59452 0.51297 0.05395 0.0
H186 H 0.45573 0.36223 0.00568 0.0
H187 H 0.67951 0.5098 0.14159 0.0
O188 O 0.68174 0.51071 0.02887 0.0
H189 H 0.66007 0.60543 0.18591 0.0
H190 H 0.72891 0.62694 0.96909 0.0
H191 H 0.60876 0.5357 0.94943 0.0
H192 H 0.63752 0.57196 0.09455 0.0
H193 H 0.70578 0.5752 0.03093 0.0
O194 O 0.57128 0.43013 0.1737 0.0
H195 H 0.51397 0.41197 0.01121 0.0
H196 H 0.53787 0.36604 0.15266 0.0
H197 H 0.63068 0.58718 0.88722 0.0
H198 H 0.70287 0.54279 0.23323 0.0
H199 H 0.69118 0.63324 0.8968 0.0
H200 H 0.69305 0.5909 0.256 0.0
O201 O 0.6186 0.48423 0.96942 0.0
H202 H 0.65427 0.3933 0.16458 0.0
H203 H 0.5669 0.37213 0.01475 0.0
H204 H 0.5939 0.33641 0.01582 0.0
H205 H 0.63791 0.34689 0.09121 0.0
H206 H 0.62681 0.42859 0.16156 0.0
H207 H 0.47976 0.31596 0.14916 0.0
H208 H 0.4383 0.31376 0.07504 0.0
O209 O 0.57745 0.43204 0.99756 0.0
C210 C 0.56371 0.49155 0.06873 0.0
C211 C 0.47361 0.3628 0.038 0.0
C212 C 0.48709 0.33685 0.11855 0.0
N213 N 0.5294 0.39169 0.08168 0.0
C214 C 0.50665 0.39084 0.04119 0.0
C215 C 0.51994 0.36528 0.12035 0.0
C216 C 0.46384 0.33564 0.07696 0.0
C217 C 0.67541 0.5309 0.15095 0.0
N218 N 0.65714 0.53895 0.11279 0.0
C219 C 0.68858 0.5494 0.203 0.0
C220 C 0.68302 0.57636 0.2158 0.0
C221 C 0.66448 0.5845 0.17653 0.0
C222 C 0.65164 0.56538 0.12496 0.0
C223 C 0.70249 0.60708 0.96457 0.0
C224 C 0.63505 0.55575 0.95415 0.0
C225 C 0.68929 0.5777 -0.00066 0.0
N226 N 0.65591 0.5526 0.99406 0.0
C227 C 0.64734 0.58479 0.91867 0.0
C228 C 0.6813 0.6106 0.92403 0.0
C229 C 0.59501 0.45386 0.95788 0.0
C230 C 0.63506 0.38843 0.13162 0.0
C231 C 0.58608 0.37689 0.04757 0.0
C232 C 0.60123 0.35654 0.04806 0.0
C233 C 0.62591 0.36242 0.09038 0.0
N234 N 0.59516 0.40232 0.0882 0.0
C235 C 0.61932 0.40823 0.12985 0.0
Co236 Co 0.13484 0.63259 0.37303 0.0
Co237 Co 0.15147 0.56878 0.41507 0.0
O238 O 0.15804 0.61469 0.42116 0.0
C239 C 0.20804 0.67607 0.3463 0.0
O240 O 0.20768 0.64701 0.34195 0.0
C241 C 0.13262 0.57503 0.53699 0.0
O242 O 0.11769 0.59108 0.51512 0.0
O243 O 0.10106 0.54795 0.40993 0.0
O244 O 0.08948 0.58951 0.38668 0.0
H245 H 0.10287 0.45088 0.33006 0.0
H246 H 0.1795 0.67295 0.47232 0.0
O247 O 0.18027 0.67569 0.35844 0.0
H248 H 0.06657 0.65902 0.51697 0.0
H249 H 0.11353 0.72511 0.2986 0.0
H250 H 0.08006 0.60354 0.28291 0.0
H251 H 0.07604 0.63565 0.42521 0.0
H252 H 0.14164 0.7013 0.35999 0.0
O253 O 0.1477 0.56425 0.50315 0.0
H254 H 0.1114 0.50905 0.3372 0.0
H255 H 0.17779 0.5305 0.4833 0.0
H256 H 0.05106 0.62619 0.22109 0.0
H257 H 0.1714 0.69716 0.56428 0.0
H258 H 0.06779 0.6874 0.22873 0.0
H259 H 0.11453 0.69007 0.58727 0.0
O260 O 0.14145 0.61218 0.30008 0.0
H261 H 0.26776 0.64602 0.50073 0.0
H262 H 0.20344 0.56115 0.34619 0.0
H263 H 0.26603 0.58708 0.3511 0.0
H264 H 0.29859 0.62968 0.42908 0.0
H265 H 0.20518 0.61969 0.49383 0.0
H266 H 0.16966 0.47241 0.47826 0.0
H267 H 0.13211 0.43221 0.40098 0.0
O268 O 0.15451 0.57232 0.3272 0.0
C269 C 0.08012 0.55832 0.39891 0.0
C270 C 0.11938 0.46818 0.36381 0.0
C271 C 0.15685 0.48026 0.447 0.0
N272 N 0.14532 0.52323 0.41023 0.0
C273 C 0.12439 0.50119 0.36794 0.0
C274 C 0.1613 0.51309 0.44972 0.0
C275 C 0.13578 0.45772 0.40364 0.0
C276 C 0.15475 0.66998 0.48184 0.0
N277 N 0.12815 0.65265 0.44372 0.0
C278 C 0.15029 0.68366 0.53405 0.0
C279 C 0.11837 0.67963 0.54695 0.0
C280 C 0.09144 0.66217 0.50759 0.0
C281 C 0.09685 0.6488 0.45588 0.0
C282 C 0.10597 0.69838 0.29497 0.0
C283 C 0.08728 0.63014 0.2868 0.0
C284 C 0.12185 0.68478 0.3295 0.0
N285 N 0.11227 0.65101 0.32537 0.0
C286 C 0.07086 0.64285 0.25154 0.0
C287 C 0.08029 0.6772 0.25579 0.0
C288 C 0.1491 0.58928 0.28793 0.0
C289 C 0.25384 0.62735 0.46676 0.0
C290 C 0.21744 0.5798 0.38 0.0
C291 C 0.25287 0.59431 0.38271 0.0
C292 C 0.27112 0.61819 0.4265 0.0
N293 N 0.20064 0.58874 0.41989 0.0
C294 C 0.21839 0.61228 0.46274 0.0
Co295 Co 0.50768 0.13431 0.70987 0.0
Co296 Co 0.58838 0.1498 0.74725 0.0
O297 O 0.54966 0.15716 0.75597 0.0
C298 C 0.53741 0.2076 0.68437 0.0
O299 O 0.56593 0.20713 0.67769 0.0
C300 C 0.56509 0.13134 0.86979 0.0
O301 O 0.53392 0.11606 0.8487 0.0
O302 O 0.55801 0.09951 0.74338 0.0
O303 O 0.50519 0.08876 0.72063 0.0
H304 H 0.65406 0.09839 0.65814 0.0
H305 H 0.51323 0.17868 0.81041 0.0
O306 O 0.51014 0.1799 0.69757 0.0
H307 H 0.41625 0.06491 0.85856 0.0
H308 H 0.39269 0.1137 0.64393 0.0
H309 H 0.48034 0.08045 0.618 0.0
H310 H 0.44753 0.07473 0.76491 0.0
H311 H 0.44566 0.14119 0.70283 0.0
O312 O 0.59062 0.14652 0.83525 0.0
H313 H 0.60543 0.10833 0.66794 0.0
H314 H 0.6541 0.17557 0.81175 0.0
H315 H 0.42765 0.05209 0.55857 0.0
H316 H 0.48249 0.17015 0.90435 0.0
H317 H 0.38339 0.06871 0.57135 0.0
H318 H 0.43372 0.11288 0.92905 0.0
O319 O 0.53347 0.14129 0.63553 0.0
H320 H 0.63166 0.26705 0.83204 0.0
H321 H 0.64672 0.20057 0.67456 0.0
H322 H 0.68461 0.2631 0.6779 0.0
H323 H 0.67734 0.29672 0.75734 0.0
H324 H 0.59412 0.20453 0.82671 0.0
H325 H 0.7031 0.16608 0.80398 0.0
H326 H 0.70334 0.12736 0.72654 0.0
O327 O 0.58626 0.15228 0.65939 0.0
C328 C 0.52663 0.07889 0.73213 0.0
C329 C 0.65433 0.11544 0.69188 0.0
C330 C 0.68184 0.1534 0.77378 0.0
N331 N 0.62712 0.14279 0.73992 0.0
C332 C 0.62694 0.12129 0.69747 0.0
C333 C 0.65401 0.15863 0.77803 0.0
C334 C 0.68195 0.13167 0.73032 0.0
C335 C 0.49182 0.15378 0.82061 0.0
N336 N 0.48216 0.12721 0.78224 0.0
C337 C 0.4746 0.14906 0.87396 0.0
C338 C 0.44727 0.11691 0.88783 0.0
C339 C 0.43748 0.08998 0.84834 0.0
C340 C 0.45534 0.09563 0.79546 0.0
C341 C 0.41175 0.10618 0.63806 0.0
C342 C 0.46107 0.08762 0.62413 0.0
C343 C 0.4418 0.12169 0.67121 0.0
N344 N 0.46588 0.11218 0.66422 0.0
C345 C 0.43135 0.07157 0.59021 0.0
C346 C 0.40654 0.08093 0.59736 0.0
C347 C 0.5635 0.14803 0.62164 0.0
C348 C 0.63521 0.25265 0.79744 0.0
C349 C 0.6433 0.21506 0.70909 0.0
C350 C 0.66489 0.25044 0.71086 0.0
C351 C 0.66082 0.26929 0.75547 0.0
N352 N 0.61842 0.1989 0.75069 0.0
C353 C 0.6141 0.21723 0.79431 0.0
Co354 Co 0.51182 0.63445 0.62362 0.0
Co355 Co 0.42997 0.57471 0.57997 0.0
O356 O 0.47135 0.61927 0.57459 0.0
C357 C 0.48699 0.68206 0.64896 0.0
O358 O 0.45701 0.65427 0.65254 0.0
C359 C 0.45485 0.57997 0.45814 0.0
O360 O 0.48575 0.59411 0.48022 0.0
O361 O 0.4568 0.55092 0.58431 0.0
O362 O 0.5103 0.58948 0.6115 0.0
H363 H 0.35392 0.45737 0.6629 0.0
H364 H 0.51342 0.67813 0.52478 0.0
O365 O 0.51322 0.67947 0.63716 0.0
H366 H 0.60357 0.65057 0.4802 0.0
H367 H 0.62833 0.72105 0.69814 0.0
H368 H 0.53307 0.60261 0.71614 0.0
H369 H 0.56934 0.62916 0.5711 0.0
H370 H 0.57708 0.70037 0.63566 0.0
O371 O 0.42911 0.57062 0.4918 0.0
H372 H 0.40602 0.51394 0.65706 0.0
H373 H 0.36535 0.54034 0.51076 0.0
H374 H 0.58396 0.62211 0.77913 0.0
H375 H 0.54722 0.70031 0.43359 0.0
H376 H 0.63203 0.68174 0.77035 0.0
H377 H 0.59259 0.68643 0.41073 0.0
O378 O 0.48383 0.61597 0.69608 0.0
H379 H 0.39915 0.65879 0.49718 0.0
H380 H 0.37211 0.5709 0.64917 0.0
H381 H 0.33942 0.6011 0.64591 0.0
H382 H 0.35285 0.64537 0.56942 0.0
H383 H 0.43138 0.62815 0.50236 0.0
H384 H 0.31299 0.48387 0.51441 0.0
H385 H 0.30696 0.44199 0.5911 0.0
O386 O 0.43045 0.57779 0.66806 0.0
C387 C 0.48736 0.55904 0.59737 0.0
C388 C 0.35616 0.47544 0.62944 0.0
C389 C 0.33323 0.49029 0.54604 0.0
N390 N 0.38859 0.53052 0.584 0.0
C391 C 0.38554 0.50757 0.6261 0.0
C392 C 0.36296 0.5222 0.54411 0.0
C393 C 0.32986 0.46681 0.58909 0.0
C394 C 0.53337 0.6723 0.51542 0.0
N395 N 0.53953 0.65253 0.55331 0.0
C396 C 0.55232 0.6848 0.46361 0.0
C397 C 0.57773 0.67696 0.45076 0.0
C398 C 0.58389 0.65681 0.4897 0.0
C399 C 0.56439 0.64471 0.54103 0.0
C400 C 0.60758 0.695 0.7023 0.0
C401 C 0.55401 0.62852 0.71179 0.0
C402 C 0.57848 0.68317 0.66714 0.0
N403 N 0.55226 0.65026 0.672 0.0
C404 C 0.5827 0.63945 0.7477 0.0
C405 C 0.60964 0.67292 0.74279 0.0
C406 C 0.45281 0.59419 0.7077 0.0
C407 C 0.39299 0.63948 0.53061 0.0
C408 C 0.37815 0.59018 0.61585 0.0
C409 C 0.35951 0.60715 0.61415 0.0
C410 C 0.36705 0.63197 0.57121 0.0
N411 N 0.40351 0.59764 0.57582 0.0
C412 C 0.41106 0.62195 0.5336 0.0
Co413 Co 0.88305 0.50721 0.95765 0.0
Co414 Co 0.86078 0.42489 0.91677 0.0
O415 O 0.85786 0.46636 0.90951 0.0
C416 C 0.81037 0.48193 0.98275 0.0
O417 O 0.80804 0.45191 0.98639 0.0
C418 C 0.88221 0.44987 0.79568 0.0
O419 O 0.89988 0.48038 0.81905 0.0
O420 O 0.91145 0.45166 0.92301 0.0
O421 O 0.92662 0.50594 0.94553 0.0
H422 H 0.89819 0.34743 0.00703 0.0
H423 H 0.84033 0.50837 0.85951 0.0
O424 O 0.83927 0.5082 0.97124 0.0
H425 H 0.95759 0.59968 0.81424 0.0
H426 H 0.9119 0.62363 0.03091 0.0
H427 H 0.93643 0.52942 0.0499 0.0
H428 H 0.94557 0.56456 0.90385 0.0
H429 H 0.88183 0.57219 0.96868 0.0
O430 O 0.86498 0.42389 0.82856 0.0
H431 H 0.89472 0.39994 -0.00131 0.0
H432 H 0.83197 0.36059 0.8469 0.0
H433 H 0.96732 0.58052 0.11269 0.0
H434 H 0.85104 0.54345 0.7702 0.0
H435 H 0.95507 0.62805 0.10343 0.0
H436 H 0.91005 0.58941 0.747 0.0
O437 O 0.87395 0.47983 0.03045 0.0
H438 H 0.74687 0.39387 0.82901 0.0
H439 H 0.8058 0.36751 0.9855 0.0
H440 H 0.74291 0.33485 0.98012 0.0
H441 H 0.71305 0.34794 0.90136 0.0
H442 H 0.8097 0.42607 0.83627 0.0
H443 H 0.83508 0.30778 0.85311 0.0
H444 H 0.86829 0.3009 0.93376 0.0
O445 O 0.85726 0.42571 0.00484 0.0
C446 C 0.93396 0.48256 0.9342 0.0
C447 C 0.88356 0.35007 0.97177 0.0
C448 C 0.84823 0.32787 0.88529 0.0
N449 N 0.86313 0.38332 0.92247 0.0
C450 C 0.8814 0.37971 0.96696 0.0
C451 C 0.84668 0.35789 0.88187 0.0
C452 C 0.86684 0.32401 0.93059 0.0
C453 C 0.86601 0.52856 0.85001 0.0
N454 N 0.89227 0.53456 0.88698 0.0
C455 C 0.87194 0.54828 0.79933 0.0
C456 C 0.90506 0.57403 0.78628 0.0
C457 C 0.93176 0.57976 0.82392 0.0
C458 C 0.92484 0.55967 0.87441 0.0
C459 C 0.91752 0.60313 0.03527 0.0
C460 C 0.93119 0.55014 0.04529 0.0
C461 C 0.90053 0.57392 0.00023 0.0
N462 N 0.90758 0.54799 0.00537 0.0
C463 C 0.94866 0.57895 0.0811 0.0
C464 C 0.94174 0.60559 0.07594 0.0
C465 C 0.86386 0.44883 0.04335 0.0
C466 C 0.7596 0.38785 0.8634 0.0
C467 C 0.79298 0.37337 0.95114 0.0
C468 C 0.75737 0.35477 0.94827 0.0
C469 C 0.74063 0.36212 0.90406 0.0
N470 N 0.81141 0.39852 0.911 0.0
C471 C 0.79518 0.4059 0.86757 0.0
Co472 Co 0.38077 0.87805 0.28723 0.0
Co473 Co 0.4437 0.86077 0.2429 0.0
O474 O 0.39826 0.85518 0.23749 0.0
C475 C 0.3367 0.80464 0.31123 0.0
O476 O 0.36566 0.8048 0.31513 0.0
C477 C 0.44037 0.88367 0.12262 0.0
O478 O 0.42986 0.90305 0.14709 0.0
O479 O 0.46534 0.91134 0.24961 0.0
O480 O 0.4243 0.92325 0.27543 0.0
H481 H 0.56174 0.90702 0.32571 0.0
H482 H 0.34095 0.83547 0.1856 0.0
O483 O 0.33728 0.83264 0.30007 0.0
H484 H 0.35579 0.94953 0.14829 0.0
H485 H 0.28905 0.89961 0.36486 0.0
H486 H 0.41014 0.93142 0.37979 0.0
H487 H 0.37839 0.93804 0.23904 0.0
H488 H 0.31246 0.87196 0.30134 0.0
O489 O 0.44725 0.8646 0.15434 0.0
H490 H 0.50406 0.89978 0.31992 0.0
H491 H 0.48065 0.83378 0.17263 0.0
H492 H 0.3879 0.95996 0.44375 0.0
H493 H 0.31749 0.84558 0.09455 0.0
H494 H 0.32693 0.94406 0.43651 0.0
H495 H 0.32502 0.90302 0.07529 0.0
O496 O 0.40061 0.86993 0.35932 0.0
H497 H 0.36496 0.74521 0.15573 0.0
H498 H 0.45047 0.80787 0.31029 0.0
H499 H 0.42385 0.74521 0.30407 0.0
H500 H 0.38095 0.71349 0.22605 0.0
H501 H 0.39196 0.80783 0.1639 0.0
H502 H 0.53822 0.84054 0.17643 0.0
H503 H 0.57914 0.87725 0.2536 0.0
O504 O 0.44062 0.85733 0.33115 0.0
C505 C 0.45538 0.93241 0.26271 0.0
C506 C 0.54411 0.89086 0.29201 0.0
C507 C 0.53091 0.85357 0.2082 0.0
N508 N 0.48891 0.86608 0.24643 0.0
C509 C 0.51138 0.88658 0.28863 0.0
C510 C 0.49838 0.84989 0.20619 0.0
C511 C 0.55385 0.87417 0.25151 0.0
C512 C 0.34419 0.86048 0.17762 0.0
N513 N 0.36132 0.88628 0.21728 0.0
C514 C 0.3309 0.86607 0.12596 0.0
C515 C 0.33516 0.89831 0.11515 0.0
C516 C 0.35246 0.92443 0.15603 0.0
C517 C 0.36542 0.91788 0.20715 0.0
C518 C 0.31567 0.90681 0.36833 0.0
C519 C 0.38365 0.92458 0.37606 0.0
C520 C 0.32904 0.89118 0.3326 0.0
N521 N 0.36269 0.90031 0.33653 0.0
C522 C 0.37117 0.94073 0.41254 0.0
C523 C 0.33695 0.93176 0.40851 0.0
C524 C 0.4235 0.86222 0.37092 0.0
C525 C 0.38377 0.75877 0.18968 0.0
C526 C 0.43169 0.79423 0.27644 0.0
C527 C 0.41678 0.75876 0.27301 0.0
C528 C 0.39273 0.74098 0.22919 0.0
N529 N 0.42298 0.81152 0.23722 0.0
C530 C 0.39923 0.79424 0.19441 0.0
Co531 Co 0.50696 0.37884 0.62222 0.0
Co532 Co 0.58767 0.44347 0.58278 0.0
O533 O 0.54859 0.39734 0.57529 0.0
C534 C 0.53711 0.3359 0.64999 0.0
O535 O 0.5657 0.36506 0.65478 0.0
C536 C 0.56307 0.43772 0.46104 0.0
O537 O 0.53227 0.42287 0.48371 0.0
O538 O 0.55761 0.46372 0.58755 0.0
O539 O 0.50432 0.42166 0.6087 0.0
H540 H 0.65539 0.56085 0.67052 0.0
H541 H 0.51178 0.33798 0.52441 0.0
O542 O 0.50968 0.33603 0.63713 0.0
H543 H 0.41256 0.35094 0.47668 0.0
H544 H 0.39292 0.28515 0.69401 0.0
H545 H 0.48004 0.40699 0.71183 0.0
H546 H 0.4459 0.37624 0.56732 0.0
H547 H 0.44531 0.30975 0.63367 0.0
O548 O 0.58906 0.44837 0.49458 0.0
H549 H 0.60616 0.50248 0.6618 0.0
H550 H 0.65272 0.48281 0.51608 0.0
H551 H 0.42792 0.38353 0.77264 0.0
H552 H 0.47865 0.31142 0.43406 0.0
H553 H 0.38393 0.32218 0.76395 0.0
H554 H 0.42873 0.31796 0.40958 0.0
O555 O 0.53323 0.3991 0.69556 0.0
H556 H 0.6288 0.36783 0.49775 0.0
H557 H 0.64661 0.45115 0.65368 0.0
H558 H 0.68381 0.42582 0.64976 0.0
H559 H 0.67512 0.38399 0.57114 0.0
H560 H 0.59199 0.39356 0.5036 0.0
H561 H 0.70235 0.5411 0.52286 0.0
H562 H 0.70395 0.5805 0.60069 0.0
O563 O 0.58648 0.43945 0.67075 0.0
C564 C 0.52613 0.45304 0.59771 0.0
C565 C 0.65506 0.54388 0.63657 0.0
C566 C 0.68139 0.53281 0.55364 0.0
N567 N 0.62674 0.48918 0.58886 0.0
C568 C 0.62731 0.51076 0.63155 0.0
C569 C 0.6532 0.49987 0.54994 0.0
C570 C 0.68228 0.5549 0.59733 0.0
C571 C 0.48993 0.34071 0.51426 0.0
N572 N 0.48081 0.35873 0.55098 0.0
C573 C 0.4713 0.32565 0.46302 0.0
C574 C 0.44332 0.32938 0.44926 0.0
C575 C 0.43429 0.34795 0.4868 0.0
C576 C 0.45341 0.36248 0.53781 0.0
C577 C 0.41187 0.31194 0.69809 0.0
C578 C 0.46087 0.38034 0.70744 0.0
C579 C 0.44159 0.32599 0.66412 0.0
N580 N 0.46552 0.35984 0.66884 0.0
C581 C 0.43148 0.36717 0.74215 0.0
C582 C 0.40683 0.33273 0.73731 0.0
C583 C 0.56357 0.42187 0.70894 0.0
C584 C 0.63296 0.38619 0.53199 0.0
C585 C 0.64261 0.43288 0.61946 0.0
C586 C 0.6638 0.41869 0.61737 0.0
C587 C 0.65893 0.39524 0.57323 0.0
N588 N 0.61734 0.42405 0.5786 0.0
C589 C 0.61228 0.40092 0.5354 0.0
Co590 Co 0.13272 0.50046 0.95301 0.0
Co591 Co 0.15005 0.58136 0.91211 0.0
O592 O 0.15622 0.54171 0.90518 0.0
C593 C 0.20584 0.52859 0.97863 0.0
O594 O 0.20688 0.55802 0.98271 0.0
C595 C 0.13084 0.55654 0.7905 0.0
O596 O 0.11421 0.52582 0.81345 0.0
O597 O 0.09958 0.55203 0.91682 0.0
O598 O 0.08787 0.49911 0.9415 0.0
H599 H 0.1019 0.65078 0.99787 0.0
H600 H 0.17664 0.5026 0.85428 0.0
O601 O 0.17759 0.50176 0.96633 0.0
H602 H 0.06192 0.40632 0.80936 0.0
H603 H 0.10919 0.38538 0.02484 0.0
H604 H 0.07937 0.47583 0.04563 0.0
H605 H 0.07208 0.44068 0.89939 0.0
H606 H 0.13741 0.43725 0.96323 0.0
O607 O 0.14667 0.58257 0.82384 0.0
H608 H 0.11001 0.60091 0.99007 0.0
H609 H 0.17715 0.64645 0.84501 0.0
H610 H 0.05023 0.42424 0.10767 0.0
H611 H 0.1679 0.46836 0.76454 0.0
H612 H 0.06514 0.37858 0.09753 0.0
H613 H 0.11016 0.41992 0.74148 0.0
O614 O 0.14062 0.52749 0.02591 0.0
H615 H 0.2666 0.61974 0.82849 0.0
H616 H 0.20199 0.6401 0.98265 0.0
H617 H 0.26475 0.67592 0.97962 0.0
H618 H 0.29747 0.66585 0.90207 0.0
H619 H 0.20385 0.58436 0.83342 0.0
H620 H 0.16955 0.69672 0.85087 0.0
H621 H 0.13181 0.69915 0.9279 0.0
O622 O 0.15283 0.58042 0.00022 0.0
C623 C 0.07855 0.52088 0.92917 0.0
C624 C 0.11854 0.6501 0.96428 0.0
C625 C 0.15647 0.67585 0.88172 0.0
N626 N 0.14432 0.62097 0.91758 0.0
C627 C 0.12333 0.62199 0.95981 0.0
C628 C 0.16063 0.64732 0.87856 0.0
C629 C 0.13529 0.6772 0.92496 0.0
C630 C 0.15152 0.48137 0.84481 0.0
N631 N 0.12488 0.4736 0.88207 0.0
C632 C 0.14671 0.46211 0.79389 0.0
C633 C 0.11429 0.43496 0.78092 0.0
C634 C 0.08719 0.42738 0.81891 0.0
C635 C 0.09302 0.44706 0.86961 0.0
C636 C 0.10242 0.40506 0.02959 0.0
C637 C 0.08579 0.45595 0.04063 0.0
C638 C 0.11837 0.43451 0.99493 0.0
N639 N 0.10984 0.45939 0.00053 0.0
C640 C 0.06929 0.42685 0.07603 0.0
C641 C 0.0777 0.40126 0.07035 0.0
C642 C 0.14828 0.55791 0.03873 0.0
C643 C 0.25262 0.62445 0.86237 0.0
C644 C 0.21606 0.63555 0.9488 0.0
C645 C 0.25158 0.65594 0.94726 0.0
C646 C 0.26993 0.65029 0.90372 0.0
N647 N 0.19927 0.61031 0.90801 0.0
C648 C 0.21708 0.6046 0.86522 0.0
Co649 Co 0.63639 0.1297 0.28982 0.0
Co650 Co 0.57558 0.14986 0.24436 0.0
O651 O 0.62069 0.15433 0.24018 0.0
C652 C 0.68125 0.20244 0.31702 0.0
O653 O 0.65239 0.20252 0.31992 0.0
C654 C 0.58254 0.13088 0.12313 0.0
O655 O 0.59604 0.11383 0.1465 0.0
O656 O 0.5531 0.09935 0.24847 0.0
O657 O 0.59224 0.08531 0.27589 0.0
H658 H 0.45708 0.10501 0.32414 0.0
H659 H 0.68123 0.17357 0.19342 0.0
O660 O 0.68046 0.17439 0.30524 0.0
H661 H 0.65813 0.05734 0.14755 0.0
H662 H 0.72471 0.10331 0.36786 0.0
H663 H 0.60467 0.07541 0.38058 0.0
H664 H 0.63367 0.0682 0.23655 0.0
H665 H 0.70339 0.13313 0.30494 0.0
O666 O 0.5724 0.1469 0.15602 0.0
H667 H 0.51432 0.11113 0.31959 0.0
H668 H 0.54037 0.17883 0.17418 0.0
H669 H 0.62482 0.04478 0.44399 0.0
H670 H 0.70674 0.16398 0.10456 0.0
H671 H 0.68525 0.05869 0.43784 0.0
H672 H 0.6951 0.10549 0.08102 0.0
O673 O 0.61613 0.13756 0.36153 0.0
H674 H 0.65756 0.26593 0.16261 0.0
H675 H 0.56937 0.20274 0.31304 0.0
H676 H 0.59753 0.26559 0.30943 0.0
H677 H 0.64182 0.29759 0.23355 0.0
H678 H 0.62893 0.20309 0.1681 0.0
H679 H 0.48324 0.17314 0.17666 0.0
H680 H 0.4412 0.13613 0.25224 0.0
O681 O 0.57772 0.15217 0.33254 0.0
C682 C 0.56169 0.07726 0.26135 0.0
C683 C 0.47522 0.12134 0.29117 0.0
C684 C 0.48989 0.15953 0.20833 0.0
N685 N 0.53078 0.14562 0.24713 0.0
C686 C 0.50773 0.12504 0.28857 0.0
C687 C 0.52217 0.1626 0.20707 0.0
C688 C 0.46631 0.13877 0.25076 0.0
C689 C 0.67639 0.14813 0.18384 0.0
N690 N 0.65619 0.12152 0.22031 0.0
C691 C 0.69081 0.14283 0.13337 0.0
C692 C 0.68422 0.10998 0.12013 0.0
C693 C 0.66343 0.08295 0.15739 0.0
C694 C 0.64955 0.08923 0.20759 0.0
C695 C 0.69831 0.09696 0.37084 0.0
C696 C 0.63094 0.08142 0.37736 0.0
C697 C 0.68612 0.1138 0.33541 0.0
N698 N 0.65277 0.10579 0.33877 0.0
C699 C 0.64223 0.06408 0.41351 0.0
C700 C 0.67615 0.07193 0.41009 0.0
C701 C 0.59375 0.14604 0.37261 0.0
C702 C 0.63815 0.25226 0.19564 0.0
C703 C 0.58871 0.21649 0.28006 0.0
C704 C 0.6045 0.25207 0.27811 0.0
C705 C 0.62933 0.27001 0.2355 0.0
N706 N 0.59733 0.19925 0.24054 0.0
C707 C 0.62178 0.21667 0.19885 0.0
C708 C 0.46957 0.59589 0.29385 0.0
C709 C 0.44179 0.56661 0.26929 0.0
C710 C 0.47388 0.59984 0.35516 0.0
C711 C 0.44998 0.57514 0.39386 0.0
H712 H 0.48843 0.6156 0.26551 0.0
H713 H 0.49582 0.62261 0.37239 0.0
S714 S 0.37241 0.49434 0.35183 0.0
N715 N 0.39005 0.51259 0.28843 0.0
N716 N 0.39752 0.52062 0.40352 0.0
C717 C 0.42184 0.54605 0.3699 0.0
C718 C 0.41792 0.54161 0.3076 0.0
C719 C 0.88015 0.41228 0.64515 0.0
C720 C 0.88208 0.43748 0.60645 0.0
C721 C 0.87958 0.41615 0.70646 0.0
C722 C 0.88196 0.44582 0.73103 0.0
H723 H 0.87856 0.38918 0.62792 0.0
H724 H 0.87785 0.39606 0.7348 0.0
S725 S 0.88807 0.5195 0.64841 0.0
N726 N 0.88624 0.49292 0.59677 0.0
N727 N 0.88637 0.50078 0.71182 0.0
C728 C 0.88426 0.47132 0.69269 0.0
C729 C 0.88398 0.467 0.6304 0.0
C730 C 0.43384 0.85374 0.96436 0.0
C731 C 0.45014 0.88467 0.93285 0.0
C732 C 0.43144 0.85354 0.02616 0.0
C733 C 0.44423 0.88422 0.05801 0.0
H734 H 0.42356 0.82962 0.94122 0.0
H735 H 0.41897 0.82926 0.04906 0.0
S736 S 0.48837 0.97179 0.9959 0.0
N737 N 0.47937 0.9466 0.93792 0.0
N738 N 0.4734 0.94617 0.05361 0.0
C739 C 0.46004 0.91521 0.02686 0.0
C740 C 0.46339 0.91545 0.96433 0.0
C741 C 0.60119 0.47431 0.31124 0.0
C742 C 0.57666 0.45066 0.27204 0.0
C743 C 0.59692 0.46966 0.37246 0.0
C744 C 0.56751 0.44173 0.39645 0.0
H745 H 0.62407 0.49631 0.29451 0.0
H746 H 0.6165 0.48836 0.40116 0.0
S747 S 0.49555 0.37292 0.31239 0.0
N748 N 0.52211 0.39833 0.2613 0.0
N749 N 0.51354 0.39014 0.37615 0.0
C750 C 0.54269 0.41811 0.35761 0.0
C751 C 0.54742 0.42241 0.29542 0.0
C752 C 0.13349 0.59466 0.64021 0.0
C753 C 0.13229 0.56987 0.60127 0.0
C754 C 0.13358 0.59044 0.70148 0.0
C755 C 0.13149 0.56085 0.72584 0.0
H756 H 0.13485 0.6177 0.62322 0.0
H757 H 0.13474 0.61023 0.72995 0.0
S758 S 0.12734 0.48822 0.64262 0.0
N759 N 0.12914 0.51489 0.5912 0.0
N760 N 0.12819 0.50643 0.70617 0.0
C761 C 0.12995 0.53577 0.68728 0.0
C762 C 0.13068 0.54043 0.62501 0.0
C763 C 0.55111 0.13287 0.03417 0.0
C764 C 0.5789 0.13134 0.0585 0.0
C765 C 0.54666 0.13249 0.97296 0.0
C766 C 0.57037 0.13156 0.934 0.0
H767 H 0.53234 0.13376 0.06263 0.0
H768 H 0.52473 0.13338 0.95603 0.0
S769 S 0.6479 0.12822 0.97539 0.0
N770 N 0.63049 0.12896 0.03896 0.0
N771 N 0.6227 0.12938 0.92391 0.0
C772 C 0.59853 0.13058 0.95771 0.0
C773 C 0.60262 0.13013 0.02 0.0
C774 C 0.29973 0.55886 0.00331 0.0
C775 C 0.30112 0.52851 0.00714 0.0
C776 C 0.26892 0.55834 0.99404 0.0
C777 C 0.23785 0.52744 0.98796 0.0
H778 H 0.3227 0.58354 0.00768 0.0
H779 H 0.26967 0.58262 0.99146 0.0
S780 S 0.22712 0.44053 0.99436 0.0
N781 N 0.26847 0.46643 0.00407 0.0
N782 N 0.21037 0.46542 0.98652 0.0
C783 C 0.23869 0.49675 0.9916 0.0
C784 C 0.27029 0.49729 0.0013 0.0
C785 C 0.77657 0.26741 0.33683 0.0
C786 C 0.77688 0.29853 0.34419 0.0
C787 C 0.74574 0.23637 0.32794 0.0
C788 C 0.714 0.23519 0.32656 0.0
H789 H 0.80032 0.26705 0.33727 0.0
H790 H 0.74684 0.21317 0.32211 0.0
S791 S 0.70067 0.30945 0.34545 0.0
N792 N 0.74229 0.32581 0.35058 0.0
N793 N 0.68514 0.26829 0.33447 0.0
C794 C 0.71409 0.26617 0.33458 0.0
C795 C 0.74525 0.29755 0.34323 0.0
C796 C 0.45889 0.74731 0.67319 0.0
C797 C 0.48958 0.77883 0.6761 0.0
C798 C 0.4587 0.71665 0.66442 0.0
C799 C 0.48919 0.71576 0.658 0.0
H800 H 0.43447 0.74607 0.67777 0.0
H801 H 0.43413 0.69338 0.66245 0.0
S802 S 0.57676 0.79105 0.66225 0.0
N803 N 0.55157 0.80732 0.67199 0.0
N804 N 0.55123 0.74939 0.6554 0.0
C805 C 0.52024 0.74703 0.6609 0.0
C806 C 0.52043 0.77854 0.67009 0.0
C807 C 0.71674 0.45427 0.00281 0.0
C808 C 0.71649 0.48514 0.00829 0.0
C809 C 0.74714 0.45382 0.99452 0.0
C810 C 0.77891 0.48421 0.9911 0.0
H811 H 0.69319 0.42996 0.00513 0.0
H812 H 0.74549 0.42917 0.99055 0.0
S813 S 0.79271 0.57212 0.00269 0.0
N814 N 0.751 0.54717 0.00968 0.0
N815 N 0.80829 0.54629 0.99393 0.0
C816 C 0.77922 0.51539 0.99636 0.0
C817 C 0.74805 0.51586 0.00508 0.0
C818 C 0.24159 0.74026 0.33292 0.0
C819 C 0.24085 0.7088 0.33757 0.0
C820 C 0.27248 0.77113 0.32394 0.0
C821 C 0.30392 0.77184 0.31975 0.0
H822 H 0.21812 0.74107 0.33587 0.0
H823 H 0.27169 0.79461 0.32062 0.0
S824 S 0.31612 0.69651 0.32956 0.0
N825 N 0.27467 0.68059 0.33748 0.0
N826 N 0.33208 0.73795 0.32107 0.0
C827 C 0.30345 0.74052 0.32453 0.0
C828 C 0.27214 0.70924 0.33332 0.0
C829 C 0.50667 0.24094 0.67161 0.0
C830 C 0.53745 0.24038 0.67646 0.0
C831 C 0.50661 0.27175 0.66273 0.0
C832 C 0.53732 0.3033 0.65892 0.0
H833 H 0.48241 0.21737 0.67412 0.0
H834 H 0.48229 0.27082 0.6591 0.0
S835 S 0.62496 0.31598 0.66975 0.0
N836 N 0.59951 0.27446 0.67727 0.0
N837 N 0.59941 0.3318 0.66105 0.0
C838 C 0.56823 0.30303 0.66411 0.0
C839 C 0.56829 0.27178 0.67275 0.0
C840 C 0.47704 0.48691 0.0747 0.0
C841 C 0.48516 0.52099 0.06649 0.0
C842 C 0.50256 0.47787 0.07611 0.0
C843 C 0.53744 0.50241 0.06857 0.0
H844 H 0.45075 0.46698 0.08066 0.0
H845 H 0.49465 0.45121 0.08273 0.0
S846 S 0.57234 0.59519 0.04313 0.0
N847 N 0.53081 0.57939 0.04969 0.0
N848 N 0.57839 0.56238 0.05107 0.0
C849 C 0.54587 0.53655 0.05964 0.0
C850 C 0.51991 0.54581 0.05897 0.0
C851 C 0.9978 0.47197 0.39001 0.0
C852 C 0.97203 0.47979 0.40282 0.0
C853 C 0.03245 0.49746 0.38905 0.0
C854 C 0.04303 0.53209 0.40005 0.0
H855 H 0.99126 0.44592 0.38053 0.0
H856 H 0.0511 0.48989 0.37888 0.0
S857 S 0.98631 0.56651 0.43798 0.0
N858 N 0.96015 0.52521 0.42889 0.0
N859 N 0.02489 0.57263 0.42559 0.0
C860 C 0.01767 0.54033 0.413 0.0
C861 C 0.98239 0.51438 0.41485 0.0
C862 C 0.53999 0.03118 0.73396 0.0
C863 C 0.51536 0.04163 0.73146 0.0
C864 C 0.53072 0.99657 0.7324 0.0
C865 C 0.49632 0.97059 0.72901 0.0
H866 H 0.56693 0.04988 0.73672 0.0
H867 H 0.55082 0.99024 0.73439 0.0
S868 S 0.4216 0.9838 0.7205 0.0
N869 N 0.45486 0.02274 0.72424 0.0
N870 N 0.43737 0.95791 0.7226 0.0
C871 C 0.47135 0.98059 0.7266 0.0
C872 C 0.48085 0.01593 0.72743 0.0
C873 C 0.5306 0.53956 0.6031 0.0
C874 C 0.49642 0.53141 0.59648 0.0
C875 C 0.53973 0.51412 0.60306 0.0
C876 C 0.51511 0.47916 0.59719 0.0
H877 H 0.55067 0.56588 0.60825 0.0
H878 H 0.56648 0.52208 0.60835 0.0
S879 S 0.4219 0.44371 0.57824 0.0
N880 N 0.43769 0.48534 0.58294 0.0
N881 N 0.45494 0.43787 0.58439 0.0
C882 C 0.48082 0.47055 0.5908 0.0
C883 C 0.47149 0.4965 0.58997 0.0
C884 C 0.03122 0.53485 0.92527 0.0
C885 C 0.04143 0.51009 0.93001 0.0
C886 C 0.99668 0.52585 0.92715 0.0
C887 C 0.97059 0.49162 0.9331 0.0
H888 H 0.05006 0.56164 0.92048 0.0
H889 H 0.99044 0.54598 0.92333 0.0
S890 S 0.98323 0.41677 0.94867 0.0
N891 N 0.02219 0.44973 0.94245 0.0
N892 N 0.95761 0.43278 0.94469 0.0
C893 C 0.98039 0.46657 0.93788 0.0
C894 C 0.01561 0.47578 0.93671 0.0
C895 C 0.51636 0.9798 0.27268 0.0
C896 C 0.48177 0.96945 0.26211 0.0
C897 C 0.54195 0.01445 0.27216 0.0
C898 C 0.53424 0.0404 0.26019 0.0
H899 H 0.5238 0.96098 0.2822 0.0
H900 H 0.56798 0.02084 0.28134 0.0
S901 S 0.44766 0.02669 0.22613 0.0
N902 N 0.44142 0.98798 0.23764 0.0
N903 N 0.48898 0.05267 0.2352 0.0
C904 C 0.49969 0.03024 0.24848 0.0
C905 C 0.47366 0.99499 0.24989 0.0
C906 C 0.46632 0.608 0.81478 0.0
C907 C 0.4427 0.5878 0.77087 0.0
C908 C 0.45877 0.60118 0.8748 0.0
C909 C 0.42748 0.5736 0.89353 0.0
H910 H 0.49122 0.62901 0.80292 0.0
H911 H 0.47815 0.61697 0.90658 0.0
S912 S 0.35511 0.51517 0.79733 0.0
N913 N 0.38529 0.54081 0.75115 0.0
N914 N 0.37139 0.52775 0.86382 0.0
C915 C 0.40299 0.55408 0.85041 0.0
C916 C 0.41052 0.56124 0.78921 0.0
C917 C 0.8639 0.4047 0.18542 0.0
C918 C 0.8616 0.42553 0.22939 0.0
C919 C 0.86314 0.41153 0.12541 0.0
C920 C 0.86049 0.43971 0.10671 0.0
H921 H 0.86691 0.38316 0.19721 0.0
H922 H 0.86583 0.39519 0.0936 0.0
S923 S 0.8499 0.50016 0.20323 0.0
N924 N 0.85354 0.47395 0.24931 0.0
N925 N 0.85257 0.48698 0.13667 0.0
C926 C 0.85669 0.45994 0.14994 0.0
C927 C 0.85712 0.4528 0.21114 0.0
C928 C 0.4167 0.86176 0.53819 0.0
C929 C 0.44496 0.85934 0.5572 0.0
C930 C 0.40963 0.86184 0.47809 0.0
C931 C 0.4303 0.85915 0.43424 0.0
H932 H 0.40046 0.86475 0.56982 0.0
H933 H 0.38802 0.8647 0.46612 0.0
S934 S 0.50514 0.848 0.46123 0.0
N935 N 0.49219 0.85129 0.52764 0.0
N936 N 0.47873 0.85108 0.41488 0.0
C937 C 0.45769 0.85497 0.45283 0.0
C938 C 0.46506 0.85518 0.51413 0.0
C939 C 0.60073 0.45917 0.7906 0.0
C940 C 0.57241 0.42822 0.77238 0.0
C941 C 0.60808 0.46687 0.85046 0.0
C942 C 0.58761 0.44382 0.8948 0.0
H943 H 0.61695 0.4781 0.75847 0.0
H944 H 0.62982 0.49141 0.86185 0.0
S945 S 0.51214 0.35768 0.87015 0.0
N946 N 0.52498 0.37328 0.80336 0.0
N947 N 0.53885 0.3876 0.91564 0.0
C948 C 0.55991 0.41216 0.87706 0.0
C949 C 0.55229 0.40441 0.81603 0.0
C950 C 0.1471 0.59433 0.1207 0.0
C951 C 0.15148 0.56716 0.10202 0.0
C952 C 0.14701 0.6016 0.18069 0.0
C953 C 0.15162 0.5822 0.22462 0.0
H954 H 0.14268 0.60957 0.08889 0.0
H955 H 0.14272 0.62235 0.19251 0.0
S956 S 0.16779 0.51037 0.1983 0.0
N957 N 0.16311 0.52227 0.13185 0.0
N958 N 0.16314 0.53596 0.24436 0.0
C959 C 0.15747 0.55579 0.20629 0.0
C960 C 0.15734 0.54827 0.14516 0.0
C961 C 0.5995 0.14629 0.5397 0.0
C962 C 0.57209 0.15033 0.55811 0.0
C963 C 0.60652 0.14554 0.47985 0.0
C964 C 0.58663 0.14912 0.43562 0.0
H965 H 0.61524 0.14274 0.57166 0.0
H966 H 0.62755 0.14164 0.46841 0.0
S967 S 0.5138 0.16379 0.46075 0.0
N968 N 0.52622 0.1603 0.5275 0.0
N969 N 0.53958 0.15922 0.41503 0.0
C970 C 0.55992 0.15457 0.4535 0.0
C971 C 0.5526 0.15507 0.51462 0.0
loop_
_geom_bond_atom_site_label_1
_geom_bond_atom_site_label_2
_geom_bond_distance
_geom_bond_site_symmetry_2
_ccdc_geom_bond_type
Co0 O2 2.143 . S
Co0 O8 2.074 . S
Co0 O11 2.093 . S
Co0 O24 2.097 1_554 S
Co0 N41 2.151 . S
Co0 N49 2.214 1_554 S
Co1 O2 2.160 . S
Co1 O7 2.058 . S
Co1 O17 2.057 . S
Co1 O32 2.037 1_554 S
Co1 N36 2.145 . S
Co1 N57 2.257 . S
O2 Co0 2.143 . S
O2 Co1 2.160 . S
C3 O4 1.278 . S
C3 O11 1.224 . S
O4 C3 1.278 . S
C5 O6 1.245 . S
C5 O17 1.232 . S
O6 C5 1.245 . S
O7 Co1 2.058 . S
O7 C33 1.269 . S
O8 Co0 2.074 . S
O8 C33 1.257 . S
H9 C34 0.930 . S
H10 C40 0.930 . S
O11 Co0 2.093 . S
O11 C3 1.224 . S
H12 C44 0.929 . S
H13 C46 0.930 . S
H14 C47 0.930 . S
H15 C45 0.929 . S
H16 C48 0.928 . S
O17 Co1 2.057 . S
O17 C5 1.232 . S
H18 C37 0.929 1_556 S
H19 C38 0.929 . S
H20 C50 0.931 . S
H21 C42 0.929 . S
H22 C51 0.930 . S
H23 C43 0.931 . S
O24 Co0 2.097 1_556 S
O24 C52 1.214 . S
H25 C53 0.929 . S
H26 C54 0.922 1_556 S
H27 C55 0.930 1_556 S
H28 C56 0.929 . S
H29 C58 0.930 . S
H30 C35 0.930 . S
H31 C39 0.930 . S
O32 Co1 2.037 1_556 S
O32 C52 1.234 . S
C33 O7 1.269 . S
C33 O8 1.257 . S
C34 H9 0.930 . S
C34 C37 1.388 . S
C34 C39 1.418 . S
C35 H30 0.930 . S
C35 C38 1.404 . S
C35 C39 1.353 . S
N36 Co1 2.145 . S
N36 C37 1.397 . S
N36 C38 1.334 . S
C37 H18 0.929 1_554 S
C37 C34 1.388 . S
C37 N36 1.397 . S
C38 H19 0.929 . S
C38 C35 1.404 . S
C38 N36 1.334 . S
C39 H31 0.930 . S
C39 C34 1.418 . S
C39 C35 1.353 . S
C40 H10 0.930 . S
C40 N41 1.330 . S
C40 C42 1.446 . S
N41 Co0 2.151 . S
N41 C40 1.330 . S
N41 C45 1.418 . S
C42 H21 0.929 . S
C42 C40 1.446 . S
C42 C43 1.332 . S
C43 H23 0.931 . S
C43 C42 1.332 . S
C43 C44 1.267 . S
C44 H12 0.929 . S
C44 C43 1.267 . S
C44 C45 1.251 . S
C45 H15 0.929 . S
C45 N41 1.418 . S
C45 C44 1.251 . S
C46 H13 0.930 . S
C46 C48 1.406 . S
C46 C51 1.261 . S
C47 H14 0.930 . S
C47 N49 1.325 . S
C47 C50 1.357 . S
C48 H16 0.928 . S
C48 C46 1.406 . S
C48 N49 1.261 . S
N49 Co0 2.214 1_556 S
N49 C47 1.325 . S
N49 C48 1.261 . S
C50 H20 0.931 . S
C50 C47 1.357 . S
C50 C51 1.312 . S
C51 H22 0.930 . S
C51 C46 1.261 . S
C51 C50 1.312 . S
C52 O24 1.214 . S
C52 O32 1.234 . S
C53 H25 0.929 . S
C53 C56 1.391 . S
C53 C58 1.391 . S
C54 H26 0.922 1_554 S
C54 C55 1.390 . S
C54 N57 1.391 . S
C55 H27 0.930 1_554 S
C55 C54 1.390 . S
C55 C56 1.392 . S
C56 H28 0.929 . S
C56 C53 1.391 . S
C56 C55 1.392 . S
N57 Co1 2.257 . S
N57 C54 1.391 . S
N57 C58 1.388 . S
C58 H29 0.930 . S
C58 C53 1.391 . S
C58 N57 1.388 . S
Co59 O61 2.143 . S
Co59 O67 2.074 . S
Co59 O70 2.093 . S
Co59 O83 2.097 . S
Co59 N100 2.151 . S
Co59 N108 2.214 . S
Co60 O61 2.160 . S
Co60 O66 2.058 . S
Co60 O76 2.057 . S
Co60 O91 2.037 . S
Co60 N95 2.145 . S
Co60 N116 2.257 . S
O61 Co59 2.143 . S
O61 Co60 2.160 . S
C62 O63 1.278 . S
C62 O70 1.224 . S
O63 C62 1.278 . S
C64 O65 1.245 . S
C64 O76 1.232 . S
O65 C64 1.245 . S
O66 Co60 2.058 . S
O66 C92 1.269 . S
O67 Co59 2.074 . S
O67 C92 1.257 . S
H68 C93 0.930 . S
H69 C99 0.930 . S
O70 Co59 2.093 . S
O70 C62 1.224 . S
H71 C103 0.929 . S
H72 C105 0.930 . S
H73 C106 0.930 . S
H74 C104 0.929 . S
H75 C107 0.928 . S
O76 Co60 2.057 . S
O76 C64 1.232 . S
H77 C96 0.929 . S
H78 C97 0.929 . S
H79 C109 0.931 . S
H80 C101 0.929 . S
H81 C110 0.930 . S
H82 C102 0.931 . S
O83 Co59 2.097 . S
O83 C111 1.214 . S
H84 C112 0.929 . S
H85 C113 0.929 . S
H86 C114 0.930 . S
H87 C115 0.929 . S
H88 C117 0.930 . S
H89 C94 0.930 . S
H90 C98 0.930 . S
O91 Co60 2.037 . S
O91 C111 1.234 . S
C92 O66 1.269 . S
C92 O67 1.257 . S
C93 H68 0.930 . S
C93 C96 1.388 . S
C93 C98 1.418 . S
C94 H89 0.930 . S
C94 C97 1.404 . S
C94 C98 1.353 . S
N95 Co60 2.145 . S
N95 C96 1.397 . S
N95 C97 1.334 . S
C96 H77 0.929 . S
C96 C93 1.388 . S
C96 N95 1.397 . S
C97 H78 0.929 . S
C97 C94 1.404 . S
C97 N95 1.334 . S
C98 H90 0.930 . S
C98 C93 1.418 . S
C98 C94 1.353 . S
C99 H69 0.930 . S
C99 N100 1.330 . S
C99 C101 1.446 . S
N100 Co59 2.151 . S
N100 C99 1.330 . S
N100 C104 1.418 . S
C101 H80 0.929 . S
C101 C99 1.446 . S
C101 C102 1.332 . S
C102 H82 0.931 . S
C102 C101 1.332 . S
C102 C103 1.267 . S
C103 H71 0.929 . S
C103 C102 1.267 . S
C103 C104 1.251 . S
C104 H74 0.929 . S
C104 N100 1.418 . S
C104 C103 1.251 . S
C105 H72 0.930 . S
C105 C107 1.406 . S
C105 C110 1.261 . S
C106 H73 0.930 . S
C106 N108 1.325 . S
C106 C109 1.357 . S
C107 H75 0.928 . S
C107 C105 1.406 . S
C107 N108 1.261 . S
N108 Co59 2.214 . S
N108 C106 1.325 . S
N108 C107 1.261 . S
C109 H79 0.931 . S
C109 C106 1.357 . S
C109 C110 1.312 . S
C110 H81 0.930 . S
C110 C105 1.261 . S
C110 C109 1.312 . S
C111 O83 1.214 . S
C111 O91 1.234 . S
C112 H84 0.929 . S
C112 C115 1.391 . S
C112 C117 1.391 . S
C113 H85 0.929 . S
C113 C114 1.390 . S
C113 N116 1.391 . S
C114 H86 0.930 . S
C114 C113 1.390 . S
C114 C115 1.392 . S
C115 H87 0.929 . S
C115 C112 1.391 . S
C115 C114 1.392 . S
N116 Co60 2.257 . S
N116 C113 1.391 . S
N116 C117 1.388 . S
C117 H88 0.930 . S
C117 C112 1.391 . S
C117 N116 1.388 . S
Co118 O120 2.143 . S
Co118 O126 2.074 . S
Co118 O129 2.093 . S
Co118 O142 2.097 . S
Co118 N159 2.151 . S
Co118 N167 2.214 . S
Co119 O120 2.160 . S
Co119 O125 2.058 . S
Co119 O135 2.057 . S
Co119 O150 2.037 . S
Co119 N154 2.145 . S
Co119 N175 2.257 . S
O120 Co118 2.143 . S
O120 Co119 2.160 . S
C121 O122 1.278 . S
C121 O129 1.224 . S
O122 C121 1.278 . S
C123 O124 1.245 . S
C123 O135 1.232 . S
O124 C123 1.245 . S
O125 Co119 2.058 . S
O125 C151 1.269 . S
O126 Co118 2.074 . S
O126 C151 1.257 . S
H127 C152 0.930 . S
H128 C158 0.930 . S
O129 Co118 2.093 . S
O129 C121 1.224 . S
H130 C162 0.929 . S
H131 C164 0.930 . S
H132 C165 0.930 . S
H133 C163 0.929 . S
H134 C166 0.928 . S
O135 Co119 2.057 . S
O135 C123 1.232 . S
H136 C155 0.929 . S
H137 C156 0.929 . S
H138 C168 0.931 . S
H139 C160 0.929 . S
H140 C169 0.930 . S
H141 C161 0.931 . S
O142 Co118 2.097 . S
O142 C170 1.214 . S
H143 C171 0.929 . S
H144 C172 0.929 . S
H145 C173 0.930 . S
H146 C174 0.929 . S
H147 C176 0.930 . S
H148 C153 0.930 . S
H149 C157 0.930 . S
O150 Co119 2.037 . S
O150 C170 1.234 . S
C151 O125 1.269 . S
C151 O126 1.257 . S
C152 H127 0.930 . S
C152 C155 1.388 . S
C152 C157 1.418 . S
C153 H148 0.930 . S
C153 C156 1.404 . S
C153 C157 1.353 . S
N154 Co119 2.145 . S
N154 C155 1.397 . S
N154 C156 1.334 . S
C155 H136 0.929 . S
C155 C152 1.388 . S
C155 N154 1.397 . S
C156 H137 0.929 . S
C156 C153 1.404 . S
C156 N154 1.334 . S
C157 H149 0.930 . S
C157 C152 1.418 . S
C157 C153 1.353 . S
C158 H128 0.930 . S
C158 N159 1.330 . S
C158 C160 1.446 . S
N159 Co118 2.151 . S
N159 C158 1.330 . S
N159 C163 1.418 . S
C160 H139 0.929 . S
C160 C158 1.446 . S
C160 C161 1.332 . S
C161 H141 0.931 . S
C161 C160 1.332 . S
C161 C162 1.267 . S
C162 H130 0.929 . S
C162 C161 1.267 . S
C162 C163 1.251 . S
C163 H133 0.929 . S
C163 N159 1.418 . S
C163 C162 1.251 . S
C164 H131 0.930 . S
C164 C166 1.406 . S
C164 C169 1.261 . S
C165 H132 0.930 . S
C165 N167 1.325 . S
C165 C168 1.357 . S
C166 H134 0.928 . S
C166 C164 1.406 . S
C166 N167 1.261 . S
N167 Co118 2.214 . S
N167 C165 1.325 . S
N167 C166 1.261 . S
C168 H138 0.931 . S
C168 C165 1.357 . S
C168 C169 1.312 . S
C169 H140 0.930 . S
C169 C164 1.261 . S
C169 C168 1.312 . S
C170 O142 1.214 . S
C170 O150 1.234 . S
C171 H143 0.929 . S
C171 C174 1.391 . S
C171 C176 1.391 . S
C172 H144 0.929 . S
C172 C173 1.390 . S
C172 N175 1.391 . S
C173 H145 0.930 . S
C173 C172 1.390 . S
C173 C174 1.392 . S
C174 H146 0.929 . S
C174 C171 1.391 . S
C174 C173 1.392 . S
N175 Co119 2.257 . S
N175 C172 1.391 . S
N175 C176 1.388 . S
C176 H147 0.930 . S
C176 C171 1.391 . S
C176 N175 1.388 . S
Co177 O179 2.143 . S
Co177 O185 2.074 . S
Co177 O188 2.093 . S
Co177 O201 2.097 1_554 S
Co177 N218 2.151 . S
Co177 N226 2.214 1_554 S
Co178 O179 2.160 . S
Co178 O184 2.058 . S
Co178 O194 2.057 . S
Co178 O209 2.037 1_554 S
Co178 N213 2.145 . S
Co178 N234 2.257 . S
O179 Co177 2.143 . S
O179 Co178 2.160 . S
C180 O181 1.278 . S
C180 O188 1.224 . S
O181 C180 1.278 . S
C182 O183 1.245 . S
C182 O194 1.232 . S
O183 C182 1.245 . S
O184 Co178 2.058 . S
O184 C210 1.269 . S
O185 Co177 2.074 . S
O185 C210 1.257 . S
H186 C211 0.930 . S
H187 C217 0.930 . S
O188 Co177 2.093 . S
O188 C180 1.224 . S
H189 C221 0.929 . S
H190 C223 0.930 . S
H191 C224 0.930 . S
H192 C222 0.929 . S
H193 C225 0.928 . S
O194 Co178 2.057 . S
O194 C182 1.232 . S
H195 C214 0.929 1_556 S
H196 C215 0.929 . S
H197 C227 0.931 . S
H198 C219 0.929 . S
H199 C228 0.930 . S
H200 C220 0.931 . S
O201 Co177 2.097 1_556 S
O201 C229 1.214 . S
H202 C230 0.929 . S
H203 C231 0.922 1_556 S
H204 C232 0.930 1_556 S
H205 C233 0.929 . S
H206 C235 0.930 . S
H207 C212 0.930 . S
H208 C216 0.930 . S
O209 Co178 2.037 1_556 S
O209 C229 1.234 . S
C210 O184 1.269 . S
C210 O185 1.257 . S
C211 H186 0.930 . S
C211 C214 1.388 . S
C211 C216 1.418 . S
C212 H207 0.930 . S
C212 C215 1.404 . S
C212 C216 1.353 . S
N213 Co178 2.145 . S
N213 C214 1.397 . S
N213 C215 1.334 . S
C214 H195 0.929 1_554 S
C214 C211 1.388 . S
C214 N213 1.397 . S
C215 H196 0.929 . S
C215 C212 1.404 . S
C215 N213 1.334 . S
C216 H208 0.930 . S
C216 C211 1.418 . S
C216 C212 1.353 . S
C217 H187 0.930 . S
C217 N218 1.330 . S
C217 C219 1.446 . S
N218 Co177 2.151 . S
N218 C217 1.330 . S
N218 C222 1.418 . S
C219 H198 0.929 . S
C219 C217 1.446 . S
C219 C220 1.332 . S
C220 H200 0.931 . S
C220 C219 1.332 . S
C220 C221 1.267 . S
C221 H189 0.929 . S
C221 C220 1.267 . S
C221 C222 1.251 . S
C222 H192 0.929 . S
C222 N218 1.418 . S
C222 C221 1.251 . S
C223 H190 0.930 . S
C223 C225 1.406 . S
C223 C228 1.261 . S
C224 H191 0.930 . S
C224 N226 1.325 . S
C224 C227 1.357 . S
C225 H193 0.928 . S
C225 C223 1.406 . S
C225 N226 1.261 . S
N226 Co177 2.214 1_556 S
N226 C224 1.325 . S
N226 C225 1.261 . S
C227 H197 0.931 . S
C227 C224 1.357 . S
C227 C228 1.312 . S
C228 H199 0.930 . S
C228 C223 1.261 . S
C228 C227 1.312 . S
C229 O201 1.214 . S
C229 O209 1.234 . S
C230 H202 0.929 . S
C230 C233 1.391 . S
C230 C235 1.391 . S
C231 H203 0.922 1_554 S
C231 C232 1.390 . S
C231 N234 1.391 . S
C232 H204 0.930 1_554 S
C232 C231 1.390 . S
C232 C233 1.392 . S
C233 H205 0.929 . S
C233 C230 1.391 . S
C233 C232 1.392 . S
N234 Co178 2.257 . S
N234 C231 1.391 . S
N234 C235 1.388 . S
C235 H206 0.930 . S
C235 C230 1.391 . S
C235 N234 1.388 . S
Co236 O238 2.143 . S
Co236 O244 2.074 . S
Co236 O247 2.093 . S
Co236 O260 2.097 . S
Co236 N277 2.151 . S
Co236 N285 2.214 . S
Co237 O238 2.160 . S
Co237 O243 2.058 . S
Co237 O253 2.057 . S
Co237 O268 2.037 . S
Co237 N272 2.145 . S
Co237 N293 2.257 . S
O238 Co236 2.143 . S
O238 Co237 2.160 . S
C239 O240 1.278 . S
C239 O247 1.224 . S
O240 C239 1.278 . S
C241 O242 1.245 . S
C241 O253 1.232 . S
O242 C241 1.245 . S
O243 Co237 2.058 . S
O243 C269 1.269 . S
O244 Co236 2.074 . S
O244 C269 1.257 . S
H245 C270 0.930 . S
H246 C276 0.930 . S
O247 Co236 2.093 . S
O247 C239 1.224 . S
H248 C280 0.929 . S
H249 C282 0.930 . S
H250 C283 0.930 . S
H251 C281 0.929 . S
H252 C284 0.928 . S
O253 Co237 2.057 . S
O253 C241 1.232 . S
H254 C273 0.929 . S
H255 C274 0.929 . S
H256 C286 0.931 . S
H257 C278 0.929 . S
H258 C287 0.930 . S
H259 C279 0.931 . S
O260 Co236 2.097 . S
O260 C288 1.214 . S
H261 C289 0.929 . S
H262 C290 0.929 . S
H263 C291 0.930 . S
H264 C292 0.929 . S
H265 C294 0.930 . S
H266 C271 0.930 . S
H267 C275 0.930 . S
O268 Co237 2.037 . S
O268 C288 1.234 . S
C269 O243 1.269 . S
C269 O244 1.257 . S
C270 H245 0.930 . S
C270 C273 1.388 . S
C270 C275 1.418 . S
C271 H266 0.930 . S
C271 C274 1.404 . S
C271 C275 1.353 . S
N272 Co237 2.145 . S
N272 C273 1.397 . S
N272 C274 1.334 . S
C273 H254 0.929 . S
C273 C270 1.388 . S
C273 N272 1.397 . S
C274 H255 0.929 . S
C274 C271 1.404 . S
C274 N272 1.334 . S
C275 H267 0.930 . S
C275 C270 1.418 . S
C275 C271 1.353 . S
C276 H246 0.930 . S
C276 N277 1.330 . S
C276 C278 1.446 . S
N277 Co236 2.151 . S
N277 C276 1.330 . S
N277 C281 1.418 . S
C278 H257 0.929 . S
C278 C276 1.446 . S
C278 C279 1.332 . S
C279 H259 0.931 . S
C279 C278 1.332 . S
C279 C280 1.267 . S
C280 H248 0.929 . S
C280 C279 1.267 . S
C280 C281 1.251 . S
C281 H251 0.929 . S
C281 N277 1.418 . S
C281 C280 1.251 . S
C282 H249 0.930 . S
C282 C284 1.406 . S
C282 C287 1.261 . S
C283 H250 0.930 . S
C283 N285 1.325 . S
C283 C286 1.357 . S
C284 H252 0.928 . S
C284 C282 1.406 . S
C284 N285 1.261 . S
N285 Co236 2.214 . S
N285 C283 1.325 . S
N285 C284 1.261 . S
C286 H256 0.931 . S
C286 C283 1.357 . S
C286 C287 1.312 . S
C287 H258 0.930 . S
C287 C282 1.261 . S
C287 C286 1.312 . S
C288 O260 1.214 . S
C288 O268 1.234 . S
C289 H261 0.929 . S
C289 C292 1.391 . S
C289 C294 1.391 . S
C290 H262 0.929 . S
C290 C291 1.390 . S
C290 N293 1.391 . S
C291 H263 0.930 . S
C291 C290 1.390 . S
C291 C292 1.392 . S
C292 H264 0.929 . S
C292 C289 1.391 . S
C292 C291 1.392 . S
N293 Co237 2.257 . S
N293 C290 1.391 . S
N293 C294 1.388 . S
C294 H265 0.930 . S
C294 C289 1.391 . S
C294 N293 1.388 . S
Co295 O297 2.143 . S
Co295 O303 2.074 . S
Co295 O306 2.093 . S
Co295 O319 2.097 . S
Co295 N336 2.151 . S
Co295 N344 2.214 . S
Co296 O297 2.160 . S
Co296 O302 2.058 . S
Co296 O312 2.057 . S
Co296 O327 2.037 . S
Co296 N331 2.145 . S
Co296 N352 2.257 . S
O297 Co295 2.143 . S
O297 Co296 2.160 . S
C298 O299 1.278 . S
C298 O306 1.224 . S
O299 C298 1.278 . S
C300 O301 1.245 . S
C300 O312 1.232 . S
O301 C300 1.245 . S
O302 Co296 2.058 . S
O302 C328 1.269 . S
O303 Co295 2.074 . S
O303 C328 1.257 . S
H304 C329 0.930 . S
H305 C335 0.930 . S
O306 Co295 2.093 . S
O306 C298 1.224 . S
H307 C339 0.929 . S
H308 C341 0.930 . S
H309 C342 0.930 . S
H310 C340 0.929 . S
H311 C343 0.928 . S
O312 Co296 2.057 . S
O312 C300 1.232 . S
H313 C332 0.929 . S
H314 C333 0.929 . S
H315 C345 0.931 . S
H316 C337 0.929 . S
H317 C346 0.930 . S
H318 C338 0.931 . S
O319 Co295 2.097 . S
O319 C347 1.214 . S
H320 C348 0.929 . S
H321 C349 0.929 . S
H322 C350 0.930 . S
H323 C351 0.929 . S
H324 C353 0.930 . S
H325 C330 0.930 . S
H326 C334 0.930 . S
O327 Co296 2.037 . S
O327 C347 1.234 . S
C328 O302 1.269 . S
C328 O303 1.257 . S
C329 H304 0.930 . S
C329 C332 1.388 . S
C329 C334 1.418 . S
C330 H325 0.930 . S
C330 C333 1.404 . S
C330 C334 1.353 . S
N331 Co296 2.145 . S
N331 C332 1.397 . S
N331 C333 1.334 . S
C332 H313 0.929 . S
C332 C329 1.388 . S
C332 N331 1.397 . S
C333 H314 0.929 . S
C333 C330 1.404 . S
C333 N331 1.334 . S
C334 H326 0.930 . S
C334 C329 1.418 . S
C334 C330 1.353 . S
C335 H305 0.930 . S
C335 N336 1.330 . S
C335 C337 1.446 . S
N336 Co295 2.151 . S
N336 C335 1.330 . S
N336 C340 1.418 . S
C337 H316 0.929 . S
C337 C335 1.446 . S
C337 C338 1.332 . S
C338 H318 0.931 . S
C338 C337 1.332 . S
C338 C339 1.267 . S
C339 H307 0.929 . S
C339 C338 1.267 . S
C339 C340 1.251 . S
C340 H310 0.929 . S
C340 N336 1.418 . S
C340 C339 1.251 . S
C341 H308 0.930 . S
C341 C343 1.406 . S
C341 C346 1.261 . S
C342 H309 0.930 . S
C342 N344 1.325 . S
C342 C345 1.357 . S
C343 H311 0.928 . S
C343 C341 1.406 . S
C343 N344 1.261 . S
N344 Co295 2.214 . S
N344 C342 1.325 . S
N344 C343 1.261 . S
C345 H315 0.931 . S
C345 C342 1.357 . S
C345 C346 1.312 . S
C346 H317 0.930 . S
C346 C341 1.261 . S
C346 C345 1.312 . S
C347 O319 1.214 . S
C347 O327 1.234 . S
C348 H320 0.929 . S
C348 C351 1.391 . S
C348 C353 1.391 . S
C349 H321 0.929 . S
C349 C350 1.390 . S
C349 N352 1.391 . S
C350 H322 0.930 . S
C350 C349 1.390 . S
C350 C351 1.392 . S
C351 H323 0.929 . S
C351 C348 1.391 . S
C351 C350 1.392 . S
N352 Co296 2.257 . S
N352 C349 1.391 . S
N352 C353 1.388 . S
C353 H324 0.930 . S
C353 C348 1.391 . S
C353 N352 1.388 . S
Co354 O356 2.143 . S
Co354 O362 2.074 . S
Co354 O365 2.093 . S
Co354 O378 2.097 . S
Co354 N395 2.151 . S
Co354 N403 2.214 . S
Co355 O356 2.160 . S
Co355 O361 2.058 . S
Co355 O371 2.057 . S
Co355 O386 2.037 . S
Co355 N390 2.145 . S
Co355 N411 2.257 . S
O356 Co354 2.143 . S
O356 Co355 2.160 . S
C357 O358 1.278 . S
C357 O365 1.224 . S
O358 C357 1.278 . S
C359 O360 1.245 . S
C359 O371 1.232 . S
O360 C359 1.245 . S
O361 Co355 2.058 . S
O361 C387 1.269 . S
O362 Co354 2.074 . S
O362 C387 1.257 . S
H363 C388 0.930 . S
H364 C394 0.930 . S
O365 Co354 2.093 . S
O365 C357 1.224 . S
H366 C398 0.929 . S
H367 C400 0.930 . S
H368 C401 0.930 . S
H369 C399 0.929 . S
H370 C402 0.928 . S
O371 Co355 2.057 . S
O371 C359 1.232 . S
H372 C391 0.929 . S
H373 C392 0.929 . S
H374 C404 0.931 . S
H375 C396 0.929 . S
H376 C405 0.930 . S
H377 C397 0.931 . S
O378 Co354 2.097 . S
O378 C406 1.214 . S
H379 C407 0.929 . S
H380 C408 0.929 . S
H381 C409 0.930 . S
H382 C410 0.929 . S
H383 C412 0.930 . S
H384 C389 0.930 . S
H385 C393 0.930 . S
O386 Co355 2.037 . S
O386 C406 1.234 . S
C387 O361 1.269 . S
C387 O362 1.257 . S
C388 H363 0.930 . S
C388 C391 1.388 . S
C388 C393 1.418 . S
C389 H384 0.930 . S
C389 C392 1.404 . S
C389 C393 1.353 . S
N390 Co355 2.145 . S
N390 C391 1.397 . S
N390 C392 1.334 . S
C391 H372 0.929 . S
C391 C388 1.388 . S
C391 N390 1.397 . S
C392 H373 0.929 . S
C392 C389 1.404 . S
C392 N390 1.334 . S
C393 H385 0.930 . S
C393 C388 1.418 . S
C393 C389 1.353 . S
C394 H364 0.930 . S
C394 N395 1.330 . S
C394 C396 1.446 . S
N395 Co354 2.151 . S
N395 C394 1.330 . S
N395 C399 1.418 . S
C396 H375 0.929 . S
C396 C394 1.446 . S
C396 C397 1.332 . S
C397 H377 0.931 . S
C397 C396 1.332 . S
C397 C398 1.267 . S
C398 H366 0.929 . S
C398 C397 1.267 . S
C398 C399 1.251 . S
C399 H369 0.929 . S
C399 N395 1.418 . S
C399 C398 1.251 . S
C400 H367 0.930 . S
C400 C402 1.406 . S
C400 C405 1.261 . S
C401 H368 0.930 . S
C401 N403 1.325 . S
C401 C404 1.357 . S
C402 H370 0.928 . S
C402 C400 1.406 . S
C402 N403 1.261 . S
N403 Co354 2.214 . S
N403 C401 1.325 . S
N403 C402 1.261 . S
C404 H374 0.931 . S
C404 C401 1.357 . S
C404 C405 1.312 . S
C405 H376 0.930 . S
C405 C400 1.261 . S
C405 C404 1.312 . S
C406 O378 1.214 . S
C406 O386 1.234 . S
C407 H379 0.929 . S
C407 C410 1.391 . S
C407 C412 1.391 . S
C408 H380 0.929 . S
C408 C409 1.390 . S
C408 N411 1.391 . S
C409 H381 0.930 . S
C409 C408 1.390 . S
C409 C410 1.392 . S
C410 H382 0.929 . S
C410 C407 1.391 . S
C410 C409 1.392 . S
N411 Co355 2.257 . S
N411 C408 1.391 . S
N411 C412 1.388 . S
C412 H383 0.930 . S
C412 C407 1.391 . S
C412 N411 1.388 . S
Co413 O415 2.143 . S
Co413 O421 2.074 . S
Co413 O424 2.093 . S
Co413 O437 2.097 1_556 S
Co413 N454 2.151 . S
Co413 N462 2.214 1_556 S
Co414 O415 2.160 . S
Co414 O420 2.058 . S
Co414 O430 2.057 . S
Co414 O445 2.037 1_556 S
Co414 N449 2.145 . S
Co414 N470 2.257 . S
O415 Co413 2.143 . S
O415 Co414 2.160 . S
C416 O417 1.278 . S
C416 O424 1.224 . S
O417 C416 1.278 . S
C418 O419 1.245 . S
C418 O430 1.232 . S
O419 C418 1.245 . S
O420 Co414 2.058 . S
O420 C446 1.269 . S
O421 Co413 2.074 . S
O421 C446 1.257 . S
H422 C447 0.930 . S
H423 C453 0.930 . S
O424 Co413 2.093 . S
O424 C416 1.224 . S
H425 C457 0.929 . S
H426 C459 0.930 . S
H427 C460 0.930 . S
H428 C458 0.929 . S
H429 C461 0.928 . S
O430 Co414 2.057 . S
O430 C418 1.232 . S
H431 C450 0.929 1_554 S
H432 C451 0.929 . S
H433 C463 0.931 . S
H434 C455 0.929 . S
H435 C464 0.930 . S
H436 C456 0.931 . S
O437 Co413 2.097 1_554 S
O437 C465 1.214 . S
H438 C466 0.929 . S
H439 C467 0.922 1_554 S
H440 C468 0.930 1_554 S
H441 C469 0.929 . S
H442 C471 0.930 . S
H443 C448 0.930 . S
H444 C452 0.930 . S
O445 Co414 2.037 1_554 S
O445 C465 1.234 . S
C446 O420 1.269 . S
C446 O421 1.257 . S
C447 H422 0.930 . S
C447 C450 1.388 . S
C447 C452 1.418 . S
C448 H443 0.930 . S
C448 C451 1.404 . S
C448 C452 1.353 . S
N449 Co414 2.145 . S
N449 C450 1.397 . S
N449 C451 1.334 . S
C450 H431 0.929 1_556 S
C450 C447 1.388 . S
C450 N449 1.397 . S
C451 H432 0.929 . S
C451 C448 1.404 . S
C451 N449 1.334 . S
C452 H444 0.930 . S
C452 C447 1.418 . S
C452 C448 1.353 . S
C453 H423 0.930 . S
C453 N454 1.330 . S
C453 C455 1.446 . S
N454 Co413 2.151 . S
N454 C453 1.330 . S
N454 C458 1.418 . S
C455 H434 0.929 . S
C455 C453 1.446 . S
C455 C456 1.332 . S
C456 H436 0.931 . S
C456 C455 1.332 . S
C456 C457 1.267 . S
C457 H425 0.929 . S
C457 C456 1.267 . S
C457 C458 1.251 . S
C458 H428 0.929 . S
C458 N454 1.418 . S
C458 C457 1.251 . S
C459 H426 0.930 . S
C459 C461 1.406 . S
C459 C464 1.261 . S
C460 H427 0.930 . S
C460 N462 1.325 . S
C460 C463 1.357 . S
C461 H429 0.928 . S
C461 C459 1.406 . S
C461 N462 1.261 . S
N462 Co413 2.214 1_554 S
N462 C460 1.325 . S
N462 C461 1.261 . S
C463 H433 0.931 . S
C463 C460 1.357 . S
C463 C464 1.312 . S
C464 H435 0.930 . S
C464 C459 1.261 . S
C464 C463 1.312 . S
C465 O437 1.214 . S
C465 O445 1.234 . S
C466 H438 0.929 . S
C466 C469 1.391 . S
C466 C471 1.391 . S
C467 H439 0.922 1_556 S
C467 C468 1.390 . S
C467 N470 1.391 . S
C468 H440 0.930 1_556 S
C468 C467 1.390 . S
C468 C469 1.392 . S
C469 H441 0.929 . S
C469 C466 1.391 . S
C469 C468 1.392 . S
N470 Co414 2.257 . S
N470 C467 1.391 . S
N470 C471 1.388 . S
C471 H442 0.930 . S
C471 C466 1.391 . S
C471 N470 1.388 . S
Co472 O474 2.143 . S
Co472 O480 2.074 . S
Co472 O483 2.093 . S
Co472 O496 2.097 . S
Co472 N513 2.151 . S
Co472 N521 2.214 . S
Co473 O474 2.160 . S
Co473 O479 2.058 . S
Co473 O489 2.057 . S
Co473 O504 2.037 . S
Co473 N508 2.145 . S
Co473 N529 2.257 . S
O474 Co472 2.143 . S
O474 Co473 2.160 . S
C475 O476 1.278 . S
C475 O483 1.224 . S
O476 C475 1.278 . S
C477 O478 1.245 . S
C477 O489 1.232 . S
O478 C477 1.245 . S
O479 Co473 2.058 . S
O479 C505 1.269 . S
O480 Co472 2.074 . S
O480 C505 1.257 . S
H481 C506 0.930 . S
H482 C512 0.930 . S
O483 Co472 2.093 . S
O483 C475 1.224 . S
H484 C516 0.929 . S
H485 C518 0.930 . S
H486 C519 0.930 . S
H487 C517 0.929 . S
H488 C520 0.928 . S
O489 Co473 2.057 . S
O489 C477 1.232 . S
H490 C509 0.929 . S
H491 C510 0.929 . S
H492 C522 0.931 . S
H493 C514 0.929 . S
H494 C523 0.930 . S
H495 C515 0.931 . S
O496 Co472 2.097 . S
O496 C524 1.214 . S
H497 C525 0.929 . S
H498 C526 0.929 . S
H499 C527 0.930 . S
H500 C528 0.929 . S
H501 C530 0.930 . S
H502 C507 0.930 . S
H503 C511 0.930 . S
O504 Co473 2.037 . S
O504 C524 1.234 . S
C505 O479 1.269 . S
C505 O480 1.257 . S
C506 H481 0.930 . S
C506 C509 1.388 . S
C506 C511 1.418 . S
C507 H502 0.930 . S
C507 C510 1.404 . S
C507 C511 1.353 . S
N508 Co473 2.145 . S
N508 C509 1.397 . S
N508 C510 1.334 . S
C509 H490 0.929 . S
C509 C506 1.388 . S
C509 N508 1.397 . S
C510 H491 0.929 . S
C510 C507 1.404 . S
C510 N508 1.334 . S
C511 H503 0.930 . S
C511 C506 1.418 . S
C511 C507 1.353 . S
C512 H482 0.930 . S
C512 N513 1.330 . S
C512 C514 1.446 . S
N513 Co472 2.151 . S
N513 C512 1.330 . S
N513 C517 1.418 . S
C514 H493 0.929 . S
C514 C512 1.446 . S
C514 C515 1.332 . S
C515 H495 0.931 . S
C515 C514 1.332 . S
C515 C516 1.267 . S
C516 H484 0.929 . S
C516 C515 1.267 . S
C516 C517 1.251 . S
C517 H487 0.929 . S
C517 N513 1.418 . S
C517 C516 1.251 . S
C518 H485 0.930 . S
C518 C520 1.406 . S
C518 C523 1.261 . S
C519 H486 0.930 . S
C519 N521 1.325 . S
C519 C522 1.357 . S
C520 H488 0.928 . S
C520 C518 1.406 . S
C520 N521 1.261 . S
N521 Co472 2.214 . S
N521 C519 1.325 . S
N521 C520 1.261 . S
C522 H492 0.931 . S
C522 C519 1.357 . S
C522 C523 1.312 . S
C523 H494 0.930 . S
C523 C518 1.261 . S
C523 C522 1.312 . S
C524 O496 1.214 . S
C524 O504 1.234 . S
C525 H497 0.929 . S
C525 C528 1.391 . S
C525 C530 1.391 . S
C526 H498 0.929 . S
C526 C527 1.390 . S
C526 N529 1.391 . S
C527 H499 0.930 . S
C527 C526 1.390 . S
C527 C528 1.392 . S
C528 H500 0.929 . S
C528 C525 1.391 . S
C528 C527 1.392 . S
N529 Co473 2.257 . S
N529 C526 1.391 . S
N529 C530 1.388 . S
C530 H501 0.930 . S
C530 C525 1.391 . S
C530 N529 1.388 . S
Co531 O533 2.143 . S
Co531 O539 2.074 . S
Co531 O542 2.093 . S
Co531 O555 2.097 . S
Co531 N572 2.151 . S
Co531 N580 2.214 . S
Co532 O533 2.160 . S
Co532 O538 2.058 . S
Co532 O548 2.057 . S
Co532 O563 2.037 . S
Co532 N567 2.145 . S
Co532 N588 2.257 . S
O533 Co531 2.143 . S
O533 Co532 2.160 . S
C534 O535 1.278 . S
C534 O542 1.224 . S
O535 C534 1.278 . S
C536 O537 1.245 . S
C536 O548 1.232 . S
O537 C536 1.245 . S
O538 Co532 2.058 . S
O538 C564 1.269 . S
O539 Co531 2.074 . S
O539 C564 1.257 . S
H540 C565 0.930 . S
H541 C571 0.930 . S
O542 Co531 2.093 . S
O542 C534 1.224 . S
H543 C575 0.929 . S
H544 C577 0.930 . S
H545 C578 0.930 . S
H546 C576 0.929 . S
H547 C579 0.928 . S
O548 Co532 2.057 . S
O548 C536 1.232 . S
H549 C568 0.929 . S
H550 C569 0.929 . S
H551 C581 0.931 . S
H552 C573 0.929 . S
H553 C582 0.930 . S
H554 C574 0.931 . S
O555 Co531 2.097 . S
O555 C583 1.214 . S
H556 C584 0.929 . S
H557 C585 0.929 . S
H558 C586 0.930 . S
H559 C587 0.929 . S
H560 C589 0.930 . S
H561 C566 0.930 . S
H562 C570 0.930 . S
O563 Co532 2.037 . S
O563 C583 1.234 . S
C564 O538 1.269 . S
C564 O539 1.257 . S
C565 H540 0.930 . S
C565 C568 1.388 . S
C565 C570 1.418 . S
C566 H561 0.930 . S
C566 C569 1.404 . S
C566 C570 1.353 . S
N567 Co532 2.145 . S
N567 C568 1.397 . S
N567 C569 1.334 . S
C568 H549 0.929 . S
C568 C565 1.388 . S
C568 N567 1.397 . S
C569 H550 0.929 . S
C569 C566 1.404 . S
C569 N567 1.334 . S
C570 H562 0.930 . S
C570 C565 1.418 . S
C570 C566 1.353 . S
C571 H541 0.930 . S
C571 N572 1.330 . S
C571 C573 1.446 . S
N572 Co531 2.151 . S
N572 C571 1.330 . S
N572 C576 1.418 . S
C573 H552 0.929 . S
C573 C571 1.446 . S
C573 C574 1.332 . S
C574 H554 0.931 . S
C574 C573 1.332 . S
C574 C575 1.267 . S
C575 H543 0.929 . S
C575 C574 1.267 . S
C575 C576 1.251 . S
C576 H546 0.929 . S
C576 N572 1.418 . S
C576 C575 1.251 . S
C577 H544 0.930 . S
C577 C579 1.406 . S
C577 C582 1.261 . S
C578 H545 0.930 . S
C578 N580 1.325 . S
C578 C581 1.357 . S
C579 H547 0.928 . S
C579 C577 1.406 . S
C579 N580 1.261 . S
N580 Co531 2.214 . S
N580 C578 1.325 . S
N580 C579 1.261 . S
C581 H551 0.931 . S
C581 C578 1.357 . S
C581 C582 1.312 . S
C582 H553 0.930 . S
C582 C577 1.261 . S
C582 C581 1.312 . S
C583 O555 1.214 . S
C583 O563 1.234 . S
C584 H556 0.929 . S
C584 C587 1.391 . S
C584 C589 1.391 . S
C585 H557 0.929 . S
C585 C586 1.390 . S
C585 N588 1.391 . S
C586 H558 0.930 . S
C586 C585 1.390 . S
C586 C587 1.392 . S
C587 H559 0.929 . S
C587 C584 1.391 . S
C587 C586 1.392 . S
N588 Co532 2.257 . S
N588 C585 1.391 . S
N588 C589 1.388 . S
C589 H560 0.930 . S
C589 C584 1.391 . S
C589 N588 1.388 . S
Co590 O592 2.143 . S
Co590 O598 2.074 . S
Co590 O601 2.093 . S
Co590 O614 2.097 1_556 S
Co590 N631 2.151 . S
Co590 N639 2.214 1_556 S
Co591 O592 2.160 . S
Co591 O597 2.058 . S
Co591 O607 2.057 . S
Co591 O622 2.037 1_556 S
Co591 N626 2.145 . S
Co591 N647 2.257 . S
O592 Co590 2.143 . S
O592 Co591 2.160 . S
C593 O594 1.278 . S
C593 O601 1.224 . S
O594 C593 1.278 . S
C595 O596 1.245 . S
C595 O607 1.232 . S
O596 C595 1.245 . S
O597 Co591 2.058 . S
O597 C623 1.269 . S
O598 Co590 2.074 . S
O598 C623 1.257 . S
H599 C624 0.930 . S
H600 C630 0.930 . S
O601 Co590 2.093 . S
O601 C593 1.224 . S
H602 C634 0.929 . S
H603 C636 0.930 . S
H604 C637 0.930 . S
H605 C635 0.929 . S
H606 C638 0.928 . S
O607 Co591 2.057 . S
O607 C595 1.232 . S
H608 C627 0.929 1_554 S
H609 C628 0.929 . S
H610 C640 0.931 . S
H611 C632 0.929 . S
H612 C641 0.930 . S
H613 C633 0.931 . S
O614 Co590 2.097 1_554 S
O614 C642 1.214 . S
H615 C643 0.929 . S
H616 C644 0.922 1_554 S
H617 C645 0.930 1_554 S
H618 C646 0.929 . S
H619 C648 0.930 . S
H620 C625 0.930 . S
H621 C629 0.930 . S
O622 Co591 2.037 1_554 S
O622 C642 1.234 . S
C623 O597 1.269 . S
C623 O598 1.257 . S
C624 H599 0.930 . S
C624 C627 1.388 . S
C624 C629 1.418 . S
C625 H620 0.930 . S
C625 C628 1.404 . S
C625 C629 1.353 . S
N626 Co591 2.145 . S
N626 C627 1.397 . S
N626 C628 1.334 . S
C627 H608 0.929 1_556 S
C627 C624 1.388 . S
C627 N626 1.397 . S
C628 H609 0.929 . S
C628 C625 1.404 . S
C628 N626 1.334 . S
C629 H621 0.930 . S
C629 C624 1.418 . S
C629 C625 1.353 . S
C630 H600 0.930 . S
C630 N631 1.330 . S
C630 C632 1.446 . S
N631 Co590 2.151 . S
N631 C630 1.330 . S
N631 C635 1.418 . S
C632 H611 0.929 . S
C632 C630 1.446 . S
C632 C633 1.332 . S
C633 H613 0.931 . S
C633 C632 1.332 . S
C633 C634 1.267 . S
C634 H602 0.929 . S
C634 C633 1.267 . S
C634 C635 1.251 . S
C635 H605 0.929 . S
C635 N631 1.418 . S
C635 C634 1.251 . S
C636 H603 0.930 . S
C636 C638 1.406 . S
C636 C641 1.261 . S
C637 H604 0.930 . S
C637 N639 1.325 . S
C637 C640 1.357 . S
C638 H606 0.928 . S
C638 C636 1.406 . S
C638 N639 1.261 . S
N639 Co590 2.214 1_554 S
N639 C637 1.325 . S
N639 C638 1.261 . S
C640 H610 0.931 . S
C640 C637 1.357 . S
C640 C641 1.312 . S
C641 H612 0.930 . S
C641 C636 1.261 . S
C641 C640 1.312 . S
C642 O614 1.214 . S
C642 O622 1.234 . S
C643 H615 0.929 . S
C643 C646 1.391 . S
C643 C648 1.391 . S
C644 H616 0.922 1_556 S
C644 C645 1.390 . S
C644 N647 1.391 . S
C645 H617 0.930 1_556 S
C645 C644 1.390 . S
C645 C646 1.392 . S
C646 H618 0.929 . S
C646 C643 1.391 . S
C646 C645 1.392 . S
N647 Co591 2.257 . S
N647 C644 1.391 . S
N647 C648 1.388 . S
C648 H619 0.930 . S
C648 C643 1.391 . S
C648 N647 1.388 . S
Co649 O651 2.143 . S
Co649 O657 2.074 . S
Co649 O660 2.093 . S
Co649 O673 2.097 . S
Co649 N690 2.151 . S
Co649 N698 2.214 . S
Co650 O651 2.160 . S
Co650 O656 2.058 . S
Co650 O666 2.057 . S
Co650 O681 2.037 . S
Co650 N685 2.145 . S
Co650 N706 2.257 . S
O651 Co649 2.143 . S
O651 Co650 2.160 . S
C652 O653 1.278 . S
C652 O660 1.224 . S
O653 C652 1.278 . S
C654 O655 1.245 . S
C654 O666 1.232 . S
O655 C654 1.245 . S
O656 Co650 2.058 . S
O656 C682 1.269 . S
O657 Co649 2.074 . S
O657 C682 1.257 . S
H658 C683 0.930 . S
H659 C689 0.930 . S
O660 Co649 2.093 . S
O660 C652 1.224 . S
H661 C693 0.929 . S
H662 C695 0.930 . S
H663 C696 0.930 . S
H664 C694 0.929 . S
H665 C697 0.928 . S
O666 Co650 2.057 . S
O666 C654 1.232 . S
H667 C686 0.929 . S
H668 C687 0.929 . S
H669 C699 0.931 . S
H670 C691 0.929 . S
H671 C700 0.930 . S
H672 C692 0.931 . S
O673 Co649 2.097 . S
O673 C701 1.214 . S
H674 C702 0.929 . S
H675 C703 0.929 . S
H676 C704 0.930 . S
H677 C705 0.929 . S
H678 C707 0.930 . S
H679 C684 0.930 . S
H680 C688 0.930 . S
O681 Co650 2.037 . S
O681 C701 1.234 . S
C682 O656 1.269 . S
C682 O657 1.257 . S
C683 H658 0.930 . S
C683 C686 1.388 . S
C683 C688 1.418 . S
C684 H679 0.930 . S
C684 C687 1.404 . S
C684 C688 1.353 . S
N685 Co650 2.145 . S
N685 C686 1.397 . S
N685 C687 1.334 . S
C686 H667 0.929 . S
C686 C683 1.388 . S
C686 N685 1.397 . S
C687 H668 0.929 . S
C687 C684 1.404 . S
C687 N685 1.334 . S
C688 H680 0.930 . S
C688 C683 1.418 . S
C688 C684 1.353 . S
C689 H659 0.930 . S
C689 N690 1.330 . S
C689 C691 1.446 . S
N690 Co649 2.151 . S
N690 C689 1.330 . S
N690 C694 1.418 . S
C691 H670 0.929 . S
C691 C689 1.446 . S
C691 C692 1.332 . S
C692 H672 0.931 . S
C692 C691 1.332 . S
C692 C693 1.267 . S
C693 H661 0.929 . S
C693 C692 1.267 . S
C693 C694 1.251 . S
C694 H664 0.929 . S
C694 N690 1.418 . S
C694 C693 1.251 . S
C695 H662 0.930 . S
C695 C697 1.406 . S
C695 C700 1.261 . S
C696 H663 0.930 . S
C696 N698 1.325 . S
C696 C699 1.357 . S
C697 H665 0.928 . S
C697 C695 1.406 . S
C697 N698 1.261 . S
N698 Co649 2.214 . S
N698 C696 1.325 . S
N698 C697 1.261 . S
C699 H669 0.931 . S
C699 C696 1.357 . S
C699 C700 1.312 . S
C700 H671 0.930 . S
C700 C695 1.261 . S
C700 C699 1.312 . S
C701 O673 1.214 . S
C701 O681 1.234 . S
C702 H674 0.929 . S
C702 C705 1.391 . S
C702 C707 1.391 . S
C703 H675 0.929 . S
C703 C704 1.390 . S
C703 N706 1.391 . S
C704 H676 0.930 . S
C704 C703 1.390 . S
C704 C705 1.392 . S
C705 H677 0.929 . S
C705 C702 1.391 . S
C705 C704 1.392 . S
N706 Co650 2.257 . S
N706 C703 1.391 . S
N706 C707 1.388 . S
C707 H678 0.930 . S
C707 C702 1.391 . S
C707 N706 1.388 . S
C708 C709 1.369 . S
C708 C710 1.419 . S
C708 H712 0.930 . S
C709 C708 1.369 . S
C709 C718 1.429 . S
C710 C708 1.419 . S
C710 C711 1.363 . S
C710 H713 0.929 . S
C711 C710 1.363 . S
C711 C717 1.428 . S
H712 C708 0.930 . S
H713 C710 0.929 . S
S714 N715 1.613 . S
S714 N716 1.610 . S
N715 S714 1.613 . S
N715 C718 1.350 . S
N716 S714 1.610 . S
N716 C717 1.351 . S
C717 C711 1.428 . S
C717 N716 1.351 . S
C717 C718 1.434 . S
C718 C709 1.429 . S
C718 N715 1.350 . S
C718 C717 1.434 . S
C719 C720 1.369 . S
C719 C721 1.419 . S
C719 H723 0.930 . S
C720 C719 1.369 . S
C720 C729 1.429 . S
C721 C719 1.419 . S
C721 C722 1.363 . S
C721 H724 0.929 . S
C722 C721 1.363 . S
C722 C728 1.428 . S
H723 C719 0.930 . S
H724 C721 0.929 . S
S725 N726 1.613 . S
S725 N727 1.610 . S
N726 S725 1.613 . S
N726 C729 1.350 . S
N727 S725 1.610 . S
N727 C728 1.351 . S
C728 C722 1.428 . S
C728 N727 1.351 . S
C728 C729 1.434 . S
C729 C720 1.429 . S
C729 N726 1.350 . S
C729 C728 1.434 . S
C730 C731 1.369 . S
C730 C732 1.419 1_556 S
C730 H734 0.930 . S
C731 C730 1.369 . S
C731 C740 1.429 . S
C732 C730 1.419 1_554 S
C732 C733 1.363 . S
C732 H735 0.929 . S
C733 C732 1.363 . S
C733 C739 1.428 . S
H734 C730 0.930 . S
H735 C732 0.929 . S
S736 N737 1.608 1_554 S
S736 N738 1.615 . S
N737 S736 1.608 1_556 S
N737 C740 1.350 . S
N738 S736 1.615 . S
N738 C739 1.351 . S
C739 C733 1.428 . S
C739 N738 1.351 . S
C739 C740 1.434 1_554 S
C740 C731 1.429 . S
C740 N737 1.350 . S
C740 C739 1.434 1_556 S
C741 C742 1.369 . S
C741 C743 1.419 . S
C741 H745 0.930 . S
C742 C741 1.369 . S
C742 C751 1.429 . S
C743 C741 1.419 . S
C743 C744 1.363 . S
C743 H746 0.929 . S
C744 C743 1.363 . S
C744 C750 1.428 . S
H745 C741 0.930 . S
H746 C743 0.929 . S
S747 N748 1.613 . S
S747 N749 1.610 . S
N748 S747 1.613 . S
N748 C751 1.350 . S
N749 S747 1.610 . S
N749 C750 1.351 . S
C750 C744 1.428 . S
C750 N749 1.351 . S
C750 C751 1.434 . S
C751 C742 1.429 . S
C751 N748 1.350 . S
C751 C750 1.434 . S
C752 C753 1.369 . S
C752 C754 1.419 . S
C752 H756 0.930 . S
C753 C752 1.369 . S
C753 C762 1.429 . S
C754 C752 1.419 . S
C754 C755 1.363 . S
C754 H757 0.929 . S
C755 C754 1.363 . S
C755 C761 1.428 . S
H756 C752 0.930 . S
H757 C754 0.929 . S
S758 N759 1.613 . S
S758 N760 1.610 . S
N759 S758 1.613 . S
N759 C762 1.350 . S
N760 S758 1.610 . S
N760 C761 1.351 . S
C761 C755 1.428 . S
C761 N760 1.351 . S
C761 C762 1.434 . S
C762 C753 1.429 . S
C762 N759 1.350 . S
C762 C761 1.434 . S
C763 C764 1.369 . S
C763 C765 1.419 1_554 S
C763 H767 0.930 . S
C764 C763 1.369 . S
C764 C773 1.429 . S
C765 C763 1.419 1_556 S
C765 C766 1.363 . S
C765 H768 0.929 . S
C766 C765 1.363 . S
C766 C772 1.428 . S
H767 C763 0.930 . S
H768 C765 0.929 . S
S769 N770 1.613 1_556 S
S769 N771 1.610 . S
N770 S769 1.613 1_554 S
N770 C773 1.350 . S
N771 S769 1.610 . S
N771 C772 1.351 . S
C772 C766 1.428 . S
C772 N771 1.351 . S
C772 C773 1.434 1_556 S
C773 C764 1.429 . S
C773 N770 1.350 . S
C773 C772 1.434 1_554 S
C774 C775 1.369 . S
C774 C776 1.419 . S
C774 H778 0.930 . S
C775 C774 1.369 . S
C775 C784 1.429 1_554 S
C776 C774 1.419 . S
C776 C777 1.363 1_554 S
C776 H779 0.929 . S
C777 C776 1.363 1_556 S
C777 C783 1.428 . S
H778 C774 0.930 . S
H779 C776 0.929 . S
S780 N781 1.613 . S
S780 N782 1.610 . S
N781 S780 1.613 . S
N781 C784 1.350 . S
N782 S780 1.610 . S
N782 C783 1.351 . S
C783 C777 1.428 . S
C783 N782 1.351 . S
C783 C784 1.434 . S
C784 C775 1.429 1_556 S
C784 N781 1.350 . S
C784 C783 1.434 . S
C785 C786 1.369 . S
C785 C787 1.419 . S
C785 H789 0.930 . S
C786 C785 1.369 . S
C786 C795 1.429 . S
C787 C785 1.419 . S
C787 C788 1.363 . S
C787 H790 0.929 . S
C788 C787 1.363 . S
C788 C794 1.428 . S
H789 C785 0.930 . S
H790 C787 0.929 . S
S791 N792 1.613 . S
S791 N793 1.610 . S
N792 S791 1.613 . S
N792 C795 1.350 . S
N793 S791 1.610 . S
N793 C794 1.351 . S
C794 C788 1.428 . S
C794 N793 1.351 . S
C794 C795 1.434 . S
C795 C786 1.429 . S
C795 N792 1.350 . S
C795 C794 1.434 . S
C796 C797 1.369 . S
C796 C798 1.419 . S
C796 H800 0.930 . S
C797 C796 1.369 . S
C797 C806 1.429 . S
C798 C796 1.419 . S
C798 C799 1.363 . S
C798 H801 0.929 . S
C799 C798 1.363 . S
C799 C805 1.428 . S
H800 C796 0.930 . S
H801 C798 0.929 . S
S802 N803 1.613 . S
S802 N804 1.610 . S
N803 S802 1.613 . S
N803 C806 1.350 . S
N804 S802 1.610 . S
N804 C805 1.351 . S
C805 C799 1.428 . S
C805 N804 1.351 . S
C805 C806 1.434 . S
C806 C797 1.429 . S
C806 N803 1.350 . S
C806 C805 1.434 . S
C807 C808 1.369 1_556 S
C807 C809 1.419 . S
C807 H811 0.930 . S
C808 C807 1.369 1_554 S
C808 C817 1.429 . S
C809 C807 1.419 . S
C809 C810 1.363 . S
C809 H812 0.929 . S
C810 C809 1.363 . S
C810 C816 1.428 1_556 S
H811 C807 0.930 . S
H812 C809 0.929 . S
S813 N814 1.613 . S
S813 N815 1.610 . S
N814 S813 1.613 . S
N814 C817 1.350 . S
N815 S813 1.610 . S
N815 C816 1.351 . S
C816 C810 1.428 1_554 S
C816 N815 1.351 . S
C816 C817 1.434 . S
C817 C808 1.429 . S
C817 N814 1.350 . S
C817 C816 1.434 . S
C818 C819 1.369 . S
C818 C820 1.419 . S
C818 H822 0.930 . S
C819 C818 1.369 . S
C819 C828 1.429 . S
C820 C818 1.419 . S
C820 C821 1.363 . S
C820 H823 0.929 . S
C821 C820 1.363 . S
C821 C827 1.428 . S
H822 C818 0.930 . S
H823 C820 0.929 . S
S824 N825 1.613 . S
S824 N826 1.610 . S
N825 S824 1.613 . S
N825 C828 1.350 . S
N826 S824 1.610 . S
N826 C827 1.351 . S
C827 C821 1.428 . S
C827 N826 1.351 . S
C827 C828 1.434 . S
C828 C819 1.429 . S
C828 N825 1.350 . S
C828 C827 1.434 . S
C829 C830 1.369 . S
C829 C831 1.419 . S
C829 H833 0.930 . S
C830 C829 1.369 . S
C830 C839 1.429 . S
C831 C829 1.419 . S
C831 C832 1.363 . S
C831 H834 0.929 . S
C832 C831 1.363 . S
C832 C838 1.428 . S
H833 C829 0.930 . S
H834 C831 0.929 . S
S835 N836 1.613 . S
S835 N837 1.610 . S
N836 S835 1.613 . S
N836 C839 1.350 . S
N837 S835 1.610 . S
N837 C838 1.351 . S
C838 C832 1.428 . S
C838 N837 1.351 . S
C838 C839 1.434 . S
C839 C830 1.429 . S
C839 N836 1.350 . S
C839 C838 1.434 . S
C840 C841 1.369 . S
C840 C842 1.419 . S
C840 H844 0.930 . S
C841 C840 1.369 . S
C841 C850 1.429 1_554 S
C842 C840 1.419 . S
C842 C843 1.363 . S
C842 H845 0.929 . S
C843 C842 1.363 . S
C843 C849 1.428 1_554 S
H844 C840 0.930 . S
H845 C842 0.929 . S
S846 N847 1.613 . S
S846 N848 1.610 . S
N847 S846 1.613 . S
N847 C850 1.350 . S
N848 S846 1.610 . S
N848 C849 1.351 . S
C849 C843 1.428 1_556 S
C849 N848 1.351 . S
C849 C850 1.434 . S
C850 C841 1.429 1_556 S
C850 N847 1.350 . S
C850 C849 1.434 . S
C851 C852 1.369 . S
C851 C853 1.419 1_655 S
C851 H855 0.930 . S
C852 C851 1.369 . S
C852 C861 1.429 . S
C853 C851 1.419 1_455 S
C853 C854 1.363 . S
C853 H856 0.929 . S
C854 C853 1.363 . S
C854 C860 1.428 . S
H855 C851 0.930 . S
H856 C853 0.929 . S
S857 N858 1.613 . S
S857 N859 1.610 1_655 S
N858 S857 1.613 . S
N858 C861 1.350 . S
N859 S857 1.610 1_455 S
N859 C860 1.351 . S
C860 C854 1.428 . S
C860 N859 1.351 . S
C860 C861 1.434 1_455 S
C861 C852 1.429 . S
C861 N858 1.350 . S
C861 C860 1.434 1_655 S
C862 C863 1.369 . S
C862 C864 1.419 1_545 S
C862 H866 0.930 . S
C863 C862 1.369 . S
C863 C872 1.429 . S
C864 C862 1.419 1_565 S
C864 C865 1.363 . S
C864 H867 0.929 . S
C865 C864 1.363 . S
C865 C871 1.428 . S
H866 C862 0.930 . S
H867 C864 0.929 . S
S868 N869 1.613 1_565 S
S868 N870 1.610 . S
N869 S868 1.613 1_545 S
N869 C872 1.350 . S
N870 S868 1.610 . S
N870 C871 1.351 . S
C871 C865 1.428 . S
C871 N870 1.351 . S
C871 C872 1.434 1_565 S
C872 C863 1.429 . S
C872 N869 1.350 . S
C872 C871 1.434 1_545 S
C873 C874 1.369 . S
C873 C875 1.419 . S
C873 H877 0.930 . S
C874 C873 1.369 . S
C874 C883 1.429 . S
C875 C873 1.419 . S
C875 C876 1.363 . S
C875 H878 0.929 . S
C876 C875 1.363 . S
C876 C882 1.428 . S
H877 C873 0.930 . S
H878 C875 0.929 . S
S879 N880 1.613 . S
S879 N881 1.610 . S
N880 S879 1.613 . S
N880 C883 1.350 . S
N881 S879 1.610 . S
N881 C882 1.351 . S
C882 C876 1.428 . S
C882 N881 1.351 . S
C882 C883 1.434 . S
C883 C874 1.429 . S
C883 N880 1.350 . S
C883 C882 1.434 . S
C884 C885 1.369 . S
C884 C886 1.419 . S
C884 H888 0.930 . S
C885 C884 1.369 . S
C885 C894 1.429 1_455 S
C886 C884 1.419 . S
C886 C887 1.363 1_455 S
C886 H889 0.929 . S
C887 C886 1.363 1_655 S
C887 C893 1.428 . S
H888 C884 0.930 . S
H889 C886 0.929 . S
S890 N891 1.613 . S
S890 N892 1.610 . S
N891 S890 1.613 . S
N891 C894 1.350 . S
N892 S890 1.610 . S
N892 C893 1.351 . S
C893 C887 1.428 . S
C893 N892 1.351 . S
C893 C894 1.434 . S
C894 C885 1.429 1_655 S
C894 N891 1.350 . S
C894 C893 1.434 . S
C895 C896 1.369 . S
C895 C897 1.419 . S
C895 H899 0.930 . S
C896 C895 1.369 . S
C896 C905 1.429 1_565 S
C897 C895 1.419 . S
C897 C898 1.363 1_565 S
C897 H900 0.929 . S
C898 C897 1.363 1_545 S
C898 C904 1.428 . S
H899 C895 0.930 . S
H900 C897 0.929 . S
S901 N902 1.613 . S
S901 N903 1.610 . S
N902 S901 1.613 . S
N902 C905 1.350 . S
N903 S901 1.610 . S
N903 C904 1.351 . S
C904 C898 1.428 . S
C904 N903 1.351 . S
C904 C905 1.434 . S
C905 C896 1.429 1_545 S
C905 N902 1.350 . S
C905 C904 1.434 . S
C906 C907 1.369 . S
C906 C908 1.419 . S
C906 H910 0.930 . S
C907 C906 1.369 . S
C907 C916 1.429 . S
C908 C906 1.419 . S
C908 C909 1.363 . S
C908 H911 0.929 . S
C909 C908 1.363 . S
C909 C915 1.428 . S
H910 C906 0.930 . S
H911 C908 0.929 . S
S912 N913 1.613 . S
S912 N914 1.610 . S
N913 S912 1.613 . S
N913 C916 1.350 . S
N914 S912 1.610 . S
N914 C915 1.351 . S
C915 C909 1.428 . S
C915 N914 1.351 . S
C915 C916 1.434 . S
C916 C907 1.429 . S
C916 N913 1.350 . S
C916 C915 1.434 . S
C917 C918 1.369 . S
C917 C919 1.419 . S
C917 H921 0.930 . S
C918 C917 1.369 . S
C918 C927 1.429 . S
C919 C917 1.419 . S
C919 C920 1.363 . S
C919 H922 0.929 . S
C920 C919 1.363 . S
C920 C926 1.428 . S
H921 C917 0.930 . S
H922 C919 0.929 . S
S923 N924 1.613 . S
S923 N925 1.610 . S
N924 S923 1.613 . S
N924 C927 1.350 . S
N925 S923 1.610 . S
N925 C926 1.351 . S
C926 C920 1.428 . S
C926 N925 1.351 . S
C926 C927 1.434 . S
C927 C918 1.429 . S
C927 N924 1.350 . S
C927 C926 1.434 . S
C928 C929 1.369 . S
C928 C930 1.419 . S
C928 H932 0.930 . S
C929 C928 1.369 . S
C929 C938 1.429 . S
C930 C928 1.419 . S
C930 C931 1.363 . S
C930 H933 0.929 . S
C931 C930 1.363 . S
C931 C937 1.428 . S
H932 C928 0.930 . S
H933 C930 0.929 . S
S934 N935 1.613 . S
S934 N936 1.610 . S
N935 S934 1.613 . S
N935 C938 1.350 . S
N936 S934 1.610 . S
N936 C937 1.351 . S
C937 C931 1.428 . S
C937 N936 1.351 . S
C937 C938 1.434 . S
C938 C929 1.429 . S
C938 N935 1.350 . S
C938 C937 1.434 . S
C939 C940 1.369 . S
C939 C941 1.419 . S
C939 H943 0.930 . S
C940 C939 1.369 . S
C940 C949 1.429 . S
C941 C939 1.419 . S
C941 C942 1.363 . S
C941 H944 0.929 . S
C942 C941 1.363 . S
C942 C948 1.428 . S
H943 C939 0.930 . S
H944 C941 0.929 . S
S945 N946 1.613 . S
S945 N947 1.610 . S
N946 S945 1.613 . S
N946 C949 1.350 . S
N947 S945 1.610 . S
N947 C948 1.351 . S
C948 C942 1.428 . S
C948 N947 1.351 . S
C948 C949 1.434 . S
C949 C940 1.429 . S
C949 N946 1.350 . S
C949 C948 1.434 . S
C950 C951 1.369 . S
C950 C952 1.419 . S
C950 H954 0.930 . S
C951 C950 1.369 . S
C951 C960 1.429 . S
C952 C950 1.419 . S
C952 C953 1.363 . S
C952 H955 0.929 . S
C953 C952 1.363 . S
C953 C959 1.428 . S
H954 C950 0.930 . S
H955 C952 0.929 . S
S956 N957 1.613 . S
S956 N958 1.610 . S
N957 S956 1.613 . S
N957 C960 1.350 . S
N958 S956 1.610 . S
N958 C959 1.351 . S
C959 C953 1.428 . S
C959 N958 1.351 . S
C959 C960 1.434 . S
C960 C951 1.429 . S
C960 N957 1.350 . S
C960 C959 1.434 . S
C961 C962 1.369 . S
C961 C963 1.419 . S
C961 H965 0.930 . S
C962 C961 1.369 . S
C962 C971 1.429 . S
C963 C961 1.419 . S
C963 C964 1.363 . S
C963 H966 0.929 . S
C964 C963 1.363 . S
C964 C970 1.428 . S
H965 C961 0.930 . S
H966 C963 0.929 . S
S967 N968 1.613 . S
S967 N969 1.610 . S
N968 S967 1.613 . S
N968 C971 1.350 . S
N969 S967 1.610 . S
N969 C970 1.351 . S
C970 C964 1.428 . S
C970 N969 1.351 . S
C970 C971 1.434 . S
C971 C962 1.429 . S
C971 N968 1.350 . S
C971 C970 1.434 . S
C709 C5 1.565 . S
C711 C359 1.567 . S
C720 C64 1.566 . S
C722 C418 1.564 . S
C731 C123 1.564 . S
C733 C477 1.565 . S
C742 C182 1.566 . S
C744 C536 1.564 . S
C753 C241 1.567 . S
C755 C595 1.566 . S
C764 C654 1.567 . S
C766 C300 1.567 . S
C775 C3 1.420 . S
C777 C593 1.427 . S
C786 C62 1.428 . S
C788 C652 1.422 . S
C797 C121 1.428 . S
C799 C357 1.422 . S
C808 C180 1.428 . S
C810 C416 1.423 . S
C819 C239 1.427 . S
C821 C475 1.421 . S
C830 C298 1.425 . S
C832 C534 1.420 . S
C841 C33 1.453 . S
C843 C210 1.449 . S
C852 C92 1.449 . S
C854 C269 1.454 . S
C863 C328 1.456 . S
C865 C151 1.449 . S
C874 C387 1.448 . S
C876 C564 1.457 . S
C885 C623 1.457 . S
C887 C446 1.447 . S
C896 C505 1.456 . S
C898 C682 1.448 . S
C907 C406 1.107 . S
C909 C52 1.100 . S
C918 C111 1.107 . S
C920 C465 1.102 . S
C929 C170 1.099 . S
C931 C524 1.106 . S
C940 C583 1.105 . S
C942 C229 1.103 . S
C951 C642 1.099 . S
C953 C288 1.106 . S
C962 C347 1.101 . S
C964 C701 1.106 . S
