# Generated by pormake.
# Topology kag, (6)-cn, num edge types: 1
# Building blocks:
#     Node 0, Type 0, BuildingBlock: KUMBOL_clean_sbu_0, # of connection points: 6
#     Node 1, Type 0, BuildingBlock: KUMBOL_clean_sbu_0, # of connection points: 6
#     Node 2, Type 0, BuildingBlock: KUMBOL_clean_sbu_0, # of connection points: 6
#     Edge 3, Type (0, 0), BuildingBlock: XIVTED_clean_linker_0, # of connection points: 2
#     Edge 4, Type (0, 0), BuildingBlock: XIVTED_clean_linker_0, # of connection points: 2
#     Edge 5, Type (0, 0), BuildingBlock: XIVTED_clean_linker_0, # of connection points: 2
#     Edge 6, Type (0, 0), BuildingBlock: XIVTED_clean_linker_0, # of connection points: 2
#     Edge 7, Type (0, 0), BuildingBlock: XIVTED_clean_linker_0, # of connection points: 2
#     Edge 8, Type (0, 0), BuildingBlock: XIVTED_clean_linker_0, # of connection points: 2
#     Edge 9, Type (0, 0), BuildingBlock: XIVTED_clean_linker_0, # of connection points: 2
#     Edge 10, Type (0, 0), BuildingBlock: XIVTED_clean_linker_0, # of connection points: 2
#     Edge 11, Type (0, 0), BuildingBlock: XIVTED_clean_linker_0, # of connection points: 2
# Relax obj value: 0.071
# Max RMSD: 0.190
# Mean RMSD: 0.141
data_MOF--net-kag--node1-KUMBOL_clean_sbu_0--edge1-XIVTED_clean_linker_0
_symmetry_space_group_name_H-M    P1
_symmetry_Int_Tables_number       1
_symmetry_cell_setting            triclinic
loop_
_symmetry_equiv_pos_as_xyz
'x, y, z'
_cell_length_a     39.703046
_cell_length_b     29.655674
_cell_length_c     15.414751
_cell_angle_alpha  94.343172
_cell_angle_beta   114.5772
_cell_angle_gamma 97.425026
loop_
_atom_site_label
_atom_site_type_symbol
_atom_site_fract_x
_atom_site_fract_y
_atom_site_fract_z
_atom_type_partial_charge
Gd0 Gd 0.01687 0.62218 -0.00934 0.0
Gd1 Gd 1.00567 0.4971 0.97293 0.0
C2 C 0.0988 0.42312 0.96894 0.0
C3 C 0.06961 0.38053 0.8069 0.0
C4 C 0.03482 0.42843 0.86107 0.0
C5 C 0.06566 0.4412 0.94961 0.0
C6 C 0.03617 0.39723 0.78941 0.0
C7 C 0.10088 0.3935 0.89645 0.0
C8 C 0.12844 0.43431 0.06142 0.0
C9 C 0.12403 0.46144 0.13277 0.0
N10 N 0.0625 0.46928 0.01856 0.0
C11 C 0.09044 0.47815 0.11034 0.0
H12 H 0.08731 0.49913 0.16595 0.0
C13 C 0.97051 0.42961 0.7647 0.0
N14 N 1.0029 0.44503 0.84663 0.0
C15 C 0.97049 0.39881 0.69132 0.0
C16 C 1.00357 0.38292 0.70326 0.0
H17 H 0.94493 0.44194 0.75516 0.0
H18 H 0.12622 0.37956 0.90969 0.0
H19 H 0.93398 0.6168 0.79863 0.0
H20 H 0.15442 0.42125 0.07909 0.0
H21 H 0.14649 0.46953 0.20502 0.0
H22 H 0.07131 0.35681 0.75244 0.0
H23 H 0.07828 0.68102 0.20445 0.0
H24 H 0.86783 0.69809 0.88133 0.0
H25 H 0.87486 0.64636 0.75861 0.0
H26 H 0.95244 0.76844 0.20298 0.0
H27 H 0.945 0.38736 0.62566 0.0
H28 H 1.00345 0.35897 0.64641 0.0
H29 H 0.89694 0.74331 0.04763 0.0
H30 H 0.07871 0.73785 0.33071 0.0
N31 N 0.96001 0.65032 0.94369 0.0
C32 C 0.8939 0.68517 0.89941 0.0
C33 C 0.89778 0.65606 0.8299 0.0
C34 C 0.92408 0.69827 -0.00943 0.0
C35 C 0.95731 0.68029 0.01052 0.0
C36 C 0.93142 0.63938 0.85295 0.0
N37 N 0.02019 0.67732 0.11301 0.0
C38 C 0.98841 0.69433 0.09784 0.0
C39 C 0.05306 0.72573 0.26576 0.0
C40 C 0.02011 0.74208 0.25311 0.0
C41 C 0.05274 0.69358 0.19406 0.0
C42 C 0.98734 0.72685 0.16786 0.0
H43 H 0.02045 0.76704 0.3087 0.0
O44 O 0.06602 0.66794 0.00132 0.0
O45 O 0.04394 0.56143 0.98651 0.0
O46 O 0.0286 0.53121 0.12975 0.0
O47 O 1.01294 0.60457 0.12565 0.0
O48 O 0.07683 0.61665 0.08844 0.0
O49 O 1.01167 0.66654 0.88154 0.0
O50 O 0.95778 0.44696 0.95585 0.0
O51 O 0.97933 0.55779 0.97953 0.0
O52 O 0.99232 0.58707 0.83441 0.0
O53 O 1.01204 0.51641 0.84176 0.0
O54 O 0.94454 0.50255 0.88199 0.0
O55 O 1.01134 0.45195 0.08088 0.0
C56 C 0.07697 0.5764 0.05064 0.0
C57 C 0.95392 0.74371 0.14977 0.0
C58 C 0.92233 0.7294 0.06132 0.0
C59 C 0.04714 0.68553 0.92453 0.0
C60 C 0.05682 0.73545 0.93127 0.0
C61 C 0.03543 0.76572 0.94962 0.0
C62 C 0.08923 0.75289 0.92106 0.0
C63 C 0.10078 0.80041 0.9291 0.0
C64 C 0.04644 0.81313 0.95661 0.0
C65 C 0.07888 0.8305 0.94618 0.0
C66 C 0.0222 0.56848 0.1701 0.0
C67 C 0.9455 0.54313 0.92053 0.0
C68 C 0.97696 0.42949 0.03275 0.0
C69 C 0.97145 0.37916 0.02103 0.0
C70 C 0.99408 0.3549 -0.00757 0.0
C71 C 0.94139 0.35501 0.03331 0.0
C72 C 0.93334 0.3068 0.01565 0.0
C73 C 0.98624 0.30693 0.97475 0.0
C74 C 0.95586 0.28289 0.98561 0.0
C75 C 1.00123 0.55156 0.79585 0.0
H76 H 1.01045 0.75279 0.95862 0.0
H77 H 0.10539 0.72912 0.90608 0.0
H78 H 0.02991 0.83651 0.97067 0.0
H79 H 0.08713 0.86733 0.95297 0.0
H80 H 0.01752 0.3729 0.98312 0.0
H81 H 0.92368 0.37384 0.05446 0.0
H82 H 1.00365 0.28834 0.95223 0.0
H83 H 0.95027 0.24569 0.97183 0.0
Gd84 Gd 0.45801 1.04052 0.91654 0.0
Gd85 Gd 0.55859 0.05398 0.03178 0.0
C86 C 0.59959 0.91862 0.10422 0.0
C87 C 0.62995 0.93186 0.27935 0.0
C88 C 0.60126 0.99145 0.18961 0.0
C89 C 0.58997 0.96279 0.10392 0.0
C90 C 0.62279 0.97701 0.27815 0.0
C91 C 0.6184 0.90271 0.19245 0.0
C92 C 0.59154 0.89269 0.01601 0.0
C93 C 0.57557 0.9116 0.93092 0.0
N94 N 0.57257 0.97967 0.02013 0.0
C95 C 0.56639 0.95548 0.93436 0.0
H96 H 0.55408 0.96972 0.86826 0.0
C97 C 0.61355 0.06792 0.26539 0.0
N98 N 0.59515 1.03535 0.18539 0.0
C99 C 0.63458 0.05514 0.35516 0.0
C100 C 0.63851 1.00925 0.36194 0.0
H101 H 0.61053 0.10346 0.26013 0.0
H102 H 0.62561 0.86871 0.19435 0.0
H103 H 0.41772 0.05332 0.07318 0.0
H104 H 0.59861 0.85875 0.01293 0.0
H105 H 0.57005 0.89227 0.86255 0.0
H106 H 0.64598 0.9199 0.34674 0.0
H107 H 0.45569 0.07528 0.70983 0.0
H108 H 0.39183 0.1882 0.07981 0.0
H109 H 0.39542 0.11365 0.14141 0.0
H110 H 0.4079 0.24189 0.81257 0.0
H111 H 0.64786 0.08071 0.4189 0.0
H112 H 0.65524 0.99954 0.43136 0.0
H113 H 0.39624 0.23558 0.95676 0.0
H114 H 0.44528 0.14194 0.6259 0.0
N115 N 0.43266 0.0951 0.98277 0.0
C116 C 0.40301 0.16228 0.05164 0.0
C117 C 0.40511 0.12037 0.08678 0.0
C118 C 0.41298 0.16903 0.97611 0.0
C119 C 0.42754 0.1342 0.94206 0.0
C120 C 0.41878 0.08655 0.04917 0.0
N121 N 0.44749 0.10371 0.82925 0.0
C122 C 0.4344 0.13816 0.86185 0.0
C123 C 0.44276 0.14182 0.69316 0.0
C124 C 0.43161 0.17867 0.72904 0.0
C125 C 0.44983 0.1042 0.74324 0.0
C126 C 0.42661 0.17681 0.81326 0.0
H127 H 0.42599 0.20776 0.68993 0.0
O128 O 0.41898 1.00257 0.77641 0.0
O129 O 0.50567 1.00051 0.95748 0.0
O130 O 0.53936 0.05295 0.87276 0.0
O131 O 0.47718 1.0165 0.80474 0.0
O132 O 0.46132 0.97636 0.98883 0.0
O133 O 0.39982 1.01554 0.8861 0.0
O134 O 0.60568 0.11111 0.08072 0.0
O135 O 0.51075 0.09266 0.95978 0.0
O136 O 0.47592 1.04389 0.07697 0.0
O137 O 0.54071 1.046 0.15052 0.0
O138 O 0.55208 0.12197 0.09456 0.0
O139 O 0.60083 0.05529 0.97637 0.0
C140 C 0.49299 0.96805 -0.00759 0.0
C141 C 0.4137 0.21218 0.84927 0.0
C142 C 0.40713 0.20851 0.93101 0.0
C143 C 0.39195 0.9931 0.80252 0.0
C144 C 0.37376 0.94462 0.78564 0.0
C145 C 0.38909 0.90881 0.759 0.0
C146 C 0.3415 0.93395 0.80166 0.0
C147 C 0.32487 0.88801 0.79303 0.0
C148 C 0.37247 0.86312 0.74921 0.0
C149 C 0.34065 0.85267 0.76639 0.0
C150 C 0.50887 1.03097 0.79863 0.0
C151 C 0.52187 0.12826 0.02375 0.0
C152 C 0.62155 0.09299 0.03144 0.0
C153 C 0.66204 0.09243 0.08359 0.0
C154 C 0.67493 0.05991 0.14563 0.0
C155 C 0.6882 0.12458 0.0708 0.0
C156 C 0.72701 0.12488 0.12159 0.0
C157 C 0.71336 0.06052 0.19725 0.0
C158 C 0.73936 0.09299 0.18588 0.0
C159 C 0.50793 1.04492 0.15322 0.0
H160 H 0.41407 0.91602 0.74674 0.0
H161 H 0.3301 0.96154 0.82404 0.0
H162 H 0.38447 0.83569 0.72896 0.0
H163 H 0.32829 0.81696 0.75837 0.0
H164 H 0.65546 1.03379 0.1537 0.0
H165 H 0.67842 0.14934 0.02171 0.0
H166 H 0.723 1.03542 0.24537 0.0
H167 H 0.7691 0.09238 0.22526 0.0
Gd168 Gd 0.56057 0.56599 0.03742 0.0
Gd169 Gd 0.45866 0.53096 0.93965 0.0
C170 C 0.42598 0.37778 0.94472 0.0
C171 C 0.39649 0.34671 0.77486 0.0
C172 C 0.42206 0.42848 0.82603 0.0
C173 C 0.4338 0.4219 0.92141 0.0
C174 C 0.40256 0.39094 0.7516 0.0
C175 C 0.40777 0.34035 0.87121 0.0
C176 C 0.43558 0.37269 0.04108 0.0
C177 C 0.45164 0.41123 0.11136 0.0
N178 N 0.45113 0.45885 -0.00875 0.0
C179 C 0.45887 0.45419 0.08499 0.0
H180 H 0.4699 0.48335 0.14014 0.0
C181 C 0.40837 0.48048 0.71278 0.0
N182 N 0.42674 0.47196 0.80573 0.0
C183 C 0.38993 0.44442 0.63658 0.0
C184 C 0.38768 0.39929 0.65593 0.0
H185 H 0.40778 0.51532 0.69682 0.0
H186 H 0.40113 0.30671 0.88837 0.0
H187 H 0.55451 0.61604 0.84257 0.0
H188 H 0.42998 0.33938 0.06162 0.0
H189 H 0.4583 0.40798 0.18595 0.0
H190 H 0.38158 0.31756 0.71875 0.0
H191 H 0.61042 0.58126 0.28046 0.0
H192 H 0.5852 0.76112 0.92446 0.0
H193 H 0.56373 0.69286 0.80007 0.0
H194 H 0.62467 0.7803 0.26508 0.0
H195 H 0.37669 0.45156 0.56318 0.0
H196 H 0.37264 0.37141 0.59692 0.0
H197 H 0.60668 0.79329 0.09728 0.0
H198 H 0.63689 0.64436 0.41603 0.0
N199 N 0.56829 0.63924 0.98969 0.0
C200 C 0.58083 0.72717 0.94367 0.0
C201 C 0.56863 0.68877 0.87331 0.0
C202 C 0.58824 0.72118 0.03855 0.0
C203 C 0.58209 0.67619 0.05989 0.0
C204 C 0.56284 0.64493 0.89781 0.0
N205 N 0.59 0.62477 0.1727 0.0
C206 C 0.5923 0.66877 0.15417 0.0
C207 C 0.62383 0.6518 0.34282 0.0
C208 C 0.6234 0.69712 0.32493 0.0
C209 C 0.60814 0.61605 0.26552 0.0
C210 C 0.60886 0.70617 0.22973 0.0
H211 H 0.63626 0.72485 0.38485 0.0
O212 O 0.61844 0.5555 0.11615 0.0
O213 O 0.51327 0.50387 0.97404 0.0
O214 O 0.4832 0.55966 0.09776 0.0
O215 O 0.54661 0.55439 0.1623 0.0
O216 O 0.56204 0.49733 0.09212 0.0
O217 O 0.59665 0.55727 0.96414 0.0
O218 O 0.40194 0.54579 0.86376 0.0
O219 O 0.50565 0.59294 0.00193 0.0
O220 O 0.53669 0.54233 0.87783 0.0
O221 O 0.47183 0.53898 0.81233 0.0
O222 O 0.45694 0.59876 0.8824 0.0
O223 O 0.42084 0.53093 0.00919 0.0
C224 C 0.52944 0.47546 0.02995 0.0
C225 C 0.61249 0.75117 0.20815 0.0
C226 C 0.6024 0.75861 0.11271 0.0
C227 C 0.62645 0.55578 0.04238 0.0
C228 C 0.6619 0.58637 0.05706 0.0
C229 C 0.66833 0.63243 0.09713 0.0
C230 C 0.68969 0.57034 0.03313 0.0
C231 C 0.72358 0.60045 0.05115 0.0
C232 C 0.70094 0.66229 0.11245 0.0
C233 C 0.72827 0.64658 0.08985 0.0
C234 C 0.51566 0.55905 0.17153 0.0
C235 C 0.48948 0.62084 0.94449 0.0
C236 C 0.39331 0.54166 0.93594 0.0
C237 C 0.37322 0.57626 0.95825 0.0
C238 C 0.38912 0.62301 0.97819 0.0
C239 C 0.3387 0.56247 0.96393 0.0
C240 C 0.32067 0.59534 -0.00886 0.0
C241 C 0.37115 0.65562 0.00336 0.0
C242 C 0.33741 0.64201 0.0102 0.0
C243 C 0.50356 0.53916 0.80402 0.0
H244 H 0.64827 0.64541 0.11763 0.0
H245 H 0.68542 0.53469 0.00323 0.0
H246 H 0.70522 0.69782 0.14294 0.0
H247 H 0.75336 0.67077 0.10295 0.0
H248 H 0.4156 0.63427 0.97502 0.0
H249 H 0.32653 0.5263 0.94987 0.0
H250 H 0.38361 0.69167 0.01848 0.0
H251 H 0.32425 0.6682 0.0302 0.0
H252 H 0.02317 0.48858 0.69993 0.0
H253 H 1.00313 0.63363 0.26921 0.0
H254 H 0.98283 0.6176 0.67562 0.0
H255 H 0.03951 0.50213 0.28942 0.0
H256 H 0.99723 0.62946 0.41967 0.0
H257 H 0.02938 0.49325 0.55028 0.0
C258 C 0.01512 0.51768 0.66269 0.0
C259 C 1.0021 0.55257 0.70059 0.0
C260 C 1.00669 0.60162 0.39153 0.0
C261 C 1.01 0.55857 0.52892 0.0
C262 C 1.01037 0.60408 0.30568 0.0
C263 C 0.02204 0.56824 0.26627 0.0
C264 C 0.01466 0.56299 0.43876 0.0
C265 C 0.0305 0.53065 0.31682 0.0
C266 C 0.01897 0.52046 0.57724 0.0
C267 C 0.9928 0.58976 0.64921 0.0
N268 N 0.02654 0.52898 0.40016 0.0
N269 N 0.99702 0.59182 0.56624 0.0
H270 H 0.45103 0.99918 0.1865 0.0
H271 H 0.56843 0.05821 0.75834 0.0
H272 H 0.56173 0.08231 0.33144 0.0
H273 H 0.45164 0.99217 0.62234 0.0
H274 H 0.56805 0.05857 0.60068 0.0
H275 H 0.45139 0.99034 0.34381 0.0
C276 C 0.47534 1.0157 0.25143 0.0
C277 C 0.50666 1.04109 0.24635 0.0
C278 C 0.54248 1.04388 0.60508 0.0
C279 C 0.50752 1.03057 0.42548 0.0
C280 C 0.54268 1.04349 0.69534 0.0
C281 C 0.50979 1.02588 0.70364 0.0
C282 C 0.50915 1.02659 0.52209 0.0
C283 C 0.47752 1.00662 0.61921 0.0
C284 C 0.47565 1.01034 0.34097 0.0
C285 C 0.53755 0.06136 0.33225 0.0
N286 N 0.47788 1.0079 0.53162 0.0
N287 N 0.53723 0.05563 0.41824 0.0
H288 H 0.44898 0.56004 0.63922 0.0
H289 H 0.5691 0.53609 0.33539 0.0
H290 H 0.55784 0.51872 0.75015 0.0
H291 H 0.46201 0.58197 0.22609 0.0
H292 H 0.56559 0.53016 0.48843 0.0
H293 H 0.4523 0.56636 0.48566 0.0
C294 C 0.47327 0.55155 0.63087 0.0
C295 C 0.50306 0.53857 0.70755 0.0
C296 C 0.54297 0.54183 0.43119 0.0
C297 C 0.50745 0.54674 0.53283 0.0
C298 C 0.54517 0.54571 0.344 0.0
C299 C 0.51597 0.5599 0.26789 0.0
C300 C 0.51127 0.55201 0.44232 0.0
C301 C 0.4852 0.57087 0.28275 0.0
C302 C 0.47535 0.55565 0.54349 0.0
C303 C 0.53422 0.52895 0.69313 0.0
N304 N 0.4836 0.56654 0.36809 0.0
N305 N 0.53563 0.53333 0.60767 0.0
H306 H 0.1476 0.59803 0.19361 0.0
H307 H 0.25387 0.53857 0.86536 0.0
H308 H 0.08732 0.53566 0.89671 0.0
H309 H 0.30615 0.62298 0.14331 0.0
H310 H 0.19413 0.52574 0.88137 0.0
H311 H 0.20698 0.59519 0.18283 0.0
C312 C 0.14688 0.583 0.12642 0.0
C313 C 0.11233 0.56687 0.0463 0.0
C314 C 0.2188 0.54673 0.9391 0.0
C315 C 0.18072 0.56431 0.03237 0.0
C316 C 0.25297 0.55383 0.93026 0.0
C317 C 0.28512 0.58222 0.00277 0.0
C318 C 0.21686 0.56768 0.02166 0.0
C319 C 0.2821 0.60132 0.085 0.0
C320 C 0.18086 0.58159 0.12006 0.0
C321 C 0.11321 0.54804 0.96074 0.0
N322 N 0.24881 0.59383 0.09195 0.0
N323 N 0.14681 0.54755 0.95582 0.0
H324 H 0.7897 0.18173 0.25661 0.0
H325 H 0.87742 0.23811 0.89029 0.0
H326 H 0.72781 0.13986 0.94988 0.0
H327 H 0.9166 0.31895 0.16956 0.0
H328 H 0.82465 0.19723 0.91341 0.0
H329 H 0.83875 0.22889 0.2291 0.0
C330 C 0.7864 0.18282 0.18345 0.0
C331 C 0.75484 0.15695 0.10534 0.0
C332 C 0.84471 0.22407 0.96936 0.0
C333 C 0.81086 0.21004 0.07341 0.0
C334 C 0.87491 0.24707 0.95654 0.0
C335 C 0.90135 0.28175 0.02832 0.0
C336 C 0.84137 0.23535 0.05524 0.0
C337 C 0.89667 0.29253 0.11237 0.0
C338 C 0.81427 0.20973 0.16775 0.0
C339 C 0.75169 0.15959 0.01188 0.0
N340 N 0.86742 0.26914 0.12391 0.0
N341 N 0.77961 0.18526 -0.00151 0.0
H342 H 0.51497 0.91751 0.14344 0.0
H343 H 0.47772 0.67642 0.80656 0.0
H344 H 0.48221 0.90458 0.83824 0.0
H345 H 0.51259 0.68479 0.11233 0.0
H346 H 0.48165 0.75994 0.82008 0.0
H347 H 0.51729 0.83453 0.13751 0.0
C348 C 0.50891 0.89741 0.07533 0.0
C349 C 0.49977 0.9189 -0.00815 0.0
C350 C 0.48891 0.74394 0.88481 0.0
C351 C 0.50076 0.82239 0.98348 0.0
C352 C 0.48681 0.69592 0.87718 0.0
C353 C 0.49629 0.67305 0.95877 0.0
C354 C 0.49966 0.77045 0.97486 0.0
C355 C 0.50641 0.70064 0.0477 0.0
C356 C 0.50999 0.84978 0.07187 0.0
C357 C 0.49065 0.89026 0.90512 0.0
N358 N 0.50793 0.74753 0.0533 0.0
N359 N 0.49146 0.84406 0.90336 0.0
H360 H 0.87095 0.51872 0.79495 0.0
H361 H 0.7982 0.61668 0.17464 0.0
H362 H 0.94341 0.58967 0.08017 0.0
H363 H 0.72173 0.5519 0.88705 0.0
H364 H 0.8512 0.60398 0.14059 0.0
H365 H 0.81594 0.52914 0.82466 0.0
C366 C 0.87534 0.537 0.8634 0.0
C367 C 0.9121 0.55394 0.9345 0.0
C368 C 0.82293 0.59222 0.0847 0.0
C369 C 0.84909 0.56516 0.96999 0.0
C370 C 0.79251 0.59933 0.10428 0.0
C371 C 0.75524 0.58558 0.03353 0.0
C372 C 0.81655 0.57105 -0.00675 0.0
C373 C 0.74987 0.56286 0.94402 0.0
C374 C 0.8439 0.54274 0.88046 0.0
C375 C 0.91595 0.57672 0.02233 0.0
N376 N 0.78013 0.55659 0.92621 0.0
N377 N 0.88503 0.58155 0.03742 0.0
H378 H 0.16833 0.77117 0.00664 0.0
H379 H 0.26274 0.92961 0.74062 0.0
H380 H 0.11254 0.86875 0.82851 0.0
H381 H 0.3121 0.82208 0.89623 0.0
H382 H 0.20941 0.91203 0.78075 0.0
H383 H 0.22331 0.79406 0.97675 0.0
C384 C 0.16768 0.7975 0.96122 0.0
C385 C 0.13559 0.81767 0.91898 0.0
C386 C 0.23191 0.89229 0.80608 0.0
C387 C 0.19869 0.8443 0.88478 0.0
C388 C 0.26241 0.9024 0.78348 0.0
C389 C 0.29188 0.87716 0.81485 0.0
C390 C 0.23092 0.85683 0.86084 0.0
C391 C 0.28978 0.84198 0.86931 0.0
C392 C 0.19914 0.81063 0.94434 0.0
C393 C 0.13669 0.85238 0.86266 0.0
N394 N 0.25988 0.83291 0.89061 0.0
N395 N 0.16765 0.86439 0.84661 0.0
H396 H 0.5409 0.42234 0.17167 0.0
H397 H 0.51844 0.17747 0.8728 0.0
H398 H 0.50281 0.40849 0.86418 0.0
H399 H 0.51482 0.19298 0.14822 0.0
H400 H 0.51565 0.26017 0.86556 0.0
H401 H 0.53509 0.33881 0.16334 0.0
C402 C 0.53076 0.40167 0.10177 0.0
C403 C 0.52106 0.42316 0.01832 0.0
C404 C 0.51491 0.2454 0.92698 0.0
C405 C 0.51592 0.32549 0.00839 0.0
C406 C 0.5162 0.19788 0.9308 0.0
C407 C 0.51546 0.17722 0.00975 0.0
C408 C 0.51424 0.27346 0.00429 0.0
C409 C 0.51449 0.20659 0.0847 0.0
C410 C 0.52753 0.35361 0.0971 0.0
C411 C 0.5094 0.39388 0.93036 0.0
N412 N 0.51402 0.25253 0.08022 0.0
N413 N 0.50734 0.34691 0.92782 0.0
loop_
_geom_bond_atom_site_label_1
_geom_bond_atom_site_label_2
_geom_bond_distance
_geom_bond_site_symmetry_2
_ccdc_geom_bond_type
Gd0 N31 2.661 1_454 S
Gd0 N37 2.601 . S
Gd0 O44 2.545 . S
Gd0 O45 2.606 . S
Gd0 O47 2.429 . S
Gd0 O48 2.545 . S
Gd0 O49 2.412 1_554 S
Gd0 O51 2.362 1_454 S
Gd0 O52 2.320 1_554 S
Gd0 C59 2.828 . S
Gd1 N10 2.661 1_656 S
Gd1 N14 2.601 . S
Gd1 O45 2.362 1_656 S
Gd1 O46 2.321 1_556 S
Gd1 O50 2.545 . S
Gd1 O51 2.606 . S
Gd1 O53 2.429 . S
Gd1 O54 2.545 . S
Gd1 O55 2.412 1_556 S
Gd1 C68 2.828 . S
C2 C5 1.416 1_554 S
C2 C7 1.431 1_554 S
C2 C8 1.412 . S
C3 C6 1.437 . S
C3 C7 1.317 . S
C3 H22 0.929 . S
C4 C5 1.429 . S
C4 C6 1.413 . S
C4 N14 1.359 1_455 S
C5 C2 1.416 1_556 S
C5 C4 1.429 . S
C5 N10 1.349 1_556 S
C6 C3 1.437 . S
C6 C4 1.413 . S
C6 C16 1.391 1_455 S
C7 C2 1.431 1_556 S
C7 C3 1.317 . S
C7 H18 0.930 1_556 S
C8 C2 1.412 . S
C8 C9 1.355 . S
C8 H20 0.930 . S
C9 C8 1.355 . S
C9 C11 1.402 . S
C9 H21 0.930 . S
N10 Gd1 2.661 1_454 S
N10 C5 1.349 1_554 S
N10 C11 1.307 . S
C11 C9 1.402 . S
C11 N10 1.307 . S
C11 H12 0.930 . S
H12 C11 0.930 . S
C13 N14 1.334 . S
C13 C15 1.394 . S
C13 H17 0.930 . S
N14 Gd1 2.601 . S
N14 C4 1.359 1_655 S
N14 C13 1.334 . S
C15 C13 1.394 . S
C15 C16 1.359 . S
C15 H27 0.930 . S
C16 C6 1.391 1_655 S
C16 C15 1.359 . S
C16 H28 0.934 . S
H17 C13 0.930 . S
H18 C7 0.930 1_554 S
H19 C36 0.930 . S
H20 C8 0.930 . S
H21 C9 0.930 . S
H22 C3 0.929 . S
H23 C41 0.930 . S
H24 C32 0.930 . S
H25 C33 0.930 . S
H26 C57 0.929 . S
H27 C15 0.930 . S
H28 C16 0.934 . S
H29 C58 0.930 1_556 S
H30 C39 0.930 . S
N31 Gd0 2.661 1_656 S
N31 C35 1.347 1_556 S
N31 C36 1.307 . S
C32 H24 0.930 . S
C32 C33 1.355 . S
C32 C34 1.412 . S
C33 H25 0.930 . S
C33 C32 1.355 . S
C33 C36 1.402 . S
C34 C32 1.412 . S
C34 C35 1.416 1_556 S
C34 C58 1.431 1_556 S
C35 N31 1.347 1_554 S
C35 C34 1.416 1_554 S
C35 C38 1.431 . S
C36 H19 0.930 . S
C36 N31 1.307 . S
C36 C33 1.402 . S
N37 Gd0 2.601 . S
N37 C38 1.359 1_455 S
N37 C41 1.334 . S
C38 C35 1.431 . S
C38 N37 1.359 1_655 S
C38 C42 1.413 . S
C39 H30 0.930 . S
C39 C40 1.359 . S
C39 C41 1.394 . S
C40 C39 1.359 . S
C40 C42 1.391 1_455 S
C40 H43 0.938 . S
C41 H23 0.930 . S
C41 N37 1.334 . S
C41 C39 1.394 . S
C42 C38 1.413 . S
C42 C40 1.391 1_655 S
C42 C57 1.437 . S
H43 C40 0.938 . S
O44 Gd0 2.545 . S
O44 C59 1.258 . S
O45 Gd0 2.606 . S
O45 Gd1 2.362 1_454 S
O45 C56 1.284 . S
O46 Gd1 2.321 1_554 S
O46 C66 1.256 1_655 S
O47 Gd0 2.429 . S
O47 C66 1.268 . S
O48 Gd0 2.545 . S
O48 C56 1.250 . S
O49 Gd0 2.412 1_556 S
O49 C59 1.252 1_556 S
O50 Gd1 2.545 . S
O50 C68 1.258 . S
O51 Gd0 2.362 1_656 S
O51 Gd1 2.606 . S
O51 C67 1.284 . S
O52 Gd0 2.320 1_556 S
O52 C75 1.257 1_455 S
O53 Gd1 2.429 . S
O53 C75 1.268 . S
O54 Gd1 2.545 . S
O54 C67 1.250 . S
O55 Gd1 2.412 1_554 S
O55 C68 1.252 1_554 S
C56 O45 1.284 . S
C56 O48 1.250 . S
C57 H26 0.929 . S
C57 C42 1.437 . S
C57 C58 1.317 . S
C58 H29 0.930 1_554 S
C58 C34 1.431 1_554 S
C58 C57 1.317 . S
C59 Gd0 2.828 . S
C59 O44 1.258 . S
C59 O49 1.252 1_554 S
C59 C60 1.497 . S
C60 C59 1.497 . S
C60 C61 1.395 . S
C60 C62 1.381 . S
C61 C60 1.395 . S
C61 C64 1.398 . S
C61 H76 0.930 . S
C62 C60 1.381 . S
C62 C63 1.391 . S
C62 H77 0.930 1_554 S
C63 C62 1.391 . S
C63 C65 1.387 . S
C64 C61 1.398 . S
C64 C65 1.380 . S
C64 H78 0.930 . S
C65 C63 1.387 . S
C65 C64 1.380 . S
C65 H79 0.930 . S
C66 O46 1.256 1_455 S
C66 O47 1.268 . S
C67 O51 1.284 . S
C67 O54 1.250 . S
C68 Gd1 2.828 . S
C68 O50 1.258 . S
C68 O55 1.252 1_556 S
C68 C69 1.497 . S
C69 C68 1.497 . S
C69 C70 1.395 . S
C69 C71 1.381 1_556 S
C70 C69 1.395 . S
C70 C73 1.398 . S
C70 H80 0.930 . S
C71 C69 1.381 1_554 S
C71 C72 1.391 1_554 S
C71 H81 0.930 . S
C72 C71 1.391 1_556 S
C72 C74 1.387 . S
C73 C70 1.398 . S
C73 C74 1.380 . S
C73 H82 0.930 . S
C74 C72 1.387 . S
C74 C73 1.380 . S
C74 H83 0.930 . S
C75 O52 1.257 1_655 S
C75 O53 1.268 . S
H76 C61 0.930 . S
H77 C62 0.930 1_556 S
H78 C64 0.930 . S
H79 C65 0.930 . S
H80 C70 0.930 . S
H81 C71 0.930 . S
H82 C73 0.930 . S
H83 C74 0.930 . S
Gd84 N115 2.661 1_565 S
Gd84 N121 2.601 1_565 S
Gd84 O128 2.545 . S
Gd84 O129 2.606 1_556 S
Gd84 O131 2.429 . S
Gd84 O132 2.545 . S
Gd84 O133 2.412 . S
Gd84 O135 2.362 1_565 S
Gd84 O136 2.324 1_556 S
Gd84 C143 2.828 . S
Gd85 N94 2.661 1_545 S
Gd85 N98 2.601 1_545 S
Gd85 O129 2.362 1_545 S
Gd85 O130 2.324 1_554 S
Gd85 O134 2.545 . S
Gd85 O135 2.606 1_554 S
Gd85 O137 2.429 . S
Gd85 O138 2.545 . S
Gd85 O139 2.412 . S
Gd85 C152 2.828 . S
C86 C89 1.417 . S
C86 C91 1.431 . S
C86 C92 1.412 1_554 S
C87 C90 1.437 . S
C87 C91 1.317 . S
C87 H106 0.929 . S
C88 C89 1.426 . S
C88 C90 1.413 . S
C88 N98 1.359 . S
C89 C86 1.417 . S
C89 C88 1.426 . S
C89 N94 1.350 . S
C90 C87 1.437 . S
C90 C88 1.413 . S
C90 C100 1.391 . S
C91 C86 1.431 . S
C91 C87 1.317 . S
C91 H102 0.930 . S
C92 C86 1.412 1_556 S
C92 C93 1.355 . S
C92 H104 0.930 . S
C93 C92 1.355 . S
C93 C95 1.402 . S
C93 H105 0.930 . S
N94 Gd85 2.661 1_565 S
N94 C89 1.350 . S
N94 C95 1.307 1_554 S
C95 C93 1.402 . S
C95 N94 1.307 1_556 S
C95 H96 0.930 . S
H96 C95 0.930 . S
C97 N98 1.334 1_545 S
C97 C99 1.386 1_545 S
C97 H101 0.930 . S
N98 Gd85 2.601 1_565 S
N98 C88 1.359 . S
N98 C97 1.334 1_565 S
C99 C97 1.386 1_565 S
C99 C100 1.375 . S
C99 H111 0.923 1_565 S
C100 C90 1.391 . S
C100 C99 1.375 . S
C100 H112 0.929 . S
H101 C97 0.930 . S
H102 C91 0.930 . S
H103 C120 0.930 . S
H104 C92 0.930 . S
H105 C93 0.930 . S
H106 C87 0.929 . S
H107 C125 0.930 . S
H108 C116 0.930 . S
H109 C117 0.930 . S
H110 C141 0.929 . S
H111 C99 0.923 1_545 S
H112 C100 0.929 . S
H113 C142 0.930 . S
H114 C123 0.920 1_565 S
N115 Gd84 2.661 1_545 S
N115 C119 1.350 . S
N115 C120 1.307 1_556 S
C116 H108 0.930 . S
C116 C117 1.355 . S
C116 C118 1.412 1_554 S
C117 H109 0.930 . S
C117 C116 1.355 . S
C117 C120 1.402 . S
C118 C116 1.412 1_556 S
C118 C119 1.417 . S
C118 C142 1.431 . S
C119 N115 1.350 . S
C119 C118 1.417 . S
C119 C122 1.426 . S
C120 H103 0.930 . S
C120 N115 1.307 1_554 S
C120 C117 1.402 . S
N121 Gd84 2.601 1_545 S
N121 C122 1.359 . S
N121 C125 1.334 1_545 S
C122 C119 1.426 . S
C122 N121 1.359 . S
C122 C126 1.413 . S
C123 H114 0.920 1_545 S
C123 C124 1.381 . S
C123 C125 1.383 1_545 S
C124 C123 1.381 . S
C124 C126 1.391 . S
C124 H127 0.929 . S
C125 H107 0.930 . S
C125 N121 1.334 1_565 S
C125 C123 1.383 1_565 S
C126 C122 1.413 . S
C126 C124 1.391 . S
C126 C141 1.437 . S
H127 C124 0.929 . S
O128 Gd84 2.545 . S
O128 C143 1.258 . S
O129 Gd84 2.606 1_554 S
O129 Gd85 2.362 1_565 S
O129 C140 1.284 . S
O130 Gd85 2.324 1_556 S
O130 C150 1.253 . S
O131 Gd84 2.429 . S
O131 C150 1.265 1_565 S
O132 Gd84 2.545 . S
O132 C140 1.250 1_556 S
O133 Gd84 2.412 . S
O133 C143 1.252 . S
O134 Gd85 2.545 . S
O134 C152 1.258 . S
O135 Gd84 2.362 1_545 S
O135 Gd85 2.606 1_556 S
O135 C151 1.284 . S
O136 Gd84 2.324 1_554 S
O136 C159 1.253 . S
O137 Gd85 2.429 . S
O137 C159 1.267 1_545 S
O138 Gd85 2.545 . S
O138 C151 1.250 1_554 S
O139 Gd85 2.412 . S
O139 C152 1.252 . S
C140 O129 1.284 . S
C140 O132 1.250 1_554 S
C141 H110 0.929 . S
C141 C126 1.437 . S
C141 C142 1.317 . S
C142 H113 0.930 . S
C142 C118 1.431 . S
C142 C141 1.317 . S
C143 Gd84 2.828 . S
C143 O128 1.258 . S
C143 O133 1.252 . S
C143 C144 1.497 . S
C144 C143 1.497 . S
C144 C145 1.395 . S
C144 C146 1.380 . S
C145 C144 1.395 . S
C145 C148 1.398 . S
C145 H160 0.930 . S
C146 C144 1.380 . S
C146 C147 1.391 . S
C146 H161 0.930 1_556 S
C147 C146 1.391 . S
C147 C149 1.387 . S
C148 C145 1.398 . S
C148 C149 1.380 . S
C148 H162 0.930 . S
C149 C147 1.387 . S
C149 C148 1.380 . S
C149 H163 0.930 . S
C150 O130 1.253 . S
C150 O131 1.265 1_545 S
C151 O135 1.284 . S
C151 O138 1.250 1_556 S
C152 Gd85 2.828 . S
C152 O134 1.258 . S
C152 O139 1.252 . S
C152 C153 1.497 . S
C153 C152 1.497 . S
C153 C154 1.395 . S
C153 C155 1.380 . S
C154 C153 1.395 . S
C154 C157 1.398 . S
C154 H164 0.930 . S
C155 C153 1.380 . S
C155 C156 1.391 . S
C155 H165 0.930 1_554 S
C156 C155 1.391 . S
C156 C158 1.387 . S
C157 C154 1.398 . S
C157 C158 1.380 . S
C157 H166 0.930 . S
C158 C156 1.387 . S
C158 C157 1.380 . S
C158 H167 0.930 . S
C159 O136 1.253 . S
C159 O137 1.267 1_565 S
H160 C145 0.930 . S
H161 C146 0.930 1_554 S
H162 C148 0.930 . S
H163 C149 0.930 . S
H164 C154 0.930 . S
H165 C155 0.930 1_556 S
H166 C157 0.930 . S
H167 C158 0.930 . S
Gd168 N199 2.661 . S
Gd168 N205 2.601 . S
Gd168 O212 2.545 . S
Gd168 O213 2.606 1_554 S
Gd168 O215 2.429 . S
Gd168 O216 2.545 . S
Gd168 O217 2.412 . S
Gd168 O219 2.362 . S
Gd168 O220 2.324 1_554 S
Gd168 C227 2.828 . S
Gd169 N178 2.661 . S
Gd169 N182 2.601 . S
Gd169 O213 2.362 . S
Gd169 O214 2.324 1_556 S
Gd169 O218 2.545 . S
Gd169 O219 2.606 1_556 S
Gd169 O221 2.429 . S
Gd169 O222 2.545 . S
Gd169 O223 2.412 . S
Gd169 C236 2.828 . S
C170 C173 1.417 . S
C170 C175 1.431 . S
C170 C176 1.412 1_556 S
C171 C174 1.437 . S
C171 C175 1.317 . S
C171 H190 0.929 . S
C172 C173 1.426 . S
C172 C174 1.413 . S
C172 N182 1.359 . S
C173 C170 1.417 . S
C173 C172 1.426 . S
C173 N178 1.350 . S
C174 C171 1.437 . S
C174 C172 1.413 . S
C174 C184 1.391 . S
C175 C170 1.431 . S
C175 C171 1.317 . S
C175 H186 0.930 . S
C176 C170 1.412 1_554 S
C176 C177 1.355 . S
C176 H188 0.930 . S
C177 C176 1.355 . S
C177 C179 1.402 . S
C177 H189 0.930 . S
N178 Gd169 2.661 . S
N178 C173 1.350 . S
N178 C179 1.307 1_556 S
C179 C177 1.402 . S
C179 N178 1.307 1_554 S
C179 H180 0.930 . S
H180 C179 0.930 . S
C181 N182 1.334 . S
C181 C183 1.394 . S
C181 H185 0.930 . S
N182 Gd169 2.601 . S
N182 C172 1.359 . S
N182 C181 1.334 . S
C183 C181 1.394 . S
C183 C184 1.359 . S
C183 H195 0.930 . S
C184 C174 1.391 . S
C184 C183 1.359 . S
C184 H196 0.929 . S
H185 C181 0.930 . S
H186 C175 0.930 . S
H187 C204 0.930 . S
H188 C176 0.930 . S
H189 C177 0.930 . S
H190 C171 0.929 . S
H191 C209 0.930 . S
H192 C200 0.930 . S
H193 C201 0.930 . S
H194 C225 0.929 . S
H195 C183 0.930 . S
H196 C184 0.929 . S
H197 C226 0.930 . S
H198 C207 0.930 . S
N199 Gd168 2.661 . S
N199 C203 1.350 . S
N199 C204 1.307 1_554 S
C200 H192 0.930 . S
C200 C201 1.355 . S
C200 C202 1.412 1_556 S
C201 H193 0.930 . S
C201 C200 1.355 . S
C201 C204 1.402 . S
C202 C200 1.412 1_554 S
C202 C203 1.417 . S
C202 C226 1.431 . S
C203 N199 1.350 . S
C203 C202 1.417 . S
C203 C206 1.426 . S
C204 H187 0.930 . S
C204 N199 1.307 1_556 S
C204 C201 1.402 . S
N205 Gd168 2.601 . S
N205 C206 1.359 . S
N205 C209 1.334 . S
C206 C203 1.426 . S
C206 N205 1.359 . S
C206 C210 1.413 . S
C207 H198 0.930 . S
C207 C208 1.359 . S
C207 C209 1.394 . S
C208 C207 1.359 . S
C208 C210 1.391 . S
C208 H211 0.929 . S
C209 H191 0.930 . S
C209 N205 1.334 . S
C209 C207 1.394 . S
C210 C206 1.413 . S
C210 C208 1.391 . S
C210 C225 1.437 . S
H211 C208 0.929 . S
O212 Gd168 2.545 . S
O212 C227 1.258 . S
O213 Gd168 2.606 1_556 S
O213 Gd169 2.362 . S
O213 C224 1.284 . S
O214 Gd169 2.324 1_554 S
O214 C234 1.254 . S
O215 Gd168 2.429 . S
O215 C234 1.268 . S
O216 Gd168 2.545 . S
O216 C224 1.250 1_554 S
O217 Gd168 2.412 . S
O217 C227 1.252 . S
O218 Gd169 2.545 . S
O218 C236 1.258 . S
O219 Gd168 2.362 . S
O219 Gd169 2.606 1_554 S
O219 C235 1.284 . S
O220 Gd168 2.324 1_556 S
O220 C243 1.254 . S
O221 Gd169 2.429 . S
O221 C243 1.268 . S
O222 Gd169 2.545 . S
O222 C235 1.250 1_556 S
O223 Gd169 2.412 . S
O223 C236 1.252 . S
C224 O213 1.284 . S
C224 O216 1.250 1_556 S
C225 H194 0.929 . S
C225 C210 1.437 . S
C225 C226 1.317 . S
C226 H197 0.930 . S
C226 C202 1.431 . S
C226 C225 1.317 . S
C227 Gd168 2.828 . S
C227 O212 1.258 . S
C227 O217 1.252 . S
C227 C228 1.497 . S
C228 C227 1.497 . S
C228 C229 1.395 . S
C228 C230 1.380 . S
C229 C228 1.395 . S
C229 C232 1.398 . S
C229 H244 0.930 . S
C230 C228 1.380 . S
C230 C231 1.391 . S
C230 H245 0.930 1_554 S
C231 C230 1.391 . S
C231 C233 1.387 . S
C232 C229 1.398 . S
C232 C233 1.380 . S
C232 H246 0.930 . S
C233 C231 1.387 . S
C233 C232 1.380 . S
C233 H247 0.930 . S
C234 O214 1.254 . S
C234 O215 1.268 . S
C235 O219 1.284 . S
C235 O222 1.250 1_554 S
C236 Gd169 2.828 . S
C236 O218 1.258 . S
C236 O223 1.252 . S
C236 C237 1.497 . S
C237 C236 1.497 . S
C237 C238 1.395 . S
C237 C239 1.380 . S
C238 C237 1.395 . S
C238 C241 1.398 . S
C238 H248 0.930 . S
C239 C237 1.380 . S
C239 C240 1.391 . S
C239 H249 0.930 1_556 S
C240 C239 1.391 . S
C240 C242 1.387 . S
C241 C238 1.398 . S
C241 C242 1.380 . S
C241 H250 0.930 . S
C242 C240 1.387 . S
C242 C241 1.380 . S
C242 H251 0.930 . S
C243 O220 1.254 . S
C243 O221 1.268 . S
H244 C229 0.930 . S
H245 C230 0.930 1_556 S
H246 C232 0.930 . S
H247 C233 0.930 . S
H248 C238 0.930 . S
H249 C239 0.930 1_554 S
H250 C241 0.930 . S
H251 C242 0.930 . S
H252 C258 0.930 . S
H253 C262 0.930 . S
H254 C267 0.929 . S
H255 C265 0.929 . S
H256 C260 0.929 . S
H257 C266 0.929 . S
C258 H252 0.930 . S
C258 C259 1.367 . S
C258 C266 1.378 . S
C259 C258 1.367 . S
C259 C267 1.433 1_655 S
C260 H256 0.929 . S
C260 C262 1.378 . S
C260 C264 1.350 . S
C261 C264 1.450 1_655 S
C261 C266 1.361 . S
C261 N269 1.429 1_655 S
C262 H253 0.930 . S
C262 C260 1.378 . S
C262 C263 1.367 . S
C263 C262 1.367 . S
C263 C265 1.433 1_455 S
C264 C260 1.350 . S
C264 C261 1.450 1_455 S
C264 N268 1.427 1_455 S
C265 H255 0.929 . S
C265 C263 1.433 1_655 S
C265 N268 1.384 . S
C266 H257 0.929 . S
C266 C258 1.378 . S
C266 C261 1.361 . S
C267 H254 0.929 . S
C267 C259 1.433 1_455 S
C267 N269 1.384 . S
N268 C264 1.427 1_655 S
N268 C265 1.384 . S
N269 C261 1.429 1_455 S
N269 C267 1.384 . S
H270 C276 0.930 . S
H271 C280 0.930 . S
H272 C285 0.929 . S
H273 C283 0.929 . S
H274 C278 0.929 . S
H275 C284 0.929 . S
C276 H270 0.930 . S
C276 C277 1.367 1_545 S
C276 C284 1.378 . S
C277 C276 1.367 1_565 S
C277 C285 1.433 . S
C278 H274 0.929 . S
C278 C280 1.378 . S
C278 C282 1.350 1_565 S
C279 C282 1.463 1_565 S
C279 C284 1.350 1_565 S
C279 N287 1.427 . S
C280 H271 0.930 . S
C280 C278 1.378 . S
C280 C281 1.367 1_565 S
C281 C280 1.367 1_545 S
C281 C283 1.433 . S
C282 C278 1.350 1_545 S
C282 C279 1.463 1_545 S
C282 N286 1.427 . S
C283 H273 0.929 . S
C283 C281 1.433 . S
C283 N286 1.384 . S
C284 H275 0.929 . S
C284 C276 1.378 . S
C284 C279 1.350 1_545 S
C285 H272 0.929 . S
C285 C277 1.433 . S
C285 N287 1.384 . S
N286 C282 1.427 . S
N286 C283 1.384 . S
N287 C279 1.427 . S
N287 C285 1.384 . S
H288 C294 0.930 . S
H289 C298 0.930 . S
H290 C303 0.929 . S
H291 C301 0.929 . S
H292 C296 0.929 . S
H293 C302 0.929 . S
C294 H288 0.930 . S
C294 C295 1.367 . S
C294 C302 1.378 . S
C295 C294 1.367 . S
C295 C303 1.433 . S
C296 H292 0.929 . S
C296 C298 1.378 . S
C296 C300 1.350 . S
C297 C300 1.463 . S
C297 C302 1.350 . S
C297 N305 1.427 . S
C298 H289 0.930 . S
C298 C296 1.378 . S
C298 C299 1.367 . S
C299 C298 1.367 . S
C299 C301 1.433 . S
C300 C296 1.350 . S
C300 C297 1.463 . S
C300 N304 1.427 . S
C301 H291 0.929 . S
C301 C299 1.433 . S
C301 N304 1.384 . S
C302 H293 0.929 . S
C302 C294 1.378 . S
C302 C297 1.350 . S
C303 H290 0.929 . S
C303 C295 1.433 . S
C303 N305 1.384 . S
N304 C300 1.427 . S
N304 C301 1.384 . S
N305 C297 1.427 . S
N305 C303 1.384 . S
H306 C312 0.930 . S
H307 C316 0.930 . S
H308 C321 0.929 . S
H309 C319 0.929 . S
H310 C314 0.929 . S
H311 C320 0.929 . S
C312 H306 0.930 . S
C312 C313 1.367 . S
C312 C320 1.378 . S
C313 C312 1.367 . S
C313 C321 1.433 1_554 S
C314 H310 0.929 . S
C314 C316 1.378 . S
C314 C318 1.350 1_556 S
C315 C318 1.463 . S
C315 C320 1.350 . S
C315 N323 1.427 1_554 S
C316 H307 0.930 . S
C316 C314 1.378 . S
C316 C317 1.367 . S
C317 C316 1.367 . S
C317 C319 1.433 1_556 S
C318 C314 1.350 1_554 S
C318 C315 1.463 . S
C318 N322 1.427 . S
C319 H309 0.929 . S
C319 C317 1.433 1_554 S
C319 N322 1.384 . S
C320 H311 0.929 . S
C320 C312 1.378 . S
C320 C315 1.350 . S
C321 H308 0.929 . S
C321 C313 1.433 1_556 S
C321 N323 1.384 . S
N322 C318 1.427 . S
N322 C319 1.384 . S
N323 C315 1.427 1_556 S
N323 C321 1.384 . S
H324 C330 0.930 . S
H325 C334 0.930 . S
H326 C339 0.929 . S
H327 C337 0.929 . S
H328 C332 0.929 . S
H329 C338 0.929 . S
C330 H324 0.930 . S
C330 C331 1.367 . S
C330 C338 1.378 . S
C331 C330 1.367 . S
C331 C339 1.433 1_554 S
C332 H328 0.929 . S
C332 C334 1.378 . S
C332 C336 1.350 1_556 S
C333 C336 1.463 . S
C333 C338 1.350 . S
C333 N341 1.427 1_554 S
C334 H325 0.930 . S
C334 C332 1.378 . S
C334 C335 1.367 1_556 S
C335 C334 1.367 1_554 S
C335 C337 1.433 . S
C336 C332 1.350 1_554 S
C336 C333 1.463 . S
C336 N340 1.427 . S
C337 H327 0.929 . S
C337 C335 1.433 . S
C337 N340 1.384 . S
C338 H329 0.929 . S
C338 C330 1.378 . S
C338 C333 1.350 . S
C339 H326 0.929 . S
C339 C331 1.433 1_556 S
C339 N341 1.384 . S
N340 C336 1.427 . S
N340 C337 1.384 . S
N341 C333 1.427 1_556 S
N341 C339 1.384 . S
H342 C348 0.930 . S
H343 C352 0.930 . S
H344 C357 0.929 . S
H345 C355 0.929 . S
H346 C350 0.929 . S
H347 C356 0.929 . S
C348 H342 0.930 . S
C348 C349 1.367 . S
C348 C356 1.378 . S
C349 C348 1.367 . S
C349 C357 1.433 1_554 S
C350 H346 0.929 . S
C350 C352 1.378 . S
C350 C354 1.350 1_556 S
C351 C354 1.463 . S
C351 C356 1.350 . S
C351 N359 1.427 1_554 S
C352 H343 0.930 . S
C352 C350 1.378 . S
C352 C353 1.367 1_556 S
C353 C352 1.367 1_554 S
C353 C355 1.433 . S
C354 C350 1.350 1_554 S
C354 C351 1.463 . S
C354 N358 1.427 . S
C355 H345 0.929 . S
C355 C353 1.433 . S
C355 N358 1.384 . S
C356 H347 0.929 . S
C356 C348 1.378 . S
C356 C351 1.350 . S
C357 H344 0.929 . S
C357 C349 1.433 1_556 S
C357 N359 1.384 . S
N358 C354 1.427 . S
N358 C355 1.384 . S
N359 C351 1.427 1_556 S
N359 C357 1.384 . S
H360 C366 0.930 . S
H361 C370 0.930 . S
H362 C375 0.929 . S
H363 C373 0.929 . S
H364 C368 0.929 . S
H365 C374 0.929 . S
C366 H360 0.930 . S
C366 C367 1.367 . S
C366 C374 1.378 . S
C367 C366 1.367 . S
C367 C375 1.433 1_556 S
C368 H364 0.929 . S
C368 C370 1.378 . S
C368 C372 1.350 1_554 S
C369 C372 1.463 . S
C369 C374 1.350 . S
C369 N377 1.427 1_556 S
C370 H361 0.930 . S
C370 C368 1.378 . S
C370 C371 1.367 . S
C371 C370 1.367 . S
C371 C373 1.433 1_554 S
C372 C368 1.350 1_556 S
C372 C369 1.463 . S
C372 N376 1.427 . S
C373 H363 0.929 . S
C373 C371 1.433 1_556 S
C373 N376 1.384 . S
C374 H365 0.929 . S
C374 C366 1.378 . S
C374 C369 1.350 . S
C375 H362 0.929 . S
C375 C367 1.433 1_554 S
C375 N377 1.384 . S
N376 C372 1.427 . S
N376 C373 1.384 . S
N377 C369 1.427 1_554 S
N377 C375 1.384 . S
H378 C384 0.930 . S
H379 C388 0.930 . S
H380 C393 0.929 . S
H381 C391 0.929 . S
H382 C386 0.929 . S
H383 C392 0.929 . S
C384 H378 0.930 . S
C384 C385 1.367 1_554 S
C384 C392 1.378 . S
C385 C384 1.367 1_556 S
C385 C393 1.433 . S
C386 H382 0.929 . S
C386 C388 1.378 . S
C386 C390 1.350 . S
C387 C390 1.463 . S
C387 C392 1.350 1_556 S
C387 N395 1.427 . S
C388 H379 0.930 . S
C388 C386 1.378 . S
C388 C389 1.367 . S
C389 C388 1.367 . S
C389 C391 1.433 1_556 S
C390 C386 1.350 . S
C390 C387 1.463 . S
C390 N394 1.427 1_556 S
C391 H381 0.929 . S
C391 C389 1.433 1_554 S
C391 N394 1.384 . S
C392 H383 0.929 . S
C392 C384 1.378 . S
C392 C387 1.350 1_554 S
C393 H380 0.929 . S
C393 C385 1.433 . S
C393 N395 1.384 . S
N394 C390 1.427 1_554 S
N394 C391 1.384 . S
N395 C387 1.427 . S
N395 C393 1.384 . S
H396 C402 0.930 . S
H397 C406 0.930 . S
H398 C411 0.929 . S
H399 C409 0.929 . S
H400 C404 0.929 . S
H401 C410 0.929 . S
C402 H396 0.930 . S
C402 C403 1.367 1_554 S
C402 C410 1.378 . S
C403 C402 1.367 1_556 S
C403 C411 1.433 . S
C404 H400 0.929 . S
C404 C406 1.378 . S
C404 C408 1.350 . S
C405 C408 1.463 . S
C405 C410 1.350 1_556 S
C405 N413 1.427 . S
C406 H397 0.930 . S
C406 C404 1.378 . S
C406 C407 1.367 . S
C407 C406 1.367 . S
C407 C409 1.433 1_556 S
C408 C404 1.350 . S
C408 C405 1.463 . S
C408 N412 1.427 1_556 S
C409 H399 0.929 . S
C409 C407 1.433 1_554 S
C409 N412 1.384 . S
C410 H401 0.929 . S
C410 C402 1.378 . S
C410 C405 1.350 1_554 S
C411 H398 0.929 . S
C411 C403 1.433 . S
C411 N413 1.384 . S
N412 C408 1.427 1_554 S
N412 C409 1.384 . S
N413 C405 1.427 . S
N413 C411 1.384 . S
C259 C75 1.486 . S
C263 C66 1.486 . S
C277 C159 1.469 . S
C281 C150 1.470 . S
C295 C243 1.492 . S
C299 C234 1.492 . S
C313 C56 1.561 . S
C317 C240 1.473 . S
C331 C156 0.766 . S
C335 C72 0.777 1_554 S
C349 C140 2.311 . S
C353 C235 2.368 . S
C367 C67 1.572 . S
C371 C231 1.487 . S
C385 C63 0.781 1_556 S
C389 C147 0.766 . S
C403 C224 2.367 . S
C407 C151 2.304 . S
