# Generated by pormake.
# Topology neb, (4)-cn, num edge types: 1
# Building blocks:
#     Node 0, Type 0, BuildingBlock: KUFVIS_clean_sbu_0, # of connection points: 4
#     Node 1, Type 0, BuildingBlock: KUFVIS_clean_sbu_0, # of connection points: 4
#     Node 2, Type 0, BuildingBlock: KUFVIS_clean_sbu_0, # of connection points: 4
#     Node 3, Type 0, BuildingBlock: KUFVIS_clean_sbu_0, # of connection points: 4
#     Node 4, Type 0, BuildingBlock: KUFVIS_clean_sbu_0, # of connection points: 4
#     Node 5, Type 0, BuildingBlock: KUFVIS_clean_sbu_0, # of connection points: 4
#     Node 6, Type 0, BuildingBlock: KUFVIS_clean_sbu_0, # of connection points: 4
#     Node 7, Type 0, BuildingBlock: KUFVIS_clean_sbu_0, # of connection points: 4
#     Node 8, Type 0, BuildingBlock: KUFVIS_clean_sbu_0, # of connection points: 4
#     Node 9, Type 0, BuildingBlock: KUFVIS_clean_sbu_0, # of connection points: 4
#     Node 10, Type 0, BuildingBlock: KUFVIS_clean_sbu_0, # of connection points: 4
#     Node 11, Type 0, BuildingBlock: KUFVIS_clean_sbu_0, # of connection points: 4
#     Node 12, Type 0, BuildingBlock: KUFVIS_clean_sbu_0, # of connection points: 4
#     Node 13, Type 0, BuildingBlock: KUFVIS_clean_sbu_0, # of connection points: 4
#     Node 14, Type 0, BuildingBlock: KUFVIS_clean_sbu_0, # of connection points: 4
#     Node 15, Type 0, BuildingBlock: KUFVIS_clean_sbu_0, # of connection points: 4
#     Edge 16, Type (0, 0), BuildingBlock: OJICUG_clean_linker_0, # of connection points: 2
#     Edge 17, Type (0, 0), BuildingBlock: OJICUG_clean_linker_0, # of connection points: 2
#     Edge 18, Type (0, 0), BuildingBlock: OJICUG_clean_linker_0, # of connection points: 2
#     Edge 19, Type (0, 0), BuildingBlock: OJICUG_clean_linker_0, # of connection points: 2
#     Edge 20, Type (0, 0), BuildingBlock: OJICUG_clean_linker_0, # of connection points: 2
#     Edge 21, Type (0, 0), BuildingBlock: OJICUG_clean_linker_0, # of connection points: 2
#     Edge 22, Type (0, 0), BuildingBlock: OJICUG_clean_linker_0, # of connection points: 2
#     Edge 23, Type (0, 0), BuildingBlock: OJICUG_clean_linker_0, # of connection points: 2
#     Edge 24, Type (0, 0), BuildingBlock: OJICUG_clean_linker_0, # of connection points: 2
#     Edge 25, Type (0, 0), BuildingBlock: OJICUG_clean_linker_0, # of connection points: 2
#     Edge 26, Type (0, 0), BuildingBlock: OJICUG_clean_linker_0, # of connection points: 2
#     Edge 27, Type (0, 0), BuildingBlock: OJICUG_clean_linker_0, # of connection points: 2
#     Edge 28, Type (0, 0), BuildingBlock: OJICUG_clean_linker_0, # of connection points: 2
#     Edge 29, Type (0, 0), BuildingBlock: OJICUG_clean_linker_0, # of connection points: 2
#     Edge 30, Type (0, 0), BuildingBlock: OJICUG_clean_linker_0, # of connection points: 2
#     Edge 31, Type (0, 0), BuildingBlock: OJICUG_clean_linker_0, # of connection points: 2
#     Edge 32, Type (0, 0), BuildingBlock: OJICUG_clean_linker_0, # of connection points: 2
#     Edge 33, Type (0, 0), BuildingBlock: OJICUG_clean_linker_0, # of connection points: 2
#     Edge 34, Type (0, 0), BuildingBlock: OJICUG_clean_linker_0, # of connection points: 2
#     Edge 35, Type (0, 0), BuildingBlock: OJICUG_clean_linker_0, # of connection points: 2
#     Edge 36, Type (0, 0), BuildingBlock: OJICUG_clean_linker_0, # of connection points: 2
#     Edge 37, Type (0, 0), BuildingBlock: OJICUG_clean_linker_0, # of connection points: 2
#     Edge 38, Type (0, 0), BuildingBlock: OJICUG_clean_linker_0, # of connection points: 2
#     Edge 39, Type (0, 0), BuildingBlock: OJICUG_clean_linker_0, # of connection points: 2
#     Edge 40, Type (0, 0), BuildingBlock: OJICUG_clean_linker_0, # of connection points: 2
#     Edge 41, Type (0, 0), BuildingBlock: OJICUG_clean_linker_0, # of connection points: 2
#     Edge 42, Type (0, 0), BuildingBlock: OJICUG_clean_linker_0, # of connection points: 2
#     Edge 43, Type (0, 0), BuildingBlock: OJICUG_clean_linker_0, # of connection points: 2
#     Edge 44, Type (0, 0), BuildingBlock: OJICUG_clean_linker_0, # of connection points: 2
#     Edge 45, Type (0, 0), BuildingBlock: OJICUG_clean_linker_0, # of connection points: 2
#     Edge 46, Type (0, 0), BuildingBlock: OJICUG_clean_linker_0, # of connection points: 2
#     Edge 47, Type (0, 0), BuildingBlock: OJICUG_clean_linker_0, # of connection points: 2
# Relax obj value: 0.012
# Max RMSD: 0.058
# Mean RMSD: 0.058
data_MOF--net-neb--node1-KUFVIS_clean_sbu_0--edge1-OJICUG_clean_linker_0
_symmetry_space_group_name_H-M    P1
_symmetry_Int_Tables_number       1
_symmetry_cell_setting            triclinic
loop_
_symmetry_equiv_pos_as_xyz
'x, y, z'
_cell_length_a     30.188981
_cell_length_b     16.889562
_cell_length_c     54.451897
_cell_angle_alpha  94.135333
_cell_angle_beta   90.233272
_cell_angle_gamma 89.924808
loop_
_atom_site_label
_atom_site_type_symbol
_atom_site_fract_x
_atom_site_fract_y
_atom_site_fract_z
_atom_type_partial_charge
Mn0 Mn 0.13204 0.10442 0.45155 0.0
Mn1 Mn 0.2247 0.11363 0.4175 0.0
C2 C 0.14132 0.01478 0.41748 0.0
C3 C 0.08608 0.05899 0.48213 0.0
C4 C 0.14795 0.22513 0.41325 0.0
O5 O 0.17414 0.16141 0.47604 0.0
O6 O 0.23204 0.17178 0.45066 0.0
C7 C 0.29049 0.03171 0.44712 0.0
N8 N 0.26957 0.03985 0.42524 0.0
C9 C 0.32838 0.97178 0.40276 0.0
C10 C 0.35088 0.96347 0.42503 0.0
C11 C 0.33139 0.99203 0.44734 0.0
C12 C 0.28724 0.00972 0.40378 0.0
H13 H 0.27674 0.05728 0.46417 0.0
C14 C 0.21362 0.18345 0.47181 0.0
O15 O 0.07999 0.1272 0.47322 0.0
O16 O 0.12065 0.01875 0.47437 0.0
N17 N 0.22486 0.06055 0.38538 0.0
C18 C 0.19711 0.06893 0.36598 0.0
C19 C 0.20886 0.03502 0.34259 0.0
C20 C 0.24965 -0.00461 0.33933 0.0
C21 C 0.27765 0.98794 0.35966 0.0
C22 C 0.26323 0.01987 0.38263 0.0
H23 H 0.16642 0.10132 0.36842 0.0
O24 O 0.1026 0.03895 0.42513 0.0
O25 O 0.1755 0.04733 0.42924 0.0
O26 O 0.12641 0.2031 0.43153 0.0
O27 O 0.18414 0.19353 0.40621 0.0
C28 C 0.3196 0.95145 0.35806 0.0
C29 C 0.34542 0.94532 0.37953 0.0
H30 H 0.383 0.93493 0.42524 0.0
H31 H 0.3485 0.98564 0.46459 0.0
H32 H 0.18702 0.04095 0.32701 0.0
H33 H 0.25912 0.97095 0.32116 0.0
H34 H 0.33244 0.92836 0.34042 0.0
H35 H 0.37803 0.91875 0.37803 0.0
Mn36 Mn 0.13082 0.12558 0.8245 0.0
Mn37 Mn 0.22281 0.11136 0.85938 0.0
C38 C 0.14013 0.21234 0.85931 0.0
C39 C 0.0855 0.17438 0.79389 0.0
C40 C 0.14551 0.0005 0.86162 0.0
O41 O 0.17324 0.06995 0.80004 0.0
O42 O 0.23081 0.05681 0.82579 0.0
C43 C 0.29052 0.19429 0.83179 0.0
N44 N 0.26834 0.18523 0.85314 0.0
C45 C 0.3266 0.24985 0.87723 0.0
C46 C 0.35045 0.2586 0.85554 0.0
C47 C 0.33188 0.23234 0.83269 0.0
C48 C 0.28523 0.21306 0.87513 0.0
H49 H 0.27744 0.17042 0.81432 0.0
C50 C 0.21268 0.04736 0.80442 0.0
O51 O 0.07905 0.10547 0.8022 0.0
O52 O 0.12008 0.21354 0.80229 0.0
N53 N 0.22196 0.16112 0.89195 0.0
C54 C 0.19347 0.15087 0.91077 0.0
C55 C 0.20425 0.18267 0.93459 0.0
C56 C 0.24486 0.22212 0.93888 0.0
C57 C 0.2737 0.2313 0.91915 0.0
C58 C 0.26023 0.2014 0.89571 0.0
H59 H 0.16297 0.1184 0.90756 0.0
O60 O 0.10136 0.1896 0.85117 0.0
O61 O 0.17425 0.17979 0.84764 0.0
O62 O 0.12423 0.02508 0.84353 0.0
O63 O 0.18178 0.03052 0.86922 0.0
C64 C 0.3156 0.26755 0.92179 0.0
C65 C 0.34253 0.2747 0.90092 0.0
H66 H 0.38293 0.2858 0.85616 0.0
H67 H 0.35002 0.23921 0.81587 0.0
H68 H 0.18183 0.17523 0.94971 0.0
H69 H 0.25358 0.24491 0.95737 0.0
H70 H 0.32763 0.28939 0.93979 0.0
H71 H 0.37516 0.30069 0.90325 0.0
Mn72 Mn 0.90653 0.88218 0.57422 0.0
Mn73 Mn 0.81407 0.8732 0.60845 0.0
C74 C 0.89741 0.97202 0.60826 0.0
C75 C 0.95233 0.9274 0.54355 0.0
C76 C 0.89085 0.76175 0.61265 0.0
O77 O 0.86428 0.82504 0.54984 0.0
O78 O 0.80657 0.81473 0.57535 0.0
C79 C 0.74814 0.95483 0.57884 0.0
N80 N 0.76915 0.94687 0.6007 0.0
C81 C 0.71046 0.01523 0.6232 0.0
C82 C 0.68787 0.02334 0.60095 0.0
C83 C 0.70725 -0.00546 0.57864 0.0
C84 C 0.75158 0.97724 0.62216 0.0
H85 H 0.76181 0.92909 0.56179 0.0
C86 C 0.82486 0.80295 0.55417 0.0
O87 O 0.95845 0.85925 0.55249 0.0
O88 O 0.91779 0.96769 0.55133 0.0
N89 N 0.81404 0.92656 0.64052 0.0
C90 C 0.84188 0.91835 0.6599 0.0
C91 C 0.83024 0.9525 0.68329 0.0
C92 C 0.78947 0.99221 0.68656 0.0
C93 C 0.76138 -0.00053 0.66626 0.0
C94 C 0.7757 0.96729 0.64329 0.0
H95 H 0.87255 0.88589 0.65746 0.0
O96 O 0.9361 0.94782 0.60055 0.0
O97 O 0.86319 0.93939 0.59657 0.0
O98 O 0.91225 0.78363 0.5943 0.0
O99 O 0.85471 0.79344 0.61974 0.0
C100 C 0.71945 0.03601 0.66788 0.0
C101 C 0.69353 0.04194 0.64643 0.0
H102 H 0.65575 0.0519 0.60075 0.0
H103 H 0.69007 0.00077 0.5614 0.0
H104 H 0.85214 0.94671 0.69884 0.0
H105 H 0.78009 0.01685 0.70472 0.0
H106 H 0.70669 0.05929 0.68551 0.0
H107 H 0.66093 0.06855 0.64794 0.0
Mn108 Mn 0.90711 0.86109 0.20184 0.0
Mn109 Mn 0.81504 0.87543 0.16704 0.0
C110 C 0.89777 0.77458 0.16697 0.0
C111 C 0.95263 0.81215 0.23234 0.0
C112 C 0.89226 0.98647 0.16484 0.0
O113 O 0.86469 0.91635 0.22639 0.0
O114 O 0.80709 0.92965 0.20067 0.0
C115 C 0.7474 0.79214 0.19458 0.0
N116 N 0.76955 0.80142 0.17324 0.0
C117 C 0.71125 0.73704 0.14911 0.0
C118 C 0.68743 0.72806 0.17081 0.0
C119 C 0.70604 0.75408 0.19367 0.0
C120 C 0.75262 0.77381 0.15123 0.0
H121 H 0.7605 0.81584 0.21206 0.0
C122 C 0.82523 0.9389 0.22205 0.0
O123 O 0.95894 0.88119 0.22409 0.0
O124 O 0.91806 0.77293 0.22396 0.0
N125 N 0.81585 0.82598 0.13443 0.0
C126 C 0.8443 0.83645 0.11561 0.0
C127 C 0.83347 0.80491 0.09176 0.0
C128 C 0.79286 0.76549 0.08746 0.0
C129 C 0.76406 0.75606 0.1072 0.0
C130 C 0.77757 0.78571 0.13065 0.0
H131 H 0.8748 0.8689 0.11883 0.0
O132 O 0.93653 0.79741 0.17509 0.0
O133 O 0.86365 0.80695 0.1787 0.0
O134 O 0.91357 0.9618 0.18291 0.0
O135 O 0.85599 0.95644 0.15724 0.0
C136 C 0.72216 0.71984 0.10454 0.0
C137 C 0.69528 0.71244 0.12541 0.0
H138 H 0.65495 0.70084 0.17016 0.0
H139 H 0.68793 0.74703 0.21048 0.0
H140 H 0.85587 0.81254 0.07665 0.0
H141 H 0.78411 0.7429 0.06896 0.0
H142 H 0.71011 0.69819 0.08653 0.0
H143 H 0.66264 0.68647 0.12307 0.0
Mn144 Mn 0.13188 0.60464 0.95188 0.0
Mn145 Mn 0.22434 0.61392 0.91767 0.0
C146 C 0.14102 0.51503 0.91779 0.0
C147 C 0.08605 0.55919 0.98251 0.0
C148 C 0.14754 0.72535 0.91354 0.0
O149 O 0.17412 0.66156 0.97631 0.0
O150 O 0.2318 0.6722 0.9508 0.0
C151 C 0.29032 0.53226 0.94724 0.0
N152 N 0.26929 0.54027 0.92538 0.0
C153 C 0.32803 0.47216 0.90285 0.0
C154 C 0.35064 0.46402 0.9251 0.0
C155 C 0.33124 0.49266 0.94742 0.0
C156 C 0.28688 0.51005 0.90391 0.0
H157 H 0.27663 0.55787 0.9643 0.0
C158 C 0.21353 0.68375 0.97199 0.0
O159 O 0.07994 0.62742 0.97362 0.0
O160 O 0.12058 0.51894 0.97471 0.0
N161 N 0.2244 0.56074 0.88557 0.0
C162 C 0.19658 0.56904 0.86619 0.0
C163 C 0.20823 0.53503 0.8428 0.0
C164 C 0.24901 0.49537 0.8395 0.0
C165 C 0.2771 0.48803 0.85981 0.0
C166 C 0.26277 0.52007 0.88279 0.0
H167 H 0.1659 0.60147 0.86865 0.0
O168 O 0.10233 0.5392 0.9255 0.0
O169 O 0.17524 0.54759 0.92951 0.0
O170 O 0.12617 0.70338 0.93189 0.0
O171 O 0.18367 0.6937 0.90641 0.0
C172 C 0.31905 0.45154 0.85817 0.0
C173 C 0.34497 0.44555 0.87962 0.0
H174 H 0.38279 0.43556 0.92528 0.0
H175 H 0.34844 0.48641 0.96465 0.0
H176 H 0.18634 0.54089 0.82724 0.0
H177 H 0.25841 0.47085 0.82134 0.0
H178 H 0.33181 0.42835 0.84053 0.0
H179 H 0.37758 0.419 0.87809 0.0
Mn180 Mn 0.13115 0.62537 0.32419 0.0
Mn181 Mn 0.22321 0.61115 0.35901 0.0
C182 C 0.1405 0.71202 0.35903 0.0
C183 C 0.08564 0.67422 0.29367 0.0
C184 C 0.14599 0.50016 0.36125 0.0
O185 O 0.17356 0.56997 0.29966 0.0
O186 O 0.23115 0.55677 0.32539 0.0
C187 C 0.29083 0.69431 0.33142 0.0
N188 N 0.26871 0.68511 0.35277 0.0
C189 C 0.32702 0.74958 0.37686 0.0
C190 C 0.35081 0.7585 0.35515 0.0
C191 C 0.33218 0.73239 0.3323 0.0
C192 C 0.28564 0.7128 0.37476 0.0
H193 H 0.27772 0.67055 0.31394 0.0
C194 C 0.21301 0.54741 0.30402 0.0
O195 O 0.07932 0.60521 0.30194 0.0
O196 O 0.12022 0.71344 0.30203 0.0
N197 N 0.22242 0.66075 0.39159 0.0
C198 C 0.19397 0.65036 0.41043 0.0
C199 C 0.20483 0.68199 0.43426 0.0
C200 C 0.24545 0.7214 0.43854 0.0
C201 C 0.27424 0.73073 0.41879 0.0
C202 C 0.2607 0.70101 0.39535 0.0
H203 H 0.16347 0.61791 0.40722 0.0
O204 O 0.10173 0.68919 0.35092 0.0
O205 O 0.17461 0.67958 0.34732 0.0
O206 O 0.12468 0.52475 0.34316 0.0
O207 O 0.18225 0.53022 0.36884 0.0
C208 C 0.31615 0.76692 0.42143 0.0
C209 C 0.34302 0.77423 0.40055 0.0
H210 H 0.38329 0.78574 0.35577 0.0
H211 H 0.35028 0.73939 0.31548 0.0
H212 H 0.18244 0.67443 0.44939 0.0
H213 H 0.25422 0.74404 0.45703 0.0
H214 H 0.32822 0.78861 0.43943 0.0
H215 H 0.37566 0.80018 0.40287 0.0
Mn216 Mn 0.90634 0.38207 0.07449 0.0
Mn217 Mn 0.81368 0.37296 0.10855 0.0
C218 C 0.89704 0.4718 0.10854 0.0
C219 C 0.95229 0.42744 0.04389 0.0
C220 C 0.89044 0.2615 0.11284 0.0
O221 O 0.86424 0.32497 0.05002 0.0
O222 O 0.80636 0.31467 0.07541 0.0
C223 C 0.7479 0.45475 0.07889 0.0
N224 N 0.76881 0.44668 0.10077 0.0
C225 C 0.70999 0.51482 0.12322 0.0
C226 C 0.68751 0.52307 0.10094 0.0
C227 C 0.70701 0.49444 0.07864 0.0
C228 C 0.75112 0.47689 0.12222 0.0
H229 H 0.76166 0.42911 0.06185 0.0
C230 C 0.82478 0.30291 0.05427 0.0
O231 O 0.95839 0.35926 0.05283 0.0
O232 O 0.9177 0.46766 0.05164 0.0
N233 N 0.8135 0.42615 0.14065 0.0
C234 C 0.84124 0.41785 0.16006 0.0
C235 C 0.82948 0.45183 0.18344 0.0
C236 C 0.78868 0.49145 0.18668 0.0
C237 C 0.76069 0.49882 0.16634 0.0
C238 C 0.77513 0.46683 0.14338 0.0
H239 H 0.87193 0.38545 0.15764 0.0
O240 O 0.93577 0.44764 0.10089 0.0
O241 O 0.86288 0.4392 0.09678 0.0
O242 O 0.91197 0.28346 0.09455 0.0
O243 O 0.85425 0.29313 0.11987 0.0
C244 C 0.71873 0.53529 0.16792 0.0
C245 C 0.69292 0.54135 0.14644 0.0
H246 H 0.65538 0.55162 0.10071 0.0
H247 H 0.68991 0.50076 0.06139 0.0
H248 H 0.8513 0.44595 0.19903 0.0
H249 H 0.77919 0.51594 0.20484 0.0
H250 H 0.70588 0.55842 0.18555 0.0
H251 H 0.66031 0.5679 0.14792 0.0
Mn252 Mn 0.90774 0.36126 0.7016 0.0
Mn253 Mn 0.81572 0.37576 0.66676 0.0
C254 C 0.89837 0.27471 0.66675 0.0
C255 C 0.95311 0.31227 0.73216 0.0
C256 C 0.89302 0.48662 0.66458 0.0
O257 O 0.86533 0.41672 0.72612 0.0
O258 O 0.80776 0.43008 0.70039 0.0
C259 C 0.748 0.29272 0.69431 0.0
N260 N 0.77017 0.30187 0.67297 0.0
C261 C 0.71186 0.23753 0.64885 0.0
C262 C 0.688 0.22872 0.67054 0.0
C263 C 0.70661 0.25479 0.6934 0.0
C264 C 0.75326 0.27422 0.65097 0.0
H265 H 0.76109 0.31645 0.71179 0.0
C266 C 0.8259 0.43935 0.72176 0.0
O267 O 0.95953 0.38125 0.72389 0.0
O268 O 0.91853 0.27313 0.72376 0.0
N269 N 0.81653 0.32623 0.63417 0.0
C270 C 0.84499 0.33662 0.61535 0.0
C271 C 0.83417 0.30501 0.59151 0.0
C272 C 0.79355 0.26561 0.58721 0.0
C273 C 0.76473 0.25629 0.60694 0.0
C274 C 0.77824 0.286 0.63039 0.0
H275 H 0.8755 0.36907 0.61856 0.0
O276 O 0.93715 0.29742 0.67488 0.0
O277 O 0.86427 0.3072 0.67845 0.0
O278 O 0.91431 0.46192 0.68265 0.0
O279 O 0.85674 0.45666 0.65697 0.0
C280 C 0.72282 0.2201 0.60429 0.0
C281 C 0.69591 0.21284 0.62516 0.0
H282 H 0.6555 0.2016 0.6699 0.0
H283 H 0.68846 0.24785 0.71021 0.0
H284 H 0.85658 0.31257 0.57639 0.0
H285 H 0.7848 0.24297 0.56871 0.0
H286 H 0.71078 0.19839 0.58628 0.0
H287 H 0.66326 0.1869 0.62282 0.0
Mn288 Mn 0.63223 0.10435 0.9517 0.0
Mn289 Mn 0.72485 0.11358 0.91762 0.0
C290 C 0.64149 0.01472 0.91763 0.0
C291 C 0.58631 0.05888 0.98229 0.0
C292 C 0.64809 0.22505 0.91338 0.0
O293 O 0.67435 0.16136 0.97617 0.0
O294 O 0.7322 0.17179 0.95077 0.0
C295 C 0.79068 0.03174 0.94724 0.0
N296 N 0.76974 0.03985 0.92536 0.0
C297 C 0.82855 0.97178 0.90288 0.0
C298 C 0.85106 0.9635 0.92515 0.0
C299 C 0.83157 0.99207 0.94746 0.0
C300 C 0.78741 0.00969 0.9039 0.0
H301 H 0.77692 0.05733 0.96429 0.0
C302 C 0.7138 0.18346 0.97192 0.0
O303 O 0.5802 0.12709 0.97338 0.0
O304 O 0.62088 0.01867 0.97452 0.0
N305 N 0.72501 0.06047 0.88551 0.0
C306 C 0.69726 0.06882 0.8661 0.0
C307 C 0.709 0.03491 0.84271 0.0
C308 C 0.7498 -0.00472 0.83945 0.0
C309 C 0.77781 0.98787 0.85978 0.0
C310 C 0.76338 0.01981 0.88276 0.0
H311 H 0.66657 0.10122 0.86854 0.0
O312 O 0.60277 0.03887 0.92529 0.0
O313 O 0.67567 0.04728 0.92938 0.0
O314 O 0.62658 0.20304 0.93168 0.0
O315 O 0.68426 0.19343 0.90633 0.0
C316 C 0.81977 0.9514 0.85819 0.0
C317 C 0.84559 0.9453 0.87966 0.0
H318 H 0.88319 0.93497 0.92536 0.0
H319 H 0.84869 0.98572 0.96471 0.0
H320 H 0.68717 0.04082 0.82714 0.0
H321 H 0.75927 0.97084 0.82129 0.0
H322 H 0.8326 0.92831 0.84055 0.0
H323 H 0.87821 0.91875 0.87816 0.0
Mn324 Mn 0.63067 0.12492 0.32461 0.0
Mn325 Mn 0.72269 0.1105 0.35945 0.0
C326 C 0.64001 0.21151 0.35946 0.0
C327 C 0.5853 0.17387 0.29404 0.0
C328 C 0.6454 -0.00038 0.36165 0.0
O329 O 0.67307 0.06945 0.3001 0.0
O330 O 0.73065 0.05614 0.32583 0.0
C331 C 0.79038 0.19356 0.33188 0.0
N332 N 0.76822 0.1844 0.35322 0.0
C333 C 0.82652 0.24884 0.37734 0.0
C334 C 0.85036 0.25766 0.35564 0.0
C335 C 0.83175 0.23155 0.33278 0.0
C336 C 0.78513 0.2121 0.37523 0.0
H337 H 0.77728 0.16981 0.31441 0.0
C338 C 0.71251 0.04685 0.30446 0.0
O339 O 0.57888 0.1049 0.30232 0.0
O340 O 0.61988 0.21301 0.30245 0.0
N341 N 0.72188 0.16007 0.39204 0.0
C342 C 0.69341 0.14971 0.41086 0.0
C343 C 0.70423 0.18136 0.43469 0.0
C344 C 0.74484 0.22078 0.43898 0.0
C345 C 0.77366 0.23009 0.41925 0.0
C346 C 0.76016 0.20033 0.3958 0.0
H347 H 0.66291 0.11726 0.40765 0.0
O348 O 0.60124 0.18877 0.35132 0.0
O349 O 0.67412 0.17902 0.34776 0.0
O350 O 0.6241 0.02429 0.34357 0.0
O351 O 0.68167 0.0296 0.36925 0.0
C352 C 0.81556 0.26631 0.4219 0.0
C353 C 0.84247 0.27357 0.40103 0.0
H354 H 0.88285 0.28483 0.35627 0.0
H355 H 0.84989 0.23849 0.31597 0.0
H356 H 0.68183 0.17383 0.44981 0.0
H357 H 0.75359 0.24346 0.45748 0.0
H358 H 0.82761 0.28805 0.4399 0.0
H359 H 0.87511 0.29954 0.40336 0.0
Mn360 Mn 0.40676 0.88146 0.07429 0.0
Mn361 Mn 0.3143 0.87213 0.10849 0.0
C362 C 0.3976 0.97105 0.10838 0.0
C363 C 0.45259 0.92695 0.04366 0.0
C364 C 0.39111 0.76073 0.11262 0.0
O365 O 0.36453 0.82452 0.04986 0.0
O366 O 0.30685 0.81386 0.07537 0.0
C367 C 0.24831 0.95377 0.07893 0.0
N368 N 0.26934 0.94577 0.10079 0.0
C369 C 0.21061 0.01388 0.12332 0.0
C370 C 0.18799 0.022 0.10108 0.0
C371 C 0.20738 -0.00664 0.07875 0.0
C372 C 0.25176 0.976 0.12226 0.0
H373 H 0.26199 0.92816 0.06188 0.0
C374 C 0.32512 0.80232 0.05417 0.0
O375 O 0.45871 0.85872 0.05255 0.0
O376 O 0.41804 0.96718 0.05146 0.0
N377 N 0.31424 0.92531 0.1406 0.0
C378 C 0.34207 0.91701 0.15998 0.0
C379 C 0.33042 0.95103 0.18337 0.0
C380 C 0.28965 0.9907 0.18666 0.0
C381 C 0.26156 -0.00197 0.16636 0.0
C382 C 0.27588 0.96599 0.14338 0.0
H383 H 0.37274 0.88457 0.15752 0.0
O384 O 0.4363 0.94692 0.10067 0.0
O385 O 0.36339 0.93847 0.09666 0.0
O386 O 0.41249 0.78272 0.09428 0.0
O387 O 0.35498 0.79236 0.11975 0.0
C388 C 0.21961 0.03454 0.168 0.0
C389 C 0.19368 0.0405 0.14656 0.0
H390 H 0.15583 0.05046 0.1009 0.0
H391 H 0.19018 -0.0004 0.06152 0.0
H392 H 0.35232 0.94517 0.19892 0.0
H393 H 0.28026 0.01523 0.20483 0.0
H394 H 0.20685 0.05774 0.18564 0.0
H395 H 0.16107 0.06706 0.14809 0.0
Mn396 Mn 0.40719 0.86055 0.70189 0.0
Mn397 Mn 0.31509 0.8748 0.6671 0.0
C398 C 0.39779 0.77388 0.66706 0.0
C399 C 0.45272 0.81174 0.73242 0.0
C400 C 0.39231 0.98582 0.66486 0.0
O401 O 0.3648 0.91601 0.72642 0.0
O402 O 0.30715 0.92906 0.70072 0.0
C403 C 0.24745 0.79154 0.69465 0.0
N404 N 0.2696 0.80079 0.67331 0.0
C405 C 0.2113 0.7364 0.64918 0.0
C406 C 0.18749 0.72742 0.67088 0.0
C407 C 0.2061 0.75347 0.69374 0.0
C408 C 0.25268 0.77316 0.6513 0.0
H409 H 0.26055 0.81527 0.71213 0.0
C410 C 0.32533 0.93849 0.72208 0.0
O411 O 0.45904 0.88072 0.72412 0.0
O412 O 0.41813 0.77251 0.72406 0.0
N413 N 0.31591 0.8253 0.6345 0.0
C414 C 0.34436 0.83577 0.61567 0.0
C415 C 0.33353 0.80422 0.59183 0.0
C416 C 0.29292 0.7648 0.58753 0.0
C417 C 0.26412 0.75539 0.60727 0.0
C418 C 0.27763 0.78503 0.63072 0.0
H419 H 0.37485 0.86825 0.61889 0.0
O420 O 0.43657 0.79666 0.67516 0.0
O421 O 0.3637 0.80636 0.67877 0.0
O422 O 0.41367 0.96115 0.6829 0.0
O423 O 0.35602 0.95582 0.65729 0.0
C424 C 0.22221 0.71919 0.60461 0.0
C425 C 0.19533 0.71181 0.62548 0.0
H426 H 0.15501 0.7002 0.67024 0.0
H427 H 0.18798 0.74643 0.71055 0.0
H428 H 0.35592 0.81185 0.57671 0.0
H429 H 0.28416 0.74221 0.56903 0.0
H430 H 0.21015 0.69755 0.5866 0.0
H431 H 0.16268 0.68588 0.62314 0.0
Mn432 Mn 0.63176 0.60399 0.45198 0.0
Mn433 Mn 0.72423 0.61308 0.41777 0.0
C434 C 0.6409 0.51421 0.41793 0.0
C435 C 0.58594 0.55867 0.48264 0.0
C436 C 0.64743 0.7245 0.41359 0.0
O437 O 0.67399 0.66108 0.47639 0.0
O438 O 0.7317 0.67149 0.45088 0.0
C439 C 0.79018 0.53145 0.44737 0.0
N440 N 0.76916 0.53942 0.42551 0.0
C441 C 0.82787 0.47115 0.403 0.0
C442 C 0.85046 0.46303 0.42525 0.0
C443 C 0.83107 0.49177 0.44757 0.0
C444 C 0.78674 0.5091 0.40404 0.0
H445 H 0.77649 0.55715 0.46442 0.0
C446 C 0.71341 0.68322 0.47206 0.0
O447 O 0.57982 0.62686 0.47372 0.0
O448 O 0.62049 0.51841 0.47486 0.0
N449 N 0.72426 0.55977 0.38569 0.0
C450 C 0.69643 0.568 0.36631 0.0
C451 C 0.70808 0.5339 0.34292 0.0
C452 C 0.74885 0.49421 0.33964 0.0
C453 C 0.77694 0.48694 0.35995 0.0
C454 C 0.76262 0.51906 0.38292 0.0
H455 H 0.66576 0.60045 0.36876 0.0
O456 O 0.60221 0.53838 0.42563 0.0
O457 O 0.67512 0.54683 0.42963 0.0
O458 O 0.62604 0.70259 0.43193 0.0
O459 O 0.68357 0.69283 0.40648 0.0
C460 C 0.81889 0.45042 0.35832 0.0
C461 C 0.8448 0.44447 0.37977 0.0
H462 H 0.88259 0.43449 0.42544 0.0
H463 H 0.84826 0.48554 0.4648 0.0
H464 H 0.68618 0.53971 0.32737 0.0
H465 H 0.75824 0.46962 0.32148 0.0
H466 H 0.83165 0.42718 0.34068 0.0
H467 H 0.87741 0.41789 0.37825 0.0
Mn468 Mn 0.63129 0.62532 0.82434 0.0
Mn469 Mn 0.72339 0.61114 0.85913 0.0
C470 C 0.64066 0.71197 0.85917 0.0
C471 C 0.58575 0.67412 0.79381 0.0
C472 C 0.64619 0.5001 0.86138 0.0
O473 O 0.6737 0.56996 0.7998 0.0
O474 O 0.73133 0.5568 0.82551 0.0
C475 C 0.791 0.69435 0.83154 0.0
N476 N 0.76888 0.68513 0.85289 0.0
C477 C 0.8272 0.74957 0.87699 0.0
C478 C 0.85098 0.75851 0.85528 0.0
C479 C 0.83235 0.73242 0.83243 0.0
C480 C 0.78582 0.7128 0.87489 0.0
H481 H 0.77788 0.6706 0.81407 0.0
C482 C 0.71317 0.54745 0.80415 0.0
O483 O 0.57945 0.60512 0.8021 0.0
O484 O 0.62032 0.71338 0.80218 0.0
N485 N 0.7226 0.66071 0.89172 0.0
C486 C 0.69417 0.6503 0.91056 0.0
C487 C 0.70503 0.68191 0.93439 0.0
C488 C 0.74565 0.72132 0.93867 0.0
C489 C 0.77443 0.73068 0.91892 0.0
C490 C 0.76089 0.70097 0.89548 0.0
H491 H 0.66367 0.61785 0.90735 0.0
O492 O 0.60189 0.68913 0.85107 0.0
O493 O 0.67477 0.67955 0.84745 0.0
O494 O 0.62485 0.52469 0.84331 0.0
O495 O 0.68245 0.53017 0.86897 0.0
C496 C 0.81634 0.76688 0.92156 0.0
C497 C 0.8432 0.77421 0.90068 0.0
H498 H 0.88346 0.78575 0.8559 0.0
H499 H 0.85044 0.73944 0.81561 0.0
H500 H 0.68265 0.67433 0.94952 0.0
H501 H 0.75442 0.74395 0.95717 0.0
H502 H 0.82841 0.78856 0.93956 0.0
H503 H 0.87584 0.80018 0.903 0.0
Mn504 Mn 0.40609 0.3815 0.57452 0.0
Mn505 Mn 0.31339 0.37237 0.60854 0.0
C506 C 0.39681 0.47113 0.60859 0.0
C507 C 0.45209 0.42693 0.54396 0.0
C508 C 0.39012 0.26082 0.61283 0.0
O509 O 0.36399 0.32457 0.55001 0.0
O510 O 0.30609 0.31417 0.57539 0.0
C511 C 0.24769 0.45432 0.57887 0.0
N512 N 0.26855 0.44615 0.60076 0.0
C513 C 0.20969 0.51423 0.6232 0.0
C514 C 0.18726 0.52258 0.60091 0.0
C515 C 0.2068 0.49403 0.57862 0.0
C516 C 0.25083 0.47629 0.62221 0.0
H517 H 0.26148 0.42875 0.56183 0.0
C518 C 0.32452 0.30251 0.55424 0.0
O519 O 0.45815 0.3587 0.55287 0.0
O520 O 0.41752 0.46718 0.55171 0.0
N521 N 0.31317 0.42547 0.64065 0.0
C522 C 0.34087 0.4171 0.66008 0.0
C523 C 0.32906 0.45099 0.68346 0.0
C524 C 0.28825 0.49059 0.68669 0.0
C525 C 0.26031 0.49803 0.66634 0.0
C526 C 0.27479 0.46613 0.64338 0.0
H527 H 0.37157 0.38474 0.65766 0.0
O528 O 0.43552 0.4469 0.60095 0.0
O529 O 0.36263 0.43864 0.59682 0.0
O530 O 0.41166 0.2828 0.59454 0.0
O531 O 0.35393 0.29248 0.61986 0.0
C532 C 0.21835 0.53451 0.66791 0.0
C533 C 0.19258 0.54067 0.64642 0.0
H534 H 0.15514 0.55115 0.60068 0.0
H535 H 0.18974 0.50044 0.56135 0.0
H536 H 0.35086 0.44506 0.69905 0.0
H537 H 0.27873 0.51501 0.70485 0.0
H538 H 0.20546 0.55757 0.68554 0.0
H539 H 0.15997 0.56724 0.64789 0.0
Mn540 Mn 0.40766 0.3605 0.20166 0.0
Mn541 Mn 0.31571 0.3747 0.16676 0.0
C542 C 0.39839 0.27375 0.16685 0.0
C543 C 0.45296 0.31171 0.23228 0.0
C544 C 0.393 0.48556 0.16453 0.0
O545 O 0.36521 0.41609 0.22612 0.0
O546 O 0.30769 0.42929 0.20034 0.0
C547 C 0.24799 0.29179 0.19435 0.0
N548 N 0.27017 0.30084 0.17301 0.0
C549 C 0.21192 0.2362 0.14891 0.0
C550 C 0.18806 0.22747 0.17061 0.0
C551 C 0.20663 0.25374 0.19346 0.0
C552 C 0.25329 0.27299 0.15101 0.0
H553 H 0.26106 0.31566 0.21182 0.0
C554 C 0.32578 0.4387 0.22172 0.0
O555 O 0.45941 0.38063 0.22398 0.0
O556 O 0.41839 0.27253 0.22387 0.0
N557 N 0.31657 0.32491 0.13419 0.0
C558 C 0.34506 0.33514 0.11538 0.0
C559 C 0.33428 0.30332 0.09155 0.0
C560 C 0.29367 0.26388 0.08727 0.0
C561 C 0.26482 0.25472 0.107 0.0
C562 C 0.27829 0.28464 0.13044 0.0
H563 H 0.37556 0.3676 0.11858 0.0
O564 O 0.43715 0.29652 0.175 0.0
O565 O 0.36425 0.30628 0.17851 0.0
O566 O 0.41425 0.46103 0.18265 0.0
O567 O 0.35674 0.45552 0.15692 0.0
C568 C 0.22292 0.21847 0.10435 0.0
C569 C 0.19599 0.21134 0.12522 0.0
H570 H 0.15558 0.20026 0.16998 0.0
H571 H 0.18848 0.24688 0.21027 0.0
H572 H 0.35671 0.31074 0.07644 0.0
H573 H 0.28495 0.24107 0.06878 0.0
H574 H 0.2109 0.19662 0.08636 0.0
H575 H 0.16336 0.18534 0.1229 0.0
C576 C 0.25172 0.25085 0.53679 0.0
C577 C 0.29672 0.26897 0.53326 0.0
H578 H 0.19023 0.2113 0.52044 0.0
C579 C 0.31364 0.26071 0.50917 0.0
H580 H 0.23721 0.25713 0.55499 0.0
C581 C 0.28642 0.23511 0.48925 0.0
C582 C 0.24142 0.21699 0.49279 0.0
H583 H 0.34792 0.27466 0.5056 0.0
H584 H 0.30093 0.22883 0.47106 0.0
C585 C 0.22451 0.22525 0.51687 0.0
C586 C 0.98143 0.03766 0.51955 0.0
C587 C 0.9857 0.96026 0.52712 0.0
H588 H 1.01 0.12984 0.49975 0.0
C589 C 0.02384 0.91616 0.52022 0.0
H590 H 0.9527 0.07346 0.52471 0.0
C591 C 0.05692 0.94867 0.50608 0.0
C592 C 0.05266 0.02608 0.49851 0.0
H593 H 0.02835 0.8565 0.52588 0.0
H594 H 0.08566 0.91287 0.50092 0.0
C595 C 1.01451 0.07017 0.5054 0.0
C596 C 0.25226 0.98864 0.73928 0.0
C597 C 0.29712 0.96953 0.74309 0.0
H598 H 0.19044 0.02652 0.75536 0.0
C599 C 0.31344 0.9741 0.76739 0.0
H600 H 0.2382 0.98518 0.7209 0.0
C601 C 0.28576 -0.00291 0.78725 0.0
C602 C 0.2409 0.01621 0.78343 0.0
H603 H 0.34758 0.95921 0.77116 0.0
H604 H 0.29981 0.00057 0.80563 0.0
C605 C 0.22458 0.01162 0.75913 0.0
C606 C 1.01442 0.16562 0.76975 0.0
C607 C 0.05246 0.20897 0.77742 0.0
H608 H 0.95302 0.16426 0.74975 0.0
C609 C 0.05696 0.28707 0.77052 0.0
H610 H 1.00972 0.10542 0.77487 0.0
C611 C 0.02421 0.32098 0.75628 0.0
C612 C 0.98616 0.27763 0.74861 0.0
H613 H 0.08561 0.32234 0.77628 0.0
H614 H 0.02891 0.38118 0.75116 0.0
C615 C 0.98167 0.19952 0.75551 0.0
C616 C 0.75198 0.75098 0.53693 0.0
C617 C 0.79692 0.76923 0.53327 0.0
H618 H 0.69039 0.71116 0.52075 0.0
C619 C 0.81364 0.76094 0.50915 0.0
H620 H 0.73761 0.75727 0.55516 0.0
C621 C 0.78629 0.73518 0.4893 0.0
C622 C 0.74134 0.71692 0.49296 0.0
H623 H 0.84787 0.77499 0.50548 0.0
H624 H 0.80065 0.72888 0.47107 0.0
C625 C 0.72462 0.72521 0.51709 0.0
C626 C 0.78559 -0.00324 0.28724 0.0
C627 C 0.74073 0.01592 0.28344 0.0
H628 H 0.84743 0.9591 0.27114 0.0
C629 C 0.72444 0.01162 0.25914 0.0
H630 H 0.79963 2e-05 0.30562 0.0
C631 C 0.75214 0.98889 0.23927 0.0
C632 C 0.797 0.96975 0.24307 0.0
H633 H 0.6903 0.02656 0.25537 0.0
H634 H 0.7381 0.98564 0.22089 0.0
C635 C 0.81329 0.97403 0.26737 0.0
C636 C 0.98151 0.69929 0.25553 0.0
C637 C 0.98583 0.77751 0.2487 0.0
H638 H 1.00986 0.60508 0.27472 0.0
C639 C 0.02386 0.82096 0.25634 0.0
H640 H 0.95288 0.66394 0.24979 0.0
C641 C 0.05676 0.78705 0.27047 0.0
C642 C 0.05245 0.70883 0.2773 0.0
H643 H 0.02842 0.88126 0.25128 0.0
H644 H 0.08539 0.8224 0.27621 0.0
C645 C 1.01442 0.66537 0.26966 0.0
C646 C 0.31382 0.76101 1.00911 0.0
C647 C 0.29716 0.76886 0.03325 0.0
H648 H 0.30075 0.7296 0.97101 0.0
C649 C 0.25223 0.7505 0.03691 0.0
H650 H 0.34803 0.77518 1.00545 0.0
C651 C 0.22483 0.72505 0.01705 0.0
C652 C 0.2415 0.7172 0.99291 0.0
H653 H 0.23791 0.75646 0.05516 0.0
H654 H 0.19062 0.71089 0.02072 0.0
C655 C 0.28643 0.73557 0.98925 0.0
C656 C 1.01452 0.57033 1.00582 0.0
C657 C 0.05266 0.52625 0.99891 0.0
H658 H 0.95269 0.57357 0.02512 0.0
C659 C 0.05693 0.44883 1.00647 0.0
H660 H 1.01 0.63001 1.00017 0.0
C661 C 0.02385 0.41628 0.0206 0.0
C662 C 0.9857 0.46036 0.02751 0.0
H663 H 0.08567 0.41304 1.0013 0.0
H664 H 0.02836 0.3566 0.02625 0.0
C665 C 0.98143 0.53778 0.01995 0.0
C666 C 0.25269 0.48898 0.23887 0.0
C667 C 0.29754 0.4698 0.24271 0.0
H668 H 0.19084 0.52686 0.25493 0.0
C669 C 0.3138 0.47428 0.26701 0.0
H670 H 0.23867 0.48558 0.22048 0.0
C671 C 0.28609 0.49721 0.28686 0.0
C672 C 0.24124 0.51638 0.28302 0.0
H673 H 0.34793 0.45934 0.2708 0.0
H674 H 0.30011 0.50059 0.30524 0.0
C675 C 0.22497 0.51191 0.25872 0.0
C676 C 0.78661 0.23528 0.98931 0.0
C677 C 0.74163 0.21708 0.99288 0.0
H678 H 0.8481 0.275 1.00563 0.0
C679 C 0.72475 0.22535 0.01697 0.0
H680 H 0.80109 0.229 0.97111 0.0
C681 C 0.75198 0.25106 0.03687 0.0
C682 C 0.79696 0.26926 0.03331 0.0
H683 H 0.69049 0.21134 0.02056 0.0
H684 H 0.7375 0.25734 0.05508 0.0
C685 C 0.81384 0.26098 1.00922 0.0
C686 C 0.78625 0.49737 0.78694 0.0
C687 C 0.74139 0.51654 0.78313 0.0
H688 H 0.84809 0.45964 0.77085 0.0
C689 C 0.72511 0.51223 0.75883 0.0
H690 H 0.80028 0.50063 0.80532 0.0
C691 C 0.75282 0.48947 0.73896 0.0
C692 C 0.79767 0.47029 0.74278 0.0
H693 H 0.69098 0.52719 0.75506 0.0
H694 H 0.73879 0.4862 0.72058 0.0
C695 C 0.81395 0.4746 0.76708 0.0
C696 C 0.55719 0.94847 1.00621 0.0
C697 C 0.55291 0.02591 0.99867 0.0
H698 H 0.52863 0.85618 0.02598 0.0
C699 C 0.51476 0.06996 1.00559 0.0
H700 H 0.58593 0.91269 1.00103 0.0
C701 C 0.48168 0.03737 0.01973 0.0
C702 C 0.48596 0.95993 0.02726 0.0
H703 H 0.51024 0.12965 0.99996 0.0
H704 H 0.45295 0.07314 0.0249 0.0
C705 C 0.52411 0.91588 0.02034 0.0
C706 C 0.48148 0.19903 0.25566 0.0
C707 C 0.48598 0.27713 0.24876 0.0
H708 H 0.50952 0.10493 0.27503 0.0
C709 C 0.52402 0.32049 0.25644 0.0
H710 H 0.45284 0.16376 0.2499 0.0
C711 C 0.55676 0.28659 0.27069 0.0
C712 C 0.55226 0.20849 0.27759 0.0
H713 H 0.52872 0.38069 0.25132 0.0
H714 H 0.5854 0.32186 0.27645 0.0
C715 C 0.51422 0.16513 0.26991 0.0
C716 C 0.48161 0.69901 0.75566 0.0
C717 C 0.48592 0.77718 0.7488 0.0
H718 H 0.50996 0.60491 0.7749 0.0
C719 C 0.52395 0.82068 0.75642 0.0
H720 H 0.45299 0.66363 0.74994 0.0
C721 C 0.55685 0.78684 0.77057 0.0
C722 C 0.55254 0.70866 0.77743 0.0
H723 H 0.52851 0.88094 0.75133 0.0
H724 H 0.58548 0.82222 0.77629 0.0
C725 C 0.51452 0.66517 0.76981 0.0
C726 C 0.48129 0.5373 0.52005 0.0
C727 C 0.48553 0.45987 0.5276 0.0
H728 H 0.50989 0.62953 0.50028 0.0
C729 C 0.52369 0.41579 0.52072 0.0
H730 H 0.45254 0.57309 0.52521 0.0
C731 C 0.5568 0.44834 0.50659 0.0
C732 C 0.55254 0.52576 0.49904 0.0
H733 H 0.52819 0.35611 0.52636 0.0
H734 H 0.58554 0.41255 0.50143 0.0
C735 C 0.51439 0.56985 0.50593 0.0
C736 C 0.10297 0.82617 0.38199 0.0
C737 C 0.14276 0.78778 0.37487 0.0
H738 H 0.07154 0.92882 0.39885 0.0
C739 C 0.18265 0.82696 0.38107 0.0
H740 H 0.07115 0.79958 0.37727 0.0
C741 C 0.18284 0.89785 0.3962 0.0
C742 C 0.14322 0.93842 0.40193 0.0
H743 H 0.21357 0.80388 0.37408 0.0
H744 H 0.21384 0.92004 0.40348 0.0
C745 C 0.1032 0.90118 0.39447 0.0
C746 C 0.12647 0.36745 0.41237 0.0
C747 C 0.13276 0.29295 0.39983 0.0
H748 H 0.12527 0.49331 0.40949 0.0
C749 C 0.13364 0.28716 0.37391 0.0
H750 H 0.12618 0.37347 0.43232 0.0
C751 C 0.13227 0.35538 0.36083 0.0
C752 C 0.13087 0.43038 0.37354 0.0
H753 H 0.1385 0.23028 0.36382 0.0
H754 H 0.13669 0.3498 0.34104 0.0
C755 C 0.12607 0.43586 0.39931 0.0
C756 C 0.10261 0.32644 0.88231 0.0
C757 C 0.1424 0.28807 0.87516 0.0
H758 H 0.0712 0.42907 0.8992 0.0
C759 C 0.18229 0.32726 0.88135 0.0
H760 H 0.07079 0.29983 0.87761 0.0
C761 C 0.1825 0.39812 0.89649 0.0
C762 C 0.14288 0.43868 0.90223 0.0
H763 H 0.2132 0.3042 0.87434 0.0
H764 H 0.21351 0.42031 0.90375 0.0
C765 C 0.10286 0.40144 0.8948 0.0
C766 C 0.12613 0.86771 0.91274 0.0
C767 C 0.13229 0.79322 0.90017 0.0
H768 H 0.12503 -0.00642 0.9099 0.0
C769 C 0.133 0.78749 0.87425 0.0
H770 H 0.12597 0.87367 0.93269 0.0
C771 C 0.13161 0.85577 0.86119 0.0
C772 C 0.13037 0.93074 0.87392 0.0
H773 H 0.13776 0.73062 0.86414 0.0
H774 H 0.13591 0.85022 0.8414 0.0
C775 C 0.12571 0.93617 0.8997 0.0
C776 C 0.85618 0.1599 0.64466 0.0
C777 C 0.89609 0.19899 0.65088 0.0
H778 H 0.82496 0.0669 0.62224 0.0
C779 C 0.93587 0.16055 0.64376 0.0
H780 H 0.82528 0.18302 0.65166 0.0
C781 C 0.9356 0.08556 0.63126 0.0
C782 C 0.89557 0.04839 0.62381 0.0
H783 H 0.9677 0.18709 0.64848 0.0
H784 H 0.96724 0.05786 0.62688 0.0
C785 C 0.85596 0.08903 0.62953 0.0
C786 C 0.91305 0.55107 0.62657 0.0
C787 C 0.90814 0.55648 0.65233 0.0
H788 H 0.91295 0.61353 0.59357 0.0
C789 C 0.90658 0.63144 0.66505 0.0
H790 H 0.91397 0.49365 0.61638 0.0
C791 C 0.90513 0.69969 0.65198 0.0
C792 C 0.9061 0.69396 0.62607 0.0
H793 H 0.90207 0.63695 0.68483 0.0
H794 H 0.90013 0.75652 0.66208 0.0
C795 C 0.91258 0.61952 0.61352 0.0
C796 C 0.85549 0.58876 0.12977 0.0
C797 C 0.89512 0.54818 0.12408 0.0
H798 H 0.82472 0.68276 0.15185 0.0
C799 C 0.93513 0.58541 0.13156 0.0
H800 H 0.82451 0.56658 0.12247 0.0
C801 C 0.93534 0.66042 0.14404 0.0
C802 C 0.89553 0.69883 0.15113 0.0
H803 H 0.96679 0.55775 0.12721 0.0
H804 H 0.96716 0.68699 0.14878 0.0
C805 C 0.85565 0.65966 0.14489 0.0
C806 C 0.90595 0.13126 0.16527 0.0
C807 C 0.90739 0.05626 0.15256 0.0
H808 H 0.89972 0.25636 0.16227 0.0
C809 C 0.9123 0.05078 0.12681 0.0
H810 H 0.90145 0.13683 0.18505 0.0
C811 C 0.91194 0.1192 0.11374 0.0
C812 C 0.9056 0.19369 0.12628 0.0
H813 H 0.91315 -0.00667 0.11663 0.0
H814 H 0.91231 0.11316 0.0938 0.0
C815 C 0.90463 0.19949 0.15219 0.0
C816 C 0.60313 0.82611 0.88214 0.0
C817 C 0.64293 0.78772 0.87502 0.0
H818 H 0.57171 0.92875 0.89901 0.0
C819 C 0.68281 0.82691 0.88122 0.0
H820 H 0.57131 0.79951 0.87743 0.0
C821 C 0.68301 0.8978 0.89634 0.0
C822 C 0.64338 0.93836 0.90207 0.0
H823 H 0.71373 0.80383 0.87422 0.0
H824 H 0.71401 0.91999 0.90362 0.0
C825 C 0.60337 0.90111 0.89463 0.0
C826 C 0.62669 0.3674 0.91252 0.0
C827 C 0.6329 0.29289 0.89997 0.0
H828 H 0.62557 0.49326 0.90964 0.0
C829 C 0.63373 0.2871 0.87406 0.0
H830 H 0.62644 0.37342 0.93247 0.0
C831 C 0.63239 0.35533 0.86098 0.0
C832 C 0.63108 0.43033 0.87369 0.0
H833 H 0.63853 0.23021 0.86396 0.0
H834 H 0.63678 0.34974 0.84119 0.0
C835 C 0.62632 0.43582 0.89946 0.0
C836 C 0.68218 0.32636 0.38153 0.0
C837 C 0.64228 0.28723 0.37531 0.0
H838 H 0.71338 0.41939 0.40395 0.0
C839 C 0.60249 0.32564 0.38244 0.0
H840 H 0.71309 0.30326 0.37454 0.0
C841 C 0.60274 0.40063 0.39493 0.0
C842 C 0.64277 0.43784 0.40238 0.0
H843 H 0.57067 0.29907 0.37772 0.0
H844 H 0.57109 0.4283 0.39931 0.0
C845 C 0.68238 0.39723 0.39666 0.0
C846 C 0.63306 0.78658 0.37427 0.0
C847 C 0.63219 0.79232 0.40018 0.0
H848 H 0.6361 0.84929 0.34141 0.0
C849 C 0.62587 0.8668 0.41274 0.0
H850 H 0.63795 0.72972 0.36417 0.0
C851 C 0.62544 0.93524 0.39969 0.0
C852 C 0.63026 0.92981 0.37392 0.0
H853 H 0.62558 0.87278 0.43268 0.0
H854 H 0.62463 0.99267 0.40988 0.0
C855 C 0.63167 0.85484 0.3612 0.0
C856 C 0.35627 0.15881 0.1448 0.0
C857 C 0.39615 0.198 0.15101 0.0
H858 H 0.3251 0.06576 0.12238 0.0
C859 C 0.43595 0.15963 0.14388 0.0
H860 H 0.32535 0.18188 0.15179 0.0
C861 C 0.43573 0.08464 0.13139 0.0
C862 C 0.39572 0.04739 0.12394 0.0
H863 H 0.46777 0.18625 0.1486 0.0
H864 H 0.46739 0.057 0.12701 0.0
C865 C 0.35609 0.08794 0.12967 0.0
C866 C 0.41279 0.54987 0.12645 0.0
C867 C 0.40816 0.55531 0.15223 0.0
H868 H 0.41255 0.61234 0.09346 0.0
C869 C 0.40702 0.63028 0.16496 0.0
H870 H 0.41341 0.49245 0.11626 0.0
C871 C 0.40569 0.69857 0.1519 0.0
C872 C 0.40636 0.69283 0.12599 0.0
H873 H 0.40275 0.63584 0.18476 0.0
H874 H 0.40099 0.75545 0.16202 0.0
C875 C 0.41242 0.61832 0.11341 0.0
C876 C 0.35558 0.65899 0.64502 0.0
C877 C 0.39548 0.69814 0.65121 0.0
H878 H 0.32433 0.56594 0.62264 0.0
C879 C 0.43526 0.65973 0.64405 0.0
H880 H 0.32468 0.68209 0.65203 0.0
C881 C 0.43498 0.58474 0.63157 0.0
C882 C 0.39495 0.54751 0.62414 0.0
H883 H 0.46709 0.68631 0.64875 0.0
H884 H 0.46663 0.55708 0.62717 0.0
C885 C 0.35534 0.5881 0.62989 0.0
C886 C 0.41182 0.1186 0.61375 0.0
C887 C 0.40531 0.19306 0.62628 0.0
H888 H 0.41328 0.99274 0.61665 0.0
C889 C 0.40429 0.19886 0.65219 0.0
H890 H 0.41224 0.11256 0.59381 0.0
C891 C 0.40574 0.13066 0.66528 0.0
C892 C 0.40737 0.05566 0.65258 0.0
H893 H 0.39926 0.25571 0.66227 0.0
H894 H 0.4012 0.13623 0.68506 0.0
C895 C 0.41231 0.05019 0.62682 0.0
loop_
_geom_bond_atom_site_label_1
_geom_bond_atom_site_label_2
_geom_bond_distance
_geom_bond_site_symmetry_2
_ccdc_geom_bond_type
Mn0 O5 2.095 . S
Mn0 O15 2.162 . S
Mn0 O16 2.297 . S
Mn0 O24 2.385 . S
Mn0 O25 2.209 . S
Mn0 O26 2.094 . S
Mn1 O6 2.121 . S
Mn1 N8 2.257 . S
Mn1 N17 2.282 . S
Mn1 O25 2.215 . S
Mn1 O27 2.117 . S
C2 O24 1.234 . S
C2 O25 1.283 . S
C3 O15 1.281 . S
C3 O16 1.236 . S
C4 O26 1.240 . S
C4 O27 1.264 . S
O5 Mn0 2.095 . S
O5 C14 1.250 . S
O6 Mn1 2.121 . S
O6 C14 1.258 . S
C7 N8 1.326 . S
C7 C11 1.460 1_545 S
C7 H13 0.929 . S
N8 Mn1 2.257 . S
N8 C7 1.326 . S
N8 C12 1.362 1_545 S
C9 C10 1.258 . S
C9 C12 1.431 . S
C9 C29 1.449 . S
C10 C9 1.258 . S
C10 C11 1.477 . S
C10 H30 0.931 . S
C11 C7 1.460 1_565 S
C11 C10 1.477 . S
C11 H31 0.930 . S
C12 N8 1.362 1_565 S
C12 C9 1.431 . S
C12 C22 1.476 1_565 S
H13 C7 0.929 . S
C14 O5 1.250 . S
C14 O6 1.258 . S
O15 Mn0 2.162 . S
O15 C3 1.281 . S
O16 Mn0 2.297 . S
O16 C3 1.236 . S
N17 Mn1 2.282 . S
N17 C18 1.328 . S
N17 C22 1.318 . S
C18 N17 1.328 . S
C18 C19 1.457 . S
C18 H23 0.929 . S
C19 C18 1.457 . S
C19 C20 1.291 1_545 S
C19 H32 0.931 . S
C20 C19 1.291 1_565 S
C20 C21 1.373 . S
C20 H33 0.929 . S
C21 C20 1.373 . S
C21 C22 1.396 1_565 S
C21 C28 1.403 . S
C22 C12 1.476 1_545 S
C22 N17 1.318 . S
C22 C21 1.396 1_545 S
H23 C18 0.929 . S
O24 Mn0 2.385 . S
O24 C2 1.234 . S
O25 Mn0 2.209 . S
O25 Mn1 2.215 . S
O25 C2 1.283 . S
O26 Mn0 2.094 . S
O26 C4 1.240 . S
O27 Mn1 2.117 . S
O27 C4 1.264 . S
C28 C21 1.403 . S
C28 C29 1.399 . S
C28 H34 0.929 . S
C29 C9 1.449 . S
C29 C28 1.399 . S
C29 H35 0.930 . S
H30 C10 0.931 . S
H31 C11 0.930 . S
H32 C19 0.931 . S
H33 C20 0.929 . S
H34 C28 0.929 . S
H35 C29 0.930 . S
Mn36 O41 2.095 . S
Mn36 O51 2.162 . S
Mn36 O52 2.297 . S
Mn36 O60 2.385 . S
Mn36 O61 2.209 . S
Mn36 O62 2.094 . S
Mn37 O42 2.121 . S
Mn37 N44 2.257 . S
Mn37 N53 2.282 . S
Mn37 O61 2.215 . S
Mn37 O63 2.117 . S
C38 O60 1.234 . S
C38 O61 1.283 . S
C39 O51 1.281 . S
C39 O52 1.236 . S
C40 O62 1.240 1_565 S
C40 O63 1.264 1_565 S
O41 Mn36 2.095 . S
O41 C50 1.250 . S
O42 Mn37 2.121 . S
O42 C50 1.258 . S
C43 N44 1.326 . S
C43 C47 1.460 . S
C43 H49 0.929 . S
N44 Mn37 2.257 . S
N44 C43 1.326 . S
N44 C48 1.362 . S
C45 C46 1.258 . S
C45 C48 1.431 . S
C45 C65 1.449 . S
C46 C45 1.258 . S
C46 C47 1.477 . S
C46 H66 0.931 . S
C47 C43 1.460 . S
C47 C46 1.477 . S
C47 H67 0.930 . S
C48 N44 1.362 . S
C48 C45 1.431 . S
C48 C58 1.476 . S
H49 C43 0.929 . S
C50 O41 1.250 . S
C50 O42 1.258 . S
O51 Mn36 2.162 . S
O51 C39 1.281 . S
O52 Mn36 2.297 . S
O52 C39 1.236 . S
N53 Mn37 2.282 . S
N53 C54 1.328 . S
N53 C58 1.318 . S
C54 N53 1.328 . S
C54 C55 1.457 . S
C54 H59 0.929 . S
C55 C54 1.457 . S
C55 C56 1.291 . S
C55 H68 0.931 . S
C56 C55 1.291 . S
C56 C57 1.373 . S
C56 H69 0.929 . S
C57 C56 1.373 . S
C57 C58 1.396 . S
C57 C64 1.403 . S
C58 C48 1.476 . S
C58 N53 1.318 . S
C58 C57 1.396 . S
H59 C54 0.929 . S
O60 Mn36 2.385 . S
O60 C38 1.234 . S
O61 Mn36 2.209 . S
O61 Mn37 2.215 . S
O61 C38 1.283 . S
O62 Mn36 2.094 . S
O62 C40 1.240 1_545 S
O63 Mn37 2.117 . S
O63 C40 1.264 1_545 S
C64 C57 1.403 . S
C64 C65 1.399 . S
C64 H70 0.929 . S
C65 C45 1.449 . S
C65 C64 1.399 . S
C65 H71 0.930 . S
H66 C46 0.931 . S
H67 C47 0.930 . S
H68 C55 0.931 . S
H69 C56 0.929 . S
H70 C64 0.929 . S
H71 C65 0.930 . S
Mn72 O77 2.095 . S
Mn72 O87 2.162 . S
Mn72 O88 2.297 . S
Mn72 O96 2.385 . S
Mn72 O97 2.209 . S
Mn72 O98 2.094 . S
Mn73 O78 2.121 . S
Mn73 N80 2.257 . S
Mn73 N89 2.282 . S
Mn73 O97 2.215 . S
Mn73 O99 2.117 . S
C74 O96 1.234 . S
C74 O97 1.283 . S
C75 O87 1.281 . S
C75 O88 1.236 . S
C76 O98 1.240 . S
C76 O99 1.264 . S
O77 Mn72 2.095 . S
O77 C86 1.250 . S
O78 Mn73 2.121 . S
O78 C86 1.258 . S
C79 N80 1.326 . S
C79 C83 1.460 1_565 S
C79 H85 0.929 . S
N80 Mn73 2.257 . S
N80 C79 1.326 . S
N80 C84 1.362 1_565 S
C81 C82 1.258 . S
C81 C84 1.431 . S
C81 C101 1.449 . S
C82 C81 1.258 . S
C82 C83 1.477 . S
C82 H102 0.931 . S
C83 C79 1.460 1_545 S
C83 C82 1.477 . S
C83 H103 0.930 . S
C84 N80 1.362 1_545 S
C84 C81 1.431 . S
C84 C94 1.476 1_545 S
H85 C79 0.929 . S
C86 O77 1.250 . S
C86 O78 1.258 . S
O87 Mn72 2.162 . S
O87 C75 1.281 . S
O88 Mn72 2.297 . S
O88 C75 1.236 . S
N89 Mn73 2.282 . S
N89 C90 1.328 . S
N89 C94 1.318 . S
C90 N89 1.328 . S
C90 C91 1.457 . S
C90 H95 0.929 . S
C91 C90 1.457 . S
C91 C92 1.291 1_565 S
C91 H104 0.931 . S
C92 C91 1.291 1_545 S
C92 C93 1.373 . S
C92 H105 0.929 . S
C93 C92 1.373 . S
C93 C94 1.396 1_545 S
C93 C100 1.403 . S
C94 C84 1.476 1_565 S
C94 N89 1.318 . S
C94 C93 1.396 1_565 S
H95 C90 0.929 . S
O96 Mn72 2.385 . S
O96 C74 1.234 . S
O97 Mn72 2.209 . S
O97 Mn73 2.215 . S
O97 C74 1.283 . S
O98 Mn72 2.094 . S
O98 C76 1.240 . S
O99 Mn73 2.117 . S
O99 C76 1.264 . S
C100 C93 1.403 . S
C100 C101 1.399 . S
C100 H106 0.929 . S
C101 C81 1.449 . S
C101 C100 1.399 . S
C101 H107 0.930 . S
H102 C82 0.931 . S
H103 C83 0.930 . S
H104 C91 0.931 . S
H105 C92 0.929 . S
H106 C100 0.929 . S
H107 C101 0.930 . S
Mn108 O113 2.095 . S
Mn108 O123 2.162 . S
Mn108 O124 2.297 . S
Mn108 O132 2.385 . S
Mn108 O133 2.209 . S
Mn108 O134 2.094 . S
Mn109 O114 2.121 . S
Mn109 N116 2.257 . S
Mn109 N125 2.282 . S
Mn109 O133 2.215 . S
Mn109 O135 2.117 . S
C110 O132 1.234 . S
C110 O133 1.283 . S
C111 O123 1.281 . S
C111 O124 1.236 . S
C112 O134 1.240 1_545 S
C112 O135 1.264 1_545 S
O113 Mn108 2.095 . S
O113 C122 1.250 . S
O114 Mn109 2.121 . S
O114 C122 1.258 . S
C115 N116 1.326 . S
C115 C119 1.460 . S
C115 H121 0.929 . S
N116 Mn109 2.257 . S
N116 C115 1.326 . S
N116 C120 1.362 . S
C117 C118 1.258 . S
C117 C120 1.431 . S
C117 C137 1.449 . S
C118 C117 1.258 . S
C118 C119 1.477 . S
C118 H138 0.931 . S
C119 C115 1.460 . S
C119 C118 1.477 . S
C119 H139 0.930 . S
C120 N116 1.362 . S
C120 C117 1.431 . S
C120 C130 1.476 . S
H121 C115 0.929 . S
C122 O113 1.250 . S
C122 O114 1.258 . S
O123 Mn108 2.162 . S
O123 C111 1.281 . S
O124 Mn108 2.297 . S
O124 C111 1.236 . S
N125 Mn109 2.282 . S
N125 C126 1.328 . S
N125 C130 1.318 . S
C126 N125 1.328 . S
C126 C127 1.457 . S
C126 H131 0.929 . S
C127 C126 1.457 . S
C127 C128 1.291 . S
C127 H140 0.931 . S
C128 C127 1.291 . S
C128 C129 1.373 . S
C128 H141 0.929 . S
C129 C128 1.373 . S
C129 C130 1.396 . S
C129 C136 1.403 . S
C130 C120 1.476 . S
C130 N125 1.318 . S
C130 C129 1.396 . S
H131 C126 0.929 . S
O132 Mn108 2.385 . S
O132 C110 1.234 . S
O133 Mn108 2.209 . S
O133 Mn109 2.215 . S
O133 C110 1.283 . S
O134 Mn108 2.094 . S
O134 C112 1.240 1_565 S
O135 Mn109 2.117 . S
O135 C112 1.264 1_565 S
C136 C129 1.403 . S
C136 C137 1.399 . S
C136 H142 0.929 . S
C137 C117 1.449 . S
C137 C136 1.399 . S
C137 H143 0.930 . S
H138 C118 0.931 . S
H139 C119 0.930 . S
H140 C127 0.931 . S
H141 C128 0.929 . S
H142 C136 0.929 . S
H143 C137 0.930 . S
Mn144 O149 2.095 . S
Mn144 O159 2.162 . S
Mn144 O160 2.297 . S
Mn144 O168 2.385 . S
Mn144 O169 2.209 . S
Mn144 O170 2.094 . S
Mn145 O150 2.121 . S
Mn145 N152 2.257 . S
Mn145 N161 2.282 . S
Mn145 O169 2.215 . S
Mn145 O171 2.117 . S
C146 O168 1.234 . S
C146 O169 1.283 . S
C147 O159 1.281 . S
C147 O160 1.236 . S
C148 O170 1.240 . S
C148 O171 1.264 . S
O149 Mn144 2.095 . S
O149 C158 1.250 . S
O150 Mn145 2.121 . S
O150 C158 1.258 . S
C151 N152 1.326 . S
C151 C155 1.460 . S
C151 H157 0.929 . S
N152 Mn145 2.257 . S
N152 C151 1.326 . S
N152 C156 1.362 . S
C153 C154 1.258 . S
C153 C156 1.431 . S
C153 C173 1.449 . S
C154 C153 1.258 . S
C154 C155 1.477 . S
C154 H174 0.931 . S
C155 C151 1.460 . S
C155 C154 1.477 . S
C155 H175 0.930 . S
C156 N152 1.362 . S
C156 C153 1.431 . S
C156 C166 1.476 . S
H157 C151 0.929 . S
C158 O149 1.250 . S
C158 O150 1.258 . S
O159 Mn144 2.162 . S
O159 C147 1.281 . S
O160 Mn144 2.297 . S
O160 C147 1.236 . S
N161 Mn145 2.282 . S
N161 C162 1.328 . S
N161 C166 1.318 . S
C162 N161 1.328 . S
C162 C163 1.457 . S
C162 H167 0.929 . S
C163 C162 1.457 . S
C163 C164 1.291 . S
C163 H176 0.931 . S
C164 C163 1.291 . S
C164 C165 1.373 . S
C164 H177 0.929 . S
C165 C164 1.373 . S
C165 C166 1.396 . S
C165 C172 1.403 . S
C166 C156 1.476 . S
C166 N161 1.318 . S
C166 C165 1.396 . S
H167 C162 0.929 . S
O168 Mn144 2.385 . S
O168 C146 1.234 . S
O169 Mn144 2.209 . S
O169 Mn145 2.215 . S
O169 C146 1.283 . S
O170 Mn144 2.094 . S
O170 C148 1.240 . S
O171 Mn145 2.117 . S
O171 C148 1.264 . S
C172 C165 1.403 . S
C172 C173 1.399 . S
C172 H178 0.929 . S
C173 C153 1.449 . S
C173 C172 1.399 . S
C173 H179 0.930 . S
H174 C154 0.931 . S
H175 C155 0.930 . S
H176 C163 0.931 . S
H177 C164 0.929 . S
H178 C172 0.929 . S
H179 C173 0.930 . S
Mn180 O185 2.095 . S
Mn180 O195 2.162 . S
Mn180 O196 2.297 . S
Mn180 O204 2.385 . S
Mn180 O205 2.209 . S
Mn180 O206 2.094 . S
Mn181 O186 2.121 . S
Mn181 N188 2.257 . S
Mn181 N197 2.282 . S
Mn181 O205 2.215 . S
Mn181 O207 2.117 . S
C182 O204 1.234 . S
C182 O205 1.283 . S
C183 O195 1.281 . S
C183 O196 1.236 . S
C184 O206 1.240 . S
C184 O207 1.264 . S
O185 Mn180 2.095 . S
O185 C194 1.250 . S
O186 Mn181 2.121 . S
O186 C194 1.258 . S
C187 N188 1.326 . S
C187 C191 1.460 . S
C187 H193 0.929 . S
N188 Mn181 2.257 . S
N188 C187 1.326 . S
N188 C192 1.362 . S
C189 C190 1.258 . S
C189 C192 1.431 . S
C189 C209 1.449 . S
C190 C189 1.258 . S
C190 C191 1.477 . S
C190 H210 0.931 . S
C191 C187 1.460 . S
C191 C190 1.477 . S
C191 H211 0.930 . S
C192 N188 1.362 . S
C192 C189 1.431 . S
C192 C202 1.476 . S
H193 C187 0.929 . S
C194 O185 1.250 . S
C194 O186 1.258 . S
O195 Mn180 2.162 . S
O195 C183 1.281 . S
O196 Mn180 2.297 . S
O196 C183 1.236 . S
N197 Mn181 2.282 . S
N197 C198 1.328 . S
N197 C202 1.318 . S
C198 N197 1.328 . S
C198 C199 1.457 . S
C198 H203 0.929 . S
C199 C198 1.457 . S
C199 C200 1.291 . S
C199 H212 0.931 . S
C200 C199 1.291 . S
C200 C201 1.373 . S
C200 H213 0.929 . S
C201 C200 1.373 . S
C201 C202 1.396 . S
C201 C208 1.403 . S
C202 C192 1.476 . S
C202 N197 1.318 . S
C202 C201 1.396 . S
H203 C198 0.929 . S
O204 Mn180 2.385 . S
O204 C182 1.234 . S
O205 Mn180 2.209 . S
O205 Mn181 2.215 . S
O205 C182 1.283 . S
O206 Mn180 2.094 . S
O206 C184 1.240 . S
O207 Mn181 2.117 . S
O207 C184 1.264 . S
C208 C201 1.403 . S
C208 C209 1.399 . S
C208 H214 0.929 . S
C209 C189 1.449 . S
C209 C208 1.399 . S
C209 H215 0.930 . S
H210 C190 0.931 . S
H211 C191 0.930 . S
H212 C199 0.931 . S
H213 C200 0.929 . S
H214 C208 0.929 . S
H215 C209 0.930 . S
Mn216 O221 2.095 . S
Mn216 O231 2.162 . S
Mn216 O232 2.297 . S
Mn216 O240 2.385 . S
Mn216 O241 2.209 . S
Mn216 O242 2.094 . S
Mn217 O222 2.121 . S
Mn217 N224 2.257 . S
Mn217 N233 2.282 . S
Mn217 O241 2.215 . S
Mn217 O243 2.117 . S
C218 O240 1.234 . S
C218 O241 1.283 . S
C219 O231 1.281 . S
C219 O232 1.236 . S
C220 O242 1.240 . S
C220 O243 1.264 . S
O221 Mn216 2.095 . S
O221 C230 1.250 . S
O222 Mn217 2.121 . S
O222 C230 1.258 . S
C223 N224 1.326 . S
C223 C227 1.460 . S
C223 H229 0.929 . S
N224 Mn217 2.257 . S
N224 C223 1.326 . S
N224 C228 1.362 . S
C225 C226 1.258 . S
C225 C228 1.431 . S
C225 C245 1.449 . S
C226 C225 1.258 . S
C226 C227 1.477 . S
C226 H246 0.931 . S
C227 C223 1.460 . S
C227 C226 1.477 . S
C227 H247 0.930 . S
C228 N224 1.362 . S
C228 C225 1.431 . S
C228 C238 1.476 . S
H229 C223 0.929 . S
C230 O221 1.250 . S
C230 O222 1.258 . S
O231 Mn216 2.162 . S
O231 C219 1.281 . S
O232 Mn216 2.297 . S
O232 C219 1.236 . S
N233 Mn217 2.282 . S
N233 C234 1.328 . S
N233 C238 1.318 . S
C234 N233 1.328 . S
C234 C235 1.457 . S
C234 H239 0.929 . S
C235 C234 1.457 . S
C235 C236 1.291 . S
C235 H248 0.931 . S
C236 C235 1.291 . S
C236 C237 1.373 . S
C236 H249 0.929 . S
C237 C236 1.373 . S
C237 C238 1.396 . S
C237 C244 1.403 . S
C238 C228 1.476 . S
C238 N233 1.318 . S
C238 C237 1.396 . S
H239 C234 0.929 . S
O240 Mn216 2.385 . S
O240 C218 1.234 . S
O241 Mn216 2.209 . S
O241 Mn217 2.215 . S
O241 C218 1.283 . S
O242 Mn216 2.094 . S
O242 C220 1.240 . S
O243 Mn217 2.117 . S
O243 C220 1.264 . S
C244 C237 1.403 . S
C244 C245 1.399 . S
C244 H250 0.929 . S
C245 C225 1.449 . S
C245 C244 1.399 . S
C245 H251 0.930 . S
H246 C226 0.931 . S
H247 C227 0.930 . S
H248 C235 0.931 . S
H249 C236 0.929 . S
H250 C244 0.929 . S
H251 C245 0.930 . S
Mn252 O257 2.095 . S
Mn252 O267 2.162 . S
Mn252 O268 2.297 . S
Mn252 O276 2.385 . S
Mn252 O277 2.209 . S
Mn252 O278 2.094 . S
Mn253 O258 2.121 . S
Mn253 N260 2.257 . S
Mn253 N269 2.282 . S
Mn253 O277 2.215 . S
Mn253 O279 2.117 . S
C254 O276 1.234 . S
C254 O277 1.283 . S
C255 O267 1.281 . S
C255 O268 1.236 . S
C256 O278 1.240 . S
C256 O279 1.264 . S
O257 Mn252 2.095 . S
O257 C266 1.250 . S
O258 Mn253 2.121 . S
O258 C266 1.258 . S
C259 N260 1.326 . S
C259 C263 1.460 . S
C259 H265 0.929 . S
N260 Mn253 2.257 . S
N260 C259 1.326 . S
N260 C264 1.362 . S
C261 C262 1.258 . S
C261 C264 1.431 . S
C261 C281 1.449 . S
C262 C261 1.258 . S
C262 C263 1.477 . S
C262 H282 0.931 . S
C263 C259 1.460 . S
C263 C262 1.477 . S
C263 H283 0.930 . S
C264 N260 1.362 . S
C264 C261 1.431 . S
C264 C274 1.476 . S
H265 C259 0.929 . S
C266 O257 1.250 . S
C266 O258 1.258 . S
O267 Mn252 2.162 . S
O267 C255 1.281 . S
O268 Mn252 2.297 . S
O268 C255 1.236 . S
N269 Mn253 2.282 . S
N269 C270 1.328 . S
N269 C274 1.318 . S
C270 N269 1.328 . S
C270 C271 1.457 . S
C270 H275 0.929 . S
C271 C270 1.457 . S
C271 C272 1.291 . S
C271 H284 0.931 . S
C272 C271 1.291 . S
C272 C273 1.373 . S
C272 H285 0.929 . S
C273 C272 1.373 . S
C273 C274 1.396 . S
C273 C280 1.403 . S
C274 C264 1.476 . S
C274 N269 1.318 . S
C274 C273 1.396 . S
H275 C270 0.929 . S
O276 Mn252 2.385 . S
O276 C254 1.234 . S
O277 Mn252 2.209 . S
O277 Mn253 2.215 . S
O277 C254 1.283 . S
O278 Mn252 2.094 . S
O278 C256 1.240 . S
O279 Mn253 2.117 . S
O279 C256 1.264 . S
C280 C273 1.403 . S
C280 C281 1.399 . S
C280 H286 0.929 . S
C281 C261 1.449 . S
C281 C280 1.399 . S
C281 H287 0.930 . S
H282 C262 0.931 . S
H283 C263 0.930 . S
H284 C271 0.931 . S
H285 C272 0.929 . S
H286 C280 0.929 . S
H287 C281 0.930 . S
Mn288 O293 2.095 . S
Mn288 O303 2.162 . S
Mn288 O304 2.297 . S
Mn288 O312 2.385 . S
Mn288 O313 2.209 . S
Mn288 O314 2.094 . S
Mn289 O294 2.121 . S
Mn289 N296 2.257 . S
Mn289 N305 2.282 . S
Mn289 O313 2.215 . S
Mn289 O315 2.117 . S
C290 O312 1.234 . S
C290 O313 1.283 . S
C291 O303 1.281 . S
C291 O304 1.236 . S
C292 O314 1.240 . S
C292 O315 1.264 . S
O293 Mn288 2.095 . S
O293 C302 1.250 . S
O294 Mn289 2.121 . S
O294 C302 1.258 . S
C295 N296 1.326 . S
C295 C299 1.460 1_545 S
C295 H301 0.929 . S
N296 Mn289 2.257 . S
N296 C295 1.326 . S
N296 C300 1.362 1_545 S
C297 C298 1.258 . S
C297 C300 1.431 . S
C297 C317 1.449 . S
C298 C297 1.258 . S
C298 C299 1.477 . S
C298 H318 0.931 . S
C299 C295 1.460 1_565 S
C299 C298 1.477 . S
C299 H319 0.930 . S
C300 N296 1.362 1_565 S
C300 C297 1.431 . S
C300 C310 1.476 1_565 S
H301 C295 0.929 . S
C302 O293 1.250 . S
C302 O294 1.258 . S
O303 Mn288 2.162 . S
O303 C291 1.281 . S
O304 Mn288 2.297 . S
O304 C291 1.236 . S
N305 Mn289 2.282 . S
N305 C306 1.328 . S
N305 C310 1.318 . S
C306 N305 1.328 . S
C306 C307 1.457 . S
C306 H311 0.929 . S
C307 C306 1.457 . S
C307 C308 1.291 1_545 S
C307 H320 0.931 . S
C308 C307 1.291 1_565 S
C308 C309 1.373 . S
C308 H321 0.929 . S
C309 C308 1.373 . S
C309 C310 1.396 1_565 S
C309 C316 1.403 . S
C310 C300 1.476 1_545 S
C310 N305 1.318 . S
C310 C309 1.396 1_545 S
H311 C306 0.929 . S
O312 Mn288 2.385 . S
O312 C290 1.234 . S
O313 Mn288 2.209 . S
O313 Mn289 2.215 . S
O313 C290 1.283 . S
O314 Mn288 2.094 . S
O314 C292 1.240 . S
O315 Mn289 2.117 . S
O315 C292 1.264 . S
C316 C309 1.403 . S
C316 C317 1.399 . S
C316 H322 0.929 . S
C317 C297 1.449 . S
C317 C316 1.399 . S
C317 H323 0.930 . S
H318 C298 0.931 . S
H319 C299 0.930 . S
H320 C307 0.931 . S
H321 C308 0.929 . S
H322 C316 0.929 . S
H323 C317 0.930 . S
Mn324 O329 2.095 . S
Mn324 O339 2.162 . S
Mn324 O340 2.297 . S
Mn324 O348 2.385 . S
Mn324 O349 2.209 . S
Mn324 O350 2.094 . S
Mn325 O330 2.121 . S
Mn325 N332 2.257 . S
Mn325 N341 2.282 . S
Mn325 O349 2.215 . S
Mn325 O351 2.117 . S
C326 O348 1.234 . S
C326 O349 1.283 . S
C327 O339 1.281 . S
C327 O340 1.236 . S
C328 O350 1.240 1_565 S
C328 O351 1.264 1_565 S
O329 Mn324 2.095 . S
O329 C338 1.250 . S
O330 Mn325 2.121 . S
O330 C338 1.258 . S
C331 N332 1.326 . S
C331 C335 1.460 . S
C331 H337 0.929 . S
N332 Mn325 2.257 . S
N332 C331 1.326 . S
N332 C336 1.362 . S
C333 C334 1.258 . S
C333 C336 1.431 . S
C333 C353 1.449 . S
C334 C333 1.258 . S
C334 C335 1.477 . S
C334 H354 0.931 . S
C335 C331 1.460 . S
C335 C334 1.477 . S
C335 H355 0.930 . S
C336 N332 1.362 . S
C336 C333 1.431 . S
C336 C346 1.476 . S
H337 C331 0.929 . S
C338 O329 1.250 . S
C338 O330 1.258 . S
O339 Mn324 2.162 . S
O339 C327 1.281 . S
O340 Mn324 2.297 . S
O340 C327 1.236 . S
N341 Mn325 2.282 . S
N341 C342 1.328 . S
N341 C346 1.318 . S
C342 N341 1.328 . S
C342 C343 1.457 . S
C342 H347 0.929 . S
C343 C342 1.457 . S
C343 C344 1.291 . S
C343 H356 0.931 . S
C344 C343 1.291 . S
C344 C345 1.373 . S
C344 H357 0.929 . S
C345 C344 1.373 . S
C345 C346 1.396 . S
C345 C352 1.403 . S
C346 C336 1.476 . S
C346 N341 1.318 . S
C346 C345 1.396 . S
H347 C342 0.929 . S
O348 Mn324 2.385 . S
O348 C326 1.234 . S
O349 Mn324 2.209 . S
O349 Mn325 2.215 . S
O349 C326 1.283 . S
O350 Mn324 2.094 . S
O350 C328 1.240 1_545 S
O351 Mn325 2.117 . S
O351 C328 1.264 1_545 S
C352 C345 1.403 . S
C352 C353 1.399 . S
C352 H358 0.929 . S
C353 C333 1.449 . S
C353 C352 1.399 . S
C353 H359 0.930 . S
H354 C334 0.931 . S
H355 C335 0.930 . S
H356 C343 0.931 . S
H357 C344 0.929 . S
H358 C352 0.929 . S
H359 C353 0.930 . S
Mn360 O365 2.095 . S
Mn360 O375 2.162 . S
Mn360 O376 2.297 . S
Mn360 O384 2.385 . S
Mn360 O385 2.209 . S
Mn360 O386 2.094 . S
Mn361 O366 2.121 . S
Mn361 N368 2.257 . S
Mn361 N377 2.282 . S
Mn361 O385 2.215 . S
Mn361 O387 2.117 . S
C362 O384 1.234 . S
C362 O385 1.283 . S
C363 O375 1.281 . S
C363 O376 1.236 . S
C364 O386 1.240 . S
C364 O387 1.264 . S
O365 Mn360 2.095 . S
O365 C374 1.250 . S
O366 Mn361 2.121 . S
O366 C374 1.258 . S
C367 N368 1.326 . S
C367 C371 1.460 1_565 S
C367 H373 0.929 . S
N368 Mn361 2.257 . S
N368 C367 1.326 . S
N368 C372 1.362 1_565 S
C369 C370 1.258 . S
C369 C372 1.431 . S
C369 C389 1.449 . S
C370 C369 1.258 . S
C370 C371 1.477 . S
C370 H390 0.931 . S
C371 C367 1.460 1_545 S
C371 C370 1.477 . S
C371 H391 0.930 . S
C372 N368 1.362 1_545 S
C372 C369 1.431 . S
C372 C382 1.476 1_545 S
H373 C367 0.929 . S
C374 O365 1.250 . S
C374 O366 1.258 . S
O375 Mn360 2.162 . S
O375 C363 1.281 . S
O376 Mn360 2.297 . S
O376 C363 1.236 . S
N377 Mn361 2.282 . S
N377 C378 1.328 . S
N377 C382 1.318 . S
C378 N377 1.328 . S
C378 C379 1.457 . S
C378 H383 0.929 . S
C379 C378 1.457 . S
C379 C380 1.291 1_565 S
C379 H392 0.931 . S
C380 C379 1.291 1_545 S
C380 C381 1.373 . S
C380 H393 0.929 . S
C381 C380 1.373 . S
C381 C382 1.396 1_545 S
C381 C388 1.403 . S
C382 C372 1.476 1_565 S
C382 N377 1.318 . S
C382 C381 1.396 1_565 S
H383 C378 0.929 . S
O384 Mn360 2.385 . S
O384 C362 1.234 . S
O385 Mn360 2.209 . S
O385 Mn361 2.215 . S
O385 C362 1.283 . S
O386 Mn360 2.094 . S
O386 C364 1.240 . S
O387 Mn361 2.117 . S
O387 C364 1.264 . S
C388 C381 1.403 . S
C388 C389 1.399 . S
C388 H394 0.929 . S
C389 C369 1.449 . S
C389 C388 1.399 . S
C389 H395 0.930 . S
H390 C370 0.931 . S
H391 C371 0.930 . S
H392 C379 0.931 . S
H393 C380 0.929 . S
H394 C388 0.929 . S
H395 C389 0.930 . S
Mn396 O401 2.095 . S
Mn396 O411 2.162 . S
Mn396 O412 2.297 . S
Mn396 O420 2.385 . S
Mn396 O421 2.209 . S
Mn396 O422 2.094 . S
Mn397 O402 2.121 . S
Mn397 N404 2.257 . S
Mn397 N413 2.282 . S
Mn397 O421 2.215 . S
Mn397 O423 2.117 . S
C398 O420 1.234 . S
C398 O421 1.283 . S
C399 O411 1.281 . S
C399 O412 1.236 . S
C400 O422 1.240 1_545 S
C400 O423 1.264 1_545 S
O401 Mn396 2.095 . S
O401 C410 1.250 . S
O402 Mn397 2.121 . S
O402 C410 1.258 . S
C403 N404 1.326 . S
C403 C407 1.460 . S
C403 H409 0.929 . S
N404 Mn397 2.257 . S
N404 C403 1.326 . S
N404 C408 1.362 . S
C405 C406 1.258 . S
C405 C408 1.431 . S
C405 C425 1.449 . S
C406 C405 1.258 . S
C406 C407 1.477 . S
C406 H426 0.931 . S
C407 C403 1.460 . S
C407 C406 1.477 . S
C407 H427 0.930 . S
C408 N404 1.362 . S
C408 C405 1.431 . S
C408 C418 1.476 . S
H409 C403 0.929 . S
C410 O401 1.250 . S
C410 O402 1.258 . S
O411 Mn396 2.162 . S
O411 C399 1.281 . S
O412 Mn396 2.297 . S
O412 C399 1.236 . S
N413 Mn397 2.282 . S
N413 C414 1.328 . S
N413 C418 1.318 . S
C414 N413 1.328 . S
C414 C415 1.457 . S
C414 H419 0.929 . S
C415 C414 1.457 . S
C415 C416 1.291 . S
C415 H428 0.931 . S
C416 C415 1.291 . S
C416 C417 1.373 . S
C416 H429 0.929 . S
C417 C416 1.373 . S
C417 C418 1.396 . S
C417 C424 1.403 . S
C418 C408 1.476 . S
C418 N413 1.318 . S
C418 C417 1.396 . S
H419 C414 0.929 . S
O420 Mn396 2.385 . S
O420 C398 1.234 . S
O421 Mn396 2.209 . S
O421 Mn397 2.215 . S
O421 C398 1.283 . S
O422 Mn396 2.094 . S
O422 C400 1.240 1_565 S
O423 Mn397 2.117 . S
O423 C400 1.264 1_565 S
C424 C417 1.403 . S
C424 C425 1.399 . S
C424 H430 0.929 . S
C425 C405 1.449 . S
C425 C424 1.399 . S
C425 H431 0.930 . S
H426 C406 0.931 . S
H427 C407 0.930 . S
H428 C415 0.931 . S
H429 C416 0.929 . S
H430 C424 0.929 . S
H431 C425 0.930 . S
Mn432 O437 2.095 . S
Mn432 O447 2.162 . S
Mn432 O448 2.297 . S
Mn432 O456 2.385 . S
Mn432 O457 2.209 . S
Mn432 O458 2.094 . S
Mn433 O438 2.121 . S
Mn433 N440 2.257 . S
Mn433 N449 2.282 . S
Mn433 O457 2.215 . S
Mn433 O459 2.117 . S
C434 O456 1.234 . S
C434 O457 1.283 . S
C435 O447 1.281 . S
C435 O448 1.236 . S
C436 O458 1.240 . S
C436 O459 1.264 . S
O437 Mn432 2.095 . S
O437 C446 1.250 . S
O438 Mn433 2.121 . S
O438 C446 1.258 . S
C439 N440 1.326 . S
C439 C443 1.460 . S
C439 H445 0.929 . S
N440 Mn433 2.257 . S
N440 C439 1.326 . S
N440 C444 1.362 . S
C441 C442 1.258 . S
C441 C444 1.431 . S
C441 C461 1.449 . S
C442 C441 1.258 . S
C442 C443 1.477 . S
C442 H462 0.931 . S
C443 C439 1.460 . S
C443 C442 1.477 . S
C443 H463 0.930 . S
C444 N440 1.362 . S
C444 C441 1.431 . S
C444 C454 1.476 . S
H445 C439 0.929 . S
C446 O437 1.250 . S
C446 O438 1.258 . S
O447 Mn432 2.162 . S
O447 C435 1.281 . S
O448 Mn432 2.297 . S
O448 C435 1.236 . S
N449 Mn433 2.282 . S
N449 C450 1.328 . S
N449 C454 1.318 . S
C450 N449 1.328 . S
C450 C451 1.457 . S
C450 H455 0.929 . S
C451 C450 1.457 . S
C451 C452 1.291 . S
C451 H464 0.931 . S
C452 C451 1.291 . S
C452 C453 1.373 . S
C452 H465 0.929 . S
C453 C452 1.373 . S
C453 C454 1.396 . S
C453 C460 1.403 . S
C454 C444 1.476 . S
C454 N449 1.318 . S
C454 C453 1.396 . S
H455 C450 0.929 . S
O456 Mn432 2.385 . S
O456 C434 1.234 . S
O457 Mn432 2.209 . S
O457 Mn433 2.215 . S
O457 C434 1.283 . S
O458 Mn432 2.094 . S
O458 C436 1.240 . S
O459 Mn433 2.117 . S
O459 C436 1.264 . S
C460 C453 1.403 . S
C460 C461 1.399 . S
C460 H466 0.929 . S
C461 C441 1.449 . S
C461 C460 1.399 . S
C461 H467 0.930 . S
H462 C442 0.931 . S
H463 C443 0.930 . S
H464 C451 0.931 . S
H465 C452 0.929 . S
H466 C460 0.929 . S
H467 C461 0.930 . S
Mn468 O473 2.095 . S
Mn468 O483 2.162 . S
Mn468 O484 2.297 . S
Mn468 O492 2.385 . S
Mn468 O493 2.209 . S
Mn468 O494 2.094 . S
Mn469 O474 2.121 . S
Mn469 N476 2.257 . S
Mn469 N485 2.282 . S
Mn469 O493 2.215 . S
Mn469 O495 2.117 . S
C470 O492 1.234 . S
C470 O493 1.283 . S
C471 O483 1.281 . S
C471 O484 1.236 . S
C472 O494 1.240 . S
C472 O495 1.264 . S
O473 Mn468 2.095 . S
O473 C482 1.250 . S
O474 Mn469 2.121 . S
O474 C482 1.258 . S
C475 N476 1.326 . S
C475 C479 1.460 . S
C475 H481 0.929 . S
N476 Mn469 2.257 . S
N476 C475 1.326 . S
N476 C480 1.362 . S
C477 C478 1.258 . S
C477 C480 1.431 . S
C477 C497 1.449 . S
C478 C477 1.258 . S
C478 C479 1.477 . S
C478 H498 0.931 . S
C479 C475 1.460 . S
C479 C478 1.477 . S
C479 H499 0.930 . S
C480 N476 1.362 . S
C480 C477 1.431 . S
C480 C490 1.476 . S
H481 C475 0.929 . S
C482 O473 1.250 . S
C482 O474 1.258 . S
O483 Mn468 2.162 . S
O483 C471 1.281 . S
O484 Mn468 2.297 . S
O484 C471 1.236 . S
N485 Mn469 2.282 . S
N485 C486 1.328 . S
N485 C490 1.318 . S
C486 N485 1.328 . S
C486 C487 1.457 . S
C486 H491 0.929 . S
C487 C486 1.457 . S
C487 C488 1.291 . S
C487 H500 0.931 . S
C488 C487 1.291 . S
C488 C489 1.373 . S
C488 H501 0.929 . S
C489 C488 1.373 . S
C489 C490 1.396 . S
C489 C496 1.403 . S
C490 C480 1.476 . S
C490 N485 1.318 . S
C490 C489 1.396 . S
H491 C486 0.929 . S
O492 Mn468 2.385 . S
O492 C470 1.234 . S
O493 Mn468 2.209 . S
O493 Mn469 2.215 . S
O493 C470 1.283 . S
O494 Mn468 2.094 . S
O494 C472 1.240 . S
O495 Mn469 2.117 . S
O495 C472 1.264 . S
C496 C489 1.403 . S
C496 C497 1.399 . S
C496 H502 0.929 . S
C497 C477 1.449 . S
C497 C496 1.399 . S
C497 H503 0.930 . S
H498 C478 0.931 . S
H499 C479 0.930 . S
H500 C487 0.931 . S
H501 C488 0.929 . S
H502 C496 0.929 . S
H503 C497 0.930 . S
Mn504 O509 2.095 . S
Mn504 O519 2.162 . S
Mn504 O520 2.297 . S
Mn504 O528 2.385 . S
Mn504 O529 2.209 . S
Mn504 O530 2.094 . S
Mn505 O510 2.121 . S
Mn505 N512 2.257 . S
Mn505 N521 2.282 . S
Mn505 O529 2.215 . S
Mn505 O531 2.117 . S
C506 O528 1.234 . S
C506 O529 1.283 . S
C507 O519 1.281 . S
C507 O520 1.236 . S
C508 O530 1.240 . S
C508 O531 1.264 . S
O509 Mn504 2.095 . S
O509 C518 1.250 . S
O510 Mn505 2.121 . S
O510 C518 1.258 . S
C511 N512 1.326 . S
C511 C515 1.460 . S
C511 H517 0.929 . S
N512 Mn505 2.257 . S
N512 C511 1.326 . S
N512 C516 1.362 . S
C513 C514 1.258 . S
C513 C516 1.431 . S
C513 C533 1.449 . S
C514 C513 1.258 . S
C514 C515 1.477 . S
C514 H534 0.931 . S
C515 C511 1.460 . S
C515 C514 1.477 . S
C515 H535 0.930 . S
C516 N512 1.362 . S
C516 C513 1.431 . S
C516 C526 1.476 . S
H517 C511 0.929 . S
C518 O509 1.250 . S
C518 O510 1.258 . S
O519 Mn504 2.162 . S
O519 C507 1.281 . S
O520 Mn504 2.297 . S
O520 C507 1.236 . S
N521 Mn505 2.282 . S
N521 C522 1.328 . S
N521 C526 1.318 . S
C522 N521 1.328 . S
C522 C523 1.457 . S
C522 H527 0.929 . S
C523 C522 1.457 . S
C523 C524 1.291 . S
C523 H536 0.931 . S
C524 C523 1.291 . S
C524 C525 1.373 . S
C524 H537 0.929 . S
C525 C524 1.373 . S
C525 C526 1.396 . S
C525 C532 1.403 . S
C526 C516 1.476 . S
C526 N521 1.318 . S
C526 C525 1.396 . S
H527 C522 0.929 . S
O528 Mn504 2.385 . S
O528 C506 1.234 . S
O529 Mn504 2.209 . S
O529 Mn505 2.215 . S
O529 C506 1.283 . S
O530 Mn504 2.094 . S
O530 C508 1.240 . S
O531 Mn505 2.117 . S
O531 C508 1.264 . S
C532 C525 1.403 . S
C532 C533 1.399 . S
C532 H538 0.929 . S
C533 C513 1.449 . S
C533 C532 1.399 . S
C533 H539 0.930 . S
H534 C514 0.931 . S
H535 C515 0.930 . S
H536 C523 0.931 . S
H537 C524 0.929 . S
H538 C532 0.929 . S
H539 C533 0.930 . S
Mn540 O545 2.095 . S
Mn540 O555 2.162 . S
Mn540 O556 2.297 . S
Mn540 O564 2.385 . S
Mn540 O565 2.209 . S
Mn540 O566 2.094 . S
Mn541 O546 2.121 . S
Mn541 N548 2.257 . S
Mn541 N557 2.282 . S
Mn541 O565 2.215 . S
Mn541 O567 2.117 . S
C542 O564 1.234 . S
C542 O565 1.283 . S
C543 O555 1.281 . S
C543 O556 1.236 . S
C544 O566 1.240 . S
C544 O567 1.264 . S
O545 Mn540 2.095 . S
O545 C554 1.250 . S
O546 Mn541 2.121 . S
O546 C554 1.258 . S
C547 N548 1.326 . S
C547 C551 1.460 . S
C547 H553 0.929 . S
N548 Mn541 2.257 . S
N548 C547 1.326 . S
N548 C552 1.362 . S
C549 C550 1.258 . S
C549 C552 1.431 . S
C549 C569 1.449 . S
C550 C549 1.258 . S
C550 C551 1.477 . S
C550 H570 0.931 . S
C551 C547 1.460 . S
C551 C550 1.477 . S
C551 H571 0.930 . S
C552 N548 1.362 . S
C552 C549 1.431 . S
C552 C562 1.476 . S
H553 C547 0.929 . S
C554 O545 1.250 . S
C554 O546 1.258 . S
O555 Mn540 2.162 . S
O555 C543 1.281 . S
O556 Mn540 2.297 . S
O556 C543 1.236 . S
N557 Mn541 2.282 . S
N557 C558 1.328 . S
N557 C562 1.318 . S
C558 N557 1.328 . S
C558 C559 1.457 . S
C558 H563 0.929 . S
C559 C558 1.457 . S
C559 C560 1.291 . S
C559 H572 0.931 . S
C560 C559 1.291 . S
C560 C561 1.373 . S
C560 H573 0.929 . S
C561 C560 1.373 . S
C561 C562 1.396 . S
C561 C568 1.403 . S
C562 C552 1.476 . S
C562 N557 1.318 . S
C562 C561 1.396 . S
H563 C558 0.929 . S
O564 Mn540 2.385 . S
O564 C542 1.234 . S
O565 Mn540 2.209 . S
O565 Mn541 2.215 . S
O565 C542 1.283 . S
O566 Mn540 2.094 . S
O566 C544 1.240 . S
O567 Mn541 2.117 . S
O567 C544 1.264 . S
C568 C561 1.403 . S
C568 C569 1.399 . S
C568 H574 0.929 . S
C569 C549 1.449 . S
C569 C568 1.399 . S
C569 H575 0.930 . S
H570 C550 0.931 . S
H571 C551 0.930 . S
H572 C559 0.931 . S
H573 C560 0.929 . S
H574 C568 0.929 . S
H575 C569 0.930 . S
C576 C577 1.387 . S
C576 H580 0.950 . S
C576 C585 1.390 . S
C577 C576 1.387 . S
C577 C579 1.387 . S
H578 C585 0.950 . S
C579 C577 1.387 . S
C579 C581 1.390 . S
C579 H583 0.950 . S
H580 C576 0.950 . S
C581 C579 1.390 . S
C581 C582 1.387 . S
C581 H584 0.950 . S
C582 C581 1.387 . S
C582 C585 1.387 . S
H583 C579 0.950 . S
H584 C581 0.950 . S
C585 C576 1.390 . S
C585 H578 0.950 . S
C585 C582 1.387 . S
C586 C587 1.387 1_545 S
C586 H590 0.950 . S
C586 C595 1.390 . S
C587 C586 1.387 1_565 S
C587 C589 1.387 1_655 S
H588 C595 0.950 . S
C589 C587 1.387 1_455 S
C589 C591 1.390 . S
C589 H593 0.950 . S
H590 C586 0.950 . S
C591 C589 1.390 . S
C591 C592 1.387 1_565 S
C591 H594 0.950 . S
C592 C591 1.387 1_545 S
C592 C595 1.387 1_455 S
H593 C589 0.950 . S
H594 C591 0.950 . S
C595 C586 1.390 . S
C595 H588 0.950 . S
C595 C592 1.387 1_655 S
C596 C597 1.387 . S
C596 H600 0.950 1_565 S
C596 C605 1.391 1_565 S
C597 C596 1.387 . S
C597 C599 1.387 . S
H598 C605 0.950 . S
C599 C597 1.387 . S
C599 C601 1.391 1_565 S
C599 H603 0.950 . S
H600 C596 0.950 1_545 S
C601 C599 1.391 1_545 S
C601 C602 1.387 . S
C601 H604 0.950 1_545 S
C602 C601 1.387 . S
C602 C605 1.387 . S
H603 C599 0.950 . S
H604 C601 0.950 1_565 S
C605 C596 1.391 1_545 S
C605 H598 0.950 . S
C605 C602 1.387 . S
C606 C607 1.387 . S
C606 H610 0.950 . S
C606 C615 1.390 1_455 S
C607 C606 1.387 . S
C607 C609 1.387 . S
H608 C615 0.950 . S
C609 C607 1.387 . S
C609 C611 1.390 1_455 S
C609 H613 0.950 . S
H610 C606 0.950 . S
C611 C609 1.390 1_655 S
C611 C612 1.387 . S
C611 H614 0.950 . S
C612 C611 1.387 . S
C612 C615 1.387 . S
H613 C609 0.950 . S
H614 C611 0.950 . S
C615 C606 1.390 1_655 S
C615 H608 0.950 . S
C615 C612 1.387 . S
C616 C617 1.387 . S
C616 H620 0.950 . S
C616 C625 1.390 . S
C617 C616 1.387 . S
C617 C619 1.387 . S
H618 C625 0.950 . S
C619 C617 1.387 . S
C619 C621 1.390 . S
C619 H623 0.950 . S
H620 C616 0.950 . S
C621 C619 1.390 . S
C621 C622 1.387 . S
C621 H624 0.950 . S
C622 C621 1.387 . S
C622 C625 1.387 . S
H623 C619 0.950 . S
H624 C621 0.950 . S
C625 C616 1.390 . S
C625 H618 0.950 . S
C625 C622 1.387 . S
C626 C627 1.387 1_565 S
C626 H630 0.950 . S
C626 C635 1.390 . S
C627 C626 1.387 1_545 S
C627 C629 1.387 . S
H628 C635 0.950 . S
C629 C627 1.387 . S
C629 C631 1.390 . S
C629 H633 0.950 . S
H630 C626 0.950 . S
C631 C629 1.390 . S
C631 C632 1.387 1_545 S
C631 H634 0.950 . S
C632 C631 1.387 1_565 S
C632 C635 1.387 . S
H633 C629 0.950 . S
H634 C631 0.950 . S
C635 C626 1.390 . S
C635 H628 0.950 . S
C635 C632 1.387 . S
C636 C637 1.387 . S
C636 H640 0.950 . S
C636 C645 1.390 1_655 S
C637 C636 1.387 . S
C637 C639 1.387 . S
H638 C645 0.950 . S
C639 C637 1.387 . S
C639 C641 1.390 1_655 S
C639 H643 0.950 . S
H640 C636 0.950 . S
C641 C639 1.390 1_455 S
C641 C642 1.387 . S
C641 H644 0.950 . S
C642 C641 1.387 . S
C642 C645 1.387 . S
H643 C639 0.950 . S
H644 C641 0.950 . S
C645 C636 1.390 1_455 S
C645 H638 0.950 . S
C645 C642 1.387 . S
C646 C647 1.387 . S
C646 H650 0.950 . S
C646 C655 1.390 1_554 S
C647 C646 1.387 . S
C647 C649 1.387 . S
H648 C655 0.950 . S
C649 C647 1.387 . S
C649 C651 1.390 1_554 S
C649 H653 0.950 . S
H650 C646 0.950 . S
C651 C649 1.390 1_556 S
C651 C652 1.387 . S
C651 H654 0.950 . S
C652 C651 1.387 . S
C652 C655 1.387 . S
H653 C649 0.950 . S
H654 C651 0.950 . S
C655 C646 1.390 1_556 S
C655 H648 0.950 . S
C655 C652 1.387 . S
C656 C657 1.387 1_655 S
C656 H660 0.950 . S
C656 C665 1.390 . S
C657 C656 1.387 1_455 S
C657 C659 1.387 1_556 S
H658 C665 0.950 . S
C659 C657 1.387 1_554 S
C659 C661 1.390 . S
C659 H663 0.950 . S
H660 C656 0.950 . S
C661 C659 1.390 . S
C661 C662 1.387 1_455 S
C661 H664 0.950 . S
C662 C661 1.387 1_655 S
C662 C665 1.387 1_554 S
H663 C659 0.950 . S
H664 C661 0.950 . S
C665 C656 1.390 . S
C665 H658 0.950 . S
C665 C662 1.387 1_556 S
C666 C667 1.387 . S
C666 H670 0.950 . S
C666 C675 1.390 . S
C667 C666 1.387 . S
C667 C669 1.387 . S
H668 C675 0.950 . S
C669 C667 1.387 . S
C669 C671 1.390 . S
C669 H673 0.950 . S
H670 C666 0.950 . S
C671 C669 1.390 . S
C671 C672 1.387 . S
C671 H674 0.950 . S
C672 C671 1.387 . S
C672 C675 1.387 . S
H673 C669 0.950 . S
H674 C671 0.950 . S
C675 C666 1.390 . S
C675 H668 0.950 . S
C675 C672 1.387 . S
C676 C677 1.387 . S
C676 H680 0.950 . S
C676 C685 1.390 1_556 S
C677 C676 1.387 . S
C677 C679 1.387 . S
H678 C685 0.950 . S
C679 C677 1.387 . S
C679 C681 1.390 1_556 S
C679 H683 0.950 . S
H680 C676 0.950 . S
C681 C679 1.390 1_554 S
C681 C682 1.387 . S
C681 H684 0.950 . S
C682 C681 1.387 . S
C682 C685 1.387 . S
H683 C679 0.950 . S
H684 C681 0.950 . S
C685 C676 1.390 1_554 S
C685 H678 0.950 . S
C685 C682 1.387 . S
C686 C687 1.387 . S
C686 H690 0.950 . S
C686 C695 1.390 . S
C687 C686 1.387 . S
C687 C689 1.387 . S
H688 C695 0.950 . S
C689 C687 1.387 . S
C689 C691 1.390 . S
C689 H693 0.950 . S
H690 C686 0.950 . S
C691 C689 1.390 . S
C691 C692 1.387 . S
C691 H694 0.950 . S
C692 C691 1.387 . S
C692 C695 1.387 . S
H693 C689 0.950 . S
H694 C691 0.950 . S
C695 C686 1.390 . S
C695 H688 0.950 . S
C695 C692 1.387 . S
C696 C697 1.387 1_565 S
C696 H700 0.950 . S
C696 C705 1.390 . S
C697 C696 1.387 1_545 S
C697 C699 1.387 1_556 S
H698 C705 0.950 . S
C699 C697 1.387 1_554 S
C699 C701 1.390 . S
C699 H703 0.950 . S
H700 C696 0.950 . S
C701 C699 1.390 . S
C701 C702 1.387 1_545 S
C701 H704 0.950 . S
C702 C701 1.387 1_565 S
C702 C705 1.387 1_554 S
H703 C699 0.950 . S
H704 C701 0.950 . S
C705 C696 1.390 . S
C705 H698 0.950 . S
C705 C702 1.387 1_556 S
C706 C707 1.387 . S
C706 H710 0.950 . S
C706 C715 1.390 . S
C707 C706 1.387 . S
C707 C709 1.387 . S
H708 C715 0.950 . S
C709 C707 1.387 . S
C709 C711 1.390 . S
C709 H713 0.950 . S
H710 C706 0.950 . S
C711 C709 1.390 . S
C711 C712 1.387 . S
C711 H714 0.950 . S
C712 C711 1.387 . S
C712 C715 1.387 . S
H713 C709 0.950 . S
H714 C711 0.950 . S
C715 C706 1.390 . S
C715 H708 0.950 . S
C715 C712 1.387 . S
C716 C717 1.387 . S
C716 H720 0.950 . S
C716 C725 1.390 . S
C717 C716 1.387 . S
C717 C719 1.387 . S
H718 C725 0.950 . S
C719 C717 1.387 . S
C719 C721 1.390 . S
C719 H723 0.950 . S
H720 C716 0.950 . S
C721 C719 1.390 . S
C721 C722 1.387 . S
C721 H724 0.950 . S
C722 C721 1.387 . S
C722 C725 1.387 . S
H723 C719 0.950 . S
H724 C721 0.950 . S
C725 C716 1.390 . S
C725 H718 0.950 . S
C725 C722 1.387 . S
C726 C727 1.387 . S
C726 H730 0.950 . S
C726 C735 1.390 . S
C727 C726 1.387 . S
C727 C729 1.387 . S
H728 C735 0.950 . S
C729 C727 1.387 . S
C729 C731 1.390 . S
C729 H733 0.950 . S
H730 C726 0.950 . S
C731 C729 1.390 . S
C731 C732 1.387 . S
C731 H734 0.950 . S
C732 C731 1.387 . S
C732 C735 1.387 . S
H733 C729 0.950 . S
H734 C731 0.950 . S
C735 C726 1.390 . S
C735 H728 0.950 . S
C735 C732 1.387 . S
C736 C737 1.387 . S
C736 H740 0.950 . S
C736 C745 1.390 . S
C737 C736 1.387 . S
C737 C739 1.387 . S
H738 C745 0.950 . S
C739 C737 1.387 . S
C739 C741 1.390 . S
C739 H743 0.950 . S
H740 C736 0.950 . S
C741 C739 1.390 . S
C741 C742 1.387 . S
C741 H744 0.950 . S
C742 C741 1.387 . S
C742 C745 1.387 . S
H743 C739 0.950 . S
H744 C741 0.950 . S
C745 C736 1.390 . S
C745 H738 0.950 . S
C745 C742 1.387 . S
C746 C747 1.387 . S
C746 H750 0.950 . S
C746 C755 1.390 . S
C747 C746 1.387 . S
C747 C749 1.387 . S
H748 C755 0.950 . S
C749 C747 1.387 . S
C749 C751 1.390 . S
C749 H753 0.950 . S
H750 C746 0.950 . S
C751 C749 1.390 . S
C751 C752 1.387 . S
C751 H754 0.950 . S
C752 C751 1.387 . S
C752 C755 1.387 . S
H753 C749 0.950 . S
H754 C751 0.950 . S
C755 C746 1.390 . S
C755 H748 0.950 . S
C755 C752 1.387 . S
C756 C757 1.387 . S
C756 H760 0.950 . S
C756 C765 1.390 . S
C757 C756 1.387 . S
C757 C759 1.387 . S
H758 C765 0.950 . S
C759 C757 1.387 . S
C759 C761 1.390 . S
C759 H763 0.950 . S
H760 C756 0.950 . S
C761 C759 1.390 . S
C761 C762 1.387 . S
C761 H764 0.950 . S
C762 C761 1.387 . S
C762 C765 1.387 . S
H763 C759 0.950 . S
H764 C761 0.950 . S
C765 C756 1.390 . S
C765 H758 0.950 . S
C765 C762 1.387 . S
C766 C767 1.387 . S
C766 H770 0.950 . S
C766 C775 1.390 . S
C767 C766 1.387 . S
C767 C769 1.387 . S
H768 C775 0.950 . S
C769 C767 1.387 . S
C769 C771 1.390 . S
C769 H773 0.950 . S
H770 C766 0.950 . S
C771 C769 1.390 . S
C771 C772 1.387 . S
C771 H774 0.950 . S
C772 C771 1.387 . S
C772 C775 1.387 . S
H773 C769 0.950 . S
H774 C771 0.950 . S
C775 C766 1.390 . S
C775 H768 0.950 . S
C775 C772 1.387 . S
C776 C777 1.387 . S
C776 H780 0.950 . S
C776 C785 1.390 . S
C777 C776 1.387 . S
C777 C779 1.387 . S
H778 C785 0.950 . S
C779 C777 1.387 . S
C779 C781 1.390 . S
C779 H783 0.950 . S
H780 C776 0.950 . S
C781 C779 1.390 . S
C781 C782 1.387 . S
C781 H784 0.950 . S
C782 C781 1.387 . S
C782 C785 1.387 . S
H783 C779 0.950 . S
H784 C781 0.950 . S
C785 C776 1.390 . S
C785 H778 0.950 . S
C785 C782 1.387 . S
C786 C787 1.387 . S
C786 H790 0.950 . S
C786 C795 1.390 . S
C787 C786 1.387 . S
C787 C789 1.387 . S
H788 C795 0.950 . S
C789 C787 1.387 . S
C789 C791 1.390 . S
C789 H793 0.950 . S
H790 C786 0.950 . S
C791 C789 1.390 . S
C791 C792 1.387 . S
C791 H794 0.950 . S
C792 C791 1.387 . S
C792 C795 1.387 . S
H793 C789 0.950 . S
H794 C791 0.950 . S
C795 C786 1.390 . S
C795 H788 0.950 . S
C795 C792 1.387 . S
C796 C797 1.387 . S
C796 H800 0.950 . S
C796 C805 1.390 . S
C797 C796 1.387 . S
C797 C799 1.387 . S
H798 C805 0.950 . S
C799 C797 1.387 . S
C799 C801 1.390 . S
C799 H803 0.950 . S
H800 C796 0.950 . S
C801 C799 1.390 . S
C801 C802 1.387 . S
C801 H804 0.950 . S
C802 C801 1.387 . S
C802 C805 1.387 . S
H803 C799 0.950 . S
H804 C801 0.950 . S
C805 C796 1.390 . S
C805 H798 0.950 . S
C805 C802 1.387 . S
C806 C807 1.387 . S
C806 H810 0.950 . S
C806 C815 1.390 . S
C807 C806 1.387 . S
C807 C809 1.387 . S
H808 C815 0.950 . S
C809 C807 1.387 . S
C809 C811 1.390 . S
C809 H813 0.950 . S
H810 C806 0.950 . S
C811 C809 1.390 . S
C811 C812 1.387 . S
C811 H814 0.950 . S
C812 C811 1.387 . S
C812 C815 1.387 . S
H813 C809 0.950 . S
H814 C811 0.950 . S
C815 C806 1.390 . S
C815 H808 0.950 . S
C815 C812 1.387 . S
C816 C817 1.387 . S
C816 H820 0.950 . S
C816 C825 1.390 . S
C817 C816 1.387 . S
C817 C819 1.387 . S
H818 C825 0.950 . S
C819 C817 1.387 . S
C819 C821 1.390 . S
C819 H823 0.950 . S
H820 C816 0.950 . S
C821 C819 1.390 . S
C821 C822 1.387 . S
C821 H824 0.950 . S
C822 C821 1.387 . S
C822 C825 1.387 . S
H823 C819 0.950 . S
H824 C821 0.950 . S
C825 C816 1.390 . S
C825 H818 0.950 . S
C825 C822 1.387 . S
C826 C827 1.387 . S
C826 H830 0.950 . S
C826 C835 1.390 . S
C827 C826 1.387 . S
C827 C829 1.387 . S
H828 C835 0.950 . S
C829 C827 1.387 . S
C829 C831 1.390 . S
C829 H833 0.950 . S
H830 C826 0.950 . S
C831 C829 1.390 . S
C831 C832 1.387 . S
C831 H834 0.950 . S
C832 C831 1.387 . S
C832 C835 1.387 . S
H833 C829 0.950 . S
H834 C831 0.950 . S
C835 C826 1.390 . S
C835 H828 0.950 . S
C835 C832 1.387 . S
C836 C837 1.387 . S
C836 H840 0.950 . S
C836 C845 1.390 . S
C837 C836 1.387 . S
C837 C839 1.387 . S
H838 C845 0.950 . S
C839 C837 1.387 . S
C839 C841 1.390 . S
C839 H843 0.950 . S
H840 C836 0.950 . S
C841 C839 1.390 . S
C841 C842 1.387 . S
C841 H844 0.950 . S
C842 C841 1.387 . S
C842 C845 1.387 . S
H843 C839 0.950 . S
H844 C841 0.950 . S
C845 C836 1.390 . S
C845 H838 0.950 . S
C845 C842 1.387 . S
C846 C847 1.387 . S
C846 H850 0.950 . S
C846 C855 1.390 . S
C847 C846 1.387 . S
C847 C849 1.387 . S
H848 C855 0.950 . S
C849 C847 1.387 . S
C849 C851 1.390 . S
C849 H853 0.950 . S
H850 C846 0.950 . S
C851 C849 1.390 . S
C851 C852 1.387 . S
C851 H854 0.950 . S
C852 C851 1.387 . S
C852 C855 1.387 . S
H853 C849 0.950 . S
H854 C851 0.950 . S
C855 C846 1.390 . S
C855 H848 0.950 . S
C855 C852 1.387 . S
C856 C857 1.387 . S
C856 H860 0.950 . S
C856 C865 1.390 . S
C857 C856 1.387 . S
C857 C859 1.387 . S
H858 C865 0.950 . S
C859 C857 1.387 . S
C859 C861 1.390 . S
C859 H863 0.950 . S
H860 C856 0.950 . S
C861 C859 1.390 . S
C861 C862 1.387 . S
C861 H864 0.950 . S
C862 C861 1.387 . S
C862 C865 1.387 . S
H863 C859 0.950 . S
H864 C861 0.950 . S
C865 C856 1.390 . S
C865 H858 0.950 . S
C865 C862 1.387 . S
C866 C867 1.387 . S
C866 H870 0.950 . S
C866 C875 1.390 . S
C867 C866 1.387 . S
C867 C869 1.387 . S
H868 C875 0.950 . S
C869 C867 1.387 . S
C869 C871 1.390 . S
C869 H873 0.950 . S
H870 C866 0.950 . S
C871 C869 1.390 . S
C871 C872 1.387 . S
C871 H874 0.950 . S
C872 C871 1.387 . S
C872 C875 1.387 . S
H873 C869 0.950 . S
H874 C871 0.950 . S
C875 C866 1.390 . S
C875 H868 0.950 . S
C875 C872 1.387 . S
C876 C877 1.387 . S
C876 H880 0.950 . S
C876 C885 1.390 . S
C877 C876 1.387 . S
C877 C879 1.387 . S
H878 C885 0.950 . S
C879 C877 1.387 . S
C879 C881 1.390 . S
C879 H883 0.950 . S
H880 C876 0.950 . S
C881 C879 1.390 . S
C881 C882 1.387 . S
C881 H884 0.950 . S
C882 C881 1.387 . S
C882 C885 1.387 . S
H883 C879 0.950 . S
H884 C881 0.950 . S
C885 C876 1.390 . S
C885 H878 0.950 . S
C885 C882 1.387 . S
C886 C887 1.387 . S
C886 H890 0.950 . S
C886 C895 1.390 . S
C887 C886 1.387 . S
C887 C889 1.387 . S
H888 C895 0.950 . S
C889 C887 1.387 . S
C889 C891 1.390 . S
C889 H893 0.950 . S
H890 C886 0.950 . S
C891 C889 1.390 . S
C891 C892 1.387 . S
C891 H894 0.950 . S
C892 C891 1.387 . S
C892 C895 1.387 . S
H893 C889 0.950 . S
H894 C891 0.950 . S
C895 C886 1.390 . S
C895 H888 0.950 . S
C895 C892 1.387 . S
C577 C518 1.460 . S
C582 C14 1.460 . S
C587 C75 1.505 . S
C592 C3 1.505 . S
C597 C410 1.459 . S
C602 C50 1.459 . S
C607 C39 1.505 . S
C612 C255 1.505 . S
C617 C86 1.458 . S
C622 C446 1.458 . S
C627 C338 1.459 . S
C632 C122 1.459 . S
C637 C111 1.505 . S
C642 C183 1.505 . S
C647 C374 1.461 . S
C652 C158 1.461 . S
C657 C147 1.505 . S
C662 C219 1.505 . S
C667 C554 1.460 . S
C672 C194 1.460 . S
C677 C302 1.461 . S
C682 C230 1.461 . S
C687 C482 1.458 . S
C692 C266 1.458 . S
C697 C291 1.505 . S
C702 C363 1.505 . S
C707 C543 1.505 . S
C712 C327 1.505 . S
C717 C399 1.505 . S
C722 C471 1.505 . S
C727 C507 1.505 . S
C732 C435 1.505 . S
C737 C182 1.372 . S
C742 C2 1.372 1_565 S
C747 C4 1.414 . S
C752 C184 1.414 . S
C757 C38 1.372 . S
C762 C146 1.372 . S
C767 C148 1.414 . S
C772 C40 1.414 . S
C777 C254 1.372 . S
C782 C74 1.372 1_545 S
C787 C256 1.416 . S
C792 C76 1.416 . S
C797 C218 1.372 . S
C802 C110 1.372 . S
C807 C112 1.414 . S
C812 C220 1.414 . S
C817 C470 1.372 . S
C822 C290 1.372 1_565 S
C827 C292 1.414 . S
C832 C472 1.414 . S
C837 C326 1.371 . S
C842 C434 1.371 . S
C847 C436 1.416 . S
C852 C328 1.416 . S
C857 C542 1.372 . S
C862 C362 1.372 1_545 S
C867 C544 1.416 . S
C872 C364 1.416 . S
C877 C398 1.372 . S
C882 C506 1.372 . S
C887 C508 1.416 . S
C892 C400 1.416 . S
