# Generated by pormake.
# Topology snz, (6)-cn, num edge types: 1
# Building blocks:
#     Node 0, Type 0, BuildingBlock: MIFKUJ_clean_sbu_0, # of connection points: 6
#     Node 1, Type 0, BuildingBlock: MIFKUJ_clean_sbu_0, # of connection points: 6
#     Node 2, Type 0, BuildingBlock: MIFKUJ_clean_sbu_0, # of connection points: 6
#     Node 3, Type 0, BuildingBlock: MIFKUJ_clean_sbu_0, # of connection points: 6
#     Node 4, Type 0, BuildingBlock: MIFKUJ_clean_sbu_0, # of connection points: 6
#     Node 5, Type 0, BuildingBlock: MIFKUJ_clean_sbu_0, # of connection points: 6
#     Node 6, Type 0, BuildingBlock: MIFKUJ_clean_sbu_0, # of connection points: 6
#     Node 7, Type 0, BuildingBlock: MIFKUJ_clean_sbu_0, # of connection points: 6
#     Node 8, Type 0, BuildingBlock: MIFKUJ_clean_sbu_0, # of connection points: 6
#     Edge 9, Type (0, 0), BuildingBlock: AJUNOK_clean_linker_0, # of connection points: 2
#     Edge 10, Type (0, 0), BuildingBlock: AJUNOK_clean_linker_0, # of connection points: 2
#     Edge 11, Type (0, 0), BuildingBlock: AJUNOK_clean_linker_0, # of connection points: 2
#     Edge 12, Type (0, 0), BuildingBlock: AJUNOK_clean_linker_0, # of connection points: 2
#     Edge 13, Type (0, 0), BuildingBlock: AJUNOK_clean_linker_0, # of connection points: 2
#     Edge 14, Type (0, 0), BuildingBlock: AJUNOK_clean_linker_0, # of connection points: 2
#     Edge 15, Type (0, 0), BuildingBlock: AJUNOK_clean_linker_0, # of connection points: 2
#     Edge 16, Type (0, 0), BuildingBlock: AJUNOK_clean_linker_0, # of connection points: 2
#     Edge 17, Type (0, 0), BuildingBlock: AJUNOK_clean_linker_0, # of connection points: 2
#     Edge 18, Type (0, 0), BuildingBlock: AJUNOK_clean_linker_0, # of connection points: 2
#     Edge 19, Type (0, 0), BuildingBlock: AJUNOK_clean_linker_0, # of connection points: 2
#     Edge 20, Type (0, 0), BuildingBlock: AJUNOK_clean_linker_0, # of connection points: 2
#     Edge 21, Type (0, 0), BuildingBlock: AJUNOK_clean_linker_0, # of connection points: 2
#     Edge 22, Type (0, 0), BuildingBlock: AJUNOK_clean_linker_0, # of connection points: 2
#     Edge 23, Type (0, 0), BuildingBlock: AJUNOK_clean_linker_0, # of connection points: 2
#     Edge 24, Type (0, 0), BuildingBlock: AJUNOK_clean_linker_0, # of connection points: 2
#     Edge 25, Type (0, 0), BuildingBlock: AJUNOK_clean_linker_0, # of connection points: 2
#     Edge 26, Type (0, 0), BuildingBlock: AJUNOK_clean_linker_0, # of connection points: 2
#     Edge 27, Type (0, 0), BuildingBlock: AJUNOK_clean_linker_0, # of connection points: 2
#     Edge 28, Type (0, 0), BuildingBlock: AJUNOK_clean_linker_0, # of connection points: 2
#     Edge 29, Type (0, 0), BuildingBlock: AJUNOK_clean_linker_0, # of connection points: 2
#     Edge 30, Type (0, 0), BuildingBlock: AJUNOK_clean_linker_0, # of connection points: 2
#     Edge 31, Type (0, 0), BuildingBlock: AJUNOK_clean_linker_0, # of connection points: 2
#     Edge 32, Type (0, 0), BuildingBlock: AJUNOK_clean_linker_0, # of connection points: 2
#     Edge 33, Type (0, 0), BuildingBlock: AJUNOK_clean_linker_0, # of connection points: 2
#     Edge 34, Type (0, 0), BuildingBlock: AJUNOK_clean_linker_0, # of connection points: 2
#     Edge 35, Type (0, 0), BuildingBlock: AJUNOK_clean_linker_0, # of connection points: 2
# Relax obj value: 0.146
# Max RMSD: 0.183
# Mean RMSD: 0.120
data_MOF--net-snz--node1-MIFKUJ_clean_sbu_0--edge1-AJUNOK_clean_linker_0
_symmetry_space_group_name_H-M    P1
_symmetry_Int_Tables_number       1
_symmetry_cell_setting            triclinic
loop_
_symmetry_equiv_pos_as_xyz
'x, y, z'
_cell_length_a     45.655162
_cell_length_b     41.87696
_cell_length_c     10.771332
_cell_angle_alpha  94.071373
_cell_angle_beta   93.265968
_cell_angle_gamma 120.5123
loop_
_atom_site_label
_atom_site_type_symbol
_atom_site_fract_x
_atom_site_fract_y
_atom_site_fract_z
_atom_type_partial_charge
Zn0 Zn 0.02413 0.50281 0.04651 0.0
Zn1 Zn 0.06357 0.4605 0.04278 0.0
C2 C 0.07863 0.57341 0.17257 0.0
O3 O 0.05738 0.56328 0.25884 0.0
C4 C 0.02151 0.39272 0.89823 0.0
O5 O 0.04938 0.40973 0.84166 0.0
O6 O 0.99101 0.52115 0.02305 0.0
O7 O 0.01832 0.47497 0.87422 0.0
O8 O 0.07177 0.48959 0.89078 0.0
C9 C 0.00078 0.54838 0.95817 0.0
O10 O 0.03039 0.56213 0.91282 0.0
O11 O 0.0711 0.55085 0.07405 0.0
C12 C 0.09985 0.42922 0.15137 0.0
O13 O 0.07999 0.4261 0.23902 0.0
O14 O 0.09872 0.44501 0.05611 0.0
O15 O 0.06685 0.48433 0.21955 0.0
O16 O 0.01579 0.4774 0.20818 0.0
O17 O 0.01937 0.41007 0.9962 0.0
C18 C 0.04516 0.48285 0.82226 0.0
C19 C 0.04164 0.48107 0.27391 0.0
Zn20 Zn 0.53632 0.42476 0.05775 0.0
Zn21 Zn 0.63732 0.5063 0.09741 0.0
C22 C 0.52852 0.35245 0.98344 0.0
O23 O 0.55757 0.37163 0.93545 0.0
C24 C 0.67474 0.57812 0.21824 0.0
O25 O 0.68532 0.55965 0.28235 0.0
O26 O 0.49344 0.42649 0.06537 0.0
O27 O 0.56378 0.44507 0.23064 0.0
O28 O 0.61939 0.48597 0.26132 0.0
C29 C 0.47917 0.41733 0.1653 0.0
O30 O 0.49548 0.41278 0.26035 0.0
O31 O 0.51647 0.36974 0.04194 0.0
C32 C 0.6946 0.5288 0.98102 0.0
O33 O 0.67801 0.54358 0.932 0.0
O34 O 0.68258 0.50926 0.07073 0.0
O35 O 0.60946 0.48533 0.92514 0.0
O36 O 0.55487 0.44147 0.8902 0.0
O37 O 0.65084 0.56016 0.12959 0.0
C38 C 0.5912 0.46475 0.30402 0.0
C39 C 0.58275 0.46445 0.84941 0.0
Zn40 Zn 0.63647 0.03463 0.17574 0.0
Zn41 Zn 0.55459 1.00041 0.13859 0.0
C42 C 0.65559 0.98743 0.27171 0.0
O43 O 0.66865 0.01654 0.35697 0.0
C44 C 0.54856 0.06598 0.1416 0.0
O45 O 0.52892 0.05261 0.23156 0.0
O46 O 0.68685 0.06902 0.15675 0.0
O47 O 0.61536 0.03905 1.00865 0.0
O48 O 0.56877 0.98396 0.98165 0.0
C49 C 0.69346 0.0557 0.05926 0.0
O50 O 0.66839 0.02581 0.99196 0.0
O51 O 0.63561 0.98538 0.17982 0.0
C52 C 0.48697 0.96525 0.22364 0.0
O53 O 0.50493 0.97839 0.33362 0.0
O54 O 0.50228 0.9711 0.12516 0.0
O55 O 0.57124 0.9961 0.31364 0.0
O56 O 0.6233 0.04532 0.34753 0.0
O57 O 0.56702 0.05268 0.1117 0.0
C58 C 0.59236 0.01141 0.9348 0.0
C59 C 0.59678 0.01986 0.38987 0.0
Zn60 Zn 0.76174 0.87104 0.35227 0.0
Zn61 Zn 0.79916 0.81225 0.34389 0.0
C62 C 0.80567 0.9389 0.50615 0.0
O63 O 0.7822 0.92086 0.5803 0.0
C64 C 0.75351 0.73873 0.24192 0.0
O65 O 0.77674 0.74995 0.16292 0.0
O66 O 0.72407 0.88374 0.33555 0.0
O67 O 0.76386 0.85226 0.17558 0.0
O68 O 0.80041 0.83224 0.17421 0.0
C69 C 0.73002 0.90858 0.26279 0.0
O70 O 0.75705 0.92054 0.20125 0.0
O71 O 0.80404 0.92232 0.40012 0.0
C72 C 0.83563 0.7819 0.455 0.0
O73 O 0.814 0.77822 0.53611 0.0
O74 O 0.83582 0.79778 0.35831 0.0
O75 O 0.80317 0.84057 0.51458 0.0
O76 O 0.75485 0.84097 0.5014 0.0
O77 O 0.75613 0.76188 0.33107 0.0
C78 C 0.78169 0.84215 0.11635 0.0
C79 C 0.77887 0.84073 0.56706 0.0
Zn80 Zn 0.1847 0.80541 0.29252 0.0
Zn81 Zn 0.27494 0.86532 0.31791 0.0
C82 C 0.16636 0.73314 0.18459 0.0
O83 O 0.15533 0.74504 0.09383 0.0
C84 C 0.298 0.93567 0.45456 0.0
O85 O 0.30444 0.91848 0.53979 0.0
O86 O 0.13539 0.78629 0.33357 0.0
O87 O 0.21005 0.84093 0.45393 0.0
O88 O 0.25703 0.83905 0.4766 0.0
C89 C 0.13284 0.77064 0.43343 0.0
O90 O 0.15936 0.76917 0.47859 0.0
O91 O 0.18452 0.75621 0.28009 0.0
C92 C 0.34033 0.8994 0.23256 0.0
O93 O 0.32481 0.9124 0.16439 0.0
O94 O 0.32348 0.87636 0.30866 0.0
O95 O 0.25149 0.84424 0.1383 0.0
O96 O 0.19621 0.82561 0.12132 0.0
O97 O 0.283 0.91774 0.34809 0.0
C98 C 0.23219 0.83908 0.52482 0.0
C99 C 0.22369 0.83447 0.07095 0.0
Zn100 Zn 0.26878 0.28848 0.26262 0.0
Zn101 Zn 0.18142 0.28934 0.24157 0.0
C102 C 0.29237 0.23776 0.27551 0.0
O103 O 0.31414 0.25837 0.19978 0.0
C104 C 0.1588 0.33529 0.15083 0.0
O105 O 0.14853 0.30996 0.05343 0.0
O106 O 0.31858 0.3282 0.26539 0.0
O107 O 0.24606 0.28554 0.08946 0.0
O108 O 0.19802 0.28634 0.07239 0.0
C109 C 0.3323 0.33654 0.16402 0.0
O110 O 0.31346 0.3193 0.05721 0.0
O111 O 0.26629 0.24042 0.2878 0.0
C112 C 0.1227 0.25172 0.34243 0.0
O113 O 0.14242 0.28158 0.42169 0.0
O114 O 0.13356 0.24674 0.24136 0.0
O115 O 0.20448 0.29197 0.41379 0.0
O116 O 0.25465 0.29625 0.43082 0.0
O117 O 0.1756 0.33354 0.24551 0.0
C118 C 0.22198 0.28509 0.02238 0.0
C119 C 0.22965 0.29486 0.48087 0.0
Zn120 Zn 0.42459 0.122 0.84725 0.0
Zn121 Zn 0.40707 0.17449 0.59189 0.0
C122 C 0.47515 0.10553 0.80093 0.0
O123 O 0.44832 0.07532 0.74205 0.0
C124 C 0.37273 0.21489 0.64101 0.0
O125 O 0.40374 0.2444 0.65751 0.0
O126 O 0.40591 0.07871 0.94857 0.0
O127 O 0.43162 0.1707 0.92729 0.0
O128 O 0.44022 0.18062 0.73498 0.0
C129 C 0.40545 0.0833 0.06545 0.0
O130 O 0.39611 0.05505 0.13102 0.0
O131 O 0.47208 0.13324 0.83346 0.0
C132 C 0.41819 0.20754 0.3665 0.0
O133 O 0.3907 0.21012 0.36751 0.0
O134 O 0.43389 0.2101 0.47105 0.0
O135 O 0.38097 0.12047 0.50912 0.0
O136 O 0.39605 0.1057 0.68203 0.0
O137 O 0.36944 0.18292 0.63765 0.0
C138 C 0.44002 0.19314 0.84521 0.0
C139 C 0.37806 0.09563 0.5771 0.0
Zn140 Zn 0.9415 0.16911 0.67572 0.0
Zn141 Zn 0.88081 0.16202 0.73885 0.0
C142 C 0.00043 0.2033 0.56477 0.0
O143 O 0.98603 0.22315 0.54658 0.0
C144 C 0.82647 0.11907 0.87495 0.0
O145 O 0.84344 0.10146 0.87684 0.0
O146 O 0.92173 0.16494 0.51153 0.0
O147 O 0.91046 0.11531 0.71876 0.0
O148 O 0.86808 0.11662 0.61697 0.0
C149 C 0.92511 0.14186 0.44093 0.0
O150 O 0.93631 0.12151 0.48879 0.0
O151 O 0.98768 0.17788 0.63706 0.0
C152 C 0.93912 0.1695 0.93764 0.0
O153 O 0.96537 0.17359 0.88127 0.0
O154 O 0.91244 0.16544 0.87861 0.0
O155 O 0.90198 0.21485 0.69521 0.0
O156 O 0.95105 0.21965 0.75695 0.0
O157 O 0.83773 0.14832 0.81965 0.0
C158 C 0.88147 0.09816 0.65326 0.0
C159 C 0.9334 0.23479 0.73799 0.0
Zn160 Zn 0.89746 0.66063 0.80989 0.0
Zn161 Zn 0.93738 0.65364 0.58662 0.0
C162 C 0.82596 0.61522 0.8269 0.0
O163 O 0.83198 0.64877 0.86375 0.0
C164 C 0.00836 0.69549 0.67674 0.0
O165 O 0.0025 0.66264 0.70134 0.0
O166 O 0.90132 0.68723 0.97188 0.0
O167 O 0.93768 0.65389 0.84765 0.0
O168 O 0.91248 0.61111 0.69321 0.0
C169 C 0.89585 0.66285 0.04441 0.0
O170 O 0.88317 0.62811 0.99687 0.0
O171 O 0.84995 0.6117 0.78612 0.0
C172 C 0.96967 0.63619 0.38668 0.0
O173 O 0.98801 0.62383 0.33556 0.0
O174 O 0.96035 0.62865 0.49372 0.0
O175 O 0.91057 0.67913 0.50891 0.0
O176 O 0.89885 0.6936 0.69239 0.0
O177 O 0.98294 0.69975 0.65484 0.0
C178 C 0.92905 0.62168 0.80026 0.0
C179 C 0.90097 0.69772 0.57789 0.0
C180 C 0.01373 0.46636 0.60464 0.0
C181 C 0.04492 0.48304 0.68283 0.0
C182 C 0.01282 0.46611 0.47335 0.0
C183 C 0.04305 0.48242 0.41392 0.0
H184 H 0.98968 0.45302 0.64497 0.0
H185 H 0.98816 0.45254 0.4179 0.0
S186 S 0.13152 0.53242 0.57566 0.0
N187 N 0.10689 0.51805 0.69017 0.0
N188 N 0.10524 0.51754 0.44525 0.0
C189 C 0.07442 0.49966 0.49114 0.0
C190 C 0.07534 0.49997 0.62469 0.0
C191 C 0.56052 0.43502 0.62427 0.0
C192 C 0.58467 0.46557 0.7103 0.0
C193 C 0.56288 0.43476 0.49395 0.0
C194 C 0.58972 0.46485 0.44323 0.0
H195 H 0.53975 0.41079 0.6578 0.0
H196 H 0.54364 0.41051 0.43257 0.0
S197 S 0.65719 0.55364 0.62501 0.0
N198 N 0.63412 0.52842 0.73156 0.0
N199 N 0.63965 0.52716 0.49011 0.0
C200 C 0.61364 0.4958 0.52788 0.0
C201 C 0.61082 0.49636 0.65998 0.0
C202 C 0.62046 0.04257 0.74666 0.0
C203 C 0.5928 0.0127 0.79554 0.0
C204 C 0.62168 0.0447 0.61663 0.0
C205 C 0.59529 0.01709 0.52856 0.0
H206 H 0.64157 0.06466 0.8094 0.0
H207 H 0.64354 0.06832 0.58515 0.0
S208 S 0.51702 0.93284 0.60655 0.0
N209 N 0.53819 0.95506 0.744 0.0
N210 N 0.54076 0.95827 0.50178 0.0
C211 C 0.56757 0.98695 0.57642 0.0
C212 C 0.56625 0.98496 0.70877 0.0
C213 C 0.7991 0.83049 0.77631 0.0
C214 C 0.7789 0.84111 0.70689 0.0
C215 C 0.7997 0.83067 0.90743 0.0
C216 C 0.78063 0.84218 0.97637 0.0
H217 H 0.81454 0.82168 0.72909 0.0
H218 H 0.81541 0.82177 0.95499 0.0
S219 S 0.72468 0.87459 0.84124 0.0
N220 N 0.73936 0.86372 0.7188 0.0
N221 N 0.74169 0.86581 0.96368 0.0
C222 C 0.76067 0.85341 0.90824 0.0
C223 C 0.75949 0.85243 0.77446 0.0
C224 C 0.25516 0.839 0.74519 0.0
C225 C 0.22938 0.83814 0.66398 0.0
C226 C 0.25294 0.83772 0.87514 0.0
C227 C 0.22458 0.83498 0.93117 0.0
H228 H 0.27749 0.84084 0.70837 0.0
H229 H 0.27378 0.83873 0.93214 0.0
S230 S 0.15032 0.83303 0.76279 0.0
N231 N 0.17492 0.83603 0.65231 0.0
N232 N 0.17023 0.83195 0.89375 0.0
C233 C 0.19854 0.834 0.85133 0.0
C234 C 0.2011 0.83608 0.71916 0.0
C235 C 0.20935 0.30459 0.68655 0.0
C236 C 0.22821 0.29251 0.6191 0.0
C237 C 0.20704 0.30159 0.81582 0.0
C238 C 0.2233 0.28614 0.88361 0.0
H239 H 0.19652 0.31685 0.63941 0.0
H240 H 0.19279 0.31205 0.86333 0.0
S241 S 0.27179 0.24543 0.74812 0.0
N242 N 0.26086 0.26129 0.62882 0.0
N243 N 0.25641 0.25564 0.86983 0.0
C244 C 0.24137 0.27294 0.81645 0.0
C245 C 0.24383 0.27611 0.68512 0.0
C246 C 0.38918 0.15858 0.18373 0.0
C247 C 0.41905 0.18268 0.26477 0.0
C248 C 0.3856 0.12697 0.11526 0.0
C249 C 0.41187 0.11893 0.12475 0.0
H250 H 0.36741 0.16241 0.18007 0.0
H251 H 0.36161 0.10783 0.05888 0.0
S252 S 0.49806 0.17792 0.29728 0.0
N253 N 0.47772 0.20015 0.33095 0.0
N254 N 0.47051 0.14008 0.20272 0.0
C255 C 0.44307 0.14462 0.19434 0.0
C256 C 0.44688 0.17695 0.26347 0.0
C257 C 0.94907 0.14008 0.24551 0.0
C258 C 0.92635 0.14639 0.31038 0.0
C259 C 0.95494 0.14986 0.12543 0.0
C260 C 0.93806 0.16594 0.06876 0.0
H261 H 0.96302 0.12839 0.28848 0.0
H262 H 0.97187 0.1438 0.07578 0.0
S263 S 0.87761 0.18991 0.20303 0.0
N264 N 0.88742 0.17009 0.31192 0.0
N265 N 0.89963 0.19014 0.08664 0.0
C266 C 0.91605 0.17341 0.13408 0.0
C267 C 0.90966 0.1629 0.25495 0.0
C268 C 0.91838 0.63636 0.32081 0.0
C269 C 0.95343 0.65153 0.31438 0.0
C270 C 0.90037 0.64794 0.24912 0.0
C271 C 0.91638 0.67288 0.1621 0.0
H272 H 0.90437 0.61436 0.37878 0.0
H273 H 0.87286 0.63351 0.2497 0.0
S274 S 0.00857 0.72318 0.11854 0.0
N275 N 0.00474 0.6957 0.22708 0.0
N276 N 0.96985 0.71603 0.08239 0.0
C277 C 0.95206 0.69078 0.16188 0.0
C278 C 0.97077 0.67957 0.23819 0.0
C279 C 0.13813 0.37186 0.04173 0.0
C280 C 0.14767 0.36281 0.15437 0.0
C281 C 0.12433 0.39505 0.04183 0.0
C282 C 0.11895 0.40944 0.15458 0.0
H283 H 0.14076 0.36039 0.95254 0.0
H284 H 0.11642 0.40034 0.95266 0.0
S285 S 0.14096 0.39542 0.4752 0.0
N286 N 0.15215 0.37134 0.38195 0.0
N287 N 0.12566 0.41442 0.38201 0.0
C288 C 0.12925 0.40146 0.26801 0.0
C289 C 0.14379 0.3783 0.26798 0.0
C290 C 0.67974 0.63904 0.18101 0.0
C291 C 0.69351 0.6194 0.2371 0.0
C292 C 0.6987 0.67813 0.18695 0.0
C293 C 0.73192 0.6986 0.249 0.0
H294 H 0.65446 0.6241 0.12976 0.0
H295 H 0.68774 0.69228 0.13979 0.0
S296 S 0.77983 0.66136 0.41201 0.0
N297 N 0.74255 0.62412 0.35883 0.0
N298 N 0.77779 0.69725 0.36849 0.0
C299 C 0.74569 0.67961 0.3077 0.0
C300 C 0.72653 0.64003 0.30245 0.0
C301 C 0.43112 0.95805 0.14574 0.0
C302 C 0.44935 0.94567 0.21668 0.0
C303 C 0.39581 0.94246 0.15035 0.0
C304 C 0.37736 0.91362 0.22498 0.0
H305 H 0.44443 0.98085 0.09004 0.0
H306 H 0.3831 0.95374 0.09667 0.0
S307 S 0.41358 0.86932 0.41866 0.0
N308 N 0.44672 0.90193 0.3578 0.0
N309 N 0.3803 0.87187 0.36488 0.0
C310 C 0.39537 0.90021 0.29284 0.0
C311 C 0.43137 0.91646 0.28914 0.0
C312 C 0.53419 0.11274 0.07505 0.0
C313 C 0.5377 0.08186 0.04397 0.0
C314 C 0.51721 0.12313 0.98903 0.0
C315 C 0.50194 0.10196 0.87121 0.0
H316 H 0.54324 0.12787 0.16812 0.0
H317 H 0.51372 0.14609 1.01927 0.0
S318 S 0.50683 0.02063 0.7417 0.0
N319 N 0.52742 0.03228 0.88367 0.0
N320 N 0.49456 0.05108 0.72401 0.0
C321 C 0.50739 0.07262 0.83633 0.0
C322 C 0.52536 0.06261 0.92256 0.0
C323 C 0.97976 0.29781 0.70695 0.0
C324 C 0.9507 0.27564 0.76635 0.0
C325 C 0.00137 0.33579 0.74769 0.0
C326 C 0.99528 0.35325 0.85159 0.0
H327 H 0.98652 0.28543 0.63054 0.0
H328 H 0.02379 0.35118 0.69934 0.0
S329 S 0.92194 0.30687 0.03933 0.0
N330 N 0.91614 0.2733 0.93236 0.0
N331 N 0.95704 0.34498 1.01122 0.0
C332 C 0.96561 0.33145 0.91016 0.0
C333 C 0.94328 0.29258 0.86709 0.0
C334 C 0.76494 0.56654 0.77224 0.0
C335 C 0.79426 0.58295 0.85845 0.0
C336 C 0.7324 0.54501 0.81154 0.0
C337 C 0.72815 0.53941 0.93831 0.0
H338 H 0.76692 0.57286 0.67618 0.0
H339 H 0.71026 0.53509 0.74381 0.0
S340 S 0.79728 0.57241 0.19751 0.0
N341 N 0.81735 0.58889 0.07348 0.0
N342 N 0.7561 0.54836 0.14694 0.0
C343 C 0.75738 0.55261 0.02308 0.0
C344 C 0.79054 0.57465 0.98315 0.0
C345 C 0.97737 0.62175 0.92161 0.0
C346 C 0.94493 0.60152 0.85203 0.0
C347 C 0.9949 0.60402 0.95853 0.0
C348 C 0.97986 0.5652 0.93329 0.0
H349 H 0.99014 0.65179 0.94201 0.0
H350 H 0.02065 0.62087 1.00549 0.0
S351 S 0.89345 0.4988 0.77183 0.0
N352 N 0.89732 0.54017 0.7688 0.0
N353 N 0.9296 0.50653 0.84564 0.0
C354 C 0.94652 0.54425 0.87223 0.0
C355 C 0.92916 0.56249 0.83005 0.0
C356 C 0.47332 0.29228 0.98668 0.0
C357 C 0.50741 0.31126 0.95652 0.0
C358 C 0.45162 0.25381 0.95242 0.0
C359 C 0.46314 0.23316 0.88562 0.0
H360 H 0.46296 0.30732 0.03481 0.0
H361 H 0.42548 0.24035 0.97549 0.0
S362 S 0.5509 0.26781 0.79825 0.0
N363 N 0.55232 0.3052 0.86661 0.0
N364 N 0.5113 0.23307 0.80074 0.0
C365 C 0.49738 0.25125 0.85917 0.0
C366 C 0.51959 0.29028 0.89503 0.0
C367 C 0.7837 0.12585 0.99249 0.0
C368 C 0.7933 0.10291 0.92689 0.0
C369 C 0.75185 0.11045 0.04059 0.0
C370 C 0.72835 0.0718 1.02105 0.0
H371 H 0.80096 0.15581 1.00708 0.0
H372 H 0.74516 0.12896 0.08957 0.0
S373 S 0.74196 0.99979 0.85873 0.0
N374 N 0.77749 0.03969 0.84932 0.0
N375 N 0.71749 0.01089 0.93539 0.0
C376 C 0.73798 0.04866 0.95674 0.0
C377 C 0.77053 0.06418 0.91085 0.0
C378 C 0.65645 0.92758 0.26881 0.0
C379 C 0.67333 0.96623 0.26161 0.0
C380 C 0.67478 0.90872 0.26988 0.0
C381 C 0.71025 0.92784 0.25993 0.0
H382 H 0.62926 0.91213 0.27718 0.0
H383 H 0.66115 0.87907 0.2779 0.0
S384 S 0.76581 0.0293 0.23971 0.0
N385 N 0.72727 0.02295 0.24769 0.0
N386 N 0.76114 0.98763 0.2426 0.0
C387 C 0.72697 0.96634 0.25013 0.0
C388 C 0.70865 0.9855 0.25284 0.0
C389 C 0.13834 0.66859 0.07191 0.0
C390 C 0.15083 0.69218 0.18596 0.0
C391 C 0.11704 0.62975 0.06863 0.0
C392 C 0.10678 0.61299 0.1793 0.0
H393 H 0.14384 0.6804 0.9839 0.0
H394 H 0.10685 0.61311 0.9782 0.0
S395 S 0.13492 0.66164 0.50296 0.0
N396 N 0.15371 0.69533 0.41298 0.0
N397 N 0.11313 0.62261 0.40674 0.0
C398 C 0.12065 0.63596 0.29424 0.0
C399 C 0.14285 0.67545 0.29766 0.0
C400 C 0.42046 0.38522 0.05277 0.0
C401 C 0.44221 0.40284 0.1646 0.0
C402 C 0.38491 0.36495 0.05334 0.0
C403 C 0.36973 0.36169 0.16565 0.0
H404 H 0.43092 0.38532 0.9649 0.0
H405 H 0.36935 0.3506 0.9653 0.0
S406 S 0.41572 0.40703 0.48139 0.0
N407 N 0.44634 0.4188 0.38859 0.0
N408 N 0.37942 0.381 0.39022 0.0
C409 C 0.39124 0.38102 0.27722 0.0
C410 C 0.42749 0.40152 0.27648 0.0
C411 C 0.88479 0.74552 0.62737 0.0
C412 C 0.88944 0.72337 0.53388 0.0
C413 C 0.86881 0.76546 0.59951 0.0
C414 C 0.85748 0.76556 0.47618 0.0
H415 H 0.89234 0.74654 0.72543 0.0
H416 H 0.86453 0.78028 0.67629 0.0
S417 S 0.8654 0.71595 0.19353 0.0
N418 N 0.88242 0.70499 0.31037 0.0
N419 N 0.85369 0.74416 0.25747 0.0
C420 C 0.86376 0.74596 0.3801 0.0
C421 C 0.87943 0.72457 0.40897 0.0
C422 C 0.34962 0.03893 0.41669 0.0
C423 C 0.35333 0.05547 0.53935 0.0
C424 C 0.32969 0.99989 0.38656 0.0
C425 C 0.31277 0.97645 0.47818 0.0
H426 H 0.36359 0.05602 0.34571 0.0
H427 H 0.32914 0.98793 0.29328 0.0
S428 S 0.30864 0.00678 0.80492 0.0
N429 N 0.33439 0.04591 0.74709 0.0
N430 N 0.2971 0.97295 0.69036 0.0
C431 C 0.31422 0.993 0.59791 0.0
C432 C 0.33445 0.03244 0.62855 0.0
C433 C 0.03594 0.23115 0.39273 0.0
C434 C 0.02845 0.20853 0.49092 0.0
C435 C 0.06496 0.24126 0.33119 0.0
C436 C 0.08718 0.22883 0.3652 0.0
H437 H 0.02032 0.24281 0.36711 0.0
H438 H 0.07157 0.26143 0.26431 0.0
S439 S 0.07606 0.16354 0.59689 0.0
N440 N 0.04302 0.16941 0.60507 0.0
N441 N 0.09814 0.1892 0.48912 0.0
C442 C 0.07844 0.20342 0.45374 0.0
C443 C 0.04879 0.19295 0.51671 0.0
C444 C 0.32184 0.18826 0.48146 0.0
C445 C 0.34506 0.21762 0.57345 0.0
C446 C 0.3031 0.19412 0.38757 0.0
C447 C 0.30634 0.2291 0.38517 0.0
H448 H 0.32034 0.16153 0.47467 0.0
H449 H 0.28755 0.17188 0.313 0.0
S450 S 0.3565 0.31197 0.62054 0.0
N451 N 0.36538 0.28081 0.66746 0.0
N452 N 0.3294 0.29143 0.49251 0.0
C453 C 0.32625 0.25726 0.48395 0.0
C454 C 0.3457 0.25155 0.57835 0.0
C455 C 0.83939 0.99418 0.66614 0.0
C456 C 0.82952 0.97942 0.53911 0.0
C457 C 0.85736 0.03281 0.70209 0.0
C458 C 0.86485 0.05788 0.6125 0.0
H459 H 0.83255 0.97568 0.73856 0.0
H460 H 0.86418 0.04305 0.80085 0.0
S461 S 0.84753 0.03398 0.2676 0.0
N462 N 0.83169 0.99327 0.32311 0.0
N463 N 0.86284 0.06565 0.39133 0.0
C464 C 0.85588 0.04365 0.48518 0.0
C465 C 0.83894 0.00442 0.44825 0.0
C466 C 0.04277 0.73875 0.52248 0.0
C467 C 0.0415 0.72078 0.62981 0.0
C468 C 0.07242 0.75544 0.45966 0.0
C469 C 0.10186 0.75485 0.5023 0.0
H470 H 0.02015 0.73817 0.4827 0.0
H471 H 0.07192 0.76793 0.37552 0.0
S472 S 0.11244 0.71457 0.78736 0.0
N473 N 0.07284 0.70586 0.78085 0.0
N474 N 0.12829 0.73702 0.66572 0.0
C475 C 0.10121 0.73845 0.61334 0.0
C476 C 0.07117 0.72156 0.67637 0.0
loop_
_geom_bond_atom_site_label_1
_geom_bond_atom_site_label_2
_geom_bond_distance
_geom_bond_site_symmetry_2
_ccdc_geom_bond_type
Zn0 O6 1.969 1_455 S
Zn0 O7 1.965 1_554 S
Zn0 O11 2.024 . S
Zn0 O16 1.969 . S
Zn1 O8 1.969 1_554 S
Zn1 O14 1.969 . S
Zn1 O15 1.965 . S
Zn1 O17 2.024 1_455 S
C2 O3 1.229 . S
C2 O11 1.058 . S
O3 C2 1.229 . S
C4 O5 1.229 1_655 S
C4 O17 1.058 1_556 S
O5 C4 1.229 1_455 S
O6 Zn0 1.969 1_655 S
O6 C9 1.267 1_554 S
O7 Zn0 1.965 1_556 S
O7 C18 1.260 . S
O8 Zn1 1.969 1_556 S
O8 C18 1.258 . S
C9 O6 1.267 1_556 S
C9 O10 1.228 1_655 S
O10 C9 1.228 1_455 S
O11 Zn0 2.024 . S
O11 C2 1.058 . S
C12 O13 1.228 . S
C12 O14 1.267 . S
O13 C12 1.228 . S
O14 Zn1 1.969 . S
O14 C12 1.267 . S
O15 Zn1 1.965 . S
O15 C19 1.260 . S
O16 Zn0 1.969 . S
O16 C19 1.258 . S
O17 Zn1 2.024 1_655 S
O17 C4 1.058 1_554 S
C18 O7 1.260 . S
C18 O8 1.258 . S
C19 O15 1.260 . S
C19 O16 1.258 . S
Zn20 O26 1.969 . S
Zn20 O27 1.965 . S
Zn20 O31 2.024 . S
Zn20 O36 1.969 1_554 S
Zn21 O28 1.969 . S
Zn21 O34 1.969 . S
Zn21 O35 1.965 1_554 S
Zn21 O37 2.024 . S
C22 O23 1.229 1_554 S
C22 O31 1.058 . S
O23 C22 1.229 1_556 S
C24 O25 1.229 . S
C24 O37 1.058 . S
O25 C24 1.229 . S
O26 Zn20 1.969 . S
O26 C29 1.267 . S
O27 Zn20 1.965 . S
O27 C38 1.260 . S
O28 Zn21 1.969 . S
O28 C38 1.258 . S
C29 O26 1.267 . S
C29 O30 1.228 . S
O30 C29 1.228 . S
O31 Zn20 2.024 . S
O31 C22 1.058 . S
C32 O33 1.228 1_554 S
C32 O34 1.267 . S
O33 C32 1.228 1_556 S
O34 Zn21 1.969 . S
O34 C32 1.267 . S
O35 Zn21 1.965 1_556 S
O35 C39 1.260 . S
O36 Zn20 1.969 1_556 S
O36 C39 1.258 . S
O37 Zn21 2.024 . S
O37 C24 1.058 . S
C38 O27 1.260 . S
C38 O28 1.258 . S
C39 O35 1.260 . S
C39 O36 1.258 . S
Zn40 O46 1.969 . S
Zn40 O47 1.965 . S
Zn40 O51 2.024 1_545 S
Zn40 O56 1.969 . S
Zn41 O48 1.969 1_554 S
Zn41 O54 1.969 1_545 S
Zn41 O55 1.965 . S
Zn41 O57 2.024 . S
C42 O43 1.229 1_565 S
C42 O51 1.058 . S
O43 C42 1.229 1_545 S
C44 O45 1.229 . S
C44 O57 1.058 . S
O45 C44 1.229 . S
O46 Zn40 1.969 . S
O46 C49 1.267 . S
O47 Zn40 1.965 . S
O47 C58 1.260 1_554 S
O48 Zn41 1.969 1_556 S
O48 C58 1.258 . S
C49 O46 1.267 . S
C49 O50 1.228 . S
O50 C49 1.228 . S
O51 Zn40 2.024 1_565 S
O51 C42 1.058 . S
C52 O53 1.228 1_565 S
C52 O54 1.267 . S
O53 C52 1.228 1_545 S
O54 Zn41 1.969 1_565 S
O54 C52 1.267 . S
O55 Zn41 1.965 . S
O55 C59 1.260 . S
O56 Zn40 1.969 . S
O56 C59 1.258 . S
O57 Zn41 2.024 . S
O57 C44 1.058 . S
C58 O47 1.260 1_556 S
C58 O48 1.258 . S
C59 O55 1.260 . S
C59 O56 1.258 . S
Zn60 O66 1.969 . S
Zn60 O67 1.965 . S
Zn60 O71 2.024 . S
Zn60 O76 1.969 . S
Zn61 O68 1.969 . S
Zn61 O74 1.969 . S
Zn61 O75 1.965 . S
Zn61 O77 2.024 . S
C62 O63 1.229 . S
C62 O71 1.058 . S
O63 C62 1.229 . S
C64 O65 1.229 . S
C64 O77 1.058 . S
O65 C64 1.229 . S
O66 Zn60 1.969 . S
O66 C69 1.267 . S
O67 Zn60 1.965 . S
O67 C78 1.260 . S
O68 Zn61 1.969 . S
O68 C78 1.258 . S
C69 O66 1.267 . S
C69 O70 1.228 . S
O70 C69 1.228 . S
O71 Zn60 2.024 . S
O71 C62 1.058 . S
C72 O73 1.228 . S
C72 O74 1.267 . S
O73 C72 1.228 . S
O74 Zn61 1.969 . S
O74 C72 1.267 . S
O75 Zn61 1.965 . S
O75 C79 1.260 . S
O76 Zn60 1.969 . S
O76 C79 1.258 . S
O77 Zn61 2.024 . S
O77 C64 1.058 . S
C78 O67 1.260 . S
C78 O68 1.258 . S
C79 O75 1.260 . S
C79 O76 1.258 . S
Zn80 O86 1.969 . S
Zn80 O87 1.965 . S
Zn80 O91 2.024 . S
Zn80 O96 1.969 . S
Zn81 O88 1.969 . S
Zn81 O94 1.969 . S
Zn81 O95 1.965 . S
Zn81 O97 2.024 . S
C82 O83 1.229 . S
C82 O91 1.058 . S
O83 C82 1.229 . S
C84 O85 1.229 . S
C84 O97 1.058 . S
O85 C84 1.229 . S
O86 Zn80 1.969 . S
O86 C89 1.267 . S
O87 Zn80 1.965 . S
O87 C98 1.260 . S
O88 Zn81 1.969 . S
O88 C98 1.258 . S
C89 O86 1.267 . S
C89 O90 1.228 . S
O90 C89 1.228 . S
O91 Zn80 2.024 . S
O91 C82 1.058 . S
C92 O93 1.228 . S
C92 O94 1.267 . S
O93 C92 1.228 . S
O94 Zn81 1.969 . S
O94 C92 1.267 . S
O95 Zn81 1.965 . S
O95 C99 1.260 . S
O96 Zn80 1.969 . S
O96 C99 1.258 . S
O97 Zn81 2.024 . S
O97 C84 1.058 . S
C98 O87 1.260 . S
C98 O88 1.258 . S
C99 O95 1.260 . S
C99 O96 1.258 . S
Zn100 O106 1.969 . S
Zn100 O107 1.965 . S
Zn100 O111 2.024 . S
Zn100 O116 1.969 . S
Zn101 O108 1.969 . S
Zn101 O114 1.969 . S
Zn101 O115 1.965 . S
Zn101 O117 2.024 . S
C102 O103 1.229 . S
C102 O111 1.058 . S
O103 C102 1.229 . S
C104 O105 1.229 . S
C104 O117 1.058 . S
O105 C104 1.229 . S
O106 Zn100 1.969 . S
O106 C109 1.267 . S
O107 Zn100 1.965 . S
O107 C118 1.260 . S
O108 Zn101 1.969 . S
O108 C118 1.258 . S
C109 O106 1.267 . S
C109 O110 1.228 . S
O110 C109 1.228 . S
O111 Zn100 2.024 . S
O111 C102 1.058 . S
C112 O113 1.228 . S
C112 O114 1.267 . S
O113 C112 1.228 . S
O114 Zn101 1.969 . S
O114 C112 1.267 . S
O115 Zn101 1.965 . S
O115 C119 1.260 . S
O116 Zn100 1.969 . S
O116 C119 1.258 . S
O117 Zn101 2.024 . S
O117 C104 1.058 . S
C118 O107 1.260 . S
C118 O108 1.258 . S
C119 O115 1.260 . S
C119 O116 1.258 . S
Zn120 O126 1.969 . S
Zn120 O127 1.965 . S
Zn120 O131 2.024 . S
Zn120 O136 1.969 . S
Zn121 O128 1.969 . S
Zn121 O134 1.969 . S
Zn121 O135 1.965 . S
Zn121 O137 2.024 . S
C122 O123 1.229 . S
C122 O131 1.058 . S
O123 C122 1.229 . S
C124 O125 1.229 . S
C124 O137 1.058 . S
O125 C124 1.229 . S
O126 Zn120 1.969 . S
O126 C129 1.267 1_556 S
O127 Zn120 1.965 . S
O127 C138 1.260 . S
O128 Zn121 1.969 . S
O128 C138 1.258 . S
C129 O126 1.267 1_554 S
C129 O130 1.228 . S
O130 C129 1.228 . S
O131 Zn120 2.024 . S
O131 C122 1.058 . S
C132 O133 1.228 . S
C132 O134 1.267 . S
O133 C132 1.228 . S
O134 Zn121 1.969 . S
O134 C132 1.267 . S
O135 Zn121 1.965 . S
O135 C139 1.260 . S
O136 Zn120 1.969 . S
O136 C139 1.258 . S
O137 Zn121 2.024 . S
O137 C124 1.058 . S
C138 O127 1.260 . S
C138 O128 1.258 . S
C139 O135 1.260 . S
C139 O136 1.258 . S
Zn140 O146 1.969 . S
Zn140 O147 1.965 . S
Zn140 O151 2.024 . S
Zn140 O156 1.969 . S
Zn141 O148 1.969 . S
Zn141 O154 1.969 . S
Zn141 O155 1.965 . S
Zn141 O157 2.024 . S
C142 O143 1.229 . S
C142 O151 1.058 1_455 S
O143 C142 1.229 . S
C144 O145 1.229 . S
C144 O157 1.058 . S
O145 C144 1.229 . S
O146 Zn140 1.969 . S
O146 C149 1.267 . S
O147 Zn140 1.965 . S
O147 C158 1.260 . S
O148 Zn141 1.969 . S
O148 C158 1.258 . S
C149 O146 1.267 . S
C149 O150 1.228 . S
O150 C149 1.228 . S
O151 Zn140 2.024 . S
O151 C142 1.058 1_655 S
C152 O153 1.228 . S
C152 O154 1.267 1_554 S
O153 C152 1.228 . S
O154 Zn141 1.969 . S
O154 C152 1.267 1_556 S
O155 Zn141 1.965 . S
O155 C159 1.260 . S
O156 Zn140 1.969 . S
O156 C159 1.258 . S
O157 Zn141 2.024 . S
O157 C144 1.058 . S
C158 O147 1.260 . S
C158 O148 1.258 . S
C159 O155 1.260 . S
C159 O156 1.258 . S
Zn160 O166 1.969 . S
Zn160 O167 1.965 . S
Zn160 O171 2.024 . S
Zn160 O176 1.969 . S
Zn161 O168 1.969 . S
Zn161 O174 1.969 . S
Zn161 O175 1.965 . S
Zn161 O177 2.024 . S
C162 O163 1.229 . S
C162 O171 1.058 . S
O163 C162 1.229 . S
C164 O165 1.229 . S
C164 O177 1.058 1_455 S
O165 C164 1.229 . S
O166 Zn160 1.969 . S
O166 C169 1.267 1_556 S
O167 Zn160 1.965 . S
O167 C178 1.260 . S
O168 Zn161 1.969 . S
O168 C178 1.258 . S
C169 O166 1.267 1_554 S
C169 O170 1.228 . S
O170 C169 1.228 . S
O171 Zn160 2.024 . S
O171 C162 1.058 . S
C172 O173 1.228 . S
C172 O174 1.267 . S
O173 C172 1.228 . S
O174 Zn161 1.969 . S
O174 C172 1.267 . S
O175 Zn161 1.965 . S
O175 C179 1.260 . S
O176 Zn160 1.969 . S
O176 C179 1.258 . S
O177 Zn161 2.024 . S
O177 C164 1.058 1_655 S
C178 O167 1.260 . S
C178 O168 1.258 . S
C179 O175 1.260 . S
C179 O176 1.258 . S
C180 C181 1.369 . S
C180 C182 1.419 . S
C180 H184 0.929 1_455 S
C181 C180 1.369 . S
C181 C190 1.429 . S
C182 C180 1.419 . S
C182 C183 1.363 . S
C182 H185 0.929 1_455 S
C183 C182 1.363 . S
C183 C189 1.428 . S
H184 C180 0.929 1_655 S
H185 C182 0.929 1_655 S
S186 N187 1.613 . S
S186 N188 1.610 . S
N187 S186 1.613 . S
N187 C190 1.350 . S
N188 S186 1.610 . S
N188 C189 1.351 . S
C189 C183 1.428 . S
C189 N188 1.351 . S
C189 C190 1.434 . S
C190 C181 1.429 . S
C190 N187 1.350 . S
C190 C189 1.434 . S
C191 C192 1.369 . S
C191 C193 1.419 . S
C191 H195 0.930 . S
C192 C191 1.369 . S
C192 C201 1.429 . S
C193 C191 1.419 . S
C193 C194 1.363 . S
C193 H196 0.929 . S
C194 C193 1.363 . S
C194 C200 1.428 . S
H195 C191 0.930 . S
H196 C193 0.929 . S
S197 N198 1.613 . S
S197 N199 1.610 . S
N198 S197 1.613 . S
N198 C201 1.350 . S
N199 S197 1.610 . S
N199 C200 1.351 . S
C200 C194 1.428 . S
C200 N199 1.351 . S
C200 C201 1.434 . S
C201 C192 1.429 . S
C201 N198 1.350 . S
C201 C200 1.434 . S
C202 C203 1.369 . S
C202 C204 1.419 . S
C202 H206 0.930 . S
C203 C202 1.369 . S
C203 C212 1.429 1_545 S
C204 C202 1.419 . S
C204 C205 1.363 . S
C204 H207 0.929 . S
C205 C204 1.363 . S
C205 C211 1.428 . S
H206 C202 0.930 . S
H207 C204 0.929 . S
S208 N209 1.613 . S
S208 N210 1.610 . S
N209 S208 1.613 . S
N209 C212 1.350 . S
N210 S208 1.610 . S
N210 C211 1.351 1_565 S
C211 C205 1.428 . S
C211 N210 1.351 1_545 S
C211 C212 1.434 1_545 S
C212 C203 1.429 1_565 S
C212 N209 1.350 . S
C212 C211 1.434 1_565 S
C213 C214 1.369 . S
C213 C215 1.419 . S
C213 H217 0.930 . S
C214 C213 1.369 . S
C214 C223 1.429 . S
C215 C213 1.419 . S
C215 C216 1.363 . S
C215 H218 0.929 . S
C216 C215 1.363 . S
C216 C222 1.428 . S
H217 C213 0.930 . S
H218 C215 0.929 . S
S219 N220 1.613 . S
S219 N221 1.610 . S
N220 S219 1.613 . S
N220 C223 1.350 . S
N221 S219 1.610 . S
N221 C222 1.351 . S
C222 C216 1.428 . S
C222 N221 1.351 . S
C222 C223 1.434 . S
C223 C214 1.429 . S
C223 N220 1.350 . S
C223 C222 1.434 . S
C224 C225 1.369 . S
C224 C226 1.419 . S
C224 H228 0.930 . S
C225 C224 1.369 . S
C225 C234 1.429 . S
C226 C224 1.419 . S
C226 C227 1.363 . S
C226 H229 0.929 . S
C227 C226 1.363 . S
C227 C233 1.428 . S
H228 C224 0.930 . S
H229 C226 0.929 . S
S230 N231 1.613 . S
S230 N232 1.610 . S
N231 S230 1.613 . S
N231 C234 1.350 . S
N232 S230 1.610 . S
N232 C233 1.351 . S
C233 C227 1.428 . S
C233 N232 1.351 . S
C233 C234 1.434 . S
C234 C225 1.429 . S
C234 N231 1.350 . S
C234 C233 1.434 . S
C235 C236 1.369 . S
C235 C237 1.419 . S
C235 H239 0.930 . S
C236 C235 1.369 . S
C236 C245 1.429 . S
C237 C235 1.419 . S
C237 C238 1.363 . S
C237 H240 0.929 . S
C238 C237 1.363 . S
C238 C244 1.428 . S
H239 C235 0.930 . S
H240 C237 0.929 . S
S241 N242 1.613 . S
S241 N243 1.610 . S
N242 S241 1.613 . S
N242 C245 1.350 . S
N243 S241 1.610 . S
N243 C244 1.351 . S
C244 C238 1.428 . S
C244 N243 1.351 . S
C244 C245 1.434 . S
C245 C236 1.429 . S
C245 N242 1.350 . S
C245 C244 1.434 . S
C246 C247 1.369 . S
C246 C248 1.419 . S
C246 H250 0.930 . S
C247 C246 1.369 . S
C247 C256 1.429 . S
C248 C246 1.419 . S
C248 C249 1.363 . S
C248 H251 0.929 . S
C249 C248 1.363 . S
C249 C255 1.428 . S
H250 C246 0.930 . S
H251 C248 0.929 . S
S252 N253 1.613 . S
S252 N254 1.610 . S
N253 S252 1.613 . S
N253 C256 1.350 . S
N254 S252 1.610 . S
N254 C255 1.351 . S
C255 C249 1.428 . S
C255 N254 1.351 . S
C255 C256 1.434 . S
C256 C247 1.429 . S
C256 N253 1.350 . S
C256 C255 1.434 . S
C257 C258 1.369 . S
C257 C259 1.419 . S
C257 H261 0.930 . S
C258 C257 1.369 . S
C258 C267 1.429 . S
C259 C257 1.419 . S
C259 C260 1.363 . S
C259 H262 0.929 . S
C260 C259 1.363 . S
C260 C266 1.428 . S
H261 C257 0.930 . S
H262 C259 0.929 . S
S263 N264 1.613 . S
S263 N265 1.610 1_554 S
N264 S263 1.613 . S
N264 C267 1.350 . S
N265 S263 1.610 1_556 S
N265 C266 1.351 1_556 S
C266 C260 1.428 . S
C266 N265 1.351 1_554 S
C266 C267 1.434 . S
C267 C258 1.429 . S
C267 N264 1.350 . S
C267 C266 1.434 . S
C268 C269 1.369 . S
C268 C270 1.419 . S
C268 H272 0.930 . S
C269 C268 1.369 . S
C269 C278 1.429 . S
C270 C268 1.419 . S
C270 C271 1.363 . S
C270 H273 0.929 . S
C271 C270 1.363 . S
C271 C277 1.428 . S
H272 C268 0.930 . S
H273 C270 0.929 . S
S274 N275 1.613 1_455 S
S274 N276 1.610 1_455 S
N275 S274 1.613 1_655 S
N275 C278 1.350 . S
N276 S274 1.610 1_655 S
N276 C277 1.351 . S
C277 C271 1.428 . S
C277 N276 1.351 . S
C277 C278 1.434 . S
C278 C269 1.429 . S
C278 N275 1.350 . S
C278 C277 1.434 . S
C279 C280 1.369 . S
C279 C281 1.419 . S
C279 H283 0.930 1_554 S
C280 C279 1.369 . S
C280 C289 1.429 . S
C281 C279 1.419 . S
C281 C282 1.363 . S
C281 H284 0.929 1_554 S
C282 C281 1.363 . S
C282 C288 1.428 . S
H283 C279 0.930 1_556 S
H284 C281 0.929 1_556 S
S285 N286 1.613 . S
S285 N287 1.610 . S
N286 S285 1.613 . S
N286 C289 1.350 . S
N287 S285 1.610 . S
N287 C288 1.351 . S
C288 C282 1.428 . S
C288 N287 1.351 . S
C288 C289 1.434 . S
C289 C280 1.429 . S
C289 N286 1.350 . S
C289 C288 1.434 . S
C290 C291 1.369 . S
C290 C292 1.419 . S
C290 H294 0.930 . S
C291 C290 1.369 . S
C291 C300 1.429 . S
C292 C290 1.419 . S
C292 C293 1.363 . S
C292 H295 0.929 . S
C293 C292 1.363 . S
C293 C299 1.428 . S
H294 C290 0.930 . S
H295 C292 0.929 . S
S296 N297 1.613 . S
S296 N298 1.610 . S
N297 S296 1.613 . S
N297 C300 1.350 . S
N298 S296 1.610 . S
N298 C299 1.351 . S
C299 C293 1.428 . S
C299 N298 1.351 . S
C299 C300 1.434 . S
C300 C291 1.429 . S
C300 N297 1.350 . S
C300 C299 1.434 . S
C301 C302 1.369 . S
C301 C303 1.419 . S
C301 H305 0.930 . S
C302 C301 1.369 . S
C302 C311 1.429 . S
C303 C301 1.419 . S
C303 C304 1.363 . S
C303 H306 0.929 . S
C304 C303 1.363 . S
C304 C310 1.428 . S
H305 C301 0.930 . S
H306 C303 0.929 . S
S307 N308 1.613 . S
S307 N309 1.610 . S
N308 S307 1.613 . S
N308 C311 1.350 . S
N309 S307 1.610 . S
N309 C310 1.351 . S
C310 C304 1.428 . S
C310 N309 1.351 . S
C310 C311 1.434 . S
C311 C302 1.429 . S
C311 N308 1.350 . S
C311 C310 1.434 . S
C312 C313 1.369 . S
C312 C314 1.419 1_554 S
C312 H316 0.930 . S
C313 C312 1.369 . S
C313 C322 1.429 1_554 S
C314 C312 1.419 1_556 S
C314 C315 1.363 . S
C314 H317 0.929 1_556 S
C315 C314 1.363 . S
C315 C321 1.428 . S
H316 C312 0.930 . S
H317 C314 0.929 1_554 S
S318 N319 1.613 . S
S318 N320 1.610 . S
N319 S318 1.613 . S
N319 C322 1.350 . S
N320 S318 1.610 . S
N320 C321 1.351 . S
C321 C315 1.428 . S
C321 N320 1.351 . S
C321 C322 1.434 . S
C322 C313 1.429 1_556 S
C322 N319 1.350 . S
C322 C321 1.434 . S
C323 C324 1.369 . S
C323 C325 1.419 . S
C323 H327 0.930 . S
C324 C323 1.369 . S
C324 C333 1.429 . S
C325 C323 1.419 . S
C325 C326 1.363 . S
C325 H328 0.929 1_655 S
C326 C325 1.363 . S
C326 C332 1.428 . S
H327 C323 0.930 . S
H328 C325 0.929 1_455 S
S329 N330 1.613 . S
S329 N331 1.610 . S
N330 S329 1.613 . S
N330 C333 1.350 . S
N331 S329 1.610 . S
N331 C332 1.351 . S
C332 C326 1.428 . S
C332 N331 1.351 . S
C332 C333 1.434 . S
C333 C324 1.429 . S
C333 N330 1.350 . S
C333 C332 1.434 . S
C334 C335 1.369 . S
C334 C336 1.419 . S
C334 H338 0.930 . S
C335 C334 1.369 . S
C335 C344 1.429 . S
C336 C334 1.419 . S
C336 C337 1.363 . S
C336 H339 0.929 . S
C337 C336 1.363 . S
C337 C343 1.428 1_556 S
H338 C334 0.930 . S
H339 C336 0.929 . S
S340 N341 1.613 . S
S340 N342 1.610 . S
N341 S340 1.613 . S
N341 C344 1.350 1_554 S
N342 S340 1.610 . S
N342 C343 1.351 . S
C343 C337 1.428 1_554 S
C343 N342 1.351 . S
C343 C344 1.434 1_554 S
C344 C335 1.429 . S
C344 N341 1.350 1_556 S
C344 C343 1.434 1_556 S
C345 C346 1.369 . S
C345 C347 1.419 . S
C345 H349 0.930 . S
C346 C345 1.369 . S
C346 C355 1.429 . S
C347 C345 1.419 . S
C347 C348 1.363 . S
C347 H350 0.929 1_655 S
C348 C347 1.363 . S
C348 C354 1.428 . S
H349 C345 0.930 . S
H350 C347 0.929 1_455 S
S351 N352 1.613 . S
S351 N353 1.610 . S
N352 S351 1.613 . S
N352 C355 1.350 . S
N353 S351 1.610 . S
N353 C354 1.351 . S
C354 C348 1.428 . S
C354 N353 1.351 . S
C354 C355 1.434 . S
C355 C346 1.429 . S
C355 N352 1.350 . S
C355 C354 1.434 . S
C356 C357 1.369 . S
C356 C358 1.419 . S
C356 H360 0.930 . S
C357 C356 1.369 . S
C357 C366 1.429 . S
C358 C356 1.419 . S
C358 C359 1.363 . S
C358 H361 0.929 . S
C359 C358 1.363 . S
C359 C365 1.428 . S
H360 C356 0.930 . S
H361 C358 0.929 . S
S362 N363 1.613 . S
S362 N364 1.610 . S
N363 S362 1.613 . S
N363 C366 1.350 . S
N364 S362 1.610 . S
N364 C365 1.351 . S
C365 C359 1.428 . S
C365 N364 1.351 . S
C365 C366 1.434 . S
C366 C357 1.429 . S
C366 N363 1.350 . S
C366 C365 1.434 . S
C367 C368 1.369 . S
C367 C369 1.419 1_556 S
C367 H371 0.930 . S
C368 C367 1.369 . S
C368 C377 1.429 . S
C369 C367 1.419 1_554 S
C369 C370 1.363 . S
C369 H372 0.929 . S
C370 C369 1.363 . S
C370 C376 1.428 1_554 S
H371 C367 0.930 . S
H372 C369 0.929 . S
S373 N374 1.613 . S
S373 N375 1.610 . S
N374 S373 1.613 . S
N374 C377 1.350 . S
N375 S373 1.610 . S
N375 C376 1.351 . S
C376 C370 1.428 1_556 S
C376 N375 1.351 . S
C376 C377 1.434 . S
C377 C368 1.429 . S
C377 N374 1.350 . S
C377 C376 1.434 . S
C378 C379 1.369 . S
C378 C380 1.419 . S
C378 H382 0.930 . S
C379 C378 1.369 . S
C379 C388 1.429 . S
C380 C378 1.419 . S
C380 C381 1.363 . S
C380 H383 0.929 . S
C381 C380 1.363 . S
C381 C387 1.428 . S
H382 C378 0.930 . S
H383 C380 0.929 . S
S384 N385 1.601 . S
S384 N386 1.610 1_545 S
N385 S384 1.601 . S
N385 C388 1.325 1_545 S
N386 S384 1.610 1_565 S
N386 C387 1.351 . S
C387 C381 1.428 . S
C387 N386 1.351 . S
C387 C388 1.434 . S
C388 C379 1.429 . S
C388 N385 1.325 1_565 S
C388 C387 1.434 . S
C389 C390 1.369 . S
C389 C391 1.419 . S
C389 H393 0.930 . S
C390 C389 1.369 . S
C390 C399 1.429 . S
C391 C389 1.419 . S
C391 C392 1.363 . S
C391 H394 0.929 . S
C392 C391 1.363 . S
C392 C398 1.428 . S
H393 C389 0.930 . S
H394 C391 0.929 . S
S395 N396 1.613 . S
S395 N397 1.610 . S
N396 S395 1.613 . S
N396 C399 1.350 . S
N397 S395 1.610 . S
N397 C398 1.351 . S
C398 C392 1.428 . S
C398 N397 1.351 . S
C398 C399 1.434 . S
C399 C390 1.429 . S
C399 N396 1.350 . S
C399 C398 1.434 . S
C400 C401 1.369 . S
C400 C402 1.419 . S
C400 H404 0.930 . S
C401 C400 1.369 . S
C401 C410 1.429 . S
C402 C400 1.419 . S
C402 C403 1.363 . S
C402 H405 0.929 . S
C403 C402 1.363 . S
C403 C409 1.428 . S
H404 C400 0.930 . S
H405 C402 0.929 . S
S406 N407 1.613 . S
S406 N408 1.610 . S
N407 S406 1.613 . S
N407 C410 1.350 . S
N408 S406 1.610 . S
N408 C409 1.351 . S
C409 C403 1.428 . S
C409 N408 1.351 . S
C409 C410 1.434 . S
C410 C401 1.429 . S
C410 N407 1.350 . S
C410 C409 1.434 . S
C411 C412 1.369 . S
C411 C413 1.419 . S
C411 H415 0.930 . S
C412 C411 1.369 . S
C412 C421 1.429 . S
C413 C411 1.419 . S
C413 C414 1.363 . S
C413 H416 0.929 . S
C414 C413 1.363 . S
C414 C420 1.428 . S
H415 C411 0.930 . S
H416 C413 0.929 . S
S417 N418 1.613 . S
S417 N419 1.610 . S
N418 S417 1.613 . S
N418 C421 1.350 . S
N419 S417 1.610 . S
N419 C420 1.351 . S
C420 C414 1.428 . S
C420 N419 1.351 . S
C420 C421 1.434 . S
C421 C412 1.429 . S
C421 N418 1.350 . S
C421 C420 1.434 . S
C422 C423 1.369 . S
C422 C424 1.419 . S
C422 H426 0.930 . S
C423 C422 1.369 . S
C423 C432 1.429 . S
C424 C422 1.419 . S
C424 C425 1.363 1_545 S
C424 H427 0.929 . S
C425 C424 1.363 1_565 S
C425 C431 1.428 . S
H426 C422 0.930 . S
H427 C424 0.929 . S
S428 N429 1.613 1_565 S
S428 N430 1.610 . S
N429 S428 1.613 1_545 S
N429 C432 1.350 . S
N430 S428 1.610 . S
N430 C431 1.351 . S
C431 C425 1.428 . S
C431 N430 1.351 . S
C431 C432 1.434 1_565 S
C432 C423 1.429 . S
C432 N429 1.350 . S
C432 C431 1.434 1_545 S
C433 C434 1.369 . S
C433 C435 1.419 . S
C433 H437 0.930 . S
C434 C433 1.369 . S
C434 C443 1.429 . S
C435 C433 1.419 . S
C435 C436 1.363 . S
C435 H438 0.929 . S
C436 C435 1.363 . S
C436 C442 1.428 . S
H437 C433 0.930 . S
H438 C435 0.929 . S
S439 N440 1.613 . S
S439 N441 1.610 . S
N440 S439 1.613 . S
N440 C443 1.350 . S
N441 S439 1.610 . S
N441 C442 1.351 . S
C442 C436 1.428 . S
C442 N441 1.351 . S
C442 C443 1.434 . S
C443 C434 1.429 . S
C443 N440 1.350 . S
C443 C442 1.434 . S
C444 C445 1.369 . S
C444 C446 1.419 . S
C444 H448 0.930 . S
C445 C444 1.369 . S
C445 C454 1.429 . S
C446 C444 1.419 . S
C446 C447 1.363 . S
C446 H449 0.929 . S
C447 C446 1.363 . S
C447 C453 1.428 . S
H448 C444 0.930 . S
H449 C446 0.929 . S
S450 N451 1.613 . S
S450 N452 1.610 . S
N451 S450 1.613 . S
N451 C454 1.350 . S
N452 S450 1.610 . S
N452 C453 1.351 . S
C453 C447 1.428 . S
C453 N452 1.351 . S
C453 C454 1.434 . S
C454 C445 1.429 . S
C454 N451 1.350 . S
C454 C453 1.434 . S
C455 C456 1.369 . S
C455 C457 1.419 1_565 S
C455 H459 0.930 . S
C456 C455 1.369 . S
C456 C465 1.429 1_565 S
C457 C455 1.419 1_545 S
C457 C458 1.363 . S
C457 H460 0.929 . S
C458 C457 1.363 . S
C458 C464 1.428 . S
H459 C455 0.930 . S
H460 C457 0.929 . S
S461 N462 1.613 . S
S461 N463 1.610 . S
N462 S461 1.613 . S
N462 C465 1.350 . S
N463 S461 1.610 . S
N463 C464 1.351 . S
C464 C458 1.428 . S
C464 N463 1.351 . S
C464 C465 1.434 . S
C465 C456 1.429 1_545 S
C465 N462 1.350 . S
C465 C464 1.434 . S
C466 C467 1.369 . S
C466 C468 1.419 . S
C466 H470 0.930 . S
C467 C466 1.369 . S
C467 C476 1.429 . S
C468 C466 1.419 . S
C468 C469 1.363 . S
C468 H471 0.929 . S
C469 C468 1.363 . S
C469 C475 1.428 . S
H470 C466 0.930 . S
H471 C468 0.929 . S
S472 N473 1.613 . S
S472 N474 1.610 . S
N473 S472 1.613 . S
N473 C476 1.350 . S
N474 S472 1.610 . S
N474 C475 1.351 . S
C475 C469 1.428 . S
C475 N474 1.351 . S
C475 C476 1.434 . S
C476 C467 1.429 . S
C476 N473 1.350 . S
C476 C475 1.434 . S
C181 C18 2.144 . S
C183 C19 2.139 . S
C192 C39 2.157 . S
C194 C38 2.154 . S
C203 C58 2.166 . S
C205 C59 2.162 . S
C214 C79 2.139 . S
C216 C78 2.143 1_556 S
C225 C98 2.155 . S
C227 C99 2.155 1_556 S
C236 C119 2.161 . S
C238 C118 2.167 1_556 S
C247 C132 0.618 . S
C249 C129 0.591 . S
C258 C149 0.818 . S
C260 C152 0.793 . S
C269 C172 0.826 . S
C271 C169 0.839 . S
C280 C104 1.458 . S
C282 C12 1.534 . S
C291 C24 1.431 . S
C293 C64 1.475 . S
C302 C52 1.536 . S
C304 C92 1.566 . S
C313 C44 1.265 . S
C315 C122 1.337 . S
C324 C159 1.497 . S
C326 C4 1.343 . S
C335 C162 1.384 . S
C337 C32 1.415 1_556 S
C346 C178 1.569 . S
C348 C9 1.476 . S
C357 C22 1.322 1_556 S
C359 C138 1.472 . S
C368 C144 1.395 . S
C370 C49 1.407 . S
C379 C42 1.455 . S
C381 C69 1.533 . S
C390 C82 1.435 . S
C392 C2 1.476 . S
C401 C29 1.564 . S
C403 C109 1.532 . S
C412 C179 1.566 . S
C414 C72 1.474 . S
C423 C139 1.471 . S
C425 C84 1.313 . S
C434 C142 1.399 . S
C436 C112 1.414 . S
C445 C124 1.340 . S
C447 C102 1.269 . S
C456 C62 1.341 . S
C458 C158 1.496 . S
C467 C164 1.393 . S
C469 C89 1.406 . S
