# Generated by pormake.
# Topology zga, (5)-cn, num edge types: 1
# Building blocks:
#     Node 0, Type 0, BuildingBlock: BEQFEK_clean_sbu_0, # of connection points: 5
#     Node 1, Type 0, BuildingBlock: BEQFEK_clean_sbu_0, # of connection points: 5
#     Node 2, Type 0, BuildingBlock: BEQFEK_clean_sbu_0, # of connection points: 5
#     Node 3, Type 0, BuildingBlock: BEQFEK_clean_sbu_0, # of connection points: 5
#     Node 4, Type 0, BuildingBlock: BEQFEK_clean_sbu_0, # of connection points: 5
#     Node 5, Type 0, BuildingBlock: BEQFEK_clean_sbu_0, # of connection points: 5
#     Node 6, Type 0, BuildingBlock: BEQFEK_clean_sbu_0, # of connection points: 5
#     Node 7, Type 0, BuildingBlock: BEQFEK_clean_sbu_0, # of connection points: 5
#     Node 8, Type 0, BuildingBlock: BEQFEK_clean_sbu_0, # of connection points: 5
#     Node 9, Type 0, BuildingBlock: BEQFEK_clean_sbu_0, # of connection points: 5
#     Node 10, Type 0, BuildingBlock: BEQFEK_clean_sbu_0, # of connection points: 5
#     Node 11, Type 0, BuildingBlock: BEQFEK_clean_sbu_0, # of connection points: 5
#     Node 12, Type 0, BuildingBlock: BEQFEK_clean_sbu_0, # of connection points: 5
#     Node 13, Type 0, BuildingBlock: BEQFEK_clean_sbu_0, # of connection points: 5
#     Node 14, Type 0, BuildingBlock: BEQFEK_clean_sbu_0, # of connection points: 5
#     Node 15, Type 0, BuildingBlock: BEQFEK_clean_sbu_0, # of connection points: 5
#     Edge 16, Type (0, 0), BuildingBlock: XIVTED_clean_linker_0, # of connection points: 2
#     Edge 17, Type (0, 0), BuildingBlock: XIVTED_clean_linker_0, # of connection points: 2
#     Edge 18, Type (0, 0), BuildingBlock: XIVTED_clean_linker_0, # of connection points: 2
#     Edge 19, Type (0, 0), BuildingBlock: XIVTED_clean_linker_0, # of connection points: 2
#     Edge 20, Type (0, 0), BuildingBlock: XIVTED_clean_linker_0, # of connection points: 2
#     Edge 21, Type (0, 0), BuildingBlock: XIVTED_clean_linker_0, # of connection points: 2
#     Edge 22, Type (0, 0), BuildingBlock: XIVTED_clean_linker_0, # of connection points: 2
#     Edge 23, Type (0, 0), BuildingBlock: XIVTED_clean_linker_0, # of connection points: 2
#     Edge 24, Type (0, 0), BuildingBlock: XIVTED_clean_linker_0, # of connection points: 2
#     Edge 25, Type (0, 0), BuildingBlock: XIVTED_clean_linker_0, # of connection points: 2
#     Edge 26, Type (0, 0), BuildingBlock: XIVTED_clean_linker_0, # of connection points: 2
#     Edge 27, Type (0, 0), BuildingBlock: XIVTED_clean_linker_0, # of connection points: 2
#     Edge 28, Type (0, 0), BuildingBlock: XIVTED_clean_linker_0, # of connection points: 2
#     Edge 29, Type (0, 0), BuildingBlock: XIVTED_clean_linker_0, # of connection points: 2
#     Edge 30, Type (0, 0), BuildingBlock: XIVTED_clean_linker_0, # of connection points: 2
#     Edge 31, Type (0, 0), BuildingBlock: XIVTED_clean_linker_0, # of connection points: 2
#     Edge 32, Type (0, 0), BuildingBlock: XIVTED_clean_linker_0, # of connection points: 2
#     Edge 33, Type (0, 0), BuildingBlock: XIVTED_clean_linker_0, # of connection points: 2
#     Edge 34, Type (0, 0), BuildingBlock: XIVTED_clean_linker_0, # of connection points: 2
#     Edge 35, Type (0, 0), BuildingBlock: XIVTED_clean_linker_0, # of connection points: 2
#     Edge 36, Type (0, 0), BuildingBlock: XIVTED_clean_linker_0, # of connection points: 2
#     Edge 37, Type (0, 0), BuildingBlock: XIVTED_clean_linker_0, # of connection points: 2
#     Edge 38, Type (0, 0), BuildingBlock: XIVTED_clean_linker_0, # of connection points: 2
#     Edge 39, Type (0, 0), BuildingBlock: XIVTED_clean_linker_0, # of connection points: 2
#     Edge 40, Type (0, 0), BuildingBlock: XIVTED_clean_linker_0, # of connection points: 2
#     Edge 41, Type (0, 0), BuildingBlock: XIVTED_clean_linker_0, # of connection points: 2
#     Edge 42, Type (0, 0), BuildingBlock: XIVTED_clean_linker_0, # of connection points: 2
#     Edge 43, Type (0, 0), BuildingBlock: XIVTED_clean_linker_0, # of connection points: 2
#     Edge 44, Type (0, 0), BuildingBlock: XIVTED_clean_linker_0, # of connection points: 2
#     Edge 45, Type (0, 0), BuildingBlock: XIVTED_clean_linker_0, # of connection points: 2
#     Edge 46, Type (0, 0), BuildingBlock: XIVTED_clean_linker_0, # of connection points: 2
#     Edge 47, Type (0, 0), BuildingBlock: XIVTED_clean_linker_0, # of connection points: 2
#     Edge 48, Type (0, 0), BuildingBlock: XIVTED_clean_linker_0, # of connection points: 2
#     Edge 49, Type (0, 0), BuildingBlock: XIVTED_clean_linker_0, # of connection points: 2
#     Edge 50, Type (0, 0), BuildingBlock: XIVTED_clean_linker_0, # of connection points: 2
#     Edge 51, Type (0, 0), BuildingBlock: XIVTED_clean_linker_0, # of connection points: 2
#     Edge 52, Type (0, 0), BuildingBlock: XIVTED_clean_linker_0, # of connection points: 2
#     Edge 53, Type (0, 0), BuildingBlock: XIVTED_clean_linker_0, # of connection points: 2
#     Edge 54, Type (0, 0), BuildingBlock: XIVTED_clean_linker_0, # of connection points: 2
#     Edge 55, Type (0, 0), BuildingBlock: XIVTED_clean_linker_0, # of connection points: 2
# Relax obj value: 0.161
# Max RMSD: 0.223
# Mean RMSD: 0.180
data_MOF--net-zga--node1-BEQFEK_clean_sbu_0--edge1-XIVTED_clean_linker_0
_symmetry_space_group_name_H-M    P1
_symmetry_Int_Tables_number       1
_symmetry_cell_setting            triclinic
loop_
_symmetry_equiv_pos_as_xyz
'x, y, z'
_cell_length_a     53.207059
_cell_length_b     89.81981
_cell_length_c     19.131864
_cell_angle_alpha  91.058175
_cell_angle_beta   90.06362
_cell_angle_gamma 101.26928
loop_
_atom_site_label
_atom_site_type_symbol
_atom_site_fract_x
_atom_site_fract_y
_atom_site_fract_z
_atom_type_partial_charge
Co0 Co 0.08314 0.54056 0.04488 0.0
Co1 Co 0.06315 0.53849 0.19857 0.0
C2 C 0.08176 0.56848 0.12986 0.0
O3 O 0.08688 0.56202 0.07341 0.0
O4 O 0.07263 0.56078 0.18251 0.0
C5 C 0.10525 0.55053 0.9125 0.0
O6 O 0.10849 0.56418 0.94108 0.0
C7 C 0.06926 0.54266 0.34924 0.0
C8 C 0.03856 0.5246 0.38886 0.0
C9 C 0.05911 0.53578 0.41008 0.0
N10 N 0.05552 0.53572 0.29482 0.0
N11 N 0.03691 0.52513 0.3188 0.0
C12 C 0.09328 0.55436 0.34155 0.0
H13 H 0.10122 0.55378 0.28818 0.0
H14 H 0.10785 0.55275 0.38076 0.0
H15 H 0.08877 0.56581 0.35001 0.0
C16 C 0.11894 0.52252 0.10247 0.0
N17 N 0.09923 0.5298 0.10931 0.0
N18 N 0.09038 0.52834 0.17354 0.0
C19 C 0.1039 0.51969 0.20926 0.0
C20 C 0.12253 0.51583 0.16552 0.0
C21 C 0.13348 0.52175 0.03605 0.0
H22 H 0.11995 0.51674 0.99387 0.0
H23 H 0.1424 0.53343 0.02045 0.0
H24 H 0.14848 0.51483 0.0415 0.0
O25 O 0.0464 0.53149 0.03649 0.0
O26 O 0.03163 0.52976 0.14491 0.0
H27 H 0.07908 0.51199 0.29488 0.0
H28 H 0.10991 0.5066 0.29999 0.0
C29 C 0.09981 0.51571 0.2846 0.0
H30 H 0.10732 0.52586 0.31763 0.0
H31 H 0.02379 0.51783 0.28715 0.0
O32 O 0.09654 0.53905 0.94935 0.0
C33 C 0.02809 0.52779 0.07931 0.0
Co34 Co 0.1471 0.70977 0.21854 0.0
Co35 Co 0.12954 0.71175 0.06392 0.0
C36 C 0.12108 0.68217 0.13955 0.0
O37 O 0.13126 0.68857 0.1953 0.0
O38 O 0.11922 0.68976 0.08482 0.0
C39 C 0.16261 0.69913 0.34965 0.0
O40 O 0.15606 0.68558 0.32038 0.0
C41 C 0.133 0.70638 0.91405 0.0
C42 C 0.11637 0.72499 0.8709 0.0
C43 C 0.12848 0.71319 0.85198 0.0
N44 N 0.12432 0.71399 0.96697 0.0
N45 N 0.11395 0.7249 0.94086 0.0
C46 C 0.14788 0.69406 0.92433 0.0
H47 H 0.15519 0.69435 0.97878 0.0
H48 H 0.16411 0.6952 0.88716 0.0
H49 H 0.13508 0.68289 0.91447 0.0
C50 C 0.19784 0.72208 0.15585 0.0
N51 N 0.17224 0.71735 0.15148 0.0
N52 N 0.16464 0.71904 0.08714 0.0
C53 C 0.18508 0.72547 0.04914 0.0
C54 C 0.20686 0.72731 0.09089 0.0
C55 C 0.21323 0.72094 0.22032 0.0
H56 H 0.20554 0.71014 0.24692 0.0
H57 H 0.23374 0.72145 0.20788 0.0
H58 H 0.21154 0.73045 0.25675 0.0
O59 O 0.12046 0.72247 0.22402 0.0
O60 O 0.10791 0.72385 0.11423 0.0
H61 H 0.19969 0.74093 0.96688 0.0
H62 H 0.18474 0.72214 0.93806 0.0
C63 C 0.18359 0.73132 0.97672 0.0
H64 H 0.16538 0.7353 0.96927 0.0
H65 H 0.1063 0.73273 0.97102 0.0
O66 O 0.16174 0.71079 0.31382 0.0
C67 C 0.10651 0.72723 0.17876 0.0
Co68 Co 0.81471 0.44572 0.93279 0.0
Co69 Co 0.83373 0.45057 0.77968 0.0
C70 C 0.836 0.42192 0.85704 0.0
O71 O 0.82554 0.42631 0.91144 0.0
O72 O 0.84004 0.43019 0.80331 0.0
C73 C 0.79399 0.43388 0.06495 0.0
O74 O 0.79383 0.42027 0.0384 0.0
C75 C 0.83103 0.44456 0.62862 0.0
C76 C 0.84879 0.46709 0.58871 0.0
C77 C 0.83599 0.45275 0.56752 0.0
N78 N 0.83965 0.45386 0.683 0.0
N79 N 0.85071 0.4672 0.65874 0.0
C80 C 0.8182 0.42828 0.63612 0.0
H81 H 0.82538 0.42342 0.683 0.0
H82 H 0.79727 0.42752 0.6424 0.0
H83 H 0.82174 0.42144 0.58959 0.0
C84 C 0.76852 0.45437 0.87296 0.0
N85 N 0.79172 0.45062 0.86615 0.0
N86 N 0.79976 0.45297 0.80159 0.0
C87 C 0.78189 0.45841 0.76519 0.0
C88 C 0.76156 0.4595 0.80917 0.0
C89 C 0.75505 0.45482 0.94134 0.0
H90 H 0.76727 0.46299 0.97743 0.0
H91 H 0.75222 0.44346 0.96525 0.0
H92 H 0.73625 0.45824 0.93517 0.0
O93 O 0.84563 0.46189 0.93967 0.0
O94 O 0.85923 0.46589 0.83099 0.0
H95 H 0.80221 0.47198 0.68476 0.0
H96 H 0.76788 0.46762 0.67178 0.0
C97 C 0.78464 0.46316 0.69054 0.0
H98 H 0.78634 0.45324 0.65712 0.0
H99 H 0.85856 0.47657 0.69019 0.0
O100 O 0.80038 0.44541 0.02689 0.0
C101 C 0.86152 0.4689 0.8962 0.0
Co102 Co 0.92405 0.30316 0.9658 0.0
Co103 Co 0.90476 0.29615 0.81205 0.0
C104 C 0.90733 0.32685 0.88049 0.0
O105 O 0.91613 0.32286 0.93761 0.0
O106 O 0.90261 0.31769 0.82847 0.0
C107 C 0.93904 0.31616 0.10156 0.0
O108 O 0.93263 0.32844 0.0767 0.0
C109 C 0.91115 0.30037 0.66314 0.0
C110 C 0.8863 0.27986 0.61775 0.0
C111 C 0.90356 0.29291 0.6003 0.0
N112 N 0.89904 0.29208 0.71515 0.0
N113 N 0.88395 0.27993 0.68783 0.0
C114 C 0.93145 0.31428 0.67484 0.0
H115 H 0.9394 0.31453 0.72859 0.0
H116 H 0.94709 0.3147 0.63615 0.0
H117 H 0.92286 0.32449 0.66864 0.0
C118 C 0.96904 0.29208 0.90926 0.0
N119 N 0.94593 0.29587 0.90166 0.0
N120 N 0.93728 0.29214 0.83804 0.0
C121 C 0.95436 0.2855 0.80353 0.0
C122 C 0.97523 0.2854 0.84717 0.0
C123 C 0.98467 0.29482 0.97494 0.0
H124 H 0.98307 0.30596 -0.00129 0.0
H125 H 0.00513 0.29463 0.96462 0.0
H126 H 0.97708 0.28587 0.01284 0.0
O127 O 0.89134 0.28834 0.97366 0.0
O128 O 0.87692 0.2835 0.865 0.0
H129 H 0.96097 0.2688 0.72605 0.0
H130 H 0.95435 0.28619 0.69186 0.0
C131 C 0.94939 0.27771 0.73354 0.0
H132 H 0.92889 0.27231 0.72846 0.0
H133 H 0.87271 0.27145 0.71711 0.0
O134 O 0.93837 0.30466 0.06144 0.0
C135 C 0.87446 0.28161 0.9306 0.0
Co136 Co 0.08276 0.04001 0.55288 0.0
Co137 Co 0.06209 0.03842 0.70586 0.0
C138 C 0.08196 0.06818 0.63566 0.0
O139 O 0.08722 0.06159 0.57972 0.0
O140 O 0.0723 0.06061 0.68813 0.0
C141 C 0.10511 0.04917 0.41993 0.0
O142 O 0.10887 0.06292 0.44764 0.0
C143 C 0.06972 0.0427 0.8556 0.0
C144 C 0.03687 0.02654 0.8983 0.0
C145 C 0.05906 0.03667 0.91753 0.0
N146 N 0.05467 0.0363 0.80246 0.0
N147 N 0.03484 0.02684 0.82824 0.0
C148 C 0.09515 0.05301 0.84566 0.0
H149 H 0.10218 0.05183 0.79164 0.0
H150 H 0.10942 0.05048 0.88376 0.0
H151 H 0.09297 0.06494 0.85423 0.0
C152 C 0.11789 0.02179 0.61342 0.0
N153 N 0.09838 0.02928 0.61864 0.0
N154 N 0.08894 0.02791 0.68225 0.0
C155 C 0.10175 0.01908 0.71904 0.0
C156 C 0.12072 0.01507 0.67701 0.0
C157 C 0.13409 0.02173 0.54958 0.0
H158 H 0.13694 0.03297 0.52451 0.0
H159 H 0.15302 0.01903 0.56246 0.0
H160 H 0.12403 0.01308 0.51168 0.0
O161 O 0.0458 0.03131 0.54475 0.0
O162 O 0.03052 0.02974 0.65268 0.0
H163 H 0.07358 0.01137 0.79745 0.0
H164 H 0.10131 0.00268 0.80053 0.0
C165 C 0.09464 0.01342 0.79089 0.0
H166 H 0.10375 0.02202 0.83022 0.0
H167 H 0.0205 0.02013 0.79785 0.0
O168 O 0.09598 0.03789 0.45749 0.0
C169 C 0.02724 0.02777 0.58701 0.0
Co170 Co 0.14917 0.20932 0.73991 0.0
Co171 Co 0.1318 0.21161 0.58524 0.0
C172 C 0.12344 0.18186 0.65939 0.0
O173 O 0.13349 0.18816 0.7155 0.0
O174 O 0.12162 0.18955 0.60495 0.0
C175 C 0.16442 0.19849 0.87106 0.0
O176 O 0.158 0.18496 0.84146 0.0
C177 C 0.13534 0.20673 0.43485 0.0
C178 C 0.11888 0.22557 0.39335 0.0
C179 C 0.13092 0.2138 0.37341 0.0
N180 N 0.12667 0.21415 0.48843 0.0
N181 N 0.11639 0.2252 0.46327 0.0
C182 C 0.15013 0.19432 0.44398 0.0
H183 H 0.15743 0.1944 0.49837 0.0
H184 H 0.16636 0.19557 0.40676 0.0
H185 H 0.13726 0.18322 0.43331 0.0
C186 C 0.19997 0.22184 0.67803 0.0
N187 N 0.17437 0.21711 0.67338 0.0
N188 N 0.16685 0.21893 0.60908 0.0
C189 C 0.18733 0.22543 0.57142 0.0
C190 C 0.20906 0.22718 0.61331 0.0
C191 C 0.2153 0.22058 0.74249 0.0
H192 H 0.21352 0.23001 0.77932 0.0
H193 H 0.20761 0.20973 0.76859 0.0
H194 H 0.23583 0.22116 0.73015 0.0
O195 O 0.12239 0.22189 0.74585 0.0
O196 O 0.10995 0.2235 0.63612 0.0
H197 H 0.16776 0.23543 0.49186 0.0
H198 H 0.20208 0.241 0.48971 0.0
C199 C 0.18593 0.23139 0.4992 0.0
H200 H 0.18706 0.22227 0.46025 0.0
H201 H 0.10878 0.23294 0.49409 0.0
O202 O 0.16361 0.21018 0.83536 0.0
C203 C 0.10843 0.2267 0.70079 0.0
Co204 Co 0.81468 0.94565 0.42542 0.0
Co205 Co 0.83485 0.95249 0.2744 0.0
C206 C 0.83673 0.92297 0.34633 0.0
O207 O 0.82429 0.92608 0.39963 0.0
O208 O 0.84236 0.93229 0.29683 0.0
C209 C 0.79591 0.93354 0.55922 0.0
O210 O 0.79702 0.92005 0.53321 0.0
C211 C 0.83257 0.94696 0.12294 0.0
C212 C 0.85084 0.96951 0.08425 0.0
C213 C 0.83806 0.95522 0.06217 0.0
N214 N 0.84095 0.95615 0.17789 0.0
N215 N 0.85226 0.96951 0.15438 0.0
C216 C 0.81949 0.9307 0.12962 0.0
H217 H 0.82579 0.92583 0.17767 0.0
H218 H 0.79849 0.93001 0.13315 0.0
H219 H 0.82372 0.92384 0.08387 0.0
C220 C 0.76883 0.95499 0.3668 0.0
N221 N 0.79214 0.95139 0.35987 0.0
N222 N 0.8006 0.95441 0.29613 0.0
C223 C 0.78293 0.96017 0.26045 0.0
C224 C 0.76226 0.96075 0.304 0.0
C225 C 0.75483 0.95462 0.43471 0.0
H226 H 0.76648 0.96266 0.47244 0.0
H227 H 0.75247 0.94308 0.4567 0.0
H228 H 0.7358 0.95773 0.42852 0.0
O229 O 0.84623 0.96152 0.43475 0.0
O230 O 0.85951 0.96773 0.32756 0.0
H231 H 0.80382 0.97451 0.18339 0.0
H232 H 0.76956 0.97029 0.16859 0.0
C233 C 0.78618 0.96565 0.18695 0.0
H234 H 0.78812 0.95605 0.15171 0.0
H235 H 0.86007 0.9788 0.18634 0.0
O236 O 0.80051 0.94501 0.52012 0.0
C237 C 0.86187 0.9695 0.3935 0.0
Co238 Co 0.92207 0.80414 0.43874 0.0
Co239 Co 0.90189 0.79539 0.28683 0.0
C240 C 0.90295 0.82645 0.35214 0.0
O241 O 0.91413 0.82366 0.40788 0.0
O242 O 0.89714 0.8165 0.30354 0.0
C243 C 0.93379 0.81691 0.57588 0.0
O244 O 0.92414 0.8282 0.5518 0.0
C245 C 0.90793 0.79966 0.13781 0.0
C246 C 0.88419 0.77879 0.09235 0.0
C247 C 0.90071 0.79213 0.0749 0.0
N248 N 0.89633 0.79116 0.18983 0.0
N249 N 0.8819 0.77877 0.16246 0.0
C250 C 0.92746 0.81393 0.14953 0.0
H251 H 0.93543 0.81437 0.20332 0.0
H252 H 0.94318 0.8147 0.11087 0.0
H253 H 0.91814 0.82385 0.14328 0.0
C254 C 0.96743 0.79335 0.38291 0.0
N255 N 0.94402 0.79673 0.37535 0.0
N256 N 0.93516 0.79249 0.31241 0.0
C257 C 0.95243 0.78592 0.27835 0.0
C258 C 0.97361 0.78639 0.32152 0.0
C259 C 0.98329 0.79665 0.448 0.0
H260 H 0.9763 0.78778 0.48683 0.0
H261 H 0.98118 0.80778 0.4709 0.0
H262 H 0.00382 0.79678 0.43719 0.0
O263 O 0.88943 0.78909 0.44802 0.0
O264 O 0.87541 0.78212 0.34065 0.0
H265 H 0.92695 0.77184 0.20617 0.0
H266 H 0.95935 0.76888 0.20292 0.0
C267 C 0.94732 0.77758 0.20965 0.0
H268 H 0.95154 0.78578 0.16661 0.0
H269 H 0.87114 0.7701 0.19172 0.0
O270 O 0.93639 0.80607 0.53462 0.0
C271 C 0.87302 0.78123 0.40671 0.0
Co272 Co 0.58338 0.53898 0.55624 0.0
Co273 Co 0.56301 0.53689 0.7095 0.0
C274 C 0.58413 0.56686 0.6433 0.0
O275 O 0.58882 0.56036 0.58654 0.0
O276 O 0.57415 0.55921 0.69521 0.0
C277 C 0.60499 0.5488 0.42331 0.0
O278 O 0.60793 0.56248 0.45146 0.0
C279 C 0.56908 0.54075 0.86015 0.0
C280 C 0.53765 0.52311 0.89946 0.0
C281 C 0.55857 0.534 0.92087 0.0
N282 N 0.55516 0.53403 0.80559 0.0
N283 N 0.53614 0.52368 0.82937 0.0
C284 C 0.59355 0.55211 0.85274 0.0
H285 H 0.60164 0.55129 0.7997 0.0
H286 H 0.60781 0.55033 0.89253 0.0
H287 H 0.58956 0.5637 0.86042 0.0
C288 C 0.61768 0.51996 0.61288 0.0
N289 N 0.59836 0.52753 0.6199 0.0
N290 N 0.58941 0.5261 0.68404 0.0
C291 C 0.60251 0.51718 0.71954 0.0
C292 C 0.62095 0.51311 0.67572 0.0
C293 C 0.63239 0.51924 0.54671 0.0
H294 H 0.61888 0.51467 0.50377 0.0
H295 H 0.64197 0.5309 0.5325 0.0
H296 H 0.64688 0.51196 0.55173 0.0
O297 O 0.5464 0.53081 0.54709 0.0
O298 O 0.5312 0.52893 0.65503 0.0
H299 H 0.57763 0.50991 0.80559 0.0
H300 H 0.60795 0.50388 0.80999 0.0
C301 C 0.5984 0.51325 0.79493 0.0
H302 H 0.60649 0.52331 0.82789 0.0
H303 H 0.52278 0.51658 0.79757 0.0
O304 O 0.59667 0.53735 0.46064 0.0
C305 C 0.52782 0.5273 0.58921 0.0
Co306 Co 0.64924 0.70978 0.73979 0.0
Co307 Co 0.63096 0.70945 0.58505 0.0
C308 C 0.62616 0.6807 0.66225 0.0
O309 O 0.63565 0.68789 0.71726 0.0
O310 O 0.62326 0.68763 0.60618 0.0
C311 C 0.66706 0.70072 0.87192 0.0
O312 O 0.66376 0.68698 0.84424 0.0
C313 C 0.6264 0.70404 0.43266 0.0
C314 C 0.62458 0.72714 0.39806 0.0
C315 C 0.62673 0.71283 0.37352 0.0
N316 N 0.6253 0.71297 0.48925 0.0
N317 N 0.6235 0.72664 0.46812 0.0
C318 C 0.62675 0.68746 0.43624 0.0
H319 H 0.61279 0.68223 0.47591 0.0
H320 H 0.64606 0.6859 0.4526 0.0
H321 H 0.62149 0.68157 0.38529 0.0
C322 C 0.69829 0.72533 0.6771 0.0
N323 N 0.67341 0.71846 0.67287 0.0
N324 N 0.66596 0.7177 0.60713 0.0
C325 C 0.68614 0.72357 0.56704 0.0
C326 C 0.70718 0.72887 0.60997 0.0
C327 C 0.71267 0.72894 0.74446 0.0
H328 H 0.70011 0.73278 0.78437 0.0
H329 H 0.71841 0.7185 0.7636 0.0
H330 H 0.73006 0.73789 0.73789 0.0
O331 O 0.6213 0.72123 0.74591 0.0
O332 O 0.60728 0.7202 0.63662 0.0
H333 H 0.67632 0.73149 0.4678 0.0
H334 H 0.70575 0.72436 0.46736 0.0
C335 C 0.68607 0.72268 0.4888 0.0
H336 H 0.67571 0.71135 0.47104 0.0
H337 H 0.62297 0.73585 0.50175 0.0
O338 O 0.66388 0.7117 0.8343 0.0
C339 C 0.60592 0.72435 0.70016 0.0
Co340 Co 0.31418 0.44708 0.42842 0.0
Co341 Co 0.33415 0.45231 0.2762 0.0
C342 C 0.33462 0.42312 0.35172 0.0
O343 O 0.32405 0.42742 0.40614 0.0
O344 O 0.3394 0.43164 0.29902 0.0
C345 C 0.29395 0.43548 0.56145 0.0
O346 O 0.29428 0.42186 0.53579 0.0
C347 C 0.33137 0.44647 0.12507 0.0
C348 C 0.35026 0.46881 0.08537 0.0
C349 C 0.33676 0.45464 0.06403 0.0
N350 N 0.34041 0.45563 0.17956 0.0
N351 N 0.35215 0.46885 0.15542 0.0
C352 C 0.31769 0.43034 0.13237 0.0
H353 H 0.32452 0.42527 0.17912 0.0
H354 H 0.29687 0.43 0.1387 0.0
H355 H 0.32083 0.42341 0.08576 0.0
C356 C 0.2688 0.45657 0.36774 0.0
N357 N 0.29185 0.45261 0.36149 0.0
N358 N 0.30035 0.45517 0.29745 0.0
C359 C 0.28295 0.46098 0.26089 0.0
C360 C 0.26243 0.46208 0.30416 0.0
C361 C 0.25485 0.45676 0.43551 0.0
H362 H 0.26681 0.46481 0.47258 0.0
H363 H 0.25191 0.44531 0.45862 0.0
H364 H 0.23609 0.46018 0.42872 0.0
O365 O 0.34566 0.4628 0.43672 0.0
O366 O 0.35996 0.46723 0.32893 0.0
H367 H 0.30428 0.47448 0.18175 0.0
H368 H 0.27 0.47091 0.16789 0.0
C369 C 0.28625 0.46598 0.18665 0.0
H370 H 0.28741 0.45606 0.15257 0.0
H371 H 0.36044 0.47811 0.18697 0.0
O372 O 0.29969 0.4469 0.52243 0.0
C373 C 0.36198 0.46988 0.39449 0.0
Co374 Co 0.42383 0.30469 0.45393 0.0
Co375 Co 0.40354 0.29666 0.30155 0.0
C376 C 0.40478 0.3275 0.36938 0.0
O377 O 0.41501 0.32405 0.42545 0.0
O378 O 0.39961 0.31801 0.31864 0.0
C379 C 0.4369 0.31753 0.59061 0.0
O380 O 0.42855 0.32926 0.56626 0.0
C381 C 0.40929 0.30096 0.1524 0.0
C382 C 0.38512 0.28019 0.10732 0.0
C383 C 0.40184 0.29344 0.0896 0.0
N384 N 0.39764 0.29254 0.2046 0.0
N385 N 0.38294 0.28022 0.17746 0.0
C386 C 0.4291 0.31512 0.16383 0.0
H387 H 0.43708 0.31555 0.21761 0.0
H388 H 0.44478 0.31573 0.12516 0.0
H389 H 0.42003 0.32514 0.15735 0.0
C390 C 0.46896 0.29392 0.39628 0.0
N391 N 0.44573 0.29758 0.38914 0.0
N392 N 0.43679 0.29358 0.32602 0.0
C393 C 0.45381 0.28691 0.29141 0.0
C394 C 0.47492 0.28704 0.33444 0.0
C395 C 0.48473 0.29675 0.46167 0.0
H396 H 0.48303 0.30787 0.48549 0.0
H397 H 0.50519 0.29664 0.45094 0.0
H398 H 0.47734 0.28778 0.4997 0.0
O399 O 0.39157 0.28961 0.46285 0.0
O400 O 0.37719 0.28303 0.35555 0.0
H401 H 0.46019 0.26986 0.21526 0.0
H402 H 0.45268 0.28691 0.17969 0.0
C403 C 0.44839 0.27867 0.22256 0.0
H404 H 0.42795 0.27305 0.21933 0.0
H405 H 0.3721 0.27161 0.20688 0.0
O406 O 0.4383 0.30643 0.54965 0.0
C407 C 0.37507 0.28184 0.42161 0.0
Co408 Co 0.58176 0.03924 0.0546 0.0
Co409 Co 0.5624 0.03736 0.2087 0.0
C410 C 0.58184 0.06726 0.14008 0.0
O411 O 0.58641 0.06072 0.08334 0.0
O412 O 0.57266 0.05964 0.1929 0.0
C413 C 0.60446 0.04897 0.92246 0.0
O414 O 0.60859 0.06262 0.95128 0.0
C415 C 0.56898 0.0414 0.35925 0.0
C416 C 0.53798 0.02356 0.39916 0.0
C417 C 0.5588 0.03457 0.42014 0.0
N418 N 0.55499 0.03459 0.30499 0.0
N419 N 0.53621 0.02413 0.32914 0.0
C420 C 0.59321 0.05293 0.35132 0.0
H421 H 0.60105 0.05227 0.29787 0.0
H422 H 0.60775 0.05119 0.39039 0.0
H423 H 0.589 0.06445 0.35979 0.0
C424 C 0.61717 0.02081 0.1108 0.0
N425 N 0.59766 0.02823 0.1183 0.0
N426 N 0.58908 0.02684 0.1828 0.0
C427 C 0.60258 0.0181 0.21806 0.0
C428 C 0.62092 0.01411 0.1737 0.0
C429 C 0.63151 0.02001 0.04404 0.0
H430 H 0.61781 0.01513 0.002 0.0
H431 H 0.64062 0.03167 0.02862 0.0
H432 H 0.64634 0.01296 0.04894 0.0
O433 O 0.54483 0.03057 0.04699 0.0
O434 O 0.53051 0.02899 0.15586 0.0
H435 H 0.57813 0.01072 0.30482 0.0
H436 H 0.6087 0.00496 0.30846 0.0
C437 C 0.59884 0.01421 0.29359 0.0
H438 H 0.60684 0.02433 0.32625 0.0
H439 H 0.52288 0.01695 0.29762 0.0
O440 O 0.59488 0.0376 0.95895 0.0
C441 C 0.52664 0.02707 0.09036 0.0
Co442 Co 0.64739 0.20898 0.24455 0.0
Co443 Co 0.63056 0.21053 0.08892 0.0
C444 C 0.62306 0.18103 0.16274 0.0
O445 O 0.63286 0.18761 0.2186 0.0
O446 O 0.62086 0.18852 0.10795 0.0
C447 C 0.66262 0.19787 0.37492 0.0
O448 O 0.6566 0.18443 0.34435 0.0
C449 C 0.63096 0.20541 0.93717 0.0
C450 C 0.62018 0.22645 0.8996 0.0
C451 C 0.62822 0.2134 0.87706 0.0
N452 N 0.62535 0.2136 0.99249 0.0
N453 N 0.61832 0.22596 0.9696 0.0
C454 C 0.64181 0.19131 0.94317 0.0
H455 H 0.64966 0.19049 -0.00361 0.0
H456 H 0.65715 0.19116 0.90405 0.0
H457 H 0.62635 0.18126 0.93322 0.0
C458 C 0.69737 0.22428 0.18659 0.0
N459 N 0.67246 0.2177 0.17944 0.0
N460 N 0.66552 0.21824 0.11361 0.0
C461 C 0.68591 0.22516 0.07662 0.0
C462 C 0.70672 0.22929 0.12163 0.0
C463 C 0.71127 0.22645 0.25517 0.0
H464 H 0.69953 0.23124 0.29433 0.0
H465 H 0.71387 0.21523 0.27402 0.0
H466 H 0.73023 0.23411 0.25087 0.0
O467 O 0.61994 0.22091 0.25062 0.0
O468 O 0.60808 0.22215 0.14015 0.0
H469 H 0.67149 0.234 0.98483 0.0
H470 H 0.70475 0.23243 0.97833 0.0
C471 C 0.68578 0.22708 -0.001 0.0
H472 H 0.68044 0.2158 0.97331 0.0
H473 H 0.61356 0.23445 0.00204 0.0
O474 O 0.66161 0.20965 0.34007 0.0
C475 C 0.60602 0.22542 0.20462 0.0
Co476 Co 0.31358 0.94637 0.93223 0.0
Co477 Co 0.33229 0.95241 0.77994 0.0
C478 C 0.33463 0.92312 0.85311 0.0
O479 O 0.3242 0.92706 0.90847 0.0
O480 O 0.33866 0.93183 0.80084 0.0
C481 C 0.29289 0.93424 0.06445 0.0
O482 O 0.29227 0.92063 0.0374 0.0
C483 C 0.32626 0.94698 0.62993 0.0
C484 C 0.34993 0.96787 0.58812 0.0
C485 C 0.33338 0.95453 0.56793 0.0
N486 N 0.33764 0.95567 0.68334 0.0
N487 N 0.352 0.96805 0.6581 0.0
C488 C 0.3092 0.93182 0.63977 0.0
H489 H 0.31209 0.92736 0.69206 0.0
H490 H 0.28887 0.93298 0.63604 0.0
H491 H 0.31304 0.92359 0.59908 0.0
C492 C 0.26662 0.95451 0.87405 0.0
N493 N 0.29029 0.95148 0.86685 0.0
N494 N 0.2985 0.95473 0.80313 0.0
C495 C 0.28048 0.96032 0.76803 0.0
C496 C 0.25955 0.9602 0.81154 0.0
C497 C 0.25156 0.95239 0.94031 0.0
H498 H 0.25951 0.96168 0.9779 0.0
H499 H 0.25338 0.94148 0.96401 0.0
H500 H 0.23101 0.95248 0.93082 0.0
O501 O 0.34472 0.96253 0.93969 0.0
O502 O 0.35793 0.9675 0.83134 0.0
H503 H 0.30485 0.97386 0.69414 0.0
H504 H 0.27203 0.97607 0.69103 0.0
C505 C 0.28472 0.96779 0.6985 0.0
H506 H 0.28063 0.95902 0.6563 0.0
H507 H 0.3626 0.97679 0.68874 0.0
O508 O 0.29959 0.94581 0.02678 0.0
C509 C 0.36044 0.96995 0.8969 0.0
Co510 Co 0.42414 0.80469 0.94698 0.0
Co511 Co 0.40447 0.79744 0.79385 0.0
C512 C 0.40662 0.82814 0.86119 0.0
O513 O 0.41655 0.82435 0.91703 0.0
O514 O 0.40106 0.81881 0.81009 0.0
C515 C 0.43524 0.81751 0.08316 0.0
O516 O 0.42455 0.82835 0.05856 0.0
C517 C 0.40712 0.80205 0.64447 0.0
C518 C 0.38742 0.77984 0.60114 0.0
C519 C 0.40076 0.79404 0.58228 0.0
N520 N 0.39815 0.79297 0.69748 0.0
N521 N 0.38602 0.7798 0.67141 0.0
C522 C 0.42436 0.81726 0.65441 0.0
H523 H 0.43374 0.81813 0.70655 0.0
H524 H 0.43926 0.81919 0.61324 0.0
H525 H 0.41277 0.82624 0.65116 0.0
C526 C 0.46712 0.79133 0.89321 0.0
N527 N 0.44546 0.79671 0.88359 0.0
N528 N 0.43755 0.79397 0.81862 0.0
C529 C 0.45423 0.78697 0.78432 0.0
C530 C 0.47337 0.78489 0.83053 0.0
C531 C 0.47937 0.79068 0.96327 0.0
H532 H 0.46459 0.78555 0.00125 0.0
H533 H 0.48741 0.80241 0.98206 0.0
H534 H 0.49477 0.78397 0.96163 0.0
O535 O 0.39145 0.79022 0.95649 0.0
O536 O 0.37758 0.7841 0.84834 0.0
H537 H 0.43422 0.77333 0.70111 0.0
H538 H 0.46862 0.77785 0.68965 0.0
C539 C 0.45172 0.7822 0.70879 0.0
H540 H 0.45 0.79209 0.67691 0.0
H541 H 0.37765 0.77059 0.70162 0.0
O542 O 0.43875 0.8068 0.04235 0.0
C543 C 0.37497 0.78278 0.91428 0.0
H544 H 0.211 0.45054 0.30826 0.0
H545 H 0.17382 0.52658 0.16154 0.0
H546 H 0.2659 0.49133 0.26563 0.0
H547 H 0.11772 0.48686 0.21224 0.0
H548 H 0.20789 0.51358 0.19813 0.0
H549 H 0.17627 0.46349 0.27465 0.0
C550 C 0.21562 0.46226 0.29223 0.0
C551 C 0.24117 0.46991 0.28898 0.0
C552 C 0.18816 0.50766 0.20134 0.0
C553 C 0.20193 0.48471 0.25014 0.0
C554 C 0.16879 0.51506 0.18012 0.0
C555 C 0.14311 0.50774 0.18431 0.0
C556 C 0.18173 0.49281 0.22673 0.0
C557 C 0.13739 0.49287 0.20892 0.0
C558 C 0.19591 0.46962 0.27281 0.0
C559 C 0.24637 0.48505 0.26799 0.0
N560 N 0.15658 0.48587 0.22935 0.0
N561 N 0.22694 0.49194 0.24905 0.0
H562 H 0.08115 0.74421 0.09701 0.0
H563 H 0.99515 0.76765 0.40431 0.0
H564 H 0.0909 0.73255 0.312 0.0
H565 H 0.00295 0.78937 0.20429 0.0
H566 H 0.0296 0.7543 0.37234 0.0
H567 H 0.05114 0.76005 0.13494 0.0
C568 C 0.07698 0.74497 0.15222 0.0
C569 C 0.08849 0.73698 0.20137 0.0
C570 C 0.02396 0.76211 0.33575 0.0
C571 C 0.05409 0.75512 0.24514 0.0
C572 C 0.00445 0.7698 0.35418 0.0
C573 C 0.99622 0.77956 0.30667 0.0
C574 C 0.03504 0.7641 0.2691 0.0
C575 C 0.00857 0.78178 0.24197 0.0
C576 C 0.05994 0.75409 0.17388 0.0
C577 C 0.08247 0.7385 0.2723 0.0
N578 N 0.02719 0.77399 0.22475 0.0
N579 N 0.06552 0.74731 0.29203 0.0
H580 H 0.35968 0.78078 0.0507 0.0
H581 H 0.2311 0.72011 0.97351 0.0
H582 H 0.33754 0.76252 0.84431 0.0
H583 H 0.2428 0.74867 0.15897 0.0
H584 H 0.27345 0.73233 0.93183 0.0
H585 H 0.32029 0.76579 0.09726 0.0
C586 C 0.34664 0.77354 0.01513 0.0
C587 C 0.35187 0.77299 0.94325 0.0
C588 C 0.26682 0.73586 0.98183 0.0
C589 C 0.30673 0.75578 -0.00338 0.0
C590 C 0.24269 0.72893 0.00555 0.0
C591 C 0.23344 0.73353 0.06937 0.0
C592 C 0.28189 0.74739 0.0226 0.0
C593 C 0.24934 0.74475 0.10964 0.0
C594 C 0.32411 0.76502 0.04186 0.0
C595 C 0.33423 0.76338 0.89992 0.0
N596 N 0.2728 0.75137 0.08542 0.0
N597 N 0.3124 0.75516 0.92729 0.0
H598 H 0.8725 0.47823 0.03182 0.0
H599 H 0.0132 0.52327 0.94244 0.0
H600 H 0.90206 0.4845 0.82196 0.0
H601 H 0.98433 0.51657 0.15281 0.0
H602 H 0.97138 0.5109 0.89726 0.0
H603 H 0.91184 0.49418 0.07649 0.0
C604 C 0.88716 0.48306 0.99498 0.0
C605 C 0.88404 0.47988 0.92296 0.0
C606 C 0.97413 0.51219 0.9533 0.0
C607 C 0.92925 0.49811 0.97407 0.0
C608 C -0.00195 0.51924 0.97925 0.0
C609 C 0.00239 0.52087 0.05167 0.0
C610 C 0.95432 0.50665 -3e-05 0.0
C611 C 0.98192 0.51551 0.09663 0.0
C612 C 0.90965 0.49216 0.02064 0.0
C613 C 0.90366 0.48656 0.87787 0.0
N614 N 0.95881 0.50856 0.07002 0.0
N615 N 0.92551 0.49526 0.90424 0.0
H616 H 0.71016 0.44799 0.81643 0.0
H617 H 0.67217 0.52393 0.67131 0.0
H618 H 0.76478 0.48861 0.76914 0.0
H619 H 0.6163 0.48419 0.72319 0.0
H620 H 0.70638 0.51096 0.70675 0.0
H621 H 0.6752 0.46094 0.78469 0.0
C622 C 0.71467 0.45967 0.79971 0.0
C623 C 0.74019 0.46727 0.79463 0.0
C624 C 0.68667 0.50503 0.7105 0.0
C625 C 0.7007 0.48207 0.75805 0.0
C626 C 0.66722 0.51241 0.68997 0.0
C627 C 0.64156 0.50507 0.69469 0.0
C628 C 0.68037 0.49017 0.73579 0.0
C629 C 0.63595 0.49021 0.71944 0.0
C630 C 0.69483 0.46703 0.7814 0.0
C631 C 0.74526 0.48236 0.77289 0.0
N632 N 0.65523 0.48322 0.73918 0.0
N633 N 0.7257 0.48925 0.7551 0.0
H634 H 0.08314 0.24391 0.62004 0.0
H635 H 0.99593 0.2659 0.9277 0.0
H636 H 0.09234 0.23143 0.83412 0.0
H637 H 0.00502 0.28888 0.7308 0.0
H638 H 0.03032 0.25257 0.89483 0.0
H639 H 0.05287 0.25951 0.65884 0.0
C640 C 0.07879 0.24444 0.67523 0.0
C641 C 0.09024 0.2363 0.72388 0.0
C642 C 0.02496 0.26065 0.85914 0.0
C643 C 0.05553 0.25415 0.76861 0.0
C644 C 0.00548 0.26832 0.87807 0.0
C645 C 0.99765 0.27844 0.83171 0.0
C646 C 0.03641 0.26302 0.79308 0.0
C647 C 0.01033 0.281 0.76757 0.0
C648 C 0.06161 0.25342 0.69738 0.0
C649 C 0.08398 0.23751 0.7948 0.0
N650 N 0.02891 0.27322 0.74981 0.0
N651 N 0.06689 0.24618 0.815 0.0
H652 H 0.75292 0.22155 0.15057 0.0
H653 H 0.8272 0.27617 0.86945 0.0
H654 H 0.71918 0.25564 0.05099 0.0
H655 H 0.8672 0.26679 0.055 0.0
H656 H 0.78677 0.2636 0.92155 0.0
H657 H 0.79515 0.23394 0.10594 0.0
C658 C 0.7545 0.23173 0.12005 0.0
C659 C 0.73264 0.23751 0.10333 0.0
C660 C 0.80447 0.26424 0.95053 0.0
C661 C 0.78019 0.25126 0.05088 0.0
C662 C 0.82752 0.27126 0.92068 0.0
C663 C 0.85052 0.27255 0.95815 0.0
C664 C 0.80451 0.25818 0.01755 0.0
C665 C 0.84981 0.2661 0.02465 0.0
C666 C 0.77844 0.2387 0.09441 0.0
C667 C 0.73556 0.25068 0.0636 0.0
N668 N 0.82712 0.25909 0.05228 0.0
N669 N 0.75884 0.25697 0.03762 0.0
H670 H 0.24053 0.98105 0.89052 0.0
H671 H 0.13486 0.99132 0.60578 0.0
H672 H 0.22765 0.95478 0.69852 0.0
H673 H 0.15049 0.01864 0.79423 0.0
H674 H 0.1672 0.97683 0.64108 0.0
H675 H 0.20533 0.99365 0.85998 0.0
C676 C 0.22996 0.97777 0.84244 0.0
C677 C 0.23684 0.96686 0.79699 0.0
C678 C 0.16351 0.98597 0.67482 0.0
C679 C 0.19696 0.98141 0.76083 0.0
C680 C 0.1452 0.99427 0.65445 0.0
C681 C 0.14012 0.00616 0.69717 0.0
C682 C 0.1768 0.98963 0.73833 0.0
C683 C 0.15371 0.00944 0.76018 0.0
C684 C 0.21003 0.98505 0.82467 0.0
C685 C 0.22291 0.96321 0.73471 0.0
N686 N 0.17146 0.00124 0.77882 0.0
N687 N 0.20368 0.97052 0.71824 0.0
H688 H 0.24505 0.2485 0.68146 0.0
H689 H 0.33824 0.26084 0.35377 0.0
H690 H 0.23327 0.21993 0.49606 0.0
H691 H 0.36012 0.28022 0.55841 0.0
H692 H 0.29944 0.24587 0.40448 0.0
H693 H 0.28746 0.26029 0.63799 0.0
C694 C 0.25159 0.24457 0.63213 0.0
C695 C 0.23567 0.23335 0.59192 0.0
C696 C 0.31287 0.2533 0.43833 0.0
C697 C 0.28371 0.24692 0.54123 0.0
C698 C 0.33498 0.26188 0.40937 0.0
C699 C 0.3524 0.27187 0.45177 0.0
C700 C 0.30799 0.25486 0.51001 0.0
C701 C 0.34722 0.2727 0.52361 0.0
C702 C 0.27569 0.25134 0.60714 0.0
C703 C 0.24486 0.22876 0.52797 0.0
N704 N 0.32537 0.26443 0.55032 0.0
N705 N 0.26817 0.23567 0.5042 0.0
H706 H 0.87313 0.97646 0.53156 0.0
H707 H 0.01245 0.02438 0.44986 0.0
H708 H 0.90155 0.98697 0.32321 0.0
H709 H 0.98355 0.0157 0.65912 0.0
H710 H 0.97085 0.01209 0.40313 0.0
H711 H 0.9121 0.99226 0.57957 0.0
C712 C 0.88745 0.98218 0.49582 0.0
C713 C 0.88413 0.98025 0.42313 0.0
C714 C 0.97352 0.01293 0.45928 0.0
C715 C 0.92889 0.99831 0.47796 0.0
C716 C 0.99733 0.01993 0.48611 0.0
C717 C 0.00161 0.02098 0.55863 0.0
C718 C 0.95377 0.00683 0.50515 0.0
C719 C 0.98117 0.0151 0.60287 0.0
C720 C 0.90972 0.9912 0.52336 0.0
C721 C 0.90331 0.98804 0.37954 0.0
N722 N 0.95818 0.00818 0.57539 0.0
N723 N 0.92494 0.99662 0.40765 0.0
H724 H 0.67212 0.025 0.16829 0.0
H725 H 0.71093 0.94885 0.30814 0.0
H726 H 0.61653 0.98517 0.22063 0.0
H727 H 0.76507 0.99014 0.26865 0.0
H728 H 0.6758 0.96171 0.27709 0.0
H729 H 0.7065 0.01207 0.20307 0.0
C730 C 0.66726 0.01347 0.1869 0.0
C731 C 0.64164 0.00609 0.19198 0.0
C732 C 0.69536 0.96797 0.2754 0.0
C733 C 0.68063 0.99125 0.23229 0.0
C734 C 0.7153 0.96066 0.29333 0.0
C735 C 0.74075 0.96847 0.2902 0.0
C736 C 0.70106 0.98318 0.25428 0.0
C737 C 0.74562 0.98372 0.27083 0.0
C738 C 0.68681 0.00612 0.20708 0.0
C739 C 0.63616 0.99122 0.2166 0.0
N740 N 0.72598 0.99056 0.25326 0.0
N741 N 0.65552 0.98425 0.23594 0.0
H742 H 0.75457 0.72412 0.65063 0.0
H743 H 0.82671 0.77197 0.34247 0.0
H744 H 0.71778 0.75182 0.51781 0.0
H745 H 0.86595 0.76965 0.53848 0.0
H746 H 0.78683 0.75908 0.39587 0.0
H747 H 0.79635 0.73633 0.60264 0.0
C748 C 0.75533 0.73286 0.61203 0.0
C749 C 0.73277 0.73689 0.58748 0.0
C750 C 0.80425 0.76133 0.42693 0.0
C751 C 0.77991 0.75035 0.53129 0.0
C752 C 0.82702 0.76855 0.39643 0.0
C753 C 0.84962 0.77195 0.43626 0.0
C754 C 0.80416 0.7572 0.49729 0.0
C755 C 0.84886 0.76732 0.50615 0.0
C756 C 0.77905 0.73971 0.58447 0.0
C757 C 0.73471 0.74817 0.53698 0.0
N758 N 0.82644 0.76012 0.53459 0.0
N759 N 0.75782 0.75436 0.50981 0.0
H760 H 0.52477 0.79249 0.85971 0.0
H761 H 0.56014 0.72463 0.63604 0.0
H762 H 0.46692 0.75642 0.77348 0.0
H763 H 0.60709 0.74394 0.81183 0.0
H764 H 0.52772 0.73914 0.67211 0.0
H765 H 0.55752 0.77742 0.83131 0.0
C766 C 0.51901 0.78138 0.8352 0.0
C767 C 0.49326 0.77573 0.81796 0.0
C768 C 0.54512 0.74015 0.70278 0.0
C769 C 0.53033 0.75874 0.78418 0.0
C770 C 0.56364 0.73195 0.68209 0.0
C771 C 0.58625 0.73306 0.72119 0.0
C772 C 0.54951 0.74978 0.76199 0.0
C773 C 0.5898 0.74269 0.78056 0.0
C774 C 0.53762 0.77284 0.81892 0.0
C775 C 0.48668 0.7613 0.78611 0.0
N776 N 0.5717 0.75081 0.7989 0.0
N777 N 0.50514 0.75337 0.76938 0.0
H778 H 0.51343 0.524 0.45173 0.0
H779 H 0.37223 0.47838 0.53137 0.0
H780 H 0.48356 0.51581 0.66033 0.0
H781 H 0.40323 0.48571 0.32346 0.0
H782 H 0.4113 0.49406 0.57913 0.0
H783 H 0.47185 0.51197 0.404 0.0
C784 C 0.4981 0.51973 0.48765 0.0
C785 C 0.50211 0.52082 0.56031 0.0
C786 C 0.40949 0.49233 0.52304 0.0
C787 C 0.45429 0.50696 0.50559 0.0
C788 C 0.38715 0.48338 0.4956 0.0
C789 C 0.3845 0.48059 0.42318 0.0
C790 C 0.42941 0.49853 0.47788 0.0
C791 C 0.40446 0.48746 0.37959 0.0
C792 C 0.47431 0.51286 0.46021 0.0
C793 C 0.48141 0.51516 0.60403 0.0
N794 N 0.42613 0.49602 0.40768 0.0
N795 N 0.45842 0.50839 0.57596 0.0
H796 H 0.50443 0.28975 0.21751 0.0
H797 H 0.58971 0.23057 0.33714 0.0
H798 H 0.49515 0.26759 0.41641 0.0
H799 H 0.58061 0.24226 0.12187 0.0
H800 H 0.55971 0.24678 0.3719 0.0
H801 H 0.53756 0.27533 0.18682 0.0
C802 C 0.50958 0.28193 0.25491 0.0
C803 C 0.49703 0.27978 0.31937 0.0
C804 C 0.5643 0.24578 0.3171 0.0
C805 C 0.53486 0.26332 0.28497 0.0
C806 C 0.58143 0.23654 0.29717 0.0
C807 C 0.5876 0.23499 0.22639 0.0
C808 C 0.55351 0.25367 0.26604 0.0
C809 C 0.57628 0.24302 0.17694 0.0
C810 C 0.5284 0.2737 0.23738 0.0
C811 C 0.50456 0.26967 0.36643 0.0
N812 N 0.55985 0.25204 0.19774 0.0
N813 N 0.52295 0.26176 0.34818 0.0
H814 H 0.3998 0.98686 0.8232 0.0
H815 H 0.48314 0.01599 0.16521 0.0
H816 H 0.3728 0.97754 0.03377 0.0
H817 H 0.51097 0.02299 0.95399 0.0
H818 H 0.4411 0.00399 0.11842 0.0
H819 H 0.43905 0.00247 0.87067 0.0
C820 C 0.40199 0.9882 0.87939 0.0
C821 C 0.38305 0.98074 0.92451 0.0
C822 C 0.4564 0.00823 0.08238 0.0
C823 C 0.42806 0.99853 0.97926 0.0
C824 C 0.4804 0.01508 0.10906 0.0
C825 C 0.50071 0.02041 0.06351 0.0
C826 C 0.45266 0.0067 0.00967 0.0
C827 C 0.49599 0.01896 0.9912 0.0
C828 C 0.42446 0.99709 0.9065 0.0
C829 C 0.38695 0.98297 -0.00308 0.0
N830 N 0.47252 0.0122 0.9666 0.0
N831 N 0.40909 0.99157 0.02203 0.0
H832 H 0.06113 0.51402 0.50523 0.0
H833 H 0.11414 0.57271 0.81393 0.0
H834 H 0.08047 0.56249 0.47831 0.0
H835 H 0.09751 0.52401 0.83598 0.0
H836 H 0.10674 0.56922 0.68809 0.0
H837 H 0.07787 0.51748 0.6244 0.0
C838 C 0.06899 0.5254 0.52446 0.0
C839 C 0.0696 0.53798 0.48178 0.0
C840 C 0.10504 0.5593 0.72037 0.0
C841 C 0.08881 0.54206 0.61817 0.0
C842 C 0.10939 0.56127 0.79222 0.0
C843 C 0.10602 0.54863 0.83573 0.0
C844 C 0.0972 0.54458 0.69203 0.0
C845 C 0.09998 0.53409 0.80461 0.0
C846 C 0.0787 0.52737 0.59233 0.0
C847 C 0.08009 0.55246 0.50906 0.0
N848 N 0.09545 0.53248 0.73482 0.0
N849 N 0.08917 0.55412 0.57577 0.0
H850 H 0.13046 0.68588 0.78663 0.0
H851 H 0.17762 0.72531 0.42643 0.0
H852 H 0.1472 0.73427 0.75597 0.0
H853 H 0.15378 0.67682 0.44758 0.0
H854 H 0.17391 0.72843 0.55254 0.0
H855 H 0.14521 0.68204 0.66765 0.0
C856 C 0.13761 0.69569 0.75528 0.0
C857 C 0.13775 0.71041 0.78119 0.0
C858 C 0.16976 0.71708 0.52977 0.0
C859 C 0.15432 0.70613 0.64513 0.0
C860 C 0.17198 0.71529 0.45773 0.0
C861 C 0.16554 0.70081 0.42629 0.0
C862 C 0.1609 0.70432 0.57069 0.0
C863 C 0.15867 0.68822 0.46956 0.0
C864 C 0.14589 0.6935 0.68729 0.0
C865 C 0.1466 0.72272 0.73776 0.0
N866 N 0.15615 0.69028 0.53957 0.0
N867 N 0.15448 0.7203 0.67188 0.0
H868 H 0.79311 0.43203 0.52056 0.0
H869 H 0.80285 0.46096 0.13598 0.0
H870 H 0.85782 0.46494 0.44839 0.0
H871 H 0.7838 0.41255 0.16803 0.0
H872 H 0.81076 0.46495 0.26087 0.0
H873 H 0.77935 0.42661 0.39954 0.0
C874 C 0.80495 0.4378 0.47975 0.0
C875 C 0.82738 0.44855 0.49497 0.0
C876 C 0.80451 0.45348 0.24043 0.0
C877 C 0.81035 0.4432 0.35722 0.0
C878 C 0.79982 0.45116 0.16931 0.0
C879 C 0.79313 0.43635 0.14128 0.0
C880 C 0.80199 0.44097 0.28407 0.0
C881 C 0.78924 0.42414 0.18743 0.0
C882 C 0.7967 0.43486 0.41072 0.0
C883 C 0.84062 0.45643 0.43928 0.0
N884 N 0.79391 0.42671 0.25699 0.0
N885 N 0.8318 0.45368 0.3729 0.0
H886 H 0.93577 0.33706 0.20581 0.0
H887 H 0.91407 0.27386 0.49736 0.0
H888 H 0.94724 0.29121 0.17121 0.0
H889 H 0.91398 0.32111 0.54171 0.0
H890 H 0.92856 0.28042 0.37875 0.0
H891 H 0.93136 0.33216 0.33085 0.0
C892 C 0.9378 0.32605 0.22457 0.0
C893 C 0.94144 0.31445 0.1778 0.0
C894 C 0.92568 0.2894 0.4146 0.0
C895 C 0.93605 0.30871 0.32056 0.0
C896 C 0.91725 0.28564 0.48211 0.0
C897 C 0.91305 0.29698 0.52941 0.0
C898 C 0.9295 0.3046 0.39386 0.0
C899 C 0.91749 0.31206 0.50725 0.0
C900 C 0.93519 0.32325 0.29598 0.0
C901 C 0.9441 0.30044 0.20518 0.0
N902 N 0.9253 0.31543 0.4408 0.0
N903 N 0.94098 0.2979 0.27461 0.0
H904 H 0.09661 0.02242 0.345 0.0
H905 H 0.08483 0.06294 0.98135 0.0
H906 H 0.11492 0.07103 0.32008 0.0
H907 H 0.05775 0.01518 0.01604 0.0
H908 H 0.10218 0.0658 0.10039 0.0
H909 H 0.08956 0.01925 0.21926 0.0
C910 C 0.09954 0.03243 0.31298 0.0
C911 C 0.10593 0.04703 0.3433 0.0
C912 C 0.09266 0.05467 0.08169 0.0
C913 C 0.09756 0.04347 0.19931 0.0
C914 C 0.08289 0.05302 0.01363 0.0
C915 C 0.07004 0.03877 0.98872 0.0
C916 C 0.08948 0.04199 0.12502 0.0
C917 C 0.06742 0.02638 0.03341 0.0
C918 C 0.09539 0.03061 0.24115 0.0
C919 C 0.10974 0.05956 0.29905 0.0
N920 N 0.07704 0.02827 0.09939 0.0
N921 N 0.10517 0.05751 0.2293 0.0
H922 H 0.15019 0.23526 0.27966 0.0
H923 H 0.15686 0.17601 0.96836 0.0
H924 H 0.13248 0.18673 0.30535 0.0
H925 H 0.17765 0.22468 0.94877 0.0
H926 H 0.15305 0.17942 0.09472 0.0
H927 H 0.16437 0.23139 0.16082 0.0
C928 C 0.14939 0.22377 0.26024 0.0
C929 C 0.14024 0.21129 0.30238 0.0
C930 C 0.15879 0.18933 0.06284 0.0
C931 C 0.1564 0.20673 0.1662 0.0
C932 C 0.16109 0.1874 0.9907 0.0
C933 C 0.16714 0.2001 0.94779 0.0
C934 C 0.1625 0.20407 0.09203 0.0
C935 C 0.17255 0.21457 0.97968 0.0
C936 C 0.15764 0.22155 0.19252 0.0
C937 C 0.13978 0.19666 0.27493 0.0
N938 N 0.16978 0.21616 0.04972 0.0
N939 N 0.14756 0.19476 0.20823 0.0
H940 H 0.8616 0.96731 0.94486 0.0
H941 H 0.78518 0.9125 0.66331 0.0
H942 H 0.79585 0.93449 0.0115 0.0
H943 H 0.8077 0.96069 0.62916 0.0
H944 H 0.79341 0.91735 0.78915 0.0
H945 H 0.84774 0.96196 0.82375 0.0
C946 C 0.8445 0.95882 0.93426 0.0
C947 C 0.83039 0.95103 0.98885 0.0
C948 C 0.79614 0.9268 0.75373 0.0
C949 C 0.8146 0.94484 0.85045 0.0
C950 C 0.79143 0.92407 0.68225 0.0
C951 C 0.79598 0.93618 0.6356 0.0
C952 C 0.80604 0.94164 0.77773 0.0
C953 C 0.80405 0.95097 0.66295 0.0
C954 C 0.8366 0.95583 0.86524 0.0
C955 C 0.80819 0.94024 0.97167 0.0
N956 N 0.80931 0.95325 0.73203 0.0
N957 N 0.80108 0.93735 0.90374 0.0
H958 H 0.9122 0.77365 0.97069 0.0
H959 H 0.92779 0.83709 0.6808 0.0
H960 H 0.90902 0.82041 0.01709 0.0
H961 H 0.94466 0.79247 0.64482 0.0
H962 H 0.92377 0.83189 0.80563 0.0
H963 H 0.92582 0.78068 0.85182 0.0
C964 C 0.91453 0.78542 0.95586 0.0
C965 C 0.90973 0.79649 0.00384 0.0
C966 C 0.92869 0.82332 0.77052 0.0
C967 C 0.92516 0.80464 0.86799 0.0
C968 C 0.93106 0.8263 0.69923 0.0
C969 C 0.93619 0.81512 0.65211 0.0
C970 C 0.93123 0.80901 0.79469 0.0
C971 C 0.94042 0.80138 0.67908 0.0
C972 C 0.92246 0.78945 0.8882 0.0
C973 C 0.91304 0.81158 0.98215 0.0
N974 N 0.93747 0.79863 0.74843 0.0
N975 N 0.92037 0.8152 0.91558 0.0
H976 H 0.55958 0.51223 0.01674 0.0
H977 H 0.61411 0.57087 0.32428 0.0
H978 H 0.5806 0.56061 0.98872 0.0
H979 H 0.59662 0.5222 0.3473 0.0
H980 H 0.6065 0.56731 0.19858 0.0
H981 H 0.57624 0.51563 0.13606 0.0
C982 C 0.56779 0.52358 0.03576 0.0
C983 C 0.56892 0.53614 0.99272 0.0
C984 C 0.60465 0.5574 0.23104 0.0
C985 C 0.58804 0.54016 0.12921 0.0
C986 C 0.60912 0.55942 0.30281 0.0
C987 C 0.60559 0.54682 0.34656 0.0
C988 C 0.59651 0.54268 0.203 0.0
C989 C 0.59924 0.53226 0.31573 0.0
C990 C 0.57746 0.52551 0.1037 0.0
C991 C 0.57983 0.55059 0.01974 0.0
N992 N 0.59458 0.53061 0.246 0.0
N993 N 0.58886 0.55222 0.08648 0.0
H994 H 0.66611 0.72693 0.94507 0.0
H995 H 0.6581 0.69373 0.32492 0.0
H996 H 0.66899 0.67966 0.97349 0.0
H997 H 0.61216 0.72543 0.25638 0.0
H998 H 0.67108 0.6905 0.20394 0.0
H999 H 0.65763 0.72935 0.06932 0.0
C1000 C 0.66543 0.7171 0.97754 0.0
C1001 C 0.66778 0.70297 0.94854 0.0
C1002 C 0.65789 0.69798 0.21569 0.0
C1003 C 0.6581 0.70577 0.09068 0.0
C1004 C 0.65001 0.69963 0.28448 0.0
C1005 C 0.63315 0.70944 0.30058 0.0
C1006 C 0.64959 0.70664 0.16346 0.0
C1007 C 0.62489 0.7176 0.24623 0.0
C1008 C 0.6604 0.7185 0.04831 0.0
C1009 C 0.667 0.69072 0.9936 0.0
N1010 N 0.63332 0.7161 0.18014 0.0
N1011 N 0.66203 0.69236 0.06274 0.0
H1012 H 0.29302 0.43465 0.01702 0.0
H1013 H 0.3046 0.46272 0.63106 0.0
H1014 H 0.35918 0.46643 0.94477 0.0
H1015 H 0.28306 0.4145 0.66574 0.0
H1016 H 0.31284 0.4669 0.75577 0.0
H1017 H 0.27931 0.42926 0.89599 0.0
C1018 C 0.30518 0.44017 0.97621 0.0
C1019 C 0.32802 0.45057 0.99143 0.0
C1020 C 0.30598 0.45544 0.73594 0.0
C1021 C 0.31107 0.44529 0.85353 0.0
C1022 C 0.30108 0.45301 0.66493 0.0
C1023 C 0.29353 0.43817 0.63771 0.0
C1024 C 0.30279 0.44302 0.78029 0.0
C1025 C 0.28914 0.42609 0.68452 0.0
C1026 C 0.29696 0.43726 0.90715 0.0
C1027 C 0.34167 0.45819 0.93567 0.0
N1028 N 0.29397 0.42876 0.75395 0.0
N1029 N 0.33289 0.45548 0.8692 0.0
H1030 H 0.41278 0.27464 0.98602 0.0
H1031 H 0.43205 0.33803 0.69521 0.0
H1032 H 0.41107 0.32165 0.03104 0.0
H1033 H 0.44603 0.29272 0.66 0.0
H1034 H 0.42744 0.33292 0.82001 0.0
H1035 H 0.42684 0.2814 0.86723 0.0
C1036 C 0.41551 0.28641 0.9709 0.0
C1037 C 0.41101 0.29763 0.01849 0.0
C1038 C 0.43186 0.32417 0.78508 0.0
C1039 C 0.42697 0.30548 0.88271 0.0
C1040 C 0.43457 0.3271 0.7138 0.0
C1041 C 0.43905 0.31571 0.66689 0.0
C1042 C 0.43341 0.30972 0.80945 0.0
C1043 C 0.44231 0.30179 0.69408 0.0
C1044 C 0.42369 0.29029 0.90328 0.0
C1045 C 0.41485 0.3127 -0.00358 0.0
N1046 N 0.43905 0.29912 0.76341 0.0
N1047 N 0.42245 0.31618 0.9299 0.0
H1048 H 0.56053 0.01273 0.51502 0.0
H1049 H 0.61425 0.07115 0.82398 0.0
H1050 H 0.58074 0.06118 0.48827 0.0
H1051 H 0.59631 0.02246 0.84603 0.0
H1052 H 0.60718 0.06771 0.69799 0.0
H1053 H 0.57732 0.01606 0.63414 0.0
C1054 C 0.5686 0.02408 0.53427 0.0
C1055 C 0.56942 0.03669 0.49169 0.0
C1056 C 0.60512 0.05778 0.73032 0.0
C1057 C 0.58868 0.04063 0.62802 0.0
C1058 C 0.60929 0.05973 0.80225 0.0
C1059 C 0.60544 0.04708 0.84576 0.0
C1060 C 0.59699 0.04309 0.70194 0.0
C1061 C 0.59913 0.03255 0.81463 0.0
C1062 C 0.57834 0.02598 0.60211 0.0
C1063 C 0.58018 0.05113 0.51897 0.0
N1064 N 0.59479 0.03097 0.74477 0.0
N1065 N 0.58927 0.05272 0.58567 0.0
H1066 H 0.65221 0.23438 0.78696 0.0
H1067 H 0.65256 0.17518 0.47079 0.0
H1068 H 0.62347 0.18624 0.80414 0.0
H1069 H 0.67711 0.22372 0.45412 0.0
H1070 H 0.64784 0.17842 0.59696 0.0
H1071 H 0.6662 0.23018 0.66831 0.0
C1072 C 0.64887 0.2229 0.76567 0.0
C1073 C 0.63676 0.21063 0.80546 0.0
C1074 C 0.65458 0.18834 0.56576 0.0
C1075 C 0.65278 0.2057 0.66955 0.0
C1076 C 0.65744 0.18649 0.49378 0.0
C1077 C 0.66484 0.19923 0.45175 0.0
C1078 C 0.65916 0.20302 0.59566 0.0
C1079 C 0.67099 0.2136 0.4844 0.0
C1080 C 0.65702 0.22049 0.69807 0.0
C1081 C 0.63311 0.19598 0.77562 0.0
N1082 N 0.66773 0.21511 0.55427 0.0
N1083 N 0.64098 0.19392 0.70916 0.0
H1084 H 0.35746 0.96592 0.45015 0.0
H1085 H 0.28107 0.91282 0.16675 0.0
H1086 H 0.28958 0.93474 0.51691 0.0
H1087 H 0.30315 0.96117 0.13629 0.0
H1088 H 0.28817 0.91732 0.29325 0.0
H1089 H 0.34335 0.96089 0.32946 0.0
C1090 C 0.33978 0.95788 0.43992 0.0
C1091 C 0.32512 0.95051 0.49471 0.0
C1092 C 0.291 0.92687 0.25843 0.0
C1093 C 0.30913 0.94463 0.35627 0.0
C1094 C 0.28695 0.92435 0.18659 0.0
C1095 C 0.2919 0.93661 0.14081 0.0
C1096 C 0.30058 0.94166 0.28357 0.0
C1097 C 0.29939 0.95134 0.16933 0.0
C1098 C 0.33177 0.95507 0.37098 0.0
C1099 C 0.30229 0.94024 0.47744 0.0
N1100 N 0.30404 0.95341 0.23872 0.0
N1101 N 0.29509 0.93748 0.40949 0.0
H1102 H 0.44956 0.79418 0.15334 0.0
H1103 H 0.40339 0.82182 0.52262 0.0
H1104 H 0.42564 0.83702 0.18682 0.0
H1105 H 0.41637 0.77662 0.47972 0.0
H1106 H 0.41766 0.82906 0.40445 0.0
H1107 H 0.44478 0.78937 0.27818 0.0
C1108 C 0.44372 0.8027 0.18707 0.0
C1109 C 0.43756 0.81591 0.15941 0.0
C1110 C 0.41758 0.81759 0.42106 0.0
C1111 C 0.43177 0.81037 0.30214 0.0
C1112 C 0.40956 0.81348 0.48858 0.0
C1113 C 0.40897 0.79865 0.511 0.0
C1114 C 0.42498 0.80676 0.3757 0.0
C1115 C 0.41647 0.78816 0.46422 0.0
C1116 C 0.44084 0.7999 0.25831 0.0
C1117 C 0.43029 0.82659 0.20574 0.0
N1118 N 0.42419 0.79242 0.39873 0.0
N1119 N 0.4273 0.82351 0.27478 0.0
H1120 H 0.08138 0.58704 0.24546 0.0
H1121 H 0.10759 0.66345 0.02521 0.0
H1122 H 0.09163 0.58813 0.02157 0.0
H1123 H 0.11501 0.66285 0.24993 0.0
H1124 H 0.09627 0.63573 0.02334 0.0
H1125 H 0.08872 0.61484 0.24842 0.0
C1126 C 0.08512 0.59311 0.19697 0.0
C1127 C 0.08603 0.58524 0.13323 0.0
C1128 C 0.10029 0.64169 0.07306 0.0
C1129 C 0.09425 0.61697 0.13621 0.0
C1130 C 0.10663 0.65751 0.0742 0.0
C1131 C 0.1124 0.66549 0.13778 0.0
C1132 C 0.09954 0.63378 0.13596 0.0
C1133 C 0.11091 0.65717 0.19964 0.0
C1134 C 0.08934 0.60896 0.19871 0.0
C1135 C 0.09095 0.5937 0.072 0.0
N1136 N 0.10467 0.64177 0.19716 0.0
N1137 N 0.09484 0.60908 0.07502 0.0
H1138 H 0.85326 0.40679 0.74689 0.0
H1139 H 0.90262 0.34665 0.98811 0.0
H1140 H 0.84128 0.40447 0.96999 0.0
H1141 H 0.89441 0.34105 0.76402 0.0
H1142 H 0.88524 0.36984 0.98182 0.0
H1143 H 0.87236 0.38419 0.75175 0.0
C1144 C 0.85448 0.40149 0.79683 0.0
C1145 C 0.8456 0.40754 0.85813 0.0
C1146 C 0.88735 0.36356 0.93403 0.0
C1147 C 0.86782 0.38182 0.86408 0.0
C1148 C 0.89748 0.35039 0.93747 0.0
C1149 C 0.89988 0.34184 0.87652 0.0
C1150 C 0.87977 0.36831 0.86914 0.0
C1151 C 0.89277 0.34722 0.8124 0.0
C1152 C 0.86543 0.3886 0.79953 0.0
C1153 C 0.84774 0.40017 0.92136 0.0
N1154 N 0.883 0.3601 0.8104 0.0
N1155 N 0.85878 0.38776 0.92275 0.0
H1156 H 0.09339 0.08778 0.5275 0.0
H1157 H 0.1164 0.16245 0.7693 0.0
H1158 H 0.08148 0.08684 0.75077 0.0
H1159 H 0.11103 0.16324 0.54418 0.0
H1160 H 0.1049 0.13478 0.76405 0.0
H1161 H 0.10154 0.11543 0.53314 0.0
C1162 C 0.09252 0.09338 0.5778 0.0
C1163 C 0.08682 0.08496 0.63885 0.0
C1164 C 0.10607 0.14101 0.71585 0.0
C1165 C 0.09613 0.11669 0.64553 0.0
C1166 C 0.11269 0.15681 0.71874 0.0
C1167 C 0.11478 0.16518 0.65702 0.0
C1168 C 0.10176 0.13349 0.65074 0.0
C1169 C 0.10961 0.15726 0.59308 0.0
C1170 C 0.09706 0.10919 0.58087 0.0
C1171 C 0.08578 0.09287 0.70241 0.0
N1172 N 0.10353 0.14184 0.59158 0.0
N1173 N 0.09054 0.1083 0.70415 0.0
H1174 H 0.88323 0.91902 0.2999 0.0
H1175 H 0.85829 0.83073 0.29503 0.0
H1176 H 0.81276 0.89481 0.38824 0.0
H1177 H 0.92687 0.85478 0.39811 0.0
H1178 H 0.84178 0.85441 0.29339 0.0
H1179 H 0.90037 0.89551 0.30079 0.0
C1180 C 0.87131 0.90871 0.31877 0.0
C1181 C 0.84657 0.90876 0.34394 0.0
C1182 C 0.86049 0.85444 0.31588 0.0
C1183 C 0.86578 0.88205 0.34367 0.0
C1184 C 0.87 0.84105 0.3164 0.0
C1185 C 0.89399 0.84089 0.34662 0.0
C1186 C 0.87542 0.8678 0.34372 0.0
C1187 C 0.90828 0.85449 0.37443 0.0
C1188 C 0.88115 0.89542 0.31966 0.0
C1189 C 0.83194 0.89518 0.36855 0.0
N1190 N 0.89889 0.86752 0.37162 0.0
N1191 N 0.84166 0.88225 0.36697 0.0
H1192 H 0.62262 0.6618 0.77486 0.0
H1193 H 0.59596 0.58653 0.53614 0.0
H1194 H 0.61358 0.66129 0.55046 0.0
H1195 H 0.58561 0.58547 0.75999 0.0
H1196 H 0.60557 0.61409 0.54249 0.0
H1197 H 0.61185 0.63397 0.77252 0.0
C1198 C 0.61833 0.65587 0.72516 0.0
C1199 C 0.619 0.66393 0.66269 0.0
C1200 C 0.60116 0.60787 0.59032 0.0
C1201 C 0.60685 0.63217 0.65977 0.0
C1202 C 0.59577 0.59209 0.5868 0.0
C1203 C 0.58999 0.58364 0.64767 0.0
C1204 C 0.60101 0.61537 0.65525 0.0
C1205 C 0.5899 0.59153 0.71173 0.0
C1206 C 0.61212 0.64 0.72395 0.0
C1207 C 0.61321 0.65564 0.59992 0.0
N1208 N 0.59543 0.60699 0.71393 0.0
N1209 N 0.60751 0.64025 0.60008 0.0
H1210 H 0.35064 0.40785 0.24009 0.0
H1211 H 0.40111 0.34755 0.47655 0.0
H1212 H 0.33934 0.40521 0.46336 0.0
H1213 H 0.38911 0.34098 0.25391 0.0
H1214 H 0.38343 0.37062 0.47135 0.0
H1215 H 0.36865 0.38482 0.24303 0.0
C1216 C 0.35177 0.40238 0.28965 0.0
C1217 C 0.34343 0.40848 0.3516 0.0
C1218 C 0.38473 0.36414 0.42363 0.0
C1219 C 0.36444 0.38228 0.35533 0.0
C1220 C 0.39503 0.35103 0.4264 0.0
C1221 C 0.39655 0.34228 0.36557 0.0
C1222 C 0.37613 0.36865 0.35948 0.0
C1223 C 0.3882 0.34734 0.30216 0.0
C1224 C 0.36208 0.38925 0.29124 0.0
C1225 C 0.34541 0.40089 0.41428 0.0
N1226 N 0.37836 0.36021 0.30074 0.0
N1227 N 0.3559 0.38826 0.41461 0.0
H1228 H 0.61759 0.16171 0.27322 0.0
H1229 H 0.59243 0.08689 0.03191 0.0
H1230 H 0.6103 0.16222 0.04847 0.0
H1231 H 0.58275 0.08592 0.25599 0.0
H1232 H 0.60093 0.11452 0.03776 0.0
H1233 H 0.60645 0.134 0.26867 0.0
C1234 C 0.61358 0.15601 0.22291 0.0
C1235 C 0.61498 0.16431 0.16106 0.0
C1236 C 0.59688 0.10828 0.08566 0.0
C1237 C 0.60234 0.13259 0.1556 0.0
C1238 C 0.59213 0.09248 0.08246 0.0
C1239 C 0.58694 0.08404 0.14364 0.0
C1240 C 0.59666 0.11578 0.15057 0.0
C1241 C 0.58664 0.09195 0.20752 0.0
C1242 C 0.60716 0.14019 0.22043 0.0
C1243 C 0.60942 0.1563 0.09746 0.0
N1244 N 0.59157 0.1074 0.20937 0.0
N1245 N 0.60352 0.14088 0.09636 0.0
H1246 H 0.40445 0.84827 0.96912 0.0
H1247 H 0.35025 0.90834 0.73933 0.0
H1248 H 0.39056 0.8419 0.74711 0.0
H1249 H 0.34139 0.9053 0.96328 0.0
H1250 H 0.36937 0.88566 0.73962 0.0
H1251 H 0.38682 0.87137 0.96603 0.0
C1252 C 0.398 0.85181 0.91953 0.0
C1253 C 0.3989 0.84307 0.85831 0.0
C1254 C 0.36312 0.88994 0.78856 0.0
C1255 C 0.3785 0.86948 0.85464 0.0
C1256 C 0.35219 0.90286 0.78848 0.0
C1257 C 0.34419 0.90873 0.8514 0.0
C1258 C 0.36641 0.88297 0.85209 0.0
C1259 C 0.34716 0.90115 0.9135 0.0
C1260 C 0.38773 0.86494 0.91796 0.0
C1261 C 0.39013 0.84823 0.79563 0.0
N1262 N 0.3582 0.88874 0.91233 0.0
N1263 N 0.38026 0.8611 0.79541 0.0
loop_
_geom_bond_atom_site_label_1
_geom_bond_atom_site_label_2
_geom_bond_distance
_geom_bond_site_symmetry_2
_ccdc_geom_bond_type
Co0 O3 1.970 . S
Co0 N17 1.989 . S
Co0 O25 1.967 . S
Co0 O32 1.920 1_554 S
Co1 O4 1.966 . S
Co1 N10 2.022 . S
Co1 N18 1.993 . S
Co1 O26 1.941 . S
C2 O3 1.258 . S
C2 O4 1.263 . S
O3 Co0 1.970 . S
O3 C2 1.258 . S
O4 Co1 1.966 . S
O4 C2 1.263 . S
C5 O6 1.235 . S
C5 O32 1.289 . S
O6 C5 1.235 . S
C7 C9 1.400 . S
C7 N10 1.351 . S
C7 C12 1.501 . S
C8 C9 1.387 . S
C8 N11 1.341 . S
C9 C7 1.400 . S
C9 C8 1.387 . S
N10 Co1 2.022 . S
N10 C7 1.351 . S
N10 N11 1.365 . S
N11 C8 1.341 . S
N11 N10 1.365 . S
N11 H31 0.862 . S
C12 C7 1.501 . S
C12 H13 0.961 . S
C12 H14 0.961 . S
C12 H15 0.960 . S
H13 C12 0.961 . S
H14 C12 0.961 . S
H15 C12 0.960 . S
C16 N17 1.342 . S
C16 C20 1.401 . S
C16 C21 1.499 . S
N17 Co0 1.989 . S
N17 C16 1.342 . S
N17 N18 1.388 . S
N18 Co1 1.993 . S
N18 N17 1.388 . S
N18 C19 1.346 . S
C19 N18 1.346 . S
C19 C20 1.396 . S
C19 C29 1.510 . S
C20 C16 1.401 . S
C20 C19 1.396 . S
C21 C16 1.499 . S
C21 H22 0.959 . S
C21 H23 0.960 . S
C21 H24 0.961 . S
H22 C21 0.959 . S
H23 C21 0.960 . S
H24 C21 0.961 . S
O25 Co0 1.967 . S
O25 C33 1.258 . S
O26 Co1 1.941 . S
O26 C33 1.266 . S
H27 C29 0.959 . S
H28 C29 0.961 . S
C29 C19 1.510 . S
C29 H27 0.959 . S
C29 H28 0.961 . S
C29 H30 0.960 . S
H30 C29 0.960 . S
H31 N11 0.862 . S
O32 Co0 1.920 1_556 S
O32 C5 1.289 . S
C33 O25 1.258 . S
C33 O26 1.266 . S
Co34 O37 1.970 . S
Co34 N51 1.989 . S
Co34 O59 1.967 . S
Co34 O66 1.920 . S
Co35 O38 1.966 . S
Co35 N44 2.022 1_554 S
Co35 N52 1.993 . S
Co35 O60 1.941 . S
C36 O37 1.258 . S
C36 O38 1.263 . S
O37 Co34 1.970 . S
O37 C36 1.258 . S
O38 Co35 1.966 . S
O38 C36 1.263 . S
C39 O40 1.235 . S
C39 O66 1.289 . S
O40 C39 1.235 . S
C41 C43 1.400 . S
C41 N44 1.351 . S
C41 C46 1.501 . S
C42 C43 1.387 . S
C42 N45 1.341 . S
C43 C41 1.400 . S
C43 C42 1.387 . S
N44 Co35 2.022 1_556 S
N44 C41 1.351 . S
N44 N45 1.365 . S
N45 C42 1.341 . S
N45 N44 1.365 . S
N45 H65 0.862 . S
C46 C41 1.501 . S
C46 H47 0.961 . S
C46 H48 0.961 . S
C46 H49 0.960 . S
H47 C46 0.961 . S
H48 C46 0.961 . S
H49 C46 0.960 . S
C50 N51 1.342 . S
C50 C54 1.401 . S
C50 C55 1.499 . S
N51 Co34 1.989 . S
N51 C50 1.342 . S
N51 N52 1.388 . S
N52 Co35 1.993 . S
N52 N51 1.388 . S
N52 C53 1.346 . S
C53 N52 1.346 . S
C53 C54 1.396 . S
C53 C63 1.510 1_554 S
C54 C50 1.401 . S
C54 C53 1.396 . S
C55 C50 1.499 . S
C55 H56 0.959 . S
C55 H57 0.960 . S
C55 H58 0.961 . S
H56 C55 0.959 . S
H57 C55 0.960 . S
H58 C55 0.961 . S
O59 Co34 1.967 . S
O59 C67 1.258 . S
O60 Co35 1.941 . S
O60 C67 1.266 . S
H61 C63 0.959 . S
H62 C63 0.961 . S
C63 C53 1.510 1_556 S
C63 H61 0.959 . S
C63 H62 0.961 . S
C63 H64 0.960 . S
H64 C63 0.960 . S
H65 N45 0.862 . S
O66 Co34 1.920 . S
O66 C39 1.289 . S
C67 O59 1.258 . S
C67 O60 1.266 . S
Co68 O71 1.970 . S
Co68 N85 1.989 . S
Co68 O93 1.967 . S
Co68 O100 1.920 1_556 S
Co69 O72 1.966 . S
Co69 N78 2.022 . S
Co69 N86 1.993 . S
Co69 O94 1.941 . S
C70 O71 1.258 . S
C70 O72 1.263 . S
O71 Co68 1.970 . S
O71 C70 1.258 . S
O72 Co69 1.966 . S
O72 C70 1.263 . S
C73 O74 1.235 . S
C73 O100 1.289 . S
O74 C73 1.235 . S
C75 C77 1.400 . S
C75 N78 1.351 . S
C75 C80 1.501 . S
C76 C77 1.387 . S
C76 N79 1.341 . S
C77 C75 1.400 . S
C77 C76 1.387 . S
N78 Co69 2.022 . S
N78 C75 1.351 . S
N78 N79 1.365 . S
N79 C76 1.341 . S
N79 N78 1.365 . S
N79 H99 0.862 . S
C80 C75 1.501 . S
C80 H81 0.961 . S
C80 H82 0.961 . S
C80 H83 0.960 . S
H81 C80 0.961 . S
H82 C80 0.961 . S
H83 C80 0.960 . S
C84 N85 1.342 . S
C84 C88 1.401 . S
C84 C89 1.499 . S
N85 Co68 1.989 . S
N85 C84 1.342 . S
N85 N86 1.388 . S
N86 Co69 1.993 . S
N86 N85 1.388 . S
N86 C87 1.346 . S
C87 N86 1.346 . S
C87 C88 1.396 . S
C87 C97 1.510 . S
C88 C84 1.401 . S
C88 C87 1.396 . S
C89 C84 1.499 . S
C89 H90 0.959 1_556 S
C89 H91 0.960 1_556 S
C89 H92 0.961 1_556 S
H90 C89 0.959 1_554 S
H91 C89 0.960 1_554 S
H92 C89 0.961 1_554 S
O93 Co68 1.967 . S
O93 C101 1.258 . S
O94 Co69 1.941 . S
O94 C101 1.266 . S
H95 C97 0.959 . S
H96 C97 0.961 . S
C97 C87 1.510 . S
C97 H95 0.959 . S
C97 H96 0.961 . S
C97 H98 0.960 . S
H98 C97 0.960 . S
H99 N79 0.862 . S
O100 Co68 1.920 1_554 S
O100 C73 1.289 . S
C101 O93 1.258 . S
C101 O94 1.266 . S
Co102 O105 1.970 . S
Co102 N119 1.989 . S
Co102 O127 1.967 . S
Co102 O134 1.920 1_556 S
Co103 O106 1.966 . S
Co103 N112 2.022 . S
Co103 N120 1.993 . S
Co103 O128 1.941 . S
C104 O105 1.258 . S
C104 O106 1.263 . S
O105 Co102 1.970 . S
O105 C104 1.258 . S
O106 Co103 1.966 . S
O106 C104 1.263 . S
C107 O108 1.235 . S
C107 O134 1.289 . S
O108 C107 1.235 . S
C109 C111 1.400 . S
C109 N112 1.351 . S
C109 C114 1.501 . S
C110 C111 1.387 . S
C110 N113 1.341 . S
C111 C109 1.400 . S
C111 C110 1.387 . S
N112 Co103 2.022 . S
N112 C109 1.351 . S
N112 N113 1.365 . S
N113 C110 1.341 . S
N113 N112 1.365 . S
N113 H133 0.862 . S
C114 C109 1.501 . S
C114 H115 0.961 . S
C114 H116 0.961 . S
C114 H117 0.960 . S
H115 C114 0.961 . S
H116 C114 0.961 . S
H117 C114 0.960 . S
C118 N119 1.342 . S
C118 C122 1.401 . S
C118 C123 1.499 . S
N119 Co102 1.989 . S
N119 C118 1.342 . S
N119 N120 1.388 . S
N120 Co103 1.993 . S
N120 N119 1.388 . S
N120 C121 1.346 . S
C121 N120 1.346 . S
C121 C122 1.396 . S
C121 C131 1.510 . S
C122 C118 1.401 . S
C122 C121 1.396 . S
C123 C118 1.499 . S
C123 H124 0.959 1_556 S
C123 H125 0.960 . S
C123 H126 0.961 . S
H124 C123 0.959 1_554 S
H125 C123 0.960 . S
H126 C123 0.961 . S
O127 Co102 1.967 . S
O127 C135 1.258 . S
O128 Co103 1.941 . S
O128 C135 1.266 . S
H129 C131 0.959 . S
H130 C131 0.961 . S
C131 C121 1.510 . S
C131 H129 0.959 . S
C131 H130 0.961 . S
C131 H132 0.960 . S
H132 C131 0.960 . S
H133 N113 0.862 . S
O134 Co102 1.920 1_554 S
O134 C107 1.289 . S
C135 O127 1.258 . S
C135 O128 1.266 . S
Co136 O139 1.970 . S
Co136 N153 1.989 . S
Co136 O161 1.967 . S
Co136 O168 1.920 . S
Co137 O140 1.966 . S
Co137 N146 2.022 . S
Co137 N154 1.993 . S
Co137 O162 1.941 . S
C138 O139 1.258 . S
C138 O140 1.263 . S
O139 Co136 1.970 . S
O139 C138 1.258 . S
O140 Co137 1.966 . S
O140 C138 1.263 . S
C141 O142 1.235 . S
C141 O168 1.289 . S
O142 C141 1.235 . S
C143 C145 1.400 . S
C143 N146 1.351 . S
C143 C148 1.501 . S
C144 C145 1.387 . S
C144 N147 1.341 . S
C145 C143 1.400 . S
C145 C144 1.387 . S
N146 Co137 2.022 . S
N146 C143 1.351 . S
N146 N147 1.365 . S
N147 C144 1.341 . S
N147 N146 1.365 . S
N147 H167 0.862 . S
C148 C143 1.501 . S
C148 H149 0.961 . S
C148 H150 0.961 . S
C148 H151 0.960 . S
H149 C148 0.961 . S
H150 C148 0.961 . S
H151 C148 0.960 . S
C152 N153 1.342 . S
C152 C156 1.401 . S
C152 C157 1.499 . S
N153 Co136 1.989 . S
N153 C152 1.342 . S
N153 N154 1.388 . S
N154 Co137 1.993 . S
N154 N153 1.388 . S
N154 C155 1.346 . S
C155 N154 1.346 . S
C155 C156 1.396 . S
C155 C165 1.510 . S
C156 C152 1.401 . S
C156 C155 1.396 . S
C157 C152 1.499 . S
C157 H158 0.959 . S
C157 H159 0.960 . S
C157 H160 0.961 . S
H158 C157 0.959 . S
H159 C157 0.960 . S
H160 C157 0.961 . S
O161 Co136 1.967 . S
O161 C169 1.258 . S
O162 Co137 1.941 . S
O162 C169 1.266 . S
H163 C165 0.959 . S
H164 C165 0.961 . S
C165 C155 1.510 . S
C165 H163 0.959 . S
C165 H164 0.961 . S
C165 H166 0.960 . S
H166 C165 0.960 . S
H167 N147 0.862 . S
O168 Co136 1.920 . S
O168 C141 1.289 . S
C169 O161 1.258 . S
C169 O162 1.266 . S
Co170 O173 1.970 . S
Co170 N187 1.989 . S
Co170 O195 1.967 . S
Co170 O202 1.920 . S
Co171 O174 1.966 . S
Co171 N180 2.022 . S
Co171 N188 1.993 . S
Co171 O196 1.941 . S
C172 O173 1.258 . S
C172 O174 1.263 . S
O173 Co170 1.970 . S
O173 C172 1.258 . S
O174 Co171 1.966 . S
O174 C172 1.263 . S
C175 O176 1.235 . S
C175 O202 1.289 . S
O176 C175 1.235 . S
C177 C179 1.400 . S
C177 N180 1.351 . S
C177 C182 1.501 . S
C178 C179 1.387 . S
C178 N181 1.341 . S
C179 C177 1.400 . S
C179 C178 1.387 . S
N180 Co171 2.022 . S
N180 C177 1.351 . S
N180 N181 1.365 . S
N181 C178 1.341 . S
N181 N180 1.365 . S
N181 H201 0.862 . S
C182 C177 1.501 . S
C182 H183 0.961 . S
C182 H184 0.961 . S
C182 H185 0.960 . S
H183 C182 0.961 . S
H184 C182 0.961 . S
H185 C182 0.960 . S
C186 N187 1.342 . S
C186 C190 1.401 . S
C186 C191 1.499 . S
N187 Co170 1.989 . S
N187 C186 1.342 . S
N187 N188 1.388 . S
N188 Co171 1.993 . S
N188 N187 1.388 . S
N188 C189 1.346 . S
C189 N188 1.346 . S
C189 C190 1.396 . S
C189 C199 1.510 . S
C190 C186 1.401 . S
C190 C189 1.396 . S
C191 C186 1.499 . S
C191 H192 0.959 . S
C191 H193 0.960 . S
C191 H194 0.961 . S
H192 C191 0.959 . S
H193 C191 0.960 . S
H194 C191 0.961 . S
O195 Co170 1.967 . S
O195 C203 1.258 . S
O196 Co171 1.941 . S
O196 C203 1.266 . S
H197 C199 0.959 . S
H198 C199 0.961 . S
C199 C189 1.510 . S
C199 H197 0.959 . S
C199 H198 0.961 . S
C199 H200 0.960 . S
H200 C199 0.960 . S
H201 N181 0.862 . S
O202 Co170 1.920 . S
O202 C175 1.289 . S
C203 O195 1.258 . S
C203 O196 1.266 . S
Co204 O207 1.970 . S
Co204 N221 1.989 . S
Co204 O229 1.967 . S
Co204 O236 1.920 . S
Co205 O208 1.966 . S
Co205 N214 2.022 . S
Co205 N222 1.993 . S
Co205 O230 1.941 . S
C206 O207 1.258 . S
C206 O208 1.263 . S
O207 Co204 1.970 . S
O207 C206 1.258 . S
O208 Co205 1.966 . S
O208 C206 1.263 . S
C209 O210 1.235 . S
C209 O236 1.289 . S
O210 C209 1.235 . S
C211 C213 1.400 . S
C211 N214 1.351 . S
C211 C216 1.501 . S
C212 C213 1.387 . S
C212 N215 1.341 . S
C213 C211 1.400 . S
C213 C212 1.387 . S
N214 Co205 2.022 . S
N214 C211 1.351 . S
N214 N215 1.365 . S
N215 C212 1.341 . S
N215 N214 1.365 . S
N215 H235 0.862 . S
C216 C211 1.501 . S
C216 H217 0.961 . S
C216 H218 0.961 . S
C216 H219 0.960 . S
H217 C216 0.961 . S
H218 C216 0.961 . S
H219 C216 0.960 . S
C220 N221 1.342 . S
C220 C224 1.401 . S
C220 C225 1.499 . S
N221 Co204 1.989 . S
N221 C220 1.342 . S
N221 N222 1.388 . S
N222 Co205 1.993 . S
N222 N221 1.388 . S
N222 C223 1.346 . S
C223 N222 1.346 . S
C223 C224 1.396 . S
C223 C233 1.510 . S
C224 C220 1.401 . S
C224 C223 1.396 . S
C225 C220 1.499 . S
C225 H226 0.959 . S
C225 H227 0.960 . S
C225 H228 0.961 . S
H226 C225 0.959 . S
H227 C225 0.960 . S
H228 C225 0.961 . S
O229 Co204 1.967 . S
O229 C237 1.258 . S
O230 Co205 1.941 . S
O230 C237 1.266 . S
H231 C233 0.959 . S
H232 C233 0.961 . S
C233 C223 1.510 . S
C233 H231 0.959 . S
C233 H232 0.961 . S
C233 H234 0.960 . S
H234 C233 0.960 . S
H235 N215 0.862 . S
O236 Co204 1.920 . S
O236 C209 1.289 . S
C237 O229 1.258 . S
C237 O230 1.266 . S
Co238 O241 1.970 . S
Co238 N255 1.989 . S
Co238 O263 1.967 . S
Co238 O270 1.920 . S
Co239 O242 1.966 . S
Co239 N248 2.022 . S
Co239 N256 1.993 . S
Co239 O264 1.941 . S
C240 O241 1.258 . S
C240 O242 1.263 . S
O241 Co238 1.970 . S
O241 C240 1.258 . S
O242 Co239 1.966 . S
O242 C240 1.263 . S
C243 O244 1.235 . S
C243 O270 1.289 . S
O244 C243 1.235 . S
C245 C247 1.400 . S
C245 N248 1.351 . S
C245 C250 1.501 . S
C246 C247 1.387 . S
C246 N249 1.341 . S
C247 C245 1.400 . S
C247 C246 1.387 . S
N248 Co239 2.022 . S
N248 C245 1.351 . S
N248 N249 1.365 . S
N249 C246 1.341 . S
N249 N248 1.365 . S
N249 H269 0.862 . S
C250 C245 1.501 . S
C250 H251 0.961 . S
C250 H252 0.961 . S
C250 H253 0.960 . S
H251 C250 0.961 . S
H252 C250 0.961 . S
H253 C250 0.960 . S
C254 N255 1.342 . S
C254 C258 1.401 . S
C254 C259 1.499 . S
N255 Co238 1.989 . S
N255 C254 1.342 . S
N255 N256 1.388 . S
N256 Co239 1.993 . S
N256 N255 1.388 . S
N256 C257 1.346 . S
C257 N256 1.346 . S
C257 C258 1.396 . S
C257 C267 1.510 . S
C258 C254 1.401 . S
C258 C257 1.396 . S
C259 C254 1.499 . S
C259 H260 0.959 . S
C259 H261 0.960 . S
C259 H262 0.961 . S
H260 C259 0.959 . S
H261 C259 0.960 . S
H262 C259 0.961 . S
O263 Co238 1.967 . S
O263 C271 1.258 . S
O264 Co239 1.941 . S
O264 C271 1.266 . S
H265 C267 0.959 . S
H266 C267 0.961 . S
C267 C257 1.510 . S
C267 H265 0.959 . S
C267 H266 0.961 . S
C267 H268 0.960 . S
H268 C267 0.960 . S
H269 N249 0.862 . S
O270 Co238 1.920 . S
O270 C243 1.289 . S
C271 O263 1.258 . S
C271 O264 1.266 . S
Co272 O275 1.970 . S
Co272 N289 1.989 . S
Co272 O297 1.967 . S
Co272 O304 1.920 . S
Co273 O276 1.966 . S
Co273 N282 2.022 . S
Co273 N290 1.993 . S
Co273 O298 1.941 . S
C274 O275 1.258 . S
C274 O276 1.263 . S
O275 Co272 1.970 . S
O275 C274 1.258 . S
O276 Co273 1.966 . S
O276 C274 1.263 . S
C277 O278 1.235 . S
C277 O304 1.289 . S
O278 C277 1.235 . S
C279 C281 1.400 . S
C279 N282 1.351 . S
C279 C284 1.501 . S
C280 C281 1.387 . S
C280 N283 1.341 . S
C281 C279 1.400 . S
C281 C280 1.387 . S
N282 Co273 2.022 . S
N282 C279 1.351 . S
N282 N283 1.365 . S
N283 C280 1.341 . S
N283 N282 1.365 . S
N283 H303 0.862 . S
C284 C279 1.501 . S
C284 H285 0.961 . S
C284 H286 0.961 . S
C284 H287 0.960 . S
H285 C284 0.961 . S
H286 C284 0.961 . S
H287 C284 0.960 . S
C288 N289 1.342 . S
C288 C292 1.401 . S
C288 C293 1.499 . S
N289 Co272 1.989 . S
N289 C288 1.342 . S
N289 N290 1.388 . S
N290 Co273 1.993 . S
N290 N289 1.388 . S
N290 C291 1.346 . S
C291 N290 1.346 . S
C291 C292 1.396 . S
C291 C301 1.510 . S
C292 C288 1.401 . S
C292 C291 1.396 . S
C293 C288 1.499 . S
C293 H294 0.959 . S
C293 H295 0.960 . S
C293 H296 0.961 . S
H294 C293 0.959 . S
H295 C293 0.960 . S
H296 C293 0.961 . S
O297 Co272 1.967 . S
O297 C305 1.258 . S
O298 Co273 1.941 . S
O298 C305 1.266 . S
H299 C301 0.959 . S
H300 C301 0.961 . S
C301 C291 1.510 . S
C301 H299 0.959 . S
C301 H300 0.961 . S
C301 H302 0.960 . S
H302 C301 0.960 . S
H303 N283 0.862 . S
O304 Co272 1.920 . S
O304 C277 1.289 . S
C305 O297 1.258 . S
C305 O298 1.266 . S
Co306 O309 1.970 . S
Co306 N323 1.989 . S
Co306 O331 1.967 . S
Co306 O338 1.920 . S
Co307 O310 1.966 . S
Co307 N316 2.022 . S
Co307 N324 1.993 . S
Co307 O332 1.941 . S
C308 O309 1.258 . S
C308 O310 1.263 . S
O309 Co306 1.970 . S
O309 C308 1.258 . S
O310 Co307 1.966 . S
O310 C308 1.263 . S
C311 O312 1.235 . S
C311 O338 1.289 . S
O312 C311 1.235 . S
C313 C315 1.400 . S
C313 N316 1.351 . S
C313 C318 1.501 . S
C314 C315 1.387 . S
C314 N317 1.341 . S
C315 C313 1.400 . S
C315 C314 1.387 . S
N316 Co307 2.022 . S
N316 C313 1.351 . S
N316 N317 1.365 . S
N317 C314 1.341 . S
N317 N316 1.365 . S
N317 H337 0.862 . S
C318 C313 1.501 . S
C318 H319 0.961 . S
C318 H320 0.961 . S
C318 H321 0.960 . S
H319 C318 0.961 . S
H320 C318 0.961 . S
H321 C318 0.960 . S
C322 N323 1.342 . S
C322 C326 1.401 . S
C322 C327 1.499 . S
N323 Co306 1.989 . S
N323 C322 1.342 . S
N323 N324 1.388 . S
N324 Co307 1.993 . S
N324 N323 1.388 . S
N324 C325 1.346 . S
C325 N324 1.346 . S
C325 C326 1.396 . S
C325 C335 1.510 . S
C326 C322 1.401 . S
C326 C325 1.396 . S
C327 C322 1.499 . S
C327 H328 0.959 . S
C327 H329 0.960 . S
C327 H330 0.961 . S
H328 C327 0.959 . S
H329 C327 0.960 . S
H330 C327 0.961 . S
O331 Co306 1.967 . S
O331 C339 1.258 . S
O332 Co307 1.941 . S
O332 C339 1.266 . S
H333 C335 0.959 . S
H334 C335 0.961 . S
C335 C325 1.510 . S
C335 H333 0.959 . S
C335 H334 0.961 . S
C335 H336 0.960 . S
H336 C335 0.960 . S
H337 N317 0.862 . S
O338 Co306 1.920 . S
O338 C311 1.289 . S
C339 O331 1.258 . S
C339 O332 1.266 . S
Co340 O343 1.970 . S
Co340 N357 1.989 . S
Co340 O365 1.967 . S
Co340 O372 1.920 . S
Co341 O344 1.966 . S
Co341 N350 2.022 . S
Co341 N358 1.993 . S
Co341 O366 1.941 . S
C342 O343 1.258 . S
C342 O344 1.263 . S
O343 Co340 1.970 . S
O343 C342 1.258 . S
O344 Co341 1.966 . S
O344 C342 1.263 . S
C345 O346 1.235 . S
C345 O372 1.289 . S
O346 C345 1.235 . S
C347 C349 1.400 . S
C347 N350 1.351 . S
C347 C352 1.501 . S
C348 C349 1.387 . S
C348 N351 1.341 . S
C349 C347 1.400 . S
C349 C348 1.387 . S
N350 Co341 2.022 . S
N350 C347 1.351 . S
N350 N351 1.365 . S
N351 C348 1.341 . S
N351 N350 1.365 . S
N351 H371 0.862 . S
C352 C347 1.501 . S
C352 H353 0.961 . S
C352 H354 0.961 . S
C352 H355 0.960 . S
H353 C352 0.961 . S
H354 C352 0.961 . S
H355 C352 0.960 . S
C356 N357 1.342 . S
C356 C360 1.401 . S
C356 C361 1.499 . S
N357 Co340 1.989 . S
N357 C356 1.342 . S
N357 N358 1.388 . S
N358 Co341 1.993 . S
N358 N357 1.388 . S
N358 C359 1.346 . S
C359 N358 1.346 . S
C359 C360 1.396 . S
C359 C369 1.510 . S
C360 C356 1.401 . S
C360 C359 1.396 . S
C361 C356 1.499 . S
C361 H362 0.959 . S
C361 H363 0.960 . S
C361 H364 0.961 . S
H362 C361 0.959 . S
H363 C361 0.960 . S
H364 C361 0.961 . S
O365 Co340 1.967 . S
O365 C373 1.258 . S
O366 Co341 1.941 . S
O366 C373 1.266 . S
H367 C369 0.959 . S
H368 C369 0.961 . S
C369 C359 1.510 . S
C369 H367 0.959 . S
C369 H368 0.961 . S
C369 H370 0.960 . S
H370 C369 0.960 . S
H371 N351 0.862 . S
O372 Co340 1.920 . S
O372 C345 1.289 . S
C373 O365 1.258 . S
C373 O366 1.266 . S
Co374 O377 1.970 . S
Co374 N391 1.989 . S
Co374 O399 1.967 . S
Co374 O406 1.920 . S
Co375 O378 1.966 . S
Co375 N384 2.022 . S
Co375 N392 1.993 . S
Co375 O400 1.941 . S
C376 O377 1.258 . S
C376 O378 1.263 . S
O377 Co374 1.970 . S
O377 C376 1.258 . S
O378 Co375 1.966 . S
O378 C376 1.263 . S
C379 O380 1.235 . S
C379 O406 1.289 . S
O380 C379 1.235 . S
C381 C383 1.400 . S
C381 N384 1.351 . S
C381 C386 1.501 . S
C382 C383 1.387 . S
C382 N385 1.341 . S
C383 C381 1.400 . S
C383 C382 1.387 . S
N384 Co375 2.022 . S
N384 C381 1.351 . S
N384 N385 1.365 . S
N385 C382 1.341 . S
N385 N384 1.365 . S
N385 H405 0.862 . S
C386 C381 1.501 . S
C386 H387 0.961 . S
C386 H388 0.961 . S
C386 H389 0.960 . S
H387 C386 0.961 . S
H388 C386 0.961 . S
H389 C386 0.960 . S
C390 N391 1.342 . S
C390 C394 1.401 . S
C390 C395 1.499 . S
N391 Co374 1.989 . S
N391 C390 1.342 . S
N391 N392 1.388 . S
N392 Co375 1.993 . S
N392 N391 1.388 . S
N392 C393 1.346 . S
C393 N392 1.346 . S
C393 C394 1.396 . S
C393 C403 1.510 . S
C394 C390 1.401 . S
C394 C393 1.396 . S
C395 C390 1.499 . S
C395 H396 0.959 . S
C395 H397 0.960 . S
C395 H398 0.961 . S
H396 C395 0.959 . S
H397 C395 0.960 . S
H398 C395 0.961 . S
O399 Co374 1.967 . S
O399 C407 1.258 . S
O400 Co375 1.941 . S
O400 C407 1.266 . S
H401 C403 0.959 . S
H402 C403 0.961 . S
C403 C393 1.510 . S
C403 H401 0.959 . S
C403 H402 0.961 . S
C403 H404 0.960 . S
H404 C403 0.960 . S
H405 N385 0.862 . S
O406 Co374 1.920 . S
O406 C379 1.289 . S
C407 O399 1.258 . S
C407 O400 1.266 . S
Co408 O411 1.970 . S
Co408 N425 1.989 . S
Co408 O433 1.967 . S
Co408 O440 1.920 1_554 S
Co409 O412 1.966 . S
Co409 N418 2.022 . S
Co409 N426 1.993 . S
Co409 O434 1.941 . S
C410 O411 1.258 . S
C410 O412 1.263 . S
O411 Co408 1.970 . S
O411 C410 1.258 . S
O412 Co409 1.966 . S
O412 C410 1.263 . S
C413 O414 1.235 . S
C413 O440 1.289 . S
O414 C413 1.235 . S
C415 C417 1.400 . S
C415 N418 1.351 . S
C415 C420 1.501 . S
C416 C417 1.387 . S
C416 N419 1.341 . S
C417 C415 1.400 . S
C417 C416 1.387 . S
N418 Co409 2.022 . S
N418 C415 1.351 . S
N418 N419 1.365 . S
N419 C416 1.341 . S
N419 N418 1.365 . S
N419 H439 0.862 . S
C420 C415 1.501 . S
C420 H421 0.961 . S
C420 H422 0.961 . S
C420 H423 0.960 . S
H421 C420 0.961 . S
H422 C420 0.961 . S
H423 C420 0.960 . S
C424 N425 1.342 . S
C424 C428 1.401 . S
C424 C429 1.499 . S
N425 Co408 1.989 . S
N425 C424 1.342 . S
N425 N426 1.388 . S
N426 Co409 1.993 . S
N426 N425 1.388 . S
N426 C427 1.346 . S
C427 N426 1.346 . S
C427 C428 1.396 . S
C427 C437 1.510 . S
C428 C424 1.401 . S
C428 C427 1.396 . S
C429 C424 1.499 . S
C429 H430 0.959 . S
C429 H431 0.960 . S
C429 H432 0.961 . S
H430 C429 0.959 . S
H431 C429 0.960 . S
H432 C429 0.961 . S
O433 Co408 1.967 . S
O433 C441 1.258 . S
O434 Co409 1.941 . S
O434 C441 1.266 . S
H435 C437 0.959 . S
H436 C437 0.961 . S
C437 C427 1.510 . S
C437 H435 0.959 . S
C437 H436 0.961 . S
C437 H438 0.960 . S
H438 C437 0.960 . S
H439 N419 0.862 . S
O440 Co408 1.920 1_556 S
O440 C413 1.289 . S
C441 O433 1.258 . S
C441 O434 1.266 . S
Co442 O445 1.970 . S
Co442 N459 1.989 . S
Co442 O467 1.967 . S
Co442 O474 1.920 . S
Co443 O446 1.966 . S
Co443 N452 2.022 1_554 S
Co443 N460 1.993 . S
Co443 O468 1.941 . S
C444 O445 1.258 . S
C444 O446 1.263 . S
O445 Co442 1.970 . S
O445 C444 1.258 . S
O446 Co443 1.966 . S
O446 C444 1.263 . S
C447 O448 1.235 . S
C447 O474 1.289 . S
O448 C447 1.235 . S
C449 C451 1.400 . S
C449 N452 1.351 . S
C449 C454 1.501 . S
C450 C451 1.387 . S
C450 N453 1.341 . S
C451 C449 1.400 . S
C451 C450 1.387 . S
N452 Co443 2.022 1_556 S
N452 C449 1.351 . S
N452 N453 1.365 . S
N453 C450 1.341 . S
N453 N452 1.365 . S
N453 H473 0.862 . S
C454 C449 1.501 . S
C454 H455 0.961 . S
C454 H456 0.961 . S
C454 H457 0.960 . S
H455 C454 0.961 . S
H456 C454 0.961 . S
H457 C454 0.960 . S
C458 N459 1.342 . S
C458 C462 1.401 . S
C458 C463 1.499 . S
N459 Co442 1.989 . S
N459 C458 1.342 . S
N459 N460 1.388 . S
N460 Co443 1.993 . S
N460 N459 1.388 . S
N460 C461 1.346 . S
C461 N460 1.346 . S
C461 C462 1.396 . S
C461 C471 1.510 1_554 S
C462 C458 1.401 . S
C462 C461 1.396 . S
C463 C458 1.499 . S
C463 H464 0.959 . S
C463 H465 0.960 . S
C463 H466 0.961 . S
H464 C463 0.959 . S
H465 C463 0.960 . S
H466 C463 0.961 . S
O467 Co442 1.967 . S
O467 C475 1.258 . S
O468 Co443 1.941 . S
O468 C475 1.266 . S
H469 C471 0.959 . S
H470 C471 0.961 . S
C471 C461 1.510 1_556 S
C471 H469 0.959 . S
C471 H470 0.961 . S
C471 H472 0.960 . S
H472 C471 0.960 . S
H473 N453 0.862 . S
O474 Co442 1.920 . S
O474 C447 1.289 . S
C475 O467 1.258 . S
C475 O468 1.266 . S
Co476 O479 1.970 . S
Co476 N493 1.989 . S
Co476 O501 1.967 . S
Co476 O508 1.920 1_556 S
Co477 O480 1.966 . S
Co477 N486 2.022 . S
Co477 N494 1.993 . S
Co477 O502 1.941 . S
C478 O479 1.258 . S
C478 O480 1.263 . S
O479 Co476 1.970 . S
O479 C478 1.258 . S
O480 Co477 1.966 . S
O480 C478 1.263 . S
C481 O482 1.235 . S
C481 O508 1.289 . S
O482 C481 1.235 . S
C483 C485 1.400 . S
C483 N486 1.351 . S
C483 C488 1.501 . S
C484 C485 1.387 . S
C484 N487 1.341 . S
C485 C483 1.400 . S
C485 C484 1.387 . S
N486 Co477 2.022 . S
N486 C483 1.351 . S
N486 N487 1.365 . S
N487 C484 1.341 . S
N487 N486 1.365 . S
N487 H507 0.862 . S
C488 C483 1.501 . S
C488 H489 0.961 . S
C488 H490 0.961 . S
C488 H491 0.960 . S
H489 C488 0.961 . S
H490 C488 0.961 . S
H491 C488 0.960 . S
C492 N493 1.342 . S
C492 C496 1.401 . S
C492 C497 1.499 . S
N493 Co476 1.989 . S
N493 C492 1.342 . S
N493 N494 1.388 . S
N494 Co477 1.993 . S
N494 N493 1.388 . S
N494 C495 1.346 . S
C495 N494 1.346 . S
C495 C496 1.396 . S
C495 C505 1.510 . S
C496 C492 1.401 . S
C496 C495 1.396 . S
C497 C492 1.499 . S
C497 H498 0.959 1_556 S
C497 H499 0.960 1_556 S
C497 H500 0.961 1_556 S
H498 C497 0.959 1_554 S
H499 C497 0.960 1_554 S
H500 C497 0.961 1_554 S
O501 Co476 1.967 . S
O501 C509 1.258 . S
O502 Co477 1.941 . S
O502 C509 1.266 . S
H503 C505 0.959 . S
H504 C505 0.961 . S
C505 C495 1.510 . S
C505 H503 0.959 . S
C505 H504 0.961 . S
C505 H506 0.960 . S
H506 C505 0.960 . S
H507 N487 0.862 . S
O508 Co476 1.920 1_554 S
O508 C481 1.289 . S
C509 O501 1.258 . S
C509 O502 1.266 . S
Co510 O513 1.970 . S
Co510 N527 1.989 . S
Co510 O535 1.967 . S
Co510 O542 1.920 1_556 S
Co511 O514 1.966 . S
Co511 N520 2.022 . S
Co511 N528 1.993 . S
Co511 O536 1.941 . S
C512 O513 1.258 . S
C512 O514 1.263 . S
O513 Co510 1.970 . S
O513 C512 1.258 . S
O514 Co511 1.966 . S
O514 C512 1.263 . S
C515 O516 1.235 . S
C515 O542 1.289 . S
O516 C515 1.235 . S
C517 C519 1.400 . S
C517 N520 1.351 . S
C517 C522 1.501 . S
C518 C519 1.387 . S
C518 N521 1.341 . S
C519 C517 1.400 . S
C519 C518 1.387 . S
N520 Co511 2.022 . S
N520 C517 1.351 . S
N520 N521 1.365 . S
N521 C518 1.341 . S
N521 N520 1.365 . S
N521 H541 0.862 . S
C522 C517 1.501 . S
C522 H523 0.961 . S
C522 H524 0.961 . S
C522 H525 0.960 . S
H523 C522 0.961 . S
H524 C522 0.961 . S
H525 C522 0.960 . S
C526 N527 1.342 . S
C526 C530 1.401 . S
C526 C531 1.499 . S
N527 Co510 1.989 . S
N527 C526 1.342 . S
N527 N528 1.388 . S
N528 Co511 1.993 . S
N528 N527 1.388 . S
N528 C529 1.346 . S
C529 N528 1.346 . S
C529 C530 1.396 . S
C529 C539 1.510 . S
C530 C526 1.401 . S
C530 C529 1.396 . S
C531 C526 1.499 . S
C531 H532 0.959 1_556 S
C531 H533 0.960 . S
C531 H534 0.961 . S
H532 C531 0.959 1_554 S
H533 C531 0.960 . S
H534 C531 0.961 . S
O535 Co510 1.967 . S
O535 C543 1.258 . S
O536 Co511 1.941 . S
O536 C543 1.266 . S
H537 C539 0.959 . S
H538 C539 0.961 . S
C539 C529 1.510 . S
C539 H537 0.959 . S
C539 H538 0.961 . S
C539 H540 0.960 . S
H540 C539 0.960 . S
H541 N521 0.862 . S
O542 Co510 1.920 1_554 S
O542 C515 1.289 . S
C543 O535 1.258 . S
C543 O536 1.266 . S
H544 C550 0.930 . S
H545 C554 0.930 . S
H546 C559 0.929 . S
H547 C557 0.929 . S
H548 C552 0.929 . S
H549 C558 0.929 . S
C550 H544 0.930 . S
C550 C551 1.367 . S
C550 C558 1.378 . S
C551 C550 1.367 . S
C551 C559 1.433 . S
C552 H548 0.929 . S
C552 C554 1.378 . S
C552 C556 1.350 . S
C553 C556 1.463 . S
C553 C558 1.350 . S
C553 N561 1.427 . S
C554 H545 0.930 . S
C554 C552 1.378 . S
C554 C555 1.367 . S
C555 C554 1.367 . S
C555 C557 1.433 . S
C556 C552 1.350 . S
C556 C553 1.463 . S
C556 N560 1.427 . S
C557 H547 0.929 . S
C557 C555 1.433 . S
C557 N560 1.384 . S
C558 H549 0.929 . S
C558 C550 1.378 . S
C558 C553 1.350 . S
C559 H546 0.929 . S
C559 C551 1.433 . S
C559 N561 1.384 . S
N560 C556 1.427 . S
N560 C557 1.384 . S
N561 C553 1.427 . S
N561 C559 1.384 . S
H562 C568 0.930 . S
H563 C572 0.930 . S
H564 C577 0.929 . S
H565 C575 0.929 . S
H566 C570 0.929 . S
H567 C576 0.929 . S
C568 H562 0.930 . S
C568 C569 1.367 . S
C568 C576 1.378 . S
C569 C568 1.367 . S
C569 C577 1.433 . S
C570 H566 0.929 . S
C570 C572 1.378 1_455 S
C570 C574 1.350 . S
C571 C574 1.463 . S
C571 C576 1.350 . S
C571 N579 1.427 . S
C572 H563 0.930 . S
C572 C570 1.378 1_655 S
C572 C573 1.367 . S
C573 C572 1.367 . S
C573 C575 1.433 1_655 S
C574 C570 1.350 . S
C574 C571 1.463 . S
C574 N578 1.427 . S
C575 H565 0.929 . S
C575 C573 1.433 1_455 S
C575 N578 1.384 . S
C576 H567 0.929 . S
C576 C568 1.378 . S
C576 C571 1.350 . S
C577 H564 0.929 . S
C577 C569 1.433 . S
C577 N579 1.384 . S
N578 C574 1.427 . S
N578 C575 1.384 . S
N579 C571 1.427 . S
N579 C577 1.384 . S
H580 C586 0.926 1_554 S
H581 C590 0.930 . S
H582 C595 0.929 . S
H583 C593 0.929 . S
H584 C588 0.929 . S
H585 C594 0.929 . S
C586 H580 0.926 1_556 S
C586 C587 1.367 . S
C586 C594 1.378 1_556 S
C587 C586 1.367 . S
C587 C595 1.433 . S
C588 H584 0.929 . S
C588 C590 1.378 . S
C588 C592 1.350 . S
C589 C592 1.463 . S
C589 C594 1.350 1_556 S
C589 N597 1.427 . S
C590 H581 0.930 . S
C590 C588 1.378 . S
C590 C591 1.367 1_556 S
C591 C590 1.367 1_554 S
C591 C593 1.433 . S
C592 C588 1.350 . S
C592 C589 1.463 . S
C592 N596 1.427 1_556 S
C593 H583 0.929 . S
C593 C591 1.433 . S
C593 N596 1.384 . S
C594 H585 0.929 . S
C594 C586 1.378 1_554 S
C594 C589 1.350 1_554 S
C595 H582 0.929 . S
C595 C587 1.433 . S
C595 N597 1.384 . S
N596 C592 1.427 1_554 S
N596 C593 1.384 . S
N597 C589 1.427 . S
N597 C595 1.384 . S
H598 C604 0.930 . S
H599 C608 0.930 . S
H600 C613 0.929 . S
H601 C611 0.929 . S
H602 C606 0.929 1_556 S
H603 C612 0.929 . S
C604 H598 0.930 . S
C604 C605 1.367 1_554 S
C604 C612 1.378 . S
C605 C604 1.367 1_556 S
C605 C613 1.433 . S
C606 H602 0.929 1_554 S
C606 C608 1.378 1_655 S
C606 C610 1.350 . S
C607 C610 1.463 . S
C607 C612 1.350 . S
C607 N615 1.427 1_554 S
C608 H599 0.930 . S
C608 C606 1.378 1_455 S
C608 C609 1.367 . S
C609 C608 1.367 . S
C609 C611 1.433 1_455 S
C610 C606 1.350 . S
C610 C607 1.463 . S
C610 N614 1.427 . S
C611 H601 0.929 . S
C611 C609 1.433 1_655 S
C611 N614 1.384 . S
C612 H603 0.929 . S
C612 C604 1.378 . S
C612 C607 1.350 . S
C613 H600 0.929 . S
C613 C605 1.433 . S
C613 N615 1.384 . S
N614 C610 1.427 . S
N614 C611 1.384 . S
N615 C607 1.427 1_556 S
N615 C613 1.384 . S
H616 C622 0.930 . S
H617 C626 0.930 . S
H618 C631 0.929 . S
H619 C629 0.929 . S
H620 C624 0.929 . S
H621 C630 0.929 . S
C622 H616 0.930 . S
C622 C623 1.367 . S
C622 C630 1.378 . S
C623 C622 1.367 . S
C623 C631 1.433 . S
C624 H620 0.929 . S
C624 C626 1.378 . S
C624 C628 1.350 . S
C625 C628 1.463 . S
C625 C630 1.350 . S
C625 N633 1.427 . S
C626 H617 0.930 . S
C626 C624 1.378 . S
C626 C627 1.367 . S
C627 C626 1.367 . S
C627 C629 1.433 . S
C628 C624 1.350 . S
C628 C625 1.463 . S
C628 N632 1.427 . S
C629 H619 0.929 . S
C629 C627 1.433 . S
C629 N632 1.384 . S
C630 H621 0.929 . S
C630 C622 1.378 . S
C630 C625 1.350 . S
C631 H618 0.929 . S
C631 C623 1.433 . S
C631 N633 1.384 . S
N632 C628 1.427 . S
N632 C629 1.384 . S
N633 C625 1.427 . S
N633 C631 1.384 . S
H634 C640 0.930 . S
H635 C644 0.930 . S
H636 C649 0.929 . S
H637 C647 0.929 . S
H638 C642 0.929 . S
H639 C648 0.929 . S
C640 H634 0.930 . S
C640 C641 1.367 . S
C640 C648 1.378 . S
C641 C640 1.367 . S
C641 C649 1.433 . S
C642 H638 0.929 . S
C642 C644 1.378 . S
C642 C646 1.350 . S
C643 C646 1.463 . S
C643 C648 1.350 . S
C643 N651 1.427 . S
C644 H635 0.930 . S
C644 C642 1.378 . S
C644 C645 1.367 1_455 S
C645 C644 1.367 1_655 S
C645 C647 1.433 . S
C646 C642 1.350 . S
C646 C643 1.463 . S
C646 N650 1.427 . S
C647 H637 0.929 . S
C647 C645 1.433 . S
C647 N650 1.384 1_655 S
C648 H639 0.929 . S
C648 C640 1.378 . S
C648 C643 1.350 . S
C649 H636 0.929 . S
C649 C641 1.433 . S
C649 N651 1.384 . S
N650 C646 1.427 . S
N650 C647 1.384 1_455 S
N651 C643 1.427 . S
N651 C649 1.384 . S
H652 C658 0.930 . S
H653 C662 0.930 . S
H654 C667 0.929 . S
H655 C665 0.929 1_554 S
H656 C660 0.929 . S
H657 C666 0.929 . S
C658 H652 0.930 . S
C658 C659 1.367 . S
C658 C666 1.378 . S
C659 C658 1.367 . S
C659 C667 1.433 1_554 S
C660 H656 0.929 . S
C660 C662 1.378 . S
C660 C664 1.350 . S
C661 C664 1.460 1_554 S
C661 C666 1.357 . S
C661 N669 1.423 1_554 S
C662 H653 0.930 . S
C662 C660 1.378 . S
C662 C663 1.367 . S
C663 C662 1.367 . S
C663 C665 1.433 . S
C664 C660 1.350 . S
C664 C661 1.460 1_556 S
C664 N668 1.427 1_556 S
C665 H655 0.929 1_556 S
C665 C663 1.433 . S
C665 N668 1.384 1_556 S
C666 H657 0.929 . S
C666 C658 1.378 . S
C666 C661 1.357 . S
C667 H654 0.929 . S
C667 C659 1.433 1_556 S
C667 N669 1.384 . S
N668 C664 1.427 1_554 S
N668 C665 1.384 1_554 S
N669 C661 1.423 1_556 S
N669 C667 1.384 . S
H670 C676 0.930 . S
H671 C680 0.930 . S
H672 C685 0.929 . S
H673 C683 0.929 . S
H674 C678 0.929 . S
H675 C684 0.929 1_545 S
C676 H670 0.930 . S
C676 C677 1.367 . S
C676 C684 1.378 . S
C677 C676 1.367 . S
C677 C685 1.433 . S
C678 H674 0.929 . S
C678 C680 1.378 . S
C678 C682 1.350 . S
C679 C682 1.463 . S
C679 C684 1.350 . S
C679 N687 1.427 . S
C680 H671 0.930 . S
C680 C678 1.378 . S
C680 C681 1.367 1_565 S
C681 C680 1.367 1_545 S
C681 C683 1.433 . S
C682 C678 1.350 . S
C682 C679 1.463 . S
C682 N686 1.427 1_565 S
C683 H673 0.929 . S
C683 C681 1.433 . S
C683 N686 1.384 . S
C684 H675 0.929 1_565 S
C684 C676 1.378 . S
C684 C679 1.350 . S
C685 H672 0.929 . S
C685 C677 1.433 . S
C685 N687 1.384 . S
N686 C682 1.427 1_545 S
N686 C683 1.384 . S
N687 C679 1.427 . S
N687 C685 1.384 . S
H688 C694 0.930 . S
H689 C698 0.930 . S
H690 C703 0.929 . S
H691 C701 0.929 . S
H692 C696 0.929 . S
H693 C702 0.929 . S
C694 H688 0.930 . S
C694 C695 1.367 . S
C694 C702 1.378 . S
C695 C694 1.367 . S
C695 C703 1.433 . S
C696 H692 0.929 . S
C696 C698 1.378 . S
C696 C700 1.350 . S
C697 C700 1.463 . S
C697 C702 1.350 . S
C697 N705 1.427 . S
C698 H689 0.930 . S
C698 C696 1.378 . S
C698 C699 1.367 . S
C699 C698 1.367 . S
C699 C701 1.433 . S
C700 C696 1.350 . S
C700 C697 1.463 . S
C700 N704 1.427 . S
C701 H691 0.929 . S
C701 C699 1.433 . S
C701 N704 1.384 . S
C702 H693 0.929 . S
C702 C694 1.378 . S
C702 C697 1.350 . S
C703 H690 0.929 . S
C703 C695 1.433 . S
C703 N705 1.384 . S
N704 C700 1.427 . S
N704 C701 1.384 . S
N705 C697 1.427 . S
N705 C703 1.384 . S
H706 C712 0.930 . S
H707 C716 0.930 . S
H708 C721 0.929 . S
H709 C719 0.906 1_565 S
H710 C714 0.929 . S
H711 C720 0.929 . S
C712 H706 0.930 . S
C712 C713 1.367 . S
C712 C720 1.378 . S
C713 C712 1.367 . S
C713 C721 1.433 . S
C714 H710 0.929 . S
C714 C716 1.378 . S
C714 C718 1.350 . S
C715 C718 1.463 1_565 S
C715 C720 1.350 . S
C715 N723 1.427 1_565 S
C716 H707 0.930 . S
C716 C714 1.378 . S
C716 C717 1.367 1_655 S
C717 C716 1.367 1_455 S
C717 C719 1.433 . S
C718 C714 1.350 . S
C718 C715 1.463 1_545 S
C718 N722 1.427 1_545 S
C719 H709 0.906 1_545 S
C719 C717 1.433 . S
C719 N722 1.384 1_445 S
C720 H711 0.929 . S
C720 C712 1.378 . S
C720 C715 1.350 . S
C721 H708 0.929 . S
C721 C713 1.433 . S
C721 N723 1.384 1_565 S
N722 C718 1.427 1_565 S
N722 C719 1.384 1_665 S
N723 C715 1.427 1_545 S
N723 C721 1.384 1_545 S
H724 C730 0.930 . S
H725 C734 0.930 . S
H726 C739 0.929 . S
H727 C737 0.929 . S
H728 C732 0.929 . S
H729 C738 0.947 . S
C730 H724 0.930 . S
C730 C731 1.367 . S
C730 C738 1.346 1_545 S
C731 C730 1.367 . S
C731 C739 1.433 . S
C732 H728 0.929 . S
C732 C734 1.378 . S
C732 C736 1.350 . S
C733 C736 1.463 . S
C733 C738 1.367 . S
C733 N741 1.427 . S
C734 H725 0.930 . S
C734 C732 1.378 . S
C734 C735 1.367 . S
C735 C734 1.367 . S
C735 C737 1.433 . S
C736 C732 1.350 . S
C736 C733 1.463 . S
C736 N740 1.427 . S
C737 H727 0.929 . S
C737 C735 1.433 . S
C737 N740 1.384 . S
C738 H729 0.947 . S
C738 C730 1.346 1_565 S
C738 C733 1.367 . S
C739 H726 0.929 . S
C739 C731 1.433 . S
C739 N741 1.384 1_545 S
N740 C736 1.427 . S
N740 C737 1.384 . S
N741 C733 1.427 . S
N741 C739 1.384 1_565 S
H742 C748 0.930 . S
H743 C752 0.930 . S
H744 C757 0.929 . S
H745 C755 0.929 . S
H746 C750 0.929 . S
H747 C756 0.929 . S
C748 H742 0.930 . S
C748 C749 1.367 . S
C748 C756 1.378 . S
C749 C748 1.367 . S
C749 C757 1.433 . S
C750 H746 0.929 . S
C750 C752 1.378 . S
C750 C754 1.350 . S
C751 C754 1.463 . S
C751 C756 1.350 . S
C751 N759 1.427 . S
C752 H743 0.930 . S
C752 C750 1.378 . S
C752 C753 1.367 . S
C753 C752 1.367 . S
C753 C755 1.433 . S
C754 C750 1.350 . S
C754 C751 1.463 . S
C754 N758 1.427 . S
C755 H745 0.929 . S
C755 C753 1.433 . S
C755 N758 1.384 . S
C756 H747 0.929 . S
C756 C748 1.378 . S
C756 C751 1.350 . S
C757 H744 0.929 . S
C757 C749 1.433 . S
C757 N759 1.384 . S
N758 C754 1.427 . S
N758 C755 1.384 . S
N759 C751 1.427 . S
N759 C757 1.384 . S
H760 C766 0.930 . S
H761 C770 0.930 . S
H762 C775 0.929 . S
H763 C773 0.929 . S
H764 C768 0.929 . S
H765 C774 0.929 . S
C766 H760 0.930 . S
C766 C767 1.367 . S
C766 C774 1.378 . S
C767 C766 1.367 . S
C767 C775 1.433 . S
C768 H764 0.929 . S
C768 C770 1.378 . S
C768 C772 1.350 . S
C769 C772 1.463 . S
C769 C774 1.350 . S
C769 N777 1.427 . S
C770 H761 0.930 . S
C770 C768 1.378 . S
C770 C771 1.367 . S
C771 C770 1.367 . S
C771 C773 1.433 . S
C772 C768 1.350 . S
C772 C769 1.463 . S
C772 N776 1.427 . S
C773 H763 0.929 . S
C773 C771 1.433 . S
C773 N776 1.384 . S
C774 H765 0.929 . S
C774 C766 1.378 . S
C774 C769 1.350 . S
C775 H762 0.929 . S
C775 C767 1.433 . S
C775 N777 1.384 . S
N776 C772 1.427 . S
N776 C773 1.384 . S
N777 C769 1.427 . S
N777 C775 1.384 . S
H778 C784 0.930 . S
H779 C788 0.930 . S
H780 C793 0.929 . S
H781 C791 0.929 . S
H782 C786 0.929 . S
H783 C792 0.929 . S
C784 H778 0.930 . S
C784 C785 1.367 . S
C784 C792 1.378 . S
C785 C784 1.367 . S
C785 C793 1.433 . S
C786 H782 0.929 . S
C786 C788 1.378 . S
C786 C790 1.350 . S
C787 C790 1.463 . S
C787 C792 1.350 . S
C787 N795 1.427 . S
C788 H779 0.930 . S
C788 C786 1.378 . S
C788 C789 1.367 . S
C789 C788 1.367 . S
C789 C791 1.433 . S
C790 C786 1.350 . S
C790 C787 1.463 . S
C790 N794 1.427 . S
C791 H781 0.929 . S
C791 C789 1.433 . S
C791 N794 1.384 . S
C792 H783 0.929 . S
C792 C784 1.378 . S
C792 C787 1.350 . S
C793 H780 0.929 . S
C793 C785 1.433 . S
C793 N795 1.384 . S
N794 C790 1.427 . S
N794 C791 1.384 . S
N795 C787 1.427 . S
N795 C793 1.384 . S
H796 C802 0.930 . S
H797 C806 0.930 . S
H798 C811 0.929 . S
H799 C809 0.929 . S
H800 C804 0.929 . S
H801 C810 0.929 . S
C802 H796 0.930 . S
C802 C803 1.367 . S
C802 C810 1.378 . S
C803 C802 1.367 . S
C803 C811 1.433 . S
C804 H800 0.929 . S
C804 C806 1.378 . S
C804 C808 1.350 . S
C805 C808 1.463 . S
C805 C810 1.350 . S
C805 N813 1.427 . S
C806 H797 0.930 . S
C806 C804 1.378 . S
C806 C807 1.367 . S
C807 C806 1.367 . S
C807 C809 1.433 . S
C808 C804 1.350 . S
C808 C805 1.463 . S
C808 N812 1.427 . S
C809 H799 0.929 . S
C809 C807 1.433 . S
C809 N812 1.384 . S
C810 H801 0.929 . S
C810 C802 1.378 . S
C810 C805 1.350 . S
C811 H798 0.929 . S
C811 C803 1.433 . S
C811 N813 1.384 . S
N812 C808 1.427 . S
N812 C809 1.384 . S
N813 C805 1.427 . S
N813 C811 1.384 . S
H814 C820 0.930 . S
H815 C824 0.930 . S
H816 C829 0.929 . S
H817 C827 0.957 . S
H818 C822 0.929 . S
H819 C828 0.928 1_554 S
C820 H814 0.930 . S
C820 C821 1.367 . S
C820 C828 1.378 . S
C821 C820 1.367 . S
C821 C829 1.433 . S
C822 H818 0.929 . S
C822 C824 1.378 . S
C822 C826 1.350 . S
C823 C826 1.463 1_565 S
C823 C828 1.350 1_554 S
C823 N831 1.413 1_564 S
C824 H815 0.930 . S
C824 C822 1.378 . S
C824 C825 1.367 . S
C825 C824 1.367 . S
C825 C827 1.433 . S
C826 C822 1.350 . S
C826 C823 1.463 1_545 S
C826 N830 1.427 1_545 S
C827 H817 0.957 . S
C827 C825 1.433 . S
C827 N830 1.384 1_545 S
C828 H819 0.928 1_556 S
C828 C820 1.378 . S
C828 C823 1.350 1_556 S
C829 H816 0.929 . S
C829 C821 1.433 . S
C829 N831 1.374 1_565 S
N830 C826 1.427 1_565 S
N830 C827 1.384 1_565 S
N831 C823 1.413 1_546 S
N831 C829 1.374 1_545 S
H832 C838 0.930 . S
H833 C842 0.930 . S
H834 C847 0.929 . S
H835 C845 0.929 . S
H836 C840 0.929 . S
H837 C846 0.929 . S
C838 H832 0.930 . S
C838 C839 1.367 . S
C838 C846 1.378 . S
C839 C838 1.367 . S
C839 C847 1.433 . S
C840 H836 0.929 . S
C840 C842 1.378 . S
C840 C844 1.350 . S
C841 C844 1.463 . S
C841 C846 1.350 . S
C841 N849 1.427 . S
C842 H833 0.930 . S
C842 C840 1.378 . S
C842 C843 1.367 . S
C843 C842 1.367 . S
C843 C845 1.433 . S
C844 C840 1.350 . S
C844 C841 1.463 . S
C844 N848 1.427 . S
C845 H835 0.929 . S
C845 C843 1.433 . S
C845 N848 1.384 . S
C846 H837 0.929 . S
C846 C838 1.378 . S
C846 C841 1.350 . S
C847 H834 0.929 . S
C847 C839 1.433 . S
C847 N849 1.384 . S
N848 C844 1.427 . S
N848 C845 1.384 . S
N849 C841 1.427 . S
N849 C847 1.384 . S
H850 C856 0.930 . S
H851 C860 0.930 . S
H852 C865 0.929 . S
H853 C863 0.929 . S
H854 C858 0.929 . S
H855 C864 0.929 . S
C856 H850 0.930 . S
C856 C857 1.367 . S
C856 C864 1.378 . S
C857 C856 1.367 . S
C857 C865 1.433 . S
C858 H854 0.929 . S
C858 C860 1.378 . S
C858 C862 1.350 . S
C859 C862 1.463 . S
C859 C864 1.350 . S
C859 N867 1.427 . S
C860 H851 0.930 . S
C860 C858 1.378 . S
C860 C861 1.367 . S
C861 C860 1.367 . S
C861 C863 1.433 . S
C862 C858 1.350 . S
C862 C859 1.463 . S
C862 N866 1.427 . S
C863 H853 0.929 . S
C863 C861 1.433 . S
C863 N866 1.384 . S
C864 H855 0.929 . S
C864 C856 1.378 . S
C864 C859 1.350 . S
C865 H852 0.929 . S
C865 C857 1.433 . S
C865 N867 1.384 . S
N866 C862 1.427 . S
N866 C863 1.384 . S
N867 C859 1.427 . S
N867 C865 1.384 . S
H868 C874 0.930 . S
H869 C878 0.930 . S
H870 C883 0.929 . S
H871 C881 0.929 . S
H872 C876 0.929 . S
H873 C882 0.929 . S
C874 H868 0.930 . S
C874 C875 1.367 . S
C874 C882 1.378 . S
C875 C874 1.367 . S
C875 C883 1.433 . S
C876 H872 0.929 . S
C876 C878 1.378 . S
C876 C880 1.350 . S
C877 C880 1.463 . S
C877 C882 1.350 . S
C877 N885 1.427 . S
C878 H869 0.930 . S
C878 C876 1.378 . S
C878 C879 1.367 . S
C879 C878 1.367 . S
C879 C881 1.433 . S
C880 C876 1.350 . S
C880 C877 1.463 . S
C880 N884 1.427 . S
C881 H871 0.929 . S
C881 C879 1.433 . S
C881 N884 1.384 . S
C882 H873 0.929 . S
C882 C874 1.378 . S
C882 C877 1.350 . S
C883 H870 0.929 . S
C883 C875 1.433 . S
C883 N885 1.384 . S
N884 C880 1.427 . S
N884 C881 1.384 . S
N885 C877 1.427 . S
N885 C883 1.384 . S
H886 C892 0.930 . S
H887 C896 0.930 . S
H888 C901 0.929 . S
H889 C899 0.929 . S
H890 C894 0.929 . S
H891 C900 0.929 . S
C892 H886 0.930 . S
C892 C893 1.367 . S
C892 C900 1.378 . S
C893 C892 1.367 . S
C893 C901 1.433 . S
C894 H890 0.929 . S
C894 C896 1.378 . S
C894 C898 1.350 . S
C895 C898 1.463 . S
C895 C900 1.350 . S
C895 N903 1.427 . S
C896 H887 0.930 . S
C896 C894 1.378 . S
C896 C897 1.367 . S
C897 C896 1.367 . S
C897 C899 1.433 . S
C898 C894 1.350 . S
C898 C895 1.463 . S
C898 N902 1.427 . S
C899 H889 0.929 . S
C899 C897 1.433 . S
C899 N902 1.384 . S
C900 H891 0.929 . S
C900 C892 1.378 . S
C900 C895 1.350 . S
C901 H888 0.929 . S
C901 C893 1.433 . S
C901 N903 1.384 . S
N902 C898 1.427 . S
N902 C899 1.384 . S
N903 C895 1.427 . S
N903 C901 1.384 . S
H904 C910 0.930 . S
H905 C914 0.930 . S
H906 C919 0.929 . S
H907 C917 0.929 . S
H908 C912 0.929 . S
H909 C918 0.929 . S
C910 H904 0.930 . S
C910 C911 1.367 . S
C910 C918 1.378 . S
C911 C910 1.367 . S
C911 C919 1.433 . S
C912 H908 0.929 . S
C912 C914 1.378 . S
C912 C916 1.350 . S
C913 C916 1.463 . S
C913 C918 1.350 . S
C913 N921 1.427 . S
C914 H905 0.930 . S
C914 C912 1.378 . S
C914 C915 1.367 . S
C915 C914 1.367 . S
C915 C917 1.433 . S
C916 C912 1.350 . S
C916 C913 1.463 . S
C916 N920 1.427 . S
C917 H907 0.929 . S
C917 C915 1.433 . S
C917 N920 1.384 . S
C918 H909 0.929 . S
C918 C910 1.378 . S
C918 C913 1.350 . S
C919 H906 0.929 . S
C919 C911 1.433 . S
C919 N921 1.384 . S
N920 C916 1.427 . S
N920 C917 1.384 . S
N921 C913 1.427 . S
N921 C919 1.384 . S
H922 C928 0.930 . S
H923 C932 0.930 . S
H924 C937 0.929 . S
H925 C935 0.929 . S
H926 C930 0.929 1_554 S
H927 C936 0.929 . S
C928 H922 0.930 . S
C928 C929 1.367 . S
C928 C936 1.378 . S
C929 C928 1.367 . S
C929 C937 1.433 . S
C930 H926 0.929 1_556 S
C930 C932 1.378 . S
C930 C934 1.350 1_556 S
C931 C934 1.463 . S
C931 C936 1.350 . S
C931 N939 1.427 . S
C932 H923 0.930 . S
C932 C930 1.378 . S
C932 C933 1.367 . S
C933 C932 1.367 . S
C933 C935 1.433 . S
C934 C930 1.350 1_554 S
C934 C931 1.463 . S
C934 N938 1.427 . S
C935 H925 0.929 . S
C935 C933 1.433 . S
C935 N938 1.384 1_556 S
C936 H927 0.929 . S
C936 C928 1.378 . S
C936 C931 1.350 . S
C937 H924 0.929 . S
C937 C929 1.433 . S
C937 N939 1.384 . S
N938 C934 1.427 . S
N938 C935 1.384 1_554 S
N939 C931 1.427 . S
N939 C937 1.384 . S
H940 C946 0.933 . S
H941 C950 0.930 . S
H942 C955 0.929 1_554 S
H943 C953 0.929 . S
H944 C948 0.929 . S
H945 C954 0.929 . S
C946 H940 0.933 . S
C946 C947 1.367 1_556 S
C946 C954 1.378 . S
C947 C946 1.367 1_554 S
C947 C955 1.433 1_554 S
C948 H944 0.929 . S
C948 C950 1.378 . S
C948 C952 1.350 . S
C949 C952 1.463 . S
C949 C954 1.350 . S
C949 N957 1.427 . S
C950 H941 0.930 . S
C950 C948 1.378 . S
C950 C951 1.367 . S
C951 C950 1.367 . S
C951 C953 1.433 . S
C952 C948 1.350 . S
C952 C949 1.463 . S
C952 N956 1.427 . S
C953 H943 0.929 . S
C953 C951 1.433 . S
C953 N956 1.384 . S
C954 H945 0.929 . S
C954 C946 1.378 . S
C954 C949 1.350 . S
C955 H942 0.929 1_556 S
C955 C947 1.433 1_556 S
C955 N957 1.384 . S
N956 C952 1.427 . S
N956 C953 1.384 . S
N957 C949 1.427 . S
N957 C955 1.384 . S
H958 C964 0.930 . S
H959 C968 0.930 . S
H960 C973 0.929 1_554 S
H961 C971 0.929 . S
H962 C966 0.929 . S
H963 C972 0.929 . S
C964 H958 0.930 . S
C964 C965 1.367 1_556 S
C964 C972 1.378 . S
C965 C964 1.367 1_554 S
C965 C973 1.433 1_554 S
C966 H962 0.929 . S
C966 C968 1.378 . S
C966 C970 1.350 . S
C967 C970 1.463 . S
C967 C972 1.350 . S
C967 N975 1.427 . S
C968 H959 0.930 . S
C968 C966 1.378 . S
C968 C969 1.367 . S
C969 C968 1.367 . S
C969 C971 1.433 . S
C970 C966 1.350 . S
C970 C967 1.463 . S
C970 N974 1.427 . S
C971 H961 0.929 . S
C971 C969 1.433 . S
C971 N974 1.384 . S
C972 H963 0.929 . S
C972 C964 1.378 . S
C972 C967 1.350 . S
C973 H960 0.929 1_556 S
C973 C965 1.433 1_556 S
C973 N975 1.384 . S
N974 C970 1.427 . S
N974 C971 1.384 . S
N975 C967 1.427 . S
N975 C973 1.384 . S
H976 C982 0.930 . S
H977 C986 0.930 . S
H978 C991 0.929 . S
H979 C989 0.929 . S
H980 C984 0.929 . S
H981 C990 0.929 . S
C982 H976 0.930 . S
C982 C983 1.367 . S
C982 C990 1.378 . S
C983 C982 1.367 . S
C983 C991 1.433 . S
C984 H980 0.929 . S
C984 C986 1.378 . S
C984 C988 1.350 . S
C985 C988 1.463 . S
C985 C990 1.350 . S
C985 N993 1.427 . S
C986 H977 0.930 . S
C986 C984 1.378 . S
C986 C987 1.367 . S
C987 C986 1.367 . S
C987 C989 1.433 . S
C988 C984 1.350 . S
C988 C985 1.463 . S
C988 N992 1.427 . S
C989 H979 0.929 . S
C989 C987 1.433 . S
C989 N992 1.384 . S
C990 H981 0.929 . S
C990 C982 1.378 . S
C990 C985 1.350 . S
C991 H978 0.929 . S
C991 C983 1.433 . S
C991 N993 1.384 . S
N992 C988 1.427 . S
N992 C989 1.384 . S
N993 C985 1.427 . S
N993 C991 1.384 . S
H994 C1000 0.930 . S
H995 C1004 0.930 . S
H996 C1009 0.929 . S
H997 C1007 0.929 . S
H998 C1002 0.929 . S
H999 C1008 0.929 1_554 S
C1000 H994 0.930 . S
C1000 C1001 1.367 . S
C1000 C1008 1.378 . S
C1001 C1000 1.367 . S
C1001 C1009 1.433 . S
C1002 H998 0.929 . S
C1002 C1004 1.378 . S
C1002 C1006 1.350 . S
C1003 C1006 1.463 . S
C1003 C1008 1.350 1_554 S
C1003 N1011 1.427 1_554 S
C1004 H995 0.930 . S
C1004 C1002 1.378 . S
C1004 C1005 1.367 . S
C1005 C1004 1.367 . S
C1005 C1007 1.433 . S
C1006 C1002 1.350 . S
C1006 C1003 1.463 . S
C1006 N1010 1.427 . S
C1007 H997 0.929 . S
C1007 C1005 1.433 . S
C1007 N1010 1.384 . S
C1008 H999 0.929 1_556 S
C1008 C1000 1.378 . S
C1008 C1003 1.350 1_556 S
C1009 H996 0.929 . S
C1009 C1001 1.433 . S
C1009 N1011 1.384 . S
N1010 C1006 1.427 . S
N1010 C1007 1.384 . S
N1011 C1003 1.427 1_556 S
N1011 C1009 1.384 . S
H1012 C1018 0.930 1_554 S
H1013 C1022 0.930 . S
H1014 C1027 0.929 1_554 S
H1015 C1025 0.929 . S
H1016 C1020 0.929 . S
H1017 C1026 0.929 . S
C1018 H1012 0.930 1_556 S
C1018 C1019 1.367 1_556 S
C1018 C1026 1.378 . S
C1019 C1018 1.367 1_554 S
C1019 C1027 1.433 1_554 S
C1020 H1016 0.929 . S
C1020 C1022 1.378 . S
C1020 C1024 1.350 . S
C1021 C1024 1.463 . S
C1021 C1026 1.350 . S
C1021 N1029 1.427 . S
C1022 H1013 0.930 . S
C1022 C1020 1.378 . S
C1022 C1023 1.367 . S
C1023 C1022 1.367 . S
C1023 C1025 1.433 . S
C1024 C1020 1.350 . S
C1024 C1021 1.463 . S
C1024 N1028 1.427 . S
C1025 H1015 0.929 . S
C1025 C1023 1.433 . S
C1025 N1028 1.384 . S
C1026 H1017 0.929 . S
C1026 C1018 1.378 . S
C1026 C1021 1.350 . S
C1027 H1014 0.929 1_556 S
C1027 C1019 1.433 1_556 S
C1027 N1029 1.384 . S
N1028 C1024 1.427 . S
N1028 C1025 1.384 . S
N1029 C1021 1.427 . S
N1029 C1027 1.384 . S
H1030 C1036 0.930 . S
H1031 C1040 0.930 . S
H1032 C1045 0.929 1_554 S
H1033 C1043 0.929 . S
H1034 C1038 0.929 . S
H1035 C1044 0.929 . S
C1036 H1030 0.930 . S
C1036 C1037 1.367 1_556 S
C1036 C1044 1.378 . S
C1037 C1036 1.367 1_554 S
C1037 C1045 1.433 1_554 S
C1038 H1034 0.929 . S
C1038 C1040 1.378 . S
C1038 C1042 1.350 . S
C1039 C1042 1.463 . S
C1039 C1044 1.350 . S
C1039 N1047 1.427 . S
C1040 H1031 0.930 . S
C1040 C1038 1.378 . S
C1040 C1041 1.367 . S
C1041 C1040 1.367 . S
C1041 C1043 1.433 . S
C1042 C1038 1.350 . S
C1042 C1039 1.463 . S
C1042 N1046 1.427 . S
C1043 H1033 0.929 . S
C1043 C1041 1.433 . S
C1043 N1046 1.384 . S
C1044 H1035 0.929 . S
C1044 C1036 1.378 . S
C1044 C1039 1.350 . S
C1045 H1032 0.929 1_556 S
C1045 C1037 1.433 1_556 S
C1045 N1047 1.384 . S
N1046 C1042 1.427 . S
N1046 C1043 1.384 . S
N1047 C1039 1.427 . S
N1047 C1045 1.384 . S
H1048 C1054 0.930 . S
H1049 C1058 0.930 . S
H1050 C1063 0.929 . S
H1051 C1061 0.929 . S
H1052 C1056 0.929 . S
H1053 C1062 0.929 . S
C1054 H1048 0.930 . S
C1054 C1055 1.367 . S
C1054 C1062 1.378 . S
C1055 C1054 1.367 . S
C1055 C1063 1.433 . S
C1056 H1052 0.929 . S
C1056 C1058 1.378 . S
C1056 C1060 1.350 . S
C1057 C1060 1.463 . S
C1057 C1062 1.350 . S
C1057 N1065 1.427 . S
C1058 H1049 0.930 . S
C1058 C1056 1.378 . S
C1058 C1059 1.367 . S
C1059 C1058 1.367 . S
C1059 C1061 1.433 . S
C1060 C1056 1.350 . S
C1060 C1057 1.463 . S
C1060 N1064 1.427 . S
C1061 H1051 0.929 . S
C1061 C1059 1.433 . S
C1061 N1064 1.384 . S
C1062 H1053 0.929 . S
C1062 C1054 1.378 . S
C1062 C1057 1.350 . S
C1063 H1050 0.929 . S
C1063 C1055 1.433 . S
C1063 N1065 1.384 . S
N1064 C1060 1.427 . S
N1064 C1061 1.384 . S
N1065 C1057 1.427 . S
N1065 C1063 1.384 . S
H1066 C1072 0.930 . S
H1067 C1076 0.930 . S
H1068 C1081 0.929 . S
H1069 C1079 0.929 . S
H1070 C1074 0.929 . S
H1071 C1080 0.929 . S
C1072 H1066 0.930 . S
C1072 C1073 1.367 . S
C1072 C1080 1.378 . S
C1073 C1072 1.367 . S
C1073 C1081 1.433 . S
C1074 H1070 0.929 . S
C1074 C1076 1.378 . S
C1074 C1078 1.350 . S
C1075 C1078 1.463 . S
C1075 C1080 1.350 . S
C1075 N1083 1.427 . S
C1076 H1067 0.930 . S
C1076 C1074 1.378 . S
C1076 C1077 1.367 . S
C1077 C1076 1.367 . S
C1077 C1079 1.433 . S
C1078 C1074 1.350 . S
C1078 C1075 1.463 . S
C1078 N1082 1.427 . S
C1079 H1069 0.929 . S
C1079 C1077 1.433 . S
C1079 N1082 1.384 . S
C1080 H1071 0.929 . S
C1080 C1072 1.378 . S
C1080 C1075 1.350 . S
C1081 H1068 0.929 . S
C1081 C1073 1.433 . S
C1081 N1083 1.384 . S
N1082 C1078 1.427 . S
N1082 C1079 1.384 . S
N1083 C1075 1.427 . S
N1083 C1081 1.384 . S
H1084 C1090 0.930 . S
H1085 C1094 0.930 . S
H1086 C1099 0.929 . S
H1087 C1097 0.929 . S
H1088 C1092 0.929 . S
H1089 C1098 0.929 . S
C1090 H1084 0.930 . S
C1090 C1091 1.367 . S
C1090 C1098 1.378 . S
C1091 C1090 1.367 . S
C1091 C1099 1.433 . S
C1092 H1088 0.929 . S
C1092 C1094 1.378 . S
C1092 C1096 1.350 . S
C1093 C1096 1.463 . S
C1093 C1098 1.350 . S
C1093 N1101 1.427 . S
C1094 H1085 0.930 . S
C1094 C1092 1.378 . S
C1094 C1095 1.367 . S
C1095 C1094 1.367 . S
C1095 C1097 1.433 . S
C1096 C1092 1.350 . S
C1096 C1093 1.463 . S
C1096 N1100 1.427 . S
C1097 H1087 0.929 . S
C1097 C1095 1.433 . S
C1097 N1100 1.384 . S
C1098 H1089 0.929 . S
C1098 C1090 1.378 . S
C1098 C1093 1.350 . S
C1099 H1086 0.929 . S
C1099 C1091 1.433 . S
C1099 N1101 1.384 . S
N1100 C1096 1.427 . S
N1100 C1097 1.384 . S
N1101 C1093 1.427 . S
N1101 C1099 1.384 . S
H1102 C1108 0.930 . S
H1103 C1112 0.930 . S
H1104 C1117 0.929 . S
H1105 C1115 0.929 . S
H1106 C1110 0.929 . S
H1107 C1116 0.929 . S
C1108 H1102 0.930 . S
C1108 C1109 1.367 . S
C1108 C1116 1.378 . S
C1109 C1108 1.367 . S
C1109 C1117 1.433 . S
C1110 H1106 0.929 . S
C1110 C1112 1.378 . S
C1110 C1114 1.350 . S
C1111 C1114 1.463 . S
C1111 C1116 1.350 . S
C1111 N1119 1.427 . S
C1112 H1103 0.930 . S
C1112 C1110 1.378 . S
C1112 C1113 1.367 . S
C1113 C1112 1.367 . S
C1113 C1115 1.433 . S
C1114 C1110 1.350 . S
C1114 C1111 1.463 . S
C1114 N1118 1.427 . S
C1115 H1105 0.929 . S
C1115 C1113 1.433 . S
C1115 N1118 1.384 . S
C1116 H1107 0.929 . S
C1116 C1108 1.378 . S
C1116 C1111 1.350 . S
C1117 H1104 0.929 . S
C1117 C1109 1.433 . S
C1117 N1119 1.384 . S
N1118 C1114 1.427 . S
N1118 C1115 1.384 . S
N1119 C1111 1.427 . S
N1119 C1117 1.384 . S
H1120 C1126 0.930 . S
H1121 C1130 0.930 . S
H1122 C1135 0.929 . S
H1123 C1133 0.929 . S
H1124 C1128 0.929 . S
H1125 C1134 0.929 . S
C1126 H1120 0.930 . S
C1126 C1127 1.367 . S
C1126 C1134 1.378 . S
C1127 C1126 1.367 . S
C1127 C1135 1.433 . S
C1128 H1124 0.929 . S
C1128 C1130 1.378 . S
C1128 C1132 1.350 . S
C1129 C1132 1.463 . S
C1129 C1134 1.350 . S
C1129 N1137 1.427 . S
C1130 H1121 0.930 . S
C1130 C1128 1.378 . S
C1130 C1131 1.367 . S
C1131 C1130 1.367 . S
C1131 C1133 1.433 . S
C1132 C1128 1.350 . S
C1132 C1129 1.463 . S
C1132 N1136 1.427 . S
C1133 H1123 0.929 . S
C1133 C1131 1.433 . S
C1133 N1136 1.384 . S
C1134 H1125 0.929 . S
C1134 C1126 1.378 . S
C1134 C1129 1.350 . S
C1135 H1122 0.929 . S
C1135 C1127 1.433 . S
C1135 N1137 1.384 . S
N1136 C1132 1.427 . S
N1136 C1133 1.384 . S
N1137 C1129 1.427 . S
N1137 C1135 1.384 . S
H1138 C1144 0.930 . S
H1139 C1148 0.930 . S
H1140 C1153 0.929 . S
H1141 C1151 0.929 . S
H1142 C1146 0.929 . S
H1143 C1152 0.929 . S
C1144 H1138 0.930 . S
C1144 C1145 1.367 . S
C1144 C1152 1.378 . S
C1145 C1144 1.367 . S
C1145 C1153 1.433 . S
C1146 H1142 0.929 . S
C1146 C1148 1.378 . S
C1146 C1150 1.350 . S
C1147 C1150 1.463 . S
C1147 C1152 1.350 . S
C1147 N1155 1.427 . S
C1148 H1139 0.930 . S
C1148 C1146 1.378 . S
C1148 C1149 1.367 . S
C1149 C1148 1.367 . S
C1149 C1151 1.433 . S
C1150 C1146 1.350 . S
C1150 C1147 1.463 . S
C1150 N1154 1.427 . S
C1151 H1141 0.929 . S
C1151 C1149 1.433 . S
C1151 N1154 1.384 . S
C1152 H1143 0.929 . S
C1152 C1144 1.378 . S
C1152 C1147 1.350 . S
C1153 H1140 0.929 . S
C1153 C1145 1.433 . S
C1153 N1155 1.384 . S
N1154 C1150 1.427 . S
N1154 C1151 1.384 . S
N1155 C1147 1.427 . S
N1155 C1153 1.384 . S
H1156 C1162 0.930 . S
H1157 C1166 0.930 . S
H1158 C1171 0.929 . S
H1159 C1169 0.929 . S
H1160 C1164 0.929 . S
H1161 C1170 0.929 . S
C1162 H1156 0.930 . S
C1162 C1163 1.367 . S
C1162 C1170 1.378 . S
C1163 C1162 1.367 . S
C1163 C1171 1.433 . S
C1164 H1160 0.929 . S
C1164 C1166 1.378 . S
C1164 C1168 1.350 . S
C1165 C1168 1.463 . S
C1165 C1170 1.350 . S
C1165 N1173 1.427 . S
C1166 H1157 0.930 . S
C1166 C1164 1.378 . S
C1166 C1167 1.367 . S
C1167 C1166 1.367 . S
C1167 C1169 1.433 . S
C1168 C1164 1.350 . S
C1168 C1165 1.463 . S
C1168 N1172 1.427 . S
C1169 H1159 0.929 . S
C1169 C1167 1.433 . S
C1169 N1172 1.384 . S
C1170 H1161 0.929 . S
C1170 C1162 1.378 . S
C1170 C1165 1.350 . S
C1171 H1158 0.929 . S
C1171 C1163 1.433 . S
C1171 N1173 1.384 . S
N1172 C1168 1.427 . S
N1172 C1169 1.384 . S
N1173 C1165 1.427 . S
N1173 C1171 1.384 . S
H1174 C1180 0.930 . S
H1175 C1184 0.930 . S
H1176 C1189 0.929 . S
H1177 C1187 0.929 . S
H1178 C1182 0.929 . S
H1179 C1188 0.929 . S
C1180 H1174 0.930 . S
C1180 C1181 1.367 . S
C1180 C1188 1.378 . S
C1181 C1180 1.367 . S
C1181 C1189 1.433 . S
C1182 H1178 0.929 . S
C1182 C1184 1.378 . S
C1182 C1186 1.350 . S
C1183 C1186 1.463 . S
C1183 C1188 1.350 . S
C1183 N1191 1.427 . S
C1184 H1175 0.930 . S
C1184 C1182 1.378 . S
C1184 C1185 1.367 . S
C1185 C1184 1.367 . S
C1185 C1187 1.433 . S
C1186 C1182 1.350 . S
C1186 C1183 1.463 . S
C1186 N1190 1.427 . S
C1187 H1177 0.929 . S
C1187 C1185 1.433 . S
C1187 N1190 1.384 . S
C1188 H1179 0.929 . S
C1188 C1180 1.378 . S
C1188 C1183 1.350 . S
C1189 H1176 0.929 . S
C1189 C1181 1.433 . S
C1189 N1191 1.384 . S
N1190 C1186 1.427 . S
N1190 C1187 1.384 . S
N1191 C1183 1.427 . S
N1191 C1189 1.384 . S
H1192 C1198 0.930 . S
H1193 C1202 0.930 . S
H1194 C1207 0.929 . S
H1195 C1205 0.929 . S
H1196 C1200 0.929 . S
H1197 C1206 0.929 . S
C1198 H1192 0.930 . S
C1198 C1199 1.367 . S
C1198 C1206 1.378 . S
C1199 C1198 1.367 . S
C1199 C1207 1.433 . S
C1200 H1196 0.929 . S
C1200 C1202 1.378 . S
C1200 C1204 1.350 . S
C1201 C1204 1.463 . S
C1201 C1206 1.350 . S
C1201 N1209 1.427 . S
C1202 H1193 0.930 . S
C1202 C1200 1.378 . S
C1202 C1203 1.367 . S
C1203 C1202 1.367 . S
C1203 C1205 1.433 . S
C1204 C1200 1.350 . S
C1204 C1201 1.463 . S
C1204 N1208 1.427 . S
C1205 H1195 0.929 . S
C1205 C1203 1.433 . S
C1205 N1208 1.384 . S
C1206 H1197 0.929 . S
C1206 C1198 1.378 . S
C1206 C1201 1.350 . S
C1207 H1194 0.929 . S
C1207 C1199 1.433 . S
C1207 N1209 1.384 . S
N1208 C1204 1.427 . S
N1208 C1205 1.384 . S
N1209 C1201 1.427 . S
N1209 C1207 1.384 . S
H1210 C1216 0.930 . S
H1211 C1220 0.930 . S
H1212 C1225 0.929 . S
H1213 C1223 0.929 . S
H1214 C1218 0.929 . S
H1215 C1224 0.929 . S
C1216 H1210 0.930 . S
C1216 C1217 1.367 . S
C1216 C1224 1.378 . S
C1217 C1216 1.367 . S
C1217 C1225 1.433 . S
C1218 H1214 0.929 . S
C1218 C1220 1.378 . S
C1218 C1222 1.350 . S
C1219 C1222 1.463 . S
C1219 C1224 1.350 . S
C1219 N1227 1.427 . S
C1220 H1211 0.930 . S
C1220 C1218 1.378 . S
C1220 C1221 1.367 . S
C1221 C1220 1.367 . S
C1221 C1223 1.433 . S
C1222 C1218 1.350 . S
C1222 C1219 1.463 . S
C1222 N1226 1.427 . S
C1223 H1213 0.929 . S
C1223 C1221 1.433 . S
C1223 N1226 1.384 . S
C1224 H1215 0.929 . S
C1224 C1216 1.378 . S
C1224 C1219 1.350 . S
C1225 H1212 0.929 . S
C1225 C1217 1.433 . S
C1225 N1227 1.384 . S
N1226 C1222 1.427 . S
N1226 C1223 1.384 . S
N1227 C1219 1.427 . S
N1227 C1225 1.384 . S
H1228 C1234 0.930 . S
H1229 C1238 0.930 . S
H1230 C1243 0.929 . S
H1231 C1241 0.929 . S
H1232 C1236 0.929 . S
H1233 C1242 0.929 . S
C1234 H1228 0.930 . S
C1234 C1235 1.367 . S
C1234 C1242 1.378 . S
C1235 C1234 1.367 . S
C1235 C1243 1.433 . S
C1236 H1232 0.929 . S
C1236 C1238 1.378 . S
C1236 C1240 1.350 . S
C1237 C1240 1.463 . S
C1237 C1242 1.350 . S
C1237 N1245 1.427 . S
C1238 H1229 0.930 . S
C1238 C1236 1.378 . S
C1238 C1239 1.367 . S
C1239 C1238 1.367 . S
C1239 C1241 1.433 . S
C1240 C1236 1.350 . S
C1240 C1237 1.463 . S
C1240 N1244 1.427 . S
C1241 H1231 0.929 . S
C1241 C1239 1.433 . S
C1241 N1244 1.384 . S
C1242 H1233 0.929 . S
C1242 C1234 1.378 . S
C1242 C1237 1.350 . S
C1243 H1230 0.929 . S
C1243 C1235 1.433 . S
C1243 N1245 1.384 . S
N1244 C1240 1.427 . S
N1244 C1241 1.384 . S
N1245 C1237 1.427 . S
N1245 C1243 1.384 . S
H1246 C1252 0.930 . S
H1247 C1256 0.930 . S
H1248 C1261 0.929 . S
H1249 C1259 0.929 . S
H1250 C1254 0.929 . S
H1251 C1260 0.929 . S
C1252 H1246 0.930 . S
C1252 C1253 1.367 . S
C1252 C1260 1.378 . S
C1253 C1252 1.367 . S
C1253 C1261 1.433 . S
C1254 H1250 0.929 . S
C1254 C1256 1.378 . S
C1254 C1258 1.350 . S
C1255 C1258 1.463 . S
C1255 C1260 1.350 . S
C1255 N1263 1.427 . S
C1256 H1247 0.930 . S
C1256 C1254 1.378 . S
C1256 C1257 1.367 . S
C1257 C1256 1.367 . S
C1257 C1259 1.433 . S
C1258 C1254 1.350 . S
C1258 C1255 1.463 . S
C1258 N1262 1.427 . S
C1259 H1249 0.929 . S
C1259 C1257 1.433 . S
C1259 N1262 1.384 . S
C1260 H1251 0.929 . S
C1260 C1252 1.378 . S
C1260 C1255 1.350 . S
C1261 H1248 0.929 . S
C1261 C1253 1.433 . S
C1261 N1263 1.384 . S
N1262 C1258 1.427 . S
N1262 C1259 1.384 . S
N1263 C1255 1.427 . S
N1263 C1261 1.384 . S
C551 C360 1.576 . S
C555 C20 1.564 . S
C569 C67 1.598 . S
C573 C258 1.596 . S
C587 C543 1.550 . S
C591 C54 1.532 . S
C605 C101 1.574 . S
C609 C33 1.565 . S
C623 C88 1.576 . S
C627 C292 1.565 . S
C641 C203 1.600 . S
C645 C122 1.597 . S
C659 C462 1.539 . S
C663 C135 1.554 . S
C677 C496 1.577 . S
C681 C156 1.568 . S
C695 C190 1.541 . S
C699 C407 1.555 . S
C713 C237 1.576 . S
C717 C169 1.571 . S
C731 C428 1.565 . S
C735 C224 1.576 . S
C749 C326 1.538 . S
C753 C271 1.553 . S
C767 C530 1.597 . S
C771 C339 1.601 . S
C785 C305 1.567 . S
C789 C373 1.574 . S
C803 C394 1.590 . S
C807 C475 1.596 . S
C821 C509 1.577 . S
C825 C441 1.571 . S
C839 C9 1.221 . S
C843 C5 1.270 . S
C857 C43 1.244 . S
C861 C39 1.291 . S
C875 C77 1.241 . S
C879 C73 1.264 . S
C893 C107 1.251 . S
C897 C111 1.208 . S
C911 C141 1.276 . S
C915 C145 1.239 1_554 S
C929 C179 1.224 . S
C933 C175 1.283 . S
C947 C213 1.225 . S
C951 C209 1.265 . S
C965 C247 1.206 . S
C969 C243 1.254 . S
C983 C281 1.227 1_554 S
C987 C277 1.269 . S
C1001 C311 1.289 . S
C1005 C315 1.245 . S
C1019 C349 1.241 . S
C1023 C345 1.263 . S
C1037 C383 1.206 . S
C1041 C379 1.253 . S
C1055 C417 1.221 . S
C1059 C413 1.270 . S
C1073 C451 1.225 . S
C1077 C447 1.282 . S
C1091 C485 1.228 . S
C1095 C481 1.267 . S
C1109 C515 1.258 . S
C1113 C519 1.218 . S
C1127 C2 1.578 . S
C1131 C36 1.578 . S
C1145 C70 1.522 . S
C1149 C104 1.520 . S
C1163 C138 1.575 . S
C1167 C172 1.576 . S
C1181 C206 1.520 . S
C1185 C240 1.520 . S
C1199 C308 1.575 . S
C1203 C274 1.576 . S
C1217 C342 1.522 . S
C1221 C376 1.521 . S
C1235 C444 1.580 . S
C1239 C410 1.571 . S
C1253 C512 1.520 . S
C1257 C478 1.521 . S
