# Generated by pormake.
# Topology fnt, (5)-cn, num edge types: 1
# Building blocks:
#     Node 0, Type 0, BuildingBlock: BEQFEK_clean_sbu_0, # of connection points: 5
#     Node 1, Type 0, BuildingBlock: BEQFEK_clean_sbu_0, # of connection points: 5
#     Node 2, Type 0, BuildingBlock: BEQFEK_clean_sbu_0, # of connection points: 5
#     Node 3, Type 0, BuildingBlock: BEQFEK_clean_sbu_0, # of connection points: 5
#     Node 4, Type 0, BuildingBlock: BEQFEK_clean_sbu_0, # of connection points: 5
#     Node 5, Type 0, BuildingBlock: BEQFEK_clean_sbu_0, # of connection points: 5
#     Edge 6, Type (0, 0), BuildingBlock: XUDNAN_clean_linker_2, # of connection points: 2
#     Edge 7, Type (0, 0), BuildingBlock: XUDNAN_clean_linker_2, # of connection points: 2
#     Edge 8, Type (0, 0), BuildingBlock: XUDNAN_clean_linker_2, # of connection points: 2
#     Edge 9, Type (0, 0), BuildingBlock: XUDNAN_clean_linker_2, # of connection points: 2
#     Edge 10, Type (0, 0), BuildingBlock: XUDNAN_clean_linker_2, # of connection points: 2
#     Edge 11, Type (0, 0), BuildingBlock: XUDNAN_clean_linker_2, # of connection points: 2
#     Edge 12, Type (0, 0), BuildingBlock: XUDNAN_clean_linker_2, # of connection points: 2
#     Edge 13, Type (0, 0), BuildingBlock: XUDNAN_clean_linker_2, # of connection points: 2
#     Edge 14, Type (0, 0), BuildingBlock: XUDNAN_clean_linker_2, # of connection points: 2
#     Edge 15, Type (0, 0), BuildingBlock: XUDNAN_clean_linker_2, # of connection points: 2
#     Edge 16, Type (0, 0), BuildingBlock: XUDNAN_clean_linker_2, # of connection points: 2
#     Edge 17, Type (0, 0), BuildingBlock: XUDNAN_clean_linker_2, # of connection points: 2
#     Edge 18, Type (0, 0), BuildingBlock: XUDNAN_clean_linker_2, # of connection points: 2
#     Edge 19, Type (0, 0), BuildingBlock: XUDNAN_clean_linker_2, # of connection points: 2
#     Edge 20, Type (0, 0), BuildingBlock: XUDNAN_clean_linker_2, # of connection points: 2
# Relax obj value: 0.222
# Max RMSD: 0.171
# Mean RMSD: 0.171
data_MOF--net-fnt--node1-BEQFEK_clean_sbu_0--edge1-XUDNAN_clean_linker_2
_symmetry_space_group_name_H-M    P1
_symmetry_Int_Tables_number       1
_symmetry_cell_setting            triclinic
loop_
_symmetry_equiv_pos_as_xyz
'x, y, z'
_cell_length_a     25.824737
_cell_length_b     25.844268
_cell_length_c     52.92809
_cell_angle_alpha  89.581244
_cell_angle_beta   90.78087
_cell_angle_gamma 119.87389
loop_
_atom_site_label
_atom_site_type_symbol
_atom_site_fract_x
_atom_site_fract_y
_atom_site_fract_z
_atom_type_partial_charge
Co0 Co 0.15799 0.35519 0.06856 0.0
Co1 Co 0.18819 0.35689 1.01057 0.0
C2 C 0.27577 0.44544 0.0482 0.0
O3 O 0.24008 0.42296 0.06664 0.0
O4 O 0.26048 0.42486 1.02583 0.0
C5 C 0.14539 0.38294 0.11942 0.0
O6 O 0.17914 0.43779 0.11126 0.0
C7 C 0.25066 0.34507 0.96578 0.0
C8 C 0.17857 0.31447 0.93706 0.0
C9 C 0.23634 0.32528 0.94084 0.0
N10 N 0.20283 0.34416 0.97622 0.0
N11 N 0.16038 0.32668 0.95876 0.0
C12 C 0.30888 0.36572 0.97942 0.0
H13 H 0.31513 0.39801 0.99438 0.0
H14 H 0.30907 0.32709 0.98857 0.0
H15 H 0.34671 0.38687 0.96609 0.0
C16 C 0.14344 0.23516 0.06471 0.0
N17 N 0.15663 0.28797 0.05442 0.0
N18 N 0.16727 0.28754 0.03016 0.0
C19 C 0.15992 0.23372 1.02419 0.0
C20 C 0.14541 0.19936 0.04591 0.0
C21 C 0.12476 0.21814 0.09153 0.0
H22 H 0.08319 0.21962 0.09485 0.0
H23 H 0.15986 0.25108 0.10437 0.0
H24 H 0.1169 0.17278 0.096 0.0
O25 O 0.10044 0.37129 0.05042 0.0
O26 O 0.12043 0.37227 1.00972 0.0
H27 H 0.13666 0.22414 0.98483 0.0
H28 H 0.1498 0.16627 0.9972 0.0
C29 C 0.16437 0.21448 0.99808 0.0
H30 H 0.21138 0.23972 0.99196 0.0
H31 H 0.11817 0.32131 0.9619 0.0
O32 O 0.13179 0.33978 0.10438 0.0
C33 C 0.08941 0.37614 1.0273 0.0
Co34 Co 0.79981 0.18138 0.4026 0.0
Co35 Co 0.83661 0.20753 0.34524 0.0
C36 C 0.90224 0.29842 0.38533 0.0
O37 O 0.86982 0.26511 0.40317 0.0
O38 O 0.89262 0.28146 0.36244 0.0
C39 C 0.81177 0.14726 0.45393 0.0
O40 O 0.8646 0.15776 0.44669 0.0
C41 C 0.91205 0.25044 0.29985 0.0
C42 C 0.84821 0.19745 0.26956 0.0
C43 C 0.90692 0.24154 0.27384 0.0
N44 N 0.85878 0.21378 0.31034 0.0
N45 N 0.82087 0.1822 0.29209 0.0
C46 C 0.96749 0.28926 0.31488 0.0
H47 H 0.96612 0.26765 0.33322 0.0
H48 H 0.00806 0.29759 0.30456 0.0
H49 H 0.96986 0.33255 0.31872 0.0
C50 C 0.8133 0.07526 0.39037 0.0
N51 N 0.81827 0.12858 0.3847 0.0
N52 N 0.83878 0.14345 0.36156 0.0
C53 C 0.85102 0.10246 0.35242 0.0
C54 C 0.83415 0.05713 0.37014 0.0
C55 C 0.7825 0.03879 0.41318 0.0
H56 H 0.74867 0.04975 0.41994 0.0
H57 H 0.81589 0.04813 0.42842 0.0
H58 H 0.7603 0.99041 0.40877 0.0
O59 O 0.72819 0.1759 0.38606 0.0
O60 O 0.75289 0.19094 0.34556 0.0
H61 H 0.84923 0.09364 0.3122 0.0
H62 H 0.90633 0.08374 0.32792 0.0
C63 C 0.88234 0.10932 0.32795 0.0
H64 H 0.91553 0.15683 0.32478 0.0
H65 H 0.7762 0.15039 0.29502 0.0
O66 O 0.77811 0.15478 0.43837 0.0
C67 C 0.71485 0.17836 0.36298 0.0
Co68 Co 0.6129 0.80451 0.73736 0.0
Co69 Co 0.62213 0.83166 0.67834 0.0
C70 C 0.59844 0.90359 0.71647 0.0
O71 O 0.60059 0.87426 0.73552 0.0
O72 O 0.60475 0.89019 0.69406 0.0
C73 C 0.63136 0.81897 0.79201 0.0
O74 O 0.63425 0.8706 0.78811 0.0
C75 C 0.66324 0.90693 0.63264 0.0
C76 C 0.64738 0.84118 0.60282 0.0
C77 C 0.66832 0.90132 0.60686 0.0
N78 N 0.64021 0.85261 0.64336 0.0
N79 N 0.63062 0.81349 0.62537 0.0
C80 C 0.6829 0.96334 0.6471 0.0
H81 H 0.69894 0.95974 0.66624 0.0
H82 H 0.71887 0.0022 0.63703 0.0
H83 H 0.64434 0.97065 0.64917 0.0
C84 C 0.73474 0.82699 0.72865 0.0
N85 N 0.68324 0.82208 0.72006 0.0
N86 N 0.68666 0.83137 0.69549 0.0
C87 C 0.74011 0.84128 0.68757 0.0
C88 C 0.77229 0.83881 0.70831 0.0
C89 C 0.74956 0.82703 0.75612 0.0
H90 H 0.7381 0.85703 0.76647 0.0
H91 H 0.7975 0.8425 0.75949 0.0
H92 H 0.72243 0.78127 0.76383 0.0
O93 O 0.54539 0.73269 0.72156 0.0
O94 O 0.55243 0.75115 0.68026 0.0
H95 H 0.80198 0.85199 0.65795 0.0
H96 H 0.76512 0.89568 0.65437 0.0
C97 C 0.75952 0.85212 0.6606 0.0
H98 H 0.72459 0.8167 0.64858 0.0
H99 H 0.61279 0.76784 0.6285 0.0
O100 O 0.62107 0.78424 0.77335 0.0
C101 C 0.52695 0.71677 0.69892 0.0
Co102 Co 0.81364 0.60366 0.06696 0.0
Co103 Co 0.78865 0.61693 1.0087 0.0
C104 C 0.69722 0.58749 0.04989 0.0
O105 O 0.73113 0.58947 0.06802 0.0
O106 O 0.71452 0.59545 1.02706 0.0
C107 C 0.86975 0.5795 0.11024 0.0
O108 O 0.86966 0.53903 0.09538 0.0
C109 C 0.757 0.67203 0.96599 0.0
C110 C 0.78156 0.63701 0.93312 0.0
C111 C 0.7578 0.67276 0.93961 0.0
N112 N 0.77963 0.6379 0.97446 0.0
N113 N 0.7942 0.61723 0.95465 0.0
C114 C 0.73238 0.70059 0.98291 0.0
H115 H 0.72287 0.67998 1.00188 0.0
H116 H 0.76582 0.74852 0.98526 0.0
H117 H 0.69106 0.69695 0.97453 0.0
C118 C 0.90833 0.72726 0.05835 0.0
N119 N 0.86219 0.67588 0.0498 0.0
N120 N 0.85422 0.68089 1.02546 0.0
C121 C 0.8964 0.73518 1.01759 0.0
C122 C 0.93187 0.76635 0.03818 0.0
C123 C 0.92513 0.74011 0.08574 0.0
H124 H 0.8842 0.72109 0.09731 0.0
H125 H 0.95182 0.78865 0.08956 0.0
H126 H 0.95144 0.71867 0.09158 0.0
O127 O 0.81759 0.5388 0.04876 0.0
O128 O 0.80303 0.54897 1.00794 0.0
H129 H 0.94947 0.79399 0.98751 0.0
H130 H 0.87111 0.77086 0.98632 0.0
C131 C 0.90381 0.75608 0.99075 0.0
H132 H 0.89531 0.71903 0.97784 0.0
H133 H 0.81238 0.58915 0.95581 0.0
O134 O 0.84653 0.6101 0.10227 0.0
C135 C 0.81415 0.52254 1.02581 0.0
Co136 Co 0.19637 0.84221 0.39636 0.0
Co137 Co 0.16987 0.80068 0.33924 0.0
C138 C 0.16414 0.71805 0.37969 0.0
O139 O 0.17353 0.75599 0.397 0.0
O140 O 0.16459 0.73024 0.35628 0.0
C141 C 0.18161 0.86458 0.451 0.0
O142 O 0.12393 0.82693 0.44973 0.0
C143 C 0.11058 0.73501 0.29116 0.0
C144 C 0.1321 0.81187 0.2662 0.0
C145 C 0.1013 0.75009 0.2668 0.0
N146 N 0.14488 0.78577 0.30423 0.0
N147 N 0.15797 0.83132 0.289 0.0
C148 C 0.083 0.67393 0.30255 0.0
H149 H 0.07955 0.67612 0.32333 0.0
H150 H 0.03798 0.64452 0.29429 0.0
H151 H 0.11166 0.65426 0.29857 0.0
C152 C 0.09931 0.87043 0.38478 0.0
N153 N 0.13598 0.84949 0.37872 0.0
N154 N 0.11989 0.82325 0.35654 0.0
C155 C 0.0691 0.82119 0.34892 0.0
C156 C 0.05479 0.85269 0.3661 0.0
C157 C 0.11112 0.91158 0.40658 0.0
H158 H 0.15852 0.9324 0.41275 0.0
H159 H 0.08237 0.88606 0.42263 0.0
H160 H 0.1011 0.9473 0.40122 0.0
O161 O 0.27222 0.89109 0.37939 0.0
O162 O 0.25451 0.86794 0.33882 0.0
H163 H 0.04566 0.80643 0.30958 0.0
H164 H 0.98307 0.76724 0.33061 0.0
C165 C 0.03092 0.782 0.32775 0.0
H166 H 0.03543 0.74169 0.32673 0.0
H167 H 0.18325 0.87592 0.29444 0.0
O168 O 0.21366 0.87459 0.43156 0.0
C169 C 0.28958 0.89911 0.35666 0.0
Co170 Co 0.36151 0.20489 0.7354 0.0
Co171 Co 0.35608 0.17843 0.67671 0.0
C172 C 0.44999 0.17899 0.7111 0.0
O173 O 0.42983 0.19202 0.73046 0.0
O174 O 0.42644 0.17349 0.68917 0.0
C175 C 0.37878 0.21359 0.79068 0.0
O176 O 0.42154 0.20084 0.78743 0.0
C177 C 0.34316 0.11423 0.62817 0.0
C178 C 0.29274 0.14696 0.60551 0.0
C179 C 0.31485 0.108 0.60489 0.0
N180 N 0.33708 0.1545 0.64197 0.0
N181 N 0.30779 0.17447 0.62808 0.0
C182 C 0.37001 0.0784 0.63812 0.0
H183 H 0.36766 0.07585 0.65904 0.0
H184 H 0.34683 0.03277 0.62997 0.0
H185 H 0.41767 0.10054 0.63267 0.0
C186 C 0.24217 0.09811 0.73261 0.0
N187 N 0.29306 0.1391 0.7217 0.0
N188 N 0.29037 0.12792 0.69732 0.0
C189 C 0.23743 0.0793 0.69201 0.0
C190 C 0.20554 0.0589 0.71415 0.0
C191 C 0.22766 0.09945 0.75979 0.0
H192 H 0.22965 0.14247 0.76387 0.0
H193 H 0.26171 0.09686 0.77189 0.0
H194 H 0.1827 0.0621 0.76453 0.0
O195 O 0.37427 0.27839 0.71908 0.0
O196 O 0.37044 0.26115 0.67798 0.0
H197 H 0.21477 0.08611 0.65359 0.0
H198 H 0.17252 0.01193 0.66664 0.0
C199 C 0.21703 0.05291 0.66623 0.0
H200 H 0.24944 0.04118 0.6585 0.0
H201 H 0.29603 0.20536 0.6344 0.0
O202 O 0.34928 0.21556 0.77164 0.0
C203 C 0.37606 0.2951 0.69633 0.0
H204 H 0.366 0.49972 1.01414 0.0
H205 H 0.32961 0.48591 0.0945 0.0
H206 H 0.43744 0.53393 0.10375 0.0
H207 H 0.4661 0.455 1.01687 0.0
H208 H 0.51628 0.50386 0.99309 0.0
H209 H 0.43896 0.4837 0.99201 0.0
H210 H 0.46729 0.59483 0.99265 0.0
H211 H 0.5452 0.61595 0.99297 0.0
H212 H 0.51637 0.64324 1.01713 0.0
H213 H 0.54535 0.56254 0.10442 0.0
H214 H 0.64665 0.57959 0.0962 0.0
H215 H 0.61152 0.57345 1.01547 0.0
C216 C 0.38071 0.50883 0.03367 0.0
C217 C 0.33928 0.48864 0.05356 0.0
C218 C 0.36046 0.50106 0.07889 0.0
C219 C 0.42172 0.5283 0.08436 0.0
C220 C 0.46111 0.54368 0.0643 0.0
C221 C 0.44155 0.53567 0.03942 0.0
C222 C 0.49172 0.54923 1.02141 0.0
C223 C 0.47738 0.49469 1.0049 0.0
C224 C 0.506 0.60409 1.00508 0.0
C225 C 0.54162 0.56272 0.04008 0.0
C226 C 0.52351 0.56026 0.06471 0.0
C227 C 0.56055 0.56608 0.0852 0.0
C228 C 0.61778 0.57518 0.08035 0.0
C229 C 0.63708 0.57794 0.0552 0.0
C230 C 0.59842 0.57209 0.03492 0.0
H231 H 0.91128 0.39354 0.41206 0.0
H232 H 0.01319 0.33306 0.36948 0.0
H233 H 0.10061 0.43422 0.37068 0.0
H234 H 0.95864 0.52319 0.38049 0.0
H235 H 0.96341 0.56911 0.40689 0.0
H236 H 0.91338 0.48996 0.408 0.0
H237 H 0.96372 0.48325 0.44962 0.0
H238 H 0.01398 0.56276 0.44867 0.0
H239 H 0.04333 0.51252 0.45072 0.0
H240 H 0.16719 0.54217 0.36788 0.0
H241 H 0.21112 0.65126 0.3632 0.0
H242 H 0.07107 0.64512 0.40937 0.0
C243 C 0.95293 0.40145 0.40401 0.0
C244 C 0.95602 0.3559 0.3908 0.0
C245 C 0.01027 0.36772 0.37963 0.0
C246 C 0.06025 0.42488 0.38039 0.0
C247 C 0.05542 0.46976 0.39259 0.0
C248 C 0.00349 0.45879 0.40451 0.0
C249 C 0.00789 0.51658 0.41333 0.0
C250 C 0.95789 0.52519 0.40145 0.0
C251 C 0.0072 0.5189 0.44231 0.0
C252 C 0.06871 0.56157 0.40317 0.0
C253 C 0.09569 0.53343 0.39161 0.0
C254 C 0.14782 0.56496 0.37767 0.0
C255 C 0.17242 0.62673 0.37504 0.0
C256 C 0.14533 0.65618 0.3866 0.0
C257 C 0.09382 0.62354 0.40134 0.0
H258 H 0.48863 0.12822 0.67642 0.0
H259 H 0.50909 0.18246 0.75506 0.0
H260 H 0.56133 0.12643 0.76405 0.0
H261 H 0.4489 0.98599 0.68715 0.0
H262 H 0.48756 0.976 0.6612 0.0
H263 H 0.46513 0.03147 0.65916 0.0
H264 H 0.57412 0.11369 0.65061 0.0
H265 H 0.59701 0.05822 0.65206 0.0
H266 H 0.63291 0.12309 0.67213 0.0
H267 H 0.59187 0.04872 0.76635 0.0
H268 H 0.6082 0.96308 0.76064 0.0
H269 H 0.56737 0.95987 0.68063 0.0
C270 C 0.50627 0.13049 0.6953 0.0
C271 C 0.4946 0.15966 0.71502 0.0
C272 C 0.51752 0.16052 0.7396 0.0
C273 C 0.54732 0.12881 0.74492 0.0
C274 C 0.5546 0.09728 0.72538 0.0
C275 C 0.53592 0.09898 0.70092 0.0
C276 C 0.54286 0.056 0.68396 0.0
C277 C 0.48253 0.00965 0.6722 0.0
C278 C 0.58952 0.08978 0.66348 0.0
C279 C 0.56531 0.02767 0.703 0.0
C280 C 0.57259 0.05253 0.72671 0.0
C281 C 0.58782 0.02989 0.74774 0.0
C282 C 0.59642 0.9809 0.74437 0.0
C283 C 0.58951 0.95514 0.72016 0.0
C284 C 0.57411 0.97927 0.69929 0.0
H285 H 0.47519 0.62619 0.73323 0.0
H286 H 0.48015 0.66451 0.65301 0.0
H287 H 0.42719 0.55678 0.64386 0.0
H288 H 0.51399 0.52226 0.72848 0.0
H289 H 0.46728 0.473 0.753 0.0
H290 H 0.49052 0.55096 0.75418 0.0
H291 H 0.38035 0.52639 0.75594 0.0
H292 H 0.35655 0.44791 0.75538 0.0
H293 H 0.32781 0.47881 0.73217 0.0
H294 H 0.39435 0.44804 0.64283 0.0
H295 H 0.37662 0.34604 0.65044 0.0
H296 H 0.3943 0.37982 0.73123 0.0
C297 C 0.46291 0.61201 0.7138 0.0
C298 C 0.48194 0.65382 0.69387 0.0
C299 C 0.46591 0.63333 0.66865 0.0
C300 C 0.43575 0.57214 0.66324 0.0
C301 C 0.42121 0.53215 0.68326 0.0
C302 C 0.43317 0.55123 0.70811 0.0
C303 C 0.42025 0.50032 0.72593 0.0
C304 C 0.47635 0.51239 0.74127 0.0
C305 C 0.36812 0.4876 0.74338 0.0
C306 C 0.40263 0.45046 0.70712 0.0
C307 C 0.40235 0.46925 0.68264 0.0
C308 C 0.39292 0.43234 0.66196 0.0
C309 C 0.38342 0.3747 0.66645 0.0
C310 C 0.38402 0.35493 0.69142 0.0
C311 C 0.39299 0.39328 0.71192 0.0
H312 H 0.84195 0.45824 0.05883 0.0
H313 H 0.83457 0.4923 0.97883 0.0
H314 H 0.89342 0.44347 0.96974 0.0
H315 H 0.98612 0.50077 0.06098 0.0
H316 H 0.98271 0.44641 0.08344 0.0
H317 H 0.92645 0.46784 0.08353 0.0
H318 H 0.84309 0.35795 0.07787 0.0
H319 H 0.89892 0.33546 0.07848 0.0
H320 H 0.84702 0.31442 0.05227 0.0
H321 H 0.97021 0.41119 0.97029 0.0
H322 H 0.05261 0.39155 0.98023 0.0
H323 H 0.01177 0.38215 0.06003 0.0
C324 C 0.85076 0.45357 0.03931 0.0
C325 C 0.83397 0.47948 1.0196 0.0
C326 C 0.8467 0.47259 0.99428 0.0
C327 C 0.88023 0.44494 0.98892 0.0
C328 C 0.89987 0.4238 1.00904 0.0
C329 C 0.8846 0.42676 0.03372 0.0
C330 C 0.91763 0.40842 0.05224 0.0
C331 C 0.95546 0.45888 0.07113 0.0
C332 C 0.87406 0.35061 0.06602 0.0
C333 C 0.95643 0.39804 0.03425 0.0
C334 C 0.9448 0.40589 1.00938 0.0
C335 C 0.97876 0.40356 0.98964 0.0
C336 C 0.02576 0.39284 0.99549 0.0
C337 C 0.0387 0.38536 1.02091 0.0
C338 C 0.00291 0.38732 0.04039 0.0
H339 H 0.37432 0.97095 0.391 0.0
H340 H 0.34482 0.9361 0.31044 0.0
H341 H 0.44855 0.01656 0.30261 0.0
H342 H 0.47171 0.13327 0.38687 0.0
H343 H 0.51791 0.13453 0.41297 0.0
H344 H 0.43983 0.07878 0.4118 0.0
H345 H 0.46699 -0.00505 0.41556 0.0
H346 H 0.54484 0.05034 0.41707 0.0
H347 H 0.51816 0.99275 0.39334 0.0
H348 H 0.55835 0.09555 0.30427 0.0
H349 H 0.66512 0.15837 0.31527 0.0
H350 H 0.62018 0.14079 0.39479 0.0
C351 C 0.38914 0.98044 0.37162 0.0
C352 C 0.35127 0.94716 0.35132 0.0
C353 C 0.37297 0.96097 0.32631 0.0
C354 C 0.43166 0.00688 0.32168 0.0
C355 C 0.46771 0.03873 0.34223 0.0
C356 C 0.44713 0.02584 0.3667 0.0
C357 C 0.4956 0.06289 0.38574 0.0
C358 C 0.48034 0.10486 0.40019 0.0
C359 C 0.50707 0.02284 0.40398 0.0
C360 C 0.54756 0.09741 0.36825 0.0
C361 C 0.53051 0.08381 0.3432 0.0
C362 C 0.57198 0.10707 0.3238 0.0
C363 C 0.63262 0.14299 0.33025 0.0
C364 C 0.65123 0.15468 0.35594 0.0
C365 C 0.60761 0.13339 0.37499 0.0
H366 H 0.04518 0.11109 1.02483 0.0
H367 H 0.19981 0.1457 0.07027 0.0
H368 H 0.16554 0.03712 0.07102 0.0
H369 H 0.9416 0.9778 0.05615 0.0
H370 H 0.90024 0.94214 1.02772 0.0
H371 H 0.93904 0.02218 0.03023 0.0
H372 H -0.00381 0.03019 0.98911 0.0
H373 H 0.95802 0.95002 0.98666 0.0
H374 H 0.03849 0.99209 0.9871 0.0
H375 H 0.11294 0.92475 0.06671 0.0
H376 H 0.04238 0.81668 0.0606 0.0
H377 H 0.92191 0.85844 1.01913 0.0
C378 C 0.0717 0.09549 0.03484 0.0
C379 C 0.12496 0.13559 0.04736 0.0
C380 C 0.15879 0.11469 0.06057 0.0
C381 C 0.13988 0.05355 0.06095 0.0
C382 C 0.08721 0.01481 0.04806 0.0
C383 C 0.05342 0.03501 0.03544 0.0
C384 C -0.00262 0.98449 1.02397 0.0
C385 C 0.94127 0.98148 0.0352 0.0
C386 C -0.00243 0.98952 0.99499 0.0
C387 C 0.00436 0.93241 0.03235 0.0
C388 C 0.05672 0.95064 0.04595 0.0
C389 C 0.07189 0.90996 0.05606 0.0
C390 C 0.03174 0.84898 0.05256 0.0
C391 C 0.97723 0.82988 0.03935 0.0
C392 C 0.9639 0.87209 0.02887 0.0
H393 H -0.00436 0.87621 0.404 0.0
H394 H 0.00519 0.86756 0.32238 0.0
H395 H 0.9233 0.8882 0.31763 0.0
H396 H 0.83839 0.84173 0.41157 0.0
H397 H 0.85965 0.90246 0.43339 0.0
H398 H 0.9023 0.86456 0.43216 0.0
H399 H -0.00091 0.96517 0.42404 0.0
H400 H 0.95688 0.00306 0.42584 0.0
H401 H 0.00057 0.01172 0.3982 0.0
H402 H 0.84633 0.91709 0.32074 0.0
H403 H 0.8082 0.98566 0.32888 0.0
H404 H 0.87318 0.00738 0.40624 0.0
C405 C 0.9808 0.87832 0.38507 0.0
C406 C 0.00548 0.86664 0.36365 0.0
C407 C 0.9844 0.87115 0.33932 0.0
C408 C 0.93784 0.88348 0.33635 0.0
C409 C 0.91474 0.89479 0.35782 0.0
C410 C 0.93747 0.89524 0.38164 0.0
C411 C 0.91761 0.92544 0.40055 0.0
C412 C 0.87707 0.88086 0.4206 0.0
C413 C 0.97174 0.97956 0.41286 0.0
C414 C 0.88258 0.9442 0.38328 0.0
C415 C 0.87824 0.92236 0.35912 0.0
C416 C 0.84986 0.93498 0.33951 0.0
C417 C 0.82892 0.97438 0.34424 0.0
C418 C 0.83982 0.00327 0.36789 0.0
C419 C 0.8641 0.9857 0.38802 0.0
H420 H 0.11578 0.06806 0.69277 0.0
H421 H 0.15389 0.95292 0.73973 0.0
H422 H 0.04538 0.87837 0.74104 0.0
H423 H 0.98462 0.04139 0.72415 0.0
H424 H 0.9472 0.04446 0.69565 0.0
H425 H 0.02741 0.08571 0.6977 0.0
H426 H 0.0331 0.03272 0.65723 0.0
H427 H 0.95275 0.99072 0.65524 0.0
H428 H -0.00504 0.95235 0.65619 0.0
H429 H 0.9324 0.81776 0.73695 0.0
H430 H 0.82385 0.78 0.73113 0.0
H431 H 0.86325 0.93908 0.68854 0.0
C432 C 0.10101 0.02693 0.70322 0.0
C433 C 0.14202 0.01525 0.71604 0.0
C434 C 0.12216 0.96181 0.72982 0.0
C435 C 0.06107 0.91944 0.7305 0.0
C436 C 0.02141 0.93199 0.71734 0.0
C437 C 0.04069 0.98474 0.70416 0.0
C438 C 0.98948 0.98932 0.69261 0.0
C439 C 0.98704 0.0434 0.70317 0.0
C440 C -0.00721 0.99138 0.6636 0.0
C441 C 0.938 0.93128 0.70167 0.0
C442 C 0.95708 0.89821 0.71555 0.0
C443 C 0.91697 0.84325 0.72611 0.0
C444 C 0.85573 0.82226 0.72277 0.0
C445 C 0.83588 0.85681 0.70937 0.0
C446 C 0.87749 0.91144 0.69848 0.0
H447 H 0.22601 0.32624 0.88954 0.0
H448 H 0.31944 0.28844 0.94919 0.0
H449 H 0.36927 0.26015 0.91733 0.0
H450 H 0.1958 0.20107 0.85206 0.0
H451 H 0.20445 0.23874 0.8223 0.0
H452 H 0.18059 0.26187 0.84968 0.0
H453 H 0.26853 0.36988 0.84439 0.0
H454 H 0.29243 0.34719 0.81687 0.0
H455 H 0.34378 0.38284 0.84284 0.0
H456 H 0.40633 0.23184 0.87854 0.0
H457 H 0.42617 0.20532 0.83635 0.0
H458 H 0.30371 0.25599 0.80256 0.0
C459 C 0.25765 0.31289 0.89595 0.0
C460 C 0.27031 0.31193 0.92198 0.0
C461 C 0.31097 0.29273 0.92948 0.0
C462 C 0.33897 0.27559 0.91145 0.0
C463 C 0.32528 0.27702 0.88598 0.0
C464 C 0.28542 0.29506 0.87826 0.0
C465 C 0.27585 0.28964 0.84989 0.0
C466 C 0.21029 0.24518 0.8431 0.0
C467 C 0.29639 0.35104 0.83779 0.0
C468 C 0.31639 0.26548 0.84284 0.0
C469 C 0.3448 0.25876 0.86386 0.0
C470 C 0.38435 0.237 0.86195 0.0
C471 C 0.39528 0.22198 0.8379 0.0
C472 C 0.36644 0.22838 0.81612 0.0
C473 C 0.32639 0.25031 0.8188 0.0
H474 H 0.06011 0.27655 0.13991 0.0
H475 H 0.17327 0.4647 0.15717 0.0
H476 H 0.12774 0.44812 0.19927 0.0
H477 H 0.9301 0.25993 0.16915 0.0
H478 H 0.90582 0.18585 0.18099 0.0
H479 H 0.95007 0.21146 0.15285 0.0
H480 H 0.028 0.18802 0.17311 0.0
H481 H 0.98385 0.1621 0.20131 0.0
H482 H 0.061 0.22008 0.20334 0.0
H483 H 0.0661 0.41246 0.23852 0.0
H484 H -0.00683 0.36004 0.27222 0.0
H485 H 0.92038 0.19484 0.22984 0.0
C486 C 0.07588 0.31415 0.15265 0.0
C487 C 0.12046 0.37195 0.14524 0.0
C488 C 0.13928 0.42002 0.1624 0.0
C489 C 0.11373 0.41105 0.18639 0.0
C490 C 0.06938 0.35373 0.19297 0.0
C491 C 0.05065 0.30605 0.17665 0.0
C492 C 0.00053 0.24944 0.18799 0.0
C493 C 0.94325 0.22527 0.17178 0.0
C494 C 0.0195 0.20212 0.19166 0.0
C495 C -0.00639 0.2729 0.21314 0.0
C496 C 0.034 0.3331 0.21569 0.0
C497 C 0.03498 0.36509 0.23694 0.0
C498 C -0.00628 0.33474 0.25613 0.0
C499 C 0.95223 0.27293 0.25404 0.0
C500 C 0.95211 0.24193 0.23213 0.0
H501 H 0.83268 0.06753 0.47991 0.0
H502 H 0.7372 0.16558 0.48385 0.0
H503 H 0.69511 0.11804 0.52502 0.0
H504 H 0.71359 0.9319 0.50351 0.0
H505 H 0.76109 0.91078 0.52059 0.0
H506 H 0.78848 0.95708 0.49289 0.0
H507 H 0.87823 0.03705 0.51884 0.0
H508 H 0.85111 0.99096 0.54665 0.0
H509 H 0.86476 0.06648 0.54723 0.0
H510 H 0.66283 0.05892 0.5656 0.0
H511 H 0.63498 0.98569 0.60042 0.0
H512 H 0.7449 0.92017 0.56822 0.0
C513 C 0.80376 0.07972 0.4897 0.0
C514 C 0.78887 0.12092 0.47901 0.0
C515 C 0.74942 0.13444 0.4919 0.0
C516 C 0.72551 0.10781 0.51529 0.0
C517 C 0.74069 0.06698 0.52527 0.0
C518 C 0.77833 0.05242 0.51274 0.0
C519 C 0.7836 0.00355 0.52648 0.0
C520 C 0.76029 0.94752 0.50988 0.0
C521 C 0.84827 0.02587 0.53533 0.0
C522 C 0.74297 0.99278 0.54868 0.0
C523 C 0.71949 0.03057 0.54787 0.0
C524 C 0.68104 0.02921 0.56644 0.0
C525 C 0.66576 0.98778 0.58622 0.0
C526 C 0.68823 0.9478 0.58705 0.0
C527 C 0.72723 0.95039 0.56801 0.0
H528 H 0.63891 0.7199 0.80589 0.0
H529 H 0.6592 0.88548 0.83531 0.0
H530 H 0.69082 0.86492 0.8766 0.0
H531 H 0.58233 0.63294 0.86383 0.0
H532 H 0.62198 0.59286 0.85922 0.0
H533 H 0.59834 0.61931 0.83231 0.0
H534 H 0.70728 0.67611 0.81637 0.0
H535 H 0.73129 0.65003 0.84325 0.0
H536 H 0.76571 0.72889 0.83694 0.0
H537 H 0.72657 0.82956 0.91393 0.0
H538 H 0.75999 0.78047 0.9448 0.0
H539 H 0.71295 0.6358 0.89188 0.0
C540 C 0.64929 0.75154 0.82108 0.0
C541 C 0.64635 0.80431 0.8173 0.0
C542 C 0.6609 0.8447 0.83769 0.0
C543 C 0.67897 0.83343 0.86124 0.0
C544 C 0.68209 0.78143 0.86423 0.0
C545 C 0.66731 0.74094 0.84476 0.0
C546 C 0.67577 0.68913 0.85275 0.0
C547 C 0.61604 0.63007 0.85198 0.0
C548 C 0.72282 0.68588 0.83635 0.0
C549 C 0.69816 0.70711 0.87967 0.0
C550 C 0.70143 0.76044 0.88592 0.0
C551 C 0.72294 0.78709 0.90942 0.0
C552 C 0.74118 0.75831 0.92705 0.0
C553 C 0.73722 0.70297 0.92128 0.0
C554 C 0.7158 0.67759 0.8971 0.0
H555 H 0.89976 0.67476 0.14187 0.0
H556 H 0.91055 0.51314 0.13493 0.0
H557 H 0.96672 0.53623 0.1753 0.0
H558 H 0.04648 0.76525 0.166 0.0
H559 H 0.0268 0.80687 0.18717 0.0
H560 H 0.98367 0.77534 0.15872 0.0
H561 H 0.88736 0.71917 0.18513 0.0
H562 H 0.93024 0.75059 0.21369 0.0
H563 H 0.88435 0.67082 0.21049 0.0
H564 H 0.02583 0.57938 0.21577 0.0
H565 H 0.08451 0.64027 0.25237 0.0
H566 H 0.0359 0.77385 0.23261 0.0
C567 C 0.91316 0.64374 0.149 0.0
C568 C 0.90028 0.59186 0.13527 0.0
C569 C 0.9196 0.55304 0.14512 0.0
C570 C 0.95152 0.56573 0.16807 0.0
C571 C 0.96401 0.61753 0.181 0.0
C572 C 0.94545 0.65595 0.1718 0.0
C573 C 0.96706 0.71006 0.18872 0.0
C574 C 0.00847 0.76778 0.17429 0.0
C575 C 0.91409 0.71279 0.20019 0.0
C576 C 0.00113 0.69639 0.20871 0.0
C577 C -0.00155 0.64258 0.20408 0.0
C578 C 0.0276 0.62125 0.21975 0.0
C579 C 0.06045 0.65591 0.24066 0.0
C580 C 0.06395 0.71131 0.24568 0.0
C581 C 0.03383 0.73152 0.22938 0.0
H582 H 0.21179 0.04237 0.57809 0.0
H583 H 0.39539 0.0814 0.58387 0.0
H584 H 0.37971 0.01877 0.54615 0.0
H585 H 0.14894 0.88657 0.55732 0.0
H586 H 0.09489 0.89022 0.53658 0.0
H587 H 0.12005 0.93531 0.56475 0.0
H588 H 0.15141 0.03017 0.53774 0.0
H589 H 0.12672 0.98551 0.5095 0.0
H590 H 0.20232 0.04665 0.51199 0.0
H591 H 0.34652 0.96079 0.50525 0.0
H592 H 0.29636 0.90443 0.46648 0.0
H593 H 0.13219 0.89774 0.48886 0.0
C594 C 0.24846 0.03706 0.57157 0.0
C595 C 0.30474 0.06632 0.58391 0.0
C596 C 0.35171 0.05854 0.5749 0.0
C597 C 0.34325 0.02336 0.55342 0.0
C598 C 0.2873 -0.00437 0.5415 0.0
C599 C 0.24042 0.00132 0.5505 0.0
C600 C 0.18493 0.96756 0.5341 0.0
C601 C 0.13421 0.9169 0.54909 0.0
C602 C 0.16522 0.01002 0.52266 0.0
C603 C 0.20825 0.9432 0.51401 0.0
C604 C 0.26749 0.96013 0.51858 0.0
C605 C 0.2999 0.94643 0.50175 0.0
C606 C 0.27109 0.91462 0.47973 0.0
C607 C 0.21023 0.89615 0.47483 0.0
C608 C 0.17839 0.91024 0.49237 0.0
loop_
_geom_bond_atom_site_label_1
_geom_bond_atom_site_label_2
_geom_bond_distance
_geom_bond_site_symmetry_2
_ccdc_geom_bond_type
Co0 O3 1.970 . S
Co0 N17 1.989 . S
Co0 O25 1.967 . S
Co0 O32 1.920 . S
Co1 O4 1.966 . S
Co1 N10 2.022 . S
Co1 N18 1.980 1_556 S
Co1 O26 1.941 . S
C2 O3 1.258 . S
C2 O4 1.263 1_554 S
O3 Co0 1.970 . S
O3 C2 1.258 . S
O4 Co1 1.966 . S
O4 C2 1.263 1_556 S
C5 O6 1.235 . S
C5 O32 1.289 . S
O6 C5 1.235 . S
C7 C9 1.400 . S
C7 N10 1.351 . S
C7 C12 1.501 . S
C8 C9 1.387 . S
C8 N11 1.341 . S
C9 C7 1.400 . S
C9 C8 1.387 . S
N10 Co1 2.022 . S
N10 C7 1.351 . S
N10 N11 1.365 . S
N11 C8 1.341 . S
N11 N10 1.365 . S
N11 H31 0.862 . S
C12 C7 1.501 . S
C12 H13 0.961 . S
C12 H14 0.961 . S
C12 H15 0.960 . S
H13 C12 0.961 . S
H14 C12 0.961 . S
H15 C12 0.960 . S
C16 N17 1.342 . S
C16 C20 1.401 . S
C16 C21 1.499 . S
N17 Co0 1.989 . S
N17 C16 1.342 . S
N17 N18 1.416 . S
N18 Co1 1.980 1_554 S
N18 N17 1.416 . S
N18 C19 1.337 1_554 S
C19 N18 1.337 1_556 S
C19 C20 1.396 1_556 S
C19 C29 1.510 . S
C20 C16 1.401 . S
C20 C19 1.396 1_554 S
C21 C16 1.499 . S
C21 H22 0.959 . S
C21 H23 0.960 . S
C21 H24 0.961 . S
H22 C21 0.959 . S
H23 C21 0.960 . S
H24 C21 0.961 . S
O25 Co0 1.967 . S
O25 C33 1.258 . S
O26 Co1 1.941 . S
O26 C33 1.266 1_556 S
H27 C29 0.959 . S
H28 C29 0.961 . S
C29 C19 1.510 . S
C29 H27 0.959 . S
C29 H28 0.961 . S
C29 H30 0.960 . S
H30 C29 0.960 . S
H31 N11 0.862 . S
O32 Co0 1.920 . S
O32 C5 1.289 . S
C33 O25 1.258 . S
C33 O26 1.266 1_554 S
Co34 O37 1.970 . S
Co34 N51 1.989 . S
Co34 O59 1.967 . S
Co34 O66 1.920 . S
Co35 O38 1.966 . S
Co35 N44 2.022 . S
Co35 N52 1.993 . S
Co35 O60 1.941 . S
C36 O37 1.258 . S
C36 O38 1.263 . S
O37 Co34 1.970 . S
O37 C36 1.258 . S
O38 Co35 1.966 . S
O38 C36 1.263 . S
C39 O40 1.235 . S
C39 O66 1.289 . S
O40 C39 1.235 . S
C41 C43 1.400 . S
C41 N44 1.351 . S
C41 C46 1.501 . S
C42 C43 1.387 . S
C42 N45 1.341 . S
C43 C41 1.400 . S
C43 C42 1.387 . S
N44 Co35 2.022 . S
N44 C41 1.351 . S
N44 N45 1.365 . S
N45 C42 1.341 . S
N45 N44 1.365 . S
N45 H65 0.862 . S
C46 C41 1.501 . S
C46 H47 0.961 . S
C46 H48 0.961 1_655 S
C46 H49 0.960 . S
H47 C46 0.961 . S
H48 C46 0.961 1_455 S
H49 C46 0.960 . S
C50 N51 1.342 . S
C50 C54 1.401 . S
C50 C55 1.499 . S
N51 Co34 1.989 . S
N51 C50 1.342 . S
N51 N52 1.388 . S
N52 Co35 1.993 . S
N52 N51 1.388 . S
N52 C53 1.346 . S
C53 N52 1.346 . S
C53 C54 1.396 . S
C53 C63 1.510 . S
C54 C50 1.401 . S
C54 C53 1.396 . S
C55 C50 1.499 . S
C55 H56 0.959 . S
C55 H57 0.960 . S
C55 H58 0.961 . S
H56 C55 0.959 . S
H57 C55 0.960 . S
H58 C55 0.961 . S
O59 Co34 1.967 . S
O59 C67 1.258 . S
O60 Co35 1.941 . S
O60 C67 1.266 . S
H61 C63 0.959 . S
H62 C63 0.961 . S
C63 C53 1.510 . S
C63 H61 0.959 . S
C63 H62 0.961 . S
C63 H64 0.960 . S
H64 C63 0.960 . S
H65 N45 0.862 . S
O66 Co34 1.920 . S
O66 C39 1.289 . S
C67 O59 1.258 . S
C67 O60 1.266 . S
Co68 O71 1.970 . S
Co68 N85 1.989 . S
Co68 O93 1.967 . S
Co68 O100 1.920 . S
Co69 O72 1.966 . S
Co69 N78 2.022 . S
Co69 N86 1.993 . S
Co69 O94 1.941 . S
C70 O71 1.258 . S
C70 O72 1.263 . S
O71 Co68 1.970 . S
O71 C70 1.258 . S
O72 Co69 1.966 . S
O72 C70 1.263 . S
C73 O74 1.235 . S
C73 O100 1.289 . S
O74 C73 1.235 . S
C75 C77 1.400 . S
C75 N78 1.351 . S
C75 C80 1.501 . S
C76 C77 1.387 . S
C76 N79 1.341 . S
C77 C75 1.400 . S
C77 C76 1.387 . S
N78 Co69 2.022 . S
N78 C75 1.351 . S
N78 N79 1.365 . S
N79 C76 1.341 . S
N79 N78 1.365 . S
N79 H99 0.862 . S
C80 C75 1.501 . S
C80 H81 0.961 . S
C80 H82 0.961 1_565 S
C80 H83 0.960 . S
H81 C80 0.961 . S
H82 C80 0.961 1_545 S
H83 C80 0.960 . S
C84 N85 1.342 . S
C84 C88 1.401 . S
C84 C89 1.499 . S
N85 Co68 1.989 . S
N85 C84 1.342 . S
N85 N86 1.388 . S
N86 Co69 1.993 . S
N86 N85 1.388 . S
N86 C87 1.346 . S
C87 N86 1.346 . S
C87 C88 1.396 . S
C87 C97 1.510 . S
C88 C84 1.401 . S
C88 C87 1.396 . S
C89 C84 1.499 . S
C89 H90 0.959 . S
C89 H91 0.960 . S
C89 H92 0.961 . S
H90 C89 0.959 . S
H91 C89 0.960 . S
H92 C89 0.961 . S
O93 Co68 1.967 . S
O93 C101 1.258 . S
O94 Co69 1.941 . S
O94 C101 1.266 . S
H95 C97 0.959 . S
H96 C97 0.961 . S
C97 C87 1.510 . S
C97 H95 0.959 . S
C97 H96 0.961 . S
C97 H98 0.960 . S
H98 C97 0.960 . S
H99 N79 0.862 . S
O100 Co68 1.920 . S
O100 C73 1.289 . S
C101 O93 1.258 . S
C101 O94 1.266 . S
Co102 O105 1.970 . S
Co102 N119 1.989 . S
Co102 O127 1.967 . S
Co102 O134 1.920 . S
Co103 O106 1.966 . S
Co103 N112 2.022 . S
Co103 N120 1.980 1_556 S
Co103 O128 1.941 . S
C104 O105 1.258 . S
C104 O106 1.263 1_554 S
O105 Co102 1.970 . S
O105 C104 1.258 . S
O106 Co103 1.966 . S
O106 C104 1.263 1_556 S
C107 O108 1.235 . S
C107 O134 1.289 . S
O108 C107 1.235 . S
C109 C111 1.400 . S
C109 N112 1.351 . S
C109 C114 1.501 . S
C110 C111 1.387 . S
C110 N113 1.341 . S
C111 C109 1.400 . S
C111 C110 1.387 . S
N112 Co103 2.022 . S
N112 C109 1.351 . S
N112 N113 1.365 . S
N113 C110 1.341 . S
N113 N112 1.365 . S
N113 H133 0.862 . S
C114 C109 1.501 . S
C114 H115 0.961 . S
C114 H116 0.961 . S
C114 H117 0.960 . S
H115 C114 0.961 . S
H116 C114 0.961 . S
H117 C114 0.960 . S
C118 N119 1.342 . S
C118 C122 1.401 . S
C118 C123 1.499 . S
N119 Co102 1.989 . S
N119 C118 1.342 . S
N119 N120 1.416 . S
N120 Co103 1.980 1_554 S
N120 N119 1.416 . S
N120 C121 1.337 1_554 S
C121 N120 1.337 1_556 S
C121 C122 1.396 1_556 S
C121 C131 1.510 . S
C122 C118 1.401 . S
C122 C121 1.396 1_554 S
C123 C118 1.499 . S
C123 H124 0.959 . S
C123 H125 0.960 . S
C123 H126 0.961 . S
H124 C123 0.959 . S
H125 C123 0.960 . S
H126 C123 0.961 . S
O127 Co102 1.967 . S
O127 C135 1.258 . S
O128 Co103 1.941 . S
O128 C135 1.266 1_556 S
H129 C131 0.959 . S
H130 C131 0.961 . S
C131 C121 1.510 . S
C131 H129 0.959 . S
C131 H130 0.961 . S
C131 H132 0.960 . S
H132 C131 0.960 . S
H133 N113 0.862 . S
O134 Co102 1.920 . S
O134 C107 1.289 . S
C135 O127 1.258 . S
C135 O128 1.266 1_554 S
Co136 O139 1.970 . S
Co136 N153 1.989 . S
Co136 O161 1.967 . S
Co136 O168 1.920 . S
Co137 O140 1.966 . S
Co137 N146 2.022 . S
Co137 N154 1.993 . S
Co137 O162 1.941 . S
C138 O139 1.258 . S
C138 O140 1.263 . S
O139 Co136 1.970 . S
O139 C138 1.258 . S
O140 Co137 1.966 . S
O140 C138 1.263 . S
C141 O142 1.235 . S
C141 O168 1.289 . S
O142 C141 1.235 . S
C143 C145 1.400 . S
C143 N146 1.351 . S
C143 C148 1.501 . S
C144 C145 1.387 . S
C144 N147 1.341 . S
C145 C143 1.400 . S
C145 C144 1.387 . S
N146 Co137 2.022 . S
N146 C143 1.351 . S
N146 N147 1.365 . S
N147 C144 1.341 . S
N147 N146 1.365 . S
N147 H167 0.862 . S
C148 C143 1.501 . S
C148 H149 0.961 . S
C148 H150 0.961 1_455 S
C148 H151 0.960 . S
H149 C148 0.961 . S
H150 C148 0.961 1_655 S
H151 C148 0.960 . S
C152 N153 1.342 . S
C152 C156 1.401 . S
C152 C157 1.499 . S
N153 Co136 1.989 . S
N153 C152 1.342 . S
N153 N154 1.388 . S
N154 Co137 1.993 . S
N154 N153 1.388 . S
N154 C155 1.346 . S
C155 N154 1.346 . S
C155 C156 1.396 . S
C155 C165 1.510 . S
C156 C152 1.401 . S
C156 C155 1.396 . S
C157 C152 1.499 . S
C157 H158 0.959 . S
C157 H159 0.960 . S
C157 H160 0.961 . S
H158 C157 0.959 . S
H159 C157 0.960 . S
H160 C157 0.961 . S
O161 Co136 1.967 . S
O161 C169 1.258 . S
O162 Co137 1.941 . S
O162 C169 1.266 . S
H163 C165 0.959 . S
H164 C165 0.961 . S
C165 C155 1.510 . S
C165 H163 0.959 . S
C165 H164 0.961 . S
C165 H166 0.960 . S
H166 C165 0.960 . S
H167 N147 0.862 . S
O168 Co136 1.920 . S
O168 C141 1.289 . S
C169 O161 1.258 . S
C169 O162 1.266 . S
Co170 O173 1.970 . S
Co170 N187 1.989 . S
Co170 O195 1.967 . S
Co170 O202 1.920 . S
Co171 O174 1.966 . S
Co171 N180 2.022 . S
Co171 N188 1.993 . S
Co171 O196 1.941 . S
C172 O173 1.258 . S
C172 O174 1.263 . S
O173 Co170 1.970 . S
O173 C172 1.258 . S
O174 Co171 1.966 . S
O174 C172 1.263 . S
C175 O176 1.235 . S
C175 O202 1.289 . S
O176 C175 1.235 . S
C177 C179 1.400 . S
C177 N180 1.351 . S
C177 C182 1.501 . S
C178 C179 1.387 . S
C178 N181 1.341 . S
C179 C177 1.400 . S
C179 C178 1.387 . S
N180 Co171 2.022 . S
N180 C177 1.351 . S
N180 N181 1.365 . S
N181 C178 1.341 . S
N181 N180 1.365 . S
N181 H201 0.862 . S
C182 C177 1.501 . S
C182 H183 0.961 . S
C182 H184 0.961 1_545 S
C182 H185 0.960 . S
H183 C182 0.961 . S
H184 C182 0.961 1_565 S
H185 C182 0.960 . S
C186 N187 1.342 . S
C186 C190 1.401 . S
C186 C191 1.499 . S
N187 Co170 1.989 . S
N187 C186 1.342 . S
N187 N188 1.388 . S
N188 Co171 1.993 . S
N188 N187 1.388 . S
N188 C189 1.346 . S
C189 N188 1.346 . S
C189 C190 1.396 . S
C189 C199 1.510 . S
C190 C186 1.401 . S
C190 C189 1.396 . S
C191 C186 1.499 . S
C191 H192 0.959 . S
C191 H193 0.960 . S
C191 H194 0.961 . S
H192 C191 0.959 . S
H193 C191 0.960 . S
H194 C191 0.961 . S
O195 Co170 1.967 . S
O195 C203 1.258 . S
O196 Co171 1.941 . S
O196 C203 1.266 . S
H197 C199 0.959 . S
H198 C199 0.961 . S
C199 C189 1.510 . S
C199 H197 0.959 . S
C199 H198 0.961 . S
C199 H200 0.960 . S
H200 C199 0.960 . S
H201 N181 0.862 . S
O202 Co170 1.920 . S
O202 C175 1.289 . S
C203 O195 1.258 . S
C203 O196 1.266 . S
H204 C216 0.930 1_556 S
H205 C218 0.930 . S
H206 C219 0.930 . S
H207 C223 0.971 . S
H208 C223 0.959 . S
H209 C223 0.961 . S
H210 C224 0.960 . S
H211 C224 0.961 . S
H212 C224 0.959 . S
H213 C227 0.929 . S
H214 C228 0.931 . S
H215 C230 0.930 1_556 S
C216 H204 0.930 1_554 S
C216 C217 1.399 . S
C216 C221 1.399 . S
C217 C216 1.399 . S
C217 C218 1.376 . S
C218 H205 0.930 . S
C218 C217 1.376 . S
C218 C219 1.388 . S
C219 H206 0.930 . S
C219 C218 1.388 . S
C219 C220 1.390 . S
C220 C219 1.390 . S
C220 C221 1.394 . S
C220 C226 1.465 . S
C221 C216 1.399 . S
C221 C220 1.394 . S
C221 C222 1.516 1_554 S
C222 C221 1.516 1_556 S
C222 C223 1.502 . S
C222 C224 1.561 . S
C222 C225 1.526 1_556 S
C223 H207 0.971 . S
C223 H208 0.959 . S
C223 H209 0.961 . S
C223 C222 1.502 . S
C224 H210 0.960 . S
C224 H211 0.961 . S
C224 H212 0.959 . S
C224 C222 1.561 . S
C225 C222 1.526 1_554 S
C225 C226 1.396 . S
C225 C230 1.390 . S
C226 C220 1.465 . S
C226 C225 1.396 . S
C226 C227 1.399 . S
C227 H213 0.929 . S
C227 C226 1.399 . S
C227 C228 1.385 . S
C228 H214 0.931 . S
C228 C227 1.385 . S
C228 C229 1.389 . S
C229 C228 1.389 . S
C229 C230 1.387 . S
C230 H215 0.930 1_554 S
C230 C225 1.390 . S
C230 C229 1.387 . S
H231 C243 0.930 . S
H232 C245 0.930 . S
H233 C246 0.930 1_455 S
H234 C250 0.959 . S
H235 C250 0.959 . S
H236 C250 0.961 . S
H237 C251 0.960 . S
H238 C251 0.961 . S
H239 C251 0.959 . S
H240 C254 0.929 . S
H241 C255 0.931 . S
H242 C257 0.930 . S
C243 H231 0.930 . S
C243 C244 1.399 . S
C243 C248 1.399 . S
C244 C243 1.399 . S
C244 C245 1.376 . S
C245 H232 0.930 . S
C245 C244 1.376 . S
C245 C246 1.388 . S
C246 H233 0.930 1_655 S
C246 C245 1.388 . S
C246 C247 1.390 . S
C247 C246 1.390 . S
C247 C248 1.394 . S
C247 C253 1.465 1_655 S
C248 C243 1.399 . S
C248 C247 1.394 . S
C248 C249 1.516 . S
C249 C248 1.516 . S
C249 C250 1.502 . S
C249 C251 1.561 1_655 S
C249 C252 1.526 1_655 S
C250 H234 0.959 . S
C250 H235 0.959 . S
C250 H236 0.961 . S
C250 C249 1.502 . S
C251 H237 0.960 . S
C251 H238 0.961 . S
C251 H239 0.959 . S
C251 C249 1.561 1_455 S
C252 C249 1.526 1_455 S
C252 C253 1.396 . S
C252 C257 1.390 . S
C253 C247 1.465 1_455 S
C253 C252 1.396 . S
C253 C254 1.399 . S
C254 H240 0.929 . S
C254 C253 1.399 . S
C254 C255 1.385 . S
C255 H241 0.931 . S
C255 C254 1.385 . S
C255 C256 1.389 . S
C256 C255 1.389 . S
C256 C257 1.387 . S
C257 H242 0.930 . S
C257 C252 1.390 . S
C257 C256 1.387 . S
H258 C270 0.930 . S
H259 C272 0.930 . S
H260 C273 0.930 . S
H261 C277 0.959 . S
H262 C277 0.959 . S
H263 C277 0.961 . S
H264 C278 0.960 . S
H265 C278 0.961 1_565 S
H266 C278 0.959 . S
H267 C281 0.929 1_545 S
H268 C282 0.931 . S
H269 C284 0.930 . S
C270 H258 0.930 . S
C270 C271 1.399 . S
C270 C275 1.399 . S
C271 C270 1.399 . S
C271 C272 1.376 . S
C272 H259 0.930 . S
C272 C271 1.376 . S
C272 C273 1.388 . S
C273 H260 0.930 . S
C273 C272 1.388 . S
C273 C274 1.390 . S
C274 C273 1.390 . S
C274 C275 1.394 . S
C274 C280 1.450 1_545 S
C275 C270 1.399 . S
C275 C274 1.394 . S
C275 C276 1.516 1_545 S
C276 C275 1.516 1_565 S
C276 C277 1.502 . S
C276 C278 1.561 1_565 S
C276 C279 1.526 . S
C277 H261 0.959 . S
C277 H262 0.959 . S
C277 H263 0.961 . S
C277 C276 1.502 . S
C278 H264 0.960 . S
C278 H265 0.961 1_545 S
C278 H266 0.959 . S
C278 C276 1.561 1_545 S
C279 C276 1.526 . S
C279 C280 1.405 . S
C279 C284 1.390 . S
C280 C274 1.450 1_565 S
C280 C279 1.405 . S
C280 C281 1.406 . S
C281 H267 0.929 1_565 S
C281 C280 1.406 . S
C281 C282 1.385 . S
C282 H268 0.931 . S
C282 C281 1.385 . S
C282 C283 1.389 . S
C283 C282 1.389 . S
C283 C284 1.387 . S
C284 H269 0.930 . S
C284 C279 1.390 . S
C284 C283 1.387 . S
H285 C297 0.930 . S
H286 C299 0.930 . S
H287 C300 0.930 . S
H288 C304 0.959 . S
H289 C304 0.959 . S
H290 C304 0.961 . S
H291 C305 0.960 . S
H292 C305 0.961 . S
H293 C305 0.959 . S
H294 C308 0.929 . S
H295 C309 0.931 . S
H296 C311 0.930 . S
C297 H285 0.930 . S
C297 C298 1.399 . S
C297 C302 1.399 . S
C298 C297 1.399 . S
C298 C299 1.376 . S
C299 H286 0.930 . S
C299 C298 1.376 . S
C299 C300 1.388 . S
C300 H287 0.930 . S
C300 C299 1.388 . S
C300 C301 1.390 . S
C301 C300 1.390 . S
C301 C302 1.394 . S
C301 C307 1.465 . S
C302 C297 1.399 . S
C302 C301 1.394 . S
C302 C303 1.516 . S
C303 C302 1.516 . S
C303 C304 1.502 . S
C303 C305 1.561 . S
C303 C306 1.526 . S
C304 H288 0.959 . S
C304 H289 0.959 . S
C304 H290 0.961 . S
C304 C303 1.502 . S
C305 H291 0.960 . S
C305 H292 0.961 . S
C305 H293 0.959 . S
C305 C303 1.561 . S
C306 C303 1.526 . S
C306 C307 1.396 . S
C306 C311 1.390 . S
C307 C301 1.465 . S
C307 C306 1.396 . S
C307 C308 1.399 . S
C308 H294 0.929 . S
C308 C307 1.399 . S
C308 C309 1.385 . S
C309 H295 0.931 . S
C309 C308 1.385 . S
C309 C310 1.389 . S
C310 C309 1.389 . S
C310 C311 1.387 . S
C311 H296 0.930 . S
C311 C306 1.390 . S
C311 C310 1.387 . S
H312 C324 0.930 . S
H313 C326 0.930 . S
H314 C327 0.930 . S
H315 C331 0.959 . S
H316 C331 0.959 . S
H317 C331 0.961 1_655 S
H318 C332 0.960 . S
H319 C332 0.961 . S
H320 C332 0.959 . S
H321 C335 0.929 . S
H322 C336 0.931 . S
H323 C338 0.930 . S
C324 H312 0.930 . S
C324 C325 1.399 . S
C324 C329 1.399 . S
C325 C324 1.399 . S
C325 C326 1.376 1_554 S
C326 H313 0.930 . S
C326 C325 1.376 1_556 S
C326 C327 1.388 . S
C327 H314 0.930 . S
C327 C326 1.388 . S
C327 C328 1.390 . S
C328 C327 1.390 . S
C328 C329 1.394 1_556 S
C328 C334 1.465 1_655 S
C329 C324 1.399 . S
C329 C328 1.394 1_554 S
C329 C330 1.516 . S
C330 C329 1.516 . S
C330 C331 1.502 1_655 S
C330 C332 1.561 . S
C330 C333 1.526 1_655 S
C331 H315 0.959 . S
C331 H316 0.959 . S
C331 H317 0.961 1_455 S
C331 C330 1.502 1_455 S
C332 H318 0.960 . S
C332 H319 0.961 . S
C332 H320 0.959 . S
C332 C330 1.561 . S
C333 C330 1.526 1_455 S
C333 C334 1.396 1_554 S
C333 C338 1.390 . S
C334 C328 1.465 1_455 S
C334 C333 1.396 1_556 S
C334 C335 1.399 . S
C335 H321 0.929 . S
C335 C334 1.399 . S
C335 C336 1.385 . S
C336 H322 0.931 . S
C336 C335 1.385 . S
C336 C337 1.389 1_556 S
C337 C336 1.389 1_554 S
C337 C338 1.387 . S
C338 H323 0.930 . S
C338 C333 1.390 . S
C338 C337 1.387 . S
H339 C351 0.930 1_545 S
H340 C353 0.930 . S
H341 C354 0.930 . S
H342 C358 0.959 . S
H343 C358 0.959 . S
H344 C358 0.961 . S
H345 C359 0.960 . S
H346 C359 0.961 . S
H347 C359 0.959 . S
H348 C362 0.929 . S
H349 C363 0.931 . S
H350 C365 0.930 . S
C351 H339 0.930 1_565 S
C351 C352 1.399 . S
C351 C356 1.399 . S
C352 C351 1.399 . S
C352 C353 1.376 . S
C353 H340 0.930 . S
C353 C352 1.376 . S
C353 C354 1.388 . S
C354 H341 0.930 . S
C354 C353 1.388 . S
C354 C355 1.390 . S
C355 C354 1.390 . S
C355 C356 1.394 . S
C355 C361 1.465 . S
C356 C351 1.399 . S
C356 C355 1.394 . S
C356 C357 1.516 1_565 S
C357 C356 1.516 1_545 S
C357 C358 1.502 . S
C357 C359 1.561 . S
C357 C360 1.526 . S
C358 H342 0.959 . S
C358 H343 0.959 . S
C358 H344 0.961 . S
C358 C357 1.502 . S
C359 H345 0.960 . S
C359 H346 0.961 . S
C359 H347 0.959 . S
C359 C357 1.561 . S
C360 C357 1.526 . S
C360 C361 1.396 1_545 S
C360 C365 1.390 . S
C361 C355 1.465 . S
C361 C360 1.396 1_565 S
C361 C362 1.399 . S
C362 H348 0.929 . S
C362 C361 1.399 . S
C362 C363 1.385 1_565 S
C363 H349 0.931 . S
C363 C362 1.385 1_545 S
C363 C364 1.389 . S
C364 C363 1.389 . S
C364 C365 1.387 . S
C365 H350 0.930 . S
C365 C360 1.390 . S
C365 C364 1.387 . S
H366 C378 0.930 . S
H367 C380 0.930 . S
H368 C381 0.930 . S
H369 C385 0.959 . S
H370 C385 0.959 . S
H371 C385 0.961 1_545 S
H372 C386 0.959 1_545 S
H373 C386 0.962 1_655 S
H374 C386 0.960 . S
H375 C389 0.929 . S
H376 C390 0.931 . S
H377 C392 0.930 . S
C378 H366 0.930 . S
C378 C379 1.399 1_556 S
C378 C383 1.399 1_556 S
C379 C378 1.399 1_554 S
C379 C380 1.376 . S
C380 H367 0.930 . S
C380 C379 1.376 . S
C380 C381 1.388 . S
C381 H368 0.930 . S
C381 C380 1.388 . S
C381 C382 1.390 . S
C382 C381 1.390 . S
C382 C383 1.393 . S
C382 C388 1.465 1_545 S
C383 C378 1.399 1_554 S
C383 C382 1.393 . S
C383 C384 1.517 1_444 S
C384 C383 1.517 1_666 S
C384 C385 1.502 . S
C384 C386 1.561 1_655 S
C384 C387 1.520 1_556 S
C385 H369 0.959 . S
C385 H370 0.959 . S
C385 H371 0.961 1_565 S
C385 C384 1.502 . S
C386 H372 0.959 1_565 S
C386 H373 0.962 1_455 S
C386 H374 0.960 . S
C386 C384 1.561 1_455 S
C387 C384 1.520 1_554 S
C387 C388 1.404 1_655 S
C387 C392 1.388 1_554 S
C388 C382 1.465 1_565 S
C388 C387 1.404 1_455 S
C388 C389 1.399 . S
C389 H375 0.929 . S
C389 C388 1.399 . S
C389 C390 1.385 1_455 S
C390 H376 0.931 . S
C390 C389 1.385 1_655 S
C390 C391 1.389 . S
C391 C390 1.389 . S
C391 C392 1.387 1_554 S
C392 H377 0.930 . S
C392 C387 1.388 1_556 S
C392 C391 1.387 1_556 S
H393 C405 0.930 . S
H394 C407 0.930 . S
H395 C408 0.930 . S
H396 C412 0.959 . S
H397 C412 0.959 . S
H398 C412 0.966 . S
H399 C413 0.960 . S
H400 C413 0.961 . S
H401 C413 0.959 . S
H402 C416 0.929 . S
H403 C417 0.931 . S
H404 C419 0.930 . S
C405 H393 0.930 . S
C405 C406 1.399 . S
C405 C410 1.399 . S
C406 C405 1.399 . S
C406 C407 1.376 . S
C407 H394 0.930 . S
C407 C406 1.376 . S
C407 C408 1.388 . S
C408 H395 0.930 . S
C408 C407 1.388 . S
C408 C409 1.390 . S
C409 C408 1.390 . S
C409 C410 1.394 . S
C409 C415 1.465 1_465 S
C410 C405 1.399 . S
C410 C409 1.394 . S
C410 C411 1.516 1_565 S
C411 C410 1.516 1_545 S
C411 C412 1.502 1_445 S
C411 C413 1.561 . S
C411 C414 1.526 1_455 S
C412 H396 0.959 . S
C412 H397 0.959 . S
C412 H398 0.966 . S
C412 C411 1.502 1_665 S
C413 H399 0.960 . S
C413 H400 0.961 . S
C413 H401 0.959 . S
C413 C411 1.561 . S
C414 C411 1.526 1_655 S
C414 C415 1.396 . S
C414 C419 1.390 . S
C415 C409 1.465 1_645 S
C415 C414 1.396 . S
C415 C416 1.399 . S
C416 H402 0.929 . S
C416 C415 1.399 . S
C416 C417 1.385 . S
C417 H403 0.931 . S
C417 C416 1.385 . S
C417 C418 1.389 . S
C418 C417 1.389 . S
C418 C419 1.387 . S
C419 H404 0.930 . S
C419 C414 1.390 . S
C419 C418 1.387 . S
H420 C432 0.930 . S
H421 C434 0.930 . S
H422 C435 0.930 1_565 S
H423 C439 0.959 . S
H424 C439 0.959 . S
H425 C439 0.961 1_455 S
H426 C440 0.969 1_545 S
H427 C440 0.950 1_655 S
H428 C440 0.965 1_655 S
H429 C443 0.929 . S
H430 C444 0.931 . S
H431 C446 0.930 . S
C432 H420 0.930 . S
C432 C433 1.399 . S
C432 C437 1.399 . S
C433 C432 1.399 . S
C433 C434 1.376 . S
C434 H421 0.930 . S
C434 C433 1.376 . S
C434 C435 1.388 . S
C435 H422 0.930 1_545 S
C435 C434 1.388 . S
C435 C436 1.390 . S
C436 C435 1.390 . S
C436 C437 1.394 . S
C436 C442 1.465 1_445 S
C437 C432 1.399 . S
C437 C436 1.394 . S
C437 C438 1.516 1_455 S
C438 C437 1.516 1_655 S
C438 C439 1.502 . S
C438 C440 1.557 1_645 S
C438 C441 1.526 1_545 S
C439 H423 0.959 . S
C439 H424 0.959 . S
C439 H425 0.961 1_655 S
C439 C438 1.502 . S
C440 H426 0.969 1_565 S
C440 H427 0.950 1_455 S
C440 H428 0.965 1_455 S
C440 C438 1.557 1_465 S
C441 C438 1.526 1_565 S
C441 C442 1.396 . S
C441 C446 1.390 . S
C442 C436 1.465 1_665 S
C442 C441 1.396 . S
C442 C443 1.399 . S
C443 H429 0.929 . S
C443 C442 1.399 . S
C443 C444 1.385 . S
C444 H430 0.931 . S
C444 C443 1.385 . S
C444 C445 1.389 . S
C445 C444 1.389 . S
C445 C446 1.387 . S
C446 H431 0.930 . S
C446 C441 1.390 . S
C446 C445 1.387 . S
H447 C459 0.930 . S
H448 C461 0.930 . S
H449 C462 0.930 . S
H450 C466 0.959 . S
H451 C466 0.959 . S
H452 C466 0.961 . S
H453 C467 0.960 . S
H454 C467 0.961 . S
H455 C467 0.959 . S
H456 C470 0.929 . S
H457 C471 0.931 . S
H458 C473 0.930 . S
C459 H447 0.930 . S
C459 C460 1.399 . S
C459 C464 1.399 . S
C460 C459 1.399 . S
C460 C461 1.376 . S
C461 H448 0.930 . S
C461 C460 1.376 . S
C461 C462 1.388 . S
C462 H449 0.930 . S
C462 C461 1.388 . S
C462 C463 1.390 . S
C463 C462 1.390 . S
C463 C464 1.394 . S
C463 C469 1.465 . S
C464 C459 1.399 . S
C464 C463 1.394 . S
C464 C465 1.516 . S
C465 C464 1.516 . S
C465 C466 1.502 . S
C465 C467 1.561 . S
C465 C468 1.526 . S
C466 H450 0.959 . S
C466 H451 0.959 . S
C466 H452 0.961 . S
C466 C465 1.502 . S
C467 H453 0.960 . S
C467 H454 0.961 . S
C467 H455 0.959 . S
C467 C465 1.561 . S
C468 C465 1.526 . S
C468 C469 1.396 . S
C468 C473 1.390 . S
C469 C463 1.465 . S
C469 C468 1.396 . S
C469 C470 1.399 . S
C470 H456 0.929 . S
C470 C469 1.399 . S
C470 C471 1.385 . S
C471 H457 0.931 . S
C471 C470 1.385 . S
C471 C472 1.389 . S
C472 C471 1.389 . S
C472 C473 1.387 . S
C473 H458 0.930 . S
C473 C468 1.390 . S
C473 C472 1.387 . S
H474 C486 0.930 . S
H475 C488 0.930 . S
H476 C489 0.930 . S
H477 C493 0.959 . S
H478 C493 0.959 . S
H479 C493 0.961 . S
H480 C494 0.960 . S
H481 C494 0.961 . S
H482 C494 0.959 1_455 S
H483 C497 0.929 . S
H484 C498 0.931 . S
H485 C500 0.930 . S
C486 H474 0.930 . S
C486 C487 1.399 . S
C486 C491 1.399 . S
C487 C486 1.399 . S
C487 C488 1.376 . S
C488 H475 0.930 . S
C488 C487 1.376 . S
C488 C489 1.388 . S
C489 H476 0.930 . S
C489 C488 1.388 . S
C489 C490 1.390 . S
C490 C489 1.390 . S
C490 C491 1.394 . S
C490 C496 1.465 . S
C491 C486 1.399 . S
C491 C490 1.394 . S
C491 C492 1.516 . S
C492 C491 1.516 . S
C492 C493 1.502 1_455 S
C492 C494 1.561 1_455 S
C492 C495 1.526 . S
C493 H477 0.959 . S
C493 H478 0.959 . S
C493 H479 0.961 . S
C493 C492 1.502 1_655 S
C494 H480 0.960 . S
C494 H481 0.961 . S
C494 H482 0.959 1_655 S
C494 C492 1.561 1_655 S
C495 C492 1.526 . S
C495 C496 1.396 . S
C495 C500 1.390 1_455 S
C496 C490 1.465 . S
C496 C495 1.396 . S
C496 C497 1.399 . S
C497 H483 0.929 . S
C497 C496 1.399 . S
C497 C498 1.385 . S
C498 H484 0.931 . S
C498 C497 1.385 . S
C498 C499 1.389 1_455 S
C499 C498 1.389 1_655 S
C499 C500 1.387 . S
C500 H485 0.930 . S
C500 C495 1.390 1_655 S
C500 C499 1.387 . S
H501 C513 0.930 . S
H502 C515 0.930 . S
H503 C516 0.930 . S
H504 C520 0.959 . S
H505 C520 0.959 . S
H506 C520 0.961 . S
H507 C521 0.960 . S
H508 C521 0.961 . S
H509 C521 0.959 . S
H510 C524 0.929 . S
H511 C525 0.931 . S
H512 C527 0.930 . S
C513 H501 0.930 . S
C513 C514 1.399 . S
C513 C518 1.399 . S
C514 C513 1.399 . S
C514 C515 1.376 . S
C515 H502 0.930 . S
C515 C514 1.376 . S
C515 C516 1.388 . S
C516 H503 0.930 . S
C516 C515 1.388 . S
C516 C517 1.390 . S
C517 C516 1.390 . S
C517 C518 1.394 . S
C517 C523 1.465 . S
C518 C513 1.399 . S
C518 C517 1.394 . S
C518 C519 1.516 . S
C519 C518 1.516 . S
C519 C520 1.502 1_545 S
C519 C521 1.561 . S
C519 C522 1.526 . S
C520 H504 0.959 . S
C520 H505 0.959 . S
C520 H506 0.961 . S
C520 C519 1.502 1_565 S
C521 H507 0.960 . S
C521 H508 0.961 . S
C521 H509 0.959 . S
C521 C519 1.561 . S
C522 C519 1.526 . S
C522 C523 1.396 . S
C522 C527 1.390 1_545 S
C523 C517 1.465 . S
C523 C522 1.396 . S
C523 C524 1.399 . S
C524 H510 0.929 . S
C524 C523 1.399 . S
C524 C525 1.385 . S
C525 H511 0.931 . S
C525 C524 1.385 . S
C525 C526 1.389 1_545 S
C526 C525 1.389 1_565 S
C526 C527 1.387 . S
C527 H512 0.930 . S
C527 C522 1.390 1_565 S
C527 C526 1.387 . S
H528 C540 0.930 . S
H529 C542 0.930 . S
H530 C543 0.930 . S
H531 C547 0.959 . S
H532 C547 0.959 . S
H533 C547 0.961 . S
H534 C548 0.960 . S
H535 C548 0.961 . S
H536 C548 0.959 . S
H537 C551 0.929 . S
H538 C552 0.931 . S
H539 C554 0.930 . S
C540 H528 0.930 . S
C540 C541 1.399 . S
C540 C545 1.399 . S
C541 C540 1.399 . S
C541 C542 1.376 . S
C542 H529 0.930 . S
C542 C541 1.376 . S
C542 C543 1.388 . S
C543 H530 0.930 . S
C543 C542 1.388 . S
C543 C544 1.390 . S
C544 C543 1.390 . S
C544 C545 1.394 . S
C544 C550 1.465 . S
C545 C540 1.399 . S
C545 C544 1.394 . S
C545 C546 1.516 . S
C546 C545 1.516 . S
C546 C547 1.502 . S
C546 C548 1.561 . S
C546 C549 1.526 . S
C547 H531 0.959 . S
C547 H532 0.959 . S
C547 H533 0.961 . S
C547 C546 1.502 . S
C548 H534 0.960 . S
C548 H535 0.961 . S
C548 H536 0.959 . S
C548 C546 1.561 . S
C549 C546 1.526 . S
C549 C550 1.396 . S
C549 C554 1.390 . S
C550 C544 1.465 . S
C550 C549 1.396 . S
C550 C551 1.399 . S
C551 H537 0.929 . S
C551 C550 1.399 . S
C551 C552 1.385 . S
C552 H538 0.931 . S
C552 C551 1.385 . S
C552 C553 1.389 . S
C553 C552 1.389 . S
C553 C554 1.387 . S
C554 H539 0.930 . S
C554 C549 1.390 . S
C554 C553 1.387 . S
H555 C567 0.930 . S
H556 C569 0.930 . S
H557 C570 0.930 . S
H558 C574 0.959 . S
H559 C574 0.959 . S
H560 C574 0.961 . S
H561 C575 0.960 . S
H562 C575 0.961 1_455 S
H563 C575 0.959 . S
H564 C578 0.929 . S
H565 C579 0.931 . S
H566 C581 0.930 . S
C567 H555 0.930 . S
C567 C568 1.399 . S
C567 C572 1.399 . S
C568 C567 1.399 . S
C568 C569 1.376 . S
C569 H556 0.930 . S
C569 C568 1.376 . S
C569 C570 1.388 . S
C570 H557 0.930 . S
C570 C569 1.388 . S
C570 C571 1.390 . S
C571 C570 1.390 . S
C571 C572 1.394 . S
C571 C577 1.465 . S
C572 C567 1.399 . S
C572 C571 1.394 . S
C572 C573 1.516 . S
C573 C572 1.516 . S
C573 C574 1.502 1_655 S
C573 C575 1.561 . S
C573 C576 1.526 . S
C574 H558 0.959 . S
C574 H559 0.959 . S
C574 H560 0.961 . S
C574 C573 1.502 1_455 S
C575 H561 0.960 . S
C575 H562 0.961 1_655 S
C575 H563 0.959 . S
C575 C573 1.561 . S
C576 C573 1.526 . S
C576 C577 1.396 . S
C576 C581 1.390 1_655 S
C577 C571 1.465 . S
C577 C576 1.396 . S
C577 C578 1.399 . S
C578 H564 0.929 . S
C578 C577 1.399 . S
C578 C579 1.385 . S
C579 H565 0.931 . S
C579 C578 1.385 . S
C579 C580 1.389 1_655 S
C580 C579 1.389 1_455 S
C580 C581 1.387 . S
C581 H566 0.930 . S
C581 C576 1.390 1_455 S
C581 C580 1.387 . S
H582 C594 0.930 . S
H583 C596 0.930 . S
H584 C597 0.930 . S
H585 C601 0.959 . S
H586 C601 0.959 . S
H587 C601 0.961 . S
H588 C602 0.960 . S
H589 C602 0.961 . S
H590 C602 0.959 . S
H591 C605 0.929 . S
H592 C606 0.931 . S
H593 C608 0.930 . S
C594 H582 0.930 . S
C594 C595 1.399 . S
C594 C599 1.399 1_545 S
C595 C594 1.399 . S
C595 C596 1.376 1_545 S
C596 H583 0.930 . S
C596 C595 1.376 1_565 S
C596 C597 1.388 . S
C597 H584 0.930 . S
C597 C596 1.388 . S
C597 C598 1.390 . S
C598 C597 1.390 . S
C598 C599 1.394 . S
C598 C604 1.465 . S
C599 C594 1.399 1_565 S
C599 C598 1.394 . S
C599 C600 1.516 . S
C600 C599 1.516 . S
C600 C601 1.502 . S
C600 C602 1.561 1_565 S
C600 C603 1.526 . S
C601 H585 0.959 . S
C601 H586 0.959 . S
C601 H587 0.961 . S
C601 C600 1.502 . S
C602 H588 0.960 . S
C602 H589 0.961 . S
C602 H590 0.959 . S
C602 C600 1.561 1_545 S
C603 C600 1.526 . S
C603 C604 1.396 . S
C603 C608 1.390 . S
C604 C598 1.465 . S
C604 C603 1.396 . S
C604 C605 1.399 . S
C605 H591 0.929 . S
C605 C604 1.399 . S
C605 C606 1.385 . S
C606 H592 0.931 . S
C606 C605 1.385 . S
C606 C607 1.389 . S
C607 C606 1.389 . S
C607 C608 1.387 . S
C608 H593 0.930 . S
C608 C603 1.390 . S
C608 C607 1.387 . S
C217 C2 1.439 . S
C229 C104 1.413 . S
C244 C36 1.404 . S
C256 C138 1.425 . S
C271 C172 1.438 . S
C283 C70 1.415 . S
C298 C101 2.024 . S
C310 C203 2.034 . S
C325 C135 2.034 . S
C337 C33 2.033 . S
C352 C169 2.036 . S
C364 C67 2.024 . S
C379 C20 0.409 . S
C391 C122 0.497 . S
C406 C156 0.505 . S
C418 C54 0.485 . S
C433 C190 0.413 . S
C445 C88 0.489 . S
C460 C9 1.619 . S
C472 C175 1.666 . S
C487 C5 1.689 . S
C499 C43 1.665 . S
C514 C39 1.692 . S
C526 C77 1.667 . S
C541 C73 1.666 . S
C553 C111 1.620 . S
C568 C107 1.692 . S
C580 C145 1.669 . S
C595 C179 1.654 . S
C607 C141 1.687 . S
