# Generated by pormake.
# Topology rob, (6)-cn, num edge types: 1
# Building blocks:
#     Node 0, Type 0, BuildingBlock: KUMBOL_clean_sbu_0, # of connection points: 6
#     Node 1, Type 0, BuildingBlock: KUMBOL_clean_sbu_0, # of connection points: 6
#     Node 2, Type 0, BuildingBlock: KUMBOL_clean_sbu_0, # of connection points: 6
#     Node 3, Type 0, BuildingBlock: KUMBOL_clean_sbu_0, # of connection points: 6
#     Edge 4, Type (0, 0), BuildingBlock: KIFKEQ_clean_linker_1, # of connection points: 2
#     Edge 5, Type (0, 0), BuildingBlock: KIFKEQ_clean_linker_1, # of connection points: 2
#     Edge 6, Type (0, 0), BuildingBlock: KIFKEQ_clean_linker_1, # of connection points: 2
#     Edge 7, Type (0, 0), BuildingBlock: KIFKEQ_clean_linker_1, # of connection points: 2
#     Edge 8, Type (0, 0), BuildingBlock: KIFKEQ_clean_linker_1, # of connection points: 2
#     Edge 9, Type (0, 0), BuildingBlock: KIFKEQ_clean_linker_1, # of connection points: 2
#     Edge 10, Type (0, 0), BuildingBlock: KIFKEQ_clean_linker_1, # of connection points: 2
#     Edge 11, Type (0, 0), BuildingBlock: KIFKEQ_clean_linker_1, # of connection points: 2
#     Edge 12, Type (0, 0), BuildingBlock: KIFKEQ_clean_linker_1, # of connection points: 2
#     Edge 13, Type (0, 0), BuildingBlock: KIFKEQ_clean_linker_1, # of connection points: 2
#     Edge 14, Type (0, 0), BuildingBlock: KIFKEQ_clean_linker_1, # of connection points: 2
#     Edge 15, Type (0, 0), BuildingBlock: KIFKEQ_clean_linker_1, # of connection points: 2
# Relax obj value: 0.035
# Max RMSD: 0.159
# Mean RMSD: 0.159
data_MOF--net-rob--node1-KUMBOL_clean_sbu_0--edge1-KIFKEQ_clean_linker_1
_symmetry_space_group_name_H-M    P1
_symmetry_Int_Tables_number       1
_symmetry_cell_setting            triclinic
loop_
_symmetry_equiv_pos_as_xyz
'x, y, z'
_cell_length_a     15.516914
_cell_length_b     27.083846
_cell_length_c     34.349792
_cell_angle_alpha  120.14305
_cell_angle_beta   89.822349
_cell_angle_gamma 89.862382
loop_
_atom_site_label
_atom_site_type_symbol
_atom_site_fract_x
_atom_site_fract_y
_atom_site_fract_z
_atom_type_partial_charge
Gd0 Gd 0.35168 0.19692 0.97953 0.0
Gd1 Gd 0.20343 0.29789 0.0685 0.0
C2 C 1.00001 0.39784 0.03999 0.0
C3 C 0.0455 0.49598 0.0887 0.0
C4 C 0.12556 0.41764 0.08711 0.0
C5 C 0.07004 0.37879 0.05518 0.0
C6 C 0.11275 0.47678 0.10513 0.0
C7 C 0.98925 0.45655 0.05612 0.0
C8 C 0.94125 0.35749 1.01029 0.0
C9 C 0.95109 0.30023 0.99811 0.0
N10 N 0.08137 0.32259 0.04112 0.0
C11 C 1.02103 0.28361 1.0146 0.0
H12 H 1.02781 0.23924 1.00493 0.0
C13 C 0.23933 0.43442 0.13782 0.0
N14 N 0.18941 0.3976 0.10237 0.0
C15 C 0.22904 0.49349 0.15692 0.0
C16 C 0.16629 0.51477 0.14006 0.0
H17 H 0.28825 0.41819 0.15081 0.0
H18 H 0.93626 0.47198 0.04458 0.0
H19 H 0.52755 0.26122 0.04128 0.0
H20 H 0.88677 0.3703 0.99769 0.0
H21 H 0.90484 0.26885 0.97604 0.0
H22 H 0.03518 0.54121 0.10174 0.0
H23 H 0.26674 0.07285 0.90245 0.0
H24 H 0.67582 0.13683 0.05407 0.0
H25 H 0.65353 0.23642 0.07157 0.0
H26 H 0.52832 0.96161 0.95812 0.0
H27 H 0.26967 0.52253 0.18449 0.0
H28 H 0.15849 0.56049 0.15484 0.0
H29 H 0.62785 0.03432 1.0121 0.0
H30 H 0.2868 0.96961 0.87429 0.0
N31 N 0.47738 0.17677 1.00752 0.0
C32 C 0.62036 0.14743 0.04055 0.0
C33 C 0.60808 0.20365 0.05042 0.0
C34 C 0.56221 0.10527 1.0123 0.0
C35 C 0.49091 0.12147 0.99578 0.0
C36 C 0.53648 0.21752 0.03305 0.0
N37 N 0.36898 0.09797 0.94961 0.0
C38 C 0.43495 0.0807 0.96576 0.0
C39 C 0.32863 0.00044 0.90023 0.0
C40 C 0.39375 0.98216 0.91814 0.0
C41 C 0.31763 0.05882 0.91609 0.0
C42 C 0.44862 0.02239 0.95095 0.0
H43 H 0.40214 0.93696 0.90584 0.0
O44 O 0.35279 0.16881 0.90818 0.0
O45 O 0.24276 0.25731 0.99699 0.0
O46 O 0.15018 0.20666 0.03173 0.0
O47 O 0.2682 0.14532 0.99955 0.0
O48 O 0.23178 0.18105 0.93778 0.0
O49 O 0.45922 0.21856 0.95057 0.0
O50 O 0.19963 0.32009 0.13863 0.0
O51 O 0.31233 0.23765 0.05072 0.0
O52 O 0.40221 0.28887 1.01411 0.0
O53 O 0.28649 0.35133 0.05013 0.0
O54 O 0.32235 0.31197 0.11102 0.0
O55 O 0.0913 0.27669 0.09498 0.0
C56 C 0.19618 0.2303 0.96272 0.0
C57 C 0.51745 0.00612 0.96862 0.0
C58 C 0.57409 0.04753 0.99934 0.0
C59 C 0.42756 0.19157 0.90997 0.0
C60 C 0.48768 0.1576 0.873 0.0
C61 C 0.54032 0.11543 0.8729 0.0
C62 C 0.49269 0.16855 0.83729 0.0
C63 C 0.55036 0.13789 0.80135 0.0
C64 C 0.59794 0.08475 0.8373 0.0
C65 C 0.60283 0.09564 0.80159 0.0
C66 C 0.1881 0.15585 1.01521 0.0
C67 C 0.35867 0.26328 0.08518 0.0
C68 C 0.12186 0.30069 0.13579 0.0
C69 C 0.06284 0.33726 0.17261 0.0
C70 C 1.01163 0.37863 0.17068 0.0
C71 C 0.05787 0.3302 0.2103 0.0
C72 C 1.00182 0.36419 0.24638 0.0
C73 C 0.95538 0.41229 0.20606 0.0
C74 C 0.95044 0.40533 0.24367 0.0
C75 C 0.36518 0.34026 0.03249 0.0
H76 H 0.53733 0.10664 0.90035 0.0
H77 H 0.45148 0.20112 0.83754 0.0
H78 H 0.63964 0.05289 0.83762 0.0
H79 H 0.64894 0.072 0.77474 0.0
H80 H 1.01466 0.38458 0.14181 0.0
H81 H 0.09646 0.29712 0.21083 0.0
H82 H 0.91521 0.4438 0.20426 0.0
H83 H 0.90662 0.43244 0.27067 0.0
Gd84 Gd 0.846 0.69846 0.9806 0.0
Gd85 Gd 0.7018 0.8012 0.07146 0.0
C86 C 0.49807 0.90141 0.04329 0.0
C87 C 0.54623 -0.0007 0.09031 0.0
C88 C 0.62453 0.92102 0.08974 0.0
C89 C 0.56785 0.88232 0.05861 0.0
C90 C 0.6131 0.9801 0.10697 0.0
C91 C 0.48889 0.95997 0.0584 0.0
C92 C 0.43831 0.86124 1.01431 0.0
C93 C 0.44714 0.80418 1.00288 0.0
N94 N 0.57835 0.82624 0.04515 0.0
C95 C 0.51715 0.7875 1.01929 0.0
H96 H 0.52333 0.74322 1.00996 0.0
C97 C 0.73931 0.93777 0.13987 0.0
N98 N 0.68836 0.90093 0.10494 0.0
C99 C 0.73027 0.99682 0.1583 0.0
C100 C 0.66779 0.01807 0.14126 0.0
H101 H 0.78829 0.92152 0.15283 0.0
H102 H 0.43638 0.9754 0.04658 0.0
H103 H 1.02576 0.76474 0.0384 0.0
H104 H 0.38397 0.87406 1.00163 0.0
H105 H 0.40021 0.77296 0.98131 0.0
H106 H 0.53714 0.04446 0.10263 0.0
H107 H 0.76134 0.57241 0.90672 0.0
H108 H 0.17324 0.64523 0.05758 0.0
H109 H 0.1524 0.74261 0.06982 0.0
H110 H 1.01993 0.46972 0.97167 0.0
H111 H 0.77181 0.02585 0.18539 0.0
H112 H 0.66116 0.06375 0.15541 0.0
H113 H 0.12215 0.54362 1.02162 0.0
H114 H 0.77976 0.47039 0.88372 0.0
N115 N 0.97413 0.68071 1.00845 0.0
C116 C 0.11768 0.65454 0.04328 0.0
C117 C 0.10619 0.70952 0.0502 0.0
C118 C 0.05839 0.6119 1.01708 0.0
C119 C 0.98704 0.62637 0.99938 0.0
C120 C 0.03412 0.72184 0.03212 0.0
N121 N 0.86372 0.60026 0.95392 0.0
C122 C 0.92988 0.58481 0.97127 0.0
C123 C 0.82212 0.50219 0.90859 0.0
C124 C 0.88655 0.48604 0.92839 0.0
C125 C 0.81216 0.55978 0.92143 0.0
C126 C 0.94228 0.52743 0.95969 0.0
H127 H 0.8939 0.44147 0.91856 0.0
O128 O 0.84196 0.6666 0.90875 0.0
O129 O 0.73885 0.76045 0.99958 0.0
O130 O 0.64641 0.71038 0.03532 0.0
O131 O 0.76321 0.64836 1.00219 0.0
O132 O 0.72439 0.68475 0.94025 0.0
O133 O 0.9515 0.71629 0.94791 0.0
O134 O 0.70059 0.82493 0.14201 0.0
O135 O 0.80982 0.74003 0.05237 0.0
O136 O 0.89788 0.78965 1.01295 0.0
O137 O 0.78641 0.85419 0.05304 0.0
O138 O 0.8224 0.81435 0.11256 0.0
O139 O 0.59243 0.77938 0.09926 0.0
C140 C 0.69093 0.73461 0.9657 0.0
C141 C 1.0106 0.51324 0.97907 0.0
C142 C 0.0687 0.55537 1.00764 0.0
C143 C 0.91667 0.68798 0.9081 0.0
C144 C 0.97372 0.65179 0.87019 0.0
C145 C 1.01803 0.60525 0.86785 0.0
C146 C 0.98281 0.66421 0.83539 0.0
C147 C 0.03659 0.63076 0.79816 0.0
C148 C 0.07143 0.57163 0.83094 0.0
C149 C 0.08081 0.58419 0.79627 0.0
C150 C 0.68375 0.65934 1.01855 0.0
C151 C 0.85762 0.76541 0.0863 0.0
C152 C 0.62384 0.80447 0.13992 0.0
C153 C 0.56454 0.84063 0.17681 0.0
C154 C 0.51209 0.8813 0.17461 0.0
C155 C 0.55976 0.83352 0.21453 0.0
C156 C 0.50242 0.86669 0.25027 0.0
C157 C 0.45469 0.91411 0.20961 0.0
C158 C 0.44978 0.90704 0.24717 0.0
C159 C 0.86336 0.84182 0.03331 0.0
H160 H 1.01151 0.59511 0.89446 0.0
H161 H 0.94733 0.69989 0.83724 0.0
H162 H 0.1063 0.53608 0.82943 0.0
H163 H 0.12408 0.55837 0.76856 0.0
H164 H 0.51488 0.88723 0.14572 0.0
H165 H 0.59933 0.80099 0.2153 0.0
H166 H 0.41334 0.94486 0.20745 0.0
H167 H 0.4047 0.93332 0.27373 0.0
Gd168 Gd 0.34672 0.79803 0.57024 0.0
Gd169 Gd 0.21225 0.69385 0.47602 0.0
C170 C 1.00663 0.59166 0.50024 0.0
C171 C 0.05803 0.49417 0.45337 0.0
C172 C 0.13777 0.57339 0.45664 0.0
C173 C 0.07821 0.61156 0.48672 0.0
C174 C 0.12707 0.51413 0.43857 0.0
C175 C 0.99806 0.53291 0.48429 0.0
C176 C 0.94421 0.63119 0.52801 0.0
C177 C 0.95212 0.6884 0.53983 0.0
N178 N 0.08727 0.66779 0.50042 0.0
C179 C 1.02364 0.70586 0.52495 0.0
H180 H 0.02888 0.75017 0.53429 0.0
C181 C 0.25648 0.55785 0.40842 0.0
N182 N 0.20313 0.5941 0.44276 0.0
C183 C 0.24843 0.4987 0.38936 0.0
C184 C 0.18424 0.47674 0.40497 0.0
H185 H 0.30628 0.5747 0.39635 0.0
H186 H 0.94386 0.51686 0.49456 0.0
H187 H 0.52992 0.73324 0.51385 0.0
H188 H 0.88845 0.61771 0.53931 0.0
H189 H 0.90312 0.71909 0.56037 0.0
H190 H 0.04915 0.44883 0.44025 0.0
H191 H 0.26539 0.92363 0.64799 0.0
H192 H 0.67224 0.85298 0.49288 0.0
H193 H 0.65546 0.75591 0.4818 0.0
H194 H 0.5153 0.02788 0.58002 0.0
H195 H 0.29178 0.47011 0.36273 0.0
H196 H 0.17801 0.43093 0.3901 0.0
H197 H 0.61786 0.95428 0.52865 0.0
H198 H 0.28447 0.02632 0.6734 0.0
N199 N 0.475 0.81658 0.54281 0.0
C200 C 0.61718 0.84341 0.5074 0.0
C201 C 0.60803 0.78863 0.50118 0.0
C202 C 0.55659 0.88566 0.53352 0.0
C203 C 0.48599 0.87084 0.55149 0.0
C204 C 0.53665 0.77601 0.51961 0.0
N205 N 0.36394 0.89637 0.59826 0.0
C206 C 0.42863 0.91218 0.5803 0.0
C207 C 0.32496 0.99458 0.64687 0.0
C208 C 0.38686 0.01115 0.62604 0.0
C209 C 0.31455 0.9366 0.63263 0.0
C210 C 0.44054 0.9698 0.5927 0.0
H211 H 0.39431 0.05598 0.63681 0.0
O212 O 0.33436 0.8247 0.64105 0.0
O213 O 0.24158 0.73481 0.54877 0.0
O214 O 0.15346 0.78366 0.50955 0.0
O215 O 0.26211 0.84928 0.55029 0.0
O216 O 0.22068 0.8111 0.60718 0.0
O217 O 0.45289 0.78517 0.60553 0.0
O218 O 0.22197 0.67395 0.40661 0.0
O219 O 0.31657 0.75732 0.4979 0.0
O220 O 0.40132 0.70721 0.53885 0.0
O221 O 0.29406 0.64168 0.49595 0.0
O222 O 0.33756 0.68286 0.43854 0.0
O223 O 0.10196 0.70674 0.44312 0.0
C224 C 0.18988 0.7607 0.58132 0.0
C225 C 0.50707 0.98425 0.57243 0.0
C226 C 0.56523 0.94226 0.54298 0.0
C227 C 0.41219 0.80908 0.64406 0.0
C228 C 0.4606 0.84945 0.68422 0.0
C229 C 0.4937 0.89998 0.68845 0.0
C230 C 0.47093 0.83801 0.71958 0.0
C231 C 0.51397 0.87693 0.7594 0.0
C232 C 0.53592 0.93896 0.72782 0.0
C233 C 0.54585 0.92772 0.76308 0.0
C234 C 0.18638 0.83605 0.52976 0.0
C235 C 0.36799 0.7331 0.46512 0.0
C236 C 0.14206 0.68707 0.40465 0.0
C237 C 0.09538 0.64655 0.36391 0.0
C238 C 0.06423 0.59512 0.35874 0.0
C239 C 0.08492 0.65868 0.32894 0.0
C240 C 0.04353 0.61955 0.28864 0.0
C241 C 1.02391 0.5559 0.31885 0.0
C242 C 1.01373 0.56781 0.28397 0.0
C243 C 0.36885 0.65468 0.51727 0.0
H244 H 0.48663 0.9094 0.66153 0.0
H245 H 0.44634 0.79835 0.71567 0.0
H246 H 0.56095 0.97804 0.73099 0.0
H247 H 0.57815 0.9589 0.79333 0.0
H248 H 0.07131 0.58518 0.38534 0.0
H249 H 0.10797 0.69901 0.33354 0.0
H250 H 1.00058 0.51616 0.31506 0.0
H251 H 0.98278 0.53647 0.25329 0.0
Gd252 Gd 0.85423 0.29491 0.56464 0.0
Gd253 Gd 0.70782 0.19371 0.47544 0.0
C254 C 0.50415 0.09566 0.50543 0.0
C255 C 0.55414 -0.00244 0.46004 0.0
C256 C 0.63262 0.07489 0.45953 0.0
C257 C 0.57452 0.1141 0.48994 0.0
C258 C 0.62218 0.01604 0.44348 0.0
C259 C 0.49529 0.03732 0.49103 0.0
C260 C 0.4435 0.13619 0.53387 0.0
C261 C 0.45221 0.19302 0.54476 0.0
N262 N 0.58435 0.16996 0.50259 0.0
C263 C 0.52273 0.20909 0.52819 0.0
H264 H 0.52875 0.25317 0.53701 0.0
C265 C 0.75055 0.05669 0.41029 0.0
N266 N 0.69729 0.09419 0.44409 0.0
C267 C 0.74304 -0.00208 0.39341 0.0
C268 C 0.67922 0.97752 0.41045 0.0
H269 H 0.80019 0.0723 0.39716 0.0
H270 H 0.44201 0.02239 0.50281 0.0
H271 H 0.03317 0.2292 0.50432 0.0
H272 H 0.38867 0.12383 0.54663 0.0
H273 H 0.40472 0.22451 0.56599 0.0
H274 H 0.54541 0.95256 0.44841 0.0
H275 H 0.77212 0.42094 0.6418 0.0
H276 H 0.17382 0.34899 0.48277 0.0
H277 H 0.15653 0.25152 0.47077 0.0
H278 H 1.01951 0.52446 0.57213 0.0
H279 H 0.78646 0.9684 0.36729 0.0
H280 H 0.67345 0.93199 0.39727 0.0
H281 H 0.121 0.45068 0.52001 0.0
H282 H 0.78788 0.52311 0.66507 0.0
N283 N 0.98008 0.31317 0.53524 0.0
C284 C 0.11978 0.33958 0.498 0.0
C285 C 0.11031 0.28456 0.49123 0.0
C286 C 0.0606 0.38216 0.52533 0.0
C287 C 0.99132 0.36754 0.54423 0.0
C288 C 0.04015 0.27213 0.51052 0.0
N289 N 0.87126 0.39335 0.59232 0.0
C290 C 0.93493 0.40902 0.57371 0.0
C291 C 0.82936 0.4914 0.63913 0.0
C292 C 0.89097 0.50777 0.61806 0.0
C293 C 0.82093 0.4337 0.62614 0.0
C294 C 0.94571 0.46649 0.58539 0.0
H295 H 0.89701 0.55241 0.62797 0.0
O296 O 0.85111 0.32262 0.6358 0.0
O297 O 0.74529 0.23513 0.54701 0.0
O298 O 0.65315 0.28484 0.51143 0.0
O299 O 0.76965 0.34642 0.54526 0.0
O300 O 0.73324 0.31114 0.60634 0.0
O301 O 0.96227 0.27624 0.59535 0.0
O302 O 0.71076 0.17197 0.40554 0.0
O303 O 0.81569 0.25408 0.49357 0.0
O304 O 0.90566 0.20284 0.52962 0.0
O305 O 0.78853 0.1419 0.49598 0.0
O306 O 0.82852 0.17956 0.43355 0.0
O307 O 0.59539 0.20955 0.44558 0.0
C308 C 0.69773 0.26217 0.58115 0.0
C309 C 1.01156 0.48086 0.5647 0.0
C310 C 0.06917 0.43879 0.53486 0.0
C311 C 0.92731 0.30223 0.63538 0.0
C312 C 0.98306 0.33851 0.67347 0.0
C313 C 1.02527 0.38599 0.67651 0.0
C314 C 0.99199 0.32574 0.70806 0.0
C315 C 0.04331 0.35987 0.74582 0.0
C316 C 0.07636 0.42021 0.71395 0.0
C317 C 0.08537 0.4074 0.74848 0.0
C318 C 0.69026 0.33586 0.52916 0.0
C319 C 0.86319 0.22865 0.4593 0.0
C320 C 0.63144 0.18785 0.4059 0.0
C321 C 0.57979 0.14873 0.36683 0.0
C322 C 0.54255 0.09997 0.36393 0.0
C323 C 0.57106 0.1593 0.331 0.0
C324 C 0.52545 0.12125 0.29191 0.0
C325 C 0.49712 0.06205 0.32546 0.0
C326 C 0.48873 0.07236 0.28962 0.0
C327 C 0.86778 0.15208 0.51217 0.0
H328 H 1.01872 0.39647 0.6501 0.0
H329 H 0.9581 0.28936 0.70569 0.0
H330 H 0.1096 0.45649 0.71601 0.0
H331 H 0.12662 0.43382 0.77671 0.0
H332 H 0.54886 0.09116 0.39123 0.0
H333 H 0.59909 0.19768 0.33399 0.0
H334 H 0.46846 0.02454 0.32348 0.0
H335 H 0.45382 0.04193 0.26008 0.0
H336 H 0.50885 0.64853 0.02496 0.0
H337 H 0.75091 0.56386 1.01478 0.0
H338 H 0.43229 0.57138 0.02709 0.0
H339 H 0.67581 0.48878 1.01959 0.0
H340 H 0.5182 0.33375 0.98968 0.0
H341 H 0.59172 0.409 0.98418 0.0
H342 H 0.39636 0.52979 0.06904 0.0
H343 H 0.31995 0.45354 0.07159 0.0
C344 C 0.54576 0.61362 0.02347 0.0
C345 C 0.63596 0.61233 1.01938 0.0
C346 C 0.50193 0.56939 0.0251 0.0
C347 C 0.54725 0.52319 0.02362 0.0
C348 C 0.63776 0.52245 1.0198 0.0
C349 C 0.68125 0.56599 1.01731 0.0
C350 C 0.49092 0.37637 1.00731 0.0
C351 C 0.41328 0.38734 0.03159 0.0
C352 C 0.53363 0.41998 1.0044 0.0
C353 C 0.50089 0.47628 0.02632 0.0
C354 C 0.42351 0.48719 0.05096 0.0
C355 C 0.38002 0.44333 0.05311 0.0
H356 H 0.51845 0.66285 0.56262 0.0
H357 H 0.32757 0.54114 0.47697 0.0
H358 H 0.59303 0.58767 0.5682 0.0
H359 H 0.40505 0.46536 0.47972 0.0
H360 H 0.51552 0.34715 0.52418 0.0
H361 H 0.43802 0.42497 0.52328 0.0
H362 H 0.68041 0.50797 0.53091 0.0
H363 H 0.75663 0.43203 0.53431 0.0
C364 C 0.49303 0.6199 0.54428 0.0
C365 C 0.41732 0.6082 0.51878 0.0
C366 C 0.53628 0.57647 0.54725 0.0
C367 C 0.50574 0.51987 0.52429 0.0
C368 C 0.43025 0.50828 0.49856 0.0
C369 C 0.3863 0.55187 0.49627 0.0
C370 C 0.55198 0.38229 0.52596 0.0
C371 C 0.64214 0.38345 0.52954 0.0
C372 C 0.50765 0.42684 0.52507 0.0
C373 C 0.55255 0.47316 0.52683 0.0
C374 C 0.64296 0.474 0.53041 0.0
C375 C 0.68698 0.43006 0.53212 0.0
H376 H 1.01343 0.14679 1.02291 0.0
H377 H 0.25365 0.05877 1.00968 0.0
H378 H 0.93557 0.07097 0.02623 0.0
H379 H 0.1771 0.98481 1.0156 0.0
H380 H 1.01389 0.8326 0.98792 0.0
H381 H 0.08911 0.90643 0.9813 0.0
H382 H 0.90123 0.03093 0.06972 0.0
H383 H 0.82291 0.95609 0.0736 0.0
C384 C 0.0497 0.11137 1.02093 0.0
C385 C 0.13977 0.10886 1.0158 0.0
C386 C 1.00509 0.06794 0.02329 0.0
C387 C 0.04946 0.02125 1.02143 0.0
C388 C 0.1398 0.01904 1.01627 0.0
C389 C 0.18411 0.06187 1.01309 0.0
C390 C 0.98855 0.87573 1.0061 0.0
C391 C 0.91239 0.88816 0.03176 0.0
C392 C 0.03231 0.91849 1.00253 0.0
C393 C 1.00214 0.97536 0.02508 0.0
C394 C 0.92631 0.98779 0.05113 0.0
C395 C 0.88174 0.94477 0.05403 0.0
H396 H 0.79945 0.05736 0.50883 0.0
H397 H 0.04217 0.13932 0.51648 0.0
H398 H 0.87427 0.98198 0.51377 0.0
H399 H 0.11821 0.06192 0.51851 0.0
H400 H 0.22957 0.94875 0.56654 0.0
H401 H 0.15218 0.02364 0.56272 0.0
H402 H 0.95933 0.90143 0.47909 0.0
H403 H 0.0338 0.82738 0.4863 0.0
C404 C 0.86915 0.05878 0.51082 0.0
C405 C 0.91486 0.10452 0.5124 0.0
C406 C 0.91238 0.01513 0.51337 0.0
C407 C 1.00285 0.01532 0.51669 0.0
C408 C 0.04854 0.06061 0.51715 0.0
C409 C 1.00504 0.10494 0.51556 0.0
C410 C 0.16965 0.93796 0.54831 0.0
C411 C 0.13734 0.88203 0.52773 0.0
C412 C 0.12574 0.98098 0.54524 0.0
C413 C 0.04904 0.96917 0.52039 0.0
C414 C 1.01706 0.91292 0.49934 0.0
C415 C 0.06024 0.87009 0.50324 0.0
H416 H 0.64162 0.16894 0.25952 0.0
H417 H 0.38295 0.10168 0.23915 0.0
H418 H 0.61715 0.19655 0.2028 0.0
H419 H 0.35978 0.12787 0.182 0.0
H420 H 0.34756 0.15132 0.06403 0.0
H421 H 0.4027 0.10948 0.10707 0.0
H422 H 0.52554 0.26919 0.19872 0.0
H423 H 0.47179 0.31064 0.15448 0.0
C424 C 0.57963 0.15992 0.24301 0.0
C425 C 0.51397 0.13355 0.25445 0.0
C426 C 0.56589 0.17549 0.21031 0.0
C427 C 0.48655 0.16449 0.1879 0.0
C428 C 0.4222 0.13618 0.19806 0.0
C429 C 0.43559 0.1211 0.23096 0.0
C430 C 0.38845 0.17707 0.09238 0.0
C431 C 0.40563 0.2343 0.10564 0.0
C432 C 0.41944 0.15318 0.11744 0.0
C433 C 0.46755 0.1862 0.15671 0.0
C434 C 0.48913 0.24243 0.16848 0.0
C435 C 0.45807 0.26629 0.14331 0.0
H436 H 0.35663 0.87212 0.29779 0.0
H437 H 0.63074 0.83946 0.29194 0.0
H438 H 0.34193 0.85072 0.35812 0.0
H439 H 0.61453 0.81545 0.35135 0.0
H440 H 0.48979 0.69113 0.39911 0.0
H441 H 0.53621 0.73277 0.35363 0.0
H442 H 0.38729 0.88456 0.43872 0.0
H443 H 0.34052 0.84292 0.48353 0.0
C444 C 0.41419 0.86143 0.30977 0.0
C445 C 0.49487 0.85731 0.28949 0.0
C446 C 0.40559 0.84902 0.34444 0.0
C447 C 0.4771 0.83139 0.35945 0.0
C448 C 0.5582 0.82848 0.34015 0.0
C449 C 0.56717 0.84183 0.30586 0.0
C450 C 0.46903 0.73402 0.40876 0.0
C451 C 0.41153 0.76364 0.44493 0.0
C452 C 0.49578 0.75795 0.38286 0.0
C453 C 0.46442 0.81162 0.39232 0.0
C454 C 0.41161 0.84281 0.43033 0.0
C455 C 0.3853 0.81903 0.45627 0.0
H456 H 0.57759 0.68699 0.89654 0.0
H457 H 0.70376 0.84608 0.98576 0.0
H458 H 0.52297 0.72788 0.85216 0.0
H459 H 0.64767 0.88752 0.94244 0.0
H460 H 0.40276 0.82531 0.79064 0.0
H461 H 0.43093 0.79783 0.84716 0.0
H462 H 0.68458 0.87211 0.86857 0.0
H463 H 0.65718 0.89878 0.812 0.0
C464 C 0.59171 0.73118 0.90733 0.0
C465 C 0.64478 0.76326 0.94471 0.0
C466 C 0.5601 0.75477 0.88208 0.0
C467 C 0.58153 0.8109 0.89344 0.0
C468 C 0.63085 0.84393 0.93232 0.0
C469 C 0.66243 0.8203 0.95751 0.0
C470 C 0.46464 0.83566 0.80733 0.0
C471 C 0.52794 0.86385 0.7963 0.0
C472 C 0.48062 0.82008 0.83987 0.0
C473 C 0.56008 0.83261 0.8624 0.0
C474 C 0.62209 0.86256 0.8525 0.0
C475 C 0.60634 0.87784 0.81988 0.0
H476 H 0.57224 0.30933 0.64447 0.0
H477 H 0.72122 0.15496 0.56883 0.0
H478 H 0.51912 0.27444 0.69313 0.0
H479 H 0.67272 0.12113 0.6184 0.0
H480 H 0.55745 0.0643 0.71011 0.0
H481 H 0.57391 0.08852 0.65101 0.0
H482 H 0.57918 0.26772 0.75194 0.0
H483 H 0.56135 0.24342 0.81045 0.0
C484 C 0.59236 0.26745 0.63781 0.0
C485 C 0.65097 0.235 0.60298 0.0
C486 C 0.56295 0.24765 0.66601 0.0
C487 C 0.5935 0.1956 0.66079 0.0
C488 C 0.6473 0.1613 0.6237 0.0
C489 C 0.67542 0.18075 0.59505 0.0
C490 C 0.56182 0.10883 0.71946 0.0
C491 C 0.55799 0.15198 0.76491 0.0
C492 C 0.57092 0.12279 0.68555 0.0
C493 C 0.57672 0.18017 0.69625 0.0
C494 C 0.5723 0.22313 0.7419 0.0
C495 C 0.56268 0.20922 0.77567 0.0
H496 H 0.84479 0.65402 0.06633 0.0
H497 H 0.97487 0.81214 0.15364 0.0
H498 H 0.90465 0.61174 0.10805 0.0
H499 H 0.03201 0.77081 0.19723 0.0
H500 H 0.15291 0.67338 0.25859 0.0
H501 H 0.12329 0.70178 0.20272 0.0
H502 H 0.87091 0.62552 0.18084 0.0
H503 H 0.90017 0.59751 0.23639 0.0
C504 C 0.88781 0.67942 0.09376 0.0
C505 C 0.90586 0.73629 0.10627 0.0
C506 C 0.92136 0.65537 0.1182 0.0
C507 C 0.9722 0.68805 0.15651 0.0
C508 C 0.99373 0.74412 0.16773 0.0
C509 C 0.96066 0.76799 0.14293 0.0
C510 C 0.09107 0.66274 0.24185 0.0
C511 C 0.02872 0.63347 0.25232 0.0
C512 C 0.07422 0.67889 0.20972 0.0
C513 C 0.99469 0.66605 0.18724 0.0
C514 C 0.93353 0.63527 0.19678 0.0
C515 C 0.95028 0.61923 0.22883 0.0
H516 H 0.98075 0.18397 0.39108 0.0
H517 H 0.84142 0.33914 0.47867 0.0
H518 H 0.02915 0.2259 0.34601 0.0
H519 H 0.89021 0.38097 0.43451 0.0
H520 H 0.12973 0.33529 0.2871 0.0
H521 H 0.11288 0.30974 0.34563 0.0
H522 H 0.84116 0.34809 0.35397 0.0
H523 H 0.8564 0.37098 0.29445 0.0
C524 C 0.96262 0.22755 0.4015 0.0
C525 C 0.9075 0.25824 0.43858 0.0
C526 C 0.99054 0.25162 0.37588 0.0
C527 C 0.9626 0.30646 0.38657 0.0
C528 C 0.91202 0.33841 0.42528 0.0
C529 C 0.88455 0.31447 0.45087 0.0
C530 C 0.06622 0.33803 0.30121 0.0
C531 C 0.99423 0.35468 0.28547 0.0
C532 C 0.05692 0.32378 0.33495 0.0
C533 C 0.97584 0.32699 0.3543 0.0
C534 C 0.90475 0.346 0.34009 0.0
C535 C 0.91366 0.35931 0.30595 0.0
H536 H 0.07277 0.2543 0.73458 0.0
H537 H 0.03961 0.4309 0.83764 0.0
H538 H 0.09295 0.22822 0.79196 0.0
H539 H 0.05897 0.40462 0.89552 0.0
H540 H 0.21414 0.33912 0.9773 0.0
H541 H 0.16537 0.37397 0.92819 0.0
H542 H 1.02534 0.21693 0.84835 0.0
H543 H 0.07746 0.18147 0.89675 0.0
C544 C 0.06841 0.28748 0.76962 0.0
C545 C 0.05437 0.34462 0.7815 0.0
C546 C 0.07948 0.2725 0.80268 0.0
C547 C 0.07633 0.31419 0.84868 0.0
C548 C 0.06201 0.37144 0.86058 0.0
C549 C 0.05121 0.38653 0.82739 0.0
C550 C 0.17126 0.31266 0.94996 0.0
C551 C 0.15012 0.25733 0.94058 0.0
C552 C 0.1431 0.33266 0.92167 0.0
C553 C 0.09307 0.29773 0.88346 0.0
C554 C 0.06608 0.24431 0.87655 0.0
C555 C 0.09505 0.22415 0.90451 0.0
H556 H 0.0646 0.80636 0.64478 0.0
H557 H 0.21416 0.65253 0.56746 0.0
H558 H 1.01312 0.77037 0.69298 0.0
H559 H 0.16614 0.61732 0.61648 0.0
H560 H 0.04178 0.55869 0.70645 0.0
H561 H 0.06229 0.58429 0.6483 0.0
H562 H 0.07876 0.76217 0.75099 0.0
H563 H 0.05823 0.73669 0.80871 0.0
C564 C 0.08516 0.76434 0.63763 0.0
C565 C 0.1438 0.73252 0.60261 0.0
C566 C 0.05659 0.74392 0.66554 0.0
C567 C 0.08743 0.69162 0.65963 0.0
C568 C 0.14091 0.65778 0.62228 0.0
C569 C 0.16865 0.678 0.59402 0.0
C570 C 0.04983 0.60324 0.71649 0.0
C571 C 0.04798 0.64569 0.76226 0.0
C572 C 0.06117 0.61796 0.6831 0.0
C573 C 0.0707 0.67539 0.69461 0.0
C574 C 0.06892 0.71764 0.74048 0.0
C575 C 0.05756 0.70301 0.77377 0.0
loop_
_geom_bond_atom_site_label_1
_geom_bond_atom_site_label_2
_geom_bond_distance
_geom_bond_site_symmetry_2
_ccdc_geom_bond_type
Gd0 N31 2.661 . S
Gd0 N37 2.601 . S
Gd0 O44 2.545 . S
Gd0 O45 2.606 . S
Gd0 O47 2.429 . S
Gd0 O48 2.545 . S
Gd0 O49 2.412 . S
Gd0 O51 2.362 1_556 S
Gd0 O52 2.324 . S
Gd0 C59 2.828 . S
Gd1 N10 2.661 . S
Gd1 N14 2.601 . S
Gd1 O45 2.362 1_554 S
Gd1 O46 2.324 . S
Gd1 O50 2.545 . S
Gd1 O51 2.606 . S
Gd1 O53 2.429 . S
Gd1 O54 2.545 . S
Gd1 O55 2.412 . S
Gd1 C68 2.828 . S
C2 C5 1.417 1_556 S
C2 C7 1.431 . S
C2 C8 1.412 . S
C3 C6 1.437 . S
C3 C7 1.317 1_554 S
C3 H22 0.929 . S
C4 C5 1.426 1_455 S
C4 C6 1.413 1_455 S
C4 N14 1.359 . S
C5 C2 1.417 1_554 S
C5 C4 1.426 1_655 S
C5 N10 1.350 1_655 S
C6 C3 1.437 . S
C6 C4 1.413 1_655 S
C6 C16 1.391 1_655 S
C7 C2 1.431 . S
C7 C3 1.317 1_556 S
C7 H18 0.930 . S
C8 C2 1.412 . S
C8 C9 1.355 . S
C8 H20 0.930 . S
C9 C8 1.355 . S
C9 C11 1.402 . S
C9 H21 0.930 . S
N10 Gd1 2.661 . S
N10 C5 1.350 1_455 S
N10 C11 1.307 1_454 S
C11 C9 1.402 . S
C11 N10 1.307 1_656 S
C11 H12 0.930 1_655 S
H12 C11 0.930 1_455 S
C13 N14 1.334 . S
C13 C15 1.394 . S
C13 H17 0.930 . S
N14 Gd1 2.601 . S
N14 C4 1.359 . S
N14 C13 1.334 . S
C15 C13 1.394 . S
C15 C16 1.359 . S
C15 H27 0.930 . S
C16 C6 1.391 1_455 S
C16 C15 1.359 . S
C16 H28 0.929 1_455 S
H17 C13 0.930 . S
H18 C7 0.930 . S
H19 C36 0.930 . S
H20 C8 0.930 . S
H21 C9 0.930 . S
H22 C3 0.929 . S
H23 C41 0.930 . S
H24 C32 0.930 . S
H25 C33 0.930 . S
H26 C57 0.929 . S
H27 C15 0.930 . S
H28 C16 0.929 1_655 S
H29 C58 0.930 . S
H30 C39 0.930 1_565 S
N31 Gd0 2.661 . S
N31 C35 1.350 . S
N31 C36 1.307 1_556 S
C32 H24 0.930 . S
C32 C33 1.355 . S
C32 C34 1.412 . S
C33 H25 0.930 . S
C33 C32 1.355 . S
C33 C36 1.402 . S
C34 C32 1.412 . S
C34 C35 1.417 1_554 S
C34 C58 1.431 . S
C35 N31 1.350 . S
C35 C34 1.417 1_556 S
C35 C38 1.426 . S
C36 H19 0.930 . S
C36 N31 1.307 1_554 S
C36 C33 1.402 . S
N37 Gd0 2.601 . S
N37 C38 1.359 . S
N37 C41 1.334 . S
C38 C35 1.426 . S
C38 N37 1.359 . S
C38 C42 1.413 . S
C39 H30 0.930 1_545 S
C39 C40 1.359 . S
C39 C41 1.394 . S
C40 C39 1.359 . S
C40 C42 1.391 . S
C40 H43 0.929 1_545 S
C41 H23 0.930 . S
C41 N37 1.334 . S
C41 C39 1.394 . S
C42 C38 1.413 . S
C42 C40 1.391 . S
C42 C57 1.437 . S
H43 C40 0.929 1_565 S
O44 Gd0 2.545 . S
O44 C59 1.258 . S
O45 Gd0 2.606 . S
O45 Gd1 2.362 1_556 S
O45 C56 1.284 . S
O46 Gd1 2.324 . S
O46 C66 1.254 1_554 S
O47 Gd0 2.429 . S
O47 C66 1.268 . S
O48 Gd0 2.545 . S
O48 C56 1.250 . S
O49 Gd0 2.412 . S
O49 C59 1.252 . S
O50 Gd1 2.545 . S
O50 C68 1.258 . S
O51 Gd0 2.362 1_554 S
O51 Gd1 2.606 . S
O51 C67 1.284 . S
O52 Gd0 2.324 . S
O52 C75 1.254 1_556 S
O53 Gd1 2.429 . S
O53 C75 1.268 . S
O54 Gd1 2.545 . S
O54 C67 1.250 . S
O55 Gd1 2.412 . S
O55 C68 1.252 . S
C56 O45 1.284 . S
C56 O48 1.250 . S
C57 H26 0.929 . S
C57 C42 1.437 . S
C57 C58 1.317 1_556 S
C58 H29 0.930 . S
C58 C34 1.431 . S
C58 C57 1.317 1_554 S
C59 Gd0 2.828 . S
C59 O44 1.258 . S
C59 O49 1.252 . S
C59 C60 1.497 . S
C60 C59 1.497 . S
C60 C61 1.395 . S
C60 C62 1.380 . S
C61 C60 1.395 . S
C61 C64 1.398 . S
C61 H76 0.930 . S
C62 C60 1.380 . S
C62 C63 1.391 . S
C62 H77 0.930 . S
C63 C62 1.391 . S
C63 C65 1.387 . S
C64 C61 1.398 . S
C64 C65 1.380 . S
C64 H78 0.930 . S
C65 C63 1.387 . S
C65 C64 1.380 . S
C65 H79 0.930 . S
C66 O46 1.254 1_556 S
C66 O47 1.268 . S
C67 O51 1.284 . S
C67 O54 1.250 . S
C68 Gd1 2.828 . S
C68 O50 1.258 . S
C68 O55 1.252 . S
C68 C69 1.497 . S
C69 C68 1.497 . S
C69 C70 1.395 . S
C69 C71 1.380 . S
C70 C69 1.395 . S
C70 C73 1.398 1_455 S
C70 H80 0.930 . S
C71 C69 1.380 . S
C71 C72 1.391 1_455 S
C71 H81 0.930 . S
C72 C71 1.391 1_655 S
C72 C74 1.387 . S
C73 C70 1.398 1_655 S
C73 C74 1.380 . S
C73 H82 0.930 . S
C74 C72 1.387 . S
C74 C73 1.380 . S
C74 H83 0.930 . S
C75 O52 1.254 1_554 S
C75 O53 1.268 . S
H76 C61 0.930 . S
H77 C62 0.930 . S
H78 C64 0.930 . S
H79 C65 0.930 . S
H80 C70 0.930 . S
H81 C71 0.930 . S
H82 C73 0.930 . S
H83 C74 0.930 . S
Gd84 N115 2.661 . S
Gd84 N121 2.601 . S
Gd84 O128 2.545 . S
Gd84 O129 2.606 . S
Gd84 O131 2.429 . S
Gd84 O132 2.545 . S
Gd84 O133 2.412 . S
Gd84 O135 2.362 1_556 S
Gd84 O136 2.324 . S
Gd84 C143 2.828 . S
Gd85 N94 2.661 . S
Gd85 N98 2.601 . S
Gd85 O129 2.362 1_554 S
Gd85 O130 2.324 . S
Gd85 O134 2.545 . S
Gd85 O135 2.606 . S
Gd85 O137 2.429 . S
Gd85 O138 2.545 . S
Gd85 O139 2.412 . S
Gd85 C152 2.828 . S
C86 C89 1.417 1_556 S
C86 C91 1.431 . S
C86 C92 1.412 . S
C87 C90 1.437 . S
C87 C91 1.317 1_554 S
C87 H106 0.929 . S
C88 C89 1.426 . S
C88 C90 1.413 . S
C88 N98 1.359 . S
C89 C86 1.417 1_554 S
C89 C88 1.426 . S
C89 N94 1.350 . S
C90 C87 1.437 . S
C90 C88 1.413 . S
C90 C100 1.391 . S
C91 C86 1.431 . S
C91 C87 1.317 1_556 S
C91 H102 0.930 . S
C92 C86 1.412 . S
C92 C93 1.355 . S
C92 H104 0.930 . S
C93 C92 1.355 . S
C93 C95 1.402 . S
C93 H105 0.930 . S
N94 Gd85 2.661 . S
N94 C89 1.350 . S
N94 C95 1.307 1_554 S
C95 C93 1.402 . S
C95 N94 1.307 1_556 S
C95 H96 0.930 . S
H96 C95 0.930 . S
C97 N98 1.334 . S
C97 C99 1.394 . S
C97 H101 0.930 . S
N98 Gd85 2.601 . S
N98 C88 1.359 . S
N98 C97 1.334 . S
C99 C97 1.394 . S
C99 C100 1.359 . S
C99 H111 0.930 1_565 S
C100 C90 1.391 . S
C100 C99 1.359 . S
C100 H112 0.929 1_565 S
H101 C97 0.930 . S
H102 C91 0.930 . S
H103 C120 0.930 1_655 S
H104 C92 0.930 . S
H105 C93 0.930 . S
H106 C87 0.929 . S
H107 C125 0.930 . S
H108 C116 0.930 . S
H109 C117 0.930 . S
H110 C141 0.929 . S
H111 C99 0.930 1_545 S
H112 C100 0.929 1_545 S
H113 C142 0.930 . S
H114 C123 0.930 . S
N115 Gd84 2.661 . S
N115 C119 1.350 1_655 S
N115 C120 1.307 1_656 S
C116 H108 0.930 . S
C116 C117 1.355 . S
C116 C118 1.412 . S
C117 H109 0.930 . S
C117 C116 1.355 . S
C117 C120 1.402 . S
C118 C116 1.412 . S
C118 C119 1.417 1_554 S
C118 C142 1.431 . S
C119 N115 1.350 1_455 S
C119 C118 1.417 1_556 S
C119 C122 1.426 1_455 S
C120 H103 0.930 1_455 S
C120 N115 1.307 1_454 S
C120 C117 1.402 . S
N121 Gd84 2.601 . S
N121 C122 1.359 . S
N121 C125 1.334 . S
C122 C119 1.426 1_655 S
C122 N121 1.359 . S
C122 C126 1.413 1_655 S
C123 H114 0.930 . S
C123 C124 1.359 . S
C123 C125 1.394 . S
C124 C123 1.359 . S
C124 C126 1.391 1_655 S
C124 H127 0.929 1_655 S
C125 H107 0.930 . S
C125 N121 1.334 . S
C125 C123 1.394 . S
C126 C122 1.413 1_455 S
C126 C124 1.391 1_455 S
C126 C141 1.437 . S
H127 C124 0.929 1_455 S
O128 Gd84 2.545 . S
O128 C143 1.258 . S
O129 Gd84 2.606 . S
O129 Gd85 2.362 1_556 S
O129 C140 1.284 . S
O130 Gd85 2.324 . S
O130 C150 1.254 1_554 S
O131 Gd84 2.429 . S
O131 C150 1.268 . S
O132 Gd84 2.545 . S
O132 C140 1.250 . S
O133 Gd84 2.412 . S
O133 C143 1.252 . S
O134 Gd85 2.545 . S
O134 C152 1.258 . S
O135 Gd84 2.362 1_554 S
O135 Gd85 2.606 . S
O135 C151 1.284 . S
O136 Gd84 2.324 . S
O136 C159 1.254 1_556 S
O137 Gd85 2.429 . S
O137 C159 1.268 . S
O138 Gd85 2.545 . S
O138 C151 1.250 . S
O139 Gd85 2.412 . S
O139 C152 1.252 . S
C140 O129 1.284 . S
C140 O132 1.250 . S
C141 H110 0.929 . S
C141 C126 1.437 . S
C141 C142 1.317 1_556 S
C142 H113 0.930 . S
C142 C118 1.431 . S
C142 C141 1.317 1_554 S
C143 Gd84 2.828 . S
C143 O128 1.258 . S
C143 O133 1.252 . S
C143 C144 1.497 . S
C144 C143 1.497 . S
C144 C145 1.395 . S
C144 C146 1.380 . S
C145 C144 1.395 . S
C145 C148 1.398 1_655 S
C145 H160 0.930 . S
C146 C144 1.380 . S
C146 C147 1.391 1_655 S
C146 H161 0.930 . S
C147 C146 1.391 1_455 S
C147 C149 1.387 . S
C148 C145 1.398 1_455 S
C148 C149 1.380 . S
C148 H162 0.930 . S
C149 C147 1.387 . S
C149 C148 1.380 . S
C149 H163 0.930 . S
C150 O130 1.254 1_556 S
C150 O131 1.268 . S
C151 O135 1.284 . S
C151 O138 1.250 . S
C152 Gd85 2.828 . S
C152 O134 1.258 . S
C152 O139 1.252 . S
C152 C153 1.497 . S
C153 C152 1.497 . S
C153 C154 1.395 . S
C153 C155 1.380 . S
C154 C153 1.395 . S
C154 C157 1.398 . S
C154 H164 0.930 . S
C155 C153 1.380 . S
C155 C156 1.391 . S
C155 H165 0.930 . S
C156 C155 1.391 . S
C156 C158 1.387 . S
C157 C154 1.398 . S
C157 C158 1.380 . S
C157 H166 0.930 . S
C158 C156 1.387 . S
C158 C157 1.380 . S
C158 H167 0.930 . S
C159 O136 1.254 1_554 S
C159 O137 1.268 . S
H160 C145 0.930 . S
H161 C146 0.930 . S
H162 C148 0.930 . S
H163 C149 0.930 . S
H164 C154 0.930 . S
H165 C155 0.930 . S
H166 C157 0.930 . S
H167 C158 0.930 . S
Gd168 N199 2.661 . S
Gd168 N205 2.601 . S
Gd168 O212 2.545 . S
Gd168 O213 2.606 . S
Gd168 O215 2.429 . S
Gd168 O216 2.545 . S
Gd168 O217 2.412 . S
Gd168 O219 2.362 . S
Gd168 O220 2.324 . S
Gd168 C227 2.828 . S
Gd169 N178 2.661 . S
Gd169 N182 2.601 . S
Gd169 O213 2.362 . S
Gd169 O214 2.324 . S
Gd169 O218 2.545 . S
Gd169 O219 2.606 . S
Gd169 O221 2.429 . S
Gd169 O222 2.545 . S
Gd169 O223 2.412 . S
Gd169 C236 2.828 . S
C170 C173 1.417 . S
C170 C175 1.431 . S
C170 C176 1.412 . S
C171 C174 1.437 . S
C171 C175 1.317 . S
C171 H190 0.929 . S
C172 C173 1.426 1_455 S
C172 C174 1.413 1_455 S
C172 N182 1.359 . S
C173 C170 1.417 . S
C173 C172 1.426 1_655 S
C173 N178 1.350 1_655 S
C174 C171 1.437 . S
C174 C172 1.413 1_655 S
C174 C184 1.391 1_655 S
C175 C170 1.431 . S
C175 C171 1.317 . S
C175 H186 0.930 . S
C176 C170 1.412 . S
C176 C177 1.355 . S
C176 H188 0.930 . S
C177 C176 1.355 . S
C177 C179 1.402 . S
C177 H189 0.930 . S
N178 Gd169 2.661 . S
N178 C173 1.350 1_455 S
N178 C179 1.307 1_455 S
C179 C177 1.402 . S
C179 N178 1.307 1_655 S
C179 H180 0.930 1_655 S
H180 C179 0.930 1_455 S
C181 N182 1.334 . S
C181 C183 1.394 . S
C181 H185 0.930 . S
N182 Gd169 2.601 . S
N182 C172 1.359 . S
N182 C181 1.334 . S
C183 C181 1.394 . S
C183 C184 1.359 . S
C183 H195 0.930 . S
C184 C174 1.391 1_455 S
C184 C183 1.359 . S
C184 H196 0.929 1_455 S
H185 C181 0.930 . S
H186 C175 0.930 . S
H187 C204 0.930 . S
H188 C176 0.930 . S
H189 C177 0.930 . S
H190 C171 0.929 . S
H191 C209 0.930 . S
H192 C200 0.930 . S
H193 C201 0.930 . S
H194 C225 0.929 . S
H195 C183 0.930 . S
H196 C184 0.929 1_655 S
H197 C226 0.930 . S
H198 C207 0.930 1_545 S
N199 Gd168 2.661 . S
N199 C203 1.350 . S
N199 C204 1.307 . S
C200 H192 0.930 . S
C200 C201 1.355 . S
C200 C202 1.412 . S
C201 H193 0.930 . S
C201 C200 1.355 . S
C201 C204 1.402 . S
C202 C200 1.412 . S
C202 C203 1.417 . S
C202 C226 1.431 . S
C203 N199 1.350 . S
C203 C202 1.417 . S
C203 C206 1.426 . S
C204 H187 0.930 . S
C204 N199 1.307 . S
C204 C201 1.402 . S
N205 Gd168 2.601 . S
N205 C206 1.359 . S
N205 C209 1.334 . S
C206 C203 1.426 . S
C206 N205 1.359 . S
C206 C210 1.413 . S
C207 H198 0.930 1_565 S
C207 C208 1.359 . S
C207 C209 1.394 . S
C208 C207 1.359 . S
C208 C210 1.391 . S
C208 H211 0.929 1_565 S
C209 H191 0.930 . S
C209 N205 1.334 . S
C209 C207 1.394 . S
C210 C206 1.413 . S
C210 C208 1.391 . S
C210 C225 1.437 . S
H211 C208 0.929 1_545 S
O212 Gd168 2.545 . S
O212 C227 1.258 . S
O213 Gd168 2.606 . S
O213 Gd169 2.362 . S
O213 C224 1.284 . S
O214 Gd169 2.324 . S
O214 C234 1.254 . S
O215 Gd168 2.429 . S
O215 C234 1.268 . S
O216 Gd168 2.545 . S
O216 C224 1.250 . S
O217 Gd168 2.412 . S
O217 C227 1.252 . S
O218 Gd169 2.545 . S
O218 C236 1.258 . S
O219 Gd168 2.362 . S
O219 Gd169 2.606 . S
O219 C235 1.284 . S
O220 Gd168 2.324 . S
O220 C243 1.254 . S
O221 Gd169 2.429 . S
O221 C243 1.268 . S
O222 Gd169 2.545 . S
O222 C235 1.250 . S
O223 Gd169 2.412 . S
O223 C236 1.252 . S
C224 O213 1.284 . S
C224 O216 1.250 . S
C225 H194 0.929 . S
C225 C210 1.437 . S
C225 C226 1.317 . S
C226 H197 0.930 . S
C226 C202 1.431 . S
C226 C225 1.317 . S
C227 Gd168 2.828 . S
C227 O212 1.258 . S
C227 O217 1.252 . S
C227 C228 1.497 . S
C228 C227 1.497 . S
C228 C229 1.395 . S
C228 C230 1.380 . S
C229 C228 1.395 . S
C229 C232 1.398 . S
C229 H244 0.930 . S
C230 C228 1.380 . S
C230 C231 1.391 . S
C230 H245 0.930 . S
C231 C230 1.391 . S
C231 C233 1.387 . S
C232 C229 1.398 . S
C232 C233 1.380 . S
C232 H246 0.930 . S
C233 C231 1.387 . S
C233 C232 1.380 . S
C233 H247 0.930 . S
C234 O214 1.254 . S
C234 O215 1.268 . S
C235 O219 1.284 . S
C235 O222 1.250 . S
C236 Gd169 2.828 . S
C236 O218 1.258 . S
C236 O223 1.252 . S
C236 C237 1.497 . S
C237 C236 1.497 . S
C237 C238 1.395 . S
C237 C239 1.380 . S
C238 C237 1.395 . S
C238 C241 1.398 1_455 S
C238 H248 0.930 . S
C239 C237 1.380 . S
C239 C240 1.391 1_455 S
C239 H249 0.930 . S
C240 C239 1.391 1_655 S
C240 C242 1.387 . S
C241 C238 1.398 1_655 S
C241 C242 1.380 . S
C241 H250 0.930 . S
C242 C240 1.387 . S
C242 C241 1.380 . S
C242 H251 0.930 . S
C243 O220 1.254 . S
C243 O221 1.268 . S
H244 C229 0.930 . S
H245 C230 0.930 . S
H246 C232 0.930 . S
H247 C233 0.930 . S
H248 C238 0.930 . S
H249 C239 0.930 . S
H250 C241 0.930 . S
H251 C242 0.930 . S
Gd252 N283 2.661 . S
Gd252 N289 2.601 . S
Gd252 O296 2.545 . S
Gd252 O297 2.606 . S
Gd252 O299 2.429 . S
Gd252 O300 2.545 . S
Gd252 O301 2.412 . S
Gd252 O303 2.362 . S
Gd252 O304 2.324 . S
Gd252 C311 2.828 . S
Gd253 N262 2.661 . S
Gd253 N266 2.601 . S
Gd253 O297 2.362 . S
Gd253 O298 2.324 . S
Gd253 O302 2.545 . S
Gd253 O303 2.606 . S
Gd253 O305 2.429 . S
Gd253 O306 2.545 . S
Gd253 O307 2.412 . S
Gd253 C320 2.828 . S
C254 C257 1.417 . S
C254 C259 1.431 . S
C254 C260 1.412 . S
C255 C258 1.437 . S
C255 C259 1.317 . S
C255 H274 0.929 . S
C256 C257 1.426 . S
C256 C258 1.413 . S
C256 N266 1.359 . S
C257 C254 1.417 . S
C257 C256 1.426 . S
C257 N262 1.350 . S
C258 C255 1.437 . S
C258 C256 1.413 . S
C258 C268 1.391 . S
C259 C254 1.431 . S
C259 C255 1.317 . S
C259 H270 0.930 . S
C260 C254 1.412 . S
C260 C261 1.355 . S
C260 H272 0.930 . S
C261 C260 1.355 . S
C261 C263 1.402 . S
C261 H273 0.930 . S
N262 Gd253 2.661 . S
N262 C257 1.350 . S
N262 C263 1.307 . S
C263 C261 1.402 . S
C263 N262 1.307 . S
C263 H264 0.930 . S
H264 C263 0.930 . S
C265 N266 1.334 . S
C265 C267 1.394 . S
C265 H269 0.930 . S
N266 Gd253 2.601 . S
N266 C256 1.359 . S
N266 C265 1.334 . S
C267 C265 1.394 . S
C267 C268 1.359 . S
C267 H279 0.930 1_545 S
C268 C258 1.391 . S
C268 C267 1.359 . S
C268 H280 0.929 1_545 S
H269 C265 0.930 . S
H270 C259 0.930 . S
H271 C288 0.930 1_655 S
H272 C260 0.930 . S
H273 C261 0.930 . S
H274 C255 0.929 . S
H275 C293 0.930 . S
H276 C284 0.930 . S
H277 C285 0.930 . S
H278 C309 0.929 . S
H279 C267 0.930 1_565 S
H280 C268 0.929 1_565 S
H281 C310 0.930 . S
H282 C291 0.930 . S
N283 Gd252 2.661 . S
N283 C287 1.350 1_655 S
N283 C288 1.307 1_655 S
C284 H276 0.930 . S
C284 C285 1.355 . S
C284 C286 1.412 . S
C285 H277 0.930 . S
C285 C284 1.355 . S
C285 C288 1.402 . S
C286 C284 1.412 . S
C286 C287 1.417 . S
C286 C310 1.431 . S
C287 N283 1.350 1_455 S
C287 C286 1.417 . S
C287 C290 1.426 1_455 S
C288 H271 0.930 1_455 S
C288 N283 1.307 1_455 S
C288 C285 1.402 . S
N289 Gd252 2.601 . S
N289 C290 1.359 . S
N289 C293 1.334 . S
C290 C287 1.426 1_655 S
C290 N289 1.359 . S
C290 C294 1.413 1_655 S
C291 H282 0.930 . S
C291 C292 1.359 . S
C291 C293 1.394 . S
C292 C291 1.359 . S
C292 C294 1.391 1_655 S
C292 H295 0.929 1_655 S
C293 H275 0.930 . S
C293 N289 1.334 . S
C293 C291 1.394 . S
C294 C290 1.413 1_455 S
C294 C292 1.391 1_455 S
C294 C309 1.437 . S
H295 C292 0.929 1_455 S
O296 Gd252 2.545 . S
O296 C311 1.258 . S
O297 Gd252 2.606 . S
O297 Gd253 2.362 . S
O297 C308 1.284 . S
O298 Gd253 2.324 . S
O298 C318 1.254 . S
O299 Gd252 2.429 . S
O299 C318 1.268 . S
O300 Gd252 2.545 . S
O300 C308 1.250 . S
O301 Gd252 2.412 . S
O301 C311 1.252 . S
O302 Gd253 2.545 . S
O302 C320 1.258 . S
O303 Gd252 2.362 . S
O303 Gd253 2.606 . S
O303 C319 1.284 . S
O304 Gd252 2.324 . S
O304 C327 1.254 . S
O305 Gd253 2.429 . S
O305 C327 1.268 . S
O306 Gd253 2.545 . S
O306 C319 1.250 . S
O307 Gd253 2.412 . S
O307 C320 1.252 . S
C308 O297 1.284 . S
C308 O300 1.250 . S
C309 H278 0.929 . S
C309 C294 1.437 . S
C309 C310 1.317 . S
C310 H281 0.930 . S
C310 C286 1.431 . S
C310 C309 1.317 . S
C311 Gd252 2.828 . S
C311 O296 1.258 . S
C311 O301 1.252 . S
C311 C312 1.497 . S
C312 C311 1.497 . S
C312 C313 1.395 . S
C312 C314 1.380 . S
C313 C312 1.395 . S
C313 C316 1.398 1_655 S
C313 H328 0.930 . S
C314 C312 1.380 . S
C314 C315 1.391 1_655 S
C314 H329 0.930 . S
C315 C314 1.391 1_455 S
C315 C317 1.387 . S
C316 C313 1.398 1_455 S
C316 C317 1.380 . S
C316 H330 0.930 . S
C317 C315 1.387 . S
C317 C316 1.380 . S
C317 H331 0.930 . S
C318 O298 1.254 . S
C318 O299 1.268 . S
C319 O303 1.284 . S
C319 O306 1.250 . S
C320 Gd253 2.828 . S
C320 O302 1.258 . S
C320 O307 1.252 . S
C320 C321 1.497 . S
C321 C320 1.497 . S
C321 C322 1.395 . S
C321 C323 1.380 . S
C322 C321 1.395 . S
C322 C325 1.398 . S
C322 H332 0.930 . S
C323 C321 1.380 . S
C323 C324 1.391 . S
C323 H333 0.930 . S
C324 C323 1.391 . S
C324 C326 1.387 . S
C325 C322 1.398 . S
C325 C326 1.380 . S
C325 H334 0.930 . S
C326 C324 1.387 . S
C326 C325 1.380 . S
C326 H335 0.930 . S
C327 O304 1.254 . S
C327 O305 1.268 . S
H328 C313 0.930 . S
H329 C314 0.930 . S
H330 C316 0.930 . S
H331 C317 0.930 . S
H332 C322 0.930 . S
H333 C323 0.930 . S
H334 C325 0.930 . S
H335 C326 0.930 . S
H336 C344 0.950 . S
H337 C349 0.950 . S
H338 C346 0.950 . S
H339 C348 0.950 . S
H340 C350 0.950 . S
H341 C352 0.950 . S
H342 C354 0.950 . S
H343 C355 0.950 . S
C344 H336 0.950 . S
C344 C345 1.386 1_554 S
C344 C346 1.391 . S
C345 C344 1.386 1_556 S
C345 C349 1.393 . S
C346 H338 0.950 . S
C346 C344 1.391 . S
C346 C347 1.393 1_554 S
C347 C346 1.393 1_556 S
C347 C348 1.411 . S
C347 C353 1.476 1_556 S
C348 H339 0.950 . S
C348 C347 1.411 . S
C348 C349 1.391 . S
C349 H337 0.950 . S
C349 C345 1.393 . S
C349 C348 1.391 . S
C350 H340 0.950 . S
C350 C351 1.386 1_556 S
C350 C352 1.391 . S
C351 C350 1.386 1_554 S
C351 C355 1.393 . S
C352 H341 0.950 . S
C352 C350 1.391 . S
C352 C353 1.389 1_556 S
C353 C347 1.476 1_554 S
C353 C352 1.389 1_554 S
C353 C354 1.419 . S
C354 H342 0.950 . S
C354 C353 1.419 . S
C354 C355 1.391 . S
C355 H343 0.950 . S
C355 C351 1.393 . S
C355 C354 1.391 . S
H356 C364 0.950 . S
H357 C369 0.950 . S
H358 C366 0.950 . S
H359 C368 0.950 . S
H360 C370 0.950 . S
H361 C372 0.950 . S
H362 C374 0.950 . S
H363 C375 0.950 . S
C364 H356 0.950 . S
C364 C365 1.386 . S
C364 C366 1.391 . S
C365 C364 1.386 . S
C365 C369 1.393 . S
C366 H358 0.950 . S
C366 C364 1.391 . S
C366 C367 1.400 . S
C367 C366 1.400 . S
C367 C368 1.398 . S
C367 C373 1.491 . S
C368 H359 0.950 . S
C368 C367 1.398 . S
C368 C369 1.391 . S
C369 H357 0.950 . S
C369 C365 1.393 . S
C369 C368 1.391 . S
C370 H360 0.950 . S
C370 C371 1.386 . S
C370 C372 1.391 . S
C371 C370 1.386 . S
C371 C375 1.393 . S
C372 H361 0.950 . S
C372 C370 1.391 . S
C372 C373 1.400 . S
C373 C367 1.491 . S
C373 C372 1.400 . S
C373 C374 1.398 . S
C374 H362 0.950 . S
C374 C373 1.398 . S
C374 C375 1.391 . S
C375 H363 0.950 . S
C375 C371 1.393 . S
C375 C374 1.391 . S
H376 C384 0.950 . S
H377 C389 0.950 . S
H378 C386 0.950 1_655 S
H379 C388 0.950 1_565 S
H380 C390 0.950 . S
H381 C392 0.950 1_455 S
H382 C394 0.950 1_545 S
H383 C395 0.950 . S
C384 H376 0.950 . S
C384 C385 1.386 1_554 S
C384 C386 1.391 . S
C385 C384 1.386 1_556 S
C385 C389 1.393 . S
C386 H378 0.950 1_455 S
C386 C384 1.391 . S
C386 C387 1.400 1_554 S
C387 C386 1.400 1_556 S
C387 C388 1.398 . S
C387 C393 1.491 1_446 S
C388 H379 0.950 1_545 S
C388 C387 1.398 . S
C388 C389 1.391 . S
C389 H377 0.950 . S
C389 C385 1.393 . S
C389 C388 1.391 . S
C390 H380 0.950 . S
C390 C391 1.386 1_556 S
C390 C392 1.391 . S
C391 C390 1.386 1_554 S
C391 C395 1.393 . S
C392 H381 0.950 1_655 S
C392 C390 1.391 . S
C392 C393 1.400 1_556 S
C393 C387 1.491 1_664 S
C393 C392 1.400 1_554 S
C393 C394 1.398 . S
C394 H382 0.950 1_565 S
C394 C393 1.398 . S
C394 C395 1.391 . S
C395 H383 0.950 . S
C395 C391 1.393 . S
C395 C394 1.391 . S
H396 C404 0.950 . S
H397 C409 0.950 . S
H398 C406 0.950 . S
H399 C408 0.950 1_455 S
H400 C410 0.950 . S
H401 C412 0.950 . S
H402 C414 0.950 1_655 S
H403 C415 0.950 . S
C404 H396 0.950 . S
C404 C405 1.386 . S
C404 C406 1.391 . S
C405 C404 1.386 . S
C405 C409 1.393 . S
C406 H398 0.950 . S
C406 C404 1.391 . S
C406 C407 1.400 . S
C407 C406 1.400 . S
C407 C408 1.398 . S
C407 C413 1.491 1_645 S
C408 H399 0.950 1_655 S
C408 C407 1.398 . S
C408 C409 1.391 . S
C409 H397 0.950 . S
C409 C405 1.393 . S
C409 C408 1.391 . S
C410 H400 0.950 . S
C410 C411 1.386 . S
C410 C412 1.391 . S
C411 C410 1.386 . S
C411 C415 1.393 . S
C412 H401 0.950 . S
C412 C410 1.391 . S
C412 C413 1.400 . S
C413 C407 1.491 1_465 S
C413 C412 1.400 . S
C413 C414 1.398 . S
C414 H402 0.950 1_455 S
C414 C413 1.398 . S
C414 C415 1.391 . S
C415 H403 0.950 . S
C415 C411 1.393 . S
C415 C414 1.391 . S
H416 C424 0.950 . S
H417 C429 0.950 . S
H418 C426 0.950 . S
H419 C428 0.950 . S
H420 C430 0.950 . S
H421 C432 0.950 . S
H422 C434 0.950 . S
H423 C435 0.950 . S
C424 H416 0.950 . S
C424 C425 1.386 . S
C424 C426 1.391 . S
C425 C424 1.386 . S
C425 C429 1.393 . S
C426 H418 0.950 . S
C426 C424 1.391 . S
C426 C427 1.400 . S
C427 C426 1.400 . S
C427 C428 1.398 . S
C427 C433 1.491 . S
C428 H419 0.950 . S
C428 C427 1.398 . S
C428 C429 1.391 . S
C429 H417 0.950 . S
C429 C425 1.393 . S
C429 C428 1.391 . S
C430 H420 0.950 . S
C430 C431 1.386 . S
C430 C432 1.391 . S
C431 C430 1.386 . S
C431 C435 1.393 . S
C432 H421 0.950 . S
C432 C430 1.391 . S
C432 C433 1.400 . S
C433 C427 1.491 . S
C433 C432 1.400 . S
C433 C434 1.398 . S
C434 H422 0.950 . S
C434 C433 1.398 . S
C434 C435 1.391 . S
C435 H423 0.950 . S
C435 C431 1.393 . S
C435 C434 1.391 . S
H436 C444 0.950 . S
H437 C449 0.950 . S
H438 C446 0.950 . S
H439 C448 0.950 . S
H440 C450 0.950 . S
H441 C452 0.950 . S
H442 C454 0.950 . S
H443 C455 0.950 . S
C444 H436 0.950 . S
C444 C445 1.386 . S
C444 C446 1.391 . S
C445 C444 1.386 . S
C445 C449 1.393 . S
C446 H438 0.950 . S
C446 C444 1.391 . S
C446 C447 1.400 . S
C447 C446 1.400 . S
C447 C448 1.398 . S
C447 C453 1.491 . S
C448 H439 0.950 . S
C448 C447 1.398 . S
C448 C449 1.391 . S
C449 H437 0.950 . S
C449 C445 1.393 . S
C449 C448 1.391 . S
C450 H440 0.950 . S
C450 C451 1.386 . S
C450 C452 1.391 . S
C451 C450 1.386 . S
C451 C455 1.393 . S
C452 H441 0.950 . S
C452 C450 1.391 . S
C452 C453 1.400 . S
C453 C447 1.491 . S
C453 C452 1.400 . S
C453 C454 1.398 . S
C454 H442 0.950 . S
C454 C453 1.398 . S
C454 C455 1.391 . S
C455 H443 0.950 . S
C455 C451 1.393 . S
C455 C454 1.391 . S
H456 C464 0.950 . S
H457 C469 0.950 . S
H458 C466 0.950 . S
H459 C468 0.950 . S
H460 C470 0.950 . S
H461 C472 0.950 . S
H462 C474 0.950 . S
H463 C475 0.950 . S
C464 H456 0.950 . S
C464 C465 1.386 . S
C464 C466 1.391 . S
C465 C464 1.386 . S
C465 C469 1.393 . S
C466 H458 0.950 . S
C466 C464 1.391 . S
C466 C467 1.400 . S
C467 C466 1.400 . S
C467 C468 1.398 . S
C467 C473 1.491 . S
C468 H459 0.950 . S
C468 C467 1.398 . S
C468 C469 1.391 . S
C469 H457 0.950 . S
C469 C465 1.393 . S
C469 C468 1.391 . S
C470 H460 0.950 . S
C470 C471 1.386 . S
C470 C472 1.391 . S
C471 C470 1.386 . S
C471 C475 1.393 . S
C472 H461 0.950 . S
C472 C470 1.391 . S
C472 C473 1.400 . S
C473 C467 1.491 . S
C473 C472 1.400 . S
C473 C474 1.398 . S
C474 H462 0.950 . S
C474 C473 1.398 . S
C474 C475 1.391 . S
C475 H463 0.950 . S
C475 C471 1.393 . S
C475 C474 1.391 . S
H476 C484 0.950 . S
H477 C489 0.950 . S
H478 C486 0.950 . S
H479 C488 0.950 . S
H480 C490 0.950 . S
H481 C492 0.950 . S
H482 C494 0.950 . S
H483 C495 0.950 . S
C484 H476 0.950 . S
C484 C485 1.386 . S
C484 C486 1.391 . S
C485 C484 1.386 . S
C485 C489 1.393 . S
C486 H478 0.950 . S
C486 C484 1.391 . S
C486 C487 1.400 . S
C487 C486 1.400 . S
C487 C488 1.398 . S
C487 C493 1.491 . S
C488 H479 0.950 . S
C488 C487 1.398 . S
C488 C489 1.391 . S
C489 H477 0.950 . S
C489 C485 1.393 . S
C489 C488 1.391 . S
C490 H480 0.950 . S
C490 C491 1.386 . S
C490 C492 1.391 . S
C491 C490 1.386 . S
C491 C495 1.393 . S
C492 H481 0.950 . S
C492 C490 1.391 . S
C492 C493 1.400 . S
C493 C487 1.491 . S
C493 C492 1.400 . S
C493 C494 1.398 . S
C494 H482 0.950 . S
C494 C493 1.398 . S
C494 C495 1.391 . S
C495 H483 0.950 . S
C495 C491 1.393 . S
C495 C494 1.391 . S
H496 C504 0.950 . S
H497 C509 0.950 . S
H498 C506 0.950 . S
H499 C508 0.950 1_455 S
H500 C510 0.950 . S
H501 C512 0.950 . S
H502 C514 0.950 . S
H503 C515 0.950 . S
C504 H496 0.950 . S
C504 C505 1.386 . S
C504 C506 1.391 . S
C505 C504 1.386 . S
C505 C509 1.393 . S
C506 H498 0.950 . S
C506 C504 1.391 . S
C506 C507 1.400 . S
C507 C506 1.400 . S
C507 C508 1.398 . S
C507 C513 1.491 . S
C508 H499 0.950 1_655 S
C508 C507 1.398 . S
C508 C509 1.391 . S
C509 H497 0.950 . S
C509 C505 1.393 . S
C509 C508 1.391 . S
C510 H500 0.950 . S
C510 C511 1.386 1_455 S
C510 C512 1.391 . S
C511 C510 1.386 1_655 S
C511 C515 1.393 . S
C512 H501 0.950 . S
C512 C510 1.391 . S
C512 C513 1.400 1_455 S
C513 C507 1.491 . S
C513 C512 1.400 1_655 S
C513 C514 1.398 . S
C514 H502 0.950 . S
C514 C513 1.398 . S
C514 C515 1.391 . S
C515 H503 0.950 . S
C515 C511 1.393 . S
C515 C514 1.391 . S
H516 C524 0.950 . S
H517 C529 0.950 . S
H518 C526 0.950 . S
H519 C528 0.950 . S
H520 C530 0.950 . S
H521 C532 0.950 . S
H522 C534 0.950 . S
H523 C535 0.950 . S
C524 H516 0.950 . S
C524 C525 1.386 . S
C524 C526 1.391 . S
C525 C524 1.386 . S
C525 C529 1.393 . S
C526 H518 0.950 . S
C526 C524 1.391 . S
C526 C527 1.400 . S
C527 C526 1.400 . S
C527 C528 1.398 . S
C527 C533 1.491 . S
C528 H519 0.950 . S
C528 C527 1.398 . S
C528 C529 1.391 . S
C529 H517 0.950 . S
C529 C525 1.393 . S
C529 C528 1.391 . S
C530 H520 0.950 . S
C530 C531 1.386 1_455 S
C530 C532 1.391 . S
C531 C530 1.386 1_655 S
C531 C535 1.393 . S
C532 H521 0.950 . S
C532 C530 1.391 . S
C532 C533 1.400 1_455 S
C533 C527 1.491 . S
C533 C532 1.400 1_655 S
C533 C534 1.398 . S
C534 H522 0.950 . S
C534 C533 1.398 . S
C534 C535 1.391 . S
C535 H523 0.950 . S
C535 C531 1.393 . S
C535 C534 1.391 . S
H536 C544 0.950 . S
H537 C549 0.950 . S
H538 C546 0.950 . S
H539 C548 0.950 1_655 S
H540 C550 0.950 . S
H541 C552 0.950 . S
H542 C554 0.950 . S
H543 C555 0.950 . S
C544 H536 0.950 . S
C544 C545 1.386 . S
C544 C546 1.391 . S
C545 C544 1.386 . S
C545 C549 1.393 1_455 S
C546 H538 0.950 . S
C546 C544 1.391 . S
C546 C547 1.400 . S
C547 C546 1.400 . S
C547 C548 1.398 . S
C547 C553 1.491 . S
C548 H539 0.950 1_455 S
C548 C547 1.398 . S
C548 C549 1.391 1_455 S
C549 H537 0.950 . S
C549 C545 1.393 1_655 S
C549 C548 1.391 1_655 S
C550 H540 0.950 . S
C550 C551 1.386 . S
C550 C552 1.391 . S
C551 C550 1.386 . S
C551 C555 1.393 . S
C552 H541 0.950 . S
C552 C550 1.391 . S
C552 C553 1.400 . S
C553 C547 1.491 . S
C553 C552 1.400 . S
C553 C554 1.398 . S
C554 H542 0.950 . S
C554 C553 1.398 . S
C554 C555 1.391 . S
C555 H543 0.950 . S
C555 C551 1.393 . S
C555 C554 1.391 . S
H556 C564 0.950 . S
H557 C569 0.950 . S
H558 C566 0.950 . S
H559 C568 0.950 . S
H560 C570 0.950 . S
H561 C572 0.950 1_655 S
H562 C574 0.950 . S
H563 C575 0.950 . S
C564 H556 0.950 . S
C564 C565 1.386 . S
C564 C566 1.391 . S
C565 C564 1.386 . S
C565 C569 1.393 . S
C566 H558 0.950 . S
C566 C564 1.391 . S
C566 C567 1.400 . S
C567 C566 1.400 . S
C567 C568 1.398 . S
C567 C573 1.491 . S
C568 H559 0.950 . S
C568 C567 1.398 . S
C568 C569 1.391 . S
C569 H557 0.950 . S
C569 C565 1.393 . S
C569 C568 1.391 . S
C570 H560 0.950 . S
C570 C571 1.386 1_655 S
C570 C572 1.391 1_655 S
C571 C570 1.386 1_455 S
C571 C575 1.393 . S
C572 H561 0.950 1_455 S
C572 C570 1.391 1_455 S
C572 C573 1.400 . S
C573 C567 1.491 . S
C573 C572 1.400 . S
C573 C574 1.398 . S
C574 H562 0.950 . S
C574 C573 1.398 . S
C574 C575 1.391 . S
C575 H563 0.950 . S
C575 C571 1.393 . S
C575 C574 1.391 . S
C345 C150 1.492 . S
C351 C75 1.492 . S
C365 C243 1.513 . S
C371 C318 1.513 . S
C385 C66 1.494 . S
C391 C159 1.495 . S
C405 C327 1.500 . S
C411 C234 1.500 . S
C425 C324 1.192 . S
C431 C67 1.186 . S
C445 C156 1.230 . S
C451 C235 1.208 . S
C465 C140 1.196 . S
C471 C231 1.197 . S
C485 C308 1.205 . S
C491 C63 1.202 . S
C505 C151 1.218 . S
C511 C240 1.223 . S
C525 C319 1.206 . S
C531 C72 1.228 . S
C545 C315 1.194 . S
C551 C56 1.195 . S
C565 C224 1.203 . S
C571 C147 1.201 . S
