# Generated by pormake.
# Topology qtz-x, (6)-cn, num edge types: 1
# Building blocks:
#     Node 0, Type 0, BuildingBlock: KUMBOL_clean_sbu_0, # of connection points: 6
#     Node 1, Type 0, BuildingBlock: KUMBOL_clean_sbu_0, # of connection points: 6
#     Node 2, Type 0, BuildingBlock: KUMBOL_clean_sbu_0, # of connection points: 6
#     Edge 3, Type (0, 0), BuildingBlock: XUDNAN_clean_linker_2, # of connection points: 2
#     Edge 4, Type (0, 0), BuildingBlock: XUDNAN_clean_linker_2, # of connection points: 2
#     Edge 5, Type (0, 0), BuildingBlock: XUDNAN_clean_linker_2, # of connection points: 2
#     Edge 6, Type (0, 0), BuildingBlock: XUDNAN_clean_linker_2, # of connection points: 2
#     Edge 7, Type (0, 0), BuildingBlock: XUDNAN_clean_linker_2, # of connection points: 2
#     Edge 8, Type (0, 0), BuildingBlock: XUDNAN_clean_linker_2, # of connection points: 2
#     Edge 9, Type (0, 0), BuildingBlock: XUDNAN_clean_linker_2, # of connection points: 2
#     Edge 10, Type (0, 0), BuildingBlock: XUDNAN_clean_linker_2, # of connection points: 2
#     Edge 11, Type (0, 0), BuildingBlock: XUDNAN_clean_linker_2, # of connection points: 2
# Relax obj value: 0.166
# Max RMSD: 0.280
# Mean RMSD: 0.280
data_MOF--net-qtz-x--node1-KUMBOL_clean_sbu_0--edge1-XUDNAN_clean_linker_2
_symmetry_space_group_name_H-M    P1
_symmetry_Int_Tables_number       1
_symmetry_cell_setting            triclinic
loop_
_symmetry_equiv_pos_as_xyz
'x, y, z'
_cell_length_a     15.121338
_cell_length_b     15.067678
_cell_length_c     51.173677
_cell_angle_alpha  90.075482
_cell_angle_beta   90.008647
_cell_angle_gamma 120.10712
loop_
_atom_site_label
_atom_site_type_symbol
_atom_site_fract_x
_atom_site_fract_y
_atom_site_fract_z
_atom_type_partial_charge
Gd0 Gd 0.04491 0.3408 0.15523 0.0
Gd1 Gd 0.25114 0.46127 0.20265 0.0
C2 C 0.54065 0.68887 0.15836 0.0
C3 C 0.65309 0.61991 0.16588 0.0
C4 C 0.47988 0.53248 0.18336 0.0
C5 C 0.46297 0.60701 0.17282 0.0
C6 C 0.5768 0.54072 0.18096 0.0
C7 C 0.63468 0.69333 0.15439 0.0
C8 C 0.52266 0.76551 0.14899 0.0
C9 C 0.4307 0.7614 0.15491 0.0
N10 N 0.37205 0.60174 0.17752 0.0
C11 C 0.35671 0.67952 0.16958 0.0
H12 H 0.28799 0.6797 0.17448 0.0
C13 C 0.42376 0.39017 0.2115 0.0
N14 N 0.40435 0.45631 0.19761 0.0
C15 C 0.51906 0.39673 0.21021 0.0
C16 C 0.59587 0.4722 0.19483 0.0
H17 H 0.36644 0.3339 0.22439 0.0
H18 H 0.69483 0.75512 0.14319 0.0
H19 H 0.93744 0.08911 0.17771 0.0
H20 H 0.58023 0.82949 0.1378 0.0
H21 H 0.41699 0.82174 0.14837 0.0
H22 H 0.72731 0.62634 0.16349 0.0
H23 H 0.97456 0.49698 0.12631 0.0
H24 H 0.64944 0.00525 0.21104 0.0
H25 H 0.78622 0.96681 0.20111 0.0
H26 H 0.58509 0.26837 0.18309 0.0
H27 H 0.53387 0.34492 0.22153 0.0
H28 H 0.67072 0.47928 0.19463 0.0
H29 H 0.57617 0.11918 0.20474 0.0
H30 H 0.82825 0.52532 0.12588 0.0
N31 N 0.89622 0.20644 0.17569 0.0
C32 C 0.7179 0.06199 0.2011 0.0
C33 C 0.79477 0.03995 0.19548 0.0
C34 C 0.72733 0.15407 0.19238 0.0
C35 C 0.81835 0.22592 0.17954 0.0
C36 C 0.88249 0.11196 0.18228 0.0
N37 N 0.91063 0.37819 0.15499 0.0
C38 C 0.82516 0.31332 0.16854 0.0
C39 C 0.82707 0.4668 0.13837 0.0
C40 C 0.74159 0.40533 0.15355 0.0
C41 C 0.91017 0.4507 0.13887 0.0
C42 C 0.73928 0.32712 0.16874 0.0
H43 H 0.67585 0.41558 0.15234 0.0
O44 O 0.05767 0.39256 0.11506 0.0
O45 O 0.21166 0.45718 0.16059 0.0
O46 O 0.15382 0.53411 0.20496 0.0
O47 O 0.08228 0.50436 0.1637 0.0
O48 O 0.17419 0.33629 0.13519 0.0
O49 O 0.95884 0.23157 0.12463 0.0
O50 O 0.27479 0.58214 0.23018 0.0
O51 O 0.08178 0.36945 0.19764 0.0
O52 O 0.08869 0.22268 0.16557 0.0
O53 O 0.23081 0.30508 0.19345 0.0
O54 O 0.14606 0.32078 0.22587 0.0
O55 O 0.32541 0.47644 0.24001 0.0
C56 C 0.24772 0.42183 0.14386 0.0
C57 C 0.65125 0.25857 0.18262 0.0
C58 C 0.64595 0.17316 0.19478 0.0
C59 C 0.99063 0.30178 0.10646 0.0
C60 C 0.91438 0.2971 0.08774 0.0
C61 C 0.81122 0.25575 0.09462 0.0
C62 C 0.94625 0.33466 0.06234 0.0
C63 C 0.8762 0.33162 0.04374 0.0
C64 C 0.74122 0.25277 0.07631 0.0
C65 C 0.7732 0.29023 0.05102 0.0
C66 C 0.1051 0.55276 0.1864 0.0
C67 C 0.06105 0.30397 0.21547 0.0
C68 C 0.31258 0.55039 0.2483 0.0
C69 C 0.26853 0.53561 0.27469 0.0
C70 C 0.16401 0.46813 0.2788 0.0
C71 C 0.33298 0.58202 0.29627 0.0
C72 C 0.29347 0.56102 0.32192 0.0
C73 C 0.12459 0.44582 0.30413 0.0
C74 C 0.18851 0.49241 0.32557 0.0
C75 C 0.16223 0.22453 0.18002 0.0
H76 H 0.78482 0.22615 0.11408 0.0
H77 H 0.0258 0.36559 0.05703 0.0
H78 H 0.66194 0.22169 0.08177 0.0
H79 H 0.71771 0.28856 0.03734 0.0
H80 H 0.11346 0.43156 0.26246 0.0
H81 H 0.41386 0.63391 0.29306 0.0
H82 H 0.04438 0.39133 0.30722 0.0
H83 H 0.15619 0.47295 0.34502 0.0
Gd84 Gd 0.72865 0.16356 0.4877 0.0
Gd85 Gd 0.60152 0.93557 0.53027 0.0
C86 C 0.39842 0.60482 0.50324 0.0
C87 C 0.2374 0.55923 0.52434 0.0
C88 C 0.38054 0.7339 0.52722 0.0
C89 C 0.43999 0.70639 0.51251 0.0
C90 C 0.2785 0.66048 0.5333 0.0
C91 C 0.29663 0.53185 0.50901 0.0
C92 C 0.4622 0.57787 0.48986 0.0
C93 C 0.56591 0.64965 0.48735 0.0
N94 N 0.54086 0.7758 0.50955 0.0
C95 C 0.60446 0.74769 0.49803 0.0
H96 H 0.68493 0.80159 0.49654 0.0
C97 C 0.37092 0.8586 0.55331 0.0
N98 N 0.42483 0.83033 0.53725 0.0
C99 C 0.26835 0.78961 0.55901 0.0
C100 C 0.22205 0.68991 0.54909 0.0
H101 H 0.40678 0.93455 0.56169 0.0
H102 H 0.26396 0.45321 0.50241 0.0
H103 H 0.62384 0.27242 0.52494 0.0
H104 H 0.43297 0.50094 0.48227 0.0
H105 H 0.61664 0.62898 0.47764 0.0
H106 H 0.16015 0.5011 0.52944 0.0
H107 H 0.93177 0.19491 0.45445 0.0
H108 H 0.8476 0.58708 0.53696 0.0
H109 H 0.67338 0.44048 0.54394 0.0
H110 H 0.13385 0.62921 0.48708 0.0
H111 H 0.22568 0.81277 0.57149 0.0
H112 H 0.14337 0.63579 0.55413 0.0
H113 H 0.01823 0.65714 0.51525 0.0
H114 H 0.10651 0.33343 0.4441 0.0
N115 N 0.77109 0.3192 0.50893 0.0
C116 C 0.82705 0.51241 0.52904 0.0
C117 C 0.72868 0.42996 0.53298 0.0
C118 C 0.89667 0.49829 0.51421 0.0
C119 C 0.86635 0.39931 0.50448 0.0
C120 C 0.70114 0.33416 0.52223 0.0
N121 N 0.89948 0.28785 0.47954 0.0
C122 C 0.93224 0.38324 0.48916 0.0
C123 C 0.05821 0.34843 0.45678 0.0
C124 C 0.09336 0.44662 0.46682 0.0
C125 C 0.95957 0.27004 0.46288 0.0
C126 C 0.02968 0.46571 0.48277 0.0
H127 H 0.16945 0.5072 0.46209 0.0
O128 O 0.71064 0.14859 0.44556 0.0
O129 O 0.63494 0.99377 0.48952 0.0
O130 O 0.76127 0.97321 0.51916 0.0
O131 O 0.85666 0.14333 0.50434 0.0
O132 O 0.75234 0.05521 0.46242 0.0
O133 O 0.66635 0.24503 0.46626 0.0
O134 O 0.60177 0.93104 0.57272 0.0
O135 O 0.7035 0.10437 0.52823 0.0
O136 O 0.56575 0.12054 0.49924 0.0
O137 O 0.4816 0.94506 0.50734 0.0
O138 O 0.59139 0.05176 0.55612 0.0
O139 O 0.65857 0.84743 0.55062 0.0
C140 C 0.67743 0.97109 0.47147 0.0
C141 C 0.05976 0.56462 0.49209 0.0
C142 C 0.99393 0.5806 0.50808 0.0
C143 C 0.6789 0.21384 0.44351 0.0
C144 C 0.72579 0.28947 0.4222 0.0
C145 C 0.78029 0.3955 0.42695 0.0
C146 C 0.71903 0.25328 0.39652 0.0
C147 C 0.76971 0.32118 0.37567 0.0
C148 C 0.82759 0.46383 0.40628 0.0
C149 C 0.82311 0.42726 0.38086 0.0
C150 C 0.84882 0.05569 0.51239 0.0
C151 C 0.67055 0.13248 0.54722 0.0
C152 C 0.63285 0.86462 0.57366 0.0
C153 C 0.57126 0.77472 0.59057 0.0
C154 C 0.49396 0.68302 0.57974 0.0
C155 C 0.5847 0.78239 0.61791 0.0
C156 C 0.51825 0.7003 0.63441 0.0
C157 C 0.42543 0.60367 0.59571 0.0
C158 C 0.43584 0.61286 0.62276 0.0
C159 C 0.48132 0.02969 0.50093 0.0
H160 H 0.78734 0.42548 0.44656 0.0
H161 H 0.67583 0.17131 0.39298 0.0
H162 H 0.87008 0.54553 0.41007 0.0
H163 H 0.86457 0.48202 0.36553 0.0
H164 H 0.48565 0.67277 0.55894 0.0
H165 H 0.64763 0.85178 0.62601 0.0
H166 H 0.36373 0.53468 0.58706 0.0
H167 H 0.37909 0.55032 0.6344 0.0
Gd168 Gd 0.82941 0.51308 0.81978 0.0
Gd169 Gd 0.71654 0.62044 0.865 0.0
C170 C 0.52322 0.7553 0.83446 0.0
C171 C 0.61696 0.92939 0.8512 0.0
C172 C 0.67805 0.81016 0.85962 0.0
C173 C 0.5961 0.734 0.84572 0.0
C174 C 0.68771 0.90776 0.86302 0.0
C175 C 0.53546 0.85368 0.83678 0.0
C176 C 0.43774 0.67626 0.82201 0.0
C177 C 0.42405 0.57793 0.82182 0.0
N178 N 0.58419 0.63813 0.8445 0.0
C179 C 0.49683 0.55963 0.83354 0.0
H180 H 0.48185 0.48214 0.83265 0.0
C181 C 0.81768 0.85532 0.88812 0.0
N182 N 0.74428 0.78698 0.87139 0.0
C183 C 0.83104 0.95321 0.89173 0.0
C184 C 0.76617 0.97983 0.879 0.0
H185 H 0.86669 0.83435 0.89851 0.0
H186 H 0.48036 0.87104 0.82819 0.0
H187 H 0.07133 0.68972 0.83827 0.0
H188 H 0.38041 0.6897 0.81314 0.0
H189 H 0.35695 0.51564 0.81269 0.0
H190 H 0.62315 0.00376 0.85362 0.0
H191 H 0.69751 0.27422 0.79646 0.0
H192 H 0.20893 0.53454 0.87468 0.0
H193 H 0.21694 0.69516 0.86055 0.0
H194 H 0.96947 0.18072 0.85847 0.0
H195 H 0.89059 0.00762 0.90456 0.0
H196 H 0.77567 0.05527 0.88216 0.0
H197 H 0.11411 0.3422 0.87473 0.0
H198 H 0.68878 0.10718 0.80158 0.0
N199 N 0.9771 0.52658 0.84007 0.0
C200 C 0.1437 0.53137 0.86497 0.0
C201 C 0.14867 0.62209 0.85691 0.0
C202 C 0.0566 0.43745 0.85921 0.0
C203 C 0.9739 0.43762 0.84641 0.0
C204 C 0.06495 0.61832 0.8442 0.0
N205 N 0.81875 0.35169 0.82364 0.0
C206 C 0.89191 0.34698 0.83782 0.0
C207 C 0.74517 0.17355 0.81232 0.0
C208 C 0.81562 0.16601 0.82838 0.0
C209 C 0.74938 0.26792 0.80972 0.0
C210 C 0.89125 0.25359 0.84106 0.0
H211 H 0.81426 0.09365 0.82974 0.0
O212 O 0.80719 0.46305 0.77922 0.0
O213 O 0.74241 0.59675 0.82314 0.0
O214 O 0.5982 0.45822 0.85405 0.0
O215 O 0.68716 0.38052 0.83725 0.0
O216 O 0.68941 0.47647 0.79677 0.0
O217 O 0.95153 0.59194 0.79157 0.0
O218 O 0.66549 0.51249 0.89754 0.0
O219 O 0.81029 0.5453 0.86098 0.0
O220 O 0.92599 0.6861 0.82097 0.0
O221 O 0.85819 0.75896 0.84937 0.0
O222 O 0.86922 0.67476 0.88414 0.0
O223 O 0.65309 0.64751 0.90058 0.0
C224 C 0.67672 0.54977 0.80544 0.0
C225 C 0.96961 0.25194 0.8554 0.0
C226 C 0.05203 0.34386 0.8646 0.0
C227 C 0.9002 0.52981 0.77251 0.0
C228 C 0.95403 0.49156 0.75615 0.0
C229 C 0.02565 0.46869 0.76689 0.0
C230 C 0.93303 0.47792 0.72923 0.0
C231 C 0.98341 0.44208 0.71287 0.0
C232 C 0.0765 0.43377 0.75079 0.0
C233 C 0.05583 0.42062 0.72399 0.0
C234 C 0.60279 0.37727 0.84583 0.0
C235 C 0.88261 0.60089 0.87626 0.0
C236 C 0.64441 0.56826 0.91282 0.0
C237 C 0.68525 0.58505 0.9399 0.0
C238 C 0.78539 0.60636 0.94462 0.0
C239 C 0.62386 0.5785 0.96139 0.0
C240 C 0.66208 0.59077 0.98719 0.0
C241 C 0.82329 0.61798 0.96995 0.0
C242 C 0.76208 0.60981 0.99113 0.0
C243 C 0.92795 0.76561 0.83263 0.0
H244 H 0.04234 0.47796 0.78762 0.0
H245 H 0.87792 0.49613 0.72103 0.0
H246 H 0.13178 0.41627 0.75914 0.0
H247 H 0.09504 0.39163 0.71208 0.0
H248 H 0.83462 0.61354 0.92883 0.0
H249 H 0.54642 0.56252 0.95809 0.0
H250 H 0.90058 0.63364 0.97315 0.0
H251 H 0.79374 0.62039 0.01064 0.0
H252 H 0.06799 0.66467 0.14975 0.0
H253 H 0.11298 0.6431 0.23288 0.0
H254 H 0.12694 0.81061 0.23992 0.0
H255 H 0.23724 0.91832 0.1415 0.0
H256 H 0.16172 0.94824 0.11987 0.0
H257 H 0.1409 0.81979 0.12101 0.0
H258 H 0.94933 0.74702 0.13207 0.0
H259 H 0.96868 0.87506 0.13007 0.0
H260 H 0.91482 0.79988 0.15919 0.0
H261 H 0.16746 0.98944 0.23717 0.0
H262 H 0.19694 0.16113 0.22622 0.0
H263 H 0.11002 0.0653 0.14576 0.0
C264 C 0.07681 0.69332 0.16953 0.0
C265 C 0.09063 0.64135 0.19068 0.0
C266 C 0.10377 0.68226 0.21627 0.0
C267 C 0.11153 0.7773 0.22054 0.0
C268 C 0.10317 0.82917 0.19914 0.0
C269 C 0.08259 0.78763 0.17428 0.0
C270 C 0.07987 0.86174 0.15472 0.0
C271 C 0.1597 0.88857 0.133 0.0
C272 C 0.97175 0.81835 0.14334 0.0
C273 C 0.10787 0.95308 0.17233 0.0
C274 C 0.12114 0.93222 0.19785 0.0
C275 C 0.15507 0.00631 0.21741 0.0
C276 C 0.17317 0.10396 0.21091 0.0
C277 C 0.15618 0.12602 0.18516 0.0
C278 C 0.12318 0.04975 0.16561 0.0
H279 H 0.43236 0.18441 0.49992 0.0
H280 H 0.30162 0.8537 0.49377 0.0
H281 H 0.13002 0.83051 0.49473 0.0
H282 H 0.25538 0.18548 0.54302 0.0
H283 H 0.24305 0.28679 0.52792 0.0
H284 H 0.35965 0.28323 0.52424 0.0
H285 H 0.34422 0.2846 0.47402 0.0
H286 H 0.22807 0.28951 0.47736 0.0
H287 H 0.22854 0.1893 0.45822 0.0
H288 H 0.97911 0.837 0.50467 0.0
H289 H 0.84266 0.87285 0.51313 0.0
H290 H 0.05666 0.20084 0.50715 0.0
C291 C 0.36743 0.10751 0.49821 0.0
C292 C 0.38049 0.02072 0.4974 0.0
C293 C 0.2939 0.92127 0.49507 0.0
C294 C 0.19577 0.90706 0.49549 0.0
C295 C 0.1852 0.99311 0.49757 0.0
C296 C 0.26767 0.09171 0.49808 0.0
C297 C 0.23183 0.16956 0.5006 0.0
C298 C 0.27506 0.2351 0.52543 0.0
C299 C 0.25984 0.23724 0.47608 0.0
C300 C 0.11689 0.09809 0.50259 0.0
C301 C 0.09329 0.99701 0.50098 0.0
C302 C 0.99544 0.91564 0.50491 0.0
C303 C 0.91805 0.9374 0.50977 0.0
C304 C 0.93739 0.03981 0.50991 0.0
C305 C 0.03885 0.12172 0.50651 0.0
H306 H 0.0248 0.92673 0.86702 0.0
H307 H 0.04166 0.82741 0.78845 0.0
H308 H 0.21317 0.97836 0.78319 0.0
H309 H 0.17375 0.21046 0.85296 0.0
H310 H 0.23557 0.2386 0.88444 0.0
H311 H 0.10787 0.13105 0.8807 0.0
H312 H 0.16814 0.01133 0.89993 0.0
H313 H 0.29651 0.1176 0.90317 0.0
H314 H 0.2728 0.00579 0.8847 0.0
H315 H 0.38633 0.12556 0.78769 0.0
H316 H 0.55118 0.27268 0.8004 0.0
H317 H 0.42958 0.27969 0.87657 0.0
C318 C 0.06304 0.93912 0.84839 0.0
C319 C 0.01979 0.86607 0.82803 0.0
C320 C 0.07345 0.88278 0.80422 0.0
C321 C 0.17083 0.96821 0.80105 0.0
C322 C 0.21329 0.03646 0.82184 0.0
C323 C 0.16099 0.02428 0.84491 0.0
C324 C 0.22788 0.10583 0.8647 0.0
C325 C 0.18365 0.17563 0.87108 0.0
C326 C 0.24215 0.05719 0.88959 0.0
C327 C 0.32689 0.16308 0.84941 0.0
C328 C 0.31582 0.12167 0.82469 0.0
C329 C 0.39625 0.15844 0.80702 0.0
C330 C 0.49061 0.24051 0.81467 0.0
C331 C 0.5047 0.28428 0.83987 0.0
C332 C 0.42126 0.24599 0.85738 0.0
H333 H 0.63485 0.48405 0.03261 0.0
H334 H 0.5497 0.68608 0.99384 0.0
H335 H 0.45468 0.68519 0.03336 0.0
H336 H 0.39944 0.32783 0.06324 0.0
H337 H 0.45342 0.31013 0.09284 0.0
H338 H 0.52242 0.33565 0.0626 0.0
H339 H 0.67789 0.49082 0.08428 0.0
H340 H 0.60813 0.46774 0.11445 0.0
H341 H 0.66256 0.59127 0.0989 0.0
H342 H 0.36442 0.65749 0.07647 0.0
H343 H 0.26341 0.58331 0.11669 0.0
H344 H 0.4028 0.39521 0.12676 0.0
C345 C 0.59708 0.52901 0.03257 0.0
C346 C 0.59999 0.5857 1.01024 0.0
C347 C 0.54787 0.64175 0.01069 0.0
C348 C 0.49498 0.64276 0.03315 0.0
C349 C 0.49492 0.58725 0.05498 0.0
C350 C 0.54355 0.53032 0.05473 0.0
C351 C 0.52443 0.47002 0.07983 0.0
C352 C 0.47174 0.35406 0.07428 0.0
C353 C 0.62425 0.50724 0.09526 0.0
C354 C 0.45389 0.49853 0.09381 0.0
C355 C 0.44058 0.56893 0.07954 0.0
C356 C 0.37531 0.60344 0.08794 0.0
C357 C 0.31899 0.56171 0.11091 0.0
C358 C 0.32775 0.48579 0.125 0.0
C359 C 0.39733 0.45535 0.11662 0.0
H360 H 0.77374 0.40206 0.32644 0.0
H361 H 0.78461 0.15133 0.36523 0.0
H362 H 0.8129 0.09277 0.32322 0.0
H363 H 0.66322 0.24889 0.26072 0.0
H364 H 0.73679 0.36406 0.24191 0.0
H365 H 0.68603 0.37034 0.27334 0.0
H366 H 0.86635 0.50587 0.28829 0.0
H367 H 0.91837 0.49961 0.25729 0.0
H368 H 0.96875 0.47823 0.28693 0.0
H369 H 0.87608 0.08109 0.28089 0.0
H370 H 0.98515 0.12771 0.24188 0.0
H371 H 0.93976 0.38557 0.22812 0.0
C372 C 0.77948 0.33333 0.32596 0.0
C373 C 0.77499 0.2806 0.34936 0.0
C374 C 0.7841 0.19159 0.34778 0.0
C375 C 0.80029 0.15737 0.32385 0.0
C376 C 0.80655 0.21195 0.30135 0.0
C377 C 0.79562 0.29772 0.30199 0.0
C378 C 0.81918 0.34943 0.27531 0.0
C379 C 0.72044 0.33213 0.26205 0.0
C380 C 0.89795 0.4649 0.27708 0.0
C381 C 0.8604 0.28885 0.26117 0.0
C382 C 0.84564 0.20581 0.27604 0.0
C383 C 0.88564 0.14395 0.26871 0.0
C384 C 0.94738 0.17078 0.24651 0.0
C385 C 0.96889 0.25873 0.23191 0.0
C386 C 0.92108 0.31582 0.23854 0.0
H387 H 0.53431 0.44953 0.7689 0.0
H388 H 0.7344 0.75465 0.79934 0.0
H389 H 0.69527 0.82902 0.76079 0.0
H390 H 0.62602 0.50528 0.70772 0.0
H391 H 0.50739 0.42174 0.69121 0.0
H392 H 0.52727 0.3931 0.72397 0.0
H393 H 0.36278 0.39112 0.73935 0.0
H394 H 0.34118 0.41837 0.70643 0.0
H395 H 0.34755 0.5003 0.73293 0.0
H396 H 0.65208 0.86824 0.71495 0.0
H397 H 0.61352 0.86896 0.66811 0.0
H398 H 0.46552 0.53605 0.66717 0.0
C399 C 0.5667 0.53196 0.76796 0.0
C400 C 0.63591 0.59638 0.78719 0.0
C401 C 0.67925 0.70394 0.78506 0.0
C402 C 0.65777 0.74664 0.76314 0.0
C403 C 0.59367 0.68056 0.74361 0.0
C404 C 0.54847 0.57522 0.74604 0.0
C405 C 0.49607 0.52041 0.72109 0.0
C406 C 0.54198 0.45649 0.71038 0.0
C407 C 0.38001 0.45364 0.7252 0.0
C408 C 0.5215 0.61112 0.70377 0.0
C409 C 0.57528 0.70285 0.71709 0.0
C410 C 0.60946 0.79652 0.70446 0.0
C411 C 0.58827 0.79606 0.67761 0.0
C412 C 0.53576 0.70251 0.66338 0.0
C413 C 0.50248 0.60938 0.67705 0.0
H414 H 0.79595 0.40539 0.89444 0.0
H415 H 0.06278 0.70773 0.90175 0.0
H416 H 0.10846 0.65623 0.94303 0.0
H417 H 0.71854 0.39001 0.95536 0.0
H418 H 0.67081 0.25546 0.96068 0.0
H419 H 0.67742 0.3023 0.92809 0.0
H420 H 0.7884 0.22366 0.9138 0.0
H421 H 0.78087 0.17586 0.94651 0.0
H422 H 0.90371 0.25608 0.93153 0.0
H423 H 0.10193 0.58988 0.9874 0.0
H424 H 0.04927 0.51057 0.03088 0.0
H425 H 0.78075 0.25251 0.99657 0.0
C426 C 0.86731 0.45824 0.90397 0.0
C427 C 0.92764 0.55957 0.89471 0.0
C428 C 0.01751 0.629 0.90829 0.0
C429 C 0.04364 0.60039 0.93179 0.0
C430 C 0.97851 0.50231 0.94152 0.0
C431 C 0.89275 0.43154 0.92787 0.0
C432 C 0.82609 0.33835 0.94457 0.0
C433 C 0.71689 0.32068 0.94732 0.0
C434 C 0.82472 0.24282 0.93345 0.0
C435 C 0.88362 0.3713 0.97028 0.0
C436 C 0.97282 0.46464 0.96785 0.0
C437 C 0.03395 0.51532 0.98939 0.0
C438 C 0.00327 0.4697 0.01406 0.0
C439 C 0.91134 0.37487 0.01714 0.0
C440 C 0.85164 0.32479 0.99483 0.0
H441 H 0.25758 0.64298 0.36595 0.0
H442 H 0.48373 0.5855 0.32977 0.0
H443 H 0.59845 0.66594 0.36752 0.0
H444 H 0.4292 0.88669 0.39135 0.0
H445 H 0.35985 0.86999 0.42131 0.0
H446 H 0.29284 0.80081 0.39242 0.0
H447 H 0.22074 0.62964 0.41802 0.0
H448 H 0.28947 0.69877 0.44689 0.0
H449 H 0.30862 0.59856 0.43373 0.0
H450 H 0.69399 0.7652 0.40696 0.0
H451 H 0.76657 0.88359 0.44453 0.0
H452 H 0.47642 0.86997 0.45646 0.0
C453 C 0.33055 0.64579 0.36617 0.0
C454 C 0.36172 0.60796 0.34487 0.0
C455 C 0.45869 0.61499 0.34569 0.0
C456 C 0.52391 0.65955 0.36718 0.0
C457 C 0.49091 0.69622 0.38778 0.0
C458 C 0.39666 0.6901 0.38746 0.0
C459 C 0.38235 0.74106 0.41139 0.0
C460 C 0.3651 0.82992 0.40364 0.0
C461 C 0.29497 0.66233 0.42852 0.0
C462 C 0.48444 0.77958 0.42479 0.0
C463 C 0.54545 0.75169 0.411 0.0
C464 C 0.64624 0.78561 0.41822 0.0
C465 C 0.68667 0.85236 0.43958 0.0
C466 C 0.62602 0.8831 0.45366 0.0
C467 C 0.52294 0.84429 0.4466 0.0
H468 H 0.79404 0.35598 0.6899 0.0
H469 H 0.11563 0.48495 0.67163 0.0
H470 H 0.07185 0.44262 0.625 0.0
H471 H 0.70377 0.1469 0.64897 0.0
H472 H 0.58904 0.14677 0.63935 0.0
H473 H 0.64725 0.19991 0.67038 0.0
H474 H 0.6578 0.37195 0.65811 0.0
H475 H 0.59988 0.31918 0.62688 0.0
H476 H 0.72146 0.43643 0.62838 0.0
H477 H 0.9909 0.36759 0.58127 0.0
H478 H 0.87988 0.25931 0.54539 0.0
H479 H 0.61209 0.18591 0.59183 0.0
C480 C 0.85564 0.37812 0.67602 0.0
C481 C 0.95837 0.42424 0.68448 0.0
C482 C 0.03627 0.44894 0.66569 0.0
C483 C 0.01223 0.42614 0.63911 0.0
C484 C 0.90995 0.37936 0.63151 0.0
C485 C 0.83296 0.35599 0.64946 0.0
C486 C 0.72854 0.29739 0.63679 0.0
C487 C 0.6634 0.19151 0.64963 0.0
C488 C 0.67371 0.36 0.63759 0.0
C489 C 0.75846 0.28782 0.60913 0.0
C490 C 0.86347 0.33704 0.6063 0.0
C491 C 0.90864 0.3305 0.58314 0.0
C492 C 0.8449 0.26908 0.56276 0.0
C493 C 0.73724 0.2152 0.56567 0.0
C494 C 0.69406 0.22776 0.58887 0.0
loop_
_geom_bond_atom_site_label_1
_geom_bond_atom_site_label_2
_geom_bond_distance
_geom_bond_site_symmetry_2
_ccdc_geom_bond_type
Gd0 N31 2.661 . S
Gd0 N37 2.601 . S
Gd0 O44 2.545 . S
Gd0 O45 2.606 1_655 S
Gd0 O47 2.429 . S
Gd0 O48 2.545 . S
Gd0 O49 2.412 . S
Gd0 O51 2.362 . S
Gd0 O52 2.324 . S
Gd0 C59 2.828 . S
Gd1 N10 2.661 . S
Gd1 N14 2.601 . S
Gd1 O45 2.362 . S
Gd1 O46 2.324 . S
Gd1 O50 2.545 . S
Gd1 O51 2.606 1_455 S
Gd1 O53 2.429 . S
Gd1 O54 2.545 . S
Gd1 O55 2.412 . S
Gd1 C68 2.828 . S
C2 C5 1.417 . S
C2 C7 1.431 . S
C2 C8 1.412 . S
C3 C6 1.437 . S
C3 C7 1.317 . S
C3 H22 0.929 . S
C4 C5 1.426 . S
C4 C6 1.413 . S
C4 N14 1.359 . S
C5 C2 1.417 . S
C5 C4 1.426 . S
C5 N10 1.350 . S
C6 C3 1.437 . S
C6 C4 1.413 . S
C6 C16 1.391 . S
C7 C2 1.431 . S
C7 C3 1.317 . S
C7 H18 0.930 . S
C8 C2 1.412 . S
C8 C9 1.355 . S
C8 H20 0.930 . S
C9 C8 1.355 . S
C9 C11 1.402 . S
C9 H21 0.930 . S
N10 Gd1 2.661 . S
N10 C5 1.350 . S
N10 C11 1.307 . S
C11 C9 1.402 . S
C11 N10 1.307 . S
C11 H12 0.930 . S
H12 C11 0.930 . S
C13 N14 1.334 . S
C13 C15 1.394 . S
C13 H17 0.930 . S
N14 Gd1 2.601 . S
N14 C4 1.359 . S
N14 C13 1.334 . S
C15 C13 1.394 . S
C15 C16 1.359 . S
C15 H27 0.930 . S
C16 C6 1.391 . S
C16 C15 1.359 . S
C16 H28 0.929 . S
H17 C13 0.930 . S
H18 C7 0.930 . S
H19 C36 0.930 . S
H20 C8 0.930 . S
H21 C9 0.930 . S
H22 C3 0.929 . S
H23 C41 0.930 . S
H24 C32 0.930 . S
H25 C33 0.930 . S
H26 C57 0.929 . S
H27 C15 0.930 . S
H28 C16 0.929 . S
H29 C58 0.930 . S
H30 C39 0.930 . S
N31 Gd0 2.661 . S
N31 C35 1.350 . S
N31 C36 1.307 . S
C32 H24 0.930 . S
C32 C33 1.355 . S
C32 C34 1.412 . S
C33 H25 0.930 . S
C33 C32 1.355 . S
C33 C36 1.402 . S
C34 C32 1.412 . S
C34 C35 1.417 . S
C34 C58 1.431 . S
C35 N31 1.350 . S
C35 C34 1.417 . S
C35 C38 1.426 . S
C36 H19 0.930 . S
C36 N31 1.307 . S
C36 C33 1.402 . S
N37 Gd0 2.601 . S
N37 C38 1.359 . S
N37 C41 1.334 . S
C38 C35 1.426 . S
C38 N37 1.359 . S
C38 C42 1.413 . S
C39 H30 0.930 . S
C39 C40 1.359 . S
C39 C41 1.394 . S
C40 C39 1.359 . S
C40 C42 1.391 . S
C40 H43 0.929 . S
C41 H23 0.930 . S
C41 N37 1.334 . S
C41 C39 1.394 . S
C42 C38 1.413 . S
C42 C40 1.391 . S
C42 C57 1.437 . S
H43 C40 0.929 . S
O44 Gd0 2.545 . S
O44 C59 1.258 . S
O45 Gd0 2.606 1_455 S
O45 Gd1 2.362 . S
O45 C56 1.284 . S
O46 Gd1 2.324 . S
O46 C66 1.254 . S
O47 Gd0 2.429 . S
O47 C66 1.268 1_655 S
O48 Gd0 2.545 . S
O48 C56 1.250 1_655 S
O49 Gd0 2.412 . S
O49 C59 1.252 . S
O50 Gd1 2.545 . S
O50 C68 1.258 . S
O51 Gd0 2.362 . S
O51 Gd1 2.606 1_655 S
O51 C67 1.284 . S
O52 Gd0 2.324 . S
O52 C75 1.254 . S
O53 Gd1 2.429 . S
O53 C75 1.268 1_455 S
O54 Gd1 2.545 . S
O54 C67 1.250 1_455 S
O55 Gd1 2.412 . S
O55 C68 1.252 . S
C56 O45 1.284 . S
C56 O48 1.250 1_455 S
C57 H26 0.929 . S
C57 C42 1.437 . S
C57 C58 1.317 . S
C58 H29 0.930 . S
C58 C34 1.431 . S
C58 C57 1.317 . S
C59 Gd0 2.828 . S
C59 O44 1.258 . S
C59 O49 1.252 . S
C59 C60 1.497 . S
C60 C59 1.497 . S
C60 C61 1.395 . S
C60 C62 1.380 . S
C61 C60 1.395 . S
C61 C64 1.398 . S
C61 H76 0.930 . S
C62 C60 1.380 . S
C62 C63 1.391 . S
C62 H77 0.930 . S
C63 C62 1.391 . S
C63 C65 1.387 . S
C64 C61 1.398 . S
C64 C65 1.380 . S
C64 H78 0.930 . S
C65 C63 1.387 . S
C65 C64 1.380 . S
C65 H79 0.930 . S
C66 O46 1.254 . S
C66 O47 1.268 1_455 S
C67 O51 1.284 . S
C67 O54 1.250 1_655 S
C68 Gd1 2.828 . S
C68 O50 1.258 . S
C68 O55 1.252 . S
C68 C69 1.497 . S
C69 C68 1.497 . S
C69 C70 1.395 . S
C69 C71 1.380 . S
C70 C69 1.395 . S
C70 C73 1.398 . S
C70 H80 0.930 . S
C71 C69 1.380 . S
C71 C72 1.391 . S
C71 H81 0.930 . S
C72 C71 1.391 . S
C72 C74 1.387 . S
C73 C70 1.398 . S
C73 C74 1.380 . S
C73 H82 0.930 . S
C74 C72 1.387 . S
C74 C73 1.380 . S
C74 H83 0.930 . S
C75 O52 1.254 . S
C75 O53 1.268 1_655 S
H76 C61 0.930 . S
H77 C62 0.930 . S
H78 C64 0.930 . S
H79 C65 0.930 . S
H80 C70 0.930 . S
H81 C71 0.930 . S
H82 C73 0.930 . S
H83 C74 0.930 . S
Gd84 N115 2.661 . S
Gd84 N121 2.601 1_655 S
Gd84 O128 2.545 . S
Gd84 O129 2.606 . S
Gd84 O131 2.429 . S
Gd84 O132 2.545 . S
Gd84 O133 2.412 . S
Gd84 O135 2.362 . S
Gd84 O136 2.324 . S
Gd84 C143 2.828 . S
Gd85 N94 2.661 1_545 S
Gd85 N98 2.601 1_545 S
Gd85 O129 2.362 . S
Gd85 O130 2.324 . S
Gd85 O134 2.545 1_545 S
Gd85 O135 2.606 . S
Gd85 O137 2.429 . S
Gd85 O138 2.545 . S
Gd85 O139 2.412 1_545 S
Gd85 C152 2.828 1_545 S
C86 C89 1.417 . S
C86 C91 1.431 . S
C86 C92 1.412 . S
C87 C90 1.437 . S
C87 C91 1.317 . S
C87 H106 0.929 . S
C88 C89 1.426 . S
C88 C90 1.413 . S
C88 N98 1.359 . S
C89 C86 1.417 . S
C89 C88 1.426 . S
C89 N94 1.350 . S
C90 C87 1.437 . S
C90 C88 1.413 . S
C90 C100 1.391 . S
C91 C86 1.431 . S
C91 C87 1.317 . S
C91 H102 0.930 . S
C92 C86 1.412 . S
C92 C93 1.355 . S
C92 H104 0.930 . S
C93 C92 1.355 . S
C93 C95 1.402 . S
C93 H105 0.930 . S
N94 Gd85 2.661 1_565 S
N94 C89 1.350 . S
N94 C95 1.307 . S
C95 C93 1.402 . S
C95 N94 1.307 . S
C95 H96 0.930 . S
H96 C95 0.930 . S
C97 N98 1.334 . S
C97 C99 1.394 . S
C97 H101 0.930 . S
N98 Gd85 2.601 1_565 S
N98 C88 1.359 . S
N98 C97 1.334 . S
C99 C97 1.394 . S
C99 C100 1.359 . S
C99 H111 0.930 . S
C100 C90 1.391 . S
C100 C99 1.359 . S
C100 H112 0.929 . S
H101 C97 0.930 . S
H102 C91 0.930 . S
H103 C120 0.930 . S
H104 C92 0.930 . S
H105 C93 0.930 . S
H106 C87 0.929 . S
H107 C125 0.930 . S
H108 C116 0.930 . S
H109 C117 0.930 . S
H110 C141 0.929 . S
H111 C99 0.930 . S
H112 C100 0.929 . S
H113 C142 0.930 . S
H114 C123 0.930 . S
N115 Gd84 2.661 . S
N115 C119 1.350 . S
N115 C120 1.307 . S
C116 H108 0.930 . S
C116 C117 1.355 . S
C116 C118 1.412 . S
C117 H109 0.930 . S
C117 C116 1.355 . S
C117 C120 1.402 . S
C118 C116 1.412 . S
C118 C119 1.417 . S
C118 C142 1.431 1_655 S
C119 N115 1.350 . S
C119 C118 1.417 . S
C119 C122 1.426 1_655 S
C120 H103 0.930 . S
C120 N115 1.307 . S
C120 C117 1.402 . S
N121 Gd84 2.601 1_455 S
N121 C122 1.359 . S
N121 C125 1.334 . S
C122 C119 1.426 1_455 S
C122 N121 1.359 . S
C122 C126 1.413 . S
C123 H114 0.930 . S
C123 C124 1.359 . S
C123 C125 1.394 . S
C124 C123 1.359 . S
C124 C126 1.391 . S
C124 H127 0.929 . S
C125 H107 0.930 . S
C125 N121 1.334 . S
C125 C123 1.394 . S
C126 C122 1.413 . S
C126 C124 1.391 . S
C126 C141 1.437 . S
H127 C124 0.929 . S
O128 Gd84 2.545 . S
O128 C143 1.258 . S
O129 Gd84 2.606 . S
O129 Gd85 2.362 . S
O129 C140 1.284 . S
O130 Gd85 2.324 . S
O130 C150 1.254 . S
O131 Gd84 2.429 . S
O131 C150 1.268 . S
O132 Gd84 2.545 . S
O132 C140 1.250 . S
O133 Gd84 2.412 . S
O133 C143 1.252 . S
O134 Gd85 2.545 1_565 S
O134 C152 1.258 . S
O135 Gd84 2.362 . S
O135 Gd85 2.606 . S
O135 C151 1.284 . S
O136 Gd84 2.324 . S
O136 C159 1.254 . S
O137 Gd85 2.429 . S
O137 C159 1.268 . S
O138 Gd85 2.545 . S
O138 C151 1.250 . S
O139 Gd85 2.412 1_565 S
O139 C152 1.252 . S
C140 O129 1.284 . S
C140 O132 1.250 . S
C141 H110 0.929 . S
C141 C126 1.437 . S
C141 C142 1.317 . S
C142 H113 0.930 . S
C142 C118 1.431 1_455 S
C142 C141 1.317 . S
C143 Gd84 2.828 . S
C143 O128 1.258 . S
C143 O133 1.252 . S
C143 C144 1.497 . S
C144 C143 1.497 . S
C144 C145 1.395 1_655 S
C144 C146 1.380 . S
C145 C144 1.395 1_455 S
C145 C148 1.398 . S
C145 H160 0.930 . S
C146 C144 1.380 . S
C146 C147 1.391 . S
C146 H161 0.930 . S
C147 C146 1.391 . S
C147 C149 1.387 . S
C148 C145 1.398 . S
C148 C149 1.380 1_455 S
C148 H162 0.930 . S
C149 C147 1.387 . S
C149 C148 1.380 1_655 S
C149 H163 0.930 . S
C150 O130 1.254 . S
C150 O131 1.268 . S
C151 O135 1.284 . S
C151 O138 1.250 . S
C152 Gd85 2.828 1_565 S
C152 O134 1.258 . S
C152 O139 1.252 . S
C152 C153 1.497 . S
C153 C152 1.497 . S
C153 C154 1.395 . S
C153 C155 1.380 . S
C154 C153 1.395 . S
C154 C157 1.398 . S
C154 H164 0.930 . S
C155 C153 1.380 . S
C155 C156 1.391 . S
C155 H165 0.930 . S
C156 C155 1.391 . S
C156 C158 1.387 . S
C157 C154 1.398 . S
C157 C158 1.380 . S
C157 H166 0.930 . S
C158 C156 1.387 . S
C158 C157 1.380 . S
C158 H167 0.930 . S
C159 O136 1.254 . S
C159 O137 1.268 . S
H160 C145 0.930 . S
H161 C146 0.930 . S
H162 C148 0.930 . S
H163 C149 0.930 . S
H164 C154 0.930 . S
H165 C155 0.930 . S
H166 C157 0.930 . S
H167 C158 0.930 . S
Gd168 N199 2.661 . S
Gd168 N205 2.601 . S
Gd168 O212 2.545 . S
Gd168 O213 2.606 . S
Gd168 O215 2.429 . S
Gd168 O216 2.545 . S
Gd168 O217 2.412 . S
Gd168 O219 2.362 . S
Gd168 O220 2.324 . S
Gd168 C227 2.828 . S
Gd169 N178 2.661 . S
Gd169 N182 2.601 . S
Gd169 O213 2.362 . S
Gd169 O214 2.324 . S
Gd169 O218 2.545 . S
Gd169 O219 2.606 . S
Gd169 O221 2.429 . S
Gd169 O222 2.545 . S
Gd169 O223 2.412 . S
Gd169 C236 2.828 . S
C170 C173 1.417 . S
C170 C175 1.431 . S
C170 C176 1.412 . S
C171 C174 1.437 . S
C171 C175 1.317 . S
C171 H190 0.929 . S
C172 C173 1.426 . S
C172 C174 1.413 . S
C172 N182 1.359 . S
C173 C170 1.417 . S
C173 C172 1.426 . S
C173 N178 1.350 . S
C174 C171 1.437 . S
C174 C172 1.413 . S
C174 C184 1.391 . S
C175 C170 1.431 . S
C175 C171 1.317 . S
C175 H186 0.930 . S
C176 C170 1.412 . S
C176 C177 1.355 . S
C176 H188 0.930 . S
C177 C176 1.355 . S
C177 C179 1.402 . S
C177 H189 0.930 . S
N178 Gd169 2.661 . S
N178 C173 1.350 . S
N178 C179 1.307 . S
C179 C177 1.402 . S
C179 N178 1.307 . S
C179 H180 0.930 . S
H180 C179 0.930 . S
C181 N182 1.334 . S
C181 C183 1.394 . S
C181 H185 0.930 . S
N182 Gd169 2.601 . S
N182 C172 1.359 . S
N182 C181 1.334 . S
C183 C181 1.394 . S
C183 C184 1.359 . S
C183 H195 0.930 . S
C184 C174 1.391 . S
C184 C183 1.359 . S
C184 H196 0.929 . S
H185 C181 0.930 . S
H186 C175 0.930 . S
H187 C204 0.930 . S
H188 C176 0.930 . S
H189 C177 0.930 . S
H190 C171 0.929 . S
H191 C209 0.930 . S
H192 C200 0.930 . S
H193 C201 0.930 . S
H194 C225 0.929 1_565 S
H195 C183 0.930 . S
H196 C184 0.929 . S
H197 C226 0.930 . S
H198 C207 0.930 . S
N199 Gd168 2.661 . S
N199 C203 1.350 . S
N199 C204 1.307 1_655 S
C200 H192 0.930 . S
C200 C201 1.355 . S
C200 C202 1.412 . S
C201 H193 0.930 . S
C201 C200 1.355 . S
C201 C204 1.402 . S
C202 C200 1.412 . S
C202 C203 1.417 1_455 S
C202 C226 1.431 . S
C203 N199 1.350 . S
C203 C202 1.417 1_655 S
C203 C206 1.426 . S
C204 H187 0.930 . S
C204 N199 1.307 1_455 S
C204 C201 1.402 . S
N205 Gd168 2.601 . S
N205 C206 1.359 . S
N205 C209 1.334 . S
C206 C203 1.426 . S
C206 N205 1.359 . S
C206 C210 1.413 . S
C207 H198 0.930 . S
C207 C208 1.359 . S
C207 C209 1.394 1_565 S
C208 C207 1.359 . S
C208 C210 1.391 1_565 S
C208 H211 0.929 . S
C209 H191 0.930 . S
C209 N205 1.334 . S
C209 C207 1.394 1_545 S
C210 C206 1.413 . S
C210 C208 1.391 1_545 S
C210 C225 1.437 . S
H211 C208 0.929 . S
O212 Gd168 2.545 . S
O212 C227 1.258 . S
O213 Gd168 2.606 . S
O213 Gd169 2.362 . S
O213 C224 1.284 . S
O214 Gd169 2.324 . S
O214 C234 1.254 . S
O215 Gd168 2.429 . S
O215 C234 1.268 . S
O216 Gd168 2.545 . S
O216 C224 1.250 . S
O217 Gd168 2.412 . S
O217 C227 1.252 . S
O218 Gd169 2.545 . S
O218 C236 1.258 . S
O219 Gd168 2.362 . S
O219 Gd169 2.606 . S
O219 C235 1.284 . S
O220 Gd168 2.324 . S
O220 C243 1.254 . S
O221 Gd169 2.429 . S
O221 C243 1.268 . S
O222 Gd169 2.545 . S
O222 C235 1.250 . S
O223 Gd169 2.412 . S
O223 C236 1.252 . S
C224 O213 1.284 . S
C224 O216 1.250 . S
C225 H194 0.929 1_545 S
C225 C210 1.437 . S
C225 C226 1.317 1_655 S
C226 H197 0.930 . S
C226 C202 1.431 . S
C226 C225 1.317 1_455 S
C227 Gd168 2.828 . S
C227 O212 1.258 . S
C227 O217 1.252 . S
C227 C228 1.497 . S
C228 C227 1.497 . S
C228 C229 1.395 . S
C228 C230 1.380 1_655 S
C229 C228 1.395 . S
C229 C232 1.398 . S
C229 H244 0.930 . S
C230 C228 1.380 1_455 S
C230 C231 1.391 . S
C230 H245 0.930 . S
C231 C230 1.391 . S
C231 C233 1.387 . S
C232 C229 1.398 . S
C232 C233 1.380 1_655 S
C232 H246 0.930 . S
C233 C231 1.387 . S
C233 C232 1.380 1_455 S
C233 H247 0.930 . S
C234 O214 1.254 . S
C234 O215 1.268 . S
C235 O219 1.284 . S
C235 O222 1.250 . S
C236 Gd169 2.828 . S
C236 O218 1.258 . S
C236 O223 1.252 . S
C236 C237 1.497 . S
C237 C236 1.497 . S
C237 C238 1.395 . S
C237 C239 1.380 . S
C238 C237 1.395 . S
C238 C241 1.398 . S
C238 H248 0.930 . S
C239 C237 1.380 . S
C239 C240 1.391 . S
C239 H249 0.930 . S
C240 C239 1.391 . S
C240 C242 1.387 . S
C241 C238 1.398 . S
C241 C242 1.380 . S
C241 H250 0.930 . S
C242 C240 1.387 . S
C242 C241 1.380 . S
C242 H251 0.930 . S
C243 O220 1.254 . S
C243 O221 1.268 . S
H244 C229 0.930 . S
H245 C230 0.930 . S
H246 C232 0.930 . S
H247 C233 0.930 . S
H248 C238 0.930 . S
H249 C239 0.930 . S
H250 C241 0.930 . S
H251 C242 0.930 . S
H252 C264 0.930 . S
H253 C266 0.930 . S
H254 C267 0.930 . S
H255 C271 0.959 1_545 S
H256 C271 0.959 1_545 S
H257 C271 0.961 . S
H258 C272 0.960 . S
H259 C272 0.961 . S
H260 C272 0.959 1_655 S
H261 C275 0.929 . S
H262 C276 0.931 . S
H263 C278 0.930 . S
C264 H252 0.930 . S
C264 C265 1.399 1_455 S
C264 C269 1.399 . S
C265 C264 1.399 1_655 S
C265 C266 1.376 . S
C266 H253 0.930 . S
C266 C265 1.376 . S
C266 C267 1.388 . S
C267 H254 0.930 . S
C267 C266 1.388 . S
C267 C268 1.390 . S
C268 C267 1.390 . S
C268 C269 1.394 1_655 S
C268 C274 1.465 . S
C269 C264 1.399 . S
C269 C268 1.394 1_455 S
C269 C270 1.516 . S
C270 C269 1.516 . S
C270 C271 1.502 . S
C270 C272 1.561 . S
C270 C273 1.526 . S
C271 H255 0.959 1_565 S
C271 H256 0.959 1_565 S
C271 H257 0.961 . S
C271 C270 1.502 . S
C272 H258 0.960 . S
C272 H259 0.961 . S
C272 H260 0.959 1_455 S
C272 C270 1.561 . S
C273 C270 1.526 . S
C273 C274 1.396 1_455 S
C273 C278 1.390 1_565 S
C274 C268 1.465 . S
C274 C273 1.396 1_655 S
C274 C275 1.399 . S
C275 H261 0.929 . S
C275 C274 1.399 . S
C275 C276 1.385 1_565 S
C276 H262 0.931 . S
C276 C275 1.385 1_545 S
C276 C277 1.389 . S
C277 C276 1.389 . S
C277 C278 1.387 1_655 S
C278 H263 0.930 . S
C278 C273 1.390 1_545 S
C278 C277 1.387 1_455 S
H279 C291 0.930 . S
H280 C293 0.930 . S
H281 C294 0.930 1_565 S
H282 C298 0.959 . S
H283 C298 0.959 . S
H284 C298 0.961 . S
H285 C299 0.960 . S
H286 C299 0.961 . S
H287 C299 0.959 . S
H288 C302 0.929 1_565 S
H289 C303 0.931 1_655 S
H290 C305 0.930 . S
C291 H279 0.930 . S
C291 C292 1.399 . S
C291 C296 1.399 . S
C292 C291 1.399 . S
C292 C293 1.376 . S
C293 H280 0.930 . S
C293 C292 1.376 . S
C293 C294 1.388 . S
C294 H281 0.930 1_545 S
C294 C293 1.388 . S
C294 C295 1.390 . S
C295 C294 1.390 . S
C295 C296 1.394 . S
C295 C301 1.465 . S
C296 C291 1.399 . S
C296 C295 1.394 . S
C296 C297 1.516 . S
C297 C296 1.516 . S
C297 C298 1.502 . S
C297 C299 1.561 . S
C297 C300 1.526 . S
C298 H282 0.959 . S
C298 H283 0.959 . S
C298 H284 0.961 . S
C298 C297 1.502 . S
C299 H285 0.960 . S
C299 H286 0.961 . S
C299 H287 0.959 . S
C299 C297 1.561 . S
C300 C297 1.526 . S
C300 C301 1.396 . S
C300 C305 1.390 . S
C301 C295 1.465 . S
C301 C300 1.396 . S
C301 C302 1.399 . S
C302 H288 0.929 1_545 S
C302 C301 1.399 . S
C302 C303 1.385 . S
C303 H289 0.931 1_455 S
C303 C302 1.385 . S
C303 C304 1.389 . S
C304 C303 1.389 . S
C304 C305 1.387 . S
C305 H290 0.930 . S
C305 C300 1.390 . S
C305 C304 1.387 . S
H306 C318 0.930 . S
H307 C320 0.930 . S
H308 C321 0.930 . S
H309 C325 0.959 . S
H310 C325 0.959 . S
H311 C325 0.961 . S
H312 C326 0.960 . S
H313 C326 0.961 . S
H314 C326 0.959 . S
H315 C329 0.929 1_565 S
H316 C330 0.931 . S
H317 C332 0.930 . S
C318 H306 0.930 . S
C318 C319 1.399 . S
C318 C323 1.399 . S
C319 C318 1.399 . S
C319 C320 1.376 . S
C320 H307 0.930 . S
C320 C319 1.376 . S
C320 C321 1.388 . S
C321 H308 0.930 . S
C321 C320 1.388 . S
C321 C322 1.390 . S
C322 C321 1.390 . S
C322 C323 1.394 . S
C322 C328 1.465 . S
C323 C318 1.399 . S
C323 C322 1.394 . S
C323 C324 1.516 . S
C324 C323 1.516 . S
C324 C325 1.502 . S
C324 C326 1.561 . S
C324 C327 1.526 . S
C325 H309 0.959 . S
C325 H310 0.959 . S
C325 H311 0.961 . S
C325 C324 1.502 . S
C326 H312 0.960 . S
C326 H313 0.961 . S
C326 H314 0.959 . S
C326 C324 1.561 . S
C327 C324 1.526 . S
C327 C328 1.396 . S
C327 C332 1.390 1_565 S
C328 C322 1.465 . S
C328 C327 1.396 . S
C328 C329 1.399 1_565 S
C329 H315 0.929 1_545 S
C329 C328 1.399 1_545 S
C329 C330 1.385 . S
C330 H316 0.931 . S
C330 C329 1.385 . S
C330 C331 1.389 . S
C331 C330 1.389 . S
C331 C332 1.387 . S
C332 H317 0.930 . S
C332 C327 1.390 1_545 S
C332 C331 1.387 . S
H333 C345 0.930 1_556 S
H334 C347 0.930 . S
H335 C348 0.930 . S
H336 C352 0.959 . S
H337 C352 0.959 . S
H338 C352 0.961 . S
H339 C353 0.960 . S
H340 C353 0.961 . S
H341 C353 0.959 . S
H342 C356 0.929 . S
H343 C357 0.931 . S
H344 C359 0.930 . S
C345 H333 0.930 1_554 S
C345 C346 1.399 1_554 S
C345 C350 1.399 . S
C346 C345 1.399 1_556 S
C346 C347 1.376 . S
C347 H334 0.930 . S
C347 C346 1.376 . S
C347 C348 1.388 1_556 S
C348 H335 0.930 . S
C348 C347 1.388 1_554 S
C348 C349 1.390 . S
C349 C348 1.390 . S
C349 C350 1.394 . S
C349 C355 1.465 . S
C350 C345 1.399 . S
C350 C349 1.394 . S
C350 C351 1.516 . S
C351 C350 1.516 . S
C351 C352 1.502 . S
C351 C353 1.561 . S
C351 C354 1.526 . S
C352 H336 0.959 . S
C352 H337 0.959 . S
C352 H338 0.961 . S
C352 C351 1.502 . S
C353 H339 0.960 . S
C353 H340 0.961 . S
C353 H341 0.959 . S
C353 C351 1.561 . S
C354 C351 1.526 . S
C354 C355 1.396 . S
C354 C359 1.390 . S
C355 C349 1.465 . S
C355 C354 1.396 . S
C355 C356 1.399 . S
C356 H342 0.929 . S
C356 C355 1.399 . S
C356 C357 1.385 . S
C357 H343 0.931 . S
C357 C356 1.385 . S
C357 C358 1.389 . S
C358 C357 1.389 . S
C358 C359 1.387 . S
C359 H344 0.930 . S
C359 C354 1.390 . S
C359 C358 1.387 . S
H360 C372 0.930 . S
H361 C374 0.930 . S
H362 C375 0.930 . S
H363 C379 0.959 . S
H364 C379 0.959 . S
H365 C379 0.961 . S
H366 C380 0.960 . S
H367 C380 0.961 . S
H368 C380 0.959 . S
H369 C383 0.929 . S
H370 C384 0.931 . S
H371 C386 0.930 . S
C372 H360 0.930 . S
C372 C373 1.399 . S
C372 C377 1.399 . S
C373 C372 1.399 . S
C373 C374 1.376 . S
C374 H361 0.930 . S
C374 C373 1.376 . S
C374 C375 1.388 . S
C375 H362 0.930 . S
C375 C374 1.388 . S
C375 C376 1.390 . S
C376 C375 1.390 . S
C376 C377 1.394 . S
C376 C382 1.465 . S
C377 C372 1.399 . S
C377 C376 1.394 . S
C377 C378 1.516 . S
C378 C377 1.516 . S
C378 C379 1.502 . S
C378 C380 1.561 . S
C378 C381 1.526 . S
C379 H363 0.959 . S
C379 H364 0.959 . S
C379 H365 0.961 . S
C379 C378 1.502 . S
C380 H366 0.960 . S
C380 H367 0.961 . S
C380 H368 0.959 . S
C380 C378 1.561 . S
C381 C378 1.526 . S
C381 C382 1.396 . S
C381 C386 1.390 . S
C382 C376 1.465 . S
C382 C381 1.396 . S
C382 C383 1.399 . S
C383 H369 0.929 . S
C383 C382 1.399 . S
C383 C384 1.385 . S
C384 H370 0.931 . S
C384 C383 1.385 . S
C384 C385 1.389 . S
C385 C384 1.389 . S
C385 C386 1.387 . S
C386 H371 0.930 . S
C386 C381 1.390 . S
C386 C385 1.387 . S
H387 C399 0.930 . S
H388 C401 0.930 . S
H389 C402 0.930 . S
H390 C406 0.959 . S
H391 C406 0.959 . S
H392 C406 0.961 . S
H393 C407 0.960 . S
H394 C407 0.961 . S
H395 C407 0.959 . S
H396 C410 0.929 . S
H397 C411 0.931 . S
H398 C413 0.930 . S
C399 H387 0.930 . S
C399 C400 1.399 . S
C399 C404 1.399 . S
C400 C399 1.399 . S
C400 C401 1.376 . S
C401 H388 0.930 . S
C401 C400 1.376 . S
C401 C402 1.388 . S
C402 H389 0.930 . S
C402 C401 1.388 . S
C402 C403 1.390 . S
C403 C402 1.390 . S
C403 C404 1.394 . S
C403 C409 1.465 . S
C404 C399 1.399 . S
C404 C403 1.394 . S
C404 C405 1.516 . S
C405 C404 1.516 . S
C405 C406 1.502 . S
C405 C407 1.561 . S
C405 C408 1.526 . S
C406 H390 0.959 . S
C406 H391 0.959 . S
C406 H392 0.961 . S
C406 C405 1.502 . S
C407 H393 0.960 . S
C407 H394 0.961 . S
C407 H395 0.959 . S
C407 C405 1.561 . S
C408 C405 1.526 . S
C408 C409 1.396 . S
C408 C413 1.390 . S
C409 C403 1.465 . S
C409 C408 1.396 . S
C409 C410 1.399 . S
C410 H396 0.929 . S
C410 C409 1.399 . S
C410 C411 1.385 . S
C411 H397 0.931 . S
C411 C410 1.385 . S
C411 C412 1.389 . S
C412 C411 1.389 . S
C412 C413 1.387 . S
C413 H398 0.930 . S
C413 C408 1.390 . S
C413 C412 1.387 . S
H414 C426 0.930 . S
H415 C428 0.930 . S
H416 C429 0.930 . S
H417 C433 0.959 . S
H418 C433 0.959 . S
H419 C433 0.961 . S
H420 C434 0.960 . S
H421 C434 0.961 . S
H422 C434 0.959 . S
H423 C437 0.929 . S
H424 C438 0.930 1_565 S
H425 C440 0.930 . S
C426 H414 0.930 . S
C426 C427 1.399 . S
C426 C431 1.399 . S
C427 C426 1.399 . S
C427 C428 1.376 . S
C428 H415 0.930 . S
C428 C427 1.376 . S
C428 C429 1.388 . S
C429 H416 0.930 . S
C429 C428 1.388 . S
C429 C430 1.390 . S
C430 C429 1.390 . S
C430 C431 1.394 . S
C430 C436 1.465 . S
C431 C426 1.399 . S
C431 C430 1.394 . S
C431 C432 1.516 . S
C432 C431 1.516 . S
C432 C433 1.502 . S
C432 C434 1.561 . S
C432 C435 1.526 . S
C433 H417 0.959 . S
C433 H418 0.959 . S
C433 H419 0.961 . S
C433 C432 1.502 . S
C434 H420 0.960 . S
C434 H421 0.961 . S
C434 H422 0.959 . S
C434 C432 1.561 . S
C435 C432 1.526 . S
C435 C436 1.396 . S
C435 C440 1.390 1_556 S
C436 C430 1.465 . S
C436 C435 1.396 . S
C436 C437 1.399 . S
C437 H423 0.929 . S
C437 C436 1.399 . S
C437 C438 1.385 1_556 S
C438 H424 0.930 1_545 S
C438 C437 1.385 1_554 S
C438 C439 1.389 . S
C439 C438 1.389 . S
C439 C440 1.387 . S
C440 H425 0.930 . S
C440 C435 1.390 1_554 S
C440 C439 1.387 . S
H441 C453 0.930 . S
H442 C455 0.930 . S
H443 C456 0.930 . S
H444 C460 0.959 . S
H445 C460 0.959 . S
H446 C460 0.961 . S
H447 C461 0.960 . S
H448 C461 0.961 . S
H449 C461 0.959 . S
H450 C464 0.929 . S
H451 C465 0.931 . S
H452 C467 0.930 . S
C453 H441 0.930 . S
C453 C454 1.399 . S
C453 C458 1.399 . S
C454 C453 1.399 . S
C454 C455 1.376 . S
C455 H442 0.930 . S
C455 C454 1.376 . S
C455 C456 1.388 . S
C456 H443 0.930 . S
C456 C455 1.388 . S
C456 C457 1.390 . S
C457 C456 1.390 . S
C457 C458 1.394 . S
C457 C463 1.465 . S
C458 C453 1.399 . S
C458 C457 1.394 . S
C458 C459 1.516 . S
C459 C458 1.516 . S
C459 C460 1.502 . S
C459 C461 1.561 . S
C459 C462 1.526 . S
C460 H444 0.959 . S
C460 H445 0.959 . S
C460 H446 0.961 . S
C460 C459 1.502 . S
C461 H447 0.960 . S
C461 H448 0.961 . S
C461 H449 0.959 . S
C461 C459 1.561 . S
C462 C459 1.526 . S
C462 C463 1.396 . S
C462 C467 1.390 . S
C463 C457 1.465 . S
C463 C462 1.396 . S
C463 C464 1.399 1_565 S
C464 H450 0.929 . S
C464 C463 1.399 1_545 S
C464 C465 1.385 . S
C465 H451 0.931 . S
C465 C464 1.385 . S
C465 C466 1.389 . S
C466 C465 1.389 . S
C466 C467 1.387 1_545 S
C467 H452 0.930 . S
C467 C462 1.390 . S
C467 C466 1.387 1_565 S
H468 C480 0.930 . S
H469 C482 0.930 . S
H470 C483 0.930 . S
H471 C487 0.959 . S
H472 C487 0.959 . S
H473 C487 0.961 . S
H474 C488 0.960 . S
H475 C488 0.961 . S
H476 C488 0.959 . S
H477 C491 0.929 . S
H478 C492 0.931 . S
H479 C494 0.930 . S
C480 H468 0.930 . S
C480 C481 1.399 . S
C480 C485 1.399 . S
C481 C480 1.399 . S
C481 C482 1.376 . S
C482 H469 0.930 . S
C482 C481 1.376 . S
C482 C483 1.388 . S
C483 H470 0.930 . S
C483 C482 1.388 . S
C483 C484 1.390 . S
C484 C483 1.390 . S
C484 C485 1.394 . S
C484 C490 1.465 1_455 S
C485 C480 1.399 . S
C485 C484 1.394 . S
C485 C486 1.516 . S
C486 C485 1.516 . S
C486 C487 1.502 1_455 S
C486 C488 1.561 . S
C486 C489 1.526 1_455 S
C487 H471 0.959 . S
C487 H472 0.959 . S
C487 H473 0.961 . S
C487 C486 1.502 1_655 S
C488 H474 0.960 . S
C488 H475 0.961 . S
C488 H476 0.959 . S
C488 C486 1.561 . S
C489 C486 1.526 1_655 S
C489 C490 1.396 . S
C489 C494 1.390 . S
C490 C484 1.465 1_655 S
C490 C489 1.396 . S
C490 C491 1.399 . S
C491 H477 0.929 . S
C491 C490 1.399 . S
C491 C492 1.385 . S
C492 H478 0.931 . S
C492 C491 1.385 . S
C492 C493 1.389 . S
C493 C492 1.389 . S
C493 C494 1.387 . S
C494 H479 0.930 . S
C494 C489 1.390 . S
C494 C493 1.387 . S
C265 C66 1.465 1_655 S
C277 C75 1.403 . S
C292 C159 1.469 . S
C304 C150 1.426 1_455 S
C319 C243 1.471 1_455 S
C331 C234 1.399 . S
C346 C240 1.717 . S
C358 C56 1.922 . S
C373 C147 1.019 . S
C385 C67 1.204 . S
C400 C224 1.932 . S
C412 C156 1.794 . S
C427 C235 1.292 . S
C439 C63 1.193 . S
C454 C72 1.736 . S
C466 C140 1.884 . S
C481 C231 1.084 . S
C493 C151 1.179 . S
