# Generated by pormake.
# Topology snk, (6)-cn, num edge types: 1
# Building blocks:
#     Node 0, Type 0, BuildingBlock: KUMBOL_clean_sbu_1, # of connection points: 6
#     Node 1, Type 0, BuildingBlock: KUMBOL_clean_sbu_1, # of connection points: 6
#     Node 2, Type 0, BuildingBlock: KUMBOL_clean_sbu_1, # of connection points: 6
#     Node 3, Type 0, BuildingBlock: KUMBOL_clean_sbu_1, # of connection points: 6
#     Node 4, Type 0, BuildingBlock: KUMBOL_clean_sbu_1, # of connection points: 6
#     Node 5, Type 0, BuildingBlock: KUMBOL_clean_sbu_1, # of connection points: 6
#     Node 6, Type 0, BuildingBlock: KUMBOL_clean_sbu_1, # of connection points: 6
#     Node 7, Type 0, BuildingBlock: KUMBOL_clean_sbu_1, # of connection points: 6
#     Edge 8, Type (0, 0), BuildingBlock: UVAHIK_clean_linker_0, # of connection points: 2
#     Edge 9, Type (0, 0), BuildingBlock: UVAHIK_clean_linker_0, # of connection points: 2
#     Edge 10, Type (0, 0), BuildingBlock: UVAHIK_clean_linker_0, # of connection points: 2
#     Edge 11, Type (0, 0), BuildingBlock: UVAHIK_clean_linker_0, # of connection points: 2
#     Edge 12, Type (0, 0), BuildingBlock: UVAHIK_clean_linker_0, # of connection points: 2
#     Edge 13, Type (0, 0), BuildingBlock: UVAHIK_clean_linker_0, # of connection points: 2
#     Edge 14, Type (0, 0), BuildingBlock: UVAHIK_clean_linker_0, # of connection points: 2
#     Edge 15, Type (0, 0), BuildingBlock: UVAHIK_clean_linker_0, # of connection points: 2
#     Edge 16, Type (0, 0), BuildingBlock: UVAHIK_clean_linker_0, # of connection points: 2
#     Edge 17, Type (0, 0), BuildingBlock: UVAHIK_clean_linker_0, # of connection points: 2
#     Edge 18, Type (0, 0), BuildingBlock: UVAHIK_clean_linker_0, # of connection points: 2
#     Edge 19, Type (0, 0), BuildingBlock: UVAHIK_clean_linker_0, # of connection points: 2
#     Edge 20, Type (0, 0), BuildingBlock: UVAHIK_clean_linker_0, # of connection points: 2
#     Edge 21, Type (0, 0), BuildingBlock: UVAHIK_clean_linker_0, # of connection points: 2
#     Edge 22, Type (0, 0), BuildingBlock: UVAHIK_clean_linker_0, # of connection points: 2
#     Edge 23, Type (0, 0), BuildingBlock: UVAHIK_clean_linker_0, # of connection points: 2
#     Edge 24, Type (0, 0), BuildingBlock: UVAHIK_clean_linker_0, # of connection points: 2
#     Edge 25, Type (0, 0), BuildingBlock: UVAHIK_clean_linker_0, # of connection points: 2
#     Edge 26, Type (0, 0), BuildingBlock: UVAHIK_clean_linker_0, # of connection points: 2
#     Edge 27, Type (0, 0), BuildingBlock: UVAHIK_clean_linker_0, # of connection points: 2
#     Edge 28, Type (0, 0), BuildingBlock: UVAHIK_clean_linker_0, # of connection points: 2
#     Edge 29, Type (0, 0), BuildingBlock: UVAHIK_clean_linker_0, # of connection points: 2
#     Edge 30, Type (0, 0), BuildingBlock: UVAHIK_clean_linker_0, # of connection points: 2
#     Edge 31, Type (0, 0), BuildingBlock: UVAHIK_clean_linker_0, # of connection points: 2
# Relax obj value: 0.009
# Max RMSD: 0.071
# Mean RMSD: 0.070
data_MOF--net-snk--node1-KUMBOL_clean_sbu_1--edge1-UVAHIK_clean_linker_0
_symmetry_space_group_name_H-M    P1
_symmetry_Int_Tables_number       1
_symmetry_cell_setting            triclinic
loop_
_symmetry_equiv_pos_as_xyz
'x, y, z'
_cell_length_a     51.097823
_cell_length_b     50.869114
_cell_length_c     29.306016
_cell_angle_alpha  90.083819
_cell_angle_beta   89.946465
_cell_angle_gamma 90.064672
loop_
_atom_site_label
_atom_site_type_symbol
_atom_site_fract_x
_atom_site_fract_y
_atom_site_fract_z
_atom_type_partial_charge
C0 C 0.95492 0.93358 0.44789 0.0
C1 C 0.91297 0.95003 0.4224 0.0
C2 C 0.93947 0.95434 0.43357 0.0
C3 C 0.90203 0.92489 0.42814 0.0
C4 C 0.94439 0.90807 0.45183 0.0
C5 C 0.91772 0.90394 0.44279 0.0
N6 N 0.98048 0.93832 0.4574 0.0
C7 C -0.00281 0.91822 0.46736 0.0
C8 C 0.96111 0.88746 0.46418 0.0
C9 C 0.98771 0.89252 0.47136 0.0
Gd10 Gd -0.00221 0.01804 0.57611 0.0
Gd11 Gd 0.99462 0.98199 0.45214 0.0
N12 N 0.95073 0.97836 0.4281 0.0
C13 C 0.8985 0.97092 0.4044 0.0
C14 C 0.93732 0.99806 0.40686 0.0
C15 C 0.91088 0.99489 0.39578 0.0
H16 H 0.94696 0.01618 0.39776 0.0
H17 H 0.90018 0.01083 0.38002 0.0
H18 H 0.05863 0.00531 0.60966 0.0
H19 H 0.01771 0.9222 0.47306 0.0
H20 H 0.101 0.02884 0.61728 0.0
H21 H 0.87808 0.96844 0.3954 0.0
H22 H 0.88163 0.92128 0.42023 0.0
H23 H 0.95156 0.06576 0.57128 0.0
H24 H 0.95378 0.86757 0.46756 0.0
H25 H 0.00086 0.87666 0.48018 0.0
H26 H 0.08077 0.11775 0.57459 0.0
H27 H 0.90916 0.88454 0.44617 0.0
H28 H 0.99054 0.13917 0.55 0.0
H29 H 0.94962 0.11336 0.55635 0.0
N30 N 0.99317 0.06393 0.56805 0.0
C31 C 0.01575 0.07808 0.5683 0.0
C32 C 0.96958 0.07651 0.56649 0.0
C33 C 0.99152 0.11813 0.55542 0.0
C34 C 0.96839 0.10363 0.55891 0.0
C35 C 0.01559 0.10551 0.56143 0.0
H36 H 0.03959 0.14058 0.55667 0.0
N37 N 0.03825 0.03903 0.5862 0.0
C38 C 0.03894 0.06533 0.57855 0.0
C39 C 0.0852 0.06603 0.59541 0.0
C40 C 0.06257 0.07949 0.58202 0.0
C41 C 0.05983 0.02605 0.60184 0.0
C42 C 0.08373 0.03928 0.60606 0.0
O43 O 0.97973 0.96196 0.51639 0.0
O44 O 0.96133 0.99535 0.55763 0.0
O45 O 0.00111 0.99609 0.63946 0.0
O46 O 0.98598 0.03555 0.64065 0.0
O47 O 0.97783 0.02306 0.45903 0.0
O48 O 0.96157 0.02513 0.53253 0.0
O49 O 0.03104 0.02037 0.52461 0.0
O50 O 0.01004 0.02341 0.45637 0.0
O51 O 0.99271 0.97801 0.3777 0.0
O52 O 0.02955 0.97158 0.41397 0.0
O53 O 0.01678 0.97797 0.57164 0.0
O54 O 0.02976 0.97138 0.49604 0.0
C55 C 0.96149 0.97078 0.54402 0.0
C56 C 0.96106 0.03223 0.48928 0.0
C57 C 0.97057 0.00629 0.69703 0.0
C58 C 0.95761 0.99626 0.77569 0.0
C59 C 0.92601 0.99304 0.71352 0.0
C60 C 0.94511 0.0007 0.68217 0.0
C61 C 0.93209 0.99095 0.75987 0.0
C62 C 0.9768 0.00389 0.74359 0.0
C63 C 0.99085 0.01455 0.66437 0.0
C64 C 0.06273 0.10657 0.5728 0.0
C65 C 0.03929 0.11955 0.56246 0.0
H66 H 0.10376 0.07621 0.59847 0.0
C67 C 0.02891 0.03067 0.48384 0.0
C68 C 0.03151 0.96656 0.54029 0.0
C69 C 0.03102 0.96669 0.33125 0.0
C70 C 0.03308 0.96821 0.24776 0.0
C71 C 0.07072 0.95358 0.29152 0.0
C72 C 0.05692 0.95743 0.33204 0.0
C73 C 0.059 0.9591 0.24969 0.0
C74 C 0.01898 0.97169 0.28876 0.0
C75 C 0.01748 0.97236 0.37488 0.0
H76 H 0.90633 0.98886 0.70188 0.0
H77 H 0.94002 0.00238 0.64643 0.0
H78 H 0.91663 0.98555 0.78335 0.0
H79 H 0.99669 0.00773 0.75453 0.0
H80 H 0.09068 0.94651 0.29256 0.0
H81 H 0.06667 0.95338 0.36408 0.0
H82 H 0.07016 0.95608 0.21867 0.0
H83 H -0.0009 0.97905 0.28756 0.0
C84 C 0.3273 0.73464 0.70191 0.0
C85 C 0.32903 0.68759 0.68802 0.0
C86 C 0.3145 0.71083 0.6946 0.0
C87 C 0.3565 0.68858 0.68895 0.0
C88 C 0.35486 0.73571 0.70271 0.0
C89 C 0.36937 0.71256 0.69628 0.0
N90 N 0.31276 0.75672 0.70828 0.0
C91 C 0.32447 0.78057 0.71429 0.0
C92 C 0.36702 0.76004 0.70996 0.0
C93 C 0.35175 0.78257 0.71561 0.0
Gd94 Gd 0.22546 0.74898 0.82328 0.0
Gd95 Gd 0.26729 0.75126 0.70542 0.0
N96 N 0.28784 0.71036 0.6952 0.0
C97 C 0.31552 0.66401 0.68083 0.0
C98 C 0.27461 0.6876 0.68653 0.0
C99 C 0.2882 0.66407 0.67975 0.0
H100 H 0.25365 0.68742 0.68403 0.0
H101 H 0.27759 0.64602 0.6733 0.0
H102 H 0.25159 0.8057 0.86541 0.0
H103 H 0.31278 0.79815 0.71727 0.0
H104 H 0.2382 0.85145 0.87681 0.0
H105 H 0.32597 0.64573 0.67562 0.0
H106 H 0.36797 0.6709 0.68406 0.0
H107 H 0.171 0.7154 0.80135 0.0
H108 H 0.38816 0.76167 0.71087 0.0
H109 H 0.36098 0.80152 0.72064 0.0
H110 H 0.14628 0.85094 0.84513 0.0
H111 H 0.39057 0.71299 0.69687 0.0
H112 H 0.10613 0.76854 0.80759 0.0
H113 H 0.12343 0.72367 0.79515 0.0
N114 N 0.18031 0.75515 0.81608 0.0
C115 C 0.17123 0.77986 0.82398 0.0
C116 C 0.16357 0.73503 0.80629 0.0
C117 C 0.12697 0.765 0.81027 0.0
C118 C 0.13667 0.73966 0.80308 0.0
C119 C 0.14428 0.78549 0.8209 0.0
H120 H 0.11489 0.81605 0.82553 0.0
N121 N 0.21499 0.79341 0.83784 0.0
C122 C 0.18911 0.7996 0.83439 0.0
C123 C 0.19833 0.84445 0.85652 0.0
C124 C 0.18019 0.8254 0.84292 0.0
C125 C 0.23213 0.81133 0.85555 0.0
C126 C 0.22431 0.83724 0.86375 0.0
O127 O 0.28597 0.73089 0.76625 0.0
O128 O 0.25172 0.71441 0.80866 0.0
O129 O 0.23624 0.75184 0.89502 0.0
O130 O 0.20557 0.72527 0.87428 0.0
O131 O 0.22936 0.72789 0.70528 0.0
O132 O 0.22087 0.71295 0.77889 0.0
O133 O 0.20596 0.76448 0.75905 0.0
O134 O 0.24024 0.78459 0.72344 0.0
O135 O 0.25299 0.74418 0.6364 0.0
O136 O 0.28176 0.77449 0.64869 0.0
O137 O 0.26595 0.76762 0.82292 0.0
O138 O 0.26865 0.78653 0.75181 0.0
C139 C 0.27657 0.71483 0.7974 0.0
C140 C 0.2177 0.71175 0.73422 0.0
C141 C 0.20158 0.74521 0.94712 0.0
C142 C 0.19702 0.75412 0.02887 0.0
C143 C 0.16086 0.76278 0.97705 0.0
C144 C 0.17581 0.75391 0.94032 0.0
C145 C 0.17132 0.7629 0.02101 0.0
C146 C 0.21208 0.74531 0.99149 0.0
C147 C 0.21774 0.73606 0.90846 0.0
C148 C 0.15341 0.8312 0.83901 0.0
C149 C 0.13551 0.8113 0.82807 0.0
H150 H 0.19226 0.86447 0.86345 0.0
C151 C 0.21504 0.78177 0.72982 0.0
C152 C 0.27613 0.78492 0.79457 0.0
C153 C 0.28394 0.75223 0.57784 0.0
C154 C 0.28634 0.74331 0.49582 0.0
C155 C 0.3243 0.73605 0.5442 0.0
C156 C 0.31019 0.74453 0.58215 0.0
C157 C 0.31253 0.73542 0.50133 0.0
C158 C 0.2721 0.75167 0.53449 0.0
C159 C 0.26892 0.76118 0.61806 0.0
H160 H 0.14099 0.7694 0.97148 0.0
H161 H 0.16709 0.75371 0.90678 0.0
H162 H 0.15906 0.7694 0.04899 0.0
H163 H 0.23202 0.73874 0.99676 0.0
H164 H 0.34456 0.73022 0.54796 0.0
H165 H 0.31997 0.74535 0.61464 0.0
H166 H 0.32416 0.7293 0.47228 0.0
H167 H 0.25184 0.75764 0.53097 0.0
C168 C 0.51398 0.07987 0.95388 0.0
C169 C 0.56132 0.08033 0.94598 0.0
C170 C 0.53756 0.06636 0.94971 0.0
C171 C 0.56108 0.10794 0.94654 0.0
C172 C 0.51371 0.10759 0.95451 0.0
C173 C 0.53736 0.12152 0.95077 0.0
N174 N 0.49142 0.06591 0.95859 0.0
C175 C 0.4679 0.07833 0.96267 0.0
C176 C 0.48966 0.12049 0.95937 0.0
C177 C 0.46666 0.10578 0.96332 0.0
Gd178 Gd 0.49713 0.97866 0.07479 0.0
Gd179 Gd 0.49571 0.02014 0.95755 0.0
N180 N 0.5373 0.03958 0.95101 0.0
C181 C 0.58465 0.06612 0.94215 0.0
C182 C 0.55987 0.02568 0.94518 0.0
C183 C 0.58388 0.03869 0.94131 0.0
H184 H 0.55954 0.00462 0.94278 0.0
H185 H 0.60177 0.02755 0.93732 0.0
H186 H 0.43379 0.99571 0.09196 0.0
H187 H 0.45002 0.06707 0.96461 0.0
H188 H 0.39097 0.97393 0.09674 0.0
H189 H 0.60331 0.07613 0.9393 0.0
H190 H 0.57916 0.11898 0.94389 0.0
H191 H 0.54146 0.93055 0.06606 0.0
H192 H 0.48864 0.14176 0.96001 0.0
H193 H 0.44797 0.11559 0.96668 0.0
H194 H 0.41099 0.88204 0.08614 0.0
H195 H 0.53753 0.14282 0.95131 0.0
H196 H 0.50081 0.85692 0.06872 0.0
H197 H 0.54217 0.88202 0.06256 0.0
N198 N 0.50012 0.93279 0.07251 0.0
C199 C 0.4772 0.91942 0.07699 0.0
C200 C 0.52328 0.91977 0.06787 0.0
C201 C 0.50038 0.87821 0.07005 0.0
C202 C 0.52376 0.8923 0.06638 0.0
C203 C 0.47671 0.89171 0.07547 0.0
H204 H 0.45193 0.85713 0.07765 0.0
N205 N 0.45501 0.96033 0.08127 0.0
C206 C 0.45401 0.93355 0.08162 0.0
C207 C 0.40697 0.93499 0.0898 0.0
C208 C 0.42989 0.92019 0.08511 0.0
C209 C 0.43287 0.97474 0.08822 0.0
C210 C 0.40852 0.96236 0.09186 0.0
O211 O 0.51445 0.03878 0.02004 0.0
O212 O 0.53213 0.00472 0.06137 0.0
O213 O 0.4872 0.99164 0.14328 0.0
O214 O 0.51722 0.9623 0.13353 0.0
O215 O 0.51631 0.9807 0.95865 0.0
O216 O 0.53328 0.97522 0.03117 0.0
O217 O 0.47918 0.95999 1.01166 0.0
O218 O 0.46081 0.99407 0.97155 0.0
O219 O 0.50583 0.00623 0.88968 0.0
O220 O 0.47599 0.03592 0.89797 0.0
O221 O 0.47717 0.01846 0.07382 0.0
O222 O 0.45975 0.02334 1.0016 0.0
C223 C 0.53171 0.02955 0.0491 0.0
C224 C 0.53289 0.96973 0.98727 0.0
C225 C 0.52134 0.99063 0.19697 0.0
C226 C 0.52918 0.00307 0.27638 0.0
C227 C 0.55886 0.01761 0.21642 0.0
C228 C 0.54382 0.00447 0.18387 0.0
C229 C 0.55165 0.01695 0.26239 0.0
C230 C 0.51407 0.98995 0.24317 0.0
C231 C 0.50507 0.97726 0.16269 0.0
C232 C 0.42936 0.8926 0.08366 0.0
C233 C 0.45269 0.87841 0.07887 0.0
H234 H 0.38806 0.92547 0.09256 0.0
C235 C 0.46168 0.96913 0.98299 0.0
C236 C 0.46045 0.02929 0.04529 0.0
C237 C 0.47197 0.00695 0.83541 0.0
C238 C 0.46425 0.99403 0.75618 0.0
C239 C 0.43436 0.98004 0.8162 0.0
C240 C 0.44937 0.99335 0.84859 0.0
C241 C 0.44169 0.98034 0.77028 0.0
C242 C 0.47937 0.00727 0.78925 0.0
C243 C 0.48818 0.02054 0.86951 0.0
H244 H 0.57623 0.02826 0.20602 0.0
H245 H 0.54967 0.00499 0.14852 0.0
H246 H 0.56389 0.02697 0.28706 0.0
H247 H 0.49646 0.97949 0.25307 0.0
H248 H 0.4169 0.96958 0.82668 0.0
H249 H 0.44339 0.99318 0.88389 0.0
H250 H 0.42945 0.97023 0.74572 0.0
H251 H 0.49704 0.01759 0.77927 0.0
C252 C 0.32911 0.26197 0.32391 0.0
C253 C 0.33316 0.30951 0.32784 0.0
C254 C 0.31754 0.28665 0.32719 0.0
C255 C 0.36051 0.30724 0.32517 0.0
C256 C 0.35656 0.25963 0.32136 0.0
C257 C 0.37217 0.28238 0.32197 0.0
N258 N 0.3135 0.24032 0.32246 0.0
C259 C 0.32403 0.21573 0.32014 0.0
C260 C 0.36749 0.23446 0.318 0.0
C261 C 0.35115 0.21242 0.3176 0.0
Gd262 Gd 0.22478 0.24831 0.20949 0.0
Gd263 Gd 0.26834 0.24803 0.32494 0.0
N264 N 0.29093 0.28829 0.32794 0.0
C265 C 0.3208 0.33399 0.33083 0.0
C266 C 0.27885 0.31202 0.33276 0.0
C267 C 0.29355 0.33522 0.33374 0.0
H268 H 0.25794 0.31324 0.33601 0.0
H269 H 0.28384 0.35404 0.33686 0.0
H270 H 0.24674 0.18705 0.18157 0.0
H271 H 0.31149 0.19863 0.32091 0.0
H272 H 0.23003 0.1419 0.1811 0.0
H273 H 0.3321 0.35202 0.33135 0.0
H274 H 0.37282 0.32459 0.32546 0.0
H275 H 0.17282 0.28703 0.22216 0.0
H276 H 0.3885 0.23184 0.31595 0.0
H277 H 0.35943 0.19288 0.3155 0.0
H278 H 0.13832 0.15146 0.21109 0.0
H279 H 0.39329 0.28096 0.3199 0.0
H280 H 0.10439 0.2386 0.22989 0.0
H281 H 0.12492 0.28269 0.23157 0.0
N282 N 0.1792 0.24604 0.21633 0.0
C283 C 0.16831 0.22168 0.21406 0.0
C284 C 0.16402 0.26779 0.22201 0.0
C285 C 0.12539 0.24045 0.22577 0.0
C286 C 0.1369 0.26536 0.22692 0.0
C287 C 0.14109 0.21821 0.21924 0.0
H288 H 0.10963 0.18968 0.22268 0.0
N289 N 0.2109 0.20411 0.2037 0.0
C290 C 0.18463 0.2001 0.20803 0.0
C291 C 0.19065 0.15333 0.19803 0.0
C292 C 0.1739 0.17454 0.20624 0.0
C293 C 0.22682 0.18372 0.19163 0.0
C294 C 0.21714 0.15802 0.18979 0.0
O295 O 0.28579 0.26657 0.26137 0.0
O296 O 0.25132 0.28333 0.21988 0.0
O297 O 0.23455 0.23922 0.13905 0.0
O298 O 0.20639 0.26961 0.15377 0.0
O299 O 0.23089 0.27184 0.32476 0.0
O300 O 0.22084 0.28557 0.25105 0.0
O301 O 0.20682 0.23435 0.27611 0.0
O302 O 0.24087 0.21396 0.3124 0.0
O303 O 0.25428 0.25931 0.39219 0.0
O304 O 0.284 0.22938 0.38573 0.0
O305 O 0.2649 0.22921 0.2095 0.0
O306 O 0.26912 0.21161 0.28146 0.0
C307 C 0.27612 0.28312 0.23144 0.0
C308 C 0.21911 0.28783 0.29589 0.0
C309 C 0.23296 0.27482 0.08818 0.0
C310 C 0.24593 0.28284 1.00895 0.0
C311 C 0.25929 0.313 0.06927 0.0
C312 C 0.24625 0.29769 0.10158 0.0
C313 C 0.25918 0.30568 0.02331 0.0
C314 C 0.23281 0.26747 0.04188 0.0
C315 C 0.22012 0.25791 0.12234 0.0
C316 C 0.14683 0.17098 0.21197 0.0
C317 C 0.13047 0.19275 0.21841 0.0
H318 H 0.18318 0.13341 0.19637 0.0
C319 C 0.21576 0.21622 0.30384 0.0
C320 C 0.27571 0.21251 0.23815 0.0
C321 C 0.25483 0.22606 0.44799 0.0
C322 C 0.24164 0.21904 0.52737 0.0
C323 C 0.22789 0.18851 0.46788 0.0
C324 C 0.24128 0.20326 0.43525 0.0
C325 C 0.22804 0.19627 0.51361 0.0
C326 C 0.25502 0.2339 0.49404 0.0
C327 C 0.26849 0.24196 0.41342 0.0
H328 H 0.26951 0.33062 0.0799 0.0
H329 H 0.24657 0.30369 0.13698 0.0
H330 H 0.26917 0.31813 0.99892 0.0
H331 H 0.22288 0.24956 0.03172 0.0
H332 H 0.21747 0.1709 0.45773 0.0
H333 H 0.24121 0.19688 0.4001 0.0
H334 H 0.21786 0.18419 0.53831 0.0
H335 H 0.26531 0.25169 0.50372 0.0
C336 C 0.82683 0.23509 0.20139 0.0
C337 C 0.82683 0.18838 0.18429 0.0
C338 C 0.81314 0.21195 0.19268 0.0
C339 C 0.85431 0.18836 0.18491 0.0
C340 C 0.85442 0.23515 0.20198 0.0
C341 C 0.86806 0.21167 0.19371 0.0
N342 N 0.81313 0.25745 0.20999 0.0
C343 C 0.82568 0.28065 0.21804 0.0
C344 C 0.86746 0.2588 0.2111 0.0
C345 C 0.85301 0.28167 0.21902 0.0
Gd346 Gd 0.72547 0.24877 0.32481 0.0
Gd347 Gd 0.76754 0.25389 0.20684 0.0
N348 N 0.78647 0.21243 0.19354 0.0
C349 C 0.81247 0.16549 0.17555 0.0
C350 C 0.77246 0.1904 0.18302 0.0
C351 C 0.78519 0.16657 0.17452 0.0
H352 H 0.75153 0.19104 0.18005 0.0
H353 H 0.77394 0.14911 0.16666 0.0
H354 H 0.75278 0.30222 0.37709 0.0
H355 H 0.8146 0.29849 0.22273 0.0
H356 H 0.74051 0.34755 0.39524 0.0
H357 H 0.82226 0.14698 0.16892 0.0
H358 H 0.86514 0.17041 0.17863 0.0
H359 H 0.67044 0.21846 0.29373 0.0
H360 H 0.88864 0.25965 0.21186 0.0
H361 H 0.86292 0.30011 0.22556 0.0
H362 H 0.64928 0.35186 0.35893 0.0
H363 H 0.88926 0.21132 0.1941 0.0
H364 H 0.60724 0.27337 0.30574 0.0
H365 H 0.62327 0.22879 0.28667 0.0
N366 N 0.6807 0.25685 0.31606 0.0
C367 C 0.67229 0.2813 0.32782 0.0
C368 C 0.66351 0.23796 0.30197 0.0
C369 C 0.62788 0.26891 0.30905 0.0
C370 C 0.63686 0.24373 0.29812 0.0
C371 C 0.64563 0.28807 0.32406 0.0
H372 H 0.6172 0.31932 0.33194 0.0
N373 N 0.71622 0.29253 0.34626 0.0
C374 C 0.69061 0.29977 0.34238 0.0
C375 C 0.70082 0.34295 0.37204 0.0
C376 C 0.68236 0.32532 0.35452 0.0
C377 C 0.7336 0.3089 0.3675 0.0
C378 C 0.72642 0.33452 0.37939 0.0
O379 O 0.78681 0.23305 0.26662 0.0
O380 O 0.75257 0.21527 0.30726 0.0
O381 O 0.73361 0.2474 0.39889 0.0
O382 O 0.70347 0.22266 0.36812 0.0
O383 O 0.72885 0.23178 0.20452 0.0
O384 O 0.72264 0.21421 0.27674 0.0
O385 O 0.70624 0.26644 0.26191 0.0
O386 O 0.74088 0.28689 0.22803 0.0
O387 O 0.75477 0.24881 0.13633 0.0
O388 O 0.78203 0.27968 0.15356 0.0
O389 O 0.76581 0.26777 0.32699 0.0
O390 O 0.76921 0.28773 0.25655 0.0
C391 C 0.77755 0.21648 0.29707 0.0
C392 C 0.71766 0.21495 0.2327 0.0
C393 C 0.7088 0.21756 0.44954 0.0
C394 C 0.71383 0.21333 0.53223 0.0
C395 C 0.68485 0.18382 0.49104 0.0
C396 C 0.69109 0.19636 0.45025 0.0
C397 C 0.69622 0.19212 0.53172 0.0
C398 C 0.71999 0.22625 0.49099 0.0
C399 C 0.71554 0.22967 0.4051 0.0
C400 C 0.65588 0.33227 0.35005 0.0
C401 C 0.63758 0.3137 0.3349 0.0
H402 H 0.69525 0.36273 0.38178 0.0
C403 C 0.71563 0.28418 0.2338 0.0
C404 C 0.77632 0.28542 0.29951 0.0
C405 C 0.78684 0.25971 0.08094 0.0
C406 C 0.79095 0.24968 0.99949 0.0
C407 C 0.82919 0.24829 0.04874 0.0
C408 C 0.81387 0.25559 0.08599 0.0
C409 C 0.81786 0.24525 1.00583 0.0
C410 C 0.77547 0.257 0.03735 0.0
C411 C 0.77049 0.26689 0.12077 0.0
H412 H 0.67126 0.16748 0.49108 0.0
H413 H 0.68212 0.18922 0.41912 0.0
H414 H 0.69113 0.18202 0.56304 0.0
H415 H 0.7337 0.24252 0.49113 0.0
H416 H 0.84998 0.24512 0.05311 0.0
H417 H 0.82331 0.25821 0.11857 0.0
H418 H 0.83026 0.23985 0.97733 0.0
H419 H 0.75466 0.26026 0.03302 0.0
C420 C 0.82263 0.77939 0.81056 0.0
C421 C 0.81593 0.82614 0.82269 0.0
C422 C 0.80586 0.80035 0.81977 0.0
C423 C 0.84273 0.83061 0.81531 0.0
C424 C 0.84955 0.78383 0.80331 0.0
C425 C 0.85949 0.80953 0.8057 0.0
N426 N 0.81234 0.75481 0.80645 0.0
C427 C 0.82787 0.73372 0.79696 0.0
C428 C 0.8656 0.76231 0.793 0.0
C429 C 0.85472 0.73715 0.78999 0.0
Gd430 Gd 0.725 0.75257 0.70152 0.0
Gd431 Gd 0.76727 0.75114 0.81846 0.0
N432 N 0.77977 0.79557 0.82539 0.0
C433 C 0.79878 0.84668 0.8333 0.0
C434 C 0.76348 0.81524 0.8393 0.0
C435 C 0.77255 0.84113 0.8424 0.0
H436 H 0.74375 0.81112 0.84973 0.0
H437 H 0.75938 0.85671 0.85264 0.0
H438 H 0.73363 0.68745 0.68891 0.0
H439 H 0.81955 0.71422 0.79505 0.0
H440 H 0.70643 0.64778 0.6793 0.0
H441 H 0.80575 0.86675 0.83585 0.0
H442 H 0.85073 0.85032 0.81712 0.0
H443 H 0.68371 0.80362 0.7038 0.0
H444 H 0.88639 0.76493 0.78721 0.0
H445 H 0.86701 0.72041 0.78225 0.0
H446 H 0.61837 0.68062 0.67719 0.0
H447 H 0.8801 0.81334 0.79999 0.0
H448 H 0.60562 0.77356 0.69323 0.0
H449 H 0.63594 0.8112 0.70202 0.0
N450 N 0.68025 0.76212 0.69855 0.0
C451 C 0.66401 0.7412 0.6927 0.0
C452 C 0.67057 0.78705 0.70124 0.0
C453 C 0.62653 0.77011 0.69453 0.0
C454 C 0.64357 0.79141 0.69963 0.0
C455 C 0.63667 0.74463 0.69072 0.0
H456 H 0.59929 0.72486 0.68361 0.0
N457 N 0.70118 0.71344 0.69289 0.0
C458 C 0.67478 0.71619 0.68904 0.0
C459 C 0.67007 0.66919 0.68024 0.0
C460 C 0.65848 0.69406 0.68335 0.0
C461 C 0.71266 0.68939 0.68818 0.0
C462 C 0.69728 0.66688 0.68234 0.0
O463 O 0.78449 0.76533 0.75115 0.0
O464 O 0.75056 0.78729 0.71847 0.0
O465 O 0.74366 0.74311 0.63692 0.0
O466 O 0.71146 0.77063 0.63868 0.0
O467 O 0.72651 0.7687 0.81972 0.0
O468 O 0.72267 0.78741 0.74866 0.0
O469 O 0.70687 0.72981 0.76013 0.0
O470 O 0.73884 0.71723 0.81228 0.0
O471 O 0.76067 0.76004 0.89022 0.0
O472 O 0.78809 0.72973 0.87126 0.0
O473 O 0.76201 0.72819 0.70391 0.0
O474 O 0.77007 0.71361 0.77782 0.0
C475 C 0.77565 0.78475 0.7262 0.0
C476 C 0.71519 0.7852 0.79137 0.0
C477 C 0.74293 0.77602 0.58038 0.0
C478 C 0.75589 0.78488 0.50143 0.0
C479 C 0.7694 0.81426 0.56287 0.0
C480 C 0.75623 0.79867 0.59462 0.0
C481 C 0.76923 0.8075 0.51662 0.0
C482 C 0.74281 0.76916 0.53389 0.0
C483 C 0.72917 0.75927 0.61353 0.0
C484 C 0.63122 0.69741 0.68141 0.0
C485 C 0.62035 0.72261 0.68511 0.0
H486 H 0.65821 0.65169 0.67593 0.0
C487 C 0.71524 0.71534 0.79439 0.0
C488 C 0.77266 0.71169 0.73318 0.0
C489 C 0.76516 0.72447 0.94099 0.0
C490 C 0.75327 0.71793 0.02116 0.0
C491 C 0.74444 0.68381 0.96485 0.0
C492 C 0.75545 0.69938 0.9307 0.0
C493 C 0.7433 0.69297 1.00974 0.0
C494 C 0.76417 0.73364 0.98632 0.0
C495 C 0.77594 0.74139 0.90468 0.0
H496 H 0.77964 0.83175 0.57411 0.0
H497 H 0.75629 0.80431 0.63018 0.0
H498 H 0.77919 0.82026 0.49268 0.0
H499 H 0.73273 0.75143 0.5232 0.0
H500 H 0.73693 0.66448 0.95654 0.0
H501 H 0.75652 0.69183 0.89628 0.0
H502 H 0.73507 0.68028 0.03571 0.0
H503 H 0.77161 0.75308 0.99429 0.0
C504 C 0.4781 0.41965 0.95163 0.0
C505 C 0.43228 0.41812 0.92978 0.0
C506 C 0.45526 0.43248 0.93918 0.0
C507 C 0.43217 0.39074 0.93566 0.0
C508 C 0.47837 0.392 0.95541 0.0
C509 C 0.45514 0.37772 0.94864 0.0
N510 N 0.50042 0.43398 0.95665 0.0
C511 C 0.52401 0.42153 0.96033 0.0
C512 C 0.50221 0.37943 0.96391 0.0
C513 C 0.5252 0.39424 0.96549 0.0
Gd514 Gd 0.49681 0.51481 0.07522 0.0
Gd515 Gd 0.49559 0.47994 0.94996 0.0
N516 N 0.45577 0.45904 0.93475 0.0
C517 C 0.41025 0.43171 0.9139 0.0
C518 C 0.43486 0.4723 0.91724 0.0
C519 C 0.41167 0.45888 0.90704 0.0
H520 H 0.43609 0.49329 0.91186 0.0
H521 H 0.39492 0.46947 0.894 0.0
H522 H 0.54519 0.4811 0.12864 0.0
H523 H 0.5421 0.43243 0.95849 0.0
H524 H 0.59107 0.48831 0.1507 0.0
H525 H 0.39225 0.42137 0.90615 0.0
H526 H 0.41459 0.37938 0.92924 0.0
H527 H 0.47137 0.57372 0.05637 0.0
H528 H 0.50324 0.35824 0.96715 0.0
H529 H 0.54391 0.38459 0.9697 0.0
H530 H 0.60533 0.58012 0.12283 0.0
H531 H 0.45494 0.3565 0.95185 0.0
H532 H 0.53165 0.63148 0.07492 0.0
H533 H 0.48572 0.6203 0.05613 0.0
N534 N 0.50891 0.55911 0.07407 0.0
C535 C 0.53383 0.56486 0.08662 0.0
C536 C 0.49143 0.57858 0.06447 0.0
C537 C 0.52543 0.61112 0.07515 0.0
C538 C 0.49948 0.60488 0.06446 0.0
C539 C 0.54293 0.59102 0.08676 0.0
H540 H 0.57646 0.61621 0.09875 0.0
N541 N 0.54001 0.51971 0.10212 0.0
C542 C 0.55002 0.54447 0.10017 0.0
C543 C 0.59105 0.5291 0.13109 0.0
C544 C 0.57588 0.5498 0.11425 0.0
C545 C 0.554 0.5 0.12217 0.0
C546 C 0.57989 0.50419 0.13581 0.0
O547 O 0.46125 0.47476 0.99914 0.0
O548 O 0.48315 0.47324 0.06647 0.0
O549 O 0.49733 0.51674 0.14991 0.0
O550 O 0.46098 0.52334 0.11225 0.0
O551 O 0.47637 0.51975 0.95545 0.0
O552 O 0.46193 0.52479 0.03041 0.0
O553 O 0.51281 0.53644 1.01329 0.0
O554 O 0.53118 0.50355 0.97035 0.0
O555 O 0.49288 0.50206 0.88657 0.0
O556 O 0.50885 0.4629 0.88602 0.0
O557 O 0.51476 0.47426 0.06711 0.0
O558 O 0.5317 0.47336 0.99404 0.0
C559 C 0.46266 0.46724 0.04195 0.0
C560 C 0.46067 0.53012 0.98634 0.0
C561 C 0.45802 0.52594 0.19517 0.0
C562 C 0.45557 0.5243 0.27864 0.0
C563 C 0.41712 0.53568 0.23407 0.0
C564 C 0.43144 0.53298 0.19383 0.0
C565 C 0.42899 0.53123 0.27615 0.0
C566 C 0.47013 0.52193 0.2379 0.0
C567 C 0.47241 0.52182 0.15186 0.0
C568 C 0.58545 0.5757 0.11255 0.0
C569 C 0.56899 0.59627 0.09895 0.0
H570 H 0.61101 0.53237 0.1422 0.0
C571 C 0.53071 0.52809 0.98443 0.0
C572 C 0.53231 0.46618 0.03724 0.0
C573 C 0.52347 0.49193 0.82869 0.0
C574 C 0.53546 0.50189 0.74957 0.0
C575 C 0.56821 0.5035 0.81004 0.0
C576 C 0.54939 0.49622 0.84219 0.0
C577 C 0.5614 0.50621 0.76409 0.0
C578 C 0.51653 0.49491 0.78255 0.0
C579 C 0.50354 0.48366 0.86198 0.0
H580 H 0.39665 0.54108 0.23261 0.0
H581 H 0.4216 0.53622 0.1616 0.0
H582 H 0.41742 0.53343 0.30692 0.0
H583 H 0.49056 0.5163 0.23949 0.0
H584 H 0.58824 0.50671 0.82067 0.0
H585 H 0.55506 0.4936 0.87744 0.0
H586 H 0.57663 0.51115 0.73987 0.0
H587 H 0.49635 0.4918 0.77254 0.0
C588 C 0.03404 0.57091 0.45984 0.0
C589 C 0.07802 0.55845 0.4378 0.0
C590 C 0.05158 0.55181 0.44553 0.0
C591 C 0.08669 0.58419 0.44664 0.0
C592 C 0.04241 0.59696 0.46732 0.0
C593 C 0.06892 0.60341 0.46132 0.0
N594 N 0.00871 0.56386 0.46689 0.0
C595 C 0.9903 0.58217 0.47812 0.0
C596 C 0.02384 0.61572 0.48061 0.0
C597 C -0.00238 0.60833 0.48555 0.0
Gd598 Gd 0.99413 0.47951 0.57602 0.0
Gd599 Gd -0.00179 0.51953 0.45545 0.0
N600 N 0.04257 0.52706 0.43741 0.0
C601 C 0.0948 0.5392 0.42028 0.0
C602 C 0.05835 0.50898 0.41673 0.0
C603 C 0.08479 0.51451 0.40887 0.0
H604 H 0.05055 0.49049 0.40511 0.0
H605 H 0.09731 0.49986 0.39335 0.0
H606 H 0.93292 0.4916 0.60809 0.0
H607 H 0.97004 0.57648 0.48184 0.0
H608 H 0.89063 0.46783 0.61423 0.0
H609 H 0.11525 0.5435 0.41384 0.0
H610 H 0.10699 0.58957 0.44137 0.0
H611 H 0.04038 0.43216 0.57105 0.0
H612 H 0.02949 0.63595 0.48671 0.0
H613 H 0.98308 0.62276 0.4952 0.0
H614 H 0.91161 0.37938 0.56907 0.0
H615 H 0.07581 0.62325 0.46743 0.0
H616 H 0.0022 0.35869 0.54597 0.0
H617 H 0.04288 0.3847 0.55437 0.0
N618 N -0.0011 0.43373 0.56638 0.0
C619 C 0.97642 0.41946 0.56539 0.0
C620 C 0.02256 0.42133 0.56503 0.0
C621 C 0.00102 0.37968 0.55198 0.0
C622 C 0.02402 0.3943 0.5566 0.0
C623 C 0.97681 0.39209 0.5577 0.0
H624 H 0.95307 0.35692 0.55133 0.0
N625 N 0.95364 0.4582 0.5839 0.0
C626 C 0.9531 0.43199 0.57536 0.0
C627 C 0.90674 0.4309 0.59142 0.0
C628 C 0.92952 0.41768 0.57797 0.0
C629 C 0.93188 0.47095 0.5995 0.0
C630 C 0.90802 0.45756 0.60294 0.0
O631 O 0.01208 0.53733 0.52217 0.0
O632 O 0.03059 0.5029 0.56027 0.0
O633 O 0.98731 0.49939 0.64047 0.0
O634 O 0.0077 0.4624 0.63996 0.0
O635 O 0.01613 0.47887 0.45829 0.0
O636 O 0.03061 0.47318 0.53252 0.0
O637 O 0.9618 0.47716 0.52304 0.0
O638 O 0.98333 0.47779 0.45482 0.0
O639 O 0.00323 0.52494 0.38223 0.0
O640 O 0.96551 0.53166 0.41319 0.0
O641 O 0.97528 0.51961 0.57285 0.0
O642 O 0.96165 0.52667 0.49797 0.0
C643 C 0.0305 0.52776 0.54845 0.0
C644 C 0.0319 0.46799 0.48841 0.0
C645 C 0.0181 0.49274 0.69865 0.0
C646 C 0.02799 0.50422 0.77795 0.0
C647 C 0.05799 0.51638 0.71683 0.0
C648 C 0.04149 0.50469 0.6847 0.0
C649 C 0.05129 0.51626 0.76309 0.0
C650 C 0.01148 0.49237 0.74528 0.0
C651 C -0.00031 0.48205 0.66472 0.0
C652 C 0.92958 0.39067 0.56794 0.0
C653 C 0.95319 0.37791 0.55773 0.0
H654 H 0.88822 0.4206 0.59389 0.0
C655 C 0.96453 0.46885 0.48097 0.0
C656 C 0.9595 0.53035 0.54252 0.0
C657 C 0.96624 0.51223 0.33941 0.0
C658 C 0.96368 0.49773 0.25955 0.0
C659 C 0.93593 0.47762 0.31757 0.0
C660 C 0.94693 0.4937 0.35099 0.0
C661 C 0.9441 0.47964 0.27227 0.0
C662 C 0.97456 0.51415 0.29361 0.0
C663 C 0.97844 0.52883 0.37512 0.0
H664 H 0.07599 0.52567 0.7058 0.0
H665 H 0.04684 0.50517 0.649 0.0
H666 H 0.0645 0.52534 0.78734 0.0
H667 H 0.9932 0.48343 0.75594 0.0
H668 H 0.92099 0.46349 0.32684 0.0
H669 H 0.94035 0.49154 0.38592 0.0
H670 H 0.93484 0.46712 0.2471 0.0
H671 H 0.98987 0.52801 0.28482 0.0
C672 C 0.04028 0.07094 0.43972 0.0
C673 C 0.04822 0.05016 0.46784 0.0
C674 C 0.0585 0.08929 0.4238 0.0
C675 C 0.12707 0.11334 0.44121 0.0
H676 H 0.11667 0.14225 0.32016 0.0
C677 C 0.20562 0.17283 0.34074 0.0
C678 C 0.19704 0.19722 0.32395 0.0
C679 C 0.18777 0.15493 0.3594 0.0
C680 C 0.11973 0.1344 0.35409 0.0
H681 H 0.08128 0.032 0.50129 0.0
H682 H 0.1134 0.06336 0.47225 0.0
H683 H 0.08517 0.11087 0.35067 0.0
H684 H 0.16297 0.22191 0.31376 0.0
H685 H 0.13172 0.1901 0.34417 0.0
H686 H 0.16227 0.1364 0.44344 0.0
C687 C 0.09303 0.06613 0.4634 0.0
C688 C 0.10159 0.11654 0.37184 0.0
C689 C 0.07468 0.04803 0.47992 0.0
C690 C 0.17019 0.20316 0.32579 0.0
C691 C 0.1523 0.18502 0.34338 0.0
C692 C 0.14547 0.13087 0.42304 0.0
C693 C 0.08523 0.08697 0.43482 0.0
C694 C 0.10485 0.10587 0.41583 0.0
C695 C 0.16092 0.16079 0.36058 0.0
C696 C 0.14186 0.14169 0.37946 0.0
H697 H 0.01989 0.07319 0.43045 0.0
H698 H 0.05151 0.10536 0.40296 0.0
H699 H 0.13012 0.10599 0.47543 0.0
H700 H 0.22611 0.16748 0.33916 0.0
H701 H 0.19487 0.13627 0.37212 0.0
C702 C 0.07463 0.94329 0.53435 0.0
C703 C 0.0504 0.94663 0.55612 0.0
C704 C 0.09291 0.9253 0.55144 0.0
C705 C 0.10745 0.88603 0.65664 0.0
H706 H 0.15615 0.84999 0.57664 0.0
C707 C 0.16942 0.79617 0.71059 0.0
C708 C 0.1966 0.79983 0.7066 0.0
C709 C 0.15201 0.81408 0.69111 0.0
C710 C 0.14268 0.86004 0.59927 0.0
H711 H 0.02564 0.933 0.61125 0.0
H712 H 0.05661 0.90076 0.63948 0.0
H713 H 0.12442 0.88066 0.54434 0.0
H714 H 0.22676 0.82436 0.67634 0.0
H715 H 0.19614 0.85502 0.64054 0.0
H716 H 0.12515 0.86435 0.7112 0.0
C717 C 0.06233 0.91275 0.61066 0.0
C718 C 0.12459 0.87777 0.58092 0.0
C719 C 0.04439 0.93112 0.59426 0.0
C720 C 0.20595 0.82108 0.68053 0.0
C721 C 0.18848 0.83863 0.66 0.0
C722 C 0.12512 0.86789 0.67474 0.0
C723 C 0.08708 0.90985 0.59008 0.0
C724 C 0.10665 0.89103 0.60935 0.0
C725 C 0.16139 0.8355 0.66578 0.0
C726 C 0.14287 0.85477 0.64625 0.0
H727 H 0.07977 0.95514 0.50498 0.0
H728 H 0.1118 0.92401 0.53488 0.0
H729 H 0.0946 0.89628 0.68002 0.0
H730 H 0.16153 0.77946 0.72871 0.0
H731 H 0.13116 0.81107 0.69548 0.0
C732 C 0.31331 0.79631 0.84618 0.0
C733 C 0.2955 0.80391 0.81225 0.0
C734 C 0.33145 0.81434 0.86347 0.0
C735 C 0.34155 0.88332 0.88629 0.0
H736 H 0.41575 0.86764 0.88385 0.0
C737 C 0.41875 0.95972 0.94446 0.0
C738 C 0.4421 0.95058 0.96399 0.0
C739 C 0.40076 0.9421 0.92537 0.0
C740 C 0.3951 0.87223 0.88572 0.0
H741 H 0.2823 0.83624 0.77014 0.0
H742 H 0.3136 0.8681 0.80156 0.0
H743 H 0.38466 0.8362 0.85218 0.0
H744 H 0.46443 0.9156 0.98023 0.0
H745 H 0.43244 0.8849 0.95031 0.0
H746 H 0.35155 0.91874 0.92152 0.0
C747 C 0.31372 0.8481 0.81417 0.0
C748 C 0.37734 0.85424 0.86716 0.0
C749 C 0.29598 0.82989 0.7961 0.0
C750 C 0.44664 0.92337 0.96544 0.0
C751 C 0.42839 0.90571 0.94749 0.0
C752 C 0.35924 0.90111 0.90577 0.0
C753 C 0.33166 0.84044 0.84791 0.0
C754 C 0.35044 0.85965 0.86719 0.0
C755 C 0.40533 0.91479 0.9265 0.0
C756 C 0.38633 0.89585 0.90575 0.0
H757 H 0.31335 0.77636 0.85906 0.0
H758 H 0.34504 0.80803 0.8896 0.0
H759 H 0.32083 0.8878 0.88706 0.0
H760 H 0.41438 0.98054 0.94368 0.0
H761 H 0.38347 0.95003 0.90917 0.0
C762 C 0.44713 0.06181 0.1047 0.0
C763 C 0.44147 0.04838 0.06398 0.0
C764 C 0.42918 0.07949 0.12331 0.0
C765 C 0.37044 0.11898 0.0947 0.0
H766 H 0.36351 0.12289 0.22633 0.0
C767 C 0.29876 0.16906 0.24013 0.0
C768 C 0.29524 0.19382 0.22005 0.0
C769 C 0.31649 0.15109 0.22139 0.0
C770 C 0.36496 0.12188 0.1895 0.0
H771 H 0.41248 0.04272 1.01096 0.0
H772 H 0.38078 0.07322 0.04394 0.0
H773 H 0.39371 0.09145 0.19261 0.0
H774 H 0.30782 0.21953 0.16534 0.0
H775 H 0.3392 0.1886 0.13336 0.0
H776 H 0.34102 0.14875 0.09154 0.0
C777 C 0.39936 0.07056 0.06102 0.0
C778 C 0.3826 0.10409 0.17012 0.0
C779 C 0.41747 0.05301 0.04216 0.0
C780 C 0.30998 0.20045 0.18129 0.0
C781 C 0.32786 0.18264 0.16281 0.0
C782 C 0.35265 0.13662 0.11407 0.0
C783 C 0.40496 0.08397 0.10196 0.0
C784 C 0.3857 0.10251 0.12247 0.0
C785 C 0.33119 0.15762 0.18232 0.0
C786 C 0.34979 0.13844 0.16174 0.0
H787 H 0.46559 0.05883 0.12209 0.0
H788 H 0.43445 0.08984 0.15429 0.0
H789 H 0.37246 0.11853 0.05793 0.0
H790 H 0.28738 0.16335 0.26973 0.0
H791 H 0.31825 0.1319 0.23698 0.0
C792 C 0.91758 0.9611 0.57827 0.0
C793 C 0.94212 0.95221 0.5632 0.0
C794 C 0.89916 0.94337 0.59574 0.0
C795 C 0.88305 0.87196 0.59843 0.0
H796 H 0.83893 0.89191 0.70047 0.0
C797 C 0.82019 0.79691 0.69788 0.0
C798 C 0.79426 0.80419 0.70741 0.0
C799 C 0.83792 0.81526 0.68037 0.0
C800 C 0.85097 0.88615 0.67171 0.0
H801 H 0.96701 0.91802 0.5562 0.0
H802 H 0.93513 0.88714 0.58679 0.0
H803 H 0.8705 0.92339 0.66994 0.0
H804 H 0.76658 0.8364 0.70684 0.0
H805 H 0.7976 0.86857 0.67612 0.0
H806 H 0.8638 0.83455 0.60086 0.0
C807 C 0.92969 0.90764 0.58411 0.0
C808 C 0.86903 0.90421 0.65408 0.0
C809 C 0.94803 0.92535 0.56656 0.0
C810 C 0.78642 0.83023 0.69946 0.0
C811 C 0.80421 0.84867 0.68226 0.0
C812 C 0.86518 0.85386 0.61631 0.0
C813 C 0.90494 0.91637 0.59878 0.0
C814 C 0.88537 0.89733 0.61724 0.0
C815 C 0.83013 0.84134 0.6723 0.0
C816 C 0.84896 0.86073 0.65319 0.0
H817 H 0.91247 0.98172 0.57591 0.0
H818 H 0.88022 0.95081 0.60615 0.0
H819 H 0.89488 0.8661 0.56948 0.0
H820 H 0.82675 0.77695 0.70369 0.0
H821 H 0.85783 0.8091 0.67357 0.0
C822 C 0.91665 0.05324 0.4926 0.0
C823 C 0.94189 0.05202 0.4738 0.0
C824 C 0.89817 0.07093 0.47518 0.0
C825 C 0.88513 0.11135 0.37154 0.0
H826 H 0.83398 0.14585 0.44883 0.0
C827 C 0.8228 0.1988 0.31022 0.0
C828 C 0.79575 0.1975 0.31876 0.0
C829 C 0.8399 0.18066 0.32988 0.0
C830 C 0.84804 0.13618 0.42683 0.0
H831 H 0.96807 0.06903 0.42373 0.0
H832 H 0.93644 0.1004 0.39458 0.0
H833 H 0.86546 0.1154 0.48259 0.0
H834 H 0.76565 0.17651 0.35638 0.0
H835 H 0.79571 0.14519 0.39155 0.0
H836 H 0.86812 0.13269 0.31606 0.0
C837 C 0.93036 0.08717 0.42149 0.0
C838 C 0.86604 0.11866 0.4461 0.0
C839 C 0.94861 0.06931 0.43843 0.0
C840 C 0.78633 0.17802 0.34867 0.0
C841 C 0.80353 0.16012 0.36899 0.0
C842 C 0.8674 0.12908 0.35247 0.0
C843 C 0.90471 0.08794 0.43897 0.0
C844 C 0.88497 0.10613 0.41873 0.0
C845 C 0.83046 0.16111 0.35944 0.0
C846 C 0.84876 0.14178 0.3799 0.0
H847 H 0.91097 0.04 0.51979 0.0
H848 H 0.87859 0.07076 0.4893 0.0
H849 H 0.89888 0.10161 0.34907 0.0
H850 H 0.83092 0.21395 0.28862 0.0
H851 H 0.86062 0.18217 0.32247 0.0
C852 C 0.69701 0.17031 0.23311 0.0
C853 C 0.69934 0.19535 0.21351 0.0
C854 C 0.67986 0.15169 0.21456 0.0
C855 C 0.63948 0.13801 0.11012 0.0
H856 H 0.60623 0.08699 0.18957 0.0
C857 C 0.54817 0.07517 0.06405 0.0
C858 C 0.55183 0.04782 0.06716 0.0
C859 C 0.56713 0.09255 0.08056 0.0
C860 C 0.61554 0.10107 0.16706 0.0
H861 H 0.68514 0.22091 0.16002 0.0
H862 H 0.65421 0.18916 0.12911 0.0
H863 H 0.63663 0.11903 0.2217 0.0
H864 H 0.57868 0.01738 0.08917 0.0
H865 H 0.61104 0.04792 0.12084 0.0
H866 H 0.61703 0.12062 0.056 0.0
C867 C 0.66634 0.18323 0.15753 0.0
C868 C 0.63314 0.11937 0.18529 0.0
C869 C 0.68395 0.20159 0.17544 0.0
C870 C 0.57492 0.03829 0.08727 0.0
C871 C 0.59354 0.05571 0.10502 0.0
C872 C 0.62142 0.1201 0.09216 0.0
C873 C 0.66412 0.15789 0.17659 0.0
C874 C 0.64543 0.13815 0.15711 0.0
C875 C 0.58981 0.08297 0.10163 0.0
C876 C 0.60936 0.10148 0.12047 0.0
H877 H 0.70884 0.16491 0.26228 0.0
H878 H 0.67928 0.13233 0.22979 0.0
H879 H 0.64889 0.15159 0.08691 0.0
H880 H 0.53054 0.08323 0.04917 0.0
H881 H 0.56382 0.11352 0.07773 0.0
C882 C 0.68096 0.79697 0.84861 0.0
C883 C 0.69583 0.80383 0.81013 0.0
C884 C 0.66337 0.81487 0.86774 0.0
C885 C 0.63909 0.86085 0.91781 0.0
H886 H 0.59931 0.90758 0.84001 0.0
C887 C 0.57549 0.94528 0.99074 0.0
C888 C 0.55172 0.9505 0.96855 0.0
C889 C 0.59338 0.92748 0.97188 0.0
C890 C 0.61005 0.89451 0.8623 0.0
H891 H 0.70438 0.83491 0.76189 0.0
H892 H 0.67402 0.86639 0.79563 0.0
H893 H 0.62895 0.87585 0.80582 0.0
H894 H 0.52773 0.94078 0.90989 0.0
H895 H 0.55845 0.90939 0.87772 0.0
H896 H 0.61941 0.87886 0.97421 0.0
C897 C 0.67538 0.84696 0.81045 0.0
C898 C 0.62738 0.87653 0.84266 0.0
C899 C 0.6928 0.82894 0.79109 0.0
C900 C 0.54604 0.93739 0.92753 0.0
C901 C 0.56374 0.91948 0.90895 0.0
C902 C 0.62159 0.87869 0.93745 0.0
C903 C 0.66048 0.84018 0.84914 0.0
C904 C 0.64211 0.85943 0.87013 0.0
C905 C 0.58776 0.91443 0.93061 0.0
C906 C 0.60678 0.89571 0.90994 0.0
H907 H 0.68284 0.77766 0.86384 0.0
H908 H 0.6519 0.80876 0.89695 0.0
H909 H 0.65038 0.84827 0.94011 0.0
H910 H 0.58046 0.95527 0.02223 0.0
H911 H 0.6118 0.92434 0.98924 0.0
C912 C 0.57207 0.53802 0.94134 0.0
C913 C 0.55012 0.54695 0.96571 0.0
C914 C 0.58998 0.55584 0.92261 0.0
C915 C 0.59811 0.62787 0.8966 0.0
H916 H 0.66996 0.60674 0.87656 0.0
C917 C 0.66996 0.69684 0.80341 0.0
C918 C 0.6968 0.69558 0.81353 0.0
C919 C 0.65251 0.67823 0.82092 0.0
C920 C 0.65013 0.61331 0.88255 0.0
H921 H 0.52985 0.58174 0.9892 0.0
H922 H 0.56211 0.61259 0.96125 0.0
H923 H 0.63973 0.57631 0.91159 0.0
H924 H 0.72624 0.6733 0.8497 0.0
H925 H 0.69579 0.64256 0.88407 0.0
H926 H 0.60893 0.66553 0.8711 0.0
C927 C 0.56514 0.59192 0.95436 0.0
C928 C 0.63245 0.59547 0.90192 0.0
C929 C 0.54679 0.57411 0.97158 0.0
C930 C 0.70568 0.67532 0.84207 0.0
C931 C 0.68811 0.6572 0.86095 0.0
C932 C 0.61594 0.64594 0.87855 0.0
C933 C 0.58691 0.58315 0.92899 0.0
C934 C 0.60605 0.60236 0.909 0.0
C935 C 0.66118 0.65828 0.8506 0.0
C936 C 0.64223 0.63894 0.87076 0.0
H937 H 0.57547 0.5172 0.93663 0.0
H938 H 0.60602 0.54803 0.90268 0.0
H939 H 0.57797 0.63406 0.90035 0.0
H940 H 0.66223 0.71234 0.78214 0.0
H941 H 0.63221 0.6796 0.81082 0.0
C942 C 0.70718 0.32336 0.18398 0.0
C943 C 0.69749 0.30212 0.20961 0.0
C944 C 0.69005 0.34047 0.1616 0.0
C945 C 0.62043 0.34663 0.12369 0.0
H946 H 0.63755 0.42084 0.11748 0.0
C947 C 0.5449 0.42788 0.0853 0.0
C948 C 0.55179 0.44662 0.05226 0.0
C949 C 0.56323 0.4096 0.10062 0.0
C950 C 0.63268 0.40011 0.11856 0.0
H951 H 0.6622 0.28164 0.22994 0.0
H952 H 0.63235 0.31222 0.19381 0.0
H953 H 0.6683 0.39037 0.15272 0.0
H954 H 0.58311 0.46109 1.00929 0.0
H955 H 0.61562 0.42936 0.03717 0.0
H956 H 0.58425 0.3568 0.09125 0.0
C957 C 0.65317 0.31553 0.19005 0.0
C958 C 0.65032 0.38257 0.13861 0.0
C959 C 0.67032 0.29819 0.21169 0.0
C960 C 0.57736 0.44675 0.03469 0.0
C961 C 0.59591 0.42874 0.05074 0.0
C962 C 0.60265 0.36424 0.10435 0.0
C963 C 0.66277 0.33695 0.16462 0.0
C964 C 0.64438 0.35557 0.14177 0.0
C965 C 0.58897 0.40998 0.08383 0.0
C966 C 0.60853 0.39116 0.10183 0.0
H967 H 0.72803 0.32683 0.18115 0.0
H968 H 0.69829 0.35634 0.14163 0.0
H969 H 0.61534 0.32597 0.12437 0.0
H970 H 0.52525 0.42731 0.09922 0.0
H971 H 0.55743 0.39548 0.12637 0.0
C972 C 0.95278 0.43231 0.42763 0.0
C973 C 0.94531 0.45023 0.46171 0.0
C974 C 0.93466 0.41431 0.41007 0.0
C975 C 0.86401 0.40342 0.39537 0.0
H976 H 0.88336 0.33025 0.37972 0.0
C977 C 0.81105 0.29742 0.35616 0.0
C978 C 0.79569 0.30419 0.31824 0.0
C979 C 0.82957 0.31509 0.37348 0.0
C980 C 0.87764 0.35059 0.3841 0.0
H981 H 0.91296 0.46416 0.50285 0.0
H982 H 0.88136 0.43259 0.47262 0.0
H983 H 0.91527 0.36148 0.4104 0.0
H984 H 0.78732 0.33489 0.26917 0.0
H985 H 0.81957 0.36575 0.29945 0.0
H986 H 0.82637 0.39257 0.36931 0.0
C987 C 0.90119 0.43234 0.45955 0.0
C988 C 0.89598 0.36851 0.40125 0.0
C989 C 0.91933 0.45021 0.47724 0.0
C990 C 0.799 0.32907 0.29828 0.0
C991 C 0.81734 0.3468 0.3158 0.0
C992 C 0.84576 0.38557 0.37787 0.0
C993 C 0.90867 0.41412 0.42588 0.0
C994 C 0.88933 0.3951 0.40719 0.0
C995 C 0.83287 0.34001 0.35354 0.0
C996 C 0.85234 0.35894 0.37212 0.0
H997 H 0.9727 0.432 0.41494 0.0
H998 H 0.94092 0.40072 0.38376 0.0
H999 H 0.85838 0.42383 0.39921 0.0
H1000 H 0.80893 0.27836 0.3722 0.0
H1001 H 0.84107 0.30938 0.40287 0.0
C1002 C 0.80308 0.69617 0.67251 0.0
C1003 C 0.79044 0.69155 0.71431 0.0
C1004 C 0.81999 0.67751 0.65398 0.0
C1005 C 0.84464 0.63075 0.60845 0.0
H1006 H 0.8888 0.58925 0.6878 0.0
C1007 C 0.91544 0.55178 0.53711 0.0
C1008 C 0.93932 0.54846 0.55998 0.0
C1009 C 0.89595 0.56792 0.55569 0.0
C1010 C 0.87685 0.60087 0.66501 0.0
H1011 H 0.78541 0.66373 0.76945 0.0
H1012 H 0.81426 0.63047 0.73626 0.0
H1013 H 0.858 0.6201 0.72091 0.0
H1014 H 0.96203 0.56016 0.61908 0.0
H1015 H 0.92882 0.5891 0.65024 0.0
H1016 H 0.8646 0.61271 0.55253 0.0
C1017 C 0.81165 0.64885 0.71827 0.0
C1018 C 0.85877 0.6183 0.68412 0.0
C1019 C 0.79501 0.66781 0.73726 0.0
C1020 C 0.94364 0.56205 0.60101 0.0
C1021 C 0.92444 0.5785 0.6191 0.0
C1022 C 0.86302 0.61365 0.58933 0.0
C1023 C 0.82438 0.65347 0.67632 0.0
C1024 C 0.84259 0.63371 0.65611 0.0
C1025 C 0.90016 0.58142 0.59711 0.0
C1026 C 0.8796 0.59867 0.61733 0.0
H1027 H 0.80029 0.71448 0.65434 0.0
H1028 H 0.82993 0.68221 0.62239 0.0
H1029 H 0.83215 0.64181 0.58567 0.0
H1030 H 0.91157 0.54136 0.50557 0.0
H1031 H 0.87744 0.56939 0.53797 0.0
C1032 C 0.32059 0.29637 0.20497 0.0
C1033 C 0.29411 0.30266 0.21127 0.0
C1034 C 0.33794 0.3148 0.1867 0.0
C1035 C 0.34014 0.37943 0.12527 0.0
H1036 H 0.4129 0.37613 0.16162 0.0
C1037 C 0.41927 0.44383 0.03798 0.0
C1038 C 0.44188 0.45058 0.06248 0.0
C1039 C 0.40073 0.42656 0.05644 0.0
C1040 C 0.39261 0.37782 0.15152 0.0
H1041 H 0.26504 0.33331 0.20455 0.0
H1042 H 0.29544 0.366 0.17454 0.0
H1043 H 0.38187 0.34583 0.19458 0.0
H1044 H 0.4616 0.44617 0.12757 0.0
H1045 H 0.42867 0.41785 0.16097 0.0
H1046 H 0.35061 0.41261 0.08454 0.0
C1047 C 0.3028 0.34653 0.18194 0.0
C1048 C 0.37475 0.35987 0.16983 0.0
C1049 C 0.28532 0.32785 0.19937 0.0
C1050 C 0.44471 0.44097 0.10714 0.0
C1051 C 0.42585 0.42435 0.12618 0.0
C1052 C 0.35791 0.39783 0.10778 0.0
C1053 C 0.32942 0.34029 0.17525 0.0
C1054 C 0.34827 0.36015 0.15664 0.0
C1055 C 0.40382 0.41635 0.1008 0.0
C1056 C 0.38451 0.3972 0.12032 0.0
H1057 H 0.32787 0.27702 0.21367 0.0
H1058 H 0.35801 0.30882 0.18118 0.0
H1059 H 0.32007 0.38022 0.1136 0.0
H1060 H 0.4159 0.45175 1.0044 0.0
H1061 H 0.38426 0.42095 0.03539 0.0
C1062 C 0.41749 0.55337 0.99337 0.0
C1063 C 0.44125 0.54951 0.97023 0.0
C1064 C 0.39875 0.57084 0.97618 0.0
C1065 C 0.38139 0.60673 0.86892 0.0
H1066 H 0.33621 0.6469 0.94926 0.0
C1067 C 0.32162 0.69656 0.80996 0.0
C1068 C 0.29461 0.69574 0.81919 0.0
C1069 C 0.33856 0.67814 0.8292 0.0
C1070 C 0.34862 0.63564 0.92652 0.0
H1071 H 0.46459 0.56181 0.91225 0.0
H1072 H 0.43277 0.59299 0.8836 0.0
H1073 H 0.36802 0.61638 0.98182 0.0
H1074 H 0.26451 0.6755 0.85801 0.0
H1075 H 0.29444 0.64386 0.89298 0.0
H1076 H 0.36261 0.62693 0.81382 0.0
C1077 C 0.42783 0.5818 0.91381 0.0
C1078 C 0.36678 0.61804 0.94507 0.0
C1079 C 0.44626 0.56403 0.93046 0.0
C1080 C 0.28514 0.6766 0.84972 0.0
C1081 C 0.30223 0.65851 0.86985 0.0
C1082 C 0.36362 0.62466 0.85054 0.0
C1083 C 0.40359 0.58519 0.9359 0.0
C1084 C 0.38358 0.60344 0.91651 0.0
C1085 C 0.32904 0.65894 0.85928 0.0
C1086 C 0.34716 0.63935 0.87912 0.0
H1087 H 0.41308 0.54234 0.02404 0.0
H1088 H 0.38026 0.57263 0.99397 0.0
H1089 H 0.39334 0.59539 0.84561 0.0
H1090 H 0.32983 0.71151 0.78809 0.0
H1091 H 0.35922 0.67913 0.82105 0.0
C1092 C 0.18773 0.67278 0.74362 0.0
C1093 C 0.19984 0.69144 0.71518 0.0
C1094 C 0.17008 0.65443 0.72567 0.0
C1095 C 0.12767 0.64282 0.62467 0.0
H1096 H 0.12383 0.57193 0.67258 0.0
C1097 C 0.04396 0.57236 0.57536 0.0
C1098 C 0.05009 0.54577 0.5684 0.0
C1099 C 0.06254 0.58964 0.59335 0.0
C1100 C 0.1248 0.59157 0.65846 0.0
H1101 H 0.20345 0.70468 0.64503 0.0
H1102 H 0.17339 0.67236 0.61375 0.0
H1103 H 0.15633 0.60244 0.70272 0.0
H1104 H 0.08033 0.51626 0.57513 0.0
H1105 H 0.11302 0.54647 0.60625 0.0
H1106 H 0.09672 0.63177 0.57946 0.0
C1107 C 0.1769 0.67235 0.65018 0.0
C1108 C 0.14323 0.6092 0.67621 0.0
C1109 C 0.19437 0.6908 0.66815 0.0
C1110 C 0.07508 0.53668 0.58034 0.0
C1111 C 0.09374 0.55398 0.59829 0.0
C1112 C 0.10938 0.62517 0.60676 0.0
C1113 C 0.16428 0.65409 0.67872 0.0
C1114 C 0.14487 0.6351 0.65962 0.0
C1115 C 0.08774 0.58073 0.60487 0.0
C1116 C 0.1076 0.59934 0.62354 0.0
H1117 H 0.19162 0.6725 0.77994 0.0
H1118 H 0.16058 0.64086 0.74882 0.0
H1119 H 0.12806 0.66268 0.61141 0.0
H1120 H 0.02467 0.5798 0.56726 0.0
H1121 H 0.057 0.60995 0.59875 0.0
C1122 C 0.18815 0.32607 0.28755 0.0
C1123 C 0.20215 0.30864 0.31562 0.0
C1124 C 0.17052 0.34404 0.3066 0.0
C1125 C 0.15519 0.38315 0.40493 0.0
H1126 H 0.08188 0.37225 0.37678 0.0
C1127 C 0.07395 0.44261 0.49633 0.0
C1128 C 0.05151 0.44899 0.47108 0.0
C1129 C 0.0926 0.42522 0.47854 0.0
C1130 C 0.10225 0.37602 0.38446 0.0
H1131 H 0.20988 0.29792 0.38618 0.0
H1132 H 0.17993 0.33002 0.41906 0.0
H1133 H 0.11487 0.34446 0.34112 0.0
H1134 H 0.03105 0.44208 0.40731 0.0
H1135 H 0.06397 0.41338 0.37535 0.0
H1136 H 0.143 0.41532 0.44679 0.0
C1137 C 0.18216 0.32915 0.38231 0.0
C1138 C 0.12109 0.35994 0.36412 0.0
C1139 C 0.19925 0.31075 0.36331 0.0
C1140 C 0.04814 0.43763 0.42775 0.0
C1141 C 0.06697 0.42081 0.40958 0.0
C1142 C 0.1364 0.39969 0.4245 0.0
C1143 C 0.16729 0.34554 0.35409 0.0
C1144 C 0.14765 0.36335 0.37429 0.0
C1145 C 0.08948 0.41424 0.43466 0.0
C1146 C 0.10962 0.39635 0.41461 0.0
H1147 H 0.19048 0.32565 0.25086 0.0
H1148 H 0.15937 0.35677 0.2843 0.0
H1149 H 0.17565 0.38604 0.41319 0.0
H1150 H 0.07726 0.45125 0.52963 0.0
H1151 H 0.10941 0.42039 0.49932 0.0
C1152 C 0.98183 0.01135 0.84629 0.0
C1153 C 0.96402 0.99397 0.8254 0.0
C1154 C 0.98755 0.00935 0.8929 0.0
C1155 C 0.98219 0.96337 0.99203 0.0
H1156 H -0.00238 0.02637 0.06167 0.0
C1157 C -0.00186 0.96203 0.18826 0.0
C1158 C 0.02137 0.97429 0.20262 0.0
C1159 C 0.98902 0.96546 0.14352 0.0
C1160 C 0.99337 0.0086 0.04263 0.0
H1161 H 0.93861 0.9605 0.83792 0.0
H1162 H 0.94758 0.95784 0.91908 0.0
H1163 H 0.98601 0.03001 0.98123 0.0
H1164 H 0.05261 0.00061 0.18235 0.0
H1165 H 0.0364 0.00711 0.10474 0.0
H1166 H 0.98923 0.9421 0.05395 0.0
C1167 C 0.95761 0.97274 0.89933 0.0
C1168 C 0.98689 0.01063 0.99634 0.0
C1169 C 0.95212 0.97454 0.85265 0.0
C1170 C 0.03467 0.99089 0.17209 0.0
C1171 C 0.02534 0.99469 0.12775 0.0
C1172 C 0.98832 0.9614 0.03847 0.0
C1173 C 0.97544 0.99009 0.92024 0.0
C1174 C 0.98149 0.98802 0.97014 0.0
C1175 C 0.0027 0.98162 0.11263 0.0
C1176 C 0.99426 0.98396 0.06418 0.0
H1177 H 0.99118 0.0268 0.82681 0.0
H1178 H 0.00171 0.02284 0.90732 0.0
H1179 H 0.97865 0.94543 0.97311 0.0
H1180 H 0.98762 0.94902 0.21107 0.0
H1181 H 0.97142 0.95528 0.1329 0.0
C1182 C 0.27946 0.72268 0.41884 0.0
C1183 C 0.2745 0.74341 0.44943 0.0
C1184 C 0.27034 0.72371 0.37394 0.0
C1185 C 0.24963 0.771 0.28576 0.0
H1186 H 0.22338 0.70877 0.22437 0.0
C1187 C 0.20243 0.77452 0.10651 0.0
C1188 C 0.20768 0.75373 0.07616 0.0
C1189 C 0.21096 0.77348 0.15178 0.0
C1190 C 0.23098 0.72626 0.24082 0.0
H1191 H 0.25549 0.78125 0.457 0.0
H1192 H 0.23915 0.78286 0.37871 0.0
H1193 H 0.23606 0.70626 0.30442 0.0
H1194 H 0.22647 0.71571 0.06961 0.0
H1195 H 0.24181 0.71412 0.14843 0.0
H1196 H 0.24461 0.79098 0.22213 0.0
C1197 C 0.25043 0.76594 0.38937 0.0
C1198 C 0.23818 0.72484 0.28678 0.0
C1199 C 0.25951 0.76487 0.4344 0.0
C1200 C 0.22223 0.73214 0.09196 0.0
C1201 C 0.23074 0.73108 0.13731 0.0
C1202 C 0.24243 0.77242 0.23978 0.0
C1203 C 0.25602 0.74551 0.35842 0.0
C1204 C 0.24763 0.74718 0.30984 0.0
C1205 C 0.22498 0.75163 0.16792 0.0
C1206 C 0.23303 0.75006 0.2167 0.0
H1207 H 0.29069 0.70572 0.42947 0.0
H1208 H 0.27518 0.70771 0.35102 0.0
H1209 H 0.25725 0.78848 0.3022 0.0
H1210 H 0.19156 0.7916 0.09533 0.0
H1211 H 0.206 0.78957 0.17442 0.0
C1212 C 0.46948 0.97207 0.67974 0.0
C1213 C 0.47174 0.9947 0.70708 0.0
C1214 C 0.47581 0.97287 0.63333 0.0
C1215 C 0.48329 0.01909 0.53694 0.0
H1216 H 0.52054 0.96122 0.48033 0.0
C1217 C 0.52389 0.02476 0.35302 0.0
C1218 C 0.52171 0.00219 0.32548 0.0
C1219 C 0.51749 0.02381 0.39938 0.0
C1220 C 0.50985 0.9774 0.49548 0.0
H1221 H 0.48249 0.03596 0.70689 0.0
H1222 H 0.49399 0.03725 0.62613 0.0
H1223 H 0.51047 0.95961 0.56163 0.0
H1224 H 0.51106 0.96091 0.32529 0.0
H1225 H 0.49945 0.95937 0.406 0.0
H1226 H 0.48267 0.03689 0.47081 0.0
C1227 C 0.48703 0.01892 0.6405 0.0
C1228 C 0.5041 0.97649 0.54212 0.0
C1229 C 0.48074 0.0181 0.68694 0.0
C1230 C 0.51275 0.97871 0.3454 0.0
C1231 C 0.50639 0.97775 0.39181 0.0
C1232 C 0.48904 0.02 0.49031 0.0
C1233 C 0.48453 0.99635 0.61307 0.0
C1234 C 0.49077 0.99734 0.56345 0.0
C1235 C 0.50877 0.00027 0.41942 0.0
C1236 C 0.50241 -0.00082 0.46899 0.0
H1237 H 0.46288 0.95364 0.69425 0.0
H1238 H 0.47344 0.95518 0.61316 0.0
H1239 H 0.47261 0.03529 0.55209 0.0
H1240 H 0.53044 0.04324 0.33869 0.0
H1241 H 0.51979 0.04146 0.4197 0.0
C1242 C 0.2229 0.26581 0.93884 0.0
C1243 C 0.24583 0.27526 0.95975 0.0
C1244 C 0.22261 0.25965 0.89225 0.0
C1245 C 0.25821 0.27283 0.78422 0.0
H1246 H 0.21984 0.21209 0.74031 0.0
C1247 C 0.2651 0.23615 0.59703 0.0
C1248 C 0.24199 0.22692 0.57642 0.0
C1249 C 0.26563 0.24238 0.6436 0.0
C1250 C 0.23041 0.22931 0.7519 0.0
H1251 H 0.28668 0.28477 0.94813 0.0
H1252 H 0.2862 0.27394 0.8671 0.0
H1253 H 0.22077 0.22173 0.82178 0.0
H1254 H 0.20106 0.21797 0.58854 0.0
H1255 H 0.20198 0.22885 0.66951 0.0
H1256 H 0.26786 0.28038 0.7143 0.0
C1257 C 0.26827 0.27181 0.88647 0.0
C1258 C 0.23094 0.23484 0.79869 0.0
C1259 C 0.26855 0.278 0.93301 0.0
C1260 C 0.21933 0.22454 0.60342 0.0
C1261 C 0.21986 0.23076 0.64991 0.0
C1262 C 0.25769 0.26729 0.73742 0.0
C1263 C 0.24525 0.26271 0.86537 0.0
C1264 C 0.24483 0.25669 0.8155 0.0
C1265 C 0.24306 0.23957 0.67074 0.0
C1266 C 0.24373 0.24548 0.72062 0.0
H1267 H 0.20496 0.26379 0.95823 0.0
H1268 H 0.20444 0.25303 0.87708 0.0
H1269 H 0.26876 0.29006 0.7958 0.0
H1270 H 0.283 0.23791 0.57745 0.0
H1271 H 0.28393 0.24881 0.65857 0.0
C1272 C 0.78578 0.22447 0.92667 0.0
C1273 C 0.77957 0.24667 0.95311 0.0
C1274 C 0.77729 0.22243 0.88153 0.0
C1275 C 0.75775 0.26209 0.78275 0.0
H1276 H 0.73289 0.19519 0.73634 0.0
C1277 C 0.72025 0.24569 0.59613 0.0
C1278 C 0.72559 0.22109 0.57644 0.0
C1279 C 0.72705 0.25074 0.64174 0.0
C1280 C 0.74013 0.21395 0.74849 0.0
H1281 H 0.75921 0.28398 0.95319 0.0
H1282 H 0.74428 0.28045 0.87376 0.0
H1283 H 0.74245 0.19996 0.81717 0.0
H1284 H 0.74361 0.18318 0.58749 0.0
H1285 H 0.75632 0.19217 0.66609 0.0
H1286 H 0.75577 0.27593 0.71367 0.0
C1287 C 0.75583 0.26467 0.88814 0.0
C1288 C 0.74548 0.2167 0.79497 0.0
C1289 C 0.76413 0.26657 0.93367 0.0
C1290 C 0.73919 0.20226 0.60205 0.0
C1291 C 0.74616 0.20734 0.64724 0.0
C1292 C 0.75249 0.2593 0.73599 0.0
C1293 C 0.7625 0.24263 0.86148 0.0
C1294 C 0.75472 0.24065 0.81261 0.0
C1295 C 0.73938 0.23127 0.66827 0.0
C1296 C 0.74403 0.23503 0.71815 0.0
H1297 H 0.79755 0.20876 0.9408 0.0
H1298 H 0.78296 0.20531 0.8619 0.0
H1299 H 0.76502 0.28076 0.79525 0.0
H1300 H 0.70953 0.26041 0.57712 0.0
H1301 H 0.72149 0.26937 0.65679 0.0
C1302 C 0.77778 0.78162 0.42447 0.0
C1303 C 0.75545 0.77792 0.45189 0.0
C1304 C 0.77721 0.77571 0.37781 0.0
C1305 C 0.74123 0.73688 0.29142 0.0
H1306 H 0.77416 0.7845 0.20552 0.0
C1307 C 0.7304 0.72271 0.09678 0.0
C1308 C 0.75263 0.72712 0.06948 0.0
C1309 C 0.7303 0.72983 0.14292 0.0
C1310 C 0.76512 0.77081 0.22903 0.0
H1311 H 0.71491 0.76521 0.45122 0.0
H1312 H 0.71402 0.75468 0.37002 0.0
H1313 H 0.77509 0.79458 0.2869 0.0
H1314 H 0.7921 0.74272 0.06933 0.0
H1315 H 0.79205 0.75494 0.14989 0.0
H1316 H 0.73149 0.71296 0.23377 0.0
C1317 C 0.73207 0.76192 0.38477 0.0
C1318 C 0.76564 0.77662 0.27574 0.0
C1319 C 0.7326 0.76792 0.43141 0.0
C1320 C 0.77456 0.73933 0.08926 0.0
C1321 C 0.77451 0.74634 0.1355 0.0
C1322 C 0.7408 0.73102 0.24474 0.0
C1323 C 0.75433 0.76585 0.35733 0.0
C1324 C 0.75371 0.75972 0.30755 0.0
C1325 C 0.75246 0.74144 0.1631 0.0
C1326 C 0.75273 0.74791 0.21286 0.0
H1327 H 0.79586 0.78883 0.43913 0.0
H1328 H 0.79484 0.77856 0.35788 0.0
H1329 H 0.73218 0.72323 0.31498 0.0
H1330 H 0.71302 0.71374 0.08245 0.0
H1331 H 0.71276 0.72626 0.16274 0.0
C1332 C 0.51004 0.48689 0.68035 0.0
C1333 C 0.5284 0.5041 0.70015 0.0
C1334 C 0.50388 0.48855 0.6339 0.0
C1335 C 0.50874 0.53328 0.53325 0.0
H1336 H 0.49283 0.46949 0.46616 0.0
C1337 C 0.49051 0.53245 0.33752 0.0
C1338 C 0.46755 0.51936 0.32404 0.0
C1339 C 0.50003 0.52979 0.38217 0.0
C1340 C 0.49718 0.48748 0.48447 0.0
H1341 H 0.5543 0.53695 0.68601 0.0
H1342 H 0.54441 0.53914 0.60501 0.0
H1343 H 0.50513 0.46677 0.54637 0.0
H1344 H 0.43723 0.49237 0.34591 0.0
H1345 H 0.45403 0.48737 0.42338 0.0
H1346 H 0.50102 0.55387 0.47088 0.0
C1347 C 0.53436 0.52459 0.62551 0.0
C1348 C 0.50408 0.48597 0.53061 0.0
C1349 C 0.54034 0.52308 0.67206 0.0
C1350 C 0.4549 0.50279 0.35545 0.0
C1351 C 0.46461 0.49982 0.39973 0.0
C1352 C 0.50213 0.53473 0.48694 0.0
C1353 C 0.51607 0.50732 0.60567 0.0
C1354 C 0.50965 0.50888 0.5559 0.0
C1355 C 0.48702 0.51363 0.4139 0.0
C1356 C 0.49597 0.51188 0.46215 0.0
H1357 H 0.50064 0.47177 0.70053 0.0
H1358 H 0.48937 0.47517 0.62025 0.0
H1359 H 0.51248 0.55141 0.55151 0.0
H1360 H 0.50056 0.54544 0.31406 0.0
H1361 H 0.51746 0.54052 0.39201 0.0
C1362 C 0.02384 0.52715 0.8538 0.0
C1363 C 0.021 0.50421 0.82736 0.0
C1364 C 0.01798 0.52703 0.90049 0.0
C1365 C 0.01296 0.48279 0.99942 0.0
H1366 H 0.97265 0.53913 0.05423 0.0
C1367 C 0.97443 0.4761 0.18441 0.0
C1368 C 0.97255 0.49913 0.21092 0.0
C1369 C 0.98123 0.47726 0.13822 0.0
C1370 C 0.98431 0.52344 0.03976 0.0
H1371 H 0.00975 0.46315 0.8294 0.0
H1372 H -0.00034 0.46288 0.91105 0.0
H1373 H 0.98227 0.54014 0.97268 0.0
H1374 H 0.97704 0.54151 0.20918 0.0
H1375 H 0.98983 0.54347 0.12902 0.0
H1376 H 0.01547 0.46624 0.0663 0.0
C1377 C 0.00644 0.48097 0.89557 0.0
C1378 C 0.98972 0.52398 0.99287 0.0
C1379 C 0.012 0.48118 0.84873 0.0
C1380 C 0.97841 0.52333 0.19006 0.0
C1381 C 0.98541 0.52448 0.14378 0.0
C1382 C 0.00779 0.48237 0.04635 0.0
C1383 C 0.00943 0.50388 0.92206 0.0
C1384 C 0.00393 0.50355 0.97206 0.0
C1385 C 0.98669 0.50146 0.11705 0.0
C1386 C 0.99319 0.50257 0.06722 0.0
H1387 H 0.03051 0.54528 0.83829 0.0
H1388 H 0.02063 0.54496 0.91992 0.0
H1389 H 0.02435 0.46698 0.98463 0.0
H1390 H 0.97055 0.45702 0.1993 0.0
H1391 H 0.98167 0.4591 0.11894 0.0
loop_
_geom_bond_atom_site_label_1
_geom_bond_atom_site_label_2
_geom_bond_distance
_geom_bond_site_symmetry_2
_ccdc_geom_bond_type
C0 C2 1.422 . S
C0 C4 1.415 . S
C0 N6 1.369 1_655 S
C1 C2 1.421 . S
C1 C3 1.417 . S
C1 C13 1.422 . S
C2 C0 1.422 . S
C2 C1 1.421 . S
C2 N12 1.359 . S
C3 C1 1.417 . S
C3 C5 1.329 . S
C3 H22 0.930 . S
C4 C0 1.415 . S
C4 C5 1.437 . S
C4 C8 1.413 1_655 S
C5 C3 1.329 . S
C5 C4 1.437 . S
C5 H27 0.929 . S
N6 C0 1.369 1_455 S
N6 C7 1.338 . S
N6 Gd11 2.623 . S
C7 N6 1.338 . S
C7 C9 1.378 . S
C7 H19 0.929 . S
C8 C4 1.413 1_455 S
C8 C9 1.348 . S
C8 H24 0.931 . S
C9 C7 1.378 . S
C9 C8 1.348 . S
C9 H25 0.930 . S
Gd10 N30 2.623 . S
Gd10 N37 2.549 1_655 S
Gd10 O44 2.368 1_545 S
Gd10 O45 2.464 1_655 S
Gd10 O46 2.440 . S
Gd10 O48 2.407 . S
Gd10 O49 2.373 1_655 S
Gd10 O53 2.291 1_645 S
Gd10 C63 2.810 . S
Gd11 N6 2.623 . S
Gd11 N12 2.541 1_455 S
Gd11 O43 2.368 1_455 S
Gd11 O47 2.285 1_465 S
Gd11 O50 2.374 1_565 S
Gd11 O51 2.463 1_455 S
Gd11 O52 2.446 . S
Gd11 O54 2.415 . S
Gd11 C75 2.813 . S
N12 C2 1.359 . S
N12 Gd11 2.541 1_655 S
N12 C14 1.343 . S
C13 C1 1.422 . S
C13 C15 1.321 . S
C13 H21 0.931 . S
C14 N12 1.343 . S
C14 C15 1.390 . S
C14 H16 0.931 . S
C15 C13 1.321 . S
C15 C14 1.390 . S
C15 H17 0.930 . S
H16 C14 0.931 . S
H17 C15 0.930 . S
H18 C41 0.931 . S
H19 C7 0.929 . S
H20 C42 0.930 . S
H21 C13 0.931 . S
H22 C3 0.930 . S
H23 C32 0.929 . S
H24 C8 0.931 . S
H25 C9 0.930 . S
H26 C64 0.930 . S
H27 C5 0.929 . S
H28 C33 0.931 . S
H29 C34 0.930 . S
N30 Gd10 2.623 . S
N30 C31 1.369 1_655 S
N30 C32 1.338 . S
C31 N30 1.369 1_455 S
C31 C35 1.415 . S
C31 C38 1.422 . S
C32 H23 0.929 . S
C32 N30 1.338 . S
C32 C34 1.378 . S
C33 H28 0.931 . S
C33 C34 1.348 . S
C33 C35 1.413 1_655 S
C34 H29 0.930 . S
C34 C32 1.378 . S
C34 C33 1.348 . S
C35 C31 1.415 . S
C35 C33 1.413 1_455 S
C35 C65 1.437 . S
H36 C65 0.929 . S
N37 Gd10 2.549 1_455 S
N37 C38 1.359 . S
N37 C41 1.343 . S
C38 C31 1.422 . S
C38 N37 1.359 . S
C38 C40 1.421 . S
C39 C40 1.422 . S
C39 C42 1.321 . S
C39 H66 0.931 . S
C40 C38 1.421 . S
C40 C39 1.422 . S
C40 C64 1.417 . S
C41 H18 0.931 . S
C41 N37 1.343 . S
C41 C42 1.390 . S
C42 H20 0.930 . S
C42 C39 1.321 . S
C42 C41 1.390 . S
O43 Gd11 2.368 1_655 S
O43 C55 1.265 . S
O44 Gd10 2.368 1_565 S
O44 C55 1.242 . S
O45 Gd10 2.464 1_455 S
O45 C63 1.263 1_455 S
O46 Gd10 2.440 . S
O46 C63 1.252 . S
O47 Gd11 2.285 1_645 S
O47 C56 1.261 . S
O48 Gd10 2.407 . S
O48 C56 1.252 . S
O49 Gd10 2.373 1_455 S
O49 C67 1.265 . S
O50 Gd11 2.374 1_545 S
O50 C67 1.242 . S
O51 Gd11 2.463 1_655 S
O51 C75 1.263 1_655 S
O52 Gd11 2.446 . S
O52 C75 1.252 . S
O53 Gd10 2.291 1_465 S
O53 C68 1.261 . S
O54 Gd11 2.415 . S
O54 C68 1.252 . S
C55 O43 1.265 . S
C55 O44 1.242 . S
C56 O47 1.261 . S
C56 O48 1.252 . S
C57 C60 1.394 . S
C57 C62 1.390 . S
C57 C63 1.500 . S
C58 C61 1.385 1_565 S
C58 C62 1.394 1_565 S
C59 C60 1.396 . S
C59 C61 1.365 . S
C59 H76 0.929 . S
C60 C57 1.394 . S
C60 C59 1.396 . S
C60 H77 0.930 . S
C61 C58 1.385 1_545 S
C61 C59 1.365 . S
C61 H78 0.931 . S
C62 C57 1.390 . S
C62 C58 1.394 1_545 S
C62 H79 0.912 1_645 S
C63 Gd10 2.810 . S
C63 O45 1.263 1_655 S
C63 O46 1.252 . S
C63 C57 1.500 . S
C64 H26 0.930 . S
C64 C40 1.417 . S
C64 C65 1.329 . S
C65 C35 1.437 . S
C65 H36 0.929 . S
C65 C64 1.329 . S
H66 C39 0.931 . S
C67 O49 1.265 . S
C67 O50 1.242 . S
C68 O53 1.261 . S
C68 O54 1.252 . S
C69 C72 1.394 . S
C69 C74 1.383 . S
C69 C75 1.500 . S
C70 C73 1.379 1_545 S
C70 C74 1.394 1_545 S
C71 C72 1.396 . S
C71 C73 1.365 . S
C71 H80 0.929 . S
C72 C69 1.394 . S
C72 C71 1.396 . S
C72 H81 0.930 . S
C73 C70 1.379 1_565 S
C73 C71 1.365 . S
C73 H82 0.931 . S
C74 C69 1.383 . S
C74 C70 1.394 1_565 S
C74 H83 0.918 1_465 S
C75 Gd11 2.813 . S
C75 O51 1.263 1_455 S
C75 O52 1.252 . S
C75 C69 1.500 . S
H76 C59 0.929 . S
H77 C60 0.930 . S
H78 C61 0.931 . S
H79 C62 0.912 1_465 S
H80 C71 0.929 . S
H81 C72 0.930 . S
H82 C73 0.931 . S
H83 C74 0.918 1_645 S
C84 C86 1.422 . S
C84 C88 1.415 . S
C84 N90 1.369 . S
C85 C86 1.421 . S
C85 C87 1.417 . S
C85 C97 1.422 . S
C86 C84 1.422 . S
C86 C85 1.421 . S
C86 N96 1.359 . S
C87 C85 1.417 . S
C87 C89 1.329 . S
C87 H106 0.930 . S
C88 C84 1.415 . S
C88 C89 1.437 . S
C88 C92 1.413 . S
C89 C87 1.329 . S
C89 C88 1.437 . S
C89 H111 0.929 . S
N90 C84 1.369 . S
N90 C91 1.338 . S
N90 Gd95 2.622 . S
C91 N90 1.338 . S
C91 C93 1.378 . S
C91 H103 0.929 . S
C92 C88 1.413 . S
C92 C93 1.348 . S
C92 H108 0.931 . S
C93 C91 1.378 . S
C93 C92 1.348 . S
C93 H109 0.930 . S
Gd94 N114 2.622 . S
Gd94 N121 2.570 . S
Gd94 O128 2.353 . S
Gd94 O129 2.468 . S
Gd94 O130 2.427 . S
Gd94 O132 2.388 . S
Gd94 O133 2.386 . S
Gd94 O137 2.307 . S
Gd94 C147 2.805 . S
Gd95 N90 2.622 . S
Gd95 N96 2.570 . S
Gd95 O127 2.386 . S
Gd95 O131 2.307 . S
Gd95 O134 2.353 . S
Gd95 O135 2.468 . S
Gd95 O136 2.427 . S
Gd95 O138 2.388 . S
Gd95 C159 2.805 . S
N96 C86 1.359 . S
N96 Gd95 2.570 . S
N96 C98 1.343 . S
C97 C85 1.422 . S
C97 C99 1.321 . S
C97 H105 0.931 . S
C98 N96 1.343 . S
C98 C99 1.390 . S
C98 H100 0.931 . S
C99 C97 1.321 . S
C99 C98 1.390 . S
C99 H101 0.930 . S
H100 C98 0.931 . S
H101 C99 0.930 . S
H102 C125 0.931 . S
H103 C91 0.929 . S
H104 C126 0.930 . S
H105 C97 0.931 . S
H106 C87 0.930 . S
H107 C116 0.929 . S
H108 C92 0.931 . S
H109 C93 0.930 . S
H110 C148 0.930 . S
H111 C89 0.929 . S
H112 C117 0.931 . S
H113 C118 0.930 . S
N114 Gd94 2.622 . S
N114 C115 1.369 . S
N114 C116 1.338 . S
C115 N114 1.369 . S
C115 C119 1.415 . S
C115 C122 1.422 . S
C116 H107 0.929 . S
C116 N114 1.338 . S
C116 C118 1.378 . S
C117 H112 0.931 . S
C117 C118 1.348 . S
C117 C119 1.413 . S
C118 H113 0.930 . S
C118 C116 1.378 . S
C118 C117 1.348 . S
C119 C115 1.415 . S
C119 C117 1.413 . S
C119 C149 1.437 . S
H120 C149 0.929 . S
N121 Gd94 2.570 . S
N121 C122 1.359 . S
N121 C125 1.343 . S
C122 C115 1.422 . S
C122 N121 1.359 . S
C122 C124 1.421 . S
C123 C124 1.422 . S
C123 C126 1.321 . S
C123 H150 0.931 . S
C124 C122 1.421 . S
C124 C123 1.422 . S
C124 C148 1.417 . S
C125 H102 0.931 . S
C125 N121 1.343 . S
C125 C126 1.390 . S
C126 H104 0.930 . S
C126 C123 1.321 . S
C126 C125 1.390 . S
O127 Gd95 2.386 . S
O127 C139 1.265 . S
O128 Gd94 2.353 . S
O128 C139 1.242 . S
O129 Gd94 2.468 . S
O129 C147 1.263 . S
O130 Gd94 2.427 . S
O130 C147 1.252 . S
O131 Gd95 2.307 . S
O131 C140 1.261 . S
O132 Gd94 2.388 . S
O132 C140 1.252 . S
O133 Gd94 2.386 . S
O133 C151 1.265 . S
O134 Gd95 2.353 . S
O134 C151 1.242 . S
O135 Gd95 2.468 . S
O135 C159 1.263 . S
O136 Gd95 2.427 . S
O136 C159 1.252 . S
O137 Gd94 2.307 . S
O137 C152 1.261 . S
O138 Gd95 2.388 . S
O138 C152 1.252 . S
C139 O127 1.265 . S
C139 O128 1.242 . S
C140 O131 1.261 . S
C140 O132 1.252 . S
C141 C144 1.394 . S
C141 C146 1.370 . S
C141 C147 1.500 . S
C142 C145 1.383 . S
C142 C146 1.395 1_554 S
C143 C144 1.396 1_554 S
C143 C145 1.365 . S
C143 H160 0.929 . S
C144 C141 1.394 . S
C144 C143 1.396 1_556 S
C144 H161 0.930 . S
C145 C142 1.383 . S
C145 C143 1.365 . S
C145 H162 0.931 . S
C146 C141 1.370 . S
C146 C142 1.395 1_556 S
C146 H163 0.930 . S
C147 Gd94 2.805 . S
C147 O129 1.263 . S
C147 O130 1.252 . S
C147 C141 1.500 . S
C148 H110 0.930 . S
C148 C124 1.417 . S
C148 C149 1.329 . S
C149 C119 1.437 . S
C149 H120 0.929 . S
C149 C148 1.329 . S
H150 C123 0.931 . S
C151 O133 1.265 . S
C151 O134 1.242 . S
C152 O137 1.261 . S
C152 O138 1.252 . S
C153 C156 1.394 . S
C153 C158 1.370 . S
C153 C159 1.500 . S
C154 C157 1.383 . S
C154 C158 1.395 . S
C155 C156 1.396 . S
C155 C157 1.365 . S
C155 H164 0.929 . S
C156 C153 1.394 . S
C156 C155 1.396 . S
C156 H165 0.930 . S
C157 C154 1.383 . S
C157 C155 1.365 . S
C157 H166 0.931 . S
C158 C153 1.370 . S
C158 C154 1.395 . S
C158 H167 0.930 . S
C159 Gd95 2.805 . S
C159 O135 1.263 . S
C159 O136 1.252 . S
C159 C153 1.500 . S
H160 C143 0.929 . S
H161 C144 0.930 . S
H162 C145 0.931 . S
H163 C146 0.930 . S
H164 C155 0.929 . S
H165 C156 0.930 . S
H166 C157 0.931 . S
H167 C158 0.930 . S
C168 C170 1.422 . S
C168 C172 1.415 . S
C168 N174 1.369 . S
C169 C170 1.421 . S
C169 C171 1.417 . S
C169 C181 1.422 . S
C170 C168 1.422 . S
C170 C169 1.421 . S
C170 N180 1.359 . S
C171 C169 1.417 . S
C171 C173 1.329 . S
C171 H190 0.930 . S
C172 C168 1.415 . S
C172 C173 1.437 . S
C172 C176 1.413 . S
C173 C171 1.329 . S
C173 C172 1.437 . S
C173 H195 0.929 . S
N174 C168 1.369 . S
N174 C175 1.338 . S
N174 Gd179 2.622 . S
C175 N174 1.338 . S
C175 C177 1.378 . S
C175 H187 0.929 . S
C176 C172 1.413 . S
C176 C177 1.348 . S
C176 H192 0.931 . S
C177 C175 1.378 . S
C177 C176 1.348 . S
C177 H193 0.930 . S
Gd178 N198 2.622 . S
Gd178 N205 2.570 . S
Gd178 O212 2.353 1_565 S
Gd178 O213 2.468 . S
Gd178 O214 2.427 . S
Gd178 O216 2.388 . S
Gd178 O217 2.386 1_554 S
Gd178 O221 2.307 1_565 S
Gd178 C231 2.805 . S
Gd179 N174 2.622 . S
Gd179 N180 2.570 . S
Gd179 O211 2.386 1_556 S
Gd179 O215 2.307 1_545 S
Gd179 O218 2.353 1_545 S
Gd179 O219 2.468 . S
Gd179 O220 2.427 . S
Gd179 O222 2.388 . S
Gd179 C243 2.805 . S
N180 C170 1.359 . S
N180 Gd179 2.570 . S
N180 C182 1.343 . S
C181 C169 1.422 . S
C181 C183 1.321 . S
C181 H189 0.931 . S
C182 N180 1.343 . S
C182 C183 1.390 . S
C182 H184 0.931 . S
C183 C181 1.321 . S
C183 C182 1.390 . S
C183 H185 0.930 . S
H184 C182 0.931 . S
H185 C183 0.930 . S
H186 C209 0.931 . S
H187 C175 0.929 . S
H188 C210 0.930 . S
H189 C181 0.931 . S
H190 C171 0.930 . S
H191 C200 0.929 . S
H192 C176 0.931 . S
H193 C177 0.930 . S
H194 C232 0.930 . S
H195 C173 0.929 . S
H196 C201 0.931 . S
H197 C202 0.930 . S
N198 Gd178 2.622 . S
N198 C199 1.369 . S
N198 C200 1.338 . S
C199 N198 1.369 . S
C199 C203 1.415 . S
C199 C206 1.422 . S
C200 H191 0.929 . S
C200 N198 1.338 . S
C200 C202 1.378 . S
C201 H196 0.931 . S
C201 C202 1.348 . S
C201 C203 1.413 . S
C202 H197 0.930 . S
C202 C200 1.378 . S
C202 C201 1.348 . S
C203 C199 1.415 . S
C203 C201 1.413 . S
C203 C233 1.437 . S
H204 C233 0.929 . S
N205 Gd178 2.570 . S
N205 C206 1.359 . S
N205 C209 1.343 . S
C206 C199 1.422 . S
C206 N205 1.359 . S
C206 C208 1.421 . S
C207 C208 1.422 . S
C207 C210 1.321 . S
C207 H234 0.931 . S
C208 C206 1.421 . S
C208 C207 1.422 . S
C208 C232 1.417 . S
C209 H186 0.931 . S
C209 N205 1.343 . S
C209 C210 1.390 . S
C210 H188 0.930 . S
C210 C207 1.321 . S
C210 C209 1.390 . S
O211 Gd179 2.386 1_554 S
O211 C223 1.265 . S
O212 Gd178 2.353 1_545 S
O212 C223 1.242 . S
O213 Gd178 2.468 . S
O213 C231 1.263 . S
O214 Gd178 2.427 . S
O214 C231 1.252 . S
O215 Gd179 2.307 1_565 S
O215 C224 1.261 . S
O216 Gd178 2.388 . S
O216 C224 1.252 1_554 S
O217 Gd178 2.386 1_556 S
O217 C235 1.265 . S
O218 Gd179 2.353 1_565 S
O218 C235 1.242 . S
O219 Gd179 2.468 . S
O219 C243 1.263 . S
O220 Gd179 2.427 . S
O220 C243 1.252 . S
O221 Gd178 2.307 1_545 S
O221 C236 1.261 . S
O222 Gd179 2.388 . S
O222 C236 1.252 1_556 S
C223 O211 1.265 . S
C223 O212 1.242 . S
C224 O215 1.261 . S
C224 O216 1.252 1_556 S
C225 C228 1.394 . S
C225 C230 1.351 1_565 S
C225 C231 1.500 . S
C226 C229 1.383 1_545 S
C226 C230 1.396 . S
C227 C228 1.396 . S
C227 C229 1.365 . S
C227 H244 0.929 . S
C228 C225 1.394 . S
C228 C227 1.396 . S
C228 H245 0.930 . S
C229 C226 1.383 1_565 S
C229 C227 1.365 . S
C229 H246 0.931 . S
C230 C225 1.351 1_545 S
C230 C226 1.396 . S
C230 H247 0.950 . S
C231 Gd178 2.805 . S
C231 O213 1.263 . S
C231 O214 1.252 . S
C231 C225 1.500 . S
C232 H194 0.930 . S
C232 C208 1.417 . S
C232 C233 1.329 . S
C233 C203 1.437 . S
C233 H204 0.929 . S
C233 C232 1.329 . S
H234 C207 0.931 . S
C235 O217 1.265 . S
C235 O218 1.242 . S
C236 O221 1.261 . S
C236 O222 1.252 1_554 S
C237 C240 1.394 . S
C237 C242 1.357 1_545 S
C237 C243 1.500 . S
C238 C241 1.383 1_565 S
C238 C242 1.396 . S
C239 C240 1.396 . S
C239 C241 1.365 . S
C239 H248 0.929 . S
C240 C237 1.394 . S
C240 C239 1.396 . S
C240 H249 0.930 . S
C241 C238 1.383 1_545 S
C241 C239 1.365 . S
C241 H250 0.931 . S
C242 C237 1.357 1_565 S
C242 C238 1.396 . S
C242 H251 0.943 . S
C243 Gd179 2.805 . S
C243 O219 1.263 . S
C243 O220 1.252 . S
C243 C237 1.500 . S
H244 C227 0.929 . S
H245 C228 0.930 . S
H246 C229 0.931 . S
H247 C230 0.950 . S
H248 C239 0.929 . S
H249 C240 0.930 . S
H250 C241 0.931 . S
H251 C242 0.943 . S
C252 C254 1.422 . S
C252 C256 1.415 . S
C252 N258 1.369 . S
C253 C254 1.421 . S
C253 C255 1.417 . S
C253 C265 1.422 . S
C254 C252 1.422 . S
C254 C253 1.421 . S
C254 N264 1.359 . S
C255 C253 1.417 . S
C255 C257 1.329 . S
C255 H274 0.930 . S
C256 C252 1.415 . S
C256 C257 1.437 . S
C256 C260 1.413 . S
C257 C255 1.329 . S
C257 C256 1.437 . S
C257 H279 0.929 . S
N258 C252 1.369 . S
N258 C259 1.338 . S
N258 Gd263 2.622 . S
C259 N258 1.338 . S
C259 C261 1.378 . S
C259 H271 0.929 . S
C260 C256 1.413 . S
C260 C261 1.348 . S
C260 H276 0.931 . S
C261 C259 1.378 . S
C261 C260 1.348 . S
C261 H277 0.930 . S
Gd262 N282 2.622 . S
Gd262 N289 2.570 . S
Gd262 O296 2.353 . S
Gd262 O297 2.468 . S
Gd262 O298 2.427 . S
Gd262 O300 2.388 . S
Gd262 O301 2.386 . S
Gd262 O305 2.307 . S
Gd262 C315 2.805 . S
Gd263 N258 2.622 . S
Gd263 N264 2.570 . S
Gd263 O295 2.386 . S
Gd263 O299 2.307 . S
Gd263 O302 2.353 . S
Gd263 O303 2.468 . S
Gd263 O304 2.427 . S
Gd263 O306 2.388 . S
Gd263 C327 2.805 . S
N264 C254 1.359 . S
N264 Gd263 2.570 . S
N264 C266 1.343 . S
C265 C253 1.422 . S
C265 C267 1.321 . S
C265 H273 0.931 . S
C266 N264 1.343 . S
C266 C267 1.390 . S
C266 H268 0.931 . S
C267 C265 1.321 . S
C267 C266 1.390 . S
C267 H269 0.930 . S
H268 C266 0.931 . S
H269 C267 0.930 . S
H270 C293 0.931 . S
H271 C259 0.929 . S
H272 C294 0.930 . S
H273 C265 0.931 . S
H274 C255 0.930 . S
H275 C284 0.929 . S
H276 C260 0.931 . S
H277 C261 0.930 . S
H278 C316 0.930 . S
H279 C257 0.929 . S
H280 C285 0.931 . S
H281 C286 0.930 . S
N282 Gd262 2.622 . S
N282 C283 1.369 . S
N282 C284 1.338 . S
C283 N282 1.369 . S
C283 C287 1.415 . S
C283 C290 1.422 . S
C284 H275 0.929 . S
C284 N282 1.338 . S
C284 C286 1.378 . S
C285 H280 0.931 . S
C285 C286 1.348 . S
C285 C287 1.413 . S
C286 H281 0.930 . S
C286 C284 1.378 . S
C286 C285 1.348 . S
C287 C283 1.415 . S
C287 C285 1.413 . S
C287 C317 1.437 . S
H288 C317 0.929 . S
N289 Gd262 2.570 . S
N289 C290 1.359 . S
N289 C293 1.343 . S
C290 C283 1.422 . S
C290 N289 1.359 . S
C290 C292 1.421 . S
C291 C292 1.422 . S
C291 C294 1.321 . S
C291 H318 0.931 . S
C292 C290 1.421 . S
C292 C291 1.422 . S
C292 C316 1.417 . S
C293 H270 0.931 . S
C293 N289 1.343 . S
C293 C294 1.390 . S
C294 H272 0.930 . S
C294 C291 1.321 . S
C294 C293 1.390 . S
O295 Gd263 2.386 . S
O295 C307 1.265 . S
O296 Gd262 2.353 . S
O296 C307 1.242 . S
O297 Gd262 2.468 . S
O297 C315 1.263 . S
O298 Gd262 2.427 . S
O298 C315 1.252 . S
O299 Gd263 2.307 . S
O299 C308 1.261 . S
O300 Gd262 2.388 . S
O300 C308 1.252 . S
O301 Gd262 2.386 . S
O301 C319 1.265 . S
O302 Gd263 2.353 . S
O302 C319 1.242 . S
O303 Gd263 2.468 . S
O303 C327 1.263 . S
O304 Gd263 2.427 . S
O304 C327 1.252 . S
O305 Gd262 2.307 . S
O305 C320 1.261 . S
O306 Gd263 2.388 . S
O306 C320 1.252 . S
C307 O295 1.265 . S
C307 O296 1.242 . S
C308 O299 1.261 . S
C308 O300 1.252 . S
C309 C312 1.394 . S
C309 C314 1.370 . S
C309 C315 1.500 . S
C310 C313 1.383 . S
C310 C314 1.395 1_556 S
C311 C312 1.396 1_556 S
C311 C313 1.365 . S
C311 H328 0.929 . S
C312 C309 1.394 . S
C312 C311 1.396 1_554 S
C312 H329 0.930 . S
C313 C310 1.383 . S
C313 C311 1.365 . S
C313 H330 0.931 . S
C314 C309 1.370 . S
C314 C310 1.395 1_554 S
C314 H331 0.930 . S
C315 Gd262 2.805 . S
C315 O297 1.263 . S
C315 O298 1.252 . S
C315 C309 1.500 . S
C316 H278 0.930 . S
C316 C292 1.417 . S
C316 C317 1.329 . S
C317 C287 1.437 . S
C317 H288 0.929 . S
C317 C316 1.329 . S
H318 C291 0.931 . S
C319 O301 1.265 . S
C319 O302 1.242 . S
C320 O305 1.261 . S
C320 O306 1.252 . S
C321 C324 1.394 . S
C321 C326 1.370 . S
C321 C327 1.500 . S
C322 C325 1.383 . S
C322 C326 1.395 . S
C323 C324 1.396 . S
C323 C325 1.365 . S
C323 H332 0.929 . S
C324 C321 1.394 . S
C324 C323 1.396 . S
C324 H333 0.930 . S
C325 C322 1.383 . S
C325 C323 1.365 . S
C325 H334 0.931 . S
C326 C321 1.370 . S
C326 C322 1.395 . S
C326 H335 0.930 . S
C327 Gd263 2.805 . S
C327 O303 1.263 . S
C327 O304 1.252 . S
C327 C321 1.500 . S
H328 C311 0.929 . S
H329 C312 0.930 . S
H330 C313 0.931 . S
H331 C314 0.930 . S
H332 C323 0.929 . S
H333 C324 0.930 . S
H334 C325 0.931 . S
H335 C326 0.930 . S
C336 C338 1.422 . S
C336 C340 1.415 . S
C336 N342 1.369 . S
C337 C338 1.421 . S
C337 C339 1.417 . S
C337 C349 1.422 . S
C338 C336 1.422 . S
C338 C337 1.421 . S
C338 N348 1.359 . S
C339 C337 1.417 . S
C339 C341 1.329 . S
C339 H358 0.930 . S
C340 C336 1.415 . S
C340 C341 1.437 . S
C340 C344 1.413 . S
C341 C339 1.329 . S
C341 C340 1.437 . S
C341 H363 0.929 . S
N342 C336 1.369 . S
N342 C343 1.338 . S
N342 Gd347 2.622 . S
C343 N342 1.338 . S
C343 C345 1.378 . S
C343 H355 0.929 . S
C344 C340 1.413 . S
C344 C345 1.348 . S
C344 H360 0.931 . S
C345 C343 1.378 . S
C345 C344 1.348 . S
C345 H361 0.930 . S
Gd346 N366 2.622 . S
Gd346 N373 2.570 . S
Gd346 O380 2.353 . S
Gd346 O381 2.468 . S
Gd346 O382 2.427 . S
Gd346 O384 2.388 . S
Gd346 O385 2.386 . S
Gd346 O389 2.307 . S
Gd346 C399 2.805 . S
Gd347 N342 2.622 . S
Gd347 N348 2.570 . S
Gd347 O379 2.386 . S
Gd347 O383 2.307 . S
Gd347 O386 2.353 . S
Gd347 O387 2.468 . S
Gd347 O388 2.427 . S
Gd347 O390 2.388 . S
Gd347 C411 2.805 . S
N348 C338 1.359 . S
N348 Gd347 2.570 . S
N348 C350 1.343 . S
C349 C337 1.422 . S
C349 C351 1.321 . S
C349 H357 0.931 . S
C350 N348 1.343 . S
C350 C351 1.390 . S
C350 H352 0.931 . S
C351 C349 1.321 . S
C351 C350 1.390 . S
C351 H353 0.930 . S
H352 C350 0.931 . S
H353 C351 0.930 . S
H354 C377 0.931 . S
H355 C343 0.929 . S
H356 C378 0.930 . S
H357 C349 0.931 . S
H358 C339 0.930 . S
H359 C368 0.929 . S
H360 C344 0.931 . S
H361 C345 0.930 . S
H362 C400 0.930 . S
H363 C341 0.929 . S
H364 C369 0.931 . S
H365 C370 0.930 . S
N366 Gd346 2.622 . S
N366 C367 1.369 . S
N366 C368 1.338 . S
C367 N366 1.369 . S
C367 C371 1.415 . S
C367 C374 1.422 . S
C368 H359 0.929 . S
C368 N366 1.338 . S
C368 C370 1.378 . S
C369 H364 0.931 . S
C369 C370 1.348 . S
C369 C371 1.413 . S
C370 H365 0.930 . S
C370 C368 1.378 . S
C370 C369 1.348 . S
C371 C367 1.415 . S
C371 C369 1.413 . S
C371 C401 1.437 . S
H372 C401 0.929 . S
N373 Gd346 2.570 . S
N373 C374 1.359 . S
N373 C377 1.343 . S
C374 C367 1.422 . S
C374 N373 1.359 . S
C374 C376 1.421 . S
C375 C376 1.422 . S
C375 C378 1.321 . S
C375 H402 0.931 . S
C376 C374 1.421 . S
C376 C375 1.422 . S
C376 C400 1.417 . S
C377 H354 0.931 . S
C377 N373 1.343 . S
C377 C378 1.390 . S
C378 H356 0.930 . S
C378 C375 1.321 . S
C378 C377 1.390 . S
O379 Gd347 2.386 . S
O379 C391 1.265 . S
O380 Gd346 2.353 . S
O380 C391 1.242 . S
O381 Gd346 2.468 . S
O381 C399 1.263 . S
O382 Gd346 2.427 . S
O382 C399 1.252 . S
O383 Gd347 2.307 . S
O383 C392 1.261 . S
O384 Gd346 2.388 . S
O384 C392 1.252 . S
O385 Gd346 2.386 . S
O385 C403 1.265 . S
O386 Gd347 2.353 . S
O386 C403 1.242 . S
O387 Gd347 2.468 . S
O387 C411 1.263 . S
O388 Gd347 2.427 . S
O388 C411 1.252 . S
O389 Gd346 2.307 . S
O389 C404 1.261 . S
O390 Gd347 2.388 . S
O390 C404 1.252 . S
C391 O379 1.265 . S
C391 O380 1.242 . S
C392 O383 1.261 . S
C392 O384 1.252 . S
C393 C396 1.394 . S
C393 C398 1.370 . S
C393 C399 1.500 . S
C394 C397 1.383 . S
C394 C398 1.395 . S
C395 C396 1.396 . S
C395 C397 1.365 . S
C395 H412 0.929 . S
C396 C393 1.394 . S
C396 C395 1.396 . S
C396 H413 0.930 . S
C397 C394 1.383 . S
C397 C395 1.365 . S
C397 H414 0.931 . S
C398 C393 1.370 . S
C398 C394 1.395 . S
C398 H415 0.930 . S
C399 Gd346 2.805 . S
C399 O381 1.263 . S
C399 O382 1.252 . S
C399 C393 1.500 . S
C400 H362 0.930 . S
C400 C376 1.417 . S
C400 C401 1.329 . S
C401 C371 1.437 . S
C401 H372 0.929 . S
C401 C400 1.329 . S
H402 C375 0.931 . S
C403 O385 1.265 . S
C403 O386 1.242 . S
C404 O389 1.261 . S
C404 O390 1.252 . S
C405 C408 1.394 . S
C405 C410 1.370 . S
C405 C411 1.500 . S
C406 C409 1.383 . S
C406 C410 1.395 1_556 S
C407 C408 1.396 1_556 S
C407 C409 1.365 . S
C407 H416 0.929 . S
C408 C405 1.394 . S
C408 C407 1.396 1_554 S
C408 H417 0.930 . S
C409 C406 1.383 . S
C409 C407 1.365 . S
C409 H418 0.931 . S
C410 C405 1.370 . S
C410 C406 1.395 1_554 S
C410 H419 0.930 . S
C411 Gd347 2.805 . S
C411 O387 1.263 . S
C411 O388 1.252 . S
C411 C405 1.500 . S
H412 C395 0.929 . S
H413 C396 0.930 . S
H414 C397 0.931 . S
H415 C398 0.930 . S
H416 C407 0.929 . S
H417 C408 0.930 . S
H418 C409 0.931 . S
H419 C410 0.930 . S
C420 C422 1.422 . S
C420 C424 1.415 . S
C420 N426 1.369 . S
C421 C422 1.421 . S
C421 C423 1.417 . S
C421 C433 1.422 . S
C422 C420 1.422 . S
C422 C421 1.421 . S
C422 N432 1.359 . S
C423 C421 1.417 . S
C423 C425 1.329 . S
C423 H442 0.930 . S
C424 C420 1.415 . S
C424 C425 1.437 . S
C424 C428 1.413 . S
C425 C423 1.329 . S
C425 C424 1.437 . S
C425 H447 0.929 . S
N426 C420 1.369 . S
N426 C427 1.338 . S
N426 Gd431 2.622 . S
C427 N426 1.338 . S
C427 C429 1.378 . S
C427 H439 0.929 . S
C428 C424 1.413 . S
C428 C429 1.348 . S
C428 H444 0.931 . S
C429 C427 1.378 . S
C429 C428 1.348 . S
C429 H445 0.930 . S
Gd430 N450 2.622 . S
Gd430 N457 2.570 . S
Gd430 O464 2.353 . S
Gd430 O465 2.468 . S
Gd430 O466 2.427 . S
Gd430 O468 2.388 . S
Gd430 O469 2.386 . S
Gd430 O473 2.307 . S
Gd430 C483 2.805 . S
Gd431 N426 2.622 . S
Gd431 N432 2.570 . S
Gd431 O463 2.386 . S
Gd431 O467 2.307 . S
Gd431 O470 2.353 . S
Gd431 O471 2.468 . S
Gd431 O472 2.427 . S
Gd431 O474 2.388 . S
Gd431 C495 2.805 . S
N432 C422 1.359 . S
N432 Gd431 2.570 . S
N432 C434 1.343 . S
C433 C421 1.422 . S
C433 C435 1.321 . S
C433 H441 0.931 . S
C434 N432 1.343 . S
C434 C435 1.390 . S
C434 H436 0.931 . S
C435 C433 1.321 . S
C435 C434 1.390 . S
C435 H437 0.930 . S
H436 C434 0.931 . S
H437 C435 0.930 . S
H438 C461 0.931 . S
H439 C427 0.929 . S
H440 C462 0.930 . S
H441 C433 0.931 . S
H442 C423 0.930 . S
H443 C452 0.929 . S
H444 C428 0.931 . S
H445 C429 0.930 . S
H446 C484 0.930 . S
H447 C425 0.929 . S
H448 C453 0.931 . S
H449 C454 0.930 . S
N450 Gd430 2.622 . S
N450 C451 1.369 . S
N450 C452 1.338 . S
C451 N450 1.369 . S
C451 C455 1.415 . S
C451 C458 1.422 . S
C452 H443 0.929 . S
C452 N450 1.338 . S
C452 C454 1.378 . S
C453 H448 0.931 . S
C453 C454 1.348 . S
C453 C455 1.413 . S
C454 H449 0.930 . S
C454 C452 1.378 . S
C454 C453 1.348 . S
C455 C451 1.415 . S
C455 C453 1.413 . S
C455 C485 1.437 . S
H456 C485 0.929 . S
N457 Gd430 2.570 . S
N457 C458 1.359 . S
N457 C461 1.343 . S
C458 C451 1.422 . S
C458 N457 1.359 . S
C458 C460 1.421 . S
C459 C460 1.422 . S
C459 C462 1.321 . S
C459 H486 0.931 . S
C460 C458 1.421 . S
C460 C459 1.422 . S
C460 C484 1.417 . S
C461 H438 0.931 . S
C461 N457 1.343 . S
C461 C462 1.390 . S
C462 H440 0.930 . S
C462 C459 1.321 . S
C462 C461 1.390 . S
O463 Gd431 2.386 . S
O463 C475 1.265 . S
O464 Gd430 2.353 . S
O464 C475 1.242 . S
O465 Gd430 2.468 . S
O465 C483 1.263 . S
O466 Gd430 2.427 . S
O466 C483 1.252 . S
O467 Gd431 2.307 . S
O467 C476 1.261 . S
O468 Gd430 2.388 . S
O468 C476 1.252 . S
O469 Gd430 2.386 . S
O469 C487 1.265 . S
O470 Gd431 2.353 . S
O470 C487 1.242 . S
O471 Gd431 2.468 . S
O471 C495 1.263 . S
O472 Gd431 2.427 . S
O472 C495 1.252 . S
O473 Gd430 2.307 . S
O473 C488 1.261 . S
O474 Gd431 2.388 . S
O474 C488 1.252 . S
C475 O463 1.265 . S
C475 O464 1.242 . S
C476 O467 1.261 . S
C476 O468 1.252 . S
C477 C480 1.394 . S
C477 C482 1.370 . S
C477 C483 1.500 . S
C478 C481 1.383 . S
C478 C482 1.395 . S
C479 C480 1.396 . S
C479 C481 1.365 . S
C479 H496 0.929 . S
C480 C477 1.394 . S
C480 C479 1.396 . S
C480 H497 0.930 . S
C481 C478 1.383 . S
C481 C479 1.365 . S
C481 H498 0.931 . S
C482 C477 1.370 . S
C482 C478 1.395 . S
C482 H499 0.930 . S
C483 Gd430 2.805 . S
C483 O465 1.263 . S
C483 O466 1.252 . S
C483 C477 1.500 . S
C484 H446 0.930 . S
C484 C460 1.417 . S
C484 C485 1.329 . S
C485 C455 1.437 . S
C485 H456 0.929 . S
C485 C484 1.329 . S
H486 C459 0.931 . S
C487 O469 1.265 . S
C487 O470 1.242 . S
C488 O473 1.261 . S
C488 O474 1.252 . S
C489 C492 1.394 . S
C489 C494 1.370 . S
C489 C495 1.500 . S
C490 C493 1.383 . S
C490 C494 1.395 1_554 S
C491 C492 1.396 1_554 S
C491 C493 1.365 . S
C491 H500 0.929 . S
C492 C489 1.394 . S
C492 C491 1.396 1_556 S
C492 H501 0.930 . S
C493 C490 1.383 . S
C493 C491 1.365 . S
C493 H502 0.931 . S
C494 C489 1.370 . S
C494 C490 1.395 1_556 S
C494 H503 0.930 . S
C495 Gd431 2.805 . S
C495 O471 1.263 . S
C495 O472 1.252 . S
C495 C489 1.500 . S
H496 C479 0.929 . S
H497 C480 0.930 . S
H498 C481 0.931 . S
H499 C482 0.930 . S
H500 C491 0.929 . S
H501 C492 0.930 . S
H502 C493 0.931 . S
H503 C494 0.930 . S
C504 C506 1.422 . S
C504 C508 1.415 . S
C504 N510 1.369 . S
C505 C506 1.421 . S
C505 C507 1.417 . S
C505 C517 1.422 . S
C506 C504 1.422 . S
C506 C505 1.421 . S
C506 N516 1.359 . S
C507 C505 1.417 . S
C507 C509 1.329 . S
C507 H526 0.930 . S
C508 C504 1.415 . S
C508 C509 1.437 . S
C508 C512 1.413 . S
C509 C507 1.329 . S
C509 C508 1.437 . S
C509 H531 0.929 . S
N510 C504 1.369 . S
N510 C511 1.338 . S
N510 Gd515 2.622 . S
C511 N510 1.338 . S
C511 C513 1.378 . S
C511 H523 0.929 . S
C512 C508 1.413 . S
C512 C513 1.348 . S
C512 H528 0.931 . S
C513 C511 1.378 . S
C513 C512 1.348 . S
C513 H529 0.930 . S
Gd514 N534 2.622 . S
Gd514 N541 2.570 . S
Gd514 O548 2.353 . S
Gd514 O549 2.468 . S
Gd514 O550 2.427 . S
Gd514 O552 2.388 . S
Gd514 O553 2.386 1_554 S
Gd514 O557 2.307 . S
Gd514 C567 2.805 . S
Gd515 N510 2.622 . S
Gd515 N516 2.570 . S
Gd515 O547 2.386 1_556 S
Gd515 O551 2.307 . S
Gd515 O554 2.353 . S
Gd515 O555 2.468 . S
Gd515 O556 2.427 . S
Gd515 O558 2.388 . S
Gd515 C579 2.805 . S
N516 C506 1.359 . S
N516 Gd515 2.570 . S
N516 C518 1.343 . S
C517 C505 1.422 . S
C517 C519 1.321 . S
C517 H525 0.931 . S
C518 N516 1.343 . S
C518 C519 1.390 . S
C518 H520 0.931 . S
C519 C517 1.321 . S
C519 C518 1.390 . S
C519 H521 0.930 . S
H520 C518 0.931 . S
H521 C519 0.930 . S
H522 C545 0.931 . S
H523 C511 0.929 . S
H524 C546 0.930 . S
H525 C517 0.931 . S
H526 C507 0.930 . S
H527 C536 0.929 . S
H528 C512 0.931 . S
H529 C513 0.930 . S
H530 C568 0.930 . S
H531 C509 0.929 . S
H532 C537 0.931 . S
H533 C538 0.930 . S
N534 Gd514 2.622 . S
N534 C535 1.369 . S
N534 C536 1.338 . S
C535 N534 1.369 . S
C535 C539 1.415 . S
C535 C542 1.422 . S
C536 H527 0.929 . S
C536 N534 1.338 . S
C536 C538 1.378 . S
C537 H532 0.931 . S
C537 C538 1.348 . S
C537 C539 1.413 . S
C538 H533 0.930 . S
C538 C536 1.378 . S
C538 C537 1.348 . S
C539 C535 1.415 . S
C539 C537 1.413 . S
C539 C569 1.437 . S
H540 C569 0.929 . S
N541 Gd514 2.570 . S
N541 C542 1.359 . S
N541 C545 1.343 . S
C542 C535 1.422 . S
C542 N541 1.359 . S
C542 C544 1.421 . S
C543 C544 1.422 . S
C543 C546 1.321 . S
C543 H570 0.931 . S
C544 C542 1.421 . S
C544 C543 1.422 . S
C544 C568 1.417 . S
C545 H522 0.931 . S
C545 N541 1.343 . S
C545 C546 1.390 . S
C546 H524 0.930 . S
C546 C543 1.321 . S
C546 C545 1.390 . S
O547 Gd515 2.386 1_554 S
O547 C559 1.265 . S
O548 Gd514 2.353 . S
O548 C559 1.242 . S
O549 Gd514 2.468 . S
O549 C567 1.263 . S
O550 Gd514 2.427 . S
O550 C567 1.252 . S
O551 Gd515 2.307 . S
O551 C560 1.261 . S
O552 Gd514 2.388 . S
O552 C560 1.252 1_554 S
O553 Gd514 2.386 1_556 S
O553 C571 1.265 . S
O554 Gd515 2.353 . S
O554 C571 1.242 . S
O555 Gd515 2.468 . S
O555 C579 1.263 . S
O556 Gd515 2.427 . S
O556 C579 1.252 . S
O557 Gd514 2.307 . S
O557 C572 1.261 . S
O558 Gd515 2.388 . S
O558 C572 1.252 1_556 S
C559 O547 1.265 . S
C559 O548 1.242 . S
C560 O551 1.261 . S
C560 O552 1.252 1_556 S
C561 C564 1.394 . S
C561 C566 1.370 . S
C561 C567 1.500 . S
C562 C565 1.383 . S
C562 C566 1.395 . S
C563 C564 1.396 . S
C563 C565 1.365 . S
C563 H580 0.929 . S
C564 C561 1.394 . S
C564 C563 1.396 . S
C564 H581 0.930 . S
C565 C562 1.383 . S
C565 C563 1.365 . S
C565 H582 0.931 . S
C566 C561 1.370 . S
C566 C562 1.395 . S
C566 H583 0.930 . S
C567 Gd514 2.805 . S
C567 O549 1.263 . S
C567 O550 1.252 . S
C567 C561 1.500 . S
C568 H530 0.930 . S
C568 C544 1.417 . S
C568 C569 1.329 . S
C569 C539 1.437 . S
C569 H540 0.929 . S
C569 C568 1.329 . S
H570 C543 0.931 . S
C571 O553 1.265 . S
C571 O554 1.242 . S
C572 O557 1.261 . S
C572 O558 1.252 1_554 S
C573 C576 1.394 . S
C573 C578 1.370 . S
C573 C579 1.500 . S
C574 C577 1.383 . S
C574 C578 1.395 . S
C575 C576 1.396 . S
C575 C577 1.365 . S
C575 H584 0.929 . S
C576 C573 1.394 . S
C576 C575 1.396 . S
C576 H585 0.930 . S
C577 C574 1.383 . S
C577 C575 1.365 . S
C577 H586 0.931 . S
C578 C573 1.370 . S
C578 C574 1.395 . S
C578 H587 0.930 . S
C579 Gd515 2.805 . S
C579 O555 1.263 . S
C579 O556 1.252 . S
C579 C573 1.500 . S
H580 C563 0.929 . S
H581 C564 0.930 . S
H582 C565 0.931 . S
H583 C566 0.930 . S
H584 C575 0.929 . S
H585 C576 0.930 . S
H586 C577 0.931 . S
H587 C578 0.930 . S
C588 C590 1.422 . S
C588 C592 1.415 . S
C588 N594 1.369 1_455 S
C589 C590 1.421 . S
C589 C591 1.417 . S
C589 C601 1.422 . S
C590 C588 1.422 . S
C590 C589 1.421 . S
C590 N600 1.359 . S
C591 C589 1.417 . S
C591 C593 1.329 . S
C591 H610 0.930 . S
C592 C588 1.415 . S
C592 C593 1.437 . S
C592 C596 1.413 1_455 S
C593 C591 1.329 . S
C593 C592 1.437 . S
C593 H615 0.929 . S
N594 C588 1.369 1_655 S
N594 C595 1.338 . S
N594 Gd599 2.623 . S
C595 N594 1.338 . S
C595 C597 1.378 . S
C595 H607 0.929 . S
C596 C592 1.413 1_655 S
C596 C597 1.348 . S
C596 H612 0.931 . S
C597 C595 1.378 . S
C597 C596 1.348 . S
C597 H613 0.930 . S
Gd598 N618 2.623 . S
Gd598 N625 2.541 1_455 S
Gd598 O632 2.374 . S
Gd598 O633 2.463 1_455 S
Gd598 O634 2.446 . S
Gd598 O636 2.414 . S
Gd598 O637 2.368 1_455 S
Gd598 O641 2.285 1_455 S
Gd598 C651 2.813 . S
Gd599 N594 2.623 . S
Gd599 N600 2.549 1_655 S
Gd599 O631 2.373 1_655 S
Gd599 O635 2.291 1_655 S
Gd599 O638 2.368 . S
Gd599 O639 2.464 1_655 S
Gd599 O640 2.440 . S
Gd599 O642 2.407 . S
Gd599 C663 2.810 . S
N600 C590 1.359 . S
N600 Gd599 2.549 1_455 S
N600 C602 1.343 . S
C601 C589 1.422 . S
C601 C603 1.321 . S
C601 H609 0.931 . S
C602 N600 1.343 . S
C602 C603 1.390 . S
C602 H604 0.931 . S
C603 C601 1.321 . S
C603 C602 1.390 . S
C603 H605 0.930 . S
H604 C602 0.931 . S
H605 C603 0.930 . S
H606 C629 0.931 . S
H607 C595 0.929 . S
H608 C630 0.930 . S
H609 C601 0.931 . S
H610 C591 0.930 . S
H611 C620 0.929 . S
H612 C596 0.931 . S
H613 C597 0.930 . S
H614 C652 0.930 . S
H615 C593 0.929 . S
H616 C621 0.931 . S
H617 C622 0.930 . S
N618 Gd598 2.623 . S
N618 C619 1.369 1_455 S
N618 C620 1.338 . S
C619 N618 1.369 1_655 S
C619 C623 1.415 . S
C619 C626 1.422 . S
C620 H611 0.929 . S
C620 N618 1.338 . S
C620 C622 1.378 . S
C621 H616 0.931 . S
C621 C622 1.348 . S
C621 C623 1.413 1_455 S
C622 H617 0.930 . S
C622 C620 1.378 . S
C622 C621 1.348 . S
C623 C619 1.415 . S
C623 C621 1.413 1_655 S
C623 C653 1.437 . S
H624 C653 0.929 . S
N625 Gd598 2.541 1_655 S
N625 C626 1.359 . S
N625 C629 1.343 . S
C626 C619 1.422 . S
C626 N625 1.359 . S
C626 C628 1.421 . S
C627 C628 1.422 . S
C627 C630 1.321 . S
C627 H654 0.931 . S
C628 C626 1.421 . S
C628 C627 1.422 . S
C628 C652 1.417 . S
C629 H606 0.931 . S
C629 N625 1.343 . S
C629 C630 1.390 . S
C630 H608 0.930 . S
C630 C627 1.321 . S
C630 C629 1.390 . S
O631 Gd599 2.373 1_455 S
O631 C643 1.265 . S
O632 Gd598 2.374 . S
O632 C643 1.242 . S
O633 Gd598 2.463 1_655 S
O633 C651 1.263 1_655 S
O634 Gd598 2.446 . S
O634 C651 1.252 . S
O635 Gd599 2.291 1_455 S
O635 C644 1.261 . S
O636 Gd598 2.414 . S
O636 C644 1.252 . S
O637 Gd598 2.368 1_655 S
O637 C655 1.265 . S
O638 Gd599 2.368 . S
O638 C655 1.242 . S
O639 Gd599 2.464 1_455 S
O639 C663 1.263 1_455 S
O640 Gd599 2.440 . S
O640 C663 1.252 . S
O641 Gd598 2.285 1_655 S
O641 C656 1.261 . S
O642 Gd599 2.407 . S
O642 C656 1.252 . S
C643 O631 1.265 . S
C643 O632 1.242 . S
C644 O635 1.261 . S
C644 O636 1.252 . S
C645 C648 1.394 . S
C645 C650 1.370 . S
C645 C651 1.500 . S
C646 C649 1.383 . S
C646 C650 1.395 . S
C647 C648 1.396 . S
C647 C649 1.365 . S
C647 H664 0.929 . S
C648 C645 1.394 . S
C648 C647 1.396 . S
C648 H665 0.930 . S
C649 C646 1.383 . S
C649 C647 1.365 . S
C649 H666 0.931 . S
C650 C645 1.370 . S
C650 C646 1.395 . S
C650 H667 0.930 1_455 S
C651 Gd598 2.813 . S
C651 O633 1.263 1_455 S
C651 O634 1.252 . S
C651 C645 1.500 . S
C652 H614 0.930 . S
C652 C628 1.417 . S
C652 C653 1.329 . S
C653 C623 1.437 . S
C653 H624 0.929 . S
C653 C652 1.329 . S
H654 C627 0.931 . S
C655 O637 1.265 . S
C655 O638 1.242 . S
C656 O641 1.261 . S
C656 O642 1.252 . S
C657 C660 1.394 . S
C657 C662 1.370 . S
C657 C663 1.500 . S
C658 C661 1.383 . S
C658 C662 1.395 . S
C659 C660 1.396 . S
C659 C661 1.365 . S
C659 H668 0.929 . S
C660 C657 1.394 . S
C660 C659 1.396 . S
C660 H669 0.930 . S
C661 C658 1.383 . S
C661 C659 1.365 . S
C661 H670 0.931 . S
C662 C657 1.370 . S
C662 C658 1.395 . S
C662 H671 0.930 1_655 S
C663 Gd599 2.810 . S
C663 O639 1.263 1_655 S
C663 O640 1.252 . S
C663 C657 1.500 . S
H664 C647 0.929 . S
H665 C648 0.930 . S
H666 C649 0.931 . S
H667 C650 0.930 1_655 S
H668 C659 0.929 . S
H669 C660 0.930 . S
H670 C661 0.931 . S
H671 C662 0.930 1_455 S
C672 C673 1.349 . S
C672 C674 1.327 . S
C672 H697 0.950 . S
C673 C672 1.349 . S
C673 C689 1.349 . S
C674 C672 1.327 . S
C674 C693 1.429 . S
C674 H698 0.950 . S
C675 C692 1.574 . S
C675 C694 1.368 . S
C675 H699 0.949 . S
H676 C680 0.949 . S
C677 C678 1.349 . S
C677 C679 1.327 . S
C677 H700 0.950 . S
C678 C677 1.349 . S
C678 C690 1.349 . S
C679 C677 1.327 . S
C679 C695 1.429 . S
C679 H701 0.950 . S
C680 H676 0.949 . S
C680 C688 1.574 . S
C680 C696 1.368 . S
H681 C689 0.950 . S
H682 C687 0.950 . S
H683 C688 0.949 . S
H684 C690 0.950 . S
H685 C691 0.950 . S
H686 C692 0.949 . S
C687 H682 0.950 . S
C687 C689 1.327 . S
C687 C693 1.429 . S
C688 C680 1.574 . S
C688 H683 0.949 . S
C688 C694 1.368 . S
C689 C673 1.349 . S
C689 H681 0.950 . S
C689 C687 1.327 . S
C690 C678 1.349 . S
C690 H684 0.950 . S
C690 C691 1.327 . S
C691 H685 0.950 . S
C691 C690 1.327 . S
C691 C695 1.429 . S
C692 C675 1.574 . S
C692 H686 0.949 . S
C692 C696 1.368 . S
C693 C674 1.429 . S
C693 C687 1.429 . S
C693 C694 1.523 . S
C694 C675 1.368 . S
C694 C688 1.368 . S
C694 C693 1.523 . S
C695 C679 1.429 . S
C695 C691 1.429 . S
C695 C696 1.523 . S
C696 C680 1.368 . S
C696 C692 1.368 . S
C696 C695 1.523 . S
H697 C672 0.950 . S
H698 C674 0.950 . S
H699 C675 0.949 . S
H700 C677 0.950 . S
H701 C679 0.950 . S
C702 C703 1.349 . S
C702 C704 1.327 . S
C702 H727 0.950 . S
C703 C702 1.349 . S
C703 C719 1.349 . S
C704 C702 1.327 . S
C704 C723 1.429 . S
C704 H728 0.950 . S
C705 C722 1.574 . S
C705 C724 1.368 . S
C705 H729 0.949 . S
H706 C710 0.949 . S
C707 C708 1.349 . S
C707 C709 1.327 . S
C707 H730 0.950 . S
C708 C707 1.349 . S
C708 C720 1.349 . S
C709 C707 1.327 . S
C709 C725 1.429 . S
C709 H731 0.950 . S
C710 H706 0.949 . S
C710 C718 1.574 . S
C710 C726 1.368 . S
H711 C719 0.950 . S
H712 C717 0.950 . S
H713 C718 0.949 . S
H714 C720 0.950 . S
H715 C721 0.950 . S
H716 C722 0.949 . S
C717 H712 0.950 . S
C717 C719 1.327 . S
C717 C723 1.429 . S
C718 C710 1.574 . S
C718 H713 0.949 . S
C718 C724 1.368 . S
C719 C703 1.349 . S
C719 H711 0.950 . S
C719 C717 1.327 . S
C720 C708 1.349 . S
C720 H714 0.950 . S
C720 C721 1.327 . S
C721 H715 0.950 . S
C721 C720 1.327 . S
C721 C725 1.429 . S
C722 C705 1.574 . S
C722 H716 0.949 . S
C722 C726 1.368 . S
C723 C704 1.429 . S
C723 C717 1.429 . S
C723 C724 1.523 . S
C724 C705 1.368 . S
C724 C718 1.368 . S
C724 C723 1.523 . S
C725 C709 1.429 . S
C725 C721 1.429 . S
C725 C726 1.523 . S
C726 C710 1.368 . S
C726 C722 1.368 . S
C726 C725 1.523 . S
H727 C702 0.950 . S
H728 C704 0.950 . S
H729 C705 0.949 . S
H730 C707 0.950 . S
H731 C709 0.950 . S
C732 C733 1.349 . S
C732 C734 1.327 . S
C732 H757 0.950 . S
C733 C732 1.349 . S
C733 C749 1.349 . S
C734 C732 1.327 . S
C734 C753 1.429 . S
C734 H758 0.950 . S
C735 C752 1.574 . S
C735 C754 1.368 . S
C735 H759 0.949 . S
H736 C740 0.949 . S
C737 C738 1.349 . S
C737 C739 1.327 . S
C737 H760 0.950 . S
C738 C737 1.349 . S
C738 C750 1.349 . S
C739 C737 1.327 . S
C739 C755 1.429 . S
C739 H761 0.950 . S
C740 H736 0.949 . S
C740 C748 1.574 . S
C740 C756 1.368 . S
H741 C749 0.950 . S
H742 C747 0.950 . S
H743 C748 0.949 . S
H744 C750 0.950 . S
H745 C751 0.950 . S
H746 C752 0.949 . S
C747 H742 0.950 . S
C747 C749 1.327 . S
C747 C753 1.429 . S
C748 C740 1.574 . S
C748 H743 0.949 . S
C748 C754 1.368 . S
C749 C733 1.349 . S
C749 H741 0.950 . S
C749 C747 1.327 . S
C750 C738 1.349 . S
C750 H744 0.950 . S
C750 C751 1.327 . S
C751 H745 0.950 . S
C751 C750 1.327 . S
C751 C755 1.429 . S
C752 C735 1.574 . S
C752 H746 0.949 . S
C752 C756 1.368 . S
C753 C734 1.429 . S
C753 C747 1.429 . S
C753 C754 1.523 . S
C754 C735 1.368 . S
C754 C748 1.368 . S
C754 C753 1.523 . S
C755 C739 1.429 . S
C755 C751 1.429 . S
C755 C756 1.523 . S
C756 C740 1.368 . S
C756 C752 1.368 . S
C756 C755 1.523 . S
H757 C732 0.950 . S
H758 C734 0.950 . S
H759 C735 0.949 . S
H760 C737 0.950 . S
H761 C739 0.950 . S
C762 C763 1.349 . S
C762 C764 1.327 . S
C762 H787 0.950 . S
C763 C762 1.349 . S
C763 C779 1.349 . S
C764 C762 1.327 . S
C764 C783 1.429 . S
C764 H788 0.950 . S
C765 C782 1.574 . S
C765 C784 1.368 . S
C765 H789 0.949 . S
H766 C770 0.949 . S
C767 C768 1.349 . S
C767 C769 1.327 . S
C767 H790 0.950 . S
C768 C767 1.349 . S
C768 C780 1.349 . S
C769 C767 1.327 . S
C769 C785 1.429 . S
C769 H791 0.950 . S
C770 H766 0.949 . S
C770 C778 1.574 . S
C770 C786 1.368 . S
H771 C779 0.950 . S
H772 C777 0.950 . S
H773 C778 0.949 . S
H774 C780 0.950 . S
H775 C781 0.950 . S
H776 C782 0.949 . S
C777 H772 0.950 . S
C777 C779 1.327 . S
C777 C783 1.429 . S
C778 C770 1.574 . S
C778 H773 0.949 . S
C778 C784 1.368 . S
C779 C763 1.349 . S
C779 H771 0.950 . S
C779 C777 1.327 . S
C780 C768 1.349 . S
C780 H774 0.950 . S
C780 C781 1.327 . S
C781 H775 0.950 . S
C781 C780 1.327 . S
C781 C785 1.429 . S
C782 C765 1.574 . S
C782 H776 0.949 . S
C782 C786 1.368 . S
C783 C764 1.429 . S
C783 C777 1.429 . S
C783 C784 1.523 . S
C784 C765 1.368 . S
C784 C778 1.368 . S
C784 C783 1.523 . S
C785 C769 1.429 . S
C785 C781 1.429 . S
C785 C786 1.523 . S
C786 C770 1.368 . S
C786 C782 1.368 . S
C786 C785 1.523 . S
H787 C762 0.950 . S
H788 C764 0.950 . S
H789 C765 0.949 . S
H790 C767 0.950 . S
H791 C769 0.950 . S
C792 C793 1.349 . S
C792 C794 1.327 . S
C792 H817 0.950 . S
C793 C792 1.349 . S
C793 C809 1.349 . S
C794 C792 1.327 . S
C794 C813 1.429 . S
C794 H818 0.950 . S
C795 C812 1.574 . S
C795 C814 1.368 . S
C795 H819 0.949 . S
H796 C800 0.949 . S
C797 C798 1.349 . S
C797 C799 1.327 . S
C797 H820 0.950 . S
C798 C797 1.349 . S
C798 C810 1.349 . S
C799 C797 1.327 . S
C799 C815 1.429 . S
C799 H821 0.950 . S
C800 H796 0.949 . S
C800 C808 1.574 . S
C800 C816 1.368 . S
H801 C809 0.950 . S
H802 C807 0.950 . S
H803 C808 0.949 . S
H804 C810 0.950 . S
H805 C811 0.950 . S
H806 C812 0.949 . S
C807 H802 0.950 . S
C807 C809 1.327 . S
C807 C813 1.429 . S
C808 C800 1.574 . S
C808 H803 0.949 . S
C808 C814 1.368 . S
C809 C793 1.349 . S
C809 H801 0.950 . S
C809 C807 1.327 . S
C810 C798 1.349 . S
C810 H804 0.950 . S
C810 C811 1.327 . S
C811 H805 0.950 . S
C811 C810 1.327 . S
C811 C815 1.429 . S
C812 C795 1.574 . S
C812 H806 0.949 . S
C812 C816 1.368 . S
C813 C794 1.429 . S
C813 C807 1.429 . S
C813 C814 1.523 . S
C814 C795 1.368 . S
C814 C808 1.368 . S
C814 C813 1.523 . S
C815 C799 1.429 . S
C815 C811 1.429 . S
C815 C816 1.523 . S
C816 C800 1.368 . S
C816 C812 1.368 . S
C816 C815 1.523 . S
H817 C792 0.950 . S
H818 C794 0.950 . S
H819 C795 0.949 . S
H820 C797 0.950 . S
H821 C799 0.950 . S
C822 C823 1.349 . S
C822 C824 1.327 . S
C822 H847 0.950 . S
C823 C822 1.349 . S
C823 C839 1.349 . S
C824 C822 1.327 . S
C824 C843 1.429 . S
C824 H848 0.950 . S
C825 C842 1.574 . S
C825 C844 1.368 . S
C825 H849 0.949 . S
H826 C830 0.949 . S
C827 C828 1.349 . S
C827 C829 1.327 . S
C827 H850 0.950 . S
C828 C827 1.349 . S
C828 C840 1.349 . S
C829 C827 1.327 . S
C829 C845 1.429 . S
C829 H851 0.950 . S
C830 H826 0.949 . S
C830 C838 1.574 . S
C830 C846 1.368 . S
H831 C839 0.950 . S
H832 C837 0.950 . S
H833 C838 0.949 . S
H834 C840 0.950 . S
H835 C841 0.950 . S
H836 C842 0.949 . S
C837 H832 0.950 . S
C837 C839 1.327 . S
C837 C843 1.429 . S
C838 C830 1.574 . S
C838 H833 0.949 . S
C838 C844 1.368 . S
C839 C823 1.349 . S
C839 H831 0.950 . S
C839 C837 1.327 . S
C840 C828 1.349 . S
C840 H834 0.950 . S
C840 C841 1.327 . S
C841 H835 0.950 . S
C841 C840 1.327 . S
C841 C845 1.429 . S
C842 C825 1.574 . S
C842 H836 0.949 . S
C842 C846 1.368 . S
C843 C824 1.429 . S
C843 C837 1.429 . S
C843 C844 1.523 . S
C844 C825 1.368 . S
C844 C838 1.368 . S
C844 C843 1.523 . S
C845 C829 1.429 . S
C845 C841 1.429 . S
C845 C846 1.523 . S
C846 C830 1.368 . S
C846 C842 1.368 . S
C846 C845 1.523 . S
H847 C822 0.950 . S
H848 C824 0.950 . S
H849 C825 0.949 . S
H850 C827 0.950 . S
H851 C829 0.950 . S
C852 C853 1.349 . S
C852 C854 1.327 . S
C852 H877 0.950 . S
C853 C852 1.349 . S
C853 C869 1.349 . S
C854 C852 1.327 . S
C854 C873 1.429 . S
C854 H878 0.950 . S
C855 C872 1.574 . S
C855 C874 1.368 . S
C855 H879 0.949 . S
H856 C860 0.949 . S
C857 C858 1.349 . S
C857 C859 1.327 . S
C857 H880 0.950 1_554 S
C858 C857 1.349 . S
C858 C870 1.349 . S
C859 C857 1.327 . S
C859 C875 1.429 . S
C859 H881 0.950 . S
C860 H856 0.949 . S
C860 C868 1.574 . S
C860 C876 1.368 . S
H861 C869 0.950 . S
H862 C867 0.950 . S
H863 C868 0.949 . S
H864 C870 0.950 . S
H865 C871 0.950 . S
H866 C872 0.949 . S
C867 H862 0.950 . S
C867 C869 1.327 . S
C867 C873 1.429 . S
C868 C860 1.574 . S
C868 H863 0.949 . S
C868 C874 1.368 . S
C869 C853 1.349 . S
C869 H861 0.950 . S
C869 C867 1.327 . S
C870 C858 1.349 . S
C870 H864 0.950 . S
C870 C871 1.327 . S
C871 H865 0.950 . S
C871 C870 1.327 . S
C871 C875 1.429 . S
C872 C855 1.574 . S
C872 H866 0.949 . S
C872 C876 1.368 . S
C873 C854 1.429 . S
C873 C867 1.429 . S
C873 C874 1.523 . S
C874 C855 1.368 . S
C874 C868 1.368 . S
C874 C873 1.523 . S
C875 C859 1.429 . S
C875 C871 1.429 . S
C875 C876 1.523 . S
C876 C860 1.368 . S
C876 C872 1.368 . S
C876 C875 1.523 . S
H877 C852 0.950 . S
H878 C854 0.950 . S
H879 C855 0.949 . S
H880 C857 0.950 1_556 S
H881 C859 0.950 . S
C882 C883 1.349 . S
C882 C884 1.327 . S
C882 H907 0.950 . S
C883 C882 1.349 . S
C883 C899 1.349 . S
C884 C882 1.327 . S
C884 C903 1.429 . S
C884 H908 0.950 . S
C885 C902 1.574 . S
C885 C904 1.368 . S
C885 H909 0.949 . S
H886 C890 0.949 . S
C887 C888 1.349 . S
C887 C889 1.327 . S
C887 H910 0.950 . S
C888 C887 1.349 . S
C888 C900 1.349 . S
C889 C887 1.327 . S
C889 C905 1.429 . S
C889 H911 0.950 . S
C890 H886 0.949 . S
C890 C898 1.574 . S
C890 C906 1.368 . S
H891 C899 0.950 . S
H892 C897 0.950 . S
H893 C898 0.949 . S
H894 C900 0.950 . S
H895 C901 0.950 . S
H896 C902 0.949 . S
C897 H892 0.950 . S
C897 C899 1.327 . S
C897 C903 1.429 . S
C898 C890 1.574 . S
C898 H893 0.949 . S
C898 C904 1.368 . S
C899 C883 1.349 . S
C899 H891 0.950 . S
C899 C897 1.327 . S
C900 C888 1.349 . S
C900 H894 0.950 . S
C900 C901 1.327 . S
C901 H895 0.950 . S
C901 C900 1.327 . S
C901 C905 1.429 . S
C902 C885 1.574 . S
C902 H896 0.949 . S
C902 C906 1.368 . S
C903 C884 1.429 . S
C903 C897 1.429 . S
C903 C904 1.523 . S
C904 C885 1.368 . S
C904 C898 1.368 . S
C904 C903 1.523 . S
C905 C889 1.429 . S
C905 C901 1.429 . S
C905 C906 1.523 . S
C906 C890 1.368 . S
C906 C902 1.368 . S
C906 C905 1.523 . S
H907 C882 0.950 . S
H908 C884 0.950 . S
H909 C885 0.949 . S
H910 C887 0.950 . S
H911 C889 0.950 . S
C912 C913 1.349 . S
C912 C914 1.327 . S
C912 H937 0.950 . S
C913 C912 1.349 . S
C913 C929 1.349 . S
C914 C912 1.327 . S
C914 C933 1.429 . S
C914 H938 0.950 . S
C915 C932 1.574 . S
C915 C934 1.368 . S
C915 H939 0.949 . S
H916 C920 0.949 . S
C917 C918 1.349 . S
C917 C919 1.327 . S
C917 H940 0.950 . S
C918 C917 1.349 . S
C918 C930 1.349 . S
C919 C917 1.327 . S
C919 C935 1.429 . S
C919 H941 0.950 . S
C920 H916 0.949 . S
C920 C928 1.574 . S
C920 C936 1.368 . S
H921 C929 0.950 . S
H922 C927 0.950 . S
H923 C928 0.949 . S
H924 C930 0.950 . S
H925 C931 0.950 . S
H926 C932 0.949 . S
C927 H922 0.950 . S
C927 C929 1.327 . S
C927 C933 1.429 . S
C928 C920 1.574 . S
C928 H923 0.949 . S
C928 C934 1.368 . S
C929 C913 1.349 . S
C929 H921 0.950 . S
C929 C927 1.327 . S
C930 C918 1.349 . S
C930 H924 0.950 . S
C930 C931 1.327 . S
C931 H925 0.950 . S
C931 C930 1.327 . S
C931 C935 1.429 . S
C932 C915 1.574 . S
C932 H926 0.949 . S
C932 C936 1.368 . S
C933 C914 1.429 . S
C933 C927 1.429 . S
C933 C934 1.523 . S
C934 C915 1.368 . S
C934 C928 1.368 . S
C934 C933 1.523 . S
C935 C919 1.429 . S
C935 C931 1.429 . S
C935 C936 1.523 . S
C936 C920 1.368 . S
C936 C932 1.368 . S
C936 C935 1.523 . S
H937 C912 0.950 . S
H938 C914 0.950 . S
H939 C915 0.949 . S
H940 C917 0.950 . S
H941 C919 0.950 . S
C942 C943 1.349 . S
C942 C944 1.327 . S
C942 H967 0.950 . S
C943 C942 1.349 . S
C943 C959 1.349 . S
C944 C942 1.327 . S
C944 C963 1.429 . S
C944 H968 0.950 . S
C945 C962 1.574 . S
C945 C964 1.368 . S
C945 H969 0.949 . S
H946 C950 0.949 . S
C947 C948 1.349 . S
C947 C949 1.327 . S
C947 H970 0.950 . S
C948 C947 1.349 . S
C948 C960 1.349 . S
C949 C947 1.327 . S
C949 C965 1.429 . S
C949 H971 0.950 . S
C950 H946 0.949 . S
C950 C958 1.574 . S
C950 C966 1.368 . S
H951 C959 0.950 . S
H952 C957 0.950 . S
H953 C958 0.949 . S
H954 C960 0.950 . S
H955 C961 0.950 . S
H956 C962 0.949 . S
C957 H952 0.950 . S
C957 C959 1.327 . S
C957 C963 1.429 . S
C958 C950 1.574 . S
C958 H953 0.949 . S
C958 C964 1.368 . S
C959 C943 1.349 . S
C959 H951 0.950 . S
C959 C957 1.327 . S
C960 C948 1.349 . S
C960 H954 0.950 . S
C960 C961 1.327 . S
C961 H955 0.950 . S
C961 C960 1.327 . S
C961 C965 1.429 . S
C962 C945 1.574 . S
C962 H956 0.949 . S
C962 C966 1.368 . S
C963 C944 1.429 . S
C963 C957 1.429 . S
C963 C964 1.523 . S
C964 C945 1.368 . S
C964 C958 1.368 . S
C964 C963 1.523 . S
C965 C949 1.429 . S
C965 C961 1.429 . S
C965 C966 1.523 . S
C966 C950 1.368 . S
C966 C962 1.368 . S
C966 C965 1.523 . S
H967 C942 0.950 . S
H968 C944 0.950 . S
H969 C945 0.949 . S
H970 C947 0.950 . S
H971 C949 0.950 . S
C972 C973 1.349 . S
C972 C974 1.327 . S
C972 H997 0.950 . S
C973 C972 1.349 . S
C973 C989 1.349 . S
C974 C972 1.327 . S
C974 C993 1.429 . S
C974 H998 0.950 . S
C975 C992 1.574 . S
C975 C994 1.368 . S
C975 H999 0.949 . S
H976 C980 0.949 . S
C977 C978 1.349 . S
C977 C979 1.327 . S
C977 H1000 0.950 . S
C978 C977 1.349 . S
C978 C990 1.349 . S
C979 C977 1.327 . S
C979 C995 1.429 . S
C979 H1001 0.950 . S
C980 H976 0.949 . S
C980 C988 1.574 . S
C980 C996 1.368 . S
H981 C989 0.950 . S
H982 C987 0.950 . S
H983 C988 0.949 . S
H984 C990 0.950 . S
H985 C991 0.950 . S
H986 C992 0.949 . S
C987 H982 0.950 . S
C987 C989 1.327 . S
C987 C993 1.429 . S
C988 C980 1.574 . S
C988 H983 0.949 . S
C988 C994 1.368 . S
C989 C973 1.349 . S
C989 H981 0.950 . S
C989 C987 1.327 . S
C990 C978 1.349 . S
C990 H984 0.950 . S
C990 C991 1.327 . S
C991 H985 0.950 . S
C991 C990 1.327 . S
C991 C995 1.429 . S
C992 C975 1.574 . S
C992 H986 0.949 . S
C992 C996 1.368 . S
C993 C974 1.429 . S
C993 C987 1.429 . S
C993 C994 1.523 . S
C994 C975 1.368 . S
C994 C988 1.368 . S
C994 C993 1.523 . S
C995 C979 1.429 . S
C995 C991 1.429 . S
C995 C996 1.523 . S
C996 C980 1.368 . S
C996 C992 1.368 . S
C996 C995 1.523 . S
H997 C972 0.950 . S
H998 C974 0.950 . S
H999 C975 0.949 . S
H1000 C977 0.950 . S
H1001 C979 0.950 . S
C1002 C1003 1.349 . S
C1002 C1004 1.327 . S
C1002 H1027 0.950 . S
C1003 C1002 1.349 . S
C1003 C1019 1.349 . S
C1004 C1002 1.327 . S
C1004 C1023 1.429 . S
C1004 H1028 0.950 . S
C1005 C1022 1.574 . S
C1005 C1024 1.368 . S
C1005 H1029 0.949 . S
H1006 C1010 0.949 . S
C1007 C1008 1.349 . S
C1007 C1009 1.327 . S
C1007 H1030 0.950 . S
C1008 C1007 1.349 . S
C1008 C1020 1.349 . S
C1009 C1007 1.327 . S
C1009 C1025 1.429 . S
C1009 H1031 0.950 . S
C1010 H1006 0.949 . S
C1010 C1018 1.574 . S
C1010 C1026 1.368 . S
H1011 C1019 0.950 . S
H1012 C1017 0.950 . S
H1013 C1018 0.949 . S
H1014 C1020 0.950 . S
H1015 C1021 0.950 . S
H1016 C1022 0.949 . S
C1017 H1012 0.950 . S
C1017 C1019 1.327 . S
C1017 C1023 1.429 . S
C1018 C1010 1.574 . S
C1018 H1013 0.949 . S
C1018 C1024 1.368 . S
C1019 C1003 1.349 . S
C1019 H1011 0.950 . S
C1019 C1017 1.327 . S
C1020 C1008 1.349 . S
C1020 H1014 0.950 . S
C1020 C1021 1.327 . S
C1021 H1015 0.950 . S
C1021 C1020 1.327 . S
C1021 C1025 1.429 . S
C1022 C1005 1.574 . S
C1022 H1016 0.949 . S
C1022 C1026 1.368 . S
C1023 C1004 1.429 . S
C1023 C1017 1.429 . S
C1023 C1024 1.523 . S
C1024 C1005 1.368 . S
C1024 C1018 1.368 . S
C1024 C1023 1.523 . S
C1025 C1009 1.429 . S
C1025 C1021 1.429 . S
C1025 C1026 1.523 . S
C1026 C1010 1.368 . S
C1026 C1022 1.368 . S
C1026 C1025 1.523 . S
H1027 C1002 0.950 . S
H1028 C1004 0.950 . S
H1029 C1005 0.949 . S
H1030 C1007 0.950 . S
H1031 C1009 0.950 . S
C1032 C1033 1.349 . S
C1032 C1034 1.327 . S
C1032 H1057 0.950 . S
C1033 C1032 1.349 . S
C1033 C1049 1.349 . S
C1034 C1032 1.327 . S
C1034 C1053 1.429 . S
C1034 H1058 0.950 . S
C1035 C1052 1.574 . S
C1035 C1054 1.368 . S
C1035 H1059 0.949 . S
H1036 C1040 0.949 . S
C1037 C1038 1.349 . S
C1037 C1039 1.327 . S
C1037 H1060 0.950 . S
C1038 C1037 1.349 . S
C1038 C1050 1.349 . S
C1039 C1037 1.327 . S
C1039 C1055 1.429 . S
C1039 H1061 0.950 . S
C1040 H1036 0.949 . S
C1040 C1048 1.574 . S
C1040 C1056 1.368 . S
H1041 C1049 0.950 . S
H1042 C1047 0.950 . S
H1043 C1048 0.949 . S
H1044 C1050 0.950 . S
H1045 C1051 0.950 . S
H1046 C1052 0.949 . S
C1047 H1042 0.950 . S
C1047 C1049 1.327 . S
C1047 C1053 1.429 . S
C1048 C1040 1.574 . S
C1048 H1043 0.949 . S
C1048 C1054 1.368 . S
C1049 C1033 1.349 . S
C1049 H1041 0.950 . S
C1049 C1047 1.327 . S
C1050 C1038 1.349 . S
C1050 H1044 0.950 . S
C1050 C1051 1.327 . S
C1051 H1045 0.950 . S
C1051 C1050 1.327 . S
C1051 C1055 1.429 . S
C1052 C1035 1.574 . S
C1052 H1046 0.949 . S
C1052 C1056 1.368 . S
C1053 C1034 1.429 . S
C1053 C1047 1.429 . S
C1053 C1054 1.523 . S
C1054 C1035 1.368 . S
C1054 C1048 1.368 . S
C1054 C1053 1.523 . S
C1055 C1039 1.429 . S
C1055 C1051 1.429 . S
C1055 C1056 1.523 . S
C1056 C1040 1.368 . S
C1056 C1052 1.368 . S
C1056 C1055 1.523 . S
H1057 C1032 0.950 . S
H1058 C1034 0.950 . S
H1059 C1035 0.949 . S
H1060 C1037 0.950 . S
H1061 C1039 0.950 . S
C1062 C1063 1.349 . S
C1062 C1064 1.327 . S
C1062 H1087 0.950 . S
C1063 C1062 1.349 . S
C1063 C1079 1.349 . S
C1064 C1062 1.327 . S
C1064 C1083 1.429 . S
C1064 H1088 0.950 . S
C1065 C1082 1.574 . S
C1065 C1084 1.368 . S
C1065 H1089 0.949 . S
H1066 C1070 0.949 . S
C1067 C1068 1.349 . S
C1067 C1069 1.327 . S
C1067 H1090 0.950 . S
C1068 C1067 1.349 . S
C1068 C1080 1.349 . S
C1069 C1067 1.327 . S
C1069 C1085 1.429 . S
C1069 H1091 0.950 . S
C1070 H1066 0.949 . S
C1070 C1078 1.574 . S
C1070 C1086 1.368 . S
H1071 C1079 0.950 . S
H1072 C1077 0.950 . S
H1073 C1078 0.949 . S
H1074 C1080 0.950 . S
H1075 C1081 0.950 . S
H1076 C1082 0.949 . S
C1077 H1072 0.950 . S
C1077 C1079 1.327 . S
C1077 C1083 1.429 . S
C1078 C1070 1.574 . S
C1078 H1073 0.949 . S
C1078 C1084 1.368 . S
C1079 C1063 1.349 . S
C1079 H1071 0.950 . S
C1079 C1077 1.327 . S
C1080 C1068 1.349 . S
C1080 H1074 0.950 . S
C1080 C1081 1.327 . S
C1081 H1075 0.950 . S
C1081 C1080 1.327 . S
C1081 C1085 1.429 . S
C1082 C1065 1.574 . S
C1082 H1076 0.949 . S
C1082 C1086 1.368 . S
C1083 C1064 1.429 . S
C1083 C1077 1.429 . S
C1083 C1084 1.523 . S
C1084 C1065 1.368 . S
C1084 C1078 1.368 . S
C1084 C1083 1.523 . S
C1085 C1069 1.429 . S
C1085 C1081 1.429 . S
C1085 C1086 1.523 . S
C1086 C1070 1.368 . S
C1086 C1082 1.368 . S
C1086 C1085 1.523 . S
H1087 C1062 0.950 . S
H1088 C1064 0.950 . S
H1089 C1065 0.949 . S
H1090 C1067 0.950 . S
H1091 C1069 0.950 . S
C1092 C1093 1.349 . S
C1092 C1094 1.327 . S
C1092 H1117 0.950 . S
C1093 C1092 1.349 . S
C1093 C1109 1.349 . S
C1094 C1092 1.327 . S
C1094 C1113 1.429 . S
C1094 H1118 0.950 . S
C1095 C1112 1.574 . S
C1095 C1114 1.368 . S
C1095 H1119 0.949 . S
H1096 C1100 0.949 . S
C1097 C1098 1.349 . S
C1097 C1099 1.327 . S
C1097 H1120 0.950 . S
C1098 C1097 1.349 . S
C1098 C1110 1.349 . S
C1099 C1097 1.327 . S
C1099 C1115 1.429 . S
C1099 H1121 0.950 . S
C1100 H1096 0.949 . S
C1100 C1108 1.574 . S
C1100 C1116 1.368 . S
H1101 C1109 0.950 . S
H1102 C1107 0.950 . S
H1103 C1108 0.949 . S
H1104 C1110 0.950 . S
H1105 C1111 0.950 . S
H1106 C1112 0.949 . S
C1107 H1102 0.950 . S
C1107 C1109 1.327 . S
C1107 C1113 1.429 . S
C1108 C1100 1.574 . S
C1108 H1103 0.949 . S
C1108 C1114 1.368 . S
C1109 C1093 1.349 . S
C1109 H1101 0.950 . S
C1109 C1107 1.327 . S
C1110 C1098 1.349 . S
C1110 H1104 0.950 . S
C1110 C1111 1.327 . S
C1111 H1105 0.950 . S
C1111 C1110 1.327 . S
C1111 C1115 1.429 . S
C1112 C1095 1.574 . S
C1112 H1106 0.949 . S
C1112 C1116 1.368 . S
C1113 C1094 1.429 . S
C1113 C1107 1.429 . S
C1113 C1114 1.523 . S
C1114 C1095 1.368 . S
C1114 C1108 1.368 . S
C1114 C1113 1.523 . S
C1115 C1099 1.429 . S
C1115 C1111 1.429 . S
C1115 C1116 1.523 . S
C1116 C1100 1.368 . S
C1116 C1112 1.368 . S
C1116 C1115 1.523 . S
H1117 C1092 0.950 . S
H1118 C1094 0.950 . S
H1119 C1095 0.949 . S
H1120 C1097 0.950 . S
H1121 C1099 0.950 . S
C1122 C1123 1.349 . S
C1122 C1124 1.327 . S
C1122 H1147 0.950 . S
C1123 C1122 1.349 . S
C1123 C1139 1.349 . S
C1124 C1122 1.327 . S
C1124 C1143 1.429 . S
C1124 H1148 0.950 . S
C1125 C1142 1.574 . S
C1125 C1144 1.368 . S
C1125 H1149 0.949 . S
H1126 C1130 0.949 . S
C1127 C1128 1.349 . S
C1127 C1129 1.327 . S
C1127 H1150 0.950 . S
C1128 C1127 1.349 . S
C1128 C1140 1.349 . S
C1129 C1127 1.327 . S
C1129 C1145 1.429 . S
C1129 H1151 0.950 . S
C1130 H1126 0.949 . S
C1130 C1138 1.574 . S
C1130 C1146 1.368 . S
H1131 C1139 0.950 . S
H1132 C1137 0.950 . S
H1133 C1138 0.949 . S
H1134 C1140 0.950 . S
H1135 C1141 0.950 . S
H1136 C1142 0.949 . S
C1137 H1132 0.950 . S
C1137 C1139 1.327 . S
C1137 C1143 1.429 . S
C1138 C1130 1.574 . S
C1138 H1133 0.949 . S
C1138 C1144 1.368 . S
C1139 C1123 1.349 . S
C1139 H1131 0.950 . S
C1139 C1137 1.327 . S
C1140 C1128 1.349 . S
C1140 H1134 0.950 . S
C1140 C1141 1.327 . S
C1141 H1135 0.950 . S
C1141 C1140 1.327 . S
C1141 C1145 1.429 . S
C1142 C1125 1.574 . S
C1142 H1136 0.949 . S
C1142 C1146 1.368 . S
C1143 C1124 1.429 . S
C1143 C1137 1.429 . S
C1143 C1144 1.523 . S
C1144 C1125 1.368 . S
C1144 C1138 1.368 . S
C1144 C1143 1.523 . S
C1145 C1129 1.429 . S
C1145 C1141 1.429 . S
C1145 C1146 1.523 . S
C1146 C1130 1.368 . S
C1146 C1142 1.368 . S
C1146 C1145 1.523 . S
H1147 C1122 0.950 . S
H1148 C1124 0.950 . S
H1149 C1125 0.949 . S
H1150 C1127 0.950 . S
H1151 C1129 0.950 . S
C1152 C1153 1.349 1_545 S
C1152 C1154 1.327 . S
C1152 H1177 0.950 . S
C1153 C1152 1.349 1_565 S
C1153 C1169 1.349 1_655 S
C1154 C1152 1.327 . S
C1154 C1173 1.445 1_545 S
C1154 H1178 0.950 . S
C1155 C1172 1.574 1_556 S
C1155 C1174 1.363 1_455 S
C1155 H1179 0.949 . S
H1156 C1160 0.949 . S
C1157 C1158 1.349 1_565 S
C1157 C1159 1.327 . S
C1157 H1180 0.950 . S
C1158 C1157 1.349 1_545 S
C1158 C1170 1.349 1_455 S
C1159 C1157 1.327 . S
C1159 C1175 1.450 1_565 S
C1159 H1181 0.950 . S
C1160 H1156 0.949 . S
C1160 C1168 1.574 1_554 S
C1160 C1176 1.358 1_655 S
H1161 C1169 0.950 . S
H1162 C1167 0.950 . S
H1163 C1168 0.949 . S
H1164 C1170 0.950 . S
H1165 C1171 0.950 . S
H1166 C1172 0.949 . S
C1167 H1162 0.950 . S
C1167 C1169 1.327 . S
C1167 C1173 1.413 1_455 S
C1168 C1160 1.574 1_556 S
C1168 H1163 0.949 . S
C1168 C1174 1.374 1_545 S
C1169 C1153 1.349 1_455 S
C1169 H1161 0.950 . S
C1169 C1167 1.327 . S
C1170 C1158 1.349 1_655 S
C1170 H1164 0.950 . S
C1170 C1171 1.327 . S
C1171 H1165 0.950 . S
C1171 C1170 1.327 . S
C1171 C1175 1.409 1_655 S
C1172 C1155 1.574 1_554 S
C1172 H1166 0.949 . S
C1172 C1176 1.379 1_565 S
C1173 C1154 1.445 1_565 S
C1173 C1167 1.413 1_655 S
C1173 C1174 1.523 . S
C1174 C1155 1.363 1_655 S
C1174 C1168 1.374 1_565 S
C1174 C1173 1.523 . S
C1175 C1159 1.450 1_545 S
C1175 C1171 1.409 1_455 S
C1175 C1176 1.523 . S
C1176 C1160 1.358 1_455 S
C1176 C1172 1.379 1_545 S
C1176 C1175 1.523 . S
H1177 C1152 0.950 . S
H1178 C1154 0.950 . S
H1179 C1155 0.949 . S
H1180 C1157 0.950 . S
H1181 C1159 0.950 . S
C1182 C1183 1.349 . S
C1182 C1184 1.327 . S
C1182 H1207 0.950 . S
C1183 C1182 1.349 . S
C1183 C1199 1.349 . S
C1184 C1182 1.327 . S
C1184 C1203 1.429 . S
C1184 H1208 0.950 . S
C1185 C1202 1.574 . S
C1185 C1204 1.368 . S
C1185 H1209 0.949 . S
H1186 C1190 0.949 . S
C1187 C1188 1.349 . S
C1187 C1189 1.327 . S
C1187 H1210 0.950 . S
C1188 C1187 1.349 . S
C1188 C1200 1.349 . S
C1189 C1187 1.327 . S
C1189 C1205 1.429 . S
C1189 H1211 0.950 . S
C1190 H1186 0.949 . S
C1190 C1198 1.574 . S
C1190 C1206 1.368 . S
H1191 C1199 0.950 . S
H1192 C1197 0.950 . S
H1193 C1198 0.949 . S
H1194 C1200 0.950 . S
H1195 C1201 0.950 . S
H1196 C1202 0.949 . S
C1197 H1192 0.950 . S
C1197 C1199 1.327 . S
C1197 C1203 1.429 . S
C1198 C1190 1.574 . S
C1198 H1193 0.949 . S
C1198 C1204 1.368 . S
C1199 C1183 1.349 . S
C1199 H1191 0.950 . S
C1199 C1197 1.327 . S
C1200 C1188 1.349 . S
C1200 H1194 0.950 . S
C1200 C1201 1.327 . S
C1201 H1195 0.950 . S
C1201 C1200 1.327 . S
C1201 C1205 1.429 . S
C1202 C1185 1.574 . S
C1202 H1196 0.949 . S
C1202 C1206 1.368 . S
C1203 C1184 1.429 . S
C1203 C1197 1.429 . S
C1203 C1204 1.523 . S
C1204 C1185 1.368 . S
C1204 C1198 1.368 . S
C1204 C1203 1.523 . S
C1205 C1189 1.429 . S
C1205 C1201 1.429 . S
C1205 C1206 1.523 . S
C1206 C1190 1.368 . S
C1206 C1202 1.368 . S
C1206 C1205 1.523 . S
H1207 C1182 0.950 . S
H1208 C1184 0.950 . S
H1209 C1185 0.949 . S
H1210 C1187 0.950 . S
H1211 C1189 0.950 . S
C1212 C1213 1.349 . S
C1212 C1214 1.327 . S
C1212 H1237 0.950 . S
C1213 C1212 1.349 . S
C1213 C1229 1.349 1_565 S
C1214 C1212 1.327 . S
C1214 C1233 1.429 . S
C1214 H1238 0.950 . S
C1215 C1232 1.574 . S
C1215 C1234 1.368 1_545 S
C1215 H1239 0.949 . S
H1216 C1220 0.949 . S
C1217 C1218 1.349 . S
C1217 C1219 1.327 . S
C1217 H1240 0.950 . S
C1218 C1217 1.349 . S
C1218 C1230 1.349 1_545 S
C1219 C1217 1.327 . S
C1219 C1235 1.429 . S
C1219 H1241 0.950 . S
C1220 H1216 0.949 . S
C1220 C1228 1.574 . S
C1220 C1236 1.368 1_565 S
H1221 C1229 0.950 . S
H1222 C1227 0.950 . S
H1223 C1228 0.949 . S
H1224 C1230 0.950 . S
H1225 C1231 0.950 . S
H1226 C1232 0.949 . S
C1227 H1222 0.950 . S
C1227 C1229 1.327 . S
C1227 C1233 1.429 1_545 S
C1228 C1220 1.574 . S
C1228 H1223 0.949 . S
C1228 C1234 1.368 . S
C1229 C1213 1.349 1_545 S
C1229 H1221 0.950 . S
C1229 C1227 1.327 . S
C1230 C1218 1.349 1_565 S
C1230 H1224 0.950 . S
C1230 C1231 1.327 . S
C1231 H1225 0.950 . S
C1231 C1230 1.327 . S
C1231 C1235 1.429 1_565 S
C1232 C1215 1.574 . S
C1232 H1226 0.949 . S
C1232 C1236 1.368 . S
C1233 C1214 1.429 . S
C1233 C1227 1.429 1_565 S
C1233 C1234 1.523 . S
C1234 C1215 1.368 1_565 S
C1234 C1228 1.368 . S
C1234 C1233 1.523 . S
C1235 C1219 1.429 . S
C1235 C1231 1.429 1_545 S
C1235 C1236 1.523 . S
C1236 C1220 1.368 1_545 S
C1236 C1232 1.368 . S
C1236 C1235 1.523 . S
H1237 C1212 0.950 . S
H1238 C1214 0.950 . S
H1239 C1215 0.949 . S
H1240 C1217 0.950 . S
H1241 C1219 0.950 . S
C1242 C1243 1.349 . S
C1242 C1244 1.327 . S
C1242 H1267 0.950 . S
C1243 C1242 1.349 . S
C1243 C1259 1.349 . S
C1244 C1242 1.327 . S
C1244 C1263 1.429 . S
C1244 H1268 0.950 . S
C1245 C1262 1.574 . S
C1245 C1264 1.368 . S
C1245 H1269 0.949 . S
H1246 C1250 0.949 . S
C1247 C1248 1.349 . S
C1247 C1249 1.327 . S
C1247 H1270 0.950 . S
C1248 C1247 1.349 . S
C1248 C1260 1.349 . S
C1249 C1247 1.327 . S
C1249 C1265 1.429 . S
C1249 H1271 0.950 . S
C1250 H1246 0.949 . S
C1250 C1258 1.574 . S
C1250 C1266 1.368 . S
H1251 C1259 0.950 . S
H1252 C1257 0.950 . S
H1253 C1258 0.949 . S
H1254 C1260 0.950 . S
H1255 C1261 0.950 . S
H1256 C1262 0.949 . S
C1257 H1252 0.950 . S
C1257 C1259 1.327 . S
C1257 C1263 1.429 . S
C1258 C1250 1.574 . S
C1258 H1253 0.949 . S
C1258 C1264 1.368 . S
C1259 C1243 1.349 . S
C1259 H1251 0.950 . S
C1259 C1257 1.327 . S
C1260 C1248 1.349 . S
C1260 H1254 0.950 . S
C1260 C1261 1.327 . S
C1261 H1255 0.950 . S
C1261 C1260 1.327 . S
C1261 C1265 1.429 . S
C1262 C1245 1.574 . S
C1262 H1256 0.949 . S
C1262 C1266 1.368 . S
C1263 C1244 1.429 . S
C1263 C1257 1.429 . S
C1263 C1264 1.523 . S
C1264 C1245 1.368 . S
C1264 C1258 1.368 . S
C1264 C1263 1.523 . S
C1265 C1249 1.429 . S
C1265 C1261 1.429 . S
C1265 C1266 1.523 . S
C1266 C1250 1.368 . S
C1266 C1262 1.368 . S
C1266 C1265 1.523 . S
H1267 C1242 0.950 . S
H1268 C1244 0.950 . S
H1269 C1245 0.949 . S
H1270 C1247 0.950 . S
H1271 C1249 0.950 . S
C1272 C1273 1.349 . S
C1272 C1274 1.327 . S
C1272 H1297 0.950 . S
C1273 C1272 1.349 . S
C1273 C1289 1.349 . S
C1274 C1272 1.327 . S
C1274 C1293 1.429 . S
C1274 H1298 0.950 . S
C1275 C1292 1.574 . S
C1275 C1294 1.368 . S
C1275 H1299 0.949 . S
H1276 C1280 0.949 . S
C1277 C1278 1.349 . S
C1277 C1279 1.327 . S
C1277 H1300 0.950 . S
C1278 C1277 1.349 . S
C1278 C1290 1.349 . S
C1279 C1277 1.327 . S
C1279 C1295 1.429 . S
C1279 H1301 0.950 . S
C1280 H1276 0.949 . S
C1280 C1288 1.574 . S
C1280 C1296 1.368 . S
H1281 C1289 0.950 . S
H1282 C1287 0.950 . S
H1283 C1288 0.949 . S
H1284 C1290 0.950 . S
H1285 C1291 0.950 . S
H1286 C1292 0.949 . S
C1287 H1282 0.950 . S
C1287 C1289 1.327 . S
C1287 C1293 1.429 . S
C1288 C1280 1.574 . S
C1288 H1283 0.949 . S
C1288 C1294 1.368 . S
C1289 C1273 1.349 . S
C1289 H1281 0.950 . S
C1289 C1287 1.327 . S
C1290 C1278 1.349 . S
C1290 H1284 0.950 . S
C1290 C1291 1.327 . S
C1291 H1285 0.950 . S
C1291 C1290 1.327 . S
C1291 C1295 1.429 . S
C1292 C1275 1.574 . S
C1292 H1286 0.949 . S
C1292 C1296 1.368 . S
C1293 C1274 1.429 . S
C1293 C1287 1.429 . S
C1293 C1294 1.523 . S
C1294 C1275 1.368 . S
C1294 C1288 1.368 . S
C1294 C1293 1.523 . S
C1295 C1279 1.429 . S
C1295 C1291 1.429 . S
C1295 C1296 1.523 . S
C1296 C1280 1.368 . S
C1296 C1292 1.368 . S
C1296 C1295 1.523 . S
H1297 C1272 0.950 . S
H1298 C1274 0.950 . S
H1299 C1275 0.949 . S
H1300 C1277 0.950 . S
H1301 C1279 0.950 . S
C1302 C1303 1.349 . S
C1302 C1304 1.327 . S
C1302 H1327 0.950 . S
C1303 C1302 1.349 . S
C1303 C1319 1.349 . S
C1304 C1302 1.327 . S
C1304 C1323 1.429 . S
C1304 H1328 0.950 . S
C1305 C1322 1.574 . S
C1305 C1324 1.368 . S
C1305 H1329 0.949 . S
H1306 C1310 0.949 . S
C1307 C1308 1.349 . S
C1307 C1309 1.327 . S
C1307 H1330 0.950 . S
C1308 C1307 1.349 . S
C1308 C1320 1.349 . S
C1309 C1307 1.327 . S
C1309 C1325 1.429 . S
C1309 H1331 0.950 . S
C1310 H1306 0.949 . S
C1310 C1318 1.574 . S
C1310 C1326 1.368 . S
H1311 C1319 0.950 . S
H1312 C1317 0.950 . S
H1313 C1318 0.949 . S
H1314 C1320 0.950 . S
H1315 C1321 0.950 . S
H1316 C1322 0.949 . S
C1317 H1312 0.950 . S
C1317 C1319 1.327 . S
C1317 C1323 1.429 . S
C1318 C1310 1.574 . S
C1318 H1313 0.949 . S
C1318 C1324 1.368 . S
C1319 C1303 1.349 . S
C1319 H1311 0.950 . S
C1319 C1317 1.327 . S
C1320 C1308 1.349 . S
C1320 H1314 0.950 . S
C1320 C1321 1.327 . S
C1321 H1315 0.950 . S
C1321 C1320 1.327 . S
C1321 C1325 1.429 . S
C1322 C1305 1.574 . S
C1322 H1316 0.949 . S
C1322 C1326 1.368 . S
C1323 C1304 1.429 . S
C1323 C1317 1.429 . S
C1323 C1324 1.523 . S
C1324 C1305 1.368 . S
C1324 C1318 1.368 . S
C1324 C1323 1.523 . S
C1325 C1309 1.429 . S
C1325 C1321 1.429 . S
C1325 C1326 1.523 . S
C1326 C1310 1.368 . S
C1326 C1322 1.368 . S
C1326 C1325 1.523 . S
H1327 C1302 0.950 . S
H1328 C1304 0.950 . S
H1329 C1305 0.949 . S
H1330 C1307 0.950 . S
H1331 C1309 0.950 . S
C1332 C1333 1.349 . S
C1332 C1334 1.327 . S
C1332 H1357 0.950 . S
C1333 C1332 1.349 . S
C1333 C1349 1.349 . S
C1334 C1332 1.327 . S
C1334 C1353 1.429 . S
C1334 H1358 0.950 . S
C1335 C1352 1.574 . S
C1335 C1354 1.368 . S
C1335 H1359 0.949 . S
H1336 C1340 0.949 . S
C1337 C1338 1.349 . S
C1337 C1339 1.327 . S
C1337 H1360 0.950 . S
C1338 C1337 1.349 . S
C1338 C1350 1.349 . S
C1339 C1337 1.327 . S
C1339 C1355 1.429 . S
C1339 H1361 0.950 . S
C1340 H1336 0.949 . S
C1340 C1348 1.574 . S
C1340 C1356 1.368 . S
H1341 C1349 0.950 . S
H1342 C1347 0.950 . S
H1343 C1348 0.949 . S
H1344 C1350 0.950 . S
H1345 C1351 0.950 . S
H1346 C1352 0.949 . S
C1347 H1342 0.950 . S
C1347 C1349 1.327 . S
C1347 C1353 1.429 . S
C1348 C1340 1.574 . S
C1348 H1343 0.949 . S
C1348 C1354 1.368 . S
C1349 C1333 1.349 . S
C1349 H1341 0.950 . S
C1349 C1347 1.327 . S
C1350 C1338 1.349 . S
C1350 H1344 0.950 . S
C1350 C1351 1.327 . S
C1351 H1345 0.950 . S
C1351 C1350 1.327 . S
C1351 C1355 1.429 . S
C1352 C1335 1.574 . S
C1352 H1346 0.949 . S
C1352 C1356 1.368 . S
C1353 C1334 1.429 . S
C1353 C1347 1.429 . S
C1353 C1354 1.523 . S
C1354 C1335 1.368 . S
C1354 C1348 1.368 . S
C1354 C1353 1.523 . S
C1355 C1339 1.429 . S
C1355 C1351 1.429 . S
C1355 C1356 1.523 . S
C1356 C1340 1.368 . S
C1356 C1352 1.368 . S
C1356 C1355 1.523 . S
H1357 C1332 0.950 . S
H1358 C1334 0.950 . S
H1359 C1335 0.949 . S
H1360 C1337 0.950 . S
H1361 C1339 0.950 . S
C1362 C1363 1.349 1_655 S
C1362 C1364 1.327 . S
C1362 H1387 0.950 . S
C1363 C1362 1.349 1_455 S
C1363 C1379 1.349 . S
C1364 C1362 1.327 . S
C1364 C1383 1.408 1_655 S
C1364 H1388 0.950 . S
C1365 C1382 1.574 1_556 S
C1365 C1384 1.379 . S
C1365 H1389 0.949 . S
H1366 C1370 0.949 . S
C1367 C1368 1.349 1_455 S
C1367 C1369 1.327 . S
C1367 H1390 0.950 . S
C1368 C1367 1.349 1_655 S
C1368 C1380 1.349 . S
C1369 C1367 1.327 . S
C1369 C1385 1.412 1_455 S
C1369 H1391 0.950 . S
C1370 H1366 0.949 . S
C1370 C1378 1.574 1_554 S
C1370 C1386 1.374 . S
H1371 C1379 0.950 . S
H1372 C1377 0.950 . S
H1373 C1378 0.949 . S
H1374 C1380 0.950 . S
H1375 C1381 0.950 . S
H1376 C1382 0.949 . S
C1377 H1372 0.950 . S
C1377 C1379 1.327 . S
C1377 C1383 1.451 . S
C1378 C1370 1.574 1_556 S
C1378 H1373 0.949 . S
C1378 C1384 1.357 1_655 S
C1379 C1363 1.349 . S
C1379 H1371 0.950 . S
C1379 C1377 1.327 . S
C1380 C1368 1.349 . S
C1380 H1374 0.950 . S
C1380 C1381 1.327 . S
C1381 H1375 0.950 . S
C1381 C1380 1.327 . S
C1381 C1385 1.446 . S
C1382 C1365 1.574 1_554 S
C1382 H1376 0.949 . S
C1382 C1386 1.363 1_455 S
C1383 C1364 1.408 1_455 S
C1383 C1377 1.451 . S
C1383 C1384 1.523 . S
C1384 C1365 1.379 . S
C1384 C1378 1.357 1_455 S
C1384 C1383 1.523 . S
C1385 C1369 1.412 1_655 S
C1385 C1381 1.446 . S
C1385 C1386 1.523 . S
C1386 C1370 1.374 . S
C1386 C1382 1.363 1_655 S
C1386 C1385 1.523 . S
H1387 C1362 0.950 . S
H1388 C1364 0.950 . S
H1389 C1365 0.949 . S
H1390 C1367 0.950 . S
H1391 C1369 0.950 . S
C673 C67 1.506 . S
C678 C319 1.500 . S
C703 C68 1.496 . S
C708 C151 1.506 . S
C733 C152 1.486 . S
C738 C235 1.500 . S
C763 C236 1.485 . S
C768 C320 1.480 . S
C793 C55 1.506 . S
C798 C475 1.513 . S
C823 C56 1.496 . S
C828 C391 1.504 . S
C853 C392 1.486 . S
C858 C223 1.492 . S
C883 C476 1.485 . S
C888 C224 1.489 . S
C913 C571 1.506 . S
C918 C487 1.508 . S
C943 C403 1.505 . S
C948 C572 1.494 . S
C973 C655 1.496 . S
C978 C404 1.489 . S
C1003 C488 1.485 . S
C1008 C656 1.488 . S
C1033 C307 1.507 . S
C1038 C559 1.505 . S
C1063 C560 1.496 . S
C1068 C139 1.506 . S
C1093 C140 1.486 . S
C1098 C643 1.493 . S
C1123 C308 1.485 . S
C1128 C644 1.482 . S
C1153 C58 1.452 . S
C1158 C70 1.454 . S
C1183 C154 1.449 . S
C1188 C142 1.449 . S
C1213 C238 1.456 . S
C1218 C226 1.456 . S
C1243 C310 1.450 . S
C1248 C322 1.450 . S
C1273 C406 1.449 . S
C1278 C394 1.449 . S
C1303 C478 1.450 . S
C1308 C490 1.450 . S
C1333 C574 1.452 . S
C1338 C562 1.452 . S
C1363 C646 1.456 . S
C1368 C658 1.456 . S
