# Generated by pormake.
# Topology uos, (4)-cn, num edge types: 1
# Building blocks:
#     Node 0, Type 0, BuildingBlock: CEKHIL_clean_sbu_0, # of connection points: 4
#     Node 1, Type 0, BuildingBlock: CEKHIL_clean_sbu_0, # of connection points: 4
#     Node 2, Type 0, BuildingBlock: CEKHIL_clean_sbu_0, # of connection points: 4
#     Node 3, Type 0, BuildingBlock: CEKHIL_clean_sbu_0, # of connection points: 4
#     Node 4, Type 0, BuildingBlock: CEKHIL_clean_sbu_0, # of connection points: 4
#     Node 5, Type 0, BuildingBlock: CEKHIL_clean_sbu_0, # of connection points: 4
#     Node 6, Type 0, BuildingBlock: CEKHIL_clean_sbu_0, # of connection points: 4
#     Node 7, Type 0, BuildingBlock: CEKHIL_clean_sbu_0, # of connection points: 4
#     Node 8, Type 0, BuildingBlock: CEKHIL_clean_sbu_0, # of connection points: 4
#     Node 9, Type 0, BuildingBlock: CEKHIL_clean_sbu_0, # of connection points: 4
#     Node 10, Type 0, BuildingBlock: CEKHIL_clean_sbu_0, # of connection points: 4
#     Node 11, Type 0, BuildingBlock: CEKHIL_clean_sbu_0, # of connection points: 4
#     Node 12, Type 0, BuildingBlock: CEKHIL_clean_sbu_0, # of connection points: 4
#     Node 13, Type 0, BuildingBlock: CEKHIL_clean_sbu_0, # of connection points: 4
#     Node 14, Type 0, BuildingBlock: CEKHIL_clean_sbu_0, # of connection points: 4
#     Node 15, Type 0, BuildingBlock: CEKHIL_clean_sbu_0, # of connection points: 4
#     Node 16, Type 0, BuildingBlock: CEKHIL_clean_sbu_0, # of connection points: 4
#     Node 17, Type 0, BuildingBlock: CEKHIL_clean_sbu_0, # of connection points: 4
#     Node 18, Type 0, BuildingBlock: CEKHIL_clean_sbu_0, # of connection points: 4
#     Node 19, Type 0, BuildingBlock: CEKHIL_clean_sbu_0, # of connection points: 4
#     Node 20, Type 0, BuildingBlock: CEKHIL_clean_sbu_0, # of connection points: 4
#     Node 21, Type 0, BuildingBlock: CEKHIL_clean_sbu_0, # of connection points: 4
#     Node 22, Type 0, BuildingBlock: CEKHIL_clean_sbu_0, # of connection points: 4
#     Node 23, Type 0, BuildingBlock: CEKHIL_clean_sbu_0, # of connection points: 4
#     Node 24, Type 0, BuildingBlock: CEKHIL_clean_sbu_0, # of connection points: 4
#     Node 25, Type 0, BuildingBlock: CEKHIL_clean_sbu_0, # of connection points: 4
#     Node 26, Type 0, BuildingBlock: CEKHIL_clean_sbu_0, # of connection points: 4
#     Node 27, Type 0, BuildingBlock: CEKHIL_clean_sbu_0, # of connection points: 4
#     Node 28, Type 0, BuildingBlock: CEKHIL_clean_sbu_0, # of connection points: 4
#     Node 29, Type 0, BuildingBlock: CEKHIL_clean_sbu_0, # of connection points: 4
#     Node 30, Type 0, BuildingBlock: CEKHIL_clean_sbu_0, # of connection points: 4
#     Node 31, Type 0, BuildingBlock: CEKHIL_clean_sbu_0, # of connection points: 4
#     Edge 32, Type (0, 0), BuildingBlock: EZIPEK_clean_linker_0, # of connection points: 2
#     Edge 33, Type (0, 0), BuildingBlock: EZIPEK_clean_linker_0, # of connection points: 2
#     Edge 34, Type (0, 0), BuildingBlock: EZIPEK_clean_linker_0, # of connection points: 2
#     Edge 35, Type (0, 0), BuildingBlock: EZIPEK_clean_linker_0, # of connection points: 2
#     Edge 36, Type (0, 0), BuildingBlock: EZIPEK_clean_linker_0, # of connection points: 2
#     Edge 37, Type (0, 0), BuildingBlock: EZIPEK_clean_linker_0, # of connection points: 2
#     Edge 38, Type (0, 0), BuildingBlock: EZIPEK_clean_linker_0, # of connection points: 2
#     Edge 39, Type (0, 0), BuildingBlock: EZIPEK_clean_linker_0, # of connection points: 2
#     Edge 40, Type (0, 0), BuildingBlock: EZIPEK_clean_linker_0, # of connection points: 2
#     Edge 41, Type (0, 0), BuildingBlock: EZIPEK_clean_linker_0, # of connection points: 2
#     Edge 42, Type (0, 0), BuildingBlock: EZIPEK_clean_linker_0, # of connection points: 2
#     Edge 43, Type (0, 0), BuildingBlock: EZIPEK_clean_linker_0, # of connection points: 2
#     Edge 44, Type (0, 0), BuildingBlock: EZIPEK_clean_linker_0, # of connection points: 2
#     Edge 45, Type (0, 0), BuildingBlock: EZIPEK_clean_linker_0, # of connection points: 2
#     Edge 46, Type (0, 0), BuildingBlock: EZIPEK_clean_linker_0, # of connection points: 2
#     Edge 47, Type (0, 0), BuildingBlock: EZIPEK_clean_linker_0, # of connection points: 2
#     Edge 48, Type (0, 0), BuildingBlock: EZIPEK_clean_linker_0, # of connection points: 2
#     Edge 49, Type (0, 0), BuildingBlock: EZIPEK_clean_linker_0, # of connection points: 2
#     Edge 50, Type (0, 0), BuildingBlock: EZIPEK_clean_linker_0, # of connection points: 2
#     Edge 51, Type (0, 0), BuildingBlock: EZIPEK_clean_linker_0, # of connection points: 2
#     Edge 52, Type (0, 0), BuildingBlock: EZIPEK_clean_linker_0, # of connection points: 2
#     Edge 53, Type (0, 0), BuildingBlock: EZIPEK_clean_linker_0, # of connection points: 2
#     Edge 54, Type (0, 0), BuildingBlock: EZIPEK_clean_linker_0, # of connection points: 2
#     Edge 55, Type (0, 0), BuildingBlock: EZIPEK_clean_linker_0, # of connection points: 2
#     Edge 56, Type (0, 0), BuildingBlock: EZIPEK_clean_linker_0, # of connection points: 2
#     Edge 57, Type (0, 0), BuildingBlock: EZIPEK_clean_linker_0, # of connection points: 2
#     Edge 58, Type (0, 0), BuildingBlock: EZIPEK_clean_linker_0, # of connection points: 2
#     Edge 59, Type (0, 0), BuildingBlock: EZIPEK_clean_linker_0, # of connection points: 2
#     Edge 60, Type (0, 0), BuildingBlock: EZIPEK_clean_linker_0, # of connection points: 2
#     Edge 61, Type (0, 0), BuildingBlock: EZIPEK_clean_linker_0, # of connection points: 2
#     Edge 62, Type (0, 0), BuildingBlock: EZIPEK_clean_linker_0, # of connection points: 2
#     Edge 63, Type (0, 0), BuildingBlock: EZIPEK_clean_linker_0, # of connection points: 2
#     Edge 64, Type (0, 0), BuildingBlock: EZIPEK_clean_linker_0, # of connection points: 2
#     Edge 65, Type (0, 0), BuildingBlock: EZIPEK_clean_linker_0, # of connection points: 2
#     Edge 66, Type (0, 0), BuildingBlock: EZIPEK_clean_linker_0, # of connection points: 2
#     Edge 67, Type (0, 0), BuildingBlock: EZIPEK_clean_linker_0, # of connection points: 2
#     Edge 68, Type (0, 0), BuildingBlock: EZIPEK_clean_linker_0, # of connection points: 2
#     Edge 69, Type (0, 0), BuildingBlock: EZIPEK_clean_linker_0, # of connection points: 2
#     Edge 70, Type (0, 0), BuildingBlock: EZIPEK_clean_linker_0, # of connection points: 2
#     Edge 71, Type (0, 0), BuildingBlock: EZIPEK_clean_linker_0, # of connection points: 2
#     Edge 72, Type (0, 0), BuildingBlock: EZIPEK_clean_linker_0, # of connection points: 2
#     Edge 73, Type (0, 0), BuildingBlock: EZIPEK_clean_linker_0, # of connection points: 2
#     Edge 74, Type (0, 0), BuildingBlock: EZIPEK_clean_linker_0, # of connection points: 2
#     Edge 75, Type (0, 0), BuildingBlock: EZIPEK_clean_linker_0, # of connection points: 2
#     Edge 76, Type (0, 0), BuildingBlock: EZIPEK_clean_linker_0, # of connection points: 2
#     Edge 77, Type (0, 0), BuildingBlock: EZIPEK_clean_linker_0, # of connection points: 2
#     Edge 78, Type (0, 0), BuildingBlock: EZIPEK_clean_linker_0, # of connection points: 2
#     Edge 79, Type (0, 0), BuildingBlock: EZIPEK_clean_linker_0, # of connection points: 2
#     Edge 80, Type (0, 0), BuildingBlock: EZIPEK_clean_linker_0, # of connection points: 2
#     Edge 81, Type (0, 0), BuildingBlock: EZIPEK_clean_linker_0, # of connection points: 2
#     Edge 82, Type (0, 0), BuildingBlock: EZIPEK_clean_linker_0, # of connection points: 2
#     Edge 83, Type (0, 0), BuildingBlock: EZIPEK_clean_linker_0, # of connection points: 2
#     Edge 84, Type (0, 0), BuildingBlock: EZIPEK_clean_linker_0, # of connection points: 2
#     Edge 85, Type (0, 0), BuildingBlock: EZIPEK_clean_linker_0, # of connection points: 2
#     Edge 86, Type (0, 0), BuildingBlock: EZIPEK_clean_linker_0, # of connection points: 2
#     Edge 87, Type (0, 0), BuildingBlock: EZIPEK_clean_linker_0, # of connection points: 2
#     Edge 88, Type (0, 0), BuildingBlock: EZIPEK_clean_linker_0, # of connection points: 2
#     Edge 89, Type (0, 0), BuildingBlock: EZIPEK_clean_linker_0, # of connection points: 2
#     Edge 90, Type (0, 0), BuildingBlock: EZIPEK_clean_linker_0, # of connection points: 2
#     Edge 91, Type (0, 0), BuildingBlock: EZIPEK_clean_linker_0, # of connection points: 2
#     Edge 92, Type (0, 0), BuildingBlock: EZIPEK_clean_linker_0, # of connection points: 2
#     Edge 93, Type (0, 0), BuildingBlock: EZIPEK_clean_linker_0, # of connection points: 2
#     Edge 94, Type (0, 0), BuildingBlock: EZIPEK_clean_linker_0, # of connection points: 2
#     Edge 95, Type (0, 0), BuildingBlock: EZIPEK_clean_linker_0, # of connection points: 2
# Relax obj value: 0.047
# Max RMSD: 0.072
# Mean RMSD: 0.072
data_MOF--net-uos--node1-CEKHIL_clean_sbu_0--edge1-EZIPEK_clean_linker_0
_symmetry_space_group_name_H-M    P1
_symmetry_Int_Tables_number       1
_symmetry_cell_setting            triclinic
loop_
_symmetry_equiv_pos_as_xyz
'x, y, z'
_cell_length_a     62.166419
_cell_length_b     62.224413
_cell_length_c     16.678926
_cell_angle_alpha  89.996533
_cell_angle_beta   90.025053
_cell_angle_gamma 89.959961
loop_
_atom_site_label
_atom_site_type_symbol
_atom_site_fract_x
_atom_site_fract_y
_atom_site_fract_z
_atom_type_partial_charge
Co0 Co 0.167 0.16529 0.12128 0.0
O1 O 0.14054 0.16053 0.06041 0.0
O2 O 0.1703 0.14195 0.04332 0.0
C3 C 0.16744 0.2023 0.10967 0.0
O4 O 0.19791 0.16578 0.16724 0.0
Co5 Co 0.16726 0.18969 0.28081 0.0
O6 O 0.1976 0.17989 0.29136 0.0
C7 C 0.14902 0.14701 0.27845 0.0
C8 C 0.15051 0.14542 0.02165 0.0
C9 C 0.20744 0.17098 0.2334 0.0
O10 O 0.15721 0.14405 0.20798 0.0
O11 O 0.14867 0.16532 0.31273 0.0
O12 O 0.17444 0.18999 0.05234 0.0
O13 O 0.15872 0.19201 0.16876 0.0
Co14 Co 0.0826 0.91332 0.35236 0.0
O15 O 0.08829 0.88916 0.28103 0.0
O16 O 0.10858 0.91809 0.28807 0.0
C17 C 0.0468 0.91599 0.32429 0.0
O18 O 0.08115 0.94218 0.41438 0.0
Co19 Co 0.05095 0.90893 0.49604 0.0
O20 O 0.05984 0.93853 0.5222 0.0
C21 C 0.09457 0.89108 0.5108 0.0
C22 C 0.10491 0.89955 0.25466 0.0
C23 C 0.07216 0.94987 0.47839 0.0
O24 O 0.10006 0.89912 0.44218 0.0
O25 O 0.07548 0.89202 0.53881 0.0
O26 O 0.06095 0.92451 0.27662 0.0
O27 O 0.05461 0.9047 0.38213 0.0
Co28 Co 0.33931 0.8369 0.61573 0.0
O29 O 0.365 0.84244 0.55197 0.0
O30 O 0.33579 0.86241 0.54794 0.0
C31 C 0.33793 0.80094 0.58818 0.0
O32 O 0.30899 0.83556 0.66783 0.0
Co33 Co 0.34007 0.8056 0.76161 0.0
O34 O 0.30881 0.81048 0.76545 0.0
C35 C 0.35904 0.84882 0.77803 0.0
C36 C 0.35499 0.85864 0.52026 0.0
C37 C 0.29919 0.82437 0.72231 0.0
O38 O 0.35166 0.85456 0.70859 0.0
O39 O 0.35728 0.82977 0.80597 0.0
O40 O 0.33035 0.81491 0.53763 0.0
O41 O 0.34741 0.80914 0.64977 0.0
Co42 Co 0.42206 0.08829 0.86703 0.0
O43 O 0.41574 0.11354 0.80215 0.0
O44 O 0.39594 0.08424 0.80264 0.0
C45 C 0.45774 0.08677 0.83566 0.0
O46 O 0.42422 0.05847 0.92226 0.0
Co47 Co 0.45451 0.09084 1.00926 0.0
O48 O 0.44874 0.05992 0.02177 0.0
C49 C 0.41089 0.10854 0.02956 0.0
C50 C 0.39931 0.10334 0.77323 0.0
C51 C 0.43523 0.04955 0.97939 0.0
O52 O 0.40495 0.10094 0.96076 0.0
O53 O 0.43018 0.10741 0.05582 0.0
O54 O 0.44343 0.07882 0.78725 0.0
O55 O 0.45003 0.09684 0.8968 0.0
Co56 Co 0.16728 0.83435 0.90116 0.0
O57 O 0.14168 0.83992 0.96527 0.0
O58 O 0.17019 0.86082 0.96419 0.0
C59 C 0.16982 0.79889 0.93448 0.0
O60 O 0.19742 0.83318 0.84747 0.0
Co61 Co 0.16671 0.80136 0.76069 0.0
O62 O 0.19742 0.80832 0.74919 0.0
C63 C 0.14671 0.84384 0.73785 0.0
C64 C 0.15122 0.8568 0.99368 0.0
C65 C 0.20707 0.82234 0.79156 0.0
O66 O 0.15409 0.85053 0.80606 0.0
O67 O 0.14882 0.82453 0.71298 0.0
O68 O 0.17727 0.81359 0.98234 0.0
O69 O 0.15981 0.80605 0.87232 0.0
Co70 Co 0.42175 0.91817 0.16336 0.0
O71 O 0.41567 0.89251 0.22634 0.0
O72 O 0.39594 0.92187 0.22938 0.0
C73 C 0.45767 0.91923 0.19291 0.0
O74 O 0.42351 0.94838 0.11124 0.0
Co75 Co 0.45375 0.91713 0.01909 0.0
O76 O 0.449 0.94839 0.01498 0.0
C77 C 0.4102 0.89888 0.99993 0.0
C78 C 0.3994 0.90262 0.25712 0.0
C79 C 0.43491 0.95805 0.05706 0.0
O80 O 0.40434 0.90612 0.06936 0.0
O81 O 0.42939 0.90044 0.97293 0.0
O82 O 0.44356 0.92681 0.24293 0.0
O83 O 0.44958 0.90995 0.13073 0.0
Co84 Co 0.33855 0.16871 0.41464 0.0
O85 O 0.36406 0.1638 0.48028 0.0
O86 O 0.33536 0.14312 0.48219 0.0
C87 C 0.33611 0.20459 0.44136 0.0
O88 O 0.30852 0.16912 0.36045 0.0
Co89 Co 0.33888 0.1999 0.26852 0.0
O90 O 0.30821 0.19256 0.25767 0.0
C91 C 0.35914 0.15722 0.25355 0.0
C92 C 0.35435 0.14731 0.51106 0.0
C93 C 0.29874 0.17897 0.30243 0.0
O94 O 0.35177 0.15132 0.32277 0.0
O95 O 0.35696 0.17621 0.22545 0.0
O96 O 0.32852 0.19056 0.49166 0.0
O97 O 0.34609 0.19661 0.38058 0.0
Co98 Co 0.08528 0.08205 0.66472 0.0
O99 O 0.09044 0.10918 0.72063 0.0
O100 O 0.10949 0.07996 0.73993 0.0
C101 C 0.04866 0.08227 0.68242 0.0
O102 O 0.08463 0.05074 0.62309 0.0
Co103 Co 0.0575 0.07981 0.51086 0.0
O104 O 0.06435 0.0487 0.51129 0.0
C105 C 0.10136 0.09702 0.50026 0.0
C106 C 0.1059 0.09987 0.75973 0.0
C107 C 0.07646 0.04009 0.56384 0.0
O108 O 0.10522 0.09051 0.57249 0.0
O109 O 0.08242 0.0969 0.4703 0.0
O110 O 0.06139 0.07563 0.73904 0.0
O111 O 0.05827 0.08998 0.62034 0.0
Co112 Co 0.83886 0.83753 0.91091 0.0
O113 O 0.86438 0.84402 0.97405 0.0
O114 O 0.83463 0.86287 0.97973 0.0
C115 C 0.83891 0.80144 0.9359 0.0
O116 O 0.80895 0.8345 0.85775 0.0
Co117 Co 0.8437 0.80777 0.76205 0.0
O118 O 0.81227 0.81229 0.7514 0.0
C119 C 0.85781 0.85251 0.7497 0.0
C120 C 0.85414 0.85993 1.00637 0.0
C121 C 0.80092 0.82416 0.7972 0.0
O122 O 0.84888 0.85658 0.81805 0.0
O123 O 0.86006 0.83336 0.72313 0.0
O124 O 0.83102 0.81481 0.98805 0.0
O125 O 0.84844 0.81041 0.87595 0.0
Co126 Co 0.9198 0.09386 0.66795 0.0
O127 O 0.91419 0.11873 0.73567 0.0
O128 O 0.89407 0.08964 0.73407 0.0
C129 C 0.95567 0.09152 0.69482 0.0
O130 O 0.92109 0.06438 0.61019 0.0
Co131 Co 0.9509 0.09683 0.52224 0.0
O132 O 0.94221 0.06688 0.50138 0.0
C133 C 0.90758 0.11539 0.50859 0.0
C134 C 0.89774 0.10854 0.76459 0.0
C135 C 0.93 0.05601 0.54724 0.0
O136 O 0.90208 0.10728 0.57708 0.0
O137 O 0.92667 0.11438 0.48049 0.0
O138 O 0.94168 0.0835 0.74433 0.0
O139 O 0.94767 0.1022 0.63573 0.0
Co140 Co 0.66571 0.17226 0.41326 0.0
O141 O 0.64052 0.16561 0.47803 0.0
O142 O 0.67031 0.1465 0.47881 0.0
C143 C 0.66644 0.2081 0.44275 0.0
O144 O 0.69564 0.17482 0.35873 0.0
Co145 Co 0.66285 0.20405 0.26907 0.0
O146 O 0.694 0.19906 0.25839 0.0
C147 C 0.64575 0.16014 0.25116 0.0
C148 C 0.65111 0.14952 0.50782 0.0
C149 C 0.70453 0.18587 0.30167 0.0
O150 O 0.65355 0.15457 0.32012 0.0
O151 O 0.64654 0.17934 0.22403 0.0
O152 O 0.6745 0.19411 0.49222 0.0
O153 O 0.65669 0.19994 0.38166 0.0
Co154 Co 0.58674 0.91692 0.16045 0.0
O155 O 0.59243 0.89187 0.22734 0.0
O156 O 0.61249 0.92097 0.22703 0.0
C157 C 0.55086 0.91878 0.18913 0.0
O158 O 0.58515 0.94665 0.1039 0.0
Co159 Co 0.55521 0.91429 0.01584 0.0
O160 O 0.56117 0.94516 1.00265 0.0
C161 C 0.59862 0.89581 1.00009 0.0
C162 C 0.60877 0.90202 0.25713 0.0
C163 C 0.57446 0.95556 0.04584 0.0
O164 O 0.60429 0.90374 0.06873 0.0
O165 O 0.57948 0.89704 0.97241 0.0
O166 O 0.56499 0.92686 0.23794 0.0
O167 O 0.55883 0.90848 0.12894 0.0
Co168 Co 0.83646 0.17448 0.1196 0.0
O169 O 0.86213 0.16882 0.056 0.0
O170 O 0.83335 0.1483 0.05495 0.0
C171 C 0.8345 0.21004 0.08662 0.0
O172 O 0.80624 0.17585 0.17263 0.0
Co173 Co 0.83697 0.20726 0.26064 0.0
O174 O 0.80593 0.20153 0.26802 0.0
C175 C 0.85631 0.16436 0.2836 0.0
C176 C 0.85242 0.15222 0.02624 0.0
C177 C 0.79641 0.1872 0.22668 0.0
O178 O 0.84927 0.15794 0.2145 0.0
O179 O 0.85413 0.1836 0.3092 0.0
O180 O 0.82687 0.19547 0.03873 0.0
O181 O 0.84421 0.20269 0.14923 0.0
Co182 Co 0.58657 0.08773 0.86524 0.0
O183 O 0.59176 0.11355 0.80191 0.0
O184 O 0.61242 0.08484 0.79862 0.0
C185 C 0.55072 0.08576 0.83531 0.0
O186 O 0.5857 0.05739 0.91728 0.0
Co187 Co 0.55455 0.08766 1.00915 0.0
O188 O 0.5599 0.05651 0.01228 0.0
C189 C 0.59737 0.10757 0.0284 0.0
C190 C 0.60827 0.10394 0.77076 0.0
C191 C 0.57435 0.04728 0.97056 0.0
O192 O 0.60357 0.10043 0.95918 0.0
O193 O 0.57824 0.10527 0.05524 0.0
O194 O 0.56505 0.0784 0.78578 0.0
O195 O 0.55851 0.0952 0.89772 0.0
Co196 Co 0.66915 0.83531 0.61271 0.0
O197 O 0.64346 0.84134 0.54947 0.0
O198 O 0.67257 0.86142 0.5481 0.0
C199 C 0.67076 0.79959 0.58108 0.0
O200 O 0.69939 0.83373 0.66536 0.0
Co201 Co 0.66865 0.80276 0.75483 0.0
O202 O 0.69994 0.80751 0.75872 0.0
C203 C 0.64963 0.84589 0.77674 0.0
C204 C 0.65339 0.85784 0.51973 0.0
C205 C 0.70934 0.82207 0.71815 0.0
O206 O 0.65671 0.85213 0.70751 0.0
O207 O 0.65164 0.82666 0.80278 0.0
O208 O 0.67825 0.814 0.53211 0.0
O209 O 0.66122 0.80725 0.6435 0.0
Co210 Co 0.91757 0.92367 0.36455 0.0
O211 O 0.91297 0.89723 0.30394 0.0
O212 O 0.89289 0.9262 0.29207 0.0
C213 C 0.95406 0.92493 0.34454 0.0
O214 O 0.91737 0.95451 0.41104 0.0
Co215 Co 0.94583 0.92566 0.51674 0.0
O216 O 0.93841 0.95659 0.52065 0.0
C217 C 0.90334 0.90529 0.52576 0.0
C218 C 0.89693 0.90669 0.26873 0.0
C219 C 0.92572 0.96514 0.46995 0.0
O220 O 0.89853 0.91271 0.45554 0.0
O221 O 0.92212 0.90685 0.5564 0.0
O222 O 0.94081 0.93194 0.29021 0.0
O223 O 0.94507 0.91616 0.40603 0.0
Co224 Co 0.66806 0.67078 0.60997 0.0
O225 O 0.6427 0.66506 0.54438 0.0
O226 O 0.67179 0.64497 0.54334 0.0
C227 C 0.66977 0.70662 0.58056 0.0
O228 O 0.69807 0.67244 0.66514 0.0
Co229 Co 0.66593 0.70254 0.75423 0.0
O230 O 0.69689 0.69668 0.76556 0.0
C231 C 0.64747 0.65918 0.77159 0.0
C232 C 0.65273 0.6487 0.5141 0.0
C233 C 0.70718 0.6833 0.72237 0.0
O234 O 0.65518 0.65338 0.70272 0.0
O235 O 0.64886 0.67833 0.79884 0.0
O236 O 0.67763 0.69244 0.53151 0.0
O237 O 0.65978 0.6987 0.64153 0.0
Co238 Co 0.58602 0.418 0.862 0.0
O239 O 0.59153 0.39246 0.79752 0.0
O240 O 0.61158 0.42156 0.79416 0.0
C241 C 0.55007 0.41963 0.83425 0.0
O242 O 0.58451 0.44807 0.91595 0.0
Co243 Co 0.55483 0.41612 1.00802 0.0
O244 O 0.56012 0.44724 0.01603 0.0
C245 C 0.59841 0.39802 0.02388 0.0
C246 C 0.60777 0.4024 0.76609 0.0
C247 C 0.57359 0.45734 0.97257 0.0
O248 O 0.60384 0.40554 0.95437 0.0
O249 O 0.57934 0.39924 0.05213 0.0
O250 O 0.56408 0.42731 0.78413 0.0
O251 O 0.55822 0.4098 0.89524 0.0
Co252 Co 0.83962 0.33862 0.09548 0.0
O253 O 0.86422 0.34405 0.02615 0.0
O254 O 0.83499 0.36402 0.0278 0.0
C255 C 0.8376 0.30271 0.07057 0.0
O256 O 0.81034 0.33717 0.1548 0.0
Co257 Co 0.8438 0.30785 0.24211 0.0
O258 O 0.81376 0.31611 0.26334 0.0
C259 C 0.86174 0.35144 0.2529 0.0
C260 C 0.85383 0.36029 0.99666 0.0
C261 C 0.80241 0.32808 0.21812 0.0
O262 O 0.85327 0.35672 0.1847 0.0
O263 O 0.86107 0.33243 0.28168 0.0
O264 O 0.82912 0.31639 0.02089 0.0
O265 O 0.84846 0.31106 0.12843 0.0
Co266 Co 0.92372 0.59154 0.3552 0.0
O267 O 0.91812 0.61686 0.28927 0.0
O268 O 0.89828 0.58761 0.28703 0.0
C269 C 0.95982 0.58987 0.32945 0.0
O270 O 0.92517 0.56161 0.41 0.0
Co271 Co 0.95471 0.59356 0.50246 0.0
O272 O 0.94919 0.5625 0.51133 0.0
C273 C 0.91105 0.61173 0.5163 0.0
C274 C 0.90193 0.6067 0.25818 0.0
C275 C 0.93587 0.55239 0.4673 0.0
O276 O 0.90571 0.60419 0.44668 0.0
O277 O 0.93006 0.6104 0.54518 0.0
O278 O 0.946 0.58216 0.27859 0.0
O279 O 0.95141 0.5998 0.38962 0.0
Co280 Co 0.66989 0.33757 0.40806 0.0
O281 O 0.64351 0.34197 0.4697 0.0
O282 O 0.67215 0.36255 0.47884 0.0
C283 C 0.67121 0.30127 0.43119 0.0
O284 O 0.70077 0.33856 0.36065 0.0
Co285 Co 0.67395 0.30782 0.26022 0.0
O286 O 0.70513 0.31361 0.26449 0.0
C287 C 0.65184 0.34981 0.24459 0.0
C288 C 0.65283 0.35824 0.5039 0.0
C289 C 0.71253 0.3285 0.30881 0.0
O290 O 0.65778 0.35554 0.31591 0.0
O291 O 0.65553 0.33118 0.21519 0.0
O292 O 0.67872 0.31478 0.48371 0.0
O293 O 0.66277 0.30986 0.36837 0.0
Co294 Co 0.92132 0.42039 0.64401 0.0
O295 O 0.91456 0.39463 0.70548 0.0
O296 O 0.89506 0.42414 0.70761 0.0
C297 C 0.95692 0.42093 0.67745 0.0
O298 O 0.92373 0.45077 0.59318 0.0
Co299 Co 0.95455 0.4197 0.50367 0.0
O300 O 0.94965 0.45089 0.49861 0.0
C301 C 0.91106 0.40179 0.47848 0.0
C302 C 0.8982 0.40482 0.73515 0.0
C303 C 0.93542 0.46054 0.54007 0.0
O304 O 0.90461 0.40867 0.54773 0.0
O305 O 0.93043 0.40357 0.45365 0.0
O306 O 0.94256 0.42867 0.72615 0.0
O307 O 0.94926 0.41192 0.61404 0.0
Co308 Co 0.83985 0.67209 0.90186 0.0
O309 O 0.86594 0.66657 0.96368 0.0
O310 O 0.83701 0.64632 0.96887 0.0
C311 C 0.83837 0.70805 0.93088 0.0
O312 O 0.80926 0.67317 0.85136 0.0
Co313 Co 0.8394 0.7039 0.7571 0.0
O314 O 0.80822 0.69848 0.75461 0.0
C315 C 0.859 0.66095 0.73801 0.0
C316 C 0.85631 0.65017 0.9955 0.0
C317 C 0.79905 0.68424 0.79744 0.0
O318 O 0.85196 0.65486 0.80749 0.0
O319 O 0.85685 0.68007 0.71107 0.0
O320 O 0.83116 0.69389 0.98145 0.0
O321 O 0.8474 0.70001 0.86812 0.0
Co322 Co 0.5856 0.58874 0.15737 0.0
O323 O 0.59154 0.61429 0.22149 0.0
O324 O 0.61147 0.5851 0.22359 0.0
C325 C 0.54964 0.58725 0.18643 0.0
O326 O 0.58399 0.5586 0.10398 0.0
Co327 Co 0.5537 0.59004 0.01283 0.0
O328 O 0.55914 0.55893 1.00541 0.0
C329 C 0.59708 0.60863 0.99463 0.0
C330 C 0.60793 0.60428 0.25189 0.0
C331 C 0.57295 0.54909 0.04825 0.0
O332 O 0.60297 0.6012 0.06382 0.0
O333 O 0.5779 0.60706 0.96752 0.0
O334 O 0.56379 0.57965 0.23635 0.0
O335 O 0.55768 0.59687 0.1249 0.0
Co336 Co 0.34001 0.33335 0.4151 0.0
O337 O 0.36502 0.33836 0.48296 0.0
O338 O 0.3363 0.35904 0.48205 0.0
C339 C 0.33722 0.29753 0.44151 0.0
O340 O 0.31055 0.33263 0.3567 0.0
Co341 Co 0.34283 0.30242 0.269 0.0
O342 O 0.31268 0.31078 0.24957 0.0
C343 C 0.36233 0.34525 0.25734 0.0
C344 C 0.35519 0.35495 0.51232 0.0
C345 C 0.30203 0.32346 0.29448 0.0
O346 O 0.3538 0.3509 0.32492 0.0
O347 O 0.36134 0.32618 0.2293 0.0
O348 O 0.32924 0.31157 0.49092 0.0
O349 O 0.34806 0.30544 0.38269 0.0
Co350 Co 0.42012 0.58721 0.15927 0.0
O351 O 0.41524 0.61342 0.22062 0.0
O352 O 0.39477 0.58476 0.2288 0.0
C353 C 0.45625 0.58568 0.1841 0.0
O354 O 0.42038 0.55689 0.10904 0.0
Co355 Co 0.45037 0.58676 0.01141 0.0
O356 O 0.44615 0.55515 0.0144 0.0
C357 C 0.4069 0.60547 0.99561 0.0
C358 C 0.39886 0.60414 0.254 0.0
C359 C 0.43155 0.54633 0.05677 0.0
O360 O 0.4019 0.59812 0.06569 0.0
O361 O 0.42623 0.60496 0.96905 0.0
O362 O 0.44258 0.57842 0.23641 0.0
O363 O 0.44777 0.59488 0.12252 0.0
Co364 Co 0.17101 0.67014 0.91295 0.0
O365 O 0.14494 0.66374 0.97272 0.0
O366 O 0.17441 0.64438 0.97983 0.0
C367 C 0.1712 0.70601 0.94168 0.0
O368 O 0.20136 0.67278 0.86327 0.0
Co369 Co 0.16839 0.70133 0.76686 0.0
O370 O 0.19999 0.69727 0.76335 0.0
C371 C 0.15232 0.65722 0.74962 0.0
C372 C 0.1548 0.64755 1.00487 0.0
C373 C 0.21036 0.684 0.80707 0.0
O374 O 0.16111 0.65217 0.8173 0.0
O375 O 0.15093 0.67669 0.72539 0.0
O376 O 0.1785 0.69217 0.99325 0.0
O377 O 0.16231 0.69757 0.87934 0.0
Co378 Co 0.08572 0.416 0.65211 0.0
O379 O 0.08997 0.38937 0.71146 0.0
O380 O 0.11069 0.4175 0.72376 0.0
C381 C 0.04981 0.41867 0.67815 0.0
O382 O 0.08658 0.44655 0.6031 0.0
Co383 Co 0.05469 0.41931 0.50616 0.0
O384 O 0.05974 0.45053 0.51349 0.0
C385 C 0.0976 0.39902 0.4862 0.0
C386 C 0.10615 0.39814 0.748 0.0
C387 C 0.07531 0.45814 0.55407 0.0
O388 O 0.10318 0.40401 0.55865 0.0
O389 O 0.07889 0.40272 0.45718 0.0
O390 O 0.06386 0.42539 0.73 0.0
O391 O 0.05769 0.4095 0.61539 0.0
Co392 Co 0.33995 0.67165 0.61205 0.0
O393 O 0.36533 0.66522 0.54831 0.0
O394 O 0.33532 0.64654 0.54294 0.0
C395 C 0.33968 0.70769 0.58664 0.0
O396 O 0.31014 0.6743 0.66652 0.0
Co397 Co 0.34412 0.70183 0.76053 0.0
O398 O 0.31279 0.69713 0.77122 0.0
C399 C 0.35964 0.65735 0.77195 0.0
C400 C 0.35475 0.64953 0.51594 0.0
C401 C 0.3018 0.68473 0.72627 0.0
O402 O 0.35104 0.65288 0.70337 0.0
O403 O 0.36038 0.67635 0.80105 0.0
O404 O 0.33164 0.69422 0.53532 0.0
O405 O 0.34931 0.69889 0.64685 0.0
Co406 Co 0.08925 0.58793 0.36529 0.0
O407 O 0.09443 0.61304 0.29856 0.0
O408 O 0.11451 0.58386 0.29668 0.0
C409 C 0.05314 0.58659 0.34054 0.0
O410 O 0.08863 0.55846 0.42244 0.0
Co411 Co 0.05895 0.58942 0.51272 0.0
O412 O 0.06107 0.55764 0.5097 0.0
C413 C 0.10283 0.60768 0.52519 0.0
C414 C 0.11073 0.60295 0.26802 0.0
C415 C 0.07637 0.54834 0.47252 0.0
O416 O 0.10763 0.60039 0.4549 0.0
O417 O 0.08398 0.60622 0.55576 0.0
O418 O 0.06675 0.57819 0.29042 0.0
O419 O 0.06166 0.59656 0.40046 0.0
Co420 Co 0.16895 0.33349 0.11267 0.0
O421 O 0.14192 0.33785 0.05511 0.0
O422 O 0.17109 0.35641 0.03288 0.0
C423 C 0.16941 0.29666 0.10057 0.0
O424 O 0.20038 0.33418 0.15516 0.0
Co425 Co 0.17296 0.30795 0.27063 0.0
O426 O 0.20294 0.31839 0.27619 0.0
C427 C 0.15098 0.34963 0.27095 0.0
C428 C 0.1512 0.35279 0.01316 0.0
C429 C 0.21123 0.32879 0.2184 0.0
O430 O 0.15838 0.35396 0.20023 0.0
O431 O 0.15321 0.33135 0.30471 0.0
O432 O 0.17614 0.30889 0.04261 0.0
O433 O 0.16177 0.30684 0.16174 0.0
Co434 Co 0.42158 0.41553 0.86932 0.0
O435 O 0.41709 0.39009 0.80296 0.0
O436 O 0.39537 0.418 0.80453 0.0
C437 C 0.45715 0.41894 0.83862 0.0
O438 O 0.4209 0.44517 0.9255 0.0
Co439 Co 0.45426 0.41733 1.01053 0.0
O440 O 0.44935 0.44865 1.008 0.0
C441 C 0.41193 0.39609 0.03349 0.0
C442 C 0.40003 0.3993 0.77421 0.0
C443 C 0.43295 0.45646 0.9728 0.0
O444 O 0.4055 0.40169 0.96264 0.0
O445 O 0.43082 0.39993 0.06047 0.0
O446 O 0.44253 0.42652 0.79058 0.0
O447 O 0.45 0.4088 0.90037 0.0
C448 C 0.26554 0.15483 0.28394 0.0
C449 C 0.27513 0.17566 0.28677 0.0
C450 C 0.24204 0.19076 0.22937 0.0
C451 C 0.23138 0.17089 0.23886 0.0
N452 N 0.23226 0.13418 0.2838 0.0
N453 N 0.26923 0.21419 0.28295 0.0
C454 C 0.24291 0.15293 0.26887 0.0
C455 C 0.26243 0.19385 0.26536 0.0
N456 N 0.27799 0.13685 0.29139 0.0
N457 N 0.23281 0.20669 0.18485 0.0
H458 H 0.28325 0.21735 0.31507 0.0
H459 H 0.2596 0.22773 0.27444 0.0
H460 H 0.21852 0.20432 0.15322 0.0
H461 H 0.24065 0.22105 0.17132 0.0
H462 H 0.27207 0.12138 0.28238 0.0
H463 H 0.29461 0.13739 0.29868 0.0
H464 H 0.23925 0.12126 0.31382 0.0
H465 H 0.21599 0.13216 0.27023 0.0
C466 C 0.05822 0.98361 0.54648 0.0
C467 C 0.07501 0.97311 0.5028 0.0
C468 C 0.09523 0.00725 0.50695 0.0
C469 C 0.07934 0.01635 0.55767 0.0
N470 N 0.05076 0.00947 0.65069 0.0
N471 N 0.11259 0.97438 0.46336 0.0
C472 C 0.06259 0.00323 0.58601 0.0
C473 C 0.0945 0.98473 0.48906 0.0
N474 N 0.03762 0.97599 0.54596 0.0
N475 N 0.11092 0.02004 0.47548 0.0
H476 H 0.11348 0.95779 0.45633 0.0
H477 H 0.12746 0.982 0.45856 0.0
H478 H 0.11238 0.03626 0.4906 0.0
H479 H 0.12155 0.01477 0.43136 0.0
H480 H 0.02494 0.98426 0.57296 0.0
H481 H 0.03253 0.96341 0.50951 0.0
H482 H 0.03898 0.99971 0.67631 0.0
H483 H 0.05482 0.02307 0.68407 0.0
C484 C 0.24291 0.80495 0.76775 0.0
C485 C 0.23091 0.82423 0.77788 0.0
C486 C 0.26418 0.84483 0.75148 0.0
C487 C 0.27523 0.82544 0.73254 0.0
N488 N 0.27257 0.78764 0.70121 0.0
N489 N 0.22962 0.86286 0.76423 0.0
C490 C 0.26376 0.80574 0.734 0.0
C491 C 0.2414 0.84434 0.7657 0.0
N492 N 0.23484 0.78573 0.79352 0.0
N493 N 0.27544 0.86355 0.75893 0.0
H494 H 0.21301 0.86314 0.77265 0.0
H495 H 0.23605 0.87766 0.74759 0.0
H496 H 0.29197 0.86451 0.74916 0.0
H497 H 0.26866 0.87769 0.78092 0.0
H498 H 0.24397 0.77168 0.79485 0.0
H499 H 0.22002 0.7842 0.8219 0.0
H500 H 0.26379 0.7736 0.69194 0.0
H501 H 0.28778 0.78738 0.67517 0.0
C502 C 0.41398 0.01501 1.00766 0.0
C503 C 0.43392 0.02583 0.99548 0.0
C504 C 0.45297 0.9937 0.04336 0.0
C505 C 0.43348 0.98188 0.04485 0.0
N506 N 0.39546 0.98068 0.01592 0.0
N507 N 0.47262 0.02276 0.9829 0.0
C508 C 0.41392 0.99236 0.02375 0.0
C509 C 0.45345 0.01436 1.00792 0.0
N510 N 0.39519 0.02638 1.00746 0.0
N511 N 0.47113 0.98542 0.07769 0.0
H512 H 0.47394 0.03746 0.95364 0.0
H513 H 0.48692 0.014 0.98321 0.0
H514 H 0.47153 0.97042 0.10533 0.0
H515 H 0.48506 0.99443 0.0865 0.0
H516 H 0.38048 0.01972 0.0241 0.0
H517 H 0.39454 0.04291 0.99785 0.0
H518 H 0.38129 0.98703 0.99232 0.0
H519 H 0.39477 0.9642 0.02685 0.0
C520 C 0.76556 0.84421 0.77164 0.0
C521 C 0.77718 0.82459 0.78008 0.0
C522 C 0.74569 0.80497 0.72925 0.0
C523 C 0.73314 0.82404 0.73105 0.0
N524 N 0.73052 0.86154 0.76662 0.0
N525 N 0.77597 0.78571 0.78371 0.0
C526 C 0.7429 0.84365 0.75552 0.0
C527 C 0.76655 0.80483 0.76359 0.0
N528 N 0.77619 0.86339 0.77533 0.0
N529 N 0.73789 0.78693 0.69266 0.0
H530 H 0.79095 0.78457 0.81126 0.0
H531 H 0.76789 0.77106 0.78089 0.0
H532 H 0.72274 0.78629 0.66616 0.0
H533 H 0.74733 0.77344 0.68109 0.0
H534 H 0.76895 0.87803 0.76138 0.0
H535 H 0.79271 0.86453 0.78494 0.0
H536 H 0.73633 0.87558 0.79281 0.0
H537 H 0.71401 0.86178 0.75578 0.0
C538 C 0.93986 1.00184 0.44693 0.0
C539 C 0.92299 0.98891 0.4757 0.0
C540 C 0.90774 0.02095 0.54124 0.0
C541 C 0.92723 0.03251 0.52656 0.0
N542 N 0.96474 0.0293 0.48563 0.0
N543 N 0.89128 0.98572 0.55737 0.0
C544 C 0.94413 0.02168 0.48484 0.0
C545 C 0.90702 0.99832 0.52528 0.0
N546 N 0.95184 0.99523 0.38314 0.0
N547 N 0.88964 0.03146 0.56596 0.0
H548 H 0.88985 0.96941 0.54356 0.0
H549 H 0.88055 0.99125 0.60073 0.0
H550 H 0.88877 0.04808 0.57194 0.0
H551 H 0.87476 0.02388 0.57124 0.0
H552 H 0.9637 0.00484 0.35723 0.0
H553 H 0.94788 0.98145 0.35066 0.0
H554 H 0.97751 0.02084 0.46006 0.0
H555 H 0.96966 0.04217 0.52107 0.0
C556 C 0.73956 0.20477 0.27654 0.0
C557 C 0.72837 0.18502 0.28688 0.0
C558 C 0.7623 0.16568 0.25869 0.0
C559 C 0.77256 0.18547 0.23945 0.0
N560 N 0.76856 0.22334 0.2106 0.0
N561 N 0.72851 0.1464 0.27265 0.0
C562 C 0.76042 0.20481 0.24248 0.0
C563 C 0.73958 0.16534 0.27393 0.0
N564 N 0.73063 0.22367 0.30191 0.0
N565 N 0.77425 0.14736 0.26579 0.0
H566 H 0.71196 0.14547 0.28197 0.0
H567 H 0.73543 0.13188 0.25525 0.0
H568 H 0.7908 0.14697 0.25592 0.0
H569 H 0.76805 0.133 0.28802 0.0
H570 H 0.73914 0.23809 0.30409 0.0
H571 H 0.71557 0.22463 0.32881 0.0
H572 H 0.75945 0.23728 0.20325 0.0
H573 H 0.78363 0.22419 0.18367 0.0
C574 C 0.55669 0.01136 0.98095 0.0
C575 C 0.57606 0.0234 0.98146 0.0
C576 C 0.59562 0.99035 0.01966 0.0
C577 C 0.57572 0.97933 0.02998 0.0
N578 N 0.53692 0.98213 0.03956 0.0
N579 N 0.6139 0.02488 0.01307 0.0
C580 C 0.55617 0.99066 0.01607 0.0
C581 C 0.59559 0.01304 1.00384 0.0
N582 N 0.53867 0.01953 0.94519 0.0
N583 N 0.61451 0.97915 0.02145 0.0
H584 H 0.61449 0.04136 1.00209 0.0
H585 H 0.628 0.01865 0.03758 0.0
H586 H 0.61522 0.96262 0.03097 0.0
H587 H 0.62927 0.98595 1.00629 0.0
H588 H 0.52487 0.01041 0.9351 0.0
H589 H 0.53833 0.03455 0.91771 0.0
H590 H 0.52257 0.99078 0.0381 0.0
H591 H 0.53554 0.96743 0.06884 0.0
C592 C 0.74227 0.70185 0.75 0.0
C593 C 0.73105 0.68221 0.73738 0.0
C594 C 0.76492 0.66268 0.76523 0.0
C595 C 0.77515 0.68235 0.78648 0.0
N596 N 0.77098 0.71985 0.82002 0.0
N597 N 0.73115 0.6435 0.74827 0.0
C598 C 0.76297 0.70163 0.78539 0.0
C599 C 0.74222 0.66243 0.74909 0.0
N600 N 0.73358 0.72092 0.72519 0.0
N601 N 0.7769 0.64441 0.75737 0.0
H602 H 0.71462 0.64265 0.73827 0.0
H603 H 0.73803 0.62886 0.76453 0.0
H604 H 0.79339 0.64396 0.76863 0.0
H605 H 0.77078 0.63018 0.73369 0.0
H606 H 0.74213 0.73532 0.72564 0.0
H607 H 0.71884 0.72206 0.69592 0.0
H608 H 0.76175 0.73363 0.82896 0.0
H609 H 0.78598 0.7204 0.84778 0.0
C610 C 0.59446 0.49206 1.00168 0.0
C611 C 0.57473 0.48119 0.98631 0.0
C612 C 0.55498 0.51344 0.02883 0.0
C613 C 0.57447 0.52526 0.03483 0.0
N614 N 0.61284 0.52642 0.01318 0.0
N615 N 0.53629 0.48401 0.9662 0.0
C616 C 0.59429 0.51474 0.01764 0.0
C617 C 0.55505 0.49266 0.99422 0.0
N618 N 0.61325 0.48072 1.00442 0.0
N619 N 0.53626 0.52178 0.0586 0.0
H620 H 0.53547 0.46902 0.93876 0.0
H621 H 0.52197 0.49268 0.96241 0.0
H622 H 0.53538 0.53677 0.08605 0.0
H623 H 0.52213 0.51287 0.06376 0.0
H624 H 0.62774 0.48735 0.02371 0.0
H625 H 0.61403 0.46422 0.99398 0.0
H626 H 0.62732 0.52005 0.99255 0.0
H627 H 0.61337 0.54292 0.02362 0.0
C628 C 0.74371 0.34869 0.24471 0.0
C629 C 0.73597 0.33325 0.30035 0.0
C630 C 0.76944 0.31359 0.28784 0.0
C631 C 0.77893 0.33021 0.2407 0.0
N632 N 0.77524 0.36698 0.19308 0.0
N633 N 0.74625 0.30781 0.40111 0.0
C634 C 0.76615 0.34886 0.22418 0.0
C635 C 0.75042 0.31794 0.33063 0.0
N636 N 0.72975 0.36301 0.21118 0.0
N637 N 0.77748 0.29316 0.28811 0.0
H638 H 0.73372 0.31298 0.43806 0.0
H639 H 0.75697 0.29687 0.42676 0.0
H640 H 0.78929 0.28802 0.24809 0.0
H641 H 0.77003 0.28072 0.31963 0.0
H642 H 0.73405 0.37317 0.16416 0.0
H643 H 0.71359 0.36376 0.22796 0.0
H644 H 0.76673 0.3813 0.18605 0.0
H645 H 0.79168 0.36861 0.18312 0.0
C646 C 0.95367 0.49617 0.52582 0.0
C647 C 0.9341 0.48441 0.52821 0.0
C648 C 0.9146 0.51778 0.49376 0.0
C649 C 0.93453 0.52858 0.48133 0.0
N650 N 0.97314 0.52553 0.46639 0.0
N651 N 0.89597 0.48349 0.50087 0.0
C652 C 0.95406 0.517 0.49174 0.0
C653 C 0.9145 0.49507 0.50865 0.0
N654 N 0.97199 0.48768 0.5583 0.0
N655 N 0.89585 0.52922 0.49478 0.0
H656 H 0.89525 0.46696 0.5104 0.0
H657 H 0.88175 0.49001 0.47842 0.0
H658 H 0.89525 0.54577 0.48554 0.0
H659 H 0.88117 0.52258 0.51182 0.0
H660 H 0.9861 0.49651 0.56585 0.0
H661 H 0.97247 0.47265 0.58558 0.0
H662 H 0.98743 0.51676 0.4646 0.0
H663 H 0.97434 0.54051 0.43901 0.0
C664 C 0.26718 0.30889 0.23865 0.0
C665 C 0.27859 0.32645 0.27355 0.0
C666 C 0.24524 0.34791 0.26329 0.0
C667 C 0.23513 0.33094 0.22081 0.0
N668 N 0.23982 0.2988 0.14305 0.0
N669 N 0.27907 0.36482 0.2991 0.0
C670 C 0.2473 0.31267 0.19985 0.0
C671 C 0.26782 0.34667 0.28039 0.0
N672 N 0.2744 0.28825 0.24689 0.0
N673 N 0.2333 0.36509 0.28788 0.0
H674 H 0.29569 0.36499 0.3069 0.0
H675 H 0.27221 0.3801 0.29817 0.0
H676 H 0.2171 0.36682 0.27267 0.0
H677 H 0.23922 0.37684 0.32655 0.0
H678 H 0.26555 0.27502 0.22732 0.0
H679 H 0.28752 0.28412 0.28253 0.0
H680 H 0.24884 0.2858 0.12224 0.0
H681 H 0.22591 0.30202 0.11012 0.0
C682 C 0.42319 0.51717 0.95724 0.0
C683 C 0.42656 0.52324 0.03854 0.0
C684 C 0.4257 0.48503 0.07578 0.0
C685 C 0.42717 0.47915 0.9935 0.0
N686 N 0.42777 0.49003 0.85457 0.0
N687 N 0.43107 0.51254 0.17671 0.0
C688 C 0.42571 0.49529 0.9337 0.0
C689 C 0.42748 0.50707 0.09854 0.0
N690 N 0.41694 0.53233 0.90285 0.0
N691 N 0.42209 0.46949 0.13208 0.0
H692 H 0.43158 0.52836 0.19676 0.0
H693 H 0.43476 0.50135 0.22108 0.0
H694 H 0.41999 0.45334 0.11701 0.0
H695 H 0.41885 0.47284 0.19205 0.0
H696 H 0.41233 0.52872 0.84433 0.0
H697 H 0.41394 0.5482 0.9194 0.0
H698 H 0.42966 0.50143 0.80938 0.0
H699 H 0.429 0.47426 0.83422 0.0
C700 C 0.26727 0.66366 0.75455 0.0
C701 C 0.27812 0.68362 0.74367 0.0
C702 C 0.24589 0.7025 0.79235 0.0
C703 C 0.23415 0.68297 0.79323 0.0
N704 N 0.23296 0.6451 0.76254 0.0
N705 N 0.27551 0.72238 0.73609 0.0
C706 C 0.24465 0.66353 0.77104 0.0
C707 C 0.26677 0.70311 0.75812 0.0
N708 N 0.27864 0.64488 0.75295 0.0
N709 N 0.23733 0.72056 0.82637 0.0
H710 H 0.29047 0.72382 0.70862 0.0
H711 H 0.26691 0.73674 0.73736 0.0
H712 H 0.22207 0.72093 0.85206 0.0
H713 H 0.24626 0.73444 0.83676 0.0
H714 H 0.272 0.63011 0.76877 0.0
H715 H 0.29518 0.64426 0.74318 0.0
H716 H 0.23927 0.63105 0.73801 0.0
H717 H 0.21648 0.64434 0.7738 0.0
C718 C 0.0846 0.4872 0.45612 0.0
C719 C 0.08117 0.48101 0.53712 0.0
C720 C 0.08165 0.51907 0.57582 0.0
C721 C 0.08067 0.52524 0.49344 0.0
N722 N 0.08001 0.51449 0.3541 0.0
N723 N 0.07648 0.49115 0.67542 0.0
C724 C 0.08218 0.50915 0.43316 0.0
C725 C 0.08004 0.49696 0.59757 0.0
N726 N 0.09055 0.47201 0.40124 0.0
N727 N 0.08473 0.53436 0.63345 0.0
H728 H 0.07661 0.47525 0.69477 0.0
H729 H 0.07234 0.50205 0.72022 0.0
H730 H 0.08627 0.55061 0.6201 0.0
H731 H 0.0879 0.53079 0.6933 0.0
H732 H 0.09532 0.4757 0.34299 0.0
H733 H 0.09297 0.45593 0.41677 0.0
H734 H 0.07824 0.50313 0.30871 0.0
H735 H 0.0783 0.53021 0.33384 0.0
C736 C 0.13536 0.14415 0.88022 0.0
C737 C 0.13997 0.13341 0.95355 0.0
C738 C 0.12114 0.10123 0.90222 0.0
C739 C 0.11808 0.11129 0.82613 0.0
N740 N 0.12565 0.1415 0.73967 0.0
N741 N 0.14013 0.10055 0.02975 0.0
C742 C 0.12603 0.13257 0.81454 0.0
C743 C 0.13388 0.11154 0.96273 0.0
N744 N 0.13986 0.16557 0.87312 0.0
N745 N 0.11059 0.08251 0.91928 0.0
H746 H 0.14856 0.1077 0.07675 0.0
H747 H 0.13842 0.08398 0.036 0.0
H748 H 0.10018 0.07499 0.87921 0.0
H749 H 0.11026 0.07562 0.97615 0.0
H750 H 0.13431 0.17508 0.82609 0.0
H751 H 0.14811 0.17423 0.91688 0.0
H752 H 0.13352 0.15573 0.72495 0.0
H753 H 0.11908 0.13385 0.68996 0.0
C754 C 0.12055 0.88013 0.04394 0.0
C755 C 0.14084 0.87022 0.05842 0.0
C756 C 0.13837 0.88092 0.2013 0.0
C757 C 0.11819 0.8909 0.18642 0.0
N758 N 0.09179 0.90342 0.09187 0.0
N759 N 0.17046 0.86351 0.14861 0.0
C760 C 0.10979 0.89145 0.10714 0.0
C761 C 0.15024 0.87152 0.13633 0.0
N762 N 0.11144 0.87857 0.9695 0.0
N763 N 0.14568 0.87953 0.27849 0.0
H764 H 0.17908 0.85521 0.10489 0.0
H765 H 0.17934 0.86607 0.20061 0.0
H766 H 0.13772 0.88663 0.32675 0.0
H767 H 0.15887 0.87036 0.29599 0.0
H768 H 0.0956 0.88276 0.95687 0.0
H769 H 0.11952 0.8722 0.92012 0.0
H770 H 0.08587 0.90649 0.03467 0.0
H771 H 0.08357 0.91184 0.13643 0.0
C772 C 0.37648 0.8721 0.30962 0.0
C773 C 0.38599 0.89258 0.32244 0.0
C774 C 0.37175 0.89239 0.46111 0.0
C775 C 0.36454 0.87089 0.45099 0.0
N776 N 0.36131 0.83956 0.36663 0.0
N777 N 0.39503 0.92114 0.4143 0.0
C778 C 0.36731 0.86056 0.37549 0.0
C779 C 0.38402 0.90257 0.399 0.0
N780 N 0.37538 0.86403 0.23344 0.0
N781 N 0.36704 0.90308 0.5305 0.0
H782 H 0.40443 0.92893 0.37156 0.0
H783 H 0.39635 0.92794 0.47111 0.0
H784 H 0.35904 0.89588 0.57844 0.0
H785 H 0.36961 0.91948 0.53838 0.0
H786 H 0.36672 0.85032 0.21817 0.0
H787 H 0.38138 0.87221 0.18365 0.0
H788 H 0.36546 0.83023 0.31718 0.0
H789 H 0.35319 0.83097 0.41088 0.0
C790 C 0.37607 0.13372 0.72144 0.0
C791 C 0.38557 0.11324 0.70844 0.0
C792 C 0.37124 0.1135 0.56984 0.0
C793 C 0.36401 0.13501 0.58015 0.0
N794 N 0.36066 0.16625 0.66494 0.0
N795 N 0.3944 0.0846 0.61669 0.0
C796 C 0.36678 0.14528 0.65577 0.0
C797 C 0.3835 0.10325 0.63193 0.0
N798 N 0.3751 0.14177 0.79768 0.0
N799 N 0.36658 0.10288 0.50026 0.0
H800 H 0.40368 0.0767 0.65961 0.0
H801 H 0.39571 0.07779 0.5599 0.0
H802 H 0.35868 0.11014 0.45217 0.0
H803 H 0.36913 0.08649 0.4922 0.0
H804 H 0.36648 0.15549 0.81323 0.0
H805 H 0.38121 0.13357 0.84729 0.0
H806 H 0.3648 0.17557 0.71441 0.0
H807 H 0.35238 0.17482 0.62097 0.0
C808 C 0.85345 0.87669 0.14691 0.0
C809 C 0.86434 0.87334 0.07233 0.0
C810 C 0.89525 0.8943 0.12474 0.0
C811 C 0.88507 0.89619 0.20049 0.0
N812 N 0.85519 0.88827 0.28667 0.0
N813 N 0.89703 0.87729 0.9945 0.0
C814 C 0.86424 0.88735 0.212 0.0
C815 C 0.88563 0.88167 0.06265 0.0
N816 N 0.83294 0.86924 0.15661 0.0
N817 N 0.91389 0.90539 0.11091 0.0
H818 H 0.89055 0.86978 0.94444 0.0
H819 H 0.91349 0.87997 0.9889 0.0
H820 H 0.92151 0.91462 0.15466 0.0
H821 H 0.92085 0.90709 0.05452 0.0
H822 H 0.82298 0.87363 0.20396 0.0
H823 H 0.82536 0.85904 0.11605 0.0
H824 H 0.84136 0.87999 0.30331 0.0
H825 H 0.86226 0.89651 0.33432 0.0
C826 C 0.86937 0.11842 0.96753 0.0
C827 C 0.86201 0.13989 0.95716 0.0
C828 C 0.87434 0.13878 0.8162 0.0
C829 C 0.884 0.11838 0.82939 0.0
N830 N 0.89269 0.08962 0.92077 0.0
N831 N 0.85857 0.17113 0.87234 0.0
C832 C 0.8818 0.10829 0.90565 0.0
C833 C 0.86484 0.15021 0.88164 0.0
N834 N 0.86464 0.10775 0.03692 0.0
N835 N 0.87341 0.14685 0.73998 0.0
H836 H 0.85006 0.1796 0.9159 0.0
H837 H 0.86279 0.18052 0.82313 0.0
H838 H 0.87969 0.13875 0.69046 0.0
H839 H 0.86465 0.16047 0.72426 0.0
H840 H 0.86734 0.09139 0.04512 0.0
H841 H 0.85652 0.11493 0.08462 0.0
H842 H 0.89388 0.0827 0.9774 0.0
H843 H 0.90204 0.08181 0.87787 0.0
C844 C 0.60993 0.11628 0.62596 0.0
C845 C 0.62035 0.1137 0.70144 0.0
C846 C 0.65164 0.13385 0.64934 0.0
C847 C 0.64151 0.13571 0.57293 0.0
N848 N 0.61315 0.12453 0.48398 0.0
N849 N 0.65255 0.11683 0.78081 0.0
C850 C 0.62123 0.12575 0.56014 0.0
C851 C 0.64173 0.12135 0.71148 0.0
N852 N 0.58906 0.10981 0.61707 0.0
N853 N 0.67006 0.14514 0.66442 0.0
H854 H 0.64553 0.10866 0.82871 0.0
H855 H 0.6689 0.11975 0.7887 0.0
H856 H 0.67767 0.15464 0.62152 0.0
H857 H 0.67691 0.14655 0.72112 0.0
H858 H 0.5796 0.11379 0.56772 0.0
H859 H 0.58067 0.10142 0.66118 0.0
H860 H 0.59962 0.11558 0.46866 0.0
H861 H 0.62118 0.13076 0.43421 0.0
C862 C 0.62272 0.8808 0.46793 0.0
C863 C 0.64324 0.87136 0.45476 0.0
C864 C 0.64285 0.8857 0.31616 0.0
C865 C 0.62131 0.89284 0.32659 0.0
N866 N 0.5901 0.89613 0.41166 0.0
N867 N 0.67185 0.8626 0.36266 0.0
C868 C 0.61109 0.89006 0.40234 0.0
C869 C 0.65318 0.87346 0.37814 0.0
N870 N 0.61471 0.88173 0.54421 0.0
N871 N 0.65343 0.89042 0.24655 0.0
H872 H 0.67978 0.85328 0.40536 0.0
H873 H 0.67863 0.86134 0.3058 0.0
H874 H 0.64613 0.89838 0.19869 0.0
H875 H 0.66984 0.88791 0.23835 0.0
H876 H 0.60096 0.89032 0.55987 0.0
H877 H 0.62294 0.87561 0.59374 0.0
H878 H 0.5808 0.89196 0.46117 0.0
H879 H 0.5815 0.90441 0.36779 0.0
C880 C 0.64036 0.64647 0.36916 0.0
C881 C 0.6433 0.63623 0.44482 0.0
C882 C 0.62371 0.60446 0.39351 0.0
C883 C 0.6215 0.61441 0.31691 0.0
N884 N 0.63186 0.64292 0.22741 0.0
N885 N 0.64093 0.60412 0.52475 0.0
C886 C 0.63098 0.63489 0.30369 0.0
C887 C 0.6361 0.61473 0.4553 0.0
N888 N 0.64641 0.66744 0.35977 0.0
N889 N 0.61284 0.58584 0.40916 0.0
H890 H 0.64901 0.61137 0.57241 0.0
H891 H 0.63837 0.58773 0.53298 0.0
H892 H 0.60342 0.57798 0.36663 0.0
H893 H 0.61167 0.57904 0.46601 0.0
H894 H 0.64214 0.67675 0.31041 0.0
H895 H 0.65478 0.67601 0.40347 0.0
H896 H 0.64049 0.65661 0.21169 0.0
H897 H 0.6257 0.63473 0.17791 0.0
C898 C 0.64161 0.38543 0.70808 0.0
C899 C 0.62013 0.39272 0.69724 0.0
C900 C 0.62147 0.38027 0.55636 0.0
C901 C 0.64202 0.3709 0.56977 0.0
N902 N 0.67038 0.36192 0.66276 0.0
N903 N 0.58882 0.39556 0.61241 0.0
C904 C 0.65186 0.37298 0.64661 0.0
C905 C 0.60985 0.38963 0.62176 0.0
N906 N 0.65223 0.39027 0.77754 0.0
N907 N 0.61344 0.38117 0.48007 0.0
H908 H 0.58018 0.40386 0.65613 0.0
H909 H 0.57951 0.39121 0.56312 0.0
H910 H 0.62163 0.37501 0.43055 0.0
H911 H 0.5997 0.38977 0.46437 0.0
H912 H 0.66862 0.38767 0.78583 0.0
H913 H 0.64498 0.3984 0.82508 0.0
H914 H 0.6771 0.36073 0.71976 0.0
H915 H 0.67812 0.35224 0.62069 0.0
C916 C 0.87472 0.37448 0.78585 0.0
C917 C 0.88445 0.39481 0.79962 0.0
C918 C 0.87018 0.39433 0.93827 0.0
C919 C 0.86281 0.37291 0.92723 0.0
N920 N 0.85905 0.34197 0.84133 0.0
N921 N 0.89364 0.42306 0.89263 0.0
C922 C 0.86538 0.36284 0.85116 0.0
C923 C 0.88252 0.40461 0.87656 0.0
N924 N 0.87365 0.36665 0.70933 0.0
N925 N 0.86561 0.40481 1.00822 0.0
H926 H 0.90307 0.43094 0.85019 0.0
H927 H 0.89504 0.42967 0.94973 0.0
H928 H 0.85757 0.39753 0.05587 0.0
H929 H 0.86831 0.42116 0.01687 0.0
H930 H 0.8649 0.35306 0.69331 0.0
H931 H 0.87983 0.37491 0.66004 0.0
H932 H 0.863 0.33273 0.79142 0.0
H933 H 0.85074 0.33339 0.88518 0.0
C934 C 0.86771 0.62294 0.19978 0.0
C935 C 0.88934 0.61607 0.18911 0.0
C936 C 0.88757 0.62797 0.04762 0.0
C937 C 0.86689 0.63709 0.06087 0.0
N938 N 0.83839 0.64568 0.15367 0.0
N939 N 0.92054 0.61334 0.10379 0.0
C940 C 0.85713 0.63499 0.13784 0.0
C941 C 0.89944 0.61901 0.11325 0.0
N942 N 0.85725 0.61811 0.26956 0.0
N943 N 0.89551 0.62701 0.97124 0.0
H944 H 0.92936 0.60534 0.1478 0.0
H945 H 0.9297 0.61761 0.05405 0.0
H946 H 0.88711 0.63285 0.92165 0.0
H947 H 0.90938 0.61862 0.95561 0.0
H948 H 0.84081 0.62038 0.27786 0.0
H949 H 0.86472 0.61034 0.31749 0.0
H950 H 0.83172 0.64693 0.21071 0.0
H951 H 0.83032 0.65494 0.11115 0.0
C952 C 0.35558 0.37033 0.65422 0.0
C953 C 0.3654 0.36833 0.57742 0.0
C954 C 0.39768 0.38686 0.62951 0.0
C955 C 0.3876 0.38954 0.70557 0.0
N956 N 0.35567 0.38677 0.7867 0.0
N957 N 0.39386 0.37868 0.4876 0.0
C958 C 0.36608 0.38233 0.71645 0.0
C959 C 0.38595 0.37769 0.56404 0.0
N960 N 0.33681 0.35964 0.6694 0.0
N961 N 0.41862 0.39303 0.61963 0.0
H962 H 0.38556 0.37264 0.43813 0.0
H963 H 0.40759 0.38724 0.47172 0.0
H964 H 0.42728 0.40136 0.66317 0.0
H965 H 0.42785 0.38891 0.56989 0.0
H966 H 0.33005 0.35824 0.72623 0.0
H967 H 0.32872 0.35065 0.62616 0.0
H968 H 0.33928 0.38429 0.79531 0.0
H969 H 0.36312 0.39435 0.83504 0.0
C970 C 0.36947 0.61504 0.4547 0.0
C971 C 0.36407 0.63713 0.44658 0.0
C972 C 0.37881 0.6367 0.30881 0.0
C973 C 0.38608 0.61515 0.31948 0.0
N974 N 0.39159 0.58523 0.40946 0.0
N975 N 0.36483 0.66957 0.36753 0.0
C976 C 0.38204 0.6046 0.39396 0.0
C977 C 0.36913 0.64807 0.37407 0.0
N978 N 0.36285 0.60404 0.52118 0.0
N979 N 0.38034 0.64617 0.23507 0.0
H980 H 0.35594 0.67811 0.40985 0.0
H981 H 0.37096 0.67927 0.32212 0.0
H982 H 0.38773 0.63892 0.18618 0.0
H983 H 0.37281 0.66057 0.22008 0.0
H984 H 0.36396 0.58741 0.52675 0.0
H985 H 0.35475 0.61134 0.56866 0.0
H986 H 0.39132 0.57781 0.46538 0.0
H987 H 0.40168 0.57743 0.36897 0.0
C988 C 0.123 0.62623 0.06006 0.0
C989 C 0.14433 0.63433 0.0704 0.0
C990 C 0.14444 0.61984 0.20918 0.0
C991 C 0.12305 0.61236 0.1989 0.0
N992 N 0.09359 0.60428 0.11059 0.0
N993 N 0.17374 0.64215 0.16063 0.0
C994 C 0.11278 0.61452 0.12329 0.0
C995 C 0.15478 0.63168 0.14616 0.0
N996 N 0.11206 0.63033 0.99056 0.0
N997 N 0.15493 0.61552 0.27944 0.0
H998 H 0.18144 0.65179 0.1185 0.0
H999 H 0.18105 0.64302 0.21662 0.0
H1000 H 0.14755 0.60791 0.32786 0.0
H1001 H 0.17131 0.61803 0.28826 0.0
H1002 H 0.09563 0.62785 0.98333 0.0
H1003 H 0.11898 0.63749 0.94062 0.0
H1004 H 0.08629 0.60275 0.05476 0.0
H1005 H 0.0857 0.5955 0.15493 0.0
C1006 C 0.10811 0.36945 0.85846 0.0
C1007 C 0.11792 0.38684 0.8163 0.0
C1008 C 0.1475 0.38473 0.91492 0.0
C1009 C 0.13983 0.36464 0.94516 0.0
N1010 N 0.11545 0.33496 0.9175 0.0
N1011 N 0.15143 0.40609 0.79497 0.0
C1012 C 0.12094 0.35606 0.90861 0.0
C1013 C 0.13897 0.39305 0.84148 0.0
N1014 N 0.08643 0.36607 0.8552 0.0
N1015 N 0.16205 0.39665 0.957 0.0
H1016 H 0.14717 0.41072 0.73715 0.0
H1017 H 0.16733 0.40969 0.80971 0.0
H1018 H 0.16681 0.39294 0.01519 0.0
H1019 H 0.16683 0.41193 0.9385 0.0
H1020 H 0.07893 0.35412 0.88903 0.0
H1021 H 0.0757 0.377 0.82996 0.0
H1022 H 0.10233 0.32824 0.88763 0.0
H1023 H 0.12557 0.3236 0.94343 0.0
C1024 C 0.18196 0.26113 0.15552 0.0
C1025 C 0.16998 0.27252 0.09734 0.0
C1026 C 0.15769 0.23779 0.04138 0.0
C1027 C 0.16816 0.22657 0.10508 0.0
N1028 N 0.18768 0.22872 0.22987 0.0
N1029 N 0.14433 0.27188 0.98922 0.0
C1030 C 0.17936 0.23864 0.16428 0.0
C1031 C 0.15742 0.26088 0.04077 0.0
N1032 N 0.19707 0.27166 0.19968 0.0
N1033 N 0.14763 0.22644 0.98213 0.0
H1034 H 0.14378 0.28861 0.98694 0.0
H1035 H 0.1329 0.26459 0.95266 0.0
H1036 H 0.14553 0.20984 0.98429 0.0
H1037 H 0.14217 0.23331 0.92898 0.0
H1038 H 0.20832 0.26405 0.23635 0.0
H1039 H 0.20001 0.28784 0.19148 0.0
H1040 H 0.19291 0.23681 0.28098 0.0
H1041 H 0.18842 0.21228 0.23401 0.0
C1042 C 0.98678 0.90504 0.29415 0.0
C1043 C 0.97784 0.92356 0.33129 0.0
C1044 C 0.01409 0.93917 0.34178 0.0
C1045 C 0.0232 0.91949 0.31621 0.0
N1046 N 0.01851 0.88305 0.27072 0.0
N1047 N 0.98368 0.95639 0.4045 0.0
C1048 C 0.0096 0.90224 0.29286 0.0
C1049 C 0.99168 0.9402 0.3584 0.0
N1050 N 0.97347 0.89022 0.25957 0.0
N1051 N 0.02679 0.95692 0.3504 0.0
H1052 H 0.96761 0.95691 0.42093 0.0
H1053 H 0.99324 0.96782 0.43301 0.0
H1054 H 0.04328 0.95674 0.3393 0.0
H1055 H 0.02062 0.97222 0.36115 0.0
H1056 H 0.97894 0.8775 0.22452 0.0
H1057 H 0.95674 0.89157 0.26068 0.0
H1058 H 0.00964 0.86905 0.26238 0.0
H1059 H 0.03507 0.88086 0.26454 0.0
C1060 C 0.3194 0.7655 0.55546 0.0
C1061 C 0.33845 0.77722 0.57298 0.0
C1062 C 0.3589 0.7433 0.58058 0.0
C1063 C 0.33934 0.73154 0.57444 0.0
N1064 N 0.30073 0.73127 0.55786 0.0
N1065 N 0.37716 0.77787 0.57642 0.0
C1066 C 0.31959 0.74256 0.56049 0.0
C1067 C 0.35847 0.76624 0.57875 0.0
N1068 N 0.30115 0.77618 0.53295 0.0
N1069 N 0.37795 0.73242 0.58759 0.0
H1070 H 0.37746 0.79449 0.56845 0.0
H1071 H 0.3925 0.77125 0.57519 0.0
H1072 H 0.37934 0.71593 0.57781 0.0
H1073 H 0.39248 0.73947 0.60375 0.0
H1074 H 0.28766 0.76863 0.50901 0.0
H1075 H 0.29977 0.79283 0.53298 0.0
H1076 H 0.28558 0.7384 0.55819 0.0
H1077 H 0.29989 0.71461 0.56254 0.0
C1078 C 0.49283 0.10613 0.82099 0.0
C1079 C 0.48137 0.08643 0.81917 0.0
C1080 C 0.51554 0.06699 0.79982 0.0
C1081 C 0.52705 0.08615 0.81805 0.0
N1082 N 0.52686 0.12467 0.83571 0.0
N1083 N 0.48151 0.04787 0.80421 0.0
C1084 C 0.51571 0.10593 0.82543 0.0
C1085 C 0.4926 0.06683 0.8061 0.0
N1086 N 0.4818 0.12509 0.81398 0.0
N1087 N 0.5264 0.04894 0.77654 0.0
H1088 H 0.46482 0.04696 0.80831 0.0
H1089 H 0.48885 0.03283 0.80498 0.0
H1090 H 0.54309 0.04788 0.77507 0.0
H1091 H 0.5189 0.03536 0.7532 0.0
H1092 H 0.48912 0.14001 0.80725 0.0
H1093 H 0.46515 0.12577 0.80646 0.0
H1094 H 0.5198 0.139 0.85426 0.0
H1095 H 0.54343 0.12586 0.82704 0.0
C1096 C 0.15059 0.76384 0.95103 0.0
C1097 C 0.17025 0.7754 0.95306 0.0
C1098 C 0.18986 0.74141 0.97385 0.0
C1099 C 0.17071 0.72977 0.95606 0.0
N1100 N 0.13222 0.72975 0.93645 0.0
N1101 N 0.20877 0.77556 0.96968 0.0
C1102 C 0.15089 0.74099 0.94738 0.0
C1103 C 0.18989 0.76433 0.96716 0.0
N1104 N 0.13155 0.7748 0.95706 0.0
N1105 N 0.20804 0.73067 0.99672 0.0
H1106 H 0.20952 0.79225 0.9659 0.0
H1107 H 0.2239 0.76839 0.9696 0.0
H1108 H 0.20932 0.71401 0.9972 0.0
H1109 H 0.2216 0.73823 0.02004 0.0
H1110 H 0.11664 0.76743 0.96365 0.0
H1111 H 0.13079 0.79144 0.96403 0.0
H1112 H 0.11791 0.73673 0.91711 0.0
H1113 H 0.13107 0.7132 0.94509 0.0
C1114 C 0.49291 0.89932 0.20015 0.0
C1115 C 0.48145 0.91902 0.20821 0.0
C1116 C 0.51586 0.93857 0.21785 0.0
C1117 C 0.52718 0.91901 0.20504 0.0
N1118 N 0.52692 0.88036 0.2112 0.0
N1119 N 0.48207 0.95636 0.2483 0.0
C1120 C 0.5158 0.89925 0.20392 0.0
C1121 C 0.49293 0.93829 0.22522 0.0
N1122 N 0.48187 0.88052 0.1899 0.0
N1123 N 0.52682 0.95761 0.21847 0.0
H1124 H 0.46538 0.95744 0.24986 0.0
H1125 H 0.48958 0.96999 0.27112 0.0
H1126 H 0.54349 0.95861 0.21364 0.0
H1127 H 0.51938 0.97259 0.21725 0.0
H1128 H 0.48901 0.86627 0.17086 0.0
H1129 H 0.46532 0.8792 0.19883 0.0
H1130 H 0.51965 0.86543 0.21864 0.0
H1131 H 0.54358 0.87973 0.21843 0.0
C1132 C 0.31604 0.23978 0.45773 0.0
C1133 C 0.3358 0.22827 0.45589 0.0
C1134 C 0.35569 0.26236 0.46596 0.0
C1135 C 0.33619 0.27387 0.45526 0.0
N1136 N 0.29766 0.274 0.44021 0.0
N1137 N 0.37458 0.22826 0.46189 0.0
C1138 C 0.31626 0.26273 0.45238 0.0
C1139 C 0.35566 0.2395 0.46135 0.0
N1140 N 0.29709 0.2288 0.46399 0.0
N1141 N 0.37414 0.27335 0.48396 0.0
H1142 H 0.3753 0.21159 0.4677 0.0
H1143 H 0.3896 0.23532 0.45391 0.0
H1144 H 0.37461 0.29003 0.48996 0.0
H1145 H 0.38852 0.26601 0.50041 0.0
H1146 H 0.28229 0.23613 0.47409 0.0
H1147 H 0.29622 0.21208 0.46428 0.0
H1148 H 0.28288 0.26688 0.42798 0.0
H1149 H 0.29718 0.29073 0.43726 0.0
C1150 C 0.98858 0.06817 0.6844 0.0
C1151 C 0.97934 0.08837 0.70313 0.0
C1152 C 0.01567 0.10341 0.72201 0.0
C1153 C 0.02479 0.08401 0.69263 0.0
N1154 N 0.01945 0.04944 0.63122 0.0
N1155 N 0.98382 0.12579 0.73624 0.0
C1156 C 0.01111 0.06674 0.6704 0.0
C1157 C 0.99284 0.10616 0.72109 0.0
N1158 N 0.97588 0.05031 0.67965 0.0
N1159 N 0.02882 0.11911 0.75174 0.0
H1160 H 0.96724 0.1281 0.74111 0.0
H1161 H 0.99263 0.13997 0.74001 0.0
H1162 H 0.04555 0.11779 0.752 0.0
H1163 H 0.02322 0.13268 0.78165 0.0
H1164 H 0.98205 0.0348 0.67436 0.0
H1165 H 0.95928 0.05073 0.68801 0.0
H1166 H 0.01011 0.03734 0.60566 0.0
H1167 H 0.03566 0.04847 0.61713 0.0
C1168 C 0.85834 0.74327 0.93727 0.0
C1169 C 0.83867 0.73181 0.94651 0.0
C1170 C 0.81922 0.7662 0.96003 0.0
C1171 C 0.83877 0.77757 0.94708 0.0
N1172 N 0.87749 0.77714 0.9484 0.0
N1173 N 0.80146 0.73232 0.9885 0.0
C1174 C 0.85849 0.76614 0.9426 0.0
C1175 C 0.81948 0.74325 0.96543 0.0
N1176 N 0.87708 0.73225 0.92459 0.0
N1177 N 0.80018 0.7772 0.96261 0.0
H1178 H 0.80034 0.71564 0.98856 0.0
H1179 H 0.78793 0.73971 0.01278 0.0
H1180 H 0.79915 0.79387 0.95852 0.0
H1181 H 0.78516 0.76982 0.96185 0.0
H1182 H 0.89119 0.73942 0.90439 0.0
H1183 H 0.87848 0.71569 0.93273 0.0
H1184 H 0.89247 0.7698 0.95366 0.0
H1185 H 0.87825 0.79375 0.95637 0.0
C1186 C 0.68793 0.24236 0.45959 0.0
C1187 C 0.66769 0.2319 0.45487 0.0
C1188 C 0.64985 0.26735 0.45402 0.0
C1189 C 0.67016 0.27749 0.44479 0.0
N1190 N 0.70815 0.27396 0.42289 0.0
N1191 N 0.62897 0.2344 0.45028 0.0
C1192 C 0.68913 0.26484 0.44456 0.0
C1193 C 0.64852 0.24443 0.45292 0.0
N1194 N 0.70614 0.231 0.4771 0.0
N1195 N 0.63192 0.27966 0.46626 0.0
H1196 H 0.62714 0.21788 0.45827 0.0
H1197 H 0.61461 0.24232 0.43761 0.0
H1198 H 0.63237 0.29641 0.46815 0.0
H1199 H 0.61695 0.27338 0.48143 0.0
H1200 H 0.72081 0.23836 0.48973 0.0
H1201 H 0.70642 0.21441 0.48454 0.0
H1202 H 0.72225 0.26527 0.41352 0.0
H1203 H 0.70892 0.28988 0.40465 0.0
C1204 C 0.8162 0.26818 0.06096 0.0
C1205 C 0.83632 0.27897 0.06021 0.0
C1206 C 0.85516 0.24425 0.06402 0.0
C1207 C 0.83502 0.23343 0.06657 0.0
N1208 N 0.79677 0.23478 0.042 0.0
N1209 N 0.87456 0.27739 0.03827 0.0
C1210 C 0.81566 0.24528 0.05636 0.0
C1211 C 0.85571 0.267 0.05509 0.0
N1212 N 0.79764 0.27964 0.07121 0.0
N1213 N 0.87384 0.23272 0.06968 0.0
H1214 H 0.87542 0.29395 0.02877 0.0
H1215 H 0.88898 0.26955 0.02594 0.0
H1216 H 0.87435 0.216 0.06614 0.0
H1217 H 0.88881 0.23966 0.08016 0.0
H1218 H 0.78279 0.27251 0.08254 0.0
H1219 H 0.79729 0.29636 0.07478 0.0
H1220 H 0.78265 0.24263 0.02547 0.0
H1221 H 0.7955 0.2181 0.04069 0.0
C1222 C 0.65023 0.74188 0.56827 0.0
C1223 C 0.66996 0.73031 0.56439 0.0
C1224 C 0.68962 0.76442 0.54623 0.0
C1225 C 0.67042 0.77596 0.56351 0.0
N1226 N 0.63173 0.77643 0.56792 0.0
N1227 N 0.70851 0.73024 0.54706 0.0
C1228 C 0.65047 0.76484 0.56814 0.0
C1229 C 0.68961 0.74146 0.55063 0.0
N1230 N 0.63126 0.73073 0.57066 0.0
N1231 N 0.70782 0.77531 0.52497 0.0
H1232 H 0.70937 0.71355 0.55001 0.0
H1233 H 0.72364 0.73737 0.54736 0.0
H1234 H 0.70896 0.79199 0.52515 0.0
H1235 H 0.72153 0.76797 0.50193 0.0
H1236 H 0.61623 0.73751 0.58064 0.0
H1237 H 0.63037 0.7142 0.56088 0.0
H1238 H 0.61638 0.76991 0.57088 0.0
H1239 H 0.63133 0.79304 0.55983 0.0
C1240 C 0.51486 0.43935 0.81014 0.0
C1241 C 0.52635 0.41972 0.81916 0.0
C1242 C 0.49207 0.39994 0.81503 0.0
C1243 C 0.48069 0.41964 0.8214 0.0
N1244 N 0.48109 0.4583 0.8286 0.0
N1245 N 0.52606 0.38094 0.82358 0.0
C1246 C 0.492 0.43943 0.81844 0.0
C1247 C 0.51496 0.3999 0.81946 0.0
N1248 N 0.52567 0.45793 0.79362 0.0
N1249 N 0.48093 0.38134 0.80148 0.0
H1250 H 0.5427 0.37996 0.81671 0.0
H1251 H 0.51888 0.3662 0.83597 0.0
H1252 H 0.46423 0.38093 0.79534 0.0
H1253 H 0.48818 0.36666 0.78854 0.0
H1254 H 0.518 0.47218 0.77747 0.0
H1255 H 0.54236 0.45888 0.79068 0.0
H1256 H 0.48863 0.47304 0.83761 0.0
H1257 H 0.46441 0.459 0.83374 0.0
C1258 C 0.99592 0.60819 0.32181 0.0
C1259 C 0.98372 0.58886 0.31818 0.0
C1260 C 0.01729 0.5678 0.3214 0.0
C1261 C 0.02941 0.58709 0.32609 0.0
N1262 N 0.03075 0.62549 0.30862 0.0
N1263 N 0.98318 0.55065 0.29192 0.0
C1264 C 0.01884 0.60726 0.32004 0.0
C1265 C 0.99452 0.5688 0.31017 0.0
N1266 N 0.98558 0.62756 0.3262 0.0
N1267 N 0.0273 0.54848 0.33269 0.0
H1268 H 0.96649 0.55022 0.28775 0.0
H1269 H 0.99046 0.5362 0.27585 0.0
H1270 H 0.04384 0.54707 0.34081 0.0
H1271 H 0.01908 0.53405 0.34038 0.0
H1272 H 0.99324 0.64188 0.3412 0.0
H1273 H 0.96907 0.6293 0.31707 0.0
H1274 H 0.02412 0.64045 0.29557 0.0
H1275 H 0.04748 0.62536 0.30429 0.0
C1276 C 0.9923 0.43963 0.70734 0.0
C1277 C 0.9805 0.42036 0.69499 0.0
C1278 C 0.01445 0.3999 0.69498 0.0
C1279 C 0.02614 0.41945 0.69227 0.0
N1280 N 0.02633 0.45817 0.69168 0.0
N1281 N 0.98011 0.38168 0.68375 0.0
C1282 C 0.01514 0.43939 0.69877 0.0
C1283 C 0.99155 0.40034 0.69102 0.0
N1284 N 0.98182 0.45817 0.72728 0.0
N1285 N 0.02527 0.38092 0.70468 0.0
H1286 H 0.96346 0.38096 0.69091 0.0
H1287 H 0.98699 0.36698 0.66861 0.0
H1288 H 0.04198 0.38008 0.71003 0.0
H1289 H 0.01778 0.36623 0.71502 0.0
H1290 H 0.98973 0.47205 0.74582 0.0
H1291 H 0.96515 0.45936 0.73101 0.0
H1292 H 0.01903 0.47315 0.68541 0.0
H1293 H 0.04298 0.45863 0.6859 0.0
C1294 C 0.49187 0.56636 0.20293 0.0
C1295 C 0.48005 0.58584 0.19729 0.0
C1296 C 0.51392 0.60631 0.19646 0.0
C1297 C 0.52582 0.58678 0.20064 0.0
N1298 N 0.52589 0.54878 0.23079 0.0
N1299 N 0.47944 0.62437 0.21017 0.0
C1300 C 0.51473 0.567 0.21177 0.0
C1301 C 0.491 0.60583 0.20017 0.0
N1302 N 0.48144 0.54717 0.1948 0.0
N1303 N 0.52457 0.62545 0.18961 0.0
H1304 H 0.46273 0.62457 0.21547 0.0
H1305 H 0.48636 0.63932 0.22088 0.0
H1306 H 0.54114 0.62693 0.19748 0.0
H1307 H 0.51709 0.63983 0.17404 0.0
H1308 H 0.48933 0.53252 0.18786 0.0
H1309 H 0.46482 0.54607 0.18862 0.0
H1310 H 0.51849 0.53458 0.2489 0.0
H1311 H 0.54259 0.5481 0.23373 0.0
C1312 C 0.14929 0.12759 0.4093 0.0
C1313 C 0.14169 0.12866 0.329 0.0
C1314 C 0.11619 0.10011 0.36088 0.0
C1315 C 0.11906 0.10408 0.44443 0.0
N1316 N 0.14114 0.12034 0.54816 0.0
N1317 N 0.11753 0.11526 0.22734 0.0
C1318 C 0.13669 0.11712 0.46897 0.0
C1319 C 0.12532 0.11442 0.30381 0.0
N1320 N 0.16882 0.13634 0.42791 0.0
N1321 N 0.10504 0.0824 0.33632 0.0
H1322 H 0.12364 0.12558 0.18379 0.0
H1323 H 0.10396 0.10674 0.20899 0.0
H1324 H 0.0994 0.07092 0.37683 0.0
H1325 H 0.1038 0.07786 0.27634 0.0
H1326 H 0.17623 0.13447 0.48352 0.0
H1327 H 0.17868 0.14339 0.3846 0.0
H1328 H 0.15146 0.13236 0.56837 0.0
H1329 H 0.13443 0.11138 0.59421 0.0
C1330 C 0.10361 0.85849 0.58961 0.0
C1331 C 0.11021 0.8789 0.56114 0.0
C1332 C 0.14176 0.87709 0.65041 0.0
C1333 C 0.13341 0.858 0.68547 0.0
N1334 N 0.10323 0.83403 0.70179 0.0
N1335 N 0.13403 0.90936 0.57349 0.0
C1336 C 0.11335 0.8498 0.65903 0.0
C1337 C 0.12894 0.88872 0.59378 0.0
N1338 N 0.08826 0.84712 0.54907 0.0
N1339 N 0.16211 0.88371 0.66875 0.0
H1340 H 0.12517 0.9183 0.53219 0.0
H1341 H 0.14611 0.91809 0.60199 0.0
H1342 H 0.17184 0.87573 0.71009 0.0
H1343 H 0.16986 0.89615 0.6386 0.0
H1344 H 0.08423 0.83132 0.56332 0.0
H1345 H 0.08136 0.85262 0.4958 0.0
H1346 H 0.08767 0.82884 0.68901 0.0
H1347 H 0.1094 0.82791 0.75536 0.0
C1348 C 0.37605 0.89529 0.9162 0.0
C1349 C 0.39514 0.88621 0.94894 0.0
C1350 C 0.39253 0.85634 0.85403 0.0
C1351 C 0.37215 0.86379 0.82785 0.0
N1352 N 0.3429 0.88899 0.84231 0.0
N1353 N 0.41807 0.85513 0.96286 0.0
C1354 C 0.36342 0.88296 0.86101 0.0
C1355 C 0.40228 0.86581 0.92196 0.0
N1356 N 0.37038 0.91586 0.93533 0.0
N1357 N 0.40288 0.84045 0.81255 0.0
H1358 H 0.42499 0.86112 0.01532 0.0
H1359 H 0.4225 0.83934 0.94992 0.0
H1360 H 0.39663 0.8337 0.76021 0.0
H1361 H 0.41864 0.83578 0.82488 0.0
H1362 H 0.35797 0.92412 0.90683 0.0
H1363 H 0.37911 0.92522 0.97573 0.0
H1364 H 0.33487 0.90148 0.87118 0.0
H1365 H 0.33336 0.88051 0.80176 0.0
C1366 C 0.37689 0.11128 0.11439 0.0
C1367 C 0.39568 0.12084 0.08119 0.0
C1368 C 0.39269 0.15042 0.17716 0.0
C1369 C 0.37253 0.14252 0.20371 0.0
N1370 N 0.34378 0.1168 0.18919 0.0
N1371 N 0.41791 0.1524 0.06752 0.0
C1372 C 0.36413 0.12325 0.17022 0.0
C1373 C 0.40246 0.14131 0.1086 0.0
N1374 N 0.37166 0.09061 0.09516 0.0
N1375 N 0.40279 0.16643 0.21879 0.0
H1376 H 0.42479 0.14666 0.0146 0.0
H1377 H 0.42205 0.16823 0.08086 0.0
H1378 H 0.3965 0.17295 0.27149 0.0
H1379 H 0.41841 0.17146 0.20612 0.0
H1380 H 0.35951 0.08206 0.12399 0.0
H1381 H 0.38049 0.08146 0.05444 0.0
H1382 H 0.33595 0.10422 0.16005 0.0
H1383 H 0.33414 0.12498 0.23023 0.0
C1384 C 0.8851 0.90254 0.65909 0.0
C1385 C 0.8866 0.89545 0.57826 0.0
C1386 C 0.86092 0.86694 0.60968 0.0
C1387 C 0.86432 0.87025 0.69329 0.0
N1388 N 0.87913 0.89299 0.79766 0.0
N1389 N 0.87631 0.86964 0.47703 0.0
C1390 C 0.87593 0.88878 0.71829 0.0
C1391 C 0.87431 0.87752 0.55307 0.0
N1392 N 0.89212 0.92266 0.67883 0.0
N1393 N 0.84452 0.854 0.58438 0.0
H1394 H 0.88629 0.87649 0.43394 0.0
H1395 H 0.86935 0.85519 0.4589 0.0
H1396 H 0.83356 0.84712 0.62423 0.0
H1397 H 0.84028 0.85237 0.52422 0.0
H1398 H 0.8897 0.92958 0.73498 0.0
H1399 H 0.89823 0.93333 0.6362 0.0
H1400 H 0.89012 0.90436 0.81824 0.0
H1401 H 0.87147 0.88472 0.84341 0.0
C1402 C 0.86087 0.13053 0.36845 0.0
C1403 C 0.86931 0.14994 0.33617 0.0
C1404 C 0.89872 0.14867 0.43371 0.0
C1405 C 0.89208 0.12799 0.45919 0.0
N1406 N 0.86831 0.09768 0.44241 0.0
N1407 N 0.8995 0.17413 0.32471 0.0
C1408 C 0.87348 0.11845 0.42449 0.0
C1409 C 0.88922 0.15797 0.36491 0.0
N1410 N 0.84063 0.12401 0.3481 0.0
N1411 N 0.91392 0.15966 0.47642 0.0
H1412 H 0.89359 0.18068 0.27146 0.0
H1413 H 0.91499 0.17924 0.33911 0.0
H1414 H 0.92068 0.15364 0.52916 0.0
H1415 H 0.91796 0.17559 0.46452 0.0
H1416 H 0.83279 0.11128 0.37618 0.0
H1417 H 0.83103 0.13234 0.30728 0.0
H1418 H 0.85637 0.08914 0.41235 0.0
H1419 H 0.87699 0.08848 0.48351 0.0
C1420 C 0.6128 0.15101 0.17415 0.0
C1421 C 0.6335 0.1446 0.20066 0.0
C1422 C 0.6313 0.11293 0.11219 0.0
C1423 C 0.6118 0.12102 0.07923 0.0
N1424 N 0.58739 0.15095 0.06483 0.0
N1425 N 0.66405 0.12097 0.18614 0.0
C1426 C 0.60363 0.14105 0.10603 0.0
C1427 C 0.64324 0.12591 0.16746 0.0
N1428 N 0.60158 0.1663 0.21554 0.0
N1429 N 0.63803 0.09267 0.09321 0.0
H1430 H 0.67315 0.12996 0.22655 0.0
H1431 H 0.67272 0.10892 0.15725 0.0
H1432 H 0.62983 0.08287 0.05276 0.0
H1433 H 0.65083 0.08507 0.12189 0.0
H1434 H 0.58562 0.17016 0.20292 0.0
H1435 H 0.6074 0.17334 0.26807 0.0
H1436 H 0.58216 0.16649 0.0777 0.0
H1437 H 0.58086 0.14462 0.01221 0.0
C1438 C 0.64537 0.87983 0.86121 0.0
C1439 C 0.63671 0.86054 0.82873 0.0
C1440 C 0.60696 0.86243 0.92462 0.0
C1441 C 0.61391 0.883 0.9504 0.0
N1442 N 0.63829 0.91285 0.93468 0.0
N1443 N 0.60617 0.83686 0.81593 0.0
C1444 C 0.63279 0.89217 0.91657 0.0
C1445 C 0.61656 0.85289 0.85646 0.0
N1446 N 0.66578 0.88599 0.84166 0.0
N1447 N 0.59143 0.85172 0.96661 0.0
H1448 H 0.61219 0.83012 0.76321 0.0
H1449 H 0.59053 0.83205 0.82943 0.0
H1450 H 0.5846 0.85785 0.01903 0.0
H1451 H 0.58715 0.83585 0.95457 0.0
H1452 H 0.67376 0.8986 0.86997 0.0
H1453 H 0.67532 0.87748 0.80125 0.0
H1454 H 0.6505 0.92115 0.90524 0.0
H1455 H 0.62964 0.92222 0.97522 0.0
C1456 C 0.63117 0.61258 0.91067 0.0
C1457 C 0.61207 0.6215 0.9439 0.0
C1458 C 0.61422 0.65136 0.84871 0.0
C1459 C 0.63461 0.64409 0.82192 0.0
N1460 N 0.66415 0.61921 0.83625 0.0
N1461 N 0.58895 0.65241 0.95841 0.0
C1462 C 0.64358 0.62503 0.85515 0.0
C1463 C 0.60472 0.64184 0.91706 0.0
N1464 N 0.63705 0.59206 0.92964 0.0
N1465 N 0.60358 0.66708 0.80734 0.0
H1466 H 0.58223 0.64637 0.01114 0.0
H1467 H 0.58437 0.66816 0.94553 0.0
H1468 H 0.6096 0.67382 0.75462 0.0
H1469 H 0.58781 0.67161 0.8202 0.0
H1470 H 0.64947 0.58391 0.90077 0.0
H1471 H 0.6285 0.58263 0.97029 0.0
H1472 H 0.67233 0.60681 0.86513 0.0
H1473 H 0.67357 0.62778 0.79565 0.0
C1474 C 0.61818 0.35559 0.1671 0.0
C1475 C 0.63806 0.36406 0.19431 0.0
C1476 C 0.63266 0.39563 0.10734 0.0
C1477 C 0.61405 0.38576 0.07403 0.0
N1478 N 0.59244 0.35384 0.05881 0.0
N1479 N 0.66588 0.39083 0.18241 0.0
C1480 C 0.60786 0.36497 0.09997 0.0
C1481 C 0.64579 0.38378 0.1624 0.0
N1482 N 0.6088 0.33886 0.20705 0.0
N1483 N 0.63735 0.41649 0.08897 0.0
H1484 H 0.67567 0.38279 0.22338 0.0
H1485 H 0.67335 0.40379 0.15441 0.0
H1486 H 0.62828 0.42551 0.04856 0.0
H1487 H 0.6493 0.42527 0.11797 0.0
H1488 H 0.59333 0.33337 0.1944 0.0
H1489 H 0.61548 0.33205 0.25858 0.0
H1490 H 0.58874 0.33782 0.07053 0.0
H1491 H 0.58507 0.35986 1.00724 0.0
C1492 C 0.87722 0.39791 0.39295 0.0
C1493 C 0.89655 0.38918 0.42508 0.0
C1494 C 0.8952 0.36024 0.32602 0.0
C1495 C 0.87451 0.36702 0.30105 0.0
N1496 N 0.84431 0.39095 0.31854 0.0
N1497 N 0.92045 0.35869 0.43556 0.0
C1498 C 0.86506 0.38557 0.33637 0.0
C1499 C 0.90448 0.36933 0.39549 0.0
N1500 N 0.87085 0.41813 0.41407 0.0
N1501 N 0.90617 0.34519 0.2825 0.0
H1502 H 0.92691 0.36424 0.4895 0.0
H1503 H 0.92546 0.34324 0.42027 0.0
H1504 H 0.90012 0.33871 0.22933 0.0
H1505 H 0.9221 0.34103 0.29431 0.0
H1506 H 0.85817 0.42615 0.38626 0.0
H1507 H 0.87927 0.42751 0.45527 0.0
H1508 H 0.83583 0.40286 0.34901 0.0
H1509 H 0.8351 0.3825 0.27688 0.0
C1510 C 0.89247 0.65413 0.66083 0.0
C1511 C 0.87223 0.64635 0.68707 0.0
C1512 C 0.87656 0.61501 0.59812 0.0
C1513 C 0.89555 0.62434 0.56573 0.0
N1514 N 0.91805 0.65569 0.55221 0.0
N1515 N 0.84332 0.62082 0.67199 0.0
C1516 C 0.90236 0.64482 0.59284 0.0
C1517 C 0.86376 0.62712 0.65346 0.0
N1518 N 0.90261 0.67011 0.70251 0.0
N1519 N 0.87116 0.59439 0.57861 0.0
H1520 H 0.83367 0.62915 0.71261 0.0
H1521 H 0.83546 0.60827 0.64288 0.0
H1522 H 0.87997 0.58521 0.53795 0.0
H1523 H 0.85885 0.58595 0.60691 0.0
H1524 H 0.91829 0.67501 0.69016 0.0
H1525 H 0.8963 0.67672 0.755 0.0
H1526 H 0.92225 0.67153 0.56519 0.0
H1527 H 0.92511 0.64975 0.49992 0.0
C1528 C 0.36546 0.37872 0.17091 0.0
C1529 C 0.37516 0.36068 0.20883 0.0
C1530 C 0.40631 0.36393 0.12004 0.0
C1531 C 0.3978 0.3832 0.08731 0.0
N1532 N 0.37084 0.41111 0.09204 0.0
N1533 N 0.40712 0.3398 0.23351 0.0
C1534 C 0.37777 0.39125 0.11555 0.0
C1535 C 0.39634 0.35451 0.18773 0.0
N1536 N 0.34434 0.38341 0.18514 0.0
N1537 N 0.42351 0.3541 0.08439 0.0
H1538 H 0.40049 0.33303 0.28518 0.0
H1539 H 0.42334 0.33616 0.22527 0.0
H1540 H 0.43066 0.35992 0.03214 0.0
H1541 H 0.42908 0.33897 0.10135 0.0
H1542 H 0.33576 0.39482 0.1525 0.0
H1543 H 0.33497 0.37483 0.22591 0.0
H1544 H 0.35754 0.41874 0.11723 0.0
H1545 H 0.37937 0.4207 0.05186 0.0
C1546 C 0.37231 0.62699 0.96331 0.0
C1547 C 0.39007 0.61406 0.93846 0.0
C1548 C 0.38468 0.62608 0.79899 0.0
C1549 C 0.36794 0.63986 0.8245 0.0
N1550 N 0.34078 0.64746 0.92326 0.0
N1551 N 0.40514 0.59401 0.82771 0.0
C1552 C 0.36019 0.63842 0.90442 0.0
C1553 C 0.39366 0.61128 0.85456 0.0
N1554 N 0.36711 0.62899 0.04239 0.0
N1555 N 0.39288 0.62776 0.72326 0.0
H1556 H 0.41072 0.58208 0.86627 0.0
H1557 H 0.40669 0.59018 0.76715 0.0
H1558 H 0.3869 0.6384 0.68049 0.0
H1559 H 0.40676 0.61972 0.70503 0.0
H1560 H 0.35706 0.64104 0.06417 0.0
H1561 H 0.37271 0.61877 0.08682 0.0
H1562 H 0.33309 0.64523 0.9781 0.0
H1563 H 0.33123 0.65529 0.88083 0.0
C1564 C 0.14701 0.64428 0.60834 0.0
C1565 C 0.1445 0.64029 0.692 0.0
C1566 C 0.12205 0.60921 0.65722 0.0
C1567 C 0.11988 0.61706 0.57767 0.0
N1568 N 0.13026 0.64311 0.4775 0.0
N1569 N 0.13027 0.61686 0.79559 0.0
C1570 C 0.1326 0.63469 0.55263 0.0
C1571 C 0.13247 0.62197 0.71649 0.0
N1572 N 0.16363 0.65677 0.58201 0.0
N1573 N 0.11481 0.58907 0.67524 0.0
H1574 H 0.13929 0.62376 0.84102 0.0
H1575 H 0.11891 0.6059 0.81644 0.0
H1576 H 0.10836 0.57899 0.63159 0.0
H1577 H 0.1176 0.5815 0.72999 0.0
H1578 H 0.16725 0.65881 0.52147 0.0
H1579 H 0.17536 0.66277 0.62083 0.0
H1580 H 0.13756 0.65742 0.4598 0.0
H1581 H 0.11973 0.63685 0.43492 0.0
C1582 C 0.11586 0.35825 0.33264 0.0
C1583 C 0.13704 0.36507 0.31479 0.0
C1584 C 0.13253 0.39547 0.40775 0.0
C1585 C 0.11249 0.38678 0.4331 0.0
N1586 N 0.08752 0.35706 0.43147 0.0
N1587 N 0.16669 0.38895 0.34078 0.0
C1588 C 0.10484 0.36737 0.39867 0.0
C1589 C 0.14572 0.38344 0.35355 0.0
N1590 N 0.10618 0.34305 0.2857 0.0
N1591 N 0.13863 0.41543 0.433 0.0
H1592 H 0.17645 0.38087 0.29978 0.0
H1593 H 0.17469 0.40065 0.37403 0.0
H1594 H 0.12943 0.42463 0.47247 0.0
H1595 H 0.15195 0.42352 0.41016 0.0
H1596 H 0.09002 0.33888 0.29123 0.0
H1597 H 0.11372 0.33634 0.23566 0.0
H1598 H 0.08255 0.34181 0.41353 0.0
H1599 H 0.0796 0.36263 0.48254 0.0
loop_
_geom_bond_atom_site_label_1
_geom_bond_atom_site_label_2
_geom_bond_distance
_geom_bond_site_symmetry_2
_ccdc_geom_bond_type
Co0 O1 2.216 . S
Co0 O2 2.091 . S
Co0 O4 2.004 . S
Co0 O10 2.021 . S
Co0 O12 2.137 . S
Co0 O13 2.244 . S
O1 Co0 2.216 . S
O1 C8 1.247 . S
O2 Co0 2.091 . S
O2 C8 1.261 . S
C3 O12 1.247 . S
C3 O13 1.272 . S
O4 Co0 2.004 . S
O4 C9 1.259 . S
Co5 O6 2.061 . S
Co5 O11 2.052 . S
Co5 O13 2.135 . S
O6 Co5 2.061 . S
O6 C9 1.235 . S
C7 O10 1.238 . S
C7 O11 1.241 . S
C8 O1 1.247 . S
C8 O2 1.261 . S
C9 O4 1.259 . S
C9 O6 1.235 . S
O10 Co0 2.021 . S
O10 C7 1.238 . S
O11 Co5 2.052 . S
O11 C7 1.241 . S
O12 Co0 2.137 . S
O12 C3 1.247 . S
O13 Co0 2.244 . S
O13 C3 1.272 . S
O13 Co5 2.135 . S
Co14 O15 2.216 . S
Co14 O16 2.091 . S
Co14 O18 2.004 . S
Co14 O24 2.021 . S
Co14 O26 2.137 . S
Co14 O27 2.244 . S
O15 Co14 2.216 . S
O15 C22 1.247 . S
O16 Co14 2.091 . S
O16 C22 1.261 . S
C17 O26 1.247 . S
C17 O27 1.272 . S
O18 Co14 2.004 . S
O18 C23 1.259 . S
Co19 O20 2.061 . S
Co19 O25 2.052 . S
Co19 O27 2.135 . S
O20 Co19 2.061 . S
O20 C23 1.235 . S
C21 O24 1.238 . S
C21 O25 1.241 . S
C22 O15 1.247 . S
C22 O16 1.261 . S
C23 O18 1.259 . S
C23 O20 1.235 . S
O24 Co14 2.021 . S
O24 C21 1.238 . S
O25 Co19 2.052 . S
O25 C21 1.241 . S
O26 Co14 2.137 . S
O26 C17 1.247 . S
O27 Co14 2.244 . S
O27 C17 1.272 . S
O27 Co19 2.135 . S
Co28 O29 2.216 . S
Co28 O30 2.091 . S
Co28 O32 2.004 . S
Co28 O38 2.021 . S
Co28 O40 2.137 . S
Co28 O41 2.244 . S
O29 Co28 2.216 . S
O29 C36 1.247 . S
O30 Co28 2.091 . S
O30 C36 1.261 . S
C31 O40 1.247 . S
C31 O41 1.272 . S
O32 Co28 2.004 . S
O32 C37 1.259 . S
Co33 O34 2.061 . S
Co33 O39 2.052 . S
Co33 O41 2.135 . S
O34 Co33 2.061 . S
O34 C37 1.235 . S
C35 O38 1.238 . S
C35 O39 1.241 . S
C36 O29 1.247 . S
C36 O30 1.261 . S
C37 O32 1.259 . S
C37 O34 1.235 . S
O38 Co28 2.021 . S
O38 C35 1.238 . S
O39 Co33 2.052 . S
O39 C35 1.241 . S
O40 Co28 2.137 . S
O40 C31 1.247 . S
O41 Co28 2.244 . S
O41 C31 1.272 . S
O41 Co33 2.135 . S
Co42 O43 2.216 . S
Co42 O44 2.091 . S
Co42 O46 2.004 . S
Co42 O52 2.021 . S
Co42 O54 2.137 . S
Co42 O55 2.244 . S
O43 Co42 2.216 . S
O43 C50 1.247 . S
O44 Co42 2.091 . S
O44 C50 1.261 . S
C45 O54 1.247 . S
C45 O55 1.272 . S
O46 Co42 2.004 . S
O46 C51 1.259 . S
Co47 O48 2.061 . S
Co47 O53 2.052 . S
Co47 O55 2.135 1_554 S
O48 Co47 2.061 . S
O48 C51 1.235 1_554 S
C49 O52 1.238 1_554 S
C49 O53 1.241 . S
C50 O43 1.247 . S
C50 O44 1.261 . S
C51 O46 1.259 . S
C51 O48 1.235 1_556 S
O52 Co42 2.021 . S
O52 C49 1.238 1_556 S
O53 Co47 2.052 . S
O53 C49 1.241 . S
O54 Co42 2.137 . S
O54 C45 1.247 . S
O55 Co42 2.244 . S
O55 C45 1.272 . S
O55 Co47 2.135 1_556 S
Co56 O57 2.216 . S
Co56 O58 2.091 . S
Co56 O60 2.004 . S
Co56 O66 2.021 . S
Co56 O68 2.137 . S
Co56 O69 2.244 . S
O57 Co56 2.216 . S
O57 C64 1.247 . S
O58 Co56 2.091 . S
O58 C64 1.261 . S
C59 O68 1.247 . S
C59 O69 1.272 . S
O60 Co56 2.004 . S
O60 C65 1.259 . S
Co61 O62 2.061 . S
Co61 O67 2.052 . S
Co61 O69 2.135 . S
O62 Co61 2.061 . S
O62 C65 1.235 . S
C63 O66 1.238 . S
C63 O67 1.241 . S
C64 O57 1.247 . S
C64 O58 1.261 . S
C65 O60 1.259 . S
C65 O62 1.235 . S
O66 Co56 2.021 . S
O66 C63 1.238 . S
O67 Co61 2.052 . S
O67 C63 1.241 . S
O68 Co56 2.137 . S
O68 C59 1.247 . S
O69 Co56 2.244 . S
O69 C59 1.272 . S
O69 Co61 2.135 . S
Co70 O71 2.216 . S
Co70 O72 2.091 . S
Co70 O74 2.004 . S
Co70 O80 2.021 . S
Co70 O82 2.137 . S
Co70 O83 2.244 . S
O71 Co70 2.216 . S
O71 C78 1.247 . S
O72 Co70 2.091 . S
O72 C78 1.261 . S
C73 O82 1.247 . S
C73 O83 1.272 . S
O74 Co70 2.004 . S
O74 C79 1.259 . S
Co75 O76 2.061 . S
Co75 O81 2.052 . S
Co75 O83 2.135 1_556 S
O76 Co75 2.061 . S
O76 C79 1.235 1_556 S
C77 O80 1.238 1_556 S
C77 O81 1.241 . S
C78 O71 1.247 . S
C78 O72 1.261 . S
C79 O74 1.259 . S
C79 O76 1.235 1_554 S
O80 Co70 2.021 . S
O80 C77 1.238 1_554 S
O81 Co75 2.052 . S
O81 C77 1.241 . S
O82 Co70 2.137 . S
O82 C73 1.247 . S
O83 Co70 2.244 . S
O83 C73 1.272 . S
O83 Co75 2.135 1_554 S
Co84 O85 2.216 . S
Co84 O86 2.091 . S
Co84 O88 2.004 . S
Co84 O94 2.021 . S
Co84 O96 2.137 . S
Co84 O97 2.244 . S
O85 Co84 2.216 . S
O85 C92 1.247 . S
O86 Co84 2.091 . S
O86 C92 1.261 . S
C87 O96 1.247 . S
C87 O97 1.272 . S
O88 Co84 2.004 . S
O88 C93 1.259 . S
Co89 O90 2.061 . S
Co89 O95 2.052 . S
Co89 O97 2.135 . S
O90 Co89 2.061 . S
O90 C93 1.235 . S
C91 O94 1.238 . S
C91 O95 1.241 . S
C92 O85 1.247 . S
C92 O86 1.261 . S
C93 O88 1.259 . S
C93 O90 1.235 . S
O94 Co84 2.021 . S
O94 C91 1.238 . S
O95 Co89 2.052 . S
O95 C91 1.241 . S
O96 Co84 2.137 . S
O96 C87 1.247 . S
O97 Co84 2.244 . S
O97 C87 1.272 . S
O97 Co89 2.135 . S
Co98 O99 2.216 . S
Co98 O100 2.091 . S
Co98 O102 2.004 . S
Co98 O108 2.021 . S
Co98 O110 2.137 . S
Co98 O111 2.244 . S
O99 Co98 2.216 . S
O99 C106 1.247 . S
O100 Co98 2.091 . S
O100 C106 1.261 . S
C101 O110 1.247 . S
C101 O111 1.272 . S
O102 Co98 2.004 . S
O102 C107 1.259 . S
Co103 O104 2.061 . S
Co103 O109 2.052 . S
Co103 O111 2.135 . S
O104 Co103 2.061 . S
O104 C107 1.235 . S
C105 O108 1.238 . S
C105 O109 1.241 . S
C106 O99 1.247 . S
C106 O100 1.261 . S
C107 O102 1.259 . S
C107 O104 1.235 . S
O108 Co98 2.021 . S
O108 C105 1.238 . S
O109 Co103 2.052 . S
O109 C105 1.241 . S
O110 Co98 2.137 . S
O110 C101 1.247 . S
O111 Co98 2.244 . S
O111 C101 1.272 . S
O111 Co103 2.135 . S
Co112 O113 2.216 . S
Co112 O114 2.091 . S
Co112 O116 2.004 . S
Co112 O122 2.021 . S
Co112 O124 2.137 . S
Co112 O125 2.244 . S
O113 Co112 2.216 . S
O113 C120 1.247 . S
O114 Co112 2.091 . S
O114 C120 1.261 . S
C115 O124 1.247 . S
C115 O125 1.272 . S
O116 Co112 2.004 . S
O116 C121 1.259 . S
Co117 O118 2.061 . S
Co117 O123 2.052 . S
Co117 O125 2.135 . S
O118 Co117 2.061 . S
O118 C121 1.235 . S
C119 O122 1.238 . S
C119 O123 1.241 . S
C120 O113 1.247 . S
C120 O114 1.261 . S
C121 O116 1.259 . S
C121 O118 1.235 . S
O122 Co112 2.021 . S
O122 C119 1.238 . S
O123 Co117 2.052 . S
O123 C119 1.241 . S
O124 Co112 2.137 . S
O124 C115 1.247 . S
O125 Co112 2.244 . S
O125 C115 1.272 . S
O125 Co117 2.135 . S
Co126 O127 2.216 . S
Co126 O128 2.091 . S
Co126 O130 2.004 . S
Co126 O136 2.021 . S
Co126 O138 2.137 . S
Co126 O139 2.244 . S
O127 Co126 2.216 . S
O127 C134 1.247 . S
O128 Co126 2.091 . S
O128 C134 1.261 . S
C129 O138 1.247 . S
C129 O139 1.272 . S
O130 Co126 2.004 . S
O130 C135 1.259 . S
Co131 O132 2.061 . S
Co131 O137 2.052 . S
Co131 O139 2.135 . S
O132 Co131 2.061 . S
O132 C135 1.235 . S
C133 O136 1.238 . S
C133 O137 1.241 . S
C134 O127 1.247 . S
C134 O128 1.261 . S
C135 O130 1.259 . S
C135 O132 1.235 . S
O136 Co126 2.021 . S
O136 C133 1.238 . S
O137 Co131 2.052 . S
O137 C133 1.241 . S
O138 Co126 2.137 . S
O138 C129 1.247 . S
O139 Co126 2.244 . S
O139 C129 1.272 . S
O139 Co131 2.135 . S
Co140 O141 2.216 . S
Co140 O142 2.091 . S
Co140 O144 2.004 . S
Co140 O150 2.021 . S
Co140 O152 2.137 . S
Co140 O153 2.244 . S
O141 Co140 2.216 . S
O141 C148 1.247 . S
O142 Co140 2.091 . S
O142 C148 1.261 . S
C143 O152 1.247 . S
C143 O153 1.272 . S
O144 Co140 2.004 . S
O144 C149 1.259 . S
Co145 O146 2.061 . S
Co145 O151 2.052 . S
Co145 O153 2.135 . S
O146 Co145 2.061 . S
O146 C149 1.235 . S
C147 O150 1.238 . S
C147 O151 1.241 . S
C148 O141 1.247 . S
C148 O142 1.261 . S
C149 O144 1.259 . S
C149 O146 1.235 . S
O150 Co140 2.021 . S
O150 C147 1.238 . S
O151 Co145 2.052 . S
O151 C147 1.241 . S
O152 Co140 2.137 . S
O152 C143 1.247 . S
O153 Co140 2.244 . S
O153 C143 1.272 . S
O153 Co145 2.135 . S
Co154 O155 2.216 . S
Co154 O156 2.091 . S
Co154 O158 2.004 . S
Co154 O164 2.021 . S
Co154 O166 2.137 . S
Co154 O167 2.244 . S
O155 Co154 2.216 . S
O155 C162 1.247 . S
O156 Co154 2.091 . S
O156 C162 1.261 . S
C157 O166 1.247 . S
C157 O167 1.272 . S
O158 Co154 2.004 . S
O158 C163 1.259 . S
Co159 O160 2.061 . S
Co159 O165 2.052 . S
Co159 O167 2.135 1_556 S
O160 Co159 2.061 . S
O160 C163 1.235 1_556 S
C161 O164 1.238 1_556 S
C161 O165 1.241 . S
C162 O155 1.247 . S
C162 O156 1.261 . S
C163 O158 1.259 . S
C163 O160 1.235 1_554 S
O164 Co154 2.021 . S
O164 C161 1.238 1_554 S
O165 Co159 2.052 . S
O165 C161 1.241 . S
O166 Co154 2.137 . S
O166 C157 1.247 . S
O167 Co154 2.244 . S
O167 C157 1.272 . S
O167 Co159 2.135 1_554 S
Co168 O169 2.216 . S
Co168 O170 2.091 . S
Co168 O172 2.004 . S
Co168 O178 2.021 . S
Co168 O180 2.137 . S
Co168 O181 2.244 . S
O169 Co168 2.216 . S
O169 C176 1.247 . S
O170 Co168 2.091 . S
O170 C176 1.261 . S
C171 O180 1.247 . S
C171 O181 1.272 . S
O172 Co168 2.004 . S
O172 C177 1.259 . S
Co173 O174 2.061 . S
Co173 O179 2.052 . S
Co173 O181 2.135 . S
O174 Co173 2.061 . S
O174 C177 1.235 . S
C175 O178 1.238 . S
C175 O179 1.241 . S
C176 O169 1.247 . S
C176 O170 1.261 . S
C177 O172 1.259 . S
C177 O174 1.235 . S
O178 Co168 2.021 . S
O178 C175 1.238 . S
O179 Co173 2.052 . S
O179 C175 1.241 . S
O180 Co168 2.137 . S
O180 C171 1.247 . S
O181 Co168 2.244 . S
O181 C171 1.272 . S
O181 Co173 2.135 . S
Co182 O183 2.216 . S
Co182 O184 2.091 . S
Co182 O186 2.004 . S
Co182 O192 2.021 . S
Co182 O194 2.137 . S
Co182 O195 2.244 . S
O183 Co182 2.216 . S
O183 C190 1.247 . S
O184 Co182 2.091 . S
O184 C190 1.261 . S
C185 O194 1.247 . S
C185 O195 1.272 . S
O186 Co182 2.004 . S
O186 C191 1.259 . S
Co187 O188 2.061 . S
Co187 O193 2.052 . S
Co187 O195 2.135 1_554 S
O188 Co187 2.061 . S
O188 C191 1.235 1_554 S
C189 O192 1.238 1_554 S
C189 O193 1.241 . S
C190 O183 1.247 . S
C190 O184 1.261 . S
C191 O186 1.259 . S
C191 O188 1.235 1_556 S
O192 Co182 2.021 . S
O192 C189 1.238 1_556 S
O193 Co187 2.052 . S
O193 C189 1.241 . S
O194 Co182 2.137 . S
O194 C185 1.247 . S
O195 Co182 2.244 . S
O195 C185 1.272 . S
O195 Co187 2.135 1_556 S
Co196 O197 2.216 . S
Co196 O198 2.091 . S
Co196 O200 2.004 . S
Co196 O206 2.021 . S
Co196 O208 2.137 . S
Co196 O209 2.244 . S
O197 Co196 2.216 . S
O197 C204 1.247 . S
O198 Co196 2.091 . S
O198 C204 1.261 . S
C199 O208 1.247 . S
C199 O209 1.272 . S
O200 Co196 2.004 . S
O200 C205 1.259 . S
Co201 O202 2.061 . S
Co201 O207 2.052 . S
Co201 O209 2.135 . S
O202 Co201 2.061 . S
O202 C205 1.235 . S
C203 O206 1.238 . S
C203 O207 1.241 . S
C204 O197 1.247 . S
C204 O198 1.261 . S
C205 O200 1.259 . S
C205 O202 1.235 . S
O206 Co196 2.021 . S
O206 C203 1.238 . S
O207 Co201 2.052 . S
O207 C203 1.241 . S
O208 Co196 2.137 . S
O208 C199 1.247 . S
O209 Co196 2.244 . S
O209 C199 1.272 . S
O209 Co201 2.135 . S
Co210 O211 2.216 . S
Co210 O212 2.091 . S
Co210 O214 2.004 . S
Co210 O220 2.021 . S
Co210 O222 2.137 . S
Co210 O223 2.244 . S
O211 Co210 2.216 . S
O211 C218 1.247 . S
O212 Co210 2.091 . S
O212 C218 1.261 . S
C213 O222 1.247 . S
C213 O223 1.272 . S
O214 Co210 2.004 . S
O214 C219 1.259 . S
Co215 O216 2.061 . S
Co215 O221 2.052 . S
Co215 O223 2.135 . S
O216 Co215 2.061 . S
O216 C219 1.235 . S
C217 O220 1.238 . S
C217 O221 1.241 . S
C218 O211 1.247 . S
C218 O212 1.261 . S
C219 O214 1.259 . S
C219 O216 1.235 . S
O220 Co210 2.021 . S
O220 C217 1.238 . S
O221 Co215 2.052 . S
O221 C217 1.241 . S
O222 Co210 2.137 . S
O222 C213 1.247 . S
O223 Co210 2.244 . S
O223 C213 1.272 . S
O223 Co215 2.135 . S
Co224 O225 2.216 . S
Co224 O226 2.091 . S
Co224 O228 2.004 . S
Co224 O234 2.021 . S
Co224 O236 2.137 . S
Co224 O237 2.244 . S
O225 Co224 2.216 . S
O225 C232 1.247 . S
O226 Co224 2.091 . S
O226 C232 1.261 . S
C227 O236 1.247 . S
C227 O237 1.272 . S
O228 Co224 2.004 . S
O228 C233 1.259 . S
Co229 O230 2.061 . S
Co229 O235 2.052 . S
Co229 O237 2.135 . S
O230 Co229 2.061 . S
O230 C233 1.235 . S
C231 O234 1.238 . S
C231 O235 1.241 . S
C232 O225 1.247 . S
C232 O226 1.261 . S
C233 O228 1.259 . S
C233 O230 1.235 . S
O234 Co224 2.021 . S
O234 C231 1.238 . S
O235 Co229 2.052 . S
O235 C231 1.241 . S
O236 Co224 2.137 . S
O236 C227 1.247 . S
O237 Co224 2.244 . S
O237 C227 1.272 . S
O237 Co229 2.135 . S
Co238 O239 2.216 . S
Co238 O240 2.091 . S
Co238 O242 2.004 . S
Co238 O248 2.021 . S
Co238 O250 2.137 . S
Co238 O251 2.244 . S
O239 Co238 2.216 . S
O239 C246 1.247 . S
O240 Co238 2.091 . S
O240 C246 1.261 . S
C241 O250 1.247 . S
C241 O251 1.272 . S
O242 Co238 2.004 . S
O242 C247 1.259 . S
Co243 O244 2.061 . S
Co243 O249 2.052 . S
Co243 O251 2.135 1_554 S
O244 Co243 2.061 . S
O244 C247 1.235 1_554 S
C245 O248 1.238 1_554 S
C245 O249 1.241 . S
C246 O239 1.247 . S
C246 O240 1.261 . S
C247 O242 1.259 . S
C247 O244 1.235 1_556 S
O248 Co238 2.021 . S
O248 C245 1.238 1_556 S
O249 Co243 2.052 . S
O249 C245 1.241 . S
O250 Co238 2.137 . S
O250 C241 1.247 . S
O251 Co238 2.244 . S
O251 C241 1.272 . S
O251 Co243 2.135 1_556 S
Co252 O253 2.216 . S
Co252 O254 2.091 . S
Co252 O256 2.004 . S
Co252 O262 2.021 . S
Co252 O264 2.137 . S
Co252 O265 2.244 . S
O253 Co252 2.216 . S
O253 C260 1.247 . S
O254 Co252 2.091 . S
O254 C260 1.261 . S
C255 O264 1.247 . S
C255 O265 1.272 . S
O256 Co252 2.004 . S
O256 C261 1.259 . S
Co257 O258 2.061 . S
Co257 O263 2.052 . S
Co257 O265 2.135 . S
O258 Co257 2.061 . S
O258 C261 1.235 . S
C259 O262 1.238 . S
C259 O263 1.241 . S
C260 O253 1.247 . S
C260 O254 1.261 . S
C261 O256 1.259 . S
C261 O258 1.235 . S
O262 Co252 2.021 . S
O262 C259 1.238 . S
O263 Co257 2.052 . S
O263 C259 1.241 . S
O264 Co252 2.137 . S
O264 C255 1.247 . S
O265 Co252 2.244 . S
O265 C255 1.272 . S
O265 Co257 2.135 . S
Co266 O267 2.216 . S
Co266 O268 2.091 . S
Co266 O270 2.004 . S
Co266 O276 2.021 . S
Co266 O278 2.137 . S
Co266 O279 2.244 . S
O267 Co266 2.216 . S
O267 C274 1.247 . S
O268 Co266 2.091 . S
O268 C274 1.261 . S
C269 O278 1.247 . S
C269 O279 1.272 . S
O270 Co266 2.004 . S
O270 C275 1.259 . S
Co271 O272 2.061 . S
Co271 O277 2.052 . S
Co271 O279 2.135 . S
O272 Co271 2.061 . S
O272 C275 1.235 . S
C273 O276 1.238 . S
C273 O277 1.241 . S
C274 O267 1.247 . S
C274 O268 1.261 . S
C275 O270 1.259 . S
C275 O272 1.235 . S
O276 Co266 2.021 . S
O276 C273 1.238 . S
O277 Co271 2.052 . S
O277 C273 1.241 . S
O278 Co266 2.137 . S
O278 C269 1.247 . S
O279 Co266 2.244 . S
O279 C269 1.272 . S
O279 Co271 2.135 . S
Co280 O281 2.216 . S
Co280 O282 2.091 . S
Co280 O284 2.004 . S
Co280 O290 2.021 . S
Co280 O292 2.137 . S
Co280 O293 2.244 . S
O281 Co280 2.216 . S
O281 C288 1.247 . S
O282 Co280 2.091 . S
O282 C288 1.261 . S
C283 O292 1.247 . S
C283 O293 1.272 . S
O284 Co280 2.004 . S
O284 C289 1.259 . S
Co285 O286 2.061 . S
Co285 O291 2.052 . S
Co285 O293 2.135 . S
O286 Co285 2.061 . S
O286 C289 1.235 . S
C287 O290 1.238 . S
C287 O291 1.241 . S
C288 O281 1.247 . S
C288 O282 1.261 . S
C289 O284 1.259 . S
C289 O286 1.235 . S
O290 Co280 2.021 . S
O290 C287 1.238 . S
O291 Co285 2.052 . S
O291 C287 1.241 . S
O292 Co280 2.137 . S
O292 C283 1.247 . S
O293 Co280 2.244 . S
O293 C283 1.272 . S
O293 Co285 2.135 . S
Co294 O295 2.216 . S
Co294 O296 2.091 . S
Co294 O298 2.004 . S
Co294 O304 2.021 . S
Co294 O306 2.137 . S
Co294 O307 2.244 . S
O295 Co294 2.216 . S
O295 C302 1.247 . S
O296 Co294 2.091 . S
O296 C302 1.261 . S
C297 O306 1.247 . S
C297 O307 1.272 . S
O298 Co294 2.004 . S
O298 C303 1.259 . S
Co299 O300 2.061 . S
Co299 O305 2.052 . S
Co299 O307 2.135 . S
O300 Co299 2.061 . S
O300 C303 1.235 . S
C301 O304 1.238 . S
C301 O305 1.241 . S
C302 O295 1.247 . S
C302 O296 1.261 . S
C303 O298 1.259 . S
C303 O300 1.235 . S
O304 Co294 2.021 . S
O304 C301 1.238 . S
O305 Co299 2.052 . S
O305 C301 1.241 . S
O306 Co294 2.137 . S
O306 C297 1.247 . S
O307 Co294 2.244 . S
O307 C297 1.272 . S
O307 Co299 2.135 . S
Co308 O309 2.216 . S
Co308 O310 2.091 . S
Co308 O312 2.004 . S
Co308 O318 2.021 . S
Co308 O320 2.137 . S
Co308 O321 2.244 . S
O309 Co308 2.216 . S
O309 C316 1.247 . S
O310 Co308 2.091 . S
O310 C316 1.261 . S
C311 O320 1.247 . S
C311 O321 1.272 . S
O312 Co308 2.004 . S
O312 C317 1.259 . S
Co313 O314 2.061 . S
Co313 O319 2.052 . S
Co313 O321 2.135 . S
O314 Co313 2.061 . S
O314 C317 1.235 . S
C315 O318 1.238 . S
C315 O319 1.241 . S
C316 O309 1.247 . S
C316 O310 1.261 . S
C317 O312 1.259 . S
C317 O314 1.235 . S
O318 Co308 2.021 . S
O318 C315 1.238 . S
O319 Co313 2.052 . S
O319 C315 1.241 . S
O320 Co308 2.137 . S
O320 C311 1.247 . S
O321 Co308 2.244 . S
O321 C311 1.272 . S
O321 Co313 2.135 . S
Co322 O323 2.216 . S
Co322 O324 2.091 . S
Co322 O326 2.004 . S
Co322 O332 2.021 . S
Co322 O334 2.137 . S
Co322 O335 2.244 . S
O323 Co322 2.216 . S
O323 C330 1.247 . S
O324 Co322 2.091 . S
O324 C330 1.261 . S
C325 O334 1.247 . S
C325 O335 1.272 . S
O326 Co322 2.004 . S
O326 C331 1.259 . S
Co327 O328 2.061 . S
Co327 O333 2.052 . S
Co327 O335 2.135 1_556 S
O328 Co327 2.061 . S
O328 C331 1.235 1_556 S
C329 O332 1.238 1_556 S
C329 O333 1.241 . S
C330 O323 1.247 . S
C330 O324 1.261 . S
C331 O326 1.259 . S
C331 O328 1.235 1_554 S
O332 Co322 2.021 . S
O332 C329 1.238 1_554 S
O333 Co327 2.052 . S
O333 C329 1.241 . S
O334 Co322 2.137 . S
O334 C325 1.247 . S
O335 Co322 2.244 . S
O335 C325 1.272 . S
O335 Co327 2.135 1_554 S
Co336 O337 2.216 . S
Co336 O338 2.091 . S
Co336 O340 2.004 . S
Co336 O346 2.021 . S
Co336 O348 2.137 . S
Co336 O349 2.244 . S
O337 Co336 2.216 . S
O337 C344 1.247 . S
O338 Co336 2.091 . S
O338 C344 1.261 . S
C339 O348 1.247 . S
C339 O349 1.272 . S
O340 Co336 2.004 . S
O340 C345 1.259 . S
Co341 O342 2.061 . S
Co341 O347 2.052 . S
Co341 O349 2.135 . S
O342 Co341 2.061 . S
O342 C345 1.235 . S
C343 O346 1.238 . S
C343 O347 1.241 . S
C344 O337 1.247 . S
C344 O338 1.261 . S
C345 O340 1.259 . S
C345 O342 1.235 . S
O346 Co336 2.021 . S
O346 C343 1.238 . S
O347 Co341 2.052 . S
O347 C343 1.241 . S
O348 Co336 2.137 . S
O348 C339 1.247 . S
O349 Co336 2.244 . S
O349 C339 1.272 . S
O349 Co341 2.135 . S
Co350 O351 2.216 . S
Co350 O352 2.091 . S
Co350 O354 2.004 . S
Co350 O360 2.021 . S
Co350 O362 2.137 . S
Co350 O363 2.244 . S
O351 Co350 2.216 . S
O351 C358 1.247 . S
O352 Co350 2.091 . S
O352 C358 1.261 . S
C353 O362 1.247 . S
C353 O363 1.272 . S
O354 Co350 2.004 . S
O354 C359 1.259 . S
Co355 O356 2.061 . S
Co355 O361 2.052 . S
Co355 O363 2.135 1_556 S
O356 Co355 2.061 . S
O356 C359 1.235 1_556 S
C357 O360 1.238 1_556 S
C357 O361 1.241 . S
C358 O351 1.247 . S
C358 O352 1.261 . S
C359 O354 1.259 . S
C359 O356 1.235 1_554 S
O360 Co350 2.021 . S
O360 C357 1.238 1_554 S
O361 Co355 2.052 . S
O361 C357 1.241 . S
O362 Co350 2.137 . S
O362 C353 1.247 . S
O363 Co350 2.244 . S
O363 C353 1.272 . S
O363 Co355 2.135 1_554 S
Co364 O365 2.216 . S
Co364 O366 2.091 . S
Co364 O368 2.004 . S
Co364 O374 2.021 . S
Co364 O376 2.137 . S
Co364 O377 2.244 . S
O365 Co364 2.216 . S
O365 C372 1.247 . S
O366 Co364 2.091 . S
O366 C372 1.261 . S
C367 O376 1.247 . S
C367 O377 1.272 . S
O368 Co364 2.004 . S
O368 C373 1.259 . S
Co369 O370 2.061 . S
Co369 O375 2.052 . S
Co369 O377 2.135 . S
O370 Co369 2.061 . S
O370 C373 1.235 . S
C371 O374 1.238 . S
C371 O375 1.241 . S
C372 O365 1.247 . S
C372 O366 1.261 . S
C373 O368 1.259 . S
C373 O370 1.235 . S
O374 Co364 2.021 . S
O374 C371 1.238 . S
O375 Co369 2.052 . S
O375 C371 1.241 . S
O376 Co364 2.137 . S
O376 C367 1.247 . S
O377 Co364 2.244 . S
O377 C367 1.272 . S
O377 Co369 2.135 . S
Co378 O379 2.216 . S
Co378 O380 2.091 . S
Co378 O382 2.004 . S
Co378 O388 2.021 . S
Co378 O390 2.137 . S
Co378 O391 2.244 . S
O379 Co378 2.216 . S
O379 C386 1.247 . S
O380 Co378 2.091 . S
O380 C386 1.261 . S
C381 O390 1.247 . S
C381 O391 1.272 . S
O382 Co378 2.004 . S
O382 C387 1.259 . S
Co383 O384 2.061 . S
Co383 O389 2.052 . S
Co383 O391 2.135 . S
O384 Co383 2.061 . S
O384 C387 1.235 . S
C385 O388 1.238 . S
C385 O389 1.241 . S
C386 O379 1.247 . S
C386 O380 1.261 . S
C387 O382 1.259 . S
C387 O384 1.235 . S
O388 Co378 2.021 . S
O388 C385 1.238 . S
O389 Co383 2.052 . S
O389 C385 1.241 . S
O390 Co378 2.137 . S
O390 C381 1.247 . S
O391 Co378 2.244 . S
O391 C381 1.272 . S
O391 Co383 2.135 . S
Co392 O393 2.216 . S
Co392 O394 2.091 . S
Co392 O396 2.004 . S
Co392 O402 2.021 . S
Co392 O404 2.137 . S
Co392 O405 2.244 . S
O393 Co392 2.216 . S
O393 C400 1.247 . S
O394 Co392 2.091 . S
O394 C400 1.261 . S
C395 O404 1.247 . S
C395 O405 1.272 . S
O396 Co392 2.004 . S
O396 C401 1.259 . S
Co397 O398 2.061 . S
Co397 O403 2.052 . S
Co397 O405 2.135 . S
O398 Co397 2.061 . S
O398 C401 1.235 . S
C399 O402 1.238 . S
C399 O403 1.241 . S
C400 O393 1.247 . S
C400 O394 1.261 . S
C401 O396 1.259 . S
C401 O398 1.235 . S
O402 Co392 2.021 . S
O402 C399 1.238 . S
O403 Co397 2.052 . S
O403 C399 1.241 . S
O404 Co392 2.137 . S
O404 C395 1.247 . S
O405 Co392 2.244 . S
O405 C395 1.272 . S
O405 Co397 2.135 . S
Co406 O407 2.216 . S
Co406 O408 2.091 . S
Co406 O410 2.004 . S
Co406 O416 2.021 . S
Co406 O418 2.137 . S
Co406 O419 2.244 . S
O407 Co406 2.216 . S
O407 C414 1.247 . S
O408 Co406 2.091 . S
O408 C414 1.261 . S
C409 O418 1.247 . S
C409 O419 1.272 . S
O410 Co406 2.004 . S
O410 C415 1.259 . S
Co411 O412 2.061 . S
Co411 O417 2.052 . S
Co411 O419 2.135 . S
O412 Co411 2.061 . S
O412 C415 1.235 . S
C413 O416 1.238 . S
C413 O417 1.241 . S
C414 O407 1.247 . S
C414 O408 1.261 . S
C415 O410 1.259 . S
C415 O412 1.235 . S
O416 Co406 2.021 . S
O416 C413 1.238 . S
O417 Co411 2.052 . S
O417 C413 1.241 . S
O418 Co406 2.137 . S
O418 C409 1.247 . S
O419 Co406 2.244 . S
O419 C409 1.272 . S
O419 Co411 2.135 . S
Co420 O421 2.216 . S
Co420 O422 2.091 . S
Co420 O424 2.004 . S
Co420 O430 2.021 . S
Co420 O432 2.137 . S
Co420 O433 2.244 . S
O421 Co420 2.216 . S
O421 C428 1.247 . S
O422 Co420 2.091 . S
O422 C428 1.261 . S
C423 O432 1.247 . S
C423 O433 1.272 . S
O424 Co420 2.004 . S
O424 C429 1.259 . S
Co425 O426 2.061 . S
Co425 O431 2.052 . S
Co425 O433 2.135 . S
O426 Co425 2.061 . S
O426 C429 1.235 . S
C427 O430 1.238 . S
C427 O431 1.241 . S
C428 O421 1.247 . S
C428 O422 1.261 . S
C429 O424 1.259 . S
C429 O426 1.235 . S
O430 Co420 2.021 . S
O430 C427 1.238 . S
O431 Co425 2.052 . S
O431 C427 1.241 . S
O432 Co420 2.137 . S
O432 C423 1.247 . S
O433 Co420 2.244 . S
O433 C423 1.272 . S
O433 Co425 2.135 . S
Co434 O435 2.216 . S
Co434 O436 2.091 . S
Co434 O438 2.004 . S
Co434 O444 2.021 . S
Co434 O446 2.137 . S
Co434 O447 2.244 . S
O435 Co434 2.216 . S
O435 C442 1.247 . S
O436 Co434 2.091 . S
O436 C442 1.261 . S
C437 O446 1.247 . S
C437 O447 1.272 . S
O438 Co434 2.004 . S
O438 C443 1.259 . S
Co439 O440 2.061 . S
Co439 O445 2.052 . S
Co439 O447 2.135 1_554 S
O440 Co439 2.061 . S
O440 C443 1.235 1_554 S
C441 O444 1.238 1_554 S
C441 O445 1.241 . S
C442 O435 1.247 . S
C442 O436 1.261 . S
C443 O438 1.259 . S
C443 O440 1.235 1_556 S
O444 Co434 2.021 . S
O444 C441 1.238 1_556 S
O445 Co439 2.052 . S
O445 C441 1.241 . S
O446 Co434 2.137 . S
O446 C437 1.247 . S
O447 Co434 2.244 . S
O447 C437 1.272 . S
O447 Co439 2.135 1_556 S
C448 C449 1.363 . S
C448 C454 1.379 . S
C448 N456 1.356 . S
C449 C448 1.363 . S
C449 C455 1.363 . S
C450 C451 1.363 . S
C450 C455 1.379 . S
C450 N457 1.356 . S
C451 C450 1.363 . S
C451 C454 1.363 . S
N452 C454 1.356 . S
N452 H464 0.984 . S
N452 H465 0.985 . S
N453 C455 1.356 . S
N453 H458 0.984 . S
N453 H459 0.985 . S
C454 C448 1.379 . S
C454 C451 1.363 . S
C454 N452 1.356 . S
C455 C449 1.363 . S
C455 C450 1.379 . S
C455 N453 1.356 . S
N456 C448 1.356 . S
N456 H462 0.984 . S
N456 H463 0.984 . S
N457 C450 1.356 . S
N457 H460 0.984 . S
N457 H461 0.985 . S
H458 N453 0.984 . S
H459 N453 0.985 . S
H460 N457 0.984 . S
H461 N457 0.985 . S
H462 N456 0.984 . S
H463 N456 0.984 . S
H464 N452 0.984 . S
H465 N452 0.985 . S
C466 C467 1.363 . S
C466 C472 1.379 1_565 S
C466 N474 1.356 . S
C467 C466 1.363 . S
C467 C473 1.363 . S
C468 C469 1.363 . S
C468 C473 1.379 1_545 S
C468 N475 1.356 . S
C469 C468 1.363 . S
C469 C472 1.363 . S
N470 C472 1.356 . S
N470 H482 0.984 . S
N470 H483 0.985 . S
N471 C473 1.356 . S
N471 H476 0.984 . S
N471 H477 0.985 . S
C472 C466 1.379 1_545 S
C472 C469 1.363 . S
C472 N470 1.356 . S
C473 C467 1.363 . S
C473 C468 1.379 1_565 S
C473 N471 1.356 . S
N474 C466 1.356 . S
N474 H480 0.984 . S
N474 H481 0.984 . S
N475 C468 1.356 . S
N475 H478 0.984 . S
N475 H479 0.985 . S
H476 N471 0.984 . S
H477 N471 0.985 . S
H478 N475 0.984 . S
H479 N475 0.985 . S
H480 N474 0.984 . S
H481 N474 0.984 . S
H482 N470 0.984 . S
H483 N470 0.985 . S
C484 C485 1.363 . S
C484 C490 1.379 . S
C484 N492 1.356 . S
C485 C484 1.363 . S
C485 C491 1.363 . S
C486 C487 1.363 . S
C486 C491 1.379 . S
C486 N493 1.356 . S
C487 C486 1.363 . S
C487 C490 1.363 . S
N488 C490 1.356 . S
N488 H500 0.984 . S
N488 H501 0.985 . S
N489 C491 1.356 . S
N489 H494 0.984 . S
N489 H495 0.985 . S
C490 C484 1.379 . S
C490 C487 1.363 . S
C490 N488 1.356 . S
C491 C485 1.363 . S
C491 C486 1.379 . S
C491 N489 1.356 . S
N492 C484 1.356 . S
N492 H498 0.984 . S
N492 H499 0.984 . S
N493 C486 1.356 . S
N493 H496 0.984 . S
N493 H497 0.985 . S
H494 N489 0.984 . S
H495 N489 0.985 . S
H496 N493 0.984 . S
H497 N493 0.985 . S
H498 N492 0.984 . S
H499 N492 0.984 . S
H500 N488 0.984 . S
H501 N488 0.985 . S
C502 C503 1.363 . S
C502 C508 1.379 1_545 S
C502 N510 1.356 . S
C503 C502 1.363 . S
C503 C509 1.363 1_556 S
C504 C505 1.363 . S
C504 C509 1.379 1_565 S
C504 N511 1.356 . S
C505 C504 1.363 . S
C505 C508 1.363 1_554 S
N506 C508 1.356 . S
N506 H518 0.984 . S
N506 H519 0.985 . S
N507 C509 1.356 . S
N507 H512 0.984 . S
N507 H513 0.985 . S
C508 C502 1.379 1_565 S
C508 C505 1.363 1_556 S
C508 N506 1.356 . S
C509 C503 1.363 1_554 S
C509 C504 1.379 1_545 S
C509 N507 1.356 . S
N510 C502 1.356 . S
N510 H516 0.984 . S
N510 H517 0.984 . S
N511 C504 1.356 . S
N511 H514 0.984 . S
N511 H515 0.985 . S
H512 N507 0.984 . S
H513 N507 0.985 . S
H514 N511 0.984 . S
H515 N511 0.985 . S
H516 N510 0.984 . S
H517 N510 0.984 . S
H518 N506 0.984 . S
H519 N506 0.985 . S
C520 C521 1.363 . S
C520 C526 1.379 . S
C520 N528 1.356 . S
C521 C520 1.363 . S
C521 C527 1.363 . S
C522 C523 1.363 . S
C522 C527 1.379 . S
C522 N529 1.356 . S
C523 C522 1.363 . S
C523 C526 1.363 . S
N524 C526 1.356 . S
N524 H536 0.984 . S
N524 H537 0.985 . S
N525 C527 1.356 . S
N525 H530 0.984 . S
N525 H531 0.985 . S
C526 C520 1.379 . S
C526 C523 1.363 . S
C526 N524 1.356 . S
C527 C521 1.363 . S
C527 C522 1.379 . S
C527 N525 1.356 . S
N528 C520 1.356 . S
N528 H534 0.984 . S
N528 H535 0.984 . S
N529 C522 1.356 . S
N529 H532 0.984 . S
N529 H533 0.985 . S
H530 N525 0.984 . S
H531 N525 0.985 . S
H532 N529 0.984 . S
H533 N529 0.985 . S
H534 N528 0.984 . S
H535 N528 0.984 . S
H536 N524 0.984 . S
H537 N524 0.985 . S
C538 C539 1.363 . S
C538 C544 1.379 1_565 S
C538 N546 1.356 . S
C539 C538 1.363 . S
C539 C545 1.363 . S
C540 C541 1.363 . S
C540 C545 1.379 1_545 S
C540 N547 1.356 . S
C541 C540 1.363 . S
C541 C544 1.363 . S
N542 C544 1.356 . S
N542 H554 0.984 . S
N542 H555 0.985 . S
N543 C545 1.356 . S
N543 H548 0.984 . S
N543 H549 0.985 . S
C544 C538 1.379 1_545 S
C544 C541 1.363 . S
C544 N542 1.356 . S
C545 C539 1.363 . S
C545 C540 1.379 1_565 S
C545 N543 1.356 . S
N546 C538 1.356 . S
N546 H552 0.984 . S
N546 H553 0.984 . S
N547 C540 1.356 . S
N547 H550 0.984 . S
N547 H551 0.985 . S
H548 N543 0.984 . S
H549 N543 0.985 . S
H550 N547 0.984 . S
H551 N547 0.985 . S
H552 N546 0.984 . S
H553 N546 0.984 . S
H554 N542 0.984 . S
H555 N542 0.985 . S
C556 C557 1.363 . S
C556 C562 1.379 . S
C556 N564 1.356 . S
C557 C556 1.363 . S
C557 C563 1.363 . S
C558 C559 1.363 . S
C558 C563 1.379 . S
C558 N565 1.356 . S
C559 C558 1.363 . S
C559 C562 1.363 . S
N560 C562 1.356 . S
N560 H572 0.984 . S
N560 H573 0.985 . S
N561 C563 1.356 . S
N561 H566 0.984 . S
N561 H567 0.985 . S
C562 C556 1.379 . S
C562 C559 1.363 . S
C562 N560 1.356 . S
C563 C557 1.363 . S
C563 C558 1.379 . S
C563 N561 1.356 . S
N564 C556 1.356 . S
N564 H570 0.984 . S
N564 H571 0.984 . S
N565 C558 1.356 . S
N565 H568 0.984 . S
N565 H569 0.985 . S
H566 N561 0.984 . S
H567 N561 0.985 . S
H568 N565 0.984 . S
H569 N565 0.985 . S
H570 N564 0.984 . S
H571 N564 0.984 . S
H572 N560 0.984 . S
H573 N560 0.985 . S
C574 C575 1.363 . S
C574 C580 1.379 1_545 S
C574 N582 1.356 . S
C575 C574 1.363 . S
C575 C581 1.363 1_556 S
C576 C577 1.363 . S
C576 C581 1.379 1_565 S
C576 N583 1.356 . S
C577 C576 1.363 . S
C577 C580 1.363 1_554 S
N578 C580 1.356 . S
N578 H590 0.984 . S
N578 H591 0.985 . S
N579 C581 1.356 . S
N579 H584 0.984 . S
N579 H585 0.985 . S
C580 C574 1.379 1_565 S
C580 C577 1.363 1_556 S
C580 N578 1.356 . S
C581 C575 1.363 1_554 S
C581 C576 1.379 1_545 S
C581 N579 1.356 . S
N582 C574 1.356 . S
N582 H588 0.984 . S
N582 H589 0.984 . S
N583 C576 1.356 . S
N583 H586 0.984 . S
N583 H587 0.985 . S
H584 N579 0.984 . S
H585 N579 0.985 . S
H586 N583 0.984 . S
H587 N583 0.985 . S
H588 N582 0.984 . S
H589 N582 0.984 . S
H590 N578 0.984 . S
H591 N578 0.985 . S
C592 C593 1.363 . S
C592 C598 1.379 . S
C592 N600 1.356 . S
C593 C592 1.363 . S
C593 C599 1.363 . S
C594 C595 1.363 . S
C594 C599 1.379 . S
C594 N601 1.356 . S
C595 C594 1.363 . S
C595 C598 1.363 . S
N596 C598 1.356 . S
N596 H608 0.984 . S
N596 H609 0.985 . S
N597 C599 1.356 . S
N597 H602 0.984 . S
N597 H603 0.985 . S
C598 C592 1.379 . S
C598 C595 1.363 . S
C598 N596 1.356 . S
C599 C593 1.363 . S
C599 C594 1.379 . S
C599 N597 1.356 . S
N600 C592 1.356 . S
N600 H606 0.984 . S
N600 H607 0.984 . S
N601 C594 1.356 . S
N601 H604 0.984 . S
N601 H605 0.985 . S
H602 N597 0.984 . S
H603 N597 0.985 . S
H604 N601 0.984 . S
H605 N601 0.985 . S
H606 N600 0.984 . S
H607 N600 0.984 . S
H608 N596 0.984 . S
H609 N596 0.985 . S
C610 C611 1.363 . S
C610 C616 1.379 . S
C610 N618 1.356 . S
C611 C610 1.363 . S
C611 C617 1.363 1_556 S
C612 C613 1.363 . S
C612 C617 1.379 . S
C612 N619 1.356 . S
C613 C612 1.363 . S
C613 C616 1.363 1_554 S
N614 C616 1.356 . S
N614 H626 0.984 . S
N614 H627 0.985 . S
N615 C617 1.356 . S
N615 H620 0.984 . S
N615 H621 0.985 . S
C616 C610 1.379 . S
C616 C613 1.363 1_556 S
C616 N614 1.356 . S
C617 C611 1.363 1_554 S
C617 C612 1.379 . S
C617 N615 1.356 . S
N618 C610 1.356 . S
N618 H624 0.984 . S
N618 H625 0.984 . S
N619 C612 1.356 . S
N619 H622 0.984 . S
N619 H623 0.985 . S
H620 N615 0.984 . S
H621 N615 0.985 . S
H622 N619 0.984 . S
H623 N619 0.985 . S
H624 N618 0.984 . S
H625 N618 0.984 . S
H626 N614 0.984 . S
H627 N614 0.985 . S
C628 C629 1.363 . S
C628 C634 1.379 . S
C628 N636 1.356 . S
C629 C628 1.363 . S
C629 C635 1.363 . S
C630 C631 1.363 . S
C630 C635 1.379 . S
C630 N637 1.356 . S
C631 C630 1.363 . S
C631 C634 1.363 . S
N632 C634 1.356 . S
N632 H644 0.984 . S
N632 H645 0.985 . S
N633 C635 1.356 . S
N633 H638 0.984 . S
N633 H639 0.985 . S
C634 C628 1.379 . S
C634 C631 1.363 . S
C634 N632 1.356 . S
C635 C629 1.363 . S
C635 C630 1.379 . S
C635 N633 1.356 . S
N636 C628 1.356 . S
N636 H642 0.984 . S
N636 H643 0.984 . S
N637 C630 1.356 . S
N637 H640 0.984 . S
N637 H641 0.985 . S
H638 N633 0.984 . S
H639 N633 0.985 . S
H640 N637 0.984 . S
H641 N637 0.985 . S
H642 N636 0.984 . S
H643 N636 0.984 . S
H644 N632 0.984 . S
H645 N632 0.985 . S
C646 C647 1.363 . S
C646 C652 1.379 . S
C646 N654 1.356 . S
C647 C646 1.363 . S
C647 C653 1.363 . S
C648 C649 1.363 . S
C648 C653 1.379 . S
C648 N655 1.356 . S
C649 C648 1.363 . S
C649 C652 1.363 . S
N650 C652 1.356 . S
N650 H662 0.984 . S
N650 H663 0.985 . S
N651 C653 1.356 . S
N651 H656 0.984 . S
N651 H657 0.985 . S
C652 C646 1.379 . S
C652 C649 1.363 . S
C652 N650 1.356 . S
C653 C647 1.363 . S
C653 C648 1.379 . S
C653 N651 1.356 . S
N654 C646 1.356 . S
N654 H660 0.984 . S
N654 H661 0.984 . S
N655 C648 1.356 . S
N655 H658 0.984 . S
N655 H659 0.985 . S
H656 N651 0.984 . S
H657 N651 0.985 . S
H658 N655 0.984 . S
H659 N655 0.985 . S
H660 N654 0.984 . S
H661 N654 0.984 . S
H662 N650 0.984 . S
H663 N650 0.985 . S
C664 C665 1.363 . S
C664 C670 1.379 . S
C664 N672 1.356 . S
C665 C664 1.363 . S
C665 C671 1.363 . S
C666 C667 1.363 . S
C666 C671 1.379 . S
C666 N673 1.356 . S
C667 C666 1.363 . S
C667 C670 1.363 . S
N668 C670 1.356 . S
N668 H680 0.984 . S
N668 H681 0.985 . S
N669 C671 1.356 . S
N669 H674 0.984 . S
N669 H675 0.985 . S
C670 C664 1.379 . S
C670 C667 1.363 . S
C670 N668 1.356 . S
C671 C665 1.363 . S
C671 C666 1.379 . S
C671 N669 1.356 . S
N672 C664 1.356 . S
N672 H678 0.984 . S
N672 H679 0.984 . S
N673 C666 1.356 . S
N673 H676 0.984 . S
N673 H677 0.985 . S
H674 N669 0.984 . S
H675 N669 0.985 . S
H676 N673 0.984 . S
H677 N673 0.985 . S
H678 N672 0.984 . S
H679 N672 0.984 . S
H680 N668 0.984 . S
H681 N668 0.985 . S
C682 C683 1.363 1_556 S
C682 C688 1.379 . S
C682 N690 1.356 . S
C683 C682 1.363 1_554 S
C683 C689 1.363 . S
C684 C685 1.363 1_554 S
C684 C689 1.379 . S
C684 N691 1.356 . S
C685 C684 1.363 1_556 S
C685 C688 1.363 . S
N686 C688 1.356 . S
N686 H698 0.984 . S
N686 H699 0.985 . S
N687 C689 1.356 . S
N687 H692 0.984 . S
N687 H693 0.985 . S
C688 C682 1.379 . S
C688 C685 1.363 . S
C688 N686 1.356 . S
C689 C683 1.363 . S
C689 C684 1.379 . S
C689 N687 1.356 . S
N690 C682 1.356 . S
N690 H696 0.984 . S
N690 H697 0.984 . S
N691 C684 1.356 . S
N691 H694 0.984 . S
N691 H695 0.985 . S
H692 N687 0.984 . S
H693 N687 0.985 . S
H694 N691 0.984 . S
H695 N691 0.985 . S
H696 N690 0.984 . S
H697 N690 0.984 . S
H698 N686 0.984 . S
H699 N686 0.985 . S
C700 C701 1.363 . S
C700 C706 1.379 . S
C700 N708 1.356 . S
C701 C700 1.363 . S
C701 C707 1.363 . S
C702 C703 1.363 . S
C702 C707 1.379 . S
C702 N709 1.356 . S
C703 C702 1.363 . S
C703 C706 1.363 . S
N704 C706 1.356 . S
N704 H716 0.984 . S
N704 H717 0.985 . S
N705 C707 1.356 . S
N705 H710 0.984 . S
N705 H711 0.985 . S
C706 C700 1.379 . S
C706 C703 1.363 . S
C706 N704 1.356 . S
C707 C701 1.363 . S
C707 C702 1.379 . S
C707 N705 1.356 . S
N708 C700 1.356 . S
N708 H714 0.984 . S
N708 H715 0.984 . S
N709 C702 1.356 . S
N709 H712 0.984 . S
N709 H713 0.985 . S
H710 N705 0.984 . S
H711 N705 0.985 . S
H712 N709 0.984 . S
H713 N709 0.985 . S
H714 N708 0.984 . S
H715 N708 0.984 . S
H716 N704 0.984 . S
H717 N704 0.985 . S
C718 C719 1.363 . S
C718 C724 1.379 . S
C718 N726 1.356 . S
C719 C718 1.363 . S
C719 C725 1.363 . S
C720 C721 1.363 . S
C720 C725 1.379 . S
C720 N727 1.356 . S
C721 C720 1.363 . S
C721 C724 1.363 . S
N722 C724 1.356 . S
N722 H734 0.984 . S
N722 H735 0.985 . S
N723 C725 1.356 . S
N723 H728 0.984 . S
N723 H729 0.985 . S
C724 C718 1.379 . S
C724 C721 1.363 . S
C724 N722 1.356 . S
C725 C719 1.363 . S
C725 C720 1.379 . S
C725 N723 1.356 . S
N726 C718 1.356 . S
N726 H732 0.984 . S
N726 H733 0.984 . S
N727 C720 1.356 . S
N727 H730 0.984 . S
N727 H731 0.985 . S
H728 N723 0.984 . S
H729 N723 0.985 . S
H730 N727 0.984 . S
H731 N727 0.985 . S
H732 N726 0.984 . S
H733 N726 0.984 . S
H734 N722 0.984 . S
H735 N722 0.985 . S
C736 C737 1.363 . S
C736 C742 1.379 . S
C736 N744 1.356 . S
C737 C736 1.363 . S
C737 C743 1.363 . S
C738 C739 1.363 . S
C738 C743 1.379 . S
C738 N745 1.356 . S
C739 C738 1.363 . S
C739 C742 1.363 . S
N740 C742 1.356 . S
N740 H752 0.984 . S
N740 H753 0.985 . S
N741 C743 1.356 . S
N741 H746 0.984 1_556 S
N741 H747 0.985 1_556 S
C742 C736 1.379 . S
C742 C739 1.363 . S
C742 N740 1.356 . S
C743 C737 1.363 . S
C743 C738 1.379 . S
C743 N741 1.356 . S
N744 C736 1.356 . S
N744 H750 0.984 . S
N744 H751 0.984 . S
N745 C738 1.356 . S
N745 H748 0.984 . S
N745 H749 0.985 . S
H746 N741 0.984 1_554 S
H747 N741 0.985 1_554 S
H748 N745 0.984 . S
H749 N745 0.985 . S
H750 N744 0.984 . S
H751 N744 0.984 . S
H752 N740 0.984 . S
H753 N740 0.985 . S
C754 C755 1.363 . S
C754 C760 1.379 . S
C754 N762 1.356 . S
C755 C754 1.363 . S
C755 C761 1.363 . S
C756 C757 1.363 . S
C756 C761 1.379 . S
C756 N763 1.356 . S
C757 C756 1.363 . S
C757 C760 1.363 . S
N758 C760 1.356 . S
N758 H770 0.984 . S
N758 H771 0.985 . S
N759 C761 1.356 . S
N759 H764 0.984 . S
N759 H765 0.985 . S
C760 C754 1.379 . S
C760 C757 1.363 . S
C760 N758 1.356 . S
C761 C755 1.363 . S
C761 C756 1.379 . S
C761 N759 1.356 . S
N762 C754 1.356 . S
N762 H768 0.984 . S
N762 H769 0.984 1_554 S
N763 C756 1.356 . S
N763 H766 0.984 . S
N763 H767 0.985 . S
H764 N759 0.984 . S
H765 N759 0.985 . S
H766 N763 0.984 . S
H767 N763 0.985 . S
H768 N762 0.984 . S
H769 N762 0.984 1_556 S
H770 N758 0.984 . S
H771 N758 0.985 . S
C772 C773 1.363 . S
C772 C778 1.379 . S
C772 N780 1.356 . S
C773 C772 1.363 . S
C773 C779 1.363 . S
C774 C775 1.363 . S
C774 C779 1.379 . S
C774 N781 1.356 . S
C775 C774 1.363 . S
C775 C778 1.363 . S
N776 C778 1.356 . S
N776 H788 0.984 . S
N776 H789 0.985 . S
N777 C779 1.356 . S
N777 H782 0.984 . S
N777 H783 0.985 . S
C778 C772 1.379 . S
C778 C775 1.363 . S
C778 N776 1.356 . S
C779 C773 1.363 . S
C779 C774 1.379 . S
C779 N777 1.356 . S
N780 C772 1.356 . S
N780 H786 0.984 . S
N780 H787 0.984 . S
N781 C774 1.356 . S
N781 H784 0.984 . S
N781 H785 0.985 . S
H782 N777 0.984 . S
H783 N777 0.985 . S
H784 N781 0.984 . S
H785 N781 0.985 . S
H786 N780 0.984 . S
H787 N780 0.984 . S
H788 N776 0.984 . S
H789 N776 0.985 . S
C790 C791 1.363 . S
C790 C796 1.379 . S
C790 N798 1.356 . S
C791 C790 1.363 . S
C791 C797 1.363 . S
C792 C793 1.363 . S
C792 C797 1.379 . S
C792 N799 1.356 . S
C793 C792 1.363 . S
C793 C796 1.363 . S
N794 C796 1.356 . S
N794 H806 0.984 . S
N794 H807 0.985 . S
N795 C797 1.356 . S
N795 H800 0.984 . S
N795 H801 0.985 . S
C796 C790 1.379 . S
C796 C793 1.363 . S
C796 N794 1.356 . S
C797 C791 1.363 . S
C797 C792 1.379 . S
C797 N795 1.356 . S
N798 C790 1.356 . S
N798 H804 0.984 . S
N798 H805 0.984 . S
N799 C792 1.356 . S
N799 H802 0.984 . S
N799 H803 0.985 . S
H800 N795 0.984 . S
H801 N795 0.985 . S
H802 N799 0.984 . S
H803 N799 0.985 . S
H804 N798 0.984 . S
H805 N798 0.984 . S
H806 N794 0.984 . S
H807 N794 0.985 . S
C808 C809 1.363 . S
C808 C814 1.379 . S
C808 N816 1.356 . S
C809 C808 1.363 . S
C809 C815 1.363 . S
C810 C811 1.363 . S
C810 C815 1.379 . S
C810 N817 1.356 . S
C811 C810 1.363 . S
C811 C814 1.363 . S
N812 C814 1.356 . S
N812 H824 0.984 . S
N812 H825 0.985 . S
N813 C815 1.356 1_556 S
N813 H818 0.984 . S
N813 H819 0.985 . S
C814 C808 1.379 . S
C814 C811 1.363 . S
C814 N812 1.356 . S
C815 C809 1.363 . S
C815 C810 1.379 . S
C815 N813 1.356 1_554 S
N816 C808 1.356 . S
N816 H822 0.984 . S
N816 H823 0.984 . S
N817 C810 1.356 . S
N817 H820 0.984 . S
N817 H821 0.985 . S
H818 N813 0.984 . S
H819 N813 0.985 . S
H820 N817 0.984 . S
H821 N817 0.985 . S
H822 N816 0.984 . S
H823 N816 0.984 . S
H824 N812 0.984 . S
H825 N812 0.985 . S
C826 C827 1.363 . S
C826 C832 1.379 . S
C826 N834 1.356 1_556 S
C827 C826 1.363 . S
C827 C833 1.363 . S
C828 C829 1.363 . S
C828 C833 1.379 . S
C828 N835 1.356 . S
C829 C828 1.363 . S
C829 C832 1.363 . S
N830 C832 1.356 . S
N830 H842 0.984 . S
N830 H843 0.985 . S
N831 C833 1.356 . S
N831 H836 0.984 . S
N831 H837 0.985 . S
C832 C826 1.379 . S
C832 C829 1.363 . S
C832 N830 1.356 . S
C833 C827 1.363 . S
C833 C828 1.379 . S
C833 N831 1.356 . S
N834 C826 1.356 1_554 S
N834 H840 0.984 . S
N834 H841 0.984 . S
N835 C828 1.356 . S
N835 H838 0.984 . S
N835 H839 0.985 . S
H836 N831 0.984 . S
H837 N831 0.985 . S
H838 N835 0.984 . S
H839 N835 0.985 . S
H840 N834 0.984 . S
H841 N834 0.984 . S
H842 N830 0.984 . S
H843 N830 0.985 . S
C844 C845 1.363 . S
C844 C850 1.379 . S
C844 N852 1.356 . S
C845 C844 1.363 . S
C845 C851 1.363 . S
C846 C847 1.363 . S
C846 C851 1.379 . S
C846 N853 1.356 . S
C847 C846 1.363 . S
C847 C850 1.363 . S
N848 C850 1.356 . S
N848 H860 0.984 . S
N848 H861 0.985 . S
N849 C851 1.356 . S
N849 H854 0.984 . S
N849 H855 0.985 . S
C850 C844 1.379 . S
C850 C847 1.363 . S
C850 N848 1.356 . S
C851 C845 1.363 . S
C851 C846 1.379 . S
C851 N849 1.356 . S
N852 C844 1.356 . S
N852 H858 0.984 . S
N852 H859 0.984 . S
N853 C846 1.356 . S
N853 H856 0.984 . S
N853 H857 0.985 . S
H854 N849 0.984 . S
H855 N849 0.985 . S
H856 N853 0.984 . S
H857 N853 0.985 . S
H858 N852 0.984 . S
H859 N852 0.984 . S
H860 N848 0.984 . S
H861 N848 0.985 . S
C862 C863 1.363 . S
C862 C868 1.379 . S
C862 N870 1.356 . S
C863 C862 1.363 . S
C863 C869 1.363 . S
C864 C865 1.363 . S
C864 C869 1.379 . S
C864 N871 1.356 . S
C865 C864 1.363 . S
C865 C868 1.363 . S
N866 C868 1.356 . S
N866 H878 0.984 . S
N866 H879 0.985 . S
N867 C869 1.356 . S
N867 H872 0.984 . S
N867 H873 0.985 . S
C868 C862 1.379 . S
C868 C865 1.363 . S
C868 N866 1.356 . S
C869 C863 1.363 . S
C869 C864 1.379 . S
C869 N867 1.356 . S
N870 C862 1.356 . S
N870 H876 0.984 . S
N870 H877 0.984 . S
N871 C864 1.356 . S
N871 H874 0.984 . S
N871 H875 0.985 . S
H872 N867 0.984 . S
H873 N867 0.985 . S
H874 N871 0.984 . S
H875 N871 0.985 . S
H876 N870 0.984 . S
H877 N870 0.984 . S
H878 N866 0.984 . S
H879 N866 0.985 . S
C880 C881 1.363 . S
C880 C886 1.379 . S
C880 N888 1.356 . S
C881 C880 1.363 . S
C881 C887 1.363 . S
C882 C883 1.363 . S
C882 C887 1.379 . S
C882 N889 1.356 . S
C883 C882 1.363 . S
C883 C886 1.363 . S
N884 C886 1.356 . S
N884 H896 0.984 . S
N884 H897 0.985 . S
N885 C887 1.356 . S
N885 H890 0.984 . S
N885 H891 0.985 . S
C886 C880 1.379 . S
C886 C883 1.363 . S
C886 N884 1.356 . S
C887 C881 1.363 . S
C887 C882 1.379 . S
C887 N885 1.356 . S
N888 C880 1.356 . S
N888 H894 0.984 . S
N888 H895 0.984 . S
N889 C882 1.356 . S
N889 H892 0.984 . S
N889 H893 0.985 . S
H890 N885 0.984 . S
H891 N885 0.985 . S
H892 N889 0.984 . S
H893 N889 0.985 . S
H894 N888 0.984 . S
H895 N888 0.984 . S
H896 N884 0.984 . S
H897 N884 0.985 . S
C898 C899 1.363 . S
C898 C904 1.379 . S
C898 N906 1.356 . S
C899 C898 1.363 . S
C899 C905 1.363 . S
C900 C901 1.363 . S
C900 C905 1.379 . S
C900 N907 1.356 . S
C901 C900 1.363 . S
C901 C904 1.363 . S
N902 C904 1.356 . S
N902 H914 0.984 . S
N902 H915 0.985 . S
N903 C905 1.356 . S
N903 H908 0.984 . S
N903 H909 0.985 . S
C904 C898 1.379 . S
C904 C901 1.363 . S
C904 N902 1.356 . S
C905 C899 1.363 . S
C905 C900 1.379 . S
C905 N903 1.356 . S
N906 C898 1.356 . S
N906 H912 0.984 . S
N906 H913 0.984 . S
N907 C900 1.356 . S
N907 H910 0.984 . S
N907 H911 0.985 . S
H908 N903 0.984 . S
H909 N903 0.985 . S
H910 N907 0.984 . S
H911 N907 0.985 . S
H912 N906 0.984 . S
H913 N906 0.984 . S
H914 N902 0.984 . S
H915 N902 0.985 . S
C916 C917 1.363 . S
C916 C922 1.379 . S
C916 N924 1.356 . S
C917 C916 1.363 . S
C917 C923 1.363 . S
C918 C919 1.363 . S
C918 C923 1.379 . S
C918 N925 1.356 . S
C919 C918 1.363 . S
C919 C922 1.363 . S
N920 C922 1.356 . S
N920 H932 0.984 . S
N920 H933 0.985 . S
N921 C923 1.356 . S
N921 H926 0.984 . S
N921 H927 0.985 . S
C922 C916 1.379 . S
C922 C919 1.363 . S
C922 N920 1.356 . S
C923 C917 1.363 . S
C923 C918 1.379 . S
C923 N921 1.356 . S
N924 C916 1.356 . S
N924 H930 0.984 . S
N924 H931 0.984 . S
N925 C918 1.356 . S
N925 H928 0.984 1_556 S
N925 H929 0.985 . S
H926 N921 0.984 . S
H927 N921 0.985 . S
H928 N925 0.984 1_554 S
H929 N925 0.985 . S
H930 N924 0.984 . S
H931 N924 0.984 . S
H932 N920 0.984 . S
H933 N920 0.985 . S
C934 C935 1.363 . S
C934 C940 1.379 . S
C934 N942 1.356 . S
C935 C934 1.363 . S
C935 C941 1.363 . S
C936 C937 1.363 . S
C936 C941 1.379 . S
C936 N943 1.356 1_554 S
C937 C936 1.363 . S
C937 C940 1.363 . S
N938 C940 1.356 . S
N938 H950 0.984 . S
N938 H951 0.985 . S
N939 C941 1.356 . S
N939 H944 0.984 . S
N939 H945 0.985 . S
C940 C934 1.379 . S
C940 C937 1.363 . S
C940 N938 1.356 . S
C941 C935 1.363 . S
C941 C936 1.379 . S
C941 N939 1.356 . S
N942 C934 1.356 . S
N942 H948 0.984 . S
N942 H949 0.984 . S
N943 C936 1.356 1_556 S
N943 H946 0.984 . S
N943 H947 0.985 . S
H944 N939 0.984 . S
H945 N939 0.985 . S
H946 N943 0.984 . S
H947 N943 0.985 . S
H948 N942 0.984 . S
H949 N942 0.984 . S
H950 N938 0.984 . S
H951 N938 0.985 . S
C952 C953 1.363 . S
C952 C958 1.379 . S
C952 N960 1.356 . S
C953 C952 1.363 . S
C953 C959 1.363 . S
C954 C955 1.363 . S
C954 C959 1.379 . S
C954 N961 1.356 . S
C955 C954 1.363 . S
C955 C958 1.363 . S
N956 C958 1.356 . S
N956 H968 0.984 . S
N956 H969 0.985 . S
N957 C959 1.356 . S
N957 H962 0.984 . S
N957 H963 0.985 . S
C958 C952 1.379 . S
C958 C955 1.363 . S
C958 N956 1.356 . S
C959 C953 1.363 . S
C959 C954 1.379 . S
C959 N957 1.356 . S
N960 C952 1.356 . S
N960 H966 0.984 . S
N960 H967 0.984 . S
N961 C954 1.356 . S
N961 H964 0.984 . S
N961 H965 0.985 . S
H962 N957 0.984 . S
H963 N957 0.985 . S
H964 N961 0.984 . S
H965 N961 0.985 . S
H966 N960 0.984 . S
H967 N960 0.984 . S
H968 N956 0.984 . S
H969 N956 0.985 . S
C970 C971 1.363 . S
C970 C976 1.379 . S
C970 N978 1.356 . S
C971 C970 1.363 . S
C971 C977 1.363 . S
C972 C973 1.363 . S
C972 C977 1.379 . S
C972 N979 1.356 . S
C973 C972 1.363 . S
C973 C976 1.363 . S
N974 C976 1.356 . S
N974 H986 0.984 . S
N974 H987 0.985 . S
N975 C977 1.356 . S
N975 H980 0.984 . S
N975 H981 0.985 . S
C976 C970 1.379 . S
C976 C973 1.363 . S
C976 N974 1.356 . S
C977 C971 1.363 . S
C977 C972 1.379 . S
C977 N975 1.356 . S
N978 C970 1.356 . S
N978 H984 0.984 . S
N978 H985 0.984 . S
N979 C972 1.356 . S
N979 H982 0.984 . S
N979 H983 0.985 . S
H980 N975 0.984 . S
H981 N975 0.985 . S
H982 N979 0.984 . S
H983 N979 0.985 . S
H984 N978 0.984 . S
H985 N978 0.984 . S
H986 N974 0.984 . S
H987 N974 0.985 . S
C988 C989 1.363 . S
C988 C994 1.379 . S
C988 N996 1.356 . S
C989 C988 1.363 . S
C989 C995 1.363 . S
C990 C991 1.363 . S
C990 C995 1.379 . S
C990 N997 1.356 . S
C991 C990 1.363 . S
C991 C994 1.363 . S
N992 C994 1.356 . S
N992 H1004 0.984 . S
N992 H1005 0.985 . S
N993 C995 1.356 . S
N993 H998 0.984 . S
N993 H999 0.985 . S
C994 C988 1.379 . S
C994 C991 1.363 . S
C994 N992 1.356 . S
C995 C989 1.363 . S
C995 C990 1.379 . S
C995 N993 1.356 . S
N996 C988 1.356 . S
N996 H1002 0.984 1_554 S
N996 H1003 0.984 1_554 S
N997 C990 1.356 . S
N997 H1000 0.984 . S
N997 H1001 0.985 . S
H998 N993 0.984 . S
H999 N993 0.985 . S
H1000 N997 0.984 . S
H1001 N997 0.985 . S
H1002 N996 0.984 1_556 S
H1003 N996 0.984 1_556 S
H1004 N992 0.984 . S
H1005 N992 0.985 . S
C1006 C1007 1.363 . S
C1006 C1012 1.379 . S
C1006 N1014 1.356 . S
C1007 C1006 1.363 . S
C1007 C1013 1.363 . S
C1008 C1009 1.363 . S
C1008 C1013 1.379 . S
C1008 N1015 1.356 . S
C1009 C1008 1.363 . S
C1009 C1012 1.363 . S
N1010 C1012 1.356 . S
N1010 H1022 0.984 . S
N1010 H1023 0.985 . S
N1011 C1013 1.356 . S
N1011 H1016 0.984 . S
N1011 H1017 0.985 . S
C1012 C1006 1.379 . S
C1012 C1009 1.363 . S
C1012 N1010 1.356 . S
C1013 C1007 1.363 . S
C1013 C1008 1.379 . S
C1013 N1011 1.356 . S
N1014 C1006 1.356 . S
N1014 H1020 0.984 . S
N1014 H1021 0.984 . S
N1015 C1008 1.356 . S
N1015 H1018 0.984 1_556 S
N1015 H1019 0.985 . S
H1016 N1011 0.984 . S
H1017 N1011 0.985 . S
H1018 N1015 0.984 1_554 S
H1019 N1015 0.985 . S
H1020 N1014 0.984 . S
H1021 N1014 0.984 . S
H1022 N1010 0.984 . S
H1023 N1010 0.985 . S
C1024 C1025 1.363 . S
C1024 C1030 1.379 . S
C1024 N1032 1.356 . S
C1025 C1024 1.363 . S
C1025 C1031 1.363 . S
C1026 C1027 1.363 . S
C1026 C1031 1.379 . S
C1026 N1033 1.356 . S
C1027 C1026 1.363 . S
C1027 C1030 1.363 . S
N1028 C1030 1.356 . S
N1028 H1040 0.984 . S
N1028 H1041 0.985 . S
N1029 C1031 1.356 . S
N1029 H1034 0.984 . S
N1029 H1035 0.985 1_554 S
C1030 C1024 1.379 . S
C1030 C1027 1.363 . S
C1030 N1028 1.356 . S
C1031 C1025 1.363 . S
C1031 C1026 1.379 . S
C1031 N1029 1.356 . S
N1032 C1024 1.356 . S
N1032 H1038 0.984 . S
N1032 H1039 0.984 . S
N1033 C1026 1.356 . S
N1033 H1036 0.984 . S
N1033 H1037 0.985 1_554 S
H1034 N1029 0.984 . S
H1035 N1029 0.985 1_556 S
H1036 N1033 0.984 . S
H1037 N1033 0.985 1_556 S
H1038 N1032 0.984 . S
H1039 N1032 0.984 . S
H1040 N1028 0.984 . S
H1041 N1028 0.985 . S
C1042 C1043 1.363 . S
C1042 C1048 1.379 1_655 S
C1042 N1050 1.356 . S
C1043 C1042 1.363 . S
C1043 C1049 1.363 . S
C1044 C1045 1.363 . S
C1044 C1049 1.379 1_455 S
C1044 N1051 1.356 . S
C1045 C1044 1.363 . S
C1045 C1048 1.363 . S
N1046 C1048 1.356 . S
N1046 H1058 0.984 . S
N1046 H1059 0.985 . S
N1047 C1049 1.356 . S
N1047 H1052 0.984 . S
N1047 H1053 0.985 . S
C1048 C1042 1.379 1_455 S
C1048 C1045 1.363 . S
C1048 N1046 1.356 . S
C1049 C1043 1.363 . S
C1049 C1044 1.379 1_655 S
C1049 N1047 1.356 . S
N1050 C1042 1.356 . S
N1050 H1056 0.984 . S
N1050 H1057 0.984 . S
N1051 C1044 1.356 . S
N1051 H1054 0.984 . S
N1051 H1055 0.985 . S
H1052 N1047 0.984 . S
H1053 N1047 0.985 . S
H1054 N1051 0.984 . S
H1055 N1051 0.985 . S
H1056 N1050 0.984 . S
H1057 N1050 0.984 . S
H1058 N1046 0.984 . S
H1059 N1046 0.985 . S
C1060 C1061 1.363 . S
C1060 C1066 1.379 . S
C1060 N1068 1.356 . S
C1061 C1060 1.363 . S
C1061 C1067 1.363 . S
C1062 C1063 1.363 . S
C1062 C1067 1.379 . S
C1062 N1069 1.356 . S
C1063 C1062 1.363 . S
C1063 C1066 1.363 . S
N1064 C1066 1.356 . S
N1064 H1076 0.984 . S
N1064 H1077 0.985 . S
N1065 C1067 1.356 . S
N1065 H1070 0.984 . S
N1065 H1071 0.985 . S
C1066 C1060 1.379 . S
C1066 C1063 1.363 . S
C1066 N1064 1.356 . S
C1067 C1061 1.363 . S
C1067 C1062 1.379 . S
C1067 N1065 1.356 . S
N1068 C1060 1.356 . S
N1068 H1074 0.984 . S
N1068 H1075 0.984 . S
N1069 C1062 1.356 . S
N1069 H1072 0.984 . S
N1069 H1073 0.985 . S
H1070 N1065 0.984 . S
H1071 N1065 0.985 . S
H1072 N1069 0.984 . S
H1073 N1069 0.985 . S
H1074 N1068 0.984 . S
H1075 N1068 0.984 . S
H1076 N1064 0.984 . S
H1077 N1064 0.985 . S
C1078 C1079 1.363 . S
C1078 C1084 1.379 . S
C1078 N1086 1.356 . S
C1079 C1078 1.363 . S
C1079 C1085 1.363 . S
C1080 C1081 1.363 . S
C1080 C1085 1.379 . S
C1080 N1087 1.356 . S
C1081 C1080 1.363 . S
C1081 C1084 1.363 . S
N1082 C1084 1.356 . S
N1082 H1094 0.986 1_556 S
N1082 H1095 0.985 . S
N1083 C1085 1.356 . S
N1083 H1088 0.984 . S
N1083 H1089 0.985 . S
C1084 C1078 1.379 . S
C1084 C1081 1.363 . S
C1084 N1082 1.356 . S
C1085 C1079 1.363 . S
C1085 C1080 1.379 . S
C1085 N1083 1.356 . S
N1086 C1078 1.356 . S
N1086 H1092 0.986 1_556 S
N1086 H1093 0.984 . S
N1087 C1080 1.356 . S
N1087 H1090 0.984 . S
N1087 H1091 0.985 . S
H1088 N1083 0.984 . S
H1089 N1083 0.985 . S
H1090 N1087 0.984 . S
H1091 N1087 0.985 . S
H1092 N1086 0.986 1_554 S
H1093 N1086 0.984 . S
H1094 N1082 0.986 1_554 S
H1095 N1082 0.985 . S
C1096 C1097 1.363 . S
C1096 C1102 1.379 . S
C1096 N1104 1.356 . S
C1097 C1096 1.363 . S
C1097 C1103 1.363 . S
C1098 C1099 1.363 . S
C1098 C1103 1.379 . S
C1098 N1105 1.356 . S
C1099 C1098 1.363 . S
C1099 C1102 1.363 . S
N1100 C1102 1.356 . S
N1100 H1112 0.984 . S
N1100 H1113 0.985 . S
N1101 C1103 1.356 . S
N1101 H1106 0.984 . S
N1101 H1107 0.985 1_556 S
C1102 C1096 1.379 . S
C1102 C1099 1.363 . S
C1102 N1100 1.356 . S
C1103 C1097 1.363 . S
C1103 C1098 1.379 . S
C1103 N1101 1.356 . S
N1104 C1096 1.356 . S
N1104 H1110 0.984 . S
N1104 H1111 0.984 . S
N1105 C1098 1.356 . S
N1105 H1108 0.984 . S
N1105 H1109 0.985 1_556 S
H1106 N1101 0.984 . S
H1107 N1101 0.985 1_554 S
H1108 N1105 0.984 . S
H1109 N1105 0.985 1_554 S
H1110 N1104 0.984 . S
H1111 N1104 0.984 . S
H1112 N1100 0.984 . S
H1113 N1100 0.985 . S
C1114 C1115 1.363 . S
C1114 C1120 1.379 . S
C1114 N1122 1.356 . S
C1115 C1114 1.363 . S
C1115 C1121 1.363 . S
C1116 C1117 1.363 . S
C1116 C1121 1.379 . S
C1116 N1123 1.356 . S
C1117 C1116 1.363 . S
C1117 C1120 1.363 . S
N1118 C1120 1.356 . S
N1118 H1130 0.984 1_554 S
N1118 H1131 0.985 . S
N1119 C1121 1.356 . S
N1119 H1124 0.984 . S
N1119 H1125 0.985 . S
C1120 C1114 1.379 . S
C1120 C1117 1.363 . S
C1120 N1118 1.356 . S
C1121 C1115 1.363 . S
C1121 C1116 1.379 . S
C1121 N1119 1.356 . S
N1122 C1114 1.356 . S
N1122 H1128 0.984 1_554 S
N1122 H1129 0.984 . S
N1123 C1116 1.356 . S
N1123 H1126 0.984 . S
N1123 H1127 0.985 . S
H1124 N1119 0.984 . S
H1125 N1119 0.985 . S
H1126 N1123 0.984 . S
H1127 N1123 0.985 . S
H1128 N1122 0.984 1_556 S
H1129 N1122 0.984 . S
H1130 N1118 0.984 1_556 S
H1131 N1118 0.985 . S
C1132 C1133 1.363 . S
C1132 C1138 1.379 . S
C1132 N1140 1.356 . S
C1133 C1132 1.363 . S
C1133 C1139 1.363 . S
C1134 C1135 1.363 . S
C1134 C1139 1.379 . S
C1134 N1141 1.356 . S
C1135 C1134 1.363 . S
C1135 C1138 1.363 . S
N1136 C1138 1.356 . S
N1136 H1148 0.984 . S
N1136 H1149 0.985 . S
N1137 C1139 1.356 . S
N1137 H1142 0.984 . S
N1137 H1143 0.985 . S
C1138 C1132 1.379 . S
C1138 C1135 1.363 . S
C1138 N1136 1.356 . S
C1139 C1133 1.363 . S
C1139 C1134 1.379 . S
C1139 N1137 1.356 . S
N1140 C1132 1.356 . S
N1140 H1146 0.984 . S
N1140 H1147 0.984 . S
N1141 C1134 1.356 . S
N1141 H1144 0.984 . S
N1141 H1145 0.985 . S
H1142 N1137 0.984 . S
H1143 N1137 0.985 . S
H1144 N1141 0.984 . S
H1145 N1141 0.985 . S
H1146 N1140 0.984 . S
H1147 N1140 0.984 . S
H1148 N1136 0.984 . S
H1149 N1136 0.985 . S
C1150 C1151 1.363 . S
C1150 C1156 1.379 1_655 S
C1150 N1158 1.356 . S
C1151 C1150 1.363 . S
C1151 C1157 1.363 . S
C1152 C1153 1.363 . S
C1152 C1157 1.379 1_455 S
C1152 N1159 1.356 . S
C1153 C1152 1.363 . S
C1153 C1156 1.363 . S
N1154 C1156 1.356 . S
N1154 H1166 0.984 . S
N1154 H1167 0.985 . S
N1155 C1157 1.356 . S
N1155 H1160 0.984 . S
N1155 H1161 0.985 . S
C1156 C1150 1.379 1_455 S
C1156 C1153 1.363 . S
C1156 N1154 1.356 . S
C1157 C1151 1.363 . S
C1157 C1152 1.379 1_655 S
C1157 N1155 1.356 . S
N1158 C1150 1.356 . S
N1158 H1164 0.984 . S
N1158 H1165 0.984 . S
N1159 C1152 1.356 . S
N1159 H1162 0.984 . S
N1159 H1163 0.985 . S
H1160 N1155 0.984 . S
H1161 N1155 0.985 . S
H1162 N1159 0.984 . S
H1163 N1159 0.985 . S
H1164 N1158 0.984 . S
H1165 N1158 0.984 . S
H1166 N1154 0.984 . S
H1167 N1154 0.985 . S
C1168 C1169 1.363 . S
C1168 C1174 1.379 . S
C1168 N1176 1.356 . S
C1169 C1168 1.363 . S
C1169 C1175 1.363 . S
C1170 C1171 1.363 . S
C1170 C1175 1.379 . S
C1170 N1177 1.356 . S
C1171 C1170 1.363 . S
C1171 C1174 1.363 . S
N1172 C1174 1.356 . S
N1172 H1184 0.984 . S
N1172 H1185 0.985 . S
N1173 C1175 1.356 . S
N1173 H1178 0.984 . S
N1173 H1179 0.985 1_556 S
C1174 C1168 1.379 . S
C1174 C1171 1.363 . S
C1174 N1172 1.356 . S
C1175 C1169 1.363 . S
C1175 C1170 1.379 . S
C1175 N1173 1.356 . S
N1176 C1168 1.356 . S
N1176 H1182 0.984 . S
N1176 H1183 0.984 . S
N1177 C1170 1.356 . S
N1177 H1180 0.984 . S
N1177 H1181 0.985 1_556 S
H1178 N1173 0.984 . S
H1179 N1173 0.985 1_554 S
H1180 N1177 0.984 . S
H1181 N1177 0.985 1_554 S
H1182 N1176 0.984 . S
H1183 N1176 0.984 . S
H1184 N1172 0.984 . S
H1185 N1172 0.985 . S
C1186 C1187 1.363 . S
C1186 C1192 1.379 . S
C1186 N1194 1.356 . S
C1187 C1186 1.363 . S
C1187 C1193 1.363 . S
C1188 C1189 1.363 . S
C1188 C1193 1.379 . S
C1188 N1195 1.356 . S
C1189 C1188 1.363 . S
C1189 C1192 1.363 . S
N1190 C1192 1.356 . S
N1190 H1202 0.984 . S
N1190 H1203 0.985 . S
N1191 C1193 1.356 . S
N1191 H1196 0.984 . S
N1191 H1197 0.985 . S
C1192 C1186 1.379 . S
C1192 C1189 1.363 . S
C1192 N1190 1.356 . S
C1193 C1187 1.363 . S
C1193 C1188 1.379 . S
C1193 N1191 1.356 . S
N1194 C1186 1.356 . S
N1194 H1200 0.984 . S
N1194 H1201 0.984 . S
N1195 C1188 1.356 . S
N1195 H1198 0.984 . S
N1195 H1199 0.985 . S
H1196 N1191 0.984 . S
H1197 N1191 0.985 . S
H1198 N1195 0.984 . S
H1199 N1195 0.985 . S
H1200 N1194 0.984 . S
H1201 N1194 0.984 . S
H1202 N1190 0.984 . S
H1203 N1190 0.985 . S
C1204 C1205 1.363 . S
C1204 C1210 1.379 . S
C1204 N1212 1.356 . S
C1205 C1204 1.363 . S
C1205 C1211 1.363 . S
C1206 C1207 1.363 . S
C1206 C1211 1.379 . S
C1206 N1213 1.356 . S
C1207 C1206 1.363 . S
C1207 C1210 1.363 . S
N1208 C1210 1.356 . S
N1208 H1220 0.984 1_554 S
N1208 H1221 0.985 . S
N1209 C1211 1.356 . S
N1209 H1214 0.984 . S
N1209 H1215 0.985 . S
C1210 C1204 1.379 . S
C1210 C1207 1.363 . S
C1210 N1208 1.356 . S
C1211 C1205 1.363 . S
C1211 C1206 1.379 . S
C1211 N1209 1.356 . S
N1212 C1204 1.356 . S
N1212 H1218 0.984 1_554 S
N1212 H1219 0.984 . S
N1213 C1206 1.356 . S
N1213 H1216 0.984 . S
N1213 H1217 0.985 . S
H1214 N1209 0.984 . S
H1215 N1209 0.985 . S
H1216 N1213 0.984 . S
H1217 N1213 0.985 . S
H1218 N1212 0.984 1_556 S
H1219 N1212 0.984 . S
H1220 N1208 0.984 1_556 S
H1221 N1208 0.985 . S
C1222 C1223 1.363 . S
C1222 C1228 1.379 . S
C1222 N1230 1.356 . S
C1223 C1222 1.363 . S
C1223 C1229 1.363 . S
C1224 C1225 1.363 . S
C1224 C1229 1.379 . S
C1224 N1231 1.356 . S
C1225 C1224 1.363 . S
C1225 C1228 1.363 . S
N1226 C1228 1.356 . S
N1226 H1238 0.984 . S
N1226 H1239 0.985 . S
N1227 C1229 1.356 . S
N1227 H1232 0.984 . S
N1227 H1233 0.985 . S
C1228 C1222 1.379 . S
C1228 C1225 1.363 . S
C1228 N1226 1.356 . S
C1229 C1223 1.363 . S
C1229 C1224 1.379 . S
C1229 N1227 1.356 . S
N1230 C1222 1.356 . S
N1230 H1236 0.984 . S
N1230 H1237 0.984 . S
N1231 C1224 1.356 . S
N1231 H1234 0.984 . S
N1231 H1235 0.985 . S
H1232 N1227 0.984 . S
H1233 N1227 0.985 . S
H1234 N1231 0.984 . S
H1235 N1231 0.985 . S
H1236 N1230 0.984 . S
H1237 N1230 0.984 . S
H1238 N1226 0.984 . S
H1239 N1226 0.985 . S
C1240 C1241 1.363 . S
C1240 C1246 1.379 . S
C1240 N1248 1.356 . S
C1241 C1240 1.363 . S
C1241 C1247 1.363 . S
C1242 C1243 1.363 . S
C1242 C1247 1.379 . S
C1242 N1249 1.356 . S
C1243 C1242 1.363 . S
C1243 C1246 1.363 . S
N1244 C1246 1.356 . S
N1244 H1256 0.984 . S
N1244 H1257 0.985 . S
N1245 C1247 1.356 . S
N1245 H1250 0.984 . S
N1245 H1251 0.985 . S
C1246 C1240 1.379 . S
C1246 C1243 1.363 . S
C1246 N1244 1.356 . S
C1247 C1241 1.363 . S
C1247 C1242 1.379 . S
C1247 N1245 1.356 . S
N1248 C1240 1.356 . S
N1248 H1254 0.984 . S
N1248 H1255 0.984 . S
N1249 C1242 1.356 . S
N1249 H1252 0.984 . S
N1249 H1253 0.985 . S
H1250 N1245 0.984 . S
H1251 N1245 0.985 . S
H1252 N1249 0.984 . S
H1253 N1249 0.985 . S
H1254 N1248 0.984 . S
H1255 N1248 0.984 . S
H1256 N1244 0.984 . S
H1257 N1244 0.985 . S
C1258 C1259 1.363 . S
C1258 C1264 1.379 1_655 S
C1258 N1266 1.356 . S
C1259 C1258 1.363 . S
C1259 C1265 1.363 . S
C1260 C1261 1.363 . S
C1260 C1265 1.379 1_455 S
C1260 N1267 1.356 . S
C1261 C1260 1.363 . S
C1261 C1264 1.363 . S
N1262 C1264 1.356 . S
N1262 H1274 0.984 . S
N1262 H1275 0.985 . S
N1263 C1265 1.356 . S
N1263 H1268 0.984 . S
N1263 H1269 0.985 . S
C1264 C1258 1.379 1_455 S
C1264 C1261 1.363 . S
C1264 N1262 1.356 . S
C1265 C1259 1.363 . S
C1265 C1260 1.379 1_655 S
C1265 N1263 1.356 . S
N1266 C1258 1.356 . S
N1266 H1272 0.984 . S
N1266 H1273 0.984 . S
N1267 C1260 1.356 . S
N1267 H1270 0.984 . S
N1267 H1271 0.985 . S
H1268 N1263 0.984 . S
H1269 N1263 0.985 . S
H1270 N1267 0.984 . S
H1271 N1267 0.985 . S
H1272 N1266 0.984 . S
H1273 N1266 0.984 . S
H1274 N1262 0.984 . S
H1275 N1262 0.985 . S
C1276 C1277 1.363 . S
C1276 C1282 1.379 1_655 S
C1276 N1284 1.356 . S
C1277 C1276 1.363 . S
C1277 C1283 1.363 . S
C1278 C1279 1.363 . S
C1278 C1283 1.379 1_455 S
C1278 N1285 1.356 . S
C1279 C1278 1.363 . S
C1279 C1282 1.363 . S
N1280 C1282 1.356 . S
N1280 H1292 0.984 . S
N1280 H1293 0.985 . S
N1281 C1283 1.356 . S
N1281 H1286 0.984 . S
N1281 H1287 0.985 . S
C1282 C1276 1.379 1_455 S
C1282 C1279 1.363 . S
C1282 N1280 1.356 . S
C1283 C1277 1.363 . S
C1283 C1278 1.379 1_655 S
C1283 N1281 1.356 . S
N1284 C1276 1.356 . S
N1284 H1290 0.984 . S
N1284 H1291 0.984 . S
N1285 C1278 1.356 . S
N1285 H1288 0.984 . S
N1285 H1289 0.985 . S
H1286 N1281 0.984 . S
H1287 N1281 0.985 . S
H1288 N1285 0.984 . S
H1289 N1285 0.985 . S
H1290 N1284 0.984 . S
H1291 N1284 0.984 . S
H1292 N1280 0.984 . S
H1293 N1280 0.985 . S
C1294 C1295 1.363 . S
C1294 C1300 1.379 . S
C1294 N1302 1.356 . S
C1295 C1294 1.363 . S
C1295 C1301 1.363 . S
C1296 C1297 1.363 . S
C1296 C1301 1.379 . S
C1296 N1303 1.356 . S
C1297 C1296 1.363 . S
C1297 C1300 1.363 . S
N1298 C1300 1.356 . S
N1298 H1310 0.984 . S
N1298 H1311 0.985 . S
N1299 C1301 1.356 . S
N1299 H1304 0.984 . S
N1299 H1305 0.985 1_554 S
C1300 C1294 1.379 . S
C1300 C1297 1.363 . S
C1300 N1298 1.356 . S
C1301 C1295 1.363 . S
C1301 C1296 1.379 . S
C1301 N1299 1.356 . S
N1302 C1294 1.356 . S
N1302 H1308 0.984 . S
N1302 H1309 0.984 . S
N1303 C1296 1.356 . S
N1303 H1306 0.984 . S
N1303 H1307 0.985 1_554 S
H1304 N1299 0.984 . S
H1305 N1299 0.985 1_556 S
H1306 N1303 0.984 . S
H1307 N1303 0.985 1_556 S
H1308 N1302 0.984 . S
H1309 N1302 0.984 . S
H1310 N1298 0.984 . S
H1311 N1298 0.985 . S
C1312 C1313 1.363 . S
C1312 C1318 1.379 . S
C1312 N1320 1.356 . S
C1313 C1312 1.363 . S
C1313 C1319 1.363 . S
C1314 C1315 1.363 . S
C1314 C1319 1.379 . S
C1314 N1321 1.356 . S
C1315 C1314 1.363 . S
C1315 C1318 1.363 . S
N1316 C1318 1.356 . S
N1316 H1328 0.984 . S
N1316 H1329 0.985 . S
N1317 C1319 1.356 . S
N1317 H1322 0.984 . S
N1317 H1323 0.985 . S
C1318 C1312 1.379 . S
C1318 C1315 1.363 . S
C1318 N1316 1.356 . S
C1319 C1313 1.363 . S
C1319 C1314 1.379 . S
C1319 N1317 1.356 . S
N1320 C1312 1.356 . S
N1320 H1326 0.984 . S
N1320 H1327 0.984 . S
N1321 C1314 1.356 . S
N1321 H1324 0.984 . S
N1321 H1325 0.985 . S
H1322 N1317 0.984 . S
H1323 N1317 0.985 . S
H1324 N1321 0.984 . S
H1325 N1321 0.985 . S
H1326 N1320 0.984 . S
H1327 N1320 0.984 . S
H1328 N1316 0.984 . S
H1329 N1316 0.985 . S
C1330 C1331 1.363 . S
C1330 C1336 1.379 . S
C1330 N1338 1.356 . S
C1331 C1330 1.363 . S
C1331 C1337 1.363 . S
C1332 C1333 1.363 . S
C1332 C1337 1.379 . S
C1332 N1339 1.356 . S
C1333 C1332 1.363 . S
C1333 C1336 1.363 . S
N1334 C1336 1.356 . S
N1334 H1346 0.984 . S
N1334 H1347 0.985 . S
N1335 C1337 1.356 . S
N1335 H1340 0.984 . S
N1335 H1341 0.985 . S
C1336 C1330 1.379 . S
C1336 C1333 1.363 . S
C1336 N1334 1.356 . S
C1337 C1331 1.363 . S
C1337 C1332 1.379 . S
C1337 N1335 1.356 . S
N1338 C1330 1.356 . S
N1338 H1344 0.984 . S
N1338 H1345 0.984 . S
N1339 C1332 1.356 . S
N1339 H1342 0.984 . S
N1339 H1343 0.985 . S
H1340 N1335 0.984 . S
H1341 N1335 0.985 . S
H1342 N1339 0.984 . S
H1343 N1339 0.985 . S
H1344 N1338 0.984 . S
H1345 N1338 0.984 . S
H1346 N1334 0.984 . S
H1347 N1334 0.985 . S
C1348 C1349 1.363 . S
C1348 C1354 1.379 . S
C1348 N1356 1.356 . S
C1349 C1348 1.363 . S
C1349 C1355 1.363 . S
C1350 C1351 1.363 . S
C1350 C1355 1.379 . S
C1350 N1357 1.356 . S
C1351 C1350 1.363 . S
C1351 C1354 1.363 . S
N1352 C1354 1.356 . S
N1352 H1364 0.984 . S
N1352 H1365 0.985 . S
N1353 C1355 1.356 . S
N1353 H1358 0.984 1_556 S
N1353 H1359 0.985 . S
C1354 C1348 1.379 . S
C1354 C1351 1.363 . S
C1354 N1352 1.356 . S
C1355 C1349 1.363 . S
C1355 C1350 1.379 . S
C1355 N1353 1.356 . S
N1356 C1348 1.356 . S
N1356 H1362 0.984 . S
N1356 H1363 0.984 . S
N1357 C1350 1.356 . S
N1357 H1360 0.984 . S
N1357 H1361 0.985 . S
H1358 N1353 0.984 1_554 S
H1359 N1353 0.985 . S
H1360 N1357 0.984 . S
H1361 N1357 0.985 . S
H1362 N1356 0.984 . S
H1363 N1356 0.984 . S
H1364 N1352 0.984 . S
H1365 N1352 0.985 . S
C1366 C1367 1.363 . S
C1366 C1372 1.379 . S
C1366 N1374 1.356 . S
C1367 C1366 1.363 . S
C1367 C1373 1.363 . S
C1368 C1369 1.363 . S
C1368 C1373 1.379 . S
C1368 N1375 1.356 . S
C1369 C1368 1.363 . S
C1369 C1372 1.363 . S
N1370 C1372 1.356 . S
N1370 H1382 0.984 . S
N1370 H1383 0.985 . S
N1371 C1373 1.356 . S
N1371 H1376 0.984 1_554 S
N1371 H1377 0.985 . S
C1372 C1366 1.379 . S
C1372 C1369 1.363 . S
C1372 N1370 1.356 . S
C1373 C1367 1.363 . S
C1373 C1368 1.379 . S
C1373 N1371 1.356 . S
N1374 C1366 1.356 . S
N1374 H1380 0.984 . S
N1374 H1381 0.984 . S
N1375 C1368 1.356 . S
N1375 H1378 0.984 . S
N1375 H1379 0.985 . S
H1376 N1371 0.984 1_556 S
H1377 N1371 0.985 . S
H1378 N1375 0.984 . S
H1379 N1375 0.985 . S
H1380 N1374 0.984 . S
H1381 N1374 0.984 . S
H1382 N1370 0.984 . S
H1383 N1370 0.985 . S
C1384 C1385 1.363 . S
C1384 C1390 1.379 . S
C1384 N1392 1.356 . S
C1385 C1384 1.363 . S
C1385 C1391 1.363 . S
C1386 C1387 1.363 . S
C1386 C1391 1.379 . S
C1386 N1393 1.356 . S
C1387 C1386 1.363 . S
C1387 C1390 1.363 . S
N1388 C1390 1.356 . S
N1388 H1400 0.984 . S
N1388 H1401 0.985 . S
N1389 C1391 1.356 . S
N1389 H1394 0.984 . S
N1389 H1395 0.985 . S
C1390 C1384 1.379 . S
C1390 C1387 1.363 . S
C1390 N1388 1.356 . S
C1391 C1385 1.363 . S
C1391 C1386 1.379 . S
C1391 N1389 1.356 . S
N1392 C1384 1.356 . S
N1392 H1398 0.984 . S
N1392 H1399 0.984 . S
N1393 C1386 1.356 . S
N1393 H1396 0.984 . S
N1393 H1397 0.985 . S
H1394 N1389 0.984 . S
H1395 N1389 0.985 . S
H1396 N1393 0.984 . S
H1397 N1393 0.985 . S
H1398 N1392 0.984 . S
H1399 N1392 0.984 . S
H1400 N1388 0.984 . S
H1401 N1388 0.985 . S
C1402 C1403 1.363 . S
C1402 C1408 1.379 . S
C1402 N1410 1.356 . S
C1403 C1402 1.363 . S
C1403 C1409 1.363 . S
C1404 C1405 1.363 . S
C1404 C1409 1.379 . S
C1404 N1411 1.356 . S
C1405 C1404 1.363 . S
C1405 C1408 1.363 . S
N1406 C1408 1.356 . S
N1406 H1418 0.984 . S
N1406 H1419 0.985 . S
N1407 C1409 1.356 . S
N1407 H1412 0.984 . S
N1407 H1413 0.985 . S
C1408 C1402 1.379 . S
C1408 C1405 1.363 . S
C1408 N1406 1.356 . S
C1409 C1403 1.363 . S
C1409 C1404 1.379 . S
C1409 N1407 1.356 . S
N1410 C1402 1.356 . S
N1410 H1416 0.984 . S
N1410 H1417 0.984 . S
N1411 C1404 1.356 . S
N1411 H1414 0.984 . S
N1411 H1415 0.985 . S
H1412 N1407 0.984 . S
H1413 N1407 0.985 . S
H1414 N1411 0.984 . S
H1415 N1411 0.985 . S
H1416 N1410 0.984 . S
H1417 N1410 0.984 . S
H1418 N1406 0.984 . S
H1419 N1406 0.985 . S
C1420 C1421 1.363 . S
C1420 C1426 1.379 . S
C1420 N1428 1.356 . S
C1421 C1420 1.363 . S
C1421 C1427 1.363 . S
C1422 C1423 1.363 . S
C1422 C1427 1.379 . S
C1422 N1429 1.356 . S
C1423 C1422 1.363 . S
C1423 C1426 1.363 . S
N1424 C1426 1.356 . S
N1424 H1436 0.984 . S
N1424 H1437 0.985 1_554 S
N1425 C1427 1.356 . S
N1425 H1430 0.984 . S
N1425 H1431 0.985 . S
C1426 C1420 1.379 . S
C1426 C1423 1.363 . S
C1426 N1424 1.356 . S
C1427 C1421 1.363 . S
C1427 C1422 1.379 . S
C1427 N1425 1.356 . S
N1428 C1420 1.356 . S
N1428 H1434 0.984 . S
N1428 H1435 0.984 . S
N1429 C1422 1.356 . S
N1429 H1432 0.984 . S
N1429 H1433 0.985 . S
H1430 N1425 0.984 . S
H1431 N1425 0.985 . S
H1432 N1429 0.984 . S
H1433 N1429 0.985 . S
H1434 N1428 0.984 . S
H1435 N1428 0.984 . S
H1436 N1424 0.984 . S
H1437 N1424 0.985 1_556 S
C1438 C1439 1.363 . S
C1438 C1444 1.379 . S
C1438 N1446 1.356 . S
C1439 C1438 1.363 . S
C1439 C1445 1.363 . S
C1440 C1441 1.363 . S
C1440 C1445 1.379 . S
C1440 N1447 1.356 . S
C1441 C1440 1.363 . S
C1441 C1444 1.363 . S
N1442 C1444 1.356 . S
N1442 H1454 0.984 . S
N1442 H1455 0.985 1_556 S
N1443 C1445 1.356 . S
N1443 H1448 0.984 . S
N1443 H1449 0.985 . S
C1444 C1438 1.379 . S
C1444 C1441 1.363 . S
C1444 N1442 1.356 . S
C1445 C1439 1.363 . S
C1445 C1440 1.379 . S
C1445 N1443 1.356 . S
N1446 C1438 1.356 . S
N1446 H1452 0.984 . S
N1446 H1453 0.984 . S
N1447 C1440 1.356 . S
N1447 H1450 0.984 . S
N1447 H1451 0.985 . S
H1448 N1443 0.984 . S
H1449 N1443 0.985 . S
H1450 N1447 0.984 . S
H1451 N1447 0.985 . S
H1452 N1446 0.984 . S
H1453 N1446 0.984 . S
H1454 N1442 0.984 . S
H1455 N1442 0.985 1_554 S
C1456 C1457 1.363 . S
C1456 C1462 1.379 . S
C1456 N1464 1.356 . S
C1457 C1456 1.363 . S
C1457 C1463 1.363 . S
C1458 C1459 1.363 . S
C1458 C1463 1.379 . S
C1458 N1465 1.356 . S
C1459 C1458 1.363 . S
C1459 C1462 1.363 . S
N1460 C1462 1.356 . S
N1460 H1472 0.984 . S
N1460 H1473 0.985 . S
N1461 C1463 1.356 . S
N1461 H1466 0.989 . S
N1461 H1467 0.985 . S
C1462 C1456 1.379 . S
C1462 C1459 1.363 . S
C1462 N1460 1.356 . S
C1463 C1457 1.363 . S
C1463 C1458 1.379 . S
C1463 N1461 1.356 . S
N1464 C1456 1.356 . S
N1464 H1470 0.984 . S
N1464 H1471 0.984 1_556 S
N1465 C1458 1.356 . S
N1465 H1468 0.984 . S
N1465 H1469 0.985 . S
H1466 N1461 0.989 . S
H1467 N1461 0.985 . S
H1468 N1465 0.984 . S
H1469 N1465 0.985 . S
H1470 N1464 0.984 . S
H1471 N1464 0.984 1_554 S
H1472 N1460 0.984 . S
H1473 N1460 0.985 . S
C1474 C1475 1.363 . S
C1474 C1480 1.379 . S
C1474 N1482 1.356 . S
C1475 C1474 1.363 . S
C1475 C1481 1.363 . S
C1476 C1477 1.363 . S
C1476 C1481 1.379 . S
C1476 N1483 1.356 . S
C1477 C1476 1.363 . S
C1477 C1480 1.363 . S
N1478 C1480 1.356 . S
N1478 H1490 0.984 . S
N1478 H1491 0.985 . S
N1479 C1481 1.356 . S
N1479 H1484 0.984 . S
N1479 H1485 0.985 . S
C1480 C1474 1.379 . S
C1480 C1477 1.363 . S
C1480 N1478 1.356 . S
C1481 C1475 1.363 . S
C1481 C1476 1.379 . S
C1481 N1479 1.356 . S
N1482 C1474 1.356 . S
N1482 H1488 0.984 . S
N1482 H1489 0.984 . S
N1483 C1476 1.356 . S
N1483 H1486 0.984 1_554 S
N1483 H1487 0.985 . S
H1484 N1479 0.984 . S
H1485 N1479 0.985 . S
H1486 N1483 0.984 1_556 S
H1487 N1483 0.985 . S
H1488 N1482 0.984 . S
H1489 N1482 0.984 . S
H1490 N1478 0.984 . S
H1491 N1478 0.985 . S
C1492 C1493 1.363 . S
C1492 C1498 1.379 . S
C1492 N1500 1.356 . S
C1493 C1492 1.363 . S
C1493 C1499 1.363 . S
C1494 C1495 1.363 . S
C1494 C1499 1.379 . S
C1494 N1501 1.356 . S
C1495 C1494 1.363 . S
C1495 C1498 1.363 . S
N1496 C1498 1.356 . S
N1496 H1508 0.984 . S
N1496 H1509 0.985 . S
N1497 C1499 1.356 . S
N1497 H1502 0.984 . S
N1497 H1503 0.985 . S
C1498 C1492 1.379 . S
C1498 C1495 1.363 . S
C1498 N1496 1.356 . S
C1499 C1493 1.363 . S
C1499 C1494 1.379 . S
C1499 N1497 1.356 . S
N1500 C1492 1.356 . S
N1500 H1506 0.984 . S
N1500 H1507 0.984 . S
N1501 C1494 1.356 . S
N1501 H1504 0.984 . S
N1501 H1505 0.985 . S
H1502 N1497 0.984 . S
H1503 N1497 0.985 . S
H1504 N1501 0.984 . S
H1505 N1501 0.985 . S
H1506 N1500 0.984 . S
H1507 N1500 0.984 . S
H1508 N1496 0.984 . S
H1509 N1496 0.985 . S
C1510 C1511 1.363 . S
C1510 C1516 1.379 . S
C1510 N1518 1.356 . S
C1511 C1510 1.363 . S
C1511 C1517 1.363 . S
C1512 C1513 1.363 . S
C1512 C1517 1.379 . S
C1512 N1519 1.356 . S
C1513 C1512 1.363 . S
C1513 C1516 1.363 . S
N1514 C1516 1.356 . S
N1514 H1526 0.984 . S
N1514 H1527 0.985 . S
N1515 C1517 1.356 . S
N1515 H1520 0.984 . S
N1515 H1521 0.985 . S
C1516 C1510 1.379 . S
C1516 C1513 1.363 . S
C1516 N1514 1.356 . S
C1517 C1511 1.363 . S
C1517 C1512 1.379 . S
C1517 N1515 1.356 . S
N1518 C1510 1.356 . S
N1518 H1524 0.984 . S
N1518 H1525 0.984 . S
N1519 C1512 1.356 . S
N1519 H1522 0.984 . S
N1519 H1523 0.985 . S
H1520 N1515 0.984 . S
H1521 N1515 0.985 . S
H1522 N1519 0.984 . S
H1523 N1519 0.985 . S
H1524 N1518 0.984 . S
H1525 N1518 0.984 . S
H1526 N1514 0.984 . S
H1527 N1514 0.985 . S
C1528 C1529 1.363 . S
C1528 C1534 1.379 . S
C1528 N1536 1.356 . S
C1529 C1528 1.363 . S
C1529 C1535 1.363 . S
C1530 C1531 1.363 . S
C1530 C1535 1.379 . S
C1530 N1537 1.356 . S
C1531 C1530 1.363 . S
C1531 C1534 1.363 . S
N1532 C1534 1.356 . S
N1532 H1544 0.984 . S
N1532 H1545 0.985 . S
N1533 C1535 1.356 . S
N1533 H1538 0.984 . S
N1533 H1539 0.985 . S
C1534 C1528 1.379 . S
C1534 C1531 1.363 . S
C1534 N1532 1.356 . S
C1535 C1529 1.363 . S
C1535 C1530 1.379 . S
C1535 N1533 1.356 . S
N1536 C1528 1.356 . S
N1536 H1542 0.984 . S
N1536 H1543 0.984 . S
N1537 C1530 1.356 . S
N1537 H1540 0.984 1_554 S
N1537 H1541 0.985 . S
H1538 N1533 0.984 . S
H1539 N1533 0.985 . S
H1540 N1537 0.984 1_556 S
H1541 N1537 0.985 . S
H1542 N1536 0.984 . S
H1543 N1536 0.984 . S
H1544 N1532 0.984 . S
H1545 N1532 0.985 . S
C1546 C1547 1.363 . S
C1546 C1552 1.379 . S
C1546 N1554 1.356 1_556 S
C1547 C1546 1.363 . S
C1547 C1553 1.363 . S
C1548 C1549 1.363 . S
C1548 C1553 1.379 . S
C1548 N1555 1.356 . S
C1549 C1548 1.363 . S
C1549 C1552 1.363 . S
N1550 C1552 1.356 . S
N1550 H1562 0.984 . S
N1550 H1563 0.985 . S
N1551 C1553 1.356 . S
N1551 H1556 0.984 . S
N1551 H1557 0.985 . S
C1552 C1546 1.379 . S
C1552 C1549 1.363 . S
C1552 N1550 1.356 . S
C1553 C1547 1.363 . S
C1553 C1548 1.379 . S
C1553 N1551 1.356 . S
N1554 C1546 1.356 1_554 S
N1554 H1560 0.984 . S
N1554 H1561 0.984 . S
N1555 C1548 1.356 . S
N1555 H1558 0.984 . S
N1555 H1559 0.985 . S
H1556 N1551 0.984 . S
H1557 N1551 0.985 . S
H1558 N1555 0.984 . S
H1559 N1555 0.985 . S
H1560 N1554 0.984 . S
H1561 N1554 0.984 . S
H1562 N1550 0.984 . S
H1563 N1550 0.985 . S
C1564 C1565 1.363 . S
C1564 C1570 1.379 . S
C1564 N1572 1.356 . S
C1565 C1564 1.363 . S
C1565 C1571 1.363 . S
C1566 C1567 1.363 . S
C1566 C1571 1.379 . S
C1566 N1573 1.356 . S
C1567 C1566 1.363 . S
C1567 C1570 1.363 . S
N1568 C1570 1.356 . S
N1568 H1580 0.984 . S
N1568 H1581 0.985 . S
N1569 C1571 1.356 . S
N1569 H1574 0.984 . S
N1569 H1575 0.985 . S
C1570 C1564 1.379 . S
C1570 C1567 1.363 . S
C1570 N1568 1.356 . S
C1571 C1565 1.363 . S
C1571 C1566 1.379 . S
C1571 N1569 1.356 . S
N1572 C1564 1.356 . S
N1572 H1578 0.984 . S
N1572 H1579 0.984 . S
N1573 C1566 1.356 . S
N1573 H1576 0.984 . S
N1573 H1577 0.985 . S
H1574 N1569 0.984 . S
H1575 N1569 0.985 . S
H1576 N1573 0.984 . S
H1577 N1573 0.985 . S
H1578 N1572 0.984 . S
H1579 N1572 0.984 . S
H1580 N1568 0.984 . S
H1581 N1568 0.985 . S
C1582 C1583 1.363 . S
C1582 C1588 1.379 . S
C1582 N1590 1.356 . S
C1583 C1582 1.363 . S
C1583 C1589 1.363 . S
C1584 C1585 1.363 . S
C1584 C1589 1.379 . S
C1584 N1591 1.356 . S
C1585 C1584 1.363 . S
C1585 C1588 1.363 . S
N1586 C1588 1.356 . S
N1586 H1598 0.984 . S
N1586 H1599 0.985 . S
N1587 C1589 1.356 . S
N1587 H1592 0.984 . S
N1587 H1593 0.985 . S
C1588 C1582 1.379 . S
C1588 C1585 1.363 . S
C1588 N1586 1.356 . S
C1589 C1583 1.363 . S
C1589 C1584 1.379 . S
C1589 N1587 1.356 . S
N1590 C1582 1.356 . S
N1590 H1596 0.984 . S
N1590 H1597 0.984 . S
N1591 C1584 1.356 . S
N1591 H1594 0.984 . S
N1591 H1595 0.985 . S
H1592 N1587 0.984 . S
H1593 N1587 0.985 . S
H1594 N1591 0.984 . S
H1595 N1591 0.985 . S
H1596 N1590 0.984 . S
H1597 N1590 0.984 . S
H1598 N1586 0.984 . S
H1599 N1586 0.985 . S
C449 C93 1.486 . S
C451 C9 1.486 . S
C467 C23 1.486 . S
C469 C107 1.486 . S
C485 C65 1.486 . S
C487 C37 1.486 . S
C503 C51 1.486 . S
C505 C79 1.486 . S
C521 C121 1.486 . S
C523 C205 1.486 . S
C539 C219 1.486 . S
C541 C135 1.486 . S
C557 C149 1.486 . S
C559 C177 1.486 . S
C575 C191 1.486 . S
C577 C163 1.486 . S
C593 C233 1.486 . S
C595 C317 1.486 . S
C611 C247 1.486 . S
C613 C331 1.486 . S
C629 C289 1.486 . S
C631 C261 1.486 . S
C647 C303 1.486 . S
C649 C275 1.486 . S
C665 C345 1.486 . S
C667 C429 1.486 . S
C683 C359 1.486 . S
C685 C443 1.486 . S
C701 C401 1.486 . S
C703 C373 1.486 . S
C719 C387 1.486 . S
C721 C415 1.486 . S
C737 C8 1.492 1_556 S
C739 C106 1.492 . S
C755 C64 1.492 1_554 S
C757 C22 1.492 . S
C773 C78 1.492 . S
C775 C36 1.492 . S
C791 C50 1.492 . S
C793 C92 1.492 . S
C809 C120 1.492 1_554 S
C811 C218 1.492 . S
C827 C176 1.492 1_556 S
C829 C134 1.492 . S
C845 C190 1.492 . S
C847 C148 1.492 . S
C863 C204 1.492 . S
C865 C162 1.492 . S
C881 C232 1.492 . S
C883 C330 1.492 . S
C899 C246 1.492 . S
C901 C288 1.492 . S
C917 C302 1.492 . S
C919 C260 1.492 1_556 S
C935 C274 1.492 . S
C937 C316 1.492 1_554 S
C953 C344 1.492 . S
C955 C442 1.492 . S
C971 C400 1.492 . S
C973 C358 1.492 . S
C989 C372 1.492 1_554 S
C991 C414 1.492 . S
C1007 C386 1.492 . S
C1009 C428 1.492 1_556 S
C1025 C423 1.498 . S
C1027 C3 1.498 . S
C1043 C213 1.498 . S
C1045 C17 1.498 . S
C1061 C31 1.498 . S
C1063 C395 1.498 . S
C1079 C45 1.498 . S
C1081 C185 1.498 . S
C1097 C59 1.498 . S
C1099 C367 1.498 . S
C1115 C73 1.498 . S
C1117 C157 1.498 . S
C1133 C87 1.498 . S
C1135 C339 1.498 . S
C1151 C129 1.498 . S
C1153 C101 1.498 . S
C1169 C311 1.498 . S
C1171 C115 1.498 . S
C1187 C143 1.498 . S
C1189 C283 1.498 . S
C1205 C255 1.498 . S
C1207 C171 1.498 . S
C1223 C227 1.498 . S
C1225 C199 1.498 . S
C1241 C241 1.498 . S
C1243 C437 1.498 . S
C1259 C269 1.498 . S
C1261 C409 1.498 . S
C1277 C297 1.498 . S
C1279 C381 1.498 . S
C1295 C353 1.498 . S
C1297 C325 1.498 . S
C1313 C7 1.452 . S
C1315 C105 1.452 . S
C1331 C21 1.452 . S
C1333 C63 1.452 . S
C1349 C77 1.452 . S
C1351 C35 1.452 . S
C1367 C49 1.452 . S
C1369 C91 1.452 . S
C1385 C217 1.452 . S
C1387 C119 1.452 . S
C1403 C175 1.452 . S
C1405 C133 1.452 . S
C1421 C147 1.452 . S
C1423 C189 1.452 . S
C1439 C203 1.452 . S
C1441 C161 1.452 . S
C1457 C329 1.452 . S
C1459 C231 1.452 . S
C1475 C287 1.452 . S
C1477 C245 1.452 . S
C1493 C301 1.452 . S
C1495 C259 1.452 . S
C1511 C315 1.452 . S
C1513 C273 1.452 . S
C1529 C343 1.452 . S
C1531 C441 1.452 . S
C1547 C357 1.452 . S
C1549 C399 1.452 . S
C1565 C371 1.452 . S
C1567 C413 1.452 . S
C1583 C427 1.452 . S
C1585 C385 1.452 . S
