# Generated by pormake.
# Topology sxc, (6)-cn, num edge types: 1
# Building blocks:
#     Node 0, Type 0, BuildingBlock: VOLQOD_clean_sbu_1, # of connection points: 6
#     Node 1, Type 0, BuildingBlock: VOLQOD_clean_sbu_1, # of connection points: 6
#     Node 2, Type 0, BuildingBlock: VOLQOD_clean_sbu_1, # of connection points: 6
#     Edge 3, Type (0, 0), BuildingBlock: MIFKUJ_clean_linker_0, # of connection points: 2
#     Edge 4, Type (0, 0), BuildingBlock: MIFKUJ_clean_linker_0, # of connection points: 2
#     Edge 5, Type (0, 0), BuildingBlock: MIFKUJ_clean_linker_0, # of connection points: 2
#     Edge 6, Type (0, 0), BuildingBlock: MIFKUJ_clean_linker_0, # of connection points: 2
#     Edge 7, Type (0, 0), BuildingBlock: MIFKUJ_clean_linker_0, # of connection points: 2
#     Edge 8, Type (0, 0), BuildingBlock: MIFKUJ_clean_linker_0, # of connection points: 2
#     Edge 9, Type (0, 0), BuildingBlock: MIFKUJ_clean_linker_0, # of connection points: 2
#     Edge 10, Type (0, 0), BuildingBlock: MIFKUJ_clean_linker_0, # of connection points: 2
#     Edge 11, Type (0, 0), BuildingBlock: MIFKUJ_clean_linker_0, # of connection points: 2
# Relax obj value: 0.314
# Max RMSD: 0.245
# Mean RMSD: 0.245
data_MOF--net-sxc--node1-VOLQOD_clean_sbu_1--edge1-MIFKUJ_clean_linker_0
_symmetry_space_group_name_H-M    P1
_symmetry_Int_Tables_number       1
_symmetry_cell_setting            triclinic
loop_
_symmetry_equiv_pos_as_xyz
'x, y, z'
_cell_length_a     20.281703
_cell_length_b     20.1268
_cell_length_c     64.068795
_cell_angle_alpha  90.729095
_cell_angle_beta   90.206402
_cell_angle_gamma 119.91577
loop_
_atom_site_label
_atom_site_type_symbol
_atom_site_fract_x
_atom_site_fract_y
_atom_site_fract_z
_atom_type_partial_charge
O0 O -0.01434 0.97368 0.05388 0.0
Zn1 Zn 0.03458 0.97728 0.0265 0.0
O2 O 0.97301 0.98136 0.0041 0.0
Zn3 Zn 0.91638 0.88555 0.98942 0.0
Zn4 Zn 0.90441 0.01175 0.01594 0.0
Zn5 Zn 0.03919 0.05154 0.98378 0.0
O6 O 0.93343 0.89446 0.95834 0.0
O7 O 0.04715 -0.00071 0.95782 0.0
O8 O 0.04712 0.88489 0.02275 0.0
O9 O 0.95449 0.81779 0.99939 0.0
O10 O 0.80559 0.83643 0.99536 0.0
O11 O 0.7971 0.92302 0.01528 0.0
O12 O 0.90949 0.09772 0.99914 0.0
O13 O 0.13681 0.07384 0.02762 0.0
O14 O -0.00266 0.11826 0.9754 0.0
O15 O 0.14179 0.12078 0.99614 0.0
C16 C 0.95121 0.00894 0.05979 0.0
C17 C -0.00573 0.93959 0.94883 0.0
C18 C 0.76674 0.85767 0.0062 0.0
C19 C 0.00697 0.82472 0.01171 0.0
C20 C 0.94748 0.13211 0.98303 0.0
C21 C 0.17174 0.12449 0.01391 0.0
O22 O 0.92683 0.03906 0.04667 0.0
O23 O 0.06533 0.0705 0.37849 0.0
Zn24 Zn 0.05901 0.08301 0.3473 0.0
O25 O 0.9568 0.01448 0.33656 0.0
Zn26 Zn 0.95264 0.94256 0.3158 0.0
Zn27 Zn 0.89571 0.95512 0.35947 0.0
Zn28 Zn 0.91434 0.0706 0.32396 0.0
O29 O 0.90763 0.94764 0.28852 0.0
O30 O 0.89853 0.05206 0.29283 0.0
O31 O 0.13284 0.06116 0.33203 0.0
O32 O 0.05787 0.96736 0.30983 0.0
O33 O 0.90376 0.83567 0.32628 0.0
O34 O 0.89196 0.85383 0.35994 0.0
O35 O 0.79056 0.93964 0.35705 0.0
O36 O 0.08743 0.19384 0.34385 0.0
O37 O 0.81294 0.03716 0.33648 0.0
O38 O -0.01682 0.18199 0.3286 0.0
C39 C 0.01269 0.04515 0.39202 0.0
C40 C 0.89403 -0.00189 0.28123 0.0
C41 C 0.89178 0.81183 0.34493 0.0
C42 C 0.12333 0.01372 0.31733 0.0
C43 C 0.76931 0.98219 0.34822 0.0
C44 C 0.0499 0.22307 0.33615 0.0
O45 O 0.94283 0.00684 0.38666 0.0
O46 O 0.0235 0.90989 0.71502 0.0
Zn47 Zn 0.01123 0.89709 0.68355 0.0
O48 O 0.03291 -0.00781 0.67051 0.0
Zn49 Zn 0.95593 0.98425 0.65147 0.0
Zn50 Zn 0.03529 0.05948 0.69221 0.0
Zn51 Zn 0.1245 0.03576 0.65518 0.0
O52 O -0.01297 0.00023 0.62146 0.0
O53 O 0.10787 0.03134 0.62414 0.0
O54 O 0.90141 0.81926 0.67741 0.0
O55 O 0.8681 0.88156 0.65489 0.0
O56 O 0.91424 0.05237 0.65972 0.0
O57 O 0.93438 0.05276 0.69363 0.0
O58 O 0.11453 0.16556 0.68597 0.0
O59 O 0.08824 0.86664 0.67471 0.0
O60 O 0.18601 0.14675 0.66297 0.0
O61 O 0.17616 0.97634 0.66071 0.0
C62 C 0.0434 0.96755 0.72716 0.0
C63 C 0.05033 0.01804 0.61306 0.0
C64 C 0.89664 0.05755 0.67847 0.0
C65 C 0.85257 0.82322 0.66568 0.0
C66 C 0.17258 0.19103 0.67435 0.0
C67 C 0.15409 0.90873 0.66704 0.0
O68 O 0.05446 0.03113 0.72022 0.0
H69 H 0.84814 0.17942 0.99478 0.0
H70 H 0.86029 0.30318 0.98777 0.0
H71 H 0.04275 0.35371 0.94499 0.0
H72 H 0.03141 0.22971 0.95205 0.0
H73 H 0.08975 0.44871 0.97714 0.0
H74 H 0.89292 0.37231 0.92846 0.0
H75 H 0.76757 0.29324 0.91154 0.0
H76 H 0.65915 0.33367 0.96369 0.0
H77 H 0.78361 0.41197 0.98112 0.0
H78 H 0.12568 0.82423 0.99309 0.0
H79 H 0.12582 0.70834 0.98082 0.0
H80 H 0.92227 0.56945 0.01599 0.0
H81 H 0.9215 0.68503 0.0278 0.0
H82 H 0.90134 0.53619 0.97488 0.0
H83 H 0.09084 0.58011 0.02736 0.0
H84 H 0.21323 0.64373 0.0465 0.0
H85 H 0.33061 0.64928 0.99034 0.0
H86 H 0.20903 0.58709 0.97075 0.0
C87 C 0.88915 0.21561 0.98335 0.0
C88 C 0.94039 0.1959 0.97449 0.0
C89 C 0.89541 0.28614 0.97911 0.0
C90 C 0.95273 0.33776 0.96591 0.0
C91 C -0.00187 0.31453 0.95519 0.0
C92 C -0.0082 0.2438 0.95939 0.0
C93 C 0.97651 0.41977 0.9678 0.0
C94 C 0.04924 0.46855 0.97623 0.0
C95 C 0.9234 0.44536 0.96647 0.0
C96 C 0.84793 0.39815 0.95612 0.0
C97 C 0.84237 0.36399 0.93641 0.0
C98 C 0.7714 0.31933 0.92671 0.0
C99 C 0.70545 0.30845 0.93654 0.0
C100 C 0.71032 0.34227 0.95608 0.0
C101 C 0.78113 0.38698 0.96586 0.0
C102 C 0.08336 0.76899 0.99895 0.0
C103 C 0.02383 0.76253 0.01142 0.0
C104 C 0.0831 0.70302 0.99183 0.0
C105 C 0.02342 0.63062 0.99729 0.0
C106 C 0.96833 0.62499 0.01147 0.0
C107 C 0.96826 0.69069 0.01839 0.0
C108 C 0.01173 0.56096 0.98623 0.0
C109 C 0.94207 0.51623 0.97562 0.0
C110 C 0.06718 0.53814 0.98598 0.0
C111 C 0.14085 0.58054 0.99746 0.0
C112 C 0.14285 0.59644 0.01897 0.0
C113 C 0.2121 0.63184 0.02994 0.0
C114 C 0.27972 0.65097 0.01962 0.0
C115 C 0.27827 0.63493 0.99829 0.0
C116 C 0.20922 0.59978 0.98724 0.0
H117 H 0.33319 0.67785 0.02817 0.0
H118 H 0.65056 0.27384 0.929 0.0
H119 H 0.27437 0.11254 0.32434 0.0
H120 H 0.37694 0.08375 0.32016 0.0
H121 H 0.22009 0.8646 0.29189 0.0
H122 H 0.11715 0.89327 0.29566 0.0
H123 H 0.28944 0.85571 0.32847 0.0
H124 H 0.36376 0.97347 0.26366 0.0
H125 H 0.39331 0.06916 0.23635 0.0
H126 H 0.58036 0.23824 0.27331 0.0
H127 H 0.55132 0.14407 0.30101 0.0
H128 H 0.64488 0.84332 0.34043 0.0
H129 H 0.5193 0.82284 0.33002 0.0
H130 H 0.59182 0.05812 0.34667 0.0
H131 H 0.71684 0.07862 0.35676 0.0
H132 H 0.55384 0.02228 0.30487 0.0
H133 H 0.45141 0.91528 0.37316 0.0
H134 H 0.41718 0.82241 0.40156 0.0
H135 H 0.28215 0.63738 0.35867 0.0
H136 H 0.31515 0.72928 0.33005 0.0
C137 C 0.26216 0.0593 0.31665 0.0
C138 C 0.18772 0.00475 0.31065 0.0
C139 C 0.32082 0.04312 0.31411 0.0
C140 C 0.30563 0.97208 0.3057 0.0
C141 C 0.2326 0.91984 0.29827 0.0
C142 C 0.17405 0.93648 0.30049 0.0
C143 C 0.36281 0.94844 0.30845 0.0
C144 C 0.34699 0.89072 0.32292 0.0
C145 C 0.43732 -0.00603 0.30103 0.0
C146 C 0.45516 0.05147 0.28447 0.0
C147 C 0.41087 0.03119 0.26606 0.0
C148 C 0.4276 0.08519 0.25048 0.0
C149 C 0.48866 0.15973 0.2531 0.0
C150 C 0.53313 0.18043 0.27129 0.0
C151 C 0.51663 0.12668 0.28693 0.0
C152 C 0.63248 0.88941 0.34266 0.0
C153 C 0.6899 0.96278 0.34906 0.0
C154 C 0.5612 0.87782 0.33663 0.0
C155 C 0.54736 0.93945 0.33726 0.0
C156 C 0.6022 0.01028 0.34585 0.0
C157 C 0.67325 0.02196 0.35164 0.0
C158 C 0.48135 0.93491 0.32637 0.0
C159 C 0.49587 0.98624 0.31006 0.0
C160 C 0.4058 0.88417 0.3323 0.0
C161 C 0.38691 0.82894 0.34941 0.0
C162 C 0.41505 0.85471 0.36975 0.0
C163 C 0.39546 0.8023 0.38591 0.0
C164 C 0.34758 0.72402 0.38191 0.0
C165 C 0.319 0.69802 0.36176 0.0
C166 C 0.33804 0.75024 0.34557 0.0
H167 H 0.33247 0.68353 0.39444 0.0
H168 H 0.50153 0.20144 0.24101 0.0
H169 H 0.76163 0.85057 0.68963 0.0
H170 H 0.62272 0.77375 0.69168 0.0
H171 H 0.62495 0.60528 0.64969 0.0
H172 H 0.76432 0.68282 0.64753 0.0
H173 H 0.51265 0.64767 0.64004 0.0
H174 H 0.61435 0.57347 0.70064 0.0
H175 H 0.68753 0.60387 0.73368 0.0
H176 H 0.55468 0.69641 0.75958 0.0
H177 H 0.48136 0.66718 0.72662 0.0
H178 H 0.29392 0.26627 0.64893 0.0
H179 H 0.3813 0.40305 0.6478 0.0
H180 H 0.25472 0.44157 0.69584 0.0
H181 H 0.1666 0.30349 0.69729 0.0
H182 H 0.40056 0.50798 0.70539 0.0
H183 H 0.26165 0.50859 0.64765 0.0
H184 H 0.18875 0.46726 0.6147 0.0
H185 H 0.38845 0.50509 0.58195 0.0
H186 H 0.4627 0.54579 0.6147 0.0
C187 C 0.73205 0.79634 0.68115 0.0
C188 C 0.77233 0.77073 0.66882 0.0
C189 C 0.65323 0.75341 0.68213 0.0
C190 C 0.61427 0.68464 0.67072 0.0
C191 C 0.65467 0.65891 0.65842 0.0
C192 C 0.73372 0.702 0.65745 0.0
C193 C 0.53167 0.63613 0.67248 0.0
C194 C 0.48718 0.61702 0.65424 0.0
C195 C 0.49848 0.60069 0.69145 0.0
C196 C 0.54299 0.61891 0.71115 0.0
C197 C 0.60122 0.60082 0.71335 0.0
C198 C 0.64263 0.61773 0.73206 0.0
C199 C 0.62583 0.65216 0.7487 0.0
C200 C 0.56769 0.66984 0.74666 0.0
C201 C 0.52618 0.65311 0.72798 0.0
C202 C 0.28402 0.30363 0.65914 0.0
C203 C 0.22389 0.27412 0.67334 0.0
C204 C 0.33331 0.38201 0.65824 0.0
C205 C 0.32311 0.43239 0.67136 0.0
C206 C 0.26244 0.40348 0.68533 0.0
C207 C 0.21277 0.32471 0.68624 0.0
C208 C 0.38316 0.51322 0.67233 0.0
C209 C 0.42366 0.54012 0.69122 0.0
C210 C 0.41254 0.55524 0.65384 0.0
C211 C 0.36835 0.53152 0.63381 0.0
C212 C 0.2904 0.50849 0.63347 0.0
C213 C 0.24864 0.48489 0.61478 0.0
C214 C 0.28399 0.48383 0.59622 0.0
C215 C 0.36121 0.50636 0.59633 0.0
C216 C 0.40328 0.53005 0.61498 0.0
H217 H 0.2515 0.46535 0.58178 0.0
H218 H 0.65761 0.6648 0.76321 0.0
H219 H 0.81341 0.09275 0.65212 0.0
H220 H 0.6799 0.05638 0.65588 0.0
H221 H 0.67687 0.9668 0.71691 0.0
H222 H 0.81083 0.00365 0.71338 0.0
H223 H 0.55973 0.86212 0.68996 0.0
H224 H 0.65924 0.11641 0.71583 0.0
H225 H 0.74232 0.25683 0.7171 0.0
H226 H 0.65012 0.2749 0.65841 0.0
H227 H 0.56727 0.13445 0.6566 0.0
H228 H 0.18261 0.83728 0.69873 0.0
H229 H 0.30551 0.84417 0.70488 0.0
H230 H 0.37813 0.93696 0.64351 0.0
H231 H 0.25646 0.93084 0.63739 0.0
H232 H 0.45694 0.03708 0.67907 0.0
H233 H 0.36891 0.77958 0.65196 0.0
H234 H 0.27895 0.64071 0.6522 0.0
H235 H 0.34673 0.62955 0.71502 0.0
H236 H 0.43629 0.76916 0.71531 0.0
C237 C 0.78489 0.06714 0.66655 0.0
C238 C 0.82244 0.05122 0.68245 0.0
C239 C 0.70872 0.04623 0.66867 0.0
C240 C 0.66898 0.00883 0.68666 0.0
C241 C 0.70695 -0.00439 0.70294 0.0
C242 C 0.78354 0.01747 0.70096 0.0
C243 C 0.58666 0.97996 0.68762 0.0
C244 C 0.53691 0.90031 0.68804 0.0
C245 C 0.5575 0.03003 0.68507 0.0
C246 C 0.60729 0.11471 0.68603 0.0
C247 C 0.65708 0.15023 0.7031 0.0
C248 C 0.70407 0.22987 0.70394 0.0
C249 C 0.70158 0.27475 0.68783 0.0
C250 C 0.65199 0.24006 0.67087 0.0
C251 C 0.60491 0.16043 0.66995 0.0
C252 C 0.22349 0.85544 0.68622 0.0
C253 C 0.21114 0.88453 0.66771 0.0
C254 C 0.29359 0.85974 0.68979 0.0
C255 C 0.35071 0.89229 0.67475 0.0
C256 C 0.33458 0.91227 0.65531 0.0
C257 C 0.26518 0.9085 0.65181 0.0
C258 C 0.43059 0.91942 0.68034 0.0
C259 C 0.47969 -0.00104 0.68135 0.0
C260 C 0.45873 0.86929 0.68431 0.0
C261 C 0.4083 0.78497 0.68378 0.0
C262 C 0.36434 0.74765 0.66588 0.0
C263 C 0.31352 0.66878 0.66591 0.0
C264 C 0.30682 0.62641 0.68367 0.0
C265 C 0.35178 0.66264 0.70133 0.0
C266 C 0.40264 0.74163 0.70139 0.0
H267 H 0.26691 0.56548 0.68374 0.0
H268 H 0.73799 0.3364 0.68851 0.0
H269 H 0.6955 0.83218 0.04345 0.0
H270 H 0.57984 0.71432 0.05316 0.0
H271 H 0.54568 0.63591 0.98898 0.0
H272 H 0.66248 0.75205 0.97934 0.0
H273 H 0.40433 0.59232 0.01472 0.0
H274 H 0.64694 0.58823 0.0117 0.0
H275 H 0.7817 0.64338 0.02202 0.0
H276 H 0.71978 0.6173 0.08669 0.0
H277 H 0.58455 0.56297 0.07665 0.0
H278 H 0.27841 0.2236 0.98739 0.0
H279 H 0.37585 0.35542 0.99539 0.0
H280 H 0.322 0.31958 0.06077 0.0
H281 H 0.22381 0.18649 0.05292 0.0
H282 H 0.49532 0.42617 0.04534 0.0
H283 H 0.24499 0.40167 0.04712 0.0
H284 H 0.11199 0.33668 0.03439 0.0
H285 H 0.1887 0.41215 0.9722 0.0
H286 H 0.32208 0.47833 0.98465 0.0
C287 C 0.66154 0.79112 0.03131 0.0
C288 C 0.68771 0.80038 0.01069 0.0
C289 C 0.59571 0.72403 0.03688 0.0
C290 C 0.55489 0.6668 0.02177 0.0
C291 C 0.57648 0.67991 1.00079 0.0
C292 C 0.64318 0.74591 0.99532 0.0
C293 C 0.49997 0.58819 0.02798 0.0
C294 C 0.42367 0.5564 0.02187 0.0
C295 C 0.52538 0.54158 0.03741 0.0
C296 C 0.60606 0.57237 0.04346 0.0
C297 C 0.66223 0.59469 0.02811 0.0
C298 C 0.73863 0.62575 0.0339 0.0
C299 C 0.75937 0.63401 0.05501 0.0
C300 C 0.70365 0.61098 0.07035 0.0
C301 C 0.62714 0.58006 0.06462 0.0
C302 C 0.28875 0.24287 1.00356 0.0
C303 C 0.24288 0.1952 0.01949 0.0
C304 C 0.34446 0.31807 0.00809 0.0
C305 C 0.35497 0.34691 0.02859 0.0
C306 C 0.31438 0.29783 0.04487 0.0
C307 C 0.25855 0.22197 0.04034 0.0
C308 C 0.40003 0.43046 0.03197 0.0
C309 C 0.47481 0.46295 0.03944 0.0
C310 C 0.37308 0.47792 0.02405 0.0
C311 C 0.29323 0.44482 0.0168 0.0
C312 C 0.2333 0.40492 0.03076 0.0
C313 C 0.15794 0.36787 0.02361 0.0
C314 C 0.14191 0.37015 1.00251 0.0
C315 C 0.20118 0.41058 0.98857 0.0
C316 C 0.27666 0.44836 0.99568 0.0
H317 H 0.08352 0.34056 0.997 0.0
H318 H 0.81857 0.65811 0.05947 0.0
H319 H 0.10743 0.31294 0.37093 0.0
H320 H 0.1009 0.42987 0.37748 0.0
H321 H 0.04653 0.43336 0.31252 0.0
H322 H 0.05091 0.31593 0.30607 0.0
H323 H 0.14464 0.58608 0.3581 0.0
H324 H 0.86681 0.40021 0.31346 0.0
H325 H 0.78553 0.26468 0.30272 0.0
H326 H 0.85264 0.19332 0.35786 0.0
H327 H 0.9325 0.32825 0.36919 0.0
H328 H 0.8605 0.69398 0.31807 0.0
H329 H 0.89962 0.59842 0.32219 0.0
H330 H 0.97184 0.67706 0.38557 0.0
H331 H 0.93295 0.77352 0.38154 0.0
H332 H 0.8672 0.48167 0.34772 0.0
H333 H 0.15459 0.67626 0.39055 0.0
H334 H 0.24532 0.81328 0.39729 0.0
H335 H 0.16553 0.87237 0.34234 0.0
H336 H 0.07677 0.7357 0.33471 0.0
C337 C 0.0983 0.34123 0.35788 0.0
C338 C 0.07845 0.30549 0.33809 0.0
C339 C 0.09457 0.40788 0.36164 0.0
C340 C 0.07154 0.43866 0.34554 0.0
C341 C 0.06369 0.40964 0.32512 0.0
C342 C 0.06618 0.3427 0.32145 0.0
C343 C 0.0373 0.48636 0.35058 0.0
C344 C 0.08396 0.56345 0.35629 0.0
C345 C 0.95801 0.45598 0.34799 0.0
C346 C 0.90619 0.37437 0.34206 0.0
C347 C 0.86352 0.35554 0.3234 0.0
C348 C 0.81773 0.27883 0.3172 0.0
C349 C 0.81409 0.22043 0.32956 0.0
C350 C 0.85551 0.23857 0.34828 0.0
C351 C 0.901 0.31517 0.35461 0.0
C352 C 0.88267 0.68954 0.33308 0.0
C353 C 0.89436 0.7416 0.34939 0.0
C354 C 0.90516 0.63506 0.33541 0.0
C355 C 0.94013 0.63207 0.35402 0.0
C356 C 0.94601 0.67951 0.37098 0.0
C357 C 0.92297 0.7339 0.36871 0.0
C358 C 0.97471 0.58273 0.35478 0.0
C359 C 0.92779 0.50459 0.35014 0.0
C360 C 0.05389 0.61276 0.35816 0.0
C361 C 0.10744 0.69554 0.36237 0.0
C362 C 0.15638 0.71845 0.37988 0.0
C363 C 0.20782 0.79609 0.38379 0.0
C364 C 0.21087 0.85151 0.3703 0.0
C365 C 0.16281 0.82937 0.35281 0.0
C366 C 0.11204 0.75175 0.34866 0.0
H367 H 0.25072 0.91159 0.37334 0.0
H368 H 0.77915 0.16117 0.32461 0.0
H369 H 0.87761 0.1044 0.25869 0.0
H370 H 0.87715 0.11386 0.22058 0.0
H371 H 0.88249 0.90303 0.21434 0.0
H372 H 0.88276 0.89278 0.25215 0.0
H373 H 0.00103 0.02851 0.19407 0.0
H374 H 0.72619 0.90577 0.20147 0.0
H375 H 0.60903 0.89787 0.21516 0.0
H376 H 0.6674 0.11245 0.18693 0.0
H377 H 0.7855 0.12213 0.17331 0.0
H378 H 0.95499 0.9181 0.09019 0.0
H379 H 0.93687 0.92561 0.12747 0.0
H380 H 0.90177 0.1177 0.11801 0.0
H381 H 0.91737 0.10877 0.08027 0.0
H382 H 0.80551 0.02457 0.14648 0.0
H383 H 0.07215 0.14666 0.13682 0.0
H384 H 0.19327 0.16319 0.12352 0.0
H385 H 0.15837 0.96454 0.15679 0.0
H386 H 0.03643 0.94608 0.17005 0.0
C387 C 0.87717 0.05926 0.2492 0.0
C388 C 0.88112 -0.00173 0.25848 0.0
C389 C 0.87684 0.06479 0.22745 0.0
C390 C 0.88032 0.00939 0.21473 0.0
C391 C 0.88024 0.94657 0.22394 0.0
C392 C 0.88028 0.94081 0.24558 0.0
C393 C 0.89089 0.01947 0.19195 0.0
C394 C 0.95804 0.02699 0.18362 0.0
C395 C 0.8364 0.02138 0.17854 0.0
C396 C 0.76509 0.01509 0.18658 0.0
C397 C 0.71438 0.9516 0.19834 0.0
C398 C 0.64773 0.94672 0.20605 0.0
C399 C 0.6309 0.00474 0.20198 0.0
C400 C 0.68057 0.06762 0.19011 0.0
C401 C 0.74732 0.07279 0.18237 0.0
C402 C 0.94351 0.96209 0.09599 0.0
C403 C 0.93859 0.01351 0.08232 0.0
C404 C 0.93328 0.9664 0.11733 0.0
C405 C 0.91974 0.02337 0.12559 0.0
C406 C 0.91267 0.07362 0.11197 0.0
C407 C 0.92182 0.06859 0.09045 0.0
C408 C 0.91439 0.03027 0.1485 0.0
C409 C 0.84886 0.0268 0.1569 0.0
C410 C 0.97111 0.03355 0.16212 0.0
C411 C 0.04485 0.04474 0.15433 0.0
C412 C 0.09005 0.10621 0.1412 0.0
C413 C 0.1589 0.11596 0.13368 0.0
C414 C 0.18345 0.06489 0.13929 0.0
C415 C 0.13927 0.00405 0.15246 0.0
C416 C 0.07033 -0.00602 0.16001 0.0
H417 H 0.23675 0.07252 0.13344 0.0
H418 H 0.5793 0.00089 0.20797 0.0
H419 H 0.14672 0.07697 0.41108 0.0
H420 H 0.17339 0.08682 0.44875 0.0
H421 H 0.94965 0.05241 0.46109 0.0
H422 H 0.92227 0.04166 0.42368 0.0
H423 H 0.06829 0.1704 0.48602 0.0
H424 H 0.97244 0.90541 0.46338 0.0
H425 H 0.97639 0.80556 0.44159 0.0
H426 H 0.20006 0.87407 0.46528 0.0
H427 H 0.19783 0.97519 0.48698 0.0
H428 H 0.94883 0.01959 0.58525 0.0
H429 H 0.96347 0.03824 0.54764 0.0
H430 H 0.18308 0.05366 0.55124 0.0
H431 H 0.16915 0.03518 0.58902 0.0
H432 H 0.09258 0.96043 0.51823 0.0
H433 H 0.18269 0.21222 0.5447 0.0
H434 H 0.18245 0.31436 0.56629 0.0
H435 H -0.02229 0.27613 0.53552 0.0
H436 H 0.97605 0.17289 0.51395 0.0
C437 C 0.10365 0.07245 0.42184 0.0
C438 C 0.03221 0.05798 0.41448 0.0
C439 C 0.11891 0.07794 0.4433 0.0
C440 C 0.06329 0.07002 0.45761 0.0
C441 C -0.00673 0.05881 0.45025 0.0
C442 C 0.9776 0.05222 0.42889 0.0
C443 C 0.07538 0.06853 0.4803 0.0
C444 C 0.07352 0.12455 0.49311 0.0
C445 C 0.08451 0.0099 0.48939 0.0
C446 C 0.08537 0.94844 0.47659 0.0
C447 C 0.0227 0.89957 0.46381 0.0
C448 C 0.02458 0.8427 0.4515 0.0
C449 C 0.08855 0.83365 0.45199 0.0
C450 C 0.15062 0.88127 0.46487 0.0
C451 C 0.14908 0.93835 0.47719 0.0
C452 C 0.00018 0.02665 0.57808 0.0
C453 C 0.05794 0.02615 0.59015 0.0
C454 C 0.00861 0.03771 0.5566 0.0
C455 C 0.07475 0.04824 0.54676 0.0
C456 C 0.1318 0.04598 0.55861 0.0
C457 C 0.12374 0.03557 0.58018 0.0
C458 C 0.08333 0.06117 0.52402 0.0
C459 C 0.08897 0.00727 0.51118 0.0
C460 C 0.07836 0.12219 0.5149 0.0
C461 C 0.07896 0.18435 0.5278 0.0
C462 C 0.13724 0.22513 0.54265 0.0
C463 C 0.13753 0.28332 0.55487 0.0
C464 C 0.08003 0.30163 0.55231 0.0
C465 C 0.0222 0.26185 0.53749 0.0
C466 C 0.02162 0.20354 0.52524 0.0
H467 H 0.08036 0.34672 0.56178 0.0
H468 H 0.08994 0.78964 0.44243 0.0
H469 H 0.04921 0.85229 0.74813 0.0
H470 H 0.05087 0.8379 0.78603 0.0
H471 H 0.04781 0.04921 0.79523 0.0
H472 H 0.04921 0.06536 0.75772 0.0
H473 H 0.13734 0.0456 0.82222 0.0
H474 H 0.88512 0.8686 0.79826 0.0
H475 H 0.78736 0.76176 0.77697 0.0
H476 H 0.85192 0.60801 0.80398 0.0
H477 H 0.95121 0.71454 0.82519 0.0
H478 H 0.88284 0.87949 0.91907 0.0
H479 H 0.89895 0.87326 0.88143 0.0
H480 H 0.13877 0.95709 0.89117 0.0
H481 H 0.12346 0.96843 0.92867 0.0
H482 H 0.93816 0.80738 0.85462 0.0
H483 H 0.24237 0.07095 0.85287 0.0
H484 H 0.32357 0.18894 0.87345 0.0
H485 H 0.12498 0.18734 0.89714 0.0
H486 H 0.04273 0.06997 0.87649 0.0
C487 C 0.04961 0.89593 0.75828 0.0
C488 C 0.04888 0.95984 0.74992 0.0
C489 C 0.05023 0.88751 0.77991 0.0
C490 C 0.04854 0.94202 0.7935 0.0
C491 C 0.04951 0.00655 0.78512 0.0
C492 C 0.05008 0.01559 0.7636 0.0
C493 C 0.04338 0.93165 0.81644 0.0
C494 C 0.09413 -0.00676 0.82929 0.0
C495 C -0.01398 0.864 0.82571 0.0
C496 C 0.9262 0.79969 0.8131 0.0
C497 C 0.87886 0.81212 0.79954 0.0
C498 C 0.82311 0.7516 0.7875 0.0
C499 C 0.81349 0.67811 0.78908 0.0
C500 C 0.85954 0.66501 0.80274 0.0
C501 C 0.9156 0.72545 0.81477 0.0
C502 C 0.9388 0.8959 0.91313 0.0
C503 C 0.00216 0.92559 0.92663 0.0
C504 C 0.94798 0.89205 0.89164 0.0
C505 C 0.02043 0.91634 0.88336 0.0
C506 C 0.08272 0.94029 0.89708 0.0
C507 C 0.07396 0.94643 0.9185 0.0
C508 C 0.03136 0.92191 0.86039 0.0
C509 C -0.01794 0.85931 0.84756 0.0
C510 C 0.08752 -0.00981 0.85104 0.0
C511 C 0.13651 0.06121 0.86335 0.0
C512 C 0.21612 0.09594 0.86243 0.0
C513 C 0.26229 0.16267 0.87411 0.0
C514 C 0.22945 0.19543 0.88666 0.0
C515 C 0.15035 0.16174 0.88748 0.0
C516 C 0.10394 0.09511 0.8758 0.0
H517 H 0.26529 0.24703 0.8957 0.0
H518 H 0.77025 0.63131 0.77975 0.0
loop_
_geom_bond_atom_site_label_1
_geom_bond_atom_site_label_2
_geom_bond_distance
_geom_bond_site_symmetry_2
_ccdc_geom_bond_type
O0 Zn1 1.953 . S
O0 C16 1.225 1_565 S
Zn1 O0 1.953 . S
Zn1 O2 1.966 1_565 S
Zn1 O8 1.922 . S
Zn1 O13 1.923 1_565 S
O2 Zn1 1.966 1_545 S
O2 Zn3 1.904 1_444 S
O2 Zn4 1.970 1_455 S
O2 Zn5 1.926 1_554 S
Zn3 O2 1.904 1_666 S
Zn3 O6 1.933 . S
Zn3 O9 1.941 . S
Zn3 O10 1.965 . S
Zn4 O2 1.970 1_655 S
Zn4 O11 1.938 1_545 S
Zn4 O12 1.906 . S
Zn4 O22 1.953 . S
Zn5 O2 1.926 1_556 S
Zn5 O7 1.932 . S
Zn5 O14 1.977 . S
Zn5 O15 1.910 . S
O6 Zn3 1.933 . S
O6 C17 1.226 1_665 S
O7 Zn5 1.932 . S
O7 C17 1.307 . S
O8 Zn1 1.922 . S
O8 C19 1.253 1_554 S
O9 Zn3 1.941 . S
O9 C19 1.283 1_655 S
O10 Zn3 1.965 . S
O10 C18 1.303 1_556 S
O11 Zn4 1.938 1_565 S
O11 C18 1.247 . S
O12 Zn4 1.906 . S
O12 C20 1.304 1_554 S
O13 Zn1 1.923 1_545 S
O13 C21 1.311 . S
O14 Zn5 1.977 . S
O14 C20 1.272 1_455 S
O15 Zn5 1.910 . S
O15 C21 1.231 1_556 S
C16 O0 1.225 1_545 S
C16 O22 1.298 1_455 S
C17 O6 1.226 1_445 S
C17 O7 1.307 . S
C18 O10 1.303 1_554 S
C18 O11 1.247 . S
C19 O8 1.253 1_556 S
C19 O9 1.283 1_455 S
C20 O12 1.304 1_556 S
C20 O14 1.272 1_655 S
C21 O13 1.311 . S
C21 O15 1.231 1_554 S
O22 Zn4 1.953 . S
O22 C16 1.298 1_655 S
O23 Zn24 1.953 . S
O23 C39 1.225 . S
Zn24 O23 1.953 . S
Zn24 O25 1.949 . S
Zn24 O31 1.919 . S
Zn24 O36 1.924 . S
O25 Zn24 1.949 . S
O25 Zn26 1.923 1_545 S
O25 Zn27 1.950 1_445 S
O25 Zn28 1.945 1_455 S
Zn26 O25 1.923 1_565 S
Zn26 O29 1.933 . S
Zn26 O32 1.941 . S
Zn26 O33 1.965 1_455 S
Zn27 O25 1.950 1_665 S
Zn27 O34 1.938 . S
Zn27 O35 1.906 . S
Zn27 O45 1.953 . S
Zn28 O25 1.945 1_655 S
Zn28 O30 1.932 . S
Zn28 O37 1.977 . S
Zn28 O38 1.910 1_655 S
O29 Zn26 1.933 . S
O29 C40 1.226 1_565 S
O30 Zn28 1.932 . S
O30 C40 1.307 1_655 S
O31 Zn24 1.919 . S
O31 C42 1.253 . S
O32 Zn26 1.941 . S
O32 C42 1.283 1_565 S
O33 Zn26 1.965 1_655 S
O33 C41 1.303 . S
O34 Zn27 1.938 . S
O34 C41 1.247 . S
O35 Zn27 1.906 . S
O35 C43 1.304 . S
O36 Zn24 1.924 . S
O36 C44 1.311 . S
O37 Zn28 1.977 . S
O37 C43 1.272 1_545 S
O38 Zn28 1.910 1_455 S
O38 C44 1.231 . S
C39 O23 1.225 . S
C39 O45 1.298 1_445 S
C40 O29 1.226 1_545 S
C40 O30 1.307 1_455 S
C41 O33 1.303 . S
C41 O34 1.247 . S
C42 O31 1.253 . S
C42 O32 1.283 1_545 S
C43 O35 1.304 . S
C43 O37 1.272 1_565 S
C44 O36 1.311 . S
C44 O38 1.231 . S
O45 Zn27 1.953 . S
O45 C39 1.298 1_665 S
O46 Zn47 1.953 . S
O46 C62 1.225 1_665 S
Zn47 O46 1.953 . S
Zn47 O48 1.949 1_665 S
Zn47 O54 1.919 . S
Zn47 O59 1.924 1_655 S
O48 Zn47 1.949 1_445 S
O48 Zn49 1.923 1_445 S
O48 Zn50 1.950 . S
O48 Zn51 1.945 . S
Zn49 O48 1.923 1_665 S
Zn49 O52 1.933 . S
Zn49 O55 1.941 . S
Zn49 O56 1.965 1_565 S
Zn50 O48 1.950 . S
Zn50 O57 1.938 1_455 S
Zn50 O58 1.906 . S
Zn50 O68 1.953 . S
Zn51 O48 1.945 . S
Zn51 O53 1.932 . S
Zn51 O60 1.977 . S
Zn51 O61 1.910 . S
O52 Zn49 1.933 . S
O52 C63 1.226 1_665 S
O53 Zn51 1.932 . S
O53 C63 1.307 . S
O54 Zn47 1.919 . S
O54 C65 1.253 . S
O55 Zn49 1.941 . S
O55 C65 1.283 . S
O56 Zn49 1.965 1_545 S
O56 C64 1.303 . S
O57 Zn50 1.938 1_655 S
O57 C64 1.247 . S
O58 Zn50 1.906 . S
O58 C66 1.304 . S
O59 Zn47 1.924 1_455 S
O59 C67 1.311 . S
O60 Zn51 1.977 . S
O60 C66 1.272 . S
O61 Zn51 1.910 . S
O61 C67 1.231 1_545 S
C62 O46 1.225 1_445 S
C62 O68 1.298 . S
C63 O52 1.226 1_445 S
C63 O53 1.307 . S
C64 O56 1.303 . S
C64 O57 1.247 . S
C65 O54 1.253 . S
C65 O55 1.283 . S
C66 O58 1.304 . S
C66 O60 1.272 . S
C67 O59 1.311 . S
C67 O61 1.231 1_565 S
O68 Zn50 1.953 . S
O68 C62 1.298 . S
H69 C87 0.958 . S
H70 C89 0.950 1_554 S
H71 C91 0.950 . S
H72 C92 0.950 . S
H73 C94 0.950 . S
H74 C97 0.950 . S
H75 C98 0.950 . S
H76 C100 0.950 . S
H77 C101 0.950 . S
H78 C102 0.951 . S
H79 C104 0.951 . S
H80 C106 0.950 . S
H81 C107 0.950 . S
H82 C109 0.950 . S
H83 C112 0.950 . S
H84 C113 0.950 . S
H85 C115 0.964 . S
H86 C116 0.950 . S
C87 H69 0.958 . S
C87 C88 1.359 1_554 S
C87 C89 1.388 1_554 S
C88 C87 1.359 1_556 S
C88 C92 1.385 1_655 S
C89 H70 0.950 1_556 S
C89 C87 1.388 1_556 S
C89 C90 1.366 . S
C90 C89 1.366 . S
C90 C91 1.414 1_655 S
C90 C93 1.499 . S
C91 H71 0.950 . S
C91 C90 1.414 1_455 S
C91 C92 1.374 . S
C92 H72 0.950 . S
C92 C88 1.385 1_455 S
C92 C91 1.374 . S
C93 C90 1.499 . S
C93 C94 1.373 1_655 S
C93 C95 1.389 . S
C94 H73 0.950 . S
C94 C93 1.373 1_455 S
C94 C110 1.377 . S
C95 C93 1.389 . S
C95 C96 1.524 . S
C95 C109 1.377 . S
C96 C95 1.524 . S
C96 C97 1.397 . S
C96 C101 1.363 . S
C97 H74 0.950 . S
C97 C96 1.397 . S
C97 C98 1.334 . S
C98 H75 0.950 . S
C98 C97 1.334 . S
C98 C99 1.287 . S
C99 C98 1.287 . S
C99 C100 1.524 . S
C99 H118 0.913 . S
C100 H76 0.950 . S
C100 C99 1.524 . S
C100 C101 1.415 . S
C101 H77 0.950 . S
C101 C96 1.363 . S
C101 C100 1.415 . S
C102 H78 0.951 . S
C102 C103 1.366 . S
C102 C104 1.388 . S
C103 C102 1.366 . S
C103 C107 1.385 1_456 S
C104 H79 0.951 . S
C104 C102 1.388 . S
C104 C105 1.366 . S
C105 C104 1.366 . S
C105 C106 1.414 1_456 S
C105 C108 1.499 . S
C106 H80 0.950 . S
C106 C105 1.414 1_654 S
C106 C107 1.374 . S
C107 H81 0.950 . S
C107 C103 1.385 1_654 S
C107 C106 1.374 . S
C108 C105 1.499 . S
C108 C109 1.373 1_455 S
C108 C110 1.389 . S
C109 H82 0.950 . S
C109 C95 1.377 . S
C109 C108 1.373 1_655 S
C110 C94 1.377 . S
C110 C108 1.389 . S
C110 C111 1.524 1_556 S
C111 C110 1.524 1_554 S
C111 C112 1.397 . S
C111 C116 1.363 1_554 S
C112 H83 0.950 . S
C112 C111 1.397 . S
C112 C113 1.334 . S
C113 H84 0.950 . S
C113 C112 1.334 . S
C113 C114 1.287 . S
C114 C113 1.287 . S
C114 C115 1.498 1_554 S
C114 H117 0.999 . S
C115 H85 0.964 . S
C115 C114 1.498 1_556 S
C115 C116 1.426 . S
C116 H86 0.950 . S
C116 C111 1.363 1_556 S
C116 C115 1.426 . S
H117 C114 0.999 . S
H118 C99 0.913 . S
H119 C137 0.951 . S
H120 C139 0.951 . S
H121 C141 0.950 . S
H122 C142 0.950 . S
H123 C144 0.950 . S
H124 C147 0.950 . S
H125 C148 0.950 . S
H126 C150 0.950 . S
H127 C151 0.950 . S
H128 C152 0.951 . S
H129 C154 0.951 . S
H130 C156 0.950 . S
H131 C157 0.950 . S
H132 C159 0.950 . S
H133 C162 0.950 . S
H134 C163 0.950 . S
H135 C165 0.950 . S
H136 C166 0.950 . S
C137 H119 0.951 . S
C137 C138 1.366 . S
C137 C139 1.388 . S
C138 C137 1.366 . S
C138 C142 1.385 1_545 S
C139 H120 0.951 . S
C139 C137 1.388 . S
C139 C140 1.366 . S
C140 C139 1.366 . S
C140 C141 1.414 1_545 S
C140 C143 1.499 . S
C141 H121 0.950 . S
C141 C140 1.414 1_565 S
C141 C142 1.374 . S
C142 H122 0.950 . S
C142 C138 1.385 1_565 S
C142 C141 1.374 . S
C143 C140 1.499 . S
C143 C144 1.373 1_545 S
C143 C145 1.389 . S
C144 H123 0.950 . S
C144 C143 1.373 1_565 S
C144 C160 1.377 . S
C145 C143 1.389 . S
C145 C146 1.524 . S
C145 C159 1.377 . S
C146 C145 1.524 . S
C146 C147 1.397 . S
C146 C151 1.363 . S
C147 H124 0.950 . S
C147 C146 1.397 . S
C147 C148 1.334 . S
C148 H125 0.950 . S
C148 C147 1.334 . S
C148 C149 1.287 . S
C149 C148 1.287 . S
C149 C150 1.524 . S
C149 H168 0.913 . S
C150 H126 0.950 . S
C150 C149 1.524 . S
C150 C151 1.415 . S
C151 H127 0.950 . S
C151 C146 1.363 . S
C151 C150 1.415 . S
C152 H128 0.951 . S
C152 C153 1.366 . S
C152 C154 1.388 . S
C153 C152 1.366 . S
C153 C157 1.385 1_565 S
C154 H129 0.951 . S
C154 C152 1.388 . S
C154 C155 1.366 . S
C155 C154 1.366 . S
C155 C156 1.414 1_565 S
C155 C158 1.499 . S
C156 H130 0.950 . S
C156 C155 1.414 1_545 S
C156 C157 1.374 . S
C157 H131 0.950 . S
C157 C153 1.385 1_545 S
C157 C156 1.374 . S
C158 C155 1.499 . S
C158 C159 1.373 1_565 S
C158 C160 1.389 . S
C159 H132 0.950 . S
C159 C145 1.377 . S
C159 C158 1.373 1_545 S
C160 C144 1.377 . S
C160 C158 1.389 . S
C160 C161 1.524 . S
C161 C160 1.524 . S
C161 C162 1.397 . S
C161 C166 1.363 . S
C162 H133 0.950 . S
C162 C161 1.397 . S
C162 C163 1.334 . S
C163 H134 0.950 . S
C163 C162 1.334 . S
C163 C164 1.287 . S
C164 C163 1.287 . S
C164 C165 1.524 . S
C164 H167 0.999 . S
C165 H135 0.950 . S
C165 C164 1.524 . S
C165 C166 1.415 . S
C166 H136 0.950 . S
C166 C161 1.363 . S
C166 C165 1.415 . S
H167 C164 0.999 . S
H168 C149 0.913 . S
H169 C187 0.951 . S
H170 C189 0.951 . S
H171 C191 0.950 . S
H172 C192 0.950 . S
H173 C194 0.950 . S
H174 C197 0.950 . S
H175 C198 0.950 . S
H176 C200 0.950 . S
H177 C201 0.950 . S
H178 C202 0.951 . S
H179 C204 0.951 . S
H180 C206 0.950 . S
H181 C207 0.950 . S
H182 C209 0.950 . S
H183 C212 0.950 . S
H184 C213 0.950 . S
H185 C215 0.950 . S
H186 C216 0.950 . S
C187 H169 0.951 . S
C187 C188 1.366 . S
C187 C189 1.388 . S
C188 C187 1.366 . S
C188 C192 1.385 . S
C189 H170 0.951 . S
C189 C187 1.388 . S
C189 C190 1.366 . S
C190 C189 1.366 . S
C190 C191 1.414 . S
C190 C193 1.499 . S
C191 H171 0.950 . S
C191 C190 1.414 . S
C191 C192 1.374 . S
C192 H172 0.950 . S
C192 C188 1.385 . S
C192 C191 1.374 . S
C193 C190 1.499 . S
C193 C194 1.373 . S
C193 C195 1.389 . S
C194 H173 0.950 . S
C194 C193 1.373 . S
C194 C210 1.377 . S
C195 C193 1.389 . S
C195 C196 1.524 . S
C195 C209 1.377 . S
C196 C195 1.524 . S
C196 C197 1.397 . S
C196 C201 1.363 . S
C197 H174 0.950 . S
C197 C196 1.397 . S
C197 C198 1.334 . S
C198 H175 0.950 . S
C198 C197 1.334 . S
C198 C199 1.287 . S
C199 C198 1.287 . S
C199 C200 1.524 . S
C199 H218 0.913 . S
C200 H176 0.950 . S
C200 C199 1.524 . S
C200 C201 1.415 . S
C201 H177 0.950 . S
C201 C196 1.363 . S
C201 C200 1.415 . S
C202 H178 0.951 . S
C202 C203 1.366 . S
C202 C204 1.388 . S
C203 C202 1.366 . S
C203 C207 1.385 . S
C204 H179 0.951 . S
C204 C202 1.388 . S
C204 C205 1.366 . S
C205 C204 1.366 . S
C205 C206 1.414 . S
C205 C208 1.499 . S
C206 H180 0.950 . S
C206 C205 1.414 . S
C206 C207 1.374 . S
C207 H181 0.950 . S
C207 C203 1.385 . S
C207 C206 1.374 . S
C208 C205 1.499 . S
C208 C209 1.373 . S
C208 C210 1.389 . S
C209 H182 0.950 . S
C209 C195 1.377 . S
C209 C208 1.373 . S
C210 C194 1.377 . S
C210 C208 1.389 . S
C210 C211 1.524 . S
C211 C210 1.524 . S
C211 C212 1.397 . S
C211 C216 1.363 . S
C212 H183 0.950 . S
C212 C211 1.397 . S
C212 C213 1.334 . S
C213 H184 0.950 . S
C213 C212 1.334 . S
C213 C214 1.287 . S
C214 C213 1.287 . S
C214 C215 1.524 . S
C214 H217 0.999 . S
C215 H185 0.950 . S
C215 C214 1.524 . S
C215 C216 1.415 . S
C216 H186 0.950 . S
C216 C211 1.363 . S
C216 C215 1.415 . S
H217 C214 0.999 . S
H218 C199 0.913 . S
H219 C237 0.951 . S
H220 C239 0.951 . S
H221 C241 0.950 1_565 S
H222 C242 0.950 1_565 S
H223 C244 0.950 . S
H224 C247 0.950 . S
H225 C248 0.950 . S
H226 C250 0.950 . S
H227 C251 0.950 . S
H228 C252 0.951 . S
H229 C254 0.951 . S
H230 C256 0.950 . S
H231 C257 0.950 . S
H232 C259 0.950 . S
H233 C262 0.950 . S
H234 C263 0.950 . S
H235 C265 0.950 . S
H236 C266 0.950 . S
C237 H219 0.951 . S
C237 C238 1.366 . S
C237 C239 1.388 . S
C238 C237 1.366 . S
C238 C242 1.385 . S
C239 H220 0.951 . S
C239 C237 1.388 . S
C239 C240 1.366 . S
C240 C239 1.366 . S
C240 C241 1.414 . S
C240 C243 1.499 . S
C241 H221 0.950 1_545 S
C241 C240 1.414 . S
C241 C242 1.374 . S
C242 H222 0.950 1_545 S
C242 C238 1.385 . S
C242 C241 1.374 . S
C243 C240 1.499 . S
C243 C244 1.373 1_545 S
C243 C245 1.389 . S
C244 H223 0.950 . S
C244 C243 1.373 1_565 S
C244 C260 1.377 . S
C245 C243 1.389 . S
C245 C246 1.524 . S
C245 C259 1.377 . S
C246 C245 1.524 . S
C246 C247 1.397 . S
C246 C251 1.363 . S
C247 H224 0.950 . S
C247 C246 1.397 . S
C247 C248 1.334 . S
C248 H225 0.950 . S
C248 C247 1.334 . S
C248 C249 1.287 . S
C249 C248 1.287 . S
C249 C250 1.524 . S
C249 H268 0.913 . S
C250 H226 0.950 . S
C250 C249 1.524 . S
C250 C251 1.415 . S
C251 H227 0.950 . S
C251 C246 1.363 . S
C251 C250 1.415 . S
C252 H228 0.951 . S
C252 C253 1.366 . S
C252 C254 1.388 . S
C253 C252 1.366 . S
C253 C257 1.385 1_565 S
C254 H229 0.951 . S
C254 C252 1.388 . S
C254 C255 1.366 . S
C255 C254 1.366 . S
C255 C256 1.414 1_565 S
C255 C258 1.499 . S
C256 H230 0.950 . S
C256 C255 1.414 1_545 S
C256 C257 1.374 . S
C257 H231 0.950 . S
C257 C253 1.385 1_545 S
C257 C256 1.374 . S
C258 C255 1.499 . S
C258 C259 1.373 1_565 S
C258 C260 1.389 . S
C259 H232 0.950 . S
C259 C245 1.377 . S
C259 C258 1.373 1_545 S
C260 C244 1.377 . S
C260 C258 1.389 . S
C260 C261 1.524 . S
C261 C260 1.524 . S
C261 C262 1.397 . S
C261 C266 1.363 . S
C262 H233 0.950 . S
C262 C261 1.397 . S
C262 C263 1.334 . S
C263 H234 0.950 . S
C263 C262 1.334 . S
C263 C264 1.287 . S
C264 C263 1.287 . S
C264 C265 1.524 . S
C264 H267 0.999 . S
C265 H235 0.950 . S
C265 C264 1.524 . S
C265 C266 1.415 . S
C266 H236 0.950 . S
C266 C261 1.363 . S
C266 C265 1.415 . S
H267 C264 0.999 . S
H268 C249 0.913 . S
H269 C287 0.951 . S
H270 C289 0.951 . S
H271 C291 0.950 . S
H272 C292 0.950 . S
H273 C294 0.950 . S
H274 C297 0.950 . S
H275 C298 0.950 . S
H276 C300 0.950 . S
H277 C301 0.950 . S
H278 C302 0.951 . S
H279 C304 0.951 . S
H280 C306 0.950 . S
H281 C307 0.950 . S
H282 C309 0.950 . S
H283 C312 0.932 1_554 S
H284 C313 0.950 . S
H285 C315 0.950 . S
H286 C316 0.950 . S
C287 H269 0.951 . S
C287 C288 1.366 . S
C287 C289 1.388 . S
C288 C287 1.366 . S
C288 C292 1.385 1_554 S
C289 H270 0.951 . S
C289 C287 1.388 . S
C289 C290 1.366 . S
C290 C289 1.366 . S
C290 C291 1.414 1_554 S
C290 C293 1.499 . S
C291 H271 0.950 . S
C291 C290 1.414 1_556 S
C291 C292 1.374 . S
C292 H272 0.950 . S
C292 C288 1.385 1_556 S
C292 C291 1.374 . S
C293 C290 1.499 . S
C293 C294 1.373 1_554 S
C293 C295 1.389 . S
C294 H273 0.950 . S
C294 C293 1.373 1_556 S
C294 C310 1.377 . S
C295 C293 1.389 . S
C295 C296 1.524 . S
C295 C309 1.377 . S
C296 C295 1.524 . S
C296 C297 1.397 . S
C296 C301 1.363 . S
C297 H274 0.950 . S
C297 C296 1.397 . S
C297 C298 1.334 . S
C298 H275 0.950 . S
C298 C297 1.334 . S
C298 C299 1.287 . S
C299 C298 1.287 . S
C299 C300 1.524 . S
C299 H318 0.913 . S
C300 H276 0.950 . S
C300 C299 1.524 . S
C300 C301 1.415 . S
C301 H277 0.950 . S
C301 C296 1.363 . S
C301 C300 1.415 . S
C302 H278 0.951 . S
C302 C303 1.366 1_556 S
C302 C304 1.388 . S
C303 C302 1.366 1_554 S
C303 C307 1.385 . S
C304 H279 0.951 . S
C304 C302 1.388 . S
C304 C305 1.366 1_556 S
C305 C304 1.366 1_554 S
C305 C306 1.414 . S
C305 C308 1.499 . S
C306 H280 0.950 . S
C306 C305 1.414 . S
C306 C307 1.374 . S
C307 H281 0.950 . S
C307 C303 1.385 . S
C307 C306 1.374 . S
C308 C305 1.499 . S
C308 C309 1.373 . S
C308 C310 1.389 1_554 S
C309 H282 0.950 . S
C309 C295 1.377 . S
C309 C308 1.373 . S
C310 C294 1.377 . S
C310 C308 1.389 1_556 S
C310 C311 1.524 . S
C311 C310 1.524 . S
C311 C312 1.397 . S
C311 C316 1.363 . S
C312 H283 0.932 1_556 S
C312 C311 1.397 . S
C312 C313 1.334 . S
C313 H284 0.950 . S
C313 C312 1.334 . S
C313 C314 1.287 . S
C314 C313 1.287 . S
C314 C315 1.524 . S
C314 H317 0.999 . S
C315 H285 0.950 . S
C315 C314 1.524 . S
C315 C316 1.415 . S
C316 H286 0.950 . S
C316 C311 1.363 . S
C316 C315 1.415 . S
H317 C314 0.999 . S
H318 C299 0.913 . S
H319 C337 0.951 . S
H320 C339 0.951 . S
H321 C341 0.950 . S
H322 C342 0.950 . S
H323 C344 0.950 . S
H324 C347 0.950 . S
H325 C348 0.950 . S
H326 C350 0.950 . S
H327 C351 0.950 . S
H328 C352 0.951 . S
H329 C354 0.951 . S
H330 C356 0.950 . S
H331 C357 0.950 . S
H332 C359 0.950 . S
H333 C362 0.950 . S
H334 C363 0.950 . S
H335 C365 0.950 . S
H336 C366 0.950 . S
C337 H319 0.951 . S
C337 C338 1.366 1_655 S
C337 C339 1.388 . S
C338 C337 1.366 1_455 S
C338 C342 1.385 . S
C339 H320 0.951 . S
C339 C337 1.388 . S
C339 C340 1.366 1_655 S
C340 C339 1.366 1_455 S
C340 C341 1.414 . S
C340 C343 1.499 . S
C341 H321 0.950 . S
C341 C340 1.414 . S
C341 C342 1.374 . S
C342 H322 0.950 . S
C342 C338 1.385 . S
C342 C341 1.374 . S
C343 C340 1.499 . S
C343 C344 1.373 . S
C343 C345 1.389 1_455 S
C344 H323 0.950 . S
C344 C343 1.373 . S
C344 C360 1.377 . S
C345 C343 1.389 1_655 S
C345 C346 1.524 . S
C345 C359 1.377 . S
C346 C345 1.524 . S
C346 C347 1.397 1_655 S
C346 C351 1.363 . S
C347 H324 0.950 . S
C347 C346 1.397 1_455 S
C347 C348 1.334 . S
C348 H325 0.950 . S
C348 C347 1.334 . S
C348 C349 1.287 1_455 S
C349 C348 1.287 1_655 S
C349 C350 1.524 . S
C349 H368 0.913 . S
C350 H326 0.950 . S
C350 C349 1.524 . S
C350 C351 1.415 . S
C351 H327 0.950 . S
C351 C346 1.363 . S
C351 C350 1.415 . S
C352 H328 0.951 . S
C352 C353 1.366 1_455 S
C352 C354 1.388 . S
C353 C352 1.366 1_655 S
C353 C357 1.385 . S
C354 H329 0.951 . S
C354 C352 1.388 . S
C354 C355 1.366 1_455 S
C355 C354 1.366 1_655 S
C355 C356 1.414 . S
C355 C358 1.499 . S
C356 H330 0.950 . S
C356 C355 1.414 . S
C356 C357 1.374 . S
C357 H331 0.950 . S
C357 C353 1.385 . S
C357 C356 1.374 . S
C358 C355 1.499 . S
C358 C359 1.373 . S
C358 C360 1.389 1_655 S
C359 H332 0.950 . S
C359 C345 1.377 . S
C359 C358 1.373 . S
C360 C344 1.377 . S
C360 C358 1.389 1_455 S
C360 C361 1.524 . S
C361 C360 1.524 . S
C361 C362 1.397 1_455 S
C361 C366 1.363 . S
C362 H333 0.950 . S
C362 C361 1.397 1_655 S
C362 C363 1.334 . S
C363 H334 0.950 . S
C363 C362 1.334 . S
C363 C364 1.287 1_655 S
C364 C363 1.287 1_455 S
C364 C365 1.524 . S
C364 H367 0.999 . S
C365 H335 0.950 . S
C365 C364 1.524 . S
C365 C366 1.415 . S
C366 H336 0.950 . S
C366 C361 1.363 . S
C366 C365 1.415 . S
H367 C364 0.999 . S
H368 C349 0.913 . S
H369 C387 0.951 . S
H370 C389 0.951 . S
H371 C391 0.950 . S
H372 C392 0.950 . S
H373 C394 0.950 . S
H374 C397 0.962 . S
H375 C398 0.950 . S
H376 C400 0.950 . S
H377 C401 0.950 1_455 S
H378 C402 0.951 . S
H379 C404 0.951 . S
H380 C406 0.950 . S
H381 C407 0.950 . S
H382 C409 0.950 . S
H383 C412 0.950 1_545 S
H384 C413 0.950 . S
H385 C415 0.950 . S
H386 C416 0.951 1_655 S
C387 H369 0.951 . S
C387 C388 1.366 . S
C387 C389 1.388 . S
C388 C387 1.366 . S
C388 C392 1.385 1_445 S
C389 H370 0.951 . S
C389 C387 1.388 . S
C389 C390 1.366 . S
C390 C389 1.366 . S
C390 C391 1.415 1_445 S
C390 C393 1.499 1_455 S
C391 H371 0.950 . S
C391 C390 1.415 1_665 S
C391 C392 1.374 . S
C392 H372 0.950 . S
C392 C388 1.385 1_665 S
C392 C391 1.374 . S
C393 C390 1.499 1_655 S
C393 C394 1.370 1_645 S
C393 C395 1.392 . S
C394 H373 0.950 . S
C394 C393 1.370 1_465 S
C394 C410 1.377 . S
C395 C393 1.392 . S
C395 C396 1.524 . S
C395 C409 1.377 . S
C396 C395 1.524 . S
C396 C397 1.397 . S
C396 C401 1.363 . S
C397 H374 0.962 . S
C397 C396 1.397 . S
C397 C398 1.334 . S
C398 H375 0.950 . S
C398 C397 1.334 . S
C398 C399 1.287 . S
C399 C398 1.287 . S
C399 C400 1.524 . S
C399 H418 0.913 . S
C400 H376 0.950 . S
C400 C399 1.524 . S
C400 C401 1.415 . S
C401 H377 0.950 1_655 S
C401 C396 1.363 . S
C401 C400 1.415 . S
C402 H378 0.951 . S
C402 C403 1.366 1_665 S
C402 C404 1.388 . S
C403 C402 1.366 1_445 S
C403 C407 1.385 . S
C404 H379 0.951 . S
C404 C402 1.388 . S
C404 C405 1.366 1_665 S
C405 C404 1.366 1_445 S
C405 C406 1.414 . S
C405 C408 1.499 . S
C406 H380 0.950 . S
C406 C405 1.414 . S
C406 C407 1.374 . S
C407 H381 0.950 . S
C407 C403 1.385 . S
C407 C406 1.374 . S
C408 C405 1.499 . S
C408 C409 1.373 1_455 S
C408 C410 1.389 1_545 S
C409 H382 0.950 . S
C409 C395 1.377 . S
C409 C408 1.373 1_655 S
C410 C394 1.377 . S
C410 C408 1.389 1_565 S
C410 C411 1.524 . S
C411 C410 1.524 . S
C411 C412 1.397 . S
C411 C416 1.363 . S
C412 H383 0.950 1_565 S
C412 C411 1.397 . S
C412 C413 1.334 . S
C413 H384 0.950 . S
C413 C412 1.334 . S
C413 C414 1.287 . S
C414 C413 1.287 . S
C414 C415 1.524 . S
C414 H417 0.999 . S
C415 H385 0.950 . S
C415 C414 1.524 . S
C415 C416 1.415 . S
C416 H386 0.951 1_455 S
C416 C411 1.363 . S
C416 C415 1.415 . S
H417 C414 0.999 . S
H418 C399 0.913 . S
H419 C437 0.951 . S
H420 C439 0.951 . S
H421 C441 0.950 . S
H422 C442 0.950 . S
H423 C444 0.950 . S
H424 C447 0.950 . S
H425 C448 0.950 . S
H426 C450 0.950 . S
H427 C451 0.950 . S
H428 C452 0.951 . S
H429 C454 0.951 . S
H430 C456 0.950 . S
H431 C457 0.950 . S
H432 C459 0.950 . S
H433 C462 0.950 . S
H434 C463 0.950 . S
H435 C465 0.950 . S
H436 C466 0.950 . S
C437 H419 0.951 . S
C437 C438 1.366 1_665 S
C437 C439 1.388 . S
C438 C437 1.366 1_445 S
C438 C442 1.385 . S
C439 H420 0.951 . S
C439 C437 1.388 . S
C439 C440 1.366 1_665 S
C440 C439 1.366 1_445 S
C440 C441 1.414 . S
C440 C443 1.499 . S
C441 H421 0.950 . S
C441 C440 1.414 . S
C441 C442 1.374 . S
C442 H422 0.950 . S
C442 C438 1.385 . S
C442 C441 1.374 . S
C443 C440 1.499 . S
C443 C444 1.373 . S
C443 C445 1.389 1_445 S
C444 H423 0.950 . S
C444 C443 1.373 . S
C444 C460 1.377 . S
C445 C443 1.389 1_665 S
C445 C446 1.524 . S
C445 C459 1.377 . S
C446 C445 1.524 . S
C446 C447 1.397 . S
C446 C451 1.363 . S
C447 H424 0.950 . S
C447 C446 1.397 . S
C447 C448 1.334 . S
C448 H425 0.950 . S
C448 C447 1.334 . S
C448 C449 1.287 . S
C449 C448 1.287 . S
C449 C450 1.524 . S
C449 H468 0.913 . S
C450 H426 0.950 . S
C450 C449 1.524 . S
C450 C451 1.415 . S
C451 H427 0.950 . S
C451 C446 1.363 . S
C451 C450 1.415 . S
C452 H428 0.951 . S
C452 C453 1.366 . S
C452 C454 1.388 . S
C453 C452 1.366 . S
C453 C457 1.385 1_445 S
C454 H429 0.951 . S
C454 C452 1.388 . S
C454 C455 1.366 . S
C455 C454 1.366 . S
C455 C456 1.414 1_445 S
C455 C458 1.499 . S
C456 H430 0.950 . S
C456 C455 1.414 1_665 S
C456 C457 1.374 . S
C457 H431 0.950 . S
C457 C453 1.385 1_665 S
C457 C456 1.374 . S
C458 C455 1.499 . S
C458 C459 1.373 1_445 S
C458 C460 1.389 . S
C459 H432 0.950 . S
C459 C445 1.377 . S
C459 C458 1.373 1_665 S
C460 C444 1.377 . S
C460 C458 1.389 . S
C460 C461 1.524 . S
C461 C460 1.524 . S
C461 C462 1.397 . S
C461 C466 1.363 . S
C462 H433 0.950 . S
C462 C461 1.397 . S
C462 C463 1.334 . S
C463 H434 0.950 . S
C463 C462 1.334 . S
C463 C464 1.287 . S
C464 C463 1.287 . S
C464 C465 1.524 . S
C464 H467 0.999 . S
C465 H435 0.950 . S
C465 C464 1.524 . S
C465 C466 1.415 . S
C466 H436 0.950 . S
C466 C461 1.363 . S
C466 C465 1.415 . S
H467 C464 0.999 . S
H468 C449 0.913 . S
H469 C487 0.951 . S
H470 C489 0.951 . S
H471 C491 0.950 . S
H472 C492 0.950 . S
H473 C494 0.950 . S
H474 C497 0.950 . S
H475 C498 0.950 . S
H476 C500 0.950 . S
H477 C501 0.950 . S
H478 C502 0.951 . S
H479 C504 0.951 . S
H480 C506 0.950 . S
H481 C507 0.950 . S
H482 C509 0.950 . S
H483 C512 0.950 . S
H484 C513 0.950 . S
H485 C515 0.950 . S
H486 C516 0.950 . S
C487 H469 0.951 . S
C487 C488 1.366 1_565 S
C487 C489 1.388 . S
C488 C487 1.366 1_545 S
C488 C492 1.385 1_455 S
C489 H470 0.951 . S
C489 C487 1.388 . S
C489 C490 1.366 1_565 S
C490 C489 1.366 1_545 S
C490 C491 1.414 1_455 S
C490 C493 1.499 . S
C491 H471 0.950 . S
C491 C490 1.414 1_655 S
C491 C492 1.374 . S
C492 H472 0.950 . S
C492 C488 1.385 1_655 S
C492 C491 1.374 . S
C493 C490 1.499 . S
C493 C494 1.373 . S
C493 C495 1.389 1_445 S
C494 H473 0.950 . S
C494 C493 1.373 . S
C494 C510 1.377 . S
C495 C493 1.389 1_665 S
C495 C496 1.524 . S
C495 C509 1.377 . S
C496 C495 1.524 . S
C496 C497 1.397 . S
C496 C501 1.363 . S
C497 H474 0.950 . S
C497 C496 1.397 . S
C497 C498 1.334 . S
C498 H475 0.950 . S
C498 C497 1.334 . S
C498 C499 1.287 . S
C499 C498 1.287 . S
C499 C500 1.524 . S
C499 H518 0.913 . S
C500 H476 0.950 . S
C500 C499 1.524 . S
C500 C501 1.415 . S
C501 H477 0.950 . S
C501 C496 1.363 . S
C501 C500 1.415 . S
C502 H478 0.951 . S
C502 C503 1.366 1_655 S
C502 C504 1.388 . S
C503 C502 1.366 1_455 S
C503 C507 1.385 1_545 S
C504 H479 0.951 . S
C504 C502 1.388 . S
C504 C505 1.366 1_655 S
C505 C504 1.366 1_455 S
C505 C506 1.414 1_545 S
C505 C508 1.499 . S
C506 H480 0.950 . S
C506 C505 1.414 1_565 S
C506 C507 1.374 . S
C507 H481 0.950 . S
C507 C503 1.385 1_565 S
C507 C506 1.374 . S
C508 C505 1.499 . S
C508 C509 1.373 1_445 S
C508 C510 1.389 . S
C509 H482 0.950 . S
C509 C495 1.377 . S
C509 C508 1.373 1_665 S
C510 C494 1.377 . S
C510 C508 1.389 . S
C510 C511 1.524 . S
C511 C510 1.524 . S
C511 C512 1.397 . S
C511 C516 1.363 . S
C512 H483 0.950 . S
C512 C511 1.397 . S
C512 C513 1.334 . S
C513 H484 0.950 . S
C513 C512 1.334 . S
C513 C514 1.287 . S
C514 C513 1.287 . S
C514 C515 1.524 . S
C514 H517 0.999 . S
C515 H485 0.950 . S
C515 C514 1.524 . S
C515 C516 1.415 . S
C516 H486 0.950 . S
C516 C511 1.363 . S
C516 C515 1.415 . S
H517 C514 0.999 . S
H518 C499 0.913 . S
C88 C20 0.889 . S
C103 C19 0.889 . S
C138 C42 0.888 . S
C153 C43 0.890 . S
C188 C65 0.889 . S
C203 C66 0.889 . S
C238 C64 0.940 . S
C253 C67 0.932 . S
C288 C18 0.940 . S
C303 C21 0.933 . S
C338 C44 0.933 . S
C353 C41 0.939 . S
C388 C40 1.499 . S
C403 C16 1.499 . S
C438 C39 1.500 . S
C453 C63 1.499 . S
C488 C62 1.500 . S
C503 C17 1.499 . S
