# Generated by pormake.
# Topology sqp, (5)-cn, num edge types: 1
# Building blocks:
#     Node 0, Type 0, BuildingBlock: XOMCOT_clean_sbu_0, # of connection points: 5
#     Node 1, Type 0, BuildingBlock: XOMCOT_clean_sbu_0, # of connection points: 5
#     Node 2, Type 0, BuildingBlock: XOMCOT_clean_sbu_0, # of connection points: 5
#     Node 3, Type 0, BuildingBlock: XOMCOT_clean_sbu_0, # of connection points: 5
#     Edge 4, Type (0, 0), BuildingBlock: UVAHIK_clean_linker_0, # of connection points: 2
#     Edge 5, Type (0, 0), BuildingBlock: UVAHIK_clean_linker_0, # of connection points: 2
#     Edge 6, Type (0, 0), BuildingBlock: UVAHIK_clean_linker_0, # of connection points: 2
#     Edge 7, Type (0, 0), BuildingBlock: UVAHIK_clean_linker_0, # of connection points: 2
#     Edge 8, Type (0, 0), BuildingBlock: UVAHIK_clean_linker_0, # of connection points: 2
#     Edge 9, Type (0, 0), BuildingBlock: UVAHIK_clean_linker_0, # of connection points: 2
#     Edge 10, Type (0, 0), BuildingBlock: UVAHIK_clean_linker_0, # of connection points: 2
#     Edge 11, Type (0, 0), BuildingBlock: UVAHIK_clean_linker_0, # of connection points: 2
#     Edge 12, Type (0, 0), BuildingBlock: UVAHIK_clean_linker_0, # of connection points: 2
#     Edge 13, Type (0, 0), BuildingBlock: UVAHIK_clean_linker_0, # of connection points: 2
# Relax obj value: 0.119
# Max RMSD: 0.202
# Mean RMSD: 0.202
data_MOF--net-sqp--node1-XOMCOT_clean_sbu_0--edge1-UVAHIK_clean_linker_0
_symmetry_space_group_name_H-M    P1
_symmetry_Int_Tables_number       1
_symmetry_cell_setting            triclinic
loop_
_symmetry_equiv_pos_as_xyz
'x, y, z'
_cell_length_a     31.002883
_cell_length_b     24.297037
_cell_length_c     59.157824
_cell_angle_alpha  89.894456
_cell_angle_beta   89.604373
_cell_angle_gamma 90.165521
loop_
_atom_site_label
_atom_site_type_symbol
_atom_site_fract_x
_atom_site_fract_y
_atom_site_fract_z
_atom_type_partial_charge
Co0 Co 1.00235 1.00535 0.3066 0.0
C1 C 0.92371 0.07545 0.30069 0.0
C2 C 0.98215 0.12294 0.30086 0.0
C3 C 0.94804 0.15837 0.29876 0.0
N4 N 0.96714 0.0708 0.30233 0.0
N5 N 0.91142 0.12858 0.29861 0.0
H6 H 0.90142 0.04114 0.30113 0.0
H7 H 0.01565 0.1351 0.30115 0.0
C8 C 0.09346 0.04614 0.30471 0.0
O9 O 0.10196 0.01482 0.32225 0.0
N10 N 0.03816 0.94011 0.31022 0.0
C11 C 0.04114 0.90472 0.32778 0.0
C12 C 0.07216 0.86607 0.32291 0.0
C13 C 0.06659 0.92112 0.29465 0.0
N14 N 0.08818 0.87655 0.30213 0.0
C15 C 0.98508 0.99558 0.354 0.0
C16 C 0.03312 0.0843 0.36859 0.0
C17 C 0.01264 0.05055 0.38459 0.0
C18 C 0.98774 1.00639 0.37704 0.0
C19 C 0.0302 0.07134 0.34558 0.0
N20 N 0.00826 0.02551 0.33853 0.0
H21 H 0.96486 0.96185 0.34877 0.0
H22 H 0.04559 0.0987 0.33369 0.0
H23 H 0.02256 0.90579 0.34317 0.0
H24 H 0.07242 0.94082 0.27848 0.0
O25 O 0.95185 0.95965 0.30942 0.0
O26 O 0.98522 0.97807 0.27704 0.0
O27 O 0.05521 0.04822 0.29681 0.0
C28 C 0.95456 0.95193 0.28778 0.0
H29 H 0.95 0.20265 0.29686 0.0
H30 H 0.08203 0.83258 0.33378 0.0
H31 H 0.05177 0.11976 0.37382 0.0
H32 H 0.97021 0.98046 0.38888 0.0
Co33 Co 0.01369 1.00648 0.70416 0.0
C34 C 0.08877 0.08723 0.70542 0.0
C35 C 0.04636 0.09053 0.73417 0.0
C36 C 0.07805 0.12928 0.73697 0.0
N37 N 0.05218 0.06487 0.71417 0.0
N38 N 0.10463 0.1272 0.71892 0.0
H39 H 0.10392 0.0752 0.68977 0.0
H40 H 0.02048 0.08158 0.74598 0.0
C41 C 0.95778 0.10481 0.70944 0.0
O42 O 0.98773 0.13298 0.69861 0.0
N43 N 0.97465 0.94823 0.69577 0.0
C44 C 0.97436 0.91733 0.67687 0.0
C45 C 0.94205 0.87837 0.67896 0.0
C46 C 0.94326 0.92746 0.70914 0.0
N47 N 0.92286 0.88473 0.69933 0.0
C48 C 0.0501 0.02658 0.66046 0.0
C49 C 0.97528 0.05958 0.63932 0.0
C50 C 0.01308 0.05375 0.62645 0.0
C51 C 0.05085 0.03749 0.63736 0.0
C52 C 0.97588 0.04787 0.6625 0.0
N53 N 0.01334 0.03303 0.67299 0.0
H54 H 0.07887 1.01013 0.66799 0.0
H55 H 0.94564 0.04789 0.67165 0.0
H56 H 0.99656 0.92197 0.66281 0.0
H57 H 0.93591 0.94302 0.72586 0.0
O58 O 0.06112 0.95622 0.70149 0.0
O59 O 0.02329 0.96992 0.73295 0.0
O60 O 0.96251 0.05319 0.71282 0.0
C61 C 0.05437 0.94405 0.72258 0.0
H62 H 0.08192 0.15613 0.7514 0.0
H63 H 0.9343 0.84662 0.66682 0.0
H64 H 0.94507 0.07022 0.63135 0.0
H65 H 0.08062 0.03166 0.62798 0.0
Co66 Co 0.50023 0.50677 0.80219 0.0
C67 C 0.42238 0.57687 0.79631 0.0
C68 C 0.48057 0.62475 0.79742 0.0
C69 C 0.44626 0.66008 0.79563 0.0
N70 N 0.46572 0.57246 0.79795 0.0
N71 N 0.40983 0.62991 0.79491 0.0
H72 H 0.40023 0.54241 0.79647 0.0
H73 H 0.51401 0.63699 0.7984 0.0
C74 C 0.59209 0.54716 0.80084 0.0
O75 O 0.60111 0.51533 0.81815 0.0
N76 N 0.53501 0.44118 0.80615 0.0
C77 C 0.53453 0.40419 0.8232 0.0
C78 C 0.56553 0.36506 0.81906 0.0
C79 C 0.56528 0.42277 0.79151 0.0
N80 N 0.5849 0.37698 0.7992 0.0
C81 C 0.47818 0.4969 0.84893 0.0
C82 C 0.52935 0.58047 0.86553 0.0
C83 C 0.50525 0.54831 0.88077 0.0
C84 C 0.47862 0.50704 0.87205 0.0
C85 C 0.52785 0.56893 0.84233 0.0
N86 N 0.50428 0.52542 0.83434 0.0
H87 H 0.45692 0.46505 0.84296 0.0
H88 H 0.54535 0.59575 0.83105 0.0
H89 H 0.5134 0.40461 0.8377 0.0
H90 H 0.57387 0.44377 0.77596 0.0
O91 O 0.44922 0.46132 0.80354 0.0
O92 O 0.48509 0.48118 0.7721 0.0
O93 O 0.55361 0.54975 0.79331 0.0
C94 C 0.45329 0.45504 0.78185 0.0
H95 H 0.44797 0.70452 0.79454 0.0
H96 H 0.57319 0.33042 0.82983 0.0
H97 H 0.54949 0.61388 0.87145 0.0
H98 H 0.45785 0.48274 0.883 0.0
Co99 Co 0.51394 0.50572 0.20047 0.0
C100 C 0.5918 0.57695 0.20681 0.0
C101 C 0.53319 0.6236 0.20598 0.0
C102 C 0.56712 0.65957 0.20809 0.0
N103 N 0.54847 0.57167 0.20498 0.0
N104 N 0.60383 0.63025 0.20864 0.0
H105 H 0.61424 0.54296 0.20658 0.0
H106 H 0.49965 0.63523 0.20525 0.0
C107 C 0.42217 0.54452 0.2027 0.0
O108 O 0.41352 0.51266 0.18538 0.0
N109 N 0.47896 0.43993 0.19642 0.0
C110 C 0.47694 0.40522 0.17865 0.0
C111 C 0.4464 0.36544 0.18311 0.0
C112 C 0.45054 0.41947 0.21172 0.0
N113 N 0.4298 0.37459 0.20385 0.0
C114 C 0.53293 0.49875 0.15322 0.0
C115 C 0.48102 0.58323 0.13831 0.0
C116 C 0.50323 0.55126 0.12238 0.0
C117 C 0.53036 0.50962 0.13019 0.0
C118 C 0.48444 0.57074 0.16137 0.0
N119 N 0.50816 0.52662 0.16857 0.0
H120 H 0.55428 0.46637 0.1585 0.0
H121 H 0.46795 0.59706 0.17317 0.0
H122 H 0.49592 0.40762 0.1634 0.0
H123 H 0.44408 0.43834 0.22795 0.0
O124 O 0.56488 0.46104 0.19768 0.0
O125 O 0.53115 0.47775 0.23001 0.0
O126 O 0.46062 0.54745 0.21035 0.0
C127 C 0.5621 0.45248 0.21927 0.0
H128 H 0.56495 0.70387 0.20965 0.0
H129 H 0.43722 0.33213 0.17199 0.0
H130 H 0.46059 0.61689 0.13302 0.0
H131 H 0.54952 0.48532 0.11854 0.0
C132 C 0.03016 0.01665 0.42317 0.0
C133 C 0.01728 0.06012 0.40913 0.0
C134 C 0.03233 0.02382 0.44651 0.0
C135 C 0.985 0.10002 0.4929 0.0
H136 H 0.08373 0.04668 0.52622 0.0
C137 C 0.99368 0.10586 0.59115 0.0
C138 C 0.01284 0.06006 0.60152 0.0
C139 C 0.99533 0.11209 0.5676 0.0
C140 C 0.0557 0.06131 0.51722 0.0
H141 H 0.99683 0.14523 0.40826 0.0
H142 H 0.99983 0.1576 0.44949 0.0
H143 H 0.08565 0.04693 0.48506 0.0
H144 H 0.0467 0.98356 0.5954 0.0
H145 H 0.04877 0.99359 0.55457 0.0
H146 H 0.95425 0.11221 0.52503 0.0
C147 C 0.00852 0.11817 0.44229 0.0
C148 C 0.05698 0.06176 0.49365 0.0
C149 C 0.00707 0.11125 0.4188 0.0
C150 C 0.03254 0.01994 0.58791 0.0
C151 C 0.03388 0.02587 0.56448 0.0
C152 C 0.98349 0.099 0.51656 0.0
C153 C 0.02109 0.0744 0.45634 0.0
C154 C 0.02138 0.08014 0.48125 0.0
C155 C 0.01586 0.07236 0.55401 0.0
C156 C 0.01852 0.0785 0.52899 0.0
H157 H 0.0383 0.97691 0.41607 0.0
H158 H 0.04175 0.98926 0.45696 0.0
H159 H 0.95699 0.11403 0.4837 0.0
H160 H 0.97833 0.13741 0.60128 0.0
H161 H 0.98128 0.14851 0.56011 0.0
C162 C 0.49303 0.51388 0.08354 0.0
C163 C 0.49798 0.55974 0.09771 0.0
C164 C 0.49035 0.52042 0.0602 0.0
C165 C 0.5205 0.61354 0.01387 0.0
H166 H 0.44456 0.5178 0.97991 0.0
C167 C 0.50687 0.6102 0.91501 0.0
C168 C 0.50702 0.55703 0.9056 0.0
C169 C 0.5046 0.61724 0.93852 0.0
C170 C 0.46598 0.54477 0.98916 0.0
H171 H 0.50324 0.64866 0.09855 0.0
H172 H 0.49824 0.66028 0.05742 0.0
H173 H 0.43988 0.51908 0.02099 0.0
H174 H 0.50799 0.46981 0.91355 0.0
H175 H 0.50348 0.48212 0.95424 0.0
H176 H 0.54689 0.63853 0.98177 0.0
C177 C 0.49677 0.61919 0.06451 0.0
C178 C 0.46333 0.54549 0.01268 0.0
C179 C 0.49925 0.61261 0.08802 0.0
C180 C 0.50672 0.5113 0.92019 0.0
C181 C 0.50417 0.51831 0.94352 0.0
C182 C 0.523 0.61301 0.99021 0.0
C183 C 0.49245 0.57305 0.05036 0.0
C184 C 0.49139 0.57863 0.02536 0.0
C185 C 0.5022 0.57124 0.95292 0.0
C186 C 0.49658 0.57738 0.9777 0.0
H187 H 0.49144 0.47265 0.09052 0.0
H188 H 0.48764 0.48392 0.04981 0.0
H189 H 0.54269 0.63933 0.02317 0.0
H190 H 0.50694 0.64625 0.90422 0.0
H191 H 0.50323 0.65851 0.94537 0.0
C192 C 0.16569 0.09228 0.30692 0.0
C193 C 0.12771 0.08143 0.29485 0.0
C194 C 0.19799 0.1258 0.2976 0.0
C195 C 0.24301 0.17127 0.24375 0.0
H196 H 0.2916 0.29292 0.27754 0.0
C197 C 0.36147 0.32298 0.20172 0.0
C198 C 0.39541 0.34428 0.21464 0.0
C199 C 0.32836 0.29264 0.21194 0.0
C200 C 0.27894 0.25862 0.26797 0.0
H201 H 0.09387 0.097 0.26352 0.0
H202 H 0.15081 0.15455 0.24706 0.0
H203 H 0.23517 0.23589 0.29467 0.0
H204 H 0.42142 0.35084 0.24836 0.0
H205 H 0.36442 0.29602 0.26628 0.0
H206 H 0.28735 0.19224 0.21734 0.0
C207 C 0.15536 0.13737 0.26378 0.0
C208 C 0.24645 0.22617 0.27778 0.0
C209 C 0.12275 0.10464 0.27324 0.0
C210 C 0.39542 0.3351 0.23807 0.0
C211 C 0.36262 0.30389 0.2483 0.0
C212 C 0.2759 0.20307 0.23408 0.0
C213 C 0.19325 0.14832 0.27588 0.0
C214 C 0.22801 0.18244 0.26569 0.0
C215 C 0.32872 0.28195 0.23533 0.0
C216 C 0.29414 0.24751 0.24596 0.0
H217 H 0.17038 0.07519 0.32364 0.0
H218 H 0.22702 0.13335 0.30721 0.0
H219 H 0.22975 0.13727 0.23419 0.0
H220 H 0.36026 0.33042 0.18369 0.0
H221 H 0.30232 0.2779 0.20144 0.0
C222 C 0.84118 0.12658 0.27924 0.0
C223 C 0.86888 0.15032 0.29518 0.0
C224 C 0.803 0.15333 0.27315 0.0
C225 C 0.72368 0.25839 0.28963 0.0
H226 H 0.71894 0.29121 0.22559 0.0
C227 C 0.60577 0.42089 0.25256 0.0
C228 C 0.59171 0.41347 0.23028 0.0
C229 C 0.63649 0.38514 0.26184 0.0
C230 C 0.71886 0.2816 0.24346 0.0
H231 H 0.87737 0.21826 0.31832 0.0
H232 H 0.81 0.26427 0.3082 0.0
H233 H 0.77535 0.23181 0.23984 0.0
H234 H 0.59633 0.36132 0.20073 0.0
H235 H 0.64738 0.2976 0.21711 0.0
H236 H 0.66674 0.30737 0.29329 0.0
C237 C 0.81795 0.22546 0.30023 0.0
C238 C 0.75149 0.24757 0.25161 0.0
C239 C 0.85648 0.19935 0.30594 0.0
C240 C 0.60727 0.36857 0.21783 0.0
C241 C 0.63693 0.33222 0.22722 0.0
C242 C 0.69037 0.29166 0.28141 0.0
C243 C 0.79148 0.20359 0.2833 0.0
C244 C 0.75446 0.23593 0.27476 0.0
C245 C 0.65294 0.34062 0.24915 0.0
C246 C 0.68762 0.30407 0.25818 0.0
H247 H 0.8503 0.08907 0.27061 0.0
H248 H 0.78304 0.13558 0.26008 0.0
H249 H 0.72533 0.25004 0.30759 0.0
H250 H 0.59426 0.45536 0.26247 0.0
H251 H 0.64818 0.39349 0.27869 0.0
C252 C 0.67453 0.6277 0.22749 0.0
C253 C 0.64632 0.65237 0.21205 0.0
C254 C 0.71301 0.65411 0.23339 0.0
C255 C 0.792 0.76017 0.21708 0.0
H256 H 0.79888 0.78914 0.28133 0.0
C257 C 0.9103 0.92171 0.25458 0.0
C258 C 0.92513 0.91296 0.27664 0.0
C259 C 0.87959 0.88602 0.24521 0.0
C260 C 0.79834 0.78058 0.26339 0.0
H261 H 0.63724 0.72162 0.18955 0.0
H262 H 0.70506 0.7672 0.19943 0.0
H263 H 0.74184 0.73046 0.26708 0.0
H264 H 0.92208 0.85864 0.30566 0.0
H265 H 0.87099 0.79499 0.28907 0.0
H266 H 0.84892 0.80957 0.21334 0.0
C267 C 0.69727 0.72789 0.20714 0.0
C268 C 0.76538 0.74699 0.25524 0.0
C269 C 0.65845 0.70207 0.20159 0.0
C270 C 0.91048 0.86683 0.28875 0.0
C271 C 0.88084 0.83056 0.27925 0.0
C272 C 0.82564 0.79303 0.22528 0.0
C273 C 0.72428 0.70497 0.22357 0.0
C274 C 0.76165 0.73679 0.23203 0.0
C275 C 0.86398 0.8403 0.25759 0.0
C276 C 0.82912 0.80402 0.24857 0.0
H277 H 0.66567 0.58961 0.23586 0.0
H278 H 0.73342 0.63558 0.24608 0.0
H279 H 0.78973 0.75289 0.19906 0.0
H280 H 0.92114 0.95717 0.24496 0.0
H281 H 0.86719 0.89535 0.22859 0.0
C282 C 0.12195 0.8389 0.26745 0.0
C283 C 0.12261 0.84745 0.29093 0.0
C284 C 0.1547 0.80861 0.25685 0.0
C285 C 0.26711 0.76493 0.26279 0.0
H286 H 0.23512 0.64112 0.22518 0.0
C287 C 0.39317 0.60528 0.23344 0.0
C288 C 0.3881 0.58052 0.21219 0.0
C289 C 0.36096 0.63932 0.24235 0.0
C290 C 0.24483 0.67608 0.23527 0.0
H291 H 0.15868 0.8329 0.32157 0.0
H292 H 0.21624 0.7809 0.30304 0.0
H293 H 0.17914 0.69985 0.24117 0.0
H294 H 0.34559 0.57291 0.18341 0.0
H295 H 0.29028 0.63372 0.19847 0.0
H296 H 0.33271 0.74237 0.25662 0.0
C297 C 0.19023 0.79705 0.29287 0.0
C298 C 0.21262 0.70961 0.24449 0.0
C299 C 0.15715 0.82638 0.3035 0.0
C300 C 0.35031 0.59092 0.19995 0.0
C301 C 0.31841 0.62564 0.20869 0.0
C302 C 0.29938 0.73198 0.25328 0.0
C303 C 0.18914 0.78736 0.26949 0.0
C304 C 0.22342 0.75398 0.25855 0.0
C305 C 0.32314 0.65022 0.23007 0.0
C306 C 0.28873 0.68663 0.23958 0.0
H307 H 0.09559 0.85455 0.25742 0.0
H308 H 0.15322 0.80193 0.23877 0.0
H309 H 0.27634 0.79925 0.27339 0.0
H310 H 0.42182 0.59781 0.24335 0.0
H311 H 0.36558 0.65643 0.25905 0.0
C312 C 0.33803 0.62416 0.77741 0.0
C313 C 0.3669 0.65071 0.79199 0.0
C314 C 0.29831 0.64823 0.7724 0.0
C315 C 0.21779 0.74958 0.79041 0.0
H316 H 0.20407 0.77758 0.72637 0.0
C317 C 0.09668 0.90972 0.75555 0.0
C318 C 0.08086 0.90201 0.73365 0.0
C319 C 0.12689 0.87293 0.76446 0.0
C320 C 0.20648 0.76911 0.74429 0.0
H321 H 0.3761 0.72099 0.81387 0.0
H322 H 0.30618 0.76266 0.80546 0.0
H323 H 0.26391 0.72199 0.73923 0.0
H324 H 0.08104 0.84838 0.70449 0.0
H325 H 0.13119 0.78241 0.72041 0.0
H326 H 0.16006 0.79619 0.79554 0.0
C327 C 0.31442 0.72361 0.79777 0.0
C328 C 0.24107 0.73737 0.75163 0.0
C329 C 0.35444 0.70009 0.80243 0.0
C330 C 0.09339 0.85546 0.72134 0.0
C331 C 0.1225 0.818 0.73042 0.0
C332 C 0.18255 0.78057 0.78304 0.0
C333 C 0.28651 0.69862 0.78226 0.0
C334 C 0.24735 0.72786 0.77474 0.0
C335 C 0.14096 0.82719 0.75176 0.0
C336 C 0.17668 0.79131 0.75986 0.0
H337 H 0.34707 0.58624 0.76907 0.0
H338 H 0.27723 0.6282 0.7604 0.0
H339 H 0.22203 0.74267 0.80836 0.0
H340 H 0.08752 0.94566 0.76525 0.0
H341 H 0.14054 0.88184 0.78084 0.0
C342 C 0.1817 0.13629 0.70858 0.0
C343 C 0.14279 0.16014 0.7158 0.0
C344 C 0.22011 0.16684 0.70904 0.0
C345 C 0.26488 0.3082 0.71431 0.0
H346 H 0.35312 0.23892 0.75065 0.0
C347 C 0.41879 0.42276 0.74583 0.0
C348 C 0.42345 0.41882 0.76939 0.0
C349 C 0.38921 0.38887 0.73456 0.0
C350 C 0.329 0.25859 0.74024 0.0
H351 H 0.1127 0.23508 0.72758 0.0
H352 H 0.17933 0.28866 0.72811 0.0
H353 H 0.29166 0.18466 0.73774 0.0
H354 H 0.40182 0.37559 0.79953 0.0
H355 H 0.35108 0.31626 0.77992 0.0
H356 H 0.30145 0.38278 0.71773 0.0
C357 C 0.18049 0.24651 0.7222 0.0
C358 C 0.29402 0.22745 0.73269 0.0
C359 C 0.14242 0.21581 0.72209 0.0
C360 C 0.39882 0.37976 0.78137 0.0
C361 C 0.37001 0.34543 0.77013 0.0
C362 C 0.30019 0.33924 0.72166 0.0
C363 C 0.21997 0.22198 0.71631 0.0
C364 C 0.26084 0.25235 0.7203 0.0
C365 C 0.36465 0.34979 0.74665 0.0
C366 C 0.33178 0.31513 0.73536 0.0
H367 H 0.18273 0.09333 0.70378 0.0
H368 H 0.25008 0.14696 0.70435 0.0
H369 H 0.23989 0.32837 0.70466 0.0
H370 H 0.43736 0.4526 0.7362 0.0
H371 H 0.38558 0.39307 0.71644 0.0
C372 C 0.88177 0.10249 0.7241 0.0
C373 C 0.91838 0.1329 0.71747 0.0
C374 C 0.8447 0.12936 0.73185 0.0
C375 C 0.80967 0.25595 0.75922 0.0
H376 H 0.69594 0.21822 0.73695 0.0
C377 C 0.65281 0.32554 0.80315 0.0
C378 C 0.62124 0.34914 0.78927 0.0
C379 C 0.68873 0.29968 0.79367 0.0
C380 C 0.72755 0.22926 0.74322 0.0
H381 H 0.9449 0.21519 0.71378 0.0
H382 H 0.88039 0.26192 0.72767 0.0
H383 H 0.75964 0.17156 0.7215 0.0
H384 H 0.60212 0.36354 0.75463 0.0
H385 H 0.66496 0.31739 0.73794 0.0
H386 H 0.77768 0.31307 0.78112 0.0
C387 C 0.88037 0.21739 0.72677 0.0
C388 C 0.76386 0.20236 0.73453 0.0
C389 C 0.91719 0.19062 0.71873 0.0
C390 C 0.62611 0.34591 0.76568 0.0
C391 C 0.66181 0.31926 0.75617 0.0
C392 C 0.77338 0.28223 0.76812 0.0
C393 C 0.84382 0.18703 0.73342 0.0
C394 C 0.80524 0.21552 0.74245 0.0
C395 C 0.69358 0.29627 0.77011 0.0
C396 C 0.73199 0.26911 0.76022 0.0
H397 H 0.88169 0.05796 0.72325 0.0
H398 H 0.81702 0.105 0.73704 0.0
H399 H 0.84119 0.26659 0.76572 0.0
H400 H 0.65014 0.32801 0.82137 0.0
H401 H 0.71263 0.28199 0.80479 0.0
C402 C 0.66484 0.59248 0.80185 0.0
C403 C 0.62617 0.58184 0.79042 0.0
C404 C 0.69682 0.62559 0.79196 0.0
C405 C 0.71458 0.7276 0.74539 0.0
H406 H 0.83502 0.69561 0.7566 0.0
C407 C 0.85654 0.82876 0.69585 0.0
C408 C 0.88955 0.85085 0.70925 0.0
C409 C 0.82405 0.79618 0.70561 0.0
C410 C 0.80148 0.70513 0.75342 0.0
H411 H 0.59098 0.59678 0.75947 0.0
H412 H 0.64718 0.65253 0.74186 0.0
H413 H 0.77926 0.63772 0.77366 0.0
H414 H 0.91502 0.85527 0.74321 0.0
H415 H 0.85868 0.79759 0.76019 0.0
H416 H 0.7373 0.79414 0.72457 0.0
C417 C 0.6525 0.63697 0.75877 0.0
C418 C 0.76943 0.67219 0.7633 0.0
C419 C 0.62029 0.60461 0.76881 0.0
C420 C 0.88972 0.83925 0.73253 0.0
C421 C 0.85772 0.80592 0.74221 0.0
C422 C 0.74669 0.75996 0.73523 0.0
C423 C 0.6912 0.64817 0.77022 0.0
C424 C 0.72547 0.68308 0.75953 0.0
C425 C 0.82449 0.78423 0.72886 0.0
C426 C 0.79043 0.74921 0.73924 0.0
H427 H 0.67021 0.57586 0.81859 0.0
H428 H 0.72571 0.63401 0.80154 0.0
H429 H 0.6812 0.73813 0.7424 0.0
H430 H 0.85557 0.83735 0.6779 0.0
H431 H 0.79889 0.77972 0.69493 0.0
loop_
_geom_bond_atom_site_label_1
_geom_bond_atom_site_label_2
_geom_bond_distance
_geom_bond_site_symmetry_2
_ccdc_geom_bond_type
Co0 N4 2.148 1_465 S
Co0 N10 2.128 . S
Co0 N20 2.194 1_465 S
Co0 O25 2.351 1_455 S
Co0 O26 2.155 1_455 S
Co0 O27 2.096 1_565 S
C1 N4 1.301 . S
C1 N5 1.328 . S
C1 H6 0.930 . S
C2 C3 1.333 . S
C2 N4 1.317 . S
C2 H7 0.930 . S
C3 C2 1.333 . S
C3 N5 1.350 . S
C3 H29 0.931 . S
N4 Co0 2.148 1_645 S
N4 C1 1.301 . S
N4 C2 1.317 . S
N5 C1 1.328 . S
N5 C3 1.350 . S
H6 C1 0.930 . S
H7 C2 0.930 . S
C8 O9 1.224 . S
C8 O27 1.247 . S
O9 C8 1.224 . S
N10 Co0 2.128 . S
N10 C11 1.355 . S
N10 C13 1.311 . S
C11 N10 1.355 . S
C11 C12 1.363 . S
C11 H23 0.929 . S
C12 C11 1.363 . S
C12 N14 1.375 . S
C12 H30 0.931 . S
C13 N10 1.311 . S
C13 N14 1.347 . S
C13 H24 0.929 . S
N14 C12 1.375 . S
N14 C13 1.347 . S
C15 C18 1.365 . S
C15 N20 1.328 1_565 S
C15 H21 0.929 . S
C16 C17 1.362 . S
C16 C19 1.378 . S
C16 H31 0.929 . S
C17 C16 1.362 . S
C17 C18 1.366 1_445 S
C18 C15 1.365 . S
C18 C17 1.366 1_665 S
C18 H32 0.930 . S
C19 C16 1.378 . S
C19 N20 1.315 1_455 S
C19 H22 0.930 . S
N20 Co0 2.194 1_645 S
N20 C15 1.328 1_545 S
N20 C19 1.315 1_655 S
H21 C15 0.929 . S
H22 C19 0.930 . S
H23 C11 0.929 . S
H24 C13 0.929 . S
O25 Co0 2.351 1_655 S
O25 C28 1.244 . S
O26 Co0 2.155 1_655 S
O26 C28 1.240 . S
O27 Co0 2.096 1_545 S
O27 C8 1.247 . S
C28 O25 1.244 . S
C28 O26 1.240 . S
H29 C3 0.931 . S
H30 C12 0.931 . S
H31 C16 0.929 . S
H32 C18 0.930 . S
Co33 N37 2.148 1_565 S
Co33 N43 2.128 1_455 S
Co33 N53 2.194 1_565 S
Co33 O58 2.351 . S
Co33 O59 2.155 . S
Co33 O60 2.096 1_465 S
C34 N37 1.301 . S
C34 N38 1.328 . S
C34 H39 0.930 . S
C35 C36 1.333 . S
C35 N37 1.317 . S
C35 H40 0.930 . S
C36 C35 1.333 . S
C36 N38 1.350 . S
C36 H62 0.931 . S
N37 Co33 2.148 1_545 S
N37 C34 1.301 . S
N37 C35 1.317 . S
N38 C34 1.328 . S
N38 C36 1.350 . S
H39 C34 0.930 . S
H40 C35 0.930 . S
C41 O42 1.224 . S
C41 O60 1.247 . S
O42 C41 1.224 . S
N43 Co33 2.128 1_655 S
N43 C44 1.355 . S
N43 C46 1.311 . S
C44 N43 1.355 . S
C44 C45 1.363 . S
C44 H56 0.929 . S
C45 C44 1.363 . S
C45 N47 1.375 . S
C45 H63 0.931 . S
C46 N43 1.311 . S
C46 N47 1.347 . S
C46 H57 0.929 . S
N47 C45 1.375 . S
N47 C46 1.347 . S
C48 C51 1.365 . S
C48 N53 1.328 1_565 S
C48 H54 0.929 . S
C49 C50 1.362 1_655 S
C49 C52 1.378 . S
C49 H64 0.929 . S
C50 C49 1.362 1_455 S
C50 C51 1.366 1_545 S
C51 C48 1.365 . S
C51 C50 1.366 1_565 S
C51 H65 0.930 . S
C52 C49 1.378 . S
C52 N53 1.315 1_655 S
C52 H55 0.930 . S
N53 Co33 2.194 1_545 S
N53 C48 1.328 1_545 S
N53 C52 1.315 1_455 S
H54 C48 0.929 . S
H55 C52 0.930 . S
H56 C44 0.929 . S
H57 C46 0.929 . S
O58 Co33 2.351 . S
O58 C61 1.244 . S
O59 Co33 2.155 . S
O59 C61 1.240 . S
O60 Co33 2.096 1_645 S
O60 C41 1.247 . S
C61 O58 1.244 . S
C61 O59 1.240 . S
H62 C36 0.931 . S
H63 C45 0.931 . S
H64 C49 0.929 . S
H65 C51 0.930 . S
Co66 N70 2.148 . S
Co66 N76 2.128 . S
Co66 N86 2.194 . S
Co66 O91 2.351 . S
Co66 O92 2.155 . S
Co66 O93 2.096 . S
C67 N70 1.301 . S
C67 N71 1.328 . S
C67 H72 0.930 . S
C68 C69 1.333 . S
C68 N70 1.317 . S
C68 H73 0.930 . S
C69 C68 1.333 . S
C69 N71 1.350 . S
C69 H95 0.931 . S
N70 Co66 2.148 . S
N70 C67 1.301 . S
N70 C68 1.317 . S
N71 C67 1.328 . S
N71 C69 1.350 . S
H72 C67 0.930 . S
H73 C68 0.930 . S
C74 O75 1.224 . S
C74 O93 1.247 . S
O75 C74 1.224 . S
N76 Co66 2.128 . S
N76 C77 1.355 . S
N76 C79 1.311 . S
C77 N76 1.355 . S
C77 C78 1.363 . S
C77 H89 0.929 . S
C78 C77 1.363 . S
C78 N80 1.375 . S
C78 H96 0.931 . S
C79 N76 1.311 . S
C79 N80 1.347 . S
C79 H90 0.929 . S
N80 C78 1.375 . S
N80 C79 1.347 . S
C81 C84 1.365 . S
C81 N86 1.328 . S
C81 H87 0.929 . S
C82 C83 1.362 . S
C82 C85 1.378 . S
C82 H97 0.929 . S
C83 C82 1.362 . S
C83 C84 1.366 . S
C84 C81 1.365 . S
C84 C83 1.366 . S
C84 H98 0.930 . S
C85 C82 1.378 . S
C85 N86 1.315 . S
C85 H88 0.930 . S
N86 Co66 2.194 . S
N86 C81 1.328 . S
N86 C85 1.315 . S
H87 C81 0.929 . S
H88 C85 0.930 . S
H89 C77 0.929 . S
H90 C79 0.929 . S
O91 Co66 2.351 . S
O91 C94 1.244 . S
O92 Co66 2.155 . S
O92 C94 1.240 . S
O93 Co66 2.096 . S
O93 C74 1.247 . S
C94 O91 1.244 . S
C94 O92 1.240 . S
H95 C69 0.931 . S
H96 C78 0.931 . S
H97 C82 0.929 . S
H98 C84 0.930 . S
Co99 N103 2.148 . S
Co99 N109 2.128 . S
Co99 N119 2.194 . S
Co99 O124 2.351 . S
Co99 O125 2.155 . S
Co99 O126 2.096 . S
C100 N103 1.301 . S
C100 N104 1.328 . S
C100 H105 0.930 . S
C101 C102 1.333 . S
C101 N103 1.317 . S
C101 H106 0.930 . S
C102 C101 1.333 . S
C102 N104 1.350 . S
C102 H128 0.931 . S
N103 Co99 2.148 . S
N103 C100 1.301 . S
N103 C101 1.317 . S
N104 C100 1.328 . S
N104 C102 1.350 . S
H105 C100 0.930 . S
H106 C101 0.930 . S
C107 O108 1.224 . S
C107 O126 1.247 . S
O108 C107 1.224 . S
N109 Co99 2.128 . S
N109 C110 1.355 . S
N109 C112 1.311 . S
C110 N109 1.355 . S
C110 C111 1.363 . S
C110 H122 0.929 . S
C111 C110 1.363 . S
C111 N113 1.375 . S
C111 H129 0.931 . S
C112 N109 1.311 . S
C112 N113 1.347 . S
C112 H123 0.929 . S
N113 C111 1.375 . S
N113 C112 1.347 . S
C114 C117 1.365 . S
C114 N119 1.328 . S
C114 H120 0.929 . S
C115 C116 1.362 . S
C115 C118 1.378 . S
C115 H130 0.929 . S
C116 C115 1.362 . S
C116 C117 1.366 . S
C117 C114 1.365 . S
C117 C116 1.366 . S
C117 H131 0.930 . S
C118 C115 1.378 . S
C118 N119 1.315 . S
C118 H121 0.930 . S
N119 Co99 2.194 . S
N119 C114 1.328 . S
N119 C118 1.315 . S
H120 C114 0.929 . S
H121 C118 0.930 . S
H122 C110 0.929 . S
H123 C112 0.929 . S
O124 Co99 2.351 . S
O124 C127 1.244 . S
O125 Co99 2.155 . S
O125 C127 1.240 . S
O126 Co99 2.096 . S
O126 C107 1.247 . S
C127 O124 1.244 . S
C127 O125 1.240 . S
H128 C102 0.931 . S
H129 C111 0.931 . S
H130 C115 0.929 . S
H131 C117 0.930 . S
C132 C133 1.349 1_565 S
C132 C134 1.327 . S
C132 H157 0.950 . S
C133 C132 1.349 1_545 S
C133 C149 1.349 1_455 S
C134 C132 1.327 . S
C134 C153 1.429 1_565 S
C134 H158 0.950 . S
C135 C152 1.574 . S
C135 C154 1.368 1_655 S
C135 H159 0.949 . S
H136 C140 0.949 . S
C137 C138 1.349 1_655 S
C137 C139 1.327 . S
C137 H160 0.950 . S
C138 C137 1.349 1_455 S
C138 C150 1.349 1_545 S
C139 C137 1.327 . S
C139 C155 1.429 1_655 S
C139 H161 0.950 . S
C140 H136 0.949 . S
C140 C148 1.574 . S
C140 C156 1.368 1_565 S
H141 C149 0.950 . S
H142 C147 0.950 . S
H143 C148 0.949 . S
H144 C150 0.950 . S
H145 C151 0.950 . S
H146 C152 0.949 . S
C147 H142 0.950 . S
C147 C149 1.327 . S
C147 C153 1.429 1_655 S
C148 C140 1.574 . S
C148 H143 0.949 . S
C148 C154 1.368 1_565 S
C149 C133 1.349 1_655 S
C149 H141 0.950 . S
C149 C147 1.327 . S
C150 C138 1.349 1_565 S
C150 H144 0.950 . S
C150 C151 1.327 . S
C151 H145 0.950 . S
C151 C150 1.327 . S
C151 C155 1.429 1_565 S
C152 C135 1.574 . S
C152 H146 0.949 . S
C152 C156 1.368 1_655 S
C153 C134 1.429 1_545 S
C153 C147 1.429 1_455 S
C153 C154 1.523 . S
C154 C135 1.368 1_455 S
C154 C148 1.368 1_545 S
C154 C153 1.523 . S
C155 C139 1.429 1_455 S
C155 C151 1.429 1_545 S
C155 C156 1.523 . S
C156 C140 1.368 1_545 S
C156 C152 1.368 1_455 S
C156 C155 1.523 . S
H157 C132 0.950 . S
H158 C134 0.950 . S
H159 C135 0.949 . S
H160 C137 0.950 . S
H161 C139 0.950 . S
C162 C163 1.349 . S
C162 C164 1.327 . S
C162 H187 0.950 . S
C163 C162 1.349 . S
C163 C179 1.349 . S
C164 C162 1.327 . S
C164 C183 1.429 . S
C164 H188 0.950 . S
C165 C182 1.574 1_554 S
C165 C184 1.368 . S
C165 H189 0.949 . S
H166 C170 0.949 . S
C167 C168 1.349 . S
C167 C169 1.327 . S
C167 H190 0.950 . S
C168 C167 1.349 . S
C168 C180 1.349 . S
C169 C167 1.327 . S
C169 C185 1.429 . S
C169 H191 0.950 . S
C170 H166 0.949 . S
C170 C178 1.574 1_556 S
C170 C186 1.368 . S
H171 C179 0.950 . S
H172 C177 0.950 . S
H173 C178 0.949 . S
H174 C180 0.950 . S
H175 C181 0.950 . S
H176 C182 0.949 . S
C177 H172 0.950 . S
C177 C179 1.327 . S
C177 C183 1.429 . S
C178 C170 1.574 1_554 S
C178 H173 0.949 . S
C178 C184 1.368 . S
C179 C163 1.349 . S
C179 H171 0.950 . S
C179 C177 1.327 . S
C180 C168 1.349 . S
C180 H174 0.950 . S
C180 C181 1.327 . S
C181 H175 0.950 . S
C181 C180 1.327 . S
C181 C185 1.429 . S
C182 C165 1.574 1_556 S
C182 H176 0.949 . S
C182 C186 1.368 . S
C183 C164 1.429 . S
C183 C177 1.429 . S
C183 C184 1.523 . S
C184 C165 1.368 . S
C184 C178 1.368 . S
C184 C183 1.523 . S
C185 C169 1.429 . S
C185 C181 1.429 . S
C185 C186 1.523 . S
C186 C170 1.368 . S
C186 C182 1.368 . S
C186 C185 1.523 . S
H187 C162 0.950 . S
H188 C164 0.950 . S
H189 C165 0.949 . S
H190 C167 0.950 . S
H191 C169 0.950 . S
C192 C193 1.349 . S
C192 C194 1.327 . S
C192 H217 0.950 . S
C193 C192 1.349 . S
C193 C209 1.349 . S
C194 C192 1.327 . S
C194 C213 1.429 . S
C194 H218 0.950 . S
C195 C212 1.574 . S
C195 C214 1.368 . S
C195 H219 0.949 . S
H196 C200 0.949 . S
C197 C198 1.349 . S
C197 C199 1.327 . S
C197 H220 0.950 . S
C198 C197 1.349 . S
C198 C210 1.349 . S
C199 C197 1.327 . S
C199 C215 1.429 . S
C199 H221 0.950 . S
C200 H196 0.949 . S
C200 C208 1.574 . S
C200 C216 1.368 . S
H201 C209 0.950 . S
H202 C207 0.950 . S
H203 C208 0.949 . S
H204 C210 0.950 . S
H205 C211 0.950 . S
H206 C212 0.949 . S
C207 H202 0.950 . S
C207 C209 1.327 . S
C207 C213 1.429 . S
C208 C200 1.574 . S
C208 H203 0.949 . S
C208 C214 1.368 . S
C209 C193 1.349 . S
C209 H201 0.950 . S
C209 C207 1.327 . S
C210 C198 1.349 . S
C210 H204 0.950 . S
C210 C211 1.327 . S
C211 H205 0.950 . S
C211 C210 1.327 . S
C211 C215 1.429 . S
C212 C195 1.574 . S
C212 H206 0.949 . S
C212 C216 1.368 . S
C213 C194 1.429 . S
C213 C207 1.429 . S
C213 C214 1.523 . S
C214 C195 1.368 . S
C214 C208 1.368 . S
C214 C213 1.523 . S
C215 C199 1.429 . S
C215 C211 1.429 . S
C215 C216 1.523 . S
C216 C200 1.368 . S
C216 C212 1.368 . S
C216 C215 1.523 . S
H217 C192 0.950 . S
H218 C194 0.950 . S
H219 C195 0.949 . S
H220 C197 0.950 . S
H221 C199 0.950 . S
C222 C223 1.349 . S
C222 C224 1.327 . S
C222 H247 0.950 . S
C223 C222 1.349 . S
C223 C239 1.349 . S
C224 C222 1.327 . S
C224 C243 1.429 . S
C224 H248 0.950 . S
C225 C242 1.574 . S
C225 C244 1.368 . S
C225 H249 0.949 . S
H226 C230 0.949 . S
C227 C228 1.349 . S
C227 C229 1.327 . S
C227 H250 0.950 . S
C228 C227 1.349 . S
C228 C240 1.349 . S
C229 C227 1.327 . S
C229 C245 1.429 . S
C229 H251 0.950 . S
C230 H226 0.949 . S
C230 C238 1.574 . S
C230 C246 1.368 . S
H231 C239 0.950 . S
H232 C237 0.950 . S
H233 C238 0.949 . S
H234 C240 0.950 . S
H235 C241 0.950 . S
H236 C242 0.949 . S
C237 H232 0.950 . S
C237 C239 1.327 . S
C237 C243 1.429 . S
C238 C230 1.574 . S
C238 H233 0.949 . S
C238 C244 1.368 . S
C239 C223 1.349 . S
C239 H231 0.950 . S
C239 C237 1.327 . S
C240 C228 1.349 . S
C240 H234 0.950 . S
C240 C241 1.327 . S
C241 H235 0.950 . S
C241 C240 1.327 . S
C241 C245 1.429 . S
C242 C225 1.574 . S
C242 H236 0.949 . S
C242 C246 1.368 . S
C243 C224 1.429 . S
C243 C237 1.429 . S
C243 C244 1.523 . S
C244 C225 1.368 . S
C244 C238 1.368 . S
C244 C243 1.523 . S
C245 C229 1.429 . S
C245 C241 1.429 . S
C245 C246 1.523 . S
C246 C230 1.368 . S
C246 C242 1.368 . S
C246 C245 1.523 . S
H247 C222 0.950 . S
H248 C224 0.950 . S
H249 C225 0.949 . S
H250 C227 0.950 . S
H251 C229 0.950 . S
C252 C253 1.349 . S
C252 C254 1.327 . S
C252 H277 0.950 . S
C253 C252 1.349 . S
C253 C269 1.349 . S
C254 C252 1.327 . S
C254 C273 1.429 . S
C254 H278 0.950 . S
C255 C272 1.574 . S
C255 C274 1.368 . S
C255 H279 0.949 . S
H256 C260 0.949 . S
C257 C258 1.349 . S
C257 C259 1.327 . S
C257 H280 0.950 . S
C258 C257 1.349 . S
C258 C270 1.349 . S
C259 C257 1.327 . S
C259 C275 1.429 . S
C259 H281 0.950 . S
C260 H256 0.949 . S
C260 C268 1.574 . S
C260 C276 1.368 . S
H261 C269 0.950 . S
H262 C267 0.950 . S
H263 C268 0.949 . S
H264 C270 0.950 . S
H265 C271 0.950 . S
H266 C272 0.949 . S
C267 H262 0.950 . S
C267 C269 1.327 . S
C267 C273 1.429 . S
C268 C260 1.574 . S
C268 H263 0.949 . S
C268 C274 1.368 . S
C269 C253 1.349 . S
C269 H261 0.950 . S
C269 C267 1.327 . S
C270 C258 1.349 . S
C270 H264 0.950 . S
C270 C271 1.327 . S
C271 H265 0.950 . S
C271 C270 1.327 . S
C271 C275 1.429 . S
C272 C255 1.574 . S
C272 H266 0.949 . S
C272 C276 1.368 . S
C273 C254 1.429 . S
C273 C267 1.429 . S
C273 C274 1.523 . S
C274 C255 1.368 . S
C274 C268 1.368 . S
C274 C273 1.523 . S
C275 C259 1.429 . S
C275 C271 1.429 . S
C275 C276 1.523 . S
C276 C260 1.368 . S
C276 C272 1.368 . S
C276 C275 1.523 . S
H277 C252 0.950 . S
H278 C254 0.950 . S
H279 C255 0.949 . S
H280 C257 0.950 . S
H281 C259 0.950 . S
C282 C283 1.349 . S
C282 C284 1.327 . S
C282 H307 0.950 . S
C283 C282 1.349 . S
C283 C299 1.349 . S
C284 C282 1.327 . S
C284 C303 1.429 . S
C284 H308 0.950 . S
C285 C302 1.574 . S
C285 C304 1.368 . S
C285 H309 0.949 . S
H286 C290 0.949 . S
C287 C288 1.349 . S
C287 C289 1.327 . S
C287 H310 0.950 . S
C288 C287 1.349 . S
C288 C300 1.349 . S
C289 C287 1.327 . S
C289 C305 1.429 . S
C289 H311 0.950 . S
C290 H286 0.949 . S
C290 C298 1.574 . S
C290 C306 1.368 . S
H291 C299 0.950 . S
H292 C297 0.950 . S
H293 C298 0.949 . S
H294 C300 0.950 . S
H295 C301 0.950 . S
H296 C302 0.949 . S
C297 H292 0.950 . S
C297 C299 1.327 . S
C297 C303 1.429 . S
C298 C290 1.574 . S
C298 H293 0.949 . S
C298 C304 1.368 . S
C299 C283 1.349 . S
C299 H291 0.950 . S
C299 C297 1.327 . S
C300 C288 1.349 . S
C300 H294 0.950 . S
C300 C301 1.327 . S
C301 H295 0.950 . S
C301 C300 1.327 . S
C301 C305 1.429 . S
C302 C285 1.574 . S
C302 H296 0.949 . S
C302 C306 1.368 . S
C303 C284 1.429 . S
C303 C297 1.429 . S
C303 C304 1.523 . S
C304 C285 1.368 . S
C304 C298 1.368 . S
C304 C303 1.523 . S
C305 C289 1.429 . S
C305 C301 1.429 . S
C305 C306 1.523 . S
C306 C290 1.368 . S
C306 C302 1.368 . S
C306 C305 1.523 . S
H307 C282 0.950 . S
H308 C284 0.950 . S
H309 C285 0.949 . S
H310 C287 0.950 . S
H311 C289 0.950 . S
C312 C313 1.349 . S
C312 C314 1.327 . S
C312 H337 0.950 . S
C313 C312 1.349 . S
C313 C329 1.349 . S
C314 C312 1.327 . S
C314 C333 1.429 . S
C314 H338 0.950 . S
C315 C332 1.574 . S
C315 C334 1.368 . S
C315 H339 0.949 . S
H316 C320 0.949 . S
C317 C318 1.349 . S
C317 C319 1.327 . S
C317 H340 0.950 . S
C318 C317 1.349 . S
C318 C330 1.349 . S
C319 C317 1.327 . S
C319 C335 1.429 . S
C319 H341 0.950 . S
C320 H316 0.949 . S
C320 C328 1.574 . S
C320 C336 1.368 . S
H321 C329 0.950 . S
H322 C327 0.950 . S
H323 C328 0.949 . S
H324 C330 0.950 . S
H325 C331 0.950 . S
H326 C332 0.949 . S
C327 H322 0.950 . S
C327 C329 1.327 . S
C327 C333 1.429 . S
C328 C320 1.574 . S
C328 H323 0.949 . S
C328 C334 1.368 . S
C329 C313 1.349 . S
C329 H321 0.950 . S
C329 C327 1.327 . S
C330 C318 1.349 . S
C330 H324 0.950 . S
C330 C331 1.327 . S
C331 H325 0.950 . S
C331 C330 1.327 . S
C331 C335 1.429 . S
C332 C315 1.574 . S
C332 H326 0.949 . S
C332 C336 1.368 . S
C333 C314 1.429 . S
C333 C327 1.429 . S
C333 C334 1.523 . S
C334 C315 1.368 . S
C334 C328 1.368 . S
C334 C333 1.523 . S
C335 C319 1.429 . S
C335 C331 1.429 . S
C335 C336 1.523 . S
C336 C320 1.368 . S
C336 C332 1.368 . S
C336 C335 1.523 . S
H337 C312 0.950 . S
H338 C314 0.950 . S
H339 C315 0.949 . S
H340 C317 0.950 . S
H341 C319 0.950 . S
C342 C343 1.349 . S
C342 C344 1.327 . S
C342 H367 0.950 . S
C343 C342 1.349 . S
C343 C359 1.349 . S
C344 C342 1.327 . S
C344 C363 1.429 . S
C344 H368 0.950 . S
C345 C362 1.574 . S
C345 C364 1.368 . S
C345 H369 0.949 . S
H346 C350 0.949 . S
C347 C348 1.349 . S
C347 C349 1.327 . S
C347 H370 0.950 . S
C348 C347 1.349 . S
C348 C360 1.349 . S
C349 C347 1.327 . S
C349 C365 1.429 . S
C349 H371 0.950 . S
C350 H346 0.949 . S
C350 C358 1.574 . S
C350 C366 1.368 . S
H351 C359 0.950 . S
H352 C357 0.950 . S
H353 C358 0.949 . S
H354 C360 0.950 . S
H355 C361 0.950 . S
H356 C362 0.949 . S
C357 H352 0.950 . S
C357 C359 1.327 . S
C357 C363 1.429 . S
C358 C350 1.574 . S
C358 H353 0.949 . S
C358 C364 1.368 . S
C359 C343 1.349 . S
C359 H351 0.950 . S
C359 C357 1.327 . S
C360 C348 1.349 . S
C360 H354 0.950 . S
C360 C361 1.327 . S
C361 H355 0.950 . S
C361 C360 1.327 . S
C361 C365 1.429 . S
C362 C345 1.574 . S
C362 H356 0.949 . S
C362 C366 1.368 . S
C363 C344 1.429 . S
C363 C357 1.429 . S
C363 C364 1.523 . S
C364 C345 1.368 . S
C364 C358 1.368 . S
C364 C363 1.523 . S
C365 C349 1.429 . S
C365 C361 1.429 . S
C365 C366 1.523 . S
C366 C350 1.368 . S
C366 C362 1.368 . S
C366 C365 1.523 . S
H367 C342 0.950 . S
H368 C344 0.950 . S
H369 C345 0.949 . S
H370 C347 0.950 . S
H371 C349 0.950 . S
C372 C373 1.349 . S
C372 C374 1.327 . S
C372 H397 0.950 . S
C373 C372 1.349 . S
C373 C389 1.349 . S
C374 C372 1.327 . S
C374 C393 1.429 . S
C374 H398 0.950 . S
C375 C392 1.574 . S
C375 C394 1.368 . S
C375 H399 0.949 . S
H376 C380 0.949 . S
C377 C378 1.349 . S
C377 C379 1.327 . S
C377 H400 0.950 . S
C378 C377 1.349 . S
C378 C390 1.349 . S
C379 C377 1.327 . S
C379 C395 1.429 . S
C379 H401 0.950 . S
C380 H376 0.949 . S
C380 C388 1.574 . S
C380 C396 1.368 . S
H381 C389 0.950 . S
H382 C387 0.950 . S
H383 C388 0.949 . S
H384 C390 0.950 . S
H385 C391 0.950 . S
H386 C392 0.949 . S
C387 H382 0.950 . S
C387 C389 1.327 . S
C387 C393 1.429 . S
C388 C380 1.574 . S
C388 H383 0.949 . S
C388 C394 1.368 . S
C389 C373 1.349 . S
C389 H381 0.950 . S
C389 C387 1.327 . S
C390 C378 1.349 . S
C390 H384 0.950 . S
C390 C391 1.327 . S
C391 H385 0.950 . S
C391 C390 1.327 . S
C391 C395 1.429 . S
C392 C375 1.574 . S
C392 H386 0.949 . S
C392 C396 1.368 . S
C393 C374 1.429 . S
C393 C387 1.429 . S
C393 C394 1.523 . S
C394 C375 1.368 . S
C394 C388 1.368 . S
C394 C393 1.523 . S
C395 C379 1.429 . S
C395 C391 1.429 . S
C395 C396 1.523 . S
C396 C380 1.368 . S
C396 C392 1.368 . S
C396 C395 1.523 . S
H397 C372 0.950 . S
H398 C374 0.950 . S
H399 C375 0.949 . S
H400 C377 0.950 . S
H401 C379 0.950 . S
C402 C403 1.349 . S
C402 C404 1.327 . S
C402 H427 0.950 . S
C403 C402 1.349 . S
C403 C419 1.349 . S
C404 C402 1.327 . S
C404 C423 1.429 . S
C404 H428 0.950 . S
C405 C422 1.574 . S
C405 C424 1.368 . S
C405 H429 0.949 . S
H406 C410 0.949 . S
C407 C408 1.349 . S
C407 C409 1.327 . S
C407 H430 0.950 . S
C408 C407 1.349 . S
C408 C420 1.349 . S
C409 C407 1.327 . S
C409 C425 1.429 . S
C409 H431 0.950 . S
C410 H406 0.949 . S
C410 C418 1.574 . S
C410 C426 1.368 . S
H411 C419 0.950 . S
H412 C417 0.950 . S
H413 C418 0.949 . S
H414 C420 0.950 . S
H415 C421 0.950 . S
H416 C422 0.949 . S
C417 H412 0.950 . S
C417 C419 1.327 . S
C417 C423 1.429 . S
C418 C410 1.574 . S
C418 H413 0.949 . S
C418 C424 1.368 . S
C419 C403 1.349 . S
C419 H411 0.950 . S
C419 C417 1.327 . S
C420 C408 1.349 . S
C420 H414 0.950 . S
C420 C421 1.327 . S
C421 H415 0.950 . S
C421 C420 1.327 . S
C421 C425 1.429 . S
C422 C405 1.574 . S
C422 H416 0.949 . S
C422 C426 1.368 . S
C423 C404 1.429 . S
C423 C417 1.429 . S
C423 C424 1.523 . S
C424 C405 1.368 . S
C424 C418 1.368 . S
C424 C423 1.523 . S
C425 C409 1.429 . S
C425 C421 1.429 . S
C425 C426 1.523 . S
C426 C410 1.368 . S
C426 C422 1.368 . S
C426 C425 1.523 . S
H427 C402 0.950 . S
H428 C404 0.950 . S
H429 C405 0.949 . S
H430 C407 0.950 . S
H431 C409 0.950 . S
C133 C17 1.485 . S
C138 C50 1.485 . S
C163 C116 1.485 . S
C168 C83 1.485 . S
C193 C8 1.499 . S
C198 N113 1.479 . S
C223 N5 1.351 . S
C228 C127 1.418 . S
C253 N104 1.351 . S
C258 C28 1.421 . S
C283 N14 1.480 . S
C288 C107 1.500 . S
C313 N71 1.351 . S
C318 C61 1.421 . S
C343 N38 1.351 . S
C348 C94 1.418 . S
C373 C41 1.499 . S
C378 N80 1.479 . S
C403 C74 1.499 . S
C408 N47 1.481 . S
